# Generated by pormake.
# Topology uky, (4)-cn, num edge types: 1
# Building blocks:
#     Node 0, Type 0, BuildingBlock: QUQFOY_clean_sbu_1, # of connection points: 4
#     Node 1, Type 0, BuildingBlock: QUQFOY_clean_sbu_1, # of connection points: 4
#     Node 2, Type 0, BuildingBlock: QUQFOY_clean_sbu_1, # of connection points: 4
#     Node 3, Type 0, BuildingBlock: QUQFOY_clean_sbu_1, # of connection points: 4
#     Node 4, Type 0, BuildingBlock: QUQFOY_clean_sbu_1, # of connection points: 4
#     Node 5, Type 0, BuildingBlock: QUQFOY_clean_sbu_1, # of connection points: 4
#     Node 6, Type 0, BuildingBlock: QUQFOY_clean_sbu_1, # of connection points: 4
#     Node 7, Type 0, BuildingBlock: QUQFOY_clean_sbu_1, # of connection points: 4
#     Node 8, Type 0, BuildingBlock: QUQFOY_clean_sbu_1, # of connection points: 4
#     Node 9, Type 0, BuildingBlock: QUQFOY_clean_sbu_1, # of connection points: 4
#     Node 10, Type 0, BuildingBlock: QUQFOY_clean_sbu_1, # of connection points: 4
#     Node 11, Type 0, BuildingBlock: QUQFOY_clean_sbu_1, # of connection points: 4
#     Node 12, Type 0, BuildingBlock: QUQFOY_clean_sbu_1, # of connection points: 4
#     Node 13, Type 0, BuildingBlock: QUQFOY_clean_sbu_1, # of connection points: 4
#     Node 14, Type 0, BuildingBlock: QUQFOY_clean_sbu_1, # of connection points: 4
#     Node 15, Type 0, BuildingBlock: QUQFOY_clean_sbu_1, # of connection points: 4
#     Node 16, Type 0, BuildingBlock: QUQFOY_clean_sbu_1, # of connection points: 4
#     Node 17, Type 0, BuildingBlock: QUQFOY_clean_sbu_1, # of connection points: 4
#     Node 18, Type 0, BuildingBlock: QUQFOY_clean_sbu_1, # of connection points: 4
#     Node 19, Type 0, BuildingBlock: QUQFOY_clean_sbu_1, # of connection points: 4
#     Node 20, Type 0, BuildingBlock: QUQFOY_clean_sbu_1, # of connection points: 4
#     Node 21, Type 0, BuildingBlock: QUQFOY_clean_sbu_1, # of connection points: 4
#     Node 22, Type 0, BuildingBlock: QUQFOY_clean_sbu_1, # of connection points: 4
#     Node 23, Type 0, BuildingBlock: QUQFOY_clean_sbu_1, # of connection points: 4
#     Node 24, Type 0, BuildingBlock: QUQFOY_clean_sbu_1, # of connection points: 4
#     Node 25, Type 0, BuildingBlock: QUQFOY_clean_sbu_1, # of connection points: 4
#     Node 26, Type 0, BuildingBlock: QUQFOY_clean_sbu_1, # of connection points: 4
#     Node 27, Type 0, BuildingBlock: QUQFOY_clean_sbu_1, # of connection points: 4
#     Node 28, Type 0, BuildingBlock: QUQFOY_clean_sbu_1, # of connection points: 4
#     Node 29, Type 0, BuildingBlock: QUQFOY_clean_sbu_1, # of connection points: 4
#     Node 30, Type 0, BuildingBlock: QUQFOY_clean_sbu_1, # of connection points: 4
#     Node 31, Type 0, BuildingBlock: QUQFOY_clean_sbu_1, # of connection points: 4
#     Node 32, Type 0, BuildingBlock: QUQFOY_clean_sbu_1, # of connection points: 4
#     Node 33, Type 0, BuildingBlock: QUQFOY_clean_sbu_1, # of connection points: 4
#     Node 34, Type 0, BuildingBlock: QUQFOY_clean_sbu_1, # of connection points: 4
#     Node 35, Type 0, BuildingBlock: QUQFOY_clean_sbu_1, # of connection points: 4
#     Node 36, Type 0, BuildingBlock: QUQFOY_clean_sbu_1, # of connection points: 4
#     Node 37, Type 0, BuildingBlock: QUQFOY_clean_sbu_1, # of connection points: 4
#     Node 38, Type 0, BuildingBlock: QUQFOY_clean_sbu_1, # of connection points: 4
#     Node 39, Type 0, BuildingBlock: QUQFOY_clean_sbu_1, # of connection points: 4
#     Node 40, Type 0, BuildingBlock: QUQFOY_clean_sbu_1, # of connection points: 4
#     Node 41, Type 0, BuildingBlock: QUQFOY_clean_sbu_1, # of connection points: 4
#     Node 42, Type 0, BuildingBlock: QUQFOY_clean_sbu_1, # of connection points: 4
#     Node 43, Type 0, BuildingBlock: QUQFOY_clean_sbu_1, # of connection points: 4
#     Node 44, Type 0, BuildingBlock: QUQFOY_clean_sbu_1, # of connection points: 4
#     Node 45, Type 0, BuildingBlock: QUQFOY_clean_sbu_1, # of connection points: 4
#     Node 46, Type 0, BuildingBlock: QUQFOY_clean_sbu_1, # of connection points: 4
#     Node 47, Type 0, BuildingBlock: QUQFOY_clean_sbu_1, # of connection points: 4
#     Edge 48, Type (0, 0), BuildingBlock: KIFKEQ_clean_linker_1, # of connection points: 2
#     Edge 49, Type (0, 0), BuildingBlock: KIFKEQ_clean_linker_1, # of connection points: 2
#     Edge 50, Type (0, 0), BuildingBlock: KIFKEQ_clean_linker_1, # of connection points: 2
#     Edge 51, Type (0, 0), BuildingBlock: KIFKEQ_clean_linker_1, # of connection points: 2
#     Edge 52, Type (0, 0), BuildingBlock: KIFKEQ_clean_linker_1, # of connection points: 2
#     Edge 53, Type (0, 0), BuildingBlock: KIFKEQ_clean_linker_1, # of connection points: 2
#     Edge 54, Type (0, 0), BuildingBlock: KIFKEQ_clean_linker_1, # of connection points: 2
#     Edge 55, Type (0, 0), BuildingBlock: KIFKEQ_clean_linker_1, # of connection points: 2
#     Edge 56, Type (0, 0), BuildingBlock: KIFKEQ_clean_linker_1, # of connection points: 2
#     Edge 57, Type (0, 0), BuildingBlock: KIFKEQ_clean_linker_1, # of connection points: 2
#     Edge 58, Type (0, 0), BuildingBlock: KIFKEQ_clean_linker_1, # of connection points: 2
#     Edge 59, Type (0, 0), BuildingBlock: KIFKEQ_clean_linker_1, # of connection points: 2
#     Edge 60, Type (0, 0), BuildingBlock: KIFKEQ_clean_linker_1, # of connection points: 2
#     Edge 61, Type (0, 0), BuildingBlock: KIFKEQ_clean_linker_1, # of connection points: 2
#     Edge 62, Type (0, 0), BuildingBlock: KIFKEQ_clean_linker_1, # of connection points: 2
#     Edge 63, Type (0, 0), BuildingBlock: KIFKEQ_clean_linker_1, # of connection points: 2
#     Edge 64, Type (0, 0), BuildingBlock: KIFKEQ_clean_linker_1, # of connection points: 2
#     Edge 65, Type (0, 0), BuildingBlock: KIFKEQ_clean_linker_1, # of connection points: 2
#     Edge 66, Type (0, 0), BuildingBlock: KIFKEQ_clean_linker_1, # of connection points: 2
#     Edge 67, Type (0, 0), BuildingBlock: KIFKEQ_clean_linker_1, # of connection points: 2
#     Edge 68, Type (0, 0), BuildingBlock: KIFKEQ_clean_linker_1, # of connection points: 2
#     Edge 69, Type (0, 0), BuildingBlock: KIFKEQ_clean_linker_1, # of connection points: 2
#     Edge 70, Type (0, 0), BuildingBlock: KIFKEQ_clean_linker_1, # of connection points: 2
#     Edge 71, Type (0, 0), BuildingBlock: KIFKEQ_clean_linker_1, # of connection points: 2
#     Edge 72, Type (0, 0), BuildingBlock: KIFKEQ_clean_linker_1, # of connection points: 2
#     Edge 73, Type (0, 0), BuildingBlock: KIFKEQ_clean_linker_1, # of connection points: 2
#     Edge 74, Type (0, 0), BuildingBlock: KIFKEQ_clean_linker_1, # of connection points: 2
#     Edge 75, Type (0, 0), BuildingBlock: KIFKEQ_clean_linker_1, # of connection points: 2
#     Edge 76, Type (0, 0), BuildingBlock: KIFKEQ_clean_linker_1, # of connection points: 2
#     Edge 77, Type (0, 0), BuildingBlock: KIFKEQ_clean_linker_1, # of connection points: 2
#     Edge 78, Type (0, 0), BuildingBlock: KIFKEQ_clean_linker_1, # of connection points: 2
#     Edge 79, Type (0, 0), BuildingBlock: KIFKEQ_clean_linker_1, # of connection points: 2
#     Edge 80, Type (0, 0), BuildingBlock: KIFKEQ_clean_linker_1, # of connection points: 2
#     Edge 81, Type (0, 0), BuildingBlock: KIFKEQ_clean_linker_1, # of connection points: 2
#     Edge 82, Type (0, 0), BuildingBlock: KIFKEQ_clean_linker_1, # of connection points: 2
#     Edge 83, Type (0, 0), BuildingBlock: KIFKEQ_clean_linker_1, # of connection points: 2
#     Edge 84, Type (0, 0), BuildingBlock: KIFKEQ_clean_linker_1, # of connection points: 2
#     Edge 85, Type (0, 0), BuildingBlock: KIFKEQ_clean_linker_1, # of connection points: 2
#     Edge 86, Type (0, 0), BuildingBlock: KIFKEQ_clean_linker_1, # of connection points: 2
#     Edge 87, Type (0, 0), BuildingBlock: KIFKEQ_clean_linker_1, # of connection points: 2
#     Edge 88, Type (0, 0), BuildingBlock: KIFKEQ_clean_linker_1, # of connection points: 2
#     Edge 89, Type (0, 0), BuildingBlock: KIFKEQ_clean_linker_1, # of connection points: 2
#     Edge 90, Type (0, 0), BuildingBlock: KIFKEQ_clean_linker_1, # of connection points: 2
#     Edge 91, Type (0, 0), BuildingBlock: KIFKEQ_clean_linker_1, # of connection points: 2
#     Edge 92, Type (0, 0), BuildingBlock: KIFKEQ_clean_linker_1, # of connection points: 2
#     Edge 93, Type (0, 0), BuildingBlock: KIFKEQ_clean_linker_1, # of connection points: 2
#     Edge 94, Type (0, 0), BuildingBlock: KIFKEQ_clean_linker_1, # of connection points: 2
#     Edge 95, Type (0, 0), BuildingBlock: KIFKEQ_clean_linker_1, # of connection points: 2
#     Edge 96, Type (0, 0), BuildingBlock: KIFKEQ_clean_linker_1, # of connection points: 2
#     Edge 97, Type (0, 0), BuildingBlock: KIFKEQ_clean_linker_1, # of connection points: 2
#     Edge 98, Type (0, 0), BuildingBlock: KIFKEQ_clean_linker_1, # of connection points: 2
#     Edge 99, Type (0, 0), BuildingBlock: KIFKEQ_clean_linker_1, # of connection points: 2
#     Edge 100, Type (0, 0), BuildingBlock: KIFKEQ_clean_linker_1, # of connection points: 2
#     Edge 101, Type (0, 0), BuildingBlock: KIFKEQ_clean_linker_1, # of connection points: 2
#     Edge 102, Type (0, 0), BuildingBlock: KIFKEQ_clean_linker_1, # of connection points: 2
#     Edge 103, Type (0, 0), BuildingBlock: KIFKEQ_clean_linker_1, # of connection points: 2
#     Edge 104, Type (0, 0), BuildingBlock: KIFKEQ_clean_linker_1, # of connection points: 2
#     Edge 105, Type (0, 0), BuildingBlock: KIFKEQ_clean_linker_1, # of connection points: 2
#     Edge 106, Type (0, 0), BuildingBlock: KIFKEQ_clean_linker_1, # of connection points: 2
#     Edge 107, Type (0, 0), BuildingBlock: KIFKEQ_clean_linker_1, # of connection points: 2
#     Edge 108, Type (0, 0), BuildingBlock: KIFKEQ_clean_linker_1, # of connection points: 2
#     Edge 109, Type (0, 0), BuildingBlock: KIFKEQ_clean_linker_1, # of connection points: 2
#     Edge 110, Type (0, 0), BuildingBlock: KIFKEQ_clean_linker_1, # of connection points: 2
#     Edge 111, Type (0, 0), BuildingBlock: KIFKEQ_clean_linker_1, # of connection points: 2
#     Edge 112, Type (0, 0), BuildingBlock: KIFKEQ_clean_linker_1, # of connection points: 2
#     Edge 113, Type (0, 0), BuildingBlock: KIFKEQ_clean_linker_1, # of connection points: 2
#     Edge 114, Type (0, 0), BuildingBlock: KIFKEQ_clean_linker_1, # of connection points: 2
#     Edge 115, Type (0, 0), BuildingBlock: KIFKEQ_clean_linker_1, # of connection points: 2
#     Edge 116, Type (0, 0), BuildingBlock: KIFKEQ_clean_linker_1, # of connection points: 2
#     Edge 117, Type (0, 0), BuildingBlock: KIFKEQ_clean_linker_1, # of connection points: 2
#     Edge 118, Type (0, 0), BuildingBlock: KIFKEQ_clean_linker_1, # of connection points: 2
#     Edge 119, Type (0, 0), BuildingBlock: KIFKEQ_clean_linker_1, # of connection points: 2
#     Edge 120, Type (0, 0), BuildingBlock: KIFKEQ_clean_linker_1, # of connection points: 2
#     Edge 121, Type (0, 0), BuildingBlock: KIFKEQ_clean_linker_1, # of connection points: 2
#     Edge 122, Type (0, 0), BuildingBlock: KIFKEQ_clean_linker_1, # of connection points: 2
#     Edge 123, Type (0, 0), BuildingBlock: KIFKEQ_clean_linker_1, # of connection points: 2
#     Edge 124, Type (0, 0), BuildingBlock: KIFKEQ_clean_linker_1, # of connection points: 2
#     Edge 125, Type (0, 0), BuildingBlock: KIFKEQ_clean_linker_1, # of connection points: 2
#     Edge 126, Type (0, 0), BuildingBlock: KIFKEQ_clean_linker_1, # of connection points: 2
#     Edge 127, Type (0, 0), BuildingBlock: KIFKEQ_clean_linker_1, # of connection points: 2
#     Edge 128, Type (0, 0), BuildingBlock: KIFKEQ_clean_linker_1, # of connection points: 2
#     Edge 129, Type (0, 0), BuildingBlock: KIFKEQ_clean_linker_1, # of connection points: 2
#     Edge 130, Type (0, 0), BuildingBlock: KIFKEQ_clean_linker_1, # of connection points: 2
#     Edge 131, Type (0, 0), BuildingBlock: KIFKEQ_clean_linker_1, # of connection points: 2
#     Edge 132, Type (0, 0), BuildingBlock: KIFKEQ_clean_linker_1, # of connection points: 2
#     Edge 133, Type (0, 0), BuildingBlock: KIFKEQ_clean_linker_1, # of connection points: 2
#     Edge 134, Type (0, 0), BuildingBlock: KIFKEQ_clean_linker_1, # of connection points: 2
#     Edge 135, Type (0, 0), BuildingBlock: KIFKEQ_clean_linker_1, # of connection points: 2
#     Edge 136, Type (0, 0), BuildingBlock: KIFKEQ_clean_linker_1, # of connection points: 2
#     Edge 137, Type (0, 0), BuildingBlock: KIFKEQ_clean_linker_1, # of connection points: 2
#     Edge 138, Type (0, 0), BuildingBlock: KIFKEQ_clean_linker_1, # of connection points: 2
#     Edge 139, Type (0, 0), BuildingBlock: KIFKEQ_clean_linker_1, # of connection points: 2
#     Edge 140, Type (0, 0), BuildingBlock: KIFKEQ_clean_linker_1, # of connection points: 2
#     Edge 141, Type (0, 0), BuildingBlock: KIFKEQ_clean_linker_1, # of connection points: 2
#     Edge 142, Type (0, 0), BuildingBlock: KIFKEQ_clean_linker_1, # of connection points: 2
#     Edge 143, Type (0, 0), BuildingBlock: KIFKEQ_clean_linker_1, # of connection points: 2
# Relax obj value: 0.296
# Max RMSD: 0.255
# Mean RMSD: 0.253
data_MOF--net-uky--node1-QUQFOY_clean_sbu_1--edge1-KIFKEQ_clean_linker_1
_symmetry_space_group_name_H-M    P1
_symmetry_Int_Tables_number       1
_symmetry_cell_setting            triclinic
loop_
_symmetry_equiv_pos_as_xyz
'x, y, z'
_cell_length_a     65.039795
_cell_length_b     65.055485
_cell_length_c     65.073123
_cell_angle_alpha  89.99843
_cell_angle_beta   89.982489
_cell_angle_gamma 89.995456
loop_
_atom_site_label
_atom_site_type_symbol
_atom_site_fract_x
_atom_site_fract_y
_atom_site_fract_z
_atom_type_partial_charge
O0 O 0.24001 0.18012 0.41247 0.0
Cd1 Cd 0.23113 0.17606 0.38225 0.0
Cd2 Cd 0.23492 0.21724 0.38114 0.0
O3 O 0.2369 0.21388 0.41263 0.0
O4 O 0.21371 0.15086 0.38168 0.0
O5 O 0.20165 0.18225 0.37613 0.0
C6 C 0.19817 0.16282 0.37849 0.0
C7 C 0.21627 0.24446 0.36677 0.0
C8 C 0.24012 0.19711 0.42213 0.0
C9 C 0.26415 0.19181 0.35524 0.0
O10 O 0.25999 0.20895 0.36364 0.0
O11 O 0.25332 0.17602 0.35927 0.0
O12 O 0.23303 0.24751 0.37684 0.0
O13 O 0.2094 0.22587 0.36561 0.0
O14 O 0.06696 0.98953 0.66501 0.0
Cd15 Cd 0.0713 0.98063 0.63486 0.0
Cd16 Cd 0.03033 0.98249 0.63394 0.0
O17 O 0.03381 0.98265 0.66556 0.0
O18 O 0.09663 0.96335 0.63394 0.0
O19 O 0.06524 0.95119 0.62854 0.0
C20 C 0.08472 0.9478 0.63062 0.0
C21 C 0.00385 0.96376 0.61835 0.0
C22 C 0.05025 0.98751 0.67495 0.0
C23 C 0.05447 0.01347 0.60881 0.0
O24 O 0.03766 0.00872 0.6176 0.0
O25 O 0.07057 0.00285 0.61208 0.0
O26 O 0.00015 0.97978 0.62939 0.0
O27 O 0.02267 0.95759 0.61701 0.0
O28 O 0.26141 0.82028 0.90967 0.0
Cd29 Cd 0.27093 0.82415 0.87964 0.0
Cd30 Cd 0.26931 0.78312 0.87907 0.0
O31 O 0.26902 0.78731 0.9106 0.0
O32 O 0.28875 0.84907 0.87867 0.0
O33 O 0.30034 0.81735 0.87398 0.0
C34 C 0.30411 0.83678 0.87586 0.0
C35 C 0.28739 0.75545 0.86476 0.0
C36 C 0.26372 0.80373 0.91978 0.0
C37 C 0.23857 0.80706 0.85328 0.0
O38 O 0.24328 0.79036 0.8623 0.0
O39 O 0.24909 0.82321 0.85651 0.0
O40 O 0.27116 0.75273 0.87576 0.0
O41 O 0.2941 0.77401 0.8626 0.0
O42 O 0.43906 0.00895 0.16095 0.0
Cd43 Cd 0.43471 0.01825 0.13092 0.0
Cd44 Cd 0.47578 0.01575 0.12977 0.0
O45 O 0.47221 0.01583 0.16139 0.0
O46 O 0.40908 0.03503 0.13049 0.0
O47 O 0.44016 0.04794 0.12502 0.0
C48 C 0.42063 0.05088 0.12732 0.0
C49 C 0.50305 0.03366 0.11461 0.0
C50 C 0.45578 0.01099 0.17083 0.0
C51 C 0.45098 0.98551 0.10437 0.0
O52 O 0.46789 0.98977 0.11322 0.0
O53 O 0.43512 0.9964 0.10783 0.0
O54 O 0.50607 0.0175 0.12562 0.0
O55 O 0.48445 0.04043 0.11298 0.0
O56 O 0.23906 0.81848 0.08356 0.0
Cd57 Cd 0.22904 0.82155 0.11369 0.0
Cd58 Cd 0.23793 0.78163 0.11414 0.0
O59 O 0.23714 0.7847 0.08263 0.0
O60 O 0.21048 0.84591 0.11392 0.0
O61 O 0.19969 0.81405 0.1193 0.0
C62 C 0.19544 0.83334 0.11704 0.0
C63 C 0.22311 0.75305 0.13021 0.0
C64 C 0.23956 0.80176 0.07344 0.0
C65 C 0.26429 0.81002 0.13934 0.0
O66 O 0.26316 0.79316 0.12958 0.0
O67 O 0.25039 0.82359 0.13725 0.0
O68 O 0.23987 0.75161 0.11975 0.0
O69 O 0.21405 0.77071 0.13081 0.0
O70 O 0.43861 0.99141 0.33472 0.0
Cd71 Cd 0.43362 0.98162 0.36466 0.0
Cd72 Cd 0.47409 0.98995 0.36656 0.0
O73 O 0.47239 0.98924 0.33495 0.0
O74 O 0.40806 0.96488 0.36254 0.0
O75 O 0.43837 0.9518 0.37114 0.0
C76 C 0.41914 0.94903 0.36692 0.0
C77 C 0.50203 0.975 0.38355 0.0
C78 C 0.45567 0.99174 0.32518 0.0
C79 C 0.44494 0.01662 0.39085 0.0
O80 O 0.46217 0.01516 0.38177 0.0
O81 O 0.43112 0.00309 0.3881 0.0
O82 O 0.50386 0.99183 0.37327 0.0
O83 O 0.48435 0.96595 0.38344 0.0
O84 O 0.26434 0.18304 0.58594 0.0
Cd85 Cd 0.27267 0.17985 0.61657 0.0
Cd86 Cd 0.26347 0.21991 0.61664 0.0
O87 O 0.26415 0.21691 0.5852 0.0
O88 O 0.28993 0.15454 0.61739 0.0
O89 O 0.30219 0.18576 0.62327 0.0
C90 C 0.30551 0.16629 0.62096 0.0
C91 C 0.2799 0.24716 0.63331 0.0
C92 C 0.26303 0.19977 0.57591 0.0
C93 C 0.23637 0.19214 0.64126 0.0
O94 O 0.23782 0.20908 0.63167 0.0
O95 O 0.25018 0.17843 0.6393 0.0
O96 O 0.26366 0.24999 0.62231 0.0
O97 O 0.28747 0.22882 0.63416 0.0
O98 O 0.06671 0.00705 0.83884 0.0
Cd99 Cd 0.07161 0.0162 0.86879 0.0
Cd100 Cd 0.03052 0.01588 0.86987 0.0
O101 O 0.03391 0.0155 0.8382 0.0
O102 O 0.09749 0.0328 0.86929 0.0
O103 O 0.06645 0.04586 0.87454 0.0
C104 C 0.08598 0.04872 0.87231 0.0
C105 C 0.00678 0.03721 0.88644 0.0
C106 C 0.05012 0.00977 0.82887 0.0
C107 C 0.0534 0.98425 0.89518 0.0
O108 O 0.03677 0.98938 0.88625 0.0
O109 O 0.06982 0.99437 0.8919 0.0
O110 O 0.00086 0.02175 0.87554 0.0
O111 O 0.02619 0.0413 0.887 0.0
O112 O 0.41226 0.23806 0.17974 0.0
Cd113 Cd 0.38249 0.22787 0.17569 0.0
Cd114 Cd 0.38178 0.22948 0.21664 0.0
O115 O 0.41335 0.2305 0.21271 0.0
O116 O 0.38219 0.21037 0.15054 0.0
O117 O 0.37756 0.19823 0.18207 0.0
C118 C 0.37974 0.19478 0.16261 0.0
C119 C 0.36742 0.21099 0.24401 0.0
C120 C 0.42241 0.23604 0.1963 0.0
C121 C 0.35553 0.25974 0.19266 0.0
O122 O 0.36463 0.25522 0.20936 0.0
O123 O 0.35889 0.24921 0.17654 0.0
O124 O 0.37814 0.22736 0.24698 0.0
O125 O 0.36564 0.20435 0.22539 0.0
O126 O 0.01213 0.16295 0.4333 0.0
Cd127 Cd 0.02062 0.13251 0.42986 0.0
Cd128 Cd 0.01512 0.1322 0.47098 0.0
O129 O 0.01358 0.16366 0.46715 0.0
O130 O 0.03786 0.13143 0.40457 0.0
O131 O 0.0501 0.12601 0.43589 0.0
C132 C 0.05344 0.12809 0.4164 0.0
C133 C 0.03293 0.11783 0.49871 0.0
C134 C 0.01132 0.17291 0.45009 0.0
C135 C 0.98672 0.10607 0.44499 0.0
O136 O 0.99023 0.11476 0.46212 0.0
O137 O 0.99818 0.10977 0.42957 0.0
O138 O 0.01616 0.12805 0.50129 0.0
O139 O 0.0403 0.11659 0.48032 0.0
O140 O 0.08642 0.75997 0.68063 0.0
Cd141 Cd 0.11655 0.76918 0.67671 0.0
Cd142 Cd 0.11707 0.76699 0.71765 0.0
O143 O 0.08547 0.76684 0.71376 0.0
O144 O 0.11758 0.78693 0.65174 0.0
O145 O 0.12251 0.79855 0.68339 0.0
C146 C 0.12059 0.80229 0.66397 0.0
C147 C 0.13232 0.78516 0.74473 0.0
C148 C 0.07628 0.76193 0.69722 0.0
C149 C 0.14254 0.73632 0.69341 0.0
O150 O 0.1335 0.74088 0.71014 0.0
O151 O 0.13949 0.74711 0.6774 0.0
O152 O 0.12121 0.76909 0.74794 0.0
O153 O 0.1339 0.79173 0.72608 0.0
O154 O 0.49185 0.83581 0.92763 0.0
Cd155 Cd 0.483 0.86605 0.92371 0.0
Cd156 Cd 0.48578 0.86669 0.96475 0.0
O157 O 0.48531 0.83514 0.96083 0.0
O158 O 0.46533 0.86712 0.89871 0.0
O159 O 0.45364 0.8724 0.93029 0.0
C160 C 0.44996 0.87038 0.91086 0.0
C161 C 0.46877 0.88177 0.99266 0.0
C162 C 0.48988 0.8258 0.94429 0.0
C163 C 0.51643 0.89166 0.93989 0.0
O164 O 0.51198 0.88276 0.95672 0.0
O165 O 0.50538 0.88869 0.92405 0.0
O166 O 0.48481 0.87045 0.99513 0.0
O167 O 0.46158 0.88376 0.97427 0.0
O168 O 0.41083 0.76066 0.31558 0.0
Cd169 Cd 0.38115 0.7708 0.32034 0.0
Cd170 Cd 0.38027 0.76907 0.27917 0.0
O171 O 0.41187 0.76789 0.28254 0.0
O172 O 0.38239 0.78784 0.34571 0.0
O173 O 0.37541 0.80052 0.31478 0.0
C174 C 0.37897 0.80357 0.3341 0.0
C175 C 0.36591 0.78583 0.2507 0.0
C176 C 0.42094 0.76247 0.29897 0.0
C177 C 0.35431 0.73884 0.30415 0.0
O178 O 0.36313 0.74364 0.28738 0.0
O179 O 0.35774 0.74925 0.32033 0.0
O180 O 0.37613 0.76899 0.24889 0.0
O181 O 0.36476 0.79402 0.26874 0.0
O182 O 0.49311 0.16038 0.5706 0.0
Cd183 Cd 0.4835 0.13041 0.5747 0.0
Cd184 Cd 0.48604 0.12961 0.53342 0.0
O185 O 0.48669 0.16116 0.53736 0.0
O186 O 0.46574 0.13006 0.59963 0.0
O187 O 0.45404 0.12484 0.56804 0.0
C188 C 0.45033 0.12719 0.58744 0.0
C189 C 0.46964 0.11557 0.50456 0.0
C190 C 0.49143 0.1704 0.55392 0.0
C191 C 0.51595 0.10372 0.55864 0.0
O192 O 0.51146 0.11251 0.54178 0.0
O193 O 0.50526 0.10718 0.57462 0.0
O194 O 0.48647 0.12586 0.50307 0.0
O195 O 0.46129 0.11411 0.52251 0.0
O196 O 0.08593 0.23371 0.8169 0.0
Cd197 Cd 0.11644 0.22591 0.82159 0.0
Cd198 Cd 0.11815 0.23151 0.78033 0.0
O199 O 0.08658 0.23288 0.78301 0.0
O200 O 0.11702 0.20855 0.84679 0.0
O201 O 0.12406 0.19666 0.81565 0.0
C202 C 0.12135 0.19315 0.83503 0.0
C203 C 0.1333 0.21565 0.75176 0.0
C204 C 0.07665 0.23474 0.79973 0.0
C205 C 0.14249 0.26044 0.80784 0.0
O206 O 0.13484 0.25642 0.79033 0.0
O207 O 0.1384 0.24904 0.82318 0.0
O208 O 0.12333 0.23268 0.75023 0.0
O209 O 0.13379 0.20682 0.76953 0.0
O210 O 0.00552 0.83391 0.06965 0.0
Cd211 Cd 0.01524 0.86384 0.07346 0.0
Cd212 Cd 0.0125 0.86457 0.03246 0.0
O213 O 0.01209 0.83298 0.03645 0.0
O214 O 0.03353 0.86448 0.09802 0.0
O215 O 0.04452 0.86935 0.06611 0.0
C216 C 0.04866 0.86729 0.08544 0.0
C217 C 0.03033 0.87932 0.00488 0.0
C218 C 0.00728 0.8238 0.05303 0.0
C219 C 0.98275 0.89061 0.05735 0.0
O220 O 0.9869 0.8816 0.04051 0.0
O221 O 0.99362 0.88715 0.07322 0.0
O222 O 0.01395 0.86854 0.00211 0.0
O223 O 0.03736 0.88087 0.02337 0.0
O224 O 0.18193 0.41119 0.23758 0.0
Cd225 Cd 0.17802 0.38068 0.22949 0.0
Cd226 Cd 0.21922 0.38006 0.23314 0.0
O227 O 0.21568 0.41157 0.23433 0.0
O228 O 0.15257 0.37947 0.21247 0.0
O229 O 0.18383 0.37392 0.20007 0.0
C230 C 0.16432 0.37603 0.19683 0.0
C231 C 0.24633 0.36513 0.21478 0.0
C232 C 0.19883 0.421 0.23739 0.0
C233 C 0.19423 0.35465 0.26308 0.0
O234 O 0.21124 0.36321 0.25869 0.0
O235 O 0.17837 0.35819 0.2522 0.0
O236 O 0.24948 0.37573 0.2312 0.0
O237 O 0.22771 0.36385 0.20801 0.0
O238 O 0.6801 0.08745 0.75429 0.0
Cd239 Cd 0.67624 0.11755 0.76403 0.0
Cd240 Cd 0.71645 0.11878 0.75654 0.0
O241 O 0.71378 0.08723 0.75771 0.0
O242 O 0.65156 0.11737 0.78213 0.0
O243 O 0.68318 0.12319 0.79344 0.0
C244 C 0.66387 0.12054 0.79738 0.0
C245 C 0.74446 0.13517 0.77211 0.0
C246 C 0.69702 0.07765 0.75475 0.0
C247 C 0.68847 0.14344 0.72923 0.0
O248 O 0.70546 0.13397 0.7309 0.0
O249 O 0.67449 0.14109 0.74266 0.0
O250 O 0.74646 0.12464 0.75546 0.0
O251 O 0.72651 0.13573 0.78059 0.0
O252 O 0.16106 0.43147 0.01097 0.0
Cd253 Cd 0.13098 0.42722 0.02019 0.0
Cd254 Cd 0.13054 0.46824 0.02048 0.0
O255 O 0.16209 0.46413 0.0198 0.0
O256 O 0.12992 0.40156 0.03696 0.0
O257 O 0.12533 0.4328 0.04983 0.0
C258 C 0.12716 0.41323 0.0528 0.0
C259 C 0.11602 0.49461 0.0402 0.0
C260 C 0.17123 0.4479 0.01387 0.0
C261 C 0.10456 0.44598 0.98874 0.0
O262 O 0.11365 0.4624 0.99422 0.0
O263 O 0.10781 0.42931 0.99843 0.0
O264 O 0.127 0.49844 0.02418 0.0
O265 O 0.11409 0.47567 0.0458 0.0
O266 O 0.81367 0.91204 0.26003 0.0
Cd267 Cd 0.81786 0.88183 0.26889 0.0
Cd268 Cd 0.7768 0.88121 0.26708 0.0
O269 O 0.7806 0.9128 0.2673 0.0
O270 O 0.84361 0.88091 0.28547 0.0
O271 O 0.81256 0.87562 0.29853 0.0
C272 C 0.83214 0.8777 0.30137 0.0
C273 C 0.74977 0.86589 0.28524 0.0
C274 C 0.79706 0.9221 0.26232 0.0
C275 C 0.80075 0.85599 0.23603 0.0
O276 O 0.78404 0.86498 0.24076 0.0
O277 O 0.81685 0.85905 0.24668 0.0
O278 O 0.74652 0.87717 0.2693 0.0
O279 O 0.76846 0.86416 0.2917 0.0
O280 O 0.84019 0.0717 0.01157 0.0
Cd281 Cd 0.86966 0.07681 0.0217 0.0
Cd282 Cd 0.8731 0.03472 0.0183 0.0
O283 O 0.84186 0.03783 0.01237 0.0
O284 O 0.86878 0.10128 0.04006 0.0
O285 O 0.87511 0.06964 0.05108 0.0
C286 C 0.872 0.08884 0.05521 0.0
C287 C 0.88456 0.00567 0.03617 0.0
C288 C 0.83163 0.05426 0.0096 0.0
C289 C 0.90098 0.06229 0.99221 0.0
O290 O 0.89459 0.04447 0.99705 0.0
O291 O 0.89328 0.07825 0.00044 0.0
O292 O 0.87699 0.00437 0.01794 0.0
O293 O 0.8848 0.02351 0.04487 0.0
O294 O 0.31572 0.58509 0.73893 0.0
Cd295 Cd 0.31988 0.6153 0.73 0.0
Cd296 Cd 0.27874 0.61657 0.73461 0.0
O297 O 0.28188 0.58507 0.73675 0.0
O298 O 0.34514 0.61563 0.71266 0.0
O299 O 0.31384 0.62145 0.7005 0.0
C300 C 0.33327 0.61893 0.6971 0.0
C301 C 0.25152 0.63116 0.71618 0.0
C302 C 0.29869 0.57551 0.73955 0.0
C303 C 0.30476 0.6425 0.7632 0.0
O304 O 0.28751 0.63414 0.75942 0.0
O305 O 0.32033 0.63834 0.75211 0.0
O306 O 0.24851 0.62121 0.73302 0.0
O307 O 0.27005 0.63203 0.70909 0.0
O308 O 0.15927 0.57085 0.48587 0.0
Cd309 Cd 0.12917 0.57545 0.47675 0.0
Cd310 Cd 0.12741 0.53412 0.4794 0.0
O311 O 0.15887 0.53717 0.48201 0.0
O312 O 0.12898 0.60057 0.45921 0.0
O313 O 0.12322 0.56915 0.4473 0.0
C314 C 0.12582 0.58854 0.44373 0.0
C315 C 0.11371 0.50644 0.46091 0.0
C316 C 0.16861 0.55368 0.48576 0.0
C317 C 0.10154 0.55938 0.50898 0.0
O318 O 0.10958 0.54221 0.50427 0.0
O319 O 0.10602 0.57545 0.49877 0.0
O320 O 0.12352 0.5038 0.47788 0.0
O321 O 0.11233 0.5249 0.45377 0.0
O322 O 0.33523 0.43239 0.99219 0.0
Cd323 Cd 0.36525 0.42846 0.98264 0.0
Cd324 Cd 0.36573 0.4695 0.98478 0.0
O325 O 0.33415 0.46554 0.98536 0.0
O326 O 0.36596 0.40296 0.96567 0.0
O327 O 0.37079 0.43424 0.95299 0.0
C328 C 0.36877 0.4147 0.9499 0.0
C329 C 0.38058 0.49651 0.9662 0.0
C330 C 0.32504 0.44897 0.99034 0.0
C331 C 0.39178 0.44541 0.01501 0.0
O332 O 0.38264 0.46212 0.01063 0.0
O333 O 0.38852 0.42938 0.00431 0.0
O334 O 0.36973 0.49978 0.98244 0.0
O335 O 0.38214 0.47781 0.95972 0.0
O336 O 0.73834 0.67813 0.91135 0.0
Cd337 Cd 0.72997 0.67434 0.88091 0.0
Cd338 Cd 0.73383 0.71564 0.88024 0.0
O339 O 0.73546 0.7119 0.91166 0.0
O340 O 0.71244 0.64924 0.87979 0.0
O341 O 0.70062 0.68074 0.87435 0.0
C342 C 0.69702 0.6613 0.87646 0.0
C343 C 0.71579 0.7435 0.86637 0.0
C344 C 0.73842 0.69507 0.9211 0.0
C345 C 0.76333 0.69036 0.85444 0.0
O346 O 0.759 0.70743 0.86289 0.0
O347 O 0.75252 0.6745 0.85825 0.0
O348 O 0.73257 0.746 0.87657 0.0
O349 O 0.70858 0.72508 0.86474 0.0
O350 O 0.5679 0.49176 0.16375 0.0
Cd351 Cd 0.57211 0.48265 0.13363 0.0
Cd352 Cd 0.531 0.48501 0.13252 0.0
O353 O 0.53471 0.48508 0.16409 0.0
O354 O 0.5972 0.46507 0.13286 0.0
O355 O 0.56566 0.45324 0.12755 0.0
C356 C 0.5851 0.44964 0.12967 0.0
C357 C 0.50345 0.46715 0.11778 0.0
C358 C 0.55113 0.48977 0.17358 0.0
C359 C 0.55574 0.51534 0.1071 0.0
O360 O 0.53883 0.51091 0.11585 0.0
O361 O 0.5717 0.50461 0.11062 0.0
O362 O 0.50065 0.48345 0.12866 0.0
O363 O 0.52199 0.46027 0.11599 0.0
O364 O 0.75825 0.32235 0.41137 0.0
Cd365 Cd 0.76772 0.32583 0.38129 0.0
Cd366 Cd 0.76496 0.28476 0.38104 0.0
O367 O 0.76481 0.28915 0.41253 0.0
O368 O 0.78564 0.35064 0.38023 0.0
O369 O 0.79709 0.31885 0.37563 0.0
C370 C 0.80095 0.33827 0.37747 0.0
C371 C 0.78229 0.25657 0.36685 0.0
C372 C 0.76008 0.3058 0.4216 0.0
C373 C 0.73489 0.30937 0.35512 0.0
O374 O 0.73915 0.29262 0.36425 0.0
O375 O 0.74584 0.32526 0.35822 0.0
O376 O 0.76597 0.25432 0.37782 0.0
O377 O 0.78953 0.27493 0.36469 0.0
O378 O 0.93032 0.51116 0.66147 0.0
Cd379 Cd 0.92578 0.52016 0.63139 0.0
Cd380 Cd 0.9668 0.51976 0.63032 0.0
O381 O 0.96316 0.51943 0.66195 0.0
O382 O 0.90042 0.53736 0.63047 0.0
O383 O 0.93183 0.54959 0.62524 0.0
C384 C 0.91233 0.55294 0.62726 0.0
C385 C 0.99333 0.53885 0.61518 0.0
C386 C 0.94695 0.51385 0.67137 0.0
C387 C 0.94347 0.48814 0.60506 0.0
O388 O 0.96016 0.49344 0.61377 0.0
O389 O 0.92703 0.49814 0.6085 0.0
O390 O 0.997 0.52283 0.6262 0.0
O391 O 0.97447 0.54483 0.61356 0.0
O392 O 0.7382 0.32247 0.58552 0.0
Cd393 Cd 0.72903 0.32611 0.61572 0.0
Cd394 Cd 0.73069 0.28485 0.61572 0.0
O395 O 0.73149 0.28929 0.58429 0.0
O396 O 0.71094 0.3508 0.6171 0.0
O397 O 0.6998 0.3189 0.62176 0.0
C398 C 0.69578 0.3383 0.62008 0.0
C399 C 0.71381 0.25607 0.62931 0.0
C400 C 0.73637 0.30593 0.57527 0.0
C401 C 0.76134 0.30893 0.64185 0.0
O402 O 0.7563 0.29231 0.6329 0.0
O403 O 0.75111 0.32526 0.63863 0.0
O404 O 0.73057 0.25444 0.61893 0.0
O405 O 0.70577 0.27414 0.63107 0.0
O406 O 0.93245 0.49117 0.83523 0.0
Cd407 Cd 0.92839 0.4809 0.86511 0.0
Cd408 Cd 0.96866 0.48793 0.86604 0.0
O409 O 0.96603 0.48725 0.83446 0.0
O410 O 0.90298 0.46387 0.86371 0.0
O411 O 0.93381 0.4511 0.87086 0.0
C412 C 0.91448 0.44811 0.86732 0.0
C413 C 0.99584 0.4712 0.88263 0.0
C414 C 0.94921 0.49075 0.82519 0.0
C415 C 0.94127 0.51535 0.89122 0.0
O416 O 0.95814 0.51365 0.8815 0.0
O417 O 0.92713 0.50207 0.88889 0.0
O418 O 0.99874 0.48753 0.8718 0.0
O419 O 0.97745 0.46372 0.88338 0.0
O420 O 0.75931 0.68102 0.08528 0.0
Cd421 Cd 0.76697 0.67776 0.11592 0.0
Cd422 Cd 0.76145 0.71886 0.11586 0.0
O423 O 0.76081 0.71488 0.08439 0.0
O424 O 0.78412 0.65244 0.11756 0.0
O425 O 0.79626 0.68379 0.12314 0.0
C426 C 0.79963 0.66429 0.12121 0.0
C427 C 0.77906 0.74644 0.13079 0.0
C428 C 0.7588 0.69776 0.0752 0.0
C429 C 0.73235 0.69297 0.1413 0.0
O430 O 0.73606 0.71007 0.1326 0.0
O431 O 0.74394 0.67757 0.13802 0.0
O432 O 0.76261 0.74917 0.12011 0.0
O433 O 0.78627 0.72798 0.13216 0.0
O434 O 0.56541 0.50724 0.33811 0.0
Cd435 Cd 0.56889 0.51669 0.36819 0.0
Cd436 Cd 0.52792 0.51373 0.36846 0.0
O437 O 0.53221 0.51379 0.33695 0.0
O438 O 0.59393 0.53431 0.36915 0.0
O439 O 0.5623 0.54618 0.37376 0.0
C440 C 0.58177 0.54977 0.37186 0.0
C441 C 0.50021 0.53146 0.38306 0.0
C442 C 0.54889 0.50912 0.32787 0.0
C443 C 0.55248 0.48382 0.39443 0.0
O444 O 0.53574 0.48787 0.38518 0.0
O445 O 0.56829 0.49491 0.39136 0.0
O446 O 0.49752 0.51525 0.37202 0.0
O447 O 0.51871 0.53837 0.38503 0.0
O448 O 0.91238 0.73971 0.68071 0.0
Cd449 Cd 0.88223 0.73059 0.67684 0.0
Cd450 Cd 0.88186 0.73166 0.7179 0.0
O451 O 0.91344 0.73237 0.71374 0.0
O452 O 0.87622 0.70112 0.68292 0.0
O453 O 0.88088 0.71345 0.65147 0.0
C454 C 0.87787 0.69784 0.66338 0.0
C455 C 0.86735 0.71236 0.74461 0.0
C456 C 0.92256 0.73756 0.69725 0.0
C457 C 0.85593 0.76271 0.69463 0.0
O458 O 0.86488 0.75771 0.71127 0.0
O459 O 0.85928 0.75255 0.67828 0.0
O460 O 0.8782 0.72854 0.74816 0.0
O461 O 0.86553 0.70639 0.72578 0.0
O462 O 0.5097 0.66146 0.92921 0.0
Cd463 Cd 0.51883 0.63125 0.92575 0.0
Cd464 Cd 0.51676 0.63131 0.96686 0.0
O465 O 0.51659 0.66279 0.96232 0.0
O466 O 0.53621 0.62986 0.90055 0.0
O467 O 0.54831 0.62534 0.93209 0.0
C468 C 0.55175 0.627 0.91258 0.0
C469 C 0.53481 0.61713 0.99458 0.0
C470 C 0.51173 0.67179 0.94567 0.0
C471 C 0.48609 0.60537 0.94304 0.0
O472 O 0.49074 0.61455 0.95966 0.0
O473 O 0.49674 0.60836 0.92692 0.0
O474 O 0.51858 0.62815 0.99727 0.0
O475 O 0.54155 0.61492 0.97604 0.0
O476 O 0.58584 0.26163 0.18066 0.0
Cd477 Cd 0.61595 0.27103 0.17706 0.0
Cd478 Cd 0.61604 0.26908 0.21799 0.0
O479 O 0.58451 0.26856 0.21377 0.0
O480 O 0.61716 0.28867 0.15202 0.0
O481 O 0.62168 0.30046 0.18368 0.0
C482 C 0.61996 0.3041 0.16422 0.0
C483 C 0.63061 0.28766 0.24514 0.0
C484 C 0.57553 0.26352 0.19715 0.0
C485 C 0.642 0.23844 0.19423 0.0
O486 O 0.63283 0.24307 0.21087 0.0
O487 O 0.63897 0.24908 0.17812 0.0
O488 O 0.61967 0.27146 0.24831 0.0
O489 O 0.63246 0.29407 0.22646 0.0
O490 O 0.98762 0.33635 0.43132 0.0
Cd491 Cd 0.9793 0.36677 0.42724 0.0
Cd492 Cd 0.98432 0.36785 0.4684 0.0
O493 O 0.9858 0.33634 0.46516 0.0
O494 O 0.96194 0.36755 0.40203 0.0
O495 O 0.94993 0.37362 0.43333 0.0
C496 C 0.94646 0.37125 0.4139 0.0
C497 C 0.96662 0.38271 0.49597 0.0
C498 C 0.98822 0.32674 0.44832 0.0
C499 C 0.01311 0.39334 0.44211 0.0
O500 O 0.00932 0.38502 0.45937 0.0
O501 O 0.00185 0.38938 0.42663 0.0
O502 O 0.98336 0.37248 0.49864 0.0
O503 O 0.9592 0.38369 0.47759 0.0
O504 O 0.91298 0.26084 0.81269 0.0
Cd505 Cd 0.88262 0.26998 0.81623 0.0
Cd506 Cd 0.88268 0.26321 0.77578 0.0
O507 O 0.91412 0.26237 0.7789 0.0
O508 O 0.883 0.28658 0.84196 0.0
O509 O 0.87622 0.29973 0.81124 0.0
C510 C 0.87932 0.30246 0.83066 0.0
C511 C 0.86705 0.28191 0.74941 0.0
C512 C 0.92317 0.26001 0.79603 0.0
C513 C 0.85678 0.23539 0.80189 0.0
O514 O 0.86642 0.23769 0.78507 0.0
O515 O 0.85924 0.24811 0.81655 0.0
O516 O 0.87735 0.26538 0.74574 0.0
O517 O 0.86629 0.28843 0.76815 0.0
O518 O 0.98744 0.66002 0.07159 0.0
Cd519 Cd 0.97803 0.63004 0.0761 0.0
Cd520 Cd 0.98144 0.62857 0.03478 0.0
O521 O 0.98195 0.66017 0.03818 0.0
O522 O 0.96019 0.62996 0.10096 0.0
O523 O 0.94865 0.62398 0.06944 0.0
C524 C 0.94486 0.62661 0.08878 0.0
C525 C 0.96584 0.61418 0.00565 0.0
C526 C 0.98618 0.66973 0.05468 0.0
C527 C 0.01093 0.60326 0.06113 0.0
O528 O 0.00669 0.61165 0.04401 0.0
O529 O -4e-05 0.60702 0.07685 0.0
O530 O 0.98274 0.6244 0.00451 0.0
O531 O 0.95698 0.61295 0.02337 0.0
O532 O 0.58404 0.73712 0.31686 0.0
Cd533 Cd 0.61397 0.72741 0.32103 0.0
Cd534 Cd 0.61496 0.72967 0.28003 0.0
O535 O 0.58339 0.73051 0.28367 0.0
O536 O 0.61439 0.71016 0.34634 0.0
O537 O 0.61957 0.69781 0.315 0.0
C538 C 0.61735 0.69451 0.33447 0.0
C539 C 0.62935 0.71141 0.25257 0.0
C540 C 0.57409 0.73546 0.30013 0.0
C541 C 0.64078 0.75981 0.30461 0.0
O542 O 0.63198 0.75538 0.28772 0.0
O543 O 0.63722 0.74912 0.32058 0.0
O544 O 0.61872 0.72786 0.2497 0.0
O545 O 0.6311 0.70462 0.27113 0.0
O546 O 0.50794 0.33484 0.57068 0.0
Cd547 Cd 0.51624 0.36524 0.57443 0.0
Cd548 Cd 0.51434 0.36558 0.5334 0.0
O549 O 0.51513 0.33407 0.53761 0.0
O550 O 0.53396 0.3669 0.59938 0.0
O551 O 0.54543 0.37196 0.56768 0.0
C552 C 0.54923 0.37022 0.58711 0.0
C553 C 0.53214 0.3806 0.50595 0.0
C554 C 0.51042 0.32475 0.55413 0.0
C555 C 0.48287 0.39039 0.55737 0.0
O556 O 0.48781 0.38149 0.54068 0.0
O557 O 0.49356 0.38756 0.57348 0.0
O558 O 0.51625 0.36916 0.50304 0.0
O559 O 0.53869 0.38278 0.52456 0.0
O560 O 0.68085 0.91283 0.74177 0.0
Cd561 Cd 0.67698 0.88265 0.73279 0.0
Cd562 Cd 0.71803 0.88195 0.73516 0.0
O563 O 0.71395 0.91351 0.73467 0.0
O564 O 0.65209 0.88158 0.71498 0.0
O565 O 0.68382 0.87657 0.70349 0.0
C566 C 0.6644 0.87852 0.69969 0.0
C567 C 0.74553 0.86697 0.71742 0.0
C568 C 0.69746 0.92286 0.73943 0.0
C569 C 0.69348 0.8565 0.76561 0.0
O570 O 0.71028 0.86551 0.76123 0.0
O571 O 0.67754 0.8597 0.75478 0.0
O572 O 0.74838 0.87811 0.73353 0.0
O573 O 0.72697 0.86513 0.71061 0.0
O574 O 0.18426 0.58538 0.25888 0.0
Cd575 Cd 0.18124 0.6161 0.26706 0.0
Cd576 Cd 0.22167 0.6156 0.2604 0.0
O577 O 0.21809 0.58421 0.26045 0.0
O578 O 0.15553 0.61766 0.28373 0.0
O579 O 0.18664 0.62269 0.29664 0.0
C580 C 0.16705 0.62097 0.29955 0.0
C581 C 0.24776 0.63166 0.27913 0.0
C582 C 0.20092 0.57514 0.25838 0.0
C583 C 0.19621 0.641 0.23184 0.0
O584 O 0.21292 0.63121 0.23432 0.0
O585 O 0.18155 0.63896 0.24463 0.0
O586 O 0.25172 0.62081 0.26303 0.0
O587 O 0.22888 0.63269 0.28524 0.0
O588 O 0.66649 0.93097 0.51184 0.0
Cd589 Cd 0.63621 0.92825 0.52137 0.0
Cd590 Cd 0.63727 0.96857 0.51746 0.0
O591 O 0.66862 0.96406 0.51856 0.0
O592 O 0.6345 0.90301 0.5387 0.0
O593 O 0.63079 0.93461 0.55092 0.0
C594 C 0.632 0.91506 0.55429 0.0
C595 C 0.62155 0.99511 0.53594 0.0
C596 C 0.67724 0.94718 0.51382 0.0
C597 C 0.61154 0.94491 0.48747 0.0
O598 O 0.62207 0.96106 0.49062 0.0
O599 O 0.61282 0.92977 0.49976 0.0
O600 O 0.63312 0.99879 0.52028 0.0
O601 O 0.61961 0.97624 0.5418 0.0
O602 O 0.31368 0.4121 0.76515 0.0
Cd603 Cd 0.31725 0.38165 0.77347 0.0
Cd604 Cd 0.27612 0.38159 0.77069 0.0
O605 O 0.28001 0.41305 0.76901 0.0
O606 O 0.34281 0.38021 0.79032 0.0
O607 O 0.31154 0.37525 0.80297 0.0
C608 C 0.3311 0.37711 0.80606 0.0
C609 C 0.24963 0.36709 0.79021 0.0
C610 C 0.29693 0.42217 0.76553 0.0
C611 C 0.30004 0.35556 0.74042 0.0
O612 O 0.28322 0.36434 0.74511 0.0
O613 O 0.31617 0.35904 0.75092 0.0
O614 O 0.24592 0.37759 0.77384 0.0
O615 O 0.26848 0.36567 0.79625 0.0
O616 O 0.33225 0.56349 0.51212 0.0
Cd617 Cd 0.36284 0.56625 0.52025 0.0
Cd618 Cd 0.36206 0.52521 0.51514 0.0
O619 O 0.33065 0.52966 0.51384 0.0
O620 O 0.36465 0.59173 0.53715 0.0
O621 O 0.36946 0.56043 0.54971 0.0
C622 C 0.36783 0.57999 0.55284 0.0
C623 C 0.37652 0.49809 0.53379 0.0
C624 C 0.32184 0.54696 0.51153 0.0
C625 C 0.38844 0.55017 0.48614 0.0
O626 O 0.37935 0.53328 0.48989 0.0
O627 O 0.38528 0.56575 0.49754 0.0
O628 O 0.36605 0.49491 0.51728 0.0
O629 O 0.37788 0.51675 0.54046 0.0
O630 O 0.81397 0.08614 0.24253 0.0
Cd631 Cd 0.81816 0.11619 0.23317 0.0
Cd632 Cd 0.77711 0.11717 0.23567 0.0
O633 O 0.7807 0.08555 0.23621 0.0
O634 O 0.84359 0.11685 0.21609 0.0
O635 O 0.81231 0.12208 0.20359 0.0
C636 C 0.83183 0.11999 0.2004 0.0
C637 C 0.75021 0.13225 0.21714 0.0
C638 C 0.79722 0.0762 0.24089 0.0
C639 C 0.8017 0.14295 0.26572 0.0
O640 O 0.78481 0.13408 0.26144 0.0
O641 O 0.81763 0.13937 0.25496 0.0
O642 O 0.74686 0.1215 0.23343 0.0
O643 O 0.76891 0.1336 0.21061 0.0
O644 O 0.66845 0.06419 0.98221 0.0
Cd645 Cd 0.63776 0.06743 0.97468 0.0
Cd646 Cd 0.63809 0.02639 0.97959 0.0
O647 O 0.66959 0.03037 0.98026 0.0
O648 O 0.63045 0.06178 0.94537 0.0
O649 O 0.63597 0.09298 0.9579 0.0
C650 C 0.63229 0.08133 0.94226 0.0
C651 C 0.62304 -0.00054 0.96116 0.0
C652 C 0.67867 0.04753 0.98248 0.0
C653 C 0.61258 0.05163 0.00918 0.0
O654 O 0.62136 0.03463 0.0052 0.0
O655 O 0.61576 0.06721 0.99778 0.0
O656 O 0.63375 0.99616 0.97749 0.0
O657 O 0.62171 0.01814 0.95456 0.0
O658 O 0.84055 0.92812 0.48863 0.0
Cd659 Cd 0.87041 0.92424 0.47862 0.0
Cd660 Cd 0.87096 0.96522 0.48033 0.0
O661 O 0.83942 0.96108 0.48103 0.0
O662 O 0.87094 0.89924 0.46091 0.0
O663 O 0.87549 0.93089 0.44907 0.0
C664 C 0.8734 0.91146 0.44543 0.0
C665 C 0.88519 0.99297 0.4623 0.0
C666 C 0.83036 0.94465 0.48651 0.0
C667 C 0.89698 0.94121 0.51078 0.0
O668 O 0.88785 0.95788 0.5062 0.0
O669 O 0.89382 0.9251 0.50017 0.0
O670 O 0.87428 0.99562 0.4786 0.0
O671 O 0.88727 0.97445 0.45548 0.0
H672 H 0.27074 0.16801 0.54951 0.0
H673 H 0.24845 0.23051 0.55137 0.0
H674 H 0.2661 0.16742 0.51238 0.0
H675 H 0.24274 0.22965 0.51446 0.0
H676 H 0.2525 0.22954 0.44571 0.0
H677 H 0.25888 0.23003 0.48254 0.0
H678 H 0.24159 0.16592 0.48627 0.0
H679 H 0.2363 0.16528 0.44925 0.0
C680 C 0.26466 0.18157 0.54199 0.0
C681 C 0.26001 0.19932 0.55337 0.0
C682 C 0.26185 0.1812 0.52068 0.0
C683 C 0.25399 0.19848 0.51026 0.0
C684 C 0.24922 0.21618 0.52177 0.0
C685 C 0.25236 0.21665 0.54301 0.0
C686 C 0.25011 0.21555 0.45442 0.0
C687 C 0.24391 0.19737 0.44457 0.0
C688 C 0.25364 0.21584 0.4756 0.0
C689 C 0.25069 0.19803 0.48756 0.0
C690 C 0.24441 0.17986 0.47762 0.0
C691 C 0.24123 0.17949 0.45637 0.0
H692 H 0.08156 0.00144 0.69929 0.0
H693 H 0.01833 0.98116 0.7017 0.0
H694 H 0.08116 0.00705 0.73626 0.0
H695 H 0.01813 0.98621 0.73881 0.0
H696 H 0.01876 0.01764 0.80185 0.0
H697 H 0.01866 0.01255 0.76472 0.0
H698 H 0.08049 0.98842 0.7679 0.0
H699 H 0.08081 0.99406 0.80484 0.0
C700 C 0.06759 0.99806 0.70772 0.0
C701 C 0.04997 0.99084 0.6975 0.0
C702 C 0.06741 0.00117 0.72897 0.0
C703 C 0.04964 0.99702 0.74058 0.0
C704 C 0.032 0.98983 0.73034 0.0
C705 C 0.03215 0.98682 0.70906 0.0
C706 C 0.03233 0.01125 0.79462 0.0
C707 C 0.04981 0.00632 0.80634 0.0
C708 C 0.03224 0.00821 0.77333 0.0
C709 C 0.04959 0.0001 0.76327 0.0
C710 C 0.06699 0.99503 0.77505 0.0
C711 C 0.06712 0.99815 0.79629 0.0
H712 H 0.27288 0.77306 0.94704 0.0
H713 H 0.24662 0.83397 0.94352 0.0
H714 H 0.26737 0.77281 0.98403 0.0
H715 H 0.24041 0.83344 0.98042 0.0
H716 H 0.25118 0.83445 0.04963 0.0
H717 H 0.25734 0.83493 0.01272 0.0
H718 H 0.24114 0.77058 0.00924 0.0
H719 H 0.23571 0.76995 0.04623 0.0
C720 C 0.26579 0.78635 0.95414 0.0
C721 C 0.26021 0.80354 0.9423 0.0
C722 C 0.26251 0.78616 0.97537 0.0
C723 C 0.25339 0.80308 0.98529 0.0
C724 C 0.24776 0.82026 0.9734 0.0
C725 C 0.25121 0.82052 0.95219 0.0
C726 C 0.24894 0.8204 0.04099 0.0
C727 C 0.243 0.80215 0.05091 0.0
C728 C 0.25236 0.8207 0.01977 0.0
C729 C 0.24975 0.80279 0.00791 0.0
C730 C 0.24366 0.78458 0.01787 0.0
C731 C 0.24042 0.78424 0.03911 0.0
H732 H 0.42385 0.00352 0.30041 0.0
H733 H 0.48817 0.98697 0.29882 0.0
H734 H 0.42418 0.00845 0.26336 0.0
H735 H 0.48834 0.99116 0.26162 0.0
H736 H 0.42544 0.99485 0.19503 0.0
H737 H 0.42577 0.98995 0.23209 0.0
H738 H 0.48682 0.01606 0.23497 0.0
H739 H 0.48676 0.02025 0.19777 0.0
C740 C 0.43805 0.0008 0.29214 0.0
C741 C 0.45598 0.99485 0.30261 0.0
C742 C 0.43821 0.0035 0.27083 0.0
C743 C 0.45626 0.00012 0.25939 0.0
C744 C 0.47422 0.9942 0.26991 0.0
C745 C 0.4741 0.99168 0.29126 0.0
C746 C 0.43896 -0.00048 0.20356 0.0
C747 C 0.45607 0.00795 0.19341 0.0
C748 C 0.4391 0.99683 0.22487 0.0
C749 C 0.45629 0.00269 0.23662 0.0
C750 C 0.47343 0.01109 0.22643 0.0
C751 C 0.47335 0.01361 0.20508 0.0
H752 H 0.54807 0.26969 0.22846 0.0
H753 H 0.55207 0.2487 0.16557 0.0
H754 H 0.51114 0.26347 0.2282 0.0
H755 H 0.51527 0.2419 0.16551 0.0
H756 H 0.44597 0.2519 0.16527 0.0
H757 H 0.48272 0.25898 0.16562 0.0
H758 H 0.48653 0.23608 0.22785 0.0
H759 H 0.44965 0.22958 0.22771 0.0
C760 C 0.5411 0.26365 0.2146 0.0
C761 C 0.55305 0.25972 0.19703 0.0
C762 C 0.51992 0.25996 0.21449 0.0
C763 C 0.51018 0.25215 0.19684 0.0
C764 C 0.52217 0.24821 0.17928 0.0
C765 C 0.54332 0.252 0.17935 0.0
C766 C 0.45463 0.24838 0.17904 0.0
C767 C 0.44483 0.24017 0.19647 0.0
C768 C 0.47576 0.25233 0.1792 0.0
C769 C 0.48764 0.24808 0.19675 0.0
C770 C 0.47783 0.23984 0.21417 0.0
C771 C 0.45668 0.23599 0.21405 0.0
H772 H 0.0015 0.30305 0.48032 0.0
H773 H 0.98272 0.29959 0.41677 0.0
H774 H 0.00757 0.26615 0.4806 0.0
H775 H 0.9877 0.26252 0.41727 0.0
H776 H 0.01722 0.19939 0.41806 0.0
H777 H 0.01224 0.23646 0.4177 0.0
H778 H 0.99153 0.23416 0.48084 0.0
H779 H 0.99761 0.19726 0.48142 0.0
C780 C 0.99847 0.29435 0.46646 0.0
C781 C 0.99167 0.30424 0.44852 0.0
C782 C 0.00181 0.27312 0.46664 0.0
C783 C 0.99809 0.26118 0.44897 0.0
C784 C 0.99114 0.27115 0.43107 0.0
C785 C 0.98814 0.29243 0.4308 0.0
C786 C 0.01162 0.20683 0.43186 0.0
C787 C 0.00785 0.1954 0.44978 0.0
C788 C 0.00862 0.22812 0.43164 0.0
C789 C 0.00143 0.23847 0.44924 0.0
C790 C 0.99748 0.2269 0.4671 0.0
C791 C 0.00082 0.20567 0.46742 0.0
H792 H 0.05237 0.74741 0.66583 0.0
H793 H 0.04913 0.76846 0.72873 0.0
H794 H 0.01545 0.74127 0.66598 0.0
H795 H 0.01209 0.76291 0.72869 0.0
H796 H 0.9498 0.73055 0.72855 0.0
H797 H 0.98683 0.73617 0.72849 0.0
H798 H 0.98327 0.75893 0.6662 0.0
H799 H 0.94636 0.75273 0.66605 0.0
C800 C 0.04377 0.75086 0.67966 0.0
C801 C 0.05374 0.75842 0.69727 0.0
C802 C 0.02254 0.74745 0.67971 0.0
C803 C 0.01073 0.75161 0.69734 0.0
C804 C 0.02072 0.75923 0.71494 0.0
C805 C 0.04197 0.76254 0.71492 0.0
C806 C 0.95691 0.73675 0.71483 0.0
C807 C 0.94508 0.74115 0.6973 0.0
C808 C 0.97816 0.74009 0.71484 0.0
C809 C 0.98809 0.74803 0.69735 0.0
C810 C 0.97622 0.7525 0.67984 0.0
C811 C 0.955 0.74905 0.67979 0.0
H812 H 0.4827 0.79898 0.97589 0.0
H813 H 0.50403 0.80144 0.91303 0.0
H814 H 0.48758 0.76188 0.97609 0.0
H815 H 0.50953 0.76442 0.91344 0.0
H816 H 0.51895 0.69923 0.97671 0.0
H817 H 0.51392 0.73631 0.97623 0.0
H818 H 0.49145 0.73246 0.91385 0.0
H819 H 0.49709 0.69546 0.91412 0.0
C820 C 0.48855 0.79163 0.96214 0.0
C821 C 0.49296 0.80321 0.94444 0.0
C822 C 0.49147 0.77034 0.9623 0.0
C823 C 0.49899 0.7601 0.9448 0.0
C824 C 0.50342 0.77172 0.9271 0.0
C825 C 0.50038 0.79299 0.9269 0.0
C826 C 0.51294 0.70628 0.96288 0.0
C827 C 0.50845 0.69435 0.94544 0.0
C828 C 0.50994 0.72756 0.96265 0.0
C829 C 0.50224 0.73743 0.94502 0.0
C830 C 0.49769 0.72545 0.9276 0.0
C831 C 0.50082 0.70419 0.92779 0.0
H832 H 0.54727 0.72943 0.26828 0.0
H833 H 0.55007 0.7504 0.33124 0.0
H834 H 0.51032 0.73558 0.26789 0.0
H835 H 0.51327 0.75714 0.33065 0.0
H836 H 0.4484 0.76896 0.26768 0.0
H837 H 0.48535 0.76269 0.26791 0.0
H838 H 0.481 0.73969 0.33007 0.0
H839 H 0.44424 0.74654 0.33006 0.0
C840 C 0.54003 0.73547 0.28201 0.0
C841 C 0.55164 0.73938 0.29981 0.0
C842 C 0.51884 0.73912 0.28174 0.0
C843 C 0.50877 0.74686 0.29924 0.0
C844 C 0.52044 0.75086 0.317 0.0
C845 C 0.54159 0.7471 0.3173 0.0
C846 C 0.45533 0.76257 0.2814 0.0
C847 C 0.44335 0.75831 0.29887 0.0
C848 C 0.47652 0.75886 0.28149 0.0
C849 C 0.4862 0.75071 0.29902 0.0
C850 C 0.47415 0.74631 0.31643 0.0
C851 C 0.45302 0.75013 0.31637 0.0
H852 H 0.5188 0.29789 0.52288 0.0
H853 H 0.49626 0.30031 0.58531 0.0
H854 H 0.51488 0.26067 0.52289 0.0
H855 H 0.49172 0.26316 0.58511 0.0
H856 H 0.48464 0.19735 0.52235 0.0
H857 H 0.48912 0.2345 0.5225 0.0
H858 H 0.51063 0.23165 0.58527 0.0
H859 H 0.50553 0.19457 0.58532 0.0
C860 C 0.51289 0.29051 0.53657 0.0
C861 C 0.50786 0.30211 0.55409 0.0
C862 C 0.51052 0.26915 0.53654 0.0
C863 C 0.50295 0.25886 0.55399 0.0
C864 C 0.4979 0.2705 0.5715 0.0
C865 C 0.50038 0.29185 0.57158 0.0
C866 C 0.49035 0.20463 0.53618 0.0
C867 C 0.49469 0.19296 0.55383 0.0
C868 C 0.49304 0.22596 0.53623 0.0
C869 C 0.50024 0.23613 0.5539 0.0
C870 C 0.50474 0.2244 0.5715 0.0
C871 C 0.50194 0.20309 0.57149 0.0
H872 H 0.94776 0.24645 0.76482 0.0
H873 H 0.94928 0.26502 0.82851 0.0
H874 H 0.98454 0.2397 0.76584 0.0
H875 H 0.98626 0.25932 0.82933 0.0
H876 H 0.04887 0.22873 0.83067 0.0
H877 H 0.01186 0.2342 0.82969 0.0
H878 H 0.01678 0.25526 0.76683 0.0
H879 H 0.0536 0.24874 0.76758 0.0
C880 C 0.95601 0.24929 0.779 0.0
C881 C 0.94561 0.25623 0.79659 0.0
C882 C 0.97717 0.24555 0.77957 0.0
C883 C 0.98854 0.24899 0.79766 0.0
C884 C 0.97806 0.25609 0.81522 0.0
C885 C 0.95684 0.25951 0.81474 0.0
C886 C 0.04201 0.23449 0.81664 0.0
C887 C 0.05416 0.23826 0.7992 0.0
C888 C 0.02077 0.23778 0.8161 0.0
C889 C 0.01118 0.24524 0.79819 0.0
C890 C 0.02345 0.24913 0.78079 0.0
C891 C 0.04463 0.24552 0.78123 0.0
H892 H 0.97964 0.69618 0.02264 0.0
H893 H 8e-05 0.69436 0.08579 0.0
H894 H 0.98429 0.73332 0.02219 0.0
H895 H 0.00538 0.73139 0.08515 0.0
H896 H 0.99224 0.80001 0.08425 0.0
H897 H 0.98689 0.76299 0.08441 0.0
H898 H 0.0101 0.75939 0.02226 0.0
H899 H 0.0148 0.79653 0.02188 0.0
C900 C 0.98528 0.70368 0.03638 0.0
C901 C 0.98945 0.69228 0.05426 0.0
C902 C 0.98806 0.72499 0.0361 0.0
C903 C 0.99521 0.73541 0.05364 0.0
C904 C 0.99952 0.72396 0.07146 0.0
C905 C 0.9966 0.70267 0.0718 0.0
C906 C 0.99617 0.79134 0.0706 0.0
C907 C 0.00394 0.80126 0.05305 0.0
C908 C 0.99323 0.77006 0.07073 0.0
C909 C 0.99812 0.75813 0.05338 0.0
C910 C 0.00587 0.76809 0.03581 0.0
C911 C 0.00868 0.7894 0.03562 0.0
H912 H 0.16696 0.44792 0.23242 0.0
H913 H 0.23093 0.44495 0.24987 0.0
H914 H 0.16737 0.48506 0.23699 0.0
H915 H 0.23116 0.48188 0.25558 0.0
H916 H 0.23188 0.55044 0.24462 0.0
H917 H 0.23109 0.5135 0.23915 0.0
H918 H 0.16822 0.51174 0.2608 0.0
H919 H 0.16877 0.54892 0.26514 0.0
C920 C 0.18106 0.4552 0.23747 0.0
C921 C 0.19893 0.44352 0.2407 0.0
C922 C 0.18129 0.47652 0.24024 0.0
C923 C 0.19931 0.48665 0.24667 0.0
C924 C 0.2171 0.47481 0.25018 0.0
C925 C 0.21696 0.45356 0.24705 0.0
C926 C 0.21789 0.54215 0.24818 0.0
C927 C 0.20039 0.5526 0.25529 0.0
C928 C 0.21746 0.52088 0.24519 0.0
C929 C 0.19962 0.50943 0.24961 0.0
C930 C 0.18213 0.51997 0.25685 0.0
C931 C 0.18246 0.54131 0.25948 0.0
H932 H 0.72918 0.05126 0.7608 0.0
H933 H 0.66519 0.05275 0.74302 0.0
H934 H 0.72924 0.01399 0.75757 0.0
H935 H 0.66543 0.01552 0.73907 0.0
H936 H 0.6667 0.94728 0.75453 0.0
H937 H 0.66674 0.98451 0.7584 0.0
H938 H 0.72812 0.98703 0.73302 0.0
H939 H 0.72833 0.94975 0.72984 0.0
C940 C 0.71516 0.04365 0.75602 0.0
C941 C 0.69717 0.05501 0.75219 0.0
C942 C 0.71522 0.02225 0.75405 0.0
C943 C 0.69734 0.01167 0.74805 0.0
C944 C 0.67939 0.02308 0.74407 0.0
C945 C 0.67929 0.04447 0.74619 0.0
C946 C 0.68022 0.95577 0.74982 0.0
C947 C 0.69752 0.94551 0.74191 0.0
C948 C 0.6802 0.97717 0.7519 0.0
C949 C 0.69742 0.98885 0.74597 0.0
C950 C 0.71471 0.97855 0.73805 0.0
C951 C 0.71479 0.95714 0.73612 0.0
H952 H 0.19526 0.41719 0.99806 0.0
H953 H 0.19828 0.47914 0.02183 0.0
H954 H 0.23222 0.41764 0.99217 0.0
H955 H 0.23535 0.47937 0.01649 0.0
H956 H 0.29784 0.48055 0.98439 0.0
H957 H 0.26077 0.48027 0.98978 0.0
H958 H 0.26425 0.41719 0.01033 0.0
H959 H 0.3012 0.41729 0.00438 0.0
C960 C 0.20381 0.43087 0.00214 0.0
C961 C 0.19377 0.44813 0.0104 0.0
C962 C 0.22506 0.43109 0.99887 0.0
C963 C 0.23682 0.44853 0.00388 0.0
C964 C 0.22676 0.46579 0.01217 0.0
C965 C 0.20549 0.46561 0.01535 0.0
C966 C 0.2907 0.46662 0.99006 0.0
C967 C 0.30252 0.44893 0.99391 0.0
C968 C 0.26944 0.46649 0.99327 0.0
C969 C 0.25947 0.4487 0.0005 0.0
C970 C 0.27134 0.43106 0.00444 0.0
C971 C 0.29257 0.43116 0.00115 0.0
H972 H 0.76546 0.04934 0.2344 0.0
H973 H 0.82853 0.05198 0.25511 0.0
H974 H 0.76539 0.01223 0.23936 0.0
H975 H 0.82826 0.01499 0.26067 0.0
H976 H 0.7657 0.94911 0.27007 0.0
H977 H 0.76571 0.98626 0.26538 0.0
H978 H 0.82794 0.98329 0.24225 0.0
H979 H 0.82815 0.94626 0.24756 0.0
C980 C 0.77927 0.04203 0.24015 0.0
C981 C 0.79701 0.05366 0.2443 0.0
C982 C 0.77919 0.02074 0.24311 0.0
C983 C 0.79682 0.01055 0.25041 0.0
C984 C 0.81451 0.02223 0.25471 0.0
C985 C 0.81462 0.0435 0.25163 0.0
C986 C 0.77939 0.95638 0.264 0.0
C987 C 0.79694 0.94468 0.25923 0.0
C988 C 0.77936 0.9777 0.26119 0.0
C989 C 0.79682 0.98784 0.25343 0.0
C990 C 0.81433 0.97609 0.24858 0.0
C991 C 0.81441 0.9548 0.2515 0.0
H992 H 0.70392 0.01647 0.99529 0.0
H993 H 0.70437 0.08009 0.97637 0.0
H994 H 0.74082 0.01801 0.00147 0.0
H995 H 0.74138 0.08142 0.98145 0.0
H996 H 0.80296 0.08454 0.01379 0.0
H997 H 0.7663 0.08258 0.00703 0.0
H998 H 0.7735 0.01973 0.98654 0.0
H999 H 0.8101 0.02147 0.99436 0.0
C1000 C 0.71197 0.03072 0.99221 0.0
C1001 C 0.70122 0.04819 0.98548 0.0
C1002 C 0.73319 0.03159 0.99562 0.0
C1003 C 0.74423 0.04987 0.99204 0.0
C1004 C 0.73343 0.0672 0.98486 0.0
C1005 C 0.71219 0.06642 0.9818 0.0
C1006 C 0.79672 0.07032 0.00779 0.0
C1007 C 0.80944 0.05316 0.00463 0.0
C1008 C 0.77566 0.06921 0.00377 0.0
C1009 C 0.76678 0.05101 0.99614 0.0
C1010 C 0.77963 0.03391 0.99273 0.0
C1011 C 0.80067 0.03492 0.99708 0.0
H1012 H 0.26516 0.44645 0.75279 0.0
H1013 H 0.32921 0.4486 0.77003 0.0
H1014 H 0.26567 0.48323 0.74605 0.0
H1015 H 0.32954 0.48558 0.76448 0.0
H1016 H 0.32995 0.54809 0.73388 0.0
H1017 H 0.32939 0.51115 0.73965 0.0
H1018 H 0.26654 0.51558 0.76101 0.0
H1019 H 0.26685 0.55233 0.75407 0.0
C1020 C 0.2793 0.45486 0.75536 0.0
C1021 C 0.29716 0.44462 0.76188 0.0
C1022 C 0.27958 0.47602 0.75164 0.0
C1023 C 0.29764 0.48757 0.75473 0.0
C1024 C 0.31544 0.47726 0.76149 0.0
C1025 C 0.31525 0.45603 0.76482 0.0
C1026 C 0.31602 0.54113 0.73979 0.0
C1027 C 0.29844 0.55311 0.74348 0.0
C1028 C 0.31571 0.51992 0.74325 0.0
C1029 C 0.29792 0.5102 0.75088 0.0
C1030 C 0.2804 0.52233 0.75475 0.0
C1031 C 0.2806 0.54347 0.75091 0.0
H1032 H 0.29623 0.57952 0.51816 0.0
H1033 H 0.29671 0.51655 0.4972 0.0
H1034 H 0.25923 0.58109 0.51285 0.0
H1035 H 0.25991 0.51837 0.49074 0.0
H1036 H 0.19098 0.52074 0.49887 0.0
H1037 H 0.22766 0.51923 0.50595 0.0
H1038 H 0.2336 0.58301 0.48807 0.0
H1039 H 0.19669 0.58471 0.48215 0.0
C1040 C 0.28843 0.56606 0.5122 0.0
C1041 C 0.29937 0.54791 0.50812 0.0
C1042 C 0.26719 0.56699 0.50901 0.0
C1043 C 0.25641 0.54988 0.50128 0.0
C1044 C 0.26749 0.53175 0.49709 0.0
C1045 C 0.28866 0.53072 0.50065 0.0
C1046 C 0.20015 0.53444 0.49651 0.0
C1047 C 0.19095 0.55284 0.48997 0.0
C1048 C 0.22125 0.53356 0.50043 0.0
C1049 C 0.23379 0.55096 0.49753 0.0
C1050 C 0.2245 0.56937 0.49089 0.0
C1051 C 0.20332 0.57034 0.48734 0.0
H1052 H 0.76582 0.66565 0.0491 0.0
H1053 H 0.7453 0.72876 0.05035 0.0
H1054 H 0.76172 0.66498 0.01193 0.0
H1055 H 0.74009 0.72785 0.01334 0.0
H1056 H 0.75116 0.7272 0.94482 0.0
H1057 H 0.75677 0.72766 0.98176 0.0
H1058 H 0.73784 0.664 0.98531 0.0
H1059 H 0.73336 0.66335 0.94817 0.0
C1060 C 0.76021 0.67932 0.04143 0.0
C1061 C 0.75592 0.69727 0.05264 0.0
C1062 C 0.75772 0.67892 0.02009 0.0
C1063 C 0.75053 0.69635 0.00947 0.0
C1064 C 0.74606 0.71424 0.02082 0.0
C1065 C 0.74891 0.71475 0.0421 0.0
C1066 C 0.74826 0.71329 0.95351 0.0
C1067 C 0.74183 0.69524 0.94358 0.0
C1068 C 0.75133 0.71358 0.97476 0.0
C1069 C 0.74768 0.6959 0.98671 0.0
C1070 C 0.74119 0.67783 0.97669 0.0
C1071 C 0.73848 0.67746 0.95537 0.0
H1072 H 0.58054 0.49498 0.30402 0.0
H1073 H 0.51776 0.51645 0.30054 0.0
H1074 H 0.58094 0.49008 0.26693 0.0
H1075 H 0.51837 0.51217 0.26337 0.0
H1076 H 0.51931 0.48221 0.20004 0.0
H1077 H 0.51883 0.48647 0.2372 0.0
H1078 H 0.58136 0.50888 0.23542 0.0
H1079 H 0.58206 0.50399 0.19832 0.0
C1080 C 0.56685 0.49876 0.29534 0.0
C1081 C 0.54911 0.50609 0.30528 0.0
C1082 C 0.56712 0.49607 0.27402 0.0
C1083 C 0.5497 0.50077 0.2621 0.0
C1084 C 0.53196 0.5081 0.27207 0.0
C1085 C 0.53165 0.51067 0.2934 0.0
C1086 C 0.53297 0.48806 0.20756 0.0
C1087 C 0.55073 0.49274 0.19618 0.0
C1088 C 0.53265 0.49062 0.22889 0.0
C1089 C 0.55005 0.49804 0.23936 0.0
C1090 C 0.56778 0.50282 0.22793 0.0
C1091 C 0.56815 0.50014 0.20662 0.0
H1092 H 0.74556 0.33733 0.4454 0.0
H1093 H 0.76697 0.27454 0.44886 0.0
H1094 H 0.73963 0.33735 0.48235 0.0
H1095 H 0.76166 0.27476 0.48588 0.0
H1096 H 0.72947 0.27468 0.54801 0.0
H1097 H 0.73494 0.27485 0.51102 0.0
H1098 H 0.7573 0.3373 0.51458 0.0
H1099 H 0.75121 0.33736 0.55152 0.0
C1100 C 0.74913 0.32356 0.45405 0.0
C1101 C 0.7567 0.30591 0.44413 0.0
C1102 C 0.74585 0.32362 0.47529 0.0
C1103 C 0.75016 0.30606 0.48715 0.0
C1104 C 0.75784 0.28845 0.47722 0.0
C1105 C 0.761 0.28836 0.45597 0.0
C1106 C 0.73554 0.28847 0.54092 0.0
C1107 C 0.73989 0.30601 0.55276 0.0
C1108 C 0.7388 0.28852 0.51969 0.0
C1109 C 0.74661 0.30607 0.50977 0.0
C1110 C 0.75099 0.32361 0.52164 0.0
C1111 C 0.74761 0.3236 0.54286 0.0
H1112 H 0.91685 0.49724 0.69559 0.0
H1113 H 0.97811 0.52281 0.6982 0.0
H1114 H 0.91767 0.49145 0.73252 0.0
H1115 H 0.97867 0.51765 0.73528 0.0
H1116 H 0.98109 0.48626 0.79804 0.0
H1117 H 0.98059 0.49154 0.76097 0.0
H1118 H 0.91663 0.50926 0.76443 0.0
H1119 H 0.91696 0.50332 0.80134 0.0
C1120 C 0.93045 0.50176 0.70406 0.0
C1121 C 0.94742 0.51049 0.69391 0.0
C1122 C 0.93088 0.49855 0.7253 0.0
C1123 C 0.94822 0.50412 0.73696 0.0
C1124 C 0.96518 0.51288 0.72678 0.0
C1125 C 0.96481 0.51596 0.70551 0.0
C1126 C 0.96692 0.49128 0.79088 0.0
C1127 C 0.94906 0.49431 0.80267 0.0
C1128 C 0.96666 0.49443 0.76962 0.0
C1129 C 0.94856 0.50083 0.75963 0.0
C1130 C 0.93075 0.504 0.77149 0.0
C1131 C 0.93097 0.50071 0.79272 0.0
H1132 H 0.80667 0.91361 0.50222 0.0
H1133 H 0.80322 0.9761 0.47993 0.0
H1134 H 0.7699 0.91414 0.50936 0.0
H1135 H 0.76637 0.97641 0.48649 0.0
H1136 H 0.70024 0.91502 0.49934 0.0
H1137 H 0.73709 0.91436 0.4926 0.0
H1138 H 0.74214 0.977 0.51413 0.0
H1139 H 0.70524 0.97787 0.52029 0.0
C1140 C 0.79805 0.92742 0.49872 0.0
C1141 C 0.80792 0.94483 0.49054 0.0
C1142 C 0.77692 0.92768 0.50271 0.0
C1143 C 0.76513 0.94532 0.49852 0.0
C1144 C 0.77501 0.96267 0.49023 0.0
C1145 C 0.79614 0.96245 0.48634 0.0
C1146 C 0.70922 0.92865 0.50266 0.0
C1147 C 0.69976 0.94652 0.5103 0.0
C1148 C 0.73039 0.92823 0.4989 0.0
C1149 C 0.74263 0.94564 0.50277 0.0
C1150 C 0.73316 0.96342 0.51062 0.0
C1151 C 0.71199 0.96388 0.51428 0.0
H1152 H 0.2242 0.34788 0.29134 0.0
H1153 H 0.16302 0.32821 0.27447 0.0
H1154 H 0.2251 0.32245 0.31837 0.0
H1155 H 0.16378 0.30266 0.30221 0.0
H1156 H 0.22065 0.28539 0.37386 0.0
H1157 H 0.21107 0.31349 0.35112 0.0
H1158 H 0.1818 0.2703 0.31004 0.0
H1159 H 0.1908 0.24218 0.3333 0.0
C1160 C 0.21077 0.33828 0.29355 0.0
C1161 C 0.19356 0.34007 0.28062 0.0
C1162 C 0.21122 0.32376 0.30927 0.0
C1163 C 0.19445 0.31056 0.31263 0.0
C1164 C 0.17699 0.31254 0.29998 0.0
C1165 C 0.17652 0.32723 0.28417 0.0
C1166 C 0.21175 0.28194 0.36021 0.0
C1167 C 0.20673 0.26156 0.35521 0.0
C1168 C 0.20636 0.29803 0.3471 0.0
C1169 C 0.1961 0.29411 0.32848 0.0
C1170 C 0.18967 0.27389 0.32425 0.0
C1171 C 0.19487 0.25776 0.33756 0.0
H1172 H 0.00754 0.93863 0.58473 0.0
H1173 H 0.9626 0.96833 0.62354 0.0
H1174 H 0.98045 0.92986 0.56019 0.0
H1175 H 0.93555 0.95911 0.59942 0.0
H1176 H 0.90361 0.97201 0.53822 0.0
H1177 H 0.92831 0.97328 0.56597 0.0
H1178 H 0.94817 0.91157 0.55154 0.0
H1179 H 0.92334 0.91037 0.52318 0.0
C1180 C 0.9918 0.94275 0.58832 0.0
C1181 C 0.98724 0.95446 0.6059 0.0
C1182 C 0.97627 0.93769 0.57427 0.0
C1183 C 0.9559 0.94416 0.57764 0.0
C1184 C 0.95117 0.95435 0.5961 0.0
C1185 C 0.96666 0.95954 0.61 0.0
C1186 C 0.91309 0.95859 0.54095 0.0
C1187 C 0.91149 0.94109 0.52839 0.0
C1188 C 0.92719 0.95926 0.55705 0.0
C1189 C 0.94013 0.94246 0.56114 0.0
C1190 C 0.93845 0.9248 0.54875 0.0
C1191 C 0.92419 0.92408 0.53257 0.0
H1192 H 0.28296 0.71475 0.87305 0.0
H1193 H 0.31163 0.75667 0.83032 0.0
H1194 H 0.2914 0.68602 0.85065 0.0
H1195 H 0.31953 0.72789 0.80745 0.0
H1196 H 0.33664 0.66875 0.77295 0.0
H1197 H 0.33707 0.69502 0.80002 0.0
H1198 H 0.27597 0.67661 0.81849 0.0
H1199 H 0.27568 0.6505 0.79208 0.0
C1200 C 0.29137 0.71778 0.859 0.0
C1201 C 0.29637 0.73799 0.8533 0.0
C1202 C 0.29611 0.70132 0.84609 0.0
C1203 C 0.3057 0.70469 0.82701 0.0
C1204 C 0.31216 0.72474 0.82204 0.0
C1205 C 0.30759 0.74124 0.83512 0.0
C1206 C 0.32345 0.6702 0.783 0.0
C1207 C 0.30611 0.65754 0.78029 0.0
C1208 C 0.32366 0.68529 0.79843 0.0
C1209 C 0.30662 0.68786 0.81153 0.0
C1210 C 0.28955 0.67485 0.80901 0.0
C1211 C 0.2893 0.65994 0.79366 0.0
H1212 H 0.60568 0.02218 0.03802 0.0
H1213 H 0.58658 0.08327 0.02018 0.0
H1214 H 0.58046 0.02214 0.06533 0.0
H1215 H 0.56129 0.08336 0.04814 0.0
H1216 H 0.50081 0.0581 0.08037 0.0
H1217 H 0.5288 0.06592 0.05653 0.0
H1218 H 0.57199 0.03709 0.09792 0.0
H1219 H 0.54401 0.02873 0.12131 0.0
C1220 C 0.59625 0.03576 0.04007 0.0
C1221 C 0.59813 0.0527 0.0268 0.0
C1222 C 0.58186 0.03581 0.05593 0.0
C1223 C 0.5689 0.05281 0.05907 0.0
C1224 C 0.57098 0.06998 0.04607 0.0
C1225 C 0.58552 0.06996 0.03013 0.0
C1226 C 0.51636 0.05388 0.08457 0.0
C1227 C 0.52018 0.04251 0.10254 0.0
C1228 C 0.53242 0.05839 0.07093 0.0
C1229 C 0.55259 0.05174 0.07511 0.0
C1230 C 0.55656 0.04195 0.09396 0.0
C1231 C 0.54054 0.03727 0.10744 0.0
H1232 H 0.18635 0.74876 0.15078 0.0
H1233 H 0.2433 0.7173 0.13756 0.0
H1234 H 0.17584 0.72026 0.17296 0.0
H1235 H 0.23352 0.68966 0.16028 0.0
H1236 H 0.21078 0.63579 0.19321 0.0
H1237 H 0.21328 0.66138 0.1661 0.0
H1238 H 0.18253 0.70556 0.20518 0.0
H1239 H 0.1788 0.67924 0.23171 0.0
C1240 C 0.19657 0.73573 0.15253 0.0
C1241 C 0.21564 0.73529 0.14237 0.0
C1242 C 0.19063 0.71945 0.16538 0.0
C1243 C 0.20376 0.70249 0.16852 0.0
C1244 C 0.22266 0.70205 0.15798 0.0
C1245 C 0.22841 0.71809 0.14498 0.0
C1246 C 0.20418 0.65087 0.19577 0.0
C1247 C 0.19474 0.65562 0.21456 0.0
C1248 C 0.20579 0.66566 0.18033 0.0
C1249 C 0.19863 0.68584 0.18353 0.0
C1250 C 0.18815 0.69023 0.202 0.0
C1251 C 0.18605 0.67518 0.21728 0.0
H1252 H 0.57317 0.92783 0.48587 0.0
H1253 H 0.61739 0.96152 0.44976 0.0
H1254 H 0.54744 0.93262 0.45894 0.0
H1255 H 0.5924 0.96511 0.42222 0.0
H1256 H 0.53716 0.99541 0.3929 0.0
H1257 H 0.5641 0.98526 0.41629 0.0
H1258 H 0.53376 0.92689 0.42612 0.0
H1259 H 0.50592 0.93777 0.40329 0.0
C1260 C 0.57752 0.93575 0.47188 0.0
C1261 C 0.59713 0.94455 0.46996 0.0
C1262 C 0.56282 0.93844 0.45636 0.0
C1263 C 0.56761 0.94964 0.43844 0.0
C1264 C 0.58782 0.95705 0.43603 0.0
C1265 C 0.60226 0.95483 0.45173 0.0
C1266 C 0.53628 0.9803 0.39985 0.0
C1267 C 0.51936 0.96741 0.39623 0.0
C1268 C 0.55192 0.97435 0.41323 0.0
C1269 C 0.55135 0.95512 0.42315 0.0
C1270 C 0.53465 0.94192 0.41904 0.0
C1271 C 0.51875 0.94807 0.40583 0.0
H1272 H 0.30552 0.24469 0.66669 0.0
H1273 H 0.27262 0.28807 0.62873 0.0
H1274 H 0.31339 0.27215 0.69114 0.0
H1275 H 0.28097 0.31552 0.6527 0.0
H1276 H 0.33147 0.33016 0.72744 0.0
H1277 H 0.33041 0.30504 0.69933 0.0
H1278 H 0.26769 0.32264 0.68634 0.0
H1279 H 0.26884 0.34766 0.71377 0.0
C1280 C 0.30045 0.26019 0.66329 0.0
C1281 C 0.28817 0.26417 0.64596 0.0
C1282 C 0.305 0.27594 0.67728 0.0
C1283 C 0.29747 0.29597 0.67409 0.0
C1284 C 0.28656 0.30016 0.65591 0.0
C1285 C 0.28186 0.28445 0.64209 0.0
C1286 C 0.31756 0.32876 0.71841 0.0
C1287 C 0.30025 0.34094 0.7229 0.0
C1288 C 0.31692 0.31431 0.70238 0.0
C1289 C 0.29902 0.31191 0.69046 0.0
C1290 C 0.28189 0.32432 0.69486 0.0
C1291 C 0.2825 0.33861 0.71079 0.0
H1292 H 0.93475 0.03828 0.99013 0.0
H1293 H 0.90505 0.08957 0.96031 0.0
H1294 H 0.96142 0.0382 0.96367 0.0
H1295 H 0.93153 0.0889 0.93315 0.0
H1296 H 0.96518 0.0402 0.88169 0.0
H1297 H 0.94027 0.05187 0.90742 0.0
H1298 H 0.98994 0.06905 0.94778 0.0
H1299 H 0.01494 0.05802 0.92186 0.0
C1300 C 0.93407 0.04966 0.97799 0.0
C1301 C 0.9179 0.06393 0.9772 0.0
C1302 C 0.94935 0.04966 0.96295 0.0
C1303 C 0.94848 0.06359 0.94653 0.0
C1304 C 0.93251 0.07813 0.94581 0.0
C1305 C 0.91747 0.07852 0.96128 0.0
C1306 C 0.97078 0.04709 0.89578 0.0
C1307 C 0.99199 0.04812 0.89982 0.0
C1308 C 0.95654 0.05383 0.91042 0.0
C1309 C 0.96329 0.06133 0.92947 0.0
C1310 C 0.98445 0.06344 0.93309 0.0
C1311 C 0.99871 0.05715 0.91826 0.0
H1312 H 0.37487 0.21547 0.28486 0.0
H1313 H 0.3334 0.18619 0.24213 0.0
H1314 H 0.35203 0.20668 0.31314 0.0
H1315 H 0.31009 0.17791 0.27045 0.0
H1316 H 0.27485 0.16015 0.32907 0.0
H1317 H 0.30234 0.16022 0.30322 0.0
H1318 H 0.31939 0.22163 0.32187 0.0
H1319 H 0.29254 0.22146 0.34757 0.0
C1320 C 0.36101 0.20685 0.28155 0.0
C1321 C 0.35578 0.20178 0.26124 0.0
C1322 C 0.34784 0.20191 0.29775 0.0
C1323 C 0.32898 0.19203 0.29402 0.0
C1324 C 0.3245 0.18551 0.27389 0.0
C1325 C 0.33784 0.19028 0.25764 0.0
C1326 C 0.28466 0.17353 0.32776 0.0
C1327 C 0.28143 0.19081 0.34037 0.0
C1328 C 0.30034 0.1736 0.31291 0.0
C1329 C 0.31318 0.19087 0.31055 0.0
C1330 C 0.31012 0.20789 0.32349 0.0
C1331 C 0.29451 0.20786 0.33815 0.0
H1332 H 0.0859 0.02632 0.58339 0.0
H1333 H 0.0234 0.04036 0.6011 0.0
H1334 H 0.08482 0.05419 0.55806 0.0
H1335 H 0.02222 0.06759 0.57583 0.0
H1336 H 0.02631 0.12398 0.53952 0.0
H1337 H 0.03524 0.10102 0.56765 0.0
H1338 H 0.06777 0.0616 0.52523 0.0
H1339 H 0.05935 0.08505 0.49711 0.0
C1340 C 0.07202 0.03541 0.58201 0.0
C1341 C 0.05472 0.03105 0.59427 0.0
C1342 C 0.07137 0.0513 0.56744 0.0
C1343 C 0.05348 0.06323 0.56496 0.0
C1344 C 0.03641 0.05905 0.57754 0.0
C1345 C 0.03703 0.04324 0.59198 0.0
C1346 C 0.03575 0.11065 0.53626 0.0
C1347 C 0.04189 0.10617 0.51606 0.0
C1348 C 0.04076 0.09741 0.55237 0.0
C1349 C 0.05181 0.0792 0.54864 0.0
C1350 C 0.05927 0.0755 0.52867 0.0
C1351 C 0.05441 0.08892 0.51253 0.0
H1352 H 0.12685 0.77939 0.78579 0.0
H1353 H 0.16574 0.81071 0.74204 0.0
H1354 H 0.15057 0.78825 0.8133 0.0
H1355 H 0.18989 0.81913 0.76958 0.0
H1356 H 0.22592 0.8381 0.82732 0.0
H1357 H 0.19787 0.83685 0.80217 0.0
H1358 H 0.18411 0.77465 0.82094 0.0
H1359 H 0.21156 0.77598 0.846 0.0
C1360 C 0.14033 0.78844 0.78209 0.0
C1361 C 0.14456 0.79411 0.7617 0.0
C1362 C 0.15401 0.79342 0.79785 0.0
C1363 C 0.17237 0.804 0.79359 0.0
C1364 C 0.17587 0.81099 0.77342 0.0
C1365 C 0.16205 0.80614 0.75762 0.0
C1366 C 0.21673 0.82426 0.82618 0.0
C1367 C 0.22103 0.80714 0.83868 0.0
C1368 C 0.20074 0.82352 0.81172 0.0
C1369 C 0.18863 0.80571 0.80962 0.0
C1370 C 0.1928 0.78878 0.82238 0.0
C1371 C 0.20873 0.78949 0.83669 0.0
H1372 H 0.47557 0.87514 0.03337 0.0
H1373 H 0.44373 0.91567 0.99155 0.0
H1374 H 0.46776 0.89819 0.06175 0.0
H1375 H 0.43639 0.93916 0.01995 0.0
H1376 H 0.41924 0.97387 0.07885 0.0
H1377 H 0.41956 0.94645 0.05302 0.0
H1378 H 0.48187 0.93123 0.07025 0.0
H1379 H 0.48145 0.95805 0.09603 0.0
C1380 C 0.46663 0.88885 0.03029 0.0
C1381 C 0.46049 0.89372 0.01018 0.0
C1382 C 0.46226 0.90214 0.04655 0.0
C1383 C 0.45184 0.92076 0.04307 0.0
C1384 C 0.44441 0.92493 0.02319 0.0
C1385 C 0.44865 0.91149 0.00689 0.0
C1386 C 0.4329 0.96449 0.07724 0.0
C1387 C 0.45032 0.96821 0.08951 0.0
C1388 C 0.43311 0.94885 0.06238 0.0
C1389 C 0.45069 0.93655 0.05962 0.0
C1390 C 0.46791 0.94009 0.07219 0.0
C1391 C 0.46772 0.95566 0.08691 0.0
H1392 H 0.36209 0.76852 0.21298 0.0
H1393 H 0.34307 0.82144 0.24828 0.0
H1394 H 0.33943 0.7785 0.18545 0.0
H1395 H 0.32087 0.83227 0.21991 0.0
H1396 H 0.26261 0.82542 0.17833 0.0
H1397 H 0.28952 0.82334 0.20442 0.0
H1398 H 0.33174 0.79997 0.15862 0.0
H1399 H 0.30434 0.80066 0.1332 0.0
C1400 C 0.35343 0.78265 0.21466 0.0
C1401 C 0.35433 0.79411 0.23292 0.0
C1402 C 0.34045 0.78853 0.19867 0.0
C1403 C 0.32819 0.80629 0.20026 0.0
C1404 C 0.3298 0.81833 0.2182 0.0
C1405 C 0.34267 0.81224 0.23441 0.0
C1406 C 0.27778 0.8202 0.17388 0.0
C1407 C 0.2814 0.81293 0.1539 0.0
C1408 C 0.29329 0.81906 0.1888 0.0
C1409 C 0.31282 0.81103 0.18385 0.0
C1410 C 0.31676 0.80552 0.16329 0.0
C1411 C 0.30114 0.8061 0.14861 0.0
H1412 H 0.4286 0.0146 0.42943 0.0
H1413 H 0.4553 0.05656 0.38565 0.0
H1414 H 0.43099 0.04086 0.45615 0.0
H1415 H 0.45632 0.08338 0.41169 0.0
H1416 H 0.48761 0.11179 0.46713 0.0
H1417 H 0.47755 0.08988 0.43901 0.0
H1418 H 0.42276 0.07206 0.47226 0.0
H1419 H 0.43365 0.09346 0.50121 0.0
C1420 C 0.4343 0.02972 0.4254 0.0
C1421 C 0.44199 0.03355 0.40562 0.0
C1422 C 0.43563 0.04485 0.44068 0.0
C1423 C 0.4443 0.06424 0.43631 0.0
C1424 C 0.45025 0.06847 0.41593 0.0
C1425 C 0.44946 0.0532 0.40089 0.0
C1426 C 0.47326 0.10344 0.46842 0.0
C1427 C 0.4615 0.10433 0.4865 0.0
C1428 C 0.46732 0.09091 0.4521 0.0
C1429 C 0.44922 0.0791 0.45315 0.0
C1430 C 0.43694 0.08065 0.47094 0.0
C1431 C 0.44308 0.09306 0.48749 0.0
H1432 H 0.13856 0.2342 0.71479 0.0
H1433 H 0.15548 0.17969 0.74869 0.0
H1434 H 0.16156 0.22454 0.68739 0.0
H1435 H 0.17804 0.16924 0.72045 0.0
H1436 H 0.23713 0.17573 0.67989 0.0
H1437 H 0.20993 0.17787 0.70571 0.0
H1438 H 0.16895 0.20352 0.66003 0.0
H1439 H 0.19664 0.20269 0.6349 0.0
C1440 C 0.14685 0.21982 0.71618 0.0
C1441 C 0.14523 0.20778 0.73401 0.0
C1442 C 0.16001 0.21412 0.70027 0.0
C1443 C 0.17176 0.196 0.70151 0.0
C1444 C 0.1695 0.18345 0.71902 0.0
C1445 C 0.15644 0.18933 0.73516 0.0
C1446 C 0.22216 0.18147 0.67539 0.0
C1447 C 0.219 0.18931 0.65556 0.0
C1448 C 0.20649 0.18265 0.69015 0.0
C1449 C 0.18725 0.19131 0.68518 0.0
C1450 C 0.18372 0.19745 0.66472 0.0
C1451 C 0.19951 0.19679 0.65021 0.0
H1452 H 0.02333 0.87388 0.96401 0.0
H1453 H 0.05689 0.91198 0.00675 0.0
H1454 H 0.03229 0.89715 0.93614 0.0
H1455 H 0.06542 0.93569 0.97887 0.0
H1456 H 0.08444 0.97069 0.92065 0.0
H1457 H 0.0827 0.94285 0.94597 0.0
H1458 H 0.01977 0.93103 0.92836 0.0
H1459 H 0.02157 0.95827 0.90309 0.0
C1460 C 0.03288 0.88709 0.9674 0.0
C1461 C 0.03918 0.89123 0.98763 0.0
C1462 C 0.03792 0.90051 0.95144 0.0
C1463 C 0.0492 0.91854 0.95533 0.0
C1464 C 0.05675 0.92193 0.97531 0.0
C1465 C 0.05183 0.90836 0.99131 0.0
C1466 C 0.07033 0.96197 0.92208 0.0
C1467 C 0.05314 0.96676 0.90984 0.0
C1468 C 0.06931 0.94609 0.93664 0.0
C1469 C 0.05114 0.9346 0.93913 0.0
C1470 C 0.03415 0.93924 0.92662 0.0
C1471 C 0.03513 0.95505 0.9122 0.0
H1472 H 0.24371 0.33183 0.1891 0.0
H1473 H 0.28737 0.37096 0.22021 0.0
H1474 H 0.27139 0.30787 0.18051 0.0
H1475 H 0.31502 0.34745 0.21115 0.0
H1476 H 0.34796 0.28672 0.22366 0.0
H1477 H 0.32273 0.314 0.2249 0.0
H1478 H 0.30407 0.29996 0.16275 0.0
H1479 H 0.32942 0.27206 0.16159 0.0
C1480 C 0.2593 0.33562 0.19356 0.0
C1481 C 0.26332 0.3531 0.20561 0.0
C1482 C 0.27517 0.3219 0.18861 0.0
C1483 C 0.29536 0.32552 0.19552 0.0
C1484 C 0.29956 0.34392 0.20606 0.0
C1485 C 0.28372 0.35747 0.21115 0.0
C1486 C 0.33863 0.28944 0.21015 0.0
C1487 C 0.34073 0.27711 0.19253 0.0
C1488 C 0.32423 0.30528 0.2108 0.0
C1489 C 0.31146 0.30933 0.19386 0.0
C1490 C 0.31363 0.29718 0.17609 0.0
C1491 C 0.3282 0.28127 0.1754 0.0
H1492 H 0.78116 0.14185 0.75345 0.0
H1493 H 0.74729 0.15629 0.80868 0.0
H1494 H 0.80869 0.16426 0.76422 0.0
H1495 H 0.77563 0.17821 0.8202 0.0
H1496 H 0.81792 0.23637 0.81785 0.0
H1497 H 0.79127 0.2102 0.8136 0.0
H1498 H 0.83607 0.16955 0.78592 0.0
H1499 H 0.86205 0.19626 0.78892 0.0
C1500 C 0.77978 0.1495 0.76817 0.0
C1501 C 0.76198 0.14729 0.78018 0.0
C1502 C 0.79575 0.1623 0.7745 0.0
C1503 C 0.79462 0.17307 0.79324 0.0
C1504 C 0.77701 0.1704 0.80558 0.0
C1505 C 0.76081 0.15772 0.79906 0.0
C1506 C 0.82203 0.22166 0.81122 0.0
C1507 C 0.84191 0.21836 0.80349 0.0
C1508 C 0.8068 0.20659 0.8088 0.0
C1509 C 0.81131 0.18781 0.79896 0.0
C1510 C 0.83174 0.18403 0.79288 0.0
C1511 C 0.84674 0.19924 0.79479 0.0
H1512 H 0.02145 0.57651 0.09233 0.0
H1513 H 0.04019 0.59709 0.03202 0.0
H1514 H 0.04947 0.55121 0.09219 0.0
H1515 H 0.06758 0.57198 0.03177 0.0
H1516 H 0.08167 0.49135 0.06436 0.0
H1517 H 0.05795 0.51909 0.0734 0.0
H1518 H 0.10008 0.56337 0.0474 0.0
H1519 H 0.12336 0.53568 0.03786 0.0
C1520 C 0.03162 0.57578 0.07917 0.0
C1521 C 0.02852 0.58878 0.06216 0.0
C1522 C 0.04759 0.56126 0.07905 0.0
C1523 C 0.06087 0.55966 0.06204 0.0
C1524 C 0.05796 0.57302 0.04532 0.0
C1525 C 0.04205 0.58734 0.04538 0.0
C1526 C 0.08607 0.50706 0.06107 0.0
C1527 C 0.10419 0.51132 0.05008 0.0
C1528 C 0.0725 0.52297 0.06629 0.0
C1529 C 0.07692 0.5434 0.06071 0.0
C1530 C 0.09596 0.54774 0.05144 0.0
C1531 C 0.10937 0.53189 0.04606 0.0
H1532 H 0.64831 0.78753 0.27424 0.0
H1533 H 0.66668 0.77154 0.33603 0.0
H1534 H 0.67347 0.81493 0.27372 0.0
H1535 H 0.69196 0.79951 0.33559 0.0
H1536 H 0.7524 0.83189 0.31 0.0
H1537 H 0.72472 0.80771 0.31795 0.0
H1538 H 0.68107 0.84813 0.28843 0.0
H1539 H 0.70871 0.8719 0.28004 0.0
C1540 C 0.65759 0.78998 0.28784 0.0
C1541 C 0.65547 0.77725 0.30517 0.0
C1542 C 0.67194 0.80588 0.2876 0.0
C1543 C 0.68465 0.80956 0.30468 0.0
C1544 C 0.68244 0.79702 0.32216 0.0
C1545 C 0.66791 0.78107 0.32244 0.0
C1546 C 0.73681 0.83581 0.30566 0.0
C1547 C 0.73277 0.85363 0.29411 0.0
C1548 C 0.72093 0.82197 0.31024 0.0
C1549 C 0.70075 0.82579 0.30344 0.0
C1550 C 0.69653 0.84447 0.29342 0.0
C1551 C 0.71237 0.85816 0.28872 0.0
H1552 H 0.87623 0.9655 0.02859 0.0
H1553 H 0.91592 0.00497 0.06419 0.0
H1554 H 0.89725 0.93594 0.03774 0.0
H1555 H 0.9376 0.97547 0.0727 0.0
H1556 H 0.97054 0.91572 0.08928 0.0
H1557 H 0.94364 0.94211 0.08857 0.0
H1558 H 0.93022 0.92632 0.02548 0.0
H1559 H 0.95636 0.89996 0.02633 0.0
C1560 C 0.88929 0.96778 0.03867 0.0
C1561 C 0.8946 0.98755 0.04547 0.0
C1562 C 0.90145 0.95087 0.04379 0.0
C1563 C 0.91945 0.95338 0.05551 0.0
C1564 C 0.92384 0.97294 0.06368 0.0
C1565 C 0.91144 0.98987 0.05878 0.0
C1566 C 0.96162 0.91776 0.07537 0.0
C1567 C 0.96566 0.90573 0.05785 0.0
C1568 C 0.94628 0.93293 0.07494 0.0
C1569 C 0.93465 0.9363 0.05701 0.0
C1570 C 0.93849 0.92393 0.03972 0.0
C1571 C 0.95371 0.90887 0.04015 0.0
H1572 H 0.25403 0.66415 0.69011 0.0
H1573 H 0.21052 0.62508 0.72151 0.0
H1574 H 0.22625 0.68786 0.68122 0.0
H1575 H 0.18274 0.64828 0.71207 0.0
H1576 H 0.14949 0.70893 0.72418 0.0
H1577 H 0.17459 0.68155 0.72547 0.0
H1578 H 0.1938 0.69583 0.66353 0.0
H1579 H 0.16862 0.72388 0.66235 0.0
C1580 C 0.23845 0.66031 0.69456 0.0
C1581 C 0.23449 0.64295 0.70679 0.0
C1582 C 0.22251 0.67388 0.68943 0.0
C1583 C 0.20232 0.6702 0.69631 0.0
C1584 C 0.19819 0.65187 0.707 0.0
C1585 C 0.2141 0.63849 0.71231 0.0
C1586 C 0.1589 0.70623 0.71071 0.0
C1587 C 0.15705 0.7187 0.69318 0.0
C1588 C 0.17323 0.69032 0.71139 0.0
C1589 C 0.18615 0.68633 0.69454 0.0
C1590 C 0.18414 0.69856 0.6768 0.0
C1591 C 0.16966 0.71456 0.6761 0.0
H1592 H 0.04219 0.40098 0.47105 0.0
H1593 H 0.02296 0.41961 0.41027 0.0
H1594 H 0.06858 0.4271 0.47087 0.0
H1595 H 0.05005 0.44587 0.40993 0.0
H1596 H 0.12252 0.46586 0.46494 0.0
H1597 H 0.10062 0.43694 0.45584 0.0
H1598 H 0.05735 0.4786 0.42748 0.0
H1599 H 0.0798 0.50755 0.43597 0.0
C1600 C 0.04376 0.41049 0.45747 0.0
C1601 C 0.03034 0.40823 0.44071 0.0
C1602 C 0.05911 0.42541 0.45729 0.0
C1603 C 0.06159 0.43854 0.44032 0.0
C1604 C 0.04849 0.43605 0.42328 0.0
C1605 C 0.03305 0.42096 0.42343 0.0
C1606 C 0.10858 0.46879 0.45632 0.0
C1607 C 0.10271 0.48897 0.45143 0.0
C1608 C 0.09595 0.45223 0.4512 0.0
C1609 C 0.07696 0.45548 0.4414 0.0
C1610 C 0.07188 0.47553 0.43501 0.0
C1611 C 0.08471 0.49214 0.43991 0.0
H1612 H 0.45884 0.59854 0.974 0.0
H1613 H 0.47362 0.57904 0.91225 0.0
H1614 H 0.43146 0.57341 0.97554 0.0
H1615 H 0.44562 0.55383 0.91369 0.0
H1616 H 0.41392 0.49381 0.94056 0.0
H1617 H 0.43779 0.52147 0.93174 0.0
H1618 H 0.39808 0.56523 0.96207 0.0
H1619 H 0.37466 0.53758 0.97137 0.0
C1620 C 0.45611 0.58904 0.96061 0.0
C1621 C 0.46852 0.59081 0.94302 0.0
C1622 C 0.44022 0.57469 0.96143 0.0
C1623 C 0.4362 0.56166 0.94468 0.0
C1624 C 0.44838 0.56357 0.9269 0.0
C1625 C 0.46434 0.57807 0.92604 0.0
C1626 C 0.41008 0.50941 0.94492 0.0
C1627 C 0.39259 0.51348 0.95694 0.0
C1628 C 0.42374 0.52529 0.93983 0.0
C1629 C 0.42006 0.54552 0.94656 0.0
C1630 C 0.40166 0.54974 0.9571 0.0
C1631 C 0.38816 0.53391 0.96233 0.0
H1632 H 0.72135 0.78415 0.87421 0.0
H1633 H 0.68987 0.74255 0.83321 0.0
H1634 H 0.71202 0.81297 0.85228 0.0
H1635 H 0.68108 0.77138 0.81077 0.0
H1636 H 0.66232 0.83021 0.77721 0.0
H1637 H 0.66343 0.80405 0.80429 0.0
H1638 H 0.72533 0.82277 0.81947 0.0
H1639 H 0.72409 0.84888 0.79305 0.0
C1640 C 0.71217 0.78121 0.86064 0.0
C1641 C 0.70658 0.76107 0.85527 0.0
C1642 C 0.70692 0.79772 0.84799 0.0
C1643 C 0.69622 0.79445 0.8295 0.0
C1644 C 0.6893 0.77447 0.82491 0.0
C1645 C 0.69436 0.75792 0.83774 0.0
C1646 C 0.67604 0.82888 0.78655 0.0
C1647 C 0.69314 0.84162 0.7829 0.0
C1648 C 0.67671 0.81382 0.80198 0.0
C1649 C 0.69443 0.81134 0.81414 0.0
C1650 C 0.71127 0.82446 0.81073 0.0
C1651 C 0.71062 0.83937 0.79538 0.0
H1652 H 0.50508 0.44171 0.08424 0.0
H1653 H 0.46261 0.47281 0.12469 0.0
H1654 H 0.47673 0.43324 0.06108 0.0
H1655 H 0.43428 0.46385 0.10198 0.0
H1656 H 0.39945 0.47621 0.04221 0.0
H1657 H 0.4253 0.47746 0.06891 0.0
H1658 H 0.44404 0.41549 0.05408 0.0
H1659 H 0.41812 0.41434 0.02676 0.0
C1660 C 0.48962 0.44621 0.08848 0.0
C1661 C 0.48611 0.4582 0.10611 0.0
C1662 C 0.47335 0.44132 0.07523 0.0
C1663 C 0.45328 0.44823 0.07946 0.0
C1664 C 0.44962 0.45876 0.09798 0.0
C1665 C 0.46585 0.46379 0.11107 0.0
C1666 C 0.40892 0.46273 0.04466 0.0
C1667 C 0.40671 0.44519 0.03225 0.0
C1668 C 0.42368 0.46339 0.06016 0.0
C1669 C 0.43669 0.44652 0.06378 0.0
C1670 C 0.43432 0.42879 0.05162 0.0
C1671 C 0.41942 0.42809 0.03605 0.0
H1672 H 0.77568 0.21599 0.3744 0.0
H1673 H 0.8078 0.25705 0.33331 0.0
H1674 H 0.78402 0.1871 0.35216 0.0
H1675 H 0.81565 0.22814 0.31062 0.0
H1676 H 0.77108 0.15149 0.29292 0.0
H1677 H 0.77034 0.17773 0.31927 0.0
H1678 H 0.83266 0.19506 0.30413 0.0
H1679 H 0.83329 0.16876 0.27717 0.0
C1680 C 0.78479 0.2188 0.36074 0.0
C1681 C 0.79086 0.23883 0.35547 0.0
C1682 C 0.78946 0.20225 0.34791 0.0
C1683 C 0.8001 0.20535 0.32936 0.0
C1684 C 0.80747 0.22518 0.32481 0.0
C1685 C 0.80294 0.24177 0.3378 0.0
C1686 C 0.78475 0.16072 0.29524 0.0
C1687 C 0.80223 0.15802 0.28283 0.0
C1688 C 0.78438 0.17572 0.31054 0.0
C1689 C 0.80149 0.18846 0.31395 0.0
C1690 C 0.81918 0.18557 0.30182 0.0
C1691 C 0.81957 0.17044 0.28645 0.0
H1692 H 0.99004 0.56393 0.58143 0.0
H1693 H 0.03448 0.53477 0.62119 0.0
H1694 H 0.01751 0.57262 0.55722 0.0
H1695 H 0.06186 0.54386 0.59737 0.0
H1696 H 0.07593 0.59115 0.52088 0.0
H1697 H 0.05065 0.59079 0.54895 0.0
H1698 H 0.06855 0.52863 0.56391 0.0
H1699 H 0.09359 0.52901 0.53646 0.0
C1700 C 0.00573 0.55994 0.5853 0.0
C1701 C 0.01006 0.54835 0.60302 0.0
C1702 C 0.02148 0.56495 0.57145 0.0
C1703 C 0.0418 0.55853 0.57517 0.0
C1704 C 0.04629 0.54858 0.59382 0.0
C1705 C 0.0306 0.54345 0.60752 0.0
C1706 C 0.07455 0.57752 0.53033 0.0
C1707 C 0.08679 0.56011 0.52638 0.0
C1708 C 0.06004 0.57729 0.54633 0.0
C1709 C 0.05773 0.55976 0.55879 0.0
C1710 C 0.0702 0.54256 0.55493 0.0
C1711 C 0.08448 0.54272 0.53899 0.0
H1712 H 0.67771 0.25294 0.65124 0.0
H1713 H 0.73148 0.2185 0.63303 0.0
H1714 H 0.66669 0.22416 0.67279 0.0
H1715 H 0.72134 0.19057 0.65512 0.0
H1716 H 0.69923 0.13774 0.68946 0.0
H1717 H 0.70029 0.16337 0.66226 0.0
H1718 H 0.67485 0.20846 0.70404 0.0
H1719 H 0.67237 0.18214 0.73067 0.0
C1720 C 0.68707 0.23917 0.6517 0.0
C1721 C 0.70548 0.23804 0.64045 0.0
C1722 C 0.68086 0.22272 0.66419 0.0
C1723 C 0.69309 0.2049 0.66588 0.0
C1724 C 0.71115 0.20368 0.65401 0.0
C1725 C 0.71714 0.2199 0.64137 0.0
C1726 C 0.69342 0.15303 0.69259 0.0
C1727 C 0.68587 0.15807 0.71213 0.0
C1728 C 0.69422 0.16784 0.67709 0.0
C1729 C 0.68821 0.18828 0.68099 0.0
C1730 C 0.67951 0.19294 0.70029 0.0
C1731 C 0.67815 0.17789 0.71564 0.0
H1732 H 0.09657 0.47866 0.96392 0.0
H1733 H 0.07894 0.41544 0.97425 0.0
H1734 H 0.07135 0.48138 0.93673 0.0
H1735 H 0.05366 0.41811 0.94642 0.0
H1736 H 0.99335 0.44438 0.91508 0.0
H1737 H 0.02076 0.43559 0.93927 0.0
H1738 H 0.06412 0.46986 0.90243 0.0
H1739 H 0.03673 0.47907 0.87871 0.0
C1740 C 0.08745 0.46522 0.96026 0.0
C1741 C 0.08981 0.44682 0.97135 0.0
C1742 C 0.07305 0.46674 0.94447 0.0
C1743 C 0.06055 0.44992 0.93923 0.0
C1744 C 0.06298 0.43139 0.95015 0.0
C1745 C 0.07752 0.42983 0.96601 0.0
C1746 C 0.00883 0.44969 0.91197 0.0
C1747 C 0.01282 0.46267 0.89516 0.0
C1748 C 0.02455 0.44461 0.92581 0.0
C1749 C 0.04458 0.45234 0.923 0.0
C1750 C 0.04877 0.46408 0.90535 0.0
C1751 C 0.03308 0.46927 0.89167 0.0
H1752 H 0.83196 0.83036 0.22308 0.0
H1753 H 0.76957 0.84851 0.20919 0.0
H1754 H 0.83069 0.80512 0.19515 0.0
H1755 H 0.76819 0.82331 0.18189 0.0
H1756 H 0.80517 0.74452 0.16379 0.0
H1757 H 0.81348 0.77241 0.18755 0.0
H1758 H 0.78116 0.81524 0.14841 0.0
H1759 H 0.77235 0.78733 0.12513 0.0
C1760 C 0.81806 0.82909 0.21402 0.0
C1761 C 0.80086 0.84146 0.21843 0.0
C1762 C 0.8173 0.81456 0.19809 0.0
C1763 C 0.79938 0.81223 0.18618 0.0
C1764 C 0.7824 0.82491 0.19042 0.0
C1765 C 0.78313 0.8393 0.20627 0.0
C1766 C 0.80024 0.75998 0.16006 0.0
C1767 C 0.78784 0.76368 0.14276 0.0
C1768 C 0.80504 0.77599 0.17366 0.0
C1769 C 0.79763 0.79601 0.17011 0.0
C1770 C 0.78665 0.79991 0.1519 0.0
C1771 C 0.78171 0.78393 0.13847 0.0
H1772 H 0.39585 0.52047 0.45768 0.0
H1773 H 0.41474 0.58166 0.4754 0.0
H1774 H 0.42162 0.52013 0.4309 0.0
H1775 H 0.44057 0.58146 0.44795 0.0
H1776 H 0.4594 0.5261 0.37568 0.0
H1777 H 0.43092 0.53456 0.39842 0.0
H1778 H 0.47314 0.56408 0.44033 0.0
H1779 H 0.50162 0.55617 0.41712 0.0
C1780 C 0.40534 0.53401 0.4557 0.0
C1781 C 0.40324 0.55107 0.4688 0.0
C1782 C 0.42006 0.53389 0.44014 0.0
C1783 C 0.43313 0.55083 0.43713 0.0
C1784 C 0.43082 0.56812 0.44994 0.0
C1785 C 0.41597 0.56826 0.46559 0.0
C1786 C 0.46255 0.5348 0.38953 0.0
C1787 C 0.48278 0.54023 0.39475 0.0
C1788 C 0.44624 0.53954 0.40264 0.0
C1789 C 0.44978 0.54958 0.42145 0.0
C1790 C 0.46983 0.55637 0.42595 0.0
C1791 C 0.48618 0.5518 0.41267 0.0
H1792 H 0.77409 0.65929 0.82756 0.0
H1793 H 0.79208 0.7199 0.84796 0.0
H1794 H 0.80183 0.65989 0.80195 0.0
H1795 H 0.81915 0.72061 0.82253 0.0
H1796 H 0.83327 0.68774 0.74181 0.0
H1797 H 0.80985 0.67858 0.76976 0.0
H1798 H 0.85175 0.70573 0.81353 0.0
H1799 H 0.87471 0.71542 0.78562 0.0
C1800 C 0.78404 0.67262 0.82673 0.0
C1801 C 0.78081 0.68957 0.83978 0.0
C1802 C 0.79984 0.673 0.81202 0.0
C1803 C 0.81282 0.69024 0.81026 0.0
C1804 C 0.80978 0.7069 0.82366 0.0
C1805 C 0.79405 0.70657 0.83818 0.0
C1806 C 0.83768 0.69129 0.75746 0.0
C1807 C 0.85564 0.70261 0.7615 0.0
C1808 C 0.82428 0.686 0.7735 0.0
C1809 C 0.82871 0.69182 0.79385 0.0
C1810 C 0.8476 0.7015 0.79797 0.0
C1811 C 0.86083 0.70696 0.78199 0.0
H1812 H 0.52535 0.54301 0.09941 0.0
H1813 H 0.58706 0.52674 0.08089 0.0
H1814 H 0.52442 0.5696 0.07343 0.0
H1815 H 0.58625 0.55395 0.05483 0.0
H1816 H 0.56016 0.58348 0.99343 0.0
H1817 H 0.56857 0.56071 0.0221 0.0
H1818 H 0.53828 0.60243 0.06397 0.0
H1819 H 0.52938 0.62476 0.03532 0.0
C1820 C 0.53887 0.54527 0.08995 0.0
C1821 C 0.55625 0.53264 0.09222 0.0
C1822 C 0.5384 0.56071 0.07511 0.0
C1823 C 0.55531 0.56404 0.06208 0.0
C1824 C 0.57292 0.5517 0.06455 0.0
C1825 C 0.57342 0.5362 0.07955 0.0
C1826 C 0.55572 0.58799 0.00883 0.0
C1827 C 0.54382 0.60573 0.01209 0.0
C1828 C 0.56058 0.57496 0.02528 0.0
C1829 C 0.55373 0.57953 0.04529 0.0
C1830 C 0.54333 0.59817 0.04868 0.0
C1831 C 0.53832 0.61105 0.03227 0.0
H1832 H 0.62381 0.28299 0.28612 0.0
H1833 H 0.66432 0.31281 0.24281 0.0
H1834 H 0.64687 0.29217 0.3141 0.0
H1835 H 0.68783 0.32147 0.2708 0.0
H1836 H 0.72334 0.34039 0.32863 0.0
H1837 H 0.69558 0.3395 0.30315 0.0
H1838 H 0.67982 0.27806 0.32283 0.0
H1839 H 0.70695 0.27906 0.34821 0.0
C1840 C 0.6375 0.29179 0.28262 0.0
C1841 C 0.6424 0.29693 0.26224 0.0
C1842 C 0.6508 0.29695 0.29864 0.0
C1843 C 0.66945 0.30714 0.29465 0.0
C1844 C 0.67359 0.31366 0.27444 0.0
C1845 C 0.66013 0.30865 0.25838 0.0
C1846 C 0.71376 0.32682 0.32763 0.0
C1847 C 0.71743 0.30979 0.34045 0.0
C1848 C 0.69793 0.32628 0.31298 0.0
C1849 C 0.68538 0.30876 0.31101 0.0
C1850 C 0.68887 0.29197 0.32415 0.0
C1851 C 0.70462 0.29248 0.33864 0.0
H1852 H 0.97548 0.46248 0.59689 0.0
H1853 H 0.91225 0.47411 0.58005 0.0
H1854 H 0.97727 0.43511 0.57179 0.0
H1855 H 0.91398 0.44611 0.55489 0.0
H1856 H 0.97398 0.37766 0.53679 0.0
H1857 H 0.96496 0.40103 0.56455 0.0
H1858 H 0.93101 0.43884 0.5218 0.0
H1859 H 0.9396 0.41501 0.49403 0.0
C1860 C 0.96183 0.45906 0.58798 0.0
C1861 C 0.94373 0.47058 0.59049 0.0
C1862 C 0.96282 0.44317 0.57366 0.0
C1863 C 0.94572 0.43825 0.5614 0.0
C1864 C 0.92746 0.44957 0.56403 0.0
C1865 C 0.92644 0.46553 0.5785 0.0
C1866 C 0.96423 0.39073 0.53338 0.0
C1867 C 0.95773 0.39464 0.51318 0.0
C1868 C 0.95916 0.4042 0.54927 0.0
C1869 C 0.94765 0.42207 0.54533 0.0
C1870 C 0.93987 0.42521 0.52539 0.0
C1871 C 0.94482 0.41157 0.50946 0.0
H1872 H 0.8726 0.27773 0.70822 0.0
H1873 H 0.83403 0.30784 0.75307 0.0
H1874 H 0.84925 0.28826 0.68099 0.0
H1875 H 0.81017 0.31787 0.7258 0.0
H1876 H 0.77423 0.33917 0.66873 0.0
H1877 H 0.80233 0.33689 0.69382 0.0
H1878 H 0.8157 0.27529 0.67287 0.0
H1879 H 0.7883 0.27765 0.64793 0.0
C1880 C 0.85925 0.28685 0.71223 0.0
C1881 C 0.85498 0.2917 0.73281 0.0
C1882 C 0.8458 0.29281 0.69663 0.0
C1883 C 0.82758 0.3035 0.70125 0.0
C1884 C 0.82407 0.30968 0.72168 0.0
C1885 C 0.83771 0.30389 0.73733 0.0
C1886 C 0.78337 0.32527 0.66938 0.0
C1887 C 0.77896 0.30859 0.65634 0.0
C1888 C 0.79938 0.32393 0.6838 0.0
C1889 C 0.81138 0.30597 0.68527 0.0
C1890 C 0.80711 0.28953 0.67193 0.0
C1891 C 0.79119 0.29082 0.6577 0.0
H1892 H 0.95374 0.55479 0.8866 0.0
H1893 H 0.92422 0.51385 0.92955 0.0
H1894 H 0.95511 0.58149 0.91273 0.0
H1895 H 0.9269 0.53996 0.95638 0.0
H1896 H 0.92951 0.59282 0.00126 0.0
H1897 H 0.91911 0.57142 0.97212 0.0
H1898 H 0.97554 0.58747 0.94075 0.0
H1899 H 0.98514 0.60939 0.96902 0.0
C1900 C 0.94743 0.55161 0.90168 0.0
C1901 C 0.93904 0.53227 0.90615 0.0
C1902 C 0.94839 0.56682 0.91678 0.0
C1903 C 0.94165 0.56282 0.93696 0.0
C1904 C 0.93216 0.54377 0.94106 0.0
C1905 C 0.93068 0.52872 0.92572 0.0
C1906 C 0.93943 0.59201 0.98791 0.0
C1907 C 0.95814 0.60282 0.98747 0.0
C1908 C 0.93358 0.57961 0.97125 0.0
C1909 C 0.94643 0.57759 0.95392 0.0
C1910 C 0.96488 0.58889 0.95344 0.0
C1911 C 0.97054 0.60142 0.96986 0.0
H1912 H 0.62136 0.71559 0.21179 0.0
H1913 H 0.66359 0.68695 0.25422 0.0
H1914 H 0.64393 0.70677 0.18329 0.0
H1915 H 0.68665 0.67873 0.22571 0.0
H1916 H 0.72214 0.66135 0.16764 0.0
H1917 H 0.69455 0.66108 0.19334 0.0
H1918 H 0.67605 0.72179 0.17373 0.0
H1919 H 0.70296 0.72188 0.14811 0.0
C1920 C 0.63534 0.70711 0.21498 0.0
C1921 C 0.64086 0.70221 0.23526 0.0
C1922 C 0.64835 0.70216 0.19866 0.0
C1923 C 0.66735 0.69248 0.20225 0.0
C1924 C 0.67212 0.68614 0.22237 0.0
C1925 C 0.65893 0.69089 0.23873 0.0
C1926 C 0.71196 0.67448 0.16868 0.0
C1927 C 0.71483 0.69166 0.15585 0.0
C1928 C 0.69624 0.67437 0.18346 0.0
C1929 C 0.683 0.69137 0.18557 0.0
C1930 C 0.68563 0.70824 0.17233 0.0
C1931 C 0.70127 0.70838 0.1577 0.0
H1932 H 0.52229 0.45581 0.40172 0.0
H1933 H 0.58358 0.47274 0.421 0.0
H1934 H 0.52142 0.42905 0.42754 0.0
H1935 H 0.58283 0.44537 0.44688 0.0
H1936 H 0.55678 0.41473 0.50768 0.0
H1937 H 0.56495 0.43802 0.47936 0.0
H1938 H 0.53567 0.39631 0.43679 0.0
H1939 H 0.527 0.37346 0.46509 0.0
C1940 C 0.53573 0.45367 0.41132 0.0
C1941 C 0.55298 0.46652 0.4093 0.0
C1942 C 0.5353 0.43814 0.42606 0.0
C1943 C 0.55211 0.43493 0.43924 0.0
C1944 C 0.56958 0.44751 0.43704 0.0
C1945 C 0.57004 0.46311 0.42215 0.0
C1946 C 0.55251 0.41035 0.4922 0.0
C1947 C 0.54096 0.39244 0.48865 0.0
C1948 C 0.55723 0.42368 0.47595 0.0
C1949 C 0.5506 0.41924 0.45584 0.0
C1950 C 0.54053 0.40047 0.45215 0.0
C1951 C 0.53567 0.38729 0.46837 0.0
H1952 H 0.78642 0.87284 0.724 0.0
H1953 H 0.7437 0.83392 0.69134 0.0
H1954 H 0.81443 0.84971 0.71507 0.0
H1955 H 0.77174 0.81037 0.68284 0.0
H1956 H 0.83018 0.7758 0.66364 0.0
H1957 H 0.80463 0.80345 0.66528 0.0
H1958 H 0.82254 0.81599 0.72797 0.0
H1959 H 0.84803 0.78893 0.72625 0.0
C1960 C 0.78305 0.85948 0.71465 0.0
C1961 C 0.7628 0.85506 0.70861 0.0
C1962 C 0.7991 0.84615 0.70964 0.0
C1963 C 0.79527 0.82795 0.69862 0.0
C1964 C 0.77524 0.82427 0.69131 0.0
C1965 C 0.75915 0.83774 0.69621 0.0
C1966 C 0.82878 0.78464 0.67767 0.0
C1967 C 0.84115 0.7801 0.69482 0.0
C1968 C 0.81408 0.8004 0.67864 0.0
C1969 C 0.8116 0.81202 0.69671 0.0
C1970 C 0.82427 0.80766 0.71366 0.0
C1971 C 0.83882 0.79196 0.71273 0.0
H1972 H 0.28906 0.62631 0.27555 0.0
H1973 H 0.24358 0.66525 0.30422 0.0
H1974 H 0.31601 0.65017 0.28571 0.0
H1975 H 0.27058 0.68959 0.31387 0.0
H1976 H 0.3274 0.7265 0.33463 0.0
H1977 H 0.30252 0.69814 0.33297 0.0
H1978 H 0.32369 0.68354 0.27175 0.0
H1979 H 0.34839 0.7112 0.27348 0.0
C1980 C 0.28486 0.63984 0.28429 0.0
C1981 C 0.26418 0.64406 0.28881 0.0
C1982 C 0.30029 0.65358 0.29003 0.0
C1983 C 0.29541 0.67203 0.30019 0.0
C1984 C 0.27489 0.67551 0.30609 0.0
C1985 C 0.2594 0.6616 0.30051 0.0
C1986 C 0.32683 0.71704 0.32095 0.0
C1987 C 0.33987 0.72117 0.30418 0.0
C1988 C 0.31254 0.70088 0.31996 0.0
C1989 C 0.31121 0.68845 0.30229 0.0
C1990 C 0.32453 0.69247 0.28577 0.0
C1991 C 0.33862 0.70854 0.2867 0.0
H1992 H 0.5274 0.07681 0.58939 0.0
H1993 H 0.54419 0.09747 0.52853 0.0
H1994 H 0.55538 0.05151 0.58831 0.0
H1995 H 0.57152 0.07232 0.52736 0.0
H1996 H 0.58739 0.99186 0.56039 0.0
H1997 H 0.56351 0.01944 0.56947 0.0
H1998 H 0.60448 0.06381 0.54185 0.0
H1999 H 0.62793 0.03627 0.53228 0.0
C2000 C 0.53712 0.07609 0.57589 0.0
C2001 C 0.53349 0.08914 0.55903 0.0
C2002 C 0.55307 0.06155 0.57524 0.0
C2003 C 0.56579 0.05996 0.5578 0.0
C2004 C 0.56234 0.07334 0.5412 0.0
C2005 C 0.54646 0.08769 0.54181 0.0
C2006 C 0.59148 0.00756 0.55668 0.0
C2007 C 0.60935 0.01187 0.54531 0.0
C2008 C 0.57782 0.02338 0.56193 0.0
C2009 C 0.58189 0.04379 0.55601 0.0
C2010 C 0.60063 0.0482 0.54617 0.0
C2011 C 0.61413 0.03242 0.54078 0.0
H2012 H 0.25302 0.33266 0.81417 0.0
H2013 H 0.20853 0.37429 0.78787 0.0
H2014 H 0.22542 0.30862 0.82273 0.0
H2015 H 0.18094 0.35072 0.79703 0.0
H2016 H 0.16856 0.27058 0.83978 0.0
H2017 H 0.19329 0.2991 0.8408 0.0
H2018 H 0.17279 0.31863 0.78074 0.0
H2019 H 0.14825 0.2908 0.77987 0.0
C2020 C 0.23728 0.33699 0.81086 0.0
C2021 C 0.23294 0.35517 0.80001 0.0
C2022 C 0.22144 0.32323 0.81581 0.0
C2023 C 0.20102 0.32754 0.81014 0.0
C2024 C 0.19657 0.34668 0.80111 0.0
C2025 C 0.21237 0.36025 0.79596 0.0
C2026 C 0.16921 0.28118 0.82697 0.0
C2027 C 0.15649 0.27834 0.80971 0.0
C2028 C 0.18341 0.29744 0.82751 0.0
C2029 C 0.18495 0.31125 0.81091 0.0
C2030 C 0.1718 0.30861 0.79399 0.0
C2031 C 0.15781 0.29243 0.7934 0.0
H2032 H 0.37086 0.45701 0.5283 0.0
H2033 H 0.40935 0.50079 0.56002 0.0
H2034 H 0.39427 0.42943 0.53783 0.0
H2035 H 0.43322 0.47323 0.56904 0.0
H2036 H 0.45554 0.39676 0.52639 0.0
H2037 H 0.42778 0.42144 0.52483 0.0
H2038 H 0.44127 0.44097 0.58684 0.0
H2039 H 0.46968 0.41624 0.58829 0.0
C2040 C 0.38418 0.46069 0.53759 0.0
C2041 C 0.38841 0.48111 0.54317 0.0
C2042 C 0.39768 0.4449 0.54295 0.0
C2043 C 0.41589 0.44917 0.5538 0.0
C2044 C 0.41933 0.46937 0.56072 0.0
C2045 C 0.40567 0.4852 0.55551 0.0
C2046 C 0.45258 0.40615 0.53981 0.0
C2047 C 0.46496 0.40454 0.55744 0.0
C2048 C 0.43645 0.42023 0.53898 0.0
C2049 C 0.43215 0.43314 0.55576 0.0
C2050 C 0.44425 0.43132 0.5736 0.0
C2051 C 0.46046 0.4171 0.57447 0.0
H2052 H 0.64884 0.21122 0.2252 0.0
H2053 H 0.66824 0.22587 0.16338 0.0
H2054 H 0.67381 0.1837 0.22664 0.0
H2055 H 0.6933 0.19773 0.16473 0.0
H2056 H 0.70909 0.12662 0.2223 0.0
H2057 H 0.68162 0.15025 0.21303 0.0
H2058 H 0.72568 0.18964 0.18273 0.0
H2059 H 0.75317 0.16556 0.19152 0.0
C2060 C 0.65829 0.20844 0.21178 0.0
C2061 C 0.65653 0.22085 0.19418 0.0
C2062 C 0.67254 0.19246 0.21254 0.0
C2063 C 0.68549 0.18835 0.19574 0.0
C2064 C 0.68361 0.20055 0.17797 0.0
C2065 C 0.6692 0.2166 0.17717 0.0
C2066 C 0.71287 0.14009 0.21327 0.0
C2067 C 0.73333 0.14437 0.20788 0.0
C2068 C 0.69713 0.15372 0.20806 0.0
C2069 C 0.7015 0.17209 0.19755 0.0
C2070 C 0.72176 0.17562 0.1908 0.0
C2071 C 0.73753 0.16184 0.19588 0.0
H2072 H 0.62899 0.95836 0.96597 0.0
H2073 H 0.58946 0.00239 0.93591 0.0
H2074 H 0.60538 0.93082 0.95683 0.0
H2075 H 0.56539 0.97486 0.9273 0.0
H2076 H 0.52853 0.91776 0.90872 0.0
H2077 H 0.55687 0.94262 0.90946 0.0
H2078 H 0.57229 0.92281 0.97093 0.0
H2079 H 0.54461 0.89803 0.97007 0.0
C2080 C 0.61539 0.96211 0.95712 0.0
C2081 C 0.61094 0.98257 0.95191 0.0
C2082 C 0.60178 0.94634 0.95199 0.0
C2083 C 0.58324 0.95068 0.94176 0.0
C2084 C 0.57954 0.97095 0.93515 0.0
C2085 C 0.59331 0.98675 0.94013 0.0
C2086 C 0.53816 0.91859 0.92226 0.0
C2087 C 0.53424 0.90592 0.93935 0.0
C2088 C 0.55433 0.93289 0.92272 0.0
C2089 C 0.56695 0.93465 0.9402 0.0
C2090 C 0.5632 0.92164 0.95704 0.0
C2091 C 0.54712 0.9075 0.95661 0.0
H2092 H 0.97715 0.07958 0.41327 0.0
H2093 H 0.95753 0.09839 0.47388 0.0
H2094 H 0.95009 0.05332 0.41285 0.0
H2095 H 0.93113 0.07224 0.47362 0.0
H2096 H 0.9197 0.99184 0.43816 0.0
H2097 H 0.94254 0.02065 0.43033 0.0
H2098 H 0.89916 0.06245 0.45834 0.0
H2099 H 0.8768 0.03365 0.46675 0.0
C2100 C 0.96699 0.07825 0.42639 0.0
C2101 C 0.96957 0.09106 0.44362 0.0
C2102 C 0.95157 0.06315 0.42619 0.0
C2103 C 0.93834 0.06071 0.44315 0.0
C2104 C 0.94071 0.07389 0.46011 0.0
C2105 C 0.95606 0.08883 0.46033 0.0
C2106 C 0.91485 0.00725 0.44219 0.0
C2107 C 0.89664 0.01047 0.45336 0.0
C2108 C 0.92792 0.02379 0.43767 0.0
C2109 C 0.92289 0.04383 0.4441 0.0
C2110 C 0.90378 0.04715 0.45366 0.0
C2111 C 0.89089 0.03066 0.45837 0.0
H2112 H 0.08932 0.11884 0.43636 0.0
H2113 H 0.06557 0.13929 0.37781 0.0
H2114 H 0.12433 0.12468 0.42412 0.0
H2115 H 0.1006 0.14517 0.36566 0.0
H2116 H 0.16243 0.18291 0.3691 0.0
H2117 H 0.12737 0.17135 0.37588 0.0
H2118 H 0.15067 0.11325 0.39791 0.0
H2119 H 0.18576 0.12473 0.39109 0.0
C2120 C 0.09157 0.12424 0.42077 0.0
C2121 C 0.07465 0.1287 0.40811 0.0
C2122 C 0.11164 0.12751 0.41373 0.0
C2123 C 0.11519 0.13551 0.39397 0.0
C2124 C 0.09831 0.13919 0.38103 0.0
C2125 C 0.07826 0.1357 0.38797 0.0
C2126 C 0.16007 0.16753 0.37503 0.0
C2127 C 0.17689 0.15479 0.37964 0.0
C2128 C 0.13997 0.16088 0.37885 0.0
C2129 C 0.13629 0.14143 0.38755 0.0
C2130 C 0.15306 0.12838 0.39139 0.0
C2131 C 0.17314 0.13493 0.38735 0.0
H2132 H 0.06475 0.91224 0.62044 0.0
H2133 H 0.12302 0.93526 0.6425 0.0
H2134 H 0.07661 0.87707 0.62597 0.0
H2135 H 0.13481 0.90005 0.64807 0.0
H2136 H 0.12996 0.83762 0.68474 0.0
H2137 H 0.12386 0.87291 0.67355 0.0
H2138 H 0.10278 0.85072 0.61469 0.0
H2139 H 0.10892 0.81539 0.62581 0.0
C2140 C 0.08021 0.90979 0.62614 0.0
C2141 C 0.09289 0.92655 0.63113 0.0
C2142 C 0.08703 0.88964 0.62923 0.0
C2143 C 0.10661 0.88582 0.63757 0.0
C2144 C 0.11959 0.90255 0.6418 0.0
C2145 C 0.11286 0.9227 0.63849 0.0
C2146 C 0.12438 0.84027 0.66928 0.0
C2147 C 0.11983 0.82369 0.65621 0.0
C2148 C 0.12096 0.8605 0.66284 0.0
C2149 C 0.11272 0.86457 0.64328 0.0
C2150 C 0.10896 0.84803 0.62992 0.0
C2151 C 0.1126 0.82781 0.63626 0.0
H2152 H 0.43699 0.85868 0.87268 0.0
H2153 H 0.41455 0.88018 0.93138 0.0
H2154 H 0.40167 0.85295 0.86131 0.0
H2155 H 0.37925 0.87452 0.91992 0.0
H2156 H 0.31723 0.87484 0.88785 0.0
H2157 H 0.35258 0.88594 0.89398 0.0
H2158 H 0.37477 0.8272 0.8725 0.0
H2159 H 0.33945 0.81602 0.86644 0.0
C2160 C 0.42453 0.86254 0.88304 0.0
C2161 C 0.42859 0.8698 0.90299 0.0
C2162 C 0.40431 0.85913 0.87654 0.0
C2163 C 0.38772 0.86317 0.88976 0.0
C2164 C 0.39173 0.87141 0.90933 0.0
C2165 C 0.41195 0.87458 0.91592 0.0
C2166 C 0.32966 0.8644 0.8841 0.0
C2167 C 0.32552 0.8445 0.87674 0.0
C2168 C 0.34988 0.87074 0.88774 0.0
C2169 C 0.36642 0.85741 0.88383 0.0
C2170 C 0.36235 0.83788 0.87551 0.0
C2171 C 0.34211 0.83144 0.87211 0.0
H2172 H 0.37156 0.15887 0.1829 0.0
H2173 H 0.39236 0.18259 0.12446 0.0
H2174 H 0.37911 0.12397 0.17137 0.0
H2175 H 0.39997 0.14765 0.113 0.0
H2176 H 0.43979 0.08719 0.1181 0.0
H2177 H 0.42691 0.12192 0.12418 0.0
H2178 H 0.36917 0.09694 0.14533 0.0
H2179 H 0.38196 0.06219 0.13919 0.0
C2180 C 0.37741 0.15662 0.16748 0.0
C2181 C 0.38144 0.17351 0.15464 0.0
C2182 C 0.38167 0.13661 0.16084 0.0
C2183 C 0.39025 0.1331 0.14132 0.0
C2184 C 0.39355 0.14992 0.12819 0.0
C2185 C 0.38906 0.16991 0.13473 0.0
C2186 C 0.42423 0.0891 0.12371 0.0
C2187 C 0.41195 0.07192 0.12825 0.0
C2188 C 0.41682 0.10901 0.12712 0.0
C2189 C 0.39707 0.11213 0.13535 0.0
C2190 C 0.38452 0.09498 0.13916 0.0
C2191 C 0.39183 0.07509 0.13552 0.0
H2192 H 0.18166 0.87129 0.1056 0.0
H2193 H 0.16044 0.81185 0.12632 0.0
H2194 H 0.14613 0.8821 0.10021 0.0
H2195 H 0.12489 0.82276 0.12098 0.0
H2196 H 0.06248 0.85455 0.12298 0.0
H2197 H 0.09805 0.84831 0.13331 0.0
H2198 H 0.1191 0.87087 0.07457 0.0
H2199 H 0.08357 0.87703 0.06415 0.0
C2200 C 0.16942 0.86063 0.10931 0.0
C2201 C 0.17388 0.84066 0.1163 0.0
C2202 C 0.14909 0.86681 0.10611 0.0
C2203 C 0.13276 0.85325 0.11007 0.0
C2204 C 0.13716 0.8336 0.11794 0.0
C2205 C 0.15752 0.82733 0.12092 0.0
C2206 C 0.07471 0.8585 0.11239 0.0
C2207 C 0.0702 0.86622 0.0927 0.0
C2208 C 0.09505 0.85479 0.11827 0.0
C2209 C 0.11133 0.859 0.10472 0.0
C2210 C 0.10688 0.86762 0.08541 0.0
C2211 C 0.08653 0.87108 0.07941 0.0
H2212 H 0.39328 0.9354 0.33751 0.0
H2213 H 0.42585 0.91576 0.39171 0.0
H2214 H 0.38195 0.90054 0.33134 0.0
H2215 H 0.41278 0.88098 0.38709 0.0
H2216 H 0.40811 0.81663 0.36057 0.0
H2217 H 0.41627 0.85164 0.37008 0.0
H2218 H 0.36274 0.87287 0.33652 0.0
H2219 H 0.35619 0.83777 0.32532 0.0
C2220 C 0.3975 0.92358 0.34846 0.0
C2221 C 0.41048 0.92818 0.36502 0.0
C2222 C 0.39082 0.90346 0.34508 0.0
C2223 C 0.39634 0.88744 0.35861 0.0
C2224 C 0.4086 0.89247 0.37583 0.0
C2225 C 0.41595 0.9125 0.37872 0.0
C2226 C 0.39803 0.82885 0.35542 0.0
C2227 C 0.38159 0.82458 0.34218 0.0
C2228 C 0.40259 0.84908 0.361 0.0
C2229 C 0.39036 0.86559 0.35407 0.0
C2230 C 0.37309 0.86095 0.34171 0.0
C2231 C 0.36906 0.84075 0.33546 0.0
H2232 H 0.41472 0.1184 0.56686 0.0
H2233 H 0.4376 0.13988 0.62538 0.0
H2234 H 0.3796 0.12556 0.57803 0.0
H2235 H 0.40246 0.1471 0.63646 0.0
H2236 H 0.34145 0.18605 0.6305 0.0
H2237 H 0.37645 0.17362 0.62486 0.0
H2238 H 0.3525 0.11539 0.60393 0.0
H2239 H 0.31752 0.12772 0.6096 0.0
C2240 C 0.41224 0.12431 0.58222 0.0
C2241 C 0.42896 0.12864 0.59519 0.0
C2242 C 0.39212 0.12835 0.58865 0.0
C2243 C 0.3883 0.13702 0.60808 0.0
C2244 C 0.40496 0.14061 0.62134 0.0
C2245 C 0.42506 0.13634 0.61501 0.0
C2246 C 0.34365 0.17047 0.62504 0.0
C2247 C 0.32669 0.15792 0.6204 0.0
C2248 C 0.3637 0.16333 0.62188 0.0
C2249 C 0.36719 0.14357 0.61382 0.0
C2250 C 0.35026 0.13075 0.60995 0.0
C2251 C 0.33024 0.1378 0.61333 0.0
H2252 H 0.11107 0.18077 0.8738 0.0
H2253 H 0.13065 0.15742 0.81478 0.0
H2254 H 0.10556 0.1457 0.88585 0.0
H2255 H 0.12509 0.12233 0.8269 0.0
H2256 H 0.12411 0.06039 0.85894 0.0
H2257 H 0.13621 0.09535 0.85232 0.0
H2258 H 0.07913 0.11954 0.87607 0.0
H2259 H 0.06702 0.0847 0.88267 0.0
C2260 C 0.11455 0.16816 0.8635 0.0
C2261 C 0.12115 0.1719 0.84325 0.0
C2262 C 0.11128 0.14807 0.8704 0.0
C2263 C 0.11472 0.13127 0.85728 0.0
C2264 C 0.12243 0.13495 0.83742 0.0
C2265 C 0.12554 0.15507 0.83045 0.0
C2266 C 0.1143 0.07319 0.86311 0.0
C2267 C 0.09456 0.06977 0.87125 0.0
C2268 C 0.1212 0.09319 0.85918 0.0
C2269 C 0.10859 0.11018 0.86357 0.0
C2270 C 0.08928 0.10678 0.87268 0.0
C2271 C 0.0823 0.0868 0.87639 0.0
H2272 H 0.18413 0.36671 0.1609 0.0
H2273 H 0.12571 0.38738 0.18485 0.0
H2274 H 0.17195 0.37297 0.12597 0.0
H2275 H 0.11361 0.39368 0.1499 0.0
H2276 H 0.11779 0.4326 0.08889 0.0
H2277 H 0.1242 0.42021 0.1237 0.0
H2278 H 0.14577 0.36238 0.09929 0.0
H2279 H 0.13929 0.37471 0.06442 0.0
C2280 C 0.16857 0.37222 0.15871 0.0
C2281 C 0.15595 0.37666 0.17567 0.0
C2282 C 0.16157 0.37574 0.13869 0.0
C2283 C 0.14187 0.38396 0.13522 0.0
C2284 C 0.12893 0.38753 0.15213 0.0
C2285 C 0.13584 0.3838 0.17213 0.0
C2286 C 0.12354 0.4171 0.09095 0.0
C2287 C 0.12812 0.40469 0.07388 0.0
C2288 C 0.12714 0.40997 0.1109 0.0
C2289 C 0.1356 0.39036 0.11421 0.0
C2290 C 0.13942 0.37763 0.09719 0.0
C2291 C 0.13558 0.38467 0.07723 0.0
H2292 H 0.62601 0.10798 0.81048 0.0
H2293 H 0.6848 0.12946 0.83274 0.0
H2294 H 0.61521 0.10095 0.84571 0.0
H2295 H 0.67391 0.12247 0.86797 0.0
H2296 H 0.64315 0.12009 0.93035 0.0
H2297 H 0.64826 0.13261 0.89536 0.0
H2298 H 0.62712 0.07442 0.87147 0.0
H2299 H 0.62205 0.06182 0.90645 0.0
C2300 C 0.6365 0.11155 0.8229 0.0
C2301 C 0.65632 0.11917 0.8188 0.0
C2302 C 0.63033 0.1074 0.84306 0.0
C2303 C 0.64375 0.11104 0.85957 0.0
C2304 C 0.66317 0.11965 0.85556 0.0
C2305 C 0.66944 0.12358 0.83538 0.0
C2306 C 0.63923 0.11007 0.91765 0.0
C2307 C 0.6323 0.0899 0.92118 0.0
C2308 C 0.64229 0.11723 0.89762 0.0
C2309 C 0.63823 0.10445 0.8807 0.0
C2310 C 0.63025 0.08467 0.88421 0.0
C2311 C 0.62741 0.07743 0.90425 0.0
H2312 H 0.87087 0.88939 0.31261 0.0
H2313 H 0.81317 0.86803 0.33766 0.0
H2314 H 0.88384 0.89514 0.34735 0.0
H2315 H 0.82622 0.87372 0.37238 0.0
H2316 H 0.86092 0.87337 0.43287 0.0
H2317 H 0.85328 0.86225 0.39785 0.0
H2318 H 0.87399 0.9209 0.37472 0.0
H2319 H 0.88156 0.9321 0.40972 0.0
C2320 C 0.86108 0.88558 0.32551 0.0
C2321 C 0.84094 0.87834 0.32236 0.0
C2322 C 0.86848 0.88899 0.3454 0.0
C2323 C 0.85601 0.88499 0.36257 0.0
C2324 C 0.83625 0.8768 0.35945 0.0
C2325 C 0.82875 0.87361 0.33955 0.0
C2326 C 0.86419 0.88378 0.4203 0.0
C2327 C 0.87176 0.90367 0.4241 0.0
C2328 C 0.85969 0.87743 0.40026 0.0
C2329 C 0.86291 0.89074 0.38357 0.0
C2330 C 0.87148 0.91024 0.38726 0.0
C2331 C 0.87575 0.91669 0.40732 0.0
H2332 H 0.87043 0.10853 0.18844 0.0
H2333 H 0.81215 0.12958 0.1645 0.0
H2334 H 0.88292 0.10325 0.15344 0.0
H2335 H 0.82471 0.12434 0.12953 0.0
H2336 H 0.85866 0.12631 0.06866 0.0
H2337 H 0.85114 0.13658 0.10396 0.0
H2338 H 0.87326 0.07792 0.12572 0.0
H2339 H 0.88075 0.06757 0.09043 0.0
C2340 C 0.86039 0.11235 0.17572 0.0
C2341 C 0.84025 0.1194 0.17926 0.0
C2342 C 0.86753 0.1092 0.15569 0.0
C2343 C 0.85477 0.11328 0.13876 0.0
C2344 C 0.83496 0.12121 0.14227 0.0
C2345 C 0.82774 0.12414 0.16231 0.0
C2346 C 0.86224 0.11572 0.08099 0.0
C2347 C 0.87022 0.09607 0.07672 0.0
C2348 C 0.85781 0.12157 0.10119 0.0
C2349 C 0.86148 0.10801 0.11758 0.0
C2350 C 0.87039 0.08876 0.11342 0.0
C2351 C 0.87462 0.08281 0.09319 0.0
H2352 H 0.37701 0.56025 0.58882 0.0
H2353 H 0.3572 0.61885 0.56463 0.0
H2354 H 0.37132 0.57282 0.62372 0.0
H2355 H 0.35146 0.63134 0.59954 0.0
H2356 H 0.31339 0.62838 0.66128 0.0
H2357 H 0.32506 0.62144 0.62629 0.0
H2358 H 0.38295 0.59913 0.64988 0.0
H2359 H 0.37135 0.60613 0.68488 0.0
C2360 C 0.3718 0.57592 0.59095 0.0
C2361 C 0.36746 0.5885 0.57395 0.0
C2362 C 0.36861 0.58315 0.61095 0.0
C2363 C 0.36081 0.60302 0.61434 0.0
C2364 C 0.35729 0.61589 0.59737 0.0
C2365 C 0.36071 0.60875 0.57739 0.0
C2366 C 0.32874 0.62236 0.65899 0.0
C2367 C 0.34139 0.61771 0.67587 0.0
C2368 C 0.33546 0.61845 0.63894 0.0
C2369 C 0.35487 0.60962 0.63537 0.0
C2370 C 0.36784 0.60576 0.65219 0.0
C2371 C 0.36122 0.60989 0.67222 0.0
H2372 H 0.12799 0.61054 0.31093 0.0
H2373 H 0.18631 0.63043 0.33572 0.0
H2374 H 0.11493 0.60538 0.34573 0.0
H2375 H 0.17318 0.6253 0.3705 0.0
H2376 H 0.13906 0.62637 0.43118 0.0
H2377 H 0.14663 0.63741 0.39612 0.0
H2378 H 0.12411 0.57943 0.37302 0.0
H2379 H 0.11659 0.56831 0.40805 0.0
C2380 C 0.13791 0.61417 0.32379 0.0
C2381 C 0.15825 0.62079 0.32055 0.0
C2382 C 0.13044 0.61109 0.34371 0.0
C2383 C 0.14306 0.61481 0.36082 0.0
C2384 C 0.16304 0.62245 0.35762 0.0
C2385 C 0.17059 0.62531 0.33769 0.0
C2386 C 0.13536 0.61611 0.41861 0.0
C2387 C 0.12732 0.5964 0.42241 0.0
C2388 C 0.13983 0.62241 0.39854 0.0
C2389 C 0.1361 0.60925 0.38185 0.0
C2390 C 0.12703 0.58998 0.38556 0.0
C2391 C 0.12278 0.58358 0.40564 0.0
H2392 H 0.37774 0.43425 0.91377 0.0
H2393 H 0.35679 0.37617 0.93826 0.0
H2394 H 0.37121 0.42186 0.87897 0.0
H2395 H 0.35021 0.36385 0.90343 0.0
H2396 H 0.31148 0.36789 0.8421 0.0
H2397 H 0.32376 0.37438 0.87695 0.0
H2398 H 0.3819 0.39528 0.85269 0.0
H2399 H 0.3697 0.38874 0.81782 0.0
C2400 C 0.37208 0.41872 0.91172 0.0
C2401 C 0.3677 0.40624 0.92879 0.0
C2402 C 0.36842 0.41159 0.89177 0.0
C2403 C 0.36008 0.39192 0.88849 0.0
C2404 C 0.35646 0.37915 0.90551 0.0
C2405 C 0.36035 0.38618 0.92545 0.0
C2406 C 0.32702 0.37349 0.84421 0.0
C2407 C 0.33956 0.3779 0.82718 0.0
C2408 C 0.33408 0.37715 0.86418 0.0
C2409 C 0.35375 0.38548 0.86753 0.0
C2410 C 0.36661 0.38904 0.85055 0.0
C2411 C 0.35964 0.38516 0.83059 0.0
H2412 H 0.56424 0.6383 0.87411 0.0
H2413 H 0.58742 0.61765 0.9328 0.0
H2414 H 0.5994 0.64411 0.86227 0.0
H2415 H 0.62256 0.62338 0.92088 0.0
H2416 H 0.6615 0.68162 0.86668 0.0
H2417 H 0.62628 0.67017 0.8729 0.0
H2418 H 0.64901 0.61181 0.89481 0.0
H2419 H 0.68424 0.62316 0.88852 0.0
C2420 C 0.57683 0.63464 0.88436 0.0
C2421 C 0.57303 0.62761 0.90445 0.0
C2422 C 0.59696 0.63809 0.8776 0.0
C2423 C 0.61371 0.63431 0.89068 0.0
C2424 C 0.60996 0.62629 0.91039 0.0
C2425 C 0.58982 0.62308 0.91725 0.0
C2426 C 0.65898 0.6662 0.87246 0.0
C2427 C 0.67568 0.65335 0.8772 0.0
C2428 C 0.6388 0.65962 0.87595 0.0
C2429 C 0.63491 0.64014 0.88448 0.0
C2430 C 0.65156 0.62697 0.88842 0.0
C2431 C 0.67173 0.63345 0.88469 0.0
H2432 H 0.6293 0.33952 0.18484 0.0
H2433 H 0.60838 0.317 0.12597 0.0
H2434 H 0.62336 0.37477 0.17341 0.0
H2435 H 0.60238 0.35229 0.11463 0.0
H2436 H 0.56475 0.41416 0.11987 0.0
H2437 H 0.57629 0.37893 0.12575 0.0
H2438 H 0.6347 0.40158 0.14763 0.0
H2439 H 0.62325 0.43683 0.14169 0.0
C2440 C 0.62377 0.3421 0.16935 0.0
C2441 C 0.61922 0.32545 0.15636 0.0
C2442 C 0.62044 0.3623 0.16278 0.0
C2443 C 0.61229 0.36627 0.14316 0.0
C2444 C 0.6085 0.34967 0.12989 0.0
C2445 C 0.61206 0.32948 0.13636 0.0
C2446 C 0.58019 0.41163 0.12559 0.0
C2447 C 0.59304 0.42831 0.13041 0.0
C2448 C 0.58682 0.39144 0.12888 0.0
C2449 C 0.60636 0.38752 0.13727 0.0
C2450 C 0.6195 0.40416 0.14133 0.0
C2451 C 0.61297 0.42433 0.13781 0.0
H2452 H 0.83626 0.31724 0.36856 0.0
H2453 H 0.81413 0.3764 0.38912 0.0
H2454 H 0.87157 0.3283 0.37491 0.0
H2455 H 0.84946 0.38738 0.39552 0.0
H2456 H 0.91086 0.38157 0.43383 0.0
H2457 H 0.87569 0.37606 0.42193 0.0
H2458 H 0.89876 0.35376 0.36385 0.0
H2459 H 0.93394 0.35932 0.37566 0.0
C2460 C 0.83894 0.33271 0.3741 0.0
C2461 C 0.82238 0.3459 0.37842 0.0
C2462 C 0.85917 0.33908 0.37767 0.0
C2463 C 0.86325 0.35867 0.38584 0.0
C2464 C 0.84675 0.37213 0.38941 0.0
C2465 C 0.82653 0.36586 0.38561 0.0
C2466 C 0.90843 0.37584 0.41839 0.0
C2467 C 0.92521 0.37079 0.40575 0.0
C2468 C 0.88828 0.37276 0.41154 0.0
C2469 C 0.88449 0.36435 0.392 0.0
C2470 C 0.90123 0.36007 0.37905 0.0
C2471 C 0.92137 0.36338 0.3858 0.0
H2472 H 0.86828 0.66217 0.68344 0.0
H2473 H 0.8889 0.68551 0.62478 0.0
H2474 H 0.87382 0.62708 0.67138 0.0
H2475 H 0.89448 0.65038 0.61278 0.0
H2476 H 0.93229 0.58853 0.61724 0.0
H2477 H 0.92058 0.62365 0.6233 0.0
H2478 H 0.86241 0.60057 0.64543 0.0
H2479 H 0.87406 0.5654 0.63933 0.0
C2480 C 0.87364 0.65981 0.66785 0.0
C2481 C 0.87826 0.67663 0.65512 0.0
C2482 C 0.87673 0.6397 0.66091 0.0
C2483 C 0.88471 0.636 0.64117 0.0
C2484 C 0.8885 0.65279 0.62813 0.0
C2485 C 0.88519 0.67289 0.63498 0.0
C2486 C 0.91686 0.59095 0.62304 0.0
C2487 C 0.90416 0.57417 0.62792 0.0
C2488 C 0.91012 0.61108 0.62643 0.0
C2489 C 0.89062 0.61484 0.63496 0.0
C2490 C 0.87758 0.59811 0.63902 0.0
C2491 C 0.88423 0.57798 0.63541 0.0
H2492 H 0.56267 0.35859 0.62515 0.0
H2493 H 0.58427 0.38075 0.56638 0.0
H2494 H 0.59818 0.3533 0.63617 0.0
H2495 H 0.61974 0.37553 0.57749 0.0
H2496 H 0.68206 0.37635 0.60876 0.0
H2497 H 0.64651 0.38712 0.60328 0.0
H2498 H 0.62529 0.32791 0.62441 0.0
H2499 H 0.66082 0.31705 0.62982 0.0
C2500 C 0.57499 0.3627 0.61472 0.0
C2501 C 0.57065 0.37 0.59484 0.0
C2502 C 0.59531 0.35954 0.62101 0.0
C2503 C 0.61172 0.36388 0.60766 0.0
C2504 C 0.60742 0.37219 0.58818 0.0
C2505 C 0.58709 0.37511 0.58179 0.0
C2506 C 0.66981 0.36574 0.61258 0.0
C2507 C 0.67427 0.34579 0.61963 0.0
C2508 C 0.64947 0.37189 0.60932 0.0
C2509 C 0.63314 0.35833 0.6133 0.0
C2510 C 0.63755 0.33876 0.62135 0.0
C2511 C 0.6579 0.33251 0.62437 0.0
H2512 H 0.9079 0.31588 0.85752 0.0
H2513 H 0.85525 0.33598 0.82276 0.0
H2514 H 0.91464 0.35087 0.8681 0.0
H2515 H 0.86034 0.37096 0.83505 0.0
H2516 H 0.88858 0.43458 0.83793 0.0
H2517 H 0.8783 0.39957 0.83087 0.0
H2518 H 0.91006 0.37951 0.88592 0.0
H2519 H 0.9221 0.41453 0.89137 0.0
C2520 C 0.89735 0.32785 0.8527 0.0
C2521 C 0.88112 0.32333 0.83929 0.0
C2522 C 0.90108 0.34806 0.85892 0.0
C2523 C 0.88819 0.36427 0.85246 0.0
C2524 C 0.87116 0.35931 0.83991 0.0
C2525 C 0.86797 0.33917 0.83302 0.0
C2526 C 0.8932 0.42261 0.84855 0.0
C2527 C 0.90618 0.42715 0.86512 0.0
C2528 C 0.88714 0.40239 0.84464 0.0
C2529 C 0.8933 0.38619 0.85768 0.0
C2530 C 0.90545 0.39115 0.875 0.0
C2531 C 0.91219 0.41131 0.87838 0.0
H2532 H 0.83529 0.68429 0.13112 0.0
H2533 H 0.81196 0.62564 0.11042 0.0
H2534 H 0.87041 0.67209 0.12586 0.0
H2535 H 0.84709 0.61353 0.10513 0.0
H2536 H 0.90943 0.61716 0.0682 0.0
H2537 H 0.87419 0.62382 0.07929 0.0
H2538 H 0.89663 0.64597 0.13766 0.0
H2539 H 0.93189 0.63926 0.12665 0.0
C2540 C 0.83766 0.66869 0.1258 0.0
C2541 C 0.82083 0.65599 0.12108 0.0
C2542 C 0.85778 0.66167 0.12286 0.0
C2543 C 0.86148 0.6419 0.11494 0.0
C2544 C 0.84468 0.62891 0.11104 0.0
C2545 C 0.82458 0.63583 0.1142 0.0
C2546 C 0.90683 0.6231 0.08353 0.0
C2547 C 0.92347 0.62777 0.09649 0.0
C2548 C 0.88664 0.62685 0.08992 0.0
C2549 C 0.88267 0.63554 0.10931 0.0
C2550 C 0.89925 0.63945 0.12257 0.0
C2551 C 0.91942 0.63548 0.11628 0.0
H2552 H 0.605 0.68246 0.37275 0.0
H2553 H 0.62674 0.6586 0.3147 0.0
H2554 H 0.59869 0.64746 0.38477 0.0
H2555 H 0.62049 0.62362 0.32681 0.0
H2556 H 0.62008 0.56236 0.36014 0.0
H2557 H 0.63153 0.59747 0.35346 0.0
H2558 H 0.57274 0.62054 0.3739 0.0
H2559 H 0.5612 0.58543 0.38051 0.0
C2560 C 0.60878 0.66975 0.36268 0.0
C2561 C 0.61629 0.67331 0.34272 0.0
C2562 C 0.60504 0.64972 0.36954 0.0
C2563 C 0.60899 0.63282 0.3567 0.0
C2564 C 0.61744 0.63634 0.33712 0.0
C2565 C 0.62095 0.65638 0.33015 0.0
C2566 C 0.6097 0.57493 0.36355 0.0
C2567 C 0.58967 0.5711 0.37077 0.0
C2568 C 0.61624 0.59502 0.3596 0.0
C2569 C 0.603 0.61172 0.36303 0.0
C2570 C 0.58335 0.60797 0.37124 0.0
C2571 C 0.57671 0.58786 0.37496 0.0
H2572 H 0.6225 0.93528 0.58987 0.0
H2573 H 0.643 0.87649 0.56673 0.0
H2574 H 0.62774 0.92321 0.62501 0.0
H2575 H 0.64833 0.86451 0.60191 0.0
H2576 H 0.68521 0.86884 0.66446 0.0
H2577 H 0.67423 0.87512 0.62913 0.0
H2578 H 0.61553 0.89695 0.65114 0.0
H2579 H 0.62641 0.89059 0.68648 0.0
C2580 C 0.6278 0.91968 0.59229 0.0
C2581 C 0.63242 0.90688 0.57551 0.0
C2582 C 0.63072 0.91274 0.61241 0.0
C2583 C 0.63855 0.89295 0.61618 0.0
C2584 C 0.64245 0.87989 0.59944 0.0
C2585 C 0.63927 0.88673 0.57931 0.0
C2586 C 0.66982 0.87461 0.66175 0.0
C2587 C 0.65673 0.87931 0.67828 0.0
C2588 C 0.66351 0.87814 0.64151 0.0
C2589 C 0.64407 0.88666 0.6374 0.0
C2590 C 0.63066 0.89055 0.65388 0.0
C2591 C 0.63687 0.88679 0.6741 0.0
loop_
_geom_bond_atom_site_label_1
_geom_bond_atom_site_label_2
_geom_bond_distance
_geom_bond_site_symmetry_2
_ccdc_geom_bond_type
O0 Cd1 2.223 . S
O0 C8 1.315 . S
Cd1 O0 2.223 . S
Cd1 O4 2.297 . S
Cd1 O5 2.439 . S
Cd1 O11 2.240 . S
Cd2 O3 2.240 . S
Cd2 O10 2.223 . S
Cd2 O12 2.297 . S
Cd2 O13 2.439 . S
O3 Cd2 2.240 . S
O3 C8 1.279 . S
O4 Cd1 2.297 . S
O4 C6 1.247 . S
O5 Cd1 2.439 . S
O5 C6 1.208 . S
C6 O4 1.247 . S
C6 O5 1.208 . S
C7 O12 1.247 . S
C7 O13 1.208 . S
C8 O0 1.315 . S
C8 O3 1.279 . S
C9 O10 1.315 . S
C9 O11 1.279 . S
O10 Cd2 2.223 . S
O10 C9 1.315 . S
O11 Cd1 2.240 . S
O11 C9 1.279 . S
O12 Cd2 2.297 . S
O12 C7 1.247 . S
O13 Cd2 2.439 . S
O13 C7 1.208 . S
O14 Cd15 2.223 . S
O14 C22 1.315 . S
Cd15 O14 2.223 . S
Cd15 O18 2.297 . S
Cd15 O19 2.439 . S
Cd15 O25 2.240 . S
Cd16 O17 2.240 . S
Cd16 O24 2.223 1_565 S
Cd16 O26 2.297 . S
Cd16 O27 2.439 . S
O17 Cd16 2.240 . S
O17 C22 1.279 1_655 S
O18 Cd15 2.297 . S
O18 C20 1.247 . S
O19 Cd15 2.439 . S
O19 C20 1.208 . S
C20 O18 1.247 . S
C20 O19 1.208 . S
C21 O26 1.247 . S
C21 O27 1.208 . S
C22 O14 1.315 . S
C22 O17 1.279 1_455 S
C23 O24 1.320 1_455 S
C23 O25 1.264 1_545 S
O24 Cd16 2.223 1_545 S
O24 C23 1.320 1_655 S
O25 Cd15 2.240 . S
O25 C23 1.264 1_565 S
O26 Cd16 2.297 . S
O26 C21 1.247 . S
O27 Cd16 2.439 . S
O27 C21 1.208 . S
O28 Cd29 2.223 . S
O28 C36 1.315 . S
Cd29 O28 2.223 . S
Cd29 O32 2.297 . S
Cd29 O33 2.439 . S
Cd29 O39 2.240 . S
Cd30 O31 2.240 . S
Cd30 O38 2.223 . S
Cd30 O40 2.297 . S
Cd30 O41 2.439 . S
O31 Cd30 2.240 . S
O31 C36 1.279 . S
O32 Cd29 2.297 . S
O32 C34 1.247 . S
O33 Cd29 2.439 . S
O33 C34 1.208 . S
C34 O32 1.247 . S
C34 O33 1.208 . S
C35 O40 1.247 . S
C35 O41 1.208 . S
C36 O28 1.315 . S
C36 O31 1.279 . S
C37 O38 1.315 . S
C37 O39 1.279 . S
O38 Cd30 2.223 . S
O38 C37 1.315 . S
O39 Cd29 2.240 . S
O39 C37 1.279 . S
O40 Cd30 2.297 . S
O40 C35 1.247 . S
O41 Cd30 2.439 . S
O41 C35 1.208 . S
O42 Cd43 2.223 . S
O42 C50 1.315 . S
Cd43 O42 2.223 . S
Cd43 O46 2.297 . S
Cd43 O47 2.439 . S
Cd43 O53 2.240 . S
Cd44 O45 2.240 . S
Cd44 O52 2.223 1_545 S
Cd44 O54 2.297 . S
Cd44 O55 2.439 . S
O45 Cd44 2.240 . S
O45 C50 1.279 . S
O46 Cd43 2.297 . S
O46 C48 1.247 . S
O47 Cd43 2.439 . S
O47 C48 1.208 . S
C48 O46 1.247 . S
C48 O47 1.208 . S
C49 O54 1.247 . S
C49 O55 1.208 . S
C50 O42 1.315 . S
C50 O45 1.279 . S
C51 O52 1.331 . S
C51 O53 1.233 1_565 S
O52 Cd44 2.223 1_565 S
O52 C51 1.331 . S
O53 Cd43 2.240 . S
O53 C51 1.233 1_545 S
O54 Cd44 2.297 . S
O54 C49 1.247 . S
O55 Cd44 2.439 . S
O55 C49 1.208 . S
O56 Cd57 2.223 . S
O56 C64 1.315 . S
Cd57 O56 2.223 . S
Cd57 O60 2.297 . S
Cd57 O61 2.439 . S
Cd57 O67 2.240 . S
Cd58 O59 2.240 . S
Cd58 O66 2.223 . S
Cd58 O68 2.297 . S
Cd58 O69 2.439 . S
O59 Cd58 2.240 . S
O59 C64 1.279 . S
O60 Cd57 2.297 . S
O60 C62 1.247 . S
O61 Cd57 2.439 . S
O61 C62 1.208 . S
C62 O60 1.247 . S
C62 O61 1.208 . S
C63 O68 1.247 . S
C63 O69 1.208 . S
C64 O56 1.315 . S
C64 O59 1.279 . S
C65 O66 1.315 . S
C65 O67 1.279 . S
O66 Cd58 2.223 . S
O66 C65 1.315 . S
O67 Cd57 2.240 . S
O67 C65 1.279 . S
O68 Cd58 2.297 . S
O68 C63 1.247 . S
O69 Cd58 2.439 . S
O69 C63 1.208 . S
O70 Cd71 2.223 . S
O70 C78 1.315 . S
Cd71 O70 2.223 . S
Cd71 O74 2.297 . S
Cd71 O75 2.439 . S
Cd71 O81 2.240 . S
Cd72 O73 2.240 . S
Cd72 O80 2.223 1_565 S
Cd72 O82 2.297 . S
Cd72 O83 2.439 . S
O73 Cd72 2.240 . S
O73 C78 1.279 . S
O74 Cd71 2.297 . S
O74 C76 1.247 . S
O75 Cd71 2.439 . S
O75 C76 1.208 . S
C76 O74 1.247 . S
C76 O75 1.208 . S
C77 O82 1.247 . S
C77 O83 1.208 . S
C78 O70 1.315 . S
C78 O73 1.279 . S
C79 O80 1.319 . S
C79 O81 1.268 1_545 S
O80 Cd72 2.223 1_545 S
O80 C79 1.319 . S
O81 Cd71 2.240 . S
O81 C79 1.268 1_565 S
O82 Cd72 2.297 . S
O82 C77 1.247 . S
O83 Cd72 2.439 . S
O83 C77 1.208 . S
O84 Cd85 2.223 . S
O84 C92 1.315 . S
Cd85 O84 2.223 . S
Cd85 O88 2.297 . S
Cd85 O89 2.439 . S
Cd85 O95 2.240 . S
Cd86 O87 2.240 . S
Cd86 O94 2.223 . S
Cd86 O96 2.297 . S
Cd86 O97 2.439 . S
O87 Cd86 2.240 . S
O87 C92 1.279 . S
O88 Cd85 2.297 . S
O88 C90 1.247 . S
O89 Cd85 2.439 . S
O89 C90 1.208 . S
C90 O88 1.247 . S
C90 O89 1.208 . S
C91 O96 1.247 . S
C91 O97 1.208 . S
C92 O84 1.315 . S
C92 O87 1.279 . S
C93 O94 1.315 . S
C93 O95 1.279 . S
O94 Cd86 2.223 . S
O94 C93 1.315 . S
O95 Cd85 2.240 . S
O95 C93 1.279 . S
O96 Cd86 2.297 . S
O96 C91 1.247 . S
O97 Cd86 2.439 . S
O97 C91 1.208 . S
O98 Cd99 2.223 . S
O98 C106 1.315 . S
Cd99 O98 2.223 . S
Cd99 O102 2.297 . S
Cd99 O103 2.439 . S
Cd99 O109 2.240 . S
Cd100 O101 2.240 . S
Cd100 O108 2.223 1_545 S
Cd100 O110 2.297 . S
Cd100 O111 2.439 . S
O101 Cd100 2.240 . S
O101 C106 1.279 1_655 S
O102 Cd99 2.297 . S
O102 C104 1.247 . S
O103 Cd99 2.439 . S
O103 C104 1.208 . S
C104 O102 1.247 . S
C104 O103 1.208 . S
C105 O110 1.247 . S
C105 O111 1.208 . S
C106 O98 1.315 . S
C106 O101 1.279 1_455 S
C107 O108 1.331 1_455 S
C107 O109 1.233 1_565 S
O108 Cd100 2.223 1_565 S
O108 C107 1.331 1_655 S
O109 Cd99 2.240 . S
O109 C107 1.233 1_545 S
O110 Cd100 2.297 . S
O110 C105 1.247 . S
O111 Cd100 2.439 . S
O111 C105 1.208 . S
O112 Cd113 2.223 . S
O112 C120 1.315 . S
Cd113 O112 2.223 . S
Cd113 O116 2.297 . S
Cd113 O117 2.439 . S
Cd113 O123 2.240 . S
Cd114 O115 2.240 . S
Cd114 O122 2.223 . S
Cd114 O124 2.297 . S
Cd114 O125 2.439 . S
O115 Cd114 2.240 . S
O115 C120 1.279 . S
O116 Cd113 2.297 . S
O116 C118 1.247 . S
O117 Cd113 2.439 . S
O117 C118 1.208 . S
C118 O116 1.247 . S
C118 O117 1.208 . S
C119 O124 1.247 . S
C119 O125 1.208 . S
C120 O112 1.315 . S
C120 O115 1.279 . S
C121 O122 1.315 . S
C121 O123 1.279 . S
O122 Cd114 2.223 . S
O122 C121 1.315 . S
O123 Cd113 2.240 . S
O123 C121 1.279 . S
O124 Cd114 2.297 . S
O124 C119 1.247 . S
O125 Cd114 2.439 . S
O125 C119 1.208 . S
O126 Cd127 2.223 . S
O126 C134 1.315 . S
Cd127 O126 2.223 . S
Cd127 O130 2.297 . S
Cd127 O131 2.439 . S
Cd127 O137 2.240 . S
Cd128 O129 2.240 . S
Cd128 O136 2.223 1_455 S
Cd128 O138 2.297 . S
Cd128 O139 2.439 . S
O129 Cd128 2.240 . S
O129 C134 1.279 . S
O130 Cd127 2.297 . S
O130 C132 1.247 . S
O131 Cd127 2.439 . S
O131 C132 1.208 . S
C132 O130 1.247 . S
C132 O131 1.208 . S
C133 O138 1.247 . S
C133 O139 1.208 . S
C134 O126 1.315 . S
C134 O129 1.279 . S
C135 O136 1.331 . S
C135 O137 1.233 1_655 S
O136 Cd128 2.223 1_655 S
O136 C135 1.331 . S
O137 Cd127 2.240 . S
O137 C135 1.233 1_455 S
O138 Cd128 2.297 . S
O138 C133 1.247 . S
O139 Cd128 2.439 . S
O139 C133 1.208 . S
O140 Cd141 2.223 . S
O140 C148 1.315 . S
Cd141 O140 2.223 . S
Cd141 O144 2.297 . S
Cd141 O145 2.439 . S
Cd141 O151 2.240 . S
Cd142 O143 2.240 . S
Cd142 O150 2.223 . S
Cd142 O152 2.297 . S
Cd142 O153 2.439 . S
O143 Cd142 2.240 . S
O143 C148 1.279 . S
O144 Cd141 2.297 . S
O144 C146 1.247 . S
O145 Cd141 2.439 . S
O145 C146 1.208 . S
C146 O144 1.247 . S
C146 O145 1.208 . S
C147 O152 1.247 . S
C147 O153 1.208 . S
C148 O140 1.315 . S
C148 O143 1.279 . S
C149 O150 1.315 . S
C149 O151 1.279 . S
O150 Cd142 2.223 . S
O150 C149 1.315 . S
O151 Cd141 2.240 . S
O151 C149 1.279 . S
O152 Cd142 2.297 . S
O152 C147 1.247 . S
O153 Cd142 2.439 . S
O153 C147 1.208 . S
O154 Cd155 2.223 . S
O154 C162 1.315 . S
Cd155 O154 2.223 . S
Cd155 O158 2.297 . S
Cd155 O159 2.439 . S
Cd155 O165 2.240 . S
Cd156 O157 2.240 . S
Cd156 O164 2.223 . S
Cd156 O166 2.297 . S
Cd156 O167 2.439 . S
O157 Cd156 2.240 . S
O157 C162 1.279 1_554 S
O158 Cd155 2.297 . S
O158 C160 1.247 . S
O159 Cd155 2.439 . S
O159 C160 1.208 . S
C160 O158 1.247 . S
C160 O159 1.208 . S
C161 O166 1.247 . S
C161 O167 1.208 . S
C162 O154 1.315 . S
C162 O157 1.279 1_556 S
C163 O164 1.315 1_556 S
C163 O165 1.279 . S
O164 Cd156 2.223 . S
O164 C163 1.315 1_554 S
O165 Cd155 2.240 . S
O165 C163 1.279 . S
O166 Cd156 2.297 . S
O166 C161 1.247 . S
O167 Cd156 2.439 . S
O167 C161 1.208 . S
O168 Cd169 2.223 . S
O168 C176 1.315 . S
Cd169 O168 2.223 . S
Cd169 O172 2.297 . S
Cd169 O173 2.439 . S
Cd169 O179 2.240 . S
Cd170 O171 2.240 . S
Cd170 O178 2.223 . S
Cd170 O180 2.297 . S
Cd170 O181 2.439 . S
O171 Cd170 2.240 . S
O171 C176 1.279 . S
O172 Cd169 2.297 . S
O172 C174 1.247 . S
O173 Cd169 2.439 . S
O173 C174 1.208 . S
C174 O172 1.247 . S
C174 O173 1.208 . S
C175 O180 1.247 . S
C175 O181 1.208 . S
C176 O168 1.315 . S
C176 O171 1.279 . S
C177 O178 1.315 . S
C177 O179 1.279 . S
O178 Cd170 2.223 . S
O178 C177 1.315 . S
O179 Cd169 2.240 . S
O179 C177 1.279 . S
O180 Cd170 2.297 . S
O180 C175 1.247 . S
O181 Cd170 2.439 . S
O181 C175 1.208 . S
O182 Cd183 2.223 . S
O182 C190 1.315 . S
Cd183 O182 2.223 . S
Cd183 O186 2.297 . S
Cd183 O187 2.439 . S
Cd183 O193 2.240 . S
Cd184 O185 2.240 . S
Cd184 O192 2.223 . S
Cd184 O194 2.297 . S
Cd184 O195 2.439 . S
O185 Cd184 2.240 . S
O185 C190 1.279 . S
O186 Cd183 2.297 . S
O186 C188 1.247 . S
O187 Cd183 2.439 . S
O187 C188 1.208 . S
C188 O186 1.247 . S
C188 O187 1.208 . S
C189 O194 1.247 . S
C189 O195 1.208 . S
C190 O182 1.315 . S
C190 O185 1.279 . S
C191 O192 1.315 . S
C191 O193 1.279 . S
O192 Cd184 2.223 . S
O192 C191 1.315 . S
O193 Cd183 2.240 . S
O193 C191 1.279 . S
O194 Cd184 2.297 . S
O194 C189 1.247 . S
O195 Cd184 2.439 . S
O195 C189 1.208 . S
O196 Cd197 2.223 . S
O196 C204 1.315 . S
Cd197 O196 2.223 . S
Cd197 O200 2.297 . S
Cd197 O201 2.439 . S
Cd197 O207 2.240 . S
Cd198 O199 2.240 . S
Cd198 O206 2.223 . S
Cd198 O208 2.297 . S
Cd198 O209 2.439 . S
O199 Cd198 2.240 . S
O199 C204 1.279 . S
O200 Cd197 2.297 . S
O200 C202 1.247 . S
O201 Cd197 2.439 . S
O201 C202 1.208 . S
C202 O200 1.247 . S
C202 O201 1.208 . S
C203 O208 1.247 . S
C203 O209 1.208 . S
C204 O196 1.315 . S
C204 O199 1.279 . S
C205 O206 1.315 . S
C205 O207 1.279 . S
O206 Cd198 2.223 . S
O206 C205 1.315 . S
O207 Cd197 2.240 . S
O207 C205 1.279 . S
O208 Cd198 2.297 . S
O208 C203 1.247 . S
O209 Cd198 2.439 . S
O209 C203 1.208 . S
O210 Cd211 2.223 . S
O210 C218 1.315 . S
Cd211 O210 2.223 . S
Cd211 O214 2.297 . S
Cd211 O215 2.439 . S
Cd211 O221 2.240 . S
Cd212 O213 2.240 . S
Cd212 O220 2.223 1_455 S
Cd212 O222 2.297 . S
Cd212 O223 2.439 . S
O213 Cd212 2.240 . S
O213 C218 1.279 1_556 S
O214 Cd211 2.297 . S
O214 C216 1.247 . S
O215 Cd211 2.439 . S
O215 C216 1.208 . S
C216 O214 1.247 . S
C216 O215 1.208 . S
C217 O222 1.247 . S
C217 O223 1.208 . S
C218 O210 1.315 . S
C218 O213 1.279 1_554 S
C219 O220 1.331 1_554 S
C219 O221 1.233 1_655 S
O220 Cd212 2.223 1_655 S
O220 C219 1.331 1_556 S
O221 Cd211 2.240 . S
O221 C219 1.233 1_455 S
O222 Cd212 2.297 . S
O222 C217 1.247 . S
O223 Cd212 2.439 . S
O223 C217 1.208 . S
O224 Cd225 2.223 . S
O224 C232 1.315 . S
Cd225 O224 2.223 . S
Cd225 O228 2.297 . S
Cd225 O229 2.439 . S
Cd225 O235 2.240 . S
Cd226 O227 2.240 . S
Cd226 O234 2.223 . S
Cd226 O236 2.297 . S
Cd226 O237 2.439 . S
O227 Cd226 2.240 . S
O227 C232 1.279 . S
O228 Cd225 2.297 . S
O228 C230 1.247 . S
O229 Cd225 2.439 . S
O229 C230 1.208 . S
C230 O228 1.247 . S
C230 O229 1.208 . S
C231 O236 1.247 . S
C231 O237 1.208 . S
C232 O224 1.315 . S
C232 O227 1.279 . S
C233 O234 1.315 . S
C233 O235 1.279 . S
O234 Cd226 2.223 . S
O234 C233 1.315 . S
O235 Cd225 2.240 . S
O235 C233 1.279 . S
O236 Cd226 2.297 . S
O236 C231 1.247 . S
O237 Cd226 2.439 . S
O237 C231 1.208 . S
O238 Cd239 2.223 . S
O238 C246 1.315 . S
Cd239 O238 2.223 . S
Cd239 O242 2.297 . S
Cd239 O243 2.439 . S
Cd239 O249 2.240 . S
Cd240 O241 2.240 . S
Cd240 O248 2.223 . S
Cd240 O250 2.297 . S
Cd240 O251 2.439 . S
O241 Cd240 2.240 . S
O241 C246 1.279 . S
O242 Cd239 2.297 . S
O242 C244 1.247 . S
O243 Cd239 2.439 . S
O243 C244 1.208 . S
C244 O242 1.247 . S
C244 O243 1.208 . S
C245 O250 1.247 . S
C245 O251 1.208 . S
C246 O238 1.315 . S
C246 O241 1.279 . S
C247 O248 1.315 . S
C247 O249 1.279 . S
O248 Cd240 2.223 . S
O248 C247 1.315 . S
O249 Cd239 2.240 . S
O249 C247 1.279 . S
O250 Cd240 2.297 . S
O250 C245 1.247 . S
O251 Cd240 2.439 . S
O251 C245 1.208 . S
O252 Cd253 2.223 . S
O252 C260 1.315 . S
Cd253 O252 2.223 . S
Cd253 O256 2.297 . S
Cd253 O257 2.439 . S
Cd253 O263 2.240 . S
Cd254 O255 2.240 . S
Cd254 O262 2.223 1_554 S
Cd254 O264 2.297 . S
Cd254 O265 2.439 . S
O255 Cd254 2.240 . S
O255 C260 1.279 . S
O256 Cd253 2.297 . S
O256 C258 1.247 . S
O257 Cd253 2.439 . S
O257 C258 1.208 . S
C258 O256 1.247 . S
C258 O257 1.208 . S
C259 O264 1.247 . S
C259 O265 1.208 . S
C260 O252 1.315 . S
C260 O255 1.279 . S
C261 O262 1.331 . S
C261 O263 1.233 1_556 S
O262 Cd254 2.223 1_556 S
O262 C261 1.331 . S
O263 Cd253 2.240 . S
O263 C261 1.233 1_554 S
O264 Cd254 2.297 . S
O264 C259 1.247 . S
O265 Cd254 2.439 . S
O265 C259 1.208 . S
O266 Cd267 2.223 . S
O266 C274 1.315 . S
Cd267 O266 2.223 . S
Cd267 O270 2.297 . S
Cd267 O271 2.439 . S
Cd267 O277 2.240 . S
Cd268 O269 2.240 . S
Cd268 O276 2.223 . S
Cd268 O278 2.297 . S
Cd268 O279 2.439 . S
O269 Cd268 2.240 . S
O269 C274 1.279 . S
O270 Cd267 2.297 . S
O270 C272 1.247 . S
O271 Cd267 2.439 . S
O271 C272 1.208 . S
C272 O270 1.247 . S
C272 O271 1.208 . S
C273 O278 1.247 . S
C273 O279 1.208 . S
C274 O266 1.315 . S
C274 O269 1.279 . S
C275 O276 1.315 . S
C275 O277 1.279 . S
O276 Cd268 2.223 . S
O276 C275 1.315 . S
O277 Cd267 2.240 . S
O277 C275 1.279 . S
O278 Cd268 2.297 . S
O278 C273 1.247 . S
O279 Cd268 2.439 . S
O279 C273 1.208 . S
O280 Cd281 2.223 . S
O280 C288 1.315 . S
Cd281 O280 2.223 . S
Cd281 O284 2.297 . S
Cd281 O285 2.439 . S
Cd281 O291 2.240 . S
Cd282 O283 2.240 . S
Cd282 O290 2.223 1_554 S
Cd282 O292 2.297 . S
Cd282 O293 2.439 . S
O283 Cd282 2.240 . S
O283 C288 1.279 1_565 S
O284 Cd281 2.297 . S
O284 C286 1.247 . S
O285 Cd281 2.439 . S
O285 C286 1.208 . S
C286 O284 1.247 . S
C286 O285 1.208 . S
C287 O292 1.247 . S
C287 O293 1.208 . S
C288 O280 1.315 . S
C288 O283 1.279 1_545 S
C289 O290 1.331 1_545 S
C289 O291 1.233 1_556 S
O290 Cd282 2.223 1_556 S
O290 C289 1.331 1_565 S
O291 Cd281 2.240 . S
O291 C289 1.233 1_554 S
O292 Cd282 2.297 . S
O292 C287 1.247 . S
O293 Cd282 2.439 . S
O293 C287 1.208 . S
O294 Cd295 2.223 . S
O294 C302 1.315 . S
Cd295 O294 2.223 . S
Cd295 O298 2.297 . S
Cd295 O299 2.439 . S
Cd295 O305 2.240 . S
Cd296 O297 2.240 . S
Cd296 O304 2.223 . S
Cd296 O306 2.297 . S
Cd296 O307 2.439 . S
O297 Cd296 2.240 . S
O297 C302 1.279 . S
O298 Cd295 2.297 . S
O298 C300 1.247 . S
O299 Cd295 2.439 . S
O299 C300 1.208 . S
C300 O298 1.247 . S
C300 O299 1.208 . S
C301 O306 1.247 . S
C301 O307 1.208 . S
C302 O294 1.315 . S
C302 O297 1.279 . S
C303 O304 1.315 . S
C303 O305 1.279 . S
O304 Cd296 2.223 . S
O304 C303 1.315 . S
O305 Cd295 2.240 . S
O305 C303 1.279 . S
O306 Cd296 2.297 . S
O306 C301 1.247 . S
O307 Cd296 2.439 . S
O307 C301 1.208 . S
O308 Cd309 2.223 . S
O308 C316 1.315 . S
Cd309 O308 2.223 . S
Cd309 O312 2.297 . S
Cd309 O313 2.439 . S
Cd309 O319 2.240 . S
Cd310 O311 2.240 . S
Cd310 O318 2.223 . S
Cd310 O320 2.297 . S
Cd310 O321 2.439 . S
O311 Cd310 2.240 . S
O311 C316 1.279 . S
O312 Cd309 2.297 . S
O312 C314 1.247 . S
O313 Cd309 2.439 . S
O313 C314 1.208 . S
C314 O312 1.247 . S
C314 O313 1.208 . S
C315 O320 1.247 . S
C315 O321 1.208 . S
C316 O308 1.315 . S
C316 O311 1.279 . S
C317 O318 1.315 . S
C317 O319 1.279 . S
O318 Cd310 2.223 . S
O318 C317 1.315 . S
O319 Cd309 2.240 . S
O319 C317 1.279 . S
O320 Cd310 2.297 . S
O320 C315 1.247 . S
O321 Cd310 2.439 . S
O321 C315 1.208 . S
O322 Cd323 2.223 . S
O322 C330 1.315 . S
Cd323 O322 2.223 . S
Cd323 O326 2.297 . S
Cd323 O327 2.439 . S
Cd323 O333 2.240 . S
Cd324 O325 2.240 . S
Cd324 O332 2.223 1_556 S
Cd324 O334 2.297 . S
Cd324 O335 2.439 . S
O325 Cd324 2.240 . S
O325 C330 1.279 . S
O326 Cd323 2.297 . S
O326 C328 1.247 . S
O327 Cd323 2.439 . S
O327 C328 1.208 . S
C328 O326 1.247 . S
C328 O327 1.208 . S
C329 O334 1.247 . S
C329 O335 1.208 . S
C330 O322 1.315 . S
C330 O325 1.279 . S
C331 O332 1.319 . S
C331 O333 1.268 1_554 S
O332 Cd324 2.223 1_554 S
O332 C331 1.319 . S
O333 Cd323 2.240 . S
O333 C331 1.268 1_556 S
O334 Cd324 2.297 . S
O334 C329 1.247 . S
O335 Cd324 2.439 . S
O335 C329 1.208 . S
O336 Cd337 2.223 . S
O336 C344 1.315 . S
Cd337 O336 2.223 . S
Cd337 O340 2.297 . S
Cd337 O341 2.439 . S
Cd337 O347 2.240 . S
Cd338 O339 2.240 . S
Cd338 O346 2.223 . S
Cd338 O348 2.297 . S
Cd338 O349 2.439 . S
O339 Cd338 2.240 . S
O339 C344 1.279 . S
O340 Cd337 2.297 . S
O340 C342 1.247 . S
O341 Cd337 2.439 . S
O341 C342 1.208 . S
C342 O340 1.247 . S
C342 O341 1.208 . S
C343 O348 1.247 . S
C343 O349 1.208 . S
C344 O336 1.315 . S
C344 O339 1.279 . S
C345 O346 1.315 . S
C345 O347 1.279 . S
O346 Cd338 2.223 . S
O346 C345 1.315 . S
O347 Cd337 2.240 . S
O347 C345 1.279 . S
O348 Cd338 2.297 . S
O348 C343 1.247 . S
O349 Cd338 2.439 . S
O349 C343 1.208 . S
O350 Cd351 2.223 . S
O350 C358 1.315 . S
Cd351 O350 2.223 . S
Cd351 O354 2.297 . S
Cd351 O355 2.439 . S
Cd351 O361 2.240 . S
Cd352 O353 2.240 . S
Cd352 O360 2.223 . S
Cd352 O362 2.297 . S
Cd352 O363 2.439 . S
O353 Cd352 2.240 . S
O353 C358 1.279 . S
O354 Cd351 2.297 . S
O354 C356 1.247 . S
O355 Cd351 2.439 . S
O355 C356 1.208 . S
C356 O354 1.247 . S
C356 O355 1.208 . S
C357 O362 1.247 . S
C357 O363 1.208 . S
C358 O350 1.315 . S
C358 O353 1.279 . S
C359 O360 1.315 . S
C359 O361 1.279 . S
O360 Cd352 2.223 . S
O360 C359 1.315 . S
O361 Cd351 2.240 . S
O361 C359 1.279 . S
O362 Cd352 2.297 . S
O362 C357 1.247 . S
O363 Cd352 2.439 . S
O363 C357 1.208 . S
O364 Cd365 2.223 . S
O364 C372 1.315 . S
Cd365 O364 2.223 . S
Cd365 O368 2.297 . S
Cd365 O369 2.439 . S
Cd365 O375 2.240 . S
Cd366 O367 2.240 . S
Cd366 O374 2.223 . S
Cd366 O376 2.297 . S
Cd366 O377 2.439 . S
O367 Cd366 2.240 . S
O367 C372 1.279 . S
O368 Cd365 2.297 . S
O368 C370 1.247 . S
O369 Cd365 2.439 . S
O369 C370 1.208 . S
C370 O368 1.247 . S
C370 O369 1.208 . S
C371 O376 1.247 . S
C371 O377 1.208 . S
C372 O364 1.315 . S
C372 O367 1.279 . S
C373 O374 1.315 . S
C373 O375 1.279 . S
O374 Cd366 2.223 . S
O374 C373 1.315 . S
O375 Cd365 2.240 . S
O375 C373 1.279 . S
O376 Cd366 2.297 . S
O376 C371 1.247 . S
O377 Cd366 2.439 . S
O377 C371 1.208 . S
O378 Cd379 2.223 . S
O378 C386 1.315 . S
Cd379 O378 2.223 . S
Cd379 O382 2.297 . S
Cd379 O383 2.439 . S
Cd379 O389 2.240 . S
Cd380 O381 2.240 . S
Cd380 O388 2.223 . S
Cd380 O390 2.297 . S
Cd380 O391 2.439 . S
O381 Cd380 2.240 . S
O381 C386 1.279 1_455 S
O382 Cd379 2.297 . S
O382 C384 1.247 . S
O383 Cd379 2.439 . S
O383 C384 1.208 . S
C384 O382 1.247 . S
C384 O383 1.208 . S
C385 O390 1.247 . S
C385 O391 1.208 . S
C386 O378 1.315 . S
C386 O381 1.279 1_655 S
C387 O388 1.315 1_655 S
C387 O389 1.279 . S
O388 Cd380 2.223 . S
O388 C387 1.315 1_455 S
O389 Cd379 2.240 . S
O389 C387 1.279 . S
O390 Cd380 2.297 . S
O390 C385 1.247 . S
O391 Cd380 2.439 . S
O391 C385 1.208 . S
O392 Cd393 2.223 . S
O392 C400 1.315 . S
Cd393 O392 2.223 . S
Cd393 O396 2.297 . S
Cd393 O397 2.439 . S
Cd393 O403 2.240 . S
Cd394 O395 2.240 . S
Cd394 O402 2.223 . S
Cd394 O404 2.297 . S
Cd394 O405 2.439 . S
O395 Cd394 2.240 . S
O395 C400 1.279 . S
O396 Cd393 2.297 . S
O396 C398 1.247 . S
O397 Cd393 2.439 . S
O397 C398 1.208 . S
C398 O396 1.247 . S
C398 O397 1.208 . S
C399 O404 1.247 . S
C399 O405 1.208 . S
C400 O392 1.315 . S
C400 O395 1.279 . S
C401 O402 1.315 . S
C401 O403 1.279 . S
O402 Cd394 2.223 . S
O402 C401 1.315 . S
O403 Cd393 2.240 . S
O403 C401 1.279 . S
O404 Cd394 2.297 . S
O404 C399 1.247 . S
O405 Cd394 2.439 . S
O405 C399 1.208 . S
O406 Cd407 2.223 . S
O406 C414 1.315 . S
Cd407 O406 2.223 . S
Cd407 O410 2.297 . S
Cd407 O411 2.439 . S
Cd407 O417 2.240 . S
Cd408 O409 2.240 . S
Cd408 O416 2.223 . S
Cd408 O418 2.297 . S
Cd408 O419 2.439 . S
O409 Cd408 2.240 . S
O409 C414 1.279 1_455 S
O410 Cd407 2.297 . S
O410 C412 1.247 . S
O411 Cd407 2.439 . S
O411 C412 1.208 . S
C412 O410 1.247 . S
C412 O411 1.208 . S
C413 O418 1.247 . S
C413 O419 1.208 . S
C414 O406 1.315 . S
C414 O409 1.279 1_655 S
C415 O416 1.315 1_655 S
C415 O417 1.279 . S
O416 Cd408 2.223 . S
O416 C415 1.315 1_455 S
O417 Cd407 2.240 . S
O417 C415 1.279 . S
O418 Cd408 2.297 . S
O418 C413 1.247 . S
O419 Cd408 2.439 . S
O419 C413 1.208 . S
O420 Cd421 2.223 . S
O420 C428 1.315 . S
Cd421 O420 2.223 . S
Cd421 O424 2.297 . S
Cd421 O425 2.439 . S
Cd421 O431 2.240 . S
Cd422 O423 2.240 . S
Cd422 O430 2.223 . S
Cd422 O432 2.297 . S
Cd422 O433 2.439 . S
O423 Cd422 2.240 . S
O423 C428 1.279 . S
O424 Cd421 2.297 . S
O424 C426 1.247 . S
O425 Cd421 2.439 . S
O425 C426 1.208 . S
C426 O424 1.247 . S
C426 O425 1.208 . S
C427 O432 1.247 . S
C427 O433 1.208 . S
C428 O420 1.315 . S
C428 O423 1.279 . S
C429 O430 1.315 . S
C429 O431 1.279 . S
O430 Cd422 2.223 . S
O430 C429 1.315 . S
O431 Cd421 2.240 . S
O431 C429 1.279 . S
O432 Cd422 2.297 . S
O432 C427 1.247 . S
O433 Cd422 2.439 . S
O433 C427 1.208 . S
O434 Cd435 2.223 . S
O434 C442 1.315 . S
Cd435 O434 2.223 . S
Cd435 O438 2.297 . S
Cd435 O439 2.439 . S
Cd435 O445 2.240 . S
Cd436 O437 2.240 . S
Cd436 O444 2.223 . S
Cd436 O446 2.297 . S
Cd436 O447 2.439 . S
O437 Cd436 2.240 . S
O437 C442 1.279 . S
O438 Cd435 2.297 . S
O438 C440 1.247 . S
O439 Cd435 2.439 . S
O439 C440 1.208 . S
C440 O438 1.247 . S
C440 O439 1.208 . S
C441 O446 1.247 . S
C441 O447 1.208 . S
C442 O434 1.315 . S
C442 O437 1.279 . S
C443 O444 1.315 . S
C443 O445 1.279 . S
O444 Cd436 2.223 . S
O444 C443 1.315 . S
O445 Cd435 2.240 . S
O445 C443 1.279 . S
O446 Cd436 2.297 . S
O446 C441 1.247 . S
O447 Cd436 2.439 . S
O447 C441 1.208 . S
O448 Cd449 2.223 . S
O448 C456 1.315 . S
Cd449 O448 2.223 . S
Cd449 O452 2.297 . S
Cd449 O453 2.439 . S
Cd449 O459 2.240 . S
Cd450 O451 2.240 . S
Cd450 O458 2.223 . S
Cd450 O460 2.297 . S
Cd450 O461 2.439 . S
O451 Cd450 2.240 . S
O451 C456 1.279 . S
O452 Cd449 2.297 . S
O452 C454 1.247 . S
O453 Cd449 2.439 . S
O453 C454 1.208 . S
C454 O452 1.247 . S
C454 O453 1.208 . S
C455 O460 1.247 . S
C455 O461 1.208 . S
C456 O448 1.315 . S
C456 O451 1.279 . S
C457 O458 1.315 . S
C457 O459 1.279 . S
O458 Cd450 2.223 . S
O458 C457 1.315 . S
O459 Cd449 2.240 . S
O459 C457 1.279 . S
O460 Cd450 2.297 . S
O460 C455 1.247 . S
O461 Cd450 2.439 . S
O461 C455 1.208 . S
O462 Cd463 2.223 . S
O462 C470 1.315 . S
Cd463 O462 2.223 . S
Cd463 O466 2.297 . S
Cd463 O467 2.439 . S
Cd463 O473 2.240 . S
Cd464 O465 2.240 . S
Cd464 O472 2.223 . S
Cd464 O474 2.297 . S
Cd464 O475 2.439 . S
O465 Cd464 2.240 . S
O465 C470 1.279 1_554 S
O466 Cd463 2.297 . S
O466 C468 1.247 . S
O467 Cd463 2.439 . S
O467 C468 1.208 . S
C468 O466 1.247 . S
C468 O467 1.208 . S
C469 O474 1.247 . S
C469 O475 1.208 . S
C470 O462 1.315 . S
C470 O465 1.279 1_556 S
C471 O472 1.315 1_556 S
C471 O473 1.279 . S
O472 Cd464 2.223 . S
O472 C471 1.315 1_554 S
O473 Cd463 2.240 . S
O473 C471 1.279 . S
O474 Cd464 2.297 . S
O474 C469 1.247 . S
O475 Cd464 2.439 . S
O475 C469 1.208 . S
O476 Cd477 2.223 . S
O476 C484 1.315 . S
Cd477 O476 2.223 . S
Cd477 O480 2.297 . S
Cd477 O481 2.439 . S
Cd477 O487 2.240 . S
Cd478 O479 2.240 . S
Cd478 O486 2.223 . S
Cd478 O488 2.297 . S
Cd478 O489 2.439 . S
O479 Cd478 2.240 . S
O479 C484 1.279 . S
O480 Cd477 2.297 . S
O480 C482 1.247 . S
O481 Cd477 2.439 . S
O481 C482 1.208 . S
C482 O480 1.247 . S
C482 O481 1.208 . S
C483 O488 1.247 . S
C483 O489 1.208 . S
C484 O476 1.315 . S
C484 O479 1.279 . S
C485 O486 1.315 . S
C485 O487 1.279 . S
O486 Cd478 2.223 . S
O486 C485 1.315 . S
O487 Cd477 2.240 . S
O487 C485 1.279 . S
O488 Cd478 2.297 . S
O488 C483 1.247 . S
O489 Cd478 2.439 . S
O489 C483 1.208 . S
O490 Cd491 2.223 . S
O490 C498 1.315 . S
Cd491 O490 2.223 . S
Cd491 O494 2.297 . S
Cd491 O495 2.439 . S
Cd491 O501 2.240 . S
Cd492 O493 2.240 . S
Cd492 O500 2.223 1_655 S
Cd492 O502 2.297 . S
Cd492 O503 2.439 . S
O493 Cd492 2.240 . S
O493 C498 1.279 . S
O494 Cd491 2.297 . S
O494 C496 1.247 . S
O495 Cd491 2.439 . S
O495 C496 1.208 . S
C496 O494 1.247 . S
C496 O495 1.208 . S
C497 O502 1.247 . S
C497 O503 1.208 . S
C498 O490 1.315 . S
C498 O493 1.279 . S
C499 O500 1.319 . S
C499 O501 1.268 1_455 S
O500 Cd492 2.223 1_455 S
O500 C499 1.319 . S
O501 Cd491 2.240 . S
O501 C499 1.268 1_655 S
O502 Cd492 2.297 . S
O502 C497 1.247 . S
O503 Cd492 2.439 . S
O503 C497 1.208 . S
O504 Cd505 2.223 . S
O504 C512 1.315 . S
Cd505 O504 2.223 . S
Cd505 O508 2.297 . S
Cd505 O509 2.439 . S
Cd505 O515 2.240 . S
Cd506 O507 2.240 . S
Cd506 O514 2.223 . S
Cd506 O516 2.297 . S
Cd506 O517 2.439 . S
O507 Cd506 2.240 . S
O507 C512 1.279 . S
O508 Cd505 2.297 . S
O508 C510 1.247 . S
O509 Cd505 2.439 . S
O509 C510 1.208 . S
C510 O508 1.247 . S
C510 O509 1.208 . S
C511 O516 1.247 . S
C511 O517 1.208 . S
C512 O504 1.315 . S
C512 O507 1.279 . S
C513 O514 1.315 . S
C513 O515 1.279 . S
O514 Cd506 2.223 . S
O514 C513 1.315 . S
O515 Cd505 2.240 . S
O515 C513 1.279 . S
O516 Cd506 2.297 . S
O516 C511 1.247 . S
O517 Cd506 2.439 . S
O517 C511 1.208 . S
O518 Cd519 2.223 . S
O518 C526 1.315 . S
Cd519 O518 2.223 . S
Cd519 O522 2.297 . S
Cd519 O523 2.439 . S
Cd519 O529 2.240 . S
Cd520 O521 2.240 . S
Cd520 O528 2.223 1_655 S
Cd520 O530 2.297 . S
Cd520 O531 2.439 . S
O521 Cd520 2.240 . S
O521 C526 1.279 1_556 S
O522 Cd519 2.297 . S
O522 C524 1.247 . S
O523 Cd519 2.439 . S
O523 C524 1.208 . S
C524 O522 1.247 . S
C524 O523 1.208 . S
C525 O530 1.247 . S
C525 O531 1.208 . S
C526 O518 1.315 . S
C526 O521 1.279 1_554 S
C527 O528 1.320 1_554 S
C527 O529 1.264 1_455 S
O528 Cd520 2.223 1_455 S
O528 C527 1.320 1_556 S
O529 Cd519 2.240 . S
O529 C527 1.264 1_655 S
O530 Cd520 2.297 . S
O530 C525 1.247 . S
O531 Cd520 2.439 . S
O531 C525 1.208 . S
O532 Cd533 2.223 . S
O532 C540 1.315 . S
Cd533 O532 2.223 . S
Cd533 O536 2.297 . S
Cd533 O537 2.439 . S
Cd533 O543 2.240 . S
Cd534 O535 2.240 . S
Cd534 O542 2.223 . S
Cd534 O544 2.297 . S
Cd534 O545 2.439 . S
O535 Cd534 2.240 . S
O535 C540 1.279 . S
O536 Cd533 2.297 . S
O536 C538 1.247 . S
O537 Cd533 2.439 . S
O537 C538 1.208 . S
C538 O536 1.247 . S
C538 O537 1.208 . S
C539 O544 1.247 . S
C539 O545 1.208 . S
C540 O532 1.315 . S
C540 O535 1.279 . S
C541 O542 1.315 . S
C541 O543 1.279 . S
O542 Cd534 2.223 . S
O542 C541 1.315 . S
O543 Cd533 2.240 . S
O543 C541 1.279 . S
O544 Cd534 2.297 . S
O544 C539 1.247 . S
O545 Cd534 2.439 . S
O545 C539 1.208 . S
O546 Cd547 2.223 . S
O546 C554 1.315 . S
Cd547 O546 2.223 . S
Cd547 O550 2.297 . S
Cd547 O551 2.439 . S
Cd547 O557 2.240 . S
Cd548 O549 2.240 . S
Cd548 O556 2.223 . S
Cd548 O558 2.297 . S
Cd548 O559 2.439 . S
O549 Cd548 2.240 . S
O549 C554 1.279 . S
O550 Cd547 2.297 . S
O550 C552 1.247 . S
O551 Cd547 2.439 . S
O551 C552 1.208 . S
C552 O550 1.247 . S
C552 O551 1.208 . S
C553 O558 1.247 . S
C553 O559 1.208 . S
C554 O546 1.315 . S
C554 O549 1.279 . S
C555 O556 1.315 . S
C555 O557 1.279 . S
O556 Cd548 2.223 . S
O556 C555 1.315 . S
O557 Cd547 2.240 . S
O557 C555 1.279 . S
O558 Cd548 2.297 . S
O558 C553 1.247 . S
O559 Cd548 2.439 . S
O559 C553 1.208 . S
O560 Cd561 2.223 . S
O560 C568 1.315 . S
Cd561 O560 2.223 . S
Cd561 O564 2.297 . S
Cd561 O565 2.439 . S
Cd561 O571 2.240 . S
Cd562 O563 2.240 . S
Cd562 O570 2.223 . S
Cd562 O572 2.297 . S
Cd562 O573 2.439 . S
O563 Cd562 2.240 . S
O563 C568 1.279 . S
O564 Cd561 2.297 . S
O564 C566 1.247 . S
O565 Cd561 2.439 . S
O565 C566 1.208 . S
C566 O564 1.247 . S
C566 O565 1.208 . S
C567 O572 1.247 . S
C567 O573 1.208 . S
C568 O560 1.315 . S
C568 O563 1.279 . S
C569 O570 1.315 . S
C569 O571 1.279 . S
O570 Cd562 2.223 . S
O570 C569 1.315 . S
O571 Cd561 2.240 . S
O571 C569 1.279 . S
O572 Cd562 2.297 . S
O572 C567 1.247 . S
O573 Cd562 2.439 . S
O573 C567 1.208 . S
O574 Cd575 2.223 . S
O574 C582 1.315 . S
Cd575 O574 2.223 . S
Cd575 O578 2.297 . S
Cd575 O579 2.439 . S
Cd575 O585 2.240 . S
Cd576 O577 2.240 . S
Cd576 O584 2.223 . S
Cd576 O586 2.297 . S
Cd576 O587 2.439 . S
O577 Cd576 2.240 . S
O577 C582 1.279 . S
O578 Cd575 2.297 . S
O578 C580 1.247 . S
O579 Cd575 2.439 . S
O579 C580 1.208 . S
C580 O578 1.247 . S
C580 O579 1.208 . S
C581 O586 1.247 . S
C581 O587 1.208 . S
C582 O574 1.315 . S
C582 O577 1.279 . S
C583 O584 1.315 . S
C583 O585 1.279 . S
O584 Cd576 2.223 . S
O584 C583 1.315 . S
O585 Cd575 2.240 . S
O585 C583 1.279 . S
O586 Cd576 2.297 . S
O586 C581 1.247 . S
O587 Cd576 2.439 . S
O587 C581 1.208 . S
O588 Cd589 2.223 . S
O588 C596 1.315 . S
Cd589 O588 2.223 . S
Cd589 O592 2.297 . S
Cd589 O593 2.439 . S
Cd589 O599 2.240 . S
Cd590 O591 2.240 . S
Cd590 O598 2.223 . S
Cd590 O600 2.297 . S
Cd590 O601 2.439 . S
O591 Cd590 2.240 . S
O591 C596 1.279 1_545 S
O592 Cd589 2.297 . S
O592 C594 1.247 . S
O593 Cd589 2.439 . S
O593 C594 1.208 . S
C594 O592 1.247 . S
C594 O593 1.208 . S
C595 O600 1.247 . S
C595 O601 1.208 . S
C596 O588 1.315 . S
C596 O591 1.279 1_565 S
C597 O598 1.315 1_565 S
C597 O599 1.279 . S
O598 Cd590 2.223 . S
O598 C597 1.315 1_545 S
O599 Cd589 2.240 . S
O599 C597 1.279 . S
O600 Cd590 2.297 . S
O600 C595 1.247 . S
O601 Cd590 2.439 . S
O601 C595 1.208 . S
O602 Cd603 2.223 . S
O602 C610 1.315 . S
Cd603 O602 2.223 . S
Cd603 O606 2.297 . S
Cd603 O607 2.439 . S
Cd603 O613 2.240 . S
Cd604 O605 2.240 . S
Cd604 O612 2.223 . S
Cd604 O614 2.297 . S
Cd604 O615 2.439 . S
O605 Cd604 2.240 . S
O605 C610 1.279 . S
O606 Cd603 2.297 . S
O606 C608 1.247 . S
O607 Cd603 2.439 . S
O607 C608 1.208 . S
C608 O606 1.247 . S
C608 O607 1.208 . S
C609 O614 1.247 . S
C609 O615 1.208 . S
C610 O602 1.315 . S
C610 O605 1.279 . S
C611 O612 1.315 . S
C611 O613 1.279 . S
O612 Cd604 2.223 . S
O612 C611 1.315 . S
O613 Cd603 2.240 . S
O613 C611 1.279 . S
O614 Cd604 2.297 . S
O614 C609 1.247 . S
O615 Cd604 2.439 . S
O615 C609 1.208 . S
O616 Cd617 2.223 . S
O616 C624 1.315 . S
Cd617 O616 2.223 . S
Cd617 O620 2.297 . S
Cd617 O621 2.439 . S
Cd617 O627 2.240 . S
Cd618 O619 2.240 . S
Cd618 O626 2.223 . S
Cd618 O628 2.297 . S
Cd618 O629 2.439 . S
O619 Cd618 2.240 . S
O619 C624 1.279 . S
O620 Cd617 2.297 . S
O620 C622 1.247 . S
O621 Cd617 2.439 . S
O621 C622 1.208 . S
C622 O620 1.247 . S
C622 O621 1.208 . S
C623 O628 1.247 . S
C623 O629 1.208 . S
C624 O616 1.315 . S
C624 O619 1.279 . S
C625 O626 1.315 . S
C625 O627 1.279 . S
O626 Cd618 2.223 . S
O626 C625 1.315 . S
O627 Cd617 2.240 . S
O627 C625 1.279 . S
O628 Cd618 2.297 . S
O628 C623 1.247 . S
O629 Cd618 2.439 . S
O629 C623 1.208 . S
O630 Cd631 2.223 . S
O630 C638 1.315 . S
Cd631 O630 2.223 . S
Cd631 O634 2.297 . S
Cd631 O635 2.439 . S
Cd631 O641 2.240 . S
Cd632 O633 2.240 . S
Cd632 O640 2.223 . S
Cd632 O642 2.297 . S
Cd632 O643 2.439 . S
O633 Cd632 2.240 . S
O633 C638 1.279 . S
O634 Cd631 2.297 . S
O634 C636 1.247 . S
O635 Cd631 2.439 . S
O635 C636 1.208 . S
C636 O634 1.247 . S
C636 O635 1.208 . S
C637 O642 1.247 . S
C637 O643 1.208 . S
C638 O630 1.315 . S
C638 O633 1.279 . S
C639 O640 1.315 . S
C639 O641 1.279 . S
O640 Cd632 2.223 . S
O640 C639 1.315 . S
O641 Cd631 2.240 . S
O641 C639 1.279 . S
O642 Cd632 2.297 . S
O642 C637 1.247 . S
O643 Cd632 2.439 . S
O643 C637 1.208 . S
O644 Cd645 2.223 . S
O644 C652 1.315 . S
Cd645 O644 2.223 . S
Cd645 O648 2.297 . S
Cd645 O649 2.439 . S
Cd645 O655 2.240 . S
Cd646 O647 2.240 . S
Cd646 O654 2.223 1_556 S
Cd646 O656 2.297 . S
Cd646 O657 2.439 . S
O647 Cd646 2.240 . S
O647 C652 1.279 1_565 S
O648 Cd645 2.297 . S
O648 C650 1.247 . S
O649 Cd645 2.439 . S
O649 C650 1.208 . S
C650 O648 1.247 . S
C650 O649 1.208 . S
C651 O656 1.247 . S
C651 O657 1.208 . S
C652 O644 1.315 . S
C652 O647 1.279 1_545 S
C653 O654 1.320 1_545 S
C653 O655 1.264 1_554 S
O654 Cd646 2.223 1_554 S
O654 C653 1.320 1_565 S
O655 Cd645 2.240 . S
O655 C653 1.264 1_556 S
O656 Cd646 2.297 . S
O656 C651 1.247 . S
O657 Cd646 2.439 . S
O657 C651 1.208 . S
O658 Cd659 2.223 . S
O658 C666 1.315 . S
Cd659 O658 2.223 . S
Cd659 O662 2.297 . S
Cd659 O663 2.439 . S
Cd659 O669 2.240 . S
Cd660 O661 2.240 . S
Cd660 O668 2.223 . S
Cd660 O670 2.297 . S
Cd660 O671 2.439 . S
O661 Cd660 2.240 . S
O661 C666 1.279 1_545 S
O662 Cd659 2.297 . S
O662 C664 1.247 . S
O663 Cd659 2.439 . S
O663 C664 1.208 . S
C664 O662 1.247 . S
C664 O663 1.208 . S
C665 O670 1.247 . S
C665 O671 1.208 . S
C666 O658 1.315 . S
C666 O661 1.279 1_565 S
C667 O668 1.315 1_565 S
C667 O669 1.279 . S
O668 Cd660 2.223 . S
O668 C667 1.315 1_545 S
O669 Cd659 2.240 . S
O669 C667 1.279 . S
O670 Cd660 2.297 . S
O670 C665 1.247 . S
O671 Cd660 2.439 . S
O671 C665 1.208 . S
H672 C680 0.950 . S
H673 C685 0.950 . S
H674 C682 0.950 . S
H675 C684 0.950 . S
H676 C686 0.950 . S
H677 C688 0.950 . S
H678 C690 0.950 . S
H679 C691 0.950 . S
C680 H672 0.950 . S
C680 C681 1.386 . S
C680 C682 1.391 . S
C681 C680 1.386 . S
C681 C685 1.393 . S
C682 H674 0.950 . S
C682 C680 1.391 . S
C682 C683 1.400 . S
C683 C682 1.400 . S
C683 C684 1.398 . S
C683 C689 1.491 . S
C684 H675 0.950 . S
C684 C683 1.398 . S
C684 C685 1.391 . S
C685 H673 0.950 . S
C685 C681 1.393 . S
C685 C684 1.391 . S
C686 H676 0.950 . S
C686 C687 1.386 . S
C686 C688 1.391 . S
C687 C686 1.386 . S
C687 C691 1.393 . S
C688 H677 0.950 . S
C688 C686 1.391 . S
C688 C689 1.400 . S
C689 C683 1.491 . S
C689 C688 1.400 . S
C689 C690 1.398 . S
C690 H678 0.950 . S
C690 C689 1.398 . S
C690 C691 1.391 . S
C691 H679 0.950 . S
C691 C687 1.393 . S
C691 C690 1.391 . S
H692 C700 0.950 . S
H693 C705 0.941 1_545 S
H694 C702 0.950 . S
H695 C704 0.950 . S
H696 C706 0.950 . S
H697 C708 0.950 . S
H698 C710 0.950 . S
H699 C711 0.950 1_565 S
C700 H692 0.950 . S
C700 C701 1.386 . S
C700 C702 1.391 . S
C701 C700 1.386 . S
C701 C705 1.411 1_455 S
C702 H694 0.950 . S
C702 C700 1.391 . S
C702 C703 1.400 . S
C703 C702 1.400 . S
C703 C704 1.398 1_465 S
C703 C709 1.491 1_565 S
C704 H695 0.950 . S
C704 C703 1.398 1_645 S
C704 C705 1.383 1_545 S
C705 H693 0.941 1_565 S
C705 C701 1.411 1_655 S
C705 C704 1.383 1_565 S
C706 H696 0.950 . S
C706 C707 1.386 1_655 S
C706 C708 1.391 . S
C707 C706 1.386 1_455 S
C707 C711 1.392 . S
C708 H697 0.950 . S
C708 C706 1.391 . S
C708 C709 1.400 1_655 S
C709 C703 1.491 1_545 S
C709 C708 1.400 1_455 S
C709 C710 1.398 1_545 S
C710 H698 0.950 . S
C710 C709 1.398 1_565 S
C710 C711 1.391 1_565 S
C711 H699 0.950 1_545 S
C711 C707 1.392 . S
C711 C710 1.391 1_545 S
H712 C720 0.950 . S
H713 C725 0.950 . S
H714 C722 0.950 . S
H715 C724 0.950 . S
H716 C726 0.950 . S
H717 C728 0.950 . S
H718 C730 0.950 . S
H719 C731 0.950 . S
C720 H712 0.950 . S
C720 C721 1.386 . S
C720 C722 1.391 . S
C721 C720 1.386 . S
C721 C725 1.393 . S
C722 H714 0.950 . S
C722 C720 1.391 . S
C722 C723 1.400 . S
C723 C722 1.400 . S
C723 C724 1.398 . S
C723 C729 1.491 1_556 S
C724 H715 0.950 . S
C724 C723 1.398 . S
C724 C725 1.391 . S
C725 H713 0.950 . S
C725 C721 1.393 . S
C725 C724 1.391 . S
C726 H716 0.950 . S
C726 C727 1.386 . S
C726 C728 1.391 . S
C727 C726 1.386 . S
C727 C731 1.393 . S
C728 H717 0.950 . S
C728 C726 1.391 . S
C728 C729 1.400 . S
C729 C723 1.491 1_554 S
C729 C728 1.400 . S
C729 C730 1.398 . S
C730 H718 0.950 . S
C730 C729 1.398 . S
C730 C731 1.391 . S
C731 H719 0.950 . S
C731 C727 1.393 . S
C731 C730 1.391 . S
H732 C740 0.950 . S
H733 C745 0.950 . S
H734 C742 0.950 . S
H735 C744 0.950 . S
H736 C746 0.950 . S
H737 C748 0.950 . S
H738 C750 0.950 . S
H739 C751 0.950 . S
C740 H732 0.950 . S
C740 C741 1.386 1_545 S
C740 C742 1.391 . S
C741 C740 1.386 1_565 S
C741 C745 1.393 . S
C742 H734 0.950 . S
C742 C740 1.391 . S
C742 C743 1.400 1_545 S
C743 C742 1.400 1_565 S
C743 C744 1.398 . S
C743 C749 1.491 1_565 S
C744 H735 0.950 . S
C744 C743 1.398 . S
C744 C745 1.391 . S
C745 H733 0.950 . S
C745 C741 1.393 . S
C745 C744 1.391 . S
C746 H736 0.950 . S
C746 C747 1.386 1_565 S
C746 C748 1.391 . S
C747 C746 1.386 1_545 S
C747 C751 1.393 . S
C748 H737 0.950 . S
C748 C746 1.391 . S
C748 C749 1.400 1_565 S
C749 C743 1.491 1_545 S
C749 C748 1.400 1_545 S
C749 C750 1.398 . S
C750 H738 0.950 . S
C750 C749 1.398 . S
C750 C751 1.391 . S
C751 H739 0.950 . S
C751 C747 1.393 . S
C751 C750 1.391 . S
H752 C760 0.950 . S
H753 C765 0.950 . S
H754 C762 0.950 . S
H755 C764 0.950 . S
H756 C766 0.950 . S
H757 C768 0.950 . S
H758 C770 0.950 . S
H759 C771 0.950 . S
C760 H752 0.950 . S
C760 C761 1.386 . S
C760 C762 1.391 . S
C761 C760 1.386 . S
C761 C765 1.393 . S
C762 H754 0.950 . S
C762 C760 1.391 . S
C762 C763 1.400 . S
C763 C762 1.400 . S
C763 C764 1.398 . S
C763 C769 1.491 . S
C764 H755 0.950 . S
C764 C763 1.398 . S
C764 C765 1.391 . S
C765 H753 0.950 . S
C765 C761 1.393 . S
C765 C764 1.391 . S
C766 H756 0.950 . S
C766 C767 1.386 . S
C766 C768 1.391 . S
C767 C766 1.386 . S
C767 C771 1.393 . S
C768 H757 0.950 . S
C768 C766 1.391 . S
C768 C769 1.400 . S
C769 C763 1.491 . S
C769 C768 1.400 . S
C769 C770 1.398 . S
C770 H758 0.950 . S
C770 C769 1.398 . S
C770 C771 1.391 . S
C771 H759 0.950 . S
C771 C767 1.393 . S
C771 C770 1.391 . S
H772 C780 0.950 . S
H773 C785 0.950 . S
H774 C782 0.950 . S
H775 C784 0.950 . S
H776 C786 0.950 . S
H777 C788 0.950 . S
H778 C790 0.950 . S
H779 C791 0.950 . S
C780 H772 0.950 . S
C780 C781 1.386 1_455 S
C780 C782 1.391 . S
C781 C780 1.386 1_655 S
C781 C785 1.393 . S
C782 H774 0.950 . S
C782 C780 1.391 . S
C782 C783 1.400 1_455 S
C783 C782 1.400 1_655 S
C783 C784 1.398 . S
C783 C789 1.491 1_655 S
C784 H775 0.950 . S
C784 C783 1.398 . S
C784 C785 1.391 . S
C785 H773 0.950 . S
C785 C781 1.393 . S
C785 C784 1.391 . S
C786 H776 0.950 . S
C786 C787 1.386 1_655 S
C786 C788 1.391 . S
C787 C786 1.386 1_455 S
C787 C791 1.393 . S
C788 H777 0.950 . S
C788 C786 1.391 . S
C788 C789 1.400 1_655 S
C789 C783 1.491 1_455 S
C789 C788 1.400 1_455 S
C789 C790 1.398 . S
C790 H778 0.950 . S
C790 C789 1.398 . S
C790 C791 1.391 . S
C791 H779 0.950 . S
C791 C787 1.393 . S
C791 C790 1.391 . S
H792 C800 0.950 . S
H793 C805 0.950 . S
H794 C802 0.950 . S
H795 C804 0.950 . S
H796 C806 0.950 . S
H797 C808 0.950 . S
H798 C810 0.950 . S
H799 C811 0.950 . S
C800 H792 0.950 . S
C800 C801 1.386 . S
C800 C802 1.391 . S
C801 C800 1.386 . S
C801 C805 1.393 . S
C802 H794 0.950 . S
C802 C800 1.391 . S
C802 C803 1.400 . S
C803 C802 1.400 . S
C803 C804 1.398 . S
C803 C809 1.491 1_455 S
C804 H795 0.950 . S
C804 C803 1.398 . S
C804 C805 1.391 . S
C805 H793 0.950 . S
C805 C801 1.393 . S
C805 C804 1.391 . S
C806 H796 0.950 . S
C806 C807 1.386 . S
C806 C808 1.391 . S
C807 C806 1.386 . S
C807 C811 1.393 . S
C808 H797 0.950 . S
C808 C806 1.391 . S
C808 C809 1.400 . S
C809 C803 1.491 1_655 S
C809 C808 1.400 . S
C809 C810 1.398 . S
C810 H798 0.950 . S
C810 C809 1.398 . S
C810 C811 1.391 . S
C811 H799 0.950 . S
C811 C807 1.393 . S
C811 C810 1.391 . S
H812 C820 0.950 . S
H813 C825 0.950 . S
H814 C822 0.950 . S
H815 C824 0.950 . S
H816 C826 0.950 . S
H817 C828 0.950 . S
H818 C830 0.950 . S
H819 C831 0.950 . S
C820 H812 0.950 . S
C820 C821 1.386 1_554 S
C820 C822 1.391 . S
C821 C820 1.386 1_556 S
C821 C825 1.393 . S
C822 H814 0.950 . S
C822 C820 1.391 . S
C822 C823 1.400 1_554 S
C823 C822 1.400 1_556 S
C823 C824 1.398 . S
C823 C829 1.491 . S
C824 H815 0.950 . S
C824 C823 1.398 . S
C824 C825 1.391 . S
C825 H813 0.950 . S
C825 C821 1.393 . S
C825 C824 1.391 . S
C826 H816 0.950 . S
C826 C827 1.386 . S
C826 C828 1.391 . S
C827 C826 1.386 . S
C827 C831 1.393 1_556 S
C828 H817 0.950 . S
C828 C826 1.391 . S
C828 C829 1.400 . S
C829 C823 1.491 . S
C829 C828 1.400 . S
C829 C830 1.398 1_556 S
C830 H818 0.950 . S
C830 C829 1.398 1_554 S
C830 C831 1.391 . S
C831 H819 0.950 . S
C831 C827 1.393 1_554 S
C831 C830 1.391 . S
H832 C840 0.950 . S
H833 C845 0.950 . S
H834 C842 0.950 . S
H835 C844 0.950 . S
H836 C846 0.950 . S
H837 C848 0.950 . S
H838 C850 0.950 . S
H839 C851 0.950 . S
C840 H832 0.950 . S
C840 C841 1.386 . S
C840 C842 1.391 . S
C841 C840 1.386 . S
C841 C845 1.393 . S
C842 H834 0.950 . S
C842 C840 1.391 . S
C842 C843 1.400 . S
C843 C842 1.400 . S
C843 C844 1.398 . S
C843 C849 1.491 . S
C844 H835 0.950 . S
C844 C843 1.398 . S
C844 C845 1.391 . S
C845 H833 0.950 . S
C845 C841 1.393 . S
C845 C844 1.391 . S
C846 H836 0.950 . S
C846 C847 1.386 . S
C846 C848 1.391 . S
C847 C846 1.386 . S
C847 C851 1.393 . S
C848 H837 0.950 . S
C848 C846 1.391 . S
C848 C849 1.400 . S
C849 C843 1.491 . S
C849 C848 1.400 . S
C849 C850 1.398 . S
C850 H838 0.950 . S
C850 C849 1.398 . S
C850 C851 1.391 . S
C851 H839 0.950 . S
C851 C847 1.393 . S
C851 C850 1.391 . S
H852 C860 0.950 . S
H853 C865 0.950 . S
H854 C862 0.950 . S
H855 C864 0.950 . S
H856 C866 0.950 . S
H857 C868 0.950 . S
H858 C870 0.950 . S
H859 C871 0.950 . S
C860 H852 0.950 . S
C860 C861 1.386 . S
C860 C862 1.391 . S
C861 C860 1.386 . S
C861 C865 1.393 . S
C862 H854 0.950 . S
C862 C860 1.391 . S
C862 C863 1.400 . S
C863 C862 1.400 . S
C863 C864 1.398 . S
C863 C869 1.491 . S
C864 H855 0.950 . S
C864 C863 1.398 . S
C864 C865 1.391 . S
C865 H853 0.950 . S
C865 C861 1.393 . S
C865 C864 1.391 . S
C866 H856 0.950 . S
C866 C867 1.386 . S
C866 C868 1.391 . S
C867 C866 1.386 . S
C867 C871 1.393 . S
C868 H857 0.950 . S
C868 C866 1.391 . S
C868 C869 1.400 . S
C869 C863 1.491 . S
C869 C868 1.400 . S
C869 C870 1.398 . S
C870 H858 0.950 . S
C870 C869 1.398 . S
C870 C871 1.391 . S
C871 H859 0.950 . S
C871 C867 1.393 . S
C871 C870 1.391 . S
H872 C880 0.950 . S
H873 C885 0.950 . S
H874 C882 0.950 . S
H875 C884 0.950 . S
H876 C886 0.950 . S
H877 C888 0.950 . S
H878 C890 0.950 . S
H879 C891 0.950 . S
C880 H872 0.950 . S
C880 C881 1.386 . S
C880 C882 1.391 . S
C881 C880 1.386 . S
C881 C885 1.393 . S
C882 H874 0.950 . S
C882 C880 1.391 . S
C882 C883 1.400 . S
C883 C882 1.400 . S
C883 C884 1.398 . S
C883 C889 1.491 1_655 S
C884 H875 0.950 . S
C884 C883 1.398 . S
C884 C885 1.391 . S
C885 H873 0.950 . S
C885 C881 1.393 . S
C885 C884 1.391 . S
C886 H876 0.950 . S
C886 C887 1.386 . S
C886 C888 1.391 . S
C887 C886 1.386 . S
C887 C891 1.393 . S
C888 H877 0.950 . S
C888 C886 1.391 . S
C888 C889 1.400 . S
C889 C883 1.491 1_455 S
C889 C888 1.400 . S
C889 C890 1.398 . S
C890 H878 0.950 . S
C890 C889 1.398 . S
C890 C891 1.391 . S
C891 H879 0.950 . S
C891 C887 1.393 . S
C891 C890 1.391 . S
H892 C900 0.950 . S
H893 C905 0.950 . S
H894 C902 0.953 . S
H895 C904 0.950 . S
H896 C906 0.950 . S
H897 C908 0.947 1_655 S
H898 C910 0.950 . S
H899 C911 0.950 . S
C900 H892 0.950 . S
C900 C901 1.386 1_556 S
C900 C902 1.391 . S
C901 C900 1.386 1_554 S
C901 C905 1.393 . S
C902 H894 0.953 . S
C902 C900 1.391 . S
C902 C903 1.400 1_556 S
C903 C902 1.400 1_554 S
C903 C904 1.398 . S
C903 C909 1.491 1_655 S
C904 H895 0.950 . S
C904 C903 1.398 . S
C904 C905 1.391 . S
C905 H893 0.950 . S
C905 C901 1.393 . S
C905 C904 1.391 . S
C906 H896 0.950 . S
C906 C907 1.386 . S
C906 C908 1.391 . S
C907 C906 1.386 . S
C907 C911 1.393 1_554 S
C908 H897 0.947 1_455 S
C908 C906 1.391 . S
C908 C909 1.400 . S
C909 C903 1.491 1_455 S
C909 C908 1.400 . S
C909 C910 1.398 1_554 S
C910 H898 0.950 . S
C910 C909 1.398 1_556 S
C910 C911 1.391 . S
C911 H899 0.950 . S
C911 C907 1.393 1_556 S
C911 C910 1.391 . S
H912 C920 0.950 . S
H913 C925 0.950 . S
H914 C922 0.950 . S
H915 C924 0.950 . S
H916 C926 0.950 . S
H917 C928 0.950 . S
H918 C930 0.950 . S
H919 C931 0.950 . S
C920 H912 0.950 . S
C920 C921 1.386 . S
C920 C922 1.391 . S
C921 C920 1.386 . S
C921 C925 1.393 . S
C922 H914 0.950 . S
C922 C920 1.391 . S
C922 C923 1.400 . S
C923 C922 1.400 . S
C923 C924 1.398 . S
C923 C929 1.491 . S
C924 H915 0.950 . S
C924 C923 1.398 . S
C924 C925 1.391 . S
C925 H913 0.950 . S
C925 C921 1.393 . S
C925 C924 1.391 . S
C926 H916 0.950 . S
C926 C927 1.386 . S
C926 C928 1.391 . S
C927 C926 1.386 . S
C927 C931 1.393 . S
C928 H917 0.950 . S
C928 C926 1.391 . S
C928 C929 1.400 . S
C929 C923 1.491 . S
C929 C928 1.400 . S
C929 C930 1.398 . S
C930 H918 0.950 . S
C930 C929 1.398 . S
C930 C931 1.391 . S
C931 H919 0.950 . S
C931 C927 1.393 . S
C931 C930 1.391 . S
H932 C940 0.950 . S
H933 C945 0.950 . S
H934 C942 0.950 . S
H935 C944 0.950 . S
H936 C946 0.950 . S
H937 C948 0.950 . S
H938 C950 0.950 . S
H939 C951 0.950 . S
C940 H932 0.950 . S
C940 C941 1.386 . S
C940 C942 1.391 . S
C941 C940 1.386 . S
C941 C945 1.393 . S
C942 H934 0.950 . S
C942 C940 1.391 . S
C942 C943 1.400 . S
C943 C942 1.400 . S
C943 C944 1.398 . S
C943 C949 1.491 1_545 S
C944 H935 0.950 . S
C944 C943 1.398 . S
C944 C945 1.391 . S
C945 H933 0.950 . S
C945 C941 1.393 . S
C945 C944 1.391 . S
C946 H936 0.950 . S
C946 C947 1.386 . S
C946 C948 1.391 . S
C947 C946 1.386 . S
C947 C951 1.393 . S
C948 H937 0.950 . S
C948 C946 1.391 . S
C948 C949 1.400 . S
C949 C943 1.491 1_565 S
C949 C948 1.400 . S
C949 C950 1.398 . S
C950 H938 0.950 . S
C950 C949 1.398 . S
C950 C951 1.391 . S
C951 H939 0.950 . S
C951 C947 1.393 . S
C951 C950 1.391 . S
H952 C960 0.950 1_556 S
H953 C965 0.950 . S
H954 C962 0.950 . S
H955 C964 0.950 . S
H956 C966 0.940 1_554 S
H957 C968 0.950 . S
H958 C970 0.950 . S
H959 C971 0.950 . S
C960 H952 0.950 1_554 S
C960 C961 1.386 . S
C960 C962 1.391 1_554 S
C961 C960 1.386 . S
C961 C965 1.393 . S
C962 H954 0.950 . S
C962 C960 1.391 1_556 S
C962 C963 1.400 1_556 S
C963 C962 1.400 1_554 S
C963 C964 1.398 . S
C963 C969 1.491 1_554 S
C964 H955 0.950 . S
C964 C963 1.398 . S
C964 C965 1.391 . S
C965 H953 0.950 . S
C965 C961 1.393 . S
C965 C964 1.391 . S
C966 H956 0.940 1_556 S
C966 C967 1.386 . S
C966 C968 1.391 1_556 S
C967 C966 1.386 . S
C967 C971 1.393 . S
C968 H957 0.950 . S
C968 C966 1.391 1_554 S
C968 C969 1.400 1_554 S
C969 C963 1.491 1_556 S
C969 C968 1.400 1_556 S
C969 C970 1.398 . S
C970 H958 0.950 . S
C970 C969 1.398 . S
C970 C971 1.391 . S
C971 H959 0.950 . S
C971 C967 1.393 . S
C971 C970 1.391 . S
H972 C980 0.950 . S
H973 C985 0.950 . S
H974 C982 0.950 . S
H975 C984 0.950 . S
H976 C986 0.950 . S
H977 C988 0.950 . S
H978 C990 0.950 . S
H979 C991 0.950 . S
C980 H972 0.950 . S
C980 C981 1.386 . S
C980 C982 1.391 . S
C981 C980 1.386 . S
C981 C985 1.393 . S
C982 H974 0.950 . S
C982 C980 1.391 . S
C982 C983 1.400 . S
C983 C982 1.400 . S
C983 C984 1.398 . S
C983 C989 1.491 1_545 S
C984 H975 0.950 . S
C984 C983 1.398 . S
C984 C985 1.391 . S
C985 H973 0.950 . S
C985 C981 1.393 . S
C985 C984 1.391 . S
C986 H976 0.950 . S
C986 C987 1.386 . S
C986 C988 1.391 . S
C987 C986 1.386 . S
C987 C991 1.393 . S
C988 H977 0.950 . S
C988 C986 1.391 . S
C988 C989 1.400 . S
C989 C983 1.491 1_565 S
C989 C988 1.400 . S
C989 C990 1.398 . S
C990 H978 0.950 . S
C990 C989 1.398 . S
C990 C991 1.391 . S
C991 H979 0.950 . S
C991 C987 1.393 . S
C991 C990 1.391 . S
H992 C1000 0.950 . S
H993 C1005 0.950 . S
H994 C1002 0.950 . S
H995 C1004 0.950 . S
H996 C1006 0.950 . S
H997 C1008 0.950 . S
H998 C1010 0.950 . S
H999 C1011 0.950 . S
C1000 H992 0.950 . S
C1000 C1001 1.386 1_564 S
C1000 C1002 1.391 . S
C1001 C1000 1.386 1_546 S
C1001 C1005 1.393 . S
C1002 H994 0.950 . S
C1002 C1000 1.391 . S
C1002 C1003 1.400 1_564 S
C1003 C1002 1.400 1_546 S
C1003 C1004 1.398 . S
C1003 C1009 1.491 1_556 S
C1004 H995 0.950 . S
C1004 C1003 1.398 . S
C1004 C1005 1.391 . S
C1005 H993 0.950 . S
C1005 C1001 1.393 . S
C1005 C1004 1.391 . S
C1006 H996 0.950 . S
C1006 C1007 1.386 1_556 S
C1006 C1008 1.391 . S
C1007 C1006 1.386 1_554 S
C1007 C1011 1.393 1_545 S
C1008 H997 0.950 . S
C1008 C1006 1.391 . S
C1008 C1009 1.400 1_556 S
C1009 C1003 1.491 1_554 S
C1009 C1008 1.400 1_554 S
C1009 C1010 1.398 1_545 S
C1010 H998 0.950 . S
C1010 C1009 1.398 1_565 S
C1010 C1011 1.391 . S
C1011 H999 0.950 . S
C1011 C1007 1.393 1_565 S
C1011 C1010 1.391 . S
H1012 C1020 0.950 . S
H1013 C1025 0.950 . S
H1014 C1022 0.950 . S
H1015 C1024 0.950 . S
H1016 C1026 0.950 . S
H1017 C1028 0.950 . S
H1018 C1030 0.950 . S
H1019 C1031 0.950 . S
C1020 H1012 0.950 . S
C1020 C1021 1.386 . S
C1020 C1022 1.391 . S
C1021 C1020 1.386 . S
C1021 C1025 1.393 . S
C1022 H1014 0.950 . S
C1022 C1020 1.391 . S
C1022 C1023 1.400 . S
C1023 C1022 1.400 . S
C1023 C1024 1.398 . S
C1023 C1029 1.491 . S
C1024 H1015 0.950 . S
C1024 C1023 1.398 . S
C1024 C1025 1.391 . S
C1025 H1013 0.950 . S
C1025 C1021 1.393 . S
C1025 C1024 1.391 . S
C1026 H1016 0.950 . S
C1026 C1027 1.386 . S
C1026 C1028 1.391 . S
C1027 C1026 1.386 . S
C1027 C1031 1.393 . S
C1028 H1017 0.950 . S
C1028 C1026 1.391 . S
C1028 C1029 1.400 . S
C1029 C1023 1.491 . S
C1029 C1028 1.400 . S
C1029 C1030 1.398 . S
C1030 H1018 0.950 . S
C1030 C1029 1.398 . S
C1030 C1031 1.391 . S
C1031 H1019 0.950 . S
C1031 C1027 1.393 . S
C1031 C1030 1.391 . S
H1032 C1040 0.950 . S
H1033 C1045 0.950 . S
H1034 C1042 0.950 . S
H1035 C1044 0.950 . S
H1036 C1046 0.950 . S
H1037 C1048 0.950 . S
H1038 C1050 0.950 . S
H1039 C1051 0.950 . S
C1040 H1032 0.950 . S
C1040 C1041 1.386 . S
C1040 C1042 1.391 . S
C1041 C1040 1.386 . S
C1041 C1045 1.393 . S
C1042 H1034 0.950 . S
C1042 C1040 1.391 . S
C1042 C1043 1.400 . S
C1043 C1042 1.400 . S
C1043 C1044 1.398 . S
C1043 C1049 1.491 . S
C1044 H1035 0.950 . S
C1044 C1043 1.398 . S
C1044 C1045 1.391 . S
C1045 H1033 0.950 . S
C1045 C1041 1.393 . S
C1045 C1044 1.391 . S
C1046 H1036 0.950 . S
C1046 C1047 1.386 . S
C1046 C1048 1.391 . S
C1047 C1046 1.386 . S
C1047 C1051 1.393 . S
C1048 H1037 0.950 . S
C1048 C1046 1.391 . S
C1048 C1049 1.400 . S
C1049 C1043 1.491 . S
C1049 C1048 1.400 . S
C1049 C1050 1.398 . S
C1050 H1038 0.950 . S
C1050 C1049 1.398 . S
C1050 C1051 1.391 . S
C1051 H1039 0.950 . S
C1051 C1047 1.393 . S
C1051 C1050 1.391 . S
H1052 C1060 0.950 . S
H1053 C1065 0.950 . S
H1054 C1062 0.950 . S
H1055 C1064 0.950 . S
H1056 C1066 0.950 . S
H1057 C1068 0.950 . S
H1058 C1070 0.950 . S
H1059 C1071 0.950 . S
C1060 H1052 0.950 . S
C1060 C1061 1.386 . S
C1060 C1062 1.391 . S
C1061 C1060 1.386 . S
C1061 C1065 1.393 . S
C1062 H1054 0.950 . S
C1062 C1060 1.391 . S
C1062 C1063 1.400 . S
C1063 C1062 1.400 . S
C1063 C1064 1.398 . S
C1063 C1069 1.491 1_554 S
C1064 H1055 0.950 . S
C1064 C1063 1.398 . S
C1064 C1065 1.391 . S
C1065 H1053 0.950 . S
C1065 C1061 1.393 . S
C1065 C1064 1.391 . S
C1066 H1056 0.950 . S
C1066 C1067 1.386 . S
C1066 C1068 1.391 . S
C1067 C1066 1.386 . S
C1067 C1071 1.393 . S
C1068 H1057 0.950 . S
C1068 C1066 1.391 . S
C1068 C1069 1.400 . S
C1069 C1063 1.491 1_556 S
C1069 C1068 1.400 . S
C1069 C1070 1.398 . S
C1070 H1058 0.950 . S
C1070 C1069 1.398 . S
C1070 C1071 1.391 . S
C1071 H1059 0.950 . S
C1071 C1067 1.393 . S
C1071 C1070 1.391 . S
H1072 C1080 0.950 . S
H1073 C1085 0.950 . S
H1074 C1082 0.950 . S
H1075 C1084 0.950 . S
H1076 C1086 0.950 . S
H1077 C1088 0.950 . S
H1078 C1090 0.950 . S
H1079 C1091 0.950 . S
C1080 H1072 0.950 . S
C1080 C1081 1.386 . S
C1080 C1082 1.391 . S
C1081 C1080 1.386 . S
C1081 C1085 1.393 . S
C1082 H1074 0.950 . S
C1082 C1080 1.391 . S
C1082 C1083 1.400 . S
C1083 C1082 1.400 . S
C1083 C1084 1.398 . S
C1083 C1089 1.491 . S
C1084 H1075 0.950 . S
C1084 C1083 1.398 . S
C1084 C1085 1.391 . S
C1085 H1073 0.950 . S
C1085 C1081 1.393 . S
C1085 C1084 1.391 . S
C1086 H1076 0.950 . S
C1086 C1087 1.386 . S
C1086 C1088 1.391 . S
C1087 C1086 1.386 . S
C1087 C1091 1.393 . S
C1088 H1077 0.950 . S
C1088 C1086 1.391 . S
C1088 C1089 1.400 . S
C1089 C1083 1.491 . S
C1089 C1088 1.400 . S
C1089 C1090 1.398 . S
C1090 H1078 0.950 . S
C1090 C1089 1.398 . S
C1090 C1091 1.391 . S
C1091 H1079 0.950 . S
C1091 C1087 1.393 . S
C1091 C1090 1.391 . S
H1092 C1100 0.950 . S
H1093 C1105 0.950 . S
H1094 C1102 0.950 . S
H1095 C1104 0.950 . S
H1096 C1106 0.950 . S
H1097 C1108 0.950 . S
H1098 C1110 0.950 . S
H1099 C1111 0.950 . S
C1100 H1092 0.950 . S
C1100 C1101 1.386 . S
C1100 C1102 1.391 . S
C1101 C1100 1.386 . S
C1101 C1105 1.393 . S
C1102 H1094 0.950 . S
C1102 C1100 1.391 . S
C1102 C1103 1.400 . S
C1103 C1102 1.400 . S
C1103 C1104 1.398 . S
C1103 C1109 1.491 . S
C1104 H1095 0.950 . S
C1104 C1103 1.398 . S
C1104 C1105 1.391 . S
C1105 H1093 0.950 . S
C1105 C1101 1.393 . S
C1105 C1104 1.391 . S
C1106 H1096 0.950 . S
C1106 C1107 1.386 . S
C1106 C1108 1.391 . S
C1107 C1106 1.386 . S
C1107 C1111 1.393 . S
C1108 H1097 0.950 . S
C1108 C1106 1.391 . S
C1108 C1109 1.400 . S
C1109 C1103 1.491 . S
C1109 C1108 1.400 . S
C1109 C1110 1.398 . S
C1110 H1098 0.950 . S
C1110 C1109 1.398 . S
C1110 C1111 1.391 . S
C1111 H1099 0.950 . S
C1111 C1107 1.393 . S
C1111 C1110 1.391 . S
H1112 C1120 0.950 . S
H1113 C1125 0.950 . S
H1114 C1122 0.950 . S
H1115 C1124 0.950 . S
H1116 C1126 0.950 . S
H1117 C1128 0.950 . S
H1118 C1130 0.950 . S
H1119 C1131 0.950 . S
C1120 H1112 0.950 . S
C1120 C1121 1.386 . S
C1120 C1122 1.391 . S
C1121 C1120 1.386 . S
C1121 C1125 1.393 1_655 S
C1122 H1114 0.950 . S
C1122 C1120 1.391 . S
C1122 C1123 1.400 . S
C1123 C1122 1.400 . S
C1123 C1124 1.398 1_655 S
C1123 C1129 1.491 . S
C1124 H1115 0.950 . S
C1124 C1123 1.398 1_455 S
C1124 C1125 1.391 . S
C1125 H1113 0.950 . S
C1125 C1121 1.393 1_455 S
C1125 C1124 1.391 . S
C1126 H1116 0.950 . S
C1126 C1127 1.386 1_455 S
C1126 C1128 1.391 . S
C1127 C1126 1.386 1_655 S
C1127 C1131 1.393 . S
C1128 H1117 0.950 . S
C1128 C1126 1.391 . S
C1128 C1129 1.400 1_455 S
C1129 C1123 1.491 . S
C1129 C1128 1.400 1_655 S
C1129 C1130 1.398 . S
C1130 H1118 0.950 . S
C1130 C1129 1.398 . S
C1130 C1131 1.391 . S
C1131 H1119 0.950 . S
C1131 C1127 1.393 . S
C1131 C1130 1.391 . S
H1132 C1140 0.951 . S
H1133 C1145 0.950 . S
H1134 C1142 0.950 . S
H1135 C1144 0.950 . S
H1136 C1146 0.950 . S
H1137 C1148 0.950 . S
H1138 C1150 0.950 . S
H1139 C1151 0.951 . S
C1140 H1132 0.951 . S
C1140 C1141 1.385 1_545 S
C1140 C1142 1.391 . S
C1141 C1140 1.385 1_565 S
C1141 C1145 1.393 . S
C1142 H1134 0.950 . S
C1142 C1140 1.391 . S
C1142 C1143 1.400 1_545 S
C1143 C1142 1.400 1_565 S
C1143 C1144 1.398 . S
C1143 C1149 1.491 . S
C1144 H1135 0.950 . S
C1144 C1143 1.398 . S
C1144 C1145 1.391 . S
C1145 H1133 0.950 . S
C1145 C1141 1.393 . S
C1145 C1144 1.391 . S
C1146 H1136 0.950 . S
C1146 C1147 1.386 . S
C1146 C1148 1.391 . S
C1147 C1146 1.386 . S
C1147 C1151 1.393 . S
C1148 H1137 0.950 . S
C1148 C1146 1.391 . S
C1148 C1149 1.400 . S
C1149 C1143 1.491 . S
C1149 C1148 1.400 . S
C1149 C1150 1.398 . S
C1150 H1138 0.950 . S
C1150 C1149 1.398 . S
C1150 C1151 1.391 . S
C1151 H1139 0.951 . S
C1151 C1147 1.393 . S
C1151 C1150 1.391 . S
H1152 C1160 0.950 . S
H1153 C1165 0.950 . S
H1154 C1162 0.950 . S
H1155 C1164 0.950 . S
H1156 C1166 0.950 . S
H1157 C1168 0.950 . S
H1158 C1170 0.950 . S
H1159 C1171 0.950 . S
C1160 H1152 0.950 . S
C1160 C1161 1.386 . S
C1160 C1162 1.391 . S
C1161 C1160 1.386 . S
C1161 C1165 1.393 . S
C1162 H1154 0.950 . S
C1162 C1160 1.391 . S
C1162 C1163 1.400 . S
C1163 C1162 1.400 . S
C1163 C1164 1.398 . S
C1163 C1169 1.491 . S
C1164 H1155 0.950 . S
C1164 C1163 1.398 . S
C1164 C1165 1.391 . S
C1165 H1153 0.950 . S
C1165 C1161 1.393 . S
C1165 C1164 1.391 . S
C1166 H1156 0.950 . S
C1166 C1167 1.386 . S
C1166 C1168 1.391 . S
C1167 C1166 1.386 . S
C1167 C1171 1.393 . S
C1168 H1157 0.950 . S
C1168 C1166 1.391 . S
C1168 C1169 1.400 . S
C1169 C1163 1.491 . S
C1169 C1168 1.400 . S
C1169 C1170 1.398 . S
C1170 H1158 0.950 . S
C1170 C1169 1.398 . S
C1170 C1171 1.391 . S
C1171 H1159 0.950 . S
C1171 C1167 1.393 . S
C1171 C1170 1.391 . S
H1172 C1180 0.950 . S
H1173 C1185 0.950 . S
H1174 C1182 0.950 . S
H1175 C1184 0.950 . S
H1176 C1186 0.950 . S
H1177 C1188 0.950 . S
H1178 C1190 0.950 . S
H1179 C1191 0.950 . S
C1180 H1172 0.950 . S
C1180 C1181 1.386 . S
C1180 C1182 1.391 . S
C1181 C1180 1.386 . S
C1181 C1185 1.393 . S
C1182 H1174 0.950 . S
C1182 C1180 1.391 . S
C1182 C1183 1.400 . S
C1183 C1182 1.400 . S
C1183 C1184 1.398 . S
C1183 C1189 1.491 . S
C1184 H1175 0.950 . S
C1184 C1183 1.398 . S
C1184 C1185 1.391 . S
C1185 H1173 0.950 . S
C1185 C1181 1.393 . S
C1185 C1184 1.391 . S
C1186 H1176 0.950 . S
C1186 C1187 1.386 . S
C1186 C1188 1.391 . S
C1187 C1186 1.386 . S
C1187 C1191 1.393 . S
C1188 H1177 0.950 . S
C1188 C1186 1.391 . S
C1188 C1189 1.400 . S
C1189 C1183 1.491 . S
C1189 C1188 1.400 . S
C1189 C1190 1.398 . S
C1190 H1178 0.950 . S
C1190 C1189 1.398 . S
C1190 C1191 1.391 . S
C1191 H1179 0.950 . S
C1191 C1187 1.393 . S
C1191 C1190 1.391 . S
H1192 C1200 0.950 . S
H1193 C1205 0.950 . S
H1194 C1202 0.950 . S
H1195 C1204 0.950 . S
H1196 C1206 0.950 . S
H1197 C1208 0.950 . S
H1198 C1210 0.950 . S
H1199 C1211 0.950 . S
C1200 H1192 0.950 . S
C1200 C1201 1.386 . S
C1200 C1202 1.391 . S
C1201 C1200 1.386 . S
C1201 C1205 1.393 . S
C1202 H1194 0.950 . S
C1202 C1200 1.391 . S
C1202 C1203 1.400 . S
C1203 C1202 1.400 . S
C1203 C1204 1.398 . S
C1203 C1209 1.491 . S
C1204 H1195 0.950 . S
C1204 C1203 1.398 . S
C1204 C1205 1.391 . S
C1205 H1193 0.950 . S
C1205 C1201 1.393 . S
C1205 C1204 1.391 . S
C1206 H1196 0.950 . S
C1206 C1207 1.386 . S
C1206 C1208 1.391 . S
C1207 C1206 1.386 . S
C1207 C1211 1.393 . S
C1208 H1197 0.950 . S
C1208 C1206 1.391 . S
C1208 C1209 1.400 . S
C1209 C1203 1.491 . S
C1209 C1208 1.400 . S
C1209 C1210 1.398 . S
C1210 H1198 0.950 . S
C1210 C1209 1.398 . S
C1210 C1211 1.391 . S
C1211 H1199 0.950 . S
C1211 C1207 1.393 . S
C1211 C1210 1.391 . S
H1212 C1220 0.950 . S
H1213 C1225 0.951 . S
H1214 C1222 0.950 . S
H1215 C1224 0.950 . S
H1216 C1226 0.950 . S
H1217 C1228 0.950 . S
H1218 C1230 0.950 . S
H1219 C1231 0.950 . S
C1220 H1212 0.950 . S
C1220 C1221 1.386 . S
C1220 C1222 1.391 . S
C1221 C1220 1.386 . S
C1221 C1225 1.393 . S
C1222 H1214 0.950 . S
C1222 C1220 1.391 . S
C1222 C1223 1.400 . S
C1223 C1222 1.400 . S
C1223 C1224 1.398 . S
C1223 C1229 1.491 . S
C1224 H1215 0.950 . S
C1224 C1223 1.398 . S
C1224 C1225 1.391 . S
C1225 H1213 0.951 . S
C1225 C1221 1.393 . S
C1225 C1224 1.391 . S
C1226 H1216 0.950 . S
C1226 C1227 1.386 . S
C1226 C1228 1.391 . S
C1227 C1226 1.386 . S
C1227 C1231 1.393 . S
C1228 H1217 0.950 . S
C1228 C1226 1.391 . S
C1228 C1229 1.400 . S
C1229 C1223 1.491 . S
C1229 C1228 1.400 . S
C1229 C1230 1.398 . S
C1230 H1218 0.950 . S
C1230 C1229 1.398 . S
C1230 C1231 1.391 . S
C1231 H1219 0.950 . S
C1231 C1227 1.393 . S
C1231 C1230 1.391 . S
H1232 C1240 0.950 . S
H1233 C1245 0.950 . S
H1234 C1242 0.950 . S
H1235 C1244 0.950 . S
H1236 C1246 0.950 . S
H1237 C1248 0.950 . S
H1238 C1250 0.950 . S
H1239 C1251 0.950 . S
C1240 H1232 0.950 . S
C1240 C1241 1.386 . S
C1240 C1242 1.391 . S
C1241 C1240 1.386 . S
C1241 C1245 1.393 . S
C1242 H1234 0.950 . S
C1242 C1240 1.391 . S
C1242 C1243 1.400 . S
C1243 C1242 1.400 . S
C1243 C1244 1.398 . S
C1243 C1249 1.491 . S
C1244 H1235 0.950 . S
C1244 C1243 1.398 . S
C1244 C1245 1.391 . S
C1245 H1233 0.950 . S
C1245 C1241 1.393 . S
C1245 C1244 1.391 . S
C1246 H1236 0.950 . S
C1246 C1247 1.386 . S
C1246 C1248 1.391 . S
C1247 C1246 1.386 . S
C1247 C1251 1.393 . S
C1248 H1237 0.950 . S
C1248 C1246 1.391 . S
C1248 C1249 1.400 . S
C1249 C1243 1.491 . S
C1249 C1248 1.400 . S
C1249 C1250 1.398 . S
C1250 H1238 0.950 . S
C1250 C1249 1.398 . S
C1250 C1251 1.391 . S
C1251 H1239 0.950 . S
C1251 C1247 1.393 . S
C1251 C1250 1.391 . S
H1252 C1260 0.950 . S
H1253 C1265 0.950 . S
H1254 C1262 0.950 . S
H1255 C1264 0.950 . S
H1256 C1266 0.950 . S
H1257 C1268 0.950 . S
H1258 C1270 0.950 . S
H1259 C1271 0.950 . S
C1260 H1252 0.950 . S
C1260 C1261 1.386 . S
C1260 C1262 1.391 . S
C1261 C1260 1.386 . S
C1261 C1265 1.393 . S
C1262 H1254 0.950 . S
C1262 C1260 1.391 . S
C1262 C1263 1.400 . S
C1263 C1262 1.400 . S
C1263 C1264 1.398 . S
C1263 C1269 1.491 . S
C1264 H1255 0.950 . S
C1264 C1263 1.398 . S
C1264 C1265 1.391 . S
C1265 H1253 0.950 . S
C1265 C1261 1.393 . S
C1265 C1264 1.391 . S
C1266 H1256 0.950 . S
C1266 C1267 1.386 . S
C1266 C1268 1.391 . S
C1267 C1266 1.386 . S
C1267 C1271 1.393 . S
C1268 H1257 0.950 . S
C1268 C1266 1.391 . S
C1268 C1269 1.400 . S
C1269 C1263 1.491 . S
C1269 C1268 1.400 . S
C1269 C1270 1.398 . S
C1270 H1258 0.950 . S
C1270 C1269 1.398 . S
C1270 C1271 1.391 . S
C1271 H1259 0.950 . S
C1271 C1267 1.393 . S
C1271 C1270 1.391 . S
H1272 C1280 0.950 . S
H1273 C1285 0.950 . S
H1274 C1282 0.950 . S
H1275 C1284 0.950 . S
H1276 C1286 0.950 . S
H1277 C1288 0.950 . S
H1278 C1290 0.950 . S
H1279 C1291 0.950 . S
C1280 H1272 0.950 . S
C1280 C1281 1.386 . S
C1280 C1282 1.391 . S
C1281 C1280 1.386 . S
C1281 C1285 1.393 . S
C1282 H1274 0.950 . S
C1282 C1280 1.391 . S
C1282 C1283 1.400 . S
C1283 C1282 1.400 . S
C1283 C1284 1.398 . S
C1283 C1289 1.491 . S
C1284 H1275 0.950 . S
C1284 C1283 1.398 . S
C1284 C1285 1.391 . S
C1285 H1273 0.950 . S
C1285 C1281 1.393 . S
C1285 C1284 1.391 . S
C1286 H1276 0.950 . S
C1286 C1287 1.386 . S
C1286 C1288 1.391 . S
C1287 C1286 1.386 . S
C1287 C1291 1.393 . S
C1288 H1277 0.950 . S
C1288 C1286 1.391 . S
C1288 C1289 1.400 . S
C1289 C1283 1.491 . S
C1289 C1288 1.400 . S
C1289 C1290 1.398 . S
C1290 H1278 0.950 . S
C1290 C1289 1.398 . S
C1290 C1291 1.391 . S
C1291 H1279 0.950 . S
C1291 C1287 1.393 . S
C1291 C1290 1.391 . S
H1292 C1300 0.950 1_565 S
H1293 C1305 0.950 . S
H1294 C1302 0.950 . S
H1295 C1304 0.950 . S
H1296 C1306 0.950 . S
H1297 C1308 0.950 . S
H1298 C1310 0.950 . S
H1299 C1311 0.950 . S
C1300 H1292 0.950 1_545 S
C1300 C1301 1.386 . S
C1300 C1302 1.391 . S
C1301 C1300 1.386 . S
C1301 C1305 1.393 . S
C1302 H1294 0.950 . S
C1302 C1300 1.391 . S
C1302 C1303 1.400 . S
C1303 C1302 1.400 . S
C1303 C1304 1.398 . S
C1303 C1309 1.491 . S
C1304 H1295 0.950 . S
C1304 C1303 1.398 . S
C1304 C1305 1.391 . S
C1305 H1293 0.950 . S
C1305 C1301 1.393 . S
C1305 C1304 1.391 . S
C1306 H1296 0.950 . S
C1306 C1307 1.386 . S
C1306 C1308 1.391 . S
C1307 C1306 1.386 . S
C1307 C1311 1.393 . S
C1308 H1297 0.950 . S
C1308 C1306 1.391 . S
C1308 C1309 1.400 . S
C1309 C1303 1.491 . S
C1309 C1308 1.400 . S
C1309 C1310 1.398 . S
C1310 H1298 0.950 . S
C1310 C1309 1.398 . S
C1310 C1311 1.391 . S
C1311 H1299 0.950 . S
C1311 C1307 1.393 . S
C1311 C1310 1.391 . S
H1312 C1320 0.950 . S
H1313 C1325 0.950 . S
H1314 C1322 0.950 . S
H1315 C1324 0.950 . S
H1316 C1326 0.950 . S
H1317 C1328 0.950 . S
H1318 C1330 0.950 . S
H1319 C1331 0.950 . S
C1320 H1312 0.950 . S
C1320 C1321 1.386 . S
C1320 C1322 1.391 . S
C1321 C1320 1.386 . S
C1321 C1325 1.393 . S
C1322 H1314 0.950 . S
C1322 C1320 1.391 . S
C1322 C1323 1.400 . S
C1323 C1322 1.400 . S
C1323 C1324 1.398 . S
C1323 C1329 1.491 . S
C1324 H1315 0.950 . S
C1324 C1323 1.398 . S
C1324 C1325 1.391 . S
C1325 H1313 0.950 . S
C1325 C1321 1.393 . S
C1325 C1324 1.391 . S
C1326 H1316 0.950 . S
C1326 C1327 1.386 . S
C1326 C1328 1.391 . S
C1327 C1326 1.386 . S
C1327 C1331 1.393 . S
C1328 H1317 0.950 . S
C1328 C1326 1.391 . S
C1328 C1329 1.400 . S
C1329 C1323 1.491 . S
C1329 C1328 1.400 . S
C1329 C1330 1.398 . S
C1330 H1318 0.950 . S
C1330 C1329 1.398 . S
C1330 C1331 1.391 . S
C1331 H1319 0.950 . S
C1331 C1327 1.393 . S
C1331 C1330 1.391 . S
H1332 C1340 0.950 . S
H1333 C1345 0.950 1_655 S
H1334 C1342 0.950 . S
H1335 C1344 0.950 1_655 S
H1336 C1346 0.950 . S
H1337 C1348 0.950 . S
H1338 C1350 0.950 . S
H1339 C1351 0.950 . S
C1340 H1332 0.950 . S
C1340 C1341 1.386 . S
C1340 C1342 1.391 . S
C1341 C1340 1.386 . S
C1341 C1345 1.393 . S
C1342 H1334 0.950 . S
C1342 C1340 1.391 . S
C1342 C1343 1.400 . S
C1343 C1342 1.400 . S
C1343 C1344 1.398 . S
C1343 C1349 1.491 . S
C1344 H1335 0.950 1_455 S
C1344 C1343 1.398 . S
C1344 C1345 1.391 . S
C1345 H1333 0.950 1_455 S
C1345 C1341 1.393 . S
C1345 C1344 1.391 . S
C1346 H1336 0.950 . S
C1346 C1347 1.386 . S
C1346 C1348 1.391 . S
C1347 C1346 1.386 . S
C1347 C1351 1.393 . S
C1348 H1337 0.950 . S
C1348 C1346 1.391 . S
C1348 C1349 1.400 . S
C1349 C1343 1.491 . S
C1349 C1348 1.400 . S
C1349 C1350 1.398 . S
C1350 H1338 0.950 . S
C1350 C1349 1.398 . S
C1350 C1351 1.391 . S
C1351 H1339 0.950 . S
C1351 C1347 1.393 . S
C1351 C1350 1.391 . S
H1352 C1360 0.950 . S
H1353 C1365 0.950 . S
H1354 C1362 0.950 . S
H1355 C1364 0.950 . S
H1356 C1366 0.950 . S
H1357 C1368 0.950 . S
H1358 C1370 0.950 . S
H1359 C1371 0.950 . S
C1360 H1352 0.950 . S
C1360 C1361 1.386 . S
C1360 C1362 1.391 . S
C1361 C1360 1.386 . S
C1361 C1365 1.393 . S
C1362 H1354 0.950 . S
C1362 C1360 1.391 . S
C1362 C1363 1.400 . S
C1363 C1362 1.400 . S
C1363 C1364 1.398 . S
C1363 C1369 1.491 . S
C1364 H1355 0.950 . S
C1364 C1363 1.398 . S
C1364 C1365 1.391 . S
C1365 H1353 0.950 . S
C1365 C1361 1.393 . S
C1365 C1364 1.391 . S
C1366 H1356 0.950 . S
C1366 C1367 1.386 . S
C1366 C1368 1.391 . S
C1367 C1366 1.386 . S
C1367 C1371 1.393 . S
C1368 H1357 0.950 . S
C1368 C1366 1.391 . S
C1368 C1369 1.400 . S
C1369 C1363 1.491 . S
C1369 C1368 1.400 . S
C1369 C1370 1.398 . S
C1370 H1358 0.950 . S
C1370 C1369 1.398 . S
C1370 C1371 1.391 . S
C1371 H1359 0.950 . S
C1371 C1367 1.393 . S
C1371 C1370 1.391 . S
H1372 C1380 0.950 . S
H1373 C1385 0.950 . S
H1374 C1382 0.950 . S
H1375 C1384 0.950 . S
H1376 C1386 0.950 1_545 S
H1377 C1388 0.950 . S
H1378 C1390 0.950 . S
H1379 C1391 0.950 . S
C1380 H1372 0.950 . S
C1380 C1381 1.386 . S
C1380 C1382 1.391 . S
C1381 C1380 1.386 . S
C1381 C1385 1.393 . S
C1382 H1374 0.950 . S
C1382 C1380 1.391 . S
C1382 C1383 1.400 . S
C1383 C1382 1.400 . S
C1383 C1384 1.398 . S
C1383 C1389 1.491 . S
C1384 H1375 0.950 . S
C1384 C1383 1.398 . S
C1384 C1385 1.391 . S
C1385 H1373 0.950 . S
C1385 C1381 1.393 . S
C1385 C1384 1.391 . S
C1386 H1376 0.950 1_565 S
C1386 C1387 1.386 . S
C1386 C1388 1.391 . S
C1387 C1386 1.386 . S
C1387 C1391 1.393 . S
C1388 H1377 0.950 . S
C1388 C1386 1.391 . S
C1388 C1389 1.400 . S
C1389 C1383 1.491 . S
C1389 C1388 1.400 . S
C1389 C1390 1.398 . S
C1390 H1378 0.950 . S
C1390 C1389 1.398 . S
C1390 C1391 1.391 . S
C1391 H1379 0.950 . S
C1391 C1387 1.393 . S
C1391 C1390 1.391 . S
H1392 C1400 0.950 . S
H1393 C1405 0.950 . S
H1394 C1402 0.950 . S
H1395 C1404 0.950 . S
H1396 C1406 0.950 . S
H1397 C1408 0.950 . S
H1398 C1410 0.950 . S
H1399 C1411 0.950 . S
C1400 H1392 0.950 . S
C1400 C1401 1.386 . S
C1400 C1402 1.391 . S
C1401 C1400 1.386 . S
C1401 C1405 1.393 . S
C1402 H1394 0.950 . S
C1402 C1400 1.391 . S
C1402 C1403 1.400 . S
C1403 C1402 1.400 . S
C1403 C1404 1.398 . S
C1403 C1409 1.491 . S
C1404 H1395 0.950 . S
C1404 C1403 1.398 . S
C1404 C1405 1.391 . S
C1405 H1393 0.950 . S
C1405 C1401 1.393 . S
C1405 C1404 1.391 . S
C1406 H1396 0.950 . S
C1406 C1407 1.386 . S
C1406 C1408 1.391 . S
C1407 C1406 1.386 . S
C1407 C1411 1.393 . S
C1408 H1397 0.950 . S
C1408 C1406 1.391 . S
C1408 C1409 1.400 . S
C1409 C1403 1.491 . S
C1409 C1408 1.400 . S
C1409 C1410 1.398 . S
C1410 H1398 0.950 . S
C1410 C1409 1.398 . S
C1410 C1411 1.391 . S
C1411 H1399 0.950 . S
C1411 C1407 1.393 . S
C1411 C1410 1.391 . S
H1412 C1420 0.950 . S
H1413 C1425 0.950 . S
H1414 C1422 0.950 . S
H1415 C1424 0.950 . S
H1416 C1426 0.950 . S
H1417 C1428 0.950 . S
H1418 C1430 0.950 . S
H1419 C1431 0.950 . S
C1420 H1412 0.950 . S
C1420 C1421 1.386 . S
C1420 C1422 1.391 . S
C1421 C1420 1.386 . S
C1421 C1425 1.393 . S
C1422 H1414 0.950 . S
C1422 C1420 1.391 . S
C1422 C1423 1.400 . S
C1423 C1422 1.400 . S
C1423 C1424 1.398 . S
C1423 C1429 1.491 . S
C1424 H1415 0.950 . S
C1424 C1423 1.398 . S
C1424 C1425 1.391 . S
C1425 H1413 0.950 . S
C1425 C1421 1.393 . S
C1425 C1424 1.391 . S
C1426 H1416 0.950 . S
C1426 C1427 1.386 . S
C1426 C1428 1.391 . S
C1427 C1426 1.386 . S
C1427 C1431 1.393 . S
C1428 H1417 0.950 . S
C1428 C1426 1.391 . S
C1428 C1429 1.400 . S
C1429 C1423 1.491 . S
C1429 C1428 1.400 . S
C1429 C1430 1.398 . S
C1430 H1418 0.950 . S
C1430 C1429 1.398 . S
C1430 C1431 1.391 . S
C1431 H1419 0.950 . S
C1431 C1427 1.393 . S
C1431 C1430 1.391 . S
H1432 C1440 0.950 . S
H1433 C1445 0.950 . S
H1434 C1442 0.950 . S
H1435 C1444 0.950 . S
H1436 C1446 0.950 . S
H1437 C1448 0.950 . S
H1438 C1450 0.950 . S
H1439 C1451 0.950 . S
C1440 H1432 0.950 . S
C1440 C1441 1.386 . S
C1440 C1442 1.391 . S
C1441 C1440 1.386 . S
C1441 C1445 1.393 . S
C1442 H1434 0.950 . S
C1442 C1440 1.391 . S
C1442 C1443 1.400 . S
C1443 C1442 1.400 . S
C1443 C1444 1.398 . S
C1443 C1449 1.491 . S
C1444 H1435 0.950 . S
C1444 C1443 1.398 . S
C1444 C1445 1.391 . S
C1445 H1433 0.950 . S
C1445 C1441 1.393 . S
C1445 C1444 1.391 . S
C1446 H1436 0.950 . S
C1446 C1447 1.386 . S
C1446 C1448 1.391 . S
C1447 C1446 1.386 . S
C1447 C1451 1.393 . S
C1448 H1437 0.950 . S
C1448 C1446 1.391 . S
C1448 C1449 1.400 . S
C1449 C1443 1.491 . S
C1449 C1448 1.400 . S
C1449 C1450 1.398 . S
C1450 H1438 0.950 . S
C1450 C1449 1.398 . S
C1450 C1451 1.391 . S
C1451 H1439 0.950 . S
C1451 C1447 1.393 . S
C1451 C1450 1.391 . S
H1452 C1460 0.950 . S
H1453 C1465 0.950 . S
H1454 C1462 0.950 . S
H1455 C1464 0.950 . S
H1456 C1466 0.950 1_545 S
H1457 C1468 0.950 . S
H1458 C1470 0.950 . S
H1459 C1471 0.950 1_655 S
C1460 H1452 0.950 . S
C1460 C1461 1.386 . S
C1460 C1462 1.391 . S
C1461 C1460 1.386 . S
C1461 C1465 1.393 . S
C1462 H1454 0.950 . S
C1462 C1460 1.391 . S
C1462 C1463 1.400 . S
C1463 C1462 1.400 . S
C1463 C1464 1.398 . S
C1463 C1469 1.491 . S
C1464 H1455 0.950 . S
C1464 C1463 1.398 . S
C1464 C1465 1.391 . S
C1465 H1453 0.950 . S
C1465 C1461 1.393 . S
C1465 C1464 1.391 . S
C1466 H1456 0.950 1_565 S
C1466 C1467 1.386 . S
C1466 C1468 1.391 . S
C1467 C1466 1.386 . S
C1467 C1471 1.393 . S
C1468 H1457 0.950 . S
C1468 C1466 1.391 . S
C1468 C1469 1.400 . S
C1469 C1463 1.491 . S
C1469 C1468 1.400 . S
C1469 C1470 1.398 . S
C1470 H1458 0.950 . S
C1470 C1469 1.398 . S
C1470 C1471 1.391 . S
C1471 H1459 0.950 1_455 S
C1471 C1467 1.393 . S
C1471 C1470 1.391 . S
H1472 C1480 0.950 . S
H1473 C1485 0.950 . S
H1474 C1482 0.950 . S
H1475 C1484 0.950 . S
H1476 C1486 0.950 . S
H1477 C1488 0.950 . S
H1478 C1490 0.950 . S
H1479 C1491 0.950 . S
C1480 H1472 0.950 . S
C1480 C1481 1.386 . S
C1480 C1482 1.391 . S
C1481 C1480 1.386 . S
C1481 C1485 1.393 . S
C1482 H1474 0.950 . S
C1482 C1480 1.391 . S
C1482 C1483 1.400 . S
C1483 C1482 1.400 . S
C1483 C1484 1.398 . S
C1483 C1489 1.491 . S
C1484 H1475 0.950 . S
C1484 C1483 1.398 . S
C1484 C1485 1.391 . S
C1485 H1473 0.950 . S
C1485 C1481 1.393 . S
C1485 C1484 1.391 . S
C1486 H1476 0.950 . S
C1486 C1487 1.386 . S
C1486 C1488 1.391 . S
C1487 C1486 1.386 . S
C1487 C1491 1.393 . S
C1488 H1477 0.950 . S
C1488 C1486 1.391 . S
C1488 C1489 1.400 . S
C1489 C1483 1.491 . S
C1489 C1488 1.400 . S
C1489 C1490 1.398 . S
C1490 H1478 0.950 . S
C1490 C1489 1.398 . S
C1490 C1491 1.391 . S
C1491 H1479 0.950 . S
C1491 C1487 1.393 . S
C1491 C1490 1.391 . S
H1492 C1500 0.950 . S
H1493 C1505 0.950 . S
H1494 C1502 0.950 . S
H1495 C1504 0.950 . S
H1496 C1506 0.950 . S
H1497 C1508 0.950 . S
H1498 C1510 0.950 . S
H1499 C1511 0.950 . S
C1500 H1492 0.950 . S
C1500 C1501 1.386 . S
C1500 C1502 1.391 . S
C1501 C1500 1.386 . S
C1501 C1505 1.393 . S
C1502 H1494 0.950 . S
C1502 C1500 1.391 . S
C1502 C1503 1.400 . S
C1503 C1502 1.400 . S
C1503 C1504 1.398 . S
C1503 C1509 1.491 . S
C1504 H1495 0.950 . S
C1504 C1503 1.398 . S
C1504 C1505 1.391 . S
C1505 H1493 0.950 . S
C1505 C1501 1.393 . S
C1505 C1504 1.391 . S
C1506 H1496 0.950 . S
C1506 C1507 1.386 . S
C1506 C1508 1.391 . S
C1507 C1506 1.386 . S
C1507 C1511 1.393 . S
C1508 H1497 0.950 . S
C1508 C1506 1.391 . S
C1508 C1509 1.400 . S
C1509 C1503 1.491 . S
C1509 C1508 1.400 . S
C1509 C1510 1.398 . S
C1510 H1498 0.950 . S
C1510 C1509 1.398 . S
C1510 C1511 1.391 . S
C1511 H1499 0.950 . S
C1511 C1507 1.393 . S
C1511 C1510 1.391 . S
H1512 C1520 0.950 . S
H1513 C1525 0.950 1_556 S
H1514 C1522 0.950 . S
H1515 C1524 0.950 1_556 S
H1516 C1526 0.950 . S
H1517 C1528 0.950 . S
H1518 C1530 0.950 . S
H1519 C1531 0.950 . S
C1520 H1512 0.950 . S
C1520 C1521 1.386 . S
C1520 C1522 1.391 . S
C1521 C1520 1.386 . S
C1521 C1525 1.393 . S
C1522 H1514 0.950 . S
C1522 C1520 1.391 . S
C1522 C1523 1.400 . S
C1523 C1522 1.400 . S
C1523 C1524 1.398 . S
C1523 C1529 1.491 . S
C1524 H1515 0.950 1_554 S
C1524 C1523 1.398 . S
C1524 C1525 1.391 . S
C1525 H1513 0.950 1_554 S
C1525 C1521 1.393 . S
C1525 C1524 1.391 . S
C1526 H1516 0.950 . S
C1526 C1527 1.386 . S
C1526 C1528 1.391 . S
C1527 C1526 1.386 . S
C1527 C1531 1.393 . S
C1528 H1517 0.950 . S
C1528 C1526 1.391 . S
C1528 C1529 1.400 . S
C1529 C1523 1.491 . S
C1529 C1528 1.400 . S
C1529 C1530 1.398 . S
C1530 H1518 0.950 . S
C1530 C1529 1.398 . S
C1530 C1531 1.391 . S
C1531 H1519 0.950 . S
C1531 C1527 1.393 . S
C1531 C1530 1.391 . S
H1532 C1540 0.950 . S
H1533 C1545 0.950 . S
H1534 C1542 0.950 . S
H1535 C1544 0.950 . S
H1536 C1546 0.950 . S
H1537 C1548 0.950 . S
H1538 C1550 0.950 . S
H1539 C1551 0.950 . S
C1540 H1532 0.950 . S
C1540 C1541 1.386 . S
C1540 C1542 1.391 . S
C1541 C1540 1.386 . S
C1541 C1545 1.393 . S
C1542 H1534 0.950 . S
C1542 C1540 1.391 . S
C1542 C1543 1.400 . S
C1543 C1542 1.400 . S
C1543 C1544 1.398 . S
C1543 C1549 1.491 . S
C1544 H1535 0.950 . S
C1544 C1543 1.398 . S
C1544 C1545 1.391 . S
C1545 H1533 0.950 . S
C1545 C1541 1.393 . S
C1545 C1544 1.391 . S
C1546 H1536 0.950 . S
C1546 C1547 1.386 . S
C1546 C1548 1.391 . S
C1547 C1546 1.386 . S
C1547 C1551 1.393 . S
C1548 H1537 0.950 . S
C1548 C1546 1.391 . S
C1548 C1549 1.400 . S
C1549 C1543 1.491 . S
C1549 C1548 1.400 . S
C1549 C1550 1.398 . S
C1550 H1538 0.950 . S
C1550 C1549 1.398 . S
C1550 C1551 1.391 . S
C1551 H1539 0.950 . S
C1551 C1547 1.393 . S
C1551 C1550 1.391 . S
H1552 C1560 0.950 . S
H1553 C1565 0.950 . S
H1554 C1562 0.950 . S
H1555 C1564 0.950 . S
H1556 C1566 0.950 1_455 S
H1557 C1568 0.950 . S
H1558 C1570 0.950 . S
H1559 C1571 0.980 . S
C1560 H1552 0.950 . S
C1560 C1561 1.386 . S
C1560 C1562 1.391 . S
C1561 C1560 1.386 . S
C1561 C1565 1.393 . S
C1562 H1554 0.950 . S
C1562 C1560 1.391 . S
C1562 C1563 1.400 . S
C1563 C1562 1.400 . S
C1563 C1564 1.398 . S
C1563 C1569 1.491 . S
C1564 H1555 0.950 . S
C1564 C1563 1.398 . S
C1564 C1565 1.391 . S
C1565 H1553 0.950 . S
C1565 C1561 1.393 . S
C1565 C1564 1.391 . S
C1566 H1556 0.950 1_655 S
C1566 C1567 1.386 . S
C1566 C1568 1.391 . S
C1567 C1566 1.386 . S
C1567 C1571 1.393 . S
C1568 H1557 0.950 . S
C1568 C1566 1.391 . S
C1568 C1569 1.400 . S
C1569 C1563 1.491 . S
C1569 C1568 1.400 . S
C1569 C1570 1.398 . S
C1570 H1558 0.950 . S
C1570 C1569 1.398 . S
C1570 C1571 1.391 . S
C1571 H1559 0.980 . S
C1571 C1567 1.393 . S
C1571 C1570 1.391 . S
H1572 C1580 0.950 . S
H1573 C1585 0.950 . S
H1574 C1582 0.950 . S
H1575 C1584 0.950 . S
H1576 C1586 0.950 . S
H1577 C1588 0.950 . S
H1578 C1590 0.950 . S
H1579 C1591 0.950 . S
C1580 H1572 0.950 . S
C1580 C1581 1.386 . S
C1580 C1582 1.391 . S
C1581 C1580 1.386 . S
C1581 C1585 1.393 . S
C1582 H1574 0.950 . S
C1582 C1580 1.391 . S
C1582 C1583 1.400 . S
C1583 C1582 1.400 . S
C1583 C1584 1.398 . S
C1583 C1589 1.491 . S
C1584 H1575 0.950 . S
C1584 C1583 1.398 . S
C1584 C1585 1.391 . S
C1585 H1573 0.950 . S
C1585 C1581 1.393 . S
C1585 C1584 1.391 . S
C1586 H1576 0.950 . S
C1586 C1587 1.386 . S
C1586 C1588 1.391 . S
C1587 C1586 1.386 . S
C1587 C1591 1.393 . S
C1588 H1577 0.950 . S
C1588 C1586 1.391 . S
C1588 C1589 1.400 . S
C1589 C1583 1.491 . S
C1589 C1588 1.400 . S
C1589 C1590 1.398 . S
C1590 H1578 0.950 . S
C1590 C1589 1.398 . S
C1590 C1591 1.391 . S
C1591 H1579 0.950 . S
C1591 C1587 1.393 . S
C1591 C1590 1.391 . S
H1592 C1600 0.950 . S
H1593 C1605 0.950 . S
H1594 C1602 0.950 . S
H1595 C1604 0.950 . S
H1596 C1606 0.950 . S
H1597 C1608 0.950 . S
H1598 C1610 0.950 . S
H1599 C1611 0.950 . S
C1600 H1592 0.950 . S
C1600 C1601 1.386 . S
C1600 C1602 1.391 . S
C1601 C1600 1.386 . S
C1601 C1605 1.393 . S
C1602 H1594 0.950 . S
C1602 C1600 1.391 . S
C1602 C1603 1.400 . S
C1603 C1602 1.400 . S
C1603 C1604 1.398 . S
C1603 C1609 1.491 . S
C1604 H1595 0.950 . S
C1604 C1603 1.398 . S
C1604 C1605 1.391 . S
C1605 H1593 0.950 . S
C1605 C1601 1.393 . S
C1605 C1604 1.391 . S
C1606 H1596 0.950 . S
C1606 C1607 1.386 . S
C1606 C1608 1.391 . S
C1607 C1606 1.386 . S
C1607 C1611 1.393 . S
C1608 H1597 0.950 . S
C1608 C1606 1.391 . S
C1608 C1609 1.400 . S
C1609 C1603 1.491 . S
C1609 C1608 1.400 . S
C1609 C1610 1.398 . S
C1610 H1598 0.950 . S
C1610 C1609 1.398 . S
C1610 C1611 1.391 . S
C1611 H1599 0.950 . S
C1611 C1607 1.393 . S
C1611 C1610 1.391 . S
H1612 C1620 0.950 . S
H1613 C1625 0.950 . S
H1614 C1622 0.950 . S
H1615 C1624 0.950 . S
H1616 C1626 0.950 . S
H1617 C1628 0.950 . S
H1618 C1630 0.950 . S
H1619 C1631 0.950 . S
C1620 H1612 0.950 . S
C1620 C1621 1.386 . S
C1620 C1622 1.391 . S
C1621 C1620 1.386 . S
C1621 C1625 1.393 . S
C1622 H1614 0.950 . S
C1622 C1620 1.391 . S
C1622 C1623 1.400 . S
C1623 C1622 1.400 . S
C1623 C1624 1.398 . S
C1623 C1629 1.491 . S
C1624 H1615 0.950 . S
C1624 C1623 1.398 . S
C1624 C1625 1.391 . S
C1625 H1613 0.950 . S
C1625 C1621 1.393 . S
C1625 C1624 1.391 . S
C1626 H1616 0.950 . S
C1626 C1627 1.386 . S
C1626 C1628 1.391 . S
C1627 C1626 1.386 . S
C1627 C1631 1.393 . S
C1628 H1617 0.950 . S
C1628 C1626 1.391 . S
C1628 C1629 1.400 . S
C1629 C1623 1.491 . S
C1629 C1628 1.400 . S
C1629 C1630 1.398 . S
C1630 H1618 0.950 . S
C1630 C1629 1.398 . S
C1630 C1631 1.391 . S
C1631 H1619 0.950 . S
C1631 C1627 1.393 . S
C1631 C1630 1.391 . S
H1632 C1640 0.950 . S
H1633 C1645 0.950 . S
H1634 C1642 0.950 . S
H1635 C1644 0.950 . S
H1636 C1646 0.950 . S
H1637 C1648 0.950 . S
H1638 C1650 0.950 . S
H1639 C1651 0.950 . S
C1640 H1632 0.950 . S
C1640 C1641 1.386 . S
C1640 C1642 1.391 . S
C1641 C1640 1.386 . S
C1641 C1645 1.393 . S
C1642 H1634 0.950 . S
C1642 C1640 1.391 . S
C1642 C1643 1.400 . S
C1643 C1642 1.400 . S
C1643 C1644 1.398 . S
C1643 C1649 1.491 . S
C1644 H1635 0.950 . S
C1644 C1643 1.398 . S
C1644 C1645 1.391 . S
C1645 H1633 0.950 . S
C1645 C1641 1.393 . S
C1645 C1644 1.391 . S
C1646 H1636 0.950 . S
C1646 C1647 1.386 . S
C1646 C1648 1.391 . S
C1647 C1646 1.386 . S
C1647 C1651 1.393 . S
C1648 H1637 0.950 . S
C1648 C1646 1.391 . S
C1648 C1649 1.400 . S
C1649 C1643 1.491 . S
C1649 C1648 1.400 . S
C1649 C1650 1.398 . S
C1650 H1638 0.950 . S
C1650 C1649 1.398 . S
C1650 C1651 1.391 . S
C1651 H1639 0.950 . S
C1651 C1647 1.393 . S
C1651 C1650 1.391 . S
H1652 C1660 0.950 . S
H1653 C1665 0.950 . S
H1654 C1662 0.950 . S
H1655 C1664 0.950 . S
H1656 C1666 0.950 . S
H1657 C1668 0.950 . S
H1658 C1670 0.950 . S
H1659 C1671 0.989 . S
C1660 H1652 0.950 . S
C1660 C1661 1.386 . S
C1660 C1662 1.391 . S
C1661 C1660 1.386 . S
C1661 C1665 1.393 . S
C1662 H1654 0.950 . S
C1662 C1660 1.391 . S
C1662 C1663 1.400 . S
C1663 C1662 1.400 . S
C1663 C1664 1.398 . S
C1663 C1669 1.491 . S
C1664 H1655 0.950 . S
C1664 C1663 1.398 . S
C1664 C1665 1.391 . S
C1665 H1653 0.950 . S
C1665 C1661 1.393 . S
C1665 C1664 1.391 . S
C1666 H1656 0.950 . S
C1666 C1667 1.386 . S
C1666 C1668 1.391 . S
C1667 C1666 1.386 . S
C1667 C1671 1.393 . S
C1668 H1657 0.950 . S
C1668 C1666 1.391 . S
C1668 C1669 1.400 . S
C1669 C1663 1.491 . S
C1669 C1668 1.400 . S
C1669 C1670 1.398 . S
C1670 H1658 0.950 . S
C1670 C1669 1.398 . S
C1670 C1671 1.391 . S
C1671 H1659 0.989 . S
C1671 C1667 1.393 . S
C1671 C1670 1.391 . S
H1672 C1680 0.950 . S
H1673 C1685 0.950 . S
H1674 C1682 0.950 . S
H1675 C1684 0.950 . S
H1676 C1686 0.950 . S
H1677 C1688 0.950 . S
H1678 C1690 0.950 . S
H1679 C1691 0.950 . S
C1680 H1672 0.950 . S
C1680 C1681 1.386 . S
C1680 C1682 1.391 . S
C1681 C1680 1.386 . S
C1681 C1685 1.393 . S
C1682 H1674 0.950 . S
C1682 C1680 1.391 . S
C1682 C1683 1.400 . S
C1683 C1682 1.400 . S
C1683 C1684 1.398 . S
C1683 C1689 1.491 . S
C1684 H1675 0.950 . S
C1684 C1683 1.398 . S
C1684 C1685 1.391 . S
C1685 H1673 0.950 . S
C1685 C1681 1.393 . S
C1685 C1684 1.391 . S
C1686 H1676 0.950 . S
C1686 C1687 1.386 . S
C1686 C1688 1.391 . S
C1687 C1686 1.386 . S
C1687 C1691 1.393 . S
C1688 H1677 0.950 . S
C1688 C1686 1.391 . S
C1688 C1689 1.400 . S
C1689 C1683 1.491 . S
C1689 C1688 1.400 . S
C1689 C1690 1.398 . S
C1690 H1678 0.950 . S
C1690 C1689 1.398 . S
C1690 C1691 1.391 . S
C1691 H1679 0.950 . S
C1691 C1687 1.393 . S
C1691 C1690 1.391 . S
H1692 C1700 0.950 . S
H1693 C1705 0.950 . S
H1694 C1702 0.950 . S
H1695 C1704 0.950 . S
H1696 C1706 0.950 . S
H1697 C1708 0.950 . S
H1698 C1710 0.950 . S
H1699 C1711 0.950 . S
C1700 H1692 0.950 . S
C1700 C1701 1.386 . S
C1700 C1702 1.391 . S
C1701 C1700 1.386 . S
C1701 C1705 1.393 . S
C1702 H1694 0.950 . S
C1702 C1700 1.391 . S
C1702 C1703 1.400 . S
C1703 C1702 1.400 . S
C1703 C1704 1.398 . S
C1703 C1709 1.491 . S
C1704 H1695 0.950 . S
C1704 C1703 1.398 . S
C1704 C1705 1.391 . S
C1705 H1693 0.950 . S
C1705 C1701 1.393 . S
C1705 C1704 1.391 . S
C1706 H1696 0.950 . S
C1706 C1707 1.386 . S
C1706 C1708 1.391 . S
C1707 C1706 1.386 . S
C1707 C1711 1.393 . S
C1708 H1697 0.950 . S
C1708 C1706 1.391 . S
C1708 C1709 1.400 . S
C1709 C1703 1.491 . S
C1709 C1708 1.400 . S
C1709 C1710 1.398 . S
C1710 H1698 0.950 . S
C1710 C1709 1.398 . S
C1710 C1711 1.391 . S
C1711 H1699 0.950 . S
C1711 C1707 1.393 . S
C1711 C1710 1.391 . S
H1712 C1720 0.950 . S
H1713 C1725 0.950 . S
H1714 C1722 0.950 . S
H1715 C1724 0.950 . S
H1716 C1726 0.950 . S
H1717 C1728 0.950 . S
H1718 C1730 0.950 . S
H1719 C1731 0.950 . S
C1720 H1712 0.950 . S
C1720 C1721 1.386 . S
C1720 C1722 1.391 . S
C1721 C1720 1.386 . S
C1721 C1725 1.393 . S
C1722 H1714 0.950 . S
C1722 C1720 1.391 . S
C1722 C1723 1.400 . S
C1723 C1722 1.400 . S
C1723 C1724 1.398 . S
C1723 C1729 1.491 . S
C1724 H1715 0.950 . S
C1724 C1723 1.398 . S
C1724 C1725 1.391 . S
C1725 H1713 0.950 . S
C1725 C1721 1.393 . S
C1725 C1724 1.391 . S
C1726 H1716 0.950 . S
C1726 C1727 1.386 . S
C1726 C1728 1.391 . S
C1727 C1726 1.386 . S
C1727 C1731 1.393 . S
C1728 H1717 0.950 . S
C1728 C1726 1.391 . S
C1728 C1729 1.400 . S
C1729 C1723 1.491 . S
C1729 C1728 1.400 . S
C1729 C1730 1.398 . S
C1730 H1718 0.950 . S
C1730 C1729 1.398 . S
C1730 C1731 1.391 . S
C1731 H1719 0.950 . S
C1731 C1727 1.393 . S
C1731 C1730 1.391 . S
H1732 C1740 0.950 . S
H1733 C1745 0.950 1_554 S
H1734 C1742 0.950 . S
H1735 C1744 0.950 . S
H1736 C1746 0.950 . S
H1737 C1748 0.950 . S
H1738 C1750 0.950 . S
H1739 C1751 0.950 . S
C1740 H1732 0.950 . S
C1740 C1741 1.386 . S
C1740 C1742 1.391 . S
C1741 C1740 1.386 . S
C1741 C1745 1.393 . S
C1742 H1734 0.950 . S
C1742 C1740 1.391 . S
C1742 C1743 1.400 . S
C1743 C1742 1.400 . S
C1743 C1744 1.398 . S
C1743 C1749 1.491 . S
C1744 H1735 0.950 . S
C1744 C1743 1.398 . S
C1744 C1745 1.391 . S
C1745 H1733 0.950 1_556 S
C1745 C1741 1.393 . S
C1745 C1744 1.391 . S
C1746 H1736 0.950 . S
C1746 C1747 1.386 . S
C1746 C1748 1.391 . S
C1747 C1746 1.386 . S
C1747 C1751 1.393 . S
C1748 H1737 0.950 . S
C1748 C1746 1.391 . S
C1748 C1749 1.400 . S
C1749 C1743 1.491 . S
C1749 C1748 1.400 . S
C1749 C1750 1.398 . S
C1750 H1738 0.950 . S
C1750 C1749 1.398 . S
C1750 C1751 1.391 . S
C1751 H1739 0.950 . S
C1751 C1747 1.393 . S
C1751 C1750 1.391 . S
H1752 C1760 0.950 . S
H1753 C1765 0.950 . S
H1754 C1762 0.950 . S
H1755 C1764 0.950 . S
H1756 C1766 0.950 . S
H1757 C1768 0.950 . S
H1758 C1770 0.950 . S
H1759 C1771 0.950 . S
C1760 H1752 0.950 . S
C1760 C1761 1.386 . S
C1760 C1762 1.391 . S
C1761 C1760 1.386 . S
C1761 C1765 1.393 . S
C1762 H1754 0.950 . S
C1762 C1760 1.391 . S
C1762 C1763 1.400 . S
C1763 C1762 1.400 . S
C1763 C1764 1.398 . S
C1763 C1769 1.491 . S
C1764 H1755 0.950 . S
C1764 C1763 1.398 . S
C1764 C1765 1.391 . S
C1765 H1753 0.950 . S
C1765 C1761 1.393 . S
C1765 C1764 1.391 . S
C1766 H1756 0.950 . S
C1766 C1767 1.386 . S
C1766 C1768 1.391 . S
C1767 C1766 1.386 . S
C1767 C1771 1.393 . S
C1768 H1757 0.950 . S
C1768 C1766 1.391 . S
C1768 C1769 1.400 . S
C1769 C1763 1.491 . S
C1769 C1768 1.400 . S
C1769 C1770 1.398 . S
C1770 H1758 0.950 . S
C1770 C1769 1.398 . S
C1770 C1771 1.391 . S
C1771 H1759 0.950 . S
C1771 C1767 1.393 . S
C1771 C1770 1.391 . S
H1772 C1780 0.950 . S
H1773 C1785 0.950 . S
H1774 C1782 0.950 . S
H1775 C1784 0.950 . S
H1776 C1786 0.950 . S
H1777 C1788 0.950 . S
H1778 C1790 0.950 . S
H1779 C1791 0.950 . S
C1780 H1772 0.950 . S
C1780 C1781 1.386 . S
C1780 C1782 1.391 . S
C1781 C1780 1.386 . S
C1781 C1785 1.393 . S
C1782 H1774 0.950 . S
C1782 C1780 1.391 . S
C1782 C1783 1.400 . S
C1783 C1782 1.400 . S
C1783 C1784 1.398 . S
C1783 C1789 1.491 . S
C1784 H1775 0.950 . S
C1784 C1783 1.398 . S
C1784 C1785 1.391 . S
C1785 H1773 0.950 . S
C1785 C1781 1.393 . S
C1785 C1784 1.391 . S
C1786 H1776 0.950 . S
C1786 C1787 1.386 . S
C1786 C1788 1.391 . S
C1787 C1786 1.386 . S
C1787 C1791 1.393 . S
C1788 H1777 0.950 . S
C1788 C1786 1.391 . S
C1788 C1789 1.400 . S
C1789 C1783 1.491 . S
C1789 C1788 1.400 . S
C1789 C1790 1.398 . S
C1790 H1778 0.950 . S
C1790 C1789 1.398 . S
C1790 C1791 1.391 . S
C1791 H1779 0.950 . S
C1791 C1787 1.393 . S
C1791 C1790 1.391 . S
H1792 C1800 0.950 . S
H1793 C1805 0.950 . S
H1794 C1802 0.950 . S
H1795 C1804 0.950 . S
H1796 C1806 0.950 . S
H1797 C1808 0.950 . S
H1798 C1810 0.950 . S
H1799 C1811 0.950 . S
C1800 H1792 0.950 . S
C1800 C1801 1.386 . S
C1800 C1802 1.391 . S
C1801 C1800 1.386 . S
C1801 C1805 1.393 . S
C1802 H1794 0.950 . S
C1802 C1800 1.391 . S
C1802 C1803 1.400 . S
C1803 C1802 1.400 . S
C1803 C1804 1.398 . S
C1803 C1809 1.491 . S
C1804 H1795 0.950 . S
C1804 C1803 1.398 . S
C1804 C1805 1.391 . S
C1805 H1793 0.950 . S
C1805 C1801 1.393 . S
C1805 C1804 1.391 . S
C1806 H1796 0.950 . S
C1806 C1807 1.386 . S
C1806 C1808 1.391 . S
C1807 C1806 1.386 . S
C1807 C1811 1.393 . S
C1808 H1797 0.950 . S
C1808 C1806 1.391 . S
C1808 C1809 1.400 . S
C1809 C1803 1.491 . S
C1809 C1808 1.400 . S
C1809 C1810 1.398 . S
C1810 H1798 0.950 . S
C1810 C1809 1.398 . S
C1810 C1811 1.391 . S
C1811 H1799 0.950 . S
C1811 C1807 1.393 . S
C1811 C1810 1.391 . S
H1812 C1820 0.950 . S
H1813 C1825 0.950 . S
H1814 C1822 0.950 . S
H1815 C1824 0.950 . S
H1816 C1826 0.950 . S
H1817 C1828 0.950 . S
H1818 C1830 0.950 . S
H1819 C1831 0.950 . S
C1820 H1812 0.950 . S
C1820 C1821 1.386 . S
C1820 C1822 1.391 . S
C1821 C1820 1.386 . S
C1821 C1825 1.393 . S
C1822 H1814 0.950 . S
C1822 C1820 1.391 . S
C1822 C1823 1.400 . S
C1823 C1822 1.400 . S
C1823 C1824 1.398 . S
C1823 C1829 1.491 . S
C1824 H1815 0.950 . S
C1824 C1823 1.398 . S
C1824 C1825 1.391 . S
C1825 H1813 0.950 . S
C1825 C1821 1.393 . S
C1825 C1824 1.391 . S
C1826 H1816 0.950 . S
C1826 C1827 1.386 . S
C1826 C1828 1.391 . S
C1827 C1826 1.386 . S
C1827 C1831 1.393 . S
C1828 H1817 0.950 . S
C1828 C1826 1.391 . S
C1828 C1829 1.400 . S
C1829 C1823 1.491 . S
C1829 C1828 1.400 . S
C1829 C1830 1.398 . S
C1830 H1818 0.950 . S
C1830 C1829 1.398 . S
C1830 C1831 1.391 . S
C1831 H1819 0.950 . S
C1831 C1827 1.393 . S
C1831 C1830 1.391 . S
H1832 C1840 0.950 . S
H1833 C1845 0.950 . S
H1834 C1842 0.950 . S
H1835 C1844 0.950 . S
H1836 C1846 0.950 . S
H1837 C1848 0.950 . S
H1838 C1850 0.950 . S
H1839 C1851 0.950 . S
C1840 H1832 0.950 . S
C1840 C1841 1.386 . S
C1840 C1842 1.391 . S
C1841 C1840 1.386 . S
C1841 C1845 1.393 . S
C1842 H1834 0.950 . S
C1842 C1840 1.391 . S
C1842 C1843 1.400 . S
C1843 C1842 1.400 . S
C1843 C1844 1.398 . S
C1843 C1849 1.491 . S
C1844 H1835 0.950 . S
C1844 C1843 1.398 . S
C1844 C1845 1.391 . S
C1845 H1833 0.950 . S
C1845 C1841 1.393 . S
C1845 C1844 1.391 . S
C1846 H1836 0.950 . S
C1846 C1847 1.386 . S
C1846 C1848 1.391 . S
C1847 C1846 1.386 . S
C1847 C1851 1.393 . S
C1848 H1837 0.950 . S
C1848 C1846 1.391 . S
C1848 C1849 1.400 . S
C1849 C1843 1.491 . S
C1849 C1848 1.400 . S
C1849 C1850 1.398 . S
C1850 H1838 0.950 . S
C1850 C1849 1.398 . S
C1850 C1851 1.391 . S
C1851 H1839 0.950 . S
C1851 C1847 1.393 . S
C1851 C1850 1.391 . S
H1852 C1860 0.950 1_455 S
H1853 C1865 0.950 . S
H1854 C1862 0.950 . S
H1855 C1864 0.950 . S
H1856 C1866 0.950 . S
H1857 C1868 0.950 . S
H1858 C1870 0.950 . S
H1859 C1871 0.950 . S
C1860 H1852 0.950 1_655 S
C1860 C1861 1.386 . S
C1860 C1862 1.391 . S
C1861 C1860 1.386 . S
C1861 C1865 1.393 . S
C1862 H1854 0.950 . S
C1862 C1860 1.391 . S
C1862 C1863 1.400 . S
C1863 C1862 1.400 . S
C1863 C1864 1.398 . S
C1863 C1869 1.491 . S
C1864 H1855 0.950 . S
C1864 C1863 1.398 . S
C1864 C1865 1.391 . S
C1865 H1853 0.950 . S
C1865 C1861 1.393 . S
C1865 C1864 1.391 . S
C1866 H1856 0.950 . S
C1866 C1867 1.386 . S
C1866 C1868 1.391 . S
C1867 C1866 1.386 . S
C1867 C1871 1.393 . S
C1868 H1857 0.950 . S
C1868 C1866 1.391 . S
C1868 C1869 1.400 . S
C1869 C1863 1.491 . S
C1869 C1868 1.400 . S
C1869 C1870 1.398 . S
C1870 H1858 0.950 . S
C1870 C1869 1.398 . S
C1870 C1871 1.391 . S
C1871 H1859 0.950 . S
C1871 C1867 1.393 . S
C1871 C1870 1.391 . S
H1872 C1880 0.950 . S
H1873 C1885 0.950 . S
H1874 C1882 0.950 . S
H1875 C1884 0.950 . S
H1876 C1886 0.950 . S
H1877 C1888 0.950 . S
H1878 C1890 0.950 . S
H1879 C1891 0.950 . S
C1880 H1872 0.950 . S
C1880 C1881 1.386 . S
C1880 C1882 1.391 . S
C1881 C1880 1.386 . S
C1881 C1885 1.393 . S
C1882 H1874 0.950 . S
C1882 C1880 1.391 . S
C1882 C1883 1.400 . S
C1883 C1882 1.400 . S
C1883 C1884 1.398 . S
C1883 C1889 1.491 . S
C1884 H1875 0.950 . S
C1884 C1883 1.398 . S
C1884 C1885 1.391 . S
C1885 H1873 0.950 . S
C1885 C1881 1.393 . S
C1885 C1884 1.391 . S
C1886 H1876 0.950 . S
C1886 C1887 1.386 . S
C1886 C1888 1.391 . S
C1887 C1886 1.386 . S
C1887 C1891 1.393 . S
C1888 H1877 0.950 . S
C1888 C1886 1.391 . S
C1888 C1889 1.400 . S
C1889 C1883 1.491 . S
C1889 C1888 1.400 . S
C1889 C1890 1.398 . S
C1890 H1878 0.950 . S
C1890 C1889 1.398 . S
C1890 C1891 1.391 . S
C1891 H1879 0.950 . S
C1891 C1887 1.393 . S
C1891 C1890 1.391 . S
H1892 C1900 0.950 1_455 S
H1893 C1905 0.950 . S
H1894 C1902 0.950 . S
H1895 C1904 0.950 . S
H1896 C1906 0.950 . S
H1897 C1908 0.950 . S
H1898 C1910 0.950 . S
H1899 C1911 0.950 . S
C1900 H1892 0.950 1_655 S
C1900 C1901 1.386 . S
C1900 C1902 1.391 . S
C1901 C1900 1.386 . S
C1901 C1905 1.393 . S
C1902 H1894 0.950 . S
C1902 C1900 1.391 . S
C1902 C1903 1.400 . S
C1903 C1902 1.400 . S
C1903 C1904 1.398 . S
C1903 C1909 1.491 . S
C1904 H1895 0.950 . S
C1904 C1903 1.398 . S
C1904 C1905 1.391 . S
C1905 H1893 0.950 . S
C1905 C1901 1.393 . S
C1905 C1904 1.391 . S
C1906 H1896 0.950 . S
C1906 C1907 1.386 . S
C1906 C1908 1.391 . S
C1907 C1906 1.386 . S
C1907 C1911 1.393 . S
C1908 H1897 0.950 . S
C1908 C1906 1.391 . S
C1908 C1909 1.400 . S
C1909 C1903 1.491 . S
C1909 C1908 1.400 . S
C1909 C1910 1.398 . S
C1910 H1898 0.950 . S
C1910 C1909 1.398 . S
C1910 C1911 1.391 . S
C1911 H1899 0.950 . S
C1911 C1907 1.393 . S
C1911 C1910 1.391 . S
H1912 C1920 0.950 . S
H1913 C1925 0.950 . S
H1914 C1922 0.950 . S
H1915 C1924 0.950 . S
H1916 C1926 0.950 . S
H1917 C1928 0.950 . S
H1918 C1930 0.950 . S
H1919 C1931 0.950 . S
C1920 H1912 0.950 . S
C1920 C1921 1.386 . S
C1920 C1922 1.391 . S
C1921 C1920 1.386 . S
C1921 C1925 1.393 . S
C1922 H1914 0.950 . S
C1922 C1920 1.391 . S
C1922 C1923 1.400 . S
C1923 C1922 1.400 . S
C1923 C1924 1.398 . S
C1923 C1929 1.491 . S
C1924 H1915 0.950 . S
C1924 C1923 1.398 . S
C1924 C1925 1.391 . S
C1925 H1913 0.950 . S
C1925 C1921 1.393 . S
C1925 C1924 1.391 . S
C1926 H1916 0.950 . S
C1926 C1927 1.386 . S
C1926 C1928 1.391 . S
C1927 C1926 1.386 . S
C1927 C1931 1.393 . S
C1928 H1917 0.950 . S
C1928 C1926 1.391 . S
C1928 C1929 1.400 . S
C1929 C1923 1.491 . S
C1929 C1928 1.400 . S
C1929 C1930 1.398 . S
C1930 H1918 0.950 . S
C1930 C1929 1.398 . S
C1930 C1931 1.391 . S
C1931 H1919 0.950 . S
C1931 C1927 1.393 . S
C1931 C1930 1.391 . S
H1932 C1940 0.950 . S
H1933 C1945 0.950 . S
H1934 C1942 0.950 . S
H1935 C1944 0.950 . S
H1936 C1946 0.950 . S
H1937 C1948 0.950 . S
H1938 C1950 0.950 . S
H1939 C1951 0.950 . S
C1940 H1932 0.950 . S
C1940 C1941 1.386 . S
C1940 C1942 1.391 . S
C1941 C1940 1.386 . S
C1941 C1945 1.393 . S
C1942 H1934 0.950 . S
C1942 C1940 1.391 . S
C1942 C1943 1.400 . S
C1943 C1942 1.400 . S
C1943 C1944 1.398 . S
C1943 C1949 1.491 . S
C1944 H1935 0.950 . S
C1944 C1943 1.398 . S
C1944 C1945 1.391 . S
C1945 H1933 0.950 . S
C1945 C1941 1.393 . S
C1945 C1944 1.391 . S
C1946 H1936 0.950 . S
C1946 C1947 1.386 . S
C1946 C1948 1.391 . S
C1947 C1946 1.386 . S
C1947 C1951 1.393 . S
C1948 H1937 0.950 . S
C1948 C1946 1.391 . S
C1948 C1949 1.400 . S
C1949 C1943 1.491 . S
C1949 C1948 1.400 . S
C1949 C1950 1.398 . S
C1950 H1938 0.950 . S
C1950 C1949 1.398 . S
C1950 C1951 1.391 . S
C1951 H1939 0.950 . S
C1951 C1947 1.393 . S
C1951 C1950 1.391 . S
H1952 C1960 0.950 . S
H1953 C1965 0.950 . S
H1954 C1962 0.950 . S
H1955 C1964 0.950 . S
H1956 C1966 0.950 . S
H1957 C1968 0.950 . S
H1958 C1970 0.950 . S
H1959 C1971 0.950 . S
C1960 H1952 0.950 . S
C1960 C1961 1.386 . S
C1960 C1962 1.391 . S
C1961 C1960 1.386 . S
C1961 C1965 1.393 . S
C1962 H1954 0.950 . S
C1962 C1960 1.391 . S
C1962 C1963 1.400 . S
C1963 C1962 1.400 . S
C1963 C1964 1.398 . S
C1963 C1969 1.491 . S
C1964 H1955 0.950 . S
C1964 C1963 1.398 . S
C1964 C1965 1.391 . S
C1965 H1953 0.950 . S
C1965 C1961 1.393 . S
C1965 C1964 1.391 . S
C1966 H1956 0.950 . S
C1966 C1967 1.386 . S
C1966 C1968 1.391 . S
C1967 C1966 1.386 . S
C1967 C1971 1.393 . S
C1968 H1957 0.950 . S
C1968 C1966 1.391 . S
C1968 C1969 1.400 . S
C1969 C1963 1.491 . S
C1969 C1968 1.400 . S
C1969 C1970 1.398 . S
C1970 H1958 0.950 . S
C1970 C1969 1.398 . S
C1970 C1971 1.391 . S
C1971 H1959 0.950 . S
C1971 C1967 1.393 . S
C1971 C1970 1.391 . S
H1972 C1980 0.950 . S
H1973 C1985 0.950 . S
H1974 C1982 0.950 . S
H1975 C1984 0.950 . S
H1976 C1986 0.950 . S
H1977 C1988 0.950 . S
H1978 C1990 0.950 . S
H1979 C1991 0.950 . S
C1980 H1972 0.950 . S
C1980 C1981 1.386 . S
C1980 C1982 1.391 . S
C1981 C1980 1.386 . S
C1981 C1985 1.393 . S
C1982 H1974 0.950 . S
C1982 C1980 1.391 . S
C1982 C1983 1.400 . S
C1983 C1982 1.400 . S
C1983 C1984 1.398 . S
C1983 C1989 1.491 . S
C1984 H1975 0.950 . S
C1984 C1983 1.398 . S
C1984 C1985 1.391 . S
C1985 H1973 0.950 . S
C1985 C1981 1.393 . S
C1985 C1984 1.391 . S
C1986 H1976 0.950 . S
C1986 C1987 1.386 . S
C1986 C1988 1.391 . S
C1987 C1986 1.386 . S
C1987 C1991 1.393 . S
C1988 H1977 0.950 . S
C1988 C1986 1.391 . S
C1988 C1989 1.400 . S
C1989 C1983 1.491 . S
C1989 C1988 1.400 . S
C1989 C1990 1.398 . S
C1990 H1978 0.950 . S
C1990 C1989 1.398 . S
C1990 C1991 1.391 . S
C1991 H1979 0.950 . S
C1991 C1987 1.393 . S
C1991 C1990 1.391 . S
H1992 C2000 0.950 . S
H1993 C2005 0.950 . S
H1994 C2002 0.950 . S
H1995 C2004 0.950 . S
H1996 C2006 0.950 . S
H1997 C2008 0.950 . S
H1998 C2010 0.950 . S
H1999 C2011 0.950 . S
C2000 H1992 0.950 . S
C2000 C2001 1.386 . S
C2000 C2002 1.391 . S
C2001 C2000 1.386 . S
C2001 C2005 1.393 . S
C2002 H1994 0.950 . S
C2002 C2000 1.391 . S
C2002 C2003 1.400 . S
C2003 C2002 1.400 . S
C2003 C2004 1.398 . S
C2003 C2009 1.491 . S
C2004 H1995 0.950 . S
C2004 C2003 1.398 . S
C2004 C2005 1.391 . S
C2005 H1993 0.950 . S
C2005 C2001 1.393 . S
C2005 C2004 1.391 . S
C2006 H1996 0.950 . S
C2006 C2007 1.386 . S
C2006 C2008 1.391 . S
C2007 C2006 1.386 . S
C2007 C2011 1.393 . S
C2008 H1997 0.950 . S
C2008 C2006 1.391 . S
C2008 C2009 1.400 . S
C2009 C2003 1.491 . S
C2009 C2008 1.400 . S
C2009 C2010 1.398 . S
C2010 H1998 0.950 . S
C2010 C2009 1.398 . S
C2010 C2011 1.391 . S
C2011 H1999 0.950 . S
C2011 C2007 1.393 . S
C2011 C2010 1.391 . S
H2012 C2020 0.950 . S
H2013 C2025 0.950 . S
H2014 C2022 0.950 . S
H2015 C2024 0.950 . S
H2016 C2026 0.950 . S
H2017 C2028 0.950 . S
H2018 C2030 0.950 . S
H2019 C2031 0.950 . S
C2020 H2012 0.950 . S
C2020 C2021 1.386 . S
C2020 C2022 1.391 . S
C2021 C2020 1.386 . S
C2021 C2025 1.393 . S
C2022 H2014 0.950 . S
C2022 C2020 1.391 . S
C2022 C2023 1.400 . S
C2023 C2022 1.400 . S
C2023 C2024 1.398 . S
C2023 C2029 1.491 . S
C2024 H2015 0.950 . S
C2024 C2023 1.398 . S
C2024 C2025 1.391 . S
C2025 H2013 0.950 . S
C2025 C2021 1.393 . S
C2025 C2024 1.391 . S
C2026 H2016 0.950 . S
C2026 C2027 1.386 . S
C2026 C2028 1.391 . S
C2027 C2026 1.386 . S
C2027 C2031 1.393 . S
C2028 H2017 0.950 . S
C2028 C2026 1.391 . S
C2028 C2029 1.400 . S
C2029 C2023 1.491 . S
C2029 C2028 1.400 . S
C2029 C2030 1.398 . S
C2030 H2018 0.950 . S
C2030 C2029 1.398 . S
C2030 C2031 1.391 . S
C2031 H2019 0.950 . S
C2031 C2027 1.393 . S
C2031 C2030 1.391 . S
H2032 C2040 0.950 . S
H2033 C2045 0.950 . S
H2034 C2042 0.950 . S
H2035 C2044 0.950 . S
H2036 C2046 0.950 . S
H2037 C2048 0.950 . S
H2038 C2050 0.950 . S
H2039 C2051 0.950 . S
C2040 H2032 0.950 . S
C2040 C2041 1.386 . S
C2040 C2042 1.391 . S
C2041 C2040 1.386 . S
C2041 C2045 1.393 . S
C2042 H2034 0.950 . S
C2042 C2040 1.391 . S
C2042 C2043 1.400 . S
C2043 C2042 1.400 . S
C2043 C2044 1.398 . S
C2043 C2049 1.491 . S
C2044 H2035 0.950 . S
C2044 C2043 1.398 . S
C2044 C2045 1.391 . S
C2045 H2033 0.950 . S
C2045 C2041 1.393 . S
C2045 C2044 1.391 . S
C2046 H2036 0.950 . S
C2046 C2047 1.386 . S
C2046 C2048 1.391 . S
C2047 C2046 1.386 . S
C2047 C2051 1.393 . S
C2048 H2037 0.950 . S
C2048 C2046 1.391 . S
C2048 C2049 1.400 . S
C2049 C2043 1.491 . S
C2049 C2048 1.400 . S
C2049 C2050 1.398 . S
C2050 H2038 0.950 . S
C2050 C2049 1.398 . S
C2050 C2051 1.391 . S
C2051 H2039 0.950 . S
C2051 C2047 1.393 . S
C2051 C2050 1.391 . S
H2052 C2060 0.950 . S
H2053 C2065 0.950 . S
H2054 C2062 0.950 . S
H2055 C2064 0.950 . S
H2056 C2066 0.950 . S
H2057 C2068 0.950 . S
H2058 C2070 0.950 . S
H2059 C2071 0.950 . S
C2060 H2052 0.950 . S
C2060 C2061 1.386 . S
C2060 C2062 1.391 . S
C2061 C2060 1.386 . S
C2061 C2065 1.393 . S
C2062 H2054 0.950 . S
C2062 C2060 1.391 . S
C2062 C2063 1.400 . S
C2063 C2062 1.400 . S
C2063 C2064 1.398 . S
C2063 C2069 1.491 . S
C2064 H2055 0.950 . S
C2064 C2063 1.398 . S
C2064 C2065 1.391 . S
C2065 H2053 0.950 . S
C2065 C2061 1.393 . S
C2065 C2064 1.391 . S
C2066 H2056 0.950 . S
C2066 C2067 1.386 . S
C2066 C2068 1.391 . S
C2067 C2066 1.386 . S
C2067 C2071 1.393 . S
C2068 H2057 0.950 . S
C2068 C2066 1.391 . S
C2068 C2069 1.400 . S
C2069 C2063 1.491 . S
C2069 C2068 1.400 . S
C2069 C2070 1.398 . S
C2070 H2058 0.950 . S
C2070 C2069 1.398 . S
C2070 C2071 1.391 . S
C2071 H2059 0.950 . S
C2071 C2067 1.393 . S
C2071 C2070 1.391 . S
H2072 C2080 0.950 . S
H2073 C2085 0.950 . S
H2074 C2082 0.950 . S
H2075 C2084 0.950 . S
H2076 C2086 0.950 . S
H2077 C2088 0.950 . S
H2078 C2090 0.950 . S
H2079 C2091 0.950 . S
C2080 H2072 0.950 . S
C2080 C2081 1.386 . S
C2080 C2082 1.391 . S
C2081 C2080 1.386 . S
C2081 C2085 1.393 . S
C2082 H2074 0.950 . S
C2082 C2080 1.391 . S
C2082 C2083 1.400 . S
C2083 C2082 1.400 . S
C2083 C2084 1.398 . S
C2083 C2089 1.491 . S
C2084 H2075 0.950 . S
C2084 C2083 1.398 . S
C2084 C2085 1.391 . S
C2085 H2073 0.950 . S
C2085 C2081 1.393 . S
C2085 C2084 1.391 . S
C2086 H2076 0.950 . S
C2086 C2087 1.386 . S
C2086 C2088 1.391 . S
C2087 C2086 1.386 . S
C2087 C2091 1.393 . S
C2088 H2077 0.950 . S
C2088 C2086 1.391 . S
C2088 C2089 1.400 . S
C2089 C2083 1.491 . S
C2089 C2088 1.400 . S
C2089 C2090 1.398 . S
C2090 H2078 0.950 . S
C2090 C2089 1.398 . S
C2090 C2091 1.391 . S
C2091 H2079 0.950 . S
C2091 C2087 1.393 . S
C2091 C2090 1.391 . S
H2092 C2100 0.950 . S
H2093 C2105 0.950 . S
H2094 C2102 0.950 . S
H2095 C2104 0.950 . S
H2096 C2106 0.950 . S
H2097 C2108 0.950 . S
H2098 C2110 0.950 . S
H2099 C2111 0.950 . S
C2100 H2092 0.950 . S
C2100 C2101 1.386 . S
C2100 C2102 1.391 . S
C2101 C2100 1.386 . S
C2101 C2105 1.393 . S
C2102 H2094 0.950 . S
C2102 C2100 1.391 . S
C2102 C2103 1.400 . S
C2103 C2102 1.400 . S
C2103 C2104 1.398 . S
C2103 C2109 1.491 . S
C2104 H2095 0.950 . S
C2104 C2103 1.398 . S
C2104 C2105 1.391 . S
C2105 H2093 0.950 . S
C2105 C2101 1.393 . S
C2105 C2104 1.391 . S
C2106 H2096 0.950 . S
C2106 C2107 1.386 . S
C2106 C2108 1.391 . S
C2107 C2106 1.386 . S
C2107 C2111 1.393 . S
C2108 H2097 0.950 . S
C2108 C2106 1.391 . S
C2108 C2109 1.400 . S
C2109 C2103 1.491 . S
C2109 C2108 1.400 . S
C2109 C2110 1.398 . S
C2110 H2098 0.950 . S
C2110 C2109 1.398 . S
C2110 C2111 1.391 . S
C2111 H2099 0.950 . S
C2111 C2107 1.393 . S
C2111 C2110 1.391 . S
H2112 C2120 0.950 . S
H2113 C2125 0.950 . S
H2114 C2122 0.950 . S
H2115 C2124 0.950 . S
H2116 C2126 0.950 . S
H2117 C2128 0.950 . S
H2118 C2130 0.950 . S
H2119 C2131 0.950 . S
C2120 H2112 0.950 . S
C2120 C2121 1.386 . S
C2120 C2122 1.391 . S
C2121 C2120 1.386 . S
C2121 C2125 1.393 . S
C2122 H2114 0.950 . S
C2122 C2120 1.391 . S
C2122 C2123 1.400 . S
C2123 C2122 1.400 . S
C2123 C2124 1.398 . S
C2123 C2129 1.491 . S
C2124 H2115 0.950 . S
C2124 C2123 1.398 . S
C2124 C2125 1.391 . S
C2125 H2113 0.950 . S
C2125 C2121 1.393 . S
C2125 C2124 1.391 . S
C2126 H2116 0.950 . S
C2126 C2127 1.386 . S
C2126 C2128 1.391 . S
C2127 C2126 1.386 . S
C2127 C2131 1.393 . S
C2128 H2117 0.950 . S
C2128 C2126 1.391 . S
C2128 C2129 1.400 . S
C2129 C2123 1.491 . S
C2129 C2128 1.400 . S
C2129 C2130 1.398 . S
C2130 H2118 0.950 . S
C2130 C2129 1.398 . S
C2130 C2131 1.391 . S
C2131 H2119 0.950 . S
C2131 C2127 1.393 . S
C2131 C2130 1.391 . S
H2132 C2140 0.950 . S
H2133 C2145 0.950 . S
H2134 C2142 0.950 . S
H2135 C2144 0.950 . S
H2136 C2146 0.950 . S
H2137 C2148 0.950 . S
H2138 C2150 0.950 . S
H2139 C2151 0.950 . S
C2140 H2132 0.950 . S
C2140 C2141 1.386 . S
C2140 C2142 1.391 . S
C2141 C2140 1.386 . S
C2141 C2145 1.393 . S
C2142 H2134 0.950 . S
C2142 C2140 1.391 . S
C2142 C2143 1.400 . S
C2143 C2142 1.400 . S
C2143 C2144 1.398 . S
C2143 C2149 1.491 . S
C2144 H2135 0.950 . S
C2144 C2143 1.398 . S
C2144 C2145 1.391 . S
C2145 H2133 0.950 . S
C2145 C2141 1.393 . S
C2145 C2144 1.391 . S
C2146 H2136 0.950 . S
C2146 C2147 1.386 . S
C2146 C2148 1.391 . S
C2147 C2146 1.386 . S
C2147 C2151 1.393 . S
C2148 H2137 0.950 . S
C2148 C2146 1.391 . S
C2148 C2149 1.400 . S
C2149 C2143 1.491 . S
C2149 C2148 1.400 . S
C2149 C2150 1.398 . S
C2150 H2138 0.950 . S
C2150 C2149 1.398 . S
C2150 C2151 1.391 . S
C2151 H2139 0.950 . S
C2151 C2147 1.393 . S
C2151 C2150 1.391 . S
H2152 C2160 0.950 . S
H2153 C2165 0.950 . S
H2154 C2162 0.950 . S
H2155 C2164 0.950 . S
H2156 C2166 0.950 . S
H2157 C2168 0.950 . S
H2158 C2170 0.950 . S
H2159 C2171 0.950 . S
C2160 H2152 0.950 . S
C2160 C2161 1.386 . S
C2160 C2162 1.391 . S
C2161 C2160 1.386 . S
C2161 C2165 1.393 . S
C2162 H2154 0.950 . S
C2162 C2160 1.391 . S
C2162 C2163 1.400 . S
C2163 C2162 1.400 . S
C2163 C2164 1.398 . S
C2163 C2169 1.491 . S
C2164 H2155 0.950 . S
C2164 C2163 1.398 . S
C2164 C2165 1.391 . S
C2165 H2153 0.950 . S
C2165 C2161 1.393 . S
C2165 C2164 1.391 . S
C2166 H2156 0.950 . S
C2166 C2167 1.386 . S
C2166 C2168 1.391 . S
C2167 C2166 1.386 . S
C2167 C2171 1.393 . S
C2168 H2157 0.950 . S
C2168 C2166 1.391 . S
C2168 C2169 1.400 . S
C2169 C2163 1.491 . S
C2169 C2168 1.400 . S
C2169 C2170 1.398 . S
C2170 H2158 0.950 . S
C2170 C2169 1.398 . S
C2170 C2171 1.391 . S
C2171 H2159 0.950 . S
C2171 C2167 1.393 . S
C2171 C2170 1.391 . S
H2172 C2180 0.950 . S
H2173 C2185 0.950 . S
H2174 C2182 0.950 . S
H2175 C2184 0.950 . S
H2176 C2186 0.950 . S
H2177 C2188 0.950 . S
H2178 C2190 0.950 . S
H2179 C2191 0.950 . S
C2180 H2172 0.950 . S
C2180 C2181 1.386 . S
C2180 C2182 1.391 . S
C2181 C2180 1.386 . S
C2181 C2185 1.393 . S
C2182 H2174 0.950 . S
C2182 C2180 1.391 . S
C2182 C2183 1.400 . S
C2183 C2182 1.400 . S
C2183 C2184 1.398 . S
C2183 C2189 1.491 . S
C2184 H2175 0.950 . S
C2184 C2183 1.398 . S
C2184 C2185 1.391 . S
C2185 H2173 0.950 . S
C2185 C2181 1.393 . S
C2185 C2184 1.391 . S
C2186 H2176 0.950 . S
C2186 C2187 1.386 . S
C2186 C2188 1.391 . S
C2187 C2186 1.386 . S
C2187 C2191 1.393 . S
C2188 H2177 0.950 . S
C2188 C2186 1.391 . S
C2188 C2189 1.400 . S
C2189 C2183 1.491 . S
C2189 C2188 1.400 . S
C2189 C2190 1.398 . S
C2190 H2178 0.950 . S
C2190 C2189 1.398 . S
C2190 C2191 1.391 . S
C2191 H2179 0.950 . S
C2191 C2187 1.393 . S
C2191 C2190 1.391 . S
H2192 C2200 0.950 . S
H2193 C2205 0.950 . S
H2194 C2202 0.950 . S
H2195 C2204 0.950 . S
H2196 C2206 0.950 . S
H2197 C2208 0.950 . S
H2198 C2210 0.950 . S
H2199 C2211 0.950 . S
C2200 H2192 0.950 . S
C2200 C2201 1.386 . S
C2200 C2202 1.391 . S
C2201 C2200 1.386 . S
C2201 C2205 1.393 . S
C2202 H2194 0.950 . S
C2202 C2200 1.391 . S
C2202 C2203 1.400 . S
C2203 C2202 1.400 . S
C2203 C2204 1.398 . S
C2203 C2209 1.491 . S
C2204 H2195 0.950 . S
C2204 C2203 1.398 . S
C2204 C2205 1.391 . S
C2205 H2193 0.950 . S
C2205 C2201 1.393 . S
C2205 C2204 1.391 . S
C2206 H2196 0.950 . S
C2206 C2207 1.386 . S
C2206 C2208 1.391 . S
C2207 C2206 1.386 . S
C2207 C2211 1.393 . S
C2208 H2197 0.950 . S
C2208 C2206 1.391 . S
C2208 C2209 1.400 . S
C2209 C2203 1.491 . S
C2209 C2208 1.400 . S
C2209 C2210 1.398 . S
C2210 H2198 0.950 . S
C2210 C2209 1.398 . S
C2210 C2211 1.391 . S
C2211 H2199 0.950 . S
C2211 C2207 1.393 . S
C2211 C2210 1.391 . S
H2212 C2220 0.950 . S
H2213 C2225 0.950 . S
H2214 C2222 0.950 . S
H2215 C2224 0.950 . S
H2216 C2226 0.950 . S
H2217 C2228 0.950 . S
H2218 C2230 0.950 . S
H2219 C2231 0.950 . S
C2220 H2212 0.950 . S
C2220 C2221 1.386 . S
C2220 C2222 1.391 . S
C2221 C2220 1.386 . S
C2221 C2225 1.393 . S
C2222 H2214 0.950 . S
C2222 C2220 1.391 . S
C2222 C2223 1.400 . S
C2223 C2222 1.400 . S
C2223 C2224 1.398 . S
C2223 C2229 1.491 . S
C2224 H2215 0.950 . S
C2224 C2223 1.398 . S
C2224 C2225 1.391 . S
C2225 H2213 0.950 . S
C2225 C2221 1.393 . S
C2225 C2224 1.391 . S
C2226 H2216 0.950 . S
C2226 C2227 1.386 . S
C2226 C2228 1.391 . S
C2227 C2226 1.386 . S
C2227 C2231 1.393 . S
C2228 H2217 0.950 . S
C2228 C2226 1.391 . S
C2228 C2229 1.400 . S
C2229 C2223 1.491 . S
C2229 C2228 1.400 . S
C2229 C2230 1.398 . S
C2230 H2218 0.950 . S
C2230 C2229 1.398 . S
C2230 C2231 1.391 . S
C2231 H2219 0.950 . S
C2231 C2227 1.393 . S
C2231 C2230 1.391 . S
H2232 C2240 0.950 . S
H2233 C2245 0.950 . S
H2234 C2242 0.950 . S
H2235 C2244 0.950 . S
H2236 C2246 0.950 . S
H2237 C2248 0.950 . S
H2238 C2250 0.950 . S
H2239 C2251 0.950 . S
C2240 H2232 0.950 . S
C2240 C2241 1.386 . S
C2240 C2242 1.391 . S
C2241 C2240 1.386 . S
C2241 C2245 1.393 . S
C2242 H2234 0.950 . S
C2242 C2240 1.391 . S
C2242 C2243 1.400 . S
C2243 C2242 1.400 . S
C2243 C2244 1.398 . S
C2243 C2249 1.491 . S
C2244 H2235 0.950 . S
C2244 C2243 1.398 . S
C2244 C2245 1.391 . S
C2245 H2233 0.950 . S
C2245 C2241 1.393 . S
C2245 C2244 1.391 . S
C2246 H2236 0.950 . S
C2246 C2247 1.386 . S
C2246 C2248 1.391 . S
C2247 C2246 1.386 . S
C2247 C2251 1.393 . S
C2248 H2237 0.950 . S
C2248 C2246 1.391 . S
C2248 C2249 1.400 . S
C2249 C2243 1.491 . S
C2249 C2248 1.400 . S
C2249 C2250 1.398 . S
C2250 H2238 0.950 . S
C2250 C2249 1.398 . S
C2250 C2251 1.391 . S
C2251 H2239 0.950 . S
C2251 C2247 1.393 . S
C2251 C2250 1.391 . S
H2252 C2260 0.950 . S
H2253 C2265 0.950 . S
H2254 C2262 0.950 . S
H2255 C2264 0.950 . S
H2256 C2266 0.950 . S
H2257 C2268 0.950 . S
H2258 C2270 0.950 . S
H2259 C2271 0.950 . S
C2260 H2252 0.950 . S
C2260 C2261 1.386 . S
C2260 C2262 1.391 . S
C2261 C2260 1.386 . S
C2261 C2265 1.393 . S
C2262 H2254 0.950 . S
C2262 C2260 1.391 . S
C2262 C2263 1.400 . S
C2263 C2262 1.400 . S
C2263 C2264 1.398 . S
C2263 C2269 1.491 . S
C2264 H2255 0.950 . S
C2264 C2263 1.398 . S
C2264 C2265 1.391 . S
C2265 H2253 0.950 . S
C2265 C2261 1.393 . S
C2265 C2264 1.391 . S
C2266 H2256 0.950 . S
C2266 C2267 1.386 . S
C2266 C2268 1.391 . S
C2267 C2266 1.386 . S
C2267 C2271 1.393 . S
C2268 H2257 0.950 . S
C2268 C2266 1.391 . S
C2268 C2269 1.400 . S
C2269 C2263 1.491 . S
C2269 C2268 1.400 . S
C2269 C2270 1.398 . S
C2270 H2258 0.950 . S
C2270 C2269 1.398 . S
C2270 C2271 1.391 . S
C2271 H2259 0.950 . S
C2271 C2267 1.393 . S
C2271 C2270 1.391 . S
H2272 C2280 0.950 . S
H2273 C2285 0.950 . S
H2274 C2282 0.950 . S
H2275 C2284 0.950 . S
H2276 C2286 0.950 . S
H2277 C2288 0.950 . S
H2278 C2290 0.950 . S
H2279 C2291 0.950 . S
C2280 H2272 0.950 . S
C2280 C2281 1.386 . S
C2280 C2282 1.391 . S
C2281 C2280 1.386 . S
C2281 C2285 1.393 . S
C2282 H2274 0.950 . S
C2282 C2280 1.391 . S
C2282 C2283 1.400 . S
C2283 C2282 1.400 . S
C2283 C2284 1.398 . S
C2283 C2289 1.491 . S
C2284 H2275 0.950 . S
C2284 C2283 1.398 . S
C2284 C2285 1.391 . S
C2285 H2273 0.950 . S
C2285 C2281 1.393 . S
C2285 C2284 1.391 . S
C2286 H2276 0.950 . S
C2286 C2287 1.386 . S
C2286 C2288 1.391 . S
C2287 C2286 1.386 . S
C2287 C2291 1.393 . S
C2288 H2277 0.950 . S
C2288 C2286 1.391 . S
C2288 C2289 1.400 . S
C2289 C2283 1.491 . S
C2289 C2288 1.400 . S
C2289 C2290 1.398 . S
C2290 H2278 0.950 . S
C2290 C2289 1.398 . S
C2290 C2291 1.391 . S
C2291 H2279 0.950 . S
C2291 C2287 1.393 . S
C2291 C2290 1.391 . S
H2292 C2300 0.950 . S
H2293 C2305 0.950 . S
H2294 C2302 0.950 . S
H2295 C2304 0.950 . S
H2296 C2306 0.950 . S
H2297 C2308 0.950 . S
H2298 C2310 0.950 . S
H2299 C2311 0.950 . S
C2300 H2292 0.950 . S
C2300 C2301 1.386 . S
C2300 C2302 1.391 . S
C2301 C2300 1.386 . S
C2301 C2305 1.393 . S
C2302 H2294 0.950 . S
C2302 C2300 1.391 . S
C2302 C2303 1.400 . S
C2303 C2302 1.400 . S
C2303 C2304 1.398 . S
C2303 C2309 1.491 . S
C2304 H2295 0.950 . S
C2304 C2303 1.398 . S
C2304 C2305 1.391 . S
C2305 H2293 0.950 . S
C2305 C2301 1.393 . S
C2305 C2304 1.391 . S
C2306 H2296 0.950 . S
C2306 C2307 1.386 . S
C2306 C2308 1.391 . S
C2307 C2306 1.386 . S
C2307 C2311 1.393 . S
C2308 H2297 0.950 . S
C2308 C2306 1.391 . S
C2308 C2309 1.400 . S
C2309 C2303 1.491 . S
C2309 C2308 1.400 . S
C2309 C2310 1.398 . S
C2310 H2298 0.950 . S
C2310 C2309 1.398 . S
C2310 C2311 1.391 . S
C2311 H2299 0.950 . S
C2311 C2307 1.393 . S
C2311 C2310 1.391 . S
H2312 C2320 0.950 . S
H2313 C2325 0.950 . S
H2314 C2322 0.950 . S
H2315 C2324 0.950 . S
H2316 C2326 0.950 . S
H2317 C2328 0.950 . S
H2318 C2330 0.950 . S
H2319 C2331 0.950 . S
C2320 H2312 0.950 . S
C2320 C2321 1.386 . S
C2320 C2322 1.391 . S
C2321 C2320 1.386 . S
C2321 C2325 1.393 . S
C2322 H2314 0.950 . S
C2322 C2320 1.391 . S
C2322 C2323 1.400 . S
C2323 C2322 1.400 . S
C2323 C2324 1.398 . S
C2323 C2329 1.491 . S
C2324 H2315 0.950 . S
C2324 C2323 1.398 . S
C2324 C2325 1.391 . S
C2325 H2313 0.950 . S
C2325 C2321 1.393 . S
C2325 C2324 1.391 . S
C2326 H2316 0.950 . S
C2326 C2327 1.386 . S
C2326 C2328 1.391 . S
C2327 C2326 1.386 . S
C2327 C2331 1.393 . S
C2328 H2317 0.950 . S
C2328 C2326 1.391 . S
C2328 C2329 1.400 . S
C2329 C2323 1.491 . S
C2329 C2328 1.400 . S
C2329 C2330 1.398 . S
C2330 H2318 0.950 . S
C2330 C2329 1.398 . S
C2330 C2331 1.391 . S
C2331 H2319 0.950 . S
C2331 C2327 1.393 . S
C2331 C2330 1.391 . S
H2332 C2340 0.950 . S
H2333 C2345 0.950 . S
H2334 C2342 0.950 . S
H2335 C2344 0.950 . S
H2336 C2346 0.950 . S
H2337 C2348 0.950 . S
H2338 C2350 0.950 . S
H2339 C2351 0.950 . S
C2340 H2332 0.950 . S
C2340 C2341 1.386 . S
C2340 C2342 1.391 . S
C2341 C2340 1.386 . S
C2341 C2345 1.393 . S
C2342 H2334 0.950 . S
C2342 C2340 1.391 . S
C2342 C2343 1.400 . S
C2343 C2342 1.400 . S
C2343 C2344 1.398 . S
C2343 C2349 1.491 . S
C2344 H2335 0.950 . S
C2344 C2343 1.398 . S
C2344 C2345 1.391 . S
C2345 H2333 0.950 . S
C2345 C2341 1.393 . S
C2345 C2344 1.391 . S
C2346 H2336 0.950 . S
C2346 C2347 1.386 . S
C2346 C2348 1.391 . S
C2347 C2346 1.386 . S
C2347 C2351 1.393 . S
C2348 H2337 0.950 . S
C2348 C2346 1.391 . S
C2348 C2349 1.400 . S
C2349 C2343 1.491 . S
C2349 C2348 1.400 . S
C2349 C2350 1.398 . S
C2350 H2338 0.950 . S
C2350 C2349 1.398 . S
C2350 C2351 1.391 . S
C2351 H2339 0.950 . S
C2351 C2347 1.393 . S
C2351 C2350 1.391 . S
H2352 C2360 0.950 . S
H2353 C2365 0.950 . S
H2354 C2362 0.950 . S
H2355 C2364 0.950 . S
H2356 C2366 0.950 . S
H2357 C2368 0.950 . S
H2358 C2370 0.950 . S
H2359 C2371 0.950 . S
C2360 H2352 0.950 . S
C2360 C2361 1.386 . S
C2360 C2362 1.391 . S
C2361 C2360 1.386 . S
C2361 C2365 1.393 . S
C2362 H2354 0.950 . S
C2362 C2360 1.391 . S
C2362 C2363 1.400 . S
C2363 C2362 1.400 . S
C2363 C2364 1.398 . S
C2363 C2369 1.491 . S
C2364 H2355 0.950 . S
C2364 C2363 1.398 . S
C2364 C2365 1.391 . S
C2365 H2353 0.950 . S
C2365 C2361 1.393 . S
C2365 C2364 1.391 . S
C2366 H2356 0.950 . S
C2366 C2367 1.386 . S
C2366 C2368 1.391 . S
C2367 C2366 1.386 . S
C2367 C2371 1.393 . S
C2368 H2357 0.950 . S
C2368 C2366 1.391 . S
C2368 C2369 1.400 . S
C2369 C2363 1.491 . S
C2369 C2368 1.400 . S
C2369 C2370 1.398 . S
C2370 H2358 0.950 . S
C2370 C2369 1.398 . S
C2370 C2371 1.391 . S
C2371 H2359 0.950 . S
C2371 C2367 1.393 . S
C2371 C2370 1.391 . S
H2372 C2380 0.950 . S
H2373 C2385 0.950 . S
H2374 C2382 0.950 . S
H2375 C2384 0.950 . S
H2376 C2386 0.950 . S
H2377 C2388 0.950 . S
H2378 C2390 0.950 . S
H2379 C2391 0.950 . S
C2380 H2372 0.950 . S
C2380 C2381 1.386 . S
C2380 C2382 1.391 . S
C2381 C2380 1.386 . S
C2381 C2385 1.393 . S
C2382 H2374 0.950 . S
C2382 C2380 1.391 . S
C2382 C2383 1.400 . S
C2383 C2382 1.400 . S
C2383 C2384 1.398 . S
C2383 C2389 1.491 . S
C2384 H2375 0.950 . S
C2384 C2383 1.398 . S
C2384 C2385 1.391 . S
C2385 H2373 0.950 . S
C2385 C2381 1.393 . S
C2385 C2384 1.391 . S
C2386 H2376 0.950 . S
C2386 C2387 1.386 . S
C2386 C2388 1.391 . S
C2387 C2386 1.386 . S
C2387 C2391 1.393 . S
C2388 H2377 0.950 . S
C2388 C2386 1.391 . S
C2388 C2389 1.400 . S
C2389 C2383 1.491 . S
C2389 C2388 1.400 . S
C2389 C2390 1.398 . S
C2390 H2378 0.950 . S
C2390 C2389 1.398 . S
C2390 C2391 1.391 . S
C2391 H2379 0.950 . S
C2391 C2387 1.393 . S
C2391 C2390 1.391 . S
H2392 C2400 0.950 . S
H2393 C2405 0.950 . S
H2394 C2402 0.950 . S
H2395 C2404 0.950 . S
H2396 C2406 0.950 . S
H2397 C2408 0.950 . S
H2398 C2410 0.950 . S
H2399 C2411 0.950 . S
C2400 H2392 0.950 . S
C2400 C2401 1.386 . S
C2400 C2402 1.391 . S
C2401 C2400 1.386 . S
C2401 C2405 1.393 . S
C2402 H2394 0.950 . S
C2402 C2400 1.391 . S
C2402 C2403 1.400 . S
C2403 C2402 1.400 . S
C2403 C2404 1.398 . S
C2403 C2409 1.491 . S
C2404 H2395 0.950 . S
C2404 C2403 1.398 . S
C2404 C2405 1.391 . S
C2405 H2393 0.950 . S
C2405 C2401 1.393 . S
C2405 C2404 1.391 . S
C2406 H2396 0.950 . S
C2406 C2407 1.386 . S
C2406 C2408 1.391 . S
C2407 C2406 1.386 . S
C2407 C2411 1.393 . S
C2408 H2397 0.950 . S
C2408 C2406 1.391 . S
C2408 C2409 1.400 . S
C2409 C2403 1.491 . S
C2409 C2408 1.400 . S
C2409 C2410 1.398 . S
C2410 H2398 0.950 . S
C2410 C2409 1.398 . S
C2410 C2411 1.391 . S
C2411 H2399 0.950 . S
C2411 C2407 1.393 . S
C2411 C2410 1.391 . S
H2412 C2420 0.950 . S
H2413 C2425 0.950 . S
H2414 C2422 0.950 . S
H2415 C2424 0.950 . S
H2416 C2426 0.950 . S
H2417 C2428 0.950 . S
H2418 C2430 0.950 . S
H2419 C2431 0.950 . S
C2420 H2412 0.950 . S
C2420 C2421 1.386 . S
C2420 C2422 1.391 . S
C2421 C2420 1.386 . S
C2421 C2425 1.393 . S
C2422 H2414 0.950 . S
C2422 C2420 1.391 . S
C2422 C2423 1.400 . S
C2423 C2422 1.400 . S
C2423 C2424 1.398 . S
C2423 C2429 1.491 . S
C2424 H2415 0.950 . S
C2424 C2423 1.398 . S
C2424 C2425 1.391 . S
C2425 H2413 0.950 . S
C2425 C2421 1.393 . S
C2425 C2424 1.391 . S
C2426 H2416 0.950 . S
C2426 C2427 1.386 . S
C2426 C2428 1.391 . S
C2427 C2426 1.386 . S
C2427 C2431 1.393 . S
C2428 H2417 0.950 . S
C2428 C2426 1.391 . S
C2428 C2429 1.400 . S
C2429 C2423 1.491 . S
C2429 C2428 1.400 . S
C2429 C2430 1.398 . S
C2430 H2418 0.950 . S
C2430 C2429 1.398 . S
C2430 C2431 1.391 . S
C2431 H2419 0.950 . S
C2431 C2427 1.393 . S
C2431 C2430 1.391 . S
H2432 C2440 0.950 . S
H2433 C2445 0.950 . S
H2434 C2442 0.950 . S
H2435 C2444 0.950 . S
H2436 C2446 0.950 . S
H2437 C2448 0.950 . S
H2438 C2450 0.950 . S
H2439 C2451 0.950 . S
C2440 H2432 0.950 . S
C2440 C2441 1.386 . S
C2440 C2442 1.391 . S
C2441 C2440 1.386 . S
C2441 C2445 1.393 . S
C2442 H2434 0.950 . S
C2442 C2440 1.391 . S
C2442 C2443 1.400 . S
C2443 C2442 1.400 . S
C2443 C2444 1.398 . S
C2443 C2449 1.491 . S
C2444 H2435 0.950 . S
C2444 C2443 1.398 . S
C2444 C2445 1.391 . S
C2445 H2433 0.950 . S
C2445 C2441 1.393 . S
C2445 C2444 1.391 . S
C2446 H2436 0.950 . S
C2446 C2447 1.386 . S
C2446 C2448 1.391 . S
C2447 C2446 1.386 . S
C2447 C2451 1.393 . S
C2448 H2437 0.950 . S
C2448 C2446 1.391 . S
C2448 C2449 1.400 . S
C2449 C2443 1.491 . S
C2449 C2448 1.400 . S
C2449 C2450 1.398 . S
C2450 H2438 0.950 . S
C2450 C2449 1.398 . S
C2450 C2451 1.391 . S
C2451 H2439 0.950 . S
C2451 C2447 1.393 . S
C2451 C2450 1.391 . S
H2452 C2460 0.950 . S
H2453 C2465 0.950 . S
H2454 C2462 0.950 . S
H2455 C2464 0.950 . S
H2456 C2466 0.950 . S
H2457 C2468 0.950 . S
H2458 C2470 0.950 . S
H2459 C2471 0.950 . S
C2460 H2452 0.950 . S
C2460 C2461 1.386 . S
C2460 C2462 1.391 . S
C2461 C2460 1.386 . S
C2461 C2465 1.393 . S
C2462 H2454 0.950 . S
C2462 C2460 1.391 . S
C2462 C2463 1.400 . S
C2463 C2462 1.400 . S
C2463 C2464 1.398 . S
C2463 C2469 1.491 . S
C2464 H2455 0.950 . S
C2464 C2463 1.398 . S
C2464 C2465 1.391 . S
C2465 H2453 0.950 . S
C2465 C2461 1.393 . S
C2465 C2464 1.391 . S
C2466 H2456 0.950 . S
C2466 C2467 1.386 . S
C2466 C2468 1.391 . S
C2467 C2466 1.386 . S
C2467 C2471 1.393 . S
C2468 H2457 0.950 . S
C2468 C2466 1.391 . S
C2468 C2469 1.400 . S
C2469 C2463 1.491 . S
C2469 C2468 1.400 . S
C2469 C2470 1.398 . S
C2470 H2458 0.950 . S
C2470 C2469 1.398 . S
C2470 C2471 1.391 . S
C2471 H2459 0.950 . S
C2471 C2467 1.393 . S
C2471 C2470 1.391 . S
H2472 C2480 0.950 . S
H2473 C2485 0.950 . S
H2474 C2482 0.950 . S
H2475 C2484 0.950 . S
H2476 C2486 0.950 . S
H2477 C2488 0.950 . S
H2478 C2490 0.950 . S
H2479 C2491 0.950 . S
C2480 H2472 0.950 . S
C2480 C2481 1.386 . S
C2480 C2482 1.391 . S
C2481 C2480 1.386 . S
C2481 C2485 1.393 . S
C2482 H2474 0.950 . S
C2482 C2480 1.391 . S
C2482 C2483 1.400 . S
C2483 C2482 1.400 . S
C2483 C2484 1.398 . S
C2483 C2489 1.491 . S
C2484 H2475 0.950 . S
C2484 C2483 1.398 . S
C2484 C2485 1.391 . S
C2485 H2473 0.950 . S
C2485 C2481 1.393 . S
C2485 C2484 1.391 . S
C2486 H2476 0.950 . S
C2486 C2487 1.386 . S
C2486 C2488 1.391 . S
C2487 C2486 1.386 . S
C2487 C2491 1.393 . S
C2488 H2477 0.950 . S
C2488 C2486 1.391 . S
C2488 C2489 1.400 . S
C2489 C2483 1.491 . S
C2489 C2488 1.400 . S
C2489 C2490 1.398 . S
C2490 H2478 0.950 . S
C2490 C2489 1.398 . S
C2490 C2491 1.391 . S
C2491 H2479 0.950 . S
C2491 C2487 1.393 . S
C2491 C2490 1.391 . S
H2492 C2500 0.950 . S
H2493 C2505 0.950 . S
H2494 C2502 0.950 . S
H2495 C2504 0.950 . S
H2496 C2506 0.950 . S
H2497 C2508 0.950 . S
H2498 C2510 0.950 . S
H2499 C2511 0.950 . S
C2500 H2492 0.950 . S
C2500 C2501 1.386 . S
C2500 C2502 1.391 . S
C2501 C2500 1.386 . S
C2501 C2505 1.393 . S
C2502 H2494 0.950 . S
C2502 C2500 1.391 . S
C2502 C2503 1.400 . S
C2503 C2502 1.400 . S
C2503 C2504 1.398 . S
C2503 C2509 1.491 . S
C2504 H2495 0.950 . S
C2504 C2503 1.398 . S
C2504 C2505 1.391 . S
C2505 H2493 0.950 . S
C2505 C2501 1.393 . S
C2505 C2504 1.391 . S
C2506 H2496 0.950 . S
C2506 C2507 1.386 . S
C2506 C2508 1.391 . S
C2507 C2506 1.386 . S
C2507 C2511 1.393 . S
C2508 H2497 0.950 . S
C2508 C2506 1.391 . S
C2508 C2509 1.400 . S
C2509 C2503 1.491 . S
C2509 C2508 1.400 . S
C2509 C2510 1.398 . S
C2510 H2498 0.950 . S
C2510 C2509 1.398 . S
C2510 C2511 1.391 . S
C2511 H2499 0.950 . S
C2511 C2507 1.393 . S
C2511 C2510 1.391 . S
H2512 C2520 0.950 . S
H2513 C2525 0.950 . S
H2514 C2522 0.950 . S
H2515 C2524 0.950 . S
H2516 C2526 0.950 . S
H2517 C2528 0.950 . S
H2518 C2530 0.950 . S
H2519 C2531 0.950 . S
C2520 H2512 0.950 . S
C2520 C2521 1.386 . S
C2520 C2522 1.391 . S
C2521 C2520 1.386 . S
C2521 C2525 1.393 . S
C2522 H2514 0.950 . S
C2522 C2520 1.391 . S
C2522 C2523 1.400 . S
C2523 C2522 1.400 . S
C2523 C2524 1.398 . S
C2523 C2529 1.491 . S
C2524 H2515 0.950 . S
C2524 C2523 1.398 . S
C2524 C2525 1.391 . S
C2525 H2513 0.950 . S
C2525 C2521 1.393 . S
C2525 C2524 1.391 . S
C2526 H2516 0.950 . S
C2526 C2527 1.386 . S
C2526 C2528 1.391 . S
C2527 C2526 1.386 . S
C2527 C2531 1.393 . S
C2528 H2517 0.950 . S
C2528 C2526 1.391 . S
C2528 C2529 1.400 . S
C2529 C2523 1.491 . S
C2529 C2528 1.400 . S
C2529 C2530 1.398 . S
C2530 H2518 0.950 . S
C2530 C2529 1.398 . S
C2530 C2531 1.391 . S
C2531 H2519 0.950 . S
C2531 C2527 1.393 . S
C2531 C2530 1.391 . S
H2532 C2540 0.950 . S
H2533 C2545 0.950 . S
H2534 C2542 0.950 . S
H2535 C2544 0.950 . S
H2536 C2546 0.950 . S
H2537 C2548 0.950 . S
H2538 C2550 0.950 . S
H2539 C2551 0.950 . S
C2540 H2532 0.950 . S
C2540 C2541 1.386 . S
C2540 C2542 1.391 . S
C2541 C2540 1.386 . S
C2541 C2545 1.393 . S
C2542 H2534 0.950 . S
C2542 C2540 1.391 . S
C2542 C2543 1.400 . S
C2543 C2542 1.400 . S
C2543 C2544 1.398 . S
C2543 C2549 1.491 . S
C2544 H2535 0.950 . S
C2544 C2543 1.398 . S
C2544 C2545 1.391 . S
C2545 H2533 0.950 . S
C2545 C2541 1.393 . S
C2545 C2544 1.391 . S
C2546 H2536 0.950 . S
C2546 C2547 1.386 . S
C2546 C2548 1.391 . S
C2547 C2546 1.386 . S
C2547 C2551 1.393 . S
C2548 H2537 0.950 . S
C2548 C2546 1.391 . S
C2548 C2549 1.400 . S
C2549 C2543 1.491 . S
C2549 C2548 1.400 . S
C2549 C2550 1.398 . S
C2550 H2538 0.950 . S
C2550 C2549 1.398 . S
C2550 C2551 1.391 . S
C2551 H2539 0.950 . S
C2551 C2547 1.393 . S
C2551 C2550 1.391 . S
H2552 C2560 0.950 . S
H2553 C2565 0.950 . S
H2554 C2562 0.950 . S
H2555 C2564 0.950 . S
H2556 C2566 0.950 . S
H2557 C2568 0.950 . S
H2558 C2570 0.950 . S
H2559 C2571 0.950 . S
C2560 H2552 0.950 . S
C2560 C2561 1.386 . S
C2560 C2562 1.391 . S
C2561 C2560 1.386 . S
C2561 C2565 1.393 . S
C2562 H2554 0.950 . S
C2562 C2560 1.391 . S
C2562 C2563 1.400 . S
C2563 C2562 1.400 . S
C2563 C2564 1.398 . S
C2563 C2569 1.491 . S
C2564 H2555 0.950 . S
C2564 C2563 1.398 . S
C2564 C2565 1.391 . S
C2565 H2553 0.950 . S
C2565 C2561 1.393 . S
C2565 C2564 1.391 . S
C2566 H2556 0.950 . S
C2566 C2567 1.386 . S
C2566 C2568 1.391 . S
C2567 C2566 1.386 . S
C2567 C2571 1.393 . S
C2568 H2557 0.950 . S
C2568 C2566 1.391 . S
C2568 C2569 1.400 . S
C2569 C2563 1.491 . S
C2569 C2568 1.400 . S
C2569 C2570 1.398 . S
C2570 H2558 0.950 . S
C2570 C2569 1.398 . S
C2570 C2571 1.391 . S
C2571 H2559 0.950 . S
C2571 C2567 1.393 . S
C2571 C2570 1.391 . S
H2572 C2580 0.950 . S
H2573 C2585 0.950 . S
H2574 C2582 0.950 . S
H2575 C2584 0.950 . S
H2576 C2586 0.950 . S
H2577 C2588 0.950 . S
H2578 C2590 0.950 . S
H2579 C2591 0.950 . S
C2580 H2572 0.950 . S
C2580 C2581 1.386 . S
C2580 C2582 1.391 . S
C2581 C2580 1.386 . S
C2581 C2585 1.393 . S
C2582 H2574 0.950 . S
C2582 C2580 1.391 . S
C2582 C2583 1.400 . S
C2583 C2582 1.400 . S
C2583 C2584 1.398 . S
C2583 C2589 1.491 . S
C2584 H2575 0.950 . S
C2584 C2583 1.398 . S
C2584 C2585 1.391 . S
C2585 H2573 0.950 . S
C2585 C2581 1.393 . S
C2585 C2584 1.391 . S
C2586 H2576 0.950 . S
C2586 C2587 1.386 . S
C2586 C2588 1.391 . S
C2587 C2586 1.386 . S
C2587 C2591 1.393 . S
C2588 H2577 0.950 . S
C2588 C2586 1.391 . S
C2588 C2589 1.400 . S
C2589 C2583 1.491 . S
C2589 C2588 1.400 . S
C2589 C2590 1.398 . S
C2590 H2578 0.950 . S
C2590 C2589 1.398 . S
C2590 C2591 1.391 . S
C2591 H2579 0.950 . S
C2591 C2587 1.393 . S
C2591 C2590 1.391 . S
C681 C92 1.184 . S
C687 C8 1.195 . S
C701 C22 1.199 . S
C707 C106 1.204 . S
C721 C36 1.171 . S
C727 C64 1.184 . S
C741 C78 1.192 . S
C747 C50 1.173 . S
C761 C484 1.172 . S
C767 C120 1.167 . S
C781 C498 1.181 . S
C787 C134 1.170 . S
C801 C148 1.188 . S
C807 C456 1.189 . S
C821 C162 1.173 . S
C827 C470 1.192 . S
C841 C540 1.159 . S
C847 C176 1.178 . S
C861 C554 1.176 . S
C867 C190 1.193 . S
C881 C512 1.186 . S
C887 C204 1.172 . S
C901 C526 1.179 . S
C907 C218 1.179 . S
C921 C232 1.195 . S
C927 C582 1.183 . S
C941 C246 1.164 . S
C947 C568 1.165 . S
C961 C260 1.199 . S
C967 C330 1.190 . S
C981 C638 1.175 . S
C987 C274 1.194 . S
C1001 C652 1.186 . S
C1007 C288 1.176 . S
C1021 C610 1.167 . S
C1027 C302 1.155 . S
C1041 C624 1.179 . S
C1047 C316 1.194 . S
C1061 C428 1.183 . S
C1067 C344 1.191 . S
C1081 C442 1.193 . S
C1087 C358 1.188 . S
C1101 C372 1.183 . S
C1107 C400 1.181 . S
C1121 C386 1.199 . S
C1127 C414 1.191 . S
C1141 C666 1.191 . S
C1147 C596 1.173 . S
C1161 C233 1.188 . S
C1167 C7 1.161 . S
C1181 C21 1.174 . S
C1187 C667 1.170 . S
C1201 C35 1.140 . S
C1207 C303 1.200 . S
C1221 C653 1.198 . S
C1227 C49 1.135 . S
C1241 C63 1.153 . S
C1247 C583 1.171 . S
C1261 C597 1.173 . S
C1267 C77 1.175 . S
C1281 C91 1.175 . S
C1287 C611 1.178 . S
C1301 C289 1.218 . S
C1307 C105 1.181 . S
C1321 C119 1.136 . S
C1327 C9 1.196 . S
C1341 C23 1.176 . S
C1347 C133 1.160 . S
C1361 C147 1.136 . S
C1367 C37 1.195 . S
C1381 C161 1.153 . S
C1387 C51 1.243 . S
C1401 C175 1.159 . S
C1407 C65 1.186 . S
C1421 C79 1.182 . S
C1427 C189 1.157 . S
C1441 C203 1.161 . S
C1447 C93 1.190 . S
C1461 C217 1.152 . S
C1467 C107 1.234 . S
C1481 C231 1.170 . S
C1487 C121 1.165 . S
C1501 C245 1.162 . S
C1507 C513 1.184 . S
C1521 C527 1.187 . S
C1527 C259 1.143 . S
C1541 C541 1.200 . S
C1547 C273 1.141 . S
C1561 C287 1.150 . S
C1567 C219 1.235 . S
C1581 C301 1.166 . S
C1587 C149 1.164 . S
C1601 C499 1.196 . S
C1607 C315 1.171 . S
C1621 C471 1.192 . S
C1627 C329 1.135 . S
C1641 C343 1.142 . S
C1647 C569 1.196 . S
C1661 C357 1.158 . S
C1667 C331 1.181 . S
C1681 C371 1.133 . S
C1687 C639 1.181 . S
C1701 C385 1.185 . S
C1707 C317 1.184 . S
C1721 C399 1.150 . S
C1727 C247 1.169 . S
C1741 C261 1.233 . S
C1747 C413 1.145 . S
C1761 C275 1.171 . S
C1767 C427 1.145 . S
C1781 C625 1.194 . S
C1787 C441 1.169 . S
C1801 C345 1.186 . S
C1807 C455 1.134 . S
C1821 C359 1.202 . S
C1827 C469 1.148 . S
C1841 C483 1.141 . S
C1847 C373 1.199 . S
C1861 C387 1.177 . S
C1867 C497 1.173 . S
C1881 C511 1.143 . S
C1887 C401 1.200 . S
C1901 C415 1.202 . S
C1907 C525 1.159 . S
C1921 C539 1.138 . S
C1927 C429 1.196 . S
C1941 C443 1.202 . S
C1947 C553 1.141 . S
C1961 C567 1.138 . S
C1967 C457 1.196 . S
C1981 C581 1.136 . S
C1987 C177 1.197 . S
C2001 C191 1.188 . S
C2007 C595 1.156 . S
C2021 C609 1.168 . S
C2027 C205 1.176 . S
C2041 C623 1.140 . S
C2047 C555 1.194 . S
C2061 C485 1.187 . S
C2067 C637 1.165 . S
C2081 C651 1.143 . S
C2087 C163 1.201 . S
C2101 C135 1.220 . S
C2107 C665 1.153 . S
C2121 C132 0.756 . S
C2127 C6 0.760 . S
C2141 C20 0.749 . S
C2147 C146 0.758 . S
C2161 C160 0.750 . S
C2167 C34 0.751 . S
C2181 C118 0.799 . S
C2187 C48 0.809 . S
C2201 C62 0.751 . S
C2207 C216 0.750 . S
C2221 C76 0.794 . S
C2227 C174 0.781 . S
C2241 C188 0.813 . S
C2247 C90 0.812 . S
C2261 C202 0.774 . S
C2267 C104 0.760 . S
C2281 C230 0.794 . S
C2287 C258 0.806 . S
C2301 C244 0.792 . S
C2307 C650 0.778 . S
C2321 C272 0.806 . S
C2327 C664 0.798 . S
C2341 C636 0.762 . S
C2347 C286 0.752 . S
C2361 C622 0.777 . S
C2367 C300 0.791 . S
C2381 C580 0.776 . S
C2387 C314 0.764 . S
C2401 C328 0.800 . S
C2407 C608 0.806 . S
C2421 C468 0.753 . S
C2427 C342 0.764 . S
C2441 C482 0.796 . S
C2447 C356 0.808 . S
C2461 C370 0.807 . S
C2467 C496 0.805 . S
C2481 C454 0.774 . S
C2487 C384 0.787 . S
C2501 C552 0.770 . S
C2507 C398 0.758 . S
C2521 C510 0.787 . S
C2527 C412 0.772 . S
C2541 C426 0.775 . S
C2547 C524 0.788 . S
C2561 C538 0.802 . S
C2567 C440 0.790 . S
C2581 C594 0.744 . S
C2587 C566 0.751 . S
