# Generated by pormake.
# Topology wji, (4)-cn, num edge types: 1
# Building blocks:
#     Node 0, Type 0, BuildingBlock: ICAMEG_clean_sbu_1, # of connection points: 4
#     Node 1, Type 0, BuildingBlock: ICAMEG_clean_sbu_1, # of connection points: 4
#     Node 2, Type 0, BuildingBlock: ICAMEG_clean_sbu_1, # of connection points: 4
#     Node 3, Type 0, BuildingBlock: ICAMEG_clean_sbu_1, # of connection points: 4
#     Node 4, Type 0, BuildingBlock: ICAMEG_clean_sbu_1, # of connection points: 4
#     Node 5, Type 0, BuildingBlock: ICAMEG_clean_sbu_1, # of connection points: 4
#     Node 6, Type 0, BuildingBlock: ICAMEG_clean_sbu_1, # of connection points: 4
#     Node 7, Type 0, BuildingBlock: ICAMEG_clean_sbu_1, # of connection points: 4
#     Node 8, Type 0, BuildingBlock: ICAMEG_clean_sbu_1, # of connection points: 4
#     Node 9, Type 0, BuildingBlock: ICAMEG_clean_sbu_1, # of connection points: 4
#     Node 10, Type 0, BuildingBlock: ICAMEG_clean_sbu_1, # of connection points: 4
#     Node 11, Type 0, BuildingBlock: ICAMEG_clean_sbu_1, # of connection points: 4
#     Edge 12, Type (0, 0), BuildingBlock: KIFKEQ_clean_linker_1, # of connection points: 2
#     Edge 13, Type (0, 0), BuildingBlock: KIFKEQ_clean_linker_1, # of connection points: 2
#     Edge 14, Type (0, 0), BuildingBlock: KIFKEQ_clean_linker_1, # of connection points: 2
#     Edge 15, Type (0, 0), BuildingBlock: KIFKEQ_clean_linker_1, # of connection points: 2
#     Edge 16, Type (0, 0), BuildingBlock: KIFKEQ_clean_linker_1, # of connection points: 2
#     Edge 17, Type (0, 0), BuildingBlock: KIFKEQ_clean_linker_1, # of connection points: 2
#     Edge 18, Type (0, 0), BuildingBlock: KIFKEQ_clean_linker_1, # of connection points: 2
#     Edge 19, Type (0, 0), BuildingBlock: KIFKEQ_clean_linker_1, # of connection points: 2
#     Edge 20, Type (0, 0), BuildingBlock: KIFKEQ_clean_linker_1, # of connection points: 2
#     Edge 21, Type (0, 0), BuildingBlock: KIFKEQ_clean_linker_1, # of connection points: 2
#     Edge 22, Type (0, 0), BuildingBlock: KIFKEQ_clean_linker_1, # of connection points: 2
#     Edge 23, Type (0, 0), BuildingBlock: KIFKEQ_clean_linker_1, # of connection points: 2
#     Edge 24, Type (0, 0), BuildingBlock: KIFKEQ_clean_linker_1, # of connection points: 2
#     Edge 25, Type (0, 0), BuildingBlock: KIFKEQ_clean_linker_1, # of connection points: 2
#     Edge 26, Type (0, 0), BuildingBlock: KIFKEQ_clean_linker_1, # of connection points: 2
#     Edge 27, Type (0, 0), BuildingBlock: KIFKEQ_clean_linker_1, # of connection points: 2
#     Edge 28, Type (0, 0), BuildingBlock: KIFKEQ_clean_linker_1, # of connection points: 2
#     Edge 29, Type (0, 0), BuildingBlock: KIFKEQ_clean_linker_1, # of connection points: 2
#     Edge 30, Type (0, 0), BuildingBlock: KIFKEQ_clean_linker_1, # of connection points: 2
#     Edge 31, Type (0, 0), BuildingBlock: KIFKEQ_clean_linker_1, # of connection points: 2
#     Edge 32, Type (0, 0), BuildingBlock: KIFKEQ_clean_linker_1, # of connection points: 2
#     Edge 33, Type (0, 0), BuildingBlock: KIFKEQ_clean_linker_1, # of connection points: 2
#     Edge 34, Type (0, 0), BuildingBlock: KIFKEQ_clean_linker_1, # of connection points: 2
#     Edge 35, Type (0, 0), BuildingBlock: KIFKEQ_clean_linker_1, # of connection points: 2
# Relax obj value: 0.320
# Max RMSD: 0.211
# Mean RMSD: 0.211
data_MOF--net-wji--node1-ICAMEG_clean_sbu_1--edge1-KIFKEQ_clean_linker_1
_symmetry_space_group_name_H-M    P1
_symmetry_Int_Tables_number       1
_symmetry_cell_setting            triclinic
loop_
_symmetry_equiv_pos_as_xyz
'x, y, z'
_cell_length_a     61.408325
_cell_length_b     61.404571
_cell_length_c     23.813617
_cell_angle_alpha  89.999979
_cell_angle_beta   89.968959
_cell_angle_gamma 120.04729
loop_
_atom_site_label
_atom_site_type_symbol
_atom_site_fract_x
_atom_site_fract_y
_atom_site_fract_z
_atom_type_partial_charge
Co0 Co 0.43382 0.36581 0.46584 0.0
Co1 Co 0.4473 0.32734 0.38823 0.0
O2 O 0.43173 0.33328 0.4539 0.0
C3 C 0.38255 0.32659 0.5101 0.0
O4 O 0.38522 0.30783 0.49244 0.0
C5 C 0.4629 0.30679 0.48583 0.0
O6 O 0.46969 0.32807 0.51195 0.0
O7 O 0.48071 0.35679 0.40961 0.0
O8 O 0.46803 0.38422 0.43042 0.0
H9 H 0.50217 0.35282 0.2166 0.0
H10 H 0.4237 0.33122 0.56287 0.0
O11 O 0.39971 0.34933 0.50202 0.0
H12 H 0.49964 0.41058 0.61483 0.0
H13 H 0.4218 0.42968 0.57348 0.0
H14 H 0.4503 0.41125 0.3953 0.0
H15 H 0.47877 0.40661 0.52403 0.0
H16 H 0.42029 0.38914 0.55968 0.0
O17 O 0.45459 0.30388 0.43545 0.0
H18 H 0.48162 0.35964 0.29842 0.0
H19 H 0.44719 0.28224 0.34121 0.0
H20 H 0.45234 0.45211 0.40754 0.0
H21 H 0.44369 0.33454 0.65436 0.0
H22 H 0.43803 0.46154 0.49716 0.0
H23 H 0.48203 0.37442 0.68091 0.0
O24 O 0.41772 0.36265 0.392 0.0
H25 H 0.36668 0.24659 0.42511 0.0
H26 H 0.41721 0.31031 0.28242 0.0
H27 H 0.37595 0.27443 0.2563 0.0
H28 H 0.35039 0.24221 0.32786 0.0
H29 H 0.40792 0.28294 0.44964 0.0
H30 H 0.46751 0.2746 0.26017 0.0
H31 H 0.49515 0.31003 0.19707 0.0
O32 O 0.43927 0.34988 0.33851 0.0
C33 C 0.48532 0.37914 0.41929 0.0
C34 C 0.49012 0.33722 0.2437 0.0
C35 C 0.47069 0.29332 0.2682 0.0
N36 N 0.46312 0.32134 0.32428 0.0
C37 C 0.47839 0.34096 0.28999 0.0
C38 C 0.45929 0.29777 0.31411 0.0
C39 C 0.48619 0.31321 0.2328 0.0
C40 C 0.44004 0.34879 0.57431 0.0
N41 N 0.44973 0.36879 0.53826 0.0
C42 C 0.45143 0.35049 0.62612 0.0
C43 C 0.47298 0.37285 0.64093 0.0
C44 C 0.48287 0.39313 0.60387 0.0
C45 C 0.47097 0.39074 0.55242 0.0
C46 C 0.42815 0.42581 0.53428 0.0
C47 C 0.44419 0.41527 0.43456 0.0
C48 C 0.42729 0.40287 0.52616 0.0
N49 N 0.43541 0.3979 0.47688 0.0
C50 C 0.44532 0.43841 0.44118 0.0
C51 C 0.43726 0.44368 0.49145 0.0
C52 C 0.42471 0.35923 0.34401 0.0
C53 C 0.37763 0.26052 0.39356 0.0
C54 C 0.40611 0.29653 0.31402 0.0
C55 C 0.3828 0.27617 0.29886 0.0
C56 C 0.36849 0.25808 0.33901 0.0
N57 N 0.41492 0.29884 0.36768 0.0
C58 C 0.40103 0.28113 0.40718 0.0
Co59 Co 0.07997 0.42743 0.62605 0.0
Co60 Co 0.13217 0.44145 0.54884 0.0
O61 O 0.11067 0.42581 0.6145 0.0
C62 C 0.06857 0.37653 0.67117 0.0
O63 O 0.09016 0.3795 0.65382 0.0
C64 C 0.16816 0.4573 0.64676 0.0
O65 O 0.1535 0.46392 0.6727 0.0
O66 O 0.13574 0.47474 0.56981 0.0
O67 O 0.09544 0.4615 0.59018 0.0
H68 H 0.16127 0.49608 0.37682 0.0
H69 H 0.10466 0.41801 0.72365 0.0
O70 O 0.06267 0.39341 0.66262 0.0
H71 H 0.10013 0.49345 0.77405 0.0
H72 H 1.00362 0.41462 0.73304 0.0
H73 H 0.0506 0.44314 0.55488 0.0
H74 H 0.08351 0.47226 0.68341 0.0
H75 H 0.04295 0.41367 0.7197 0.0
O76 O 0.16296 0.4491 0.59627 0.0
H77 H 0.13389 0.47545 0.45862 0.0
H78 H 0.17749 0.44185 0.50224 0.0
H79 H 1.01146 0.44461 0.56665 0.0
H80 H 0.12107 0.43832 0.81499 0.0
H81 H 0.98769 0.43029 0.65626 0.0
H82 H 0.11897 0.47642 0.84076 0.0
O83 O 0.06723 0.41108 0.55234 0.0
H84 H 0.13316 0.36138 0.58648 0.0
H85 H 0.11943 0.41125 0.44324 0.0
H86 H 0.11447 0.37014 0.41746 0.0
H87 H 0.12141 0.34491 0.48929 0.0
H88 H 0.13761 0.40245 0.61067 0.0
H89 H 0.20547 0.46227 0.42122 0.0
H90 H 0.19736 0.48953 0.35772 0.0
O91 O 0.10155 0.43305 0.49897 0.0
C92 C 0.11772 0.479 0.57887 0.0
C93 C 0.16496 0.4842 0.4041 0.0
C94 C 0.18979 0.46525 0.42907 0.0
N95 N 0.154 0.45736 0.4849 0.0
C96 C 0.14949 0.47243 0.45038 0.0
C97 C 0.17392 0.45379 0.47496 0.0
C98 C 0.18522 0.48053 0.39344 0.0
C99 C 0.10318 0.43422 0.73474 0.0
N100 N 0.09272 0.4436 0.69834 0.0
C101 C 0.11273 0.44581 0.78647 0.0
C102 C 0.11161 0.46722 0.80085 0.0
C103 C 0.10106 0.47679 0.76343 0.0
C104 C 0.09171 0.46471 0.71207 0.0
C105 C 1.01384 0.42097 0.69385 0.0
C106 C 0.04046 0.43702 0.59413 0.0
C107 C 0.0361 0.42042 0.68598 0.0
N108 N 0.0492 0.42855 0.6367 0.0
C109 C 0.01826 0.43783 0.60049 0.0
C110 C 1.00492 0.42977 0.65076 0.0
C111 C 0.07765 0.41821 0.5044 0.0
C112 C 0.13006 0.37218 0.5548 0.0
C113 C 0.12223 0.40029 0.47495 0.0
C114 C 0.11952 0.37707 0.45999 0.0
C115 C 0.12345 0.36294 0.50029 0.0
N116 N 0.12864 0.4092 0.52858 0.0
C117 C 0.13261 0.39549 0.56823 0.0
Co118 Co 0.66411 0.07703 0.78451 0.0
Co119 Co 0.70275 0.12885 0.70605 0.0
O120 O 0.69655 0.10745 0.77195 0.0
C121 C 0.70356 0.06576 0.83115 0.0
O122 O 0.72232 0.08794 0.8174 0.0
C123 C 0.72251 0.16483 0.80394 0.0
O124 O 0.70101 0.15029 0.82927 0.0
O125 O 0.67294 0.13257 0.72574 0.0
O126 O 0.64562 0.09267 0.74933 0.0
H127 H 0.67824 0.15778 0.53236 0.0
H128 H 0.69905 0.1025 0.88121 0.0
O129 O 0.68086 0.0596 0.82023 0.0
H130 H 0.61923 0.09773 0.93379 0.0
H131 H 0.60107 1.00106 0.89348 0.0
H132 H 0.61808 0.048 0.71563 0.0
H133 H 0.62332 0.08086 0.8431 0.0
H134 H 0.64145 0.04018 0.8786 0.0
O135 O 0.72574 0.15965 0.7536 0.0
H136 H 0.67099 0.13049 0.61458 0.0
H137 H 0.748 0.17408 0.66006 0.0
H138 H 0.57735 1.00911 0.729 0.0
H139 H 0.69561 0.11908 0.97253 0.0
H140 H 0.56863 0.98534 0.81845 0.0
H141 H 0.65548 0.11688 0.99948 0.0
O142 O 0.66679 0.06384 0.7105 0.0
H143 H 0.78332 0.12936 0.74703 0.0
H144 H 0.72088 0.11622 0.60136 0.0
H145 H 0.75703 0.11102 0.57713 0.0
H146 H 0.78862 0.11767 0.65023 0.0
H147 H 0.7467 0.13406 0.7696 0.0
H148 H 0.75606 0.20197 0.57865 0.0
H149 H 0.72104 0.19381 0.514 0.0
O150 O 0.68071 0.09816 0.65622 0.0
C151 C 0.65061 0.11479 0.73592 0.0
C152 C 0.69366 0.16148 0.56014 0.0
C153 C 0.73734 0.18631 0.58617 0.0
N154 N 0.70907 0.1506 0.6418 0.0
C155 C 0.68968 0.14606 0.60665 0.0
C156 C 0.73265 0.1705 0.63228 0.0
C157 C 0.71768 0.18171 0.54989 0.0
C158 C 0.68136 0.10084 0.89277 0.0
N159 N 0.66129 0.09013 0.85697 0.0
C160 C 0.67958 0.11055 0.94453 0.0
C161 C 0.6571 0.10938 0.95955 0.0
C162 C 0.63677 0.09866 0.92271 0.0
C163 C 0.63924 0.08915 0.87131 0.0
C164 C 0.60463 0.01127 0.85435 0.0
C165 C 0.61437 0.03788 0.75482 0.0
C166 C 0.62749 0.0334 0.8456 0.0
N167 N 0.63208 0.04648 0.79638 0.0
C168 C 0.5913 0.01581 0.76208 0.0
C169 C 0.58643 1.00247 0.81225 0.0
C170 C 0.6705 0.07415 0.6623 0.0
C171 C 0.76966 0.12637 0.71483 0.0
C172 C 0.73435 0.11885 0.63359 0.0
C173 C 0.75488 0.11603 0.61953 0.0
C174 C 0.77262 0.11979 0.66053 0.0
N175 N 0.73152 0.12521 0.68702 0.0
C176 C 0.74889 0.12904 0.72735 0.0
Co177 Co 0.59565 0.66115 0.95838 0.0
Co178 Co 0.58309 0.698 0.87332 0.0
O179 O 0.59713 0.69283 0.94172 0.0
C180 C 0.64848 0.68041 0.99559 0.0
O181 O 0.65131 0.66764 0.95481 0.0
C182 C 0.56374 0.71658 0.96684 0.0
O183 O 0.55611 0.69476 0.9912 0.0
O184 O 0.54965 0.66747 0.89067 0.0
O185 O 0.56286 0.64109 0.91819 0.0
H186 H 0.53377 0.67136 0.69365 0.0
H187 H 0.60284 0.69635 0.05153 0.0
O188 O 0.62806 0.68088 0.99994 0.0
H189 H 0.52552 0.61727 0.09905 0.0
H190 H 0.60679 0.60095 0.08251 0.0
H191 H 0.58318 0.61504 0.89377 0.0
H192 H 0.54912 0.62047 0.01278 0.0
H193 H 0.60699 0.64029 0.0605 0.0
O194 O 0.57344 0.72043 0.91766 0.0
H195 H 0.5526 0.66533 0.77958 0.0
H196 H 0.58223 0.7421 0.82333 0.0
H197 H 0.58261 0.57538 0.91406 0.0
H198 H 0.58005 0.69379 0.13874 0.0
H199 H 0.59451 0.56814 0.00901 0.0
H200 H 0.54101 0.65407 0.16288 0.0
O201 O 0.61371 0.66383 0.88712 0.0
H202 H 0.66179 0.77887 0.92084 0.0
H203 H 0.61552 0.71729 0.77126 0.0
H204 H 0.65697 0.75414 0.75033 0.0
H205 H 0.68037 0.7853 0.82539 0.0
H206 H 0.62039 0.74161 0.94009 0.0
H207 H 0.56355 0.74894 0.73819 0.0
H208 H 0.53921 0.71343 0.67254 0.0
O209 O 0.59393 0.67659 0.82758 0.0
C210 C 0.54556 0.64538 0.90203 0.0
C211 C 0.54439 0.687 0.72185 0.0
C212 C 0.56107 0.73053 0.74689 0.0
N213 N 0.56861 0.70337 0.80614 0.0
C214 C 0.55514 0.6837 0.77045 0.0
C215 C 0.57154 0.72653 0.79511 0.0
C216 C 0.54743 0.7106 0.71006 0.0
C217 C 0.5861 0.67886 0.06212 0.0
N218 N 0.57745 0.65855 0.02717 0.0
C219 C 0.57318 0.67758 0.11142 0.0
C220 C 0.55124 0.65532 0.12486 0.0
C221 C 0.54252 0.63468 0.08904 0.0
C222 C 0.55593 0.63664 0.0401 0.0
C223 C 0.60159 0.60388 0.04097 0.0
C224 C 0.58835 0.61203 0.9352 0.0
C225 C 0.60171 0.62614 0.02821 0.0
N226 N 0.59516 0.62999 0.97582 0.0
C227 C 0.588 0.58953 0.94644 0.0
C228 C 0.59468 0.58549 0.99971 0.0
C229 C 0.60808 0.66704 0.83734 0.0
C230 C 0.65176 0.76545 0.88775 0.0
C231 C 0.62564 0.73068 0.80423 0.0
C232 C 0.64907 0.75156 0.79208 0.0
C233 C 0.66218 0.76904 0.8342 0.0
N234 N 0.61549 0.72733 0.8568 0.0
C235 C 0.62827 0.74434 0.89836 0.0
Co236 Co 0.95531 0.59271 0.14674 0.0
Co237 Co 0.90369 0.58077 0.06498 0.0
O238 O 0.926 0.5963 0.12985 0.0
C239 C 0.97174 0.64715 0.17323 0.0
O240 O 0.95053 0.64484 0.15514 0.0
C241 C 0.86886 0.56411 0.165 0.0
O242 O 0.88437 0.55827 0.18966 0.0
O243 O 0.90008 0.54702 0.08183 0.0
O244 O 0.93597 0.55632 0.12638 0.0
H245 H 0.87344 0.52827 0.88997 0.0
H246 H 0.93192 0.61093 0.23131 0.0
O247 O 0.97604 0.62895 0.16947 0.0
H248 H 0.9364 0.54165 0.32429 0.0
H249 H 0.03201 0.60767 0.25575 0.0
H250 H 0.97886 0.5667 0.09016 0.0
H251 H 0.95228 0.55429 0.22791 0.0
H252 H 0.99469 0.61163 0.23671 0.0
O253 O 0.87325 0.5723 0.11442 0.0
H254 H 0.90145 0.54802 0.97125 0.0
H255 H 0.85786 0.5806 0.02281 0.0
H256 H 1.01586 0.56201 0.10806 0.0
H257 H 0.91635 0.5993 0.32785 0.0
H258 H 0.04273 0.58259 0.19136 0.0
H259 H 0.91839 0.56432 0.37516 0.0
O260 O 0.96793 0.60229 0.06829 0.0
H261 H 0.90217 0.65992 0.11109 0.0
H262 H 0.91538 0.61219 0.96161 0.0
H263 H 0.91978 0.65342 0.93962 0.0
H264 H 0.91306 0.67756 0.01464 0.0
H265 H 0.89844 0.61882 0.13147 0.0
H266 H 0.82927 0.56107 0.94238 0.0
H267 H 0.83705 0.53477 0.87515 0.0
O268 O 0.93376 0.58979 0.01401 0.0
C269 C 0.91492 0.54063 0.10442 0.0
C270 C 0.86989 0.53974 0.91889 0.0
C271 C 0.84508 0.55812 0.94835 0.0
N272 N 0.88137 0.56554 1.00149 0.0
C273 C 0.88572 0.55101 0.96488 0.0
C274 C 0.86129 0.56908 0.99391 0.0
C275 C 0.84946 0.54338 0.91063 0.0
C276 C 0.93335 0.59601 0.25147 0.0
N277 N 0.94328 0.5835 0.22365 0.0
C278 C 0.92428 0.58935 0.30627 0.0
C279 C 0.92536 0.56969 0.33273 0.0
C280 C 0.93543 0.55696 0.30419 0.0
C281 C 0.94429 0.56413 0.24942 0.0
C282 C 0.02043 0.59858 0.21936 0.0
C283 C 0.99035 0.57555 0.12674 0.0
C284 C 0.99931 0.60083 0.20821 0.0
N285 N 0.98446 0.58923 0.16256 0.0
C286 C 1.01133 0.57291 0.13654 0.0
C287 C 0.02642 0.58449 0.18324 0.0
C288 C 0.95758 0.59913 0.02021 0.0
C289 C 0.90516 0.64959 0.07804 0.0
C290 C 0.91279 0.62271 0.99467 0.0
C291 C 0.91513 0.64599 0.98187 0.0
C292 C 0.91131 0.6595 0.02395 0.0
N293 N 0.90687 0.61316 0.0479 0.0
C294 C 0.90298 0.62625 0.08928 0.0
Co295 Co 0.36867 0.9494 0.303 0.0
Co296 Co 0.33071 0.89735 0.22464 0.0
O297 O 0.33625 0.91894 0.29001 0.0
C298 C 0.3292 0.96145 0.34556 0.0
O299 O 0.31047 0.93976 0.32895 0.0
C300 C 0.31027 0.86131 0.32232 0.0
O301 O 0.33157 0.87596 0.3482 0.0
O302 O 0.36013 0.89356 0.24682 0.0
O303 O 0.38732 0.93347 0.26988 0.0
H304 H 0.35704 0.86788 0.05457 0.0
H305 H 0.33291 0.92452 0.39828 0.0
O306 O 0.35194 0.96716 0.33719 0.0
H307 H 0.412 0.92896 0.45649 0.0
H308 H 0.43154 0.02552 0.41173 0.0
H309 H 0.41484 0.9782 0.23454 0.0
H310 H 0.40893 0.94572 0.36474 0.0
H311 H 0.39111 0.98647 0.39681 0.0
O312 O 0.30722 0.86661 0.27195 0.0
H313 H 0.36345 0.89537 0.13589 0.0
H314 H 0.2859 0.85215 0.17734 0.0
H315 H 0.45561 0.01705 0.24794 0.0
H316 H 0.33531 0.90799 0.49065 0.0
H317 H 0.46418 0.04099 0.33707 0.0
H318 H 0.37505 0.91005 0.52039 0.0
O319 O 0.36637 0.96232 0.22833 0.0
H320 H 0.24972 0.89689 0.25919 0.0
H321 H 0.31402 0.91018 0.11807 0.0
H322 H 0.27816 0.91535 0.09077 0.0
H323 H 0.24564 0.90863 0.16154 0.0
H324 H 0.28604 0.89221 0.28488 0.0
H325 H 0.27867 0.82406 0.09677 0.0
H326 H 0.31438 0.83192 0.03461 0.0
O327 O 0.35339 0.9279 0.175 0.0
C328 C 0.38236 0.91116 0.25835 0.0
C329 C 0.34131 0.8643 0.08126 0.0
C330 C 0.29733 0.83969 0.10499 0.0
N331 N 0.32505 0.87547 0.16102 0.0
C332 C 0.34482 0.87984 0.12725 0.0
C333 C 0.30155 0.85562 0.15062 0.0
C334 C 0.31738 0.84412 0.07011 0.0
C335 C 0.35043 0.92601 0.41106 0.0
N336 N 0.37086 0.93654 0.37623 0.0
C337 C 0.35161 0.91638 0.46339 0.0
C338 C 0.37388 0.91747 0.47999 0.0
C339 C 0.3946 0.92806 0.44416 0.0
C340 C 0.39272 0.93749 0.39214 0.0
C341 C 0.42805 0.01523 0.37276 0.0
C342 C 0.41847 0.98843 0.27358 0.0
C343 C 0.40517 0.99313 0.36399 0.0
N344 N 0.40069 0.97993 0.315 0.0
C345 C 0.44158 1.01045 0.28086 0.0
C346 C 0.44636 0.02389 0.33086 0.0
C347 C 0.36304 0.95186 0.18043 0.0
C348 C 0.26377 0.89989 0.22797 0.0
C349 C 0.30011 0.90747 0.14931 0.0
C350 C 0.27976 0.9103 0.1335 0.0
C351 C 0.26151 0.90649 0.1732 0.0
N352 N 0.30223 0.90105 0.20317 0.0
C353 C 0.28437 0.89721 0.24225 0.0
Co354 Co 0.6671 0.59032 0.39401 0.0
Co355 Co 0.70396 0.57809 0.47965 0.0
O356 O 0.69886 0.59204 0.41104 0.0
C357 C 0.68615 0.64306 0.35627 0.0
O358 O 0.67332 0.64588 0.39696 0.0
C359 C 0.72321 0.5589 0.38696 0.0
O360 O 0.70138 0.55078 0.36227 0.0
O361 O 0.67365 0.54453 0.46194 0.0
O362 O 0.64713 0.55755 0.43444 0.0
H363 H 0.67703 0.5286 0.65916 0.0
H364 H 0.70255 0.5975 0.30139 0.0
O365 O 0.68673 0.62268 0.35218 0.0
H366 H 0.62374 0.51994 0.25384 0.0
H367 H 0.60682 0.60088 0.26897 0.0
H368 H 0.62085 0.57771 0.45826 0.0
H369 H 0.62664 0.54366 0.33969 0.0
H370 H 0.64624 0.60133 0.29146 0.0
O371 O 0.72678 0.56879 0.43587 0.0
H372 H 0.6711 0.54735 0.57298 0.0
H373 H 0.7481 0.57763 0.53052 0.0
H374 H 0.5811 0.57687 0.4375 0.0
H375 H 0.70029 0.57459 0.21463 0.0
H376 H 0.5739 0.58855 0.34227 0.0
H377 H 0.66071 0.53544 0.19047 0.0
O378 O 0.66957 0.60843 0.46506 0.0
H379 H 0.78458 0.65725 0.43295 0.0
H380 H 0.72274 0.61046 0.58185 0.0
H381 H 0.75929 0.65205 0.60312 0.0
H382 H 0.79058 0.67571 0.5284 0.0
H383 H 0.7476 0.61571 0.41335 0.0
H384 H 0.75485 0.55902 0.61593 0.0
H385 H 0.71917 0.5344 0.68106 0.0
O386 O 0.68221 0.58865 0.52491 0.0
C387 C 0.65153 0.5403 0.45044 0.0
C388 C 0.69274 0.53935 0.6312 0.0
C389 C 0.73641 0.55639 0.60688 0.0
N390 N 0.70926 0.56369 0.54705 0.0
C391 C 0.6895 0.55006 0.58245 0.0
C392 C 0.73246 0.56681 0.55851 0.0
C393 C 0.71638 0.54259 0.64343 0.0
C394 C 0.68512 0.5807 0.2908 0.0
N395 N 0.66471 0.57206 0.32549 0.0
C396 C 0.68401 0.56771 0.24175 0.0
C397 C 0.66182 0.54572 0.2283 0.0
C398 C 0.64108 0.537 0.26386 0.0
C399 C 0.64288 0.55047 0.31255 0.0
C400 C 0.60974 0.59576 0.31063 0.0
C401 C 0.61784 0.58277 0.41671 0.0
C402 C 0.63204 0.59603 0.32365 0.0
N403 N 0.63587 0.5896 0.3762 0.0
C404 C 0.5953 0.58228 0.4052 0.0
C405 C 0.59127 0.58884 0.35177 0.0
C406 C 0.67267 0.60279 0.51492 0.0
C407 C 0.7711 0.64711 0.46589 0.0
C408 C 0.73618 0.62069 0.54903 0.0
C409 C 0.75689 0.64421 0.56137 0.0
C410 C 0.77445 0.65746 0.51944 0.0
N411 N 0.73306 0.61061 0.49646 0.0
C412 C 0.75015 0.62354 0.45508 0.0
Co413 Co 0.07868 0.65471 0.55672 0.0
Co414 Co 0.13042 0.69432 0.63422 0.0
O415 O 0.10884 0.68755 0.5684 0.0
C416 C 0.06638 0.69333 0.5101 0.0
O417 O 0.08751 0.71219 0.52876 0.0
C418 C 0.16656 0.71467 0.5364 0.0
O419 O 0.15232 0.6932 0.51074 0.0
O420 O 0.1348 0.66492 0.61472 0.0
O421 O 0.09487 0.63695 0.59304 0.0
H422 H 0.16023 0.67091 0.80813 0.0
H423 H 0.10322 0.68919 0.45926 0.0
O424 O 0.06073 0.67065 0.51936 0.0
H425 H 0.10094 0.61021 0.40949 0.0
H426 H 1.00341 0.58983 0.44898 0.0
H427 H 0.05024 0.60914 0.62735 0.0
H428 H 0.08368 0.61421 0.4998 0.0
H429 H 0.04203 0.63075 0.46276 0.0
O430 O 0.16108 0.71768 0.58664 0.0
H431 H 0.13281 0.66304 0.72592 0.0
H432 H 0.17512 0.74013 0.67997 0.0
H433 H 1.01184 0.56791 0.61513 0.0
H434 H 0.12021 0.68583 0.36826 0.0
H435 H 0.98813 0.55803 0.52542 0.0
H436 H 0.11924 0.64614 0.34278 0.0
O437 O 0.06538 0.6576 0.63055 0.0
H438 H 0.12961 0.77421 0.59283 0.0
H439 H 0.11711 0.71201 0.73868 0.0
H440 H 0.11122 0.74776 0.76267 0.0
H441 H 0.11754 0.77923 0.68949 0.0
H442 H 0.13496 0.73797 0.57046 0.0
H443 H 0.20313 0.7488 0.76136 0.0
H444 H 0.19569 0.71406 0.82625 0.0
O445 O 0.09991 0.67191 0.6842 0.0
C446 C 0.11722 0.6424 0.60555 0.0
C447 C 0.16362 0.68621 0.78025 0.0
C448 C 0.18773 0.72993 0.75395 0.0
N449 N 0.15228 0.70112 0.69844 0.0
C450 C 0.14813 0.68188 0.73373 0.0
C451 C 0.17185 0.72489 0.70784 0.0
C452 C 0.18353 0.71043 0.79035 0.0
C453 C 0.10218 0.67168 0.44829 0.0
N454 N 0.09198 0.6518 0.48467 0.0
C455 C 0.11208 0.66996 0.39674 0.0
C456 C 0.1116 0.64772 0.38254 0.0
C457 C 0.10135 0.62757 0.41996 0.0
C458 C 0.09163 0.62997 0.47113 0.0
C459 C 1.0136 0.5939 0.48824 0.0
C460 C 0.04013 0.60494 0.58807 0.0
C461 C 0.03545 0.61707 0.49636 0.0
N462 N 0.04849 0.6223 0.54573 0.0
C463 C 0.01835 0.58158 0.58145 0.0
C464 C 1.00504 0.57606 0.53113 0.0
C465 C 0.07587 0.66149 0.6786 0.0
C466 C 0.12676 0.7606 0.62507 0.0
C467 C 0.11958 0.72541 0.70639 0.0
C468 C 0.11637 0.74572 0.72033 0.0
C469 C 0.11997 0.7634 0.67929 0.0
N470 N 0.12613 0.72273 0.65303 0.0
C471 C 0.12981 0.74005 0.61267 0.0
Co472 Co 0.43366 0.07308 0.71816 0.0
Co473 Co 0.4472 0.12512 0.7956 0.0
O474 O 0.4317 0.10361 0.72989 0.0
C475 C 0.38251 0.06113 0.67358 0.0
O476 O 0.3852 0.08255 0.69139 0.0
C477 C 0.46297 0.16129 0.69788 0.0
O478 O 0.46969 0.14675 0.67174 0.0
O479 O 0.48062 0.129 0.77459 0.0
O480 O 0.4678 0.08883 0.75381 0.0
H481 H 0.50173 0.15441 0.96763 0.0
H482 H 0.42381 0.09759 0.62087 0.0
O483 O 0.39961 0.0555 0.68173 0.0
H484 H 0.4997 0.094 0.56965 0.0
H485 H 0.42158 0.99709 0.61087 0.0
H486 H 0.44983 0.04401 0.78906 0.0
H487 H 0.47866 0.07714 0.66038 0.0
H488 H 0.4202 0.03619 0.62441 0.0
O489 O 0.45468 0.15591 0.7483 0.0
H490 H 0.48128 0.12704 0.88576 0.0
H491 H 0.44717 0.17019 0.84236 0.0
H492 H 0.45174 1.00511 0.77709 0.0
H493 H 0.44399 0.11423 0.52944 0.0
H494 H 0.43755 0.98137 0.68746 0.0
H495 H 0.4823 0.1126 0.50326 0.0
O496 O 0.41741 0.06016 0.79197 0.0
H497 H 0.36682 0.12546 0.75789 0.0
H498 H 0.4169 0.1121 0.90117 0.0
H499 H 0.37565 0.10681 0.92691 0.0
H500 H 0.35032 0.11356 0.85505 0.0
H501 H 0.40804 0.13025 0.73375 0.0
H502 H 0.4674 0.19815 0.92344 0.0
H503 H 0.49482 0.19026 0.98687 0.0
O504 O 0.43897 0.09451 0.84541 0.0
C505 C 0.48514 0.11118 0.76515 0.0
C506 C 0.48977 0.158 0.94038 0.0
C507 C 0.47053 0.18257 0.91553 0.0
N508 N 0.46295 0.14693 0.85959 0.0
C509 C 0.4781 0.14254 0.89406 0.0
C510 C 0.45918 0.16672 0.8696 0.0
C511 C 0.48591 0.17813 0.95112 0.0
C512 C 0.44014 0.09632 0.60959 0.0
N513 N 0.44972 0.08599 0.64582 0.0
C514 C 0.45164 0.106 0.55782 0.0
C515 C 0.47317 0.10514 0.54321 0.0
C516 C 0.48295 0.09473 0.58045 0.0
C517 C 0.47095 0.08524 0.63186 0.0
C518 C 0.42787 1.0073 0.65007 0.0
C519 C 0.44377 0.03388 0.7498 0.0
C520 C 0.42708 0.02943 0.65804 0.0
N521 N 0.43514 0.04251 0.70733 0.0
C522 C 0.44483 0.01182 0.74333 0.0
C523 C 0.43684 0.99849 0.69305 0.0
C524 C 0.42434 0.07059 0.83995 0.0
C525 C 0.37767 0.12244 0.78957 0.0
C526 C 0.4059 0.11481 0.86945 0.0
C527 C 0.3826 0.11192 0.88438 0.0
C528 C 0.36841 0.11575 0.84407 0.0
N529 N 0.41483 0.12131 0.81583 0.0
C530 C 0.40106 0.12518 0.77617 0.0
Co531 Co 0.37149 0.42739 0.88245 0.0
Co532 Co 0.33274 0.44065 0.95966 0.0
O533 O 0.3389 0.4252 0.8941 0.0
C534 C 0.33245 0.3761 0.83807 0.0
O535 O 0.31363 0.37868 0.85568 0.0
C536 C 0.31255 0.45644 0.86178 0.0
O537 O 0.33396 0.46334 0.83612 0.0
O538 O 0.36221 0.47412 0.93869 0.0
O539 O 0.38976 0.46157 0.91794 0.0
H540 H 0.35761 0.49524 0.1316 0.0
H541 H 0.33707 0.41723 0.78515 0.0
O542 O 0.35516 0.39331 0.84623 0.0
H543 H 0.41638 0.49336 0.73367 0.0
H544 H 0.43569 0.41566 0.7754 0.0
H545 H 0.41681 0.44392 0.95334 0.0
H546 H 0.41231 0.47245 0.82449 0.0
H547 H 0.39507 0.41402 0.78885 0.0
O548 O 0.30941 0.44798 0.91208 0.0
H549 H 0.36474 0.47486 0.0499 0.0
H550 H 0.28747 0.4404 1.00604 0.0
H551 H 0.45774 0.44609 0.94145 0.0
H552 H 0.34048 0.43727 0.69364 0.0
H553 H 0.4674 0.43189 0.85195 0.0
H554 H 0.38035 0.4757 0.66733 0.0
O555 O 0.36825 0.41126 0.95632 0.0
H556 H 0.25215 0.36005 0.92186 0.0
H557 H 0.31547 0.41038 0.06524 0.0
H558 H 0.27955 0.36906 0.09097 0.0
H559 H 0.24752 0.3436 0.01906 0.0
H560 H 0.28854 0.40134 0.89774 0.0
H561 H 0.27953 0.46056 0.08694 0.0
H562 H 0.31474 0.48813 0.15051 0.0
O563 O 0.3552 0.43262 0.00967 0.0
C564 C 0.3846 0.47879 0.92923 0.0
C565 C 0.3421 0.48322 0.10429 0.0
C566 C 0.29829 0.46378 0.07918 0.0
N567 N 0.32652 0.45635 0.02352 0.0
C568 C 0.34602 0.47158 0.05807 0.0
C569 C 0.30291 0.45247 0.03335 0.0
C570 C 0.31805 0.47924 0.11485 0.0
C571 C 0.35463 0.43361 0.77382 0.0
N572 N 0.37456 0.44333 0.81002 0.0
C573 C 0.35639 0.44503 0.72199 0.0
C574 C 0.37873 0.46663 0.70732 0.0
C575 C 0.39894 0.47655 0.74453 0.0
C576 C 0.39649 0.46463 0.79599 0.0
C577 C 0.43172 0.42195 0.81454 0.0
C578 C 0.42093 0.43786 0.91414 0.0
C579 C 0.40873 0.42102 0.82247 0.0
N580 N 0.40365 0.42908 0.87169 0.0
C581 C 0.44411 0.43906 0.90771 0.0
C582 C 0.44951 0.43107 0.85751 0.0
C583 C 0.3647 0.41818 1.00426 0.0
C584 C 0.26599 0.37095 0.95357 0.0
C585 C 0.30178 0.39932 0.0335 0.0
C586 C 0.2814 0.37598 0.04843 0.0
C587 C 0.26342 0.36172 0.00809 0.0
N588 N 0.30422 0.40822 0.97987 0.0
C589 C 0.28662 0.39438 0.94018 0.0
Co590 Co 0.95568 0.36651 0.04364 0.0
Co591 Co 0.90394 0.32654 0.12087 0.0
O592 O 0.92554 0.33361 0.05482 0.0
C593 C 0.96892 0.32827 0.99918 0.0
O594 O 0.94796 0.30923 0.01804 0.0
C595 C 0.8679 0.30721 0.02311 0.0
O596 O 0.88236 0.32891 0.99845 0.0
O597 O 0.89957 0.35601 0.10264 0.0
O598 O 0.93935 0.3841 0.08013 0.0
H599 H 0.87406 0.34894 0.29625 0.0
H600 H 0.93203 0.33241 0.94573 0.0
O601 O 0.97384 0.35084 1.00648 0.0
H602 H 0.93294 0.41085 0.89701 0.0
H603 H 0.03085 0.43217 0.93677 0.0
H604 H 0.98409 0.41154 0.11555 0.0
H605 H 0.95028 0.40694 0.98726 0.0
H606 H 0.99234 0.39106 0.94984 0.0
O607 O 0.87328 0.30357 0.07293 0.0
H608 H 0.90151 0.3573 0.21378 0.0
H609 H 0.85923 0.28049 0.16575 0.0
H610 H 0.02239 0.45295 0.10408 0.0
H611 H 0.9149 0.33568 0.85476 0.0
H612 H 0.04604 0.46349 0.01415 0.0
H613 H 0.91519 0.3751 0.82986 0.0
O614 O 0.96888 0.36325 0.11709 0.0
H615 H 0.90441 0.24669 0.07686 0.0
H616 H 0.91757 0.3085 0.22427 0.0
H617 H 0.92339 0.27258 0.24689 0.0
H618 H 0.91673 0.24131 0.17295 0.0
H619 H 0.89914 0.28309 0.05581 0.0
H620 H 0.83121 0.27132 0.2474 0.0
H621 H 0.83862 0.30568 0.31345 0.0
O622 O 0.93443 0.3487 0.17109 0.0
C623 C 0.91703 0.37855 0.09333 0.0
C624 C 0.87068 0.3338 0.26785 0.0
C625 C 0.8466 0.29024 0.24039 0.0
N626 N 0.88206 0.31938 0.18526 0.0
C627 C 0.88619 0.33841 0.22118 0.0
C628 C 0.86249 0.29556 0.19415 0.0
C629 C 0.85078 0.30952 0.27745 0.0
C630 C 0.93268 0.34978 0.93499 0.0
N631 N 0.94252 0.36955 0.97164 0.0
C632 C 0.92275 0.35146 0.88348 0.0
C633 C 0.92286 0.37356 0.8696 0.0
C634 C 0.9328 0.39361 0.90726 0.0
C635 C 0.94255 0.39125 0.95839 0.0
C636 C 0.02067 0.42782 0.9761 0.0
C637 C 0.99418 0.41605 0.07616 0.0
C638 C 0.99887 0.40455 0.9838 0.0
N639 N 0.98583 0.39899 0.03325 0.0
C640 C 1.0159 0.4395 0.06997 0.0
C641 C 0.02918 0.44539 0.01953 0.0
C642 C 0.95843 0.35891 0.16522 0.0
C643 C 0.90738 0.2602 0.10944 0.0
C644 C 0.91491 0.29516 0.19164 0.0
C645 C 0.91809 0.27476 0.20482 0.0
C646 C 0.91432 0.2572 0.16334 0.0
N647 N 0.90819 0.29803 0.1386 0.0
C648 C 0.90436 0.28082 0.09781 0.0
Co649 Co 0.58538 0.94505 0.21265 0.0
Co650 Co 0.58507 0.89755 0.28629 0.0
O651 O 0.59268 0.91763 0.21813 0.0
C652 C 0.63724 0.96826 0.16409 0.0
O653 O 0.64591 0.96389 0.21057 0.0
C654 C 0.56512 0.85938 0.19254 0.0
O655 O 0.55402 0.87126 0.17255 0.0
O656 O 0.54899 0.88903 0.28108 0.0
O657 O 0.55568 0.92777 0.26389 0.0
H658 H 0.54678 0.86797 0.47717 0.0
H659 H 0.59031 0.92121 0.10862 0.0
O660 O 0.61436 0.96268 0.16019 0.0
H661 H 0.50538 0.91081 0.10028 0.0
H662 H 0.57878 0.01331 0.11044 0.0
H663 H 0.57104 0.97253 0.29354 0.0
H664 H 0.53352 0.93286 0.17987 0.0
H665 H 0.58642 0.97765 0.11858 0.0
O666 O 0.57738 0.86682 0.23869 0.0
H667 H 0.55757 0.89379 0.39118 0.0
H668 H 0.59491 0.85702 0.32485 0.0
H669 H 0.56307 1.00801 0.28719 0.0
H670 H 0.56295 0.89946 0.02767 0.0
H671 H 0.56692 0.02866 0.19511 0.0
H672 H 0.52009 0.89401 0.0233 0.0
O673 O 0.60726 0.96169 0.27858 0.0
H674 H 0.66632 0.90999 0.2068 0.0
H675 H 0.62357 0.91496 0.37755 0.0
H676 H 0.66825 0.92672 0.38239 0.0
H677 H 0.68991 0.92421 0.29659 0.0
H678 H 0.62171 0.89862 0.20376 0.0
H679 H 0.58434 0.83063 0.40983 0.0
H680 H 0.5602 0.83612 0.48685 0.0
O681 O 0.59396 0.92835 0.33583 0.0
C682 C 0.54131 0.90484 0.27753 0.0
C683 C 0.55737 0.86545 0.44397 0.0
C684 C 0.57841 0.84447 0.40614 0.0
N685 N 0.57698 0.87701 0.3533 0.0
C686 C 0.56358 0.88005 0.39529 0.0
C687 C 0.58428 0.8594 0.35805 0.0
C688 C 0.56488 0.84756 0.44935 0.0
C689 C 0.57183 0.91923 0.10666 0.0
N690 N 0.56358 0.92837 0.14892 0.0
C691 C 0.55636 0.90677 0.06085 0.0
C692 C 0.53229 0.90368 0.05848 0.0
C693 C 0.52403 0.91308 0.10167 0.0
C694 C 0.54003 0.92548 0.14676 0.0
C695 C 0.57702 1.00445 0.15078 0.0
C696 C 0.57265 0.98132 0.25327 0.0
C697 C 0.58139 0.98429 0.15569 0.0
N698 N 0.57906 0.97292 0.20645 0.0
C699 C 0.56817 1.00145 0.24996 0.0
C700 C 0.57036 0.01304 0.1983 0.0
C701 C 0.60529 0.9523 0.32744 0.0
C702 C 0.65708 0.9111 0.2445 0.0
C703 C 0.63288 0.91391 0.33999 0.0
C704 C 0.65817 0.92054 0.34302 0.0
C705 C 0.67031 0.91911 0.29488 0.0
N706 N 0.62001 0.90602 0.29046 0.0
C707 C 0.63179 0.90461 0.24307 0.0
H708 H 0.38013 0.38333 0.00841 0.0
H709 H 0.36857 0.4334 0.11536 0.0
H710 H 0.39427 0.36928 0.08835 0.0
H711 H 0.38379 0.42002 0.19572 0.0
H712 H 0.38974 0.37453 0.34012 0.0
H713 H 0.37541 0.3884 0.26021 0.0
H714 H 0.42611 0.378 0.15245 0.0
H715 H 0.43977 0.36305 0.23278 0.0
C716 C 0.38072 0.39154 0.04903 0.0
C717 C 0.37305 0.40959 0.05491 0.0
C718 C 0.38915 0.38356 0.09524 0.0
C719 C 0.39049 0.39343 0.14934 0.0
C720 C 0.38279 0.41153 0.15529 0.0
C721 C 0.37412 0.41939 0.10893 0.0
C722 C 0.39789 0.37508 0.29942 0.0
C723 C 0.41601 0.36751 0.29342 0.0
C724 C 0.38974 0.38335 0.25323 0.0
C725 C 0.3995 0.38462 0.19902 0.0
C726 C 0.41769 0.37704 0.19297 0.0
C727 C 0.42571 0.36853 0.23931 0.0
H728 H 0.0277 0.38223 0.49999 0.0
H729 H 0.08864 0.43421 0.39372 0.0
H730 H 0.99944 0.36798 0.42015 0.0
H731 H 0.05996 0.42064 0.31352 0.0
H732 H 1.00899 0.37541 0.16835 0.0
H733 H 0.03728 0.38929 0.24814 0.0
H734 H 0.97564 0.37625 0.35721 0.0
H735 H 0.94698 0.36129 0.27699 0.0
C736 C 0.03515 0.39081 0.45954 0.0
C737 C 0.0607 0.40946 0.4538 0.0
C738 C 0.0187 0.38272 0.41341 0.0
C739 C 0.02702 0.39308 0.35955 0.0
C740 C 0.05265 0.41176 0.35374 0.0
C741 C 0.06922 0.41973 0.40001 0.0
C742 C 1.0013 0.37538 0.20932 0.0
C743 C 0.97545 0.36708 0.21572 0.0
C744 C 0.01776 0.38365 0.25544 0.0
C745 C 1.00914 0.38419 0.30997 0.0
C746 C 0.98321 0.37587 0.31643 0.0
C747 C 0.96664 0.36735 0.27015 0.0
H748 H 0.61333 0.94285 0.43689 0.0
H749 H 0.62043 1.00267 0.32952 0.0
H750 H 0.63021 0.97226 0.51515 0.0
H751 H 0.6358 0.0317 0.40806 0.0
H752 H 0.68146 0.08566 0.54922 0.0
H753 H 0.66724 0.05676 0.46945 0.0
H754 H 0.62328 0.99465 0.58192 0.0
H755 H 0.63863 0.02314 0.66098 0.0
C756 C 0.61831 0.96223 0.42993 0.0
C757 C 0.61549 0.97018 0.37636 0.0
C758 C 0.62786 0.97924 0.47525 0.0
C759 C 0.6345 1.00477 0.46902 0.0
C760 C 0.63154 0.01257 0.41525 0.0
C761 C 0.62242 0.99568 0.36983 0.0
C762 C 0.66887 0.06581 0.55689 0.0
C763 C 0.66147 0.05695 0.61207 0.0
C764 C 0.66045 0.04908 0.51083 0.0
C765 C 0.64397 0.02293 0.51824 0.0
C766 C 0.63637 0.0143 0.57359 0.0
C767 C 0.64508 0.03089 0.61944 0.0
H768 H 0.68449 0.60633 0.62808 0.0
H769 H 0.64007 0.62109 0.51041 0.0
H770 H 0.67039 0.62293 0.70386 0.0
H771 H 0.62437 0.63575 0.58603 0.0
H772 H 0.6117 0.67907 0.7242 0.0
H773 H 0.62833 0.66503 0.64828 0.0
H774 H 0.64101 0.61881 0.76585 0.0
H775 H 0.62634 0.63443 0.84155 0.0
C776 C 0.67149 0.61286 0.61834 0.0
C777 C 0.66363 0.61235 0.56263 0.0
C778 C 0.66306 0.62225 0.66222 0.0
C779 C 0.64591 0.63091 0.65232 0.0
C780 C 0.63791 0.63002 0.59639 0.0
C781 C 0.6468 0.62123 0.5525 0.0
C782 C 0.61821 0.66604 0.73384 0.0
C783 C 0.61765 0.65809 0.78951 0.0
C784 C 0.62762 0.65766 0.68989 0.0
C785 C 0.63626 0.64049 0.69969 0.0
C786 C 0.63531 0.63239 0.75556 0.0
C787 C 0.62651 0.64123 0.7995 0.0
H788 H 0.08823 0.67162 0.7914 0.0
H789 H 0.0247 0.6302 0.68146 0.0
H790 H 0.06001 0.65712 0.87236 0.0
H791 H 0.99679 0.61465 0.76175 0.0
H792 H 0.94707 0.60644 0.91106 0.0
H793 H 0.97551 0.62215 0.83096 0.0
H794 H 0.03503 0.62499 0.93319 0.0
H795 H 1.00692 0.61061 0.01366 0.0
C796 C 0.06829 0.6593 0.78436 0.0
C797 C 0.05895 0.65237 0.72934 0.0
C798 C 0.05195 0.65071 0.8311 0.0
C799 C 0.02571 0.63456 0.82459 0.0
C800 C 0.01657 0.62745 0.7694 0.0
C801 C 0.0328 0.6363 0.72284 0.0
C802 C 0.96621 0.61043 0.91655 0.0
C803 C 0.97451 0.60729 0.96945 0.0
C804 C 0.98268 0.61935 0.87016 0.0
C805 C 1.00799 0.62509 0.87461 0.0
C806 C 1.01606 0.62148 0.92748 0.0
C807 C 0.99971 0.61292 0.97397 0.0
H808 H 0.43924 0.08191 0.95119 0.0
H809 H 0.38918 0.02033 0.84404 0.0
H810 H 0.42532 0.05337 0.03173 0.0
H811 H 0.37457 0.9922 0.92416 0.0
H812 H 0.36709 0.94038 0.06955 0.0
H813 H 0.38263 0.96891 0.98906 0.0
H814 H 0.3934 0.03042 0.09582 0.0
H815 H 0.37896 1.00229 0.17595 0.0
C816 C 0.42513 0.06237 0.94475 0.0
C817 C 0.41549 0.05364 0.89063 0.0
C818 C 0.41694 0.04587 0.99121 0.0
C819 C 0.39866 0.02011 0.98528 0.0
C820 C 0.38897 0.01157 0.93106 0.0
C821 C 0.39728 0.02795 0.88475 0.0
C822 C 0.37278 0.95999 0.07584 0.0
C823 C 0.3717 0.96881 0.12974 0.0
C824 C 0.38163 0.97648 0.02939 0.0
C825 C 0.38949 1.00234 0.03511 0.0
C826 C 0.38815 0.01097 0.08911 0.0
C827 C 0.37955 0.9946 0.13542 0.0
H828 H 0.60505 0.52785 0.48647 0.0
H829 H 0.64768 0.49487 0.4222 0.0
H830 H 0.56654 0.48759 0.47883 0.0
H831 H 0.60854 0.45415 0.41249 0.0
H832 H 0.52971 0.38011 0.44545 0.0
H833 H 0.57151 0.41771 0.45716 0.0
H834 H 0.54137 0.46426 0.40135 0.0
H835 H 0.50014 0.42731 0.39148 0.0
C836 C 0.60618 0.51183 0.47114 0.0
C837 C 0.62939 0.51458 0.45469 0.0
C838 C 0.58402 0.48873 0.46615 0.0
C839 C 0.58421 0.46766 0.44347 0.0
C840 C 0.60764 0.46996 0.42996 0.0
C841 C 0.63008 0.49324 0.43567 0.0
C842 C 0.53224 0.3984 0.43499 0.0
C843 C 0.51153 0.40074 0.41817 0.0
C844 C 0.55615 0.41995 0.4418 0.0
C845 C 0.55976 0.44417 0.43165 0.0
C846 C 0.53925 0.4461 0.41154 0.0
C847 C 0.51555 0.42481 0.40535 0.0
H848 H 0.08371 0.49257 0.5489 0.0
H849 H 0.16062 0.52416 0.60411 0.0
H850 H 0.08694 0.53338 0.55717 0.0
H851 H 0.16376 0.5656 0.6139 0.0
H852 H 0.15957 0.64023 0.57488 0.0
H853 H 0.16279 0.60194 0.56596 0.0
H854 H 0.08828 0.55814 0.63642 0.0
H855 H 0.08492 0.59572 0.6437 0.0
C856 C 0.10144 0.50834 0.56263 0.0
C857 C 0.12182 0.505 0.57644 0.0
C858 C 0.10324 0.5318 0.56781 0.0
C859 C 0.12539 0.55274 0.58775 0.0
C860 C 0.14637 0.54986 0.59867 0.0
C861 C 0.14461 0.52616 0.59297 0.0
C862 C 0.14416 0.62243 0.58935 0.0
C863 C 0.12188 0.62093 0.60939 0.0
C864 C 0.14595 0.6005 0.58412 0.0
C865 C 0.12553 0.5768 0.59908 0.0
C866 C 0.10407 0.57585 0.62271 0.0
C867 C 0.10221 0.59749 0.62735 0.0
H868 H 0.49948 0.07735 0.79175 0.0
H869 H 0.52996 0.15482 0.74173 0.0
H870 H 0.54066 0.08152 0.7828 0.0
H871 H 0.57177 0.15891 0.73116 0.0
H872 H 0.64723 0.15629 0.76826 0.0
H873 H 0.60833 0.15837 0.7777 0.0
H874 H 0.56616 0.0843 0.70426 0.0
H875 H 0.60436 0.08206 0.69658 0.0
C876 C 0.51507 0.09539 0.77897 0.0
C877 C 0.51131 0.11567 0.76687 0.0
C878 C 0.53876 0.09774 0.77337 0.0
C879 C 0.55953 0.12036 0.7547 0.0
C880 C 0.55619 0.14118 0.74539 0.0
C881 C 0.53227 0.13886 0.75153 0.0
C882 C 0.62965 0.14074 0.75323 0.0
C883 C 0.62879 0.11891 0.73222 0.0
C884 C 0.60737 0.14187 0.75877 0.0
C885 C 0.58394 0.12122 0.74313 0.0
C886 C 0.58363 0.10024 0.71854 0.0
C887 C 0.60563 0.09902 0.71362 0.0
H888 H 0.49991 0.64124 0.92929 0.0
H889 H 0.53351 0.59902 0.86595 0.0
H890 H 0.45924 0.60198 0.93802 0.0
H891 H 0.4933 0.5604 0.87258 0.0
H892 H 0.43263 0.49359 0.95808 0.0
H893 H 0.46956 0.53491 0.94925 0.0
H894 H 0.42316 0.56508 0.89254 0.0
H895 H 0.38557 0.52319 0.90325 0.0
C896 C 0.49843 0.6237 0.91584 0.0
C897 C 0.51992 0.62316 0.89739 0.0
C898 C 0.47518 0.6012 0.92098 0.0
C899 C 0.47306 0.57785 0.90742 0.0
C900 C 0.4943 0.57781 0.88531 0.0
C901 C 0.51737 0.60004 0.8809 0.0
C902 C 0.43016 0.50903 0.94423 0.0
C903 C 0.40615 0.505 0.93087 0.0
C904 C 0.45145 0.53278 0.93863 0.0
C905 C 0.44955 0.55332 0.91859 0.0
C906 C 0.42537 0.54969 0.90787 0.0
C907 C 0.40383 0.52573 0.9141 0.0
H908 H 0.87294 0.37944 0.07509 0.0
H909 H 0.95068 0.42626 0.12355 0.0
H910 H 0.8674 0.41657 0.07854 0.0
H911 H 0.94513 0.46265 0.12736 0.0
H912 H 0.92326 0.51672 0.18994 0.0
H913 H 0.91956 0.47552 0.18964 0.0
H914 H 0.88692 0.46151 0.02394 0.0
H915 H 0.8908 0.5035 0.02421 0.0
C916 C 0.88869 0.3975 0.0871 0.0
C917 C 0.91223 0.39988 0.09925 0.0
C918 C 0.88558 0.41873 0.08855 0.0
C919 C 0.90581 0.4425 0.10343 0.0
C920 C 0.92911 0.4446 0.11627 0.0
C921 C 0.9323 0.42369 0.11392 0.0
C922 C 0.91516 0.50494 0.15349 0.0
C923 C 0.90795 0.51371 0.10659 0.0
C924 C 0.91291 0.4812 0.15345 0.0
C925 C 0.90337 0.46543 0.10642 0.0
C926 C 0.89435 0.47328 0.06083 0.0
C927 C 0.89659 0.49729 0.06095 0.0
H928 H 0.38161 0.86556 0.25556 0.0
H929 H 0.43216 0.94589 0.2649 0.0
H930 H 0.4177 0.85888 0.26704 0.0
H931 H 0.46746 0.93925 0.27578 0.0
H932 H 0.52399 0.92568 0.35164 0.0
H933 H 0.48318 0.92327 0.34961 0.0
H934 H 0.4585 0.86694 0.21927 0.0
H935 H 0.4995 0.86894 0.22283 0.0
C936 C 0.4003 0.88175 0.25957 0.0
C937 C 0.40381 0.90625 0.25991 0.0
C938 C 0.42096 0.87791 0.26622 0.0
C939 C 0.44543 0.89851 0.27371 0.0
C940 C 0.44885 0.92289 0.27191 0.0
C941 C 0.42847 0.9267 0.26519 0.0
C942 C 0.50948 0.91204 0.32422 0.0
C943 C 0.51475 0.89729 0.28791 0.0
C944 C 0.4862 0.91089 0.32239 0.0
C945 C 0.46773 0.89533 0.28331 0.0
C946 C 0.47227 0.87907 0.24993 0.0
C947 C 0.49565 0.88005 0.25223 0.0
H948 H 0.29699 0.3564 0.75536 0.0
H949 H 0.35952 0.35259 0.82709 0.0
H950 H 0.29884 0.334 0.67194 0.0
H951 H 0.36113 0.32998 0.74469 0.0
H952 H 0.36288 0.29104 0.59272 0.0
H953 H 0.34035 0.29272 0.67611 0.0
H954 H 0.33615 0.35495 0.60347 0.0
H955 H 0.35889 0.35351 0.5211 0.0
C956 C 0.31034 0.34976 0.7544 0.0
C957 C 0.32824 0.35633 0.7973 0.0
C958 C 0.31147 0.33706 0.70662 0.0
C959 C 0.3302 0.33037 0.70173 0.0
C960 C 0.34631 0.33463 0.74743 0.0
C961 C 0.34549 0.3477 0.79454 0.0
C962 C 0.35618 0.30434 0.59369 0.0
C963 C 0.36272 0.32227 0.55084 0.0
C964 C 0.34341 0.30537 0.64146 0.0
C965 C 0.33662 0.32404 0.64637 0.0
C966 C 0.34087 0.34018 0.60071 0.0
C967 C 0.35401 0.33946 0.55362 0.0
H968 H 0.01937 0.35662 0.98694 0.0
H969 H 0.95385 0.29185 0.91873 0.0
H970 H 0.04381 0.35779 0.90531 0.0
H971 H 0.97832 0.29327 0.83599 0.0
H972 H 0.01791 0.35177 0.6815 0.0
H973 H 0.9939 0.32965 0.76463 0.0
H974 H 0.06105 0.33654 0.83979 0.0
H975 H 0.08508 0.35842 0.75565 0.0
C976 C 1.01048 0.34206 0.95534 0.0
C977 C 0.98475 0.32425 0.95882 0.0
C978 C 0.0245 0.34263 0.90872 0.0
C979 C 1.01292 0.32569 0.86417 0.0
C980 C 0.98768 0.30653 0.86982 0.0
C981 C 0.97373 0.30566 0.91718 0.0
C982 C 0.02728 0.34756 0.71477 0.0
C983 C 0.05331 0.35686 0.71243 0.0
C984 C 1.01352 0.3348 0.7623 0.0
C985 C 0.02566 0.33153 0.80882 0.0
C986 C 0.05127 0.33884 0.80445 0.0
C987 C 0.06497 0.35123 0.75627 0.0
H988 H 0.62168 0.96359 0.05664 0.0
H989 H 0.68901 0.99765 0.15819 0.0
H990 H 0.64608 0.98466 0.97455 0.0
H991 H 0.71403 0.01909 0.07419 0.0
H992 H 0.72676 0.08096 0.9321 0.0
H993 H 0.71685 0.05377 0.01423 0.0
H994 H 0.67725 0.9884 0.9079 0.0
H995 H 0.68608 0.01573 0.8266 0.0
C996 C 0.64187 0.97533 0.06128 0.0
C997 C 0.65339 0.97918 0.11408 0.0
C998 C 0.65599 0.98721 0.0138 0.0
C999 C 0.68211 1.00343 0.01753 0.0
C1000 C 0.69393 1.00666 0.07002 0.0
C1001 C 0.67967 0.9944 0.11796 0.0
C1002 C 0.71701 0.06076 0.92609 0.0
C1003 C 0.70698 0.05033 0.8734 0.0
C1004 C 0.71129 0.04515 0.97316 0.0
C1005 C 0.69567 0.01895 0.96775 0.0
C1006 C 0.68879 1.00855 0.91358 0.0
C1007 C 0.69403 0.02413 0.86692 0.0
H1008 H 0.64181 0.69777 0.0957 0.0
H1009 H 0.69325 0.68087 0.0083 0.0
H1010 H 0.66118 0.69837 0.18358 0.0
H1011 H 0.71435 0.6835 0.09682 0.0
H1012 H 0.68666 0.68784 0.3433 0.0
H1013 H 0.68923 0.70887 0.25467 0.0
H1014 H 0.70387 0.6555 0.16809 0.0
H1015 H 0.70332 0.6362 0.25608 0.0
C1016 C 0.65793 0.69507 0.09491 0.0
C1017 C 0.66537 0.68833 0.04506 0.0
C1018 C 0.66938 0.69571 0.14584 0.0
C1019 C 0.689 0.69018 0.14827 0.0
C1020 C 0.69861 0.68679 0.0972 0.0
C1021 C 0.68669 0.68554 0.04618 0.0
C1022 C 0.69126 0.68122 0.30543 0.0
C1023 C 0.69401 0.65987 0.30664 0.0
C1024 C 0.69249 0.6931 0.25434 0.0
C1025 C 0.69579 0.68341 0.20331 0.0
C1026 C 0.70126 0.66375 0.2058 0.0
C1027 C 0.70066 0.65235 0.2568 0.0
H1028 H 0.08406 0.72921 0.42809 0.0
H1029 H 1.01611 0.66581 0.49223 0.0
H1030 H 0.06179 0.72825 0.34188 0.0
H1031 H 0.99381 0.66519 0.40706 0.0
H1032 H 0.95617 0.6679 0.25352 0.0
H1033 H 0.97952 0.68885 0.33885 0.0
H1034 H 0.04571 0.69102 0.2706 0.0
H1035 H 0.0223 0.6697 0.18615 0.0
C1036 C 0.06412 0.71581 0.42481 0.0
C1037 C 0.05177 0.69751 0.46662 0.0
C1038 C 0.05144 0.7152 0.37543 0.0
C1039 C 0.02611 0.69665 0.36782 0.0
C1040 C 1.01323 0.67991 0.41201 0.0
C1041 C 0.02601 0.68017 0.46068 0.0
C1042 C 0.97602 0.67395 0.2557 0.0
C1043 C 0.98747 0.66717 0.21341 0.0
C1044 C 0.98931 0.68576 0.30467 0.0
C1045 C 1.01434 0.69139 0.31142 0.0
C1046 C 0.02652 0.68713 0.26637 0.0
C1047 C 1.01313 0.67491 0.21801 0.0
H1048 H 0.29474 0.94545 0.43047 0.0
H1049 H 0.35552 0.01216 0.35502 0.0
H1050 H 0.29759 0.96973 0.51459 0.0
H1051 H 0.35814 0.03641 0.43821 0.0
H1052 H 0.36188 0.07686 0.5928 0.0
H1053 H 0.33851 0.05264 0.51014 0.0
H1054 H 0.33588 0.98641 0.57966 0.0
H1055 H 0.35942 1.01059 0.66128 0.0
C1056 C 0.30786 0.96552 0.43079 0.0
C1057 C 0.32503 0.97697 0.38656 0.0
C1058 C 0.30959 0.97937 0.479 0.0
C1059 C 0.3282 1.0049 0.48308 0.0
C1060 C 0.34345 0.01685 0.43617 0.0
C1061 C 0.34203 1.00295 0.38857 0.0
C1062 C 0.35539 0.0569 0.59131 0.0
C1063 C 0.36256 0.04557 0.63307 0.0
C1064 C 0.34214 0.04309 0.54397 0.0
C1065 C 0.33547 0.01769 0.53838 0.0
C1066 C 0.34048 1.00586 0.58298 0.0
C1067 C 0.35409 0.01972 0.62961 0.0
H1068 H 0.47667 0.30571 0.59523 0.0
H1069 H 0.45072 0.25974 0.44611 0.0
H1070 H 0.47719 0.27144 0.64579 0.0
H1071 H 0.45086 0.22522 0.49699 0.0
H1072 H 0.47666 0.1761 0.58836 0.0
H1073 H 0.47713 0.21086 0.53776 0.0
H1074 H 0.45095 0.2308 0.68673 0.0
H1075 H 0.45086 0.19618 0.73764 0.0
C1076 C 0.47108 0.2883 0.57302 0.0
C1077 C 0.46375 0.28573 0.5162 0.0
C1078 C 0.47118 0.26845 0.60236 0.0
C1079 C 0.46402 0.24526 0.57596 0.0
C1080 C 0.45683 0.24275 0.51894 0.0
C1081 C 0.45663 0.26261 0.48962 0.0
C1082 C 0.4711 0.18793 0.6106 0.0
C1083 C 0.46382 0.1832 0.66748 0.0
C1084 C 0.47117 0.20787 0.58124 0.0
C1085 C 0.46404 0.2239 0.60768 0.0
C1086 C 0.4569 0.21923 0.66475 0.0
C1087 C 0.45674 0.19921 0.69409 0.0
H1088 H 0.31201 0.47051 0.75238 0.0
H1089 H 0.26532 0.4442 0.9005 0.0
H1090 H 0.27802 0.47122 0.7011 0.0
H1091 H 0.23108 0.44454 0.84889 0.0
H1092 H 0.18252 0.47075 0.75654 0.0
H1093 H 0.21701 0.47101 0.80785 0.0
H1094 H 0.23756 0.44515 0.65927 0.0
H1095 H 0.20321 0.44526 0.60766 0.0
C1096 C 0.2945 0.46488 0.77421 0.0
C1097 C 0.29164 0.45739 0.83098 0.0
C1098 C 0.2748 0.4651 0.74446 0.0
C1099 C 0.25151 0.4579 0.77036 0.0
C1100 C 0.24872 0.45054 0.82732 0.0
C1101 C 0.26841 0.45023 0.85705 0.0
C1102 C 0.19443 0.46522 0.73454 0.0
C1103 C 0.18995 0.45809 0.67756 0.0
C1104 C 0.21421 0.46517 0.7643 0.0
C1105 C 0.23032 0.45805 0.7382 0.0
C1106 C 0.22592 0.45107 0.68102 0.0
C1107 C 0.20605 0.45103 0.65127 0.0
H1108 H 0.83272 0.25972 0.06015 0.0
H1109 H 0.85346 0.3076 0.91402 0.0
H1110 H 0.79807 0.22596 1.00753 0.0
H1111 H 0.8187 0.27407 0.86173 0.0
H1112 H 0.76981 0.1999 0.76577 0.0
H1113 H 0.80432 0.23379 0.81841 0.0
H1114 H 0.75751 0.21257 0.9665 0.0
H1115 H 0.72322 0.17856 0.91415 0.0
C1116 C 0.82984 0.26316 0.01693 0.0
C1117 C 0.84603 0.28659 0.9917 0.0
C1118 C 0.8098 0.24375 0.98663 0.0
C1119 C 0.80533 0.24703 0.92993 0.0
C1120 C 0.82155 0.27051 0.90487 0.0
C1121 C 0.84148 0.28993 0.9352 0.0
C1122 C 0.7668 0.2025 0.80949 0.0
C1123 C 0.74351 0.18637 0.83533 0.0
C1124 C 0.78665 0.22209 0.83982 0.0
C1125 C 0.78397 0.22616 0.89715 0.0
C1126 C 0.76062 0.21002 0.92283 0.0
C1127 C 0.74076 0.19052 0.89247 0.0
H1128 H 0.54746 0.84382 0.08546 0.0
H1129 H 0.58128 0.82658 0.22463 0.0
H1130 H 0.54681 0.80979 0.03105 0.0
H1131 H 0.58066 0.79251 0.17005 0.0
H1132 H 0.55164 0.71693 0.07769 0.0
H1133 H 0.55181 0.75083 0.13142 0.0
H1134 H 0.57456 0.79757 0.98324 0.0
H1135 H 0.57436 0.76351 0.92922 0.0
C1136 C 0.55471 0.83274 0.10467 0.0
C1137 C 0.56433 0.83805 0.15984 0.0
C1138 C 0.55451 0.81326 0.07313 0.0
C1139 C 0.56368 0.7982 0.09579 0.0
C1140 C 0.57316 0.80341 0.15113 0.0
C1141 C 0.57362 0.8231 0.1825 0.0
C1142 C 0.55656 0.73436 0.05625 0.0
C1143 C 0.56287 0.73727 0.99873 0.0
C1144 C 0.55686 0.75397 0.08739 0.0
C1145 C 0.56327 0.77716 0.06207 0.0
C1146 C 0.56929 0.77999 1.00432 0.0
C1147 C 0.56925 0.76042 0.97324 0.0
H1148 H 0.72299 0.54303 0.27899 0.0
H1149 H 0.77146 0.574 0.42328 0.0
H1150 H 0.75736 0.54371 0.22627 0.0
H1151 H 0.80607 0.57501 0.37016 0.0
H1152 H 0.85658 0.55155 0.27598 0.0
H1153 H 0.82174 0.54961 0.32937 0.0
H1154 H 0.7968 0.57155 0.18146 0.0
H1155 H 0.83152 0.57314 0.12782 0.0
C1156 C 0.74096 0.54991 0.29972 0.0
C1157 C 0.74423 0.55834 0.35581 0.0
C1158 C 0.76086 0.55052 0.26911 0.0
C1159 C 0.78478 0.5595 0.29346 0.0
C1160 C 0.78797 0.56768 0.34983 0.0
C1161 C 0.76806 0.56718 0.38042 0.0
C1162 C 0.84363 0.55585 0.25459 0.0
C1163 C 0.84698 0.56238 0.1972 0.0
C1164 C 0.82365 0.55494 0.28553 0.0
C1165 C 0.8062 0.56043 0.26017 0.0
C1166 C 0.80951 0.56685 0.20263 0.0
C1167 C 0.82958 0.56788 0.17173 0.0
H1168 H 0.18133 0.71576 0.42684 0.0
H1169 H 0.20086 0.76206 0.57535 0.0
H1170 H 0.21563 0.75034 0.37565 0.0
H1171 H 0.235 0.79686 0.52388 0.0
H1172 H 0.30955 0.84682 0.43185 0.0
H1173 H 0.2757 0.81177 0.48279 0.0
H1174 H 0.22923 0.79085 0.33431 0.0
H1175 H 0.26335 0.82579 0.283 0.0
C1176 C 0.19294 0.7333 0.44878 0.0
C1177 C 0.1882 0.73588 0.50563 0.0
C1178 C 0.21261 0.75333 0.41909 0.0
C1179 C 0.22834 0.77669 0.44516 0.0
C1180 C 0.22366 0.7792 0.50219 0.0
C1181 C 0.20391 0.75918 0.53184 0.0
C1182 C 0.29218 0.83472 0.40979 0.0
C1183 C 0.28941 0.83928 0.35293 0.0
C1184 C 0.27256 0.81461 0.43935 0.0
C1185 C 0.24943 0.79822 0.41315 0.0
C1186 C 0.24674 0.80271 0.3561 0.0
C1187 C 0.26635 0.82292 0.32655 0.0
loop_
_geom_bond_atom_site_label_1
_geom_bond_atom_site_label_2
_geom_bond_distance
_geom_bond_site_symmetry_2
_ccdc_geom_bond_type
Co0 O2 2.143 . S
Co0 O8 2.074 . S
Co0 O11 2.093 . S
Co0 O24 2.097 . S
Co0 N41 2.151 . S
Co0 N49 2.214 . S
Co1 O2 2.160 . S
Co1 O7 2.058 . S
Co1 O17 2.057 . S
Co1 O32 2.037 . S
Co1 N36 2.145 . S
Co1 N57 2.257 . S
O2 Co0 2.143 . S
O2 Co1 2.160 . S
C3 O4 1.278 . S
C3 O11 1.224 . S
O4 C3 1.278 . S
C5 O6 1.245 . S
C5 O17 1.232 . S
O6 C5 1.245 . S
O7 Co1 2.058 . S
O7 C33 1.269 . S
O8 Co0 2.074 . S
O8 C33 1.257 . S
H9 C34 0.930 . S
H10 C40 0.930 . S
O11 Co0 2.093 . S
O11 C3 1.224 . S
H12 C44 0.929 . S
H13 C46 0.930 . S
H14 C47 0.930 . S
H15 C45 0.929 . S
H16 C48 0.928 . S
O17 Co1 2.057 . S
O17 C5 1.232 . S
H18 C37 0.929 . S
H19 C38 0.929 . S
H20 C50 0.931 . S
H21 C42 0.929 . S
H22 C51 0.930 . S
H23 C43 0.931 . S
O24 Co0 2.097 . S
O24 C52 1.214 . S
H25 C53 0.929 . S
H26 C54 0.929 . S
H27 C55 0.930 . S
H28 C56 0.929 . S
H29 C58 0.930 . S
H30 C35 0.930 . S
H31 C39 0.930 . S
O32 Co1 2.037 . S
O32 C52 1.234 . S
C33 O7 1.269 . S
C33 O8 1.257 . S
C34 H9 0.930 . S
C34 C37 1.388 . S
C34 C39 1.418 . S
C35 H30 0.930 . S
C35 C38 1.404 . S
C35 C39 1.353 . S
N36 Co1 2.145 . S
N36 C37 1.397 . S
N36 C38 1.334 . S
C37 H18 0.929 . S
C37 C34 1.388 . S
C37 N36 1.397 . S
C38 H19 0.929 . S
C38 C35 1.404 . S
C38 N36 1.334 . S
C39 H31 0.930 . S
C39 C34 1.418 . S
C39 C35 1.353 . S
C40 H10 0.930 . S
C40 N41 1.330 . S
C40 C42 1.446 . S
N41 Co0 2.151 . S
N41 C40 1.330 . S
N41 C45 1.418 . S
C42 H21 0.929 . S
C42 C40 1.446 . S
C42 C43 1.332 . S
C43 H23 0.931 . S
C43 C42 1.332 . S
C43 C44 1.267 . S
C44 H12 0.929 . S
C44 C43 1.267 . S
C44 C45 1.251 . S
C45 H15 0.929 . S
C45 N41 1.418 . S
C45 C44 1.251 . S
C46 H13 0.930 . S
C46 C48 1.406 . S
C46 C51 1.261 . S
C47 H14 0.930 . S
C47 N49 1.325 . S
C47 C50 1.357 . S
C48 H16 0.928 . S
C48 C46 1.406 . S
C48 N49 1.261 . S
N49 Co0 2.214 . S
N49 C47 1.325 . S
N49 C48 1.261 . S
C50 H20 0.931 . S
C50 C47 1.357 . S
C50 C51 1.312 . S
C51 H22 0.930 . S
C51 C46 1.261 . S
C51 C50 1.312 . S
C52 O24 1.214 . S
C52 O32 1.234 . S
C53 H25 0.929 . S
C53 C56 1.391 . S
C53 C58 1.391 . S
C54 H26 0.929 . S
C54 C55 1.390 . S
C54 N57 1.391 . S
C55 H27 0.930 . S
C55 C54 1.390 . S
C55 C56 1.392 . S
C56 H28 0.929 . S
C56 C53 1.391 . S
C56 C55 1.392 . S
N57 Co1 2.257 . S
N57 C54 1.391 . S
N57 C58 1.388 . S
C58 H29 0.930 . S
C58 C53 1.391 . S
C58 N57 1.388 . S
Co59 O61 2.143 . S
Co59 O67 2.074 . S
Co59 O70 2.093 . S
Co59 O83 2.097 . S
Co59 N100 2.151 . S
Co59 N108 2.214 . S
Co60 O61 2.160 . S
Co60 O66 2.058 . S
Co60 O76 2.057 . S
Co60 O91 2.037 . S
Co60 N95 2.145 . S
Co60 N116 2.257 . S
O61 Co59 2.143 . S
O61 Co60 2.160 . S
C62 O63 1.278 . S
C62 O70 1.224 . S
O63 C62 1.278 . S
C64 O65 1.245 . S
C64 O76 1.232 . S
O65 C64 1.245 . S
O66 Co60 2.058 . S
O66 C92 1.269 . S
O67 Co59 2.074 . S
O67 C92 1.257 . S
H68 C93 0.930 . S
H69 C99 0.930 . S
O70 Co59 2.093 . S
O70 C62 1.224 . S
H71 C103 0.929 . S
H72 C105 0.927 . S
H73 C106 0.930 . S
H74 C104 0.929 . S
H75 C107 0.928 . S
O76 Co60 2.057 . S
O76 C64 1.232 . S
H77 C96 0.929 . S
H78 C97 0.929 . S
H79 C109 0.931 . S
H80 C101 0.929 . S
H81 C110 0.930 1_655 S
H82 C102 0.931 . S
O83 Co59 2.097 . S
O83 C111 1.214 . S
H84 C112 0.929 . S
H85 C113 0.929 . S
H86 C114 0.930 . S
H87 C115 0.929 . S
H88 C117 0.930 . S
H89 C94 0.930 . S
H90 C98 0.930 . S
O91 Co60 2.037 . S
O91 C111 1.234 . S
C92 O66 1.269 . S
C92 O67 1.257 . S
C93 H68 0.930 . S
C93 C96 1.388 . S
C93 C98 1.418 . S
C94 H89 0.930 . S
C94 C97 1.404 . S
C94 C98 1.353 . S
N95 Co60 2.145 . S
N95 C96 1.397 . S
N95 C97 1.334 . S
C96 H77 0.929 . S
C96 C93 1.388 . S
C96 N95 1.397 . S
C97 H78 0.929 . S
C97 C94 1.404 . S
C97 N95 1.334 . S
C98 H90 0.930 . S
C98 C93 1.418 . S
C98 C94 1.353 . S
C99 H69 0.930 . S
C99 N100 1.330 . S
C99 C101 1.446 . S
N100 Co59 2.151 . S
N100 C99 1.330 . S
N100 C104 1.418 . S
C101 H80 0.929 . S
C101 C99 1.446 . S
C101 C102 1.332 . S
C102 H82 0.931 . S
C102 C101 1.332 . S
C102 C103 1.267 . S
C103 H71 0.929 . S
C103 C102 1.267 . S
C103 C104 1.251 . S
C104 H74 0.929 . S
C104 N100 1.418 . S
C104 C103 1.251 . S
C105 H72 0.927 . S
C105 C107 1.406 . S
C105 C110 1.261 . S
C106 H73 0.930 . S
C106 N108 1.325 . S
C106 C109 1.357 . S
C107 H75 0.928 . S
C107 C105 1.406 . S
C107 N108 1.261 . S
N108 Co59 2.214 . S
N108 C106 1.325 . S
N108 C107 1.261 . S
C109 H79 0.931 . S
C109 C106 1.357 . S
C109 C110 1.312 . S
C110 H81 0.930 1_455 S
C110 C105 1.261 . S
C110 C109 1.312 . S
C111 O83 1.214 . S
C111 O91 1.234 . S
C112 H84 0.929 . S
C112 C115 1.391 . S
C112 C117 1.391 . S
C113 H85 0.929 . S
C113 C114 1.390 . S
C113 N116 1.391 . S
C114 H86 0.930 . S
C114 C113 1.390 . S
C114 C115 1.392 . S
C115 H87 0.929 . S
C115 C112 1.391 . S
C115 C114 1.392 . S
N116 Co60 2.257 . S
N116 C113 1.391 . S
N116 C117 1.388 . S
C117 H88 0.930 . S
C117 C112 1.391 . S
C117 N116 1.388 . S
Co118 O120 2.143 . S
Co118 O126 2.074 . S
Co118 O129 2.093 . S
Co118 O142 2.097 . S
Co118 N159 2.151 . S
Co118 N167 2.214 . S
Co119 O120 2.160 . S
Co119 O125 2.058 . S
Co119 O135 2.057 . S
Co119 O150 2.037 . S
Co119 N154 2.145 . S
Co119 N175 2.257 . S
O120 Co118 2.143 . S
O120 Co119 2.160 . S
C121 O122 1.278 . S
C121 O129 1.224 . S
O122 C121 1.278 . S
C123 O124 1.245 . S
C123 O135 1.232 . S
O124 C123 1.245 . S
O125 Co119 2.058 . S
O125 C151 1.269 . S
O126 Co118 2.074 . S
O126 C151 1.257 . S
H127 C152 0.930 . S
H128 C158 0.930 . S
O129 Co118 2.093 . S
O129 C121 1.224 . S
H130 C162 0.929 . S
H131 C164 0.928 . S
H132 C165 0.930 . S
H133 C163 0.929 . S
H134 C166 0.928 . S
O135 Co119 2.057 . S
O135 C123 1.232 . S
H136 C155 0.929 . S
H137 C156 0.929 . S
H138 C168 0.931 . S
H139 C160 0.929 . S
H140 C169 0.930 1_565 S
H141 C161 0.931 . S
O142 Co118 2.097 . S
O142 C170 1.214 . S
H143 C171 0.929 . S
H144 C172 0.929 . S
H145 C173 0.930 . S
H146 C174 0.929 . S
H147 C176 0.930 . S
H148 C153 0.930 . S
H149 C157 0.930 . S
O150 Co119 2.037 . S
O150 C170 1.234 . S
C151 O125 1.269 . S
C151 O126 1.257 . S
C152 H127 0.930 . S
C152 C155 1.388 . S
C152 C157 1.418 . S
C153 H148 0.930 . S
C153 C156 1.404 . S
C153 C157 1.353 . S
N154 Co119 2.145 . S
N154 C155 1.397 . S
N154 C156 1.334 . S
C155 H136 0.929 . S
C155 C152 1.388 . S
C155 N154 1.397 . S
C156 H137 0.929 . S
C156 C153 1.404 . S
C156 N154 1.334 . S
C157 H149 0.930 . S
C157 C152 1.418 . S
C157 C153 1.353 . S
C158 H128 0.930 . S
C158 N159 1.330 . S
C158 C160 1.446 . S
N159 Co118 2.151 . S
N159 C158 1.330 . S
N159 C163 1.418 . S
C160 H139 0.929 . S
C160 C158 1.446 . S
C160 C161 1.332 . S
C161 H141 0.931 . S
C161 C160 1.332 . S
C161 C162 1.267 . S
C162 H130 0.929 . S
C162 C161 1.267 . S
C162 C163 1.251 . S
C163 H133 0.929 . S
C163 N159 1.418 . S
C163 C162 1.251 . S
C164 H131 0.928 . S
C164 C166 1.406 . S
C164 C169 1.261 . S
C165 H132 0.930 . S
C165 N167 1.325 . S
C165 C168 1.357 . S
C166 H134 0.928 . S
C166 C164 1.406 . S
C166 N167 1.261 . S
N167 Co118 2.214 . S
N167 C165 1.325 . S
N167 C166 1.261 . S
C168 H138 0.931 . S
C168 C165 1.357 . S
C168 C169 1.312 . S
C169 H140 0.930 1_545 S
C169 C164 1.261 . S
C169 C168 1.312 . S
C170 O142 1.214 . S
C170 O150 1.234 . S
C171 H143 0.929 . S
C171 C174 1.391 . S
C171 C176 1.391 . S
C172 H144 0.929 . S
C172 C173 1.390 . S
C172 N175 1.391 . S
C173 H145 0.930 . S
C173 C172 1.390 . S
C173 C174 1.392 . S
C174 H146 0.929 . S
C174 C171 1.391 . S
C174 C173 1.392 . S
N175 Co119 2.257 . S
N175 C172 1.391 . S
N175 C176 1.388 . S
C176 H147 0.930 . S
C176 C171 1.391 . S
C176 N175 1.388 . S
Co177 O179 2.143 . S
Co177 O185 2.074 . S
Co177 O188 2.093 1_556 S
Co177 O201 2.097 . S
Co177 N218 2.151 1_556 S
Co177 N226 2.214 . S
Co178 O179 2.160 . S
Co178 O184 2.058 . S
Co178 O194 2.057 . S
Co178 O209 2.037 . S
Co178 N213 2.145 . S
Co178 N234 2.257 . S
O179 Co177 2.143 . S
O179 Co178 2.160 . S
C180 O181 1.278 1_554 S
C180 O188 1.224 . S
O181 C180 1.278 1_556 S
C182 O183 1.245 1_556 S
C182 O194 1.232 . S
O183 C182 1.245 1_554 S
O184 Co178 2.058 . S
O184 C210 1.269 . S
O185 Co177 2.074 . S
O185 C210 1.257 . S
H186 C211 0.930 . S
H187 C217 0.930 . S
O188 Co177 2.093 1_554 S
O188 C180 1.224 . S
H189 C221 0.929 . S
H190 C223 0.930 . S
H191 C224 0.930 . S
H192 C222 0.931 . S
H193 C225 0.928 1_554 S
O194 Co178 2.057 . S
O194 C182 1.232 . S
H195 C214 0.929 . S
H196 C215 0.929 . S
H197 C227 0.931 . S
H198 C219 0.929 . S
H199 C228 0.930 . S
H200 C220 0.931 . S
O201 Co177 2.097 . S
O201 C229 1.214 . S
H202 C230 0.929 . S
H203 C231 0.929 . S
H204 C232 0.930 . S
H205 C233 0.929 . S
H206 C235 0.930 . S
H207 C212 0.930 . S
H208 C216 0.930 . S
O209 Co178 2.037 . S
O209 C229 1.234 . S
C210 O184 1.269 . S
C210 O185 1.257 . S
C211 H186 0.930 . S
C211 C214 1.388 . S
C211 C216 1.418 . S
C212 H207 0.930 . S
C212 C215 1.404 . S
C212 C216 1.353 . S
N213 Co178 2.145 . S
N213 C214 1.397 . S
N213 C215 1.334 . S
C214 H195 0.929 . S
C214 C211 1.388 . S
C214 N213 1.397 . S
C215 H196 0.929 . S
C215 C212 1.404 . S
C215 N213 1.334 . S
C216 H208 0.930 . S
C216 C211 1.418 . S
C216 C212 1.353 . S
C217 H187 0.930 . S
C217 N218 1.330 . S
C217 C219 1.446 . S
N218 Co177 2.151 1_554 S
N218 C217 1.330 . S
N218 C222 1.418 . S
C219 H198 0.929 . S
C219 C217 1.446 . S
C219 C220 1.332 . S
C220 H200 0.931 . S
C220 C219 1.332 . S
C220 C221 1.267 . S
C221 H189 0.929 . S
C221 C220 1.267 . S
C221 C222 1.251 . S
C222 H192 0.931 . S
C222 N218 1.418 . S
C222 C221 1.251 . S
C223 H190 0.930 . S
C223 C225 1.406 . S
C223 C228 1.261 . S
C224 H191 0.930 . S
C224 N226 1.325 . S
C224 C227 1.357 . S
C225 H193 0.928 1_556 S
C225 C223 1.406 . S
C225 N226 1.261 . S
N226 Co177 2.214 . S
N226 C224 1.325 . S
N226 C225 1.261 . S
C227 H197 0.931 . S
C227 C224 1.357 . S
C227 C228 1.312 . S
C228 H199 0.930 . S
C228 C223 1.261 . S
C228 C227 1.312 . S
C229 O201 1.214 . S
C229 O209 1.234 . S
C230 H202 0.929 . S
C230 C233 1.391 . S
C230 C235 1.391 . S
C231 H203 0.929 . S
C231 C232 1.390 . S
C231 N234 1.391 . S
C232 H204 0.930 . S
C232 C231 1.390 . S
C232 C233 1.392 . S
C233 H205 0.929 . S
C233 C230 1.391 . S
C233 C232 1.392 . S
N234 Co178 2.257 . S
N234 C231 1.391 . S
N234 C235 1.388 . S
C235 H206 0.930 . S
C235 C230 1.391 . S
C235 N234 1.388 . S
Co236 O238 2.143 . S
Co236 O244 2.074 . S
Co236 O247 2.093 . S
Co236 O260 2.097 . S
Co236 N277 2.151 . S
Co236 N285 2.214 . S
Co237 O238 2.160 . S
Co237 O243 2.058 . S
Co237 O253 2.057 . S
Co237 O268 2.035 1_554 S
Co237 N272 2.145 1_554 S
Co237 N293 2.257 . S
O238 Co236 2.143 . S
O238 Co237 2.160 . S
C239 O240 1.278 . S
C239 O247 1.224 . S
O240 C239 1.278 . S
C241 O242 1.245 . S
C241 O253 1.232 . S
O242 C241 1.245 . S
O243 Co237 2.058 . S
O243 C269 1.269 . S
O244 Co236 2.074 . S
O244 C269 1.257 . S
H245 C270 0.930 . S
H246 C276 0.930 . S
O247 Co236 2.093 . S
O247 C239 1.224 . S
H248 C280 0.929 . S
H249 C282 0.926 . S
H250 C283 0.930 . S
H251 C281 0.929 . S
H252 C284 0.928 . S
O253 Co237 2.057 . S
O253 C241 1.232 . S
H254 C273 0.929 . S
H255 C274 0.929 1_554 S
H256 C286 0.931 . S
H257 C278 0.929 . S
H258 C287 0.930 1_455 S
H259 C279 0.931 . S
O260 Co236 2.097 . S
O260 C288 1.214 . S
H261 C289 0.929 . S
H262 C290 0.929 . S
H263 C291 0.930 . S
H264 C292 0.929 . S
H265 C294 0.930 . S
H266 C271 0.930 . S
H267 C275 0.930 . S
O268 Co237 2.035 1_556 S
O268 C288 1.233 1_556 S
C269 O243 1.269 . S
C269 O244 1.257 . S
C270 H245 0.930 . S
C270 C273 1.388 . S
C270 C275 1.418 . S
C271 H266 0.930 . S
C271 C274 1.404 . S
C271 C275 1.353 . S
N272 Co237 2.145 1_556 S
N272 C273 1.397 . S
N272 C274 1.334 . S
C273 H254 0.929 . S
C273 C270 1.388 . S
C273 N272 1.397 . S
C274 H255 0.929 1_556 S
C274 C271 1.404 . S
C274 N272 1.334 . S
C275 H267 0.930 . S
C275 C270 1.418 . S
C275 C271 1.353 . S
C276 H246 0.930 . S
C276 N277 1.330 . S
C276 C278 1.446 . S
N277 Co236 2.151 . S
N277 C276 1.330 . S
N277 C281 1.418 . S
C278 H257 0.929 . S
C278 C276 1.446 . S
C278 C279 1.332 . S
C279 H259 0.931 . S
C279 C278 1.332 . S
C279 C280 1.267 . S
C280 H248 0.929 . S
C280 C279 1.267 . S
C280 C281 1.251 . S
C281 H251 0.929 . S
C281 N277 1.418 . S
C281 C280 1.251 . S
C282 H249 0.926 . S
C282 C284 1.406 . S
C282 C287 1.261 . S
C283 H250 0.930 . S
C283 N285 1.325 . S
C283 C286 1.357 . S
C284 H252 0.928 . S
C284 C282 1.406 . S
C284 N285 1.261 . S
N285 Co236 2.214 . S
N285 C283 1.325 . S
N285 C284 1.261 . S
C286 H256 0.931 . S
C286 C283 1.357 . S
C286 C287 1.312 . S
C287 H258 0.930 1_655 S
C287 C282 1.261 . S
C287 C286 1.312 . S
C288 O260 1.214 . S
C288 O268 1.233 1_554 S
C289 H261 0.929 . S
C289 C292 1.391 . S
C289 C294 1.391 . S
C290 H262 0.929 . S
C290 C291 1.390 . S
C290 N293 1.391 1_556 S
C291 H263 0.930 . S
C291 C290 1.390 . S
C291 C292 1.392 1_556 S
C292 H264 0.929 . S
C292 C289 1.391 . S
C292 C291 1.392 1_554 S
N293 Co237 2.257 . S
N293 C290 1.391 1_554 S
N293 C294 1.388 . S
C294 H265 0.930 . S
C294 C289 1.391 . S
C294 N293 1.388 . S
Co295 O297 2.143 . S
Co295 O303 2.074 . S
Co295 O306 2.093 . S
Co295 O319 2.097 . S
Co295 N336 2.151 . S
Co295 N344 2.214 . S
Co296 O297 2.160 . S
Co296 O302 2.058 . S
Co296 O312 2.057 . S
Co296 O327 2.037 . S
Co296 N331 2.145 . S
Co296 N352 2.257 . S
O297 Co295 2.143 . S
O297 Co296 2.160 . S
C298 O299 1.278 . S
C298 O306 1.224 . S
O299 C298 1.278 . S
C300 O301 1.245 . S
C300 O312 1.232 . S
O301 C300 1.245 . S
O302 Co296 2.058 . S
O302 C328 1.269 . S
O303 Co295 2.074 . S
O303 C328 1.257 . S
H304 C329 0.930 . S
H305 C335 0.930 . S
O306 Co295 2.093 . S
O306 C298 1.224 . S
H307 C339 0.929 . S
H308 C341 0.928 . S
H309 C342 0.930 . S
H310 C340 0.929 . S
H311 C343 0.928 . S
O312 Co296 2.057 . S
O312 C300 1.232 . S
H313 C332 0.929 . S
H314 C333 0.929 . S
H315 C345 0.931 . S
H316 C337 0.929 . S
H317 C346 0.930 1_545 S
H318 C338 0.931 . S
O319 Co295 2.097 . S
O319 C347 1.214 . S
H320 C348 0.929 . S
H321 C349 0.929 . S
H322 C350 0.930 . S
H323 C351 0.929 . S
H324 C353 0.930 . S
H325 C330 0.930 . S
H326 C334 0.930 . S
O327 Co296 2.037 . S
O327 C347 1.234 . S
C328 O302 1.269 . S
C328 O303 1.257 . S
C329 H304 0.930 . S
C329 C332 1.388 . S
C329 C334 1.418 . S
C330 H325 0.930 . S
C330 C333 1.404 . S
C330 C334 1.353 . S
N331 Co296 2.145 . S
N331 C332 1.397 . S
N331 C333 1.334 . S
C332 H313 0.929 . S
C332 C329 1.388 . S
C332 N331 1.397 . S
C333 H314 0.929 . S
C333 C330 1.404 . S
C333 N331 1.334 . S
C334 H326 0.930 . S
C334 C329 1.418 . S
C334 C330 1.353 . S
C335 H305 0.930 . S
C335 N336 1.330 . S
C335 C337 1.446 . S
N336 Co295 2.151 . S
N336 C335 1.330 . S
N336 C340 1.418 . S
C337 H316 0.929 . S
C337 C335 1.446 . S
C337 C338 1.332 . S
C338 H318 0.931 . S
C338 C337 1.332 . S
C338 C339 1.267 . S
C339 H307 0.929 . S
C339 C338 1.267 . S
C339 C340 1.251 . S
C340 H310 0.929 . S
C340 N336 1.418 . S
C340 C339 1.251 . S
C341 H308 0.928 . S
C341 C343 1.406 . S
C341 C346 1.261 . S
C342 H309 0.930 . S
C342 N344 1.325 . S
C342 C345 1.357 . S
C343 H311 0.928 . S
C343 C341 1.406 . S
C343 N344 1.261 . S
N344 Co295 2.214 . S
N344 C342 1.325 . S
N344 C343 1.261 . S
C345 H315 0.931 . S
C345 C342 1.357 . S
C345 C346 1.312 . S
C346 H317 0.930 1_565 S
C346 C341 1.261 . S
C346 C345 1.312 . S
C347 O319 1.214 . S
C347 O327 1.234 . S
C348 H320 0.929 . S
C348 C351 1.391 . S
C348 C353 1.391 . S
C349 H321 0.929 . S
C349 C350 1.390 . S
C349 N352 1.391 . S
C350 H322 0.930 . S
C350 C349 1.390 . S
C350 C351 1.392 . S
C351 H323 0.929 . S
C351 C348 1.391 . S
C351 C350 1.392 . S
N352 Co296 2.257 . S
N352 C349 1.391 . S
N352 C353 1.388 . S
C353 H324 0.930 . S
C353 C348 1.391 . S
C353 N352 1.388 . S
Co354 O356 2.143 . S
Co354 O362 2.074 . S
Co354 O365 2.093 . S
Co354 O378 2.097 . S
Co354 N395 2.151 . S
Co354 N403 2.214 . S
Co355 O356 2.160 . S
Co355 O361 2.058 . S
Co355 O371 2.057 . S
Co355 O386 2.037 . S
Co355 N390 2.145 . S
Co355 N411 2.257 . S
O356 Co354 2.143 . S
O356 Co355 2.160 . S
C357 O358 1.278 . S
C357 O365 1.224 . S
O358 C357 1.278 . S
C359 O360 1.245 . S
C359 O371 1.232 . S
O360 C359 1.245 . S
O361 Co355 2.058 . S
O361 C387 1.269 . S
O362 Co354 2.074 . S
O362 C387 1.257 . S
H363 C388 0.930 . S
H364 C394 0.930 . S
O365 Co354 2.093 . S
O365 C357 1.224 . S
H366 C398 0.929 . S
H367 C400 0.930 . S
H368 C401 0.930 . S
H369 C399 0.929 . S
H370 C402 0.928 . S
O371 Co355 2.057 . S
O371 C359 1.232 . S
H372 C391 0.929 . S
H373 C392 0.929 . S
H374 C404 0.931 . S
H375 C396 0.929 . S
H376 C405 0.930 . S
H377 C397 0.931 . S
O378 Co354 2.097 . S
O378 C406 1.214 . S
H379 C407 0.929 . S
H380 C408 0.929 . S
H381 C409 0.930 . S
H382 C410 0.929 . S
H383 C412 0.930 . S
H384 C389 0.930 . S
H385 C393 0.930 . S
O386 Co355 2.037 . S
O386 C406 1.234 . S
C387 O361 1.269 . S
C387 O362 1.257 . S
C388 H363 0.930 . S
C388 C391 1.388 . S
C388 C393 1.418 . S
C389 H384 0.930 . S
C389 C392 1.404 . S
C389 C393 1.353 . S
N390 Co355 2.145 . S
N390 C391 1.397 . S
N390 C392 1.334 . S
C391 H372 0.929 . S
C391 C388 1.388 . S
C391 N390 1.397 . S
C392 H373 0.929 . S
C392 C389 1.404 . S
C392 N390 1.334 . S
C393 H385 0.930 . S
C393 C388 1.418 . S
C393 C389 1.353 . S
C394 H364 0.930 . S
C394 N395 1.330 . S
C394 C396 1.446 . S
N395 Co354 2.151 . S
N395 C394 1.330 . S
N395 C399 1.418 . S
C396 H375 0.929 . S
C396 C394 1.446 . S
C396 C397 1.332 . S
C397 H377 0.931 . S
C397 C396 1.332 . S
C397 C398 1.267 . S
C398 H366 0.929 . S
C398 C397 1.267 . S
C398 C399 1.251 . S
C399 H369 0.929 . S
C399 N395 1.418 . S
C399 C398 1.251 . S
C400 H367 0.930 . S
C400 C402 1.406 . S
C400 C405 1.261 . S
C401 H368 0.930 . S
C401 N403 1.325 . S
C401 C404 1.357 . S
C402 H370 0.928 . S
C402 C400 1.406 . S
C402 N403 1.261 . S
N403 Co354 2.214 . S
N403 C401 1.325 . S
N403 C402 1.261 . S
C404 H374 0.931 . S
C404 C401 1.357 . S
C404 C405 1.312 . S
C405 H376 0.930 . S
C405 C400 1.261 . S
C405 C404 1.312 . S
C406 O378 1.214 . S
C406 O386 1.234 . S
C407 H379 0.929 . S
C407 C410 1.391 . S
C407 C412 1.391 . S
C408 H380 0.929 . S
C408 C409 1.390 . S
C408 N411 1.391 . S
C409 H381 0.930 . S
C409 C408 1.390 . S
C409 C410 1.392 . S
C410 H382 0.929 . S
C410 C407 1.391 . S
C410 C409 1.392 . S
N411 Co355 2.257 . S
N411 C408 1.391 . S
N411 C412 1.388 . S
C412 H383 0.930 . S
C412 C407 1.391 . S
C412 N411 1.388 . S
Co413 O415 2.143 . S
Co413 O421 2.074 . S
Co413 O424 2.093 . S
Co413 O437 2.097 . S
Co413 N454 2.151 . S
Co413 N462 2.214 . S
Co414 O415 2.160 . S
Co414 O420 2.058 . S
Co414 O430 2.057 . S
Co414 O445 2.037 . S
Co414 N449 2.145 . S
Co414 N470 2.257 . S
O415 Co413 2.143 . S
O415 Co414 2.160 . S
C416 O417 1.278 . S
C416 O424 1.224 . S
O417 C416 1.278 . S
C418 O419 1.245 . S
C418 O430 1.232 . S
O419 C418 1.245 . S
O420 Co414 2.058 . S
O420 C446 1.269 . S
O421 Co413 2.074 . S
O421 C446 1.257 . S
H422 C447 0.930 . S
H423 C453 0.930 . S
O424 Co413 2.093 . S
O424 C416 1.224 . S
H425 C457 0.929 . S
H426 C459 0.928 . S
H427 C460 0.930 . S
H428 C458 0.929 . S
H429 C461 0.928 . S
O430 Co414 2.057 . S
O430 C418 1.232 . S
H431 C450 0.929 . S
H432 C451 0.929 . S
H433 C463 0.931 . S
H434 C455 0.929 . S
H435 C464 0.930 1_655 S
H436 C456 0.931 . S
O437 Co413 2.097 . S
O437 C465 1.214 . S
H438 C466 0.929 . S
H439 C467 0.929 . S
H440 C468 0.930 . S
H441 C469 0.929 . S
H442 C471 0.930 . S
H443 C448 0.930 . S
H444 C452 0.930 . S
O445 Co414 2.037 . S
O445 C465 1.234 . S
C446 O420 1.269 . S
C446 O421 1.257 . S
C447 H422 0.930 . S
C447 C450 1.388 . S
C447 C452 1.418 . S
C448 H443 0.930 . S
C448 C451 1.404 . S
C448 C452 1.353 . S
N449 Co414 2.145 . S
N449 C450 1.397 . S
N449 C451 1.334 . S
C450 H431 0.929 . S
C450 C447 1.388 . S
C450 N449 1.397 . S
C451 H432 0.929 . S
C451 C448 1.404 . S
C451 N449 1.334 . S
C452 H444 0.930 . S
C452 C447 1.418 . S
C452 C448 1.353 . S
C453 H423 0.930 . S
C453 N454 1.330 . S
C453 C455 1.446 . S
N454 Co413 2.151 . S
N454 C453 1.330 . S
N454 C458 1.418 . S
C455 H434 0.929 . S
C455 C453 1.446 . S
C455 C456 1.332 . S
C456 H436 0.931 . S
C456 C455 1.332 . S
C456 C457 1.267 . S
C457 H425 0.929 . S
C457 C456 1.267 . S
C457 C458 1.251 . S
C458 H428 0.929 . S
C458 N454 1.418 . S
C458 C457 1.251 . S
C459 H426 0.928 . S
C459 C461 1.406 . S
C459 C464 1.261 . S
C460 H427 0.930 . S
C460 N462 1.325 . S
C460 C463 1.357 . S
C461 H429 0.928 . S
C461 C459 1.406 . S
C461 N462 1.261 . S
N462 Co413 2.214 . S
N462 C460 1.325 . S
N462 C461 1.261 . S
C463 H433 0.931 . S
C463 C460 1.357 . S
C463 C464 1.312 . S
C464 H435 0.930 1_455 S
C464 C459 1.261 . S
C464 C463 1.312 . S
C465 O437 1.214 . S
C465 O445 1.234 . S
C466 H438 0.929 . S
C466 C469 1.391 . S
C466 C471 1.391 . S
C467 H439 0.929 . S
C467 C468 1.390 . S
C467 N470 1.391 . S
C468 H440 0.930 . S
C468 C467 1.390 . S
C468 C469 1.392 . S
C469 H441 0.929 . S
C469 C466 1.391 . S
C469 C468 1.392 . S
N470 Co414 2.257 . S
N470 C467 1.391 . S
N470 C471 1.388 . S
C471 H442 0.930 . S
C471 C466 1.391 . S
C471 N470 1.388 . S
Co472 O474 2.143 . S
Co472 O480 2.074 . S
Co472 O483 2.093 . S
Co472 O496 2.097 . S
Co472 N513 2.151 . S
Co472 N521 2.214 . S
Co473 O474 2.160 . S
Co473 O479 2.058 . S
Co473 O489 2.057 . S
Co473 O504 2.037 . S
Co473 N508 2.145 . S
Co473 N529 2.257 . S
O474 Co472 2.143 . S
O474 Co473 2.160 . S
C475 O476 1.278 . S
C475 O483 1.224 . S
O476 C475 1.278 . S
C477 O478 1.245 . S
C477 O489 1.232 . S
O478 C477 1.245 . S
O479 Co473 2.058 . S
O479 C505 1.269 . S
O480 Co472 2.074 . S
O480 C505 1.257 . S
H481 C506 0.930 . S
H482 C512 0.930 . S
O483 Co472 2.093 . S
O483 C475 1.224 . S
H484 C516 0.929 . S
H485 C518 0.927 . S
H486 C519 0.930 . S
H487 C517 0.929 . S
H488 C520 0.928 . S
O489 Co473 2.057 . S
O489 C477 1.232 . S
H490 C509 0.929 . S
H491 C510 0.929 . S
H492 C522 0.931 . S
H493 C514 0.929 . S
H494 C523 0.930 1_565 S
H495 C515 0.931 . S
O496 Co472 2.097 . S
O496 C524 1.214 . S
H497 C525 0.929 . S
H498 C526 0.929 . S
H499 C527 0.930 . S
H500 C528 0.929 . S
H501 C530 0.930 . S
H502 C507 0.930 . S
H503 C511 0.930 . S
O504 Co473 2.037 . S
O504 C524 1.234 . S
C505 O479 1.269 . S
C505 O480 1.257 . S
C506 H481 0.930 . S
C506 C509 1.388 . S
C506 C511 1.418 . S
C507 H502 0.930 . S
C507 C510 1.404 . S
C507 C511 1.353 . S
N508 Co473 2.145 . S
N508 C509 1.397 . S
N508 C510 1.334 . S
C509 H490 0.929 . S
C509 C506 1.388 . S
C509 N508 1.397 . S
C510 H491 0.929 . S
C510 C507 1.404 . S
C510 N508 1.334 . S
C511 H503 0.930 . S
C511 C506 1.418 . S
C511 C507 1.353 . S
C512 H482 0.930 . S
C512 N513 1.330 . S
C512 C514 1.446 . S
N513 Co472 2.151 . S
N513 C512 1.330 . S
N513 C517 1.418 . S
C514 H493 0.929 . S
C514 C512 1.446 . S
C514 C515 1.332 . S
C515 H495 0.931 . S
C515 C514 1.332 . S
C515 C516 1.267 . S
C516 H484 0.929 . S
C516 C515 1.267 . S
C516 C517 1.251 . S
C517 H487 0.929 . S
C517 N513 1.418 . S
C517 C516 1.251 . S
C518 H485 0.927 . S
C518 C520 1.406 . S
C518 C523 1.261 . S
C519 H486 0.930 . S
C519 N521 1.325 . S
C519 C522 1.357 . S
C520 H488 0.928 . S
C520 C518 1.406 . S
C520 N521 1.261 . S
N521 Co472 2.214 . S
N521 C519 1.325 . S
N521 C520 1.261 . S
C522 H492 0.931 . S
C522 C519 1.357 . S
C522 C523 1.312 . S
C523 H494 0.930 1_545 S
C523 C518 1.261 . S
C523 C522 1.312 . S
C524 O496 1.214 . S
C524 O504 1.234 . S
C525 H497 0.929 . S
C525 C528 1.391 . S
C525 C530 1.391 . S
C526 H498 0.929 . S
C526 C527 1.390 . S
C526 N529 1.391 . S
C527 H499 0.930 . S
C527 C526 1.390 . S
C527 C528 1.392 . S
C528 H500 0.929 . S
C528 C525 1.391 . S
C528 C527 1.392 . S
N529 Co473 2.257 . S
N529 C526 1.391 . S
N529 C530 1.388 . S
C530 H501 0.930 . S
C530 C525 1.391 . S
C530 N529 1.388 . S
Co531 O533 2.143 . S
Co531 O539 2.074 . S
Co531 O542 2.093 . S
Co531 O555 2.097 . S
Co531 N572 2.151 . S
Co531 N580 2.214 . S
Co532 O533 2.160 . S
Co532 O538 2.058 . S
Co532 O548 2.057 . S
Co532 O563 2.035 1_556 S
Co532 N567 2.145 1_556 S
Co532 N588 2.257 . S
O533 Co531 2.143 . S
O533 Co532 2.160 . S
C534 O535 1.278 . S
C534 O542 1.224 . S
O535 C534 1.278 . S
C536 O537 1.245 . S
C536 O548 1.232 . S
O537 C536 1.245 . S
O538 Co532 2.058 . S
O538 C564 1.269 . S
O539 Co531 2.074 . S
O539 C564 1.257 . S
H540 C565 0.930 . S
H541 C571 0.930 . S
O542 Co531 2.093 . S
O542 C534 1.224 . S
H543 C575 0.929 . S
H544 C577 0.930 . S
H545 C578 0.930 . S
H546 C576 0.929 . S
H547 C579 0.928 . S
O548 Co532 2.057 . S
O548 C536 1.232 . S
H549 C568 0.929 . S
H550 C569 0.929 1_556 S
H551 C581 0.931 . S
H552 C573 0.929 . S
H553 C582 0.930 . S
H554 C574 0.931 . S
O555 Co531 2.097 . S
O555 C583 1.214 . S
H556 C584 0.929 . S
H557 C585 0.929 . S
H558 C586 0.930 . S
H559 C587 0.929 . S
H560 C589 0.930 . S
H561 C566 0.930 . S
H562 C570 0.930 . S
O563 Co532 2.035 1_554 S
O563 C583 1.233 1_554 S
C564 O538 1.269 . S
C564 O539 1.257 . S
C565 H540 0.930 . S
C565 C568 1.388 . S
C565 C570 1.418 . S
C566 H561 0.930 . S
C566 C569 1.404 . S
C566 C570 1.353 . S
N567 Co532 2.145 1_554 S
N567 C568 1.397 . S
N567 C569 1.334 . S
C568 H549 0.929 . S
C568 C565 1.388 . S
C568 N567 1.397 . S
C569 H550 0.929 1_554 S
C569 C566 1.404 . S
C569 N567 1.334 . S
C570 H562 0.930 . S
C570 C565 1.418 . S
C570 C566 1.353 . S
C571 H541 0.930 . S
C571 N572 1.330 . S
C571 C573 1.446 . S
N572 Co531 2.151 . S
N572 C571 1.330 . S
N572 C576 1.418 . S
C573 H552 0.929 . S
C573 C571 1.446 . S
C573 C574 1.332 . S
C574 H554 0.931 . S
C574 C573 1.332 . S
C574 C575 1.267 . S
C575 H543 0.929 . S
C575 C574 1.267 . S
C575 C576 1.251 . S
C576 H546 0.929 . S
C576 N572 1.418 . S
C576 C575 1.251 . S
C577 H544 0.930 . S
C577 C579 1.406 . S
C577 C582 1.261 . S
C578 H545 0.930 . S
C578 N580 1.325 . S
C578 C581 1.357 . S
C579 H547 0.928 . S
C579 C577 1.406 . S
C579 N580 1.261 . S
N580 Co531 2.214 . S
N580 C578 1.325 . S
N580 C579 1.261 . S
C581 H551 0.931 . S
C581 C578 1.357 . S
C581 C582 1.312 . S
C582 H553 0.930 . S
C582 C577 1.261 . S
C582 C581 1.312 . S
C583 O555 1.214 . S
C583 O563 1.233 1_556 S
C584 H556 0.929 . S
C584 C587 1.391 . S
C584 C589 1.391 . S
C585 H557 0.929 . S
C585 C586 1.390 . S
C585 N588 1.391 1_554 S
C586 H558 0.930 . S
C586 C585 1.390 . S
C586 C587 1.392 1_554 S
C587 H559 0.929 . S
C587 C584 1.391 . S
C587 C586 1.392 1_556 S
N588 Co532 2.257 . S
N588 C585 1.391 1_556 S
N588 C589 1.388 . S
C589 H560 0.930 . S
C589 C584 1.391 . S
C589 N588 1.388 . S
Co590 O592 2.143 . S
Co590 O598 2.074 . S
Co590 O601 2.093 1_554 S
Co590 O614 2.097 . S
Co590 N631 2.151 1_554 S
Co590 N639 2.214 . S
Co591 O592 2.160 . S
Co591 O597 2.058 . S
Co591 O607 2.057 . S
Co591 O622 2.037 . S
Co591 N626 2.145 . S
Co591 N647 2.257 . S
O592 Co590 2.143 . S
O592 Co591 2.160 . S
C593 O594 1.278 1_556 S
C593 O601 1.224 . S
O594 C593 1.278 1_554 S
C595 O596 1.245 1_554 S
C595 O607 1.232 . S
O596 C595 1.245 1_556 S
O597 Co591 2.058 . S
O597 C623 1.269 . S
O598 Co590 2.074 . S
O598 C623 1.257 . S
H599 C624 0.930 . S
H600 C630 0.930 . S
O601 Co590 2.093 1_556 S
O601 C593 1.224 . S
H602 C634 0.929 . S
H603 C636 0.928 . S
H604 C637 0.930 . S
H605 C635 0.931 . S
H606 C638 0.928 1_556 S
O607 Co591 2.057 . S
O607 C595 1.232 . S
H608 C627 0.929 . S
H609 C628 0.929 . S
H610 C640 0.931 . S
H611 C632 0.929 . S
H612 C641 0.930 1_455 S
H613 C633 0.931 . S
O614 Co590 2.097 . S
O614 C642 1.214 . S
H615 C643 0.929 . S
H616 C644 0.929 . S
H617 C645 0.930 . S
H618 C646 0.929 . S
H619 C648 0.930 . S
H620 C625 0.930 . S
H621 C629 0.930 . S
O622 Co591 2.037 . S
O622 C642 1.234 . S
C623 O597 1.269 . S
C623 O598 1.257 . S
C624 H599 0.930 . S
C624 C627 1.388 . S
C624 C629 1.418 . S
C625 H620 0.930 . S
C625 C628 1.404 . S
C625 C629 1.353 . S
N626 Co591 2.145 . S
N626 C627 1.397 . S
N626 C628 1.334 . S
C627 H608 0.929 . S
C627 C624 1.388 . S
C627 N626 1.397 . S
C628 H609 0.929 . S
C628 C625 1.404 . S
C628 N626 1.334 . S
C629 H621 0.930 . S
C629 C624 1.418 . S
C629 C625 1.353 . S
C630 H600 0.930 . S
C630 N631 1.330 . S
C630 C632 1.446 . S
N631 Co590 2.151 1_556 S
N631 C630 1.330 . S
N631 C635 1.418 . S
C632 H611 0.929 . S
C632 C630 1.446 . S
C632 C633 1.332 . S
C633 H613 0.931 . S
C633 C632 1.332 . S
C633 C634 1.267 . S
C634 H602 0.929 . S
C634 C633 1.267 . S
C634 C635 1.251 . S
C635 H605 0.931 . S
C635 N631 1.418 . S
C635 C634 1.251 . S
C636 H603 0.928 . S
C636 C638 1.406 . S
C636 C641 1.261 . S
C637 H604 0.930 . S
C637 N639 1.325 . S
C637 C640 1.357 . S
C638 H606 0.928 1_554 S
C638 C636 1.406 . S
C638 N639 1.261 . S
N639 Co590 2.214 . S
N639 C637 1.325 . S
N639 C638 1.261 . S
C640 H610 0.931 . S
C640 C637 1.357 . S
C640 C641 1.312 . S
C641 H612 0.930 1_655 S
C641 C636 1.261 . S
C641 C640 1.312 . S
C642 O614 1.214 . S
C642 O622 1.234 . S
C643 H615 0.929 . S
C643 C646 1.391 . S
C643 C648 1.391 . S
C644 H616 0.929 . S
C644 C645 1.390 . S
C644 N647 1.391 . S
C645 H617 0.930 . S
C645 C644 1.390 . S
C645 C646 1.392 . S
C646 H618 0.929 . S
C646 C643 1.391 . S
C646 C645 1.392 . S
N647 Co591 2.257 . S
N647 C644 1.391 . S
N647 C648 1.388 . S
C648 H619 0.930 . S
C648 C643 1.391 . S
C648 N647 1.388 . S
Co649 O651 2.143 . S
Co649 O657 2.074 . S
Co649 O660 2.093 . S
Co649 O673 2.097 . S
Co649 N690 2.151 . S
Co649 N698 2.214 . S
Co650 O651 2.160 . S
Co650 O656 2.058 . S
Co650 O666 2.057 . S
Co650 O681 2.037 . S
Co650 N685 2.145 . S
Co650 N706 2.257 . S
O651 Co649 2.143 . S
O651 Co650 2.160 . S
C652 O653 1.278 . S
C652 O660 1.224 . S
O653 C652 1.278 . S
C654 O655 1.245 . S
C654 O666 1.232 . S
O655 C654 1.245 . S
O656 Co650 2.058 . S
O656 C682 1.269 . S
O657 Co649 2.074 . S
O657 C682 1.257 . S
H658 C683 0.930 . S
H659 C689 0.930 . S
O660 Co649 2.093 . S
O660 C652 1.224 . S
H661 C693 0.929 . S
H662 C695 0.927 . S
H663 C696 0.930 . S
H664 C694 0.929 . S
H665 C697 0.928 . S
O666 Co650 2.057 . S
O666 C654 1.232 . S
H667 C686 0.929 . S
H668 C687 0.929 . S
H669 C699 0.931 . S
H670 C691 0.929 . S
H671 C700 0.930 1_545 S
H672 C692 0.931 . S
O673 Co649 2.097 . S
O673 C701 1.214 . S
H674 C702 0.929 . S
H675 C703 0.929 . S
H676 C704 0.930 . S
H677 C705 0.929 . S
H678 C707 0.930 . S
H679 C684 0.930 . S
H680 C688 0.930 . S
O681 Co650 2.037 . S
O681 C701 1.234 . S
C682 O656 1.269 . S
C682 O657 1.257 . S
C683 H658 0.930 . S
C683 C686 1.388 . S
C683 C688 1.418 . S
C684 H679 0.930 . S
C684 C687 1.404 . S
C684 C688 1.353 . S
N685 Co650 2.145 . S
N685 C686 1.397 . S
N685 C687 1.334 . S
C686 H667 0.929 . S
C686 C683 1.388 . S
C686 N685 1.397 . S
C687 H668 0.929 . S
C687 C684 1.404 . S
C687 N685 1.334 . S
C688 H680 0.930 . S
C688 C683 1.418 . S
C688 C684 1.353 . S
C689 H659 0.930 . S
C689 N690 1.330 . S
C689 C691 1.446 . S
N690 Co649 2.151 . S
N690 C689 1.330 . S
N690 C694 1.418 . S
C691 H670 0.929 . S
C691 C689 1.446 . S
C691 C692 1.332 . S
C692 H672 0.931 . S
C692 C691 1.332 . S
C692 C693 1.267 . S
C693 H661 0.929 . S
C693 C692 1.267 . S
C693 C694 1.251 . S
C694 H664 0.929 . S
C694 N690 1.418 . S
C694 C693 1.251 . S
C695 H662 0.927 . S
C695 C697 1.406 . S
C695 C700 1.261 . S
C696 H663 0.930 . S
C696 N698 1.325 . S
C696 C699 1.357 . S
C697 H665 0.928 . S
C697 C695 1.406 . S
C697 N698 1.261 . S
N698 Co649 2.214 . S
N698 C696 1.325 . S
N698 C697 1.261 . S
C699 H669 0.931 . S
C699 C696 1.357 . S
C699 C700 1.312 . S
C700 H671 0.930 1_565 S
C700 C695 1.261 . S
C700 C699 1.312 . S
C701 O673 1.214 . S
C701 O681 1.234 . S
C702 H674 0.929 . S
C702 C705 1.391 . S
C702 C707 1.391 . S
C703 H675 0.929 . S
C703 C704 1.390 . S
C703 N706 1.391 . S
C704 H676 0.930 . S
C704 C703 1.390 . S
C704 C705 1.392 . S
C705 H677 0.929 . S
C705 C702 1.391 . S
C705 C704 1.392 . S
N706 Co650 2.257 . S
N706 C703 1.391 . S
N706 C707 1.388 . S
C707 H678 0.930 . S
C707 C702 1.391 . S
C707 N706 1.388 . S
H708 C716 0.950 . S
H709 C721 0.950 . S
H710 C718 0.950 . S
H711 C720 0.950 . S
H712 C722 0.950 . S
H713 C724 0.950 . S
H714 C726 0.950 . S
H715 C727 0.950 . S
C716 H708 0.950 . S
C716 C717 1.386 . S
C716 C718 1.391 . S
C717 C716 1.386 . S
C717 C721 1.393 . S
C718 H710 0.950 . S
C718 C716 1.391 . S
C718 C719 1.400 . S
C719 C718 1.400 . S
C719 C720 1.398 . S
C719 C725 1.491 . S
C720 H711 0.950 . S
C720 C719 1.398 . S
C720 C721 1.391 . S
C721 H709 0.950 . S
C721 C717 1.393 . S
C721 C720 1.391 . S
C722 H712 0.950 . S
C722 C723 1.386 . S
C722 C724 1.391 . S
C723 C722 1.386 . S
C723 C727 1.393 . S
C724 H713 0.950 . S
C724 C722 1.391 . S
C724 C725 1.400 . S
C725 C719 1.491 . S
C725 C724 1.400 . S
C725 C726 1.398 . S
C726 H714 0.950 . S
C726 C725 1.398 . S
C726 C727 1.391 . S
C727 H715 0.950 . S
C727 C723 1.393 . S
C727 C726 1.391 . S
H728 C736 0.950 . S
H729 C741 0.950 . S
H730 C738 0.950 1_655 S
H731 C740 0.950 . S
H732 C742 0.950 . S
H733 C744 0.950 1_455 S
H734 C746 0.950 . S
H735 C747 0.950 . S
C736 H728 0.950 . S
C736 C737 1.386 . S
C736 C738 1.391 . S
C737 C736 1.386 . S
C737 C741 1.393 . S
C738 H730 0.950 1_455 S
C738 C736 1.391 . S
C738 C739 1.400 . S
C739 C738 1.400 . S
C739 C740 1.398 . S
C739 C745 1.491 1_455 S
C740 H731 0.950 . S
C740 C739 1.398 . S
C740 C741 1.391 . S
C741 H729 0.950 . S
C741 C737 1.393 . S
C741 C740 1.391 . S
C742 H732 0.950 . S
C742 C743 1.386 . S
C742 C744 1.391 . S
C743 C742 1.386 . S
C743 C747 1.393 . S
C744 H733 0.950 1_655 S
C744 C742 1.391 . S
C744 C745 1.400 . S
C745 C739 1.491 1_655 S
C745 C744 1.400 . S
C745 C746 1.398 . S
C746 H734 0.950 . S
C746 C745 1.398 . S
C746 C747 1.391 . S
C747 H735 0.950 . S
C747 C743 1.393 . S
C747 C746 1.391 . S
H748 C756 0.950 . S
H749 C761 0.950 . S
H750 C758 0.950 . S
H751 C760 0.950 1_545 S
H752 C762 0.950 . S
H753 C764 0.950 . S
H754 C766 0.950 1_565 S
H755 C767 0.950 . S
C756 H748 0.950 . S
C756 C757 1.386 . S
C756 C758 1.391 . S
C757 C756 1.386 . S
C757 C761 1.393 . S
C758 H750 0.950 . S
C758 C756 1.391 . S
C758 C759 1.400 . S
C759 C758 1.400 . S
C759 C760 1.398 . S
C759 C765 1.491 1_565 S
C760 H751 0.950 1_565 S
C760 C759 1.398 . S
C760 C761 1.391 . S
C761 H749 0.950 . S
C761 C757 1.393 . S
C761 C760 1.391 . S
C762 H752 0.950 . S
C762 C763 1.386 . S
C762 C764 1.391 . S
C763 C762 1.386 . S
C763 C767 1.393 . S
C764 H753 0.950 . S
C764 C762 1.391 . S
C764 C765 1.400 . S
C765 C759 1.491 1_545 S
C765 C764 1.400 . S
C765 C766 1.398 . S
C766 H754 0.950 1_545 S
C766 C765 1.398 . S
C766 C767 1.391 . S
C767 H755 0.950 . S
C767 C763 1.393 . S
C767 C766 1.391 . S
H768 C776 0.950 . S
H769 C781 0.950 . S
H770 C778 0.950 . S
H771 C780 0.950 . S
H772 C782 0.950 . S
H773 C784 0.950 . S
H774 C786 0.950 . S
H775 C787 0.950 . S
C776 H768 0.950 . S
C776 C777 1.386 . S
C776 C778 1.391 . S
C777 C776 1.386 . S
C777 C781 1.393 . S
C778 H770 0.950 . S
C778 C776 1.391 . S
C778 C779 1.400 . S
C779 C778 1.400 . S
C779 C780 1.398 . S
C779 C785 1.491 . S
C780 H771 0.950 . S
C780 C779 1.398 . S
C780 C781 1.391 . S
C781 H769 0.950 . S
C781 C777 1.393 . S
C781 C780 1.391 . S
C782 H772 0.950 . S
C782 C783 1.386 . S
C782 C784 1.391 . S
C783 C782 1.386 . S
C783 C787 1.393 . S
C784 H773 0.950 . S
C784 C782 1.391 . S
C784 C785 1.400 . S
C785 C779 1.491 . S
C785 C784 1.400 . S
C785 C786 1.398 . S
C786 H774 0.950 . S
C786 C785 1.398 . S
C786 C787 1.391 . S
C787 H775 0.950 . S
C787 C783 1.393 . S
C787 C786 1.391 . S
H788 C796 0.950 . S
H789 C801 0.950 . S
H790 C798 0.950 . S
H791 C800 0.950 . S
H792 C802 0.950 . S
H793 C804 0.950 . S
H794 C806 0.950 . S
H795 C807 0.950 . S
C796 H788 0.950 . S
C796 C797 1.386 . S
C796 C798 1.391 . S
C797 C796 1.386 . S
C797 C801 1.393 . S
C798 H790 0.950 . S
C798 C796 1.391 . S
C798 C799 1.400 . S
C799 C798 1.400 . S
C799 C800 1.398 . S
C799 C805 1.491 1_455 S
C800 H791 0.950 . S
C800 C799 1.398 . S
C800 C801 1.391 . S
C801 H789 0.950 . S
C801 C797 1.393 . S
C801 C800 1.391 . S
C802 H792 0.950 . S
C802 C803 1.386 . S
C802 C804 1.391 . S
C803 C802 1.386 . S
C803 C807 1.393 . S
C804 H793 0.950 . S
C804 C802 1.391 . S
C804 C805 1.400 . S
C805 C799 1.491 1_655 S
C805 C804 1.400 . S
C805 C806 1.398 . S
C806 H794 0.950 . S
C806 C805 1.398 . S
C806 C807 1.391 . S
C807 H795 0.950 . S
C807 C803 1.393 . S
C807 C806 1.391 . S
H808 C816 0.950 . S
H809 C821 0.950 . S
H810 C818 0.950 1_554 S
H811 C820 0.950 1_565 S
H812 C822 0.950 . S
H813 C824 0.950 1_556 S
H814 C826 0.950 1_545 S
H815 C827 0.950 . S
C816 H808 0.950 . S
C816 C817 1.386 . S
C816 C818 1.391 . S
C817 C816 1.386 . S
C817 C821 1.393 . S
C818 H810 0.950 1_556 S
C818 C816 1.391 . S
C818 C819 1.400 . S
C819 C818 1.400 . S
C819 C820 1.398 . S
C819 C825 1.491 1_546 S
C820 H811 0.950 1_545 S
C820 C819 1.398 . S
C820 C821 1.391 . S
C821 H809 0.950 . S
C821 C817 1.393 . S
C821 C820 1.391 . S
C822 H812 0.950 . S
C822 C823 1.386 . S
C822 C824 1.391 . S
C823 C822 1.386 . S
C823 C827 1.393 . S
C824 H813 0.950 1_554 S
C824 C822 1.391 . S
C824 C825 1.400 . S
C825 C819 1.491 1_564 S
C825 C824 1.400 . S
C825 C826 1.398 . S
C826 H814 0.950 1_565 S
C826 C825 1.398 . S
C826 C827 1.391 . S
C827 H815 0.950 . S
C827 C823 1.393 . S
C827 C826 1.391 . S
H828 C836 0.950 . S
H829 C841 0.950 . S
H830 C838 0.950 . S
H831 C840 0.950 . S
H832 C842 0.950 . S
H833 C844 0.950 . S
H834 C846 0.950 . S
H835 C847 0.950 . S
C836 H828 0.950 . S
C836 C837 1.386 . S
C836 C838 1.391 . S
C837 C836 1.386 . S
C837 C841 1.393 . S
C838 H830 0.950 . S
C838 C836 1.391 . S
C838 C839 1.400 . S
C839 C838 1.400 . S
C839 C840 1.398 . S
C839 C845 1.491 . S
C840 H831 0.950 . S
C840 C839 1.398 . S
C840 C841 1.391 . S
C841 H829 0.950 . S
C841 C837 1.393 . S
C841 C840 1.391 . S
C842 H832 0.950 . S
C842 C843 1.386 . S
C842 C844 1.391 . S
C843 C842 1.386 . S
C843 C847 1.393 . S
C844 H833 0.950 . S
C844 C842 1.391 . S
C844 C845 1.400 . S
C845 C839 1.491 . S
C845 C844 1.400 . S
C845 C846 1.398 . S
C846 H834 0.950 . S
C846 C845 1.398 . S
C846 C847 1.391 . S
C847 H835 0.950 . S
C847 C843 1.393 . S
C847 C846 1.391 . S
H848 C856 0.950 . S
H849 C861 0.950 . S
H850 C858 0.950 . S
H851 C860 0.950 . S
H852 C862 0.950 . S
H853 C864 0.950 . S
H854 C866 0.950 . S
H855 C867 0.950 . S
C856 H848 0.950 . S
C856 C857 1.386 . S
C856 C858 1.391 . S
C857 C856 1.386 . S
C857 C861 1.393 . S
C858 H850 0.950 . S
C858 C856 1.391 . S
C858 C859 1.400 . S
C859 C858 1.400 . S
C859 C860 1.398 . S
C859 C865 1.491 . S
C860 H851 0.950 . S
C860 C859 1.398 . S
C860 C861 1.391 . S
C861 H849 0.950 . S
C861 C857 1.393 . S
C861 C860 1.391 . S
C862 H852 0.950 . S
C862 C863 1.386 . S
C862 C864 1.391 . S
C863 C862 1.386 . S
C863 C867 1.393 . S
C864 H853 0.950 . S
C864 C862 1.391 . S
C864 C865 1.400 . S
C865 C859 1.491 . S
C865 C864 1.400 . S
C865 C866 1.398 . S
C866 H854 0.950 . S
C866 C865 1.398 . S
C866 C867 1.391 . S
C867 H855 0.950 . S
C867 C863 1.393 . S
C867 C866 1.391 . S
H868 C876 0.950 . S
H869 C881 0.950 . S
H870 C878 0.950 . S
H871 C880 0.950 . S
H872 C882 0.950 . S
H873 C884 0.950 . S
H874 C886 0.950 . S
H875 C887 0.950 . S
C876 H868 0.950 . S
C876 C877 1.386 . S
C876 C878 1.391 . S
C877 C876 1.386 . S
C877 C881 1.393 . S
C878 H870 0.950 . S
C878 C876 1.391 . S
C878 C879 1.400 . S
C879 C878 1.400 . S
C879 C880 1.398 . S
C879 C885 1.491 . S
C880 H871 0.950 . S
C880 C879 1.398 . S
C880 C881 1.391 . S
C881 H869 0.950 . S
C881 C877 1.393 . S
C881 C880 1.391 . S
C882 H872 0.950 . S
C882 C883 1.386 . S
C882 C884 1.391 . S
C883 C882 1.386 . S
C883 C887 1.393 . S
C884 H873 0.950 . S
C884 C882 1.391 . S
C884 C885 1.400 . S
C885 C879 1.491 . S
C885 C884 1.400 . S
C885 C886 1.398 . S
C886 H874 0.950 . S
C886 C885 1.398 . S
C886 C887 1.391 . S
C887 H875 0.950 . S
C887 C883 1.393 . S
C887 C886 1.391 . S
H888 C896 0.950 . S
H889 C901 0.950 . S
H890 C898 0.950 . S
H891 C900 0.950 . S
H892 C902 0.950 . S
H893 C904 0.950 . S
H894 C906 0.950 . S
H895 C907 0.950 . S
C896 H888 0.950 . S
C896 C897 1.386 . S
C896 C898 1.391 . S
C897 C896 1.386 . S
C897 C901 1.393 . S
C898 H890 0.950 . S
C898 C896 1.391 . S
C898 C899 1.400 . S
C899 C898 1.400 . S
C899 C900 1.398 . S
C899 C905 1.491 . S
C900 H891 0.950 . S
C900 C899 1.398 . S
C900 C901 1.391 . S
C901 H889 0.950 . S
C901 C897 1.393 . S
C901 C900 1.391 . S
C902 H892 0.950 . S
C902 C903 1.386 . S
C902 C904 1.391 . S
C903 C902 1.386 . S
C903 C907 1.393 . S
C904 H893 0.950 . S
C904 C902 1.391 . S
C904 C905 1.400 . S
C905 C899 1.491 . S
C905 C904 1.400 . S
C905 C906 1.398 . S
C906 H894 0.950 . S
C906 C905 1.398 . S
C906 C907 1.391 . S
C907 H895 0.950 . S
C907 C903 1.393 . S
C907 C906 1.391 . S
H908 C916 0.950 . S
H909 C921 0.950 . S
H910 C918 0.950 . S
H911 C920 0.950 . S
H912 C922 0.950 . S
H913 C924 0.950 . S
H914 C926 0.950 . S
H915 C927 0.950 1_556 S
C916 H908 0.950 . S
C916 C917 1.386 . S
C916 C918 1.391 . S
C917 C916 1.386 . S
C917 C921 1.393 . S
C918 H910 0.950 . S
C918 C916 1.391 . S
C918 C919 1.400 . S
C919 C918 1.400 . S
C919 C920 1.398 . S
C919 C925 1.491 . S
C920 H911 0.950 . S
C920 C919 1.398 . S
C920 C921 1.391 . S
C921 H909 0.950 . S
C921 C917 1.393 . S
C921 C920 1.391 . S
C922 H912 0.950 . S
C922 C923 1.386 . S
C922 C924 1.391 . S
C923 C922 1.386 . S
C923 C927 1.393 . S
C924 H913 0.950 . S
C924 C922 1.391 . S
C924 C925 1.400 . S
C925 C919 1.491 . S
C925 C924 1.400 . S
C925 C926 1.398 . S
C926 H914 0.950 . S
C926 C925 1.398 . S
C926 C927 1.391 . S
C927 H915 0.950 1_554 S
C927 C923 1.393 . S
C927 C926 1.391 . S
H928 C936 0.950 . S
H929 C941 0.950 . S
H930 C938 0.950 . S
H931 C940 0.950 . S
H932 C942 0.950 . S
H933 C944 0.950 . S
H934 C946 0.950 . S
H935 C947 0.950 . S
C936 H928 0.950 . S
C936 C937 1.386 . S
C936 C938 1.391 . S
C937 C936 1.386 . S
C937 C941 1.393 . S
C938 H930 0.950 . S
C938 C936 1.391 . S
C938 C939 1.400 . S
C939 C938 1.400 . S
C939 C940 1.398 . S
C939 C945 1.491 . S
C940 H931 0.950 . S
C940 C939 1.398 . S
C940 C941 1.391 . S
C941 H929 0.950 . S
C941 C937 1.393 . S
C941 C940 1.391 . S
C942 H932 0.950 . S
C942 C943 1.386 . S
C942 C944 1.391 . S
C943 C942 1.386 . S
C943 C947 1.393 . S
C944 H933 0.950 . S
C944 C942 1.391 . S
C944 C945 1.400 . S
C945 C939 1.491 . S
C945 C944 1.400 . S
C945 C946 1.398 . S
C946 H934 0.950 . S
C946 C945 1.398 . S
C946 C947 1.391 . S
C947 H935 0.950 . S
C947 C943 1.393 . S
C947 C946 1.391 . S
H948 C956 0.950 . S
H949 C961 0.950 . S
H950 C958 0.950 . S
H951 C960 0.950 . S
H952 C962 0.950 . S
H953 C964 0.950 . S
H954 C966 0.950 . S
H955 C967 0.950 . S
C956 H948 0.950 . S
C956 C957 1.386 . S
C956 C958 1.391 . S
C957 C956 1.386 . S
C957 C961 1.393 . S
C958 H950 0.950 . S
C958 C956 1.391 . S
C958 C959 1.400 . S
C959 C958 1.400 . S
C959 C960 1.398 . S
C959 C965 1.491 . S
C960 H951 0.950 . S
C960 C959 1.398 . S
C960 C961 1.391 . S
C961 H949 0.950 . S
C961 C957 1.393 . S
C961 C960 1.391 . S
C962 H952 0.950 . S
C962 C963 1.386 . S
C962 C964 1.391 . S
C963 C962 1.386 . S
C963 C967 1.393 . S
C964 H953 0.950 . S
C964 C962 1.391 . S
C964 C965 1.400 . S
C965 C959 1.491 . S
C965 C964 1.400 . S
C965 C966 1.398 . S
C966 H954 0.950 . S
C966 C965 1.398 . S
C966 C967 1.391 . S
C967 H955 0.950 . S
C967 C963 1.393 . S
C967 C966 1.391 . S
H968 C976 0.950 . S
H969 C981 0.950 . S
H970 C978 0.950 1_455 S
H971 C980 0.950 . S
H972 C982 0.950 . S
H973 C984 0.950 1_655 S
H974 C986 0.950 . S
H975 C987 0.950 . S
C976 H968 0.950 . S
C976 C977 1.386 . S
C976 C978 1.391 . S
C977 C976 1.386 . S
C977 C981 1.393 . S
C978 H970 0.950 1_655 S
C978 C976 1.391 . S
C978 C979 1.400 . S
C979 C978 1.400 . S
C979 C980 1.398 . S
C979 C985 1.491 1_655 S
C980 H971 0.950 . S
C980 C979 1.398 . S
C980 C981 1.391 . S
C981 H969 0.950 . S
C981 C977 1.393 . S
C981 C980 1.391 . S
C982 H972 0.950 . S
C982 C983 1.386 . S
C982 C984 1.391 . S
C983 C982 1.386 . S
C983 C987 1.393 . S
C984 H973 0.950 1_455 S
C984 C982 1.391 . S
C984 C985 1.400 . S
C985 C979 1.491 1_455 S
C985 C984 1.400 . S
C985 C986 1.398 . S
C986 H974 0.950 . S
C986 C985 1.398 . S
C986 C987 1.391 . S
C987 H975 0.950 . S
C987 C983 1.393 . S
C987 C986 1.391 . S
H988 C996 0.950 . S
H989 C1001 0.950 . S
H990 C998 0.950 1_556 S
H991 C1000 0.950 1_545 S
H992 C1002 0.950 . S
H993 C1004 0.950 1_554 S
H994 C1006 0.950 1_565 S
H995 C1007 0.950 . S
C996 H988 0.950 . S
C996 C997 1.386 . S
C996 C998 1.391 . S
C997 C996 1.386 . S
C997 C1001 1.393 . S
C998 H990 0.950 1_554 S
C998 C996 1.391 . S
C998 C999 1.400 . S
C999 C998 1.400 . S
C999 C1000 1.398 . S
C999 C1005 1.491 1_564 S
C1000 H991 0.950 1_565 S
C1000 C999 1.398 . S
C1000 C1001 1.391 . S
C1001 H989 0.950 . S
C1001 C997 1.393 . S
C1001 C1000 1.391 . S
C1002 H992 0.950 . S
C1002 C1003 1.386 . S
C1002 C1004 1.391 . S
C1003 C1002 1.386 . S
C1003 C1007 1.393 . S
C1004 H993 0.950 1_556 S
C1004 C1002 1.391 . S
C1004 C1005 1.400 . S
C1005 C999 1.491 1_546 S
C1005 C1004 1.400 . S
C1005 C1006 1.398 . S
C1006 H994 0.950 1_545 S
C1006 C1005 1.398 . S
C1006 C1007 1.391 . S
C1007 H995 0.950 . S
C1007 C1003 1.393 . S
C1007 C1006 1.391 . S
H1008 C1016 0.950 . S
H1009 C1021 0.950 . S
H1010 C1018 0.950 . S
H1011 C1020 0.950 . S
H1012 C1022 0.950 . S
H1013 C1024 0.950 . S
H1014 C1026 0.950 . S
H1015 C1027 0.950 . S
C1016 H1008 0.950 . S
C1016 C1017 1.386 . S
C1016 C1018 1.391 . S
C1017 C1016 1.386 . S
C1017 C1021 1.393 . S
C1018 H1010 0.950 . S
C1018 C1016 1.391 . S
C1018 C1019 1.400 . S
C1019 C1018 1.400 . S
C1019 C1020 1.398 . S
C1019 C1025 1.491 . S
C1020 H1011 0.950 . S
C1020 C1019 1.398 . S
C1020 C1021 1.391 . S
C1021 H1009 0.950 . S
C1021 C1017 1.393 . S
C1021 C1020 1.391 . S
C1022 H1012 0.950 . S
C1022 C1023 1.386 . S
C1022 C1024 1.391 . S
C1023 C1022 1.386 . S
C1023 C1027 1.393 . S
C1024 H1013 0.950 . S
C1024 C1022 1.391 . S
C1024 C1025 1.400 . S
C1025 C1019 1.491 . S
C1025 C1024 1.400 . S
C1025 C1026 1.398 . S
C1026 H1014 0.950 . S
C1026 C1025 1.398 . S
C1026 C1027 1.391 . S
C1027 H1015 0.950 . S
C1027 C1023 1.393 . S
C1027 C1026 1.391 . S
H1028 C1036 0.950 . S
H1029 C1041 0.950 . S
H1030 C1038 0.950 . S
H1031 C1040 0.950 1_655 S
H1032 C1042 0.950 . S
H1033 C1044 0.950 . S
H1034 C1046 0.950 1_455 S
H1035 C1047 0.950 . S
C1036 H1028 0.950 . S
C1036 C1037 1.386 . S
C1036 C1038 1.391 . S
C1037 C1036 1.386 . S
C1037 C1041 1.393 . S
C1038 H1030 0.950 . S
C1038 C1036 1.391 . S
C1038 C1039 1.400 . S
C1039 C1038 1.400 . S
C1039 C1040 1.398 . S
C1039 C1045 1.491 1_455 S
C1040 H1031 0.950 1_455 S
C1040 C1039 1.398 . S
C1040 C1041 1.391 . S
C1041 H1029 0.950 . S
C1041 C1037 1.393 . S
C1041 C1040 1.391 . S
C1042 H1032 0.950 . S
C1042 C1043 1.386 . S
C1042 C1044 1.391 . S
C1043 C1042 1.386 . S
C1043 C1047 1.393 . S
C1044 H1033 0.950 . S
C1044 C1042 1.391 . S
C1044 C1045 1.400 . S
C1045 C1039 1.491 1_655 S
C1045 C1044 1.400 . S
C1045 C1046 1.398 . S
C1046 H1034 0.950 1_655 S
C1046 C1045 1.398 . S
C1046 C1047 1.391 . S
C1047 H1035 0.950 . S
C1047 C1043 1.393 . S
C1047 C1046 1.391 . S
H1048 C1056 0.950 . S
H1049 C1061 0.950 . S
H1050 C1058 0.950 . S
H1051 C1060 0.950 1_545 S
H1052 C1062 0.950 . S
H1053 C1064 0.950 . S
H1054 C1066 0.950 1_565 S
H1055 C1067 0.950 . S
C1056 H1048 0.950 . S
C1056 C1057 1.386 . S
C1056 C1058 1.391 . S
C1057 C1056 1.386 . S
C1057 C1061 1.393 . S
C1058 H1050 0.950 . S
C1058 C1056 1.391 . S
C1058 C1059 1.400 . S
C1059 C1058 1.400 . S
C1059 C1060 1.398 . S
C1059 C1065 1.491 1_565 S
C1060 H1051 0.950 1_565 S
C1060 C1059 1.398 . S
C1060 C1061 1.391 . S
C1061 H1049 0.950 . S
C1061 C1057 1.393 . S
C1061 C1060 1.391 . S
C1062 H1052 0.950 . S
C1062 C1063 1.386 . S
C1062 C1064 1.391 . S
C1063 C1062 1.386 . S
C1063 C1067 1.393 . S
C1064 H1053 0.950 . S
C1064 C1062 1.391 . S
C1064 C1065 1.400 . S
C1065 C1059 1.491 1_545 S
C1065 C1064 1.400 . S
C1065 C1066 1.398 . S
C1066 H1054 0.950 1_545 S
C1066 C1065 1.398 . S
C1066 C1067 1.391 . S
C1067 H1055 0.950 . S
C1067 C1063 1.393 . S
C1067 C1066 1.391 . S
H1068 C1076 0.950 . S
H1069 C1081 0.950 . S
H1070 C1078 0.950 . S
H1071 C1080 0.950 . S
H1072 C1082 0.950 . S
H1073 C1084 0.950 . S
H1074 C1086 0.950 . S
H1075 C1087 0.950 . S
C1076 H1068 0.950 . S
C1076 C1077 1.386 . S
C1076 C1078 1.391 . S
C1077 C1076 1.386 . S
C1077 C1081 1.393 . S
C1078 H1070 0.950 . S
C1078 C1076 1.391 . S
C1078 C1079 1.400 . S
C1079 C1078 1.400 . S
C1079 C1080 1.398 . S
C1079 C1085 1.491 . S
C1080 H1071 0.950 . S
C1080 C1079 1.398 . S
C1080 C1081 1.391 . S
C1081 H1069 0.950 . S
C1081 C1077 1.393 . S
C1081 C1080 1.391 . S
C1082 H1072 0.950 . S
C1082 C1083 1.386 . S
C1082 C1084 1.391 . S
C1083 C1082 1.386 . S
C1083 C1087 1.393 . S
C1084 H1073 0.950 . S
C1084 C1082 1.391 . S
C1084 C1085 1.400 . S
C1085 C1079 1.491 . S
C1085 C1084 1.400 . S
C1085 C1086 1.398 . S
C1086 H1074 0.950 . S
C1086 C1085 1.398 . S
C1086 C1087 1.391 . S
C1087 H1075 0.950 . S
C1087 C1083 1.393 . S
C1087 C1086 1.391 . S
H1088 C1096 0.950 . S
H1089 C1101 0.950 . S
H1090 C1098 0.950 . S
H1091 C1100 0.950 . S
H1092 C1102 0.950 . S
H1093 C1104 0.950 . S
H1094 C1106 0.950 . S
H1095 C1107 0.950 . S
C1096 H1088 0.950 . S
C1096 C1097 1.386 . S
C1096 C1098 1.391 . S
C1097 C1096 1.386 . S
C1097 C1101 1.393 . S
C1098 H1090 0.950 . S
C1098 C1096 1.391 . S
C1098 C1099 1.400 . S
C1099 C1098 1.400 . S
C1099 C1100 1.398 . S
C1099 C1105 1.491 . S
C1100 H1091 0.950 . S
C1100 C1099 1.398 . S
C1100 C1101 1.391 . S
C1101 H1089 0.950 . S
C1101 C1097 1.393 . S
C1101 C1100 1.391 . S
C1102 H1092 0.950 . S
C1102 C1103 1.386 . S
C1102 C1104 1.391 . S
C1103 C1102 1.386 . S
C1103 C1107 1.393 . S
C1104 H1093 0.950 . S
C1104 C1102 1.391 . S
C1104 C1105 1.400 . S
C1105 C1099 1.491 . S
C1105 C1104 1.400 . S
C1105 C1106 1.398 . S
C1106 H1094 0.950 . S
C1106 C1105 1.398 . S
C1106 C1107 1.391 . S
C1107 H1095 0.950 . S
C1107 C1103 1.393 . S
C1107 C1106 1.391 . S
H1108 C1116 0.950 . S
H1109 C1121 0.950 . S
H1110 C1118 0.950 1_554 S
H1111 C1120 0.950 . S
H1112 C1122 0.950 . S
H1113 C1124 0.950 . S
H1114 C1126 0.950 . S
H1115 C1127 0.950 . S
C1116 H1108 0.950 . S
C1116 C1117 1.386 1_554 S
C1116 C1118 1.391 1_554 S
C1117 C1116 1.386 1_556 S
C1117 C1121 1.393 . S
C1118 H1110 0.950 1_556 S
C1118 C1116 1.391 1_556 S
C1118 C1119 1.400 . S
C1119 C1118 1.400 . S
C1119 C1120 1.398 . S
C1119 C1125 1.491 . S
C1120 H1111 0.950 . S
C1120 C1119 1.398 . S
C1120 C1121 1.391 . S
C1121 H1109 0.950 . S
C1121 C1117 1.393 . S
C1121 C1120 1.391 . S
C1122 H1112 0.950 . S
C1122 C1123 1.386 . S
C1122 C1124 1.391 . S
C1123 C1122 1.386 . S
C1123 C1127 1.393 . S
C1124 H1113 0.950 . S
C1124 C1122 1.391 . S
C1124 C1125 1.400 . S
C1125 C1119 1.491 . S
C1125 C1124 1.400 . S
C1125 C1126 1.398 . S
C1126 H1114 0.950 . S
C1126 C1125 1.398 . S
C1126 C1127 1.391 . S
C1127 H1115 0.950 . S
C1127 C1123 1.393 . S
C1127 C1126 1.391 . S
H1128 C1136 0.950 . S
H1129 C1141 0.950 . S
H1130 C1138 0.950 . S
H1131 C1140 0.950 . S
H1132 C1142 0.950 . S
H1133 C1144 0.950 . S
H1134 C1146 0.950 . S
H1135 C1147 0.950 . S
C1136 H1128 0.950 . S
C1136 C1137 1.386 . S
C1136 C1138 1.391 . S
C1137 C1136 1.386 . S
C1137 C1141 1.393 . S
C1138 H1130 0.950 . S
C1138 C1136 1.391 . S
C1138 C1139 1.400 . S
C1139 C1138 1.400 . S
C1139 C1140 1.398 . S
C1139 C1145 1.491 . S
C1140 H1131 0.950 . S
C1140 C1139 1.398 . S
C1140 C1141 1.391 . S
C1141 H1129 0.950 . S
C1141 C1137 1.393 . S
C1141 C1140 1.391 . S
C1142 H1132 0.950 . S
C1142 C1143 1.378 1_554 S
C1142 C1144 1.391 . S
C1143 C1142 1.378 1_556 S
C1143 C1147 1.393 . S
C1144 H1133 0.950 . S
C1144 C1142 1.391 . S
C1144 C1145 1.400 . S
C1145 C1139 1.491 . S
C1145 C1144 1.400 . S
C1145 C1146 1.398 . S
C1146 H1134 0.950 . S
C1146 C1145 1.398 . S
C1146 C1147 1.391 1_554 S
C1147 H1135 0.950 . S
C1147 C1143 1.393 . S
C1147 C1146 1.391 1_556 S
H1148 C1156 0.950 . S
H1149 C1161 0.950 . S
H1150 C1158 0.950 . S
H1151 C1160 0.950 . S
H1152 C1162 0.950 . S
H1153 C1164 0.950 . S
H1154 C1166 0.950 . S
H1155 C1167 0.950 . S
C1156 H1148 0.950 . S
C1156 C1157 1.386 . S
C1156 C1158 1.391 . S
C1157 C1156 1.386 . S
C1157 C1161 1.393 . S
C1158 H1150 0.950 . S
C1158 C1156 1.391 . S
C1158 C1159 1.400 . S
C1159 C1158 1.400 . S
C1159 C1160 1.398 . S
C1159 C1165 1.491 . S
C1160 H1151 0.950 . S
C1160 C1159 1.398 . S
C1160 C1161 1.391 . S
C1161 H1149 0.950 . S
C1161 C1157 1.393 . S
C1161 C1160 1.391 . S
C1162 H1152 0.950 . S
C1162 C1163 1.386 . S
C1162 C1164 1.391 . S
C1163 C1162 1.386 . S
C1163 C1167 1.393 . S
C1164 H1153 0.950 . S
C1164 C1162 1.391 . S
C1164 C1165 1.400 . S
C1165 C1159 1.491 . S
C1165 C1164 1.400 . S
C1165 C1166 1.398 . S
C1166 H1154 0.950 . S
C1166 C1165 1.398 . S
C1166 C1167 1.391 . S
C1167 H1155 0.950 . S
C1167 C1163 1.393 . S
C1167 C1166 1.391 . S
H1168 C1176 0.950 . S
H1169 C1181 0.950 . S
H1170 C1178 0.950 . S
H1171 C1180 0.950 . S
H1172 C1182 0.950 . S
H1173 C1184 0.950 . S
H1174 C1186 0.950 . S
H1175 C1187 0.950 . S
C1176 H1168 0.950 . S
C1176 C1177 1.386 . S
C1176 C1178 1.391 . S
C1177 C1176 1.386 . S
C1177 C1181 1.393 . S
C1178 H1170 0.950 . S
C1178 C1176 1.391 . S
C1178 C1179 1.400 . S
C1179 C1178 1.400 . S
C1179 C1180 1.398 . S
C1179 C1185 1.491 . S
C1180 H1171 0.950 . S
C1180 C1179 1.398 . S
C1180 C1181 1.391 . S
C1181 H1169 0.950 . S
C1181 C1177 1.393 . S
C1181 C1180 1.391 . S
C1182 H1172 0.950 . S
C1182 C1183 1.386 . S
C1182 C1184 1.391 . S
C1183 C1182 1.386 . S
C1183 C1187 1.393 . S
C1184 H1173 0.950 . S
C1184 C1182 1.391 . S
C1184 C1185 1.400 . S
C1185 C1179 1.491 . S
C1185 C1184 1.400 . S
C1185 C1186 1.398 . S
C1186 H1174 0.950 . S
C1186 C1185 1.398 . S
C1186 C1187 1.391 . S
C1187 H1175 0.950 . S
C1187 C1183 1.393 . S
C1187 C1186 1.391 . S
C717 C583 2.033 1_554 S
C723 C52 2.033 . S
C737 C111 2.028 . S
C743 C642 2.027 . S
C757 C701 2.029 . S
C763 C170 2.030 . S
C777 C406 2.033 . S
C783 C229 2.033 . S
C797 C465 2.033 . S
C803 C288 2.033 1_556 S
C817 C524 2.032 . S
C823 C347 2.032 . S
C837 C387 1.653 . S
C843 C33 1.644 . S
C857 C92 1.646 . S
C863 C446 1.647 . S
C877 C505 1.647 . S
C883 C151 1.646 . S
C897 C210 1.658 . S
C903 C564 1.669 . S
C917 C623 1.658 . S
C923 C269 1.645 . S
C937 C328 1.658 . S
C943 C682 1.669 . S
C957 C534 1.060 . S
C963 C3 1.084 . S
C977 C593 1.081 . S
C983 C62 1.070 . S
C997 C652 1.059 . S
C1003 C121 1.074 . S
C1017 C180 1.067 . S
C1023 C357 1.064 . S
C1037 C416 1.057 . S
C1043 C239 1.080 . S
C1057 C298 1.060 . S
C1063 C475 1.084 . S
C1077 C5 1.246 . S
C1083 C477 1.247 . S
C1097 C536 1.255 . S
C1103 C64 1.255 . S
C1117 C595 1.248 1_556 S
C1123 C123 1.247 . S
C1137 C654 1.254 . S
C1143 C182 1.260 . S
C1157 C359 1.247 . S
C1163 C241 1.248 . S
C1177 C418 1.251 . S
C1183 C300 1.252 . S
