# Generated by pormake.
# Topology srs-a, (3)-cn, num edge types: 1
# Building blocks:
#     Node 0, Type 0, BuildingBlock: OLANEW_clean_sbu_2, # of connection points: 3
#     Node 1, Type 0, BuildingBlock: OLANEW_clean_sbu_2, # of connection points: 3
#     Node 2, Type 0, BuildingBlock: OLANEW_clean_sbu_2, # of connection points: 3
#     Node 3, Type 0, BuildingBlock: OLANEW_clean_sbu_2, # of connection points: 3
#     Node 4, Type 0, BuildingBlock: OLANEW_clean_sbu_2, # of connection points: 3
#     Node 5, Type 0, BuildingBlock: OLANEW_clean_sbu_2, # of connection points: 3
#     Node 6, Type 0, BuildingBlock: OLANEW_clean_sbu_2, # of connection points: 3
#     Node 7, Type 0, BuildingBlock: OLANEW_clean_sbu_2, # of connection points: 3
#     Node 8, Type 0, BuildingBlock: OLANEW_clean_sbu_2, # of connection points: 3
#     Node 9, Type 0, BuildingBlock: OLANEW_clean_sbu_2, # of connection points: 3
#     Node 10, Type 0, BuildingBlock: OLANEW_clean_sbu_2, # of connection points: 3
#     Node 11, Type 0, BuildingBlock: OLANEW_clean_sbu_2, # of connection points: 3
#     Node 12, Type 0, BuildingBlock: OLANEW_clean_sbu_2, # of connection points: 3
#     Node 13, Type 0, BuildingBlock: OLANEW_clean_sbu_2, # of connection points: 3
#     Node 14, Type 0, BuildingBlock: OLANEW_clean_sbu_2, # of connection points: 3
#     Node 15, Type 0, BuildingBlock: OLANEW_clean_sbu_2, # of connection points: 3
#     Node 16, Type 0, BuildingBlock: OLANEW_clean_sbu_2, # of connection points: 3
#     Node 17, Type 0, BuildingBlock: OLANEW_clean_sbu_2, # of connection points: 3
#     Node 18, Type 0, BuildingBlock: OLANEW_clean_sbu_2, # of connection points: 3
#     Node 19, Type 0, BuildingBlock: OLANEW_clean_sbu_2, # of connection points: 3
#     Node 20, Type 0, BuildingBlock: OLANEW_clean_sbu_2, # of connection points: 3
#     Node 21, Type 0, BuildingBlock: OLANEW_clean_sbu_2, # of connection points: 3
#     Node 22, Type 0, BuildingBlock: OLANEW_clean_sbu_2, # of connection points: 3
#     Node 23, Type 0, BuildingBlock: OLANEW_clean_sbu_2, # of connection points: 3
#     Edge 24, Type (0, 0), BuildingBlock: OJICUG_clean_linker_0, # of connection points: 2
#     Edge 25, Type (0, 0), BuildingBlock: OJICUG_clean_linker_0, # of connection points: 2
#     Edge 26, Type (0, 0), BuildingBlock: OJICUG_clean_linker_0, # of connection points: 2
#     Edge 27, Type (0, 0), BuildingBlock: OJICUG_clean_linker_0, # of connection points: 2
#     Edge 28, Type (0, 0), BuildingBlock: OJICUG_clean_linker_0, # of connection points: 2
#     Edge 29, Type (0, 0), BuildingBlock: OJICUG_clean_linker_0, # of connection points: 2
#     Edge 30, Type (0, 0), BuildingBlock: OJICUG_clean_linker_0, # of connection points: 2
#     Edge 31, Type (0, 0), BuildingBlock: OJICUG_clean_linker_0, # of connection points: 2
#     Edge 32, Type (0, 0), BuildingBlock: OJICUG_clean_linker_0, # of connection points: 2
#     Edge 33, Type (0, 0), BuildingBlock: OJICUG_clean_linker_0, # of connection points: 2
#     Edge 34, Type (0, 0), BuildingBlock: OJICUG_clean_linker_0, # of connection points: 2
#     Edge 35, Type (0, 0), BuildingBlock: OJICUG_clean_linker_0, # of connection points: 2
#     Edge 36, Type (0, 0), BuildingBlock: OJICUG_clean_linker_0, # of connection points: 2
#     Edge 37, Type (0, 0), BuildingBlock: OJICUG_clean_linker_0, # of connection points: 2
#     Edge 38, Type (0, 0), BuildingBlock: OJICUG_clean_linker_0, # of connection points: 2
#     Edge 39, Type (0, 0), BuildingBlock: OJICUG_clean_linker_0, # of connection points: 2
#     Edge 40, Type (0, 0), BuildingBlock: OJICUG_clean_linker_0, # of connection points: 2
#     Edge 41, Type (0, 0), BuildingBlock: OJICUG_clean_linker_0, # of connection points: 2
#     Edge 42, Type (0, 0), BuildingBlock: OJICUG_clean_linker_0, # of connection points: 2
#     Edge 43, Type (0, 0), BuildingBlock: OJICUG_clean_linker_0, # of connection points: 2
#     Edge 44, Type (0, 0), BuildingBlock: OJICUG_clean_linker_0, # of connection points: 2
#     Edge 45, Type (0, 0), BuildingBlock: OJICUG_clean_linker_0, # of connection points: 2
#     Edge 46, Type (0, 0), BuildingBlock: OJICUG_clean_linker_0, # of connection points: 2
#     Edge 47, Type (0, 0), BuildingBlock: OJICUG_clean_linker_0, # of connection points: 2
#     Edge 48, Type (0, 0), BuildingBlock: OJICUG_clean_linker_0, # of connection points: 2
#     Edge 49, Type (0, 0), BuildingBlock: OJICUG_clean_linker_0, # of connection points: 2
#     Edge 50, Type (0, 0), BuildingBlock: OJICUG_clean_linker_0, # of connection points: 2
#     Edge 51, Type (0, 0), BuildingBlock: OJICUG_clean_linker_0, # of connection points: 2
#     Edge 52, Type (0, 0), BuildingBlock: OJICUG_clean_linker_0, # of connection points: 2
#     Edge 53, Type (0, 0), BuildingBlock: OJICUG_clean_linker_0, # of connection points: 2
#     Edge 54, Type (0, 0), BuildingBlock: OJICUG_clean_linker_0, # of connection points: 2
#     Edge 55, Type (0, 0), BuildingBlock: OJICUG_clean_linker_0, # of connection points: 2
#     Edge 56, Type (0, 0), BuildingBlock: OJICUG_clean_linker_0, # of connection points: 2
#     Edge 57, Type (0, 0), BuildingBlock: OJICUG_clean_linker_0, # of connection points: 2
#     Edge 58, Type (0, 0), BuildingBlock: OJICUG_clean_linker_0, # of connection points: 2
#     Edge 59, Type (0, 0), BuildingBlock: OJICUG_clean_linker_0, # of connection points: 2
# Relax obj value: 0.141
# Max RMSD: 0.233
# Mean RMSD: 0.193
data_MOF--net-srs-a--node1-OLANEW_clean_sbu_2--edge1-OJICUG_clean_linker_0
_symmetry_space_group_name_H-M    P1
_symmetry_Int_Tables_number       1
_symmetry_cell_setting            triclinic
loop_
_symmetry_equiv_pos_as_xyz
'x, y, z'
_cell_length_a     61.653282
_cell_length_b     62.97242
_cell_length_c     68.580437
_cell_angle_alpha  92.227957
_cell_angle_beta   89.222968
_cell_angle_gamma 92.930264
loop_
_atom_site_label
_atom_site_type_symbol
_atom_site_fract_x
_atom_site_fract_y
_atom_site_fract_z
_atom_type_partial_charge
O0 O 0.08213 0.29331 0.25785 0.0
Cd1 Cd 0.0526 0.3168 0.26559 0.0
O2 O 0.06365 0.27971 0.23279 0.0
Cd3 Cd 0.05853 0.25381 0.21098 0.0
O4 O 0.0703 0.22187 0.20848 0.0
C5 C 0.06995 0.21271 0.22466 0.0
O6 O 0.06065 0.22209 0.23981 0.0
C7 C 0.08045 0.28006 0.24344 0.0
C8 C 0.04137 0.34117 0.23456 0.0
O9 O 0.05505 0.34852 0.24735 0.0
O10 O 0.0332 0.3222 0.23634 0.0
O11 O 0.1159 0.67739 0.36405 0.0
Cd12 Cd 0.10224 0.64571 0.34544 0.0
O13 O 0.12154 0.69238 0.33601 0.0
Cd14 Cd 0.12956 0.71943 0.3176 0.0
O15 O 0.14078 0.74948 0.30507 0.0
C16 C 0.12894 0.75989 0.29424 0.0
O17 O 0.1093 0.75217 0.28995 0.0
C18 C 0.12238 0.69349 0.35457 0.0
C19 C 0.05814 0.63703 0.3528 0.0
O20 O 0.07263 0.62787 0.3622 0.0
O21 O 0.06452 0.6502 0.33988 0.0
O22 O 0.47793 0.89417 0.64479 0.0
Cd23 Cd 0.51256 0.88609 0.6291 0.0
O24 O 0.4633 0.87555 0.62027 0.0
Cd25 Cd 0.43587 0.86427 0.60218 0.0
O26 O 0.41235 0.8658 0.57884 0.0
C27 C 0.41939 0.87104 0.56209 0.0
O28 O 0.44044 0.8741 0.55937 0.0
C29 C 0.46108 0.88631 0.63618 0.0
C30 C 0.54769 0.88832 0.65437 0.0
O31 O 0.5439 0.90398 0.64374 0.0
O32 O 0.53473 0.87176 0.65324 0.0
O33 O 0.41924 0.10721 0.83918 0.0
Cd34 Cd 0.45362 0.11958 0.85403 0.0
O35 O 0.40401 0.10646 0.86816 0.0
Cd36 Cd 0.37828 0.10247 0.89021 0.0
O37 O 0.35729 0.09913 0.91595 0.0
C38 C 0.36581 0.09629 0.93237 0.0
O39 O 0.38702 0.09547 0.93337 0.0
C40 C 0.40259 0.10317 0.84979 0.0
C41 C 0.46023 0.16373 0.85614 0.0
O42 O 0.46575 0.15283 0.84086 0.0
O43 O 0.45129 0.15376 0.87034 0.0
O44 O 0.21791 0.09314 0.26288 0.0
Cd45 Cd 0.21619 0.07173 0.29182 0.0
O46 O 0.18514 0.10336 0.26974 0.0
Cd47 Cd 0.15608 0.11981 0.26305 0.0
O48 O 0.13029 0.14033 0.2559 0.0
C49 C 0.12818 0.14637 0.2386 0.0
O50 O 0.14152 0.13968 0.22485 0.0
C51 C 0.20196 0.10411 0.25882 0.0
C52 C 0.19129 0.03384 0.28607 0.0
O53 O 0.18262 0.05082 0.29257 0.0
O54 O 0.2117 0.03484 0.28218 0.0
O55 O 0.17465 0.84549 0.39325 0.0
Cd56 Cd 0.18211 0.82406 0.4211 0.0
O57 O 0.13931 0.84384 0.39809 0.0
Cd58 Cd 0.14101 0.81519 0.41475 0.0
O59 O 0.13696 0.78105 0.40789 0.0
C60 C 0.14636 0.77472 0.39227 0.0
O61 O 0.15866 0.78851 0.38265 0.0
C62 C 0.15596 0.85164 0.38926 0.0
C63 C 0.21223 0.84771 0.44416 0.0
O64 O 0.21841 0.83391 0.4313 0.0
O65 O 0.19179 0.8498 0.44654 0.0
O66 O 0.37298 0.88098 0.68727 0.0
Cd67 Cd 0.33771 0.88269 0.70379 0.0
O68 O 0.36632 0.9104 0.67293 0.0
Cd69 Cd 0.37135 0.9333 0.65002 0.0
O70 O 0.36486 0.94624 0.62174 0.0
C71 C 0.34534 0.94468 0.61589 0.0
O72 O 0.33024 0.93641 0.62744 0.0
C73 C 0.37872 0.89524 0.67538 0.0
C74 C 0.33063 0.92257 0.72108 0.0
O75 O 0.33823 0.90781 0.73095 0.0
O76 O 0.32655 0.91852 0.703 0.0
O77 O 0.31785 0.06336 0.01098 0.0
Cd78 Cd 0.29529 0.0486 0.03732 0.0
O79 O 0.29052 0.07837 0.99773 0.0
Cd80 Cd 0.26573 0.05787 0.01153 0.0
O81 O 0.26217 0.04407 0.98201 0.0
C82 C 0.25671 0.05696 0.96936 0.0
O83 O 0.25046 0.07577 0.97539 0.0
C84 C 0.31071 0.07535 0.99829 0.0
C85 C 0.2806 0.07997 0.0635 0.0
O86 O 0.29919 0.07216 0.06557 0.0
O87 O 0.26901 0.073 0.04904 0.0
O88 O 0.12499 0.89919 0.31318 0.0
Cd89 Cd 0.11908 0.91396 0.28135 0.0
O90 O 0.15969 0.89651 0.30652 0.0
Cd91 Cd 0.15235 0.89229 0.2756 0.0
O92 O 0.14344 0.85871 0.26954 0.0
C93 C 0.15625 0.84628 0.27717 0.0
O94 O 0.17387 0.85458 0.28566 0.0
C95 C 0.14406 0.89586 0.3188 0.0
C96 C 0.14149 0.95355 0.28005 0.0
O97 O 0.12172 0.95195 0.28606 0.0
O98 O 0.15047 0.93649 0.27423 0.0
O99 O 0.31165 0.94237 0.52705 0.0
Cd100 Cd 0.30598 0.93917 0.49183 0.0
O101 O 0.34389 0.95818 0.52286 0.0
Cd102 Cd 0.34656 0.94569 0.49286 0.0
O103 O 0.36766 0.9198 0.4981 0.0
C104 C 0.36004 0.9058 0.50956 0.0
O105 O 0.33939 0.90588 0.51452 0.0
C106 C 0.32849 0.95211 0.53418 0.0
C107 C 0.27529 0.90737 0.48003 0.0
O108 O 0.29553 0.90365 0.48048 0.0
O109 O 0.26958 0.92599 0.4855 0.0
O110 O 0.3294 0.06109 0.79175 0.0
Cd111 Cd 0.299 0.04222 0.77501 0.0
O112 O 0.3109 0.05621 0.81872 0.0
Cd113 Cd 0.30199 0.05914 0.84962 0.0
O114 O 0.2882 0.06152 0.87902 0.0
C115 C 0.28622 0.04542 0.88964 0.0
O116 O 0.29295 0.02707 0.88284 0.0
C117 C 0.32799 0.06353 0.8102 0.0
C118 C 0.31061 0.00368 0.75749 0.0
O119 O 0.31083 0.02064 0.74772 0.0
O120 O 0.30498 0.00499 0.77554 0.0
O121 O 0.22431 0.15043 0.1781 0.0
Cd122 Cd 0.23231 0.16975 0.14845 0.0
O123 O 0.19945 0.17202 0.18811 0.0
Cd124 Cd 0.17328 0.18732 0.20462 0.0
O125 O 0.14908 0.2108 0.21199 0.0
C126 C 0.14372 0.21622 0.22938 0.0
O127 O 0.15257 0.20703 0.24397 0.0
C128 C 0.21019 0.15564 0.19085 0.0
C129 C 0.24846 0.14206 0.11967 0.0
O130 O 0.26117 0.15199 0.13197 0.0
O131 O 0.22816 0.14547 0.12081 0.0
O132 O 0.7348 0.33768 0.81384 0.0
Cd133 Cd 0.76464 0.31651 0.82342 0.0
O134 O 0.71654 0.32824 0.84008 0.0
Cd135 Cd 0.68692 0.32651 0.85819 0.0
O136 O 0.65376 0.32653 0.86997 0.0
C137 C 0.64232 0.30918 0.87054 0.0
O138 O 0.65105 0.29139 0.86469 0.0
C139 C 0.71785 0.33862 0.82451 0.0
C140 C 0.78296 0.3314 0.85864 0.0
O141 O 0.78977 0.33871 0.84235 0.0
O142 O 0.76737 0.31712 0.85827 0.0
O143 O 0.84856 0.41279 0.16168 0.0
Cd144 Cd 0.81086 0.42018 0.16936 0.0
O145 O 0.84567 0.43337 0.13693 0.0
Cd146 Cd 0.85593 0.44654 0.10907 0.0
O147 O 0.85599 0.44674 0.07721 0.0
C148 C 0.839 0.43893 0.06874 0.0
O149 O 0.82237 0.43237 0.0795 0.0
C150 C 0.85709 0.4216 0.14688 0.0
C151 C 0.80856 0.45933 0.18947 0.0
O152 O 0.80838 0.44199 0.19867 0.0
O153 O 0.80965 0.45813 0.17079 0.0
O154 O 0.81203 0.53731 0.5183 0.0
Cd155 Cd 0.7967 0.5278 0.55003 0.0
O156 O 0.77914 0.54163 0.50786 0.0
Cd157 Cd 0.75686 0.54583 0.48409 0.0
O158 O 0.75259 0.54928 0.45303 0.0
C159 C 0.76266 0.53639 0.44195 0.0
O160 O 0.77328 0.52139 0.44986 0.0
C161 C 0.79953 0.54183 0.50465 0.0
C162 C 0.7855 0.56281 0.57351 0.0
O163 O 0.80453 0.55558 0.57414 0.0
O164 O 0.77183 0.55362 0.56161 0.0
O165 O 0.82853 0.58581 0.27663 0.0
Cd166 Cd 0.80227 0.58031 0.25031 0.0
O167 O 0.80554 0.56666 0.29405 0.0
Cd168 Cd 0.795 0.55033 0.32017 0.0
O169 O 0.78722 0.54077 0.34961 0.0
C170 C 0.77558 0.55269 0.36029 0.0
O171 O 0.76833 0.56993 0.35298 0.0
C172 C 0.82335 0.57764 0.2928 0.0
C173 C 0.80493 0.54084 0.23082 0.0
O174 O 0.81479 0.55752 0.22419 0.0
O175 O 0.79392 0.54281 0.24672 0.0
O176 O 0.63543 0.39725 0.81519 0.0
Cd177 Cd 0.6057 0.42042 0.81084 0.0
O178 O 0.64005 0.38769 0.78428 0.0
Cd179 Cd 0.60862 0.40016 0.77741 0.0
O180 O 0.57435 0.39401 0.78484 0.0
C181 C 0.5615 0.40782 0.7914 0.0
O182 O 0.56804 0.42801 0.79204 0.0
C183 C 0.64611 0.38753 0.80194 0.0
C184 C 0.62239 0.46165 0.80503 0.0
O185 O 0.62022 0.45447 0.8222 0.0
O186 O 0.61639 0.44945 0.79049 0.0
O187 O 0.67422 0.8501 0.72257 0.0
Cd188 Cd 0.66117 0.88616 0.72458 0.0
O189 O 0.64408 0.84034 0.70738 0.0
Cd190 Cd 0.62018 0.81571 0.69754 0.0
O191 O 0.61435 0.78258 0.70431 0.0
C192 C 0.61781 0.77913 0.7221 0.0
O193 O 0.62191 0.79548 0.73421 0.0
C194 C 0.66201 0.83549 0.7146 0.0
C195 C 0.62376 0.8886 0.70258 0.0
O196 O 0.64243 0.89441 0.69563 0.0
O197 O 0.62273 0.88186 0.71998 0.0
O198 O 0.53796 0.29704 0.87159 0.0
Cd199 Cd 0.49866 0.29615 0.86706 0.0
O200 O 0.54073 0.32922 0.88523 0.0
Cd201 Cd 0.50793 0.33584 0.87639 0.0
O202 O 0.50423 0.35184 0.84911 0.0
C203 C 0.5061 0.37204 0.84922 0.0
O204 O 0.5062 0.38265 0.8661 0.0
C205 C 0.54948 0.31209 0.87976 0.0
C206 C 0.48293 0.25391 0.86295 0.0
O207 O 0.4896 0.26426 0.84811 0.0
O208 O 0.48331 0.26368 0.87971 0.0
O209 O 0.96097 0.42349 0.14559 0.0
Cd210 Cd -8e-05 0.41815 0.14309 0.0
O211 O 0.95659 0.39559 0.12571 0.0
Cd212 Cd 0.93799 0.37505 0.105 0.0
O213 O 0.92904 0.36785 0.07471 0.0
C214 C 0.94292 0.37412 0.06203 0.0
O215 O 0.96143 0.38321 0.06802 0.0
C216 C 0.94842 0.41055 0.13588 0.0
C217 C 0.01399 0.39303 0.17254 0.0
O218 O 0.01521 0.41338 0.17445 0.0
O219 O 0.00611 0.38456 0.15671 0.0
O220 O 0.89984 0.60371 0.35408 0.0
Cd221 Cd 0.92324 0.61573 0.38126 0.0
O222 O 0.87556 0.59382 0.37577 0.0
Cd223 Cd 0.84646 0.58083 0.39088 0.0
O224 O 0.82815 0.57216 0.41734 0.0
C225 C 0.8361 0.5587 0.42823 0.0
O226 O 0.85409 0.54982 0.42261 0.0
C227 C 0.88097 0.59576 0.35791 0.0
C228 C 0.96689 0.62172 0.37065 0.0
O229 O 0.95958 0.60413 0.37763 0.0
O230 O 0.95351 0.63636 0.36852 0.0
O231 O 0.68762 0.60278 0.76553 0.0
Cd232 Cd 0.6688 0.5909 0.7951 0.0
O233 O 0.66795 0.63006 0.77186 0.0
Cd234 Cd 0.65666 0.66189 0.76864 0.0
O235 O 0.64608 0.6929 0.7614 0.0
C236 C 0.63711 0.69517 0.7451 0.0
O237 O 0.63416 0.67857 0.73305 0.0
C238 C 0.68182 0.62098 0.76093 0.0
C239 C 0.65607 0.54787 0.79576 0.0
O240 O 0.64494 0.56086 0.78661 0.0
O241 O 0.67353 0.55512 0.80415 0.0
O242 O 0.84215 0.38777 0.98788 0.0
Cd243 Cd 0.85414 0.36211 0.96277 0.0
O244 O 0.8634 0.41469 0.97846 0.0
Cd245 Cd 0.87894 0.39353 0.95734 0.0
O246 O 0.89736 0.37571 0.97737 0.0
C247 C 0.91496 0.38465 0.98365 0.0
O248 O 0.92256 0.40211 0.97551 0.0
C249 C 0.84907 0.40709 0.99014 0.0
C250 C 0.82783 0.35549 0.93018 0.0
O251 O 0.82436 0.34473 0.94551 0.0
O252 O 0.84336 0.36983 0.93051 0.0
O253 O 0.73269 0.64972 0.68231 0.0
Cd254 Cd 0.74814 0.66408 0.65222 0.0
O255 O 0.71428 0.67832 0.68675 0.0
Cd256 Cd 0.69361 0.70257 0.70002 0.0
O257 O 0.68073 0.73456 0.70216 0.0
C258 C 0.68524 0.74754 0.71637 0.0
O259 O 0.6969 0.74123 0.73076 0.0
C260 C 0.71926 0.66023 0.6925 0.0
C261 C 0.7606 0.63187 0.62592 0.0
O262 O 0.77392 0.64029 0.63854 0.0
O263 O 0.74139 0.63873 0.62572 0.0
C264 C 0.09807 0.16937 0.24933 0.0
C265 C 0.11179 0.16184 0.23437 0.0
H266 H 0.07392 0.1911 0.25792 0.0
C267 C 0.11031 0.16995 0.21565 0.0
H268 H 0.09871 0.16339 0.2639 0.0
C269 C 0.09598 0.18587 0.21218 0.0
C270 C 0.08289 0.19396 0.22739 0.0
H271 H 0.12065 0.16447 0.2038 0.0
H272 H 0.09574 0.19234 0.19779 0.0
C273 C 0.08378 0.18524 0.24588 0.0
C274 C 0.15204 0.74646 0.3663 0.0
C275 C 0.1417 0.75301 0.38376 0.0
H276 H 0.15462 0.72219 0.3438 0.0
C277 C 0.126 0.73911 0.39222 0.0
H278 H 0.16443 0.75662 0.35952 0.0
C279 C 0.12014 0.71948 0.38297 0.0
C280 C 0.12976 0.71346 0.36504 0.0
H281 H 0.1178 0.74362 0.40571 0.0
H282 H 0.10757 0.70933 0.38953 0.0
C283 C 0.1462 0.72686 0.35711 0.0
C284 C 0.43385 0.90899 0.65308 0.0
C285 C 0.43936 0.8892 0.64481 0.0
H286 H 0.40978 0.92657 0.66877 0.0
C287 C 0.42441 0.87171 0.64591 0.0
H288 H 0.44519 0.92268 0.65243 0.0
C289 C 0.40458 0.87376 0.65573 0.0
C290 C 0.39907 0.89351 0.66405 0.0
H291 H 0.42842 0.85624 0.63984 0.0
H292 H 0.39356 0.85989 0.65691 0.0
C293 C 0.41366 0.91122 0.66232 0.0
C294 C 0.36105 0.08637 0.96729 0.0
C295 C 0.35199 0.09289 0.94992 0.0
H296 H 0.35513 0.07585 0.99631 0.0
C297 C 0.3295 0.09538 0.94928 0.0
H298 H 0.37834 0.08437 0.96829 0.0
C299 C 0.31626 0.09077 0.96541 0.0
C300 C 0.32518 0.08335 0.9825 0.0
H301 H 0.32201 0.10047 0.93616 0.0
H302 H 0.2989 0.09221 0.96416 0.0
C303 C 0.34777 0.08154 0.98338 0.0
C304 C 0.12289 0.79399 0.27772 0.0
C305 C 0.13664 0.78123 0.28788 0.0
H306 H 0.11834 0.82458 0.26617 0.0
C307 C 0.15753 0.78947 0.29283 0.0
H308 H 0.10673 0.78808 0.27361 0.0
C309 C 0.16418 0.8103 0.28852 0.0
C310 C 0.15011 0.82342 0.27917 0.0
H311 H 0.16861 0.78004 0.30053 0.0
H312 H 0.18017 0.81631 0.29309 0.0
C313 C 0.12956 0.81489 0.27341 0.0
C314 C 0.39743 0.89469 0.51694 0.0
C315 C 0.37495 0.89327 0.52071 0.0
H316 H 0.42913 0.88856 0.52698 0.0
C317 C 0.36714 0.88204 0.53691 0.0
H318 H 0.40398 0.90312 0.50453 0.0
C319 C 0.38157 0.87384 0.54987 0.0
C320 C 0.4041 0.87656 0.54684 0.0
H321 H 0.34991 0.88056 0.54021 0.0
H322 H 0.37505 0.86617 0.56271 0.0
C323 C 0.41186 0.88636 0.52985 0.0
C324 C 0.37802 0.09903 0.82115 0.0
C325 C 0.38233 0.09441 0.84055 0.0
H326 H 0.35734 0.09314 0.79653 0.0
C327 C 0.36813 0.08005 0.85023 0.0
H328 H 0.38874 0.10994 0.81327 0.0
C329 C 0.35015 0.0703 0.84058 0.0
C330 C 0.34597 0.07481 0.82111 0.0
H331 H 0.37149 0.07548 0.86488 0.0
H332 H 0.34023 0.05849 0.8481 0.0
C333 C 0.36005 0.08938 0.81156 0.0
C334 C 0.1213 0.23862 0.2522 0.0
C335 C 0.12785 0.2329 0.23306 0.0
H336 H 0.10124 0.25818 0.27044 0.0
C337 C 0.11916 0.24339 0.21743 0.0
H338 H 0.12771 0.23091 0.26458 0.0
C339 C 0.10402 0.25895 0.22083 0.0
C340 C 0.09718 0.26431 0.2399 0.0
H341 H 0.12394 0.2395 0.20251 0.0
H342 H 0.09764 0.26679 0.20851 0.0
C343 C 0.10621 0.25427 0.25558 0.0
C344 C 0.19428 0.13733 0.24159 0.0
C345 C 0.203 0.11713 0.24136 0.0
H346 H 0.19004 0.16562 0.22612 0.0
C347 C 0.21368 0.10971 0.22446 0.0
H348 H 0.18665 0.14377 0.25469 0.0
C349 C 0.21548 0.12213 0.20806 0.0
C350 C 0.20684 0.14242 0.20819 0.0
H351 H 0.22064 0.09424 0.22391 0.0
H352 H 0.22382 0.11583 0.19527 0.0
C353 C 0.19622 0.14989 0.22517 0.0
C354 C 0.16848 0.88328 0.34435 0.0
C355 C 0.14758 0.88819 0.33858 0.0
H356 H 0.18756 0.86807 0.36499 0.0
C357 C 0.1298 0.8833 0.35096 0.0
H358 H 0.18255 0.88694 0.33523 0.0
C359 C 0.13266 0.87237 0.36801 0.0
C360 C 0.15337 0.86617 0.37308 0.0
H361 H 0.11349 0.88695 0.347 0.0
H362 H 0.11849 0.86798 0.37675 0.0
C363 C 0.17135 0.87242 0.36143 0.0
C364 C 0.35621 0.95817 0.58309 0.0
C365 C 0.34009 0.94961 0.59561 0.0
H366 H 0.36507 0.96605 0.55391 0.0
C367 C 0.3193 0.9443 0.58815 0.0
H368 H 0.37234 0.96259 0.58841 0.0
C369 C 0.31512 0.94623 0.56833 0.0
C370 C 0.33161 0.95364 0.55558 0.0
H371 H 0.30646 0.93778 0.59742 0.0
H372 H 0.29922 0.9411 0.56288 0.0
C373 C 0.35199 0.96023 0.5633 0.0
C374 C 0.26018 0.06916 0.93519 0.0
C375 C 0.26175 0.05284 0.94844 0.0
H376 H 0.26678 0.07968 0.90636 0.0
C377 C 0.27028 0.03352 0.94185 0.0
H378 H 0.25375 0.08427 0.93977 0.0
C379 C 0.27776 0.03088 0.9226 0.0
C380 C 0.27699 0.04755 0.90961 0.0
H381 H 0.27176 0.02066 0.9517 0.0
H382 H 0.28468 0.01598 0.91807 0.0
C383 C 0.26779 0.06658 0.91603 0.0
C384 C 0.60942 0.3283 0.88189 0.0
C385 C 0.61889 0.30932 0.87564 0.0
H386 H 0.58006 0.344 0.88844 0.0
C387 C 0.60547 0.29073 0.87301 0.0
H388 H 0.61932 0.34286 0.88421 0.0
C389 C 0.58295 0.29139 0.87538 0.0
C390 C 0.57336 0.31062 0.88058 0.0
H391 H 0.61223 0.2758 0.86834 0.0
H392 H 0.57302 0.27697 0.87243 0.0
C393 C 0.5869 0.32892 0.8844 0.0
C394 C 0.91642 0.43327 0.13539 0.0
C395 C 0.92479 0.41303 0.13646 0.0
H396 H 0.88805 0.45167 0.13715 0.0
C397 C 0.9105 0.39536 0.13953 0.0
H398 H 0.92718 0.4471 0.13305 0.0
C399 C 0.8883 0.39807 0.1425 0.0
C400 C 0.87998 0.41836 0.14169 0.0
H401 H 0.91665 0.37964 0.14057 0.0
H402 H 0.87768 0.38437 0.14568 0.0
C403 C 0.89411 0.43585 0.13763 0.0
C404 C 0.80889 0.5657 0.45507 0.0
C405 C 0.82622 0.55409 0.44756 0.0
H406 H 0.78728 0.57138 0.47927 0.0
C407 C 0.83472 0.53856 0.45908 0.0
H408 H 0.80211 0.57794 0.44668 0.0
C409 C 0.82608 0.53471 0.47765 0.0
C410 C 0.80864 0.54617 0.48505 0.0
H411 H 0.84813 0.52939 0.45381 0.0
H412 H 0.83292 0.5226 0.48615 0.0
C413 C 0.80027 0.56185 0.47367 0.0
C414 C 0.82951 0.58347 0.32879 0.0
C415 C 0.83792 0.58098 0.30973 0.0
H416 H 0.83635 0.59025 0.35896 0.0
C417 C 0.86049 0.58279 0.30679 0.0
H418 H 0.81215 0.58313 0.33142 0.0
C419 C 0.87437 0.58696 0.32257 0.0
C420 C 0.86601 0.58954 0.34167 0.0
H421 H 0.86743 0.58107 0.29225 0.0
H422 H 0.8917 0.58841 0.31974 0.0
C423 C 0.84341 0.58764 0.34462 0.0
C424 C 0.53394 0.4134 0.81797 0.0
C425 C 0.54219 0.40044 0.80276 0.0
H426 H 0.51564 0.41454 0.84471 0.0
C427 C 0.53438 0.37912 0.8008 0.0
H428 H 0.5395 0.42995 0.8198 0.0
C429 C 0.52059 0.37031 0.81499 0.0
C430 C 0.51455 0.38262 0.83154 0.0
H431 H 0.54017 0.36881 0.78904 0.0
H432 H 0.51619 0.35344 0.81376 0.0
C433 C 0.52028 0.40454 0.8323 0.0
C434 C 0.62306 0.7195 0.72072 0.0
C435 C 0.6308 0.71638 0.73952 0.0
H436 H 0.61271 0.74181 0.70046 0.0
C437 C 0.63301 0.73385 0.75283 0.0
H438 H 0.62121 0.70634 0.71013 0.0
C439 C 0.62801 0.7541 0.74734 0.0
C440 C 0.62078 0.75734 0.7284 0.0
H441 H 0.63889 0.73198 0.76744 0.0
H442 H 0.63035 0.7673 0.75783 0.0
C443 C 0.61813 0.7398 0.7152 0.0
C444 C 0.95071 0.38509 0.02789 0.0
C445 C 0.93732 0.37381 0.04111 0.0
H446 H 0.95418 0.39721 0.99924 0.0
C447 C 0.91781 0.36375 0.03441 0.0
H448 H 0.96592 0.39292 0.03254 0.0
C449 C 0.91121 0.36601 0.0152 0.0
C450 C 0.92389 0.37857 0.00241 0.0
H451 H 0.90722 0.3548 0.04419 0.0
H452 H 0.8956 0.3589 0.01075 0.0
C453 C 0.944 0.38754 0.00878 0.0
C454 C 0.6635 0.79887 0.69901 0.0
C455 C 0.66799 0.81303 0.71493 0.0
H456 H 0.6651 0.76705 0.68704 0.0
C457 C 0.67824 0.80554 0.7313 0.0
H458 H 0.65608 0.80433 0.68601 0.0
C459 C 0.6835 0.78421 0.7319 0.0
C460 C 0.67883 0.76994 0.71604 0.0
H461 H 0.68192 0.81613 0.74378 0.0
H462 H 0.6913 0.77895 0.74479 0.0
C463 C 0.66877 0.77754 0.69958 0.0
C464 C 0.67969 0.64578 0.73324 0.0
C465 C 0.69144 0.63145 0.74363 0.0
H466 H 0.67928 0.66634 0.70907 0.0
C467 C 0.71241 0.62681 0.73708 0.0
H468 H 0.66307 0.64869 0.73717 0.0
C469 C 0.72151 0.63649 0.72067 0.0
C470 C 0.70991 0.65115 0.71052 0.0
H471 H 0.72181 0.61571 0.74466 0.0
H472 H 0.73768 0.6325 0.71591 0.0
C473 C 0.68892 0.65575 0.717 0.0
C474 C 0.68784 0.36268 0.83269 0.0
C475 C 0.69982 0.35139 0.8186 0.0
H476 H 0.66163 0.38295 0.83851 0.0
C477 C 0.69469 0.35276 0.7988 0.0
H478 H 0.69199 0.36261 0.84797 0.0
C479 C 0.67736 0.36464 0.79326 0.0
C480 C 0.66503 0.37556 0.80743 0.0
H481 H 0.70385 0.34434 0.78763 0.0
H482 H 0.67354 0.36512 0.77792 0.0
C483 C 0.67062 0.37458 0.82719 0.0
C484 C 0.82564 0.41224 0.01979 0.0
C485 C 0.84356 0.41907 0.00836 0.0
H486 H 0.80994 0.41347 0.04776 0.0
C487 C 0.85825 0.43489 0.01615 0.0
H488 H 0.814 0.40013 0.01417 0.0
C489 C 0.85617 0.44227 0.03555 0.0
C490 C 0.83915 0.43421 0.04742 0.0
H491 H 0.87228 0.44044 0.00774 0.0
H492 H 0.86845 0.45353 0.0415 0.0
C493 C 0.82336 0.41986 0.03907 0.0
C494 C 0.78037 0.5303 0.38912 0.0
C495 C 0.77116 0.5478 0.38091 0.0
H496 H 0.78481 0.51293 0.4148 0.0
C497 C 0.75825 0.56094 0.39274 0.0
H498 H 0.7904 0.51986 0.3804 0.0
C499 C 0.75499 0.55692 0.41248 0.0
C500 C 0.76459 0.53969 0.42078 0.0
H501 H 0.7509 0.57453 0.38684 0.0
H502 H 0.74527 0.56756 0.4213 0.0
C503 C 0.77713 0.5263 0.40885 0.0
C504 C 0.02278 0.34515 0.20275 0.0
C505 C 0.03486 0.35433 0.21844 0.0
H506 H 0.00687 0.35014 0.17587 0.0
C507 C 0.04028 0.37629 0.21876 0.0
H508 H 0.01839 0.32826 0.20206 0.0
C509 C 0.03348 0.38886 0.20387 0.0
C510 C 0.02136 0.37969 0.18821 0.0
H511 H 0.04953 0.38385 0.23067 0.0
H512 H 0.03777 0.40577 0.20462 0.0
C513 C 0.01621 0.35768 0.18773 0.0
C514 C 0.0193 0.64621 0.35004 0.0
C515 C 0.03475 0.63274 0.35692 0.0
H516 H 0.98576 0.65337 0.34911 0.0
C517 C 0.02766 0.61534 0.368 0.0
H518 H 0.02426 0.65977 0.3415 0.0
C519 C 0.00557 0.61153 0.37215 0.0
C520 C 0.99016 0.62522 0.36557 0.0
H521 H 0.03917 0.60464 0.37344 0.0
H522 H 0.00061 0.59805 0.3808 0.0
C523 C 0.99725 0.64257 0.35444 0.0
C524 C 0.60341 0.90274 0.67498 0.0
C525 C 0.60401 0.88915 0.6907 0.0
H526 H 0.58488 0.91345 0.65139 0.0
C527 C 0.58575 0.8757 0.69472 0.0
H528 H 0.61724 0.91332 0.6716 0.0
C529 C 0.5674 0.87548 0.68295 0.0
C530 C 0.5668 0.88905 0.6672 0.0
H531 H 0.58581 0.86498 0.7067 0.0
H532 H 0.55369 0.8647 0.68618 0.0
C533 C 0.58486 0.90288 0.66348 0.0
C534 C 0.46159 0.19847 0.87532 0.0
C535 C 0.46473 0.18705 0.85757 0.0
H536 H 0.4649 0.22853 0.89096 0.0
C537 C 0.47297 0.19801 0.84139 0.0
H538 H 0.45526 0.19049 0.88807 0.0
C539 C 0.47837 0.21983 0.84302 0.0
C540 C 0.47579 0.23114 0.8609 0.0
H541 H 0.47551 0.1897 0.82748 0.0
H542 H 0.48499 0.22774 0.83034 0.0
C543 C 0.46714 0.22027 0.87699 0.0
C544 C 0.14402 0.99294 0.28725 0.0
C545 C 0.15386 0.97434 0.28051 0.0
H546 H 0.14809 0.02632 0.29424 0.0
C547 C 0.17589 0.97564 0.27493 0.0
H548 H 0.12707 0.99248 0.29165 0.0
C549 C 0.18795 0.99503 0.27645 0.0
C550 C 0.17824 0.01354 0.28357 0.0
H551 H 0.18396 0.96162 0.26966 0.0
H552 H 0.20497 0.99542 0.27228 0.0
C553 C 0.15608 0.01234 0.28875 0.0
C554 C 0.2215 0.8798 0.46571 0.0
C555 C 0.22824 0.86177 0.45501 0.0
H556 H 0.23108 0.90838 0.48196 0.0
C557 C 0.25052 0.85812 0.45375 0.0
H558 H 0.20445 0.88308 0.46696 0.0
C559 C 0.26579 0.87254 0.46249 0.0
C560 C 0.25909 0.89104 0.47248 0.0
H561 H 0.25623 0.84433 0.44567 0.0
H562 H 0.28287 0.86953 0.46088 0.0
C563 C 0.23677 0.89434 0.47427 0.0
C564 C 0.31749 0.98055 0.72774 0.0
C565 C 0.31639 0.98313 0.74817 0.0
H566 H 0.32268 0.95932 0.70315 0.0
C567 C 0.32051 0.96578 0.75962 0.0
H568 H 0.31436 0.99361 0.71853 0.0
C569 C 0.32554 0.94622 0.75081 0.0
C570 C 0.32623 0.94352 0.73038 0.0
H571 H 0.31987 0.9673 0.7754 0.0
H572 H 0.32853 0.93312 0.76003 0.0
C573 C 0.3222 0.96089 0.71893 0.0
C574 C 0.24331 0.11758 0.09024 0.0
C575 C 0.25691 0.12672 0.1049 0.0
H576 H 0.24015 0.09577 0.0656 0.0
C577 C 0.27852 0.12069 0.10559 0.0
H578 H 0.22659 0.12191 0.08928 0.0
C579 C 0.28626 0.10558 0.0921 0.0
C580 C 0.2726 0.09632 0.07753 0.0
H581 H 0.28941 0.12742 0.11673 0.0
H582 H 0.30293 0.10112 0.09314 0.0
C583 C 0.2511 0.1026 0.07665 0.0
C584 C 0.80993 0.35482 0.87753 0.0
C585 C 0.7933 0.3387 0.87724 0.0
H586 H 0.83374 0.37293 0.8945 0.0
C587 C 0.78721 0.32909 0.89478 0.0
H588 H 0.81494 0.36263 0.86429 0.0
C589 C 0.79802 0.33496 0.9121 0.0
C590 C 0.81509 0.35064 0.91227 0.0
H591 H 0.7744 0.31666 0.89507 0.0
H592 H 0.79326 0.3269 0.92528 0.0
C593 C 0.82068 0.36077 0.89487 0.0
C594 C 0.81357 0.49904 0.19065 0.0
C595 C 0.80767 0.48016 0.20009 0.0
H596 H 0.81762 0.53301 0.19306 0.0
C597 C 0.80099 0.48137 0.21975 0.0
H598 H 0.81887 0.49861 0.17552 0.0
C599 C 0.79999 0.5011 0.22972 0.0
C600 C 0.80603 0.51997 0.22031 0.0
H601 H 0.79631 0.46708 0.2274 0.0
H602 H 0.79465 0.50154 0.24483 0.0
C603 C 0.81293 0.51874 0.20071 0.0
C604 C 0.75228 0.60518 0.59861 0.0
C605 C 0.76714 0.6146 0.61214 0.0
H606 H 0.74642 0.58151 0.57579 0.0
C607 C 0.78824 0.60716 0.61254 0.0
H608 H 0.73591 0.61055 0.59791 0.0
C609 C 0.79427 0.59052 0.59985 0.0
C610 C 0.77933 0.58094 0.58648 0.0
H611 H 0.80009 0.6141 0.62276 0.0
H612 H 0.8106 0.58507 0.60064 0.0
C613 C 0.75831 0.58853 0.58592 0.0
C614 C 0.63421 0.51558 0.78357 0.0
C615 C 0.64839 0.52542 0.79744 0.0
H616 H 0.61516 0.48741 0.77491 0.0
C617 C 0.65439 0.51395 0.8135 0.0
H618 H 0.62936 0.52407 0.77104 0.0
C619 C 0.64586 0.49323 0.81596 0.0
C620 C 0.63162 0.4834 0.80215 0.0
H621 H 0.6652 0.52119 0.82446 0.0
H622 H 0.65047 0.48487 0.82866 0.0
C623 C 0.62613 0.49463 0.78577 0.0
loop_
_geom_bond_atom_site_label_1
_geom_bond_atom_site_label_2
_geom_bond_distance
_geom_bond_site_symmetry_2
_ccdc_geom_bond_type
O0 Cd1 2.300 . S
O0 C7 1.275 . S
Cd1 O0 2.300 . S
Cd1 O9 2.381 . S
Cd1 O10 2.378 . S
O2 Cd3 2.385 . S
O2 C7 1.255 . S
Cd3 O2 2.385 . S
Cd3 O4 2.317 . S
O4 Cd3 2.317 . S
O4 C5 1.232 . S
C5 O4 1.232 . S
C5 O6 1.218 . S
O6 C5 1.218 . S
C7 O0 1.275 . S
C7 O2 1.255 . S
C8 O9 1.258 . S
C8 O10 1.256 . S
O9 Cd1 2.381 . S
O9 C8 1.258 . S
O10 Cd1 2.378 . S
O10 C8 1.256 . S
O11 Cd12 2.300 . S
O11 C18 1.275 . S
Cd12 O11 2.300 . S
Cd12 O20 2.381 . S
Cd12 O21 2.378 . S
O13 Cd14 2.385 . S
O13 C18 1.255 . S
Cd14 O13 2.385 . S
Cd14 O15 2.317 . S
O15 Cd14 2.317 . S
O15 C16 1.232 . S
C16 O15 1.232 . S
C16 O17 1.218 . S
O17 C16 1.218 . S
C18 O11 1.275 . S
C18 O13 1.255 . S
C19 O20 1.258 . S
C19 O21 1.256 . S
O20 Cd12 2.381 . S
O20 C19 1.258 . S
O21 Cd12 2.378 . S
O21 C19 1.256 . S
O22 Cd23 2.300 . S
O22 C29 1.275 . S
Cd23 O22 2.300 . S
Cd23 O31 2.381 . S
Cd23 O32 2.378 . S
O24 Cd25 2.385 . S
O24 C29 1.255 . S
Cd25 O24 2.385 . S
Cd25 O26 2.317 . S
O26 Cd25 2.317 . S
O26 C27 1.232 . S
C27 O26 1.232 . S
C27 O28 1.218 . S
O28 C27 1.218 . S
C29 O22 1.275 . S
C29 O24 1.255 . S
C30 O31 1.258 . S
C30 O32 1.256 . S
O31 Cd23 2.381 . S
O31 C30 1.258 . S
O32 Cd23 2.378 . S
O32 C30 1.256 . S
O33 Cd34 2.300 . S
O33 C40 1.275 . S
Cd34 O33 2.300 . S
Cd34 O42 2.381 . S
Cd34 O43 2.378 . S
O35 Cd36 2.385 . S
O35 C40 1.255 . S
Cd36 O35 2.385 . S
Cd36 O37 2.317 . S
O37 Cd36 2.317 . S
O37 C38 1.232 . S
C38 O37 1.232 . S
C38 O39 1.218 . S
O39 C38 1.218 . S
C40 O33 1.275 . S
C40 O35 1.255 . S
C41 O42 1.258 . S
C41 O43 1.256 . S
O42 Cd34 2.381 . S
O42 C41 1.258 . S
O43 Cd34 2.378 . S
O43 C41 1.256 . S
O44 Cd45 2.300 . S
O44 C51 1.275 . S
Cd45 O44 2.300 . S
Cd45 O53 2.381 . S
Cd45 O54 2.378 . S
O46 Cd47 2.385 . S
O46 C51 1.255 . S
Cd47 O46 2.385 . S
Cd47 O48 2.317 . S
O48 Cd47 2.317 . S
O48 C49 1.232 . S
C49 O48 1.232 . S
C49 O50 1.218 . S
O50 C49 1.218 . S
C51 O44 1.275 . S
C51 O46 1.255 . S
C52 O53 1.258 . S
C52 O54 1.256 . S
O53 Cd45 2.381 . S
O53 C52 1.258 . S
O54 Cd45 2.378 . S
O54 C52 1.256 . S
O55 Cd56 2.300 . S
O55 C62 1.275 . S
Cd56 O55 2.300 . S
Cd56 O64 2.381 . S
Cd56 O65 2.378 . S
O57 Cd58 2.385 . S
O57 C62 1.255 . S
Cd58 O57 2.385 . S
Cd58 O59 2.317 . S
O59 Cd58 2.317 . S
O59 C60 1.232 . S
C60 O59 1.232 . S
C60 O61 1.218 . S
O61 C60 1.218 . S
C62 O55 1.275 . S
C62 O57 1.255 . S
C63 O64 1.258 . S
C63 O65 1.256 . S
O64 Cd56 2.381 . S
O64 C63 1.258 . S
O65 Cd56 2.378 . S
O65 C63 1.256 . S
O66 Cd67 2.300 . S
O66 C73 1.275 . S
Cd67 O66 2.300 . S
Cd67 O75 2.381 . S
Cd67 O76 2.378 . S
O68 Cd69 2.385 . S
O68 C73 1.255 . S
Cd69 O68 2.385 . S
Cd69 O70 2.317 . S
O70 Cd69 2.317 . S
O70 C71 1.232 . S
C71 O70 1.232 . S
C71 O72 1.218 . S
O72 C71 1.218 . S
C73 O66 1.275 . S
C73 O68 1.255 . S
C74 O75 1.258 . S
C74 O76 1.256 . S
O75 Cd67 2.381 . S
O75 C74 1.258 . S
O76 Cd67 2.378 . S
O76 C74 1.256 . S
O77 Cd78 2.300 . S
O77 C84 1.275 1_554 S
Cd78 O77 2.300 . S
Cd78 O86 2.381 . S
Cd78 O87 2.378 . S
O79 Cd80 2.385 . S
O79 C84 1.255 . S
Cd80 O79 2.385 . S
Cd80 O81 2.317 . S
O81 Cd80 2.317 . S
O81 C82 1.232 . S
C82 O81 1.232 . S
C82 O83 1.218 . S
O83 C82 1.218 . S
C84 O77 1.275 1_556 S
C84 O79 1.255 . S
C85 O86 1.258 . S
C85 O87 1.256 . S
O86 Cd78 2.381 . S
O86 C85 1.258 . S
O87 Cd78 2.378 . S
O87 C85 1.256 . S
O88 Cd89 2.300 . S
O88 C95 1.275 . S
Cd89 O88 2.300 . S
Cd89 O97 2.381 . S
Cd89 O98 2.378 . S
O90 Cd91 2.385 . S
O90 C95 1.255 . S
Cd91 O90 2.385 . S
Cd91 O92 2.317 . S
O92 Cd91 2.317 . S
O92 C93 1.232 . S
C93 O92 1.232 . S
C93 O94 1.218 . S
O94 C93 1.218 . S
C95 O88 1.275 . S
C95 O90 1.255 . S
C96 O97 1.258 . S
C96 O98 1.256 . S
O97 Cd89 2.381 . S
O97 C96 1.258 . S
O98 Cd89 2.378 . S
O98 C96 1.256 . S
O99 Cd100 2.300 . S
O99 C106 1.275 . S
Cd100 O99 2.300 . S
Cd100 O108 2.381 . S
Cd100 O109 2.378 . S
O101 Cd102 2.385 . S
O101 C106 1.255 . S
Cd102 O101 2.385 . S
Cd102 O103 2.317 . S
O103 Cd102 2.317 . S
O103 C104 1.232 . S
C104 O103 1.232 . S
C104 O105 1.218 . S
O105 C104 1.218 . S
C106 O99 1.275 . S
C106 O101 1.255 . S
C107 O108 1.258 . S
C107 O109 1.256 . S
O108 Cd100 2.381 . S
O108 C107 1.258 . S
O109 Cd100 2.378 . S
O109 C107 1.256 . S
O110 Cd111 2.300 . S
O110 C117 1.275 . S
Cd111 O110 2.300 . S
Cd111 O119 2.381 . S
Cd111 O120 2.378 . S
O112 Cd113 2.385 . S
O112 C117 1.255 . S
Cd113 O112 2.385 . S
Cd113 O114 2.317 . S
O114 Cd113 2.317 . S
O114 C115 1.232 . S
C115 O114 1.232 . S
C115 O116 1.218 . S
O116 C115 1.218 . S
C117 O110 1.275 . S
C117 O112 1.255 . S
C118 O119 1.258 . S
C118 O120 1.256 . S
O119 Cd111 2.381 . S
O119 C118 1.258 . S
O120 Cd111 2.378 . S
O120 C118 1.256 . S
O121 Cd122 2.300 . S
O121 C128 1.275 . S
Cd122 O121 2.300 . S
Cd122 O130 2.381 . S
Cd122 O131 2.378 . S
O123 Cd124 2.385 . S
O123 C128 1.255 . S
Cd124 O123 2.385 . S
Cd124 O125 2.317 . S
O125 Cd124 2.317 . S
O125 C126 1.232 . S
C126 O125 1.232 . S
C126 O127 1.218 . S
O127 C126 1.218 . S
C128 O121 1.275 . S
C128 O123 1.255 . S
C129 O130 1.258 . S
C129 O131 1.256 . S
O130 Cd122 2.381 . S
O130 C129 1.258 . S
O131 Cd122 2.378 . S
O131 C129 1.256 . S
O132 Cd133 2.300 . S
O132 C139 1.275 . S
Cd133 O132 2.300 . S
Cd133 O141 2.381 . S
Cd133 O142 2.378 . S
O134 Cd135 2.385 . S
O134 C139 1.255 . S
Cd135 O134 2.385 . S
Cd135 O136 2.317 . S
O136 Cd135 2.317 . S
O136 C137 1.232 . S
C137 O136 1.232 . S
C137 O138 1.218 . S
O138 C137 1.218 . S
C139 O132 1.275 . S
C139 O134 1.255 . S
C140 O141 1.258 . S
C140 O142 1.256 . S
O141 Cd133 2.381 . S
O141 C140 1.258 . S
O142 Cd133 2.378 . S
O142 C140 1.256 . S
O143 Cd144 2.300 . S
O143 C150 1.275 . S
Cd144 O143 2.300 . S
Cd144 O152 2.381 . S
Cd144 O153 2.378 . S
O145 Cd146 2.385 . S
O145 C150 1.255 . S
Cd146 O145 2.385 . S
Cd146 O147 2.317 . S
O147 Cd146 2.317 . S
O147 C148 1.232 . S
C148 O147 1.232 . S
C148 O149 1.218 . S
O149 C148 1.218 . S
C150 O143 1.275 . S
C150 O145 1.255 . S
C151 O152 1.258 . S
C151 O153 1.256 . S
O152 Cd144 2.381 . S
O152 C151 1.258 . S
O153 Cd144 2.378 . S
O153 C151 1.256 . S
O154 Cd155 2.300 . S
O154 C161 1.275 . S
Cd155 O154 2.300 . S
Cd155 O163 2.381 . S
Cd155 O164 2.378 . S
O156 Cd157 2.385 . S
O156 C161 1.255 . S
Cd157 O156 2.385 . S
Cd157 O158 2.317 . S
O158 Cd157 2.317 . S
O158 C159 1.232 . S
C159 O158 1.232 . S
C159 O160 1.218 . S
O160 C159 1.218 . S
C161 O154 1.275 . S
C161 O156 1.255 . S
C162 O163 1.258 . S
C162 O164 1.256 . S
O163 Cd155 2.381 . S
O163 C162 1.258 . S
O164 Cd155 2.378 . S
O164 C162 1.256 . S
O165 Cd166 2.300 . S
O165 C172 1.275 . S
Cd166 O165 2.300 . S
Cd166 O174 2.381 . S
Cd166 O175 2.378 . S
O167 Cd168 2.385 . S
O167 C172 1.255 . S
Cd168 O167 2.385 . S
Cd168 O169 2.317 . S
O169 Cd168 2.317 . S
O169 C170 1.232 . S
C170 O169 1.232 . S
C170 O171 1.218 . S
O171 C170 1.218 . S
C172 O165 1.275 . S
C172 O167 1.255 . S
C173 O174 1.258 . S
C173 O175 1.256 . S
O174 Cd166 2.381 . S
O174 C173 1.258 . S
O175 Cd166 2.378 . S
O175 C173 1.256 . S
O176 Cd177 2.300 . S
O176 C183 1.275 . S
Cd177 O176 2.300 . S
Cd177 O185 2.381 . S
Cd177 O186 2.378 . S
O178 Cd179 2.385 . S
O178 C183 1.255 . S
Cd179 O178 2.385 . S
Cd179 O180 2.317 . S
O180 Cd179 2.317 . S
O180 C181 1.232 . S
C181 O180 1.232 . S
C181 O182 1.218 . S
O182 C181 1.218 . S
C183 O176 1.275 . S
C183 O178 1.255 . S
C184 O185 1.258 . S
C184 O186 1.256 . S
O185 Cd177 2.381 . S
O185 C184 1.258 . S
O186 Cd177 2.378 . S
O186 C184 1.256 . S
O187 Cd188 2.300 . S
O187 C194 1.275 . S
Cd188 O187 2.300 . S
Cd188 O196 2.381 . S
Cd188 O197 2.378 . S
O189 Cd190 2.385 . S
O189 C194 1.255 . S
Cd190 O189 2.385 . S
Cd190 O191 2.317 . S
O191 Cd190 2.317 . S
O191 C192 1.232 . S
C192 O191 1.232 . S
C192 O193 1.218 . S
O193 C192 1.218 . S
C194 O187 1.275 . S
C194 O189 1.255 . S
C195 O196 1.258 . S
C195 O197 1.256 . S
O196 Cd188 2.381 . S
O196 C195 1.258 . S
O197 Cd188 2.378 . S
O197 C195 1.256 . S
O198 Cd199 2.300 . S
O198 C205 1.275 . S
Cd199 O198 2.300 . S
Cd199 O207 2.381 . S
Cd199 O208 2.378 . S
O200 Cd201 2.385 . S
O200 C205 1.255 . S
Cd201 O200 2.385 . S
Cd201 O202 2.317 . S
O202 Cd201 2.317 . S
O202 C203 1.232 . S
C203 O202 1.232 . S
C203 O204 1.218 . S
O204 C203 1.218 . S
C205 O198 1.275 . S
C205 O200 1.255 . S
C206 O207 1.258 . S
C206 O208 1.256 . S
O207 Cd199 2.381 . S
O207 C206 1.258 . S
O208 Cd199 2.378 . S
O208 C206 1.256 . S
O209 Cd210 2.300 . S
O209 C216 1.275 . S
Cd210 O209 2.300 . S
Cd210 O218 2.341 1_655 S
Cd210 O219 2.378 . S
O211 Cd212 2.385 . S
O211 C216 1.255 . S
Cd212 O211 2.385 . S
Cd212 O213 2.317 . S
O213 Cd212 2.317 . S
O213 C214 1.232 . S
C214 O213 1.232 . S
C214 O215 1.218 . S
O215 C214 1.218 . S
C216 O209 1.275 . S
C216 O211 1.255 . S
C217 O218 1.276 . S
C217 O219 1.256 1_455 S
O218 Cd210 2.341 1_455 S
O218 C217 1.276 . S
O219 Cd210 2.378 . S
O219 C217 1.256 1_655 S
O220 Cd221 2.300 . S
O220 C227 1.275 . S
Cd221 O220 2.300 . S
Cd221 O229 2.381 . S
Cd221 O230 2.378 . S
O222 Cd223 2.385 . S
O222 C227 1.255 . S
Cd223 O222 2.385 . S
Cd223 O224 2.317 . S
O224 Cd223 2.317 . S
O224 C225 1.232 . S
C225 O224 1.232 . S
C225 O226 1.218 . S
O226 C225 1.218 . S
C227 O220 1.275 . S
C227 O222 1.255 . S
C228 O229 1.258 . S
C228 O230 1.256 . S
O229 Cd221 2.381 . S
O229 C228 1.258 . S
O230 Cd221 2.378 . S
O230 C228 1.256 . S
O231 Cd232 2.300 . S
O231 C238 1.275 . S
Cd232 O231 2.300 . S
Cd232 O240 2.381 . S
Cd232 O241 2.378 . S
O233 Cd234 2.385 . S
O233 C238 1.255 . S
Cd234 O233 2.385 . S
Cd234 O235 2.317 . S
O235 Cd234 2.317 . S
O235 C236 1.232 . S
C236 O235 1.232 . S
C236 O237 1.218 . S
O237 C236 1.218 . S
C238 O231 1.275 . S
C238 O233 1.255 . S
C239 O240 1.258 . S
C239 O241 1.256 . S
O240 Cd232 2.381 . S
O240 C239 1.258 . S
O241 Cd232 2.378 . S
O241 C239 1.256 . S
O242 Cd243 2.300 1_554 S
O242 C249 1.275 . S
Cd243 O242 2.300 1_556 S
Cd243 O251 2.381 . S
Cd243 O252 2.378 . S
O244 Cd245 2.385 . S
O244 C249 1.255 . S
Cd245 O244 2.385 . S
Cd245 O246 2.322 . S
O246 Cd245 2.322 . S
O246 C247 1.250 . S
C247 O246 1.250 . S
C247 O248 1.218 . S
O248 C247 1.218 . S
C249 O242 1.275 . S
C249 O244 1.255 . S
C250 O251 1.258 . S
C250 O252 1.256 . S
O251 Cd243 2.381 . S
O251 C250 1.258 . S
O252 Cd243 2.378 . S
O252 C250 1.256 . S
O253 Cd254 2.300 . S
O253 C260 1.275 . S
Cd254 O253 2.300 . S
Cd254 O262 2.381 . S
Cd254 O263 2.378 . S
O255 Cd256 2.385 . S
O255 C260 1.255 . S
Cd256 O255 2.385 . S
Cd256 O257 2.317 . S
O257 Cd256 2.317 . S
O257 C258 1.232 . S
C258 O257 1.232 . S
C258 O259 1.218 . S
O259 C258 1.218 . S
C260 O253 1.275 . S
C260 O255 1.255 . S
C261 O262 1.258 . S
C261 O263 1.256 . S
O262 Cd254 2.381 . S
O262 C261 1.258 . S
O263 Cd254 2.378 . S
O263 C261 1.256 . S
C264 C265 1.387 . S
C264 H268 0.950 . S
C264 C273 1.390 . S
C265 C264 1.387 . S
C265 C267 1.387 . S
H266 C273 0.950 . S
C267 C265 1.387 . S
C267 C269 1.390 . S
C267 H271 0.950 . S
H268 C264 0.950 . S
C269 C267 1.390 . S
C269 C270 1.387 . S
C269 H272 0.950 . S
C270 C269 1.387 . S
C270 C273 1.387 . S
H271 C267 0.950 . S
H272 C269 0.950 . S
C273 C264 1.390 . S
C273 H266 0.950 . S
C273 C270 1.387 . S
C274 C275 1.387 . S
C274 H278 0.950 . S
C274 C283 1.390 . S
C275 C274 1.387 . S
C275 C277 1.387 . S
H276 C283 0.950 . S
C277 C275 1.387 . S
C277 C279 1.390 . S
C277 H281 0.950 . S
H278 C274 0.950 . S
C279 C277 1.390 . S
C279 C280 1.387 . S
C279 H282 0.950 . S
C280 C279 1.387 . S
C280 C283 1.387 . S
H281 C277 0.950 . S
H282 C279 0.950 . S
C283 C274 1.390 . S
C283 H276 0.950 . S
C283 C280 1.387 . S
C284 C285 1.387 . S
C284 H288 0.950 . S
C284 C293 1.390 . S
C285 C284 1.387 . S
C285 C287 1.387 . S
H286 C293 0.950 . S
C287 C285 1.387 . S
C287 C289 1.390 . S
C287 H291 0.950 . S
H288 C284 0.950 . S
C289 C287 1.390 . S
C289 C290 1.387 . S
C289 H292 0.950 . S
C290 C289 1.387 . S
C290 C293 1.387 . S
H291 C287 0.950 . S
H292 C289 0.950 . S
C293 C284 1.390 . S
C293 H286 0.950 . S
C293 C290 1.387 . S
C294 C295 1.387 . S
C294 H298 0.950 . S
C294 C303 1.390 . S
C295 C294 1.387 . S
C295 C297 1.387 . S
H296 C303 0.950 . S
C297 C295 1.387 . S
C297 C299 1.390 . S
C297 H301 0.950 . S
H298 C294 0.950 . S
C299 C297 1.390 . S
C299 C300 1.387 . S
C299 H302 0.950 . S
C300 C299 1.387 . S
C300 C303 1.387 . S
H301 C297 0.950 . S
H302 C299 0.950 . S
C303 C294 1.390 . S
C303 H296 0.950 . S
C303 C300 1.387 . S
C304 C305 1.387 . S
C304 H308 0.950 . S
C304 C313 1.390 . S
C305 C304 1.387 . S
C305 C307 1.387 . S
H306 C313 0.950 . S
C307 C305 1.387 . S
C307 C309 1.390 . S
C307 H311 0.950 . S
H308 C304 0.950 . S
C309 C307 1.390 . S
C309 C310 1.387 . S
C309 H312 0.950 . S
C310 C309 1.387 . S
C310 C313 1.387 . S
H311 C307 0.950 . S
H312 C309 0.950 . S
C313 C304 1.390 . S
C313 H306 0.950 . S
C313 C310 1.387 . S
C314 C315 1.387 . S
C314 H318 0.950 . S
C314 C323 1.390 . S
C315 C314 1.387 . S
C315 C317 1.387 . S
H316 C323 0.950 . S
C317 C315 1.387 . S
C317 C319 1.390 . S
C317 H321 0.950 . S
H318 C314 0.950 . S
C319 C317 1.390 . S
C319 C320 1.387 . S
C319 H322 0.950 . S
C320 C319 1.387 . S
C320 C323 1.387 . S
H321 C317 0.950 . S
H322 C319 0.950 . S
C323 C314 1.390 . S
C323 H316 0.950 . S
C323 C320 1.387 . S
C324 C325 1.387 . S
C324 H328 0.950 . S
C324 C333 1.390 . S
C325 C324 1.387 . S
C325 C327 1.387 . S
H326 C333 0.950 . S
C327 C325 1.387 . S
C327 C329 1.390 . S
C327 H331 0.950 . S
H328 C324 0.950 . S
C329 C327 1.390 . S
C329 C330 1.387 . S
C329 H332 0.950 . S
C330 C329 1.387 . S
C330 C333 1.387 . S
H331 C327 0.950 . S
H332 C329 0.950 . S
C333 C324 1.390 . S
C333 H326 0.950 . S
C333 C330 1.387 . S
C334 C335 1.387 . S
C334 H338 0.950 . S
C334 C343 1.390 . S
C335 C334 1.387 . S
C335 C337 1.387 . S
H336 C343 0.950 . S
C337 C335 1.387 . S
C337 C339 1.390 . S
C337 H341 0.950 . S
H338 C334 0.950 . S
C339 C337 1.390 . S
C339 C340 1.387 . S
C339 H342 0.950 . S
C340 C339 1.387 . S
C340 C343 1.387 . S
H341 C337 0.950 . S
H342 C339 0.950 . S
C343 C334 1.390 . S
C343 H336 0.950 . S
C343 C340 1.387 . S
C344 C345 1.387 . S
C344 H348 0.950 . S
C344 C353 1.390 . S
C345 C344 1.387 . S
C345 C347 1.387 . S
H346 C353 0.950 . S
C347 C345 1.387 . S
C347 C349 1.390 . S
C347 H351 0.950 . S
H348 C344 0.950 . S
C349 C347 1.390 . S
C349 C350 1.387 . S
C349 H352 0.950 . S
C350 C349 1.387 . S
C350 C353 1.387 . S
H351 C347 0.950 . S
H352 C349 0.950 . S
C353 C344 1.390 . S
C353 H346 0.950 . S
C353 C350 1.387 . S
C354 C355 1.387 . S
C354 H358 0.950 . S
C354 C363 1.390 . S
C355 C354 1.387 . S
C355 C357 1.387 . S
H356 C363 0.950 . S
C357 C355 1.387 . S
C357 C359 1.390 . S
C357 H361 0.950 . S
H358 C354 0.950 . S
C359 C357 1.390 . S
C359 C360 1.387 . S
C359 H362 0.950 . S
C360 C359 1.387 . S
C360 C363 1.387 . S
H361 C357 0.950 . S
H362 C359 0.950 . S
C363 C354 1.390 . S
C363 H356 0.950 . S
C363 C360 1.387 . S
C364 C365 1.387 . S
C364 H368 0.950 . S
C364 C373 1.390 . S
C365 C364 1.387 . S
C365 C367 1.387 . S
H366 C373 0.950 . S
C367 C365 1.387 . S
C367 C369 1.390 . S
C367 H371 0.950 . S
H368 C364 0.950 . S
C369 C367 1.390 . S
C369 C370 1.387 . S
C369 H372 0.950 . S
C370 C369 1.387 . S
C370 C373 1.387 . S
H371 C367 0.950 . S
H372 C369 0.950 . S
C373 C364 1.390 . S
C373 H366 0.950 . S
C373 C370 1.387 . S
C374 C375 1.387 . S
C374 H378 0.950 . S
C374 C383 1.390 . S
C375 C374 1.387 . S
C375 C377 1.387 . S
H376 C383 0.950 . S
C377 C375 1.387 . S
C377 C379 1.390 . S
C377 H381 0.950 . S
H378 C374 0.950 . S
C379 C377 1.390 . S
C379 C380 1.387 . S
C379 H382 0.950 . S
C380 C379 1.387 . S
C380 C383 1.387 . S
H381 C377 0.950 . S
H382 C379 0.950 . S
C383 C374 1.390 . S
C383 H376 0.950 . S
C383 C380 1.387 . S
C384 C385 1.387 . S
C384 H388 0.950 . S
C384 C393 1.390 . S
C385 C384 1.387 . S
C385 C387 1.387 . S
H386 C393 0.950 . S
C387 C385 1.387 . S
C387 C389 1.390 . S
C387 H391 0.950 . S
H388 C384 0.950 . S
C389 C387 1.390 . S
C389 C390 1.387 . S
C389 H392 0.950 . S
C390 C389 1.387 . S
C390 C393 1.387 . S
H391 C387 0.950 . S
H392 C389 0.950 . S
C393 C384 1.390 . S
C393 H386 0.950 . S
C393 C390 1.387 . S
C394 C395 1.387 . S
C394 H398 0.950 . S
C394 C403 1.390 . S
C395 C394 1.387 . S
C395 C397 1.387 . S
H396 C403 0.950 . S
C397 C395 1.387 . S
C397 C399 1.390 . S
C397 H401 0.950 . S
H398 C394 0.950 . S
C399 C397 1.390 . S
C399 C400 1.387 . S
C399 H402 0.950 . S
C400 C399 1.387 . S
C400 C403 1.387 . S
H401 C397 0.950 . S
H402 C399 0.950 . S
C403 C394 1.390 . S
C403 H396 0.950 . S
C403 C400 1.387 . S
C404 C405 1.387 . S
C404 H408 0.950 . S
C404 C413 1.390 . S
C405 C404 1.387 . S
C405 C407 1.387 . S
H406 C413 0.950 . S
C407 C405 1.387 . S
C407 C409 1.390 . S
C407 H411 0.950 . S
H408 C404 0.950 . S
C409 C407 1.390 . S
C409 C410 1.387 . S
C409 H412 0.950 . S
C410 C409 1.387 . S
C410 C413 1.387 . S
H411 C407 0.950 . S
H412 C409 0.950 . S
C413 C404 1.390 . S
C413 H406 0.950 . S
C413 C410 1.387 . S
C414 C415 1.387 . S
C414 H418 0.950 . S
C414 C423 1.390 . S
C415 C414 1.387 . S
C415 C417 1.387 . S
H416 C423 0.950 . S
C417 C415 1.387 . S
C417 C419 1.390 . S
C417 H421 0.950 . S
H418 C414 0.950 . S
C419 C417 1.390 . S
C419 C420 1.387 . S
C419 H422 0.950 . S
C420 C419 1.387 . S
C420 C423 1.387 . S
H421 C417 0.950 . S
H422 C419 0.950 . S
C423 C414 1.390 . S
C423 H416 0.950 . S
C423 C420 1.387 . S
C424 C425 1.387 . S
C424 H428 0.950 . S
C424 C433 1.390 . S
C425 C424 1.387 . S
C425 C427 1.387 . S
H426 C433 0.950 . S
C427 C425 1.387 . S
C427 C429 1.390 . S
C427 H431 0.950 . S
H428 C424 0.950 . S
C429 C427 1.390 . S
C429 C430 1.387 . S
C429 H432 0.950 . S
C430 C429 1.387 . S
C430 C433 1.387 . S
H431 C427 0.950 . S
H432 C429 0.950 . S
C433 C424 1.390 . S
C433 H426 0.950 . S
C433 C430 1.387 . S
C434 C435 1.387 . S
C434 H438 0.950 . S
C434 C443 1.390 . S
C435 C434 1.387 . S
C435 C437 1.387 . S
H436 C443 0.950 . S
C437 C435 1.387 . S
C437 C439 1.390 . S
C437 H441 0.950 . S
H438 C434 0.950 . S
C439 C437 1.390 . S
C439 C440 1.387 . S
C439 H442 0.950 . S
C440 C439 1.387 . S
C440 C443 1.387 . S
H441 C437 0.950 . S
H442 C439 0.950 . S
C443 C434 1.390 . S
C443 H436 0.950 . S
C443 C440 1.387 . S
C444 C445 1.387 . S
C444 H448 0.950 . S
C444 C453 1.390 . S
C445 C444 1.387 . S
C445 C447 1.387 . S
H446 C453 0.950 . S
C447 C445 1.387 . S
C447 C449 1.390 . S
C447 H451 0.950 . S
H448 C444 0.950 . S
C449 C447 1.390 . S
C449 C450 1.387 . S
C449 H452 0.950 . S
C450 C449 1.387 . S
C450 C453 1.387 . S
H451 C447 0.950 . S
H452 C449 0.950 . S
C453 C444 1.390 . S
C453 H446 0.950 . S
C453 C450 1.387 . S
C454 C455 1.387 . S
C454 H458 0.950 . S
C454 C463 1.390 . S
C455 C454 1.387 . S
C455 C457 1.387 . S
H456 C463 0.950 . S
C457 C455 1.387 . S
C457 C459 1.390 . S
C457 H461 0.950 . S
H458 C454 0.950 . S
C459 C457 1.390 . S
C459 C460 1.387 . S
C459 H462 0.950 . S
C460 C459 1.387 . S
C460 C463 1.387 . S
H461 C457 0.950 . S
H462 C459 0.950 . S
C463 C454 1.390 . S
C463 H456 0.950 . S
C463 C460 1.387 . S
C464 C465 1.387 . S
C464 H468 0.950 . S
C464 C473 1.390 . S
C465 C464 1.387 . S
C465 C467 1.387 . S
H466 C473 0.950 . S
C467 C465 1.387 . S
C467 C469 1.390 . S
C467 H471 0.950 . S
H468 C464 0.950 . S
C469 C467 1.390 . S
C469 C470 1.387 . S
C469 H472 0.950 . S
C470 C469 1.387 . S
C470 C473 1.387 . S
H471 C467 0.950 . S
H472 C469 0.950 . S
C473 C464 1.390 . S
C473 H466 0.950 . S
C473 C470 1.387 . S
C474 C475 1.387 . S
C474 H478 0.950 . S
C474 C483 1.390 . S
C475 C474 1.387 . S
C475 C477 1.387 . S
H476 C483 0.950 . S
C477 C475 1.387 . S
C477 C479 1.390 . S
C477 H481 0.950 . S
H478 C474 0.950 . S
C479 C477 1.390 . S
C479 C480 1.387 . S
C479 H482 0.950 . S
C480 C479 1.387 . S
C480 C483 1.387 . S
H481 C477 0.950 . S
H482 C479 0.950 . S
C483 C474 1.390 . S
C483 H476 0.950 . S
C483 C480 1.387 . S
C484 C485 1.387 . S
C484 H488 0.950 . S
C484 C493 1.390 . S
C485 C484 1.387 . S
C485 C487 1.387 . S
H486 C493 0.950 . S
C487 C485 1.387 . S
C487 C489 1.390 . S
C487 H491 0.950 . S
H488 C484 0.950 . S
C489 C487 1.390 . S
C489 C490 1.387 . S
C489 H492 0.950 . S
C490 C489 1.387 . S
C490 C493 1.387 . S
H491 C487 0.950 . S
H492 C489 0.950 . S
C493 C484 1.390 . S
C493 H486 0.950 . S
C493 C490 1.387 . S
C494 C495 1.387 . S
C494 H498 0.950 . S
C494 C503 1.390 . S
C495 C494 1.387 . S
C495 C497 1.387 . S
H496 C503 0.950 . S
C497 C495 1.387 . S
C497 C499 1.390 . S
C497 H501 0.950 . S
H498 C494 0.950 . S
C499 C497 1.390 . S
C499 C500 1.387 . S
C499 H502 0.950 . S
C500 C499 1.387 . S
C500 C503 1.387 . S
H501 C497 0.950 . S
H502 C499 0.950 . S
C503 C494 1.390 . S
C503 H496 0.950 . S
C503 C500 1.387 . S
C504 C505 1.387 . S
C504 H508 0.950 . S
C504 C513 1.390 . S
C505 C504 1.387 . S
C505 C507 1.387 . S
H506 C513 0.950 1_655 S
C507 C505 1.387 . S
C507 C509 1.390 . S
C507 H511 0.950 . S
H508 C504 0.950 . S
C509 C507 1.390 . S
C509 C510 1.387 . S
C509 H512 0.950 . S
C510 C509 1.387 . S
C510 C513 1.387 . S
H511 C507 0.950 . S
H512 C509 0.950 . S
C513 C504 1.390 . S
C513 H506 0.950 1_455 S
C513 C510 1.387 . S
C514 C515 1.387 . S
C514 H518 0.950 . S
C514 C523 1.390 . S
C515 C514 1.387 . S
C515 C517 1.387 . S
H516 C523 0.950 . S
C517 C515 1.387 . S
C517 C519 1.390 . S
C517 H521 0.950 . S
H518 C514 0.950 . S
C519 C517 1.390 . S
C519 C520 1.387 1_455 S
C519 H522 0.938 1_455 S
C520 C519 1.387 1_655 S
C520 C523 1.387 1_655 S
H521 C517 0.950 . S
H522 C519 0.938 1_655 S
C523 C514 1.390 . S
C523 H516 0.950 . S
C523 C520 1.387 1_455 S
C524 C525 1.387 . S
C524 H528 0.950 . S
C524 C533 1.390 . S
C525 C524 1.387 . S
C525 C527 1.387 . S
H526 C533 0.950 . S
C527 C525 1.387 . S
C527 C529 1.390 . S
C527 H531 0.950 . S
H528 C524 0.950 . S
C529 C527 1.390 . S
C529 C530 1.387 . S
C529 H532 0.950 . S
C530 C529 1.387 . S
C530 C533 1.387 . S
H531 C527 0.950 . S
H532 C529 0.950 . S
C533 C524 1.390 . S
C533 H526 0.950 . S
C533 C530 1.387 . S
C534 C535 1.387 . S
C534 H538 0.950 . S
C534 C543 1.390 . S
C535 C534 1.387 . S
C535 C537 1.387 . S
H536 C543 0.950 . S
C537 C535 1.387 . S
C537 C539 1.390 . S
C537 H541 0.950 . S
H538 C534 0.950 . S
C539 C537 1.390 . S
C539 C540 1.387 . S
C539 H542 0.950 . S
C540 C539 1.387 . S
C540 C543 1.387 . S
H541 C537 0.950 . S
H542 C539 0.950 . S
C543 C534 1.390 . S
C543 H536 0.950 . S
C543 C540 1.387 . S
C544 C545 1.387 . S
C544 H548 0.950 . S
C544 C553 1.390 1_565 S
C545 C544 1.387 . S
C545 C547 1.387 . S
H546 C553 0.950 . S
C547 C545 1.387 . S
C547 C549 1.390 1_565 S
C547 H551 0.950 . S
H548 C544 0.950 . S
C549 C547 1.390 1_545 S
C549 C550 1.387 . S
C549 H552 0.950 . S
C550 C549 1.387 . S
C550 C553 1.387 . S
H551 C547 0.950 . S
H552 C549 0.950 . S
C553 C544 1.390 1_545 S
C553 H546 0.950 . S
C553 C550 1.387 . S
C554 C555 1.387 . S
C554 H558 0.950 . S
C554 C563 1.390 . S
C555 C554 1.387 . S
C555 C557 1.387 . S
H556 C563 0.950 . S
C557 C555 1.387 . S
C557 C559 1.390 . S
C557 H561 0.950 . S
H558 C554 0.950 . S
C559 C557 1.390 . S
C559 C560 1.387 . S
C559 H562 0.950 . S
C560 C559 1.387 . S
C560 C563 1.387 . S
H561 C557 0.950 . S
H562 C559 0.950 . S
C563 C554 1.390 . S
C563 H556 0.950 . S
C563 C560 1.387 . S
C564 C565 1.387 1_565 S
C564 H568 0.950 1_565 S
C564 C573 1.390 . S
C565 C564 1.387 1_545 S
C565 C567 1.383 1_545 S
H566 C573 0.950 . S
C567 C565 1.383 1_565 S
C567 C569 1.390 . S
C567 H571 0.950 . S
H568 C564 0.950 1_545 S
C569 C567 1.390 . S
C569 C570 1.387 . S
C569 H572 0.950 . S
C570 C569 1.387 . S
C570 C573 1.387 . S
H571 C567 0.950 . S
H572 C569 0.950 . S
C573 C564 1.390 . S
C573 H566 0.950 . S
C573 C570 1.387 . S
C574 C575 1.387 . S
C574 H578 0.950 . S
C574 C583 1.390 . S
C575 C574 1.387 . S
C575 C577 1.387 . S
H576 C583 0.950 . S
C577 C575 1.387 . S
C577 C579 1.390 . S
C577 H581 0.950 . S
H578 C574 0.950 . S
C579 C577 1.390 . S
C579 C580 1.387 . S
C579 H582 0.950 . S
C580 C579 1.387 . S
C580 C583 1.387 . S
H581 C577 0.950 . S
H582 C579 0.950 . S
C583 C574 1.390 . S
C583 H576 0.950 . S
C583 C580 1.387 . S
C584 C585 1.387 . S
C584 H588 0.950 . S
C584 C593 1.390 . S
C585 C584 1.387 . S
C585 C587 1.387 . S
H586 C593 0.950 . S
C587 C585 1.387 . S
C587 C589 1.390 . S
C587 H591 0.950 . S
H588 C584 0.950 . S
C589 C587 1.390 . S
C589 C590 1.387 . S
C589 H592 0.950 . S
C590 C589 1.387 . S
C590 C593 1.387 . S
H591 C587 0.950 . S
H592 C589 0.950 . S
C593 C584 1.390 . S
C593 H586 0.950 . S
C593 C590 1.387 . S
C594 C595 1.387 . S
C594 H598 0.950 . S
C594 C603 1.390 . S
C595 C594 1.387 . S
C595 C597 1.387 . S
H596 C603 0.950 . S
C597 C595 1.387 . S
C597 C599 1.390 . S
C597 H601 0.950 . S
H598 C594 0.950 . S
C599 C597 1.390 . S
C599 C600 1.387 . S
C599 H602 0.950 . S
C600 C599 1.387 . S
C600 C603 1.387 . S
H601 C597 0.950 . S
H602 C599 0.950 . S
C603 C594 1.390 . S
C603 H596 0.950 . S
C603 C600 1.387 . S
C604 C605 1.387 . S
C604 H608 0.950 . S
C604 C613 1.390 . S
C605 C604 1.387 . S
C605 C607 1.387 . S
H606 C613 0.950 . S
C607 C605 1.387 . S
C607 C609 1.390 . S
C607 H611 0.950 . S
H608 C604 0.950 . S
C609 C607 1.390 . S
C609 C610 1.387 . S
C609 H612 0.950 . S
C610 C609 1.387 . S
C610 C613 1.387 . S
H611 C607 0.950 . S
H612 C609 0.950 . S
C613 C604 1.390 . S
C613 H606 0.950 . S
C613 C610 1.387 . S
C614 C615 1.387 . S
C614 H618 0.950 . S
C614 C623 1.390 . S
C615 C614 1.387 . S
C615 C617 1.387 . S
H616 C623 0.950 . S
C617 C615 1.387 . S
C617 C619 1.390 . S
C617 H621 0.950 . S
H618 C614 0.950 . S
C619 C617 1.390 . S
C619 C620 1.387 . S
C619 H622 0.950 . S
C620 C619 1.387 . S
C620 C623 1.387 . S
H621 C617 0.950 . S
H622 C619 0.950 . S
C623 C614 1.390 . S
C623 H616 0.950 . S
C623 C620 1.387 . S
C265 C49 1.165 . S
C270 C5 0.988 . S
C275 C60 1.332 . S
C280 C18 1.294 . S
C285 C29 1.369 . S
C290 C73 1.371 . S
C295 C38 1.039 . S
C300 C84 1.331 . S
C305 C16 1.018 . S
C310 C93 1.203 . S
C315 C104 1.190 . S
C320 C27 1.082 . S
C325 C40 1.402 . S
C330 C117 1.404 . S
C335 C126 0.974 . S
C340 C7 1.304 . S
C345 C51 1.377 . S
C350 C128 1.307 . S
C355 C95 1.476 . S
C360 C62 1.470 . S
C365 C71 0.940 . S
C370 C106 1.423 . S
C375 C82 0.952 . S
C380 C115 1.059 . S
C385 C137 0.926 . S
C390 C205 1.399 . S
C395 C216 1.385 . S
C400 C150 1.377 . S
C405 C225 1.025 . S
C410 C161 1.294 . S
C415 C172 1.382 . S
C420 C227 1.396 . S
C425 C181 1.423 . S
C430 C203 1.334 . S
C435 C236 1.263 . S
C440 C192 1.017 . S
C445 C214 1.084 . S
C450 C247 1.237 . S
C455 C194 1.281 . S
C460 C258 1.032 . S
C465 C238 1.441 . S
C470 C260 1.384 . S
C475 C139 1.400 . S
C480 C183 1.464 . S
C485 C249 1.493 . S
C490 C148 0.967 . S
C495 C170 1.047 . S
C500 C159 0.980 . S
C505 C8 1.579 . S
C510 C217 1.575 . S
C515 C19 1.565 . S
C520 C228 1.582 . S
C525 C195 1.591 . S
C530 C30 1.605 . S
C535 C41 1.620 . S
C540 C206 1.705 . S
C545 C96 1.636 . S
C550 C52 1.636 . S
C555 C63 1.661 . S
C560 C107 1.651 . S
C565 C118 1.612 . S
C570 C74 1.622 . S
C575 C129 1.670 . S
C580 C85 1.648 . S
C585 C140 1.635 . S
C590 C250 1.721 . S
C595 C151 1.634 . S
C600 C173 1.619 . S
C605 C261 1.629 . S
C610 C162 1.607 . S
C615 C239 1.801 . S
C620 C184 1.797 . S
