# Generated by pormake.
# Topology whr, (6)-cn, num edge types: 1
# Building blocks:
#     Node 0, Type 0, BuildingBlock: VOLQOD_clean_sbu_1, # of connection points: 6
#     Node 1, Type 0, BuildingBlock: VOLQOD_clean_sbu_1, # of connection points: 6
#     Node 2, Type 0, BuildingBlock: VOLQOD_clean_sbu_1, # of connection points: 6
#     Node 3, Type 0, BuildingBlock: VOLQOD_clean_sbu_1, # of connection points: 6
#     Node 4, Type 0, BuildingBlock: VOLQOD_clean_sbu_1, # of connection points: 6
#     Node 5, Type 0, BuildingBlock: VOLQOD_clean_sbu_1, # of connection points: 6
#     Node 6, Type 0, BuildingBlock: VOLQOD_clean_sbu_1, # of connection points: 6
#     Node 7, Type 0, BuildingBlock: VOLQOD_clean_sbu_1, # of connection points: 6
#     Node 8, Type 0, BuildingBlock: VOLQOD_clean_sbu_1, # of connection points: 6
#     Node 9, Type 0, BuildingBlock: VOLQOD_clean_sbu_1, # of connection points: 6
#     Node 10, Type 0, BuildingBlock: VOLQOD_clean_sbu_1, # of connection points: 6
#     Node 11, Type 0, BuildingBlock: VOLQOD_clean_sbu_1, # of connection points: 6
#     Node 12, Type 0, BuildingBlock: VOLQOD_clean_sbu_1, # of connection points: 6
#     Node 13, Type 0, BuildingBlock: VOLQOD_clean_sbu_1, # of connection points: 6
#     Node 14, Type 0, BuildingBlock: VOLQOD_clean_sbu_1, # of connection points: 6
#     Node 15, Type 0, BuildingBlock: VOLQOD_clean_sbu_1, # of connection points: 6
#     Edge 16, Type (0, 0), BuildingBlock: UVAHIK_clean_linker_0, # of connection points: 2
#     Edge 17, Type (0, 0), BuildingBlock: UVAHIK_clean_linker_0, # of connection points: 2
#     Edge 18, Type (0, 0), BuildingBlock: UVAHIK_clean_linker_0, # of connection points: 2
#     Edge 19, Type (0, 0), BuildingBlock: UVAHIK_clean_linker_0, # of connection points: 2
#     Edge 20, Type (0, 0), BuildingBlock: UVAHIK_clean_linker_0, # of connection points: 2
#     Edge 21, Type (0, 0), BuildingBlock: UVAHIK_clean_linker_0, # of connection points: 2
#     Edge 22, Type (0, 0), BuildingBlock: UVAHIK_clean_linker_0, # of connection points: 2
#     Edge 23, Type (0, 0), BuildingBlock: UVAHIK_clean_linker_0, # of connection points: 2
#     Edge 24, Type (0, 0), BuildingBlock: UVAHIK_clean_linker_0, # of connection points: 2
#     Edge 25, Type (0, 0), BuildingBlock: UVAHIK_clean_linker_0, # of connection points: 2
#     Edge 26, Type (0, 0), BuildingBlock: UVAHIK_clean_linker_0, # of connection points: 2
#     Edge 27, Type (0, 0), BuildingBlock: UVAHIK_clean_linker_0, # of connection points: 2
#     Edge 28, Type (0, 0), BuildingBlock: UVAHIK_clean_linker_0, # of connection points: 2
#     Edge 29, Type (0, 0), BuildingBlock: UVAHIK_clean_linker_0, # of connection points: 2
#     Edge 30, Type (0, 0), BuildingBlock: UVAHIK_clean_linker_0, # of connection points: 2
#     Edge 31, Type (0, 0), BuildingBlock: UVAHIK_clean_linker_0, # of connection points: 2
#     Edge 32, Type (0, 0), BuildingBlock: UVAHIK_clean_linker_0, # of connection points: 2
#     Edge 33, Type (0, 0), BuildingBlock: UVAHIK_clean_linker_0, # of connection points: 2
#     Edge 34, Type (0, 0), BuildingBlock: UVAHIK_clean_linker_0, # of connection points: 2
#     Edge 35, Type (0, 0), BuildingBlock: UVAHIK_clean_linker_0, # of connection points: 2
#     Edge 36, Type (0, 0), BuildingBlock: UVAHIK_clean_linker_0, # of connection points: 2
#     Edge 37, Type (0, 0), BuildingBlock: UVAHIK_clean_linker_0, # of connection points: 2
#     Edge 38, Type (0, 0), BuildingBlock: UVAHIK_clean_linker_0, # of connection points: 2
#     Edge 39, Type (0, 0), BuildingBlock: UVAHIK_clean_linker_0, # of connection points: 2
#     Edge 40, Type (0, 0), BuildingBlock: UVAHIK_clean_linker_0, # of connection points: 2
#     Edge 41, Type (0, 0), BuildingBlock: UVAHIK_clean_linker_0, # of connection points: 2
#     Edge 42, Type (0, 0), BuildingBlock: UVAHIK_clean_linker_0, # of connection points: 2
#     Edge 43, Type (0, 0), BuildingBlock: UVAHIK_clean_linker_0, # of connection points: 2
#     Edge 44, Type (0, 0), BuildingBlock: UVAHIK_clean_linker_0, # of connection points: 2
#     Edge 45, Type (0, 0), BuildingBlock: UVAHIK_clean_linker_0, # of connection points: 2
#     Edge 46, Type (0, 0), BuildingBlock: UVAHIK_clean_linker_0, # of connection points: 2
#     Edge 47, Type (0, 0), BuildingBlock: UVAHIK_clean_linker_0, # of connection points: 2
#     Edge 48, Type (0, 0), BuildingBlock: UVAHIK_clean_linker_0, # of connection points: 2
#     Edge 49, Type (0, 0), BuildingBlock: UVAHIK_clean_linker_0, # of connection points: 2
#     Edge 50, Type (0, 0), BuildingBlock: UVAHIK_clean_linker_0, # of connection points: 2
#     Edge 51, Type (0, 0), BuildingBlock: UVAHIK_clean_linker_0, # of connection points: 2
#     Edge 52, Type (0, 0), BuildingBlock: UVAHIK_clean_linker_0, # of connection points: 2
#     Edge 53, Type (0, 0), BuildingBlock: UVAHIK_clean_linker_0, # of connection points: 2
#     Edge 54, Type (0, 0), BuildingBlock: UVAHIK_clean_linker_0, # of connection points: 2
#     Edge 55, Type (0, 0), BuildingBlock: UVAHIK_clean_linker_0, # of connection points: 2
#     Edge 56, Type (0, 0), BuildingBlock: UVAHIK_clean_linker_0, # of connection points: 2
#     Edge 57, Type (0, 0), BuildingBlock: UVAHIK_clean_linker_0, # of connection points: 2
#     Edge 58, Type (0, 0), BuildingBlock: UVAHIK_clean_linker_0, # of connection points: 2
#     Edge 59, Type (0, 0), BuildingBlock: UVAHIK_clean_linker_0, # of connection points: 2
#     Edge 60, Type (0, 0), BuildingBlock: UVAHIK_clean_linker_0, # of connection points: 2
#     Edge 61, Type (0, 0), BuildingBlock: UVAHIK_clean_linker_0, # of connection points: 2
#     Edge 62, Type (0, 0), BuildingBlock: UVAHIK_clean_linker_0, # of connection points: 2
#     Edge 63, Type (0, 0), BuildingBlock: UVAHIK_clean_linker_0, # of connection points: 2
# Relax obj value: 0.383
# Max RMSD: 0.249
# Mean RMSD: 0.247
data_MOF--net-whr--node1-VOLQOD_clean_sbu_1--edge1-UVAHIK_clean_linker_0
_symmetry_space_group_name_H-M    P1
_symmetry_Int_Tables_number       1
_symmetry_cell_setting            triclinic
loop_
_symmetry_equiv_pos_as_xyz
'x, y, z'
_cell_length_a     64.563541
_cell_length_b     64.576294
_cell_length_c     36.804461
_cell_angle_alpha  90.027672
_cell_angle_beta   89.968105
_cell_angle_gamma 90.061213
loop_
_atom_site_label
_atom_site_type_symbol
_atom_site_fract_x
_atom_site_fract_y
_atom_site_fract_z
_atom_type_partial_charge
O0 O 0.18126 0.05958 0.09799 0.0
Zn1 Zn 0.19069 0.04596 0.05205 0.0
O2 O 0.22005 0.05028 0.04336 0.0
Zn3 Zn 0.23418 0.02326 0.0396 0.0
Zn4 Zn 0.23132 0.0668 0.08298 0.0
Zn5 Zn 0.22338 0.06614 -0.00093 0.0
O6 O 0.2497 0.02099 0.9911 0.0
O7 O 0.23944 0.04977 0.96314 0.0
O8 O 0.18381 0.01599 0.05495 0.0
O9 O 0.21316 -0.00035 0.04184 0.0
O10 O 0.2534 0.01938 0.08335 0.0
O11 O 0.24986 0.04922 0.1129 0.0
O12 O 0.24758 0.09146 0.06577 0.0
O13 O 0.1734 0.05888 0.01286 0.0
O14 O 0.2399 0.09181 0.00717 0.0
O15 O 0.19617 0.07498 0.97765 0.0
C16 C 0.18984 0.07246 0.11935 0.0
C17 C 0.24955 0.03288 0.96333 0.0
C18 C 0.25751 0.03113 0.11038 0.0
C19 C 0.19389 -0.00064 0.04956 0.0
C20 C 0.24888 0.09976 0.03454 0.0
C21 C 0.17756 0.07052 0.98592 0.0
O22 O 0.20881 0.07744 0.11575 0.0
O23 O 0.05239 0.81123 0.8781 0.0
Zn24 Zn 0.03993 0.8055 0.92678 0.0
O25 O 0.04358 0.77688 0.94108 0.0
Zn26 Zn 0.01635 0.76364 0.94799 0.0
Zn27 Zn 0.05914 0.76286 0.9034 0.0
Zn28 Zn 0.06009 0.77592 0.98512 0.0
O29 O 0.01516 0.74973 0.99799 0.0
O30 O 0.04386 0.76197 0.02393 0.0
O31 O 0.01006 0.81327 0.92581 0.0
O32 O 0.99343 0.78524 0.94532 0.0
O33 O 0.01078 0.74303 0.90666 0.0
O34 O 0.04075 0.74359 0.87685 0.0
O35 O 0.08234 0.74601 0.92325 0.0
O36 O 0.05494 0.82466 0.96078 0.0
O37 O 0.08515 0.75794 0.97944 0.0
O38 O 0.06987 0.80411 0.00124 0.0
C39 C 0.06551 0.80134 0.85906 0.0
C40 C 0.02723 0.75138 0.02537 0.0
C41 C 0.02233 0.73696 0.88056 0.0
C42 C 0.99339 0.80404 0.93464 0.0
C43 C 0.09142 0.74632 0.95384 0.0
C44 C 0.06647 0.8221 0.98845 0.0
O45 O 0.07079 0.78292 0.86707 0.0
O46 O 0.81032 0.94063 0.1146 0.0
Zn47 Zn 0.80256 0.95432 0.06785 0.0
O48 O 0.77343 0.95061 0.05664 0.0
Zn49 Zn 0.75976 0.97778 0.05331 0.0
Zn50 Zn 0.76068 0.93392 0.09463 0.0
Zn51 Zn 0.77127 0.93566 0.01102 0.0
O52 O 0.74445 0.98061 0.0048 0.0
O53 O 0.75586 0.95277 0.97532 0.0
O54 O 0.81004 0.98416 0.07038 0.0
O55 O 0.78094 0.00098 0.05763 0.0
O56 O 0.74031 0.98168 0.09623 0.0
O57 O 0.74106 0.95105 0.12384 0.0
O58 O 0.74551 0.9094 0.07469 0.0
O59 O 0.82067 0.94083 0.03062 0.0
O60 O 0.75452 0.90981 0.01658 0.0
O61 O 0.799 0.92701 0.99075 0.0
C62 C 0.80094 0.92759 0.13463 0.0
C63 C 0.74529 0.96939 0.9762 0.0
C64 C 0.73458 0.96962 0.1218 0.0
C65 C 0.8002 0.00097 0.06535 0.0
C66 C 0.74501 0.90148 0.04307 0.0
C67 C 0.81735 0.93027 0.00203 0.0
O68 O 0.78209 0.92283 0.12898 0.0
O69 O 0.93538 0.1729 0.91204 0.0
Zn70 Zn 0.94938 0.18536 0.95562 0.0
O71 O 0.94536 0.21523 0.95776 0.0
Zn72 Zn 0.97228 0.22973 0.95751 0.0
Zn73 Zn 0.92868 0.22393 0.91656 0.0
Zn74 Zn 0.93003 0.22148 0.00167 0.0
O75 O 0.97606 0.24646 0.00449 0.0
O76 O 0.9475 0.23812 0.03502 0.0
O77 O 0.97938 0.17841 0.95326 0.0
O78 O 0.99568 0.20873 0.9542 0.0
O79 O 0.97502 0.24792 0.91225 0.0
O80 O 0.94531 0.24182 0.88373 0.0
O81 O 0.90355 0.24006 0.93139 0.0
O82 O 0.93648 0.17078 0.99814 0.0
O83 O 0.9049 0.23834 0.99142 0.0
O84 O 0.92007 0.19591 0.02732 0.0
C85 C 0.92327 0.18037 0.88818 0.0
C86 C 0.96478 0.24755 0.033 0.0
C87 C 0.963 0.25046 0.88505 0.0
C88 C 0.996 0.189 0.95263 0.0
C89 C 0.89613 0.24442 0.96246 0.0
C90 C 0.92443 0.17685 0.02333 0.0
O91 O 0.91901 0.1996 0.88747 0.0
O92 O 0.73737 0.02325 0.50773 0.0
Zn93 Zn 0.7418 0.03755 0.55616 0.0
O94 O 0.77118 0.04227 0.56555 0.0
Zn95 Zn 0.78002 0.02593 0.60687 0.0
Zn96 Zn 0.78739 0.03491 0.52296 0.0
Zn97 Zn 0.77552 0.07116 0.57714 0.0
O98 O 0.79588 0.04331 0.64324 0.0
O99 O 0.78591 0.07491 0.62754 0.0
O100 O 0.72807 0.02293 0.59862 0.0
O101 O 0.75528 0.01455 0.63268 0.0
O102 O 0.79802 0.00244 0.59115 0.0
O103 O 0.80448 0.00928 0.53304 0.0
O104 O 0.80693 0.05802 0.50803 0.0
O105 O 0.72723 0.06476 0.55114 0.0
O106 O 0.7978 0.08312 0.54593 0.0
O107 O 0.75008 0.08814 0.56982 0.0
C108 C 0.74907 0.02326 0.47977 0.0
C109 C 0.79524 0.06273 0.64916 0.0
C110 C 0.80687 -0.00196 0.56122 0.0
C111 C 0.73585 0.01466 0.62693 0.0
C112 C 0.80904 0.0764 0.52013 0.0
C113 C 0.73215 0.08341 0.55825 0.0
O114 O 0.76802 0.02876 0.48159 0.0
O115 O 0.05162 0.18009 0.38729 0.0
Zn116 Zn 0.03949 0.18797 0.43568 0.0
O117 O 0.04395 0.21701 0.44734 0.0
Zn118 Zn 0.01713 0.23148 0.45067 0.0
Zn119 Zn 0.06104 0.22912 0.40956 0.0
Zn120 Zn 0.05918 0.21893 0.49281 0.0
O121 O 0.01465 0.24624 0.49988 0.0
O122 O 0.04245 0.23437 0.52904 0.0
O123 O 0.00943 0.18081 0.43708 0.0
O124 O 0.99348 0.21069 0.44772 0.0
O125 O 0.01381 0.25155 0.40794 0.0
O126 O 0.04473 0.24964 0.38153 0.0
O127 O 0.08622 0.24334 0.42892 0.0
O128 O 0.05398 0.16977 0.47147 0.0
O129 O 0.0852 0.23544 0.48742 0.0
O130 O 0.06771 0.19101 0.51221 0.0
C131 C 0.06495 0.18923 0.36747 0.0
C132 C 0.02592 0.24508 0.52836 0.0
C133 C 0.0265 0.25701 0.38305 0.0
C134 C 0.99294 0.19119 0.44224 0.0
C135 C 0.09393 0.24425 0.46063 0.0
C136 C 0.0646 0.17281 0.50008 0.0
O137 O 0.07071 0.20767 0.37425 0.0
O138 O 0.18028 0.93565 0.59577 0.0
Zn139 Zn 0.18971 0.95005 0.55054 0.0
O140 O 0.21933 0.94679 0.54278 0.0
Zn141 Zn 0.23285 0.97416 0.53947 0.0
Zn142 Zn 0.23081 0.93078 0.58274 0.0
Zn143 Zn 0.22351 0.93107 0.49857 0.0
O144 O 0.24822 0.97714 0.49091 0.0
O145 O 0.23929 0.94788 0.46297 0.0
O146 O 0.1822 0.97981 0.55487 0.0
O147 O 0.21125 -0.00293 0.54296 0.0
O148 O 0.25218 0.97841 0.58299 0.0
O149 O 0.24915 0.94859 0.61268 0.0
O150 O 0.24707 0.90621 0.56601 0.0
O151 O 0.17302 0.93683 0.51058 0.0
O152 O 0.2405 0.90583 0.50699 0.0
O153 O 0.19676 0.92121 0.47677 0.0
C154 C 0.18929 0.92351 0.61785 0.0
C155 C 0.24872 0.96518 0.46322 0.0
C156 C 0.25653 0.9668 0.61004 0.0
C157 C 0.19198 -0.00325 0.55063 0.0
C158 C 0.24898 0.89795 0.53486 0.0
C159 C 0.17791 0.92508 0.48417 0.0
O160 O 0.20856 0.91975 0.6153 0.0
O161 O 0.94047 0.81048 0.38419 0.0
Zn162 Zn 0.95393 0.8031 0.43139 0.0
O163 O 0.94941 0.77451 0.44489 0.0
Zn164 Zn 0.97623 0.76018 0.4494 0.0
Zn165 Zn 0.93254 0.76175 0.40754 0.0
Zn166 Zn 0.93392 0.77367 0.49015 0.0
O167 O 0.97809 0.74571 0.49894 0.0
O168 O 0.95054 0.7588 0.52716 0.0
O169 O 0.98386 0.80984 0.42944 0.0
O170 O 7e-05 0.78091 0.44535 0.0
O171 O 0.97993 0.74004 0.40705 0.0
O172 O 0.94973 0.7424 0.3784 0.0
O173 O 0.90847 0.74626 0.42808 0.0
O174 O 0.94114 0.8222 0.46746 0.0
O175 O 0.90786 0.75691 0.48532 0.0
O176 O 0.92616 0.80212 0.50861 0.0
C177 C 0.92657 0.8013 0.36573 0.0
C178 C 0.9668 0.74767 0.52731 0.0
C179 C 0.96796 0.73509 0.3808 0.0
C180 C 0.00044 0.8 0.43633 0.0
C181 C 0.90012 0.74646 0.45936 0.0
C182 C 0.93043 0.82003 0.49619 0.0
O183 O 0.92107 0.78286 0.37312 0.0
O184 O 0.68548 0.55285 0.61818 0.0
Zn185 Zn 0.69118 0.53942 0.57037 0.0
O186 O 0.71981 0.54291 0.55555 0.0
Zn187 Zn 0.73319 0.51573 0.55043 0.0
Zn188 Zn 0.73383 0.55995 0.59153 0.0
Zn189 Zn 0.72046 0.55734 0.5096 0.0
O190 O 0.74666 0.51261 0.50018 0.0
O191 O 0.73167 0.53892 0.47136 0.0
O192 O 0.68345 0.50961 0.57317 0.0
O193 O 0.71169 0.49278 0.55535 0.0
O194 O 0.75376 0.5117 0.59175 0.0
O195 O 0.75403 0.54256 0.61883 0.0
O196 O 0.74916 0.58368 0.56893 0.0
O197 O 0.6718 0.55353 0.53567 0.0
O198 O 0.73919 0.58199 0.51141 0.0
O199 O 0.69251 0.56745 0.49433 0.0
C200 C 0.69526 0.56644 0.63639 0.0
C201 C 0.74271 0.52262 0.47106 0.0
C202 C 0.76031 0.52393 0.6165 0.0
C203 C 0.69282 0.49283 0.56569 0.0
C204 C 0.74954 0.59061 0.5366 0.0
C205 C 0.6745 0.56446 0.50731 0.0
O206 O 0.71364 0.57176 0.62792 0.0
O207 O 0.55456 0.309 0.37938 0.0
Zn208 Zn 0.5405 0.303 0.42662 0.0
O209 O 0.54335 0.2742 0.44044 0.0
Zn210 Zn 0.51591 0.26104 0.44375 0.0
Zn211 Zn 0.56018 0.26035 0.40426 0.0
Zn212 Zn 0.55792 0.27272 0.48643 0.0
O213 O 0.51274 0.24642 0.49286 0.0
O214 O 0.54001 0.25877 0.52289 0.0
O215 O 0.51078 0.31108 0.42321 0.0
O216 O 0.49338 0.28294 0.43995 0.0
O217 O 0.5116 0.24127 0.4008 0.0
O218 O 0.54271 0.24149 0.37489 0.0
O219 O 0.58268 0.24342 0.42638 0.0
O220 O 0.55443 0.32173 0.46272 0.0
O221 O 0.58312 0.25478 0.4832 0.0
O222 O 0.56718 0.30063 0.50456 0.0
C223 C 0.56819 0.29912 0.36144 0.0
C224 C 0.52344 0.24808 0.52195 0.0
C225 C 0.52404 0.23527 0.37592 0.0
C226 C 0.4938 0.30189 0.43019 0.0
C227 C 0.59051 0.2435 0.45804 0.0
C228 C 0.56462 0.31877 0.49185 0.0
O229 O 0.57306 0.28061 0.36961 0.0
O230 O 0.30689 0.43787 0.60976 0.0
Zn231 Zn 0.30117 0.45207 0.56278 0.0
O232 O 0.27256 0.44892 0.54799 0.0
Zn233 Zn 0.25982 0.47635 0.54203 0.0
Zn234 Zn 0.25801 0.43279 0.58482 0.0
Zn235 Zn 0.27178 0.43383 0.50257 0.0
O236 O 0.24561 0.47884 0.49256 0.0
O237 O 0.25745 0.45059 0.465 0.0
O238 O 0.3088 0.48173 0.5677 0.0
O239 O 0.2816 0.49908 0.54677 0.0
O240 O 0.23952 0.4813 0.58329 0.0
O241 O 0.23859 0.45111 0.61229 0.0
O242 O 0.24245 0.40887 0.56329 0.0
O243 O 0.32055 0.43884 0.52706 0.0
O244 O 0.25493 0.40805 0.50718 0.0
O245 O 0.30004 0.42537 0.48497 0.0
C246 C 0.2966 0.42508 0.62884 0.0
C247 C 0.24703 0.4673 0.46446 0.0
C248 C 0.23289 0.4699 0.60913 0.0
C249 C 0.30002 0.49868 0.55931 0.0
C250 C 0.24366 0.40041 0.53214 0.0
C251 C 0.31803 0.42853 0.49793 0.0
O252 O 0.27785 0.42076 0.62136 0.0
O253 O 0.43785 0.67763 0.39639 0.0
Zn254 Zn 0.45279 0.68651 0.44122 0.0
O255 O 0.44849 0.71556 0.4522 0.0
Zn256 Zn 0.47516 0.73031 0.45323 0.0
Zn257 Zn 0.43036 0.72717 0.41526 0.0
Zn258 Zn 0.43486 0.71763 0.49898 0.0
O259 O 0.47883 0.74587 0.50129 0.0
O260 O 0.45244 0.73348 0.53356 0.0
O261 O 0.48269 0.68029 0.43533 0.0
O262 O 0.49888 0.70976 0.44845 0.0
O263 O 0.47731 0.74961 0.40942 0.0
O264 O 0.44635 0.74646 0.38362 0.0
O265 O 0.40624 0.74228 0.437 0.0
O266 O 0.44113 0.66822 0.48014 0.0
O267 O 0.40865 0.73364 0.49512 0.0
O268 O 0.42723 0.6899 0.5199 0.0
C269 C 0.42394 0.68628 0.37728 0.0
C270 C 0.46865 0.74462 0.53101 0.0
C271 C 0.46457 0.754 0.38403 0.0
C272 C 0.49925 0.69063 0.43984 0.0
C273 C 0.39932 0.7428 0.46936 0.0
C274 C 0.43092 0.67155 0.50912 0.0
O275 O 0.41878 0.70504 0.38268 0.0
O276 O 0.24044 0.52579 0.9945 0.0
Zn277 Zn 0.24464 0.53941 0.04367 0.0
O278 O 0.27398 0.54517 0.05287 0.0
Zn279 Zn 0.28356 0.52963 0.09472 0.0
Zn280 Zn 0.29044 0.53767 0.01084 0.0
Zn281 Zn 0.27758 0.57446 0.06236 0.0
O282 O 0.29806 0.54818 0.13108 0.0
O283 O 0.28834 0.5793 0.11215 0.0
O284 O 0.23176 0.52354 0.08558 0.0
O285 O 0.25931 0.51692 0.12006 0.0
O286 O 0.30295 0.50693 0.08002 0.0
O287 O 0.30778 0.5123 0.02101 0.0
O288 O 0.3099 0.56066 0.99588 0.0
O289 O 0.22876 0.5661 0.04015 0.0
O290 O 0.29876 0.58698 0.02921 0.0
O291 O 0.25143 0.59028 0.05624 0.0
C292 C 0.25233 0.52651 0.96682 0.0
C293 C 0.29721 0.56774 0.13531 0.0
C294 C 0.31127 0.502 0.04989 0.0
C295 C 0.23994 0.51574 0.11395 0.0
C296 C 0.31079 0.57965 0.00507 0.0
C297 C 0.23332 0.58493 0.04653 0.0
O298 O 0.27122 0.53207 0.96925 0.0
O299 O 0.55497 0.68277 0.88848 0.0
Zn300 Zn 0.54076 0.6908 0.93502 0.0
O301 O 0.54613 0.71956 0.94796 0.0
Zn302 Zn 0.51998 0.73502 0.95037 0.0
Zn303 Zn 0.56436 0.73162 0.91169 0.0
Zn304 Zn 0.56033 0.72049 0.99436 0.0
O305 O 0.51719 0.75002 -0.00079 0.0
O306 O 0.54369 0.73658 0.02991 0.0
O307 O 0.51027 0.68501 0.93194 0.0
O308 O 0.49584 0.71515 0.94632 0.0
O309 O 0.51773 0.75471 0.90706 0.0
O310 O 0.54876 0.75176 0.88135 0.0
O311 O 0.58883 0.74607 0.93359 0.0
O312 O 0.55303 0.67162 0.97213 0.0
O313 O 0.58708 0.73584 0.99092 0.0
O314 O 0.56704 0.69214 0.01371 0.0
C315 C 0.5695 0.69147 0.87073 0.0
C316 C 0.52779 0.74818 0.02835 0.0
C317 C 0.53063 0.75945 0.88209 0.0
C318 C 0.49429 0.69603 0.93805 0.0
C319 C 0.5962 0.74563 0.9656 0.0
C320 C 0.56321 0.67412 0.00141 0.0
O321 O 0.57538 0.70979 0.87817 0.0
O322 O 0.68054 0.43589 0.09899 0.0
Zn323 Zn 0.68873 0.45202 0.0549 0.0
O324 O 0.71806 0.44942 0.04419 0.0
Zn325 Zn 0.73131 0.47687 0.04656 0.0
Zn326 Zn 0.73033 0.43072 0.07954 0.0
Zn327 Zn 0.72137 0.43716 0.99625 0.0
O328 O 0.74716 0.48267 -0.00025 0.0
O329 O 0.73804 0.45594 0.96474 0.0
O330 O 0.68068 0.48148 0.06226 0.0
O331 O 0.70956 0.49943 0.05268 0.0
O332 O 0.75048 0.47847 0.09072 0.0
O333 O 0.74911 0.44638 0.11234 0.0
O334 O 0.74607 0.40752 0.05637 0.0
O335 O 0.67152 0.44014 0.01468 0.0
O336 O 0.73766 0.41097 0.99836 0.0
O337 O 0.69404 0.42959 0.97314 0.0
C338 C 0.68983 0.422 0.1172 0.0
C339 C 0.7478 0.47284 0.96967 0.0
C340 C 0.75572 0.46491 0.11426 0.0
C341 C 0.69024 0.49866 0.05987 0.0
C342 C 0.74687 0.40127 0.02363 0.0
C343 C 0.67549 0.43155 0.98435 0.0
O344 O 0.70875 0.41768 0.11131 0.0
O345 O 0.44077 0.31305 0.87629 0.0
Zn346 Zn 0.45695 0.30649 0.92121 0.0
O347 O 0.45231 0.27847 0.93819 0.0
Zn348 Zn 0.47895 0.26379 0.94131 0.0
Zn349 Zn 0.43393 0.26487 0.90411 0.0
Zn350 Zn 0.4385 0.27923 0.98509 0.0
O351 O 0.48184 0.24981 0.99118 0.0
O352 O 0.45568 0.26432 0.02121 0.0
O353 O 0.48691 0.31195 0.91271 0.0
O354 O 0.50291 0.28411 0.93442 0.0
O355 O 0.48107 0.24292 0.89957 0.0
O356 O 0.44957 0.24415 0.87522 0.0
O357 O 0.41035 0.25084 0.92878 0.0
O358 O 0.44685 0.32702 0.95783 0.0
O359 O 0.41155 0.26356 0.98469 0.0
O360 O 0.43282 0.30839 0.00207 0.0
C361 C 0.42625 0.30342 0.86019 0.0
C362 C 0.47146 0.25253 0.0204 0.0
C363 C 0.46791 0.23701 0.87578 0.0
C364 C 0.50343 0.30228 0.92077 0.0
C365 C 0.40284 0.25246 0.96057 0.0
C366 C 0.43729 0.32585 0.98798 0.0
O367 O 0.42134 0.28505 0.86919 0.0
C368 C 0.18391 0.10143 0.16321 0.0
C369 C 0.17707 0.08291 0.14711 0.0
C370 C 0.17093 0.11245 0.18656 0.0
C371 C 0.12616 0.1081 0.24652 0.0
H372 H 0.11877 0.16652 0.22583 0.0
C373 C 0.06837 0.15785 0.32775 0.0
C374 C 0.07526 0.17768 0.33789 0.0
C375 C 0.07942 0.14622 0.30229 0.0
C376 C 0.12081 0.15028 0.23225 0.0
H377 H 0.15163 0.06096 0.1441 0.0
H378 H 0.12912 0.08013 0.18549 0.0
H379 H 0.1418 0.14588 0.18787 0.0
H380 H 0.09887 0.20105 0.32852 0.0
H381 H 0.11834 0.18065 0.28505 0.0
H382 H 0.10572 0.11253 0.29154 0.0
C383 C 0.14445 0.08613 0.17972 0.0
C384 C 0.13398 0.13849 0.21048 0.0
C385 C 0.15731 0.07523 0.15597 0.0
C386 C 0.09306 0.18586 0.32123 0.0
C387 C 0.10419 0.17418 0.29609 0.0
C388 C 0.11317 0.11995 0.26861 0.0
C389 C 0.15101 0.10503 0.19462 0.0
C390 C 0.13687 0.11735 0.21757 0.0
C391 C 0.09768 0.15411 0.28666 0.0
C392 C 0.11046 0.14122 0.26188 0.0
H393 H 0.19903 0.10777 0.1569 0.0
H394 H 0.1764 0.1269 0.1981 0.0
H395 H 0.12824 0.09182 0.2526 0.0
H396 H 0.05463 0.15116 0.33993 0.0
H397 H 0.07376 0.13096 0.29512 0.0
C398 C 0.06826 0.83109 0.81601 0.0
C399 C 0.07613 0.81227 0.82919 0.0
C400 C 0.07957 0.84278 0.79107 0.0
C401 C 0.12451 0.84087 0.72815 0.0
H402 H 0.12579 0.90011 0.74583 0.0
C403 C 0.18485 0.89469 0.66245 0.0
C404 C 0.17678 0.91228 0.64501 0.0
C405 C 0.17232 0.88273 0.68511 0.0
C406 C 0.12545 0.88361 0.74048 0.0
H407 H 0.10164 0.79052 0.82554 0.0
H408 H 0.12162 0.81114 0.78273 0.0
H409 H 0.10368 0.87805 0.78305 0.0
H410 H 0.14953 0.93163 0.63887 0.0
H411 H 0.12774 0.91083 0.67899 0.0
H412 H 0.14675 0.84652 0.68613 0.0
C413 C 0.10655 0.81674 0.79112 0.0
C414 C 0.11271 0.87098 0.76159 0.0
C415 C 0.09513 0.80493 0.81577 0.0
C416 C 0.15617 0.91812 0.65183 0.0
C417 C 0.14372 0.90628 0.67484 0.0
C418 C 0.13742 0.8535 0.70731 0.0
C419 C 0.0991 0.836 0.77909 0.0
C420 C 0.1121 0.84945 0.75568 0.0
C421 C 0.15158 0.88827 0.69109 0.0
C422 C 0.13801 0.87496 0.71336 0.0
H423 H 0.05355 0.83704 0.82555 0.0
H424 H 0.07316 0.8573 0.78166 0.0
H425 H 0.12418 0.82441 0.72253 0.0
H426 H 0.20066 0.88976 0.65773 0.0
H427 H 0.17878 0.86903 0.69773 0.0
C428 C 0.9222 0.8327 0.32675 0.0
C429 C 0.91526 0.81302 0.33762 0.0
C430 C 0.91018 0.84488 0.30364 0.0
C431 C 0.85634 0.8535 0.2792 0.0
H432 H 0.87887 0.8841 0.19763 0.0
C433 C 0.80501 0.89793 0.17762 0.0
C434 C 0.81283 0.91634 0.16257 0.0
C435 C 0.81735 0.88579 0.20027 0.0
C436 C 0.8724 0.87593 0.22069 0.0
H437 H 0.89066 0.79031 0.33153 0.0
H438 H 0.86966 0.81168 0.29126 0.0
H439 H 0.90133 0.86117 0.23246 0.0
H440 H 0.83927 0.9371 0.16121 0.0
H441 H 0.86057 0.91624 0.2016 0.0
H442 H 0.82753 0.86846 0.26801 0.0
C443 C 0.88434 0.81768 0.3009 0.0
C444 C 0.88524 0.86271 0.24042 0.0
C445 C 0.89645 0.80542 0.32372 0.0
C446 C 0.83287 0.92289 0.17209 0.0
C447 C 0.84514 0.91085 0.195 0.0
C448 C 0.84353 0.86685 0.25968 0.0
C449 C 0.89093 0.83766 0.29123 0.0
C450 C 0.8773 0.85133 0.26976 0.0
C451 C 0.83771 0.89192 0.20863 0.0
C452 C 0.85141 0.87819 0.23015 0.0
H453 H 0.93666 0.83897 0.33688 0.0
H454 H 0.91556 0.86026 0.29666 0.0
H455 H 0.84993 0.84514 0.30212 0.0
H456 H 0.78966 0.8924 0.1707 0.0
H457 H 0.8112 0.87121 0.21003 0.0
C458 C 0.82182 0.06012 0.69886 0.0
C459 C 0.80737 0.07194 0.67915 0.0
C460 C 0.83552 0.0698 0.72299 0.0
C461 C 0.86092 0.11964 0.7345 0.0
H462 H 0.8717 0.10328 0.83403 0.0
C463 C 0.89918 0.17438 0.83615 0.0
C464 C 0.913 0.16635 0.86202 0.0
C465 C 0.88828 0.16117 0.81312 0.0
C466 C 0.86914 0.1078 0.80606 0.0
H467 H 0.79498 0.1029 0.67139 0.0
H468 H 0.81879 0.11957 0.71319 0.0
H469 H 0.84793 0.08272 0.7967 0.0
H470 H 0.92659 0.13811 0.88333 0.0
H471 H 0.90763 0.11502 0.8426 0.0
H472 H 0.88192 0.14469 0.74351 0.0
C473 C 0.81978 0.10295 0.70951 0.0
C474 C 0.8555 0.09608 0.78483 0.0
C475 C 0.80608 0.09334 0.6857 0.0
C476 C 0.91603 0.1448 0.86373 0.0
C477 C 0.90509 0.13155 0.84059 0.0
C478 C 0.87461 0.13122 0.75552 0.0
C479 C 0.83501 0.09139 0.72751 0.0
C480 C 0.85088 0.10227 0.74921 0.0
C481 C 0.89098 0.13962 0.81525 0.0
C482 C 0.87845 0.12577 0.79182 0.0
H483 H 0.82316 0.04359 0.69448 0.0
H484 H 0.84712 0.06057 0.73675 0.0
H485 H 0.85795 0.12445 0.70679 0.0
H486 H 0.89641 0.19088 0.83412 0.0
H487 H 0.87728 0.16787 0.79429 0.0
C488 C 0.59943 0.68733 0.82811 0.0
C489 C 0.58109 0.67936 0.84332 0.0
C490 C 0.61175 0.67503 0.80565 0.0
C491 C 0.61157 0.62851 0.74833 0.0
H492 H 0.67041 0.62718 0.76963 0.0
C493 C 0.66508 0.57002 0.67838 0.0
C494 C 0.68413 0.57759 0.66551 0.0
C495 C 0.65306 0.58183 0.70209 0.0
C496 C 0.65406 0.62753 0.76309 0.0
H497 H 0.56086 0.65251 0.8455 0.0
H498 H 0.58236 0.63112 0.80601 0.0
H499 H 0.64769 0.64982 0.80469 0.0
H500 H 0.70596 0.60309 0.66868 0.0
H501 H 0.68481 0.62388 0.70962 0.0
H502 H 0.61788 0.6065 0.70643 0.0
C503 C 0.58718 0.64687 0.81161 0.0
C504 C 0.64107 0.6405 0.78314 0.0
C505 C 0.57491 0.65912 0.83429 0.0
C506 C 0.69137 0.5968 0.6782 0.0
C507 C 0.67926 0.6087 0.70173 0.0
C508 C 0.62457 0.61565 0.72813 0.0
C509 C 0.60592 0.65458 0.79769 0.0
C510 C 0.6197 0.6411 0.77595 0.0
C511 C 0.65975 0.60155 0.71325 0.0
C512 C 0.64596 0.61497 0.73533 0.0
H513 H 0.60464 0.70287 0.83441 0.0
H514 H 0.62597 0.68146 0.7948 0.0
H515 H 0.5952 0.62885 0.74196 0.0
H516 H 0.65916 0.55517 0.66943 0.0
H517 H 0.63835 0.57565 0.71118 0.0
C518 C 0.57261 0.32929 0.31967 0.0
C519 C 0.57951 0.30994 0.33222 0.0
C520 C 0.5843 0.34046 0.29455 0.0
C521 C 0.63754 0.34762 0.26499 0.0
H522 H 0.6129 0.3759 0.18279 0.0
C523 C 0.68626 0.39136 0.15828 0.0
C524 C 0.67802 0.40978 0.14404 0.0
C525 C 0.67439 0.37889 0.18121 0.0
C526 C 0.61996 0.36833 0.20591 0.0
H527 H 0.60375 0.28681 0.32736 0.0
H528 H 0.62422 0.30648 0.28351 0.0
H529 H 0.5914 0.35388 0.22125 0.0
H530 H 0.65119 0.43 0.14386 0.0
H531 H 0.6307 0.40853 0.18463 0.0
H532 H 0.66598 0.36237 0.25028 0.0
C533 C 0.60981 0.31297 0.29336 0.0
C534 C 0.60767 0.35565 0.22775 0.0
C535 C 0.59802 0.30169 0.31825 0.0
C536 C 0.65792 0.41581 0.15413 0.0
C537 C 0.64612 0.40342 0.17728 0.0
C538 C 0.6498 0.36043 0.24332 0.0
C539 C 0.60318 0.33257 0.2817 0.0
C540 C 0.61634 0.34523 0.25753 0.0
C541 C 0.6541 0.38467 0.19061 0.0
C542 C 0.64113 0.37099 0.21362 0.0
H543 H 0.55838 0.33604 0.32981 0.0
H544 H 0.57892 0.3556 0.28614 0.0
H545 H 0.64452 0.33999 0.28815 0.0
H546 H 0.70166 0.38623 0.15089 0.0
H547 H 0.68092 0.36444 0.19072 0.0
C548 C 0.39463 0.30611 0.82116 0.0
C549 C 0.41349 0.31457 0.83325 0.0
C550 C 0.38124 0.3178 0.79961 0.0
C551 C 0.36913 0.37217 0.77803 0.0
H552 H 0.3375 0.34838 0.69878 0.0
C553 C 0.32688 0.42066 0.6702 0.0
C554 C 0.30738 0.41383 0.65816 0.0
C555 C 0.33837 0.40878 0.6945 0.0
C556 C 0.34601 0.35514 0.72121 0.0
H557 H 0.4336 0.34149 0.83047 0.0
H558 H 0.41046 0.36164 0.79216 0.0
H559 H 0.36148 0.32663 0.73289 0.0
H560 H 0.28425 0.38961 0.66334 0.0
H561 H 0.30447 0.36876 0.70588 0.0
H562 H 0.35395 0.40077 0.76581 0.0
C563 C 0.40577 0.3462 0.8002 0.0
C564 C 0.35977 0.34271 0.74066 0.0
C565 C 0.41911 0.33457 0.82189 0.0
C566 C 0.29923 0.39528 0.67211 0.0
C567 C 0.31083 0.38328 0.69622 0.0
C568 C 0.35546 0.3846 0.75846 0.0
C569 C 0.38648 0.33813 0.78954 0.0
C570 C 0.37163 0.35115 0.76907 0.0
C571 C 0.33067 0.38975 0.70709 0.0
C572 C 0.3439 0.37624 0.72969 0.0
H573 H 0.38981 0.29077 0.8295 0.0
H574 H 0.36645 0.31117 0.79202 0.0
H575 H 0.37768 0.37902 0.80032 0.0
H576 H 0.33356 0.43494 0.66008 0.0
H577 H 0.35367 0.41408 0.70223 0.0
C578 C 0.32412 0.56743 0.18446 0.0
C579 C 0.30827 0.57778 0.16566 0.0
C580 C 0.33669 0.57822 0.20899 0.0
C581 C 0.35492 0.63116 0.22524 0.0
H582 H 0.37371 0.61017 0.31818 0.0
C583 C 0.39611 0.68246 0.33044 0.0
C584 C 0.41257 0.67378 0.35018 0.0
C585 C 0.38422 0.67018 0.30726 0.0
C586 C 0.3688 0.6161 0.29205 0.0
H587 H 0.29209 0.60706 0.15994 0.0
H588 H 0.31373 0.62566 0.20294 0.0
H589 H 0.35037 0.5892 0.28096 0.0
H590 H 0.42986 0.6455 0.36014 0.0
H591 H 0.40918 0.62417 0.31933 0.0
H592 H 0.37326 0.65803 0.23616 0.0
C593 C 0.31685 0.60941 0.19803 0.0
C594 C 0.35542 0.60412 0.27085 0.0
C595 C 0.30439 0.59871 0.17355 0.0
C596 C 0.41723 0.65268 0.34544 0.0
C597 C 0.40531 0.6404 0.32228 0.0
C598 C 0.36828 0.64309 0.24636 0.0
C599 C 0.33353 0.59947 0.21509 0.0
C600 C 0.34816 0.61168 0.23744 0.0
C601 C 0.38853 0.64897 0.30331 0.0
C602 C 0.3752 0.63579 0.28014 0.0
H603 H 0.32748 0.5513 0.17892 0.0
H604 H 0.34945 0.57017 0.22182 0.0
H605 H 0.34996 0.63718 0.19919 0.0
H606 H 0.39207 0.69865 0.3335 0.0
H607 H 0.37125 0.67718 0.29325 0.0
C608 C 0.16378 0.97856 0.07115 0.0
C609 C 0.1825 0.97953 0.05172 0.0
C610 C 0.15175 0.96063 0.07074 0.0
C611 C 0.15149 0.90486 0.04531 0.0
H612 H 0.09258 0.91474 0.03419 0.0
C613 C 0.07491 0.85992 0.98821 0.0
C614 C 0.07772 0.84018 0.00353 0.0
C615 C 0.08724 0.87655 -0.00094 0.0
C616 C 0.10898 0.91168 0.03718 0.0
H617 H 0.20373 0.96215 0.01782 0.0
H618 H 0.18235 0.93088 0.01613 0.0
H619 H 0.11586 0.94382 0.04299 0.0
H620 H 0.09518 0.82271 0.04347 0.0
H621 H 0.11651 0.85194 0.06288 0.0
H622 H 0.14457 0.87271 0.03766 0.0
C623 C 0.17715 0.94391 0.03224 0.0
C624 C 0.12235 0.92837 0.04272 0.0
C625 C 0.18937 0.96185 0.03305 0.0
C626 C 0.09263 0.83769 0.03104 0.0
C627 C 0.10498 0.85439 0.04195 0.0
C628 C 0.13808 0.88813 0.03957 0.0
C629 C 0.15796 0.94328 0.05046 0.0
C630 C 0.1438 0.92522 0.04654 0.0
C631 C 0.10265 0.87393 0.02564 0.0
C632 C 0.1167 0.8914 0.03495 0.0
H633 H 0.15823 0.99182 0.08634 0.0
H634 H 0.13736 0.96053 0.08589 0.0
H635 H 0.16788 0.90185 0.04854 0.0
H636 H 0.06363 0.86243 0.96691 0.0
H637 H 0.08518 0.89131 0.98558 0.0
C638 C 0.83189 0.90478 0.95715 0.0
C639 C 0.83508 0.91982 0.98425 0.0
C640 C 0.84844 0.89283 0.94439 0.0
C641 C 0.88257 0.86023 0.94508 0.0
H642 H 0.93803 0.88277 0.93674 0.0
C643 C 0.95629 0.80957 0.95283 0.0
C644 C 0.97376 0.81578 0.93285 0.0
C645 C 0.93844 0.82185 0.95326 0.0
C646 C 0.92263 0.87618 0.93834 0.0
H647 H 0.85837 0.93479 0.01775 0.0
H648 H 0.88697 0.91393 0.99592 0.0
H649 H 0.90894 0.90602 0.94553 0.0
H650 H 0.98577 0.83903 0.89583 0.0
H651 H 0.95459 0.86003 0.89575 0.0
H652 H 0.89632 0.83036 0.93758 0.0
C653 C 0.87179 0.91142 0.98421 0.0
C654 C 0.90595 0.88954 0.94385 0.0
C655 C 0.85531 0.92333 0.99692 0.0
C656 C 0.97269 0.83398 0.91201 0.0
C657 C 0.95482 0.84609 0.91208 0.0
C658 C 0.89928 0.84684 0.93934 0.0
C659 C 0.8685 0.89572 0.95837 0.0
C660 C 0.88578 0.88171 0.94805 0.0
C661 C 0.93764 0.84047 0.93338 0.0
C662 C 0.91956 0.85463 0.93654 0.0
H663 H 0.8165 0.9017 0.94673 0.0
H664 H 0.84545 0.88106 0.92407 0.0
H665 H 0.86726 0.85366 0.94851 0.0
H666 H 0.95666 0.79562 0.96917 0.0
H667 H 0.92558 0.81714 0.97026 0.0
C668 C 0.91976 0.14048 0.04501 0.0
C669 C 0.91298 0.16115 0.04455 0.0
C670 C 0.90692 0.12487 0.05848 0.0
C671 C 0.85264 0.11283 0.06114 0.0
H672 H 0.87013 0.06462 0.11573 0.0
C673 C 0.80114 0.03968 0.07262 0.0
C674 C 0.81162 0.02072 0.06913 0.0
C675 C 0.81226 0.05813 0.07718 0.0
C676 C 0.86502 0.07793 0.10027 0.0
H677 H 0.88803 0.18184 0.06014 0.0
H678 H 0.86548 0.15441 0.08312 0.0
H679 H 0.89273 0.09488 0.11245 0.0
H680 H 0.84196 0.0063 0.06723 0.0
H681 H 0.86119 0.03827 0.07389 0.0
H682 H 0.82556 0.09556 0.04696 0.0
C683 C 0.88074 0.15038 0.07309 0.0
C684 C 0.87791 0.09528 0.09866 0.0
C685 C 0.89371 0.16606 0.06013 0.0
C686 C 0.83337 0.02061 0.07011 0.0
C687 C 0.84443 0.03897 0.07432 0.0
C688 C 0.83985 0.09538 0.06235 0.0
C689 C 0.88699 0.12959 0.07131 0.0
C690 C 0.87205 0.11268 0.07834 0.0
C691 C 0.83406 0.05798 0.07807 0.0
C692 C 0.84616 0.0775 0.08107 0.0
H693 H 0.93457 0.13624 0.03335 0.0
H694 H 0.91208 0.10894 0.05661 0.0
H695 H 0.84786 0.12597 0.0449 0.0
H696 H 0.78438 0.04026 0.07225 0.0
H697 H 0.80376 0.07248 0.08026 0.0
C698 C 0.03434 0.18846 0.9404 0.0
C699 C 0.01593 0.17789 0.94897 0.0
C700 C 0.05287 0.17755 0.93564 0.0
C701 C 0.07298 0.12422 0.91992 0.0
H702 H 0.12317 0.14564 0.96385 0.0
C703 C 0.13995 0.07388 0.97125 0.0
C704 C 0.16035 0.0811 0.96715 0.0
C705 C 0.12328 0.08581 0.95932 0.0
C706 C 0.10939 0.13964 0.95079 0.0
H707 H 0.00265 0.14761 0.95987 0.0
H708 H 0.03483 0.12882 0.95265 0.0
H709 H 0.09208 0.167 0.96292 0.0
H710 H 0.17935 0.10591 0.94534 0.0
H711 H 0.1501 0.1269 0.92494 0.0
H712 H 0.09009 0.09642 0.90963 0.0
C713 C 0.03496 0.14542 0.9485 0.0
C714 C 0.09156 0.15187 0.95024 0.0
C715 C 0.01649 0.15626 0.95301 0.0
C716 C 0.1638 0.09991 0.94887 0.0
C717 C 0.14709 0.11199 0.93739 0.0
C718 C 0.09075 0.11193 0.92079 0.0
C719 C 0.05335 0.15587 0.93952 0.0
C720 C 0.07299 0.14408 0.93572 0.0
C721 C 0.12668 0.10529 0.94343 0.0
C722 C 0.10896 0.11934 0.93703 0.0
H723 H 0.03439 0.20511 0.93688 0.0
H724 H 0.06675 0.18606 0.92854 0.0
H725 H 0.05907 0.11794 0.90769 0.0
H726 H 0.1368 0.05941 0.98508 0.0
H727 H 0.1077 0.08033 0.96453 0.0
C728 C 0.83505 0.9775 0.53148 0.0
C729 C 0.8205 0.9797 0.55961 0.0
C730 C 0.84836 0.96048 0.53076 0.0
C731 C 0.85287 0.90692 0.55955 0.0
H732 H 0.91158 0.9149 0.54216 0.0
C733 C 0.90761 0.83721 0.54264 0.0
C734 C 0.92133 0.83872 0.51308 0.0
C735 C 0.89706 0.85474 0.55516 0.0
C736 C 0.89521 0.91239 0.54684 0.0
H737 H 0.80828 0.96563 0.60874 0.0
H738 H 0.83131 0.93567 0.60693 0.0
H739 H 0.88904 0.94495 0.549 0.0
H740 H 0.9355 0.86006 0.47478 0.0
H741 H 0.91688 0.8902 0.49583 0.0
H742 H 0.85871 0.87443 0.55565 0.0
C743 C 0.83248 0.94724 0.58571 0.0
C744 C 0.88235 0.92959 0.5508 0.0
C745 C 0.81937 0.9644 0.58674 0.0
C746 C 0.92502 0.85827 0.49755 0.0
C747 C 0.91442 0.87568 0.50987 0.0
C748 C 0.86568 0.88969 0.55512 0.0
C749 C 0.84718 0.9452 0.55785 0.0
C750 C 0.86102 0.92701 0.55653 0.0
C751 C 0.89998 0.87408 0.5383 0.0
C752 C 0.88694 0.89222 0.54796 0.0
H753 H 0.83634 0.98905 0.51026 0.0
H754 H 0.85943 0.95911 0.50876 0.0
H755 H 0.83643 0.90454 0.56378 0.0
H756 H 0.90452 0.82241 0.55537 0.0
H757 H 0.88628 0.85305 0.57753 0.0
C758 C 0.83638 0.08514 0.47376 0.0
C759 C 0.82584 0.08984 0.5062 0.0
C760 C 0.85326 0.09721 0.46257 0.0
C761 C 0.89541 0.12585 0.50036 0.0
H762 H 0.90107 0.15472 0.40842 0.0
C763 C 0.97285 0.15843 0.44972 0.0
C764 C 0.97298 0.17995 0.44391 0.0
C765 C 0.95422 0.14778 0.45395 0.0
C766 C 0.8996 0.14671 0.43414 0.0
H767 H 0.8245 0.11119 0.55181 0.0
H768 H 0.85419 0.13173 0.53268 0.0
H769 H 0.86909 0.13528 0.42179 0.0
H770 H 0.95358 0.20703 0.43648 0.0
H771 H 0.92078 0.18811 0.44314 0.0
H772 H 0.92594 0.13678 0.51256 0.0
C773 C 0.84923 0.11888 0.51583 0.0
C774 C 0.88146 0.13556 0.44165 0.0
C775 C 0.83221 0.10712 0.52666 0.0
C776 C 0.95398 0.19047 0.4411 0.0
C777 C 0.93525 0.17968 0.44469 0.0
C778 C 0.91362 0.13657 0.49257 0.0
C779 C 0.86004 0.11388 0.484 0.0
C780 C 0.87923 0.1252 0.47497 0.0
C781 C 0.9353 0.15832 0.45182 0.0
C782 C 0.91584 0.14714 0.45951 0.0
H783 H 0.83179 0.07198 0.45737 0.0
H784 H 0.86149 0.09306 0.43797 0.0
H785 H 0.89402 0.11789 0.52617 0.0
H786 H 0.98719 0.14984 0.4521 0.0
H787 H 0.95458 0.13128 0.45934 0.0
C788 C 0.07187 0.13489 0.50335 0.0
C789 C 0.07528 0.15495 0.51691 0.0
C790 C 0.08399 0.11835 0.51506 0.0
C791 C 0.10637 0.0838 0.55297 0.0
H792 H 0.16552 0.09383 0.55836 0.0
C793 C 0.16235 0.01657 0.57636 0.0
C794 C 0.18039 0.01629 0.55502 0.0
C795 C 0.15031 0.03441 0.57875 0.0
C796 C 0.14906 0.09076 0.55682 0.0
H797 H 0.09341 0.17313 0.555 0.0
H798 H 0.11441 0.14404 0.57595 0.0
H799 H 0.14189 0.12288 0.55012 0.0
H800 H 0.20042 0.03466 0.52049 0.0
H801 H 0.1789 0.06573 0.5234 0.0
H802 H 0.11344 0.05167 0.55736 0.0
C803 C 0.10257 0.14126 0.5557 0.0
C804 C 0.13547 0.10745 0.55265 0.0
C805 C 0.09041 0.15788 0.54392 0.0
C806 C 0.18657 0.03446 0.53712 0.0
C807 C 0.17429 0.05229 0.53902 0.0
C808 C 0.11991 0.06715 0.55683 0.0
C809 C 0.09978 0.1214 0.5408 0.0
C810 C 0.114 0.1041 0.54994 0.0
C811 C 0.15577 0.05232 0.55931 0.0
C812 C 0.14146 0.07035 0.55823 0.0
H813 H 0.06034 0.13203 0.48256 0.0
H814 H 0.08155 0.10334 0.50263 0.0
H815 H 0.08991 0.08069 0.5515 0.0
H816 H 0.15741 0.0029 0.59105 0.0
H817 H 0.13649 0.03402 0.59544 0.0
C818 C 0.14068 0.91998 0.46755 0.0
C819 C 0.16139 0.91343 0.46531 0.0
C820 C 0.12469 0.90717 0.45532 0.0
C821 C 0.11206 0.85309 0.45022 0.0
H822 H 0.06452 0.87116 0.39444 0.0
C823 C 0.03939 0.80117 0.43224 0.0
C824 C 0.02026 0.81146 0.43431 0.0
C825 C 0.05788 0.8125 0.42973 0.0
C826 C 0.0776 0.86589 0.41033 0.0
H827 H 0.18163 0.88872 0.44692 0.0
H828 H 0.15357 0.86619 0.42629 0.0
H829 H 0.09455 0.89387 0.40019 0.0
H830 H 0.00558 0.84169 0.43612 0.0
H831 H 0.03748 0.8612 0.43314 0.0
H832 H 0.09478 0.82569 0.46236 0.0
C833 C 0.14982 0.88129 0.43729 0.0
C834 C 0.09482 0.87887 0.41334 0.0
C835 C 0.16584 0.89426 0.44889 0.0
C836 C 0.02002 0.83322 0.43413 0.0
C837 C 0.03838 0.84447 0.43207 0.0
C838 C 0.09469 0.84023 0.44772 0.0
C839 C 0.1291 0.88745 0.44118 0.0
C840 C 0.11203 0.87274 0.43388 0.0
C841 C 0.05757 0.83432 0.42961 0.0
C842 C 0.07703 0.84669 0.42848 0.0
H843 H 0.13678 0.93467 0.48001 0.0
H844 H 0.10881 0.91222 0.45878 0.0
H845 H 0.1251 0.84811 0.46653 0.0
H846 H 0.04006 0.78441 0.43214 0.0
H847 H 0.07236 0.80415 0.42762 0.0
C848 C 0.6622 0.47258 0.58701 0.0
C849 C 0.68099 0.47324 0.56774 0.0
C850 C 0.64977 0.45492 0.58615 0.0
C851 C 0.61989 0.42346 0.55627 0.0
H852 H 0.64113 0.36744 0.55063 0.0
C853 C 0.57321 0.35652 0.49444 0.0
C854 C 0.57533 0.33653 0.50906 0.0
C855 C 0.58523 0.37287 0.50749 0.0
C856 C 0.6349 0.38296 0.55271 0.0
H857 H 0.70192 0.45554 0.53372 0.0
H858 H 0.67992 0.42479 0.53143 0.0
H859 H 0.66476 0.39598 0.5638 0.0
H860 H 0.59112 0.3183 0.5501 0.0
H861 H 0.61194 0.34699 0.57318 0.0
H862 H 0.59006 0.41051 0.54533 0.0
C863 C 0.67495 0.43784 0.5477 0.0
C864 C 0.6485 0.39934 0.55979 0.0
C865 C 0.68752 0.4555 0.54886 0.0
C866 C 0.58913 0.33348 0.53813 0.0
C867 C 0.60119 0.34988 0.55118 0.0
C868 C 0.60632 0.40711 0.54932 0.0
C869 C 0.65569 0.43754 0.56568 0.0
C870 C 0.64119 0.41983 0.5611 0.0
C871 C 0.59964 0.36967 0.53553 0.0
C872 C 0.61371 0.38671 0.5468 0.0
H873 H 0.65686 0.48588 0.60232 0.0
H874 H 0.63529 0.45504 0.60103 0.0
H875 H 0.61373 0.43905 0.55664 0.0
H876 H 0.56274 0.35946 0.47204 0.0
H877 H 0.5838 0.38785 0.49452 0.0
C878 C 0.33371 0.40458 0.45173 0.0
C879 C 0.33618 0.41829 0.48113 0.0
C880 C 0.35044 0.39285 0.43918 0.0
C881 C 0.38381 0.35957 0.43876 0.0
H882 H 0.43983 0.38118 0.43843 0.0
C883 C 0.45632 0.30728 0.44576 0.0
C884 C 0.47438 0.31394 0.42793 0.0
C885 C 0.43869 0.31986 0.44634 0.0
C886 C 0.42428 0.3749 0.43779 0.0
H887 H 0.35845 0.43112 0.5192 0.0
H888 H 0.38741 0.4106 0.49764 0.0
H889 H 0.41095 0.40459 0.44827 0.0
H890 H 0.48768 0.33836 0.39476 0.0
H891 H 0.45688 0.35993 0.395 0.0
H892 H 0.3972 0.32986 0.42806 0.0
C893 C 0.37263 0.409 0.48401 0.0
C894 C 0.40772 0.38832 0.4439 0.0
C895 C 0.35596 0.42071 0.49652 0.0
C896 C 0.47412 0.33292 0.40925 0.0
C897 C 0.45648 0.34535 0.40951 0.0
C898 C 0.4004 0.34613 0.43249 0.0
C899 C 0.36999 0.39463 0.45569 0.0
C900 C 0.38733 0.38076 0.44515 0.0
C901 C 0.43871 0.33923 0.4288 0.0
C902 C 0.42086 0.35359 0.43251 0.0
H903 H 0.3187 0.40239 0.43915 0.0
H904 H 0.34799 0.38214 0.41694 0.0
H905 H 0.3683 0.35321 0.43988 0.0
H906 H 0.45605 0.29275 0.46043 0.0
H907 H 0.42534 0.31474 0.46175 0.0
C908 C 0.3291 0.51837 0.58738 0.0
C909 C 0.31191 0.51806 0.56396 0.0
C910 C 0.34164 0.53588 0.58985 0.0
C911 C 0.3454 0.59159 0.56528 0.0
H912 H 0.40432 0.57991 0.56466 0.0
C913 C 0.42422 0.63358 0.5149 0.0
C914 C 0.42074 0.65385 0.52742 0.0
C915 C 0.4119 0.61724 0.52705 0.0
C916 C 0.38793 0.58345 0.56489 0.0
H917 H 0.29388 0.53616 0.52587 0.0
H918 H 0.3162 0.56668 0.52929 0.0
H919 H 0.37975 0.55157 0.56993 0.0
H920 H 0.40252 0.67256 0.56456 0.0
H921 H 0.38118 0.64389 0.58617 0.0
H922 H 0.35367 0.62342 0.55816 0.0
C923 C 0.31977 0.55347 0.54627 0.0
C924 C 0.3738 0.56721 0.56833 0.0
C925 C 0.30703 0.53596 0.54412 0.0
C926 C 0.40556 0.65716 0.55422 0.0
C927 C 0.3932 0.64077 0.56638 0.0
C928 C 0.35956 0.60785 0.56167 0.0
C929 C 0.33748 0.55345 0.56862 0.0
C930 C 0.35235 0.57103 0.56798 0.0
C931 C 0.39584 0.62075 0.5521 0.0
C932 C 0.38098 0.6039 0.56073 0.0
H933 H 0.33307 0.50493 0.60355 0.0
H934 H 0.35483 0.53551 0.60801 0.0
H935 H 0.329 0.5951 0.56539 0.0
H936 H 0.43582 0.63044 0.49434 0.0
H937 H 0.41427 0.60207 0.51524 0.0
C938 C 0.52002 0.6611 0.41625 0.0
C939 C 0.51915 0.67962 0.43621 0.0
C940 C 0.53792 0.64911 0.41615 0.0
C941 C 0.56951 0.61958 0.44576 0.0
H942 H 0.62549 0.64114 0.45057 0.0
C943 C 0.63683 0.57337 0.5066 0.0
C944 C 0.65662 0.57537 0.49112 0.0
C945 C 0.62041 0.58541 0.4941 0.0
C946 C 0.60998 0.63484 0.44872 0.0
H947 H 0.53669 0.70072 0.47016 0.0
H948 H 0.56795 0.67942 0.47089 0.0
H949 H 0.59681 0.66461 0.43766 0.0
H950 H 0.67447 0.59097 0.44922 0.0
H951 H 0.64564 0.61184 0.42714 0.0
H952 H 0.58259 0.58985 0.45675 0.0
C953 C 0.55485 0.67432 0.45482 0.0
C954 C 0.59353 0.64832 0.44177 0.0
C955 C 0.53694 0.6865 0.45455 0.0
C956 C 0.65943 0.5891 0.46187 0.0
C957 C 0.64297 0.60117 0.44936 0.0
C958 C 0.58591 0.60613 0.45259 0.0
C959 C 0.55531 0.65521 0.43641 0.0
C960 C 0.57308 0.64088 0.44073 0.0
C961 C 0.62337 0.5997 0.46576 0.0
C962 C 0.60628 0.61365 0.4548 0.0
H963 H 0.50665 0.65559 0.40129 0.0
H964 H 0.53795 0.63474 0.40094 0.0
H965 H 0.55394 0.61333 0.44564 0.0
H966 H 0.63411 0.56296 0.52919 0.0
H967 H 0.60556 0.58407 0.50761 0.0
C968 C 0.43173 0.36411 0.98631 0.0
C969 C 0.42922 0.34513 0.0045 0.0
C970 C 0.42143 0.38179 0.9983 0.0
C971 C 0.37457 0.39618 0.04907 0.0
H972 H 0.39525 0.45179 0.03245 0.0
C973 C 0.32638 0.47002 0.07771 0.0
C974 C 0.3257 0.48424 0.0488 0.0
C975 C 0.34026 0.45345 0.07704 0.0
C976 C 0.3893 0.43633 0.03721 0.0
H977 H 0.41512 0.33025 0.05123 0.0
H978 H 0.3975 0.36135 0.07273 0.0
H979 H 0.41858 0.42232 0.02578 0.0
H980 H 0.33919 0.49232 0.99668 0.0
H981 H 0.36356 0.46344 0.99572 0.0
H982 H 0.34527 0.41031 0.06038 0.0
C983 C 0.40702 0.36237 0.04856 0.0
C984 C 0.40262 0.41945 0.03336 0.0
C985 C 0.41724 0.34458 0.03639 0.0
C986 C 0.33927 0.4816 0.0193 0.0
C987 C 0.35333 0.46518 0.01887 0.0
C988 C 0.36132 0.41309 0.05334 0.0
C989 C 0.4085 0.38103 0.029 0.0
C990 C 0.39528 0.39912 0.03832 0.0
C991 C 0.35393 0.45095 0.04771 0.0
C992 C 0.36845 0.43326 0.04659 0.0
H993 H 0.44088 0.36516 0.9617 0.0
H994 H 0.42279 0.39578 0.98225 0.0
H995 H 0.36826 0.38076 0.05257 0.0
H996 H 0.31611 0.47161 0.10083 0.0
H997 H 0.34046 0.4427 0.09963 0.0
C998 C 0.3437 0.5849 0.96992 0.0
C999 C 0.32692 0.59327 0.98933 0.0
C1000 C 0.36004 0.5976 0.95866 0.0
C1001 C 0.38501 0.64694 0.98332 0.0
H1002 H 0.41626 0.63803 0.8947 0.0
C1003 C 0.45581 0.69715 0.94766 0.0
C1004 C 0.47358 0.68613 0.937 0.0
C1005 C 0.43656 0.68729 0.94931 0.0
C1006 C 0.40769 0.64065 0.91959 0.0
H1007 H 0.31354 0.62173 0.01014 0.0
H1008 H 0.34177 0.64385 0.98987 0.0
H1009 H 0.38468 0.61809 0.90567 0.0
H1010 H 0.48484 0.65628 0.91832 0.0
H1011 H 0.45131 0.63913 0.92145 0.0
H1012 H 0.40812 0.66923 0.99754 0.0
C1013 C 0.3426 0.62742 0.98419 0.0
C1014 C 0.38964 0.62922 0.9259 0.0
C1015 C 0.32636 0.61473 0.99565 0.0
C1016 C 0.47151 0.66524 0.92679 0.0
C1017 C 0.45224 0.65542 0.92831 0.0
C1018 C 0.40297 0.6584 0.97695 0.0
C1019 C 0.35988 0.61894 0.96636 0.0
C1020 C 0.37822 0.63206 0.95807 0.0
C1021 C 0.43463 0.66623 0.94019 0.0
C1022 C 0.41466 0.65521 0.94524 0.0
H1023 H 0.34462 0.56843 0.96464 0.0
H1024 H 0.3732 0.59052 0.94528 0.0
H1025 H 0.37685 0.64926 0.00871 0.0
H1026 H 0.45682 0.71328 0.95553 0.0
H1027 H 0.4232 0.69609 0.95815 0.0
C1028 C 0.57033 0.63608 0.00337 0.0
C1029 C 0.57289 0.65584 0.01877 0.0
C1030 C 0.58196 0.61933 0.01579 0.0
C1031 C 0.63155 0.6082 0.06066 0.0
H1032 H 0.6106 0.55197 0.05787 0.0
C1033 C 0.65918 0.51743 0.08301 0.0
C1034 C 0.67821 0.51794 0.06448 0.0
C1035 C 0.64662 0.53495 0.08455 0.0
C1036 C 0.61671 0.56756 0.05944 0.0
H1037 H 0.5888 0.67317 0.06092 0.0
H1038 H 0.60884 0.64376 0.08307 0.0
H1039 H 0.58685 0.5807 0.04986 0.0
H1040 H 0.6994 0.53745 0.03424 0.0
H1041 H 0.67714 0.56799 0.03584 0.0
H1042 H 0.66143 0.595 0.07057 0.0
C1043 C 0.59814 0.64137 0.06082 0.0
C1044 C 0.60309 0.58406 0.05435 0.0
C1045 C 0.58651 0.65819 0.0483 0.0
C1046 C 0.68482 0.53662 0.04876 0.0
C1047 C 0.67208 0.55414 0.04986 0.0
C1048 C 0.64519 0.59167 0.06602 0.0
C1049 C 0.59637 0.62187 0.04408 0.0
C1050 C 0.61039 0.60455 0.05409 0.0
C1051 C 0.65261 0.55337 0.06711 0.0
C1052 C 0.638 0.57113 0.06479 0.0
H1053 H 0.55999 0.63367 0.98059 0.0
H1054 H 0.58033 0.60462 0.00196 0.0
H1055 H 0.63776 0.62378 0.0603 0.0
H1056 H 0.6538 0.50334 0.09592 0.0
H1057 H 0.632 0.53393 0.09888 0.0
C1058 C 0.54087 0.30799 0.93652 0.0
C1059 C 0.52339 0.31317 0.91574 0.0
C1060 C 0.55868 0.32036 0.93516 0.0
C1061 C 0.57323 0.3743 0.91463 0.0
H1062 H 0.62906 0.35407 0.92971 0.0
C1063 C 0.66253 0.40635 0.9376 0.0
C1064 C 0.65837 0.42124 0.96455 0.0
C1065 C 0.64659 0.3939 0.92388 0.0
C1066 C 0.61362 0.35998 0.92486 0.0
H1067 H 0.51145 0.33433 0.87505 0.0
H1068 H 0.54257 0.35545 0.87196 0.0
H1069 H 0.60095 0.32945 0.91936 0.0
H1070 H 0.63401 0.43564 0.99637 0.0
H1071 H 0.6064 0.41402 0.97261 0.0
H1072 H 0.58581 0.40477 0.9203 0.0
C1073 C 0.54236 0.34231 0.89024 0.0
C1074 C 0.59747 0.34585 0.91941 0.0
C1075 C 0.52455 0.33013 0.89189 0.0
C1076 C 0.63778 0.42429 0.97573 0.0
C1077 C 0.6219 0.41193 0.96194 0.0
C1078 C 0.58935 0.38838 0.91998 0.0
C1079 C 0.5594 0.33801 0.91271 0.0
C1080 C 0.57701 0.35284 0.91492 0.0
C1081 C 0.62619 0.3962 0.93662 0.0
C1082 C 0.60965 0.38139 0.92597 0.0
H1083 H 0.54042 0.29502 0.95517 0.0
H1084 H 0.57146 0.31666 0.95304 0.0
H1085 H 0.55766 0.38028 0.9117 0.0
H1086 H 0.67822 0.4036 0.92837 0.0
H1087 H 0.65033 0.3821 0.904 0.0
C1088 C 0.2731 0.96188 0.67069 0.0
C1089 C 0.26799 0.97516 0.64174 0.0
C1090 C 0.27925 0.96988 0.70418 0.0
C1091 C 0.27002 0.01685 0.75737 0.0
H1092 H 0.30079 0.98689 0.831 0.0
C1093 C 0.26623 0.04278 0.90491 0.0
C1094 C 0.26067 0.02714 0.92965 0.0
C1095 C 0.2736 0.03777 0.87044 0.0
C1096 C 0.29219 0.99543 0.81068 0.0
H1097 H 0.26764 0.00718 0.62412 0.0
H1098 H 0.27897 0.02119 0.68247 0.0
H1099 H 0.30361 0.97653 0.76723 0.0
H1100 H 0.25993 0.99401 0.93864 0.0
H1101 H 0.27253 0.98515 0.87774 0.0
H1102 H 0.25817 0.03538 0.80062 0.0
C1103 C 0.27754 0.00457 0.67954 0.0
C1104 C 0.29379 0.98953 0.77415 0.0
C1105 C 0.27122 0.99654 0.64596 0.0
C1106 C 0.26405 0.00636 0.9201 0.0
C1107 C 0.27133 0.00132 0.88528 0.0
C1108 C 0.26857 0.02282 0.79368 0.0
C1109 C 0.28063 0.99138 0.70956 0.0
C1110 C 0.28225 -0.00018 0.74715 0.0
C1111 C 0.27545 0.01701 0.85968 0.0
C1112 C 0.27923 0.0119 0.82088 0.0
H1113 H 0.27107 0.94528 0.6683 0.0
H1114 H 0.28138 0.95919 0.7265 0.0
H1115 H 0.26054 0.02491 0.73767 0.0
H1116 H 0.26419 0.05897 0.91173 0.0
H1117 H 0.27709 0.05021 0.85165 0.0
C1118 C -0.00246 0.72121 0.3438 0.0
C1119 C 0.97612 0.72351 0.34911 0.0
C1120 C 0.00528 0.71575 0.30958 0.0
C1121 C 0.98964 0.70139 0.21437 0.0
H1122 H 0.03215 0.74135 0.18951 0.0
C1123 C 0.00218 0.73552 0.06996 0.0
C1124 C 0.02254 0.74063 0.05989 0.0
C1125 C -0.00191 0.72751 0.10466 0.0
C1126 C 0.02056 0.72977 0.19592 0.0
H1127 H 0.94597 0.7192 0.32408 0.0
H1128 H 0.95935 0.71031 0.26473 0.0
H1129 H 0.02309 0.73609 0.25253 0.0
H1130 H 0.05472 0.73966 0.07691 0.0
H1131 H 0.04763 0.7255 0.13667 0.0
H1132 H 0.98654 0.696 0.15706 0.0
C1133 C 0.9703 0.71263 0.28663 0.0
C1134 C 0.01541 0.72665 0.23227 0.0
C1135 C 0.96259 0.71793 0.32078 0.0
C1136 C 0.03879 0.73634 0.08414 0.0
C1137 C 0.03475 0.72821 0.11845 0.0
C1138 C 0.99475 0.70461 0.17781 0.0
C1139 C 0.99174 0.7126 0.28007 0.0
C1140 C -0.00043 0.71277 0.24201 0.0
C1141 C 0.01432 0.72436 0.12962 0.0
C1142 C 0.01001 0.71914 0.1682 0.0
H1143 H 0.00839 0.72514 0.36516 0.0
H1144 H 0.0219 0.71528 0.3057 0.0
H1145 H 0.97752 0.6904 0.22091 0.0
H1146 H 0.98938 0.73858 0.05174 0.0
H1147 H 0.98215 0.72478 0.11255 0.0
C1148 C 0.724 0.99453 0.93909 0.0
C1149 C 0.73365 0.97514 0.94299 0.0
C1150 C 0.71414 -0.00021 0.90638 0.0
C1151 C 0.6964 0.97681 0.81797 0.0
H1152 H 0.71438 0.0292 0.77746 0.0
C1153 C 0.72719 0.98955 0.67553 0.0
C1154 C 0.72237 0.0078 0.65675 0.0
C1155 C 0.71862 0.98576 0.70968 0.0
C1156 C 0.70869 0.01474 0.7886 0.0
H1157 H 0.73962 0.94577 0.91608 0.0
H1158 H 0.72314 0.95499 0.85976 0.0
H1159 H 0.7183 0.02288 0.84232 0.0
H1160 H 0.70407 0.03588 0.65763 0.0
H1161 H 0.68961 0.02959 0.71836 0.0
H1162 H 0.6888 0.96799 0.76341 0.0
C1163 C 0.72274 0.96612 0.88176 0.0
C1164 C 0.71093 0.01111 0.82584 0.0
C1165 C 0.73253 0.96092 0.91412 0.0
C1166 C 0.70773 0.02153 0.67146 0.0
C1167 C 0.69958 0.01802 0.70618 0.0
C1168 C 0.69451 0.98033 0.78069 0.0
C1169 C 0.71363 0.98568 0.87717 0.0
C1170 C 0.70586 0.99167 0.84059 0.0
C1171 C 0.70554 0.00044 0.72603 0.0
C1172 C 0.70154 -0.00105 0.7655 0.0
H1173 H 0.72448 0.00578 0.96091 0.0
H1174 H 0.70721 0.01498 0.90376 0.0
H1175 H 0.69178 0.96188 0.82866 0.0
H1176 H 0.73861 0.97889 0.66481 0.0
H1177 H 0.72365 0.97221 0.7246 0.0
C1178 C 0.95808 0.26188 0.09482 0.0
C1179 C 0.97179 0.2592 0.06548 0.0
C1180 C 0.96485 0.27047 0.12741 0.0
C1181 C 0.01244 0.27502 0.18063 0.0
H1182 H 0.9753 0.30189 0.24884 0.0
C1183 C -0.00119 0.26934 0.34055 0.0
C1184 C 0.01956 0.26973 0.35195 0.0
C1185 C 0.9935 0.27628 0.30573 0.0
C1186 C 0.9859 0.29454 0.23002 0.0
H1187 H 0.00311 0.26484 0.04667 0.0
H1188 H 0.01499 0.28019 0.10383 0.0
H1189 H 0.9657 0.29945 0.18475 0.0
H1190 H 0.05053 0.28006 0.33783 0.0
H1191 H 0.0412 0.29232 0.27748 0.0
H1192 H 0.03233 0.26954 0.22591 0.0
C1193 C -0.00099 0.27522 0.10166 0.0
C1194 C 0.98041 0.29307 0.19333 0.0
C1195 C 0.99221 0.26652 0.06884 0.0
C1196 C 0.03444 0.27925 0.32956 0.0
C1197 C 0.02914 0.28621 0.29493 0.0
C1198 C 0.01801 0.27669 0.21714 0.0
C1199 C 0.98552 0.27678 0.13168 0.0
C1200 C 0.99324 0.28252 0.16847 0.0
C1201 C 0.00885 0.28378 0.28193 0.0
C1202 C 0.00448 0.2858 0.24248 0.0
H1203 H 0.94216 0.25664 0.09318 0.0
H1204 H 0.95404 0.27108 0.1499 0.0
H1205 H 0.02262 0.26656 0.16254 0.0
H1206 H 0.98701 0.26208 0.35718 0.0
H1207 H 0.97772 0.27417 0.29646 0.0
C1208 C 0.72708 -0.0017 0.16513 0.0
C1209 C 0.7232 0.97801 0.15332 0.0
C1210 C 0.72146 0.00442 0.2002 0.0
C1211 C 0.71351 0.97934 0.28933 0.0
H1212 H 0.71097 0.03648 0.32128 0.0
C1213 C 0.72282 0.0054 0.44013 0.0
C1214 C 0.74024 0.01833 0.44376 0.0
C1215 C 0.71471 0.00103 0.40565 0.0
C1216 C 0.71138 0.02043 0.31271 0.0
H1217 H 0.70814 0.94904 0.16693 0.0
H1218 H 0.69721 0.96006 0.22728 0.0
H1219 H 0.70503 0.02821 0.25738 0.0
H1220 H 0.76235 0.03735 0.41441 0.0
H1221 H 0.74791 0.03008 0.35461 0.0
H1222 H 0.7201 0.97174 0.34482 0.0
C1223 C 0.70551 0.97098 0.21035 0.0
C1224 C 0.70816 0.01567 0.27609 0.0
C1225 C 0.71156 0.96471 0.1756 0.0
C1226 C 0.74905 0.02716 0.41247 0.0
C1227 C 0.74067 0.02321 0.37828 0.0
C1228 C 0.71631 0.98408 0.32603 0.0
C1229 C 0.71146 0.99048 0.22393 0.0
C1230 C 0.7101 0.99515 0.26359 0.0
C1231 C 0.72353 0.01002 0.37452 0.0
C1232 C 0.7161 0.00473 0.33771 0.0
H1233 H 0.73613 0.00884 0.14862 0.0
H1234 H 0.72649 0.01951 0.20946 0.0
H1235 H 0.71545 0.96338 0.281 0.0
H1236 H 0.71571 -0.00157 0.46382 0.0
H1237 H 0.70155 0.99069 0.40326 0.0
C1238 C 0.03557 0.26174 0.58681 0.0
C1239 C 0.02 0.25592 0.56216 0.0
C1240 C 0.03049 0.26885 0.62142 0.0
C1241 C 0.98756 0.28557 0.68195 0.0
H1242 H 0.01923 0.25567 0.75442 0.0
C1243 C 0.95646 0.26508 0.82332 0.0
C1244 C 0.97031 0.26151 0.85214 0.0
C1245 C 0.9637 0.27123 0.7893 0.0
C1246 C 0.01052 0.26464 0.73483 0.0
H1247 H 0.98688 0.25433 0.55343 0.0
H1248 H 0.97787 0.26632 0.61464 0.0
H1249 H 0.02931 0.25371 0.69122 0.0
H1250 H 0.00245 0.26369 0.86876 0.0
H1251 H 0.01512 0.27488 0.80936 0.0
H1252 H 0.96834 0.29594 0.72583 0.0
C1253 C 0.99404 0.26562 0.60694 0.0
C1254 C 0.01628 0.26345 0.69839 0.0
C1255 C -0.00084 0.2587 0.57194 0.0
C1256 C 0.99139 0.26609 0.84706 0.0
C1257 C -0.00134 0.27235 0.81292 0.0
C1258 C 0.98182 0.28686 0.7186 0.0
C1259 C 0.0097 0.27004 0.63246 0.0
C1260 C 0.00464 0.27352 0.6714 0.0
C1261 C 0.98499 0.27409 0.78323 0.0
C1262 C 0.99295 0.27597 0.74538 0.0
H1263 H 0.05178 0.26014 0.57976 0.0
H1264 H 0.0429 0.27262 0.64008 0.0
H1265 H 0.97843 0.29372 0.66184 0.0
H1266 H 0.94006 0.26195 0.82636 0.0
H1267 H 0.9527 0.27229 0.76719 0.0
C1268 C 0.26617 0.9557 0.40531 0.0
C1269 C 0.25992 0.97121 0.42979 0.0
C1270 C 0.27376 0.96084 0.37107 0.0
C1271 C 0.29203 0.00345 0.31177 0.0
H1272 H 0.26164 0.97324 0.23791 0.0
C1273 C 0.27374 0.03642 0.17121 0.0
C1274 C 0.26897 0.02302 0.14223 0.0
C1275 C 0.27979 0.02857 0.20483 0.0
C1276 C 0.27079 0.9815 0.25786 0.0
H1277 H 0.25819 0.00433 0.43861 0.0
H1278 H 0.27121 0.01343 0.37806 0.0
H1279 H 0.25882 0.96284 0.30083 0.0
H1280 H 0.26921 0.99097 0.12467 0.0
H1281 H 0.28041 0.97723 0.18325 0.0
H1282 H 0.30361 0.02246 0.26861 0.0
C1283 C 0.27035 -0.00275 0.38566 0.0
C1284 C 0.26906 0.97558 0.29414 0.0
C1285 C 0.26283 0.99206 0.42025 0.0
C1286 C 0.27251 0.0017 0.14654 0.0
C1287 C 0.27875 0.99383 0.18025 0.0
C1288 C 0.29392 0.0093 0.27527 0.0
C1289 C 0.27517 0.98163 0.36029 0.0
C1290 C 0.27925 0.98676 0.32161 0.0
C1291 C 0.28143 0.0071 0.21031 0.0
C1292 C 0.28284 -0.00126 0.24795 0.0
H1293 H 0.26451 0.93946 0.41214 0.0
H1294 H 0.27778 0.94848 0.35244 0.0
H1295 H 0.30027 0.01219 0.33233 0.0
H1296 H 0.27147 0.05298 0.16874 0.0
H1297 H 0.28162 0.03933 0.22716 0.0
C1298 C 0.02765 0.71236 0.8295 0.0
C1299 C 0.01395 0.72422 0.85067 0.0
C1300 C 0.02184 0.70546 0.79508 0.0
C1301 C 0.01341 0.7152 0.71653 0.0
H1302 H 0.95861 0.70063 0.68215 0.0
C1303 C 0.99114 0.72661 0.56626 0.0
C1304 C 0.97219 0.73697 0.56167 0.0
C1305 C 0.99628 0.7179 0.59998 0.0
C1306 C 0.97403 0.70467 0.69131 0.0
H1307 H 0.98271 0.73623 0.8542 0.0
H1308 H 0.97254 0.72434 0.79376 0.0
H1309 H 0.9668 0.69726 0.74669 0.0
H1310 H 0.94337 0.74534 0.58851 0.0
H1311 H 0.95246 0.73078 0.64665 0.0
H1312 H 0.02034 0.72389 0.66189 0.0
C1313 C 0.98776 0.72026 0.80382 0.0
C1314 C 0.9787 0.70268 0.72825 0.0
C1315 C 0.99355 0.72707 0.8385 0.0
C1316 C 0.95821 0.73765 0.59099 0.0
C1317 C 0.96331 0.72901 0.62442 0.0
C1318 C 0.0087 0.71734 0.67972 0.0
C1319 C 0.00225 0.7104 0.78103 0.0
C1320 C -0.00176 0.70855 0.74142 0.0
C1321 C 0.98253 0.71932 0.62963 0.0
C1322 C 0.98873 0.71284 0.66687 0.0
H1323 H 0.04341 0.7097 0.83848 0.0
H1324 H 0.03317 0.69748 0.77849 0.0
H1325 H 0.02855 0.72013 0.7258 0.0
H1326 H 0.00219 0.72567 0.54417 0.0
H1327 H 0.01116 0.71037 0.60302 0.0
C1328 C 0.73948 0.52067 0.40414 0.0
C1329 C 0.75075 0.5157 0.43551 0.0
C1330 C 0.74733 0.51627 0.36985 0.0
C1331 C 0.78502 0.48442 0.31985 0.0
H1332 H 0.7686 0.5223 0.24347 0.0
C1333 C 0.76913 0.45695 0.17625 0.0
C1334 C 0.76719 0.47111 0.14745 0.0
C1335 C 0.77551 0.46352 0.21052 0.0
C1336 C 0.77395 0.51169 0.26417 0.0
H1337 H 0.77895 0.50169 0.4557 0.0
H1338 H 0.79307 0.49417 0.39504 0.0
H1339 H 0.76362 0.53198 0.30613 0.0
H1340 H 0.77299 0.50281 0.13098 0.0
H1341 H 0.78517 0.51415 0.19048 0.0
H1342 H 0.79583 0.4643 0.2778 0.0
C1343 C 0.77799 0.50139 0.39721 0.0
C1344 C 0.77067 0.51713 0.30036 0.0
C1345 C 0.76992 0.50562 0.43189 0.0
C1346 C 0.77393 0.49158 0.15276 0.0
C1347 C 0.78075 0.4981 0.18705 0.0
C1348 C 0.78876 0.47914 0.28353 0.0
C1349 C 0.7669 0.50705 0.36577 0.0
C1350 C 0.77497 0.50306 0.32852 0.0
C1351 C 0.78053 0.4844 0.21692 0.0
C1352 C 0.78214 0.49218 0.25508 0.0
H1353 H 0.72449 0.52813 0.40604 0.0
H1354 H 0.73792 0.5201 0.34645 0.0
H1355 H 0.78882 0.47332 0.34085 0.0
H1356 H 0.76432 0.44097 0.17318 0.0
H1357 H 0.77491 0.45239 0.23246 0.0
C1358 C 0.49728 0.22846 0.55967 0.0
C1359 C 0.51702 0.2374 0.55579 0.0
C1360 C 0.49124 0.21976 0.59296 0.0
C1361 C 0.51174 0.20329 0.68364 0.0
H1362 H 0.45898 0.22348 0.71899 0.0
C1363 C 0.49502 0.22501 0.83191 0.0
C1364 C 0.47449 0.22425 0.84445 0.0
C1365 C 0.49984 0.21826 0.79677 0.0
C1366 C 0.47356 0.21721 0.70946 0.0
H1367 H 0.54624 0.24319 0.58333 0.0
H1368 H 0.53566 0.22855 0.64076 0.0
H1369 H 0.46762 0.22733 0.65521 0.0
H1370 H 0.44349 0.21337 0.83202 0.0
H1371 H 0.45199 0.20129 0.77112 0.0
H1372 H 0.51811 0.19431 0.73859 0.0
C1373 C 0.52485 0.22795 0.6183 0.0
C1374 C 0.47851 0.21942 0.67274 0.0
C1375 C 0.53083 0.23664 0.58532 0.0
C1376 C 0.4594 0.21447 0.82286 0.0
C1377 C 0.46423 0.20763 0.7879 0.0
C1378 C 0.50683 0.20117 0.72047 0.0
C1379 C 0.50489 0.21972 0.62282 0.0
C1380 C 0.49798 0.21323 0.65966 0.0
C1381 C 0.48423 0.21053 0.77373 0.0
C1382 C 0.48797 0.20876 0.734 0.0
H1383 H 0.48634 0.22867 0.53738 0.0
H1384 H 0.47578 0.21341 0.59551 0.0
H1385 H 0.52672 0.19795 0.67425 0.0
H1386 H 0.50697 0.23248 0.84789 0.0
H1387 H 0.51541 0.22075 0.78668 0.0
C1388 C 0.23277 0.48965 0.16169 0.0
C1389 C 0.22682 0.50771 0.14337 0.0
C1390 C 0.22425 0.48492 0.19551 0.0
C1391 C 0.20004 0.477 0.26563 0.0
H1392 H 0.2199 0.52049 0.32949 0.0
C1393 C 0.22553 0.49159 0.42604 0.0
C1394 C 0.23626 0.4728 0.43022 0.0
C1395 C 0.21618 0.49655 0.39274 0.0
C1396 C 0.21363 0.50839 0.31234 0.0
H1397 H 0.20663 0.53445 0.14469 0.0
H1398 H 0.19222 0.52654 0.20488 0.0
H1399 H 0.21633 0.52721 0.26468 0.0
H1400 H 0.24493 0.44422 0.40292 0.0
H1401 H 0.22932 0.45297 0.34559 0.0
H1402 H 0.19807 0.45789 0.31291 0.0
C1403 C 0.20306 0.51583 0.19258 0.0
C1404 C 0.21159 0.51226 0.27514 0.0
C1405 C 0.21119 0.52026 0.15817 0.0
C1406 C 0.2369 0.4589 0.40083 0.0
C1407 C 0.22763 0.4638 0.36786 0.0
C1408 C 0.20174 0.47323 0.30286 0.0
C1409 C 0.21008 0.49849 0.21201 0.0
C1410 C 0.20586 0.49626 0.25129 0.0
C1411 C 0.2173 0.48274 0.36315 0.0
C1412 C 0.20978 0.48849 0.32631 0.0
H1413 H 0.24496 0.4799 0.15089 0.0
H1414 H 0.23011 0.47159 0.21011 0.0
H1415 H 0.19543 0.46448 0.24776 0.0
H1416 H 0.22464 0.50259 0.44821 0.0
H1417 H 0.20829 0.51125 0.39002 0.0
C1418 C 0.49543 0.76472 0.56641 0.0
C1419 C 0.47552 0.756 0.56386 0.0
C1420 C 0.50214 0.77365 0.5991 0.0
C1421 C 0.48373 0.79103 0.69068 0.0
H1422 H 0.53669 0.76983 0.723 0.0
C1423 C 0.50308 0.77119 0.83889 0.0
C1424 C 0.52389 0.77147 0.85 0.0
C1425 C 0.49772 0.77736 0.80367 0.0
C1426 C 0.52208 0.77639 0.71431 0.0
H1427 H 0.44666 0.75101 0.59296 0.0
H1428 H 0.45838 0.7661 0.64943 0.0
H1429 H 0.52665 0.76573 0.65995 0.0
H1430 H 0.55496 0.78085 0.8347 0.0
H1431 H 0.54554 0.792 0.77371 0.0
H1432 H 0.47875 0.80065 0.74577 0.0
C1433 C 0.46883 0.7663 0.62639 0.0
C1434 C 0.51632 0.77403 0.67799 0.0
C1435 C 0.46218 0.75736 0.59399 0.0
C1436 C 0.53883 0.78014 0.82669 0.0
C1437 C 0.53346 0.78643 0.79167 0.0
C1438 C 0.48947 0.79334 0.72711 0.0
C1439 C 0.48902 0.77415 0.62969 0.0
C1440 C 0.49676 0.78063 0.66602 0.0
C1441 C 0.51306 0.78405 0.7791 0.0
C1442 C 0.50843 0.78541 0.73959 0.0
H1443 H 0.50603 0.76403 0.54363 0.0
H1444 H 0.51775 0.77974 0.60067 0.0
H1445 H 0.4687 0.79666 0.68215 0.0
H1446 H 0.49122 0.76457 0.85619 0.0
H1447 H 0.48185 0.77527 0.79487 0.0
C1448 C 0.24864 0.53774 0.90299 0.0
C1449 C 0.2436 0.52349 0.9303 0.0
C1450 C 0.24114 0.53517 0.86784 0.0
C1451 C 0.20491 0.50386 0.81014 0.0
H1452 H 0.245 0.51837 0.73591 0.0
C1453 C 0.214 0.46691 0.66823 0.0
C1454 C 0.22174 0.47946 0.64004 0.0
C1455 C 0.2096 0.47542 0.70226 0.0
C1456 C 0.23339 0.51465 0.75615 0.0
H1457 H 0.22626 0.49575 0.94302 0.0
H1458 H 0.21419 0.49025 0.8806 0.0
H1459 H 0.25237 0.52631 0.79861 0.0
H1460 H 0.22813 0.51116 0.62399 0.0
H1461 H 0.22053 0.52594 0.68347 0.0
H1462 H 0.18675 0.49071 0.76692 0.0
C1463 C 0.22338 0.50387 0.88652 0.0
C1464 C 0.23759 0.51923 0.79234 0.0
C1465 C 0.23043 0.50684 0.92218 0.0
C1466 C 0.22244 0.50102 0.6452 0.0
C1467 C 0.21816 0.50949 0.67931 0.0
C1468 C 0.20087 0.49891 0.77372 0.0
C1469 C 0.22897 0.51784 0.85872 0.0
C1470 C 0.22352 0.51381 0.81997 0.0
C1471 C 0.21293 0.49659 0.70867 0.0
C1472 C 0.21518 0.50417 0.74645 0.0
H1473 H 0.25836 0.55101 0.90889 0.0
H1474 H 0.24517 0.5467 0.8477 0.0
H1475 H 0.19357 0.49967 0.83053 0.0
H1476 H 0.21298 0.45027 0.66497 0.0
H1477 H 0.20555 0.46511 0.72437 0.0
C1478 C 0.501 0.76245 0.07115 0.0
C1479 C 0.52184 0.7593 0.06182 0.0
C1480 C 0.49576 0.76951 0.10602 0.0
C1481 C 0.51756 0.76708 0.19784 0.0
H1482 H 0.46978 0.79995 0.22477 0.0
C1483 C 0.49278 0.77002 0.3462 0.0
C1484 C 0.4717 0.76549 0.35143 0.0
C1485 C 0.49998 0.77637 0.31209 0.0
C1486 C 0.48321 0.79076 0.21768 0.0
H1487 H 0.55357 0.76302 0.07997 0.0
H1488 H 0.54452 0.77583 0.14001 0.0
H1489 H 0.48004 0.79759 0.16086 0.0
H1490 H 0.44137 0.76625 0.32592 0.0
H1491 H 0.45392 0.77671 0.26673 0.0
H1492 H 0.52031 0.75936 0.25389 0.0
C1493 C 0.53216 0.7722 0.12116 0.0
C1494 C 0.48905 0.7894 0.18108 0.0
C1495 C 0.53734 0.76493 0.08671 0.0
C1496 C 0.45777 0.76934 0.32281 0.0
C1497 C 0.46497 0.77553 0.28875 0.0
C1498 C 0.51171 0.76837 0.23422 0.0
C1499 C 0.51133 0.77372 0.13183 0.0
C1500 C 0.5061 0.77723 0.17071 0.0
C1501 C 0.48627 0.7782 0.2825 0.0
C1502 C 0.49422 0.77987 0.24461 0.0
H1503 H 0.48876 0.75822 0.05242 0.0
H1504 H 0.47956 0.77045 0.11342 0.0
H1505 H 0.53053 0.75722 0.19085 0.0
H1506 H 0.50391 0.76747 0.36774 0.0
H1507 H 0.51645 0.77881 0.30844 0.0
C1508 C 0.77519 0.46807 0.92333 0.0
C1509 C 0.76012 0.48079 0.93924 0.0
C1510 C 0.78427 0.47356 0.89029 0.0
C1511 C 0.78532 0.51535 0.81907 0.0
H1512 H 0.79079 0.46825 0.75448 0.0
C1513 C 0.78578 0.52903 0.66653 0.0
C1514 C 0.77255 0.51579 0.6471 0.0
C1515 C 0.79269 0.52359 0.70119 0.0
C1516 C 0.78928 0.48162 0.77202 0.0
H1517 H 0.74313 0.50945 0.9344 0.0
H1518 H 0.75797 0.51865 0.87571 0.0
H1519 H 0.78606 0.46254 0.81884 0.0
H1520 H 0.75756 0.4858 0.64718 0.0
H1521 H 0.76868 0.47663 0.70793 0.0
H1522 H 0.78635 0.53435 0.77184 0.0
C1523 C 0.76358 0.50482 0.88906 0.0
C1524 C 0.78692 0.47837 0.80931 0.0
C1525 C 0.75493 0.49957 0.92267 0.0
C1526 C 0.76787 0.49624 0.66148 0.0
C1527 C 0.77434 0.491 0.6965 0.0
C1528 C 0.78718 0.51858 0.78169 0.0
C1529 C 0.7779 0.49153 0.8718 0.0
C1530 C 0.78417 0.49518 0.83327 0.0
C1531 C 0.78601 0.50505 0.71755 0.0
C1532 C 0.78843 0.50172 0.75747 0.0
H1533 H 0.77942 0.4535 0.93591 0.0
H1534 H 0.79567 0.46323 0.87861 0.0
H1535 H 0.78388 0.52873 0.83662 0.0
H1536 H 0.78978 0.54414 0.6558 0.0
H1537 H 0.80227 0.53451 0.71592 0.0
C1538 C 0.53076 0.21257 0.32255 0.0
C1539 C 0.51647 0.22342 0.34422 0.0
C1540 C 0.52559 0.20657 0.28729 0.0
C1541 C 0.48314 0.20433 0.21897 0.0
H1542 H 0.52494 0.22756 0.15504 0.0
C1543 C 0.46313 0.24202 0.08388 0.0
C1544 C 0.47706 0.24164 0.05446 0.0
C1545 C 0.46824 0.23293 0.11693 0.0
C1546 C 0.51329 0.22048 0.17219 0.0
H1547 H 0.48488 0.23452 0.34741 0.0
H1548 H 0.47583 0.22419 0.28562 0.0
H1549 H 0.5327 0.22267 0.21897 0.0
H1550 H 0.50703 0.23057 0.03643 0.0
H1551 H 0.51609 0.21459 0.09478 0.0
H1552 H 0.46346 0.20295 0.17226 0.0
C1553 C 0.49103 0.22023 0.29591 0.0
C1554 C 0.51772 0.21767 0.20899 0.0
C1555 C 0.49619 0.22616 0.33138 0.0
C1556 C 0.49602 0.23125 0.05861 0.0
C1557 C 0.50121 0.22214 0.09202 0.0
C1558 C 0.47874 0.20703 0.18208 0.0
C1559 C 0.50605 0.21137 0.27289 0.0
C1560 C 0.50246 0.21028 0.23305 0.0
C1561 C 0.48743 0.22312 0.12169 0.0
C1562 C 0.49349 0.21594 0.15857 0.0
H1563 H 0.54645 0.20998 0.33195 0.0
H1564 H 0.53733 0.19933 0.27052 0.0
H1565 H 0.47118 0.19831 0.23672 0.0
H1566 H 0.44828 0.24971 0.08172 0.0
H1567 H 0.45739 0.23437 0.13924 0.0
C1568 C 0.37161 0.23241 0.94198 0.0
C1569 C 0.3841 0.24051 0.96979 0.0
C1570 C 0.35493 0.21957 0.95024 0.0
C1571 C 0.32113 0.20086 0.02481 0.0
H1572 H 0.31652 0.15265 0.96243 0.0
C1573 C 0.27292 0.12718 0.0583 0.0
C1574 C 0.26169 0.11849 0.0293 0.0
C1575 C 0.28621 0.14394 0.05232 0.0
C1576 C 0.31745 0.16615 0.97984 0.0
H1577 H 0.38845 0.2422 0.02816 0.0
H1578 H 0.35955 0.21923 0.0426 0.0
H1579 H 0.34268 0.17864 0.94957 0.0
H1580 H 0.25486 0.12124 0.9717 0.0
H1581 H 0.27798 0.15035 0.96147 0.0
H1582 H 0.29606 0.18783 0.05557 0.0
C1583 C 0.36247 0.2231 0.01443 0.0
C1584 C 0.33239 0.18109 0.97243 0.0
C1585 C 0.37908 0.23617 0.00616 0.0
C1586 C 0.26342 0.12739 0.99459 0.0
C1587 C 0.27671 0.14404 0.98865 0.0
C1588 C 0.3062 0.18577 0.03238 0.0
C1589 C 0.35051 0.2143 0.98647 0.0
C1590 C 0.33435 0.19868 0.99465 0.0
C1591 C 0.28853 0.1522 0.01726 0.0
C1592 C 0.30417 0.16835 0.00978 0.0
H1593 H 0.3749 0.23575 0.91371 0.0
H1594 H 0.34569 0.21346 0.92813 0.0
H1595 H 0.32219 0.21431 0.04229 0.0
H1596 H 0.27185 0.12073 0.0854 0.0
H1597 H 0.29524 0.14991 0.0748 0.0
C1598 C 0.22 0.62068 0.05673 0.0
C1599 C 0.21771 0.60114 0.04045 0.0
C1600 C 0.20622 0.63662 0.04862 0.0
C1601 C 0.15526 0.64731 0.00579 0.0
H1602 H 0.17808 0.70262 0.9953 0.0
C1603 C 0.11052 0.71388 0.9389 0.0
C1604 C 0.10827 0.73151 0.96095 0.0
C1605 C 0.12465 0.69848 0.94819 0.0
C1606 C 0.17157 0.68724 0.99829 0.0
H1607 H 0.1991 0.5828 0.00343 0.0
H1608 H 0.17547 0.61079 0.98824 0.0
H1609 H 0.20064 0.67417 0.01356 0.0
H1610 H 0.1198 0.74741 0.00883 0.0
H1611 H 0.14493 0.72055 0.02453 0.0
H1612 H 0.12632 0.66044 0.98929 0.0
C1613 C 0.18754 0.61372 0.00801 0.0
C1614 C 0.18438 0.67098 0.009 0.0
C1615 C 0.20112 0.59767 0.01659 0.0
C1616 C 0.12115 0.73394 0.99143 0.0
C1617 C 0.13554 0.71866 0.00037 0.0
C1618 C 0.14255 0.66351 0.99452 0.0
C1619 C 0.19008 0.63345 0.0236 0.0
C1620 C 0.17636 0.65082 0.01292 0.0
C1621 C 0.13701 0.70062 0.97928 0.0
C1622 C 0.15062 0.68357 0.9907 0.0
H1623 H 0.23255 0.6237 0.07553 0.0
H1624 H 0.20834 0.65147 0.0618 0.0
H1625 H 0.14848 0.63209 0.00918 0.0
H1626 H 0.10078 0.71156 0.91528 0.0
H1627 H 0.12571 0.68473 0.9314 0.0
C1628 C 0.72897 0.87559 0.00119 0.0
C1629 C 0.73294 0.88241 0.03677 0.0
C1630 C 0.71682 0.85807 0.9951 0.0
C1631 C 0.67634 0.82704 0.03911 0.0
H1632 H 0.68636 0.78958 0.95857 0.0
C1633 C 0.62233 0.75863 0.01015 0.0
C1634 C 0.61513 0.75749 0.97416 0.0
C1635 C 0.63912 0.77124 0.01895 0.0
C1636 C 0.68342 0.79994 0.98113 0.0
H1637 H 0.72798 0.87576 0.09391 0.0
H1638 H 0.70707 0.84494 0.08327 0.0
H1639 H 0.71168 0.81657 0.97261 0.0
H1640 H 0.62055 0.76791 0.91888 0.0
H1641 H 0.64987 0.79005 0.93441 0.0
H1642 H 0.648 0.8106 0.04737 0.0
C1643 C 0.71298 0.85341 0.06007 0.0
C1644 C 0.69784 0.8154 0.98913 0.0
C1645 C 0.725 0.87103 0.06616 0.0
C1646 C 0.62565 0.76853 0.94689 0.0
C1647 C 0.64252 0.78109 0.95571 0.0
C1648 C 0.66202 0.81152 0.03128 0.0
C1649 C 0.70852 0.84691 0.02446 0.0
C1650 C 0.69428 0.82932 0.01786 0.0
C1651 C 0.64911 0.78288 0.99194 0.0
C1652 C 0.66528 0.79803 0.00191 0.0
H1653 H 0.73483 0.88405 0.97794 0.0
H1654 H 0.71342 0.85368 0.96734 0.0
H1655 H 0.67293 0.83772 0.061 0.0
H1656 H 0.61469 0.7502 0.03179 0.0
H1657 H 0.64408 0.77217 0.04703 0.0
C1658 C 0.761 0.37619 0.9782 0.0
C1659 C 0.7588 0.38249 0.01458 0.0
C1660 C 0.77278 0.35881 0.96947 0.0
C1661 C 0.79569 0.31149 0.00806 0.0
H1662 H 0.83709 0.31878 0.93273 0.0
C1663 C 0.86917 0.26234 -0.0005 0.0
C1664 C 0.87721 0.25713 0.96521 0.0
C1665 C 0.85197 0.2752 0.00244 0.0
C1666 C 0.82535 0.31631 0.95329 0.0
H1667 H 0.76684 0.37518 0.07039 0.0
H1668 H 0.78756 0.34492 0.05503 0.0
H1669 H 0.8118 0.34599 0.94375 0.0
H1670 H 0.87302 0.26074 0.90703 0.0
H1671 H 0.84279 0.28321 0.91226 0.0
H1672 H 0.80957 0.28199 0.01818 0.0
C1673 C 0.77999 0.35335 0.03335 0.0
C1674 C 0.81089 0.33191 0.95965 0.0
C1675 C 0.76827 0.37078 0.0421 0.0
C1676 C 0.86729 0.26459 0.93386 0.0
C1677 C 0.85002 0.27748 0.93683 0.0
C1678 C 0.81011 0.29585 0.00163 0.0
C1679 C 0.78251 0.34733 0.99693 0.0
C1680 C 0.79624 0.32983 0.98763 0.0
C1681 C 0.84237 0.28312 0.97118 0.0
C1682 C 0.82539 0.29833 0.97476 0.0
H1683 H 0.75382 0.38482 0.95634 0.0
H1684 H 0.77435 0.35439 0.9412 0.0
H1685 H 0.78433 0.30939 0.02941 0.0
H1686 H 0.87641 0.25683 0.02422 0.0
H1687 H 0.84663 0.27952 0.02931 0.0
C1688 C 0.70079 0.0967 0.52655 0.0
C1689 C 0.71713 0.10002 0.551 0.0
C1690 C 0.68743 0.11282 0.51753 0.0
C1691 C 0.68387 0.17004 0.51881 0.0
H1692 H 0.62608 0.15876 0.49784 0.0
C1693 C 0.61943 0.23173 0.49807 0.0
C1694 C 0.60739 0.22901 0.46662 0.0
C1695 C 0.63398 0.21683 0.50806 0.0
C1696 C 0.64223 0.16204 0.50347 0.0
H1697 H 0.73191 0.12253 0.58625 0.0
H1698 H 0.70803 0.15051 0.57166 0.0
H1699 H 0.64838 0.13077 0.51862 0.0
H1700 H 0.60153 0.20892 0.42041 0.0
H1701 H 0.6267 0.18271 0.43844 0.0
H1702 H 0.67728 0.20156 0.50462 0.0
C1703 C 0.70594 0.13565 0.5585 0.0
C1704 C 0.65503 0.14604 0.51521 0.0
C1705 C 0.71952 0.1196 0.56708 0.0
C1706 C 0.61061 0.21146 0.44476 0.0
C1707 C 0.62489 0.19643 0.4551 0.0
C1708 C 0.67094 0.18612 0.50765 0.0
C1709 C 0.6899 0.13252 0.53325 0.0
C1710 C 0.67606 0.14979 0.52261 0.0
C1711 C 0.63642 0.19887 0.48708 0.0
C1712 C 0.65011 0.18214 0.49951 0.0
H1713 H 0.69871 0.08181 0.51345 0.0
H1714 H 0.67551 0.10992 0.49747 0.0
H1715 H 0.70006 0.17342 0.5237 0.0
H1716 H 0.61732 0.24517 0.51532 0.0
H1717 H 0.64275 0.21895 0.53289 0.0
C1718 C 0.12454 0.2639 0.43724 0.0
C1719 C 0.11292 0.25647 0.46677 0.0
C1720 C 0.14164 0.27669 0.44306 0.0
C1721 C 0.17751 0.2961 0.51432 0.0
H1722 H 0.18033 0.34435 0.4518 0.0
C1723 C 0.22012 0.3717 0.55193 0.0
C1724 C 0.23154 0.38153 0.52436 0.0
C1725 C 0.20808 0.35431 0.54405 0.0
C1726 C 0.17994 0.33081 0.46914 0.0
H1727 H 0.1105 0.25605 0.5256 0.0
H1728 H 0.13994 0.2788 0.53568 0.0
H1729 H 0.15505 0.31739 0.43916 0.0
H1730 H 0.23971 0.38049 0.46711 0.0
H1731 H 0.2186 0.35023 0.45348 0.0
H1732 H 0.20199 0.31009 0.54506 0.0
C1733 C 0.13613 0.27445 0.50806 0.0
C1734 C 0.16551 0.31532 0.46186 0.0
C1735 C 0.11915 0.26152 0.50226 0.0
C1736 C 0.23102 0.37336 0.48896 0.0
C1737 C 0.21891 0.35607 0.48108 0.0
C1738 C 0.19187 0.31171 0.52177 0.0
C1739 C 0.14734 0.28246 0.47851 0.0
C1740 C 0.16395 0.29791 0.4846 0.0
C1741 C 0.20716 0.34653 0.50845 0.0
C1742 C 0.19304 0.32929 0.49944 0.0
H1743 H 0.12028 0.26007 0.40958 0.0
H1744 H 0.15021 0.28232 0.41976 0.0
H1745 H 0.17688 0.28273 0.53203 0.0
H1746 H 0.22026 0.37757 0.57951 0.0
H1747 H 0.19899 0.34733 0.56557 0.0
C1748 C 0.37339 0.75635 0.5137 0.0
C1749 C 0.38042 0.75471 0.47764 0.0
C1750 C 0.35636 0.76868 0.52207 0.0
C1751 C 0.31126 0.79539 0.48312 0.0
H1752 H 0.32101 0.83513 0.56033 0.0
C1753 C 0.26579 0.87117 0.49593 0.0
C1754 C 0.26129 0.87889 0.53074 0.0
C1755 C 0.27792 0.85351 0.49179 0.0
C1756 C 0.31782 0.82388 0.53922 0.0
H1757 H 0.37456 0.764 0.42191 0.0
H1758 H 0.34485 0.78571 0.4367 0.0
H1759 H 0.34643 0.8082 0.54858 0.0
H1760 H 0.26537 0.87375 0.58857 0.0
H1761 H 0.28638 0.84268 0.58129 0.0
H1762 H 0.28278 0.81133 0.47335 0.0
C1763 C 0.35249 0.77732 0.45837 0.0
C1764 C 0.3324 0.80848 0.53246 0.0
C1765 C 0.36959 0.76503 0.44996 0.0
C1766 C 0.26875 0.86829 0.56138 0.0
C1767 C 0.2808 0.85053 0.55722 0.0
C1768 C 0.29659 0.81074 0.49002 0.0
C1769 C 0.34598 0.77954 0.49458 0.0
C1770 C 0.32944 0.79436 0.50391 0.0
C1771 C 0.2857 0.84311 0.52237 0.0
C1772 C 0.29994 0.8254 0.51766 0.0
H1773 H 0.38127 0.74847 0.53566 0.0
H1774 H 0.35148 0.76998 0.55016 0.0
H1775 H 0.30853 0.7845 0.46124 0.0
H1776 H 0.2603 0.87899 0.47175 0.0
H1777 H 0.28171 0.84839 0.46456 0.0
C1778 C 0.8711 0.72426 0.43685 0.0
C1779 C 0.88159 0.73361 0.46601 0.0
C1780 C 0.8545 0.71092 0.44324 0.0
C1781 C 0.8173 0.69358 0.51383 0.0
H1782 H 0.81735 0.64277 0.45757 0.0
C1783 C 0.77276 0.61976 0.55555 0.0
C1784 C 0.76245 0.60884 0.5279 0.0
C1785 C 0.78544 0.63659 0.54707 0.0
C1786 C 0.81696 0.657 0.47315 0.0
H1787 H 0.88251 0.73678 0.5247 0.0
H1788 H 0.85386 0.71312 0.53587 0.0
H1789 H 0.84271 0.66958 0.44422 0.0
H1790 H 0.75703 0.60729 0.46971 0.0
H1791 H 0.77925 0.63662 0.45502 0.0
H1792 H 0.79185 0.68056 0.54346 0.0
C1793 C 0.85822 0.71637 0.50803 0.0
C1794 C 0.83144 0.67239 0.46546 0.0
C1795 C 0.87473 0.72984 0.50163 0.0
C1796 C 0.76481 0.61531 0.49166 0.0
C1797 C 0.77758 0.63205 0.4832 0.0
C1798 C 0.80287 0.67809 0.52168 0.0
C1799 C 0.84814 0.70651 0.47893 0.0
C1800 C 0.83188 0.69079 0.48587 0.0
C1801 C 0.78814 0.64273 0.51077 0.0
C1802 C 0.80268 0.65961 0.50155 0.0
H1803 H 0.87587 0.72704 0.40904 0.0
H1804 H 0.8468 0.70387 0.4202 0.0
H1805 H 0.81707 0.7077 0.52971 0.0
H1806 H 0.77121 0.6152 0.58375 0.0
H1807 H 0.79358 0.64445 0.56881 0.0
loop_
_geom_bond_atom_site_label_1
_geom_bond_atom_site_label_2
_geom_bond_distance
_geom_bond_site_symmetry_2
_ccdc_geom_bond_type
O0 Zn1 1.953 . S
O0 C16 1.225 . S
Zn1 O0 1.953 . S
Zn1 O2 1.949 . S
Zn1 O8 1.919 . S
Zn1 O13 1.924 . S
O2 Zn1 1.949 . S
O2 Zn3 1.923 . S
O2 Zn4 1.950 . S
O2 Zn5 1.945 . S
Zn3 O2 1.923 . S
Zn3 O6 1.933 . S
Zn3 O9 1.941 . S
Zn3 O10 1.965 . S
Zn4 O2 1.950 . S
Zn4 O11 1.938 . S
Zn4 O12 1.906 . S
Zn4 O22 1.953 . S
Zn5 O2 1.945 . S
Zn5 O7 1.932 1_554 S
Zn5 O14 1.977 . S
Zn5 O15 1.910 1_554 S
O6 Zn3 1.933 . S
O6 C17 1.226 1_554 S
O7 Zn5 1.932 1_556 S
O7 C17 1.307 . S
O8 Zn1 1.919 . S
O8 C19 1.253 . S
O9 Zn3 1.941 . S
O9 C19 1.283 . S
O10 Zn3 1.965 . S
O10 C18 1.303 . S
O11 Zn4 1.938 . S
O11 C18 1.247 . S
O12 Zn4 1.906 . S
O12 C20 1.304 . S
O13 Zn1 1.924 . S
O13 C21 1.311 . S
O14 Zn5 1.977 . S
O14 C20 1.272 . S
O15 Zn5 1.910 1_556 S
O15 C21 1.231 1_556 S
C16 O0 1.225 . S
C16 O22 1.298 . S
C17 O6 1.226 1_556 S
C17 O7 1.307 . S
C18 O10 1.303 . S
C18 O11 1.247 . S
C19 O8 1.253 . S
C19 O9 1.283 . S
C20 O12 1.304 . S
C20 O14 1.272 . S
C21 O13 1.311 . S
C21 O15 1.231 1_554 S
O22 Zn4 1.953 . S
O22 C16 1.298 . S
O23 Zn24 1.953 . S
O23 C39 1.225 . S
Zn24 O23 1.953 . S
Zn24 O25 1.949 . S
Zn24 O31 1.919 . S
Zn24 O36 1.924 . S
O25 Zn24 1.949 . S
O25 Zn26 1.923 . S
O25 Zn27 1.950 . S
O25 Zn28 1.945 . S
Zn26 O25 1.923 . S
Zn26 O29 1.933 . S
Zn26 O32 1.941 . S
Zn26 O33 1.965 . S
Zn27 O25 1.950 . S
Zn27 O34 1.938 . S
Zn27 O35 1.906 . S
Zn27 O45 1.953 . S
Zn28 O25 1.945 . S
Zn28 O30 1.932 1_556 S
Zn28 O37 1.977 . S
Zn28 O38 1.910 1_556 S
O29 Zn26 1.933 . S
O29 C40 1.226 1_556 S
O30 Zn28 1.932 1_554 S
O30 C40 1.307 . S
O31 Zn24 1.919 . S
O31 C42 1.253 . S
O32 Zn26 1.941 . S
O32 C42 1.283 . S
O33 Zn26 1.965 . S
O33 C41 1.303 . S
O34 Zn27 1.938 . S
O34 C41 1.247 . S
O35 Zn27 1.906 . S
O35 C43 1.304 . S
O36 Zn24 1.924 . S
O36 C44 1.311 . S
O37 Zn28 1.977 . S
O37 C43 1.272 . S
O38 Zn28 1.910 1_554 S
O38 C44 1.231 1_554 S
C39 O23 1.225 . S
C39 O45 1.298 . S
C40 O29 1.226 1_554 S
C40 O30 1.307 . S
C41 O33 1.303 . S
C41 O34 1.247 . S
C42 O31 1.253 . S
C42 O32 1.283 . S
C43 O35 1.304 . S
C43 O37 1.272 . S
C44 O36 1.311 . S
C44 O38 1.231 1_556 S
O45 Zn27 1.953 . S
O45 C39 1.298 . S
O46 Zn47 1.953 . S
O46 C62 1.225 . S
Zn47 O46 1.953 . S
Zn47 O48 1.949 . S
Zn47 O54 1.919 . S
Zn47 O59 1.924 . S
O48 Zn47 1.949 . S
O48 Zn49 1.923 . S
O48 Zn50 1.950 . S
O48 Zn51 1.945 . S
Zn49 O48 1.923 . S
Zn49 O52 1.933 . S
Zn49 O55 1.941 . S
Zn49 O56 1.965 . S
Zn50 O48 1.950 . S
Zn50 O57 1.938 . S
Zn50 O58 1.906 . S
Zn50 O68 1.953 . S
Zn51 O48 1.945 . S
Zn51 O53 1.932 1_554 S
Zn51 O60 1.977 . S
Zn51 O61 1.910 1_554 S
O52 Zn49 1.933 . S
O52 C63 1.226 1_554 S
O53 Zn51 1.932 1_556 S
O53 C63 1.307 . S
O54 Zn47 1.919 . S
O54 C65 1.253 . S
O55 Zn49 1.941 . S
O55 C65 1.283 . S
O56 Zn49 1.965 . S
O56 C64 1.303 . S
O57 Zn50 1.938 . S
O57 C64 1.247 . S
O58 Zn50 1.906 . S
O58 C66 1.304 . S
O59 Zn47 1.924 . S
O59 C67 1.311 . S
O60 Zn51 1.977 . S
O60 C66 1.272 . S
O61 Zn51 1.910 1_556 S
O61 C67 1.231 1_556 S
C62 O46 1.225 . S
C62 O68 1.298 . S
C63 O52 1.226 1_556 S
C63 O53 1.307 . S
C64 O56 1.303 . S
C64 O57 1.247 . S
C65 O54 1.253 . S
C65 O55 1.283 . S
C66 O58 1.304 . S
C66 O60 1.272 . S
C67 O59 1.311 . S
C67 O61 1.231 1_554 S
O68 Zn50 1.953 . S
O68 C62 1.298 . S
O69 Zn70 1.953 . S
O69 C85 1.225 . S
Zn70 O69 1.953 . S
Zn70 O71 1.949 . S
Zn70 O77 1.919 . S
Zn70 O82 1.924 . S
O71 Zn70 1.949 . S
O71 Zn72 1.923 . S
O71 Zn73 1.950 . S
O71 Zn74 1.945 . S
Zn72 O71 1.923 . S
Zn72 O75 1.933 . S
Zn72 O78 1.941 . S
Zn72 O79 1.965 . S
Zn73 O71 1.950 . S
Zn73 O80 1.938 . S
Zn73 O81 1.906 . S
Zn73 O91 1.953 . S
Zn74 O71 1.945 . S
Zn74 O76 1.932 1_556 S
Zn74 O83 1.977 . S
Zn74 O84 1.910 1_556 S
O75 Zn72 1.933 . S
O75 C86 1.226 1_556 S
O76 Zn74 1.932 1_554 S
O76 C86 1.307 . S
O77 Zn70 1.919 . S
O77 C88 1.253 . S
O78 Zn72 1.941 . S
O78 C88 1.283 . S
O79 Zn72 1.965 . S
O79 C87 1.303 . S
O80 Zn73 1.938 . S
O80 C87 1.247 . S
O81 Zn73 1.906 . S
O81 C89 1.304 . S
O82 Zn70 1.924 . S
O82 C90 1.311 . S
O83 Zn74 1.977 . S
O83 C89 1.272 . S
O84 Zn74 1.910 1_554 S
O84 C90 1.231 1_554 S
C85 O69 1.225 . S
C85 O91 1.298 . S
C86 O75 1.226 1_554 S
C86 O76 1.307 . S
C87 O79 1.303 . S
C87 O80 1.247 . S
C88 O77 1.253 . S
C88 O78 1.283 . S
C89 O81 1.304 . S
C89 O83 1.272 . S
C90 O82 1.311 . S
C90 O84 1.231 1_556 S
O91 Zn73 1.953 . S
O91 C85 1.298 . S
O92 Zn93 1.953 . S
O92 C108 1.225 . S
Zn93 O92 1.953 . S
Zn93 O94 1.949 . S
Zn93 O100 1.919 . S
Zn93 O105 1.924 . S
O94 Zn93 1.949 . S
O94 Zn95 1.923 . S
O94 Zn96 1.950 . S
O94 Zn97 1.945 . S
Zn95 O94 1.923 . S
Zn95 O98 1.933 . S
Zn95 O101 1.941 . S
Zn95 O102 1.965 . S
Zn96 O94 1.950 . S
Zn96 O103 1.938 . S
Zn96 O104 1.906 . S
Zn96 O114 1.953 . S
Zn97 O94 1.945 . S
Zn97 O99 1.932 . S
Zn97 O106 1.977 . S
Zn97 O107 1.910 . S
O98 Zn95 1.933 . S
O98 C109 1.226 . S
O99 Zn97 1.932 . S
O99 C109 1.307 . S
O100 Zn93 1.919 . S
O100 C111 1.253 . S
O101 Zn95 1.941 . S
O101 C111 1.283 . S
O102 Zn95 1.965 . S
O102 C110 1.303 . S
O103 Zn96 1.938 . S
O103 C110 1.247 . S
O104 Zn96 1.906 . S
O104 C112 1.304 . S
O105 Zn93 1.924 . S
O105 C113 1.311 . S
O106 Zn97 1.977 . S
O106 C112 1.272 . S
O107 Zn97 1.910 . S
O107 C113 1.231 . S
C108 O92 1.225 . S
C108 O114 1.298 . S
C109 O98 1.226 . S
C109 O99 1.307 . S
C110 O102 1.303 . S
C110 O103 1.247 . S
C111 O100 1.253 . S
C111 O101 1.283 . S
C112 O104 1.304 . S
C112 O106 1.272 . S
C113 O105 1.311 . S
C113 O107 1.231 . S
O114 Zn96 1.953 . S
O114 C108 1.298 . S
O115 Zn116 1.953 . S
O115 C131 1.225 . S
Zn116 O115 1.953 . S
Zn116 O117 1.949 . S
Zn116 O123 1.919 . S
Zn116 O128 1.924 . S
O117 Zn116 1.949 . S
O117 Zn118 1.923 . S
O117 Zn119 1.950 . S
O117 Zn120 1.945 . S
Zn118 O117 1.923 . S
Zn118 O121 1.933 . S
Zn118 O124 1.941 . S
Zn118 O125 1.965 . S
Zn119 O117 1.950 . S
Zn119 O126 1.938 . S
Zn119 O127 1.906 . S
Zn119 O137 1.953 . S
Zn120 O117 1.945 . S
Zn120 O122 1.932 . S
Zn120 O129 1.977 . S
Zn120 O130 1.910 . S
O121 Zn118 1.933 . S
O121 C132 1.226 . S
O122 Zn120 1.932 . S
O122 C132 1.307 . S
O123 Zn116 1.919 . S
O123 C134 1.253 . S
O124 Zn118 1.941 . S
O124 C134 1.283 . S
O125 Zn118 1.965 . S
O125 C133 1.303 . S
O126 Zn119 1.938 . S
O126 C133 1.247 . S
O127 Zn119 1.906 . S
O127 C135 1.304 . S
O128 Zn116 1.924 . S
O128 C136 1.311 . S
O129 Zn120 1.977 . S
O129 C135 1.272 . S
O130 Zn120 1.910 . S
O130 C136 1.231 . S
C131 O115 1.225 . S
C131 O137 1.298 . S
C132 O121 1.226 . S
C132 O122 1.307 . S
C133 O125 1.303 . S
C133 O126 1.247 . S
C134 O123 1.253 . S
C134 O124 1.283 . S
C135 O127 1.304 . S
C135 O129 1.272 . S
C136 O128 1.311 . S
C136 O130 1.231 . S
O137 Zn119 1.953 . S
O137 C131 1.298 . S
O138 Zn139 1.953 . S
O138 C154 1.225 . S
Zn139 O138 1.953 . S
Zn139 O140 1.949 . S
Zn139 O146 1.919 . S
Zn139 O151 1.924 . S
O140 Zn139 1.949 . S
O140 Zn141 1.923 . S
O140 Zn142 1.950 . S
O140 Zn143 1.945 . S
Zn141 O140 1.923 . S
Zn141 O144 1.933 . S
Zn141 O147 1.941 . S
Zn141 O148 1.965 . S
Zn142 O140 1.950 . S
Zn142 O149 1.938 . S
Zn142 O150 1.906 . S
Zn142 O160 1.953 . S
Zn143 O140 1.945 . S
Zn143 O145 1.932 . S
Zn143 O152 1.977 . S
Zn143 O153 1.910 . S
O144 Zn141 1.933 . S
O144 C155 1.226 . S
O145 Zn143 1.932 . S
O145 C155 1.307 . S
O146 Zn139 1.919 . S
O146 C157 1.253 . S
O147 Zn141 1.941 . S
O147 C157 1.283 . S
O148 Zn141 1.965 . S
O148 C156 1.303 . S
O149 Zn142 1.938 . S
O149 C156 1.247 . S
O150 Zn142 1.906 . S
O150 C158 1.304 . S
O151 Zn139 1.924 . S
O151 C159 1.311 . S
O152 Zn143 1.977 . S
O152 C158 1.272 . S
O153 Zn143 1.910 . S
O153 C159 1.231 . S
C154 O138 1.225 . S
C154 O160 1.298 . S
C155 O144 1.226 . S
C155 O145 1.307 . S
C156 O148 1.303 . S
C156 O149 1.247 . S
C157 O146 1.253 . S
C157 O147 1.283 . S
C158 O150 1.304 . S
C158 O152 1.272 . S
C159 O151 1.311 . S
C159 O153 1.231 . S
O160 Zn142 1.953 . S
O160 C154 1.298 . S
O161 Zn162 1.953 . S
O161 C177 1.225 . S
Zn162 O161 1.953 . S
Zn162 O163 1.949 . S
Zn162 O169 1.919 . S
Zn162 O174 1.924 . S
O163 Zn162 1.949 . S
O163 Zn164 1.923 . S
O163 Zn165 1.950 . S
O163 Zn166 1.945 . S
Zn164 O163 1.923 . S
Zn164 O167 1.933 . S
Zn164 O170 1.941 . S
Zn164 O171 1.965 . S
Zn165 O163 1.950 . S
Zn165 O172 1.938 . S
Zn165 O173 1.906 . S
Zn165 O183 1.953 . S
Zn166 O163 1.945 . S
Zn166 O168 1.932 . S
Zn166 O175 1.977 . S
Zn166 O176 1.910 . S
O167 Zn164 1.933 . S
O167 C178 1.226 . S
O168 Zn166 1.932 . S
O168 C178 1.307 . S
O169 Zn162 1.919 . S
O169 C180 1.253 . S
O170 Zn164 1.941 . S
O170 C180 1.283 . S
O171 Zn164 1.965 . S
O171 C179 1.303 . S
O172 Zn165 1.938 . S
O172 C179 1.247 . S
O173 Zn165 1.906 . S
O173 C181 1.304 . S
O174 Zn162 1.924 . S
O174 C182 1.311 . S
O175 Zn166 1.977 . S
O175 C181 1.272 . S
O176 Zn166 1.910 . S
O176 C182 1.231 . S
C177 O161 1.225 . S
C177 O183 1.298 . S
C178 O167 1.226 . S
C178 O168 1.307 . S
C179 O171 1.303 . S
C179 O172 1.247 . S
C180 O169 1.253 . S
C180 O170 1.283 . S
C181 O173 1.304 . S
C181 O175 1.272 . S
C182 O174 1.311 . S
C182 O176 1.231 . S
O183 Zn165 1.953 . S
O183 C177 1.298 . S
O184 Zn185 1.953 . S
O184 C200 1.225 . S
Zn185 O184 1.953 . S
Zn185 O186 1.949 . S
Zn185 O192 1.919 . S
Zn185 O197 1.924 . S
O186 Zn185 1.949 . S
O186 Zn187 1.923 . S
O186 Zn188 1.950 . S
O186 Zn189 1.945 . S
Zn187 O186 1.923 . S
Zn187 O190 1.933 . S
Zn187 O193 1.941 . S
Zn187 O194 1.965 . S
Zn188 O186 1.950 . S
Zn188 O195 1.938 . S
Zn188 O196 1.906 . S
Zn188 O206 1.953 . S
Zn189 O186 1.945 . S
Zn189 O191 1.932 . S
Zn189 O198 1.977 . S
Zn189 O199 1.910 . S
O190 Zn187 1.933 . S
O190 C201 1.226 . S
O191 Zn189 1.932 . S
O191 C201 1.307 . S
O192 Zn185 1.919 . S
O192 C203 1.253 . S
O193 Zn187 1.941 . S
O193 C203 1.283 . S
O194 Zn187 1.965 . S
O194 C202 1.303 . S
O195 Zn188 1.938 . S
O195 C202 1.247 . S
O196 Zn188 1.906 . S
O196 C204 1.304 . S
O197 Zn185 1.924 . S
O197 C205 1.311 . S
O198 Zn189 1.977 . S
O198 C204 1.272 . S
O199 Zn189 1.910 . S
O199 C205 1.231 . S
C200 O184 1.225 . S
C200 O206 1.298 . S
C201 O190 1.226 . S
C201 O191 1.307 . S
C202 O194 1.303 . S
C202 O195 1.247 . S
C203 O192 1.253 . S
C203 O193 1.283 . S
C204 O196 1.304 . S
C204 O198 1.272 . S
C205 O197 1.311 . S
C205 O199 1.231 . S
O206 Zn188 1.953 . S
O206 C200 1.298 . S
O207 Zn208 1.953 . S
O207 C223 1.225 . S
Zn208 O207 1.953 . S
Zn208 O209 1.949 . S
Zn208 O215 1.919 . S
Zn208 O220 1.924 . S
O209 Zn208 1.949 . S
O209 Zn210 1.923 . S
O209 Zn211 1.950 . S
O209 Zn212 1.945 . S
Zn210 O209 1.923 . S
Zn210 O213 1.933 . S
Zn210 O216 1.941 . S
Zn210 O217 1.965 . S
Zn211 O209 1.950 . S
Zn211 O218 1.938 . S
Zn211 O219 1.906 . S
Zn211 O229 1.953 . S
Zn212 O209 1.945 . S
Zn212 O214 1.932 . S
Zn212 O221 1.977 . S
Zn212 O222 1.910 . S
O213 Zn210 1.933 . S
O213 C224 1.226 . S
O214 Zn212 1.932 . S
O214 C224 1.307 . S
O215 Zn208 1.919 . S
O215 C226 1.253 . S
O216 Zn210 1.941 . S
O216 C226 1.283 . S
O217 Zn210 1.965 . S
O217 C225 1.303 . S
O218 Zn211 1.938 . S
O218 C225 1.247 . S
O219 Zn211 1.906 . S
O219 C227 1.304 . S
O220 Zn208 1.924 . S
O220 C228 1.311 . S
O221 Zn212 1.977 . S
O221 C227 1.272 . S
O222 Zn212 1.910 . S
O222 C228 1.231 . S
C223 O207 1.225 . S
C223 O229 1.298 . S
C224 O213 1.226 . S
C224 O214 1.307 . S
C225 O217 1.303 . S
C225 O218 1.247 . S
C226 O215 1.253 . S
C226 O216 1.283 . S
C227 O219 1.304 . S
C227 O221 1.272 . S
C228 O220 1.311 . S
C228 O222 1.231 . S
O229 Zn211 1.953 . S
O229 C223 1.298 . S
O230 Zn231 1.953 . S
O230 C246 1.225 . S
Zn231 O230 1.953 . S
Zn231 O232 1.949 . S
Zn231 O238 1.919 . S
Zn231 O243 1.924 . S
O232 Zn231 1.949 . S
O232 Zn233 1.923 . S
O232 Zn234 1.950 . S
O232 Zn235 1.945 . S
Zn233 O232 1.923 . S
Zn233 O236 1.933 . S
Zn233 O239 1.941 . S
Zn233 O240 1.965 . S
Zn234 O232 1.950 . S
Zn234 O241 1.938 . S
Zn234 O242 1.906 . S
Zn234 O252 1.953 . S
Zn235 O232 1.945 . S
Zn235 O237 1.932 . S
Zn235 O244 1.977 . S
Zn235 O245 1.910 . S
O236 Zn233 1.933 . S
O236 C247 1.226 . S
O237 Zn235 1.932 . S
O237 C247 1.307 . S
O238 Zn231 1.919 . S
O238 C249 1.253 . S
O239 Zn233 1.941 . S
O239 C249 1.283 . S
O240 Zn233 1.965 . S
O240 C248 1.303 . S
O241 Zn234 1.938 . S
O241 C248 1.247 . S
O242 Zn234 1.906 . S
O242 C250 1.304 . S
O243 Zn231 1.924 . S
O243 C251 1.311 . S
O244 Zn235 1.977 . S
O244 C250 1.272 . S
O245 Zn235 1.910 . S
O245 C251 1.231 . S
C246 O230 1.225 . S
C246 O252 1.298 . S
C247 O236 1.226 . S
C247 O237 1.307 . S
C248 O240 1.303 . S
C248 O241 1.247 . S
C249 O238 1.253 . S
C249 O239 1.283 . S
C250 O242 1.304 . S
C250 O244 1.272 . S
C251 O243 1.311 . S
C251 O245 1.231 . S
O252 Zn234 1.953 . S
O252 C246 1.298 . S
O253 Zn254 1.953 . S
O253 C269 1.225 . S
Zn254 O253 1.953 . S
Zn254 O255 1.949 . S
Zn254 O261 1.919 . S
Zn254 O266 1.924 . S
O255 Zn254 1.949 . S
O255 Zn256 1.923 . S
O255 Zn257 1.950 . S
O255 Zn258 1.945 . S
Zn256 O255 1.923 . S
Zn256 O259 1.933 . S
Zn256 O262 1.941 . S
Zn256 O263 1.965 . S
Zn257 O255 1.950 . S
Zn257 O264 1.938 . S
Zn257 O265 1.906 . S
Zn257 O275 1.953 . S
Zn258 O255 1.945 . S
Zn258 O260 1.932 . S
Zn258 O267 1.977 . S
Zn258 O268 1.910 . S
O259 Zn256 1.933 . S
O259 C270 1.226 . S
O260 Zn258 1.932 . S
O260 C270 1.307 . S
O261 Zn254 1.919 . S
O261 C272 1.253 . S
O262 Zn256 1.941 . S
O262 C272 1.283 . S
O263 Zn256 1.965 . S
O263 C271 1.303 . S
O264 Zn257 1.938 . S
O264 C271 1.247 . S
O265 Zn257 1.906 . S
O265 C273 1.304 . S
O266 Zn254 1.924 . S
O266 C274 1.311 . S
O267 Zn258 1.977 . S
O267 C273 1.272 . S
O268 Zn258 1.910 . S
O268 C274 1.231 . S
C269 O253 1.225 . S
C269 O275 1.298 . S
C270 O259 1.226 . S
C270 O260 1.307 . S
C271 O263 1.303 . S
C271 O264 1.247 . S
C272 O261 1.253 . S
C272 O262 1.283 . S
C273 O265 1.304 . S
C273 O267 1.272 . S
C274 O266 1.311 . S
C274 O268 1.231 . S
O275 Zn257 1.953 . S
O275 C269 1.298 . S
O276 Zn277 1.953 . S
O276 C292 1.225 1_554 S
Zn277 O276 1.953 . S
Zn277 O278 1.949 . S
Zn277 O284 1.919 . S
Zn277 O289 1.924 . S
O278 Zn277 1.949 . S
O278 Zn279 1.923 . S
O278 Zn280 1.950 . S
O278 Zn281 1.945 . S
Zn279 O278 1.923 . S
Zn279 O282 1.933 . S
Zn279 O285 1.941 . S
Zn279 O286 1.965 . S
Zn280 O278 1.950 . S
Zn280 O287 1.938 . S
Zn280 O288 1.900 1_554 S
Zn280 O298 1.953 1_554 S
Zn281 O278 1.945 . S
Zn281 O283 1.932 . S
Zn281 O290 1.977 . S
Zn281 O291 1.910 . S
O282 Zn279 1.933 . S
O282 C293 1.226 . S
O283 Zn281 1.932 . S
O283 C293 1.307 . S
O284 Zn277 1.919 . S
O284 C295 1.253 . S
O285 Zn279 1.941 . S
O285 C295 1.283 . S
O286 Zn279 1.965 . S
O286 C294 1.303 . S
O287 Zn280 1.938 . S
O287 C294 1.247 . S
O288 Zn280 1.900 1_556 S
O288 C296 1.296 1_556 S
O289 Zn277 1.924 . S
O289 C297 1.311 . S
O290 Zn281 1.977 . S
O290 C296 1.272 . S
O291 Zn281 1.910 . S
O291 C297 1.231 . S
C292 O276 1.225 1_556 S
C292 O298 1.298 . S
C293 O282 1.226 . S
C293 O283 1.307 . S
C294 O286 1.303 . S
C294 O287 1.247 . S
C295 O284 1.253 . S
C295 O285 1.283 . S
C296 O288 1.296 1_554 S
C296 O290 1.272 . S
C297 O289 1.311 . S
C297 O291 1.231 . S
O298 Zn280 1.953 1_556 S
O298 C292 1.298 . S
O299 Zn300 1.953 . S
O299 C315 1.225 . S
Zn300 O299 1.953 . S
Zn300 O301 1.949 . S
Zn300 O307 1.919 . S
Zn300 O312 1.924 . S
O301 Zn300 1.949 . S
O301 Zn302 1.923 . S
O301 Zn303 1.950 . S
O301 Zn304 1.945 . S
Zn302 O301 1.923 . S
Zn302 O305 1.933 . S
Zn302 O308 1.941 . S
Zn302 O309 1.965 . S
Zn303 O301 1.950 . S
Zn303 O310 1.938 . S
Zn303 O311 1.906 . S
Zn303 O321 1.953 . S
Zn304 O301 1.945 . S
Zn304 O306 1.932 1_556 S
Zn304 O313 1.977 . S
Zn304 O314 1.910 1_556 S
O305 Zn302 1.933 . S
O305 C316 1.226 1_556 S
O306 Zn304 1.932 1_554 S
O306 C316 1.307 . S
O307 Zn300 1.919 . S
O307 C318 1.253 . S
O308 Zn302 1.941 . S
O308 C318 1.283 . S
O309 Zn302 1.965 . S
O309 C317 1.303 . S
O310 Zn303 1.938 . S
O310 C317 1.247 . S
O311 Zn303 1.906 . S
O311 C319 1.304 . S
O312 Zn300 1.924 . S
O312 C320 1.311 . S
O313 Zn304 1.977 . S
O313 C319 1.272 . S
O314 Zn304 1.910 1_554 S
O314 C320 1.231 1_554 S
C315 O299 1.225 . S
C315 O321 1.298 . S
C316 O305 1.226 1_554 S
C316 O306 1.307 . S
C317 O309 1.303 . S
C317 O310 1.247 . S
C318 O307 1.253 . S
C318 O308 1.283 . S
C319 O311 1.304 . S
C319 O313 1.272 . S
C320 O312 1.311 . S
C320 O314 1.231 1_556 S
O321 Zn303 1.953 . S
O321 C315 1.298 . S
O322 Zn323 1.953 . S
O322 C338 1.225 . S
Zn323 O322 1.953 . S
Zn323 O324 1.949 . S
Zn323 O330 1.919 . S
Zn323 O335 1.924 . S
O324 Zn323 1.949 . S
O324 Zn325 1.923 . S
O324 Zn326 1.950 . S
O324 Zn327 1.945 . S
Zn325 O324 1.923 . S
Zn325 O328 1.933 . S
Zn325 O331 1.941 . S
Zn325 O332 1.965 . S
Zn326 O324 1.950 . S
Zn326 O333 1.938 . S
Zn326 O334 1.906 . S
Zn326 O344 1.953 . S
Zn327 O324 1.945 . S
Zn327 O329 1.932 1_554 S
Zn327 O336 1.977 . S
Zn327 O337 1.910 1_554 S
O328 Zn325 1.933 . S
O328 C339 1.226 1_554 S
O329 Zn327 1.932 1_556 S
O329 C339 1.307 . S
O330 Zn323 1.919 . S
O330 C341 1.253 . S
O331 Zn325 1.941 . S
O331 C341 1.283 . S
O332 Zn325 1.965 . S
O332 C340 1.303 . S
O333 Zn326 1.938 . S
O333 C340 1.247 . S
O334 Zn326 1.906 . S
O334 C342 1.304 . S
O335 Zn323 1.924 . S
O335 C343 1.311 . S
O336 Zn327 1.977 . S
O336 C342 1.272 . S
O337 Zn327 1.910 1_556 S
O337 C343 1.231 1_556 S
C338 O322 1.225 . S
C338 O344 1.298 . S
C339 O328 1.226 1_556 S
C339 O329 1.307 . S
C340 O332 1.303 . S
C340 O333 1.247 . S
C341 O330 1.253 . S
C341 O331 1.283 . S
C342 O334 1.304 . S
C342 O336 1.272 . S
C343 O335 1.311 . S
C343 O337 1.231 1_554 S
O344 Zn326 1.953 . S
O344 C338 1.298 . S
O345 Zn346 1.953 . S
O345 C361 1.225 . S
Zn346 O345 1.953 . S
Zn346 O347 1.949 . S
Zn346 O353 1.919 . S
Zn346 O358 1.924 . S
O347 Zn346 1.949 . S
O347 Zn348 1.923 . S
O347 Zn349 1.950 . S
O347 Zn350 1.945 . S
Zn348 O347 1.923 . S
Zn348 O351 1.933 . S
Zn348 O354 1.941 . S
Zn348 O355 1.965 . S
Zn349 O347 1.950 . S
Zn349 O356 1.938 . S
Zn349 O357 1.906 . S
Zn349 O367 1.953 . S
Zn350 O347 1.945 . S
Zn350 O352 1.932 1_556 S
Zn350 O359 1.977 . S
Zn350 O360 1.910 1_556 S
O351 Zn348 1.933 . S
O351 C362 1.226 1_556 S
O352 Zn350 1.932 1_554 S
O352 C362 1.307 . S
O353 Zn346 1.919 . S
O353 C364 1.253 . S
O354 Zn348 1.941 . S
O354 C364 1.283 . S
O355 Zn348 1.965 . S
O355 C363 1.303 . S
O356 Zn349 1.938 . S
O356 C363 1.247 . S
O357 Zn349 1.906 . S
O357 C365 1.304 . S
O358 Zn346 1.924 . S
O358 C366 1.311 . S
O359 Zn350 1.977 . S
O359 C365 1.272 . S
O360 Zn350 1.910 1_554 S
O360 C366 1.231 1_554 S
C361 O345 1.225 . S
C361 O367 1.298 . S
C362 O351 1.226 1_554 S
C362 O352 1.307 . S
C363 O355 1.303 . S
C363 O356 1.247 . S
C364 O353 1.253 . S
C364 O354 1.283 . S
C365 O357 1.304 . S
C365 O359 1.272 . S
C366 O358 1.311 . S
C366 O360 1.231 1_556 S
O367 Zn349 1.953 . S
O367 C361 1.298 . S
C368 C369 1.349 . S
C368 C370 1.327 . S
C368 H393 0.950 . S
C369 C368 1.349 . S
C369 C385 1.349 . S
C370 C368 1.327 . S
C370 C389 1.429 . S
C370 H394 0.950 . S
C371 C388 1.574 . S
C371 C390 1.368 . S
C371 H395 0.949 . S
H372 C376 0.949 . S
C373 C374 1.349 . S
C373 C375 1.327 . S
C373 H396 0.950 . S
C374 C373 1.349 . S
C374 C386 1.349 . S
C375 C373 1.327 . S
C375 C391 1.429 . S
C375 H397 0.950 . S
C376 H372 0.949 . S
C376 C384 1.574 . S
C376 C392 1.368 . S
H377 C385 0.950 . S
H378 C383 0.950 . S
H379 C384 0.949 . S
H380 C386 0.950 . S
H381 C387 0.950 . S
H382 C388 0.949 . S
C383 H378 0.950 . S
C383 C385 1.327 . S
C383 C389 1.429 . S
C384 C376 1.574 . S
C384 H379 0.949 . S
C384 C390 1.368 . S
C385 C369 1.349 . S
C385 H377 0.950 . S
C385 C383 1.327 . S
C386 C374 1.349 . S
C386 H380 0.950 . S
C386 C387 1.327 . S
C387 H381 0.950 . S
C387 C386 1.327 . S
C387 C391 1.429 . S
C388 C371 1.574 . S
C388 H382 0.949 . S
C388 C392 1.368 . S
C389 C370 1.429 . S
C389 C383 1.429 . S
C389 C390 1.523 . S
C390 C371 1.368 . S
C390 C384 1.368 . S
C390 C389 1.523 . S
C391 C375 1.429 . S
C391 C387 1.429 . S
C391 C392 1.523 . S
C392 C376 1.368 . S
C392 C388 1.368 . S
C392 C391 1.523 . S
H393 C368 0.950 . S
H394 C370 0.950 . S
H395 C371 0.949 . S
H396 C373 0.950 . S
H397 C375 0.950 . S
C398 C399 1.349 . S
C398 C400 1.327 . S
C398 H423 0.950 . S
C399 C398 1.349 . S
C399 C415 1.349 . S
C400 C398 1.327 . S
C400 C419 1.429 . S
C400 H424 0.950 . S
C401 C418 1.574 . S
C401 C420 1.368 . S
C401 H425 0.949 . S
H402 C406 0.949 . S
C403 C404 1.349 . S
C403 C405 1.327 . S
C403 H426 0.950 . S
C404 C403 1.349 . S
C404 C416 1.349 . S
C405 C403 1.327 . S
C405 C421 1.429 . S
C405 H427 0.950 . S
C406 H402 0.949 . S
C406 C414 1.574 . S
C406 C422 1.368 . S
H407 C415 0.950 . S
H408 C413 0.950 . S
H409 C414 0.949 . S
H410 C416 0.950 . S
H411 C417 0.950 . S
H412 C418 0.949 . S
C413 H408 0.950 . S
C413 C415 1.327 . S
C413 C419 1.429 . S
C414 C406 1.574 . S
C414 H409 0.949 . S
C414 C420 1.368 . S
C415 C399 1.349 . S
C415 H407 0.950 . S
C415 C413 1.327 . S
C416 C404 1.349 . S
C416 H410 0.950 . S
C416 C417 1.327 . S
C417 H411 0.950 . S
C417 C416 1.327 . S
C417 C421 1.429 . S
C418 C401 1.574 . S
C418 H412 0.949 . S
C418 C422 1.368 . S
C419 C400 1.429 . S
C419 C413 1.429 . S
C419 C420 1.523 . S
C420 C401 1.368 . S
C420 C414 1.368 . S
C420 C419 1.523 . S
C421 C405 1.429 . S
C421 C417 1.429 . S
C421 C422 1.523 . S
C422 C406 1.368 . S
C422 C418 1.368 . S
C422 C421 1.523 . S
H423 C398 0.950 . S
H424 C400 0.950 . S
H425 C401 0.949 . S
H426 C403 0.950 . S
H427 C405 0.950 . S
C428 C429 1.349 . S
C428 C430 1.327 . S
C428 H453 0.950 . S
C429 C428 1.349 . S
C429 C445 1.349 . S
C430 C428 1.327 . S
C430 C449 1.429 . S
C430 H454 0.950 . S
C431 C448 1.574 . S
C431 C450 1.368 . S
C431 H455 0.949 . S
H432 C436 0.949 . S
C433 C434 1.349 . S
C433 C435 1.327 . S
C433 H456 0.950 . S
C434 C433 1.349 . S
C434 C446 1.349 . S
C435 C433 1.327 . S
C435 C451 1.429 . S
C435 H457 0.950 . S
C436 H432 0.949 . S
C436 C444 1.574 . S
C436 C452 1.368 . S
H437 C445 0.950 . S
H438 C443 0.950 . S
H439 C444 0.949 . S
H440 C446 0.950 . S
H441 C447 0.950 . S
H442 C448 0.949 . S
C443 H438 0.950 . S
C443 C445 1.327 . S
C443 C449 1.429 . S
C444 C436 1.574 . S
C444 H439 0.949 . S
C444 C450 1.368 . S
C445 C429 1.349 . S
C445 H437 0.950 . S
C445 C443 1.327 . S
C446 C434 1.349 . S
C446 H440 0.950 . S
C446 C447 1.327 . S
C447 H441 0.950 . S
C447 C446 1.327 . S
C447 C451 1.429 . S
C448 C431 1.574 . S
C448 H442 0.949 . S
C448 C452 1.368 . S
C449 C430 1.429 . S
C449 C443 1.429 . S
C449 C450 1.523 . S
C450 C431 1.368 . S
C450 C444 1.368 . S
C450 C449 1.523 . S
C451 C435 1.429 . S
C451 C447 1.429 . S
C451 C452 1.523 . S
C452 C436 1.368 . S
C452 C448 1.368 . S
C452 C451 1.523 . S
H453 C428 0.950 . S
H454 C430 0.950 . S
H455 C431 0.949 . S
H456 C433 0.950 . S
H457 C435 0.950 . S
C458 C459 1.349 . S
C458 C460 1.327 . S
C458 H483 0.950 . S
C459 C458 1.349 . S
C459 C475 1.349 . S
C460 C458 1.327 . S
C460 C479 1.429 . S
C460 H484 0.950 . S
C461 C478 1.574 . S
C461 C480 1.368 . S
C461 H485 0.949 . S
H462 C466 0.949 . S
C463 C464 1.349 . S
C463 C465 1.327 . S
C463 H486 0.950 . S
C464 C463 1.349 . S
C464 C476 1.349 . S
C465 C463 1.327 . S
C465 C481 1.429 . S
C465 H487 0.950 . S
C466 H462 0.949 . S
C466 C474 1.574 . S
C466 C482 1.368 . S
H467 C475 0.950 . S
H468 C473 0.950 . S
H469 C474 0.949 . S
H470 C476 0.950 . S
H471 C477 0.950 . S
H472 C478 0.949 . S
C473 H468 0.950 . S
C473 C475 1.327 . S
C473 C479 1.429 . S
C474 C466 1.574 . S
C474 H469 0.949 . S
C474 C480 1.368 . S
C475 C459 1.349 . S
C475 H467 0.950 . S
C475 C473 1.327 . S
C476 C464 1.349 . S
C476 H470 0.950 . S
C476 C477 1.327 . S
C477 H471 0.950 . S
C477 C476 1.327 . S
C477 C481 1.429 . S
C478 C461 1.574 . S
C478 H472 0.949 . S
C478 C482 1.368 . S
C479 C460 1.429 . S
C479 C473 1.429 . S
C479 C480 1.523 . S
C480 C461 1.368 . S
C480 C474 1.368 . S
C480 C479 1.523 . S
C481 C465 1.429 . S
C481 C477 1.429 . S
C481 C482 1.523 . S
C482 C466 1.368 . S
C482 C478 1.368 . S
C482 C481 1.523 . S
H483 C458 0.950 . S
H484 C460 0.950 . S
H485 C461 0.949 . S
H486 C463 0.950 . S
H487 C465 0.950 . S
C488 C489 1.349 . S
C488 C490 1.327 . S
C488 H513 0.950 . S
C489 C488 1.349 . S
C489 C505 1.349 . S
C490 C488 1.327 . S
C490 C509 1.429 . S
C490 H514 0.950 . S
C491 C508 1.574 . S
C491 C510 1.368 . S
C491 H515 0.949 . S
H492 C496 0.949 . S
C493 C494 1.349 . S
C493 C495 1.327 . S
C493 H516 0.950 . S
C494 C493 1.349 . S
C494 C506 1.349 . S
C495 C493 1.327 . S
C495 C511 1.429 . S
C495 H517 0.950 . S
C496 H492 0.949 . S
C496 C504 1.574 . S
C496 C512 1.368 . S
H497 C505 0.950 . S
H498 C503 0.950 . S
H499 C504 0.949 . S
H500 C506 0.950 . S
H501 C507 0.950 . S
H502 C508 0.949 . S
C503 H498 0.950 . S
C503 C505 1.327 . S
C503 C509 1.429 . S
C504 C496 1.574 . S
C504 H499 0.949 . S
C504 C510 1.368 . S
C505 C489 1.349 . S
C505 H497 0.950 . S
C505 C503 1.327 . S
C506 C494 1.349 . S
C506 H500 0.950 . S
C506 C507 1.327 . S
C507 H501 0.950 . S
C507 C506 1.327 . S
C507 C511 1.429 . S
C508 C491 1.574 . S
C508 H502 0.949 . S
C508 C512 1.368 . S
C509 C490 1.429 . S
C509 C503 1.429 . S
C509 C510 1.523 . S
C510 C491 1.368 . S
C510 C504 1.368 . S
C510 C509 1.523 . S
C511 C495 1.429 . S
C511 C507 1.429 . S
C511 C512 1.523 . S
C512 C496 1.368 . S
C512 C508 1.368 . S
C512 C511 1.523 . S
H513 C488 0.950 . S
H514 C490 0.950 . S
H515 C491 0.949 . S
H516 C493 0.950 . S
H517 C495 0.950 . S
C518 C519 1.349 . S
C518 C520 1.327 . S
C518 H543 0.950 . S
C519 C518 1.349 . S
C519 C535 1.349 . S
C520 C518 1.327 . S
C520 C539 1.429 . S
C520 H544 0.950 . S
C521 C538 1.574 . S
C521 C540 1.368 . S
C521 H545 0.949 . S
H522 C526 0.949 . S
C523 C524 1.349 . S
C523 C525 1.327 . S
C523 H546 0.950 . S
C524 C523 1.349 . S
C524 C536 1.349 . S
C525 C523 1.327 . S
C525 C541 1.429 . S
C525 H547 0.950 . S
C526 H522 0.949 . S
C526 C534 1.574 . S
C526 C542 1.368 . S
H527 C535 0.950 . S
H528 C533 0.950 . S
H529 C534 0.949 . S
H530 C536 0.950 . S
H531 C537 0.950 . S
H532 C538 0.949 . S
C533 H528 0.950 . S
C533 C535 1.327 . S
C533 C539 1.429 . S
C534 C526 1.574 . S
C534 H529 0.949 . S
C534 C540 1.368 . S
C535 C519 1.349 . S
C535 H527 0.950 . S
C535 C533 1.327 . S
C536 C524 1.349 . S
C536 H530 0.950 . S
C536 C537 1.327 . S
C537 H531 0.950 . S
C537 C536 1.327 . S
C537 C541 1.429 . S
C538 C521 1.574 . S
C538 H532 0.949 . S
C538 C542 1.368 . S
C539 C520 1.429 . S
C539 C533 1.429 . S
C539 C540 1.523 . S
C540 C521 1.368 . S
C540 C534 1.368 . S
C540 C539 1.523 . S
C541 C525 1.429 . S
C541 C537 1.429 . S
C541 C542 1.523 . S
C542 C526 1.368 . S
C542 C538 1.368 . S
C542 C541 1.523 . S
H543 C518 0.950 . S
H544 C520 0.950 . S
H545 C521 0.949 . S
H546 C523 0.950 . S
H547 C525 0.950 . S
C548 C549 1.349 . S
C548 C550 1.327 . S
C548 H573 0.950 . S
C549 C548 1.349 . S
C549 C565 1.349 . S
C550 C548 1.327 . S
C550 C569 1.429 . S
C550 H574 0.950 . S
C551 C568 1.574 . S
C551 C570 1.368 . S
C551 H575 0.949 . S
H552 C556 0.949 . S
C553 C554 1.349 . S
C553 C555 1.327 . S
C553 H576 0.950 . S
C554 C553 1.349 . S
C554 C566 1.349 . S
C555 C553 1.327 . S
C555 C571 1.429 . S
C555 H577 0.950 . S
C556 H552 0.949 . S
C556 C564 1.574 . S
C556 C572 1.368 . S
H557 C565 0.950 . S
H558 C563 0.950 . S
H559 C564 0.949 . S
H560 C566 0.950 . S
H561 C567 0.950 . S
H562 C568 0.949 . S
C563 H558 0.950 . S
C563 C565 1.327 . S
C563 C569 1.429 . S
C564 C556 1.574 . S
C564 H559 0.949 . S
C564 C570 1.368 . S
C565 C549 1.349 . S
C565 H557 0.950 . S
C565 C563 1.327 . S
C566 C554 1.349 . S
C566 H560 0.950 . S
C566 C567 1.327 . S
C567 H561 0.950 . S
C567 C566 1.327 . S
C567 C571 1.429 . S
C568 C551 1.574 . S
C568 H562 0.949 . S
C568 C572 1.368 . S
C569 C550 1.429 . S
C569 C563 1.429 . S
C569 C570 1.523 . S
C570 C551 1.368 . S
C570 C564 1.368 . S
C570 C569 1.523 . S
C571 C555 1.429 . S
C571 C567 1.429 . S
C571 C572 1.523 . S
C572 C556 1.368 . S
C572 C568 1.368 . S
C572 C571 1.523 . S
H573 C548 0.950 . S
H574 C550 0.950 . S
H575 C551 0.949 . S
H576 C553 0.950 . S
H577 C555 0.950 . S
C578 C579 1.349 . S
C578 C580 1.327 . S
C578 H603 0.950 . S
C579 C578 1.349 . S
C579 C595 1.349 . S
C580 C578 1.327 . S
C580 C599 1.429 . S
C580 H604 0.950 . S
C581 C598 1.574 . S
C581 C600 1.368 . S
C581 H605 0.949 . S
H582 C586 0.949 . S
C583 C584 1.349 . S
C583 C585 1.327 . S
C583 H606 0.950 . S
C584 C583 1.349 . S
C584 C596 1.349 . S
C585 C583 1.327 . S
C585 C601 1.429 . S
C585 H607 0.950 . S
C586 H582 0.949 . S
C586 C594 1.574 . S
C586 C602 1.368 . S
H587 C595 0.950 . S
H588 C593 0.950 . S
H589 C594 0.949 . S
H590 C596 0.950 . S
H591 C597 0.950 . S
H592 C598 0.949 . S
C593 H588 0.950 . S
C593 C595 1.327 . S
C593 C599 1.429 . S
C594 C586 1.574 . S
C594 H589 0.949 . S
C594 C600 1.368 . S
C595 C579 1.349 . S
C595 H587 0.950 . S
C595 C593 1.327 . S
C596 C584 1.349 . S
C596 H590 0.950 . S
C596 C597 1.327 . S
C597 H591 0.950 . S
C597 C596 1.327 . S
C597 C601 1.429 . S
C598 C581 1.574 . S
C598 H592 0.949 . S
C598 C602 1.368 . S
C599 C580 1.429 . S
C599 C593 1.429 . S
C599 C600 1.523 . S
C600 C581 1.368 . S
C600 C594 1.368 . S
C600 C599 1.523 . S
C601 C585 1.429 . S
C601 C597 1.429 . S
C601 C602 1.523 . S
C602 C586 1.368 . S
C602 C598 1.368 . S
C602 C601 1.523 . S
H603 C578 0.950 . S
H604 C580 0.950 . S
H605 C581 0.949 . S
H606 C583 0.950 . S
H607 C585 0.950 . S
C608 C609 1.349 . S
C608 C610 1.327 . S
C608 H633 0.950 . S
C609 C608 1.349 . S
C609 C625 1.349 . S
C610 C608 1.327 . S
C610 C629 1.429 . S
C610 H634 0.950 . S
C611 C628 1.574 . S
C611 C630 1.368 1_556 S
C611 H635 0.949 . S
H612 C616 0.949 . S
C613 C614 1.349 . S
C613 C615 1.327 . S
C613 H636 0.950 . S
C614 C613 1.349 . S
C614 C626 1.349 1_556 S
C615 C613 1.327 . S
C615 C631 1.429 1_556 S
C615 H637 0.950 . S
C616 H612 0.949 . S
C616 C624 1.574 . S
C616 C632 1.368 . S
H617 C625 0.950 . S
H618 C623 0.950 1_556 S
H619 C624 0.949 . S
H620 C626 0.950 . S
H621 C627 0.950 . S
H622 C628 0.949 . S
C623 H618 0.950 1_554 S
C623 C625 1.327 . S
C623 C629 1.429 . S
C624 C616 1.574 . S
C624 H619 0.949 . S
C624 C630 1.368 . S
C625 C609 1.349 . S
C625 H617 0.950 . S
C625 C623 1.327 . S
C626 C614 1.349 1_554 S
C626 H620 0.950 . S
C626 C627 1.327 . S
C627 H621 0.950 . S
C627 C626 1.327 . S
C627 C631 1.429 . S
C628 C611 1.574 . S
C628 H622 0.949 . S
C628 C632 1.368 1_556 S
C629 C610 1.429 . S
C629 C623 1.429 . S
C629 C630 1.523 . S
C630 C611 1.368 1_554 S
C630 C624 1.368 . S
C630 C629 1.523 . S
C631 C615 1.429 1_554 S
C631 C627 1.429 . S
C631 C632 1.523 . S
C632 C616 1.368 . S
C632 C628 1.368 1_554 S
C632 C631 1.523 . S
H633 C608 0.950 . S
H634 C610 0.950 . S
H635 C611 0.949 . S
H636 C613 0.950 . S
H637 C615 0.950 . S
C638 C639 1.349 1_556 S
C638 C640 1.327 . S
C638 H663 0.950 . S
C639 C638 1.349 1_554 S
C639 C655 1.349 . S
C640 C638 1.327 . S
C640 C659 1.429 . S
C640 H664 0.950 . S
C641 C658 1.574 . S
C641 C660 1.368 . S
C641 H665 0.948 1_556 S
H642 C646 0.949 . S
C643 C644 1.349 . S
C643 C645 1.327 . S
C643 H666 0.950 . S
C644 C643 1.349 . S
C644 C656 1.349 . S
C645 C643 1.327 . S
C645 C661 1.429 . S
C645 H667 0.950 . S
C646 H642 0.949 . S
C646 C654 1.574 . S
C646 C662 1.368 . S
H647 C655 0.950 . S
H648 C653 0.950 . S
H649 C654 0.949 . S
H650 C656 0.950 1_455 S
H651 C657 0.950 . S
H652 C658 0.949 . S
C653 H648 0.950 . S
C653 C655 1.327 . S
C653 C659 1.429 1_554 S
C654 C646 1.574 . S
C654 H649 0.949 . S
C654 C660 1.368 . S
C655 C639 1.349 . S
C655 H647 0.950 . S
C655 C653 1.327 . S
C656 C644 1.349 . S
C656 H650 0.950 1_655 S
C656 C657 1.327 . S
C657 H651 0.950 . S
C657 C656 1.327 . S
C657 C661 1.429 . S
C658 C641 1.574 . S
C658 H652 0.949 . S
C658 C662 1.368 . S
C659 C640 1.429 . S
C659 C653 1.429 1_556 S
C659 C660 1.523 . S
C660 C641 1.368 . S
C660 C654 1.368 . S
C660 C659 1.523 . S
C661 C645 1.429 . S
C661 C657 1.429 . S
C661 C662 1.523 . S
C662 C646 1.368 . S
C662 C658 1.368 . S
C662 C661 1.523 . S
H663 C638 0.950 . S
H664 C640 0.950 . S
H665 C641 0.948 1_554 S
H666 C643 0.950 . S
H667 C645 0.950 . S
C668 C669 1.349 . S
C668 C670 1.327 . S
C668 H693 0.950 . S
C669 C668 1.349 . S
C669 C685 1.349 1_556 S
C670 C668 1.327 . S
C670 C689 1.429 1_556 S
C670 H694 0.950 . S
C671 C688 1.574 . S
C671 C690 1.368 . S
C671 H695 0.949 . S
H672 C676 0.944 1_556 S
C673 C674 1.349 . S
C673 C675 1.327 . S
C673 H696 0.950 . S
C674 C673 1.349 . S
C674 C686 1.349 . S
C675 C673 1.327 . S
C675 C691 1.429 . S
C675 H697 0.950 . S
C676 H672 0.944 1_554 S
C676 C684 1.572 1_554 S
C676 C692 1.375 . S
H677 C685 0.950 . S
H678 C683 0.950 . S
H679 C684 0.949 . S
H680 C686 0.950 1_565 S
H681 C687 0.950 1_556 S
H682 C688 0.949 . S
C683 H678 0.950 . S
C683 C685 1.327 . S
C683 C689 1.429 . S
C684 C676 1.572 1_556 S
C684 H679 0.949 . S
C684 C690 1.368 1_556 S
C685 C669 1.349 1_554 S
C685 H677 0.950 . S
C685 C683 1.327 . S
C686 C674 1.349 . S
C686 H680 0.950 1_545 S
C686 C687 1.327 . S
C687 H681 0.950 1_554 S
C687 C686 1.327 . S
C687 C691 1.429 . S
C688 C671 1.574 . S
C688 H682 0.949 . S
C688 C692 1.368 . S
C689 C670 1.429 1_554 S
C689 C683 1.429 . S
C689 C690 1.523 . S
C690 C671 1.368 . S
C690 C684 1.368 1_554 S
C690 C689 1.523 . S
C691 C675 1.429 . S
C691 C687 1.429 . S
C691 C692 1.523 . S
C692 C676 1.375 . S
C692 C688 1.368 . S
C692 C691 1.523 . S
H693 C668 0.950 . S
H694 C670 0.950 . S
H695 C671 0.949 . S
H696 C673 0.950 . S
H697 C675 0.950 . S
C698 C699 1.349 . S
C698 C700 1.327 . S
C698 H723 0.950 . S
C699 C698 1.349 . S
C699 C715 1.349 . S
C700 C698 1.327 . S
C700 C719 1.429 . S
C700 H724 0.950 . S
C701 C718 1.574 . S
C701 C720 1.368 1_554 S
C701 H725 0.949 . S
H702 C706 0.949 . S
C703 C704 1.349 . S
C703 C705 1.327 . S
C703 H726 0.950 . S
C704 C703 1.349 . S
C704 C716 1.349 1_554 S
C705 C703 1.327 . S
C705 C721 1.429 1_554 S
C705 H727 0.950 . S
C706 H702 0.949 . S
C706 C714 1.574 . S
C706 C722 1.368 . S
H707 C715 0.950 1_655 S
H708 C713 0.950 1_554 S
H709 C714 0.949 . S
H710 C716 0.950 . S
H711 C717 0.950 . S
H712 C718 0.949 . S
C713 H708 0.950 1_556 S
C713 C715 1.327 . S
C713 C719 1.429 . S
C714 C706 1.574 . S
C714 H709 0.949 . S
C714 C720 1.368 . S
C715 C699 1.349 . S
C715 H707 0.950 1_455 S
C715 C713 1.327 . S
C716 C704 1.349 1_556 S
C716 H710 0.950 . S
C716 C717 1.327 . S
C717 H711 0.950 . S
C717 C716 1.327 . S
C717 C721 1.429 . S
C718 C701 1.574 . S
C718 H712 0.949 . S
C718 C722 1.368 1_554 S
C719 C700 1.429 . S
C719 C713 1.429 . S
C719 C720 1.523 . S
C720 C701 1.368 1_556 S
C720 C714 1.368 . S
C720 C719 1.523 . S
C721 C705 1.429 1_556 S
C721 C717 1.429 . S
C721 C722 1.523 . S
C722 C706 1.368 . S
C722 C718 1.368 1_556 S
C722 C721 1.523 . S
H723 C698 0.950 . S
H724 C700 0.950 . S
H725 C701 0.949 . S
H726 C703 0.950 . S
H727 C705 0.950 . S
C728 C729 1.349 . S
C728 C730 1.327 . S
C728 H753 0.950 1_565 S
C729 C728 1.349 . S
C729 C745 1.349 . S
C730 C728 1.327 . S
C730 C749 1.429 . S
C730 H754 0.950 . S
C731 C748 1.574 . S
C731 C750 1.368 . S
C731 H755 0.949 . S
H732 C736 0.949 . S
C733 C734 1.349 . S
C733 C735 1.327 . S
C733 H756 0.950 . S
C734 C733 1.349 . S
C734 C746 1.349 . S
C735 C733 1.327 . S
C735 C751 1.429 . S
C735 H757 0.950 . S
C736 H732 0.949 . S
C736 C744 1.574 . S
C736 C752 1.368 . S
H737 C745 0.950 . S
H738 C743 0.950 . S
H739 C744 0.949 . S
H740 C746 0.950 . S
H741 C747 0.950 . S
H742 C748 0.949 . S
C743 H738 0.950 . S
C743 C745 1.327 . S
C743 C749 1.429 . S
C744 C736 1.574 . S
C744 H739 0.949 . S
C744 C750 1.368 . S
C745 C729 1.349 . S
C745 H737 0.950 . S
C745 C743 1.327 . S
C746 C734 1.349 . S
C746 H740 0.950 . S
C746 C747 1.327 . S
C747 H741 0.950 . S
C747 C746 1.327 . S
C747 C751 1.429 . S
C748 C731 1.574 . S
C748 H742 0.949 . S
C748 C752 1.368 . S
C749 C730 1.429 . S
C749 C743 1.429 . S
C749 C750 1.523 . S
C750 C731 1.368 . S
C750 C744 1.368 . S
C750 C749 1.523 . S
C751 C735 1.429 . S
C751 C747 1.429 . S
C751 C752 1.523 . S
C752 C736 1.368 . S
C752 C748 1.368 . S
C752 C751 1.523 . S
H753 C728 0.950 1_545 S
H754 C730 0.950 . S
H755 C731 0.949 . S
H756 C733 0.950 . S
H757 C735 0.950 . S
C758 C759 1.349 . S
C758 C760 1.327 . S
C758 H783 0.950 . S
C759 C758 1.349 . S
C759 C775 1.349 . S
C760 C758 1.327 . S
C760 C779 1.429 . S
C760 H784 0.950 . S
C761 C778 1.574 . S
C761 C780 1.368 . S
C761 H785 0.949 . S
H762 C766 0.949 . S
C763 C764 1.349 . S
C763 C765 1.327 . S
C763 H786 0.950 1_655 S
C764 C763 1.349 . S
C764 C776 1.349 . S
C765 C763 1.327 . S
C765 C781 1.429 . S
C765 H787 0.950 . S
C766 H762 0.949 . S
C766 C774 1.574 . S
C766 C782 1.368 . S
H767 C775 0.950 . S
H768 C773 0.950 . S
H769 C774 0.949 . S
H770 C776 0.950 . S
H771 C777 0.950 . S
H772 C778 0.949 . S
C773 H768 0.950 . S
C773 C775 1.327 . S
C773 C779 1.429 . S
C774 C766 1.574 . S
C774 H769 0.949 . S
C774 C780 1.368 . S
C775 C759 1.349 . S
C775 H767 0.950 . S
C775 C773 1.327 . S
C776 C764 1.349 . S
C776 H770 0.950 . S
C776 C777 1.327 . S
C777 H771 0.950 . S
C777 C776 1.327 . S
C777 C781 1.429 . S
C778 C761 1.574 . S
C778 H772 0.949 . S
C778 C782 1.368 . S
C779 C760 1.429 . S
C779 C773 1.429 . S
C779 C780 1.523 . S
C780 C761 1.368 . S
C780 C774 1.368 . S
C780 C779 1.523 . S
C781 C765 1.429 . S
C781 C777 1.429 . S
C781 C782 1.523 . S
C782 C766 1.368 . S
C782 C778 1.368 . S
C782 C781 1.523 . S
H783 C758 0.950 . S
H784 C760 0.950 . S
H785 C761 0.949 . S
H786 C763 0.950 1_455 S
H787 C765 0.950 . S
C788 C789 1.349 . S
C788 C790 1.327 . S
C788 H813 0.950 . S
C789 C788 1.349 . S
C789 C805 1.349 . S
C790 C788 1.327 . S
C790 C809 1.429 . S
C790 H814 0.950 . S
C791 C808 1.574 . S
C791 C810 1.368 . S
C791 H815 0.949 . S
H792 C796 0.949 . S
C793 C794 1.349 . S
C793 C795 1.327 . S
C793 H816 0.950 . S
C794 C793 1.349 . S
C794 C806 1.349 . S
C795 C793 1.327 . S
C795 C811 1.429 . S
C795 H817 0.950 . S
C796 H792 0.949 . S
C796 C804 1.574 . S
C796 C812 1.368 . S
H797 C805 0.950 . S
H798 C803 0.950 . S
H799 C804 0.949 . S
H800 C806 0.950 . S
H801 C807 0.950 . S
H802 C808 0.949 . S
C803 H798 0.950 . S
C803 C805 1.327 . S
C803 C809 1.429 . S
C804 C796 1.574 . S
C804 H799 0.949 . S
C804 C810 1.368 . S
C805 C789 1.349 . S
C805 H797 0.950 . S
C805 C803 1.327 . S
C806 C794 1.349 . S
C806 H800 0.950 . S
C806 C807 1.327 . S
C807 H801 0.950 . S
C807 C806 1.327 . S
C807 C811 1.429 . S
C808 C791 1.574 . S
C808 H802 0.949 . S
C808 C812 1.368 . S
C809 C790 1.429 . S
C809 C803 1.429 . S
C809 C810 1.523 . S
C810 C791 1.368 . S
C810 C804 1.368 . S
C810 C809 1.523 . S
C811 C795 1.429 . S
C811 C807 1.429 . S
C811 C812 1.523 . S
C812 C796 1.368 . S
C812 C808 1.368 . S
C812 C811 1.523 . S
H813 C788 0.950 . S
H814 C790 0.950 . S
H815 C791 0.949 . S
H816 C793 0.950 . S
H817 C795 0.950 . S
C818 C819 1.349 . S
C818 C820 1.327 . S
C818 H843 0.950 . S
C819 C818 1.349 . S
C819 C835 1.349 . S
C820 C818 1.327 . S
C820 C839 1.429 . S
C820 H844 0.950 . S
C821 C838 1.574 . S
C821 C840 1.368 . S
C821 H845 0.949 . S
H822 C826 0.949 . S
C823 C824 1.349 . S
C823 C825 1.327 . S
C823 H846 0.950 . S
C824 C823 1.349 . S
C824 C836 1.349 . S
C825 C823 1.327 . S
C825 C841 1.429 . S
C825 H847 0.950 . S
C826 H822 0.949 . S
C826 C834 1.574 . S
C826 C842 1.368 . S
H827 C835 0.950 . S
H828 C833 0.950 . S
H829 C834 0.949 . S
H830 C836 0.950 1_655 S
H831 C837 0.950 . S
H832 C838 0.949 . S
C833 H828 0.950 . S
C833 C835 1.327 . S
C833 C839 1.429 . S
C834 C826 1.574 . S
C834 H829 0.949 . S
C834 C840 1.368 . S
C835 C819 1.349 . S
C835 H827 0.950 . S
C835 C833 1.327 . S
C836 C824 1.349 . S
C836 H830 0.950 1_455 S
C836 C837 1.327 . S
C837 H831 0.950 . S
C837 C836 1.327 . S
C837 C841 1.429 . S
C838 C821 1.574 . S
C838 H832 0.949 . S
C838 C842 1.368 . S
C839 C820 1.429 . S
C839 C833 1.429 . S
C839 C840 1.523 . S
C840 C821 1.368 . S
C840 C834 1.368 . S
C840 C839 1.523 . S
C841 C825 1.429 . S
C841 C837 1.429 . S
C841 C842 1.523 . S
C842 C826 1.368 . S
C842 C838 1.368 . S
C842 C841 1.523 . S
H843 C818 0.950 . S
H844 C820 0.950 . S
H845 C821 0.949 . S
H846 C823 0.950 . S
H847 C825 0.950 . S
C848 C849 1.349 . S
C848 C850 1.327 . S
C848 H873 0.950 . S
C849 C848 1.349 . S
C849 C865 1.349 . S
C850 C848 1.327 . S
C850 C869 1.429 . S
C850 H874 0.950 . S
C851 C868 1.574 . S
C851 C870 1.368 . S
C851 H875 0.949 . S
H852 C856 0.949 . S
C853 C854 1.349 . S
C853 C855 1.327 . S
C853 H876 0.950 . S
C854 C853 1.349 . S
C854 C866 1.349 . S
C855 C853 1.327 . S
C855 C871 1.429 . S
C855 H877 0.950 . S
C856 H852 0.949 . S
C856 C864 1.574 . S
C856 C872 1.368 . S
H857 C865 0.950 . S
H858 C863 0.950 . S
H859 C864 0.949 . S
H860 C866 0.950 . S
H861 C867 0.950 . S
H862 C868 0.949 . S
C863 H858 0.950 . S
C863 C865 1.327 . S
C863 C869 1.429 . S
C864 C856 1.574 . S
C864 H859 0.949 . S
C864 C870 1.368 . S
C865 C849 1.349 . S
C865 H857 0.950 . S
C865 C863 1.327 . S
C866 C854 1.349 . S
C866 H860 0.950 . S
C866 C867 1.327 . S
C867 H861 0.950 . S
C867 C866 1.327 . S
C867 C871 1.429 . S
C868 C851 1.574 . S
C868 H862 0.949 . S
C868 C872 1.368 . S
C869 C850 1.429 . S
C869 C863 1.429 . S
C869 C870 1.523 . S
C870 C851 1.368 . S
C870 C864 1.368 . S
C870 C869 1.523 . S
C871 C855 1.429 . S
C871 C867 1.429 . S
C871 C872 1.523 . S
C872 C856 1.368 . S
C872 C868 1.368 . S
C872 C871 1.523 . S
H873 C848 0.950 . S
H874 C850 0.950 . S
H875 C851 0.949 . S
H876 C853 0.950 . S
H877 C855 0.950 . S
C878 C879 1.349 . S
C878 C880 1.327 . S
C878 H903 0.950 . S
C879 C878 1.349 . S
C879 C895 1.349 . S
C880 C878 1.327 . S
C880 C899 1.429 . S
C880 H904 0.950 . S
C881 C898 1.574 . S
C881 C900 1.368 . S
C881 H905 0.949 . S
H882 C886 0.949 . S
C883 C884 1.349 . S
C883 C885 1.327 . S
C883 H906 0.950 . S
C884 C883 1.349 . S
C884 C896 1.349 . S
C885 C883 1.327 . S
C885 C901 1.429 . S
C885 H907 0.950 . S
C886 H882 0.949 . S
C886 C894 1.574 . S
C886 C902 1.368 . S
H887 C895 0.950 . S
H888 C893 0.950 . S
H889 C894 0.949 . S
H890 C896 0.950 . S
H891 C897 0.950 . S
H892 C898 0.949 . S
C893 H888 0.950 . S
C893 C895 1.327 . S
C893 C899 1.429 . S
C894 C886 1.574 . S
C894 H889 0.949 . S
C894 C900 1.368 . S
C895 C879 1.349 . S
C895 H887 0.950 . S
C895 C893 1.327 . S
C896 C884 1.349 . S
C896 H890 0.950 . S
C896 C897 1.327 . S
C897 H891 0.950 . S
C897 C896 1.327 . S
C897 C901 1.429 . S
C898 C881 1.574 . S
C898 H892 0.949 . S
C898 C902 1.368 . S
C899 C880 1.429 . S
C899 C893 1.429 . S
C899 C900 1.523 . S
C900 C881 1.368 . S
C900 C894 1.368 . S
C900 C899 1.523 . S
C901 C885 1.429 . S
C901 C897 1.429 . S
C901 C902 1.523 . S
C902 C886 1.368 . S
C902 C898 1.368 . S
C902 C901 1.523 . S
H903 C878 0.950 . S
H904 C880 0.950 . S
H905 C881 0.949 . S
H906 C883 0.950 . S
H907 C885 0.950 . S
C908 C909 1.349 . S
C908 C910 1.327 . S
C908 H933 0.950 . S
C909 C908 1.349 . S
C909 C925 1.349 . S
C910 C908 1.327 . S
C910 C929 1.429 . S
C910 H934 0.950 . S
C911 C928 1.574 . S
C911 C930 1.368 . S
C911 H935 0.949 . S
H912 C916 0.949 . S
C913 C914 1.349 . S
C913 C915 1.327 . S
C913 H936 0.950 . S
C914 C913 1.349 . S
C914 C926 1.349 . S
C915 C913 1.327 . S
C915 C931 1.429 . S
C915 H937 0.950 . S
C916 H912 0.949 . S
C916 C924 1.574 . S
C916 C932 1.368 . S
H917 C925 0.950 . S
H918 C923 0.950 . S
H919 C924 0.949 . S
H920 C926 0.950 . S
H921 C927 0.950 . S
H922 C928 0.949 . S
C923 H918 0.950 . S
C923 C925 1.327 . S
C923 C929 1.429 . S
C924 C916 1.574 . S
C924 H919 0.949 . S
C924 C930 1.368 . S
C925 C909 1.349 . S
C925 H917 0.950 . S
C925 C923 1.327 . S
C926 C914 1.349 . S
C926 H920 0.950 . S
C926 C927 1.327 . S
C927 H921 0.950 . S
C927 C926 1.327 . S
C927 C931 1.429 . S
C928 C911 1.574 . S
C928 H922 0.949 . S
C928 C932 1.368 . S
C929 C910 1.429 . S
C929 C923 1.429 . S
C929 C930 1.523 . S
C930 C911 1.368 . S
C930 C924 1.368 . S
C930 C929 1.523 . S
C931 C915 1.429 . S
C931 C927 1.429 . S
C931 C932 1.523 . S
C932 C916 1.368 . S
C932 C928 1.368 . S
C932 C931 1.523 . S
H933 C908 0.950 . S
H934 C910 0.950 . S
H935 C911 0.949 . S
H936 C913 0.950 . S
H937 C915 0.950 . S
C938 C939 1.349 . S
C938 C940 1.327 . S
C938 H963 0.950 . S
C939 C938 1.349 . S
C939 C955 1.349 . S
C940 C938 1.327 . S
C940 C959 1.429 . S
C940 H964 0.950 . S
C941 C958 1.574 . S
C941 C960 1.368 . S
C941 H965 0.949 . S
H942 C946 0.949 . S
C943 C944 1.349 . S
C943 C945 1.327 . S
C943 H966 0.950 . S
C944 C943 1.349 . S
C944 C956 1.349 . S
C945 C943 1.327 . S
C945 C961 1.429 . S
C945 H967 0.950 . S
C946 H942 0.949 . S
C946 C954 1.574 . S
C946 C962 1.368 . S
H947 C955 0.950 . S
H948 C953 0.950 . S
H949 C954 0.949 . S
H950 C956 0.950 . S
H951 C957 0.950 . S
H952 C958 0.949 . S
C953 H948 0.950 . S
C953 C955 1.327 . S
C953 C959 1.429 . S
C954 C946 1.574 . S
C954 H949 0.949 . S
C954 C960 1.368 . S
C955 C939 1.349 . S
C955 H947 0.950 . S
C955 C953 1.327 . S
C956 C944 1.349 . S
C956 H950 0.950 . S
C956 C957 1.327 . S
C957 H951 0.950 . S
C957 C956 1.327 . S
C957 C961 1.429 . S
C958 C941 1.574 . S
C958 H952 0.949 . S
C958 C962 1.368 . S
C959 C940 1.429 . S
C959 C953 1.429 . S
C959 C960 1.523 . S
C960 C941 1.368 . S
C960 C954 1.368 . S
C960 C959 1.523 . S
C961 C945 1.429 . S
C961 C957 1.429 . S
C961 C962 1.523 . S
C962 C946 1.368 . S
C962 C958 1.368 . S
C962 C961 1.523 . S
H963 C938 0.950 . S
H964 C940 0.950 . S
H965 C941 0.949 . S
H966 C943 0.950 . S
H967 C945 0.950 . S
C968 C969 1.349 . S
C968 C970 1.327 . S
C968 H993 0.950 . S
C969 C968 1.349 . S
C969 C985 1.349 1_556 S
C970 C968 1.327 . S
C970 C989 1.429 1_556 S
C970 H994 0.950 . S
C971 C988 1.574 . S
C971 C990 1.368 . S
C971 H995 0.949 . S
H972 C976 0.949 . S
C973 C974 1.349 . S
C973 C975 1.327 . S
C973 H996 0.950 . S
C974 C973 1.349 . S
C974 C986 1.349 . S
C975 C973 1.327 . S
C975 C991 1.429 . S
C975 H997 0.950 . S
C976 H972 0.949 . S
C976 C984 1.574 . S
C976 C992 1.368 1_556 S
H977 C985 0.950 . S
H978 C983 0.950 . S
H979 C984 0.949 . S
H980 C986 0.950 1_556 S
H981 C987 0.950 1_556 S
H982 C988 0.949 . S
C983 H978 0.950 . S
C983 C985 1.327 . S
C983 C989 1.429 . S
C984 C976 1.574 . S
C984 H979 0.949 . S
C984 C990 1.368 1_556 S
C985 C969 1.349 1_554 S
C985 H977 0.950 . S
C985 C983 1.327 . S
C986 C974 1.349 . S
C986 H980 0.950 1_554 S
C986 C987 1.327 . S
C987 H981 0.950 1_554 S
C987 C986 1.327 . S
C987 C991 1.429 . S
C988 C971 1.574 . S
C988 H982 0.949 . S
C988 C992 1.368 . S
C989 C970 1.429 1_554 S
C989 C983 1.429 . S
C989 C990 1.523 . S
C990 C971 1.368 . S
C990 C984 1.368 1_554 S
C990 C989 1.523 . S
C991 C975 1.429 . S
C991 C987 1.429 . S
C991 C992 1.523 . S
C992 C976 1.368 1_554 S
C992 C988 1.368 . S
C992 C991 1.523 . S
H993 C968 0.950 . S
H994 C970 0.950 . S
H995 C971 0.949 . S
H996 C973 0.950 . S
H997 C975 0.950 . S
C998 C999 1.349 1_556 S
C998 C1000 1.327 . S
C998 H1023 0.950 . S
C999 C998 1.349 1_554 S
C999 C1015 1.349 . S
C1000 C998 1.327 . S
C1000 C1019 1.429 . S
C1000 H1024 0.950 . S
C1001 C1018 1.574 . S
C1001 C1020 1.368 1_554 S
C1001 H1025 0.949 . S
H1002 C1006 0.949 . S
C1003 C1004 1.349 . S
C1003 C1005 1.327 . S
C1003 H1026 0.950 1_556 S
C1004 C1003 1.349 . S
C1004 C1016 1.349 . S
C1005 C1003 1.327 . S
C1005 C1021 1.429 . S
C1005 H1027 0.950 1_556 S
C1006 H1002 0.949 . S
C1006 C1014 1.574 . S
C1006 C1022 1.368 . S
H1007 C1015 0.950 . S
H1008 C1013 0.950 . S
H1009 C1014 0.949 . S
H1010 C1016 0.950 . S
H1011 C1017 0.950 . S
H1012 C1018 0.949 . S
C1013 H1008 0.950 . S
C1013 C1015 1.327 . S
C1013 C1019 1.429 1_554 S
C1014 C1006 1.574 . S
C1014 H1009 0.949 . S
C1014 C1020 1.368 . S
C1015 C999 1.349 . S
C1015 H1007 0.950 . S
C1015 C1013 1.327 . S
C1016 C1004 1.349 . S
C1016 H1010 0.950 . S
C1016 C1017 1.327 . S
C1017 H1011 0.950 . S
C1017 C1016 1.327 . S
C1017 C1021 1.429 . S
C1018 C1001 1.574 . S
C1018 H1012 0.949 . S
C1018 C1022 1.368 1_554 S
C1019 C1000 1.429 . S
C1019 C1013 1.429 1_556 S
C1019 C1020 1.523 . S
C1020 C1001 1.368 1_556 S
C1020 C1014 1.368 . S
C1020 C1019 1.523 . S
C1021 C1005 1.429 . S
C1021 C1017 1.429 . S
C1021 C1022 1.523 . S
C1022 C1006 1.368 . S
C1022 C1018 1.368 1_556 S
C1022 C1021 1.523 . S
H1023 C998 0.950 . S
H1024 C1000 0.950 . S
H1025 C1001 0.949 . S
H1026 C1003 0.950 1_554 S
H1027 C1005 0.950 1_554 S
C1028 C1029 1.349 . S
C1028 C1030 1.327 . S
C1028 H1053 0.950 . S
C1029 C1028 1.349 . S
C1029 C1045 1.349 1_556 S
C1030 C1028 1.327 . S
C1030 C1049 1.429 1_556 S
C1030 H1054 0.950 . S
C1031 C1048 1.574 . S
C1031 C1050 1.368 . S
C1031 H1055 0.949 . S
H1032 C1036 0.949 . S
C1033 C1034 1.349 . S
C1033 C1035 1.327 . S
C1033 H1056 0.950 . S
C1034 C1033 1.349 . S
C1034 C1046 1.349 . S
C1035 C1033 1.327 . S
C1035 C1051 1.429 . S
C1035 H1057 0.950 . S
C1036 H1032 0.949 . S
C1036 C1044 1.574 . S
C1036 C1052 1.368 1_556 S
H1037 C1045 0.950 . S
H1038 C1043 0.950 . S
H1039 C1044 0.949 . S
H1040 C1046 0.950 1_556 S
H1041 C1047 0.950 1_556 S
H1042 C1048 0.949 . S
C1043 H1038 0.950 . S
C1043 C1045 1.327 . S
C1043 C1049 1.429 . S
C1044 C1036 1.574 . S
C1044 H1039 0.949 . S
C1044 C1050 1.368 1_556 S
C1045 C1029 1.349 1_554 S
C1045 H1037 0.950 . S
C1045 C1043 1.327 . S
C1046 C1034 1.349 . S
C1046 H1040 0.950 1_554 S
C1046 C1047 1.327 . S
C1047 H1041 0.950 1_554 S
C1047 C1046 1.327 . S
C1047 C1051 1.429 . S
C1048 C1031 1.574 . S
C1048 H1042 0.949 . S
C1048 C1052 1.368 . S
C1049 C1030 1.429 1_554 S
C1049 C1043 1.429 . S
C1049 C1050 1.523 . S
C1050 C1031 1.368 . S
C1050 C1044 1.368 1_554 S
C1050 C1049 1.523 . S
C1051 C1035 1.429 . S
C1051 C1047 1.429 . S
C1051 C1052 1.523 . S
C1052 C1036 1.368 1_554 S
C1052 C1048 1.368 . S
C1052 C1051 1.523 . S
H1053 C1028 0.950 . S
H1054 C1030 0.950 . S
H1055 C1031 0.949 . S
H1056 C1033 0.950 . S
H1057 C1035 0.950 . S
C1058 C1059 1.349 . S
C1058 C1060 1.327 . S
C1058 H1083 0.950 . S
C1059 C1058 1.349 . S
C1059 C1075 1.349 . S
C1060 C1058 1.327 . S
C1060 C1079 1.429 . S
C1060 H1084 0.950 1_556 S
C1061 C1078 1.574 . S
C1061 C1080 1.368 . S
C1061 H1085 0.949 . S
H1062 C1066 0.949 . S
C1063 C1064 1.349 1_556 S
C1063 C1065 1.327 . S
C1063 H1086 0.950 . S
C1064 C1063 1.349 1_554 S
C1064 C1076 1.349 . S
C1065 C1063 1.327 . S
C1065 C1081 1.429 . S
C1065 H1087 0.950 . S
C1066 H1062 0.949 . S
C1066 C1074 1.574 . S
C1066 C1082 1.368 1_554 S
H1067 C1075 0.950 . S
H1068 C1073 0.950 . S
H1069 C1074 0.949 . S
H1070 C1076 0.950 . S
H1071 C1077 0.950 . S
H1072 C1078 0.949 . S
C1073 H1068 0.950 . S
C1073 C1075 1.327 . S
C1073 C1079 1.429 . S
C1074 C1066 1.574 . S
C1074 H1069 0.949 . S
C1074 C1080 1.368 1_554 S
C1075 C1059 1.349 . S
C1075 H1067 0.950 . S
C1075 C1073 1.327 . S
C1076 C1064 1.349 . S
C1076 H1070 0.950 . S
C1076 C1077 1.327 . S
C1077 H1071 0.950 . S
C1077 C1076 1.327 . S
C1077 C1081 1.429 1_554 S
C1078 C1061 1.574 . S
C1078 H1072 0.949 . S
C1078 C1082 1.368 . S
C1079 C1060 1.429 . S
C1079 C1073 1.429 . S
C1079 C1080 1.523 . S
C1080 C1061 1.368 . S
C1080 C1074 1.368 1_556 S
C1080 C1079 1.523 . S
C1081 C1065 1.429 . S
C1081 C1077 1.429 1_556 S
C1081 C1082 1.523 . S
C1082 C1066 1.368 1_556 S
C1082 C1078 1.368 . S
C1082 C1081 1.523 . S
H1083 C1058 0.950 . S
H1084 C1060 0.950 1_554 S
H1085 C1061 0.949 . S
H1086 C1063 0.950 . S
H1087 C1065 0.950 . S
C1088 C1089 1.349 . S
C1088 C1090 1.327 . S
C1088 H1113 0.950 . S
C1089 C1088 1.349 . S
C1089 C1105 1.349 . S
C1090 C1088 1.327 . S
C1090 C1109 1.429 . S
C1090 H1114 0.950 . S
C1091 C1108 1.574 . S
C1091 C1110 1.368 1_545 S
C1091 H1115 0.949 . S
H1092 C1096 0.949 . S
C1093 C1094 1.349 . S
C1093 C1095 1.327 . S
C1093 H1116 0.950 . S
C1094 C1093 1.349 . S
C1094 C1106 1.349 . S
C1095 C1093 1.327 . S
C1095 C1111 1.429 . S
C1095 H1117 0.950 . S
C1096 H1092 0.949 . S
C1096 C1104 1.574 . S
C1096 C1112 1.368 1_565 S
H1097 C1105 0.950 1_545 S
H1098 C1103 0.962 . S
H1099 C1104 0.949 . S
H1100 C1106 0.950 1_565 S
H1101 C1107 0.950 1_565 S
H1102 C1108 0.949 . S
C1103 H1098 0.962 . S
C1103 C1105 1.323 1_545 S
C1103 C1109 1.421 1_545 S
C1104 C1096 1.574 . S
C1104 H1099 0.949 . S
C1104 C1110 1.368 . S
C1105 C1089 1.349 . S
C1105 H1097 0.950 1_565 S
C1105 C1103 1.323 1_565 S
C1106 C1094 1.349 . S
C1106 H1100 0.950 1_545 S
C1106 C1107 1.327 . S
C1107 H1101 0.950 1_545 S
C1107 C1106 1.327 . S
C1107 C1111 1.429 . S
C1108 C1091 1.574 . S
C1108 H1102 0.949 . S
C1108 C1112 1.368 . S
C1109 C1090 1.429 . S
C1109 C1103 1.421 1_565 S
C1109 C1110 1.523 . S
C1110 C1091 1.368 1_565 S
C1110 C1104 1.368 . S
C1110 C1109 1.523 . S
C1111 C1095 1.429 . S
C1111 C1107 1.429 . S
C1111 C1112 1.523 . S
C1112 C1096 1.368 1_545 S
C1112 C1108 1.368 . S
C1112 C1111 1.523 . S
H1113 C1088 0.950 . S
H1114 C1090 0.950 . S
H1115 C1091 0.949 . S
H1116 C1093 0.950 . S
H1117 C1095 0.950 . S
C1118 C1119 1.349 . S
C1118 C1120 1.327 . S
C1118 H1143 0.950 . S
C1119 C1118 1.349 . S
C1119 C1135 1.349 . S
C1120 C1118 1.327 . S
C1120 C1139 1.429 . S
C1120 H1144 0.950 1_655 S
C1121 C1138 1.574 . S
C1121 C1140 1.368 . S
C1121 H1145 0.949 . S
H1122 C1126 0.949 . S
C1123 C1124 1.349 . S
C1123 C1125 1.327 . S
C1123 H1146 0.950 . S
C1124 C1123 1.349 . S
C1124 C1136 1.349 . S
C1125 C1123 1.327 . S
C1125 C1141 1.429 . S
C1125 H1147 0.950 1_455 S
C1126 H1122 0.949 . S
C1126 C1134 1.574 . S
C1126 C1142 1.368 . S
H1127 C1135 0.950 . S
H1128 C1133 0.950 . S
H1129 C1134 0.949 . S
H1130 C1136 0.950 . S
H1131 C1137 0.950 . S
H1132 C1138 0.949 . S
C1133 H1128 0.950 . S
C1133 C1135 1.327 . S
C1133 C1139 1.429 . S
C1134 C1126 1.574 . S
C1134 H1129 0.949 . S
C1134 C1140 1.368 1_455 S
C1135 C1119 1.349 . S
C1135 H1127 0.950 . S
C1135 C1133 1.327 . S
C1136 C1124 1.349 . S
C1136 H1130 0.950 . S
C1136 C1137 1.327 . S
C1137 H1131 0.950 . S
C1137 C1136 1.327 . S
C1137 C1141 1.429 . S
C1138 C1121 1.574 . S
C1138 H1132 0.949 . S
C1138 C1142 1.368 1_655 S
C1139 C1120 1.429 . S
C1139 C1133 1.429 . S
C1139 C1140 1.523 . S
C1140 C1121 1.368 . S
C1140 C1134 1.368 1_655 S
C1140 C1139 1.523 . S
C1141 C1125 1.429 . S
C1141 C1137 1.429 . S
C1141 C1142 1.523 . S
C1142 C1126 1.368 . S
C1142 C1138 1.368 1_455 S
C1142 C1141 1.523 . S
H1143 C1118 0.950 . S
H1144 C1120 0.950 1_455 S
H1145 C1121 0.949 . S
H1146 C1123 0.950 . S
H1147 C1125 0.950 1_655 S
C1148 C1149 1.349 . S
C1148 C1150 1.327 . S
C1148 H1173 0.950 . S
C1149 C1148 1.349 . S
C1149 C1165 1.349 . S
C1150 C1148 1.327 . S
C1150 C1169 1.429 . S
C1150 H1174 0.950 1_565 S
C1151 C1168 1.574 . S
C1151 C1170 1.368 . S
C1151 H1175 0.949 . S
H1152 C1156 0.949 . S
C1153 C1154 1.349 . S
C1153 C1155 1.327 . S
C1153 H1176 0.950 . S
C1154 C1153 1.349 . S
C1154 C1166 1.349 . S
C1155 C1153 1.327 . S
C1155 C1171 1.429 . S
C1155 H1177 0.950 1_545 S
C1156 H1152 0.949 . S
C1156 C1164 1.574 . S
C1156 C1172 1.368 . S
H1157 C1165 0.950 . S
H1158 C1163 0.950 . S
H1159 C1164 0.949 . S
H1160 C1166 0.950 . S
H1161 C1167 0.950 . S
H1162 C1168 0.949 . S
C1163 H1158 0.950 . S
C1163 C1165 1.327 . S
C1163 C1169 1.429 . S
C1164 C1156 1.574 . S
C1164 H1159 0.949 . S
C1164 C1170 1.368 1_545 S
C1165 C1149 1.349 . S
C1165 H1157 0.950 . S
C1165 C1163 1.327 . S
C1166 C1154 1.349 . S
C1166 H1160 0.950 . S
C1166 C1167 1.327 . S
C1167 H1161 0.950 . S
C1167 C1166 1.327 . S
C1167 C1171 1.429 . S
C1168 C1151 1.574 . S
C1168 H1162 0.949 . S
C1168 C1172 1.368 1_565 S
C1169 C1150 1.429 . S
C1169 C1163 1.429 . S
C1169 C1170 1.523 . S
C1170 C1151 1.368 . S
C1170 C1164 1.368 1_565 S
C1170 C1169 1.523 . S
C1171 C1155 1.429 . S
C1171 C1167 1.429 . S
C1171 C1172 1.523 . S
C1172 C1156 1.368 . S
C1172 C1168 1.368 1_545 S
C1172 C1171 1.523 . S
H1173 C1148 0.950 . S
H1174 C1150 0.950 1_545 S
H1175 C1151 0.949 . S
H1176 C1153 0.950 . S
H1177 C1155 0.950 1_565 S
C1178 C1179 1.349 . S
C1178 C1180 1.327 . S
C1178 H1203 0.950 . S
C1179 C1178 1.349 . S
C1179 C1195 1.349 . S
C1180 C1178 1.327 . S
C1180 C1199 1.429 . S
C1180 H1204 0.950 . S
C1181 C1198 1.574 . S
C1181 C1200 1.368 1_455 S
C1181 H1205 0.949 . S
H1182 C1186 0.949 . S
C1183 C1184 1.349 . S
C1183 C1185 1.327 . S
C1183 H1206 0.950 . S
C1184 C1183 1.349 . S
C1184 C1196 1.349 . S
C1185 C1183 1.327 . S
C1185 C1201 1.429 . S
C1185 H1207 0.950 . S
C1186 H1182 0.949 . S
C1186 C1194 1.574 . S
C1186 C1202 1.368 1_655 S
H1187 C1195 0.950 . S
H1188 C1193 0.921 1_455 S
H1189 C1194 0.949 . S
H1190 C1196 0.950 . S
H1191 C1197 0.950 1_655 S
H1192 C1198 0.949 . S
C1193 H1188 0.921 1_655 S
C1193 C1195 1.327 . S
C1193 C1199 1.429 . S
C1194 C1186 1.574 . S
C1194 H1189 0.949 . S
C1194 C1200 1.368 . S
C1195 C1179 1.349 . S
C1195 H1187 0.950 . S
C1195 C1193 1.327 . S
C1196 C1184 1.349 . S
C1196 H1190 0.950 . S
C1196 C1197 1.327 . S
C1197 H1191 0.950 1_455 S
C1197 C1196 1.327 . S
C1197 C1201 1.429 . S
C1198 C1181 1.574 . S
C1198 H1192 0.949 . S
C1198 C1202 1.368 . S
C1199 C1180 1.429 . S
C1199 C1193 1.429 . S
C1199 C1200 1.523 . S
C1200 C1181 1.368 1_655 S
C1200 C1194 1.368 . S
C1200 C1199 1.523 . S
C1201 C1185 1.429 . S
C1201 C1197 1.429 . S
C1201 C1202 1.523 . S
C1202 C1186 1.368 1_455 S
C1202 C1198 1.368 . S
C1202 C1201 1.523 . S
H1203 C1178 0.950 . S
H1204 C1180 0.950 . S
H1205 C1181 0.949 . S
H1206 C1183 0.950 . S
H1207 C1185 0.950 . S
C1208 C1209 1.349 . S
C1208 C1210 1.327 1_565 S
C1208 H1233 0.950 1_565 S
C1209 C1208 1.349 . S
C1209 C1225 1.349 . S
C1210 C1208 1.327 1_545 S
C1210 C1229 1.429 1_545 S
C1210 H1234 0.949 . S
C1211 C1228 1.574 . S
C1211 C1230 1.368 . S
C1211 H1235 0.949 . S
H1212 C1216 0.949 . S
C1213 C1214 1.349 . S
C1213 C1215 1.341 . S
C1213 H1236 0.950 1_545 S
C1214 C1213 1.349 . S
C1214 C1226 1.349 . S
C1215 C1213 1.341 . S
C1215 C1231 1.454 . S
C1215 H1237 0.910 1_545 S
C1216 H1212 0.949 . S
C1216 C1224 1.574 . S
C1216 C1232 1.368 . S
H1217 C1225 0.950 . S
H1218 C1223 0.950 . S
H1219 C1224 0.949 . S
H1220 C1226 0.950 . S
H1221 C1227 0.950 . S
H1222 C1228 0.949 . S
C1223 H1218 0.950 . S
C1223 C1225 1.327 . S
C1223 C1229 1.429 . S
C1224 C1216 1.574 . S
C1224 H1219 0.949 . S
C1224 C1230 1.368 1_545 S
C1225 C1209 1.349 . S
C1225 H1217 0.950 . S
C1225 C1223 1.327 . S
C1226 C1214 1.349 . S
C1226 H1220 0.950 . S
C1226 C1227 1.327 . S
C1227 H1221 0.950 . S
C1227 C1226 1.327 . S
C1227 C1231 1.429 . S
C1228 C1211 1.574 . S
C1228 H1222 0.949 . S
C1228 C1232 1.368 1_565 S
C1229 C1210 1.429 1_565 S
C1229 C1223 1.429 . S
C1229 C1230 1.523 . S
C1230 C1211 1.368 . S
C1230 C1224 1.368 1_565 S
C1230 C1229 1.523 . S
C1231 C1215 1.454 . S
C1231 C1227 1.429 . S
C1231 C1232 1.523 . S
C1232 C1216 1.368 . S
C1232 C1228 1.368 1_545 S
C1232 C1231 1.523 . S
H1233 C1208 0.950 1_545 S
H1234 C1210 0.949 . S
H1235 C1211 0.949 . S
H1236 C1213 0.950 1_565 S
H1237 C1215 0.910 1_565 S
C1238 C1239 1.349 . S
C1238 C1240 1.327 . S
C1238 H1263 0.950 . S
C1239 C1238 1.349 . S
C1239 C1255 1.349 . S
C1240 C1238 1.327 . S
C1240 C1259 1.429 . S
C1240 H1264 0.950 . S
C1241 C1258 1.574 . S
C1241 C1260 1.368 1_655 S
C1241 H1265 0.949 . S
H1242 C1246 0.949 . S
C1243 C1244 1.349 . S
C1243 C1245 1.327 . S
C1243 H1266 0.950 . S
C1244 C1243 1.349 . S
C1244 C1256 1.349 . S
C1245 C1243 1.327 . S
C1245 C1261 1.429 . S
C1245 H1267 0.950 . S
C1246 H1242 0.949 . S
C1246 C1254 1.574 . S
C1246 C1262 1.368 1_455 S
H1247 C1255 0.950 . S
H1248 C1253 0.950 1_655 S
H1249 C1254 0.949 . S
H1250 C1256 0.950 . S
H1251 C1257 0.950 1_455 S
H1252 C1258 0.949 . S
C1253 H1248 0.950 1_455 S
C1253 C1255 1.327 . S
C1253 C1259 1.429 . S
C1254 C1246 1.574 . S
C1254 H1249 0.949 . S
C1254 C1260 1.368 . S
C1255 C1239 1.349 . S
C1255 H1247 0.950 . S
C1255 C1253 1.327 . S
C1256 C1244 1.349 . S
C1256 H1250 0.950 . S
C1256 C1257 1.327 . S
C1257 H1251 0.950 1_655 S
C1257 C1256 1.327 . S
C1257 C1261 1.429 . S
C1258 C1241 1.574 . S
C1258 H1252 0.949 . S
C1258 C1262 1.368 . S
C1259 C1240 1.429 . S
C1259 C1253 1.429 . S
C1259 C1260 1.523 . S
C1260 C1241 1.368 1_455 S
C1260 C1254 1.368 . S
C1260 C1259 1.523 . S
C1261 C1245 1.429 . S
C1261 C1257 1.429 . S
C1261 C1262 1.523 . S
C1262 C1246 1.368 1_655 S
C1262 C1258 1.368 . S
C1262 C1261 1.523 . S
H1263 C1238 0.950 . S
H1264 C1240 0.950 . S
H1265 C1241 0.949 . S
H1266 C1243 0.950 . S
H1267 C1245 0.950 . S
C1268 C1269 1.349 . S
C1268 C1270 1.327 . S
C1268 H1293 0.950 . S
C1269 C1268 1.349 . S
C1269 C1285 1.349 . S
C1270 C1268 1.327 . S
C1270 C1289 1.429 . S
C1270 H1294 0.950 . S
C1271 C1288 1.574 . S
C1271 C1290 1.368 1_545 S
C1271 H1295 0.949 . S
H1272 C1276 0.949 . S
C1273 C1274 1.349 . S
C1273 C1275 1.327 . S
C1273 H1296 0.950 . S
C1274 C1273 1.349 . S
C1274 C1286 1.349 . S
C1275 C1273 1.327 . S
C1275 C1291 1.429 . S
C1275 H1297 0.950 . S
C1276 H1272 0.949 . S
C1276 C1284 1.574 . S
C1276 C1292 1.368 1_565 S
H1277 C1285 0.950 . S
H1278 C1283 0.950 1_545 S
H1279 C1284 0.949 . S
H1280 C1286 0.950 . S
H1281 C1287 0.950 1_565 S
H1282 C1288 0.949 . S
C1283 H1278 0.950 1_565 S
C1283 C1285 1.327 . S
C1283 C1289 1.429 . S
C1284 C1276 1.574 . S
C1284 H1279 0.949 . S
C1284 C1290 1.368 . S
C1285 C1269 1.349 . S
C1285 H1277 0.950 . S
C1285 C1283 1.327 . S
C1286 C1274 1.349 . S
C1286 H1280 0.950 . S
C1286 C1287 1.327 . S
C1287 H1281 0.950 1_545 S
C1287 C1286 1.327 . S
C1287 C1291 1.429 . S
C1288 C1271 1.574 . S
C1288 H1282 0.949 . S
C1288 C1292 1.368 . S
C1289 C1270 1.429 . S
C1289 C1283 1.429 . S
C1289 C1290 1.523 . S
C1290 C1271 1.368 1_565 S
C1290 C1284 1.368 . S
C1290 C1289 1.523 . S
C1291 C1275 1.429 . S
C1291 C1287 1.429 . S
C1291 C1292 1.523 . S
C1292 C1276 1.368 1_545 S
C1292 C1288 1.368 . S
C1292 C1291 1.523 . S
H1293 C1268 0.950 . S
H1294 C1270 0.950 . S
H1295 C1271 0.949 . S
H1296 C1273 0.950 . S
H1297 C1275 0.950 . S
C1298 C1299 1.349 . S
C1298 C1300 1.327 . S
C1298 H1323 0.950 . S
C1299 C1298 1.349 . S
C1299 C1315 1.349 . S
C1300 C1298 1.327 . S
C1300 C1319 1.429 . S
C1300 H1324 0.950 1_455 S
C1301 C1318 1.574 . S
C1301 C1320 1.368 . S
C1301 H1325 0.949 . S
H1302 C1306 0.949 . S
C1303 C1304 1.349 . S
C1303 C1305 1.327 . S
C1303 H1326 0.950 . S
C1304 C1303 1.349 . S
C1304 C1316 1.349 . S
C1305 C1303 1.327 . S
C1305 C1321 1.429 . S
C1305 H1327 0.933 1_655 S
C1306 H1302 0.949 . S
C1306 C1314 1.574 . S
C1306 C1322 1.368 . S
H1307 C1315 0.950 . S
H1308 C1313 0.950 . S
H1309 C1314 0.949 . S
H1310 C1316 0.950 . S
H1311 C1317 0.950 . S
H1312 C1318 0.949 . S
C1313 H1308 0.950 . S
C1313 C1315 1.327 . S
C1313 C1319 1.429 . S
C1314 C1306 1.574 . S
C1314 H1309 0.949 . S
C1314 C1320 1.368 1_655 S
C1315 C1299 1.349 . S
C1315 H1307 0.950 . S
C1315 C1313 1.327 . S
C1316 C1304 1.349 . S
C1316 H1310 0.950 . S
C1316 C1317 1.327 . S
C1317 H1311 0.950 . S
C1317 C1316 1.327 . S
C1317 C1321 1.429 . S
C1318 C1301 1.574 . S
C1318 H1312 0.949 . S
C1318 C1322 1.368 1_455 S
C1319 C1300 1.429 . S
C1319 C1313 1.429 . S
C1319 C1320 1.523 . S
C1320 C1301 1.368 . S
C1320 C1314 1.368 1_455 S
C1320 C1319 1.523 . S
C1321 C1305 1.429 . S
C1321 C1317 1.429 . S
C1321 C1322 1.523 . S
C1322 C1306 1.368 . S
C1322 C1318 1.368 1_655 S
C1322 C1321 1.523 . S
H1323 C1298 0.950 . S
H1324 C1300 0.950 1_655 S
H1325 C1301 0.949 . S
H1326 C1303 0.950 . S
H1327 C1305 0.933 1_455 S
C1328 C1329 1.349 . S
C1328 C1330 1.327 . S
C1328 H1353 0.950 . S
C1329 C1328 1.349 . S
C1329 C1345 1.349 . S
C1330 C1328 1.327 . S
C1330 C1349 1.429 . S
C1330 H1354 0.950 . S
C1331 C1348 1.574 . S
C1331 C1350 1.368 . S
C1331 H1355 0.949 . S
H1332 C1336 0.949 . S
C1333 C1334 1.349 . S
C1333 C1335 1.327 . S
C1333 H1356 0.950 . S
C1334 C1333 1.349 . S
C1334 C1346 1.349 . S
C1335 C1333 1.327 . S
C1335 C1351 1.429 . S
C1335 H1357 0.950 . S
C1336 H1332 0.949 . S
C1336 C1344 1.574 . S
C1336 C1352 1.368 . S
H1337 C1345 0.950 . S
H1338 C1343 0.950 . S
H1339 C1344 0.949 . S
H1340 C1346 0.950 . S
H1341 C1347 0.950 . S
H1342 C1348 0.949 . S
C1343 H1338 0.950 . S
C1343 C1345 1.327 . S
C1343 C1349 1.429 . S
C1344 C1336 1.574 . S
C1344 H1339 0.949 . S
C1344 C1350 1.368 . S
C1345 C1329 1.349 . S
C1345 H1337 0.950 . S
C1345 C1343 1.327 . S
C1346 C1334 1.349 . S
C1346 H1340 0.950 . S
C1346 C1347 1.327 . S
C1347 H1341 0.950 . S
C1347 C1346 1.327 . S
C1347 C1351 1.429 . S
C1348 C1331 1.574 . S
C1348 H1342 0.949 . S
C1348 C1352 1.368 . S
C1349 C1330 1.429 . S
C1349 C1343 1.429 . S
C1349 C1350 1.523 . S
C1350 C1331 1.368 . S
C1350 C1344 1.368 . S
C1350 C1349 1.523 . S
C1351 C1335 1.429 . S
C1351 C1347 1.429 . S
C1351 C1352 1.523 . S
C1352 C1336 1.368 . S
C1352 C1348 1.368 . S
C1352 C1351 1.523 . S
H1353 C1328 0.950 . S
H1354 C1330 0.950 . S
H1355 C1331 0.949 . S
H1356 C1333 0.950 . S
H1357 C1335 0.950 . S
C1358 C1359 1.349 . S
C1358 C1360 1.327 . S
C1358 H1383 0.950 . S
C1359 C1358 1.349 . S
C1359 C1375 1.349 . S
C1360 C1358 1.327 . S
C1360 C1379 1.429 . S
C1360 H1384 0.950 . S
C1361 C1378 1.574 . S
C1361 C1380 1.368 . S
C1361 H1385 0.949 . S
H1362 C1366 0.949 . S
C1363 C1364 1.349 . S
C1363 C1365 1.327 . S
C1363 H1386 0.950 . S
C1364 C1363 1.349 . S
C1364 C1376 1.349 . S
C1365 C1363 1.327 . S
C1365 C1381 1.429 . S
C1365 H1387 0.950 . S
C1366 H1362 0.949 . S
C1366 C1374 1.574 . S
C1366 C1382 1.368 . S
H1367 C1375 0.950 . S
H1368 C1373 0.950 . S
H1369 C1374 0.949 . S
H1370 C1376 0.950 . S
H1371 C1377 0.950 . S
H1372 C1378 0.949 . S
C1373 H1368 0.950 . S
C1373 C1375 1.327 . S
C1373 C1379 1.429 . S
C1374 C1366 1.574 . S
C1374 H1369 0.949 . S
C1374 C1380 1.368 . S
C1375 C1359 1.349 . S
C1375 H1367 0.950 . S
C1375 C1373 1.327 . S
C1376 C1364 1.349 . S
C1376 H1370 0.950 . S
C1376 C1377 1.327 . S
C1377 H1371 0.950 . S
C1377 C1376 1.327 . S
C1377 C1381 1.429 . S
C1378 C1361 1.574 . S
C1378 H1372 0.949 . S
C1378 C1382 1.368 . S
C1379 C1360 1.429 . S
C1379 C1373 1.429 . S
C1379 C1380 1.523 . S
C1380 C1361 1.368 . S
C1380 C1374 1.368 . S
C1380 C1379 1.523 . S
C1381 C1365 1.429 . S
C1381 C1377 1.429 . S
C1381 C1382 1.523 . S
C1382 C1366 1.368 . S
C1382 C1378 1.368 . S
C1382 C1381 1.523 . S
H1383 C1358 0.950 . S
H1384 C1360 0.950 . S
H1385 C1361 0.949 . S
H1386 C1363 0.950 . S
H1387 C1365 0.950 . S
C1388 C1389 1.349 . S
C1388 C1390 1.327 . S
C1388 H1413 0.950 . S
C1389 C1388 1.349 . S
C1389 C1405 1.349 . S
C1390 C1388 1.327 . S
C1390 C1409 1.429 . S
C1390 H1414 0.950 . S
C1391 C1408 1.574 . S
C1391 C1410 1.368 . S
C1391 H1415 0.949 . S
H1392 C1396 0.949 . S
C1393 C1394 1.349 . S
C1393 C1395 1.327 . S
C1393 H1416 0.950 . S
C1394 C1393 1.349 . S
C1394 C1406 1.349 . S
C1395 C1393 1.327 . S
C1395 C1411 1.429 . S
C1395 H1417 0.950 . S
C1396 H1392 0.949 . S
C1396 C1404 1.574 . S
C1396 C1412 1.368 . S
H1397 C1405 0.950 . S
H1398 C1403 0.950 . S
H1399 C1404 0.949 . S
H1400 C1406 0.950 . S
H1401 C1407 0.950 . S
H1402 C1408 0.949 . S
C1403 H1398 0.950 . S
C1403 C1405 1.327 . S
C1403 C1409 1.429 . S
C1404 C1396 1.574 . S
C1404 H1399 0.949 . S
C1404 C1410 1.368 . S
C1405 C1389 1.349 . S
C1405 H1397 0.950 . S
C1405 C1403 1.327 . S
C1406 C1394 1.349 . S
C1406 H1400 0.950 . S
C1406 C1407 1.327 . S
C1407 H1401 0.950 . S
C1407 C1406 1.327 . S
C1407 C1411 1.429 . S
C1408 C1391 1.574 . S
C1408 H1402 0.949 . S
C1408 C1412 1.368 . S
C1409 C1390 1.429 . S
C1409 C1403 1.429 . S
C1409 C1410 1.523 . S
C1410 C1391 1.368 . S
C1410 C1404 1.368 . S
C1410 C1409 1.523 . S
C1411 C1395 1.429 . S
C1411 C1407 1.429 . S
C1411 C1412 1.523 . S
C1412 C1396 1.368 . S
C1412 C1408 1.368 . S
C1412 C1411 1.523 . S
H1413 C1388 0.950 . S
H1414 C1390 0.950 . S
H1415 C1391 0.949 . S
H1416 C1393 0.950 . S
H1417 C1395 0.950 . S
C1418 C1419 1.349 . S
C1418 C1420 1.327 . S
C1418 H1443 0.950 . S
C1419 C1418 1.349 . S
C1419 C1435 1.349 . S
C1420 C1418 1.327 . S
C1420 C1439 1.429 . S
C1420 H1444 0.950 . S
C1421 C1438 1.574 . S
C1421 C1440 1.368 . S
C1421 H1445 0.949 . S
H1422 C1426 0.949 . S
C1423 C1424 1.349 . S
C1423 C1425 1.327 . S
C1423 H1446 0.950 . S
C1424 C1423 1.349 . S
C1424 C1436 1.349 . S
C1425 C1423 1.327 . S
C1425 C1441 1.429 . S
C1425 H1447 0.950 . S
C1426 H1422 0.949 . S
C1426 C1434 1.574 . S
C1426 C1442 1.368 . S
H1427 C1435 0.950 . S
H1428 C1433 0.950 . S
H1429 C1434 0.949 . S
H1430 C1436 0.950 . S
H1431 C1437 0.950 . S
H1432 C1438 0.949 . S
C1433 H1428 0.950 . S
C1433 C1435 1.327 . S
C1433 C1439 1.429 . S
C1434 C1426 1.574 . S
C1434 H1429 0.949 . S
C1434 C1440 1.368 . S
C1435 C1419 1.349 . S
C1435 H1427 0.950 . S
C1435 C1433 1.327 . S
C1436 C1424 1.349 . S
C1436 H1430 0.950 . S
C1436 C1437 1.327 . S
C1437 H1431 0.950 . S
C1437 C1436 1.327 . S
C1437 C1441 1.429 . S
C1438 C1421 1.574 . S
C1438 H1432 0.949 . S
C1438 C1442 1.368 . S
C1439 C1420 1.429 . S
C1439 C1433 1.429 . S
C1439 C1440 1.523 . S
C1440 C1421 1.368 . S
C1440 C1434 1.368 . S
C1440 C1439 1.523 . S
C1441 C1425 1.429 . S
C1441 C1437 1.429 . S
C1441 C1442 1.523 . S
C1442 C1426 1.368 . S
C1442 C1438 1.368 . S
C1442 C1441 1.523 . S
H1443 C1418 0.950 . S
H1444 C1420 0.950 . S
H1445 C1421 0.949 . S
H1446 C1423 0.950 . S
H1447 C1425 0.950 . S
C1448 C1449 1.349 . S
C1448 C1450 1.327 . S
C1448 H1473 0.950 . S
C1449 C1448 1.349 . S
C1449 C1465 1.349 . S
C1450 C1448 1.327 . S
C1450 C1469 1.429 . S
C1450 H1474 0.950 . S
C1451 C1468 1.574 . S
C1451 C1470 1.368 . S
C1451 H1475 0.949 . S
H1452 C1456 0.949 . S
C1453 C1454 1.349 . S
C1453 C1455 1.327 . S
C1453 H1476 0.950 . S
C1454 C1453 1.349 . S
C1454 C1466 1.349 . S
C1455 C1453 1.327 . S
C1455 C1471 1.429 . S
C1455 H1477 0.950 . S
C1456 H1452 0.949 . S
C1456 C1464 1.574 . S
C1456 C1472 1.368 . S
H1457 C1465 0.950 . S
H1458 C1463 0.950 . S
H1459 C1464 0.949 . S
H1460 C1466 0.950 . S
H1461 C1467 0.950 . S
H1462 C1468 0.949 . S
C1463 H1458 0.950 . S
C1463 C1465 1.327 . S
C1463 C1469 1.429 . S
C1464 C1456 1.574 . S
C1464 H1459 0.949 . S
C1464 C1470 1.368 . S
C1465 C1449 1.349 . S
C1465 H1457 0.950 . S
C1465 C1463 1.327 . S
C1466 C1454 1.349 . S
C1466 H1460 0.950 . S
C1466 C1467 1.327 . S
C1467 H1461 0.950 . S
C1467 C1466 1.327 . S
C1467 C1471 1.429 . S
C1468 C1451 1.574 . S
C1468 H1462 0.949 . S
C1468 C1472 1.368 . S
C1469 C1450 1.429 . S
C1469 C1463 1.429 . S
C1469 C1470 1.523 . S
C1470 C1451 1.368 . S
C1470 C1464 1.368 . S
C1470 C1469 1.523 . S
C1471 C1455 1.429 . S
C1471 C1467 1.429 . S
C1471 C1472 1.523 . S
C1472 C1456 1.368 . S
C1472 C1468 1.368 . S
C1472 C1471 1.523 . S
H1473 C1448 0.950 . S
H1474 C1450 0.950 . S
H1475 C1451 0.949 . S
H1476 C1453 0.950 . S
H1477 C1455 0.950 . S
C1478 C1479 1.349 . S
C1478 C1480 1.327 . S
C1478 H1503 0.950 . S
C1479 C1478 1.349 . S
C1479 C1495 1.349 . S
C1480 C1478 1.327 . S
C1480 C1499 1.429 . S
C1480 H1504 0.950 . S
C1481 C1498 1.574 . S
C1481 C1500 1.368 . S
C1481 H1505 0.949 . S
H1482 C1486 0.949 . S
C1483 C1484 1.349 . S
C1483 C1485 1.327 . S
C1483 H1506 0.950 . S
C1484 C1483 1.349 . S
C1484 C1496 1.349 . S
C1485 C1483 1.327 . S
C1485 C1501 1.429 . S
C1485 H1507 0.950 . S
C1486 H1482 0.949 . S
C1486 C1494 1.574 . S
C1486 C1502 1.368 . S
H1487 C1495 0.950 . S
H1488 C1493 0.950 . S
H1489 C1494 0.949 . S
H1490 C1496 0.950 . S
H1491 C1497 0.950 . S
H1492 C1498 0.949 . S
C1493 H1488 0.950 . S
C1493 C1495 1.327 . S
C1493 C1499 1.429 . S
C1494 C1486 1.574 . S
C1494 H1489 0.949 . S
C1494 C1500 1.368 . S
C1495 C1479 1.349 . S
C1495 H1487 0.950 . S
C1495 C1493 1.327 . S
C1496 C1484 1.349 . S
C1496 H1490 0.950 . S
C1496 C1497 1.327 . S
C1497 H1491 0.950 . S
C1497 C1496 1.327 . S
C1497 C1501 1.429 . S
C1498 C1481 1.574 . S
C1498 H1492 0.949 . S
C1498 C1502 1.368 . S
C1499 C1480 1.429 . S
C1499 C1493 1.429 . S
C1499 C1500 1.523 . S
C1500 C1481 1.368 . S
C1500 C1494 1.368 . S
C1500 C1499 1.523 . S
C1501 C1485 1.429 . S
C1501 C1497 1.429 . S
C1501 C1502 1.523 . S
C1502 C1486 1.368 . S
C1502 C1498 1.368 . S
C1502 C1501 1.523 . S
H1503 C1478 0.950 . S
H1504 C1480 0.950 . S
H1505 C1481 0.949 . S
H1506 C1483 0.950 . S
H1507 C1485 0.950 . S
C1508 C1509 1.349 . S
C1508 C1510 1.327 . S
C1508 H1533 0.950 . S
C1509 C1508 1.349 . S
C1509 C1525 1.349 . S
C1510 C1508 1.327 . S
C1510 C1529 1.429 . S
C1510 H1534 0.950 . S
C1511 C1528 1.574 . S
C1511 C1530 1.368 . S
C1511 H1535 0.949 . S
H1512 C1516 0.949 . S
C1513 C1514 1.349 . S
C1513 C1515 1.327 . S
C1513 H1536 0.950 . S
C1514 C1513 1.349 . S
C1514 C1526 1.349 . S
C1515 C1513 1.327 . S
C1515 C1531 1.429 . S
C1515 H1537 0.950 . S
C1516 H1512 0.949 . S
C1516 C1524 1.574 . S
C1516 C1532 1.368 . S
H1517 C1525 0.950 . S
H1518 C1523 0.950 . S
H1519 C1524 0.949 . S
H1520 C1526 0.950 . S
H1521 C1527 0.950 . S
H1522 C1528 0.949 . S
C1523 H1518 0.950 . S
C1523 C1525 1.327 . S
C1523 C1529 1.429 . S
C1524 C1516 1.574 . S
C1524 H1519 0.949 . S
C1524 C1530 1.368 . S
C1525 C1509 1.349 . S
C1525 H1517 0.950 . S
C1525 C1523 1.327 . S
C1526 C1514 1.349 . S
C1526 H1520 0.950 . S
C1526 C1527 1.327 . S
C1527 H1521 0.950 . S
C1527 C1526 1.327 . S
C1527 C1531 1.429 . S
C1528 C1511 1.574 . S
C1528 H1522 0.949 . S
C1528 C1532 1.368 . S
C1529 C1510 1.429 . S
C1529 C1523 1.429 . S
C1529 C1530 1.523 . S
C1530 C1511 1.368 . S
C1530 C1524 1.368 . S
C1530 C1529 1.523 . S
C1531 C1515 1.429 . S
C1531 C1527 1.429 . S
C1531 C1532 1.523 . S
C1532 C1516 1.368 . S
C1532 C1528 1.368 . S
C1532 C1531 1.523 . S
H1533 C1508 0.950 . S
H1534 C1510 0.950 . S
H1535 C1511 0.949 . S
H1536 C1513 0.950 . S
H1537 C1515 0.950 . S
C1538 C1539 1.349 . S
C1538 C1540 1.327 . S
C1538 H1563 0.950 . S
C1539 C1538 1.349 . S
C1539 C1555 1.349 . S
C1540 C1538 1.327 . S
C1540 C1559 1.429 . S
C1540 H1564 0.950 . S
C1541 C1558 1.574 . S
C1541 C1560 1.368 . S
C1541 H1565 0.949 . S
H1542 C1546 0.949 . S
C1543 C1544 1.349 . S
C1543 C1545 1.327 . S
C1543 H1566 0.950 . S
C1544 C1543 1.349 . S
C1544 C1556 1.349 . S
C1545 C1543 1.327 . S
C1545 C1561 1.429 . S
C1545 H1567 0.950 . S
C1546 H1542 0.949 . S
C1546 C1554 1.574 . S
C1546 C1562 1.368 . S
H1547 C1555 0.950 . S
H1548 C1553 0.950 . S
H1549 C1554 0.949 . S
H1550 C1556 0.950 . S
H1551 C1557 0.950 . S
H1552 C1558 0.949 . S
C1553 H1548 0.950 . S
C1553 C1555 1.327 . S
C1553 C1559 1.429 . S
C1554 C1546 1.574 . S
C1554 H1549 0.949 . S
C1554 C1560 1.368 . S
C1555 C1539 1.349 . S
C1555 H1547 0.950 . S
C1555 C1553 1.327 . S
C1556 C1544 1.349 . S
C1556 H1550 0.950 . S
C1556 C1557 1.327 . S
C1557 H1551 0.950 . S
C1557 C1556 1.327 . S
C1557 C1561 1.429 . S
C1558 C1541 1.574 . S
C1558 H1552 0.949 . S
C1558 C1562 1.368 . S
C1559 C1540 1.429 . S
C1559 C1553 1.429 . S
C1559 C1560 1.523 . S
C1560 C1541 1.368 . S
C1560 C1554 1.368 . S
C1560 C1559 1.523 . S
C1561 C1545 1.429 . S
C1561 C1557 1.429 . S
C1561 C1562 1.523 . S
C1562 C1546 1.368 . S
C1562 C1558 1.368 . S
C1562 C1561 1.523 . S
H1563 C1538 0.950 . S
H1564 C1540 0.950 . S
H1565 C1541 0.949 . S
H1566 C1543 0.950 . S
H1567 C1545 0.950 . S
C1568 C1569 1.349 . S
C1568 C1570 1.327 . S
C1568 H1593 0.950 . S
C1569 C1568 1.349 . S
C1569 C1585 1.349 . S
C1570 C1568 1.327 . S
C1570 C1589 1.429 . S
C1570 H1594 0.950 . S
C1571 C1588 1.574 . S
C1571 C1590 1.368 1_554 S
C1571 H1595 0.949 . S
H1572 C1576 0.949 . S
C1573 C1574 1.349 . S
C1573 C1575 1.327 . S
C1573 H1596 0.950 . S
C1574 C1573 1.349 . S
C1574 C1586 1.349 . S
C1575 C1573 1.327 . S
C1575 C1591 1.429 . S
C1575 H1597 0.950 . S
C1576 H1572 0.949 . S
C1576 C1584 1.574 . S
C1576 C1592 1.368 1_556 S
H1577 C1585 0.950 1_554 S
H1578 C1583 0.950 . S
H1579 C1584 0.949 . S
H1580 C1586 0.950 1_556 S
H1581 C1587 0.950 . S
H1582 C1588 0.949 . S
C1583 H1578 0.950 . S
C1583 C1585 1.327 1_554 S
C1583 C1589 1.429 1_554 S
C1584 C1576 1.574 . S
C1584 H1579 0.949 . S
C1584 C1590 1.368 . S
C1585 C1569 1.349 . S
C1585 H1577 0.950 1_556 S
C1585 C1583 1.327 1_556 S
C1586 C1574 1.349 . S
C1586 H1580 0.950 1_554 S
C1586 C1587 1.327 1_554 S
C1587 H1581 0.950 . S
C1587 C1586 1.327 1_556 S
C1587 C1591 1.429 1_556 S
C1588 C1571 1.574 . S
C1588 H1582 0.949 . S
C1588 C1592 1.368 . S
C1589 C1570 1.429 . S
C1589 C1583 1.429 1_556 S
C1589 C1590 1.523 . S
C1590 C1571 1.368 1_556 S
C1590 C1584 1.368 . S
C1590 C1589 1.523 . S
C1591 C1575 1.429 . S
C1591 C1587 1.429 1_554 S
C1591 C1592 1.523 . S
C1592 C1576 1.368 1_554 S
C1592 C1588 1.368 . S
C1592 C1591 1.523 . S
H1593 C1568 0.950 . S
H1594 C1570 0.950 . S
H1595 C1571 0.949 . S
H1596 C1573 0.950 . S
H1597 C1575 0.950 . S
C1598 C1599 1.349 . S
C1598 C1600 1.327 . S
C1598 H1623 0.950 . S
C1599 C1598 1.349 . S
C1599 C1615 1.349 . S
C1600 C1598 1.327 . S
C1600 C1619 1.429 . S
C1600 H1624 0.950 . S
C1601 C1618 1.574 . S
C1601 C1620 1.368 1_556 S
C1601 H1625 0.949 . S
H1602 C1606 0.949 . S
C1603 C1604 1.349 . S
C1603 C1605 1.327 . S
C1603 H1626 0.950 . S
C1604 C1603 1.349 . S
C1604 C1616 1.349 . S
C1605 C1603 1.327 . S
C1605 C1621 1.429 . S
C1605 H1627 0.950 . S
C1606 H1602 0.949 . S
C1606 C1614 1.574 . S
C1606 C1622 1.368 1_554 S
H1607 C1615 0.950 1_556 S
H1608 C1613 0.950 . S
H1609 C1614 0.949 . S
H1610 C1616 0.950 1_554 S
H1611 C1617 0.957 . S
H1612 C1618 0.949 . S
C1613 H1608 0.950 . S
C1613 C1615 1.327 1_556 S
C1613 C1619 1.429 1_556 S
C1614 C1606 1.574 . S
C1614 H1609 0.949 . S
C1614 C1620 1.368 . S
C1615 C1599 1.349 . S
C1615 H1607 0.950 1_554 S
C1615 C1613 1.327 1_554 S
C1616 C1604 1.349 . S
C1616 H1610 0.950 1_556 S
C1616 C1617 1.325 1_556 S
C1617 H1611 0.957 . S
C1617 C1616 1.325 1_554 S
C1617 C1621 1.424 1_554 S
C1618 C1601 1.574 . S
C1618 H1612 0.949 . S
C1618 C1622 1.368 . S
C1619 C1600 1.429 . S
C1619 C1613 1.429 1_554 S
C1619 C1620 1.523 . S
C1620 C1601 1.368 1_554 S
C1620 C1614 1.368 . S
C1620 C1619 1.523 . S
C1621 C1605 1.429 . S
C1621 C1617 1.424 1_556 S
C1621 C1622 1.523 . S
C1622 C1606 1.368 1_556 S
C1622 C1618 1.368 . S
C1622 C1621 1.523 . S
H1623 C1598 0.950 . S
H1624 C1600 0.950 . S
H1625 C1601 0.949 . S
H1626 C1603 0.950 . S
H1627 C1605 0.950 . S
C1628 C1629 1.349 . S
C1628 C1630 1.327 1_554 S
C1628 H1653 0.950 1_554 S
C1629 C1628 1.349 . S
C1629 C1645 1.349 . S
C1630 C1628 1.327 1_556 S
C1630 C1649 1.429 1_556 S
C1630 H1654 0.950 . S
C1631 C1648 1.574 . S
C1631 C1650 1.368 . S
C1631 H1655 0.949 . S
H1632 C1636 0.949 . S
C1633 C1634 1.367 . S
C1633 C1635 1.322 1_556 S
C1633 H1656 0.936 1_556 S
C1634 C1633 1.367 . S
C1634 C1646 1.349 . S
C1635 C1633 1.322 1_554 S
C1635 C1651 1.429 1_554 S
C1635 H1657 0.950 . S
C1636 H1632 0.949 . S
C1636 C1644 1.574 . S
C1636 C1652 1.368 . S
H1637 C1645 0.950 . S
H1638 C1643 0.950 . S
H1639 C1644 0.949 . S
H1640 C1646 0.950 . S
H1641 C1647 0.950 . S
H1642 C1648 0.949 . S
C1643 H1638 0.950 . S
C1643 C1645 1.327 . S
C1643 C1649 1.429 . S
C1644 C1636 1.574 . S
C1644 H1639 0.949 . S
C1644 C1650 1.368 1_556 S
C1645 C1629 1.349 . S
C1645 H1637 0.950 . S
C1645 C1643 1.327 . S
C1646 C1634 1.349 . S
C1646 H1640 0.950 . S
C1646 C1647 1.327 . S
C1647 H1641 0.950 . S
C1647 C1646 1.327 . S
C1647 C1651 1.429 . S
C1648 C1631 1.574 . S
C1648 H1642 0.949 . S
C1648 C1652 1.368 1_554 S
C1649 C1630 1.429 1_554 S
C1649 C1643 1.429 . S
C1649 C1650 1.523 . S
C1650 C1631 1.368 . S
C1650 C1644 1.368 1_554 S
C1650 C1649 1.523 . S
C1651 C1635 1.429 1_556 S
C1651 C1647 1.429 . S
C1651 C1652 1.523 . S
C1652 C1636 1.368 . S
C1652 C1648 1.368 1_556 S
C1652 C1651 1.523 . S
H1653 C1628 0.950 1_556 S
H1654 C1630 0.950 . S
H1655 C1631 0.949 . S
H1656 C1633 0.936 1_554 S
H1657 C1635 0.950 . S
C1658 C1659 1.369 . S
C1658 C1660 1.322 1_554 S
C1658 H1683 0.935 1_554 S
C1659 C1658 1.369 . S
C1659 C1675 1.349 . S
C1660 C1658 1.322 1_556 S
C1660 C1679 1.429 1_556 S
C1660 H1684 0.950 . S
C1661 C1678 1.574 . S
C1661 C1680 1.368 . S
C1661 H1685 0.949 . S
H1662 C1666 0.949 . S
C1663 C1664 1.360 . S
C1663 C1665 1.324 1_556 S
C1663 H1686 0.942 1_556 S
C1664 C1663 1.360 . S
C1664 C1676 1.349 . S
C1665 C1663 1.324 1_554 S
C1665 C1681 1.429 1_554 S
C1665 H1687 0.950 . S
C1666 H1662 0.949 . S
C1666 C1674 1.574 . S
C1666 C1682 1.368 . S
H1667 C1675 0.950 . S
H1668 C1673 0.950 . S
H1669 C1674 0.949 . S
H1670 C1676 0.950 . S
H1671 C1677 0.950 . S
H1672 C1678 0.949 . S
C1673 H1668 0.950 . S
C1673 C1675 1.327 . S
C1673 C1679 1.429 . S
C1674 C1666 1.574 . S
C1674 H1669 0.949 . S
C1674 C1680 1.368 1_556 S
C1675 C1659 1.349 . S
C1675 H1667 0.950 . S
C1675 C1673 1.327 . S
C1676 C1664 1.349 . S
C1676 H1670 0.950 . S
C1676 C1677 1.327 . S
C1677 H1671 0.950 . S
C1677 C1676 1.327 . S
C1677 C1681 1.429 . S
C1678 C1661 1.574 . S
C1678 H1672 0.949 . S
C1678 C1682 1.368 1_554 S
C1679 C1660 1.429 1_554 S
C1679 C1673 1.429 . S
C1679 C1680 1.523 . S
C1680 C1661 1.368 . S
C1680 C1674 1.368 1_554 S
C1680 C1679 1.523 . S
C1681 C1665 1.429 1_556 S
C1681 C1677 1.429 . S
C1681 C1682 1.523 . S
C1682 C1666 1.368 . S
C1682 C1678 1.368 1_556 S
C1682 C1681 1.523 . S
H1683 C1658 0.935 1_556 S
H1684 C1660 0.950 . S
H1685 C1661 0.949 . S
H1686 C1663 0.942 1_554 S
H1687 C1665 0.950 . S
C1688 C1689 1.349 . S
C1688 C1690 1.327 . S
C1688 H1713 0.950 . S
C1689 C1688 1.349 . S
C1689 C1705 1.349 . S
C1690 C1688 1.327 . S
C1690 C1709 1.429 . S
C1690 H1714 0.950 . S
C1691 C1708 1.574 . S
C1691 C1710 1.368 . S
C1691 H1715 0.949 . S
H1692 C1696 0.949 . S
C1693 C1694 1.349 . S
C1693 C1695 1.327 . S
C1693 H1716 0.950 . S
C1694 C1693 1.349 . S
C1694 C1706 1.349 . S
C1695 C1693 1.327 . S
C1695 C1711 1.429 . S
C1695 H1717 0.950 . S
C1696 H1692 0.949 . S
C1696 C1704 1.574 . S
C1696 C1712 1.368 . S
H1697 C1705 0.950 . S
H1698 C1703 0.950 . S
H1699 C1704 0.949 . S
H1700 C1706 0.950 . S
H1701 C1707 0.950 . S
H1702 C1708 0.949 . S
C1703 H1698 0.950 . S
C1703 C1705 1.327 . S
C1703 C1709 1.429 . S
C1704 C1696 1.574 . S
C1704 H1699 0.949 . S
C1704 C1710 1.368 . S
C1705 C1689 1.349 . S
C1705 H1697 0.950 . S
C1705 C1703 1.327 . S
C1706 C1694 1.349 . S
C1706 H1700 0.950 . S
C1706 C1707 1.327 . S
C1707 H1701 0.950 . S
C1707 C1706 1.327 . S
C1707 C1711 1.429 . S
C1708 C1691 1.574 . S
C1708 H1702 0.949 . S
C1708 C1712 1.368 . S
C1709 C1690 1.429 . S
C1709 C1703 1.429 . S
C1709 C1710 1.523 . S
C1710 C1691 1.368 . S
C1710 C1704 1.368 . S
C1710 C1709 1.523 . S
C1711 C1695 1.429 . S
C1711 C1707 1.429 . S
C1711 C1712 1.523 . S
C1712 C1696 1.368 . S
C1712 C1708 1.368 . S
C1712 C1711 1.523 . S
H1713 C1688 0.950 . S
H1714 C1690 0.950 . S
H1715 C1691 0.949 . S
H1716 C1693 0.950 . S
H1717 C1695 0.950 . S
C1718 C1719 1.349 . S
C1718 C1720 1.327 . S
C1718 H1743 0.950 . S
C1719 C1718 1.349 . S
C1719 C1735 1.349 . S
C1720 C1718 1.327 . S
C1720 C1739 1.429 . S
C1720 H1744 0.950 . S
C1721 C1738 1.574 . S
C1721 C1740 1.368 . S
C1721 H1745 0.949 . S
H1722 C1726 0.949 . S
C1723 C1724 1.349 . S
C1723 C1725 1.327 . S
C1723 H1746 0.950 . S
C1724 C1723 1.349 . S
C1724 C1736 1.349 . S
C1725 C1723 1.327 . S
C1725 C1741 1.429 . S
C1725 H1747 0.950 . S
C1726 H1722 0.949 . S
C1726 C1734 1.574 . S
C1726 C1742 1.368 . S
H1727 C1735 0.950 . S
H1728 C1733 0.950 . S
H1729 C1734 0.949 . S
H1730 C1736 0.950 . S
H1731 C1737 0.950 . S
H1732 C1738 0.949 . S
C1733 H1728 0.950 . S
C1733 C1735 1.327 . S
C1733 C1739 1.429 . S
C1734 C1726 1.574 . S
C1734 H1729 0.949 . S
C1734 C1740 1.368 . S
C1735 C1719 1.349 . S
C1735 H1727 0.950 . S
C1735 C1733 1.327 . S
C1736 C1724 1.349 . S
C1736 H1730 0.950 . S
C1736 C1737 1.327 . S
C1737 H1731 0.950 . S
C1737 C1736 1.327 . S
C1737 C1741 1.429 . S
C1738 C1721 1.574 . S
C1738 H1732 0.949 . S
C1738 C1742 1.368 . S
C1739 C1720 1.429 . S
C1739 C1733 1.429 . S
C1739 C1740 1.523 . S
C1740 C1721 1.368 . S
C1740 C1734 1.368 . S
C1740 C1739 1.523 . S
C1741 C1725 1.429 . S
C1741 C1737 1.429 . S
C1741 C1742 1.523 . S
C1742 C1726 1.368 . S
C1742 C1738 1.368 . S
C1742 C1741 1.523 . S
H1743 C1718 0.950 . S
H1744 C1720 0.950 . S
H1745 C1721 0.949 . S
H1746 C1723 0.950 . S
H1747 C1725 0.950 . S
C1748 C1749 1.349 . S
C1748 C1750 1.327 . S
C1748 H1773 0.950 . S
C1749 C1748 1.349 . S
C1749 C1765 1.349 . S
C1750 C1748 1.327 . S
C1750 C1769 1.429 . S
C1750 H1774 0.950 . S
C1751 C1768 1.574 . S
C1751 C1770 1.368 . S
C1751 H1775 0.949 . S
H1752 C1756 0.949 . S
C1753 C1754 1.349 . S
C1753 C1755 1.327 . S
C1753 H1776 0.950 . S
C1754 C1753 1.349 . S
C1754 C1766 1.349 . S
C1755 C1753 1.327 . S
C1755 C1771 1.429 . S
C1755 H1777 0.950 . S
C1756 H1752 0.949 . S
C1756 C1764 1.574 . S
C1756 C1772 1.368 . S
H1757 C1765 0.950 . S
H1758 C1763 0.950 . S
H1759 C1764 0.949 . S
H1760 C1766 0.950 . S
H1761 C1767 0.950 . S
H1762 C1768 0.949 . S
C1763 H1758 0.950 . S
C1763 C1765 1.327 . S
C1763 C1769 1.429 . S
C1764 C1756 1.574 . S
C1764 H1759 0.949 . S
C1764 C1770 1.368 . S
C1765 C1749 1.349 . S
C1765 H1757 0.950 . S
C1765 C1763 1.327 . S
C1766 C1754 1.349 . S
C1766 H1760 0.950 . S
C1766 C1767 1.327 . S
C1767 H1761 0.950 . S
C1767 C1766 1.327 . S
C1767 C1771 1.429 . S
C1768 C1751 1.574 . S
C1768 H1762 0.949 . S
C1768 C1772 1.368 . S
C1769 C1750 1.429 . S
C1769 C1763 1.429 . S
C1769 C1770 1.523 . S
C1770 C1751 1.368 . S
C1770 C1764 1.368 . S
C1770 C1769 1.523 . S
C1771 C1755 1.429 . S
C1771 C1767 1.429 . S
C1771 C1772 1.523 . S
C1772 C1756 1.368 . S
C1772 C1768 1.368 . S
C1772 C1771 1.523 . S
H1773 C1748 0.950 . S
H1774 C1750 0.950 . S
H1775 C1751 0.949 . S
H1776 C1753 0.950 . S
H1777 C1755 0.950 . S
C1778 C1779 1.349 . S
C1778 C1780 1.327 . S
C1778 H1803 0.950 . S
C1779 C1778 1.349 . S
C1779 C1795 1.349 . S
C1780 C1778 1.327 . S
C1780 C1799 1.429 . S
C1780 H1804 0.950 . S
C1781 C1798 1.574 . S
C1781 C1800 1.368 . S
C1781 H1805 0.949 . S
H1782 C1786 0.949 . S
C1783 C1784 1.349 . S
C1783 C1785 1.327 . S
C1783 H1806 0.950 . S
C1784 C1783 1.349 . S
C1784 C1796 1.349 . S
C1785 C1783 1.327 . S
C1785 C1801 1.429 . S
C1785 H1807 0.950 . S
C1786 H1782 0.949 . S
C1786 C1794 1.574 . S
C1786 C1802 1.368 . S
H1787 C1795 0.950 . S
H1788 C1793 0.950 . S
H1789 C1794 0.949 . S
H1790 C1796 0.950 . S
H1791 C1797 0.950 . S
H1792 C1798 0.949 . S
C1793 H1788 0.950 . S
C1793 C1795 1.327 . S
C1793 C1799 1.429 . S
C1794 C1786 1.574 . S
C1794 H1789 0.949 . S
C1794 C1800 1.368 . S
C1795 C1779 1.349 . S
C1795 H1787 0.950 . S
C1795 C1793 1.327 . S
C1796 C1784 1.349 . S
C1796 H1790 0.950 . S
C1796 C1797 1.327 . S
C1797 H1791 0.950 . S
C1797 C1796 1.327 . S
C1797 C1801 1.429 . S
C1798 C1781 1.574 . S
C1798 H1792 0.949 . S
C1798 C1802 1.368 . S
C1799 C1780 1.429 . S
C1799 C1793 1.429 . S
C1799 C1800 1.523 . S
C1800 C1781 1.368 . S
C1800 C1794 1.368 . S
C1800 C1799 1.523 . S
C1801 C1785 1.429 . S
C1801 C1797 1.429 . S
C1801 C1802 1.523 . S
C1802 C1786 1.368 . S
C1802 C1798 1.368 . S
C1802 C1801 1.523 . S
H1803 C1778 0.950 . S
H1804 C1780 0.950 . S
H1805 C1781 0.949 . S
H1806 C1783 0.950 . S
H1807 C1785 0.950 . S
C369 C16 0.951 . S
C374 C131 0.951 . S
C399 C39 0.948 . S
C404 C154 0.948 . S
C429 C177 0.943 . S
C434 C62 0.943 . S
C459 C109 0.936 . S
C464 C85 0.937 . S
C489 C315 0.951 . S
C494 C200 0.951 . S
C519 C223 0.948 . S
C524 C338 0.948 . S
C549 C361 0.943 . S
C554 C246 0.943 . S
C579 C293 0.936 . S
C584 C269 0.937 . S
C609 C19 1.526 1_565 S
C614 C44 1.504 . S
C639 C67 1.505 . S
C644 C42 1.526 1_655 S
C669 C90 1.519 . S
C674 C65 1.542 1_545 S
C699 C88 1.527 1_455 S
C704 C21 1.506 . S
C729 C110 1.525 1_565 S
C734 C182 1.497 . S
C759 C112 1.505 . S
C764 C134 1.493 1_655 S
C789 C136 1.493 . S
C794 C157 1.515 1_545 S
C819 C159 1.502 . S
C824 C180 1.523 1_455 S
C849 C203 1.526 . S
C854 C228 1.504 . S
C879 C251 1.505 . S
C884 C226 1.526 . S
C909 C249 1.542 . S
C914 C274 1.519 . S
C939 C272 1.527 . S
C944 C205 1.506 . S
C969 C366 1.497 . S
C974 C294 1.525 . S
C999 C296 1.505 . S
C1004 C318 1.493 . S
C1029 C320 1.493 . S
C1034 C341 1.515 . S
C1059 C364 1.523 . S
C1064 C343 1.502 . S
C1089 C156 1.316 . S
C1094 C17 1.314 . S
C1119 C179 1.310 . S
C1124 C40 1.308 . S
C1149 C63 1.327 . S
C1154 C111 1.304 . S
C1179 C86 1.314 . S
C1184 C133 1.316 . S
C1209 C64 1.364 . S
C1214 C108 1.358 . S
C1239 C132 1.321 . S
C1244 C87 1.322 . S
C1269 C155 1.312 . S
C1274 C18 1.313 . S
C1299 C41 1.320 . S
C1304 C178 1.319 . S
C1329 C201 1.314 . S
C1334 C340 1.316 . S
C1359 C224 1.308 . S
C1364 C363 1.310 . S
C1389 C295 1.304 . S
C1394 C247 1.327 . S
C1419 C270 1.314 . S
C1424 C317 1.316 . S
C1449 C292 1.358 . S
C1454 C248 1.364 . S
C1479 C316 1.321 . S
C1484 C271 1.322 . S
C1509 C339 1.312 . S
C1514 C202 1.313 . S
C1539 C225 1.320 . S
C1544 C362 1.319 . S
C1569 C365 1.208 . S
C1574 C20 1.209 . S
C1599 C297 1.226 . S
C1604 C43 1.221 . S
C1629 C66 1.196 . S
C1634 C319 1.196 . S
C1659 C342 1.178 . S
C1664 C89 1.179 . S
C1689 C113 1.226 . S
C1694 C227 1.221 . S
C1719 C135 1.196 . S
C1724 C250 1.196 . S
C1749 C273 1.179 . S
C1754 C158 1.178 . S
C1779 C181 1.208 . S
C1784 C204 1.209 . S
