# Generated by pormake.
# Topology zff, (5)-cn, num edge types: 1
# Building blocks:
#     Node 0, Type 0, BuildingBlock: XOMCOT_clean_sbu_0, # of connection points: 5
#     Node 1, Type 0, BuildingBlock: XOMCOT_clean_sbu_0, # of connection points: 5
#     Node 2, Type 0, BuildingBlock: XOMCOT_clean_sbu_0, # of connection points: 5
#     Node 3, Type 0, BuildingBlock: XOMCOT_clean_sbu_0, # of connection points: 5
#     Node 4, Type 0, BuildingBlock: XOMCOT_clean_sbu_0, # of connection points: 5
#     Node 5, Type 0, BuildingBlock: XOMCOT_clean_sbu_0, # of connection points: 5
#     Node 6, Type 0, BuildingBlock: XOMCOT_clean_sbu_0, # of connection points: 5
#     Node 7, Type 0, BuildingBlock: XOMCOT_clean_sbu_0, # of connection points: 5
#     Node 8, Type 0, BuildingBlock: XOMCOT_clean_sbu_0, # of connection points: 5
#     Node 9, Type 0, BuildingBlock: XOMCOT_clean_sbu_0, # of connection points: 5
#     Node 10, Type 0, BuildingBlock: XOMCOT_clean_sbu_0, # of connection points: 5
#     Node 11, Type 0, BuildingBlock: XOMCOT_clean_sbu_0, # of connection points: 5
#     Node 12, Type 0, BuildingBlock: XOMCOT_clean_sbu_0, # of connection points: 5
#     Node 13, Type 0, BuildingBlock: XOMCOT_clean_sbu_0, # of connection points: 5
#     Node 14, Type 0, BuildingBlock: XOMCOT_clean_sbu_0, # of connection points: 5
#     Node 15, Type 0, BuildingBlock: XOMCOT_clean_sbu_0, # of connection points: 5
#     Edge 16, Type (0, 0), BuildingBlock: XIVTED_clean_linker_0, # of connection points: 2
#     Edge 17, Type (0, 0), BuildingBlock: XIVTED_clean_linker_0, # of connection points: 2
#     Edge 18, Type (0, 0), BuildingBlock: XIVTED_clean_linker_0, # of connection points: 2
#     Edge 19, Type (0, 0), BuildingBlock: XIVTED_clean_linker_0, # of connection points: 2
#     Edge 20, Type (0, 0), BuildingBlock: XIVTED_clean_linker_0, # of connection points: 2
#     Edge 21, Type (0, 0), BuildingBlock: XIVTED_clean_linker_0, # of connection points: 2
#     Edge 22, Type (0, 0), BuildingBlock: XIVTED_clean_linker_0, # of connection points: 2
#     Edge 23, Type (0, 0), BuildingBlock: XIVTED_clean_linker_0, # of connection points: 2
#     Edge 24, Type (0, 0), BuildingBlock: XIVTED_clean_linker_0, # of connection points: 2
#     Edge 25, Type (0, 0), BuildingBlock: XIVTED_clean_linker_0, # of connection points: 2
#     Edge 26, Type (0, 0), BuildingBlock: XIVTED_clean_linker_0, # of connection points: 2
#     Edge 27, Type (0, 0), BuildingBlock: XIVTED_clean_linker_0, # of connection points: 2
#     Edge 28, Type (0, 0), BuildingBlock: XIVTED_clean_linker_0, # of connection points: 2
#     Edge 29, Type (0, 0), BuildingBlock: XIVTED_clean_linker_0, # of connection points: 2
#     Edge 30, Type (0, 0), BuildingBlock: XIVTED_clean_linker_0, # of connection points: 2
#     Edge 31, Type (0, 0), BuildingBlock: XIVTED_clean_linker_0, # of connection points: 2
#     Edge 32, Type (0, 0), BuildingBlock: XIVTED_clean_linker_0, # of connection points: 2
#     Edge 33, Type (0, 0), BuildingBlock: XIVTED_clean_linker_0, # of connection points: 2
#     Edge 34, Type (0, 0), BuildingBlock: XIVTED_clean_linker_0, # of connection points: 2
#     Edge 35, Type (0, 0), BuildingBlock: XIVTED_clean_linker_0, # of connection points: 2
#     Edge 36, Type (0, 0), BuildingBlock: XIVTED_clean_linker_0, # of connection points: 2
#     Edge 37, Type (0, 0), BuildingBlock: XIVTED_clean_linker_0, # of connection points: 2
#     Edge 38, Type (0, 0), BuildingBlock: XIVTED_clean_linker_0, # of connection points: 2
#     Edge 39, Type (0, 0), BuildingBlock: XIVTED_clean_linker_0, # of connection points: 2
#     Edge 40, Type (0, 0), BuildingBlock: XIVTED_clean_linker_0, # of connection points: 2
#     Edge 41, Type (0, 0), BuildingBlock: XIVTED_clean_linker_0, # of connection points: 2
#     Edge 42, Type (0, 0), BuildingBlock: XIVTED_clean_linker_0, # of connection points: 2
#     Edge 43, Type (0, 0), BuildingBlock: XIVTED_clean_linker_0, # of connection points: 2
#     Edge 44, Type (0, 0), BuildingBlock: XIVTED_clean_linker_0, # of connection points: 2
#     Edge 45, Type (0, 0), BuildingBlock: XIVTED_clean_linker_0, # of connection points: 2
#     Edge 46, Type (0, 0), BuildingBlock: XIVTED_clean_linker_0, # of connection points: 2
#     Edge 47, Type (0, 0), BuildingBlock: XIVTED_clean_linker_0, # of connection points: 2
#     Edge 48, Type (0, 0), BuildingBlock: XIVTED_clean_linker_0, # of connection points: 2
#     Edge 49, Type (0, 0), BuildingBlock: XIVTED_clean_linker_0, # of connection points: 2
#     Edge 50, Type (0, 0), BuildingBlock: XIVTED_clean_linker_0, # of connection points: 2
#     Edge 51, Type (0, 0), BuildingBlock: XIVTED_clean_linker_0, # of connection points: 2
#     Edge 52, Type (0, 0), BuildingBlock: XIVTED_clean_linker_0, # of connection points: 2
#     Edge 53, Type (0, 0), BuildingBlock: XIVTED_clean_linker_0, # of connection points: 2
#     Edge 54, Type (0, 0), BuildingBlock: XIVTED_clean_linker_0, # of connection points: 2
#     Edge 55, Type (0, 0), BuildingBlock: XIVTED_clean_linker_0, # of connection points: 2
# Relax obj value: 0.156
# Max RMSD: 0.225
# Mean RMSD: 0.225
data_MOF--net-zff--node1-XOMCOT_clean_sbu_0--edge1-XIVTED_clean_linker_0
_symmetry_space_group_name_H-M    P1
_symmetry_Int_Tables_number       1
_symmetry_cell_setting            triclinic
loop_
_symmetry_equiv_pos_as_xyz
'x, y, z'
_cell_length_a     37.850046
_cell_length_b     37.769039
_cell_length_c     66.883389
_cell_angle_alpha  89.855693
_cell_angle_beta   90.366716
_cell_angle_gamma 89.950552
loop_
_atom_site_label
_atom_site_type_symbol
_atom_site_fract_x
_atom_site_fract_y
_atom_site_fract_z
_atom_type_partial_charge
Co0 Co 0.03824 0.30207 0.38483 0.0
C1 C 0.05767 0.31876 0.34269 0.0
C2 C 0.00193 0.3118 0.346 0.0
C3 C 0.0084 0.32314 0.32681 0.0
N4 N 0.0329 0.30781 0.3559 0.0
N5 N 0.04346 0.32774 0.32477 0.0
H6 H 0.08515 0.3226 0.34641 0.0
H7 H 0.97609 0.30911 0.35263 0.0
C8 C 0.98567 0.24765 0.37332 0.0
O9 O 0.00754 0.23812 0.35912 0.0
N10 N 0.0445 0.29817 0.41353 0.0
C11 C 0.07639 0.29562 0.42247 0.0
C12 C 0.07189 0.29397 0.44275 0.0
C13 C 0.02082 0.29867 0.42857 0.0
N14 N 0.03704 0.29585 0.44666 0.0
C15 C 0.10097 0.26162 0.37372 0.0
C16 C 0.07957 0.20119 0.39372 0.0
C17 C 0.11299 0.20163 0.38502 0.0
C18 C 0.12363 0.23217 0.37466 0.0
C19 C 0.05826 0.23089 0.39263 0.0
N20 N 0.06835 0.26045 0.38231 0.0
H21 H 0.11055 0.28576 0.36713 0.0
H22 H 0.0341 0.23049 0.40109 0.0
H23 H 0.10136 0.29531 0.4147 0.0
H24 H -0.00743 0.30105 0.42634 0.0
O25 O 0.0728 0.34011 0.38474 0.0
O26 O 0.01444 0.34579 0.3881 0.0
O27 O -0.00555 0.27186 0.38569 0.0
C28 C 0.04523 0.36051 0.387 0.0
H29 H 0.98861 0.32996 0.31569 0.0
H30 H 0.09283 0.29256 0.45383 0.0
H31 H 0.07011 0.17827 0.40185 0.0
H32 H 0.1497 0.23387 0.36815 0.0
Co33 Co 0.68808 0.02424 0.39683 0.0
C34 C 0.65387 0.0427 0.3581 0.0
C35 C 0.66929 0.98799 0.35929 0.0
C36 C 0.65423 -0.00523 0.34086 0.0
N37 N 0.6693 0.01808 0.37001 0.0
N38 N 0.64457 0.02919 0.34008 0.0
H39 H 0.65024 0.07006 0.36241 0.0
H40 H 0.6795 0.96284 0.36451 0.0
C41 C 0.7604 0.98972 0.3937 0.0
O42 O 0.77648 0.01671 0.40201 0.0
N43 N 0.70675 0.03053 0.42421 0.0
C44 C 0.73341 0.05176 0.43037 0.0
C45 C 0.73613 0.05052 0.45085 0.0
C46 C 0.6939 0.01653 0.44142 0.0
N47 N 0.71116 0.02848 0.45789 0.0
C48 C 0.70663 0.09776 0.39548 0.0
C49 C 0.75887 0.09025 0.36707 0.0
C50 C 0.75558 0.12263 0.37711 0.0
C51 C 0.72795 0.12676 0.39081 0.0
C52 C 0.73712 0.06208 0.37224 0.0
N53 N 0.71343 0.06537 0.38738 0.0
H54 H 0.68641 0.10055 0.40671 0.0
H55 H 0.74029 0.03715 0.36458 0.0
H56 H 0.75005 0.06764 0.42087 0.0
H57 H 0.6722 -0.00197 0.44198 0.0
O58 O 0.64406 0.04618 0.40453 0.0
O59 O 0.65657 0.98864 0.40606 0.0
O60 O 0.72726 0.99044 0.39028 0.0
C61 C 0.63382 0.01394 0.40857 0.0
H62 H 0.65036 0.97564 0.32903 0.0
H63 H 0.75457 0.06563 0.45982 0.0
H64 H 0.77946 0.08587 0.35618 0.0
H65 H 0.72383 0.15164 0.39846 0.0
Co66 Co 0.96714 0.66511 0.3863 0.0
C67 C 0.95077 0.64702 0.34478 0.0
C68 C 0.00584 0.65947 0.34787 0.0
C69 C -0.00077 0.64925 0.32834 0.0
N70 N 0.97531 0.6581 0.35805 0.0
N71 N 0.9646 0.64117 0.32652 0.0
H72 H 0.92335 0.64275 0.34857 0.0
H73 H 0.03123 0.66627 0.35427 0.0
C74 C 0.00981 0.72923 0.39687 0.0
O75 O 0.98394 0.74125 0.40797 0.0
N76 N 0.95816 0.67036 0.41494 0.0
C77 C 0.92822 0.66006 0.42419 0.0
C78 C 0.93347 0.65989 0.44444 0.0
C79 C 0.98185 0.67485 0.43008 0.0
N80 N 0.96714 0.66908 0.4482 0.0
C81 C 0.89899 0.70144 0.38501 0.0
C82 C 0.92512 0.76048 0.36562 0.0
C83 C 0.8916 0.76229 0.37424 0.0
C84 C 0.8777 0.7316 0.38307 0.0
C85 C 0.94534 0.73002 0.368 0.0
N86 N 0.93348 0.70224 0.37923 0.0
H87 H 0.88777 0.67787 0.39132 0.0
H88 H 0.97136 0.72946 0.36147 0.0
H89 H 0.90496 0.64966 0.41698 0.0
H90 H 0.0097 0.67986 0.42789 0.0
O91 O 0.93765 0.62292 0.38603 0.0
O92 O -0.0045 0.6251 0.39241 0.0
O93 O 0.00676 0.70016 0.3874 0.0
C94 C 0.96703 0.60644 0.39052 0.0
H95 H 0.01869 0.64651 0.31666 0.0
H96 H 0.91434 0.65199 0.45556 0.0
H97 H 0.93614 0.78286 0.35765 0.0
H98 H 0.85128 0.7313 0.38919 0.0
Co99 Co 0.32384 0.94566 0.40245 0.0
C100 C 0.34449 0.92732 0.36134 0.0
C101 C 0.33099 0.98239 0.36359 0.0
C102 C 0.34047 0.97523 0.34412 0.0
N103 N 0.33333 0.95226 0.37428 0.0
N104 N 0.34898 0.94056 0.34271 0.0
H105 H 0.34878 0.89995 0.3655 0.0
H106 H 0.32326 0.00781 0.36955 0.0
C107 C 0.25265 0.98002 0.40719 0.0
O108 O 0.24141 0.95353 0.41822 0.0
N109 N 0.31582 0.93863 0.43115 0.0
C110 C 0.32982 0.91182 0.44202 0.0
C111 C 0.32315 0.91701 0.46184 0.0
C112 C 0.30255 0.9611 0.44508 0.0
N113 N 0.30583 0.94787 0.4639 0.0
C114 C 0.29757 0.87334 0.40356 0.0
C115 C 0.23917 0.88727 0.37981 0.0
C116 C 0.24067 0.85553 0.39057 0.0
C117 C 0.27101 0.84786 0.40186 0.0
C118 C 0.2659 0.91215 0.38231 0.0
N119 N 0.29306 0.90623 0.39548 0.0
H120 H 0.32124 0.86666 0.41162 0.0
H121 H 0.26375 0.93704 0.37441 0.0
H122 H 0.34666 0.89114 0.4364 0.0
H123 H 0.29179 0.98696 0.44166 0.0
O124 O 0.36929 0.92233 0.40524 0.0
O125 O 0.35866 0.97988 0.40895 0.0
O126 O 0.28385 0.98016 0.4002 0.0
C127 C 0.38118 0.95403 0.40929 0.0
H128 H 0.34164 -0.00568 0.33205 0.0
H129 H 0.3325 0.90037 0.47397 0.0
H130 H 0.2165 0.8938 0.37053 0.0
H131 H 0.27376 0.82279 0.40962 0.0
Co132 Co 0.01513 0.68674 0.65132 0.0
C133 C 0.03236 0.65804 0.6914 0.0
C134 C 0.97645 0.66534 0.6874 0.0
C135 C 0.98241 0.64988 0.70582 0.0
N136 N 0.00776 0.67036 0.67841 0.0
N137 N 0.01755 0.64534 0.70831 0.0
H138 H 0.06035 0.65717 0.68821 0.0
H139 H 0.95103 0.67158 0.6808 0.0
C140 C 0.95184 0.72668 0.64366 0.0
O141 O 0.95 0.70656 0.6277 0.0
N142 N 0.02277 0.70369 0.62407 0.0
C143 C 0.02735 0.73789 0.61886 0.0
C144 C 0.02998 0.74027 0.59841 0.0
C145 C 0.0225 0.68574 0.60657 0.0
N146 N 0.02681 0.7075 0.59064 0.0
C147 C 0.08432 0.7164 0.65153 0.0
C148 C 0.06929 0.76936 0.67876 0.0
C149 C 0.10064 0.77102 0.66779 0.0
C150 C 0.10881 0.74341 0.65464 0.0
C151 C 0.04527 0.74227 0.6749 0.0
N152 N 0.05228 0.71748 0.66068 0.0
H153 H 0.08974 0.69615 0.64056 0.0
H154 H 0.0202 0.7423 0.68255 0.0
H155 H 0.02784 0.75981 0.62924 0.0
H156 H 0.0187 0.65748 0.60539 0.0
O157 O 0.04171 0.64385 0.64617 0.0
O158 O 0.98382 0.65087 0.64199 0.0
O159 O 0.9786 0.72437 0.65527 0.0
C160 C 0.01105 0.63011 0.64161 0.0
H161 H 0.9624 0.64229 0.71649 0.0
H162 H 0.0325 0.76454 0.5899 0.0
H163 H 0.06218 0.79024 0.68906 0.0
H164 H 0.13301 0.74377 0.64607 0.0
Co165 Co 0.29192 0.04039 0.66286 0.0
C166 C 0.32308 0.05572 0.70269 0.0
C167 C 0.31003 0.00068 0.69939 0.0
C168 C 0.32645 0.00537 0.71765 0.0
N169 N 0.30799 0.03222 0.69004 0.0
N170 N 0.33464 0.03996 0.71971 0.0
H171 H 0.32676 0.08346 0.69918 0.0
H172 H 0.30113 0.97585 0.69312 0.0
C173 C 0.22121 0.00489 0.65978 0.0
O174 O 0.20919 0.0305 0.64834 0.0
N175 N 0.27636 0.04848 0.635 0.0
C176 C 0.25583 0.0747 0.62738 0.0
C177 C 0.25317 0.07103 0.607 0.0
C178 C 0.28533 0.02898 0.61878 0.0
N179 N 0.27179 0.04235 0.60156 0.0
C180 C 0.27393 0.11406 0.66675 0.0
C181 C 0.21349 0.10214 0.68876 0.0
C182 C 0.21854 0.13544 0.67994 0.0
C183 C 0.25041 0.142 0.66996 0.0
C184 C 0.23751 0.07514 0.68509 0.0
N185 N 0.26509 0.08051 0.67244 0.0
H186 H 0.29722 0.11856 0.65783 0.0
H187 H 0.23277 0.04942 0.6916 0.0
H188 H 0.24178 0.09442 0.63577 0.0
H189 H 0.30183 0.00563 0.61941 0.0
O190 O 0.33651 0.06303 0.65701 0.0
O191 O 0.32459 0.00564 0.65393 0.0
O192 O 0.25214 0.00628 0.66735 0.0
C193 C 0.34729 0.03121 0.65249 0.0
H194 H 0.33219 0.98483 0.72851 0.0
H195 H 0.23777 0.08766 0.59702 0.0
H196 H 0.18981 0.09595 0.69706 0.0
H197 H 0.25592 0.16773 0.66352 0.0
Co198 Co 0.94663 0.31564 0.64809 0.0
C199 C 0.92969 0.33158 0.69049 0.0
C200 C 0.98096 0.30837 0.68812 0.0
C201 C 0.97559 0.31786 0.70776 0.0
N202 N 0.95154 0.31559 0.6773 0.0
N203 N 0.94328 0.33258 0.70922 0.0
H204 H 0.90526 0.34439 0.68629 0.0
H205 H 0.00566 0.29906 0.68205 0.0
C206 C 0.98464 0.2487 0.65666 0.0
O207 O 0.95922 0.24091 0.66922 0.0
N208 N 0.94098 0.31814 0.61929 0.0
C209 C 0.9101 0.32688 0.61047 0.0
C210 C 0.91446 0.32722 0.59018 0.0
C211 C 0.96404 0.31335 0.60416 0.0
N212 N 0.94831 0.31888 0.5861 0.0
C213 C 0.8803 0.28228 0.66118 0.0
C214 C 0.88917 0.22433 0.63652 0.0
C215 C 0.86301 0.22309 0.65113 0.0
C216 C 0.85753 0.25318 0.66301 0.0
C217 C 0.91142 0.25332 0.63545 0.0
N218 N 0.90838 0.28098 0.64848 0.0
H219 H 0.87547 0.30519 0.67018 0.0
H220 H 0.9326 0.25249 0.62472 0.0
H221 H 0.88586 0.33237 0.61836 0.0
H222 H -0.00846 0.3064 0.60631 0.0
O223 O 0.92167 0.36063 0.6497 0.0
O224 O 0.9798 0.35299 0.64723 0.0
O225 O 0.98252 0.27661 0.6459 0.0
C226 C 0.95329 0.37447 0.64867 0.0
H227 H -0.00511 0.31612 0.71973 0.0
H228 H 0.89393 0.33258 0.57924 0.0
H229 H 0.89329 0.20248 0.62633 0.0
H230 H 0.83677 0.2538 0.67407 0.0
Co231 Co 0.65786 0.96153 0.66157 0.0
C232 C 0.63489 0.94571 0.70239 0.0
C233 C 0.65533 -0.00138 0.70066 0.0
C234 C 0.64499 -0.00804 0.7201 0.0
N235 N 0.64901 0.96949 0.68965 0.0
N236 N 0.63204 0.95867 0.72113 0.0
H237 H 0.62727 0.91924 0.69799 0.0
H238 H 0.66646 0.02298 0.69499 0.0
C239 C 0.72768 -0.00383 0.65361 0.0
O240 O 0.73791 0.96901 0.64285 0.0
N241 N 0.66556 0.95273 0.63308 0.0
C242 C 0.6565 0.92276 0.62334 0.0
C243 C 0.65912 0.92804 0.60315 0.0
C244 C 0.6727 0.97634 0.61828 0.0
N245 N 0.66921 0.96165 0.5999 0.0
C246 C 0.67743 0.88782 0.66554 0.0
C247 C 0.74321 0.90091 0.68202 0.0
C248 C 0.73571 0.86695 0.6748 0.0
C249 C 0.70147 0.85998 0.66766 0.0
C250 C 0.71834 0.92774 0.6796 0.0
N251 N 0.68763 0.92176 0.66933 0.0
H252 H 0.65096 0.88218 0.66046 0.0
H253 H 0.72456 0.95366 0.68536 0.0
H254 H 0.6458 0.89923 0.63 0.0
H255 H 0.67836 0.00406 0.62083 0.0
O256 O 0.61195 0.93899 0.6592 0.0
O257 O 0.62357 -0.00388 0.65457 0.0
O258 O 0.69806 -0.00421 0.66252 0.0
C259 C 0.60059 0.97074 0.65472 0.0
H260 H 0.64631 0.01045 0.73242 0.0
H261 H 0.65279 0.9089 0.59165 0.0
H262 H 0.76878 0.90744 0.68834 0.0
H263 H 0.69377 0.83358 0.66311 0.0
Co264 Co 0.52311 0.80162 0.89828 0.0
C265 C 0.5407 0.83157 0.85855 0.0
C266 C 0.48628 0.81579 0.86023 0.0
C267 C 0.49241 0.82965 0.8415 0.0
N268 N 0.51659 0.81681 0.87083 0.0
N269 N 0.52661 0.83962 0.84043 0.0
H270 H 0.56797 0.8361 0.86277 0.0
H271 H 0.46133 0.80608 0.86578 0.0
C272 C 0.46015 0.76103 0.90508 0.0
O273 O 0.45745 0.78141 0.92088 0.0
N274 N 0.52981 0.78567 0.92584 0.0
C275 C 0.53433 0.75162 0.93143 0.0
C276 C 0.53598 0.74976 0.95194 0.0
C277 C 0.52864 0.80407 0.94318 0.0
N278 N 0.5323 0.78271 0.95937 0.0
C279 C 0.59273 0.7735 0.90002 0.0
C280 C 0.57963 0.71746 0.87442 0.0
C281 C 0.61035 0.71725 0.88622 0.0
C282 C 0.61761 0.74643 0.89848 0.0
C283 C 0.55523 0.74483 0.87664 0.0
N284 N 0.56121 0.77113 0.89017 0.0
H285 H 0.59733 0.79486 0.91046 0.0
H286 H 0.5306 0.74375 0.86841 0.0
H287 H 0.53537 0.72943 0.92126 0.0
H288 H 0.52463 0.83233 0.94403 0.0
O289 O 0.5488 0.84503 0.90353 0.0
O290 O 0.49081 0.83734 0.90658 0.0
O291 O 0.48736 0.76331 0.89402 0.0
C292 C 0.51778 0.85838 0.90745 0.0
H293 H 0.47291 0.83288 0.82973 0.0
H294 H 0.53818 0.72569 0.96067 0.0
H295 H 0.57325 0.69544 0.8647 0.0
H296 H 0.64138 0.74736 0.90757 0.0
Co297 Co 0.1776 0.5247 0.88129 0.0
C298 C 0.14629 0.5411 0.84168 0.0
C299 C 0.15693 0.48551 0.84506 0.0
C300 C 0.14101 0.49107 0.8267 0.0
N301 N 0.16016 0.51688 0.8544 0.0
N302 N 0.13445 0.52603 0.8246 0.0
H303 H 0.14397 0.56899 0.84509 0.0
H304 H 0.16498 0.46031 0.85131 0.0
C305 C 0.2505 0.49193 0.881 0.0
O306 O 0.26418 0.5189 0.8906 0.0
N307 N 0.19493 0.53289 0.90877 0.0
C308 C 0.21877 0.5572 0.91503 0.0
C309 C 0.2221 0.55563 0.93545 0.0
C310 C 0.18419 0.51689 0.9259 0.0
N311 N 0.20031 0.53036 0.94238 0.0
C312 C 0.19132 0.59886 0.87814 0.0
C313 C 0.25232 0.59211 0.85591 0.0
C314 C 0.24544 0.62424 0.86563 0.0
C315 C 0.2129 0.62832 0.87534 0.0
C316 C 0.22955 0.56359 0.85873 0.0
N317 N 0.20192 0.56638 0.87163 0.0
H318 H 0.16808 0.6014 0.88731 0.0
H319 H 0.23558 0.53869 0.85165 0.0
H320 H 0.23376 0.57479 0.90562 0.0
H321 H 0.16499 0.49576 0.9264 0.0
O322 O 0.13265 0.54547 0.88819 0.0
O323 O 0.14664 0.48844 0.89067 0.0
O324 O 0.21812 0.49198 0.87566 0.0
C325 C 0.12311 0.5132 0.89256 0.0
H326 H 0.13476 0.47095 0.81574 0.0
H327 H 0.23894 0.57243 0.94447 0.0
H328 H 0.27648 0.58789 0.84768 0.0
H329 H 0.20566 0.65316 0.88225 0.0
Co330 Co 0.45522 0.16771 0.89815 0.0
C331 C 0.44349 0.15068 0.85573 0.0
C332 C 0.49887 0.15086 0.86292 0.0
C333 C 0.49455 0.13934 0.84347 0.0
N334 N 0.4668 0.15786 0.87055 0.0
N335 N 0.45969 0.13925 0.839 0.0
H336 H 0.41512 0.15184 0.85757 0.0
H337 H 0.52346 0.15243 0.8712 0.0
C338 C 0.50034 0.23 0.90863 0.0
O339 O 0.47318 0.24481 0.91748 0.0
N340 N 0.44305 0.17607 0.92617 0.0
C341 C 0.41105 0.17062 0.93444 0.0
C342 C 0.41386 0.17248 0.95484 0.0
C343 C 0.46525 0.17971 0.94207 0.0
N344 N 0.44794 0.17801 0.95976 0.0
C345 C 0.38964 0.20663 0.89184 0.0
C346 C 0.42131 0.26249 0.87212 0.0
C347 C 0.38602 0.26573 0.87789 0.0
C348 C 0.3696 0.23662 0.88701 0.0
C349 C 0.44018 0.23223 0.87731 0.0
N350 N 0.42519 0.20619 0.88866 0.0
H351 H 0.37649 0.18395 0.898 0.0
H352 H 0.46729 0.23019 0.87252 0.0
H353 H 0.3875 0.16255 0.92662 0.0
H354 H 0.49368 0.18141 0.94079 0.0
O355 O 0.42265 0.12802 0.89742 0.0
O356 O 0.47962 0.12619 0.90614 0.0
O357 O 0.49716 0.19989 0.90026 0.0
C358 C 0.45022 0.10955 0.90297 0.0
H359 H 0.51539 0.13087 0.83356 0.0
H360 H 0.39246 0.16866 0.96528 0.0
H361 H 0.43449 0.28347 0.86401 0.0
H362 H 0.34191 0.23738 0.89096 0.0
Co363 Co 0.811 0.4506 0.88899 0.0
C364 C 0.8316 0.43314 0.84773 0.0
C365 C 0.81532 0.48744 0.85013 0.0
C366 C 0.82569 0.48113 0.83073 0.0
N367 N 0.8189 0.45728 0.8607 0.0
N368 N 0.83605 0.44699 0.82924 0.0
H369 H 0.83762 0.40606 0.85185 0.0
H370 H 0.80663 0.51247 0.85618 0.0
C371 C 0.74424 0.49007 0.89789 0.0
O372 O 0.73453 0.46496 0.91033 0.0
N373 N 0.80442 0.44387 0.91771 0.0
C374 C 0.81093 0.41391 0.92819 0.0
C375 C 0.81076 0.42126 0.94822 0.0
C376 C 0.80154 0.46942 0.93185 0.0
N377 N 0.80501 0.45612 0.95057 0.0
C378 C 0.78369 0.37882 0.88768 0.0
C379 C 0.71889 0.39823 0.87195 0.0
C380 C 0.72235 0.36503 0.8811 0.0
C381 C 0.75596 0.35433 0.88773 0.0
C382 C 0.74719 0.42166 0.87237 0.0
N383 N 0.77756 0.41319 0.88242 0.0
H384 H 0.80962 0.37048 0.89248 0.0
H385 H 0.7439 0.44731 0.86546 0.0
H386 H 0.81854 0.38878 0.92212 0.0
H387 H 0.79908 0.49737 0.92849 0.0
O388 O 0.85503 0.42435 0.89092 0.0
O389 O 0.84838 0.48241 0.89489 0.0
O390 O 0.77295 0.4876 0.88813 0.0
C391 C 0.86917 0.45514 0.89484 0.0
H392 H 0.82663 0.50056 0.81883 0.0
H393 H 0.81598 0.40254 0.96017 0.0
H394 H 0.69404 0.40666 0.86536 0.0
H395 H 0.76034 0.32816 0.89393 0.0
Co396 Co 0.53237 0.17744 0.1624 0.0
C397 C 0.54541 0.15061 0.20303 0.0
C398 C 0.49335 0.17288 0.20084 0.0
C399 C 0.4987 0.16059 0.22013 0.0
N400 N 0.52278 0.16663 0.1902 0.0
N401 N 0.53145 0.14646 0.22143 0.0
H402 H 0.5718 0.14243 0.19896 0.0
H403 H 0.46963 0.18522 0.19502 0.0
C404 C 0.49437 0.24475 0.15252 0.0
O405 O 0.52098 0.25534 0.14151 0.0
N406 N 0.54274 0.18747 0.13427 0.0
C407 C 0.57414 0.196 0.12609 0.0
C408 C 0.57027 0.19895 0.10575 0.0
C409 C 0.52024 0.18496 0.11845 0.0
N410 N 0.53641 0.19206 0.10083 0.0
C411 C 0.60445 0.19539 0.17109 0.0
C412 C 0.59084 0.26291 0.18481 0.0
C413 C 0.62584 0.25299 0.18102 0.0
C414 C 0.63265 0.21793 0.17536 0.0
C415 C 0.5636 0.23939 0.18052 0.0
N416 N 0.57053 0.20757 0.17174 0.0
H417 H 0.61001 0.169 0.1658 0.0
H418 H 0.53701 0.24746 0.18386 0.0
H419 H 0.59878 0.19938 0.13388 0.0
H420 H 0.49261 0.17815 0.11985 0.0
O421 O 0.55682 0.13267 0.16023 0.0
O422 O 0.49971 0.14204 0.15423 0.0
O423 O 0.49653 0.21638 0.16281 0.0
C424 C 0.52589 0.11998 0.15541 0.0
H425 H 0.47968 0.16138 0.23213 0.0
H426 H 0.59128 0.20464 0.09533 0.0
H427 H 0.58415 0.28931 0.18979 0.0
H428 H 0.6594 0.2086 0.17312 0.0
Co429 Co 0.80284 0.53014 0.151 0.0
C430 C 0.83525 0.54712 0.19022 0.0
C431 C 0.81916 0.49265 0.18863 0.0
C432 C 0.83395 0.49873 0.20718 0.0
N433 N 0.8198 0.52304 0.17809 0.0
N434 N 0.84411 0.53296 0.20816 0.0
H435 H 0.83954 0.57447 0.18603 0.0
H436 H 0.80893 0.46773 0.18318 0.0
C437 C 0.76276 0.46667 0.14449 0.0
O438 O 0.78202 0.46427 0.12828 0.0
N439 N 0.78526 0.53746 0.1238 0.0
C440 C 0.7512 0.54325 0.11871 0.0
C441 C 0.74811 0.54353 0.0982 0.0
C442 C 0.80237 0.53414 0.10619 0.0
N443 N 0.78027 0.53759 0.0903 0.0
C444 C 0.7745 0.60015 0.15147 0.0
C445 C 0.72078 0.58459 0.17798 0.0
C446 C 0.71988 0.61683 0.16752 0.0
C447 C 0.74814 0.62523 0.15485 0.0
C448 C 0.74765 0.56044 0.17423 0.0
N449 N 0.7727 0.56765 0.16026 0.0
H450 H 0.79501 0.60573 0.14073 0.0
H451 H 0.7472 0.53511 0.18176 0.0
H452 H 0.72974 0.54568 0.12922 0.0
H453 H 0.83019 0.52829 0.10493 0.0
O454 O 0.8456 0.55631 0.1452 0.0
O455 O 0.83802 0.49824 0.14182 0.0
O456 O 0.76525 0.49401 0.15551 0.0
C457 C 0.85885 0.52536 0.14083 0.0
H458 H 0.83754 0.47924 0.21891 0.0
H459 H 0.72367 0.54599 0.08983 0.0
H460 H 0.69968 0.57688 0.18793 0.0
H461 H 0.74898 0.65021 0.14688 0.0
Co462 Co 0.45098 0.80999 0.16047 0.0
C463 C 0.42818 0.81735 0.2027 0.0
C464 C 0.47861 0.79218 0.20083 0.0
C465 C 0.47175 0.79924 0.22062 0.0
N466 N 0.45079 0.80251 0.18947 0.0
N467 N 0.44008 0.81538 0.22179 0.0
H468 H 0.40484 0.83197 0.19837 0.0
H469 H 0.50367 0.78312 0.19513 0.0
C470 C 0.4868 0.74031 0.16476 0.0
O471 O 0.46077 0.72979 0.17625 0.0
N472 N 0.45096 0.81962 0.13197 0.0
C473 C 0.42336 0.83421 0.12216 0.0
C474 C 0.43196 0.83824 0.10242 0.0
C475 C 0.47615 0.81467 0.11798 0.0
N476 N 0.46506 0.82602 0.09974 0.0
C477 C 0.38116 0.77851 0.16614 0.0
C478 C 0.39155 0.72689 0.13746 0.0
C479 C 0.36062 0.72611 0.14873 0.0
C480 C 0.35513 0.7527 0.16302 0.0
C481 C 0.4167 0.75266 0.14117 0.0
N482 N 0.41222 0.77718 0.15593 0.0
H483 H 0.37619 0.79927 0.1767 0.0
H484 H 0.44052 0.7522 0.13238 0.0
H485 H 0.39842 0.84115 0.12892 0.0
H486 H 0.50185 0.80322 0.12103 0.0
O487 O 0.42607 0.8543 0.16417 0.0
O488 O 0.48445 0.84656 0.16449 0.0
O489 O 0.48637 0.77109 0.15689 0.0
C490 C 0.4577 0.86786 0.16581 0.0
H491 H 0.49005 0.79554 0.23294 0.0
H492 H 0.41477 0.84854 0.09079 0.0
H493 H 0.39714 0.70684 0.12637 0.0
H494 H 0.3311 0.75344 0.17171 0.0
Co495 Co 0.17059 0.45491 0.14694 0.0
C496 C 0.15575 0.43589 0.18858 0.0
C497 C 0.17122 0.49044 0.18655 0.0
C498 C 0.16274 0.48284 0.20617 0.0
N499 N 0.16694 0.46085 0.17562 0.0
N500 N 0.15278 0.44856 0.20737 0.0
H501 H 0.14936 0.40908 0.18419 0.0
H502 H 0.17879 0.51595 0.1806 0.0
C503 C 0.2368 0.49469 0.13634 0.0
O504 O 0.24691 0.4699 0.12387 0.0
N505 N 0.17229 0.44806 0.11791 0.0
C506 C 0.15769 0.42006 0.1084 0.0
C507 C 0.1571 0.42609 0.08825 0.0
C508 C 0.17897 0.47165 0.10301 0.0
N509 N 0.17035 0.45849 0.08476 0.0
C510 C 0.20224 0.3842 0.14453 0.0
C511 C 0.26375 0.40479 0.16372 0.0
C512 C 0.26294 0.37227 0.15386 0.0
C513 C 0.23115 0.361 0.1451 0.0
C514 C 0.23448 0.42681 0.16282 0.0
N515 N 0.20537 0.41781 0.15178 0.0
H516 H 0.17784 0.37513 0.13809 0.0
H517 H 0.23596 0.45204 0.17034 0.0
H518 H 0.14508 0.39782 0.11549 0.0
H519 H 0.18785 0.49851 0.10546 0.0
O520 O 0.12587 0.42934 0.14743 0.0
O521 O 0.13329 0.48734 0.1432 0.0
O522 O 0.20829 0.49177 0.14617 0.0
C523 C 0.11198 0.46079 0.14486 0.0
H524 H 0.16245 0.50153 0.21841 0.0
H525 H 0.14645 0.40838 0.07703 0.0
H526 H 0.28727 0.41363 0.17157 0.0
H527 H 0.2291 0.33526 0.1381 0.0
H528 H 0.99065 0.57015 0.42244 0.0
H529 H 0.03839 0.4032 0.35509 0.0
H530 H 0.95484 0.55773 0.36162 0.0
H531 H 0.04983 0.4031 0.41918 0.0
H532 H 0.01538 0.46377 0.35653 0.0
H533 H 0.01579 0.51054 0.42157 0.0
C534 C 0.98697 0.55414 0.40916 0.0
C535 C 0.97012 0.56816 0.39222 0.0
C536 C 0.02368 0.45084 0.37024 0.0
C537 C 0.00041 0.50119 0.39065 0.0
C538 C 0.0376 0.41673 0.36936 0.0
C539 C 0.04675 0.39891 0.38701 0.0
C540 C 0.01876 0.46684 0.38894 0.0
C541 C 0.04389 0.41662 0.40525 0.0
C542 C 0.0018 0.52047 0.40853 0.0
C543 C 0.9669 0.54721 0.37511 0.0
N544 N 0.02983 0.44966 0.40579 0.0
N545 N 0.98241 0.51476 0.37465 0.0
H546 H 0.60778 0.94909 0.41804 0.0
H547 H 0.40895 0.01696 0.42061 0.0
H548 H 0.57745 0.05894 0.41232 0.0
H549 H 0.43782 0.90838 0.40876 0.0
H550 H 0.47088 0.03144 0.4255 0.0
H551 H 0.54602 0.93325 0.42273 0.0
C552 C 0.58815 0.96998 0.41803 0.0
C553 C 0.59756 0.00537 0.41446 0.0
C554 C 0.46369 0.00441 0.42197 0.0
C555 C 0.52706 0.98729 0.41981 0.0
C556 C 0.42835 -0.00396 0.41914 0.0
C557 C 0.41837 0.96147 0.41392 0.0
C558 C 0.48929 0.97805 0.41959 0.0
C559 C 0.44454 0.93541 0.41255 0.0
C560 C 0.55294 0.96083 0.42067 0.0
C561 C 0.5712 0.03133 0.41484 0.0
N562 N 0.47903 0.94432 0.4152 0.0
N563 N 0.53695 0.0217 0.41726 0.0
H564 H 0.01383 0.40604 0.65997 0.0
H565 H 0.95375 0.59866 0.62493 0.0
H566 H 0.90949 0.42902 0.63697 0.0
H567 H 0.05516 0.57553 0.65181 0.0
H568 H 0.93875 0.536 0.62649 0.0
H569 H 0.02991 0.46775 0.6558 0.0
C570 C -0.00584 0.42429 0.65415 0.0
C571 C 0.96032 0.41257 0.64869 0.0
C572 C 0.96441 0.54453 0.63186 0.0
C573 C 0.97875 0.48327 0.64366 0.0
C574 C 0.97313 0.58022 0.63085 0.0
C575 C 0.00565 0.59215 0.63842 0.0
C576 C 0.98839 0.5207 0.64055 0.0
C577 C 0.02986 0.5673 0.64579 0.0
C578 C 0.00344 0.4595 0.65171 0.0
C579 C 0.93578 0.43721 0.64143 0.0
N580 N 0.02055 0.53266 0.64687 0.0
N581 N 0.94559 0.47158 0.63898 0.0
H582 H 0.57316 0.03478 0.64496 0.0
H583 H 0.37429 0.9673 0.64209 0.0
H584 H 0.5437 0.92549 0.6542 0.0
H585 H 0.40386 0.0764 0.65167 0.0
H586 H 0.43643 0.9518 0.63873 0.0
H587 H 0.5114 0.04991 0.63988 0.0
C588 C 0.55368 0.01384 0.64582 0.0
C589 C 0.56345 0.97883 0.65029 0.0
C590 C 0.42928 0.97916 0.64137 0.0
C591 C 0.49273 -0.00384 0.64439 0.0
C592 C 0.39386 0.98812 0.64325 0.0
C593 C 0.38407 0.02316 0.64747 0.0
C594 C 0.45499 0.00546 0.64364 0.0
C595 C 0.41039 0.04906 0.64858 0.0
C596 C 0.51843 0.0226 0.6429 0.0
C597 C 0.53716 0.95283 0.65097 0.0
N598 N 0.44484 0.0396 0.64685 0.0
N599 N 0.50278 0.96209 0.64818 0.0
H600 H 0.55538 0.91369 0.89249 0.0
H601 H 0.42185 0.06268 0.9296 0.0
H602 H 0.46547 0.88815 0.92911 0.0
H603 H 0.48458 0.07082 0.87626 0.0
H604 H 0.44052 0.00038 0.93315 0.0
H605 H 0.53574 0.97549 0.89149 0.0
C606 C 0.53209 0.92137 0.90076 0.0
C607 C 0.51183 0.89612 0.91079 0.0
C608 C 0.44958 0.01572 0.92048 0.0
C609 C 0.48885 0.96591 0.90937 0.0
C610 C 0.43849 0.05084 0.91831 0.0
C611 C 0.45133 0.07114 0.90244 0.0
C612 C 0.47411 0.00171 0.9069 0.0
C613 C 0.47386 0.0555 0.88852 0.0
C614 C 0.52056 0.95637 0.89994 0.0
C615 C 0.48156 0.90708 0.92108 0.0
N616 N 0.48488 0.02174 0.89118 0.0
N617 N 0.47077 0.94126 0.92002 0.0
H618 H 0.92356 0.40731 0.89065 0.0
H619 H 0.06833 0.55831 0.90013 0.0
H620 H 0.90058 0.51467 0.90848 0.0
H621 H 0.09515 0.44734 0.89689 0.0
H622 H 0.00653 0.54204 0.90489 0.0
H623 H 0.98687 0.42008 0.89445 0.0
C624 C 0.93183 0.43334 0.89556 0.0
C625 C 0.90699 0.46013 0.89891 0.0
C626 C 0.026 0.52121 0.90339 0.0
C627 C 0.9787 0.47493 0.9032 0.0
C628 C 0.06123 0.53055 0.90066 0.0
C629 C 0.08667 0.50416 0.89792 0.0
C630 C 0.01625 0.48528 0.90307 0.0
C631 C 0.07621 0.46853 0.89882 0.0
C632 C 0.96784 0.44063 0.89775 0.0
C633 C 0.91891 0.49339 0.90537 0.0
N634 N 0.04165 0.4601 0.90105 0.0
N635 N 0.9539 0.49994 0.9071 0.0
H636 H 0.41441 0.92215 0.15403 0.0
H637 H 0.56782 0.06574 0.1685 0.0
H638 H 0.51659 0.8993 0.18003 0.0
H639 H 0.46719 0.08841 0.14049 0.0
H640 H 0.5497 0.00405 0.1725 0.0
H641 H 0.43201 0.98427 0.15037 0.0
C642 C 0.4402 0.93043 0.15934 0.0
C643 C 0.46424 0.90585 0.16718 0.0
C644 C 0.53171 0.02249 0.16532 0.0
C645 C 0.4848 0.97594 0.16268 0.0
C646 C 0.54224 0.05751 0.16283 0.0
C647 C 0.51887 0.082 0.15426 0.0
C648 C 0.49762 0.01218 0.1592 0.0
C649 C 0.48587 0.07025 0.14732 0.0
C650 C 0.45043 0.96566 0.15703 0.0
C651 C 0.49747 0.91757 0.1737 0.0
N652 N 0.47608 0.03615 0.15008 0.0
N653 N 0.5069 0.95178 0.17116 0.0
H654 H 0.914 0.57007 0.14836 0.0
H655 H 0.05756 0.41661 0.13337 0.0
H656 H 0.88855 0.46688 0.12471 0.0
H657 H 0.08077 0.52193 0.15465 0.0
H658 H -0.00475 0.43419 0.1292 0.0
H659 H 0.97648 0.55387 0.14822 0.0
C660 C 0.92169 0.54434 0.14274 0.0
C661 C 0.89632 0.51962 0.13679 0.0
C662 C 0.01413 0.45334 0.13478 0.0
C663 C 0.96717 0.50048 0.13704 0.0
C664 C 0.04941 0.44317 0.13734 0.0
C665 C 0.07404 0.46793 0.14423 0.0
C666 C 0.00394 0.48831 0.13928 0.0
C667 C 0.06255 0.50214 0.14906 0.0
C668 C 0.95725 0.53488 0.14284 0.0
C669 C 0.90747 0.4865 0.1297 0.0
N670 N 0.02838 0.51132 0.14646 0.0
N671 N 0.94213 0.47769 0.13025 0.0
H672 H 0.0253 0.32071 0.28581 0.0
H673 H 0.16779 0.46089 0.2466 0.0
H674 H 0.10137 0.37064 0.32479 0.0
H675 H 0.10565 0.39429 0.20767 0.0
H676 H 0.14255 0.43025 0.27557 0.0
H677 H 0.05315 0.34933 0.25712 0.0
C678 C 0.04792 0.33768 0.28831 0.0
C679 C 0.061 0.34322 0.30773 0.0
C680 C 0.1346 0.42225 0.26067 0.0
C681 C 0.09312 0.37632 0.2749 0.0
C682 C 0.14886 0.43986 0.24413 0.0
C683 C 0.13893 0.43017 0.22462 0.0
C684 C 0.10989 0.39496 0.25773 0.0
C685 C 0.1145 0.40243 0.22235 0.0
C686 C 0.06393 0.35393 0.27192 0.0
C687 C 0.09065 0.36527 0.31008 0.0
N688 N 0.10073 0.38601 0.23866 0.0
N689 N 0.10554 0.38119 0.29388 0.0
H690 H 0.58184 0.09518 0.22138 0.0
H691 H 0.60146 0.08709 0.34087 0.0
H692 H 0.51892 0.15923 0.26087 0.0
H693 H 0.65076 0.01313 0.30069 0.0
H694 H 0.5737 0.11656 0.31202 0.0
H695 H 0.60992 0.06753 0.25042 0.0
C696 C 0.57405 0.10364 0.23615 0.0
C697 C 0.54798 0.12974 0.23861 0.0
C698 C 0.59058 0.09385 0.30954 0.0
C699 C 0.58005 0.09781 0.27215 0.0
C700 C 0.60661 0.07714 0.32601 0.0
C701 C 0.62841 0.04741 0.32327 0.0
C702 C 0.59662 0.081 0.29014 0.0
C703 C 0.6338 0.03555 0.30362 0.0
C704 C 0.58997 0.08763 0.25278 0.0
C705 C 0.53863 0.13905 0.25823 0.0
N706 N 0.61814 0.05236 0.28789 0.0
N707 N 0.55471 0.12322 0.27422 0.0
H708 H 0.89041 0.5881 0.20721 0.0
H709 H 0.90866 0.59628 0.32658 0.0
H710 H 0.83655 0.51738 0.2475 0.0
H711 H 0.97948 0.65178 0.28717 0.0
H712 H 0.87856 0.57121 0.29756 0.0
H713 H 0.91985 0.61577 0.23602 0.0
C714 C 0.8846 0.57855 0.2221 0.0
C715 C 0.86103 0.55027 0.22492 0.0
C716 C 0.90065 0.5889 0.2952 0.0
C717 C 0.89467 0.58174 0.25794 0.0
C718 C 0.91772 0.60348 0.31181 0.0
C719 C 0.94659 0.62637 0.30935 0.0
C720 C 0.91225 0.59734 0.27586 0.0
C721 C 0.95752 0.63409 0.28977 0.0
C722 C 0.90159 0.59419 0.23853 0.0
C723 C 0.85482 0.53875 0.24457 0.0
N724 N 0.94027 0.61972 0.27377 0.0
N725 N 0.87141 0.55454 0.26027 0.0
H726 H 0.44987 0.79597 0.26058 0.0
H727 H 0.3366 0.95799 0.30375 0.0
H728 H 0.39621 0.87276 0.22338 0.0
H729 H 0.38823 0.88004 0.34111 0.0
H730 H 0.35756 0.92668 0.2742 0.0
H731 H 0.4268 0.82572 0.29021 0.0
C732 C 0.43324 0.81906 0.25861 0.0
C733 C 0.42509 0.83177 0.23936 0.0
C734 C 0.36426 0.91637 0.28886 0.0
C735 C 0.39836 0.86605 0.27335 0.0
C736 C 0.35245 0.93439 0.3058 0.0
C737 C 0.36068 0.92183 0.32507 0.0
C738 C 0.38464 0.88547 0.2911 0.0
C739 C 0.38087 0.89064 0.32664 0.0
C740 C 0.41995 0.83599 0.27556 0.0
C741 C 0.40295 0.86161 0.23781 0.0
N742 N 0.39221 0.87367 0.30992 0.0
N743 N 0.39054 0.87775 0.25454 0.0
H744 H 0.08218 0.49973 0.80112 0.0
H745 H 0.0821 0.66123 0.72382 0.0
H746 H 0.14776 0.59171 0.80982 0.0
H747 H -0.0067 0.59107 0.73096 0.0
H748 H 0.11122 0.63243 0.75254 0.0
H749 H 0.0538 0.5291 0.77254 0.0
C750 C 0.09071 0.52606 0.79694 0.0
C751 C 0.11737 0.54331 0.80785 0.0
C752 C 0.08532 0.62344 0.74782 0.0
C753 C 0.08513 0.57706 0.77507 0.0
C754 C 0.06884 0.63969 0.73138 0.0
C755 C 0.03519 0.6286 0.72505 0.0
C756 C 0.06834 0.59543 0.75774 0.0
C757 C 0.01903 0.60073 0.73548 0.0
C758 C 0.07437 0.5429 0.78071 0.0
C759 C 0.12711 0.57762 0.8019 0.0
N760 N 0.03582 0.58497 0.7512 0.0
N761 N 0.11119 0.59329 0.78583 0.0
H762 H 0.48239 0.08601 0.81509 0.0
H763 H 0.32591 0.1062 0.73471 0.0
H764 H 0.39859 0.16233 0.82183 0.0
H765 H 0.38637 0.01034 0.74245 0.0
H766 H 0.35722 0.13204 0.76354 0.0
H767 H 0.45262 0.06284 0.78526 0.0
C768 C 0.45789 0.09813 0.81018 0.0
C769 C 0.44296 0.12617 0.82098 0.0
C770 C 0.3636 0.10535 0.75889 0.0
C771 C 0.40866 0.09974 0.78679 0.0
C772 C 0.34591 0.09071 0.7424 0.0
C773 C 0.3534 0.056 0.73624 0.0
C774 C 0.38945 0.08538 0.76907 0.0
C775 C 0.37942 0.03698 0.74683 0.0
C776 C 0.44077 0.08472 0.79323 0.0
C777 C 0.41085 0.14051 0.81404 0.0
N778 N 0.39657 0.05194 0.76262 0.0
N779 N 0.39485 0.12726 0.79735 0.0
H780 H 0.82427 0.46397 0.79024 0.0
H781 H 0.95622 0.3159 0.74816 0.0
H782 H 0.88089 0.39047 0.82815 0.0
H783 H 0.89468 0.38591 0.71058 0.0
H784 H 0.92968 0.34315 0.77765 0.0
H785 H 0.85028 0.4359 0.76097 0.0
C786 C 0.84225 0.442 0.79245 0.0
C787 C 0.8504 0.42972 0.81178 0.0
C788 C 0.92194 0.3525 0.76294 0.0
C789 C 0.88028 0.39713 0.77815 0.0
C790 C 0.93726 0.33707 0.74608 0.0
C791 C 0.92773 0.34849 0.72677 0.0
C792 C 0.89695 0.37975 0.76056 0.0
C793 C 0.90258 0.37577 0.72506 0.0
C794 C 0.85699 0.42583 0.77568 0.0
C795 C 0.87349 0.40068 0.8136 0.0
N796 N 0.88819 0.39046 0.74169 0.0
N797 N 0.88769 0.38551 0.79703 0.0
H798 H 0.58264 0.88496 0.84082 0.0
H799 H 0.58337 0.90581 0.72139 0.0
H800 H 0.50988 0.83171 0.80119 0.0
H801 H 0.64724 0.97053 0.76046 0.0
H802 H 0.55916 0.87578 0.75055 0.0
H803 H 0.60967 0.91376 0.81177 0.0
C804 C 0.57251 0.87911 0.82603 0.0
C805 C 0.54379 0.85595 0.8235 0.0
C806 C 0.57849 0.89654 0.75279 0.0
C807 C 0.5745 0.88898 0.79015 0.0
C808 C 0.59254 0.91359 0.73609 0.0
C809 C 0.61751 0.94079 0.73838 0.0
C810 C 0.58949 0.90648 0.77208 0.0
C811 C 0.62782 0.95001 0.75793 0.0
C812 C 0.5878 0.89575 0.80945 0.0
C813 C 0.53156 0.84972 0.80394 0.0
N814 N 0.61385 0.93286 0.774 0.0
N815 N 0.54695 0.86605 0.78809 0.0
H816 H 0.15647 0.16964 0.3576 0.0
H817 H 0.1957 0.00339 0.42854 0.0
H818 H 0.12302 0.16298 0.41909 0.0
H819 H 0.25848 0.0271 0.37655 0.0
H820 H 0.16232 0.05817 0.42281 0.0
H821 H 0.18992 0.11444 0.3623 0.0
C822 C 0.15643 0.15678 0.37209 0.0
C823 C 0.1365 0.1706 0.38786 0.0
C824 C 0.18339 0.05127 0.41264 0.0
C825 C 0.17385 0.10744 0.39321 0.0
C826 C 0.20218 0.01993 0.41583 0.0
C827 C 0.22998 0.01093 0.4031 0.0
C828 C 0.19224 0.07339 0.39649 0.0
C829 C 0.23746 0.03333 0.38686 0.0
C830 C 0.17525 0.12523 0.37473 0.0
C831 C 0.13724 0.15279 0.40634 0.0
N832 N 0.21869 0.06356 0.38401 0.0
N833 N 0.1553 0.12202 0.40844 0.0
H834 H 0.93657 0.25383 0.403 0.0
H835 H 0.79011 0.14373 0.34309 0.0
H836 H 0.95276 0.20817 0.34464 0.0
H837 H 0.78564 0.1626 0.40668 0.0
H838 H 0.84448 0.17843 0.34161 0.0
H839 H 0.87642 0.23005 0.40294 0.0
C840 C 0.92749 0.23879 0.39019 0.0
C841 C 0.94977 0.23266 0.37387 0.0
C842 C 0.83131 0.17531 0.35583 0.0
C843 C 0.88103 0.20598 0.3736 0.0
C844 C 0.80028 0.15557 0.35669 0.0
C845 C 0.78358 0.14978 0.37508 0.0
C846 C 0.84567 0.18945 0.37348 0.0
C847 C 0.79751 0.16643 0.39215 0.0
C848 C 0.89317 0.22535 0.39015 0.0
C849 C 0.93661 0.21319 0.35763 0.0
N850 N 0.828 0.18519 0.39098 0.0
N851 N 0.90308 0.20055 0.3579 0.0
H852 H 0.91958 0.82716 0.38238 0.0
H853 H 0.73451 0.92858 0.37751 0.0
H854 H 0.82066 0.77566 0.36853 0.0
H855 H 0.83143 0.97672 0.39832 0.0
H856 H 0.76656 0.87392 0.37109 0.0
H857 H 0.88857 0.88342 0.38516 0.0
C858 C 0.89134 0.82775 0.37967 0.0
C859 C 0.87269 0.79663 0.37511 0.0
C860 C 0.78086 0.89646 0.37699 0.0
C861 C 0.8369 0.86106 0.37861 0.0
C862 C 0.76261 0.92779 0.38062 0.0
C863 C 0.78028 0.95733 0.38858 0.0
C864 C 0.81711 0.89454 0.38128 0.0
C865 C 0.8167 0.95462 0.39226 0.0
C866 C 0.87362 0.85989 0.38142 0.0
C867 C 0.83603 0.79892 0.37222 0.0
N868 N 0.8339 0.9237 0.38864 0.0
N869 N 0.81931 0.83063 0.37402 0.0
H870 H 0.05548 0.72899 0.36576 0.0
H871 H 0.20817 0.83079 0.42387 0.0
H872 H 0.04048 0.77275 0.42464 0.0
H873 H 0.20115 0.82975 0.35949 0.0
H874 H 0.15135 0.79986 0.42551 0.0
H875 H 0.11328 0.75763 0.36417 0.0
C876 C 0.06438 0.74476 0.37833 0.0
C877 C 0.04331 0.74864 0.39536 0.0
C878 C 0.16241 0.80622 0.41105 0.0
C879 C 0.10941 0.78084 0.39374 0.0
C880 C 0.19493 0.8234 0.4101 0.0
C881 C 0.20924 0.83259 0.39151 0.0
C882 C 0.14446 0.7978 0.39328 0.0
C883 C 0.19085 0.82307 0.37409 0.0
C884 C 0.09726 0.76108 0.37739 0.0
C885 C 0.0559 0.76941 0.41119 0.0
N886 N 0.15936 0.80607 0.37539 0.0
N887 N 0.08841 0.78454 0.41009 0.0
H888 H 0.16938 0.97898 0.63543 0.0
H889 H 0.12735 0.80751 0.69991 0.0
H890 H 0.22647 0.95664 0.69011 0.0
H891 H 0.11947 0.80992 0.63556 0.0
H892 H 0.15569 0.86614 0.69906 0.0
H893 H 0.14057 0.92117 0.63804 0.0
C894 C 0.1754 0.96215 0.64815 0.0
C895 C 0.20037 0.97243 0.66254 0.0
C896 C 0.14799 0.85356 0.68516 0.0
C897 C 0.16775 0.90657 0.66556 0.0
C898 C 0.132 0.82026 0.68564 0.0
C899 C 0.12153 0.80393 0.66777 0.0
C900 C 0.15251 0.87076 0.66673 0.0
C901 C 0.12772 0.82148 0.64963 0.0
C902 C 0.15926 0.92911 0.64951 0.0
C903 C 0.20748 0.94951 0.67864 0.0
N904 N 0.1425 0.85416 0.64958 0.0
N905 N 0.19117 0.91756 0.67975 0.0
H906 H 0.16929 0.15196 0.70848 0.0
H907 H 0.04209 0.25471 0.63222 0.0
H908 H 0.19795 0.17409 0.64732 0.0
H909 H 0.00629 0.2036 0.68625 0.0
H910 H 0.1017 0.23224 0.63887 0.0
H911 H 0.11221 0.18046 0.7025 0.0
C912 C 0.16383 0.16332 0.6939 0.0
C913 C 0.18828 0.16022 0.67832 0.0
C914 C 0.0807 0.22582 0.64918 0.0
C915 C 0.12305 0.19262 0.67136 0.0
C916 C 0.04666 0.23841 0.64534 0.0
C917 C 0.01917 0.23094 0.65869 0.0
C918 C 0.08729 0.20601 0.66659 0.0
C919 C 0.0266 0.20984 0.67549 0.0
C920 C 0.1312 0.17939 0.69047 0.0
C921 C 0.18004 0.17602 0.65982 0.0
N922 N 0.06003 0.19834 0.67904 0.0
N923 N 0.14794 0.19123 0.65679 0.0
H924 H 0.79586 0.00631 0.64098 0.0
H925 H 0.79215 0.21465 0.65905 0.0
H926 H 0.70851 0.05986 0.66918 0.0
H927 H 0.88853 0.15562 0.65015 0.0
H928 H 0.75985 0.15859 0.66136 0.0
H929 H 0.82954 0.06164 0.64221 0.0
C930 C 0.78386 0.02959 0.6475 0.0
C931 C 0.74938 0.02847 0.65497 0.0
C932 C 0.78812 0.15803 0.65898 0.0
C933 C 0.78744 0.09168 0.65627 0.0
C934 C 0.80654 0.18998 0.65775 0.0
C935 C 0.84295 0.18984 0.65407 0.0
C936 C 0.80628 0.12588 0.65639 0.0
C937 C 0.86028 0.15703 0.65243 0.0
C938 C 0.80306 0.0611 0.64825 0.0
C939 C 0.73507 0.05944 0.66327 0.0
N940 N 0.84175 0.12642 0.65341 0.0
N941 N 0.75406 0.08984 0.66357 0.0
H942 H 0.93984 0.76292 0.67859 0.0
H943 H 0.74636 0.82256 0.64339 0.0
H944 H 0.89331 0.73927 0.62103 0.0
H945 H 0.7916 0.85273 0.7003 0.0
H946 H 0.79864 0.78747 0.6366 0.0
H947 H 0.88541 0.79402 0.68782 0.0
C948 C 0.91835 0.76455 0.66785 0.0
C949 C 0.92106 0.74848 0.64902 0.0
C950 C 0.79711 0.80151 0.65067 0.0
C951 C 0.85885 0.78335 0.65955 0.0
C952 C 0.76695 0.82121 0.65469 0.0
C953 C 0.76457 0.8408 0.67242 0.0
C954 C 0.82531 0.80143 0.6644 0.0
C955 C 0.79255 0.83849 0.68629 0.0
C956 C 0.88725 0.78204 0.67317 0.0
C957 C 0.89239 0.75115 0.63573 0.0
N958 N 0.82194 0.81939 0.68191 0.0
N959 N 0.86251 0.76814 0.64127 0.0
H960 H 0.63163 0.68346 0.9201 0.0
H961 H 0.74176 0.53369 0.86547 0.0
H962 H 0.63701 0.67684 0.85581 0.0
H963 H 0.69793 0.51939 0.92435 0.0
H964 H 0.70934 0.58945 0.86222 0.0
H965 H 0.663 0.62701 0.92269 0.0
C966 C 0.63993 0.67032 0.90654 0.0
C967 C 0.63206 0.68485 0.88771 0.0
C968 C 0.70664 0.57397 0.87578 0.0
C969 C 0.66744 0.62024 0.89056 0.0
C970 C 0.72515 0.54225 0.87768 0.0
C971 C 0.72248 0.52204 0.89523 0.0
C972 C 0.68588 0.58584 0.8917 0.0
C973 C 0.7005 0.53416 0.91054 0.0
C974 C 0.6574 0.63796 0.90802 0.0
C975 C 0.64267 0.66644 0.87059 0.0
N976 N 0.68327 0.56555 0.9085 0.0
N977 N 0.66003 0.63508 0.87242 0.0
H978 H 0.40266 0.74524 0.92738 0.0
H979 H 0.29875 0.6448 0.83992 0.0
H980 H 0.44756 0.72854 0.86896 0.0
H981 H 0.25941 0.661 0.89972 0.0
H982 H 0.35203 0.67814 0.84899 0.0
H983 H 0.34912 0.71557 0.91651 0.0
C984 C 0.40135 0.73505 0.91227 0.0
C985 C 0.42959 0.73938 0.89905 0.0
C986 C 0.33144 0.67468 0.85998 0.0
C987 C 0.36795 0.70556 0.88635 0.0
C988 C 0.30101 0.65574 0.85482 0.0
C989 C 0.27443 0.64999 0.86905 0.0
C990 C 0.33524 0.68782 0.8795 0.0
C991 C 0.27868 0.66513 0.88807 0.0
C992 C 0.37063 0.71822 0.90601 0.0
C993 C 0.42641 0.72556 0.87965 0.0
N994 N 0.30854 0.68303 0.89273 0.0
N995 N 0.39597 0.70932 0.87383 0.0
H996 H 0.41239 0.33172 0.88467 0.0
H997 H 0.22963 0.43057 0.86285 0.0
H998 H 0.3174 0.27779 0.86575 0.0
H999 H 0.3203 0.48071 0.89021 0.0
H1000 H 0.26374 0.37618 0.85942 0.0
H1001 H 0.38125 0.38801 0.88235 0.0
C1002 C 0.38506 0.33176 0.87976 0.0
C1003 C 0.36744 0.29997 0.87539 0.0
C1004 C 0.27623 0.39914 0.86605 0.0
C1005 C 0.33146 0.36443 0.87302 0.0
C1006 C 0.25682 0.43028 0.86799 0.0
C1007 C 0.27205 0.46019 0.87703 0.0
C1008 C 0.31114 0.39788 0.87317 0.0
C1009 C 0.30742 0.45825 0.88329 0.0
C1010 C 0.36723 0.36392 0.87859 0.0
C1011 C 0.33186 0.30162 0.86948 0.0
N1012 N 0.32571 0.42752 0.88135 0.0
N1013 N 0.31498 0.33335 0.86852 0.0
H1014 H 0.71323 0.29288 0.87751 0.0
H1015 H 0.51496 0.29872 0.91887 0.0
H1016 H 0.65923 0.38859 0.89487 0.0
H1017 H 0.56235 0.20523 0.89336 0.0
H1018 H 0.56991 0.33091 0.91295 0.0
H1019 H 0.65998 0.25896 0.88573 0.0
C1020 C 0.6902 0.30671 0.88301 0.0
C1021 C 0.69048 0.34362 0.88526 0.0
C1022 C 0.56829 0.30331 0.9087 0.0
C1023 C 0.62979 0.30519 0.89481 0.0
C1024 C 0.53697 0.2849 0.91216 0.0
C1025 C 0.53398 0.24933 0.9065 0.0
C1026 C 0.59684 0.28596 0.8996 0.0
C1027 C 0.56339 0.23273 0.89785 0.0
C1028 C 0.65983 0.28742 0.88767 0.0
C1029 C 0.65992 0.36026 0.89248 0.0
N1030 N 0.59356 0.25121 0.89462 0.0
N1031 N 0.63088 0.34095 0.897 0.0
H1032 H 0.67833 0.2576 0.15347 0.0
H1033 H 0.72618 0.45802 0.17952 0.0
H1034 H 0.63603 0.31169 0.20492 0.0
H1035 H 0.75503 0.40396 0.12516 0.0
H1036 H 0.69815 0.40345 0.19141 0.0
H1037 H 0.71478 0.3087 0.14641 0.0
C1038 C 0.67731 0.27984 0.16364 0.0
C1039 C 0.65365 0.28043 0.1797 0.0
C1040 C 0.71065 0.40367 0.17689 0.0
C1041 C 0.69448 0.33988 0.17112 0.0
C1042 C 0.72636 0.43481 0.17003 0.0
C1043 C 0.74282 0.43553 0.15128 0.0
C1044 C 0.71163 0.37319 0.16492 0.0
C1045 C 0.74261 0.40469 0.13968 0.0
C1046 C 0.69781 0.30935 0.15938 0.0
C1047 C 0.65329 0.31041 0.1921 0.0
N1048 N 0.72733 0.37481 0.14671 0.0
N1049 N 0.67304 0.33923 0.18738 0.0
H1050 H 0.53786 0.74448 0.1364 0.0
H1051 H 0.67668 0.63104 0.19947 0.0
H1052 H 0.51092 0.69041 0.19115 0.0
H1053 H 0.68873 0.65234 0.13637 0.0
H1054 H 0.61881 0.65974 0.19829 0.0
H1055 H 0.59599 0.71631 0.13736 0.0
C1056 C 0.54409 0.72635 0.1485 0.0
C1057 C 0.51965 0.71967 0.16372 0.0
C1058 C 0.63429 0.65822 0.18476 0.0
C1059 C 0.58614 0.68807 0.16512 0.0
C1060 C 0.66733 0.64194 0.18541 0.0
C1061 C 0.68759 0.63904 0.16797 0.0
C1062 C 0.6216 0.67203 0.16659 0.0
C1063 C 0.67437 0.65431 0.15026 0.0
C1064 C 0.57724 0.71039 0.14907 0.0
C1065 C 0.52896 0.69602 0.17906 0.0
N1066 N 0.64215 0.67005 0.15002 0.0
N1067 N 0.5617 0.68129 0.17949 0.0
H1068 H 0.24024 0.536 0.16928 0.0
H1069 H 0.33867 0.69448 0.114 0.0
H1070 H 0.27778 0.52875 0.10865 0.0
H1071 H 0.32808 0.68806 0.17814 0.0
H1072 H 0.30887 0.63739 0.11091 0.0
H1073 H 0.26674 0.59455 0.1721 0.0
C1074 C 0.25436 0.54672 0.15659 0.0
C1075 C 0.25688 0.52766 0.13869 0.0
C1076 C 0.31288 0.64861 0.12563 0.0
C1077 C 0.28679 0.5948 0.14172 0.0
C1078 C 0.32971 0.68122 0.12742 0.0
C1079 C 0.33626 0.69578 0.14639 0.0
C1080 C 0.30226 0.6306 0.14292 0.0
C1081 C 0.32345 0.67788 0.16323 0.0
C1082 C 0.26941 0.58013 0.15821 0.0
C1083 C 0.27557 0.54256 0.12275 0.0
N1084 N 0.30728 0.64604 0.16111 0.0
N1085 N 0.28963 0.57553 0.12459 0.0
H1086 H 0.27373 0.3016 0.1615 0.0
H1087 H 0.47987 0.30941 0.1355 0.0
H1088 H 0.32687 0.39651 0.14205 0.0
H1089 H 0.43189 0.22433 0.16897 0.0
H1090 H 0.42261 0.33957 0.13438 0.0
H1091 H 0.33036 0.26989 0.1604 0.0
C1092 C 0.29728 0.31559 0.15686 0.0
C1093 C 0.29589 0.35168 0.15208 0.0
C1094 C 0.42473 0.31433 0.14201 0.0
C1095 C 0.36033 0.31596 0.1508 0.0
C1096 C 0.45739 0.29717 0.14268 0.0
C1097 C 0.46072 0.26444 0.15244 0.0
C1098 C 0.39523 0.29843 0.151 0.0
C1099 C 0.43064 0.24967 0.1614 0.0
C1100 C 0.32954 0.29765 0.15635 0.0
C1101 C 0.32706 0.36876 0.14616 0.0
N1102 N 0.39915 0.26672 0.16041 0.0
N1103 N 0.35803 0.35077 0.14572 0.0
H1104 H 0.97757 0.33031 0.4584 0.0
H1105 H 0.00353 0.27781 0.57412 0.0
H1106 H 0.06198 0.26343 0.48005 0.0
H1107 H 0.92672 0.35357 0.55264 0.0
H1108 H 0.02447 0.27044 0.53972 0.0
H1109 H 0.95601 0.33588 0.49275 0.0
C1110 C -0.0087 0.31648 0.47033 0.0
C1111 C 0.02177 0.29665 0.46637 0.0
C1112 C 0.00302 0.28868 0.54258 0.0
C1113 C -0.00236 0.30318 0.50574 0.0
C1114 C -0.00873 0.29307 0.56224 0.0
C1115 C 0.96308 0.31605 0.56631 0.0
C1116 C 0.98645 0.30743 0.52688 0.0
C1117 C 0.94799 0.33497 0.55024 0.0
C1118 C 0.97922 0.3199 0.48997 0.0
C1119 C 0.03875 0.27951 0.48247 0.0
N1120 N 0.95974 0.33015 0.5313 0.0
N1121 N 0.02654 0.28324 0.50141 0.0
H1122 H 0.72065 0.00646 0.58726 0.0
H1123 H 0.65008 0.00242 0.4737 0.0
H1124 H 0.62609 0.95266 0.5681 0.0
H1125 H 0.75487 0.03748 0.49015 0.0
H1126 H 0.63811 0.99038 0.50883 0.0
H1127 H 0.73032 0.02583 0.55247 0.0
C1128 C 0.70166 -0.00068 0.57578 0.0
C1129 C 0.67272 0.97776 0.58046 0.0
C1130 C 0.66373 0.00077 0.50475 0.0
C1131 C 0.68355 -0.00063 0.54081 0.0
C1132 C 0.67072 0.00744 0.48458 0.0
C1133 C 0.70368 0.02089 0.47871 0.0
C1134 C 0.68975 0.00767 0.51932 0.0
C1135 C 0.72896 0.02748 0.49381 0.0
C1136 C 0.7073 0.01003 0.55594 0.0
C1137 C 0.64899 0.96888 0.56504 0.0
N1138 N 0.7215 0.02078 0.51334 0.0
N1139 N 0.65497 0.97958 0.54597 0.0
H1140 H 0.05464 0.74404 0.5593 0.0
H1141 H 0.95582 0.62336 0.47853 0.0
H1142 H -0.0057 0.65058 0.57367 0.0
H1143 H 0.01506 0.71643 0.46252 0.0
H1144 H 0.97583 0.62956 0.51304 0.0
H1145 H 0.04602 0.73158 0.52374 0.0
C1146 C 0.03967 0.72084 0.55503 0.0
C1147 C 0.02484 0.69858 0.56963 0.0
C1148 C 0.98481 0.64855 0.50204 0.0
C1149 C 0.01515 0.68399 0.5288 0.0
C1150 C 0.97334 0.64502 0.48231 0.0
C1151 C 0.98344 0.66972 0.46773 0.0
C1152 C 0.00638 0.67725 0.5074 0.0
C1153 C 0.0067 0.69687 0.47335 0.0
C1154 C 0.03494 0.71365 0.53468 0.0
C1155 C 0.00638 0.66847 0.56309 0.0
N1156 N 0.01704 0.70023 0.49284 0.0
N1157 N 0.00184 0.66228 0.54322 0.0
H1158 H 0.28166 0.97402 0.59034 0.0
H1159 H 0.30103 0.01806 0.47361 0.0
H1160 H 0.2709 0.07993 0.56683 0.0
H1161 H 0.28846 0.9128 0.49767 0.0
H1162 H 0.29117 0.04224 0.50727 0.0
H1163 H 0.28726 0.95176 0.55624 0.0
C1164 C 0.28068 -0.00738 0.57802 0.0
C1165 C 0.27577 0.02888 0.58149 0.0
C1166 C 0.29042 0.01385 0.50509 0.0
C1167 C 0.28193 0.00358 0.54224 0.0
C1168 C 0.29581 9e-05 0.48587 0.0
C1169 C 0.29612 0.96331 0.48284 0.0
C1170 C 0.28541 0.99062 0.52134 0.0
C1171 C 0.28935 0.94126 0.49934 0.0
C1172 C 0.28359 0.97989 0.5585 0.0
C1173 C 0.27424 0.05172 0.56485 0.0
N1174 N 0.28459 0.95519 0.5178 0.0
N1175 N 0.27745 0.03874 0.54597 0.0
H1176 H 0.55761 0.74621 0.99162 0.0
H1177 H 0.46049 0.87311 0.06945 0.0
H1178 H 0.50007 0.84075 0.97518 0.0
H1179 H 0.50954 0.77451 0.08658 0.0
H1180 H 0.48247 0.86551 0.03555 0.0
H1181 H 0.54723 0.75952 0.02683 0.0
C1182 C 0.54286 0.76981 0.99535 0.0
C1183 C 0.52933 0.79212 0.98025 0.0
C1184 C 0.48877 0.84561 0.0467 0.0
C1185 C 0.51773 0.80773 1.02071 0.0
C1186 C 0.47619 0.84994 0.06607 0.0
C1187 C 0.48279 0.82415 0.08076 0.0
C1188 C 0.50801 0.81507 0.04183 0.0
C1189 C 0.50388 0.79499 0.07568 0.0
C1190 C 0.53713 0.77748 1.01551 0.0
C1191 C 0.51117 0.82278 0.98615 0.0
N1192 N 0.51539 0.79099 0.05654 0.0
N1193 N 0.5057 0.82948 1.00585 0.0
H1194 H 0.22236 0.50136 0.0707 0.0
H1195 H 0.14248 0.49919 0.95898 0.0
H1196 H 0.12358 0.45246 0.05429 0.0
H1197 H 0.24573 0.54047 0.97364 0.0
H1198 H 0.13359 0.48539 0.9943 0.0
H1199 H 0.22926 0.52126 0.03583 0.0
C1200 C 0.20192 0.49534 0.05983 0.0
C1201 C 0.17259 0.47492 0.06531 0.0
C1202 C 0.15819 0.49754 0.98979 0.0
C1203 C 0.18032 0.49706 0.02549 0.0
C1204 C 0.16339 0.50518 0.96954 0.0
C1205 C 0.19491 0.52107 0.96317 0.0
C1206 C 0.18468 0.50578 1.00389 0.0
C1207 C 0.22079 0.5287 0.97776 0.0
C1208 C 0.20595 0.50636 0.03992 0.0
C1209 C 0.14692 0.46759 0.05062 0.0
N1210 N 0.21512 0.52098 0.99737 0.0
N1211 N 0.15146 0.47844 0.03144 0.0
H1212 H 0.47895 0.15521 0.08745 0.0
H1213 H 0.50695 0.21251 0.97271 0.0
H1214 H 0.5608 0.22663 0.06796 0.0
H1215 H 0.42169 0.14602 0.99295 0.0
H1216 H 0.52838 0.21661 1.00737 0.0
H1217 H 0.45766 0.15136 0.05287 0.0
C1218 C 0.49231 0.17029 0.07599 0.0
C1219 C 0.52195 0.19104 0.08074 0.0
C1220 C 0.50495 0.20114 1.00419 0.0
C1221 C 0.49797 0.1864 0.04093 0.0
C1222 C 0.49288 0.19862 0.98438 0.0
C1223 C 0.46227 0.17919 0.97986 0.0
C1224 C 0.48641 0.18394 1.01961 0.0
C1225 C 0.44496 0.1619 0.99568 0.0
C1226 C 0.48029 0.1679 0.05618 0.0
C1227 C 0.53832 0.20972 0.06508 0.0
N1228 N 0.4572 0.16472 1.01476 0.0
N1229 N 0.52622 0.20688 0.04596 0.0
H1230 H 0.76379 0.51146 0.96191 0.0
H1231 H 0.83477 0.49941 0.07495 0.0
H1232 H 0.84763 0.44269 0.98217 0.0
H1233 H 0.74372 0.56157 0.05772 0.0
H1234 H 0.84464 0.48536 0.03997 0.0
H1235 H 0.76069 0.53695 0.99575 0.0
C1236 C 0.78184 0.50217 0.9734 0.0
C1237 C 0.80564 0.47464 0.96938 0.0
C1238 C 0.82259 0.50228 0.04379 0.0
C1239 C 0.80229 0.50331 1.00792 0.0
C1240 C 0.81707 0.51057 0.06385 0.0
C1241 C 0.78815 0.53154 0.06945 0.0
C1242 C 0.79904 0.51491 0.02908 0.0
C1243 C 0.76596 0.54477 0.0542 0.0
C1244 C 0.77996 0.51649 0.9927 0.0
C1245 C 0.82841 0.46337 0.98476 0.0
N1246 N 0.77171 0.53605 0.03474 0.0
N1247 N 0.82604 0.47757 1.00332 0.0
loop_
_geom_bond_atom_site_label_1
_geom_bond_atom_site_label_2
_geom_bond_distance
_geom_bond_site_symmetry_2
_ccdc_geom_bond_type
Co0 N4 2.148 . S
Co0 N10 2.128 . S
Co0 N20 2.194 . S
Co0 O25 2.351 . S
Co0 O26 2.155 . S
Co0 O27 2.096 1_455 S
C1 N4 1.301 . S
C1 N5 1.328 . S
C1 H6 0.930 . S
C2 C3 1.333 . S
C2 N4 1.317 . S
C2 H7 0.930 1_455 S
C3 C2 1.333 . S
C3 N5 1.350 . S
C3 H29 0.931 . S
N4 Co0 2.148 . S
N4 C1 1.301 . S
N4 C2 1.317 . S
N5 C1 1.328 . S
N5 C3 1.350 . S
H6 C1 0.930 . S
H7 C2 0.930 1_655 S
C8 O9 1.217 1_655 S
C8 O27 1.247 . S
O9 C8 1.217 1_455 S
N10 Co0 2.128 . S
N10 C11 1.355 . S
N10 C13 1.311 . S
C11 N10 1.355 . S
C11 C12 1.363 . S
C11 H23 0.929 . S
C12 C11 1.363 . S
C12 N14 1.375 . S
C12 H30 0.931 . S
C13 N10 1.311 . S
C13 N14 1.347 . S
C13 H24 0.929 1_455 S
N14 C12 1.375 . S
N14 C13 1.347 . S
C15 C18 1.365 . S
C15 N20 1.328 . S
C15 H21 0.929 . S
C16 C17 1.362 . S
C16 C19 1.378 . S
C16 H31 0.929 . S
C17 C16 1.362 . S
C17 C18 1.366 . S
C18 C15 1.365 . S
C18 C17 1.366 . S
C18 H32 0.930 . S
C19 C16 1.378 . S
C19 N20 1.315 . S
C19 H22 0.930 . S
N20 Co0 2.194 . S
N20 C15 1.328 . S
N20 C19 1.315 . S
H21 C15 0.929 . S
H22 C19 0.930 . S
H23 C11 0.929 . S
H24 C13 0.929 1_655 S
O25 Co0 2.351 . S
O25 C28 1.244 . S
O26 Co0 2.155 . S
O26 C28 1.240 . S
O27 Co0 2.096 1_655 S
O27 C8 1.247 . S
C28 O25 1.244 . S
C28 O26 1.240 . S
H29 C3 0.931 . S
H30 C12 0.931 . S
H31 C16 0.929 . S
H32 C18 0.930 . S
Co33 N37 2.148 . S
Co33 N43 2.128 . S
Co33 N53 2.194 . S
Co33 O58 2.351 . S
Co33 O59 2.155 . S
Co33 O60 2.096 1_545 S
C34 N37 1.301 . S
C34 N38 1.328 . S
C34 H39 0.930 . S
C35 C36 1.333 . S
C35 N37 1.317 . S
C35 H40 0.930 1_545 S
C36 C35 1.333 . S
C36 N38 1.350 . S
C36 H62 0.931 . S
N37 Co33 2.148 . S
N37 C34 1.301 . S
N37 C35 1.317 . S
N38 C34 1.328 . S
N38 C36 1.350 . S
H39 C34 0.930 . S
H40 C35 0.930 1_565 S
C41 O42 1.217 1_565 S
C41 O60 1.247 . S
O42 C41 1.217 1_545 S
N43 Co33 2.128 . S
N43 C44 1.355 . S
N43 C46 1.311 . S
C44 N43 1.355 . S
C44 C45 1.363 . S
C44 H56 0.929 . S
C45 C44 1.363 . S
C45 N47 1.375 . S
C45 H63 0.931 . S
C46 N43 1.311 . S
C46 N47 1.347 . S
C46 H57 0.929 1_545 S
N47 C45 1.375 . S
N47 C46 1.347 . S
C48 C51 1.365 . S
C48 N53 1.328 . S
C48 H54 0.929 . S
C49 C50 1.362 . S
C49 C52 1.378 . S
C49 H64 0.929 . S
C50 C49 1.362 . S
C50 C51 1.366 . S
C51 C48 1.365 . S
C51 C50 1.366 . S
C51 H65 0.930 . S
C52 C49 1.378 . S
C52 N53 1.315 . S
C52 H55 0.930 . S
N53 Co33 2.194 . S
N53 C48 1.328 . S
N53 C52 1.315 . S
H54 C48 0.929 . S
H55 C52 0.930 . S
H56 C44 0.929 . S
H57 C46 0.929 1_565 S
O58 Co33 2.351 . S
O58 C61 1.244 . S
O59 Co33 2.155 . S
O59 C61 1.240 . S
O60 Co33 2.096 1_565 S
O60 C41 1.247 . S
C61 O58 1.244 . S
C61 O59 1.240 . S
H62 C36 0.931 . S
H63 C45 0.931 . S
H64 C49 0.929 . S
H65 C51 0.930 . S
Co66 N70 2.148 . S
Co66 N76 2.128 . S
Co66 N86 2.194 . S
Co66 O91 2.351 . S
Co66 O92 2.155 . S
Co66 O93 2.096 1_655 S
C67 N70 1.301 . S
C67 N71 1.328 . S
C67 H72 0.930 . S
C68 C69 1.333 . S
C68 N70 1.317 . S
C68 H73 0.930 1_655 S
C69 C68 1.333 . S
C69 N71 1.350 . S
C69 H95 0.931 . S
N70 Co66 2.148 . S
N70 C67 1.301 . S
N70 C68 1.317 . S
N71 C67 1.328 . S
N71 C69 1.350 . S
H72 C67 0.930 . S
H73 C68 0.930 1_455 S
C74 O75 1.217 1_455 S
C74 O93 1.247 . S
O75 C74 1.217 1_655 S
N76 Co66 2.128 . S
N76 C77 1.355 . S
N76 C79 1.311 . S
C77 N76 1.355 . S
C77 C78 1.363 . S
C77 H89 0.929 . S
C78 C77 1.363 . S
C78 N80 1.375 . S
C78 H96 0.931 . S
C79 N76 1.311 . S
C79 N80 1.347 . S
C79 H90 0.929 1_655 S
N80 C78 1.375 . S
N80 C79 1.347 . S
C81 C84 1.365 . S
C81 N86 1.328 . S
C81 H87 0.929 . S
C82 C83 1.362 . S
C82 C85 1.378 . S
C82 H97 0.929 . S
C83 C82 1.362 . S
C83 C84 1.366 . S
C84 C81 1.365 . S
C84 C83 1.366 . S
C84 H98 0.930 . S
C85 C82 1.378 . S
C85 N86 1.315 . S
C85 H88 0.930 . S
N86 Co66 2.194 . S
N86 C81 1.328 . S
N86 C85 1.315 . S
H87 C81 0.929 . S
H88 C85 0.930 . S
H89 C77 0.929 . S
H90 C79 0.929 1_455 S
O91 Co66 2.351 . S
O91 C94 1.244 . S
O92 Co66 2.155 . S
O92 C94 1.240 . S
O93 Co66 2.096 1_455 S
O93 C74 1.247 . S
C94 O91 1.244 . S
C94 O92 1.240 . S
H95 C69 0.931 . S
H96 C78 0.931 . S
H97 C82 0.929 . S
H98 C84 0.930 . S
Co99 N103 2.148 . S
Co99 N109 2.128 . S
Co99 N119 2.194 . S
Co99 O124 2.351 . S
Co99 O125 2.155 . S
Co99 O126 2.096 1_565 S
C100 N103 1.301 . S
C100 N104 1.328 . S
C100 H105 0.930 . S
C101 C102 1.333 . S
C101 N103 1.317 . S
C101 H106 0.930 1_565 S
C102 C101 1.333 . S
C102 N104 1.350 . S
C102 H128 0.931 . S
N103 Co99 2.148 . S
N103 C100 1.301 . S
N103 C101 1.317 . S
N104 C100 1.328 . S
N104 C102 1.350 . S
H105 C100 0.930 . S
H106 C101 0.930 1_545 S
C107 O108 1.217 1_545 S
C107 O126 1.247 . S
O108 C107 1.217 1_565 S
N109 Co99 2.128 . S
N109 C110 1.355 . S
N109 C112 1.311 . S
C110 N109 1.355 . S
C110 C111 1.363 . S
C110 H122 0.929 . S
C111 C110 1.363 . S
C111 N113 1.375 . S
C111 H129 0.931 . S
C112 N109 1.311 . S
C112 N113 1.347 . S
C112 H123 0.929 1_565 S
N113 C111 1.375 . S
N113 C112 1.347 . S
C114 C117 1.365 . S
C114 N119 1.328 . S
C114 H120 0.929 . S
C115 C116 1.362 . S
C115 C118 1.378 . S
C115 H130 0.929 . S
C116 C115 1.362 . S
C116 C117 1.366 . S
C117 C114 1.365 . S
C117 C116 1.366 . S
C117 H131 0.930 . S
C118 C115 1.378 . S
C118 N119 1.315 . S
C118 H121 0.930 . S
N119 Co99 2.194 . S
N119 C114 1.328 . S
N119 C118 1.315 . S
H120 C114 0.929 . S
H121 C118 0.930 . S
H122 C110 0.929 . S
H123 C112 0.929 1_545 S
O124 Co99 2.351 . S
O124 C127 1.244 . S
O125 Co99 2.155 . S
O125 C127 1.240 . S
O126 Co99 2.096 1_545 S
O126 C107 1.247 . S
C127 O124 1.244 . S
C127 O125 1.240 . S
H128 C102 0.931 . S
H129 C111 0.931 . S
H130 C115 0.929 . S
H131 C117 0.930 . S
Co132 N136 2.148 . S
Co132 N142 2.128 . S
Co132 N152 2.194 . S
Co132 O157 2.351 . S
Co132 O158 2.155 . S
Co132 O159 2.096 1_455 S
C133 N136 1.301 . S
C133 N137 1.328 . S
C133 H138 0.930 . S
C134 C135 1.333 . S
C134 N136 1.317 . S
C134 H139 0.930 1_455 S
C135 C134 1.333 . S
C135 N137 1.350 . S
C135 H161 0.931 . S
N136 Co132 2.148 . S
N136 C133 1.301 . S
N136 C134 1.317 . S
N137 C133 1.328 . S
N137 C135 1.350 . S
H138 C133 0.930 . S
H139 C134 0.930 1_655 S
C140 O141 1.217 1_655 S
C140 O159 1.247 . S
O141 C140 1.217 1_455 S
N142 Co132 2.128 . S
N142 C143 1.355 . S
N142 C145 1.311 . S
C143 N142 1.355 . S
C143 C144 1.363 . S
C143 H155 0.929 . S
C144 C143 1.363 . S
C144 N146 1.375 . S
C144 H162 0.931 . S
C145 N142 1.311 . S
C145 N146 1.347 . S
C145 H156 0.929 1_455 S
N146 C144 1.375 . S
N146 C145 1.347 . S
C147 C150 1.365 . S
C147 N152 1.328 . S
C147 H153 0.929 . S
C148 C149 1.362 . S
C148 C151 1.378 . S
C148 H163 0.929 . S
C149 C148 1.362 . S
C149 C150 1.366 . S
C150 C147 1.365 . S
C150 C149 1.366 . S
C150 H164 0.930 . S
C151 C148 1.378 . S
C151 N152 1.315 . S
C151 H154 0.930 . S
N152 Co132 2.194 . S
N152 C147 1.328 . S
N152 C151 1.315 . S
H153 C147 0.929 . S
H154 C151 0.930 . S
H155 C143 0.929 . S
H156 C145 0.929 1_655 S
O157 Co132 2.351 . S
O157 C160 1.244 . S
O158 Co132 2.155 . S
O158 C160 1.240 . S
O159 Co132 2.096 1_655 S
O159 C140 1.247 . S
C160 O157 1.244 . S
C160 O158 1.240 . S
H161 C135 0.931 . S
H162 C144 0.931 . S
H163 C148 0.929 . S
H164 C150 0.930 . S
Co165 N169 2.148 . S
Co165 N175 2.128 . S
Co165 N185 2.194 . S
Co165 O190 2.351 . S
Co165 O191 2.155 . S
Co165 O192 2.096 1_545 S
C166 N169 1.301 . S
C166 N170 1.328 . S
C166 H171 0.930 . S
C167 C168 1.333 . S
C167 N169 1.317 . S
C167 H172 0.930 1_545 S
C168 C167 1.333 . S
C168 N170 1.350 . S
C168 H194 0.931 . S
N169 Co165 2.148 . S
N169 C166 1.301 . S
N169 C167 1.317 . S
N170 C166 1.328 . S
N170 C168 1.350 . S
H171 C166 0.930 . S
H172 C167 0.930 1_565 S
C173 O174 1.217 1_565 S
C173 O192 1.247 . S
O174 C173 1.217 1_545 S
N175 Co165 2.128 . S
N175 C176 1.355 . S
N175 C178 1.311 . S
C176 N175 1.355 . S
C176 C177 1.363 . S
C176 H188 0.929 . S
C177 C176 1.363 . S
C177 N179 1.375 . S
C177 H195 0.931 . S
C178 N175 1.311 . S
C178 N179 1.347 . S
C178 H189 0.929 1_545 S
N179 C177 1.375 . S
N179 C178 1.347 . S
C180 C183 1.365 . S
C180 N185 1.328 . S
C180 H186 0.929 . S
C181 C182 1.362 . S
C181 C184 1.378 . S
C181 H196 0.929 . S
C182 C181 1.362 . S
C182 C183 1.366 . S
C183 C180 1.365 . S
C183 C182 1.366 . S
C183 H197 0.930 . S
C184 C181 1.378 . S
C184 N185 1.315 . S
C184 H187 0.930 . S
N185 Co165 2.194 . S
N185 C180 1.328 . S
N185 C184 1.315 . S
H186 C180 0.929 . S
H187 C184 0.930 . S
H188 C176 0.929 . S
H189 C178 0.929 1_565 S
O190 Co165 2.351 . S
O190 C193 1.244 . S
O191 Co165 2.155 . S
O191 C193 1.240 . S
O192 Co165 2.096 1_565 S
O192 C173 1.247 . S
C193 O190 1.244 . S
C193 O191 1.240 . S
H194 C168 0.931 . S
H195 C177 0.931 . S
H196 C181 0.929 . S
H197 C183 0.930 . S
Co198 N202 2.148 . S
Co198 N208 2.128 . S
Co198 N218 2.194 . S
Co198 O223 2.351 . S
Co198 O224 2.155 . S
Co198 O225 2.096 1_655 S
C199 N202 1.301 . S
C199 N203 1.328 . S
C199 H204 0.930 . S
C200 C201 1.333 . S
C200 N202 1.317 . S
C200 H205 0.930 1_655 S
C201 C200 1.333 . S
C201 N203 1.350 . S
C201 H227 0.931 . S
N202 Co198 2.148 . S
N202 C199 1.301 . S
N202 C200 1.317 . S
N203 C199 1.328 . S
N203 C201 1.350 . S
H204 C199 0.930 . S
H205 C200 0.930 1_455 S
C206 O207 1.217 1_455 S
C206 O225 1.247 . S
O207 C206 1.217 1_655 S
N208 Co198 2.128 . S
N208 C209 1.355 . S
N208 C211 1.311 . S
C209 N208 1.355 . S
C209 C210 1.363 . S
C209 H221 0.929 . S
C210 C209 1.363 . S
C210 N212 1.375 . S
C210 H228 0.931 . S
C211 N208 1.311 . S
C211 N212 1.347 . S
C211 H222 0.929 1_655 S
N212 C210 1.375 . S
N212 C211 1.347 . S
C213 C216 1.365 . S
C213 N218 1.328 . S
C213 H219 0.929 . S
C214 C215 1.362 . S
C214 C217 1.378 . S
C214 H229 0.929 . S
C215 C214 1.362 . S
C215 C216 1.366 . S
C216 C213 1.365 . S
C216 C215 1.366 . S
C216 H230 0.930 . S
C217 C214 1.378 . S
C217 N218 1.315 . S
C217 H220 0.930 . S
N218 Co198 2.194 . S
N218 C213 1.328 . S
N218 C217 1.315 . S
H219 C213 0.929 . S
H220 C217 0.930 . S
H221 C209 0.929 . S
H222 C211 0.929 1_455 S
O223 Co198 2.351 . S
O223 C226 1.244 . S
O224 Co198 2.155 . S
O224 C226 1.240 . S
O225 Co198 2.096 1_455 S
O225 C206 1.247 . S
C226 O223 1.244 . S
C226 O224 1.240 . S
H227 C201 0.931 . S
H228 C210 0.931 . S
H229 C214 0.929 . S
H230 C216 0.930 . S
Co231 N235 2.148 . S
Co231 N241 2.128 . S
Co231 N251 2.194 . S
Co231 O256 2.351 . S
Co231 O257 2.155 . S
Co231 O258 2.096 1_565 S
C232 N235 1.301 . S
C232 N236 1.328 . S
C232 H237 0.930 . S
C233 C234 1.333 . S
C233 N235 1.317 . S
C233 H238 0.930 1_565 S
C234 C233 1.333 . S
C234 N236 1.350 . S
C234 H260 0.931 . S
N235 Co231 2.148 . S
N235 C232 1.301 . S
N235 C233 1.317 . S
N236 C232 1.328 . S
N236 C234 1.350 . S
H237 C232 0.930 . S
H238 C233 0.930 1_545 S
C239 O240 1.217 1_545 S
C239 O258 1.247 . S
O240 C239 1.217 1_565 S
N241 Co231 2.128 . S
N241 C242 1.355 . S
N241 C244 1.311 . S
C242 N241 1.355 . S
C242 C243 1.363 . S
C242 H254 0.929 . S
C243 C242 1.363 . S
C243 N245 1.375 . S
C243 H261 0.931 . S
C244 N241 1.311 . S
C244 N245 1.347 . S
C244 H255 0.929 1_565 S
N245 C243 1.375 . S
N245 C244 1.347 . S
C246 C249 1.365 . S
C246 N251 1.328 . S
C246 H252 0.929 . S
C247 C248 1.362 . S
C247 C250 1.378 . S
C247 H262 0.929 . S
C248 C247 1.362 . S
C248 C249 1.366 . S
C249 C246 1.365 . S
C249 C248 1.366 . S
C249 H263 0.930 . S
C250 C247 1.378 . S
C250 N251 1.315 . S
C250 H253 0.930 . S
N251 Co231 2.194 . S
N251 C246 1.328 . S
N251 C250 1.315 . S
H252 C246 0.929 . S
H253 C250 0.930 . S
H254 C242 0.929 . S
H255 C244 0.929 1_545 S
O256 Co231 2.351 . S
O256 C259 1.244 . S
O257 Co231 2.155 . S
O257 C259 1.240 . S
O258 Co231 2.096 1_545 S
O258 C239 1.247 . S
C259 O256 1.244 . S
C259 O257 1.240 . S
H260 C234 0.931 . S
H261 C243 0.931 . S
H262 C247 0.929 . S
H263 C249 0.930 . S
Co264 N268 2.148 . S
Co264 N274 2.128 . S
Co264 N284 2.194 . S
Co264 O289 2.351 . S
Co264 O290 2.155 . S
Co264 O291 2.096 . S
C265 N268 1.301 . S
C265 N269 1.328 . S
C265 H270 0.930 . S
C266 C267 1.333 . S
C266 N268 1.317 . S
C266 H271 0.930 . S
C267 C266 1.333 . S
C267 N269 1.350 . S
C267 H293 0.931 . S
N268 Co264 2.148 . S
N268 C265 1.301 . S
N268 C266 1.317 . S
N269 C265 1.328 . S
N269 C267 1.350 . S
H270 C265 0.930 . S
H271 C266 0.930 . S
C272 O273 1.224 . S
C272 O291 1.247 . S
O273 C272 1.224 . S
N274 Co264 2.128 . S
N274 C275 1.355 . S
N274 C277 1.311 . S
C275 N274 1.355 . S
C275 C276 1.363 . S
C275 H287 0.929 . S
C276 C275 1.363 . S
C276 N278 1.375 . S
C276 H294 0.931 . S
C277 N274 1.311 . S
C277 N278 1.347 . S
C277 H288 0.929 . S
N278 C276 1.375 . S
N278 C277 1.347 . S
C279 C282 1.365 . S
C279 N284 1.328 . S
C279 H285 0.929 . S
C280 C281 1.362 . S
C280 C283 1.378 . S
C280 H295 0.929 . S
C281 C280 1.362 . S
C281 C282 1.366 . S
C282 C279 1.365 . S
C282 C281 1.366 . S
C282 H296 0.930 . S
C283 C280 1.378 . S
C283 N284 1.315 . S
C283 H286 0.930 . S
N284 Co264 2.194 . S
N284 C279 1.328 . S
N284 C283 1.315 . S
H285 C279 0.929 . S
H286 C283 0.930 . S
H287 C275 0.929 . S
H288 C277 0.929 . S
O289 Co264 2.351 . S
O289 C292 1.244 . S
O290 Co264 2.155 . S
O290 C292 1.240 . S
O291 Co264 2.096 . S
O291 C272 1.247 . S
C292 O289 1.244 . S
C292 O290 1.240 . S
H293 C267 0.931 . S
H294 C276 0.931 . S
H295 C280 0.929 . S
H296 C282 0.930 . S
Co297 N301 2.148 . S
Co297 N307 2.128 . S
Co297 N317 2.194 . S
Co297 O322 2.351 . S
Co297 O323 2.155 . S
Co297 O324 2.096 . S
C298 N301 1.301 . S
C298 N302 1.328 . S
C298 H303 0.930 . S
C299 C300 1.333 . S
C299 N301 1.317 . S
C299 H304 0.930 . S
C300 C299 1.333 . S
C300 N302 1.350 . S
C300 H326 0.931 . S
N301 Co297 2.148 . S
N301 C298 1.301 . S
N301 C299 1.317 . S
N302 C298 1.328 . S
N302 C300 1.350 . S
H303 C298 0.930 . S
H304 C299 0.930 . S
C305 O306 1.224 . S
C305 O324 1.247 . S
O306 C305 1.224 . S
N307 Co297 2.128 . S
N307 C308 1.355 . S
N307 C310 1.311 . S
C308 N307 1.355 . S
C308 C309 1.363 . S
C308 H320 0.929 . S
C309 C308 1.363 . S
C309 N311 1.375 . S
C309 H327 0.931 . S
C310 N307 1.311 . S
C310 N311 1.347 . S
C310 H321 0.929 . S
N311 C309 1.375 . S
N311 C310 1.347 . S
C312 C315 1.365 . S
C312 N317 1.328 . S
C312 H318 0.929 . S
C313 C314 1.362 . S
C313 C316 1.378 . S
C313 H328 0.929 . S
C314 C313 1.362 . S
C314 C315 1.366 . S
C315 C312 1.365 . S
C315 C314 1.366 . S
C315 H329 0.930 . S
C316 C313 1.378 . S
C316 N317 1.315 . S
C316 H319 0.930 . S
N317 Co297 2.194 . S
N317 C312 1.328 . S
N317 C316 1.315 . S
H318 C312 0.929 . S
H319 C316 0.930 . S
H320 C308 0.929 . S
H321 C310 0.929 . S
O322 Co297 2.351 . S
O322 C325 1.244 . S
O323 Co297 2.155 . S
O323 C325 1.240 . S
O324 Co297 2.096 . S
O324 C305 1.247 . S
C325 O322 1.244 . S
C325 O323 1.240 . S
H326 C300 0.931 . S
H327 C309 0.931 . S
H328 C313 0.929 . S
H329 C315 0.930 . S
Co330 N334 2.148 . S
Co330 N340 2.128 . S
Co330 N350 2.194 . S
Co330 O355 2.351 . S
Co330 O356 2.155 . S
Co330 O357 2.096 . S
C331 N334 1.301 . S
C331 N335 1.328 . S
C331 H336 0.930 . S
C332 C333 1.333 . S
C332 N334 1.317 . S
C332 H337 0.930 . S
C333 C332 1.333 . S
C333 N335 1.350 . S
C333 H359 0.931 . S
N334 Co330 2.148 . S
N334 C331 1.301 . S
N334 C332 1.317 . S
N335 C331 1.328 . S
N335 C333 1.350 . S
H336 C331 0.930 . S
H337 C332 0.930 . S
C338 O339 1.224 . S
C338 O357 1.247 . S
O339 C338 1.224 . S
N340 Co330 2.128 . S
N340 C341 1.355 . S
N340 C343 1.311 . S
C341 N340 1.355 . S
C341 C342 1.363 . S
C341 H353 0.929 . S
C342 C341 1.363 . S
C342 N344 1.375 . S
C342 H360 0.931 . S
C343 N340 1.311 . S
C343 N344 1.347 . S
C343 H354 0.929 . S
N344 C342 1.375 . S
N344 C343 1.347 . S
C345 C348 1.365 . S
C345 N350 1.328 . S
C345 H351 0.929 . S
C346 C347 1.362 . S
C346 C349 1.378 . S
C346 H361 0.929 . S
C347 C346 1.362 . S
C347 C348 1.366 . S
C348 C345 1.365 . S
C348 C347 1.366 . S
C348 H362 0.930 . S
C349 C346 1.378 . S
C349 N350 1.315 . S
C349 H352 0.930 . S
N350 Co330 2.194 . S
N350 C345 1.328 . S
N350 C349 1.315 . S
H351 C345 0.929 . S
H352 C349 0.930 . S
H353 C341 0.929 . S
H354 C343 0.929 . S
O355 Co330 2.351 . S
O355 C358 1.244 . S
O356 Co330 2.155 . S
O356 C358 1.240 . S
O357 Co330 2.096 . S
O357 C338 1.247 . S
C358 O355 1.244 . S
C358 O356 1.240 . S
H359 C333 0.931 . S
H360 C342 0.931 . S
H361 C346 0.929 . S
H362 C348 0.930 . S
Co363 N367 2.148 . S
Co363 N373 2.128 . S
Co363 N383 2.194 . S
Co363 O388 2.351 . S
Co363 O389 2.155 . S
Co363 O390 2.096 . S
C364 N367 1.301 . S
C364 N368 1.328 . S
C364 H369 0.930 . S
C365 C366 1.333 . S
C365 N367 1.317 . S
C365 H370 0.930 . S
C366 C365 1.333 . S
C366 N368 1.350 . S
C366 H392 0.931 . S
N367 Co363 2.148 . S
N367 C364 1.301 . S
N367 C365 1.317 . S
N368 C364 1.328 . S
N368 C366 1.350 . S
H369 C364 0.930 . S
H370 C365 0.930 . S
C371 O372 1.224 . S
C371 O390 1.247 . S
O372 C371 1.224 . S
N373 Co363 2.128 . S
N373 C374 1.355 . S
N373 C376 1.311 . S
C374 N373 1.355 . S
C374 C375 1.363 . S
C374 H386 0.929 . S
C375 C374 1.363 . S
C375 N377 1.375 . S
C375 H393 0.931 . S
C376 N373 1.311 . S
C376 N377 1.347 . S
C376 H387 0.929 . S
N377 C375 1.375 . S
N377 C376 1.347 . S
C378 C381 1.365 . S
C378 N383 1.328 . S
C378 H384 0.929 . S
C379 C380 1.362 . S
C379 C382 1.378 . S
C379 H394 0.929 . S
C380 C379 1.362 . S
C380 C381 1.366 . S
C381 C378 1.365 . S
C381 C380 1.366 . S
C381 H395 0.930 . S
C382 C379 1.378 . S
C382 N383 1.315 . S
C382 H385 0.930 . S
N383 Co363 2.194 . S
N383 C378 1.328 . S
N383 C382 1.315 . S
H384 C378 0.929 . S
H385 C382 0.930 . S
H386 C374 0.929 . S
H387 C376 0.929 . S
O388 Co363 2.351 . S
O388 C391 1.244 . S
O389 Co363 2.155 . S
O389 C391 1.240 . S
O390 Co363 2.096 . S
O390 C371 1.247 . S
C391 O388 1.244 . S
C391 O389 1.240 . S
H392 C366 0.931 . S
H393 C375 0.931 . S
H394 C379 0.929 . S
H395 C381 0.930 . S
Co396 N400 2.148 . S
Co396 N406 2.128 . S
Co396 N416 2.194 . S
Co396 O421 2.351 . S
Co396 O422 2.155 . S
Co396 O423 2.096 . S
C397 N400 1.301 . S
C397 N401 1.328 . S
C397 H402 0.930 . S
C398 C399 1.333 . S
C398 N400 1.317 . S
C398 H403 0.930 . S
C399 C398 1.333 . S
C399 N401 1.350 . S
C399 H425 0.931 . S
N400 Co396 2.148 . S
N400 C397 1.301 . S
N400 C398 1.317 . S
N401 C397 1.328 . S
N401 C399 1.350 . S
H402 C397 0.930 . S
H403 C398 0.930 . S
C404 O405 1.224 . S
C404 O423 1.247 . S
O405 C404 1.224 . S
N406 Co396 2.128 . S
N406 C407 1.355 . S
N406 C409 1.311 . S
C407 N406 1.355 . S
C407 C408 1.363 . S
C407 H419 0.929 . S
C408 C407 1.363 . S
C408 N410 1.375 . S
C408 H426 0.931 . S
C409 N406 1.311 . S
C409 N410 1.347 . S
C409 H420 0.929 . S
N410 C408 1.375 . S
N410 C409 1.347 . S
C411 C414 1.365 . S
C411 N416 1.328 . S
C411 H417 0.929 . S
C412 C413 1.362 . S
C412 C415 1.378 . S
C412 H427 0.929 . S
C413 C412 1.362 . S
C413 C414 1.366 . S
C414 C411 1.365 . S
C414 C413 1.366 . S
C414 H428 0.930 . S
C415 C412 1.378 . S
C415 N416 1.315 . S
C415 H418 0.930 . S
N416 Co396 2.194 . S
N416 C411 1.328 . S
N416 C415 1.315 . S
H417 C411 0.929 . S
H418 C415 0.930 . S
H419 C407 0.929 . S
H420 C409 0.929 . S
O421 Co396 2.351 . S
O421 C424 1.244 . S
O422 Co396 2.155 . S
O422 C424 1.240 . S
O423 Co396 2.096 . S
O423 C404 1.247 . S
C424 O421 1.244 . S
C424 O422 1.240 . S
H425 C399 0.931 . S
H426 C408 0.931 . S
H427 C412 0.929 . S
H428 C414 0.930 . S
Co429 N433 2.148 . S
Co429 N439 2.128 . S
Co429 N449 2.194 . S
Co429 O454 2.351 . S
Co429 O455 2.155 . S
Co429 O456 2.096 . S
C430 N433 1.301 . S
C430 N434 1.328 . S
C430 H435 0.930 . S
C431 C432 1.333 . S
C431 N433 1.317 . S
C431 H436 0.930 . S
C432 C431 1.333 . S
C432 N434 1.350 . S
C432 H458 0.931 . S
N433 Co429 2.148 . S
N433 C430 1.301 . S
N433 C431 1.317 . S
N434 C430 1.328 . S
N434 C432 1.350 . S
H435 C430 0.930 . S
H436 C431 0.930 . S
C437 O438 1.224 . S
C437 O456 1.247 . S
O438 C437 1.224 . S
N439 Co429 2.128 . S
N439 C440 1.355 . S
N439 C442 1.311 . S
C440 N439 1.355 . S
C440 C441 1.363 . S
C440 H452 0.929 . S
C441 C440 1.363 . S
C441 N443 1.375 . S
C441 H459 0.931 . S
C442 N439 1.311 . S
C442 N443 1.347 . S
C442 H453 0.929 . S
N443 C441 1.375 . S
N443 C442 1.347 . S
C444 C447 1.365 . S
C444 N449 1.328 . S
C444 H450 0.929 . S
C445 C446 1.362 . S
C445 C448 1.378 . S
C445 H460 0.929 . S
C446 C445 1.362 . S
C446 C447 1.366 . S
C447 C444 1.365 . S
C447 C446 1.366 . S
C447 H461 0.930 . S
C448 C445 1.378 . S
C448 N449 1.315 . S
C448 H451 0.930 . S
N449 Co429 2.194 . S
N449 C444 1.328 . S
N449 C448 1.315 . S
H450 C444 0.929 . S
H451 C448 0.930 . S
H452 C440 0.929 . S
H453 C442 0.929 . S
O454 Co429 2.351 . S
O454 C457 1.244 . S
O455 Co429 2.155 . S
O455 C457 1.240 . S
O456 Co429 2.096 . S
O456 C437 1.247 . S
C457 O454 1.244 . S
C457 O455 1.240 . S
H458 C432 0.931 . S
H459 C441 0.931 . S
H460 C445 0.929 . S
H461 C447 0.930 . S
Co462 N466 2.148 . S
Co462 N472 2.128 . S
Co462 N482 2.194 . S
Co462 O487 2.351 . S
Co462 O488 2.155 . S
Co462 O489 2.096 . S
C463 N466 1.301 . S
C463 N467 1.328 . S
C463 H468 0.930 . S
C464 C465 1.333 . S
C464 N466 1.317 . S
C464 H469 0.930 . S
C465 C464 1.333 . S
C465 N467 1.350 . S
C465 H491 0.931 . S
N466 Co462 2.148 . S
N466 C463 1.301 . S
N466 C464 1.317 . S
N467 C463 1.328 . S
N467 C465 1.350 . S
H468 C463 0.930 . S
H469 C464 0.930 . S
C470 O471 1.224 . S
C470 O489 1.247 . S
O471 C470 1.224 . S
N472 Co462 2.128 . S
N472 C473 1.355 . S
N472 C475 1.311 . S
C473 N472 1.355 . S
C473 C474 1.363 . S
C473 H485 0.929 . S
C474 C473 1.363 . S
C474 N476 1.375 . S
C474 H492 0.931 . S
C475 N472 1.311 . S
C475 N476 1.347 . S
C475 H486 0.929 . S
N476 C474 1.375 . S
N476 C475 1.347 . S
C477 C480 1.365 . S
C477 N482 1.328 . S
C477 H483 0.929 . S
C478 C479 1.362 . S
C478 C481 1.378 . S
C478 H493 0.929 . S
C479 C478 1.362 . S
C479 C480 1.366 . S
C480 C477 1.365 . S
C480 C479 1.366 . S
C480 H494 0.930 . S
C481 C478 1.378 . S
C481 N482 1.315 . S
C481 H484 0.930 . S
N482 Co462 2.194 . S
N482 C477 1.328 . S
N482 C481 1.315 . S
H483 C477 0.929 . S
H484 C481 0.930 . S
H485 C473 0.929 . S
H486 C475 0.929 . S
O487 Co462 2.351 . S
O487 C490 1.244 . S
O488 Co462 2.155 . S
O488 C490 1.240 . S
O489 Co462 2.096 . S
O489 C470 1.247 . S
C490 O487 1.244 . S
C490 O488 1.240 . S
H491 C465 0.931 . S
H492 C474 0.931 . S
H493 C478 0.929 . S
H494 C480 0.930 . S
Co495 N499 2.148 . S
Co495 N505 2.128 . S
Co495 N515 2.194 . S
Co495 O520 2.351 . S
Co495 O521 2.155 . S
Co495 O522 2.096 . S
C496 N499 1.301 . S
C496 N500 1.328 . S
C496 H501 0.930 . S
C497 C498 1.333 . S
C497 N499 1.317 . S
C497 H502 0.930 . S
C498 C497 1.333 . S
C498 N500 1.350 . S
C498 H524 0.931 . S
N499 Co495 2.148 . S
N499 C496 1.301 . S
N499 C497 1.317 . S
N500 C496 1.328 . S
N500 C498 1.350 . S
H501 C496 0.930 . S
H502 C497 0.930 . S
C503 O504 1.224 . S
C503 O522 1.247 . S
O504 C503 1.224 . S
N505 Co495 2.128 . S
N505 C506 1.355 . S
N505 C508 1.311 . S
C506 N505 1.355 . S
C506 C507 1.363 . S
C506 H518 0.929 . S
C507 C506 1.363 . S
C507 N509 1.375 . S
C507 H525 0.931 . S
C508 N505 1.311 . S
C508 N509 1.347 . S
C508 H519 0.929 . S
N509 C507 1.375 . S
N509 C508 1.347 . S
C510 C513 1.365 . S
C510 N515 1.328 . S
C510 H516 0.929 . S
C511 C512 1.362 . S
C511 C514 1.378 . S
C511 H526 0.929 . S
C512 C511 1.362 . S
C512 C513 1.366 . S
C513 C510 1.365 . S
C513 C512 1.366 . S
C513 H527 0.930 . S
C514 C511 1.378 . S
C514 N515 1.315 . S
C514 H517 0.930 . S
N515 Co495 2.194 . S
N515 C510 1.328 . S
N515 C514 1.315 . S
H516 C510 0.929 . S
H517 C514 0.930 . S
H518 C506 0.929 . S
H519 C508 0.929 . S
O520 Co495 2.351 . S
O520 C523 1.244 . S
O521 Co495 2.155 . S
O521 C523 1.240 . S
O522 Co495 2.096 . S
O522 C503 1.247 . S
C523 O520 1.244 . S
C523 O521 1.240 . S
H524 C498 0.931 . S
H525 C507 0.931 . S
H526 C511 0.929 . S
H527 C513 0.930 . S
H528 C534 0.930 . S
H529 C538 0.930 . S
H530 C543 0.929 . S
H531 C541 0.929 . S
H532 C536 0.929 . S
H533 C542 0.929 . S
C534 H528 0.930 . S
C534 C535 1.367 . S
C534 C542 1.378 . S
C535 C534 1.367 . S
C535 C543 1.433 . S
C536 H532 0.929 . S
C536 C538 1.378 . S
C536 C540 1.350 . S
C537 C540 1.463 1_655 S
C537 C542 1.350 . S
C537 N545 1.427 . S
C538 H529 0.930 . S
C538 C536 1.378 . S
C538 C539 1.367 . S
C539 C538 1.367 . S
C539 C541 1.433 . S
C540 C536 1.350 . S
C540 C537 1.463 1_455 S
C540 N544 1.427 . S
C541 H531 0.929 . S
C541 C539 1.433 . S
C541 N544 1.384 . S
C542 H533 0.929 . S
C542 C534 1.378 . S
C542 C537 1.350 . S
C543 H530 0.929 . S
C543 C535 1.433 . S
C543 N545 1.384 . S
N544 C540 1.427 . S
N544 C541 1.384 . S
N545 C537 1.427 . S
N545 C543 1.384 . S
H546 C552 0.930 . S
H547 C556 0.930 . S
H548 C561 0.929 . S
H549 C559 0.929 . S
H550 C554 0.929 1_545 S
H551 C560 0.929 1_565 S
C552 H546 0.930 . S
C552 C553 1.367 . S
C552 C560 1.378 . S
C553 C552 1.367 . S
C553 C561 1.433 . S
C554 H550 0.929 1_565 S
C554 C556 1.378 . S
C554 C558 1.350 . S
C555 C558 1.463 1_545 S
C555 C560 1.350 . S
C555 N563 1.427 . S
C556 H547 0.930 . S
C556 C554 1.378 . S
C556 C557 1.367 . S
C557 C556 1.367 . S
C557 C559 1.433 . S
C558 C554 1.350 . S
C558 C555 1.463 1_565 S
C558 N562 1.427 . S
C559 H549 0.929 . S
C559 C557 1.433 . S
C559 N562 1.384 . S
C560 H551 0.929 1_545 S
C560 C552 1.378 . S
C560 C555 1.350 . S
C561 H548 0.929 . S
C561 C553 1.433 . S
C561 N563 1.384 . S
N562 C558 1.427 . S
N562 C559 1.384 . S
N563 C555 1.427 . S
N563 C561 1.384 . S
H564 C570 0.930 . S
H565 C574 0.930 . S
H566 C579 0.929 . S
H567 C577 0.929 . S
H568 C572 0.929 . S
H569 C578 0.929 . S
C570 H564 0.930 . S
C570 C571 1.367 . S
C570 C578 1.378 . S
C571 C570 1.367 . S
C571 C579 1.433 . S
C572 H568 0.929 . S
C572 C574 1.378 . S
C572 C576 1.350 . S
C573 C576 1.463 1_655 S
C573 C578 1.350 . S
C573 N581 1.427 . S
C574 H565 0.930 . S
C574 C572 1.378 . S
C574 C575 1.367 . S
C575 C574 1.367 . S
C575 C577 1.433 . S
C576 C572 1.350 . S
C576 C573 1.463 1_455 S
C576 N580 1.427 . S
C577 H567 0.929 . S
C577 C575 1.433 . S
C577 N580 1.384 . S
C578 H569 0.929 . S
C578 C570 1.378 . S
C578 C573 1.350 . S
C579 H566 0.929 . S
C579 C571 1.433 . S
C579 N581 1.384 . S
N580 C576 1.427 . S
N580 C577 1.384 . S
N581 C573 1.427 . S
N581 C579 1.384 . S
H582 C588 0.930 . S
H583 C592 0.930 . S
H584 C597 0.929 . S
H585 C595 0.929 . S
H586 C590 0.929 . S
H587 C596 0.929 . S
C588 H582 0.930 . S
C588 C589 1.367 . S
C588 C596 1.378 . S
C589 C588 1.367 . S
C589 C597 1.433 . S
C590 H586 0.929 . S
C590 C592 1.378 . S
C590 C594 1.350 . S
C591 C594 1.463 1_565 S
C591 C596 1.350 . S
C591 N599 1.427 . S
C592 H583 0.930 . S
C592 C590 1.378 . S
C592 C593 1.367 . S
C593 C592 1.367 . S
C593 C595 1.433 . S
C594 C590 1.350 . S
C594 C591 1.463 1_545 S
C594 N598 1.427 . S
C595 H585 0.929 . S
C595 C593 1.433 . S
C595 N598 1.384 . S
C596 H587 0.929 . S
C596 C588 1.378 . S
C596 C591 1.350 . S
C597 H584 0.929 . S
C597 C589 1.433 . S
C597 N599 1.384 . S
N598 C594 1.427 . S
N598 C595 1.384 . S
N599 C591 1.427 . S
N599 C597 1.384 . S
H600 C606 0.930 . S
H601 C610 0.930 . S
H602 C615 0.929 . S
H603 C613 0.929 . S
H604 C608 0.929 . S
H605 C614 0.929 . S
C606 H600 0.930 . S
C606 C607 1.367 . S
C606 C614 1.378 . S
C607 C606 1.367 . S
C607 C615 1.433 . S
C608 H604 0.929 . S
C608 C610 1.378 . S
C608 C612 1.350 . S
C609 C612 1.463 1_565 S
C609 C614 1.350 . S
C609 N617 1.427 . S
C610 H601 0.930 . S
C610 C608 1.378 . S
C610 C611 1.367 . S
C611 C610 1.367 . S
C611 C613 1.433 . S
C612 C608 1.350 . S
C612 C609 1.463 1_545 S
C612 N616 1.427 . S
C613 H603 0.929 . S
C613 C611 1.433 . S
C613 N616 1.384 . S
C614 H605 0.929 . S
C614 C606 1.378 . S
C614 C609 1.350 . S
C615 H602 0.929 . S
C615 C607 1.433 . S
C615 N617 1.384 . S
N616 C612 1.427 . S
N616 C613 1.384 . S
N617 C609 1.427 . S
N617 C615 1.384 . S
H618 C624 0.930 . S
H619 C628 0.930 . S
H620 C633 0.929 . S
H621 C631 0.929 . S
H622 C626 0.929 . S
H623 C632 0.929 . S
C624 H618 0.930 . S
C624 C625 1.367 . S
C624 C632 1.378 . S
C625 C624 1.367 . S
C625 C633 1.433 . S
C626 H622 0.929 . S
C626 C628 1.378 . S
C626 C630 1.350 . S
C627 C630 1.463 1_655 S
C627 C632 1.350 . S
C627 N635 1.427 . S
C628 H619 0.930 . S
C628 C626 1.378 . S
C628 C629 1.367 . S
C629 C628 1.367 . S
C629 C631 1.433 . S
C630 C626 1.350 . S
C630 C627 1.463 1_455 S
C630 N634 1.427 . S
C631 H621 0.929 . S
C631 C629 1.433 . S
C631 N634 1.384 . S
C632 H623 0.929 . S
C632 C624 1.378 . S
C632 C627 1.350 . S
C633 H620 0.929 . S
C633 C625 1.433 . S
C633 N635 1.384 . S
N634 C630 1.427 . S
N634 C631 1.384 . S
N635 C627 1.427 . S
N635 C633 1.384 . S
H636 C642 0.930 . S
H637 C646 0.930 . S
H638 C651 0.929 . S
H639 C649 0.929 . S
H640 C644 0.929 . S
H641 C650 0.929 . S
C642 H636 0.930 . S
C642 C643 1.367 . S
C642 C650 1.378 . S
C643 C642 1.367 . S
C643 C651 1.433 . S
C644 H640 0.929 . S
C644 C646 1.378 . S
C644 C648 1.350 . S
C645 C648 1.463 1_565 S
C645 C650 1.350 . S
C645 N653 1.427 . S
C646 H637 0.930 . S
C646 C644 1.378 . S
C646 C647 1.367 . S
C647 C646 1.367 . S
C647 C649 1.433 . S
C648 C644 1.350 . S
C648 C645 1.463 1_545 S
C648 N652 1.427 . S
C649 H639 0.929 . S
C649 C647 1.433 . S
C649 N652 1.384 . S
C650 H641 0.929 . S
C650 C642 1.378 . S
C650 C645 1.350 . S
C651 H638 0.929 . S
C651 C643 1.433 . S
C651 N653 1.384 . S
N652 C648 1.427 . S
N652 C649 1.384 . S
N653 C645 1.427 . S
N653 C651 1.384 . S
H654 C660 0.930 . S
H655 C664 0.930 . S
H656 C669 0.929 . S
H657 C667 0.929 . S
H658 C662 0.929 . S
H659 C668 0.929 . S
C660 H654 0.930 . S
C660 C661 1.367 . S
C660 C668 1.378 . S
C661 C660 1.367 . S
C661 C669 1.433 . S
C662 H658 0.929 . S
C662 C664 1.378 . S
C662 C666 1.350 . S
C663 C666 1.463 1_655 S
C663 C668 1.350 . S
C663 N671 1.427 . S
C664 H655 0.930 . S
C664 C662 1.378 . S
C664 C665 1.367 . S
C665 C664 1.367 . S
C665 C667 1.433 . S
C666 C662 1.350 . S
C666 C663 1.463 1_455 S
C666 N670 1.427 . S
C667 H657 0.929 . S
C667 C665 1.433 . S
C667 N670 1.384 . S
C668 H659 0.929 . S
C668 C660 1.378 . S
C668 C663 1.350 . S
C669 H656 0.929 . S
C669 C661 1.433 . S
C669 N671 1.384 . S
N670 C666 1.427 . S
N670 C667 1.384 . S
N671 C663 1.427 . S
N671 C669 1.384 . S
H672 C678 0.930 . S
H673 C682 0.930 . S
H674 C687 0.929 . S
H675 C685 0.929 . S
H676 C680 0.929 . S
H677 C686 0.929 . S
C678 H672 0.930 . S
C678 C679 1.367 . S
C678 C686 1.378 . S
C679 C678 1.367 . S
C679 C687 1.433 . S
C680 H676 0.929 . S
C680 C682 1.378 . S
C680 C684 1.350 . S
C681 C684 1.463 . S
C681 C686 1.350 . S
C681 N689 1.427 . S
C682 H673 0.930 . S
C682 C680 1.378 . S
C682 C683 1.367 . S
C683 C682 1.367 . S
C683 C685 1.433 . S
C684 C680 1.350 . S
C684 C681 1.463 . S
C684 N688 1.427 . S
C685 H675 0.929 . S
C685 C683 1.433 . S
C685 N688 1.384 . S
C686 H677 0.929 . S
C686 C678 1.378 . S
C686 C681 1.350 . S
C687 H674 0.929 . S
C687 C679 1.433 . S
C687 N689 1.384 . S
N688 C684 1.427 . S
N688 C685 1.384 . S
N689 C681 1.427 . S
N689 C687 1.384 . S
H690 C696 0.930 . S
H691 C700 0.930 . S
H692 C705 0.929 . S
H693 C703 0.929 . S
H694 C698 0.929 . S
H695 C704 0.929 . S
C696 H690 0.930 . S
C696 C697 1.367 . S
C696 C704 1.378 . S
C697 C696 1.367 . S
C697 C705 1.433 . S
C698 H694 0.929 . S
C698 C700 1.378 . S
C698 C702 1.350 . S
C699 C702 1.463 . S
C699 C704 1.350 . S
C699 N707 1.427 . S
C700 H691 0.930 . S
C700 C698 1.378 . S
C700 C701 1.367 . S
C701 C700 1.367 . S
C701 C703 1.433 . S
C702 C698 1.350 . S
C702 C699 1.463 . S
C702 N706 1.427 . S
C703 H693 0.929 . S
C703 C701 1.433 . S
C703 N706 1.384 . S
C704 H695 0.929 . S
C704 C696 1.378 . S
C704 C699 1.350 . S
C705 H692 0.929 . S
C705 C697 1.433 . S
C705 N707 1.384 . S
N706 C702 1.427 . S
N706 C703 1.384 . S
N707 C699 1.427 . S
N707 C705 1.384 . S
H708 C714 0.930 . S
H709 C718 0.930 . S
H710 C723 0.929 . S
H711 C721 0.929 . S
H712 C716 0.929 . S
H713 C722 0.929 . S
C714 H708 0.930 . S
C714 C715 1.367 . S
C714 C722 1.378 . S
C715 C714 1.367 . S
C715 C723 1.433 . S
C716 H712 0.929 . S
C716 C718 1.378 . S
C716 C720 1.350 . S
C717 C720 1.463 . S
C717 C722 1.350 . S
C717 N725 1.427 . S
C718 H709 0.930 . S
C718 C716 1.378 . S
C718 C719 1.367 . S
C719 C718 1.367 . S
C719 C721 1.433 . S
C720 C716 1.350 . S
C720 C717 1.463 . S
C720 N724 1.427 . S
C721 H711 0.929 . S
C721 C719 1.433 . S
C721 N724 1.384 . S
C722 H713 0.929 . S
C722 C714 1.378 . S
C722 C717 1.350 . S
C723 H710 0.929 . S
C723 C715 1.433 . S
C723 N725 1.384 . S
N724 C720 1.427 . S
N724 C721 1.384 . S
N725 C717 1.427 . S
N725 C723 1.384 . S
H726 C732 0.930 . S
H727 C736 0.930 . S
H728 C741 0.929 . S
H729 C739 0.929 . S
H730 C734 0.929 . S
H731 C740 0.929 . S
C732 H726 0.930 . S
C732 C733 1.367 . S
C732 C740 1.378 . S
C733 C732 1.367 . S
C733 C741 1.433 . S
C734 H730 0.929 . S
C734 C736 1.378 . S
C734 C738 1.350 . S
C735 C738 1.463 . S
C735 C740 1.350 . S
C735 N743 1.427 . S
C736 H727 0.930 . S
C736 C734 1.378 . S
C736 C737 1.367 . S
C737 C736 1.367 . S
C737 C739 1.433 . S
C738 C734 1.350 . S
C738 C735 1.463 . S
C738 N742 1.427 . S
C739 H729 0.929 . S
C739 C737 1.433 . S
C739 N742 1.384 . S
C740 H731 0.929 . S
C740 C732 1.378 . S
C740 C735 1.350 . S
C741 H728 0.929 . S
C741 C733 1.433 . S
C741 N743 1.384 . S
N742 C738 1.427 . S
N742 C739 1.384 . S
N743 C735 1.427 . S
N743 C741 1.384 . S
H744 C750 0.930 . S
H745 C754 0.930 . S
H746 C759 0.929 . S
H747 C757 0.929 . S
H748 C752 0.929 . S
H749 C758 0.929 . S
C750 H744 0.930 . S
C750 C751 1.367 . S
C750 C758 1.378 . S
C751 C750 1.367 . S
C751 C759 1.433 . S
C752 H748 0.929 . S
C752 C754 1.378 . S
C752 C756 1.350 . S
C753 C756 1.463 . S
C753 C758 1.350 . S
C753 N761 1.427 . S
C754 H745 0.930 . S
C754 C752 1.378 . S
C754 C755 1.367 . S
C755 C754 1.367 . S
C755 C757 1.433 . S
C756 C752 1.350 . S
C756 C753 1.463 . S
C756 N760 1.427 . S
C757 H747 0.929 . S
C757 C755 1.433 . S
C757 N760 1.384 . S
C758 H749 0.929 . S
C758 C750 1.378 . S
C758 C753 1.350 . S
C759 H746 0.929 . S
C759 C751 1.433 . S
C759 N761 1.384 . S
N760 C756 1.427 . S
N760 C757 1.384 . S
N761 C753 1.427 . S
N761 C759 1.384 . S
H762 C768 0.930 . S
H763 C772 0.930 . S
H764 C777 0.929 . S
H765 C775 0.929 . S
H766 C770 0.929 . S
H767 C776 0.929 . S
C768 H762 0.930 . S
C768 C769 1.367 . S
C768 C776 1.378 . S
C769 C768 1.367 . S
C769 C777 1.433 . S
C770 H766 0.929 . S
C770 C772 1.378 . S
C770 C774 1.350 . S
C771 C774 1.463 . S
C771 C776 1.350 . S
C771 N779 1.427 . S
C772 H763 0.930 . S
C772 C770 1.378 . S
C772 C773 1.367 . S
C773 C772 1.367 . S
C773 C775 1.433 . S
C774 C770 1.350 . S
C774 C771 1.463 . S
C774 N778 1.427 . S
C775 H765 0.929 . S
C775 C773 1.433 . S
C775 N778 1.384 . S
C776 H767 0.929 . S
C776 C768 1.378 . S
C776 C771 1.350 . S
C777 H764 0.929 . S
C777 C769 1.433 . S
C777 N779 1.384 . S
N778 C774 1.427 . S
N778 C775 1.384 . S
N779 C771 1.427 . S
N779 C777 1.384 . S
H780 C786 0.930 . S
H781 C790 0.930 . S
H782 C795 0.929 . S
H783 C793 0.929 . S
H784 C788 0.929 . S
H785 C794 0.929 . S
C786 H780 0.930 . S
C786 C787 1.367 . S
C786 C794 1.378 . S
C787 C786 1.367 . S
C787 C795 1.433 . S
C788 H784 0.929 . S
C788 C790 1.378 . S
C788 C792 1.350 . S
C789 C792 1.463 . S
C789 C794 1.350 . S
C789 N797 1.427 . S
C790 H781 0.930 . S
C790 C788 1.378 . S
C790 C791 1.367 . S
C791 C790 1.367 . S
C791 C793 1.433 . S
C792 C788 1.350 . S
C792 C789 1.463 . S
C792 N796 1.427 . S
C793 H783 0.929 . S
C793 C791 1.433 . S
C793 N796 1.384 . S
C794 H785 0.929 . S
C794 C786 1.378 . S
C794 C789 1.350 . S
C795 H782 0.929 . S
C795 C787 1.433 . S
C795 N797 1.384 . S
N796 C792 1.427 . S
N796 C793 1.384 . S
N797 C789 1.427 . S
N797 C795 1.384 . S
H798 C804 0.930 . S
H799 C808 0.930 . S
H800 C813 0.929 . S
H801 C811 0.929 . S
H802 C806 0.929 . S
H803 C812 0.929 . S
C804 H798 0.930 . S
C804 C805 1.367 . S
C804 C812 1.378 . S
C805 C804 1.367 . S
C805 C813 1.433 . S
C806 H802 0.929 . S
C806 C808 1.378 . S
C806 C810 1.350 . S
C807 C810 1.463 . S
C807 C812 1.350 . S
C807 N815 1.427 . S
C808 H799 0.930 . S
C808 C806 1.378 . S
C808 C809 1.367 . S
C809 C808 1.367 . S
C809 C811 1.433 . S
C810 C806 1.350 . S
C810 C807 1.463 . S
C810 N814 1.427 . S
C811 H801 0.929 . S
C811 C809 1.433 . S
C811 N814 1.384 . S
C812 H803 0.929 . S
C812 C804 1.378 . S
C812 C807 1.350 . S
C813 H800 0.929 . S
C813 C805 1.433 . S
C813 N815 1.384 . S
N814 C810 1.427 . S
N814 C811 1.384 . S
N815 C807 1.427 . S
N815 C813 1.384 . S
H816 C822 0.930 . S
H817 C826 0.930 . S
H818 C831 0.929 . S
H819 C829 0.929 . S
H820 C824 0.929 . S
H821 C830 0.929 . S
C822 H816 0.930 . S
C822 C823 1.367 . S
C822 C830 1.378 . S
C823 C822 1.367 . S
C823 C831 1.433 . S
C824 H820 0.929 . S
C824 C826 1.378 . S
C824 C828 1.350 . S
C825 C828 1.463 . S
C825 C830 1.350 . S
C825 N833 1.427 . S
C826 H817 0.930 . S
C826 C824 1.378 . S
C826 C827 1.367 . S
C827 C826 1.367 . S
C827 C829 1.433 . S
C828 C824 1.350 . S
C828 C825 1.463 . S
C828 N832 1.427 . S
C829 H819 0.929 . S
C829 C827 1.433 . S
C829 N832 1.384 . S
C830 H821 0.929 . S
C830 C822 1.378 . S
C830 C825 1.350 . S
C831 H818 0.929 . S
C831 C823 1.433 . S
C831 N833 1.384 . S
N832 C828 1.427 . S
N832 C829 1.384 . S
N833 C825 1.427 . S
N833 C831 1.384 . S
H834 C840 0.930 . S
H835 C844 0.930 . S
H836 C849 0.929 . S
H837 C847 0.929 . S
H838 C842 0.929 . S
H839 C848 0.929 . S
C840 H834 0.930 . S
C840 C841 1.367 . S
C840 C848 1.378 . S
C841 C840 1.367 . S
C841 C849 1.433 . S
C842 H838 0.929 . S
C842 C844 1.378 . S
C842 C846 1.350 . S
C843 C846 1.463 . S
C843 C848 1.350 . S
C843 N851 1.427 . S
C844 H835 0.930 . S
C844 C842 1.378 . S
C844 C845 1.367 . S
C845 C844 1.367 . S
C845 C847 1.433 . S
C846 C842 1.350 . S
C846 C843 1.463 . S
C846 N850 1.427 . S
C847 H837 0.929 . S
C847 C845 1.433 . S
C847 N850 1.384 . S
C848 H839 0.929 . S
C848 C840 1.378 . S
C848 C843 1.350 . S
C849 H836 0.929 . S
C849 C841 1.433 . S
C849 N851 1.384 . S
N850 C846 1.427 . S
N850 C847 1.384 . S
N851 C843 1.427 . S
N851 C849 1.384 . S
H852 C858 0.930 . S
H853 C862 0.930 . S
H854 C867 0.929 . S
H855 C865 0.929 . S
H856 C860 0.929 . S
H857 C866 0.929 . S
C858 H852 0.930 . S
C858 C859 1.367 . S
C858 C866 1.378 . S
C859 C858 1.367 . S
C859 C867 1.433 . S
C860 H856 0.929 . S
C860 C862 1.378 . S
C860 C864 1.350 . S
C861 C864 1.463 . S
C861 C866 1.350 . S
C861 N869 1.427 . S
C862 H853 0.930 . S
C862 C860 1.378 . S
C862 C863 1.367 . S
C863 C862 1.367 . S
C863 C865 1.433 . S
C864 C860 1.350 . S
C864 C861 1.463 . S
C864 N868 1.427 . S
C865 H855 0.929 . S
C865 C863 1.433 . S
C865 N868 1.384 . S
C866 H857 0.929 . S
C866 C858 1.378 . S
C866 C861 1.350 . S
C867 H854 0.929 . S
C867 C859 1.433 . S
C867 N869 1.384 . S
N868 C864 1.427 . S
N868 C865 1.384 . S
N869 C861 1.427 . S
N869 C867 1.384 . S
H870 C876 0.930 . S
H871 C880 0.930 . S
H872 C885 0.929 . S
H873 C883 0.929 . S
H874 C878 0.929 . S
H875 C884 0.929 . S
C876 H870 0.930 . S
C876 C877 1.367 . S
C876 C884 1.378 . S
C877 C876 1.367 . S
C877 C885 1.433 . S
C878 H874 0.929 . S
C878 C880 1.378 . S
C878 C882 1.350 . S
C879 C882 1.463 . S
C879 C884 1.350 . S
C879 N887 1.427 . S
C880 H871 0.930 . S
C880 C878 1.378 . S
C880 C881 1.367 . S
C881 C880 1.367 . S
C881 C883 1.433 . S
C882 C878 1.350 . S
C882 C879 1.463 . S
C882 N886 1.427 . S
C883 H873 0.929 . S
C883 C881 1.433 . S
C883 N886 1.384 . S
C884 H875 0.929 . S
C884 C876 1.378 . S
C884 C879 1.350 . S
C885 H872 0.929 . S
C885 C877 1.433 . S
C885 N887 1.384 . S
N886 C882 1.427 . S
N886 C883 1.384 . S
N887 C879 1.427 . S
N887 C885 1.384 . S
H888 C894 0.930 . S
H889 C898 0.930 . S
H890 C903 0.929 . S
H891 C901 0.929 . S
H892 C896 0.929 . S
H893 C902 0.929 . S
C894 H888 0.930 . S
C894 C895 1.367 . S
C894 C902 1.378 . S
C895 C894 1.367 . S
C895 C903 1.433 . S
C896 H892 0.929 . S
C896 C898 1.378 . S
C896 C900 1.350 . S
C897 C900 1.463 . S
C897 C902 1.350 . S
C897 N905 1.427 . S
C898 H889 0.930 . S
C898 C896 1.378 . S
C898 C899 1.367 . S
C899 C898 1.367 . S
C899 C901 1.433 . S
C900 C896 1.350 . S
C900 C897 1.463 . S
C900 N904 1.427 . S
C901 H891 0.929 . S
C901 C899 1.433 . S
C901 N904 1.384 . S
C902 H893 0.929 . S
C902 C894 1.378 . S
C902 C897 1.350 . S
C903 H890 0.929 . S
C903 C895 1.433 . S
C903 N905 1.384 . S
N904 C900 1.427 . S
N904 C901 1.384 . S
N905 C897 1.427 . S
N905 C903 1.384 . S
H906 C912 0.930 . S
H907 C916 0.930 . S
H908 C921 0.929 . S
H909 C919 0.929 . S
H910 C914 0.929 . S
H911 C920 0.929 . S
C912 H906 0.930 . S
C912 C913 1.367 . S
C912 C920 1.378 . S
C913 C912 1.367 . S
C913 C921 1.433 . S
C914 H910 0.929 . S
C914 C916 1.378 . S
C914 C918 1.350 . S
C915 C918 1.463 . S
C915 C920 1.350 . S
C915 N923 1.427 . S
C916 H907 0.930 . S
C916 C914 1.378 . S
C916 C917 1.367 . S
C917 C916 1.367 . S
C917 C919 1.433 . S
C918 C914 1.350 . S
C918 C915 1.463 . S
C918 N922 1.427 . S
C919 H909 0.929 . S
C919 C917 1.433 . S
C919 N922 1.384 . S
C920 H911 0.929 . S
C920 C912 1.378 . S
C920 C915 1.350 . S
C921 H908 0.929 . S
C921 C913 1.433 . S
C921 N923 1.384 . S
N922 C918 1.427 . S
N922 C919 1.384 . S
N923 C915 1.427 . S
N923 C921 1.384 . S
H924 C930 0.930 . S
H925 C934 0.930 . S
H926 C939 0.929 . S
H927 C937 0.929 . S
H928 C932 0.929 . S
H929 C938 0.929 . S
C930 H924 0.930 . S
C930 C931 1.367 . S
C930 C938 1.378 . S
C931 C930 1.367 . S
C931 C939 1.433 . S
C932 H928 0.929 . S
C932 C934 1.378 . S
C932 C936 1.350 . S
C933 C936 1.463 . S
C933 C938 1.350 . S
C933 N941 1.427 . S
C934 H925 0.930 . S
C934 C932 1.378 . S
C934 C935 1.367 . S
C935 C934 1.367 . S
C935 C937 1.433 . S
C936 C932 1.350 . S
C936 C933 1.463 . S
C936 N940 1.427 . S
C937 H927 0.929 . S
C937 C935 1.433 . S
C937 N940 1.384 . S
C938 H929 0.929 . S
C938 C930 1.378 . S
C938 C933 1.350 . S
C939 H926 0.929 . S
C939 C931 1.433 . S
C939 N941 1.384 . S
N940 C936 1.427 . S
N940 C937 1.384 . S
N941 C933 1.427 . S
N941 C939 1.384 . S
H942 C948 0.930 . S
H943 C952 0.930 . S
H944 C957 0.929 . S
H945 C955 0.929 . S
H946 C950 0.929 . S
H947 C956 0.929 . S
C948 H942 0.930 . S
C948 C949 1.367 . S
C948 C956 1.378 . S
C949 C948 1.367 . S
C949 C957 1.433 . S
C950 H946 0.929 . S
C950 C952 1.378 . S
C950 C954 1.350 . S
C951 C954 1.463 . S
C951 C956 1.350 . S
C951 N959 1.427 . S
C952 H943 0.930 . S
C952 C950 1.378 . S
C952 C953 1.367 . S
C953 C952 1.367 . S
C953 C955 1.433 . S
C954 C950 1.350 . S
C954 C951 1.463 . S
C954 N958 1.427 . S
C955 H945 0.929 . S
C955 C953 1.433 . S
C955 N958 1.384 . S
C956 H947 0.929 . S
C956 C948 1.378 . S
C956 C951 1.350 . S
C957 H944 0.929 . S
C957 C949 1.433 . S
C957 N959 1.384 . S
N958 C954 1.427 . S
N958 C955 1.384 . S
N959 C951 1.427 . S
N959 C957 1.384 . S
H960 C966 0.930 . S
H961 C970 0.930 . S
H962 C975 0.929 . S
H963 C973 0.929 . S
H964 C968 0.929 . S
H965 C974 0.929 . S
C966 H960 0.930 . S
C966 C967 1.367 . S
C966 C974 1.378 . S
C967 C966 1.367 . S
C967 C975 1.433 . S
C968 H964 0.929 . S
C968 C970 1.378 . S
C968 C972 1.350 . S
C969 C972 1.463 . S
C969 C974 1.350 . S
C969 N977 1.427 . S
C970 H961 0.930 . S
C970 C968 1.378 . S
C970 C971 1.367 . S
C971 C970 1.367 . S
C971 C973 1.433 . S
C972 C968 1.350 . S
C972 C969 1.463 . S
C972 N976 1.427 . S
C973 H963 0.929 . S
C973 C971 1.433 . S
C973 N976 1.384 . S
C974 H965 0.929 . S
C974 C966 1.378 . S
C974 C969 1.350 . S
C975 H962 0.929 . S
C975 C967 1.433 . S
C975 N977 1.384 . S
N976 C972 1.427 . S
N976 C973 1.384 . S
N977 C969 1.427 . S
N977 C975 1.384 . S
H978 C984 0.930 . S
H979 C988 0.930 . S
H980 C993 0.929 . S
H981 C991 0.929 . S
H982 C986 0.929 . S
H983 C992 0.929 . S
C984 H978 0.930 . S
C984 C985 1.367 . S
C984 C992 1.378 . S
C985 C984 1.367 . S
C985 C993 1.433 . S
C986 H982 0.929 . S
C986 C988 1.378 . S
C986 C990 1.350 . S
C987 C990 1.463 . S
C987 C992 1.350 . S
C987 N995 1.427 . S
C988 H979 0.930 . S
C988 C986 1.378 . S
C988 C989 1.367 . S
C989 C988 1.367 . S
C989 C991 1.433 . S
C990 C986 1.350 . S
C990 C987 1.463 . S
C990 N994 1.427 . S
C991 H981 0.929 . S
C991 C989 1.433 . S
C991 N994 1.384 . S
C992 H983 0.929 . S
C992 C984 1.378 . S
C992 C987 1.350 . S
C993 H980 0.929 . S
C993 C985 1.433 . S
C993 N995 1.384 . S
N994 C990 1.427 . S
N994 C991 1.384 . S
N995 C987 1.427 . S
N995 C993 1.384 . S
H996 C1002 0.930 . S
H997 C1006 0.930 . S
H998 C1011 0.929 . S
H999 C1009 0.929 . S
H1000 C1004 0.929 . S
H1001 C1010 0.929 . S
C1002 H996 0.930 . S
C1002 C1003 1.367 . S
C1002 C1010 1.378 . S
C1003 C1002 1.367 . S
C1003 C1011 1.433 . S
C1004 H1000 0.929 . S
C1004 C1006 1.378 . S
C1004 C1008 1.350 . S
C1005 C1008 1.463 . S
C1005 C1010 1.350 . S
C1005 N1013 1.427 . S
C1006 H997 0.930 . S
C1006 C1004 1.378 . S
C1006 C1007 1.367 . S
C1007 C1006 1.367 . S
C1007 C1009 1.433 . S
C1008 C1004 1.350 . S
C1008 C1005 1.463 . S
C1008 N1012 1.427 . S
C1009 H999 0.929 . S
C1009 C1007 1.433 . S
C1009 N1012 1.384 . S
C1010 H1001 0.929 . S
C1010 C1002 1.378 . S
C1010 C1005 1.350 . S
C1011 H998 0.929 . S
C1011 C1003 1.433 . S
C1011 N1013 1.384 . S
N1012 C1008 1.427 . S
N1012 C1009 1.384 . S
N1013 C1005 1.427 . S
N1013 C1011 1.384 . S
H1014 C1020 0.930 . S
H1015 C1024 0.930 . S
H1016 C1029 0.929 . S
H1017 C1027 0.929 . S
H1018 C1022 0.929 . S
H1019 C1028 0.929 . S
C1020 H1014 0.930 . S
C1020 C1021 1.367 . S
C1020 C1028 1.378 . S
C1021 C1020 1.367 . S
C1021 C1029 1.433 . S
C1022 H1018 0.929 . S
C1022 C1024 1.378 . S
C1022 C1026 1.350 . S
C1023 C1026 1.463 . S
C1023 C1028 1.350 . S
C1023 N1031 1.427 . S
C1024 H1015 0.930 . S
C1024 C1022 1.378 . S
C1024 C1025 1.367 . S
C1025 C1024 1.367 . S
C1025 C1027 1.433 . S
C1026 C1022 1.350 . S
C1026 C1023 1.463 . S
C1026 N1030 1.427 . S
C1027 H1017 0.929 . S
C1027 C1025 1.433 . S
C1027 N1030 1.384 . S
C1028 H1019 0.929 . S
C1028 C1020 1.378 . S
C1028 C1023 1.350 . S
C1029 H1016 0.929 . S
C1029 C1021 1.433 . S
C1029 N1031 1.384 . S
N1030 C1026 1.427 . S
N1030 C1027 1.384 . S
N1031 C1023 1.427 . S
N1031 C1029 1.384 . S
H1032 C1038 0.930 . S
H1033 C1042 0.930 . S
H1034 C1047 0.929 . S
H1035 C1045 0.929 . S
H1036 C1040 0.929 . S
H1037 C1046 0.929 . S
C1038 H1032 0.930 . S
C1038 C1039 1.367 . S
C1038 C1046 1.378 . S
C1039 C1038 1.367 . S
C1039 C1047 1.433 . S
C1040 H1036 0.929 . S
C1040 C1042 1.378 . S
C1040 C1044 1.350 . S
C1041 C1044 1.463 . S
C1041 C1046 1.350 . S
C1041 N1049 1.427 . S
C1042 H1033 0.930 . S
C1042 C1040 1.378 . S
C1042 C1043 1.367 . S
C1043 C1042 1.367 . S
C1043 C1045 1.433 . S
C1044 C1040 1.350 . S
C1044 C1041 1.463 . S
C1044 N1048 1.427 . S
C1045 H1035 0.929 . S
C1045 C1043 1.433 . S
C1045 N1048 1.384 . S
C1046 H1037 0.929 . S
C1046 C1038 1.378 . S
C1046 C1041 1.350 . S
C1047 H1034 0.929 . S
C1047 C1039 1.433 . S
C1047 N1049 1.384 . S
N1048 C1044 1.427 . S
N1048 C1045 1.384 . S
N1049 C1041 1.427 . S
N1049 C1047 1.384 . S
H1050 C1056 0.930 . S
H1051 C1060 0.930 . S
H1052 C1065 0.929 . S
H1053 C1063 0.929 . S
H1054 C1058 0.929 . S
H1055 C1064 0.929 . S
C1056 H1050 0.930 . S
C1056 C1057 1.367 . S
C1056 C1064 1.378 . S
C1057 C1056 1.367 . S
C1057 C1065 1.433 . S
C1058 H1054 0.929 . S
C1058 C1060 1.378 . S
C1058 C1062 1.350 . S
C1059 C1062 1.463 . S
C1059 C1064 1.350 . S
C1059 N1067 1.427 . S
C1060 H1051 0.930 . S
C1060 C1058 1.378 . S
C1060 C1061 1.367 . S
C1061 C1060 1.367 . S
C1061 C1063 1.433 . S
C1062 C1058 1.350 . S
C1062 C1059 1.463 . S
C1062 N1066 1.427 . S
C1063 H1053 0.929 . S
C1063 C1061 1.433 . S
C1063 N1066 1.384 . S
C1064 H1055 0.929 . S
C1064 C1056 1.378 . S
C1064 C1059 1.350 . S
C1065 H1052 0.929 . S
C1065 C1057 1.433 . S
C1065 N1067 1.384 . S
N1066 C1062 1.427 . S
N1066 C1063 1.384 . S
N1067 C1059 1.427 . S
N1067 C1065 1.384 . S
H1068 C1074 0.930 . S
H1069 C1078 0.930 . S
H1070 C1083 0.929 . S
H1071 C1081 0.929 . S
H1072 C1076 0.929 . S
H1073 C1082 0.929 . S
C1074 H1068 0.930 . S
C1074 C1075 1.367 . S
C1074 C1082 1.378 . S
C1075 C1074 1.367 . S
C1075 C1083 1.433 . S
C1076 H1072 0.929 . S
C1076 C1078 1.378 . S
C1076 C1080 1.350 . S
C1077 C1080 1.463 . S
C1077 C1082 1.350 . S
C1077 N1085 1.427 . S
C1078 H1069 0.930 . S
C1078 C1076 1.378 . S
C1078 C1079 1.367 . S
C1079 C1078 1.367 . S
C1079 C1081 1.433 . S
C1080 C1076 1.350 . S
C1080 C1077 1.463 . S
C1080 N1084 1.427 . S
C1081 H1071 0.929 . S
C1081 C1079 1.433 . S
C1081 N1084 1.384 . S
C1082 H1073 0.929 . S
C1082 C1074 1.378 . S
C1082 C1077 1.350 . S
C1083 H1070 0.929 . S
C1083 C1075 1.433 . S
C1083 N1085 1.384 . S
N1084 C1080 1.427 . S
N1084 C1081 1.384 . S
N1085 C1077 1.427 . S
N1085 C1083 1.384 . S
H1086 C1092 0.930 . S
H1087 C1096 0.930 . S
H1088 C1101 0.929 . S
H1089 C1099 0.929 . S
H1090 C1094 0.929 . S
H1091 C1100 0.929 . S
C1092 H1086 0.930 . S
C1092 C1093 1.367 . S
C1092 C1100 1.378 . S
C1093 C1092 1.367 . S
C1093 C1101 1.433 . S
C1094 H1090 0.929 . S
C1094 C1096 1.378 . S
C1094 C1098 1.350 . S
C1095 C1098 1.463 . S
C1095 C1100 1.350 . S
C1095 N1103 1.427 . S
C1096 H1087 0.930 . S
C1096 C1094 1.378 . S
C1096 C1097 1.367 . S
C1097 C1096 1.367 . S
C1097 C1099 1.433 . S
C1098 C1094 1.350 . S
C1098 C1095 1.463 . S
C1098 N1102 1.427 . S
C1099 H1089 0.929 . S
C1099 C1097 1.433 . S
C1099 N1102 1.384 . S
C1100 H1091 0.929 . S
C1100 C1092 1.378 . S
C1100 C1095 1.350 . S
C1101 H1088 0.929 . S
C1101 C1093 1.433 . S
C1101 N1103 1.384 . S
N1102 C1098 1.427 . S
N1102 C1099 1.384 . S
N1103 C1095 1.427 . S
N1103 C1101 1.384 . S
H1104 C1110 0.930 . S
H1105 C1114 0.930 . S
H1106 C1119 0.929 . S
H1107 C1117 0.929 . S
H1108 C1112 0.929 . S
H1109 C1118 0.929 . S
C1110 H1104 0.930 . S
C1110 C1111 1.367 1_655 S
C1110 C1118 1.378 . S
C1111 C1110 1.367 1_455 S
C1111 C1119 1.433 . S
C1112 H1108 0.929 . S
C1112 C1114 1.378 . S
C1112 C1116 1.345 1_455 S
C1113 C1116 1.462 1_455 S
C1113 C1118 1.345 1_455 S
C1113 N1121 1.433 . S
C1114 H1105 0.930 . S
C1114 C1112 1.378 . S
C1114 C1115 1.367 1_455 S
C1115 C1114 1.367 1_655 S
C1115 C1117 1.433 . S
C1116 C1112 1.345 1_655 S
C1116 C1113 1.462 1_655 S
C1116 N1120 1.433 . S
C1117 H1107 0.929 . S
C1117 C1115 1.433 . S
C1117 N1120 1.384 . S
C1118 H1109 0.929 . S
C1118 C1110 1.378 . S
C1118 C1113 1.345 1_655 S
C1119 H1106 0.929 . S
C1119 C1111 1.433 . S
C1119 N1121 1.384 . S
N1120 C1116 1.433 . S
N1120 C1117 1.384 . S
N1121 C1113 1.433 . S
N1121 C1119 1.384 . S
H1122 C1128 0.930 . S
H1123 C1132 0.930 . S
H1124 C1137 0.929 . S
H1125 C1135 0.929 . S
H1126 C1130 0.929 . S
H1127 C1136 0.929 . S
C1128 H1122 0.930 . S
C1128 C1129 1.367 1_545 S
C1128 C1136 1.378 . S
C1129 C1128 1.367 1_565 S
C1129 C1137 1.433 . S
C1130 H1126 0.929 . S
C1130 C1132 1.378 . S
C1130 C1134 1.350 1_565 S
C1131 C1134 1.463 1_565 S
C1131 C1136 1.350 1_565 S
C1131 N1139 1.427 . S
C1132 H1123 0.930 . S
C1132 C1130 1.378 . S
C1132 C1133 1.367 1_565 S
C1133 C1132 1.367 1_545 S
C1133 C1135 1.433 . S
C1134 C1130 1.350 1_545 S
C1134 C1131 1.463 1_545 S
C1134 N1138 1.427 . S
C1135 H1125 0.929 . S
C1135 C1133 1.433 . S
C1135 N1138 1.384 . S
C1136 H1127 0.929 . S
C1136 C1128 1.378 . S
C1136 C1131 1.350 1_545 S
C1137 H1124 0.929 . S
C1137 C1129 1.433 . S
C1137 N1139 1.384 . S
N1138 C1134 1.427 . S
N1138 C1135 1.384 . S
N1139 C1131 1.427 . S
N1139 C1137 1.384 . S
H1140 C1146 0.930 . S
H1141 C1150 0.930 . S
H1142 C1155 0.929 . S
H1143 C1153 0.929 . S
H1144 C1148 0.929 . S
H1145 C1154 0.929 . S
C1146 H1140 0.930 . S
C1146 C1147 1.367 . S
C1146 C1154 1.378 . S
C1147 C1146 1.367 . S
C1147 C1155 1.433 1_455 S
C1148 H1144 0.929 . S
C1148 C1150 1.378 . S
C1148 C1152 1.350 . S
C1149 C1152 1.463 1_455 S
C1149 C1154 1.350 . S
C1149 N1157 1.427 1_455 S
C1150 H1141 0.930 . S
C1150 C1148 1.378 . S
C1150 C1151 1.367 . S
C1151 C1150 1.367 . S
C1151 C1153 1.433 1_655 S
C1152 C1148 1.350 . S
C1152 C1149 1.463 1_655 S
C1152 N1156 1.427 1_655 S
C1153 H1143 0.929 . S
C1153 C1151 1.433 1_455 S
C1153 N1156 1.384 . S
C1154 H1145 0.929 . S
C1154 C1146 1.378 . S
C1154 C1149 1.350 . S
C1155 H1142 0.929 . S
C1155 C1147 1.433 1_655 S
C1155 N1157 1.384 . S
N1156 C1152 1.427 1_455 S
N1156 C1153 1.384 . S
N1157 C1149 1.427 1_655 S
N1157 C1155 1.384 . S
H1158 C1164 0.930 . S
H1159 C1168 0.930 . S
H1160 C1173 0.929 . S
H1161 C1171 0.929 . S
H1162 C1166 0.929 . S
H1163 C1172 0.929 . S
C1164 H1158 0.930 . S
C1164 C1165 1.367 1_565 S
C1164 C1172 1.378 . S
C1165 C1164 1.367 1_545 S
C1165 C1173 1.433 . S
C1166 H1162 0.929 . S
C1166 C1168 1.378 . S
C1166 C1170 1.350 1_545 S
C1167 C1170 1.463 1_545 S
C1167 C1172 1.350 1_545 S
C1167 N1175 1.427 . S
C1168 H1159 0.930 . S
C1168 C1166 1.378 . S
C1168 C1169 1.367 1_545 S
C1169 C1168 1.367 1_565 S
C1169 C1171 1.433 . S
C1170 C1166 1.350 1_565 S
C1170 C1167 1.463 1_565 S
C1170 N1174 1.427 . S
C1171 H1161 0.929 . S
C1171 C1169 1.433 . S
C1171 N1174 1.384 . S
C1172 H1163 0.929 . S
C1172 C1164 1.378 . S
C1172 C1167 1.350 1_565 S
C1173 H1160 0.929 . S
C1173 C1165 1.433 . S
C1173 N1175 1.384 . S
N1174 C1170 1.427 . S
N1174 C1171 1.384 . S
N1175 C1167 1.427 . S
N1175 C1173 1.384 . S
H1176 C1182 0.930 . S
H1177 C1186 0.930 . S
H1178 C1191 0.929 . S
H1179 C1189 0.929 . S
H1180 C1184 0.929 . S
H1181 C1190 0.929 . S
C1182 H1176 0.930 . S
C1182 C1183 1.367 . S
C1182 C1190 1.378 . S
C1183 C1182 1.367 . S
C1183 C1191 1.433 . S
C1184 H1180 0.929 . S
C1184 C1186 1.378 . S
C1184 C1188 1.350 . S
C1185 C1188 1.463 1_556 S
C1185 C1190 1.350 . S
C1185 N1193 1.427 . S
C1186 H1177 0.930 . S
C1186 C1184 1.378 . S
C1186 C1187 1.367 . S
C1187 C1186 1.367 . S
C1187 C1189 1.433 . S
C1188 C1184 1.350 . S
C1188 C1185 1.463 1_554 S
C1188 N1192 1.427 . S
C1189 H1179 0.929 . S
C1189 C1187 1.433 . S
C1189 N1192 1.384 . S
C1190 H1181 0.929 . S
C1190 C1182 1.378 . S
C1190 C1185 1.350 . S
C1191 H1178 0.929 . S
C1191 C1183 1.433 . S
C1191 N1193 1.384 . S
N1192 C1188 1.427 . S
N1192 C1189 1.384 . S
N1193 C1185 1.427 . S
N1193 C1191 1.384 . S
H1194 C1200 0.930 . S
H1195 C1204 0.930 . S
H1196 C1209 0.929 . S
H1197 C1207 0.929 . S
H1198 C1202 0.929 . S
H1199 C1208 0.929 . S
C1200 H1194 0.930 . S
C1200 C1201 1.367 . S
C1200 C1208 1.378 . S
C1201 C1200 1.367 . S
C1201 C1209 1.433 . S
C1202 H1198 0.929 . S
C1202 C1204 1.378 . S
C1202 C1206 1.350 . S
C1203 C1206 1.463 1_554 S
C1203 C1208 1.350 . S
C1203 N1211 1.427 . S
C1204 H1195 0.930 . S
C1204 C1202 1.378 . S
C1204 C1205 1.367 . S
C1205 C1204 1.367 . S
C1205 C1207 1.433 . S
C1206 C1202 1.350 . S
C1206 C1203 1.463 1_556 S
C1206 N1210 1.427 . S
C1207 H1197 0.929 . S
C1207 C1205 1.433 . S
C1207 N1210 1.384 . S
C1208 H1199 0.929 . S
C1208 C1200 1.378 . S
C1208 C1203 1.350 . S
C1209 H1196 0.929 . S
C1209 C1201 1.433 . S
C1209 N1211 1.384 . S
N1210 C1206 1.427 . S
N1210 C1207 1.384 . S
N1211 C1203 1.427 . S
N1211 C1209 1.384 . S
H1212 C1218 0.930 . S
H1213 C1222 0.930 . S
H1214 C1227 0.929 . S
H1215 C1225 0.929 . S
H1216 C1220 0.929 . S
H1217 C1226 0.929 . S
C1218 H1212 0.930 . S
C1218 C1219 1.367 . S
C1218 C1226 1.378 . S
C1219 C1218 1.367 . S
C1219 C1227 1.433 . S
C1220 H1216 0.929 . S
C1220 C1222 1.378 . S
C1220 C1224 1.350 . S
C1221 C1224 1.463 1_554 S
C1221 C1226 1.350 . S
C1221 N1229 1.427 . S
C1222 H1213 0.930 . S
C1222 C1220 1.378 . S
C1222 C1223 1.367 . S
C1223 C1222 1.367 . S
C1223 C1225 1.433 . S
C1224 C1220 1.350 . S
C1224 C1221 1.463 1_556 S
C1224 N1228 1.427 . S
C1225 H1215 0.929 . S
C1225 C1223 1.433 . S
C1225 N1228 1.384 . S
C1226 H1217 0.929 . S
C1226 C1218 1.378 . S
C1226 C1221 1.350 . S
C1227 H1214 0.929 . S
C1227 C1219 1.433 . S
C1227 N1229 1.384 . S
N1228 C1224 1.427 . S
N1228 C1225 1.384 . S
N1229 C1221 1.427 . S
N1229 C1227 1.384 . S
H1230 C1236 0.930 . S
H1231 C1240 0.930 . S
H1232 C1245 0.929 . S
H1233 C1243 0.929 . S
H1234 C1238 0.929 . S
H1235 C1244 0.929 . S
C1236 H1230 0.930 . S
C1236 C1237 1.367 . S
C1236 C1244 1.378 . S
C1237 C1236 1.367 . S
C1237 C1245 1.433 . S
C1238 H1234 0.929 . S
C1238 C1240 1.378 . S
C1238 C1242 1.350 . S
C1239 C1242 1.463 1_556 S
C1239 C1244 1.350 . S
C1239 N1247 1.427 . S
C1240 H1231 0.930 . S
C1240 C1238 1.378 . S
C1240 C1241 1.367 . S
C1241 C1240 1.367 . S
C1241 C1243 1.433 . S
C1242 C1238 1.350 . S
C1242 C1239 1.463 1_554 S
C1242 N1246 1.427 . S
C1243 H1233 0.929 . S
C1243 C1241 1.433 . S
C1243 N1246 1.384 . S
C1244 H1235 0.929 . S
C1244 C1236 1.378 . S
C1244 C1239 1.350 . S
C1245 H1232 0.929 . S
C1245 C1237 1.433 . S
C1245 N1247 1.384 . S
N1246 C1242 1.427 . S
N1246 C1243 1.384 . S
N1247 C1239 1.427 . S
N1247 C1245 1.384 . S
C535 C94 0.862 . S
C539 C28 0.864 . S
C553 C61 0.852 . S
C557 C127 0.855 . S
C571 C226 0.859 . S
C575 C160 0.857 . S
C589 C259 0.862 . S
C593 C193 0.859 . S
C607 C292 0.856 . S
C611 C358 0.854 . S
C625 C391 0.862 . S
C629 C325 0.864 . S
C643 C490 0.858 . S
C647 C424 0.861 . S
C661 C457 0.868 . S
C665 C523 0.866 . S
C679 N5 1.734 . S
C683 N500 1.734 . S
C697 N401 1.734 . S
C701 N38 1.734 . S
C715 N434 1.735 . S
C719 N71 1.733 . S
C733 N467 1.734 . S
C737 N104 1.733 . S
C751 N302 1.732 . S
C755 N137 1.735 . S
C769 N335 1.733 . S
C773 N170 1.735 . S
C787 N368 1.733 . S
C791 N203 1.734 . S
C805 N269 1.734 . S
C809 N236 1.735 . S
C823 C17 1.452 . S
C827 C107 1.488 . S
C841 C8 1.487 . S
C845 C50 1.450 . S
C859 C83 1.446 . S
C863 C41 1.491 . S
C877 C74 1.489 . S
C881 C116 1.453 . S
C895 C173 1.487 . S
C899 C149 1.445 . S
C913 C182 1.450 . S
C917 C206 1.487 . S
C931 C239 1.488 . S
C935 C215 1.453 . S
C949 C140 1.491 . S
C953 C248 1.447 . S
C967 C281 1.451 . S
C971 C371 1.490 . S
C985 C272 1.487 . S
C989 C314 1.444 . S
C1003 C347 1.441 . S
C1007 C305 1.490 . S
C1021 C380 1.445 . S
C1025 C338 1.487 . S
C1039 C413 1.453 . S
C1043 C437 1.489 . S
C1057 C470 1.487 . S
C1061 C446 1.446 . S
C1075 C503 1.491 . S
C1079 C479 1.447 . S
C1093 C512 1.452 . S
C1097 C404 1.488 . S
C1111 N14 1.547 . S
C1115 N212 1.555 . S
C1129 N245 1.555 . S
C1133 N47 1.550 . S
C1147 N146 1.550 . S
C1151 N80 1.541 . S
C1165 N179 1.555 . S
C1169 N113 1.551 . S
C1183 N278 1.544 . S
C1187 N476 1.539 . S
C1201 N509 1.555 . S
C1205 N311 1.549 . S
C1219 N410 1.547 . S
C1223 N344 1.555 . S
C1237 N377 1.555 . S
C1241 N443 1.552 . S
