# Generated by pormake.
# Topology unp, (4)-cn, num edge types: 1
# Building blocks:
#     Node 0, Type 0, BuildingBlock: NAHDIM_clean_sbu_0, # of connection points: 4
#     Node 1, Type 0, BuildingBlock: NAHDIM_clean_sbu_0, # of connection points: 4
#     Node 2, Type 0, BuildingBlock: NAHDIM_clean_sbu_0, # of connection points: 4
#     Node 3, Type 0, BuildingBlock: NAHDIM_clean_sbu_0, # of connection points: 4
#     Node 4, Type 0, BuildingBlock: NAHDIM_clean_sbu_0, # of connection points: 4
#     Node 5, Type 0, BuildingBlock: NAHDIM_clean_sbu_0, # of connection points: 4
#     Node 6, Type 0, BuildingBlock: NAHDIM_clean_sbu_0, # of connection points: 4
#     Node 7, Type 0, BuildingBlock: NAHDIM_clean_sbu_0, # of connection points: 4
#     Node 8, Type 0, BuildingBlock: NAHDIM_clean_sbu_0, # of connection points: 4
#     Node 9, Type 0, BuildingBlock: NAHDIM_clean_sbu_0, # of connection points: 4
#     Node 10, Type 0, BuildingBlock: NAHDIM_clean_sbu_0, # of connection points: 4
#     Node 11, Type 0, BuildingBlock: NAHDIM_clean_sbu_0, # of connection points: 4
#     Node 12, Type 0, BuildingBlock: NAHDIM_clean_sbu_0, # of connection points: 4
#     Node 13, Type 0, BuildingBlock: NAHDIM_clean_sbu_0, # of connection points: 4
#     Node 14, Type 0, BuildingBlock: NAHDIM_clean_sbu_0, # of connection points: 4
#     Node 15, Type 0, BuildingBlock: NAHDIM_clean_sbu_0, # of connection points: 4
#     Node 16, Type 0, BuildingBlock: NAHDIM_clean_sbu_0, # of connection points: 4
#     Node 17, Type 0, BuildingBlock: NAHDIM_clean_sbu_0, # of connection points: 4
#     Edge 18, Type (0, 0), BuildingBlock: KIFKEQ_clean_linker_1, # of connection points: 2
#     Edge 19, Type (0, 0), BuildingBlock: KIFKEQ_clean_linker_1, # of connection points: 2
#     Edge 20, Type (0, 0), BuildingBlock: KIFKEQ_clean_linker_1, # of connection points: 2
#     Edge 21, Type (0, 0), BuildingBlock: KIFKEQ_clean_linker_1, # of connection points: 2
#     Edge 22, Type (0, 0), BuildingBlock: KIFKEQ_clean_linker_1, # of connection points: 2
#     Edge 23, Type (0, 0), BuildingBlock: KIFKEQ_clean_linker_1, # of connection points: 2
#     Edge 24, Type (0, 0), BuildingBlock: KIFKEQ_clean_linker_1, # of connection points: 2
#     Edge 25, Type (0, 0), BuildingBlock: KIFKEQ_clean_linker_1, # of connection points: 2
#     Edge 26, Type (0, 0), BuildingBlock: KIFKEQ_clean_linker_1, # of connection points: 2
#     Edge 27, Type (0, 0), BuildingBlock: KIFKEQ_clean_linker_1, # of connection points: 2
#     Edge 28, Type (0, 0), BuildingBlock: KIFKEQ_clean_linker_1, # of connection points: 2
#     Edge 29, Type (0, 0), BuildingBlock: KIFKEQ_clean_linker_1, # of connection points: 2
#     Edge 30, Type (0, 0), BuildingBlock: KIFKEQ_clean_linker_1, # of connection points: 2
#     Edge 31, Type (0, 0), BuildingBlock: KIFKEQ_clean_linker_1, # of connection points: 2
#     Edge 32, Type (0, 0), BuildingBlock: KIFKEQ_clean_linker_1, # of connection points: 2
#     Edge 33, Type (0, 0), BuildingBlock: KIFKEQ_clean_linker_1, # of connection points: 2
#     Edge 34, Type (0, 0), BuildingBlock: KIFKEQ_clean_linker_1, # of connection points: 2
#     Edge 35, Type (0, 0), BuildingBlock: KIFKEQ_clean_linker_1, # of connection points: 2
#     Edge 36, Type (0, 0), BuildingBlock: KIFKEQ_clean_linker_1, # of connection points: 2
#     Edge 37, Type (0, 0), BuildingBlock: KIFKEQ_clean_linker_1, # of connection points: 2
#     Edge 38, Type (0, 0), BuildingBlock: KIFKEQ_clean_linker_1, # of connection points: 2
#     Edge 39, Type (0, 0), BuildingBlock: KIFKEQ_clean_linker_1, # of connection points: 2
#     Edge 40, Type (0, 0), BuildingBlock: KIFKEQ_clean_linker_1, # of connection points: 2
#     Edge 41, Type (0, 0), BuildingBlock: KIFKEQ_clean_linker_1, # of connection points: 2
#     Edge 42, Type (0, 0), BuildingBlock: KIFKEQ_clean_linker_1, # of connection points: 2
#     Edge 43, Type (0, 0), BuildingBlock: KIFKEQ_clean_linker_1, # of connection points: 2
#     Edge 44, Type (0, 0), BuildingBlock: KIFKEQ_clean_linker_1, # of connection points: 2
#     Edge 45, Type (0, 0), BuildingBlock: KIFKEQ_clean_linker_1, # of connection points: 2
#     Edge 46, Type (0, 0), BuildingBlock: KIFKEQ_clean_linker_1, # of connection points: 2
#     Edge 47, Type (0, 0), BuildingBlock: KIFKEQ_clean_linker_1, # of connection points: 2
#     Edge 48, Type (0, 0), BuildingBlock: KIFKEQ_clean_linker_1, # of connection points: 2
#     Edge 49, Type (0, 0), BuildingBlock: KIFKEQ_clean_linker_1, # of connection points: 2
#     Edge 50, Type (0, 0), BuildingBlock: KIFKEQ_clean_linker_1, # of connection points: 2
#     Edge 51, Type (0, 0), BuildingBlock: KIFKEQ_clean_linker_1, # of connection points: 2
#     Edge 52, Type (0, 0), BuildingBlock: KIFKEQ_clean_linker_1, # of connection points: 2
#     Edge 53, Type (0, 0), BuildingBlock: KIFKEQ_clean_linker_1, # of connection points: 2
# Relax obj value: 0.394
# Max RMSD: 0.206
# Mean RMSD: 0.203
data_MOF--net-unp--node1-NAHDIM_clean_sbu_0--edge1-KIFKEQ_clean_linker_1
_symmetry_space_group_name_H-M    P1
_symmetry_Int_Tables_number       1
_symmetry_cell_setting            triclinic
loop_
_symmetry_equiv_pos_as_xyz
'x, y, z'
_cell_length_a     47.304944
_cell_length_b     47.284657
_cell_length_c     63.89143
_cell_angle_alpha  90.149852
_cell_angle_beta   89.876886
_cell_angle_gamma 120.19332
loop_
_atom_site_label
_atom_site_type_symbol
_atom_site_fract_x
_atom_site_fract_y
_atom_site_fract_z
_atom_type_partial_charge
C0 C 0.22716 0.23645 0.1186 0.0
O1 O 0.23018 0.2267 0.0999 0.0
O2 O 0.15371 0.14328 0.12417 0.0
Zn3 Zn 0.16087 0.18572 0.1124 0.0
O4 O 0.17096 0.18601 0.08173 0.0
C5 C 0.09659 0.17319 0.1029 0.0
O6 O 0.10302 0.16299 0.08537 0.0
O7 O 0.19911 0.22297 0.12722 0.0
C8 C 0.17224 0.20676 0.06861 0.0
O9 O 0.16593 0.22952 0.07482 0.0
C10 C 0.17235 0.13189 0.12001 0.0
O11 O 0.19817 0.14894 0.10813 0.0
O12 O 0.11854 0.18564 0.11695 0.0
C13 C 0.76761 0.98142 0.1428 0.0
O14 O 0.78961 0.98542 0.15682 0.0
O15 O 0.85152 0.01493 0.12496 0.0
Zn16 Zn 0.81142 0.97503 0.1142 0.0
O17 O 0.81387 0.98007 0.08296 0.0
C18 C 0.80928 0.91273 0.11059 0.0
O19 O 0.79867 0.91278 0.09161 0.0
O20 O 0.77127 0.97505 0.12402 0.0
C21 C 0.78887 0.96913 0.07124 0.0
O22 O 0.75959 0.9516 0.07946 0.0
C23 C 0.85892 0.04292 0.11788 0.0
O24 O 0.83851 0.04533 0.1051 0.0
O25 O 0.81429 0.9357 0.12313 0.0
C26 C 0.02715 0.77652 0.12572 0.0
O27 O 0.0363 0.78138 0.10601 0.0
O28 O 0.9807 0.83656 0.12782 0.0
Zn29 Zn 0.01865 0.8317 0.11844 0.0
O30 O 0.01175 0.82031 0.08788 0.0
C31 C 0.06431 0.89141 0.13879 0.0
O32 O 0.04413 0.8775 0.15456 0.0
O33 O 0.01965 0.79592 0.13464 0.0
C34 C 0.00649 0.83862 0.07596 0.0
O35 O 0.00683 0.86441 0.08399 0.0
C36 C 0.95153 0.81573 0.12268 0.0
O37 O 0.94597 0.7894 0.1123 0.0
O38 O 0.05938 0.87542 0.12188 0.0
C39 C 0.23143 0.19674 0.84344 0.0
O40 O 0.21449 0.17176 0.83089 0.0
O41 O 0.14447 0.1517 0.86418 0.0
Zn42 Zn 0.18566 0.1544 0.87484 0.0
O43 O 0.18472 0.16052 0.90586 0.0
C44 C 0.18835 0.09499 0.88111 0.0
O45 O 0.1983 0.10708 0.89994 0.0
O46 O 0.22419 0.19392 0.86275 0.0
C47 C 0.20977 0.17479 0.91752 0.0
O48 O 0.23893 0.18503 0.90951 0.0
C49 C 0.13701 0.17265 0.87044 0.0
O50 O 0.15778 0.19697 0.88233 0.0
O51 O 0.18349 0.11184 0.86766 0.0
C52 C 0.76882 0.00865 0.86798 0.0
O53 O 0.76558 0.00158 0.88801 0.0
O54 O 0.83846 0.98099 0.86583 0.0
Zn55 Zn 0.83307 0.01847 0.87534 0.0
O56 O 0.82217 0.01105 0.90605 0.0
C57 C 0.89863 0.06739 0.8842 0.0
O58 O 0.89153 0.0501 0.90146 0.0
O59 O 0.79618 0.01774 0.85912 0.0
C60 C 0.82444 0.03238 0.91911 0.0
O61 O 0.83488 0.06247 0.9128 0.0
C62 C 0.81675 0.9514 0.86923 0.0
O63 O 0.78919 0.945 0.87827 0.0
O64 O 0.8766 0.05939 0.87036 0.0
C65 C 0.98421 0.75433 0.87659 0.0
O66 O 0.99662 0.76576 0.89515 0.0
O67 O 0.01247 0.84826 0.8681 0.0
Zn68 Zn 0.97173 0.80791 0.87782 0.0
O69 O 0.9737 0.80997 0.90935 0.0
C70 C 0.90828 0.80434 0.87814 0.0
O71 O 0.90425 0.78927 0.89607 0.0
O72 O 0.97141 0.76801 0.8663 0.0
C73 C 0.95815 0.78707 0.92245 0.0
O74 O 0.93731 0.75747 0.91571 0.0
C75 C 0.04056 0.85628 0.8753 0.0
O76 O 0.04341 0.83657 0.88847 0.0
O77 O 0.93398 0.81251 0.86748 0.0
C78 C 0.89201 0.56194 0.45266 0.0
O79 O 0.89152 0.54121 0.43872 0.0
O80 O 0.8222 0.48028 0.45365 0.0
Zn81 Zn 0.82545 0.52266 0.44469 0.0
O82 O 0.83063 0.52465 0.41333 0.0
C83 C 0.76469 0.52328 0.44047 0.0
O84 O 0.77479 0.53201 0.42114 0.0
O85 O 0.86511 0.55965 0.45818 0.0
C86 C 0.84719 0.54961 0.4019 0.0
O87 O 0.8625 0.57884 0.41048 0.0
C88 C 0.80679 0.45585 0.44154 0.0
O89 O 0.79379 0.45944 0.42433 0.0
O90 O 0.78323 0.52 0.45339 0.0
C91 C 0.41813 0.31567 0.45845 0.0
O92 O 0.42061 0.32088 0.43818 0.0
O93 O 0.51796 0.3495 0.46014 0.0
Zn94 Zn 0.47544 0.31081 0.45102 0.0
O95 O 0.47092 0.31817 0.42049 0.0
C96 C 0.49891 0.26796 0.44247 0.0
O97 O 0.51303 0.28977 0.42757 0.0
O98 O 0.43835 0.30951 0.46752 0.0
C99 C 0.45687 0.29636 0.40651 0.0
O100 O 0.44368 0.26531 0.41149 0.0
C101 C 0.52569 0.37836 0.45474 0.0
O102 O 0.50443 0.38294 0.44429 0.0
O103 O 0.4798 0.27089 0.45517 0.0
C104 C 0.6832 0.10003 0.45555 0.0
O105 O 0.68107 0.09921 0.43504 0.0
O106 O 0.64583 0.16458 0.45976 0.0
Zn107 Zn 0.68429 0.16083 0.44996 0.0
O108 O 0.67701 0.15082 0.41919 0.0
C109 C 0.72699 0.22214 0.46988 0.0
O110 O 0.70523 0.20906 0.48494 0.0
O111 O 0.68605 0.12474 0.46539 0.0
C112 C 0.69821 0.16585 0.40503 0.0
O113 O 0.72766 0.18915 0.41032 0.0
C114 C 0.61766 0.14644 0.45188 0.0
O115 O 0.61339 0.12323 0.43872 0.0
O116 O 0.72435 0.2049 0.45392 0.0
C117 C 0.91746 0.56114 0.19546 0.0
O118 O 0.92326 0.55567 0.21469 0.0
O119 O 0.8099 0.50376 0.19688 0.0
Zn120 Zn 0.85308 0.50836 0.205 0.0
O121 O 0.85991 0.52165 0.2354 0.0
C122 C 0.83363 0.44616 0.18601 0.0
O123 O 0.82424 0.45849 0.17096 0.0
O124 O 0.88926 0.54296 0.18763 0.0
C125 C 0.86629 0.5067 0.24943 0.0
O126 O 0.86994 0.48188 0.24408 0.0
C127 C 0.80049 0.52239 0.20471 0.0
O128 O 0.82049 0.54659 0.21695 0.0
O129 O 0.84862 0.46399 0.20169 0.0
C130 C 0.42981 0.33113 0.20292 0.0
O131 O 0.42728 0.31297 0.21914 0.0
O132 O 0.50018 0.31532 0.20435 0.0
Zn133 Zn 0.495 0.35367 0.21291 0.0
O134 O 0.48252 0.34834 0.24341 0.0
C135 C 0.5608 0.40199 0.22126 0.0
O136 O 0.55416 0.38385 0.23811 0.0
O137 O 0.45815 0.35222 0.19647 0.0
C138 C 0.48793 0.37033 0.25683 0.0
O139 O 0.5037 0.40128 0.2513 0.0
C140 C 0.5064 0.29993 0.21818 0.0
O141 O 0.50869 0.30894 0.23786 0.0
O142 O 0.53842 0.3946 0.20777 0.0
C143 C 0.65507 0.1043 0.17594 0.0
O144 O 0.66498 0.13089 0.1647 0.0
O145 O 0.68449 0.18435 0.1995 0.0
Zn146 Zn 0.64564 0.14152 0.20866 0.0
O147 O 0.65175 0.13708 0.23936 0.0
C148 C 0.60417 0.16114 0.18874 0.0
O149 O 0.6277 0.17225 0.17473 0.0
O150 O 0.64451 0.10329 0.19436 0.0
C151 C 0.63141 0.13391 0.25347 0.0
O152 O 0.6038 0.13219 0.2481 0.0
C153 C 0.69137 0.20824 0.2117 0.0
O154 O 0.67341 0.20306 0.22853 0.0
O155 O 0.6053 0.14472 0.2041 0.0
C156 C 0.5651 0.89056 0.78568 0.0
O157 O 0.56658 0.87201 0.77087 0.0
O158 O 0.49965 0.80474 0.78802 0.0
Zn159 Zn 0.49934 0.84524 0.77892 0.0
O160 O 0.50621 0.84712 0.74781 0.0
C161 C 0.43735 0.84372 0.77327 0.0
O162 O 0.44846 0.85394 0.7543 0.0
O163 O 0.5372 0.88428 0.79236 0.0
C164 C 0.51594 0.87225 0.73635 0.0
O165 O 0.52076 0.89978 0.74465 0.0
C166 C 0.48114 0.78562 0.80224 0.0
O167 O 0.46172 0.79314 0.81251 0.0
O168 O 0.45539 0.83998 0.78637 0.0
C169 C 0.07795 0.63742 0.80076 0.0
O170 O 0.06676 0.6222 0.78283 0.0
O171 O 0.18466 0.68064 0.79246 0.0
Zn172 Zn 0.13904 0.64427 0.7864 0.0
O173 O 0.12958 0.64893 0.75635 0.0
C174 C 0.15242 0.59856 0.80644 0.0
O175 O 0.1615 0.62036 0.82152 0.0
O176 O 0.10763 0.64792 0.80561 0.0
C177 C 0.14628 0.64421 0.74265 0.0
O178 O 0.16738 0.63561 0.7488 0.0
C179 C 0.19512 0.70986 0.78649 0.0
O180 O 0.17508 0.71708 0.77682 0.0
O181 O 0.1394 0.60234 0.79011 0.0
C182 C 0.31924 0.42221 0.7907 0.0
O183 O 0.30014 0.42473 0.77684 0.0
O184 O 0.30547 0.49163 0.79587 0.0
Zn185 Zn 0.34499 0.48887 0.78713 0.0
O186 O 0.34223 0.48447 0.75576 0.0
C187 C 0.4047 0.55148 0.78363 0.0
O188 O 0.40223 0.54332 0.76378 0.0
O189 O 0.34227 0.44819 0.7988 0.0
C190 C 0.35751 0.47504 0.74394 0.0
O191 O 0.3793 0.46877 0.75199 0.0
C192 C 0.2995 0.50978 0.78424 0.0
O193 O 0.31912 0.52489 0.76842 0.0
O194 O 0.38439 0.53098 0.79662 0.0
C195 C 0.56526 0.89444 0.5353 0.0
O196 O 0.55147 0.89663 0.5526 0.0
O197 O 0.47384 0.82631 0.53172 0.0
Zn198 Zn 0.51573 0.82817 0.5404 0.0
O199 O 0.51809 0.8339 0.57172 0.0
C200 C 0.51798 0.76775 0.54426 0.0
O201 O 0.53185 0.78004 0.56236 0.0
O202 O 0.55438 0.86658 0.5267 0.0
C203 C 0.54317 0.84331 0.58319 0.0
O204 O 0.57084 0.84877 0.57478 0.0
C205 C 0.46393 0.84349 0.5411 0.0
O206 O 0.48262 0.8645 0.55545 0.0
O207 O 0.51089 0.78464 0.53223 0.0
C208 C 0.0954 0.67205 0.53717 0.0
O209 O 0.09164 0.66672 0.55742 0.0
O210 O 0.16483 0.64268 0.53663 0.0
Zn211 Zn 0.15909 0.68025 0.54554 0.0
O212 O 0.14834 0.67334 0.57633 0.0
C213 C 0.22428 0.72941 0.55468 0.0
O214 O 0.2169 0.71211 0.57195 0.0
O215 O 0.1226 0.67928 0.52877 0.0
C216 C 0.14876 0.69382 0.58942 0.0
O217 O 0.15607 0.72312 0.58303 0.0
C218 C 0.14483 0.61371 0.54262 0.0
O219 O 0.11904 0.60828 0.55357 0.0
O220 O 0.20253 0.72125 0.54063 0.0
C221 C 0.32605 0.42598 0.54272 0.0
O222 O 0.3414 0.439 0.56033 0.0
O223 O 0.34594 0.5174 0.53762 0.0
Zn224 Zn 0.30865 0.47503 0.54839 0.0
O225 O 0.31623 0.47417 0.57932 0.0
C226 C 0.25193 0.48152 0.55691 0.0
O227 O 0.26122 0.48273 0.57639 0.0
O228 O 0.30921 0.43702 0.53428 0.0
C229 C 0.29851 0.45031 0.5913 0.0
O230 O 0.27249 0.42454 0.58371 0.0
C231 C 0.37565 0.52705 0.54193 0.0
O232 O 0.38273 0.50801 0.55294 0.0
O233 O 0.26746 0.47665 0.5424 0.0
H234 H 0.42558 0.35946 0.16652 0.0
H235 H 0.36668 0.28909 0.21388 0.0
H236 H 0.37619 0.34469 0.14633 0.0
H237 H 0.3178 0.27391 0.19363 0.0
H238 H 0.23085 0.2585 0.15877 0.0
H239 H 0.28017 0.28951 0.17976 0.0
H240 H 0.33943 0.29642 0.1263 0.0
H241 H 0.29043 0.26634 0.10525 0.0
C242 C 0.40211 0.34112 0.17272 0.0
C243 C 0.40006 0.32512 0.19164 0.0
C244 C 0.37386 0.33261 0.16115 0.0
C245 C 0.34308 0.30801 0.16832 0.0
C246 C 0.34101 0.29325 0.18776 0.0
C247 C 0.36915 0.30173 0.19928 0.0
C248 C 0.25444 0.26721 0.15141 0.0
C249 C 0.25672 0.25947 0.13046 0.0
C250 C 0.28268 0.28487 0.16345 0.0
C251 C 0.3137 0.29504 0.15478 0.0
C252 C 0.31599 0.28919 0.13344 0.0
C253 C 0.28781 0.27166 0.12141 0.0
H254 H 0.72383 0.98362 0.11596 0.0
H255 H 0.75423 -0.00114 0.18076 0.0
H256 H 0.68853 0.00639 0.12286 0.0
H257 H 0.71911 0.0218 0.18755 0.0
H258 H 0.68273 0.10076 0.1391 0.0
H259 H 0.70258 0.06348 0.13068 0.0
H260 H 0.66237 0.01177 0.18865 0.0
H261 H 0.64269 0.04915 0.1972 0.0
C262 C 0.72257 0.99128 0.13176 0.0
C263 C 0.74219 0.98984 0.14778 0.0
C264 C 0.70244 0.00444 0.13566 0.0
C265 C 0.70131 0.01616 0.15567 0.0
C266 C 0.71927 0.01274 0.17198 0.0
C267 C 0.73955 -0.00025 0.16807 0.0
C268 C 0.67752 0.08105 0.14985 0.0
C269 C 0.66161 0.07827 0.16896 0.0
C270 C 0.68875 0.05956 0.14498 0.0
C271 C 0.68434 0.03494 0.15914 0.0
C272 C 0.66654 0.03083 0.1776 0.0
C273 C 0.65518 0.0522 0.18243 0.0
H274 H 0.91585 0.57673 0.15456 0.0
H275 H 0.9733 0.61305 0.21107 0.0
H276 H 0.95042 0.6293 0.13771 0.0
H277 H 0.00797 0.66572 0.1941 0.0
H278 H 0.01343 0.76144 0.16708 0.0
H279 H 0.99417 0.70843 0.18352 0.0
H280 H 0.00683 0.66983 0.12515 0.0
H281 H 0.02607 0.72294 0.10859 0.0
C282 C 0.93624 0.59572 0.16325 0.0
C283 C 0.94158 0.59089 0.18423 0.0
C284 C 0.9562 0.62577 0.15354 0.0
C285 C 0.98174 0.65165 0.16466 0.0
C286 C 0.98824 0.64625 0.18525 0.0
C287 C 0.96846 0.61606 0.19491 0.0
C288 C 0.0127 0.74185 0.15784 0.0
C289 C 0.02084 0.74625 0.13647 0.0
C290 C 0.00189 0.71153 0.1673 0.0
C291 C -0.00121 0.68496 0.15555 0.0
C292 C 0.00871 0.68985 0.1345 0.0
C293 C 0.01982 0.72028 0.12507 0.0
H294 H 0.35174 0.40705 0.82014 0.0
H295 H 0.27324 0.36345 0.77497 0.0
H296 H 0.3389 0.35244 0.8314 0.0
H297 H 0.26006 0.30938 0.78644 0.0
H298 H 0.24806 0.21385 0.80244 0.0
H299 H 0.27705 0.26914 0.78815 0.0
H300 H 0.29426 0.30891 0.85084 0.0
H301 H 0.26627 0.2539 0.86509 0.0
C302 C 0.33192 0.38587 0.81254 0.0
C303 C 0.31327 0.38955 0.79684 0.0
C304 C 0.32455 0.35462 0.81899 0.0
C305 C 0.29846 0.32655 0.80982 0.0
C306 C 0.28066 0.33041 0.79361 0.0
C307 C 0.288 0.3615 0.78719 0.0
C308 C 0.25871 0.23439 0.81317 0.0
C309 C 0.2543 0.22949 0.83487 0.0
C310 C 0.27516 0.26607 0.80498 0.0
C311 C 0.2874 0.29342 0.81835 0.0
C312 C 0.28527 0.28844 0.84009 0.0
C313 C 0.26896 0.25682 0.84827 0.0
H314 H 0.70571 0.98109 0.88138 0.0
H315 H 0.76601 0.01921 0.82609 0.0
H316 H 0.65692 0.95992 0.85997 0.0
H317 H 0.71696 -0.00113 0.80464 0.0
H318 H 0.57141 0.93093 0.81845 0.0
H319 H 0.62155 0.96839 0.83716 0.0
H320 H 0.67719 0.9444 0.79425 0.0
H321 H 0.62758 0.90798 0.77533 0.0
C322 C 0.70858 0.98566 0.86469 0.0
C323 C 0.73973 0.00127 0.85539 0.0
C324 C 0.68052 0.97372 0.8524 0.0
C325 C 0.683 0.97733 0.83053 0.0
C326 C 0.71422 0.99511 0.8214 0.0
C327 C 0.74233 0.00688 0.8337 0.0
C328 C 0.59446 0.93413 0.81284 0.0
C329 C 0.59548 0.91615 0.7956 0.0
C330 C 0.62315 0.95549 0.82359 0.0
C331 C 0.65337 0.95922 0.81731 0.0
C332 C 0.65448 0.9425 0.79939 0.0
C333 C 0.62589 0.9213 0.78864 0.0
H334 H 0.09442 0.66886 0.83836 0.0
H335 H 0.01595 0.62574 0.79315 0.0
H336 H 0.06505 0.69005 0.85784 0.0
H337 H 0.98594 0.64637 0.81309 0.0
H338 H 0.97635 0.73578 0.83546 0.0
H339 H 0.99309 0.70023 0.81869 0.0
H340 H 0.01873 0.67857 0.87905 0.0
H341 H 0.00298 0.71497 0.89573 0.0
C342 C 0.07057 0.66335 0.83278 0.0
C343 C 0.05772 0.64598 0.81405 0.0
C344 C 0.05354 0.67528 0.84408 0.0
C345 C 0.02316 0.67004 0.83699 0.0
C346 C 0.00949 0.6512 0.81881 0.0
C347 C 0.02661 0.63925 0.80745 0.0
C348 C 0.98503 0.72299 0.84518 0.0
C349 C 0.98894 0.72864 0.86686 0.0
C350 C 0.99444 0.70242 0.83558 0.0
C351 C 0.00769 0.6869 0.8475 0.0
C352 C 0.00931 0.69074 0.86937 0.0
C353 C 0.00018 0.71151 0.87894 0.0
H354 H 0.95263 0.57129 0.4446 0.0
H355 H 0.90169 0.6058 0.4839 0.0
H356 H 0.00271 0.60507 0.46392 0.0
H357 H 0.95233 0.64045 0.50302 0.0
H358 H 0.03247 0.64944 0.54978 0.0
H359 H 0.98432 0.62945 0.52775 0.0
H360 H 0.04571 0.65952 0.47265 0.0
H361 H 0.09396 0.67876 0.49471 0.0
C362 C 0.95224 0.58654 0.45715 0.0
C363 C 0.92308 0.58554 0.46289 0.0
C364 C 0.9811 0.60619 0.46813 0.0
C365 C 0.98152 0.62541 0.48508 0.0
C366 C 0.95268 0.62559 0.49021 0.0
C367 C 0.92373 0.60584 0.47921 0.0
C368 C 0.03579 0.65227 0.53298 0.0
C369 C 0.06699 0.66513 0.52398 0.0
C370 C 0.00815 0.64102 0.52033 0.0
C371 C 0.01113 0.64252 0.49841 0.0
C372 C 0.04256 0.65743 0.48948 0.0
C373 C 0.07021 0.66859 0.50213 0.0
H374 H 0.36811 0.40536 0.55394 0.0
H375 H 0.29627 0.39109 0.50714 0.0
H376 H 0.38289 0.37107 0.53413 0.0
H377 H 0.31009 0.35525 0.48757 0.0
H378 H 0.40148 0.30165 0.49975 0.0
H379 H 0.37067 0.31967 0.52112 0.0
H380 H 0.35458 0.36361 0.46652 0.0
H381 H 0.38381 0.34428 0.44516 0.0
C382 C 0.35493 0.39429 0.53961 0.0
C383 C 0.33139 0.40139 0.53193 0.0
C384 C 0.3632 0.37425 0.5283 0.0
C385 C 0.34786 0.36046 0.50912 0.0
C386 C 0.32286 0.36598 0.50207 0.0
C387 C 0.31482 0.38639 0.51331 0.0
C388 C 0.39076 0.31459 0.49229 0.0
C389 C 0.3955 0.32199 0.47085 0.0
C390 C 0.37325 0.32508 0.50454 0.0
C391 C 0.36059 0.34363 0.49565 0.0
C392 C 0.36363 0.34915 0.47394 0.0
C393 C 0.3807 0.33827 0.46167 0.0
H394 H 0.65546 0.03773 0.44061 0.0
H395 H 0.69559 0.09532 0.49674 0.0
H396 H 0.63433 0.98788 0.46094 0.0
H397 H 0.67591 0.04531 0.51707 0.0
H398 H 0.60163 0.89974 0.50044 0.0
H399 H 0.63967 0.94986 0.48194 0.0
H400 H 0.62328 0.00672 0.52848 0.0
H401 H 0.58678 0.9572 0.54722 0.0
C402 C 0.66063 0.03973 0.45723 0.0
C403 C 0.67656 0.07039 0.46717 0.0
C404 C 0.64869 0.01106 0.46891 0.0
C405 C 0.65287 0.01248 0.49075 0.0
C406 C 0.67142 0.04329 0.50037 0.0
C407 C 0.68288 0.07197 0.48872 0.0
C408 C 0.60666 0.92305 0.50684 0.0
C409 C 0.5909 0.92449 0.52513 0.0
C410 C 0.62835 0.95176 0.49621 0.0
C411 C 0.63443 0.98241 0.50359 0.0
C412 C 0.61974 0.98374 0.52244 0.0
C413 C 0.59842 0.95518 0.53312 0.0
H414 H 0.06818 0.16891 0.14107 0.0
H415 H 0.04829 0.15868 0.07468 0.0
H416 H 0.00974 0.1453 0.14821 0.0
H417 H 0.99022 0.13522 0.08178 0.0
H418 H 0.88758 0.10192 0.09777 0.0
H419 H 0.94575 0.14267 0.09685 0.0
H420 H 0.9646 0.08741 0.14283 0.0
H421 H 0.90655 0.0468 0.14389 0.0
C422 C 0.05146 0.16242 0.12801 0.0
C423 C 0.06271 0.16524 0.10731 0.0
C424 C 0.01803 0.14878 0.13211 0.0
C425 C 0.9954 0.13822 0.11557 0.0
C426 C 0.00703 0.14337 0.09487 0.0
C427 C 0.04031 0.1566 0.09079 0.0
C428 C 0.904 0.09887 0.10808 0.0
C429 C 0.89254 0.07081 0.12062 0.0
C430 C 0.93732 0.12218 0.10749 0.0
C431 C 0.95975 0.11802 0.11956 0.0
C432 C 0.94791 0.09141 0.13342 0.0
C433 C 0.91464 0.068 0.13391 0.0
H434 H 0.83436 0.90724 0.14794 0.0
H435 H 0.81189 0.86743 0.08525 0.0
H436 H 0.86314 0.87751 0.1546 0.0
H437 H 0.8413 0.83844 0.09174 0.0
H438 H 0.88775 0.78007 0.10985 0.0
H439 H 0.84671 0.79692 0.11043 0.0
H440 H 0.91514 0.88637 0.1421 0.0
H441 H 0.95571 0.8693 0.14195 0.0
C442 C 0.8351 0.89175 0.13568 0.0
C443 C 0.82126 0.89012 0.11594 0.0
C444 C 0.85176 0.87486 0.13947 0.0
C445 C 0.85499 0.85601 0.12361 0.0
C446 C 0.83913 0.85254 0.10438 0.0
C447 C 0.82239 0.86936 0.1006 0.0
C448 C 0.8938 0.80305 0.11729 0.0
C449 C 0.92513 0.82351 0.12565 0.0
C450 C 0.87033 0.81277 0.11752 0.0
C451 C 0.87769 0.84311 0.12615 0.0
C452 C 0.90844 0.86268 0.13553 0.0
C453 C 0.93186 0.85299 0.1353 0.0
H454 H 0.20262 0.09701 0.11043 0.0
H455 H 0.12065 0.0907 0.14455 0.0
H456 H 0.18323 0.03955 0.11819 0.0
H457 H 0.10105 0.03342 0.1519 0.0
H458 H 0.07779 0.9342 0.17124 0.0
H459 H 0.1103 0.99376 0.16994 0.0
H460 H 0.13704 0.9884 0.10596 0.0
H461 H 0.10523 0.92901 0.10739 0.0
C462 C 0.1807 0.08351 0.11978 0.0
C463 C 0.16298 0.09834 0.12668 0.0
C464 C 0.16954 0.05056 0.12415 0.0
C465 C 0.1405 0.03183 0.13556 0.0
C466 C 0.12372 0.04717 0.1433 0.0
C467 C 0.13483 0.08001 0.13892 0.0
C468 C 0.09115 0.94571 0.15704 0.0
C469 C 0.08851 0.92686 0.13932 0.0
C470 C 0.10964 0.97985 0.15627 0.0
C471 C 0.12587 0.99586 0.13775 0.0
C472 C 0.12504 0.97691 0.12052 0.0
C473 C 0.1066 0.94279 0.1213 0.0
H474 H 0.10308 0.88328 0.89033 0.0
H475 H 0.0413 0.90465 0.85167 0.0
H476 H 0.14639 0.94047 0.88825 0.0
H477 H 0.08401 0.96167 0.85008 0.0
H478 H 0.16657 0.06204 0.84398 0.0
H479 H 0.1373 0.00293 0.83884 0.0
H480 H 0.15291 0.98967 0.90384 0.0
H481 H 0.18293 0.04859 0.9088 0.0
C482 C 0.09888 0.90005 0.88115 0.0
C483 C 0.06856 0.8895 0.87141 0.0
C484 C 0.12366 0.93286 0.88005 0.0
C485 C 0.11861 0.95579 0.8692 0.0
C486 C 0.08898 0.94472 0.8584 0.0
C487 C 0.0643 0.91197 0.85945 0.0
C488 C 0.16439 0.04651 0.85705 0.0
C489 C 0.17657 0.06 0.8769 0.0
C490 C 0.14746 0.01262 0.85413 0.0
C491 C 0.1422 0.99149 0.87101 0.0
C492 C 0.15661 0.00513 0.89044 0.0
C493 C 0.17371 0.03902 0.89333 0.0
H494 H 0.10843 0.20377 0.88956 0.0
H495 H 0.0891 0.12683 0.84529 0.0
H496 H 0.05031 0.18627 0.89019 0.0
H497 H 0.03107 0.10942 0.84598 0.0
H498 H 0.92797 0.09006 0.84611 0.0
H499 H 0.98676 0.12362 0.83929 0.0
H500 H 0.00524 0.13408 0.90583 0.0
H501 H 0.94684 0.10057 0.91262 0.0
C502 C 0.09194 0.18363 0.87959 0.0
C503 C 0.10328 0.16632 0.86764 0.0
C504 C 0.05866 0.17359 0.88001 0.0
C505 C 0.03617 0.14631 0.8683 0.0
C506 C 0.04786 0.13066 0.85507 0.0
C507 C 0.08109 0.1405 0.85479 0.0
C508 C 0.94458 0.10024 0.85925 0.0
C509 C 0.93293 0.09246 0.8799 0.0
C510 C 0.97817 0.11928 0.85534 0.0
C511 C 0.00054 0.13131 0.87202 0.0
C512 C 0.98859 0.12541 0.89265 0.0
C513 C 0.95516 0.10602 0.89654 0.0
H514 H 0.90906 0.83575 0.84205 0.0
H515 H 0.85905 0.80294 0.90139 0.0
H516 H 0.88088 0.86612 0.8356 0.0
H517 H 0.83168 0.834 0.89523 0.0
H518 H 0.77841 0.88598 0.87772 0.0
H519 H 0.79414 0.84414 0.87566 0.0
H520 H 0.88839 0.91585 0.85084 0.0
H521 H 0.87245 0.95719 0.85238 0.0
C522 C 0.89168 0.83459 0.85357 0.0
C523 C 0.88672 0.81737 0.8724 0.0
C524 C 0.87566 0.85215 0.84992 0.0
C525 C 0.85447 0.85299 0.86505 0.0
C526 C 0.84768 0.83377 0.88316 0.0
C527 C 0.86355 0.81606 0.88676 0.0
C528 C 0.80226 0.89262 0.87148 0.0
C529 C 0.82432 0.92501 0.86545 0.0
C530 C 0.81132 0.86868 0.87038 0.0
C531 C 0.84261 0.87665 0.86323 0.0
C532 C 0.86394 0.90866 0.85618 0.0
C533 C 0.85489 0.93252 0.85724 0.0
H534 H 0.716 0.51836 0.41506 0.0
H535 H 0.73485 0.50038 0.47838 0.0
H536 H 0.65757 0.48864 0.42214 0.0
H537 H 0.6763 0.47122 0.4856 0.0
H538 H 0.57583 0.37642 0.47443 0.0
H539 H 0.6334 0.41798 0.47406 0.0
H540 H 0.61056 0.48356 0.44095 0.0
H541 H 0.55275 0.44154 0.44094 0.0
C542 C 0.70775 0.50879 0.43066 0.0
C543 C 0.73008 0.51125 0.44603 0.0
C544 C 0.67418 0.49187 0.43476 0.0
C545 C 0.66221 0.47714 0.45436 0.0
C546 C 0.68471 0.48174 0.47021 0.0
C547 C 0.71828 0.49861 0.4661 0.0
C548 C 0.58295 0.39987 0.46737 0.0
C549 C 0.55973 0.40548 0.45746 0.0
C550 C 0.61601 0.42386 0.46729 0.0
C551 C 0.62665 0.45406 0.45734 0.0
C552 C 0.60319 0.46037 0.44848 0.0
C553 C 0.57006 0.43634 0.44857 0.0
H554 H 0.52049 0.24256 0.41259 0.0
H555 H 0.49754 0.23599 0.47849 0.0
H556 H 0.54191 0.20572 0.41744 0.0
H557 H 0.51958 0.19928 0.48342 0.0
H558 H 0.6161 0.18933 0.48002 0.0
H559 H 0.57958 0.21181 0.47955 0.0
H560 H 0.52543 0.1472 0.42854 0.0
H561 H 0.5617 0.12446 0.42904 0.0
C562 C 0.51959 0.23282 0.42806 0.0
C563 C 0.50755 0.24225 0.44518 0.0
C564 C 0.53164 0.21155 0.43081 0.0
C565 C 0.53239 0.19968 0.45081 0.0
C566 C 0.51928 0.20816 0.46785 0.0
C567 C 0.50659 0.22901 0.46502 0.0
C568 C 0.59594 0.17936 0.46904 0.0
C569 C 0.59207 0.15544 0.45438 0.0
C570 C 0.57492 0.19211 0.46886 0.0
C571 C 0.5499 0.18141 0.45388 0.0
C572 C 0.54472 0.15602 0.44014 0.0
C573 C 0.56545 0.14297 0.44048 0.0
H574 H 0.81998 0.43593 0.47876 0.0
H575 H 0.78397 0.40267 0.41615 0.0
H576 H 0.80916 0.38098 0.48766 0.0
H577 H 0.77308 0.34821 0.42503 0.0
H578 H 0.77233 0.25742 0.43983 0.0
H579 H 0.79936 0.31632 0.43439 0.0
H580 H 0.75822 0.32694 0.49226 0.0
H581 H 0.73155 0.26809 0.49792 0.0
C582 C 0.81009 0.41702 0.46686 0.0
C583 C 0.80258 0.42354 0.4468 0.0
C584 C 0.80386 0.38561 0.47197 0.0
C585 C 0.79042 0.36034 0.45703 0.0
C586 C 0.78395 0.36726 0.43681 0.0
C587 C 0.78988 0.39843 0.43178 0.0
C588 C 0.76968 0.27237 0.45167 0.0
C589 C 0.74924 0.25799 0.4691 0.0
C590 C 0.78505 0.3061 0.44849 0.0
C591 C 0.78036 0.32613 0.46268 0.0
C592 C 0.76234 0.31215 0.48105 0.0
C593 C 0.74693 0.27837 0.48425 0.0
H594 H 0.72485 0.23168 0.17471 0.0
H595 H 0.71808 0.26054 0.23791 0.0
H596 H 0.76602 0.28847 0.16661 0.0
H597 H 0.75863 0.31675 0.22983 0.0
H598 H 0.84523 0.41223 0.21609 0.0
H599 H 0.81647 0.35312 0.22092 0.0
H600 H 0.76457 0.34024 0.16293 0.0
H601 H 0.79367 0.39934 0.15787 0.0
C602 C 0.73241 0.25003 0.18691 0.0
C603 C 0.7181 0.24171 0.20691 0.0
C604 C 0.75586 0.28249 0.18225 0.0
C605 C 0.76565 0.30705 0.1976 0.0
C606 C 0.75205 0.29837 0.21775 0.0
C607 C 0.72852 0.26614 0.22232 0.0
C608 C 0.82822 0.3968 0.20412 0.0
C609 C 0.82131 0.41054 0.18678 0.0
C610 C 0.81165 0.36293 0.20695 0.0
C611 C 0.78785 0.34208 0.19249 0.0
C612 C 0.78284 0.35564 0.17431 0.0
C613 C 0.79942 0.38956 0.17148 0.0
H614 H 0.75371 0.4765 0.179 0.0
H615 H 0.7685 0.54731 0.22695 0.0
H616 H 0.69483 0.45455 0.18098 0.0
H617 H 0.70952 0.52524 0.22887 0.0
H618 H 0.60926 0.4336 0.24979 0.0
H619 H 0.66723 0.47012 0.24296 0.0
H620 H 0.64759 0.46525 0.17667 0.0
H621 H 0.58922 0.42865 0.18354 0.0
C622 C 0.74447 0.48785 0.18963 0.0
C623 C 0.76574 0.51332 0.20304 0.0
C624 C 0.71074 0.47541 0.19065 0.0
C625 C 0.69761 0.48802 0.20522 0.0
C626 C 0.71901 0.51488 0.21765 0.0
C627 C 0.75277 0.52755 0.21649 0.0
C628 C 0.6172 0.44081 0.23379 0.0
C629 C 0.5948 0.42805 0.21719 0.0
C630 C 0.65038 0.46192 0.22989 0.0
C631 C 0.66192 0.47042 0.20927 0.0
C632 C 0.63932 0.45893 0.1927 0.0
C633 C 0.60596 0.43813 0.19665 0.0
H634 H 0.52192 0.26415 0.24408 0.0
H635 H 0.50667 0.27653 0.17886 0.0
H636 H 0.53846 0.22494 0.23449 0.0
H637 H 0.52256 0.23638 0.16922 0.0
H638 H 0.60335 0.20697 0.16321 0.0
H639 H 0.5732 0.23551 0.1687 0.0
H640 H 0.5219 0.17161 0.22064 0.0
H641 H 0.55284 0.14364 0.21554 0.0
C642 C 0.52159 0.25811 0.22769 0.0
C643 C 0.51328 0.27372 0.21223 0.0
C644 C 0.5308 0.23532 0.22218 0.0
C645 C 0.53182 0.22744 0.20106 0.0
C646 C 0.52235 0.24216 0.18561 0.0
C647 C 0.51315 0.26508 0.19114 0.0
C648 C 0.58516 0.19853 0.17553 0.0
C649 C 0.58093 0.17342 0.18918 0.0
C650 C 0.56771 0.21483 0.17862 0.0
C651 C 0.54553 0.20622 0.19535 0.0
C652 C 0.53939 0.17934 0.20792 0.0
C653 C 0.55697 0.16317 0.20491 0.0
H654 H 0.22708 0.77331 0.77269 0.0
H655 H 0.24289 0.70185 0.80448 0.0
H656 H 0.28597 0.81152 0.77255 0.0
H657 H 0.3015 0.73959 0.80391 0.0
H658 H 0.40535 0.81777 0.8102 0.0
H659 H 0.34661 0.7905 0.81655 0.0
H660 H 0.3318 0.81416 0.75374 0.0
H661 H 0.39046 0.84207 0.74756 0.0
C662 C 0.24306 0.76587 0.77984 0.0
C663 C 0.23031 0.73442 0.78842 0.0
C664 C 0.27681 0.78771 0.77967 0.0
C665 C 0.29848 0.77857 0.7881 0.0
C666 C 0.28554 0.74764 0.79751 0.0
C667 C 0.25188 0.72585 0.79769 0.0
C668 C 0.38962 0.81769 0.79788 0.0
C669 C 0.40256 0.83173 0.77827 0.0
C670 C 0.35593 0.80189 0.80148 0.0
C671 C 0.33445 0.79976 0.78557 0.0
C672 C 0.34762 0.81553 0.76641 0.0
C673 C 0.3813 0.83139 0.76281 0.0
H674 H 0.26219 0.49515 0.81992 0.0
H675 H 0.27383 0.53583 0.75789 0.0
H676 H 0.21881 0.50787 0.82714 0.0
H677 H 0.23103 0.54849 0.76508 0.0
H678 H 0.14251 0.55358 0.77612 0.0
H679 H 0.17187 0.52384 0.77202 0.0
H680 H 0.21872 0.56057 0.8318 0.0
H681 H 0.18906 0.58998 0.83611 0.0
C682 C 0.25523 0.50641 0.80778 0.0
C683 C 0.27157 0.51475 0.7884 0.0
C684 C 0.2305 0.51372 0.81192 0.0
C685 C 0.22142 0.52902 0.79665 0.0
C686 C 0.23704 0.53621 0.77706 0.0
C687 C 0.26186 0.52926 0.77302 0.0
C688 C 0.15842 0.55467 0.78865 0.0
C689 C 0.16397 0.57471 0.80625 0.0
C690 C 0.17533 0.53772 0.78625 0.0
C691 C 0.19806 0.54041 0.80139 0.0
C692 C 0.20134 0.55798 0.81987 0.0
C693 C 0.18443 0.57498 0.82228 0.0
H694 H 0.43434 0.7332 0.824 0.0
H695 H 0.52062 0.76428 0.78595 0.0
H696 H 0.42347 0.67722 0.8228 0.0
H697 H 0.51033 0.70834 0.78529 0.0
H698 H 0.44538 0.60294 0.7588 0.0
H699 H 0.47053 0.66066 0.76717 0.0
H700 H 0.4377 0.63652 0.83124 0.0
H701 H 0.41157 0.57845 0.82266 0.0
C702 C 0.45147 0.72823 0.81583 0.0
C703 C 0.47799 0.75306 0.80476 0.0
C704 C 0.44536 0.6961 0.81525 0.0
C705 C 0.46581 0.68815 0.80372 0.0
C706 C 0.49371 0.71349 0.79395 0.0
C707 C 0.49968 0.74558 0.7944 0.0
C708 C 0.44406 0.60987 0.77479 0.0
C709 C 0.42593 0.58606 0.78995 0.0
C710 C 0.45872 0.64309 0.77965 0.0
C711 C 0.45577 0.6533 0.79984 0.0
C712 C 0.43985 0.62948 0.81543 0.0
C713 C 0.42506 0.59619 0.81054 0.0
H714 H 0.51994 0.72218 0.56943 0.0
H715 H 0.48684 0.73384 0.50878 0.0
H716 H 0.49 0.66318 0.56486 0.0
H717 H 0.45756 0.67466 0.50393 0.0
H718 H 0.36814 0.57428 0.5226 0.0
H719 H 0.40825 0.63205 0.51952 0.0
H720 H 0.48171 0.61482 0.54689 0.0
H721 H 0.44116 0.55688 0.5505 0.0
C722 C 0.50695 0.71222 0.55488 0.0
C723 C 0.5053 0.7327 0.53964 0.0
C724 C 0.48991 0.6783 0.55219 0.0
C725 C 0.47098 0.66411 0.53413 0.0
C726 C 0.47135 0.68477 0.51821 0.0
C727 C 0.48828 0.71871 0.52094 0.0
C728 C 0.39295 0.58266 0.52767 0.0
C729 C 0.40131 0.56103 0.53709 0.0
C730 C 0.4161 0.61583 0.52575 0.0
C731 C 0.4482 0.62818 0.53311 0.0
C732 C 0.45706 0.60619 0.54139 0.0
C733 C 0.43384 0.57296 0.54337 0.0
H734 H 0.2722 0.76101 0.58353 0.0
H735 H 0.25387 0.75495 0.517 0.0
H736 H 0.33044 0.79614 0.57715 0.0
H737 H 0.31255 0.79034 0.51058 0.0
H738 H 0.41745 0.7993 0.51435 0.0
H739 H 0.35885 0.77916 0.51538 0.0
H740 H 0.37407 0.84977 0.56348 0.0
H741 H 0.43268 0.86984 0.56261 0.0
C742 C 0.28058 0.76773 0.56755 0.0
C743 C 0.25854 0.75498 0.55076 0.0
C744 C 0.31395 0.78807 0.5639 0.0
C745 C 0.32607 0.79589 0.54335 0.0
C746 C 0.30387 0.78452 0.52657 0.0
C747 C 0.27032 0.76442 0.53025 0.0
C748 C 0.40842 0.81104 0.52482 0.0
C749 C 0.42966 0.83575 0.53867 0.0
C750 C 0.37483 0.79963 0.52531 0.0
C751 C 0.36186 0.81265 0.5397 0.0
C752 C 0.38338 0.839 0.55243 0.0
C753 C 0.41696 0.85052 0.55188 0.0
H754 H 0.21148 0.4889 0.58394 0.0
H755 H 0.23777 0.49706 0.51851 0.0
H756 H 0.17921 0.51478 0.57698 0.0
H757 H 0.20503 0.52274 0.5115 0.0
H758 H 0.19585 0.61672 0.5206 0.0
H759 H 0.21484 0.57752 0.52115 0.0
H760 H 0.13191 0.51241 0.5593 0.0
H761 H 0.11302 0.55188 0.55899 0.0
C762 C 0.20979 0.49557 0.56798 0.0
C763 C 0.22757 0.49135 0.55184 0.0
C764 C 0.19107 0.51021 0.56395 0.0
C765 C 0.18981 0.52108 0.54371 0.0
C766 C 0.20589 0.51498 0.52731 0.0
C767 C 0.22449 0.50011 0.53132 0.0
C768 C 0.18131 0.5938 0.5288 0.0
C769 C 0.15319 0.58765 0.54002 0.0
C770 C 0.19208 0.57119 0.52898 0.0
C771 C 0.17501 0.54197 0.54042 0.0
C772 C 0.14579 0.53492 0.55057 0.0
C773 C 0.13493 0.55749 0.55032 0.0
H774 H 0.16256 0.23584 0.03461 0.0
H775 H 0.19983 0.17271 0.05275 0.0
H776 H 0.17349 0.22992 -0.00211 0.0
H777 H 0.21087 0.16703 0.01611 0.0
H778 H 0.25455 0.19254 0.94917 0.0
H779 H 0.24742 0.20258 0.98591 0.0
H780 H 0.1492 0.18126 0.97252 0.0
H781 H 0.15609 0.17104 0.93599 0.0
C782 C 0.17329 0.22093 0.03077 0.0
C783 C 0.18016 0.20459 0.04652 0.0
C784 C 0.17942 0.21745 0.00979 0.0
C785 C 0.19297 0.19799 0.00423 0.0
C786 C 0.20064 0.18237 0.02001 0.0
C787 C 0.1941 0.18547 0.04094 0.0
C788 C 0.23148 0.19004 0.95409 0.0
C789 C 0.20585 0.18088 0.93973 0.0
C790 C 0.22739 0.1957 0.97508 0.0
C791 C 0.19781 0.19281 0.98197 0.0
C792 C 0.17236 0.184 0.96756 0.0
C793 C 0.17625 0.1779 0.9467 0.0
H794 H 0.79205 0.97101 0.93565 0.0
H795 H 0.83947 0.07325 0.95284 0.0
H796 H 0.78201 0.95579 0.9725 0.0
H797 H 0.82937 0.05787 0.98978 0.0
H798 H 0.84399 0.01552 0.05163 0.0
H799 H 0.8506 0.03124 0.01487 0.0
H800 H 0.74961 0.95877 0.00335 0.0
H801 H 0.74283 0.94296 0.04026 0.0
C802 C 0.80017 0.99023 0.94729 0.0
C803 C 0.81672 0.02336 0.94137 0.0
C804 C 0.79423 0.98148 0.96836 0.0
C805 C 0.80501 0.00566 0.98395 0.0
C806 C 0.82107 0.03877 0.97805 0.0
C807 C 0.82669 0.04754 0.95693 0.0
C808 C 0.82318 0.00284 0.04128 0.0
C809 C 0.79289 0.97791 0.04883 0.0
C810 C 0.82693 0.01207 0.02028 0.0
C811 C 0.80058 0.99633 0.00633 0.0
C812 C 0.77034 0.97121 0.01379 0.0
C813 C 0.76647 0.96222 0.03489 0.0
H814 H 0.93201 0.74401 0.95516 0.0
H815 H -0.0012 0.84581 0.94092 0.0
H816 H 0.94317 0.75598 0.99247 0.0
H817 H 0.01019 0.85752 0.97799 0.0
H818 H 0.99507 0.87328 0.04647 0.0
H819 H 0.98225 0.85992 0.00961 0.0
H820 H 0.98856 0.77258 0.01771 0.0
H821 H 0.00094 0.78567 0.05476 0.0
C822 C 0.94904 0.76889 0.95997 0.0
C823 C 0.96443 0.79395 0.94508 0.0
C824 C 0.95557 0.77569 0.98131 0.0
C825 C 0.97749 0.80771 0.98816 0.0
C826 C 0.99283 0.83271 0.97324 0.0
C827 C 0.9864 0.82592 0.95197 0.0
C828 C 0.99375 0.85123 0.04042 0.0
C829 C -0.00087 0.83059 0.05353 0.0
C830 C 0.98653 0.84364 0.01927 0.0
C831 C 0.98447 0.81523 0.01075 0.0
C832 C 0.98964 0.79446 0.02388 0.0
C833 C 0.99696 0.8021 0.04505 0.0
H834 H 0.87458 0.47701 0.2836 0.0
H835 H 0.85954 0.55658 0.26569 0.0
H836 H 0.87174 0.48921 0.32037 0.0
H837 H 0.85629 0.56846 0.30251 0.0
H838 H 0.88152 0.59664 0.37227 0.0
H839 H 0.88881 0.58809 0.33531 0.0
H840 H 0.82784 0.4837 0.34369 0.0
H841 H 0.82082 0.49206 0.38042 0.0
C842 C 0.87086 0.49721 0.28749 0.0
C843 C 0.86707 0.51567 0.27171 0.0
C844 C 0.86905 0.50408 0.30856 0.0
C845 C 0.8635 0.52961 0.31432 0.0
C846 C 0.8608 0.54877 0.29857 0.0
C847 C 0.8625 0.54183 0.27747 0.0
C848 C 0.86962 0.5719 0.36619 0.0
C849 C 0.85067 0.54506 0.37931 0.0
C850 C 0.87374 0.56702 0.34503 0.0
C851 C 0.85914 0.53521 0.33666 0.0
C852 C 0.83991 0.50847 0.34976 0.0
C853 C 0.83569 0.51332 0.3708 0.0
H854 H 0.44142 0.31102 0.27146 0.0
H855 H 0.51466 0.40768 0.29183 0.0
H856 H 0.42989 0.29305 0.30769 0.0
H857 H 0.5044 0.3894 0.3281 0.0
H858 H 0.46525 0.35452 0.39281 0.0
H859 H 0.46858 0.37261 0.3568 0.0
H860 H 0.454 0.27953 0.33492 0.0
H861 H 0.44906 0.26102 0.37097 0.0
C862 C 0.45503 0.32844 0.28374 0.0
C863 C 0.47904 0.36071 0.27886 0.0
C864 C 0.44862 0.31808 0.30451 0.0
C865 C 0.46647 0.33959 0.32089 0.0
C866 C 0.48984 0.37221 0.31597 0.0
C867 C 0.49586 0.38272 0.29516 0.0
C868 C 0.46249 0.33786 0.38026 0.0
C869 C 0.457 0.30639 0.38466 0.0
C870 C 0.46461 0.3483 0.35961 0.0
C871 C 0.46181 0.32769 0.34287 0.0
C872 C 0.45573 0.29594 0.34735 0.0
C873 C 0.45308 0.28532 0.36802 0.0
H874 H 0.73594 0.19523 0.37051 0.0
H875 H 0.63923 0.11955 0.38921 0.0
H876 H 0.71919 0.18506 0.33391 0.0
H877 H 0.62275 0.10905 0.35263 0.0
H878 H 0.59562 0.13146 0.28781 0.0
H879 H 0.612 0.13718 0.32443 0.0
H880 H 0.70326 0.14407 0.3062 0.0
H881 H 0.68721 0.13894 0.26958 0.0
C882 C 0.71123 0.17621 0.36681 0.0
C883 C 0.68889 0.15833 0.38277 0.0
C884 C 0.70168 0.17027 0.34584 0.0
C885 C 0.6696 0.14632 0.34039 0.0
C886 C 0.64749 0.12798 0.35634 0.0
C887 C 0.65702 0.13389 0.3773 0.0
C888 C 0.61907 0.13396 0.29161 0.0
C889 C 0.64016 0.1349 0.27577 0.0
C890 C 0.62839 0.13708 0.31261 0.0
C891 C 0.65899 0.14121 0.3182 0.0
C892 C 0.67974 0.1414 0.30237 0.0
C893 C 0.67043 0.13826 0.28139 0.0
H894 H 0.49769 0.85351 0.6024 0.0
H895 H 0.58427 0.84733 0.61458 0.0
H896 H 0.4937 0.8632 0.63952 0.0
H897 H 0.57988 0.85664 0.65191 0.0
H898 H 0.52669 0.82697 0.71737 0.0
H899 H 0.53587 0.8224 0.68024 0.0
H900 H 0.52835 0.90797 0.66743 0.0
H901 H 0.51955 0.91293 0.70477 0.0
C902 C 0.51585 0.85419 0.61302 0.0
C903 C 0.54122 0.84949 0.60564 0.0
C904 C 0.51369 0.86001 0.63421 0.0
C905 C 0.53652 0.86072 0.64848 0.0
C906 C 0.56195 0.85611 0.64115 0.0
C907 C 0.56447 0.85085 0.61985 0.0
C908 C 0.5271 0.8449 0.70666 0.0
C909 C 0.52224 0.87023 0.71393 0.0
C910 C 0.53261 0.8424 0.68546 0.0
C911 C 0.53284 0.86485 0.67107 0.0
C912 C 0.52816 0.89031 0.67829 0.0
C913 C 0.52322 0.89318 0.69959 0.0
H914 H 0.13408 0.63562 0.60712 0.0
H915 H 0.15214 0.73239 0.62261 0.0
H916 H 0.13028 0.6224 0.64414 0.0
H917 H 0.14859 0.71907 0.65985 0.0
H918 H 0.11281 0.67145 0.7249 0.0
H919 H 0.11009 0.68244 0.68777 0.0
H920 H 0.17082 0.64099 0.67276 0.0
H921 H 0.17339 0.62984 0.70964 0.0
C922 C 0.13706 0.65405 0.61841 0.0
C923 C 0.14372 0.6852 0.6119 0.0
C924 C 0.135 0.64647 0.63964 0.0
C925 C 0.13947 0.66979 0.65488 0.0
C926 C 0.14487 0.70054 0.64843 0.0
C927 C 0.14704 0.7082 0.62712 0.0
C928 C 0.12539 0.6645 0.71364 0.0
C929 C 0.14331 0.64976 0.7202 0.0
C930 C 0.12398 0.67098 0.69242 0.0
C931 C 0.14017 0.66251 0.67738 0.0
C932 C 0.15773 0.64742 0.68395 0.0
C933 C 0.15935 0.64119 0.70511 0.0
H934 H 0.35747 0.49136 0.60926 0.0
H935 H 0.26004 0.41255 0.62351 0.0
H936 H 0.37215 0.4952 0.64618 0.0
H937 H 0.2748 0.41667 0.66053 0.0
H938 H 0.30388 0.47029 0.72502 0.0
H939 H 0.28982 0.46194 0.68801 0.0
H940 H 0.37834 0.45993 0.67482 0.0
H941 H 0.39248 0.46804 0.71211 0.0
C942 C 0.33921 0.47482 0.62027 0.0
C943 C 0.30752 0.45177 0.61354 0.0
C944 C 0.34773 0.47687 0.64135 0.0
C945 C 0.3246 0.45625 0.65613 0.0
C946 C 0.29301 0.43296 0.6494 0.0
C947 C 0.28462 0.43056 0.62825 0.0
C948 C 0.32039 0.46804 0.71427 0.0
C949 C 0.34937 0.46993 0.72145 0.0
C950 C 0.31217 0.463 0.69312 0.0
C951 C 0.33293 0.46017 0.67864 0.0
C952 C 0.36198 0.46213 0.68573 0.0
C953 C 0.37001 0.46669 0.70701 0.0
loop_
_geom_bond_atom_site_label_1
_geom_bond_atom_site_label_2
_geom_bond_distance
_geom_bond_site_symmetry_2
_ccdc_geom_bond_type
C0 O1 1.160 . S
C0 O7 1.185 . S
O1 C0 1.160 . S
O2 Zn3 1.899 . S
O2 C10 1.284 . S
Zn3 O2 1.899 . S
Zn3 O4 2.032 . S
Zn3 O7 2.086 . S
Zn3 O12 1.977 . S
O4 Zn3 2.032 . S
O4 C8 1.278 . S
C5 O6 1.203 . S
C5 O12 1.267 . S
O6 C5 1.203 . S
O7 C0 1.185 . S
O7 Zn3 2.086 . S
C8 O4 1.278 . S
C8 O9 1.211 . S
O9 C8 1.211 . S
C10 O2 1.284 . S
C10 O11 1.273 . S
O11 C10 1.273 . S
O12 Zn3 1.977 . S
O12 C5 1.267 . S
C13 O14 1.160 . S
C13 O20 1.185 1_545 S
O14 C13 1.160 . S
O15 Zn16 1.899 1_545 S
O15 C23 1.284 . S
Zn16 O15 1.899 1_565 S
Zn16 O17 2.032 1_565 S
Zn16 O20 2.086 . S
Zn16 O25 1.977 . S
O17 Zn16 2.032 1_545 S
O17 C21 1.278 1_545 S
C18 O19 1.203 . S
C18 O25 1.267 . S
O19 C18 1.203 . S
O20 C13 1.185 1_565 S
O20 Zn16 2.086 . S
C21 O17 1.278 1_565 S
C21 O22 1.211 . S
O22 C21 1.211 . S
C23 O15 1.284 . S
C23 O24 1.273 . S
O24 C23 1.273 . S
O25 Zn16 1.977 . S
O25 C18 1.267 . S
C26 O27 1.160 . S
C26 O33 1.185 1_655 S
O27 C26 1.160 . S
O28 Zn29 1.899 1_655 S
O28 C36 1.284 . S
Zn29 O28 1.899 1_455 S
Zn29 O30 2.032 1_455 S
Zn29 O33 2.086 . S
Zn29 O38 1.977 . S
O30 Zn29 2.032 1_655 S
O30 C34 1.278 1_655 S
C31 O32 1.203 . S
C31 O38 1.267 . S
O32 C31 1.203 . S
O33 C26 1.185 1_455 S
O33 Zn29 2.086 . S
C34 O30 1.278 1_455 S
C34 O35 1.211 . S
O35 C34 1.211 . S
C36 O28 1.284 . S
C36 O37 1.273 . S
O37 C36 1.273 . S
O38 Zn29 1.977 . S
O38 C31 1.267 . S
C39 O40 1.160 . S
C39 O46 1.185 . S
O40 C39 1.160 . S
O41 Zn42 1.899 . S
O41 C49 1.284 . S
Zn42 O41 1.899 . S
Zn42 O43 2.032 . S
Zn42 O46 2.086 . S
Zn42 O51 1.977 . S
O43 Zn42 2.032 . S
O43 C47 1.278 . S
C44 O45 1.203 . S
C44 O51 1.267 . S
O45 C44 1.203 . S
O46 C39 1.185 . S
O46 Zn42 2.086 . S
C47 O43 1.278 . S
C47 O48 1.211 . S
O48 C47 1.211 . S
C49 O41 1.284 . S
C49 O50 1.273 . S
O50 C49 1.273 . S
O51 Zn42 1.977 . S
O51 C44 1.267 . S
C52 O53 1.160 . S
C52 O59 1.185 1_565 S
O53 C52 1.160 . S
O54 Zn55 1.899 1_565 S
O54 C62 1.284 . S
Zn55 O54 1.899 1_545 S
Zn55 O56 2.032 1_545 S
Zn55 O59 2.086 . S
Zn55 O64 1.977 . S
O56 Zn55 2.032 1_565 S
O56 C60 1.278 1_565 S
C57 O58 1.203 . S
C57 O64 1.267 . S
O58 C57 1.203 . S
O59 C52 1.185 1_545 S
O59 Zn55 2.086 . S
C60 O56 1.278 1_545 S
C60 O61 1.211 . S
O61 C60 1.211 . S
C62 O54 1.284 . S
C62 O63 1.273 . S
O63 C62 1.273 . S
O64 Zn55 1.977 . S
O64 C57 1.267 . S
C65 O66 1.160 . S
C65 O72 1.185 1_455 S
O66 C65 1.160 . S
O67 Zn68 1.899 1_455 S
O67 C75 1.284 . S
Zn68 O67 1.899 1_655 S
Zn68 O69 2.032 1_655 S
Zn68 O72 2.086 . S
Zn68 O77 1.977 . S
O69 Zn68 2.032 1_455 S
O69 C73 1.278 1_455 S
C70 O71 1.203 . S
C70 O77 1.267 . S
O71 C70 1.203 . S
O72 C65 1.185 1_655 S
O72 Zn68 2.086 . S
C73 O69 1.278 1_655 S
C73 O74 1.211 . S
O74 C73 1.211 . S
C75 O67 1.284 . S
C75 O76 1.273 . S
O76 C75 1.273 . S
O77 Zn68 1.977 . S
O77 C70 1.267 . S
C78 O79 1.160 . S
C78 O85 1.185 . S
O79 C78 1.160 . S
O80 Zn81 1.899 . S
O80 C88 1.284 . S
Zn81 O80 1.899 . S
Zn81 O82 2.032 . S
Zn81 O85 2.086 . S
Zn81 O90 1.977 . S
O82 Zn81 2.032 . S
O82 C86 1.278 . S
C83 O84 1.203 . S
C83 O90 1.267 . S
O84 C83 1.203 . S
O85 C78 1.185 . S
O85 Zn81 2.086 . S
C86 O82 1.278 . S
C86 O87 1.211 . S
O87 C86 1.211 . S
C88 O80 1.284 . S
C88 O89 1.273 . S
O89 C88 1.273 . S
O90 Zn81 1.977 . S
O90 C83 1.267 . S
C91 O92 1.160 . S
C91 O98 1.185 . S
O92 C91 1.160 . S
O93 Zn94 1.899 . S
O93 C101 1.284 . S
Zn94 O93 1.899 . S
Zn94 O95 2.032 . S
Zn94 O98 2.086 . S
Zn94 O103 1.977 . S
O95 Zn94 2.032 . S
O95 C99 1.278 . S
C96 O97 1.203 . S
C96 O103 1.267 . S
O97 C96 1.203 . S
O98 C91 1.185 . S
O98 Zn94 2.086 . S
C99 O95 1.278 . S
C99 O100 1.211 . S
O100 C99 1.211 . S
C101 O93 1.284 . S
C101 O102 1.273 . S
O102 C101 1.273 . S
O103 Zn94 1.977 . S
O103 C96 1.267 . S
C104 O105 1.160 . S
C104 O111 1.185 . S
O105 C104 1.160 . S
O106 Zn107 1.899 . S
O106 C114 1.284 . S
Zn107 O106 1.899 . S
Zn107 O108 2.032 . S
Zn107 O111 2.086 . S
Zn107 O116 1.977 . S
O108 Zn107 2.032 . S
O108 C112 1.278 . S
C109 O110 1.203 . S
C109 O116 1.267 . S
O110 C109 1.203 . S
O111 C104 1.185 . S
O111 Zn107 2.086 . S
C112 O108 1.278 . S
C112 O113 1.211 . S
O113 C112 1.211 . S
C114 O106 1.284 . S
C114 O115 1.273 . S
O115 C114 1.273 . S
O116 Zn107 1.977 . S
O116 C109 1.267 . S
C117 O118 1.160 . S
C117 O124 1.185 . S
O118 C117 1.160 . S
O119 Zn120 1.899 . S
O119 C127 1.284 . S
Zn120 O119 1.899 . S
Zn120 O121 2.032 . S
Zn120 O124 2.086 . S
Zn120 O129 1.977 . S
O121 Zn120 2.032 . S
O121 C125 1.278 . S
C122 O123 1.203 . S
C122 O129 1.267 . S
O123 C122 1.203 . S
O124 C117 1.185 . S
O124 Zn120 2.086 . S
C125 O121 1.278 . S
C125 O126 1.211 . S
O126 C125 1.211 . S
C127 O119 1.284 . S
C127 O128 1.273 . S
O128 C127 1.273 . S
O129 Zn120 1.977 . S
O129 C122 1.267 . S
C130 O131 1.160 . S
C130 O137 1.185 . S
O131 C130 1.160 . S
O132 Zn133 1.899 . S
O132 C140 1.284 . S
Zn133 O132 1.899 . S
Zn133 O134 2.032 . S
Zn133 O137 2.086 . S
Zn133 O142 1.977 . S
O134 Zn133 2.032 . S
O134 C138 1.278 . S
C135 O136 1.203 . S
C135 O142 1.267 . S
O136 C135 1.203 . S
O137 C130 1.185 . S
O137 Zn133 2.086 . S
C138 O134 1.278 . S
C138 O139 1.211 . S
O139 C138 1.211 . S
C140 O132 1.284 . S
C140 O141 1.273 . S
O141 C140 1.273 . S
O142 Zn133 1.977 . S
O142 C135 1.267 . S
C143 O144 1.160 . S
C143 O150 1.185 . S
O144 C143 1.160 . S
O145 Zn146 1.899 . S
O145 C153 1.284 . S
Zn146 O145 1.899 . S
Zn146 O147 2.032 . S
Zn146 O150 2.086 . S
Zn146 O155 1.977 . S
O147 Zn146 2.032 . S
O147 C151 1.278 . S
C148 O149 1.203 . S
C148 O155 1.267 . S
O149 C148 1.203 . S
O150 C143 1.185 . S
O150 Zn146 2.086 . S
C151 O147 1.278 . S
C151 O152 1.211 . S
O152 C151 1.211 . S
C153 O145 1.284 . S
C153 O154 1.273 . S
O154 C153 1.273 . S
O155 Zn146 1.977 . S
O155 C148 1.267 . S
C156 O157 1.160 . S
C156 O163 1.185 . S
O157 C156 1.160 . S
O158 Zn159 1.899 . S
O158 C166 1.284 . S
Zn159 O158 1.899 . S
Zn159 O160 2.032 . S
Zn159 O163 2.086 . S
Zn159 O168 1.977 . S
O160 Zn159 2.032 . S
O160 C164 1.278 . S
C161 O162 1.203 . S
C161 O168 1.267 . S
O162 C161 1.203 . S
O163 C156 1.185 . S
O163 Zn159 2.086 . S
C164 O160 1.278 . S
C164 O165 1.211 . S
O165 C164 1.211 . S
C166 O158 1.284 . S
C166 O167 1.273 . S
O167 C166 1.273 . S
O168 Zn159 1.977 . S
O168 C161 1.267 . S
C169 O170 1.160 . S
C169 O176 1.185 . S
O170 C169 1.160 . S
O171 Zn172 1.899 . S
O171 C179 1.284 . S
Zn172 O171 1.899 . S
Zn172 O173 2.032 . S
Zn172 O176 2.086 . S
Zn172 O181 1.977 . S
O173 Zn172 2.032 . S
O173 C177 1.278 . S
C174 O175 1.203 . S
C174 O181 1.267 . S
O175 C174 1.203 . S
O176 C169 1.185 . S
O176 Zn172 2.086 . S
C177 O173 1.278 . S
C177 O178 1.211 . S
O178 C177 1.211 . S
C179 O171 1.284 . S
C179 O180 1.273 . S
O180 C179 1.273 . S
O181 Zn172 1.977 . S
O181 C174 1.267 . S
C182 O183 1.160 . S
C182 O189 1.185 . S
O183 C182 1.160 . S
O184 Zn185 1.899 . S
O184 C192 1.284 . S
Zn185 O184 1.899 . S
Zn185 O186 2.032 . S
Zn185 O189 2.086 . S
Zn185 O194 1.977 . S
O186 Zn185 2.032 . S
O186 C190 1.278 . S
C187 O188 1.203 . S
C187 O194 1.267 . S
O188 C187 1.203 . S
O189 C182 1.185 . S
O189 Zn185 2.086 . S
C190 O186 1.278 . S
C190 O191 1.211 . S
O191 C190 1.211 . S
C192 O184 1.284 . S
C192 O193 1.273 . S
O193 C192 1.273 . S
O194 Zn185 1.977 . S
O194 C187 1.267 . S
C195 O196 1.160 . S
C195 O202 1.185 . S
O196 C195 1.160 . S
O197 Zn198 1.899 . S
O197 C205 1.284 . S
Zn198 O197 1.899 . S
Zn198 O199 2.032 . S
Zn198 O202 2.086 . S
Zn198 O207 1.977 . S
O199 Zn198 2.032 . S
O199 C203 1.278 . S
C200 O201 1.203 . S
C200 O207 1.267 . S
O201 C200 1.203 . S
O202 C195 1.185 . S
O202 Zn198 2.086 . S
C203 O199 1.278 . S
C203 O204 1.211 . S
O204 C203 1.211 . S
C205 O197 1.284 . S
C205 O206 1.273 . S
O206 C205 1.273 . S
O207 Zn198 1.977 . S
O207 C200 1.267 . S
C208 O209 1.160 . S
C208 O215 1.185 . S
O209 C208 1.160 . S
O210 Zn211 1.899 . S
O210 C218 1.284 . S
Zn211 O210 1.899 . S
Zn211 O212 2.032 . S
Zn211 O215 2.086 . S
Zn211 O220 1.977 . S
O212 Zn211 2.032 . S
O212 C216 1.278 . S
C213 O214 1.203 . S
C213 O220 1.267 . S
O214 C213 1.203 . S
O215 C208 1.185 . S
O215 Zn211 2.086 . S
C216 O212 1.278 . S
C216 O217 1.211 . S
O217 C216 1.211 . S
C218 O210 1.284 . S
C218 O219 1.273 . S
O219 C218 1.273 . S
O220 Zn211 1.977 . S
O220 C213 1.267 . S
C221 O222 1.160 . S
C221 O228 1.185 . S
O222 C221 1.160 . S
O223 Zn224 1.899 . S
O223 C231 1.284 . S
Zn224 O223 1.899 . S
Zn224 O225 2.032 . S
Zn224 O228 2.086 . S
Zn224 O233 1.977 . S
O225 Zn224 2.032 . S
O225 C229 1.278 . S
C226 O227 1.203 . S
C226 O233 1.267 . S
O227 C226 1.203 . S
O228 C221 1.185 . S
O228 Zn224 2.086 . S
C229 O225 1.278 . S
C229 O230 1.211 . S
O230 C229 1.211 . S
C231 O223 1.284 . S
C231 O232 1.273 . S
O232 C231 1.273 . S
O233 Zn224 1.977 . S
O233 C226 1.267 . S
H234 C242 0.950 . S
H235 C247 0.950 . S
H236 C244 0.950 . S
H237 C246 0.950 . S
H238 C248 0.950 . S
H239 C250 0.950 . S
H240 C252 0.950 . S
H241 C253 0.950 . S
C242 H234 0.950 . S
C242 C243 1.386 . S
C242 C244 1.391 . S
C243 C242 1.386 . S
C243 C247 1.393 . S
C244 H236 0.950 . S
C244 C242 1.391 . S
C244 C245 1.400 . S
C245 C244 1.400 . S
C245 C246 1.398 . S
C245 C251 1.491 . S
C246 H237 0.950 . S
C246 C245 1.398 . S
C246 C247 1.391 . S
C247 H235 0.950 . S
C247 C243 1.393 . S
C247 C246 1.391 . S
C248 H238 0.950 . S
C248 C249 1.386 . S
C248 C250 1.391 . S
C249 C248 1.386 . S
C249 C253 1.393 . S
C250 H239 0.950 . S
C250 C248 1.391 . S
C250 C251 1.400 . S
C251 C245 1.491 . S
C251 C250 1.400 . S
C251 C252 1.398 . S
C252 H240 0.950 . S
C252 C251 1.398 . S
C252 C253 1.391 . S
C253 H241 0.950 . S
C253 C249 1.393 . S
C253 C252 1.391 . S
H254 C262 0.950 1_565 S
H255 C267 0.950 . S
H256 C264 0.950 . S
H257 C266 0.950 . S
H258 C268 0.950 . S
H259 C270 0.950 . S
H260 C272 0.950 . S
H261 C273 0.950 . S
C262 H254 0.950 1_545 S
C262 C263 1.386 . S
C262 C264 1.391 . S
C263 C262 1.386 . S
C263 C267 1.393 . S
C264 H256 0.950 . S
C264 C262 1.391 . S
C264 C265 1.400 . S
C265 C264 1.400 . S
C265 C266 1.398 . S
C265 C271 1.491 . S
C266 H257 0.950 . S
C266 C265 1.398 . S
C266 C267 1.391 . S
C267 H255 0.950 . S
C267 C263 1.393 . S
C267 C266 1.391 . S
C268 H258 0.950 . S
C268 C269 1.386 . S
C268 C270 1.391 . S
C269 C268 1.386 . S
C269 C273 1.393 . S
C270 H259 0.950 . S
C270 C268 1.391 . S
C270 C271 1.400 . S
C271 C265 1.491 . S
C271 C270 1.400 . S
C271 C272 1.398 . S
C272 H260 0.950 . S
C272 C271 1.398 . S
C272 C273 1.391 . S
C273 H261 0.950 . S
C273 C269 1.393 . S
C273 C272 1.391 . S
H274 C282 0.950 . S
H275 C287 0.950 . S
H276 C284 0.950 . S
H277 C286 0.950 . S
H278 C288 0.950 . S
H279 C290 0.950 . S
H280 C292 0.950 . S
H281 C293 0.950 . S
C282 H274 0.950 . S
C282 C283 1.386 . S
C282 C284 1.391 . S
C283 C282 1.386 . S
C283 C287 1.393 . S
C284 H276 0.950 . S
C284 C282 1.391 . S
C284 C285 1.400 . S
C285 C284 1.400 . S
C285 C286 1.398 . S
C285 C291 1.491 . S
C286 H277 0.950 . S
C286 C285 1.398 . S
C286 C287 1.391 . S
C287 H275 0.950 . S
C287 C283 1.393 . S
C287 C286 1.391 . S
C288 H278 0.950 . S
C288 C289 1.386 . S
C288 C290 1.391 . S
C289 C288 1.386 . S
C289 C293 1.393 . S
C290 H279 0.950 . S
C290 C288 1.391 . S
C290 C291 1.400 . S
C291 C285 1.491 . S
C291 C290 1.400 . S
C291 C292 1.398 . S
C292 H280 0.950 . S
C292 C291 1.398 . S
C292 C293 1.391 . S
C293 H281 0.950 . S
C293 C289 1.393 . S
C293 C292 1.391 . S
H294 C302 0.950 . S
H295 C307 0.950 . S
H296 C304 0.950 . S
H297 C306 0.950 . S
H298 C308 0.950 . S
H299 C310 0.950 . S
H300 C312 0.950 . S
H301 C313 0.950 . S
C302 H294 0.950 . S
C302 C303 1.386 . S
C302 C304 1.391 . S
C303 C302 1.386 . S
C303 C307 1.393 . S
C304 H296 0.950 . S
C304 C302 1.391 . S
C304 C305 1.400 . S
C305 C304 1.400 . S
C305 C306 1.398 . S
C305 C311 1.491 . S
C306 H297 0.950 . S
C306 C305 1.398 . S
C306 C307 1.391 . S
C307 H295 0.950 . S
C307 C303 1.393 . S
C307 C306 1.391 . S
C308 H298 0.950 . S
C308 C309 1.386 . S
C308 C310 1.391 . S
C309 C308 1.386 . S
C309 C313 1.393 . S
C310 H299 0.950 . S
C310 C308 1.391 . S
C310 C311 1.400 . S
C311 C305 1.491 . S
C311 C310 1.400 . S
C311 C312 1.398 . S
C312 H300 0.950 . S
C312 C311 1.398 . S
C312 C313 1.391 . S
C313 H301 0.950 . S
C313 C309 1.393 . S
C313 C312 1.391 . S
H314 C322 0.950 . S
H315 C327 0.950 . S
H316 C324 0.950 . S
H317 C326 0.950 . S
H318 C328 0.950 . S
H319 C330 0.950 . S
H320 C332 0.950 . S
H321 C333 0.950 . S
C322 H314 0.950 . S
C322 C323 1.386 . S
C322 C324 1.391 . S
C323 C322 1.386 . S
C323 C327 1.393 . S
C324 H316 0.950 . S
C324 C322 1.391 . S
C324 C325 1.400 . S
C325 C324 1.400 . S
C325 C326 1.398 . S
C325 C331 1.491 . S
C326 H317 0.950 . S
C326 C325 1.398 . S
C326 C327 1.391 . S
C327 H315 0.950 . S
C327 C323 1.393 . S
C327 C326 1.391 . S
C328 H318 0.950 . S
C328 C329 1.386 . S
C328 C330 1.391 . S
C329 C328 1.386 . S
C329 C333 1.393 . S
C330 H319 0.950 . S
C330 C328 1.391 . S
C330 C331 1.400 . S
C331 C325 1.491 . S
C331 C330 1.400 . S
C331 C332 1.398 . S
C332 H320 0.950 . S
C332 C331 1.398 . S
C332 C333 1.391 . S
C333 H321 0.950 . S
C333 C329 1.393 . S
C333 C332 1.391 . S
H334 C342 0.950 . S
H335 C347 0.950 . S
H336 C344 0.950 . S
H337 C346 0.950 . S
H338 C348 0.950 . S
H339 C350 0.950 . S
H340 C352 0.950 . S
H341 C353 0.950 . S
C342 H334 0.950 . S
C342 C343 1.386 . S
C342 C344 1.391 . S
C343 C342 1.386 . S
C343 C347 1.393 . S
C344 H336 0.950 . S
C344 C342 1.391 . S
C344 C345 1.400 . S
C345 C344 1.400 . S
C345 C346 1.398 . S
C345 C351 1.491 . S
C346 H337 0.950 . S
C346 C345 1.398 . S
C346 C347 1.391 . S
C347 H335 0.950 . S
C347 C343 1.393 . S
C347 C346 1.391 . S
C348 H338 0.950 . S
C348 C349 1.386 . S
C348 C350 1.391 . S
C349 C348 1.386 . S
C349 C353 1.393 . S
C350 H339 0.950 . S
C350 C348 1.391 . S
C350 C351 1.400 . S
C351 C345 1.491 . S
C351 C350 1.400 . S
C351 C352 1.398 . S
C352 H340 0.950 . S
C352 C351 1.398 . S
C352 C353 1.391 . S
C353 H341 0.950 . S
C353 C349 1.393 . S
C353 C352 1.391 . S
H354 C362 0.950 . S
H355 C367 0.950 . S
H356 C364 0.950 . S
H357 C366 0.950 . S
H358 C368 0.950 . S
H359 C370 0.950 . S
H360 C372 0.950 . S
H361 C373 0.950 . S
C362 H354 0.950 . S
C362 C363 1.386 . S
C362 C364 1.391 . S
C363 C362 1.386 . S
C363 C367 1.393 . S
C364 H356 0.950 . S
C364 C362 1.391 . S
C364 C365 1.400 . S
C365 C364 1.400 . S
C365 C366 1.398 . S
C365 C371 1.491 1_655 S
C366 H357 0.950 . S
C366 C365 1.398 . S
C366 C367 1.391 . S
C367 H355 0.950 . S
C367 C363 1.393 . S
C367 C366 1.391 . S
C368 H358 0.950 . S
C368 C369 1.386 . S
C368 C370 1.391 . S
C369 C368 1.386 . S
C369 C373 1.393 . S
C370 H359 0.950 . S
C370 C368 1.391 . S
C370 C371 1.400 . S
C371 C365 1.491 1_455 S
C371 C370 1.400 . S
C371 C372 1.398 . S
C372 H360 0.950 . S
C372 C371 1.398 . S
C372 C373 1.391 . S
C373 H361 0.950 . S
C373 C369 1.393 . S
C373 C372 1.391 . S
H374 C382 0.950 . S
H375 C387 0.950 . S
H376 C384 0.950 . S
H377 C386 0.950 . S
H378 C388 0.950 . S
H379 C390 0.950 . S
H380 C392 0.950 . S
H381 C393 0.950 . S
C382 H374 0.950 . S
C382 C383 1.386 . S
C382 C384 1.391 . S
C383 C382 1.386 . S
C383 C387 1.393 . S
C384 H376 0.950 . S
C384 C382 1.391 . S
C384 C385 1.400 . S
C385 C384 1.400 . S
C385 C386 1.398 . S
C385 C391 1.491 . S
C386 H377 0.950 . S
C386 C385 1.398 . S
C386 C387 1.391 . S
C387 H375 0.950 . S
C387 C383 1.393 . S
C387 C386 1.391 . S
C388 H378 0.950 . S
C388 C389 1.386 . S
C388 C390 1.391 . S
C389 C388 1.386 . S
C389 C393 1.393 . S
C390 H379 0.950 . S
C390 C388 1.391 . S
C390 C391 1.400 . S
C391 C385 1.491 . S
C391 C390 1.400 . S
C391 C392 1.398 . S
C392 H380 0.950 . S
C392 C391 1.398 . S
C392 C393 1.391 . S
C393 H381 0.950 . S
C393 C389 1.393 . S
C393 C392 1.391 . S
H394 C402 0.950 . S
H395 C407 0.950 . S
H396 C404 0.950 . S
H397 C406 0.950 . S
H398 C408 0.950 . S
H399 C410 0.950 . S
H400 C412 0.950 . S
H401 C413 0.950 . S
C402 H394 0.950 . S
C402 C403 1.386 . S
C402 C404 1.391 . S
C403 C402 1.386 . S
C403 C407 1.393 . S
C404 H396 0.950 . S
C404 C402 1.391 . S
C404 C405 1.400 . S
C405 C404 1.400 . S
C405 C406 1.398 . S
C405 C411 1.491 1_545 S
C406 H397 0.950 . S
C406 C405 1.398 . S
C406 C407 1.391 . S
C407 H395 0.950 . S
C407 C403 1.393 . S
C407 C406 1.391 . S
C408 H398 0.950 . S
C408 C409 1.386 . S
C408 C410 1.391 . S
C409 C408 1.386 . S
C409 C413 1.393 . S
C410 H399 0.950 . S
C410 C408 1.391 . S
C410 C411 1.400 . S
C411 C405 1.491 1_565 S
C411 C410 1.400 . S
C411 C412 1.398 . S
C412 H400 0.950 . S
C412 C411 1.398 . S
C412 C413 1.391 . S
C413 H401 0.950 . S
C413 C409 1.393 . S
C413 C412 1.391 . S
H414 C422 0.950 . S
H415 C427 0.950 . S
H416 C424 0.950 . S
H417 C426 0.950 . S
H418 C428 0.950 . S
H419 C430 0.950 . S
H420 C432 0.950 . S
H421 C433 0.950 . S
C422 H414 0.950 . S
C422 C423 1.386 . S
C422 C424 1.391 . S
C423 C422 1.386 . S
C423 C427 1.393 . S
C424 H416 0.950 . S
C424 C422 1.391 . S
C424 C425 1.400 . S
C425 C424 1.400 . S
C425 C426 1.398 . S
C425 C431 1.491 1_455 S
C426 H417 0.950 . S
C426 C425 1.398 . S
C426 C427 1.391 . S
C427 H415 0.950 . S
C427 C423 1.393 . S
C427 C426 1.391 . S
C428 H418 0.950 . S
C428 C429 1.386 . S
C428 C430 1.391 . S
C429 C428 1.386 . S
C429 C433 1.393 . S
C430 H419 0.950 . S
C430 C428 1.391 . S
C430 C431 1.400 . S
C431 C425 1.491 1_655 S
C431 C430 1.400 . S
C431 C432 1.398 . S
C432 H420 0.950 . S
C432 C431 1.398 . S
C432 C433 1.391 . S
C433 H421 0.950 . S
C433 C429 1.393 . S
C433 C432 1.391 . S
H434 C442 0.950 . S
H435 C447 0.950 . S
H436 C444 0.950 . S
H437 C446 0.950 . S
H438 C448 0.950 . S
H439 C450 0.950 . S
H440 C452 0.950 . S
H441 C453 0.950 . S
C442 H434 0.950 . S
C442 C443 1.386 . S
C442 C444 1.391 . S
C443 C442 1.386 . S
C443 C447 1.393 . S
C444 H436 0.950 . S
C444 C442 1.391 . S
C444 C445 1.400 . S
C445 C444 1.400 . S
C445 C446 1.398 . S
C445 C451 1.491 . S
C446 H437 0.950 . S
C446 C445 1.398 . S
C446 C447 1.391 . S
C447 H435 0.950 . S
C447 C443 1.393 . S
C447 C446 1.391 . S
C448 H438 0.950 . S
C448 C449 1.386 . S
C448 C450 1.391 . S
C449 C448 1.386 . S
C449 C453 1.393 . S
C450 H439 0.950 . S
C450 C448 1.391 . S
C450 C451 1.400 . S
C451 C445 1.491 . S
C451 C450 1.400 . S
C451 C452 1.398 . S
C452 H440 0.950 . S
C452 C451 1.398 . S
C452 C453 1.391 . S
C453 H441 0.950 . S
C453 C449 1.393 . S
C453 C452 1.391 . S
H454 C462 0.950 . S
H455 C467 0.950 . S
H456 C464 0.950 . S
H457 C466 0.950 . S
H458 C468 0.950 . S
H459 C470 0.950 . S
H460 C472 0.950 . S
H461 C473 0.950 . S
C462 H454 0.950 . S
C462 C463 1.386 . S
C462 C464 1.391 . S
C463 C462 1.386 . S
C463 C467 1.393 . S
C464 H456 0.950 . S
C464 C462 1.391 . S
C464 C465 1.400 . S
C465 C464 1.400 . S
C465 C466 1.398 . S
C465 C471 1.491 1_545 S
C466 H457 0.950 . S
C466 C465 1.398 . S
C466 C467 1.391 . S
C467 H455 0.950 . S
C467 C463 1.393 . S
C467 C466 1.391 . S
C468 H458 0.950 . S
C468 C469 1.386 . S
C468 C470 1.391 . S
C469 C468 1.386 . S
C469 C473 1.393 . S
C470 H459 0.950 . S
C470 C468 1.391 . S
C470 C471 1.400 . S
C471 C465 1.491 1_565 S
C471 C470 1.400 . S
C471 C472 1.398 . S
C472 H460 0.950 . S
C472 C471 1.398 . S
C472 C473 1.391 . S
C473 H461 0.950 . S
C473 C469 1.393 . S
C473 C472 1.391 . S
H474 C482 0.950 . S
H475 C487 0.950 . S
H476 C484 0.950 . S
H477 C486 0.950 . S
H478 C488 0.950 . S
H479 C490 0.950 . S
H480 C492 0.950 . S
H481 C493 0.950 . S
C482 H474 0.950 . S
C482 C483 1.386 . S
C482 C484 1.391 . S
C483 C482 1.386 . S
C483 C487 1.393 . S
C484 H476 0.950 . S
C484 C482 1.391 . S
C484 C485 1.400 . S
C485 C484 1.400 . S
C485 C486 1.398 . S
C485 C491 1.491 1_565 S
C486 H477 0.950 . S
C486 C485 1.398 . S
C486 C487 1.391 . S
C487 H475 0.950 . S
C487 C483 1.393 . S
C487 C486 1.391 . S
C488 H478 0.950 . S
C488 C489 1.386 . S
C488 C490 1.391 . S
C489 C488 1.386 . S
C489 C493 1.393 . S
C490 H479 0.950 . S
C490 C488 1.391 . S
C490 C491 1.400 . S
C491 C485 1.491 1_545 S
C491 C490 1.400 . S
C491 C492 1.398 . S
C492 H480 0.950 . S
C492 C491 1.398 . S
C492 C493 1.391 . S
C493 H481 0.950 . S
C493 C489 1.393 . S
C493 C492 1.391 . S
H494 C502 0.950 . S
H495 C507 0.950 . S
H496 C504 0.950 . S
H497 C506 0.950 . S
H498 C508 0.950 . S
H499 C510 0.950 . S
H500 C512 0.950 . S
H501 C513 0.950 . S
C502 H494 0.950 . S
C502 C503 1.386 . S
C502 C504 1.391 . S
C503 C502 1.386 . S
C503 C507 1.393 . S
C504 H496 0.950 . S
C504 C502 1.391 . S
C504 C505 1.400 . S
C505 C504 1.400 . S
C505 C506 1.398 . S
C505 C511 1.491 1_455 S
C506 H497 0.950 . S
C506 C505 1.398 . S
C506 C507 1.391 . S
C507 H495 0.950 . S
C507 C503 1.393 . S
C507 C506 1.391 . S
C508 H498 0.950 . S
C508 C509 1.386 . S
C508 C510 1.391 . S
C509 C508 1.386 . S
C509 C513 1.393 . S
C510 H499 0.950 . S
C510 C508 1.391 . S
C510 C511 1.400 . S
C511 C505 1.491 1_655 S
C511 C510 1.400 . S
C511 C512 1.398 . S
C512 H500 0.950 . S
C512 C511 1.398 . S
C512 C513 1.391 . S
C513 H501 0.950 . S
C513 C509 1.393 . S
C513 C512 1.391 . S
H514 C522 0.950 . S
H515 C527 0.950 . S
H516 C524 0.950 . S
H517 C526 0.950 . S
H518 C528 0.950 . S
H519 C530 0.950 . S
H520 C532 0.950 . S
H521 C533 0.950 . S
C522 H514 0.950 . S
C522 C523 1.386 . S
C522 C524 1.391 . S
C523 C522 1.386 . S
C523 C527 1.393 . S
C524 H516 0.950 . S
C524 C522 1.391 . S
C524 C525 1.400 . S
C525 C524 1.400 . S
C525 C526 1.398 . S
C525 C531 1.491 . S
C526 H517 0.950 . S
C526 C525 1.398 . S
C526 C527 1.391 . S
C527 H515 0.950 . S
C527 C523 1.393 . S
C527 C526 1.391 . S
C528 H518 0.950 . S
C528 C529 1.386 . S
C528 C530 1.391 . S
C529 C528 1.386 . S
C529 C533 1.393 . S
C530 H519 0.950 . S
C530 C528 1.391 . S
C530 C531 1.400 . S
C531 C525 1.491 . S
C531 C530 1.400 . S
C531 C532 1.398 . S
C532 H520 0.950 . S
C532 C531 1.398 . S
C532 C533 1.391 . S
C533 H521 0.950 . S
C533 C529 1.393 . S
C533 C532 1.391 . S
H534 C542 0.950 . S
H535 C547 0.950 . S
H536 C544 0.950 . S
H537 C546 0.950 . S
H538 C548 0.950 . S
H539 C550 0.950 . S
H540 C552 0.950 . S
H541 C553 0.950 . S
C542 H534 0.950 . S
C542 C543 1.386 . S
C542 C544 1.391 . S
C543 C542 1.386 . S
C543 C547 1.393 . S
C544 H536 0.950 . S
C544 C542 1.391 . S
C544 C545 1.400 . S
C545 C544 1.400 . S
C545 C546 1.398 . S
C545 C551 1.491 . S
C546 H537 0.950 . S
C546 C545 1.398 . S
C546 C547 1.391 . S
C547 H535 0.950 . S
C547 C543 1.393 . S
C547 C546 1.391 . S
C548 H538 0.950 . S
C548 C549 1.386 . S
C548 C550 1.391 . S
C549 C548 1.386 . S
C549 C553 1.393 . S
C550 H539 0.950 . S
C550 C548 1.391 . S
C550 C551 1.400 . S
C551 C545 1.491 . S
C551 C550 1.400 . S
C551 C552 1.398 . S
C552 H540 0.950 . S
C552 C551 1.398 . S
C552 C553 1.391 . S
C553 H541 0.950 . S
C553 C549 1.393 . S
C553 C552 1.391 . S
H554 C562 0.950 . S
H555 C567 0.950 . S
H556 C564 0.950 . S
H557 C566 0.950 . S
H558 C568 0.950 . S
H559 C570 0.950 . S
H560 C572 0.950 . S
H561 C573 0.950 . S
C562 H554 0.950 . S
C562 C563 1.386 . S
C562 C564 1.391 . S
C563 C562 1.386 . S
C563 C567 1.393 . S
C564 H556 0.950 . S
C564 C562 1.391 . S
C564 C565 1.400 . S
C565 C564 1.400 . S
C565 C566 1.398 . S
C565 C571 1.491 . S
C566 H557 0.950 . S
C566 C565 1.398 . S
C566 C567 1.391 . S
C567 H555 0.950 . S
C567 C563 1.393 . S
C567 C566 1.391 . S
C568 H558 0.950 . S
C568 C569 1.386 . S
C568 C570 1.391 . S
C569 C568 1.386 . S
C569 C573 1.393 . S
C570 H559 0.950 . S
C570 C568 1.391 . S
C570 C571 1.400 . S
C571 C565 1.491 . S
C571 C570 1.400 . S
C571 C572 1.398 . S
C572 H560 0.950 . S
C572 C571 1.398 . S
C572 C573 1.391 . S
C573 H561 0.950 . S
C573 C569 1.393 . S
C573 C572 1.391 . S
H574 C582 0.950 . S
H575 C587 0.950 . S
H576 C584 0.950 . S
H577 C586 0.950 . S
H578 C588 0.950 . S
H579 C590 0.950 . S
H580 C592 0.950 . S
H581 C593 0.950 . S
C582 H574 0.950 . S
C582 C583 1.386 . S
C582 C584 1.391 . S
C583 C582 1.386 . S
C583 C587 1.393 . S
C584 H576 0.950 . S
C584 C582 1.391 . S
C584 C585 1.400 . S
C585 C584 1.400 . S
C585 C586 1.398 . S
C585 C591 1.491 . S
C586 H577 0.950 . S
C586 C585 1.398 . S
C586 C587 1.391 . S
C587 H575 0.950 . S
C587 C583 1.393 . S
C587 C586 1.391 . S
C588 H578 0.950 . S
C588 C589 1.386 . S
C588 C590 1.391 . S
C589 C588 1.386 . S
C589 C593 1.393 . S
C590 H579 0.950 . S
C590 C588 1.391 . S
C590 C591 1.400 . S
C591 C585 1.491 . S
C591 C590 1.400 . S
C591 C592 1.398 . S
C592 H580 0.950 . S
C592 C591 1.398 . S
C592 C593 1.391 . S
C593 H581 0.950 . S
C593 C589 1.393 . S
C593 C592 1.391 . S
H594 C602 0.950 . S
H595 C607 0.950 . S
H596 C604 0.950 . S
H597 C606 0.950 . S
H598 C608 0.950 . S
H599 C610 0.950 . S
H600 C612 0.950 . S
H601 C613 0.950 . S
C602 H594 0.950 . S
C602 C603 1.386 . S
C602 C604 1.391 . S
C603 C602 1.386 . S
C603 C607 1.393 . S
C604 H596 0.950 . S
C604 C602 1.391 . S
C604 C605 1.400 . S
C605 C604 1.400 . S
C605 C606 1.398 . S
C605 C611 1.491 . S
C606 H597 0.950 . S
C606 C605 1.398 . S
C606 C607 1.391 . S
C607 H595 0.950 . S
C607 C603 1.393 . S
C607 C606 1.391 . S
C608 H598 0.950 . S
C608 C609 1.386 . S
C608 C610 1.391 . S
C609 C608 1.386 . S
C609 C613 1.393 . S
C610 H599 0.950 . S
C610 C608 1.391 . S
C610 C611 1.400 . S
C611 C605 1.491 . S
C611 C610 1.400 . S
C611 C612 1.398 . S
C612 H600 0.950 . S
C612 C611 1.398 . S
C612 C613 1.391 . S
C613 H601 0.950 . S
C613 C609 1.393 . S
C613 C612 1.391 . S
H614 C622 0.950 . S
H615 C627 0.950 . S
H616 C624 0.950 . S
H617 C626 0.950 . S
H618 C628 0.950 . S
H619 C630 0.950 . S
H620 C632 0.950 . S
H621 C633 0.950 . S
C622 H614 0.950 . S
C622 C623 1.386 . S
C622 C624 1.391 . S
C623 C622 1.386 . S
C623 C627 1.393 . S
C624 H616 0.950 . S
C624 C622 1.391 . S
C624 C625 1.400 . S
C625 C624 1.400 . S
C625 C626 1.398 . S
C625 C631 1.491 . S
C626 H617 0.950 . S
C626 C625 1.398 . S
C626 C627 1.391 . S
C627 H615 0.950 . S
C627 C623 1.393 . S
C627 C626 1.391 . S
C628 H618 0.950 . S
C628 C629 1.386 . S
C628 C630 1.391 . S
C629 C628 1.386 . S
C629 C633 1.393 . S
C630 H619 0.950 . S
C630 C628 1.391 . S
C630 C631 1.400 . S
C631 C625 1.491 . S
C631 C630 1.400 . S
C631 C632 1.398 . S
C632 H620 0.950 . S
C632 C631 1.398 . S
C632 C633 1.391 . S
C633 H621 0.950 . S
C633 C629 1.393 . S
C633 C632 1.391 . S
H634 C642 0.950 . S
H635 C647 0.950 . S
H636 C644 0.950 . S
H637 C646 0.950 . S
H638 C648 0.950 . S
H639 C650 0.950 . S
H640 C652 0.950 . S
H641 C653 0.950 . S
C642 H634 0.950 . S
C642 C643 1.386 . S
C642 C644 1.391 . S
C643 C642 1.386 . S
C643 C647 1.393 . S
C644 H636 0.950 . S
C644 C642 1.391 . S
C644 C645 1.400 . S
C645 C644 1.400 . S
C645 C646 1.398 . S
C645 C651 1.491 . S
C646 H637 0.950 . S
C646 C645 1.398 . S
C646 C647 1.391 . S
C647 H635 0.950 . S
C647 C643 1.393 . S
C647 C646 1.391 . S
C648 H638 0.950 . S
C648 C649 1.386 . S
C648 C650 1.391 . S
C649 C648 1.386 . S
C649 C653 1.393 . S
C650 H639 0.950 . S
C650 C648 1.391 . S
C650 C651 1.400 . S
C651 C645 1.491 . S
C651 C650 1.400 . S
C651 C652 1.398 . S
C652 H640 0.950 . S
C652 C651 1.398 . S
C652 C653 1.391 . S
C653 H641 0.950 . S
C653 C649 1.393 . S
C653 C652 1.391 . S
H654 C662 0.950 . S
H655 C667 0.950 . S
H656 C664 0.950 . S
H657 C666 0.950 . S
H658 C668 0.950 . S
H659 C670 0.950 . S
H660 C672 0.950 . S
H661 C673 0.950 . S
C662 H654 0.950 . S
C662 C663 1.386 . S
C662 C664 1.391 . S
C663 C662 1.386 . S
C663 C667 1.393 . S
C664 H656 0.950 . S
C664 C662 1.391 . S
C664 C665 1.400 . S
C665 C664 1.400 . S
C665 C666 1.398 . S
C665 C671 1.491 . S
C666 H657 0.950 . S
C666 C665 1.398 . S
C666 C667 1.391 . S
C667 H655 0.950 . S
C667 C663 1.393 . S
C667 C666 1.391 . S
C668 H658 0.950 . S
C668 C669 1.386 . S
C668 C670 1.391 . S
C669 C668 1.386 . S
C669 C673 1.393 . S
C670 H659 0.950 . S
C670 C668 1.391 . S
C670 C671 1.400 . S
C671 C665 1.491 . S
C671 C670 1.400 . S
C671 C672 1.398 . S
C672 H660 0.950 . S
C672 C671 1.398 . S
C672 C673 1.391 . S
C673 H661 0.950 . S
C673 C669 1.393 . S
C673 C672 1.391 . S
H674 C682 0.950 . S
H675 C687 0.950 . S
H676 C684 0.950 . S
H677 C686 0.950 . S
H678 C688 0.950 . S
H679 C690 0.950 . S
H680 C692 0.950 . S
H681 C693 0.950 . S
C682 H674 0.950 . S
C682 C683 1.386 . S
C682 C684 1.391 . S
C683 C682 1.386 . S
C683 C687 1.393 . S
C684 H676 0.950 . S
C684 C682 1.391 . S
C684 C685 1.400 . S
C685 C684 1.400 . S
C685 C686 1.398 . S
C685 C691 1.491 . S
C686 H677 0.950 . S
C686 C685 1.398 . S
C686 C687 1.391 . S
C687 H675 0.950 . S
C687 C683 1.393 . S
C687 C686 1.391 . S
C688 H678 0.950 . S
C688 C689 1.386 . S
C688 C690 1.391 . S
C689 C688 1.386 . S
C689 C693 1.393 . S
C690 H679 0.950 . S
C690 C688 1.391 . S
C690 C691 1.400 . S
C691 C685 1.491 . S
C691 C690 1.400 . S
C691 C692 1.398 . S
C692 H680 0.950 . S
C692 C691 1.398 . S
C692 C693 1.391 . S
C693 H681 0.950 . S
C693 C689 1.393 . S
C693 C692 1.391 . S
H694 C702 0.950 . S
H695 C707 0.950 . S
H696 C704 0.950 . S
H697 C706 0.950 . S
H698 C708 0.950 . S
H699 C710 0.950 . S
H700 C712 0.950 . S
H701 C713 0.950 . S
C702 H694 0.950 . S
C702 C703 1.386 . S
C702 C704 1.391 . S
C703 C702 1.386 . S
C703 C707 1.393 . S
C704 H696 0.950 . S
C704 C702 1.391 . S
C704 C705 1.400 . S
C705 C704 1.400 . S
C705 C706 1.398 . S
C705 C711 1.491 . S
C706 H697 0.950 . S
C706 C705 1.398 . S
C706 C707 1.391 . S
C707 H695 0.950 . S
C707 C703 1.393 . S
C707 C706 1.391 . S
C708 H698 0.950 . S
C708 C709 1.386 . S
C708 C710 1.391 . S
C709 C708 1.386 . S
C709 C713 1.393 . S
C710 H699 0.950 . S
C710 C708 1.391 . S
C710 C711 1.400 . S
C711 C705 1.491 . S
C711 C710 1.400 . S
C711 C712 1.398 . S
C712 H700 0.950 . S
C712 C711 1.398 . S
C712 C713 1.391 . S
C713 H701 0.950 . S
C713 C709 1.393 . S
C713 C712 1.391 . S
H714 C722 0.950 . S
H715 C727 0.950 . S
H716 C724 0.950 . S
H717 C726 0.950 . S
H718 C728 0.950 . S
H719 C730 0.950 . S
H720 C732 0.950 . S
H721 C733 0.950 . S
C722 H714 0.950 . S
C722 C723 1.386 . S
C722 C724 1.391 . S
C723 C722 1.386 . S
C723 C727 1.393 . S
C724 H716 0.950 . S
C724 C722 1.391 . S
C724 C725 1.400 . S
C725 C724 1.400 . S
C725 C726 1.398 . S
C725 C731 1.491 . S
C726 H717 0.950 . S
C726 C725 1.398 . S
C726 C727 1.391 . S
C727 H715 0.950 . S
C727 C723 1.393 . S
C727 C726 1.391 . S
C728 H718 0.950 . S
C728 C729 1.386 . S
C728 C730 1.391 . S
C729 C728 1.386 . S
C729 C733 1.393 . S
C730 H719 0.950 . S
C730 C728 1.391 . S
C730 C731 1.400 . S
C731 C725 1.491 . S
C731 C730 1.400 . S
C731 C732 1.398 . S
C732 H720 0.950 . S
C732 C731 1.398 . S
C732 C733 1.391 . S
C733 H721 0.950 . S
C733 C729 1.393 . S
C733 C732 1.391 . S
H734 C742 0.950 . S
H735 C747 0.950 . S
H736 C744 0.950 . S
H737 C746 0.950 . S
H738 C748 0.950 . S
H739 C750 0.950 . S
H740 C752 0.950 . S
H741 C753 0.950 . S
C742 H734 0.950 . S
C742 C743 1.386 . S
C742 C744 1.391 . S
C743 C742 1.386 . S
C743 C747 1.393 . S
C744 H736 0.950 . S
C744 C742 1.391 . S
C744 C745 1.400 . S
C745 C744 1.400 . S
C745 C746 1.398 . S
C745 C751 1.491 . S
C746 H737 0.950 . S
C746 C745 1.398 . S
C746 C747 1.391 . S
C747 H735 0.950 . S
C747 C743 1.393 . S
C747 C746 1.391 . S
C748 H738 0.950 . S
C748 C749 1.386 . S
C748 C750 1.391 . S
C749 C748 1.386 . S
C749 C753 1.393 . S
C750 H739 0.950 . S
C750 C748 1.391 . S
C750 C751 1.400 . S
C751 C745 1.491 . S
C751 C750 1.400 . S
C751 C752 1.398 . S
C752 H740 0.950 . S
C752 C751 1.398 . S
C752 C753 1.391 . S
C753 H741 0.950 . S
C753 C749 1.393 . S
C753 C752 1.391 . S
H754 C762 0.950 . S
H755 C767 0.950 . S
H756 C764 0.950 . S
H757 C766 0.950 . S
H758 C768 0.950 . S
H759 C770 0.950 . S
H760 C772 0.950 . S
H761 C773 0.950 . S
C762 H754 0.950 . S
C762 C763 1.386 . S
C762 C764 1.391 . S
C763 C762 1.386 . S
C763 C767 1.393 . S
C764 H756 0.950 . S
C764 C762 1.391 . S
C764 C765 1.400 . S
C765 C764 1.400 . S
C765 C766 1.398 . S
C765 C771 1.491 . S
C766 H757 0.950 . S
C766 C765 1.398 . S
C766 C767 1.391 . S
C767 H755 0.950 . S
C767 C763 1.393 . S
C767 C766 1.391 . S
C768 H758 0.950 . S
C768 C769 1.386 . S
C768 C770 1.391 . S
C769 C768 1.386 . S
C769 C773 1.393 . S
C770 H759 0.950 . S
C770 C768 1.391 . S
C770 C771 1.400 . S
C771 C765 1.491 . S
C771 C770 1.400 . S
C771 C772 1.398 . S
C772 H760 0.950 . S
C772 C771 1.398 . S
C772 C773 1.391 . S
C773 H761 0.950 . S
C773 C769 1.393 . S
C773 C772 1.391 . S
H774 C782 0.950 . S
H775 C787 0.950 . S
H776 C784 0.950 . S
H777 C786 0.950 . S
H778 C788 0.950 . S
H779 C790 0.950 . S
H780 C792 0.950 . S
H781 C793 0.950 . S
C782 H774 0.950 . S
C782 C783 1.386 . S
C782 C784 1.391 . S
C783 C782 1.386 . S
C783 C787 1.393 . S
C784 H776 0.950 . S
C784 C782 1.391 . S
C784 C785 1.400 . S
C785 C784 1.400 . S
C785 C786 1.398 . S
C785 C791 1.491 1_554 S
C786 H777 0.950 . S
C786 C785 1.398 . S
C786 C787 1.391 . S
C787 H775 0.950 . S
C787 C783 1.393 . S
C787 C786 1.391 . S
C788 H778 0.950 . S
C788 C789 1.386 . S
C788 C790 1.391 . S
C789 C788 1.386 . S
C789 C793 1.393 . S
C790 H779 0.950 . S
C790 C788 1.391 . S
C790 C791 1.400 . S
C791 C785 1.491 1_556 S
C791 C790 1.400 . S
C791 C792 1.398 . S
C792 H780 0.950 . S
C792 C791 1.398 . S
C792 C793 1.391 . S
C793 H781 0.950 . S
C793 C789 1.393 . S
C793 C792 1.391 . S
H794 C802 0.950 . S
H795 C807 0.950 . S
H796 C804 0.950 . S
H797 C806 0.950 . S
H798 C808 0.950 . S
H799 C810 0.950 . S
H800 C812 0.950 . S
H801 C813 0.950 . S
C802 H794 0.950 . S
C802 C803 1.386 1_565 S
C802 C804 1.391 . S
C803 C802 1.386 1_545 S
C803 C807 1.393 . S
C804 H796 0.950 . S
C804 C802 1.391 . S
C804 C805 1.374 1_565 S
C805 C804 1.374 1_545 S
C805 C806 1.426 . S
C805 C811 1.490 1_546 S
C806 H797 0.950 . S
C806 C805 1.426 . S
C806 C807 1.391 . S
C807 H795 0.950 . S
C807 C803 1.393 . S
C807 C806 1.391 . S
C808 H798 0.950 . S
C808 C809 1.386 1_545 S
C808 C810 1.391 . S
C809 C808 1.386 1_565 S
C809 C813 1.393 . S
C810 H799 0.950 . S
C810 C808 1.391 . S
C810 C811 1.400 1_545 S
C811 C805 1.490 1_564 S
C811 C810 1.400 1_565 S
C811 C812 1.398 . S
C812 H800 0.950 . S
C812 C811 1.398 . S
C812 C813 1.391 . S
C813 H801 0.950 . S
C813 C809 1.393 . S
C813 C812 1.391 . S
H814 C822 0.950 . S
H815 C827 0.950 . S
H816 C824 0.950 . S
H817 C826 0.950 . S
H818 C828 0.950 . S
H819 C830 0.950 . S
H820 C832 0.950 . S
H821 C833 0.950 . S
C822 H814 0.950 . S
C822 C823 1.386 . S
C822 C824 1.391 . S
C823 C822 1.386 . S
C823 C827 1.393 1_655 S
C824 H816 0.950 . S
C824 C822 1.391 . S
C824 C825 1.401 . S
C825 C824 1.401 . S
C825 C826 1.398 1_655 S
C825 C831 1.491 1_656 S
C826 H817 0.950 . S
C826 C825 1.398 1_455 S
C826 C827 1.391 . S
C827 H815 0.950 . S
C827 C823 1.393 1_455 S
C827 C826 1.391 . S
C828 H818 0.950 . S
C828 C829 1.386 . S
C828 C830 1.391 . S
C829 C828 1.386 . S
C829 C833 1.393 1_455 S
C830 H819 0.950 . S
C830 C828 1.391 . S
C830 C831 1.402 . S
C831 C825 1.491 1_454 S
C831 C830 1.402 . S
C831 C832 1.397 1_455 S
C832 H820 0.950 . S
C832 C831 1.397 1_655 S
C832 C833 1.391 . S
C833 H821 0.950 . S
C833 C829 1.393 1_655 S
C833 C832 1.391 . S
H834 C842 0.950 . S
H835 C847 0.950 . S
H836 C844 0.950 . S
H837 C846 0.950 . S
H838 C848 0.950 . S
H839 C850 0.950 . S
H840 C852 0.950 . S
H841 C853 0.950 . S
C842 H834 0.950 . S
C842 C843 1.386 . S
C842 C844 1.391 . S
C843 C842 1.386 . S
C843 C847 1.393 . S
C844 H836 0.950 . S
C844 C842 1.391 . S
C844 C845 1.400 . S
C845 C844 1.400 . S
C845 C846 1.398 . S
C845 C851 1.491 . S
C846 H837 0.950 . S
C846 C845 1.398 . S
C846 C847 1.391 . S
C847 H835 0.950 . S
C847 C843 1.393 . S
C847 C846 1.391 . S
C848 H838 0.950 . S
C848 C849 1.386 . S
C848 C850 1.391 . S
C849 C848 1.386 . S
C849 C853 1.393 . S
C850 H839 0.950 . S
C850 C848 1.391 . S
C850 C851 1.400 . S
C851 C845 1.491 . S
C851 C850 1.400 . S
C851 C852 1.398 . S
C852 H840 0.950 . S
C852 C851 1.398 . S
C852 C853 1.391 . S
C853 H841 0.950 . S
C853 C849 1.393 . S
C853 C852 1.391 . S
H854 C862 0.950 . S
H855 C867 0.950 . S
H856 C864 0.950 . S
H857 C866 0.950 . S
H858 C868 0.950 . S
H859 C870 0.950 . S
H860 C872 0.950 . S
H861 C873 0.950 . S
C862 H854 0.950 . S
C862 C863 1.386 . S
C862 C864 1.391 . S
C863 C862 1.386 . S
C863 C867 1.393 . S
C864 H856 0.950 . S
C864 C862 1.391 . S
C864 C865 1.400 . S
C865 C864 1.400 . S
C865 C866 1.398 . S
C865 C871 1.491 . S
C866 H857 0.950 . S
C866 C865 1.398 . S
C866 C867 1.391 . S
C867 H855 0.950 . S
C867 C863 1.393 . S
C867 C866 1.391 . S
C868 H858 0.950 . S
C868 C869 1.386 . S
C868 C870 1.391 . S
C869 C868 1.386 . S
C869 C873 1.393 . S
C870 H859 0.950 . S
C870 C868 1.391 . S
C870 C871 1.400 . S
C871 C865 1.491 . S
C871 C870 1.400 . S
C871 C872 1.398 . S
C872 H860 0.950 . S
C872 C871 1.398 . S
C872 C873 1.391 . S
C873 H861 0.950 . S
C873 C869 1.393 . S
C873 C872 1.391 . S
H874 C882 0.950 . S
H875 C887 0.950 . S
H876 C884 0.950 . S
H877 C886 0.950 . S
H878 C888 0.950 . S
H879 C890 0.950 . S
H880 C892 0.950 . S
H881 C893 0.950 . S
C882 H874 0.950 . S
C882 C883 1.386 . S
C882 C884 1.391 . S
C883 C882 1.386 . S
C883 C887 1.393 . S
C884 H876 0.950 . S
C884 C882 1.391 . S
C884 C885 1.400 . S
C885 C884 1.400 . S
C885 C886 1.398 . S
C885 C891 1.491 . S
C886 H877 0.950 . S
C886 C885 1.398 . S
C886 C887 1.391 . S
C887 H875 0.950 . S
C887 C883 1.393 . S
C887 C886 1.391 . S
C888 H878 0.950 . S
C888 C889 1.386 . S
C888 C890 1.391 . S
C889 C888 1.386 . S
C889 C893 1.393 . S
C890 H879 0.950 . S
C890 C888 1.391 . S
C890 C891 1.400 . S
C891 C885 1.491 . S
C891 C890 1.400 . S
C891 C892 1.398 . S
C892 H880 0.950 . S
C892 C891 1.398 . S
C892 C893 1.391 . S
C893 H881 0.950 . S
C893 C889 1.393 . S
C893 C892 1.391 . S
H894 C902 0.950 . S
H895 C907 0.950 . S
H896 C904 0.950 . S
H897 C906 0.950 . S
H898 C908 0.950 . S
H899 C910 0.950 . S
H900 C912 0.950 . S
H901 C913 0.950 . S
C902 H894 0.950 . S
C902 C903 1.386 . S
C902 C904 1.391 . S
C903 C902 1.386 . S
C903 C907 1.393 . S
C904 H896 0.950 . S
C904 C902 1.391 . S
C904 C905 1.400 . S
C905 C904 1.400 . S
C905 C906 1.398 . S
C905 C911 1.491 . S
C906 H897 0.950 . S
C906 C905 1.398 . S
C906 C907 1.391 . S
C907 H895 0.950 . S
C907 C903 1.393 . S
C907 C906 1.391 . S
C908 H898 0.950 . S
C908 C909 1.386 . S
C908 C910 1.391 . S
C909 C908 1.386 . S
C909 C913 1.393 . S
C910 H899 0.950 . S
C910 C908 1.391 . S
C910 C911 1.400 . S
C911 C905 1.491 . S
C911 C910 1.400 . S
C911 C912 1.398 . S
C912 H900 0.950 . S
C912 C911 1.398 . S
C912 C913 1.391 . S
C913 H901 0.950 . S
C913 C909 1.393 . S
C913 C912 1.391 . S
H914 C922 0.950 . S
H915 C927 0.950 . S
H916 C924 0.950 . S
H917 C926 0.950 . S
H918 C928 0.950 . S
H919 C930 0.950 . S
H920 C932 0.950 . S
H921 C933 0.950 . S
C922 H914 0.950 . S
C922 C923 1.386 . S
C922 C924 1.391 . S
C923 C922 1.386 . S
C923 C927 1.393 . S
C924 H916 0.950 . S
C924 C922 1.391 . S
C924 C925 1.400 . S
C925 C924 1.400 . S
C925 C926 1.398 . S
C925 C931 1.491 . S
C926 H917 0.950 . S
C926 C925 1.398 . S
C926 C927 1.391 . S
C927 H915 0.950 . S
C927 C923 1.393 . S
C927 C926 1.391 . S
C928 H918 0.950 . S
C928 C929 1.386 . S
C928 C930 1.391 . S
C929 C928 1.386 . S
C929 C933 1.393 . S
C930 H919 0.950 . S
C930 C928 1.391 . S
C930 C931 1.400 . S
C931 C925 1.491 . S
C931 C930 1.400 . S
C931 C932 1.398 . S
C932 H920 0.950 . S
C932 C931 1.398 . S
C932 C933 1.391 . S
C933 H921 0.950 . S
C933 C929 1.393 . S
C933 C932 1.391 . S
H934 C942 0.950 . S
H935 C947 0.950 . S
H936 C944 0.950 . S
H937 C946 0.950 . S
H938 C948 0.950 . S
H939 C950 0.950 . S
H940 C952 0.950 . S
H941 C953 0.950 . S
C942 H934 0.950 . S
C942 C943 1.386 . S
C942 C944 1.391 . S
C943 C942 1.386 . S
C943 C947 1.393 . S
C944 H936 0.950 . S
C944 C942 1.391 . S
C944 C945 1.400 . S
C945 C944 1.400 . S
C945 C946 1.398 . S
C945 C951 1.491 . S
C946 H937 0.950 . S
C946 C945 1.398 . S
C946 C947 1.391 . S
C947 H935 0.950 . S
C947 C943 1.393 . S
C947 C946 1.391 . S
C948 H938 0.950 . S
C948 C949 1.386 . S
C948 C950 1.391 . S
C949 C948 1.386 . S
C949 C953 1.393 . S
C950 H939 0.950 . S
C950 C948 1.391 . S
C950 C951 1.400 . S
C951 C945 1.491 . S
C951 C950 1.400 . S
C951 C952 1.398 . S
C952 H940 0.950 . S
C952 C951 1.398 . S
C952 C953 1.391 . S
C953 H941 0.950 . S
C953 C949 1.393 . S
C953 C952 1.391 . S
C243 C130 1.040 . S
C249 C0 1.077 . S
C263 C13 1.045 . S
C269 C143 1.055 . S
C283 C117 1.029 . S
C289 C26 1.076 . S
C303 C182 1.058 . S
C309 C39 1.062 . S
C323 C52 1.041 . S
C329 C156 1.058 . S
C343 C169 1.029 . S
C349 C65 1.068 . S
C363 C78 1.090 . S
C369 C208 1.055 . S
C383 C221 1.084 . S
C389 C91 1.047 . S
C403 C104 1.084 . S
C409 C195 1.057 . S
C423 C5 0.897 . S
C429 C23 0.944 . S
C443 C18 0.889 . S
C449 C36 0.937 . S
C463 C10 0.991 . S
C469 C31 0.857 . S
C483 C75 0.969 . S
C489 C44 0.869 . S
C503 C49 0.990 . S
C509 C57 0.856 . S
C523 C70 0.905 . S
C529 C62 0.938 . S
C543 C83 0.875 . S
C549 C101 0.995 . S
C563 C96 0.842 . S
C569 C114 0.981 . S
C583 C88 0.974 . S
C589 C109 0.909 . S
C603 C153 0.984 . S
C609 C122 0.922 . S
C623 C127 0.950 . S
C629 C135 0.899 . S
C643 C140 0.961 . S
C649 C148 0.864 . S
C663 C179 0.999 . S
C669 C161 0.871 . S
C683 C192 0.974 . S
C689 C174 0.896 . S
C703 C166 0.953 . S
C709 C187 0.873 . S
C723 C200 0.870 . S
C729 C231 0.995 . S
C743 C213 0.852 . S
C749 C205 0.985 . S
C763 C226 0.841 . S
C769 C218 0.979 . S
C783 C8 1.498 . S
C789 C47 1.479 . S
C803 C60 1.467 . S
C809 C21 1.484 . S
C823 C73 1.485 . S
C829 C34 1.478 . S
C843 C125 1.501 . S
C849 C86 1.481 . S
C863 C138 1.472 . S
C869 C99 1.495 . S
C883 C112 1.506 . S
C889 C151 1.486 . S
C903 C203 1.481 . S
C909 C164 1.500 . S
C923 C216 1.483 . S
C929 C177 1.507 . S
C943 C229 1.474 . S
C949 C190 1.495 . S
