# Generated by pormake.
# Topology umw, (4)-cn, num edge types: 1
# Building blocks:
#     Node 0, Type 0, BuildingBlock: KUFVIS_clean_sbu_0, # of connection points: 4
#     Node 1, Type 0, BuildingBlock: KUFVIS_clean_sbu_0, # of connection points: 4
#     Node 2, Type 0, BuildingBlock: KUFVIS_clean_sbu_0, # of connection points: 4
#     Node 3, Type 0, BuildingBlock: KUFVIS_clean_sbu_0, # of connection points: 4
#     Node 4, Type 0, BuildingBlock: KUFVIS_clean_sbu_0, # of connection points: 4
#     Node 5, Type 0, BuildingBlock: KUFVIS_clean_sbu_0, # of connection points: 4
#     Node 6, Type 0, BuildingBlock: KUFVIS_clean_sbu_0, # of connection points: 4
#     Node 7, Type 0, BuildingBlock: KUFVIS_clean_sbu_0, # of connection points: 4
#     Edge 8, Type (0, 0), BuildingBlock: EYOCIG_clean_linker_4, # of connection points: 2
#     Edge 9, Type (0, 0), BuildingBlock: EYOCIG_clean_linker_4, # of connection points: 2
#     Edge 10, Type (0, 0), BuildingBlock: EYOCIG_clean_linker_4, # of connection points: 2
#     Edge 11, Type (0, 0), BuildingBlock: EYOCIG_clean_linker_4, # of connection points: 2
#     Edge 12, Type (0, 0), BuildingBlock: EYOCIG_clean_linker_4, # of connection points: 2
#     Edge 13, Type (0, 0), BuildingBlock: EYOCIG_clean_linker_4, # of connection points: 2
#     Edge 14, Type (0, 0), BuildingBlock: EYOCIG_clean_linker_4, # of connection points: 2
#     Edge 15, Type (0, 0), BuildingBlock: EYOCIG_clean_linker_4, # of connection points: 2
#     Edge 16, Type (0, 0), BuildingBlock: EYOCIG_clean_linker_4, # of connection points: 2
#     Edge 17, Type (0, 0), BuildingBlock: EYOCIG_clean_linker_4, # of connection points: 2
#     Edge 18, Type (0, 0), BuildingBlock: EYOCIG_clean_linker_4, # of connection points: 2
#     Edge 19, Type (0, 0), BuildingBlock: EYOCIG_clean_linker_4, # of connection points: 2
#     Edge 20, Type (0, 0), BuildingBlock: EYOCIG_clean_linker_4, # of connection points: 2
#     Edge 21, Type (0, 0), BuildingBlock: EYOCIG_clean_linker_4, # of connection points: 2
#     Edge 22, Type (0, 0), BuildingBlock: EYOCIG_clean_linker_4, # of connection points: 2
#     Edge 23, Type (0, 0), BuildingBlock: EYOCIG_clean_linker_4, # of connection points: 2
# Relax obj value: 0.129
# Max RMSD: 0.104
# Mean RMSD: 0.104
data_MOF--net-umw--node1-KUFVIS_clean_sbu_0--edge1-EYOCIG_clean_linker_4
_symmetry_space_group_name_H-M    P1
_symmetry_Int_Tables_number       1
_symmetry_cell_setting            triclinic
loop_
_symmetry_equiv_pos_as_xyz
'x, y, z'
_cell_length_a     32.314873
_cell_length_b     32.322452
_cell_length_c     20.775429
_cell_angle_alpha  89.926039
_cell_angle_beta   89.967794
_cell_angle_gamma 90.02004
loop_
_atom_site_label
_atom_site_type_symbol
_atom_site_fract_x
_atom_site_fract_y
_atom_site_fract_z
_atom_type_partial_charge
Mn0 Mn 0.43774 0.2141 0.29145 0.0
Mn1 Mn 0.52967 0.16366 0.28269 0.0
C2 C 0.47234 0.19457 0.38275 0.0
C3 C 0.3975 0.27303 0.30877 0.0
C4 C 0.44716 0.12115 0.26605 0.0
O5 O 0.45596 0.22601 0.19818 0.0
O6 O 0.51589 0.1896 0.19859 0.0
C7 C 0.58628 0.23441 0.26046 0.0
N8 N 0.57377 0.202 0.29767 0.0
C9 C 0.63096 0.21187 0.37034 0.0
C10 C 0.64434 0.2454 0.33285 0.0
C11 C 0.6219 0.25669 0.27767 0.0
C12 C 0.59527 0.19076 0.35075 0.0
H13 H 0.56952 0.24293 0.21751 0.0
C14 C 0.48897 0.21256 0.17086 0.0
O15 O 0.38174 0.24005 0.28292 0.0
O16 O 0.4373 0.27386 0.31585 0.0
N17 N 0.54698 0.13776 0.36112 0.0
C18 C 0.53136 0.10325 0.39012 0.0
C19 C 0.55054 0.08765 0.44567 0.0
C20 C 0.58576 0.10739 0.47057 0.0
C21 C 0.6017 0.14243 0.43931 0.0
C22 C 0.58117 0.1567 0.3842 0.0
H23 H 0.50444 0.08772 0.37113 0.0
O24 O 0.43286 0.20086 0.38446 0.0
O25 O 0.49096 0.19987 0.328 0.0
O26 O 0.42438 0.15333 0.26951 0.0
O27 O 0.4865 0.12168 0.26951 0.0
C28 C 0.63729 0.16359 0.46043 0.0
C29 C 0.65201 0.19818 0.42583 0.0
H30 H 0.67197 0.26248 0.34568 0.0
H31 H 0.63226 0.2823 0.24816 0.0
H32 H 0.53838 0.06024 0.46883 0.0
H33 H 0.60044 0.09524 0.51348 0.0
H34 H 0.65378 0.1533 0.50292 0.0
H35 H 0.67971 0.21388 0.44209 0.0
Mn36 Mn 0.83143 0.43776 0.54134 0.0
Mn37 Mn 0.88177 0.52979 0.53288 0.0
C38 C 0.85077 0.47225 0.63274 0.0
C39 C 0.77256 0.39736 0.55856 0.0
C40 C 0.92442 0.44739 0.51606 0.0
O41 O 0.81965 0.45609 0.44812 0.0
O42 O 0.85598 0.51608 0.44873 0.0
C43 C 0.81099 0.58631 0.51072 0.0
N44 N 0.84336 0.57378 0.54795 0.0
C45 C 0.83335 0.63087 0.62071 0.0
C46 C 0.79987 0.64425 0.5832 0.0
C47 C 0.78867 0.62188 0.52798 0.0
C48 C 0.8545 0.59523 0.60108 0.0
H49 H 0.80256 0.5696 0.46773 0.0
C50 C 0.83309 0.48916 0.4209 0.0
O51 O 0.80559 0.38173 0.53265 0.0
O52 O 0.77163 0.43715 0.5657 0.0
N53 N 0.90755 0.54703 0.61137 0.0
C54 C 0.94208 0.53147 0.64029 0.0
C55 C 0.95763 0.55064 0.69581 0.0
C56 C 0.93781 0.58577 0.72081 0.0
C57 C 0.90275 0.60165 0.68963 0.0
C58 C 0.88854 0.58115 0.63452 0.0
H59 H 0.95768 0.50462 0.62123 0.0
O60 O 0.84454 0.43276 0.63435 0.0
O61 O 0.84553 0.49094 0.57804 0.0
O62 O 0.89226 0.42457 0.51942 0.0
O63 O 0.92385 0.48672 0.51962 0.0
C64 C 0.88154 0.63718 0.7108 0.0
C65 C 0.84696 0.65188 0.67622 0.0
H66 H 0.78276 0.67185 0.59605 0.0
H67 H 0.7631 0.63224 0.49845 0.0
H68 H 0.98508 0.53856 0.71887 0.0
H69 H 0.94992 0.60044 0.76371 0.0
H70 H 0.89177 0.65365 0.7533 0.0
H71 H 0.83122 0.67954 0.69251 0.0
Mn72 Mn 0.60762 0.8312 0.79145 0.0
Mn73 Mn 0.51571 0.88166 0.78241 0.0
C74 C 0.57302 0.85092 0.88264 0.0
C75 C 0.64788 0.77233 0.80919 0.0
C76 C 0.59824 0.92409 0.76528 0.0
O77 O 0.58939 0.81912 0.69831 0.0
O78 O 0.52948 0.85555 0.6985 0.0
C79 C 0.45901 0.81095 0.76085 0.0
N80 N 0.47157 0.84341 0.79779 0.0
C81 C 0.41435 0.83375 0.87061 0.0
C82 C 0.40092 0.80018 0.83341 0.0
C83 C 0.42335 0.78875 0.7783 0.0
C84 C 0.45007 0.85477 0.85079 0.0
H85 H 0.47576 0.80234 0.71795 0.0
C86 C 0.55639 0.83253 0.67092 0.0
O87 O 0.66361 0.80526 0.783 0.0
O88 O 0.60808 0.77149 0.81637 0.0
N89 N 0.49843 0.90773 0.86066 0.0
C90 C 0.51414 0.94223 0.88942 0.0
C91 C 0.49503 0.9579 0.94493 0.0
C92 C 0.45975 0.93827 0.97002 0.0
C93 C 0.44373 0.90324 0.93901 0.0
C94 C 0.46422 0.88887 0.88395 0.0
H95 H 0.54111 0.95766 0.87029 0.0
O96 O 0.6125 0.84462 0.88433 0.0
O97 O 0.55439 0.84552 0.82798 0.0
O98 O 0.62099 0.89191 0.76896 0.0
O99 O 0.5589 0.92359 0.7688 0.0
C100 C 0.4081 0.88218 0.96034 0.0
C101 C 0.39332 0.84757 0.92602 0.0
H102 H 0.37326 0.78316 0.84642 0.0
H103 H 0.41296 0.76311 0.74901 0.0
H104 H 0.50729 0.98527 0.96795 0.0
H105 H 0.44512 0.95048 0.0129 0.0
H106 H 0.39163 0.89255 0.0028 0.0
H107 H 0.3656 0.83193 0.94246 0.0
Mn108 Mn 0.21455 0.6076 0.04105 0.0
Mn109 Mn 0.16397 0.51574 0.03227 0.0
C110 C 0.1946 0.57311 0.13234 0.0
C111 C 0.27347 0.64782 0.05883 0.0
C112 C 0.12166 0.59825 0.01471 0.0
O113 O 0.2268 0.58927 0.94801 0.0
O114 O 0.19021 0.52943 0.94833 0.0
C115 C 0.23467 0.45901 0.01093 0.0
N116 N 0.20217 0.47161 0.04782 0.0
C117 C 0.21171 0.41451 0.12089 0.0
C118 C 0.24533 0.40104 0.08374 0.0
C119 C 0.25683 0.42338 0.02853 0.0
C120 C 0.19073 0.45019 0.10091 0.0
H121 H 0.24334 0.47571 0.96796 0.0
C122 C 0.21335 0.55628 0.92069 0.0
O123 O 0.24061 0.66355 0.0325 0.0
O124 O 0.27422 0.60803 0.06614 0.0
N125 N 0.13778 0.49855 0.11058 0.0
C126 C 0.10327 0.51431 0.13931 0.0
C127 C 0.08754 0.49529 0.19493 0.0
C128 C 0.10711 0.46005 0.22016 0.0
C129 C 0.14216 0.44397 0.18918 0.0
C130 C 0.1566 0.46437 0.13402 0.0
H131 H 0.08788 0.54126 0.12007 0.0
O132 O 0.20092 0.61258 0.13389 0.0
O133 O 0.20009 0.55443 0.07775 0.0
O134 O 0.15388 0.62098 0.01833 0.0
O135 O 0.12209 0.55893 0.01848 0.0
C136 C 0.16318 0.40838 0.21068 0.0
C137 C 0.19783 0.39356 0.17641 0.0
H138 H 0.26232 0.3734 0.09687 0.0
H139 H 0.28251 0.41296 -0.00072 0.0
H140 H 0.06017 0.5076 0.21795 0.0
H141 H 0.09486 0.44549 0.26313 0.0
H142 H 0.15277 0.39199 0.25322 0.0
H143 H 0.21344 0.36587 0.19297 0.0
Mn144 Mn 0.43804 0.83128 0.2505 0.0
Mn145 Mn 0.5299 0.88184 0.25984 0.0
C146 C 0.47275 0.85124 0.15944 0.0
C147 C 0.39785 0.77238 0.23245 0.0
C148 C 0.44733 0.92413 0.27692 0.0
O149 O 0.45617 0.819 0.34367 0.0
O150 O 0.51604 0.85555 0.34369 0.0
C151 C 0.58657 0.81111 0.28142 0.0
N152 N 0.57405 0.84365 0.24451 0.0
C153 C 0.63122 0.83408 0.17163 0.0
C154 C 0.64461 0.80042 0.2088 0.0
C155 C 0.62219 0.78891 0.26393 0.0
C156 C 0.59555 0.85509 0.1915 0.0
H157 H 0.56981 0.80243 0.32432 0.0
C158 C 0.48912 0.83243 0.37117 0.0
O159 O 0.38205 0.80521 0.25867 0.0
O160 O 0.43766 0.77163 0.22542 0.0
N161 N 0.54723 0.90807 0.18164 0.0
C162 C 0.53153 0.9426 0.15287 0.0
C163 C 0.55064 0.95836 0.09734 0.0
C164 C 0.5859 0.93877 0.07223 0.0
C165 C 0.6019 0.90369 0.10325 0.0
C166 C 0.58143 0.88925 0.15834 0.0
H167 H 0.50457 0.95801 0.17201 0.0
O168 O 0.43327 0.84494 0.15762 0.0
O169 O 0.49129 0.84575 0.21416 0.0
O170 O 0.4246 0.89192 0.27312 0.0
O171 O 0.48667 0.9237 0.27342 0.0
C172 C 0.63749 0.88264 0.08187 0.0
C173 C 0.65224 0.84796 0.11618 0.0
H174 H 0.67223 0.78339 0.19575 0.0
H175 H 0.63255 0.7632 0.29319 0.0
H176 H 0.5384 0.98577 0.07431 0.0
H177 H 0.60052 0.95103 0.02933 0.0
H178 H 0.65394 0.89305 0.03939 0.0
H179 H 0.67992 0.83232 0.0997 0.0
Mn180 Mn 0.21436 0.43809 0.50028 0.0
Mn181 Mn 0.16391 0.52995 0.50986 0.0
C182 C 0.19445 0.47289 0.4093 0.0
C183 C 0.27319 0.39785 0.48209 0.0
C184 C 0.12151 0.44742 0.52696 0.0
O185 O 0.22666 0.45613 0.59344 0.0
O186 O 0.19021 0.51603 0.59361 0.0
C187 C 0.2347 0.5866 0.53129 0.0
N188 N 0.20215 0.57411 0.49445 0.0
C189 C 0.21173 0.63136 0.42164 0.0
C190 C 0.2454 0.64472 0.45873 0.0
C191 C 0.2569 0.62224 0.51379 0.0
C192 C 0.1907 0.59566 0.44151 0.0
H193 H 0.24338 0.5698 0.57414 0.0
C194 C 0.2133 0.48907 0.621 0.0
O195 O 0.24031 0.38208 0.50838 0.0
O196 O 0.27403 0.43765 0.47506 0.0
N197 N 0.13769 0.54735 0.43175 0.0
C198 C 0.10315 0.53166 0.40305 0.0
C199 C 0.0874 0.55081 0.34757 0.0
C200 C 0.10701 0.58609 0.32247 0.0
C201 C 0.14209 0.60208 0.35342 0.0
C202 C 0.15653 0.58157 0.40844 0.0
H203 H 0.08774 0.50468 0.42218 0.0
O204 O 0.20071 0.43341 0.40743 0.0
O205 O 0.19998 0.49138 0.46402 0.0
O206 O 0.15369 0.42468 0.52304 0.0
O207 O 0.122 0.48675 0.52352 0.0
C208 C 0.16316 0.6377 0.33203 0.0
C209 C 0.19784 0.65243 0.36626 0.0
H210 H 0.26243 0.67236 0.44567 0.0
H211 H 0.28262 0.63258 0.543 0.0
H212 H 0.06001 0.53856 0.32458 0.0
H213 H 0.09475 0.60074 0.27961 0.0
H214 H 0.15274 0.65418 0.2896 0.0
H215 H 0.21349 0.68013 0.34978 0.0
Mn216 Mn 0.60754 0.21397 0.75028 0.0
Mn217 Mn 0.51558 0.16357 0.75967 0.0
C218 C 0.57279 0.19432 0.65924 0.0
C219 C 0.64787 0.27279 0.73229 0.0
C220 C 0.59807 0.12108 0.77645 0.0
O221 O 0.58944 0.22604 0.84351 0.0
O222 O 0.52947 0.18964 0.84353 0.0
C223 C 0.45905 0.23438 0.78143 0.0
N224 N 0.4715 0.20189 0.74447 0.0
C225 C 0.41434 0.21173 0.67171 0.0
C226 C 0.40102 0.24534 0.70894 0.0
C227 C 0.42347 0.25668 0.76404 0.0
C228 C 0.44998 0.19061 0.69148 0.0
H229 H 0.47583 0.24294 0.82431 0.0
C230 C 0.55644 0.21263 0.87102 0.0
O231 O 0.66359 0.23986 0.75843 0.0
O232 O 0.60806 0.27368 0.72535 0.0
N233 N 0.49819 0.13755 0.68147 0.0
C234 C 0.51376 0.103 0.6527 0.0
C235 C 0.49456 0.08735 0.59728 0.0
C236 C 0.45937 0.10708 0.57223 0.0
C237 C 0.44348 0.14217 0.60325 0.0
C238 C 0.46402 0.15649 0.65827 0.0
H239 H 0.54067 0.08748 0.6718 0.0
O240 O 0.61228 0.20056 0.65736 0.0
O241 O 0.55426 0.19971 0.71401 0.0
O242 O 0.62086 0.15325 0.77269 0.0
O243 O 0.55873 0.12159 0.77309 0.0
C244 C 0.40793 0.16334 0.58196 0.0
C245 C 0.39328 0.198 0.61631 0.0
H246 H 0.37343 0.26244 0.69597 0.0
H247 H 0.41317 0.28235 0.79335 0.0
H248 H 0.50668 0.0599 0.5743 0.0
H249 H 0.44468 0.0949 0.5294 0.0
H250 H 0.39144 0.15303 0.53952 0.0
H251 H 0.36562 0.21372 0.5999 0.0
Mn252 Mn 0.83162 0.60768 8e-05 0.0
Mn253 Mn 0.882 0.51575 0.00946 0.0
C254 C 0.85101 0.5728 0.90904 0.0
C255 C 0.77273 0.64794 -0.01748 0.0
C256 C 0.92459 0.59826 0.02555 0.0
O257 O 0.8198 0.58971 0.0935 0.0
O258 O 0.85607 0.52971 0.09344 0.0
C259 C 0.81122 0.45921 0.03195 0.0
N260 N 0.84364 0.47165 -0.00531 0.0
C261 C 0.83368 0.4144 0.92224 0.0
C262 C 0.80014 0.4011 0.95977 0.0
C263 C 0.78889 0.4236 0.01486 0.0
C264 C 0.85483 0.45008 0.9417 0.0
H265 H 0.80273 0.47603 0.07483 0.0
C266 C 0.83318 0.55673 0.12101 0.0
O267 O 0.80576 0.66371 0.00823 0.0
O268 O 0.77183 0.60813 -0.02425 0.0
N269 N 0.90789 0.49829 0.93115 0.0
C270 C 0.94244 0.51382 0.90214 0.0
C271 C 0.95804 0.49453 0.84675 0.0
C272 C 0.93824 0.45932 0.82194 0.0
C273 C 0.90316 0.44348 0.85321 0.0
C274 C 0.88891 0.4641 0.90821 0.0
H275 H 0.95801 0.54074 0.92104 0.0
O276 O 0.84477 0.61228 0.907 0.0
O277 O 0.84577 0.55436 0.96395 0.0
O278 O 0.89243 0.62104 0.02184 0.0
O279 O 0.92403 0.55892 0.02244 0.0
C280 C 0.88195 0.4079 0.83221 0.0
C281 C 0.84733 0.39328 0.86684 0.0
H282 H 0.78302 0.37348 0.94704 0.0
H283 H 0.76327 0.4133 0.04441 0.0
H284 H 0.98551 0.50658 0.82363 0.0
H285 H 0.95039 0.44456 0.77913 0.0
H286 H 0.89221 0.39136 0.78979 0.0
H287 H 0.83159 0.36559 0.85067 0.0
C288 C 0.51204 0.18685 0.49169 0.0
C289 C 0.49444 0.19036 0.44138 0.0
C290 C 0.53292 0.18679 0.55044 0.0
C291 C 0.55059 0.19021 0.60069 0.0
C292 C 0.8583 0.51184 0.74173 0.0
C293 C 0.85487 0.49426 0.69143 0.0
C294 C 0.85836 0.53276 0.80041 0.0
C295 C 0.85502 0.55051 0.85059 0.0
C296 C 0.51257 0.85897 0.05051 0.0
C297 C 0.49494 0.85546 0.10084 0.0
C298 C 0.53339 0.85888 -0.00834 0.0
C299 C 0.55094 0.85526 0.94131 0.0
C300 C 0.18664 0.51275 0.3004 0.0
C301 C 0.1902 0.49512 0.35072 0.0
C302 C 0.18667 0.53356 0.24151 0.0
C303 C 0.19028 0.55108 0.1911 0.0
C304 C 0.35083 0.32581 0.37503 0.0
C305 C 0.37177 0.30156 0.34463 0.0
C306 C 0.32567 0.35113 0.41531 0.0
C307 C 0.30158 0.37214 0.44592 0.0
C308 C 0.71989 0.35051 0.62499 0.0
C309 C 0.7441 0.37153 0.5945 0.0
C310 C 0.69463 0.32531 0.66539 0.0
C311 C 0.67362 0.30119 0.69607 0.0
C312 C 0.71998 0.69456 0.91602 0.0
C313 C 0.7442 0.67361 0.94651 0.0
C314 C 0.69467 0.71975 0.87573 0.0
C315 C 0.67364 0.74389 0.84522 0.0
C316 C 0.32605 0.69456 0.12538 0.0
C317 C 0.30189 0.67358 0.09485 0.0
C318 C 0.35124 0.71979 0.16573 0.0
C319 C 0.37217 0.74394 0.19633 0.0
C320 C 0.42061 1.00081 0.27466 0.0
C321 C 0.42827 0.96428 0.2764 0.0
C322 C 0.42056 0.04442 0.26891 0.0
C323 C 0.42816 0.08096 0.2669 0.0
C324 C 1.00117 0.42083 0.51894 0.0
C325 C 0.96463 0.42846 0.51692 0.0
C326 C 0.04478 0.4208 0.52471 0.0
C327 C 0.08133 0.4284 0.52644 0.0
C328 C 0.62484 1.00081 0.76791 0.0
C329 C 0.61726 0.96427 0.76599 0.0
C330 C 0.62475 0.04439 0.77376 0.0
C331 C 0.61707 0.08091 0.77568 0.0
C332 C 1.00134 0.62487 0.02254 0.0
C333 C 0.9648 0.61723 0.02456 0.0
C334 C 0.04495 0.6249 0.0168 0.0
C335 C 0.0815 0.61729 0.0151 0.0
C336 C 0.53262 0.22788 -0.00973 0.0
C337 C 0.54725 0.22353 0.93694 0.0
C338 C 0.51292 0.22783 0.05159 0.0
C339 C 0.49826 0.22345 0.10492 0.0
C340 C 0.81799 0.53297 0.24037 0.0
C341 C 0.82232 0.54758 0.18699 0.0
C342 C 0.81799 0.51324 0.30167 0.0
C343 C 0.82231 0.49853 0.35498 0.0
C344 C 0.53252 0.8171 0.55177 0.0
C345 C 0.54713 0.82155 0.60507 0.0
C346 C 0.51288 0.81704 0.49043 0.0
C347 C 0.49829 0.82143 0.43709 0.0
C348 C 0.22878 0.53236 0.80154 0.0
C349 C 0.22434 0.54699 0.85483 0.0
C350 C 0.22878 0.51274 0.74021 0.0
C351 C 0.22434 0.49819 0.68688 0.0
loop_
_geom_bond_atom_site_label_1
_geom_bond_atom_site_label_2
_geom_bond_distance
_geom_bond_site_symmetry_2
_ccdc_geom_bond_type
Mn0 O5 2.095 . S
Mn0 O15 2.162 . S
Mn0 O16 2.297 . S
Mn0 O24 2.385 . S
Mn0 O25 2.209 . S
Mn0 O26 2.094 . S
Mn1 O6 2.121 . S
Mn1 N8 2.257 . S
Mn1 N17 2.282 . S
Mn1 O25 2.215 . S
Mn1 O27 2.117 . S
C2 O24 1.234 . S
C2 O25 1.283 . S
C3 O15 1.281 . S
C3 O16 1.236 . S
C4 O26 1.240 . S
C4 O27 1.264 . S
O5 Mn0 2.095 . S
O5 C14 1.250 . S
O6 Mn1 2.121 . S
O6 C14 1.258 . S
C7 N8 1.326 . S
C7 C11 1.460 . S
C7 H13 0.929 . S
N8 Mn1 2.257 . S
N8 C7 1.326 . S
N8 C12 1.362 . S
C9 C10 1.258 . S
C9 C12 1.431 . S
C9 C29 1.449 . S
C10 C9 1.258 . S
C10 C11 1.477 . S
C10 H30 0.931 . S
C11 C7 1.460 . S
C11 C10 1.477 . S
C11 H31 0.930 . S
C12 N8 1.362 . S
C12 C9 1.431 . S
C12 C22 1.476 . S
H13 C7 0.929 . S
C14 O5 1.250 . S
C14 O6 1.258 . S
O15 Mn0 2.162 . S
O15 C3 1.281 . S
O16 Mn0 2.297 . S
O16 C3 1.236 . S
N17 Mn1 2.282 . S
N17 C18 1.328 . S
N17 C22 1.318 . S
C18 N17 1.328 . S
C18 C19 1.457 . S
C18 H23 0.929 . S
C19 C18 1.457 . S
C19 C20 1.291 . S
C19 H32 0.931 . S
C20 C19 1.291 . S
C20 C21 1.373 . S
C20 H33 0.929 . S
C21 C20 1.373 . S
C21 C22 1.396 . S
C21 C28 1.403 . S
C22 C12 1.476 . S
C22 N17 1.318 . S
C22 C21 1.396 . S
H23 C18 0.929 . S
O24 Mn0 2.385 . S
O24 C2 1.234 . S
O25 Mn0 2.209 . S
O25 Mn1 2.215 . S
O25 C2 1.283 . S
O26 Mn0 2.094 . S
O26 C4 1.240 . S
O27 Mn1 2.117 . S
O27 C4 1.264 . S
C28 C21 1.403 . S
C28 C29 1.399 . S
C28 H34 0.929 . S
C29 C9 1.449 . S
C29 C28 1.399 . S
C29 H35 0.930 . S
H30 C10 0.931 . S
H31 C11 0.930 . S
H32 C19 0.931 . S
H33 C20 0.929 . S
H34 C28 0.929 . S
H35 C29 0.930 . S
Mn36 O41 2.095 . S
Mn36 O51 2.162 . S
Mn36 O52 2.297 . S
Mn36 O60 2.385 . S
Mn36 O61 2.209 . S
Mn36 O62 2.094 . S
Mn37 O42 2.121 . S
Mn37 N44 2.257 . S
Mn37 N53 2.282 . S
Mn37 O61 2.215 . S
Mn37 O63 2.117 . S
C38 O60 1.234 . S
C38 O61 1.283 . S
C39 O51 1.281 . S
C39 O52 1.236 . S
C40 O62 1.240 . S
C40 O63 1.264 . S
O41 Mn36 2.095 . S
O41 C50 1.250 . S
O42 Mn37 2.121 . S
O42 C50 1.258 . S
C43 N44 1.326 . S
C43 C47 1.460 . S
C43 H49 0.929 . S
N44 Mn37 2.257 . S
N44 C43 1.326 . S
N44 C48 1.362 . S
C45 C46 1.258 . S
C45 C48 1.431 . S
C45 C65 1.449 . S
C46 C45 1.258 . S
C46 C47 1.477 . S
C46 H66 0.931 . S
C47 C43 1.460 . S
C47 C46 1.477 . S
C47 H67 0.930 . S
C48 N44 1.362 . S
C48 C45 1.431 . S
C48 C58 1.476 . S
H49 C43 0.929 . S
C50 O41 1.250 . S
C50 O42 1.258 . S
O51 Mn36 2.162 . S
O51 C39 1.281 . S
O52 Mn36 2.297 . S
O52 C39 1.236 . S
N53 Mn37 2.282 . S
N53 C54 1.328 . S
N53 C58 1.318 . S
C54 N53 1.328 . S
C54 C55 1.457 . S
C54 H59 0.929 . S
C55 C54 1.457 . S
C55 C56 1.291 . S
C55 H68 0.931 . S
C56 C55 1.291 . S
C56 C57 1.373 . S
C56 H69 0.929 . S
C57 C56 1.373 . S
C57 C58 1.396 . S
C57 C64 1.403 . S
C58 C48 1.476 . S
C58 N53 1.318 . S
C58 C57 1.396 . S
H59 C54 0.929 . S
O60 Mn36 2.385 . S
O60 C38 1.234 . S
O61 Mn36 2.209 . S
O61 Mn37 2.215 . S
O61 C38 1.283 . S
O62 Mn36 2.094 . S
O62 C40 1.240 . S
O63 Mn37 2.117 . S
O63 C40 1.264 . S
C64 C57 1.403 . S
C64 C65 1.399 . S
C64 H70 0.929 . S
C65 C45 1.449 . S
C65 C64 1.399 . S
C65 H71 0.930 . S
H66 C46 0.931 . S
H67 C47 0.930 . S
H68 C55 0.931 . S
H69 C56 0.929 . S
H70 C64 0.929 . S
H71 C65 0.930 . S
Mn72 O77 2.095 . S
Mn72 O87 2.162 . S
Mn72 O88 2.297 . S
Mn72 O96 2.385 . S
Mn72 O97 2.209 . S
Mn72 O98 2.094 . S
Mn73 O78 2.121 . S
Mn73 N80 2.257 . S
Mn73 N89 2.282 . S
Mn73 O97 2.215 . S
Mn73 O99 2.117 . S
C74 O96 1.234 . S
C74 O97 1.283 . S
C75 O87 1.281 . S
C75 O88 1.236 . S
C76 O98 1.240 . S
C76 O99 1.264 . S
O77 Mn72 2.095 . S
O77 C86 1.250 . S
O78 Mn73 2.121 . S
O78 C86 1.258 . S
C79 N80 1.326 . S
C79 C83 1.460 . S
C79 H85 0.929 . S
N80 Mn73 2.257 . S
N80 C79 1.326 . S
N80 C84 1.362 . S
C81 C82 1.258 . S
C81 C84 1.431 . S
C81 C101 1.449 . S
C82 C81 1.258 . S
C82 C83 1.477 . S
C82 H102 0.931 . S
C83 C79 1.460 . S
C83 C82 1.477 . S
C83 H103 0.930 . S
C84 N80 1.362 . S
C84 C81 1.431 . S
C84 C94 1.476 . S
H85 C79 0.929 . S
C86 O77 1.250 . S
C86 O78 1.258 . S
O87 Mn72 2.162 . S
O87 C75 1.281 . S
O88 Mn72 2.297 . S
O88 C75 1.236 . S
N89 Mn73 2.282 . S
N89 C90 1.328 . S
N89 C94 1.318 . S
C90 N89 1.328 . S
C90 C91 1.457 1_556 S
C90 H95 0.929 . S
C91 C90 1.457 1_554 S
C91 C92 1.291 . S
C91 H104 0.931 . S
C92 C91 1.291 . S
C92 C93 1.373 1_554 S
C92 H105 0.929 . S
C93 C92 1.373 1_556 S
C93 C94 1.396 . S
C93 C100 1.403 . S
C94 C84 1.476 . S
C94 N89 1.318 . S
C94 C93 1.396 . S
H95 C90 0.929 . S
O96 Mn72 2.385 . S
O96 C74 1.234 . S
O97 Mn72 2.209 . S
O97 Mn73 2.215 . S
O97 C74 1.283 . S
O98 Mn72 2.094 . S
O98 C76 1.240 . S
O99 Mn73 2.117 . S
O99 C76 1.264 . S
C100 C93 1.403 . S
C100 C101 1.399 . S
C100 H106 0.929 1_556 S
C101 C81 1.449 . S
C101 C100 1.399 . S
C101 H107 0.930 . S
H102 C82 0.931 . S
H103 C83 0.930 . S
H104 C91 0.931 . S
H105 C92 0.929 . S
H106 C100 0.929 1_554 S
H107 C101 0.930 . S
Mn108 O113 2.095 1_554 S
Mn108 O123 2.162 . S
Mn108 O124 2.297 . S
Mn108 O132 2.385 . S
Mn108 O133 2.209 . S
Mn108 O134 2.094 . S
Mn109 O114 2.121 1_554 S
Mn109 N116 2.257 . S
Mn109 N125 2.282 . S
Mn109 O133 2.215 . S
Mn109 O135 2.117 . S
C110 O132 1.234 . S
C110 O133 1.283 . S
C111 O123 1.281 . S
C111 O124 1.236 . S
C112 O134 1.240 . S
C112 O135 1.264 . S
O113 Mn108 2.095 1_556 S
O113 C122 1.250 . S
O114 Mn109 2.121 1_556 S
O114 C122 1.258 . S
C115 N116 1.326 . S
C115 C119 1.460 . S
C115 H121 0.929 1_554 S
N116 Mn109 2.257 . S
N116 C115 1.326 . S
N116 C120 1.362 . S
C117 C118 1.258 . S
C117 C120 1.431 . S
C117 C137 1.449 . S
C118 C117 1.258 . S
C118 C119 1.477 . S
C118 H138 0.931 . S
C119 C115 1.460 . S
C119 C118 1.477 . S
C119 H139 0.930 . S
C120 N116 1.362 . S
C120 C117 1.431 . S
C120 C130 1.476 . S
H121 C115 0.929 1_556 S
C122 O113 1.250 . S
C122 O114 1.258 . S
O123 Mn108 2.162 . S
O123 C111 1.281 . S
O124 Mn108 2.297 . S
O124 C111 1.236 . S
N125 Mn109 2.282 . S
N125 C126 1.328 . S
N125 C130 1.318 . S
C126 N125 1.328 . S
C126 C127 1.457 . S
C126 H131 0.929 . S
C127 C126 1.457 . S
C127 C128 1.291 . S
C127 H140 0.931 . S
C128 C127 1.291 . S
C128 C129 1.373 . S
C128 H141 0.929 . S
C129 C128 1.373 . S
C129 C130 1.396 . S
C129 C136 1.403 . S
C130 C120 1.476 . S
C130 N125 1.318 . S
C130 C129 1.396 . S
H131 C126 0.929 . S
O132 Mn108 2.385 . S
O132 C110 1.234 . S
O133 Mn108 2.209 . S
O133 Mn109 2.215 . S
O133 C110 1.283 . S
O134 Mn108 2.094 . S
O134 C112 1.240 . S
O135 Mn109 2.117 . S
O135 C112 1.264 . S
C136 C129 1.403 . S
C136 C137 1.399 . S
C136 H142 0.929 . S
C137 C117 1.449 . S
C137 C136 1.399 . S
C137 H143 0.930 . S
H138 C118 0.931 . S
H139 C119 0.930 . S
H140 C127 0.931 . S
H141 C128 0.929 . S
H142 C136 0.929 . S
H143 C137 0.930 . S
Mn144 O149 2.095 . S
Mn144 O159 2.162 . S
Mn144 O160 2.297 . S
Mn144 O168 2.385 . S
Mn144 O169 2.209 . S
Mn144 O170 2.094 . S
Mn145 O150 2.121 . S
Mn145 N152 2.257 . S
Mn145 N161 2.282 . S
Mn145 O169 2.215 . S
Mn145 O171 2.117 . S
C146 O168 1.234 . S
C146 O169 1.283 . S
C147 O159 1.281 . S
C147 O160 1.236 . S
C148 O170 1.240 . S
C148 O171 1.264 . S
O149 Mn144 2.095 . S
O149 C158 1.250 . S
O150 Mn145 2.121 . S
O150 C158 1.258 . S
C151 N152 1.326 . S
C151 C155 1.460 . S
C151 H157 0.929 . S
N152 Mn145 2.257 . S
N152 C151 1.326 . S
N152 C156 1.362 . S
C153 C154 1.258 . S
C153 C156 1.431 . S
C153 C173 1.449 . S
C154 C153 1.258 . S
C154 C155 1.477 . S
C154 H174 0.931 . S
C155 C151 1.460 . S
C155 C154 1.477 . S
C155 H175 0.930 . S
C156 N152 1.362 . S
C156 C153 1.431 . S
C156 C166 1.476 . S
H157 C151 0.929 . S
C158 O149 1.250 . S
C158 O150 1.258 . S
O159 Mn144 2.162 . S
O159 C147 1.281 . S
O160 Mn144 2.297 . S
O160 C147 1.236 . S
N161 Mn145 2.282 . S
N161 C162 1.328 . S
N161 C166 1.318 . S
C162 N161 1.328 . S
C162 C163 1.457 . S
C162 H167 0.929 . S
C163 C162 1.457 . S
C163 C164 1.291 . S
C163 H176 0.931 . S
C164 C163 1.291 . S
C164 C165 1.373 . S
C164 H177 0.929 . S
C165 C164 1.373 . S
C165 C166 1.396 . S
C165 C172 1.403 . S
C166 C156 1.476 . S
C166 N161 1.318 . S
C166 C165 1.396 . S
H167 C162 0.929 . S
O168 Mn144 2.385 . S
O168 C146 1.234 . S
O169 Mn144 2.209 . S
O169 Mn145 2.215 . S
O169 C146 1.283 . S
O170 Mn144 2.094 . S
O170 C148 1.240 . S
O171 Mn145 2.117 . S
O171 C148 1.264 . S
C172 C165 1.403 . S
C172 C173 1.399 . S
C172 H178 0.929 . S
C173 C153 1.449 . S
C173 C172 1.399 . S
C173 H179 0.930 . S
H174 C154 0.931 . S
H175 C155 0.930 . S
H176 C163 0.931 . S
H177 C164 0.929 . S
H178 C172 0.929 . S
H179 C173 0.930 . S
Mn180 O185 2.095 . S
Mn180 O195 2.162 . S
Mn180 O196 2.297 . S
Mn180 O204 2.385 . S
Mn180 O205 2.209 . S
Mn180 O206 2.094 . S
Mn181 O186 2.121 . S
Mn181 N188 2.257 . S
Mn181 N197 2.282 . S
Mn181 O205 2.215 . S
Mn181 O207 2.117 . S
C182 O204 1.234 . S
C182 O205 1.283 . S
C183 O195 1.281 . S
C183 O196 1.236 . S
C184 O206 1.240 . S
C184 O207 1.264 . S
O185 Mn180 2.095 . S
O185 C194 1.250 . S
O186 Mn181 2.121 . S
O186 C194 1.258 . S
C187 N188 1.326 . S
C187 C191 1.460 . S
C187 H193 0.929 . S
N188 Mn181 2.257 . S
N188 C187 1.326 . S
N188 C192 1.362 . S
C189 C190 1.258 . S
C189 C192 1.431 . S
C189 C209 1.449 . S
C190 C189 1.258 . S
C190 C191 1.477 . S
C190 H210 0.931 . S
C191 C187 1.460 . S
C191 C190 1.477 . S
C191 H211 0.930 . S
C192 N188 1.362 . S
C192 C189 1.431 . S
C192 C202 1.476 . S
H193 C187 0.929 . S
C194 O185 1.250 . S
C194 O186 1.258 . S
O195 Mn180 2.162 . S
O195 C183 1.281 . S
O196 Mn180 2.297 . S
O196 C183 1.236 . S
N197 Mn181 2.282 . S
N197 C198 1.328 . S
N197 C202 1.318 . S
C198 N197 1.328 . S
C198 C199 1.457 . S
C198 H203 0.929 . S
C199 C198 1.457 . S
C199 C200 1.291 . S
C199 H212 0.931 . S
C200 C199 1.291 . S
C200 C201 1.373 . S
C200 H213 0.929 . S
C201 C200 1.373 . S
C201 C202 1.396 . S
C201 C208 1.403 . S
C202 C192 1.476 . S
C202 N197 1.318 . S
C202 C201 1.396 . S
H203 C198 0.929 . S
O204 Mn180 2.385 . S
O204 C182 1.234 . S
O205 Mn180 2.209 . S
O205 Mn181 2.215 . S
O205 C182 1.283 . S
O206 Mn180 2.094 . S
O206 C184 1.240 . S
O207 Mn181 2.117 . S
O207 C184 1.264 . S
C208 C201 1.403 . S
C208 C209 1.399 . S
C208 H214 0.929 . S
C209 C189 1.449 . S
C209 C208 1.399 . S
C209 H215 0.930 . S
H210 C190 0.931 . S
H211 C191 0.930 . S
H212 C199 0.931 . S
H213 C200 0.929 . S
H214 C208 0.929 . S
H215 C209 0.930 . S
Mn216 O221 2.095 . S
Mn216 O231 2.162 . S
Mn216 O232 2.297 . S
Mn216 O240 2.385 . S
Mn216 O241 2.209 . S
Mn216 O242 2.094 . S
Mn217 O222 2.121 . S
Mn217 N224 2.257 . S
Mn217 N233 2.282 . S
Mn217 O241 2.215 . S
Mn217 O243 2.117 . S
C218 O240 1.234 . S
C218 O241 1.283 . S
C219 O231 1.281 . S
C219 O232 1.236 . S
C220 O242 1.240 . S
C220 O243 1.264 . S
O221 Mn216 2.095 . S
O221 C230 1.250 . S
O222 Mn217 2.121 . S
O222 C230 1.258 . S
C223 N224 1.326 . S
C223 C227 1.460 . S
C223 H229 0.929 . S
N224 Mn217 2.257 . S
N224 C223 1.326 . S
N224 C228 1.362 . S
C225 C226 1.258 . S
C225 C228 1.431 . S
C225 C245 1.449 . S
C226 C225 1.258 . S
C226 C227 1.477 . S
C226 H246 0.931 . S
C227 C223 1.460 . S
C227 C226 1.477 . S
C227 H247 0.930 . S
C228 N224 1.362 . S
C228 C225 1.431 . S
C228 C238 1.476 . S
H229 C223 0.929 . S
C230 O221 1.250 . S
C230 O222 1.258 . S
O231 Mn216 2.162 . S
O231 C219 1.281 . S
O232 Mn216 2.297 . S
O232 C219 1.236 . S
N233 Mn217 2.282 . S
N233 C234 1.328 . S
N233 C238 1.318 . S
C234 N233 1.328 . S
C234 C235 1.457 . S
C234 H239 0.929 . S
C235 C234 1.457 . S
C235 C236 1.291 . S
C235 H248 0.931 . S
C236 C235 1.291 . S
C236 C237 1.373 . S
C236 H249 0.929 . S
C237 C236 1.373 . S
C237 C238 1.396 . S
C237 C244 1.403 . S
C238 C228 1.476 . S
C238 N233 1.318 . S
C238 C237 1.396 . S
H239 C234 0.929 . S
O240 Mn216 2.385 . S
O240 C218 1.234 . S
O241 Mn216 2.209 . S
O241 Mn217 2.215 . S
O241 C218 1.283 . S
O242 Mn216 2.094 . S
O242 C220 1.240 . S
O243 Mn217 2.117 . S
O243 C220 1.264 . S
C244 C237 1.403 . S
C244 C245 1.399 . S
C244 H250 0.929 . S
C245 C225 1.449 . S
C245 C244 1.399 . S
C245 H251 0.930 . S
H246 C226 0.931 . S
H247 C227 0.930 . S
H248 C235 0.931 . S
H249 C236 0.929 . S
H250 C244 0.929 . S
H251 C245 0.930 . S
Mn252 O257 2.095 . S
Mn252 O267 2.162 . S
Mn252 O268 2.297 . S
Mn252 O276 2.385 1_554 S
Mn252 O277 2.209 1_554 S
Mn252 O278 2.094 . S
Mn253 O258 2.121 . S
Mn253 N260 2.257 . S
Mn253 N269 2.282 1_554 S
Mn253 O277 2.215 1_554 S
Mn253 O279 2.117 . S
C254 O276 1.234 . S
C254 O277 1.283 . S
C255 O267 1.281 . S
C255 O268 1.236 . S
C256 O278 1.240 . S
C256 O279 1.264 . S
O257 Mn252 2.095 . S
O257 C266 1.250 . S
O258 Mn253 2.121 . S
O258 C266 1.258 . S
C259 N260 1.326 . S
C259 C263 1.460 . S
C259 H265 0.929 . S
N260 Mn253 2.257 . S
N260 C259 1.326 . S
N260 C264 1.362 1_554 S
C261 C262 1.258 . S
C261 C264 1.431 . S
C261 C281 1.449 . S
C262 C261 1.258 . S
C262 C263 1.477 1_556 S
C262 H282 0.931 . S
C263 C259 1.460 . S
C263 C262 1.477 1_554 S
C263 H283 0.930 . S
C264 N260 1.362 1_556 S
C264 C261 1.431 . S
C264 C274 1.476 . S
H265 C259 0.929 . S
C266 O257 1.250 . S
C266 O258 1.258 . S
O267 Mn252 2.162 . S
O267 C255 1.281 . S
O268 Mn252 2.297 . S
O268 C255 1.236 . S
N269 Mn253 2.282 1_556 S
N269 C270 1.328 . S
N269 C274 1.318 . S
C270 N269 1.328 . S
C270 C271 1.457 . S
C270 H275 0.929 . S
C271 C270 1.457 . S
C271 C272 1.291 . S
C271 H284 0.931 . S
C272 C271 1.291 . S
C272 C273 1.373 . S
C272 H285 0.929 . S
C273 C272 1.373 . S
C273 C274 1.396 . S
C273 C280 1.403 . S
C274 C264 1.476 . S
C274 N269 1.318 . S
C274 C273 1.396 . S
H275 C270 0.929 . S
O276 Mn252 2.385 1_556 S
O276 C254 1.234 . S
O277 Mn252 2.209 1_556 S
O277 Mn253 2.215 1_556 S
O277 C254 1.283 . S
O278 Mn252 2.094 . S
O278 C256 1.240 . S
O279 Mn253 2.117 . S
O279 C256 1.264 . S
C280 C273 1.403 . S
C280 C281 1.399 . S
C280 H286 0.929 . S
C281 C261 1.449 . S
C281 C280 1.399 . S
C281 H287 0.930 . S
H282 C262 0.931 . S
H283 C263 0.930 . S
H284 C271 0.931 . S
H285 C272 0.929 . S
H286 C280 0.929 . S
H287 C281 0.930 . S
C288 C289 1.170 . S
C288 C290 1.380 . S
C289 C288 1.170 . S
C290 C288 1.380 . S
C290 C291 1.170 . S
C291 C290 1.170 . S
C292 C293 1.170 . S
C292 C294 1.380 . S
C293 C292 1.170 . S
C294 C292 1.380 . S
C294 C295 1.170 . S
C295 C294 1.170 . S
C296 C297 1.170 . S
C296 C298 1.380 . S
C297 C296 1.170 . S
C298 C296 1.380 . S
C298 C299 1.170 1_554 S
C299 C298 1.170 1_556 S
C300 C301 1.170 . S
C300 C302 1.380 . S
C301 C300 1.170 . S
C302 C300 1.380 . S
C302 C303 1.170 . S
C303 C302 1.170 . S
C304 C305 1.170 . S
C304 C306 1.380 . S
C305 C304 1.170 . S
C306 C304 1.380 . S
C306 C307 1.170 . S
C307 C306 1.170 . S
C308 C309 1.170 . S
C308 C310 1.380 . S
C309 C308 1.170 . S
C310 C308 1.380 . S
C310 C311 1.170 . S
C311 C310 1.170 . S
C312 C313 1.170 . S
C312 C314 1.380 . S
C313 C312 1.170 . S
C314 C312 1.380 . S
C314 C315 1.170 . S
C315 C314 1.170 . S
C316 C317 1.170 . S
C316 C318 1.380 . S
C317 C316 1.170 . S
C318 C316 1.380 . S
C318 C319 1.170 . S
C319 C318 1.170 . S
C320 C321 1.170 . S
C320 C322 1.380 1_565 S
C321 C320 1.170 . S
C322 C320 1.380 1_545 S
C322 C323 1.170 . S
C323 C322 1.170 . S
C324 C325 1.170 . S
C324 C326 1.380 1_655 S
C325 C324 1.170 . S
C326 C324 1.380 1_455 S
C326 C327 1.170 . S
C327 C326 1.170 . S
C328 C329 1.170 . S
C328 C330 1.380 1_565 S
C329 C328 1.170 . S
C330 C328 1.380 1_545 S
C330 C331 1.170 . S
C331 C330 1.170 . S
C332 C333 1.170 . S
C332 C334 1.380 1_655 S
C333 C332 1.170 . S
C334 C332 1.380 1_455 S
C334 C335 1.170 . S
C335 C334 1.170 . S
C336 C337 1.170 1_554 S
C336 C338 1.380 . S
C337 C336 1.170 1_556 S
C338 C336 1.380 . S
C338 C339 1.170 . S
C339 C338 1.170 . S
C340 C341 1.170 . S
C340 C342 1.380 . S
C341 C340 1.170 . S
C342 C340 1.380 . S
C342 C343 1.170 . S
C343 C342 1.170 . S
C344 C345 1.170 . S
C344 C346 1.380 . S
C345 C344 1.170 . S
C346 C344 1.380 . S
C346 C347 1.170 . S
C347 C346 1.170 . S
C348 C349 1.170 . S
C348 C350 1.380 . S
C349 C348 1.170 . S
C350 C348 1.380 . S
C350 C351 1.170 . S
C351 C350 1.170 . S
C289 C2 0.951 . S
C291 C218 0.988 . S
C293 C38 0.959 . S
C295 C254 0.990 . S
C297 C146 0.967 . S
C299 C74 0.968 . S
C301 C182 0.970 . S
C303 C110 0.965 . S
C305 C3 1.523 . S
C307 C183 1.500 . S
C309 C39 1.518 . S
C311 C219 1.493 . S
C313 C255 1.495 1_556 S
C315 C75 1.522 . S
C317 C111 1.523 . S
C319 C147 1.500 . S
C321 C148 1.475 . S
C323 C4 1.476 . S
C325 C40 1.472 . S
C327 C184 1.471 . S
C329 C76 1.470 . S
C331 C220 1.469 . S
C333 C256 1.480 . S
C335 C112 1.479 . S
C337 C230 1.350 . S
C339 C14 1.381 . S
C341 C266 1.377 . S
C343 C50 1.351 . S
C345 C86 1.391 . S
C347 C158 1.397 . S
C349 C122 1.368 . S
C351 C194 1.406 . S
