# Generated by pormake.
# Topology wgt, (5)-cn, num edge types: 1
# Building blocks:
#     Node 0, Type 0, BuildingBlock: BEQFEK_clean_sbu_0, # of connection points: 5
#     Node 1, Type 0, BuildingBlock: BEQFEK_clean_sbu_0, # of connection points: 5
#     Node 2, Type 0, BuildingBlock: BEQFEK_clean_sbu_0, # of connection points: 5
#     Node 3, Type 0, BuildingBlock: BEQFEK_clean_sbu_0, # of connection points: 5
#     Node 4, Type 0, BuildingBlock: BEQFEK_clean_sbu_0, # of connection points: 5
#     Node 5, Type 0, BuildingBlock: BEQFEK_clean_sbu_0, # of connection points: 5
#     Node 6, Type 0, BuildingBlock: BEQFEK_clean_sbu_0, # of connection points: 5
#     Node 7, Type 0, BuildingBlock: BEQFEK_clean_sbu_0, # of connection points: 5
#     Node 8, Type 0, BuildingBlock: BEQFEK_clean_sbu_0, # of connection points: 5
#     Node 9, Type 0, BuildingBlock: BEQFEK_clean_sbu_0, # of connection points: 5
#     Node 10, Type 0, BuildingBlock: BEQFEK_clean_sbu_0, # of connection points: 5
#     Node 11, Type 0, BuildingBlock: BEQFEK_clean_sbu_0, # of connection points: 5
#     Node 12, Type 0, BuildingBlock: BEQFEK_clean_sbu_0, # of connection points: 5
#     Node 13, Type 0, BuildingBlock: BEQFEK_clean_sbu_0, # of connection points: 5
#     Node 14, Type 0, BuildingBlock: BEQFEK_clean_sbu_0, # of connection points: 5
#     Node 15, Type 0, BuildingBlock: BEQFEK_clean_sbu_0, # of connection points: 5
#     Edge 16, Type (0, 0), BuildingBlock: XUDNAN_clean_linker_2, # of connection points: 2
#     Edge 17, Type (0, 0), BuildingBlock: XUDNAN_clean_linker_2, # of connection points: 2
#     Edge 18, Type (0, 0), BuildingBlock: XUDNAN_clean_linker_2, # of connection points: 2
#     Edge 19, Type (0, 0), BuildingBlock: XUDNAN_clean_linker_2, # of connection points: 2
#     Edge 20, Type (0, 0), BuildingBlock: XUDNAN_clean_linker_2, # of connection points: 2
#     Edge 21, Type (0, 0), BuildingBlock: XUDNAN_clean_linker_2, # of connection points: 2
#     Edge 22, Type (0, 0), BuildingBlock: XUDNAN_clean_linker_2, # of connection points: 2
#     Edge 23, Type (0, 0), BuildingBlock: XUDNAN_clean_linker_2, # of connection points: 2
#     Edge 24, Type (0, 0), BuildingBlock: XUDNAN_clean_linker_2, # of connection points: 2
#     Edge 25, Type (0, 0), BuildingBlock: XUDNAN_clean_linker_2, # of connection points: 2
#     Edge 26, Type (0, 0), BuildingBlock: XUDNAN_clean_linker_2, # of connection points: 2
#     Edge 27, Type (0, 0), BuildingBlock: XUDNAN_clean_linker_2, # of connection points: 2
#     Edge 28, Type (0, 0), BuildingBlock: XUDNAN_clean_linker_2, # of connection points: 2
#     Edge 29, Type (0, 0), BuildingBlock: XUDNAN_clean_linker_2, # of connection points: 2
#     Edge 30, Type (0, 0), BuildingBlock: XUDNAN_clean_linker_2, # of connection points: 2
#     Edge 31, Type (0, 0), BuildingBlock: XUDNAN_clean_linker_2, # of connection points: 2
#     Edge 32, Type (0, 0), BuildingBlock: XUDNAN_clean_linker_2, # of connection points: 2
#     Edge 33, Type (0, 0), BuildingBlock: XUDNAN_clean_linker_2, # of connection points: 2
#     Edge 34, Type (0, 0), BuildingBlock: XUDNAN_clean_linker_2, # of connection points: 2
#     Edge 35, Type (0, 0), BuildingBlock: XUDNAN_clean_linker_2, # of connection points: 2
#     Edge 36, Type (0, 0), BuildingBlock: XUDNAN_clean_linker_2, # of connection points: 2
#     Edge 37, Type (0, 0), BuildingBlock: XUDNAN_clean_linker_2, # of connection points: 2
#     Edge 38, Type (0, 0), BuildingBlock: XUDNAN_clean_linker_2, # of connection points: 2
#     Edge 39, Type (0, 0), BuildingBlock: XUDNAN_clean_linker_2, # of connection points: 2
#     Edge 40, Type (0, 0), BuildingBlock: XUDNAN_clean_linker_2, # of connection points: 2
#     Edge 41, Type (0, 0), BuildingBlock: XUDNAN_clean_linker_2, # of connection points: 2
#     Edge 42, Type (0, 0), BuildingBlock: XUDNAN_clean_linker_2, # of connection points: 2
#     Edge 43, Type (0, 0), BuildingBlock: XUDNAN_clean_linker_2, # of connection points: 2
#     Edge 44, Type (0, 0), BuildingBlock: XUDNAN_clean_linker_2, # of connection points: 2
#     Edge 45, Type (0, 0), BuildingBlock: XUDNAN_clean_linker_2, # of connection points: 2
#     Edge 46, Type (0, 0), BuildingBlock: XUDNAN_clean_linker_2, # of connection points: 2
#     Edge 47, Type (0, 0), BuildingBlock: XUDNAN_clean_linker_2, # of connection points: 2
#     Edge 48, Type (0, 0), BuildingBlock: XUDNAN_clean_linker_2, # of connection points: 2
#     Edge 49, Type (0, 0), BuildingBlock: XUDNAN_clean_linker_2, # of connection points: 2
#     Edge 50, Type (0, 0), BuildingBlock: XUDNAN_clean_linker_2, # of connection points: 2
#     Edge 51, Type (0, 0), BuildingBlock: XUDNAN_clean_linker_2, # of connection points: 2
#     Edge 52, Type (0, 0), BuildingBlock: XUDNAN_clean_linker_2, # of connection points: 2
#     Edge 53, Type (0, 0), BuildingBlock: XUDNAN_clean_linker_2, # of connection points: 2
#     Edge 54, Type (0, 0), BuildingBlock: XUDNAN_clean_linker_2, # of connection points: 2
#     Edge 55, Type (0, 0), BuildingBlock: XUDNAN_clean_linker_2, # of connection points: 2
# Relax obj value: 0.129
# Max RMSD: 0.183
# Mean RMSD: 0.183
data_MOF--net-wgt--node1-BEQFEK_clean_sbu_0--edge1-XUDNAN_clean_linker_2
_symmetry_space_group_name_H-M    P1
_symmetry_Int_Tables_number       1
_symmetry_cell_setting            triclinic
loop_
_symmetry_equiv_pos_as_xyz
'x, y, z'
_cell_length_a     29.203555
_cell_length_b     29.162099
_cell_length_c     76.241422
_cell_angle_alpha  89.979479
_cell_angle_beta   90.049795
_cell_angle_gamma 90.063378
loop_
_atom_site_label
_atom_site_type_symbol
_atom_site_fract_x
_atom_site_fract_y
_atom_site_fract_z
_atom_type_partial_charge
Co0 Co 0.1796 0.31083 0.02918 0.0
Co1 Co 0.16641 0.31068 0.98777 0.0
C2 C 0.12756 0.23653 0.01001 0.0
O3 O 0.14478 0.25504 0.02359 0.0
O4 O 0.13375 0.25386 0.99488 0.0
C5 C 0.19617 0.26952 0.06281 0.0
O6 O 0.18401 0.23234 0.05429 0.0
C7 C 0.16612 0.27627 0.95171 0.0
C8 C 0.16298 0.33972 0.93595 0.0
C9 C 0.16281 0.29228 0.93455 0.0
N10 N 0.16739 0.31243 0.96263 0.0
N11 N 0.16576 0.35029 0.95313 0.0
C12 C 0.17093 0.22768 0.95777 0.0
H13 H 0.1911 0.22634 0.9701 0.0
H14 H 0.18802 0.2064 0.94765 0.0
H15 H 0.13646 0.21328 0.96046 0.0
C16 C 0.2748 0.3248 0.01889 0.0
N17 N 0.23079 0.3177 0.01463 0.0
N18 N 0.22669 0.31494 0.99748 0.0
C19 C 0.26873 0.3186 0.99026 0.0
C20 C 0.30072 0.32508 0.00363 0.0
C21 C 0.2907 0.33435 0.03723 0.0
H22 H 0.29361 0.30151 0.0445 0.0
H23 H 0.32428 0.35215 0.03737 0.0
H24 H 0.26526 0.35613 0.04407 0.0
O25 O 0.13651 0.3612 0.02529 0.0
O26 O 0.12687 0.36224 0.99628 0.0
H27 H 0.26929 0.34569 0.96423 0.0
H28 H 0.31435 0.30464 0.9685 0.0
C29 C 0.278 0.31325 0.97106 0.0
H30 H 0.25618 0.28565 0.96561 0.0
H31 H 0.16572 0.38333 0.95839 0.0
O32 O 0.19746 0.30764 0.05466 0.0
C33 C 0.11749 0.37743 0.01158 0.0
Co34 Co 0.66827 0.67739 0.28042 0.0
Co35 Co 0.68461 0.67517 0.23963 0.0
C36 C 0.74841 0.62798 0.26351 0.0
O37 O 0.72326 0.64072 0.2762 0.0
O38 O 0.73955 0.64032 0.24783 0.0
C39 C 0.64547 0.68257 0.31897 0.0
O40 O 0.60689 0.65996 0.31697 0.0
C41 C 0.72354 0.68614 0.20427 0.0
C42 C 0.66129 0.68727 0.18779 0.0
C43 C 0.70863 0.68958 0.187 0.0
N44 N 0.6867 0.68187 0.21471 0.0
N45 N 0.64962 0.68241 0.20477 0.0
C46 C 0.77157 0.68927 0.21098 0.0
H47 H 0.77185 0.70455 0.22432 0.0
H48 H 0.7932 0.71011 0.20204 0.0
H49 H 0.78619 0.65423 0.21188 0.0
C50 C 0.66615 0.777 0.27337 0.0
N51 N 0.67057 0.73338 0.26785 0.0
N52 N 0.67682 0.73301 0.25078 0.0
C53 C 0.67503 0.77651 0.24476 0.0
C54 C 0.66818 0.80601 0.25891 0.0
C55 C 0.66425 0.79027 0.29235 0.0
H56 H 0.69234 0.7729 0.29951 0.0
H57 H 0.66825 0.82767 0.29435 0.0
H58 H 0.63126 0.77864 0.29804 0.0
O59 O 0.61546 0.63796 0.27342 0.0
O60 O 0.63194 0.63527 0.24497 0.0
H61 H 0.65193 0.76734 0.21839 0.0
H62 H 0.66772 0.82534 0.2234 0.0
C63 C 0.67662 0.78891 0.22571 0.0
H64 H 0.71138 0.78187 0.22051 0.0
H65 H 0.6163 0.67961 0.20959 0.0
O66 O 0.6707 0.69083 0.30578 0.0
C67 C 0.60772 0.62267 0.25801 0.0
Co68 Co 0.31677 0.15519 0.52922 0.0
Co69 Co 0.31182 0.17405 0.4886 0.0
C70 C 0.37258 0.22942 0.51094 0.0
O71 O 0.3589 0.20606 0.52403 0.0
O72 O 0.35697 0.22206 0.49557 0.0
C73 C 0.29969 0.18493 0.56404 0.0
O74 O 0.28963 0.22343 0.55595 0.0
C75 C 0.30817 0.20915 0.45187 0.0
C76 C 0.25873 0.16034 0.44028 0.0
C77 C 0.28519 0.19843 0.43643 0.0
N78 N 0.29568 0.17866 0.46427 0.0
N79 N 0.26652 0.14938 0.45715 0.0
C80 C 0.33893 0.24926 0.45522 0.0
H81 H 0.32727 0.26763 0.46714 0.0
H82 H 0.33937 0.27338 0.44396 0.0
H83 H 0.37417 0.23669 0.45775 0.0
C84 C 0.21775 0.16213 0.52615 0.0
N85 N 0.25962 0.1642 0.51902 0.0
N86 N 0.25672 0.17739 0.50258 0.0
C87 C 0.21242 0.1876 0.49912 0.0
C88 C 0.18608 0.17815 0.51402 0.0
C89 C 0.20814 0.13989 0.5435 0.0
H90 H 0.2093 0.16601 0.55405 0.0
H91 H 0.17378 0.12359 0.54354 0.0
H92 H 0.23433 0.11338 0.54636 0.0
O93 O 0.34263 0.09953 0.52019 0.0
O94 O 0.34371 0.1127 0.49144 0.0
H95 H 0.18416 0.18215 0.47335 0.0
H96 H 0.16773 0.23329 0.48496 0.0
C97 C 0.19642 0.20928 0.48242 0.0
H98 H 0.22485 0.22821 0.47605 0.0
H99 H 0.25126 0.12231 0.46394 0.0
O100 O 0.31215 0.15045 0.55506 0.0
C101 C 0.35255 0.08733 0.50468 0.0
Co102 Co 0.84224 0.81238 0.78325 0.0
Co103 Co 0.81534 0.80557 0.74341 0.0
C104 C 0.75793 0.85899 0.76684 0.0
O105 O 0.78587 0.84883 0.77909 0.0
O106 O 0.76254 0.84236 0.7515 0.0
C107 C 0.83503 0.83575 0.81945 0.0
O108 O 0.82187 0.8755 0.81311 0.0
C109 C 0.78106 0.806 0.70681 0.0
C110 C 0.8345 0.76535 0.69348 0.0
C111 C 0.79482 0.79009 0.69044 0.0
N112 N 0.8116 0.79177 0.71887 0.0
N113 N 0.84331 0.76735 0.71079 0.0
C114 C 0.73858 0.83228 0.71117 0.0
H115 H 0.72287 0.81806 0.72324 0.0
H116 H 0.71308 0.83055 0.70041 0.0
H117 H 0.74774 0.86863 0.71371 0.0
C118 C 0.84736 0.71293 0.77938 0.0
N119 N 0.8396 0.75461 0.77255 0.0
N120 N 0.82318 0.75048 0.75661 0.0
C121 C 0.81734 0.70544 0.7531 0.0
C122 C 0.83265 0.67973 0.76747 0.0
C123 C 0.87126 0.70593 0.79657 0.0
H124 H 0.89632 0.73395 0.79881 0.0
H125 H 0.84576 0.70695 0.80735 0.0
H126 H 0.88954 0.6726 0.79689 0.0
O127 O 0.89217 0.84949 0.77397 0.0
O128 O 0.86846 0.84869 0.74626 0.0
H129 H 0.81953 0.67822 0.7271 0.0
H130 H 0.77235 0.65755 0.74013 0.0
C131 C 0.79356 0.68808 0.73702 0.0
H132 H 0.77137 0.71514 0.73134 0.0
H133 H 0.87141 0.75259 0.71709 0.0
O134 O 0.84739 0.80435 0.80893 0.0
C135 C 0.89535 0.8635 0.75822 0.0
Co136 Co 0.81831 0.35512 0.52753 0.0
Co137 Co 0.81519 0.32095 0.48817 0.0
C138 C 0.8693 0.27056 0.51413 0.0
O139 O 0.85725 0.29984 0.52562 0.0
O140 O 0.8542 0.27259 0.49849 0.0
C141 C 0.79986 0.33192 0.56269 0.0
O142 O 0.79523 0.29166 0.55516 0.0
C143 C 0.82112 0.27585 0.45345 0.0
C144 C 0.77008 0.31496 0.43818 0.0
C145 C 0.80086 0.27897 0.43697 0.0
N146 N 0.80237 0.30784 0.46396 0.0
N147 N 0.77222 0.33134 0.45466 0.0
C148 C 0.86082 0.24648 0.45872 0.0
H149 H 0.88476 0.26667 0.46698 0.0
H150 H 0.84815 0.21706 0.46658 0.0
H151 H 0.87972 0.23348 0.44714 0.0
C152 C 0.71898 0.35259 0.52286 0.0
N153 N 0.7614 0.34684 0.51649 0.0
N154 N 0.75926 0.32716 0.50103 0.0
C155 C 0.7151 0.31649 0.49761 0.0
C156 C 0.68774 0.33261 0.51134 0.0
C157 C 0.70909 0.37977 0.53909 0.0
H158 H 0.7355 0.40674 0.54089 0.0
H159 H 0.71008 0.35684 0.55069 0.0
H160 H 0.67486 0.39614 0.53831 0.0
O161 O 0.85275 0.40432 0.51628 0.0
O162 O 0.85301 0.37885 0.48875 0.0
H163 H 0.68797 0.30827 0.47174 0.0
H164 H 0.6723 0.2633 0.48676 0.0
C165 C 0.70048 0.28652 0.48268 0.0
H166 H 0.72964 0.26559 0.47795 0.0
H167 H 0.75313 0.35868 0.45958 0.0
O168 O 0.80987 0.36642 0.55318 0.0
C169 C 0.86552 0.40792 0.50036 0.0
Co170 Co 0.66762 0.31272 0.78017 0.0
Co171 Co 0.69856 0.30669 0.74055 0.0
C172 C 0.75319 0.36001 0.76532 0.0
O173 O 0.72429 0.3492 0.77713 0.0
O174 O 0.74971 0.34438 0.74979 0.0
C175 C 0.67106 0.33597 0.81651 0.0
O176 O 0.68317 0.37611 0.8102 0.0
C177 C 0.73339 0.31425 0.70409 0.0
C178 C 0.68638 0.26747 0.6901 0.0
C179 C 0.72187 0.29826 0.68744 0.0
N180 N 0.70556 0.2942 0.71592 0.0
N181 N 0.67768 0.2662 0.70743 0.0
C182 C 0.77105 0.3468 0.70886 0.0
H183 H 0.78951 0.33384 0.72056 0.0
H184 H 0.796 0.35089 0.69801 0.0
H185 H 0.75607 0.38065 0.7122 0.0
C186 C 0.66441 0.21349 0.77614 0.0
N187 N 0.67207 0.25517 0.76931 0.0
N188 N 0.6902 0.25113 0.75364 0.0
C189 C 0.6973 0.20609 0.7504 0.0
C190 C 0.6811 0.18038 0.76464 0.0
C191 C 0.63878 0.20631 0.79295 0.0
H192 H 0.61288 0.23376 0.79465 0.0
H193 H 0.66302 0.20821 0.80414 0.0
H194 H 0.62121 0.17255 0.79309 0.0
O195 O 0.61849 0.34956 0.76993 0.0
O196 O 0.64363 0.34777 0.74242 0.0
H197 H 0.69837 0.17696 0.7247 0.0
H198 H 0.74516 0.15934 0.73853 0.0
C199 C 0.72307 0.18873 0.73481 0.0
H200 H 0.74458 0.21635 0.72912 0.0
H201 H 0.6518 0.24713 0.71342 0.0
O202 O 0.66029 0.30412 0.80591 0.0
C203 C 0.6156 0.36234 0.754 0.0
Co204 Co 0.67783 0.18978 0.03018 0.0
Co205 Co 0.68253 0.19183 0.98875 0.0
C206 C 0.62355 0.25651 0.00823 0.0
O207 O 0.63529 0.23871 0.02278 0.0
O208 O 0.64058 0.24279 0.99387 0.0
C209 C 0.68129 0.17448 0.06881 0.0
O210 O 0.66498 0.13294 0.06645 0.0
C211 C 0.68577 0.22522 0.95227 0.0
C212 C 0.7186 0.1678 0.93823 0.0
C213 C 0.70093 0.21144 0.93585 0.0
N214 N 0.69465 0.1916 0.9639 0.0
N215 N 0.71414 0.15729 0.95538 0.0
C216 C 0.65971 0.26791 0.95665 0.0
H217 H 0.62577 0.25817 0.962 0.0
H218 H 0.6785 0.2875 0.96685 0.0
H219 H 0.65371 0.29001 0.94507 0.0
C220 C 0.77589 0.18179 0.0256 0.0
N221 N 0.73455 0.19057 0.01879 0.0
N222 N 0.73808 0.19721 1.00185 0.0
C223 C 0.78295 0.19758 0.99753 0.0
C224 C 0.80897 0.18737 0.01255 0.0
C225 C 0.78129 0.1596 0.04324 0.0
H226 H 0.7504 0.13897 0.04631 0.0
H227 H 0.78494 0.18644 0.05346 0.0
H228 H 0.81132 0.13636 0.0436 0.0
O229 O 0.64866 0.13205 0.02481 0.0
O230 O 0.64911 0.13307 0.99549 0.0
H231 H 0.80609 0.17752 0.97206 0.0
H232 H 0.832 0.2296 0.98034 0.0
C233 C 0.79979 0.20949 0.97957 0.0
H234 H 0.77388 0.23016 0.97248 0.0
H235 H 0.7246 0.12677 0.96129 0.0
O236 O 0.68798 0.20041 0.05564 0.0
C237 C 0.6386 0.11395 0.0101 0.0
Co238 Co 0.82022 0.17456 0.28157 0.0
Co239 Co 0.80643 0.18877 0.24092 0.0
C240 C 0.74348 0.12936 0.26059 0.0
O241 O 0.76475 0.13776 0.27487 0.0
O242 O 0.75492 0.14807 0.24616 0.0
C243 C 0.82805 0.14844 0.31855 0.0
O244 O 0.83512 0.1065 0.31289 0.0
C245 C 0.77647 0.20124 0.204 0.0
C246 C 0.83558 0.23949 0.19331 0.0
C247 C 0.79338 0.2213 0.18878 0.0
N248 N 0.80748 0.20725 0.21688 0.0
N249 N 0.84276 0.22993 0.21034 0.0
C250 C 0.73059 0.17947 0.20666 0.0
H251 H 0.71638 0.18999 0.21953 0.0
H252 H 0.70627 0.18921 0.19612 0.0
H253 H 0.73465 0.14164 0.20677 0.0
C254 C 0.8292 0.27524 0.2795 0.0
N255 N 0.82039 0.23442 0.27202 0.0
N256 N 0.80826 0.24081 0.25565 0.0
C257 C 0.80543 0.28617 0.25246 0.0
C258 C 0.81931 0.3101 0.26748 0.0
C259 C 0.85143 0.27962 0.29714 0.0
H260 H 0.87306 0.24917 0.29983 0.0
H261 H 0.82457 0.28148 0.30739 0.0
H262 H 0.87324 0.31074 0.29785 0.0
O263 O 0.87296 0.13922 0.27295 0.0
O264 O 0.86126 0.14944 0.24439 0.0
H265 H 0.814 0.31355 0.22663 0.0
H266 H 0.76602 0.3371 0.23854 0.0
C267 C 0.78581 0.3054 0.23586 0.0
H268 H 0.76279 0.28 0.22957 0.0
H269 H 0.87164 0.23921 0.21759 0.0
O270 O 0.82144 0.18046 0.30754 0.0
C271 C 0.88365 0.13151 0.25702 0.0
Co272 Co 0.67775 0.82715 0.5314 0.0
Co273 Co 0.67013 0.81975 0.4903 0.0
C274 C 0.62755 0.74946 0.51348 0.0
O275 O 0.64392 0.76951 0.52698 0.0
O276 O 0.6361 0.76404 0.49803 0.0
C277 C 0.70413 0.799 0.56634 0.0
O278 O 0.71009 0.75856 0.5591 0.0
C279 C 0.67273 0.79023 0.45306 0.0
C280 C 0.69139 0.85586 0.44039 0.0
C281 C 0.68258 0.81011 0.43696 0.0
N282 N 0.67577 0.82295 0.46546 0.0
N283 N 0.68635 0.86212 0.45774 0.0
C284 C 0.66431 0.74063 0.45687 0.0
H285 H 0.68008 0.73119 0.46962 0.0
H286 H 0.67826 0.71849 0.44632 0.0
H287 H 0.62686 0.73473 0.45787 0.0
C288 C 0.77585 0.838 0.52256 0.0
N289 N 0.73177 0.83154 0.51795 0.0
N290 N 0.72918 0.82555 0.50089 0.0
C291 C 0.7719 0.82661 0.49414 0.0
C292 C 0.80298 0.83497 0.50763 0.0
C293 C 0.79121 0.84899 0.54082 0.0
H294 H 0.76578 0.87148 0.54731 0.0
H295 H 0.79394 0.81672 0.54846 0.0
H296 H 0.825 0.86642 0.54082 0.0
O297 O 0.63344 0.87524 0.52552 0.0
O298 O 0.62897 0.87135 0.49648 0.0
H299 H 0.77857 0.84727 0.46738 0.0
H300 H 0.81871 0.80359 0.47399 0.0
C301 C 0.78297 0.81588 0.47542 0.0
H302 H 0.75948 0.78904 0.47042 0.0
H303 H 0.69127 0.89297 0.46442 0.0
O304 O 0.69094 0.83236 0.55687 0.0
C305 C 0.61633 0.88845 0.51103 0.0
Co306 Co 0.16286 0.18482 0.77775 0.0
Co307 Co 0.15745 0.17712 0.7367 0.0
C308 C 0.22544 0.12337 0.75899 0.0
O309 O 0.21395 0.14222 0.77338 0.0
O310 O 0.206 0.13388 0.74456 0.0
C311 C 0.14775 0.171 0.81413 0.0
O312 O 0.13397 0.13087 0.80833 0.0
C313 C 0.19673 0.17869 0.70143 0.0
C314 C 0.13536 0.18469 0.68462 0.0
C315 C 0.18263 0.18123 0.68409 0.0
N316 N 0.15952 0.18054 0.71174 0.0
N317 N 0.1229 0.18386 0.70162 0.0
C318 C 0.2447 0.17622 0.70824 0.0
H319 H 0.25421 0.1397 0.7101 0.0
H320 H 0.24707 0.19367 0.72115 0.0
H321 H 0.26908 0.19207 0.69886 0.0
C322 C 0.17931 0.28326 0.76772 0.0
N323 N 0.16986 0.23902 0.7639 0.0
N324 N 0.16267 0.23544 0.74697 0.0
C325 C 0.1633 0.27725 0.73965 0.0
C326 C 0.17548 0.30941 0.75238 0.0
C327 C 0.19525 0.29883 0.78541 0.0
H328 H 0.20995 0.2697 0.79286 0.0
H329 H 0.22161 0.32606 0.78415 0.0
H330 H 0.1657 0.31266 0.79285 0.0
O331 O 0.10425 0.14989 0.77219 0.0
O332 O 0.09976 0.15038 0.74309 0.0
H333 H 0.13437 0.32184 0.71973 0.0
H334 H 0.17443 0.27899 0.71188 0.0
C335 C 0.14654 0.28608 0.72137 0.0
H336 H 0.11751 0.26289 0.71841 0.0
H337 H 0.08938 0.18549 0.70632 0.0
O338 O 0.16209 0.20057 0.80318 0.0
C339 C 0.0835 0.13961 0.75795 0.0
Co340 Co 0.83795 0.68504 0.03081 0.0
Co341 Co 0.82976 0.68095 0.98969 0.0
C342 C 0.89323 0.74646 0.00782 0.0
O343 O 0.87934 0.73613 0.02317 0.0
O344 O 0.87708 0.72686 0.99431 0.0
C345 C 0.8147 0.71744 0.06571 0.0
O346 O 0.79575 0.75223 0.05752 0.0
C347 C 0.82221 0.71791 0.95409 0.0
C348 C 0.79342 0.65961 0.93919 0.0
C349 C 0.8078 0.70468 0.9375 0.0
N350 N 0.81604 0.68248 0.96514 0.0
N351 N 0.79885 0.64772 0.95615 0.0
C352 C 0.84485 0.76203 0.95925 0.0
H353 H 0.88107 0.755 0.9627 0.0
H354 H 0.82766 0.77627 0.97103 0.0
H355 H 0.84477 0.78779 0.9486 0.0
C356 C 0.73717 0.6808 0.02726 0.0
N357 N 0.77917 0.68636 0.02037 0.0
N358 N 0.77569 0.69144 0.00332 0.0
C359 C 0.73096 0.69448 0.999 0.0
C360 C 0.70434 0.68709 0.01406 0.0
C361 C 0.72996 0.66091 0.04519 0.0
H362 H 0.76046 0.64096 0.04929 0.0
H363 H 0.72463 0.68892 0.05481 0.0
H364 H 0.6998 0.63774 0.04539 0.0
O365 O 0.86655 0.62722 0.02444 0.0
O366 O 0.85874 0.62026 0.99551 0.0
H367 H 0.70809 0.67601 0.97327 0.0
H368 H 0.68355 0.72869 0.98167 0.0
C369 C 0.71501 0.70748 0.98101 0.0
H370 H 0.74171 0.72775 0.97421 0.0
H371 H 0.79092 0.61585 0.9616 0.0
O372 O 0.83405 0.68607 0.05685 0.0
C373 C 0.8723 0.60481 0.01031 0.0
Co374 Co 0.31984 0.31871 0.27841 0.0
Co375 Co 0.3226 0.31207 0.237 0.0
C376 C 0.253 0.36909 0.25541 0.0
O377 O 0.26993 0.35906 0.27031 0.0
O378 O 0.26864 0.35164 0.24135 0.0
C379 C 0.33985 0.30476 0.31623 0.0
O380 O 0.38346 0.30182 0.31218 0.0
C381 C 0.29317 0.2881 0.20106 0.0
C382 C 0.3544 0.30682 0.18562 0.0
C383 C 0.30993 0.29078 0.18401 0.0
N384 N 0.32629 0.30185 0.21217 0.0
N385 N 0.36286 0.31272 0.20284 0.0
C386 C 0.24541 0.27655 0.20663 0.0
H387 H 0.23928 0.2873 0.22038 0.0
H388 H 0.24023 0.23895 0.20582 0.0
H389 H 0.22027 0.2932 0.19776 0.0
C390 C 0.31523 0.21718 0.27403 0.0
N391 N 0.31744 0.25988 0.26729 0.0
N392 N 0.32133 0.25703 0.25013 0.0
C393 C 0.32423 0.21256 0.24548 0.0
C394 C 0.32004 0.18555 0.26046 0.0
C395 C 0.30514 0.20723 0.29291 0.0
H396 H 0.28049 0.2327 0.29808 0.0
H397 H 0.2902 0.17256 0.29463 0.0
H398 H 0.3373 0.20967 0.30061 0.0
O399 O 0.37811 0.35227 0.27305 0.0
O400 O 0.37651 0.34785 0.24391 0.0
H401 H 0.35191 0.16245 0.22747 0.0
H402 H 0.30328 0.19441 0.21952 0.0
C403 C 0.3353 0.19665 0.2273 0.0
H404 H 0.35863 0.22137 0.22082 0.0
H405 H 0.39325 0.32534 0.20819 0.0
O406 O 0.31056 0.31202 0.30418 0.0
C407 C 0.39513 0.36179 0.25805 0.0
Co408 Co 0.32886 0.81998 0.02401 0.0
Co409 Co 0.34383 0.82039 0.98307 0.0
C410 C 0.38265 0.74655 0.00692 0.0
O411 O 0.36199 0.76293 0.02021 0.0
O412 O 0.37828 0.76476 0.99176 0.0
C413 C 0.3041 0.79323 0.05953 0.0
O414 O 0.30388 0.75107 0.05345 0.0
C415 C 0.33999 0.78626 0.94649 0.0
C416 C 0.35614 0.84955 0.93181 0.0
C417 C 0.34767 0.80318 0.92974 0.0
N418 N 0.34363 0.82118 0.95796 0.0
N419 N 0.35268 0.85899 0.94903 0.0
C420 C 0.33368 0.73726 0.95167 0.0
H421 H 0.31735 0.735 0.96479 0.0
H422 H 0.3126 0.71895 0.94178 0.0
H423 H 0.3677 0.7204 0.95228 0.0
C424 C 0.2331 0.82961 0.0134 0.0
N425 N 0.27758 0.82485 0.00937 0.0
N426 N 0.28275 0.82553 0.99223 0.0
C427 C 0.24114 0.83141 0.98477 0.0
C428 C 0.20834 0.83471 0.998 0.0
C429 C 0.21477 0.8256 0.03169 0.0
H430 H 0.22909 0.79445 0.03791 0.0
H431 H 0.17696 0.82279 0.03203 0.0
H432 H 0.22582 0.85581 0.03946 0.0
O433 O 0.37315 0.86892 0.01938 0.0
O434 O 0.3824 0.8734 0.99056 0.0
H435 H 0.25753 0.86124 0.95993 0.0
H436 H 0.19779 0.84609 0.9624 0.0
C437 C 0.23343 0.83562 0.96544 0.0
H438 H 0.24071 0.80216 0.95911 0.0
H439 H 0.35815 0.89101 0.95478 0.0
O440 O 0.31272 0.82634 0.04919 0.0
C441 C 0.39201 0.88688 0.00602 0.0
Co442 Co 0.14975 0.81248 0.27379 0.0
Co443 Co 0.16289 0.81631 0.23266 0.0
C444 C 0.2252 0.86735 0.25668 0.0
O445 O 0.20513 0.8521 0.27037 0.0
O446 O 0.2128 0.85536 0.24133 0.0
C447 C 0.15603 0.8182 0.31256 0.0
O448 O 0.17205 0.86004 0.31075 0.0
C449 C 0.20012 0.81852 0.19665 0.0
C450 C 0.14134 0.79203 0.18141 0.0
C451 C 0.18584 0.80787 0.17974 0.0
N452 N 0.1655 0.80952 0.20775 0.0
N453 N 0.13045 0.79388 0.19854 0.0
C454 C 0.24666 0.8339 0.20239 0.0
H455 H 0.25587 0.81701 0.21495 0.0
H456 H 0.27298 0.82577 0.19238 0.0
H457 H 0.24611 0.87151 0.20461 0.0
C458 C 0.14817 0.7129 0.26548 0.0
N459 N 0.15273 0.75708 0.26059 0.0
N460 N 0.16168 0.75863 0.24371 0.0
C461 C 0.16483 0.71556 0.23744 0.0
C462 C 0.15583 0.68498 0.25099 0.0
C463 C 0.13359 0.69808 0.28341 0.0
H464 H 0.10664 0.72147 0.28836 0.0
H465 H 0.16347 0.69991 0.29238 0.0
H466 H 0.11995 0.66257 0.28337 0.0
O467 O 0.09634 0.8503 0.26658 0.0
O468 O 0.10648 0.85075 0.23768 0.0
H469 H 0.14921 0.70432 0.21039 0.0
H470 H 0.19559 0.66961 0.21858 0.0
C471 C 0.17954 0.70403 0.21916 0.0
H472 H 0.20454 0.72975 0.21437 0.0
H473 H 0.09915 0.78415 0.204 0.0
O474 O 0.14484 0.79529 0.29902 0.0
C475 C 0.08426 0.86302 0.25125 0.0
Co476 Co 0.17081 0.678 0.5262 0.0
Co477 Co 0.18399 0.69847 0.48603 0.0
C478 C 0.12474 0.7579 0.50686 0.0
O479 O 0.13279 0.73253 0.52015 0.0
O480 O 0.14498 0.75121 0.49229 0.0
C481 C 0.19341 0.70726 0.56046 0.0
O482 O 0.2098 0.74211 0.55151 0.0
C483 C 0.18366 0.72435 0.44849 0.0
C484 C 0.22967 0.67145 0.43758 0.0
C485 C 0.20129 0.70739 0.43287 0.0
N486 N 0.20123 0.69967 0.46182 0.0
N487 N 0.229 0.66843 0.45518 0.0
C488 C 0.14642 0.75908 0.45064 0.0
H489 H 0.11773 0.74368 0.45816 0.0
H490 H 0.15973 0.78845 0.45837 0.0
H491 H 0.1335 0.77163 0.43783 0.0
C492 C 0.27146 0.67091 0.52416 0.0
N493 N 0.23065 0.67996 0.51676 0.0
N494 N 0.2369 0.69442 0.50065 0.0
C495 C 0.2823 0.6988 0.49772 0.0
C496 C 0.30625 0.68354 0.51255 0.0
C497 C 0.27616 0.64511 0.54108 0.0
H498 H 0.2453 0.62375 0.54342 0.0
H499 H 0.27962 0.66963 0.55211 0.0
H500 H 0.30678 0.6226 0.54083 0.0
O501 O 0.1372 0.62583 0.51675 0.0
O502 O 0.14353 0.6428 0.48843 0.0
H503 H 0.31241 0.69426 0.4722 0.0
H504 H 0.33183 0.7424 0.48504 0.0
C505 C 0.3016 0.72106 0.48164 0.0
H506 H 0.27542 0.74299 0.47526 0.0
H507 H 0.24568 0.64347 0.46262 0.0
O508 O 0.17411 0.67458 0.55224 0.0
C509 C 0.12755 0.61784 0.50076 0.0
Co510 Co 0.34461 0.67465 0.77312 0.0
Co511 Co 0.34649 0.68729 0.73197 0.0
C512 C 0.27766 0.62626 0.75142 0.0
O513 O 0.2904 0.63621 0.76697 0.0
O514 O 0.29699 0.64432 0.73812 0.0
C515 C 0.32421 0.6768 0.81127 0.0
O516 O 0.28167 0.66603 0.80744 0.0
C517 C 0.30313 0.70236 0.69775 0.0
C518 C 0.36275 0.71004 0.68021 0.0
C519 C 0.31533 0.70771 0.68025 0.0
N520 N 0.3415 0.70095 0.7075 0.0
N521 N 0.37703 0.70582 0.69693 0.0
C522 C 0.25595 0.70024 0.70533 0.0
H523 H 0.25606 0.71397 0.71891 0.0
H524 H 0.2315 0.71995 0.69712 0.0
H525 H 0.2445 0.66401 0.70584 0.0
C526 C 0.33691 0.77654 0.77055 0.0
N527 N 0.34122 0.73482 0.76311 0.0
N528 N 0.34441 0.73995 0.74602 0.0
C529 C 0.34348 0.78487 0.74203 0.0
C530 C 0.33847 0.8098 0.75744 0.0
C531 C 0.32747 0.78373 0.78965 0.0
H532 H 0.30185 0.75828 0.79415 0.0
H533 H 0.31407 0.81857 0.79234 0.0
H534 H 0.3595 0.77836 0.79721 0.0
O535 O 0.39907 0.63957 0.76429 0.0
O536 O 0.40325 0.65328 0.73568 0.0
H537 H 0.37657 0.7837 0.71699 0.0
H538 H 0.35894 0.84004 0.7239 0.0
C539 C 0.3494 0.80321 0.72383 0.0
H540 H 0.31695 0.79868 0.71644 0.0
H541 H 0.41108 0.70515 0.7011 0.0
O542 O 0.35342 0.68082 0.79899 0.0
C543 C 0.41852 0.63401 0.74946 0.0
H544 H 0.19267 0.31608 0.90172 0.0
H545 H 0.1171 0.21062 0.9296 0.0
H546 H 0.10761 0.16755 0.90213 0.0
H547 H 0.12158 0.31412 0.86321 0.0
H548 H 0.16817 0.32401 0.84818 0.0
H549 H 0.17143 0.34565 0.87027 0.0
H550 H 0.24809 0.30265 0.87491 0.0
H551 H 0.24508 0.28094 0.85282 0.0
H552 H 0.25069 0.24175 0.87098 0.0
H553 H 0.10572 0.13586 0.87167 0.0
H554 H 0.10922 0.11898 0.84002 0.0
H555 H 0.18258 0.24661 0.8313 0.0
C556 C 0.17442 0.28375 0.90205 0.0
C557 C 0.15726 0.26592 0.91801 0.0
C558 C 0.13269 0.22399 0.91781 0.0
C559 C 0.12651 0.19949 0.90217 0.0
C560 C 0.14445 0.21767 0.88675 0.0
C561 C 0.16763 0.25898 0.88651 0.0
C562 C 0.18217 0.27152 0.86802 0.0
C563 C 0.15947 0.31649 0.86207 0.0
C564 C 0.23462 0.27437 0.86661 0.0
C565 C 0.16349 0.23078 0.85793 0.0
C566 C 0.14204 0.20007 0.86902 0.0
C567 C 0.12236 0.15967 0.86284 0.0
C568 C 0.12458 0.15038 0.84482 0.0
C569 C 0.1461 0.18146 0.83315 0.0
C570 C 0.16576 0.22221 0.83986 0.0
H571 H 0.68893 0.7405 0.15799 0.0
H572 H 0.78797 0.64406 0.17882 0.0
H573 H 0.82931 0.64506 0.15057 0.0
H574 H 0.68161 0.69339 0.11577 0.0
H575 H 0.67666 0.7475 0.1045 0.0
H576 H 0.65722 0.74227 0.1268 0.0
H577 H 0.70999 0.80961 0.13602 0.0
H578 H 0.7295 0.81519 0.1137 0.0
H579 H 0.77034 0.80697 0.13116 0.0
H580 H 0.85526 0.65079 0.11921 0.0
H581 H 0.86613 0.6636 0.08745 0.0
H582 H 0.75154 0.7582 0.08724 0.0
C583 C 0.71975 0.72017 0.15667 0.0
C584 C 0.73581 0.6929 0.17069 0.0
C585 C 0.77587 0.66627 0.16844 0.0
C586 C 0.79936 0.66635 0.15239 0.0
C587 C 0.78249 0.69348 0.13878 0.0
C588 C 0.74384 0.72026 0.14081 0.0
C589 C 0.73189 0.7451 0.12396 0.0
C590 C 0.68402 0.73121 0.11737 0.0
C591 C 0.73567 0.79732 0.12636 0.0
C592 C 0.76915 0.72719 0.11199 0.0
C593 C 0.79802 0.69751 0.1208 0.0
C594 C 0.83332 0.67451 0.11224 0.0
C595 C 0.83913 0.6819 0.0942 0.0
C596 C 0.80999 0.71224 0.08493 0.0
C597 C 0.77489 0.73548 0.09404 0.0
H598 H 0.39155 0.28393 0.34557 0.0
H599 H 0.25159 0.30502 0.328 0.0
H600 H 0.2235 0.28579 0.35751 0.0
H601 H 0.36917 0.18786 0.37229 0.0
H602 H 0.40893 0.20327 0.3894 0.0
H603 H 0.41881 0.22223 0.36726 0.0
H604 H 0.42225 0.30649 0.37793 0.0
H605 H 0.41233 0.28776 0.40014 0.0
H606 H 0.37506 0.32973 0.39028 0.0
H607 H 0.2096 0.25769 0.38778 0.0
H608 H 0.21118 0.22448 0.41759 0.0
H609 H 0.35957 0.22349 0.41642 0.0
C610 C 0.35505 0.28514 0.34799 0.0
C611 C 0.32384 0.29612 0.33441 0.0
C612 C 0.27628 0.29688 0.33814 0.0
C613 C 0.25991 0.28606 0.35489 0.0
C614 C 0.29145 0.27486 0.3679 0.0
C615 C 0.33803 0.2746 0.36474 0.0
C616 C 0.36429 0.25943 0.38093 0.0
C617 C 0.39191 0.21559 0.37724 0.0
C618 C 0.39532 0.29817 0.38772 0.0
C619 C 0.32508 0.25022 0.39351 0.0
C620 C 0.28339 0.25955 0.38568 0.0
C621 C 0.24202 0.25101 0.39417 0.0
C622 C 0.24322 0.23209 0.41105 0.0
C623 C 0.28543 0.22238 0.41935 0.0
C624 C 0.3269 0.23192 0.41053 0.0
H625 H 0.73805 0.73671 0.59011 0.0
H626 H 0.69118 0.87746 0.5854 0.0
H627 H 0.70676 0.88973 0.61685 0.0
H628 H 0.69207 0.71546 0.63342 0.0
H629 H 0.74029 0.68141 0.64034 0.0
H630 H 0.72439 0.68322 0.61752 0.0
H631 H 0.80643 0.70958 0.60935 0.0
H632 H 0.82261 0.70775 0.63214 0.0
H633 H 0.83023 0.7598 0.61972 0.0
H634 H 0.72937 0.88747 0.64863 0.0
H635 H 0.7585 0.87098 0.67837 0.0
H636 H 0.78977 0.7316 0.66257 0.0
C637 C 0.73085 0.77006 0.59569 0.0
C638 C 0.71326 0.80608 0.58527 0.0
C639 C 0.70461 0.8493 0.5931 0.0
C640 C 0.71328 0.85661 0.61097 0.0
C641 C 0.73062 0.82041 0.62086 0.0
C642 C 0.7394 0.77801 0.61351 0.0
C643 C 0.759 0.74517 0.62696 0.0
C644 C 0.72702 0.70388 0.62972 0.0
C645 C 0.80744 0.72968 0.62173 0.0
C646 C 0.76007 0.77582 0.64299 0.0
C647 C 0.74336 0.81901 0.63921 0.0
C648 C 0.7419 0.85356 0.65182 0.0
C649 C 0.75803 0.84372 0.66874 0.0
C650 C 0.77506 0.7996 0.67293 0.0
C651 C 0.77628 0.76543 0.65981 0.0
H652 H 0.79914 0.30763 0.40293 0.0
H653 H 0.8179 0.18629 0.43504 0.0
H654 H 0.82934 0.13979 0.40831 0.0
H655 H 0.73495 0.2527 0.36902 0.0
H656 H 0.75997 0.28608 0.35158 0.0
H657 H 0.75545 0.30997 0.37328 0.0
H658 H 0.84282 0.32571 0.37353 0.0
H659 H 0.84756 0.30187 0.35182 0.0
H660 H 0.88203 0.27923 0.36942 0.0
H661 H 0.83701 0.10622 0.37776 0.0
H662 H 0.83963 0.0885 0.34605 0.0
H663 H 0.81416 0.23186 0.3342 0.0
C664 C 0.80597 0.27131 0.40433 0.0
C665 C 0.80893 0.25082 0.42108 0.0
C666 C 0.81722 0.20308 0.42238 0.0
C667 C 0.82329 0.17629 0.40726 0.0
C668 C 0.82061 0.1977 0.39093 0.0
C669 C 0.81208 0.24415 0.3894 0.0
C670 C 0.80977 0.25872 0.37036 0.0
C671 C 0.7622 0.27799 0.3658 0.0
C672 C 0.84782 0.29343 0.36603 0.0
C673 C 0.81809 0.21319 0.3614 0.0
C674 C 0.82437 0.17838 0.37346 0.0
C675 C 0.83223 0.13326 0.36821 0.0
C676 C 0.83365 0.12351 0.35016 0.0
C677 C 0.82716 0.15873 0.3376 0.0
C678 C 0.81937 0.2041 0.34341 0.0
H679 H 0.77722 0.26422 0.586 0.0
H680 H 0.80463 0.4103 0.58271 0.0
H681 H 0.79055 0.41752 0.6146 0.0
H682 H 0.68588 0.27142 0.61679 0.0
H683 H 0.70163 0.21969 0.62823 0.0
H684 H 0.71532 0.22611 0.60535 0.0
H685 H 0.80088 0.21064 0.61219 0.0
H686 H 0.78746 0.20426 0.63512 0.0
H687 H 0.82994 0.24542 0.62828 0.0
H688 H 0.77053 0.40878 0.64685 0.0
H689 H 0.74601 0.38506 0.6765 0.0
H690 H 0.73348 0.2445 0.65856 0.0
C691 C 0.7805 0.29777 0.59195 0.0
C692 C 0.79215 0.33671 0.58183 0.0
C693 C 0.79585 0.37996 0.59019 0.0
C694 C 0.78795 0.38438 0.6083 0.0
C695 C 0.77647 0.34523 0.61786 0.0
C696 C 0.77277 0.30277 0.60995 0.0
C697 C 0.75905 0.26615 0.62303 0.0
C698 C 0.71272 0.24459 0.61805 0.0
C699 C 0.79658 0.22946 0.62476 0.0
C700 C 0.75529 0.29462 0.63956 0.0
C701 C 0.76562 0.34013 0.63635 0.0
C702 C 0.76315 0.3731 0.64956 0.0
C703 C 0.74973 0.35918 0.66644 0.0
C704 C 0.73931 0.31264 0.67001 0.0
C705 C 0.74198 0.28018 0.6563 0.0
H706 H 0.67475 0.18118 0.90332 0.0
H707 H 0.72719 0.30025 0.93085 0.0
H708 H 0.72228 0.34574 0.90357 0.0
H709 H 0.73549 0.20263 0.86263 0.0
H710 H 0.6893 0.18248 0.84895 0.0
H711 H 0.69661 0.15945 0.8707 0.0
H712 H 0.61312 0.18199 0.87826 0.0
H713 H 0.60571 0.20541 0.85657 0.0
H714 H 0.59507 0.24067 0.87555 0.0
H715 H 0.71053 0.37857 0.87359 0.0
H716 H 0.69776 0.39552 0.84228 0.0
H717 H 0.65424 0.25475 0.83382 0.0
C718 C 0.68525 0.2168 0.90353 0.0
C719 C 0.70009 0.23771 0.91925 0.0
C720 C 0.71426 0.28413 0.91904 0.0
C721 C 0.71184 0.31012 0.90361 0.0
C722 C 0.69576 0.28896 0.88843 0.0
C723 C 0.68314 0.24325 0.88819 0.0
C724 C 0.66779 0.22877 0.87001 0.0
C725 C 0.69918 0.19111 0.86264 0.0
C726 C 0.61743 0.2133 0.87011 0.0
C727 C 0.6737 0.27349 0.86011 0.0
C728 C 0.68971 0.30777 0.87101 0.0
C729 C 0.69806 0.352 0.8649 0.0
C730 C 0.69056 0.36132 0.84709 0.0
C731 C 0.67497 0.32653 0.83556 0.0
C732 C 0.66603 0.28217 0.84228 0.0
H733 H 0.7488 0.1534 0.17031 0.0
H734 H 0.79354 0.29503 0.16719 0.0
H735 H 0.76491 0.29957 0.13676 0.0
H736 H 0.78166 0.12284 0.12753 0.0
H737 H 0.73375 0.08532 0.1234 0.0
H738 H 0.75356 0.09416 0.14551 0.0
H739 H 0.67234 0.12006 0.15484 0.0
H740 H 0.65216 0.11102 0.13276 0.0
H741 H 0.64464 0.16604 0.14312 0.0
H742 H 0.73619 0.28783 0.10649 0.0
H743 H 0.70988 0.26045 0.07769 0.0
H744 H 0.6837 0.12571 0.09989 0.0
C745 C 0.75132 0.18569 0.16336 0.0
C746 C 0.77249 0.22423 0.17116 0.0
C747 C 0.77701 0.26532 0.16145 0.0
C748 C 0.76076 0.26825 0.14421 0.0
C749 C 0.74033 0.22964 0.13683 0.0
C750 C 0.7355 0.1891 0.14604 0.0
C751 C 0.7149 0.1519 0.13456 0.0
C752 C 0.74795 0.11116 0.13264 0.0
C753 C 0.66823 0.13635 0.14175 0.0
C754 C 0.70959 0.17773 0.11741 0.0
C755 C 0.72418 0.2226 0.11911 0.0
C756 C 0.72429 0.25288 0.10501 0.0
C757 C 0.70934 0.2369 0.08867 0.0
C758 C 0.69456 0.19091 0.08649 0.0
C759 C 0.69438 0.16112 0.10114 0.0
H760 H 0.59937 0.67822 0.35071 0.0
H761 H 0.72536 0.7264 0.32655 0.0
H762 H 0.75008 0.75877 0.35467 0.0
H763 H 0.58164 0.77509 0.37773 0.0
H764 H 0.56044 0.74349 0.39636 0.0
H765 H 0.55332 0.72073 0.37458 0.0
H766 H 0.59444 0.64598 0.384 0.0
H767 H 0.60175 0.66858 0.40583 0.0
H768 H 0.65081 0.64918 0.39358 0.0
H769 H 0.75913 0.79155 0.38415 0.0
H770 H 0.75245 0.82177 0.41425 0.0
H771 H 0.62256 0.75141 0.42045 0.0
C772 C 0.63236 0.6951 0.35141 0.0
C773 C 0.6603 0.69975 0.33635 0.0
C774 C 0.70315 0.72239 0.33782 0.0
C775 C 0.7177 0.74083 0.35378 0.0
C776 C 0.6893 0.73614 0.36828 0.0
C777 C 0.64766 0.71369 0.36736 0.0
C778 C 0.62319 0.71532 0.38492 0.0
C779 C 0.57692 0.74015 0.38329 0.0
C780 C 0.6172 0.66688 0.39253 0.0
C781 C 0.65717 0.74312 0.39561 0.0
C782 C 0.69511 0.75448 0.3857 0.0
C783 C 0.72998 0.78233 0.39217 0.0
C784 C 0.72585 0.79941 0.40922 0.0
C785 C 0.68741 0.78826 0.41964 0.0
C786 C 0.65283 0.75938 0.41284 0.0
H787 H 0.24496 0.23773 0.58491 0.0
H788 H 0.33667 0.12082 0.58604 0.0
H789 H 0.32117 0.11072 0.61769 0.0
H790 H 0.2706 0.28156 0.62892 0.0
H791 H 0.21191 0.2972 0.63306 0.0
H792 H 0.23388 0.29803 0.61098 0.0
H793 H 0.16875 0.24334 0.60111 0.0
H794 H 0.14662 0.24231 0.62312 0.0
H795 H 0.16109 0.18936 0.61228 0.0
H796 H 0.29339 0.11175 0.64895 0.0
H797 H 0.25134 0.12047 0.67691 0.0
H798 H 0.17501 0.23413 0.65484 0.0
C799 C 0.26244 0.21053 0.59189 0.0
C800 C 0.29241 0.18035 0.58311 0.0
C801 C 0.31374 0.14444 0.59258 0.0
C802 C 0.30528 0.13856 0.61055 0.0
C803 C 0.27517 0.16867 0.61879 0.0
C804 C 0.25386 0.20377 0.60974 0.0
C805 C 0.22035 0.22924 0.62132 0.0
C806 C 0.23508 0.27949 0.62371 0.0
C807 C 0.17131 0.22582 0.61402 0.0
C808 C 0.22553 0.20248 0.6382 0.0
C809 C 0.25794 0.16823 0.63659 0.0
C810 C 0.26823 0.13869 0.65042 0.0
C811 C 0.24444 0.14406 0.66626 0.0
C812 C 0.21048 0.17832 0.66801 0.0
C813 C 0.20104 0.20784 0.65381 0.0
H814 H 0.83894 0.67871 0.90527 0.0
H815 H 0.77432 0.79122 0.9329 0.0
H816 H 0.77741 0.83842 0.90597 0.0
H817 H 0.91518 0.7462 0.87883 0.0
H818 H 0.90892 0.71086 0.85958 0.0
H819 H 0.9021 0.68604 0.88106 0.0
H820 H 0.82141 0.65647 0.87247 0.0
H821 H 0.82815 0.6809 0.85093 0.0
H822 H 0.77949 0.69635 0.86419 0.0
H823 H 0.78848 0.8735 0.87622 0.0
H824 H 0.80171 0.8924 0.84506 0.0
H825 H 0.85767 0.75623 0.83664 0.0
C826 C 0.82542 0.71328 0.90558 0.0
C827 C 0.80766 0.73201 0.92121 0.0
C828 C 0.78956 0.77699 0.92116 0.0
C829 C 0.79091 0.80388 0.90593 0.0
C830 C 0.8099 0.78493 0.89083 0.0
C831 C 0.8264 0.74052 0.89047 0.0
C832 C 0.84416 0.72811 0.87244 0.0
C833 C 0.89565 0.71717 0.87302 0.0
C834 C 0.81665 0.6881 0.86454 0.0
C835 C 0.83506 0.77248 0.86273 0.0
C836 C 0.81549 0.80488 0.87359 0.0
C837 C 0.80375 0.84841 0.86756 0.0
C838 C 0.81153 0.85886 0.84986 0.0
C839 C 0.83071 0.82583 0.8384 0.0
C840 C 0.84303 0.78229 0.84505 0.0
H841 H 0.31459 0.34037 0.15366 0.0
H842 H 0.25327 0.21848 0.1763 0.0
H843 H 0.21579 0.20143 0.148 0.0
H844 H 0.21738 0.37201 0.12631 0.0
H845 H 0.25261 0.39171 0.10842 0.0
H846 H 0.2736 0.39502 0.13062 0.0
H847 H 0.34524 0.34813 0.12176 0.0
H848 H 0.32443 0.34457 0.09956 0.0
H849 H 0.338 0.29293 0.11147 0.0
H850 H 0.18864 0.19529 0.11692 0.0
H851 H 0.17025 0.20222 0.08546 0.0
H852 H 0.24712 0.32953 0.0829 0.0
C853 C 0.29302 0.31025 0.15265 0.0
C854 C 0.28612 0.28115 0.16726 0.0
C855 C 0.25792 0.24195 0.16546 0.0
C856 C 0.23686 0.23177 0.14937 0.0
C857 C 0.24421 0.26125 0.13525 0.0
C858 C 0.27135 0.29987 0.13674 0.0
C859 C 0.2738 0.32576 0.1195 0.0
C860 C 0.2531 0.37398 0.12133 0.0
C861 C 0.32331 0.32795 0.11267 0.0
C862 C 0.24421 0.29535 0.10801 0.0
C863 C 0.2277 0.25823 0.11737 0.0
C864 C 0.20103 0.22441 0.1095 0.0
C865 C 0.19091 0.2286 0.0916 0.0
C866 C 0.20703 0.26654 0.08175 0.0
C867 C 0.23385 0.30046 0.09014 0.0
H868 H 0.26881 0.68428 0.8405 0.0
H869 H 0.40973 0.69872 0.82314 0.0
H870 H 0.43168 0.72594 0.85251 0.0
H871 H 0.26561 0.78429 0.86593 0.0
H872 H 0.23074 0.76085 0.88326 0.0
H873 H 0.22643 0.73795 0.8614 0.0
H874 H 0.2444 0.65666 0.87324 0.0
H875 H 0.24872 0.67934 0.89518 0.0
H876 H 0.29568 0.64742 0.88594 0.0
H877 H 0.4374 0.75914 0.88242 0.0
H878 H 0.42649 0.79449 0.9116 0.0
H879 H 0.28296 0.75698 0.91049 0.0
C880 C 0.30444 0.69232 0.84297 0.0
C881 C 0.33754 0.68916 0.82947 0.0
C882 C 0.38369 0.70069 0.83322 0.0
C883 C 0.39659 0.71613 0.8499 0.0
C884 C 0.36307 0.71961 0.86281 0.0
C885 C 0.31799 0.70777 0.85963 0.0
C886 C 0.28839 0.71721 0.87559 0.0
C887 C 0.25057 0.75216 0.87128 0.0
C888 C 0.26811 0.67248 0.88292 0.0
C889 C 0.32369 0.73729 0.88804 0.0
C890 C 0.3666 0.73807 0.88038 0.0
C891 C 0.4042 0.75793 0.8887 0.0
C892 C 0.39774 0.77793 0.90521 0.0
C893 C 0.3542 0.77754 0.91328 0.0
C894 C 0.31681 0.75653 0.9047 0.0
H895 H 0.25721 0.738 0.08246 0.0
H896 H 0.32491 0.87011 0.07834 0.0
H897 H 0.3052 0.88681 0.10918 0.0
H898 H 0.1634 0.77782 0.10818 0.0
H899 H 0.15922 0.72634 0.12118 0.0
H900 H 0.18118 0.72356 0.09915 0.0
H901 H 0.25539 0.68523 0.11068 0.0
H902 H 0.23365 0.68796 0.13276 0.0
H903 H 0.28832 0.71328 0.12758 0.0
H904 H 0.27734 0.88954 0.14037 0.0
H905 H 0.23918 0.87993 0.16909 0.0
H906 H 0.18721 0.74751 0.1525 0.0
C907 C 0.2683 0.77022 0.08811 0.0
C908 C 0.29289 0.80263 0.07807 0.0
C909 C 0.30606 0.84478 0.08582 0.0
C910 C 0.29518 0.85451 0.10334 0.0
C911 C 0.27075 0.82191 0.11287 0.0
C912 C 0.25713 0.78077 0.1055 0.0
C913 C 0.22911 0.75268 0.1183 0.0
C914 C 0.18034 0.74465 0.11128 0.0
C915 C 0.25306 0.70709 0.12258 0.0
C916 C 0.229 0.78449 0.13399 0.0
C917 C 0.25365 0.82402 0.13066 0.0
C918 C 0.2582 0.8586 0.14317 0.0
C919 C 0.23675 0.85272 0.15947 0.0
C920 C 0.21095 0.8127 0.16305 0.0
C921 C 0.207 0.77832 0.1501 0.0
H922 H 0.20367 0.79039 0.41572 0.0
H923 H 0.16812 0.64706 0.40917 0.0
H924 H 0.14705 0.6617 0.37829 0.0
H925 H 0.11508 0.83805 0.38639 0.0
H926 H 0.15258 0.88151 0.37763 0.0
H927 H 0.16064 0.86101 0.39973 0.0
H928 H 0.24475 0.84027 0.39248 0.0
H929 H 0.23694 0.86063 0.37038 0.0
H930 H 0.25668 0.80293 0.3742 0.0
H931 H 0.13211 0.69058 0.3483 0.0
H932 H 0.12933 0.73053 0.31998 0.0
H933 H 0.17864 0.85515 0.34487 0.0
C934 C 0.19065 0.76246 0.40779 0.0
C935 C 0.1868 0.71773 0.41476 0.0
C936 C 0.17093 0.68157 0.40401 0.0
C937 C 0.15874 0.6896 0.38652 0.0
C938 C 0.16311 0.73394 0.37994 0.0
C939 C 0.17897 0.76979 0.39015 0.0
C940 C 0.18355 0.81333 0.37937 0.0
C941 C 0.15102 0.85069 0.38619 0.0
C942 C 0.23345 0.83026 0.37909 0.0
C943 C 0.16858 0.79605 0.36147 0.0
C944 C 0.15623 0.75036 0.36225 0.0
C945 C 0.1417 0.72638 0.3475 0.0
C946 C 0.14037 0.74946 0.33141 0.0
C947 C 0.15416 0.79595 0.33007 0.0
C948 C 0.16791 0.81963 0.34542 0.0
H949 H 0.32676 0.75566 0.64983 0.0
H950 H 0.24008 0.65315 0.67429 0.0
H951 H 0.1961 0.64549 0.64684 0.0
H952 H 0.2373 0.80915 0.62274 0.0
H953 H 0.27547 0.818 0.60448 0.0
H954 H 0.29758 0.81813 0.62655 0.0
H955 H 0.35534 0.75442 0.61812 0.0
H956 H 0.33326 0.75392 0.59607 0.0
H957 H 0.33444 0.70168 0.60871 0.0
H958 H 0.16612 0.64376 0.61582 0.0
H959 H 0.15025 0.65101 0.58406 0.0
H960 H 0.25552 0.7556 0.57999 0.0
C961 C 0.29798 0.73222 0.64948 0.0
C962 C 0.2861 0.70594 0.66437 0.0
C963 C 0.24879 0.67497 0.66332 0.0
C964 C 0.22387 0.67 0.64769 0.0
C965 C 0.23662 0.69629 0.63323 0.0
C966 C 0.27259 0.72707 0.63403 0.0
C967 C 0.28049 0.74992 0.61644 0.0
C968 C 0.2722 0.80188 0.61763 0.0
C969 C 0.32873 0.73933 0.60943 0.0
C970 C 0.2439 0.72658 0.60555 0.0
C971 C 0.21896 0.69572 0.61545 0.0
C972 C 0.18498 0.66829 0.608 0.0
C973 C 0.1763 0.67253 0.58995 0.0
C974 C 0.2013 0.70417 0.5796 0.0
C975 C 0.23527 0.73168 0.5876 0.0
H976 H 0.07861 0.4361 0.98716 0.0
H977 H 0.06811 0.39032 0.04128 0.0
H978 H -0.00108 0.43676 0.04511 0.0
H979 H 0.04463 0.55261 0.99616 0.0
H980 H 0.01333 0.55944 0.97594 0.0
H981 H 0.06096 0.5204 0.97698 0.0
H982 H 0.00835 0.4548 0.96598 0.0
H983 H 0.96034 0.49355 0.96521 0.0
H984 H 0.95668 0.44144 0.97786 0.0
H985 H 0.93185 0.48649 0.04358 0.0
H986 H 0.87619 0.54804 0.03828 0.0
H987 H 0.92962 0.56622 0.98559 0.0
C988 C 0.06174 0.43603 0.99981 0.0
C989 C 0.07881 0.40947 0.0139 0.0
C990 C 0.05601 0.41055 0.0303 0.0
C991 C 0.01629 0.43643 0.03258 0.0
C992 C -8e-05 0.46151 0.01841 0.0
C993 C 0.02221 0.46247 0.00244 0.0
C994 C -0.00128 0.49532 0.98987 0.0
C995 C 0.03135 0.53425 0.98443 0.0
C996 C 0.97991 0.46973 0.97377 0.0
C997 C 0.96015 0.51286 1.0014 0.0
C998 C 0.96122 0.49198 0.01768 0.0
C999 C 0.93052 0.50314 0.03091 0.0
C1000 C 0.899 0.53809 0.02775 0.0
C1001 C 0.89863 0.56182 0.01154 0.0
C1002 C 0.92866 0.54808 0.99798 0.0
H1003 H 0.42974 0.4223 0.28281 0.0
H1004 H 0.44775 0.37507 0.22918 0.0
H1005 H 0.502 0.43766 0.22374 0.0
H1006 H 0.43258 0.54036 0.27385 0.0
H1007 H 0.46538 0.55687 0.29287 0.0
H1008 H 0.43009 0.5062 0.29354 0.0
H1009 H 0.50014 0.45691 0.30238 0.0
H1010 H 0.53548 0.50761 0.30211 0.0
H1011 H 0.5511 0.45854 0.28906 0.0
H1012 H 0.54612 0.50867 0.22262 0.0
H1013 H 0.59098 0.57848 0.22727 0.0
H1014 H 0.55017 0.58014 0.28214 0.0
C1015 C 0.44606 0.42445 0.27009 0.0
C1016 C 0.43418 0.39386 0.25639 0.0
C1017 C 0.45594 0.39818 0.23985 0.0
C1018 C 0.48677 0.43373 0.23659 0.0
C1019 C 0.49608 0.46448 0.25004 0.0
C1020 C 0.47748 0.4598 0.26659 0.0
C1021 C 0.4936 0.49831 0.27854 0.0
C1022 C 0.45298 0.52713 0.28508 0.0
C1023 C 0.52176 0.4792 0.29393 0.0
C1024 C 0.52343 0.52552 0.26595 0.0
C1025 C 0.52371 0.50536 0.24957 0.0
C1026 C 0.54694 0.52446 0.23546 0.0
C1027 C 0.57214 0.56444 0.23826 0.0
C1028 C 0.5746 0.58483 0.25514 0.0
C1029 C 0.54915 0.56541 0.26911 0.0
H1030 H 0.58692 0.95756 0.48886 0.0
H1031 H 0.54773 0.87558 0.53396 0.0
H1032 H 0.47048 0.90885 0.5331 0.0
H1033 H 0.52824 0.05863 0.50363 0.0
H1034 H 0.51183 0.077 0.48194 0.0
H1035 H 0.56272 0.04318 0.48494 0.0
H1036 H 0.53136 0.98393 0.46259 0.0
H1037 H 0.47978 0.01714 0.45991 0.0
H1038 H 0.47628 0.95774 0.46633 0.0
H1039 H 0.39898 0.94968 0.52799 0.0
H1040 H 0.3414 0.00997 0.5235 0.0
H1041 H 0.42603 0.07126 0.48304 0.0
C1042 C 0.56197 0.94698 0.49855 0.0
C1043 C 0.57314 0.91421 0.51152 0.0
C1044 C 0.53997 0.90117 0.52409 0.0
C1045 C 0.49578 0.91924 0.52352 0.0
C1046 C 0.48545 0.95085 0.51046 0.0
C1047 C 0.51776 0.96581 0.49852 0.0
C1048 C 0.49874 0.00425 0.48724 0.0
C1049 C 0.52705 0.04838 0.48959 0.0
C1050 C 0.49641 0.98988 0.46787 0.0
C1051 C 0.45111 0.009 0.49502 0.0
C1052 C 0.44396 0.97665 0.50799 0.0
C1053 C 0.40394 0.97512 0.51783 0.0
C1054 C 0.37137 0.00935 0.51513 0.0
C1055 C 0.37931 0.04494 0.50289 0.0
C1056 C 0.41871 0.04372 0.49215 0.0
H1057 H 0.06331 0.07133 0.78159 0.0
H1058 H 0.01673 0.13501 0.73331 0.0
H1059 H 0.9648 0.06996 0.72801 0.0
H1060 H 0.06732 0.96039 0.76614 0.0
H1061 H 0.0461 0.93247 0.78561 0.0
H1062 H 0.0754 0.98663 0.78733 0.0
H1063 H 0.00587 0.02252 0.80331 0.0
H1064 H 0.97689 0.96801 0.80219 0.0
H1065 H 0.94982 0.01867 0.79349 0.0
H1066 H 0.92728 0.99416 0.72551 0.0
H1067 H 0.89265 0.91782 0.72905 0.0
H1068 H 0.96101 0.90296 0.7794 0.0
C1069 C 0.04073 0.07244 0.77033 0.0
C1070 C 0.04388 0.10823 0.75789 0.0
C1071 C 0.0147 0.10794 0.74303 0.0
C1072 C 0.98533 0.07102 0.73983 0.0
C1073 C 0.98516 0.03487 0.75172 0.0
C1074 C 0.01097 0.03572 0.76693 0.0
C1075 C 0.0053 0.99146 0.77716 0.0
C1076 C 0.05127 0.96627 0.77917 0.0
C1077 C 0.98313 0.00072 0.7951 0.0
C1078 C 0.97311 0.96548 0.76511 0.0
C1079 C 0.96237 0.99108 0.75045 0.0
C1080 C 0.93473 0.97399 0.73708 0.0
C1081 C 0.91567 0.93027 0.73913 0.0
C1082 C 0.92391 0.90432 0.75454 0.0
C1083 C 0.95397 0.92189 0.76748 0.0
H1084 H 0.91219 0.46293 0.52317 0.0
H1085 H 0.90061 0.42973 0.46782 0.0
H1086 H 0.96739 0.4795 0.46159 0.0
H1087 H 0.94895 0.58158 0.51808 0.0
H1088 H 0.98743 0.57804 0.53652 0.0
H1089 H 0.93646 0.54327 0.53602 0.0
H1090 H 0.98624 0.47055 0.54044 0.0
H1091 H 0.03742 0.50498 0.54059 0.0
H1092 H 0.03178 0.45843 0.52519 0.0
H1093 H 0.03806 0.53143 0.46185 0.0
H1094 H 0.10372 0.58245 0.46849 0.0
H1095 H 0.06948 0.57636 0.52385 0.0
C1096 C 0.92289 0.46672 0.50965 0.0
C1097 C 0.90083 0.44261 0.49597 0.0
C1098 C 0.91672 0.4481 0.47852 0.0
C1099 C 0.95474 0.47615 0.47486 0.0
C1100 C 0.97654 0.4982 0.4888 0.0
C1101 C 0.9609 0.49392 0.50582 0.0
C1102 C 0.99117 0.51937 0.51863 0.0
C1103 C 0.96441 0.55785 0.52785 0.0
C1104 C 0.01293 0.48635 0.53199 0.0
C1105 C 0.02659 0.53852 0.5062 0.0
C1106 C 0.0176 0.52631 0.48903 0.0
C1107 C 0.04541 0.54109 0.47527 0.0
C1108 C 0.08274 0.56985 0.47917 0.0
C1109 C 0.0921 0.58306 0.49671 0.0
C1110 C 0.06386 0.56644 0.51033 0.0
H1111 H 0.55658 0.40859 0.7758 0.0
H1112 H 0.60457 0.40325 0.7219 0.0
H1113 H 0.56226 0.47433 0.71538 0.0
H1114 H 0.44246 0.4533 0.76582 0.0
H1115 H 0.44122 0.48874 0.78518 0.0
H1116 H 0.47336 0.43607 0.78521 0.0
H1117 H 0.54591 0.48125 0.7945 0.0
H1118 H 0.51425 0.53421 0.7941 0.0
H1119 H 0.56549 0.52836 0.78114 0.0
H1120 H 0.51889 0.54829 0.71514 0.0
H1121 H 0.46892 0.61503 0.72009 0.0
H1122 H 0.44892 0.57223 0.77415 0.0
C1123 C 0.55755 0.42179 0.76252 0.0
C1124 C 0.58399 0.40018 0.74937 0.0
C1125 C 0.5845 0.41896 0.73221 0.0
C1126 C 0.56081 0.45954 0.72839 0.0
C1127 C 0.53659 0.48082 0.74184 0.0
C1128 C 0.53409 0.46223 0.75847 0.0
C1129 C 0.50571 0.49205 0.77056 0.0
C1130 C 0.46316 0.46599 0.77707 0.0
C1131 C 0.53458 0.51002 0.78599 0.0
C1132 C 0.49284 0.53044 0.75813 0.0
C1133 C 0.51129 0.52342 0.74167 0.0
C1134 C 0.50403 0.55406 0.72794 0.0
C1135 C 0.47578 0.59204 0.73094 0.0
C1136 C 0.45491 0.59901 0.74752 0.0
C1137 C 0.46459 0.56823 0.76137 0.0
H1138 H 0.57994 0.08018 0.98467 0.0
H1139 H 0.63325 0.05322 0.03689 0.0
H1140 H 0.57712 0.99138 0.04069 0.0
H1141 H 0.46488 0.06498 0.99468 0.0
H1142 H 0.44871 0.03597 0.97474 0.0
H1143 H 0.49652 0.075 0.97474 0.0
H1144 H 0.5496 0.01134 0.96268 0.0
H1145 H 0.50173 0.97227 0.96229 0.0
H1146 H 0.55316 0.95721 0.97404 0.0
H1147 H 0.5103 0.9414 0.04092 0.0
H1148 H 0.44146 0.89521 0.0359 0.0
H1149 H 0.43097 0.94935 0.98291 0.0
C1150 C 0.58066 0.06024 0.99665 0.0
C1151 C 0.61088 0.07161 0.0105 0.0
C1152 C 0.61028 0.04531 0.02613 0.0
C1153 C 0.57851 0.01009 0.02844 0.0
C1154 C 0.54784 0.00114 0.01493 0.0
C1155 C 0.54906 0.02453 0.99918 0.0
C1156 C 0.51059 0.00868 0.98717 0.0
C1157 C 0.47828 0.04854 0.98257 0.0
C1158 C 0.52993 0.98601 0.97056 0.0
C1159 C 0.48708 0.97378 0.99891 0.0
C1160 C 0.50927 0.97042 0.01486 0.0
C1161 C 0.493 0.94297 0.02838 0.0
C1162 C 0.45349 0.91722 0.02542 0.0
C1163 C 0.43075 0.91857 0.00899 0.0
C1164 C 0.44777 0.94742 0.99555 0.0
H1165 H 0.04164 0.91417 0.27689 0.0
H1166 H 0.04694 0.89303 0.22049 0.0
H1167 H -0.00119 0.96116 0.21606 0.0
H1168 H 0.92213 0.95558 0.27794 0.0
H1169 H 0.93413 0.99653 0.29505 0.0
H1170 H 0.96647 0.94407 0.29381 0.0
H1171 H 0.04155 0.99151 0.29298 0.0
H1172 H 0.00939 0.04412 0.29376 0.0
H1173 H 0.04925 0.03421 0.27613 0.0
H1174 H 0.95632 0.03464 0.21736 0.0
H1175 H 0.91118 0.10325 0.22452 0.0
H1176 H 0.93144 0.07669 0.28011 0.0
C1177 C 0.03176 0.92318 0.26363 0.0
C1178 C 0.04825 0.89822 0.24905 0.0
C1179 C 0.03488 0.91155 0.2319 0.0
C1180 C 0.0077 0.95038 0.22921 0.0
C1181 C 0.99379 0.97533 0.2438 0.0
C1182 C 0.00443 0.96186 0.26069 0.0
C1183 C 0.98519 0.99522 0.27402 0.0
C1184 C 0.94987 0.97143 0.2859 0.0
C1185 C 0.02365 0.01758 0.28486 0.0
C1186 C 0.96262 0.02973 0.26193 0.0
C1187 C 0.96836 0.01767 0.24456 0.0
C1188 C 0.95115 0.04427 0.23092 0.0
C1189 C 0.9258 0.08341 0.23515 0.0
C1190 C 0.91758 0.09544 0.25289 0.0
C1191 C 0.93721 0.06865 0.26642 0.0
H1192 H 0.55144 0.25186 0.0302 0.0
H1193 H 0.60103 0.32258 0.98395 0.0
H1194 H 0.52394 0.35599 0.97938 0.0
H1195 H 0.45369 0.21522 0.01125 0.0
H1196 H 0.41809 0.21899 0.03049 0.0
H1197 H 0.47868 0.21044 0.0328 0.0
H1198 H 0.48496 0.28287 0.05237 0.0
H1199 H 0.42403 0.2913 0.05041 0.0
H1200 H 0.46288 0.33679 0.04448 0.0
H1201 H 0.43853 0.37423 0.97821 0.0
H1202 H 0.3537 0.37351 0.98007 0.0
H1203 H 0.36176 0.2811 0.02451 0.0
C1204 C 0.54673 0.27612 0.01959 0.0
C1205 C 0.5823 0.28548 0.00763 0.0
C1206 C 0.57424 0.3156 0.9934 0.0
C1207 C 0.53061 0.33468 0.99072 0.0
C1208 C 0.49556 0.32277 0.00229 0.0
C1209 C 0.50334 0.29416 0.01647 0.0
C1210 C 0.45923 0.28058 0.0254 0.0
C1211 C 0.45203 0.22823 0.02494 0.0
C1212 C 0.4577 0.299 0.04429 0.0
C1213 C 0.42524 0.30503 0.01382 0.0
C1214 C 0.4466 0.33018 1.00083 0.0
C1215 C 0.42153 0.35479 0.9884 0.0
C1216 C 0.37346 0.35373 0.9894 0.0
C1217 C 0.35125 0.32727 0.00244 0.0
C1218 C 0.37771 0.30254 0.01466 0.0
H1219 H 0.7233 0.86636 0.24131 0.0
H1220 H 0.60686 0.86027 0.27645 0.0
H1221 H 0.60805 0.94485 0.2791 0.0
H1222 H 0.78255 0.95441 0.26096 0.0
H1223 H 0.80095 0.98163 0.24094 0.0
H1224 H 0.78895 0.92118 0.24118 0.0
H1225 H 0.73047 0.93169 0.21588 0.0
H1226 H 0.74243 0.99234 0.21554 0.0
H1227 H 0.68445 0.97235 0.21828 0.0
H1228 H 0.6313 0.02892 0.28158 0.0
H1229 H 0.6683 0.10577 0.28053 0.0
H1230 H 0.76003 0.05718 0.24003 0.0
C1231 C 0.69714 0.88287 0.24913 0.0
C1232 C 0.66533 0.85681 0.25883 0.0
C1233 C 0.63219 0.87966 0.26919 0.0
C1234 C 0.63235 0.92765 0.27066 0.0
C1235 C 0.66485 0.95234 0.26117 0.0
C1236 C 0.69584 0.9307 0.25024 0.0
C1237 C 0.72772 0.96477 0.24164 0.0
C1238 C 0.77798 0.9549 0.24648 0.0
C1239 C 0.72083 0.96532 0.22165 0.0
C1240 C 0.71099 0.00877 0.24992 0.0
C1241 C 0.67498 0.00108 0.2613 0.0
C1242 C 0.6583 0.03575 0.27222 0.0
C1243 C 0.67932 0.07918 0.27156 0.0
C1244 C 0.71555 0.08752 0.25971 0.0
C1245 C 0.73084 0.05211 0.24859 0.0
H1246 H 0.92311 0.22086 0.49133 0.0
H1247 H 0.90553 0.25411 0.54645 0.0
H1248 H 0.98307 0.22604 0.55256 0.0
H1249 H 0.00016 0.11543 0.49949 0.0
H1250 H 0.03351 0.12845 0.48024 0.0
H1251 H 0.97319 0.14159 0.48071 0.0
H1252 H 0.99203 0.22577 0.4728 0.0
H1253 H 0.05236 0.21353 0.47286 0.0
H1254 H 0.03002 0.25822 0.48674 0.0
H1255 H 0.06619 0.21795 0.5512 0.0
H1256 H 0.14741 0.20958 0.5442 0.0
H1257 H 0.11244 0.16913 0.49104 0.0
C1258 C 0.93473 0.22019 0.5048 0.0
C1259 C 0.90835 0.24022 0.51837 0.0
C1260 C 0.92511 0.23928 0.5358 0.0
C1261 C 0.96922 0.22344 0.53943 0.0
C1262 C 0.99568 0.20741 0.52557 0.0
C1263 C 0.9787 0.20381 0.50871 0.0
C1264 C 0.01588 0.18844 0.49608 0.0
C1265 C 0.00504 0.14062 0.4887 0.0
C1266 C 0.02296 0.2236 0.48125 0.0
C1267 C 0.05685 0.18703 0.50832 0.0
C1268 C 0.04418 0.1983 0.52523 0.0
C1269 C 0.07634 0.20633 0.5383 0.0
C1270 C 0.12259 0.20114 0.53419 0.0
C1271 C 0.13658 0.18633 0.51732 0.0
C1272 C 0.10307 0.1796 0.50416 0.0
H1273 H 0.7958 0.41781 0.74183 0.0
H1274 H 0.77808 0.39181 0.79749 0.0
H1275 H 0.80589 0.46936 0.80409 0.0
H1276 H 0.90122 0.49745 0.74748 0.0
H1277 H 0.88217 0.53288 0.72953 0.0
H1278 H 0.871 0.47204 0.72928 0.0
H1279 H 0.78476 0.48885 0.72502 0.0
H1280 H 0.79518 0.54958 0.72583 0.0
H1281 H 0.75517 0.52379 0.74089 0.0
H1282 H 0.81102 0.55317 0.80407 0.0
H1283 H 0.81329 0.63555 0.79828 0.0
H1284 H 0.84155 0.60873 0.74332 0.0
C1285 C 0.80015 0.42756 0.75543 0.0
C1286 C 0.78443 0.39878 0.76914 0.0
C1287 C 0.78967 0.41324 0.78676 0.0
C1288 C 0.80541 0.45734 0.79066 0.0
C1289 C 0.81709 0.48618 0.77683 0.0
C1290 C 0.81655 0.47152 0.75959 0.0
C1291 C 0.82737 0.51095 0.74721 0.0
C1292 C 0.87318 0.50285 0.73782 0.0
C1293 C 0.78828 0.51872 0.73397 0.0
C1294 C 0.83087 0.55039 0.76014 0.0
C1295 C 0.82464 0.53513 0.77712 0.0
C1296 C 0.81881 0.56541 0.79101 0.0
C1297 C 0.82058 0.61245 0.78757 0.0
C1298 C 0.82988 0.62925 0.77049 0.0
C1299 C 0.83509 0.59745 0.75659 0.0
H1300 H 0.61738 0.32951 0.48676 0.0
H1301 H 0.64459 0.31579 0.54252 0.0
H1302 H 0.56282 0.30641 0.54809 0.0
H1303 H 0.50084 0.37856 0.4886 0.0
H1304 H 0.47951 0.34222 0.4713 0.0
H1305 H 0.53887 0.35932 0.4715 0.0
H1306 H 0.56394 0.2741 0.47059 0.0
H1307 H 0.50477 0.25696 0.47008 0.0
H1308 H 0.54222 0.23493 0.48689 0.0
H1309 H 0.48019 0.2938 0.54804 0.0
H1310 H 0.40476 0.26018 0.54223 0.0
H1311 H 0.43065 0.26737 0.48617 0.0
C1312 C 0.60625 0.32477 0.50015 0.0
C1313 C 0.63777 0.32573 0.51428 0.0
C1314 C 0.62137 0.31847 0.53155 0.0
C1315 C 0.57473 0.31262 0.53487 0.0
C1316 C 0.54468 0.31231 0.52073 0.0
C1317 C 0.55978 0.31667 0.50365 0.0
C1318 C 0.52137 0.30648 0.49077 0.0
C1319 C 0.50945 0.3492 0.4799 0.0
C1320 C 0.53381 0.26569 0.47889 0.0
C1321 C 0.48289 0.29442 0.50336 0.0
C1322 C 0.49689 0.29992 0.52055 0.0
C1323 C 0.4687 0.28931 0.53465 0.0
C1324 C 0.42583 0.27017 0.53118 0.0
C1325 C 0.4119 0.26064 0.51374 0.0
C1326 C 0.44011 0.27466 0.49962 0.0
H1327 H 0.67586 0.1078 0.74093 0.0
H1328 H 0.69915 0.13836 0.79596 0.0
H1329 H 0.70105 0.05642 0.8026 0.0
H1330 H 0.61514 0.99741 0.74532 0.0
H1331 H 0.64675 0.97062 0.72781 0.0
H1332 H 0.63641 0.03157 0.72736 0.0
H1333 H 0.72358 0.04722 0.72479 0.0
H1334 H 0.73384 0.98642 0.72479 0.0
H1335 H 0.76195 0.02246 0.74072 0.0
H1336 H 0.70463 0.97245 0.80363 0.0
H1337 H 0.73089 0.89373 0.79828 0.0
H1338 H 0.71872 0.91584 0.74214 0.0
C1339 C 0.68114 0.09739 0.75439 0.0
C1340 C 0.68482 0.13011 0.76805 0.0
C1341 C 0.69289 0.1145 0.78539 0.0
C1342 C 0.69443 0.06774 0.78932 0.0
C1343 C 0.68964 0.0365 0.77568 0.0
C1344 C 0.68484 0.05054 0.75847 0.0
C1345 C 0.68914 0.01006 0.74605 0.0
C1346 C 0.64417 0.00195 0.73604 0.0
C1347 C 0.72954 0.01695 0.73335 0.0
C1348 C 0.69834 0.97151 0.75901 0.0
C1349 C 0.69655 0.98747 0.77605 0.0
C1350 C 0.70611 0.95942 0.79035 0.0
C1351 C 0.72088 0.91461 0.78717 0.0
C1352 C 0.7272 0.89861 0.7698 0.0
C1353 C 0.71355 0.92674 0.75556 0.0
H1354 H 0.06926 0.19895 0.9853 0.0
H1355 H 0.10006 0.19949 0.04106 0.0
H1356 H 0.02197 0.17456 0.04741 0.0
H1357 H 0.96985 0.24365 0.98556 0.0
H1358 H 0.93883 0.20832 0.97021 0.0
H1359 H 7e-05 0.21235 0.96877 0.0
H1360 H 0.00849 0.12446 0.97156 0.0
H1361 H 0.94693 0.11954 0.9722 0.0
H1362 H 0.98113 0.0948 0.98947 0.0
H1363 H 0.93982 0.18835 0.04768 0.0
H1364 H 0.85906 0.20279 0.04241 0.0
H1365 H 0.87687 0.16701 0.98751 0.0
C1366 C 0.06044 0.19101 0.99875 0.0
C1367 C 0.09045 0.2026 0.01269 0.0
C1368 C 0.07761 0.19183 0.03013 0.0
C1369 C 0.03312 0.17762 0.03393 0.0
C1370 C 0.00273 0.17171 0.02007 0.0
C1371 C 0.01632 0.17489 0.00276 0.0
C1372 C 0.97536 0.16972 0.99057 0.0
C1373 C 0.97081 0.21098 0.97805 0.0
C1374 C 0.97814 0.12442 0.98035 0.0
C1375 C 0.93659 0.1686 0.00382 0.0
C1376 C 0.95344 0.17055 0.02072 0.0
C1377 C 0.92562 0.18226 0.03477 0.0
C1378 C 0.87921 0.18996 0.03162 0.0
C1379 C 0.85968 0.18267 0.01481 0.0
C1380 C 0.88935 0.17193 1.00068 0.0
H1381 H 0.83532 0.37951 0.24312 0.0
H1382 H 0.80481 0.35717 0.29822 0.0
H1383 H 0.80846 0.43968 0.30335 0.0
H1384 H 0.89755 0.49061 0.24554 0.0
H1385 H 0.86649 0.51431 0.22722 0.0
H1386 H 0.87744 0.4535 0.22826 0.0
H1387 H 0.79055 0.43662 0.22536 0.0
H1388 H 0.77971 0.49713 0.22392 0.0
H1389 H 0.75121 0.46329 0.24044 0.0
H1390 H 0.80814 0.5237 0.30258 0.0
H1391 H 0.77922 0.60028 0.29546 0.0
H1392 H 0.79 0.56938 0.23989 0.0
C1393 C 0.82936 0.39155 0.2563 0.0
C1394 C 0.82164 0.36075 0.27038 0.0
C1395 C 0.81396 0.37902 0.28735 0.0
C1396 C 0.8156 0.42628 0.2904 0.0
C1397 C 0.8229 0.45546 0.27624 0.0
C1398 C 0.82782 0.4389 0.25939 0.0
C1399 C 0.82365 0.4773 0.24602 0.0
C1400 C 0.869 0.48434 0.23618 0.0
C1401 C 0.78391 0.46804 0.23319 0.0
C1402 C 0.81357 0.51762 0.25801 0.0
C1403 C 0.81607 0.50446 0.27541 0.0
C1404 C 0.806 0.53448 0.28902 0.0
C1405 C 0.78959 0.57805 0.2848 0.0
C1406 C 0.78152 0.59064 0.26709 0.0
C1407 C 0.79616 0.56096 0.25352 0.0
H1408 H 0.05512 0.75576 0.53056 0.0
H1409 H 0.10037 0.82528 0.48332 0.0
H1410 H 0.02399 0.86109 0.48045 0.0
H1411 H 0.95262 0.72317 0.51423 0.0
H1412 H 0.92046 0.72898 0.53428 0.0
H1413 H 0.98089 0.71781 0.53516 0.0
H1414 H 0.99343 0.79031 0.55423 0.0
H1415 H 0.93272 0.80143 0.55366 0.0
H1416 H 0.97253 0.84498 0.54663 0.0
H1417 H 0.93943 0.88034 0.48049 0.0
H1418 H 0.85499 0.8812 0.48345 0.0
H1419 H 0.8652 0.79325 0.52912 0.0
C1420 C 0.0498 0.78009 0.52002 0.0
C1421 C 0.08408 0.78826 0.50731 0.0
C1422 C 0.07489 0.81901 0.49336 0.0
C1423 C 0.03155 0.83945 0.49161 0.0
C1424 C 0.99778 0.82867 0.5039 0.0
C1425 C 0.00661 0.79989 0.51791 0.0
C1426 C 0.96331 0.78856 0.52793 0.0
C1427 C 0.95379 0.73657 0.52788 0.0
C1428 C 0.96565 0.80746 0.54672 0.0
C1429 C 0.92842 0.81425 0.51707 0.0
C1430 C 0.94894 0.83795 0.50347 0.0
C1431 C 0.92314 0.8623 0.49121 0.0
C1432 C 0.87523 0.86224 0.49289 0.0
C1433 C 0.85365 0.83734 0.50652 0.0
C1434 C 0.88077 0.81341 0.51879 0.0
H1435 H 0.16784 0.38388 0.77549 0.0
H1436 H 0.21219 0.34774 0.72289 0.0
H1437 H 0.22277 0.42862 0.71598 0.0
H1438 H 0.12204 0.49904 0.76798 0.0
H1439 H 0.15021 0.52383 0.78677 0.0
H1440 H 0.13381 0.46419 0.78699 0.0
H1441 H 0.21742 0.44051 0.79388 0.0
H1442 H 0.2337 0.50004 0.79407 0.0
H1443 H 0.26295 0.46037 0.77983 0.0
H1444 H 0.22835 0.51174 0.7142 0.0
H1445 H 0.25745 0.58873 0.71975 0.0
H1446 H 0.23113 0.5716 0.77554 0.0
C1447 C 0.17978 0.39269 0.76252 0.0
C1448 C 0.18587 0.3589 0.74934 0.0
C1449 C 0.20308 0.37263 0.73277 0.0
C1450 C 0.20976 0.41876 0.72873 0.0
C1451 C 0.20197 0.45108 0.74174 0.0
C1452 C 0.18984 0.43868 0.75857 0.0
C1453 C 0.19407 0.47939 0.77094 0.0
C1454 C 0.14723 0.49237 0.77862 0.0
C1455 C 0.22913 0.46949 0.78554 0.0
C1456 C 0.21123 0.51606 0.75836 0.0
C1457 C 0.213 0.49914 0.74146 0.0
C1458 C 0.22767 0.52546 0.72739 0.0
C1459 C 0.24401 0.56947 0.73074 0.0
C1460 C 0.24737 0.5863 0.74816 0.0
C1461 C 0.22899 0.55984 0.76209 0.0
H1462 H 0.63658 0.66872 0.98871 0.0
H1463 H 0.65337 0.70629 0.04352 0.0
H1464 H 0.57116 0.69924 0.04781 0.0
H1465 H 0.54976 0.75226 0.98494 0.0
H1466 H 0.5184 0.72232 0.96808 0.0
H1467 H 0.57914 0.714 0.9702 0.0
H1468 H 0.56555 0.62639 0.97289 0.0
H1469 H 0.50451 0.63483 0.97126 0.0
H1470 H 0.52823 0.60475 0.98981 0.0
H1471 H 0.4874 0.69062 0.04646 0.0
H1472 H 0.40968 0.71416 0.03879 0.0
H1473 H 0.44512 0.70918 0.98344 0.0
C1474 C 0.62365 0.67594 1.00164 0.0
C1475 C 0.65319 0.68543 0.016 0.0
C1476 C 0.63307 0.69482 0.03255 0.0
C1477 C 0.58581 0.69144 0.03513 0.0
C1478 C 0.55812 0.68158 0.02079 0.0
C1479 C 0.57604 0.67667 0.00417 0.0
C1480 C 0.53841 0.67923 0.9904 0.0
C1481 C 0.54692 0.71935 0.97766 0.0
C1482 C 0.53392 0.63357 0.9805 0.0
C1483 C 0.49688 0.68772 1.00196 0.0
C1484 C 0.50901 0.68576 0.01947 0.0
C1485 C 0.47747 0.69286 0.03281 0.0
C1486 C 0.43316 0.70615 0.02824 0.0
C1487 C 0.42137 0.71484 0.01047 0.0
C1488 C 0.45295 0.70292 0.99712 0.0
H1489 H 0.27784 0.12597 0.23798 0.0
H1490 H 0.35968 0.13007 0.28544 0.0
H1491 H 0.35137 0.04601 0.2885 0.0
H1492 H 0.20052 0.04348 0.25009 0.0
H1493 H 0.1979 0.01534 0.22907 0.0
H1494 H 0.21282 0.07503 0.2303 0.0
H1495 H 0.28829 0.05884 0.21351 0.0
H1496 H 0.27355 0.99888 0.21224 0.0
H1497 H 0.3274 0.01615 0.22175 0.0
H1498 H 0.32336 0.96316 0.28844 0.0
H1499 H 0.28401 0.88865 0.2838 0.0
H1500 H 0.23177 0.9382 0.23406 0.0
C1501 C 0.2953 0.10917 0.24873 0.0
C1502 C 0.31899 0.1347 0.26156 0.0
C1503 C 0.34035 0.11133 0.27566 0.0
C1504 C 0.3363 0.06353 0.2774 0.0
C1505 C 0.31211 0.03947 0.26459 0.0
C1506 C 0.2929 0.06152 0.25031 0.0
C1507 C 0.26769 0.02832 0.23855 0.0
C1508 C 0.21673 0.04132 0.23692 0.0
C1509 C 0.29062 0.02538 0.22044 0.0
C1510 C 0.27401 0.98439 0.24879 0.0
C1511 C 0.29957 0.99132 0.26382 0.0
C1512 C 0.3046 0.95691 0.27643 0.0
C1513 C 0.28223 0.91475 0.27371 0.0
C1514 C 0.25601 0.90727 0.25836 0.0
C1515 C 0.25308 0.94223 0.24559 0.0
H1516 H 0.9613 0.73391 0.98442 0.0
H1517 H 0.91838 0.82265 0.02689 0.0
H1518 H 0.99146 0.8657 0.02442 0.0
H1519 H 0.07004 0.71964 0.99984 0.0
H1520 H 0.09733 0.7163 0.97868 0.0
H1521 H 0.03829 0.70013 0.98096 0.0
H1522 H 0.01583 0.75858 0.95682 0.0
H1523 H 0.07505 0.7751 0.95451 0.0
H1524 H 0.03223 0.81788 0.95914 0.0
H1525 H 0.07168 0.89388 0.0191 0.0
H1526 H 0.1556 0.89696 0.01518 0.0
H1527 H 0.14828 0.78383 0.9785 0.0
C1528 C 0.9666 0.76349 0.99278 0.0
C1529 C 0.9339 0.77587 0.00556 0.0
C1530 C 0.94282 0.81325 0.01685 0.0
C1531 C 0.98403 0.83796 0.01543 0.0
C1532 C 0.01601 0.82428 0.00284 0.0
C1533 C 0.00791 0.78745 0.99187 0.0
C1534 C 0.05033 0.77447 0.98159 0.0
C1535 C 0.06484 0.72472 0.98552 0.0
C1536 C 0.0429 0.78197 0.96184 0.0
C1537 C 0.08425 0.80868 0.98893 0.0
C1538 C 0.06337 0.83818 1.00069 0.0
C1539 C 0.08822 0.87116 0.00986 0.0
C1540 C 0.13581 0.87263 0.00756 0.0
C1541 C 0.15813 0.8404 0.99664 0.0
C1542 C 0.13187 0.80925 0.98671 0.0
H1543 H 0.19552 0.62649 0.27441 0.0
H1544 H 0.11828 0.62921 0.22586 0.0
H1545 H 0.1257 0.54492 0.22346 0.0
H1546 H 0.27405 0.54503 0.26282 0.0
H1547 H 0.27652 0.51708 0.28389 0.0
H1548 H 0.26073 0.57648 0.28252 0.0
H1549 H 0.18505 0.55903 0.29902 0.0
H1550 H 0.20065 0.49933 0.30041 0.0
H1551 H 0.14681 0.51564 0.29067 0.0
H1552 H 0.15185 0.46245 0.22431 0.0
H1553 H 0.19232 0.38883 0.2289 0.0
H1554 H 0.24507 0.4395 0.27843 0.0
C1555 C 0.17889 0.60921 0.26357 0.0
C1556 C 0.1564 0.63424 0.25031 0.0
C1557 C 0.1362 0.61059 0.23605 0.0
C1558 C 0.13982 0.56274 0.23468 0.0
C1559 C 0.1628 0.53906 0.2479 0.0
C1560 C 0.18139 0.56152 0.26221 0.0
C1561 C 0.20679 0.52878 0.2741 0.0
C1562 C 0.2575 0.54267 0.27592 0.0
C1563 C 0.18342 0.5255 0.29212 0.0
C1564 C 0.20138 0.48469 0.26387 0.0
C1565 C 0.17568 0.49112 0.24884 0.0
C1566 C 0.17091 0.45661 0.23629 0.0
C1567 C 0.19397 0.41494 0.23898 0.0
C1568 C 0.22104 0.40815 0.25417 0.0
C1569 C 0.2234 0.44305 0.26697 0.0
H1570 H 0.56943 0.71217 0.48866 0.0
H1571 H 0.59562 0.71683 0.54473 0.0
H1572 H 0.51719 0.6908 0.55038 0.0
H1573 H 0.46585 0.75611 0.48851 0.0
H1574 H 0.4386 0.71983 0.47245 0.0
H1575 H 0.49962 0.72776 0.47196 0.0
H1576 H 0.51282 0.64026 0.4741 0.0
H1577 H 0.45165 0.63164 0.47395 0.0
H1578 H 0.48587 0.60806 0.49145 0.0
H1579 H 0.43293 0.69195 0.55001 0.0
H1580 H 0.35099 0.69596 0.54392 0.0
H1581 H 0.37778 0.67294 0.48858 0.0
C1582 C 0.55951 0.70532 0.50209 0.0
C1583 C 0.5887 0.71733 0.51624 0.0
C1584 C 0.57405 0.70834 0.53363 0.0
C1585 C 0.52934 0.69362 0.53702 0.0
C1586 C 0.50016 0.68617 0.52287 0.0
C1587 C 0.51508 0.68944 0.50571 0.0
C1588 C 0.4755 0.68241 0.49302 0.0
C1589 C 0.46958 0.72401 0.48077 0.0
C1590 C 0.48184 0.63793 0.48251 0.0
C1591 C 0.43577 0.67835 0.50576 0.0
C1592 C 0.45091 0.68098 0.52288 0.0
C1593 C 0.42063 0.68666 0.53677 0.0
C1594 C 0.3737 0.68842 0.53315 0.0
C1595 C 0.35679 0.68254 0.51584 0.0
C1596 C 0.38872 0.67718 0.502 0.0
H1597 H 0.22514 0.05087 0.7367 0.0
H1598 H 0.2932 0.1045 0.78293 0.0
H1599 H 0.33602 0.03162 0.78596 0.0
H1600 H 0.20494 0.94396 0.7541 0.0
H1601 H 0.21235 0.91276 0.7339 0.0
H1602 H 0.19399 0.97156 0.73335 0.0
H1603 H 0.26223 0.99247 0.71314 0.0
H1604 H 0.28063 0.93349 0.71346 0.0
H1605 H 0.3197 0.97835 0.71987 0.0
H1606 H 0.3665 0.95022 0.78517 0.0
H1607 H 0.37942 0.86684 0.78138 0.0
H1608 H 0.28444 0.86586 0.73766 0.0
C1609 C 0.25026 0.04795 0.7471 0.0
C1610 C 0.25659 0.08357 0.7594 0.0
C1611 C 0.28837 0.07775 0.77325 0.0
C1612 C 0.31281 0.03654 0.77505 0.0
C1613 C 0.3046 0.00148 0.763 0.0
C1614 C 0.27396 0.00683 0.74932 0.0
C1615 C 0.26691 0.96245 0.73941 0.0
C1616 C 0.21658 0.94678 0.74026 0.0
C1617 C 0.28336 0.96698 0.72034 0.0
C1618 C 0.29769 0.93098 0.74984 0.0
C1619 C 0.31988 0.95419 0.76318 0.0
C1620 C 0.34938 0.93179 0.77473 0.0
C1621 C 0.35619 0.88446 0.7726 0.0
C1622 C 0.33285 0.86003 0.75926 0.0
C1623 C 0.30338 0.88379 0.74777 0.0
loop_
_geom_bond_atom_site_label_1
_geom_bond_atom_site_label_2
_geom_bond_distance
_geom_bond_site_symmetry_2
_ccdc_geom_bond_type
Co0 O3 1.970 . S
Co0 N17 1.989 . S
Co0 O25 1.967 . S
Co0 O32 1.920 . S
Co1 O4 1.966 . S
Co1 N10 2.022 . S
Co1 N18 1.993 . S
Co1 O26 1.941 . S
C2 O3 1.258 . S
C2 O4 1.263 1_554 S
O3 Co0 1.970 . S
O3 C2 1.258 . S
O4 Co1 1.966 . S
O4 C2 1.263 1_556 S
C5 O6 1.235 . S
C5 O32 1.289 . S
O6 C5 1.235 . S
C7 C9 1.400 . S
C7 N10 1.351 . S
C7 C12 1.501 . S
C8 C9 1.387 . S
C8 N11 1.341 . S
C9 C7 1.400 . S
C9 C8 1.387 . S
N10 Co1 2.022 . S
N10 C7 1.351 . S
N10 N11 1.365 . S
N11 C8 1.341 . S
N11 N10 1.365 . S
N11 H31 0.862 . S
C12 C7 1.501 . S
C12 H13 0.961 . S
C12 H14 0.961 . S
C12 H15 0.960 . S
H13 C12 0.961 . S
H14 C12 0.961 . S
H15 C12 0.960 . S
C16 N17 1.342 . S
C16 C20 1.401 . S
C16 C21 1.499 . S
N17 Co0 1.989 . S
N17 C16 1.342 . S
N17 N18 1.388 1_554 S
N18 Co1 1.993 . S
N18 N17 1.388 1_556 S
N18 C19 1.346 . S
C19 N18 1.346 . S
C19 C20 1.396 1_556 S
C19 C29 1.510 . S
C20 C16 1.401 . S
C20 C19 1.396 1_554 S
C21 C16 1.499 . S
C21 H22 0.959 . S
C21 H23 0.960 . S
C21 H24 0.961 . S
H22 C21 0.959 . S
H23 C21 0.960 . S
H24 C21 0.961 . S
O25 Co0 1.967 . S
O25 C33 1.258 . S
O26 Co1 1.941 . S
O26 C33 1.266 1_556 S
H27 C29 0.959 . S
H28 C29 0.961 . S
C29 C19 1.510 . S
C29 H27 0.959 . S
C29 H28 0.961 . S
C29 H30 0.960 . S
H30 C29 0.960 . S
H31 N11 0.862 . S
O32 Co0 1.920 . S
O32 C5 1.289 . S
C33 O25 1.258 . S
C33 O26 1.266 1_554 S
Co34 O37 1.970 . S
Co34 N51 1.989 . S
Co34 O59 1.967 . S
Co34 O66 1.920 . S
Co35 O38 1.966 . S
Co35 N44 2.022 . S
Co35 N52 1.993 . S
Co35 O60 1.941 . S
C36 O37 1.258 . S
C36 O38 1.263 . S
O37 Co34 1.970 . S
O37 C36 1.258 . S
O38 Co35 1.966 . S
O38 C36 1.263 . S
C39 O40 1.235 . S
C39 O66 1.289 . S
O40 C39 1.235 . S
C41 C43 1.400 . S
C41 N44 1.351 . S
C41 C46 1.501 . S
C42 C43 1.387 . S
C42 N45 1.341 . S
C43 C41 1.400 . S
C43 C42 1.387 . S
N44 Co35 2.022 . S
N44 C41 1.351 . S
N44 N45 1.365 . S
N45 C42 1.341 . S
N45 N44 1.365 . S
N45 H65 0.862 . S
C46 C41 1.501 . S
C46 H47 0.961 . S
C46 H48 0.961 . S
C46 H49 0.960 . S
H47 C46 0.961 . S
H48 C46 0.961 . S
H49 C46 0.960 . S
C50 N51 1.342 . S
C50 C54 1.401 . S
C50 C55 1.499 . S
N51 Co34 1.989 . S
N51 C50 1.342 . S
N51 N52 1.388 . S
N52 Co35 1.993 . S
N52 N51 1.388 . S
N52 C53 1.346 . S
C53 N52 1.346 . S
C53 C54 1.396 . S
C53 C63 1.510 . S
C54 C50 1.401 . S
C54 C53 1.396 . S
C55 C50 1.499 . S
C55 H56 0.959 . S
C55 H57 0.960 . S
C55 H58 0.961 . S
H56 C55 0.959 . S
H57 C55 0.960 . S
H58 C55 0.961 . S
O59 Co34 1.967 . S
O59 C67 1.258 . S
O60 Co35 1.941 . S
O60 C67 1.266 . S
H61 C63 0.959 . S
H62 C63 0.961 . S
C63 C53 1.510 . S
C63 H61 0.959 . S
C63 H62 0.961 . S
C63 H64 0.960 . S
H64 C63 0.960 . S
H65 N45 0.862 . S
O66 Co34 1.920 . S
O66 C39 1.289 . S
C67 O59 1.258 . S
C67 O60 1.266 . S
Co68 O71 1.970 . S
Co68 N85 1.989 . S
Co68 O93 1.967 . S
Co68 O100 1.920 . S
Co69 O72 1.966 . S
Co69 N78 2.022 . S
Co69 N86 1.993 . S
Co69 O94 1.941 . S
C70 O71 1.258 . S
C70 O72 1.263 . S
O71 Co68 1.970 . S
O71 C70 1.258 . S
O72 Co69 1.966 . S
O72 C70 1.263 . S
C73 O74 1.235 . S
C73 O100 1.289 . S
O74 C73 1.235 . S
C75 C77 1.400 . S
C75 N78 1.351 . S
C75 C80 1.501 . S
C76 C77 1.387 . S
C76 N79 1.341 . S
C77 C75 1.400 . S
C77 C76 1.387 . S
N78 Co69 2.022 . S
N78 C75 1.351 . S
N78 N79 1.365 . S
N79 C76 1.341 . S
N79 N78 1.365 . S
N79 H99 0.862 . S
C80 C75 1.501 . S
C80 H81 0.961 . S
C80 H82 0.961 . S
C80 H83 0.960 . S
H81 C80 0.961 . S
H82 C80 0.961 . S
H83 C80 0.960 . S
C84 N85 1.342 . S
C84 C88 1.401 . S
C84 C89 1.499 . S
N85 Co68 1.989 . S
N85 C84 1.342 . S
N85 N86 1.388 . S
N86 Co69 1.993 . S
N86 N85 1.388 . S
N86 C87 1.346 . S
C87 N86 1.346 . S
C87 C88 1.396 . S
C87 C97 1.510 . S
C88 C84 1.401 . S
C88 C87 1.396 . S
C89 C84 1.499 . S
C89 H90 0.959 . S
C89 H91 0.960 . S
C89 H92 0.961 . S
H90 C89 0.959 . S
H91 C89 0.960 . S
H92 C89 0.961 . S
O93 Co68 1.967 . S
O93 C101 1.258 . S
O94 Co69 1.941 . S
O94 C101 1.266 . S
H95 C97 0.959 . S
H96 C97 0.961 . S
C97 C87 1.510 . S
C97 H95 0.959 . S
C97 H96 0.961 . S
C97 H98 0.960 . S
H98 C97 0.960 . S
H99 N79 0.862 . S
O100 Co68 1.920 . S
O100 C73 1.289 . S
C101 O93 1.258 . S
C101 O94 1.266 . S
Co102 O105 1.970 . S
Co102 N119 1.989 . S
Co102 O127 1.967 . S
Co102 O134 1.920 . S
Co103 O106 1.966 . S
Co103 N112 2.022 . S
Co103 N120 1.993 . S
Co103 O128 1.941 . S
C104 O105 1.258 . S
C104 O106 1.263 . S
O105 Co102 1.970 . S
O105 C104 1.258 . S
O106 Co103 1.966 . S
O106 C104 1.263 . S
C107 O108 1.235 . S
C107 O134 1.289 . S
O108 C107 1.235 . S
C109 C111 1.400 . S
C109 N112 1.351 . S
C109 C114 1.501 . S
C110 C111 1.387 . S
C110 N113 1.341 . S
C111 C109 1.400 . S
C111 C110 1.387 . S
N112 Co103 2.022 . S
N112 C109 1.351 . S
N112 N113 1.365 . S
N113 C110 1.341 . S
N113 N112 1.365 . S
N113 H133 0.862 . S
C114 C109 1.501 . S
C114 H115 0.961 . S
C114 H116 0.961 . S
C114 H117 0.960 . S
H115 C114 0.961 . S
H116 C114 0.961 . S
H117 C114 0.960 . S
C118 N119 1.342 . S
C118 C122 1.401 . S
C118 C123 1.499 . S
N119 Co102 1.989 . S
N119 C118 1.342 . S
N119 N120 1.388 . S
N120 Co103 1.993 . S
N120 N119 1.388 . S
N120 C121 1.346 . S
C121 N120 1.346 . S
C121 C122 1.396 . S
C121 C131 1.510 . S
C122 C118 1.401 . S
C122 C121 1.396 . S
C123 C118 1.499 . S
C123 H124 0.959 . S
C123 H125 0.960 . S
C123 H126 0.961 . S
H124 C123 0.959 . S
H125 C123 0.960 . S
H126 C123 0.961 . S
O127 Co102 1.967 . S
O127 C135 1.258 . S
O128 Co103 1.941 . S
O128 C135 1.266 . S
H129 C131 0.959 . S
H130 C131 0.961 . S
C131 C121 1.510 . S
C131 H129 0.959 . S
C131 H130 0.961 . S
C131 H132 0.960 . S
H132 C131 0.960 . S
H133 N113 0.862 . S
O134 Co102 1.920 . S
O134 C107 1.289 . S
C135 O127 1.258 . S
C135 O128 1.266 . S
Co136 O139 1.970 . S
Co136 N153 1.989 . S
Co136 O161 1.967 . S
Co136 O168 1.920 . S
Co137 O140 1.966 . S
Co137 N146 2.022 . S
Co137 N154 1.993 . S
Co137 O162 1.941 . S
C138 O139 1.258 . S
C138 O140 1.263 . S
O139 Co136 1.970 . S
O139 C138 1.258 . S
O140 Co137 1.966 . S
O140 C138 1.263 . S
C141 O142 1.235 . S
C141 O168 1.289 . S
O142 C141 1.235 . S
C143 C145 1.400 . S
C143 N146 1.351 . S
C143 C148 1.501 . S
C144 C145 1.387 . S
C144 N147 1.341 . S
C145 C143 1.400 . S
C145 C144 1.387 . S
N146 Co137 2.022 . S
N146 C143 1.351 . S
N146 N147 1.365 . S
N147 C144 1.341 . S
N147 N146 1.365 . S
N147 H167 0.862 . S
C148 C143 1.501 . S
C148 H149 0.961 . S
C148 H150 0.961 . S
C148 H151 0.960 . S
H149 C148 0.961 . S
H150 C148 0.961 . S
H151 C148 0.960 . S
C152 N153 1.342 . S
C152 C156 1.401 . S
C152 C157 1.499 . S
N153 Co136 1.989 . S
N153 C152 1.342 . S
N153 N154 1.388 . S
N154 Co137 1.993 . S
N154 N153 1.388 . S
N154 C155 1.346 . S
C155 N154 1.346 . S
C155 C156 1.396 . S
C155 C165 1.510 . S
C156 C152 1.401 . S
C156 C155 1.396 . S
C157 C152 1.499 . S
C157 H158 0.959 . S
C157 H159 0.960 . S
C157 H160 0.961 . S
H158 C157 0.959 . S
H159 C157 0.960 . S
H160 C157 0.961 . S
O161 Co136 1.967 . S
O161 C169 1.258 . S
O162 Co137 1.941 . S
O162 C169 1.266 . S
H163 C165 0.959 . S
H164 C165 0.961 . S
C165 C155 1.510 . S
C165 H163 0.959 . S
C165 H164 0.961 . S
C165 H166 0.960 . S
H166 C165 0.960 . S
H167 N147 0.862 . S
O168 Co136 1.920 . S
O168 C141 1.289 . S
C169 O161 1.258 . S
C169 O162 1.266 . S
Co170 O173 1.970 . S
Co170 N187 1.989 . S
Co170 O195 1.967 . S
Co170 O202 1.920 . S
Co171 O174 1.966 . S
Co171 N180 2.022 . S
Co171 N188 1.993 . S
Co171 O196 1.941 . S
C172 O173 1.258 . S
C172 O174 1.263 . S
O173 Co170 1.970 . S
O173 C172 1.258 . S
O174 Co171 1.966 . S
O174 C172 1.263 . S
C175 O176 1.235 . S
C175 O202 1.289 . S
O176 C175 1.235 . S
C177 C179 1.400 . S
C177 N180 1.351 . S
C177 C182 1.501 . S
C178 C179 1.387 . S
C178 N181 1.341 . S
C179 C177 1.400 . S
C179 C178 1.387 . S
N180 Co171 2.022 . S
N180 C177 1.351 . S
N180 N181 1.365 . S
N181 C178 1.341 . S
N181 N180 1.365 . S
N181 H201 0.862 . S
C182 C177 1.501 . S
C182 H183 0.961 . S
C182 H184 0.961 . S
C182 H185 0.960 . S
H183 C182 0.961 . S
H184 C182 0.961 . S
H185 C182 0.960 . S
C186 N187 1.342 . S
C186 C190 1.401 . S
C186 C191 1.499 . S
N187 Co170 1.989 . S
N187 C186 1.342 . S
N187 N188 1.388 . S
N188 Co171 1.993 . S
N188 N187 1.388 . S
N188 C189 1.346 . S
C189 N188 1.346 . S
C189 C190 1.396 . S
C189 C199 1.510 . S
C190 C186 1.401 . S
C190 C189 1.396 . S
C191 C186 1.499 . S
C191 H192 0.959 . S
C191 H193 0.960 . S
C191 H194 0.961 . S
H192 C191 0.959 . S
H193 C191 0.960 . S
H194 C191 0.961 . S
O195 Co170 1.967 . S
O195 C203 1.258 . S
O196 Co171 1.941 . S
O196 C203 1.266 . S
H197 C199 0.959 . S
H198 C199 0.961 . S
C199 C189 1.510 . S
C199 H197 0.959 . S
C199 H198 0.961 . S
C199 H200 0.960 . S
H200 C199 0.960 . S
H201 N181 0.862 . S
O202 Co170 1.920 . S
O202 C175 1.289 . S
C203 O195 1.258 . S
C203 O196 1.266 . S
Co204 O207 1.970 . S
Co204 N221 1.989 . S
Co204 O229 1.967 . S
Co204 O236 1.920 . S
Co205 O208 1.966 . S
Co205 N214 2.022 . S
Co205 N222 1.993 . S
Co205 O230 1.941 . S
C206 O207 1.258 . S
C206 O208 1.263 1_554 S
O207 Co204 1.970 . S
O207 C206 1.258 . S
O208 Co205 1.966 . S
O208 C206 1.263 1_556 S
C209 O210 1.235 . S
C209 O236 1.289 . S
O210 C209 1.235 . S
C211 C213 1.400 . S
C211 N214 1.351 . S
C211 C216 1.501 . S
C212 C213 1.387 . S
C212 N215 1.341 . S
C213 C211 1.400 . S
C213 C212 1.387 . S
N214 Co205 2.022 . S
N214 C211 1.351 . S
N214 N215 1.365 . S
N215 C212 1.341 . S
N215 N214 1.365 . S
N215 H235 0.862 . S
C216 C211 1.501 . S
C216 H217 0.961 . S
C216 H218 0.961 . S
C216 H219 0.960 . S
H217 C216 0.961 . S
H218 C216 0.961 . S
H219 C216 0.960 . S
C220 N221 1.342 . S
C220 C224 1.401 . S
C220 C225 1.499 . S
N221 Co204 1.989 . S
N221 C220 1.342 . S
N221 N222 1.388 1_554 S
N222 Co205 1.993 . S
N222 N221 1.388 1_556 S
N222 C223 1.346 . S
C223 N222 1.346 . S
C223 C224 1.396 1_556 S
C223 C233 1.510 . S
C224 C220 1.401 . S
C224 C223 1.396 1_554 S
C225 C220 1.499 . S
C225 H226 0.959 . S
C225 H227 0.960 . S
C225 H228 0.961 . S
H226 C225 0.959 . S
H227 C225 0.960 . S
H228 C225 0.961 . S
O229 Co204 1.967 . S
O229 C237 1.258 . S
O230 Co205 1.941 . S
O230 C237 1.266 1_556 S
H231 C233 0.959 . S
H232 C233 0.961 . S
C233 C223 1.510 . S
C233 H231 0.959 . S
C233 H232 0.961 . S
C233 H234 0.960 . S
H234 C233 0.960 . S
H235 N215 0.862 . S
O236 Co204 1.920 . S
O236 C209 1.289 . S
C237 O229 1.258 . S
C237 O230 1.266 1_554 S
Co238 O241 1.970 . S
Co238 N255 1.989 . S
Co238 O263 1.967 . S
Co238 O270 1.920 . S
Co239 O242 1.966 . S
Co239 N248 2.022 . S
Co239 N256 1.993 . S
Co239 O264 1.941 . S
C240 O241 1.258 . S
C240 O242 1.263 . S
O241 Co238 1.970 . S
O241 C240 1.258 . S
O242 Co239 1.966 . S
O242 C240 1.263 . S
C243 O244 1.235 . S
C243 O270 1.289 . S
O244 C243 1.235 . S
C245 C247 1.400 . S
C245 N248 1.351 . S
C245 C250 1.501 . S
C246 C247 1.387 . S
C246 N249 1.341 . S
C247 C245 1.400 . S
C247 C246 1.387 . S
N248 Co239 2.022 . S
N248 C245 1.351 . S
N248 N249 1.365 . S
N249 C246 1.341 . S
N249 N248 1.365 . S
N249 H269 0.862 . S
C250 C245 1.501 . S
C250 H251 0.961 . S
C250 H252 0.961 . S
C250 H253 0.960 . S
H251 C250 0.961 . S
H252 C250 0.961 . S
H253 C250 0.960 . S
C254 N255 1.342 . S
C254 C258 1.401 . S
C254 C259 1.499 . S
N255 Co238 1.989 . S
N255 C254 1.342 . S
N255 N256 1.388 . S
N256 Co239 1.993 . S
N256 N255 1.388 . S
N256 C257 1.346 . S
C257 N256 1.346 . S
C257 C258 1.396 . S
C257 C267 1.510 . S
C258 C254 1.401 . S
C258 C257 1.396 . S
C259 C254 1.499 . S
C259 H260 0.959 . S
C259 H261 0.960 . S
C259 H262 0.961 . S
H260 C259 0.959 . S
H261 C259 0.960 . S
H262 C259 0.961 . S
O263 Co238 1.967 . S
O263 C271 1.258 . S
O264 Co239 1.941 . S
O264 C271 1.266 . S
H265 C267 0.959 . S
H266 C267 0.961 . S
C267 C257 1.510 . S
C267 H265 0.959 . S
C267 H266 0.961 . S
C267 H268 0.960 . S
H268 C267 0.960 . S
H269 N249 0.862 . S
O270 Co238 1.920 . S
O270 C243 1.289 . S
C271 O263 1.258 . S
C271 O264 1.266 . S
Co272 O275 1.970 . S
Co272 N289 1.989 . S
Co272 O297 1.967 . S
Co272 O304 1.920 . S
Co273 O276 1.966 . S
Co273 N282 2.022 . S
Co273 N290 1.993 . S
Co273 O298 1.941 . S
C274 O275 1.258 . S
C274 O276 1.263 . S
O275 Co272 1.970 . S
O275 C274 1.258 . S
O276 Co273 1.966 . S
O276 C274 1.263 . S
C277 O278 1.235 . S
C277 O304 1.289 . S
O278 C277 1.235 . S
C279 C281 1.400 . S
C279 N282 1.351 . S
C279 C284 1.501 . S
C280 C281 1.387 . S
C280 N283 1.341 . S
C281 C279 1.400 . S
C281 C280 1.387 . S
N282 Co273 2.022 . S
N282 C279 1.351 . S
N282 N283 1.365 . S
N283 C280 1.341 . S
N283 N282 1.365 . S
N283 H303 0.862 . S
C284 C279 1.501 . S
C284 H285 0.961 . S
C284 H286 0.961 . S
C284 H287 0.960 . S
H285 C284 0.961 . S
H286 C284 0.961 . S
H287 C284 0.960 . S
C288 N289 1.342 . S
C288 C292 1.401 . S
C288 C293 1.499 . S
N289 Co272 1.989 . S
N289 C288 1.342 . S
N289 N290 1.388 . S
N290 Co273 1.993 . S
N290 N289 1.388 . S
N290 C291 1.346 . S
C291 N290 1.346 . S
C291 C292 1.396 . S
C291 C301 1.510 . S
C292 C288 1.401 . S
C292 C291 1.396 . S
C293 C288 1.499 . S
C293 H294 0.959 . S
C293 H295 0.960 . S
C293 H296 0.961 . S
H294 C293 0.959 . S
H295 C293 0.960 . S
H296 C293 0.961 . S
O297 Co272 1.967 . S
O297 C305 1.258 . S
O298 Co273 1.941 . S
O298 C305 1.266 . S
H299 C301 0.959 . S
H300 C301 0.961 . S
C301 C291 1.510 . S
C301 H299 0.959 . S
C301 H300 0.961 . S
C301 H302 0.960 . S
H302 C301 0.960 . S
H303 N283 0.862 . S
O304 Co272 1.920 . S
O304 C277 1.289 . S
C305 O297 1.258 . S
C305 O298 1.266 . S
Co306 O309 1.970 . S
Co306 N323 1.989 . S
Co306 O331 1.967 . S
Co306 O338 1.920 . S
Co307 O310 1.966 . S
Co307 N316 2.022 . S
Co307 N324 1.993 . S
Co307 O332 1.941 . S
C308 O309 1.258 . S
C308 O310 1.263 . S
O309 Co306 1.970 . S
O309 C308 1.258 . S
O310 Co307 1.966 . S
O310 C308 1.263 . S
C311 O312 1.235 . S
C311 O338 1.289 . S
O312 C311 1.235 . S
C313 C315 1.400 . S
C313 N316 1.351 . S
C313 C318 1.501 . S
C314 C315 1.387 . S
C314 N317 1.341 . S
C315 C313 1.400 . S
C315 C314 1.387 . S
N316 Co307 2.022 . S
N316 C313 1.351 . S
N316 N317 1.365 . S
N317 C314 1.341 . S
N317 N316 1.365 . S
N317 H337 0.862 . S
C318 C313 1.501 . S
C318 H319 0.961 . S
C318 H320 0.961 . S
C318 H321 0.960 . S
H319 C318 0.961 . S
H320 C318 0.961 . S
H321 C318 0.960 . S
C322 N323 1.342 . S
C322 C326 1.401 . S
C322 C327 1.499 . S
N323 Co306 1.989 . S
N323 C322 1.342 . S
N323 N324 1.388 . S
N324 Co307 1.993 . S
N324 N323 1.388 . S
N324 C325 1.346 . S
C325 N324 1.346 . S
C325 C326 1.396 . S
C325 C335 1.510 . S
C326 C322 1.401 . S
C326 C325 1.396 . S
C327 C322 1.499 . S
C327 H328 0.959 . S
C327 H329 0.960 . S
C327 H330 0.961 . S
H328 C327 0.959 . S
H329 C327 0.960 . S
H330 C327 0.961 . S
O331 Co306 1.967 . S
O331 C339 1.258 . S
O332 Co307 1.941 . S
O332 C339 1.266 . S
H333 C335 0.959 . S
H334 C335 0.961 . S
C335 C325 1.510 . S
C335 H333 0.959 . S
C335 H334 0.961 . S
C335 H336 0.960 . S
H336 C335 0.960 . S
H337 N317 0.862 . S
O338 Co306 1.920 . S
O338 C311 1.289 . S
C339 O331 1.258 . S
C339 O332 1.266 . S
Co340 O343 1.970 . S
Co340 N357 1.989 . S
Co340 O365 1.967 . S
Co340 O372 1.920 . S
Co341 O344 1.966 . S
Co341 N350 2.022 . S
Co341 N358 1.993 . S
Co341 O366 1.941 . S
C342 O343 1.258 . S
C342 O344 1.263 1_554 S
O343 Co340 1.970 . S
O343 C342 1.258 . S
O344 Co341 1.966 . S
O344 C342 1.263 1_556 S
C345 O346 1.235 . S
C345 O372 1.289 . S
O346 C345 1.235 . S
C347 C349 1.400 . S
C347 N350 1.351 . S
C347 C352 1.501 . S
C348 C349 1.387 . S
C348 N351 1.341 . S
C349 C347 1.400 . S
C349 C348 1.387 . S
N350 Co341 2.022 . S
N350 C347 1.351 . S
N350 N351 1.365 . S
N351 C348 1.341 . S
N351 N350 1.365 . S
N351 H371 0.862 . S
C352 C347 1.501 . S
C352 H353 0.961 . S
C352 H354 0.961 . S
C352 H355 0.960 . S
H353 C352 0.961 . S
H354 C352 0.961 . S
H355 C352 0.960 . S
C356 N357 1.342 . S
C356 C360 1.401 . S
C356 C361 1.499 . S
N357 Co340 1.989 . S
N357 C356 1.342 . S
N357 N358 1.388 1_554 S
N358 Co341 1.993 . S
N358 N357 1.388 1_556 S
N358 C359 1.346 . S
C359 N358 1.346 . S
C359 C360 1.396 1_556 S
C359 C369 1.510 . S
C360 C356 1.401 . S
C360 C359 1.396 1_554 S
C361 C356 1.499 . S
C361 H362 0.959 . S
C361 H363 0.960 . S
C361 H364 0.961 . S
H362 C361 0.959 . S
H363 C361 0.960 . S
H364 C361 0.961 . S
O365 Co340 1.967 . S
O365 C373 1.258 . S
O366 Co341 1.941 . S
O366 C373 1.266 1_556 S
H367 C369 0.959 . S
H368 C369 0.961 . S
C369 C359 1.510 . S
C369 H367 0.959 . S
C369 H368 0.961 . S
C369 H370 0.960 . S
H370 C369 0.960 . S
H371 N351 0.862 . S
O372 Co340 1.920 . S
O372 C345 1.289 . S
C373 O365 1.258 . S
C373 O366 1.266 1_554 S
Co374 O377 1.970 . S
Co374 N391 1.989 . S
Co374 O399 1.967 . S
Co374 O406 1.920 . S
Co375 O378 1.966 . S
Co375 N384 2.022 . S
Co375 N392 1.993 . S
Co375 O400 1.941 . S
C376 O377 1.258 . S
C376 O378 1.263 . S
O377 Co374 1.970 . S
O377 C376 1.258 . S
O378 Co375 1.966 . S
O378 C376 1.263 . S
C379 O380 1.235 . S
C379 O406 1.289 . S
O380 C379 1.235 . S
C381 C383 1.400 . S
C381 N384 1.351 . S
C381 C386 1.501 . S
C382 C383 1.387 . S
C382 N385 1.341 . S
C383 C381 1.400 . S
C383 C382 1.387 . S
N384 Co375 2.022 . S
N384 C381 1.351 . S
N384 N385 1.365 . S
N385 C382 1.341 . S
N385 N384 1.365 . S
N385 H405 0.862 . S
C386 C381 1.501 . S
C386 H387 0.961 . S
C386 H388 0.961 . S
C386 H389 0.960 . S
H387 C386 0.961 . S
H388 C386 0.961 . S
H389 C386 0.960 . S
C390 N391 1.342 . S
C390 C394 1.401 . S
C390 C395 1.499 . S
N391 Co374 1.989 . S
N391 C390 1.342 . S
N391 N392 1.388 . S
N392 Co375 1.993 . S
N392 N391 1.388 . S
N392 C393 1.346 . S
C393 N392 1.346 . S
C393 C394 1.396 . S
C393 C403 1.510 . S
C394 C390 1.401 . S
C394 C393 1.396 . S
C395 C390 1.499 . S
C395 H396 0.959 . S
C395 H397 0.960 . S
C395 H398 0.961 . S
H396 C395 0.959 . S
H397 C395 0.960 . S
H398 C395 0.961 . S
O399 Co374 1.967 . S
O399 C407 1.258 . S
O400 Co375 1.941 . S
O400 C407 1.266 . S
H401 C403 0.959 . S
H402 C403 0.961 . S
C403 C393 1.510 . S
C403 H401 0.959 . S
C403 H402 0.961 . S
C403 H404 0.960 . S
H404 C403 0.960 . S
H405 N385 0.862 . S
O406 Co374 1.920 . S
O406 C379 1.289 . S
C407 O399 1.258 . S
C407 O400 1.266 . S
Co408 O411 1.970 . S
Co408 N425 1.989 . S
Co408 O433 1.967 . S
Co408 O440 1.920 . S
Co409 O412 1.966 . S
Co409 N418 2.022 . S
Co409 N426 1.993 . S
Co409 O434 1.941 . S
C410 O411 1.258 . S
C410 O412 1.263 1_554 S
O411 Co408 1.970 . S
O411 C410 1.258 . S
O412 Co409 1.966 . S
O412 C410 1.263 1_556 S
C413 O414 1.235 . S
C413 O440 1.289 . S
O414 C413 1.235 . S
C415 C417 1.400 . S
C415 N418 1.351 . S
C415 C420 1.501 . S
C416 C417 1.387 . S
C416 N419 1.341 . S
C417 C415 1.400 . S
C417 C416 1.387 . S
N418 Co409 2.022 . S
N418 C415 1.351 . S
N418 N419 1.365 . S
N419 C416 1.341 . S
N419 N418 1.365 . S
N419 H439 0.862 . S
C420 C415 1.501 . S
C420 H421 0.961 . S
C420 H422 0.961 . S
C420 H423 0.960 . S
H421 C420 0.961 . S
H422 C420 0.961 . S
H423 C420 0.960 . S
C424 N425 1.342 . S
C424 C428 1.401 . S
C424 C429 1.499 . S
N425 Co408 1.989 . S
N425 C424 1.342 . S
N425 N426 1.388 1_554 S
N426 Co409 1.993 . S
N426 N425 1.388 1_556 S
N426 C427 1.346 . S
C427 N426 1.346 . S
C427 C428 1.396 1_556 S
C427 C437 1.510 . S
C428 C424 1.401 . S
C428 C427 1.396 1_554 S
C429 C424 1.499 . S
C429 H430 0.959 . S
C429 H431 0.960 . S
C429 H432 0.961 . S
H430 C429 0.959 . S
H431 C429 0.960 . S
H432 C429 0.961 . S
O433 Co408 1.967 . S
O433 C441 1.258 . S
O434 Co409 1.941 . S
O434 C441 1.266 1_556 S
H435 C437 0.959 . S
H436 C437 0.961 . S
C437 C427 1.510 . S
C437 H435 0.959 . S
C437 H436 0.961 . S
C437 H438 0.960 . S
H438 C437 0.960 . S
H439 N419 0.862 . S
O440 Co408 1.920 . S
O440 C413 1.289 . S
C441 O433 1.258 . S
C441 O434 1.266 1_554 S
Co442 O445 1.970 . S
Co442 N459 1.989 . S
Co442 O467 1.967 . S
Co442 O474 1.920 . S
Co443 O446 1.966 . S
Co443 N452 2.022 . S
Co443 N460 1.993 . S
Co443 O468 1.941 . S
C444 O445 1.258 . S
C444 O446 1.263 . S
O445 Co442 1.970 . S
O445 C444 1.258 . S
O446 Co443 1.966 . S
O446 C444 1.263 . S
C447 O448 1.235 . S
C447 O474 1.289 . S
O448 C447 1.235 . S
C449 C451 1.400 . S
C449 N452 1.351 . S
C449 C454 1.501 . S
C450 C451 1.387 . S
C450 N453 1.341 . S
C451 C449 1.400 . S
C451 C450 1.387 . S
N452 Co443 2.022 . S
N452 C449 1.351 . S
N452 N453 1.365 . S
N453 C450 1.341 . S
N453 N452 1.365 . S
N453 H473 0.862 . S
C454 C449 1.501 . S
C454 H455 0.961 . S
C454 H456 0.961 . S
C454 H457 0.960 . S
H455 C454 0.961 . S
H456 C454 0.961 . S
H457 C454 0.960 . S
C458 N459 1.342 . S
C458 C462 1.401 . S
C458 C463 1.499 . S
N459 Co442 1.989 . S
N459 C458 1.342 . S
N459 N460 1.388 . S
N460 Co443 1.993 . S
N460 N459 1.388 . S
N460 C461 1.346 . S
C461 N460 1.346 . S
C461 C462 1.396 . S
C461 C471 1.510 . S
C462 C458 1.401 . S
C462 C461 1.396 . S
C463 C458 1.499 . S
C463 H464 0.959 . S
C463 H465 0.960 . S
C463 H466 0.961 . S
H464 C463 0.959 . S
H465 C463 0.960 . S
H466 C463 0.961 . S
O467 Co442 1.967 . S
O467 C475 1.258 . S
O468 Co443 1.941 . S
O468 C475 1.266 . S
H469 C471 0.959 . S
H470 C471 0.961 . S
C471 C461 1.510 . S
C471 H469 0.959 . S
C471 H470 0.961 . S
C471 H472 0.960 . S
H472 C471 0.960 . S
H473 N453 0.862 . S
O474 Co442 1.920 . S
O474 C447 1.289 . S
C475 O467 1.258 . S
C475 O468 1.266 . S
Co476 O479 1.970 . S
Co476 N493 1.989 . S
Co476 O501 1.967 . S
Co476 O508 1.920 . S
Co477 O480 1.966 . S
Co477 N486 2.022 . S
Co477 N494 1.993 . S
Co477 O502 1.941 . S
C478 O479 1.258 . S
C478 O480 1.263 . S
O479 Co476 1.970 . S
O479 C478 1.258 . S
O480 Co477 1.966 . S
O480 C478 1.263 . S
C481 O482 1.235 . S
C481 O508 1.289 . S
O482 C481 1.235 . S
C483 C485 1.400 . S
C483 N486 1.351 . S
C483 C488 1.501 . S
C484 C485 1.387 . S
C484 N487 1.341 . S
C485 C483 1.400 . S
C485 C484 1.387 . S
N486 Co477 2.022 . S
N486 C483 1.351 . S
N486 N487 1.365 . S
N487 C484 1.341 . S
N487 N486 1.365 . S
N487 H507 0.862 . S
C488 C483 1.501 . S
C488 H489 0.961 . S
C488 H490 0.961 . S
C488 H491 0.960 . S
H489 C488 0.961 . S
H490 C488 0.961 . S
H491 C488 0.960 . S
C492 N493 1.342 . S
C492 C496 1.401 . S
C492 C497 1.499 . S
N493 Co476 1.989 . S
N493 C492 1.342 . S
N493 N494 1.388 . S
N494 Co477 1.993 . S
N494 N493 1.388 . S
N494 C495 1.346 . S
C495 N494 1.346 . S
C495 C496 1.396 . S
C495 C505 1.510 . S
C496 C492 1.401 . S
C496 C495 1.396 . S
C497 C492 1.499 . S
C497 H498 0.959 . S
C497 H499 0.960 . S
C497 H500 0.961 . S
H498 C497 0.959 . S
H499 C497 0.960 . S
H500 C497 0.961 . S
O501 Co476 1.967 . S
O501 C509 1.258 . S
O502 Co477 1.941 . S
O502 C509 1.266 . S
H503 C505 0.959 . S
H504 C505 0.961 . S
C505 C495 1.510 . S
C505 H503 0.959 . S
C505 H504 0.961 . S
C505 H506 0.960 . S
H506 C505 0.960 . S
H507 N487 0.862 . S
O508 Co476 1.920 . S
O508 C481 1.289 . S
C509 O501 1.258 . S
C509 O502 1.266 . S
Co510 O513 1.970 . S
Co510 N527 1.989 . S
Co510 O535 1.967 . S
Co510 O542 1.920 . S
Co511 O514 1.966 . S
Co511 N520 2.022 . S
Co511 N528 1.993 . S
Co511 O536 1.941 . S
C512 O513 1.258 . S
C512 O514 1.263 . S
O513 Co510 1.970 . S
O513 C512 1.258 . S
O514 Co511 1.966 . S
O514 C512 1.263 . S
C515 O516 1.235 . S
C515 O542 1.289 . S
O516 C515 1.235 . S
C517 C519 1.400 . S
C517 N520 1.351 . S
C517 C522 1.501 . S
C518 C519 1.387 . S
C518 N521 1.341 . S
C519 C517 1.400 . S
C519 C518 1.387 . S
N520 Co511 2.022 . S
N520 C517 1.351 . S
N520 N521 1.365 . S
N521 C518 1.341 . S
N521 N520 1.365 . S
N521 H541 0.862 . S
C522 C517 1.501 . S
C522 H523 0.961 . S
C522 H524 0.961 . S
C522 H525 0.960 . S
H523 C522 0.961 . S
H524 C522 0.961 . S
H525 C522 0.960 . S
C526 N527 1.342 . S
C526 C530 1.401 . S
C526 C531 1.499 . S
N527 Co510 1.989 . S
N527 C526 1.342 . S
N527 N528 1.388 . S
N528 Co511 1.993 . S
N528 N527 1.388 . S
N528 C529 1.346 . S
C529 N528 1.346 . S
C529 C530 1.396 . S
C529 C539 1.510 . S
C530 C526 1.401 . S
C530 C529 1.396 . S
C531 C526 1.499 . S
C531 H532 0.959 . S
C531 H533 0.960 . S
C531 H534 0.961 . S
H532 C531 0.959 . S
H533 C531 0.960 . S
H534 C531 0.961 . S
O535 Co510 1.967 . S
O535 C543 1.258 . S
O536 Co511 1.941 . S
O536 C543 1.266 . S
H537 C539 0.959 . S
H538 C539 0.961 . S
C539 C529 1.510 . S
C539 H537 0.959 . S
C539 H538 0.961 . S
C539 H540 0.960 . S
H540 C539 0.960 . S
H541 N521 0.862 . S
O542 Co510 1.920 . S
O542 C515 1.289 . S
C543 O535 1.258 . S
C543 O536 1.266 . S
H544 C556 0.930 . S
H545 C558 0.930 . S
H546 C559 0.930 . S
H547 C563 0.959 . S
H548 C563 0.959 . S
H549 C563 0.961 . S
H550 C564 0.960 . S
H551 C564 0.961 . S
H552 C564 0.959 . S
H553 C567 0.929 . S
H554 C568 0.931 . S
H555 C570 0.930 . S
C556 H544 0.930 . S
C556 C557 1.399 . S
C556 C561 1.399 . S
C557 C556 1.399 . S
C557 C558 1.376 . S
C558 H545 0.930 . S
C558 C557 1.376 . S
C558 C559 1.388 . S
C559 H546 0.930 . S
C559 C558 1.388 . S
C559 C560 1.390 . S
C560 C559 1.390 . S
C560 C561 1.394 . S
C560 C566 1.465 . S
C561 C556 1.399 . S
C561 C560 1.394 . S
C561 C562 1.516 . S
C562 C561 1.516 . S
C562 C563 1.502 . S
C562 C564 1.561 . S
C562 C565 1.526 . S
C563 H547 0.959 . S
C563 H548 0.959 . S
C563 H549 0.961 . S
C563 C562 1.502 . S
C564 H550 0.960 . S
C564 H551 0.961 . S
C564 H552 0.959 . S
C564 C562 1.561 . S
C565 C562 1.526 . S
C565 C566 1.396 . S
C565 C570 1.390 . S
C566 C560 1.465 . S
C566 C565 1.396 . S
C566 C567 1.399 . S
C567 H553 0.929 . S
C567 C566 1.399 . S
C567 C568 1.385 . S
C568 H554 0.931 . S
C568 C567 1.385 . S
C568 C569 1.389 . S
C569 C568 1.389 . S
C569 C570 1.387 . S
C570 H555 0.930 . S
C570 C565 1.390 . S
C570 C569 1.387 . S
H571 C583 0.930 . S
H572 C585 0.930 . S
H573 C586 0.930 . S
H574 C590 0.959 . S
H575 C590 0.959 . S
H576 C590 0.961 . S
H577 C591 0.960 . S
H578 C591 0.961 . S
H579 C591 0.959 . S
H580 C594 0.929 . S
H581 C595 0.931 . S
H582 C597 0.930 . S
C583 H571 0.930 . S
C583 C584 1.399 . S
C583 C588 1.399 . S
C584 C583 1.399 . S
C584 C585 1.376 . S
C585 H572 0.930 . S
C585 C584 1.376 . S
C585 C586 1.388 . S
C586 H573 0.930 . S
C586 C585 1.388 . S
C586 C587 1.390 . S
C587 C586 1.390 . S
C587 C588 1.394 . S
C587 C593 1.465 . S
C588 C583 1.399 . S
C588 C587 1.394 . S
C588 C589 1.516 . S
C589 C588 1.516 . S
C589 C590 1.502 . S
C589 C591 1.561 . S
C589 C592 1.526 . S
C590 H574 0.959 . S
C590 H575 0.959 . S
C590 H576 0.961 . S
C590 C589 1.502 . S
C591 H577 0.960 . S
C591 H578 0.961 . S
C591 H579 0.959 . S
C591 C589 1.561 . S
C592 C589 1.526 . S
C592 C593 1.396 . S
C592 C597 1.390 . S
C593 C587 1.465 . S
C593 C592 1.396 . S
C593 C594 1.399 . S
C594 H580 0.929 . S
C594 C593 1.399 . S
C594 C595 1.385 . S
C595 H581 0.931 . S
C595 C594 1.385 . S
C595 C596 1.389 . S
C596 C595 1.389 . S
C596 C597 1.387 . S
C597 H582 0.930 . S
C597 C592 1.390 . S
C597 C596 1.387 . S
H598 C610 0.930 . S
H599 C612 0.930 . S
H600 C613 0.930 . S
H601 C617 0.959 . S
H602 C617 0.959 . S
H603 C617 0.961 . S
H604 C618 0.960 . S
H605 C618 0.961 . S
H606 C618 0.959 . S
H607 C621 0.929 . S
H608 C622 0.931 . S
H609 C624 0.930 . S
C610 H598 0.930 . S
C610 C611 1.399 . S
C610 C615 1.399 . S
C611 C610 1.399 . S
C611 C612 1.376 . S
C612 H599 0.930 . S
C612 C611 1.376 . S
C612 C613 1.388 . S
C613 H600 0.930 . S
C613 C612 1.388 . S
C613 C614 1.390 . S
C614 C613 1.390 . S
C614 C615 1.394 . S
C614 C620 1.465 . S
C615 C610 1.399 . S
C615 C614 1.394 . S
C615 C616 1.516 . S
C616 C615 1.516 . S
C616 C617 1.502 . S
C616 C618 1.561 . S
C616 C619 1.526 . S
C617 H601 0.959 . S
C617 H602 0.959 . S
C617 H603 0.961 . S
C617 C616 1.502 . S
C618 H604 0.960 . S
C618 H605 0.961 . S
C618 H606 0.959 . S
C618 C616 1.561 . S
C619 C616 1.526 . S
C619 C620 1.396 . S
C619 C624 1.390 . S
C620 C614 1.465 . S
C620 C619 1.396 . S
C620 C621 1.399 . S
C621 H607 0.929 . S
C621 C620 1.399 . S
C621 C622 1.385 . S
C622 H608 0.931 . S
C622 C621 1.385 . S
C622 C623 1.389 . S
C623 C622 1.389 . S
C623 C624 1.387 . S
C624 H609 0.930 . S
C624 C619 1.390 . S
C624 C623 1.387 . S
H625 C637 0.930 . S
H626 C639 0.930 . S
H627 C640 0.930 . S
H628 C644 0.959 . S
H629 C644 0.959 . S
H630 C644 0.961 . S
H631 C645 0.960 . S
H632 C645 0.961 . S
H633 C645 0.959 . S
H634 C648 0.929 . S
H635 C649 0.931 . S
H636 C651 0.930 . S
C637 H625 0.930 . S
C637 C638 1.399 . S
C637 C642 1.399 . S
C638 C637 1.399 . S
C638 C639 1.376 . S
C639 H626 0.930 . S
C639 C638 1.376 . S
C639 C640 1.388 . S
C640 H627 0.930 . S
C640 C639 1.388 . S
C640 C641 1.390 . S
C641 C640 1.390 . S
C641 C642 1.394 . S
C641 C647 1.465 . S
C642 C637 1.399 . S
C642 C641 1.394 . S
C642 C643 1.516 . S
C643 C642 1.516 . S
C643 C644 1.502 . S
C643 C645 1.561 . S
C643 C646 1.526 . S
C644 H628 0.959 . S
C644 H629 0.959 . S
C644 H630 0.961 . S
C644 C643 1.502 . S
C645 H631 0.960 . S
C645 H632 0.961 . S
C645 H633 0.959 . S
C645 C643 1.561 . S
C646 C643 1.526 . S
C646 C647 1.396 . S
C646 C651 1.390 . S
C647 C641 1.465 . S
C647 C646 1.396 . S
C647 C648 1.399 . S
C648 H634 0.929 . S
C648 C647 1.399 . S
C648 C649 1.385 . S
C649 H635 0.931 . S
C649 C648 1.385 . S
C649 C650 1.389 . S
C650 C649 1.389 . S
C650 C651 1.387 . S
C651 H636 0.930 . S
C651 C646 1.390 . S
C651 C650 1.387 . S
H652 C664 0.930 . S
H653 C666 0.930 . S
H654 C667 0.930 . S
H655 C671 0.959 . S
H656 C671 0.959 . S
H657 C671 0.961 . S
H658 C672 0.960 . S
H659 C672 0.961 . S
H660 C672 0.959 . S
H661 C675 0.929 . S
H662 C676 0.931 . S
H663 C678 0.930 . S
C664 H652 0.930 . S
C664 C665 1.399 . S
C664 C669 1.399 . S
C665 C664 1.399 . S
C665 C666 1.376 . S
C666 H653 0.930 . S
C666 C665 1.376 . S
C666 C667 1.388 . S
C667 H654 0.930 . S
C667 C666 1.388 . S
C667 C668 1.390 . S
C668 C667 1.390 . S
C668 C669 1.394 . S
C668 C674 1.465 . S
C669 C664 1.399 . S
C669 C668 1.394 . S
C669 C670 1.516 . S
C670 C669 1.516 . S
C670 C671 1.502 . S
C670 C672 1.561 . S
C670 C673 1.526 . S
C671 H655 0.959 . S
C671 H656 0.959 . S
C671 H657 0.961 . S
C671 C670 1.502 . S
C672 H658 0.960 . S
C672 H659 0.961 . S
C672 H660 0.959 . S
C672 C670 1.561 . S
C673 C670 1.526 . S
C673 C674 1.396 . S
C673 C678 1.390 . S
C674 C668 1.465 . S
C674 C673 1.396 . S
C674 C675 1.399 . S
C675 H661 0.929 . S
C675 C674 1.399 . S
C675 C676 1.385 . S
C676 H662 0.931 . S
C676 C675 1.385 . S
C676 C677 1.389 . S
C677 C676 1.389 . S
C677 C678 1.387 . S
C678 H663 0.930 . S
C678 C673 1.390 . S
C678 C677 1.387 . S
H679 C691 0.930 . S
H680 C693 0.930 . S
H681 C694 0.930 . S
H682 C698 0.959 . S
H683 C698 0.959 . S
H684 C698 0.961 . S
H685 C699 0.960 . S
H686 C699 0.961 . S
H687 C699 0.959 . S
H688 C702 0.929 . S
H689 C703 0.931 . S
H690 C705 0.930 . S
C691 H679 0.930 . S
C691 C692 1.399 . S
C691 C696 1.399 . S
C692 C691 1.399 . S
C692 C693 1.376 . S
C693 H680 0.930 . S
C693 C692 1.376 . S
C693 C694 1.388 . S
C694 H681 0.930 . S
C694 C693 1.388 . S
C694 C695 1.390 . S
C695 C694 1.390 . S
C695 C696 1.394 . S
C695 C701 1.465 . S
C696 C691 1.399 . S
C696 C695 1.394 . S
C696 C697 1.516 . S
C697 C696 1.516 . S
C697 C698 1.502 . S
C697 C699 1.561 . S
C697 C700 1.526 . S
C698 H682 0.959 . S
C698 H683 0.959 . S
C698 H684 0.961 . S
C698 C697 1.502 . S
C699 H685 0.960 . S
C699 H686 0.961 . S
C699 H687 0.959 . S
C699 C697 1.561 . S
C700 C697 1.526 . S
C700 C701 1.396 . S
C700 C705 1.390 . S
C701 C695 1.465 . S
C701 C700 1.396 . S
C701 C702 1.399 . S
C702 H688 0.929 . S
C702 C701 1.399 . S
C702 C703 1.385 . S
C703 H689 0.931 . S
C703 C702 1.385 . S
C703 C704 1.389 . S
C704 C703 1.389 . S
C704 C705 1.387 . S
C705 H690 0.930 . S
C705 C700 1.390 . S
C705 C704 1.387 . S
H706 C718 0.930 . S
H707 C720 0.930 . S
H708 C721 0.930 . S
H709 C725 0.959 . S
H710 C725 0.959 . S
H711 C725 0.961 . S
H712 C726 0.960 . S
H713 C726 0.961 . S
H714 C726 0.959 . S
H715 C729 0.929 . S
H716 C730 0.931 . S
H717 C732 0.930 . S
C718 H706 0.930 . S
C718 C719 1.399 . S
C718 C723 1.399 . S
C719 C718 1.399 . S
C719 C720 1.376 . S
C720 H707 0.930 . S
C720 C719 1.376 . S
C720 C721 1.388 . S
C721 H708 0.930 . S
C721 C720 1.388 . S
C721 C722 1.390 . S
C722 C721 1.390 . S
C722 C723 1.394 . S
C722 C728 1.465 . S
C723 C718 1.399 . S
C723 C722 1.394 . S
C723 C724 1.516 . S
C724 C723 1.516 . S
C724 C725 1.502 . S
C724 C726 1.561 . S
C724 C727 1.526 . S
C725 H709 0.959 . S
C725 H710 0.959 . S
C725 H711 0.961 . S
C725 C724 1.502 . S
C726 H712 0.960 . S
C726 H713 0.961 . S
C726 H714 0.959 . S
C726 C724 1.561 . S
C727 C724 1.526 . S
C727 C728 1.396 . S
C727 C732 1.390 . S
C728 C722 1.465 . S
C728 C727 1.396 . S
C728 C729 1.399 . S
C729 H715 0.929 . S
C729 C728 1.399 . S
C729 C730 1.385 . S
C730 H716 0.931 . S
C730 C729 1.385 . S
C730 C731 1.389 . S
C731 C730 1.389 . S
C731 C732 1.387 . S
C732 H717 0.930 . S
C732 C727 1.390 . S
C732 C731 1.387 . S
H733 C745 0.930 . S
H734 C747 0.930 . S
H735 C748 0.930 . S
H736 C752 0.959 . S
H737 C752 0.959 . S
H738 C752 0.961 . S
H739 C753 0.960 . S
H740 C753 0.961 . S
H741 C753 0.959 . S
H742 C756 0.929 . S
H743 C757 0.931 . S
H744 C759 0.930 . S
C745 H733 0.930 . S
C745 C746 1.399 . S
C745 C750 1.399 . S
C746 C745 1.399 . S
C746 C747 1.376 . S
C747 H734 0.930 . S
C747 C746 1.376 . S
C747 C748 1.388 . S
C748 H735 0.930 . S
C748 C747 1.388 . S
C748 C749 1.390 . S
C749 C748 1.390 . S
C749 C750 1.394 . S
C749 C755 1.465 . S
C750 C745 1.399 . S
C750 C749 1.394 . S
C750 C751 1.516 . S
C751 C750 1.516 . S
C751 C752 1.502 . S
C751 C753 1.561 . S
C751 C754 1.526 . S
C752 H736 0.959 . S
C752 H737 0.959 . S
C752 H738 0.961 . S
C752 C751 1.502 . S
C753 H739 0.960 . S
C753 H740 0.961 . S
C753 H741 0.959 . S
C753 C751 1.561 . S
C754 C751 1.526 . S
C754 C755 1.396 . S
C754 C759 1.390 . S
C755 C749 1.465 . S
C755 C754 1.396 . S
C755 C756 1.399 . S
C756 H742 0.929 . S
C756 C755 1.399 . S
C756 C757 1.385 . S
C757 H743 0.931 . S
C757 C756 1.385 . S
C757 C758 1.389 . S
C758 C757 1.389 . S
C758 C759 1.387 . S
C759 H744 0.930 . S
C759 C754 1.390 . S
C759 C758 1.387 . S
H760 C772 0.930 . S
H761 C774 0.930 . S
H762 C775 0.930 . S
H763 C779 0.959 . S
H764 C779 0.959 . S
H765 C779 0.961 . S
H766 C780 0.960 . S
H767 C780 0.961 . S
H768 C780 0.959 . S
H769 C783 0.929 . S
H770 C784 0.931 . S
H771 C786 0.930 . S
C772 H760 0.930 . S
C772 C773 1.399 . S
C772 C777 1.399 . S
C773 C772 1.399 . S
C773 C774 1.376 . S
C774 H761 0.930 . S
C774 C773 1.376 . S
C774 C775 1.388 . S
C775 H762 0.930 . S
C775 C774 1.388 . S
C775 C776 1.390 . S
C776 C775 1.390 . S
C776 C777 1.394 . S
C776 C782 1.465 . S
C777 C772 1.399 . S
C777 C776 1.394 . S
C777 C778 1.516 . S
C778 C777 1.516 . S
C778 C779 1.502 . S
C778 C780 1.561 . S
C778 C781 1.526 . S
C779 H763 0.959 . S
C779 H764 0.959 . S
C779 H765 0.961 . S
C779 C778 1.502 . S
C780 H766 0.960 . S
C780 H767 0.961 . S
C780 H768 0.959 . S
C780 C778 1.561 . S
C781 C778 1.526 . S
C781 C782 1.396 . S
C781 C786 1.390 . S
C782 C776 1.465 . S
C782 C781 1.396 . S
C782 C783 1.399 . S
C783 H769 0.929 . S
C783 C782 1.399 . S
C783 C784 1.385 . S
C784 H770 0.931 . S
C784 C783 1.385 . S
C784 C785 1.389 . S
C785 C784 1.389 . S
C785 C786 1.387 . S
C786 H771 0.930 . S
C786 C781 1.390 . S
C786 C785 1.387 . S
H787 C799 0.930 . S
H788 C801 0.930 . S
H789 C802 0.930 . S
H790 C806 0.959 . S
H791 C806 0.959 . S
H792 C806 0.961 . S
H793 C807 0.960 . S
H794 C807 0.961 . S
H795 C807 0.959 . S
H796 C810 0.929 . S
H797 C811 0.931 . S
H798 C813 0.930 . S
C799 H787 0.930 . S
C799 C800 1.399 . S
C799 C804 1.399 . S
C800 C799 1.399 . S
C800 C801 1.376 . S
C801 H788 0.930 . S
C801 C800 1.376 . S
C801 C802 1.388 . S
C802 H789 0.930 . S
C802 C801 1.388 . S
C802 C803 1.390 . S
C803 C802 1.390 . S
C803 C804 1.394 . S
C803 C809 1.465 . S
C804 C799 1.399 . S
C804 C803 1.394 . S
C804 C805 1.516 . S
C805 C804 1.516 . S
C805 C806 1.502 . S
C805 C807 1.561 . S
C805 C808 1.526 . S
C806 H790 0.959 . S
C806 H791 0.959 . S
C806 H792 0.961 . S
C806 C805 1.502 . S
C807 H793 0.960 . S
C807 H794 0.961 . S
C807 H795 0.959 . S
C807 C805 1.561 . S
C808 C805 1.526 . S
C808 C809 1.396 . S
C808 C813 1.390 . S
C809 C803 1.465 . S
C809 C808 1.396 . S
C809 C810 1.399 . S
C810 H796 0.929 . S
C810 C809 1.399 . S
C810 C811 1.385 . S
C811 H797 0.931 . S
C811 C810 1.385 . S
C811 C812 1.389 . S
C812 C811 1.389 . S
C812 C813 1.387 . S
C813 H798 0.930 . S
C813 C808 1.390 . S
C813 C812 1.387 . S
H814 C826 0.930 . S
H815 C828 0.930 . S
H816 C829 0.930 . S
H817 C833 0.959 . S
H818 C833 0.959 . S
H819 C833 0.961 . S
H820 C834 0.960 . S
H821 C834 0.961 . S
H822 C834 0.959 . S
H823 C837 0.929 . S
H824 C838 0.931 . S
H825 C840 0.930 . S
C826 H814 0.930 . S
C826 C827 1.399 . S
C826 C831 1.399 . S
C827 C826 1.399 . S
C827 C828 1.376 . S
C828 H815 0.930 . S
C828 C827 1.376 . S
C828 C829 1.388 . S
C829 H816 0.930 . S
C829 C828 1.388 . S
C829 C830 1.390 . S
C830 C829 1.390 . S
C830 C831 1.394 . S
C830 C836 1.465 . S
C831 C826 1.399 . S
C831 C830 1.394 . S
C831 C832 1.516 . S
C832 C831 1.516 . S
C832 C833 1.502 . S
C832 C834 1.561 . S
C832 C835 1.526 . S
C833 H817 0.959 . S
C833 H818 0.959 . S
C833 H819 0.961 . S
C833 C832 1.502 . S
C834 H820 0.960 . S
C834 H821 0.961 . S
C834 H822 0.959 . S
C834 C832 1.561 . S
C835 C832 1.526 . S
C835 C836 1.396 . S
C835 C840 1.390 . S
C836 C830 1.465 . S
C836 C835 1.396 . S
C836 C837 1.399 . S
C837 H823 0.929 . S
C837 C836 1.399 . S
C837 C838 1.385 . S
C838 H824 0.931 . S
C838 C837 1.385 . S
C838 C839 1.389 . S
C839 C838 1.389 . S
C839 C840 1.387 . S
C840 H825 0.930 . S
C840 C835 1.390 . S
C840 C839 1.387 . S
H841 C853 0.930 . S
H842 C855 0.930 . S
H843 C856 0.930 . S
H844 C860 0.959 . S
H845 C860 0.959 . S
H846 C860 0.961 . S
H847 C861 0.960 . S
H848 C861 0.961 . S
H849 C861 0.959 . S
H850 C864 0.929 . S
H851 C865 0.931 . S
H852 C867 0.930 . S
C853 H841 0.930 . S
C853 C854 1.399 . S
C853 C858 1.399 . S
C854 C853 1.399 . S
C854 C855 1.376 . S
C855 H842 0.930 . S
C855 C854 1.376 . S
C855 C856 1.388 . S
C856 H843 0.930 . S
C856 C855 1.388 . S
C856 C857 1.390 . S
C857 C856 1.390 . S
C857 C858 1.394 . S
C857 C863 1.465 . S
C858 C853 1.399 . S
C858 C857 1.394 . S
C858 C859 1.516 . S
C859 C858 1.516 . S
C859 C860 1.502 . S
C859 C861 1.561 . S
C859 C862 1.526 . S
C860 H844 0.959 . S
C860 H845 0.959 . S
C860 H846 0.961 . S
C860 C859 1.502 . S
C861 H847 0.960 . S
C861 H848 0.961 . S
C861 H849 0.959 . S
C861 C859 1.561 . S
C862 C859 1.526 . S
C862 C863 1.396 . S
C862 C867 1.390 . S
C863 C857 1.465 . S
C863 C862 1.396 . S
C863 C864 1.399 . S
C864 H850 0.929 . S
C864 C863 1.399 . S
C864 C865 1.385 . S
C865 H851 0.931 . S
C865 C864 1.385 . S
C865 C866 1.389 . S
C866 C865 1.389 . S
C866 C867 1.387 . S
C867 H852 0.930 . S
C867 C862 1.390 . S
C867 C866 1.387 . S
H868 C880 0.930 . S
H869 C882 0.930 . S
H870 C883 0.930 . S
H871 C887 0.959 . S
H872 C887 0.959 . S
H873 C887 0.961 . S
H874 C888 0.960 . S
H875 C888 0.961 . S
H876 C888 0.959 . S
H877 C891 0.929 . S
H878 C892 0.931 . S
H879 C894 0.930 . S
C880 H868 0.930 . S
C880 C881 1.399 . S
C880 C885 1.399 . S
C881 C880 1.399 . S
C881 C882 1.376 . S
C882 H869 0.930 . S
C882 C881 1.376 . S
C882 C883 1.388 . S
C883 H870 0.930 . S
C883 C882 1.388 . S
C883 C884 1.390 . S
C884 C883 1.390 . S
C884 C885 1.394 . S
C884 C890 1.465 . S
C885 C880 1.399 . S
C885 C884 1.394 . S
C885 C886 1.516 . S
C886 C885 1.516 . S
C886 C887 1.502 . S
C886 C888 1.561 . S
C886 C889 1.526 . S
C887 H871 0.959 . S
C887 H872 0.959 . S
C887 H873 0.961 . S
C887 C886 1.502 . S
C888 H874 0.960 . S
C888 H875 0.961 . S
C888 H876 0.959 . S
C888 C886 1.561 . S
C889 C886 1.526 . S
C889 C890 1.396 . S
C889 C894 1.390 . S
C890 C884 1.465 . S
C890 C889 1.396 . S
C890 C891 1.399 . S
C891 H877 0.929 . S
C891 C890 1.399 . S
C891 C892 1.385 . S
C892 H878 0.931 . S
C892 C891 1.385 . S
C892 C893 1.389 . S
C893 C892 1.389 . S
C893 C894 1.387 . S
C894 H879 0.930 . S
C894 C889 1.390 . S
C894 C893 1.387 . S
H895 C907 0.930 . S
H896 C909 0.930 . S
H897 C910 0.930 . S
H898 C914 0.959 . S
H899 C914 0.959 . S
H900 C914 0.961 . S
H901 C915 0.960 . S
H902 C915 0.961 . S
H903 C915 0.959 . S
H904 C918 0.929 . S
H905 C919 0.931 . S
H906 C921 0.930 . S
C907 H895 0.930 . S
C907 C908 1.399 . S
C907 C912 1.399 . S
C908 C907 1.399 . S
C908 C909 1.376 . S
C909 H896 0.930 . S
C909 C908 1.376 . S
C909 C910 1.388 . S
C910 H897 0.930 . S
C910 C909 1.388 . S
C910 C911 1.390 . S
C911 C910 1.390 . S
C911 C912 1.394 . S
C911 C917 1.465 . S
C912 C907 1.399 . S
C912 C911 1.394 . S
C912 C913 1.516 . S
C913 C912 1.516 . S
C913 C914 1.502 . S
C913 C915 1.561 . S
C913 C916 1.526 . S
C914 H898 0.959 . S
C914 H899 0.959 . S
C914 H900 0.961 . S
C914 C913 1.502 . S
C915 H901 0.960 . S
C915 H902 0.961 . S
C915 H903 0.959 . S
C915 C913 1.561 . S
C916 C913 1.526 . S
C916 C917 1.396 . S
C916 C921 1.390 . S
C917 C911 1.465 . S
C917 C916 1.396 . S
C917 C918 1.399 . S
C918 H904 0.929 . S
C918 C917 1.399 . S
C918 C919 1.385 . S
C919 H905 0.931 . S
C919 C918 1.385 . S
C919 C920 1.389 . S
C920 C919 1.389 . S
C920 C921 1.387 . S
C921 H906 0.930 . S
C921 C916 1.390 . S
C921 C920 1.387 . S
H922 C934 0.930 . S
H923 C936 0.930 . S
H924 C937 0.930 . S
H925 C941 0.959 . S
H926 C941 0.959 . S
H927 C941 0.961 . S
H928 C942 0.960 . S
H929 C942 0.961 . S
H930 C942 0.959 . S
H931 C945 0.929 . S
H932 C946 0.931 . S
H933 C948 0.930 . S
C934 H922 0.930 . S
C934 C935 1.399 . S
C934 C939 1.399 . S
C935 C934 1.399 . S
C935 C936 1.376 . S
C936 H923 0.930 . S
C936 C935 1.376 . S
C936 C937 1.388 . S
C937 H924 0.930 . S
C937 C936 1.388 . S
C937 C938 1.390 . S
C938 C937 1.390 . S
C938 C939 1.394 . S
C938 C944 1.465 . S
C939 C934 1.399 . S
C939 C938 1.394 . S
C939 C940 1.516 . S
C940 C939 1.516 . S
C940 C941 1.502 . S
C940 C942 1.561 . S
C940 C943 1.526 . S
C941 H925 0.959 . S
C941 H926 0.959 . S
C941 H927 0.961 . S
C941 C940 1.502 . S
C942 H928 0.960 . S
C942 H929 0.961 . S
C942 H930 0.959 . S
C942 C940 1.561 . S
C943 C940 1.526 . S
C943 C944 1.396 . S
C943 C948 1.390 . S
C944 C938 1.465 . S
C944 C943 1.396 . S
C944 C945 1.399 . S
C945 H931 0.929 . S
C945 C944 1.399 . S
C945 C946 1.385 . S
C946 H932 0.931 . S
C946 C945 1.385 . S
C946 C947 1.389 . S
C947 C946 1.389 . S
C947 C948 1.387 . S
C948 H933 0.930 . S
C948 C943 1.390 . S
C948 C947 1.387 . S
H949 C961 0.930 . S
H950 C963 0.930 . S
H951 C964 0.930 . S
H952 C968 0.959 . S
H953 C968 0.959 . S
H954 C968 0.961 . S
H955 C969 0.960 . S
H956 C969 0.961 . S
H957 C969 0.959 . S
H958 C972 0.929 . S
H959 C973 0.931 . S
H960 C975 0.930 . S
C961 H949 0.930 . S
C961 C962 1.399 . S
C961 C966 1.399 . S
C962 C961 1.399 . S
C962 C963 1.376 . S
C963 H950 0.930 . S
C963 C962 1.376 . S
C963 C964 1.388 . S
C964 H951 0.930 . S
C964 C963 1.388 . S
C964 C965 1.390 . S
C965 C964 1.390 . S
C965 C966 1.394 . S
C965 C971 1.465 . S
C966 C961 1.399 . S
C966 C965 1.394 . S
C966 C967 1.516 . S
C967 C966 1.516 . S
C967 C968 1.502 . S
C967 C969 1.561 . S
C967 C970 1.526 . S
C968 H952 0.959 . S
C968 H953 0.959 . S
C968 H954 0.961 . S
C968 C967 1.502 . S
C969 H955 0.960 . S
C969 H956 0.961 . S
C969 H957 0.959 . S
C969 C967 1.561 . S
C970 C967 1.526 . S
C970 C971 1.396 . S
C970 C975 1.390 . S
C971 C965 1.465 . S
C971 C970 1.396 . S
C971 C972 1.399 . S
C972 H958 0.929 . S
C972 C971 1.399 . S
C972 C973 1.385 . S
C973 H959 0.931 . S
C973 C972 1.385 . S
C973 C974 1.389 . S
C974 C973 1.389 . S
C974 C975 1.387 . S
C975 H960 0.930 . S
C975 C970 1.390 . S
C975 C974 1.387 . S
H976 C988 0.930 . S
H977 C990 0.930 . S
H978 C991 0.930 . S
H979 C995 0.959 1_455 S
H980 C995 0.959 . S
H981 C995 0.961 . S
H982 C996 0.960 . S
H983 C996 0.961 . S
H984 C996 1.020 . S
H985 C999 0.923 1_455 S
H986 C1000 0.931 . S
H987 C1002 0.930 . S
C988 H976 0.930 . S
C988 C989 1.399 1_556 S
C988 C993 1.399 . S
C989 C988 1.399 1_554 S
C989 C990 1.376 . S
C990 H977 0.930 . S
C990 C989 1.376 . S
C990 C991 1.388 . S
C991 H978 0.930 . S
C991 C990 1.388 . S
C991 C992 1.390 . S
C992 C991 1.390 . S
C992 C993 1.394 1_554 S
C992 C998 1.465 1_455 S
C993 C988 1.399 . S
C993 C992 1.394 1_556 S
C993 C994 1.516 1_455 S
C994 C993 1.516 1_655 S
C994 C995 1.502 . S
C994 C996 1.561 . S
C994 C997 1.526 . S
C995 H979 0.959 1_655 S
C995 H980 0.959 . S
C995 H981 0.961 . S
C995 C994 1.502 . S
C996 H982 0.960 . S
C996 H983 0.961 . S
C996 H984 1.020 . S
C996 C994 1.561 . S
C997 C994 1.526 . S
C997 C998 1.396 1_556 S
C997 C1002 1.390 . S
C998 C992 1.465 1_655 S
C998 C997 1.396 1_554 S
C998 C999 1.399 . S
C999 H985 0.923 1_655 S
C999 C998 1.399 . S
C999 C1000 1.385 . S
C1000 H986 0.931 . S
C1000 C999 1.385 . S
C1000 C1001 1.389 . S
C1001 C1000 1.389 . S
C1001 C1002 1.387 1_554 S
C1002 H987 0.930 . S
C1002 C997 1.390 . S
C1002 C1001 1.387 1_556 S
H1003 C1015 0.930 . S
H1004 C1017 0.930 . S
H1005 C1018 0.930 . S
H1006 C1022 0.959 . S
H1007 C1022 0.959 . S
H1008 C1022 0.961 . S
H1009 C1023 0.960 . S
H1010 C1023 0.961 . S
H1011 C1023 0.959 . S
H1012 C1026 0.929 . S
H1013 C1027 0.931 . S
H1014 C1029 0.930 . S
C1015 H1003 0.930 . S
C1015 C1016 1.399 . S
C1015 C1020 1.399 . S
C1016 C1015 1.399 . S
C1016 C1017 1.376 . S
C1017 H1004 0.930 . S
C1017 C1016 1.376 . S
C1017 C1018 1.388 . S
C1018 H1005 0.930 . S
C1018 C1017 1.388 . S
C1018 C1019 1.390 . S
C1019 C1018 1.390 . S
C1019 C1020 1.394 . S
C1019 C1025 1.465 . S
C1020 C1015 1.399 . S
C1020 C1019 1.394 . S
C1020 C1021 1.516 . S
C1021 C1020 1.516 . S
C1021 C1022 1.502 . S
C1021 C1023 1.561 . S
C1021 C1024 1.526 . S
C1022 H1006 0.959 . S
C1022 H1007 0.959 . S
C1022 H1008 0.961 . S
C1022 C1021 1.502 . S
C1023 H1009 0.960 . S
C1023 H1010 0.961 . S
C1023 H1011 0.959 . S
C1023 C1021 1.561 . S
C1024 C1021 1.526 . S
C1024 C1025 1.396 . S
C1024 C1029 1.390 . S
C1025 C1019 1.465 . S
C1025 C1024 1.396 . S
C1025 C1026 1.399 . S
C1026 H1012 0.929 . S
C1026 C1025 1.399 . S
C1026 C1027 1.385 . S
C1027 H1013 0.931 . S
C1027 C1026 1.385 . S
C1027 C1028 1.389 . S
C1028 C1027 1.389 . S
C1028 C1029 1.387 . S
C1029 H1014 0.930 . S
C1029 C1024 1.390 . S
C1029 C1028 1.387 . S
H1030 C1042 0.930 . S
H1031 C1044 0.930 . S
H1032 C1045 0.930 . S
H1033 C1049 0.959 . S
H1034 C1049 0.959 . S
H1035 C1049 0.961 . S
H1036 C1050 0.960 . S
H1037 C1050 0.961 1_545 S
H1038 C1050 0.959 . S
H1039 C1053 0.929 . S
H1040 C1054 0.931 . S
H1041 C1056 0.930 . S
C1042 H1030 0.930 . S
C1042 C1043 1.399 . S
C1042 C1047 1.399 . S
C1043 C1042 1.399 . S
C1043 C1044 1.376 . S
C1044 H1031 0.930 . S
C1044 C1043 1.376 . S
C1044 C1045 1.388 . S
C1045 H1032 0.930 . S
C1045 C1044 1.388 . S
C1045 C1046 1.390 . S
C1046 C1045 1.390 . S
C1046 C1047 1.394 . S
C1046 C1052 1.465 1_565 S
C1047 C1042 1.399 . S
C1047 C1046 1.394 . S
C1047 C1048 1.516 1_565 S
C1048 C1047 1.516 1_545 S
C1048 C1049 1.502 . S
C1048 C1050 1.561 1_545 S
C1048 C1051 1.526 . S
C1049 H1033 0.959 . S
C1049 H1034 0.959 . S
C1049 H1035 0.961 . S
C1049 C1048 1.502 . S
C1050 H1036 0.960 . S
C1050 H1037 0.961 1_565 S
C1050 H1038 0.959 . S
C1050 C1048 1.561 1_565 S
C1051 C1048 1.526 . S
C1051 C1052 1.396 . S
C1051 C1056 1.390 . S
C1052 C1046 1.465 1_545 S
C1052 C1051 1.396 . S
C1052 C1053 1.399 . S
C1053 H1039 0.929 . S
C1053 C1052 1.399 . S
C1053 C1054 1.385 . S
C1054 H1040 0.931 . S
C1054 C1053 1.385 . S
C1054 C1055 1.389 . S
C1055 C1054 1.389 . S
C1055 C1056 1.387 . S
C1056 H1041 0.930 . S
C1056 C1051 1.390 . S
C1056 C1055 1.387 . S
H1057 C1069 0.930 . S
H1058 C1071 0.930 . S
H1059 C1072 0.930 1_655 S
H1060 C1076 0.959 . S
H1061 C1076 0.959 . S
H1062 C1076 0.961 . S
H1063 C1077 0.960 1_545 S
H1064 C1077 0.961 1_655 S
H1065 C1077 0.959 1_645 S
H1066 C1080 0.929 1_545 S
H1067 C1081 0.931 . S
H1068 C1083 0.930 . S
C1069 H1057 0.930 . S
C1069 C1070 1.399 . S
C1069 C1074 1.399 . S
C1070 C1069 1.399 . S
C1070 C1071 1.376 . S
C1071 H1058 0.930 . S
C1071 C1070 1.376 . S
C1071 C1072 1.388 . S
C1072 H1059 0.930 1_455 S
C1072 C1071 1.388 . S
C1072 C1073 1.390 . S
C1073 C1072 1.390 . S
C1073 C1074 1.394 . S
C1073 C1079 1.465 1_445 S
C1074 C1069 1.399 . S
C1074 C1073 1.394 . S
C1074 C1075 1.516 1_545 S
C1075 C1074 1.516 1_565 S
C1075 C1076 1.502 . S
C1075 C1077 1.561 . S
C1075 C1078 1.526 1_455 S
C1076 H1060 0.959 . S
C1076 H1061 0.959 . S
C1076 H1062 0.961 . S
C1076 C1075 1.502 . S
C1077 H1063 0.960 1_565 S
C1077 H1064 0.961 1_455 S
C1077 H1065 0.959 1_465 S
C1077 C1075 1.561 . S
C1078 C1075 1.526 1_655 S
C1078 C1079 1.396 . S
C1078 C1083 1.390 . S
C1079 C1073 1.465 1_665 S
C1079 C1078 1.396 . S
C1079 C1080 1.399 . S
C1080 H1066 0.929 1_565 S
C1080 C1079 1.399 . S
C1080 C1081 1.385 . S
C1081 H1067 0.931 . S
C1081 C1080 1.385 . S
C1081 C1082 1.389 . S
C1082 C1081 1.389 . S
C1082 C1083 1.387 . S
C1083 H1068 0.930 . S
C1083 C1078 1.390 . S
C1083 C1082 1.387 . S
H1084 C1096 0.930 . S
H1085 C1098 0.930 . S
H1086 C1099 0.930 . S
H1087 C1103 0.959 . S
H1088 C1103 0.959 . S
H1089 C1103 0.961 . S
H1090 C1104 0.960 . S
H1091 C1104 0.961 . S
H1092 C1104 0.959 . S
H1093 C1107 0.929 . S
H1094 C1108 0.931 . S
H1095 C1110 0.930 . S
C1096 H1084 0.930 . S
C1096 C1097 1.399 . S
C1096 C1101 1.399 . S
C1097 C1096 1.399 . S
C1097 C1098 1.376 . S
C1098 H1085 0.930 . S
C1098 C1097 1.376 . S
C1098 C1099 1.388 . S
C1099 H1086 0.930 . S
C1099 C1098 1.388 . S
C1099 C1100 1.390 . S
C1100 C1099 1.390 . S
C1100 C1101 1.394 . S
C1100 C1106 1.465 1_655 S
C1101 C1096 1.399 . S
C1101 C1100 1.394 . S
C1101 C1102 1.516 . S
C1102 C1101 1.516 . S
C1102 C1103 1.502 . S
C1102 C1104 1.561 1_655 S
C1102 C1105 1.526 1_655 S
C1103 H1087 0.959 . S
C1103 H1088 0.959 . S
C1103 H1089 0.961 . S
C1103 C1102 1.502 . S
C1104 H1090 0.960 . S
C1104 H1091 0.961 . S
C1104 H1092 0.959 . S
C1104 C1102 1.561 1_455 S
C1105 C1102 1.526 1_455 S
C1105 C1106 1.396 . S
C1105 C1110 1.390 . S
C1106 C1100 1.465 1_455 S
C1106 C1105 1.396 . S
C1106 C1107 1.399 . S
C1107 H1093 0.929 . S
C1107 C1106 1.399 . S
C1107 C1108 1.385 . S
C1108 H1094 0.931 . S
C1108 C1107 1.385 . S
C1108 C1109 1.389 . S
C1109 C1108 1.389 . S
C1109 C1110 1.387 . S
C1110 H1095 0.930 . S
C1110 C1105 1.390 . S
C1110 C1109 1.387 . S
H1111 C1123 0.930 . S
H1112 C1125 0.930 . S
H1113 C1126 0.930 . S
H1114 C1130 0.959 . S
H1115 C1130 0.959 . S
H1116 C1130 0.961 . S
H1117 C1131 0.960 . S
H1118 C1131 0.961 . S
H1119 C1131 0.959 . S
H1120 C1134 0.929 . S
H1121 C1135 0.931 . S
H1122 C1137 0.930 . S
C1123 H1111 0.930 . S
C1123 C1124 1.399 . S
C1123 C1128 1.399 . S
C1124 C1123 1.399 . S
C1124 C1125 1.376 . S
C1125 H1112 0.930 . S
C1125 C1124 1.376 . S
C1125 C1126 1.388 . S
C1126 H1113 0.930 . S
C1126 C1125 1.388 . S
C1126 C1127 1.390 . S
C1127 C1126 1.390 . S
C1127 C1128 1.394 . S
C1127 C1133 1.465 . S
C1128 C1123 1.399 . S
C1128 C1127 1.394 . S
C1128 C1129 1.516 . S
C1129 C1128 1.516 . S
C1129 C1130 1.502 . S
C1129 C1131 1.561 . S
C1129 C1132 1.526 . S
C1130 H1114 0.959 . S
C1130 H1115 0.959 . S
C1130 H1116 0.961 . S
C1130 C1129 1.502 . S
C1131 H1117 0.960 . S
C1131 H1118 0.961 . S
C1131 H1119 0.959 . S
C1131 C1129 1.561 . S
C1132 C1129 1.526 . S
C1132 C1133 1.396 . S
C1132 C1137 1.390 . S
C1133 C1127 1.465 . S
C1133 C1132 1.396 . S
C1133 C1134 1.399 . S
C1134 H1120 0.929 . S
C1134 C1133 1.399 . S
C1134 C1135 1.385 . S
C1135 H1121 0.931 . S
C1135 C1134 1.385 . S
C1135 C1136 1.389 . S
C1136 C1135 1.389 . S
C1136 C1137 1.387 . S
C1137 H1122 0.930 . S
C1137 C1132 1.390 . S
C1137 C1136 1.387 . S
H1138 C1150 0.930 . S
H1139 C1152 0.930 . S
H1140 C1153 0.930 . S
H1141 C1157 0.959 . S
H1142 C1157 0.959 . S
H1143 C1157 0.961 . S
H1144 C1158 0.960 1_545 S
H1145 C1158 0.961 . S
H1146 C1158 0.959 . S
H1147 C1161 0.929 . S
H1148 C1162 0.931 . S
H1149 C1164 0.930 . S
C1150 H1138 0.930 . S
C1150 C1151 1.399 1_556 S
C1150 C1155 1.399 . S
C1151 C1150 1.399 1_554 S
C1151 C1152 1.376 . S
C1152 H1139 0.930 . S
C1152 C1151 1.376 . S
C1152 C1153 1.388 . S
C1153 H1140 0.930 . S
C1153 C1152 1.388 . S
C1153 C1154 1.390 . S
C1154 C1153 1.390 . S
C1154 C1155 1.394 1_554 S
C1154 C1160 1.465 1_545 S
C1155 C1150 1.399 . S
C1155 C1154 1.394 1_556 S
C1155 C1156 1.516 . S
C1156 C1155 1.516 . S
C1156 C1157 1.502 . S
C1156 C1158 1.561 1_545 S
C1156 C1159 1.526 1_545 S
C1157 H1141 0.959 . S
C1157 H1142 0.959 . S
C1157 H1143 0.961 . S
C1157 C1156 1.502 . S
C1158 H1144 0.960 1_565 S
C1158 H1145 0.961 . S
C1158 H1146 0.959 . S
C1158 C1156 1.561 1_565 S
C1159 C1156 1.526 1_565 S
C1159 C1160 1.396 1_556 S
C1159 C1164 1.390 . S
C1160 C1154 1.465 1_565 S
C1160 C1159 1.396 1_554 S
C1160 C1161 1.399 . S
C1161 H1147 0.929 . S
C1161 C1160 1.399 . S
C1161 C1162 1.385 . S
C1162 H1148 0.931 . S
C1162 C1161 1.385 . S
C1162 C1163 1.389 . S
C1163 C1162 1.389 . S
C1163 C1164 1.387 1_554 S
C1164 H1149 0.930 . S
C1164 C1159 1.390 . S
C1164 C1163 1.387 1_556 S
H1165 C1177 0.930 . S
H1166 C1179 0.930 . S
H1167 C1180 0.930 . S
H1168 C1184 0.959 . S
H1169 C1184 0.959 . S
H1170 C1184 0.961 . S
H1171 C1185 0.960 . S
H1172 C1185 0.961 . S
H1173 C1185 0.959 . S
H1174 C1188 0.929 1_455 S
H1175 C1189 0.931 . S
H1176 C1191 0.930 . S
C1177 H1165 0.930 . S
C1177 C1178 1.399 . S
C1177 C1182 1.399 . S
C1178 C1177 1.399 . S
C1178 C1179 1.376 . S
C1179 H1166 0.930 . S
C1179 C1178 1.376 . S
C1179 C1180 1.388 1_565 S
C1180 H1167 0.930 . S
C1180 C1179 1.388 1_545 S
C1180 C1181 1.390 . S
C1181 C1180 1.390 . S
C1181 C1182 1.394 1_545 S
C1181 C1187 1.465 1_455 S
C1182 C1177 1.399 . S
C1182 C1181 1.394 1_565 S
C1182 C1183 1.516 1_455 S
C1183 C1182 1.516 1_655 S
C1183 C1184 1.502 . S
C1183 C1185 1.561 . S
C1183 C1186 1.526 1_565 S
C1184 H1168 0.959 . S
C1184 H1169 0.959 . S
C1184 H1170 0.961 . S
C1184 C1183 1.502 . S
C1185 H1171 0.960 . S
C1185 H1172 0.961 . S
C1185 H1173 0.959 . S
C1185 C1183 1.561 . S
C1186 C1183 1.526 1_545 S
C1186 C1187 1.396 . S
C1186 C1191 1.390 . S
C1187 C1181 1.465 1_655 S
C1187 C1186 1.396 . S
C1187 C1188 1.399 . S
C1188 H1174 0.929 1_655 S
C1188 C1187 1.399 . S
C1188 C1189 1.385 . S
C1189 H1175 0.931 . S
C1189 C1188 1.385 . S
C1189 C1190 1.389 . S
C1190 C1189 1.389 . S
C1190 C1191 1.387 . S
C1191 H1176 0.930 . S
C1191 C1186 1.390 . S
C1191 C1190 1.387 . S
H1192 C1204 0.930 . S
H1193 C1206 0.930 . S
H1194 C1207 0.930 . S
H1195 C1211 0.959 . S
H1196 C1211 0.959 . S
H1197 C1211 0.961 . S
H1198 C1212 0.960 . S
H1199 C1212 0.961 . S
H1200 C1212 0.959 . S
H1201 C1215 0.929 . S
H1202 C1216 0.931 . S
H1203 C1218 0.932 . S
C1204 H1192 0.930 . S
C1204 C1205 1.399 . S
C1204 C1209 1.399 . S
C1205 C1204 1.399 . S
C1205 C1206 1.376 . S
C1206 H1193 0.930 . S
C1206 C1205 1.376 . S
C1206 C1207 1.388 . S
C1207 H1194 0.930 . S
C1207 C1206 1.388 . S
C1207 C1208 1.390 . S
C1208 C1207 1.390 . S
C1208 C1209 1.394 . S
C1208 C1214 1.465 . S
C1209 C1204 1.399 . S
C1209 C1208 1.394 . S
C1209 C1210 1.516 . S
C1210 C1209 1.516 . S
C1210 C1211 1.502 1_554 S
C1210 C1212 1.561 . S
C1210 C1213 1.526 . S
C1211 H1195 0.959 . S
C1211 H1196 0.959 . S
C1211 H1197 0.961 . S
C1211 C1210 1.502 1_556 S
C1212 H1198 0.960 . S
C1212 H1199 0.961 . S
C1212 H1200 0.959 . S
C1212 C1210 1.561 . S
C1213 C1210 1.526 . S
C1213 C1214 1.396 . S
C1213 C1218 1.390 . S
C1214 C1208 1.465 . S
C1214 C1213 1.396 . S
C1214 C1215 1.399 . S
C1215 H1201 0.929 . S
C1215 C1214 1.399 . S
C1215 C1216 1.385 . S
C1216 H1202 0.931 . S
C1216 C1215 1.385 . S
C1216 C1217 1.389 . S
C1217 C1216 1.389 . S
C1217 C1218 1.387 . S
C1218 H1203 0.932 . S
C1218 C1213 1.390 . S
C1218 C1217 1.387 . S
H1219 C1231 0.930 . S
H1220 C1233 0.930 . S
H1221 C1234 0.930 . S
H1222 C1238 0.959 . S
H1223 C1238 0.959 . S
H1224 C1238 0.961 . S
H1225 C1239 0.960 . S
H1226 C1239 0.961 . S
H1227 C1239 0.959 . S
H1228 C1242 0.929 . S
H1229 C1243 0.931 . S
H1230 C1245 0.930 1_545 S
C1231 H1219 0.930 . S
C1231 C1232 1.399 . S
C1231 C1236 1.399 . S
C1232 C1231 1.399 . S
C1232 C1233 1.376 . S
C1233 H1220 0.930 . S
C1233 C1232 1.376 . S
C1233 C1234 1.388 . S
C1234 H1221 0.930 . S
C1234 C1233 1.388 . S
C1234 C1235 1.390 . S
C1235 C1234 1.390 . S
C1235 C1236 1.394 . S
C1235 C1241 1.465 . S
C1236 C1231 1.399 . S
C1236 C1235 1.394 . S
C1236 C1237 1.516 . S
C1237 C1236 1.516 . S
C1237 C1238 1.502 . S
C1237 C1239 1.561 . S
C1237 C1240 1.526 . S
C1238 H1222 0.959 . S
C1238 H1223 0.959 . S
C1238 H1224 0.961 . S
C1238 C1237 1.502 . S
C1239 H1225 0.960 . S
C1239 H1226 0.961 . S
C1239 H1227 0.959 . S
C1239 C1237 1.561 . S
C1240 C1237 1.526 . S
C1240 C1241 1.396 . S
C1240 C1245 1.390 . S
C1241 C1235 1.465 . S
C1241 C1240 1.396 . S
C1241 C1242 1.399 . S
C1242 H1228 0.929 . S
C1242 C1241 1.399 . S
C1242 C1243 1.385 1_565 S
C1243 H1229 0.931 . S
C1243 C1242 1.385 1_545 S
C1243 C1244 1.389 . S
C1244 C1243 1.389 . S
C1244 C1245 1.387 1_545 S
C1245 H1230 0.930 1_565 S
C1245 C1240 1.390 . S
C1245 C1244 1.387 1_565 S
H1246 C1258 0.932 . S
H1247 C1260 0.930 . S
H1248 C1261 0.930 . S
H1249 C1265 0.959 . S
H1250 C1265 0.959 . S
H1251 C1265 0.961 . S
H1252 C1266 0.960 . S
H1253 C1266 0.961 . S
H1254 C1266 0.959 . S
H1255 C1269 0.929 . S
H1256 C1270 0.931 . S
H1257 C1272 0.930 . S
C1258 H1246 0.932 . S
C1258 C1259 1.399 1_455 S
C1258 C1263 1.399 . S
C1259 C1258 1.399 1_655 S
C1259 C1260 1.376 . S
C1260 H1247 0.930 . S
C1260 C1259 1.376 . S
C1260 C1261 1.388 1_655 S
C1261 H1248 0.930 . S
C1261 C1260 1.388 1_455 S
C1261 C1262 1.390 . S
C1262 C1261 1.390 . S
C1262 C1263 1.394 . S
C1262 C1268 1.465 . S
C1263 C1258 1.399 . S
C1263 C1262 1.394 . S
C1263 C1264 1.516 . S
C1264 C1263 1.516 . S
C1264 C1265 1.502 . S
C1264 C1266 1.561 . S
C1264 C1267 1.526 . S
C1265 H1249 0.959 . S
C1265 H1250 0.959 . S
C1265 H1251 0.961 . S
C1265 C1264 1.502 . S
C1266 H1252 0.960 . S
C1266 H1253 0.961 . S
C1266 H1254 0.959 . S
C1266 C1264 1.561 . S
C1267 C1264 1.526 . S
C1267 C1268 1.396 . S
C1267 C1272 1.390 . S
C1268 C1262 1.465 . S
C1268 C1267 1.396 . S
C1268 C1269 1.399 . S
C1269 H1255 0.929 . S
C1269 C1268 1.399 . S
C1269 C1270 1.385 . S
C1270 H1256 0.931 . S
C1270 C1269 1.385 . S
C1270 C1271 1.389 . S
C1271 C1270 1.389 . S
C1271 C1272 1.387 . S
C1272 H1257 0.930 . S
C1272 C1267 1.390 . S
C1272 C1271 1.387 . S
H1273 C1285 0.930 . S
H1274 C1287 0.930 . S
H1275 C1288 0.930 . S
H1276 C1292 0.959 . S
H1277 C1292 0.959 . S
H1278 C1292 0.961 . S
H1279 C1293 0.960 . S
H1280 C1293 0.961 . S
H1281 C1293 0.959 . S
H1282 C1296 0.929 . S
H1283 C1297 0.931 . S
H1284 C1299 0.930 . S
C1285 H1273 0.930 . S
C1285 C1286 1.399 . S
C1285 C1290 1.399 . S
C1286 C1285 1.399 . S
C1286 C1287 1.376 . S
C1287 H1274 0.930 . S
C1287 C1286 1.376 . S
C1287 C1288 1.388 . S
C1288 H1275 0.930 . S
C1288 C1287 1.388 . S
C1288 C1289 1.390 . S
C1289 C1288 1.390 . S
C1289 C1290 1.394 . S
C1289 C1295 1.465 . S
C1290 C1285 1.399 . S
C1290 C1289 1.394 . S
C1290 C1291 1.516 . S
C1291 C1290 1.516 . S
C1291 C1292 1.502 . S
C1291 C1293 1.561 . S
C1291 C1294 1.526 . S
C1292 H1276 0.959 . S
C1292 H1277 0.959 . S
C1292 H1278 0.961 . S
C1292 C1291 1.502 . S
C1293 H1279 0.960 . S
C1293 H1280 0.961 . S
C1293 H1281 0.959 . S
C1293 C1291 1.561 . S
C1294 C1291 1.526 . S
C1294 C1295 1.396 . S
C1294 C1299 1.390 . S
C1295 C1289 1.465 . S
C1295 C1294 1.396 . S
C1295 C1296 1.399 . S
C1296 H1282 0.929 . S
C1296 C1295 1.399 . S
C1296 C1297 1.385 . S
C1297 H1283 0.931 . S
C1297 C1296 1.385 . S
C1297 C1298 1.389 . S
C1298 C1297 1.389 . S
C1298 C1299 1.387 . S
C1299 H1284 0.930 . S
C1299 C1294 1.390 . S
C1299 C1298 1.387 . S
H1300 C1312 0.930 . S
H1301 C1314 0.930 . S
H1302 C1315 0.930 . S
H1303 C1319 0.959 . S
H1304 C1319 0.959 . S
H1305 C1319 0.961 . S
H1306 C1320 0.960 . S
H1307 C1320 0.961 . S
H1308 C1320 0.959 . S
H1309 C1323 0.929 . S
H1310 C1324 0.931 . S
H1311 C1326 0.930 . S
C1312 H1300 0.930 . S
C1312 C1313 1.399 . S
C1312 C1317 1.399 . S
C1313 C1312 1.399 . S
C1313 C1314 1.376 . S
C1314 H1301 0.930 . S
C1314 C1313 1.376 . S
C1314 C1315 1.388 . S
C1315 H1302 0.930 . S
C1315 C1314 1.388 . S
C1315 C1316 1.390 . S
C1316 C1315 1.390 . S
C1316 C1317 1.394 . S
C1316 C1322 1.465 . S
C1317 C1312 1.399 . S
C1317 C1316 1.394 . S
C1317 C1318 1.516 . S
C1318 C1317 1.516 . S
C1318 C1319 1.502 . S
C1318 C1320 1.561 . S
C1318 C1321 1.526 . S
C1319 H1303 0.959 . S
C1319 H1304 0.959 . S
C1319 H1305 0.961 . S
C1319 C1318 1.502 . S
C1320 H1306 0.960 . S
C1320 H1307 0.961 . S
C1320 H1308 0.959 . S
C1320 C1318 1.561 . S
C1321 C1318 1.526 . S
C1321 C1322 1.396 . S
C1321 C1326 1.390 . S
C1322 C1316 1.465 . S
C1322 C1321 1.396 . S
C1322 C1323 1.399 . S
C1323 H1309 0.929 . S
C1323 C1322 1.399 . S
C1323 C1324 1.385 . S
C1324 H1310 0.931 . S
C1324 C1323 1.385 . S
C1324 C1325 1.389 . S
C1325 C1324 1.389 . S
C1325 C1326 1.387 . S
C1326 H1311 0.930 . S
C1326 C1321 1.390 . S
C1326 C1325 1.387 . S
H1327 C1339 0.930 . S
H1328 C1341 0.930 . S
H1329 C1342 0.930 . S
H1330 C1346 0.959 . S
H1331 C1346 0.959 . S
H1332 C1346 0.961 . S
H1333 C1347 0.960 . S
H1334 C1347 0.961 . S
H1335 C1347 0.959 . S
H1336 C1350 0.929 . S
H1337 C1351 0.931 . S
H1338 C1353 0.930 1_565 S
C1339 H1327 0.930 . S
C1339 C1340 1.399 . S
C1339 C1344 1.399 . S
C1340 C1339 1.399 . S
C1340 C1341 1.376 . S
C1341 H1328 0.930 . S
C1341 C1340 1.376 . S
C1341 C1342 1.388 . S
C1342 H1329 0.930 . S
C1342 C1341 1.388 . S
C1342 C1343 1.390 . S
C1343 C1342 1.390 . S
C1343 C1344 1.394 . S
C1343 C1349 1.465 . S
C1344 C1339 1.399 . S
C1344 C1343 1.394 . S
C1344 C1345 1.516 . S
C1345 C1344 1.516 . S
C1345 C1346 1.502 . S
C1345 C1347 1.561 . S
C1345 C1348 1.526 . S
C1346 H1330 0.959 . S
C1346 H1331 0.959 . S
C1346 H1332 0.961 . S
C1346 C1345 1.502 . S
C1347 H1333 0.960 . S
C1347 H1334 0.961 . S
C1347 H1335 0.959 . S
C1347 C1345 1.561 . S
C1348 C1345 1.526 . S
C1348 C1349 1.396 . S
C1348 C1353 1.390 . S
C1349 C1343 1.465 . S
C1349 C1348 1.396 . S
C1349 C1350 1.399 . S
C1350 H1336 0.929 . S
C1350 C1349 1.399 . S
C1350 C1351 1.385 1_545 S
C1351 H1337 0.931 . S
C1351 C1350 1.385 1_565 S
C1351 C1352 1.389 . S
C1352 C1351 1.389 . S
C1352 C1353 1.387 1_565 S
C1353 H1338 0.930 1_545 S
C1353 C1348 1.390 . S
C1353 C1352 1.387 1_545 S
H1354 C1366 0.930 1_455 S
H1355 C1368 0.930 . S
H1356 C1369 0.930 . S
H1357 C1373 0.959 . S
H1358 C1373 0.959 . S
H1359 C1373 0.961 . S
H1360 C1374 0.960 . S
H1361 C1374 0.961 . S
H1362 C1374 0.959 1_554 S
H1363 C1377 0.929 . S
H1364 C1378 0.931 . S
H1365 C1380 0.930 . S
C1366 H1354 0.930 1_655 S
C1366 C1367 1.399 1_656 S
C1366 C1371 1.392 1_556 S
C1367 C1366 1.399 1_454 S
C1367 C1368 1.376 . S
C1368 H1355 0.930 . S
C1368 C1367 1.376 . S
C1368 C1369 1.388 1_455 S
C1369 H1356 0.930 . S
C1369 C1368 1.388 1_655 S
C1369 C1370 1.390 . S
C1370 C1369 1.390 . S
C1370 C1371 1.433 . S
C1370 C1376 1.465 . S
C1371 C1366 1.392 1_554 S
C1371 C1370 1.433 . S
C1371 C1372 1.490 1_554 S
C1372 C1371 1.490 1_556 S
C1372 C1373 1.502 . S
C1372 C1374 1.561 . S
C1372 C1375 1.535 . S
C1373 H1357 0.959 . S
C1373 H1358 0.959 . S
C1373 H1359 0.961 . S
C1373 C1372 1.502 . S
C1374 H1360 0.960 . S
C1374 H1361 0.961 . S
C1374 H1362 0.959 1_556 S
C1374 C1372 1.561 . S
C1375 C1372 1.535 . S
C1375 C1376 1.381 1_556 S
C1375 C1380 1.394 . S
C1376 C1370 1.465 . S
C1376 C1375 1.381 1_554 S
C1376 C1377 1.399 . S
C1377 H1363 0.929 . S
C1377 C1376 1.399 . S
C1377 C1378 1.385 . S
C1378 H1364 0.931 . S
C1378 C1377 1.385 . S
C1378 C1379 1.389 . S
C1379 C1378 1.389 . S
C1379 C1380 1.387 1_554 S
C1380 H1365 0.930 . S
C1380 C1375 1.394 . S
C1380 C1379 1.387 1_556 S
H1381 C1393 0.930 . S
H1382 C1395 0.930 . S
H1383 C1396 0.930 . S
H1384 C1400 0.959 . S
H1385 C1400 0.959 . S
H1386 C1400 0.961 . S
H1387 C1401 0.960 . S
H1388 C1401 0.961 . S
H1389 C1401 0.959 . S
H1390 C1404 0.929 . S
H1391 C1405 0.931 . S
H1392 C1407 0.930 . S
C1393 H1381 0.930 . S
C1393 C1394 1.399 . S
C1393 C1398 1.399 . S
C1394 C1393 1.399 . S
C1394 C1395 1.376 . S
C1395 H1382 0.930 . S
C1395 C1394 1.376 . S
C1395 C1396 1.388 . S
C1396 H1383 0.930 . S
C1396 C1395 1.388 . S
C1396 C1397 1.390 . S
C1397 C1396 1.390 . S
C1397 C1398 1.394 . S
C1397 C1403 1.465 . S
C1398 C1393 1.399 . S
C1398 C1397 1.394 . S
C1398 C1399 1.516 . S
C1399 C1398 1.516 . S
C1399 C1400 1.502 . S
C1399 C1401 1.561 . S
C1399 C1402 1.526 . S
C1400 H1384 0.959 . S
C1400 H1385 0.959 . S
C1400 H1386 0.961 . S
C1400 C1399 1.502 . S
C1401 H1387 0.960 . S
C1401 H1388 0.961 . S
C1401 H1389 0.959 . S
C1401 C1399 1.561 . S
C1402 C1399 1.526 . S
C1402 C1403 1.396 . S
C1402 C1407 1.390 . S
C1403 C1397 1.465 . S
C1403 C1402 1.396 . S
C1403 C1404 1.399 . S
C1404 H1390 0.929 . S
C1404 C1403 1.399 . S
C1404 C1405 1.385 . S
C1405 H1391 0.931 . S
C1405 C1404 1.385 . S
C1405 C1406 1.389 . S
C1406 C1405 1.389 . S
C1406 C1407 1.387 . S
C1407 H1392 0.930 . S
C1407 C1402 1.390 . S
C1407 C1406 1.387 . S
H1408 C1420 0.936 . S
H1409 C1422 0.930 . S
H1410 C1423 0.930 . S
H1411 C1427 0.959 . S
H1412 C1427 0.959 . S
H1413 C1427 0.961 . S
H1414 C1428 0.960 . S
H1415 C1428 0.961 . S
H1416 C1428 0.959 . S
H1417 C1431 0.929 . S
H1418 C1432 0.931 . S
H1419 C1434 0.930 . S
C1420 H1408 0.936 . S
C1420 C1421 1.399 1_655 S
C1420 C1425 1.399 . S
C1421 C1420 1.399 1_455 S
C1421 C1422 1.376 . S
C1422 H1409 0.930 . S
C1422 C1421 1.376 . S
C1422 C1423 1.388 1_455 S
C1423 H1410 0.930 . S
C1423 C1422 1.388 1_655 S
C1423 C1424 1.390 . S
C1424 C1423 1.390 . S
C1424 C1425 1.394 . S
C1424 C1430 1.465 . S
C1425 C1420 1.399 . S
C1425 C1424 1.394 . S
C1425 C1426 1.516 . S
C1426 C1425 1.516 . S
C1426 C1427 1.502 . S
C1426 C1428 1.561 . S
C1426 C1429 1.526 . S
C1427 H1411 0.959 . S
C1427 H1412 0.959 . S
C1427 H1413 0.961 . S
C1427 C1426 1.502 . S
C1428 H1414 0.960 . S
C1428 H1415 0.961 . S
C1428 H1416 0.959 . S
C1428 C1426 1.561 . S
C1429 C1426 1.526 . S
C1429 C1430 1.396 . S
C1429 C1434 1.390 . S
C1430 C1424 1.465 . S
C1430 C1429 1.396 . S
C1430 C1431 1.399 . S
C1431 H1417 0.929 . S
C1431 C1430 1.399 . S
C1431 C1432 1.385 . S
C1432 H1418 0.931 . S
C1432 C1431 1.385 . S
C1432 C1433 1.389 . S
C1433 C1432 1.389 . S
C1433 C1434 1.387 . S
C1434 H1419 0.930 . S
C1434 C1429 1.390 . S
C1434 C1433 1.387 . S
H1435 C1447 0.930 . S
H1436 C1449 0.930 . S
H1437 C1450 0.930 . S
H1438 C1454 0.959 . S
H1439 C1454 0.959 . S
H1440 C1454 0.961 . S
H1441 C1455 0.960 . S
H1442 C1455 0.961 . S
H1443 C1455 0.959 . S
H1444 C1458 0.929 . S
H1445 C1459 0.931 . S
H1446 C1461 0.930 . S
C1447 H1435 0.930 . S
C1447 C1448 1.399 . S
C1447 C1452 1.399 . S
C1448 C1447 1.399 . S
C1448 C1449 1.376 . S
C1449 H1436 0.930 . S
C1449 C1448 1.376 . S
C1449 C1450 1.388 . S
C1450 H1437 0.930 . S
C1450 C1449 1.388 . S
C1450 C1451 1.390 . S
C1451 C1450 1.390 . S
C1451 C1452 1.394 . S
C1451 C1457 1.465 . S
C1452 C1447 1.399 . S
C1452 C1451 1.394 . S
C1452 C1453 1.516 . S
C1453 C1452 1.516 . S
C1453 C1454 1.502 . S
C1453 C1455 1.561 . S
C1453 C1456 1.526 . S
C1454 H1438 0.959 . S
C1454 H1439 0.959 . S
C1454 H1440 0.961 . S
C1454 C1453 1.502 . S
C1455 H1441 0.960 . S
C1455 H1442 0.961 . S
C1455 H1443 0.959 . S
C1455 C1453 1.561 . S
C1456 C1453 1.526 . S
C1456 C1457 1.396 . S
C1456 C1461 1.390 . S
C1457 C1451 1.465 . S
C1457 C1456 1.396 . S
C1457 C1458 1.399 . S
C1458 H1444 0.929 . S
C1458 C1457 1.399 . S
C1458 C1459 1.385 . S
C1459 H1445 0.931 . S
C1459 C1458 1.385 . S
C1459 C1460 1.389 . S
C1460 C1459 1.389 . S
C1460 C1461 1.387 . S
C1461 H1446 0.930 . S
C1461 C1456 1.390 . S
C1461 C1460 1.387 . S
H1462 C1474 0.930 . S
H1463 C1476 0.930 . S
H1464 C1477 0.930 . S
H1465 C1481 0.959 . S
H1466 C1481 0.959 . S
H1467 C1481 0.961 . S
H1468 C1482 0.960 . S
H1469 C1482 0.961 . S
H1470 C1482 0.959 . S
H1471 C1485 0.929 . S
H1472 C1486 0.931 . S
H1473 C1488 0.930 . S
C1474 H1462 0.930 . S
C1474 C1475 1.399 1_556 S
C1474 C1479 1.399 . S
C1475 C1474 1.399 1_554 S
C1475 C1476 1.376 . S
C1476 H1463 0.930 . S
C1476 C1475 1.376 . S
C1476 C1477 1.388 . S
C1477 H1464 0.930 . S
C1477 C1476 1.388 . S
C1477 C1478 1.390 . S
C1478 C1477 1.390 . S
C1478 C1479 1.394 1_554 S
C1478 C1484 1.465 . S
C1479 C1474 1.399 . S
C1479 C1478 1.394 1_556 S
C1479 C1480 1.516 . S
C1480 C1479 1.516 . S
C1480 C1481 1.502 . S
C1480 C1482 1.561 . S
C1480 C1483 1.520 1_556 S
C1481 H1465 0.959 . S
C1481 H1466 0.959 . S
C1481 H1467 0.961 . S
C1481 C1480 1.502 . S
C1482 H1468 0.960 . S
C1482 H1469 0.961 . S
C1482 H1470 0.959 . S
C1482 C1480 1.561 . S
C1483 C1480 1.520 1_554 S
C1483 C1484 1.404 . S
C1483 C1488 1.388 1_554 S
C1484 C1478 1.465 . S
C1484 C1483 1.404 . S
C1484 C1485 1.399 . S
C1485 H1471 0.929 . S
C1485 C1484 1.399 . S
C1485 C1486 1.385 . S
C1486 H1472 0.931 . S
C1486 C1485 1.385 . S
C1486 C1487 1.389 . S
C1487 C1486 1.389 . S
C1487 C1488 1.387 1_554 S
C1488 H1473 0.930 . S
C1488 C1483 1.388 1_556 S
C1488 C1487 1.387 1_556 S
H1489 C1501 0.930 . S
H1490 C1503 0.930 . S
H1491 C1504 0.930 . S
H1492 C1508 0.959 . S
H1493 C1508 0.959 . S
H1494 C1508 0.961 . S
H1495 C1509 0.960 . S
H1496 C1509 0.961 . S
H1497 C1509 0.959 . S
H1498 C1512 0.929 . S
H1499 C1513 0.931 . S
H1500 C1515 0.930 1_565 S
C1501 H1489 0.930 . S
C1501 C1502 1.399 . S
C1501 C1506 1.399 . S
C1502 C1501 1.399 . S
C1502 C1503 1.376 . S
C1503 H1490 0.930 . S
C1503 C1502 1.376 . S
C1503 C1504 1.388 . S
C1504 H1491 0.930 . S
C1504 C1503 1.388 . S
C1504 C1505 1.390 . S
C1505 C1504 1.390 . S
C1505 C1506 1.394 . S
C1505 C1511 1.465 . S
C1506 C1501 1.399 . S
C1506 C1505 1.394 . S
C1506 C1507 1.516 . S
C1507 C1506 1.516 . S
C1507 C1508 1.502 . S
C1507 C1509 1.561 . S
C1507 C1510 1.526 . S
C1508 H1492 0.959 . S
C1508 H1493 0.959 . S
C1508 H1494 0.961 . S
C1508 C1507 1.502 . S
C1509 H1495 0.960 . S
C1509 H1496 0.961 . S
C1509 H1497 0.959 . S
C1509 C1507 1.561 . S
C1510 C1507 1.526 . S
C1510 C1511 1.396 . S
C1510 C1515 1.390 . S
C1511 C1505 1.465 . S
C1511 C1510 1.396 . S
C1511 C1512 1.399 . S
C1512 H1498 0.929 . S
C1512 C1511 1.399 . S
C1512 C1513 1.385 1_545 S
C1513 H1499 0.931 . S
C1513 C1512 1.385 1_565 S
C1513 C1514 1.389 . S
C1514 C1513 1.389 . S
C1514 C1515 1.387 1_565 S
C1515 H1500 0.930 1_545 S
C1515 C1510 1.390 . S
C1515 C1514 1.387 1_545 S
H1516 C1528 0.930 1_655 S
H1517 C1530 0.930 . S
H1518 C1531 0.930 . S
H1519 C1535 0.959 . S
H1520 C1535 0.959 . S
H1521 C1535 0.961 . S
H1522 C1536 0.960 . S
H1523 C1536 0.961 . S
H1524 C1536 0.959 . S
H1525 C1539 0.929 . S
H1526 C1540 0.931 . S
H1527 C1542 0.930 . S
C1528 H1516 0.930 1_455 S
C1528 C1529 1.399 1_456 S
C1528 C1533 1.406 . S
C1529 C1528 1.399 1_654 S
C1529 C1530 1.376 . S
C1530 H1517 0.930 . S
C1530 C1529 1.376 . S
C1530 C1531 1.388 1_655 S
C1531 H1518 0.930 . S
C1531 C1530 1.388 1_455 S
C1531 C1532 1.390 . S
C1532 C1531 1.390 . S
C1532 C1533 1.355 1_554 S
C1532 C1538 1.465 . S
C1533 C1528 1.406 . S
C1533 C1532 1.355 1_556 S
C1533 C1534 1.546 . S
C1534 C1533 1.546 . S
C1534 C1535 1.502 . S
C1534 C1536 1.561 . S
C1534 C1537 1.526 . S
C1535 H1519 0.959 . S
C1535 H1520 0.959 . S
C1535 H1521 0.961 . S
C1535 C1534 1.502 . S
C1536 H1522 0.960 . S
C1536 H1523 0.961 . S
C1536 H1524 0.959 . S
C1536 C1534 1.561 . S
C1537 C1534 1.526 . S
C1537 C1538 1.396 1_556 S
C1537 C1542 1.390 . S
C1538 C1532 1.465 . S
C1538 C1537 1.396 1_554 S
C1538 C1539 1.399 . S
C1539 H1525 0.929 . S
C1539 C1538 1.399 . S
C1539 C1540 1.385 . S
C1540 H1526 0.931 . S
C1540 C1539 1.385 . S
C1540 C1541 1.389 . S
C1541 C1540 1.389 . S
C1541 C1542 1.387 1_554 S
C1542 H1527 0.930 . S
C1542 C1537 1.390 . S
C1542 C1541 1.387 1_556 S
H1543 C1555 0.930 . S
H1544 C1557 0.930 . S
H1545 C1558 0.930 . S
H1546 C1562 0.959 . S
H1547 C1562 0.959 . S
H1548 C1562 0.961 . S
H1549 C1563 0.960 . S
H1550 C1563 0.961 . S
H1551 C1563 0.959 . S
H1552 C1566 0.929 . S
H1553 C1567 0.931 . S
H1554 C1569 0.930 . S
C1555 H1543 0.930 . S
C1555 C1556 1.399 . S
C1555 C1560 1.399 . S
C1556 C1555 1.399 . S
C1556 C1557 1.376 . S
C1557 H1544 0.930 . S
C1557 C1556 1.376 . S
C1557 C1558 1.388 . S
C1558 H1545 0.930 . S
C1558 C1557 1.388 . S
C1558 C1559 1.390 . S
C1559 C1558 1.390 . S
C1559 C1560 1.394 . S
C1559 C1565 1.465 . S
C1560 C1555 1.399 . S
C1560 C1559 1.394 . S
C1560 C1561 1.516 . S
C1561 C1560 1.516 . S
C1561 C1562 1.502 . S
C1561 C1563 1.561 . S
C1561 C1564 1.526 . S
C1562 H1546 0.959 . S
C1562 H1547 0.959 . S
C1562 H1548 0.961 . S
C1562 C1561 1.502 . S
C1563 H1549 0.960 . S
C1563 H1550 0.961 . S
C1563 H1551 0.959 . S
C1563 C1561 1.561 . S
C1564 C1561 1.526 . S
C1564 C1565 1.396 . S
C1564 C1569 1.390 . S
C1565 C1559 1.465 . S
C1565 C1564 1.396 . S
C1565 C1566 1.399 . S
C1566 H1552 0.929 . S
C1566 C1565 1.399 . S
C1566 C1567 1.385 . S
C1567 H1553 0.931 . S
C1567 C1566 1.385 . S
C1567 C1568 1.389 . S
C1568 C1567 1.389 . S
C1568 C1569 1.387 . S
C1569 H1554 0.930 . S
C1569 C1564 1.390 . S
C1569 C1568 1.387 . S
H1570 C1582 0.930 . S
H1571 C1584 0.930 . S
H1572 C1585 0.930 . S
H1573 C1589 0.959 . S
H1574 C1589 0.959 . S
H1575 C1589 0.961 . S
H1576 C1590 0.960 . S
H1577 C1590 0.961 . S
H1578 C1590 0.959 . S
H1579 C1593 0.929 . S
H1580 C1594 0.931 . S
H1581 C1596 0.930 . S
C1582 H1570 0.930 . S
C1582 C1583 1.399 . S
C1582 C1587 1.399 . S
C1583 C1582 1.399 . S
C1583 C1584 1.376 . S
C1584 H1571 0.930 . S
C1584 C1583 1.376 . S
C1584 C1585 1.388 . S
C1585 H1572 0.930 . S
C1585 C1584 1.388 . S
C1585 C1586 1.390 . S
C1586 C1585 1.390 . S
C1586 C1587 1.394 . S
C1586 C1592 1.465 . S
C1587 C1582 1.399 . S
C1587 C1586 1.394 . S
C1587 C1588 1.516 . S
C1588 C1587 1.516 . S
C1588 C1589 1.502 . S
C1588 C1590 1.561 . S
C1588 C1591 1.526 . S
C1589 H1573 0.959 . S
C1589 H1574 0.959 . S
C1589 H1575 0.961 . S
C1589 C1588 1.502 . S
C1590 H1576 0.960 . S
C1590 H1577 0.961 . S
C1590 H1578 0.959 . S
C1590 C1588 1.561 . S
C1591 C1588 1.526 . S
C1591 C1592 1.396 . S
C1591 C1596 1.390 . S
C1592 C1586 1.465 . S
C1592 C1591 1.396 . S
C1592 C1593 1.399 . S
C1593 H1579 0.929 . S
C1593 C1592 1.399 . S
C1593 C1594 1.385 . S
C1594 H1580 0.931 . S
C1594 C1593 1.385 . S
C1594 C1595 1.389 . S
C1595 C1594 1.389 . S
C1595 C1596 1.387 . S
C1596 H1581 0.930 . S
C1596 C1591 1.390 . S
C1596 C1595 1.387 . S
H1597 C1609 0.930 1_545 S
H1598 C1611 0.930 . S
H1599 C1612 0.930 . S
H1600 C1616 0.959 . S
H1601 C1616 0.959 . S
H1602 C1616 0.961 . S
H1603 C1617 0.960 . S
H1604 C1617 0.961 . S
H1605 C1617 0.959 . S
H1606 C1620 0.929 . S
H1607 C1621 0.931 . S
H1608 C1623 0.930 . S
C1609 H1597 0.930 1_565 S
C1609 C1610 1.399 1_565 S
C1609 C1614 1.399 . S
C1610 C1609 1.399 1_545 S
C1610 C1611 1.376 . S
C1611 H1598 0.930 . S
C1611 C1610 1.376 . S
C1611 C1612 1.388 1_545 S
C1612 H1599 0.930 . S
C1612 C1611 1.388 1_565 S
C1612 C1613 1.390 . S
C1613 C1612 1.390 . S
C1613 C1614 1.394 . S
C1613 C1619 1.465 . S
C1614 C1609 1.399 . S
C1614 C1613 1.394 . S
C1614 C1615 1.516 . S
C1615 C1614 1.516 . S
C1615 C1616 1.502 . S
C1615 C1617 1.561 . S
C1615 C1618 1.526 . S
C1616 H1600 0.959 . S
C1616 H1601 0.959 . S
C1616 H1602 0.961 . S
C1616 C1615 1.502 . S
C1617 H1603 0.960 . S
C1617 H1604 0.961 . S
C1617 H1605 0.959 . S
C1617 C1615 1.561 . S
C1618 C1615 1.526 . S
C1618 C1619 1.396 . S
C1618 C1623 1.390 . S
C1619 C1613 1.465 . S
C1619 C1618 1.396 . S
C1619 C1620 1.399 . S
C1620 H1606 0.929 . S
C1620 C1619 1.399 . S
C1620 C1621 1.385 . S
C1621 H1607 0.931 . S
C1621 C1620 1.385 . S
C1621 C1622 1.389 . S
C1622 C1621 1.389 . S
C1622 C1623 1.387 . S
C1623 H1608 0.930 . S
C1623 C1618 1.390 . S
C1623 C1622 1.387 . S
C557 C9 1.626 . S
C569 C311 1.687 . S
C584 C43 1.596 . S
C596 C345 1.661 . S
C611 C379 1.661 . S
C623 C77 1.563 . S
C638 C277 1.668 . S
C650 C111 1.619 . S
C665 C145 1.642 . S
C677 C243 1.688 . S
C692 C141 1.684 . S
C704 C179 1.635 . S
C719 C213 1.642 . S
C731 C175 1.687 . S
C746 C247 1.569 . S
C758 C209 1.660 . S
C773 C39 1.661 . S
C785 C281 1.563 . S
C800 C73 1.657 . S
C812 C315 1.583 . S
C827 C349 1.591 . S
C839 C107 1.678 . S
C854 C383 1.562 . S
C866 C5 1.661 . S
C881 C515 1.662 . S
C893 C417 1.580 . S
C908 C413 1.687 . S
C920 C451 1.641 . S
C935 C485 1.563 . S
C947 C447 1.658 . S
C962 C519 1.605 . S
C974 C481 1.672 . S
C989 C33 1.300 . S
C1001 C373 1.284 . S
C1016 C407 1.318 . S
C1028 C67 1.278 . S
C1043 C305 1.275 . S
C1055 C101 1.310 . S
C1070 C339 1.324 . S
C1082 C135 1.270 . S
C1097 C169 1.271 . S
C1109 C509 1.307 . S
C1124 C203 1.284 . S
C1136 C543 1.293 . S
C1151 C237 1.322 . S
C1163 C441 1.279 . S
C1178 C475 1.263 . S
C1190 C271 1.329 . S
C1205 C206 1.005 . S
C1217 C20 0.961 . S
C1232 C54 0.962 . S
C1244 C240 1.010 . S
C1259 C138 0.903 . S
C1271 C88 0.995 . S
C1286 C172 0.917 . S
C1298 C122 0.980 . S
C1313 C156 0.976 . S
C1325 C70 0.959 . S
C1340 C190 0.985 . S
C1352 C104 0.933 . S
C1367 C2 0.959 . S
C1379 C224 0.976 . S
C1394 C258 0.986 . S
C1406 C36 0.931 . S
C1421 C478 0.964 . S
C1433 C292 0.991 . S
C1448 C326 0.997 . S
C1460 C512 0.923 . S
C1475 C360 0.969 . S
C1487 C410 0.949 . S
C1502 C394 0.960 . S
C1514 C444 0.996 . S
C1529 C342 1.008 . S
C1541 C428 0.962 . S
C1556 C462 0.973 . S
C1568 C376 0.986 . S
C1583 C274 0.961 . S
C1595 C496 0.976 . S
C1610 C308 1.014 . S
C1622 C530 0.961 . S
