# Generated by pormake.
# Topology qtz-e, (6)-cn, num edge types: 1
# Building blocks:
#     Node 0, Type 0, BuildingBlock: KUMBOL_clean_sbu_0, # of connection points: 6
#     Node 1, Type 0, BuildingBlock: KUMBOL_clean_sbu_0, # of connection points: 6
#     Node 2, Type 0, BuildingBlock: KUMBOL_clean_sbu_0, # of connection points: 6
#     Node 3, Type 0, BuildingBlock: KUMBOL_clean_sbu_0, # of connection points: 6
#     Node 4, Type 0, BuildingBlock: KUMBOL_clean_sbu_0, # of connection points: 6
#     Node 5, Type 0, BuildingBlock: KUMBOL_clean_sbu_0, # of connection points: 6
#     Edge 6, Type (0, 0), BuildingBlock: AJUNOK_clean_linker_0, # of connection points: 2
#     Edge 7, Type (0, 0), BuildingBlock: AJUNOK_clean_linker_0, # of connection points: 2
#     Edge 8, Type (0, 0), BuildingBlock: AJUNOK_clean_linker_0, # of connection points: 2
#     Edge 9, Type (0, 0), BuildingBlock: AJUNOK_clean_linker_0, # of connection points: 2
#     Edge 10, Type (0, 0), BuildingBlock: AJUNOK_clean_linker_0, # of connection points: 2
#     Edge 11, Type (0, 0), BuildingBlock: AJUNOK_clean_linker_0, # of connection points: 2
#     Edge 12, Type (0, 0), BuildingBlock: AJUNOK_clean_linker_0, # of connection points: 2
#     Edge 13, Type (0, 0), BuildingBlock: AJUNOK_clean_linker_0, # of connection points: 2
#     Edge 14, Type (0, 0), BuildingBlock: AJUNOK_clean_linker_0, # of connection points: 2
#     Edge 15, Type (0, 0), BuildingBlock: AJUNOK_clean_linker_0, # of connection points: 2
#     Edge 16, Type (0, 0), BuildingBlock: AJUNOK_clean_linker_0, # of connection points: 2
#     Edge 17, Type (0, 0), BuildingBlock: AJUNOK_clean_linker_0, # of connection points: 2
#     Edge 18, Type (0, 0), BuildingBlock: AJUNOK_clean_linker_0, # of connection points: 2
#     Edge 19, Type (0, 0), BuildingBlock: AJUNOK_clean_linker_0, # of connection points: 2
#     Edge 20, Type (0, 0), BuildingBlock: AJUNOK_clean_linker_0, # of connection points: 2
#     Edge 21, Type (0, 0), BuildingBlock: AJUNOK_clean_linker_0, # of connection points: 2
#     Edge 22, Type (0, 0), BuildingBlock: AJUNOK_clean_linker_0, # of connection points: 2
#     Edge 23, Type (0, 0), BuildingBlock: AJUNOK_clean_linker_0, # of connection points: 2
# Relax obj value: 0.064
# Max RMSD: 0.154
# Mean RMSD: 0.154
data_MOF--net-qtz-e--node1-KUMBOL_clean_sbu_0--edge1-AJUNOK_clean_linker_0
_symmetry_space_group_name_H-M    P1
_symmetry_Int_Tables_number       1
_symmetry_cell_setting            triclinic
loop_
_symmetry_equiv_pos_as_xyz
'x, y, z'
_cell_length_a     22.360428
_cell_length_b     22.291644
_cell_length_c     36.675772
_cell_angle_alpha  90.18316
_cell_angle_beta   89.687605
_cell_angle_gamma 119.94101
loop_
_atom_site_label
_atom_site_type_symbol
_atom_site_fract_x
_atom_site_fract_y
_atom_site_fract_z
_atom_type_partial_charge
Gd0 Gd 0.20247 0.37238 1.01033 0.0
Gd1 Gd 0.28221 0.53782 0.06155 0.0
C2 C 0.24903 0.71805 0.03142 0.0
C3 C 0.35013 0.79001 0.9942 0.0
C4 C 0.33758 0.68752 1.02436 0.0
C5 C 0.27517 0.6733 0.03794 0.0
C6 C 0.37834 0.7485 1.0043 0.0
C7 C 0.28502 0.77452 1.00768 0.0
C8 C 0.19044 0.70709 0.05086 0.0
C9 C 0.16438 0.65723 0.07855 0.0
N10 N 0.24529 0.62086 0.06211 0.0
C11 C 0.19462 0.6164 0.08485 0.0
H12 H 0.17483 0.57838 0.10636 0.0
C13 C 0.43161 0.67028 0.03343 0.0
N14 N 0.36251 0.64693 0.03603 0.0
C15 C 0.47482 0.73026 1.0135 0.0
C16 C 0.44742 0.76826 0.99766 0.0
H17 H 0.45362 0.64281 0.04673 0.0
H18 H 0.26524 0.80892 1.0016 0.0
H19 H 0.26437 0.31476 0.07552 0.0
H20 H 0.16765 0.73928 0.04609 0.0
H21 H 0.12088 0.6496 0.09496 0.0
H22 H 0.3798 0.83627 0.97799 0.0
H23 H 0.07169 0.33444 0.95404 0.0
H24 H 0.09598 0.13416 0.12365 0.0
H25 H 0.22078 0.22005 0.1207 0.0
H26 H 0.90214 0.09755 0.05145 0.0
H27 H 0.52915 0.74719 1.01052 0.0
H28 H 0.4809 0.81492 0.9825 0.0
H29 H 0.97684 0.08931 0.09794 0.0
H30 H 0.94697 0.24895 0.94921 0.0
N31 N 0.16538 0.28267 0.05318 0.0
C32 C 0.11494 0.17532 0.10362 0.0
C33 C 0.18543 0.22362 0.10198 0.0
C34 C 0.06994 0.18004 0.07893 0.0
C35 C 0.0973 0.23481 0.05355 0.0
C36 C 0.21 0.27711 0.07629 0.0
N37 N 0.08442 0.29217 1.00329 0.0
C38 C 0.05536 0.23979 1.02776 0.0
C39 C 0.97674 0.24607 0.97161 0.0
C40 C 0.94511 0.19405 0.99788 0.0
C41 C 0.04718 0.29429 0.97439 0.0
C42 C 0.98471 0.18969 1.02608 0.0
H43 H 0.89061 0.15661 0.99562 0.0
O44 O 0.21865 0.36122 0.95239 0.0
O45 O 0.2663 0.48598 1.0088 0.0
O46 O 0.18058 0.51919 0.03801 0.0
O47 O 0.11768 0.40168 1.02049 0.0
O48 O 0.19842 0.43953 0.96571 0.0
O49 O 0.23664 0.30101 0.99142 0.0
O50 O 0.37096 0.5482 0.09217 0.0
O51 O 0.2268 0.42079 0.0659 0.0
O52 O 0.31396 0.407 1.028 0.0
O53 O 0.3618 0.52553 1.02869 0.0
O54 O 0.19213 0.47439 0.09812 0.0
O55 O 0.29041 0.55722 0.11937 0.0
C56 C 0.24551 0.49744 0.97919 0.0
C57 C 0.95647 0.13618 0.05202 0.0
C58 C 0.99901 0.13144 0.07845 0.0
C59 C 0.236 0.31428 0.95693 0.0
C60 C 0.20563 0.25467 0.9311 0.0
C61 C 0.13813 0.20011 0.93666 0.0
C62 C 0.24374 0.25197 0.90056 0.0
C63 C 0.21463 0.19452 0.87633 0.0
C64 C 0.10889 0.1441 0.91259 0.0
C65 C 0.14661 0.14118 0.88281 0.0
C66 C 0.12272 0.46295 1.02799 0.0
C67 C 0.18195 0.41396 0.08994 0.0
C68 C 0.34916 0.55955 0.12278 0.0
C69 C 0.39894 0.6098 0.14893 0.0
C70 C 0.46081 0.61041 0.15612 0.0
C71 C 0.37843 0.64656 0.17203 0.0
C72 C 0.41363 0.67581 0.20466 0.0
C73 C 0.49996 0.64526 0.18671 0.0
C74 C 0.47591 0.67656 0.21132 0.0
C75 C 0.36893 0.47021 1.02682 0.0
H76 H 0.10796 0.20073 0.95968 0.0
H77 H 0.29615 0.2936 0.89611 0.0
H78 H 0.05664 0.1024 0.91716 0.0
H79 H 0.12247 0.09693 0.86469 0.0
H80 H 0.47746 0.58179 0.13895 0.0
H81 H 0.33242 0.64885 0.16562 0.0
H82 H 0.5473 0.645 0.19233 0.0
H83 H 0.50483 0.69918 0.23603 0.0
Gd84 Gd 0.83378 0.21417 0.35096 0.0
Gd85 Gd 0.74433 0.27798 0.4106 0.0
C86 C 0.53617 0.26166 0.38465 0.0
C87 C 0.57104 0.36787 0.35107 0.0
C88 C 0.65759 0.34248 0.37462 0.0
C89 C 0.60623 0.2807 0.38852 0.0
C90 C 0.64064 0.38814 0.35694 0.0
C91 C 0.51882 0.30446 0.36472 0.0
C92 C 0.48596 0.20192 0.40234 0.0
C93 C 0.50649 0.16556 0.42516 0.0
N94 N 0.62508 0.2418 0.40838 0.0
C95 C 0.57672 0.18771 0.42882 0.0
H96 H 0.59245 0.16013 0.44694 0.0
C97 C 0.77619 0.42522 0.37234 0.0
N98 N 0.72422 0.35999 0.38056 0.0
C99 C 0.76198 0.47279 0.35532 0.0
C100 C 0.69402 0.45367 0.34684 0.0
H101 H 0.829 0.4412 0.37853 0.0
H102 H 0.46532 0.29036 0.36104 0.0
H103 H 0.96914 0.3071 0.4058 0.0
H104 H 0.43158 0.18525 0.39985 0.0
H105 H 0.46837 0.12084 0.44014 0.0
H106 H 0.55706 0.40178 0.33704 0.0
H107 H 0.74197 0.06342 0.30677 0.0
H108 H 0.019 0.16925 0.46079 0.0
H109 H 0.04136 0.28795 0.44912 0.0
H110 H 0.86094 0.94787 0.4096 0.0
H111 H 0.80363 0.52393 0.34837 0.0
H112 H 0.68322 0.49033 0.33329 0.0
H113 H 0.95019 0.04215 0.44654 0.0
H114 H 0.71678 0.94237 0.31162 0.0
N115 N 0.90608 0.20052 0.39252 0.0
C116 C 0.98739 0.17744 0.4414 0.0
C117 C 1.00017 0.24448 0.43487 0.0
C118 C 0.93462 0.12191 0.42239 0.0
C119 C 0.89503 0.13548 0.39742 0.0
C120 C 0.9588 0.25513 0.41024 0.0
N121 N 0.80976 0.0984 0.35227 0.0
C122 C 0.84473 0.08259 0.37689 0.0
C123 C 0.75247 0.98116 0.33038 0.0
C124 C 0.78481 0.9632 0.35718 0.0
C125 C 0.76671 0.04965 0.32781 0.0
C126 C 0.83268 0.01443 0.3804 0.0
H127 H 0.77397 0.91019 0.35904 0.0
O128 O 0.84747 0.19532 0.29373 0.0
O129 O 0.78651 0.28074 0.35544 0.0
O130 O 0.66286 0.18539 0.38023 0.0
O131 O 0.71977 0.12847 0.35734 0.0
O132 O 0.76006 0.21572 0.31001 0.0
O133 O 0.93447 0.27105 0.324 0.0
O134 O 0.71262 0.26856 0.46721 0.0
O135 O 0.8091 0.2258 0.40936 0.0
O136 O 0.9041 0.33049 0.35913 0.0
O137 O 0.85657 0.36088 0.40744 0.0
O138 O 0.72084 0.18292 0.44184 0.0
O139 O 0.78861 0.36848 0.44596 0.0
C140 C 0.75212 0.26264 0.32627 0.0
C141 C 0.86999 1.00003 0.40621 0.0
C142 C 0.92089 0.05371 0.42719 0.0
C143 C 0.91274 0.2415 0.29238 0.0
C144 C 0.95922 0.22495 0.27059 0.0
C145 C 0.9745 0.17484 0.28308 0.0
C146 C 0.98946 0.26003 0.23726 0.0
C147 C 0.0354 0.2456 0.21706 0.0
C148 C 0.01917 0.16008 0.26326 0.0
C149 C 0.04954 0.19518 0.23079 0.0
C150 C 0.66296 0.1308 0.36617 0.0
C151 C 0.77183 0.17607 0.43112 0.0
C152 C 0.75321 0.33368 0.47427 0.0
C153 C 0.78682 0.35032 0.50995 0.0
C154 C 0.8549 0.36509 0.51526 0.0
C155 C 0.7473 0.34905 0.53982 0.0
C156 C 0.77418 0.361 0.57515 0.0
C157 C 0.88248 0.37792 0.55054 0.0
C158 C 0.84205 0.37516 0.58055 0.0
C159 C 0.9064 0.37565 0.38355 0.0
H160 H 0.95206 0.14732 0.3083 0.0
H161 H 0.97842 0.29932 0.22754 0.0
H162 H 0.03064 0.12129 0.27324 0.0
H163 H 0.08405 0.18252 0.21618 0.0
H164 H 0.88611 0.36584 0.49243 0.0
H165 H 0.69429 0.33664 0.53565 0.0
H166 H 0.93494 0.38908 0.55468 0.0
H167 H 0.86344 0.38386 0.60776 0.0
Gd168 Gd 0.63096 0.81482 0.68071 0.0
Gd169 Gd 0.47056 0.7544 0.73623 0.0
C170 C 0.32023 0.83741 0.73347 0.0
C171 C 0.36959 0.93046 0.77789 0.0
C172 C 0.42655 0.864 0.76411 0.0
C173 C 0.37508 0.82443 0.73948 0.0
C174 C 0.42545 0.91911 0.78262 0.0
C175 C 0.31697 0.88953 0.75342 0.0
C176 C 0.27144 0.79913 0.70674 0.0
C177 C 0.27912 0.75083 0.686 0.0
N178 N 0.38145 0.7766 0.7194 0.0
C179 C 0.33461 0.74022 0.69273 0.0
H180 H 0.33819 0.70067 0.67782 0.0
C181 C 0.53928 0.90096 0.78476 0.0
N182 N 0.48117 0.8533 0.76702 0.0
C183 C 0.54013 0.95546 0.80417 0.0
C184 C 0.48222 0.96354 0.80384 0.0
H185 H 0.58615 0.8991 0.78305 0.0
H186 H 0.27515 0.90002 0.74926 0.0
H187 H 0.69836 0.95009 0.73757 0.0
H188 H 0.22858 0.80755 0.70136 0.0
H189 H 0.24193 0.72117 0.66509 0.0
H190 H 0.36782 0.97229 0.79205 0.0
H191 H 0.65742 0.70354 0.6329 0.0
H192 H 0.88047 0.9673 0.78536 0.0
H193 H 0.79736 0.00936 0.77918 0.0
H194 H 0.90278 0.78753 0.72546 0.0
H195 H 0.58609 0.99211 0.81867 0.0
H196 H 0.48305 1.00619 0.81849 0.0
H197 H 0.9189 0.88338 0.76556 0.0
H198 H 0.73869 0.65832 0.63153 0.0
N199 N 0.72536 0.87566 0.71993 0.0
C200 C 0.83745 0.94151 0.76676 0.0
C201 C 0.79074 0.96549 0.76328 0.0
C202 C 0.82856 0.88511 0.74578 0.0
C203 C 0.77155 0.85336 0.72211 0.0
C204 C 0.73469 0.9318 0.73956 0.0
N205 N 0.70785 0.77215 0.67698 0.0
C206 C 0.76232 0.79952 0.69992 0.0
C207 C 0.74583 0.6979 0.65102 0.0
C208 C 0.80063 0.72349 0.67566 0.0
C209 C 0.70011 0.7236 0.65178 0.0
C210 C 0.80997 0.77565 0.70025 0.0
H211 H 0.83604 0.70361 0.67502 0.0
O212 O 0.65547 0.8287 0.62263 0.0
O213 O 0.51798 0.76303 0.68235 0.0
O214 O 0.4768 0.66156 0.71434 0.0
O215 O 0.59251 0.70197 0.69743 0.0
O216 O 0.5587 0.74746 0.63561 0.0
O217 O 0.68062 0.91783 0.65603 0.0
O218 O 0.43312 0.69276 0.78491 0.0
O219 O 0.58333 0.79381 0.73586 0.0
O220 O 0.60029 0.89697 0.69616 0.0
O221 O 0.48195 0.83238 0.69459 0.0
O222 O 0.53755 0.7734 0.78629 0.0
O223 O 0.36784 0.6617 0.73729 0.0
C224 C 0.50186 0.73349 0.65176 0.0
C225 C 0.86586 0.8055 0.72453 0.0
C226 C 0.87509 0.86012 0.74732 0.0
C227 C 0.6816 0.8956 0.6232 0.0
C228 C 0.74371 0.93756 0.60022 0.0
C229 C 0.80655 0.94149 0.60876 0.0
C230 C 0.74018 0.97366 0.5692 0.0
C231 C 0.7995 0.01438 0.54739 0.0
C232 C 0.86494 0.9808 0.5871 0.0
C233 C 0.86162 0.01703 0.55681 0.0
C234 C 0.52909 0.65097 0.70626 0.0
C235 C 0.59443 0.78975 0.76946 0.0
C236 C 0.3709 0.65466 0.77244 0.0
C237 C 0.3178 0.65529 0.79634 0.0
C238 C 0.27336 0.67842 0.78428 0.0
C239 C 0.32081 0.6443 0.8337 0.0
C240 C 0.28643 0.66339 0.85949 0.0
C241 C 0.2382 0.69685 0.80944 0.0
C242 C 0.2458 0.69094 0.84683 0.0
C243 C 0.539 0.8923 0.69154 0.0
H244 H 0.81038 0.91406 0.63217 0.0
H245 H 0.6918 0.97104 0.56246 0.0
H246 H 0.91322 0.98337 0.59389 0.0
H247 H 0.90775 0.04706 0.54056 0.0
H248 H 0.26693 0.68394 0.75565 0.0
H249 H 0.35101 0.62121 0.84234 0.0
H250 H 0.20555 0.71657 0.79992 0.0
H251 H 0.21869 0.70651 0.86573 0.0
Gd252 Gd 0.82305 0.61945 1.00802 0.0
Gd253 Gd 0.75818 0.48855 0.07935 0.0
C254 C 0.68979 0.2553 0.07931 0.0
C255 C 0.58189 0.20676 0.11286 0.0
C256 C 0.64524 0.32962 0.09781 0.0
C257 C 0.6967 0.32193 0.08163 0.0
C258 C 0.58674 0.27194 0.11324 0.0
C259 C 0.63331 0.19842 0.09586 0.0
C260 C 0.738 0.24688 0.05903 0.0
C261 C 0.78847 0.30277 0.03965 0.0
N262 N 0.75027 0.37818 0.06554 0.0
C263 C 0.79267 0.36726 0.04237 0.0
H264 H 0.82915 0.40655 1.02444 0.0
C265 C 0.59879 0.40156 0.11142 0.0
N266 N 0.65069 0.39284 0.09705 0.0
C267 C 0.54026 0.34628 0.12713 0.0
C268 C 0.53432 0.28115 0.12824 0.0
H269 H 0.60245 0.45172 0.11131 0.0
H270 H 0.62785 0.14734 0.09468 0.0
H271 H 0.74703 0.68197 0.06266 0.0
H272 H 0.7344 0.19673 0.05654 0.0
H273 H 0.82359 0.29605 1.02193 0.0
H274 H 0.53775 0.16215 0.12484 0.0
H275 H 0.96388 0.65553 0.95907 0.0
H276 H 0.90079 0.87963 0.10307 0.0
H277 H 0.77909 0.78524 0.10057 0.0
H278 H 0.10745 0.9168 0.04269 0.0
H279 H 0.49993 0.35415 0.1385 0.0
H280 H 0.4888 0.23825 0.14036 0.0
H281 H 0.0235 0.92796 0.0817 0.0
H282 H 0.0869 0.7462 0.95558 0.0
N283 N 0.84938 0.71752 0.04373 0.0
C284 C 0.88688 0.83463 0.08617 0.0
C285 C 0.81814 0.78152 0.08478 0.0
C286 C 0.93674 0.82935 0.06539 0.0
C287 C 0.91589 0.76955 0.04397 0.0
C288 C 0.80011 0.72318 0.06313 0.0
N289 N 0.94025 0.70512 1.00187 0.0
C290 C 0.96298 0.76297 1.02244 0.0
C291 C 0.05274 0.75138 0.97473 0.0
C292 C 0.07777 0.80946 0.9973 0.0
C293 C 0.98318 0.70007 0.97689 0.0
C294 C 0.03249 0.81646 1.0211 0.0
H295 H 0.13163 0.84924 0.99555 0.0
O296 O 0.83238 0.63248 0.94896 0.0
O297 O 0.7564 0.50898 1.0213 0.0
O298 O 0.8597 0.49912 0.06209 0.0
O299 O 0.90431 0.58409 1.01572 0.0
O300 O 0.81691 0.53072 0.9752 0.0
O301 O 0.76912 0.66347 0.97812 0.0
O302 O 0.72624 0.53721 0.1208 0.0
O303 O 0.81504 0.60344 0.06872 0.0
O304 O 0.70816 0.58595 1.01787 0.0
O305 O 0.66599 0.48609 0.0526 0.0
O306 O 0.86309 0.56202 0.10058 0.0
O307 O 0.77025 0.47274 0.13588 0.0
C308 C 0.77142 0.48169 0.99536 0.0
C309 C 0.05414 0.87546 0.04305 0.0
C310 C 1.00633 0.88186 0.0652 0.0
C311 C 0.7925 0.65912 0.94627 0.0
C312 C 0.81441 0.71804 0.9204 0.0
C313 C 0.88175 0.77462 0.92197 0.0
C314 C 0.76884 0.71725 0.89318 0.0
C315 C 0.79079 0.77297 0.86815 0.0
C316 C 0.90377 0.82901 0.8971 0.0
C317 C 0.85888 0.82832 0.87052 0.0
C318 C 0.90712 0.5369 0.03716 0.0
C319 C 0.86783 0.6189 0.08886 0.0
C320 C 0.74214 0.50873 0.14736 0.0
C321 C 0.6947 0.48005 0.17877 0.0
C322 C 0.6434 0.49736 0.18626 0.0
C323 C 0.70494 0.43839 0.20337 0.0
C324 C 0.66688 0.41586 0.23572 0.0
C325 C 0.60238 0.47166 0.21766 0.0
C326 C 0.61414 0.43111 0.2425 0.0
C327 C 0.65601 0.5301 0.03325 0.0
H328 H 0.91753 0.77664 0.94237 0.0
H329 H 0.7164 0.67427 0.89191 0.0
H330 H 0.95594 0.8723 0.89858 0.0
H331 H 0.87714 0.87174 0.85193 0.0
H332 H 0.63502 0.53054 0.16801 0.0
H333 H 0.74469 0.4251 0.19804 0.0
H334 H 0.56252 0.48457 0.22317 0.0
H335 H 0.58379 0.4136 0.26731 0.0
Gd336 Gd 0.21339 0.82174 0.34291 0.0
Gd337 Gd 0.29713 0.73925 0.39171 0.0
C338 C 0.48364 0.72953 0.34603 0.0
C339 C 0.42904 0.62785 0.30716 0.0
C340 C 0.35918 0.6651 0.34088 0.0
C341 C 0.41802 0.72011 0.35503 0.0
C342 C 0.36389 0.61686 0.31775 0.0
C343 C 0.48889 0.68441 0.32109 0.0
C344 C 0.5417 0.78195 0.36364 0.0
C345 C 0.53294 0.82018 0.39121 0.0
N346 N 0.41076 0.76128 0.37979 0.0
C347 C 0.4666 0.80739 0.3998 0.0
H348 H 0.45986 0.83545 0.42194 0.0
C349 C 0.23788 0.59766 0.34211 0.0
N350 N 0.29712 0.65663 0.3513 0.0
C351 C 0.23976 0.54761 0.31981 0.0
C352 C 0.30301 0.55791 0.30692 0.0
H353 H 0.18905 0.58828 0.35236 0.0
H354 H 0.53883 0.69128 0.31349 0.0
H355 H 0.08363 0.73691 0.40234 0.0
H356 H 0.59301 0.79111 0.35736 0.0
H357 H 0.57708 0.85879 0.4062 0.0
H358 H 0.43365 0.59201 0.28892 0.0
H359 H 0.30595 0.96922 0.29683 0.0
H360 H 0.05695 0.8847 0.46428 0.0
H361 H 0.02332 0.76304 0.45071 0.0
H362 H 0.21852 0.10118 0.40907 0.0
H363 H 0.19235 0.50129 0.31245 0.0
H364 H 0.30435 0.51943 0.28936 0.0
H365 H 0.13133 0.0111 0.44911 0.0
H366 H 0.34093 0.09317 0.30272 0.0
N367 N 0.15102 0.84224 0.38845 0.0
C368 C 0.08323 0.87338 0.44276 0.0
C369 C 0.06413 0.80469 0.43517 0.0
C370 C 0.13527 0.92655 0.42201 0.0
C371 C 0.16782 0.90889 0.39435 0.0
C372 C 0.0987 0.79001 0.40775 0.0
N373 N 0.2444 0.93942 0.34495 0.0
C374 C 0.21667 0.95928 0.37204 0.0
C375 C 0.30618 0.05611 0.32255 0.0
C376 C 0.28113 0.078 0.35162 0.0
C377 C 0.28618 0.98602 0.31923 0.0
C378 C 0.23472 0.02917 0.37646 0.0
H379 H 0.29658 0.13228 0.35413 0.0
O380 O 0.19572 0.83751 0.28588 0.0
O381 O 0.25811 0.75208 0.33835 0.0
O382 O 0.38098 0.84321 0.3716 0.0
O383 O 0.32696 0.90524 0.35246 0.0
O384 O 0.28951 0.83257 0.30008 0.0
O385 O 0.1093 0.77291 0.32028 0.0
O386 O 0.33801 0.73144 0.44379 0.0
O387 O 0.2388 0.79684 0.39814 0.0
O388 O 0.13838 0.70588 0.3491 0.0
O389 O 0.18199 0.67229 0.39724 0.0
O390 O 0.32433 0.82524 0.43155 0.0
O391 O 0.24853 0.64195 0.42148 0.0
C392 C 0.29545 0.78064 0.31047 0.0
C393 C 0.20474 0.04766 0.40492 0.0
C394 C 0.15503 0.99638 0.42767 0.0
C395 C 0.1292 0.79704 0.28746 0.0
C396 C 0.0847 0.81605 0.26597 0.0
C397 C 0.07047 0.86686 0.27881 0.0
C398 C 0.05415 0.78137 0.23275 0.0
C399 C 1.00887 0.79666 0.21293 0.0
C400 C 0.02624 0.88241 0.25939 0.0
C401 C 0.9954 0.84748 0.22698 0.0
C402 C 0.3825 0.90073 0.36114 0.0
C403 C 0.27672 0.83903 0.42298 0.0
C404 C 0.28967 0.66778 0.44924 0.0
C405 C 0.2594 0.65116 0.48614 0.0
C406 C 0.18787 0.61611 0.49251 0.0
C407 C 0.30425 0.66958 0.51576 0.0
C408 C 0.27897 0.6552 0.5516 0.0
C409 C 0.16216 0.60059 0.52822 0.0
C410 C 0.20749 0.61989 0.55777 0.0
C411 C 0.13236 0.66099 0.37435 0.0
H412 H 0.09314 0.89409 0.30402 0.0
H413 H 0.06439 0.74151 0.22282 0.0
H414 H 0.01544 0.92163 0.26964 0.0
H415 H 0.96131 0.86071 0.21266 0.0
H416 H 0.15211 0.60027 0.47003 0.0
H417 H 0.35949 0.6951 0.51085 0.0
H418 H 0.10699 0.57352 0.53299 0.0
H419 H 0.187 0.60798 0.58527 0.0
Gd420 Gd 0.40038 0.20251 0.67651 0.0
Gd421 Gd 0.52874 0.26803 0.75017 0.0
C422 C 0.75579 0.33647 0.73085 0.0
C423 C 0.76854 0.25079 0.76538 0.0
C424 C 0.65816 0.24762 0.7645 0.0
C425 C 0.68566 0.30467 0.74142 0.0
C426 C 0.70023 0.22196 0.77779 0.0
C427 C 0.79619 0.30776 0.74185 0.0
C428 C 0.78423 0.39792 0.71082 0.0
C429 C 0.74417 0.42827 0.70356 0.0
N430 N 0.64564 0.33213 0.73159 0.0
C431 C 0.67521 0.39533 0.71489 0.0
H432 H 0.64591 0.41996 0.70874 0.0
C433 C 0.56687 0.17298 0.8038 0.0
N434 N 0.59169 0.22024 0.776 0.0
C435 C 0.60707 0.14683 0.8181 0.0
C436 C 0.67333 0.17001 0.80436 0.0
H437 H 0.51592 0.15492 0.81489 0.0
H438 H 0.84975 0.33098 0.7335 0.0
H439 H 0.32274 0.04536 0.71663 0.0
H440 H 0.8377 0.42369 0.70206 0.0
H441 H 0.76627 0.47702 0.68909 0.0
H442 H 0.80118 0.23095 0.77483 0.0
H443 H 0.37011 0.31202 0.62853 0.0
H444 H 0.12208 0.99925 0.75251 0.0
H445 H 0.21305 0.96744 0.74758 0.0
H446 H 0.09829 0.18434 0.70226 0.0
H447 H 0.58713 0.10909 0.83987 0.0
H448 H 0.70422 0.14941 0.81545 0.0
H449 H 0.08018 0.0814 0.73616 0.0
H450 H 0.27941 0.34419 0.62312 0.0
N451 N 0.29515 0.1218 0.70439 0.0
C452 C 0.17021 0.03379 0.73878 0.0
C453 C 0.22134 0.01553 0.73591 0.0
C454 C 0.18086 0.09525 0.72276 0.0
C455 C 0.24454 0.13843 0.70529 0.0
C456 C 0.28356 0.05997 0.7182 0.0
N457 N 0.31509 0.23384 0.6682 0.0
C458 C 0.25489 0.19646 0.68658 0.0
C459 C 0.27197 0.30279 0.64126 0.0
C460 C 0.21146 0.26765 0.66186 0.0
C461 C 0.32307 0.28439 0.64433 0.0
C462 C 0.20165 0.21277 0.68431 0.0
H463 H 0.17183 0.28182 0.65936 0.0
O464 O 0.38686 0.20115 0.61741 0.0
O465 O 0.51098 0.24872 0.69054 0.0
O466 O 0.52927 0.35944 0.72313 0.0
O467 O 0.4237 0.31221 0.69234 0.0
O468 O 0.48846 0.28378 0.64315 0.0
O469 O 0.37043 0.10893 0.64476 0.0
O470 O 0.48735 0.30861 0.79129 0.0
O471 O 0.41745 0.22351 0.73627 0.0
O472 O 0.43445 0.12341 0.69036 0.0
O473 O 0.52273 0.16842 0.73354 0.0
O474 O 0.43958 0.17724 0.77822 0.0
O475 O 0.59153 0.32918 0.79594 0.0
C476 C 0.53751 0.28846 0.66351 0.0
C477 C 0.13948 0.17215 0.70328 0.0
C478 C 0.12915 0.11351 0.72255 0.0
C479 C 0.36867 0.13602 0.61367 0.0
C480 C 0.30901 0.09263 0.58946 0.0
C481 C 0.24506 0.08803 0.59612 0.0
C482 C 0.31499 0.0541 0.56005 0.0
C483 C 0.25704 0.0108 0.53802 0.0
C484 C 0.18825 0.04633 0.57421 0.0
C485 C 0.19402 1.00801 0.54555 0.0
C486 C 0.47963 0.36551 0.70697 0.0
C487 C 0.39001 0.17986 0.76178 0.0
C488 C 0.53944 0.32718 0.81288 0.0
C489 C 0.52476 0.29594 0.84974 0.0
C490 C 0.45835 0.24348 0.85978 0.0
C491 C 0.57889 0.31516 0.87438 0.0
C492 C 0.56789 0.28075 0.90805 0.0
C493 C 0.44704 0.20815 0.89269 0.0
C494 C 0.50161 0.22617 0.91665 0.0
C495 C 0.48215 0.1198 0.71037 0.0
H496 H 0.23897 0.11656 0.61838 0.0
H497 H 0.36395 0.05665 0.55485 0.0
H498 H 0.13921 0.04336 0.57962 0.0
H499 H 0.14896 0.97602 0.52909 0.0
H500 H 0.41522 0.22954 0.84221 0.0
H501 H 0.6292 0.35841 0.86752 0.0
H502 H 0.39567 0.16718 0.89977 0.0
H503 H 0.49161 0.19892 0.94235 0.0
C504 C 0.39635 0.78663 0.27859 0.0
C505 C 0.32532 0.75061 0.28611 0.0
C506 C 0.42474 0.76182 0.2525 0.0
C507 C 0.38267 0.70093 0.2326 0.0
H508 H 0.43005 0.83427 0.29295 0.0
H509 H 0.47979 0.79129 0.24742 0.0
S510 S 0.19155 0.59193 0.24078 0.0
N511 N 0.21255 0.65571 0.27005 0.0
N512 N 0.26512 0.60562 0.22276 0.0
C513 C 0.31091 0.66518 0.23986 0.0
C514 C 0.28237 0.69115 0.26605 0.0
C515 C 0.63588 0.37415 0.6267 0.0
C516 C 0.60732 0.31437 0.64847 0.0
C517 C 0.69517 0.39346 0.60573 0.0
C518 C 0.72759 0.35329 0.60564 0.0
H519 H 0.6103 0.40443 0.62459 0.0
H520 H 0.71309 0.4374 0.58755 0.0
S521 S 0.67531 0.19391 0.65898 0.0
N522 N 0.61745 0.21658 0.66962 0.0
N523 N 0.72969 0.25363 0.63043 0.0
C524 C 0.70221 0.29589 0.62892 0.0
C525 C 0.64151 0.27593 0.65017 0.0
C526 C 0.2143 0.57556 0.94905 0.0
C527 C 0.2667 0.56381 0.96144 0.0
C528 C 0.22359 0.61565 0.91813 0.0
C529 C 0.28638 0.64609 0.89874 0.0
H530 H 0.16335 0.54718 0.96074 0.0
H531 H 0.17869 0.61569 0.90729 0.0
S532 S 0.4465 0.64818 0.92725 0.0
N533 N 0.38705 0.59541 0.95643 0.0
N534 N 0.40773 0.67776 0.90056 0.0
C535 C 0.34289 0.64463 0.91484 0.0
C536 C 0.33233 0.60152 0.94566 0.0
C537 C 0.65945 0.27524 0.29643 0.0
C538 C 0.72888 0.30381 0.30657 0.0
C539 C 0.63833 0.31324 0.27495 0.0
C540 C 0.68659 0.3799 0.26258 0.0
H541 H 0.62163 0.22337 0.30499 0.0
H542 H 0.58472 0.2896 0.26693 0.0
S543 S 0.87476 0.47552 0.28119 0.0
N544 N 0.8458 0.40037 0.30194 0.0
N545 N 0.80642 0.47293 0.26262 0.0
C546 C 0.75611 0.40861 0.27284 0.0
C547 C 0.77731 0.36995 0.29437 0.0
C548 C 0.38441 0.64683 0.62986 0.0
C549 C 0.43922 0.71539 0.63135 0.0
C550 C 0.32919 0.62827 0.60577 0.0
C551 C 0.32882 0.67746 0.5819 0.0
H552 H 0.38509 0.60734 0.6467 0.0
H553 H 0.2887 0.57458 0.60431 0.0
S554 S 0.46349 0.86226 0.57384 0.0
N555 N 0.49161 0.83143 0.60627 0.0
N556 N 0.38803 0.79708 0.56136 0.0
C557 C 0.38314 0.74624 0.58372 0.0
C558 C 0.4387 0.76496 0.60818 0.0
C559 C 0.6585 0.37199 0.99352 0.0
C560 C 0.72637 0.41169 0.98069 0.0
C561 C 0.60705 0.32236 0.97122 0.0
C562 C 0.62297 0.30957 0.9359 0.0
H563 H 0.64364 0.38341 1.01935 0.0
H564 H 0.554 0.29954 0.98035 0.0
S565 S 0.79853 0.37686 0.89735 0.0
N566 N 0.81076 0.41986 0.93593 0.0
N567 N 0.71449 0.32325 0.8946 0.0
C568 C 0.69288 0.3386 0.92616 0.0
C569 C 0.74482 0.39045 0.94854 0.0
C570 C 0.49698 0.54797 1.01565 0.0
C571 C 0.44087 0.48155 1.02394 0.0
C572 C 0.56607 0.56313 1.01766 0.0
C573 C 0.58242 0.51203 1.02717 0.0
H574 H 0.48784 0.58916 1.00757 0.0
H575 H 0.60688 0.6157 1.01252 0.0
S576 S 0.45445 0.32523 0.04177 0.0
N577 N 0.40669 0.36184 0.03635 0.0
N578 N 0.53513 0.38847 0.03792 0.0
C579 C 0.52648 0.44372 0.03201 0.0
C580 C 0.45624 0.42883 0.03075 0.0
C581 C 0.05097 0.54679 0.3457 0.0
C582 C 0.06959 0.59167 0.37584 0.0
C583 C 0.99991 0.47654 0.34875 0.0
C584 C 0.96403 0.44896 0.38177 0.0
H585 H 0.07816 0.56535 0.32 0.0
H586 H 0.98808 0.44386 0.32489 0.0
S587 S 0.9903 0.54754 0.46786 0.0
N588 N 0.04663 0.60506 0.43909 0.0
N589 N 0.94952 0.4743 0.4448 0.0
C590 C 0.98089 0.49443 0.41172 0.0
C591 C 0.03378 0.56539 0.40874 0.0
C592 C 0.55598 0.06453 0.71917 0.0
C593 C 0.49645 0.06162 0.70408 0.0
C594 C 0.57272 0.01235 0.71286 0.0
C595 C 0.52994 0.9541 0.69167 0.0
H596 H 0.59054 0.10764 0.73605 0.0
H597 H 0.61772 0.01623 0.72608 0.0
S598 S 0.37106 0.92253 0.64332 0.0
N599 N 0.39711 0.99645 0.66489 0.0
N600 N 0.42743 0.89815 0.65379 0.0
C601 C 0.47136 0.95119 0.67558 0.0
C602 C 0.45476 1.00467 0.68166 0.0
C603 C 0.56879 0.56314 0.70221 0.0
C604 C 0.51424 0.57733 0.70495 0.0
C605 C 0.55675 0.49489 0.70205 0.0
C606 C 0.48962 0.43706 0.70452 0.0
H607 H 0.62168 0.60509 0.70081 0.0
H608 H 0.60096 0.48781 0.69995 0.0
S609 S 0.3279 0.44424 0.71234 0.0
N610 N 0.38925 0.5262 0.7099 0.0
N611 N 0.36764 0.39872 0.71008 0.0
C612 C 0.43437 0.45009 0.70685 0.0
C613 C 0.44642 0.51977 0.70707 0.0
C614 C 0.03402 0.48523 0.99771 0.0
C615 C 0.06041 0.47088 1.0293 0.0
C616 C 0.98726 0.51056 1.00004 0.0
C617 C 0.96479 0.52167 0.03407 0.0
H618 H 0.05007 0.47771 0.97105 0.0
H619 H 0.96728 0.51974 0.97513 0.0
S620 S 0.01499 0.48769 0.12476 0.0
N621 N 0.05759 0.46672 0.09534 0.0
N622 N 0.97097 0.51369 0.09988 0.0
C623 C 0.98963 0.50569 0.06564 0.0
C624 C 0.03679 0.48025 0.06321 0.0
C625 C 0.48564 0.99921 0.33014 0.0
C626 C 0.45168 0.96342 0.36214 0.0
C627 C 0.55585 0.05159 0.33084 0.0
C628 C 0.59423 0.06818 0.36334 0.0
H629 H 0.45822 0.98588 0.30447 0.0
H630 H 0.57997 0.07979 0.30604 0.0
S631 S 0.52808 0.99191 0.45447 0.0
N632 N 0.46074 0.95173 0.42734 0.0
N633 N 0.59255 0.04582 0.42806 0.0
C634 C 0.56052 0.0327 0.39524 0.0
C635 C 0.4893 0.98136 0.39478 0.0
C636 C 0.3215 0.23237 0.78804 0.0
C637 C 0.33306 0.17569 0.78536 0.0
C638 C 0.2836 0.23854 0.81741 0.0
C639 C 0.25448 0.18768 0.8449 0.0
H640 H 0.3455 0.27445 0.7686 0.0
H641 H 0.27777 0.28389 0.81886 0.0
S642 S 0.26586 0.02723 0.84924 0.0
N643 N 0.30972 0.06673 0.81208 0.0
N644 N 0.23715 0.07695 0.86617 0.0
C645 C 0.26254 0.12908 0.84131 0.0
C646 C 0.30178 0.12332 0.81182 0.0
C647 C 0.14353 0.31433 0.1788 0.0
C648 C 0.07113 0.28352 0.18244 0.0
C649 C 0.17884 0.35108 0.14708 0.0
C650 C 0.1434 0.35701 0.11692 0.0
H651 H 0.17362 0.31225 0.20129 0.0
H652 H 0.23474 0.37781 0.14682 0.0
S653 S 0.95343 0.28044 0.11057 0.0
N654 N 0.96514 0.25819 0.15172 0.0
N655 N 0.03111 0.32574 0.09224 0.0
C656 C 0.07091 0.32428 0.11965 0.0
C657 C 0.03495 0.28775 0.15216 0.0
C658 C 0.75151 0.02388 0.48647 0.0
C659 C 0.79816 0.05575 0.51538 0.0
C660 C 0.7487 0.06283 0.45689 0.0
C661 C 0.79228 0.13526 0.45486 0.0
H662 H 0.71614 0.96856 0.48699 0.0
H663 H 0.70998 0.03635 0.43611 0.0
S664 S 0.92177 0.24397 0.52408 0.0
N665 N 0.88929 0.16433 0.53981 0.0
N666 N 0.88148 0.23711 0.48535 0.0
C667 C 0.83958 0.16744 0.48335 0.0
C668 C 0.84327 0.12784 0.51317 0.0
C669 C 0.67229 0.74129 0.78551 0.0
C670 C 0.65462 0.79363 0.78936 0.0
C671 C 0.71569 0.73385 0.81102 0.0
C672 C 0.74278 0.77825 0.84146 0.0
H673 H 0.65017 0.70403 0.76358 0.0
H674 H 0.72772 0.69286 0.80705 0.0
S675 S 0.71206 0.92277 0.86437 0.0
N676 N 0.66732 0.88927 0.82677 0.0
N677 N 0.74947 0.87674 0.87337 0.0
C678 C 0.72635 0.83113 0.84513 0.0
C679 C 0.68189 0.8381 0.81964 0.0
C680 C 0.90192 0.7288 0.17384 0.0
C681 C 0.97407 0.75925 0.17818 0.0
C682 C 0.86788 0.68982 0.14247 0.0
C683 C 0.90437 0.67979 0.11385 0.0
H684 H 0.87103 0.73256 0.1956 0.0
H685 H 0.81214 0.66404 0.14171 0.0
S686 S 0.09464 0.76064 0.10826 0.0
N687 N 0.08135 0.78573 0.14836 0.0
N688 N 0.01766 0.71055 0.09037 0.0
C689 C 0.97675 0.71372 0.11689 0.0
C690 C 1.01141 0.75384 0.14864 0.0
C691 C 0.3054 0.99634 0.47783 0.0
C692 C 0.26003 0.96672 0.50768 0.0
C693 C 0.30664 0.95512 0.44875 0.0
C694 C 0.26189 0.88277 0.44801 0.0
H695 H 0.34037 0.05173 0.477 0.0
H696 H 0.34417 0.97987 0.42708 0.0
S697 S 0.13843 0.7789 0.52101 0.0
N698 N 0.17162 0.8597 0.53523 0.0
N699 N 0.17565 0.78304 0.48136 0.0
C700 C 0.21726 0.85262 0.47789 0.0
C701 C 0.2156 0.89433 0.50733 0.0
loop_
_geom_bond_atom_site_label_1
_geom_bond_atom_site_label_2
_geom_bond_distance
_geom_bond_site_symmetry_2
_ccdc_geom_bond_type
Gd0 N31 2.661 1_556 S
Gd0 N37 2.601 . S
Gd0 O44 2.545 . S
Gd0 O45 2.606 . S
Gd0 O47 2.429 . S
Gd0 O48 2.545 . S
Gd0 O49 2.412 . S
Gd0 O51 2.362 1_556 S
Gd0 O52 2.324 1_556 S
Gd0 C59 2.828 . S
Gd1 N10 2.661 . S
Gd1 N14 2.601 . S
Gd1 O45 2.362 1_554 S
Gd1 O46 2.324 . S
Gd1 O50 2.545 . S
Gd1 O51 2.606 . S
Gd1 O53 2.429 . S
Gd1 O54 2.545 . S
Gd1 O55 2.412 . S
Gd1 C68 2.828 . S
C2 C5 1.417 1_556 S
C2 C7 1.431 . S
C2 C8 1.412 . S
C3 C6 1.437 . S
C3 C7 1.317 1_554 S
C3 H22 0.929 . S
C4 C5 1.426 . S
C4 C6 1.413 . S
C4 N14 1.359 . S
C5 C2 1.417 1_554 S
C5 C4 1.426 . S
C5 N10 1.350 . S
C6 C3 1.437 . S
C6 C4 1.413 . S
C6 C16 1.391 . S
C7 C2 1.431 . S
C7 C3 1.317 1_556 S
C7 H18 0.930 . S
C8 C2 1.412 . S
C8 C9 1.355 . S
C8 H20 0.930 . S
C9 C8 1.355 . S
C9 C11 1.402 . S
C9 H21 0.930 . S
N10 Gd1 2.661 . S
N10 C5 1.350 . S
N10 C11 1.307 1_554 S
C11 C9 1.402 . S
C11 N10 1.307 1_556 S
C11 H12 0.930 . S
H12 C11 0.930 . S
C13 N14 1.334 . S
C13 C15 1.394 . S
C13 H17 0.930 . S
N14 Gd1 2.601 . S
N14 C4 1.359 . S
N14 C13 1.334 . S
C15 C13 1.394 . S
C15 C16 1.359 . S
C15 H27 0.930 . S
C16 C6 1.391 . S
C16 C15 1.359 . S
C16 H28 0.929 . S
H17 C13 0.930 . S
H18 C7 0.930 . S
H19 C36 0.930 . S
H20 C8 0.930 . S
H21 C9 0.930 . S
H22 C3 0.929 . S
H23 C41 0.930 1_455 S
H24 C32 0.930 . S
H25 C33 0.930 . S
H26 C57 0.929 . S
H27 C15 0.930 . S
H28 C16 0.929 . S
H29 C58 0.930 . S
H30 C39 0.930 . S
N31 Gd0 2.661 1_554 S
N31 C35 1.350 . S
N31 C36 1.307 . S
C32 H24 0.930 . S
C32 C33 1.355 . S
C32 C34 1.412 . S
C33 H25 0.930 . S
C33 C32 1.355 . S
C33 C36 1.402 . S
C34 C32 1.412 . S
C34 C35 1.417 . S
C34 C58 1.431 1_455 S
C35 N31 1.350 . S
C35 C34 1.417 . S
C35 C38 1.426 . S
C36 H19 0.930 . S
C36 N31 1.307 . S
C36 C33 1.402 . S
N37 Gd0 2.601 . S
N37 C38 1.359 1_556 S
N37 C41 1.334 1_455 S
C38 C35 1.426 . S
C38 N37 1.359 1_554 S
C38 C42 1.413 1_455 S
C39 H30 0.930 . S
C39 C40 1.359 . S
C39 C41 1.394 . S
C40 C39 1.359 . S
C40 C42 1.391 1_556 S
C40 H43 0.929 . S
C41 H23 0.930 1_655 S
C41 N37 1.334 1_655 S
C41 C39 1.394 . S
C42 C38 1.413 1_655 S
C42 C40 1.391 1_554 S
C42 C57 1.437 . S
H43 C40 0.929 . S
O44 Gd0 2.545 . S
O44 C59 1.258 . S
O45 Gd0 2.606 . S
O45 Gd1 2.362 1_556 S
O45 C56 1.284 . S
O46 Gd1 2.324 . S
O46 C66 1.254 . S
O47 Gd0 2.429 . S
O47 C66 1.268 1_556 S
O48 Gd0 2.545 . S
O48 C56 1.250 . S
O49 Gd0 2.412 . S
O49 C59 1.252 . S
O50 Gd1 2.545 . S
O50 C68 1.258 . S
O51 Gd0 2.362 1_554 S
O51 Gd1 2.606 . S
O51 C67 1.284 . S
O52 Gd0 2.324 1_554 S
O52 C75 1.254 . S
O53 Gd1 2.429 . S
O53 C75 1.268 . S
O54 Gd1 2.545 . S
O54 C67 1.250 . S
O55 Gd1 2.412 . S
O55 C68 1.252 . S
C56 O45 1.284 . S
C56 O48 1.250 . S
C57 H26 0.929 . S
C57 C42 1.437 . S
C57 C58 1.317 . S
C58 H29 0.930 . S
C58 C34 1.431 1_655 S
C58 C57 1.317 . S
C59 Gd0 2.828 . S
C59 O44 1.258 . S
C59 O49 1.252 . S
C59 C60 1.497 . S
C60 C59 1.497 . S
C60 C61 1.395 . S
C60 C62 1.380 . S
C61 C60 1.395 . S
C61 C64 1.398 . S
C61 H76 0.930 . S
C62 C60 1.380 . S
C62 C63 1.391 . S
C62 H77 0.930 . S
C63 C62 1.391 . S
C63 C65 1.387 . S
C64 C61 1.398 . S
C64 C65 1.380 . S
C64 H78 0.930 . S
C65 C63 1.387 . S
C65 C64 1.380 . S
C65 H79 0.930 . S
C66 O46 1.254 . S
C66 O47 1.268 1_554 S
C67 O51 1.284 . S
C67 O54 1.250 . S
C68 Gd1 2.828 . S
C68 O50 1.258 . S
C68 O55 1.252 . S
C68 C69 1.497 . S
C69 C68 1.497 . S
C69 C70 1.395 . S
C69 C71 1.380 . S
C70 C69 1.395 . S
C70 C73 1.398 . S
C70 H80 0.930 . S
C71 C69 1.380 . S
C71 C72 1.391 . S
C71 H81 0.930 . S
C72 C71 1.391 . S
C72 C74 1.387 . S
C73 C70 1.398 . S
C73 C74 1.380 . S
C73 H82 0.930 . S
C74 C72 1.387 . S
C74 C73 1.380 . S
C74 H83 0.930 . S
C75 O52 1.254 . S
C75 O53 1.268 . S
H76 C61 0.930 . S
H77 C62 0.930 . S
H78 C64 0.930 . S
H79 C65 0.930 . S
H80 C70 0.930 . S
H81 C71 0.930 . S
H82 C73 0.930 . S
H83 C74 0.930 . S
Gd84 N115 2.661 . S
Gd84 N121 2.601 . S
Gd84 O128 2.545 . S
Gd84 O129 2.606 . S
Gd84 O131 2.429 . S
Gd84 O132 2.545 . S
Gd84 O133 2.412 . S
Gd84 O135 2.362 . S
Gd84 O136 2.324 . S
Gd84 C143 2.828 . S
Gd85 N94 2.661 . S
Gd85 N98 2.601 . S
Gd85 O129 2.362 . S
Gd85 O130 2.324 . S
Gd85 O134 2.545 . S
Gd85 O135 2.606 . S
Gd85 O137 2.429 . S
Gd85 O138 2.545 . S
Gd85 O139 2.412 . S
Gd85 C152 2.828 . S
C86 C89 1.417 . S
C86 C91 1.431 . S
C86 C92 1.412 . S
C87 C90 1.437 . S
C87 C91 1.317 . S
C87 H106 0.929 . S
C88 C89 1.426 . S
C88 C90 1.413 . S
C88 N98 1.359 . S
C89 C86 1.417 . S
C89 C88 1.426 . S
C89 N94 1.350 . S
C90 C87 1.437 . S
C90 C88 1.413 . S
C90 C100 1.391 . S
C91 C86 1.431 . S
C91 C87 1.317 . S
C91 H102 0.930 . S
C92 C86 1.412 . S
C92 C93 1.355 . S
C92 H104 0.930 . S
C93 C92 1.355 . S
C93 C95 1.402 . S
C93 H105 0.930 . S
N94 Gd85 2.661 . S
N94 C89 1.350 . S
N94 C95 1.307 . S
C95 C93 1.402 . S
C95 N94 1.307 . S
C95 H96 0.930 . S
H96 C95 0.930 . S
C97 N98 1.334 . S
C97 C99 1.394 . S
C97 H101 0.930 . S
N98 Gd85 2.601 . S
N98 C88 1.359 . S
N98 C97 1.334 . S
C99 C97 1.394 . S
C99 C100 1.359 . S
C99 H111 0.930 . S
C100 C90 1.391 . S
C100 C99 1.359 . S
C100 H112 0.929 . S
H101 C97 0.930 . S
H102 C91 0.930 . S
H103 C120 0.930 . S
H104 C92 0.930 . S
H105 C93 0.930 . S
H106 C87 0.929 . S
H107 C125 0.930 1_545 S
H108 C116 0.930 1_455 S
H109 C117 0.930 . S
H110 C141 0.929 . S
H111 C99 0.930 . S
H112 C100 0.929 . S
H113 C142 0.930 . S
H114 C123 0.930 . S
N115 Gd84 2.661 . S
N115 C119 1.350 . S
N115 C120 1.307 . S
C116 H108 0.930 1_655 S
C116 C117 1.355 1_655 S
C116 C118 1.412 . S
C117 H109 0.930 . S
C117 C116 1.355 1_455 S
C117 C120 1.402 1_455 S
C118 C116 1.412 . S
C118 C119 1.417 . S
C118 C142 1.431 1_545 S
C119 N115 1.350 . S
C119 C118 1.417 . S
C119 C122 1.426 . S
C120 H103 0.930 . S
C120 N115 1.307 . S
C120 C117 1.402 1_655 S
N121 Gd84 2.601 . S
N121 C122 1.359 . S
N121 C125 1.334 1_545 S
C122 C119 1.426 . S
C122 N121 1.359 . S
C122 C126 1.413 1_545 S
C123 H114 0.930 . S
C123 C124 1.359 . S
C123 C125 1.394 . S
C124 C123 1.359 . S
C124 C126 1.391 . S
C124 H127 0.929 . S
C125 H107 0.930 1_565 S
C125 N121 1.334 1_565 S
C125 C123 1.394 . S
C126 C122 1.413 1_565 S
C126 C124 1.391 . S
C126 C141 1.437 . S
H127 C124 0.929 . S
O128 Gd84 2.545 . S
O128 C143 1.258 . S
O129 Gd84 2.606 . S
O129 Gd85 2.362 . S
O129 C140 1.284 . S
O130 Gd85 2.324 . S
O130 C150 1.254 . S
O131 Gd84 2.429 . S
O131 C150 1.268 . S
O132 Gd84 2.545 . S
O132 C140 1.250 . S
O133 Gd84 2.412 . S
O133 C143 1.252 . S
O134 Gd85 2.545 . S
O134 C152 1.258 . S
O135 Gd84 2.362 . S
O135 Gd85 2.606 . S
O135 C151 1.284 . S
O136 Gd84 2.324 . S
O136 C159 1.254 . S
O137 Gd85 2.429 . S
O137 C159 1.268 . S
O138 Gd85 2.545 . S
O138 C151 1.250 . S
O139 Gd85 2.412 . S
O139 C152 1.252 . S
C140 O129 1.284 . S
C140 O132 1.250 . S
C141 H110 0.929 . S
C141 C126 1.437 . S
C141 C142 1.317 . S
C142 H113 0.930 . S
C142 C118 1.431 1_565 S
C142 C141 1.317 . S
C143 Gd84 2.828 . S
C143 O128 1.258 . S
C143 O133 1.252 . S
C143 C144 1.497 . S
C144 C143 1.497 . S
C144 C145 1.395 . S
C144 C146 1.380 . S
C145 C144 1.395 . S
C145 C148 1.398 . S
C145 H160 0.930 . S
C146 C144 1.380 . S
C146 C147 1.391 1_655 S
C146 H161 0.930 1_655 S
C147 C146 1.391 1_455 S
C147 C149 1.387 . S
C148 C145 1.398 . S
C148 C149 1.380 1_655 S
C148 H162 0.930 . S
C149 C147 1.387 . S
C149 C148 1.380 1_455 S
C149 H163 0.930 . S
C150 O130 1.254 . S
C150 O131 1.268 . S
C151 O135 1.284 . S
C151 O138 1.250 . S
C152 Gd85 2.828 . S
C152 O134 1.258 . S
C152 O139 1.252 . S
C152 C153 1.497 . S
C153 C152 1.497 . S
C153 C154 1.395 . S
C153 C155 1.380 . S
C154 C153 1.395 . S
C154 C157 1.398 . S
C154 H164 0.930 . S
C155 C153 1.380 . S
C155 C156 1.391 . S
C155 H165 0.930 . S
C156 C155 1.391 . S
C156 C158 1.387 . S
C157 C154 1.398 . S
C157 C158 1.380 . S
C157 H166 0.930 . S
C158 C156 1.387 . S
C158 C157 1.380 . S
C158 H167 0.930 . S
C159 O136 1.254 . S
C159 O137 1.268 . S
H160 C145 0.930 . S
H161 C146 0.930 1_455 S
H162 C148 0.930 . S
H163 C149 0.930 . S
H164 C154 0.930 . S
H165 C155 0.930 . S
H166 C157 0.930 . S
H167 C158 0.930 . S
Gd168 N199 2.661 . S
Gd168 N205 2.601 . S
Gd168 O212 2.545 . S
Gd168 O213 2.606 . S
Gd168 O215 2.429 . S
Gd168 O216 2.545 . S
Gd168 O217 2.412 . S
Gd168 O219 2.362 . S
Gd168 O220 2.324 . S
Gd168 C227 2.828 . S
Gd169 N178 2.661 . S
Gd169 N182 2.601 . S
Gd169 O213 2.362 . S
Gd169 O214 2.324 . S
Gd169 O218 2.545 . S
Gd169 O219 2.606 . S
Gd169 O221 2.429 . S
Gd169 O222 2.545 . S
Gd169 O223 2.412 . S
Gd169 C236 2.828 . S
C170 C173 1.417 . S
C170 C175 1.431 . S
C170 C176 1.412 . S
C171 C174 1.437 . S
C171 C175 1.317 . S
C171 H190 0.929 . S
C172 C173 1.426 . S
C172 C174 1.413 . S
C172 N182 1.359 . S
C173 C170 1.417 . S
C173 C172 1.426 . S
C173 N178 1.350 . S
C174 C171 1.437 . S
C174 C172 1.413 . S
C174 C184 1.391 . S
C175 C170 1.431 . S
C175 C171 1.317 . S
C175 H186 0.930 . S
C176 C170 1.412 . S
C176 C177 1.355 . S
C176 H188 0.930 . S
C177 C176 1.355 . S
C177 C179 1.402 . S
C177 H189 0.930 . S
N178 Gd169 2.661 . S
N178 C173 1.350 . S
N178 C179 1.307 . S
C179 C177 1.402 . S
C179 N178 1.307 . S
C179 H180 0.930 . S
H180 C179 0.930 . S
C181 N182 1.334 . S
C181 C183 1.394 . S
C181 H185 0.930 . S
N182 Gd169 2.601 . S
N182 C172 1.359 . S
N182 C181 1.334 . S
C183 C181 1.394 . S
C183 C184 1.359 . S
C183 H195 0.930 . S
C184 C174 1.391 . S
C184 C183 1.359 . S
C184 H196 0.929 . S
H185 C181 0.930 . S
H186 C175 0.930 . S
H187 C204 0.930 . S
H188 C176 0.930 . S
H189 C177 0.930 . S
H190 C171 0.929 . S
H191 C209 0.930 . S
H192 C200 0.930 1_545 S
H193 C201 0.930 . S
H194 C225 0.929 . S
H195 C183 0.930 . S
H196 C184 0.929 . S
H197 C226 0.930 . S
H198 C207 0.930 . S
N199 Gd168 2.661 . S
N199 C203 1.350 . S
N199 C204 1.307 . S
C200 H192 0.930 1_565 S
C200 C201 1.355 1_565 S
C200 C202 1.412 . S
C201 H193 0.930 . S
C201 C200 1.355 1_545 S
C201 C204 1.402 1_545 S
C202 C200 1.412 . S
C202 C203 1.417 . S
C202 C226 1.431 . S
C203 N199 1.350 . S
C203 C202 1.417 . S
C203 C206 1.426 . S
C204 H187 0.930 . S
C204 N199 1.307 . S
C204 C201 1.402 1_565 S
N205 Gd168 2.601 . S
N205 C206 1.359 . S
N205 C209 1.334 . S
C206 C203 1.426 . S
C206 N205 1.359 . S
C206 C210 1.413 . S
C207 H198 0.930 . S
C207 C208 1.359 . S
C207 C209 1.394 . S
C208 C207 1.359 . S
C208 C210 1.391 . S
C208 H211 0.929 . S
C209 H191 0.930 . S
C209 N205 1.334 . S
C209 C207 1.394 . S
C210 C206 1.413 . S
C210 C208 1.391 . S
C210 C225 1.437 . S
H211 C208 0.929 . S
O212 Gd168 2.545 . S
O212 C227 1.258 . S
O213 Gd168 2.606 . S
O213 Gd169 2.362 . S
O213 C224 1.284 . S
O214 Gd169 2.324 . S
O214 C234 1.254 . S
O215 Gd168 2.429 . S
O215 C234 1.268 . S
O216 Gd168 2.545 . S
O216 C224 1.250 . S
O217 Gd168 2.412 . S
O217 C227 1.252 . S
O218 Gd169 2.545 . S
O218 C236 1.258 . S
O219 Gd168 2.362 . S
O219 Gd169 2.606 . S
O219 C235 1.284 . S
O220 Gd168 2.324 . S
O220 C243 1.254 . S
O221 Gd169 2.429 . S
O221 C243 1.268 . S
O222 Gd169 2.545 . S
O222 C235 1.250 . S
O223 Gd169 2.412 . S
O223 C236 1.252 . S
C224 O213 1.284 . S
C224 O216 1.250 . S
C225 H194 0.929 . S
C225 C210 1.437 . S
C225 C226 1.317 . S
C226 H197 0.930 . S
C226 C202 1.431 . S
C226 C225 1.317 . S
C227 Gd168 2.828 . S
C227 O212 1.258 . S
C227 O217 1.252 . S
C227 C228 1.497 . S
C228 C227 1.497 . S
C228 C229 1.395 . S
C228 C230 1.380 . S
C229 C228 1.395 . S
C229 C232 1.398 . S
C229 H244 0.930 . S
C230 C228 1.380 . S
C230 C231 1.391 1_565 S
C230 H245 0.930 1_565 S
C231 C230 1.391 1_545 S
C231 C233 1.387 . S
C232 C229 1.398 . S
C232 C233 1.380 1_565 S
C232 H246 0.930 . S
C233 C231 1.387 . S
C233 C232 1.380 1_545 S
C233 H247 0.930 . S
C234 O214 1.254 . S
C234 O215 1.268 . S
C235 O219 1.284 . S
C235 O222 1.250 . S
C236 Gd169 2.828 . S
C236 O218 1.258 . S
C236 O223 1.252 . S
C236 C237 1.497 . S
C237 C236 1.497 . S
C237 C238 1.395 . S
C237 C239 1.380 . S
C238 C237 1.395 . S
C238 C241 1.398 . S
C238 H248 0.930 . S
C239 C237 1.380 . S
C239 C240 1.391 . S
C239 H249 0.930 . S
C240 C239 1.391 . S
C240 C242 1.387 . S
C241 C238 1.398 . S
C241 C242 1.380 . S
C241 H250 0.930 . S
C242 C240 1.387 . S
C242 C241 1.380 . S
C242 H251 0.930 . S
C243 O220 1.254 . S
C243 O221 1.268 . S
H244 C229 0.930 . S
H245 C230 0.930 1_545 S
H246 C232 0.930 . S
H247 C233 0.930 . S
H248 C238 0.930 . S
H249 C239 0.930 . S
H250 C241 0.930 . S
H251 C242 0.930 . S
Gd252 N283 2.661 1_556 S
Gd252 N289 2.601 . S
Gd252 O296 2.545 . S
Gd252 O297 2.606 . S
Gd252 O299 2.429 . S
Gd252 O300 2.545 . S
Gd252 O301 2.412 . S
Gd252 O303 2.362 1_556 S
Gd252 O304 2.324 1_556 S
Gd252 C311 2.828 . S
Gd253 N262 2.661 . S
Gd253 N266 2.601 . S
Gd253 O297 2.362 1_554 S
Gd253 O298 2.324 . S
Gd253 O302 2.545 . S
Gd253 O303 2.606 . S
Gd253 O305 2.429 . S
Gd253 O306 2.545 . S
Gd253 O307 2.412 . S
Gd253 C320 2.828 . S
C254 C257 1.417 1_556 S
C254 C259 1.431 . S
C254 C260 1.412 . S
C255 C258 1.437 . S
C255 C259 1.317 1_554 S
C255 H274 0.929 . S
C256 C257 1.426 . S
C256 C258 1.413 . S
C256 N266 1.359 . S
C257 C254 1.417 1_554 S
C257 C256 1.426 . S
C257 N262 1.350 . S
C258 C255 1.437 . S
C258 C256 1.413 . S
C258 C268 1.391 . S
C259 C254 1.431 . S
C259 C255 1.317 1_556 S
C259 H270 0.930 . S
C260 C254 1.412 . S
C260 C261 1.355 . S
C260 H272 0.930 . S
C261 C260 1.355 . S
C261 C263 1.402 . S
C261 H273 0.930 . S
N262 Gd253 2.661 . S
N262 C257 1.350 . S
N262 C263 1.307 1_554 S
C263 C261 1.402 . S
C263 N262 1.307 1_556 S
C263 H264 0.930 . S
H264 C263 0.930 . S
C265 N266 1.334 . S
C265 C267 1.394 . S
C265 H269 0.930 . S
N266 Gd253 2.601 . S
N266 C256 1.359 . S
N266 C265 1.334 . S
C267 C265 1.394 . S
C267 C268 1.359 . S
C267 H279 0.930 . S
C268 C258 1.391 . S
C268 C267 1.359 . S
C268 H280 0.929 . S
H269 C265 0.930 . S
H270 C259 0.930 . S
H271 C288 0.930 . S
H272 C260 0.930 . S
H273 C261 0.930 . S
H274 C255 0.929 . S
H275 C293 0.930 1_655 S
H276 C284 0.930 . S
H277 C285 0.930 . S
H278 C309 0.929 . S
H279 C267 0.930 . S
H280 C268 0.929 . S
H281 C310 0.930 . S
H282 C291 0.930 . S
N283 Gd252 2.661 1_554 S
N283 C287 1.350 . S
N283 C288 1.307 . S
C284 H276 0.930 . S
C284 C285 1.355 . S
C284 C286 1.412 . S
C285 H277 0.930 . S
C285 C284 1.355 . S
C285 C288 1.402 . S
C286 C284 1.412 . S
C286 C287 1.417 . S
C286 C310 1.431 1_655 S
C287 N283 1.350 . S
C287 C286 1.417 . S
C287 C290 1.426 . S
C288 H271 0.930 . S
C288 N283 1.307 . S
C288 C285 1.402 . S
N289 Gd252 2.601 . S
N289 C290 1.359 1_556 S
N289 C293 1.334 1_655 S
C290 C287 1.426 . S
C290 N289 1.359 1_554 S
C290 C294 1.413 1_655 S
C291 H282 0.930 . S
C291 C292 1.359 . S
C291 C293 1.394 . S
C292 C291 1.359 . S
C292 C294 1.391 1_556 S
C292 H295 0.929 . S
C293 H275 0.930 1_455 S
C293 N289 1.334 1_455 S
C293 C291 1.394 . S
C294 C290 1.413 1_455 S
C294 C292 1.391 1_554 S
C294 C309 1.437 . S
H295 C292 0.929 . S
O296 Gd252 2.545 . S
O296 C311 1.258 . S
O297 Gd252 2.606 . S
O297 Gd253 2.362 1_556 S
O297 C308 1.284 . S
O298 Gd253 2.324 . S
O298 C318 1.254 . S
O299 Gd252 2.429 . S
O299 C318 1.268 1_556 S
O300 Gd252 2.545 . S
O300 C308 1.250 . S
O301 Gd252 2.412 . S
O301 C311 1.252 . S
O302 Gd253 2.545 . S
O302 C320 1.258 . S
O303 Gd252 2.362 1_554 S
O303 Gd253 2.606 . S
O303 C319 1.284 . S
O304 Gd252 2.324 1_554 S
O304 C327 1.254 . S
O305 Gd253 2.429 . S
O305 C327 1.268 . S
O306 Gd253 2.545 . S
O306 C319 1.250 . S
O307 Gd253 2.412 . S
O307 C320 1.252 . S
C308 O297 1.284 . S
C308 O300 1.250 . S
C309 H278 0.929 . S
C309 C294 1.437 . S
C309 C310 1.317 . S
C310 H281 0.930 . S
C310 C286 1.431 1_455 S
C310 C309 1.317 . S
C311 Gd252 2.828 . S
C311 O296 1.258 . S
C311 O301 1.252 . S
C311 C312 1.497 . S
C312 C311 1.497 . S
C312 C313 1.395 . S
C312 C314 1.380 . S
C313 C312 1.395 . S
C313 C316 1.398 . S
C313 H328 0.930 . S
C314 C312 1.380 . S
C314 C315 1.391 . S
C314 H329 0.930 . S
C315 C314 1.391 . S
C315 C317 1.387 . S
C316 C313 1.398 . S
C316 C317 1.380 . S
C316 H330 0.930 . S
C317 C315 1.387 . S
C317 C316 1.380 . S
C317 H331 0.930 . S
C318 O298 1.254 . S
C318 O299 1.268 1_554 S
C319 O303 1.284 . S
C319 O306 1.250 . S
C320 Gd253 2.828 . S
C320 O302 1.258 . S
C320 O307 1.252 . S
C320 C321 1.497 . S
C321 C320 1.497 . S
C321 C322 1.395 . S
C321 C323 1.380 . S
C322 C321 1.395 . S
C322 C325 1.398 . S
C322 H332 0.930 . S
C323 C321 1.380 . S
C323 C324 1.391 . S
C323 H333 0.930 . S
C324 C323 1.391 . S
C324 C326 1.387 . S
C325 C322 1.398 . S
C325 C326 1.380 . S
C325 H334 0.930 . S
C326 C324 1.387 . S
C326 C325 1.380 . S
C326 H335 0.930 . S
C327 O304 1.254 . S
C327 O305 1.268 . S
H328 C313 0.930 . S
H329 C314 0.930 . S
H330 C316 0.930 . S
H331 C317 0.930 . S
H332 C322 0.930 . S
H333 C323 0.930 . S
H334 C325 0.930 . S
H335 C326 0.930 . S
Gd336 N367 2.661 . S
Gd336 N373 2.601 . S
Gd336 O380 2.545 . S
Gd336 O381 2.606 . S
Gd336 O383 2.429 . S
Gd336 O384 2.545 . S
Gd336 O385 2.412 . S
Gd336 O387 2.362 . S
Gd336 O388 2.324 . S
Gd336 C395 2.828 . S
Gd337 N346 2.661 . S
Gd337 N350 2.601 . S
Gd337 O381 2.362 . S
Gd337 O382 2.324 . S
Gd337 O386 2.545 . S
Gd337 O387 2.606 . S
Gd337 O389 2.429 . S
Gd337 O390 2.545 . S
Gd337 O391 2.412 . S
Gd337 C404 2.828 . S
C338 C341 1.417 . S
C338 C343 1.431 . S
C338 C344 1.412 . S
C339 C342 1.437 . S
C339 C343 1.317 . S
C339 H358 0.929 . S
C340 C341 1.426 . S
C340 C342 1.413 . S
C340 N350 1.359 . S
C341 C338 1.417 . S
C341 C340 1.426 . S
C341 N346 1.350 . S
C342 C339 1.437 . S
C342 C340 1.413 . S
C342 C352 1.391 . S
C343 C338 1.431 . S
C343 C339 1.317 . S
C343 H354 0.930 . S
C344 C338 1.412 . S
C344 C345 1.355 . S
C344 H356 0.930 . S
C345 C344 1.355 . S
C345 C347 1.402 . S
C345 H357 0.930 . S
N346 Gd337 2.661 . S
N346 C341 1.350 . S
N346 C347 1.307 . S
C347 C345 1.402 . S
C347 N346 1.307 . S
C347 H348 0.930 . S
H348 C347 0.930 . S
C349 N350 1.334 . S
C349 C351 1.394 . S
C349 H353 0.930 . S
N350 Gd337 2.601 . S
N350 C340 1.359 . S
N350 C349 1.334 . S
C351 C349 1.394 . S
C351 C352 1.359 . S
C351 H363 0.930 . S
C352 C342 1.391 . S
C352 C351 1.359 . S
C352 H364 0.929 . S
H353 C349 0.930 . S
H354 C343 0.930 . S
H355 C372 0.930 . S
H356 C344 0.930 . S
H357 C345 0.930 . S
H358 C339 0.929 . S
H359 C377 0.930 1_565 S
H360 C368 0.930 1_655 S
H361 C369 0.930 . S
H362 C393 0.929 . S
H363 C351 0.930 . S
H364 C352 0.929 . S
H365 C394 0.930 . S
H366 C375 0.930 . S
N367 Gd336 2.661 . S
N367 C371 1.350 . S
N367 C372 1.307 . S
C368 H360 0.930 1_455 S
C368 C369 1.355 1_455 S
C368 C370 1.412 . S
C369 H361 0.930 . S
C369 C368 1.355 1_655 S
C369 C372 1.402 1_655 S
C370 C368 1.412 . S
C370 C371 1.417 . S
C370 C394 1.431 1_565 S
C371 N367 1.350 . S
C371 C370 1.417 . S
C371 C374 1.426 . S
C372 H355 0.930 . S
C372 N367 1.307 . S
C372 C369 1.402 1_455 S
N373 Gd336 2.601 . S
N373 C374 1.359 . S
N373 C377 1.334 1_565 S
C374 C371 1.426 . S
C374 N373 1.359 . S
C374 C378 1.413 1_565 S
C375 H366 0.930 . S
C375 C376 1.359 . S
C375 C377 1.394 . S
C376 C375 1.359 . S
C376 C378 1.391 . S
C376 H379 0.929 . S
C377 H359 0.930 1_545 S
C377 N373 1.334 1_545 S
C377 C375 1.394 . S
C378 C374 1.413 1_545 S
C378 C376 1.391 . S
C378 C393 1.437 . S
H379 C376 0.929 . S
O380 Gd336 2.545 . S
O380 C395 1.258 . S
O381 Gd336 2.606 . S
O381 Gd337 2.362 . S
O381 C392 1.284 . S
O382 Gd337 2.324 . S
O382 C402 1.254 . S
O383 Gd336 2.429 . S
O383 C402 1.268 . S
O384 Gd336 2.545 . S
O384 C392 1.250 . S
O385 Gd336 2.412 . S
O385 C395 1.252 . S
O386 Gd337 2.545 . S
O386 C404 1.258 . S
O387 Gd336 2.362 . S
O387 Gd337 2.606 . S
O387 C403 1.284 . S
O388 Gd336 2.324 . S
O388 C411 1.254 . S
O389 Gd337 2.429 . S
O389 C411 1.268 . S
O390 Gd337 2.545 . S
O390 C403 1.250 . S
O391 Gd337 2.412 . S
O391 C404 1.252 . S
C392 O381 1.284 . S
C392 O384 1.250 . S
C393 H362 0.929 . S
C393 C378 1.437 . S
C393 C394 1.317 . S
C394 H365 0.930 . S
C394 C370 1.431 1_545 S
C394 C393 1.317 . S
C395 Gd336 2.828 . S
C395 O380 1.258 . S
C395 O385 1.252 . S
C395 C396 1.497 . S
C396 C395 1.497 . S
C396 C397 1.395 . S
C396 C398 1.380 . S
C397 C396 1.395 . S
C397 C400 1.398 . S
C397 H412 0.930 . S
C398 C396 1.380 . S
C398 C399 1.391 1_455 S
C398 H413 0.930 1_455 S
C399 C398 1.391 1_655 S
C399 C401 1.387 . S
C400 C397 1.398 . S
C400 C401 1.380 1_455 S
C400 H414 0.930 . S
C401 C399 1.387 . S
C401 C400 1.380 1_655 S
C401 H415 0.930 . S
C402 O382 1.254 . S
C402 O383 1.268 . S
C403 O387 1.284 . S
C403 O390 1.250 . S
C404 Gd337 2.828 . S
C404 O386 1.258 . S
C404 O391 1.252 . S
C404 C405 1.497 . S
C405 C404 1.497 . S
C405 C406 1.395 . S
C405 C407 1.380 . S
C406 C405 1.395 . S
C406 C409 1.398 . S
C406 H416 0.930 . S
C407 C405 1.380 . S
C407 C408 1.391 . S
C407 H417 0.930 . S
C408 C407 1.391 . S
C408 C410 1.387 . S
C409 C406 1.398 . S
C409 C410 1.380 . S
C409 H418 0.930 . S
C410 C408 1.387 . S
C410 C409 1.380 . S
C410 H419 0.930 . S
C411 O388 1.254 . S
C411 O389 1.268 . S
H412 C397 0.930 . S
H413 C398 0.930 1_655 S
H414 C400 0.930 . S
H415 C401 0.930 . S
H416 C406 0.930 . S
H417 C407 0.930 . S
H418 C409 0.930 . S
H419 C410 0.930 . S
Gd420 N451 2.661 . S
Gd420 N457 2.601 . S
Gd420 O464 2.545 . S
Gd420 O465 2.606 . S
Gd420 O467 2.429 . S
Gd420 O468 2.545 . S
Gd420 O469 2.412 . S
Gd420 O471 2.362 . S
Gd420 O472 2.324 . S
Gd420 C479 2.828 . S
Gd421 N430 2.661 . S
Gd421 N434 2.601 . S
Gd421 O465 2.362 . S
Gd421 O466 2.324 . S
Gd421 O470 2.545 . S
Gd421 O471 2.606 . S
Gd421 O473 2.429 . S
Gd421 O474 2.545 . S
Gd421 O475 2.412 . S
Gd421 C488 2.828 . S
C422 C425 1.417 . S
C422 C427 1.431 . S
C422 C428 1.412 . S
C423 C426 1.437 . S
C423 C427 1.317 . S
C423 H442 0.929 . S
C424 C425 1.426 . S
C424 C426 1.413 . S
C424 N434 1.359 . S
C425 C422 1.417 . S
C425 C424 1.426 . S
C425 N430 1.350 . S
C426 C423 1.437 . S
C426 C424 1.413 . S
C426 C436 1.391 . S
C427 C422 1.431 . S
C427 C423 1.317 . S
C427 H438 0.930 . S
C428 C422 1.412 . S
C428 C429 1.355 . S
C428 H440 0.930 . S
C429 C428 1.355 . S
C429 C431 1.402 . S
C429 H441 0.930 . S
N430 Gd421 2.661 . S
N430 C425 1.350 . S
N430 C431 1.307 . S
C431 C429 1.402 . S
C431 N430 1.307 . S
C431 H432 0.930 . S
H432 C431 0.930 . S
C433 N434 1.334 . S
C433 C435 1.394 . S
C433 H437 0.930 . S
N434 Gd421 2.601 . S
N434 C424 1.359 . S
N434 C433 1.334 . S
C435 C433 1.394 . S
C435 C436 1.359 . S
C435 H447 0.930 . S
C436 C426 1.391 . S
C436 C435 1.359 . S
C436 H448 0.929 . S
H437 C433 0.930 . S
H438 C427 0.930 . S
H439 C456 0.930 . S
H440 C428 0.930 . S
H441 C429 0.930 . S
H442 C423 0.929 . S
H443 C461 0.930 . S
H444 C452 0.930 1_565 S
H445 C453 0.930 . S
H446 C477 0.929 . S
H447 C435 0.930 . S
H448 C436 0.929 . S
H449 C478 0.930 . S
H450 C459 0.930 . S
N451 Gd420 2.661 . S
N451 C455 1.350 . S
N451 C456 1.307 . S
C452 H444 0.930 1_545 S
C452 C453 1.355 1_545 S
C452 C454 1.412 . S
C453 H445 0.930 . S
C453 C452 1.355 1_565 S
C453 C456 1.402 1_565 S
C454 C452 1.412 . S
C454 C455 1.417 . S
C454 C478 1.431 . S
C455 N451 1.350 . S
C455 C454 1.417 . S
C455 C458 1.426 . S
C456 H439 0.930 . S
C456 N451 1.307 . S
C456 C453 1.402 1_545 S
N457 Gd420 2.601 . S
N457 C458 1.359 . S
N457 C461 1.334 . S
C458 C455 1.426 . S
C458 N457 1.359 . S
C458 C462 1.413 . S
C459 H450 0.930 . S
C459 C460 1.359 . S
C459 C461 1.394 . S
C460 C459 1.359 . S
C460 C462 1.391 . S
C460 H463 0.929 . S
C461 H443 0.930 . S
C461 N457 1.334 . S
C461 C459 1.394 . S
C462 C458 1.413 . S
C462 C460 1.391 . S
C462 C477 1.437 . S
H463 C460 0.929 . S
O464 Gd420 2.545 . S
O464 C479 1.258 . S
O465 Gd420 2.606 . S
O465 Gd421 2.362 . S
O465 C476 1.284 . S
O466 Gd421 2.324 . S
O466 C486 1.254 . S
O467 Gd420 2.429 . S
O467 C486 1.268 . S
O468 Gd420 2.545 . S
O468 C476 1.250 . S
O469 Gd420 2.412 . S
O469 C479 1.252 . S
O470 Gd421 2.545 . S
O470 C488 1.258 . S
O471 Gd420 2.362 . S
O471 Gd421 2.606 . S
O471 C487 1.284 . S
O472 Gd420 2.324 . S
O472 C495 1.254 . S
O473 Gd421 2.429 . S
O473 C495 1.268 . S
O474 Gd421 2.545 . S
O474 C487 1.250 . S
O475 Gd421 2.412 . S
O475 C488 1.252 . S
C476 O465 1.284 . S
C476 O468 1.250 . S
C477 H446 0.929 . S
C477 C462 1.437 . S
C477 C478 1.317 . S
C478 H449 0.930 . S
C478 C454 1.431 . S
C478 C477 1.317 . S
C479 Gd420 2.828 . S
C479 O464 1.258 . S
C479 O469 1.252 . S
C479 C480 1.497 . S
C480 C479 1.497 . S
C480 C481 1.395 . S
C480 C482 1.380 . S
C481 C480 1.395 . S
C481 C484 1.398 . S
C481 H496 0.930 . S
C482 C480 1.380 . S
C482 C483 1.391 1_545 S
C482 H497 0.930 1_545 S
C483 C482 1.391 1_565 S
C483 C485 1.387 . S
C484 C481 1.398 . S
C484 C485 1.380 1_545 S
C484 H498 0.930 . S
C485 C483 1.387 . S
C485 C484 1.380 1_565 S
C485 H499 0.930 . S
C486 O466 1.254 . S
C486 O467 1.268 . S
C487 O471 1.284 . S
C487 O474 1.250 . S
C488 Gd421 2.828 . S
C488 O470 1.258 . S
C488 O475 1.252 . S
C488 C489 1.497 . S
C489 C488 1.497 . S
C489 C490 1.395 . S
C489 C491 1.380 . S
C490 C489 1.395 . S
C490 C493 1.398 . S
C490 H500 0.930 . S
C491 C489 1.380 . S
C491 C492 1.391 . S
C491 H501 0.930 . S
C492 C491 1.391 . S
C492 C494 1.387 . S
C493 C490 1.398 . S
C493 C494 1.380 . S
C493 H502 0.930 . S
C494 C492 1.387 . S
C494 C493 1.380 . S
C494 H503 0.930 . S
C495 O472 1.254 . S
C495 O473 1.268 . S
H496 C481 0.930 . S
H497 C482 0.930 1_565 S
H498 C484 0.930 . S
H499 C485 0.930 . S
H500 C490 0.930 . S
H501 C491 0.930 . S
H502 C493 0.930 . S
H503 C494 0.930 . S
C504 C505 1.369 . S
C504 C506 1.419 . S
C504 H508 0.930 . S
C505 C504 1.369 . S
C505 C514 1.429 . S
C506 C504 1.419 . S
C506 C507 1.363 . S
C506 H509 0.929 . S
C507 C506 1.363 . S
C507 C513 1.428 . S
H508 C504 0.930 . S
H509 C506 0.929 . S
S510 N511 1.613 . S
S510 N512 1.610 . S
N511 S510 1.613 . S
N511 C514 1.350 . S
N512 S510 1.610 . S
N512 C513 1.351 . S
C513 C507 1.428 . S
C513 N512 1.351 . S
C513 C514 1.434 . S
C514 C505 1.429 . S
C514 N511 1.350 . S
C514 C513 1.434 . S
C515 C516 1.369 . S
C515 C517 1.419 . S
C515 H519 0.930 . S
C516 C515 1.369 . S
C516 C525 1.429 . S
C517 C515 1.419 . S
C517 C518 1.363 . S
C517 H520 0.929 . S
C518 C517 1.363 . S
C518 C524 1.428 . S
H519 C515 0.930 . S
H520 C517 0.929 . S
S521 N522 1.613 . S
S521 N523 1.610 . S
N522 S521 1.613 . S
N522 C525 1.350 . S
N523 S521 1.610 . S
N523 C524 1.351 . S
C524 C518 1.428 . S
C524 N523 1.351 . S
C524 C525 1.434 . S
C525 C516 1.429 . S
C525 N522 1.350 . S
C525 C524 1.434 . S
C526 C527 1.369 . S
C526 C528 1.419 . S
C526 H530 0.930 . S
C527 C526 1.369 . S
C527 C536 1.429 . S
C528 C526 1.419 . S
C528 C529 1.363 . S
C528 H531 0.929 . S
C529 C528 1.363 . S
C529 C535 1.428 . S
H530 C526 0.930 . S
H531 C528 0.929 . S
S532 N533 1.613 . S
S532 N534 1.610 . S
N533 S532 1.613 . S
N533 C536 1.350 . S
N534 S532 1.610 . S
N534 C535 1.351 . S
C535 C529 1.428 . S
C535 N534 1.351 . S
C535 C536 1.434 . S
C536 C527 1.429 . S
C536 N533 1.350 . S
C536 C535 1.434 . S
C537 C538 1.369 . S
C537 C539 1.419 . S
C537 H541 0.930 . S
C538 C537 1.369 . S
C538 C547 1.429 . S
C539 C537 1.419 . S
C539 C540 1.363 . S
C539 H542 0.929 . S
C540 C539 1.363 . S
C540 C546 1.428 . S
H541 C537 0.930 . S
H542 C539 0.929 . S
S543 N544 1.613 . S
S543 N545 1.610 . S
N544 S543 1.613 . S
N544 C547 1.350 . S
N545 S543 1.610 . S
N545 C546 1.351 . S
C546 C540 1.428 . S
C546 N545 1.351 . S
C546 C547 1.434 . S
C547 C538 1.429 . S
C547 N544 1.350 . S
C547 C546 1.434 . S
C548 C549 1.369 . S
C548 C550 1.419 . S
C548 H552 0.930 . S
C549 C548 1.369 . S
C549 C558 1.429 . S
C550 C548 1.419 . S
C550 C551 1.363 . S
C550 H553 0.929 . S
C551 C550 1.363 . S
C551 C557 1.428 . S
H552 C548 0.930 . S
H553 C550 0.929 . S
S554 N555 1.613 . S
S554 N556 1.610 . S
N555 S554 1.613 . S
N555 C558 1.350 . S
N556 S554 1.610 . S
N556 C557 1.351 . S
C557 C551 1.428 . S
C557 N556 1.351 . S
C557 C558 1.434 . S
C558 C549 1.429 . S
C558 N555 1.350 . S
C558 C557 1.434 . S
C559 C560 1.369 . S
C559 C561 1.419 . S
C559 H563 0.930 . S
C560 C559 1.369 . S
C560 C569 1.429 . S
C561 C559 1.419 . S
C561 C562 1.363 . S
C561 H564 0.929 . S
C562 C561 1.363 . S
C562 C568 1.428 . S
H563 C559 0.930 . S
H564 C561 0.929 . S
S565 N566 1.613 . S
S565 N567 1.610 . S
N566 S565 1.613 . S
N566 C569 1.350 . S
N567 S565 1.610 . S
N567 C568 1.351 . S
C568 C562 1.428 . S
C568 N567 1.351 . S
C568 C569 1.434 . S
C569 C560 1.429 . S
C569 N566 1.350 . S
C569 C568 1.434 . S
C570 C571 1.369 . S
C570 C572 1.419 . S
C570 H574 0.930 . S
C571 C570 1.369 . S
C571 C580 1.429 . S
C572 C570 1.419 . S
C572 C573 1.363 . S
C572 H575 0.929 . S
C573 C572 1.363 . S
C573 C579 1.428 . S
H574 C570 0.930 . S
H575 C572 0.929 . S
S576 N577 1.615 . S
S576 N578 1.612 . S
N577 S576 1.615 . S
N577 C580 1.350 . S
N578 S576 1.612 . S
N578 C579 1.351 . S
C579 C573 1.428 . S
C579 N578 1.351 . S
C579 C580 1.434 . S
C580 C571 1.429 . S
C580 N577 1.350 . S
C580 C579 1.434 . S
C581 C582 1.369 . S
C581 C583 1.419 . S
C581 H585 0.930 . S
C582 C581 1.369 . S
C582 C591 1.429 1_455 S
C583 C581 1.419 . S
C583 C584 1.363 1_455 S
C583 H586 0.929 . S
C584 C583 1.363 1_655 S
C584 C590 1.428 . S
H585 C581 0.930 . S
H586 C583 0.929 . S
S587 N588 1.613 . S
S587 N589 1.610 . S
N588 S587 1.613 . S
N588 C591 1.350 . S
N589 S587 1.610 . S
N589 C590 1.351 . S
C590 C584 1.428 . S
C590 N589 1.351 . S
C590 C591 1.434 . S
C591 C582 1.429 1_655 S
C591 N588 1.350 . S
C591 C590 1.434 . S
C592 C593 1.369 . S
C592 C594 1.419 . S
C592 H596 0.930 . S
C593 C592 1.369 . S
C593 C602 1.429 1_545 S
C594 C592 1.419 . S
C594 C595 1.363 1_545 S
C594 H597 0.929 . S
C595 C594 1.363 1_565 S
C595 C601 1.428 . S
H596 C592 0.930 . S
H597 C594 0.929 . S
S598 N599 1.613 . S
S598 N600 1.610 . S
N599 S598 1.613 . S
N599 C602 1.350 . S
N600 S598 1.610 . S
N600 C601 1.351 . S
C601 C595 1.428 . S
C601 N600 1.351 . S
C601 C602 1.434 . S
C602 C593 1.429 1_565 S
C602 N599 1.350 . S
C602 C601 1.434 . S
C603 C604 1.369 . S
C603 C605 1.419 . S
C603 H607 0.930 . S
C604 C603 1.369 . S
C604 C613 1.429 . S
C605 C603 1.419 . S
C605 C606 1.363 . S
C605 H608 0.929 . S
C606 C605 1.363 . S
C606 C612 1.428 . S
H607 C603 0.930 . S
H608 C605 0.929 . S
S609 N610 1.613 . S
S609 N611 1.610 . S
N610 S609 1.613 . S
N610 C613 1.350 . S
N611 S609 1.610 . S
N611 C612 1.351 . S
C612 C606 1.428 . S
C612 N611 1.351 . S
C612 C613 1.434 . S
C613 C604 1.429 . S
C613 N610 1.350 . S
C613 C612 1.434 . S
C614 C615 1.369 1_556 S
C614 C616 1.419 1_455 S
C614 H618 0.930 . S
C615 C614 1.369 1_554 S
C615 C624 1.429 . S
C616 C614 1.419 1_655 S
C616 C617 1.363 1_556 S
C616 H619 0.929 . S
C617 C616 1.363 1_554 S
C617 C623 1.428 . S
H618 C614 0.930 . S
H619 C616 0.929 . S
S620 N621 1.613 1_655 S
S620 N622 1.610 . S
N621 S620 1.613 1_455 S
N621 C624 1.350 . S
N622 S620 1.610 . S
N622 C623 1.351 . S
C623 C617 1.428 . S
C623 N622 1.351 . S
C623 C624 1.434 1_655 S
C624 C615 1.429 . S
C624 N621 1.350 . S
C624 C623 1.434 1_455 S
C625 C626 1.369 . S
C625 C627 1.419 . S
C625 H629 0.930 . S
C626 C625 1.369 . S
C626 C635 1.429 1_565 S
C627 C625 1.419 . S
C627 C628 1.363 1_565 S
C627 H630 0.929 . S
C628 C627 1.363 1_545 S
C628 C634 1.428 . S
H629 C625 0.930 . S
H630 C627 0.929 . S
S631 N632 1.613 . S
S631 N633 1.610 . S
N632 S631 1.613 . S
N632 C635 1.350 . S
N633 S631 1.610 . S
N633 C634 1.351 . S
C634 C628 1.428 . S
C634 N633 1.351 . S
C634 C635 1.434 . S
C635 C626 1.429 1_545 S
C635 N632 1.350 . S
C635 C634 1.434 . S
C636 C637 1.369 . S
C636 C638 1.419 . S
C636 H640 0.930 . S
C637 C636 1.369 . S
C637 C646 1.429 . S
C638 C636 1.419 . S
C638 C639 1.363 . S
C638 H641 0.929 . S
C639 C638 1.363 . S
C639 C645 1.428 . S
H640 C636 0.930 . S
H641 C638 0.929 . S
S642 N643 1.613 . S
S642 N644 1.610 . S
N643 S642 1.613 . S
N643 C646 1.350 . S
N644 S642 1.610 . S
N644 C645 1.351 . S
C645 C639 1.428 . S
C645 N644 1.351 . S
C645 C646 1.434 . S
C646 C637 1.429 . S
C646 N643 1.350 . S
C646 C645 1.434 . S
C647 C648 1.369 . S
C647 C649 1.419 . S
C647 H651 0.930 . S
C648 C647 1.369 . S
C648 C657 1.429 . S
C649 C647 1.419 . S
C649 C650 1.363 . S
C649 H652 0.929 . S
C650 C649 1.363 . S
C650 C656 1.428 . S
H651 C647 0.930 . S
H652 C649 0.929 . S
S653 N654 1.613 . S
S653 N655 1.610 1_655 S
N654 S653 1.613 . S
N654 C657 1.350 1_655 S
N655 S653 1.610 1_455 S
N655 C656 1.351 . S
C656 C650 1.428 . S
C656 N655 1.351 . S
C656 C657 1.434 . S
C657 C648 1.429 . S
C657 N654 1.350 1_455 S
C657 C656 1.434 . S
C658 C659 1.369 . S
C658 C660 1.419 . S
C658 H662 0.930 1_545 S
C659 C658 1.369 . S
C659 C668 1.429 . S
C660 C658 1.419 . S
C660 C661 1.363 . S
C660 H663 0.929 . S
C661 C660 1.363 . S
C661 C667 1.428 . S
H662 C658 0.930 1_565 S
H663 C660 0.929 . S
S664 N665 1.613 . S
S664 N666 1.610 . S
N665 S664 1.613 . S
N665 C668 1.350 . S
N666 S664 1.610 . S
N666 C667 1.351 . S
C667 C661 1.428 . S
C667 N666 1.351 . S
C667 C668 1.434 . S
C668 C659 1.429 . S
C668 N665 1.350 . S
C668 C667 1.434 . S
C669 C670 1.369 . S
C669 C671 1.419 . S
C669 H673 0.930 . S
C670 C669 1.369 . S
C670 C679 1.429 . S
C671 C669 1.419 . S
C671 C672 1.363 . S
C671 H674 0.929 . S
C672 C671 1.363 . S
C672 C678 1.428 . S
H673 C669 0.930 . S
H674 C671 0.929 . S
S675 N676 1.613 . S
S675 N677 1.610 . S
N676 S675 1.613 . S
N676 C679 1.350 . S
N677 S675 1.610 . S
N677 C678 1.351 . S
C678 C672 1.428 . S
C678 N677 1.351 . S
C678 C679 1.434 . S
C679 C670 1.429 . S
C679 N676 1.350 . S
C679 C678 1.434 . S
C680 C681 1.369 . S
C680 C682 1.419 . S
C680 H684 0.930 . S
C681 C680 1.369 . S
C681 C690 1.429 . S
C682 C680 1.419 . S
C682 C683 1.363 . S
C682 H685 0.929 . S
C683 C682 1.363 . S
C683 C689 1.428 . S
H684 C680 0.930 . S
H685 C682 0.929 . S
S686 N687 1.613 . S
S686 N688 1.610 1_455 S
N687 S686 1.613 . S
N687 C690 1.350 1_455 S
N688 S686 1.610 1_655 S
N688 C689 1.351 . S
C689 C683 1.428 . S
C689 N688 1.351 . S
C689 C690 1.434 . S
C690 C681 1.429 . S
C690 N687 1.350 1_655 S
C690 C689 1.434 . S
C691 C692 1.369 . S
C691 C693 1.419 . S
C691 H695 0.930 . S
C692 C691 1.369 . S
C692 C701 1.429 . S
C693 C691 1.419 . S
C693 C694 1.363 . S
C693 H696 0.929 . S
C694 C693 1.363 . S
C694 C700 1.428 . S
H695 C691 0.930 . S
H696 C693 0.929 . S
S697 N698 1.613 . S
S697 N699 1.610 . S
N698 S697 1.613 . S
N698 C701 1.350 . S
N699 S697 1.610 . S
N699 C700 1.351 . S
C700 C694 1.428 . S
C700 N699 1.351 . S
C700 C701 1.434 . S
C701 C692 1.429 . S
C701 N698 1.350 . S
C701 C700 1.434 . S
C505 C392 1.192 . S
C507 C72 1.057 . S
C516 C476 1.187 . S
C518 C156 1.062 . S
C527 C56 1.193 . S
C529 C240 1.046 . S
C538 C140 1.188 . S
C540 C324 1.061 . S
C549 C224 1.186 . S
C551 C408 1.062 . S
C560 C308 1.178 . S
C562 C492 1.052 . S
C571 C75 2.021 . S
C573 C327 2.015 . S
C582 C411 2.017 . S
C584 C159 2.015 . S
C593 C495 2.021 . S
C595 C243 2.015 . S
C604 C234 1.930 . S
C606 C486 1.934 . S
C615 C66 1.939 . S
C617 C318 1.935 . S
C626 C402 1.937 . S
C628 C150 1.931 . S
C637 C487 1.293 . S
C639 C63 1.275 . S
C648 C147 1.273 . S
C650 C67 1.291 . S
C659 C231 1.286 . S
C661 C151 1.281 . S
C670 C235 1.283 . S
C672 C315 1.282 . S
C681 C399 1.273 . S
C683 C319 1.291 . S
C692 C483 1.279 . S
C694 C403 1.286 . S
