# Generated by pormake.
# Topology smc, (6)-cn, num edge types: 1
# Building blocks:
#     Node 0, Type 0, BuildingBlock: OJICUG_clean_sbu_0, # of connection points: 6
#     Node 1, Type 0, BuildingBlock: OJICUG_clean_sbu_0, # of connection points: 6
#     Node 2, Type 0, BuildingBlock: OJICUG_clean_sbu_0, # of connection points: 6
#     Node 3, Type 0, BuildingBlock: OJICUG_clean_sbu_0, # of connection points: 6
#     Node 4, Type 0, BuildingBlock: OJICUG_clean_sbu_0, # of connection points: 6
#     Node 5, Type 0, BuildingBlock: OJICUG_clean_sbu_0, # of connection points: 6
#     Node 6, Type 0, BuildingBlock: OJICUG_clean_sbu_0, # of connection points: 6
#     Node 7, Type 0, BuildingBlock: OJICUG_clean_sbu_0, # of connection points: 6
#     Node 8, Type 0, BuildingBlock: OJICUG_clean_sbu_0, # of connection points: 6
#     Edge 9, Type (0, 0), BuildingBlock: AJUNOK_clean_linker_0, # of connection points: 2
#     Edge 10, Type (0, 0), BuildingBlock: AJUNOK_clean_linker_0, # of connection points: 2
#     Edge 11, Type (0, 0), BuildingBlock: AJUNOK_clean_linker_0, # of connection points: 2
#     Edge 12, Type (0, 0), BuildingBlock: AJUNOK_clean_linker_0, # of connection points: 2
#     Edge 13, Type (0, 0), BuildingBlock: AJUNOK_clean_linker_0, # of connection points: 2
#     Edge 14, Type (0, 0), BuildingBlock: AJUNOK_clean_linker_0, # of connection points: 2
#     Edge 15, Type (0, 0), BuildingBlock: AJUNOK_clean_linker_0, # of connection points: 2
#     Edge 16, Type (0, 0), BuildingBlock: AJUNOK_clean_linker_0, # of connection points: 2
#     Edge 17, Type (0, 0), BuildingBlock: AJUNOK_clean_linker_0, # of connection points: 2
#     Edge 18, Type (0, 0), BuildingBlock: AJUNOK_clean_linker_0, # of connection points: 2
#     Edge 19, Type (0, 0), BuildingBlock: AJUNOK_clean_linker_0, # of connection points: 2
#     Edge 20, Type (0, 0), BuildingBlock: AJUNOK_clean_linker_0, # of connection points: 2
#     Edge 21, Type (0, 0), BuildingBlock: AJUNOK_clean_linker_0, # of connection points: 2
#     Edge 22, Type (0, 0), BuildingBlock: AJUNOK_clean_linker_0, # of connection points: 2
#     Edge 23, Type (0, 0), BuildingBlock: AJUNOK_clean_linker_0, # of connection points: 2
#     Edge 24, Type (0, 0), BuildingBlock: AJUNOK_clean_linker_0, # of connection points: 2
#     Edge 25, Type (0, 0), BuildingBlock: AJUNOK_clean_linker_0, # of connection points: 2
#     Edge 26, Type (0, 0), BuildingBlock: AJUNOK_clean_linker_0, # of connection points: 2
#     Edge 27, Type (0, 0), BuildingBlock: AJUNOK_clean_linker_0, # of connection points: 2
#     Edge 28, Type (0, 0), BuildingBlock: AJUNOK_clean_linker_0, # of connection points: 2
#     Edge 29, Type (0, 0), BuildingBlock: AJUNOK_clean_linker_0, # of connection points: 2
#     Edge 30, Type (0, 0), BuildingBlock: AJUNOK_clean_linker_0, # of connection points: 2
#     Edge 31, Type (0, 0), BuildingBlock: AJUNOK_clean_linker_0, # of connection points: 2
#     Edge 32, Type (0, 0), BuildingBlock: AJUNOK_clean_linker_0, # of connection points: 2
#     Edge 33, Type (0, 0), BuildingBlock: AJUNOK_clean_linker_0, # of connection points: 2
#     Edge 34, Type (0, 0), BuildingBlock: AJUNOK_clean_linker_0, # of connection points: 2
#     Edge 35, Type (0, 0), BuildingBlock: AJUNOK_clean_linker_0, # of connection points: 2
# Relax obj value: 0.196
# Max RMSD: 0.270
# Mean RMSD: 0.270
data_MOF--net-smc--node1-OJICUG_clean_sbu_0--edge1-AJUNOK_clean_linker_0
_symmetry_space_group_name_H-M    P1
_symmetry_Int_Tables_number       1
_symmetry_cell_setting            triclinic
loop_
_symmetry_equiv_pos_as_xyz
'x, y, z'
_cell_length_a     22.975949
_cell_length_b     22.683134
_cell_length_c     34.977405
_cell_angle_alpha  89.609608
_cell_angle_beta   90.23909
_cell_angle_gamma 120.5141
loop_
_atom_site_label
_atom_site_type_symbol
_atom_site_fract_x
_atom_site_fract_y
_atom_site_fract_z
_atom_type_partial_charge
Sc0 Sc 0.07024 0.516 0.95308 0.0
Sc1 Sc 0.02939 0.35935 -0.00644 0.0
Sc2 Sc 0.98773 0.47135 0.03645 0.0
O3 O 0.02818 0.44679 -0.00594 0.0
C4 C 0.11824 0.6067 0.02025 0.0
C5 C 0.1786 0.47471 0.98318 0.0
C6 C 0.03634 0.38295 0.0817 0.0
C7 C 0.02054 0.38136 0.90544 0.0
C8 C 0.93918 0.51866 0.96821 0.0
C9 C 0.88069 0.32198 0.00567 0.0
O10 O 0.0857 0.596 -0.0101 0.0
O11 O 0.13482 0.41164 0.97909 0.0
O12 O 1.00253 0.41262 0.07891 0.0
O13 O 0.05743 0.44553 0.909 0.0
O14 O 0.96413 0.53301 0.00135 0.0
O15 O 0.92498 0.30435 0.00902 0.0
O16 O 0.96932 0.50556 0.9413 0.0
O17 O 0.99809 0.34126 0.93415 0.0
O18 O 0.89202 0.38109 0.01669 0.0
O19 O 0.16524 0.52158 0.97386 0.0
O20 O 0.09091 0.56319 0.04779 0.0
O21 O 0.05959 0.36814 0.05278 0.0
Sc22 Sc 0.52349 0.57674 0.95006 0.0
Sc23 Sc 0.68881 0.69223 0.98019 0.0
Sc24 Sc 0.58022 0.54255 0.03124 0.0
O25 O 0.59933 0.60601 0.98732 0.0
C26 C 0.44233 0.53523 0.02453 0.0
C27 C 0.57355 0.72928 0.98015 0.0
C28 C 0.68696 0.67905 0.07153 0.0
C29 C 0.64319 0.66537 0.89343 0.0
C30 C 0.52477 0.44487 0.96646 0.0
C31 C 0.72302 0.57519 -0.00911 0.0
O32 O 0.44617 0.51989 -0.00951 0.0
O33 O 0.63549 0.74596 0.97893 0.0
O34 O 0.64316 0.61631 0.07179 0.0
O35 O 0.58162 0.62808 0.90125 0.0
O36 O 0.51005 0.45848 -0.00173 0.0
O37 O 0.73983 0.63577 0.98076 0.0
O38 O 0.53158 0.48383 0.93787 0.0
O39 O 0.68929 0.68711 0.91853 0.0
O40 O 0.6687 0.53585 0.01008 0.0
O41 O 0.52454 0.67044 0.96906 0.0
O42 O 0.49177 0.55262 0.04796 0.0
O43 O 0.70614 0.71491 0.04111 0.0
Sc44 Sc 0.49067 0.98081 0.95122 0.0
Sc45 Sc 0.38072 0.02587 -0.00671 0.0
Sc46 Sc 0.54086 0.07885 0.03056 0.0
O47 O 0.4693 0.02899 -0.00858 0.0
C48 C 0.53563 0.94282 0.02411 0.0
C49 C 0.34852 0.87322 -0.00803 0.0
C50 C 0.41832 0.0534 0.08193 0.0
C51 C 0.38815 1.00362 0.90321 0.0
C52 C 0.62805 0.11107 0.95826 0.0
C53 C 0.4987 0.18126 -0.00871 0.0
O54 O 0.55043 0.9619 -0.01016 0.0
O55 O 0.3324 0.91736 0.00149 0.0
O56 O 0.47887 0.07085 0.07651 0.0
O57 O 0.43698 0.99341 0.90577 0.0
O58 O 0.62051 0.09593 -0.00671 0.0
O59 O 0.43705 0.13511 0.98521 0.0
O60 O 0.58099 0.07725 0.93412 0.0
O61 O 0.36256 1.01492 0.9323 0.0
O62 O 0.54221 0.17055 0.00879 0.0
O63 O 0.40043 0.88698 0.97134 0.0
O64 O 0.53085 0.98144 0.0487 0.0
O65 O 0.376 0.03426 0.0548 0.0
Sc66 Sc 0.76554 0.8674 0.29231 0.0
Sc67 Sc 0.72408 0.70004 0.31438 0.0
Sc68 Sc 0.69692 0.79706 0.37633 0.0
O69 O 0.72516 0.78694 0.32581 0.0
C70 C 0.82252 0.94042 0.36751 0.0
C71 C 0.87185 0.82001 0.3205 0.0
C72 C 0.71211 0.68452 0.40295 0.0
C73 C 0.7399 0.75931 0.23014 0.0
C74 C 0.63621 0.86295 0.32189 0.0
C75 C 0.58065 0.66453 0.32744 0.0
O76 O 0.79582 0.94086 0.33627 0.0
O77 O 0.82826 0.75742 0.32815 0.0
O78 O 0.7445 0.74814 0.40193 0.0
O79 O 0.73602 0.80971 0.24136 0.0
O80 O 0.65308 0.85373 0.35503 0.0
O81 O 0.62089 0.65938 0.30442 0.0
O82 O 0.66922 0.86593 0.29162 0.0
O83 O 0.74757 0.72075 0.25358 0.0
O84 O 0.60072 0.70284 0.35792 0.0
O85 O 0.859 0.86145 0.3012 0.0
O86 O 0.79446 0.8886 0.38952 0.0
O87 O 0.69204 0.65302 0.37168 0.0
Sc88 Sc 0.21257 0.90639 0.29213 0.0
Sc89 Sc 0.37086 0.02153 0.32783 0.0
Sc90 Sc 0.26402 0.8639 0.37254 0.0
O91 O 0.28577 0.93085 0.32999 0.0
C92 C 0.12588 0.84837 0.35864 0.0
C93 C 0.25353 0.0532 0.32749 0.0
C94 C 0.3489 1.00066 0.41776 0.0
C95 C 0.33716 1.00341 0.24078 0.0
C96 C 0.21999 0.77449 0.29796 0.0
C97 C 0.41411 0.91096 0.34365 0.0
O98 O 0.13912 0.83033 0.32804 0.0
O99 O 0.31514 0.07317 0.32033 0.0
O100 O 0.31234 0.93664 0.41571 0.0
O101 O 0.27462 0.97346 0.24771 0.0
O102 O 0.21525 0.78005 0.3338 0.0
O103 O 0.42729 0.97094 0.33445 0.0
O104 O 0.22589 0.82061 0.27378 0.0
O105 O 0.38043 1.01538 0.26681 0.0
O106 O 0.35806 0.86561 0.359 0.0
O107 O 0.20569 0.99226 0.3189 0.0
O108 O 0.17024 0.86785 0.38497 0.0
O109 O 0.3712 0.03975 0.38867 0.0
Sc110 Sc 0.17949 0.31069 0.2937 0.0
Sc111 Sc 0.05929 0.3508 0.32696 0.0
Sc112 Sc 0.21229 0.40505 0.37346 0.0
O113 O 0.14838 0.35533 0.3312 0.0
C114 C 0.21605 0.27099 0.36946 0.0
C115 C 0.03192 0.19946 0.32591 0.0
C116 C 0.07903 0.36823 0.41736 0.0
C117 C 0.08945 0.34196 0.2387 0.0
C118 C 0.30769 0.44621 0.3087 0.0
C119 C 0.17134 0.50833 0.33184 0.0
O120 O 0.2346 0.29111 0.33563 0.0
O121 O 1.01165 0.24228 0.3279 0.0
O122 O 0.14207 0.3962 0.41484 0.0
O123 O 0.13094 0.32253 0.24543 0.0
O124 O 0.29481 0.41867 0.34096 0.0
O125 O 0.1106 0.46014 0.32633 0.0
O126 O 0.26979 0.41248 0.28059 0.0
O127 O 0.06025 0.3553 0.26512 0.0
O128 O 0.21632 0.49866 0.34859 0.0
O129 O 0.0893 0.21367 0.31151 0.0
O130 O 0.20134 0.30574 0.39235 0.0
O131 O 0.04085 0.34511 0.38826 0.0
Sc132 Sc 0.32702 0.17205 0.62719 0.0
Sc133 Sc 0.30829 1.01559 0.66017 0.0
Sc134 Sc 0.23901 0.10036 0.7076 0.0
O135 O 0.29015 0.09334 0.66415 0.0
C136 C 0.3525 0.25273 0.69869 0.0
C137 C 0.45036 0.155 0.65845 0.0
C138 C 0.29806 0.02011 0.75092 0.0
C139 C 0.32155 0.05919 0.57292 0.0
C140 C 0.18114 0.13968 0.63825 0.0
C141 C 0.14964 0.94655 0.67007 0.0
O142 O 0.32521 0.24176 0.66646 0.0
O143 O 0.41348 0.08997 0.66118 0.0
O144 O 0.27008 0.05541 0.74975 0.0
O145 O 0.33197 0.11795 0.58013 0.0
O146 O 0.19717 0.14726 0.67325 0.0
O147 O 0.20119 0.94321 0.65976 0.0
O148 O 0.22286 0.14455 0.61236 0.0
O149 O 0.30768 1.01404 0.59846 0.0
O150 O 0.15396 0.9984 0.68822 0.0
O151 O 0.4285 0.19434 0.64633 0.0
O152 O 0.33031 0.20275 0.72259 0.0
O153 O 0.31607 1.0024 0.72102 0.0
Sc154 Sc 0.82052 0.25849 0.60993 0.0
Sc155 Sc 0.97281 0.3401 0.65987 0.0
Sc156 Sc 0.83438 0.1836 0.69151 0.0
O157 O 0.8767 0.26284 0.65454 0.0
C158 C 0.71985 0.21551 0.67882 0.0
C159 C 0.88622 0.41115 0.64722 0.0
C160 C 0.93913 0.29797 0.74783 0.0
C161 C 0.96092 0.33501 0.56843 0.0
C162 C 0.77975 0.10488 0.61715 0.0
C163 C 0.9753 0.20146 0.66136 0.0
O164 O 0.73115 0.21446 0.64351 0.0
O165 O 0.93855 0.41193 0.66017 0.0
O166 O 0.89046 0.23895 0.74051 0.0
O167 O 0.89754 0.30005 0.56852 0.0
O168 O 0.76583 0.11123 0.65104 0.0
O169 O 1.00406 0.26643 0.65875 0.0
O170 O 0.80638 0.1568 0.59475 0.0
O171 O 0.99509 0.35423 0.5991 0.0
O172 O 0.91459 0.1627 0.67403 0.0
O173 O 0.84043 0.36149 0.62698 0.0
O174 O 0.75546 0.20807 0.70467 0.0
O175 O 0.97165 0.34128 0.72166 0.0
Sc176 Sc 0.74009 0.6008 0.63019 0.0
Sc177 Sc 0.64315 0.67518 0.6457 0.0
Sc178 Sc 0.81243 0.7544 0.67201 0.0
O179 O 0.72984 0.67724 0.64849 0.0
C180 C 0.82408 0.62109 0.69196 0.0
C181 C 0.58747 0.51657 0.66247 0.0
C182 C 0.70055 0.71356 0.73235 0.0
C183 C 0.66569 0.62514 0.56239 0.0
C184 C 0.88404 0.74261 0.61072 0.0
C185 C 0.7427 0.83511 0.63739 0.0
O186 O 0.76181 0.59154 0.68764 0.0
O187 O 0.58365 0.57028 0.6652 0.0
O188 O 0.76127 0.731 0.72439 0.0
O189 O 0.70904 0.61012 0.57448 0.0
O190 O 0.8515 0.77221 0.61634 0.0
O191 O 0.69033 0.78061 0.62643 0.0
O192 O 0.85232 0.67694 0.61535 0.0
O193 O 0.63444 0.64544 0.58453 0.0
O194 O 0.78652 0.83324 0.65913 0.0
O195 O 0.63765 0.51765 0.64608 0.0
O196 O 0.85634 0.68619 0.68659 0.0
O197 O 0.6548 0.70242 0.70718 0.0
C198 C 0.36104 0.57598 0.02229 0.0
C199 C 0.37465 0.5245 0.03403 0.0
C200 C 0.2979 0.56038 0.00654 0.0
C201 C 0.24511 0.49209 0.00177 0.0
H202 H 0.4018 0.62856 0.02189 0.0
H203 H 0.29173 0.60212 -0.00355 0.0
S204 S 0.25134 0.33834 0.03424 0.0
N205 N 0.32715 0.40318 0.04429 0.0
N206 N 0.20908 0.37265 0.01573 0.0
C207 C 0.25623 0.44044 0.017 0.0
C208 C 0.32029 0.45687 0.03315 0.0
C209 C 0.48354 0.81955 0.01824 0.0
C210 C 0.53695 0.88064 0.03349 0.0
C211 C 0.49512 0.77067 0.00097 0.0
C212 C 0.56031 0.7799 -0.00044 0.0
H213 H 0.43382 0.81331 0.01543 0.0
H214 H 0.45348 0.72771 0.9867 0.0
S215 S 0.71553 0.92724 0.04174 0.0
N216 N 0.65504 0.9442 0.05033 0.0
N217 N 0.67817 0.85257 0.01998 0.0
C218 C 0.61292 0.83782 0.01868 0.0
C219 C 0.60063 0.88737 0.03579 0.0
C220 C 0.26874 0.7841 0.03913 0.0
C221 C 0.3007 0.80139 0.00293 0.0
C222 C 0.21388 0.71771 0.04701 0.0
C223 C 0.18806 0.66752 0.01841 0.0
H224 H 0.28445 0.82301 0.06092 0.0
H225 H 0.18822 0.70769 0.07425 0.0
S226 S 0.25516 0.68967 0.91863 0.0
N227 N 0.30597 0.76302 0.9396 0.0
N228 N 0.20007 0.64258 0.95177 0.0
C229 C 0.22207 0.68485 0.98249 0.0
C230 C 0.27913 0.75063 0.97542 0.0
C231 C 0.49592 0.26708 0.94602 0.0
C232 C 0.51808 0.25203 0.98059 0.0
C233 C 0.50434 0.33246 0.93894 0.0
C234 C 0.5332 0.38378 0.96684 0.0
H235 H 0.46966 0.22727 0.92497 0.0
H236 H 0.48351 0.34092 0.91306 0.0
S237 S 0.59841 0.3678 0.06232 0.0
N238 N 0.57268 0.29366 0.04161 0.0
N239 N 0.5832 0.41268 0.03088 0.0
C240 C 0.55719 0.36875 0.00101 0.0
C241 C 0.55092 0.30387 0.00728 0.0
C242 C 0.7491 0.15753 0.95657 0.0
C243 C 0.69536 0.16851 0.9488 0.0
C244 C 0.80798 0.20742 0.97479 0.0
C245 C 0.81666 0.27146 0.98561 0.0
H246 H 0.7422 0.10692 0.95298 0.0
H247 H 0.84568 0.19391 0.98186 0.0
S248 S 0.69766 0.33145 0.96157 0.0
N249 N 0.65919 0.25173 0.94626 0.0
N250 N 0.77041 0.34643 0.97964 0.0
C251 C 0.76653 0.28572 0.97354 0.0
C252 C 0.70639 0.23451 0.95489 0.0
C253 C 0.82939 0.49081 -0.00368 0.0
C254 C 0.87457 0.51885 0.96502 0.0
C255 C 0.77755 0.50494 0.00287 0.0
C256 C 0.77052 0.55135 0.97965 0.0
H257 H 0.83669 0.46036 0.01768 0.0
H258 H 0.7461 0.48318 0.02796 0.0
S259 S 0.87653 0.64183 0.89455 0.0
N260 N 0.90793 0.59496 0.9104 0.0
N261 N 0.81273 0.62502 0.92311 0.0
C262 C 0.81433 0.57912 0.94759 0.0
C263 C 0.86588 0.56242 0.94026 0.0
C264 C 0.99596 0.87761 0.31067 0.0
C265 C 0.94075 0.84381 0.3351 0.0
C266 C 0.05826 0.88525 0.32082 0.0
C267 C 0.06912 0.86197 0.35645 0.0
H268 H 0.9895 0.89241 0.28215 0.0
H269 H 0.09603 0.90342 0.29857 0.0
S270 S 0.94224 0.78081 0.43331 0.0
N271 N 0.90148 0.79416 0.39841 0.0
N272 N 0.02019 0.81076 0.41774 0.0
C273 C 0.01589 0.8344 0.3827 0.0
C274 C 0.95141 0.82489 0.37197 0.0
C275 C 0.16482 0.14544 0.36774 0.0
C276 C 0.21928 0.20922 0.37961 0.0
C277 C 0.17493 0.09388 0.35204 0.0
C278 C 0.24041 0.10423 0.34747 0.0
H279 H 0.11463 0.13815 0.36708 0.0
H280 H 0.13156 0.04748 0.34153 0.0
S281 S 0.39891 0.25698 0.38236 0.0
N282 N 0.33921 0.27481 0.39163 0.0
N283 N 0.3599 0.18032 0.36286 0.0
C284 C 0.29456 0.1653 0.36316 0.0
C285 C 0.28354 0.21662 0.37943 0.0
C286 C 0.98905 0.07351 0.33455 0.0
C287 C 0.98752 0.13227 0.34491 0.0
C288 C 0.94145 1.00921 0.34944 0.0
C289 C 0.88937 1.00085 0.37416 0.0
H290 H 0.02459 0.07649 0.31327 0.0
H291 H 0.94093 0.96507 0.33797 0.0
S292 S 0.87413 0.14 0.41813 0.0
N293 N 0.93917 0.17951 0.38885 0.0
N294 N 0.8471 0.05759 0.41389 0.0
C295 C 0.89245 0.05975 0.38827 0.0
C296 C 0.94169 0.12557 0.37403 0.0
C297 C 0.14539 0.65086 0.29153 0.0
C298 C 0.21101 0.70732 0.28753 0.0
C299 C 0.13397 0.58759 0.30547 0.0
C300 C 0.18764 0.57705 0.31602 0.0
H301 H 0.10228 0.65766 0.28788 0.0
H302 H 0.08196 0.54751 0.30968 0.0
S303 S 0.36949 0.70455 0.30296 0.0
N304 N 0.33067 0.74612 0.2901 0.0
N305 N 0.30935 0.62655 0.31491 0.0
C306 C 0.25357 0.63121 0.30858 0.0
C307 C 0.2651 0.69601 0.29445 0.0
C308 C 0.4193 0.52916 0.27865 0.0
C309 C 0.37081 0.51354 0.307 0.0
C310 C 0.48665 0.5813 0.28459 0.0
C311 C 0.50759 0.6194 0.31906 0.0
H312 H 0.40665 0.49763 0.25337 0.0
H313 H 0.52316 0.58911 0.26272 0.0
S314 S 0.39665 0.60581 0.39915 0.0
N315 N 0.34664 0.54585 0.36885 0.0
N316 N 0.47179 0.64417 0.37894 0.0
C317 C 0.45806 0.60868 0.3457 0.0
C318 C 0.39009 0.55559 0.33994 0.0
C319 C 0.47277 0.84548 0.35638 0.0
C320 C 0.46672 0.89382 0.33439 0.0
C321 C 0.52553 0.83299 0.34989 0.0
C322 C 0.57475 0.86851 0.32128 0.0
H323 H 0.43783 0.81857 0.37953 0.0
H324 H 0.52909 0.79657 0.36853 0.0
S325 S 0.57568 0.99283 0.25199 0.0
N326 N 0.50961 0.97165 0.27954 0.0
N327 N 0.60984 0.9487 0.26828 0.0
C328 C 0.56685 0.9136 0.29739 0.0
C329 C 0.51281 0.92639 0.30388 0.0
C330 C 0.60293 0.16018 0.70464 0.0
C331 C 0.65723 0.21651 0.68681 0.0
C332 C 0.53633 0.14409 0.69729 0.0
C333 C 0.52146 0.18311 0.6714 0.0
H334 H 0.61132 0.1247 0.72129 0.0
H335 H 0.4959 0.09794 0.71025 0.0
S336 S 0.64762 0.34414 0.62396 0.0
N337 N 0.6931 0.3184 0.64772 0.0
N338 N 0.56786 0.28655 0.63284 0.0
C339 C 0.57574 0.24346 0.65659 0.0
C340 C 0.64357 0.26059 0.66473 0.0
C341 C 0.84087 0.48884 0.63406 0.0
C342 C 0.87787 0.47018 0.65782 0.0
C343 C 0.82895 0.54129 0.64425 0.0
C344 C 0.85297 0.57831 0.67889 0.0
H345 H 0.81975 0.4619 0.60751 0.0
H346 H 0.79786 0.5501 0.62483 0.0
S347 S 0.95269 0.549 0.75189 0.0
N348 N 0.94002 0.49339 0.71793 0.0
N349 N 0.91558 0.59123 0.73711 0.0
C350 C 0.89128 0.56106 0.70273 0.0
C351 C 0.90429 0.50756 0.69219 0.0
C352 C 0.46302 0.43924 0.67453 0.0
C353 C 0.52907 0.45072 0.67784 0.0
C354 C 0.40636 0.37766 0.68684 0.0
C355 C 0.41209 0.3238 0.70343 0.0
H356 H 0.45452 0.47704 0.66062 0.0
H357 H 0.35677 0.37006 0.68058 0.0
S358 S 0.5745 0.33557 0.72899 0.0
N359 N 0.59772 0.40833 0.7062 0.0
N360 N 0.49093 0.29195 0.72872 0.0
C361 C 0.47816 0.33707 0.71033 0.0
C362 C 0.53646 0.40029 0.69759 0.0
C363 C 0.81728 0.96188 0.62284 0.0
C364 C 0.75217 0.90316 0.62495 0.0
C365 C 0.82671 0.02716 0.61427 0.0
C366 C 0.77156 0.03701 0.60798 0.0
H367 H 0.86137 0.95782 0.62898 0.0
H368 H 0.87737 0.07103 0.61547 0.0
S369 S 0.59113 0.90054 0.60762 0.0
N370 N 0.63178 0.8594 0.61691 0.0
N371 N 0.64989 0.98193 0.60267 0.0
C372 C 0.70667 0.97845 0.60807 0.0
C373 C 0.69691 0.91179 0.61605 0.0
C374 C 0.9865 0.86001 0.61195 0.0
C375 C 0.95871 0.78891 0.61845 0.0
C376 C 0.0467 0.90975 0.62947 0.0
C377 C 0.08304 0.89166 0.6545 0.0
H378 H 0.95945 0.87787 0.59444 0.0
H379 H 0.06551 0.96302 0.62269 0.0
S380 S 0.04364 0.71403 0.67426 0.0
N381 N 0.98036 0.70384 0.64691 0.0
N382 N 0.09377 0.79746 0.67952 0.0
C383 C 0.06007 0.82114 0.65845 0.0
C384 C 0.99814 0.76994 0.64058 0.0
C385 C 0.1178 0.19284 0.61205 0.0
C386 C 0.11674 0.13733 0.63043 0.0
C387 C 0.06838 0.20992 0.62029 0.0
C388 C 0.01626 0.17221 0.64722 0.0
H389 H 0.16063 0.22743 0.59453 0.0
H390 H 0.07376 0.25587 0.60724 0.0
S391 S 0.98443 1.01461 0.69737 0.0
N392 N 0.05423 0.03925 0.67269 0.0
N393 N 0.96095 0.07067 0.68717 0.0
C394 C 1.01018 0.11204 0.66212 0.0
C395 C 0.06058 0.09482 0.65392 0.0
C396 C 0.0165 0.34919 0.18809 0.0
C397 C 0.07607 0.35012 0.19824 0.0
C398 C 1.00334 0.35758 0.15003 0.0
C399 C 0.04929 0.36736 0.12067 0.0
H400 H 0.97968 0.34194 0.20966 0.0
H401 H 0.95686 0.35699 0.14363 0.0
S402 S 0.21419 0.37697 0.13223 0.0
N403 N 0.18255 0.36323 0.17583 0.0
N404 N 0.15719 0.37897 0.10426 0.0
C405 C 0.10877 0.36782 0.13025 0.0
C406 C 0.12238 0.35937 0.16906 0.0
C407 C 0.7482 0.69687 0.17323 0.0
C408 C 0.73341 0.74506 0.18838 0.0
C409 C 0.73758 0.6794 0.13439 0.0
C410 C 0.71266 0.71006 0.10918 0.0
H411 H 0.76639 0.67104 0.19162 0.0
H412 H 0.74658 0.6397 0.12423 0.0
S413 S 0.66418 0.8376 0.13386 0.0
N414 N 0.69188 0.82303 0.17438 0.0
N415 N 0.67244 0.78949 0.10166 0.0
C416 C 0.69947 0.75951 0.12343 0.0
C417 C 0.70971 0.77717 0.16296 0.0
C418 C 0.32944 1.00343 0.13246 0.0
C419 C 0.39666 0.04923 0.12208 0.0
C420 C 0.31069 0.99018 0.17096 0.0
C421 C 0.35846 0.02209 0.20054 0.0
H422 H 0.2916 0.97526 0.11083 0.0
H423 H 0.25857 0.95276 0.17747 0.0
S424 S 0.53918 0.15359 0.18838 0.0
N425 N 0.50986 0.13234 0.1444 0.0
N426 N 0.47442 0.10639 0.21672 0.0
C427 C 0.42512 0.07056 0.19054 0.0
C428 C 0.44419 0.0845 0.15135 0.0
C429 C 0.39841 1.00469 0.83199 0.0
C430 C 0.36099 1.00223 0.86452 0.0
C431 C 0.37576 1.00611 0.79497 0.0
C432 C 0.31496 1.00528 0.78912 0.0
H433 H 0.4467 1.00751 0.83502 0.0
H434 H 0.40767 1.01122 0.77095 0.0
S435 S 0.19344 0.98944 0.86389 0.0
N436 N 0.25671 0.99218 0.88794 0.0
N437 N 0.21421 0.99494 0.81835 0.0
C438 C 0.27531 0.99925 0.82116 0.0
C439 C 0.29833 0.99783 0.85885 0.0
C440 C 0.04092 0.39481 0.83508 0.0
C441 C 1.00096 0.3548 0.86602 0.0
C442 C 0.02063 0.37595 0.79719 0.0
C443 C 0.95938 0.31618 0.78846 0.0
H444 H 0.08819 0.44188 0.84012 0.0
H445 H 0.05331 0.40888 0.7746 0.0
S446 S 0.83559 0.19372 0.85919 0.0
N447 N 0.89714 0.25272 0.88553 0.0
N448 N 0.85855 0.21667 0.81435 0.0
C449 C 0.91917 0.27498 0.8192 0.0
C450 C 0.94011 0.29432 0.85791 0.0
C451 C 0.64267 0.72066 0.79134 0.0
C452 C 0.68289 0.69924 0.77302 0.0
C453 C 0.63134 0.71103 0.8309 0.0
C454 C 0.6605 0.68047 0.85298 0.0
H455 H 0.62102 0.74587 0.77524 0.0
H456 H 0.59979 0.72769 0.84438 0.0
S457 S 0.75997 0.60558 0.81733 0.0
N458 N 0.74517 0.63899 0.77912 0.0
N459 N 0.7245 0.62239 0.85334 0.0
C460 C 0.69877 0.65699 0.8348 0.0
C461 C 0.7097 0.66593 0.79476 0.0
C462 C 0.69701 0.6073 0.45782 0.0
C463 C 0.68087 0.65245 0.43989 0.0
C464 C 0.68565 0.59359 0.49714 0.0
C465 C 0.65836 0.62511 0.52 0.0
H466 H 0.72334 0.58681 0.44216 0.0
H467 H 0.7028 0.56158 0.51013 0.0
S468 S 0.59567 0.73703 0.48412 0.0
N469 N 0.62682 0.72036 0.44597 0.0
N470 N 0.60619 0.69533 0.51984 0.0
C471 C 0.63564 0.66471 0.50133 0.0
C472 C 0.64702 0.6784 0.46129 0.0
C473 C 0.37374 0.99962 0.48618 0.0
C474 C 0.3554 0.02832 0.45603 0.0
C475 C 0.3614 1.00844 0.52421 0.0
C476 C 0.33007 0.04597 0.53303 0.0
H477 H 0.39516 0.96772 0.48016 0.0
H478 H 0.37638 0.98582 0.54673 0.0
S479 S 0.2685 0.12736 0.4643 0.0
N480 N 0.30219 0.09298 0.43733 0.0
N481 N 0.27959 0.11071 0.50885 0.0
C482 C 0.31231 0.07562 0.50314 0.0
C483 C 0.32501 0.06667 0.46455 0.0
C484 C 0.9566 0.34171 0.49722 0.0
C485 C 0.99449 0.34946 0.53065 0.0
C486 C 0.98399 0.34774 0.46074 0.0
C487 C 0.05055 0.36209 0.45616 0.0
H488 H 0.90474 0.33001 0.49913 0.0
H489 H 0.95268 0.34105 0.43603 0.0
S490 S 0.17075 0.38524 0.53451 0.0
N491 N 0.10176 0.37147 0.55675 0.0
N492 N 0.15376 0.3828 0.48848 0.0
C493 C 0.08935 0.37054 0.48942 0.0
C494 C 0.06131 0.36444 0.52655 0.0
loop_
_geom_bond_atom_site_label_1
_geom_bond_atom_site_label_2
_geom_bond_distance
_geom_bond_site_symmetry_2
_ccdc_geom_bond_type
Sc0 O3 2.025 1_556 S
Sc0 O10 2.105 . S
Sc0 O13 2.105 . S
Sc0 O16 2.105 1_455 S
Sc0 O19 2.105 . S
Sc1 O3 2.025 . S
Sc1 O11 2.105 1_554 S
Sc1 O15 2.105 1_455 S
Sc1 O17 2.105 1_454 S
Sc1 O21 2.105 . S
Sc2 O3 2.025 1_655 S
Sc2 O12 2.105 1_655 S
Sc2 O14 2.105 . S
Sc2 O18 2.105 . S
Sc2 O20 2.105 1_655 S
O3 Sc0 2.025 1_554 S
O3 Sc1 2.025 . S
O3 Sc2 2.025 1_455 S
C4 O10 1.268 1_554 S
C4 O20 1.268 . S
C5 O11 1.268 . S
C5 O19 1.268 . S
C6 O12 1.268 . S
C6 O21 1.268 . S
C7 O13 1.268 1_655 S
C7 O17 1.268 . S
C8 O14 1.268 1_556 S
C8 O16 1.268 . S
C9 O15 1.268 . S
C9 O18 1.268 . S
O10 Sc0 2.105 . S
O10 C4 1.268 1_556 S
O11 Sc1 2.105 1_556 S
O11 C5 1.268 . S
O12 Sc2 2.105 1_455 S
O12 C6 1.268 . S
O13 Sc0 2.105 . S
O13 C7 1.268 1_455 S
O14 Sc2 2.105 . S
O14 C8 1.268 1_554 S
O15 Sc1 2.105 1_655 S
O15 C9 1.268 . S
O16 Sc0 2.105 1_655 S
O16 C8 1.268 . S
O17 Sc1 2.105 1_656 S
O17 C7 1.268 . S
O18 Sc2 2.105 . S
O18 C9 1.268 . S
O19 Sc0 2.105 . S
O19 C5 1.268 . S
O20 Sc2 2.105 1_455 S
O20 C4 1.268 . S
O21 Sc1 2.105 . S
O21 C6 1.268 . S
Sc22 O25 2.025 1_556 S
Sc22 O32 2.105 . S
Sc22 O35 2.105 . S
Sc22 O38 2.105 . S
Sc22 O41 2.105 . S
Sc23 O25 2.025 . S
Sc23 O33 2.105 1_554 S
Sc23 O37 2.105 . S
Sc23 O39 2.105 1_554 S
Sc23 O43 2.105 . S
Sc24 O25 2.025 . S
Sc24 O34 2.105 . S
Sc24 O36 2.105 . S
Sc24 O40 2.105 . S
Sc24 O42 2.105 . S
O25 Sc22 2.025 1_554 S
O25 Sc23 2.025 . S
O25 Sc24 2.025 . S
C26 O32 1.268 1_554 S
C26 O42 1.268 . S
C27 O33 1.268 . S
C27 O41 1.268 . S
C28 O34 1.268 . S
C28 O43 1.268 . S
C29 O35 1.268 . S
C29 O39 1.268 . S
C30 O36 1.268 1_556 S
C30 O38 1.268 . S
C31 O37 1.268 . S
C31 O40 1.268 . S
O32 Sc22 2.105 . S
O32 C26 1.268 1_556 S
O33 Sc23 2.105 1_556 S
O33 C27 1.268 . S
O34 Sc24 2.105 . S
O34 C28 1.268 . S
O35 Sc22 2.105 . S
O35 C29 1.268 . S
O36 Sc24 2.105 . S
O36 C30 1.268 1_554 S
O37 Sc23 2.105 . S
O37 C31 1.268 . S
O38 Sc22 2.105 . S
O38 C30 1.268 . S
O39 Sc23 2.105 1_556 S
O39 C29 1.268 . S
O40 Sc24 2.105 . S
O40 C31 1.268 . S
O41 Sc22 2.105 . S
O41 C27 1.268 . S
O42 Sc24 2.105 . S
O42 C26 1.268 . S
O43 Sc23 2.105 . S
O43 C28 1.268 . S
Sc44 O47 2.025 1_566 S
Sc44 O54 2.105 . S
Sc44 O57 2.105 1_565 S
Sc44 O60 2.105 1_565 S
Sc44 O63 2.105 . S
Sc45 O47 2.025 . S
Sc45 O55 2.105 1_544 S
Sc45 O59 2.105 . S
Sc45 O61 2.105 1_554 S
Sc45 O65 2.105 1_545 S
Sc46 O47 2.025 . S
Sc46 O56 2.105 . S
Sc46 O58 2.105 . S
Sc46 O62 2.105 . S
Sc46 O64 2.105 1_545 S
O47 Sc44 2.025 1_544 S
O47 Sc45 2.025 . S
O47 Sc46 2.025 . S
C48 O54 1.268 1_554 S
C48 O64 1.268 . S
C49 O55 1.268 . S
C49 O63 1.268 . S
C50 O56 1.268 1_565 S
C50 O65 1.268 . S
C51 O57 1.268 . S
C51 O61 1.268 . S
C52 O58 1.268 1_556 S
C52 O60 1.268 . S
C53 O59 1.268 . S
C53 O62 1.268 . S
O54 Sc44 2.105 . S
O54 C48 1.268 1_556 S
O55 Sc45 2.105 1_566 S
O55 C49 1.268 . S
O56 Sc46 2.105 . S
O56 C50 1.268 1_545 S
O57 Sc44 2.105 1_545 S
O57 C51 1.268 . S
O58 Sc46 2.105 . S
O58 C52 1.268 1_554 S
O59 Sc45 2.105 . S
O59 C53 1.268 . S
O60 Sc44 2.105 1_545 S
O60 C52 1.268 . S
O61 Sc45 2.105 1_556 S
O61 C51 1.268 . S
O62 Sc46 2.105 . S
O62 C53 1.268 . S
O63 Sc44 2.105 . S
O63 C49 1.268 . S
O64 Sc46 2.105 1_565 S
O64 C48 1.268 . S
O65 Sc45 2.105 1_565 S
O65 C50 1.268 . S
Sc66 O69 2.025 . S
Sc66 O76 2.105 . S
Sc66 O79 2.105 . S
Sc66 O82 2.105 . S
Sc66 O85 2.105 . S
Sc67 O69 2.025 . S
Sc67 O77 2.105 . S
Sc67 O81 2.105 . S
Sc67 O83 2.105 . S
Sc67 O87 2.105 . S
Sc68 O69 2.025 . S
Sc68 O78 2.105 . S
Sc68 O80 2.105 . S
Sc68 O84 2.105 . S
Sc68 O86 2.105 . S
O69 Sc66 2.025 . S
O69 Sc67 2.025 . S
O69 Sc68 2.025 . S
C70 O76 1.268 . S
C70 O86 1.268 . S
C71 O77 1.268 . S
C71 O85 1.268 . S
C72 O78 1.268 . S
C72 O87 1.268 . S
C73 O79 1.268 . S
C73 O83 1.268 . S
C74 O80 1.268 . S
C74 O82 1.268 . S
C75 O81 1.268 . S
C75 O84 1.268 . S
O76 Sc66 2.105 . S
O76 C70 1.268 . S
O77 Sc67 2.105 . S
O77 C71 1.268 . S
O78 Sc68 2.105 . S
O78 C72 1.268 . S
O79 Sc66 2.105 . S
O79 C73 1.268 . S
O80 Sc68 2.105 . S
O80 C74 1.268 . S
O81 Sc67 2.105 . S
O81 C75 1.268 . S
O82 Sc66 2.105 . S
O82 C74 1.268 . S
O83 Sc67 2.105 . S
O83 C73 1.268 . S
O84 Sc68 2.105 . S
O84 C75 1.268 . S
O85 Sc66 2.105 . S
O85 C71 1.268 . S
O86 Sc68 2.105 . S
O86 C70 1.268 . S
O87 Sc67 2.105 . S
O87 C72 1.268 . S
Sc88 O91 2.025 . S
Sc88 O98 2.105 . S
Sc88 O101 2.105 . S
Sc88 O104 2.105 . S
Sc88 O107 2.105 . S
Sc89 O91 2.025 . S
Sc89 O99 2.105 1_565 S
Sc89 O103 2.105 . S
Sc89 O105 2.105 . S
Sc89 O109 2.109 . S
Sc90 O91 2.025 . S
Sc90 O100 2.105 . S
Sc90 O102 2.105 . S
Sc90 O106 2.105 . S
Sc90 O108 2.105 . S
O91 Sc88 2.025 . S
O91 Sc89 2.025 . S
O91 Sc90 2.025 . S
C92 O98 1.268 . S
C92 O108 1.268 . S
C93 O99 1.268 . S
C93 O107 1.268 1_545 S
C94 O100 1.268 . S
C94 O109 1.274 . S
C95 O101 1.268 . S
C95 O105 1.268 . S
C96 O102 1.268 . S
C96 O104 1.268 . S
C97 O103 1.268 . S
C97 O106 1.268 . S
O98 Sc88 2.105 . S
O98 C92 1.268 . S
O99 Sc89 2.105 1_545 S
O99 C93 1.268 . S
O100 Sc90 2.105 . S
O100 C94 1.268 . S
O101 Sc88 2.105 . S
O101 C95 1.268 . S
O102 Sc90 2.105 . S
O102 C96 1.268 . S
O103 Sc89 2.105 . S
O103 C97 1.268 . S
O104 Sc88 2.105 . S
O104 C96 1.268 . S
O105 Sc89 2.105 . S
O105 C95 1.268 . S
O106 Sc90 2.105 . S
O106 C97 1.268 . S
O107 Sc88 2.105 . S
O107 C93 1.268 1_565 S
O108 Sc90 2.105 . S
O108 C92 1.268 . S
O109 Sc89 2.109 . S
O109 C94 1.274 . S
Sc110 O113 2.025 . S
Sc110 O120 2.105 . S
Sc110 O123 2.105 . S
Sc110 O126 2.105 . S
Sc110 O129 2.105 . S
Sc111 O113 2.025 . S
Sc111 O121 2.105 1_455 S
Sc111 O125 2.105 . S
Sc111 O127 2.105 . S
Sc111 O131 2.105 . S
Sc112 O113 2.025 . S
Sc112 O122 2.105 . S
Sc112 O124 2.105 . S
Sc112 O128 2.105 . S
Sc112 O130 2.105 . S
O113 Sc110 2.025 . S
O113 Sc111 2.025 . S
O113 Sc112 2.025 . S
C114 O120 1.268 . S
C114 O130 1.268 . S
C115 O121 1.268 . S
C115 O129 1.268 1_655 S
C116 O122 1.268 . S
C116 O131 1.268 . S
C117 O123 1.268 . S
C117 O127 1.268 . S
C118 O124 1.268 . S
C118 O126 1.268 . S
C119 O125 1.268 . S
C119 O128 1.268 . S
O120 Sc110 2.105 . S
O120 C114 1.268 . S
O121 Sc111 2.105 1_655 S
O121 C115 1.268 . S
O122 Sc112 2.105 . S
O122 C116 1.268 . S
O123 Sc110 2.105 . S
O123 C117 1.268 . S
O124 Sc112 2.105 . S
O124 C118 1.268 . S
O125 Sc111 2.105 . S
O125 C119 1.268 . S
O126 Sc110 2.105 . S
O126 C118 1.268 . S
O127 Sc111 2.105 . S
O127 C117 1.268 . S
O128 Sc112 2.105 . S
O128 C119 1.268 . S
O129 Sc110 2.105 . S
O129 C115 1.268 1_455 S
O130 Sc112 2.105 . S
O130 C114 1.268 . S
O131 Sc111 2.105 . S
O131 C116 1.268 . S
Sc132 O135 2.025 . S
Sc132 O142 2.105 . S
Sc132 O145 2.105 . S
Sc132 O148 2.105 . S
Sc132 O151 2.105 . S
Sc133 O135 2.025 . S
Sc133 O143 2.105 . S
Sc133 O147 2.105 1_545 S
Sc133 O149 2.105 . S
Sc133 O153 2.105 . S
Sc134 O135 2.025 . S
Sc134 O144 2.105 . S
Sc134 O146 2.105 . S
Sc134 O150 2.105 . S
Sc134 O152 2.105 . S
O135 Sc132 2.025 . S
O135 Sc133 2.025 . S
O135 Sc134 2.025 . S
C136 O142 1.268 . S
C136 O152 1.268 . S
C137 O143 1.268 . S
C137 O151 1.268 . S
C138 O144 1.268 . S
C138 O153 1.268 . S
C139 O145 1.268 . S
C139 O149 1.268 . S
C140 O146 1.268 . S
C140 O148 1.268 . S
C141 O147 1.268 . S
C141 O150 1.268 1_565 S
O142 Sc132 2.105 . S
O142 C136 1.268 . S
O143 Sc133 2.105 . S
O143 C137 1.268 . S
O144 Sc134 2.105 . S
O144 C138 1.268 . S
O145 Sc132 2.105 . S
O145 C139 1.268 . S
O146 Sc134 2.105 . S
O146 C140 1.268 . S
O147 Sc133 2.105 1_565 S
O147 C141 1.268 . S
O148 Sc132 2.105 . S
O148 C140 1.268 . S
O149 Sc133 2.105 . S
O149 C139 1.268 . S
O150 Sc134 2.105 . S
O150 C141 1.268 1_545 S
O151 Sc132 2.105 . S
O151 C137 1.268 . S
O152 Sc134 2.105 . S
O152 C136 1.268 . S
O153 Sc133 2.105 . S
O153 C138 1.268 . S
Sc154 O157 2.025 . S
Sc154 O164 2.105 . S
Sc154 O167 2.105 . S
Sc154 O170 2.105 . S
Sc154 O173 2.105 . S
Sc155 O157 2.025 . S
Sc155 O165 2.105 . S
Sc155 O169 2.105 1_655 S
Sc155 O171 2.105 . S
Sc155 O175 2.105 . S
Sc156 O157 2.025 . S
Sc156 O166 2.105 . S
Sc156 O168 2.105 . S
Sc156 O172 2.105 . S
Sc156 O174 2.105 . S
O157 Sc154 2.025 . S
O157 Sc155 2.025 . S
O157 Sc156 2.025 . S
C158 O164 1.268 . S
C158 O174 1.268 . S
C159 O165 1.268 . S
C159 O173 1.268 . S
C160 O166 1.268 . S
C160 O175 1.268 . S
C161 O167 1.268 . S
C161 O171 1.268 . S
C162 O168 1.268 . S
C162 O170 1.268 . S
C163 O169 1.268 . S
C163 O172 1.268 1_455 S
O164 Sc154 2.105 . S
O164 C158 1.268 . S
O165 Sc155 2.105 . S
O165 C159 1.268 . S
O166 Sc156 2.105 . S
O166 C160 1.268 . S
O167 Sc154 2.105 . S
O167 C161 1.268 . S
O168 Sc156 2.105 . S
O168 C162 1.268 . S
O169 Sc155 2.105 1_455 S
O169 C163 1.268 . S
O170 Sc154 2.105 . S
O170 C162 1.268 . S
O171 Sc155 2.105 . S
O171 C161 1.268 . S
O172 Sc156 2.105 . S
O172 C163 1.268 1_655 S
O173 Sc154 2.105 . S
O173 C159 1.268 . S
O174 Sc156 2.105 . S
O174 C158 1.268 . S
O175 Sc155 2.105 . S
O175 C160 1.268 . S
Sc176 O179 2.025 . S
Sc176 O186 2.105 . S
Sc176 O189 2.105 . S
Sc176 O192 2.105 . S
Sc176 O195 2.105 . S
Sc177 O179 2.025 . S
Sc177 O187 2.105 . S
Sc177 O191 2.105 . S
Sc177 O193 2.105 . S
Sc177 O197 2.105 . S
Sc178 O179 2.025 . S
Sc178 O188 2.105 . S
Sc178 O190 2.105 . S
Sc178 O194 2.105 . S
Sc178 O196 2.105 . S
O179 Sc176 2.025 . S
O179 Sc177 2.025 . S
O179 Sc178 2.025 . S
C180 O186 1.268 . S
C180 O196 1.268 . S
C181 O187 1.268 . S
C181 O195 1.268 . S
C182 O188 1.268 . S
C182 O197 1.268 . S
C183 O189 1.268 . S
C183 O193 1.268 . S
C184 O190 1.268 . S
C184 O192 1.268 . S
C185 O191 1.268 . S
C185 O194 1.268 . S
O186 Sc176 2.105 . S
O186 C180 1.268 . S
O187 Sc177 2.105 . S
O187 C181 1.268 . S
O188 Sc178 2.105 . S
O188 C182 1.268 . S
O189 Sc176 2.105 . S
O189 C183 1.268 . S
O190 Sc178 2.105 . S
O190 C184 1.268 . S
O191 Sc177 2.105 . S
O191 C185 1.268 . S
O192 Sc176 2.105 . S
O192 C184 1.268 . S
O193 Sc177 2.105 . S
O193 C183 1.268 . S
O194 Sc178 2.105 . S
O194 C185 1.268 . S
O195 Sc176 2.105 . S
O195 C181 1.268 . S
O196 Sc178 2.105 . S
O196 C180 1.268 . S
O197 Sc177 2.105 . S
O197 C182 1.268 . S
C198 C199 1.369 . S
C198 C200 1.419 . S
C198 H202 0.930 . S
C199 C198 1.369 . S
C199 C208 1.429 . S
C200 C198 1.419 . S
C200 C201 1.363 1_554 S
C200 H203 0.929 . S
C201 C200 1.363 1_556 S
C201 C207 1.428 . S
H202 C198 0.930 . S
H203 C200 0.929 . S
S204 N205 1.613 1_556 S
S204 N206 1.610 . S
N205 S204 1.613 1_554 S
N205 C208 1.350 . S
N206 S204 1.610 . S
N206 C207 1.351 . S
C207 C201 1.428 . S
C207 N206 1.351 . S
C207 C208 1.434 1_556 S
C208 C199 1.429 . S
C208 N205 1.350 . S
C208 C207 1.434 1_554 S
C209 C210 1.369 . S
C209 C211 1.419 1_554 S
C209 H213 0.930 . S
C210 C209 1.369 . S
C210 C219 1.429 . S
C211 C209 1.419 1_556 S
C211 C212 1.363 . S
C211 H214 0.929 . S
C212 C211 1.363 . S
C212 C218 1.428 1_556 S
H213 C209 0.930 . S
H214 C211 0.929 . S
S215 N216 1.613 . S
S215 N217 1.610 1_554 S
N216 S215 1.613 . S
N216 C219 1.350 . S
N217 S215 1.610 1_556 S
N217 C218 1.351 1_556 S
C218 C212 1.428 1_554 S
C218 N217 1.351 1_554 S
C218 C219 1.434 . S
C219 C210 1.429 . S
C219 N216 1.350 . S
C219 C218 1.434 . S
C220 C221 1.369 1_554 S
C220 C222 1.419 . S
C220 H224 0.930 . S
C221 C220 1.369 1_556 S
C221 C230 1.429 . S
C222 C220 1.419 . S
C222 C223 1.363 . S
C222 H225 0.929 . S
C223 C222 1.363 . S
C223 C229 1.428 1_554 S
H224 C220 0.930 . S
H225 C222 0.929 . S
S226 N227 1.613 . S
S226 N228 1.610 . S
N227 S226 1.613 . S
N227 C230 1.350 . S
N228 S226 1.610 . S
N228 C229 1.351 . S
C229 C223 1.428 1_556 S
C229 N228 1.351 . S
C229 C230 1.434 . S
C230 C221 1.429 . S
C230 N227 1.350 . S
C230 C229 1.434 . S
C231 C232 1.369 1_556 S
C231 C233 1.419 . S
C231 H235 0.930 . S
C232 C231 1.369 1_554 S
C232 C241 1.429 . S
C233 C231 1.419 . S
C233 C234 1.363 . S
C233 H236 0.929 . S
C234 C233 1.363 . S
C234 C240 1.428 1_556 S
H235 C231 0.930 . S
H236 C233 0.929 . S
S237 N238 1.613 . S
S237 N239 1.610 . S
N238 S237 1.613 . S
N238 C241 1.350 . S
N239 S237 1.610 . S
N239 C240 1.351 . S
C240 C234 1.428 1_554 S
C240 N239 1.351 . S
C240 C241 1.434 . S
C241 C232 1.429 . S
C241 N238 1.350 . S
C241 C240 1.434 . S
C242 C243 1.369 1_554 S
C242 C244 1.419 . S
C242 H246 0.930 . S
C243 C242 1.369 1_556 S
C243 C252 1.429 . S
C244 C242 1.419 . S
C244 C245 1.363 . S
C244 H247 0.929 . S
C245 C244 1.363 . S
C245 C251 1.428 1_554 S
H246 C242 0.930 . S
H247 C244 0.929 . S
S248 N249 1.613 . S
S248 N250 1.610 . S
N249 S248 1.613 . S
N249 C252 1.350 . S
N250 S248 1.610 . S
N250 C251 1.351 . S
C251 C245 1.428 1_556 S
C251 N250 1.351 . S
C251 C252 1.434 . S
C252 C243 1.429 . S
C252 N249 1.350 . S
C252 C251 1.434 . S
C253 C254 1.369 1_554 S
C253 C255 1.419 . S
C253 H257 0.930 . S
C254 C253 1.369 1_556 S
C254 C263 1.429 . S
C255 C253 1.419 . S
C255 C256 1.363 . S
C255 H258 0.929 . S
C256 C255 1.363 . S
C256 C262 1.428 1_554 S
H257 C253 0.930 . S
H258 C255 0.929 . S
S259 N260 1.613 . S
S259 N261 1.610 . S
N260 S259 1.613 . S
N260 C263 1.350 . S
N261 S259 1.610 . S
N261 C262 1.351 . S
C262 C256 1.428 1_556 S
C262 N261 1.351 . S
C262 C263 1.434 . S
C263 C254 1.429 . S
C263 N260 1.350 . S
C263 C262 1.434 . S
C264 C265 1.369 . S
C264 C266 1.419 . S
C264 H268 0.930 . S
C265 C264 1.369 . S
C265 C274 1.429 . S
C266 C264 1.419 . S
C266 C267 1.363 1_655 S
C266 H269 0.929 1_655 S
C267 C266 1.363 1_455 S
C267 C273 1.428 1_455 S
H268 C264 0.930 . S
H269 C266 0.929 1_455 S
S270 N271 1.613 . S
S270 N272 1.610 . S
N271 S270 1.613 . S
N271 C274 1.350 . S
N272 S270 1.610 . S
N272 C273 1.351 . S
C273 C267 1.428 1_655 S
C273 N272 1.351 . S
C273 C274 1.434 . S
C274 C265 1.429 . S
C274 N271 1.350 . S
C274 C273 1.434 . S
C275 C276 1.369 . S
C275 C277 1.419 . S
C275 H279 0.930 . S
C276 C275 1.369 . S
C276 C285 1.429 . S
C277 C275 1.419 . S
C277 C278 1.363 . S
C277 H280 0.929 . S
C278 C277 1.363 . S
C278 C284 1.428 . S
H279 C275 0.930 . S
H280 C277 0.929 . S
S281 N282 1.613 . S
S281 N283 1.610 . S
N282 S281 1.613 . S
N282 C285 1.350 . S
N283 S281 1.610 . S
N283 C284 1.351 . S
C284 C278 1.428 . S
C284 N283 1.351 . S
C284 C285 1.434 . S
C285 C276 1.429 . S
C285 N282 1.350 . S
C285 C284 1.434 . S
C286 C287 1.369 . S
C286 C288 1.419 . S
C286 H290 0.930 . S
C287 C286 1.369 . S
C287 C296 1.429 . S
C288 C286 1.419 . S
C288 C289 1.363 . S
C288 H291 0.929 1_545 S
C289 C288 1.363 . S
C289 C295 1.428 . S
H290 C286 0.930 . S
H291 C288 0.929 1_565 S
S292 N293 1.613 . S
S292 N294 1.610 . S
N293 S292 1.613 . S
N293 C296 1.350 . S
N294 S292 1.610 . S
N294 C295 1.351 . S
C295 C289 1.428 . S
C295 N294 1.351 . S
C295 C296 1.434 . S
C296 C287 1.429 . S
C296 N293 1.350 . S
C296 C295 1.434 . S
C297 C298 1.369 . S
C297 C299 1.419 . S
C297 H301 0.930 . S
C298 C297 1.369 . S
C298 C307 1.429 . S
C299 C297 1.419 . S
C299 C300 1.363 . S
C299 H302 0.929 . S
C300 C299 1.363 . S
C300 C306 1.428 . S
H301 C297 0.930 . S
H302 C299 0.929 . S
S303 N304 1.613 . S
S303 N305 1.610 . S
N304 S303 1.613 . S
N304 C307 1.350 . S
N305 S303 1.610 . S
N305 C306 1.351 . S
C306 C300 1.428 . S
C306 N305 1.351 . S
C306 C307 1.434 . S
C307 C298 1.429 . S
C307 N304 1.350 . S
C307 C306 1.434 . S
C308 C309 1.369 . S
C308 C310 1.419 . S
C308 H312 0.930 . S
C309 C308 1.369 . S
C309 C318 1.429 . S
C310 C308 1.419 . S
C310 C311 1.363 . S
C310 H313 0.929 . S
C311 C310 1.363 . S
C311 C317 1.428 . S
H312 C308 0.930 . S
H313 C310 0.929 . S
S314 N315 1.613 . S
S314 N316 1.610 . S
N315 S314 1.613 . S
N315 C318 1.350 . S
N316 S314 1.610 . S
N316 C317 1.351 . S
C317 C311 1.428 . S
C317 N316 1.351 . S
C317 C318 1.434 . S
C318 C309 1.429 . S
C318 N315 1.350 . S
C318 C317 1.434 . S
C319 C320 1.369 . S
C319 C321 1.419 . S
C319 H323 0.930 . S
C320 C319 1.369 . S
C320 C329 1.429 . S
C321 C319 1.419 . S
C321 C322 1.363 . S
C321 H324 0.929 . S
C322 C321 1.363 . S
C322 C328 1.428 . S
H323 C319 0.930 . S
H324 C321 0.929 . S
S325 N326 1.613 . S
S325 N327 1.610 . S
N326 S325 1.613 . S
N326 C329 1.350 . S
N327 S325 1.610 . S
N327 C328 1.351 . S
C328 C322 1.428 . S
C328 N327 1.351 . S
C328 C329 1.434 . S
C329 C320 1.429 . S
C329 N326 1.350 . S
C329 C328 1.434 . S
C330 C331 1.369 . S
C330 C332 1.419 . S
C330 H334 0.930 . S
C331 C330 1.369 . S
C331 C340 1.429 . S
C332 C330 1.419 . S
C332 C333 1.363 . S
C332 H335 0.929 . S
C333 C332 1.363 . S
C333 C339 1.428 . S
H334 C330 0.930 . S
H335 C332 0.929 . S
S336 N337 1.613 . S
S336 N338 1.610 . S
N337 S336 1.613 . S
N337 C340 1.350 . S
N338 S336 1.610 . S
N338 C339 1.351 . S
C339 C333 1.428 . S
C339 N338 1.351 . S
C339 C340 1.434 . S
C340 C331 1.429 . S
C340 N337 1.350 . S
C340 C339 1.434 . S
C341 C342 1.369 . S
C341 C343 1.419 . S
C341 H345 0.930 . S
C342 C341 1.369 . S
C342 C351 1.429 . S
C343 C341 1.419 . S
C343 C344 1.363 . S
C343 H346 0.929 . S
C344 C343 1.363 . S
C344 C350 1.428 . S
H345 C341 0.930 . S
H346 C343 0.929 . S
S347 N348 1.613 . S
S347 N349 1.610 . S
N348 S347 1.613 . S
N348 C351 1.350 . S
N349 S347 1.610 . S
N349 C350 1.351 . S
C350 C344 1.428 . S
C350 N349 1.351 . S
C350 C351 1.434 . S
C351 C342 1.429 . S
C351 N348 1.350 . S
C351 C350 1.434 . S
C352 C353 1.369 . S
C352 C354 1.419 . S
C352 H356 0.930 . S
C353 C352 1.369 . S
C353 C362 1.429 . S
C354 C352 1.419 . S
C354 C355 1.363 . S
C354 H357 0.929 . S
C355 C354 1.363 . S
C355 C361 1.428 . S
H356 C352 0.930 . S
H357 C354 0.929 . S
S358 N359 1.613 . S
S358 N360 1.610 . S
N359 S358 1.613 . S
N359 C362 1.350 . S
N360 S358 1.610 . S
N360 C361 1.351 . S
C361 C355 1.428 . S
C361 N360 1.351 . S
C361 C362 1.434 . S
C362 C353 1.429 . S
C362 N359 1.350 . S
C362 C361 1.434 . S
C363 C364 1.369 . S
C363 C365 1.419 . S
C363 H367 0.930 . S
C364 C363 1.369 . S
C364 C373 1.429 . S
C365 C363 1.419 . S
C365 C366 1.363 1_565 S
C365 H368 0.929 1_565 S
C366 C365 1.363 1_545 S
C366 C372 1.428 1_545 S
H367 C363 0.930 . S
H368 C365 0.929 1_545 S
S369 N370 1.613 . S
S369 N371 1.610 . S
N370 S369 1.613 . S
N370 C373 1.350 . S
N371 S369 1.610 . S
N371 C372 1.351 . S
C372 C366 1.428 1_565 S
C372 N371 1.351 . S
C372 C373 1.434 . S
C373 C364 1.429 . S
C373 N370 1.350 . S
C373 C372 1.434 . S
C374 C375 1.369 . S
C374 C376 1.419 . S
C374 H378 0.930 . S
C375 C374 1.369 . S
C375 C384 1.429 . S
C376 C374 1.419 . S
C376 C377 1.363 . S
C376 H379 0.929 . S
C377 C376 1.363 . S
C377 C383 1.428 . S
H378 C374 0.930 . S
H379 C376 0.929 . S
S380 N381 1.613 . S
S380 N382 1.610 1_655 S
N381 S380 1.613 . S
N381 C384 1.350 1_655 S
N382 S380 1.610 1_455 S
N382 C383 1.351 . S
C383 C377 1.428 . S
C383 N382 1.351 . S
C383 C384 1.434 . S
C384 C375 1.429 . S
C384 N381 1.350 1_455 S
C384 C383 1.434 . S
C385 C386 1.369 . S
C385 C387 1.419 . S
C385 H389 0.930 . S
C386 C385 1.369 . S
C386 C395 1.429 . S
C387 C385 1.419 . S
C387 C388 1.363 . S
C387 H390 0.929 . S
C388 C387 1.363 . S
C388 C394 1.428 . S
H389 C385 0.930 . S
H390 C387 0.929 . S
S391 N392 1.613 . S
S391 N393 1.610 . S
N392 S391 1.613 . S
N392 C395 1.350 . S
N393 S391 1.610 . S
N393 C394 1.351 . S
C394 C388 1.428 . S
C394 N393 1.351 . S
C394 C395 1.434 . S
C395 C386 1.429 . S
C395 N392 1.350 . S
C395 C394 1.434 . S
C396 C397 1.369 . S
C396 C398 1.419 . S
C396 H400 0.930 . S
C397 C396 1.369 . S
C397 C406 1.429 . S
C398 C396 1.419 . S
C398 C399 1.363 . S
C398 H401 0.929 . S
C399 C398 1.363 . S
C399 C405 1.428 . S
H400 C396 0.930 . S
H401 C398 0.929 . S
S402 N403 1.613 . S
S402 N404 1.610 . S
N403 S402 1.613 . S
N403 C406 1.350 . S
N404 S402 1.610 . S
N404 C405 1.351 . S
C405 C399 1.428 . S
C405 N404 1.351 . S
C405 C406 1.434 . S
C406 C397 1.429 . S
C406 N403 1.350 . S
C406 C405 1.434 . S
C407 C408 1.369 . S
C407 C409 1.419 . S
C407 H411 0.930 . S
C408 C407 1.369 . S
C408 C417 1.429 . S
C409 C407 1.419 . S
C409 C410 1.363 . S
C409 H412 0.929 . S
C410 C409 1.363 . S
C410 C416 1.428 . S
H411 C407 0.930 . S
H412 C409 0.929 . S
S413 N414 1.613 . S
S413 N415 1.610 . S
N414 S413 1.613 . S
N414 C417 1.350 . S
N415 S413 1.610 . S
N415 C416 1.351 . S
C416 C410 1.428 . S
C416 N415 1.351 . S
C416 C417 1.434 . S
C417 C408 1.429 . S
C417 N414 1.350 . S
C417 C416 1.434 . S
C418 C419 1.369 . S
C418 C420 1.419 . S
C418 H422 0.930 . S
C419 C418 1.369 . S
C419 C428 1.429 1_565 S
C420 C418 1.419 . S
C420 C421 1.363 . S
C420 H423 0.929 . S
C421 C420 1.363 . S
C421 C427 1.428 1_565 S
H422 C418 0.930 . S
H423 C420 0.929 . S
S424 N425 1.613 . S
S424 N426 1.610 . S
N425 S424 1.613 . S
N425 C428 1.350 . S
N426 S424 1.610 . S
N426 C427 1.351 . S
C427 C421 1.428 1_545 S
C427 N426 1.351 . S
C427 C428 1.434 . S
C428 C419 1.429 1_545 S
C428 N425 1.350 . S
C428 C427 1.434 . S
C429 C430 1.369 . S
C429 C431 1.419 . S
C429 H433 0.930 . S
C430 C429 1.369 . S
C430 C439 1.429 . S
C431 C429 1.419 . S
C431 C432 1.363 . S
C431 H434 0.929 . S
C432 C431 1.363 . S
C432 C438 1.428 . S
H433 C429 0.930 . S
H434 C431 0.929 . S
S435 N436 1.613 1_565 S
S435 N437 1.610 1_565 S
N436 S435 1.613 1_545 S
N436 C439 1.350 . S
N437 S435 1.610 1_545 S
N437 C438 1.351 . S
C438 C432 1.428 . S
C438 N437 1.351 . S
C438 C439 1.434 . S
C439 C430 1.429 . S
C439 N436 1.350 . S
C439 C438 1.434 . S
C440 C441 1.369 1_455 S
C440 C442 1.419 1_455 S
C440 H444 0.930 . S
C441 C440 1.369 1_655 S
C441 C450 1.429 . S
C442 C440 1.419 1_655 S
C442 C443 1.363 . S
C442 H445 0.929 1_655 S
C443 C442 1.363 . S
C443 C449 1.428 . S
H444 C440 0.930 . S
H445 C442 0.929 1_455 S
S446 N447 1.613 . S
S446 N448 1.610 . S
N447 S446 1.613 . S
N447 C450 1.350 . S
N448 S446 1.610 . S
N448 C449 1.351 . S
C449 C443 1.428 . S
C449 N448 1.351 . S
C449 C450 1.434 . S
C450 C441 1.429 . S
C450 N447 1.350 . S
C450 C449 1.434 . S
C451 C452 1.369 . S
C451 C453 1.419 . S
C451 H455 0.930 . S
C452 C451 1.369 . S
C452 C461 1.429 . S
C453 C451 1.419 . S
C453 C454 1.363 . S
C453 H456 0.929 . S
C454 C453 1.363 . S
C454 C460 1.428 . S
H455 C451 0.930 . S
H456 C453 0.929 . S
S457 N458 1.613 . S
S457 N459 1.610 . S
N458 S457 1.613 . S
N458 C461 1.350 . S
N459 S457 1.610 . S
N459 C460 1.351 . S
C460 C454 1.428 . S
C460 N459 1.351 . S
C460 C461 1.434 . S
C461 C452 1.429 . S
C461 N458 1.350 . S
C461 C460 1.434 . S
C462 C463 1.369 . S
C462 C464 1.419 . S
C462 H466 0.930 . S
C463 C462 1.369 . S
C463 C472 1.429 . S
C464 C462 1.419 . S
C464 C465 1.363 . S
C464 H467 0.929 . S
C465 C464 1.363 . S
C465 C471 1.428 . S
H466 C462 0.930 . S
H467 C464 0.929 . S
S468 N469 1.613 . S
S468 N470 1.610 . S
N469 S468 1.613 . S
N469 C472 1.350 . S
N470 S468 1.610 . S
N470 C471 1.351 . S
C471 C465 1.428 . S
C471 N470 1.351 . S
C471 C472 1.434 . S
C472 C463 1.429 . S
C472 N469 1.350 . S
C472 C471 1.434 . S
C473 C474 1.369 . S
C473 C475 1.419 . S
C473 H477 0.930 . S
C474 C473 1.369 . S
C474 C483 1.429 1_565 S
C475 C473 1.419 . S
C475 C476 1.363 1_565 S
C475 H478 0.929 . S
C476 C475 1.363 1_545 S
C476 C482 1.428 . S
H477 C473 0.930 . S
H478 C475 0.929 . S
S479 N480 1.613 . S
S479 N481 1.610 . S
N480 S479 1.613 . S
N480 C483 1.350 . S
N481 S479 1.610 . S
N481 C482 1.351 . S
C482 C476 1.428 . S
C482 N481 1.351 . S
C482 C483 1.434 . S
C483 C474 1.429 1_545 S
C483 N480 1.350 . S
C483 C482 1.434 . S
C484 C485 1.369 . S
C484 C486 1.419 . S
C484 H488 0.930 . S
C485 C484 1.369 . S
C485 C494 1.429 1_655 S
C486 C484 1.419 . S
C486 C487 1.363 1_655 S
C486 H489 0.929 . S
C487 C486 1.363 1_455 S
C487 C493 1.428 . S
H488 C484 0.930 . S
H489 C486 0.929 . S
S490 N491 1.613 . S
S490 N492 1.610 . S
N491 S490 1.613 . S
N491 C494 1.350 . S
N492 S490 1.610 . S
N492 C493 1.351 . S
C493 C487 1.428 . S
C493 N492 1.351 . S
C493 C494 1.434 . S
C494 C485 1.429 1_455 S
C494 N491 1.350 . S
C494 C493 1.434 . S
C199 C26 1.517 . S
C201 C5 1.664 . S
C210 C48 1.520 . S
C212 C27 1.663 . S
C221 C49 1.667 . S
C223 C4 1.517 . S
C232 C53 1.666 . S
C234 C30 1.517 . S
C243 C52 1.528 . S
C245 C9 1.662 . S
C254 C8 1.527 . S
C256 C31 1.661 . S
C265 C71 1.661 . S
C267 C92 1.527 . S
C276 C114 1.524 . S
C278 C93 1.661 . S
C287 C115 1.660 . S
C289 C70 1.524 1_545 S
C298 C96 1.526 . S
C300 C119 1.663 . S
C309 C118 1.524 . S
C311 C75 1.664 . S
C320 C97 1.662 . S
C322 C74 1.527 . S
C331 C158 1.524 . S
C333 C137 1.664 . S
C342 C159 1.660 . S
C344 C180 1.527 . S
C353 C181 1.666 . S
C355 C136 1.520 . S
C364 C185 1.661 . S
C366 C162 1.523 . S
C375 C184 1.516 1_455 S
C377 C141 1.666 . S
C386 C140 1.522 . S
C388 C163 1.665 . S
C397 C117 1.413 . S
C399 C6 1.417 . S
C408 C73 1.418 . S
C410 C28 1.417 . S
C419 C50 1.411 . S
C421 C95 1.414 . S
C430 C51 1.412 . S
C432 C138 1.412 . S
C441 C7 1.419 . S
C443 C160 1.415 . S
C452 C182 1.417 . S
C454 C29 1.417 . S
C463 C72 1.413 . S
C465 C183 1.417 . S
C474 C94 1.416 . S
C476 C139 1.412 . S
C485 C161 1.416 . S
C487 C116 1.412 . S
