# Generated by pormake.
# Topology why, (6)-cn, num edge types: 1
# Building blocks:
#     Node 0, Type 0, BuildingBlock: CUKXOW_clean_sbu_0, # of connection points: 6
#     Node 1, Type 0, BuildingBlock: CUKXOW_clean_sbu_0, # of connection points: 6
#     Node 2, Type 0, BuildingBlock: CUKXOW_clean_sbu_0, # of connection points: 6
#     Node 3, Type 0, BuildingBlock: CUKXOW_clean_sbu_0, # of connection points: 6
#     Node 4, Type 0, BuildingBlock: CUKXOW_clean_sbu_0, # of connection points: 6
#     Node 5, Type 0, BuildingBlock: CUKXOW_clean_sbu_0, # of connection points: 6
#     Node 6, Type 0, BuildingBlock: CUKXOW_clean_sbu_0, # of connection points: 6
#     Node 7, Type 0, BuildingBlock: CUKXOW_clean_sbu_0, # of connection points: 6
#     Node 8, Type 0, BuildingBlock: CUKXOW_clean_sbu_0, # of connection points: 6
#     Node 9, Type 0, BuildingBlock: CUKXOW_clean_sbu_0, # of connection points: 6
#     Node 10, Type 0, BuildingBlock: CUKXOW_clean_sbu_0, # of connection points: 6
#     Node 11, Type 0, BuildingBlock: CUKXOW_clean_sbu_0, # of connection points: 6
#     Node 12, Type 0, BuildingBlock: CUKXOW_clean_sbu_0, # of connection points: 6
#     Node 13, Type 0, BuildingBlock: CUKXOW_clean_sbu_0, # of connection points: 6
#     Node 14, Type 0, BuildingBlock: CUKXOW_clean_sbu_0, # of connection points: 6
#     Node 15, Type 0, BuildingBlock: CUKXOW_clean_sbu_0, # of connection points: 6
#     Edge 16, Type (0, 0), BuildingBlock: AJUNOK_clean_linker_0, # of connection points: 2
#     Edge 17, Type (0, 0), BuildingBlock: AJUNOK_clean_linker_0, # of connection points: 2
#     Edge 18, Type (0, 0), BuildingBlock: AJUNOK_clean_linker_0, # of connection points: 2
#     Edge 19, Type (0, 0), BuildingBlock: AJUNOK_clean_linker_0, # of connection points: 2
#     Edge 20, Type (0, 0), BuildingBlock: AJUNOK_clean_linker_0, # of connection points: 2
#     Edge 21, Type (0, 0), BuildingBlock: AJUNOK_clean_linker_0, # of connection points: 2
#     Edge 22, Type (0, 0), BuildingBlock: AJUNOK_clean_linker_0, # of connection points: 2
#     Edge 23, Type (0, 0), BuildingBlock: AJUNOK_clean_linker_0, # of connection points: 2
#     Edge 24, Type (0, 0), BuildingBlock: AJUNOK_clean_linker_0, # of connection points: 2
#     Edge 25, Type (0, 0), BuildingBlock: AJUNOK_clean_linker_0, # of connection points: 2
#     Edge 26, Type (0, 0), BuildingBlock: AJUNOK_clean_linker_0, # of connection points: 2
#     Edge 27, Type (0, 0), BuildingBlock: AJUNOK_clean_linker_0, # of connection points: 2
#     Edge 28, Type (0, 0), BuildingBlock: AJUNOK_clean_linker_0, # of connection points: 2
#     Edge 29, Type (0, 0), BuildingBlock: AJUNOK_clean_linker_0, # of connection points: 2
#     Edge 30, Type (0, 0), BuildingBlock: AJUNOK_clean_linker_0, # of connection points: 2
#     Edge 31, Type (0, 0), BuildingBlock: AJUNOK_clean_linker_0, # of connection points: 2
#     Edge 32, Type (0, 0), BuildingBlock: AJUNOK_clean_linker_0, # of connection points: 2
#     Edge 33, Type (0, 0), BuildingBlock: AJUNOK_clean_linker_0, # of connection points: 2
#     Edge 34, Type (0, 0), BuildingBlock: AJUNOK_clean_linker_0, # of connection points: 2
#     Edge 35, Type (0, 0), BuildingBlock: AJUNOK_clean_linker_0, # of connection points: 2
#     Edge 36, Type (0, 0), BuildingBlock: AJUNOK_clean_linker_0, # of connection points: 2
#     Edge 37, Type (0, 0), BuildingBlock: AJUNOK_clean_linker_0, # of connection points: 2
#     Edge 38, Type (0, 0), BuildingBlock: AJUNOK_clean_linker_0, # of connection points: 2
#     Edge 39, Type (0, 0), BuildingBlock: AJUNOK_clean_linker_0, # of connection points: 2
#     Edge 40, Type (0, 0), BuildingBlock: AJUNOK_clean_linker_0, # of connection points: 2
#     Edge 41, Type (0, 0), BuildingBlock: AJUNOK_clean_linker_0, # of connection points: 2
#     Edge 42, Type (0, 0), BuildingBlock: AJUNOK_clean_linker_0, # of connection points: 2
#     Edge 43, Type (0, 0), BuildingBlock: AJUNOK_clean_linker_0, # of connection points: 2
#     Edge 44, Type (0, 0), BuildingBlock: AJUNOK_clean_linker_0, # of connection points: 2
#     Edge 45, Type (0, 0), BuildingBlock: AJUNOK_clean_linker_0, # of connection points: 2
#     Edge 46, Type (0, 0), BuildingBlock: AJUNOK_clean_linker_0, # of connection points: 2
#     Edge 47, Type (0, 0), BuildingBlock: AJUNOK_clean_linker_0, # of connection points: 2
#     Edge 48, Type (0, 0), BuildingBlock: AJUNOK_clean_linker_0, # of connection points: 2
#     Edge 49, Type (0, 0), BuildingBlock: AJUNOK_clean_linker_0, # of connection points: 2
#     Edge 50, Type (0, 0), BuildingBlock: AJUNOK_clean_linker_0, # of connection points: 2
#     Edge 51, Type (0, 0), BuildingBlock: AJUNOK_clean_linker_0, # of connection points: 2
#     Edge 52, Type (0, 0), BuildingBlock: AJUNOK_clean_linker_0, # of connection points: 2
#     Edge 53, Type (0, 0), BuildingBlock: AJUNOK_clean_linker_0, # of connection points: 2
#     Edge 54, Type (0, 0), BuildingBlock: AJUNOK_clean_linker_0, # of connection points: 2
#     Edge 55, Type (0, 0), BuildingBlock: AJUNOK_clean_linker_0, # of connection points: 2
#     Edge 56, Type (0, 0), BuildingBlock: AJUNOK_clean_linker_0, # of connection points: 2
#     Edge 57, Type (0, 0), BuildingBlock: AJUNOK_clean_linker_0, # of connection points: 2
#     Edge 58, Type (0, 0), BuildingBlock: AJUNOK_clean_linker_0, # of connection points: 2
#     Edge 59, Type (0, 0), BuildingBlock: AJUNOK_clean_linker_0, # of connection points: 2
#     Edge 60, Type (0, 0), BuildingBlock: AJUNOK_clean_linker_0, # of connection points: 2
#     Edge 61, Type (0, 0), BuildingBlock: AJUNOK_clean_linker_0, # of connection points: 2
#     Edge 62, Type (0, 0), BuildingBlock: AJUNOK_clean_linker_0, # of connection points: 2
#     Edge 63, Type (0, 0), BuildingBlock: AJUNOK_clean_linker_0, # of connection points: 2
# Relax obj value: 0.225
# Max RMSD: 0.195
# Mean RMSD: 0.195
data_MOF--net-why--node1-CUKXOW_clean_sbu_0--edge1-AJUNOK_clean_linker_0
_symmetry_space_group_name_H-M    P1
_symmetry_Int_Tables_number       1
_symmetry_cell_setting            triclinic
loop_
_symmetry_equiv_pos_as_xyz
'x, y, z'
_cell_length_a     38.489799
_cell_length_b     38.570995
_cell_length_c     17.485046
_cell_angle_alpha  89.692728
_cell_angle_beta   89.875361
_cell_angle_gamma 90.073194
loop_
_atom_site_label
_atom_site_type_symbol
_atom_site_fract_x
_atom_site_fract_y
_atom_site_fract_z
_atom_type_partial_charge
Tb0 Tb 0.38363 0.2172 0.13833 0.0
C1 C 0.36362 0.139 0.16406 0.0
Tb2 Tb 0.32605 0.18629 0.03893 0.0
O3 O 0.35329 0.24623 0.22237 0.0
O4 O 0.32852 0.2195 0.136 0.0
O5 O 0.38654 0.16396 0.1751 0.0
C6 C 0.26308 0.16429 1.00237 0.0
O7 O 0.33589 0.143 0.1194 0.0
C8 C 0.3873 0.16299 0.99101 0.0
C9 C 0.36252 0.25847 0.99027 0.0
O10 O 0.27459 0.16759 0.07157 0.0
O11 O 0.28652 0.17477 0.9539 0.0
O12 O 0.35792 0.155 0.95909 0.0
O13 O 0.38005 0.18331 0.04528 0.0
O14 O 0.33517 0.23729 0.98082 0.0
O15 O 0.38495 0.2548 0.04665 0.0
C16 C 0.44358 0.23443 0.18923 0.0
O17 O 0.43425 0.23822 0.11865 0.0
O18 O 0.41963 0.22087 0.23189 0.0
C19 C 0.32327 0.2386 0.19414 0.0
Tb20 Tb 0.55161 0.63243 0.39214 0.0
C21 C 0.62886 0.61468 0.41668 0.0
Tb22 Tb 0.58391 0.57663 0.29134 0.0
O23 O 0.52594 0.60201 0.47997 0.0
O24 O 0.55293 0.57702 0.3939 0.0
O25 O 0.60513 0.63914 0.41993 0.0
C26 C 0.60677 0.51435 0.25054 0.0
O27 O 0.62313 0.5846 0.38182 0.0
C28 C 0.60448 0.63807 0.24078 0.0
C29 C 0.51249 0.61322 0.23958 0.0
O30 O 0.62501 0.5425 0.25012 0.0
O31 O 0.57515 0.52138 0.27161 0.0
O32 O 0.61287 0.60905 0.20817 0.0
O33 O 0.58441 0.63063 0.29602 0.0
O34 O 0.53567 0.58819 0.22406 0.0
O35 O 0.51463 0.63287 0.30078 0.0
C36 C 0.52987 0.69142 0.44334 0.0
O37 O 0.51977 0.67746 0.38003 0.0
O38 O 0.55291 0.67255 0.4778 0.0
C39 C 0.53499 0.572 0.45456 0.0
Tb40 Tb 0.13784 0.80261 0.64474 0.0
C41 C 0.15534 0.87932 0.67254 0.0
Tb42 Tb 0.18895 0.83073 0.54648 0.0
O43 O 0.17309 0.7619 0.68259 0.0
O44 O 0.19279 0.81086 0.66164 0.0
O45 O 0.1356 0.85329 0.69435 0.0
C46 C 0.25228 0.85147 0.50225 0.0
O47 O 0.1801 0.87578 0.62052 0.0
C48 C 0.13063 0.85072 0.48187 0.0
C49 C 0.14774 0.76401 0.49367 0.0
O50 O 0.2255 0.87122 0.51064 0.0
O51 O 0.24315 0.81958 0.51632 0.0
O52 O 0.16135 0.85606 0.4534 0.0
O53 O 0.13327 0.8327 0.5429 0.0
O54 O 0.17874 0.77953 0.49022 0.0
O55 O 0.12436 0.77559 0.54178 0.0
C56 C 0.08301 0.78189 0.72631 0.0
O57 O 0.10646 0.76221 0.69668 0.0
O58 O 0.09148 0.81367 0.71164 0.0
C59 C 0.20099 0.7803 0.6826 0.0
Tb60 Tb 0.96552 0.38539 0.90113 0.0
C61 C 0.8884 0.40968 0.91788 0.0
Tb62 Tb 0.93878 0.43994 0.78684 0.0
O63 O 0.99309 0.41753 0.9833 0.0
O64 O 0.96917 0.44022 0.88967 0.0
O65 O 0.91345 0.38989 0.94578 0.0
C66 C 0.91746 0.50382 0.74981 0.0
O67 O 0.89272 0.43122 0.85896 0.0
C68 C 0.91599 0.37748 0.74516 0.0
C69 C 1.00617 0.39652 0.7448 0.0
O70 O 0.92078 0.49162 0.81857 0.0
O71 O 0.92749 0.48032 0.70127 0.0
O72 O 0.90907 0.40608 0.70822 0.0
O73 O 0.93492 0.38602 0.80141 0.0
O74 O 0.99007 0.42704 0.73443 0.0
O75 O 0.99701 0.37527 0.80092 0.0
C76 C 0.98496 0.32857 0.97027 0.0
O77 O 1.00587 0.35186 0.94321 0.0
O78 O 0.95292 0.33687 0.95635 0.0
C79 C 0.98725 0.44663 0.94916 0.0
Tb80 Tb 0.69287 0.83096 1.02945 0.0
C81 C 0.65084 0.76296 0.07714 0.0
Tb82 Tb 0.63701 0.80308 0.92249 0.0
O83 O 0.66112 0.86189 0.10919 0.0
O84 O 0.63829 0.83473 1.02118 0.0
O85 O 0.68123 0.77974 0.08461 0.0
C86 C 0.57925 0.78283 0.85959 0.0
O87 O 0.62867 0.77127 1.02263 0.0
C88 C 0.69834 0.78174 0.8688 0.0
C89 C 0.65766 0.88126 0.90561 0.0
O90 O 0.59719 0.76469 0.90778 0.0
O91 O 0.59311 0.81305 0.84799 0.0
O92 O 0.66861 0.77489 0.83857 0.0
O93 O 0.69227 0.80005 0.92792 0.0
O94 O 0.63603 0.8564 0.88514 0.0
O95 O 0.68321 0.87642 0.9557 0.0
C96 C 0.75683 0.85241 0.06438 0.0
O97 O 0.74497 0.84778 0.99589 0.0
O98 O 0.73303 0.84356 0.11376 0.0
C99 C 0.63149 0.85454 0.07737 0.0
Tb100 Tb 0.43809 0.4417 0.77356 0.0
C101 C 0.50547 0.403 0.83333 0.0
Tb102 Tb 0.46898 0.38541 0.67975 0.0
O103 O 0.40711 0.41362 0.85821 0.0
O104 O 0.4348 0.38658 0.77609 0.0
O105 O 0.48916 0.43359 0.8312 0.0
C106 C 0.49586 0.32931 0.62566 0.0
O107 O 0.49778 0.37836 0.78451 0.0
C108 C 0.48956 0.44519 0.61694 0.0
C109 C 0.39158 0.4014 0.65118 0.0
O110 O 0.5107 0.34919 0.67519 0.0
O111 O 0.4652 0.34044 0.6073 0.0
O112 O 0.49675 0.41489 0.59105 0.0
O113 O 0.47057 0.44066 0.6756 0.0
O114 O 0.41671 0.37875 0.64151 0.0
O115 O 0.39541 0.42981 0.69325 0.0
C116 C 0.41492 0.50484 0.80578 0.0
O117 O 0.41162 0.48955 0.74054 0.0
O118 O 0.43216 0.48507 0.85255 0.0
C119 C 0.4142 0.38287 0.83279 0.0
Tb120 Tb 0.82862 0.18707 0.52187 0.0
C121 C 0.86992 0.25437 0.57767 0.0
Tb122 Tb 0.88302 0.21934 0.4168 0.0
O123 O 0.86152 0.16077 0.60647 0.0
O124 O 0.8831 0.18674 0.51404 0.0
O125 O 0.84082 0.2355 0.58667 0.0
C126 C 0.93888 0.24459 0.35484 0.0
O127 O 0.89103 0.24954 0.51908 0.0
C128 C 0.82172 0.23534 0.35898 0.0
C129 C 0.86497 0.14224 0.39072 0.0
O130 O 0.91483 0.2628 0.38714 0.0
O131 O 0.93143 0.21176 0.35704 0.0
O132 O 0.85121 0.24444 0.3304 0.0
O133 O 0.82772 0.21751 0.41915 0.0
O134 O 0.88611 0.16801 0.37399 0.0
O135 O 0.83762 0.14564 0.43702 0.0
C136 C 0.76677 0.16383 0.56834 0.0
O137 O 0.79604 0.14796 0.57703 0.0
O138 O 0.7722 0.19348 0.53474 0.0
C139 C 0.89049 0.16763 0.57113 0.0
Tb140 Tb 0.08443 0.5787 0.27255 0.0
C141 C 0.01469 0.6172 0.3248 0.0
Tb142 Tb 0.05278 0.63143 0.16817 0.0
O143 O 0.10964 0.61009 0.36002 0.0
O144 O 0.08426 0.63349 0.26806 0.0
O145 O 0.03508 0.58952 0.33581 0.0
C146 C 0.02888 0.68733 0.10275 0.0
O147 O 0.01929 0.63849 0.26643 0.0
C148 C 0.03642 0.5702 0.11044 0.0
C149 C 0.12996 0.61444 0.1411 0.0
O150 O 0.0101 0.66246 0.13063 0.0
O151 O 0.06167 0.68083 0.11191 0.0
O152 O 0.02793 0.59971 0.08143 0.0
O153 O 0.05431 0.5759 0.17037 0.0
O154 O 0.10389 0.63471 0.12283 0.0
O155 O 0.12672 0.58783 0.18926 0.0
C156 C 0.10608 0.51627 0.31785 0.0
O157 O 0.12594 0.54128 0.29476 0.0
O158 O 0.07398 0.52664 0.31676 0.0
C159 C 0.10276 0.63955 0.32688 0.0
Tb160 Tb 0.88438 0.71678 0.63978 0.0
C161 C 0.86579 0.63953 0.66527 0.0
Tb162 Tb 0.82838 0.68632 0.54134 0.0
O163 O 0.85343 0.74372 0.72719 0.0
O164 O 0.82873 0.71684 0.6423 0.0
O165 O 0.8899 0.6634 0.67445 0.0
C166 C 0.76587 0.66228 0.50328 0.0
O167 O 0.8369 0.64523 0.62623 0.0
C168 C 0.88824 0.66641 0.48068 0.0
C169 C 0.86664 0.75472 0.48444 0.0
O170 O 0.79157 0.64377 0.52724 0.0
O171 O 0.77545 0.6946 0.4994 0.0
O172 O 0.85774 0.66022 0.4521 0.0
O173 O 0.88376 0.68522 0.53973 0.0
O174 O 0.83752 0.73596 0.47949 0.0
O175 O 0.89005 0.74891 0.538 0.0
C176 C 0.94205 0.74153 0.69608 0.0
O177 O 0.92266 0.75716 0.6464 0.0
O178 O 0.9294 0.71132 0.71351 0.0
C179 C 0.8233 0.73505 0.70155 0.0
Tb180 Tb 0.05331 0.13265 0.90236 0.0
C181 C 0.1298 0.10919 0.91906 0.0
Tb182 Tb 0.07915 0.07761 0.79112 0.0
O183 O 0.02629 0.10075 0.98752 0.0
O184 O 0.04965 0.07748 0.89475 0.0
O185 O 0.1056 0.13063 0.94341 0.0
C186 C 0.10137 0.01457 0.75186 0.0
O187 O 0.12447 0.08555 0.86526 0.0
C188 C 0.10264 0.13887 0.74438 0.0
C189 C 0.01188 0.12131 0.74818 0.0
O190 O 0.11158 0.03204 0.81043 0.0
O191 O 0.07787 0.03236 0.7153 0.0
O192 O 0.10726 0.11009 0.70705 0.0
O193 O 0.08404 0.13151 0.80216 0.0
O194 O 0.0279 0.09079 0.73859 0.0
O195 O 0.02207 0.14304 0.80181 0.0
C196 C 0.03271 0.19063 0.9633 0.0
O197 O 0.01276 0.16807 0.93092 0.0
O198 O 0.06487 0.18058 0.96206 0.0
C199 C 0.03217 0.07132 0.95528 0.0
Tb200 Tb 0.63585 0.30122 0.14195 0.0
C201 C 0.65695 0.37784 0.16944 0.0
Tb202 Tb 0.69121 0.33093 0.03741 0.0
O203 O 0.66641 0.27286 0.22576 0.0
O204 O 0.69114 0.2987 0.1371 0.0
O205 O 0.63801 0.35136 0.1924 0.0
C206 C 0.75464 0.35426 1.00386 0.0
O207 O 0.68025 0.37539 0.11321 0.0
C208 C 0.63011 0.35399 0.98899 0.0
C209 C 0.64973 0.26298 0.98726 0.0
O210 O 0.74195 0.35062 0.0721 0.0
O211 O 0.73206 0.34328 0.95419 0.0
O212 O 0.65972 0.36204 0.95751 0.0
O213 O 0.63678 0.33382 0.04471 0.0
O214 O 0.6802 0.27987 0.98157 0.0
O215 O 0.62689 0.27097 0.04062 0.0
C216 C 0.57895 0.28054 0.20737 0.0
O217 O 0.60295 0.26032 0.18137 0.0
O218 O 0.58664 0.31287 0.19519 0.0
C219 C 0.69624 0.27956 0.19568 0.0
Tb220 Tb 0.46848 0.88607 0.39295 0.0
C221 C 0.39079 0.90039 0.42083 0.0
Tb222 Tb 0.4357 0.93949 0.29204 0.0
O223 O 0.49173 0.91695 0.48273 0.0
O224 O 0.46564 0.94161 0.39479 0.0
O225 O 0.41691 0.87941 0.43437 0.0
C226 C 0.41113 1.00163 0.25102 0.0
O227 O 0.39419 0.92862 0.37711 0.0
C228 C 0.41735 0.8788 0.23637 0.0
C229 C 0.50591 0.90231 0.23657 0.0
O230 O 0.3926 0.97532 0.27213 0.0
O231 O 0.44372 0.99277 0.2512 0.0
O232 O 0.41014 0.9083 0.20382 0.0
O233 O 0.43638 0.88483 0.29424 0.0
O234 O 0.48572 0.93045 0.22908 0.0
O235 O 0.50095 0.87968 0.29234 0.0
C236 C 0.49574 0.8318 0.45778 0.0
O237 O 0.51307 0.85668 0.42571 0.0
O238 O 0.46256 0.83725 0.4527 0.0
C239 C 0.48322 0.94673 0.45551 0.0
Tb240 Tb 0.19142 0.33178 0.5247 0.0
C241 C 0.15291 0.26089 0.57453 0.0
Tb242 Tb 0.13815 0.29994 0.41882 0.0
O243 O 0.15856 0.35866 0.60861 0.0
O244 O 0.13707 0.33198 0.51709 0.0
O245 O 0.17809 0.28368 0.59211 0.0
C246 C 0.08046 0.27649 0.36232 0.0
O247 O 0.1356 0.26296 0.50992 0.0
C248 C 0.19987 0.28431 0.36213 0.0
C249 C 0.15298 0.37808 0.40036 0.0
O250 O 0.09453 0.26537 0.42486 0.0
O251 O 0.09831 0.30162 0.33231 0.0
O252 O 0.17057 0.27586 0.33177 0.0
O253 O 0.19346 0.30162 0.42239 0.0
O254 O 0.13019 0.35313 0.39076 0.0
O255 O 0.18251 0.37305 0.4383 0.0
C256 C 0.25406 0.35483 0.56521 0.0
O257 O 0.2279 0.37399 0.54636 0.0
O258 O 0.24467 0.32241 0.56386 0.0
C259 C 0.12964 0.351 0.57407 0.0
Tb260 Tb 0.9363 0.94184 0.27749 0.0
C261 C 1.00746 0.90534 0.32993 0.0
Tb262 Tb 0.96745 0.88493 0.1797 0.0
O263 O 0.90732 0.91141 0.36291 0.0
O264 O 0.93426 0.88741 0.27596 0.0
O265 O 0.98456 0.93074 0.34353 0.0
C266 C 0.98725 0.82499 0.13211 0.0
O267 O 1.00564 0.88495 0.26979 0.0
C268 C 0.98796 0.94502 0.11989 0.0
C269 C 0.89123 0.90641 0.14866 0.0
O270 O 0.98985 0.83523 0.20214 0.0
O271 O 0.97283 0.84793 0.08825 0.0
O272 O 0.9969 0.91481 0.09514 0.0
O273 O 0.96864 0.94022 0.17832 0.0
O274 O 0.9142 0.88125 0.14352 0.0
O275 O 0.89722 0.93527 0.18742 0.0
C276 C 0.91424 1.00462 0.31603 0.0
O277 O 0.89451 0.97873 0.29879 0.0
O278 O 0.94659 0.99499 0.31317 0.0
C279 C 0.91416 0.88154 0.33226 0.0
Tb280 Tb 0.33004 0.68724 1.0208 0.0
C281 C 0.37131 0.75515 0.0684 0.0
Tb282 Tb 0.38488 0.71461 0.91437 0.0
O283 O 0.35998 0.66165 0.10995 0.0
O284 O 0.38518 0.68428 1.0167 0.0
O285 O 0.34214 0.73689 0.07982 0.0
C286 C 0.44222 0.73694 0.85052 0.0
O287 O 0.39294 0.74751 1.01231 0.0
C288 C 0.3238 0.73366 0.85628 0.0
C289 C 0.36261 0.63873 0.89169 0.0
O290 O 0.41972 0.75635 0.8848 0.0
O291 O 0.43264 0.70468 0.85304 0.0
O292 O 0.3537 0.74012 0.8261 0.0
O293 O 0.32931 0.7162 0.91696 0.0
O294 O 0.38641 0.66215 0.87567 0.0
O295 O 0.33587 0.64496 0.93771 0.0
C296 C 0.26759 0.66499 0.06462 0.0
O297 O 0.29349 0.64547 0.04643 0.0
O298 O 0.27703 0.69734 0.05988 0.0
C299 C 0.38995 0.66604 0.07685 0.0
Tb300 Tb 0.57951 0.07746 0.77687 0.0
C301 C 0.51116 0.11913 0.82032 0.0
Tb302 Tb 0.55291 0.13273 0.66788 0.0
O303 O 0.60902 0.10967 0.8589 0.0
O304 O 0.58288 0.13158 0.76812 0.0
O305 O 0.52781 0.08881 0.82843 0.0
C306 C 0.53546 0.19008 0.59792 0.0
O307 O 0.5202 0.14164 0.76658 0.0
C308 C 0.53166 0.07284 0.61222 0.0
C309 C 0.63073 0.11148 0.65244 0.0
O310 O 0.51394 0.1679 0.62739 0.0
O311 O 0.56712 0.18003 0.60956 0.0
O312 O 0.52675 0.1028 0.58152 0.0
O313 O 0.54952 0.07728 0.67304 0.0
O314 O 0.60545 0.1315 0.62727 0.0
O315 O 0.62595 0.08742 0.70625 0.0
C316 C 0.60118 0.01438 0.81704 0.0
O317 O 0.59861 0.02584 0.74749 0.0
O318 O 0.59001 0.03792 0.86403 0.0
C319 C 0.60169 0.13889 0.82525 0.0
C320 C 0.5041 0.2212 0.20512 0.0
C321 C 0.47681 0.24435 0.21561 0.0
C322 C 0.53793 0.23282 0.2111 0.0
C323 C 0.54475 0.26798 0.2253 0.0
H324 H 0.49929 0.19473 0.18734 0.0
H325 H 0.55862 0.21473 0.19806 0.0
S326 S 0.48065 0.33764 0.26031 0.0
N327 N 0.45719 0.30252 0.24453 0.0
N328 N 0.52164 0.32521 0.25481 0.0
C329 C 0.51738 0.29089 0.2402 0.0
C330 C 0.48291 0.2788 0.23495 0.0
C331 C 0.50635 0.73979 0.51705 0.0
C332 C 0.52622 0.72766 0.45581 0.0
C333 C 0.49775 0.7748 0.52057 0.0
C334 C 0.50989 0.79766 0.46398 0.0
H335 H 0.4959 0.72197 0.55938 0.0
H336 H 0.48062 0.78378 0.56555 0.0
S337 S 0.56253 0.77718 0.29232 0.0
N338 N 0.55774 0.73993 0.33808 0.0
N339 N 0.54227 0.80605 0.3453 0.0
C340 C 0.53093 0.78573 0.40422 0.0
C341 C 0.539 0.75034 0.39996 0.0
C342 C 0.02653 0.76664 0.78638 0.0
C343 C 0.04718 0.77134 0.72118 0.0
C344 C 0.99194 0.75609 0.77885 0.0
C345 C 0.9779 0.75077 0.70596 0.0
H346 H 0.03707 0.77107 0.84267 0.0
H347 H 0.97603 0.75272 0.82955 0.0
S348 S 0.02208 0.75886 0.51854 0.0
N349 N 0.05167 0.76958 0.58239 0.0
N350 N 0.98679 0.74956 0.56835 0.0
C351 C 0.99845 0.75515 0.64073 0.0
C352 C 0.03326 0.76562 0.64834 0.0
C353 C 0.98881 0.27248 0.91231 0.0
C354 C 0.99584 0.29333 0.97533 0.0
C355 C 1.00235 0.23947 0.9089 0.0
C356 C 0.0221 0.22616 0.96927 0.0
H357 H 0.97391 0.2822 0.86415 0.0
H358 H 0.99816 0.22456 0.85778 0.0
S359 S 0.05249 0.27338 0.13929 0.0
N360 N 0.02744 0.30135 0.09365 0.0
N361 N 0.05179 0.23718 0.08906 0.0
C362 C 0.03076 0.24726 1.03093 0.0
C363 C 0.0176 0.28153 0.03362 0.0
C364 C 0.51814 0.79619 0.83597 0.0
C365 C 0.54541 0.77229 0.83381 0.0
C366 C 0.48394 0.78454 0.83435 0.0
C367 C 0.47665 0.7489 0.82983 0.0
H368 H 0.52313 0.82346 0.84598 0.0
H369 H 0.46328 0.80325 0.8424 0.0
S370 S 0.53995 0.67722 0.81066 0.0
N371 N 0.56384 0.7126 0.81816 0.0
N372 N 0.49919 0.69045 0.81348 0.0
C373 C 0.50385 0.72525 0.82002 0.0
C374 C 0.53855 0.7371 0.82264 0.0
C375 C 0.50989 0.27984 0.54356 0.0
C376 C 0.50638 0.29426 0.61648 0.0
C377 C 0.52047 0.24548 0.53629 0.0
C378 C 0.52706 0.22586 0.60207 0.0
H379 H 0.50468 0.29514 0.49272 0.0
H380 H 0.52306 0.23418 0.47997 0.0
S381 S 0.51851 0.25175 0.80481 0.0
N382 N 0.50805 0.28656 0.75472 0.0
N383 N 0.5284 0.22195 0.74101 0.0
C384 C 0.5232 0.24006 0.67495 0.0
C385 C 0.51258 0.27456 0.68226 0.0
C386 C 0.99723 0.23697 0.30254 0.0
C387 C 0.97354 0.25741 0.34323 0.0
C388 C 0.03256 0.24399 0.30665 0.0
C389 C 0.04427 0.27216 0.34909 0.0
H390 H 0.98863 0.21435 0.27125 0.0
H391 H 0.0508 0.22681 0.27867 0.0
S392 S 0.99326 0.33097 0.47213 0.0
N393 N 0.96436 0.30541 0.43149 0.0
N394 N 0.03117 0.31898 0.43684 0.0
C395 C 0.02103 0.29306 0.38922 0.0
C396 C 0.98524 0.28577 0.38613 0.0
C397 C 0.98604 0.73001 0.13874 0.0
C398 C 0.01521 0.72174 0.09417 0.0
C399 C 0.97615 0.76409 0.14773 0.0
C400 C 0.99445 0.79034 0.11022 0.0
H401 H 0.97223 0.71042 0.17157 0.0
H402 H 0.95498 0.77008 0.18656 0.0
S403 S 0.07186 0.78248 0.9868 0.0
N404 N 0.06228 0.74223 1.01229 0.0
N405 N 0.04194 0.80727 1.02659 0.0
C406 C 0.02252 0.7827 0.0627 0.0
C407 C 0.0334 0.74789 0.05521 0.0
C408 C 0.17141 0.12989 1.01723 0.0
C409 C 0.16549 0.1168 0.94346 0.0
C410 C 0.20344 0.14461 0.0366 0.0
C411 C 0.23014 0.14757 0.98207 0.0
H412 H 0.15076 0.12973 0.05946 0.0
H413 H 0.20688 0.15479 0.09373 0.0
S414 S 0.22821 0.11631 0.78214 0.0
N415 N 0.18949 0.10645 0.81684 0.0
N416 N 0.24942 0.1349 0.85288 0.0
C417 C 0.22495 0.13371 0.90899 0.0
C418 C 0.19268 0.11801 0.88979 0.0
C419 C 0.6644 0.4426 0.17486 0.0
C420 C 0.64719 0.41241 0.20015 0.0
C421 C 0.65158 0.47565 0.19282 0.0
C422 C 0.62074 0.4796 0.2352 0.0
H423 H 0.68732 0.44079 0.13906 0.0
H424 H 0.66529 0.49824 0.17125 0.0
S425 S 0.56798 0.40968 0.32351 0.0
N426 N 0.59932 0.38933 0.27764 0.0
N427 N 0.57513 0.4513 0.3082 0.0
C428 C 0.60417 0.44996 0.26382 0.0
C429 C 0.61746 0.4164 0.24723 0.0
C430 C 0.32753 0.91141 0.45037 0.0
C431 C 0.35596 0.88859 0.44758 0.0
C432 C 0.29405 0.89931 0.46913 0.0
C433 C 0.28775 0.86389 0.48429 0.0
H434 H 0.33108 0.93869 0.43745 0.0
H435 H 0.27287 0.91777 0.47071 0.0
S436 S 0.35289 0.79332 0.48501 0.0
N437 N 0.37516 0.82854 0.46305 0.0
N438 N 0.31249 0.80641 0.49675 0.0
C439 C 0.31586 0.84097 0.48279 0.0
C440 C 0.34989 0.85317 0.46489 0.0
C441 C 0.88043 0.57859 0.63368 0.0
C442 C 0.87427 0.604 0.68938 0.0
C443 C 0.8944 0.54618 0.65375 0.0
C444 C 0.90228 0.53803 0.73027 0.0
H445 H 0.87577 0.58433 0.57383 0.0
H446 H 0.89938 0.52756 0.6089 0.0
S447 S 0.88792 0.59531 0.89756 0.0
N448 N 0.87557 0.61889 0.82348 0.0
N449 N 0.90047 0.55762 0.86245 0.0
C450 C 0.89483 0.56294 0.78669 0.0
C451 C 0.88124 0.59609 0.76587 0.0
C452 C 0.79631 0.88278 0.15544 0.0
C453 C 0.79067 0.8685 0.08266 0.0
C454 C 0.82836 0.89785 0.17443 0.0
C455 C 0.85593 0.89862 0.1216 0.0
H456 H 0.77598 0.88197 0.19835 0.0
H457 H 0.83218 0.90722 0.23213 0.0
S458 S 0.85409 0.86648 0.92262 0.0
N459 N 0.8148 0.85803 0.95618 0.0
N460 N 0.8754 0.8851 0.99328 0.0
C461 C 0.85039 0.88527 0.04825 0.0
C462 C 0.81761 0.87058 1.02833 0.0
C463 C 0.38554 0.59808 0.79375 0.0
C464 C 0.36959 0.60317 0.86535 0.0
C465 C 0.39915 0.5657 0.7735 0.0
C466 C 0.39856 0.53791 0.82558 0.0
H467 H 0.38836 0.61954 0.75397 0.0
H468 H 0.41144 0.56281 0.71812 0.0
S469 S 0.35779 0.53675 1.01743 0.0
N470 N 0.35188 0.57678 0.986 0.0
N471 N 0.37878 0.51631 0.94869 0.0
C472 C 0.38178 0.5422 0.89605 0.0
C473 C 0.36692 0.57479 0.91579 0.0
C474 C 0.67044 0.14512 0.56661 0.0
C475 C 0.66633 0.12055 0.62618 0.0
C476 C 0.70295 0.15931 0.5488 0.0
C477 C 0.73275 0.14897 0.58862 0.0
H478 H 0.64821 0.1544 0.53466 0.0
H479 H 0.70472 0.17856 0.50368 0.0
S480 S 0.73705 0.08554 0.74821 0.0
N481 N 0.69553 0.08665 0.72476 0.0
N482 N 0.75682 0.11255 0.68886 0.0
C483 C 0.72949 0.12374 0.64638 0.0
C484 C 0.69626 0.10964 0.66561 0.0
C485 C 0.16524 0.43923 0.35638 0.0
C486 C 0.14149 0.41335 0.37842 0.0
C487 C 0.15363 0.47262 0.33627 0.0
C488 C 0.11804 0.48122 0.33898 0.0
H489 H 0.19277 0.43355 0.35386 0.0
H490 H 0.17265 0.49182 0.31869 0.0
S491 S 0.04555 0.42331 0.39634 0.0
N492 N 0.08066 0.39906 0.40331 0.0
N493 N 0.05944 0.46156 0.36679 0.0
C494 C 0.09421 0.45571 0.36151 0.0
C495 C 0.10579 0.42183 0.38098 0.0
C496 C 0.6733 0.66018 0.43535 0.0
C497 C 0.66402 0.62488 0.44135 0.0
C498 C 0.70621 0.67185 0.45602 0.0
C499 C 0.73126 0.64877 0.48372 0.0
H500 H 0.65515 0.67914 0.41306 0.0
H501 H 0.71208 0.69919 0.44959 0.0
S502 S 0.71958 0.55415 0.51582 0.0
N503 N 0.68205 0.56712 0.48003 0.0
N504 N 0.7444 0.58909 0.52004 0.0
C505 C 0.72236 0.61343 0.49162 0.0
C506 C 0.68864 0.60144 0.4699 0.0
C507 C 0.14655 0.96815 0.76313 0.0
C508 C 0.11538 0.9804 0.73021 0.0
C509 C 0.16032 0.93561 0.74342 0.0
C510 C 0.14289 0.91426 0.69139 0.0
H511 H 0.16046 0.98385 0.80416 0.0
H512 H 0.18422 0.92689 0.76983 0.0
S513 S 0.06046 0.93386 0.59068 0.0
N514 N 0.06792 0.96856 0.64304 0.0
N515 N 0.09301 0.90715 0.6082 0.0
C516 C 0.11175 0.92614 0.65869 0.0
C517 C 0.09817 0.95933 0.6775 0.0
C518 C 0.79439 0.38293 0.91037 0.0
C519 C 0.78793 0.37146 0.98544 0.0
C520 C 0.82601 0.3987 0.89068 0.0
C521 C 0.85278 0.4022 0.94464 0.0
H522 H 0.77501 0.37942 0.86622 0.0
H523 H 0.83022 0.40635 0.83171 0.0
S524 S 0.8469 0.38179 0.15146 0.0
N525 N 0.80902 0.36944 0.11658 0.0
N526 N 0.86937 0.39701 0.07799 0.0
C527 C 0.84597 0.39267 1.02075 0.0
C528 C 0.81332 0.3777 0.04151 0.0
C529 C 0.42104 0.06352 0.21922 0.0
C530 C 0.39753 0.03645 0.23278 0.0
C531 C 0.40939 0.09673 0.20052 0.0
C532 C 0.3737 0.10414 0.19228 0.0
H533 H 0.44878 0.05903 0.22251 0.0
H534 H 0.42887 0.11643 0.18934 0.0
S535 S 0.30127 0.04316 0.23104 0.0
N536 N 0.33669 0.01977 0.24476 0.0
N537 N 0.31481 0.08229 0.20593 0.0
C538 C 0.34975 0.07758 0.20806 0.0
C539 C 0.36167 0.04371 0.22916 0.0
C540 C 0.3145 0.34428 0.60816 0.0
C541 C 0.28915 0.36779 0.58331 0.0
C542 C 0.34772 0.35562 0.62807 0.0
C543 C 0.35685 0.39097 0.62431 0.0
H544 H 0.30854 0.3169 0.61335 0.0
H545 H 0.36613 0.33651 0.64868 0.0
S546 S 0.30142 0.46247 0.55321 0.0
N547 N 0.27629 0.42775 0.54889 0.0
N548 N 0.33902 0.44902 0.58772 0.0
C549 C 0.33221 0.4147 0.59716 0.0
C550 C 0.29828 0.4031 0.57612 0.0
C551 C 0.85359 0.08002 0.35568 0.0
C552 C 0.87696 0.10746 0.36735 0.0
C553 C 0.86581 0.04668 0.33795 0.0
C554 C 0.90172 0.03974 0.33311 0.0
H555 H 0.82586 0.08432 0.3602 0.0
H556 H 0.84705 0.02616 0.32891 0.0
S557 S 0.97362 0.10224 0.36092 0.0
N558 N 0.93791 0.12509 0.37335 0.0
N559 N 0.96027 0.06266 0.34143 0.0
C560 C 0.92521 0.06686 0.34457 0.0
C561 C 0.91297 0.10068 0.36142 0.0
C562 C 0.1923 0.60368 0.10453 0.0
C563 C 0.16475 0.62673 0.11753 0.0
C564 C 0.22566 0.61623 0.08654 0.0
C565 C 0.23253 0.65216 0.08314 0.0
H566 H 0.18804 0.57594 0.10795 0.0
H567 H 0.24622 0.59771 0.07596 0.0
S568 S 0.16965 0.72319 0.11524 0.0
N569 N 0.1468 0.68729 0.12575 0.0
N570 N 0.20944 0.71033 0.09513 0.0
C571 C 0.20532 0.67531 0.09643 0.0
C572 C 0.17141 0.66271 0.11288 0.0
C573 C 0.61877 0.95371 0.78697 0.0
C574 C 0.61778 0.98136 0.83894 0.0
C575 C 0.63351 0.92176 0.80758 0.0
C576 C 0.64874 0.91672 0.87994 0.0
H577 H 0.60711 0.9564 0.7309 0.0
H578 H 0.63227 0.90057 0.76721 0.0
S579 S 0.6574 0.98288 1.03195 0.0
N580 N 0.63608 1.00288 0.9628 0.0
N581 N 0.66446 0.94311 1.00105 0.0
C582 C 0.64967 0.94486 0.93064 0.0
C583 C 0.63397 0.97713 0.91028 0.0
C584 C 0.43662 0.17397 0.90133 0.0
C585 C 0.42207 0.15335 0.95935 0.0
C586 C 0.46544 0.16271 0.85856 0.0
C587 C 0.48142 0.13006 0.87132 0.0
H588 H 0.42474 0.19857 0.88667 0.0
H589 H 0.47463 0.17977 0.81352 0.0
S590 S 0.45394 0.06653 1.01955 0.0
N591 N 0.42591 0.09871 1.02848 0.0
N592 N 0.48081 0.07803 0.95008 0.0
C593 C 0.46769 0.10956 0.93103 0.0
C594 C 0.43789 0.121 0.97423 0.0
C595 C 0.65147 0.68184 0.20779 0.0
C596 C 0.61586 0.67293 0.21284 0.0
C597 C 0.66291 0.712 0.1681 0.0
C598 C 0.63922 0.7338 0.12959 0.0
H599 H 0.67073 0.66482 0.23298 0.0
H600 H 0.69052 0.71722 0.1643 0.0
S601 S 0.5431 0.7203 0.12354 0.0
N602 N 0.55741 0.68796 0.17666 0.0
N603 N 0.57785 0.7432 0.10033 0.0
C604 C 0.60342 0.72494 0.13564 0.0
C605 C 0.59203 0.69495 0.17751 0.0
C606 C 0.03496 0.86811 0.43124 0.0
C607 C 0.03683 0.89747 0.38274 0.0
C608 C 0.06499 0.85376 0.4657 0.0
C609 C 0.09828 0.86746 0.45092 0.0
H610 H 0.01025 0.85516 0.43991 0.0
H611 H 0.06227 0.83095 0.50144 0.0
S612 S 0.11716 0.94495 0.33031 0.0
N613 N 0.07462 0.94021 0.324 0.0
N614 N 0.13074 0.91355 0.3874 0.0
C615 C 0.10025 0.89741 0.4042 0.0
C616 C 0.06969 0.91222 0.37029 0.0
C617 C 0.91658 0.29339 0.6319 0.0
C618 C 0.88141 0.28218 0.63286 0.0
C619 C 0.92812 0.32245 0.67359 0.0
C620 C 0.90521 0.34199 0.71865 0.0
H621 H 0.93547 0.28026 0.59635 0.0
H622 H 0.95489 0.33075 0.66713 0.0
S623 S 0.81142 0.32252 0.7474 0.0
N624 N 0.82455 0.29195 0.68825 0.0
N625 N 0.84594 0.34669 0.76521 0.0
C626 C 0.87042 0.33027 0.72307 0.0
C627 C 0.85867 0.30034 0.68107 0.0
C628 C 0.59636 0.90119 0.14356 0.0
C629 C 0.59717 0.86913 0.10431 0.0
C630 C 0.56597 0.9135 0.18061 0.0
C631 C 0.53507 0.89392 0.18189 0.0
H632 H 0.61985 0.91655 0.14767 0.0
H633 H 0.56736 0.9375 0.21236 0.0
S634 S 0.52262 0.80894 0.08692 0.0
N635 N 0.56312 0.81943 0.06546 0.0
N636 N 0.50765 0.84065 0.14063 0.0
C637 C 0.53551 0.86215 0.14208 0.0
C638 C 0.56593 0.85033 0.10169 0.0
C639 C 0.40778 0.31664 0.84244 0.0
C640 C 0.39824 0.35026 0.86603 0.0
C641 C 0.39386 0.28661 0.87876 0.0
C642 C 0.3693 0.28889 0.93888 0.0
H643 H 0.42697 0.31348 0.79762 0.0
H644 H 0.40351 0.26142 0.86185 0.0
S645 S 0.33577 0.37022 1.02273 0.0
N646 N 0.3622 0.38336 0.95401 0.0
N647 N 0.33682 0.32746 1.02074 0.0
C648 C 0.35922 0.32216 0.96174 0.0
C649 C 0.37335 0.35257 0.92557 0.0
C650 C 0.97379 0.11883 0.62706 0.0
C651 C 0.98182 0.13358 0.69876 0.0
C652 C 0.94569 0.13139 0.58187 0.0
C653 C 0.9251 0.15974 0.60561 0.0
H654 H 0.98887 0.09715 0.60624 0.0
H655 H 0.93919 0.11792 0.52974 0.0
S656 S 0.93269 0.20635 0.78864 0.0
N657 N 0.96403 0.17722 0.79168 0.0
N658 N 0.91378 0.20109 0.7052 0.0
C659 C 0.93299 0.1747 0.67592 0.0
C660 C 0.96063 0.16169 0.7226 0.0
C661 C 0.14825 0.72626 0.37258 0.0
C662 C 0.1376 0.73227 0.44871 0.0
C663 C 0.13551 0.69735 0.33066 0.0
C664 C 0.11153 0.67359 0.363 0.0
H665 H 0.16627 0.744 0.34517 0.0
H666 H 0.14543 0.69293 0.27382 0.0
S667 S 0.07758 0.67562 0.56111 0.0
N668 N 0.10304 0.70997 0.55513 0.0
N669 N 0.07937 0.65724 0.4763 0.0
C670 C 0.10131 0.67916 0.43879 0.0
C671 C 0.11416 0.70802 0.48141 0.0
C672 C 0.9541 0.65323 0.48145 0.0
C673 C 0.92132 0.65269 0.44501 0.0
C674 C 0.98429 0.63936 0.44542 0.0
C675 C 0.98283 0.62425 0.37191 0.0
H676 H 0.95655 0.6647 0.53759 0.0
H677 H 1.00905 0.6416 0.47409 0.0
S678 S 0.90407 0.61687 0.25133 0.0
N679 N 0.89014 0.63554 0.33026 0.0
N680 N 0.946 0.61042 0.26429 0.0
C681 C 0.95031 0.62347 0.33577 0.0
C682 C 0.9199 0.63731 0.37183 0.0
C683 C 0.09811 0.1839 0.64382 0.0
C684 C 0.11279 0.17367 0.71337 0.0
C685 C 0.11113 0.21215 0.60209 0.0
C686 C 0.14029 0.23186 0.62639 0.0
H687 H 0.07677 0.16915 0.6199 0.0
H688 H 0.0981 0.21784 0.54871 0.0
S689 S 0.18787 0.21642 0.80753 0.0
N690 N 0.15755 0.18597 0.80739 0.0
N691 N 0.18241 0.23927 0.72816 0.0
C692 C 0.15476 0.22255 0.69749 0.0
C693 C 0.14107 0.19347 0.74087 0.0
C694 C 0.56506 0.41378 0.8884 0.0
C695 C 0.534 0.39461 0.88862 0.0
C696 C 0.59536 0.40094 0.92426 0.0
C697 C 0.59588 0.36867 0.96319 0.0
H698 H 0.56667 0.43774 0.85598 0.0
H699 H 0.61903 0.41599 0.91915 0.0
S700 S 0.5205 0.30949 0.98514 0.0
N701 N 0.50526 0.34214 0.93365 0.0
N702 N 0.56154 0.31899 1.00333 0.0
C703 C 0.56443 0.35022 0.96763 0.0
C704 C 0.53378 0.36289 0.92962 0.0
C705 C 0.41224 0.80444 0.09602 0.0
C706 C 0.38224 0.78536 0.11756 0.0
C707 C 0.42359 0.8336 0.1366 0.0
C708 C 0.40696 0.8446 0.20337 0.0
H709 H 0.42686 0.79771 0.04525 0.0
H710 H 0.44476 0.8487 0.11324 0.0
S711 S 0.32496 0.80741 0.281 0.0
N712 N 0.33423 0.78218 0.20766 0.0
N713 N 0.35649 0.83652 0.28532 0.0
C714 C 0.3766 0.82648 0.22563 0.0
C715 C 0.36427 0.79694 0.1829 0.0
C716 C 0.08108 0.39432 0.59653 0.0
C717 C 0.09464 0.36045 0.60484 0.0
C718 C 0.05172 0.40564 0.63896 0.0
C719 C 0.03539 0.38392 0.69352 0.0
H720 H 0.094 0.41265 0.55893 0.0
H721 H 0.04269 0.43199 0.63108 0.0
S722 S 0.06241 0.29287 0.73797 0.0
N723 N 0.08997 0.30571 0.67127 0.0
N724 N 0.03604 0.32597 0.75165 0.0
C725 C 0.04889 0.34969 0.70112 0.0
C726 C 0.07819 0.33832 0.65703 0.0
C727 C 0.91538 0.81557 0.34772 0.0
C728 C 0.89924 0.84777 0.36095 0.0
C729 C 0.90326 0.78484 0.38398 0.0
C730 C 0.87383 0.78484 0.43259 0.0
H731 H 0.9385 0.81435 0.31246 0.0
H732 H 0.9178 0.76108 0.37613 0.0
S733 S 0.82142 0.86176 0.48359 0.0
N734 N 0.85145 0.87712 0.42491 0.0
N735 N 0.82886 0.81972 0.49071 0.0
C736 C 0.85676 0.81649 0.44352 0.0
C737 C 0.86934 0.84776 0.40815 0.0
C738 C 0.42251 0.64626 0.19122 0.0
C739 C 0.42292 0.65242 0.11186 0.0
C740 C 0.45074 0.63136 0.22952 0.0
C741 C 0.48134 0.62138 0.19106 0.0
H742 H 0.40002 0.65339 0.22504 0.0
H743 H 0.44878 0.62841 0.29107 0.0
S744 S 0.49587 0.62967 0.98208 0.0
N745 N 0.45637 0.64562 0.99462 0.0
N746 N 0.51005 0.61798 0.06764 0.0
C747 C 0.48218 0.62654 0.11119 0.0
C748 C 0.453 0.64205 0.0715 0.0
C749 C 0.60291 0.22513 0.93036 0.0
C750 C 0.63868 0.23401 0.93453 0.0
C751 C 0.59093 0.19582 0.89022 0.0
C752 C 0.61402 0.17366 0.85221 0.0
H753 H 0.5837 0.24047 0.9603 0.0
H754 H 0.56349 0.18954 0.89223 0.0
S755 S 0.70969 0.18542 0.83988 0.0
N756 N 0.69668 0.21852 0.89233 0.0
N757 N 0.6743 0.16322 0.81828 0.0
C758 C 0.64963 0.18259 0.8535 0.0
C759 C 0.66189 0.2128 0.89381 0.0
C760 C 0.2866 0.24138 0.31319 0.0
C761 C 0.29018 0.24825 0.23391 0.0
C762 C 0.25866 0.25484 0.35672 0.0
C763 C 0.23357 0.27653 0.32308 0.0
H764 H 0.30568 0.22535 0.34193 0.0
H765 H 0.25619 0.24742 0.41632 0.0
S766 S 0.2332 0.30627 0.12084 0.0
N767 N 0.26752 0.28066 0.12603 0.0
N768 N 0.21537 0.30586 0.20687 0.0
C769 C 0.23744 0.28433 0.24459 0.0
C770 C 0.26561 0.27038 0.20031 0.0
C771 C 0.52712 0.50615 0.4628 0.0
C772 C 0.52491 0.53916 0.49604 0.0
C773 C 0.5153 0.47627 0.5025 0.0
C774 C 0.5006 0.47799 0.57694 0.0
H775 H 0.53756 0.50339 0.40562 0.0
H776 H 0.51757 0.45147 0.47415 0.0
S777 S 0.49109 0.5578 0.6916 0.0
N778 N 0.50834 0.57127 0.61024 0.0
N779 N 0.48608 0.51551 0.68271 0.0
C780 C 0.49864 0.51069 0.6109 0.0
C781 C 0.51083 0.54103 0.57105 0.0
C782 C 0.23186 0.73792 0.7711 0.0
C783 C 0.23187 0.77 0.73082 0.0
C784 C 0.26044 0.72691 0.81616 0.0
C785 C 0.29061 0.74731 0.82216 0.0
H786 H 0.20963 0.72079 0.76713 0.0
H787 H 0.25946 0.70167 0.84353 0.0
S788 S 0.3037 0.83408 0.73255 0.0
N789 N 0.26448 0.8225 0.7042 0.0
N790 N 0.31802 0.8019 0.78656 0.0
C791 C 0.2906 0.77971 0.78377 0.0
C792 C 0.26142 0.79103 0.73882 0.0
C793 C 0.04606 0.51021 0.05496 0.0
C794 C 0.02345 0.53698 0.07673 0.0
C795 C 0.03426 0.48224 1.00968 0.0
C796 C 0.99961 0.48009 0.98281 0.0
H797 H 0.07317 0.51128 0.07132 0.0
H798 H 0.05248 0.46181 0.99586 0.0
S799 S 0.929 0.54063 0.03492 0.0
N800 N 0.96397 0.55776 0.07416 0.0
N801 N 0.94213 0.50532 0.99031 0.0
C802 C 0.97663 0.50615 1.00625 0.0
C803 C 0.98852 0.53449 0.0526 0.0
C804 C 0.7355 0.73534 0.80803 0.0
C805 C 0.73199 0.77016 0.83252 0.0
C806 C 0.7639 0.72409 0.76245 0.0
C807 C 0.78989 0.74734 0.73779 0.0
H808 H 0.7159 0.71648 0.82418 0.0
H809 H 0.76589 0.6969 0.74798 0.0
S810 S 0.79004 0.84222 0.77356 0.0
N811 N 0.75529 0.82826 0.82011 0.0
N812 N 0.80834 0.80755 0.73582 0.0
C813 C 0.78607 0.78238 0.75977 0.0
C814 C 0.75729 0.79371 0.80638 0.0
C815 C 0.75941 0.28723 0.23319 0.0
C816 C 0.72913 0.26702 0.23195 0.0
C817 C 0.78841 0.27699 0.2771 0.0
C818 C 0.78843 0.24627 0.32207 0.0
H819 H 0.76046 0.3115 0.20184 0.0
H820 H 0.81122 0.29348 0.2758 0.0
S821 S 0.71664 0.18251 0.33215 0.0
N822 N 0.70164 0.21363 0.27603 0.0
N823 N 0.75611 0.1947 0.35756 0.0
C824 C 0.75854 0.22559 0.32027 0.0
C825 C 0.72902 0.2359 0.27543 0.0
C826 C 0.98964 0.03712 0.03482 0.0
C827 C 0.02079 0.03775 0.99142 0.0
C828 C 0.97941 1.00789 0.07876 0.0
C829 C 1.00013 0.97795 0.08187 0.0
H830 H 0.97289 0.05967 0.035 0.0
H831 H 0.95488 1.00855 0.10917 0.0
S832 S 0.08613 0.96738 0.98697 0.0
N833 N 0.07337 1.00643 0.95987 0.0
N834 N 0.05465 0.95178 0.04161 0.0
C835 C 0.03172 0.97853 0.04008 0.0
C836 C 0.04195 1.00822 0.9951 0.0
C837 C 0.52805 1.00713 0.59846 0.0
C838 C 0.51843 0.04048 0.57444 0.0
C839 C 0.51628 0.97746 0.55911 0.0
C840 C 0.49434 0.97963 0.49402 0.0
H841 H 0.54502 1.00387 0.64726 0.0
H842 H 0.52478 0.95239 0.58003 0.0
S843 S 0.46059 0.06088 0.40906 0.0
N844 N 0.48465 0.0738 0.48154 0.0
N845 N 0.46311 0.01816 0.40906 0.0
C846 C 0.4843 0.01274 0.46993 0.0
C847 C 0.49617 0.04299 0.50977 0.0
loop_
_geom_bond_atom_site_label_1
_geom_bond_atom_site_label_2
_geom_bond_distance
_geom_bond_site_symmetry_2
_ccdc_geom_bond_type
Tb0 O3 2.453 . S
Tb0 O4 2.596 . S
Tb0 O5 2.374 . S
Tb0 O13 2.343 . S
Tb0 O15 2.353 . S
Tb0 O17 2.427 . S
Tb0 O18 2.513 . S
C1 O5 1.251 . S
C1 O7 1.263 . S
Tb2 O4 2.333 1_556 S
Tb2 O7 2.344 1_556 S
Tb2 O10 2.423 1_556 S
Tb2 O11 2.514 . S
Tb2 O12 2.459 . S
Tb2 O13 2.593 1_556 S
Tb2 O14 2.377 . S
O3 Tb0 2.453 . S
O3 C19 1.245 . S
O4 Tb0 2.596 . S
O4 Tb2 2.333 1_554 S
O4 C19 1.259 . S
O5 Tb0 2.374 . S
O5 C1 1.251 . S
C6 O10 1.275 . S
C6 O11 1.246 1_554 S
O7 C1 1.263 . S
O7 Tb2 2.344 1_554 S
C8 O12 1.245 . S
C8 O13 1.259 1_556 S
C9 O14 1.250 . S
C9 O15 1.263 1_556 S
O10 Tb2 2.423 1_554 S
O10 C6 1.275 . S
O11 Tb2 2.514 . S
O11 C6 1.246 1_556 S
O12 Tb2 2.459 . S
O12 C8 1.245 . S
O13 Tb0 2.343 . S
O13 Tb2 2.593 1_554 S
O13 C8 1.259 1_554 S
O14 Tb2 2.377 . S
O14 C9 1.250 . S
O15 Tb0 2.353 . S
O15 C9 1.263 1_554 S
C16 O17 1.275 . S
C16 O18 1.246 . S
O17 Tb0 2.427 . S
O17 C16 1.275 . S
O18 Tb0 2.513 . S
O18 C16 1.246 . S
C19 O3 1.245 . S
C19 O4 1.259 . S
Tb20 O23 2.453 . S
Tb20 O24 2.596 . S
Tb20 O25 2.374 . S
Tb20 O33 2.343 . S
Tb20 O35 2.353 . S
Tb20 O37 2.427 . S
Tb20 O38 2.513 . S
C21 O25 1.251 . S
C21 O27 1.263 . S
Tb22 O24 2.343 . S
Tb22 O27 2.353 . S
Tb22 O30 2.427 . S
Tb22 O31 2.513 . S
Tb22 O32 2.453 . S
Tb22 O33 2.596 . S
Tb22 O34 2.374 . S
O23 Tb20 2.453 . S
O23 C39 1.245 . S
O24 Tb20 2.596 . S
O24 Tb22 2.343 . S
O24 C39 1.259 . S
O25 Tb20 2.374 . S
O25 C21 1.251 . S
C26 O30 1.275 . S
C26 O31 1.246 . S
O27 C21 1.263 . S
O27 Tb22 2.353 . S
C28 O32 1.245 . S
C28 O33 1.259 . S
C29 O34 1.250 . S
C29 O35 1.263 . S
O30 Tb22 2.427 . S
O30 C26 1.275 . S
O31 Tb22 2.513 . S
O31 C26 1.246 . S
O32 Tb22 2.453 . S
O32 C28 1.245 . S
O33 Tb20 2.343 . S
O33 Tb22 2.596 . S
O33 C28 1.259 . S
O34 Tb22 2.374 . S
O34 C29 1.250 . S
O35 Tb20 2.353 . S
O35 C29 1.263 . S
C36 O37 1.275 . S
C36 O38 1.246 . S
O37 Tb20 2.427 . S
O37 C36 1.275 . S
O38 Tb20 2.513 . S
O38 C36 1.246 . S
C39 O23 1.245 . S
C39 O24 1.259 . S
Tb40 O43 2.453 . S
Tb40 O44 2.596 . S
Tb40 O45 2.374 . S
Tb40 O53 2.343 . S
Tb40 O55 2.353 . S
Tb40 O57 2.427 . S
Tb40 O58 2.513 . S
C41 O45 1.251 . S
C41 O47 1.263 . S
Tb42 O44 2.343 . S
Tb42 O47 2.353 . S
Tb42 O50 2.427 . S
Tb42 O51 2.513 . S
Tb42 O52 2.453 . S
Tb42 O53 2.596 . S
Tb42 O54 2.374 . S
O43 Tb40 2.453 . S
O43 C59 1.245 . S
O44 Tb40 2.596 . S
O44 Tb42 2.343 . S
O44 C59 1.259 . S
O45 Tb40 2.374 . S
O45 C41 1.251 . S
C46 O50 1.275 . S
C46 O51 1.246 . S
O47 C41 1.263 . S
O47 Tb42 2.353 . S
C48 O52 1.245 . S
C48 O53 1.259 . S
C49 O54 1.250 . S
C49 O55 1.263 . S
O50 Tb42 2.427 . S
O50 C46 1.275 . S
O51 Tb42 2.513 . S
O51 C46 1.246 . S
O52 Tb42 2.453 . S
O52 C48 1.245 . S
O53 Tb40 2.343 . S
O53 Tb42 2.596 . S
O53 C48 1.259 . S
O54 Tb42 2.374 . S
O54 C49 1.250 . S
O55 Tb40 2.353 . S
O55 C49 1.263 . S
C56 O57 1.275 . S
C56 O58 1.246 . S
O57 Tb40 2.427 . S
O57 C56 1.275 . S
O58 Tb40 2.513 . S
O58 C56 1.246 . S
C59 O43 1.245 . S
C59 O44 1.259 . S
Tb60 O63 2.453 . S
Tb60 O64 2.596 . S
Tb60 O65 2.374 . S
Tb60 O73 2.343 . S
Tb60 O75 2.353 . S
Tb60 O77 2.427 . S
Tb60 O78 2.513 . S
C61 O65 1.251 . S
C61 O67 1.263 . S
Tb62 O64 2.343 . S
Tb62 O67 2.353 . S
Tb62 O70 2.427 . S
Tb62 O71 2.513 . S
Tb62 O72 2.453 . S
Tb62 O73 2.596 . S
Tb62 O74 2.374 . S
O63 Tb60 2.453 . S
O63 C79 1.245 . S
O64 Tb60 2.596 . S
O64 Tb62 2.343 . S
O64 C79 1.259 . S
O65 Tb60 2.374 . S
O65 C61 1.251 . S
C66 O70 1.275 . S
C66 O71 1.246 . S
O67 C61 1.263 . S
O67 Tb62 2.353 . S
C68 O72 1.245 . S
C68 O73 1.259 . S
C69 O74 1.250 . S
C69 O75 1.263 . S
O70 Tb62 2.427 . S
O70 C66 1.275 . S
O71 Tb62 2.513 . S
O71 C66 1.246 . S
O72 Tb62 2.453 . S
O72 C68 1.245 . S
O73 Tb60 2.343 . S
O73 Tb62 2.596 . S
O73 C68 1.259 . S
O74 Tb62 2.374 . S
O74 C69 1.250 . S
O75 Tb60 2.353 . S
O75 C69 1.263 . S
C76 O77 1.275 . S
C76 O78 1.246 . S
O77 Tb60 2.427 . S
O77 C76 1.275 . S
O78 Tb60 2.513 . S
O78 C76 1.246 . S
C79 O63 1.245 . S
C79 O64 1.259 . S
Tb80 O83 2.459 . S
Tb80 O84 2.593 1_554 S
Tb80 O85 2.377 . S
Tb80 O93 2.333 1_554 S
Tb80 O95 2.344 1_554 S
Tb80 O97 2.423 1_554 S
Tb80 O98 2.514 . S
C81 O85 1.251 . S
C81 O87 1.263 1_554 S
Tb82 O84 2.343 . S
Tb82 O87 2.353 . S
Tb82 O90 2.427 . S
Tb82 O91 2.513 . S
Tb82 O92 2.453 . S
Tb82 O93 2.596 . S
Tb82 O94 2.374 . S
O83 Tb80 2.459 . S
O83 C99 1.245 . S
O84 Tb80 2.593 1_556 S
O84 Tb82 2.343 . S
O84 C99 1.259 1_556 S
O85 Tb80 2.377 . S
O85 C81 1.251 . S
C86 O90 1.275 . S
C86 O91 1.246 . S
O87 C81 1.263 1_556 S
O87 Tb82 2.353 . S
C88 O92 1.245 . S
C88 O93 1.259 . S
C89 O94 1.250 . S
C89 O95 1.263 . S
O90 Tb82 2.427 . S
O90 C86 1.275 . S
O91 Tb82 2.513 . S
O91 C86 1.246 . S
O92 Tb82 2.453 . S
O92 C88 1.245 . S
O93 Tb80 2.333 1_556 S
O93 Tb82 2.596 . S
O93 C88 1.259 . S
O94 Tb82 2.374 . S
O94 C89 1.250 . S
O95 Tb80 2.344 1_556 S
O95 C89 1.263 . S
C96 O97 1.275 . S
C96 O98 1.246 1_556 S
O97 Tb80 2.423 1_556 S
O97 C96 1.275 . S
O98 Tb80 2.514 . S
O98 C96 1.246 1_554 S
C99 O83 1.245 . S
C99 O84 1.259 1_554 S
Tb100 O103 2.453 . S
Tb100 O104 2.596 . S
Tb100 O105 2.374 . S
Tb100 O113 2.343 . S
Tb100 O115 2.353 . S
Tb100 O117 2.427 . S
Tb100 O118 2.513 . S
C101 O105 1.251 . S
C101 O107 1.263 . S
Tb102 O104 2.343 . S
Tb102 O107 2.353 . S
Tb102 O110 2.427 . S
Tb102 O111 2.513 . S
Tb102 O112 2.453 . S
Tb102 O113 2.596 . S
Tb102 O114 2.374 . S
O103 Tb100 2.453 . S
O103 C119 1.245 . S
O104 Tb100 2.596 . S
O104 Tb102 2.343 . S
O104 C119 1.259 . S
O105 Tb100 2.374 . S
O105 C101 1.251 . S
C106 O110 1.275 . S
C106 O111 1.246 . S
O107 C101 1.263 . S
O107 Tb102 2.353 . S
C108 O112 1.245 . S
C108 O113 1.259 . S
C109 O114 1.250 . S
C109 O115 1.263 . S
O110 Tb102 2.427 . S
O110 C106 1.275 . S
O111 Tb102 2.513 . S
O111 C106 1.246 . S
O112 Tb102 2.453 . S
O112 C108 1.245 . S
O113 Tb100 2.343 . S
O113 Tb102 2.596 . S
O113 C108 1.259 . S
O114 Tb102 2.374 . S
O114 C109 1.250 . S
O115 Tb100 2.353 . S
O115 C109 1.263 . S
C116 O117 1.275 . S
C116 O118 1.246 . S
O117 Tb100 2.427 . S
O117 C116 1.275 . S
O118 Tb100 2.513 . S
O118 C116 1.246 . S
C119 O103 1.245 . S
C119 O104 1.259 . S
Tb120 O123 2.453 . S
Tb120 O124 2.596 . S
Tb120 O125 2.374 . S
Tb120 O133 2.343 . S
Tb120 O135 2.353 . S
Tb120 O137 2.427 . S
Tb120 O138 2.513 . S
C121 O125 1.251 . S
C121 O127 1.263 . S
Tb122 O124 2.343 . S
Tb122 O127 2.353 . S
Tb122 O130 2.427 . S
Tb122 O131 2.513 . S
Tb122 O132 2.453 . S
Tb122 O133 2.596 . S
Tb122 O134 2.374 . S
O123 Tb120 2.453 . S
O123 C139 1.245 . S
O124 Tb120 2.596 . S
O124 Tb122 2.343 . S
O124 C139 1.259 . S
O125 Tb120 2.374 . S
O125 C121 1.251 . S
C126 O130 1.275 . S
C126 O131 1.246 . S
O127 C121 1.263 . S
O127 Tb122 2.353 . S
C128 O132 1.245 . S
C128 O133 1.259 . S
C129 O134 1.250 . S
C129 O135 1.263 . S
O130 Tb122 2.427 . S
O130 C126 1.275 . S
O131 Tb122 2.513 . S
O131 C126 1.246 . S
O132 Tb122 2.453 . S
O132 C128 1.245 . S
O133 Tb120 2.343 . S
O133 Tb122 2.596 . S
O133 C128 1.259 . S
O134 Tb122 2.374 . S
O134 C129 1.250 . S
O135 Tb120 2.353 . S
O135 C129 1.263 . S
C136 O137 1.275 . S
C136 O138 1.246 . S
O137 Tb120 2.427 . S
O137 C136 1.275 . S
O138 Tb120 2.513 . S
O138 C136 1.246 . S
C139 O123 1.245 . S
C139 O124 1.259 . S
Tb140 O143 2.453 . S
Tb140 O144 2.596 . S
Tb140 O145 2.374 . S
Tb140 O153 2.343 . S
Tb140 O155 2.353 . S
Tb140 O157 2.427 . S
Tb140 O158 2.513 . S
C141 O145 1.251 . S
C141 O147 1.263 . S
Tb142 O144 2.343 . S
Tb142 O147 2.353 . S
Tb142 O150 2.427 . S
Tb142 O151 2.513 . S
Tb142 O152 2.453 . S
Tb142 O153 2.596 . S
Tb142 O154 2.374 . S
O143 Tb140 2.453 . S
O143 C159 1.245 . S
O144 Tb140 2.596 . S
O144 Tb142 2.343 . S
O144 C159 1.259 . S
O145 Tb140 2.374 . S
O145 C141 1.251 . S
C146 O150 1.275 . S
C146 O151 1.246 . S
O147 C141 1.263 . S
O147 Tb142 2.353 . S
C148 O152 1.245 . S
C148 O153 1.259 . S
C149 O154 1.250 . S
C149 O155 1.263 . S
O150 Tb142 2.427 . S
O150 C146 1.275 . S
O151 Tb142 2.513 . S
O151 C146 1.246 . S
O152 Tb142 2.453 . S
O152 C148 1.245 . S
O153 Tb140 2.343 . S
O153 Tb142 2.596 . S
O153 C148 1.259 . S
O154 Tb142 2.374 . S
O154 C149 1.250 . S
O155 Tb140 2.353 . S
O155 C149 1.263 . S
C156 O157 1.275 . S
C156 O158 1.246 . S
O157 Tb140 2.427 . S
O157 C156 1.275 . S
O158 Tb140 2.513 . S
O158 C156 1.246 . S
C159 O143 1.245 . S
C159 O144 1.259 . S
Tb160 O163 2.453 . S
Tb160 O164 2.596 . S
Tb160 O165 2.374 . S
Tb160 O173 2.343 . S
Tb160 O175 2.353 . S
Tb160 O177 2.427 . S
Tb160 O178 2.513 . S
C161 O165 1.251 . S
C161 O167 1.263 . S
Tb162 O164 2.343 . S
Tb162 O167 2.353 . S
Tb162 O170 2.427 . S
Tb162 O171 2.513 . S
Tb162 O172 2.453 . S
Tb162 O173 2.596 . S
Tb162 O174 2.374 . S
O163 Tb160 2.453 . S
O163 C179 1.245 . S
O164 Tb160 2.596 . S
O164 Tb162 2.343 . S
O164 C179 1.259 . S
O165 Tb160 2.374 . S
O165 C161 1.251 . S
C166 O170 1.275 . S
C166 O171 1.246 . S
O167 C161 1.263 . S
O167 Tb162 2.353 . S
C168 O172 1.245 . S
C168 O173 1.259 . S
C169 O174 1.250 . S
C169 O175 1.263 . S
O170 Tb162 2.427 . S
O170 C166 1.275 . S
O171 Tb162 2.513 . S
O171 C166 1.246 . S
O172 Tb162 2.453 . S
O172 C168 1.245 . S
O173 Tb160 2.343 . S
O173 Tb162 2.596 . S
O173 C168 1.259 . S
O174 Tb162 2.374 . S
O174 C169 1.250 . S
O175 Tb160 2.353 . S
O175 C169 1.263 . S
C176 O177 1.275 . S
C176 O178 1.246 . S
O177 Tb160 2.427 . S
O177 C176 1.275 . S
O178 Tb160 2.513 . S
O178 C176 1.246 . S
C179 O163 1.245 . S
C179 O164 1.259 . S
Tb180 O183 2.453 . S
Tb180 O184 2.596 . S
Tb180 O185 2.374 . S
Tb180 O193 2.343 . S
Tb180 O195 2.353 . S
Tb180 O197 2.427 . S
Tb180 O198 2.513 . S
C181 O185 1.251 . S
C181 O187 1.263 . S
Tb182 O184 2.343 . S
Tb182 O187 2.353 . S
Tb182 O190 2.427 . S
Tb182 O191 2.513 . S
Tb182 O192 2.453 . S
Tb182 O193 2.596 . S
Tb182 O194 2.374 . S
O183 Tb180 2.453 . S
O183 C199 1.245 . S
O184 Tb180 2.596 . S
O184 Tb182 2.343 . S
O184 C199 1.259 . S
O185 Tb180 2.374 . S
O185 C181 1.251 . S
C186 O190 1.275 . S
C186 O191 1.246 . S
O187 C181 1.263 . S
O187 Tb182 2.353 . S
C188 O192 1.245 . S
C188 O193 1.259 . S
C189 O194 1.250 . S
C189 O195 1.263 . S
O190 Tb182 2.427 . S
O190 C186 1.275 . S
O191 Tb182 2.513 . S
O191 C186 1.246 . S
O192 Tb182 2.453 . S
O192 C188 1.245 . S
O193 Tb180 2.343 . S
O193 Tb182 2.596 . S
O193 C188 1.259 . S
O194 Tb182 2.374 . S
O194 C189 1.250 . S
O195 Tb180 2.353 . S
O195 C189 1.263 . S
C196 O197 1.275 . S
C196 O198 1.246 . S
O197 Tb180 2.427 . S
O197 C196 1.275 . S
O198 Tb180 2.513 . S
O198 C196 1.246 . S
C199 O183 1.245 . S
C199 O184 1.259 . S
Tb200 O203 2.453 . S
Tb200 O204 2.596 . S
Tb200 O205 2.374 . S
Tb200 O213 2.343 . S
Tb200 O215 2.353 . S
Tb200 O217 2.427 . S
Tb200 O218 2.513 . S
C201 O205 1.251 . S
C201 O207 1.263 . S
Tb202 O204 2.333 1_556 S
Tb202 O207 2.344 1_556 S
Tb202 O210 2.423 1_556 S
Tb202 O211 2.514 . S
Tb202 O212 2.459 . S
Tb202 O213 2.593 1_556 S
Tb202 O214 2.377 . S
O203 Tb200 2.453 . S
O203 C219 1.245 . S
O204 Tb200 2.596 . S
O204 Tb202 2.333 1_554 S
O204 C219 1.259 . S
O205 Tb200 2.374 . S
O205 C201 1.251 . S
C206 O210 1.275 . S
C206 O211 1.246 1_554 S
O207 C201 1.263 . S
O207 Tb202 2.344 1_554 S
C208 O212 1.245 . S
C208 O213 1.259 1_556 S
C209 O214 1.250 . S
C209 O215 1.263 1_556 S
O210 Tb202 2.423 1_554 S
O210 C206 1.275 . S
O211 Tb202 2.514 . S
O211 C206 1.246 1_556 S
O212 Tb202 2.459 . S
O212 C208 1.245 . S
O213 Tb200 2.343 . S
O213 Tb202 2.593 1_554 S
O213 C208 1.259 1_554 S
O214 Tb202 2.377 . S
O214 C209 1.250 . S
O215 Tb200 2.353 . S
O215 C209 1.263 1_554 S
C216 O217 1.275 . S
C216 O218 1.246 . S
O217 Tb200 2.427 . S
O217 C216 1.275 . S
O218 Tb200 2.513 . S
O218 C216 1.246 . S
C219 O203 1.245 . S
C219 O204 1.259 . S
Tb220 O223 2.453 . S
Tb220 O224 2.596 . S
Tb220 O225 2.374 . S
Tb220 O233 2.343 . S
Tb220 O235 2.353 . S
Tb220 O237 2.427 . S
Tb220 O238 2.513 . S
C221 O225 1.251 . S
C221 O227 1.263 . S
Tb222 O224 2.343 . S
Tb222 O227 2.353 . S
Tb222 O230 2.427 . S
Tb222 O231 2.513 . S
Tb222 O232 2.453 . S
Tb222 O233 2.596 . S
Tb222 O234 2.374 . S
O223 Tb220 2.453 . S
O223 C239 1.245 . S
O224 Tb220 2.596 . S
O224 Tb222 2.343 . S
O224 C239 1.259 . S
O225 Tb220 2.374 . S
O225 C221 1.251 . S
C226 O230 1.275 . S
C226 O231 1.246 . S
O227 C221 1.263 . S
O227 Tb222 2.353 . S
C228 O232 1.245 . S
C228 O233 1.259 . S
C229 O234 1.250 . S
C229 O235 1.263 . S
O230 Tb222 2.427 . S
O230 C226 1.275 . S
O231 Tb222 2.513 . S
O231 C226 1.246 . S
O232 Tb222 2.453 . S
O232 C228 1.245 . S
O233 Tb220 2.343 . S
O233 Tb222 2.596 . S
O233 C228 1.259 . S
O234 Tb222 2.374 . S
O234 C229 1.250 . S
O235 Tb220 2.353 . S
O235 C229 1.263 . S
C236 O237 1.275 . S
C236 O238 1.246 . S
O237 Tb220 2.427 . S
O237 C236 1.275 . S
O238 Tb220 2.513 . S
O238 C236 1.246 . S
C239 O223 1.245 . S
C239 O224 1.259 . S
Tb240 O243 2.453 . S
Tb240 O244 2.596 . S
Tb240 O245 2.374 . S
Tb240 O253 2.343 . S
Tb240 O255 2.353 . S
Tb240 O257 2.427 . S
Tb240 O258 2.513 . S
C241 O245 1.251 . S
C241 O247 1.263 . S
Tb242 O244 2.343 . S
Tb242 O247 2.353 . S
Tb242 O250 2.427 . S
Tb242 O251 2.513 . S
Tb242 O252 2.453 . S
Tb242 O253 2.596 . S
Tb242 O254 2.374 . S
O243 Tb240 2.453 . S
O243 C259 1.245 . S
O244 Tb240 2.596 . S
O244 Tb242 2.343 . S
O244 C259 1.259 . S
O245 Tb240 2.374 . S
O245 C241 1.251 . S
C246 O250 1.275 . S
C246 O251 1.246 . S
O247 C241 1.263 . S
O247 Tb242 2.353 . S
C248 O252 1.245 . S
C248 O253 1.259 . S
C249 O254 1.250 . S
C249 O255 1.263 . S
O250 Tb242 2.427 . S
O250 C246 1.275 . S
O251 Tb242 2.513 . S
O251 C246 1.246 . S
O252 Tb242 2.453 . S
O252 C248 1.245 . S
O253 Tb240 2.343 . S
O253 Tb242 2.596 . S
O253 C248 1.259 . S
O254 Tb242 2.374 . S
O254 C249 1.250 . S
O255 Tb240 2.353 . S
O255 C249 1.263 . S
C256 O257 1.275 . S
C256 O258 1.246 . S
O257 Tb240 2.427 . S
O257 C256 1.275 . S
O258 Tb240 2.513 . S
O258 C256 1.246 . S
C259 O243 1.245 . S
C259 O244 1.259 . S
Tb260 O263 2.453 . S
Tb260 O264 2.596 . S
Tb260 O265 2.374 . S
Tb260 O273 2.343 . S
Tb260 O275 2.353 . S
Tb260 O277 2.427 . S
Tb260 O278 2.513 . S
C261 O265 1.251 . S
C261 O267 1.263 . S
Tb262 O264 2.343 . S
Tb262 O267 2.353 . S
Tb262 O270 2.427 . S
Tb262 O271 2.513 . S
Tb262 O272 2.453 . S
Tb262 O273 2.596 . S
Tb262 O274 2.374 . S
O263 Tb260 2.453 . S
O263 C279 1.245 . S
O264 Tb260 2.596 . S
O264 Tb262 2.343 . S
O264 C279 1.259 . S
O265 Tb260 2.374 . S
O265 C261 1.251 . S
C266 O270 1.275 . S
C266 O271 1.246 . S
O267 C261 1.263 . S
O267 Tb262 2.353 . S
C268 O272 1.245 . S
C268 O273 1.259 . S
C269 O274 1.250 . S
C269 O275 1.263 . S
O270 Tb262 2.427 . S
O270 C266 1.275 . S
O271 Tb262 2.513 . S
O271 C266 1.246 . S
O272 Tb262 2.453 . S
O272 C268 1.245 . S
O273 Tb260 2.343 . S
O273 Tb262 2.596 . S
O273 C268 1.259 . S
O274 Tb262 2.374 . S
O274 C269 1.250 . S
O275 Tb260 2.353 . S
O275 C269 1.263 . S
C276 O277 1.275 . S
C276 O278 1.246 . S
O277 Tb260 2.427 . S
O277 C276 1.275 . S
O278 Tb260 2.513 . S
O278 C276 1.246 . S
C279 O263 1.245 . S
C279 O264 1.259 . S
Tb280 O283 2.459 . S
Tb280 O284 2.593 1_554 S
Tb280 O285 2.377 . S
Tb280 O293 2.333 1_554 S
Tb280 O295 2.344 1_554 S
Tb280 O297 2.423 1_554 S
Tb280 O298 2.514 . S
C281 O285 1.251 . S
C281 O287 1.263 1_554 S
Tb282 O284 2.343 . S
Tb282 O287 2.353 . S
Tb282 O290 2.427 . S
Tb282 O291 2.513 . S
Tb282 O292 2.453 . S
Tb282 O293 2.596 . S
Tb282 O294 2.374 . S
O283 Tb280 2.459 . S
O283 C299 1.245 . S
O284 Tb280 2.593 1_556 S
O284 Tb282 2.343 . S
O284 C299 1.259 1_556 S
O285 Tb280 2.377 . S
O285 C281 1.251 . S
C286 O290 1.275 . S
C286 O291 1.246 . S
O287 C281 1.263 1_556 S
O287 Tb282 2.353 . S
C288 O292 1.245 . S
C288 O293 1.259 . S
C289 O294 1.250 . S
C289 O295 1.263 . S
O290 Tb282 2.427 . S
O290 C286 1.275 . S
O291 Tb282 2.513 . S
O291 C286 1.246 . S
O292 Tb282 2.453 . S
O292 C288 1.245 . S
O293 Tb280 2.333 1_556 S
O293 Tb282 2.596 . S
O293 C288 1.259 . S
O294 Tb282 2.374 . S
O294 C289 1.250 . S
O295 Tb280 2.344 1_556 S
O295 C289 1.263 . S
C296 O297 1.275 . S
C296 O298 1.246 1_556 S
O297 Tb280 2.423 1_556 S
O297 C296 1.275 . S
O298 Tb280 2.514 . S
O298 C296 1.246 1_554 S
C299 O283 1.245 . S
C299 O284 1.259 1_554 S
Tb300 O303 2.453 . S
Tb300 O304 2.596 . S
Tb300 O305 2.374 . S
Tb300 O313 2.343 . S
Tb300 O315 2.353 . S
Tb300 O317 2.427 . S
Tb300 O318 2.513 . S
C301 O305 1.251 . S
C301 O307 1.263 . S
Tb302 O304 2.343 . S
Tb302 O307 2.353 . S
Tb302 O310 2.427 . S
Tb302 O311 2.513 . S
Tb302 O312 2.453 . S
Tb302 O313 2.596 . S
Tb302 O314 2.374 . S
O303 Tb300 2.453 . S
O303 C319 1.245 . S
O304 Tb300 2.596 . S
O304 Tb302 2.343 . S
O304 C319 1.259 . S
O305 Tb300 2.374 . S
O305 C301 1.251 . S
C306 O310 1.275 . S
C306 O311 1.246 . S
O307 C301 1.263 . S
O307 Tb302 2.353 . S
C308 O312 1.245 . S
C308 O313 1.259 . S
C309 O314 1.250 . S
C309 O315 1.263 . S
O310 Tb302 2.427 . S
O310 C306 1.275 . S
O311 Tb302 2.513 . S
O311 C306 1.246 . S
O312 Tb302 2.453 . S
O312 C308 1.245 . S
O313 Tb300 2.343 . S
O313 Tb302 2.596 . S
O313 C308 1.259 . S
O314 Tb302 2.374 . S
O314 C309 1.250 . S
O315 Tb300 2.353 . S
O315 C309 1.263 . S
C316 O317 1.275 . S
C316 O318 1.246 . S
O317 Tb300 2.427 . S
O317 C316 1.275 . S
O318 Tb300 2.513 . S
O318 C316 1.246 . S
C319 O303 1.245 . S
C319 O304 1.259 . S
C320 C321 1.369 . S
C320 C322 1.419 . S
C320 H324 0.930 . S
C321 C320 1.369 . S
C321 C330 1.429 . S
C322 C320 1.419 . S
C322 C323 1.363 . S
C322 H325 0.929 . S
C323 C322 1.363 . S
C323 C329 1.428 . S
H324 C320 0.930 . S
H325 C322 0.929 . S
S326 N327 1.613 . S
S326 N328 1.610 . S
N327 S326 1.613 . S
N327 C330 1.350 . S
N328 S326 1.610 . S
N328 C329 1.351 . S
C329 C323 1.428 . S
C329 N328 1.351 . S
C329 C330 1.434 . S
C330 C321 1.429 . S
C330 N327 1.350 . S
C330 C329 1.434 . S
C331 C332 1.369 . S
C331 C333 1.419 . S
C331 H335 0.930 . S
C332 C331 1.369 . S
C332 C341 1.429 . S
C333 C331 1.419 . S
C333 C334 1.363 . S
C333 H336 0.929 . S
C334 C333 1.363 . S
C334 C340 1.428 . S
H335 C331 0.930 . S
H336 C333 0.929 . S
S337 N338 1.613 . S
S337 N339 1.610 . S
N338 S337 1.613 . S
N338 C341 1.350 . S
N339 S337 1.610 . S
N339 C340 1.351 . S
C340 C334 1.428 . S
C340 N339 1.351 . S
C340 C341 1.434 . S
C341 C332 1.429 . S
C341 N338 1.350 . S
C341 C340 1.434 . S
C342 C343 1.376 . S
C342 C344 1.412 1_455 S
C342 H346 0.930 1_455 S
C343 C342 1.376 . S
C343 C352 1.429 . S
C344 C342 1.412 1_655 S
C344 C345 1.363 . S
C344 H347 0.929 . S
C345 C344 1.363 . S
C345 C351 1.429 . S
H346 C342 0.930 1_655 S
H347 C344 0.929 . S
S348 N349 1.613 . S
S348 N350 1.610 . S
N349 S348 1.613 . S
N349 C352 1.350 . S
N350 S348 1.610 . S
N350 C351 1.351 1_455 S
C351 C345 1.429 . S
C351 N350 1.351 1_655 S
C351 C352 1.433 1_655 S
C352 C343 1.429 . S
C352 N349 1.350 . S
C352 C351 1.433 1_455 S
C353 C354 1.369 . S
C353 C355 1.419 1_655 S
C353 H357 0.930 . S
C354 C353 1.369 . S
C354 C363 1.429 . S
C355 C353 1.419 1_455 S
C355 C356 1.363 . S
C355 H358 0.929 . S
C356 C355 1.363 . S
C356 C362 1.428 . S
H357 C353 0.930 . S
H358 C355 0.929 . S
S359 N360 1.613 1_454 S
S359 N361 1.610 1_554 S
N360 S359 1.613 1_656 S
N360 C363 1.350 . S
N361 S359 1.610 1_556 S
N361 C362 1.351 . S
C362 C356 1.428 . S
C362 N361 1.351 . S
C362 C363 1.434 1_455 S
C363 C354 1.429 . S
C363 N360 1.350 . S
C363 C362 1.434 1_655 S
C364 C365 1.369 . S
C364 C366 1.419 . S
C364 H368 0.930 . S
C365 C364 1.369 . S
C365 C374 1.429 . S
C366 C364 1.419 . S
C366 C367 1.363 . S
C366 H369 0.929 . S
C367 C366 1.363 . S
C367 C373 1.428 . S
H368 C364 0.930 . S
H369 C366 0.929 . S
S370 N371 1.613 . S
S370 N372 1.610 . S
N371 S370 1.613 . S
N371 C374 1.350 . S
N372 S370 1.610 . S
N372 C373 1.351 . S
C373 C367 1.428 . S
C373 N372 1.351 . S
C373 C374 1.434 . S
C374 C365 1.429 . S
C374 N371 1.350 . S
C374 C373 1.434 . S
C375 C376 1.369 . S
C375 C377 1.419 . S
C375 H379 0.930 . S
C376 C375 1.369 . S
C376 C385 1.429 . S
C377 C375 1.419 . S
C377 C378 1.363 . S
C377 H380 0.929 . S
C378 C377 1.363 . S
C378 C384 1.428 . S
H379 C375 0.930 . S
H380 C377 0.929 . S
S381 N382 1.613 . S
S381 N383 1.610 . S
N382 S381 1.613 . S
N382 C385 1.350 . S
N383 S381 1.610 . S
N383 C384 1.351 . S
C384 C378 1.428 . S
C384 N383 1.351 . S
C384 C385 1.434 . S
C385 C376 1.429 . S
C385 N382 1.350 . S
C385 C384 1.434 . S
C386 C387 1.369 1_455 S
C386 C388 1.419 . S
C386 H390 0.930 . S
C387 C386 1.369 1_655 S
C387 C396 1.429 . S
C388 C386 1.419 . S
C388 C389 1.363 . S
C388 H391 0.929 . S
C389 C388 1.363 . S
C389 C395 1.428 1_455 S
H390 C386 0.930 . S
H391 C388 0.929 . S
S392 N393 1.613 . S
S392 N394 1.610 . S
N393 S392 1.613 . S
N393 C396 1.350 . S
N394 S392 1.610 . S
N394 C395 1.351 . S
C395 C389 1.428 1_655 S
C395 N394 1.351 . S
C395 C396 1.434 . S
C396 C387 1.429 . S
C396 N393 1.350 . S
C396 C395 1.434 . S
C397 C398 1.369 . S
C397 C399 1.419 1_455 S
C397 H401 0.930 . S
C398 C397 1.369 . S
C398 C407 1.429 . S
C399 C397 1.419 1_655 S
C399 C400 1.363 . S
C399 H402 0.929 . S
C400 C399 1.363 . S
C400 C406 1.428 . S
H401 C397 0.930 . S
H402 C399 0.929 . S
S403 N404 1.613 . S
S403 N405 1.596 1_455 S
N404 S403 1.613 . S
N404 C407 1.350 . S
N405 S403 1.596 1_655 S
N405 C406 1.352 . S
C406 C400 1.428 . S
C406 N405 1.352 . S
C406 C407 1.434 1_655 S
C407 C398 1.429 . S
C407 N404 1.350 . S
C407 C406 1.434 1_455 S
C408 C409 1.369 1_554 S
C408 C410 1.419 . S
C408 H412 0.930 . S
C409 C408 1.369 1_556 S
C409 C418 1.429 . S
C410 C408 1.419 . S
C410 C411 1.363 . S
C410 H413 0.929 . S
C411 C410 1.363 . S
C411 C417 1.428 1_554 S
H412 C408 0.930 . S
H413 C410 0.929 . S
S414 N415 1.613 . S
S414 N416 1.610 . S
N415 S414 1.613 . S
N415 C418 1.350 . S
N416 S414 1.610 . S
N416 C417 1.351 . S
C417 C411 1.428 1_556 S
C417 N416 1.351 . S
C417 C418 1.434 . S
C418 C409 1.429 . S
C418 N415 1.350 . S
C418 C417 1.434 . S
C419 C420 1.369 . S
C419 C421 1.419 . S
C419 H423 0.930 . S
C420 C419 1.369 . S
C420 C429 1.429 . S
C421 C419 1.419 . S
C421 C422 1.363 . S
C421 H424 0.929 . S
C422 C421 1.363 . S
C422 C428 1.428 . S
H423 C419 0.930 . S
H424 C421 0.929 . S
S425 N426 1.613 . S
S425 N427 1.610 . S
N426 S425 1.613 . S
N426 C429 1.350 . S
N427 S425 1.610 . S
N427 C428 1.351 . S
C428 C422 1.428 . S
C428 N427 1.351 . S
C428 C429 1.434 . S
C429 C420 1.429 . S
C429 N426 1.350 . S
C429 C428 1.434 . S
C430 C431 1.369 . S
C430 C432 1.419 . S
C430 H434 0.930 . S
C431 C430 1.369 . S
C431 C440 1.429 . S
C432 C430 1.419 . S
C432 C433 1.363 . S
C432 H435 0.929 . S
C433 C432 1.363 . S
C433 C439 1.428 . S
H434 C430 0.930 . S
H435 C432 0.929 . S
S436 N437 1.613 . S
S436 N438 1.610 . S
N437 S436 1.613 . S
N437 C440 1.350 . S
N438 S436 1.610 . S
N438 C439 1.351 . S
C439 C433 1.428 . S
C439 N438 1.351 . S
C439 C440 1.434 . S
C440 C431 1.429 . S
C440 N437 1.350 . S
C440 C439 1.434 . S
C441 C442 1.369 . S
C441 C443 1.419 . S
C441 H445 0.930 . S
C442 C441 1.369 . S
C442 C451 1.429 . S
C443 C441 1.419 . S
C443 C444 1.363 . S
C443 H446 0.929 . S
C444 C443 1.363 . S
C444 C450 1.428 . S
H445 C441 0.930 . S
H446 C443 0.929 . S
S447 N448 1.613 . S
S447 N449 1.610 . S
N448 S447 1.613 . S
N448 C451 1.350 . S
N449 S447 1.610 . S
N449 C450 1.351 . S
C450 C444 1.428 . S
C450 N449 1.351 . S
C450 C451 1.434 . S
C451 C442 1.429 . S
C451 N448 1.350 . S
C451 C450 1.434 . S
C452 C453 1.369 1_554 S
C452 C454 1.419 . S
C452 H456 0.930 . S
C453 C452 1.369 1_556 S
C453 C462 1.429 . S
C454 C452 1.419 . S
C454 C455 1.363 . S
C454 H457 0.929 . S
C455 C454 1.363 . S
C455 C461 1.428 1_554 S
H456 C452 0.930 . S
H457 C454 0.929 . S
S458 N459 1.613 . S
S458 N460 1.610 . S
N459 S458 1.613 . S
N459 C462 1.350 . S
N460 S458 1.610 . S
N460 C461 1.351 . S
C461 C455 1.428 1_556 S
C461 N460 1.351 . S
C461 C462 1.434 . S
C462 C453 1.429 . S
C462 N459 1.350 . S
C462 C461 1.434 . S
C463 C464 1.369 . S
C463 C465 1.419 . S
C463 H467 0.930 . S
C464 C463 1.369 . S
C464 C473 1.429 . S
C465 C463 1.419 . S
C465 C466 1.363 . S
C465 H468 0.929 . S
C466 C465 1.363 . S
C466 C472 1.428 . S
H467 C463 0.930 . S
H468 C465 0.929 . S
S469 N470 1.613 . S
S469 N471 1.610 . S
N470 S469 1.613 . S
N470 C473 1.350 . S
N471 S469 1.610 . S
N471 C472 1.351 . S
C472 C466 1.428 . S
C472 N471 1.351 . S
C472 C473 1.434 . S
C473 C464 1.429 . S
C473 N470 1.350 . S
C473 C472 1.434 . S
C474 C475 1.369 . S
C474 C476 1.419 . S
C474 H478 0.930 . S
C475 C474 1.369 . S
C475 C484 1.429 . S
C476 C474 1.419 . S
C476 C477 1.363 . S
C476 H479 0.929 . S
C477 C476 1.363 . S
C477 C483 1.428 . S
H478 C474 0.930 . S
H479 C476 0.929 . S
S480 N481 1.613 . S
S480 N482 1.610 . S
N481 S480 1.613 . S
N481 C484 1.350 . S
N482 S480 1.610 . S
N482 C483 1.351 . S
C483 C477 1.428 . S
C483 N482 1.351 . S
C483 C484 1.434 . S
C484 C475 1.429 . S
C484 N481 1.350 . S
C484 C483 1.434 . S
C485 C486 1.369 . S
C485 C487 1.419 . S
C485 H489 0.930 . S
C486 C485 1.369 . S
C486 C495 1.429 . S
C487 C485 1.419 . S
C487 C488 1.363 . S
C487 H490 0.929 . S
C488 C487 1.363 . S
C488 C494 1.428 . S
H489 C485 0.930 . S
H490 C487 0.929 . S
S491 N492 1.613 . S
S491 N493 1.610 . S
N492 S491 1.613 . S
N492 C495 1.350 . S
N493 S491 1.610 . S
N493 C494 1.351 . S
C494 C488 1.428 . S
C494 N493 1.351 . S
C494 C495 1.434 . S
C495 C486 1.429 . S
C495 N492 1.350 . S
C495 C494 1.434 . S
C496 C497 1.369 . S
C496 C498 1.419 . S
C496 H500 0.930 . S
C497 C496 1.369 . S
C497 C506 1.429 . S
C498 C496 1.419 . S
C498 C499 1.363 . S
C498 H501 0.929 . S
C499 C498 1.363 . S
C499 C505 1.428 . S
H500 C496 0.930 . S
H501 C498 0.929 . S
S502 N503 1.613 . S
S502 N504 1.610 . S
N503 S502 1.613 . S
N503 C506 1.350 . S
N504 S502 1.610 . S
N504 C505 1.351 . S
C505 C499 1.428 . S
C505 N504 1.351 . S
C505 C506 1.434 . S
C506 C497 1.429 . S
C506 N503 1.350 . S
C506 C505 1.434 . S
C507 C508 1.369 . S
C507 C509 1.419 . S
C507 H511 0.930 . S
C508 C507 1.369 . S
C508 C517 1.429 . S
C509 C507 1.419 . S
C509 C510 1.363 . S
C509 H512 0.929 . S
C510 C509 1.363 . S
C510 C516 1.428 . S
H511 C507 0.930 . S
H512 C509 0.929 . S
S513 N514 1.613 . S
S513 N515 1.610 . S
N514 S513 1.613 . S
N514 C517 1.350 . S
N515 S513 1.610 . S
N515 C516 1.351 . S
C516 C510 1.428 . S
C516 N515 1.351 . S
C516 C517 1.434 . S
C517 C508 1.429 . S
C517 N514 1.350 . S
C517 C516 1.434 . S
C518 C519 1.369 1_556 S
C518 C520 1.419 . S
C518 H522 0.930 . S
C519 C518 1.369 1_554 S
C519 C528 1.429 . S
C520 C518 1.419 . S
C520 C521 1.363 . S
C520 H523 0.929 . S
C521 C520 1.363 . S
C521 C527 1.428 1_556 S
H522 C518 0.930 . S
H523 C520 0.929 . S
S524 N525 1.613 . S
S524 N526 1.610 . S
N525 S524 1.613 . S
N525 C528 1.350 . S
N526 S524 1.610 . S
N526 C527 1.351 . S
C527 C521 1.428 1_554 S
C527 N526 1.351 . S
C527 C528 1.434 . S
C528 C519 1.429 . S
C528 N525 1.350 . S
C528 C527 1.434 . S
C529 C530 1.369 . S
C529 C531 1.419 . S
C529 H533 0.930 . S
C530 C529 1.369 . S
C530 C539 1.429 . S
C531 C529 1.419 . S
C531 C532 1.363 . S
C531 H534 0.929 . S
C532 C531 1.363 . S
C532 C538 1.428 . S
H533 C529 0.930 . S
H534 C531 0.929 . S
S535 N536 1.613 . S
S535 N537 1.610 . S
N536 S535 1.613 . S
N536 C539 1.350 . S
N537 S535 1.610 . S
N537 C538 1.351 . S
C538 C532 1.428 . S
C538 N537 1.351 . S
C538 C539 1.434 . S
C539 C530 1.429 . S
C539 N536 1.350 . S
C539 C538 1.434 . S
C540 C541 1.369 . S
C540 C542 1.419 . S
C540 H544 0.930 . S
C541 C540 1.369 . S
C541 C550 1.429 . S
C542 C540 1.419 . S
C542 C543 1.363 . S
C542 H545 0.929 . S
C543 C542 1.363 . S
C543 C549 1.428 . S
H544 C540 0.930 . S
H545 C542 0.929 . S
S546 N547 1.613 . S
S546 N548 1.610 . S
N547 S546 1.613 . S
N547 C550 1.350 . S
N548 S546 1.610 . S
N548 C549 1.351 . S
C549 C543 1.428 . S
C549 N548 1.351 . S
C549 C550 1.434 . S
C550 C541 1.429 . S
C550 N547 1.350 . S
C550 C549 1.434 . S
C551 C552 1.369 . S
C551 C553 1.419 . S
C551 H555 0.930 . S
C552 C551 1.369 . S
C552 C561 1.429 . S
C553 C551 1.419 . S
C553 C554 1.363 . S
C553 H556 0.929 . S
C554 C553 1.363 . S
C554 C560 1.428 . S
H555 C551 0.930 . S
H556 C553 0.929 . S
S557 N558 1.613 . S
S557 N559 1.610 . S
N558 S557 1.613 . S
N558 C561 1.350 . S
N559 S557 1.610 . S
N559 C560 1.351 . S
C560 C554 1.428 . S
C560 N559 1.351 . S
C560 C561 1.434 . S
C561 C552 1.429 . S
C561 N558 1.350 . S
C561 C560 1.434 . S
C562 C563 1.369 . S
C562 C564 1.419 1_554 S
C562 H566 0.930 1_554 S
C563 C562 1.369 . S
C563 C572 1.429 . S
C564 C562 1.419 1_556 S
C564 C565 1.363 . S
C564 H567 0.929 . S
C565 C564 1.363 . S
C565 C571 1.428 1_556 S
H566 C562 0.930 1_556 S
H567 C564 0.929 . S
S568 N569 1.613 . S
S568 N570 1.610 . S
N569 S568 1.613 . S
N569 C572 1.350 . S
N570 S568 1.610 . S
N570 C571 1.351 . S
C571 C565 1.428 1_554 S
C571 N570 1.351 . S
C571 C572 1.434 . S
C572 C563 1.429 . S
C572 N569 1.350 . S
C572 C571 1.434 . S
C573 C574 1.369 . S
C573 C575 1.419 . S
C573 H577 0.930 . S
C574 C573 1.369 . S
C574 C583 1.429 . S
C575 C573 1.419 . S
C575 C576 1.363 . S
C575 H578 0.929 . S
C576 C575 1.363 . S
C576 C582 1.428 . S
H577 C573 0.930 . S
H578 C575 0.929 . S
S579 N580 1.613 . S
S579 N581 1.610 . S
N580 S579 1.613 . S
N580 C583 1.350 . S
N581 S579 1.610 . S
N581 C582 1.351 . S
C582 C576 1.428 . S
C582 N581 1.351 . S
C582 C583 1.434 . S
C583 C574 1.429 . S
C583 N580 1.350 . S
C583 C582 1.434 . S
C584 C585 1.369 . S
C584 C586 1.419 . S
C584 H588 0.930 . S
C585 C584 1.369 . S
C585 C594 1.429 . S
C586 C584 1.419 . S
C586 C587 1.363 . S
C586 H589 0.929 . S
C587 C586 1.363 . S
C587 C593 1.428 . S
H588 C584 0.930 . S
H589 C586 0.929 . S
S590 N591 1.613 . S
S590 N592 1.610 . S
N591 S590 1.613 . S
N591 C594 1.350 . S
N592 S590 1.610 . S
N592 C593 1.351 . S
C593 C587 1.428 . S
C593 N592 1.351 . S
C593 C594 1.434 . S
C594 C585 1.429 . S
C594 N591 1.350 . S
C594 C593 1.434 . S
C595 C596 1.369 . S
C595 C597 1.419 . S
C595 H599 0.930 . S
C596 C595 1.369 . S
C596 C605 1.429 . S
C597 C595 1.419 . S
C597 C598 1.363 . S
C597 H600 0.929 . S
C598 C597 1.363 . S
C598 C604 1.428 . S
H599 C595 0.930 . S
H600 C597 0.929 . S
S601 N602 1.613 . S
S601 N603 1.610 . S
N602 S601 1.613 . S
N602 C605 1.350 . S
N603 S601 1.610 . S
N603 C604 1.351 . S
C604 C598 1.428 . S
C604 N603 1.351 . S
C604 C605 1.434 . S
C605 C596 1.429 . S
C605 N602 1.350 . S
C605 C604 1.434 . S
C606 C607 1.369 . S
C606 C608 1.419 . S
C606 H610 0.930 1_455 S
C607 C606 1.369 . S
C607 C616 1.429 . S
C608 C606 1.419 . S
C608 C609 1.363 . S
C608 H611 0.929 . S
C609 C608 1.363 . S
C609 C615 1.428 . S
H610 C606 0.930 1_655 S
H611 C608 0.929 . S
S612 N613 1.613 . S
S612 N614 1.610 . S
N613 S612 1.613 . S
N613 C616 1.350 . S
N614 S612 1.610 . S
N614 C615 1.351 . S
C615 C609 1.428 . S
C615 N614 1.351 . S
C615 C616 1.434 . S
C616 C607 1.429 . S
C616 N613 1.350 . S
C616 C615 1.434 . S
C617 C618 1.369 . S
C617 C619 1.419 . S
C617 H621 0.930 . S
C618 C617 1.369 . S
C618 C627 1.429 . S
C619 C617 1.419 . S
C619 C620 1.363 . S
C619 H622 0.929 . S
C620 C619 1.363 . S
C620 C626 1.428 . S
H621 C617 0.930 . S
H622 C619 0.929 . S
S623 N624 1.613 . S
S623 N625 1.610 . S
N624 S623 1.613 . S
N624 C627 1.350 . S
N625 S623 1.610 . S
N625 C626 1.351 . S
C626 C620 1.428 . S
C626 N625 1.351 . S
C626 C627 1.434 . S
C627 C618 1.429 . S
C627 N624 1.350 . S
C627 C626 1.434 . S
C628 C629 1.369 . S
C628 C630 1.419 . S
C628 H632 0.930 . S
C629 C628 1.369 . S
C629 C638 1.429 . S
C630 C628 1.419 . S
C630 C631 1.363 . S
C630 H633 0.929 . S
C631 C630 1.363 . S
C631 C637 1.428 . S
H632 C628 0.930 . S
H633 C630 0.929 . S
S634 N635 1.613 . S
S634 N636 1.610 . S
N635 S634 1.613 . S
N635 C638 1.350 . S
N636 S634 1.610 . S
N636 C637 1.351 . S
C637 C631 1.428 . S
C637 N636 1.351 . S
C637 C638 1.434 . S
C638 C629 1.429 . S
C638 N635 1.350 . S
C638 C637 1.434 . S
C639 C640 1.369 . S
C639 C641 1.419 . S
C639 H643 0.930 . S
C640 C639 1.369 . S
C640 C649 1.429 . S
C641 C639 1.419 . S
C641 C642 1.363 . S
C641 H644 0.929 . S
C642 C641 1.363 . S
C642 C648 1.428 . S
H643 C639 0.930 . S
H644 C641 0.929 . S
S645 N646 1.613 . S
S645 N647 1.610 . S
N646 S645 1.613 . S
N646 C649 1.350 . S
N647 S645 1.610 . S
N647 C648 1.351 . S
C648 C642 1.428 . S
C648 N647 1.351 . S
C648 C649 1.434 . S
C649 C640 1.429 . S
C649 N646 1.350 . S
C649 C648 1.434 . S
C650 C651 1.369 . S
C650 C652 1.419 . S
C650 H654 0.930 . S
C651 C650 1.369 . S
C651 C660 1.429 . S
C652 C650 1.419 . S
C652 C653 1.363 . S
C652 H655 0.929 . S
C653 C652 1.363 . S
C653 C659 1.428 . S
H654 C650 0.930 . S
H655 C652 0.929 . S
S656 N657 1.613 . S
S656 N658 1.610 . S
N657 S656 1.613 . S
N657 C660 1.350 . S
N658 S656 1.610 . S
N658 C659 1.351 . S
C659 C653 1.428 . S
C659 N658 1.351 . S
C659 C660 1.434 . S
C660 C651 1.429 . S
C660 N657 1.350 . S
C660 C659 1.434 . S
C661 C662 1.369 . S
C661 C663 1.419 . S
C661 H665 0.930 . S
C662 C661 1.369 . S
C662 C671 1.429 . S
C663 C661 1.419 . S
C663 C664 1.363 . S
C663 H666 0.929 . S
C664 C663 1.363 . S
C664 C670 1.428 . S
H665 C661 0.930 . S
H666 C663 0.929 . S
S667 N668 1.613 . S
S667 N669 1.610 . S
N668 S667 1.613 . S
N668 C671 1.350 . S
N669 S667 1.610 . S
N669 C670 1.351 . S
C670 C664 1.428 . S
C670 N669 1.351 . S
C670 C671 1.434 . S
C671 C662 1.429 . S
C671 N668 1.350 . S
C671 C670 1.434 . S
C672 C673 1.369 . S
C672 C674 1.419 . S
C672 H676 0.930 . S
C673 C672 1.369 . S
C673 C682 1.429 . S
C674 C672 1.419 . S
C674 C675 1.363 . S
C674 H677 0.929 1_655 S
C675 C674 1.363 . S
C675 C681 1.428 . S
H676 C672 0.930 . S
H677 C674 0.929 1_455 S
S678 N679 1.613 . S
S678 N680 1.610 . S
N679 S678 1.613 . S
N679 C682 1.350 . S
N680 S678 1.610 . S
N680 C681 1.351 . S
C681 C675 1.428 . S
C681 N680 1.351 . S
C681 C682 1.434 . S
C682 C673 1.429 . S
C682 N679 1.350 . S
C682 C681 1.434 . S
C683 C684 1.369 . S
C683 C685 1.419 . S
C683 H687 0.930 . S
C684 C683 1.369 . S
C684 C693 1.429 . S
C685 C683 1.419 . S
C685 C686 1.363 . S
C685 H688 0.929 . S
C686 C685 1.363 . S
C686 C692 1.428 . S
H687 C683 0.930 . S
H688 C685 0.929 . S
S689 N690 1.613 . S
S689 N691 1.610 . S
N690 S689 1.613 . S
N690 C693 1.350 . S
N691 S689 1.610 . S
N691 C692 1.351 . S
C692 C686 1.428 . S
C692 N691 1.351 . S
C692 C693 1.434 . S
C693 C684 1.429 . S
C693 N690 1.350 . S
C693 C692 1.434 . S
C694 C695 1.369 . S
C694 C696 1.419 . S
C694 H698 0.930 . S
C695 C694 1.369 . S
C695 C704 1.429 . S
C696 C694 1.419 . S
C696 C697 1.363 . S
C696 H699 0.929 . S
C697 C696 1.363 . S
C697 C703 1.428 . S
H698 C694 0.930 . S
H699 C696 0.929 . S
S700 N701 1.613 . S
S700 N702 1.610 . S
N701 S700 1.613 . S
N701 C704 1.350 . S
N702 S700 1.610 . S
N702 C703 1.351 . S
C703 C697 1.428 . S
C703 N702 1.351 . S
C703 C704 1.434 . S
C704 C695 1.429 . S
C704 N701 1.350 . S
C704 C703 1.434 . S
C705 C706 1.369 . S
C705 C707 1.419 . S
C705 H709 0.930 . S
C706 C705 1.369 . S
C706 C715 1.429 . S
C707 C705 1.419 . S
C707 C708 1.363 . S
C707 H710 0.929 . S
C708 C707 1.363 . S
C708 C714 1.428 . S
H709 C705 0.930 . S
H710 C707 0.929 . S
S711 N712 1.613 . S
S711 N713 1.610 . S
N712 S711 1.613 . S
N712 C715 1.350 . S
N713 S711 1.610 . S
N713 C714 1.351 . S
C714 C708 1.428 . S
C714 N713 1.351 . S
C714 C715 1.434 . S
C715 C706 1.429 . S
C715 N712 1.350 . S
C715 C714 1.434 . S
C716 C717 1.369 . S
C716 C718 1.419 . S
C716 H720 0.930 . S
C717 C716 1.369 . S
C717 C726 1.429 . S
C718 C716 1.419 . S
C718 C719 1.363 . S
C718 H721 0.929 . S
C719 C718 1.363 . S
C719 C725 1.428 . S
H720 C716 0.930 . S
H721 C718 0.929 . S
S722 N723 1.613 . S
S722 N724 1.610 . S
N723 S722 1.613 . S
N723 C726 1.350 . S
N724 S722 1.610 . S
N724 C725 1.351 . S
C725 C719 1.428 . S
C725 N724 1.351 . S
C725 C726 1.434 . S
C726 C717 1.429 . S
C726 N723 1.350 . S
C726 C725 1.434 . S
C727 C728 1.369 . S
C727 C729 1.419 . S
C727 H731 0.930 . S
C728 C727 1.369 . S
C728 C737 1.429 . S
C729 C727 1.419 . S
C729 C730 1.363 . S
C729 H732 0.929 . S
C730 C729 1.363 . S
C730 C736 1.428 . S
H731 C727 0.930 . S
H732 C729 0.929 . S
S733 N734 1.613 . S
S733 N735 1.610 . S
N734 S733 1.613 . S
N734 C737 1.350 . S
N735 S733 1.610 . S
N735 C736 1.351 . S
C736 C730 1.428 . S
C736 N735 1.351 . S
C736 C737 1.434 . S
C737 C728 1.429 . S
C737 N734 1.350 . S
C737 C736 1.434 . S
C738 C739 1.369 . S
C738 C740 1.419 . S
C738 H742 0.930 . S
C739 C738 1.369 . S
C739 C748 1.429 . S
C740 C738 1.419 . S
C740 C741 1.363 . S
C740 H743 0.929 . S
C741 C740 1.363 . S
C741 C747 1.428 . S
H742 C738 0.930 . S
H743 C740 0.929 . S
S744 N745 1.613 . S
S744 N746 1.610 1_556 S
N745 S744 1.613 . S
N745 C748 1.350 1_556 S
N746 S744 1.610 1_554 S
N746 C747 1.351 . S
C747 C741 1.428 . S
C747 N746 1.351 . S
C747 C748 1.434 . S
C748 C739 1.429 . S
C748 N745 1.350 1_554 S
C748 C747 1.434 . S
C749 C750 1.369 . S
C749 C751 1.419 . S
C749 H753 0.930 . S
C750 C749 1.369 . S
C750 C759 1.429 . S
C751 C749 1.419 . S
C751 C752 1.363 . S
C751 H754 0.929 . S
C752 C751 1.363 . S
C752 C758 1.428 . S
H753 C749 0.930 . S
H754 C751 0.929 . S
S755 N756 1.613 . S
S755 N757 1.610 . S
N756 S755 1.613 . S
N756 C759 1.350 . S
N757 S755 1.610 . S
N757 C758 1.351 . S
C758 C752 1.428 . S
C758 N757 1.351 . S
C758 C759 1.434 . S
C759 C750 1.429 . S
C759 N756 1.350 . S
C759 C758 1.434 . S
C760 C761 1.369 . S
C760 C762 1.419 . S
C760 H764 0.930 . S
C761 C760 1.369 . S
C761 C770 1.429 . S
C762 C760 1.419 . S
C762 C763 1.363 . S
C762 H765 0.929 . S
C763 C762 1.363 . S
C763 C769 1.428 . S
H764 C760 0.930 . S
H765 C762 0.929 . S
S766 N767 1.613 . S
S766 N768 1.610 . S
N767 S766 1.613 . S
N767 C770 1.350 . S
N768 S766 1.610 . S
N768 C769 1.351 . S
C769 C763 1.428 . S
C769 N768 1.351 . S
C769 C770 1.434 . S
C770 C761 1.429 . S
C770 N767 1.350 . S
C770 C769 1.434 . S
C771 C772 1.369 . S
C771 C773 1.419 . S
C771 H775 0.930 . S
C772 C771 1.369 . S
C772 C781 1.429 . S
C773 C771 1.419 . S
C773 C774 1.363 . S
C773 H776 0.929 . S
C774 C773 1.363 . S
C774 C780 1.428 . S
H775 C771 0.930 . S
H776 C773 0.929 . S
S777 N778 1.613 . S
S777 N779 1.610 . S
N778 S777 1.613 . S
N778 C781 1.350 . S
N779 S777 1.610 . S
N779 C780 1.351 . S
C780 C774 1.428 . S
C780 N779 1.351 . S
C780 C781 1.434 . S
C781 C772 1.429 . S
C781 N778 1.350 . S
C781 C780 1.434 . S
C782 C783 1.369 . S
C782 C784 1.419 . S
C782 H786 0.930 . S
C783 C782 1.369 . S
C783 C792 1.429 . S
C784 C782 1.419 . S
C784 C785 1.363 . S
C784 H787 0.929 . S
C785 C784 1.363 . S
C785 C791 1.428 . S
H786 C782 0.930 . S
H787 C784 0.929 . S
S788 N789 1.613 . S
S788 N790 1.610 . S
N789 S788 1.613 . S
N789 C792 1.350 . S
N790 S788 1.610 . S
N790 C791 1.351 . S
C791 C785 1.428 . S
C791 N790 1.351 . S
C791 C792 1.434 . S
C792 C783 1.429 . S
C792 N789 1.350 . S
C792 C791 1.434 . S
C793 C794 1.369 . S
C793 C795 1.419 1_554 S
C793 H797 0.930 . S
C794 C793 1.369 . S
C794 C803 1.429 1_455 S
C795 C793 1.419 1_556 S
C795 C796 1.363 1_455 S
C795 H798 0.929 . S
C796 C795 1.363 1_655 S
C796 C802 1.428 . S
H797 C793 0.930 . S
H798 C795 0.929 . S
S799 N800 1.613 . S
S799 N801 1.610 1_554 S
N800 S799 1.613 . S
N800 C803 1.350 . S
N801 S799 1.610 1_556 S
N801 C802 1.351 . S
C802 C796 1.428 . S
C802 N801 1.351 . S
C802 C803 1.434 1_556 S
C803 C794 1.429 1_655 S
C803 N800 1.350 . S
C803 C802 1.434 1_554 S
C804 C805 1.369 . S
C804 C806 1.419 . S
C804 H808 0.930 . S
C805 C804 1.369 . S
C805 C814 1.429 . S
C806 C804 1.419 . S
C806 C807 1.363 . S
C806 H809 0.929 . S
C807 C806 1.363 . S
C807 C813 1.428 . S
H808 C804 0.930 . S
H809 C806 0.929 . S
S810 N811 1.613 . S
S810 N812 1.610 . S
N811 S810 1.613 . S
N811 C814 1.350 . S
N812 S810 1.610 . S
N812 C813 1.351 . S
C813 C807 1.428 . S
C813 N812 1.351 . S
C813 C814 1.434 . S
C814 C805 1.429 . S
C814 N811 1.350 . S
C814 C813 1.434 . S
C815 C816 1.369 . S
C815 C817 1.419 . S
C815 H819 0.930 . S
C816 C815 1.369 . S
C816 C825 1.429 . S
C817 C815 1.419 . S
C817 C818 1.363 . S
C817 H820 0.929 . S
C818 C817 1.363 . S
C818 C824 1.428 . S
H819 C815 0.930 . S
H820 C817 0.929 . S
S821 N822 1.613 . S
S821 N823 1.610 . S
N822 S821 1.613 . S
N822 C825 1.350 . S
N823 S821 1.610 . S
N823 C824 1.351 . S
C824 C818 1.428 . S
C824 N823 1.351 . S
C824 C825 1.434 . S
C825 C816 1.429 . S
C825 N822 1.350 . S
C825 C824 1.434 . S
C826 C827 1.369 1_655 S
C826 C828 1.419 1_556 S
C826 H830 0.930 . S
C827 C826 1.369 1_455 S
C827 C836 1.429 1_545 S
C828 C826 1.419 1_554 S
C828 C829 1.363 1_545 S
C828 H831 0.929 . S
C829 C828 1.363 1_565 S
C829 C835 1.428 1_655 S
H830 C826 0.930 . S
H831 C828 0.929 . S
S832 N833 1.613 1_554 S
S832 N834 1.610 . S
N833 S832 1.613 1_556 S
N833 C836 1.350 . S
N834 S832 1.610 . S
N834 C835 1.351 . S
C835 C829 1.428 1_455 S
C835 N834 1.351 . S
C835 C836 1.434 1_554 S
C836 C827 1.429 1_565 S
C836 N833 1.350 . S
C836 C835 1.434 1_556 S
C837 C838 1.369 1_565 S
C837 C839 1.419 . S
C837 H841 0.930 . S
C838 C837 1.369 1_545 S
C838 C847 1.429 . S
C839 C837 1.419 . S
C839 C840 1.363 . S
C839 H842 0.929 . S
C840 C839 1.363 . S
C840 C846 1.428 1_565 S
H841 C837 0.930 . S
H842 C839 0.929 . S
S843 N844 1.613 . S
S843 N845 1.610 . S
N844 S843 1.613 . S
N844 C847 1.350 . S
N845 S843 1.610 . S
N845 C846 1.351 . S
C846 C840 1.428 1_545 S
C846 N845 1.351 . S
C846 C847 1.434 . S
C847 C838 1.429 . S
C847 N844 1.350 . S
C847 C846 1.434 . S
C321 C16 0.910 . S
C323 C216 0.930 . S
C332 C36 0.932 . S
C334 C236 0.915 . S
C343 C56 0.923 . S
C345 C176 0.923 . S
C354 C76 0.912 . S
C356 C196 0.926 . S
C365 C86 0.912 . S
C367 C286 0.927 . S
C376 C106 0.922 . S
C378 C306 0.923 . S
C387 C126 0.911 . S
C389 C246 0.930 . S
C398 C146 0.931 . S
C400 C266 0.913 . S
C409 C181 1.626 . S
C411 C6 1.684 . S
C420 C201 1.622 . S
C422 C26 1.690 . S
C431 C221 1.620 . S
C433 C46 1.688 . S
C442 C161 1.627 . S
C444 C66 1.691 . S
C453 C96 1.692 . S
C455 C269 1.627 . S
C464 C289 1.622 . S
C466 C116 1.685 . S
C475 C309 1.623 . S
C477 C136 1.685 . S
C486 C249 1.621 . S
C488 C156 1.689 . S
C497 C21 1.632 . S
C499 C166 1.687 . S
C508 C186 1.688 1_565 S
C510 C41 1.622 . S
C519 C206 1.689 . S
C521 C61 1.630 . S
C530 C226 1.684 1_545 S
C532 C1 1.628 . S
C541 C256 1.687 . S
C543 C109 1.631 . S
C552 C129 1.622 . S
C554 C276 1.690 1_545 S
C563 C149 1.621 . S
C565 C296 1.689 . S
C574 C316 1.683 1_565 S
C576 C89 1.626 . S
C585 C8 1.587 . S
C587 C301 1.730 . S
C596 C28 1.593 . S
C598 C81 1.727 . S
C607 C261 1.729 1_455 S
C609 C48 1.585 . S
C618 C121 1.730 . S
C620 C68 1.585 . S
C629 C99 1.595 . S
C631 C229 1.728 . S
C640 C119 1.584 . S
C642 C9 1.729 . S
C651 C189 1.727 1_655 S
C653 C139 1.589 . S
C662 C49 1.727 . S
C664 C159 1.589 . S
C673 C168 1.583 . S
C675 C141 1.729 1_655 S
C684 C188 1.589 . S
C686 C241 1.729 . S
C695 C101 1.727 . S
C697 C208 1.593 . S
C706 C281 1.730 . S
C708 C228 1.585 . S
C717 C259 1.594 . S
C719 C69 1.727 1_455 S
C728 C279 1.584 . S
C730 C169 1.729 . S
C739 C299 1.588 . S
C741 C29 1.729 . S
C750 C209 1.730 . S
C752 C319 1.586 . S
C761 C19 2.027 . S
C763 C248 2.034 . S
C772 C39 2.030 . S
C774 C108 2.032 . S
C783 C59 2.036 . S
C785 C288 2.027 . S
C794 C148 2.026 . S
C796 C79 2.035 . S
C805 C88 2.035 . S
C807 C179 2.028 . S
C816 C219 2.026 . S
C818 C128 2.035 . S
C827 C199 2.036 . S
C829 C268 2.027 . S
C838 C308 2.026 . S
C840 C239 2.035 . S
