# Generated by pormake.
# Topology fnc, (5)-cn, num edge types: 1
# Building blocks:
#     Node 0, Type 0, BuildingBlock: BEQFEK_clean_sbu_0, # of connection points: 5
#     Node 1, Type 0, BuildingBlock: BEQFEK_clean_sbu_0, # of connection points: 5
#     Node 2, Type 0, BuildingBlock: BEQFEK_clean_sbu_0, # of connection points: 5
#     Node 3, Type 0, BuildingBlock: BEQFEK_clean_sbu_0, # of connection points: 5
#     Node 4, Type 0, BuildingBlock: BEQFEK_clean_sbu_0, # of connection points: 5
#     Node 5, Type 0, BuildingBlock: BEQFEK_clean_sbu_0, # of connection points: 5
#     Node 6, Type 0, BuildingBlock: BEQFEK_clean_sbu_0, # of connection points: 5
#     Node 7, Type 0, BuildingBlock: BEQFEK_clean_sbu_0, # of connection points: 5
#     Node 8, Type 0, BuildingBlock: BEQFEK_clean_sbu_0, # of connection points: 5
#     Node 9, Type 0, BuildingBlock: BEQFEK_clean_sbu_0, # of connection points: 5
#     Node 10, Type 0, BuildingBlock: BEQFEK_clean_sbu_0, # of connection points: 5
#     Node 11, Type 0, BuildingBlock: BEQFEK_clean_sbu_0, # of connection points: 5
#     Node 12, Type 0, BuildingBlock: BEQFEK_clean_sbu_0, # of connection points: 5
#     Node 13, Type 0, BuildingBlock: BEQFEK_clean_sbu_0, # of connection points: 5
#     Node 14, Type 0, BuildingBlock: BEQFEK_clean_sbu_0, # of connection points: 5
#     Node 15, Type 0, BuildingBlock: BEQFEK_clean_sbu_0, # of connection points: 5
#     Node 16, Type 0, BuildingBlock: BEQFEK_clean_sbu_0, # of connection points: 5
#     Node 17, Type 0, BuildingBlock: BEQFEK_clean_sbu_0, # of connection points: 5
#     Edge 18, Type (0, 0), BuildingBlock: EZIPEK_clean_linker_0, # of connection points: 2
#     Edge 19, Type (0, 0), BuildingBlock: EZIPEK_clean_linker_0, # of connection points: 2
#     Edge 20, Type (0, 0), BuildingBlock: EZIPEK_clean_linker_0, # of connection points: 2
#     Edge 21, Type (0, 0), BuildingBlock: EZIPEK_clean_linker_0, # of connection points: 2
#     Edge 22, Type (0, 0), BuildingBlock: EZIPEK_clean_linker_0, # of connection points: 2
#     Edge 23, Type (0, 0), BuildingBlock: EZIPEK_clean_linker_0, # of connection points: 2
#     Edge 24, Type (0, 0), BuildingBlock: EZIPEK_clean_linker_0, # of connection points: 2
#     Edge 25, Type (0, 0), BuildingBlock: EZIPEK_clean_linker_0, # of connection points: 2
#     Edge 26, Type (0, 0), BuildingBlock: EZIPEK_clean_linker_0, # of connection points: 2
#     Edge 27, Type (0, 0), BuildingBlock: EZIPEK_clean_linker_0, # of connection points: 2
#     Edge 28, Type (0, 0), BuildingBlock: EZIPEK_clean_linker_0, # of connection points: 2
#     Edge 29, Type (0, 0), BuildingBlock: EZIPEK_clean_linker_0, # of connection points: 2
#     Edge 30, Type (0, 0), BuildingBlock: EZIPEK_clean_linker_0, # of connection points: 2
#     Edge 31, Type (0, 0), BuildingBlock: EZIPEK_clean_linker_0, # of connection points: 2
#     Edge 32, Type (0, 0), BuildingBlock: EZIPEK_clean_linker_0, # of connection points: 2
#     Edge 33, Type (0, 0), BuildingBlock: EZIPEK_clean_linker_0, # of connection points: 2
#     Edge 34, Type (0, 0), BuildingBlock: EZIPEK_clean_linker_0, # of connection points: 2
#     Edge 35, Type (0, 0), BuildingBlock: EZIPEK_clean_linker_0, # of connection points: 2
#     Edge 36, Type (0, 0), BuildingBlock: EZIPEK_clean_linker_0, # of connection points: 2
#     Edge 37, Type (0, 0), BuildingBlock: EZIPEK_clean_linker_0, # of connection points: 2
#     Edge 38, Type (0, 0), BuildingBlock: EZIPEK_clean_linker_0, # of connection points: 2
#     Edge 39, Type (0, 0), BuildingBlock: EZIPEK_clean_linker_0, # of connection points: 2
#     Edge 40, Type (0, 0), BuildingBlock: EZIPEK_clean_linker_0, # of connection points: 2
#     Edge 41, Type (0, 0), BuildingBlock: EZIPEK_clean_linker_0, # of connection points: 2
#     Edge 42, Type (0, 0), BuildingBlock: EZIPEK_clean_linker_0, # of connection points: 2
#     Edge 43, Type (0, 0), BuildingBlock: EZIPEK_clean_linker_0, # of connection points: 2
#     Edge 44, Type (0, 0), BuildingBlock: EZIPEK_clean_linker_0, # of connection points: 2
#     Edge 45, Type (0, 0), BuildingBlock: EZIPEK_clean_linker_0, # of connection points: 2
#     Edge 46, Type (0, 0), BuildingBlock: EZIPEK_clean_linker_0, # of connection points: 2
#     Edge 47, Type (0, 0), BuildingBlock: EZIPEK_clean_linker_0, # of connection points: 2
#     Edge 48, Type (0, 0), BuildingBlock: EZIPEK_clean_linker_0, # of connection points: 2
#     Edge 49, Type (0, 0), BuildingBlock: EZIPEK_clean_linker_0, # of connection points: 2
#     Edge 50, Type (0, 0), BuildingBlock: EZIPEK_clean_linker_0, # of connection points: 2
#     Edge 51, Type (0, 0), BuildingBlock: EZIPEK_clean_linker_0, # of connection points: 2
#     Edge 52, Type (0, 0), BuildingBlock: EZIPEK_clean_linker_0, # of connection points: 2
#     Edge 53, Type (0, 0), BuildingBlock: EZIPEK_clean_linker_0, # of connection points: 2
#     Edge 54, Type (0, 0), BuildingBlock: EZIPEK_clean_linker_0, # of connection points: 2
#     Edge 55, Type (0, 0), BuildingBlock: EZIPEK_clean_linker_0, # of connection points: 2
#     Edge 56, Type (0, 0), BuildingBlock: EZIPEK_clean_linker_0, # of connection points: 2
#     Edge 57, Type (0, 0), BuildingBlock: EZIPEK_clean_linker_0, # of connection points: 2
#     Edge 58, Type (0, 0), BuildingBlock: EZIPEK_clean_linker_0, # of connection points: 2
#     Edge 59, Type (0, 0), BuildingBlock: EZIPEK_clean_linker_0, # of connection points: 2
#     Edge 60, Type (0, 0), BuildingBlock: EZIPEK_clean_linker_0, # of connection points: 2
#     Edge 61, Type (0, 0), BuildingBlock: EZIPEK_clean_linker_0, # of connection points: 2
#     Edge 62, Type (0, 0), BuildingBlock: EZIPEK_clean_linker_0, # of connection points: 2
# Relax obj value: 0.286
# Max RMSD: 0.304
# Mean RMSD: 0.277
data_MOF--net-fnc--node1-BEQFEK_clean_sbu_0--edge1-EZIPEK_clean_linker_0
_symmetry_space_group_name_H-M    P1
_symmetry_Int_Tables_number       1
_symmetry_cell_setting            triclinic
loop_
_symmetry_equiv_pos_as_xyz
'x, y, z'
_cell_length_a     69.682989
_cell_length_b     75.763051
_cell_length_c     14.627299
_cell_angle_alpha  89.036048
_cell_angle_beta   92.144338
_cell_angle_gamma 127.68009
loop_
_atom_site_label
_atom_site_type_symbol
_atom_site_fract_x
_atom_site_fract_y
_atom_site_fract_z
_atom_type_partial_charge
Co0 Co 0.05794 0.4842 0.98328 0.0
Co1 Co 0.03011 0.46986 0.16672 0.0
C2 C 0.07357 0.46967 0.13342 0.0
O3 O 0.07906 0.47865 0.0544 0.0
O4 O 0.05571 0.4659 0.17501 0.0
C5 C 0.08059 0.49914 0.7943 0.0
O6 O 0.10249 0.50625 0.82051 0.0
C7 C 0.04021 0.48323 0.35566 0.0
C8 C 0.00784 0.45564 0.42602 0.0
C9 C 0.03129 0.47503 0.44138 0.0
N10 N 0.02311 0.46937 0.2921 0.0
N11 N 0.00357 0.45305 0.33456 0.0
C12 C 0.06543 0.50308 0.33497 0.0
H13 H 0.06953 0.50281 0.26283 0.0
H14 H 0.06718 0.51844 0.34667 0.0
H15 H 0.07875 0.5038 0.38208 0.0
C16 C 0.05911 0.52338 0.01152 0.0
N17 N 0.05483 0.50437 0.04113 0.0
N18 N 0.04193 0.49771 0.11502 0.0
C19 C 0.03744 0.51214 0.13444 0.0
C20 C 0.04818 0.52887 0.06961 0.0
C21 C 0.0705 0.5343 0.92298 0.0
H22 H 0.05725 0.52431 0.86592 0.0
H23 H 0.08657 0.53478 0.91429 0.0
H24 H 0.07594 0.55146 0.92019 0.0
O25 O 0.02546 0.45557 0.96959 0.0
O26 O 0.00235 0.44481 0.09016 0.0
H27 H 0.01323 0.51763 0.19133 0.0
H28 H 0.03093 0.51462 0.27329 0.0
C29 C 0.02071 0.50847 0.20674 0.0
H30 H 0.00566 0.4904 0.21319 0.0
H31 H 0.988 0.43938 0.30138 0.0
O32 O 0.06404 0.49115 0.85173 0.0
C33 C 0.00532 0.44195 0.0076 0.0
Co34 Co 0.57736 0.6421 0.02205 0.0
Co35 Co 0.59491 0.63419 0.20813 0.0
C36 C 0.59584 0.67503 0.16108 0.0
O37 O 0.58507 0.66952 0.08259 0.0
O38 O 0.59965 0.66249 0.20222 0.0
C39 C 0.55409 0.63378 0.82136 0.0
O40 O 0.53278 0.62912 0.83107 0.0
C41 C 0.59239 0.63726 0.40439 0.0
C42 C 0.59276 0.6101 0.45779 0.0
C43 C 0.58827 0.62487 0.48207 0.0
N44 N 0.59759 0.62936 0.33575 0.0
N45 N 0.59893 0.61382 0.36936 0.0
C46 C 0.59184 0.65671 0.39664 0.0
H47 H 0.60905 0.67108 0.36788 0.0
H48 H 0.57648 0.65232 0.35049 0.0
H49 H 0.5901 0.66199 0.46406 0.0
C50 C 0.53317 0.59598 0.06276 0.0
N51 N 0.55523 0.61493 0.08666 0.0
N52 N 0.5634 0.61109 0.16102 0.0
C53 C 0.54697 0.58961 0.18533 0.0
C54 C 0.52753 0.57937 0.1236 0.0
C55 C 0.51827 0.5932 0.98039 0.0
H56 H 0.51779 0.60754 0.97641 0.0
H57 H 0.49945 0.57749 0.98365 0.0
H58 H 0.52651 0.59267 0.91825 0.0
O59 O 0.60837 0.64629 0.0097 0.0
O60 O 0.62001 0.63725 0.1336 0.0
H61 H 0.5671 0.5799 0.24979 0.0
H62 H 0.53489 0.56034 0.26519 0.0
C63 C 0.55049 0.57831 0.26118 0.0
H64 H 0.5524 0.58636 0.32694 0.0
H65 H 0.60265 0.60484 0.3308 0.0
O66 O 0.56762 0.63809 0.89138 0.0
C67 C 0.62275 0.64343 0.05043 0.0
Co68 Co 0.43792 0.062 0.17351 0.0
Co69 Co 0.411 0.03566 0.9893 0.0
C70 C 0.43054 0.08399 0.02971 0.0
O71 O 0.44067 0.08723 0.10874 0.0
O72 O 0.41967 0.06537 0.98904 0.0
C73 C 0.45931 0.07784 0.37367 0.0
O74 O 0.47877 0.09833 0.36016 0.0
C75 C 0.42293 0.04327 0.80068 0.0
C76 C 0.39156 0.01424 0.72524 0.0
C77 C 0.41405 0.03468 0.7139 0.0
N78 N 0.40661 0.02883 0.86155 0.0
N79 N 0.38782 0.01139 0.81618 0.0
C80 C 0.44646 0.06541 0.82475 0.0
H81 H 0.45251 0.06554 0.89604 0.0
H82 H 0.46064 0.06946 0.77698 0.0
H83 H 0.44395 0.07851 0.81805 0.0
C84 C 0.4686 0.04851 0.12567 0.0
N85 N 0.45029 0.04968 0.10851 0.0
N86 N 0.43732 0.0369 0.03717 0.0
C87 C 0.44671 0.027 0.00781 0.0
C88 C 0.46681 0.03408 0.06269 0.0
C89 C 0.48691 0.06012 0.20273 0.0
H90 H 0.48551 0.07221 0.23698 0.0
H91 H 0.50541 0.06892 0.17633 0.0
H92 H 0.48403 0.04753 0.25239 0.0
O93 O 0.40337 0.03789 0.18606 0.0
O94 O 0.38146 0.01698 0.06593 0.0
H95 H 0.44165 -0.0004 0.93678 0.0
H96 H 0.44334 0.02002 0.86508 0.0
C97 C 0.43631 0.0107 0.93004 0.0
H98 H 0.41624 0.00057 0.92704 0.0
H99 H 0.37233 0.9978 0.84689 0.0
O100 O 0.44561 0.06553 0.30695 0.0
C101 C 0.38313 0.02193 0.15046 0.0
Co102 Co 0.99009 0.61212 0.15773 0.0
Co103 Co 0.01459 0.63578 0.97485 0.0
C104 C 0.96093 0.61361 0.01714 0.0
O105 O 0.96026 0.60535 0.09475 0.0
O106 O 0.9805 0.62552 0.97362 0.0
C107 C 0.97177 0.60093 0.34032 0.0
O108 O 0.95146 0.59642 0.30668 0.0
C109 C 0.00663 0.62614 0.78284 0.0
C110 C 0.03971 0.65443 0.7181 0.0
C111 C 0.0169 0.63453 0.69924 0.0
N112 N 0.02233 0.64031 0.84886 0.0
N113 N 0.04226 0.65717 0.80999 0.0
C114 C 0.98171 0.60527 0.79927 0.0
H115 H 0.96886 0.60932 0.79617 0.0
H116 H 0.98108 0.5984 0.86762 0.0
H117 H 0.97586 0.59253 0.7458 0.0
C118 C 0.00749 0.58653 0.11195 0.0
N119 N 0.0044 0.60207 0.09288 0.0
N120 N 0.01628 0.61303 0.01933 0.0
C121 C 0.02755 0.60486 0.98955 0.0
C122 C 0.02222 0.58777 0.04708 0.0
C123 C 0.99761 0.57168 0.19358 0.0
H124 H 0.97936 0.56666 0.20773 0.0
H125 H 0.99665 0.55667 0.18309 0.0
H126 H 0.00975 0.58105 0.25401 0.0
O127 O 0.01401 0.6445 0.174 0.0
O128 O 0.03491 0.66369 0.05297 0.0
H129 H 0.05497 0.63197 0.90783 0.0
H130 H 0.05504 0.60803 0.91025 0.0
C131 C 0.04345 0.6135 0.90891 0.0
H132 H 0.03185 0.60701 0.84552 0.0
H133 H 0.05735 0.67068 0.84583 0.0
O134 O 0.98731 0.60378 0.28674 0.0
C135 C 0.03037 0.66294 0.13735 0.0
Co136 Co 0.40481 0.42084 0.19027 0.0
Co137 Co 0.39037 0.43031 0.00176 0.0
C138 C 0.38542 0.38766 0.0468 0.0
O139 O 0.39417 0.39244 0.12852 0.0
O140 O 0.3842 0.40146 0.0022 0.0
C141 C 0.42305 0.42019 0.3863 0.0
O142 O 0.43546 0.41286 0.36944 0.0
C143 C 0.40218 0.43286 0.81461 0.0
C144 C 0.38035 0.44046 0.73682 0.0
C145 C 0.3965 0.43569 0.72713 0.0
N146 N 0.39011 0.43579 0.87414 0.0
N147 N 0.37717 0.44052 0.82742 0.0
C148 C 0.41751 0.42575 0.84046 0.0
H149 H 0.42446 0.43049 0.91225 0.0
H150 H 0.43295 0.43333 0.79421 0.0
H151 H 0.40632 0.40735 0.83325 0.0
C152 C 0.4497 0.46701 0.15805 0.0
N153 N 0.42846 0.4479 0.12906 0.0
N154 N 0.42141 0.45189 0.05201 0.0
C155 C 0.4377 0.47337 0.02921 0.0
C156 C 0.4561 0.48373 0.09567 0.0
C157 C 0.46158 0.46999 0.24969 0.0
H158 H 0.46183 0.45569 0.26351 0.0
H159 H 0.48035 0.48584 0.25329 0.0
H160 H 0.45086 0.47026 0.30311 0.0
O161 O 0.37646 0.42003 0.20017 0.0
O162 O 0.36564 0.42903 0.07525 0.0
H163 H 0.44665 0.50276 0.95789 0.0
H164 H 0.43708 0.47933 0.8865 0.0
C165 C 0.43398 0.4843 0.95189 0.0
H166 H 0.41499 0.47848 0.95 0.0
H167 H 0.36563 0.44307 0.85694 0.0
O168 O 0.41235 0.42285 0.32215 0.0
C169 C 0.36309 0.42409 0.1601 0.0
Co170 Co 0.57291 0.99345 0.99711 0.0
Co171 Co 0.58996 0.01959 0.18148 0.0
C172 C 0.58667 0.9775 0.14587 0.0
O173 O 0.57636 0.97264 0.06656 0.0
O174 O 0.59269 0.99481 0.18877 0.0
C175 C 0.554 0.97452 0.79765 0.0
O176 O 0.53788 0.95301 0.81078 0.0
C177 C 0.57709 0.01333 0.37035 0.0
C178 C 0.60923 0.04281 0.44086 0.0
C179 C 0.5872 0.0222 0.45608 0.0
N180 N 0.59239 0.02767 0.30684 0.0
N181 N 0.61146 0.0455 0.34934 0.0
C182 C 0.5539 0.9907 0.3498 0.0
H183 H 0.55284 0.98587 0.27773 0.0
H184 H 0.53842 0.99095 0.36143 0.0
H185 H 0.5521 0.97822 0.39716 0.0
C186 C 0.53215 0.99548 0.0205 0.0
N187 N 0.55205 0.99796 0.05252 0.0
N188 N 0.5598 0.0096 0.12915 0.0
C189 C 0.54541 0.01523 0.14763 0.0
C190 C 0.52737 0.00635 0.07981 0.0
C191 C 0.52008 0.98568 0.92915 0.0
H192 H 0.53187 0.99759 0.87511 0.0
H193 H 0.51775 0.97 0.91866 0.0
H194 H 0.5022 0.98235 0.92315 0.0
O195 O 0.6049 0.02247 0.98592 0.0
O196 O 0.61551 0.04467 0.10484 0.0
H197 H 0.54274 0.03998 0.20269 0.0
H198 H 0.54345 0.02263 0.28566 0.0
C199 C 0.55099 0.03158 0.22037 0.0
H200 H 0.5709 0.04429 0.2305 0.0
H201 H 0.62666 0.05882 0.31626 0.0
O202 O 0.56569 0.98781 0.86448 0.0
C203 C 0.61904 0.04154 0.02377 0.0
Co204 Co 0.69868 0.7989 0.34632 0.0
Co205 Co 0.67092 0.7858 0.52816 0.0
C206 C 0.71396 0.78482 0.49978 0.0
O207 O 0.71882 0.7921 0.41796 0.0
O208 O 0.69686 0.78281 0.53938 0.0
C209 C 0.70563 0.79386 0.16446 0.0
O210 O 0.70696 0.77842 0.19797 0.0
C211 C 0.67791 0.79259 0.72269 0.0
C212 C 0.64102 0.77524 0.77352 0.0
C213 C 0.66515 0.7867 0.8017 0.0
N214 N 0.66218 0.78474 0.65068 0.0
N215 N 0.64014 0.77466 0.6812 0.0
C216 C 0.70459 0.80435 0.71595 0.0
H217 H 0.70794 0.79181 0.71668 0.0
H218 H 0.71126 0.81401 0.65163 0.0
H219 H 0.71505 0.81581 0.77458 0.0
C220 C 0.70129 0.83904 0.37324 0.0
N221 N 0.6957 0.81946 0.40214 0.0
N222 N 0.68357 0.81369 0.47765 0.0
C223 C 0.68179 0.82971 0.5012 0.0
C224 C 0.69273 0.8462 0.43532 0.0
C225 C 0.71238 0.84945 0.28353 0.0
H226 H 0.69912 0.83889 0.22732 0.0
H227 H 0.72862 0.85019 0.27549 0.0
H228 H 0.71748 0.86646 0.27794 0.0
O229 O 0.66658 0.77035 0.32997 0.0
O230 O 0.64383 0.75992 0.451 0.0
H231 H 0.64991 0.81272 0.58029 0.0
H232 H 0.66805 0.84287 0.58482 0.0
C233 C 0.66865 0.82859 0.58241 0.0
H234 H 0.67801 0.82874 0.64574 0.0
H235 H 0.62446 0.76674 0.63934 0.0
O236 O 0.70705 0.80751 0.21872 0.0
C237 C 0.64665 0.75663 0.36895 0.0
Co238 Co 0.257 0.98108 0.35319 0.0
Co239 Co 0.27334 0.97221 0.53999 0.0
C240 C 0.27575 0.01366 0.49299 0.0
O241 O 0.26486 0.008 0.41478 0.0
O242 O 0.2798 0.00146 0.53582 0.0
C243 C 0.23471 0.97399 0.15154 0.0
O244 O 0.21407 0.97078 0.15929 0.0
C245 C 0.27293 0.9759 0.73716 0.0
C246 C 0.26897 0.94623 0.78687 0.0
C247 C 0.26739 0.96278 0.81361 0.0
N248 N 0.27603 0.96676 0.66674 0.0
N249 N 0.27487 0.94968 0.69813 0.0
C250 C 0.27518 0.99687 0.73192 0.0
H251 H 0.2924 0.01016 0.69941 0.0
H252 H 0.25977 0.99379 0.69015 0.0
H253 H 0.27538 0.00293 0.80072 0.0
C254 C 0.2111 0.93705 0.39546 0.0
N255 N 0.23417 0.95454 0.41732 0.0
N256 N 0.24124 0.94999 0.4929 0.0
C257 C 0.22283 0.92928 0.52022 0.0
C258 C 0.20339 0.92052 0.45912 0.0
C259 C 0.19682 0.93574 0.31379 0.0
H260 H 0.19876 0.95137 0.30935 0.0
H261 H 0.17731 0.92135 0.31811 0.0
H262 H 0.20392 0.93378 0.25142 0.0
O263 O 0.28756 0.98487 0.34255 0.0
O264 O 0.29791 0.97447 0.46548 0.0
H265 H 0.23809 0.91558 0.59205 0.0
H266 H 0.2062 0.90068 0.6093 0.0
C267 C 0.22373 0.91748 0.60103 0.0
H268 H 0.22782 0.92738 0.66364 0.0
H269 H 0.27649 0.93947 0.65768 0.0
O270 O 0.24759 0.97745 0.22256 0.0
C271 C 0.30134 0.98135 0.38332 0.0
Co272 Co 0.0682 0.36865 0.33426 0.0
Co273 Co 0.09162 0.39556 0.51663 0.0
C274 C 0.03687 0.35439 0.48584 0.0
O275 O 0.03849 0.349 0.40591 0.0
O276 O 0.05541 0.37164 0.52652 0.0
C277 C 0.05945 0.35029 0.13104 0.0
O278 O 0.04403 0.32852 0.13841 0.0
C279 C 0.09796 0.39051 0.71078 0.0
C280 C 0.10454 0.42028 0.77116 0.0
C281 C 0.09869 0.39966 0.79334 0.0
N282 N 0.10209 0.40449 0.64255 0.0
N283 N 0.10663 0.42256 0.67954 0.0
C284 C 0.09255 0.36832 0.69733 0.0
H285 H 0.08703 0.36263 0.62531 0.0
H286 H 0.10916 0.36988 0.71434 0.0
H287 H 0.07859 0.35582 0.74487 0.0
C288 C 0.10457 0.36114 0.36752 0.0
N289 N 0.09408 0.37042 0.3912 0.0
N290 N 0.10544 0.38301 0.46452 0.0
C291 C 0.12433 0.38289 0.487 0.0
C292 C 0.12407 0.36878 0.42692 0.0
C293 C 0.09629 0.34552 0.28865 0.0
H294 H 0.07628 0.33501 0.27946 0.0
H295 H 0.10205 0.3348 0.29878 0.0
H296 H 0.10464 0.35552 0.22605 0.0
O297 O 0.07621 0.39844 0.32192 0.0
O298 O 0.09894 0.42084 0.43751 0.0
H299 H 0.16135 0.40635 0.53254 0.0
H300 H 0.14215 0.38547 0.61397 0.0
C301 C 0.14301 0.39662 0.56129 0.0
H302 H 0.14038 0.40817 0.59274 0.0
H303 H 0.10909 0.43558 0.64188 0.0
O304 O 0.0667 0.36279 0.20107 0.0
C305 C 0.0891 0.41776 0.35816 0.0
Co306 Co 0.6887 0.97081 0.33197 0.0
Co307 Co 0.66161 0.95209 0.51576 0.0
C308 C 0.70416 0.0014 0.47929 0.0
O309 O 0.71018 -0.00031 0.40053 0.0
O310 O 0.6862 0.98457 0.51912 0.0
C311 C 0.71179 0.98125 0.14496 0.0
O312 O 0.73422 0.99669 0.17395 0.0
C313 C 0.67403 0.95371 0.70527 0.0
C314 C 0.63996 0.93869 0.77653 0.0
C315 C 0.66467 0.94984 0.79092 0.0
N316 N 0.65586 0.94529 0.64226 0.0
N317 N 0.63541 0.93609 0.68515 0.0
C318 C 0.70034 0.96751 0.68397 0.0
H319 H 0.70271 0.96448 0.61288 0.0
H320 H 0.70995 0.96371 0.73271 0.0
H321 H 0.7086 0.98542 0.69212 0.0
C322 C 0.69392 0.93515 0.36561 0.0
N323 N 0.68669 0.94723 0.39036 0.0
N324 N 0.67457 0.9389 0.46599 0.0
C325 C 0.67373 0.92132 0.49191 0.0
C326 C 0.68601 0.91842 0.42914 0.0
C327 C 0.7066 0.93861 0.27949 0.0
H328 H 0.69373 0.93372 0.22059 0.0
H329 H 0.72206 0.95655 0.27284 0.0
H330 H 0.71321 0.9285 0.27803 0.0
O331 O 0.65621 0.96341 0.32221 0.0
O332 O 0.63315 0.94495 0.44016 0.0
H333 H 0.64374 0.90498 0.58139 0.0
H334 H 0.65727 0.89092 0.56925 0.0
C335 C 0.66098 0.90736 0.57397 0.0
H336 H 0.67264 0.91618 0.63596 0.0
H337 H 0.61864 0.92916 0.65221 0.0
O338 O 0.69456 0.97137 0.20015 0.0
C339 C 0.63596 0.95323 0.36061 0.0
Co340 Co 0.05651 0.77204 0.33813 0.0
Co341 Co 0.07229 0.76415 0.52839 0.0
C342 C 0.02246 0.75342 0.4828 0.0
O343 O 0.026 0.76124 0.40187 0.0
O344 O 0.03849 0.75343 0.52702 0.0
C345 C 0.04593 0.78004 0.14509 0.0
O346 O 0.02631 0.77763 0.16639 0.0
C347 C 0.07352 0.77491 0.71579 0.0
C348 C 0.08422 0.75684 0.79361 0.0
C349 C 0.07627 0.7696 0.80331 0.0
N350 N 0.07949 0.7658 0.65624 0.0
N351 N 0.08622 0.75523 0.70311 0.0
C352 C 0.06266 0.78635 0.68943 0.0
H353 H 0.06669 0.79228 0.61789 0.0
H354 H 0.06971 0.80063 0.73624 0.0
H355 H 0.0427 0.77443 0.69624 0.0
C356 C 0.09999 0.81794 0.37796 0.0
N357 N 0.08434 0.79629 0.40009 0.0
N358 N 0.09182 0.79285 0.47736 0.0
C359 C 0.11257 0.81222 0.50681 0.0
C360 C 0.11828 0.82867 0.4449 0.0
C361 C 0.09775 0.82792 0.29325 0.0
H362 H 0.10395 0.82369 0.2346 0.0
H363 H 0.07846 0.82073 0.27954 0.0
H364 H 0.10903 0.84635 0.2994 0.0
O365 O 0.05846 0.74717 0.33197 0.0
O366 O 0.07328 0.74222 0.45821 0.0
H367 H 0.12535 0.79974 0.6042 0.0
H368 H 0.146 0.82973 0.58776 0.0
C369 C 0.12667 0.81493 0.59212 0.0
H370 H 0.1189 0.81735 0.65104 0.0
H371 H 0.09083 0.7459 0.67341 0.0
O372 O 0.05844 0.77884 0.20622 0.0
C373 C 0.06563 0.73735 0.37496 0.0
Co374 Co 0.23716 0.33553 0.35604 0.0
Co375 Co 0.25266 0.36096 0.542 0.0
C376 C 0.24954 0.31903 0.50571 0.0
O377 O 0.24103 0.31468 0.42356 0.0
O378 O 0.25414 0.33586 0.54747 0.0
C379 C 0.21955 0.31698 0.15759 0.0
O380 O 0.20609 0.29531 0.16912 0.0
C381 C 0.24364 0.35319 0.73439 0.0
C382 C 0.25851 0.38608 0.79316 0.0
C383 C 0.24661 0.36383 0.81514 0.0
N384 N 0.25341 0.36829 0.66697 0.0
N385 N 0.2623 0.38798 0.7024 0.0
C386 C 0.23159 0.32886 0.72189 0.0
H387 H 0.22041 0.32267 0.65738 0.0
H388 H 0.21996 0.3188 0.77969 0.0
H389 H 0.24576 0.3265 0.71833 0.0
C390 C 0.19536 0.33636 0.37783 0.0
N391 N 0.21579 0.33975 0.4097 0.0
N392 N 0.22303 0.35128 0.48644 0.0
C393 C 0.20757 0.35557 0.50607 0.0
C394 C 0.18962 0.34639 0.43789 0.0
C395 C 0.18311 0.32584 0.28744 0.0
H396 H 0.18159 0.31052 0.27814 0.0
H397 H 0.16483 0.32171 0.2821 0.0
H398 H 0.19432 0.3376 0.2321 0.0
O399 O 0.2694 0.3644 0.34795 0.0
O400 O 0.28026 0.38583 0.47026 0.0
H401 H 0.19775 0.37337 0.58074 0.0
H402 H 0.20996 0.36207 0.64911 0.0
C403 C 0.21135 0.3702 0.58335 0.0
H404 H 0.2298 0.38633 0.5807 0.0
H405 H 0.27079 0.40265 0.66472 0.0
O406 O 0.22998 0.33025 0.22499 0.0
C407 C 0.28426 0.38283 0.3897 0.0
Co408 Co 0.37993 0.14069 0.687 0.0
Co409 Co 0.35091 0.12229 0.8691 0.0
C410 C 0.39799 0.12844 0.83549 0.0
O411 O 0.40329 0.13737 0.75647 0.0
O412 O 0.37921 0.12322 0.87395 0.0
C413 C 0.40112 0.16009 0.49661 0.0
O414 O 0.4237 0.17633 0.52111 0.0
C415 C 0.36198 0.13423 0.05834 0.0
C416 C 0.32759 0.11137 0.12892 0.0
C417 C 0.35216 0.12853 0.14365 0.0
N418 N 0.34429 0.12113 0.99531 0.0
N419 N 0.32364 0.10754 0.03767 0.0
C420 C 0.38819 0.15135 0.03756 0.0
H421 H 0.39734 0.14344 0.04159 0.0
H422 H 0.39004 0.15805 0.96772 0.0
H423 H 0.39738 0.16522 0.08817 0.0
C424 C 0.37231 0.17469 0.71753 0.0
N425 N 0.37187 0.15742 0.7457 0.0
N426 N 0.35848 0.14865 0.81831 0.0
C427 C 0.3502 0.16004 0.83917 0.0
C428 C 0.35856 0.17684 0.77595 0.0
C429 C 0.38263 0.18672 0.62967 0.0
H430 H 0.37056 0.17561 0.57204 0.0
H431 H 0.40073 0.19082 0.6219 0.0
H432 H 0.38417 0.20219 0.62704 0.0
O433 O 0.34974 0.1105 0.67234 0.0
O434 O 0.32629 0.09523 0.79183 0.0
H435 H 0.31807 0.1351 0.9099 0.0
H436 H 0.32435 0.16215 0.9057 0.0
C437 C 0.33255 0.15341 0.91248 0.0
H438 H 0.34218 0.15765 0.98014 0.0
H439 H 0.30704 0.09538 0.00477 0.0
O440 O 0.38566 0.14747 0.55568 0.0
C441 C 0.33062 0.09413 0.70872 0.0
Co442 Co 0.91625 0.33216 0.6381 0.0
Co443 Co 0.923 0.31751 0.82686 0.0
C444 C 0.93934 0.36435 0.78323 0.0
O445 O 0.92939 0.36091 0.70386 0.0
O446 O 0.93784 0.34891 0.82573 0.0
C447 C 0.89984 0.33286 0.4431 0.0
O448 O 0.88313 0.3349 0.46442 0.0
C449 C 0.92139 0.32098 0.02086 0.0
C450 C 0.9073 0.28721 0.06613 0.0
C451 C 0.91127 0.30667 0.09384 0.0
N452 N 0.92189 0.31005 0.95093 0.0
N453 N 0.9147 0.29031 0.9797 0.0
C454 C 0.93138 0.34502 0.01942 0.0
H455 H 0.9496 0.35521 0.98965 0.0
H456 H 0.91916 0.34688 0.97718 0.0
H457 H 0.93339 0.3516 0.08912 0.0
C458 C 0.8656 0.28697 0.65765 0.0
N459 N 0.88784 0.3049 0.68934 0.0
N460 N 0.89093 0.30045 0.77383 0.0
C461 C 0.87046 0.28066 0.79885 0.0
C462 C 0.85451 0.27103 0.72514 0.0
C463 C 0.85514 0.283 0.56264 0.0
H464 H 0.86408 0.29854 0.52485 0.0
H465 H 0.83547 0.27498 0.56488 0.0
H466 H 0.85673 0.27118 0.52676 0.0
O467 O 0.94316 0.33005 0.63861 0.0
O468 O 0.94464 0.31366 0.76203 0.0
H469 H 0.87345 0.26081 0.89443 0.0
H470 H 0.84594 0.2576 0.90014 0.0
C471 C 0.86575 0.26996 0.89028 0.0
H472 H 0.87336 0.28275 0.94474 0.0
H473 H 0.91322 0.27841 0.93839 0.0
O474 O 0.91335 0.33349 0.50526 0.0
C475 C 0.95249 0.32244 0.6842 0.0
Co476 Co 0.75731 0.72036 0.82952 0.0
Co477 Co 0.72975 0.69618 0.64204 0.0
C478 C 0.75132 0.74477 0.69107 0.0
O479 O 0.76128 0.74625 0.76846 0.0
O480 O 0.73913 0.72668 0.64524 0.0
C481 C 0.78253 0.73188 0.03337 0.0
O482 O 0.80633 0.7447 0.04031 0.0
C483 C 0.73018 0.70062 0.44289 0.0
C484 C 0.71783 0.66767 0.3952 0.0
C485 C 0.72915 0.68942 0.36646 0.0
N486 N 0.72156 0.6867 0.51485 0.0
N487 N 0.71301 0.66669 0.48452 0.0
C488 C 0.73995 0.72453 0.44717 0.0
H489 H 0.72692 0.72577 0.48178 0.0
H490 H 0.75743 0.73429 0.48686 0.0
H491 H 0.74282 0.73178 0.37789 0.0
C492 C 0.78644 0.70619 0.77899 0.0
N493 N 0.76871 0.70805 0.75939 0.0
N494 N 0.75696 0.69701 0.68318 0.0
C495 C 0.76725 0.68792 0.65206 0.0
C496 C 0.78594 0.69324 0.71226 0.0
C497 C 0.80274 0.71562 0.86269 0.0
H498 H 0.7921 0.70602 0.92318 0.0
H499 H 0.81008 0.73325 0.87184 0.0
H500 H 0.81797 0.71471 0.8582 0.0
O501 O 0.72292 0.69703 0.85097 0.0
O502 O 0.70147 0.67777 0.7259 0.0
H503 H 0.741 0.65809 0.57697 0.0
H504 H 0.7719 0.66998 0.55339 0.0
C505 C 0.75937 0.67393 0.56778 0.0
H506 H 0.75901 0.68302 0.50871 0.0
H507 H 0.70565 0.65276 0.52623 0.0
O508 O 0.77261 0.72734 0.95384 0.0
C509 C 0.70285 0.68159 0.81172 0.0
Co510 Co 0.29998 0.26209 0.84416 0.0
Co511 Co 0.32835 0.28226 0.66413 0.0
C512 C 0.28005 0.27353 0.70204 0.0
O513 O 0.27504 0.26298 0.77713 0.0
O514 O 0.29967 0.28145 0.66247 0.0
C515 C 0.28787 0.26198 0.02389 0.0
O516 O 0.27927 0.27195 0.98757 0.0
C517 C 0.32009 0.27547 0.47015 0.0
C518 C 0.35645 0.29771 0.41229 0.0
C519 C 0.33194 0.28257 0.38866 0.0
N520 N 0.33665 0.28589 0.53928 0.0
N521 N 0.35844 0.29906 0.50453 0.0
C522 C 0.29324 0.25988 0.48218 0.0
H523 H 0.28639 0.26976 0.48584 0.0
H524 H 0.28907 0.2504 0.54662 0.0
H525 H 0.28364 0.24808 0.4238 0.0
C526 C 0.30868 0.22924 0.80629 0.0
N527 N 0.3088 0.24652 0.78171 0.0
N528 N 0.32118 0.25542 0.70702 0.0
C529 C 0.32922 0.2441 0.68122 0.0
C530 C 0.3217 0.22724 0.74346 0.0
C531 C 0.29922 0.21695 0.89437 0.0
H532 H 0.31211 0.22769 0.95112 0.0
H533 H 0.28149 0.21323 0.90744 0.0
H534 H 0.29719 0.20124 0.89305 0.0
O535 O 0.32876 0.29346 0.86312 0.0
O536 O 0.35304 0.30787 0.74511 0.0
H537 H 0.36181 0.2688 0.61273 0.0
H538 H 0.35261 0.24075 0.60251 0.0
C539 C 0.34609 0.25092 0.60469 0.0
H540 H 0.33648 0.24887 0.53884 0.0
H541 H 0.37456 0.30922 0.54351 0.0
O542 O 0.29311 0.25237 0.97182 0.0
C543 C 0.3482 0.30942 0.82657 0.0
Co544 Co 0.74898 0.11153 0.81813 0.0
Co545 Co 0.72668 0.11389 0.63007 0.0
C546 C 0.73738 0.08044 0.68055 0.0
O547 O 0.74835 0.08767 0.75846 0.0
O548 O 0.72949 0.08973 0.63841 0.0
C549 C 0.77164 0.12228 0.01676 0.0
O550 O 0.79241 0.12641 0.99999 0.0
C551 C 0.73496 0.11516 0.4363 0.0
C552 C 0.72549 0.13612 0.38113 0.0
C553 C 0.7384 0.12824 0.36054 0.0
N554 N 0.72364 0.11781 0.50108 0.0
N555 N 0.71695 0.12948 0.46584 0.0
C556 C 0.73806 0.09722 0.44145 0.0
H557 H 0.7218 0.08202 0.47159 0.0
H558 H 0.7541 0.10276 0.48601 0.0
H559 H 0.73986 0.09242 0.37302 0.0
C560 C 0.78651 0.15997 0.77403 0.0
N561 N 0.76623 0.13923 0.7532 0.0
N562 N 0.7556 0.14038 0.67932 0.0
C563 C 0.76846 0.16182 0.65279 0.0
C564 C 0.78818 0.17485 0.7122 0.0
C565 C 0.80438 0.16562 0.84996 0.0
H566 H 0.80343 0.15085 0.86711 0.0
H567 H 0.82306 0.17943 0.82955 0.0
H568 H 0.80057 0.17141 0.91072 0.0
O569 O 0.71485 0.09971 0.82322 0.0
O570 O 0.69841 0.10471 0.70312 0.0
H571 H 0.74308 0.16413 0.57907 0.0
H572 H 0.7742 0.18852 0.56946 0.0
C573 C 0.76196 0.17004 0.5732 0.0
H574 H 0.76359 0.16347 0.50938 0.0
H575 H 0.70801 0.13418 0.50152 0.0
O576 O 0.75614 0.11643 0.95208 0.0
C577 C 0.69704 0.09781 0.78455 0.0
Co578 Co 0.8932 0.65308 0.66903 0.0
Co579 Co 0.90746 0.67856 0.85643 0.0
C580 C 0.90989 0.6399 0.81934 0.0
O581 O 0.90114 0.63459 0.73743 0.0
O582 O 0.91159 0.65548 0.85955 0.0
C583 C 0.8787 0.63261 0.47776 0.0
O584 O 0.87114 0.6126 0.50214 0.0
C585 C 0.89566 0.66721 0.044 0.0
C586 C 0.91549 0.69925 0.1183 0.0
C587 C 0.90076 0.67631 0.13038 0.0
N588 N 0.90694 0.6838 0.98287 0.0
N589 N 0.91859 0.703 0.02743 0.0
C590 C 0.88119 0.64295 0.02068 0.0
H591 H 0.87302 0.6396 0.95052 0.0
H592 H 0.86665 0.63255 0.0701 0.0
H593 H 0.89335 0.6381 0.02454 0.0
C594 C 0.85148 0.65399 0.68477 0.0
N595 N 0.8709 0.65621 0.7217 0.0
N596 N 0.87742 0.66739 0.79914 0.0
C597 C 0.86198 0.67189 0.81584 0.0
C598 C 0.84524 0.6639 0.74324 0.0
C599 C 0.8418 0.64597 0.58921 0.0
H600 H 0.85518 0.65862 0.54039 0.0
H601 H 0.83927 0.63026 0.57681 0.0
H602 H 0.82434 0.64323 0.57671 0.0
O603 O 0.92382 0.68269 0.66497 0.0
O604 O 0.93604 0.70423 0.78776 0.0
H605 H 0.88374 0.70219 0.89394 0.0
H606 H 0.85155 0.68917 0.89062 0.0
C607 C 0.86521 0.68607 0.89403 0.0
H608 H 0.86339 0.67756 0.95923 0.0
H609 H 0.9292 0.71859 0.99632 0.0
O610 O 0.88678 0.64786 0.5368 0.0
C611 C 0.9392 0.70114 0.70572 0.0
C612 C 0.06383 0.47455 0.65565 0.0
C613 C 0.07278 0.49524 0.69647 0.0
C614 C 0.05453 0.50277 0.57039 0.0
C615 C 0.04589 0.48221 0.52873 0.0
N616 N 0.04733 0.45124 0.5195 0.0
N617 N 0.08151 0.53115 0.68507 0.0
C618 C 0.05204 0.46889 0.56773 0.0
C619 C 0.06969 0.51005 0.65109 0.0
N620 N 0.06585 0.45994 0.70249 0.0
N621 N 0.04742 0.51484 0.5349 0.0
H622 H 0.09303 0.53687 0.74312 0.0
H623 H 0.08179 0.54353 0.6516 0.0
H624 H 0.0363 0.50997 0.47607 0.0
H625 H 0.051 0.52876 0.56709 0.0
H626 H 0.0569 0.44344 0.68232 0.0
H627 H 0.07545 0.46394 0.7649 0.0
H628 H 0.05324 0.44206 0.54084 0.0
H629 H 0.03949 0.44695 0.45364 0.0
C630 C 0.55302 0.63247 0.64719 0.0
C631 C 0.56068 0.62938 0.73321 0.0
C632 C 0.58745 0.62432 0.65459 0.0
C633 C 0.57792 0.62511 0.56889 0.0
N634 N 0.54372 0.62016 0.48977 0.0
N635 N 0.57656 0.61163 0.80877 0.0
C636 C 0.55814 0.62606 0.56681 0.0
C637 C 0.57535 0.62209 0.73444 0.0
N638 N 0.54197 0.64237 0.64046 0.0
N639 N 0.60828 0.62629 0.66134 0.0
H640 H 0.56572 0.6069 0.86513 0.0
H641 H 0.58548 0.60452 0.80742 0.0
H642 H 0.61867 0.62929 0.60531 0.0
H643 H 0.61649 0.62742 0.72439 0.0
H644 H 0.53784 0.64619 0.57746 0.0
H645 H 0.53964 0.64917 0.69624 0.0
H646 H 0.5282 0.61931 0.48813 0.0
H647 H 0.54562 0.61355 0.43188 0.0
C648 C 0.43976 0.04067 0.58325 0.0
C649 C 0.42593 0.04587 0.62693 0.0
C650 C 0.43881 0.07559 0.51557 0.0
C651 C 0.45089 0.06907 0.46714 0.0
N652 N 0.46176 0.04467 0.44993 0.0
N653 N 0.41003 0.06651 0.6317 0.0
C654 C 0.45108 0.05142 0.49984 0.0
C655 C 0.42495 0.06296 0.59256 0.0
N656 N 0.44266 0.02594 0.6231 0.0
N657 N 0.44058 0.09384 0.48772 0.0
H658 H 0.39977 0.05769 0.68842 0.0
H659 H 0.40632 0.07695 0.60451 0.0
H660 H 0.44988 0.10305 0.43005 0.0
H661 H 0.43442 0.10096 0.52504 0.0
H662 H 0.45471 0.02327 0.60072 0.0
H663 H 0.43414 0.01732 0.68283 0.0
H664 H 0.45979 0.03008 0.46245 0.0
H665 H 0.47191 0.05333 0.39291 0.0
C666 C 0.0011 0.60627 0.57301 0.0
C667 C 0.0045 0.62537 0.60845 0.0
C668 C 0.98166 0.62549 0.4766 0.0
C669 C 0.97954 0.60718 0.43803 0.0
N670 N 0.98562 0.57915 0.44938 0.0
N671 N 0.99866 0.65358 0.59672 0.0
C672 C 0.98869 0.59721 0.48678 0.0
C673 C 0.9947 0.63492 0.56146 0.0
N674 N 0.00969 0.59679 0.62259 0.0
N675 N 0.97139 0.63405 0.43217 0.0
H676 H 0.00684 0.66026 0.66092 0.0
H677 H 0.99492 0.66325 0.56158 0.0
H678 H 0.96472 0.63027 0.36488 0.0
H679 H 0.96843 0.64443 0.46311 0.0
H680 H 0.0062 0.58176 0.6063 0.0
H681 H 0.02003 0.60375 0.68318 0.0
H682 H 0.99382 0.57226 0.47462 0.0
H683 H 0.97468 0.57088 0.39098 0.0
C684 C 0.39351 0.40684 0.51021 0.0
C685 C 0.41767 0.42224 0.48073 0.0
C686 C 0.42766 0.44691 0.61061 0.0
C687 C 0.40363 0.43128 0.64111 0.0
N688 N 0.36489 0.39479 0.63032 0.0
N689 N 0.4588 0.45496 0.50815 0.0
C690 C 0.38688 0.41078 0.59381 0.0
C691 C 0.43514 0.44162 0.53307 0.0
N692 N 0.37677 0.38862 0.45693 0.0
N693 N 0.44299 0.46713 0.65393 0.0
H694 H 0.46464 0.45163 0.4509 0.0
H695 H 0.47298 0.46826 0.54747 0.0
H696 H 0.4381 0.47151 0.71083 0.0
H697 H 0.45991 0.48021 0.63032 0.0
H698 H 0.35818 0.37849 0.46673 0.0
H699 H 0.38139 0.38409 0.39962 0.0
H700 H 0.35276 0.3787 0.6039 0.0
H701 H 0.35927 0.397 0.69125 0.0
C702 C 0.58381 0.99171 0.67252 0.0
C703 C 0.56091 0.984 0.70458 0.0
C704 C 0.55655 0.00332 0.57911 0.0
C705 C 0.5787 0.00982 0.54373 0.0
N706 N 0.61078 0.00607 0.54551 0.0
N707 N 0.52352 0.97907 0.6812 0.0
C708 C 0.59166 0.00292 0.58736 0.0
C709 C 0.54661 0.98868 0.65527 0.0
N710 N 0.59824 0.98854 0.72414 0.0
N711 N 0.54551 0.01187 0.54202 0.0
H712 H 0.51581 0.96836 0.73685 0.0
H713 H 0.51129 0.98009 0.64318 0.0
H714 H 0.55245 0.02284 0.48694 0.0
H715 H 0.5307 0.00966 0.57031 0.0
H716 H 0.6164 0.99641 0.71096 0.0
H717 H 0.59249 0.97901 0.78357 0.0
H718 H 0.61935 0.99941 0.56966 0.0
H719 H 0.61674 0.01355 0.4818 0.0
C720 C 0.66727 0.76892 0.94387 0.0
C721 C 0.67483 0.78847 0.89581 0.0
C722 C 0.70542 0.81128 0.01709 0.0
C723 C 0.69583 0.79183 0.07007 0.0
N724 N 0.6618 0.75294 0.09281 0.0
N725 N 0.69742 0.82844 0.89614 0.0
C726 C 0.67515 0.77081 0.03616 0.0
C727 C 0.69278 0.80975 0.93542 0.0
N728 N 0.65318 0.74854 0.90134 0.0
N729 N 0.72695 0.83105 0.04299 0.0
H730 H 0.68827 0.82785 0.83672 0.0
H731 H 0.70871 0.84415 0.92695 0.0
H732 H 0.73719 0.83264 0.10064 0.0
H733 H 0.7358 0.84522 0.0022 0.0
H734 H 0.64927 0.73419 0.93202 0.0
H735 H 0.64755 0.7463 0.83269 0.0
H736 H 0.6453 0.73804 0.07199 0.0
H737 H 0.66533 0.75382 0.1629 0.0
C738 C 0.2659 0.96161 0.986 0.0
C739 C 0.25745 0.96369 0.90017 0.0
C740 C 0.23485 0.97372 0.97794 0.0
C741 C 0.24114 0.96926 0.06392 0.0
N742 N 0.2541 0.94914 0.14009 0.0
N743 N 0.22543 0.96221 0.81974 0.0
C744 C 0.25416 0.96028 0.06559 0.0
C745 C 0.23921 0.96672 0.89749 0.0
N746 N 0.2854 0.96146 0.99294 0.0
N747 N 0.22588 0.98546 0.97146 0.0
H748 H 0.2266 0.95518 0.76156 0.0
H749 H 0.21093 0.96291 0.81759 0.0
H750 H 0.22434 0.99274 0.02758 0.0
H751 H 0.22286 0.99025 0.90861 0.0
H752 H 0.29314 0.96183 0.05599 0.0
H753 H 0.29534 0.96343 0.93691 0.0
H754 H 0.26195 0.94103 0.13973 0.0
H755 H 0.24322 0.945 0.19584 0.0
C756 C 0.0993 0.37827 0.92591 0.0
C757 C 0.08873 0.38738 0.88123 0.0
C758 C 0.05877 0.37213 0.00172 0.0
C759 C 0.06784 0.36114 0.04043 0.0
N760 N 0.09371 0.35025 0.02944 0.0
N761 N 0.05508 0.389 0.86715 0.0
C762 C 0.08714 0.36308 0.99923 0.0
C763 C 0.06759 0.38333 0.9167 0.0
N764 N 0.12149 0.38487 0.90078 0.0
N765 N 0.04165 0.37184 0.04612 0.0
H766 H 0.05956 0.39558 0.80154 0.0
H767 H 0.0386 0.38494 0.88651 0.0
H768 H 0.03351 0.36258 0.1051 0.0
H769 H 0.03662 0.38188 0.02785 0.0
H770 H 0.13122 0.38052 0.93666 0.0
H771 H 0.13125 0.39652 0.84937 0.0
H772 H 0.10618 0.34945 0.99668 0.0
H773 H 0.08487 0.33868 0.0818 0.0
C774 C 0.70187 0.9581 0.00615 0.0
C775 C 0.70517 0.97668 0.04629 0.0
C776 C 0.68558 0.97992 0.91129 0.0
C777 C 0.67888 0.95925 0.87835 0.0
N778 N 0.67956 0.92792 0.89473 0.0
N779 N 0.70015 0.00543 0.03994 0.0
C780 C 0.68688 0.94819 0.92555 0.0
C781 C 0.69725 0.9878 0.99913 0.0
N782 N 0.7135 0.95028 0.04453 0.0
N783 N 0.68126 0.99221 0.8578 0.0
H784 H 0.70982 0.01238 0.10191 0.0
H785 H 0.6921 0.01251 0.01478 0.0
H786 H 0.67242 0.98682 0.79367 0.0
H787 H 0.68808 0.00848 0.8735 0.0
H788 H 0.71344 0.93782 0.01528 0.0
H789 H 0.72536 0.958 0.10128 0.0
H790 H 0.68256 0.91786 0.93137 0.0
H791 H 0.66894 0.92037 0.83501 0.0
C792 C 0.08146 0.79388 0.93201 0.0
C793 C 0.06741 0.77278 0.88742 0.0
C794 C 0.03692 0.75727 0.00507 0.0
C795 C 0.05075 0.77847 0.049 0.0
N796 N 0.08303 0.81789 0.04535 0.0
N797 N 0.02918 0.73606 0.86785 0.0
C798 C 0.07208 0.7971 0.00941 0.0
C799 C 0.04431 0.75498 0.91973 0.0
N800 N 0.10404 0.81059 0.90189 0.0
N801 N 0.01743 0.73905 0.04713 0.0
H802 H 0.03395 0.73362 0.80524 0.0
H803 H 0.01111 0.7236 0.88282 0.0
H804 H 0.01091 0.74 0.10838 0.0
H805 H 0.00862 0.72274 0.02446 0.0
H806 H 0.11627 0.82561 0.93678 0.0
H807 H 0.11129 0.80888 0.84464 0.0
H808 H 0.09751 0.83252 0.01581 0.0
H809 H 0.07604 0.82059 0.10057 0.0
C810 C 0.21454 0.33787 0.92634 0.0
C811 C 0.23955 0.35328 0.90645 0.0
C812 C 0.2504 0.34159 0.04291 0.0
C813 C 0.22558 0.32711 0.06573 0.0
N814 N 0.1842 0.31309 0.03667 0.0
N815 N 0.28162 0.37248 0.95197 0.0
C816 C 0.20763 0.32556 0.00918 0.0
C817 C 0.25759 0.35604 0.96695 0.0
N818 N 0.19742 0.33481 0.86505 0.0
N819 N 0.26697 0.34081 0.0921 0.0
H820 H 0.28777 0.3829 0.89532 0.0
H821 H 0.29552 0.37704 0.99915 0.0
H822 H 0.26222 0.32988 0.14641 0.0
H823 H 0.28494 0.34932 0.07422 0.0
H824 H 0.17894 0.32186 0.86879 0.0
H825 H 0.20183 0.3447 0.80723 0.0
H826 H 0.17076 0.31327 0.00435 0.0
H827 H 0.17837 0.3034 0.09557 0.0
C828 C 0.38721 0.16707 0.34944 0.0
C829 C 0.39303 0.15461 0.39925 0.0
C830 C 0.37193 0.12501 0.28224 0.0
C831 C 0.36586 0.13735 0.23259 0.0
N832 N 0.37013 0.1712 0.21038 0.0
N833 N 0.3954 0.12426 0.40742 0.0
C834 C 0.37433 0.15878 0.26357 0.0
C835 C 0.3867 0.1343 0.3637 0.0
N836 N 0.39314 0.18636 0.38636 0.0
N837 N 0.36329 0.10427 0.25198 0.0
H838 H 0.40659 0.13096 0.46636 0.0
H839 H 0.39336 0.11043 0.38213 0.0
H840 H 0.3536 0.0974 0.1901 0.0
H841 H 0.36455 0.09325 0.28983 0.0
H842 H 0.38686 0.1949 0.3603 0.0
H843 H 0.40387 0.19354 0.44605 0.0
H844 H 0.37804 0.18786 0.22315 0.0
H845 H 0.35959 0.16518 0.14981 0.0
C846 C 0.89462 0.33091 0.27 0.0
C847 C 0.89934 0.32388 0.35258 0.0
C848 C 0.91143 0.30516 0.26437 0.0
C849 C 0.90533 0.311 0.18266 0.0
N850 N 0.88142 0.32113 0.11154 0.0
N851 N 0.90179 0.29569 0.4216 0.0
C852 C 0.89375 0.3212 0.18644 0.0
C853 C 0.90437 0.30822 0.348 0.0
N854 N 0.8922 0.34748 0.26965 0.0
N855 N 0.92493 0.29765 0.2634 0.0
H856 H 0.89636 0.29666 0.48511 0.0
H857 H 0.90218 0.28221 0.41594 0.0
H858 H 0.93373 0.29821 0.20621 0.0
H859 H 0.92967 0.29308 0.32191 0.0
H860 H 0.89082 0.35421 0.20925 0.0
H861 H 0.89417 0.35612 0.32831 0.0
H862 H 0.87128 0.32702 0.11364 0.0
H863 H 0.8791 0.31287 0.05092 0.0
C864 C 0.77719 0.73168 0.20267 0.0
C865 C 0.7679 0.72062 0.11669 0.0
C866 C 0.73129 0.68975 0.19314 0.0
C867 C 0.74248 0.69954 0.27979 0.0
N868 N 0.78078 0.7258 0.36222 0.0
N869 N 0.73866 0.68507 0.03884 0.0
C870 C 0.76688 0.71928 0.28339 0.0
C871 C 0.74558 0.69848 0.11379 0.0
N872 N 0.79525 0.75414 0.20839 0.0
N873 N 0.70709 0.67245 0.18562 0.0
H874 H 0.74961 0.68949 0.98317 0.0
H875 H 0.72344 0.66835 0.03759 0.0
H876 H 0.69582 0.66607 0.24139 0.0
H877 H 0.69788 0.66606 0.12257 0.0
H878 H 0.80122 0.76276 0.27067 0.0
H879 H 0.80182 0.76445 0.15131 0.0
H880 H 0.79917 0.73939 0.3649 0.0
H881 H 0.77482 0.71612 0.42111 0.0
C882 C 0.29361 0.24972 0.1762 0.0
C883 C 0.2979 0.26709 0.11937 0.0
C884 C 0.32232 0.29411 0.24333 0.0
C885 C 0.32053 0.27727 0.29549 0.0
N886 N 0.30795 0.23974 0.30539 0.0
N887 N 0.32216 0.30693 0.09178 0.0
C888 C 0.30717 0.25523 0.26013 0.0
C889 C 0.31378 0.28962 0.15085 0.0
N890 N 0.27613 0.22794 0.1513 0.0
N891 N 0.33163 0.31426 0.28238 0.0
H892 H 0.31819 0.30488 0.02172 0.0
H893 H 0.33548 0.32354 0.11057 0.0
H894 H 0.33778 0.3182 0.35049 0.0
H895 H 0.33093 0.32621 0.24974 0.0
H896 H 0.2706 0.2146 0.19423 0.0
H897 H 0.26547 0.22328 0.09127 0.0
H898 H 0.30056 0.22408 0.27818 0.0
H899 H 0.31782 0.24324 0.36676 0.0
C900 C 0.76945 0.1282 0.27422 0.0
C901 C 0.75309 0.13334 0.27653 0.0
C902 C 0.75782 0.14019 0.11118 0.0
C903 C 0.76745 0.12807 0.10727 0.0
N904 N 0.78128 0.10949 0.19001 0.0
N905 N 0.74618 0.15806 0.20603 0.0
C906 C 0.77333 0.12208 0.19013 0.0
C907 C 0.75115 0.14331 0.19722 0.0
N908 N 0.78313 0.13138 0.35036 0.0
N909 N 0.75579 0.14932 0.03348 0.0
H910 H 0.74773 0.1652 0.2687 0.0
H911 H 0.74434 0.16609 0.15219 0.0
H912 H 0.76358 0.15046 0.97233 0.0
H913 H 0.74631 0.15583 0.02822 0.0
H914 H 0.79674 0.12947 0.3501 0.0
H915 H 0.78274 0.13861 0.40973 0.0
H916 H 0.78368 0.10335 0.25019 0.0
H917 H 0.78308 0.1033 0.13059 0.0
C918 C 0.86436 0.6379 0.32852 0.0
C919 C 0.8829 0.63964 0.38122 0.0
C920 C 0.91292 0.6643 0.26717 0.0
C921 C 0.8947 0.66391 0.21761 0.0
N922 N 0.85363 0.65161 0.20073 0.0
N923 N 0.92353 0.65113 0.39805 0.0
C924 C 0.87046 0.65084 0.24768 0.0
C925 C 0.90686 0.65189 0.34953 0.0
N926 N 0.84094 0.62365 0.35597 0.0
N927 N 0.93601 0.67679 0.23575 0.0
H928 H 0.91933 0.64177 0.4575 0.0
H929 H 0.9411 0.65854 0.37813 0.0
H930 H 0.94078 0.68496 0.17309 0.0
H931 H 0.95085 0.67962 0.27144 0.0
H932 H 0.82599 0.62006 0.31814 0.0
H933 H 0.83618 0.61394 0.41462 0.0
H934 H 0.83615 0.64405 0.22222 0.0
H935 H 0.85753 0.661 0.14161 0.0
C936 C 0.01807 0.55481 0.98758 0.0
C937 C 0.03099 0.57426 0.04319 0.0
C938 C 0.05837 0.56615 0.10015 0.0
C939 C 0.04358 0.54536 0.05364 0.0
N940 N 0.00857 0.51882 0.95723 0.0
N941 N 0.06292 0.59869 0.15418 0.0
C942 C 0.02335 0.53947 0.99759 0.0
C943 C 0.05114 0.5801 0.09956 0.0
N944 N 0.00086 0.55109 0.92498 0.0
N945 N 0.07949 0.5726 0.14371 0.0
H946 H 0.05887 0.60986 0.15212 0.0
H947 H 0.07586 0.60253 0.20481 0.0
H948 H 0.08511 0.5626 0.14585 0.0
H949 H 0.09237 0.58842 0.17156 0.0
H950 H 0.99263 0.53853 0.87547 0.0
H951 H 0.99605 0.56166 0.91759 0.0
H952 H 0.99192 0.51243 0.92498 0.0
H953 H 0.01217 0.50733 0.96067 0.0
C954 C 0.46954 0.52058 0.15688 0.0
C955 C 0.4748 0.50816 0.10676 0.0
C956 C 0.51346 0.54257 0.0605 0.0
C957 C 0.50855 0.55498 0.11258 0.0
N958 N 0.48207 0.55704 0.20436 0.0
N959 N 0.50198 0.50626 0.01873 0.0
C960 C 0.4866 0.5443 0.15941 0.0
C961 C 0.4968 0.51888 0.06039 0.0
N962 N 0.44829 0.50953 0.20234 0.0
N963 N 0.53381 0.55355 0.00953 0.0
H964 H 0.49006 0.48887 0.01687 0.0
H965 H 0.5186 0.51269 0.99105 0.0
H966 H 0.54676 0.57085 0.0096 0.0
H967 H 0.53735 0.54583 0.96242 0.0
H968 H 0.44344 0.51709 0.24409 0.0
H969 H 0.43524 0.49225 0.20051 0.0
H970 H 0.46617 0.55085 0.23745 0.0
H971 H 0.49419 0.57443 0.20634 0.0
C972 C 0.51765 0.03085 0.01339 0.0
C973 C 0.51041 0.01177 0.06497 0.0
C974 C 0.4744 0.00713 0.11401 0.0
C975 C 0.4814 0.02595 0.06106 0.0
N976 N 0.50667 0.05329 0.94731 0.0
N977 N 0.48024 0.97925 0.14975 0.0
C978 C 0.5021 0.03705 0.00647 0.0
C979 C 0.48821 0.99911 0.11074 0.0
N980 N 0.53983 0.04354 0.97423 0.0
N981 N 0.45494 0.99732 0.16915 0.0
H982 H 0.49007 0.97302 0.14878 0.0
H983 H 0.4631 0.96806 0.17639 0.0
H984 H 0.44388 0.00224 0.17099 0.0
H985 H 0.45055 0.98521 0.21734 0.0
H986 H 0.54746 0.05909 0.94533 0.0
H987 H 0.55142 0.03918 0.97531 0.0
H988 H 0.51993 0.06036 0.89844 0.0
H989 H 0.49597 0.05863 0.94227 0.0
C990 C 0.71262 0.88707 0.4457 0.0
C991 C 0.69159 0.86505 0.42569 0.0
C992 C 0.66775 0.8786 0.39657 0.0
C993 C 0.68814 0.90018 0.42562 0.0
N994 N 0.72941 0.92515 0.48432 0.0
N995 N 0.64895 0.83921 0.384 0.0
C996 C 0.71051 0.90453 0.45124 0.0
C997 C 0.66909 0.86064 0.40143 0.0
N998 N 0.73461 0.89125 0.45895 0.0
N999 N 0.64738 0.8755 0.36154 0.0
H1000 H 0.64957 0.82586 0.37851 0.0
H1001 H 0.63139 0.83437 0.37891 0.0
H1002 H 0.64572 0.88827 0.35713 0.0
H1003 H 0.63275 0.86078 0.33049 0.0
H1004 H 0.75106 0.90721 0.4631 0.0
H1005 H 0.73669 0.87874 0.45939 0.0
H1006 H 0.74534 0.92885 0.51357 0.0
H1007 H 0.72861 0.93842 0.48835 0.0
C1008 C 0.13916 0.86812 0.49382 0.0
C1009 C 0.13987 0.85229 0.44718 0.0
C1010 C 0.18131 0.88157 0.40098 0.0
C1011 C 0.18123 0.89714 0.45319 0.0
N1012 N 0.16166 0.9056 0.55638 0.0
N1013 N 0.16175 0.84276 0.36481 0.0
C1014 C 0.16056 0.89053 0.50156 0.0
C1015 C 0.16097 0.85869 0.40281 0.0
N1016 N 0.11787 0.86176 0.52891 0.0
N1017 N 0.20069 0.88875 0.34857 0.0
H1018 H 0.14695 0.82587 0.36253 0.0
H1019 H 0.17747 0.84593 0.34095 0.0
H1020 H 0.21639 0.90525 0.34811 0.0
H1021 H 0.20072 0.87877 0.3007 0.0
H1022 H 0.11534 0.87287 0.55506 0.0
H1023 H 0.102 0.84533 0.52651 0.0
H1024 H 0.14825 0.90136 0.6014 0.0
H1025 H 0.17682 0.92234 0.56119 0.0
C1026 C 0.17616 0.36785 0.36866 0.0
C1027 C 0.17133 0.35032 0.42586 0.0
C1028 C 0.13623 0.34565 0.48684 0.0
C1029 C 0.14048 0.36256 0.42698 0.0
N1030 N 0.16177 0.38743 0.30103 0.0
N1031 N 0.14501 0.31998 0.52744 0.0
C1032 C 0.15957 0.37289 0.36454 0.0
C1033 C 0.15078 0.33843 0.48138 0.0
N1034 N 0.1972 0.3804 0.32187 0.0
N1035 N 0.11855 0.33679 0.54988 0.0
H1036 H 0.15535 0.3143 0.52455 0.0
H1037 H 0.12902 0.30923 0.56223 0.0
H1038 H 0.10686 0.34098 0.55352 0.0
H1039 H 0.11638 0.32635 0.60251 0.0
H1040 H 0.20321 0.39506 0.28795 0.0
H1041 H 0.20966 0.37706 0.32177 0.0
H1042 H 0.17338 0.39339 0.24651 0.0
H1043 H 0.15081 0.3925 0.29904 0.0
C1044 C 0.35387 0.22393 0.79792 0.0
C1045 C 0.33098 0.21417 0.75298 0.0
C1046 C 0.32712 0.18066 0.7167 0.0
C1047 C 0.34985 0.1903 0.76262 0.0
N1048 N 0.38644 0.22151 0.83704 0.0
N1049 N 0.2944 0.18291 0.67857 0.0
C1050 C 0.36368 0.21207 0.80061 0.0
C1051 C 0.31723 0.19244 0.7145 0.0
N1052 N 0.36573 0.24421 0.84062 0.0
N1053 N 0.31545 0.16054 0.6729 0.0
H1054 H 0.28683 0.19127 0.67463 0.0
H1055 H 0.28224 0.16634 0.65759 0.0
H1056 H 0.32211 0.1514 0.67353 0.0
H1057 H 0.3 0.15338 0.63077 0.0
H1058 H 0.38133 0.25152 0.88199 0.0
H1059 H 0.35923 0.25348 0.83931 0.0
H1060 H 0.39862 0.23802 0.85858 0.0
H1061 H 0.39396 0.21309 0.841 0.0
C1062 C 0.8124 0.23528 0.73261 0.0
C1063 C 0.83692 0.24653 0.71107 0.0
C1064 C 0.82909 0.21074 0.68316 0.0
C1065 C 0.80531 0.19955 0.71461 0.0
N1066 N 0.77489 0.20078 0.78038 0.0
N1067 N 0.86969 0.24537 0.67371 0.0
C1068 C 0.79706 0.21172 0.74217 0.0
C1069 C 0.84557 0.23437 0.68813 0.0
N1070 N 0.80378 0.24718 0.74299 0.0
N1071 N 0.83568 0.19879 0.64593 0.0
H1072 H 0.88229 0.26267 0.67093 0.0
H1073 H 0.87758 0.23737 0.66967 0.0
H1074 H 0.82421 0.1814 0.64257 0.0
H1075 H 0.85179 0.20605 0.61217 0.0
H1076 H 0.78549 0.23983 0.74954 0.0
H1077 H 0.81474 0.2645 0.73693 0.0
H1078 H 0.76881 0.20887 0.81001 0.0
H1079 H 0.76325 0.18355 0.78955 0.0
C1080 C 0.78996 0.66266 0.73532 0.0
C1081 C 0.80062 0.68507 0.71101 0.0
C1082 C 0.84016 0.69298 0.69758 0.0
C1083 C 0.82945 0.67054 0.72168 0.0
N1084 N 0.79374 0.63287 0.74406 0.0
N1085 N 0.83437 0.72057 0.65409 0.0
C1086 C 0.80415 0.65498 0.73397 0.0
C1087 C 0.82532 0.69995 0.68765 0.0
N1088 N 0.76664 0.64907 0.76425 0.0
N1089 N 0.86463 0.7077 0.68577 0.0
H1090 H 0.82401 0.72623 0.64654 0.0
H1091 H 0.85154 0.73155 0.62752 0.0
H1092 H 0.87574 0.70282 0.68412 0.0
H1093 H 0.87421 0.72487 0.68101 0.0
H1094 H 0.75868 0.63341 0.79253 0.0
H1095 H 0.75564 0.65405 0.76654 0.0
H1096 H 0.77507 0.62031 0.74313 0.0
H1097 H 0.80374 0.6268 0.74568 0.0
C1098 C 0.09482 0.45454 0.33557 0.0
C1099 C 0.09348 0.43641 0.3 0.0
C1100 C 0.08683 0.44514 0.14455 0.0
C1101 C 0.08701 0.46244 0.1808 0.0
N1102 N 0.102 0.48956 0.30055 0.0
N1103 N 0.10039 0.42261 0.16693 0.0
C1104 C 0.09475 0.46915 0.27314 0.0
C1105 C 0.09352 0.43441 0.20306 0.0
N1106 N 0.09466 0.45729 0.42747 0.0
N1107 N 0.07905 0.43801 0.05633 0.0
H1108 H 0.10722 0.41602 0.20764 0.0
H1109 H 0.10221 0.42185 0.09698 0.0
H1110 H 0.07435 0.44558 0.01061 0.0
H1111 H 0.07595 0.4237 0.03046 0.0
H1112 H 0.0934 0.46914 0.45483 0.0
H1113 H 0.09404 0.44695 0.47682 0.0
H1114 H 0.10984 0.49635 0.365 0.0
H1115 H 0.10279 0.50062 0.25429 0.0
C1116 C 0.60806 0.72618 0.28024 0.0
C1117 C 0.63051 0.73427 0.32521 0.0
C1118 C 0.63197 0.70814 0.23788 0.0
C1119 C 0.608 0.69747 0.2033 0.0
N1120 N 0.57192 0.69522 0.19799 0.0
N1121 N 0.66039 0.72862 0.36358 0.0
C1122 C 0.59557 0.70619 0.22587 0.0
C1123 C 0.64115 0.72364 0.30999 0.0
N1124 N 0.59908 0.7378 0.28759 0.0
N1125 N 0.64645 0.7042 0.19833 0.0
H1126 H 0.66752 0.73982 0.41839 0.0
H1127 H 0.66747 0.71988 0.35919 0.0
H1128 H 0.64078 0.69447 0.13918 0.0
H1129 H 0.66477 0.7129 0.21652 0.0
H1130 H 0.58415 0.73408 0.24889 0.0
H1131 H 0.60757 0.75199 0.32896 0.0
H1132 H 0.5613 0.69966 0.21953 0.0
H1133 H 0.56256 0.68086 0.15743 0.0
C1134 C 0.34375 0.98661 0.20894 0.0
C1135 C 0.36177 0.01024 0.21117 0.0
C1136 C 0.34386 0.01181 0.34967 0.0
C1137 C 0.32377 0.98926 0.33707 0.0
N1138 N 0.30332 0.95493 0.25229 0.0
N1139 N 0.37476 0.04569 0.27509 0.0
C1140 C 0.32331 0.97655 0.26578 0.0
C1141 C 0.36079 0.02295 0.27961 0.0
N1142 N 0.34664 0.97364 0.15681 0.0
N1143 N 0.34657 0.02283 0.42801 0.0
H1144 H 0.38638 0.05504 0.22249 0.0
H1145 H 0.37266 0.05519 0.31808 0.0
H1146 H 0.33425 0.01522 0.48049 0.0
H1147 H 0.36229 0.03873 0.44479 0.0
H1148 H 0.33513 0.95628 0.15914 0.0
H1149 H 0.36189 0.98006 0.11848 0.0
H1150 H 0.30072 0.94545 0.19566 0.0
H1151 H 0.28873 0.94689 0.29593 0.0
C1152 C 0.39956 0.08786 0.97608 0.0
C1153 C 0.42455 0.09847 0.99208 0.0
C1154 C 0.43396 0.13046 0.90147 0.0
C1155 C 0.40889 0.11819 0.877 0.0
N1156 N 0.36939 0.08197 0.86837 0.0
N1157 N 0.46604 0.12884 0.96087 0.0
C1158 C 0.39223 0.0959 0.90735 0.0
C1159 C 0.44203 0.11958 0.95234 0.0
N1160 N 0.38259 0.06977 0.02633 0.0
N1161 N 0.4498 0.1524 0.87856 0.0
H1162 H 0.47223 0.12142 0.99951 0.0
H1163 H 0.47946 0.14307 0.92575 0.0
H1164 H 0.44438 0.16053 0.84061 0.0
H1165 H 0.46786 0.16273 0.90183 0.0
H1166 H 0.36426 0.06288 0.02338 0.0
H1167 H 0.38722 0.06311 0.07719 0.0
H1168 H 0.35751 0.06497 0.88245 0.0
H1169 H 0.36331 0.08677 0.8147 0.0
C1170 C 0.9646 0.41703 0.92226 0.0
C1171 C 0.98668 0.42146 0.95452 0.0
C1172 C 0.98009 0.39358 0.8481 0.0
C1173 C 0.95655 0.38686 0.82497 0.0
N1174 N 0.92521 0.39079 0.84538 0.0
N1175 N 0.01271 0.41048 0.96236 0.0
C1176 C 0.94846 0.39828 0.86309 0.0
C1177 C 0.9936 0.40869 0.92143 0.0
N1178 N 0.95943 0.43105 0.94568 0.0
N1179 N 0.98954 0.38542 0.79936 0.0
H1180 H 0.02257 0.42084 0.01882 0.0
H1181 H 0.01706 0.39997 0.94679 0.0
H1182 H 0.98023 0.37465 0.74348 0.0
H1183 H 0.00742 0.39115 0.80804 0.0
H1184 H 0.94494 0.43009 0.91659 0.0
H1185 H 0.97063 0.44461 0.98995 0.0
H1186 H 0.91736 0.39684 0.87893 0.0
H1187 H 0.91339 0.37763 0.80011 0.0
C1188 C 0.68022 0.68341 0.93426 0.0
C1189 C 0.68099 0.67014 0.8692 0.0
C1190 C 0.64328 0.63705 0.93103 0.0
C1191 C 0.64461 0.65052 0.00125 0.0
N1192 N 0.66952 0.68476 0.08713 0.0
N1193 N 0.66511 0.63324 0.81714 0.0
C1194 C 0.66485 0.67311 0.0087 0.0
C1195 C 0.66299 0.64655 0.87041 0.0
N1196 N 0.69313 0.70585 0.92225 0.0
N1197 N 0.62327 0.61529 0.9226 0.0
H1198 H 0.67946 0.63952 0.77375 0.0
H1199 H 0.65373 0.61591 0.82161 0.0
H1200 H 0.6093 0.6078 0.96896 0.0
H1201 H 0.62006 0.60512 0.86774 0.0
H1202 H 0.69165 0.71586 0.96475 0.0
H1203 H 0.70259 0.71371 0.86309 0.0
H1204 H 0.68521 0.70108 0.09767 0.0
H1205 H 0.65927 0.67707 0.14508 0.0
C1206 C 0.94304 0.63298 0.00912 0.0
C1207 C 0.94091 0.61411 0.98365 0.0
C1208 C 0.91342 0.60829 0.8561 0.0
C1209 C 0.92077 0.6303 0.87025 0.0
N1210 N 0.95193 0.66618 0.94383 0.0
N1211 N 0.92446 0.58353 0.87891 0.0
C1212 C 0.93816 0.64344 0.94256 0.0
C1213 C 0.92616 0.6016 0.90565 0.0
N1214 N 0.95094 0.64163 0.09517 0.0
N1215 N 0.89412 0.59359 0.7991 0.0
H1216 H 0.93265 0.57786 0.91713 0.0
H1217 H 0.9161 0.57513 0.8172 0.0
H1218 H 0.88345 0.5972 0.76592 0.0
H1219 H 0.88721 0.57697 0.79252 0.0
H1220 H 0.95188 0.6552 0.11706 0.0
H1221 H 0.95355 0.63342 0.14619 0.0
H1222 H 0.96539 0.67593 0.99428 0.0
H1223 H 0.95275 0.67532 0.88793 0.0
C1224 C 0.35988 0.36021 0.92065 0.0
C1225 C 0.37574 0.36608 0.99838 0.0
C1226 C 0.37406 0.33344 0.96244 0.0
C1227 C 0.36246 0.33103 0.87643 0.0
N1228 N 0.34978 0.34628 0.76581 0.0
N1229 N 0.39962 0.35795 0.08857 0.0
C1230 C 0.35766 0.3461 0.85236 0.0
C1231 C 0.38337 0.35262 0.01851 0.0
N1232 N 0.34524 0.36655 0.91527 0.0
N1233 N 0.37573 0.31718 0.9915 0.0
H1234 H 0.40699 0.37135 0.13294 0.0
H1235 H 0.40728 0.34978 0.09885 0.0
H1236 H 0.37045 0.30371 0.95001 0.0
H1237 H 0.38086 0.31637 0.05835 0.0
H1238 H 0.33282 0.36197 0.86123 0.0
H1239 H 0.34293 0.3735 0.97074 0.0
H1240 H 0.34774 0.35827 0.74479 0.0
H1241 H 0.34759 0.33601 0.71329 0.0
C1242 C 0.67909 0.09323 0.9355 0.0
C1243 C 0.67523 0.08784 0.84058 0.0
C1244 C 0.63239 0.05916 0.86938 0.0
C1245 C 0.63792 0.06018 0.965 0.0
N1246 N 0.66856 0.07831 0.088 0.0
N1247 N 0.64725 0.06332 0.71815 0.0
C1248 C 0.66174 0.07749 0.99847 0.0
C1249 C 0.65154 0.07037 0.80708 0.0
N1250 N 0.69942 0.1134 0.96531 0.0
N1251 N 0.60888 0.04782 0.83807 0.0
H1252 H 0.66061 0.07052 0.66972 0.0
H1253 H 0.6306 0.04897 0.69462 0.0
H1254 H 0.59449 0.04092 0.8821 0.0
H1255 H 0.60418 0.04781 0.76952 0.0
H1256 H 0.70217 0.11882 0.03294 0.0
H1257 H 0.71192 0.12558 0.91996 0.0
H1258 H 0.68651 0.08947 0.11203 0.0
H1259 H 0.65705 0.0667 0.13658 0.0
C1260 C 0.61562 0.94934 0.2099 0.0
C1261 C 0.61605 0.95129 0.3068 0.0
C1262 C 0.58611 0.95808 0.28615 0.0
C1263 C 0.59196 0.96322 0.19293 0.0
N1264 N 0.61297 0.96343 0.06435 0.0
N1265 N 0.60085 0.95808 0.43784 0.0
C1266 C 0.60649 0.95831 0.15341 0.0
C1267 C 0.60066 0.95533 0.34571 0.0
N1268 N 0.62403 0.93898 0.17219 0.0
N1269 N 0.56637 0.95556 0.31705 0.0
H1270 H 0.61128 0.95664 0.48533 0.0
H1271 H 0.59167 0.96336 0.46669 0.0
H1272 H 0.5547 0.95608 0.27233 0.0
H1273 H 0.56004 0.95012 0.38286 0.0
H1274 H 0.62259 0.93573 0.10228 0.0
H1275 H 0.62979 0.93138 0.21227 0.0
H1276 H 0.62589 0.96253 0.0363 0.0
H1277 H 0.60677 0.96999 0.02009 0.0
C1278 C 0.06694 0.70037 0.20558 0.0
C1279 C 0.04144 0.68335 0.19523 0.0
C1280 C 0.03536 0.69835 0.3283 0.0
C1281 C 0.05989 0.7172 0.32977 0.0
N1282 N 0.09926 0.73755 0.26492 0.0
N1283 N 0.00148 0.6713 0.2303 0.0
C1284 C 0.07584 0.71864 0.26692 0.0
C1285 C 0.02568 0.6838 0.25226 0.0
N1286 N 0.08257 0.69882 0.15992 0.0
N1287 N 0.02111 0.69457 0.39901 0.0
H1288 H 0.99426 0.66232 0.16919 0.0
H1289 H 0.9895 0.67234 0.26583 0.0
H1290 H 0.02801 0.70479 0.45714 0.0
H1291 H 0.00334 0.68009 0.40355 0.0
H1292 H 0.10131 0.70966 0.17159 0.0
H1293 H 0.0767 0.68566 0.11553 0.0
H1294 H 0.11113 0.74066 0.21445 0.0
H1295 H 0.10633 0.75055 0.31193 0.0
C1296 C 0.34927 0.42435 0.3149 0.0
C1297 C 0.3448 0.42258 0.21858 0.0
C1298 C 0.30201 0.40471 0.24557 0.0
C1299 C 0.30573 0.40078 0.33812 0.0
N1300 N 0.33353 0.40704 0.46108 0.0
N1301 N 0.31896 0.41952 0.09551 0.0
C1302 C 0.32959 0.41115 0.3738 0.0
C1303 C 0.32174 0.41544 0.1844 0.0
N1304 N 0.37249 0.43887 0.3496 0.0
N1305 N 0.27948 0.3979 0.21714 0.0
H1306 H 0.33363 0.43016 0.05424 0.0
H1307 H 0.30255 0.41394 0.06372 0.0
H1308 H 0.26547 0.39165 0.26247 0.0
H1309 H 0.27459 0.399 0.15055 0.0
H1310 H 0.37679 0.44203 0.41938 0.0
H1311 H 0.38704 0.44969 0.30757 0.0
H1312 H 0.35042 0.41208 0.48574 0.0
H1313 H 0.31978 0.39725 0.50706 0.0
C1314 C 0.71444 0.76184 0.62563 0.0
C1315 C 0.7266 0.77699 0.55155 0.0
C1316 C 0.7602 0.77488 0.58146 0.0
C1317 C 0.74863 0.76193 0.66038 0.0
N1318 N 0.72025 0.75213 0.77624 0.0
N1319 N 0.7652 0.80267 0.47818 0.0
C1320 C 0.7279 0.75895 0.68946 0.0
C1321 C 0.75081 0.78503 0.5347 0.0
N1322 N 0.68976 0.74847 0.63147 0.0
N1323 N 0.77997 0.77734 0.55102 0.0
H1324 H 0.76006 0.81185 0.44874 0.0
H1325 H 0.78339 0.80983 0.46949 0.0
H1326 H 0.78777 0.77104 0.5872 0.0
H1327 H 0.78756 0.7845 0.48822 0.0
H1328 H 0.68069 0.73665 0.68292 0.0
H1329 H 0.6782 0.74648 0.57837 0.0
H1330 H 0.70552 0.75069 0.80131 0.0
H1331 H 0.7306 0.75078 0.82504 0.0
C1332 C 0.27562 0.04013 0.59423 0.0
C1333 C 0.28766 0.03612 0.53175 0.0
C1334 C 0.3268 0.0677 0.59432 0.0
C1335 C 0.31512 0.07327 0.65229 0.0
N1336 N 0.278 0.06722 0.69036 0.0
N1337 N 0.32408 0.0497 0.45425 0.0
C1338 C 0.28935 0.06018 0.64763 0.0
C1339 C 0.31304 0.05129 0.52541 0.0
N1340 N 0.25123 0.02457 0.60404 0.0
N1341 N 0.35075 0.07685 0.60838 0.0
H1342 H 0.31433 0.03766 0.40265 0.0
H1343 H 0.34244 0.0617 0.44155 0.0
H1344 H 0.36161 0.08776 0.66185 0.0
H1345 H 0.35916 0.07152 0.5734 0.0
H1346 H 0.24188 0.02527 0.65598 0.0
H1347 H 0.24067 0.01028 0.5629 0.0
H1348 H 0.25948 0.0593 0.68202 0.0
H1349 H 0.28735 0.08216 0.72697 0.0
C1350 C 0.01488 0.33917 0.63366 0.0
C1351 C 0.01361 0.34043 0.53659 0.0
C1352 C 0.96971 0.31832 0.54835 0.0
C1353 C 0.97253 0.32406 0.64169 0.0
N1354 N 0.99904 0.33992 0.77664 0.0
N1355 N 0.98748 0.33081 0.40109 0.0
C1356 C 0.99544 0.3343 0.68613 0.0
C1357 C 0.99033 0.3295 0.49312 0.0
N1358 N 0.03389 0.34108 0.6748 0.0
N1359 N 0.94737 0.30156 0.51324 0.0
H1360 H 0.00176 0.33997 0.35685 0.0
H1361 H 0.97062 0.32439 0.3704 0.0
H1362 H 0.93196 0.29295 0.55284 0.0
H1363 H 0.94544 0.29414 0.45098 0.0
H1364 H 0.03505 0.3389 0.7448 0.0
H1365 H 0.04606 0.3411 0.63561 0.0
H1366 H 0.01605 0.34867 0.80951 0.0
H1367 H 0.98547 0.33697 0.81763 0.0
C1368 C 0.24802 0.27036 0.60033 0.0
C1369 C 0.26676 0.28194 0.66867 0.0
C1370 C 0.27602 0.31701 0.61823 0.0
C1371 C 0.25562 0.30558 0.55593 0.0
N1372 N 0.21861 0.27007 0.50504 0.0
N1373 N 0.29285 0.31495 0.76138 0.0
C1374 C 0.24048 0.2818 0.55162 0.0
C1375 C 0.27853 0.30476 0.68448 0.0
N1376 N 0.23783 0.24867 0.58076 0.0
N1377 N 0.2941 0.3394 0.61025 0.0
H1378 H 0.29524 0.30633 0.81108 0.0
H1379 H 0.29989 0.33115 0.77969 0.0
H1380 H 0.29485 0.34876 0.55537 0.0
H1381 H 0.30996 0.34796 0.65113 0.0
H1382 H 0.22602 0.24009 0.52468 0.0
H1383 H 0.24239 0.23978 0.61824 0.0
H1384 H 0.2062 0.25273 0.50667 0.0
H1385 H 0.21176 0.27758 0.47257 0.0
C1386 C 0.70531 0.04386 0.6102 0.0
C1387 C 0.72997 0.0592 0.6399 0.0
C1388 C 0.73886 0.03655 0.56207 0.0
C1389 C 0.71497 0.02327 0.52262 0.0
N1390 N 0.67745 0.01792 0.49213 0.0
N1391 N 0.77114 0.0717 0.63596 0.0
C1392 C 0.69886 0.02813 0.54137 0.0
C1393 C 0.74709 0.05598 0.61401 0.0
N1394 N 0.6879 0.04399 0.64958 0.0
N1395 N 0.75333 0.03027 0.55246 0.0
H1396 H 0.77766 0.08587 0.67476 0.0
H1397 H 0.78469 0.07135 0.61081 0.0
H1398 H 0.74796 0.01645 0.51335 0.0
H1399 H 0.76989 0.03788 0.58796 0.0
H1400 H 0.66939 0.03191 0.6356 0.0
H1401 H 0.6918 0.05462 0.70384 0.0
H1402 H 0.66607 0.02242 0.49758 0.0
H1403 H 0.67238 0.0067 0.43883 0.0
C1404 C 0.97192 0.73928 0.63772 0.0
C1405 C 0.96223 0.71683 0.65707 0.0
C1406 C 0.98631 0.71796 0.53678 0.0
C1407 C 0.99855 0.741 0.52565 0.0
N1408 N 0.00525 0.77467 0.57336 0.0
N1409 N 0.96675 0.68777 0.64413 0.0
C1410 C 0.992 0.75205 0.5784 0.0
C1411 C 0.97151 0.70712 0.61245 0.0
N1412 N 0.96162 0.74814 0.67304 0.0
N1413 N 0.98878 0.70636 0.47436 0.0
H1414 H 0.95725 0.68003 0.70361 0.0
H1415 H 0.97466 0.68099 0.6176 0.0
H1416 H 0.99885 0.71391 0.41584 0.0
H1417 H 0.97859 0.68904 0.47565 0.0
H1418 H 0.96643 0.76364 0.65393 0.0
H1419 H 0.94716 0.73932 0.71705 0.0
H1420 H 0.00304 0.78396 0.61717 0.0
H1421 H 0.01935 0.78414 0.52806 0.0
loop_
_geom_bond_atom_site_label_1
_geom_bond_atom_site_label_2
_geom_bond_distance
_geom_bond_site_symmetry_2
_ccdc_geom_bond_type
Co0 O3 1.970 1_556 S
Co0 N17 1.989 1_556 S
Co0 O25 1.967 . S
Co0 O32 1.920 . S
Co1 O4 1.966 . S
Co1 N10 2.022 . S
Co1 N18 1.993 . S
Co1 O26 1.941 . S
C2 O3 1.258 . S
C2 O4 1.263 . S
O3 Co0 1.970 1_554 S
O3 C2 1.258 . S
O4 Co1 1.966 . S
O4 C2 1.263 . S
C5 O6 1.235 . S
C5 O32 1.289 . S
O6 C5 1.235 . S
C7 C9 1.400 . S
C7 N10 1.351 . S
C7 C12 1.501 . S
C8 C9 1.387 . S
C8 N11 1.341 . S
C9 C7 1.400 . S
C9 C8 1.387 . S
N10 Co1 2.022 . S
N10 C7 1.351 . S
N10 N11 1.365 . S
N11 C8 1.341 . S
N11 N10 1.365 . S
N11 H31 0.863 . S
C12 C7 1.501 . S
C12 H13 0.961 . S
C12 H14 0.961 . S
C12 H15 0.960 . S
H13 C12 0.961 . S
H14 C12 0.961 . S
H15 C12 0.960 . S
C16 N17 1.342 1_556 S
C16 C20 1.401 1_556 S
C16 C21 1.499 . S
N17 Co0 1.989 1_554 S
N17 C16 1.342 1_554 S
N17 N18 1.388 . S
N18 Co1 1.993 . S
N18 N17 1.388 . S
N18 C19 1.346 . S
C19 N18 1.346 . S
C19 C20 1.396 . S
C19 C29 1.510 . S
C20 C16 1.401 1_554 S
C20 C19 1.396 . S
C21 C16 1.499 . S
C21 H22 0.959 . S
C21 H23 0.960 . S
C21 H24 0.961 . S
H22 C21 0.959 . S
H23 C21 0.960 . S
H24 C21 0.961 . S
O25 Co0 1.967 . S
O25 C33 1.258 1_556 S
O26 Co1 1.941 . S
O26 C33 1.266 . S
H27 C29 0.959 . S
H28 C29 0.961 . S
C29 C19 1.510 . S
C29 H27 0.959 . S
C29 H28 0.961 . S
C29 H30 0.960 . S
H30 C29 0.960 . S
H31 N11 0.863 . S
O32 Co0 1.920 . S
O32 C5 1.289 . S
C33 O25 1.258 1_554 S
C33 O26 1.266 . S
Co34 O37 1.970 1_556 S
Co34 N51 1.989 1_556 S
Co34 O59 1.967 . S
Co34 O66 1.920 . S
Co35 O38 1.966 . S
Co35 N44 2.022 . S
Co35 N52 1.993 . S
Co35 O60 1.941 . S
C36 O37 1.258 . S
C36 O38 1.263 . S
O37 Co34 1.970 1_554 S
O37 C36 1.258 . S
O38 Co35 1.966 . S
O38 C36 1.263 . S
C39 O40 1.235 . S
C39 O66 1.289 . S
O40 C39 1.235 . S
C41 C43 1.400 . S
C41 N44 1.351 . S
C41 C46 1.501 . S
C42 C43 1.387 . S
C42 N45 1.341 . S
C43 C41 1.400 . S
C43 C42 1.387 . S
N44 Co35 2.022 . S
N44 C41 1.351 . S
N44 N45 1.365 . S
N45 C42 1.341 . S
N45 N44 1.365 . S
N45 H65 0.862 . S
C46 C41 1.501 . S
C46 H47 0.961 . S
C46 H48 0.961 . S
C46 H49 0.960 . S
H47 C46 0.961 . S
H48 C46 0.961 . S
H49 C46 0.960 . S
C50 N51 1.342 . S
C50 C54 1.401 . S
C50 C55 1.499 1_554 S
N51 Co34 1.989 1_554 S
N51 C50 1.342 . S
N51 N52 1.388 . S
N52 Co35 1.993 . S
N52 N51 1.388 . S
N52 C53 1.346 . S
C53 N52 1.346 . S
C53 C54 1.396 . S
C53 C63 1.510 . S
C54 C50 1.401 . S
C54 C53 1.396 . S
C55 C50 1.499 1_556 S
C55 H56 0.959 . S
C55 H57 0.960 . S
C55 H58 0.961 . S
H56 C55 0.959 . S
H57 C55 0.960 . S
H58 C55 0.961 . S
O59 Co34 1.967 . S
O59 C67 1.258 1_556 S
O60 Co35 1.941 . S
O60 C67 1.266 . S
H61 C63 0.959 . S
H62 C63 0.961 . S
C63 C53 1.510 . S
C63 H61 0.959 . S
C63 H62 0.961 . S
C63 H64 0.960 . S
H64 C63 0.960 . S
H65 N45 0.862 . S
O66 Co34 1.920 . S
O66 C39 1.289 . S
C67 O59 1.258 1_554 S
C67 O60 1.266 . S
Co68 O71 1.970 . S
Co68 N85 1.989 . S
Co68 O93 1.967 . S
Co68 O100 1.920 . S
Co69 O72 1.966 . S
Co69 N78 2.022 . S
Co69 N86 1.993 1_556 S
Co69 O94 1.941 1_556 S
C70 O71 1.258 . S
C70 O72 1.263 1_554 S
O71 Co68 1.970 . S
O71 C70 1.258 . S
O72 Co69 1.966 . S
O72 C70 1.263 1_556 S
C73 O74 1.235 . S
C73 O100 1.289 . S
O74 C73 1.235 . S
C75 C77 1.400 . S
C75 N78 1.351 . S
C75 C80 1.501 . S
C76 C77 1.387 . S
C76 N79 1.341 . S
C77 C75 1.400 . S
C77 C76 1.387 . S
N78 Co69 2.022 . S
N78 C75 1.351 . S
N78 N79 1.365 . S
N79 C76 1.341 . S
N79 N78 1.365 . S
N79 H99 0.870 . S
C80 C75 1.501 . S
C80 H81 0.961 . S
C80 H82 0.961 . S
C80 H83 0.960 . S
H81 C80 0.961 . S
H82 C80 0.961 . S
H83 C80 0.960 . S
C84 N85 1.342 . S
C84 C88 1.401 . S
C84 C89 1.499 . S
N85 Co68 1.989 . S
N85 C84 1.342 . S
N85 N86 1.388 . S
N86 Co69 1.993 1_554 S
N86 N85 1.388 . S
N86 C87 1.346 . S
C87 N86 1.346 . S
C87 C88 1.396 . S
C87 C97 1.510 1_554 S
C88 C84 1.401 . S
C88 C87 1.396 . S
C89 C84 1.499 . S
C89 H90 0.959 . S
C89 H91 0.960 . S
C89 H92 0.961 . S
H90 C89 0.959 . S
H91 C89 0.960 . S
H92 C89 0.961 . S
O93 Co68 1.967 . S
O93 C101 1.258 . S
O94 Co69 1.941 1_554 S
O94 C101 1.266 . S
H95 C97 0.959 . S
H96 C97 0.961 . S
C97 C87 1.510 1_556 S
C97 H95 0.959 . S
C97 H96 0.961 . S
C97 H98 0.960 . S
H98 C97 0.960 . S
H99 N79 0.870 . S
O100 Co68 1.920 . S
O100 C73 1.289 . S
C101 O93 1.258 . S
C101 O94 1.266 . S
Co102 O105 1.970 . S
Co102 N119 1.989 1_655 S
Co102 O127 1.967 1_655 S
Co102 O134 1.920 . S
Co103 O106 1.966 1_455 S
Co103 N112 2.022 . S
Co103 N120 1.993 1_556 S
Co103 O128 1.941 1_556 S
C104 O105 1.258 . S
C104 O106 1.263 1_554 S
O105 Co102 1.970 . S
O105 C104 1.258 . S
O106 Co103 1.966 1_655 S
O106 C104 1.263 1_556 S
C107 O108 1.235 . S
C107 O134 1.289 . S
O108 C107 1.235 . S
C109 C111 1.400 . S
C109 N112 1.351 . S
C109 C114 1.501 1_455 S
C110 C111 1.387 . S
C110 N113 1.341 . S
C111 C109 1.400 . S
C111 C110 1.387 . S
N112 Co103 2.022 . S
N112 C109 1.351 . S
N112 N113 1.365 . S
N113 C110 1.341 . S
N113 N112 1.365 . S
N113 H133 0.862 . S
C114 C109 1.501 1_655 S
C114 H115 0.961 . S
C114 H116 0.961 . S
C114 H117 0.960 . S
H115 C114 0.961 . S
H116 C114 0.961 . S
H117 C114 0.960 . S
C118 N119 1.342 . S
C118 C122 1.401 . S
C118 C123 1.499 . S
N119 Co102 1.989 1_455 S
N119 C118 1.342 . S
N119 N120 1.388 . S
N120 Co103 1.993 1_554 S
N120 N119 1.388 . S
N120 C121 1.346 1_554 S
C121 N120 1.346 1_556 S
C121 C122 1.396 1_556 S
C121 C131 1.510 . S
C122 C118 1.401 . S
C122 C121 1.396 1_554 S
C123 C118 1.499 . S
C123 H124 0.959 . S
C123 H125 0.960 1_455 S
C123 H126 0.961 . S
H124 C123 0.959 . S
H125 C123 0.960 1_655 S
H126 C123 0.961 . S
O127 Co102 1.967 1_455 S
O127 C135 1.258 . S
O128 Co103 1.941 1_554 S
O128 C135 1.266 . S
H129 C131 0.959 . S
H130 C131 0.961 . S
C131 C121 1.510 . S
C131 H129 0.959 . S
C131 H130 0.961 . S
C131 H132 0.960 . S
H132 C131 0.960 . S
H133 N113 0.862 . S
O134 Co102 1.920 . S
O134 C107 1.289 . S
C135 O127 1.258 . S
C135 O128 1.266 . S
Co136 O139 1.970 . S
Co136 N153 1.989 . S
Co136 O161 1.967 . S
Co136 O168 1.920 . S
Co137 O140 1.966 . S
Co137 N146 2.022 1_554 S
Co137 N154 1.993 . S
Co137 O162 1.941 . S
C138 O139 1.258 . S
C138 O140 1.263 . S
O139 Co136 1.970 . S
O139 C138 1.258 . S
O140 Co137 1.966 . S
O140 C138 1.263 . S
C141 O142 1.235 . S
C141 O168 1.289 . S
O142 C141 1.235 . S
C143 C145 1.400 . S
C143 N146 1.351 . S
C143 C148 1.501 . S
C144 C145 1.387 . S
C144 N147 1.341 . S
C145 C143 1.400 . S
C145 C144 1.387 . S
N146 Co137 2.022 1_556 S
N146 C143 1.351 . S
N146 N147 1.365 . S
N147 C144 1.341 . S
N147 N146 1.365 . S
N147 H167 0.862 . S
C148 C143 1.501 . S
C148 H149 0.961 . S
C148 H150 0.961 . S
C148 H151 0.960 . S
H149 C148 0.961 . S
H150 C148 0.961 . S
H151 C148 0.960 . S
C152 N153 1.342 . S
C152 C156 1.401 . S
C152 C157 1.499 . S
N153 Co136 1.989 . S
N153 C152 1.342 . S
N153 N154 1.388 . S
N154 Co137 1.993 . S
N154 N153 1.388 . S
N154 C155 1.346 . S
C155 N154 1.346 . S
C155 C156 1.396 . S
C155 C165 1.510 1_554 S
C156 C152 1.401 . S
C156 C155 1.396 . S
C157 C152 1.499 . S
C157 H158 0.959 . S
C157 H159 0.960 . S
C157 H160 0.961 . S
H158 C157 0.959 . S
H159 C157 0.960 . S
H160 C157 0.961 . S
O161 Co136 1.967 . S
O161 C169 1.258 . S
O162 Co137 1.941 . S
O162 C169 1.266 . S
H163 C165 0.959 . S
H164 C165 0.961 . S
C165 C155 1.510 1_556 S
C165 H163 0.959 . S
C165 H164 0.961 . S
C165 H166 0.960 . S
H166 C165 0.960 . S
H167 N147 0.862 . S
O168 Co136 1.920 . S
O168 C141 1.289 . S
C169 O161 1.258 . S
C169 O162 1.266 . S
Co170 O173 1.970 1_556 S
Co170 N187 1.992 1_566 S
Co170 O195 1.967 1_565 S
Co170 O202 1.920 . S
Co171 O174 1.966 1_545 S
Co171 N180 2.022 . S
Co171 N188 1.993 . S
Co171 O196 1.941 . S
C172 O173 1.258 . S
C172 O174 1.263 . S
O173 Co170 1.970 1_554 S
O173 C172 1.258 . S
O174 Co171 1.966 1_565 S
O174 C172 1.263 . S
C175 O176 1.235 . S
C175 O202 1.289 . S
O176 C175 1.235 . S
C177 C179 1.400 . S
C177 N180 1.351 . S
C177 C182 1.501 1_545 S
C178 C179 1.387 . S
C178 N181 1.341 . S
C179 C177 1.400 . S
C179 C178 1.387 . S
N180 Co171 2.022 . S
N180 C177 1.351 . S
N180 N181 1.365 . S
N181 C178 1.341 . S
N181 N180 1.365 . S
N181 H201 0.862 . S
C182 C177 1.501 1_565 S
C182 H183 0.961 . S
C182 H184 0.961 . S
C182 H185 0.960 . S
H183 C182 0.961 . S
H184 C182 0.961 . S
H185 C182 0.960 . S
C186 N187 1.333 1_566 S
C186 C190 1.398 1_566 S
C186 C191 1.507 . S
N187 Co170 1.992 1_544 S
N187 C186 1.333 1_544 S
N187 N188 1.387 . S
N188 Co171 1.993 . S
N188 N187 1.387 . S
N188 C189 1.346 . S
C189 N188 1.346 . S
C189 C190 1.396 . S
C189 C199 1.510 . S
C190 C186 1.398 1_544 S
C190 C189 1.396 . S
C191 C186 1.507 . S
C191 H192 0.959 . S
C191 H193 0.960 . S
C191 H194 0.961 1_565 S
H192 C191 0.959 . S
H193 C191 0.960 . S
H194 C191 0.961 1_545 S
O195 Co170 1.967 1_545 S
O195 C203 1.258 1_556 S
O196 Co171 1.941 . S
O196 C203 1.266 . S
H197 C199 0.959 . S
H198 C199 0.961 . S
C199 C189 1.510 . S
C199 H197 0.959 . S
C199 H198 0.961 . S
C199 H200 0.960 . S
H200 C199 0.960 . S
H201 N181 0.862 . S
O202 Co170 1.920 . S
O202 C175 1.289 . S
C203 O195 1.258 1_554 S
C203 O196 1.266 . S
Co204 O207 1.970 . S
Co204 N221 1.989 . S
Co204 O229 1.967 . S
Co204 O236 1.920 . S
Co205 O208 1.966 . S
Co205 N214 2.022 . S
Co205 N222 1.993 . S
Co205 O230 1.941 . S
C206 O207 1.258 . S
C206 O208 1.263 . S
O207 Co204 1.970 . S
O207 C206 1.258 . S
O208 Co205 1.966 . S
O208 C206 1.263 . S
C209 O210 1.235 . S
C209 O236 1.289 . S
O210 C209 1.235 . S
C211 C213 1.400 . S
C211 N214 1.351 . S
C211 C216 1.501 . S
C212 C213 1.387 . S
C212 N215 1.341 . S
C213 C211 1.400 . S
C213 C212 1.387 . S
N214 Co205 2.022 . S
N214 C211 1.351 . S
N214 N215 1.365 . S
N215 C212 1.341 . S
N215 N214 1.365 . S
N215 H235 0.862 . S
C216 C211 1.501 . S
C216 H217 0.961 . S
C216 H218 0.961 . S
C216 H219 0.960 . S
H217 C216 0.961 . S
H218 C216 0.961 . S
H219 C216 0.960 . S
C220 N221 1.342 . S
C220 C224 1.401 . S
C220 C225 1.499 . S
N221 Co204 1.989 . S
N221 C220 1.342 . S
N221 N222 1.388 . S
N222 Co205 1.993 . S
N222 N221 1.388 . S
N222 C223 1.346 . S
C223 N222 1.346 . S
C223 C224 1.396 . S
C223 C233 1.510 . S
C224 C220 1.401 . S
C224 C223 1.396 . S
C225 C220 1.499 . S
C225 H226 0.959 . S
C225 H227 0.960 . S
C225 H228 0.961 . S
H226 C225 0.959 . S
H227 C225 0.960 . S
H228 C225 0.961 . S
O229 Co204 1.967 . S
O229 C237 1.258 . S
O230 Co205 1.941 . S
O230 C237 1.266 . S
H231 C233 0.959 . S
H232 C233 0.961 . S
C233 C223 1.510 . S
C233 H231 0.959 . S
C233 H232 0.961 . S
C233 H234 0.960 . S
H234 C233 0.960 . S
H235 N215 0.862 . S
O236 Co204 1.920 . S
O236 C209 1.289 . S
C237 O229 1.258 . S
C237 O230 1.266 . S
Co238 O241 1.970 1_565 S
Co238 N255 1.989 . S
Co238 O263 1.967 . S
Co238 O270 1.920 . S
Co239 O242 1.966 1_565 S
Co239 N248 2.022 . S
Co239 N256 1.993 . S
Co239 O264 1.941 . S
C240 O241 1.258 . S
C240 O242 1.263 . S
O241 Co238 1.970 1_545 S
O241 C240 1.258 . S
O242 Co239 1.966 1_545 S
O242 C240 1.263 . S
C243 O244 1.235 . S
C243 O270 1.289 . S
O244 C243 1.235 . S
C245 C247 1.400 . S
C245 N248 1.351 . S
C245 C250 1.501 . S
C246 C247 1.387 . S
C246 N249 1.341 . S
C247 C245 1.400 . S
C247 C246 1.387 . S
N248 Co239 2.022 . S
N248 C245 1.351 . S
N248 N249 1.365 . S
N249 C246 1.341 . S
N249 N248 1.365 . S
N249 H269 0.862 . S
C250 C245 1.501 . S
C250 H251 0.961 1_565 S
C250 H252 0.961 . S
C250 H253 0.960 1_565 S
H251 C250 0.961 1_545 S
H252 C250 0.961 . S
H253 C250 0.960 1_545 S
C254 N255 1.342 . S
C254 C258 1.401 . S
C254 C259 1.499 . S
N255 Co238 1.989 . S
N255 C254 1.342 . S
N255 N256 1.388 . S
N256 Co239 1.993 . S
N256 N255 1.388 . S
N256 C257 1.346 . S
C257 N256 1.346 . S
C257 C258 1.396 . S
C257 C267 1.510 . S
C258 C254 1.401 . S
C258 C257 1.396 . S
C259 C254 1.499 . S
C259 H260 0.959 . S
C259 H261 0.960 . S
C259 H262 0.961 . S
H260 C259 0.959 . S
H261 C259 0.960 . S
H262 C259 0.961 . S
O263 Co238 1.967 . S
O263 C271 1.258 . S
O264 Co239 1.941 . S
O264 C271 1.266 . S
H265 C267 0.959 . S
H266 C267 0.961 . S
C267 C257 1.510 . S
C267 H265 0.959 . S
C267 H266 0.961 . S
C267 H268 0.960 . S
H268 C267 0.960 . S
H269 N249 0.862 . S
O270 Co238 1.920 . S
O270 C243 1.289 . S
C271 O263 1.258 . S
C271 O264 1.266 . S
Co272 O275 1.970 . S
Co272 N289 1.989 . S
Co272 O297 1.967 . S
Co272 O304 1.920 . S
Co273 O276 1.966 . S
Co273 N282 2.022 . S
Co273 N290 1.993 . S
Co273 O298 1.941 . S
C274 O275 1.258 . S
C274 O276 1.263 . S
O275 Co272 1.970 . S
O275 C274 1.258 . S
O276 Co273 1.966 . S
O276 C274 1.263 . S
C277 O278 1.235 . S
C277 O304 1.289 . S
O278 C277 1.235 . S
C279 C281 1.400 . S
C279 N282 1.351 . S
C279 C284 1.501 . S
C280 C281 1.387 . S
C280 N283 1.341 . S
C281 C279 1.400 . S
C281 C280 1.387 . S
N282 Co273 2.022 . S
N282 C279 1.351 . S
N282 N283 1.365 . S
N283 C280 1.341 . S
N283 N282 1.365 . S
N283 H303 0.862 . S
C284 C279 1.501 . S
C284 H285 0.961 . S
C284 H286 0.961 . S
C284 H287 0.960 . S
H285 C284 0.961 . S
H286 C284 0.961 . S
H287 C284 0.960 . S
C288 N289 1.342 . S
C288 C292 1.401 . S
C288 C293 1.499 . S
N289 Co272 1.989 . S
N289 C288 1.342 . S
N289 N290 1.388 . S
N290 Co273 1.993 . S
N290 N289 1.388 . S
N290 C291 1.346 . S
C291 N290 1.346 . S
C291 C292 1.396 . S
C291 C301 1.510 . S
C292 C288 1.401 . S
C292 C291 1.396 . S
C293 C288 1.499 . S
C293 H294 0.959 . S
C293 H295 0.960 . S
C293 H296 0.961 . S
H294 C293 0.959 . S
H295 C293 0.960 . S
H296 C293 0.961 . S
O297 Co272 1.967 . S
O297 C305 1.258 . S
O298 Co273 1.941 . S
O298 C305 1.266 . S
H299 C301 0.959 . S
H300 C301 0.961 . S
C301 C291 1.510 . S
C301 H299 0.959 . S
C301 H300 0.961 . S
C301 H302 0.960 . S
H302 C301 0.960 . S
H303 N283 0.862 . S
O304 Co272 1.920 . S
O304 C277 1.289 . S
C305 O297 1.258 . S
C305 O298 1.266 . S
Co306 O309 1.970 . S
Co306 N323 1.989 . S
Co306 O331 1.967 . S
Co306 O338 1.920 . S
Co307 O310 1.966 . S
Co307 N316 2.022 . S
Co307 N324 1.993 . S
Co307 O332 1.941 . S
C308 O309 1.258 1_545 S
C308 O310 1.263 1_545 S
O309 Co306 1.970 . S
O309 C308 1.258 1_565 S
O310 Co307 1.966 . S
O310 C308 1.263 1_565 S
C311 O312 1.235 . S
C311 O338 1.289 . S
O312 C311 1.235 . S
C313 C315 1.400 . S
C313 N316 1.351 . S
C313 C318 1.501 . S
C314 C315 1.387 . S
C314 N317 1.341 . S
C315 C313 1.400 . S
C315 C314 1.387 . S
N316 Co307 2.022 . S
N316 C313 1.351 . S
N316 N317 1.365 . S
N317 C314 1.341 . S
N317 N316 1.365 . S
N317 H337 0.862 . S
C318 C313 1.501 . S
C318 H319 0.961 . S
C318 H320 0.961 . S
C318 H321 0.960 . S
H319 C318 0.961 . S
H320 C318 0.961 . S
H321 C318 0.960 . S
C322 N323 1.342 . S
C322 C326 1.401 . S
C322 C327 1.499 . S
N323 Co306 1.989 . S
N323 C322 1.342 . S
N323 N324 1.388 . S
N324 Co307 1.993 . S
N324 N323 1.388 . S
N324 C325 1.346 . S
C325 N324 1.346 . S
C325 C326 1.396 . S
C325 C335 1.510 . S
C326 C322 1.401 . S
C326 C325 1.396 . S
C327 C322 1.499 . S
C327 H328 0.959 . S
C327 H329 0.960 . S
C327 H330 0.961 . S
H328 C327 0.959 . S
H329 C327 0.960 . S
H330 C327 0.961 . S
O331 Co306 1.967 . S
O331 C339 1.258 . S
O332 Co307 1.941 . S
O332 C339 1.266 . S
H333 C335 0.959 . S
H334 C335 0.961 . S
C335 C325 1.510 . S
C335 H333 0.959 . S
C335 H334 0.961 . S
C335 H336 0.960 . S
H336 C335 0.960 . S
H337 N317 0.862 . S
O338 Co306 1.920 . S
O338 C311 1.289 . S
C339 O331 1.258 . S
C339 O332 1.266 . S
Co340 O343 1.970 . S
Co340 N357 1.989 . S
Co340 O365 1.967 . S
Co340 O372 1.920 . S
Co341 O344 1.966 . S
Co341 N350 2.022 . S
Co341 N358 1.993 . S
Co341 O366 1.941 . S
C342 O343 1.258 . S
C342 O344 1.263 . S
O343 Co340 1.970 . S
O343 C342 1.258 . S
O344 Co341 1.966 . S
O344 C342 1.263 . S
C345 O346 1.235 . S
C345 O372 1.289 . S
O346 C345 1.235 . S
C347 C349 1.400 . S
C347 N350 1.351 . S
C347 C352 1.501 . S
C348 C349 1.387 . S
C348 N351 1.341 . S
C349 C347 1.400 . S
C349 C348 1.387 . S
N350 Co341 2.022 . S
N350 C347 1.351 . S
N350 N351 1.365 . S
N351 C348 1.341 . S
N351 N350 1.365 . S
N351 H371 0.862 . S
C352 C347 1.501 . S
C352 H353 0.961 . S
C352 H354 0.961 . S
C352 H355 0.960 . S
H353 C352 0.961 . S
H354 C352 0.961 . S
H355 C352 0.960 . S
C356 N357 1.342 . S
C356 C360 1.401 . S
C356 C361 1.499 . S
N357 Co340 1.989 . S
N357 C356 1.342 . S
N357 N358 1.388 . S
N358 Co341 1.993 . S
N358 N357 1.388 . S
N358 C359 1.346 . S
C359 N358 1.346 . S
C359 C360 1.396 . S
C359 C369 1.510 . S
C360 C356 1.401 . S
C360 C359 1.396 . S
C361 C356 1.499 . S
C361 H362 0.959 . S
C361 H363 0.960 . S
C361 H364 0.961 . S
H362 C361 0.959 . S
H363 C361 0.960 . S
H364 C361 0.961 . S
O365 Co340 1.967 . S
O365 C373 1.258 . S
O366 Co341 1.941 . S
O366 C373 1.266 . S
H367 C369 0.959 . S
H368 C369 0.961 . S
C369 C359 1.510 . S
C369 H367 0.959 . S
C369 H368 0.961 . S
C369 H370 0.960 . S
H370 C369 0.960 . S
H371 N351 0.862 . S
O372 Co340 1.920 . S
O372 C345 1.289 . S
C373 O365 1.258 . S
C373 O366 1.266 . S
Co374 O377 1.970 . S
Co374 N391 1.989 . S
Co374 O399 1.967 . S
Co374 O406 1.920 . S
Co375 O378 1.966 . S
Co375 N384 2.022 . S
Co375 N392 1.993 . S
Co375 O400 1.941 . S
C376 O377 1.258 . S
C376 O378 1.263 . S
O377 Co374 1.970 . S
O377 C376 1.258 . S
O378 Co375 1.966 . S
O378 C376 1.263 . S
C379 O380 1.235 . S
C379 O406 1.289 . S
O380 C379 1.235 . S
C381 C383 1.400 . S
C381 N384 1.351 . S
C381 C386 1.501 . S
C382 C383 1.387 . S
C382 N385 1.341 . S
C383 C381 1.400 . S
C383 C382 1.387 . S
N384 Co375 2.022 . S
N384 C381 1.351 . S
N384 N385 1.365 . S
N385 C382 1.341 . S
N385 N384 1.365 . S
N385 H405 0.862 . S
C386 C381 1.501 . S
C386 H387 0.961 . S
C386 H388 0.961 . S
C386 H389 0.960 . S
H387 C386 0.961 . S
H388 C386 0.961 . S
H389 C386 0.960 . S
C390 N391 1.342 . S
C390 C394 1.401 . S
C390 C395 1.499 . S
N391 Co374 1.989 . S
N391 C390 1.342 . S
N391 N392 1.388 . S
N392 Co375 1.993 . S
N392 N391 1.388 . S
N392 C393 1.346 . S
C393 N392 1.346 . S
C393 C394 1.396 . S
C393 C403 1.510 . S
C394 C390 1.401 . S
C394 C393 1.396 . S
C395 C390 1.499 . S
C395 H396 0.959 . S
C395 H397 0.960 . S
C395 H398 0.961 . S
H396 C395 0.959 . S
H397 C395 0.960 . S
H398 C395 0.961 . S
O399 Co374 1.967 . S
O399 C407 1.258 . S
O400 Co375 1.941 . S
O400 C407 1.266 . S
H401 C403 0.959 . S
H402 C403 0.961 . S
C403 C393 1.510 . S
C403 H401 0.959 . S
C403 H402 0.961 . S
C403 H404 0.960 . S
H404 C403 0.960 . S
H405 N385 0.862 . S
O406 Co374 1.920 . S
O406 C379 1.289 . S
C407 O399 1.258 . S
C407 O400 1.266 . S
Co408 O411 1.970 . S
Co408 N425 1.989 . S
Co408 O433 1.967 . S
Co408 O440 1.920 . S
Co409 O412 1.966 . S
Co409 N418 2.022 1_556 S
Co409 N426 1.993 . S
Co409 O434 1.941 . S
C410 O411 1.258 . S
C410 O412 1.263 . S
O411 Co408 1.970 . S
O411 C410 1.258 . S
O412 Co409 1.966 . S
O412 C410 1.263 . S
C413 O414 1.235 . S
C413 O440 1.289 . S
O414 C413 1.235 . S
C415 C417 1.400 . S
C415 N418 1.351 . S
C415 C420 1.501 . S
C416 C417 1.387 . S
C416 N419 1.341 . S
C417 C415 1.400 . S
C417 C416 1.387 . S
N418 Co409 2.022 1_554 S
N418 C415 1.351 . S
N418 N419 1.365 . S
N419 C416 1.341 . S
N419 N418 1.365 . S
N419 H439 0.862 1_554 S
C420 C415 1.501 . S
C420 H421 0.961 . S
C420 H422 0.961 . S
C420 H423 0.960 . S
H421 C420 0.961 . S
H422 C420 0.961 . S
H423 C420 0.960 . S
C424 N425 1.342 . S
C424 C428 1.401 . S
C424 C429 1.499 . S
N425 Co408 1.989 . S
N425 C424 1.342 . S
N425 N426 1.388 . S
N426 Co409 1.993 . S
N426 N425 1.388 . S
N426 C427 1.346 . S
C427 N426 1.346 . S
C427 C428 1.396 . S
C427 C437 1.510 . S
C428 C424 1.401 . S
C428 C427 1.396 . S
C429 C424 1.499 . S
C429 H430 0.959 . S
C429 H431 0.960 . S
C429 H432 0.961 . S
H430 C429 0.959 . S
H431 C429 0.960 . S
H432 C429 0.961 . S
O433 Co408 1.967 . S
O433 C441 1.258 . S
O434 Co409 1.941 . S
O434 C441 1.266 . S
H435 C437 0.959 . S
H436 C437 0.961 . S
C437 C427 1.510 . S
C437 H435 0.959 . S
C437 H436 0.961 . S
C437 H438 0.960 . S
H438 C437 0.960 . S
H439 N419 0.862 1_556 S
O440 Co408 1.920 . S
O440 C413 1.289 . S
C441 O433 1.258 . S
C441 O434 1.266 . S
Co442 O445 1.970 . S
Co442 N459 1.989 . S
Co442 O467 1.967 . S
Co442 O474 1.920 . S
Co443 O446 1.966 . S
Co443 N452 2.022 . S
Co443 N460 1.993 . S
Co443 O468 1.941 . S
C444 O445 1.258 . S
C444 O446 1.263 . S
O445 Co442 1.970 . S
O445 C444 1.258 . S
O446 Co443 1.966 . S
O446 C444 1.263 . S
C447 O448 1.235 . S
C447 O474 1.289 . S
O448 C447 1.235 . S
C449 C451 1.400 . S
C449 N452 1.351 1_554 S
C449 C454 1.501 . S
C450 C451 1.387 . S
C450 N453 1.341 1_554 S
C451 C449 1.400 . S
C451 C450 1.387 . S
N452 Co443 2.022 . S
N452 C449 1.351 1_556 S
N452 N453 1.365 . S
N453 C450 1.341 1_556 S
N453 N452 1.365 . S
N453 H473 0.862 . S
C454 C449 1.501 . S
C454 H455 0.961 1_554 S
C454 H456 0.961 . S
C454 H457 0.960 . S
H455 C454 0.961 1_556 S
H456 C454 0.961 . S
H457 C454 0.960 . S
C458 N459 1.342 . S
C458 C462 1.401 . S
C458 C463 1.499 . S
N459 Co442 1.989 . S
N459 C458 1.342 . S
N459 N460 1.388 . S
N460 Co443 1.993 . S
N460 N459 1.388 . S
N460 C461 1.346 . S
C461 N460 1.346 . S
C461 C462 1.396 . S
C461 C471 1.510 . S
C462 C458 1.401 . S
C462 C461 1.396 . S
C463 C458 1.499 . S
C463 H464 0.959 . S
C463 H465 0.960 . S
C463 H466 0.961 . S
H464 C463 0.959 . S
H465 C463 0.960 . S
H466 C463 0.961 . S
O467 Co442 1.967 . S
O467 C475 1.258 . S
O468 Co443 1.941 . S
O468 C475 1.266 . S
H469 C471 0.959 . S
H470 C471 0.961 . S
C471 C461 1.510 . S
C471 H469 0.959 . S
C471 H470 0.961 . S
C471 H472 0.960 . S
H472 C471 0.960 . S
H473 N453 0.862 . S
O474 Co442 1.920 . S
O474 C447 1.289 . S
C475 O467 1.258 . S
C475 O468 1.266 . S
Co476 O479 1.970 . S
Co476 N493 1.989 . S
Co476 O501 1.967 . S
Co476 O508 1.920 . S
Co477 O480 1.966 . S
Co477 N486 2.022 . S
Co477 N494 1.993 . S
Co477 O502 1.941 . S
C478 O479 1.258 . S
C478 O480 1.263 . S
O479 Co476 1.970 . S
O479 C478 1.258 . S
O480 Co477 1.966 . S
O480 C478 1.263 . S
C481 O482 1.235 1_554 S
C481 O508 1.289 1_554 S
O482 C481 1.235 1_556 S
C483 C485 1.400 . S
C483 N486 1.351 . S
C483 C488 1.501 . S
C484 C485 1.387 . S
C484 N487 1.341 . S
C485 C483 1.400 . S
C485 C484 1.387 . S
N486 Co477 2.022 . S
N486 C483 1.351 . S
N486 N487 1.365 . S
N487 C484 1.341 . S
N487 N486 1.365 . S
N487 H507 0.862 . S
C488 C483 1.501 . S
C488 H489 0.961 . S
C488 H490 0.961 . S
C488 H491 0.960 . S
H489 C488 0.961 . S
H490 C488 0.961 . S
H491 C488 0.960 . S
C492 N493 1.342 . S
C492 C496 1.401 . S
C492 C497 1.499 . S
N493 Co476 1.989 . S
N493 C492 1.342 . S
N493 N494 1.388 . S
N494 Co477 1.993 . S
N494 N493 1.388 . S
N494 C495 1.346 . S
C495 N494 1.346 . S
C495 C496 1.396 . S
C495 C505 1.510 . S
C496 C492 1.401 . S
C496 C495 1.396 . S
C497 C492 1.499 . S
C497 H498 0.959 . S
C497 H499 0.960 . S
C497 H500 0.961 . S
H498 C497 0.959 . S
H499 C497 0.960 . S
H500 C497 0.961 . S
O501 Co476 1.967 . S
O501 C509 1.258 . S
O502 Co477 1.941 . S
O502 C509 1.266 . S
H503 C505 0.959 . S
H504 C505 0.961 . S
C505 C495 1.510 . S
C505 H503 0.959 . S
C505 H504 0.961 . S
C505 H506 0.960 . S
H506 C505 0.960 . S
H507 N487 0.862 . S
O508 Co476 1.920 . S
O508 C481 1.289 1_556 S
C509 O501 1.258 . S
C509 O502 1.266 . S
Co510 O513 1.970 . S
Co510 N527 1.989 . S
Co510 O535 1.967 . S
Co510 O542 1.920 1_556 S
Co511 O514 1.966 . S
Co511 N520 2.022 . S
Co511 N528 1.993 . S
Co511 O536 1.941 . S
C512 O513 1.258 . S
C512 O514 1.263 . S
O513 Co510 1.970 . S
O513 C512 1.258 . S
O514 Co511 1.966 . S
O514 C512 1.263 . S
C515 O516 1.235 1_554 S
C515 O542 1.289 . S
O516 C515 1.235 1_556 S
C517 C519 1.400 . S
C517 N520 1.351 . S
C517 C522 1.501 . S
C518 C519 1.387 . S
C518 N521 1.341 . S
C519 C517 1.400 . S
C519 C518 1.387 . S
N520 Co511 2.022 . S
N520 C517 1.351 . S
N520 N521 1.365 . S
N521 C518 1.341 . S
N521 N520 1.365 . S
N521 H541 0.862 . S
C522 C517 1.501 . S
C522 H523 0.961 . S
C522 H524 0.961 . S
C522 H525 0.960 . S
H523 C522 0.961 . S
H524 C522 0.961 . S
H525 C522 0.960 . S
C526 N527 1.342 . S
C526 C530 1.401 . S
C526 C531 1.499 . S
N527 Co510 1.989 . S
N527 C526 1.342 . S
N527 N528 1.388 . S
N528 Co511 1.993 . S
N528 N527 1.388 . S
N528 C529 1.346 . S
C529 N528 1.346 . S
C529 C530 1.396 . S
C529 C539 1.510 . S
C530 C526 1.401 . S
C530 C529 1.396 . S
C531 C526 1.499 . S
C531 H532 0.959 . S
C531 H533 0.960 . S
C531 H534 0.961 . S
H532 C531 0.959 . S
H533 C531 0.960 . S
H534 C531 0.961 . S
O535 Co510 1.967 . S
O535 C543 1.258 . S
O536 Co511 1.941 . S
O536 C543 1.266 . S
H537 C539 0.959 . S
H538 C539 0.961 . S
C539 C529 1.510 . S
C539 H537 0.959 . S
C539 H538 0.961 . S
C539 H540 0.960 . S
H540 C539 0.960 . S
H541 N521 0.862 . S
O542 Co510 1.920 1_554 S
O542 C515 1.289 . S
C543 O535 1.258 . S
C543 O536 1.266 . S
Co544 O547 1.970 . S
Co544 N561 1.989 . S
Co544 O569 1.967 . S
Co544 O576 1.920 . S
Co545 O548 1.966 . S
Co545 N554 2.022 . S
Co545 N562 1.993 . S
Co545 O570 1.941 . S
C546 O547 1.258 . S
C546 O548 1.263 . S
O547 Co544 1.970 . S
O547 C546 1.258 . S
O548 Co545 1.966 . S
O548 C546 1.263 . S
C549 O550 1.231 1_554 S
C549 O576 1.287 1_554 S
O550 C549 1.231 1_556 S
C551 C553 1.400 . S
C551 N554 1.351 . S
C551 C556 1.501 . S
C552 C553 1.387 . S
C552 N555 1.341 . S
C553 C551 1.400 . S
C553 C552 1.387 . S
N554 Co545 2.022 . S
N554 C551 1.351 . S
N554 N555 1.365 . S
N555 C552 1.341 . S
N555 N554 1.365 . S
N555 H575 0.862 . S
C556 C551 1.501 . S
C556 H557 0.961 . S
C556 H558 0.961 . S
C556 H559 0.960 . S
H557 C556 0.961 . S
H558 C556 0.961 . S
H559 C556 0.960 . S
C560 N561 1.342 . S
C560 C564 1.401 . S
C560 C565 1.499 . S
N561 Co544 1.989 . S
N561 C560 1.342 . S
N561 N562 1.388 . S
N562 Co545 1.993 . S
N562 N561 1.388 . S
N562 C563 1.346 . S
C563 N562 1.346 . S
C563 C564 1.396 . S
C563 C573 1.510 . S
C564 C560 1.401 . S
C564 C563 1.396 . S
C565 C560 1.499 . S
C565 H566 0.959 . S
C565 H567 0.960 . S
C565 H568 0.961 . S
H566 C565 0.959 . S
H567 C565 0.960 . S
H568 C565 0.961 . S
O569 Co544 1.967 . S
O569 C577 1.258 . S
O570 Co545 1.941 . S
O570 C577 1.266 . S
H571 C573 0.959 . S
H572 C573 0.961 . S
C573 C563 1.510 . S
C573 H571 0.959 . S
C573 H572 0.961 . S
C573 H574 0.960 . S
H574 C573 0.960 . S
H575 N555 0.862 . S
O576 Co544 1.920 . S
O576 C549 1.287 1_556 S
C577 O569 1.258 . S
C577 O570 1.266 . S
Co578 O581 1.970 . S
Co578 N595 1.989 . S
Co578 O603 1.967 . S
Co578 O610 1.920 . S
Co579 O582 1.966 . S
Co579 N588 2.022 . S
Co579 N596 1.993 . S
Co579 O604 1.941 . S
C580 O581 1.258 . S
C580 O582 1.263 . S
O581 Co578 1.970 . S
O581 C580 1.258 . S
O582 Co579 1.966 . S
O582 C580 1.263 . S
C583 O584 1.235 . S
C583 O610 1.289 . S
O584 C583 1.235 . S
C585 C587 1.400 . S
C585 N588 1.351 1_554 S
C585 C590 1.501 . S
C586 C587 1.387 . S
C586 N589 1.341 . S
C587 C585 1.400 . S
C587 C586 1.387 . S
N588 Co579 2.022 . S
N588 C585 1.351 1_556 S
N588 N589 1.365 1_556 S
N589 C586 1.341 . S
N589 N588 1.365 1_554 S
N589 H609 0.862 1_554 S
C590 C585 1.501 . S
C590 H591 0.961 1_554 S
C590 H592 0.961 . S
C590 H593 0.960 . S
H591 C590 0.961 1_556 S
H592 C590 0.961 . S
H593 C590 0.960 . S
C594 N595 1.342 . S
C594 C598 1.401 . S
C594 C599 1.499 . S
N595 Co578 1.989 . S
N595 C594 1.342 . S
N595 N596 1.388 . S
N596 Co579 1.993 . S
N596 N595 1.388 . S
N596 C597 1.346 . S
C597 N596 1.346 . S
C597 C598 1.396 . S
C597 C607 1.510 . S
C598 C594 1.401 . S
C598 C597 1.396 . S
C599 C594 1.499 . S
C599 H600 0.959 . S
C599 H601 0.960 . S
C599 H602 0.961 . S
H600 C599 0.959 . S
H601 C599 0.960 . S
H602 C599 0.961 . S
O603 Co578 1.967 . S
O603 C611 1.258 . S
O604 Co579 1.941 . S
O604 C611 1.266 . S
H605 C607 0.959 . S
H606 C607 0.961 . S
C607 C597 1.510 . S
C607 H605 0.959 . S
C607 H606 0.961 . S
C607 H608 0.960 . S
H608 C607 0.960 . S
H609 N589 0.862 1_556 S
O610 Co578 1.920 . S
O610 C583 1.289 . S
C611 O603 1.258 . S
C611 O604 1.266 . S
C612 C613 1.363 . S
C612 C618 1.379 . S
C612 N620 1.356 . S
C613 C612 1.363 . S
C613 C619 1.363 . S
C614 C615 1.363 . S
C614 C619 1.379 . S
C614 N621 1.356 . S
C615 C614 1.363 . S
C615 C618 1.363 . S
N616 C618 1.356 . S
N616 H628 0.984 . S
N616 H629 0.985 . S
N617 C619 1.356 . S
N617 H622 0.984 . S
N617 H623 0.985 . S
C618 C612 1.379 . S
C618 C615 1.363 . S
C618 N616 1.356 . S
C619 C613 1.363 . S
C619 C614 1.379 . S
C619 N617 1.356 . S
N620 C612 1.356 . S
N620 H626 0.984 . S
N620 H627 0.984 . S
N621 C614 1.356 . S
N621 H624 0.984 . S
N621 H625 0.985 . S
H622 N617 0.984 . S
H623 N617 0.985 . S
H624 N621 0.984 . S
H625 N621 0.985 . S
H626 N620 0.984 . S
H627 N620 0.984 . S
H628 N616 0.984 . S
H629 N616 0.985 . S
C630 C631 1.363 . S
C630 C636 1.379 . S
C630 N638 1.356 . S
C631 C630 1.363 . S
C631 C637 1.363 . S
C632 C633 1.363 . S
C632 C637 1.379 . S
C632 N639 1.356 . S
C633 C632 1.363 . S
C633 C636 1.363 . S
N634 C636 1.356 . S
N634 H646 0.984 . S
N634 H647 0.985 . S
N635 C637 1.356 . S
N635 H640 0.984 . S
N635 H641 0.985 . S
C636 C630 1.379 . S
C636 C633 1.363 . S
C636 N634 1.356 . S
C637 C631 1.363 . S
C637 C632 1.379 . S
C637 N635 1.356 . S
N638 C630 1.356 . S
N638 H644 0.984 . S
N638 H645 0.984 . S
N639 C632 1.356 . S
N639 H642 0.984 . S
N639 H643 0.985 . S
H640 N635 0.984 . S
H641 N635 0.985 . S
H642 N639 0.984 . S
H643 N639 0.985 . S
H644 N638 0.984 . S
H645 N638 0.984 . S
H646 N634 0.984 . S
H647 N634 0.985 . S
C648 C649 1.363 . S
C648 C654 1.379 . S
C648 N656 1.356 . S
C649 C648 1.363 . S
C649 C655 1.363 . S
C650 C651 1.363 . S
C650 C655 1.379 . S
C650 N657 1.356 . S
C651 C650 1.363 . S
C651 C654 1.363 . S
N652 C654 1.356 . S
N652 H664 0.984 . S
N652 H665 0.985 . S
N653 C655 1.356 . S
N653 H658 0.984 . S
N653 H659 0.985 . S
C654 C648 1.379 . S
C654 C651 1.363 . S
C654 N652 1.356 . S
C655 C649 1.363 . S
C655 C650 1.379 . S
C655 N653 1.356 . S
N656 C648 1.356 . S
N656 H662 0.984 . S
N656 H663 0.984 . S
N657 C650 1.356 . S
N657 H660 0.984 . S
N657 H661 0.985 . S
H658 N653 0.984 . S
H659 N653 0.985 . S
H660 N657 0.984 . S
H661 N657 0.985 . S
H662 N656 0.984 . S
H663 N656 0.984 . S
H664 N652 0.984 . S
H665 N652 0.985 . S
C666 C667 1.363 1_655 S
C666 C672 1.379 . S
C666 N674 1.356 1_655 S
C667 C666 1.363 1_455 S
C667 C673 1.363 . S
C668 C669 1.363 . S
C668 C673 1.379 1_655 S
C668 N675 1.356 . S
C669 C668 1.363 . S
C669 C672 1.363 . S
N670 C672 1.356 . S
N670 H682 0.984 . S
N670 H683 0.985 . S
N671 C673 1.356 . S
N671 H676 0.984 . S
N671 H677 0.985 . S
C672 C666 1.379 . S
C672 C669 1.363 . S
C672 N670 1.356 . S
C673 C667 1.363 . S
C673 C668 1.379 1_455 S
C673 N671 1.356 . S
N674 C666 1.356 1_455 S
N674 H680 0.984 1_455 S
N674 H681 0.984 . S
N675 C668 1.356 . S
N675 H678 0.984 . S
N675 H679 0.985 . S
H676 N671 0.984 . S
H677 N671 0.985 . S
H678 N675 0.984 . S
H679 N675 0.985 . S
H680 N674 0.984 1_655 S
H681 N674 0.984 . S
H682 N670 0.984 . S
H683 N670 0.985 . S
C684 C685 1.363 . S
C684 C690 1.379 . S
C684 N692 1.356 . S
C685 C684 1.363 . S
C685 C691 1.363 . S
C686 C687 1.363 . S
C686 C691 1.379 . S
C686 N693 1.356 . S
C687 C686 1.363 . S
C687 C690 1.363 . S
N688 C690 1.356 . S
N688 H700 0.984 . S
N688 H701 0.985 . S
N689 C691 1.356 . S
N689 H694 0.984 . S
N689 H695 0.985 . S
C690 C684 1.379 . S
C690 C687 1.363 . S
C690 N688 1.356 . S
C691 C685 1.363 . S
C691 C686 1.379 . S
C691 N689 1.356 . S
N692 C684 1.356 . S
N692 H698 0.984 . S
N692 H699 0.984 . S
N693 C686 1.356 . S
N693 H696 0.984 . S
N693 H697 0.985 . S
H694 N689 0.984 . S
H695 N689 0.985 . S
H696 N693 0.984 . S
H697 N693 0.985 . S
H698 N692 0.984 . S
H699 N692 0.984 . S
H700 N688 0.984 . S
H701 N688 0.985 . S
C702 C703 1.363 . S
C702 C708 1.379 . S
C702 N710 1.356 . S
C703 C702 1.363 . S
C703 C709 1.363 . S
C704 C705 1.363 1_565 S
C704 C709 1.379 . S
C704 N711 1.356 1_565 S
C705 C704 1.363 1_545 S
C705 C708 1.363 1_545 S
N706 C708 1.356 1_545 S
N706 H718 0.984 . S
N706 H719 0.985 . S
N707 C709 1.356 . S
N707 H712 0.984 . S
N707 H713 0.985 . S
C708 C702 1.379 . S
C708 C705 1.363 1_565 S
C708 N706 1.356 1_565 S
C709 C703 1.363 . S
C709 C704 1.379 . S
C709 N707 1.356 . S
N710 C702 1.356 . S
N710 H716 0.984 . S
N710 H717 0.984 . S
N711 C704 1.356 1_545 S
N711 H714 0.984 . S
N711 H715 0.985 . S
H712 N707 0.984 . S
H713 N707 0.985 . S
H714 N711 0.984 . S
H715 N711 0.985 . S
H716 N710 0.984 . S
H717 N710 0.984 . S
H718 N706 0.984 . S
H719 N706 0.985 . S
C720 C721 1.363 . S
C720 C726 1.379 1_556 S
C720 N728 1.356 . S
C721 C720 1.363 . S
C721 C727 1.363 . S
C722 C723 1.363 1_556 S
C722 C727 1.379 . S
C722 N729 1.356 1_556 S
C723 C722 1.363 1_554 S
C723 C726 1.363 . S
N724 C726 1.356 . S
N724 H736 0.984 . S
N724 H737 0.985 . S
N725 C727 1.356 . S
N725 H730 0.984 . S
N725 H731 0.985 . S
C726 C720 1.379 1_554 S
C726 C723 1.363 . S
C726 N724 1.356 . S
C727 C721 1.363 . S
C727 C722 1.379 . S
C727 N725 1.356 . S
N728 C720 1.356 . S
N728 H734 0.984 . S
N728 H735 0.984 . S
N729 C722 1.356 1_554 S
N729 H732 0.984 . S
N729 H733 0.985 1_554 S
H730 N725 0.984 . S
H731 N725 0.985 . S
H732 N729 0.984 . S
H733 N729 0.985 1_556 S
H734 N728 0.984 . S
H735 N728 0.984 . S
H736 N724 0.984 . S
H737 N724 0.985 . S
C738 C739 1.363 1_554 S
C738 C744 1.379 . S
C738 N746 1.356 1_554 S
C739 C738 1.363 1_556 S
C739 C745 1.363 . S
C740 C741 1.363 1_556 S
C740 C745 1.379 . S
C740 N747 1.311 1_565 S
C741 C740 1.363 1_554 S
C741 C744 1.363 . S
N742 C744 1.356 . S
N742 H754 0.984 . S
N742 H755 0.985 . S
N743 C745 1.356 . S
N743 H748 0.984 . S
N743 H749 0.985 . S
C744 C738 1.379 . S
C744 C741 1.363 . S
C744 N742 1.356 . S
C745 C739 1.363 . S
C745 C740 1.379 . S
C745 N743 1.356 . S
N746 C738 1.356 1_556 S
N746 H752 0.984 1_556 S
N746 H753 0.984 . S
N747 C740 1.311 1_545 S
N747 H750 1.000 1_556 S
N747 H751 1.016 . S
H748 N743 0.984 . S
H749 N743 0.985 . S
H750 N747 1.000 1_554 S
H751 N747 1.016 . S
H752 N746 0.984 1_554 S
H753 N746 0.984 . S
H754 N742 0.984 . S
H755 N742 0.985 . S
C756 C757 1.363 . S
C756 C762 1.379 1_556 S
C756 N764 1.356 . S
C757 C756 1.363 . S
C757 C763 1.363 . S
C758 C759 1.363 1_556 S
C758 C763 1.379 . S
C758 N765 1.356 1_556 S
C759 C758 1.363 1_554 S
C759 C762 1.363 . S
N760 C762 1.356 . S
N760 H772 0.984 . S
N760 H773 0.985 . S
N761 C763 1.356 . S
N761 H766 0.984 . S
N761 H767 0.985 . S
C762 C756 1.379 1_554 S
C762 C759 1.363 . S
C762 N760 1.356 . S
C763 C757 1.363 . S
C763 C758 1.379 . S
C763 N761 1.356 . S
N764 C756 1.356 . S
N764 H770 0.984 . S
N764 H771 0.984 . S
N765 C758 1.356 1_554 S
N765 H768 0.984 . S
N765 H769 0.985 1_554 S
H766 N761 0.984 . S
H767 N761 0.985 . S
H768 N765 0.984 . S
H769 N765 0.985 1_556 S
H770 N764 0.984 . S
H771 N764 0.984 . S
H772 N760 0.984 . S
H773 N760 0.985 . S
C774 C775 1.363 . S
C774 C780 1.379 1_554 S
C774 N782 1.356 . S
C775 C774 1.363 . S
C775 C781 1.363 1_554 S
C776 C777 1.363 . S
C776 C781 1.379 . S
C776 N783 1.356 . S
C777 C776 1.363 . S
C777 C780 1.363 . S
N778 C780 1.356 . S
N778 H790 0.984 . S
N778 H791 0.985 . S
N779 C781 1.356 1_544 S
N779 H784 0.984 . S
N779 H785 0.985 1_554 S
C780 C774 1.379 1_556 S
C780 C777 1.363 . S
C780 N778 1.356 . S
C781 C775 1.363 1_556 S
C781 C776 1.379 . S
C781 N779 1.356 1_566 S
N782 C774 1.356 . S
N782 H788 0.984 . S
N782 H789 0.984 . S
N783 C776 1.356 . S
N783 H786 0.984 . S
N783 H787 0.985 . S
H784 N779 0.984 . S
H785 N779 0.985 1_556 S
H786 N783 0.984 . S
H787 N783 0.985 . S
H788 N782 0.984 . S
H789 N782 0.984 . S
H790 N778 0.984 . S
H791 N778 0.985 . S
C792 C793 1.363 . S
C792 C798 1.379 1_556 S
C792 N800 1.356 . S
C793 C792 1.363 . S
C793 C799 1.363 . S
C794 C795 1.363 . S
C794 C799 1.379 1_554 S
C794 N801 1.356 . S
C795 C794 1.363 . S
C795 C798 1.363 . S
N796 C798 1.356 . S
N796 H808 0.984 . S
N796 H809 0.985 . S
N797 C799 1.356 . S
N797 H802 0.984 . S
N797 H803 0.985 . S
C798 C792 1.379 1_554 S
C798 C795 1.363 . S
C798 N796 1.356 . S
C799 C793 1.363 . S
C799 C794 1.379 1_556 S
C799 N797 1.356 . S
N800 C792 1.356 . S
N800 H806 0.984 . S
N800 H807 0.984 . S
N801 C794 1.356 . S
N801 H804 0.984 . S
N801 H805 0.985 . S
H802 N797 0.984 . S
H803 N797 0.985 . S
H804 N801 0.984 . S
H805 N801 0.985 . S
H806 N800 0.984 . S
H807 N800 0.984 . S
H808 N796 0.984 . S
H809 N796 0.985 . S
C810 C811 1.363 . S
C810 C816 1.379 1_556 S
C810 N818 1.356 . S
C811 C810 1.363 . S
C811 C817 1.363 1_556 S
C812 C813 1.363 . S
C812 C817 1.379 . S
C812 N819 1.356 . S
C813 C812 1.363 . S
C813 C816 1.363 . S
N814 C816 1.356 . S
N814 H826 0.984 1_554 S
N814 H827 0.985 . S
N815 C817 1.356 1_556 S
N815 H820 0.984 . S
N815 H821 0.985 1_556 S
C816 C810 1.379 1_554 S
C816 C813 1.363 . S
C816 N814 1.356 . S
C817 C811 1.363 1_554 S
C817 C812 1.379 . S
C817 N815 1.356 1_554 S
N818 C810 1.356 . S
N818 H824 0.984 . S
N818 H825 0.984 . S
N819 C812 1.356 . S
N819 H822 0.984 . S
N819 H823 0.985 . S
H820 N815 0.984 . S
H821 N815 0.985 1_554 S
H822 N819 0.984 . S
H823 N819 0.985 . S
H824 N818 0.984 . S
H825 N818 0.984 . S
H826 N814 0.984 1_556 S
H827 N814 0.985 . S
C828 C829 1.363 . S
C828 C834 1.379 . S
C828 N836 1.356 . S
C829 C828 1.363 . S
C829 C835 1.363 . S
C830 C831 1.363 . S
C830 C835 1.379 . S
C830 N837 1.356 . S
C831 C830 1.363 . S
C831 C834 1.363 . S
N832 C834 1.356 . S
N832 H844 0.984 . S
N832 H845 0.985 . S
N833 C835 1.356 . S
N833 H838 0.984 . S
N833 H839 0.985 . S
C834 C828 1.379 . S
C834 C831 1.363 . S
C834 N832 1.356 . S
C835 C829 1.363 . S
C835 C830 1.379 . S
C835 N833 1.356 . S
N836 C828 1.356 . S
N836 H842 0.984 . S
N836 H843 0.984 . S
N837 C830 1.356 . S
N837 H840 0.984 . S
N837 H841 0.985 . S
H838 N833 0.984 . S
H839 N833 0.985 . S
H840 N837 0.984 . S
H841 N837 0.985 . S
H842 N836 0.984 . S
H843 N836 0.984 . S
H844 N832 0.984 . S
H845 N832 0.985 . S
C846 C847 1.363 . S
C846 C852 1.379 . S
C846 N854 1.356 . S
C847 C846 1.363 . S
C847 C853 1.363 . S
C848 C849 1.363 . S
C848 C853 1.379 . S
C848 N855 1.356 . S
C849 C848 1.363 . S
C849 C852 1.363 . S
N850 C852 1.356 . S
N850 H862 0.984 . S
N850 H863 0.985 . S
N851 C853 1.356 . S
N851 H856 0.984 . S
N851 H857 0.985 . S
C852 C846 1.379 . S
C852 C849 1.363 . S
C852 N850 1.356 . S
C853 C847 1.363 . S
C853 C848 1.379 . S
C853 N851 1.356 . S
N854 C846 1.356 . S
N854 H860 0.984 . S
N854 H861 0.984 . S
N855 C848 1.356 . S
N855 H858 0.984 . S
N855 H859 0.985 . S
H856 N851 0.984 . S
H857 N851 0.985 . S
H858 N855 0.984 . S
H859 N855 0.985 . S
H860 N854 0.984 . S
H861 N854 0.984 . S
H862 N850 0.984 . S
H863 N850 0.985 . S
C864 C865 1.363 . S
C864 C870 1.379 . S
C864 N872 1.356 . S
C865 C864 1.363 . S
C865 C871 1.363 . S
C866 C867 1.363 . S
C866 C871 1.379 . S
C866 N873 1.356 . S
C867 C866 1.363 . S
C867 C870 1.363 . S
N868 C870 1.356 . S
N868 H880 0.984 . S
N868 H881 0.985 . S
N869 C871 1.356 . S
N869 H874 0.984 1_554 S
N869 H875 0.982 1_554 S
C870 C864 1.379 . S
C870 C867 1.363 . S
C870 N868 1.356 . S
C871 C865 1.363 . S
C871 C866 1.379 . S
C871 N869 1.356 . S
N872 C864 1.356 . S
N872 H878 0.984 . S
N872 H879 0.984 . S
N873 C866 1.356 . S
N873 H876 0.984 . S
N873 H877 0.985 . S
H874 N869 0.984 1_556 S
H875 N869 0.982 1_556 S
H876 N873 0.984 . S
H877 N873 0.985 . S
H878 N872 0.984 . S
H879 N872 0.984 . S
H880 N868 0.984 . S
H881 N868 0.985 . S
C882 C883 1.363 . S
C882 C888 1.379 . S
C882 N890 1.356 . S
C883 C882 1.363 . S
C883 C889 1.363 . S
C884 C885 1.363 . S
C884 C889 1.379 . S
C884 N891 1.356 . S
C885 C884 1.363 . S
C885 C888 1.363 . S
N886 C888 1.356 . S
N886 H898 0.984 . S
N886 H899 0.985 . S
N887 C889 1.356 . S
N887 H892 0.984 . S
N887 H893 0.985 . S
C888 C882 1.379 . S
C888 C885 1.363 . S
C888 N886 1.356 . S
C889 C883 1.363 . S
C889 C884 1.379 . S
C889 N887 1.356 . S
N890 C882 1.356 . S
N890 H896 0.984 . S
N890 H897 0.984 . S
N891 C884 1.356 . S
N891 H894 0.984 . S
N891 H895 0.985 . S
H892 N887 0.984 . S
H893 N887 0.985 . S
H894 N891 0.984 . S
H895 N891 0.985 . S
H896 N890 0.984 . S
H897 N890 0.984 . S
H898 N886 0.984 . S
H899 N886 0.985 . S
C900 C901 1.363 . S
C900 C906 1.379 . S
C900 N908 1.356 . S
C901 C900 1.363 . S
C901 C907 1.363 . S
C902 C903 1.363 . S
C902 C907 1.379 . S
C902 N909 1.356 . S
C903 C902 1.363 . S
C903 C906 1.363 . S
N904 C906 1.356 . S
N904 H916 0.984 . S
N904 H917 0.985 . S
N905 C907 1.356 . S
N905 H910 0.984 . S
N905 H911 0.985 . S
C906 C900 1.379 . S
C906 C903 1.363 . S
C906 N904 1.356 . S
C907 C901 1.363 . S
C907 C902 1.379 . S
C907 N905 1.356 . S
N908 C900 1.356 . S
N908 H914 0.984 . S
N908 H915 0.984 . S
N909 C902 1.356 . S
N909 H912 0.984 1_554 S
N909 H913 0.985 1_554 S
H910 N905 0.984 . S
H911 N905 0.985 . S
H912 N909 0.984 1_556 S
H913 N909 0.985 1_556 S
H914 N908 0.984 . S
H915 N908 0.984 . S
H916 N904 0.984 . S
H917 N904 0.985 . S
C918 C919 1.363 . S
C918 C924 1.379 . S
C918 N926 1.356 . S
C919 C918 1.363 . S
C919 C925 1.363 . S
C920 C921 1.363 . S
C920 C925 1.379 . S
C920 N927 1.356 . S
C921 C920 1.363 . S
C921 C924 1.363 . S
N922 C924 1.356 . S
N922 H934 0.984 . S
N922 H935 0.985 . S
N923 C925 1.356 . S
N923 H928 0.984 . S
N923 H929 0.985 . S
C924 C918 1.379 . S
C924 C921 1.363 . S
C924 N922 1.356 . S
C925 C919 1.363 . S
C925 C920 1.379 . S
C925 N923 1.356 . S
N926 C918 1.356 . S
N926 H932 0.984 . S
N926 H933 0.984 . S
N927 C920 1.356 . S
N927 H930 0.984 . S
N927 H931 0.985 . S
H928 N923 0.984 . S
H929 N923 0.985 . S
H930 N927 0.984 . S
H931 N927 0.985 . S
H932 N926 0.984 . S
H933 N926 0.984 . S
H934 N922 0.984 . S
H935 N922 0.985 . S
C936 C937 1.363 1_556 S
C936 C942 1.379 . S
C936 N944 1.356 . S
C937 C936 1.363 1_554 S
C937 C943 1.363 . S
C938 C939 1.363 . S
C938 C943 1.379 . S
C938 N945 1.356 . S
C939 C938 1.363 . S
C939 C942 1.363 1_554 S
N940 C942 1.356 . S
N940 H952 0.984 . S
N940 H953 0.985 . S
N941 C943 1.356 . S
N941 H946 0.984 . S
N941 H947 0.985 . S
C942 C936 1.379 . S
C942 C939 1.363 1_556 S
C942 N940 1.356 . S
C943 C937 1.363 . S
C943 C938 1.379 . S
C943 N941 1.356 . S
N944 C936 1.356 . S
N944 H950 0.984 . S
N944 H951 0.984 . S
N945 C938 1.356 . S
N945 H948 0.984 . S
N945 H949 0.985 . S
H946 N941 0.984 . S
H947 N941 0.985 . S
H948 N945 0.984 . S
H949 N945 0.985 . S
H950 N944 0.984 . S
H951 N944 0.984 . S
H952 N940 0.984 . S
H953 N940 0.985 . S
C954 C955 1.363 . S
C954 C960 1.379 . S
C954 N962 1.356 . S
C955 C954 1.363 . S
C955 C961 1.363 . S
C956 C957 1.363 . S
C956 C961 1.379 . S
C956 N963 1.356 1_554 S
C957 C956 1.363 . S
C957 C960 1.363 . S
N958 C960 1.356 . S
N958 H970 0.984 . S
N958 H971 0.985 . S
N959 C961 1.356 1_556 S
N959 H964 0.984 1_556 S
N959 H965 0.985 . S
C960 C954 1.379 . S
C960 C957 1.363 . S
C960 N958 1.356 . S
C961 C955 1.363 . S
C961 C956 1.379 . S
C961 N959 1.356 1_554 S
N962 C954 1.356 . S
N962 H968 0.984 . S
N962 H969 0.984 . S
N963 C956 1.356 1_556 S
N963 H966 0.984 . S
N963 H967 0.985 . S
H964 N959 0.984 1_554 S
H965 N959 0.985 . S
H966 N963 0.984 . S
H967 N963 0.985 . S
H968 N962 0.984 . S
H969 N962 0.984 . S
H970 N958 0.984 . S
H971 N958 0.985 . S
C972 C973 1.363 . S
C972 C978 1.379 . S
C972 N980 1.356 1_554 S
C973 C972 1.363 . S
C973 C979 1.363 . S
C974 C975 1.363 . S
C974 C979 1.379 . S
C974 N981 1.356 . S
C975 C974 1.363 . S
C975 C978 1.363 . S
N976 C978 1.356 1_556 S
N976 H988 0.984 . S
N976 H989 0.985 1_556 S
N977 C979 1.356 1_565 S
N977 H982 0.984 . S
N977 H983 0.985 . S
C978 C972 1.379 . S
C978 C975 1.363 . S
C978 N976 1.356 1_554 S
C979 C973 1.363 . S
C979 C974 1.379 . S
C979 N977 1.356 1_545 S
N980 C972 1.356 1_556 S
N980 H986 0.984 . S
N980 H987 0.984 . S
N981 C974 1.356 . S
N981 H984 0.984 . S
N981 H985 0.985 1_545 S
H982 N977 0.984 . S
H983 N977 0.985 . S
H984 N981 0.984 . S
H985 N981 0.985 1_565 S
H986 N980 0.984 . S
H987 N980 0.984 . S
H988 N976 0.984 . S
H989 N976 0.985 1_554 S
C990 C991 1.363 . S
C990 C996 1.379 . S
C990 N998 1.356 . S
C991 C990 1.363 . S
C991 C997 1.363 . S
C992 C993 1.363 . S
C992 C997 1.379 . S
C992 N999 1.356 . S
C993 C992 1.363 . S
C993 C996 1.363 . S
N994 C996 1.356 . S
N994 H1006 0.984 . S
N994 H1007 0.985 . S
N995 C997 1.356 . S
N995 H1000 0.984 . S
N995 H1001 0.985 . S
C996 C990 1.379 . S
C996 C993 1.363 . S
C996 N994 1.356 . S
C997 C991 1.363 . S
C997 C992 1.379 . S
C997 N995 1.356 . S
N998 C990 1.356 . S
N998 H1004 0.984 . S
N998 H1005 0.984 . S
N999 C992 1.356 . S
N999 H1002 0.984 . S
N999 H1003 0.985 . S
H1000 N995 0.984 . S
H1001 N995 0.985 . S
H1002 N999 0.984 . S
H1003 N999 0.985 . S
H1004 N998 0.984 . S
H1005 N998 0.984 . S
H1006 N994 0.984 . S
H1007 N994 0.985 . S
C1008 C1009 1.363 . S
C1008 C1014 1.379 . S
C1008 N1016 1.356 . S
C1009 C1008 1.363 . S
C1009 C1015 1.363 . S
C1010 C1011 1.363 . S
C1010 C1015 1.379 . S
C1010 N1017 1.356 . S
C1011 C1010 1.363 . S
C1011 C1014 1.363 . S
N1012 C1014 1.356 . S
N1012 H1024 0.984 . S
N1012 H1025 0.985 . S
N1013 C1015 1.356 . S
N1013 H1018 0.984 . S
N1013 H1019 0.985 . S
C1014 C1008 1.379 . S
C1014 C1011 1.363 . S
C1014 N1012 1.356 . S
C1015 C1009 1.363 . S
C1015 C1010 1.379 . S
C1015 N1013 1.356 . S
N1016 C1008 1.356 . S
N1016 H1022 0.984 . S
N1016 H1023 0.984 . S
N1017 C1010 1.356 . S
N1017 H1020 0.984 . S
N1017 H1021 0.985 . S
H1018 N1013 0.984 . S
H1019 N1013 0.985 . S
H1020 N1017 0.984 . S
H1021 N1017 0.985 . S
H1022 N1016 0.984 . S
H1023 N1016 0.984 . S
H1024 N1012 0.984 . S
H1025 N1012 0.985 . S
C1026 C1027 1.363 . S
C1026 C1032 1.379 . S
C1026 N1034 1.356 . S
C1027 C1026 1.363 . S
C1027 C1033 1.363 . S
C1028 C1029 1.363 . S
C1028 C1033 1.379 . S
C1028 N1035 1.356 . S
C1029 C1028 1.363 . S
C1029 C1032 1.363 . S
N1030 C1032 1.356 . S
N1030 H1042 0.984 . S
N1030 H1043 0.985 . S
N1031 C1033 1.356 . S
N1031 H1036 0.984 . S
N1031 H1037 0.985 . S
C1032 C1026 1.379 . S
C1032 C1029 1.363 . S
C1032 N1030 1.356 . S
C1033 C1027 1.363 . S
C1033 C1028 1.379 . S
C1033 N1031 1.356 . S
N1034 C1026 1.356 . S
N1034 H1040 0.984 . S
N1034 H1041 0.984 . S
N1035 C1028 1.356 . S
N1035 H1038 0.984 . S
N1035 H1039 0.985 . S
H1036 N1031 0.984 . S
H1037 N1031 0.985 . S
H1038 N1035 0.984 . S
H1039 N1035 0.985 . S
H1040 N1034 0.984 . S
H1041 N1034 0.984 . S
H1042 N1030 0.984 . S
H1043 N1030 0.985 . S
C1044 C1045 1.363 . S
C1044 C1050 1.379 . S
C1044 N1052 1.356 . S
C1045 C1044 1.363 . S
C1045 C1051 1.363 . S
C1046 C1047 1.363 . S
C1046 C1051 1.379 . S
C1046 N1053 1.356 . S
C1047 C1046 1.363 . S
C1047 C1050 1.363 . S
N1048 C1050 1.356 . S
N1048 H1060 0.984 . S
N1048 H1061 0.985 . S
N1049 C1051 1.356 . S
N1049 H1054 0.984 . S
N1049 H1055 0.985 . S
C1050 C1044 1.379 . S
C1050 C1047 1.363 . S
C1050 N1048 1.356 . S
C1051 C1045 1.363 . S
C1051 C1046 1.379 . S
C1051 N1049 1.356 . S
N1052 C1044 1.356 . S
N1052 H1058 0.984 . S
N1052 H1059 0.984 . S
N1053 C1046 1.356 . S
N1053 H1056 0.984 . S
N1053 H1057 0.985 . S
H1054 N1049 0.984 . S
H1055 N1049 0.985 . S
H1056 N1053 0.984 . S
H1057 N1053 0.985 . S
H1058 N1052 0.984 . S
H1059 N1052 0.984 . S
H1060 N1048 0.984 . S
H1061 N1048 0.985 . S
C1062 C1063 1.363 . S
C1062 C1068 1.379 . S
C1062 N1070 1.356 . S
C1063 C1062 1.363 . S
C1063 C1069 1.363 . S
C1064 C1065 1.363 . S
C1064 C1069 1.379 . S
C1064 N1071 1.356 . S
C1065 C1064 1.363 . S
C1065 C1068 1.363 . S
N1066 C1068 1.356 . S
N1066 H1078 0.984 . S
N1066 H1079 0.985 . S
N1067 C1069 1.356 . S
N1067 H1072 0.984 . S
N1067 H1073 0.985 . S
C1068 C1062 1.379 . S
C1068 C1065 1.363 . S
C1068 N1066 1.356 . S
C1069 C1063 1.363 . S
C1069 C1064 1.379 . S
C1069 N1067 1.356 . S
N1070 C1062 1.356 . S
N1070 H1076 0.984 . S
N1070 H1077 0.984 . S
N1071 C1064 1.356 . S
N1071 H1074 0.984 . S
N1071 H1075 0.985 . S
H1072 N1067 0.984 . S
H1073 N1067 0.985 . S
H1074 N1071 0.984 . S
H1075 N1071 0.985 . S
H1076 N1070 0.984 . S
H1077 N1070 0.984 . S
H1078 N1066 0.984 . S
H1079 N1066 0.985 . S
C1080 C1081 1.363 . S
C1080 C1086 1.379 . S
C1080 N1088 1.356 . S
C1081 C1080 1.363 . S
C1081 C1087 1.363 . S
C1082 C1083 1.363 . S
C1082 C1087 1.379 . S
C1082 N1089 1.356 . S
C1083 C1082 1.363 . S
C1083 C1086 1.363 . S
N1084 C1086 1.356 . S
N1084 H1096 0.984 . S
N1084 H1097 0.985 . S
N1085 C1087 1.356 . S
N1085 H1090 0.984 . S
N1085 H1091 0.985 . S
C1086 C1080 1.379 . S
C1086 C1083 1.363 . S
C1086 N1084 1.356 . S
C1087 C1081 1.363 . S
C1087 C1082 1.379 . S
C1087 N1085 1.356 . S
N1088 C1080 1.356 . S
N1088 H1094 0.984 . S
N1088 H1095 0.984 . S
N1089 C1082 1.356 . S
N1089 H1092 0.984 . S
N1089 H1093 0.985 . S
H1090 N1085 0.984 . S
H1091 N1085 0.985 . S
H1092 N1089 0.984 . S
H1093 N1089 0.985 . S
H1094 N1088 0.984 . S
H1095 N1088 0.984 . S
H1096 N1084 0.984 . S
H1097 N1084 0.985 . S
C1098 C1099 1.363 . S
C1098 C1104 1.379 . S
C1098 N1106 1.356 . S
C1099 C1098 1.363 . S
C1099 C1105 1.363 . S
C1100 C1101 1.363 . S
C1100 C1105 1.379 . S
C1100 N1107 1.356 . S
C1101 C1100 1.363 . S
C1101 C1104 1.363 . S
N1102 C1104 1.356 . S
N1102 H1114 0.984 . S
N1102 H1115 0.985 . S
N1103 C1105 1.356 . S
N1103 H1108 0.984 . S
N1103 H1109 0.985 . S
C1104 C1098 1.379 . S
C1104 C1101 1.363 . S
C1104 N1102 1.356 . S
C1105 C1099 1.363 . S
C1105 C1100 1.379 . S
C1105 N1103 1.356 . S
N1106 C1098 1.356 . S
N1106 H1112 0.984 . S
N1106 H1113 0.984 . S
N1107 C1100 1.356 . S
N1107 H1110 0.984 . S
N1107 H1111 0.985 . S
H1108 N1103 0.984 . S
H1109 N1103 0.985 . S
H1110 N1107 0.984 . S
H1111 N1107 0.985 . S
H1112 N1106 0.984 . S
H1113 N1106 0.984 . S
H1114 N1102 0.984 . S
H1115 N1102 0.985 . S
C1116 C1117 1.363 . S
C1116 C1122 1.379 . S
C1116 N1124 1.356 . S
C1117 C1116 1.363 . S
C1117 C1123 1.363 . S
C1118 C1119 1.363 . S
C1118 C1123 1.379 . S
C1118 N1125 1.356 . S
C1119 C1118 1.363 . S
C1119 C1122 1.363 . S
N1120 C1122 1.356 . S
N1120 H1132 0.984 . S
N1120 H1133 0.985 . S
N1121 C1123 1.356 . S
N1121 H1126 0.984 . S
N1121 H1127 0.985 . S
C1122 C1116 1.379 . S
C1122 C1119 1.363 . S
C1122 N1120 1.356 . S
C1123 C1117 1.363 . S
C1123 C1118 1.379 . S
C1123 N1121 1.356 . S
N1124 C1116 1.356 . S
N1124 H1130 0.984 . S
N1124 H1131 0.984 . S
N1125 C1118 1.356 . S
N1125 H1128 0.984 . S
N1125 H1129 0.985 . S
H1126 N1121 0.984 . S
H1127 N1121 0.985 . S
H1128 N1125 0.984 . S
H1129 N1125 0.985 . S
H1130 N1124 0.984 . S
H1131 N1124 0.984 . S
H1132 N1120 0.984 . S
H1133 N1120 0.985 . S
C1134 C1135 1.363 1_565 S
C1134 C1140 1.379 . S
C1134 N1142 1.356 . S
C1135 C1134 1.363 1_545 S
C1135 C1141 1.363 . S
C1136 C1137 1.363 1_545 S
C1136 C1141 1.379 . S
C1136 N1143 1.356 . S
C1137 C1136 1.363 1_565 S
C1137 C1140 1.363 . S
N1138 C1140 1.356 . S
N1138 H1150 0.984 . S
N1138 H1151 0.985 . S
N1139 C1141 1.356 . S
N1139 H1144 0.984 . S
N1139 H1145 0.985 . S
C1140 C1134 1.379 . S
C1140 C1137 1.363 . S
C1140 N1138 1.356 . S
C1141 C1135 1.363 . S
C1141 C1136 1.379 . S
C1141 N1139 1.356 . S
N1142 C1134 1.356 . S
N1142 H1148 0.984 . S
N1142 H1149 0.984 . S
N1143 C1136 1.356 . S
N1143 H1146 0.984 . S
N1143 H1147 0.985 . S
H1144 N1139 0.984 . S
H1145 N1139 0.985 . S
H1146 N1143 0.984 . S
H1147 N1143 0.985 . S
H1148 N1142 0.984 . S
H1149 N1142 0.984 . S
H1150 N1138 0.984 . S
H1151 N1138 0.985 . S
C1152 C1153 1.363 . S
C1152 C1158 1.379 . S
C1152 N1160 1.356 1_556 S
C1153 C1152 1.363 . S
C1153 C1159 1.363 . S
C1154 C1155 1.363 . S
C1154 C1159 1.379 . S
C1154 N1161 1.356 . S
C1155 C1154 1.363 . S
C1155 C1158 1.363 . S
N1156 C1158 1.356 . S
N1156 H1168 0.984 . S
N1156 H1169 0.985 . S
N1157 C1159 1.356 . S
N1157 H1162 0.984 1_556 S
N1157 H1163 0.985 . S
C1158 C1152 1.379 . S
C1158 C1155 1.363 . S
C1158 N1156 1.356 . S
C1159 C1153 1.363 . S
C1159 C1154 1.379 . S
C1159 N1157 1.356 . S
N1160 C1152 1.356 1_554 S
N1160 H1166 0.984 . S
N1160 H1167 0.984 . S
N1161 C1154 1.356 . S
N1161 H1164 0.984 . S
N1161 H1165 0.985 . S
H1162 N1157 0.984 1_554 S
H1163 N1157 0.985 . S
H1164 N1161 0.984 . S
H1165 N1161 0.985 . S
H1166 N1160 0.984 . S
H1167 N1160 0.984 . S
H1168 N1156 0.984 . S
H1169 N1156 0.985 . S
C1170 C1171 1.363 . S
C1170 C1176 1.379 . S
C1170 N1178 1.356 . S
C1171 C1170 1.363 . S
C1171 C1177 1.363 . S
C1172 C1173 1.363 . S
C1172 C1177 1.379 . S
C1172 N1179 1.356 . S
C1173 C1172 1.363 . S
C1173 C1176 1.363 . S
N1174 C1176 1.356 . S
N1174 H1186 0.984 . S
N1174 H1187 0.985 . S
N1175 C1177 1.356 1_554 S
N1175 H1180 0.984 1_655 S
N1175 H1181 0.985 . S
C1176 C1170 1.379 . S
C1176 C1173 1.363 . S
C1176 N1174 1.356 . S
C1177 C1171 1.363 . S
C1177 C1172 1.379 . S
C1177 N1175 1.356 1_556 S
N1178 C1170 1.356 . S
N1178 H1184 0.984 . S
N1178 H1185 0.984 1_655 S
N1179 C1172 1.356 . S
N1179 H1182 0.984 . S
N1179 H1183 0.985 . S
H1180 N1175 0.984 1_455 S
H1181 N1175 0.985 . S
H1182 N1179 0.984 . S
H1183 N1179 0.985 . S
H1184 N1178 0.984 . S
H1185 N1178 0.984 1_455 S
H1186 N1174 0.984 . S
H1187 N1174 0.985 . S
C1188 C1189 1.363 . S
C1188 C1194 1.379 . S
C1188 N1196 1.356 . S
C1189 C1188 1.363 . S
C1189 C1195 1.363 . S
C1190 C1191 1.363 . S
C1190 C1195 1.379 . S
C1190 N1197 1.356 . S
C1191 C1190 1.363 . S
C1191 C1194 1.363 . S
N1192 C1194 1.356 1_554 S
N1192 H1204 0.984 . S
N1192 H1205 0.985 . S
N1193 C1195 1.356 . S
N1193 H1198 0.984 . S
N1193 H1199 0.985 . S
C1194 C1188 1.379 . S
C1194 C1191 1.363 . S
C1194 N1192 1.356 1_556 S
C1195 C1189 1.363 . S
C1195 C1190 1.379 . S
C1195 N1193 1.356 . S
N1196 C1188 1.356 . S
N1196 H1202 0.984 . S
N1196 H1203 0.984 . S
N1197 C1190 1.356 . S
N1197 H1200 0.984 1_556 S
N1197 H1201 0.985 . S
H1198 N1193 0.984 . S
H1199 N1193 0.985 . S
H1200 N1197 0.984 1_554 S
H1201 N1197 0.985 . S
H1202 N1196 0.984 . S
H1203 N1196 0.984 . S
H1204 N1192 0.984 . S
H1205 N1192 0.985 . S
C1206 C1207 1.363 . S
C1206 C1212 1.379 . S
C1206 N1214 1.356 1_556 S
C1207 C1206 1.363 . S
C1207 C1213 1.363 . S
C1208 C1209 1.363 . S
C1208 C1213 1.379 . S
C1208 N1215 1.356 . S
C1209 C1208 1.363 . S
C1209 C1212 1.363 . S
N1210 C1212 1.356 . S
N1210 H1222 0.984 . S
N1210 H1223 0.985 . S
N1211 C1213 1.356 . S
N1211 H1216 0.984 . S
N1211 H1217 0.985 . S
C1212 C1206 1.379 . S
C1212 C1209 1.363 . S
C1212 N1210 1.356 . S
C1213 C1207 1.363 . S
C1213 C1208 1.379 . S
C1213 N1211 1.356 . S
N1214 C1206 1.356 1_554 S
N1214 H1220 0.984 . S
N1214 H1221 0.984 . S
N1215 C1208 1.356 . S
N1215 H1218 0.984 . S
N1215 H1219 0.985 . S
H1216 N1211 0.984 . S
H1217 N1211 0.985 . S
H1218 N1215 0.984 . S
H1219 N1215 0.985 . S
H1220 N1214 0.984 . S
H1221 N1214 0.984 . S
H1222 N1210 0.984 . S
H1223 N1210 0.985 . S
C1224 C1225 1.363 1_556 S
C1224 C1230 1.379 . S
C1224 N1232 1.356 . S
C1225 C1224 1.363 1_554 S
C1225 C1231 1.363 . S
C1226 C1227 1.363 . S
C1226 C1231 1.379 1_556 S
C1226 N1233 1.356 . S
C1227 C1226 1.363 . S
C1227 C1230 1.363 . S
N1228 C1230 1.356 . S
N1228 H1240 0.984 . S
N1228 H1241 0.985 . S
N1229 C1231 1.356 . S
N1229 H1234 0.984 . S
N1229 H1235 0.985 . S
C1230 C1224 1.379 . S
C1230 C1227 1.363 . S
C1230 N1228 1.356 . S
C1231 C1225 1.363 . S
C1231 C1226 1.379 1_554 S
C1231 N1229 1.356 . S
N1232 C1224 1.356 . S
N1232 H1238 0.984 . S
N1232 H1239 0.984 . S
N1233 C1226 1.356 . S
N1233 H1236 0.984 . S
N1233 H1237 0.985 1_556 S
H1234 N1229 0.984 . S
H1235 N1229 0.985 . S
H1236 N1233 0.984 . S
H1237 N1233 0.985 1_554 S
H1238 N1232 0.984 . S
H1239 N1232 0.984 . S
H1240 N1228 0.984 . S
H1241 N1228 0.985 . S
C1242 C1243 1.363 . S
C1242 C1248 1.379 . S
C1242 N1250 1.356 . S
C1243 C1242 1.363 . S
C1243 C1249 1.363 . S
C1244 C1245 1.363 . S
C1244 C1249 1.379 . S
C1244 N1251 1.356 . S
C1245 C1244 1.363 . S
C1245 C1248 1.363 . S
N1246 C1248 1.356 1_554 S
N1246 H1258 0.984 . S
N1246 H1259 0.985 . S
N1247 C1249 1.356 . S
N1247 H1252 0.984 . S
N1247 H1253 0.985 . S
C1248 C1242 1.379 . S
C1248 C1245 1.363 . S
C1248 N1246 1.356 1_556 S
C1249 C1243 1.363 . S
C1249 C1244 1.379 . S
C1249 N1247 1.356 . S
N1250 C1242 1.356 . S
N1250 H1256 0.984 . S
N1250 H1257 0.984 . S
N1251 C1244 1.356 . S
N1251 H1254 0.984 . S
N1251 H1255 0.985 . S
H1252 N1247 0.984 . S
H1253 N1247 0.985 . S
H1254 N1251 0.984 . S
H1255 N1251 0.985 . S
H1256 N1250 0.984 . S
H1257 N1250 0.984 . S
H1258 N1246 0.984 . S
H1259 N1246 0.985 . S
C1260 C1261 1.363 . S
C1260 C1266 1.379 . S
C1260 N1268 1.356 . S
C1261 C1260 1.363 . S
C1261 C1267 1.363 . S
C1262 C1263 1.363 . S
C1262 C1267 1.379 . S
C1262 N1269 1.356 . S
C1263 C1262 1.363 . S
C1263 C1266 1.363 . S
N1264 C1266 1.356 . S
N1264 H1276 0.984 . S
N1264 H1277 0.985 . S
N1265 C1267 1.356 . S
N1265 H1270 0.984 . S
N1265 H1271 0.985 . S
C1266 C1260 1.379 . S
C1266 C1263 1.363 . S
C1266 N1264 1.356 . S
C1267 C1261 1.363 . S
C1267 C1262 1.379 . S
C1267 N1265 1.356 . S
N1268 C1260 1.356 . S
N1268 H1274 0.984 . S
N1268 H1275 0.984 . S
N1269 C1262 1.356 . S
N1269 H1272 0.984 . S
N1269 H1273 0.985 . S
H1270 N1265 0.984 . S
H1271 N1265 0.985 . S
H1272 N1269 0.984 . S
H1273 N1269 0.985 . S
H1274 N1268 0.984 . S
H1275 N1268 0.984 . S
H1276 N1264 0.984 . S
H1277 N1264 0.985 . S
C1278 C1279 1.363 . S
C1278 C1284 1.379 . S
C1278 N1286 1.356 . S
C1279 C1278 1.363 . S
C1279 C1285 1.363 . S
C1280 C1281 1.363 . S
C1280 C1285 1.379 . S
C1280 N1287 1.356 . S
C1281 C1280 1.363 . S
C1281 C1284 1.363 . S
N1282 C1284 1.356 . S
N1282 H1294 0.984 . S
N1282 H1295 0.985 . S
N1283 C1285 1.356 . S
N1283 H1288 0.984 . S
N1283 H1289 0.985 1_455 S
C1284 C1278 1.379 . S
C1284 C1281 1.363 . S
C1284 N1282 1.356 . S
C1285 C1279 1.363 . S
C1285 C1280 1.379 . S
C1285 N1283 1.356 . S
N1286 C1278 1.356 . S
N1286 H1292 0.984 . S
N1286 H1293 0.984 . S
N1287 C1280 1.356 . S
N1287 H1290 0.984 . S
N1287 H1291 0.985 . S
H1288 N1283 0.984 . S
H1289 N1283 0.985 1_655 S
H1290 N1287 0.984 . S
H1291 N1287 0.985 . S
H1292 N1286 0.984 . S
H1293 N1286 0.984 . S
H1294 N1282 0.984 . S
H1295 N1282 0.985 . S
C1296 C1297 1.363 . S
C1296 C1302 1.379 . S
C1296 N1304 1.356 . S
C1297 C1296 1.363 . S
C1297 C1303 1.363 . S
C1298 C1299 1.363 . S
C1298 C1303 1.379 . S
C1298 N1305 1.356 . S
C1299 C1298 1.363 . S
C1299 C1302 1.363 . S
N1300 C1302 1.356 . S
N1300 H1312 0.984 . S
N1300 H1313 0.985 . S
N1301 C1303 1.356 . S
N1301 H1306 0.984 . S
N1301 H1307 0.985 . S
C1302 C1296 1.379 . S
C1302 C1299 1.363 . S
C1302 N1300 1.356 . S
C1303 C1297 1.363 . S
C1303 C1298 1.379 . S
C1303 N1301 1.356 . S
N1304 C1296 1.356 . S
N1304 H1310 0.984 . S
N1304 H1311 0.984 . S
N1305 C1298 1.356 . S
N1305 H1308 0.984 . S
N1305 H1309 0.985 . S
H1306 N1301 0.984 . S
H1307 N1301 0.985 . S
H1308 N1305 0.984 . S
H1309 N1305 0.985 . S
H1310 N1304 0.984 . S
H1311 N1304 0.984 . S
H1312 N1300 0.984 . S
H1313 N1300 0.985 . S
C1314 C1315 1.363 . S
C1314 C1320 1.379 . S
C1314 N1322 1.356 . S
C1315 C1314 1.363 . S
C1315 C1321 1.363 . S
C1316 C1317 1.363 . S
C1316 C1321 1.379 . S
C1316 N1323 1.356 . S
C1317 C1316 1.363 . S
C1317 C1320 1.363 . S
N1318 C1320 1.356 . S
N1318 H1330 0.984 . S
N1318 H1331 0.985 . S
N1319 C1321 1.356 . S
N1319 H1324 0.984 . S
N1319 H1325 0.985 . S
C1320 C1314 1.379 . S
C1320 C1317 1.363 . S
C1320 N1318 1.356 . S
C1321 C1315 1.363 . S
C1321 C1316 1.379 . S
C1321 N1319 1.356 . S
N1322 C1314 1.356 . S
N1322 H1328 0.984 . S
N1322 H1329 0.984 . S
N1323 C1316 1.356 . S
N1323 H1326 0.984 . S
N1323 H1327 0.985 . S
H1324 N1319 0.984 . S
H1325 N1319 0.985 . S
H1326 N1323 0.984 . S
H1327 N1323 0.985 . S
H1328 N1322 0.984 . S
H1329 N1322 0.984 . S
H1330 N1318 0.984 . S
H1331 N1318 0.985 . S
C1332 C1333 1.363 . S
C1332 C1338 1.379 . S
C1332 N1340 1.356 . S
C1333 C1332 1.363 . S
C1333 C1339 1.363 . S
C1334 C1335 1.363 . S
C1334 C1339 1.379 . S
C1334 N1341 1.356 . S
C1335 C1334 1.363 . S
C1335 C1338 1.363 . S
N1336 C1338 1.356 . S
N1336 H1348 0.984 . S
N1336 H1349 0.985 . S
N1337 C1339 1.356 . S
N1337 H1342 0.984 . S
N1337 H1343 0.985 . S
C1338 C1332 1.379 . S
C1338 C1335 1.363 . S
C1338 N1336 1.356 . S
C1339 C1333 1.363 . S
C1339 C1334 1.379 . S
C1339 N1337 1.356 . S
N1340 C1332 1.356 . S
N1340 H1346 0.984 . S
N1340 H1347 0.984 . S
N1341 C1334 1.356 . S
N1341 H1344 0.984 . S
N1341 H1345 0.985 . S
H1342 N1337 0.984 . S
H1343 N1337 0.985 . S
H1344 N1341 0.984 . S
H1345 N1341 0.985 . S
H1346 N1340 0.984 . S
H1347 N1340 0.984 . S
H1348 N1336 0.984 . S
H1349 N1336 0.985 . S
C1350 C1351 1.363 . S
C1350 C1356 1.379 . S
C1350 N1358 1.356 . S
C1351 C1350 1.363 . S
C1351 C1357 1.363 1_455 S
C1352 C1353 1.363 . S
C1352 C1357 1.379 . S
C1352 N1359 1.356 . S
C1353 C1352 1.363 . S
C1353 C1356 1.363 1_655 S
N1354 C1356 1.356 . S
N1354 H1366 0.984 . S
N1354 H1367 0.985 1_455 S
N1355 C1357 1.356 . S
N1355 H1360 0.984 1_655 S
N1355 H1361 0.985 . S
C1356 C1350 1.379 . S
C1356 C1353 1.363 1_455 S
C1356 N1354 1.356 . S
C1357 C1351 1.363 1_655 S
C1357 C1352 1.379 . S
C1357 N1355 1.356 . S
N1358 C1350 1.356 . S
N1358 H1364 0.984 . S
N1358 H1365 0.984 . S
N1359 C1352 1.356 . S
N1359 H1362 0.984 . S
N1359 H1363 0.985 . S
H1360 N1355 0.984 1_455 S
H1361 N1355 0.985 . S
H1362 N1359 0.984 . S
H1363 N1359 0.985 . S
H1364 N1358 0.984 . S
H1365 N1358 0.984 . S
H1366 N1354 0.984 . S
H1367 N1354 0.985 1_655 S
C1368 C1369 1.363 . S
C1368 C1374 1.379 . S
C1368 N1376 1.356 . S
C1369 C1368 1.363 . S
C1369 C1375 1.363 . S
C1370 C1371 1.363 . S
C1370 C1375 1.379 . S
C1370 N1377 1.356 . S
C1371 C1370 1.363 . S
C1371 C1374 1.363 . S
N1372 C1374 1.356 . S
N1372 H1384 0.984 . S
N1372 H1385 0.985 . S
N1373 C1375 1.356 . S
N1373 H1378 0.984 . S
N1373 H1379 0.985 . S
C1374 C1368 1.379 . S
C1374 C1371 1.363 . S
C1374 N1372 1.356 . S
C1375 C1369 1.363 . S
C1375 C1370 1.379 . S
C1375 N1373 1.356 . S
N1376 C1368 1.356 . S
N1376 H1382 0.984 . S
N1376 H1383 0.984 . S
N1377 C1370 1.356 . S
N1377 H1380 0.984 . S
N1377 H1381 0.985 . S
H1378 N1373 0.984 . S
H1379 N1373 0.985 . S
H1380 N1377 0.984 . S
H1381 N1377 0.985 . S
H1382 N1376 0.984 . S
H1383 N1376 0.984 . S
H1384 N1372 0.984 . S
H1385 N1372 0.985 . S
C1386 C1387 1.363 . S
C1386 C1392 1.379 . S
C1386 N1394 1.356 . S
C1387 C1386 1.363 . S
C1387 C1393 1.363 . S
C1388 C1389 1.363 . S
C1388 C1393 1.379 . S
C1388 N1395 1.356 . S
C1389 C1388 1.363 . S
C1389 C1392 1.363 . S
N1390 C1392 1.356 . S
N1390 H1402 0.984 . S
N1390 H1403 0.985 . S
N1391 C1393 1.356 . S
N1391 H1396 0.984 . S
N1391 H1397 0.985 . S
C1392 C1386 1.379 . S
C1392 C1389 1.363 . S
C1392 N1390 1.356 . S
C1393 C1387 1.363 . S
C1393 C1388 1.379 . S
C1393 N1391 1.356 . S
N1394 C1386 1.356 . S
N1394 H1400 0.984 . S
N1394 H1401 0.984 . S
N1395 C1388 1.356 . S
N1395 H1398 0.984 . S
N1395 H1399 0.985 . S
H1396 N1391 0.984 . S
H1397 N1391 0.985 . S
H1398 N1395 0.984 . S
H1399 N1395 0.985 . S
H1400 N1394 0.984 . S
H1401 N1394 0.984 . S
H1402 N1390 0.984 . S
H1403 N1390 0.985 . S
C1404 C1405 1.363 . S
C1404 C1410 1.379 . S
C1404 N1412 1.356 . S
C1405 C1404 1.363 . S
C1405 C1411 1.363 . S
C1406 C1407 1.363 . S
C1406 C1411 1.379 . S
C1406 N1413 1.356 . S
C1407 C1406 1.363 . S
C1407 C1410 1.363 . S
N1408 C1410 1.356 1_455 S
N1408 H1420 0.984 . S
N1408 H1421 0.985 . S
N1409 C1411 1.356 . S
N1409 H1414 0.984 . S
N1409 H1415 0.985 . S
C1410 C1404 1.379 . S
C1410 C1407 1.363 . S
C1410 N1408 1.356 1_655 S
C1411 C1405 1.363 . S
C1411 C1406 1.379 . S
C1411 N1409 1.356 . S
N1412 C1404 1.356 . S
N1412 H1418 0.984 . S
N1412 H1419 0.984 . S
N1413 C1406 1.356 . S
N1413 H1416 0.984 1_655 S
N1413 H1417 0.985 . S
H1414 N1409 0.984 . S
H1415 N1409 0.985 . S
H1416 N1413 0.984 1_455 S
H1417 N1413 0.985 . S
H1418 N1412 0.984 . S
H1419 N1412 0.984 . S
H1420 N1408 0.984 . S
H1421 N1408 0.985 . S
C613 C5 1.490 . S
C615 C9 1.563 . S
C631 C39 1.570 . S
C633 C43 1.665 . S
C649 C77 1.582 . S
C651 C73 1.500 . S
C667 C111 1.579 . S
C669 C107 1.499 . S
C685 C141 1.563 . S
C687 C145 1.657 . S
C703 C175 1.565 . S
C705 C179 1.659 . S
C721 C213 1.481 . S
C723 C209 1.421 . S
C739 C247 1.660 . S
C741 C243 1.565 . S
C757 C281 1.573 . S
C759 C277 1.498 . S
C775 C311 1.433 . S
C777 C315 1.493 . S
C793 C349 1.673 . S
C795 C345 1.577 . S
C811 C383 1.576 . S
C813 C379 1.496 . S
C829 C413 1.416 . S
C831 C417 1.474 . S
C847 C447 1.486 . S
C849 C451 1.560 . S
C865 C481 1.492 . S
C867 C485 1.571 . S
C883 C515 1.423 . S
C885 C519 1.483 . S
C901 C553 1.584 . S
C903 C549 1.509 . S
C919 C583 1.422 . S
C921 C587 1.482 . S
C937 C122 1.565 . S
C939 C20 1.555 . S
C955 C156 1.530 . S
C957 C54 1.527 . S
C973 C190 1.518 . S
C975 C88 1.527 . S
C991 C224 1.393 . S
C993 C326 1.384 . S
C1009 C360 1.469 . S
C1011 C258 1.482 . S
C1027 C394 1.450 . S
C1029 C292 1.439 . S
C1045 C530 1.538 . S
C1047 C428 1.535 . S
C1063 C462 1.513 . S
C1065 C564 1.531 . S
C1081 C496 1.523 . S
C1083 C598 1.509 . S
C1099 C305 1.675 . S
C1101 C2 1.618 . S
C1117 C237 1.623 . S
C1119 C36 1.582 . S
C1135 C101 1.585 . S
C1137 C271 1.585 . S
C1153 C70 1.610 1_556 S
C1155 C410 1.560 . S
C1171 C33 1.810 1_656 S
C1173 C444 1.692 . S
C1189 C509 1.609 . S
C1191 C67 1.632 1_556 S
C1207 C104 1.664 1_556 S
C1209 C580 1.579 . S
C1225 C138 1.589 . S
C1227 C543 1.634 . S
C1243 C577 1.598 . S
C1245 C203 1.637 1_556 S
C1261 C339 1.632 . S
C1263 C172 1.595 . S
C1279 C135 1.565 . S
C1281 C373 1.562 . S
C1297 C169 1.583 . S
C1299 C407 1.564 . S
C1315 C206 1.500 . S
C1317 C478 1.499 . S
C1333 C240 1.589 . S
C1335 C441 1.620 . S
C1351 C274 1.540 . S
C1353 C475 1.570 . S
C1369 C512 1.565 . S
C1371 C376 1.604 . S
C1387 C546 1.478 . S
C1389 C308 1.479 . S
C1405 C611 1.615 . S
C1407 C342 1.598 1_655 S
