# Generated by pormake.
# Topology snk, (6)-cn, num edge types: 1
# Building blocks:
#     Node 0, Type 0, BuildingBlock: VOLQOD_clean_sbu_1, # of connection points: 6
#     Node 1, Type 0, BuildingBlock: VOLQOD_clean_sbu_1, # of connection points: 6
#     Node 2, Type 0, BuildingBlock: VOLQOD_clean_sbu_1, # of connection points: 6
#     Node 3, Type 0, BuildingBlock: VOLQOD_clean_sbu_1, # of connection points: 6
#     Node 4, Type 0, BuildingBlock: VOLQOD_clean_sbu_1, # of connection points: 6
#     Node 5, Type 0, BuildingBlock: VOLQOD_clean_sbu_1, # of connection points: 6
#     Node 6, Type 0, BuildingBlock: VOLQOD_clean_sbu_1, # of connection points: 6
#     Node 7, Type 0, BuildingBlock: VOLQOD_clean_sbu_1, # of connection points: 6
#     Edge 8, Type (0, 0), BuildingBlock: AJUNOK_clean_linker_0, # of connection points: 2
#     Edge 9, Type (0, 0), BuildingBlock: AJUNOK_clean_linker_0, # of connection points: 2
#     Edge 10, Type (0, 0), BuildingBlock: AJUNOK_clean_linker_0, # of connection points: 2
#     Edge 11, Type (0, 0), BuildingBlock: AJUNOK_clean_linker_0, # of connection points: 2
#     Edge 12, Type (0, 0), BuildingBlock: AJUNOK_clean_linker_0, # of connection points: 2
#     Edge 13, Type (0, 0), BuildingBlock: AJUNOK_clean_linker_0, # of connection points: 2
#     Edge 14, Type (0, 0), BuildingBlock: AJUNOK_clean_linker_0, # of connection points: 2
#     Edge 15, Type (0, 0), BuildingBlock: AJUNOK_clean_linker_0, # of connection points: 2
#     Edge 16, Type (0, 0), BuildingBlock: AJUNOK_clean_linker_0, # of connection points: 2
#     Edge 17, Type (0, 0), BuildingBlock: AJUNOK_clean_linker_0, # of connection points: 2
#     Edge 18, Type (0, 0), BuildingBlock: AJUNOK_clean_linker_0, # of connection points: 2
#     Edge 19, Type (0, 0), BuildingBlock: AJUNOK_clean_linker_0, # of connection points: 2
#     Edge 20, Type (0, 0), BuildingBlock: AJUNOK_clean_linker_0, # of connection points: 2
#     Edge 21, Type (0, 0), BuildingBlock: AJUNOK_clean_linker_0, # of connection points: 2
#     Edge 22, Type (0, 0), BuildingBlock: AJUNOK_clean_linker_0, # of connection points: 2
#     Edge 23, Type (0, 0), BuildingBlock: AJUNOK_clean_linker_0, # of connection points: 2
#     Edge 24, Type (0, 0), BuildingBlock: AJUNOK_clean_linker_0, # of connection points: 2
#     Edge 25, Type (0, 0), BuildingBlock: AJUNOK_clean_linker_0, # of connection points: 2
#     Edge 26, Type (0, 0), BuildingBlock: AJUNOK_clean_linker_0, # of connection points: 2
#     Edge 27, Type (0, 0), BuildingBlock: AJUNOK_clean_linker_0, # of connection points: 2
#     Edge 28, Type (0, 0), BuildingBlock: AJUNOK_clean_linker_0, # of connection points: 2
#     Edge 29, Type (0, 0), BuildingBlock: AJUNOK_clean_linker_0, # of connection points: 2
#     Edge 30, Type (0, 0), BuildingBlock: AJUNOK_clean_linker_0, # of connection points: 2
#     Edge 31, Type (0, 0), BuildingBlock: AJUNOK_clean_linker_0, # of connection points: 2
# Relax obj value: 0.176
# Max RMSD: 0.167
# Mean RMSD: 0.167
data_MOF--net-snk--node1-VOLQOD_clean_sbu_1--edge1-AJUNOK_clean_linker_0
_symmetry_space_group_name_H-M    P1
_symmetry_Int_Tables_number       1
_symmetry_cell_setting            triclinic
loop_
_symmetry_equiv_pos_as_xyz
'x, y, z'
_cell_length_a     35.856651
_cell_length_b     35.922927
_cell_length_c     12.499985
_cell_angle_alpha  90.04245
_cell_angle_beta   89.772744
_cell_angle_gamma 90.039181
loop_
_atom_site_label
_atom_site_type_symbol
_atom_site_fract_x
_atom_site_fract_y
_atom_site_fract_z
_atom_type_partial_charge
O0 O 0.04991 0.00443 0.46875 0.0
Zn1 Zn 0.00644 0.03394 0.41501 0.0
O2 O 0.00837 0.08439 0.47181 0.0
Zn3 Zn 0.96557 0.09501 0.56028 0.0
Zn4 Zn 0.05448 0.09137 0.54777 0.0
Zn5 Zn 0.00725 0.12009 0.36181 0.0
O6 O 0.932 0.13541 0.50437 0.0
O7 O 0.95869 0.1452 0.34706 0.0
O8 O 0.96093 0.00735 0.46837 0.0
O9 O 0.93417 0.05035 0.56971 0.0
O10 O 0.98092 0.10121 0.71052 0.0
O11 O 0.04222 0.0922 0.7007 0.0
O12 O 0.08296 0.1369 0.50264 0.0
O13 O 0.00838 0.0344 0.25397 0.0
O14 O 0.0457 0.15834 0.37614 0.0
O15 O 0.01733 0.09514 0.22873 0.0
C16 C 0.08041 0.01351 0.51348 0.0
C17 C 0.93199 0.15038 0.41214 0.0
C18 C 0.01228 0.09539 0.75438 0.0
C19 C 0.93516 0.01761 0.53219 0.0
C20 C 0.07477 0.16123 0.43268 0.0
C21 C 0.01582 0.06209 0.19414 0.0
O22 O 0.08742 0.04708 0.53811 0.0
O23 O 0.31412 0.86333 0.70665 0.0
Zn24 Zn 0.28663 0.8178 0.66104 0.0
O25 O 0.23757 0.81519 0.72696 0.0
Zn26 Zn 0.23307 0.769 0.80426 0.0
Zn27 Zn 0.22889 0.8589 0.81275 0.0
Zn28 Zn 0.19887 0.8146 0.62509 0.0
O29 O 0.19112 0.73632 0.75426 0.0
O30 O 0.162 0.77483 0.64522 0.0
O31 O 0.31877 0.77608 0.71147 0.0
O32 O 0.28039 0.73998 0.80367 0.0
O33 O 0.22706 0.78206 0.95488 0.0
O34 O 0.21962 0.84365 0.96111 0.0
O35 O 0.18997 0.89358 0.7541 0.0
O36 O 0.28258 0.81494 0.50205 0.0
O37 O 0.17275 0.86262 0.60975 0.0
O38 O 0.22153 0.8044 0.48893 0.0
C39 C 0.30664 0.88769 0.77732 0.0
C40 C 0.16399 0.74375 0.69262 0.0
C41 C 0.22287 0.8122 0.00651 0.0
C42 C 0.31273 0.74716 0.76732 0.0
C43 C 0.17131 0.89148 0.668 0.0
C44 C 0.25379 0.8065 0.44816 0.0
O45 O 0.27518 0.8885 0.82401 0.0
O46 O 0.44532 0.1486 0.96809 0.0
Zn47 Zn 0.48814 0.11893 0.91047 0.0
O48 O 0.48581 0.0682 0.96534 0.0
Zn49 Zn 0.52812 0.05769 0.05499 0.0
Zn50 Zn 0.43921 0.06129 0.0406 0.0
Zn51 Zn 0.48731 0.0326 0.85423 0.0
O52 O 0.56079 0.01595 0.00225 0.0
O53 O 0.535 0.00554 0.84449 0.0
O54 O 0.53434 0.14492 0.96094 0.0
O55 O 0.56071 0.1018 0.06186 0.0
O56 O 0.51172 0.05271 0.20519 0.0
O57 O 0.45036 0.06013 0.19412 0.0
O58 O 0.41035 0.01626 -0.0065 0.0
O59 O 0.48537 0.11927 0.74969 0.0
O60 O 0.44708 -0.00421 0.8636 0.0
O61 O 0.48023 0.05825 0.72074 0.0
C62 C 0.4144 0.13953 0.01104 0.0
C63 C 0.56096 9e-05 0.91118 0.0
C64 C 0.47999 0.05756 0.24872 0.0
C65 C 0.56024 0.13442 0.02335 0.0
C66 C 0.41796 0.99272 0.92053 0.0
C67 C 0.48044 0.09155 0.68803 0.0
O68 O 0.40664 0.10581 0.03183 0.0
O69 O 0.17595 0.29228 0.21671 0.0
Zn70 Zn 0.20421 0.33632 0.16325 0.0
O71 O 0.25474 0.33679 0.22084 0.0
Zn72 Zn 0.26223 0.38249 0.29877 0.0
Zn73 Zn 0.26339 0.29331 0.30839 0.0
Zn74 Zn 0.29136 0.3355 0.11154 0.0
O75 O 0.30567 0.41263 0.24801 0.0
O76 O 0.32681 0.37703 0.11703 0.0
O77 O 0.17513 0.38016 0.21565 0.0
O78 O 0.21743 0.41468 0.2978 0.0
O79 O 0.26598 0.37011 0.45032 0.0
O80 O 0.27114 0.30859 0.45826 0.0
O81 O 0.30311 0.25877 0.25204 0.0
O82 O 0.20479 0.33729 0.00295 0.0
O83 O 0.31942 0.28851 0.1043 0.0
O84 O 0.26624 0.34052 -0.02297 0.0
C85 C 0.1846 0.26631 0.281 0.0
C86 C 0.32883 0.40637 0.17297 0.0
C87 C 0.26831 0.34018 0.50345 0.0
C88 C 0.18417 0.40922 0.26754 0.0
C89 C 0.32185 0.26054 0.16557 0.0
C90 C 0.23317 0.34046 0.94249 0.0
O91 O 0.21722 0.2636 0.31908 0.0
O92 O 0.81818 0.36012 0.22124 0.0
Zn93 Zn 0.79037 0.3163 0.16352 0.0
O94 O 0.73947 0.31518 0.21989 0.0
Zn95 Zn 0.73209 0.26935 0.29775 0.0
Zn96 Zn 0.73002 0.35852 0.30804 0.0
Zn97 Zn 0.70327 0.31632 0.1098 0.0
O98 O 0.68832 0.23931 0.24782 0.0
O99 O 0.66872 0.27382 0.11281 0.0
O100 O 0.81932 0.27204 0.21344 0.0
O101 O 0.77684 0.23694 0.29346 0.0
O102 O 0.72938 0.28172 0.45028 0.0
O103 O 0.72242 0.34305 0.4579 0.0
O104 O 0.6898 0.39244 0.25276 0.0
O105 O 0.7905 0.31666 0.00275 0.0
O106 O 0.67401 0.36272 0.10484 0.0
O107 O 0.72919 0.31334 -0.02477 0.0
C108 C 0.80876 0.38625 0.28448 0.0
C109 C 0.66611 0.24492 0.17045 0.0
C110 C 0.72664 0.3117 0.50335 0.0
C111 C 0.81019 0.24257 0.2634 0.0
C112 C 0.67108 0.39053 0.16672 0.0
C113 C 0.76244 0.31421 0.94135 0.0
O114 O 0.77568 0.38909 0.31981 0.0
O115 O 0.67931 0.78808 0.71349 0.0
Zn116 Zn 0.70493 0.83419 0.66253 0.0
O117 O 0.75558 0.8367 0.71831 0.0
Zn118 Zn 0.76158 0.88233 0.79727 0.0
Zn119 Zn 0.76683 0.79346 0.80396 0.0
Zn120 Zn 0.79146 0.83738 0.60773 0.0
O121 O 0.80574 0.91276 0.7522 0.0
O122 O 0.82731 0.8783 0.61917 0.0
O123 O 0.67437 0.8768 0.71809 0.0
O124 O 0.71639 0.914 0.79156 0.0
O125 O 0.76332 0.86941 0.94904 0.0
O126 O 0.77135 0.80807 0.95553 0.0
O127 O 0.80919 0.76203 0.74818 0.0
O128 O 0.70507 0.8362 0.50184 0.0
O129 O 0.81958 0.79058 0.59424 0.0
O130 O 0.76589 0.84491 0.47486 0.0
C131 C 0.69018 0.7615 0.7729 0.0
C132 C 0.82936 0.90694 0.67799 0.0
C133 C 0.76605 0.83925 0.00112 0.0
C134 C 0.68295 0.90691 0.76565 0.0
C135 C 0.82551 0.76378 0.6577 0.0
C136 C 0.73276 0.84304 0.4411 0.0
O137 O 0.72312 0.76037 0.80894 0.0
O138 O 0.54853 0.50269 0.9662 0.0
Zn139 Zn 0.50565 0.53273 0.91114 0.0
O140 O 0.50773 0.58368 0.96543 0.0
Zn141 Zn 0.46463 0.5949 0.05336 0.0
Zn142 Zn 0.55362 0.59014 0.04333 0.0
Zn143 Zn 0.50762 0.61906 0.85357 0.0
O144 O 0.43296 0.63745 0.00047 0.0
O145 O 0.46239 0.64994 0.84892 0.0
O146 O 0.46002 0.50709 0.96547 0.0
O147 O 0.4317 0.55106 0.06006 0.0
O148 O 0.47991 0.59964 0.20439 0.0
O149 O 0.5413 0.59242 0.19592 0.0
O150 O 0.58419 0.63363 -0.00527 0.0
O151 O 0.5066 0.53178 0.7503 0.0
O152 O 0.55091 0.65234 0.85625 0.0
O153 O 0.50998 0.5928 0.71972 0.0
C154 C 0.57856 0.51157 0.01368 0.0
C155 C 0.43549 0.6554 0.91298 0.0
C156 C 0.51128 0.59488 0.24936 0.0
C157 C 0.43342 0.51793 0.02546 0.0
C158 C 0.57932 0.65527 0.9156 0.0
C159 C 0.5091 0.55947 0.68744 0.0
O160 O 0.58546 0.54509 0.03874 0.0
O161 O 0.94811 0.64709 0.46933 0.0
Zn162 Zn 0.99053 0.61541 0.42064 0.0
O163 O 0.98583 0.5661 0.48219 0.0
Zn164 Zn 0.02795 0.55493 0.5711 0.0
Zn165 Zn 0.93871 0.56136 0.55572 0.0
Zn166 Zn 0.98615 0.52949 0.37518 0.0
O167 O 0.06168 0.51494 0.5133 0.0
O168 O 0.03496 0.50517 0.35671 0.0
O169 O 0.03644 0.64118 0.47336 0.0
O170 O 0.05956 0.59956 0.58548 0.0
O171 O 0.0111 0.54682 0.71892 0.0
O172 O 0.95028 0.5591 0.70892 0.0
O173 O 0.90843 0.51696 0.50819 0.0
O174 O 0.98884 0.61307 0.26029 0.0
O175 O 0.94834 0.49091 0.39535 0.0
O176 O 0.97416 0.55319 0.24186 0.0
C177 C 0.91707 0.64038 0.51488 0.0
C178 C 0.06179 0.50015 0.4208 0.0
C179 C 0.97978 0.55371 0.76252 0.0
C180 C 0.06036 0.63156 0.54307 0.0
C181 C 0.91763 0.49048 0.44565 0.0
C182 C 0.97804 0.58561 0.20404 0.0
O183 O 0.90839 0.60771 0.5451 0.0
C184 C 0.13975 0.1848 0.42275 0.0
C185 C 0.10161 0.19057 0.40465 0.0
C186 C 0.16634 0.20924 0.38107 0.0
C187 C 0.15573 0.24042 0.32012 0.0
H188 H 0.14931 0.16048 0.46588 0.0
H189 H 0.19548 0.20328 0.39584 0.0
S190 S 0.05879 0.26992 0.25997 0.0
N191 N 0.05411 0.23104 0.32894 0.0
N192 N 0.10413 0.27715 0.25044 0.0
C193 C 0.11751 0.24721 0.30462 0.0
C194 C 0.09043 0.2223 0.34723 0.0
C195 C 0.10283 0.94797 0.50553 0.0
C196 C 0.106 0.98385 0.54925 0.0
C197 C 0.12389 0.9184 0.54517 0.0
C198 C 0.14881 0.92339 0.63083 0.0
H199 H 0.08361 0.94252 0.44068 0.0
H200 H 0.12027 0.89129 0.50859 0.0
S201 S 0.16776 0.01206 0.77341 0.0
N202 N 0.13629 0.02295 0.68273 0.0
N203 N 0.17594 0.96721 0.75717 0.0
C204 C 0.15255 0.95921 0.67494 0.0
C205 C 0.13124 0.98948 0.63396 0.0
C206 C 0.32592 0.94419 0.87856 0.0
C207 C 0.33576 0.91384 0.81293 0.0
C208 C 0.35293 0.96868 0.91735 0.0
C209 C 0.39076 0.96375 0.89178 0.0
H210 H 0.29704 0.94938 0.89954 0.0
H211 H 0.34389 0.99226 0.96491 0.0
S212 S 0.43171 0.88662 0.7319 0.0
N213 N 0.38637 0.87878 0.7302 0.0
N214 N 0.4372 0.92487 0.8033 0.0
C215 C 0.4012 0.93288 0.82907 0.0
C216 C 0.37368 0.90796 0.78935 0.0
C217 C 0.39355 0.20557 0.00953 0.0
C218 C 0.38895 0.16916 0.0483 0.0
C219 C 0.37212 0.23488 0.04955 0.0
C220 C 0.34538 0.22908 0.13062 0.0
H221 H 0.41402 0.21161 0.94795 0.0
H222 H 0.37672 0.2624 0.01659 0.0
S223 S 0.3225 0.13897 0.2603 0.0
N224 N 0.35564 0.1288 0.17309 0.0
N225 N 0.31524 0.18414 0.2481 0.0
C226 C 0.34043 0.19284 0.17046 0.0
C227 C 0.36213 0.16281 0.12909 0.0
C228 C 0.91042 0.95297 0.53803 0.0
C229 C 0.90767 0.9902 0.57129 0.0
C230 C 0.88588 0.92605 0.57684 0.0
C231 C 0.85751 0.93524 0.65037 0.0
H232 H 0.93169 0.94436 0.48145 0.0
H233 H 0.88895 0.89783 0.54742 0.0
S234 S 0.8388 0.02865 0.76552 0.0
N235 N 0.87469 0.03489 0.68453 0.0
N236 N 0.82845 0.984 0.75711 0.0
C237 C 0.85478 0.9722 0.68623 0.0
C238 C 0.87979 -0.00023 0.64648 0.0
C239 C 0.90493 0.19762 0.28957 0.0
C240 C 0.90021 0.17326 0.37674 0.0
C241 C 0.87535 0.21901 0.25142 0.0
C242 C 0.83974 0.21669 0.29821 0.0
H243 H 0.93186 0.20056 0.25086 0.0
H244 H 0.88062 0.23781 0.18531 0.0
S245 S 0.81233 0.15608 0.52648 0.0
N246 N 0.85702 0.14722 0.50727 0.0
N247 N 0.80117 0.18746 0.43573 0.0
C248 C 0.83439 0.19191 0.38442 0.0
C249 C 0.8647 0.1703 0.42387 0.0
C250 C 0.61035 0.22572 0.06662 0.0
C251 C 0.63864 0.21637 0.13952 0.0
C252 C 0.58573 0.1989 0.02782 0.0
C253 C 0.58838 0.16156 0.06024 0.0
H254 H 0.60718 0.25407 0.03856 0.0
H255 H 0.5643 0.20771 0.97251 0.0
S256 S 0.65809 0.12239 0.24893 0.0
N257 N 0.66824 0.16713 0.24219 0.0
N258 N 0.62195 0.11643 0.16943 0.0
C259 C 0.61662 0.15172 0.13329 0.0
C260 C 0.64165 0.1792 0.17316 0.0
C261 C 0.61726 0.92914 0.75639 0.0
C262 C 0.65297 0.93226 0.80135 0.0
C263 C 0.58765 0.95085 0.79375 0.0
C264 C 0.59246 0.97625 0.87836 0.0
H265 H 0.61202 0.90971 0.69184 0.0
H266 H 0.56069 0.94751 0.75609 0.0
S267 S 0.68039 -0.00488 0.02416 0.0
N268 N 0.69156 0.96288 0.93554 0.0
N269 N 0.63567 0.00365 0.00565 0.0
C270 C 0.62796 0.97969 0.92441 0.0
C271 C 0.65829 0.9578 0.8857 0.0
C272 C 0.59939 0.70976 0.80793 0.0
C273 C 0.60796 0.68275 0.88553 0.0
C274 C 0.62637 0.73449 0.77053 0.0
C275 C 0.66306 0.73328 0.80917 0.0
H276 H 0.57157 0.71183 0.77497 0.0
H277 H 0.61819 0.75481 0.71111 0.0
S278 S 0.69994 0.66774 0.01337 0.0
N279 N 0.65568 0.65612 0.00019 0.0
N280 N 0.70669 0.7028 0.93031 0.0
C281 C 0.6721 0.70644 0.88729 0.0
C282 C 0.64446 0.68124 0.92564 0.0
C283 C 0.62177 0.41643 0.04856 0.0
C284 C 0.64728 0.42186 0.13253 0.0
C285 C 0.60039 0.44579 0.00901 0.0
C286 C 0.6038 0.48187 0.05119 0.0
H287 H 0.61816 0.3892 0.01273 0.0
H288 H 0.58093 0.44004 0.94498 0.0
S289 S 0.66656 0.511 0.27217 0.0
N290 N 0.67481 0.46612 0.25678 0.0
N291 N 0.63453 0.52147 0.1827 0.0
C292 C 0.6293 0.48782 0.13514 0.0
C293 C 0.65094 0.45777 0.17598 0.0
C294 C 0.85215 0.46898 0.42431 0.0
C295 C 0.89048 0.46147 0.41679 0.0
C296 C 0.82599 0.44468 0.37988 0.0
C297 C 0.83722 0.412 0.32644 0.0
H298 H 0.84227 0.49449 0.46096 0.0
H299 H 0.79674 0.45192 0.38627 0.0
S300 S 0.93435 0.37765 0.29619 0.0
N301 N 0.93844 0.41767 0.35993 0.0
N302 N 0.88925 0.37199 0.27615 0.0
C303 C 0.87547 0.4035 0.32185 0.0
C304 C 0.90208 0.42818 0.36743 0.0
C305 C 0.84595 0.69755 0.66722 0.0
C306 C 0.84975 0.73306 0.62145 0.0
C307 C 0.86686 0.66743 0.62937 0.0
C308 C 0.89266 0.67178 0.54508 0.0
H309 H 0.82632 0.6928 0.73192 0.0
H310 H 0.86328 0.64072 0.66825 0.0
S311 S 0.91307 0.75916 0.39765 0.0
N312 N 0.88122 0.77098 0.48704 0.0
N313 N 0.92054 0.71431 0.41606 0.0
C314 C 0.89666 0.70714 0.49831 0.0
C315 C 0.87524 0.73778 0.53648 0.0
C316 C 0.37893 0.42863 0.05096 0.0
C317 C 0.35635 0.43489 0.14168 0.0
C318 C 0.40321 0.45591 0.01296 0.0
C319 C 0.40591 0.49058 0.064 0.0
H320 H 0.37766 0.40256 0.00751 0.0
H321 H 0.4199 0.4497 0.94275 0.0
S322 S 0.35441 0.5205 0.30813 0.0
N323 N 0.33915 0.47799 0.28394 0.0
N324 N 0.38507 0.52944 0.21277 0.0
C325 C 0.38388 0.4972 0.15574 0.0
C326 C 0.35912 0.46929 0.19468 0.0
C327 C 0.36897 0.67538 0.91931 0.0
C328 C 0.40524 0.68054 0.87928 0.0
C329 C 0.33912 0.69636 0.88039 0.0
C330 C 0.34445 0.72356 0.80057 0.0
H331 H 0.36335 0.65439 -0.02053 0.0
H332 H 0.31171 0.69134 0.91416 0.0
S333 S 0.43466 0.74883 0.67243 0.0
N334 N 0.44527 0.71547 0.75766 0.0
N335 N 0.38923 0.75494 0.68442 0.0
C336 C 0.38078 0.72928 0.76071 0.0
C337 C 0.41114 0.70781 0.80017 0.0
C338 C 0.10804 0.72372 0.59102 0.0
C339 C 0.13657 0.71479 0.66379 0.0
C340 C 0.08413 0.6965 0.55117 0.0
C341 C 0.08749 0.65919 0.58276 0.0
H342 H 0.10436 0.75195 0.56269 0.0
H343 H 0.06271 0.70502 0.49535 0.0
S344 S 0.15666 0.62114 0.77479 0.0
N345 N 0.16625 0.66601 0.76828 0.0
N346 N 0.12108 0.6146 0.69359 0.0
C347 C 0.11545 0.64979 0.65718 0.0
C348 C 0.13993 0.67767 0.69778 0.0
C349 C 0.11995 0.43464 0.25228 0.0
C350 C 0.15459 0.43477 0.30413 0.0
C351 C 0.09021 0.45578 0.29118 0.0
C352 C 0.09381 0.47765 0.38412 0.0
H353 H 0.11559 0.4178 0.18147 0.0
H354 H 0.06404 0.45458 0.24827 0.0
S355 S 0.17891 0.48769 0.54986 0.0
N356 N 0.19107 0.45871 0.45337 0.0
N357 N 0.13498 0.49857 0.52645 0.0
C358 C 0.12841 0.47828 0.43659 0.0
C359 C 0.15887 0.45691 0.39642 0.0
C360 C 0.04669 0.08752 0.92369 0.0
C361 C 0.01326 0.08401 0.86651 0.0
C362 C 0.04906 0.07513 0.02885 0.0
C363 C 0.01827 0.0585 0.07925 0.0
H364 H 0.07078 0.101 0.88817 0.0
H365 H 0.07421 0.08105 0.07369 0.0
S366 S 0.92644 0.03754 0.95991 0.0
N367 N 0.95011 0.05856 0.86374 0.0
N368 N 0.95486 0.03572 0.06343 0.0
C369 C 0.9857 0.05219 0.02104 0.0
C370 C 0.98301 0.06512 0.91411 0.0
C371 C 0.23443 0.77581 0.2842 0.0
C372 C 0.25502 0.8043 0.3331 0.0
C373 C 0.22303 0.77911 0.17859 0.0
C374 C 0.23157 0.81122 0.11981 0.0
H375 H 0.22532 0.7518 0.32992 0.0
H376 H 0.2069 0.75675 0.14334 0.0
S377 S 0.28851 0.89172 0.20972 0.0
N378 N 0.28603 0.86404 0.31494 0.0
N379 N 0.26497 0.87045 0.11424 0.0
C380 C 0.25379 0.83914 0.16647 0.0
C381 C 0.26572 0.83548 0.2738 0.0
C382 C 0.51091 0.09524 0.51518 0.0
C383 C 0.47761 0.09587 0.5737 0.0
C384 C 0.51146 0.08193 0.41051 0.0
C385 C 0.47862 0.06896 0.36135 0.0
H386 H 0.53712 0.10218 0.55333 0.0
H387 H 0.53798 0.08137 0.36868 0.0
S388 S 0.38368 0.06847 0.481 0.0
N389 N 0.41089 0.08507 0.57606 0.0
N390 N 0.41132 0.06053 0.3775 0.0
C391 C 0.4447 0.07165 0.41775 0.0
C392 C 0.44433 0.08518 0.52438 0.0
C393 C 0.23124 0.30932 0.77098 0.0
C394 C 0.2298 0.34276 0.82807 0.0
C395 C 0.24509 0.3086 0.66679 0.0
C396 C 0.25786 0.3414 0.61685 0.0
H397 H 0.2243 0.28322 0.80979 0.0
H398 H 0.24598 0.28204 0.62576 0.0
S399 S 0.2575 0.43642 0.73434 0.0
N400 N 0.24033 0.40939 0.82927 0.0
N401 N 0.26619 0.40865 0.63194 0.0
C402 C 0.25492 0.37536 0.67253 0.0
C403 C 0.2407 0.3759 0.77844 0.0
C404 C 0.75969 0.34608 0.77141 0.0
C405 C 0.76638 0.31295 0.82673 0.0
C406 C 0.74565 0.34532 0.66777 0.0
C407 C 0.73787 0.3113 0.61626 0.0
H408 H 0.76257 0.3727 0.81148 0.0
H409 H 0.74045 0.3717 0.62866 0.0
S410 S 0.75331 0.21676 0.72848 0.0
N411 N 0.76625 0.24554 0.82443 0.0
N412 N 0.74023 0.24344 0.62792 0.0
C413 C 0.74622 0.27785 0.66998 0.0
C414 C 0.76063 0.27886 0.7755 0.0
C415 C 0.74486 0.87602 0.27561 0.0
C416 C 0.72898 0.84503 0.32642 0.0
C417 C 0.75747 0.87362 0.17052 0.0
C418 C 0.7548 0.84002 0.11358 0.0
H419 H 0.7501 0.9014 0.32011 0.0
H420 H 0.77038 0.89793 0.1348 0.0
S421 S 0.71064 0.75242 0.2087 0.0
N422 N 0.70797 0.78108 0.3118 0.0
N423 N 0.73107 0.77628 0.11194 0.0
C424 C 0.73669 0.80947 0.16174 0.0
C425 C 0.72363 0.81215 0.26877 0.0
C426 C 0.4773 0.56044 0.51723 0.0
C427 C 0.51058 0.55495 0.57298 0.0
C428 C 0.47783 0.57432 0.41322 0.0
C429 C 0.51176 0.58318 0.36196 0.0
H430 H 0.45065 0.55684 0.55723 0.0
H431 H 0.45134 0.57863 0.37374 0.0
S432 S 0.60669 0.57064 0.47478 0.0
N433 N 0.57809 0.55697 0.57082 0.0
N434 N 0.57974 0.5828 0.37389 0.0
C435 C 0.5454 0.57581 0.41587 0.0
C436 C 0.54464 0.56152 0.52164 0.0
C437 C 0.94639 0.5589 0.93473 0.0
C438 C 0.97908 0.56429 0.87493 0.0
C439 C 0.9445 0.57047 0.04081 0.0
C440 C 0.97501 0.5882 0.08909 0.0
H441 H 0.92262 0.54463 0.90041 0.0
H442 H 0.91998 0.56334 0.08756 0.0
S443 S 0.06451 0.61429 0.96167 0.0
N444 N 0.04091 0.59268 0.86693 0.0
N445 N 0.03711 0.61414 0.06819 0.0
C446 C 0.0067 0.5964 0.02817 0.0
C447 C 0.00891 0.58424 0.92044 0.0
loop_
_geom_bond_atom_site_label_1
_geom_bond_atom_site_label_2
_geom_bond_distance
_geom_bond_site_symmetry_2
_ccdc_geom_bond_type
O0 Zn1 1.953 1_465 S
O0 C16 1.225 . S
Zn1 O0 1.953 1_645 S
Zn1 O2 1.949 1_655 S
Zn1 O8 1.919 1_545 S
Zn1 O13 1.924 1_655 S
O2 Zn1 1.949 1_455 S
O2 Zn3 1.923 1_455 S
O2 Zn4 1.950 . S
O2 Zn5 1.945 1_455 S
Zn3 O2 1.923 1_655 S
Zn3 O6 1.933 . S
Zn3 O9 1.941 . S
Zn3 O10 1.965 . S
Zn4 O2 1.950 . S
Zn4 O11 1.938 . S
Zn4 O12 1.906 . S
Zn4 O22 1.953 . S
Zn5 O2 1.945 1_655 S
Zn5 O7 1.932 . S
Zn5 O14 1.977 1_655 S
Zn5 O15 1.910 1_655 S
O6 Zn3 1.933 . S
O6 C17 1.226 . S
O7 Zn5 1.932 . S
O7 C17 1.307 . S
O8 Zn1 1.919 1_565 S
O8 C19 1.242 1_565 S
O9 Zn3 1.941 . S
O9 C19 1.302 . S
O10 Zn3 1.965 . S
O10 C18 1.303 1_655 S
O11 Zn4 1.938 . S
O11 C18 1.247 . S
O12 Zn4 1.906 . S
O12 C20 1.304 . S
O13 Zn1 1.924 1_455 S
O13 C21 1.311 . S
O14 Zn5 1.977 1_455 S
O14 C20 1.272 . S
O15 Zn5 1.910 1_455 S
O15 C21 1.231 . S
C16 O0 1.225 . S
C16 O22 1.298 1_565 S
C17 O6 1.226 . S
C17 O7 1.307 . S
C18 O10 1.303 1_455 S
C18 O11 1.247 . S
C19 O8 1.242 1_545 S
C19 O9 1.302 . S
C20 O12 1.304 . S
C20 O14 1.272 . S
C21 O13 1.311 . S
C21 O15 1.231 . S
O22 Zn4 1.953 . S
O22 C16 1.298 1_545 S
O23 Zn24 1.953 . S
O23 C39 1.225 . S
Zn24 O23 1.953 . S
Zn24 O25 1.949 . S
Zn24 O31 1.919 . S
Zn24 O36 1.924 . S
O25 Zn24 1.949 . S
O25 Zn26 1.923 . S
O25 Zn27 1.950 . S
O25 Zn28 1.945 . S
Zn26 O25 1.923 . S
Zn26 O29 1.933 . S
Zn26 O32 1.941 . S
Zn26 O33 1.965 1_556 S
Zn27 O25 1.950 . S
Zn27 O34 1.938 . S
Zn27 O35 1.906 . S
Zn27 O45 1.953 . S
Zn28 O25 1.945 . S
Zn28 O30 1.932 . S
Zn28 O37 1.977 . S
Zn28 O38 1.910 . S
O29 Zn26 1.933 . S
O29 C40 1.226 . S
O30 Zn28 1.932 . S
O30 C40 1.307 . S
O31 Zn24 1.919 . S
O31 C42 1.253 . S
O32 Zn26 1.941 . S
O32 C42 1.283 . S
O33 Zn26 1.965 1_554 S
O33 C41 1.303 . S
O34 Zn27 1.938 . S
O34 C41 1.247 1_556 S
O35 Zn27 1.906 . S
O35 C43 1.304 . S
O36 Zn24 1.924 . S
O36 C44 1.311 . S
O37 Zn28 1.977 . S
O37 C43 1.272 . S
O38 Zn28 1.910 . S
O38 C44 1.231 . S
C39 O23 1.225 . S
C39 O45 1.298 . S
C40 O29 1.226 . S
C40 O30 1.307 . S
C41 O33 1.303 . S
C41 O34 1.247 1_554 S
C42 O31 1.253 . S
C42 O32 1.283 . S
C43 O35 1.304 . S
C43 O37 1.272 . S
C44 O36 1.311 . S
C44 O38 1.231 . S
O45 Zn27 1.953 . S
O45 C39 1.298 . S
O46 Zn47 1.953 1_554 S
O46 C62 1.225 . S
Zn47 O46 1.953 1_556 S
Zn47 O48 1.949 1_556 S
Zn47 O54 1.921 . S
Zn47 O59 1.924 . S
O48 Zn47 1.949 1_554 S
O48 Zn49 1.923 . S
O48 Zn50 1.950 . S
O48 Zn51 1.945 1_554 S
Zn49 O48 1.923 . S
Zn49 O52 1.933 . S
Zn49 O55 1.941 . S
Zn49 O56 1.965 . S
Zn50 O48 1.950 . S
Zn50 O57 1.938 . S
Zn50 O58 1.906 . S
Zn50 O68 1.953 . S
Zn51 O48 1.945 1_556 S
Zn51 O53 1.932 . S
Zn51 O60 1.977 . S
Zn51 O61 1.910 . S
O52 Zn49 1.933 . S
O52 C63 1.226 1_554 S
O53 Zn51 1.932 . S
O53 C63 1.307 . S
O54 Zn47 1.921 . S
O54 C65 1.248 1_556 S
O55 Zn49 1.941 . S
O55 C65 1.283 . S
O56 Zn49 1.965 . S
O56 C64 1.303 . S
O57 Zn50 1.938 . S
O57 C64 1.247 . S
O58 Zn50 1.906 . S
O58 C66 1.304 1_554 S
O59 Zn47 1.924 . S
O59 C67 1.311 . S
O60 Zn51 1.977 . S
O60 C66 1.272 . S
O61 Zn51 1.910 . S
O61 C67 1.231 . S
C62 O46 1.225 . S
C62 O68 1.298 . S
C63 O52 1.226 1_556 S
C63 O53 1.307 . S
C64 O56 1.303 . S
C64 O57 1.247 . S
C65 O54 1.248 1_554 S
C65 O55 1.283 . S
C66 O58 1.304 1_556 S
C66 O60 1.272 . S
C67 O59 1.311 . S
C67 O61 1.231 . S
O68 Zn50 1.953 . S
O68 C62 1.298 . S
O69 Zn70 1.953 . S
O69 C85 1.225 . S
Zn70 O69 1.953 . S
Zn70 O71 1.949 . S
Zn70 O77 1.919 . S
Zn70 O82 1.924 . S
O71 Zn70 1.949 . S
O71 Zn72 1.923 . S
O71 Zn73 1.950 . S
O71 Zn74 1.945 . S
Zn72 O71 1.923 . S
Zn72 O75 1.933 . S
Zn72 O78 1.941 . S
Zn72 O79 1.965 . S
Zn73 O71 1.950 . S
Zn73 O80 1.938 . S
Zn73 O81 1.906 . S
Zn73 O91 1.953 . S
Zn74 O71 1.945 . S
Zn74 O76 1.932 . S
Zn74 O83 1.977 . S
Zn74 O84 1.910 1_554 S
O75 Zn72 1.933 . S
O75 C86 1.226 . S
O76 Zn74 1.932 . S
O76 C86 1.307 . S
O77 Zn70 1.919 . S
O77 C88 1.253 . S
O78 Zn72 1.941 . S
O78 C88 1.283 . S
O79 Zn72 1.965 . S
O79 C87 1.303 . S
O80 Zn73 1.938 . S
O80 C87 1.247 . S
O81 Zn73 1.906 . S
O81 C89 1.304 . S
O82 Zn70 1.924 . S
O82 C90 1.311 1_554 S
O83 Zn74 1.977 . S
O83 C89 1.272 . S
O84 Zn74 1.910 1_556 S
O84 C90 1.231 . S
C85 O69 1.225 . S
C85 O91 1.298 . S
C86 O75 1.226 . S
C86 O76 1.307 . S
C87 O79 1.303 . S
C87 O80 1.247 . S
C88 O77 1.253 . S
C88 O78 1.283 . S
C89 O81 1.304 . S
C89 O83 1.272 . S
C90 O82 1.311 1_556 S
C90 O84 1.231 . S
O91 Zn73 1.953 . S
O91 C85 1.298 . S
O92 Zn93 1.953 . S
O92 C108 1.225 . S
Zn93 O92 1.953 . S
Zn93 O94 1.949 . S
Zn93 O100 1.919 . S
Zn93 O105 1.924 . S
O94 Zn93 1.949 . S
O94 Zn95 1.923 . S
O94 Zn96 1.950 . S
O94 Zn97 1.945 . S
Zn95 O94 1.923 . S
Zn95 O98 1.933 . S
Zn95 O101 1.941 . S
Zn95 O102 1.965 . S
Zn96 O94 1.950 . S
Zn96 O103 1.938 . S
Zn96 O104 1.906 . S
Zn96 O114 1.953 . S
Zn97 O94 1.945 . S
Zn97 O99 1.932 . S
Zn97 O106 1.977 . S
Zn97 O107 1.910 1_554 S
O98 Zn95 1.933 . S
O98 C109 1.226 . S
O99 Zn97 1.932 . S
O99 C109 1.307 . S
O100 Zn93 1.919 . S
O100 C111 1.253 . S
O101 Zn95 1.941 . S
O101 C111 1.283 . S
O102 Zn95 1.965 . S
O102 C110 1.303 . S
O103 Zn96 1.938 . S
O103 C110 1.247 . S
O104 Zn96 1.906 . S
O104 C112 1.304 . S
O105 Zn93 1.924 . S
O105 C113 1.311 1_554 S
O106 Zn97 1.977 . S
O106 C112 1.272 . S
O107 Zn97 1.910 1_556 S
O107 C113 1.231 . S
C108 O92 1.225 . S
C108 O114 1.298 . S
C109 O98 1.226 . S
C109 O99 1.307 . S
C110 O102 1.303 . S
C110 O103 1.247 . S
C111 O100 1.253 . S
C111 O101 1.283 . S
C112 O104 1.304 . S
C112 O106 1.272 . S
C113 O105 1.311 1_556 S
C113 O107 1.231 . S
O114 Zn96 1.953 . S
O114 C108 1.298 . S
O115 Zn116 1.953 . S
O115 C131 1.225 . S
Zn116 O115 1.953 . S
Zn116 O117 1.949 . S
Zn116 O123 1.919 . S
Zn116 O128 1.924 . S
O117 Zn116 1.949 . S
O117 Zn118 1.923 . S
O117 Zn119 1.950 . S
O117 Zn120 1.945 . S
Zn118 O117 1.923 . S
Zn118 O121 1.933 . S
Zn118 O124 1.941 . S
Zn118 O125 1.965 1_556 S
Zn119 O117 1.950 . S
Zn119 O126 1.938 . S
Zn119 O127 1.906 . S
Zn119 O137 1.953 . S
Zn120 O117 1.945 . S
Zn120 O122 1.932 . S
Zn120 O129 1.977 . S
Zn120 O130 1.910 . S
O121 Zn118 1.933 . S
O121 C132 1.226 . S
O122 Zn120 1.932 . S
O122 C132 1.307 . S
O123 Zn116 1.919 . S
O123 C134 1.253 . S
O124 Zn118 1.941 . S
O124 C134 1.283 . S
O125 Zn118 1.965 1_554 S
O125 C133 1.303 . S
O126 Zn119 1.938 . S
O126 C133 1.247 1_556 S
O127 Zn119 1.906 . S
O127 C135 1.304 . S
O128 Zn116 1.924 . S
O128 C136 1.311 . S
O129 Zn120 1.977 . S
O129 C135 1.272 . S
O130 Zn120 1.910 . S
O130 C136 1.231 . S
C131 O115 1.225 . S
C131 O137 1.298 . S
C132 O121 1.226 . S
C132 O122 1.307 . S
C133 O125 1.303 . S
C133 O126 1.247 1_554 S
C134 O123 1.253 . S
C134 O124 1.283 . S
C135 O127 1.304 . S
C135 O129 1.272 . S
C136 O128 1.311 . S
C136 O130 1.231 . S
O137 Zn119 1.953 . S
O137 C131 1.298 . S
O138 Zn139 1.953 1_554 S
O138 C154 1.225 . S
Zn139 O138 1.953 1_556 S
Zn139 O140 1.949 1_556 S
Zn139 O146 1.921 . S
Zn139 O151 1.924 . S
O140 Zn139 1.949 1_554 S
O140 Zn141 1.923 . S
O140 Zn142 1.950 . S
O140 Zn143 1.945 1_554 S
Zn141 O140 1.923 . S
Zn141 O144 1.933 . S
Zn141 O147 1.941 . S
Zn141 O148 1.965 . S
Zn142 O140 1.950 . S
Zn142 O149 1.938 . S
Zn142 O150 1.906 . S
Zn142 O160 1.953 . S
Zn143 O140 1.945 1_556 S
Zn143 O145 1.932 . S
Zn143 O152 1.977 . S
Zn143 O153 1.910 . S
O144 Zn141 1.933 . S
O144 C155 1.226 1_554 S
O145 Zn143 1.932 . S
O145 C155 1.307 . S
O146 Zn139 1.921 . S
O146 C157 1.248 1_556 S
O147 Zn141 1.941 . S
O147 C157 1.283 . S
O148 Zn141 1.965 . S
O148 C156 1.303 . S
O149 Zn142 1.938 . S
O149 C156 1.247 . S
O150 Zn142 1.906 . S
O150 C158 1.304 1_554 S
O151 Zn139 1.924 . S
O151 C159 1.311 . S
O152 Zn143 1.977 . S
O152 C158 1.272 . S
O153 Zn143 1.910 . S
O153 C159 1.231 . S
C154 O138 1.225 . S
C154 O160 1.298 . S
C155 O144 1.226 1_556 S
C155 O145 1.307 . S
C156 O148 1.303 . S
C156 O149 1.247 . S
C157 O146 1.248 1_554 S
C157 O147 1.283 . S
C158 O150 1.304 1_556 S
C158 O152 1.272 . S
C159 O151 1.311 . S
C159 O153 1.231 . S
O160 Zn142 1.953 . S
O160 C154 1.298 . S
O161 Zn162 1.953 1_655 S
O161 C177 1.225 . S
Zn162 O161 1.953 1_455 S
Zn162 O163 1.949 . S
Zn162 O169 1.919 . S
Zn162 O174 1.924 . S
O163 Zn162 1.949 . S
O163 Zn164 1.923 . S
O163 Zn165 1.950 1_455 S
O163 Zn166 1.945 . S
Zn164 O163 1.923 . S
Zn164 O167 1.933 . S
Zn164 O170 1.941 . S
Zn164 O171 1.965 . S
Zn165 O163 1.950 1_655 S
Zn165 O172 1.938 . S
Zn165 O173 1.906 . S
Zn165 O183 1.953 . S
Zn166 O163 1.945 . S
Zn166 O168 1.932 . S
Zn166 O175 1.977 1_455 S
Zn166 O176 1.910 . S
O167 Zn164 1.933 . S
O167 C178 1.226 . S
O168 Zn166 1.932 . S
O168 C178 1.307 . S
O169 Zn162 1.919 . S
O169 C180 1.253 . S
O170 Zn164 1.941 . S
O170 C180 1.283 . S
O171 Zn164 1.965 . S
O171 C179 1.303 1_455 S
O172 Zn165 1.938 . S
O172 C179 1.247 . S
O173 Zn165 1.906 . S
O173 C181 1.304 . S
O174 Zn162 1.924 . S
O174 C182 1.311 1_455 S
O175 Zn166 1.977 1_655 S
O175 C181 1.272 . S
O176 Zn166 1.910 . S
O176 C182 1.231 1_455 S
C177 O161 1.225 . S
C177 O183 1.298 . S
C178 O167 1.226 . S
C178 O168 1.307 . S
C179 O171 1.303 1_655 S
C179 O172 1.247 . S
C180 O169 1.253 . S
C180 O170 1.283 . S
C181 O173 1.304 . S
C181 O175 1.272 . S
C182 O174 1.311 1_655 S
C182 O176 1.231 1_655 S
O183 Zn165 1.953 . S
O183 C177 1.298 . S
C184 C185 1.369 . S
C184 C186 1.419 . S
C184 H188 0.930 . S
C185 C184 1.369 . S
C185 C194 1.429 . S
C186 C184 1.419 . S
C186 C187 1.363 . S
C186 H189 0.929 . S
C187 C186 1.363 . S
C187 C193 1.428 . S
H188 C184 0.930 . S
H189 C186 0.929 . S
S190 N191 1.613 . S
S190 N192 1.610 . S
N191 S190 1.613 . S
N191 C194 1.350 . S
N192 S190 1.610 . S
N192 C193 1.351 . S
C193 C187 1.428 . S
C193 N192 1.351 . S
C193 C194 1.434 . S
C194 C185 1.429 . S
C194 N191 1.350 . S
C194 C193 1.434 . S
C195 C196 1.369 . S
C195 C197 1.419 . S
C195 H199 0.930 . S
C196 C195 1.369 . S
C196 C205 1.429 . S
C197 C195 1.419 . S
C197 C198 1.363 . S
C197 H200 0.929 . S
C198 C197 1.363 . S
C198 C204 1.428 . S
H199 C195 0.930 . S
H200 C197 0.929 . S
S201 N202 1.613 . S
S201 N203 1.610 . S
N202 S201 1.613 . S
N202 C205 1.350 . S
N203 S201 1.610 . S
N203 C204 1.351 . S
C204 C198 1.428 . S
C204 N203 1.351 . S
C204 C205 1.434 . S
C205 C196 1.429 . S
C205 N202 1.350 . S
C205 C204 1.434 . S
C206 C207 1.369 . S
C206 C208 1.419 . S
C206 H210 0.930 . S
C207 C206 1.369 . S
C207 C216 1.429 . S
C208 C206 1.419 . S
C208 C209 1.363 . S
C208 H211 0.929 1_556 S
C209 C208 1.363 . S
C209 C215 1.428 . S
H210 C206 0.930 . S
H211 C208 0.929 1_554 S
S212 N213 1.613 . S
S212 N214 1.610 . S
N213 S212 1.613 . S
N213 C216 1.350 . S
N214 S212 1.610 . S
N214 C215 1.351 . S
C215 C209 1.428 . S
C215 N214 1.351 . S
C215 C216 1.434 . S
C216 C207 1.429 . S
C216 N213 1.350 . S
C216 C215 1.434 . S
C217 C218 1.369 . S
C217 C219 1.419 . S
C217 H221 0.930 . S
C218 C217 1.369 . S
C218 C227 1.429 . S
C219 C217 1.419 . S
C219 C220 1.363 . S
C219 H222 0.929 . S
C220 C219 1.363 . S
C220 C226 1.428 . S
H221 C217 0.930 . S
H222 C219 0.929 . S
S223 N224 1.613 . S
S223 N225 1.610 . S
N224 S223 1.613 . S
N224 C227 1.350 1_556 S
N225 S223 1.610 . S
N225 C226 1.351 1_556 S
C226 C220 1.428 . S
C226 N225 1.351 1_554 S
C226 C227 1.434 . S
C227 C218 1.429 . S
C227 N224 1.350 1_554 S
C227 C226 1.434 . S
C228 C229 1.369 . S
C228 C230 1.419 . S
C228 H232 0.930 . S
C229 C228 1.369 . S
C229 C238 1.429 . S
C230 C228 1.419 . S
C230 C231 1.363 . S
C230 H233 0.929 . S
C231 C230 1.363 . S
C231 C237 1.428 . S
H232 C228 0.930 . S
H233 C230 0.929 . S
S234 N235 1.613 . S
S234 N236 1.610 1_545 S
N235 S234 1.613 . S
N235 C238 1.350 1_545 S
N236 S234 1.610 1_565 S
N236 C237 1.351 . S
C237 C231 1.428 . S
C237 N236 1.351 . S
C237 C238 1.434 . S
C238 C229 1.429 . S
C238 N235 1.350 1_565 S
C238 C237 1.434 . S
C239 C240 1.369 . S
C239 C241 1.419 . S
C239 H243 0.930 . S
C240 C239 1.369 . S
C240 C249 1.429 . S
C241 C239 1.419 . S
C241 C242 1.363 . S
C241 H244 0.929 . S
C242 C241 1.363 . S
C242 C248 1.428 . S
H243 C239 0.930 . S
H244 C241 0.929 . S
S245 N246 1.613 . S
S245 N247 1.610 . S
N246 S245 1.613 . S
N246 C249 1.350 . S
N247 S245 1.610 . S
N247 C248 1.351 . S
C248 C242 1.428 . S
C248 N247 1.351 . S
C248 C249 1.434 . S
C249 C240 1.429 . S
C249 N246 1.350 . S
C249 C248 1.434 . S
C250 C251 1.369 . S
C250 C252 1.419 . S
C250 H254 0.930 . S
C251 C250 1.369 . S
C251 C260 1.429 . S
C252 C250 1.419 . S
C252 C253 1.363 . S
C252 H255 0.929 . S
C253 C252 1.363 . S
C253 C259 1.428 . S
H254 C250 0.930 . S
H255 C252 0.929 . S
S256 N257 1.613 1_556 S
S256 N258 1.610 . S
N257 S256 1.613 1_554 S
N257 C260 1.350 . S
N258 S256 1.610 . S
N258 C259 1.351 1_556 S
C259 C253 1.428 . S
C259 N258 1.351 1_554 S
C259 C260 1.434 . S
C260 C251 1.429 . S
C260 N257 1.350 . S
C260 C259 1.434 . S
C261 C262 1.369 . S
C261 C263 1.419 . S
C261 H265 0.930 . S
C262 C261 1.369 . S
C262 C271 1.429 . S
C263 C261 1.419 . S
C263 C264 1.363 1_565 S
C263 H266 0.929 1_556 S
C264 C263 1.363 1_545 S
C264 C270 1.428 . S
H265 C261 0.930 . S
H266 C263 0.929 1_554 S
S267 N268 1.613 1_545 S
S267 N269 1.610 . S
N268 S267 1.613 1_565 S
N268 C271 1.350 . S
N269 S267 1.610 . S
N269 C270 1.351 . S
C270 C264 1.428 . S
C270 N269 1.351 . S
C270 C271 1.434 1_545 S
C271 C262 1.429 . S
C271 N268 1.350 . S
C271 C270 1.434 1_565 S
C272 C273 1.369 . S
C272 C274 1.419 . S
C272 H276 0.930 . S
C273 C272 1.369 . S
C273 C282 1.429 . S
C274 C272 1.419 . S
C274 C275 1.363 . S
C274 H277 0.929 . S
C275 C274 1.363 . S
C275 C281 1.428 . S
H276 C272 0.930 . S
H277 C274 0.929 . S
S278 N279 1.613 . S
S278 N280 1.610 . S
N279 S278 1.613 . S
N279 C282 1.350 . S
N280 S278 1.610 . S
N280 C281 1.351 . S
C281 C275 1.428 . S
C281 N280 1.351 . S
C281 C282 1.434 . S
C282 C273 1.429 . S
C282 N279 1.350 . S
C282 C281 1.434 . S
C283 C284 1.369 . S
C283 C285 1.419 . S
C283 H287 0.930 . S
C284 C283 1.369 . S
C284 C293 1.429 . S
C285 C283 1.419 . S
C285 C286 1.363 . S
C285 H288 0.929 . S
C286 C285 1.363 . S
C286 C292 1.428 . S
H287 C283 0.930 . S
H288 C285 0.929 . S
S289 N290 1.613 1_556 S
S289 N291 1.610 . S
N290 S289 1.613 1_554 S
N290 C293 1.350 . S
N291 S289 1.610 . S
N291 C292 1.351 1_556 S
C292 C286 1.428 . S
C292 N291 1.351 1_554 S
C292 C293 1.434 . S
C293 C284 1.429 . S
C293 N290 1.350 . S
C293 C292 1.434 . S
C294 C295 1.369 . S
C294 C296 1.419 . S
C294 H298 0.930 . S
C295 C294 1.369 . S
C295 C304 1.429 . S
C296 C294 1.419 . S
C296 C297 1.363 . S
C296 H299 0.929 . S
C297 C296 1.363 . S
C297 C303 1.428 . S
H298 C294 0.930 . S
H299 C296 0.929 . S
S300 N301 1.613 . S
S300 N302 1.610 . S
N301 S300 1.613 . S
N301 C304 1.350 . S
N302 S300 1.610 . S
N302 C303 1.351 . S
C303 C297 1.428 . S
C303 N302 1.351 . S
C303 C304 1.434 . S
C304 C295 1.429 . S
C304 N301 1.350 . S
C304 C303 1.434 . S
C305 C306 1.369 . S
C305 C307 1.419 . S
C305 H309 0.930 . S
C306 C305 1.369 . S
C306 C315 1.429 . S
C307 C305 1.419 . S
C307 C308 1.363 . S
C307 H310 0.929 . S
C308 C307 1.363 . S
C308 C314 1.428 . S
H309 C305 0.930 . S
H310 C307 0.929 . S
S311 N312 1.613 . S
S311 N313 1.610 . S
N312 S311 1.613 . S
N312 C315 1.350 . S
N313 S311 1.610 . S
N313 C314 1.351 . S
C314 C308 1.428 . S
C314 N313 1.351 . S
C314 C315 1.434 . S
C315 C306 1.429 . S
C315 N312 1.350 . S
C315 C314 1.434 . S
C316 C317 1.369 . S
C316 C318 1.419 . S
C316 H320 0.930 . S
C317 C316 1.369 . S
C317 C326 1.429 . S
C318 C316 1.419 . S
C318 C319 1.363 . S
C318 H321 0.929 1_554 S
C319 C318 1.363 . S
C319 C325 1.428 . S
H320 C316 0.930 . S
H321 C318 0.929 1_556 S
S322 N323 1.613 . S
S322 N324 1.610 . S
N323 S322 1.613 . S
N323 C326 1.350 . S
N324 S322 1.610 . S
N324 C325 1.351 . S
C325 C319 1.428 . S
C325 N324 1.351 . S
C325 C326 1.434 . S
C326 C317 1.429 . S
C326 N323 1.350 . S
C326 C325 1.434 . S
C327 C328 1.369 . S
C327 C329 1.419 . S
C327 H331 0.930 1_556 S
C328 C327 1.369 . S
C328 C337 1.429 . S
C329 C327 1.419 . S
C329 C330 1.363 . S
C329 H332 0.929 . S
C330 C329 1.363 . S
C330 C336 1.428 . S
H331 C327 0.930 1_554 S
H332 C329 0.929 . S
S333 N334 1.613 . S
S333 N335 1.610 . S
N334 S333 1.613 . S
N334 C337 1.350 . S
N335 S333 1.610 . S
N335 C336 1.351 . S
C336 C330 1.428 . S
C336 N335 1.351 . S
C336 C337 1.434 . S
C337 C328 1.429 . S
C337 N334 1.350 . S
C337 C336 1.434 . S
C338 C339 1.369 . S
C338 C340 1.419 . S
C338 H342 0.930 . S
C339 C338 1.369 . S
C339 C348 1.429 . S
C340 C338 1.419 . S
C340 C341 1.363 . S
C340 H343 0.929 . S
C341 C340 1.363 . S
C341 C347 1.428 . S
H342 C338 0.930 . S
H343 C340 0.929 . S
S344 N345 1.613 . S
S344 N346 1.610 . S
N345 S344 1.613 . S
N345 C348 1.350 . S
N346 S344 1.610 . S
N346 C347 1.351 . S
C347 C341 1.428 . S
C347 N346 1.351 . S
C347 C348 1.434 . S
C348 C339 1.429 . S
C348 N345 1.350 . S
C348 C347 1.434 . S
C349 C350 1.369 . S
C349 C351 1.419 . S
C349 H353 0.930 . S
C350 C349 1.369 . S
C350 C359 1.429 . S
C351 C349 1.419 . S
C351 C352 1.363 . S
C351 H354 0.929 . S
C352 C351 1.363 . S
C352 C358 1.428 . S
H353 C349 0.930 . S
H354 C351 0.929 . S
S355 N356 1.613 . S
S355 N357 1.610 . S
N356 S355 1.613 . S
N356 C359 1.350 . S
N357 S355 1.610 . S
N357 C358 1.351 . S
C358 C352 1.428 . S
C358 N357 1.351 . S
C358 C359 1.434 . S
C359 C350 1.429 . S
C359 N356 1.350 . S
C359 C358 1.434 . S
C360 C361 1.369 . S
C360 C362 1.419 1_556 S
C360 H364 0.930 . S
C361 C360 1.369 . S
C361 C370 1.429 . S
C362 C360 1.419 1_554 S
C362 C363 1.363 . S
C362 H365 0.929 . S
C363 C362 1.363 . S
C363 C369 1.428 . S
H364 C360 0.930 . S
H365 C362 0.929 . S
S366 N367 1.613 . S
S366 N368 1.610 1_556 S
N367 S366 1.613 . S
N367 C370 1.350 1_565 S
N368 S366 1.610 1_554 S
N368 C369 1.351 1_565 S
C369 C363 1.428 . S
C369 N368 1.351 1_545 S
C369 C370 1.434 1_554 S
C370 C361 1.429 . S
C370 N367 1.350 1_545 S
C370 C369 1.434 1_556 S
C371 C372 1.369 . S
C371 C373 1.419 . S
C371 H375 0.930 . S
C372 C371 1.369 . S
C372 C381 1.429 . S
C373 C371 1.419 . S
C373 C374 1.363 . S
C373 H376 0.929 . S
C374 C373 1.363 . S
C374 C380 1.428 . S
H375 C371 0.930 . S
H376 C373 0.929 . S
S377 N378 1.613 . S
S377 N379 1.610 . S
N378 S377 1.613 . S
N378 C381 1.350 . S
N379 S377 1.610 . S
N379 C380 1.351 . S
C380 C374 1.428 . S
C380 N379 1.351 . S
C380 C381 1.434 . S
C381 C372 1.429 . S
C381 N378 1.350 . S
C381 C380 1.434 . S
C382 C383 1.369 . S
C382 C384 1.419 . S
C382 H386 0.930 . S
C383 C382 1.369 . S
C383 C392 1.429 . S
C384 C382 1.419 . S
C384 C385 1.363 . S
C384 H387 0.929 . S
C385 C384 1.363 . S
C385 C391 1.428 . S
H386 C382 0.930 . S
H387 C384 0.929 . S
S388 N389 1.613 . S
S388 N390 1.610 . S
N389 S388 1.613 . S
N389 C392 1.350 . S
N390 S388 1.610 . S
N390 C391 1.351 . S
C391 C385 1.428 . S
C391 N390 1.351 . S
C391 C392 1.434 . S
C392 C383 1.429 . S
C392 N389 1.350 . S
C392 C391 1.434 . S
C393 C394 1.369 . S
C393 C395 1.419 . S
C393 H397 0.930 . S
C394 C393 1.369 . S
C394 C403 1.429 . S
C395 C393 1.419 . S
C395 C396 1.363 . S
C395 H398 0.929 . S
C396 C395 1.363 . S
C396 C402 1.428 . S
H397 C393 0.930 . S
H398 C395 0.929 . S
S399 N400 1.613 . S
S399 N401 1.610 . S
N400 S399 1.613 . S
N400 C403 1.350 . S
N401 S399 1.610 . S
N401 C402 1.351 . S
C402 C396 1.428 . S
C402 N401 1.351 . S
C402 C403 1.434 . S
C403 C394 1.429 . S
C403 N400 1.350 . S
C403 C402 1.434 . S
C404 C405 1.369 . S
C404 C406 1.419 . S
C404 H408 0.930 . S
C405 C404 1.369 . S
C405 C414 1.429 . S
C406 C404 1.419 . S
C406 C407 1.363 . S
C406 H409 0.929 . S
C407 C406 1.363 . S
C407 C413 1.428 . S
H408 C404 0.930 . S
H409 C406 0.929 . S
S410 N411 1.613 . S
S410 N412 1.610 . S
N411 S410 1.613 . S
N411 C414 1.350 . S
N412 S410 1.610 . S
N412 C413 1.351 . S
C413 C407 1.428 . S
C413 N412 1.351 . S
C413 C414 1.434 . S
C414 C405 1.429 . S
C414 N411 1.350 . S
C414 C413 1.434 . S
C415 C416 1.369 . S
C415 C417 1.419 . S
C415 H419 0.930 . S
C416 C415 1.369 . S
C416 C425 1.429 . S
C417 C415 1.419 . S
C417 C418 1.363 . S
C417 H420 0.929 . S
C418 C417 1.363 . S
C418 C424 1.428 . S
H419 C415 0.930 . S
H420 C417 0.929 . S
S421 N422 1.613 . S
S421 N423 1.610 . S
N422 S421 1.613 . S
N422 C425 1.350 . S
N423 S421 1.610 . S
N423 C424 1.351 . S
C424 C418 1.428 . S
C424 N423 1.351 . S
C424 C425 1.434 . S
C425 C416 1.429 . S
C425 N422 1.350 . S
C425 C424 1.434 . S
C426 C427 1.369 . S
C426 C428 1.419 . S
C426 H430 0.930 . S
C427 C426 1.369 . S
C427 C436 1.429 . S
C428 C426 1.419 . S
C428 C429 1.363 . S
C428 H431 0.929 . S
C429 C428 1.363 . S
C429 C435 1.428 . S
H430 C426 0.930 . S
H431 C428 0.929 . S
S432 N433 1.613 . S
S432 N434 1.610 . S
N433 S432 1.613 . S
N433 C436 1.350 . S
N434 S432 1.610 . S
N434 C435 1.351 . S
C435 C429 1.428 . S
C435 N434 1.351 . S
C435 C436 1.434 . S
C436 C427 1.429 . S
C436 N433 1.350 . S
C436 C435 1.434 . S
C437 C438 1.369 . S
C437 C439 1.419 1_556 S
C437 H441 0.930 . S
C438 C437 1.369 . S
C438 C447 1.429 . S
C439 C437 1.419 1_554 S
C439 C440 1.363 . S
C439 H442 0.929 . S
C440 C439 1.363 . S
C440 C446 1.428 . S
H441 C437 0.930 . S
H442 C439 0.929 . S
S443 N444 1.613 . S
S443 N445 1.610 1_556 S
N444 S443 1.613 . S
N444 C447 1.350 . S
N445 S443 1.610 1_554 S
N445 C446 1.351 . S
C446 C440 1.428 . S
C446 N445 1.351 . S
C446 C447 1.434 1_554 S
C447 C438 1.429 . S
C447 N444 1.350 . S
C447 C446 1.434 1_556 S
C185 C20 1.515 . S
C187 C85 1.551 . S
C196 C16 1.548 . S
C198 C43 1.516 . S
C207 C39 1.552 . S
C209 C66 1.512 1_565 S
C218 C62 1.553 . S
C220 C89 1.510 . S
C229 C19 1.482 1_565 S
C231 C132 1.554 . S
C240 C17 1.551 . S
C242 C111 1.501 . S
C251 C109 1.551 . S
C253 C65 1.501 . S
C262 C134 1.501 . S
C264 C63 1.553 . S
C273 C158 1.511 . S
C275 C131 1.550 . S
C284 C112 1.510 . S
C286 C154 1.551 . S
C295 C181 1.510 . S
C297 C108 1.552 . S
C306 C135 1.510 . S
C308 C177 1.552 . S
C317 C86 1.555 . S
C319 C157 1.498 . S
C328 C155 1.551 . S
C330 C42 1.496 . S
C339 C40 1.555 . S
C341 C180 1.494 . S
C350 C88 1.492 . S
C352 C178 1.553 . S
C361 C18 1.205 . S
C363 C21 1.122 . S
C372 C44 1.120 . S
C374 C41 1.205 . S
C383 C67 1.113 . S
C385 C64 1.205 . S
C394 C90 1.116 . S
C396 C87 1.205 . S
C405 C113 1.119 . S
C407 C110 1.205 . S
C416 C136 1.123 . S
C418 C133 1.205 . S
C427 C159 1.116 . S
C429 C156 1.205 . S
C438 C179 1.205 . S
C440 C182 1.122 . S
