# Generated by pormake.
# Topology wiy, (3)-cn, num edge types: 1
# Building blocks:
#     Node 0, Type 0, BuildingBlock: OLANEW_clean_sbu_2, # of connection points: 3
#     Node 1, Type 0, BuildingBlock: OLANEW_clean_sbu_2, # of connection points: 3
#     Node 2, Type 0, BuildingBlock: OLANEW_clean_sbu_2, # of connection points: 3
#     Node 3, Type 0, BuildingBlock: OLANEW_clean_sbu_2, # of connection points: 3
#     Node 4, Type 0, BuildingBlock: OLANEW_clean_sbu_2, # of connection points: 3
#     Node 5, Type 0, BuildingBlock: OLANEW_clean_sbu_2, # of connection points: 3
#     Node 6, Type 0, BuildingBlock: OLANEW_clean_sbu_2, # of connection points: 3
#     Node 7, Type 0, BuildingBlock: OLANEW_clean_sbu_2, # of connection points: 3
#     Node 8, Type 0, BuildingBlock: OLANEW_clean_sbu_2, # of connection points: 3
#     Node 9, Type 0, BuildingBlock: OLANEW_clean_sbu_2, # of connection points: 3
#     Node 10, Type 0, BuildingBlock: OLANEW_clean_sbu_2, # of connection points: 3
#     Node 11, Type 0, BuildingBlock: OLANEW_clean_sbu_2, # of connection points: 3
#     Edge 12, Type (0, 0), BuildingBlock: XUDNAN_clean_linker_2, # of connection points: 2
#     Edge 13, Type (0, 0), BuildingBlock: XUDNAN_clean_linker_2, # of connection points: 2
#     Edge 14, Type (0, 0), BuildingBlock: XUDNAN_clean_linker_2, # of connection points: 2
#     Edge 15, Type (0, 0), BuildingBlock: XUDNAN_clean_linker_2, # of connection points: 2
#     Edge 16, Type (0, 0), BuildingBlock: XUDNAN_clean_linker_2, # of connection points: 2
#     Edge 17, Type (0, 0), BuildingBlock: XUDNAN_clean_linker_2, # of connection points: 2
#     Edge 18, Type (0, 0), BuildingBlock: XUDNAN_clean_linker_2, # of connection points: 2
#     Edge 19, Type (0, 0), BuildingBlock: XUDNAN_clean_linker_2, # of connection points: 2
#     Edge 20, Type (0, 0), BuildingBlock: XUDNAN_clean_linker_2, # of connection points: 2
#     Edge 21, Type (0, 0), BuildingBlock: XUDNAN_clean_linker_2, # of connection points: 2
#     Edge 22, Type (0, 0), BuildingBlock: XUDNAN_clean_linker_2, # of connection points: 2
#     Edge 23, Type (0, 0), BuildingBlock: XUDNAN_clean_linker_2, # of connection points: 2
#     Edge 24, Type (0, 0), BuildingBlock: XUDNAN_clean_linker_2, # of connection points: 2
#     Edge 25, Type (0, 0), BuildingBlock: XUDNAN_clean_linker_2, # of connection points: 2
#     Edge 26, Type (0, 0), BuildingBlock: XUDNAN_clean_linker_2, # of connection points: 2
#     Edge 27, Type (0, 0), BuildingBlock: XUDNAN_clean_linker_2, # of connection points: 2
#     Edge 28, Type (0, 0), BuildingBlock: XUDNAN_clean_linker_2, # of connection points: 2
#     Edge 29, Type (0, 0), BuildingBlock: XUDNAN_clean_linker_2, # of connection points: 2
# Relax obj value: 0.011
# Max RMSD: 0.017
# Mean RMSD: 0.017
data_MOF--net-wiy--node1-OLANEW_clean_sbu_2--edge1-XUDNAN_clean_linker_2
_symmetry_space_group_name_H-M    P1
_symmetry_Int_Tables_number       1
_symmetry_cell_setting            triclinic
loop_
_symmetry_equiv_pos_as_xyz
'x, y, z'
_cell_length_a     58.507511
_cell_length_b     58.511639
_cell_length_c     27.642103
_cell_angle_alpha  89.993313
_cell_angle_beta   90.025747
_cell_angle_gamma 119.95953
loop_
_atom_site_label
_atom_site_type_symbol
_atom_site_fract_x
_atom_site_fract_y
_atom_site_fract_z
_atom_type_partial_charge
O0 O 0.10733 0.45614 0.05775 0.0
Cd1 Cd 0.09427 0.40947 0.05858 0.0
O2 O 0.1383 0.46762 0.00268 0.0
Cd3 Cd 0.12411 0.42644 0.98351 0.0
O4 O 0.09679 0.39301 0.93901 0.0
C5 C 0.08056 0.37014 0.95489 0.0
O6 O 0.08092 0.36491 0.00101 0.0
C7 C 0.12616 0.47399 0.03317 0.0
C8 C 0.12839 0.40222 0.11865 0.0
O9 O 0.13219 0.40485 0.07285 0.0
O10 O 0.10819 0.40249 0.13585 0.0
O11 O 0.66743 0.1438 0.2179 0.0
Cd12 Cd 0.70494 0.13644 0.21162 0.0
O13 O 0.64059 0.1026 0.23908 0.0
Cd14 Cd 0.6689 0.08967 0.22323 0.0
O15 O 0.68139 0.06831 0.17551 0.0
C16 C 0.6861 0.07613 0.13188 0.0
O17 O 0.68542 0.09751 0.11984 0.0
C18 C 0.64472 0.1258 0.23145 0.0
C19 C 0.73368 0.15241 0.29746 0.0
O20 O 0.74001 0.16809 0.26123 0.0
O21 O 0.71407 0.12897 0.29273 0.0
O22 O 0.51907 0.6697 0.36628 0.0
Cd23 Cd 0.56443 0.70612 0.35824 0.0
O24 O 0.53214 0.64519 0.4043 0.0
Cd25 Cd 0.57366 0.67071 0.38622 0.0
O26 O 0.608 0.67949 0.34222 0.0
C27 C 0.60587 0.68181 0.29699 0.0
O28 O 0.58439 0.68096 0.28052 0.0
C29 C 0.51359 0.64866 0.38901 0.0
C30 C 0.57887 0.73532 0.44376 0.0
O31 O 0.56948 0.74192 0.40794 0.0
O32 O 0.58198 0.71528 0.43873 0.0
O33 O 0.86101 0.52239 0.5448 0.0
Cd34 Cd 0.86927 0.56708 0.52989 0.0
O35 O 0.89919 0.53731 0.58166 0.0
Cd36 Cd 0.91391 0.57806 0.55917 0.0
O37 O 0.93743 0.61018 0.50911 0.0
C38 C 0.93151 0.60554 0.46459 0.0
O39 O 0.91077 0.583 0.45239 0.0
C40 C 0.87712 0.51804 0.56842 0.0
C41 C 0.83939 0.57821 0.59393 0.0
O42 O 0.83128 0.57037 0.55075 0.0
O43 O 0.86183 0.58125 0.60649 0.0
O44 O 0.3412 0.86434 0.68987 0.0
Cd45 Cd 0.30374 0.87129 0.67753 0.0
O46 O 0.36539 0.9037 0.722 0.0
Cd47 Cd 0.33799 0.91698 0.70075 0.0
O48 O 0.32531 0.9374 0.65094 0.0
C49 C 0.33831 0.96245 0.65086 0.0
O50 O 0.35704 0.97461 0.68321 0.0
C51 C 0.36237 0.8813 0.71055 0.0
C52 C 0.27085 0.85187 0.75799 0.0
O53 O 0.26667 0.83755 0.7203 0.0
O54 O 0.29023 0.87561 0.75714 0.0
O55 O 0.47003 0.33072 0.87538 0.0
Cd56 Cd 0.42438 0.29582 0.86254 0.0
O57 O 0.45823 0.35162 0.92682 0.0
Cd58 Cd 0.41673 0.32831 0.90668 0.0
O59 O 0.38601 0.32276 0.8554 0.0
C60 C 0.39342 0.32708 0.8115 0.0
O61 O 0.41761 0.33278 0.80103 0.0
C62 C 0.47628 0.34936 0.9055 0.0
C63 C 0.4125 0.25449 0.92626 0.0
O64 O 0.41062 0.27449 0.93944 0.0
O65 O 0.41951 0.25379 0.88261 0.0
O66 O 0.53273 0.86285 0.77927 0.0
Cd67 Cd 0.57756 0.87089 0.79083 0.0
O68 O 0.54575 0.90519 0.78167 0.0
Cd69 Cd 0.58579 0.91727 0.80546 0.0
O70 O 0.61836 0.9378 0.85627 0.0
C71 C 0.63094 0.96285 0.85504 0.0
O72 O 0.62523 0.97484 0.82093 0.0
C73 C 0.52752 0.88144 0.77559 0.0
C74 C 0.58691 0.84048 0.72496 0.0
O75 O 0.59 0.863 0.71292 0.0
O76 O 0.5799 0.83254 0.7685 0.0
O77 O 0.66867 0.51735 0.94822 0.0
Cd78 Cd 0.70517 0.56261 0.95604 0.0
O79 O 0.64119 0.52544 0.9889 0.0
Cd80 Cd 0.67004 0.56573 0.00984 0.0
O81 O 0.68108 0.60015 0.05541 0.0
C82 C 0.66879 0.61268 0.04876 0.0
O83 O 0.65201 0.60568 0.01261 0.0
C84 C 0.64567 0.50963 0.96468 0.0
C85 C 0.73476 0.57622 0.87113 0.0
O86 O 0.74113 0.5671 0.9077 0.0
O87 O 0.71476 0.57949 0.87517 0.0
O88 O 0.13713 0.66115 0.06485 0.0
Cd89 Cd 0.12609 0.69589 0.07707 0.0
O90 O 0.10995 0.63576 0.12155 0.0
Cd91 Cd 0.09776 0.66351 0.14622 0.0
O92 O 0.07606 0.67459 0.19614 0.0
C93 C 0.05103 0.66115 0.1945 0.0
O94 O 0.03985 0.64306 0.16074 0.0
C95 C 0.12651 0.6396 0.08834 0.0
C96 C 0.15764 0.73886 0.01806 0.0
O97 O 0.16378 0.73844 0.06243 0.0
O98 O 0.13639 0.71917 0.00187 0.0
O99 O 0.47171 0.14175 0.27903 0.0
Cd100 Cd 0.42663 0.13367 0.28649 0.0
O101 O 0.45795 0.10059 0.25832 0.0
Cd102 Cd 0.41682 0.08703 0.27616 0.0
O103 O 0.38447 0.06563 0.32687 0.0
C104 C 0.38901 0.07358 0.37045 0.0
O105 O 0.41143 0.09499 0.38064 0.0
C106 C 0.47675 0.12399 0.26529 0.0
C107 C 0.41344 0.15029 0.20187 0.0
O108 O 0.42274 0.16562 0.23858 0.0
O109 O 0.40982 0.12687 0.20558 0.0
O110 O 0.32202 0.47925 0.44032 0.0
Cd111 Cd 0.28539 0.43458 0.45412 0.0
O112 O 0.35119 0.46937 0.46846 0.0
Cd113 Cd 0.3232 0.42975 0.49404 0.0
O114 O 0.31564 0.39802 0.54444 0.0
C115 C 0.33286 0.39084 0.5448 0.0
O116 O 0.35219 0.40139 0.51318 0.0
C117 C 0.34586 0.48588 0.44917 0.0
C118 C 0.25123 0.41867 0.37507 0.0
O119 O 0.24733 0.42949 0.41207 0.0
O120 O 0.27105 0.41498 0.37584 0.0
O121 O 0.85934 0.32916 0.63252 0.0
Cd122 Cd 0.86879 0.29315 0.64202 0.0
O123 O 0.9011 0.35924 0.64165 0.0
Cd124 Cd 0.91503 0.33205 0.66061 0.0
O125 O 0.94232 0.3234 0.69931 0.0
C126 C 0.93511 0.30597 0.73221 0.0
O127 O 0.90984 0.29097 0.74145 0.0
C128 C 0.87739 0.35325 0.63315 0.0
C129 C 0.83833 0.25301 0.57682 0.0
O130 O 0.83082 0.25194 0.62072 0.0
O131 O 0.86044 0.2728 0.56406 0.0
H132 H 0.13312 0.40934 0.2167 0.0
H133 H 0.16694 0.39094 0.09337 0.0
H134 H 0.20029 0.38996 0.14693 0.0
H135 H 0.19355 0.45344 0.27167 0.0
H136 H 0.18194 0.44397 0.3328 0.0
H137 H 0.15918 0.44055 0.28576 0.0
H138 H 0.12994 0.39093 0.30635 0.0
H139 H 0.15261 0.39421 0.3536 0.0
H140 H 0.14433 0.36994 0.30663 0.0
H141 H 0.23119 0.39308 0.21338 0.0
H142 H 0.25843 0.40193 0.28681 0.0
H143 H 0.20516 0.41981 0.36585 0.0
C144 C 0.14725 0.40465 0.20107 0.0
C145 C 0.14732 0.39999 0.15095 0.0
C146 C 0.16648 0.39447 0.13172 0.0
C147 C 0.18544 0.39379 0.16186 0.0
C148 C 0.18502 0.3988 0.21106 0.0
C149 C 0.16646 0.40419 0.2305 0.0
C150 C 0.17135 0.41067 0.28386 0.0
C151 C 0.17684 0.43883 0.29409 0.0
C152 C 0.14818 0.39021 0.3144 0.0
C153 C 0.19581 0.40847 0.29126 0.0
C154 C 0.20319 0.40128 0.24901 0.0
C155 C 0.22552 0.39858 0.24674 0.0
C156 C 0.24086 0.40365 0.28864 0.0
C157 C 0.23394 0.41158 0.33206 0.0
C158 C 0.21096 0.41375 0.33328 0.0
H159 H 0.84113 0.25668 0.47819 0.0
H160 H 0.79708 0.20352 0.5955 0.0
H161 H 0.76742 0.17036 0.53602 0.0
H162 H 0.78587 0.24289 0.40725 0.0
H163 H 0.80172 0.24534 0.35005 0.0
H164 H 0.82111 0.26364 0.40145 0.0
H165 H 0.85026 0.24207 0.39204 0.0
H166 H 0.83096 0.22371 0.34048 0.0
H167 H 0.83496 0.20662 0.39114 0.0
H168 H 0.74141 0.14387 0.46382 0.0
H169 H 0.71956 0.12708 0.38489 0.0
H170 H 0.77967 0.19849 0.31538 0.0
C171 C 0.82554 0.23787 0.49135 0.0
C172 C 0.82153 0.23254 0.54141 0.0
C173 C 0.80054 0.20795 0.55726 0.0
C174 C 0.78367 0.18897 0.52377 0.0
C175 C 0.78798 0.19499 0.47464 0.0
C176 C 0.80834 0.21889 0.45849 0.0
C177 C 0.80755 0.22129 0.40406 0.0
C178 C 0.80383 0.24467 0.3899 0.0
C179 C 0.83241 0.22355 0.38055 0.0
C180 C 0.78333 0.19517 0.39215 0.0
C181 C 0.77254 0.18011 0.43324 0.0
C182 C 0.74976 0.15543 0.43136 0.0
C183 C 0.73751 0.14606 0.38637 0.0
C184 C 0.7479 0.16148 0.344 0.0
C185 C 0.77126 0.18622 0.34709 0.0
H186 H 0.58594 0.84383 0.62646 0.0
H187 H 0.59438 0.79863 0.7425 0.0
H188 H 0.59702 0.7688 0.68224 0.0
H189 H 0.54341 0.78921 0.5556 0.0
H190 H 0.55667 0.80503 0.49832 0.0
H191 H 0.55855 0.82453 0.55008 0.0
H192 H 0.60926 0.85275 0.53971 0.0
H193 H 0.60753 0.83333 0.48777 0.0
H194 H 0.62876 0.83674 0.53784 0.0
H195 H 0.59651 0.74269 0.60955 0.0
H196 H 0.59033 0.72074 0.53044 0.0
H197 H 0.58022 0.782 0.46243 0.0
C198 C 0.58887 0.82797 0.63916 0.0
C199 C 0.59023 0.82366 0.68908 0.0
C200 C 0.59341 0.80232 0.70436 0.0
C201 C 0.59502 0.78535 0.67043 0.0
C202 C 0.59326 0.78993 0.62145 0.0
C203 C 0.59014 0.81065 0.60585 0.0
C204 C 0.58664 0.81005 0.55151 0.0
C205 C 0.55972 0.80701 0.53811 0.0
C206 C 0.60941 0.83468 0.52782 0.0
C207 C 0.58785 0.7855 0.53902 0.0
C208 C 0.59208 0.77441 0.57974 0.0
C209 C 0.59333 0.75127 0.57738 0.0
C210 C 0.58982 0.73896 0.53227 0.0
C211 C 0.58478 0.74965 0.49029 0.0
C212 C 0.58408 0.77337 0.49384 0.0
H213 H 0.84277 0.57896 0.69258 0.0
H214 H 0.79812 0.58627 0.57419 0.0
H215 H 0.76868 0.59061 0.633 0.0
H216 H 0.78794 0.53834 0.76437 0.0
H217 H 0.80383 0.55238 0.82127 0.0
H218 H 0.82322 0.55309 0.7702 0.0
H219 H 0.85205 0.60389 0.77795 0.0
H220 H 0.83275 0.60334 0.82919 0.0
H221 H 0.83651 0.62385 0.77771 0.0
H222 H 0.74276 0.59176 0.70461 0.0
H223 H 0.72071 0.58695 0.78318 0.0
H224 H 0.78127 0.57689 0.85437 0.0
C225 C 0.82712 0.58202 0.67904 0.0
C226 C 0.82285 0.58256 0.62888 0.0
C227 C 0.80178 0.58592 0.61252 0.0
C228 C 0.78504 0.5885 0.64563 0.0
C229 C 0.78957 0.58752 0.69489 0.0
C230 C 0.81003 0.58424 0.71154 0.0
C231 C 0.80934 0.58162 0.76609 0.0
C232 C 0.80586 0.55476 0.78135 0.0
C233 C 0.83414 0.60455 0.78908 0.0
C234 C 0.78502 0.58346 0.77748 0.0
C235 C 0.77414 0.58729 0.73603 0.0
C236 C 0.75119 0.58892 0.73735 0.0
C237 C 0.73882 0.58618 0.78216 0.0
C238 C 0.74926 0.58152 0.82489 0.0
C239 C 0.77283 0.58048 0.82238 0.0
H240 H 0.15862 0.73898 0.91921 0.0
H241 H 0.19654 0.78824 0.04447 0.0
H242 H 0.22739 0.82423 0.99059 0.0
H243 H 0.21698 0.75759 0.85495 0.0
H244 H 0.20317 0.75668 0.7962 0.0
H245 H 0.18224 0.73605 0.84412 0.0
H246 H 0.15188 0.75619 0.83348 0.0
H247 H 0.17274 0.7769 0.78541 0.0
H248 H 0.16587 0.79146 0.83679 0.0
H249 H 0.25546 0.85392 0.92326 0.0
H250 H 0.28031 0.87409 0.84819 0.0
H251 H 0.22506 0.80453 0.7675 0.0
C252 C 0.17309 0.75752 0.93527 0.0
C253 C 0.17506 0.76096 0.98596 0.0
C254 C 0.19465 0.78526 0.00568 0.0
C255 C 0.21217 0.80583 0.97538 0.0
C256 C 0.20991 0.80168 0.92553 0.0
C257 C 0.19093 0.77808 0.90562 0.0
C258 C 0.19399 0.77784 0.85127 0.0
C259 C 0.19943 0.75574 0.83575 0.0
C260 C 0.16967 0.77547 0.82521 0.0
C261 C 0.21794 0.80482 0.84378 0.0
C262 C 0.22658 0.81844 0.88692 0.0
C263 C 0.24879 0.84351 0.88922 0.0
C264 C 0.26275 0.85481 0.84638 0.0
C265 C 0.25463 0.84088 0.80201 0.0
C266 C 0.23174 0.8157 0.80082 0.0
H267 H 0.41246 0.25709 0.02497 0.0
H268 H 0.403 0.20471 0.90598 0.0
H269 H 0.39823 0.17058 0.96438 0.0
H270 H 0.4526 0.24154 0.09536 0.0
H271 H 0.43915 0.24375 0.15268 0.0
H272 H 0.43861 0.26272 0.10193 0.0
H273 H 0.38796 0.24186 0.11077 0.0
H274 H 0.38835 0.22282 0.1617 0.0
H275 H 0.36735 0.20646 0.11055 0.0
H276 H 0.39699 0.1432 0.03561 0.0
H277 H 0.40178 0.12557 0.11379 0.0
H278 H 0.41391 0.19673 0.18574 0.0
C279 C 0.40885 0.23824 0.01122 0.0
C280 C 0.40783 0.23341 0.96099 0.0
C281 C 0.40373 0.20875 0.94435 0.0
C282 C 0.4009 0.18923 0.97723 0.0
C283 C 0.40238 0.19477 0.02655 0.0
C284 C 0.40635 0.21871 0.04347 0.0
C285 C 0.40933 0.22056 0.09797 0.0
C286 C 0.43654 0.2435 0.11283 0.0
C287 C 0.38691 0.22306 0.12164 0.0
C288 C 0.4069 0.19411 0.109 0.0
C289 C 0.40248 0.17934 0.06744 0.0
C290 C 0.40028 0.15451 0.06844 0.0
C291 C 0.40301 0.14466 0.11302 0.0
C292 C 0.40823 0.15978 0.15585 0.0
C293 C 0.40987 0.18468 0.15367 0.0
H294 H 0.10411 0.49395 0.09538 0.0
H295 H 0.16294 0.51701 0.98204 0.0
H296 H 0.17139 0.56278 0.98674 0.0
H297 H 0.07685 0.5321 0.05572 0.0
H298 H 0.07128 0.54061 0.11552 0.0
H299 H 0.07148 0.5103 0.10592 0.0
H300 H 0.10795 0.5239 0.17097 0.0
H301 H 0.10779 0.55424 0.18096 0.0
H302 H 0.13812 0.55507 0.16551 0.0
H303 H 0.171 0.60542 5e-05 0.0
H304 H 0.16246 0.64144 0.0221 0.0
H305 H 0.10411 0.58995 0.12691 0.0
C306 C 0.11904 0.50865 0.07194 0.0
C307 C 0.13289 0.50186 0.03837 0.0
C308 C 0.15214 0.52173 0.00818 0.0
C309 C 0.15708 0.54779 0.01057 0.0
C310 C 0.14273 0.55367 0.04355 0.0
C311 C 0.12423 0.53467 0.0739 0.0
C312 C 0.11069 0.54573 0.10479 0.0
C313 C 0.08081 0.53133 0.09486 0.0
C314 C 0.1165 0.54468 0.15875 0.0
C315 C 0.12408 0.57382 0.08646 0.0
C316 C 0.1426 0.57811 0.05133 0.0
C317 C 0.15673 0.60234 0.02787 0.0
C318 C 0.1517 0.62267 0.04057 0.0
C319 C 0.13268 0.61859 0.07635 0.0
C320 C 0.11892 0.59384 0.09968 0.0
H321 H 0.4946 0.08901 0.2564 0.0
H322 H 0.52138 0.17283 0.26076 0.0
H323 H 0.56753 0.1827 0.2522 0.0
H324 H 0.5474 0.09228 0.32659 0.0
H325 H 0.5492 0.06697 0.29246 0.0
H326 H 0.51835 0.06665 0.2972 0.0
H327 H 0.51488 0.06652 0.20368 0.0
H328 H 0.54567 0.06674 0.19865 0.0
H329 H 0.54162 0.09197 0.16915 0.0
H330 H 0.61088 0.18317 0.24244 0.0
H331 H 0.6478 0.17419 0.23466 0.0
H332 H 0.5921 0.09007 0.23994 0.0
C333 C 0.51012 0.10947 0.2552 0.0
C334 C 0.50438 0.13016 0.25897 0.0
C335 C 0.52532 0.15665 0.25787 0.0
C336 C 0.55158 0.16245 0.25298 0.0
C337 C 0.55653 0.14154 0.24963 0.0
C338 C 0.53636 0.11558 0.25087 0.0
C339 C 0.54686 0.09668 0.24783 0.0
C340 C 0.54005 0.07965 0.29376 0.0
C341 C 0.53666 0.07947 0.2021 0.0
C342 C 0.57613 0.11602 0.24457 0.0
C343 C 0.58136 0.14181 0.24537 0.0
C344 C 0.60701 0.16305 0.24195 0.0
C345 C 0.62784 0.15776 0.23752 0.0
C346 C 0.62286 0.13144 0.23696 0.0
C347 C 0.59662 0.11041 0.2407 0.0
H348 H 0.49566 0.60039 0.43132 0.0
H349 H 0.46861 0.64934 0.36246 0.0
H350 H 0.42241 0.61337 0.37168 0.0
H351 H 0.449 0.54008 0.37653 0.0
H352 H 0.44498 0.52039 0.42942 0.0
H353 H 0.47568 0.5504 0.41921 0.0
H354 H 0.47201 0.5678 0.50344 0.0
H355 H 0.44132 0.53779 0.51399 0.0
H356 H 0.44276 0.56921 0.51843 0.0
H357 H 0.37901 0.57113 0.38664 0.0
H358 H 0.34234 0.52654 0.40656 0.0
H359 H 0.39865 0.50597 0.46485 0.0
C360 C 0.48008 0.60372 0.41847 0.0
C361 C 0.48579 0.62774 0.39625 0.0
C362 C 0.46473 0.63113 0.3797 0.0
C363 C 0.43843 0.61081 0.38477 0.0
C364 C 0.43355 0.58728 0.40646 0.0
C365 C 0.45383 0.58371 0.42312 0.0
C366 C 0.44351 0.55644 0.44411 0.0
C367 C 0.45391 0.54092 0.4156 0.0
C368 C 0.4503 0.55791 0.4982 0.0
C369 C 0.41423 0.54509 0.43645 0.0
C370 C 0.40879 0.56314 0.41481 0.0
C371 C 0.38305 0.55688 0.40374 0.0
C372 C 0.36236 0.5315 0.41515 0.0
C373 C 0.36757 0.51272 0.43729 0.0
C374 C 0.39391 0.5198 0.44801 0.0
H375 H 0.91074 0.40649 0.64028 0.0
H376 H 0.83001 0.34808 0.60433 0.0
H377 H 0.82042 0.38388 0.58646 0.0
H378 H 0.89589 0.45305 0.69799 0.0
H379 H 0.92505 0.48138 0.67469 0.0
H380 H 0.92514 0.4511 0.68584 0.0
H381 H 0.93919 0.45076 0.59702 0.0
H382 H 0.93915 0.48103 0.5856 0.0
H383 H 0.91951 0.45247 0.54846 0.0
H384 H 0.82046 0.42652 0.56906 0.0
H385 H 0.82991 0.47219 0.55505 0.0
H386 H 0.91036 0.50195 0.60432 0.0
C387 C 0.89098 0.40113 0.62886 0.0
C388 C 0.87113 0.37444 0.62366 0.0
C389 C 0.84553 0.36838 0.60866 0.0
C390 C 0.8399 0.38858 0.59843 0.0
C391 C 0.86002 0.41469 0.6037 0.0
C392 C 0.88501 0.42095 0.61878 0.0
C393 C 0.90331 0.45048 0.62094 0.0
C394 C 0.9129 0.45953 0.67296 0.0
C395 C 0.92666 0.45918 0.58591 0.0
C396 C 0.88483 0.45992 0.60421 0.0
C397 C 0.85994 0.43904 0.59443 0.0
C398 C 0.83983 0.44302 0.57696 0.0
C399 C 0.8454 0.46902 0.56907 0.0
C400 C 0.87084 0.49068 0.5788 0.0
C401 C 0.89064 0.4859 0.59695 0.0
H402 H 0.41279 0.91569 0.74034 0.0
H403 H 0.36062 0.83371 0.70152 0.0
H404 H 0.39698 0.82445 0.71515 0.0
H405 H 0.47006 0.92223 0.68217 0.0
H406 H 0.49251 0.9435 0.72805 0.0
H407 H 0.4621 0.94334 0.7171 0.0
H408 H 0.44935 0.93257 0.80744 0.0
H409 H 0.47977 0.93278 0.81871 0.0
H410 H 0.44872 0.90419 0.83431 0.0
H411 H 0.43946 0.8244 0.73245 0.0
H412 H 0.48472 0.83375 0.75066 0.0
H413 H 0.50879 0.91598 0.77613 0.0
C414 C 0.40889 0.89572 0.73503 0.0
C415 C 0.3838 0.87539 0.72004 0.0
C416 C 0.37967 0.8496 0.71304 0.0
C417 C 0.40019 0.84414 0.72074 0.0
C418 C 0.42472 0.86471 0.73521 0.0
C419 C 0.42913 0.88998 0.74219 0.0
C420 C 0.45743 0.90876 0.75656 0.0
C421 C 0.47134 0.93075 0.71871 0.0
C422 C 0.45889 0.92024 0.80727 0.0
C423 C 0.46831 0.89012 0.7565 0.0
C424 C 0.44915 0.86477 0.74432 0.0
C425 C 0.45462 0.84419 0.74202 0.0
C426 C 0.48038 0.84969 0.75244 0.0
C427 C 0.50034 0.8756 0.76472 0.0
C428 C 0.49406 0.89598 0.76669 0.0
H429 H 0.49596 0.39417 0.9606 0.0
H430 H 0.52008 0.34996 0.86822 0.0
H431 H 0.56663 0.38501 0.87727 0.0
H432 H 0.54017 0.45664 0.91393 0.0
H433 H 0.54657 0.47357 0.97111 0.0
H434 H 0.51553 0.44396 0.96093 0.0
H435 H 0.52301 0.42266 0.03709 0.0
H436 H 0.55407 0.45229 0.04765 0.0
H437 H 0.55285 0.42099 0.04238 0.0
H438 H 0.61034 0.42644 0.89223 0.0
H439 H 0.64749 0.47071 0.91204 0.0
H440 H 0.59423 0.48743 0.99405 0.0
C441 C 0.51102 0.39159 0.94284 0.0
C442 C 0.50434 0.36924 0.91382 0.0
C443 C 0.52469 0.36686 0.89076 0.0
C444 C 0.5512 0.38665 0.89573 0.0
C445 C 0.55702 0.40864 0.92398 0.0
C446 C 0.53749 0.41114 0.9473 0.0
C447 C 0.54873 0.43725 0.97353 0.0
C448 C 0.53706 0.45383 0.95367 0.0
C449 C 0.54441 0.43304 0.02842 0.0
C450 C 0.57759 0.44929 0.96062 0.0
C451 C 0.58206 0.43244 0.93234 0.0
C452 C 0.6071 0.4397 0.91471 0.0
C453 C 0.62808 0.4649 0.9261 0.0
C454 C 0.62384 0.48257 0.95466 0.0
C455 C 0.59823 0.47441 0.97233 0.0
H456 H 0.07394 0.37591 0.85874 0.0
H457 H 0.03767 0.32247 0.97965 0.0
H458 H 0.99815 0.29533 0.92973 0.0
H459 H 0.0199 0.37828 0.82393 0.0
H460 H 0.02569 0.37967 0.75967 0.0
H461 H 0.05297 0.39152 0.80093 0.0
H462 H 0.06698 0.3598 0.76329 0.0
H463 H 0.03973 0.34791 0.72151 0.0
H464 H 0.04345 0.32501 0.75972 0.0
H465 H 0.95995 0.27868 0.87163 0.0
H466 H 0.92695 0.27392 0.81068 0.0
H467 H 0.98858 0.33824 0.72804 0.0
C468 C 0.05805 0.35805 0.87434 0.0
C469 C 0.05894 0.35131 0.9231 0.0
C470 C 0.03753 0.32797 0.94229 0.0
C471 C 0.015 0.31238 0.91415 0.0
C472 C 0.01435 0.32022 0.86674 0.0
C473 C 0.03551 0.34236 0.84682 0.0
C474 C 0.02893 0.34833 0.79716 0.0
C475 C 0.03204 0.37607 0.79537 0.0
C476 C 0.04577 0.34506 0.75811 0.0
C477 C 0.00032 0.32697 0.79326 0.0
C478 C 0.99236 0.3106 0.83325 0.0
C479 C 0.96611 0.29101 0.83967 0.0
C480 C 0.94748 0.28849 0.80489 0.0
C481 C 0.95517 0.30565 0.76448 0.0
C482 C 0.98208 0.32458 0.75815 0.0
H483 H 0.65377 0.01587 0.87071 0.0
H484 H 0.6457 0.94416 0.93308 0.0
H485 H 0.6672 0.96844 0.00789 0.0
H486 H 0.71771 0.06372 0.93378 0.0
H487 H 0.70669 0.08729 0.94134 0.0
H488 H 0.69639 0.06591 0.88919 0.0
H489 H 0.6475 0.04963 0.91047 0.0
H490 H 0.65757 0.07071 0.96261 0.0
H491 H 0.63525 0.03581 0.9695 0.0
H492 H 0.68148 0.99799 0.08037 0.0
H493 H 0.68745 0.03022 0.1438 0.0
H494 H 0.68636 0.0827 0.03406 0.0
C495 C 0.65737 0.00546 0.89939 0.0
C496 C 0.64812 0.97814 0.89597 0.0
C497 C 0.65273 0.96513 0.93477 0.0
C498 C 0.66502 0.97879 0.97738 0.0
C499 C 0.67286 0.00551 0.9804 0.0
C500 C 0.6695 0.01879 0.94215 0.0
C501 C 0.67643 0.04649 0.95648 0.0
C502 C 0.70076 0.06707 0.92854 0.0
C503 C 0.65278 0.05088 0.94937 0.0
C504 C 0.68272 0.0462 0.00949 0.0
C505 C 0.68113 0.02263 0.02242 0.0
C506 C 0.68341 0.01677 0.07047 0.0
C507 C 0.68671 0.03517 0.1063 0.0
C508 C 0.68747 0.05903 0.09389 0.0
C509 C 0.68629 0.06485 0.04468 0.0
H510 H 0.60179 0.67725 0.19865 0.0
H511 H 0.65212 0.68268 0.31862 0.0
H512 H 0.67924 0.67304 0.26303 0.0
H513 H 0.59768 0.62305 0.14801 0.0
H514 H 0.5978 0.63225 0.08573 0.0
H515 H 0.58617 0.64547 0.13198 0.0
H516 H 0.62001 0.69302 0.10499 0.0
H517 H 0.63169 0.67991 0.05822 0.0
H518 H 0.65452 0.70301 0.10166 0.0
H519 H 0.69575 0.65509 0.19812 0.0
H520 H 0.70001 0.63027 0.12986 0.0
H521 H 0.63879 0.63645 0.0524 0.0
C522 C 0.61906 0.67735 0.213 0.0
C523 C 0.62488 0.68082 0.26295 0.0
C524 C 0.64734 0.68021 0.28043 0.0
C525 C 0.66293 0.67484 0.24907 0.0
C526 C 0.65597 0.6704 0.20029 0.0
C527 C 0.6347 0.67189 0.18226 0.0
C528 C 0.62926 0.66306 0.12999 0.0
C529 C 0.60108 0.63956 0.12361 0.0
C530 C 0.63417 0.68613 0.09675 0.0
C531 C 0.64982 0.65496 0.12222 0.0
C532 C 0.66544 0.65989 0.16278 0.0
C533 C 0.68405 0.65168 0.16577 0.0
C534 C 0.68628 0.63752 0.12684 0.0
C535 C 0.66979 0.63148 0.0857 0.0
C536 C 0.65195 0.64107 0.08298 0.0
H537 H 0.99796 0.62987 0.20822 0.0
H538 H 0.06797 0.6951 0.27195 0.0
H539 H 0.04227 0.6925 0.34465 0.0
H540 H 0.94848 0.64551 0.2639 0.0
H541 H 0.92513 0.61097 0.2724 0.0
H542 H 0.94755 0.62153 0.2218 0.0
H543 H 0.96406 0.58983 0.24881 0.0
H544 H 0.9419 0.57932 0.29946 0.0
H545 H 0.97672 0.59247 0.30929 0.0
H546 H 0.01113 0.67796 0.41518 0.0
H547 H 0.97731 0.65283 0.47707 0.0
H548 H 0.92775 0.59717 0.36699 0.0
C549 C 0.00772 0.64419 0.23675 0.0
C550 C 0.03496 0.66274 0.2343 0.0
C551 C 0.04709 0.68079 0.27288 0.0
C552 C 0.03262 0.67952 0.31429 0.0
C553 C 0.006 0.66028 0.31633 0.0
C554 C 0.99361 0.64312 0.27829 0.0
C555 C 0.96574 0.62231 0.29146 0.0
C556 C 0.94553 0.62527 0.26055 0.0
C557 C 0.96191 0.59435 0.28701 0.0
C558 C 0.96484 0.62959 0.34365 0.0
C559 C 0.98803 0.65185 0.35711 0.0
C560 C 0.99267 0.66085 0.40479 0.0
C561 C 0.97336 0.6464 0.43973 0.0
C562 C 0.94983 0.62307 0.42686 0.0
C563 C 0.94534 0.6151 0.37792 0.0
H564 H 0.3686 0.01523 0.63278 0.0
H565 H 0.30283 0.94327 0.57584 0.0
H566 H 0.30381 0.96691 0.50121 0.0
H567 H 0.35134 0.06285 0.57275 0.0
H568 H 0.38569 0.08612 0.56195 0.0
H569 H 0.37603 0.06519 0.61467 0.0
H570 H 0.40764 0.0483 0.58925 0.0
H571 H 0.41723 0.06894 0.53652 0.0
H572 H 0.4042 0.03393 0.5301 0.0
H573 H 0.31714 0.99585 0.42782 0.0
H574 H 0.34148 0.02761 0.36251 0.0
H575 H 0.39839 0.08069 0.46757 0.0
C576 C 0.35379 0.00464 0.60537 0.0
C577 C 0.3356 0.97742 0.61023 0.0
C578 C 0.31689 0.96416 0.57305 0.0
C579 C 0.31724 0.97746 0.53055 0.0
C580 C 0.3362 0.00406 0.52605 0.0
C581 C 0.35394 0.01759 0.56276 0.0
C582 C 0.37439 0.04509 0.54687 0.0
C583 C 0.37169 0.06605 0.57578 0.0
C584 C 0.4025 0.04928 0.5509 0.0
C585 C 0.36629 0.04442 0.49468 0.0
C586 C 0.3439 0.02082 0.48356 0.0
C587 C 0.33431 0.01465 0.43635 0.0
C588 C 0.34832 0.03278 0.39945 0.0
C589 C 0.37179 0.05669 0.40995 0.0
C590 C 0.38031 0.0628 0.45844 0.0
H591 H 0.37037 0.37695 0.56058 0.0
H592 H 0.29728 0.36746 0.61893 0.0
H593 H 0.30194 0.34456 0.69017 0.0
H594 H 0.36312 0.31392 0.60755 0.0
H595 H 0.39793 0.32923 0.6202 0.0
H596 H 0.3865 0.34088 0.57056 0.0
H597 H 0.41126 0.38816 0.60624 0.0
H598 H 0.42261 0.37667 0.65599 0.0
H599 H 0.40449 0.39356 0.66752 0.0
H600 H 0.31777 0.32806 0.7598 0.0
H601 H 0.34326 0.31941 0.82122 0.0
H602 H 0.40584 0.33997 0.7165 0.0
C603 C 0.35494 0.36945 0.58764 0.0
C604 C 0.33341 0.37392 0.58407 0.0
C605 C 0.31389 0.36415 0.62076 0.0
C606 C 0.31634 0.35107 0.66132 0.0
C607 C 0.3383 0.34774 0.6644 0.0
C608 C 0.35713 0.35648 0.62827 0.0
C609 C 0.38011 0.35279 0.64208 0.0
C610 C 0.38201 0.33302 0.60808 0.0
C611 C 0.40613 0.37937 0.64303 0.0
C612 C 0.37175 0.3415 0.69236 0.0
C613 C 0.34742 0.33835 0.70444 0.0
C614 C 0.33662 0.33002 0.75042 0.0
C615 C 0.35127 0.32519 0.7851 0.0
C616 C 0.37651 0.32892 0.77365 0.0
C617 C 0.3865 0.33665 0.72632 0.0
loop_
_geom_bond_atom_site_label_1
_geom_bond_atom_site_label_2
_geom_bond_distance
_geom_bond_site_symmetry_2
_ccdc_geom_bond_type
O0 Cd1 2.300 . S
O0 C7 1.275 . S
Cd1 O0 2.300 . S
Cd1 O9 2.381 . S
Cd1 O10 2.378 . S
O2 Cd3 2.385 . S
O2 C7 1.255 . S
Cd3 O2 2.385 . S
Cd3 O4 2.317 . S
O4 Cd3 2.317 . S
O4 C5 1.232 1_554 S
C5 O4 1.232 1_556 S
C5 O6 1.218 1_556 S
O6 C5 1.218 1_554 S
C7 O0 1.275 . S
C7 O2 1.255 . S
C8 O9 1.258 . S
C8 O10 1.256 . S
O9 Cd1 2.381 . S
O9 C8 1.258 . S
O10 Cd1 2.378 . S
O10 C8 1.256 . S
O11 Cd12 2.300 . S
O11 C18 1.275 . S
Cd12 O11 2.300 . S
Cd12 O20 2.381 . S
Cd12 O21 2.378 . S
O13 Cd14 2.385 . S
O13 C18 1.255 . S
Cd14 O13 2.385 . S
Cd14 O15 2.317 . S
O15 Cd14 2.317 . S
O15 C16 1.232 . S
C16 O15 1.232 . S
C16 O17 1.218 . S
O17 C16 1.218 . S
C18 O11 1.275 . S
C18 O13 1.255 . S
C19 O20 1.258 . S
C19 O21 1.256 . S
O20 Cd12 2.381 . S
O20 C19 1.258 . S
O21 Cd12 2.378 . S
O21 C19 1.256 . S
O22 Cd23 2.300 . S
O22 C29 1.275 . S
Cd23 O22 2.300 . S
Cd23 O31 2.381 . S
Cd23 O32 2.378 . S
O24 Cd25 2.385 . S
O24 C29 1.255 . S
Cd25 O24 2.385 . S
Cd25 O26 2.317 . S
O26 Cd25 2.317 . S
O26 C27 1.232 . S
C27 O26 1.232 . S
C27 O28 1.218 . S
O28 C27 1.218 . S
C29 O22 1.275 . S
C29 O24 1.255 . S
C30 O31 1.258 . S
C30 O32 1.256 . S
O31 Cd23 2.381 . S
O31 C30 1.258 . S
O32 Cd23 2.378 . S
O32 C30 1.256 . S
O33 Cd34 2.300 . S
O33 C40 1.275 . S
Cd34 O33 2.300 . S
Cd34 O42 2.381 . S
Cd34 O43 2.378 . S
O35 Cd36 2.385 . S
O35 C40 1.255 . S
Cd36 O35 2.385 . S
Cd36 O37 2.317 . S
O37 Cd36 2.317 . S
O37 C38 1.232 . S
C38 O37 1.232 . S
C38 O39 1.218 . S
O39 C38 1.218 . S
C40 O33 1.275 . S
C40 O35 1.255 . S
C41 O42 1.258 . S
C41 O43 1.256 . S
O42 Cd34 2.381 . S
O42 C41 1.258 . S
O43 Cd34 2.378 . S
O43 C41 1.256 . S
O44 Cd45 2.300 . S
O44 C51 1.275 . S
Cd45 O44 2.300 . S
Cd45 O53 2.381 . S
Cd45 O54 2.378 . S
O46 Cd47 2.385 . S
O46 C51 1.255 . S
Cd47 O46 2.385 . S
Cd47 O48 2.317 . S
O48 Cd47 2.317 . S
O48 C49 1.232 . S
C49 O48 1.232 . S
C49 O50 1.218 . S
O50 C49 1.218 . S
C51 O44 1.275 . S
C51 O46 1.255 . S
C52 O53 1.258 . S
C52 O54 1.256 . S
O53 Cd45 2.381 . S
O53 C52 1.258 . S
O54 Cd45 2.378 . S
O54 C52 1.256 . S
O55 Cd56 2.300 . S
O55 C62 1.275 . S
Cd56 O55 2.300 . S
Cd56 O64 2.381 . S
Cd56 O65 2.378 1_556 S
O57 Cd58 2.385 . S
O57 C62 1.255 . S
Cd58 O57 2.385 . S
Cd58 O59 2.317 . S
O59 Cd58 2.317 . S
O59 C60 1.232 . S
C60 O59 1.232 . S
C60 O61 1.218 . S
O61 C60 1.218 . S
C62 O55 1.275 . S
C62 O57 1.255 . S
C63 O64 1.258 1_554 S
C63 O65 1.256 . S
O64 Cd56 2.381 . S
O64 C63 1.258 1_556 S
O65 Cd56 2.378 1_554 S
O65 C63 1.256 . S
O66 Cd67 2.300 . S
O66 C73 1.275 . S
Cd67 O66 2.300 . S
Cd67 O75 2.381 . S
Cd67 O76 2.378 . S
O68 Cd69 2.385 . S
O68 C73 1.255 . S
Cd69 O68 2.385 . S
Cd69 O70 2.317 . S
O70 Cd69 2.317 . S
O70 C71 1.232 . S
C71 O70 1.232 . S
C71 O72 1.218 . S
O72 C71 1.218 . S
C73 O66 1.275 . S
C73 O68 1.255 . S
C74 O75 1.258 . S
C74 O76 1.256 . S
O75 Cd67 2.381 . S
O75 C74 1.258 . S
O76 Cd67 2.378 . S
O76 C74 1.256 . S
O77 Cd78 2.300 . S
O77 C84 1.275 . S
Cd78 O77 2.300 . S
Cd78 O86 2.381 . S
Cd78 O87 2.378 . S
O79 Cd80 2.385 . S
O79 C84 1.255 . S
Cd80 O79 2.385 . S
Cd80 O81 2.317 . S
O81 Cd80 2.317 . S
O81 C82 1.220 1_556 S
C82 O81 1.220 1_554 S
C82 O83 1.217 1_554 S
O83 C82 1.217 1_556 S
C84 O77 1.275 . S
C84 O79 1.255 . S
C85 O86 1.258 . S
C85 O87 1.256 . S
O86 Cd78 2.381 . S
O86 C85 1.258 . S
O87 Cd78 2.378 . S
O87 C85 1.256 . S
O88 Cd89 2.300 . S
O88 C95 1.275 . S
Cd89 O88 2.300 . S
Cd89 O97 2.381 . S
Cd89 O98 2.378 1_554 S
O90 Cd91 2.385 . S
O90 C95 1.255 . S
Cd91 O90 2.385 . S
Cd91 O92 2.317 . S
O92 Cd91 2.317 . S
O92 C93 1.232 . S
C93 O92 1.232 . S
C93 O94 1.218 . S
O94 C93 1.218 . S
C95 O88 1.275 . S
C95 O90 1.255 . S
C96 O97 1.258 1_556 S
C96 O98 1.256 . S
O97 Cd89 2.381 . S
O97 C96 1.258 1_554 S
O98 Cd89 2.378 1_556 S
O98 C96 1.256 . S
O99 Cd100 2.300 . S
O99 C106 1.275 . S
Cd100 O99 2.300 . S
Cd100 O108 2.381 . S
Cd100 O109 2.378 . S
O101 Cd102 2.385 . S
O101 C106 1.255 . S
Cd102 O101 2.385 . S
Cd102 O103 2.317 . S
O103 Cd102 2.317 . S
O103 C104 1.232 . S
C104 O103 1.232 . S
C104 O105 1.218 . S
O105 C104 1.218 . S
C106 O99 1.275 . S
C106 O101 1.255 . S
C107 O108 1.258 . S
C107 O109 1.256 . S
O108 Cd100 2.381 . S
O108 C107 1.258 . S
O109 Cd100 2.378 . S
O109 C107 1.256 . S
O110 Cd111 2.300 . S
O110 C117 1.275 . S
Cd111 O110 2.300 . S
Cd111 O119 2.381 . S
Cd111 O120 2.378 . S
O112 Cd113 2.385 . S
O112 C117 1.255 . S
Cd113 O112 2.385 . S
Cd113 O114 2.317 . S
O114 Cd113 2.317 . S
O114 C115 1.232 . S
C115 O114 1.232 . S
C115 O116 1.218 . S
O116 C115 1.218 . S
C117 O110 1.275 . S
C117 O112 1.255 . S
C118 O119 1.258 . S
C118 O120 1.256 . S
O119 Cd111 2.381 . S
O119 C118 1.258 . S
O120 Cd111 2.378 . S
O120 C118 1.256 . S
O121 Cd122 2.300 . S
O121 C128 1.275 . S
Cd122 O121 2.300 . S
Cd122 O130 2.381 . S
Cd122 O131 2.378 . S
O123 Cd124 2.385 . S
O123 C128 1.255 . S
Cd124 O123 2.385 . S
Cd124 O125 2.317 . S
O125 Cd124 2.317 . S
O125 C126 1.232 . S
C126 O125 1.232 . S
C126 O127 1.218 . S
O127 C126 1.218 . S
C128 O121 1.275 . S
C128 O123 1.255 . S
C129 O130 1.258 . S
C129 O131 1.256 . S
O130 Cd122 2.381 . S
O130 C129 1.258 . S
O131 Cd122 2.378 . S
O131 C129 1.256 . S
H132 C144 0.930 . S
H133 C146 0.930 . S
H134 C147 0.930 . S
H135 C151 0.959 . S
H136 C151 0.959 . S
H137 C151 0.961 . S
H138 C152 0.960 . S
H139 C152 0.961 . S
H140 C152 0.959 . S
H141 C155 0.929 . S
H142 C156 0.931 . S
H143 C158 0.930 . S
C144 H132 0.930 . S
C144 C145 1.399 . S
C144 C149 1.399 . S
C145 C144 1.399 . S
C145 C146 1.376 . S
C146 H133 0.930 . S
C146 C145 1.376 . S
C146 C147 1.388 . S
C147 H134 0.930 . S
C147 C146 1.388 . S
C147 C148 1.390 . S
C148 C147 1.390 . S
C148 C149 1.394 . S
C148 C154 1.465 . S
C149 C144 1.399 . S
C149 C148 1.394 . S
C149 C150 1.516 . S
C150 C149 1.516 . S
C150 C151 1.502 . S
C150 C152 1.561 . S
C150 C153 1.526 . S
C151 H135 0.959 . S
C151 H136 0.959 . S
C151 H137 0.961 . S
C151 C150 1.502 . S
C152 H138 0.960 . S
C152 H139 0.961 . S
C152 H140 0.959 . S
C152 C150 1.561 . S
C153 C150 1.526 . S
C153 C154 1.396 . S
C153 C158 1.390 . S
C154 C148 1.465 . S
C154 C153 1.396 . S
C154 C155 1.399 . S
C155 H141 0.929 . S
C155 C154 1.399 . S
C155 C156 1.385 . S
C156 H142 0.931 . S
C156 C155 1.385 . S
C156 C157 1.389 . S
C157 C156 1.389 . S
C157 C158 1.387 . S
C158 H143 0.930 . S
C158 C153 1.390 . S
C158 C157 1.387 . S
H159 C171 0.930 . S
H160 C173 0.930 . S
H161 C174 0.930 . S
H162 C178 0.959 . S
H163 C178 0.959 . S
H164 C178 0.961 . S
H165 C179 0.960 . S
H166 C179 0.961 . S
H167 C179 0.959 . S
H168 C182 0.929 . S
H169 C183 0.931 . S
H170 C185 0.930 . S
C171 H159 0.930 . S
C171 C172 1.399 . S
C171 C176 1.399 . S
C172 C171 1.399 . S
C172 C173 1.376 . S
C173 H160 0.930 . S
C173 C172 1.376 . S
C173 C174 1.388 . S
C174 H161 0.930 . S
C174 C173 1.388 . S
C174 C175 1.390 . S
C175 C174 1.390 . S
C175 C176 1.394 . S
C175 C181 1.465 . S
C176 C171 1.399 . S
C176 C175 1.394 . S
C176 C177 1.516 . S
C177 C176 1.516 . S
C177 C178 1.502 . S
C177 C179 1.561 . S
C177 C180 1.526 . S
C178 H162 0.959 . S
C178 H163 0.959 . S
C178 H164 0.961 . S
C178 C177 1.502 . S
C179 H165 0.960 . S
C179 H166 0.961 . S
C179 H167 0.959 . S
C179 C177 1.561 . S
C180 C177 1.526 . S
C180 C181 1.396 . S
C180 C185 1.390 . S
C181 C175 1.465 . S
C181 C180 1.396 . S
C181 C182 1.399 . S
C182 H168 0.929 . S
C182 C181 1.399 . S
C182 C183 1.385 . S
C183 H169 0.931 . S
C183 C182 1.385 . S
C183 C184 1.389 . S
C184 C183 1.389 . S
C184 C185 1.387 . S
C185 H170 0.930 . S
C185 C180 1.390 . S
C185 C184 1.387 . S
H186 C198 0.930 . S
H187 C200 0.930 . S
H188 C201 0.930 . S
H189 C205 0.959 . S
H190 C205 0.959 . S
H191 C205 0.961 . S
H192 C206 0.960 . S
H193 C206 0.961 . S
H194 C206 0.959 . S
H195 C209 0.929 . S
H196 C210 0.931 . S
H197 C212 0.930 . S
C198 H186 0.930 . S
C198 C199 1.399 . S
C198 C203 1.399 . S
C199 C198 1.399 . S
C199 C200 1.376 . S
C200 H187 0.930 . S
C200 C199 1.376 . S
C200 C201 1.388 . S
C201 H188 0.930 . S
C201 C200 1.388 . S
C201 C202 1.390 . S
C202 C201 1.390 . S
C202 C203 1.394 . S
C202 C208 1.465 . S
C203 C198 1.399 . S
C203 C202 1.394 . S
C203 C204 1.516 . S
C204 C203 1.516 . S
C204 C205 1.502 . S
C204 C206 1.561 . S
C204 C207 1.526 . S
C205 H189 0.959 . S
C205 H190 0.959 . S
C205 H191 0.961 . S
C205 C204 1.502 . S
C206 H192 0.960 . S
C206 H193 0.961 . S
C206 H194 0.959 . S
C206 C204 1.561 . S
C207 C204 1.526 . S
C207 C208 1.396 . S
C207 C212 1.390 . S
C208 C202 1.465 . S
C208 C207 1.396 . S
C208 C209 1.399 . S
C209 H195 0.929 . S
C209 C208 1.399 . S
C209 C210 1.385 . S
C210 H196 0.931 . S
C210 C209 1.385 . S
C210 C211 1.389 . S
C211 C210 1.389 . S
C211 C212 1.387 . S
C212 H197 0.930 . S
C212 C207 1.390 . S
C212 C211 1.387 . S
H213 C225 0.930 . S
H214 C227 0.930 . S
H215 C228 0.930 . S
H216 C232 0.959 . S
H217 C232 0.959 . S
H218 C232 0.961 . S
H219 C233 0.960 . S
H220 C233 0.961 . S
H221 C233 0.959 . S
H222 C236 0.929 . S
H223 C237 0.931 . S
H224 C239 0.930 . S
C225 H213 0.930 . S
C225 C226 1.399 . S
C225 C230 1.399 . S
C226 C225 1.399 . S
C226 C227 1.376 . S
C227 H214 0.930 . S
C227 C226 1.376 . S
C227 C228 1.388 . S
C228 H215 0.930 . S
C228 C227 1.388 . S
C228 C229 1.390 . S
C229 C228 1.390 . S
C229 C230 1.394 . S
C229 C235 1.465 . S
C230 C225 1.399 . S
C230 C229 1.394 . S
C230 C231 1.516 . S
C231 C230 1.516 . S
C231 C232 1.502 . S
C231 C233 1.561 . S
C231 C234 1.526 . S
C232 H216 0.959 . S
C232 H217 0.959 . S
C232 H218 0.961 . S
C232 C231 1.502 . S
C233 H219 0.960 . S
C233 H220 0.961 . S
C233 H221 0.959 . S
C233 C231 1.561 . S
C234 C231 1.526 . S
C234 C235 1.396 . S
C234 C239 1.390 . S
C235 C229 1.465 . S
C235 C234 1.396 . S
C235 C236 1.399 . S
C236 H222 0.929 . S
C236 C235 1.399 . S
C236 C237 1.385 . S
C237 H223 0.931 . S
C237 C236 1.385 . S
C237 C238 1.389 . S
C238 C237 1.389 . S
C238 C239 1.387 . S
C239 H224 0.930 . S
C239 C234 1.390 . S
C239 C238 1.387 . S
H240 C252 0.930 . S
H241 C254 0.930 1_554 S
H242 C255 0.930 . S
H243 C259 0.959 . S
H244 C259 0.959 . S
H245 C259 0.961 . S
H246 C260 0.960 . S
H247 C260 0.961 . S
H248 C260 0.959 . S
H249 C263 0.929 . S
H250 C264 0.931 . S
H251 C266 0.930 . S
C252 H240 0.930 . S
C252 C253 1.399 . S
C252 C257 1.399 . S
C253 C252 1.399 . S
C253 C254 1.376 . S
C254 H241 0.930 1_556 S
C254 C253 1.376 . S
C254 C255 1.388 . S
C255 H242 0.930 . S
C255 C254 1.388 . S
C255 C256 1.390 . S
C256 C255 1.390 . S
C256 C257 1.394 . S
C256 C262 1.465 . S
C257 C252 1.399 . S
C257 C256 1.394 . S
C257 C258 1.516 . S
C258 C257 1.516 . S
C258 C259 1.502 . S
C258 C260 1.561 . S
C258 C261 1.526 . S
C259 H243 0.959 . S
C259 H244 0.959 . S
C259 H245 0.961 . S
C259 C258 1.502 . S
C260 H246 0.960 . S
C260 H247 0.961 . S
C260 H248 0.959 . S
C260 C258 1.561 . S
C261 C258 1.526 . S
C261 C262 1.396 . S
C261 C266 1.390 . S
C262 C256 1.465 . S
C262 C261 1.396 . S
C262 C263 1.399 . S
C263 H249 0.929 . S
C263 C262 1.399 . S
C263 C264 1.385 . S
C264 H250 0.931 . S
C264 C263 1.385 . S
C264 C265 1.389 . S
C265 C264 1.389 . S
C265 C266 1.387 . S
C266 H251 0.930 . S
C266 C261 1.390 . S
C266 C265 1.387 . S
H267 C279 0.930 . S
H268 C281 0.930 1_556 S
H269 C282 0.930 1_556 S
H270 C286 0.959 . S
H271 C286 0.959 . S
H272 C286 0.961 . S
H273 C287 0.960 . S
H274 C287 0.961 . S
H275 C287 0.959 . S
H276 C290 0.929 . S
H277 C291 0.931 . S
H278 C293 0.930 . S
C279 H267 0.930 . S
C279 C280 1.399 . S
C279 C284 1.399 . S
C280 C279 1.399 . S
C280 C281 1.376 . S
C281 H268 0.930 1_554 S
C281 C280 1.376 . S
C281 C282 1.388 . S
C282 H269 0.930 1_554 S
C282 C281 1.388 . S
C282 C283 1.390 . S
C283 C282 1.390 . S
C283 C284 1.394 . S
C283 C289 1.465 . S
C284 C279 1.399 . S
C284 C283 1.394 . S
C284 C285 1.516 . S
C285 C284 1.516 . S
C285 C286 1.502 . S
C285 C287 1.561 . S
C285 C288 1.526 . S
C286 H270 0.959 . S
C286 H271 0.959 . S
C286 H272 0.961 . S
C286 C285 1.502 . S
C287 H273 0.960 . S
C287 H274 0.961 . S
C287 H275 0.959 . S
C287 C285 1.561 . S
C288 C285 1.526 . S
C288 C289 1.396 . S
C288 C293 1.390 . S
C289 C283 1.465 . S
C289 C288 1.396 . S
C289 C290 1.399 . S
C290 H276 0.929 . S
C290 C289 1.399 . S
C290 C291 1.385 . S
C291 H277 0.931 . S
C291 C290 1.385 . S
C291 C292 1.389 . S
C292 C291 1.389 . S
C292 C293 1.387 . S
C293 H278 0.930 . S
C293 C288 1.390 . S
C293 C292 1.387 . S
H294 C306 0.930 . S
H295 C308 0.930 . S
H296 C309 0.930 1_556 S
H297 C313 0.959 . S
H298 C313 0.959 . S
H299 C313 0.961 . S
H300 C314 0.960 . S
H301 C314 0.961 . S
H302 C314 0.959 . S
H303 C317 0.929 1_556 S
H304 C318 0.931 1_556 S
H305 C320 0.930 . S
C306 H294 0.930 . S
C306 C307 1.399 . S
C306 C311 1.399 . S
C307 C306 1.399 . S
C307 C308 1.376 . S
C308 H295 0.930 . S
C308 C307 1.376 . S
C308 C309 1.388 . S
C309 H296 0.930 1_554 S
C309 C308 1.388 . S
C309 C310 1.390 . S
C310 C309 1.390 . S
C310 C311 1.394 . S
C310 C316 1.465 . S
C311 C306 1.399 . S
C311 C310 1.394 . S
C311 C312 1.516 . S
C312 C311 1.516 . S
C312 C313 1.502 . S
C312 C314 1.561 . S
C312 C315 1.526 . S
C313 H297 0.959 . S
C313 H298 0.959 . S
C313 H299 0.961 . S
C313 C312 1.502 . S
C314 H300 0.960 . S
C314 H301 0.961 . S
C314 H302 0.959 . S
C314 C312 1.561 . S
C315 C312 1.526 . S
C315 C316 1.396 . S
C315 C320 1.390 . S
C316 C310 1.465 . S
C316 C315 1.396 . S
C316 C317 1.399 . S
C317 H303 0.929 1_554 S
C317 C316 1.399 . S
C317 C318 1.385 . S
C318 H304 0.931 1_554 S
C318 C317 1.385 . S
C318 C319 1.389 . S
C319 C318 1.389 . S
C319 C320 1.387 . S
C320 H305 0.930 . S
C320 C315 1.390 . S
C320 C319 1.387 . S
H321 C333 0.930 . S
H322 C335 0.930 . S
H323 C336 0.930 . S
H324 C340 0.959 . S
H325 C340 0.959 . S
H326 C340 0.961 . S
H327 C341 0.960 . S
H328 C341 0.961 . S
H329 C341 0.959 . S
H330 C344 0.929 . S
H331 C345 0.931 . S
H332 C347 0.930 . S
C333 H321 0.930 . S
C333 C334 1.399 . S
C333 C338 1.399 . S
C334 C333 1.399 . S
C334 C335 1.376 . S
C335 H322 0.930 . S
C335 C334 1.376 . S
C335 C336 1.388 . S
C336 H323 0.930 . S
C336 C335 1.388 . S
C336 C337 1.390 . S
C337 C336 1.390 . S
C337 C338 1.394 . S
C337 C343 1.465 . S
C338 C333 1.399 . S
C338 C337 1.394 . S
C338 C339 1.516 . S
C339 C338 1.516 . S
C339 C340 1.502 . S
C339 C341 1.561 . S
C339 C342 1.526 . S
C340 H324 0.959 . S
C340 H325 0.959 . S
C340 H326 0.961 . S
C340 C339 1.502 . S
C341 H327 0.960 . S
C341 H328 0.961 . S
C341 H329 0.959 . S
C341 C339 1.561 . S
C342 C339 1.526 . S
C342 C343 1.396 . S
C342 C347 1.390 . S
C343 C337 1.465 . S
C343 C342 1.396 . S
C343 C344 1.399 . S
C344 H330 0.929 . S
C344 C343 1.399 . S
C344 C345 1.385 . S
C345 H331 0.931 . S
C345 C344 1.385 . S
C345 C346 1.389 . S
C346 C345 1.389 . S
C346 C347 1.387 . S
C347 H332 0.930 . S
C347 C342 1.390 . S
C347 C346 1.387 . S
H348 C360 0.930 . S
H349 C362 0.930 . S
H350 C363 0.930 . S
H351 C367 0.959 . S
H352 C367 0.959 . S
H353 C367 0.961 . S
H354 C368 0.960 . S
H355 C368 0.961 . S
H356 C368 0.959 . S
H357 C371 0.929 . S
H358 C372 0.931 . S
H359 C374 0.930 . S
C360 H348 0.930 . S
C360 C361 1.399 . S
C360 C365 1.399 . S
C361 C360 1.399 . S
C361 C362 1.376 . S
C362 H349 0.930 . S
C362 C361 1.376 . S
C362 C363 1.388 . S
C363 H350 0.930 . S
C363 C362 1.388 . S
C363 C364 1.390 . S
C364 C363 1.390 . S
C364 C365 1.394 . S
C364 C370 1.465 . S
C365 C360 1.399 . S
C365 C364 1.394 . S
C365 C366 1.516 . S
C366 C365 1.516 . S
C366 C367 1.502 . S
C366 C368 1.561 . S
C366 C369 1.526 . S
C367 H351 0.959 . S
C367 H352 0.959 . S
C367 H353 0.961 . S
C367 C366 1.502 . S
C368 H354 0.960 . S
C368 H355 0.961 . S
C368 H356 0.959 . S
C368 C366 1.561 . S
C369 C366 1.526 . S
C369 C370 1.396 . S
C369 C374 1.390 . S
C370 C364 1.465 . S
C370 C369 1.396 . S
C370 C371 1.399 . S
C371 H357 0.929 . S
C371 C370 1.399 . S
C371 C372 1.385 . S
C372 H358 0.931 . S
C372 C371 1.385 . S
C372 C373 1.389 . S
C373 C372 1.389 . S
C373 C374 1.387 . S
C374 H359 0.930 . S
C374 C369 1.390 . S
C374 C373 1.387 . S
H375 C387 0.930 . S
H376 C389 0.930 . S
H377 C390 0.930 . S
H378 C394 0.959 . S
H379 C394 0.959 . S
H380 C394 0.961 . S
H381 C395 0.960 . S
H382 C395 0.961 . S
H383 C395 0.959 . S
H384 C398 0.929 . S
H385 C399 0.931 . S
H386 C401 0.930 . S
C387 H375 0.930 . S
C387 C388 1.399 . S
C387 C392 1.399 . S
C388 C387 1.399 . S
C388 C389 1.376 . S
C389 H376 0.930 . S
C389 C388 1.376 . S
C389 C390 1.388 . S
C390 H377 0.930 . S
C390 C389 1.388 . S
C390 C391 1.390 . S
C391 C390 1.390 . S
C391 C392 1.394 . S
C391 C397 1.465 . S
C392 C387 1.399 . S
C392 C391 1.394 . S
C392 C393 1.516 . S
C393 C392 1.516 . S
C393 C394 1.502 . S
C393 C395 1.561 . S
C393 C396 1.526 . S
C394 H378 0.959 . S
C394 H379 0.959 . S
C394 H380 0.961 . S
C394 C393 1.502 . S
C395 H381 0.960 . S
C395 H382 0.961 . S
C395 H383 0.959 . S
C395 C393 1.561 . S
C396 C393 1.526 . S
C396 C397 1.396 . S
C396 C401 1.390 . S
C397 C391 1.465 . S
C397 C396 1.396 . S
C397 C398 1.399 . S
C398 H384 0.929 . S
C398 C397 1.399 . S
C398 C399 1.385 . S
C399 H385 0.931 . S
C399 C398 1.385 . S
C399 C400 1.389 . S
C400 C399 1.389 . S
C400 C401 1.387 . S
C401 H386 0.930 . S
C401 C396 1.390 . S
C401 C400 1.387 . S
H402 C414 0.930 . S
H403 C416 0.930 . S
H404 C417 0.930 . S
H405 C421 0.959 . S
H406 C421 0.959 . S
H407 C421 0.961 . S
H408 C422 0.960 . S
H409 C422 0.961 . S
H410 C422 0.959 . S
H411 C425 0.929 . S
H412 C426 0.931 . S
H413 C428 0.930 . S
C414 H402 0.930 . S
C414 C415 1.399 . S
C414 C419 1.399 . S
C415 C414 1.399 . S
C415 C416 1.376 . S
C416 H403 0.930 . S
C416 C415 1.376 . S
C416 C417 1.388 . S
C417 H404 0.930 . S
C417 C416 1.388 . S
C417 C418 1.390 . S
C418 C417 1.390 . S
C418 C419 1.394 . S
C418 C424 1.465 . S
C419 C414 1.399 . S
C419 C418 1.394 . S
C419 C420 1.516 . S
C420 C419 1.516 . S
C420 C421 1.502 . S
C420 C422 1.561 . S
C420 C423 1.526 . S
C421 H405 0.959 . S
C421 H406 0.959 . S
C421 H407 0.961 . S
C421 C420 1.502 . S
C422 H408 0.960 . S
C422 H409 0.961 . S
C422 H410 0.959 . S
C422 C420 1.561 . S
C423 C420 1.526 . S
C423 C424 1.396 . S
C423 C428 1.390 . S
C424 C418 1.465 . S
C424 C423 1.396 . S
C424 C425 1.399 . S
C425 H411 0.929 . S
C425 C424 1.399 . S
C425 C426 1.385 . S
C426 H412 0.931 . S
C426 C425 1.385 . S
C426 C427 1.389 . S
C427 C426 1.389 . S
C427 C428 1.387 . S
C428 H413 0.930 . S
C428 C423 1.390 . S
C428 C427 1.387 . S
H429 C441 0.930 . S
H430 C443 0.930 . S
H431 C444 0.930 . S
H432 C448 0.959 . S
H433 C448 0.959 1_554 S
H434 C448 0.961 1_554 S
H435 C449 0.960 . S
H436 C449 0.961 . S
H437 C449 0.959 . S
H438 C452 0.929 . S
H439 C453 0.931 . S
H440 C455 0.930 . S
C441 H429 0.930 . S
C441 C442 1.399 . S
C441 C446 1.399 . S
C442 C441 1.399 . S
C442 C443 1.376 . S
C443 H430 0.930 . S
C443 C442 1.376 . S
C443 C444 1.388 . S
C444 H431 0.930 . S
C444 C443 1.388 . S
C444 C445 1.390 . S
C445 C444 1.390 . S
C445 C446 1.394 . S
C445 C451 1.465 . S
C446 C441 1.399 . S
C446 C445 1.394 . S
C446 C447 1.516 . S
C447 C446 1.516 . S
C447 C448 1.502 . S
C447 C449 1.561 1_556 S
C447 C450 1.526 . S
C448 H432 0.959 . S
C448 H433 0.959 1_556 S
C448 H434 0.961 1_556 S
C448 C447 1.502 . S
C449 H435 0.960 . S
C449 H436 0.961 . S
C449 H437 0.959 . S
C449 C447 1.561 1_554 S
C450 C447 1.526 . S
C450 C451 1.396 . S
C450 C455 1.390 . S
C451 C445 1.465 . S
C451 C450 1.396 . S
C451 C452 1.399 . S
C452 H438 0.929 . S
C452 C451 1.399 . S
C452 C453 1.385 . S
C453 H439 0.931 . S
C453 C452 1.385 . S
C453 C454 1.389 . S
C454 C453 1.389 . S
C454 C455 1.387 . S
C455 H440 0.930 . S
C455 C450 1.390 . S
C455 C454 1.387 . S
H456 C468 0.930 . S
H457 C470 0.930 . S
H458 C471 0.930 . S
H459 C475 0.959 . S
H460 C475 0.959 . S
H461 C475 0.961 . S
H462 C476 0.960 . S
H463 C476 0.961 . S
H464 C476 0.959 . S
H465 C479 0.929 . S
H466 C480 0.931 . S
H467 C482 0.930 . S
C468 H456 0.930 . S
C468 C469 1.399 . S
C468 C473 1.399 . S
C469 C468 1.399 . S
C469 C470 1.376 . S
C470 H457 0.930 . S
C470 C469 1.376 . S
C470 C471 1.388 . S
C471 H458 0.930 . S
C471 C470 1.388 . S
C471 C472 1.390 . S
C472 C471 1.390 . S
C472 C473 1.394 . S
C472 C478 1.465 1_455 S
C473 C468 1.399 . S
C473 C472 1.394 . S
C473 C474 1.518 1_455 S
C474 C473 1.518 1_655 S
C474 C475 1.478 1_655 S
C474 C476 1.572 . S
C474 C477 1.540 . S
C475 H459 0.959 . S
C475 H460 0.959 . S
C475 H461 0.961 . S
C475 C474 1.478 1_455 S
C476 H462 0.960 . S
C476 H463 0.961 . S
C476 H464 0.959 . S
C476 C474 1.572 . S
C477 C474 1.540 . S
C477 C478 1.396 . S
C477 C482 1.390 . S
C478 C472 1.465 1_655 S
C478 C477 1.396 . S
C478 C479 1.399 . S
C479 H465 0.929 . S
C479 C478 1.399 . S
C479 C480 1.385 . S
C480 H466 0.931 . S
C480 C479 1.385 . S
C480 C481 1.389 . S
C481 C480 1.389 . S
C481 C482 1.387 . S
C482 H467 0.930 . S
C482 C477 1.390 . S
C482 C481 1.387 . S
H483 C495 0.930 1_545 S
H484 C497 0.930 . S
H485 C498 0.930 . S
H486 C502 0.959 . S
H487 C502 0.959 . S
H488 C502 0.961 . S
H489 C503 0.960 . S
H490 C503 0.961 . S
H491 C503 0.959 . S
H492 C506 0.929 . S
H493 C507 0.931 . S
H494 C509 0.930 . S
C495 H483 0.930 1_565 S
C495 C496 1.399 . S
C495 C500 1.399 1_565 S
C496 C495 1.399 . S
C496 C497 1.376 . S
C497 H484 0.930 . S
C497 C496 1.376 . S
C497 C498 1.388 . S
C498 H485 0.930 . S
C498 C497 1.388 . S
C498 C499 1.390 . S
C499 C498 1.390 . S
C499 C500 1.394 1_565 S
C499 C505 1.465 1_556 S
C500 C495 1.399 1_545 S
C500 C499 1.394 1_545 S
C500 C501 1.516 . S
C501 C500 1.516 . S
C501 C502 1.502 . S
C501 C503 1.561 . S
C501 C504 1.526 1_556 S
C502 H486 0.959 . S
C502 H487 0.959 . S
C502 H488 0.961 . S
C502 C501 1.502 . S
C503 H489 0.960 . S
C503 H490 0.961 . S
C503 H491 0.959 . S
C503 C501 1.561 . S
C504 C501 1.526 1_554 S
C504 C505 1.396 1_545 S
C504 C509 1.390 . S
C505 C499 1.465 1_554 S
C505 C504 1.396 1_565 S
C505 C506 1.399 . S
C506 H492 0.929 . S
C506 C505 1.399 . S
C506 C507 1.385 . S
C507 H493 0.931 . S
C507 C506 1.385 . S
C507 C508 1.389 1_565 S
C508 C507 1.389 1_545 S
C508 C509 1.387 . S
C509 H494 0.930 . S
C509 C504 1.390 . S
C509 C508 1.387 . S
H510 C522 0.930 . S
H511 C524 0.930 . S
H512 C525 0.930 . S
H513 C529 0.959 . S
H514 C529 0.959 . S
H515 C529 0.961 . S
H516 C530 0.960 . S
H517 C530 0.961 . S
H518 C530 0.959 . S
H519 C533 0.929 . S
H520 C534 0.931 . S
H521 C536 0.930 . S
C522 H510 0.930 . S
C522 C523 1.399 . S
C522 C527 1.399 . S
C523 C522 1.399 . S
C523 C524 1.376 . S
C524 H511 0.930 . S
C524 C523 1.376 . S
C524 C525 1.388 . S
C525 H512 0.930 . S
C525 C524 1.388 . S
C525 C526 1.390 . S
C526 C525 1.390 . S
C526 C527 1.394 . S
C526 C532 1.465 . S
C527 C522 1.399 . S
C527 C526 1.394 . S
C527 C528 1.516 . S
C528 C527 1.516 . S
C528 C529 1.502 . S
C528 C530 1.561 . S
C528 C531 1.526 . S
C529 H513 0.959 . S
C529 H514 0.959 . S
C529 H515 0.961 . S
C529 C528 1.502 . S
C530 H516 0.960 . S
C530 H517 0.961 . S
C530 H518 0.959 . S
C530 C528 1.561 . S
C531 C528 1.526 . S
C531 C532 1.396 . S
C531 C536 1.390 . S
C532 C526 1.465 . S
C532 C531 1.396 . S
C532 C533 1.399 . S
C533 H519 0.929 . S
C533 C532 1.399 . S
C533 C534 1.385 . S
C534 H520 0.931 . S
C534 C533 1.385 . S
C534 C535 1.389 . S
C535 C534 1.389 . S
C535 C536 1.387 . S
C536 H521 0.930 . S
C536 C531 1.390 . S
C536 C535 1.387 . S
H537 C549 0.930 . S
H538 C551 0.930 . S
H539 C552 0.930 . S
H540 C556 0.959 . S
H541 C556 0.959 . S
H542 C556 0.961 . S
H543 C557 0.960 . S
H544 C557 0.961 1_655 S
H545 C557 0.959 . S
H546 C560 0.929 . S
H547 C561 0.931 . S
H548 C563 0.930 . S
C549 H537 0.930 . S
C549 C550 1.399 . S
C549 C554 1.399 . S
C550 C549 1.399 . S
C550 C551 1.376 . S
C551 H538 0.930 . S
C551 C550 1.376 . S
C551 C552 1.388 . S
C552 H539 0.930 . S
C552 C551 1.388 . S
C552 C553 1.390 . S
C553 C552 1.390 . S
C553 C554 1.394 . S
C553 C559 1.465 . S
C554 C549 1.399 . S
C554 C553 1.394 . S
C554 C555 1.516 1_455 S
C555 C554 1.516 1_655 S
C555 C556 1.502 . S
C555 C557 1.561 1_655 S
C555 C558 1.526 . S
C556 H540 0.959 . S
C556 H541 0.959 . S
C556 H542 0.961 . S
C556 C555 1.502 . S
C557 H543 0.960 . S
C557 H544 0.961 1_455 S
C557 H545 0.959 . S
C557 C555 1.561 1_455 S
C558 C555 1.526 . S
C558 C559 1.396 1_655 S
C558 C563 1.390 . S
C559 C553 1.465 . S
C559 C558 1.396 1_455 S
C559 C560 1.399 . S
C560 H546 0.929 . S
C560 C559 1.399 . S
C560 C561 1.385 1_455 S
C561 H547 0.931 . S
C561 C560 1.385 1_655 S
C561 C562 1.389 . S
C562 C561 1.389 . S
C562 C563 1.387 . S
C563 H548 0.930 . S
C563 C558 1.390 . S
C563 C562 1.387 . S
H564 C576 0.930 1_545 S
H565 C578 0.930 . S
H566 C579 0.930 . S
H567 C583 0.959 . S
H568 C583 0.959 . S
H569 C583 0.961 . S
H570 C584 0.960 . S
H571 C584 0.961 . S
H572 C584 0.959 . S
H573 C587 0.929 . S
H574 C588 0.931 . S
H575 C590 0.930 . S
C576 H564 0.930 1_565 S
C576 C577 1.399 . S
C576 C581 1.399 1_565 S
C577 C576 1.399 . S
C577 C578 1.376 . S
C578 H565 0.930 . S
C578 C577 1.376 . S
C578 C579 1.388 . S
C579 H566 0.930 . S
C579 C578 1.388 . S
C579 C580 1.390 . S
C580 C579 1.390 . S
C580 C581 1.394 1_565 S
C580 C586 1.465 . S
C581 C576 1.399 1_545 S
C581 C580 1.394 1_545 S
C581 C582 1.516 . S
C582 C581 1.516 . S
C582 C583 1.502 . S
C582 C584 1.561 . S
C582 C585 1.526 . S
C583 H567 0.959 . S
C583 H568 0.959 . S
C583 H569 0.961 . S
C583 C582 1.502 . S
C584 H570 0.960 . S
C584 H571 0.961 . S
C584 H572 0.959 . S
C584 C582 1.561 . S
C585 C582 1.526 . S
C585 C586 1.396 1_545 S
C585 C590 1.390 . S
C586 C580 1.465 . S
C586 C585 1.396 1_565 S
C586 C587 1.399 . S
C587 H573 0.929 . S
C587 C586 1.399 . S
C587 C588 1.385 . S
C588 H574 0.931 . S
C588 C587 1.385 . S
C588 C589 1.389 1_565 S
C589 C588 1.389 1_545 S
C589 C590 1.387 . S
C590 H575 0.930 . S
C590 C585 1.390 . S
C590 C589 1.387 . S
H591 C603 0.930 . S
H592 C605 0.930 . S
H593 C606 0.930 . S
H594 C610 0.959 . S
H595 C610 0.959 . S
H596 C610 0.961 . S
H597 C611 0.960 . S
H598 C611 0.961 . S
H599 C611 0.959 . S
H600 C614 0.929 . S
H601 C615 0.931 . S
H602 C617 0.930 . S
C603 H591 0.930 . S
C603 C604 1.399 . S
C603 C608 1.399 . S
C604 C603 1.399 . S
C604 C605 1.376 . S
C605 H592 0.930 . S
C605 C604 1.376 . S
C605 C606 1.388 . S
C606 H593 0.930 . S
C606 C605 1.388 . S
C606 C607 1.390 . S
C607 C606 1.390 . S
C607 C608 1.394 . S
C607 C613 1.465 . S
C608 C603 1.399 . S
C608 C607 1.394 . S
C608 C609 1.516 . S
C609 C608 1.516 . S
C609 C610 1.502 . S
C609 C611 1.561 . S
C609 C612 1.526 . S
C610 H594 0.959 . S
C610 H595 0.959 . S
C610 H596 0.961 . S
C610 C609 1.502 . S
C611 H597 0.960 . S
C611 H598 0.961 . S
C611 H599 0.959 . S
C611 C609 1.561 . S
C612 C609 1.526 . S
C612 C613 1.396 . S
C612 C617 1.390 . S
C613 C607 1.465 . S
C613 C612 1.396 . S
C613 C614 1.399 . S
C614 H600 0.929 . S
C614 C613 1.399 . S
C614 C615 1.385 . S
C615 H601 0.931 . S
C615 C614 1.385 . S
C615 C616 1.389 . S
C616 C615 1.389 . S
C616 C617 1.387 . S
C617 H602 0.930 . S
C617 C612 1.390 . S
C617 C616 1.387 . S
C145 C8 1.612 . S
C157 C118 1.611 . S
C172 C129 1.622 . S
C184 C19 1.618 . S
C199 C74 1.623 . S
C211 C30 1.621 . S
C226 C41 1.614 . S
C238 C85 1.611 . S
C253 C96 1.624 . S
C265 C52 1.622 . S
C280 C63 1.623 . S
C292 C107 1.620 . S
C307 C7 1.650 . S
C319 C95 1.622 . S
C334 C106 1.627 . S
C346 C18 1.636 . S
C361 C29 1.648 . S
C373 C117 1.622 . S
C388 C128 1.648 . S
C400 C40 1.622 . S
C415 C51 1.624 . S
C427 C73 1.639 . S
C442 C62 1.644 . S
C454 C84 1.623 . S
C469 C5 1.350 . S
C481 C126 1.388 . S
C496 C71 1.429 . S
C508 C16 1.337 . S
C523 C27 1.340 . S
C535 C82 1.455 . S
C550 C93 1.444 . S
C562 C38 1.375 . S
C577 C49 1.440 . S
C589 C104 1.340 . S
C604 C115 1.431 . S
C616 C60 1.398 . S
