# Generated by pormake.
# Topology ukv, (4)-cn, num edge types: 1
# Building blocks:
#     Node 0, Type 0, BuildingBlock: GALJAG_clean_sbu_0, # of connection points: 4
#     Node 1, Type 0, BuildingBlock: GALJAG_clean_sbu_0, # of connection points: 4
#     Node 2, Type 0, BuildingBlock: GALJAG_clean_sbu_0, # of connection points: 4
#     Node 3, Type 0, BuildingBlock: GALJAG_clean_sbu_0, # of connection points: 4
#     Node 4, Type 0, BuildingBlock: GALJAG_clean_sbu_0, # of connection points: 4
#     Node 5, Type 0, BuildingBlock: GALJAG_clean_sbu_0, # of connection points: 4
#     Node 6, Type 0, BuildingBlock: GALJAG_clean_sbu_0, # of connection points: 4
#     Node 7, Type 0, BuildingBlock: GALJAG_clean_sbu_0, # of connection points: 4
#     Node 8, Type 0, BuildingBlock: GALJAG_clean_sbu_0, # of connection points: 4
#     Node 9, Type 0, BuildingBlock: GALJAG_clean_sbu_0, # of connection points: 4
#     Node 10, Type 0, BuildingBlock: GALJAG_clean_sbu_0, # of connection points: 4
#     Node 11, Type 0, BuildingBlock: GALJAG_clean_sbu_0, # of connection points: 4
#     Node 12, Type 0, BuildingBlock: GALJAG_clean_sbu_0, # of connection points: 4
#     Node 13, Type 0, BuildingBlock: GALJAG_clean_sbu_0, # of connection points: 4
#     Node 14, Type 0, BuildingBlock: GALJAG_clean_sbu_0, # of connection points: 4
#     Node 15, Type 0, BuildingBlock: GALJAG_clean_sbu_0, # of connection points: 4
#     Node 16, Type 0, BuildingBlock: GALJAG_clean_sbu_0, # of connection points: 4
#     Node 17, Type 0, BuildingBlock: GALJAG_clean_sbu_0, # of connection points: 4
#     Node 18, Type 0, BuildingBlock: GALJAG_clean_sbu_0, # of connection points: 4
#     Node 19, Type 0, BuildingBlock: GALJAG_clean_sbu_0, # of connection points: 4
#     Node 20, Type 0, BuildingBlock: GALJAG_clean_sbu_0, # of connection points: 4
#     Node 21, Type 0, BuildingBlock: GALJAG_clean_sbu_0, # of connection points: 4
#     Node 22, Type 0, BuildingBlock: GALJAG_clean_sbu_0, # of connection points: 4
#     Node 23, Type 0, BuildingBlock: GALJAG_clean_sbu_0, # of connection points: 4
#     Node 24, Type 0, BuildingBlock: GALJAG_clean_sbu_0, # of connection points: 4
#     Node 25, Type 0, BuildingBlock: GALJAG_clean_sbu_0, # of connection points: 4
#     Node 26, Type 0, BuildingBlock: GALJAG_clean_sbu_0, # of connection points: 4
#     Node 27, Type 0, BuildingBlock: GALJAG_clean_sbu_0, # of connection points: 4
#     Node 28, Type 0, BuildingBlock: GALJAG_clean_sbu_0, # of connection points: 4
#     Node 29, Type 0, BuildingBlock: GALJAG_clean_sbu_0, # of connection points: 4
#     Node 30, Type 0, BuildingBlock: GALJAG_clean_sbu_0, # of connection points: 4
#     Node 31, Type 0, BuildingBlock: GALJAG_clean_sbu_0, # of connection points: 4
#     Node 32, Type 0, BuildingBlock: GALJAG_clean_sbu_0, # of connection points: 4
#     Node 33, Type 0, BuildingBlock: GALJAG_clean_sbu_0, # of connection points: 4
#     Node 34, Type 0, BuildingBlock: GALJAG_clean_sbu_0, # of connection points: 4
#     Node 35, Type 0, BuildingBlock: GALJAG_clean_sbu_0, # of connection points: 4
#     Edge 36, Type (0, 0), BuildingBlock: CIFDUS_clean_linker_0, # of connection points: 2
#     Edge 37, Type (0, 0), BuildingBlock: CIFDUS_clean_linker_0, # of connection points: 2
#     Edge 38, Type (0, 0), BuildingBlock: CIFDUS_clean_linker_0, # of connection points: 2
#     Edge 39, Type (0, 0), BuildingBlock: CIFDUS_clean_linker_0, # of connection points: 2
#     Edge 40, Type (0, 0), BuildingBlock: CIFDUS_clean_linker_0, # of connection points: 2
#     Edge 41, Type (0, 0), BuildingBlock: CIFDUS_clean_linker_0, # of connection points: 2
#     Edge 42, Type (0, 0), BuildingBlock: CIFDUS_clean_linker_0, # of connection points: 2
#     Edge 43, Type (0, 0), BuildingBlock: CIFDUS_clean_linker_0, # of connection points: 2
#     Edge 44, Type (0, 0), BuildingBlock: CIFDUS_clean_linker_0, # of connection points: 2
#     Edge 45, Type (0, 0), BuildingBlock: CIFDUS_clean_linker_0, # of connection points: 2
#     Edge 46, Type (0, 0), BuildingBlock: CIFDUS_clean_linker_0, # of connection points: 2
#     Edge 47, Type (0, 0), BuildingBlock: CIFDUS_clean_linker_0, # of connection points: 2
#     Edge 48, Type (0, 0), BuildingBlock: CIFDUS_clean_linker_0, # of connection points: 2
#     Edge 49, Type (0, 0), BuildingBlock: CIFDUS_clean_linker_0, # of connection points: 2
#     Edge 50, Type (0, 0), BuildingBlock: CIFDUS_clean_linker_0, # of connection points: 2
#     Edge 51, Type (0, 0), BuildingBlock: CIFDUS_clean_linker_0, # of connection points: 2
#     Edge 52, Type (0, 0), BuildingBlock: CIFDUS_clean_linker_0, # of connection points: 2
#     Edge 53, Type (0, 0), BuildingBlock: CIFDUS_clean_linker_0, # of connection points: 2
#     Edge 54, Type (0, 0), BuildingBlock: CIFDUS_clean_linker_0, # of connection points: 2
#     Edge 55, Type (0, 0), BuildingBlock: CIFDUS_clean_linker_0, # of connection points: 2
#     Edge 56, Type (0, 0), BuildingBlock: CIFDUS_clean_linker_0, # of connection points: 2
#     Edge 57, Type (0, 0), BuildingBlock: CIFDUS_clean_linker_0, # of connection points: 2
#     Edge 58, Type (0, 0), BuildingBlock: CIFDUS_clean_linker_0, # of connection points: 2
#     Edge 59, Type (0, 0), BuildingBlock: CIFDUS_clean_linker_0, # of connection points: 2
#     Edge 60, Type (0, 0), BuildingBlock: CIFDUS_clean_linker_0, # of connection points: 2
#     Edge 61, Type (0, 0), BuildingBlock: CIFDUS_clean_linker_0, # of connection points: 2
#     Edge 62, Type (0, 0), BuildingBlock: CIFDUS_clean_linker_0, # of connection points: 2
#     Edge 63, Type (0, 0), BuildingBlock: CIFDUS_clean_linker_0, # of connection points: 2
#     Edge 64, Type (0, 0), BuildingBlock: CIFDUS_clean_linker_0, # of connection points: 2
#     Edge 65, Type (0, 0), BuildingBlock: CIFDUS_clean_linker_0, # of connection points: 2
#     Edge 66, Type (0, 0), BuildingBlock: CIFDUS_clean_linker_0, # of connection points: 2
#     Edge 67, Type (0, 0), BuildingBlock: CIFDUS_clean_linker_0, # of connection points: 2
#     Edge 68, Type (0, 0), BuildingBlock: CIFDUS_clean_linker_0, # of connection points: 2
#     Edge 69, Type (0, 0), BuildingBlock: CIFDUS_clean_linker_0, # of connection points: 2
#     Edge 70, Type (0, 0), BuildingBlock: CIFDUS_clean_linker_0, # of connection points: 2
#     Edge 71, Type (0, 0), BuildingBlock: CIFDUS_clean_linker_0, # of connection points: 2
#     Edge 72, Type (0, 0), BuildingBlock: CIFDUS_clean_linker_0, # of connection points: 2
#     Edge 73, Type (0, 0), BuildingBlock: CIFDUS_clean_linker_0, # of connection points: 2
#     Edge 74, Type (0, 0), BuildingBlock: CIFDUS_clean_linker_0, # of connection points: 2
#     Edge 75, Type (0, 0), BuildingBlock: CIFDUS_clean_linker_0, # of connection points: 2
#     Edge 76, Type (0, 0), BuildingBlock: CIFDUS_clean_linker_0, # of connection points: 2
#     Edge 77, Type (0, 0), BuildingBlock: CIFDUS_clean_linker_0, # of connection points: 2
#     Edge 78, Type (0, 0), BuildingBlock: CIFDUS_clean_linker_0, # of connection points: 2
#     Edge 79, Type (0, 0), BuildingBlock: CIFDUS_clean_linker_0, # of connection points: 2
#     Edge 80, Type (0, 0), BuildingBlock: CIFDUS_clean_linker_0, # of connection points: 2
#     Edge 81, Type (0, 0), BuildingBlock: CIFDUS_clean_linker_0, # of connection points: 2
#     Edge 82, Type (0, 0), BuildingBlock: CIFDUS_clean_linker_0, # of connection points: 2
#     Edge 83, Type (0, 0), BuildingBlock: CIFDUS_clean_linker_0, # of connection points: 2
#     Edge 84, Type (0, 0), BuildingBlock: CIFDUS_clean_linker_0, # of connection points: 2
#     Edge 85, Type (0, 0), BuildingBlock: CIFDUS_clean_linker_0, # of connection points: 2
#     Edge 86, Type (0, 0), BuildingBlock: CIFDUS_clean_linker_0, # of connection points: 2
#     Edge 87, Type (0, 0), BuildingBlock: CIFDUS_clean_linker_0, # of connection points: 2
#     Edge 88, Type (0, 0), BuildingBlock: CIFDUS_clean_linker_0, # of connection points: 2
#     Edge 89, Type (0, 0), BuildingBlock: CIFDUS_clean_linker_0, # of connection points: 2
#     Edge 90, Type (0, 0), BuildingBlock: CIFDUS_clean_linker_0, # of connection points: 2
#     Edge 91, Type (0, 0), BuildingBlock: CIFDUS_clean_linker_0, # of connection points: 2
#     Edge 92, Type (0, 0), BuildingBlock: CIFDUS_clean_linker_0, # of connection points: 2
#     Edge 93, Type (0, 0), BuildingBlock: CIFDUS_clean_linker_0, # of connection points: 2
#     Edge 94, Type (0, 0), BuildingBlock: CIFDUS_clean_linker_0, # of connection points: 2
#     Edge 95, Type (0, 0), BuildingBlock: CIFDUS_clean_linker_0, # of connection points: 2
#     Edge 96, Type (0, 0), BuildingBlock: CIFDUS_clean_linker_0, # of connection points: 2
#     Edge 97, Type (0, 0), BuildingBlock: CIFDUS_clean_linker_0, # of connection points: 2
#     Edge 98, Type (0, 0), BuildingBlock: CIFDUS_clean_linker_0, # of connection points: 2
#     Edge 99, Type (0, 0), BuildingBlock: CIFDUS_clean_linker_0, # of connection points: 2
#     Edge 100, Type (0, 0), BuildingBlock: CIFDUS_clean_linker_0, # of connection points: 2
#     Edge 101, Type (0, 0), BuildingBlock: CIFDUS_clean_linker_0, # of connection points: 2
#     Edge 102, Type (0, 0), BuildingBlock: CIFDUS_clean_linker_0, # of connection points: 2
#     Edge 103, Type (0, 0), BuildingBlock: CIFDUS_clean_linker_0, # of connection points: 2
#     Edge 104, Type (0, 0), BuildingBlock: CIFDUS_clean_linker_0, # of connection points: 2
#     Edge 105, Type (0, 0), BuildingBlock: CIFDUS_clean_linker_0, # of connection points: 2
#     Edge 106, Type (0, 0), BuildingBlock: CIFDUS_clean_linker_0, # of connection points: 2
#     Edge 107, Type (0, 0), BuildingBlock: CIFDUS_clean_linker_0, # of connection points: 2
# Relax obj value: 0.157
# Max RMSD: 0.129
# Mean RMSD: 0.129
data_MOF--net-ukv--node1-GALJAG_clean_sbu_0--edge1-CIFDUS_clean_linker_0
_symmetry_space_group_name_H-M    P1
_symmetry_Int_Tables_number       1
_symmetry_cell_setting            triclinic
loop_
_symmetry_equiv_pos_as_xyz
'x, y, z'
_cell_length_a     78.365222
_cell_length_b     78.357959
_cell_length_c     20.977441
_cell_angle_alpha  90.05172
_cell_angle_beta   89.988198
_cell_angle_gamma 119.96963
loop_
_atom_site_label
_atom_site_type_symbol
_atom_site_fract_x
_atom_site_fract_y
_atom_site_fract_z
_atom_type_partial_charge
In0 In 0.23898 0.06922 0.07103 0.0
O1 O 0.25564 0.08313 0.16316 0.0
O2 O 0.2297 0.0845 0.14354 0.0
C3 C 0.27037 0.07106 0.01321 0.0
C4 C 0.21429 0.03179 0.1081 0.0
C5 C 0.23338 0.0895 0.97793 0.0
O6 O 0.27123 0.0773 0.06949 0.0
O7 O 0.25351 0.06313 0.98778 0.0
O8 O 0.22154 0.07131 0.98614 0.0
O9 O 0.24698 0.09729 0.01862 0.0
C10 C 0.24375 0.08861 0.18135 0.0
O11 O 0.20911 0.04464 0.1077 0.0
O12 O 0.23134 0.03756 0.08703 0.0
In13 In 0.91903 0.18682 0.08286 0.0
O14 O 0.89993 0.18185 0.17073 0.0
O15 O 0.90771 0.16017 0.14668 0.0
C16 C 0.92059 0.21832 0.02669 0.0
C17 C 0.9547 0.1991 0.13356 0.0
C18 C 0.89876 0.16208 0.98771 0.0
O19 O 0.91097 0.21095 0.07746 0.0
O20 O 0.93018 0.21038 0.00654 0.0
O21 O 0.91707 0.16875 0.99476 0.0
O22 O 0.89089 0.16755 0.02939 0.0
C23 C 0.89896 0.16568 0.18477 0.0
O24 O 0.94696 0.18486 0.09474 0.0
O25 O 0.94497 0.20771 0.14321 0.0
In26 In 0.83912 0.77281 0.01047 0.0
O27 O 0.81625 0.78188 0.03405 0.0
O28 O 0.82179 0.76521 0.10266 0.0
C29 C 0.84968 0.79299 0.89961 0.0
C30 C 0.86988 0.7872 0.09079 0.0
C31 C 0.82605 0.73586 0.96704 0.0
O32 O 0.83245 0.77915 0.91023 0.0
O33 O 0.86109 0.79763 0.94675 0.0
O34 O 0.84411 0.74862 0.96925 0.0
O35 O 0.81473 0.74148 0.98933 0.0
C36 C 0.81247 0.77392 0.0885 0.0
O37 O 0.86287 0.77038 0.06528 0.0
O38 O 0.86165 0.79686 0.07437 0.0
In39 In 0.07558 0.242 0.44258 0.0
O40 O 0.04416 0.22051 0.40966 0.0
O41 O 0.056 0.25103 0.39046 0.0
C42 C 0.07849 0.22443 0.54901 0.0
C43 C 0.09393 0.23381 0.34942 0.0
C44 C 0.09092 0.27907 0.48658 0.0
O45 O 0.06479 0.22824 0.54091 0.0
O46 O 0.08991 0.22841 0.50218 0.0
O47 O 0.09546 0.27544 0.43235 0.0
O48 O 0.07879 0.26413 0.51761 0.0
C49 C 0.04178 0.23376 0.38408 0.0
O50 O 0.10283 0.24915 0.38343 0.0
O51 O 0.076 0.22271 0.36292 0.0
In52 In 0.73682 0.80632 0.43385 0.0
O53 O 0.76267 0.80072 0.42089 0.0
O54 O 0.73802 0.78642 0.35854 0.0
C55 C 0.74754 0.83264 0.52904 0.0
C56 C 0.73797 0.82878 0.33557 0.0
C57 C 0.70536 0.77721 0.49373 0.0
O58 O 0.75731 0.82421 0.51576 0.0
O59 O 0.733 0.82819 0.49311 0.0
O60 O 0.70388 0.78516 0.44331 0.0
O61 O 0.7228 0.78319 0.51186 0.0
C62 C 0.75505 0.78979 0.37271 0.0
O63 O 0.72221 0.81385 0.35396 0.0
O64 O 0.75306 0.8327 0.36808 0.0
In65 In 0.15235 0.90825 0.41142 0.0
O66 O 0.15306 0.93779 0.39669 0.0
O67 O 0.16962 0.92985 0.33513 0.0
C68 C 0.13031 0.88872 0.51237 0.0
C69 C 0.12864 0.8852 0.31872 0.0
C70 C 0.18632 0.91318 0.45859 0.0
O71 O 0.13437 0.90622 0.5001 0.0
O72 O 0.13708 0.88136 0.47325 0.0
O73 O 0.17774 0.90211 0.41143 0.0
O74 O 0.17797 0.92213 0.48092 0.0
C75 C 0.16423 0.94211 0.34845 0.0
O76 O 0.14536 0.88704 0.32937 0.0
O77 O 0.12366 0.8946 0.35608 0.0
In78 In 0.75454 0.91724 0.93474 0.0
O79 O 0.73821 0.90332 0.84229 0.0
O80 O 0.76225 0.89927 0.86815 0.0
C81 C 0.72285 0.91797 0.98032 0.0
C82 C 0.78105 0.95418 0.8967 0.0
C83 C 0.75897 0.89729 0.03164 0.0
O84 O 0.72323 0.91192 0.92463 0.0
O85 O 0.7386 0.9241 0.01167 0.0
O86 O 0.77208 0.9148 0.019 0.0
O87 O 0.74456 0.88998 0.99393 0.0
C88 C 0.74896 0.89606 0.82806 0.0
O89 O 0.78287 0.93952 0.88329 0.0
O90 O 0.76668 0.95037 0.93228 0.0
In91 In 0.05783 0.79868 0.9131 0.0
O92 O 0.0744 0.80029 0.82106 0.0
O93 O 0.06994 0.82423 0.8448 0.0
C94 C 0.05976 0.77103 0.98325 0.0
C95 C 0.02123 0.7858 0.86907 0.0
C96 C 0.07908 0.82595 0.00055 0.0
O97 O 0.06759 0.77596 0.92855 0.0
O98 O 0.04963 0.77878 -0.00064 0.0
O99 O 0.06052 0.81822 0.99774 0.0
O100 O 0.08663 0.82044 0.95788 0.0
C101 C 0.07689 0.81703 0.80585 0.0
O102 O 0.03102 0.8021 0.8974 0.0
O103 O 0.02939 0.77541 0.86665 0.0
In104 In 0.17239 0.25419 0.93699 0.0
O105 O 0.18807 0.23627 0.92961 0.0
O106 O 0.18718 0.25163 0.84727 0.0
C107 C 0.15811 0.23903 0.0534 0.0
C108 C 0.14258 0.24693 0.85747 0.0
C109 C 0.19469 0.29279 0.96555 0.0
O110 O 0.17618 0.25028 0.04287 0.0
O111 O 0.14742 0.23429 0.00435 0.0
O112 O 0.17615 0.28356 0.96874 0.0
O113 O 0.20207 0.28277 0.94485 0.0
C114 C 0.19256 0.24039 0.87162 0.0
O115 O 0.15455 0.26401 0.87763 0.0
O116 O 0.14557 0.23347 0.87778 0.0
In117 In 0.91574 0.76924 0.52137 0.0
O118 O 0.88573 0.76266 0.55781 0.0
O119 O 0.91065 0.79023 0.58258 0.0
C120 C 0.89878 0.73065 0.49292 0.0
C121 C 0.94439 0.77785 0.60792 0.0
C122 C 0.92196 0.78514 0.40315 0.0
O123 O 0.88902 0.73838 0.51329 0.0
O124 O 0.91706 0.74234 0.48789 0.0
O125 O 0.92937 0.77497 0.42143 0.0
O126 O 0.91246 0.78821 0.44551 0.0
C127 C 0.89228 0.77885 0.58701 0.0
O128 O 0.94625 0.78962 0.56381 0.0
O129 O 0.92836 0.76176 0.60744 0.0
In130 In 0.25652 0.17928 0.57133 0.0
O131 O 0.27095 0.17311 0.65537 0.0
O132 O 0.24024 0.15374 0.63982 0.0
C133 C 0.28693 0.20719 0.50388 0.0
C134 C 0.23936 0.19793 0.62584 0.0
C135 C 0.24508 0.1512 0.4819 0.0
O136 O 0.28943 0.19998 0.55454 0.0
O137 O 0.26918 0.20105 0.48948 0.0
O138 O 0.23468 0.15886 0.49631 0.0
O139 O 0.26066 0.15729 0.5141 0.0
C140 C 0.25517 0.15821 0.67397 0.0
O141 O 0.23185 0.18687 0.57785 0.0
O142 O 0.2556 0.20002 0.64413 0.0
In143 In 0.83017 0.07342 0.58096 0.0
O144 O 0.8346 0.09427 0.66267 0.0
O145 O 0.85835 0.08951 0.63808 0.0
C146 C 0.79675 0.06637 0.52277 0.0
C147 C 0.82107 0.04033 0.6445 0.0
C148 C 0.85253 0.09416 0.48256 0.0
O149 O 0.80312 0.07693 0.57235 0.0
O150 O 0.80658 0.05841 0.50533 0.0
O151 O 0.84987 0.07716 0.49535 0.0
O152 O 0.84452 0.10053 0.52063 0.0
C153 C 0.85196 0.09794 0.67437 0.0
O154 O 0.83228 0.04547 0.59623 0.0
O155 O 0.81396 0.05124 0.65733 0.0
In156 In 0.91029 0.40709 0.43057 0.0
O157 O 0.92386 0.42272 0.52393 0.0
O158 O 0.8952 0.41745 0.49923 0.0
C159 C 0.94068 0.40665 0.37428 0.0
C160 C 0.88602 0.36951 0.46307 0.0
C161 C 0.91048 0.43221 0.34404 0.0
O162 O 0.94192 0.41329 0.43025 0.0
O163 O 0.92392 0.39955 0.34846 0.0
O164 O 0.89815 0.41391 0.34072 0.0
O165 O 0.9217 0.43747 0.39185 0.0
C166 C 0.90926 0.42469 0.53855 0.0
O167 O 0.87936 0.38003 0.44087 0.0
O168 O 0.90449 0.37775 0.4667 0.0
In169 In 0.60475 0.52649 0.40621 0.0
O170 O 0.63648 0.53263 0.41555 0.0
O171 O 0.62617 0.54643 0.48048 0.0
C172 C 0.5876 0.49975 0.31311 0.0
C173 C 0.58373 0.5053 0.50684 0.0
C174 C 0.60374 0.55567 0.34207 0.0
O175 O 0.60534 0.506 0.32921 0.0
O176 O 0.57867 0.50639 0.34573 0.0
O177 O 0.59395 0.54834 0.39247 0.0
O178 O 0.61491 0.54908 0.32639 0.0
C179 C 0.64 0.5436 0.46382 0.0
O180 O 0.58345 0.52046 0.48762 0.0
O181 O 0.59421 0.50051 0.47403 0.0
In182 In 0.48439 0.0698 0.40336 0.0
O183 O 0.48324 0.09831 0.41657 0.0
O184 O 0.45838 0.07097 0.44291 0.0
C185 C 0.51174 0.07717 0.31424 0.0
C186 C 0.50172 0.07261 0.5156 0.0
C187 C 0.45843 0.03466 0.35414 0.0
O188 O 0.5004 0.08431 0.30974 0.0
O189 O 0.50969 0.06749 0.3643 0.0
O190 O 0.46881 0.03658 0.40259 0.0
O191 O 0.46056 0.05058 0.33159 0.0
C192 C 0.4664 0.08946 0.4423 0.0
O193 O 0.48551 0.05777 0.50014 0.0
O194 O 0.50933 0.08598 0.47399 0.0
In195 In 0.75815 0.59062 0.78889 0.0
O196 O 0.7247 0.5745 0.77964 0.0
O197 O 0.7423 0.59075 0.69966 0.0
C198 C 0.76816 0.58248 0.90204 0.0
C199 C 0.77311 0.5741 0.71218 0.0
C200 C 0.76915 0.62828 0.81569 0.0
O201 O 0.7503 0.57369 0.8845 0.0
O202 O 0.78021 0.59424 0.8619 0.0
O203 O 0.77923 0.6237 0.77987 0.0
O204 O 0.75313 0.61393 0.83498 0.0
C205 C 0.72529 0.57977 0.72216 0.0
O206 O 0.7816 0.59249 0.72154 0.0
O207 O 0.75711 0.56398 0.74179 0.0
In208 In 0.39203 0.14334 0.71835 0.0
O209 O 0.41842 0.13842 0.71028 0.0
O210 O 0.39142 0.11843 0.66381 0.0
C211 C 0.39639 0.16847 0.81107 0.0
C212 C 0.40152 0.16777 0.61927 0.0
C213 C 0.3586 0.1151 0.76956 0.0
O214 O 0.4073 0.16076 0.8082 0.0
O215 O 0.38388 0.16368 0.76686 0.0
O216 O 0.35883 0.12328 0.71712 0.0
O217 O 0.37531 0.12069 0.79429 0.0
C218 C 0.40918 0.12358 0.67425 0.0
O219 O 0.38475 0.1524 0.62368 0.0
O220 O 0.41314 0.17076 0.66495 0.0
In221 In 0.83056 0.25131 0.78051 0.0
O222 O 0.82907 0.2293 0.70745 0.0
O223 O 0.80481 0.23442 0.71299 0.0
C224 C 0.86398 0.26031 0.84267 0.0
C225 C 0.83937 0.28348 0.71183 0.0
C226 C 0.80741 0.23134 0.8789 0.0
O227 O 0.85858 0.2499 0.79271 0.0
O228 O 0.85305 0.26713 0.85922 0.0
O229 O 0.80987 0.24805 0.86313 0.0
O230 O 0.81574 0.22475 0.84323 0.0
C231 C 0.81253 0.22556 0.68557 0.0
O232 O 0.82629 0.27755 0.75485 0.0
O233 O 0.84833 0.27394 0.7073 0.0
In234 In 0.41215 0.25317 0.22383 0.0
O235 O 0.39784 0.23641 0.13243 0.0
O236 O 0.42762 0.24415 0.15267 0.0
C237 C 0.38431 0.253 0.29807 0.0
C238 C 0.43315 0.29048 0.18468 0.0
C239 C 0.41485 0.22802 0.30264 0.0
O240 O 0.38056 0.24602 0.24191 0.0
O241 O 0.40218 0.26091 0.31458 0.0
O242 O 0.42728 0.24635 0.30492 0.0
O243 O 0.40198 0.2228 0.25946 0.0
C244 C 0.41303 0.2357 0.11557 0.0
O245 O 0.44136 0.28199 0.21164 0.0
O246 O 0.41465 0.28037 0.17984 0.0
In247 In 0.74 0.13959 0.2794 0.0
O248 O 0.70785 0.1319 0.26993 0.0
O249 O 0.72045 0.12276 0.19675 0.0
C250 C 0.75474 0.16471 0.37764 0.0
C251 C 0.76249 0.16337 0.18537 0.0
C252 C 0.74013 0.10896 0.33704 0.0
O253 O 0.73754 0.15889 0.35671 0.0
O254 O 0.76438 0.15837 0.34757 0.0
O255 O 0.75053 0.11729 0.28849 0.0
O256 O 0.72895 0.1154 0.35404 0.0
C257 C 0.70571 0.1236 0.21647 0.0
O258 O 0.76331 0.14831 0.20261 0.0
O259 O 0.75079 0.16673 0.21711 0.0
In260 In 0.84722 0.58577 0.3158 0.0
O261 O 0.84529 0.6018 0.22958 0.0
O262 O 0.81954 0.57493 0.25452 0.0
C263 C 0.86461 0.62305 0.35951 0.0
C264 C 0.86664 0.57039 0.25443 0.0
C265 C 0.8312 0.56666 0.4257 0.0
O266 O 0.8462 0.61165 0.36092 0.0
O267 O 0.87427 0.61568 0.33549 0.0
O268 O 0.84946 0.57538 0.41513 0.0
O269 O 0.82094 0.56626 0.37884 0.0
C270 C 0.82764 0.58934 0.21658 0.0
O271 O 0.84821 0.56288 0.25108 0.0
O272 O 0.87508 0.58488 0.29175 0.0
In273 In 0.58589 0.07202 0.89975 0.0
O274 O 0.56596 0.06115 0.9862 0.0
O275 O 0.57714 0.09103 0.95687 0.0
C276 C 0.58034 0.03965 0.83711 0.0
C277 C 0.62081 0.08721 0.95796 0.0
C278 C 0.56942 0.08261 0.80879 0.0
O279 O 0.57182 0.03864 0.88933 0.0
O280 O 0.59243 0.05688 0.81882 0.0
O281 O 0.58787 0.09241 0.81856 0.0
O282 O 0.55984 0.06819 0.84572 0.0
C283 C 0.56679 0.07751 0.99595 0.0
O284 O 0.61883 0.09482 0.9073 0.0
O285 O 0.60563 0.07186 0.97652 0.0
In286 In 0.93331 0.51902 0.93193 0.0
O287 O 0.94195 0.50926 0.02268 0.0
O288 O 0.9134 0.49059 0.98263 0.0
C289 C 0.96516 0.54887 0.87768 0.0
C290 C 0.9141 0.53544 0.9859 0.0
C291 C 0.92887 0.49402 0.83897 0.0
O292 O 0.96621 0.54091 0.92898 0.0
O293 O 0.94794 0.54244 0.85619 0.0
O294 O 0.91709 0.50064 0.84495 0.0
O295 O 0.94247 0.49999 0.87999 0.0
C296 C 0.9255 0.49343 0.02668 0.0
O297 O 0.90688 0.52388 0.93868 0.0
O298 O 0.93122 0.53945 0.00197 0.0
In299 In 0.50793 0.41891 0.9047 0.0
O300 O 0.50819 0.39044 0.92959 0.0
O301 O 0.48499 0.39463 0.96436 0.0
C302 C 0.53426 0.43861 0.81306 0.0
C303 C 0.52566 0.44135 0.00723 0.0
C304 C 0.47803 0.41538 0.8327 0.0
O305 O 0.52914 0.42086 0.8258 0.0
O306 O 0.52695 0.44626 0.84879 0.0
O307 O 0.48282 0.42483 0.88473 0.0
O308 O 0.48773 0.40698 0.81877 0.0
C309 C 0.49278 0.38394 0.96337 0.0
O310 O 0.51008 0.43976 0.98368 0.0
O311 O 0.53248 0.43193 0.97814 0.0
In312 In 0.58027 0.74875 0.73647 0.0
O313 O 0.5946 0.76893 0.82067 0.0
O314 O 0.56516 0.76145 0.79496 0.0
C315 C 0.60626 0.74217 0.6747 0.0
C316 C 0.55894 0.71496 0.7989 0.0
C317 C 0.5809 0.77323 0.64764 0.0
O318 O 0.61057 0.75199 0.72608 0.0
O319 O 0.58862 0.73503 0.65631 0.0
O320 O 0.56634 0.75577 0.65197 0.0
O321 O 0.59445 0.77784 0.68808 0.0
C322 C 0.57967 0.77073 0.83207 0.0
O323 O 0.55145 0.71945 0.75263 0.0
O324 O 0.57686 0.72701 0.80999 0.0
In325 In 0.25083 0.86022 0.75158 0.0
O326 O 0.2342 0.85764 0.84373 0.0
O327 O 0.2404 0.83483 0.8205 0.0
C328 C 0.24776 0.88947 0.69726 0.0
C329 C 0.28796 0.8736 0.79185 0.0
C330 C 0.22982 0.83417 0.65971 0.0
O331 O 0.24096 0.88298 0.7522 0.0
O332 O 0.25716 0.88201 0.67183 0.0
O333 O 0.24845 0.84276 0.66108 0.0
O334 O 0.22208 0.83831 0.70548 0.0
C335 C 0.23294 0.84148 0.85954 0.0
O336 O 0.27782 0.85686 0.76648 0.0
O337 O 0.27988 0.88405 0.7926 0.0
In338 In 0.16204 0.41506 0.72551 0.0
O339 O 0.1802 0.40647 0.78795 0.0
O340 O 0.18721 0.43647 0.78888 0.0
C341 C 0.13578 0.37875 0.68444 0.0
C342 C 0.14144 0.42885 0.78743 0.0
C343 C 0.1838 0.42712 0.61932 0.0
O344 O 0.14407 0.38177 0.73822 0.0
O345 O 0.14 0.39408 0.65298 0.0
O346 O 0.17101 0.43212 0.63064 0.0
O347 O 0.18569 0.41692 0.6621 0.0
C348 C 0.19122 0.4237 0.80882 0.0
O349 O 0.15369 0.43869 0.74423 0.0
O350 O 0.13903 0.4119 0.7968 0.0
In351 In 0.39765 0.89498 0.1285 0.0
O352 O 0.3679 0.87235 0.08588 0.0
O353 O 0.38002 0.90235 0.05948 0.0
C354 C 0.3925 0.87485 0.23699 0.0
C355 C 0.42419 0.89697 0.043 0.0
C356 C 0.41402 0.9295 0.19062 0.0
O357 O 0.38421 0.88486 0.22681 0.0
O358 O 0.40145 0.87318 0.18954 0.0
O359 O 0.42221 0.91919 0.18565 0.0
O360 O 0.39764 0.92272 0.16229 0.0
C361 C 0.36637 0.88484 0.05209 0.0
O362 O 0.42446 0.91193 0.06617 0.0
O363 O 0.41058 0.88073 0.06366 0.0
In364 In 0.05891 0.47186 0.06692 0.0
O365 O 0.08825 0.47305 0.0498 0.0
O366 O 0.06184 0.44621 0.0303 0.0
C367 C 0.06564 0.49904 0.15634 0.0
C368 C 0.0602 0.49032 0.95774 0.0
C369 C 0.02661 0.44372 0.12473 0.0
O370 O 0.07531 0.49005 0.15486 0.0
O371 O 0.05329 0.49466 0.11198 0.0
O372 O 0.02606 0.44991 0.06945 0.0
O373 O 0.04358 0.45115 0.14924 0.0
C374 C 0.08038 0.45566 0.02874 0.0
O375 O 0.04489 0.47472 0.97506 0.0
O376 O 0.07456 0.49646 0.99564 0.0
In377 In 0.51407 0.58852 0.07095 0.0
O378 O 0.50772 0.61374 0.05376 0.0
O379 O 0.53642 0.6183 0.03372 0.0
C380 C 0.48804 0.56305 0.15449 0.0
C381 C 0.49903 0.56988 0.96054 0.0
C382 C 0.5444 0.59293 0.14182 0.0
O383 O 0.49215 0.58089 0.15261 0.0
O384 O 0.49643 0.55821 0.11278 0.0
O385 O 0.5411 0.58529 0.08663 0.0
O386 O 0.53291 0.59897 0.15934 0.0
C387 C 0.52493 0.62518 0.0333 0.0
O388 O 0.51575 0.57333 0.98014 0.0
O389 O 0.49025 0.5759 0.99653 0.0
In390 In 0.07845 0.58323 0.56836 0.0
O391 O 0.10554 0.61427 0.57441 0.0
O392 O 0.08757 0.60604 0.49111 0.0
C393 C 0.0813 0.56179 0.6626 0.0
C394 C 0.07891 0.56135 0.47102 0.0
C395 C 0.04865 0.58617 0.62079 0.0
O396 O 0.09542 0.57883 0.64943 0.0
O397 O 0.06636 0.55574 0.62725 0.0
O398 O 0.04657 0.57673 0.56975 0.0
O399 O 0.06593 0.59496 0.6428 0.0
C400 C 0.1026 0.61904 0.51965 0.0
O401 O 0.06482 0.56461 0.48015 0.0
O402 O 0.09266 0.56898 0.51154 0.0
In403 In 0.41622 0.48219 0.571 0.0
O404 O 0.43539 0.48991 0.48163 0.0
O405 O 0.42594 0.50974 0.51342 0.0
C406 C 0.41948 0.45406 0.63268 0.0
C407 C 0.3807 0.46472 0.51566 0.0
C408 C 0.43311 0.50757 0.66698 0.0
O409 O 0.42916 0.46203 0.58237 0.0
O410 O 0.40743 0.45953 0.64915 0.0
O411 O 0.4147 0.49923 0.65703 0.0
O412 O 0.44266 0.50335 0.62775 0.0
C413 C 0.43526 0.50583 0.47249 0.0
O414 O 0.38631 0.47944 0.5521 0.0
O415 O 0.39246 0.45821 0.51078 0.0
In416 In 0.49143 0.90514 0.60744 0.0
O417 O 0.47434 0.91643 0.54987 0.0
O418 O 0.46324 0.88547 0.55385 0.0
C419 C 0.52168 0.93694 0.66103 0.0
C420 C 0.50983 0.89301 0.52743 0.0
C421 C 0.47258 0.89333 0.71841 0.0
O422 O 0.51181 0.93838 0.61564 0.0
O423 O 0.51694 0.91954 0.67651 0.0
O424 O 0.47899 0.88325 0.69081 0.0
O425 O 0.47499 0.90835 0.68861 0.0
C426 C 0.4611 0.89937 0.53301 0.0
O427 O 0.4991 0.88222 0.57243 0.0
O428 O 0.51167 0.90994 0.52464 0.0
In429 In 0.26305 0.43121 0.20393 0.0
O430 O 0.29113 0.457 0.2445 0.0
O431 O 0.28864 0.42874 0.24355 0.0
C432 C 0.26255 0.45034 0.09884 0.0
C433 C 0.2427 0.42773 0.31032 0.0
C434 C 0.24253 0.3953 0.1502 0.0
O435 O 0.27209 0.44131 0.10224 0.0
O436 O 0.25488 0.45133 0.1506 0.0
O437 O 0.23443 0.40397 0.17625 0.0
O438 O 0.26112 0.40454 0.1527 0.0
C439 C 0.29847 0.44651 0.26057 0.0
O440 O 0.24962 0.41665 0.2974 0.0
O441 O 0.24564 0.4405 0.26846 0.0
In442 In 0.59439 0.85818 0.23723 0.0
O443 O 0.56544 0.8584 0.24145 0.0
O444 O 0.59113 0.88305 0.27932 0.0
C445 C 0.59111 0.83408 0.14202 0.0
C446 C 0.58645 0.83451 0.33861 0.0
C447 C 0.62953 0.88635 0.19521 0.0
O448 O 0.58115 0.84279 0.14254 0.0
O449 O 0.60205 0.83726 0.18984 0.0
O450 O 0.62738 0.87838 0.24937 0.0
O451 O 0.61376 0.88093 0.16446 0.0
C452 C 0.57279 0.87464 0.27065 0.0
O453 O 0.60221 0.85094 0.3345 0.0
O454 O 0.57496 0.83019 0.29177 0.0
In455 In 0.15836 0.74859 0.24888 0.0
O456 O 0.15772 0.71908 0.2505 0.0
O457 O 0.14418 0.72604 0.32682 0.0
C458 C 0.18247 0.77026 0.15494 0.0
C459 C 0.18009 0.77177 0.34505 0.0
C460 C 0.12521 0.74165 0.18804 0.0
O461 O 0.18031 0.75359 0.16952 0.0
O462 O 0.17284 0.77587 0.18871 0.0
O463 O 0.13135 0.75246 0.23721 0.0
O464 O 0.13517 0.73369 0.1725 0.0
C465 C 0.14859 0.71396 0.30304 0.0
O466 O 0.16256 0.76795 0.33533 0.0
O467 O 0.18652 0.76406 0.30595 0.0
H468 H 0.18403 0.95003 0.23809 0.0
H469 H 0.15765 0.97319 0.36701 0.0
H470 H 0.16886 0.00232 0.29867 0.0
H471 H 0.18825 0.02205 0.20574 0.0
H472 H 0.21555 -0.00129 0.08148 0.0
H473 H 0.20147 0.96845 0.14401 0.0
C474 C 0.18066 0.96141 0.25143 0.0
C475 C 0.17025 0.95961 0.30792 0.0
C476 C 0.18717 0.97795 0.21238 0.0
C477 C 0.16581 0.97436 0.32398 0.0
C478 C 0.17217 0.99095 0.28486 0.0
C479 C 0.19069 0.01012 0.19172 0.0
C480 C 0.20282 0.01248 0.13908 0.0
C481 C 0.18309 0.993 0.2293 0.0
C482 C 0.20622 0.99714 0.1218 0.0
C483 C 0.19829 0.97992 0.1577 0.0
H484 H 0.97529 0.2308 0.2093 0.0
H485 H 0.97288 0.17727 0.14557 0.0
H486 H -0.00115 0.18259 0.22126 0.0
H487 H 0.02162 0.20211 0.30768 0.0
H488 H 0.02511 0.25647 0.36675 0.0
H489 H -0.00103 0.251 0.29161 0.0
C490 C 0.98059 0.2204 0.21151 0.0
C491 C 0.97221 0.20368 0.17204 0.0
C492 C 0.99541 0.22352 0.25513 0.0
C493 C 0.97923 0.19035 0.17521 0.0
C494 C 0.99393 0.19328 0.21886 0.0
C495 C 0.01641 0.21257 0.30454 0.0
C496 C 0.02489 0.22946 0.34321 0.0
C497 C 0.00192 0.20967 0.25967 0.0
C498 C 0.01854 0.24326 0.33774 0.0
C499 C 0.00373 0.24019 0.29462 0.0
H500 H 0.75021 0.78461 0.24629 0.0
H501 H 0.78535 0.78332 0.40234 0.0
H502 H 0.80548 0.77677 0.32744 0.0
H503 H 0.81399 0.77322 0.21696 0.0
H504 H 0.78097 0.77833 0.06097 0.0
H505 H 0.75897 0.78163 0.13652 0.0
C506 C 0.7621 0.78259 0.26396 0.0
C507 C 0.76621 0.78415 0.3296 0.0
C508 C 0.77401 0.77971 0.22059 0.0
C509 C 0.78191 0.78203 0.35194 0.0
C510 C 0.7934 0.77835 0.30917 0.0
C511 C 0.80186 0.7749 0.19969 0.0
C512 C 0.79893 0.77542 0.13374 0.0
C513 C 0.78974 0.77744 0.24333 0.0
C514 C 0.78344 0.77792 0.11163 0.0
C515 C 0.77088 0.77976 0.15473 0.0
H516 H 0.80237 0.96209 0.78746 0.0
H517 H 0.78383 0.98877 0.93149 0.0
H518 H 0.79574 0.01835 0.86646 0.0
H519 H 0.80796 0.03498 0.76486 0.0
H520 H 0.82607 0.00871 0.61837 0.0
H521 H 0.8177 0.98044 0.68819 0.0
C522 C 0.8014 0.97459 0.80517 0.0
C523 C 0.79217 0.97328 0.864 0.0
C524 C 0.80778 0.99135 0.76662 0.0
C525 C 0.79084 0.98946 0.88628 0.0
C526 C 0.79752 0.0063 0.84896 0.0
C527 C 0.81012 0.02308 0.74813 0.0
C528 C 0.81723 0.02366 0.68623 0.0
C529 C 0.80537 0.0071 0.78831 0.0
C530 C 0.8204 0.00842 0.66569 0.0
C531 C 0.81565 0.99232 0.7056 0.0
H532 H 0.01391 0.81142 0.80691 0.0
H533 H 0.99009 0.74946 0.84271 0.0
H534 H 0.96338 0.74153 0.76666 0.0
H535 H 0.94819 0.75229 0.68515 0.0
H536 H 0.97421 0.81414 0.6418 0.0
H537 H -0.00113 0.82214 0.72525 0.0
C538 C 0.00261 0.79621 0.79894 0.0
C539 C 0.00366 0.78102 0.83086 0.0
C540 C 0.98797 0.7918 0.75304 0.0
C541 C 0.98936 0.76135 0.81898 0.0
C542 C 0.97421 0.75684 0.7753 0.0
C543 C 0.95924 0.76752 0.69418 0.0
C544 C 0.95945 0.78262 0.65749 0.0
C545 C 0.97361 0.77194 0.74119 0.0
C546 C 0.97388 0.80227 0.66921 0.0
C547 C 0.9879 0.80685 0.71707 0.0
H548 H 0.24255 0.20585 0.75128 0.0
H549 H 0.21342 0.20874 0.5807 0.0
H550 H 0.19682 0.22294 0.64191 0.0
H551 H 0.19056 0.23426 0.74437 0.0
H552 H 0.21746 0.22841 0.91607 0.0
H553 H 0.23504 0.21554 0.85404 0.0
C554 C 0.23265 0.20971 0.72752 0.0
C555 C 0.22934 0.20655 0.66164 0.0
C556 C 0.22278 0.21724 0.76324 0.0
C557 C 0.21619 0.21116 0.63142 0.0
C558 C 0.20675 0.21926 0.66635 0.0
C559 C 0.20034 0.23021 0.76801 0.0
C560 C 0.20293 0.23241 0.83443 0.0
C561 C 0.20993 0.22234 0.7323 0.0
C562 C 0.21531 0.22683 0.86492 0.0
C563 C 0.22536 0.21953 0.82951 0.0
H564 H 0.8585 0.29017 0.60093 0.0
H565 H 0.8289 0.31217 0.72022 0.0
H566 H 0.83796 0.33956 0.64561 0.0
H567 H 0.85759 0.35902 0.55233 0.0
H568 H 0.88846 0.33716 0.43897 0.0
H569 H 0.87511 0.30748 0.5044 0.0
C570 C 0.85395 0.30091 0.61069 0.0
C571 C 0.84343 0.29945 0.66656 0.0
C572 C 0.85924 0.31645 0.56811 0.0
C573 C 0.83724 0.31319 0.6778 0.0
C574 C 0.84238 0.32878 0.63513 0.0
C575 C 0.86075 0.34737 0.54095 0.0
C576 C 0.87372 0.34996 0.49077 0.0
C577 C 0.85374 0.33078 0.58077 0.0
C578 C 0.8783 0.3352 0.47706 0.0
C579 C 0.87085 0.3184 0.51481 0.0
H580 H 0.64324 0.55056 0.58976 0.0
H581 H 0.67684 0.55284 0.42395 0.0
H582 H 0.70658 0.56507 0.48974 0.0
H583 H 0.72272 0.57474 0.59471 0.0
H584 H 0.68826 0.56944 0.76161 0.0
H585 H 0.65893 0.55865 0.69505 0.0
C586 C 0.65713 0.55388 0.56803 0.0
C587 C 0.65804 0.55111 0.50219 0.0
C588 C 0.67386 0.56025 0.60634 0.0
C589 C 0.67592 0.55498 0.47459 0.0
C590 C 0.69285 0.56195 0.51213 0.0
C591 C 0.70877 0.57129 0.61634 0.0
C592 C 0.70756 0.57303 0.68267 0.0
C593 C 0.69196 0.5646 0.57805 0.0
C594 C 0.68944 0.5682 0.71056 0.0
C595 C 0.67274 0.56208 0.67257 0.0
H596 H 0.44526 0.14155 0.619 0.0
H597 H 0.39327 0.08494 0.64788 0.0
H598 H 0.40601 0.06963 0.575 0.0
H599 H 0.43124 0.07247 0.50125 0.0
H600 H 0.48311 0.12894 0.46841 0.0
H601 H 0.47083 0.1444 0.54318 0.0
C602 C 0.43701 0.1258 0.61022 0.0
C603 C 0.41858 0.11423 0.63938 0.0
C604 C 0.44411 0.11724 0.56637 0.0
C605 C 0.40763 0.09399 0.62643 0.0
C606 C 0.4148 0.0853 0.58438 0.0
C607 C 0.43981 0.08821 0.50986 0.0
C608 C 0.458 0.09957 0.47916 0.0
C609 C 0.43285 0.09683 0.55343 0.0
C610 C 0.46894 0.11992 0.491 0.0
C611 C 0.46203 0.12871 0.53425 0.0
H612 H 0.46825 0.30649 0.1226 0.0
H613 H 0.4216 0.31749 0.17786 0.0
H614 H 0.43627 0.34759 0.11441 0.0
H615 H 0.46087 0.36942 0.03865 0.0
H616 H 0.50715 0.35849 0.97779 0.0
H617 H 0.49396 0.32945 0.04732 0.0
C618 C 0.46162 0.31577 0.12162 0.0
C619 C 0.44402 0.31001 0.15506 0.0
C620 C 0.46979 0.33272 0.08311 0.0
C621 C 0.43522 0.32179 0.15261 0.0
C622 C 0.44351 0.33888 0.11608 0.0
C623 C 0.46812 0.36071 0.04038 0.0
C624 C 0.48486 0.36598 0.00281 0.0
C625 C 0.46052 0.34423 0.08016 0.0
C626 C 0.49411 0.35459 0.00593 0.0
C627 C 0.48664 0.33808 0.04589 0.0
H628 H 0.70408 0.12452 0.08869 0.0
H629 H 0.66778 0.10721 0.2573 0.0
H630 H 0.63812 0.09425 0.19096 0.0
H631 H 0.62275 0.08725 0.0852 0.0
H632 H 0.65899 0.10713 0.91663 0.0
H633 H 0.68875 0.11995 0.98284 0.0
C634 C 0.68963 0.11787 0.1107 0.0
C635 C 0.68791 0.11645 0.17742 0.0
C636 C 0.67283 0.11103 0.07241 0.0
C637 C 0.6693 0.10829 0.2059 0.0
C638 C 0.65242 0.1009 0.16807 0.0
C639 C 0.6372 0.09441 0.06309 0.0
C640 C 0.63886 0.09606 0.99643 0.0
C641 C 0.65404 0.10208 0.10136 0.0
C642 C 0.65752 0.1057 0.96798 0.0
C643 C 0.67444 0.11294 0.00574 0.0
H644 H 0.85347 0.54831 0.14688 0.0
H645 H 0.90489 0.57985 0.266 0.0
H646 H 0.92433 0.57278 0.19073 0.0
H647 H 0.92677 0.55793 0.09155 0.0
H648 H 0.87569 0.52638 0.9711 0.0
H649 H 0.85608 0.5336 0.0459 0.0
C650 C 0.86888 0.55341 0.15663 0.0
C651 C 0.87773 0.56441 0.21211 0.0
C652 C 0.88006 0.54963 0.11251 0.0
C653 C 0.89775 0.57125 0.22378 0.0
C654 C 0.90889 0.56732 0.18063 0.0
C655 C 0.91138 0.55278 0.0812 0.0
C656 C 0.90269 0.5417 0.02579 0.0
C657 C 0.90022 0.55667 0.12472 0.0
C658 C 0.88274 0.53507 0.01325 0.0
C659 C 0.87151 0.53905 0.05623 0.0
H660 H 0.57198 0.70767 0.90756 0.0
H661 H 0.52131 0.68339 0.78343 0.0
H662 H 0.50471 0.65409 0.85194 0.0
H663 H 0.5062 0.63431 0.94243 0.0
H664 H 0.5583 0.65873 0.05979 0.0
H665 H 0.57269 0.68942 -0.00064 0.0
C666 C 0.55726 0.69602 0.89529 0.0
C667 C 0.54798 0.69751 0.83999 0.0
C668 C 0.54806 0.67939 0.93418 0.0
C669 C 0.52881 0.68244 0.82549 0.0
C670 C 0.51934 0.66575 0.86469 0.0
C671 C 0.52044 0.64663 0.95553 0.0
C672 C 0.53119 0.64456 0.00563 0.0
C673 C 0.52898 0.66393 0.91864 0.0
C674 C 0.54982 0.66024 0.02164 0.0
C675 C 0.55807 0.67766 0.98686 0.0
H676 H 0.3601 0.90957 0.97873 0.0
H677 H 0.33799 0.84789 0.01636 0.0
H678 H 0.31322 0.83899 0.93269 0.0
H679 H 0.2971 0.8488 0.85183 0.0
H680 H 0.31786 0.91043 0.81931 0.0
H681 H 0.34432 0.91936 0.89697 0.0
C682 C 0.34983 0.89417 0.96872 0.0
C683 C 0.35077 0.8794 0.00389 0.0
C684 C 0.33562 0.88919 0.92088 0.0
C685 C 0.33743 0.85952 0.99029 0.0
C686 C 0.32336 0.85443 0.94221 0.0
C687 C 0.30771 0.86417 0.86076 0.0
C688 C 0.30578 0.87897 0.8295 0.0
C689 C 0.32229 0.86915 0.90734 0.0
C690 C 0.31924 0.89883 0.84253 0.0
C691 C 0.33423 0.90392 0.88722 0.0
H692 H 0.11189 0.40897 0.87153 0.0
H693 H 0.15004 0.4671 0.79577 0.0
H694 H 0.1359 0.4809 0.8696 0.0
H695 H 0.11221 0.47625 0.95427 0.0
H696 H 0.07244 0.41779 0.02393 0.0
H697 H 0.08802 0.40426 0.95492 0.0
C698 C 0.11705 0.42465 0.87102 0.0
C699 C 0.13192 0.43701 0.82824 0.0
C700 C 0.10879 0.43241 0.91317 0.0
C701 C 0.13847 0.45728 0.82796 0.0
C702 C 0.13051 0.46519 0.87044 0.0
C703 C 0.10728 0.46061 0.95513 0.0
C704 C 0.09151 0.448 0.99464 0.0
C705 C 0.1157 0.45289 0.91334 0.0
C706 C 0.08475 0.42771 0.99424 0.0
C707 C 0.09353 0.42 0.95454 0.0
H708 H 0.11157 0.62651 0.39558 0.0
H709 H 0.12141 0.65475 0.579 0.0
H710 H 0.13776 0.68718 0.52748 0.0
H711 H 0.14621 0.70703 0.42931 0.0
H712 H 0.13813 0.67883 0.24644 0.0
H713 H 0.12422 0.64664 0.29864 0.0
C714 C 0.11757 0.63982 0.42417 0.0
C715 C 0.11515 0.63843 0.49064 0.0
C716 C 0.12708 0.65826 0.39432 0.0
C717 C 0.12316 0.65561 0.52767 0.0
C718 C 0.13237 0.67408 0.49822 0.0
C719 C 0.14159 0.69382 0.40112 0.0
C720 C 0.14283 0.69508 0.33431 0.0
C721 C 0.13394 0.67552 0.4315 0.0
C722 C 0.13721 0.67806 0.29799 0.0
C723 C 0.1292 0.65972 0.32777 0.0
H724 H 0.36469 0.48577 0.4697 0.0
H725 H 0.35925 0.42825 0.46416 0.0
H726 H 0.33388 0.41781 0.38181 0.0
H727 H 0.31393 0.42533 0.30987 0.0
H728 H 0.3201 0.48322 0.31237 0.0
H729 H 0.34493 0.49344 0.39641 0.0
C730 C 0.35765 0.47085 0.45122 0.0
C731 C 0.36353 0.45766 0.47339 0.0
C732 C 0.34361 0.4652 0.40241 0.0
C733 C 0.35475 0.43854 0.44808 0.0
C734 C 0.34039 0.43264 0.40072 0.0
C735 C 0.32087 0.44026 0.32829 0.0
C736 C 0.31528 0.45353 0.30478 0.0
C737 C 0.33492 0.44593 0.37696 0.0
C738 C 0.32429 0.47278 0.32937 0.0
C739 C 0.33834 0.47858 0.3778 0.0
H740 H 0.53886 0.91557 0.44475 0.0
H741 H 0.50078 0.85525 0.50225 0.0
H742 H 0.51513 0.84405 0.42009 0.0
H743 H 0.53968 0.85162 0.33582 0.0
H744 H 0.58003 0.91209 0.28632 0.0
H745 H 0.56328 0.92313 0.36033 0.0
C746 C 0.53369 0.89997 0.43918 0.0
C747 C 0.51886 0.88624 0.47949 0.0
C748 C 0.54223 0.89372 0.39275 0.0
C749 C 0.51232 0.86609 0.47207 0.0
C750 C 0.52042 0.85969 0.4249 0.0
C751 C 0.54442 0.86717 0.34019 0.0
C752 C 0.56071 0.88107 0.3051 0.0
C753 C 0.53545 0.87338 0.38525 0.0
C754 C 0.56728 0.90121 0.3124 0.0
C755 C 0.55785 0.90748 0.35503 0.0
H756 H 0.22395 0.12423 0.71739 0.0
H757 H 0.28381 0.16818 0.76313 0.0
H758 H 0.28169 0.15131 0.86303 0.0
H759 H 0.26311 0.12413 0.9366 0.0
H760 H 0.20385 0.07902 0.89005 0.0
H761 H 0.20534 0.09646 0.79125 0.0
C762 C 0.23653 0.13008 0.74923 0.0
C763 C 0.25402 0.14743 0.73296 0.0
C764 C 0.23525 0.12021 0.80647 0.0
C765 C 0.27022 0.15482 0.77448 0.0
C766 C 0.26899 0.14523 0.8317 0.0
C767 C 0.25041 0.11819 0.90523 0.0
C768 C 0.2333 0.10044 0.92081 0.0
C769 C 0.25159 0.12797 0.84816 0.0
C770 C 0.21712 0.09275 0.87918 0.0
C771 C 0.21801 0.10267 0.82267 0.0
H772 H 0.83928 0.11192 0.7703 0.0
H773 H 0.8908 0.11163 0.69928 0.0
H774 H 0.90993 0.13132 0.79048 0.0
H775 H 0.91192 0.14849 0.89095 0.0
H776 H 0.86002 0.14802 0.96237 0.0
H777 H 0.84113 0.12867 0.87078 0.0
C778 C 0.85472 0.11626 0.77464 0.0
C779 C 0.86365 0.11043 0.72813 0.0
C780 C 0.86553 0.12734 0.82751 0.0
C781 C 0.88362 0.11599 0.73454 0.0
C782 C 0.89455 0.12721 0.78671 0.0
C783 C 0.89646 0.14407 0.8865 0.0
C784 C 0.88739 0.14965 0.93334 0.0
C785 C 0.88564 0.13291 0.83362 0.0
C786 C 0.86735 0.14386 0.92702 0.0
C787 C 0.85653 0.13284 0.87455 0.0
H788 H 0.90419 0.80967 0.66813 0.0
H789 H 0.85241 0.75737 0.60097 0.0
H790 H 0.83287 0.76049 0.68603 0.0
H791 H 0.83225 0.77408 0.79037 0.0
H792 H 0.88489 0.82422 0.86351 0.0
H793 H 0.90217 0.82645 0.76416 0.0
C794 C 0.88853 0.79922 0.67125 0.0
C795 C 0.87982 0.78309 0.6293 0.0
C796 C 0.87756 0.80072 0.72155 0.0
C797 C 0.8595 0.76976 0.63341 0.0
C798 C 0.84832 0.77152 0.68205 0.0
C799 C 0.84728 0.78594 0.78368 0.0
C800 C 0.85741 0.79878 0.83441 0.0
C801 C 0.85742 0.78638 0.72809 0.0
C802 C 0.87687 0.81407 0.82517 0.0
C803 C 0.8868 0.81521 0.76866 0.0
H804 H 0.1236 0.2153 0.7795 0.0
H805 H 0.1274 0.27054 0.82914 0.0
H806 H 0.10436 0.26616 0.74367 0.0
H807 H 0.08628 0.24857 0.64772 0.0
H808 H 0.08629 0.19594 0.58871 0.0
H809 H 0.1042 0.19689 0.68587 0.0
C810 C 0.1191 0.22619 0.77221 0.0
C811 C 0.12715 0.24322 0.81034 0.0
C812 C 0.10644 0.22392 0.72151 0.0
C813 C 0.12143 0.25736 0.80009 0.0
C814 C 0.10826 0.25485 0.75134 0.0
C815 C 0.08966 0.23698 0.65746 0.0
C816 C 0.08467 0.22194 0.61253 0.0
C817 C 0.10104 0.23842 0.7109 0.0
C818 C 0.08973 0.20739 0.62371 0.0
C819 C 0.10012 0.20808 0.67875 0.0
H820 H 0.7269 0.84993 0.56758 0.0
H821 H 0.77714 0.84397 0.61672 0.0
H822 H 0.78212 0.86332 0.71374 0.0
H823 H 0.77146 0.88098 0.78595 0.0
H824 H 0.72093 0.88644 0.73659 0.0
H825 H 0.71673 0.86809 0.63811 0.0
C826 C 0.73904 0.85297 0.59924 0.0
C827 C 0.75165 0.84554 0.58506 0.0
C828 C 0.74165 0.86386 0.65501 0.0
C829 C 0.76727 0.84957 0.6266 0.0
C830 C 0.77007 0.86056 0.68212 0.0
C831 C 0.75953 0.87815 0.75362 0.0
C832 C 0.74646 0.88497 0.7686 0.0
C833 C 0.75722 0.8676 0.69708 0.0
C834 C 0.73114 0.88128 0.72618 0.0
C835 C 0.72874 0.87082 0.66986 0.0
H836 H 0.12247 0.8524 0.54844 0.0
H837 H 0.1133 0.90027 0.60399 0.0
H838 H 0.09576 0.88205 0.69962 0.0
H839 H 0.08357 0.85282 0.7677 0.0
H840 H 0.09311 0.80513 0.7127 0.0
H841 H 0.1101 0.82309 0.6161 0.0
C842 C 0.11657 0.85884 0.58132 0.0
C843 C 0.11915 0.87766 0.56918 0.0
C844 C 0.10668 0.84837 0.63618 0.0
C845 C 0.11148 0.88581 0.61229 0.0
C846 C 0.10149 0.87542 0.66694 0.0
C847 C 0.08935 0.84633 0.73458 0.0
C848 C 0.08712 0.82768 0.7473 0.0
C849 C 0.0991 0.85674 0.67943 0.0
C850 C 0.09467 0.81947 0.70396 0.0
C851 C 0.10436 0.82972 0.64878 0.0
H852 H 0.72841 0.86431 0.0787 0.0
H853 H 0.78948 0.90661 0.11485 0.0
H854 H 0.78834 0.88915 0.2133 0.0
H855 H 0.76967 0.86188 0.28905 0.0
H856 H 0.70824 0.82065 0.25272 0.0
H857 H 0.7098 0.83788 0.15428 0.0
C858 C 0.74155 0.86966 0.10779 0.0
C859 C 0.75907 0.8866 0.08936 0.0
C860 C 0.74065 0.85986 0.16445 0.0
C861 C 0.77586 0.89352 0.12801 0.0
C862 C 0.77518 0.88359 0.18427 0.0
C863 C 0.75663 0.85674 0.25966 0.0
C864 C 0.73886 0.84002 0.27808 0.0
C865 C 0.7576 0.86677 0.20307 0.0
C866 C 0.72207 0.83352 0.23967 0.0
C867 C 0.72296 0.84331 0.18327 0.0
H868 H 0.06662 0.83814 0.10309 0.0
H869 H 0.11849 0.84218 0.01637 0.0
H870 H 0.13821 0.86039 0.10811 0.0
H871 H 0.14064 0.87427 0.21408 0.0
H872 H 0.08942 0.87152 0.30071 0.0
H873 H 0.06945 0.85355 0.2081 0.0
C874 C 0.08227 0.8432 0.10411 0.0
C875 C 0.09107 0.83879 0.05319 0.0
C876 C 0.09358 0.85367 0.1572 0.0
C877 C 0.11136 0.8454 0.05501 0.0
C878 C 0.12265 0.85574 0.10756 0.0
C879 C 0.12508 0.86963 0.2128 0.0
C880 C 0.11642 0.87396 0.26413 0.0
C881 C 0.11387 0.85972 0.15919 0.0
C882 C 0.09634 0.86821 0.26161 0.0
C883 C 0.08495 0.858 0.20873 0.0
H884 H 0.11998 0.21539 0.08754 0.0
H885 H 0.17749 0.25539 0.1644 0.0
H886 H 0.16268 0.25631 0.26579 0.0
H887 H 0.13306 0.24921 0.32727 0.0
H888 H 0.07563 0.20895 0.25047 0.0
H889 H 0.09071 0.20468 0.15447 0.0
C890 C 0.1293 0.22393 0.12699 0.0
C891 C 0.14975 0.2355 0.11826 0.0
C892 C 0.12067 0.22464 0.18478 0.0
C893 C 0.16168 0.24639 0.16988 0.0
C894 C 0.15321 0.24707 0.22772 0.0
C895 C 0.12391 0.23935 0.28974 0.0
C896 C 0.10331 0.22967 0.29529 0.0
C897 C 0.13268 0.23686 0.23481 0.0
C898 C 0.09155 0.21667 0.24699 0.0
C899 C 0.10015 0.21422 0.19206 0.0
H900 H 0.89396 0.77283 0.12174 0.0
H901 H 0.87823 0.81625 0.1769 0.0
H902 H 0.89654 0.82223 0.27625 0.0
H903 H 0.91184 0.81081 0.35468 0.0
H904 H 0.92762 0.76742 0.30004 0.0
H905 H 0.91499 0.76613 0.19265 0.0
C906 C 0.89493 0.7839 0.15494 0.0
C907 C 0.88445 0.79377 0.14282 0.0
C908 C 0.9054 0.7872 0.21218 0.0
C909 C 0.88605 0.80833 0.18552 0.0
C910 C 0.89645 0.81171 0.24248 0.0
C911 C 0.91303 0.80152 0.31864 0.0
C912 C 0.92027 0.78897 0.33537 0.0
C913 C 0.90544 0.80061 0.25745 0.0
C914 C 0.92201 0.77717 0.28826 0.0
C915 C 0.91461 0.77627 0.22703 0.0
H916 H 0.21943 0.10062 0.23005 0.0
H917 H 0.27321 0.09999 0.26875 0.0
H918 H 0.27754 0.11817 0.36773 0.0
H919 H 0.26683 0.13541 0.44047 0.0
H920 H 0.21345 0.13674 0.40128 0.0
H921 H 0.20801 0.11684 0.30537 0.0
C922 C 0.23207 0.10442 0.26026 0.0
C923 C 0.24606 0.0991 0.24199 0.0
C924 C 0.23448 0.11491 0.31692 0.0
C925 C 0.26229 0.104 0.28169 0.0
C926 C 0.26476 0.11438 0.33827 0.0
C927 C 0.2539 0.13119 0.41131 0.0
C928 C 0.24057 0.13756 0.42778 0.0
C929 C 0.25105 0.12005 0.35599 0.0
C930 C 0.2239 0.132 0.38955 0.0
C931 C 0.22084 0.1207 0.33464 0.0
H932 H 0.85572 0.12834 0.44316 0.0
H933 H 0.87224 0.08512 0.39286 0.0
H934 H 0.88793 0.1035 0.2953 0.0
H935 H 0.89655 0.13164 0.22441 0.0
H936 H 0.87949 0.17446 0.27503 0.0
H937 H 0.86416 0.15623 0.37271 0.0
C938 C 0.86284 0.12296 0.4111 0.0
C939 C 0.86292 0.10546 0.42524 0.0
C940 C 0.87156 0.13343 0.35516 0.0
C941 C 0.87208 0.09862 0.38303 0.0
C942 C 0.88097 0.10907 0.32727 0.0
C943 C 0.88942 0.13695 0.25674 0.0
C944 C 0.88911 0.15435 0.24259 0.0
C945 C 0.88071 0.12644 0.31279 0.0
C946 C 0.87987 0.16108 0.28488 0.0
C947 C 0.87117 0.1507 0.34074 0.0
H948 H 0.89262 0.42454 0.22777 0.0
H949 H 0.93582 0.47158 0.34523 0.0
H950 H 0.94473 0.49458 0.25684 0.0
H951 H 0.9413 0.50115 0.14486 0.0
H952 H 0.89747 0.4547 0.02767 0.0
H953 H 0.88789 0.43163 0.11685 0.0
C954 C 0.90377 0.43988 0.23414 0.0
C955 C 0.91358 0.44632 0.29277 0.0
C956 C 0.90894 0.45308 0.18291 0.0
C957 C 0.92805 0.46623 0.30044 0.0
C958 C 0.93326 0.4794 0.24985 0.0
C959 C 0.92974 0.48595 0.13891 0.0
C960 C 0.92026 0.47952 0.07994 0.0
C961 C 0.92404 0.47292 0.19061 0.0
C962 C 0.90504 0.45991 0.07284 0.0
C963 C 0.89952 0.44674 0.12376 0.0
H964 H 0.55293 0.49119 0.25999 0.0
H965 H 0.60155 0.48044 0.23948 0.0
H966 H 0.58654 0.46121 0.14255 0.0
H967 H 0.55984 0.44813 0.06276 0.0
H968 H 0.51198 0.46011 0.08283 0.0
H969 H 0.52659 0.47838 0.18094 0.0
C970 C 0.5602 0.48451 0.23467 0.0
C971 C 0.57826 0.48711 0.25698 0.0
C972 C 0.5517 0.47388 0.17873 0.0
C973 C 0.58759 0.47856 0.22328 0.0
C974 C 0.57904 0.46764 0.16785 0.0
C975 C 0.55264 0.45477 0.08862 0.0
C976 C 0.53487 0.45281 0.06559 0.0
C977 C 0.56117 0.46533 0.14491 0.0
C978 C 0.5257 0.46147 0.09948 0.0
C979 C 0.534 0.47187 0.15565 0.0
H980 H 0.56054 0.06066 0.11123 0.0
H981 H 0.55145 0.10196 0.00188 0.0
H982 H 0.53412 0.10644 0.09209 0.0
H983 H 0.52036 0.09731 0.20122 0.0
H984 H 0.53187 0.05751 0.31094 0.0
H985 H 0.54968 0.054 0.22194 0.0
C986 C 0.55473 0.07062 0.1073 0.0
C987 C 0.5569 0.08073 0.0502 0.0
C988 C 0.54533 0.07348 0.15954 0.0
C989 C 0.54977 0.09395 0.04568 0.0
C990 C 0.5399 0.0965 0.09711 0.0
C991 C 0.52699 0.08809 0.20572 0.0
C992 C 0.52464 0.07758 0.26237 0.0
C993 C 0.53744 0.08621 0.15423 0.0
C994 C 0.53341 0.06575 0.26781 0.0
C995 C 0.54354 0.06363 0.21683 0.0
H996 H 0.80255 0.60798 0.95456 0.0
H997 H 0.7492 0.5532 0.99206 0.0
H998 H 0.76263 0.55072 0.09555 0.0
H999 H 0.7905 0.56386 0.17268 0.0
H1000 H 0.84319 0.61906 0.13123 0.0
H1001 H 0.82893 0.62167 0.03155 0.0
C1002 C 0.7938 0.59542 0.9852 0.0
C1003 C 0.77506 0.58063 0.96557 0.0
C1004 C 0.80151 0.59423 0.04379 0.0
C1005 C 0.76375 0.5647 0.00627 0.0
C1006 C 0.77143 0.5633 0.0652 0.0
C1007 C 0.79873 0.57649 0.14193 0.0
C1008 C 0.81792 0.59118 0.15906 0.0
C1009 C 0.79042 0.57792 0.08415 0.0
C1010 C 0.82844 0.60752 0.11904 0.0
C1011 C 0.82033 0.60903 0.06196 0.0
H1012 H 0.42517 0.18657 0.90037 0.0
H1013 H 0.3695 0.17953 0.83832 0.0
H1014 H 0.36989 0.2001 0.92605 0.0
H1015 H 0.38553 0.21938 0.02226 0.0
H1016 H 0.44164 0.22731 0.08308 0.0
H1017 H 0.44166 0.20728 0.99397 0.0
C1018 C 0.41318 0.18961 0.90611 0.0
C1019 C 0.39733 0.1815 0.86324 0.0
C1020 C 0.41356 0.20163 0.9564 0.0
C1021 C 0.38192 0.18564 0.87077 0.0
C1022 C 0.38209 0.19737 0.92096 0.0
C1023 C 0.39779 0.2168 0.01573 0.0
C1024 C 0.41348 0.22471 0.05919 0.0
C1025 C 0.39777 0.20535 0.96428 0.0
C1026 C 0.42936 0.22136 0.05011 0.0
C1027 C 0.42937 0.20987 -0.0007 0.0
H1028 H 0.80854 0.20068 0.93139 0.0
H1029 H 0.78405 0.23871 0.95895 0.0
H1030 H 0.7684 0.22133 0.0582 0.0
H1031 H 0.76158 0.19504 0.13616 0.0
H1032 H 0.78707 0.15785 0.10768 0.0
H1033 H 0.80271 0.17545 0.00968 0.0
C1034 C 0.79968 0.20513 0.95881 0.0
C1035 C 0.79725 0.2208 0.93761 0.0
C1036 C 0.79109 0.19535 0.01579 0.0
C1037 C 0.786 0.22659 0.97419 0.0
C1038 C 0.77712 0.2167 0.03091 0.0
C1039 C 0.77068 0.1909 0.1087 0.0
C1040 C 0.77316 0.17515 0.12906 0.0
C1041 C 0.77959 0.20106 0.05215 0.0
C1042 C 0.78496 0.16993 0.09305 0.0
C1043 C 0.79384 0.17993 0.03691 0.0
H1044 H 0.43425 0.2359 0.416 0.0
H1045 H 0.39121 0.18839 0.29962 0.0
H1046 H 0.3833 0.1654 0.38757 0.0
H1047 H 0.38663 0.15928 0.50005 0.0
H1048 H 0.43009 0.20629 0.61647 0.0
H1049 H 0.43973 0.22901 0.52631 0.0
C1050 C 0.42345 0.22044 0.40962 0.0
C1051 C 0.41322 0.21389 0.35175 0.0
C1052 C 0.41877 0.20729 0.46071 0.0
C1053 C 0.39921 0.19382 0.34399 0.0
C1054 C 0.39458 0.18067 0.39432 0.0
C1055 C 0.39819 0.17451 0.50551 0.0
C1056 C 0.40744 0.18125 0.56465 0.0
C1057 C 0.40386 0.18735 0.45337 0.0
C1058 C 0.42268 0.20087 0.57117 0.0
C1059 C 0.42823 0.21384 0.51971 0.0
H1060 H 0.7783 0.21702 0.62636 0.0
H1061 H 0.82682 0.20569 0.61872 0.0
H1062 H 0.81327 0.18622 0.52203 0.0
H1063 H 0.78813 0.17292 0.43912 0.0
H1064 H 0.73917 0.18352 0.44602 0.0
H1065 H 0.75251 0.20296 0.54363 0.0
C1066 C 0.78582 0.21018 0.60369 0.0
C1067 C 0.80353 0.21278 0.62957 0.0
C1068 C 0.77799 0.19905 0.54789 0.0
C1069 C 0.81316 0.20388 0.59974 0.0
C1070 C 0.80546 0.1928 0.54437 0.0
C1071 C 0.7804 0.17956 0.46175 0.0
C1072 C 0.76278 0.17694 0.43528 0.0
C1073 C 0.788 0.19043 0.51785 0.0
C1074 C 0.75282 0.18543 0.46548 0.0
C1075 C 0.76041 0.19648 0.52127 0.0
H1076 H 0.81058 0.58243 0.69536 0.0
H1077 H 0.75165 0.54684 0.62266 0.0
H1078 H 0.76442 0.53792 0.52952 0.0
H1079 H 0.79284 0.54525 0.46114 0.0
H1080 H 0.85169 0.57995 0.53635 0.0
H1081 H 0.83846 0.5836 0.63732 0.0
C1082 C 0.80058 0.57234 0.65974 0.0
C1083 C 0.78035 0.56552 0.66465 0.0
C1084 C 0.808 0.56715 0.60697 0.0
C1085 C 0.76734 0.55226 0.61924 0.0
C1086 C 0.77463 0.54725 0.566 0.0
C1087 C 0.8027 0.55302 0.50043 0.0
C1088 C 0.82318 0.56269 0.49095 0.0
C1089 C 0.795 0.55527 0.55817 0.0
C1090 C 0.83585 0.57249 0.54235 0.0
C1091 C 0.82831 0.57478 0.59993 0.0
H1092 H 0.53076 0.06265 0.78328 0.0
H1093 H 0.58593 0.11012 0.71325 0.0
H1094 H 0.56927 0.11227 0.61709 0.0
H1095 H 0.53946 0.09851 0.5496 0.0
H1096 H 0.48516 0.04958 0.61922 0.0
H1097 H 0.50115 0.0501 0.7194 0.0
C1098 C 0.53917 0.07363 0.74736 0.0
C1099 C 0.55954 0.08612 0.75494 0.0
C1100 C 0.52968 0.07435 0.69204 0.0
C1101 C 0.5702 0.10033 0.70824 0.0
C1102 C 0.56071 0.10148 0.65326 0.0
C1103 C 0.53113 0.0881 0.58702 0.0
C1104 C 0.51123 0.07393 0.57713 0.0
C1105 C 0.54053 0.08824 0.64407 0.0
C1106 C 0.50055 0.0605 0.6257 0.0
C1107 C 0.50965 0.06081 0.68294 0.0
H1108 H 0.93724 0.4411 0.62997 0.0
H1109 H 0.88092 0.43336 0.57276 0.0
H1110 H 0.88177 0.45399 0.66146 0.0
H1111 H 0.89919 0.47529 0.75302 0.0
H1112 H 0.9554 0.48261 0.80999 0.0
H1113 H 0.95391 0.46111 0.72366 0.0
C1114 C 0.92511 0.44382 0.63721 0.0
C1115 C 0.90912 0.43582 0.5949 0.0
C1116 C 0.92571 0.45571 0.68803 0.0
C1117 C 0.89343 0.4394 0.60484 0.0
C1118 C 0.89391 0.45123 0.65538 0.0
C1119 C 0.91105 0.47212 0.74649 0.0
C1120 C 0.92739 0.48057 0.78749 0.0
C1121 C 0.91009 0.45965 0.69685 0.0
C1122 C 0.94264 0.47627 0.77892 0.0
C1123 C 0.94184 0.46399 0.72958 0.0
H1124 H 0.58118 0.47189 0.55564 0.0
H1125 H 0.56352 0.51522 0.58979 0.0
H1126 H 0.54778 0.49891 0.68928 0.0
H1127 H 0.53887 0.4725 0.76576 0.0
H1128 H 0.55491 0.42801 0.7317 0.0
H1129 H 0.57174 0.4448 0.633 0.0
C1130 C 0.57383 0.47769 0.58483 0.0
C1131 C 0.57349 0.49472 0.56539 0.0
C1132 C 0.56471 0.46818 0.64204 0.0
C1133 C 0.56392 0.5021 0.60359 0.0
C1134 C 0.55499 0.49284 0.66059 0.0
C1135 C 0.5462 0.46653 0.73717 0.0
C1136 C 0.54581 0.44914 0.75619 0.0
C1137 C 0.55534 0.47593 0.68025 0.0
C1138 C 0.55514 0.44147 0.71815 0.0
C1139 C 0.56467 0.45101 0.66169 0.0
H1140 H 0.60667 0.84182 0.44925 0.0
H1141 H 0.55566 0.79704 0.34999 0.0
H1142 H 0.54855 0.77422 0.43853 0.0
H1143 H 0.55778 0.76652 0.54259 0.0
H1144 H 0.60893 0.81169 0.64066 0.0
H1145 H 0.61488 0.83478 0.55466 0.0
C1146 C 0.59398 0.82709 0.44713 0.0
C1147 C 0.58182 0.82107 0.39316 0.0
C1148 C 0.58996 0.81408 0.49809 0.0
C1149 C 0.5653 0.80199 0.39113 0.0
C1150 C 0.56122 0.78892 0.44169 0.0
C1151 C 0.57008 0.78148 0.54528 0.0
C1152 C 0.58294 0.78733 0.59762 0.0
C1153 C 0.57356 0.79474 0.49523 0.0
C1154 C 0.59885 0.80676 0.60061 0.0
C1155 C 0.60232 0.82 0.55142 0.0
H1156 H 0.24245 0.82282 0.55558 0.0
H1157 H 0.19021 0.81714 0.64468 0.0
H1158 H 0.17028 0.79779 0.5546 0.0
H1159 H 0.16764 0.78279 0.44972 0.0
H1160 H 0.21959 0.78759 0.36149 0.0
H1161 H 0.23965 0.80701 0.45163 0.0
C1162 C 0.22669 0.81723 0.55536 0.0
C1163 C 0.21784 0.82141 0.60668 0.0
C1164 C 0.21526 0.80606 0.50335 0.0
C1165 C 0.1974 0.8141 0.60579 0.0
C1166 C 0.18597 0.80308 0.5542 0.0
C1167 C 0.18337 0.78817 0.45018 0.0
C1168 C 0.19214 0.78388 0.39901 0.0
C1169 C 0.19476 0.79908 0.50254 0.0
C1170 C 0.21249 0.79074 0.40043 0.0
C1171 C 0.22398 0.80182 0.45195 0.0
H1172 H 0.2059 0.41163 0.58358 0.0
H1173 H 0.1855 0.45061 0.51893 0.0
H1174 H 0.20238 0.45465 0.41652 0.0
H1175 H 0.22237 0.44619 0.34513 0.0
H1176 H 0.24079 0.40575 0.41198 0.0
H1177 H 0.22504 0.40309 0.51415 0.0
C1178 C 0.20521 0.42116 0.54739 0.0
C1179 C 0.19459 0.43091 0.55874 0.0
C1180 C 0.21446 0.42299 0.48899 0.0
C1181 C 0.19369 0.44302 0.51116 0.0
C1182 C 0.20327 0.44526 0.45272 0.0
C1183 C 0.22289 0.43682 0.38219 0.0
C1184 C 0.23268 0.42616 0.37112 0.0
C1185 C 0.21358 0.43517 0.44099 0.0
C1186 C 0.23325 0.41402 0.41926 0.0
C1187 C 0.22431 0.41253 0.47777 0.0
H1188 H 0.43842 0.86637 0.46467 0.0
H1189 H 0.44796 0.92464 0.50229 0.0
H1190 H 0.42343 0.91988 0.42157 0.0
H1191 H 0.40274 0.90095 0.33175 0.0
H1192 H 0.39702 0.84485 0.28355 0.0
H1193 H 0.41603 0.84652 0.37856 0.0
C1194 C 0.43488 0.87789 0.45589 0.0
C1195 C 0.44501 0.89587 0.489 0.0
C1196 C 0.42131 0.8753 0.40795 0.0
C1197 C 0.44043 0.91075 0.47696 0.0
C1198 C 0.42638 0.908 0.43102 0.0
C1199 C 0.40502 0.88874 0.34348 0.0
C1200 C 0.39824 0.8726 0.30171 0.0
C1201 C 0.41713 0.89054 0.39517 0.0
C1202 C 0.40186 0.85721 0.31587 0.0
C1203 C 0.41292 0.85832 0.36959 0.0
H1204 H 0.05642 0.55151 0.36507 0.0
H1205 H 0.10289 0.54575 0.45407 0.0
H1206 H 0.10354 0.52646 0.36319 0.0
H1207 H 0.09017 0.51051 0.25935 0.0
H1208 H 0.04424 0.51731 0.17036 0.0
H1209 H 0.04426 0.53706 0.25998 0.0
C1210 C 0.06666 0.546 0.36459 0.0
C1211 C 0.07945 0.54986 0.41623 0.0
C1212 C 0.06712 0.53519 0.31205 0.0
C1213 C 0.09285 0.54289 0.41475 0.0
C1214 C 0.09323 0.53188 0.36286 0.0
C1215 C 0.0803 0.51647 0.25945 0.0
C1216 C 0.06719 0.5124 0.20845 0.0
C1217 C 0.08036 0.52786 0.31131 0.0
C1218 C 0.05449 0.52022 0.20908 0.0
C1219 C 0.05442 0.53147 0.2604 0.0
H1220 H 0.44781 0.49708 0.36322 0.0
H1221 H 0.44328 0.54354 0.45805 0.0
H1222 H 0.45805 0.56507 0.36617 0.0
H1223 H 0.47306 0.57101 0.25986 0.0
H1224 H 0.47719 0.52438 0.16453 0.0
H1225 H 0.4615 0.50255 0.255 0.0
C1226 C 0.45015 0.51195 0.36374 0.0
C1227 C 0.44466 0.51879 0.41733 0.0
C1228 C 0.4584 0.52417 0.31043 0.0
C1229 C 0.44748 0.53797 0.41725 0.0
C1230 C 0.45588 0.55029 0.36473 0.0
C1231 C 0.47028 0.55599 0.25862 0.0
C1232 C 0.47629 0.54934 0.20575 0.0
C1233 C 0.46143 0.54355 0.31109 0.0
C1234 C 0.47269 0.52986 0.20479 0.0
C1235 C 0.46381 0.51738 0.25661 0.0
H1236 H 0.05148 0.52663 0.70093 0.0
H1237 H 0.1111 0.57088 0.74786 0.0
H1238 H 0.10992 0.5522 0.84294 0.0
H1239 H 0.09144 0.52396 0.91427 0.0
H1240 H 0.03156 0.48021 0.86791 0.0
H1241 H 0.03334 0.49815 0.77056 0.0
C1242 C 0.06429 0.53214 0.73167 0.0
C1243 C 0.08137 0.5501 0.71752 0.0
C1244 C 0.0634 0.5215 0.78634 0.0
C1245 C 0.09781 0.55708 0.75783 0.0
C1246 C 0.09711 0.54644 0.81218 0.0
C1247 C 0.07879 0.51832 0.88276 0.0
C1248 C 0.06136 0.50083 0.89825 0.0
C1249 C 0.0799 0.52875 0.82719 0.0
C1250 C 0.04512 0.49367 0.85702 0.0
C1251 C 0.04613 0.5039 0.80141 0.0
H1252 H 0.4622 0.55805 0.91841 0.0
H1253 H 0.51549 0.55758 0.86972 0.0
H1254 H 0.49986 0.53897 0.77262 0.0
H1255 H 0.47085 0.52212 0.70388 0.0
H1256 H 0.41716 0.52154 0.75431 0.0
H1257 H 0.43326 0.54149 0.84886 0.0
C1258 C 0.47043 0.55395 0.88641 0.0
C1259 C 0.48995 0.55915 0.90108 0.0
C1260 C 0.4613 0.54312 0.83129 0.0
C1261 C 0.50042 0.5537 0.85939 0.0
C1262 C 0.49151 0.54309 0.80397 0.0
C1263 C 0.46269 0.52646 0.7353 0.0
C1264 C 0.44286 0.52042 0.72223 0.0
C1265 C 0.47193 0.53762 0.78976 0.0
C1266 C 0.43245 0.52604 0.76349 0.0
C1267 C 0.44163 0.53741 0.81748 0.0
H1268 H 0.47938 0.92052 0.80567 0.0
H1269 H 0.44797 0.85774 0.7755 0.0
H1270 H 0.43128 0.85293 0.87889 0.0
H1271 H 0.42322 0.86734 0.97159 0.0
H1272 H 0.45524 0.93045 -0.0017 0.0
H1273 H 0.47438 0.93441 0.90258 0.0
C1274 C 0.46898 0.90575 0.82209 0.0
C1275 C 0.4645 0.8895 0.78318 0.0
C1276 C 0.45959 0.90323 0.88063 0.0
C1277 C 0.45146 0.87042 0.80503 0.0
C1278 C 0.44191 0.86773 0.86377 0.0
C1279 C 0.43462 0.8819 0.95691 0.0
C1280 C 0.43762 0.89861 0.99127 0.0
C1281 C 0.44548 0.88411 0.90114 0.0
C1282 C 0.4525 0.91739 0.97218 0.0
C1283 C 0.46344 0.91968 0.91742 0.0
H1284 H 0.20872 0.45484 0.88929 0.0
H1285 H 0.21055 0.40342 0.82543 0.0
H1286 H 0.23676 0.41031 0.90172 0.0
H1287 H 0.25602 0.42842 0.99428 0.0
H1288 H 0.25084 0.47689 0.06919 0.0
H1289 H 0.22962 0.47425 0.97939 0.0
C1290 C 0.21506 0.44531 0.89175 0.0
C1291 C 0.20769 0.42857 0.85247 0.0
C1292 C 0.22963 0.44899 0.9372 0.0
C1293 C 0.21587 0.41625 0.85595 0.0
C1294 C 0.2309 0.42024 0.89922 0.0
C1295 C 0.2508 0.43886 0.98976 0.0
C1296 C 0.25509 0.45297 0.03761 0.0
C1297 C 0.23754 0.43628 0.94104 0.0
C1298 C 0.24784 0.46606 0.03229 0.0
C1299 C 0.23554 0.46437 0.98152 0.0
H1300 H 0.6045 0.78462 0.93235 0.0
H1301 H 0.5533 0.78328 0.85093 0.0
H1302 H 0.55222 0.80293 0.93982 0.0
H1303 H 0.56596 0.82055 0.04096 0.0
H1304 H 0.61644 0.82052 0.12333 0.0
H1305 H 0.61761 0.80132 0.03394 0.0
C1306 C 0.59315 0.7887 0.93402 0.0
C1307 C 0.57908 0.78265 0.88529 0.0
C1308 C 0.59244 0.79969 0.98552 0.0
C1309 C 0.56431 0.78781 0.88815 0.0
C1310 C 0.56368 0.79903 0.93886 0.0
C1311 C 0.57716 0.81628 0.03923 0.0
C1312 C 0.59107 0.82192 0.08849 0.0
C1313 C 0.57767 0.80505 0.98788 0.0
C1314 C 0.60549 0.81627 0.086 0.0
C1315 C 0.60624 0.80534 0.03486 0.0
H1316 H 0.23052 0.8079 0.90349 0.0
H1317 H 0.21433 0.8517 0.94886 0.0
H1318 H 0.19813 0.83385 0.04631 0.0
H1319 H 0.18772 0.80539 0.11623 0.0
H1320 H 0.20347 0.76129 0.07063 0.0
H1321 H 0.22094 0.77986 0.97544 0.0
C1322 C 0.22347 0.81355 0.93476 0.0
C1323 C 0.22349 0.83101 0.91895 0.0
C1324 C 0.21419 0.80323 0.99048 0.0
C1325 C 0.21442 0.83824 0.95999 0.0
C1326 C 0.20518 0.82807 0.01565 0.0
C1327 C 0.19509 0.79989 0.08572 0.0
C1328 C 0.19429 0.78199 0.10022 0.0
C1329 C 0.20487 0.81049 0.03104 0.0
C1330 C 0.2039 0.77505 0.06036 0.0
C1331 C 0.21382 0.78562 0.00592 0.0
H1332 H 0.35465 0.10546 0.8945 0.0
H1333 H 0.32122 0.09609 0.72173 0.0
H1334 H 0.29049 0.07882 0.78216 0.0
H1335 H 0.27349 0.07007 0.88521 0.0
H1336 H 0.30711 0.08231 0.05891 0.0
H1337 H 0.33747 0.09457 0.99698 0.0
C1338 C 0.34063 0.09929 0.8699 0.0
C1339 C 0.34016 0.10207 0.80384 0.0
C1340 C 0.3231 0.09005 0.90524 0.0
C1341 C 0.32192 0.09417 0.77262 0.0
C1342 C 0.30437 0.08436 0.80716 0.0
C1343 C 0.28742 0.07504 0.90947 0.0
C1344 C 0.28812 0.07534 0.97647 0.0
C1345 C 0.30482 0.08274 0.87368 0.0
C1346 C 0.30626 0.082 0.00734 0.0
C1347 C 0.3236 0.08906 0.97197 0.0
H1348 H 0.90394 0.24009 0.06221 0.0
H1349 H 0.93028 0.22732 0.90199 0.0
H1350 H 0.91756 0.24269 0.82984 0.0
H1351 H 0.89376 0.25386 0.81071 0.0
H1352 H 0.86752 0.26686 0.97057 0.0
H1353 H 0.88571 0.25774 0.04443 0.0
C1354 C 0.90733 0.24117 0.01173 0.0
C1355 C 0.91764 0.23222 0.98727 0.0
C1356 C 0.8998 0.24988 0.97033 0.0
C1357 C 0.92221 0.23395 0.92195 0.0
C1358 C 0.91483 0.24263 0.88052 0.0
C1359 C 0.8925 0.25525 0.86173 0.0
C1360 C 0.87909 0.26064 0.88526 0.0
C1361 C 0.90282 0.24976 0.90387 0.0
C1362 C 0.87772 0.26265 0.95135 0.0
C1363 C 0.88798 0.25727 0.99364 0.0
H1364 H 0.80701 0.65819 0.81862 0.0
H1365 H 0.74781 0.64312 0.86999 0.0
H1366 H 0.76025 0.67511 0.92187 0.0
H1367 H 0.788 0.70683 0.95586 0.0
H1368 H 0.84736 0.72155 0.90799 0.0
H1369 H 0.83484 0.69012 0.85218 0.0
C1370 C 0.79683 0.66205 0.84036 0.0
C1371 C 0.77652 0.64842 0.84012 0.0
C1372 C 0.80414 0.68025 0.87158 0.0
C1373 C 0.76351 0.65344 0.86938 0.0
C1374 C 0.77061 0.67167 0.89931 0.0
C1375 C 0.79821 0.70313 0.93343 0.0
C1376 C 0.81858 0.71644 0.93632 0.0
C1377 C 0.79091 0.68507 0.90145 0.0
C1378 C 0.83161 0.71148 0.9068 0.0
C1379 C 0.82446 0.69356 0.87461 0.0
H1380 H 0.13108 0.36904 0.55962 0.0
H1381 H 0.11534 0.344 0.74812 0.0
H1382 H 0.09911 0.31077 0.70263 0.0
H1383 H 0.0911 0.28901 0.60987 0.0
H1384 H 0.10923 0.31399 0.42203 0.0
H1385 H 0.12298 0.3472 0.4666 0.0
C1386 C 0.12381 0.35629 0.59058 0.0
C1387 C 0.12419 0.35887 0.657 0.0
C1388 C 0.1152 0.3373 0.56424 0.0
C1389 C 0.11511 0.3423 0.69681 0.0
C1390 C 0.10592 0.32334 0.67086 0.0
C1391 C 0.09797 0.30173 0.57865 0.0
C1392 C 0.09916 0.29913 0.51281 0.0
C1393 C 0.10616 0.32069 0.60475 0.0
C1394 C 0.10825 0.31569 0.47292 0.0
C1395 C 0.11603 0.33463 0.49835 0.0
H1396 H 0.66693 0.75713 0.45887 0.0
H1397 H 0.70545 0.77087 0.62108 0.0
H1398 H 0.67729 0.75865 0.69311 0.0
H1399 H 0.64258 0.74926 0.70985 0.0
H1400 H 0.60399 0.73489 0.5475 0.0
H1401 H 0.63121 0.74183 0.47573 0.0
C1402 C 0.66906 0.75695 0.50991 0.0
C1403 C 0.6882 0.76516 0.53474 0.0
C1404 C 0.65283 0.75002 0.55106 0.0
C1405 C 0.69082 0.76467 0.60085 0.0
C1406 C 0.67475 0.75783 0.64213 0.0
C1407 C 0.64008 0.74722 0.65885 0.0
C1408 C 0.62145 0.74193 0.63386 0.0
C1409 C 0.65581 0.75128 0.61781 0.0
C1410 C 0.61825 0.73905 0.56783 0.0
C1411 C 0.63384 0.74314 0.5267 0.0
H1412 H 0.1987 0.92434 0.57978 0.0
H1413 H 0.21134 0.90203 0.40886 0.0
H1414 H 0.23514 0.89649 0.46712 0.0
H1415 H 0.24804 0.89299 0.56936 0.0
H1416 H 0.23244 0.91167 0.74249 0.0
H1417 H 0.21448 0.92409 0.68064 0.0
C1418 C 0.20703 0.91871 0.55502 0.0
C1419 C 0.2032 0.91343 0.49037 0.0
C1420 C 0.22004 0.9148 0.58942 0.0
C1421 C 0.21396 0.90604 0.45881 0.0
C1422 C 0.22752 0.90284 0.4921 0.0
C1423 C 0.24119 0.9003 0.59341 0.0
C1424 C 0.24144 0.90133 0.66032 0.0
C1425 C 0.23008 0.90644 0.55789 0.0
C1426 C 0.23237 0.91067 0.69097 0.0
C1427 C 0.222 0.91764 0.65566 0.0
H1428 H 0.71692 0.92234 0.10486 0.0
H1429 H 0.68821 0.90867 0.92133 0.0
H1430 H 0.65701 0.9007 0.97224 0.0
H1431 H 0.63727 0.89366 0.06953 0.0
H1432 H 0.66548 0.90445 0.25342 0.0
H1433 H 0.69763 0.91788 0.20175 0.0
C1434 C 0.70391 0.91795 0.07587 0.0
C1435 C 0.7048 0.91595 0.00949 0.0
C1436 C 0.68595 0.9128 0.10564 0.0
C1437 C 0.68784 0.9102 0.97256 0.0
C1438 C 0.67001 0.90561 0.00166 0.0
C1439 C 0.6505 0.89939 0.09832 0.0
C1440 C 0.64904 0.89805 0.16517 0.0
C1441 C 0.66878 0.9063 0.06828 0.0
C1442 C 0.66627 0.90532 0.20188 0.0
C1443 C 0.68462 0.91289 0.17235 0.0
H1444 H 0.09755 0.75203 0.21536 0.0
H1445 H 0.11876 0.73008 0.06426 0.0
H1446 H 0.09826 0.7349 0.98734 0.0
H1447 H 0.07786 0.74966 0.96063 0.0
H1448 H 0.05563 0.77048 0.112 0.0
H1449 H 0.07255 0.76143 0.19092 0.0
C1450 C 0.09735 0.74794 0.16584 0.0
C1451 C 0.10987 0.74101 0.14543 0.0
C1452 C 0.08541 0.75065 0.12166 0.0
C1453 C 0.10932 0.73554 0.08124 0.0
C1454 C 0.09765 0.73837 0.03703 0.0
C1455 C 0.07632 0.75174 0.011 0.0
C1456 C 0.06573 0.76095 0.03028 0.0
C1457 C 0.08615 0.74654 0.05631 0.0
C1458 C 0.06372 0.76343 0.09578 0.0
C1459 C 0.07354 0.75841 0.14104 0.0
H1460 H 0.25642 0.37492 0.08359 0.0
H1461 H 0.20269 0.37302 0.14237 0.0
H1462 H 0.18327 0.34177 0.0868 0.0
H1463 H 0.18144 0.31467 0.02388 0.0
H1464 H 0.23485 0.31584 0.96601 0.0
H1465 H 0.25453 0.34784 0.01816 0.0
C1466 C 0.24047 0.36763 0.08428 0.0
C1467 C 0.23101 0.37621 0.11732 0.0
C1468 C 0.22934 0.34963 0.05206 0.0
C1469 C 0.21033 0.36667 0.11751 0.0
C1470 C 0.1992 0.34883 0.08562 0.0
C1471 C 0.19739 0.32201 0.02207 0.0
C1472 C 0.20668 0.31295 0.99104 0.0
C1473 C 0.20855 0.34017 0.05292 0.0
C1474 C 0.22735 0.32258 0.98945 0.0
C1475 C 0.23861 0.34081 0.0195 0.0
H1476 H 0.84676 0.64141 0.41423 0.0
H1477 H 0.90373 0.65044 0.35873 0.0
H1478 H 0.91938 0.68442 0.39699 0.0
H1479 H 0.91679 0.7117 0.44409 0.0
H1480 H 0.85983 0.70279 0.49896 0.0
H1481 H 0.84425 0.66854 0.46327 0.0
C1482 C 0.8626 0.65081 0.4106 0.0
C1483 C 0.87407 0.64347 0.38354 0.0
C1484 C 0.87149 0.67031 0.43258 0.0
C1485 C 0.89458 0.65578 0.3793 0.0
C1486 C 0.90354 0.6752 0.40114 0.0
C1487 C 0.90099 0.70224 0.4485 0.0
C1488 C 0.88947 0.70975 0.47402 0.0
C1489 C 0.89213 0.68264 0.4276 0.0
C1490 C 0.86901 0.69733 0.47942 0.0
C1491 C 0.86008 0.67777 0.45897 0.0
H1492 H 0.32612 0.22748 0.52996 0.0
H1493 H 0.28411 0.21359 0.378 0.0
H1494 H 0.31081 0.22823 0.30025 0.0
H1495 H 0.34587 0.2415 0.2742 0.0
H1496 H 0.3879 0.25635 0.4268 0.0
H1497 H 0.36153 0.24509 0.50532 0.0
C1498 C 0.32287 0.228 0.47997 0.0
C1499 C 0.30321 0.21928 0.45965 0.0
C1500 C 0.3383 0.23648 0.43547 0.0
C1501 C 0.29916 0.2202 0.39485 0.0
C1502 C 0.31441 0.22847 0.35024 0.0
C1503 C 0.34926 0.24258 0.32468 0.0
C1504 C 0.36874 0.24951 0.34458 0.0
C1505 C 0.334 0.23612 0.36979 0.0
C1506 C 0.37299 0.25103 0.41017 0.0
C1507 C 0.35791 0.2445 0.4552 0.0
H1508 H 0.76871 0.07547 0.55563 0.0
H1509 H 0.79212 0.05918 0.39552 0.0
H1510 H 0.77422 0.06868 0.32191 0.0
H1511 H 0.75655 0.08686 0.30332 0.0
H1512 H 0.73222 0.10211 0.46336 0.0
H1513 H 0.7455 0.08747 0.53656 0.0
C1514 C 0.76943 0.07351 0.50469 0.0
C1515 C 0.78193 0.06697 0.48096 0.0
C1516 C 0.75912 0.07903 0.46256 0.0
C1517 C 0.78261 0.06425 0.41495 0.0
C1518 C 0.7725 0.06983 0.37274 0.0
C1519 C 0.75375 0.0865 0.35408 0.0
C1520 C 0.74375 0.09582 0.37805 0.0
C1521 C 0.76142 0.07804 0.39598 0.0
C1522 C 0.73996 0.09507 0.44379 0.0
C1523 C 0.74766 0.08683 0.48577 0.0
H1524 H 0.94269 0.40132 0.2478 0.0
H1525 H 0.97774 0.41898 0.41942 0.0
H1526 H 0.00757 0.42933 0.3563 0.0
H1527 H 0.0239 0.43741 0.252 0.0
H1528 H 0.98896 0.42238 0.08038 0.0
H1529 H 0.95878 0.40667 0.14386 0.0
C1530 C 0.95681 0.40706 0.27153 0.0
C1531 C 0.95807 0.40954 0.33809 0.0
C1532 C 0.9739 0.4136 0.23483 0.0
C1533 C 0.97644 0.41704 0.36818 0.0
C1534 C 0.99349 0.42301 0.3321 0.0
C1535 C 0.00967 0.43031 0.22844 0.0
C1536 C 0.00861 0.43114 0.16169 0.0
C1537 C 0.99245 0.42197 0.26531 0.0
C1538 C 0.99012 0.422 0.13176 0.0
C1539 C 0.97288 0.41309 0.16803 0.0
H1540 H 0.57361 0.58482 0.11471 0.0
H1541 H 0.54662 0.59904 0.26968 0.0
H1542 H 0.56502 0.59131 0.34676 0.0
H1543 H 0.58488 0.57581 0.37006 0.0
H1544 H 0.61233 0.56201 0.21563 0.0
H1545 H 0.59802 0.57465 0.13864 0.0
C1546 C 0.57209 0.58661 0.16531 0.0
C1547 C 0.55854 0.59214 0.18649 0.0
C1548 C 0.5827 0.58209 0.20955 0.0
C1549 C 0.55687 0.59466 0.25213 0.0
C1550 C 0.56733 0.59016 0.29635 0.0
C1551 C 0.58811 0.57603 0.31967 0.0
C1552 C 0.59936 0.56774 0.29845 0.0
C1553 C 0.57971 0.58316 0.27563 0.0
C1554 C 0.60364 0.56828 0.23314 0.0
C1555 C 0.59534 0.57536 0.18899 0.0
H1556 H 0.40747 0.96039 0.18056 0.0
H1557 H 0.43993 0.93891 0.2875 0.0
H1558 H 0.45515 0.96894 0.3514 0.0
H1559 H 0.46046 0.00179 0.37351 0.0
H1560 H 0.43013 0.02478 0.26254 0.0
H1561 H 0.41268 0.99362 0.20382 0.0
C1562 C 0.41782 0.96233 0.21806 0.0
C1563 C 0.42271 0.94761 0.22917 0.0
C1564 C 0.42686 0.97984 0.2538 0.0
C1565 C 0.43616 0.9502 0.27764 0.0
C1566 C 0.4448 0.96731 0.31435 0.0
C1567 C 0.44985 -9e-05 0.33701 0.0
C1568 C 0.44648 0.01546 0.32249 0.0
C1569 C 0.44042 0.98229 0.30238 0.0
C1570 C 0.43291 0.01294 0.27455 0.0
C1571 C 0.42299 0.99517 0.24091 0.0
H1572 H 0.5645 0.00133 0.87222 0.0
H1573 H 0.5818 0.03945 0.70805 0.0
H1574 H 0.56612 0.01087 0.63743 0.0
H1575 H 0.54442 0.97503 0.62331 0.0
H1576 H 0.52905 0.93688 0.78697 0.0
H1577 H 0.54715 0.96536 0.85666 0.0
C1578 C 0.56512 0.00331 0.82092 0.0
C1579 C 0.57409 0.02239 0.79533 0.0
C1580 C 0.55629 0.98681 0.78052 0.0
C1581 C 0.575 0.02485 0.72882 0.0
C1582 C 0.56592 0.00853 0.6884 0.0
C1583 C 0.54536 0.97301 0.67408 0.0
C1584 C 0.53533 0.95399 0.70013 0.0
C1585 C 0.55606 0.98944 0.71382 0.0
C1586 C 0.53675 0.95144 0.76585 0.0
C1587 C 0.54699 0.96771 0.80581 0.0
H1588 H 0.04793 0.59244 0.74707 0.0
H1589 H 0.01127 0.57391 0.5791 0.0
H1590 H 0.98202 0.56376 0.64523 0.0
H1591 H 0.96666 0.55569 0.75106 0.0
H1592 H 0.00314 0.57064 0.919 0.0
H1593 H 0.03275 0.58693 0.85277 0.0
C1594 C 0.03359 0.58664 0.72481 0.0
C1595 C 0.0317 0.58387 0.65836 0.0
C1596 C 0.01682 0.58 0.76331 0.0
C1597 C 0.01304 0.57613 0.63018 0.0
C1598 C 0.99633 0.57025 0.668 0.0
C1599 C 0.9811 0.56295 0.77325 0.0
C1600 C 0.98277 0.56196 0.83975 0.0
C1601 C -0.00201 0.57145 0.73471 0.0
C1602 C 0.00153 0.5712 0.86788 0.0
C1603 C 0.01844 0.58043 0.83001 0.0
H1604 H 0.44001 0.43552 0.60368 0.0
H1605 H 0.41036 0.44647 0.75813 0.0
H1606 H 0.42439 0.4334 0.83436 0.0
H1607 H 0.44871 0.4232 0.8585 0.0
H1608 H 0.47748 0.41109 0.70415 0.0
H1609 H 0.46 0.41998 0.62658 0.0
C1610 C 0.4363 0.43463 0.65385 0.0
C1611 C 0.42443 0.4422 0.67536 0.0
C1612 C 0.44441 0.42707 0.69756 0.0
C1613 C 0.41953 0.44077 0.74037 0.0
C1614 C 0.42764 0.43342 0.78413 0.0
C1615 C 0.45081 0.42213 0.80784 0.0
C1616 C 0.46451 0.41678 0.78699 0.0
C1617 C 0.44066 0.4272 0.76351 0.0
C1618 C 0.46698 0.4152 0.7213 0.0
C1619 C 0.4571 0.42041 0.67691 0.0
loop_
_geom_bond_atom_site_label_1
_geom_bond_atom_site_label_2
_geom_bond_distance
_geom_bond_site_symmetry_2
_ccdc_geom_bond_type
In0 O1 2.294 . S
In0 O2 2.326 . S
In0 O6 2.266 . S
In0 O7 2.326 1_554 S
In0 O8 2.266 1_554 S
In0 O9 2.326 . S
In0 O11 2.294 . S
In0 O12 2.326 . S
O1 In0 2.294 . S
O1 C10 1.240 . S
O2 In0 2.326 . S
O2 C10 1.252 . S
C3 O6 1.252 . S
C3 O7 1.260 1_554 S
C4 O11 1.240 . S
C4 O12 1.252 . S
C5 O8 1.252 . S
C5 O9 1.260 1_556 S
O6 In0 2.266 . S
O6 C3 1.252 . S
O7 In0 2.326 1_556 S
O7 C3 1.260 1_556 S
O8 In0 2.266 1_556 S
O8 C5 1.252 . S
O9 In0 2.326 . S
O9 C5 1.260 1_554 S
C10 O1 1.240 . S
C10 O2 1.252 . S
O11 In0 2.294 . S
O11 C4 1.240 . S
O12 In0 2.326 . S
O12 C4 1.252 . S
In13 O14 2.294 . S
In13 O15 2.326 . S
In13 O19 2.266 . S
In13 O20 2.326 1_554 S
In13 O21 2.266 1_554 S
In13 O22 2.326 . S
In13 O24 2.294 . S
In13 O25 2.326 . S
O14 In13 2.294 . S
O14 C23 1.240 . S
O15 In13 2.326 . S
O15 C23 1.252 . S
C16 O19 1.252 . S
C16 O20 1.260 1_554 S
C17 O24 1.240 . S
C17 O25 1.252 . S
C18 O21 1.252 . S
C18 O22 1.260 1_556 S
O19 In13 2.266 . S
O19 C16 1.252 . S
O20 In13 2.326 1_556 S
O20 C16 1.260 1_556 S
O21 In13 2.266 1_556 S
O21 C18 1.252 . S
O22 In13 2.326 . S
O22 C18 1.260 1_554 S
C23 O14 1.240 . S
C23 O15 1.252 . S
O24 In13 2.294 . S
O24 C17 1.240 . S
O25 In13 2.326 . S
O25 C17 1.252 . S
In26 O27 2.294 . S
In26 O28 2.326 . S
In26 O32 2.266 1_554 S
In26 O33 2.326 . S
In26 O34 2.266 . S
In26 O35 2.326 1_554 S
In26 O37 2.294 . S
In26 O38 2.326 . S
O27 In26 2.294 . S
O27 C36 1.240 . S
O28 In26 2.326 . S
O28 C36 1.252 . S
C29 O32 1.252 . S
C29 O33 1.260 1_556 S
C30 O37 1.240 . S
C30 O38 1.252 . S
C31 O34 1.252 . S
C31 O35 1.260 1_554 S
O32 In26 2.266 1_556 S
O32 C29 1.252 . S
O33 In26 2.326 . S
O33 C29 1.260 1_554 S
O34 In26 2.266 . S
O34 C31 1.252 . S
O35 In26 2.326 1_556 S
O35 C31 1.260 1_556 S
C36 O27 1.240 . S
C36 O28 1.252 . S
O37 In26 2.294 . S
O37 C30 1.240 . S
O38 In26 2.326 . S
O38 C30 1.252 . S
In39 O40 2.294 . S
In39 O41 2.326 . S
In39 O45 2.266 . S
In39 O46 2.326 . S
In39 O47 2.266 . S
In39 O48 2.326 . S
In39 O50 2.294 . S
In39 O51 2.326 . S
O40 In39 2.294 . S
O40 C49 1.240 . S
O41 In39 2.326 . S
O41 C49 1.252 . S
C42 O45 1.252 . S
C42 O46 1.260 . S
C43 O50 1.240 . S
C43 O51 1.252 . S
C44 O47 1.252 . S
C44 O48 1.260 . S
O45 In39 2.266 . S
O45 C42 1.252 . S
O46 In39 2.326 . S
O46 C42 1.260 . S
O47 In39 2.266 . S
O47 C44 1.252 . S
O48 In39 2.326 . S
O48 C44 1.260 . S
C49 O40 1.240 . S
C49 O41 1.252 . S
O50 In39 2.294 . S
O50 C43 1.240 . S
O51 In39 2.326 . S
O51 C43 1.252 . S
In52 O53 2.294 . S
In52 O54 2.326 . S
In52 O58 2.266 . S
In52 O59 2.326 . S
In52 O60 2.266 . S
In52 O61 2.326 . S
In52 O63 2.294 . S
In52 O64 2.326 . S
O53 In52 2.294 . S
O53 C62 1.240 . S
O54 In52 2.326 . S
O54 C62 1.252 . S
C55 O58 1.252 . S
C55 O59 1.260 . S
C56 O63 1.240 . S
C56 O64 1.252 . S
C57 O60 1.252 . S
C57 O61 1.260 . S
O58 In52 2.266 . S
O58 C55 1.252 . S
O59 In52 2.326 . S
O59 C55 1.260 . S
O60 In52 2.266 . S
O60 C57 1.252 . S
O61 In52 2.326 . S
O61 C57 1.260 . S
C62 O53 1.240 . S
C62 O54 1.252 . S
O63 In52 2.294 . S
O63 C56 1.240 . S
O64 In52 2.326 . S
O64 C56 1.252 . S
In65 O66 2.294 . S
In65 O67 2.326 . S
In65 O71 2.266 . S
In65 O72 2.326 . S
In65 O73 2.266 . S
In65 O74 2.326 . S
In65 O76 2.294 . S
In65 O77 2.326 . S
O66 In65 2.294 . S
O66 C75 1.240 . S
O67 In65 2.326 . S
O67 C75 1.252 . S
C68 O71 1.252 . S
C68 O72 1.260 . S
C69 O76 1.240 . S
C69 O77 1.252 . S
C70 O73 1.252 . S
C70 O74 1.260 . S
O71 In65 2.266 . S
O71 C68 1.252 . S
O72 In65 2.326 . S
O72 C68 1.260 . S
O73 In65 2.266 . S
O73 C70 1.252 . S
O74 In65 2.326 . S
O74 C70 1.260 . S
C75 O66 1.240 . S
C75 O67 1.252 . S
O76 In65 2.294 . S
O76 C69 1.240 . S
O77 In65 2.326 . S
O77 C69 1.252 . S
In78 O79 2.294 . S
In78 O80 2.326 . S
In78 O84 2.266 . S
In78 O85 2.326 1_556 S
In78 O86 2.266 1_556 S
In78 O87 2.326 . S
In78 O89 2.294 . S
In78 O90 2.326 . S
O79 In78 2.294 . S
O79 C88 1.240 . S
O80 In78 2.326 . S
O80 C88 1.252 . S
C81 O84 1.252 . S
C81 O85 1.260 1_556 S
C82 O89 1.240 . S
C82 O90 1.252 . S
C83 O86 1.252 . S
C83 O87 1.260 1_554 S
O84 In78 2.266 . S
O84 C81 1.252 . S
O85 In78 2.326 1_554 S
O85 C81 1.260 1_554 S
O86 In78 2.266 1_554 S
O86 C83 1.252 . S
O87 In78 2.326 . S
O87 C83 1.260 1_556 S
C88 O79 1.240 . S
C88 O80 1.252 . S
O89 In78 2.294 . S
O89 C82 1.240 . S
O90 In78 2.326 . S
O90 C82 1.252 . S
In91 O92 2.294 . S
In91 O93 2.326 . S
In91 O97 2.266 . S
In91 O98 2.326 1_556 S
In91 O99 2.266 1_556 S
In91 O100 2.326 . S
In91 O102 2.294 . S
In91 O103 2.326 . S
O92 In91 2.294 . S
O92 C101 1.240 . S
O93 In91 2.326 . S
O93 C101 1.252 . S
C94 O97 1.252 . S
C94 O98 1.260 1_556 S
C95 O102 1.240 . S
C95 O103 1.252 . S
C96 O99 1.252 . S
C96 O100 1.260 1_554 S
O97 In91 2.266 . S
O97 C94 1.252 . S
O98 In91 2.326 1_554 S
O98 C94 1.260 1_554 S
O99 In91 2.266 1_554 S
O99 C96 1.252 . S
O100 In91 2.326 . S
O100 C96 1.260 1_556 S
C101 O92 1.240 . S
C101 O93 1.252 . S
O102 In91 2.294 . S
O102 C95 1.240 . S
O103 In91 2.326 . S
O103 C95 1.252 . S
In104 O105 2.294 . S
In104 O106 2.326 . S
In104 O110 2.266 1_556 S
In104 O111 2.326 . S
In104 O112 2.266 . S
In104 O113 2.326 1_556 S
In104 O115 2.294 . S
In104 O116 2.326 . S
O105 In104 2.294 . S
O105 C114 1.240 . S
O106 In104 2.326 . S
O106 C114 1.252 . S
C107 O110 1.252 . S
C107 O111 1.260 1_554 S
C108 O115 1.240 . S
C108 O116 1.252 . S
C109 O112 1.252 . S
C109 O113 1.260 1_556 S
O110 In104 2.266 1_554 S
O110 C107 1.252 . S
O111 In104 2.326 . S
O111 C107 1.260 1_556 S
O112 In104 2.266 . S
O112 C109 1.252 . S
O113 In104 2.326 1_554 S
O113 C109 1.260 1_554 S
C114 O105 1.240 . S
C114 O106 1.252 . S
O115 In104 2.294 . S
O115 C108 1.240 . S
O116 In104 2.326 . S
O116 C108 1.252 . S
In117 O118 2.294 . S
In117 O119 2.326 . S
In117 O123 2.266 . S
In117 O124 2.326 . S
In117 O125 2.266 . S
In117 O126 2.326 . S
In117 O128 2.294 . S
In117 O129 2.326 . S
O118 In117 2.294 . S
O118 C127 1.240 . S
O119 In117 2.326 . S
O119 C127 1.252 . S
C120 O123 1.252 . S
C120 O124 1.260 . S
C121 O128 1.240 . S
C121 O129 1.252 . S
C122 O125 1.252 . S
C122 O126 1.260 . S
O123 In117 2.266 . S
O123 C120 1.252 . S
O124 In117 2.326 . S
O124 C120 1.260 . S
O125 In117 2.266 . S
O125 C122 1.252 . S
O126 In117 2.326 . S
O126 C122 1.260 . S
C127 O118 1.240 . S
C127 O119 1.252 . S
O128 In117 2.294 . S
O128 C121 1.240 . S
O129 In117 2.326 . S
O129 C121 1.252 . S
In130 O131 2.294 . S
In130 O132 2.326 . S
In130 O136 2.266 . S
In130 O137 2.326 . S
In130 O138 2.266 . S
In130 O139 2.326 . S
In130 O141 2.294 . S
In130 O142 2.326 . S
O131 In130 2.294 . S
O131 C140 1.240 . S
O132 In130 2.326 . S
O132 C140 1.252 . S
C133 O136 1.252 . S
C133 O137 1.260 . S
C134 O141 1.240 . S
C134 O142 1.252 . S
C135 O138 1.252 . S
C135 O139 1.260 . S
O136 In130 2.266 . S
O136 C133 1.252 . S
O137 In130 2.326 . S
O137 C133 1.260 . S
O138 In130 2.266 . S
O138 C135 1.252 . S
O139 In130 2.326 . S
O139 C135 1.260 . S
C140 O131 1.240 . S
C140 O132 1.252 . S
O141 In130 2.294 . S
O141 C134 1.240 . S
O142 In130 2.326 . S
O142 C134 1.252 . S
In143 O144 2.294 . S
In143 O145 2.326 . S
In143 O149 2.266 . S
In143 O150 2.326 . S
In143 O151 2.266 . S
In143 O152 2.326 . S
In143 O154 2.294 . S
In143 O155 2.326 . S
O144 In143 2.294 . S
O144 C153 1.240 . S
O145 In143 2.326 . S
O145 C153 1.252 . S
C146 O149 1.252 . S
C146 O150 1.260 . S
C147 O154 1.240 . S
C147 O155 1.252 . S
C148 O151 1.252 . S
C148 O152 1.260 . S
O149 In143 2.266 . S
O149 C146 1.252 . S
O150 In143 2.326 . S
O150 C146 1.260 . S
O151 In143 2.266 . S
O151 C148 1.252 . S
O152 In143 2.326 . S
O152 C148 1.260 . S
C153 O144 1.240 . S
C153 O145 1.252 . S
O154 In143 2.294 . S
O154 C147 1.240 . S
O155 In143 2.326 . S
O155 C147 1.252 . S
In156 O157 2.294 . S
In156 O158 2.326 . S
In156 O162 2.266 . S
In156 O163 2.326 . S
In156 O164 2.266 . S
In156 O165 2.326 . S
In156 O167 2.294 . S
In156 O168 2.326 . S
O157 In156 2.294 . S
O157 C166 1.240 . S
O158 In156 2.326 . S
O158 C166 1.252 . S
C159 O162 1.252 . S
C159 O163 1.260 . S
C160 O167 1.240 . S
C160 O168 1.252 . S
C161 O164 1.252 . S
C161 O165 1.260 . S
O162 In156 2.266 . S
O162 C159 1.252 . S
O163 In156 2.326 . S
O163 C159 1.260 . S
O164 In156 2.266 . S
O164 C161 1.252 . S
O165 In156 2.326 . S
O165 C161 1.260 . S
C166 O157 1.240 . S
C166 O158 1.252 . S
O167 In156 2.294 . S
O167 C160 1.240 . S
O168 In156 2.326 . S
O168 C160 1.252 . S
In169 O170 2.294 . S
In169 O171 2.326 . S
In169 O175 2.266 . S
In169 O176 2.326 . S
In169 O177 2.266 . S
In169 O178 2.326 . S
In169 O180 2.294 . S
In169 O181 2.326 . S
O170 In169 2.294 . S
O170 C179 1.240 . S
O171 In169 2.326 . S
O171 C179 1.252 . S
C172 O175 1.252 . S
C172 O176 1.260 . S
C173 O180 1.240 . S
C173 O181 1.252 . S
C174 O177 1.252 . S
C174 O178 1.260 . S
O175 In169 2.266 . S
O175 C172 1.252 . S
O176 In169 2.326 . S
O176 C172 1.260 . S
O177 In169 2.266 . S
O177 C174 1.252 . S
O178 In169 2.326 . S
O178 C174 1.260 . S
C179 O170 1.240 . S
C179 O171 1.252 . S
O180 In169 2.294 . S
O180 C173 1.240 . S
O181 In169 2.326 . S
O181 C173 1.252 . S
In182 O183 2.294 . S
In182 O184 2.326 . S
In182 O188 2.266 . S
In182 O189 2.326 . S
In182 O190 2.266 . S
In182 O191 2.326 . S
In182 O193 2.294 . S
In182 O194 2.326 . S
O183 In182 2.294 . S
O183 C192 1.240 . S
O184 In182 2.326 . S
O184 C192 1.252 . S
C185 O188 1.252 . S
C185 O189 1.260 . S
C186 O193 1.240 . S
C186 O194 1.252 . S
C187 O190 1.252 . S
C187 O191 1.260 . S
O188 In182 2.266 . S
O188 C185 1.252 . S
O189 In182 2.326 . S
O189 C185 1.260 . S
O190 In182 2.266 . S
O190 C187 1.252 . S
O191 In182 2.326 . S
O191 C187 1.260 . S
C192 O183 1.240 . S
C192 O184 1.252 . S
O193 In182 2.294 . S
O193 C186 1.240 . S
O194 In182 2.326 . S
O194 C186 1.252 . S
In195 O196 2.294 . S
In195 O197 2.326 . S
In195 O201 2.266 . S
In195 O202 2.326 . S
In195 O203 2.266 . S
In195 O204 2.326 . S
In195 O206 2.294 . S
In195 O207 2.326 . S
O196 In195 2.294 . S
O196 C205 1.240 . S
O197 In195 2.326 . S
O197 C205 1.252 . S
C198 O201 1.252 . S
C198 O202 1.260 . S
C199 O206 1.240 . S
C199 O207 1.252 . S
C200 O203 1.252 . S
C200 O204 1.260 . S
O201 In195 2.266 . S
O201 C198 1.252 . S
O202 In195 2.326 . S
O202 C198 1.260 . S
O203 In195 2.266 . S
O203 C200 1.252 . S
O204 In195 2.326 . S
O204 C200 1.260 . S
C205 O196 1.240 . S
C205 O197 1.252 . S
O206 In195 2.294 . S
O206 C199 1.240 . S
O207 In195 2.326 . S
O207 C199 1.252 . S
In208 O209 2.294 . S
In208 O210 2.326 . S
In208 O214 2.266 . S
In208 O215 2.326 . S
In208 O216 2.266 . S
In208 O217 2.326 . S
In208 O219 2.294 . S
In208 O220 2.326 . S
O209 In208 2.294 . S
O209 C218 1.240 . S
O210 In208 2.326 . S
O210 C218 1.252 . S
C211 O214 1.252 . S
C211 O215 1.260 . S
C212 O219 1.240 . S
C212 O220 1.252 . S
C213 O216 1.252 . S
C213 O217 1.260 . S
O214 In208 2.266 . S
O214 C211 1.252 . S
O215 In208 2.326 . S
O215 C211 1.260 . S
O216 In208 2.266 . S
O216 C213 1.252 . S
O217 In208 2.326 . S
O217 C213 1.260 . S
C218 O209 1.240 . S
C218 O210 1.252 . S
O219 In208 2.294 . S
O219 C212 1.240 . S
O220 In208 2.326 . S
O220 C212 1.252 . S
In221 O222 2.294 . S
In221 O223 2.326 . S
In221 O227 2.266 . S
In221 O228 2.326 . S
In221 O229 2.266 . S
In221 O230 2.326 . S
In221 O232 2.294 . S
In221 O233 2.326 . S
O222 In221 2.294 . S
O222 C231 1.240 . S
O223 In221 2.326 . S
O223 C231 1.252 . S
C224 O227 1.252 . S
C224 O228 1.260 . S
C225 O232 1.240 . S
C225 O233 1.252 . S
C226 O229 1.252 . S
C226 O230 1.260 . S
O227 In221 2.266 . S
O227 C224 1.252 . S
O228 In221 2.326 . S
O228 C224 1.260 . S
O229 In221 2.266 . S
O229 C226 1.252 . S
O230 In221 2.326 . S
O230 C226 1.260 . S
C231 O222 1.240 . S
C231 O223 1.252 . S
O232 In221 2.294 . S
O232 C225 1.240 . S
O233 In221 2.326 . S
O233 C225 1.252 . S
In234 O235 2.294 . S
In234 O236 2.326 . S
In234 O240 2.266 . S
In234 O241 2.326 . S
In234 O242 2.266 . S
In234 O243 2.326 . S
In234 O245 2.294 . S
In234 O246 2.326 . S
O235 In234 2.294 . S
O235 C244 1.240 . S
O236 In234 2.326 . S
O236 C244 1.252 . S
C237 O240 1.252 . S
C237 O241 1.260 . S
C238 O245 1.240 . S
C238 O246 1.252 . S
C239 O242 1.252 . S
C239 O243 1.260 . S
O240 In234 2.266 . S
O240 C237 1.252 . S
O241 In234 2.326 . S
O241 C237 1.260 . S
O242 In234 2.266 . S
O242 C239 1.252 . S
O243 In234 2.326 . S
O243 C239 1.260 . S
C244 O235 1.240 . S
C244 O236 1.252 . S
O245 In234 2.294 . S
O245 C238 1.240 . S
O246 In234 2.326 . S
O246 C238 1.252 . S
In247 O248 2.294 . S
In247 O249 2.326 . S
In247 O253 2.266 . S
In247 O254 2.326 . S
In247 O255 2.266 . S
In247 O256 2.326 . S
In247 O258 2.294 . S
In247 O259 2.326 . S
O248 In247 2.294 . S
O248 C257 1.240 . S
O249 In247 2.326 . S
O249 C257 1.252 . S
C250 O253 1.252 . S
C250 O254 1.260 . S
C251 O258 1.240 . S
C251 O259 1.252 . S
C252 O255 1.252 . S
C252 O256 1.260 . S
O253 In247 2.266 . S
O253 C250 1.252 . S
O254 In247 2.326 . S
O254 C250 1.260 . S
O255 In247 2.266 . S
O255 C252 1.252 . S
O256 In247 2.326 . S
O256 C252 1.260 . S
C257 O248 1.240 . S
C257 O249 1.252 . S
O258 In247 2.294 . S
O258 C251 1.240 . S
O259 In247 2.326 . S
O259 C251 1.252 . S
In260 O261 2.294 . S
In260 O262 2.326 . S
In260 O266 2.266 . S
In260 O267 2.326 . S
In260 O268 2.266 . S
In260 O269 2.326 . S
In260 O271 2.294 . S
In260 O272 2.326 . S
O261 In260 2.294 . S
O261 C270 1.240 . S
O262 In260 2.326 . S
O262 C270 1.252 . S
C263 O266 1.252 . S
C263 O267 1.260 . S
C264 O271 1.240 . S
C264 O272 1.252 . S
C265 O268 1.252 . S
C265 O269 1.260 . S
O266 In260 2.266 . S
O266 C263 1.252 . S
O267 In260 2.326 . S
O267 C263 1.260 . S
O268 In260 2.266 . S
O268 C265 1.252 . S
O269 In260 2.326 . S
O269 C265 1.260 . S
C270 O261 1.240 . S
C270 O262 1.252 . S
O271 In260 2.294 . S
O271 C264 1.240 . S
O272 In260 2.326 . S
O272 C264 1.252 . S
In273 O274 2.294 1_556 S
In273 O275 2.326 . S
In273 O279 2.266 . S
In273 O280 2.326 . S
In273 O281 2.266 . S
In273 O282 2.326 . S
In273 O284 2.294 . S
In273 O285 2.326 . S
O274 In273 2.294 1_554 S
O274 C283 1.240 . S
O275 In273 2.326 . S
O275 C283 1.252 1_556 S
C276 O279 1.252 . S
C276 O280 1.260 . S
C277 O284 1.240 . S
C277 O285 1.252 . S
C278 O281 1.252 . S
C278 O282 1.260 . S
O279 In273 2.266 . S
O279 C276 1.252 . S
O280 In273 2.326 . S
O280 C276 1.260 . S
O281 In273 2.266 . S
O281 C278 1.252 . S
O282 In273 2.326 . S
O282 C278 1.260 . S
C283 O274 1.240 . S
C283 O275 1.252 1_554 S
O284 In273 2.294 . S
O284 C277 1.240 . S
O285 In273 2.326 . S
O285 C277 1.252 . S
In286 O287 2.294 1_556 S
In286 O288 2.326 . S
In286 O292 2.266 . S
In286 O293 2.326 . S
In286 O294 2.266 . S
In286 O295 2.326 . S
In286 O297 2.294 . S
In286 O298 2.326 . S
O287 In286 2.294 1_554 S
O287 C296 1.240 . S
O288 In286 2.326 . S
O288 C296 1.252 1_556 S
C289 O292 1.252 . S
C289 O293 1.260 . S
C290 O297 1.240 . S
C290 O298 1.252 . S
C291 O294 1.252 . S
C291 O295 1.260 . S
O292 In286 2.266 . S
O292 C289 1.252 . S
O293 In286 2.326 . S
O293 C289 1.260 . S
O294 In286 2.266 . S
O294 C291 1.252 . S
O295 In286 2.326 . S
O295 C291 1.260 . S
C296 O287 1.240 . S
C296 O288 1.252 1_554 S
O297 In286 2.294 . S
O297 C290 1.240 . S
O298 In286 2.326 . S
O298 C290 1.252 . S
In299 O300 2.294 . S
In299 O301 2.326 . S
In299 O305 2.266 . S
In299 O306 2.326 . S
In299 O307 2.266 . S
In299 O308 2.326 . S
In299 O310 2.294 1_556 S
In299 O311 2.326 . S
O300 In299 2.294 . S
O300 C309 1.240 . S
O301 In299 2.326 . S
O301 C309 1.252 . S
C302 O305 1.252 . S
C302 O306 1.260 . S
C303 O310 1.240 . S
C303 O311 1.252 1_554 S
C304 O307 1.252 . S
C304 O308 1.260 . S
O305 In299 2.266 . S
O305 C302 1.252 . S
O306 In299 2.326 . S
O306 C302 1.260 . S
O307 In299 2.266 . S
O307 C304 1.252 . S
O308 In299 2.326 . S
O308 C304 1.260 . S
C309 O300 1.240 . S
C309 O301 1.252 . S
O310 In299 2.294 1_554 S
O310 C303 1.240 . S
O311 In299 2.326 . S
O311 C303 1.252 1_556 S
In312 O313 2.294 . S
In312 O314 2.326 . S
In312 O318 2.266 . S
In312 O319 2.326 . S
In312 O320 2.266 . S
In312 O321 2.326 . S
In312 O323 2.294 . S
In312 O324 2.326 . S
O313 In312 2.294 . S
O313 C322 1.240 . S
O314 In312 2.326 . S
O314 C322 1.252 . S
C315 O318 1.252 . S
C315 O319 1.260 . S
C316 O323 1.240 . S
C316 O324 1.252 . S
C317 O320 1.252 . S
C317 O321 1.260 . S
O318 In312 2.266 . S
O318 C315 1.252 . S
O319 In312 2.326 . S
O319 C315 1.260 . S
O320 In312 2.266 . S
O320 C317 1.252 . S
O321 In312 2.326 . S
O321 C317 1.260 . S
C322 O313 1.240 . S
C322 O314 1.252 . S
O323 In312 2.294 . S
O323 C316 1.240 . S
O324 In312 2.326 . S
O324 C316 1.252 . S
In325 O326 2.294 . S
In325 O327 2.326 . S
In325 O331 2.266 . S
In325 O332 2.326 . S
In325 O333 2.266 . S
In325 O334 2.326 . S
In325 O336 2.294 . S
In325 O337 2.326 . S
O326 In325 2.294 . S
O326 C335 1.240 . S
O327 In325 2.326 . S
O327 C335 1.252 . S
C328 O331 1.252 . S
C328 O332 1.260 . S
C329 O336 1.240 . S
C329 O337 1.252 . S
C330 O333 1.252 . S
C330 O334 1.260 . S
O331 In325 2.266 . S
O331 C328 1.252 . S
O332 In325 2.326 . S
O332 C328 1.260 . S
O333 In325 2.266 . S
O333 C330 1.252 . S
O334 In325 2.326 . S
O334 C330 1.260 . S
C335 O326 1.240 . S
C335 O327 1.252 . S
O336 In325 2.294 . S
O336 C329 1.240 . S
O337 In325 2.326 . S
O337 C329 1.252 . S
In338 O339 2.294 . S
In338 O340 2.326 . S
In338 O344 2.266 . S
In338 O345 2.326 . S
In338 O346 2.266 . S
In338 O347 2.326 . S
In338 O349 2.294 . S
In338 O350 2.326 . S
O339 In338 2.294 . S
O339 C348 1.240 . S
O340 In338 2.326 . S
O340 C348 1.252 . S
C341 O344 1.252 . S
C341 O345 1.260 . S
C342 O349 1.240 . S
C342 O350 1.252 . S
C343 O346 1.252 . S
C343 O347 1.260 . S
O344 In338 2.266 . S
O344 C341 1.252 . S
O345 In338 2.326 . S
O345 C341 1.260 . S
O346 In338 2.266 . S
O346 C343 1.252 . S
O347 In338 2.326 . S
O347 C343 1.260 . S
C348 O339 1.240 . S
C348 O340 1.252 . S
O349 In338 2.294 . S
O349 C342 1.240 . S
O350 In338 2.326 . S
O350 C342 1.252 . S
In351 O352 2.294 . S
In351 O353 2.326 . S
In351 O357 2.266 . S
In351 O358 2.326 . S
In351 O359 2.266 . S
In351 O360 2.326 . S
In351 O362 2.294 1_554 S
In351 O363 2.326 . S
O352 In351 2.294 . S
O352 C361 1.240 . S
O353 In351 2.326 . S
O353 C361 1.252 . S
C354 O357 1.252 . S
C354 O358 1.260 . S
C355 O362 1.240 . S
C355 O363 1.252 1_556 S
C356 O359 1.252 . S
C356 O360 1.260 . S
O357 In351 2.266 . S
O357 C354 1.252 . S
O358 In351 2.326 . S
O358 C354 1.260 . S
O359 In351 2.266 . S
O359 C356 1.252 . S
O360 In351 2.326 . S
O360 C356 1.260 . S
C361 O352 1.240 . S
C361 O353 1.252 . S
O362 In351 2.294 1_556 S
O362 C355 1.240 . S
O363 In351 2.326 . S
O363 C355 1.252 1_554 S
In364 O365 2.294 . S
In364 O366 2.326 . S
In364 O370 2.266 . S
In364 O371 2.326 . S
In364 O372 2.266 . S
In364 O373 2.326 . S
In364 O375 2.294 1_554 S
In364 O376 2.326 . S
O365 In364 2.294 . S
O365 C374 1.240 . S
O366 In364 2.326 . S
O366 C374 1.252 . S
C367 O370 1.252 . S
C367 O371 1.260 . S
C368 O375 1.240 . S
C368 O376 1.252 1_556 S
C369 O372 1.252 . S
C369 O373 1.260 . S
O370 In364 2.266 . S
O370 C367 1.252 . S
O371 In364 2.326 . S
O371 C367 1.260 . S
O372 In364 2.266 . S
O372 C369 1.252 . S
O373 In364 2.326 . S
O373 C369 1.260 . S
C374 O365 1.240 . S
C374 O366 1.252 . S
O375 In364 2.294 1_556 S
O375 C368 1.240 . S
O376 In364 2.326 . S
O376 C368 1.252 1_554 S
In377 O378 2.294 . S
In377 O379 2.326 . S
In377 O383 2.266 . S
In377 O384 2.326 . S
In377 O385 2.266 . S
In377 O386 2.326 . S
In377 O388 2.294 1_554 S
In377 O389 2.326 . S
O378 In377 2.294 . S
O378 C387 1.240 . S
O379 In377 2.326 . S
O379 C387 1.252 . S
C380 O383 1.252 . S
C380 O384 1.260 . S
C381 O388 1.240 . S
C381 O389 1.252 1_556 S
C382 O385 1.252 . S
C382 O386 1.260 . S
O383 In377 2.266 . S
O383 C380 1.252 . S
O384 In377 2.326 . S
O384 C380 1.260 . S
O385 In377 2.266 . S
O385 C382 1.252 . S
O386 In377 2.326 . S
O386 C382 1.260 . S
C387 O378 1.240 . S
C387 O379 1.252 . S
O388 In377 2.294 1_556 S
O388 C381 1.240 . S
O389 In377 2.326 . S
O389 C381 1.252 1_554 S
In390 O391 2.294 . S
In390 O392 2.326 . S
In390 O396 2.266 . S
In390 O397 2.326 . S
In390 O398 2.266 . S
In390 O399 2.326 . S
In390 O401 2.294 . S
In390 O402 2.326 . S
O391 In390 2.294 . S
O391 C400 1.240 . S
O392 In390 2.326 . S
O392 C400 1.252 . S
C393 O396 1.252 . S
C393 O397 1.260 . S
C394 O401 1.240 . S
C394 O402 1.252 . S
C395 O398 1.252 . S
C395 O399 1.260 . S
O396 In390 2.266 . S
O396 C393 1.252 . S
O397 In390 2.326 . S
O397 C393 1.260 . S
O398 In390 2.266 . S
O398 C395 1.252 . S
O399 In390 2.326 . S
O399 C395 1.260 . S
C400 O391 1.240 . S
C400 O392 1.252 . S
O401 In390 2.294 . S
O401 C394 1.240 . S
O402 In390 2.326 . S
O402 C394 1.252 . S
In403 O404 2.294 . S
In403 O405 2.326 . S
In403 O409 2.266 . S
In403 O410 2.326 . S
In403 O411 2.266 . S
In403 O412 2.326 . S
In403 O414 2.294 . S
In403 O415 2.326 . S
O404 In403 2.294 . S
O404 C413 1.240 . S
O405 In403 2.326 . S
O405 C413 1.252 . S
C406 O409 1.252 . S
C406 O410 1.260 . S
C407 O414 1.240 . S
C407 O415 1.252 . S
C408 O411 1.252 . S
C408 O412 1.260 . S
O409 In403 2.266 . S
O409 C406 1.252 . S
O410 In403 2.326 . S
O410 C406 1.260 . S
O411 In403 2.266 . S
O411 C408 1.252 . S
O412 In403 2.326 . S
O412 C408 1.260 . S
C413 O404 1.240 . S
C413 O405 1.252 . S
O414 In403 2.294 . S
O414 C407 1.240 . S
O415 In403 2.326 . S
O415 C407 1.252 . S
In416 O417 2.294 . S
In416 O418 2.326 . S
In416 O422 2.266 . S
In416 O423 2.326 . S
In416 O424 2.266 . S
In416 O425 2.326 . S
In416 O427 2.294 . S
In416 O428 2.326 . S
O417 In416 2.294 . S
O417 C426 1.240 . S
O418 In416 2.326 . S
O418 C426 1.252 . S
C419 O422 1.252 . S
C419 O423 1.260 . S
C420 O427 1.240 . S
C420 O428 1.252 . S
C421 O424 1.252 . S
C421 O425 1.260 . S
O422 In416 2.266 . S
O422 C419 1.252 . S
O423 In416 2.326 . S
O423 C419 1.260 . S
O424 In416 2.266 . S
O424 C421 1.252 . S
O425 In416 2.326 . S
O425 C421 1.260 . S
C426 O417 1.240 . S
C426 O418 1.252 . S
O427 In416 2.294 . S
O427 C420 1.240 . S
O428 In416 2.326 . S
O428 C420 1.252 . S
In429 O430 2.294 . S
In429 O431 2.326 . S
In429 O435 2.266 . S
In429 O436 2.326 . S
In429 O437 2.266 . S
In429 O438 2.326 . S
In429 O440 2.294 . S
In429 O441 2.326 . S
O430 In429 2.294 . S
O430 C439 1.240 . S
O431 In429 2.326 . S
O431 C439 1.252 . S
C432 O435 1.252 . S
C432 O436 1.260 . S
C433 O440 1.240 . S
C433 O441 1.252 . S
C434 O437 1.252 . S
C434 O438 1.260 . S
O435 In429 2.266 . S
O435 C432 1.252 . S
O436 In429 2.326 . S
O436 C432 1.260 . S
O437 In429 2.266 . S
O437 C434 1.252 . S
O438 In429 2.326 . S
O438 C434 1.260 . S
C439 O430 1.240 . S
C439 O431 1.252 . S
O440 In429 2.294 . S
O440 C433 1.240 . S
O441 In429 2.326 . S
O441 C433 1.252 . S
In442 O443 2.294 . S
In442 O444 2.326 . S
In442 O448 2.266 . S
In442 O449 2.326 . S
In442 O450 2.266 . S
In442 O451 2.326 . S
In442 O453 2.294 . S
In442 O454 2.326 . S
O443 In442 2.294 . S
O443 C452 1.240 . S
O444 In442 2.326 . S
O444 C452 1.252 . S
C445 O448 1.252 . S
C445 O449 1.260 . S
C446 O453 1.240 . S
C446 O454 1.252 . S
C447 O450 1.252 . S
C447 O451 1.260 . S
O448 In442 2.266 . S
O448 C445 1.252 . S
O449 In442 2.326 . S
O449 C445 1.260 . S
O450 In442 2.266 . S
O450 C447 1.252 . S
O451 In442 2.326 . S
O451 C447 1.260 . S
C452 O443 1.240 . S
C452 O444 1.252 . S
O453 In442 2.294 . S
O453 C446 1.240 . S
O454 In442 2.326 . S
O454 C446 1.252 . S
In455 O456 2.294 . S
In455 O457 2.326 . S
In455 O461 2.266 . S
In455 O462 2.326 . S
In455 O463 2.266 . S
In455 O464 2.326 . S
In455 O466 2.294 . S
In455 O467 2.326 . S
O456 In455 2.294 . S
O456 C465 1.240 . S
O457 In455 2.326 . S
O457 C465 1.252 . S
C458 O461 1.252 . S
C458 O462 1.260 . S
C459 O466 1.240 . S
C459 O467 1.252 . S
C460 O463 1.252 . S
C460 O464 1.260 . S
O461 In455 2.266 . S
O461 C458 1.252 . S
O462 In455 2.326 . S
O462 C458 1.260 . S
O463 In455 2.266 . S
O463 C460 1.252 . S
O464 In455 2.326 . S
O464 C460 1.260 . S
C465 O456 1.240 . S
C465 O457 1.252 . S
O466 In455 2.294 . S
O466 C459 1.240 . S
O467 In455 2.326 . S
O467 C459 1.252 . S
H468 C474 0.930 . S
H469 C477 0.930 . S
H470 C478 0.930 . S
H471 C479 0.930 . S
H472 C482 0.930 . S
H473 C483 0.930 . S
C474 H468 0.930 . S
C474 C475 1.355 . S
C474 C476 1.414 1_565 S
C475 C474 1.355 . S
C475 C477 1.419 . S
C476 C474 1.414 1_545 S
C476 C481 1.426 1_545 S
C476 C483 1.409 . S
C477 H469 0.930 . S
C477 C475 1.419 . S
C477 C478 1.362 . S
C478 H470 0.930 . S
C478 C477 1.362 . S
C478 C481 1.409 . S
C479 H471 0.930 . S
C479 C480 1.355 . S
C479 C481 1.414 1_545 S
C480 C479 1.355 . S
C480 C482 1.419 . S
C481 C476 1.426 1_565 S
C481 C478 1.409 . S
C481 C479 1.414 1_565 S
C482 H472 0.930 . S
C482 C480 1.419 . S
C482 C483 1.362 . S
C483 H473 0.930 . S
C483 C476 1.409 . S
C483 C482 1.362 . S
H484 C490 0.930 . S
H485 C493 0.930 . S
H486 C494 0.930 . S
H487 C495 0.930 . S
H488 C498 0.930 . S
H489 C499 0.930 . S
C490 H484 0.930 . S
C490 C491 1.355 . S
C490 C492 1.415 . S
C491 C490 1.355 . S
C491 C493 1.419 . S
C492 C490 1.415 . S
C492 C497 1.425 1_655 S
C492 C499 1.409 . S
C493 H485 0.930 . S
C493 C491 1.419 . S
C493 C494 1.362 1_655 S
C494 H486 0.930 . S
C494 C493 1.362 1_455 S
C494 C497 1.409 . S
C495 H487 0.930 . S
C495 C496 1.355 . S
C495 C497 1.415 . S
C496 C495 1.355 . S
C496 C498 1.419 . S
C497 C492 1.425 1_455 S
C497 C494 1.409 . S
C497 C495 1.415 . S
C498 H488 0.930 . S
C498 C496 1.419 . S
C498 C499 1.362 1_455 S
C499 H489 0.930 . S
C499 C492 1.409 . S
C499 C498 1.362 1_655 S
H500 C506 0.930 . S
H501 C509 0.930 . S
H502 C510 0.930 . S
H503 C511 0.930 . S
H504 C514 0.930 . S
H505 C515 0.930 . S
C506 H500 0.930 . S
C506 C507 1.355 . S
C506 C508 1.415 . S
C507 C506 1.355 . S
C507 C509 1.419 . S
C508 C506 1.415 . S
C508 C513 1.425 . S
C508 C515 1.409 . S
C509 H501 0.930 . S
C509 C507 1.419 . S
C509 C510 1.362 . S
C510 H502 0.930 . S
C510 C509 1.362 . S
C510 C513 1.409 . S
C511 H503 0.930 . S
C511 C512 1.355 . S
C511 C513 1.415 . S
C512 C511 1.355 . S
C512 C514 1.419 . S
C513 C508 1.425 . S
C513 C510 1.409 . S
C513 C511 1.415 . S
C514 H504 0.930 . S
C514 C512 1.419 . S
C514 C515 1.362 . S
C515 H505 0.930 . S
C515 C508 1.409 . S
C515 C514 1.362 . S
H516 C522 0.930 . S
H517 C525 0.930 . S
H518 C526 0.930 . S
H519 C527 0.930 . S
H520 C530 0.930 . S
H521 C531 0.930 . S
C522 H516 0.930 . S
C522 C523 1.355 . S
C522 C524 1.415 1_565 S
C523 C522 1.355 . S
C523 C525 1.419 . S
C524 C522 1.415 1_545 S
C524 C529 1.425 1_545 S
C524 C531 1.409 . S
C525 H517 0.930 . S
C525 C523 1.419 . S
C525 C526 1.362 . S
C526 H518 0.930 . S
C526 C525 1.362 . S
C526 C529 1.409 . S
C527 H519 0.930 . S
C527 C528 1.355 . S
C527 C529 1.415 1_545 S
C528 C527 1.355 . S
C528 C530 1.419 . S
C529 C524 1.425 1_565 S
C529 C526 1.409 . S
C529 C527 1.415 1_565 S
C530 H520 0.930 . S
C530 C528 1.419 . S
C530 C531 1.362 . S
C531 H521 0.930 . S
C531 C524 1.409 . S
C531 C530 1.362 . S
H532 C538 0.930 . S
H533 C541 0.930 . S
H534 C542 0.930 . S
H535 C543 0.930 . S
H536 C546 0.930 . S
H537 C547 0.930 . S
C538 H532 0.930 . S
C538 C539 1.355 . S
C538 C540 1.415 . S
C539 C538 1.355 . S
C539 C541 1.419 . S
C540 C538 1.415 . S
C540 C545 1.425 1_455 S
C540 C547 1.409 . S
C541 H533 0.930 . S
C541 C539 1.419 . S
C541 C542 1.362 1_455 S
C542 H534 0.930 . S
C542 C541 1.362 1_655 S
C542 C545 1.409 . S
C543 H535 0.930 . S
C543 C544 1.355 . S
C543 C545 1.415 . S
C544 C543 1.355 . S
C544 C546 1.419 . S
C545 C540 1.425 1_655 S
C545 C542 1.409 . S
C545 C543 1.415 . S
C546 H536 0.930 . S
C546 C544 1.419 . S
C546 C547 1.362 1_655 S
C547 H537 0.930 . S
C547 C540 1.409 . S
C547 C546 1.362 1_455 S
H548 C554 0.930 . S
H549 C557 0.930 . S
H550 C558 0.930 . S
H551 C559 0.930 . S
H552 C562 0.930 . S
H553 C563 0.930 . S
C554 H548 0.930 . S
C554 C555 1.355 . S
C554 C556 1.415 . S
C555 C554 1.355 . S
C555 C557 1.419 . S
C556 C554 1.415 . S
C556 C561 1.425 . S
C556 C563 1.409 . S
C557 H549 0.930 . S
C557 C555 1.419 . S
C557 C558 1.362 . S
C558 H550 0.930 . S
C558 C557 1.362 . S
C558 C561 1.409 . S
C559 H551 0.930 . S
C559 C560 1.355 . S
C559 C561 1.415 . S
C560 C559 1.355 . S
C560 C562 1.419 . S
C561 C556 1.425 . S
C561 C558 1.409 . S
C561 C559 1.415 . S
C562 H552 0.930 . S
C562 C560 1.419 . S
C562 C563 1.362 . S
C563 H553 0.930 . S
C563 C556 1.409 . S
C563 C562 1.362 . S
H564 C570 0.930 . S
H565 C573 0.930 . S
H566 C574 0.930 . S
H567 C575 0.930 . S
H568 C578 0.930 . S
H569 C579 0.930 . S
C570 H564 0.930 . S
C570 C571 1.355 . S
C570 C572 1.415 . S
C571 C570 1.355 . S
C571 C573 1.419 . S
C572 C570 1.415 . S
C572 C577 1.425 . S
C572 C579 1.409 . S
C573 H565 0.930 . S
C573 C571 1.419 . S
C573 C574 1.362 . S
C574 H566 0.930 . S
C574 C573 1.362 . S
C574 C577 1.409 . S
C575 H567 0.930 . S
C575 C576 1.355 . S
C575 C577 1.415 . S
C576 C575 1.355 . S
C576 C578 1.419 . S
C577 C572 1.425 . S
C577 C574 1.409 . S
C577 C575 1.415 . S
C578 H568 0.930 . S
C578 C576 1.419 . S
C578 C579 1.362 . S
C579 H569 0.930 . S
C579 C572 1.409 . S
C579 C578 1.362 . S
H580 C586 0.930 . S
H581 C589 0.930 . S
H582 C590 0.930 . S
H583 C591 0.930 . S
H584 C594 0.930 . S
H585 C595 0.930 . S
C586 H580 0.930 . S
C586 C587 1.355 . S
C586 C588 1.415 . S
C587 C586 1.355 . S
C587 C589 1.419 . S
C588 C586 1.415 . S
C588 C593 1.425 . S
C588 C595 1.409 . S
C589 H581 0.930 . S
C589 C587 1.419 . S
C589 C590 1.362 . S
C590 H582 0.930 . S
C590 C589 1.362 . S
C590 C593 1.409 . S
C591 H583 0.930 . S
C591 C592 1.355 . S
C591 C593 1.415 . S
C592 C591 1.355 . S
C592 C594 1.419 . S
C593 C588 1.425 . S
C593 C590 1.409 . S
C593 C591 1.415 . S
C594 H584 0.930 . S
C594 C592 1.419 . S
C594 C595 1.362 . S
C595 H585 0.930 . S
C595 C588 1.409 . S
C595 C594 1.362 . S
H596 C602 0.930 . S
H597 C605 0.930 . S
H598 C606 0.930 . S
H599 C607 0.930 . S
H600 C610 0.930 . S
H601 C611 0.930 . S
C602 H596 0.930 . S
C602 C603 1.355 . S
C602 C604 1.415 . S
C603 C602 1.355 . S
C603 C605 1.419 . S
C604 C602 1.415 . S
C604 C609 1.425 . S
C604 C611 1.409 . S
C605 H597 0.930 . S
C605 C603 1.419 . S
C605 C606 1.362 . S
C606 H598 0.930 . S
C606 C605 1.362 . S
C606 C609 1.409 . S
C607 H599 0.930 . S
C607 C608 1.355 . S
C607 C609 1.415 . S
C608 C607 1.355 . S
C608 C610 1.419 . S
C609 C604 1.425 . S
C609 C606 1.409 . S
C609 C607 1.415 . S
C610 H600 0.930 . S
C610 C608 1.419 . S
C610 C611 1.362 . S
C611 H601 0.930 . S
C611 C604 1.409 . S
C611 C610 1.362 . S
H612 C618 0.930 . S
H613 C621 0.930 . S
H614 C622 0.930 . S
H615 C623 0.930 . S
H616 C626 0.930 . S
H617 C627 0.930 1_556 S
C618 H612 0.930 . S
C618 C619 1.355 . S
C618 C620 1.415 . S
C619 C618 1.355 . S
C619 C621 1.419 . S
C620 C618 1.415 . S
C620 C625 1.425 . S
C620 C627 1.409 . S
C621 H613 0.930 . S
C621 C619 1.419 . S
C621 C622 1.362 . S
C622 H614 0.930 . S
C622 C621 1.362 . S
C622 C625 1.409 . S
C623 H615 0.930 . S
C623 C624 1.355 1_554 S
C623 C625 1.415 . S
C624 C623 1.355 1_556 S
C624 C626 1.419 . S
C625 C620 1.425 . S
C625 C622 1.409 . S
C625 C623 1.415 . S
C626 H616 0.930 . S
C626 C624 1.419 . S
C626 C627 1.362 1_556 S
C627 H617 0.930 1_554 S
C627 C620 1.409 . S
C627 C626 1.362 1_554 S
H628 C634 0.930 . S
H629 C637 0.930 . S
H630 C638 0.930 . S
H631 C639 0.930 . S
H632 C642 0.930 . S
H633 C643 0.926 1_556 S
C634 H628 0.930 . S
C634 C635 1.355 . S
C634 C636 1.415 . S
C635 C634 1.355 . S
C635 C637 1.419 . S
C636 C634 1.415 . S
C636 C641 1.425 . S
C636 C643 1.418 . S
C637 H629 0.930 . S
C637 C635 1.419 . S
C637 C638 1.362 . S
C638 H630 0.930 . S
C638 C637 1.362 . S
C638 C641 1.409 . S
C639 H631 0.930 . S
C639 C640 1.355 1_554 S
C639 C641 1.415 . S
C640 C639 1.355 1_556 S
C640 C642 1.419 . S
C641 C636 1.425 . S
C641 C638 1.409 . S
C641 C639 1.415 . S
C642 H632 0.930 . S
C642 C640 1.419 . S
C642 C643 1.357 1_556 S
C643 H633 0.926 1_554 S
C643 C636 1.418 . S
C643 C642 1.357 1_554 S
H644 C650 0.930 . S
H645 C653 0.930 . S
H646 C654 0.930 . S
H647 C655 0.933 . S
H648 C658 0.930 . S
H649 C659 0.930 . S
C650 H644 0.930 . S
C650 C651 1.355 . S
C650 C652 1.415 . S
C651 C650 1.355 . S
C651 C653 1.419 . S
C652 C650 1.415 . S
C652 C657 1.425 . S
C652 C659 1.409 . S
C653 H645 0.930 . S
C653 C651 1.419 . S
C653 C654 1.362 . S
C654 H646 0.930 . S
C654 C653 1.362 . S
C654 C657 1.409 . S
C655 H647 0.933 . S
C655 C656 1.354 1_556 S
C655 C657 1.411 1_556 S
C656 C655 1.354 1_554 S
C656 C658 1.419 . S
C657 C652 1.425 . S
C657 C654 1.409 . S
C657 C655 1.411 1_554 S
C658 H648 0.930 . S
C658 C656 1.419 . S
C658 C659 1.362 . S
C659 H649 0.930 . S
C659 C652 1.409 . S
C659 C658 1.362 . S
H660 C666 0.930 . S
H661 C669 0.930 . S
H662 C670 0.930 . S
H663 C671 0.930 . S
H664 C674 0.930 . S
H665 C675 0.930 . S
C666 H660 0.930 . S
C666 C667 1.355 . S
C666 C668 1.415 . S
C667 C666 1.355 . S
C667 C669 1.419 . S
C668 C666 1.415 . S
C668 C673 1.425 . S
C668 C675 1.409 . S
C669 H661 0.930 . S
C669 C667 1.419 . S
C669 C670 1.362 . S
C670 H662 0.930 . S
C670 C669 1.362 . S
C670 C673 1.409 . S
C671 H663 0.930 . S
C671 C672 1.355 1_554 S
C671 C673 1.415 1_554 S
C672 C671 1.355 1_556 S
C672 C674 1.419 . S
C673 C668 1.425 . S
C673 C670 1.409 . S
C673 C671 1.415 1_556 S
C674 H664 0.930 . S
C674 C672 1.419 . S
C674 C675 1.362 . S
C675 H665 0.930 . S
C675 C668 1.409 . S
C675 C674 1.362 . S
H676 C682 0.930 . S
H677 C685 0.930 . S
H678 C686 0.930 . S
H679 C687 0.930 . S
H680 C690 0.930 . S
H681 C691 0.930 . S
C682 H676 0.930 . S
C682 C683 1.355 1_554 S
C682 C684 1.415 1_554 S
C683 C682 1.355 1_556 S
C683 C685 1.419 . S
C684 C682 1.415 1_556 S
C684 C689 1.425 . S
C684 C691 1.409 . S
C685 H677 0.930 . S
C685 C683 1.419 . S
C685 C686 1.362 . S
C686 H678 0.930 . S
C686 C685 1.362 . S
C686 C689 1.409 . S
C687 H679 0.930 . S
C687 C688 1.355 . S
C687 C689 1.415 . S
C688 C687 1.355 . S
C688 C690 1.419 . S
C689 C684 1.425 . S
C689 C686 1.409 . S
C689 C687 1.415 . S
C690 H680 0.930 . S
C690 C688 1.419 . S
C690 C691 1.362 . S
C691 H681 0.930 . S
C691 C684 1.409 . S
C691 C690 1.362 . S
H692 C698 0.930 . S
H693 C701 0.930 . S
H694 C702 0.930 . S
H695 C703 0.930 1_554 S
H696 C706 0.930 . S
H697 C707 0.930 . S
C698 H692 0.930 . S
C698 C699 1.355 . S
C698 C700 1.415 . S
C699 C698 1.355 . S
C699 C701 1.419 . S
C700 C698 1.415 . S
C700 C705 1.425 . S
C700 C707 1.409 . S
C701 H693 0.930 . S
C701 C699 1.419 . S
C701 C702 1.362 . S
C702 H694 0.930 . S
C702 C701 1.362 . S
C702 C705 1.409 . S
C703 H695 0.930 1_556 S
C703 C704 1.355 . S
C703 C705 1.415 . S
C704 C703 1.355 . S
C704 C706 1.419 . S
C705 C700 1.425 . S
C705 C702 1.409 . S
C705 C703 1.415 . S
C706 H696 0.930 . S
C706 C704 1.419 . S
C706 C707 1.362 . S
C707 H697 0.930 . S
C707 C700 1.409 . S
C707 C706 1.362 . S
H708 C714 0.930 . S
H709 C717 0.930 . S
H710 C718 0.930 . S
H711 C719 0.930 . S
H712 C722 0.930 . S
H713 C723 0.930 . S
C714 H708 0.930 . S
C714 C715 1.355 . S
C714 C716 1.415 . S
C715 C714 1.355 . S
C715 C717 1.419 . S
C716 C714 1.415 . S
C716 C721 1.425 . S
C716 C723 1.409 . S
C717 H709 0.930 . S
C717 C715 1.419 . S
C717 C718 1.362 . S
C718 H710 0.930 . S
C718 C717 1.362 . S
C718 C721 1.409 . S
C719 H711 0.930 . S
C719 C720 1.355 . S
C719 C721 1.415 . S
C720 C719 1.355 . S
C720 C722 1.419 . S
C721 C716 1.425 . S
C721 C718 1.409 . S
C721 C719 1.415 . S
C722 H712 0.930 . S
C722 C720 1.419 . S
C722 C723 1.362 . S
C723 H713 0.930 . S
C723 C716 1.409 . S
C723 C722 1.362 . S
H724 C730 0.930 . S
H725 C733 0.930 . S
H726 C734 0.930 . S
H727 C735 0.930 . S
H728 C738 0.930 . S
H729 C739 0.930 . S
C730 H724 0.930 . S
C730 C731 1.355 . S
C730 C732 1.415 . S
C731 C730 1.355 . S
C731 C733 1.419 . S
C732 C730 1.415 . S
C732 C737 1.425 . S
C732 C739 1.409 . S
C733 H725 0.930 . S
C733 C731 1.419 . S
C733 C734 1.362 . S
C734 H726 0.930 . S
C734 C733 1.362 . S
C734 C737 1.409 . S
C735 H727 0.930 . S
C735 C736 1.355 . S
C735 C737 1.415 . S
C736 C735 1.355 . S
C736 C738 1.419 . S
C737 C732 1.425 . S
C737 C734 1.409 . S
C737 C735 1.415 . S
C738 H728 0.930 . S
C738 C736 1.419 . S
C738 C739 1.362 . S
C739 H729 0.930 . S
C739 C732 1.409 . S
C739 C738 1.362 . S
H740 C746 0.930 . S
H741 C749 0.930 . S
H742 C750 0.930 . S
H743 C751 0.930 . S
H744 C754 0.930 . S
H745 C755 0.930 . S
C746 H740 0.930 . S
C746 C747 1.355 . S
C746 C748 1.415 . S
C747 C746 1.355 . S
C747 C749 1.419 . S
C748 C746 1.415 . S
C748 C753 1.425 . S
C748 C755 1.409 . S
C749 H741 0.930 . S
C749 C747 1.419 . S
C749 C750 1.362 . S
C750 H742 0.930 . S
C750 C749 1.362 . S
C750 C753 1.409 . S
C751 H743 0.930 . S
C751 C752 1.355 . S
C751 C753 1.415 . S
C752 C751 1.355 . S
C752 C754 1.419 . S
C753 C748 1.425 . S
C753 C750 1.409 . S
C753 C751 1.415 . S
C754 H744 0.930 . S
C754 C752 1.419 . S
C754 C755 1.362 . S
C755 H745 0.930 . S
C755 C748 1.409 . S
C755 C754 1.362 . S
H756 C762 0.930 . S
H757 C765 0.930 . S
H758 C766 0.930 . S
H759 C767 0.930 . S
H760 C770 0.930 . S
H761 C771 0.930 . S
C762 H756 0.930 . S
C762 C763 1.355 . S
C762 C764 1.415 . S
C763 C762 1.355 . S
C763 C765 1.419 . S
C764 C762 1.415 . S
C764 C769 1.425 . S
C764 C771 1.409 . S
C765 H757 0.930 . S
C765 C763 1.419 . S
C765 C766 1.362 . S
C766 H758 0.930 . S
C766 C765 1.362 . S
C766 C769 1.409 . S
C767 H759 0.930 . S
C767 C768 1.355 . S
C767 C769 1.415 . S
C768 C767 1.355 . S
C768 C770 1.419 . S
C769 C764 1.425 . S
C769 C766 1.409 . S
C769 C767 1.415 . S
C770 H760 0.930 . S
C770 C768 1.419 . S
C770 C771 1.362 . S
C771 H761 0.930 . S
C771 C764 1.409 . S
C771 C770 1.362 . S
H772 C778 0.930 . S
H773 C781 0.930 . S
H774 C782 0.930 . S
H775 C783 0.930 . S
H776 C786 0.930 . S
H777 C787 0.930 . S
C778 H772 0.930 . S
C778 C779 1.355 . S
C778 C780 1.415 . S
C779 C778 1.355 . S
C779 C781 1.419 . S
C780 C778 1.415 . S
C780 C785 1.425 . S
C780 C787 1.409 . S
C781 H773 0.930 . S
C781 C779 1.419 . S
C781 C782 1.362 . S
C782 H774 0.930 . S
C782 C781 1.362 . S
C782 C785 1.409 . S
C783 H775 0.930 . S
C783 C784 1.355 . S
C783 C785 1.415 . S
C784 C783 1.355 . S
C784 C786 1.419 . S
C785 C780 1.425 . S
C785 C782 1.409 . S
C785 C783 1.415 . S
C786 H776 0.930 . S
C786 C784 1.419 . S
C786 C787 1.362 . S
C787 H777 0.930 . S
C787 C780 1.409 . S
C787 C786 1.362 . S
H788 C794 0.930 . S
H789 C797 0.930 . S
H790 C798 0.930 . S
H791 C799 0.930 . S
H792 C802 0.930 . S
H793 C803 0.930 . S
C794 H788 0.930 . S
C794 C795 1.355 . S
C794 C796 1.415 . S
C795 C794 1.355 . S
C795 C797 1.419 . S
C796 C794 1.415 . S
C796 C801 1.425 . S
C796 C803 1.409 . S
C797 H789 0.930 . S
C797 C795 1.419 . S
C797 C798 1.362 . S
C798 H790 0.930 . S
C798 C797 1.362 . S
C798 C801 1.409 . S
C799 H791 0.930 . S
C799 C800 1.355 . S
C799 C801 1.415 . S
C800 C799 1.355 . S
C800 C802 1.419 . S
C801 C796 1.425 . S
C801 C798 1.409 . S
C801 C799 1.415 . S
C802 H792 0.930 . S
C802 C800 1.419 . S
C802 C803 1.362 . S
C803 H793 0.930 . S
C803 C796 1.409 . S
C803 C802 1.362 . S
H804 C810 0.930 . S
H805 C813 0.930 . S
H806 C814 0.930 . S
H807 C815 0.930 . S
H808 C818 0.930 . S
H809 C819 0.930 . S
C810 H804 0.930 . S
C810 C811 1.355 . S
C810 C812 1.415 . S
C811 C810 1.355 . S
C811 C813 1.419 . S
C812 C810 1.415 . S
C812 C817 1.425 . S
C812 C819 1.409 . S
C813 H805 0.930 . S
C813 C811 1.419 . S
C813 C814 1.362 . S
C814 H806 0.930 . S
C814 C813 1.362 . S
C814 C817 1.409 . S
C815 H807 0.930 . S
C815 C816 1.355 . S
C815 C817 1.415 . S
C816 C815 1.355 . S
C816 C818 1.419 . S
C817 C812 1.425 . S
C817 C814 1.409 . S
C817 C815 1.415 . S
C818 H808 0.930 . S
C818 C816 1.419 . S
C818 C819 1.362 . S
C819 H809 0.930 . S
C819 C812 1.409 . S
C819 C818 1.362 . S
H820 C826 0.930 . S
H821 C829 0.930 . S
H822 C830 0.930 . S
H823 C831 0.930 . S
H824 C834 0.930 . S
H825 C835 0.930 . S
C826 H820 0.930 . S
C826 C827 1.355 . S
C826 C828 1.415 . S
C827 C826 1.355 . S
C827 C829 1.419 . S
C828 C826 1.415 . S
C828 C833 1.425 . S
C828 C835 1.409 . S
C829 H821 0.930 . S
C829 C827 1.419 . S
C829 C830 1.362 . S
C830 H822 0.930 . S
C830 C829 1.362 . S
C830 C833 1.409 . S
C831 H823 0.930 . S
C831 C832 1.355 . S
C831 C833 1.415 . S
C832 C831 1.355 . S
C832 C834 1.419 . S
C833 C828 1.425 . S
C833 C830 1.409 . S
C833 C831 1.415 . S
C834 H824 0.930 . S
C834 C832 1.419 . S
C834 C835 1.362 . S
C835 H825 0.930 . S
C835 C828 1.409 . S
C835 C834 1.362 . S
H836 C842 0.930 . S
H837 C845 0.930 . S
H838 C846 0.930 . S
H839 C847 0.930 . S
H840 C850 0.930 . S
H841 C851 0.930 . S
C842 H836 0.930 . S
C842 C843 1.355 . S
C842 C844 1.415 . S
C843 C842 1.355 . S
C843 C845 1.419 . S
C844 C842 1.415 . S
C844 C849 1.425 . S
C844 C851 1.409 . S
C845 H837 0.930 . S
C845 C843 1.419 . S
C845 C846 1.362 . S
C846 H838 0.930 . S
C846 C845 1.362 . S
C846 C849 1.409 . S
C847 H839 0.930 . S
C847 C848 1.355 . S
C847 C849 1.415 . S
C848 C847 1.355 . S
C848 C850 1.419 . S
C849 C844 1.425 . S
C849 C846 1.409 . S
C849 C847 1.415 . S
C850 H840 0.930 . S
C850 C848 1.419 . S
C850 C851 1.362 . S
C851 H841 0.930 . S
C851 C844 1.409 . S
C851 C850 1.362 . S
H852 C858 0.930 . S
H853 C861 0.930 . S
H854 C862 0.930 . S
H855 C863 0.930 . S
H856 C866 0.930 . S
H857 C867 0.930 . S
C858 H852 0.930 . S
C858 C859 1.355 . S
C858 C860 1.415 . S
C859 C858 1.355 . S
C859 C861 1.419 . S
C860 C858 1.415 . S
C860 C865 1.425 . S
C860 C867 1.409 . S
C861 H853 0.930 . S
C861 C859 1.419 . S
C861 C862 1.362 . S
C862 H854 0.930 . S
C862 C861 1.362 . S
C862 C865 1.409 . S
C863 H855 0.930 . S
C863 C864 1.355 . S
C863 C865 1.415 . S
C864 C863 1.355 . S
C864 C866 1.419 . S
C865 C860 1.425 . S
C865 C862 1.409 . S
C865 C863 1.415 . S
C866 H856 0.930 . S
C866 C864 1.419 . S
C866 C867 1.362 . S
C867 H857 0.930 . S
C867 C860 1.409 . S
C867 C866 1.362 . S
H868 C874 0.930 . S
H869 C877 0.930 . S
H870 C878 0.930 . S
H871 C879 0.930 . S
H872 C882 0.930 . S
H873 C883 0.930 . S
C874 H868 0.930 . S
C874 C875 1.355 . S
C874 C876 1.415 . S
C875 C874 1.355 . S
C875 C877 1.419 . S
C876 C874 1.415 . S
C876 C881 1.425 . S
C876 C883 1.409 . S
C877 H869 0.930 . S
C877 C875 1.419 . S
C877 C878 1.362 . S
C878 H870 0.930 . S
C878 C877 1.362 . S
C878 C881 1.409 . S
C879 H871 0.930 . S
C879 C880 1.355 . S
C879 C881 1.415 . S
C880 C879 1.355 . S
C880 C882 1.419 . S
C881 C876 1.425 . S
C881 C878 1.409 . S
C881 C879 1.415 . S
C882 H872 0.930 . S
C882 C880 1.419 . S
C882 C883 1.362 . S
C883 H873 0.930 . S
C883 C876 1.409 . S
C883 C882 1.362 . S
H884 C890 0.930 . S
H885 C893 0.930 . S
H886 C894 0.930 . S
H887 C895 0.930 . S
H888 C898 0.930 . S
H889 C899 0.930 . S
C890 H884 0.930 . S
C890 C891 1.355 . S
C890 C892 1.415 . S
C891 C890 1.355 . S
C891 C893 1.419 . S
C892 C890 1.415 . S
C892 C897 1.425 . S
C892 C899 1.409 . S
C893 H885 0.930 . S
C893 C891 1.419 . S
C893 C894 1.362 . S
C894 H886 0.930 . S
C894 C893 1.362 . S
C894 C897 1.409 . S
C895 H887 0.930 . S
C895 C896 1.355 . S
C895 C897 1.415 . S
C896 C895 1.355 . S
C896 C898 1.419 . S
C897 C892 1.425 . S
C897 C894 1.409 . S
C897 C895 1.415 . S
C898 H888 0.930 . S
C898 C896 1.419 . S
C898 C899 1.362 . S
C899 H889 0.930 . S
C899 C892 1.409 . S
C899 C898 1.362 . S
H900 C906 0.930 . S
H901 C909 0.930 . S
H902 C910 0.930 . S
H903 C911 0.930 . S
H904 C914 0.930 . S
H905 C915 0.930 . S
C906 H900 0.930 . S
C906 C907 1.355 . S
C906 C908 1.415 . S
C907 C906 1.355 . S
C907 C909 1.419 . S
C908 C906 1.415 . S
C908 C913 1.425 . S
C908 C915 1.409 . S
C909 H901 0.930 . S
C909 C907 1.419 . S
C909 C910 1.362 . S
C910 H902 0.930 . S
C910 C909 1.362 . S
C910 C913 1.409 . S
C911 H903 0.930 . S
C911 C912 1.355 . S
C911 C913 1.415 . S
C912 C911 1.355 . S
C912 C914 1.419 . S
C913 C908 1.425 . S
C913 C910 1.409 . S
C913 C911 1.415 . S
C914 H904 0.930 . S
C914 C912 1.419 . S
C914 C915 1.362 . S
C915 H905 0.930 . S
C915 C908 1.409 . S
C915 C914 1.362 . S
H916 C922 0.930 . S
H917 C925 0.930 . S
H918 C926 0.930 . S
H919 C927 0.930 . S
H920 C930 0.930 . S
H921 C931 0.930 . S
C922 H916 0.930 . S
C922 C923 1.355 . S
C922 C924 1.415 . S
C923 C922 1.355 . S
C923 C925 1.419 . S
C924 C922 1.415 . S
C924 C929 1.425 . S
C924 C931 1.409 . S
C925 H917 0.930 . S
C925 C923 1.419 . S
C925 C926 1.362 . S
C926 H918 0.930 . S
C926 C925 1.362 . S
C926 C929 1.409 . S
C927 H919 0.930 . S
C927 C928 1.355 . S
C927 C929 1.415 . S
C928 C927 1.355 . S
C928 C930 1.419 . S
C929 C924 1.425 . S
C929 C926 1.409 . S
C929 C927 1.415 . S
C930 H920 0.930 . S
C930 C928 1.419 . S
C930 C931 1.362 . S
C931 H921 0.930 . S
C931 C924 1.409 . S
C931 C930 1.362 . S
H932 C938 0.930 . S
H933 C941 0.930 . S
H934 C942 0.930 . S
H935 C943 0.930 . S
H936 C946 0.930 . S
H937 C947 0.930 . S
C938 H932 0.930 . S
C938 C939 1.355 . S
C938 C940 1.415 . S
C939 C938 1.355 . S
C939 C941 1.419 . S
C940 C938 1.415 . S
C940 C945 1.425 . S
C940 C947 1.409 . S
C941 H933 0.930 . S
C941 C939 1.419 . S
C941 C942 1.362 . S
C942 H934 0.930 . S
C942 C941 1.362 . S
C942 C945 1.409 . S
C943 H935 0.930 . S
C943 C944 1.355 . S
C943 C945 1.415 . S
C944 C943 1.355 . S
C944 C946 1.419 . S
C945 C940 1.425 . S
C945 C942 1.409 . S
C945 C943 1.415 . S
C946 H936 0.930 . S
C946 C944 1.419 . S
C946 C947 1.362 . S
C947 H937 0.930 . S
C947 C940 1.409 . S
C947 C946 1.362 . S
H948 C954 0.930 . S
H949 C957 0.930 . S
H950 C958 0.930 . S
H951 C959 0.930 . S
H952 C962 0.930 . S
H953 C963 0.930 . S
C954 H948 0.930 . S
C954 C955 1.355 . S
C954 C956 1.415 . S
C955 C954 1.355 . S
C955 C957 1.419 . S
C956 C954 1.415 . S
C956 C961 1.425 . S
C956 C963 1.409 . S
C957 H949 0.930 . S
C957 C955 1.419 . S
C957 C958 1.362 . S
C958 H950 0.930 . S
C958 C957 1.362 . S
C958 C961 1.409 . S
C959 H951 0.930 . S
C959 C960 1.355 . S
C959 C961 1.415 . S
C960 C959 1.355 . S
C960 C962 1.419 . S
C961 C956 1.425 . S
C961 C958 1.409 . S
C961 C959 1.415 . S
C962 H952 0.930 . S
C962 C960 1.419 . S
C962 C963 1.362 . S
C963 H953 0.930 . S
C963 C956 1.409 . S
C963 C962 1.362 . S
H964 C970 0.930 . S
H965 C973 0.930 . S
H966 C974 0.930 . S
H967 C975 0.930 . S
H968 C978 0.930 . S
H969 C979 0.930 . S
C970 H964 0.930 . S
C970 C971 1.355 . S
C970 C972 1.415 . S
C971 C970 1.355 . S
C971 C973 1.419 . S
C972 C970 1.415 . S
C972 C977 1.425 . S
C972 C979 1.409 . S
C973 H965 0.930 . S
C973 C971 1.419 . S
C973 C974 1.362 . S
C974 H966 0.930 . S
C974 C973 1.362 . S
C974 C977 1.409 . S
C975 H967 0.930 . S
C975 C976 1.355 . S
C975 C977 1.415 . S
C976 C975 1.355 . S
C976 C978 1.419 . S
C977 C972 1.425 . S
C977 C974 1.409 . S
C977 C975 1.415 . S
C978 H968 0.930 . S
C978 C976 1.419 . S
C978 C979 1.362 . S
C979 H969 0.930 . S
C979 C972 1.409 . S
C979 C978 1.362 . S
H980 C986 0.930 . S
H981 C989 0.930 . S
H982 C990 0.930 . S
H983 C991 0.930 . S
H984 C994 0.930 . S
H985 C995 0.930 . S
C986 H980 0.930 . S
C986 C987 1.355 . S
C986 C988 1.415 . S
C987 C986 1.355 . S
C987 C989 1.419 . S
C988 C986 1.415 . S
C988 C993 1.425 . S
C988 C995 1.409 . S
C989 H981 0.930 . S
C989 C987 1.419 . S
C989 C990 1.362 . S
C990 H982 0.930 . S
C990 C989 1.362 . S
C990 C993 1.409 . S
C991 H983 0.930 . S
C991 C992 1.355 . S
C991 C993 1.415 . S
C992 C991 1.355 . S
C992 C994 1.419 . S
C993 C988 1.425 . S
C993 C990 1.409 . S
C993 C991 1.415 . S
C994 H984 0.930 . S
C994 C992 1.419 . S
C994 C995 1.362 . S
C995 H985 0.930 . S
C995 C988 1.409 . S
C995 C994 1.362 . S
H996 C1002 0.930 . S
H997 C1005 0.930 . S
H998 C1006 0.930 . S
H999 C1007 0.930 . S
H1000 C1010 0.930 . S
H1001 C1011 0.930 . S
C1002 H996 0.930 . S
C1002 C1003 1.355 . S
C1002 C1004 1.415 . S
C1003 C1002 1.355 . S
C1003 C1005 1.419 . S
C1004 C1002 1.415 . S
C1004 C1009 1.425 1_556 S
C1004 C1011 1.409 . S
C1005 H997 0.930 . S
C1005 C1003 1.419 . S
C1005 C1006 1.362 1_556 S
C1006 H998 0.930 . S
C1006 C1005 1.362 1_554 S
C1006 C1009 1.409 . S
C1007 H999 0.930 . S
C1007 C1008 1.355 . S
C1007 C1009 1.415 . S
C1008 C1007 1.355 . S
C1008 C1010 1.419 . S
C1009 C1004 1.425 1_554 S
C1009 C1006 1.409 . S
C1009 C1007 1.415 . S
C1010 H1000 0.930 . S
C1010 C1008 1.419 . S
C1010 C1011 1.362 1_554 S
C1011 H1001 0.930 . S
C1011 C1004 1.409 . S
C1011 C1010 1.362 1_556 S
H1012 C1018 0.930 . S
H1013 C1021 0.930 . S
H1014 C1022 0.930 . S
H1015 C1023 0.930 . S
H1016 C1026 0.930 . S
H1017 C1027 0.930 . S
C1018 H1012 0.930 . S
C1018 C1019 1.355 . S
C1018 C1020 1.415 . S
C1019 C1018 1.355 . S
C1019 C1021 1.419 . S
C1020 C1018 1.415 . S
C1020 C1025 1.425 1_556 S
C1020 C1027 1.409 1_556 S
C1021 H1013 0.930 . S
C1021 C1019 1.419 . S
C1021 C1022 1.362 . S
C1022 H1014 0.930 . S
C1022 C1021 1.362 . S
C1022 C1025 1.409 1_556 S
C1023 H1015 0.930 . S
C1023 C1024 1.355 . S
C1023 C1025 1.415 . S
C1024 C1023 1.355 . S
C1024 C1026 1.419 . S
C1025 C1020 1.425 1_554 S
C1025 C1022 1.409 1_554 S
C1025 C1023 1.415 . S
C1026 H1016 0.930 . S
C1026 C1024 1.419 . S
C1026 C1027 1.362 . S
C1027 H1017 0.930 . S
C1027 C1020 1.409 1_554 S
C1027 C1026 1.362 . S
H1028 C1034 0.930 . S
H1029 C1037 0.930 . S
H1030 C1038 0.930 . S
H1031 C1039 0.930 . S
H1032 C1042 0.930 . S
H1033 C1043 0.930 . S
C1034 H1028 0.930 . S
C1034 C1035 1.355 . S
C1034 C1036 1.415 1_556 S
C1035 C1034 1.355 . S
C1035 C1037 1.419 . S
C1036 C1034 1.415 1_554 S
C1036 C1041 1.426 . S
C1036 C1043 1.409 . S
C1037 H1029 0.930 . S
C1037 C1035 1.419 . S
C1037 C1038 1.362 . S
C1038 H1030 0.930 . S
C1038 C1037 1.362 . S
C1038 C1041 1.405 1_556 S
C1039 H1031 0.930 . S
C1039 C1040 1.355 . S
C1039 C1041 1.419 . S
C1040 C1039 1.355 . S
C1040 C1042 1.419 . S
C1041 C1036 1.426 . S
C1041 C1038 1.405 1_554 S
C1041 C1039 1.419 . S
C1042 H1032 0.930 . S
C1042 C1040 1.419 . S
C1042 C1043 1.362 . S
C1043 H1033 0.930 . S
C1043 C1036 1.409 . S
C1043 C1042 1.362 . S
H1044 C1050 0.930 . S
H1045 C1053 0.930 . S
H1046 C1054 0.930 . S
H1047 C1055 0.930 . S
H1048 C1058 0.930 . S
H1049 C1059 0.930 . S
C1050 H1044 0.930 . S
C1050 C1051 1.355 . S
C1050 C1052 1.415 . S
C1051 C1050 1.355 . S
C1051 C1053 1.419 . S
C1052 C1050 1.415 . S
C1052 C1057 1.425 . S
C1052 C1059 1.409 . S
C1053 H1045 0.930 . S
C1053 C1051 1.419 . S
C1053 C1054 1.362 . S
C1054 H1046 0.930 . S
C1054 C1053 1.362 . S
C1054 C1057 1.409 . S
C1055 H1047 0.930 . S
C1055 C1056 1.355 . S
C1055 C1057 1.415 . S
C1056 C1055 1.355 . S
C1056 C1058 1.419 . S
C1057 C1052 1.425 . S
C1057 C1054 1.409 . S
C1057 C1055 1.415 . S
C1058 H1048 0.930 . S
C1058 C1056 1.419 . S
C1058 C1059 1.362 . S
C1059 H1049 0.930 . S
C1059 C1052 1.409 . S
C1059 C1058 1.362 . S
H1060 C1066 0.930 . S
H1061 C1069 0.930 . S
H1062 C1070 0.930 . S
H1063 C1071 0.930 . S
H1064 C1074 0.930 . S
H1065 C1075 0.930 . S
C1066 H1060 0.930 . S
C1066 C1067 1.355 . S
C1066 C1068 1.415 . S
C1067 C1066 1.355 . S
C1067 C1069 1.419 . S
C1068 C1066 1.415 . S
C1068 C1073 1.425 . S
C1068 C1075 1.409 . S
C1069 H1061 0.930 . S
C1069 C1067 1.419 . S
C1069 C1070 1.362 . S
C1070 H1062 0.930 . S
C1070 C1069 1.362 . S
C1070 C1073 1.409 . S
C1071 H1063 0.930 . S
C1071 C1072 1.355 . S
C1071 C1073 1.415 . S
C1072 C1071 1.355 . S
C1072 C1074 1.419 . S
C1073 C1068 1.425 . S
C1073 C1070 1.409 . S
C1073 C1071 1.415 . S
C1074 H1064 0.930 . S
C1074 C1072 1.419 . S
C1074 C1075 1.362 . S
C1075 H1065 0.930 . S
C1075 C1068 1.409 . S
C1075 C1074 1.362 . S
H1076 C1082 0.930 . S
H1077 C1085 0.930 . S
H1078 C1086 0.930 . S
H1079 C1087 0.930 . S
H1080 C1090 0.930 . S
H1081 C1091 0.930 . S
C1082 H1076 0.930 . S
C1082 C1083 1.355 . S
C1082 C1084 1.415 . S
C1083 C1082 1.355 . S
C1083 C1085 1.419 . S
C1084 C1082 1.415 . S
C1084 C1089 1.425 . S
C1084 C1091 1.409 . S
C1085 H1077 0.930 . S
C1085 C1083 1.419 . S
C1085 C1086 1.362 . S
C1086 H1078 0.930 . S
C1086 C1085 1.362 . S
C1086 C1089 1.409 . S
C1087 H1079 0.930 . S
C1087 C1088 1.355 . S
C1087 C1089 1.415 . S
C1088 C1087 1.355 . S
C1088 C1090 1.419 . S
C1089 C1084 1.425 . S
C1089 C1086 1.409 . S
C1089 C1087 1.415 . S
C1090 H1080 0.930 . S
C1090 C1088 1.419 . S
C1090 C1091 1.362 . S
C1091 H1081 0.930 . S
C1091 C1084 1.409 . S
C1091 C1090 1.362 . S
H1092 C1098 0.930 . S
H1093 C1101 0.930 . S
H1094 C1102 0.930 . S
H1095 C1103 0.930 . S
H1096 C1106 0.930 . S
H1097 C1107 0.930 . S
C1098 H1092 0.930 . S
C1098 C1099 1.355 . S
C1098 C1100 1.415 . S
C1099 C1098 1.355 . S
C1099 C1101 1.419 . S
C1100 C1098 1.415 . S
C1100 C1105 1.425 . S
C1100 C1107 1.409 . S
C1101 H1093 0.930 . S
C1101 C1099 1.419 . S
C1101 C1102 1.362 . S
C1102 H1094 0.930 . S
C1102 C1101 1.362 . S
C1102 C1105 1.409 . S
C1103 H1095 0.930 . S
C1103 C1104 1.355 . S
C1103 C1105 1.415 . S
C1104 C1103 1.355 . S
C1104 C1106 1.419 . S
C1105 C1100 1.425 . S
C1105 C1102 1.409 . S
C1105 C1103 1.415 . S
C1106 H1096 0.930 . S
C1106 C1104 1.419 . S
C1106 C1107 1.362 . S
C1107 H1097 0.930 . S
C1107 C1100 1.409 . S
C1107 C1106 1.362 . S
H1108 C1114 0.930 . S
H1109 C1117 0.930 . S
H1110 C1118 0.930 . S
H1111 C1119 0.930 . S
H1112 C1122 0.930 . S
H1113 C1123 0.930 . S
C1114 H1108 0.930 . S
C1114 C1115 1.355 . S
C1114 C1116 1.415 . S
C1115 C1114 1.355 . S
C1115 C1117 1.419 . S
C1116 C1114 1.415 . S
C1116 C1121 1.425 . S
C1116 C1123 1.409 . S
C1117 H1109 0.930 . S
C1117 C1115 1.419 . S
C1117 C1118 1.362 . S
C1118 H1110 0.930 . S
C1118 C1117 1.362 . S
C1118 C1121 1.409 . S
C1119 H1111 0.930 . S
C1119 C1120 1.355 . S
C1119 C1121 1.415 . S
C1120 C1119 1.355 . S
C1120 C1122 1.419 . S
C1121 C1116 1.425 . S
C1121 C1118 1.409 . S
C1121 C1119 1.415 . S
C1122 H1112 0.930 . S
C1122 C1120 1.419 . S
C1122 C1123 1.362 . S
C1123 H1113 0.930 . S
C1123 C1116 1.409 . S
C1123 C1122 1.362 . S
H1124 C1130 0.930 . S
H1125 C1133 0.930 . S
H1126 C1134 0.930 . S
H1127 C1135 0.930 . S
H1128 C1138 0.930 . S
H1129 C1139 0.930 . S
C1130 H1124 0.930 . S
C1130 C1131 1.355 . S
C1130 C1132 1.415 . S
C1131 C1130 1.355 . S
C1131 C1133 1.419 . S
C1132 C1130 1.415 . S
C1132 C1137 1.425 . S
C1132 C1139 1.409 . S
C1133 H1125 0.930 . S
C1133 C1131 1.419 . S
C1133 C1134 1.362 . S
C1134 H1126 0.930 . S
C1134 C1133 1.362 . S
C1134 C1137 1.409 . S
C1135 H1127 0.930 . S
C1135 C1136 1.355 . S
C1135 C1137 1.415 . S
C1136 C1135 1.355 . S
C1136 C1138 1.419 . S
C1137 C1132 1.425 . S
C1137 C1134 1.409 . S
C1137 C1135 1.415 . S
C1138 H1128 0.930 . S
C1138 C1136 1.419 . S
C1138 C1139 1.362 . S
C1139 H1129 0.930 . S
C1139 C1132 1.409 . S
C1139 C1138 1.362 . S
H1140 C1146 0.930 . S
H1141 C1149 0.930 . S
H1142 C1150 0.930 . S
H1143 C1151 0.930 . S
H1144 C1154 0.930 . S
H1145 C1155 0.930 . S
C1146 H1140 0.930 . S
C1146 C1147 1.355 . S
C1146 C1148 1.415 . S
C1147 C1146 1.355 . S
C1147 C1149 1.419 . S
C1148 C1146 1.415 . S
C1148 C1153 1.425 . S
C1148 C1155 1.409 . S
C1149 H1141 0.930 . S
C1149 C1147 1.419 . S
C1149 C1150 1.362 . S
C1150 H1142 0.930 . S
C1150 C1149 1.362 . S
C1150 C1153 1.409 . S
C1151 H1143 0.930 . S
C1151 C1152 1.355 . S
C1151 C1153 1.415 . S
C1152 C1151 1.355 . S
C1152 C1154 1.419 . S
C1153 C1148 1.425 . S
C1153 C1150 1.409 . S
C1153 C1151 1.415 . S
C1154 H1144 0.930 . S
C1154 C1152 1.419 . S
C1154 C1155 1.362 . S
C1155 H1145 0.930 . S
C1155 C1148 1.409 . S
C1155 C1154 1.362 . S
H1156 C1162 0.930 . S
H1157 C1165 0.930 . S
H1158 C1166 0.930 . S
H1159 C1167 0.930 . S
H1160 C1170 0.930 . S
H1161 C1171 0.930 . S
C1162 H1156 0.930 . S
C1162 C1163 1.355 . S
C1162 C1164 1.415 . S
C1163 C1162 1.355 . S
C1163 C1165 1.419 . S
C1164 C1162 1.415 . S
C1164 C1169 1.425 . S
C1164 C1171 1.409 . S
C1165 H1157 0.930 . S
C1165 C1163 1.419 . S
C1165 C1166 1.362 . S
C1166 H1158 0.930 . S
C1166 C1165 1.362 . S
C1166 C1169 1.409 . S
C1167 H1159 0.930 . S
C1167 C1168 1.355 . S
C1167 C1169 1.415 . S
C1168 C1167 1.355 . S
C1168 C1170 1.419 . S
C1169 C1164 1.425 . S
C1169 C1166 1.409 . S
C1169 C1167 1.415 . S
C1170 H1160 0.930 . S
C1170 C1168 1.419 . S
C1170 C1171 1.362 . S
C1171 H1161 0.930 . S
C1171 C1164 1.409 . S
C1171 C1170 1.362 . S
H1172 C1178 0.930 . S
H1173 C1181 0.930 . S
H1174 C1182 0.930 . S
H1175 C1183 0.930 . S
H1176 C1186 0.930 . S
H1177 C1187 0.930 . S
C1178 H1172 0.930 . S
C1178 C1179 1.355 . S
C1178 C1180 1.415 . S
C1179 C1178 1.355 . S
C1179 C1181 1.419 . S
C1180 C1178 1.415 . S
C1180 C1185 1.425 . S
C1180 C1187 1.409 . S
C1181 H1173 0.930 . S
C1181 C1179 1.419 . S
C1181 C1182 1.362 . S
C1182 H1174 0.930 . S
C1182 C1181 1.362 . S
C1182 C1185 1.409 . S
C1183 H1175 0.930 . S
C1183 C1184 1.355 . S
C1183 C1185 1.415 . S
C1184 C1183 1.355 . S
C1184 C1186 1.419 . S
C1185 C1180 1.425 . S
C1185 C1182 1.409 . S
C1185 C1183 1.415 . S
C1186 H1176 0.930 . S
C1186 C1184 1.419 . S
C1186 C1187 1.362 . S
C1187 H1177 0.930 . S
C1187 C1180 1.409 . S
C1187 C1186 1.362 . S
H1188 C1194 0.930 . S
H1189 C1197 0.930 . S
H1190 C1198 0.930 . S
H1191 C1199 0.930 . S
H1192 C1202 0.930 . S
H1193 C1203 0.930 . S
C1194 H1188 0.930 . S
C1194 C1195 1.355 . S
C1194 C1196 1.415 . S
C1195 C1194 1.355 . S
C1195 C1197 1.419 . S
C1196 C1194 1.415 . S
C1196 C1201 1.425 . S
C1196 C1203 1.409 . S
C1197 H1189 0.930 . S
C1197 C1195 1.419 . S
C1197 C1198 1.362 . S
C1198 H1190 0.930 . S
C1198 C1197 1.362 . S
C1198 C1201 1.409 . S
C1199 H1191 0.930 . S
C1199 C1200 1.355 . S
C1199 C1201 1.415 . S
C1200 C1199 1.355 . S
C1200 C1202 1.419 . S
C1201 C1196 1.425 . S
C1201 C1198 1.409 . S
C1201 C1199 1.415 . S
C1202 H1192 0.930 . S
C1202 C1200 1.419 . S
C1202 C1203 1.362 . S
C1203 H1193 0.930 . S
C1203 C1196 1.409 . S
C1203 C1202 1.362 . S
H1204 C1210 0.930 . S
H1205 C1213 0.930 . S
H1206 C1214 0.930 . S
H1207 C1215 0.930 . S
H1208 C1218 0.930 . S
H1209 C1219 0.930 . S
C1210 H1204 0.930 . S
C1210 C1211 1.355 . S
C1210 C1212 1.415 . S
C1211 C1210 1.355 . S
C1211 C1213 1.419 . S
C1212 C1210 1.415 . S
C1212 C1217 1.425 . S
C1212 C1219 1.409 . S
C1213 H1205 0.930 . S
C1213 C1211 1.419 . S
C1213 C1214 1.362 . S
C1214 H1206 0.930 . S
C1214 C1213 1.362 . S
C1214 C1217 1.409 . S
C1215 H1207 0.930 . S
C1215 C1216 1.355 . S
C1215 C1217 1.415 . S
C1216 C1215 1.355 . S
C1216 C1218 1.419 . S
C1217 C1212 1.425 . S
C1217 C1214 1.409 . S
C1217 C1215 1.415 . S
C1218 H1208 0.930 . S
C1218 C1216 1.419 . S
C1218 C1219 1.362 . S
C1219 H1209 0.930 . S
C1219 C1212 1.409 . S
C1219 C1218 1.362 . S
H1220 C1226 0.930 . S
H1221 C1229 0.930 . S
H1222 C1230 0.930 . S
H1223 C1231 0.930 . S
H1224 C1234 0.930 . S
H1225 C1235 0.930 . S
C1226 H1220 0.930 . S
C1226 C1227 1.355 . S
C1226 C1228 1.415 . S
C1227 C1226 1.355 . S
C1227 C1229 1.419 . S
C1228 C1226 1.415 . S
C1228 C1233 1.425 . S
C1228 C1235 1.409 . S
C1229 H1221 0.930 . S
C1229 C1227 1.419 . S
C1229 C1230 1.362 . S
C1230 H1222 0.930 . S
C1230 C1229 1.362 . S
C1230 C1233 1.409 . S
C1231 H1223 0.930 . S
C1231 C1232 1.355 . S
C1231 C1233 1.415 . S
C1232 C1231 1.355 . S
C1232 C1234 1.419 . S
C1233 C1228 1.425 . S
C1233 C1230 1.409 . S
C1233 C1231 1.415 . S
C1234 H1224 0.930 . S
C1234 C1232 1.419 . S
C1234 C1235 1.362 . S
C1235 H1225 0.930 . S
C1235 C1228 1.409 . S
C1235 C1234 1.362 . S
H1236 C1242 0.930 . S
H1237 C1245 0.930 . S
H1238 C1246 0.930 . S
H1239 C1247 0.930 . S
H1240 C1250 0.930 . S
H1241 C1251 0.930 . S
C1242 H1236 0.930 . S
C1242 C1243 1.355 . S
C1242 C1244 1.415 . S
C1243 C1242 1.355 . S
C1243 C1245 1.419 . S
C1244 C1242 1.415 . S
C1244 C1249 1.425 . S
C1244 C1251 1.409 . S
C1245 H1237 0.930 . S
C1245 C1243 1.419 . S
C1245 C1246 1.362 . S
C1246 H1238 0.930 . S
C1246 C1245 1.362 . S
C1246 C1249 1.409 . S
C1247 H1239 0.930 . S
C1247 C1248 1.355 . S
C1247 C1249 1.415 . S
C1248 C1247 1.355 . S
C1248 C1250 1.419 . S
C1249 C1244 1.425 . S
C1249 C1246 1.409 . S
C1249 C1247 1.415 . S
C1250 H1240 0.930 . S
C1250 C1248 1.419 . S
C1250 C1251 1.362 . S
C1251 H1241 0.930 . S
C1251 C1244 1.409 . S
C1251 C1250 1.362 . S
H1252 C1258 0.930 . S
H1253 C1261 0.930 . S
H1254 C1262 0.930 . S
H1255 C1263 0.930 . S
H1256 C1266 0.930 . S
H1257 C1267 0.930 . S
C1258 H1252 0.930 . S
C1258 C1259 1.355 . S
C1258 C1260 1.415 . S
C1259 C1258 1.355 . S
C1259 C1261 1.419 . S
C1260 C1258 1.415 . S
C1260 C1265 1.425 . S
C1260 C1267 1.409 . S
C1261 H1253 0.930 . S
C1261 C1259 1.419 . S
C1261 C1262 1.362 . S
C1262 H1254 0.930 . S
C1262 C1261 1.362 . S
C1262 C1265 1.409 . S
C1263 H1255 0.930 . S
C1263 C1264 1.355 . S
C1263 C1265 1.415 . S
C1264 C1263 1.355 . S
C1264 C1266 1.419 . S
C1265 C1260 1.425 . S
C1265 C1262 1.409 . S
C1265 C1263 1.415 . S
C1266 H1256 0.930 . S
C1266 C1264 1.419 . S
C1266 C1267 1.362 . S
C1267 H1257 0.930 . S
C1267 C1260 1.409 . S
C1267 C1266 1.362 . S
H1268 C1274 0.930 . S
H1269 C1277 0.930 . S
H1270 C1278 0.930 . S
H1271 C1279 0.930 . S
H1272 C1282 0.930 . S
H1273 C1283 0.930 . S
C1274 H1268 0.930 . S
C1274 C1275 1.355 . S
C1274 C1276 1.415 . S
C1275 C1274 1.355 . S
C1275 C1277 1.419 . S
C1276 C1274 1.415 . S
C1276 C1281 1.425 . S
C1276 C1283 1.409 . S
C1277 H1269 0.930 . S
C1277 C1275 1.419 . S
C1277 C1278 1.362 . S
C1278 H1270 0.930 . S
C1278 C1277 1.362 . S
C1278 C1281 1.409 . S
C1279 H1271 0.930 . S
C1279 C1280 1.355 . S
C1279 C1281 1.415 . S
C1280 C1279 1.355 . S
C1280 C1282 1.419 . S
C1281 C1276 1.425 . S
C1281 C1278 1.409 . S
C1281 C1279 1.415 . S
C1282 H1272 0.930 . S
C1282 C1280 1.419 . S
C1282 C1283 1.362 . S
C1283 H1273 0.930 . S
C1283 C1276 1.409 . S
C1283 C1282 1.362 . S
H1284 C1290 0.930 . S
H1285 C1293 0.930 . S
H1286 C1294 0.930 . S
H1287 C1295 0.930 . S
H1288 C1298 0.930 . S
H1289 C1299 0.930 . S
C1290 H1284 0.930 . S
C1290 C1291 1.355 . S
C1290 C1292 1.415 1_556 S
C1291 C1290 1.355 . S
C1291 C1293 1.419 . S
C1292 C1290 1.415 1_554 S
C1292 C1297 1.425 1_554 S
C1292 C1299 1.409 . S
C1293 H1285 0.930 . S
C1293 C1291 1.419 . S
C1293 C1294 1.362 . S
C1294 H1286 0.930 . S
C1294 C1293 1.362 . S
C1294 C1297 1.409 . S
C1295 H1287 0.930 . S
C1295 C1296 1.355 . S
C1295 C1297 1.415 1_554 S
C1296 C1295 1.355 . S
C1296 C1298 1.419 . S
C1297 C1292 1.425 1_556 S
C1297 C1294 1.409 . S
C1297 C1295 1.415 1_556 S
C1298 H1288 0.930 . S
C1298 C1296 1.419 . S
C1298 C1299 1.362 . S
C1299 H1289 0.930 . S
C1299 C1292 1.409 . S
C1299 C1298 1.362 . S
H1300 C1306 0.930 . S
H1301 C1309 0.930 . S
H1302 C1310 0.926 1_554 S
H1303 C1311 0.930 . S
H1304 C1314 0.930 . S
H1305 C1315 0.930 1_556 S
C1306 H1300 0.930 . S
C1306 C1307 1.355 . S
C1306 C1308 1.415 . S
C1307 C1306 1.355 . S
C1307 C1309 1.419 . S
C1308 C1306 1.415 . S
C1308 C1313 1.425 1_556 S
C1308 C1315 1.409 1_556 S
C1309 H1301 0.930 . S
C1309 C1307 1.419 . S
C1309 C1310 1.362 . S
C1310 H1302 0.926 1_556 S
C1310 C1309 1.362 . S
C1310 C1313 1.409 1_556 S
C1311 H1303 0.930 . S
C1311 C1312 1.355 . S
C1311 C1313 1.415 . S
C1312 C1311 1.355 . S
C1312 C1314 1.419 . S
C1313 C1308 1.425 1_554 S
C1313 C1310 1.409 1_554 S
C1313 C1311 1.415 . S
C1314 H1304 0.930 . S
C1314 C1312 1.419 . S
C1314 C1315 1.362 . S
C1315 H1305 0.930 1_554 S
C1315 C1308 1.409 1_554 S
C1315 C1314 1.362 . S
H1316 C1322 0.930 . S
H1317 C1325 0.930 . S
H1318 C1326 0.930 . S
H1319 C1327 0.930 . S
H1320 C1330 0.930 . S
H1321 C1331 0.930 1_556 S
C1322 H1316 0.930 . S
C1322 C1323 1.355 . S
C1322 C1324 1.415 . S
C1323 C1322 1.355 . S
C1323 C1325 1.419 . S
C1324 C1322 1.415 . S
C1324 C1329 1.425 1_556 S
C1324 C1331 1.409 1_556 S
C1325 H1317 0.930 . S
C1325 C1323 1.419 . S
C1325 C1326 1.362 . S
C1326 H1318 0.930 . S
C1326 C1325 1.362 . S
C1326 C1329 1.409 1_556 S
C1327 H1319 0.930 . S
C1327 C1328 1.355 . S
C1327 C1329 1.415 . S
C1328 C1327 1.355 . S
C1328 C1330 1.419 . S
C1329 C1324 1.425 1_554 S
C1329 C1326 1.409 1_554 S
C1329 C1327 1.415 . S
C1330 H1320 0.930 . S
C1330 C1328 1.419 . S
C1330 C1331 1.362 . S
C1331 H1321 0.930 1_554 S
C1331 C1324 1.409 1_554 S
C1331 C1330 1.362 . S
H1332 C1338 0.930 . S
H1333 C1341 0.930 . S
H1334 C1342 0.930 . S
H1335 C1343 0.930 . S
H1336 C1346 0.930 . S
H1337 C1347 0.930 1_554 S
C1338 H1332 0.930 . S
C1338 C1339 1.355 . S
C1338 C1340 1.415 . S
C1339 C1338 1.355 . S
C1339 C1341 1.419 . S
C1340 C1338 1.415 . S
C1340 C1345 1.425 . S
C1340 C1347 1.409 . S
C1341 H1333 0.930 . S
C1341 C1339 1.419 . S
C1341 C1342 1.362 . S
C1342 H1334 0.930 . S
C1342 C1341 1.362 . S
C1342 C1345 1.409 . S
C1343 H1335 0.930 . S
C1343 C1344 1.355 . S
C1343 C1345 1.415 . S
C1344 C1343 1.355 . S
C1344 C1346 1.419 1_556 S
C1345 C1340 1.425 . S
C1345 C1342 1.409 . S
C1345 C1343 1.415 . S
C1346 H1336 0.930 . S
C1346 C1344 1.419 1_554 S
C1346 C1347 1.362 1_554 S
C1347 H1337 0.930 1_556 S
C1347 C1340 1.409 . S
C1347 C1346 1.362 1_556 S
H1348 C1354 0.930 . S
H1349 C1357 0.930 . S
H1350 C1358 0.930 . S
H1351 C1359 0.930 . S
H1352 C1362 0.930 . S
H1353 C1363 0.930 . S
C1354 H1348 0.930 . S
C1354 C1355 1.355 . S
C1354 C1356 1.415 . S
C1355 C1354 1.355 . S
C1355 C1357 1.419 . S
C1356 C1354 1.415 . S
C1356 C1361 1.425 . S
C1356 C1363 1.409 . S
C1357 H1349 0.930 . S
C1357 C1355 1.419 . S
C1357 C1358 1.362 . S
C1358 H1350 0.930 . S
C1358 C1357 1.362 . S
C1358 C1361 1.409 . S
C1359 H1351 0.930 . S
C1359 C1360 1.355 . S
C1359 C1361 1.415 . S
C1360 C1359 1.355 . S
C1360 C1362 1.419 . S
C1361 C1356 1.425 . S
C1361 C1358 1.409 . S
C1361 C1359 1.415 . S
C1362 H1352 0.930 . S
C1362 C1360 1.419 . S
C1362 C1363 1.362 . S
C1363 H1353 0.930 . S
C1363 C1356 1.409 . S
C1363 C1362 1.362 . S
H1364 C1370 0.930 . S
H1365 C1373 0.930 . S
H1366 C1374 0.930 . S
H1367 C1375 0.930 . S
H1368 C1378 0.930 1_554 S
H1369 C1379 0.930 . S
C1370 H1364 0.930 . S
C1370 C1371 1.355 . S
C1370 C1372 1.415 . S
C1371 C1370 1.355 . S
C1371 C1373 1.419 . S
C1372 C1370 1.415 . S
C1372 C1377 1.425 . S
C1372 C1379 1.409 . S
C1373 H1365 0.930 . S
C1373 C1371 1.419 . S
C1373 C1374 1.362 . S
C1374 H1366 0.930 . S
C1374 C1373 1.362 . S
C1374 C1377 1.409 . S
C1375 H1367 0.930 . S
C1375 C1376 1.355 . S
C1375 C1377 1.415 . S
C1376 C1375 1.355 . S
C1376 C1378 1.419 . S
C1377 C1372 1.425 . S
C1377 C1374 1.409 . S
C1377 C1375 1.415 . S
C1378 H1368 0.930 1_556 S
C1378 C1376 1.419 . S
C1378 C1379 1.362 . S
C1379 H1369 0.930 . S
C1379 C1372 1.409 . S
C1379 C1378 1.362 . S
H1380 C1386 0.930 . S
H1381 C1389 0.930 . S
H1382 C1390 0.930 . S
H1383 C1391 0.930 . S
H1384 C1394 0.930 . S
H1385 C1395 0.930 . S
C1386 H1380 0.930 . S
C1386 C1387 1.355 . S
C1386 C1388 1.415 . S
C1387 C1386 1.355 . S
C1387 C1389 1.419 . S
C1388 C1386 1.415 . S
C1388 C1393 1.425 . S
C1388 C1395 1.409 . S
C1389 H1381 0.930 . S
C1389 C1387 1.419 . S
C1389 C1390 1.362 . S
C1390 H1382 0.930 . S
C1390 C1389 1.362 . S
C1390 C1393 1.409 . S
C1391 H1383 0.930 . S
C1391 C1392 1.355 . S
C1391 C1393 1.415 . S
C1392 C1391 1.355 . S
C1392 C1394 1.419 . S
C1393 C1388 1.425 . S
C1393 C1390 1.409 . S
C1393 C1391 1.415 . S
C1394 H1384 0.930 . S
C1394 C1392 1.419 . S
C1394 C1395 1.362 . S
C1395 H1385 0.930 . S
C1395 C1388 1.409 . S
C1395 C1394 1.362 . S
H1396 C1402 0.930 . S
H1397 C1405 0.930 . S
H1398 C1406 0.930 . S
H1399 C1407 0.930 . S
H1400 C1410 0.930 . S
H1401 C1411 0.930 . S
C1402 H1396 0.930 . S
C1402 C1403 1.355 . S
C1402 C1404 1.415 . S
C1403 C1402 1.355 . S
C1403 C1405 1.419 . S
C1404 C1402 1.415 . S
C1404 C1409 1.425 . S
C1404 C1411 1.409 . S
C1405 H1397 0.930 . S
C1405 C1403 1.419 . S
C1405 C1406 1.362 . S
C1406 H1398 0.930 . S
C1406 C1405 1.362 . S
C1406 C1409 1.409 . S
C1407 H1399 0.930 . S
C1407 C1408 1.355 . S
C1407 C1409 1.415 . S
C1408 C1407 1.355 . S
C1408 C1410 1.419 . S
C1409 C1404 1.425 . S
C1409 C1406 1.409 . S
C1409 C1407 1.415 . S
C1410 H1400 0.930 . S
C1410 C1408 1.419 . S
C1410 C1411 1.362 . S
C1411 H1401 0.930 . S
C1411 C1404 1.409 . S
C1411 C1410 1.362 . S
H1412 C1418 0.930 . S
H1413 C1421 0.930 . S
H1414 C1422 0.930 . S
H1415 C1423 0.930 . S
H1416 C1426 0.930 . S
H1417 C1427 0.930 . S
C1418 H1412 0.930 . S
C1418 C1419 1.355 . S
C1418 C1420 1.415 . S
C1419 C1418 1.355 . S
C1419 C1421 1.419 . S
C1420 C1418 1.415 . S
C1420 C1425 1.425 . S
C1420 C1427 1.409 . S
C1421 H1413 0.930 . S
C1421 C1419 1.419 . S
C1421 C1422 1.362 . S
C1422 H1414 0.930 . S
C1422 C1421 1.362 . S
C1422 C1425 1.409 . S
C1423 H1415 0.930 . S
C1423 C1424 1.355 . S
C1423 C1425 1.415 . S
C1424 C1423 1.355 . S
C1424 C1426 1.419 . S
C1425 C1420 1.425 . S
C1425 C1422 1.409 . S
C1425 C1423 1.415 . S
C1426 H1416 0.930 . S
C1426 C1424 1.419 . S
C1426 C1427 1.362 . S
C1427 H1417 0.930 . S
C1427 C1420 1.409 . S
C1427 C1426 1.362 . S
H1428 C1434 0.930 . S
H1429 C1437 0.942 . S
H1430 C1438 0.930 . S
H1431 C1439 0.930 . S
H1432 C1442 0.930 . S
H1433 C1443 0.930 . S
C1434 H1428 0.930 . S
C1434 C1435 1.355 . S
C1434 C1436 1.415 . S
C1435 C1434 1.355 . S
C1435 C1437 1.415 1_554 S
C1436 C1434 1.415 . S
C1436 C1441 1.425 . S
C1436 C1443 1.409 . S
C1437 H1429 0.942 . S
C1437 C1435 1.415 1_556 S
C1437 C1438 1.355 1_556 S
C1438 H1430 0.930 . S
C1438 C1437 1.355 1_554 S
C1438 C1441 1.409 . S
C1439 H1431 0.930 . S
C1439 C1440 1.355 . S
C1439 C1441 1.415 . S
C1440 C1439 1.355 . S
C1440 C1442 1.419 . S
C1441 C1436 1.425 . S
C1441 C1438 1.409 . S
C1441 C1439 1.415 . S
C1442 H1432 0.930 . S
C1442 C1440 1.419 . S
C1442 C1443 1.362 . S
C1443 H1433 0.930 . S
C1443 C1436 1.409 . S
C1443 C1442 1.362 . S
H1444 C1450 0.930 . S
H1445 C1453 0.930 . S
H1446 C1454 0.930 1_556 S
H1447 C1455 0.930 1_556 S
H1448 C1458 0.930 . S
H1449 C1459 0.930 . S
C1450 H1444 0.930 . S
C1450 C1451 1.355 . S
C1450 C1452 1.415 . S
C1451 C1450 1.355 . S
C1451 C1453 1.419 . S
C1452 C1450 1.415 . S
C1452 C1457 1.425 . S
C1452 C1459 1.409 . S
C1453 H1445 0.930 . S
C1453 C1451 1.419 . S
C1453 C1454 1.362 . S
C1454 H1446 0.930 1_554 S
C1454 C1453 1.362 . S
C1454 C1457 1.409 . S
C1455 H1447 0.930 1_554 S
C1455 C1456 1.355 . S
C1455 C1457 1.415 . S
C1456 C1455 1.355 . S
C1456 C1458 1.419 . S
C1457 C1452 1.425 . S
C1457 C1454 1.409 . S
C1457 C1455 1.415 . S
C1458 H1448 0.930 . S
C1458 C1456 1.419 . S
C1458 C1459 1.362 . S
C1459 H1449 0.930 . S
C1459 C1452 1.409 . S
C1459 C1458 1.362 . S
H1460 C1466 0.930 . S
H1461 C1469 0.930 . S
H1462 C1470 0.930 . S
H1463 C1471 0.930 . S
H1464 C1474 0.930 1_556 S
H1465 C1475 0.930 . S
C1466 H1460 0.930 . S
C1466 C1467 1.355 . S
C1466 C1468 1.415 . S
C1467 C1466 1.355 . S
C1467 C1469 1.419 . S
C1468 C1466 1.415 . S
C1468 C1473 1.425 . S
C1468 C1475 1.409 . S
C1469 H1461 0.930 . S
C1469 C1467 1.419 . S
C1469 C1470 1.362 . S
C1470 H1462 0.930 . S
C1470 C1469 1.362 . S
C1470 C1473 1.409 . S
C1471 H1463 0.930 . S
C1471 C1472 1.355 . S
C1471 C1473 1.415 . S
C1472 C1471 1.355 . S
C1472 C1474 1.419 . S
C1473 C1468 1.425 . S
C1473 C1470 1.409 . S
C1473 C1471 1.415 . S
C1474 H1464 0.930 1_554 S
C1474 C1472 1.419 . S
C1474 C1475 1.362 . S
C1475 H1465 0.930 . S
C1475 C1468 1.409 . S
C1475 C1474 1.362 . S
H1476 C1482 0.930 . S
H1477 C1485 0.930 . S
H1478 C1486 0.930 . S
H1479 C1487 0.930 . S
H1480 C1490 0.930 . S
H1481 C1491 0.930 . S
C1482 H1476 0.930 . S
C1482 C1483 1.355 . S
C1482 C1484 1.415 . S
C1483 C1482 1.355 . S
C1483 C1485 1.419 . S
C1484 C1482 1.415 . S
C1484 C1489 1.425 . S
C1484 C1491 1.409 . S
C1485 H1477 0.930 . S
C1485 C1483 1.419 . S
C1485 C1486 1.362 . S
C1486 H1478 0.930 . S
C1486 C1485 1.362 . S
C1486 C1489 1.409 . S
C1487 H1479 0.930 . S
C1487 C1488 1.355 . S
C1487 C1489 1.415 . S
C1488 C1487 1.355 . S
C1488 C1490 1.419 . S
C1489 C1484 1.425 . S
C1489 C1486 1.409 . S
C1489 C1487 1.415 . S
C1490 H1480 0.930 . S
C1490 C1488 1.419 . S
C1490 C1491 1.362 . S
C1491 H1481 0.930 . S
C1491 C1484 1.409 . S
C1491 C1490 1.362 . S
H1492 C1498 0.930 . S
H1493 C1501 0.930 . S
H1494 C1502 0.930 . S
H1495 C1503 0.930 . S
H1496 C1506 0.930 . S
H1497 C1507 0.930 . S
C1498 H1492 0.930 . S
C1498 C1499 1.355 . S
C1498 C1500 1.415 . S
C1499 C1498 1.355 . S
C1499 C1501 1.419 . S
C1500 C1498 1.415 . S
C1500 C1505 1.425 . S
C1500 C1507 1.409 . S
C1501 H1493 0.930 . S
C1501 C1499 1.419 . S
C1501 C1502 1.362 . S
C1502 H1494 0.930 . S
C1502 C1501 1.362 . S
C1502 C1505 1.409 . S
C1503 H1495 0.930 . S
C1503 C1504 1.355 . S
C1503 C1505 1.415 . S
C1504 C1503 1.355 . S
C1504 C1506 1.419 . S
C1505 C1500 1.425 . S
C1505 C1502 1.409 . S
C1505 C1503 1.415 . S
C1506 H1496 0.930 . S
C1506 C1504 1.419 . S
C1506 C1507 1.362 . S
C1507 H1497 0.930 . S
C1507 C1500 1.409 . S
C1507 C1506 1.362 . S
H1508 C1514 0.930 . S
H1509 C1517 0.930 . S
H1510 C1518 0.930 . S
H1511 C1519 0.930 . S
H1512 C1522 0.930 . S
H1513 C1523 0.930 . S
C1514 H1508 0.930 . S
C1514 C1515 1.355 . S
C1514 C1516 1.415 . S
C1515 C1514 1.355 . S
C1515 C1517 1.419 . S
C1516 C1514 1.415 . S
C1516 C1521 1.425 . S
C1516 C1523 1.409 . S
C1517 H1509 0.930 . S
C1517 C1515 1.419 . S
C1517 C1518 1.362 . S
C1518 H1510 0.930 . S
C1518 C1517 1.362 . S
C1518 C1521 1.409 . S
C1519 H1511 0.930 . S
C1519 C1520 1.355 . S
C1519 C1521 1.415 . S
C1520 C1519 1.355 . S
C1520 C1522 1.419 . S
C1521 C1516 1.425 . S
C1521 C1518 1.409 . S
C1521 C1519 1.415 . S
C1522 H1512 0.930 . S
C1522 C1520 1.419 . S
C1522 C1523 1.362 . S
C1523 H1513 0.930 . S
C1523 C1516 1.409 . S
C1523 C1522 1.362 . S
H1524 C1530 0.930 . S
H1525 C1533 0.930 . S
H1526 C1534 0.930 . S
H1527 C1535 0.930 . S
H1528 C1538 0.930 . S
H1529 C1539 0.930 . S
C1530 H1524 0.930 . S
C1530 C1531 1.355 . S
C1530 C1532 1.415 . S
C1531 C1530 1.355 . S
C1531 C1533 1.419 . S
C1532 C1530 1.415 . S
C1532 C1537 1.425 1_655 S
C1532 C1539 1.409 . S
C1533 H1525 0.930 . S
C1533 C1531 1.419 . S
C1533 C1534 1.362 1_655 S
C1534 H1526 0.930 . S
C1534 C1533 1.362 1_455 S
C1534 C1537 1.409 . S
C1535 H1527 0.930 . S
C1535 C1536 1.355 . S
C1535 C1537 1.415 . S
C1536 C1535 1.355 . S
C1536 C1538 1.419 . S
C1537 C1532 1.425 1_455 S
C1537 C1534 1.409 . S
C1537 C1535 1.415 . S
C1538 H1528 0.930 . S
C1538 C1536 1.419 . S
C1538 C1539 1.362 1_455 S
C1539 H1529 0.930 . S
C1539 C1532 1.409 . S
C1539 C1538 1.362 1_655 S
H1540 C1546 0.930 . S
H1541 C1549 0.930 . S
H1542 C1550 0.930 . S
H1543 C1551 0.930 . S
H1544 C1554 0.930 . S
H1545 C1555 0.930 . S
C1546 H1540 0.930 . S
C1546 C1547 1.355 . S
C1546 C1548 1.415 . S
C1547 C1546 1.355 . S
C1547 C1549 1.419 . S
C1548 C1546 1.415 . S
C1548 C1553 1.425 . S
C1548 C1555 1.409 . S
C1549 H1541 0.930 . S
C1549 C1547 1.419 . S
C1549 C1550 1.362 . S
C1550 H1542 0.930 . S
C1550 C1549 1.362 . S
C1550 C1553 1.409 . S
C1551 H1543 0.930 . S
C1551 C1552 1.355 . S
C1551 C1553 1.415 . S
C1552 C1551 1.355 . S
C1552 C1554 1.419 . S
C1553 C1548 1.425 . S
C1553 C1550 1.409 . S
C1553 C1551 1.415 . S
C1554 H1544 0.930 . S
C1554 C1552 1.419 . S
C1554 C1555 1.362 . S
C1555 H1545 0.930 . S
C1555 C1548 1.409 . S
C1555 C1554 1.362 . S
H1556 C1562 0.930 . S
H1557 C1565 0.930 . S
H1558 C1566 0.930 . S
H1559 C1567 0.930 . S
H1560 C1570 0.930 . S
H1561 C1571 0.930 . S
C1562 H1556 0.930 . S
C1562 C1563 1.355 . S
C1562 C1564 1.415 . S
C1563 C1562 1.355 . S
C1563 C1565 1.419 . S
C1564 C1562 1.415 . S
C1564 C1569 1.425 1_565 S
C1564 C1571 1.409 1_565 S
C1565 H1557 0.930 . S
C1565 C1563 1.419 . S
C1565 C1566 1.362 . S
C1566 H1558 0.930 . S
C1566 C1565 1.362 . S
C1566 C1569 1.409 1_565 S
C1567 H1559 0.930 . S
C1567 C1568 1.355 . S
C1567 C1569 1.415 . S
C1568 C1567 1.355 . S
C1568 C1570 1.419 . S
C1569 C1564 1.425 1_545 S
C1569 C1566 1.409 1_545 S
C1569 C1567 1.415 . S
C1570 H1560 0.930 . S
C1570 C1568 1.419 . S
C1570 C1571 1.362 . S
C1571 H1561 0.930 . S
C1571 C1564 1.409 1_545 S
C1571 C1570 1.362 . S
H1572 C1578 0.930 . S
H1573 C1581 0.930 . S
H1574 C1582 0.930 . S
H1575 C1583 0.930 . S
H1576 C1586 0.930 . S
H1577 C1587 0.930 . S
C1578 H1572 0.930 . S
C1578 C1579 1.355 . S
C1578 C1580 1.415 1_545 S
C1579 C1578 1.355 . S
C1579 C1581 1.419 . S
C1580 C1578 1.415 1_565 S
C1580 C1585 1.425 1_565 S
C1580 C1587 1.409 . S
C1581 H1573 0.930 . S
C1581 C1579 1.419 . S
C1581 C1582 1.362 . S
C1582 H1574 0.930 . S
C1582 C1581 1.362 . S
C1582 C1585 1.409 . S
C1583 H1575 0.930 . S
C1583 C1584 1.355 . S
C1583 C1585 1.415 1_565 S
C1584 C1583 1.355 . S
C1584 C1586 1.419 . S
C1585 C1580 1.425 1_545 S
C1585 C1582 1.409 . S
C1585 C1583 1.415 1_545 S
C1586 H1576 0.930 . S
C1586 C1584 1.419 . S
C1586 C1587 1.362 . S
C1587 H1577 0.930 . S
C1587 C1580 1.409 . S
C1587 C1586 1.362 . S
H1588 C1594 0.930 . S
H1589 C1597 0.930 . S
H1590 C1598 0.930 . S
H1591 C1599 0.930 . S
H1592 C1602 0.930 . S
H1593 C1603 0.930 . S
C1594 H1588 0.930 . S
C1594 C1595 1.355 . S
C1594 C1596 1.415 . S
C1595 C1594 1.355 . S
C1595 C1597 1.419 . S
C1596 C1594 1.415 . S
C1596 C1601 1.425 1_455 S
C1596 C1603 1.409 . S
C1597 H1589 0.930 . S
C1597 C1595 1.419 . S
C1597 C1598 1.362 1_455 S
C1598 H1590 0.930 . S
C1598 C1597 1.362 1_655 S
C1598 C1601 1.409 . S
C1599 H1591 0.930 . S
C1599 C1600 1.355 . S
C1599 C1601 1.415 . S
C1600 C1599 1.355 . S
C1600 C1602 1.419 . S
C1601 C1596 1.425 1_655 S
C1601 C1598 1.409 . S
C1601 C1599 1.415 . S
C1602 H1592 0.930 . S
C1602 C1600 1.419 . S
C1602 C1603 1.362 1_655 S
C1603 H1593 0.930 . S
C1603 C1596 1.409 . S
C1603 C1602 1.362 1_455 S
H1604 C1610 0.930 . S
H1605 C1613 0.930 . S
H1606 C1614 0.930 . S
H1607 C1615 0.930 . S
H1608 C1618 0.930 . S
H1609 C1619 0.930 . S
C1610 H1604 0.930 . S
C1610 C1611 1.355 . S
C1610 C1612 1.415 . S
C1611 C1610 1.355 . S
C1611 C1613 1.419 . S
C1612 C1610 1.415 . S
C1612 C1617 1.425 . S
C1612 C1619 1.409 . S
C1613 H1605 0.930 . S
C1613 C1611 1.419 . S
C1613 C1614 1.362 . S
C1614 H1606 0.930 . S
C1614 C1613 1.362 . S
C1614 C1617 1.409 . S
C1615 H1607 0.930 . S
C1615 C1616 1.355 . S
C1615 C1617 1.415 . S
C1616 C1615 1.355 . S
C1616 C1618 1.419 . S
C1617 C1612 1.425 . S
C1617 C1614 1.409 . S
C1617 C1615 1.415 . S
C1618 H1608 0.930 . S
C1618 C1616 1.419 . S
C1618 C1619 1.362 . S
C1619 H1609 0.930 . S
C1619 C1612 1.409 . S
C1619 C1618 1.362 . S
C475 C75 1.184 . S
C480 C4 1.197 . S
C491 C17 1.216 . S
C496 C49 1.220 . S
C507 C62 1.221 . S
C512 C36 1.217 . S
C523 C82 1.191 . S
C528 C147 1.179 . S
C539 C95 1.218 . S
C544 C121 1.210 . S
C555 C134 1.211 . S
C560 C114 1.218 . S
C571 C225 1.167 . S
C576 C160 1.175 . S
C587 C179 1.220 . S
C592 C205 1.219 . S
C603 C218 1.166 . S
C608 C192 1.163 . S
C619 C238 1.221 . S
C624 C309 1.218 . S
C635 C257 1.217 . S
C640 C277 1.220 . S
C651 C264 1.175 . S
C656 C290 1.167 1_554 S
C667 C316 1.165 . S
C672 C387 1.172 1_556 S
C683 C361 1.164 1_556 S
C688 C329 1.171 . S
C699 C342 1.170 . S
C704 C374 1.180 1_556 S
C715 C400 1.221 . S
C720 C465 1.218 . S
C731 C407 1.204 . S
C736 C439 1.191 . S
C747 C420 1.199 . S
C752 C452 1.210 . S
C763 C140 1.417 . S
C768 C5 1.404 . S
C779 C153 1.414 . S
C784 C18 1.385 . S
C795 C127 1.402 . S
C800 C29 1.419 . S
C811 C108 1.421 . S
C816 C42 1.393 . S
C827 C55 1.421 . S
C832 C88 1.406 . S
C843 C68 1.418 . S
C848 C101 1.403 . S
C859 C83 1.413 . S
C864 C56 1.403 . S
C875 C96 1.381 . S
C880 C69 1.417 . S
C891 C107 1.385 . S
C896 C43 1.422 . S
C907 C30 1.418 . S
C912 C122 1.402 . S
C923 C10 1.403 . S
C928 C135 1.410 . S
C939 C148 1.420 . S
C944 C23 1.403 . S
C955 C161 1.379 . S
C960 C296 1.418 . S
C971 C172 1.412 . S
C976 C303 1.413 . S
C987 C283 1.415 . S
C992 C185 1.382 . S
C1003 C198 1.417 . S
C1008 C270 1.410 . S
C1019 C211 1.380 . S
C1024 C244 1.422 . S
C1035 C226 1.407 . S
C1040 C251 1.404 . S
C1051 C239 1.393 . S
C1056 C212 1.410 . S
C1067 C231 1.404 . S
C1072 C250 1.421 . S
C1083 C199 1.412 . S
C1088 C265 1.413 . S
C1099 C278 1.387 . S
C1104 C186 1.422 . S
C1115 C166 1.422 . S
C1120 C291 1.382 . S
C1131 C173 1.411 . S
C1136 C302 1.416 . S
C1147 C446 1.415 . S
C1152 C317 1.384 . S
C1163 C330 1.383 . S
C1168 C459 1.415 . S
C1179 C343 1.412 . S
C1184 C433 1.403 . S
C1195 C426 1.403 . S
C1200 C354 1.419 . S
C1211 C394 1.414 . S
C1216 C367 1.384 . S
C1227 C413 1.411 . S
C1232 C380 1.390 . S
C1243 C393 1.421 . S
C1248 C368 1.403 . S
C1259 C381 1.404 . S
C1264 C408 1.422 . S
C1275 C421 1.417 . S
C1280 C355 1.410 . S
C1291 C348 1.417 . S
C1296 C432 1.381 . S
C1307 C322 1.422 . S
C1312 C445 1.385 . S
C1323 C335 1.403 . S
C1328 C458 1.420 . S
C1339 C213 1.417 . S
C1344 C3 1.426 1_556 S
C1355 C16 1.397 1_556 S
C1360 C224 1.441 . S
C1371 C200 1.441 . S
C1376 C31 1.398 1_556 S
C1387 C341 1.437 . S
C1392 C44 1.404 . S
C1403 C57 1.409 . S
C1408 C315 1.426 . S
C1419 C70 1.405 . S
C1424 C328 1.436 . S
C1435 C81 1.434 1_554 S
C1440 C447 1.408 . S
C1451 C460 1.431 . S
C1456 C94 1.404 1_554 S
C1467 C434 1.398 . S
C1472 C109 1.441 1_554 S
C1483 C263 1.439 . S
C1488 C120 1.402 . S
C1499 C133 1.440 . S
C1504 C237 1.398 . S
C1515 C146 1.428 . S
C1520 C252 1.407 . S
C1531 C159 1.425 . S
C1536 C369 1.418 . S
C1547 C382 1.413 . S
C1552 C174 1.422 . S
C1563 C356 1.399 . S
C1568 C187 1.440 . S
C1579 C276 1.425 . S
C1584 C419 1.410 . S
C1595 C395 1.428 . S
C1600 C289 1.414 . S
C1611 C406 1.439 . S
C1616 C304 1.398 . S
