# Generated by pormake.
# Topology crs, (6)-cn, num edge types: 1
# Building blocks:
#     Node 0, Type 0, BuildingBlock: BETDIP_clean_sbu_0, # of connection points: 6
#     Node 1, Type 0, BuildingBlock: BETDIP_clean_sbu_0, # of connection points: 6
#     Node 2, Type 0, BuildingBlock: BETDIP_clean_sbu_0, # of connection points: 6
#     Node 3, Type 0, BuildingBlock: BETDIP_clean_sbu_0, # of connection points: 6
#     Node 4, Type 0, BuildingBlock: BETDIP_clean_sbu_0, # of connection points: 6
#     Node 5, Type 0, BuildingBlock: BETDIP_clean_sbu_0, # of connection points: 6
#     Node 6, Type 0, BuildingBlock: BETDIP_clean_sbu_0, # of connection points: 6
#     Node 7, Type 0, BuildingBlock: BETDIP_clean_sbu_0, # of connection points: 6
#     Node 8, Type 0, BuildingBlock: BETDIP_clean_sbu_0, # of connection points: 6
#     Node 9, Type 0, BuildingBlock: BETDIP_clean_sbu_0, # of connection points: 6
#     Node 10, Type 0, BuildingBlock: BETDIP_clean_sbu_0, # of connection points: 6
#     Node 11, Type 0, BuildingBlock: BETDIP_clean_sbu_0, # of connection points: 6
#     Node 12, Type 0, BuildingBlock: BETDIP_clean_sbu_0, # of connection points: 6
#     Node 13, Type 0, BuildingBlock: BETDIP_clean_sbu_0, # of connection points: 6
#     Node 14, Type 0, BuildingBlock: BETDIP_clean_sbu_0, # of connection points: 6
#     Node 15, Type 0, BuildingBlock: BETDIP_clean_sbu_0, # of connection points: 6
#     Edge 16, Type (0, 0), BuildingBlock: ZUJKAS_clean_linker_0, # of connection points: 2
#     Edge 17, Type (0, 0), BuildingBlock: ZUJKAS_clean_linker_0, # of connection points: 2
#     Edge 18, Type (0, 0), BuildingBlock: ZUJKAS_clean_linker_0, # of connection points: 2
#     Edge 19, Type (0, 0), BuildingBlock: ZUJKAS_clean_linker_0, # of connection points: 2
#     Edge 20, Type (0, 0), BuildingBlock: ZUJKAS_clean_linker_0, # of connection points: 2
#     Edge 21, Type (0, 0), BuildingBlock: ZUJKAS_clean_linker_0, # of connection points: 2
#     Edge 22, Type (0, 0), BuildingBlock: ZUJKAS_clean_linker_0, # of connection points: 2
#     Edge 23, Type (0, 0), BuildingBlock: ZUJKAS_clean_linker_0, # of connection points: 2
#     Edge 24, Type (0, 0), BuildingBlock: ZUJKAS_clean_linker_0, # of connection points: 2
#     Edge 25, Type (0, 0), BuildingBlock: ZUJKAS_clean_linker_0, # of connection points: 2
#     Edge 26, Type (0, 0), BuildingBlock: ZUJKAS_clean_linker_0, # of connection points: 2
#     Edge 27, Type (0, 0), BuildingBlock: ZUJKAS_clean_linker_0, # of connection points: 2
#     Edge 28, Type (0, 0), BuildingBlock: ZUJKAS_clean_linker_0, # of connection points: 2
#     Edge 29, Type (0, 0), BuildingBlock: ZUJKAS_clean_linker_0, # of connection points: 2
#     Edge 30, Type (0, 0), BuildingBlock: ZUJKAS_clean_linker_0, # of connection points: 2
#     Edge 31, Type (0, 0), BuildingBlock: ZUJKAS_clean_linker_0, # of connection points: 2
#     Edge 32, Type (0, 0), BuildingBlock: ZUJKAS_clean_linker_0, # of connection points: 2
#     Edge 33, Type (0, 0), BuildingBlock: ZUJKAS_clean_linker_0, # of connection points: 2
#     Edge 34, Type (0, 0), BuildingBlock: ZUJKAS_clean_linker_0, # of connection points: 2
#     Edge 35, Type (0, 0), BuildingBlock: ZUJKAS_clean_linker_0, # of connection points: 2
#     Edge 36, Type (0, 0), BuildingBlock: ZUJKAS_clean_linker_0, # of connection points: 2
#     Edge 37, Type (0, 0), BuildingBlock: ZUJKAS_clean_linker_0, # of connection points: 2
#     Edge 38, Type (0, 0), BuildingBlock: ZUJKAS_clean_linker_0, # of connection points: 2
#     Edge 39, Type (0, 0), BuildingBlock: ZUJKAS_clean_linker_0, # of connection points: 2
#     Edge 40, Type (0, 0), BuildingBlock: ZUJKAS_clean_linker_0, # of connection points: 2
#     Edge 41, Type (0, 0), BuildingBlock: ZUJKAS_clean_linker_0, # of connection points: 2
#     Edge 42, Type (0, 0), BuildingBlock: ZUJKAS_clean_linker_0, # of connection points: 2
#     Edge 43, Type (0, 0), BuildingBlock: ZUJKAS_clean_linker_0, # of connection points: 2
#     Edge 44, Type (0, 0), BuildingBlock: ZUJKAS_clean_linker_0, # of connection points: 2
#     Edge 45, Type (0, 0), BuildingBlock: ZUJKAS_clean_linker_0, # of connection points: 2
#     Edge 46, Type (0, 0), BuildingBlock: ZUJKAS_clean_linker_0, # of connection points: 2
#     Edge 47, Type (0, 0), BuildingBlock: ZUJKAS_clean_linker_0, # of connection points: 2
#     Edge 48, Type (0, 0), BuildingBlock: ZUJKAS_clean_linker_0, # of connection points: 2
#     Edge 49, Type (0, 0), BuildingBlock: ZUJKAS_clean_linker_0, # of connection points: 2
#     Edge 50, Type (0, 0), BuildingBlock: ZUJKAS_clean_linker_0, # of connection points: 2
#     Edge 51, Type (0, 0), BuildingBlock: ZUJKAS_clean_linker_0, # of connection points: 2
#     Edge 52, Type (0, 0), BuildingBlock: ZUJKAS_clean_linker_0, # of connection points: 2
#     Edge 53, Type (0, 0), BuildingBlock: ZUJKAS_clean_linker_0, # of connection points: 2
#     Edge 54, Type (0, 0), BuildingBlock: ZUJKAS_clean_linker_0, # of connection points: 2
#     Edge 55, Type (0, 0), BuildingBlock: ZUJKAS_clean_linker_0, # of connection points: 2
#     Edge 56, Type (0, 0), BuildingBlock: ZUJKAS_clean_linker_0, # of connection points: 2
#     Edge 57, Type (0, 0), BuildingBlock: ZUJKAS_clean_linker_0, # of connection points: 2
#     Edge 58, Type (0, 0), BuildingBlock: ZUJKAS_clean_linker_0, # of connection points: 2
#     Edge 59, Type (0, 0), BuildingBlock: ZUJKAS_clean_linker_0, # of connection points: 2
#     Edge 60, Type (0, 0), BuildingBlock: ZUJKAS_clean_linker_0, # of connection points: 2
#     Edge 61, Type (0, 0), BuildingBlock: ZUJKAS_clean_linker_0, # of connection points: 2
#     Edge 62, Type (0, 0), BuildingBlock: ZUJKAS_clean_linker_0, # of connection points: 2
#     Edge 63, Type (0, 0), BuildingBlock: ZUJKAS_clean_linker_0, # of connection points: 2
# Relax obj value: 0.364
# Max RMSD: 0.300
# Mean RMSD: 0.297
data_MOF--net-crs--node1-BETDIP_clean_sbu_0--edge1-ZUJKAS_clean_linker_0
_symmetry_space_group_name_H-M    P1
_symmetry_Int_Tables_number       1
_symmetry_cell_setting            triclinic
loop_
_symmetry_equiv_pos_as_xyz
'x, y, z'
_cell_length_a     48.982994
_cell_length_b     79.606594
_cell_length_c     57.35144
_cell_angle_alpha  89.965287
_cell_angle_beta   89.953314
_cell_angle_gamma 66.991554
loop_
_atom_site_label
_atom_site_type_symbol
_atom_site_fract_x
_atom_site_fract_y
_atom_site_fract_z
_atom_type_partial_charge
Tb0 Tb 0.97137 1.00116 0.01826 0.0
Tb1 Tb 0.01954 1.00316 0.98681 0.0
C2 C 0.92289 1.00371 0.03538 0.0
C3 C 0.90681 0.99146 0.03265 0.0
C4 C 0.89167 0.99128 0.01186 0.0
C5 C 0.88143 0.97745 0.00766 0.0
C6 C 0.88585 0.96362 0.02423 0.0
C7 C 0.89917 0.96453 0.04565 0.0
C8 C 0.90943 0.97833 0.04983 0.0
C9 C 0.02539 0.98696 0.03566 0.0
C10 C 0.00459 0.96747 0.98629 0.0
C11 C 0.06664 1.00109 0.96735 0.0
C12 C 0.08257 0.01334 0.96919 0.0
C13 C 0.07986 0.0237 0.98948 0.0
C14 C 0.09107 0.03727 0.99029 0.0
C15 C 0.10508 0.04094 0.97072 0.0
C16 C 0.10858 0.03021 0.95055 0.0
C17 C 0.09739 0.01649 0.94981 0.0
C18 C 0.96518 0.01725 0.9701 0.0
C19 C 0.98743 0.0364 0.01979 0.0
O20 O 0.92488 0.01275 0.01676 0.0
O21 O 0.94808 0.99676 0.04669 0.0
O22 O 0.0145 1.00103 0.02326 0.0
O23 O 0.00473 0.98112 0.04042 0.0
O24 O 0.98032 0.9764 -0.00151 0.0
O25 O 0.02402 0.97481 0.98124 0.0
O26 O 0.0661 0.99189 0.9862 0.0
O27 O 0.04055 0.00844 0.9575 0.0
O28 O 0.97672 1.00296 0.9819 0.0
O29 O 0.98515 0.02374 0.96588 0.0
O30 O 0.01179 0.02722 0.00781 0.0
O31 O 0.96729 0.02946 0.02413 0.0
H32 H 0.8887 1.00138 -0.00159 0.0
H33 H 0.87067 0.97735 0.9912 0.0
H34 H 0.90307 0.95405 0.05876 0.0
H35 H 0.92076 0.97819 0.0661 0.0
H36 H 0.06795 0.02188 0.00444 0.0
H37 H 0.08741 0.04551 0.00592 0.0
H38 H 0.11939 0.03269 0.93522 0.0
H39 H 0.09938 0.00879 0.93388 0.0
Tb40 Tb 0.01674 0.2645 0.26166 0.0
Tb41 Tb 0.98057 0.24909 0.23327 0.0
C42 C 0.03692 0.28239 0.28769 0.0
C43 C 0.02928 0.29494 0.30779 0.0
C44 C 0.00219 0.31017 0.30919 0.0
C45 C -0.00248 0.32316 0.32687 0.0
C46 C 0.01988 0.32115 0.34334 0.0
C47 C 0.04633 0.30545 0.34244 0.0
C48 C 0.05096 0.29252 0.32483 0.0
C49 C 0.04447 0.22963 0.25016 0.0
C50 C 0.96971 0.25243 0.28645 0.0
C51 C 0.95947 0.23155 0.20753 0.0
C52 C 0.96678 0.21855 0.18806 0.0
C53 C 0.99536 0.20501 0.18502 0.0
C54 C 0.00044 0.1914 0.16812 0.0
C55 C 0.97702 0.19115 0.15405 0.0
C56 C 0.94874 0.20518 0.15673 0.0
C57 C 0.94374 0.21872 0.17353 0.0
C58 C 0.95262 0.28383 0.24515 0.0
C59 C 0.02788 0.26092 0.20853 0.0
O60 O 0.02289 0.28862 0.26813 0.0
O61 O 0.04092 0.26539 0.29163 0.0
O62 O 0.01768 0.23762 0.25585 0.0
O63 O 0.05734 0.24097 0.25243 0.0
O64 O 0.98313 0.26399 0.28662 0.0
O65 O 0.96957 0.24285 0.26774 0.0
O66 O 0.97294 0.22542 0.22732 0.0
O67 O 0.95698 0.2482 0.20296 0.0
O68 O 0.97937 0.27601 0.23924 0.0
O69 O 0.93997 0.27241 0.24279 0.0
O70 O 0.01459 0.24928 0.20846 0.0
O71 O 0.02793 0.2706 0.22716 0.0
H72 H 0.98507 0.31235 0.29622 0.0
H73 H 0.97695 0.33513 0.32703 0.0
H74 H 0.06376 0.30332 0.35511 0.0
H75 H 0.07199 0.28089 0.32409 0.0
H76 H 0.01349 0.20465 0.1961 0.0
H77 H 0.02256 0.18093 0.16635 0.0
H78 H 0.93006 0.20529 0.14655 0.0
H79 H 0.92149 0.22898 0.17577 0.0
Tb80 Tb 0.76638 0.25751 0.50998 0.0
Tb81 Tb 0.71352 0.25671 0.48228 0.0
C82 C 0.81605 0.25594 0.52276 0.0
C83 C 0.82595 0.27112 0.52458 0.0
C84 C 0.85459 0.2688 0.51742 0.0
C85 C 0.86214 0.28396 0.51484 0.0
C86 C 0.84101 0.30167 0.51918 0.0
C87 C 0.81273 0.30382 0.52722 0.0
C88 C 0.80525 0.28873 0.5298 0.0
C89 C 0.71388 0.27522 0.52918 0.0
C90 C 0.72704 0.29183 0.48037 0.0
C91 C 0.66797 0.2521 0.4698 0.0
C92 C 0.65286 0.24117 0.48021 0.0
C93 C 0.6565 0.23655 0.50397 0.0
C94 C 0.64567 0.22412 0.51317 0.0
C95 C 0.63159 0.2157 0.49869 0.0
C96 C 0.62713 0.22086 0.47503 0.0
C97 C 0.63763 0.23351 0.46592 0.0
C98 C 0.76163 0.25116 0.45807 0.0
C99 C 0.7504 0.22314 0.51575 0.0
O100 O 0.81041 0.25251 0.50138 0.0
O101 O 0.79543 0.25609 0.53752 0.0
O102 O 0.72205 0.26058 0.51776 0.0
O103 O 0.73651 0.27964 0.53177 0.0
O104 O 0.75364 0.28197 0.48878 0.0
O105 O 0.70563 0.28558 0.47927 0.0
O106 O 0.6671 0.26634 0.4818 0.0
O107 O 0.69448 0.24252 0.46156 0.0
O108 O 0.7605 0.24556 0.47839 0.0
O109 O 0.73514 0.25878 0.44964 0.0
O110 O 0.72751 0.23109 0.5017 0.0
O111 O 0.76931 0.23072 0.52111 0.0
H112 H 0.87067 0.25537 0.51285 0.0
H113 H 0.88404 0.28188 0.50847 0.0
H114 H 0.7961 0.31724 0.53106 0.0
H115 H 0.78283 0.29096 0.53497 0.0
H116 H 0.66881 0.24191 0.51527 0.0
H117 H 0.64921 0.22069 0.53151 0.0
H118 H 0.61688 0.21445 0.46321 0.0
H119 H 0.635 0.2367 0.44747 0.0
Tb120 Tb 0.72772 0.99764 0.76519 0.0
Tb121 Tb 0.76359 0.01194 0.73481 0.0
C122 C 0.70889 0.98008 0.79285 0.0
C123 C 0.71879 0.96713 0.81251 0.0
C124 C 0.74452 0.95101 0.81108 0.0
C125 C 0.75091 0.93773 0.82854 0.0
C126 C 0.73182 0.94038 0.84777 0.0
C127 C 0.70696 0.95694 0.84968 0.0
C128 C 0.70049 0.97014 0.83218 0.0
C129 C 0.70054 0.03244 0.75344 0.0
C130 C 0.77624 0.00948 0.78773 0.0
C131 C 0.78463 0.02871 0.70769 0.0
C132 C 0.77755 0.04137 0.68781 0.0
C133 C 0.74934 0.05536 0.68492 0.0
C134 C 0.7448 0.06886 0.66793 0.0
C135 C 0.76846 0.06858 0.65377 0.0
C136 C 0.7962 0.05402 0.65603 0.0
C137 C 0.80067 0.04056 0.67288 0.0
C138 C 0.79072 0.97718 0.74705 0.0
C139 C 0.71301 1.00159 0.71261 0.0
O140 O 0.72031 0.97405 0.77237 0.0
O141 O 0.7061 0.99688 0.79667 0.0
O142 O 0.72756 0.02421 0.75831 0.0
O143 O 0.68724 0.02146 0.75699 0.0
O144 O 0.76254 0.9981 0.78885 0.0
O145 O 0.77622 0.01855 0.7685 0.0
O146 O 0.77155 0.03532 0.72747 0.0
O147 O 0.78662 0.01207 0.70383 0.0
O148 O 0.76382 0.98535 0.74177 0.0
O149 O 0.80389 0.98827 0.74394 0.0
O150 O 0.72841 0.01201 0.71111 0.0
O151 O 0.71275 0.99245 0.73172 0.0
H152 H 0.75915 0.94837 0.79615 0.0
H153 H 0.77043 0.92521 0.82672 0.0
H154 H 0.69164 0.95933 0.86413 0.0
H155 H 0.68047 0.98242 0.83357 0.0
H156 H 0.73119 0.05624 0.69634 0.0
H157 H 0.72322 0.07995 0.66662 0.0
H158 H 0.8147 0.05328 0.64512 0.0
H159 H 0.82258 0.02988 0.67486 0.0
Tb160 Tb 0.51171 0.76427 0.26292 0.0
Tb161 Tb 0.478 0.74867 0.23204 0.0
C162 C 0.52982 0.78213 0.29066 0.0
C163 C 0.52142 0.79443 0.31105 0.0
C164 C 0.49831 0.81184 0.31001 0.0
C165 C 0.49441 0.82439 0.3281 0.0
C166 C 0.5136 0.81977 0.34745 0.0
C167 C 0.53552 0.80199 0.34899 0.0
C168 C 0.53943 0.78949 0.33096 0.0
C169 C 0.54027 0.72936 0.25239 0.0
C170 C 0.46145 0.75309 0.28424 0.0
C171 C 0.4607 0.73067 0.20386 0.0
C172 C 0.47077 0.71826 0.18355 0.0
C173 C 0.48792 0.69954 0.1866 0.0
C174 C 0.49318 0.68742 0.16788 0.0
C175 C 0.48136 0.69372 0.14568 0.0
C176 C 0.4655 0.71257 0.14242 0.0
C177 C 0.46014 0.72468 0.16116 0.0
C178 C 0.44965 0.78361 0.24257 0.0
C179 C 0.52814 0.75988 0.21066 0.0
O180 O 0.51682 0.78852 0.27076 0.0
O181 O 0.53392 0.76504 0.294 0.0
O182 O 0.51299 0.73734 0.25663 0.0
O183 O 0.55289 0.74072 0.25562 0.0
O184 O 0.47553 0.76427 0.28554 0.0
O185 O 0.46279 0.74327 0.26543 0.0
O186 O 0.47277 0.72446 0.2241 0.0
O187 O 0.45634 0.74782 0.20073 0.0
O188 O 0.47686 0.77551 0.23825 0.0
O189 O 0.43685 0.77233 0.23933 0.0
O190 O 0.51408 0.74869 0.20944 0.0
O191 O 0.52692 0.76966 0.22948 0.0
H192 H 0.48408 0.81607 0.29484 0.0
H193 H 0.4774 0.838 0.32631 0.0
H194 H 0.55031 0.7979 0.36385 0.0
H195 H 0.55743 0.77618 0.33214 0.0
H196 H 0.49627 0.69408 0.20365 0.0
H197 H 0.50519 0.67299 0.17116 0.0
H198 H 0.45648 0.71794 0.12549 0.0
H199 H 0.44669 0.739 0.15827 0.0
Tb200 Tb 0.27524 0.75214 0.50201 0.0
Tb201 Tb 0.21041 0.76093 0.49003 0.0
C202 C 0.32679 0.75146 0.50018 0.0
C203 C 0.33665 0.76667 0.49794 0.0
C204 C 0.35959 0.76539 0.48249 0.0
C205 C 0.36671 0.78056 0.4784 0.0
C206 C 0.35117 0.79717 0.48995 0.0
C207 C 0.32856 0.79826 0.5057 0.0
C208 C 0.32131 0.78321 0.50959 0.0
C209 C 0.23893 0.75965 0.53755 0.0
C210 C 0.23096 0.79285 0.48636 0.0
C211 C 0.159 0.76127 0.4909 0.0
C212 C 0.14913 0.74612 0.49416 0.0
C213 C 0.12632 0.74779 0.50995 0.0
C214 C 0.11896 0.7328 0.51476 0.0
C215 C 0.13412 0.71595 0.50361 0.0
C216 C 0.15657 0.71448 0.48749 0.0
C217 C 0.16405 0.72934 0.48287 0.0
C218 C 0.24709 0.75333 0.45462 0.0
C219 C 0.25422 0.72058 0.5071 0.0
O220 O 0.31291 0.7488 0.48199 0.0
O221 O 0.31348 0.75072 0.51975 0.0
O222 O 0.23339 0.76723 0.51783 0.0
O223 O 0.26646 0.74835 0.53843 0.0
O224 O 0.25825 0.78064 0.48999 0.0
O225 O 0.20725 0.78882 0.48808 0.0
O226 O 0.17155 0.7652 0.50906 0.0
O227 O 0.1735 0.76095 0.4716 0.0
O228 O 0.25227 0.74573 0.47433 0.0
O229 O 0.21973 0.76486 0.45373 0.0
O230 O 0.227 0.73305 0.50406 0.0
O231 O 0.27804 0.72429 0.5038 0.0
H232 H 0.37161 0.75276 0.47331 0.0
H233 H 0.38439 0.7793 0.46629 0.0
H234 H 0.31588 0.81093 0.5146 0.0
H235 H 0.30318 0.78469 0.52133 0.0
H236 H 0.11461 0.76059 0.51888 0.0
H237 H 0.10143 0.73438 0.52715 0.0
H238 H 0.16911 0.70162 0.47895 0.0
H239 H 0.18213 0.7275 0.47092 0.0
Tb240 Tb 0.23283 0.49741 0.76146 0.0
Tb241 Tb 0.26791 0.51266 0.73169 0.0
C242 C 0.21329 0.4799 0.78874 0.0
C243 C 0.22221 0.46631 0.80776 0.0
C244 C 0.24484 0.4489 0.80476 0.0
C245 C 0.24963 0.43535 0.82163 0.0
C246 C 0.23197 0.43893 0.84185 0.0
C247 C 0.21033 0.45661 0.8453 0.0
C248 C 0.20545 0.47012 0.82838 0.0
C249 C 0.20456 0.53227 0.75035 0.0
C250 C 0.28168 0.50882 0.7843 0.0
C251 C 0.28782 0.53002 0.70452 0.0
C252 C 0.28011 0.54244 0.68426 0.0
C253 C 0.25474 0.55881 0.68404 0.0
C254 C 0.25053 0.57153 0.6661 0.0
C255 C 0.27162 0.56812 0.64812 0.0
C256 C 0.29616 0.55131 0.64787 0.0
C257 C 0.30037 0.53865 0.66577 0.0
C258 C 0.29596 0.47771 0.74283 0.0
C259 C 0.21874 0.50159 0.70879 0.0
O260 O 0.22377 0.47427 0.76791 0.0
O261 O 0.21225 0.49624 0.79333 0.0
O262 O 0.23166 0.52435 0.75523 0.0
O263 O 0.19193 0.52091 0.75344 0.0
O264 O 0.26842 0.49717 0.78486 0.0
O265 O 0.2807 0.5187 0.76563 0.0
O266 O 0.27463 0.53649 0.72433 0.0
O267 O 0.29104 0.51312 0.70093 0.0
O268 O 0.26892 0.48576 0.73787 0.0
O269 O 0.30871 0.48905 0.73999 0.0
O270 O 0.23265 0.51287 0.70813 0.0
O271 O 0.21948 0.49174 0.72746 0.0
H272 H 0.25819 0.44554 0.78908 0.0
H273 H 0.26675 0.42193 0.81863 0.0
H274 H 0.19618 0.45977 0.86057 0.0
H275 H 0.18772 0.48338 0.831 0.0
H276 H 0.23874 0.56208 0.69812 0.0
H277 H 0.23147 0.58437 0.6669 0.0
H278 H 0.31253 0.54811 0.63407 0.0
H279 H 0.32009 0.52613 0.66559 0.0
Tb280 Tb 0.96535 0.5119 0.5044 0.0
Tb281 Tb 0.02975 0.50255 0.48959 0.0
C282 C 0.91328 0.51342 0.50652 0.0
C283 C 0.90099 0.49957 0.50173 0.0
C284 C 0.91021 0.488 0.48222 0.0
C285 C 0.90309 0.47265 0.48043 0.0
C286 C 0.88684 0.46857 0.49819 0.0
C287 C 0.87592 0.48091 0.51681 0.0
C288 C 0.88297 0.49624 0.51855 0.0
C289 C 0.00405 0.50476 0.53823 0.0
C290 C 0.00708 0.47162 0.48533 0.0
C291 C 0.08167 0.5012 0.49024 0.0
C292 C 0.0928 0.5146 0.49954 0.0
C293 C 0.07969 0.52501 0.51936 0.0
C294 C 0.08583 0.54017 0.52542 0.0
C295 C 0.10517 0.54526 0.51173 0.0
C296 C 0.11986 0.534 0.49286 0.0
C297 C 0.11358 0.51888 0.48676 0.0
C298 C 0.99115 0.51 0.45564 0.0
C299 C 0.98756 0.54307 0.50715 0.0
O300 O 0.92357 0.5194 0.48868 0.0
O301 O 0.93108 0.5098 0.52451 0.0
O302 O 0.00804 0.49689 0.51874 0.0
O303 O 0.97684 0.51643 0.53988 0.0
O304 O 0.98031 0.48409 0.49014 0.0
O305 O 0.03133 0.47512 0.48645 0.0
O306 O 0.07156 0.49284 0.50559 0.0
O307 O 0.0641 0.50689 0.47217 0.0
O308 O 0.98716 0.51757 0.47534 0.0
O309 O 0.01859 0.4986 0.45369 0.0
O310 O 0.01443 0.53033 0.50372 0.0
O311 O 0.96331 0.53959 0.50548 0.0
H312 H 0.92426 0.49021 0.46898 0.0
H313 H 0.91189 0.46341 0.46591 0.0
H314 H 0.86273 0.47838 0.53047 0.0
H315 H 0.87556 0.50501 0.53368 0.0
H316 H 0.06353 0.52203 0.52954 0.0
H317 H 0.07399 0.54849 0.53999 0.0
H318 H 0.1355 0.53721 0.4823 0.0
H319 H 0.12396 0.51103 0.47143 0.0
Tb320 Tb 0.28004 0.2505 0.00479 0.0
Tb321 Tb 0.21722 0.25741 0.98962 0.0
C322 C 0.33135 0.25032 0.00589 0.0
C323 C 0.34128 0.26555 0.00531 0.0
C324 C 0.36543 0.26446 0.99134 0.0
C325 C 0.37314 0.27957 0.98902 0.0
C326 C 0.35682 0.29598 0.00073 0.0
C327 C 0.33283 0.29691 0.01489 0.0
C328 C 0.32508 0.2819 0.01709 0.0
C329 C 0.23993 0.2609 0.03789 0.0
C330 C 0.23705 0.28945 0.98348 0.0
C331 C 0.1663 0.25712 0.98811 0.0
C332 C 0.15839 0.2412 0.9858 0.0
C333 C 0.13251 0.24104 0.99605 0.0
C334 C 0.12689 0.22508 0.99572 0.0
C335 C 0.14728 0.20907 0.98534 0.0
C336 C 0.17287 0.20947 0.97473 0.0
C337 C 0.17839 0.22534 0.97501 0.0
C338 C 0.25744 0.24626 0.95656 0.0
C339 C 0.26015 0.21849 0.01133 0.0
O340 O 0.31871 0.24806 0.98676 0.0
O341 O 0.31682 0.24914 0.02457 0.0
O342 O 0.23651 0.26668 0.01722 0.0
O343 O 0.2673 0.24997 0.04109 0.0
O344 O 0.26419 0.27756 0.98835 0.0
O345 O 0.21348 0.28538 0.98615 0.0
O346 O 0.17962 0.2578 0.00762 0.0
O347 O 0.17946 0.2606 0.96996 0.0
O348 O 0.26067 0.241 0.97742 0.0
O349 O 0.23012 0.25713 0.95315 0.0
O350 O 0.23308 0.2303 0.00607 0.0
O351 O 0.28373 0.22258 0.00884 0.0
H352 H 0.37796 0.25204 0.98188 0.0
H353 H 0.3918 0.27844 0.97807 0.0
H354 H 0.31943 0.30946 0.02373 0.0
H355 H 0.30589 0.28327 0.02754 0.0
H356 H 0.11705 0.25309 0.00473 0.0
H357 H 0.10706 0.22511 0.00413 0.0
H358 H 0.18877 0.19744 0.96631 0.0
H359 H 0.19873 0.22508 0.96723 0.0
Tb360 Tb 0.22734 0.99959 0.26813 0.0
Tb361 Tb 0.26303 0.01317 0.23655 0.0
C362 C 0.20755 0.98348 0.29725 0.0
C363 C 0.21708 0.97064 0.31701 0.0
C364 C 0.24344 0.95489 0.3163 0.0
C365 C 0.24977 0.94174 0.33394 0.0
C366 C 0.22994 0.94415 0.35264 0.0
C367 C 0.20429 0.96035 0.35377 0.0
C368 C 0.19793 0.97342 0.3361 0.0
C369 C 0.20033 0.03425 0.25535 0.0
C370 C 0.278 0.01017 0.28893 0.0
C371 C 0.28232 0.02995 0.20795 0.0
C372 C 0.27278 0.04343 0.18871 0.0
C373 C 0.25802 0.06219 0.19335 0.0
C374 C 0.25354 0.07505 0.17562 0.0
C375 C 0.26371 0.06949 0.15282 0.0
C376 C 0.2772 0.05068 0.148 0.0
C377 C 0.28181 0.03782 0.16577 0.0
C378 C 0.29023 0.97848 0.24909 0.0
C379 C 0.21342 1.00151 0.21556 0.0
O380 O 0.21765 0.97698 0.27662 0.0
O381 O 0.2069 0.9999 0.30053 0.0
O382 O 0.22735 0.02598 0.26013 0.0
O383 O 0.18695 0.02341 0.25947 0.0
O384 O 0.26387 0.99906 0.29048 0.0
O385 O 0.27709 0.01957 0.26983 0.0
O386 O 0.27292 0.03584 0.22892 0.0
O387 O 0.28278 0.01364 0.20406 0.0
O388 O 0.26313 0.98677 0.2445 0.0
O389 O 0.30353 0.98934 0.24475 0.0
O390 O 0.22732 0.01277 0.21381 0.0
O391 O 0.21375 0.99264 0.23503 0.0
H392 H 0.25869 0.95248 0.3018 0.0
H393 H 0.26989 0.92952 0.33272 0.0
H394 H 0.18837 0.96256 0.36774 0.0
H395 H 0.17742 0.98542 0.33693 0.0
H396 H 0.25098 0.06704 0.21087 0.0
H397 H 0.24339 0.08938 0.1801 0.0
H398 H 0.28486 0.04589 0.13058 0.0
H399 H 0.29344 0.02348 0.1617 0.0
Tb400 Tb 0.51542 0.26332 0.76692 0.0
Tb401 Tb 0.48529 0.24709 0.73375 0.0
C402 C 0.53508 0.28443 0.78696 0.0
C403 C 0.53103 0.29536 0.8083 0.0
C404 C 0.50346 0.30317 0.8196 0.0
C405 C 0.49996 0.31473 0.83879 0.0
C406 C 0.52398 0.31861 0.84698 0.0
C407 C 0.55166 0.31034 0.83585 0.0
C408 C 0.5551 0.29885 0.81674 0.0
C409 C 0.54048 0.22751 0.76304 0.0
C410 C 0.46931 0.25045 0.78851 0.0
C411 C 0.46565 0.22617 0.71317 0.0
C412 C 0.47018 0.21484 0.69198 0.0
C413 C 0.49805 0.20145 0.68607 0.0
C414 C 0.50084 0.18954 0.6674 0.0
C415 C 0.47581 0.19077 0.65434 0.0
C416 C 0.44821 0.20467 0.65978 0.0
C417 C 0.44545 0.21652 0.67842 0.0
C418 C 0.46073 0.28294 0.73757 0.0
C419 C 0.53086 0.26033 0.7122 0.0
O420 O 0.51326 0.28985 0.77192 0.0
O421 O 0.54681 0.26669 0.78936 0.0
O422 O 0.52926 0.2387 0.74674 0.0
O423 O 0.53982 0.23639 0.7821 0.0
O424 O 0.48338 0.26144 0.79159 0.0
O425 O 0.46906 0.24274 0.76807 0.0
O426 O 0.48637 0.22074 0.72915 0.0
O427 O 0.45465 0.24388 0.71034 0.0
O428 O 0.47148 0.27169 0.75386 0.0
O429 O 0.4616 0.27412 0.71842 0.0
O430 O 0.51777 0.24879 0.70936 0.0
O431 O 0.53059 0.26829 0.73253 0.0
H432 H 0.48459 0.30059 0.81336 0.0
H433 H 0.47843 0.32074 0.84709 0.0
H434 H 0.5705 0.31324 0.84137 0.0
H435 H 0.57649 0.29303 0.80815 0.0
H436 H 0.51753 0.19979 0.69623 0.0
H437 H 0.52238 0.17893 0.66381 0.0
H438 H 0.42857 0.20622 0.64984 0.0
H439 H 0.42373 0.22673 0.68264 0.0
Tb440 Tb 0.01304 0.76151 0.76225 0.0
Tb441 Tb 0.9779 0.74723 0.73142 0.0
C442 C 0.03264 0.7783 0.79043 0.0
C443 C 0.02335 0.79116 0.81012 0.0
C444 C -0.00326 0.80674 0.80965 0.0
C445 C 0.99062 0.81998 0.82712 0.0
C446 C 0.01091 0.8178 0.84538 0.0
C447 C 0.03682 0.80176 0.84631 0.0
C448 C 0.04298 0.78861 0.82881 0.0
C449 C 0.04072 0.72677 0.75043 0.0
C450 C 0.96313 0.75038 0.78388 0.0
C451 C 0.95794 0.73065 0.70319 0.0
C452 C 0.96599 0.71875 0.68252 0.0
C453 C 0.99377 0.70421 0.6803 0.0
C454 C -0.00097 0.69171 0.66194 0.0
C455 C 0.97655 0.69356 0.64565 0.0
C456 C 0.94939 0.70867 0.64736 0.0
C457 C 0.94418 0.7211 0.66562 0.0
C458 C 0.95043 0.78203 0.74338 0.0
C459 C 0.02805 0.75809 0.70978 0.0
O460 O 0.0216 0.78462 0.76996 0.0
O461 O 0.03419 0.76173 0.7941 0.0
O462 O 0.0136 0.73484 0.75518 0.0
O463 O 0.05369 0.7379 0.75396 0.0
O464 O 0.97701 0.76166 0.78516 0.0
O465 O 0.96405 0.7409 0.76485 0.0
O466 O 0.97103 0.72366 0.72284 0.0
O467 O 0.95488 0.7476 0.70035 0.0
O468 O 0.97746 0.77386 0.73845 0.0
O469 O 0.93735 0.77092 0.74007 0.0
O470 O 0.0138 0.74703 0.70846 0.0
O471 O 0.02723 0.76759 0.72878 0.0
H472 H 0.98114 0.80897 0.79545 0.0
H473 H 0.9703 0.83209 0.8261 0.0
H474 H 0.05305 0.79975 0.85997 0.0
H475 H 0.06369 0.77673 0.82941 0.0
H476 H 0.01099 0.70215 0.69316 0.0
H477 H 0.02015 0.68017 0.66112 0.0
H478 H 0.93183 0.71065 0.63485 0.0
H479 H 0.92265 0.73226 0.667 0.0
Tb480 Tb 0.72814 0.49978 0.26275 0.0
Tb481 Tb 0.76504 0.51335 0.23262 0.0
C482 C 0.70662 0.48345 0.29009 0.0
C483 C 0.71452 0.47029 0.3095 0.0
C484 C 0.74 0.45401 0.30876 0.0
C485 C 0.7444 0.44051 0.32564 0.0
C486 C 0.72351 0.4431 0.34357 0.0
C487 C 0.69886 0.4598 0.34487 0.0
C488 C 0.6944 0.47323 0.32794 0.0
C489 C 0.702 0.53458 0.25076 0.0
C490 C 0.77957 0.50904 0.28527 0.0
C491 C 0.78602 0.53008 0.20543 0.0
C492 C 0.77859 0.54215 0.18491 0.0
C493 C 0.75129 0.55709 0.18291 0.0
C494 C 0.7466 0.56967 0.16474 0.0
C495 C 0.76909 0.56748 0.14827 0.0
C496 C 0.79586 0.55205 0.14985 0.0
C497 C 0.80054 0.53955 0.16801 0.0
C498 C 0.79117 0.47852 0.24454 0.0
C499 C 0.71475 0.50303 0.2099 0.0
O500 O 0.71785 0.47718 0.26965 0.0
O501 O 0.70615 0.49972 0.29429 0.0
O502 O 0.72893 0.5262 0.25594 0.0
O503 O 0.68841 0.52375 0.25399 0.0
O504 O 0.76363 0.49895 0.28654 0.0
O505 O 0.78027 0.51818 0.26625 0.0
O506 O 0.77227 0.53693 0.22493 0.0
O507 O 0.78918 0.51314 0.2022 0.0
O508 O 0.76423 0.48698 0.23944 0.0
O509 O 0.80486 0.4893 0.2412 0.0
O510 O 0.73034 0.51333 0.20851 0.0
O511 O 0.71391 0.49418 0.22914 0.0
H512 H 0.75596 0.45145 0.29475 0.0
H513 H 0.76382 0.42788 0.32438 0.0
H514 H 0.68222 0.46216 0.35831 0.0
H515 H 0.67452 0.48565 0.32873 0.0
H516 H 0.73395 0.55935 0.19573 0.0
H517 H 0.72559 0.58129 0.16382 0.0
H518 H 0.81378 0.55005 0.13768 0.0
H519 H 0.82181 0.52816 0.16934 0.0
Tb520 Tb 0.77401 0.74893 -0.00088 0.0
Tb521 Tb 0.70952 0.75786 0.98636 0.0
C522 C 0.8256 0.7481 0.9982 0.0
C523 C 0.83513 0.76343 0.00029 0.0
C524 C 0.85648 0.76489 0.98502 0.0
C525 C 0.86276 0.78061 0.98507 0.0
C526 C 0.84776 0.79509 0.00042 0.0
C527 C 0.82667 0.79342 0.01585 0.0
C528 C 0.82035 0.77782 0.01574 0.0
C529 C 0.73673 0.75752 0.03421 0.0
C530 C 0.73119 0.78943 0.98173 0.0
C531 C 0.65732 0.75955 0.98699 0.0
C532 C 0.64416 0.74743 0.99716 0.0
C533 C 0.65313 0.73941 0.01915 0.0
C534 C 0.644 0.72584 0.02711 0.0
C535 C 0.62621 0.71972 0.01304 0.0
C536 C 0.61617 0.7284 0.99148 0.0
C537 C 0.62502 0.74215 0.98367 0.0
C538 C 0.74699 0.74974 0.95145 0.0
C539 C 0.75233 0.71808 0.00498 0.0
O540 O 0.81042 0.74837 0.97935 0.0
O541 O 0.81371 0.74427 0.01689 0.0
O542 O 0.73194 0.76452 0.0142 0.0
O543 O 0.76415 0.74616 0.03571 0.0
O544 O 0.75792 0.77744 0.9875 0.0
O545 O 0.70743 0.78538 0.98175 0.0
O546 O 0.66726 0.76848 0.00166 0.0
O547 O 0.67578 0.7524 0.96976 0.0
O548 O 0.75159 0.74234 0.97125 0.0
O549 O 0.71973 0.76141 0.95011 0.0
O550 O 0.72525 0.73106 0.00369 0.0
O551 O 0.77606 0.72129 -0.00055 0.0
H552 H 0.86774 0.75407 0.9727 0.0
H553 H 0.87925 0.78146 0.97306 0.0
H554 H 0.81426 0.80447 0.02753 0.0
H555 H 0.80317 0.77729 0.02726 0.0
H556 H 0.66807 0.74313 0.02988 0.0
H557 H 0.65175 0.71971 0.04398 0.0
H558 H 0.60282 0.72393 0.97999 0.0
H559 H 0.61806 0.74805 0.96656 0.0
Tb560 Tb 0.46388 0.01073 0.50644 0.0
Tb561 Tb 0.52867 1.00166 0.49376 0.0
C562 C 0.41241 0.01126 0.50567 0.0
C563 C 0.40313 0.99582 0.50318 0.0
C564 C 0.38074 0.99679 0.48735 0.0
C565 C 0.3745 0.98134 0.48284 0.0
C566 C 0.39032 0.96478 0.4944 0.0
C567 C 0.41227 0.96401 0.51059 0.0
C568 C 0.41872 0.9793 0.51484 0.0
C569 C 0.50131 1.00158 0.54141 0.0
C570 C 0.50641 0.97069 0.48717 0.0
C571 C 0.58058 1.00039 0.49482 0.0
C572 C 0.5915 0.01405 0.5034 0.0
C573 C 0.57867 0.02467 0.52315 0.0
C574 C 0.58386 0.04035 0.52805 0.0
C575 C 0.60208 0.04563 0.5134 0.0
C576 C 0.6167 0.03418 0.49471 0.0
C577 C 0.61132 0.01857 0.4897 0.0
C578 C 0.49157 0.01007 0.4588 0.0
C579 C 0.48573 0.04177 0.51207 0.0
O580 O 0.4253 0.01465 0.4873 0.0
O581 O 0.42639 0.0117 0.52497 0.0
O582 O 0.50592 0.99479 0.52126 0.0
O583 O 0.47408 0.01322 0.54302 0.0
O584 O 0.47955 0.98307 0.4918 0.0
O585 O 0.5306 0.97417 0.48947 0.0
O586 O 0.56999 0.99259 0.5105 0.0
O587 O 0.5635 0.0055 0.47643 0.0
O588 O 0.4867 0.01732 0.47873 0.0
O589 O 0.51888 0.99846 0.45744 0.0
O590 O 0.5128 0.029 0.50949 0.0
O591 O 0.46163 0.03841 0.50855 0.0
H592 H 0.36857 0.00937 0.47812 0.0
H593 H 0.35736 0.98234 0.47035 0.0
H594 H 0.4252 0.95137 0.51946 0.0
H595 H 0.43656 0.978 0.52679 0.0
H596 H 0.56319 0.02153 0.53401 0.0
H597 H 0.572 0.04898 0.54238 0.0
H598 H 0.63142 0.03765 0.48339 0.0
H599 H 0.62142 0.01058 0.47439 0.0
Tb600 Tb 0.46758 0.51138 0.00305 0.0
Tb601 Tb 0.53173 0.50204 0.98901 0.0
C602 C 0.41594 0.51231 0.00337 0.0
C603 C 0.40673 0.49677 0.00306 0.0
C604 C 0.38586 0.4962 0.98668 0.0
C605 C 0.38021 0.48037 0.98405 0.0
C606 C 0.39509 0.46498 0.99803 0.0
C607 C 0.4155 0.46573 0.01473 0.0
C608 C 0.42143 0.4814 0.01712 0.0
C609 C 0.50599 0.50165 0.03743 0.0
C610 C 0.50915 0.47103 0.9843 0.0
C611 C 0.58344 0.50115 0.98701 0.0
C612 C 0.5952 0.51471 0.99471 0.0
C613 C 0.58809 0.52292 0.01681 0.0
C614 C 0.59352 0.53849 0.02197 0.0
C615 C 0.60621 0.54613 0.00522 0.0
C616 C 0.61522 0.53712 0.98374 0.0
C617 C 0.60972 0.52157 0.97854 0.0
C618 C 0.49318 0.51072 0.95485 0.0
C619 C 0.49056 0.5416 0.00936 0.0
O620 O 0.42917 0.51427 0.98437 0.0
O621 O 0.42958 0.51415 0.02223 0.0
O622 O 0.50998 0.49509 0.01715 0.0
O623 O 0.47882 0.51328 0.03953 0.0
O624 O 0.48246 0.48357 0.98904 0.0
O625 O 0.53348 0.47445 0.98591 0.0
O626 O 0.57458 0.49286 0.00328 0.0
O627 O 0.56455 0.50661 0.96976 0.0
O628 O 0.48928 0.51808 0.97471 0.0
O629 O 0.52015 0.49875 0.95319 0.0
O630 O 0.5173 0.52841 0.00713 0.0
O631 O 0.46622 0.5389 0.00443 0.0
H632 H 0.37452 0.50784 0.97554 0.0
H633 H 0.36426 0.48014 0.97111 0.0
H634 H 0.42758 0.45398 0.0255 0.0
H635 H 0.43819 0.48125 0.02953 0.0
H636 H 0.57675 0.51799 0.02963 0.0
H637 H 0.58607 0.54523 0.03852 0.0
H638 H 0.62566 0.54242 0.97063 0.0
H639 H 0.61543 0.51546 0.9614 0.0
H640 H 0.93872 0.06224 0.04092 0.0
H641 H 0.93615 0.09003 0.06095 0.0
H642 H 0.0284 0.07671 0.04513 0.0
H643 H 0.03083 0.04952 0.02452 0.0
H644 H 0.96488 0.09331 0.09843 0.0
H645 H 0.99446 0.12895 0.02603 0.0
H646 H 0.98546 0.1093 0.02127 0.0
H647 H 0.02224 0.10648 0.03029 0.0
C648 C 0.9583 0.0654 0.04144 0.0
C649 C 0.98488 0.05373 0.03094 0.0
C650 C 0.95683 0.08126 0.0529 0.0
C651 C 0.98193 0.08568 0.05416 0.0
C652 C 0.00847 0.07397 0.04377 0.0
H653 H 0.01042 0.1547 0.16069 0.0
H654 H 0.01284 0.12929 0.13574 0.0
C655 C 0.00985 0.0583 0.03209 0.0
C656 C 0.98103 0.10186 0.06756 0.0
H657 H -0.00201 0.13956 0.0646 0.0
C658 C 0.97185 0.10351 0.09095 0.0
C659 C 0.98991 0.11528 0.05778 0.0
C660 C -0.00173 0.11502 0.0324 0.0
C661 C 0.97181 0.11798 0.10493 0.0
C662 C 0.98204 0.1309 0.09546 0.0
C663 C 0.99063 0.12949 0.07195 0.0
C664 C 0.98305 0.14631 0.1095 0.0
C665 C 0.96033 0.11943 0.12959 0.0
C666 C 0.9669 0.16435 0.10238 0.0
C667 C 0.96601 0.17893 0.11633 0.0
C668 C 0.98119 0.17578 0.13776 0.0
C669 C -0.00145 0.15768 0.14428 0.0
C670 C -0.00041 0.1431 0.13021 0.0
H671 H 0.94583 0.11175 0.13192 0.0
H672 H 0.97935 0.11357 0.14173 0.0
H673 H 0.94759 0.13389 0.13456 0.0
H674 H 0.95427 0.16716 0.08631 0.0
H675 H 0.95294 0.1927 0.11052 0.0
H676 H 0.78505 0.22677 0.42355 0.0
H677 H 0.82626 0.22456 0.39763 0.0
H678 H 0.83819 0.26787 0.43585 0.0
H679 H 0.79728 0.27005 0.46158 0.0
H680 H 0.82436 0.25393 0.37045 0.0
H681 H 0.9237 0.23052 0.42774 0.0
H682 H 0.88986 0.22785 0.43549 0.0
H683 H 0.89246 0.24962 0.43871 0.0
C684 C 0.79709 0.23543 0.4267 0.0
C685 C 0.78865 0.24823 0.44482 0.0
C686 C 0.8205 0.23419 0.41196 0.0
C687 C 0.83559 0.24582 0.41513 0.0
C688 C 0.82743 0.25841 0.43354 0.0
H689 H 0.95583 0.27362 0.32592 0.0
H690 H 0.92459 0.27178 0.35851 0.0
C691 C 0.80404 0.25963 0.44826 0.0
C692 C 0.85735 0.24629 0.39759 0.0
H693 H 0.92936 0.24107 0.38989 0.0
C694 C 0.84737 0.25099 0.37466 0.0
C695 C 0.88719 0.24272 0.4033 0.0
C696 C 0.8991 0.23725 0.4276 0.0
C697 C 0.86642 0.25228 0.35721 0.0
C698 C 0.89635 0.24846 0.36279 0.0
C699 C 0.90635 0.24396 0.38577 0.0
C700 C 0.9176 0.24852 0.34461 0.0
C701 C 0.85428 0.25794 0.33298 0.0
C702 C 0.92452 0.23574 0.3265 0.0
C703 C 0.94211 0.23678 0.30793 0.0
C704 C 0.95327 0.25058 0.30721 0.0
C705 C 0.94745 0.26289 0.32595 0.0
C706 C 0.92969 0.26185 0.34456 0.0
H707 H 0.82967 0.26466 0.33295 0.0
H708 H 0.8634 0.26743 0.32517 0.0
H709 H 0.86083 0.24566 0.32171 0.0
H710 H 0.9157 0.2252 0.32647 0.0
H711 H 0.94648 0.22694 0.29394 0.0
H712 H 0.806 0.08607 0.64887 0.0
H713 H 0.80101 0.11147 0.62306 0.0
H714 H 0.71865 0.11134 0.59665 0.0
H715 H 0.72331 0.08598 0.6229 0.0
H716 H 0.79891 0.11342 0.57613 0.0
H717 H 0.69475 0.16446 0.61334 0.0
H718 H 0.71556 0.14305 0.62761 0.0
H719 H 0.69185 0.14386 0.60333 0.0
C720 C 0.78686 0.09139 0.6375 0.0
C721 C 0.76508 0.08399 0.63785 0.0
C722 C 0.784 0.10595 0.62281 0.0
C723 C 0.7593 0.11347 0.6081 0.0
C724 C 0.73757 0.10603 0.60822 0.0
H725 H 0.71525 0.20391 0.50964 0.0
H726 H 0.71783 0.17652 0.53034 0.0
C727 C 0.74029 0.09151 0.62314 0.0
C728 C 0.75692 0.12888 0.59249 0.0
H729 H 0.71435 0.17351 0.58021 0.0
C730 C 0.78039 0.12655 0.57702 0.0
C731 C 0.73271 0.146 0.59361 0.0
C732 C 0.70739 0.14961 0.61049 0.0
C733 C 0.78045 0.1409 0.56282 0.0
C734 C 0.75654 0.15807 0.56426 0.0
C735 C 0.73269 0.1603 0.57923 0.0
C736 C 0.75619 0.17405 0.55084 0.0
C737 C 0.80605 0.13759 0.54633 0.0
C738 C 0.7771 0.18165 0.55544 0.0
C739 C 0.77576 0.19735 0.54364 0.0
C740 C 0.75338 0.20575 0.52709 0.0
C741 C 0.73276 0.19787 0.5223 0.0
C742 C 0.73411 0.18222 0.53414 0.0
H743 H 0.81884 0.1228 0.54323 0.0
H744 H 0.79809 0.14442 0.52932 0.0
H745 H 0.82131 0.14337 0.55397 0.0
H746 H 0.79409 0.17567 0.56852 0.0
H747 H 0.79191 0.20307 0.54785 0.0
H748 H 0.94181 0.04421 0.93776 0.0
H749 H 0.90244 0.04721 0.90967 0.0
H750 H 0.8898 1.00183 0.94204 0.0
H751 H 0.92895 0.99879 0.97 0.0
H752 H 0.90965 0.01807 0.87988 0.0
H753 H 0.80446 0.03772 0.92954 0.0
H754 H 0.83639 0.04119 0.94065 0.0
H755 H 0.83497 0.01899 0.942 0.0
C756 C 0.93005 0.03521 0.93921 0.0
C757 C 0.93837 0.02125 0.95595 0.0
C758 C 0.90761 0.03695 0.92323 0.0
C759 C 0.89307 0.02485 0.92395 0.0
C760 C 0.90028 0.01155 0.94149 0.0
H761 H 0.78863 0.99017 0.82871 0.0
H762 H 0.8159 0.99478 0.86229 0.0
C763 C 0.92273 0.00979 0.9574 0.0
C764 C 0.87379 0.02428 0.90447 0.0
H765 H 0.80494 0.02586 0.89115 0.0
C766 C 0.88663 0.02002 0.88226 0.0
C767 C 0.84398 0.02652 0.90781 0.0
C768 C 0.82901 0.03151 0.93125 0.0
C769 C 0.87065 0.01753 0.8633 0.0
C770 C 0.84082 0.01977 0.86658 0.0
C771 C 0.82784 0.02415 0.88876 0.0
C772 C 0.82285 0.01766 0.84702 0.0
C773 C 0.88617 0.01196 0.84009 0.0
C774 C 0.81735 0.02922 0.82764 0.0
C775 C 0.80214 0.02654 0.80844 0.0
C776 C 0.7918 0.01236 0.80839 0.0
C777 C 0.79647 1.00114 0.82818 0.0
C778 C 0.81192 1.00379 0.84738 0.0
H779 H 0.91069 0.00618 0.84203 0.0
H780 H 0.87957 1.0017 0.83129 0.0
H781 H 0.8799 0.02413 0.82864 0.0
H782 H 0.82512 0.04023 0.82726 0.0
H783 H 0.79853 0.0356 0.79362 0.0
H784 H 0.0417 0.9659 0.07506 0.0
H785 H 0.07959 0.9655 0.10334 0.0
H786 H 0.10579 0.99964 0.05769 0.0
H787 H 0.06768 1.00042 0.02992 0.0
H788 H 0.14341 0.95698 0.10099 0.0
H789 H 0.07488 0.03032 0.11757 0.0
H790 H 0.0609 0.01568 0.10196 0.0
H791 H 0.08499 0.0246 0.08762 0.0
C792 C 0.05599 0.97298 0.07089 0.0
C793 C 0.05162 0.9834 0.05042 0.0
C794 C 0.07757 0.97274 0.08701 0.0
C795 C 0.09497 0.98284 0.08271 0.0
C796 C 0.09221 0.99201 0.06145 0.0
H797 H 0.20745 0.0169 0.1721 0.0
H798 H 0.18116 0.01136 0.13857 0.0
C799 C 0.07056 0.99237 0.04552 0.0
C800 C 0.11393 0.98533 0.10123 0.0
H801 H 0.12088 0.01765 0.13699 0.0
C802 C 0.13857 0.97021 0.1089 0.0
C803 C 0.10741 1.00266 0.11141 0.0
C804 C 0.08048 0.01924 0.10441 0.0
C805 C 0.15716 0.97202 0.12648 0.0
C806 C 0.15048 0.98932 0.13677 0.0
C807 C 0.12598 1.00444 0.12892 0.0
C808 C 0.16766 0.99195 0.15655 0.0
C809 C 0.18391 0.95547 0.13371 0.0
C810 C 0.16832 0.98307 0.17776 0.0
C811 C 0.18316 0.98624 0.1969 0.0
C812 C 0.19747 0.99846 0.19523 0.0
C813 C 0.19666 0.00742 0.17395 0.0
C814 C 0.18175 1.00423 0.15478 0.0
H815 H 0.19056 0.94477 0.11999 0.0
H816 H 0.20306 0.95917 0.13763 0.0
H817 H 0.1785 0.94955 0.14972 0.0
H818 H 0.15693 0.9739 0.17963 0.0
H819 H 0.18325 0.97914 0.21304 0.0
H820 H 0.05231 0.44658 0.46021 0.0
H821 H 0.05172 0.41964 0.44 0.0
H822 H 0.9654 0.42967 0.46881 0.0
H823 H 0.96601 0.45647 0.48928 0.0
H824 H 0.04371 0.38773 0.45688 0.0
H825 H 0.95291 0.42979 0.39738 0.0
H826 H 0.97372 0.43952 0.41481 0.0
H827 H 0.94574 0.43338 0.4281 0.0
C828 C 0.03344 0.44288 0.46258 0.0
C829 C 0.00897 0.45383 0.47605 0.0
C830 C 0.03307 0.42753 0.45093 0.0
C831 C 0.00824 0.42291 0.45251 0.0
C832 C 0.98448 0.43325 0.46693 0.0
H833 H 0.97104 0.34116 0.36981 0.0
H834 H 0.96658 0.36522 0.39815 0.0
C835 C 0.98487 0.44856 0.4786 0.0
C836 C 0.007 0.4076 0.43847 0.0
H837 H 0.97202 0.39794 0.39199 0.0
C838 C 0.02795 0.38992 0.44276 0.0
C839 C 0.98617 0.41051 0.42024 0.0
C840 C 0.96344 0.42931 0.41465 0.0
C841 C 0.02897 0.37507 0.42909 0.0
C842 C 0.009 0.37807 0.41021 0.0
C843 C 0.98737 0.39566 0.4064 0.0
C844 C 0.01149 0.36339 0.39332 0.0
C845 C 0.05142 0.35628 0.43507 0.0
C846 C 0.03795 0.35464 0.38088 0.0
C847 C 0.04056 0.34095 0.3648 0.0
C848 C 0.01663 0.33578 0.36058 0.0
C849 C 0.98986 0.34483 0.37267 0.0
C850 C 0.98732 0.35852 0.38891 0.0
H851 H 0.05778 0.35531 0.45377 0.0
H852 H 0.04276 0.34561 0.43122 0.0
H853 H 0.07179 0.35342 0.42457 0.0
H854 H 0.05658 0.35856 0.3834 0.0
H855 H 0.06123 0.33461 0.35535 0.0
H856 H 0.71012 0.29063 0.57228 0.0
H857 H 0.67371 0.29247 0.60268 0.0
H858 H 0.62543 0.27353 0.5536 0.0
H859 H 0.66157 0.27174 0.52347 0.0
H860 H 0.6055 0.30897 0.60478 0.0
H861 H 0.65986 0.23309 0.60607 0.0
H862 H 0.67724 0.24715 0.59327 0.0
H863 H 0.64806 0.24348 0.57801 0.0
C864 C 0.69126 0.28737 0.56785 0.0
C865 C 0.68889 0.28061 0.54564 0.0
C866 C 0.67056 0.28841 0.58519 0.0
C867 C 0.64732 0.28282 0.58036 0.0
C868 C 0.64349 0.27767 0.55766 0.0
H869 H 0.53221 0.24961 0.66675 0.0
H870 H 0.55847 0.25651 0.63423 0.0
C871 C 0.66419 0.27656 0.54048 0.0
C872 C 0.62928 0.28015 0.59943 0.0
H873 H 0.61799 0.24675 0.63013 0.0
C874 C 0.60816 0.29542 0.61042 0.0
C875 C 0.63292 0.2624 0.60654 0.0
C876 C 0.65587 0.24555 0.59553 0.0
C877 C 0.5901 0.29336 0.62829 0.0
C878 C 0.59392 0.27557 0.63554 0.0
C879 C 0.61508 0.26035 0.62446 0.0
C880 C 0.57677 0.27231 0.65497 0.0
C881 C 0.56676 0.3102 0.63889 0.0
C882 C 0.57867 0.27875 0.67739 0.0
C883 C 0.56367 0.27489 0.69596 0.0
C884 C 0.54679 0.2643 0.69249 0.0
C885 C 0.54508 0.25776 0.67001 0.0
C886 C 0.55997 0.26173 0.65141 0.0
H887 H 0.56086 0.32215 0.62704 0.0
H888 H 0.54631 0.30795 0.64308 0.0
H889 H 0.57546 0.3136 0.6553 0.0
H890 H 0.59218 0.28651 0.68063 0.0
H891 H 0.56559 0.28005 0.71308 0.0
H892 H 0.74665 0.90427 0.83844 0.0
H893 H 0.74826 0.88028 0.86565 0.0
H894 H 0.72828 0.91855 0.92265 0.0
H895 H 0.72637 0.94273 0.89542 0.0
H896 H 0.78146 0.86546 0.90462 0.0
H897 H 0.66202 0.89989 0.92727 0.0
H898 H 0.67853 0.90722 0.90327 0.0
H899 H 0.68372 0.91318 0.93269 0.0
C900 C 0.74309 0.90753 0.85682 0.0
C901 C 0.73619 0.92544 0.86476 0.0
C902 C 0.74388 0.89382 0.87234 0.0
C903 C 0.7378 0.89771 0.8961 0.0
C904 C 0.73229 0.91536 0.90429 0.0
H905 H 0.76671 0.80722 0.99344 0.0
H906 H 0.76802 0.83473 0.97546 0.0
C907 C 0.73131 0.92913 0.88874 0.0
C908 C 0.73635 0.88336 0.91198 0.0
H909 H 0.68909 0.87216 0.94647 0.0
C910 C 0.76133 0.86693 0.91389 0.0
C911 C 0.70993 0.88527 0.92383 0.0
C912 C 0.68191 0.90226 0.92157 0.0
C913 C 0.76052 0.85222 0.92698 0.0
C914 C 0.73414 0.85417 0.939 0.0
C915 C 0.70932 0.87073 0.93739 0.0
C916 C 0.73125 0.83883 0.95208 0.0
C917 C 0.78758 0.83452 0.92697 0.0
C918 C 0.70892 0.83265 0.94608 0.0
C919 C 0.70767 0.81717 0.95679 0.0
C920 C 0.72892 0.80752 0.97353 0.0
C921 C 0.75028 0.81427 0.98038 0.0
C922 C 0.75121 0.8299 0.96996 0.0
H923 H 0.80258 0.83377 0.91211 0.0
H924 H 0.80026 0.83352 0.94329 0.0
H925 H 0.78126 0.82258 0.92603 0.0
H926 H 0.69314 0.83939 0.93244 0.0
H927 H 0.6911 0.81222 0.95106 0.0
H928 H 0.18303 0.28642 0.03767 0.0
H929 H 0.14292 0.28842 0.06478 0.0
H930 H 0.20261 0.24079 0.10118 0.0
H931 H 0.24259 0.23891 0.07453 0.0
H932 H 0.1182 0.26267 0.07499 0.0
H933 H 0.17043 0.27856 0.153 0.0
H934 H 0.18285 0.2801 0.12375 0.0
H935 H 0.19435 0.25832 0.13813 0.0
C936 C 0.18749 0.27648 0.05157 0.0
C937 C 0.21583 0.26262 0.0542 0.0
C938 C 0.16464 0.27758 0.06693 0.0
C939 C 0.16998 0.2649 0.08515 0.0
C940 C 0.19822 0.25093 0.08754 0.0
H941 H 0.05013 0.23664 0.17265 0.0
H942 H 0.08199 0.23872 0.14073 0.0
C943 C 0.22101 0.24988 0.07232 0.0
C944 C 0.14624 0.26617 0.10183 0.0
H945 H 0.1301 0.26959 0.15988 0.0
C946 C 0.12057 0.26436 0.09354 0.0
C947 C 0.14931 0.2686 0.12595 0.0
C948 C 0.17558 0.27169 0.13574 0.0
C949 C 0.09818 0.26441 0.10891 0.0
C950 C 0.10194 0.26599 0.13315 0.0
C951 C 0.12732 0.26824 0.1413 0.0
C952 C 0.08002 0.26543 0.15063 0.0
C953 C 0.07066 0.26295 0.09903 0.0
C954 C 0.06847 0.27968 0.16681 0.0
C955 C 0.05084 0.27836 0.18522 0.0
C956 C 0.04421 0.26281 0.18774 0.0
C957 C 0.05475 0.24884 0.17103 0.0
C958 C 0.07278 0.25007 0.15271 0.0
H959 H 0.06728 0.26725 0.08045 0.0
H960 H 0.073 0.24853 0.09994 0.0
H961 H 0.05063 0.27143 0.1091 0.0
H962 H 0.07377 0.29165 0.16554 0.0
H963 H 0.04281 0.28943 0.19771 0.0
H964 H 0.71372 0.44502 0.39076 0.0
H965 H 0.71425 0.42046 0.41677 0.0
H966 H 0.73846 0.38284 0.35894 0.0
H967 H 0.73813 0.40723 0.33294 0.0
H968 H 0.68001 0.40029 0.41434 0.0
H969 H 0.79904 0.35502 0.40782 0.0
H970 H 0.78467 0.37839 0.39788 0.0
H971 H 0.78131 0.36077 0.3799 0.0
C972 C 0.71936 0.43148 0.38365 0.0
C973 C 0.7261 0.42803 0.35983 0.0
C974 C 0.71967 0.41747 0.39852 0.0
C975 C 0.72677 0.39978 0.38986 0.0
C976 C 0.73363 0.39628 0.36612 0.0
H977 H 0.68586 0.31167 0.44798 0.0
H978 H 0.68403 0.33913 0.42754 0.0
C979 C 0.73347 0.41024 0.35129 0.0
C980 C 0.72584 0.38511 0.40538 0.0
H981 H 0.76713 0.34201 0.42446 0.0
C982 C 0.69911 0.38759 0.41674 0.0
C983 C 0.75087 0.36866 0.4087 0.0
C984 C 0.78067 0.36559 0.39812 0.0
C985 C 0.69655 0.37387 0.43089 0.0
C986 C 0.72122 0.3571 0.43335 0.0
C987 C 0.74812 0.35481 0.4224 0.0
C988 C 0.71995 0.34169 0.44722 0.0
C989 C 0.6676 0.37756 0.44328 0.0
C990 C 0.74069 0.33399 0.46504 0.0
C991 C 0.74201 0.31824 0.47647 0.0
C992 C 0.72252 0.30984 0.47039 0.0
C993 C 0.70092 0.31795 0.45321 0.0
C994 C 0.69982 0.33367 0.44157 0.0
H995 H 0.65435 0.39243 0.4452 0.0
H996 H 0.65429 0.37171 0.43294 0.0
H997 H 0.67137 0.37118 0.46084 0.0
H998 H 0.75642 0.33994 0.46971 0.0
H999 H 0.75884 0.31238 0.48971 0.0
H1000 H 0.49764 0.0241 0.57789 0.0
H1001 H 0.53732 0.02269 0.60459 0.0
H1002 H 0.59733 0.97441 0.56945 0.0
H1003 H 0.55688 0.97497 0.54398 0.0
H1004 H 0.60674 0.97033 0.61304 0.0
H1005 H 0.60265 0.03862 0.59091 0.0
H1006 H 0.56767 0.04073 0.6029 0.0
H1007 H 0.58037 0.02863 0.57589 0.0
C1008 C 0.51924 0.01309 0.57605 0.0
C1009 C 0.52456 0.99991 0.55852 0.0
C1010 C 0.54202 0.01246 0.59107 0.0
C1011 C 0.57066 0.99887 0.58845 0.0
C1012 C 0.57559 0.98523 0.57154 0.0
H1013 H 0.71641 0.01065 0.66684 0.0
H1014 H 0.68518 0.00853 0.63445 0.0
C1015 C 0.55259 0.98563 0.55689 0.0
C1016 C 0.59516 0.99855 0.60387 0.0
H1017 H 0.6278 0.02557 0.62709 0.0
C1018 C 0.61159 0.98235 0.61584 0.0
C1019 C 0.60214 0.01407 0.60714 0.0
C1020 C 0.58746 0.03141 0.59329 0.0
C1021 C 0.63377 0.98149 0.63176 0.0
C1022 C 0.63887 0.99747 0.63653 0.0
C1023 C 0.62353 0.01341 0.62374 0.0
C1024 C 0.65854 0.99825 0.65572 0.0
C1025 C 0.65148 0.96344 0.64327 0.0
C1026 C 0.65357 0.9935 0.6784 0.0
C1027 C 0.67151 0.99446 0.69673 0.0
C1028 C 0.69441 1.0006 0.69288 0.0
C1029 C 0.69898 0.00581 0.67028 0.0
C1030 C 0.68121 0.00458 0.6518 0.0
H1031 H 0.65287 0.95184 0.6319 0.0
H1032 H 0.67434 0.96213 0.6475 0.0
H1033 H 0.64027 0.9623 0.65966 0.0
H1034 H 0.63553 0.98924 0.68203 0.0
H1035 H 0.66706 0.99065 0.71402 0.0
H1036 H 0.9724 0.94703 0.99603 0.0
H1037 H 0.97365 0.91985 0.97568 0.0
H1038 H 0.04387 0.92133 0.93134 0.0
H1039 H 0.04325 0.94834 0.95198 0.0
H1040 H 0.96136 0.91759 0.9306 0.0
H1041 H 0.07538 0.86807 0.94915 0.0
H1042 H 0.05841 0.88924 0.96495 0.0
H1043 H 0.07474 0.88891 0.93674 0.0
C1044 C 0.9885 0.94142 0.98221 0.0
C1045 C 0.00779 0.94986 0.97565 0.0
C1046 C 0.98912 0.92588 0.97057 0.0
C1047 C 0.00905 0.91843 0.95215 0.0
C1048 C 0.02877 0.92658 0.94586 0.0
H1049 H 0.9923 0.85428 0.83657 0.0
H1050 H 0.98969 0.87842 0.86382 0.0
C1051 C 0.02831 0.94208 0.95762 0.0
C1052 C 0.00769 0.90295 0.93849 0.0
H1053 H 0.04972 0.86034 0.91814 0.0
C1054 C 0.98062 0.905 0.92806 0.0
C1055 C 0.03268 0.88642 0.93545 0.0
C1056 C 0.06186 0.88292 0.94737 0.0
C1057 C 0.9781 0.89121 0.9141 0.0
C1058 C 0.0035 0.87509 0.91006 0.0
C1059 C 0.03033 0.87279 0.92106 0.0
C1060 C 0.00301 0.86065 0.89394 0.0
C1061 C 0.94822 0.89401 0.90394 0.0
C1062 C 0.01161 0.8426 0.90174 0.0
C1063 C 0.01323 0.82874 0.88616 0.0
C1064 C 0.00635 0.83268 0.86245 0.0
C1065 C -0.00283 0.85085 0.85479 0.0
C1066 C 0.99568 0.86467 0.87036 0.0
H1067 H 0.92986 0.90405 0.91426 0.0
H1068 H 0.94678 0.8994 0.88594 0.0
H1069 H 0.94494 0.88099 0.90321 0.0
H1070 H 0.01742 0.83919 0.91986 0.0
H1071 H 0.02019 0.8149 0.89261 0.0
H1072 H 0.13225 0.05176 0.00588 0.0
H1073 H 0.13984 0.08032 0.00843 0.0
H1074 H 0.10458 0.0948 0.93906 0.0
H1075 H 0.09657 0.06637 0.93644 0.0
H1076 H 0.1567 0.10147 0.94854 0.0
H1077 H 0.06967 0.13048 0.01628 0.0
H1078 H 0.09752 0.1084 0.02307 0.0
H1079 H 0.07294 0.11088 -0.0011 0.0
C1080 C 0.12621 0.061 0.99113 0.0
C1081 C 0.11359 0.05689 0.97102 0.0
C1082 C 0.1305 0.0773 0.99265 0.0
C1083 C 0.12219 0.08977 0.97412 0.0
C1084 C 0.11094 0.08535 0.95359 0.0
H1085 H 0.09592 0.20431 0.97613 0.0
H1086 H 0.08935 0.17535 0.97373 0.0
C1087 C 0.10661 0.06905 0.95206 0.0
C1088 C 0.12472 0.10761 0.97632 0.0
H1089 H 0.099 0.14737 0.00736 0.0
C1090 C 0.14408 0.11153 0.96136 0.0
C1091 C 0.10782 0.12077 0.99284 0.0
C1092 C 0.0856 0.11756 0.00857 0.0
C1093 C 0.14749 0.12819 0.96278 0.0
C1094 C 0.13137 0.1411 0.97983 0.0
C1095 C 0.11152 0.13733 0.99448 0.0
C1096 C 0.13485 0.15862 0.98265 0.0
C1097 C 0.16804 0.13193 0.94584 0.0
C1098 C 0.16234 0.15876 0.98913 0.0
C1099 C 0.16612 0.17521 0.99054 0.0
C1100 C 0.14241 0.19184 0.98562 0.0
C1101 C 0.11454 0.19172 0.98007 0.0
C1102 C 0.1108 0.17521 0.97861 0.0
H1103 H 0.17283 0.12281 0.93039 0.0
H1104 H 0.15842 0.14633 0.93979 0.0
H1105 H 0.18939 0.12955 0.95467 0.0
H1106 H 0.18097 0.14612 0.99287 0.0
H1107 H 0.18768 0.17492 0.99537 0.0
H1108 H 0.72568 0.56073 0.25112 0.0
H1109 H 0.69851 0.59402 0.24876 0.0
H1110 H 0.61627 0.58668 0.24143 0.0
H1111 H 0.64316 0.55359 0.24364 0.0
H1112 H 0.65687 0.61662 0.21274 0.0
H1113 H 0.60422 0.62041 0.29951 0.0
H1114 H 0.63659 0.60097 0.29043 0.0
H1115 H 0.60055 0.60391 0.27973 0.0
C1116 C 0.70186 0.56624 0.24879 0.0
C1117 C 0.68652 0.55457 0.24774 0.0
C1118 C 0.68636 0.58524 0.24747 0.0
C1119 C 0.65531 0.59283 0.24529 0.0
C1120 C 0.64016 0.58114 0.24348 0.0
H1121 H 0.51774 0.70279 0.25138 0.0
H1122 H 0.54547 0.66974 0.24754 0.0
C1123 C 0.65558 0.56223 0.2447 0.0
C1124 C 0.63847 0.61294 0.24548 0.0
H1125 H 0.58733 0.64739 0.27692 0.0
C1126 C 0.64176 0.62339 0.2268 0.0
C1127 C 0.61863 0.62172 0.26377 0.0
C1128 C 0.61485 0.61125 0.28462 0.0
C1129 C 0.6253 0.64237 0.22572 0.0
C1130 C 0.60553 0.65119 0.2441 0.0
C1131 C 0.60234 0.64068 0.26278 0.0
C1132 C 0.58849 0.67133 0.24472 0.0
C1133 C 0.62872 0.6527 0.20461 0.0
C1134 C 0.60333 0.68327 0.24442 0.0
C1135 C 0.58749 0.70213 0.24639 0.0
C1136 C 0.55649 0.70946 0.249 0.0
C1137 C 0.54157 0.69755 0.24919 0.0
C1138 C 0.55743 0.67866 0.24709 0.0
H1139 H 0.63722 0.64353 0.18934 0.0
H1140 H 0.60731 0.66379 0.19977 0.0
H1141 H 0.64491 0.6589 0.20857 0.0
H1142 H 0.62728 0.67799 0.24321 0.0
H1143 H 0.59962 0.71096 0.24631 0.0
H1144 H 0.35723 0.82042 0.52237 0.0
H1145 H 0.36544 0.84837 0.5157 0.0
H1146 H 0.36922 0.83884 0.44154 0.0
H1147 H 0.36061 0.81076 0.44808 0.0
H1148 H 0.41554 0.85152 0.49037 0.0
H1149 H 0.30483 0.89222 0.45156 0.0
H1150 H 0.31106 0.87217 0.46904 0.0
H1151 H 0.32608 0.8698 0.44017 0.0
C1152 C 0.35972 0.82427 0.50462 0.0
C1153 C 0.35812 0.81346 0.48574 0.0
C1154 C 0.36451 0.8402 0.50085 0.0
C1155 C 0.36762 0.84573 0.47815 0.0
C1156 C 0.36659 0.83485 0.45919 0.0
H1157 H 0.38406 0.95091 0.45186 0.0
H1158 H 0.37939 0.92174 0.44421 0.0
C1159 C 0.36198 0.81877 0.46297 0.0
C1160 C 0.37216 0.86288 0.4748 0.0
H1161 H 0.33572 0.90781 0.46038 0.0
C1162 C 0.3983 0.86378 0.48348 0.0
C1163 C 0.34969 0.87876 0.4656 0.0
C1164 C 0.32121 0.87838 0.4561 0.0
C1165 C 0.40207 0.88033 0.48419 0.0
C1166 C 0.37883 0.89646 0.47644 0.0
C1167 C 0.35337 0.89542 0.46646 0.0
C1168 C 0.37967 0.91461 0.48064 0.0
C1169 C 0.43062 0.88052 0.4938 0.0
C1170 C 0.38042 0.92045 0.50361 0.0
C1171 C 0.38303 0.93698 0.508 0.0
C1172 C 0.38469 0.94812 0.48949 0.0
C1173 C 0.38266 0.94263 0.46645 0.0
C1174 C 0.38014 0.92598 0.46206 0.0
H1175 H 0.44886 0.86676 0.49304 0.0
H1176 H 0.43747 0.8903 0.48407 0.0
H1177 H 0.42732 0.88481 0.51234 0.0
H1178 H 0.3794 0.91206 0.51819 0.0
H1179 H 0.38403 0.94099 0.52592 0.0
H1180 H 0.09994 0.70811 0.74415 0.0
H1181 H 0.12719 0.67512 0.74101 0.0
H1182 H 0.04498 0.66736 0.74534 0.0
H1183 H 0.01761 0.70046 0.74913 0.0
H1184 H 0.08672 0.64492 0.77486 0.0
H1185 H 0.13673 0.64059 0.68729 0.0
H1186 H 0.14459 0.65601 0.70632 0.0
H1187 H 0.10693 0.66095 0.69762 0.0
C1188 C 0.08762 0.69939 0.74421 0.0
C1189 C 0.05663 0.70687 0.74686 0.0
C1190 C 0.10323 0.68052 0.74221 0.0
C1191 C 0.08817 0.6687 0.74254 0.0
C1192 C 0.0571 0.67618 0.74489 0.0
H1193 H 0.14537 0.55042 0.74357 0.0
H1194 H 0.11732 0.58341 0.7408 0.0
C1195 C 0.04146 0.6951 0.74698 0.0
C1196 C 0.10503 0.64854 0.74201 0.0
H1197 H 0.15675 0.61386 0.71108 0.0
C1198 C 0.1018 0.63813 0.76079 0.0
C1199 C 0.12489 0.63963 0.72372 0.0
C1200 C 0.12831 0.64984 0.70249 0.0
C1201 C 0.11825 0.6192 0.76203 0.0
C1202 C 0.13829 0.61034 0.74387 0.0
C1203 C 0.1415 0.62069 0.72504 0.0
C1204 C 0.15571 0.59029 0.74411 0.0
C1205 C 0.11455 0.60886 0.78305 0.0
C1206 C 0.18677 0.58314 0.74617 0.0
C1207 C 0.20291 0.56423 0.74781 0.0
C1208 C 0.18823 0.55218 0.74719 0.0
C1209 C 0.15728 0.55937 0.7443 0.0
C1210 C 0.14119 0.57822 0.74278 0.0
H1211 H 0.10366 0.61813 0.79777 0.0
H1212 H 0.10053 0.60132 0.77826 0.0
H1213 H 0.13635 0.59877 0.78904 0.0
H1214 H 0.19843 0.59221 0.74711 0.0
H1215 H 0.22673 0.55908 0.75001 0.0
H1216 H 0.89178 0.30694 0.52961 0.0
H1217 H 0.90123 0.33472 0.52346 0.0
H1218 H 0.81503 0.36088 0.49182 0.0
H1219 H 0.80551 0.33325 0.49769 0.0
H1220 H 0.89948 0.35561 0.48135 0.0
H1221 H 0.81521 0.39442 0.54725 0.0
H1222 H 0.82976 0.36984 0.54526 0.0
H1223 H 0.80204 0.38356 0.525 0.0
C1224 C 0.87499 0.31855 0.52113 0.0
C1225 C 0.84772 0.31801 0.51448 0.0
C1226 C 0.8804 0.33439 0.51766 0.0
C1227 C 0.85863 0.3499 0.50752 0.0
C1228 C 0.83188 0.34915 0.50007 0.0
H1229 H 0.87369 0.45076 0.4615 0.0
H1230 H 0.86805 0.42146 0.46258 0.0
C1231 C 0.82645 0.33339 0.50354 0.0
C1232 C 0.8633 0.36712 0.50553 0.0
H1233 H 0.83677 0.41108 0.52506 0.0
C1234 C 0.88584 0.36776 0.49088 0.0
C1235 C 0.84561 0.38285 0.51821 0.0
C1236 C 0.82195 0.38269 0.53499 0.0
C1237 C 0.89097 0.38386 0.4884 0.0
C1238 C 0.87282 0.3997 0.50072 0.0
C1239 C 0.85046 0.39896 0.51548 0.0
C1240 C 0.87735 0.41703 0.49948 0.0
C1241 C 0.9161 0.3837 0.47305 0.0
C1242 C 0.88402 0.42433 0.51989 0.0
C1243 C 0.88705 0.44103 0.51936 0.0
C1244 C 0.88328 0.45087 0.49841 0.0
C1245 C 0.87685 0.44346 0.47788 0.0
C1246 C 0.87375 0.4267 0.47845 0.0
H1247 H 0.93199 0.36959 0.46916 0.0
H1248 H 0.90695 0.39052 0.45627 0.0
H1249 H 0.92835 0.39127 0.48137 0.0
H1250 H 0.88695 0.41706 0.53629 0.0
H1251 H 0.89269 0.44612 0.53537 0.0
H1252 H 0.3497 0.95889 0.25226 0.0
H1253 H 0.37591 0.9257 0.25392 0.0
H1254 H 0.29215 0.91966 0.25501 0.0
H1255 H 0.26584 0.9529 0.25256 0.0
H1256 H 0.37665 0.89972 0.28498 0.0
H1257 H 0.33276 0.88798 0.2001 0.0
H1258 H 0.32834 0.91042 0.20985 0.0
H1259 H 0.30439 0.89993 0.22086 0.0
C1260 C 0.33686 0.95049 0.25289 0.0
C1261 C 0.30571 0.95848 0.25203 0.0
C1262 C 0.35188 0.9315 0.2539 0.0
C1263 C 0.33608 0.9201 0.25411 0.0
C1264 C 0.30489 0.92811 0.25425 0.0
H1265 H 0.3907 0.80209 0.25051 0.0
H1266 H 0.36358 0.83507 0.25502 0.0
C1267 C 0.28984 0.94712 0.25305 0.0
C1268 C 0.35238 0.89988 0.25362 0.0
H1269 H 0.36128 0.86173 0.22189 0.0
C1270 C 0.3733 0.89142 0.27117 0.0
C1271 C 0.34821 0.88901 0.23552 0.0
C1272 C 0.32743 0.89728 0.21538 0.0
C1273 C 0.38979 0.87243 0.27128 0.0
C1274 C 0.38544 0.86161 0.25324 0.0
C1275 C 0.36448 0.87004 0.23577 0.0
C1276 C 0.40244 0.84152 0.25199 0.0
C1277 C 0.41139 0.86404 0.29088 0.0
C1278 C 0.43335 0.83414 0.24876 0.0
C1279 C 0.44889 0.81527 0.24606 0.0
C1280 C 0.43379 0.80346 0.24653 0.0
C1281 C 0.40294 0.81085 0.25007 0.0
C1282 C 0.38741 0.82969 0.25266 0.0
H1283 H 0.40702 0.87336 0.3061 0.0
H1284 H 0.41039 0.85098 0.29668 0.0
H1285 H 0.43426 0.86109 0.28464 0.0
H1286 H 0.44536 0.84301 0.24774 0.0
H1287 H 0.47259 0.80999 0.24309 0.0
H1288 H 0.27257 0.45177 0.74769 0.0
H1289 H 0.29947 0.41871 0.75151 0.0
H1290 H 0.3825 0.42539 0.74548 0.0
H1291 H 0.35569 0.45843 0.74336 0.0
H1292 H 0.33205 0.39506 0.72292 0.0
H1293 H 0.40358 0.39133 0.79855 0.0
H1294 H 0.37351 0.41225 0.79028 0.0
H1295 H 0.40926 0.40545 0.77633 0.0
C1296 C 0.29656 0.44619 0.74776 0.0
C1297 C 0.31199 0.45772 0.74559 0.0
C1298 C 0.31198 0.42726 0.74978 0.0
C1299 C 0.3432 0.41941 0.74929 0.0
C1300 C 0.35855 0.43099 0.74679 0.0
H1301 H 0.44501 0.30861 0.70346 0.0
H1302 H 0.4168 0.34146 0.70734 0.0
C1303 C 0.34315 0.44992 0.74531 0.0
C1304 C 0.35959 0.39913 0.74979 0.0
H1305 H 0.41931 0.36472 0.77388 0.0
C1306 C 0.35091 0.38846 0.73431 0.0
C1307 C 0.38389 0.39025 0.76492 0.0
C1308 C 0.39285 0.40042 0.78362 0.0
C1309 C 0.36624 0.36942 0.733 0.0
C1310 C 0.39195 0.36074 0.74682 0.0
C1311 C 0.40004 0.3713 0.76289 0.0
C1312 C 0.41075 0.34082 0.74472 0.0
C1313 C 0.35421 0.35884 0.71708 0.0
C1314 C 0.41852 0.32952 0.76456 0.0
C1315 C 0.43549 0.31074 0.76242 0.0
C1316 C 0.44473 0.3029 0.74035 0.0
C1317 C 0.43775 0.31425 0.72064 0.0
C1318 C 0.42134 0.33303 0.72283 0.0
H1319 H 0.32991 0.36609 0.71452 0.0
H1320 H 0.36487 0.35742 0.6997 0.0
H1321 H 0.3586 0.34502 0.72407 0.0
H1322 H 0.41099 0.33515 0.7817 0.0
H1323 H 0.44073 0.3023 0.77793 0.0
H1324 H 0.24397 0.73408 0.57025 0.0
H1325 H 0.2063 0.73391 0.59815 0.0
H1326 H 0.146 0.78604 0.57196 0.0
H1327 H 0.18373 0.7862 0.54381 0.0
H1328 H 0.17916 0.75884 0.63293 0.0
H1329 H 0.09687 0.75432 0.56937 0.0
H1330 H 0.13505 0.74932 0.56182 0.0
H1331 H 0.10894 0.77258 0.56392 0.0
C1332 C 0.2227 0.74553 0.57052 0.0
C1333 C 0.21654 0.76011 0.55486 0.0
C1334 C 0.20121 0.74538 0.58637 0.0
C1335 C 0.17326 0.75981 0.58683 0.0
C1336 C 0.16724 0.77459 0.57149 0.0
H1337 H 0.05016 0.78413 0.70219 0.0
H1338 H 0.08433 0.78473 0.67153 0.0
C1339 C 0.18877 0.77472 0.55557 0.0
C1340 C 0.15083 0.75959 0.60393 0.0
H1341 H 0.0813 0.75973 0.6089 0.0
C1342 C 0.15777 0.75901 0.62771 0.0
C1343 C 0.12324 0.75943 0.59699 0.0
C1344 C 0.11556 0.75877 0.57164 0.0
C1345 C 0.13763 0.75858 0.64481 0.0
C1346 C 0.10947 0.75927 0.63792 0.0
C1347 C 0.10274 0.75948 0.61412 0.0
C1348 C 0.08688 0.75964 0.65525 0.0
C1349 C 0.14697 0.75704 0.67007 0.0
C1350 C 0.07586 0.7458 0.65555 0.0
C1351 C 0.05593 0.74556 0.67288 0.0
C1352 C 0.04686 0.75913 0.6902 0.0
C1353 C 0.05709 0.77333 0.68929 0.0
C1354 C 0.07672 0.77366 0.67185 0.0
H1355 H 0.1715 0.75136 0.67188 0.0
H1356 H 0.13813 0.77081 0.6781 0.0
H1357 H 0.13821 0.74822 0.67997 0.0
H1358 H 0.0833 0.73493 0.64276 0.0
H1359 H 0.04839 0.73445 0.67312 0.0
H1360 H 0.24836 0.90758 0.34422 0.0
H1361 H 0.25029 0.88367 0.37168 0.0
H1362 H 0.22346 0.92309 0.42746 0.0
H1363 H 0.22144 0.94717 0.40004 0.0
H1364 H 0.28124 0.87062 0.41311 0.0
H1365 H 0.15946 0.90193 0.42809 0.0
H1366 H 0.17719 0.90915 0.40481 0.0
H1367 H 0.17893 0.91643 0.43422 0.0
C1368 C 0.2434 0.91113 0.36241 0.0
C1369 C 0.23452 0.92932 0.3699 0.0
C1370 C 0.24438 0.89745 0.37807 0.0
C1371 C 0.23647 0.90166 0.40152 0.0
C1372 C 0.22899 0.91962 0.40933 0.0
H1373 H 0.26262 0.81237 0.50074 0.0
H1374 H 0.26366 0.84007 0.48296 0.0
C1375 C 0.22789 0.93335 0.39365 0.0
C1376 C 0.23489 0.88734 0.41739 0.0
H1377 H 0.1864 0.87496 0.44875 0.0
C1378 C 0.26058 0.87158 0.42105 0.0
C1379 C 0.2078 0.88858 0.4275 0.0
C1380 C 0.17918 0.90484 0.42336 0.0
C1381 C 0.25988 0.85687 0.43424 0.0
C1382 C 0.23274 0.85811 0.44441 0.0
C1383 C 0.20718 0.87403 0.44106 0.0
C1384 C 0.22993 0.8426 0.45722 0.0
C1385 C 0.28802 0.83992 0.43635 0.0
C1386 C 0.20919 0.8355 0.44982 0.0
C1387 C 0.20807 0.81994 0.46042 0.0
C1388 C 0.22787 0.81113 0.47842 0.0
C1389 C 0.24749 0.81877 0.48662 0.0
C1390 C 0.24825 0.8345 0.47633 0.0
H1391 H 0.30458 0.83946 0.42285 0.0
H1392 H 0.29816 0.83987 0.45365 0.0
H1393 H 0.2834 0.82738 0.43484 0.0
H1394 H 0.19465 0.84157 0.43522 0.0
H1395 H 0.19292 0.81423 0.45363 0.0
H1396 H 0.93687 0.67877 0.63409 0.0
H1397 H 0.94249 0.65494 0.6056 0.0
H1398 H 0.03018 0.65177 0.58862 0.0
H1399 H 0.02476 0.67569 0.61747 0.0
H1400 H 0.95229 0.6544 0.55815 0.0
H1401 H 0.04485 0.5987 0.60267 0.0
H1402 H 0.02294 0.61983 0.61714 0.0
H1403 H 0.0508 0.61912 0.59638 0.0
C1404 C 0.95729 0.67314 0.62418 0.0
C1405 C 0.98034 0.67917 0.62797 0.0
C1406 C 0.9605 0.65946 0.60794 0.0
C1407 C 0.98683 0.65146 0.59513 0.0
C1408 C 0.00987 0.65753 0.59863 0.0
H1409 H 0.02915 0.55756 0.50184 0.0
H1410 H 0.03005 0.58501 0.52024 0.0
C1411 C 0.00673 0.6712 0.61506 0.0
C1412 C 0.98965 0.63676 0.57824 0.0
H1413 H 0.02616 0.59107 0.56841 0.0
C1414 C 0.9686 0.64058 0.56028 0.0
C1415 C 0.01103 0.61876 0.58098 0.0
C1416 C 0.0336 0.61372 0.6004 0.0
C1417 C 0.96776 0.62679 0.54543 0.0
C1418 C 0.98833 0.60868 0.54878 0.0
C1419 C 0.01029 0.60499 0.566 0.0
C1420 C 0.98644 0.59314 0.53564 0.0
C1421 C 0.94468 0.63167 0.52642 0.0
C1422 C 0.96145 0.58872 0.53797 0.0
C1423 C 0.96099 0.5729 0.52763 0.0
C1424 C 0.98561 0.56121 0.51496 0.0
C1425 C 0.01004 0.56613 0.51185 0.0
C1426 C 0.01056 0.58185 0.52225 0.0
H1427 H 0.93654 0.64638 0.52183 0.0
H1428 H 0.95362 0.62344 0.51048 0.0
H1429 H 0.92544 0.62882 0.5326 0.0
H1430 H 0.9428 0.59709 0.54858 0.0
H1431 H 0.94197 0.56942 0.53051 0.0
H1432 H 0.30182 0.72625 0.44828 0.0
H1433 H 0.33999 0.72602 0.4203 0.0
H1434 H 0.28105 0.77854 0.3942 0.0
H1435 H 0.24298 0.77879 0.42198 0.0
H1436 H 0.30841 0.75321 0.3593 0.0
H1437 H 0.38988 0.7575 0.42386 0.0
H1438 H 0.37701 0.73955 0.42915 0.0
H1439 H 0.35141 0.76296 0.43086 0.0
C1440 C 0.29716 0.73772 0.43656 0.0
C1441 C 0.26969 0.75259 0.43733 0.0
C1442 C 0.31894 0.73763 0.42073 0.0
C1443 C 0.31345 0.75241 0.40549 0.0
C1444 C 0.28574 0.76706 0.40592 0.0
H1445 H 0.4403 0.77707 0.32052 0.0
H1446 H 0.40467 0.77689 0.35045 0.0
C1447 C 0.26402 0.76715 0.42171 0.0
C1448 C 0.33625 0.75248 0.38862 0.0
H1449 H 0.40596 0.75219 0.38448 0.0
C1450 C 0.32974 0.753 0.36477 0.0
C1451 C 0.36375 0.75259 0.39589 0.0
C1452 C 0.37097 0.75329 0.42133 0.0
C1453 C 0.35025 0.75331 0.3479 0.0
C1454 C 0.37831 0.75261 0.35513 0.0
C1455 C 0.3846 0.75246 0.37901 0.0
C1456 C 0.40129 0.75209 0.33806 0.0
C1457 C 0.34142 0.75474 0.32253 0.0
C1458 C 0.4118 0.73793 0.32168 0.0
C1459 C 0.43187 0.73808 0.30451 0.0
C1460 C 0.44218 0.75226 0.30363 0.0
C1461 C 0.43272 0.76598 0.32074 0.0
C1462 C 0.41237 0.76591 0.33782 0.0
H1463 H 0.31693 0.76041 0.32041 0.0
H1464 H 0.35039 0.76351 0.31275 0.0
H1465 H 0.35042 0.74093 0.3146 0.0
H1466 H 0.40414 0.72688 0.32196 0.0
H1467 H 0.43906 0.72717 0.29178 0.0
H1468 H 0.21881 0.10296 0.14493 0.0
H1469 H 0.21891 0.12665 0.11773 0.0
H1470 H 0.30501 0.09102 0.09247 0.0
H1471 H 0.30556 0.06745 0.11996 0.0
H1472 H 0.26422 0.14167 0.11733 0.0
H1473 H 0.25395 0.11102 0.03238 0.0
H1474 H 0.24335 0.10402 0.05974 0.0
H1475 H 0.28181 0.09636 0.05194 0.0
C1476 C 0.23777 0.10012 0.13357 0.0
C1477 C 0.26219 0.08326 0.1347 0.0
C1478 C 0.23769 0.11364 0.11796 0.0
C1479 C 0.26185 0.1105 0.10298 0.0
C1480 C 0.28593 0.09358 0.10361 0.0
H1481 H 0.30847 0.19318 0.03339 0.0
H1482 H 0.31055 0.16588 0.05447 0.0
C1483 C 0.28612 0.08009 0.11931 0.0
C1484 C 0.26275 0.12535 0.08783 0.0
H1485 H 0.26356 0.13798 0.03096 0.0
C1486 C 0.2641 0.14088 0.09845 0.0
C1487 C 0.26243 0.12427 0.06323 0.0
C1488 C 0.26008 0.1081 0.05103 0.0
C1489 C 0.26535 0.15534 0.0851 0.0
C1490 C 0.26553 0.15413 0.06049 0.0
C1491 C 0.26386 0.1387 0.04984 0.0
C1492 C 0.26573 0.16932 0.04568 0.0
C1493 C 0.26589 0.17198 0.09736 0.0
C1494 C 0.24021 0.17987 0.03319 0.0
C1495 C 0.23892 0.19544 0.02124 0.0
C1496 C 0.26327 0.20067 0.02134 0.0
C1497 C 0.28938 0.18953 0.03291 0.0
C1498 C 0.29056 0.17399 0.04505 0.0
H1499 H 0.26045 0.17211 0.11619 0.0
H1500 H 0.28836 0.17214 0.09579 0.0
H1501 H 0.2499 0.18464 0.08917 0.0
H1502 H 0.22085 0.17646 0.03344 0.0
H1503 H 0.21847 0.20367 0.01251 0.0
H1504 H 0.7443 0.77447 0.9181 0.0
H1505 H 0.78351 0.77345 0.89101 0.0
H1506 H 0.84118 0.72155 0.91963 0.0
H1507 H 0.80194 0.72261 0.94703 0.0
H1508 H 0.86845 0.7467 0.91414 0.0
H1509 H 0.81045 0.74046 0.83358 0.0
H1510 H 0.78898 0.75948 0.85161 0.0
H1511 H 0.79887 0.73661 0.86227 0.0
C1512 C 0.76524 0.76275 0.91844 0.0
C1513 C 0.77019 0.74857 0.93451 0.0
C1514 C 0.78759 0.7622 0.90299 0.0
C1515 C 0.81507 0.74733 0.90317 0.0
C1516 C 0.82006 0.73312 0.91922 0.0
H1517 H 0.94244 0.72371 0.79121 0.0
H1518 H 0.90904 0.72219 0.82191 0.0
C1519 C 0.7977 0.7337 0.93475 0.0
C1520 C 0.83857 0.74671 0.88661 0.0
H1521 H 0.85359 0.7468 0.82859 0.0
C1522 C 0.86537 0.7466 0.89542 0.0
C1523 C 0.83449 0.74641 0.86225 0.0
C1524 C 0.80677 0.74557 0.85182 0.0
C1525 C 0.8881 0.74651 0.88042 0.0
C1526 C 0.8836 0.74683 0.85603 0.0
C1527 C 0.85693 0.74668 0.84729 0.0
C1528 C 0.90626 0.74702 0.83905 0.0
C1529 C 0.91684 0.74578 0.89079 0.0
C1530 C 0.9161 0.76139 0.83865 0.0
C1531 C 0.93547 0.76223 0.82116 0.0
C1532 C 0.94487 0.74885 0.80362 0.0
C1533 C 0.93543 0.7343 0.80438 0.0
C1534 C 0.91637 0.73339 0.82193 0.0
H1535 H 0.91979 0.74056 0.90898 0.0
H1536 H 0.93613 0.73697 0.88023 0.0
H1537 H 0.91669 0.75975 0.89112 0.0
H1538 H 0.90807 0.77227 0.8514 0.0
H1539 H 0.94222 0.77366 0.82093 0.0
H1540 H 0.31603 0.57755 0.63164 0.0
H1541 H 0.31214 0.6019 0.60432 0.0
H1542 H 0.21815 0.6157 0.59779 0.0
H1543 H 0.22184 0.59124 0.62517 0.0
H1544 H 0.29195 0.60829 0.55814 0.0
H1545 H 0.22277 0.66402 0.61724 0.0
H1546 H 0.24195 0.64083 0.62713 0.0
H1547 H 0.20796 0.64713 0.61098 0.0
C1548 C 0.29456 0.58558 0.62417 0.0
C1549 C 0.26921 0.58244 0.63062 0.0
C1550 C 0.29238 0.59955 0.60862 0.0
C1551 C 0.26483 0.61076 0.59926 0.0
C1552 C 0.23955 0.60743 0.60517 0.0
H1553 H 0.20997 0.7086 0.515 0.0
H1554 H 0.21318 0.68087 0.53473 0.0
C1555 C 0.24169 0.59345 0.62081 0.0
C1556 C 0.26266 0.62615 0.58373 0.0
H1557 H 0.23241 0.67262 0.57977 0.0
C1558 C 0.27891 0.62237 0.56282 0.0
C1559 C 0.2457 0.64449 0.58994 0.0
C1560 C 0.22879 0.64945 0.61262 0.0
C1561 C 0.27844 0.63646 0.54783 0.0
C1562 C 0.26166 0.65479 0.55414 0.0
C1563 C 0.24524 0.65854 0.57495 0.0
C1564 C 0.26072 0.67043 0.53958 0.0
C1565 C 0.29551 0.6316 0.52523 0.0
C1566 C 0.2865 0.67369 0.53534 0.0
C1567 C 0.28479 0.68958 0.52375 0.0
C1568 C 0.25721 0.70255 0.51641 0.0
C1569 C 0.23163 0.6989 0.52015 0.0
C1570 C 0.23337 0.68305 0.53158 0.0
H1571 H 0.30063 0.61722 0.52013 0.0
H1572 H 0.28293 0.64071 0.51089 0.0
H1573 H 0.31682 0.63327 0.52734 0.0
H1574 H 0.30778 0.6643 0.54178 0.0
H1575 H 0.30487 0.69202 0.52138 0.0
H1576 H 0.29898 0.0367 0.29643 0.0
H1577 H 0.33315 0.03762 0.32687 0.0
H1578 H 0.33418 0.98724 0.35547 0.0
H1579 H 0.29925 0.98646 0.32537 0.0
H1580 H 0.33196 0.01204 0.38939 0.0
H1581 H 0.42062 0.00489 0.32524 0.0
H1582 H 0.3868 0.02418 0.3196 0.0
H1583 H 0.38747 1.00146 0.31757 0.0
C1584 C 0.30636 0.02585 0.30926 0.0
C1585 C 0.29675 0.01138 0.30838 0.0
C1586 C 0.32596 0.02637 0.32656 0.0
C1587 C 0.33671 0.01227 0.34302 0.0
C1588 C 0.32626 0.99818 0.34278 0.0
H1589 H 0.49502 0.98504 0.42584 0.0
H1590 H 0.45648 0.98575 0.39836 0.0
C1591 C 0.30634 0.99775 0.3256 0.0
C1592 C 0.35946 0.01201 0.36005 0.0
H1593 H 0.42911 0.01172 0.3642 0.0
C1594 C 0.35322 0.01195 0.38393 0.0
C1595 C 0.38737 0.01154 0.3528 0.0
C1596 C 0.39614 0.01033 0.32741 0.0
C1597 C 0.37407 0.01174 0.4008 0.0
C1598 C 0.40146 0.01201 0.39351 0.0
C1599 C 0.40785 0.01181 0.36966 0.0
C1600 C 0.4244 0.01176 0.41032 0.0
C1601 C 0.36704 0.0107 0.42622 0.0
C1602 C 0.41916 0.0263 0.42587 0.0
C1603 C 0.44119 0.02595 0.44155 0.0
C1604 C 0.46865 0.01106 0.44179 0.0
C1605 C 0.47402 0.99671 0.42592 0.0
C1606 C 0.45203 0.99705 0.41031 0.0
H1607 H 0.34806 0.00655 0.4287 0.0
H1608 H 0.38664 1.00083 0.43551 0.0
H1609 H 0.36122 0.02431 0.43437 0.0
H1610 H 0.39813 0.03794 0.42577 0.0
H1611 H 0.43677 0.03724 0.45352 0.0
H1612 H 0.85325 0.81466 0.03785 0.0
H1613 H 0.85891 0.84377 0.0377 0.0
H1614 H 0.86161 0.84297 0.96251 0.0
H1615 H 0.85475 0.81407 0.96249 0.0
H1616 H 0.9039 0.85215 0.02043 0.0
H1617 H 0.79781 0.89319 0.97585 0.0
H1618 H 0.80559 0.87064 0.98724 0.0
H1619 H 0.82183 0.87341 0.96017 0.0
C1620 C 0.85478 0.82074 0.02125 0.0
C1621 C 0.85332 0.81213 0.00017 0.0
C1622 C 0.85818 0.83733 0.02121 0.0
C1623 C 0.8602 0.84568 0.0001 0.0
C1624 C 0.8595 0.83694 0.97899 0.0
H1625 H 0.8951 0.94474 0.98311 0.0
H1626 H 0.88782 0.91654 0.97525 0.0
C1627 C 0.856 0.82031 0.97901 0.0
C1628 C 0.86347 0.86341 0.00055 0.0
H1629 H 0.82917 0.90843 0.98564 0.0
C1630 C 0.88763 0.86443 0.01273 0.0
C1631 C 0.84217 0.87941 0.99047 0.0
C1632 C 0.81524 0.87924 0.97785 0.0
C1633 C 0.89084 0.88105 0.01541 0.0
C1634 C 0.86931 0.89705 0.00574 0.0
C1635 C 0.84556 0.89605 0.99302 0.0
C1636 C 0.87076 0.915 0.0096 0.0
C1637 C 0.91704 0.88152 0.02879 0.0
C1638 C 0.86293 0.92357 0.03135 0.0
C1639 C 0.86678 0.93974 0.03586 0.0
C1640 C 0.87862 0.94759 0.01869 0.0
C1641 C 0.88552 0.93922 0.99661 0.0
C1642 C 0.88154 0.92307 0.9921 0.0
H1643 H 0.93392 0.86762 0.03231 0.0
H1644 H 0.92767 0.88939 0.01898 0.0
H1645 H 0.90928 0.88852 0.04572 0.0
H1646 H 0.85446 0.91751 0.045 0.0
H1647 H 0.86091 0.94596 0.05292 0.0
H1648 H 0.66291 0.18912 0.53003 0.0
H1649 H 0.65498 0.16167 0.5402 0.0
H1650 H 0.57686 0.17926 0.49693 0.0
H1651 H 0.58377 0.2073 0.48743 0.0
H1652 H 0.57213 0.16082 0.5389 0.0
H1653 H 0.67511 0.12285 0.48857 0.0
H1654 H 0.67928 0.13635 0.51231 0.0
H1655 H 0.65677 0.14737 0.48766 0.0
C1656 C 0.64352 0.1875 0.52315 0.0
C1657 C 0.62425 0.20036 0.50755 0.0
C1658 C 0.63918 0.17168 0.52888 0.0
C1659 C 0.6157 0.16829 0.51894 0.0
C1660 C 0.59526 0.1816 0.50466 0.0
H1661 H 0.60102 0.06962 0.47919 0.0
H1662 H 0.60341 0.09946 0.4834 0.0
C1663 C 0.59945 0.19751 0.49903 0.0
C1664 C 0.6143 0.15012 0.52126 0.0
H1665 H 0.65069 0.10561 0.50526 0.0
C1666 C 0.58937 0.14869 0.53176 0.0
C1667 C 0.63673 0.1344 0.51165 0.0
C1668 C 0.66339 0.13524 0.49923 0.0
C1669 C 0.58618 0.13189 0.53264 0.0
C1670 C 0.60859 0.11625 0.5229 0.0
C1671 C 0.63368 0.11766 0.51282 0.0
C1672 C 0.60557 0.09853 0.52107 0.0
C1673 C 0.5585 0.13106 0.54319 0.0
C1674 C 0.60606 0.0881 0.54092 0.0
C1675 C 0.60507 0.07085 0.53857 0.0
C1676 C 0.60373 0.06375 0.5163 0.0
C1677 C 0.60285 0.07442 0.49655 0.0
C1678 C 0.60388 0.09158 0.49892 0.0
H1679 H 0.54137 0.14485 0.5469 0.0
H1680 H 0.54889 0.12376 0.53135 0.0
H1681 H 0.56426 0.12331 0.55979 0.0
H1682 H 0.60779 0.09315 0.55816 0.0
H1683 H 0.60584 0.06295 0.55412 0.0
H1684 H 0.85033 0.45898 0.24938 0.0
H1685 H 0.87644 0.42587 0.25205 0.0
H1686 H 0.79274 0.41976 0.25068 0.0
H1687 H 0.76654 0.45295 0.24707 0.0
H1688 H 0.8761 0.40079 0.28326 0.0
H1689 H 0.83593 0.38659 0.19805 0.0
H1690 H 0.83062 0.40935 0.20709 0.0
H1691 H 0.80663 0.39882 0.21795 0.0
C1692 C 0.83746 0.45058 0.24963 0.0
C1693 C 0.80639 0.45854 0.24778 0.0
C1694 C 0.85243 0.43164 0.25123 0.0
C1695 C 0.83668 0.42022 0.2511 0.0
C1696 C 0.80549 0.42821 0.25018 0.0
H1697 H 0.89372 0.30201 0.25348 0.0
H1698 H 0.86589 0.33502 0.25658 0.0
C1699 C 0.79049 0.4472 0.24834 0.0
C1700 C 0.8531 0.40001 0.25153 0.0
H1701 H 0.86392 0.36098 0.22112 0.0
C1702 C 0.87344 0.3921 0.26965 0.0
C1703 C 0.84984 0.38862 0.23369 0.0
C1704 C 0.82981 0.39626 0.21297 0.0
C1705 C 0.89028 0.37317 0.27053 0.0
C1706 C 0.88684 0.36185 0.25277 0.0
C1707 C 0.86642 0.3697 0.23477 0.0
C1708 C 0.90427 0.34181 0.25239 0.0
C1709 C 0.91139 0.36538 0.29059 0.0
C1710 C 0.93515 0.33463 0.24903 0.0
C1711 C 0.95111 0.31574 0.24708 0.0
C1712 C 0.93644 0.30372 0.24852 0.0
C1713 C 0.90563 0.31093 0.2523 0.0
C1714 C 0.88969 0.32979 0.25408 0.0
H1715 H 0.90682 0.37518 0.3053 0.0
H1716 H 0.91001 0.35258 0.29707 0.0
H1717 H 0.93444 0.36206 0.28453 0.0
H1718 H 0.9468 0.34366 0.2473 0.0
H1719 H 0.97476 0.31059 0.24396 0.0
H1720 H 0.10673 0.56192 0.55365 0.0
H1721 H 0.10972 0.59169 0.55957 0.0
H1722 H 0.11309 0.59836 0.48519 0.0
H1723 H 0.10918 0.56912 0.479 0.0
H1724 H 0.16034 0.60337 0.51541 0.0
H1725 H 0.04337 0.64424 0.54197 0.0
H1726 H 0.0631 0.62182 0.55404 0.0
H1727 H 0.05256 0.62414 0.52398 0.0
C1728 C 0.10788 0.56978 0.53854 0.0
C1729 C 0.10807 0.56297 0.51583 0.0
C1730 C 0.1096 0.58677 0.54198 0.0
C1731 C 0.11155 0.59717 0.52279 0.0
C1732 C 0.11169 0.59046 0.5002 0.0
H1733 H 0.12893 0.69131 0.47279 0.0
H1734 H 0.12328 0.66281 0.4815 0.0
C1735 C 0.1098 0.57362 0.49673 0.0
C1736 C 0.11447 0.61484 0.52582 0.0
H1737 H 0.07402 0.66032 0.53447 0.0
C1738 C 0.14163 0.61578 0.51997 0.0
C1739 C 0.09004 0.63094 0.53193 0.0
C1740 C 0.06049 0.63044 0.53833 0.0
C1741 C 0.14468 0.63256 0.51907 0.0
C1742 C 0.11976 0.6488 0.52369 0.0
C1743 C 0.093 0.64781 0.53082 0.0
C1744 C 0.12063 0.66684 0.51885 0.0
C1745 C 0.17432 0.63286 0.51249 0.0
C1746 C 0.12011 0.67878 0.53698 0.0
C1747 C 0.1235 0.69511 0.53206 0.0
C1748 C 0.12737 0.6997 0.50892 0.0
C1749 C 0.12656 0.68801 0.49081 0.0
C1750 C 0.12323 0.67176 0.49574 0.0
H1751 H 0.1927 0.61936 0.51527 0.0
H1752 H 0.17402 0.63641 0.49375 0.0
H1753 H 0.17891 0.64329 0.52275 0.0
H1754 H 0.11806 0.67519 0.55493 0.0
H1755 H 0.12422 0.70378 0.54639 0.0
H1756 H 0.72355 0.0586 0.7579 0.0
H1757 H 0.6963 0.09184 0.75712 0.0
H1758 H 0.61551 0.08458 0.74138 0.0
H1759 H 0.64247 0.05142 0.74278 0.0
H1760 H 0.66333 0.11637 0.72468 0.0
H1761 H 0.59185 0.11566 0.7993 0.0
H1762 H 0.62396 0.09587 0.79092 0.0
H1763 H 0.58953 0.10175 0.77541 0.0
C1764 C 0.7 0.06413 0.75416 0.0
C1765 C 0.68501 0.05245 0.75074 0.0
C1766 C 0.68445 0.08312 0.7537 0.0
C1767 C 0.65367 0.09076 0.74976 0.0
C1768 C 0.63904 0.07905 0.74514 0.0
H1769 H 0.54943 0.20731 0.72303 0.0
H1770 H 0.57628 0.1742 0.71879 0.0
C1771 C 0.65451 0.0601 0.7458 0.0
C1772 C 0.63673 0.11089 0.75115 0.0
H1773 H 0.57917 0.14382 0.77948 0.0
C1774 C 0.64495 0.12239 0.73668 0.0
C1775 C 0.61301 0.11881 0.76707 0.0
C1776 C 0.60422 0.10741 0.78423 0.0
C1777 C 0.62998 0.14151 0.73755 0.0
C1778 C 0.60564 0.14937 0.75296 0.0
C1779 C 0.59758 0.13785 0.76749 0.0
C1780 C 0.58898 0.1695 0.75516 0.0
C1781 C 0.64099 0.15308 0.72243 0.0
C1782 C 0.58619 0.1779 0.77708 0.0
C1783 C 0.57026 0.1967 0.77958 0.0
C1784 C 0.55679 0.20757 0.7602 0.0
C1785 C 0.55945 0.19922 0.73826 0.0
C1786 C 0.57514 0.18034 0.73579 0.0
H1787 H 0.66431 0.14545 0.71681 0.0
H1788 H 0.62706 0.15721 0.70652 0.0
H1789 H 0.6396 0.16561 0.73174 0.0
H1790 H 0.59652 0.16989 0.79232 0.0
H1791 H 0.56861 0.20274 0.79671 0.0
H1792 H 0.78612 0.56287 0.10232 0.0
H1793 H 0.78562 0.58643 0.07462 0.0
H1794 H 0.74374 0.62793 0.12622 0.0
H1795 H 0.74488 0.6045 0.1542 0.0
H1796 H 0.73844 0.61758 0.05704 0.0
H1797 H 0.81891 0.6362 0.10774 0.0
H1798 H 0.81294 0.61555 0.11313 0.0
H1799 H 0.78732 0.63701 0.12435 0.0
C1800 C 0.7768 0.57702 0.10777 0.0
C1801 C 0.76574 0.58179 0.13054 0.0
C1802 C 0.77643 0.59045 0.09189 0.0
C1803 C 0.76517 0.60886 0.09854 0.0
C1804 C 0.75303 0.61375 0.1209 0.0
H1805 H 0.70902 0.70846 0.02293 0.0
H1806 H 0.71477 0.68049 0.04329 0.0
C1807 C 0.75336 0.60035 0.13678 0.0
C1808 C 0.76651 0.62298 0.08227 0.0
H1809 H 0.79372 0.65627 0.07681 0.0
C1810 C 0.75072 0.62595 0.06123 0.0
C1811 C 0.78305 0.63362 0.08758 0.0
C1812 C 0.80177 0.63036 0.10931 0.0
C1813 C 0.74998 0.63983 0.04581 0.0
C1814 C 0.76518 0.65113 0.05177 0.0
C1815 C 0.78198 0.64765 0.07233 0.0
C1816 C 0.76206 0.66749 0.0379 0.0
C1817 C 0.73291 0.64234 0.0233 0.0
C1818 C 0.78701 0.6697 0.02863 0.0
C1819 C 0.78392 0.68591 0.01721 0.0
C1820 C 0.75581 0.70019 0.01498 0.0
C1821 C 0.73093 0.69773 0.02402 0.0
C1822 C 0.73408 0.68165 0.03552 0.0
H1823 H 0.72954 0.62979 0.01837 0.0
H1824 H 0.71076 0.65352 0.02542 0.0
H1825 H 0.74455 0.64609 0.00885 0.0
H1826 H 0.80889 0.65899 0.03055 0.0
H1827 H 0.80357 0.68739 0.01059 0.0
H1828 H 0.93543 0.5363 0.45313 0.0
H1829 H 0.89441 0.53612 0.42893 0.0
H1830 H 0.95316 0.48615 0.39634 0.0
H1831 H 0.9935 0.48563 0.42177 0.0
H1832 H 0.88621 0.53894 0.38523 0.0
H1833 H 0.88568 0.47217 0.41025 0.0
H1834 H 0.90728 0.48239 0.42578 0.0
H1835 H 0.92162 0.46932 0.39966 0.0
C1836 C 0.93933 0.52512 0.44108 0.0
C1837 C 0.96728 0.51077 0.43964 0.0
C1838 C 0.91598 0.52506 0.42719 0.0
C1839 C 0.92042 0.51083 0.41126 0.0
C1840 C 0.94882 0.4969 0.40912 0.0
H1841 H 0.82754 0.51809 0.28426 0.0
H1842 H 0.85899 0.51888 0.31669 0.0
C1843 C 0.972 0.49677 0.42335 0.0
C1844 C 0.89593 0.51119 0.39583 0.0
H1845 H 0.86225 0.48451 0.37329 0.0
C1846 C 0.88069 0.52711 0.38293 0.0
C1847 C 0.88805 0.49597 0.39321 0.0
C1848 C 0.9013 0.47911 0.4082 0.0
C1849 C 0.85894 0.52791 0.36664 0.0
C1850 C 0.85316 0.5121 0.36239 0.0
C1851 C 0.86715 0.4965 0.37618 0.0
C1852 C 0.83406 0.51119 0.34281 0.0
C1853 C 0.84243 0.54573 0.3542 0.0
C1854 C 0.81037 0.50573 0.34649 0.0
C1855 C 0.79265 0.50485 0.32777 0.0
C1856 C 0.79827 0.50956 0.30517 0.0
C1857 C 0.82228 0.51472 0.30154 0.0
C1858 C 0.84019 0.5153 0.32011 0.0
H1859 H 0.84114 0.55754 0.36514 0.0
H1860 H 0.85451 0.54619 0.33799 0.0
H1861 H 0.81955 0.54734 0.34952 0.0
H1862 H 0.80544 0.5023 0.36384 0.0
H1863 H 0.77435 0.50075 0.33103 0.0
H1864 H 0.20245 0.52422 0.67081 0.0
H1865 H 0.1681 0.52432 0.63975 0.0
H1866 H 0.15965 0.47707 0.6703 0.0
H1867 H 0.19347 0.47699 0.70155 0.0
H1868 H 0.16856 0.49769 0.60686 0.0
H1869 H 0.07422 0.5154 0.66872 0.0
H1870 H 0.10883 0.51703 0.67636 0.0
H1871 H 0.10573 0.49526 0.67662 0.0
C1872 C 0.19347 0.51376 0.67082 0.0
C1873 C 0.20035 0.50074 0.68881 0.0
C1874 C 0.17389 0.51384 0.65306 0.0
C1875 C 0.16098 0.50091 0.65305 0.0
C1876 C 0.16893 0.48739 0.67033 0.0
H1877 H 0.05782 0.4769 0.54454 0.0
H1878 H 0.0973 0.47627 0.5713 0.0
C1879 C 0.18832 0.48735 0.68813 0.0
C1880 C 0.13824 0.50197 0.63557 0.0
H1881 H 0.0659 0.50753 0.6303 0.0
C1882 C 0.14607 0.4999 0.6119 0.0
C1883 C 0.10885 0.50515 0.64227 0.0
C1884 C 0.09875 0.50852 0.66735 0.0
C1885 C 0.1253 0.50055 0.5947 0.0
C1886 C 0.09618 0.50307 0.60151 0.0
C1887 C 0.08831 0.50544 0.62516 0.0
C1888 C 0.07321 0.5036 0.58449 0.0
C1889 C 0.13453 0.49888 0.56943 0.0
C1890 C 0.0464 0.51897 0.58348 0.0
C1891 C 0.02381 0.51922 0.56854 0.0
C1892 C 0.02776 0.50414 0.55426 0.0
C1893 C 0.05451 0.48874 0.55524 0.0
C1894 C 0.07708 0.48844 0.57035 0.0
H1895 H 0.15461 0.50192 0.5668 0.0
H1896 H 0.13971 0.48472 0.56342 0.0
H1897 H 0.11641 0.50826 0.55838 0.0
H1898 H 0.04294 0.53077 0.59433 0.0
H1899 H 0.0034 0.5313 0.56796 0.0
H1900 H 0.5431 0.73846 0.17156 0.0
H1901 H 0.57669 0.73909 0.14027 0.0
H1902 H 0.58843 0.78436 0.17356 0.0
H1903 H 0.55536 0.78369 0.20508 0.0
H1904 H 0.57463 0.76701 0.1093 0.0
H1905 H 0.67323 0.74607 0.16713 0.0
H1906 H 0.63899 0.74437 0.17582 0.0
H1907 H 0.64251 0.766 0.17682 0.0
C1908 C 0.55273 0.7486 0.17219 0.0
C1909 C 0.54684 0.76089 0.19094 0.0
C1910 C 0.57187 0.74894 0.15429 0.0
C1911 C 0.58538 0.76156 0.15487 0.0
C1912 C 0.57869 0.77427 0.17309 0.0
H1913 H 0.68319 0.7855 0.04086 0.0
H1914 H 0.64501 0.78692 0.06943 0.0
C1915 C 0.55971 0.77389 0.19104 0.0
C1916 C 0.60702 0.76117 0.13671 0.0
H1917 H 0.67933 0.75485 0.1287 0.0
C1918 C 0.59757 0.76429 0.11345 0.0
C1919 C 0.63693 0.75746 0.14226 0.0
C1920 C 0.64867 0.75311 0.16682 0.0
C1921 C 0.61728 0.76392 0.0955 0.0
C1922 C 0.6471 0.76061 0.10111 0.0
C1923 C 0.65647 0.75745 0.12441 0.0
C1924 C 0.6694 0.75979 0.08318 0.0
C1925 C 0.60601 0.76674 0.07075 0.0
C1926 C 0.69605 0.7443 0.08183 0.0
C1927 C 0.71804 0.74369 0.06601 0.0
C1928 C 0.7136 0.75848 0.05107 0.0
C1929 C 0.68692 0.77392 0.05218 0.0
C1930 C 0.66506 0.77465 0.06832 0.0
H1931 H 0.5862 0.76333 0.06869 0.0
H1932 H 0.59951 0.78129 0.06593 0.0
H1933 H 0.62333 0.7583 0.05843 0.0
H1934 H 0.69988 0.73267 0.0931 0.0
H1935 H 0.73835 0.73156 0.06527 0.0
H1936 H 0.67072 0.4903 0.20989 0.0
H1937 H 0.64058 0.48837 0.17715 0.0
H1938 H 0.68847 0.51031 0.13141 0.0
H1939 H 0.71831 0.51287 0.1645 0.0
H1940 H 0.63083 0.52636 0.12398 0.0
H1941 H 0.66072 0.45201 0.12537 0.0
H1942 H 0.64754 0.4616 0.15345 0.0
H1943 H 0.68104 0.46265 0.14179 0.0
C1944 C 0.67509 0.49458 0.19285 0.0
C1945 C 0.69705 0.50163 0.18974 0.0
C1946 C 0.65797 0.49332 0.17408 0.0
C1947 C 0.66281 0.49871 0.1517 0.0
C1948 C 0.68461 0.50587 0.14851 0.0
H1949 H 0.56265 0.47606 0.03789 0.0
H1950 H 0.60333 0.47555 0.06312 0.0
C1951 C 0.70159 0.50735 0.16741 0.0
C1952 C 0.64371 0.49786 0.13211 0.0
H1953 H 0.61406 0.47007 0.10679 0.0
C1954 C 0.62753 0.51398 0.11994 0.0
C1955 C 0.63987 0.48162 0.12643 0.0
C1956 C 0.65851 0.46347 0.13729 0.0
C1957 C 0.60639 0.51455 0.10316 0.0
C1958 C 0.60061 0.4987 0.09903 0.0
C1959 C 0.618 0.48233 0.11026 0.0
C1960 C 0.57608 0.49892 0.08371 0.0
C1961 C 0.59053 0.53219 0.09017 0.0
C1962 C 0.54712 0.51186 0.08728 0.0
C1963 C 0.52419 0.51249 0.07246 0.0
C1964 C 0.52969 0.49992 0.05414 0.0
C1965 C 0.55817 0.48627 0.05144 0.0
C1966 C 0.5813 0.48588 0.06595 0.0
H1967 H 0.60519 0.53975 0.08778 0.0
H1968 H 0.5828 0.52981 0.07282 0.0
H1969 H 0.57103 0.54101 0.1005 0.0
H1970 H 0.54227 0.5216 0.10142 0.0
H1971 H 0.50228 0.52301 0.07512 0.0
H1972 H 0.39496 0.44674 0.95765 0.0
H1973 H 0.38826 0.41783 0.9536 0.0
H1974 H 0.37763 0.41599 0.0281 0.0
H1975 H 0.38406 0.4448 0.03222 0.0
H1976 H 0.42327 0.38314 0.97647 0.0
H1977 H 0.30393 0.40965 -0.00013 0.0
H1978 H 0.32218 0.4243 0.99043 0.0
H1979 H 0.32636 0.41602 0.01993 0.0
C1980 C 0.39077 0.44025 0.97308 0.0
C1981 C 0.3898 0.44802 0.99524 0.0
C1982 C 0.38716 0.42373 0.97077 0.0
C1983 C 0.38211 0.41495 0.99053 0.0
C1984 C 0.38111 0.42271 0.01262 0.0
H1985 H 0.35903 0.31949 0.03455 0.0
H1986 H 0.36646 0.34789 0.02954 0.0
C1987 C 0.38494 0.43909 0.01496 0.0
C1988 C 0.37844 0.39745 0.98843 0.0
H1989 H 0.33018 0.37733 0.00096 0.0
C1990 C 0.40284 0.38184 0.98148 0.0
C1991 C 0.35169 0.3959 0.99492 0.0
C1992 C 0.32443 0.41238 0.00151 0.0
C1993 C 0.40161 0.36449 0.98203 0.0
C1994 C 0.37519 0.36288 0.98941 0.0
C1995 C 0.35048 0.37861 0.99548 0.0
C1996 C 0.37295 0.34498 0.99221 0.0
C1997 C 0.42891 0.34796 0.97572 0.0
C1998 C 0.37436 0.33389 0.97287 0.0
C1999 C 0.37002 0.31764 0.97567 0.0
C2000 C 0.364 0.31233 0.99786 0.0
C2001 C 0.36326 0.32332 0.01722 0.0
C2002 C 0.36761 0.3395 0.0144 0.0
H2003 H 0.44898 0.3512 0.97448 0.0
H2004 H 0.43299 0.33696 0.98881 0.0
H2005 H 0.42547 0.34266 0.95857 0.0
H2006 H 0.37795 0.33805 0.95554 0.0
H2007 H 0.37032 0.30958 0.96039 0.0
H2008 H 0.10352 0.21055 0.24257 0.0
H2009 H 0.1302 0.17736 0.24003 0.0
H2010 H 0.04782 0.17036 0.24863 0.0
H2011 H 0.02108 0.20353 0.25129 0.0
H2012 H 0.13145 0.15215 0.27511 0.0
H2013 H 0.08642 0.13745 0.1923 0.0
H2014 H 0.0834 0.1601 0.20008 0.0
H2015 H 0.05895 0.15079 0.213 0.0
C2016 C 0.09106 0.20194 0.24368 0.0
C2017 C 0.06019 0.20965 0.24707 0.0
C2018 C 0.10633 0.18298 0.24223 0.0
C2019 C 0.09101 0.17135 0.24388 0.0
C2020 C 0.06007 0.17905 0.24687 0.0
H2021 H 0.1409 0.05414 0.25142 0.0
H2022 H 0.1153 0.08731 0.24787 0.0
C2023 C 0.04481 0.19802 0.24845 0.0
C2024 C 0.10764 0.15118 0.24398 0.0
H2025 H 0.11563 0.1119 0.21528 0.0
C2026 C 0.12816 0.14335 0.26194 0.0
C2027 C 0.10316 0.1397 0.22689 0.0
C2028 C 0.08198 0.14739 0.20684 0.0
C2029 C 0.14385 0.12435 0.2636 0.0
C2030 C 0.13955 0.11282 0.24643 0.0
C2031 C 0.11907 0.12069 0.22839 0.0
C2032 C 0.15544 0.09256 0.24733 0.0
C2033 C 0.16409 0.11682 0.28423 0.0
C2034 C 0.18661 0.08432 0.24766 0.0
C2035 C 0.20128 0.06536 0.24998 0.0
C2036 C 0.1851 0.05421 0.25159 0.0
C2037 C 0.15399 0.06238 0.25033 0.0
C2038 C 0.13932 0.08134 0.24824 0.0
H2039 H 0.15858 0.12675 0.29885 0.0
H2040 H 0.1628 0.104 0.29068 0.0
H2041 H 0.18731 0.1138 0.2789 0.0
H2042 H 0.19964 0.09258 0.24637 0.0
H2043 H 0.22526 0.05947 0.25083 0.0
H2044 H 0.27663 0.30565 0.98639 0.0
H2045 H 0.27502 0.33295 0.96617 0.0
H2046 H 0.18981 0.34048 0.93707 0.0
H2047 H 0.19092 0.31337 0.95793 0.0
H2048 H 0.27522 0.33702 0.92057 0.0
H2049 H 0.17489 0.39184 0.95639 0.0
H2050 H 0.19147 0.36961 0.96979 0.0
H2051 H 0.16729 0.37313 0.94502 0.0
C2052 C 0.25724 0.31331 0.97609 0.0
C2053 C 0.23386 0.30736 0.97381 0.0
C2054 C 0.25638 0.32892 0.96449 0.0
C2055 C 0.2322 0.3389 0.95022 0.0
C2056 C 0.20839 0.33329 0.9484 0.0
H2057 H 0.23744 0.40431 0.83151 0.0
H2058 H 0.23873 0.38031 0.85854 0.0
C2059 C 0.20909 0.31774 0.96028 0.0
C2060 C 0.23326 0.35413 0.93575 0.0
H2061 H 0.19476 0.39883 0.92125 0.0
C2062 C 0.25772 0.35058 0.9209 0.0
C2063 C 0.21066 0.37189 0.93634 0.0
C2064 C 0.18476 0.37692 0.95292 0.0
C2065 C 0.2599 0.36414 0.90628 0.0
C2066 C 0.23658 0.38164 0.90601 0.0
C2067 C 0.21247 0.38536 0.92128 0.0
C2068 C 0.23651 0.39614 0.88968 0.0
C2069 C 0.28734 0.3596 0.89147 0.0
C2070 C 0.2342 0.41319 0.89815 0.0
C2071 C 0.23327 0.42702 0.88268 0.0
C2072 C 0.23464 0.42403 0.85846 0.0
C2073 C 0.23702 0.40692 0.85007 0.0
C2074 C 0.23775 0.39317 0.86551 0.0
H2075 H 0.30648 0.34802 0.8989 0.0
H2076 H 0.28299 0.35554 0.8738 0.0
H2077 H 0.29359 0.37153 0.88971 0.0
H2078 H 0.23311 0.41581 0.91673 0.0
H2079 H 0.23152 0.44003 0.88968 0.0
H2080 H 0.25379 0.26439 0.91605 0.0
H2081 H 0.29412 0.26193 0.88951 0.0
H2082 H 0.35585 0.21999 0.93304 0.0
H2083 H 0.31503 0.22177 0.95909 0.0
H2084 H 0.34154 0.26927 0.90011 0.0
H2085 H 0.37799 0.19771 0.86907 0.0
H2086 H 0.34363 0.20909 0.88461 0.0
H2087 H 0.37821 0.20012 0.90018 0.0
C2088 C 0.27587 0.25441 0.91974 0.0
C2089 C 0.28149 0.24343 0.93974 0.0
C2090 C 0.2989 0.25309 0.90465 0.0
C2091 C 0.32798 0.24077 0.90928 0.0
C2092 C 0.33353 0.2294 0.92894 0.0
H2093 H 0.47217 0.2577 0.83487 0.0
H2094 H 0.44127 0.25395 0.86638 0.0
C2095 C 0.31031 0.23055 0.94392 0.0
C2096 C 0.35237 0.24069 0.89399 0.0
H2097 H 0.40625 0.21427 0.85663 0.0
C2098 C 0.35577 0.25723 0.89063 0.0
C2099 C 0.37081 0.22497 0.88166 0.0
C2100 C 0.3674 0.20699 0.88385 0.0
C2101 C 0.37643 0.25868 0.8747 0.0
C2102 C 0.39494 0.24295 0.86237 0.0
C2103 C 0.39215 0.22627 0.86624 0.0
C2104 C 0.4155 0.24387 0.84395 0.0
C2105 C 0.37717 0.27722 0.87046 0.0
C2106 C 0.41211 0.2387 0.82111 0.0
C2107 C 0.43005 0.2405 0.80321 0.0
C2108 C 0.45157 0.24765 0.80778 0.0
C2109 C 0.45549 0.25238 0.83078 0.0
C2110 C 0.43778 0.25032 0.84877 0.0
H2111 H 0.35674 0.28842 0.8769 0.0
H2112 H 0.39632 0.27814 0.87986 0.0
H2113 H 0.37968 0.27946 0.8516 0.0
H2114 H 0.39509 0.23365 0.81701 0.0
H2115 H 0.42649 0.2367 0.78568 0.0
H2116 H 0.4379 0.53784 0.95049 0.0
H2117 H 0.39852 0.53849 0.92344 0.0
H2118 H 0.45636 0.48639 0.89549 0.0
H2119 H 0.49549 0.48568 0.92229 0.0
H2120 H 0.42856 0.51341 0.86169 0.0
H2121 H 0.34851 0.50644 0.92597 0.0
H2122 H 0.3626 0.52373 0.93212 0.0
H2123 H 0.38735 0.50012 0.93242 0.0
C2124 C 0.44203 0.52655 0.93858 0.0
C2125 C 0.46955 0.51169 0.93847 0.0
C2126 C 0.41957 0.52687 0.9233 0.0
C2127 C 0.4245 0.51236 0.90774 0.0
C2128 C 0.45213 0.49766 0.90746 0.0
H2129 H 0.30388 0.48463 0.82027 0.0
H2130 H 0.33735 0.48611 0.85128 0.0
C2131 C 0.47447 0.49733 0.92269 0.0
C2132 C 0.40147 0.51269 0.89092 0.0
H2133 H 0.33298 0.51116 0.88656 0.0
C2134 C 0.40761 0.51298 0.86709 0.0
C2135 C 0.37449 0.51177 0.89812 0.0
C2136 C 0.36775 0.51035 0.92353 0.0
C2137 C 0.38737 0.51247 0.85016 0.0
C2138 C 0.35993 0.51213 0.85731 0.0
C2139 C 0.35388 0.51166 0.88118 0.0
C2140 C 0.33751 0.51204 0.8401 0.0
C2141 C 0.39593 0.51183 0.82477 0.0
C2142 C 0.32586 0.5264 0.8241 0.0
C2143 C 0.30713 0.52549 0.8063 0.0
C2144 C 0.2993 0.51034 0.80443 0.0
C2145 C 0.30963 0.49644 0.82126 0.0
C2146 C 0.3287 0.49727 0.83896 0.0
H2147 H 0.42033 0.50711 0.82253 0.0
H2148 H 0.38814 0.50264 0.81472 0.0
H2149 H 0.38556 0.52574 0.81723 0.0
H2150 H 0.3318 0.53814 0.82506 0.0
H2151 H 0.29911 0.53657 0.79383 0.0
H2152 H 0.57594 0.71272 0.00604 0.0
H2153 H 0.57099 0.6835 0.01097 0.0
H2154 H 0.65905 0.66004 0.04002 0.0
H2155 H 0.6647 0.68881 0.03421 0.0
H2156 H 0.65127 0.64122 0.00222 0.0
H2157 H 0.56062 0.65367 0.06647 0.0
H2158 H 0.55142 0.66991 0.04301 0.0
H2159 H 0.58004 0.66874 0.06331 0.0
C2160 C 0.59416 0.7014 0.01369 0.0
C2161 C 0.62086 0.70313 0.01956 0.0
C2162 C 0.59112 0.68477 0.0168 0.0
C2163 C 0.6146 0.66964 0.026 0.0
C2164 C 0.64063 0.67159 0.03297 0.0
H2165 H 0.62132 0.55886 0.04575 0.0
H2166 H 0.62303 0.58887 0.05248 0.0
C2167 C 0.64373 0.68813 0.02978 0.0
C2168 C 0.61374 0.65124 0.02547 0.0
H2169 H 0.5755 0.626 0.04448 0.0
C2170 C 0.63481 0.63788 0.01161 0.0
C2171 C 0.5924 0.64687 0.03785 0.0
C2172 C 0.56998 0.66048 0.05369 0.0
C2173 C 0.63461 0.62042 0.00923 0.0
C2174 C 0.6126 0.61626 0.02086 0.0
C2175 C 0.5921 0.62937 0.03537 0.0
C2176 C 0.61011 0.59852 0.01733 0.0
C2177 C 0.65789 0.60655 0.99419 0.0
C2178 C 0.60187 0.59421 0.99546 0.0
C2179 C 0.6008 0.57719 0.99157 0.0
C2180 C 0.60798 0.5641 0.00949 0.0
C2181 C 0.61567 0.56862 0.03158 0.0
C2182 C 0.61666 0.58573 0.03547 0.0
H2183 H 0.67703 0.61042 0.99089 0.0
H2184 H 0.66613 0.59285 0.00245 0.0
H2185 H 0.64795 0.60558 0.97712 0.0
H2186 H 0.5963 0.60405 0.98136 0.0
H2187 H 0.59396 0.57438 0.97456 0.0
H2188 H 0.89103 0.80126 0.74842 0.0
H2189 H 0.86446 0.83438 0.75144 0.0
H2190 H 0.94773 0.84101 0.74997 0.0
H2191 H 0.97432 0.8079 0.74603 0.0
H2192 H 0.86465 0.85955 0.78289 0.0
H2193 H 0.90399 0.87431 0.69762 0.0
H2194 H 0.9095 0.85148 0.70651 0.0
H2195 H 0.93361 0.86197 0.7172 0.0
C2196 C 0.90368 0.80979 0.74873 0.0
C2197 C 0.93476 0.80199 0.74678 0.0
C2198 C 0.88846 0.82873 0.75052 0.0
C2199 C 0.90397 0.8403 0.75046 0.0
C2200 C 0.93515 0.83246 0.74943 0.0
H2201 H 0.84976 0.95817 0.75395 0.0
H2202 H 0.87662 0.92503 0.75639 0.0
C2203 C 0.95038 0.8135 0.7474 0.0
C2204 C 0.8874 0.86052 0.75107 0.0
H2205 H 0.87696 0.89979 0.7213 0.0
C2206 C 0.8673 0.86833 0.76938 0.0
C2207 C 0.89064 0.87204 0.73337 0.0
C2208 C 0.91036 0.86454 0.71244 0.0
C2209 C 0.85081 0.8873 0.77066 0.0
C2210 C 0.85432 0.89878 0.75309 0.0
C2211 C 0.8744 0.89099 0.73483 0.0
C2212 C 0.83747 0.91892 0.7532 0.0
C2213 C 0.83011 0.89498 0.79101 0.0
C2214 C 0.80646 0.92655 0.75064 0.0
C2215 C 0.79105 0.94552 0.7491 0.0
C2216 C 0.80639 0.95719 0.75012 0.0
C2217 C 0.83733 0.94953 0.75311 0.0
C2218 C 0.85271 0.9306 0.7545 0.0
H2219 H 0.83485 0.88504 0.80558 0.0
H2220 H 0.83173 0.90767 0.79758 0.0
H2221 H 0.80693 0.89842 0.78522 0.0
H2222 H 0.79426 0.91781 0.7492 0.0
H2223 H 0.76726 0.95102 0.74661 0.0
H2224 H 0.43717 0.17434 0.64607 0.0
H2225 H 0.44106 0.15118 0.61698 0.0
H2226 H 0.5233 0.15253 0.5922 0.0
H2227 H 0.51953 0.1759 0.62135 0.0
H2228 H 0.44479 0.15253 0.56799 0.0
H2229 H 0.54514 0.09814 0.60603 0.0
H2230 H 0.52264 0.11821 0.62227 0.0
H2231 H 0.54749 0.11971 0.60016 0.0
C2232 C 0.45594 0.16991 0.63428 0.0
C2233 C 0.47802 0.17702 0.63605 0.0
C2234 C 0.45819 0.15659 0.61772 0.0
C2235 C 0.48261 0.14998 0.6026 0.0
C2236 C 0.50453 0.1572 0.60399 0.0
H2237 H 0.52605 0.05726 0.50726 0.0
H2238 H 0.52574 0.08479 0.52633 0.0
C2239 C 0.50233 0.17055 0.62064 0.0
C2240 C 0.48486 0.13544 0.5856 0.0
H2241 H 0.52417 0.09046 0.57306 0.0
C2242 C 0.46226 0.13898 0.56897 0.0
C2243 C 0.50777 0.11782 0.58683 0.0
C2244 C 0.53209 0.11308 0.60483 0.0
C2245 C 0.46158 0.12527 0.55386 0.0
C2246 C 0.48381 0.10746 0.55573 0.0
C2247 C 0.50707 0.10411 0.57172 0.0
C2248 C 0.48259 0.09184 0.54224 0.0
C2249 C 0.43704 0.13001 0.53607 0.0
C2250 C 0.45832 0.08672 0.54461 0.0
C2251 C 0.45851 0.07092 0.53377 0.0
C2252 C 0.48317 0.05985 0.52063 0.0
C2253 C 0.50697 0.06536 0.51762 0.0
C2254 C 0.50676 0.08114 0.52841 0.0
H2255 H 0.42793 0.1448 0.5318 0.0
H2256 H 0.4449 0.12211 0.51974 0.0
H2257 H 0.41868 0.12673 0.54332 0.0
H2258 H 0.43971 0.09453 0.55562 0.0
H2259 H 0.44001 0.06692 0.5366 0.0
H2260 H 0.47713 0.3512 0.85444 0.0
H2261 H 0.47389 0.37478 0.88299 0.0
H2262 H 0.55917 0.3403 0.91076 0.0
H2263 H 0.56236 0.31643 0.88273 0.0
H2264 H 0.4858 0.37112 0.93842 0.0
H2265 H 0.5615 0.39071 0.88218 0.0
H2266 H 0.53892 0.37938 0.87056 0.0
H2267 H 0.57091 0.36683 0.88784 0.0
C2268 C 0.49486 0.3484 0.867 0.0
C2269 C 0.52015 0.33196 0.86614 0.0
C2270 C 0.493 0.36193 0.88323 0.0
C2271 C 0.51638 0.35926 0.8988 0.0
C2272 C 0.54098 0.34259 0.89876 0.0
H2273 H 0.55881 0.43976 0.97679 0.0
H2274 H 0.56088 0.41125 0.95922 0.0
C2275 C 0.54283 0.32904 0.88263 0.0
C2276 C 0.51631 0.37445 0.91365 0.0
H2277 H 0.54508 0.40706 0.9169 0.0
C2278 C 0.49879 0.37899 0.93386 0.0
C2279 C 0.53341 0.38455 0.90761 0.0
C2280 C 0.55221 0.38028 0.88583 0.0
C2281 C 0.49806 0.39342 0.94833 0.0
C2282 C 0.51477 0.40381 0.94203 0.0
C2283 C 0.53245 0.39907 0.92187 0.0
C2284 C 0.5133 0.42021 0.95526 0.0
C2285 C 0.47972 0.39714 0.97034 0.0
C2286 C 0.48591 0.43471 0.95906 0.0
C2287 C 0.48468 0.45088 0.96933 0.0
C2288 C 0.51086 0.4531 0.97564 0.0
C2289 C 0.53827 0.4385 0.97216 0.0
C2290 C 0.53945 0.4222 0.96211 0.0
H2291 H 0.47742 0.38459 0.97678 0.0
H2292 H 0.4896 0.40254 0.98441 0.0
H2293 H 0.4571 0.40736 0.9666 0.0
H2294 H 0.46547 0.43382 0.95331 0.0
H2295 H 0.46313 0.46188 0.9715 0.0
H2296 H 0.56036 0.82544 0.36629 0.0
H2297 H 0.55922 0.84929 0.39341 0.0
H2298 H 0.46366 0.87034 0.39458 0.0
H2299 H 0.46459 0.84617 0.36764 0.0
H2300 H 0.53185 0.88677 0.38477 0.0
H2301 H 0.48801 0.8666 0.46427 0.0
H2302 H 0.49973 0.852 0.43907 0.0
H2303 H 0.46375 0.87042 0.43957 0.0
C2304 C 0.53908 0.83489 0.37266 0.0
C2305 C 0.51255 0.8338 0.36493 0.0
C2306 C 0.53849 0.8486 0.38804 0.0
C2307 C 0.5114 0.86147 0.39617 0.0
C2308 C 0.48482 0.86038 0.38875 0.0
H2309 H 0.4608 0.96047 0.47649 0.0
H2310 H 0.46325 0.93319 0.45597 0.0
C2311 C 0.48538 0.84667 0.37322 0.0
C2312 C 0.51114 0.87662 0.41129 0.0
H2313 H 0.49086 0.89593 0.46506 0.0
C2314 C 0.52309 0.88871 0.40239 0.0
C2315 C 0.49956 0.87914 0.43421 0.0
C2316 C 0.48726 0.86626 0.44494 0.0
C2317 C 0.52335 0.90346 0.41563 0.0
C2318 C 0.51193 0.90594 0.43861 0.0
C2319 C 0.49988 0.89388 0.44752 0.0
C2320 C 0.5111 0.92151 0.45319 0.0
C2321 C 0.535 0.91657 0.4046 0.0
C2322 C 0.5373 0.92376 0.45916 0.0
C2323 C 0.53602 0.93942 0.471 0.0
C2324 C 0.50851 0.95303 0.47723 0.0
C2325 C 0.48243 0.95028 0.47213 0.0
C2326 C 0.48373 0.93467 0.46031 0.0
H2327 H 0.53613 0.9153 0.3853 0.0
H2328 H 0.52083 0.9309 0.40919 0.0
H2329 H 0.55773 0.91359 0.41114 0.0
H2330 H 0.5587 0.91357 0.4542 0.0
H2331 H 0.55652 0.94106 0.47472 0.0
H2332 H 0.44347 0.57499 0.00829 0.0
H2333 H 0.44112 0.60357 0.02629 0.0
H2334 H 0.53048 0.57601 0.05172 0.0
H2335 H 0.53266 0.54768 0.03436 0.0
H2336 H 0.44789 0.60917 0.07343 0.0
H2337 H 0.53364 0.62178 0.02197 0.0
H2338 H 0.5183 0.60555 0.01303 0.0
H2339 H 0.54715 0.5994 0.03466 0.0
C2340 C 0.46266 0.57512 0.01753 0.0
C2341 C 0.48856 0.55917 0.01939 0.0
C2342 C 0.46134 0.59144 0.02772 0.0
C2343 C 0.48593 0.59203 0.0398 0.0
C2344 C 0.51162 0.57607 0.04182 0.0
H2345 H 0.52853 0.66205 0.13418 0.0
H2346 H 0.52885 0.6386 0.10645 0.0
C2347 C 0.51288 0.55985 0.03178 0.0
C2348 C 0.48419 0.60883 0.05203 0.0
H2349 H 0.51941 0.6381 0.0583 0.0
C2350 C 0.46318 0.6157 0.06989 0.0
C2351 C 0.50446 0.61715 0.04753 0.0
C2352 C 0.52698 0.61069 0.02811 0.0
C2353 C 0.46257 0.63024 0.08399 0.0
C2354 C 0.48305 0.63845 0.07971 0.0
C2355 C 0.50372 0.63181 0.06153 0.0
C2356 C 0.4839 0.6535 0.09454 0.0
C2357 C 0.44082 0.63613 0.10401 0.0
C2358 C 0.45892 0.66992 0.09644 0.0
C2359 C 0.45853 0.68324 0.11244 0.0
C2360 C 0.48328 0.68051 0.12671 0.0
C2361 C 0.5089 0.66446 0.1238 0.0
C2362 C 0.50921 0.6511 0.10783 0.0
H2363 H 0.43207 0.62558 0.10845 0.0
H2364 H 0.45128 0.63905 0.11982 0.0
H2365 H 0.42174 0.64877 0.09908 0.0
H2366 H 0.43935 0.67221 0.08602 0.0
H2367 H 0.43832 0.69533 0.11428 0.0
loop_
_geom_bond_atom_site_label_1
_geom_bond_atom_site_label_2
_geom_bond_distance
_geom_bond_site_symmetry_2
_ccdc_geom_bond_type
Tb0 C2 2.809 . S
Tb0 O20 2.484 . S
Tb0 O21 2.440 . S
Tb0 O22 2.658 1_655 S
Tb0 O23 2.409 1_655 S
Tb0 O24 2.401 1_655 S
Tb0 O28 2.325 1_564 S
Tb0 O31 2.341 1_565 S
Tb1 C11 2.809 . S
Tb1 O22 2.325 1_546 S
Tb1 O25 2.341 1_545 S
Tb1 O26 2.484 . S
Tb1 O27 2.440 . S
Tb1 O28 2.658 1_455 S
Tb1 O29 2.409 1_455 S
Tb1 O30 2.379 1_455 S
C2 Tb0 2.809 . S
C2 C3 1.514 . S
C2 O20 1.248 . S
C2 O21 1.266 . S
C3 C2 1.514 . S
C3 C4 1.359 . S
C3 C8 1.348 . S
C4 C3 1.359 . S
C4 C5 1.380 . S
C4 H32 0.929 1_554 S
C5 C4 1.380 . S
C5 C6 1.347 . S
C5 H33 0.931 1_554 S
C6 C5 1.347 . S
C6 C7 1.369 . S
C7 C6 1.369 . S
C7 C8 1.408 . S
C7 H34 0.930 . S
C8 C3 1.348 . S
C8 C7 1.408 . S
C8 H35 0.930 . S
C9 O22 1.281 . S
C9 O23 1.254 . S
C10 O24 1.196 1_556 S
C10 O25 1.266 . S
C11 Tb1 2.809 . S
C11 C12 1.514 . S
C11 O26 1.248 . S
C11 O27 1.266 . S
C12 C11 1.514 . S
C12 C13 1.381 . S
C12 C17 1.348 . S
C13 C12 1.381 . S
C13 C14 1.380 . S
C13 H36 0.906 1_556 S
C14 C13 1.380 . S
C14 C15 1.372 . S
C14 H37 0.906 1_556 S
C15 C14 1.372 . S
C15 C16 1.369 . S
C16 C15 1.369 . S
C16 C17 1.408 . S
C16 H38 0.930 . S
C17 C12 1.348 . S
C17 C16 1.408 . S
C17 H39 0.930 . S
C18 O28 1.281 . S
C18 O29 1.254 . S
C19 O30 1.234 1_554 S
C19 O31 1.266 . S
O20 Tb0 2.484 . S
O20 C2 1.248 . S
O21 Tb0 2.440 . S
O21 C2 1.266 . S
O22 Tb0 2.658 1_455 S
O22 Tb1 2.325 1_564 S
O22 C9 1.281 . S
O23 Tb0 2.409 1_455 S
O23 C9 1.254 . S
O24 Tb0 2.401 1_455 S
O24 C10 1.196 1_554 S
O25 Tb1 2.341 1_565 S
O25 C10 1.266 . S
O26 Tb1 2.484 . S
O26 C11 1.248 . S
O27 Tb1 2.440 . S
O27 C11 1.266 . S
O28 Tb0 2.325 1_546 S
O28 Tb1 2.658 1_655 S
O28 C18 1.281 . S
O29 Tb1 2.409 1_655 S
O29 C18 1.254 . S
O30 Tb1 2.379 1_655 S
O30 C19 1.234 1_556 S
O31 Tb0 2.341 1_545 S
O31 C19 1.266 . S
H32 C4 0.929 1_556 S
H33 C5 0.931 1_556 S
H34 C7 0.930 . S
H35 C8 0.930 . S
H36 C13 0.906 1_554 S
H37 C14 0.906 1_554 S
H38 C16 0.930 . S
H39 C17 0.930 . S
Tb40 C42 2.809 . S
Tb40 O60 2.489 . S
Tb40 O61 2.440 . S
Tb40 O62 2.658 . S
Tb40 O63 2.409 . S
Tb40 O64 2.378 1_455 S
Tb40 O68 2.325 1_455 S
Tb40 O71 2.341 . S
Tb41 C51 2.809 . S
Tb41 O62 2.325 1_655 S
Tb41 O65 2.341 . S
Tb41 O66 2.484 1_655 S
Tb41 O67 2.440 . S
Tb41 O68 2.658 . S
Tb41 O69 2.409 . S
Tb41 O70 2.378 1_655 S
C42 Tb40 2.809 . S
C42 C43 1.514 . S
C42 O60 1.263 . S
C42 O61 1.266 . S
C43 C42 1.514 . S
C43 C44 1.359 1_455 S
C43 C48 1.348 . S
C44 C43 1.359 1_655 S
C44 C45 1.380 . S
C44 H72 0.929 . S
C45 C44 1.380 . S
C45 C46 1.347 1_655 S
C45 H73 0.931 . S
C46 C45 1.347 1_455 S
C46 C47 1.369 . S
C47 C46 1.369 . S
C47 C48 1.408 . S
C47 H74 0.930 . S
C48 C43 1.348 . S
C48 C47 1.408 . S
C48 H75 0.930 . S
C49 O62 1.281 . S
C49 O63 1.254 . S
C50 O64 1.236 . S
C50 O65 1.266 . S
C51 Tb41 2.809 . S
C51 C52 1.514 . S
C51 O66 1.246 1_655 S
C51 O67 1.266 . S
C52 C51 1.514 . S
C52 C53 1.359 1_655 S
C52 C57 1.348 . S
C53 C52 1.359 1_455 S
C53 C54 1.380 . S
C53 H76 0.929 . S
C54 C53 1.380 . S
C54 C55 1.347 1_455 S
C54 H77 0.931 . S
C55 C54 1.347 1_655 S
C55 C56 1.369 . S
C56 C55 1.369 . S
C56 C57 1.408 . S
C56 H78 0.930 . S
C57 C52 1.348 . S
C57 C56 1.408 . S
C57 H79 0.930 . S
C58 O68 1.281 . S
C58 O69 1.254 . S
C59 O70 1.236 . S
C59 O71 1.266 . S
O60 Tb40 2.489 . S
O60 C42 1.263 . S
O61 Tb40 2.440 . S
O61 C42 1.266 . S
O62 Tb40 2.658 . S
O62 Tb41 2.325 1_455 S
O62 C49 1.281 . S
O63 Tb40 2.409 . S
O63 C49 1.254 . S
O64 Tb40 2.378 1_655 S
O64 C50 1.236 . S
O65 Tb41 2.341 . S
O65 C50 1.266 . S
O66 Tb41 2.484 1_455 S
O66 C51 1.246 1_455 S
O67 Tb41 2.440 . S
O67 C51 1.266 . S
O68 Tb40 2.325 1_655 S
O68 Tb41 2.658 . S
O68 C58 1.281 . S
O69 Tb41 2.409 . S
O69 C58 1.254 . S
O70 Tb41 2.378 1_455 S
O70 C59 1.236 . S
O71 Tb40 2.341 . S
O71 C59 1.266 . S
H72 C44 0.929 . S
H73 C45 0.931 . S
H74 C47 0.930 . S
H75 C48 0.930 . S
H76 C53 0.929 . S
H77 C54 0.931 . S
H78 C56 0.930 . S
H79 C57 0.930 . S
Tb80 C82 2.809 . S
Tb80 O100 2.484 . S
Tb80 O101 2.440 . S
Tb80 O102 2.658 . S
Tb80 O103 2.409 . S
Tb80 O104 2.378 . S
Tb80 O108 2.325 . S
Tb80 O111 2.341 . S
Tb81 C91 2.809 . S
Tb81 O102 2.325 . S
Tb81 O105 2.341 . S
Tb81 O106 2.484 . S
Tb81 O107 2.440 . S
Tb81 O108 2.658 . S
Tb81 O109 2.409 . S
Tb81 O110 2.378 . S
C82 Tb80 2.809 . S
C82 C83 1.514 . S
C82 O100 1.248 . S
C82 O101 1.266 . S
C83 C82 1.514 . S
C83 C84 1.359 . S
C83 C88 1.348 . S
C84 C83 1.359 . S
C84 C85 1.380 . S
C84 H112 0.929 . S
C85 C84 1.380 . S
C85 C86 1.347 . S
C85 H113 0.931 . S
C86 C85 1.347 . S
C86 C87 1.369 . S
C87 C86 1.369 . S
C87 C88 1.408 . S
C87 H114 0.930 . S
C88 C83 1.348 . S
C88 C87 1.408 . S
C88 H115 0.930 . S
C89 O102 1.281 . S
C89 O103 1.254 . S
C90 O104 1.236 . S
C90 O105 1.266 . S
C91 Tb81 2.809 . S
C91 C92 1.514 . S
C91 O106 1.248 . S
C91 O107 1.266 . S
C92 C91 1.514 . S
C92 C93 1.359 . S
C92 C97 1.348 . S
C93 C92 1.359 . S
C93 C94 1.380 . S
C93 H116 0.929 . S
C94 C93 1.380 . S
C94 C95 1.347 . S
C94 H117 0.931 . S
C95 C94 1.347 . S
C95 C96 1.369 . S
C96 C95 1.369 . S
C96 C97 1.408 . S
C96 H118 0.930 . S
C97 C92 1.348 . S
C97 C96 1.408 . S
C97 H119 0.930 . S
C98 O108 1.281 . S
C98 O109 1.254 . S
C99 O110 1.236 . S
C99 O111 1.266 . S
O100 Tb80 2.484 . S
O100 C82 1.248 . S
O101 Tb80 2.440 . S
O101 C82 1.266 . S
O102 Tb80 2.658 . S
O102 Tb81 2.325 . S
O102 C89 1.281 . S
O103 Tb80 2.409 . S
O103 C89 1.254 . S
O104 Tb80 2.378 . S
O104 C90 1.236 . S
O105 Tb81 2.341 . S
O105 C90 1.266 . S
O106 Tb81 2.484 . S
O106 C91 1.248 . S
O107 Tb81 2.440 . S
O107 C91 1.266 . S
O108 Tb80 2.325 . S
O108 Tb81 2.658 . S
O108 C98 1.281 . S
O109 Tb81 2.409 . S
O109 C98 1.254 . S
O110 Tb81 2.378 . S
O110 C99 1.236 . S
O111 Tb80 2.341 . S
O111 C99 1.266 . S
H112 C84 0.929 . S
H113 C85 0.931 . S
H114 C87 0.930 . S
H115 C88 0.930 . S
H116 C93 0.929 . S
H117 C94 0.931 . S
H118 C96 0.930 . S
H119 C97 0.930 . S
Tb120 C122 2.809 . S
Tb120 O140 2.484 . S
Tb120 O141 2.440 . S
Tb120 O142 2.658 1_565 S
Tb120 O143 2.409 1_565 S
Tb120 O144 2.381 . S
Tb120 O148 2.325 . S
Tb120 O151 2.341 . S
Tb121 C131 2.809 . S
Tb121 O142 2.325 . S
Tb121 O145 2.341 . S
Tb121 O146 2.484 . S
Tb121 O147 2.440 . S
Tb121 O148 2.658 1_545 S
Tb121 O149 2.409 1_545 S
Tb121 O150 2.378 . S
C122 Tb120 2.809 . S
C122 C123 1.514 . S
C122 O140 1.248 . S
C122 O141 1.266 . S
C123 C122 1.514 . S
C123 C124 1.359 . S
C123 C128 1.348 . S
C124 C123 1.359 . S
C124 C125 1.380 . S
C124 H152 0.929 . S
C125 C124 1.380 . S
C125 C126 1.347 . S
C125 H153 0.931 . S
C126 C125 1.347 . S
C126 C127 1.369 . S
C127 C126 1.369 . S
C127 C128 1.408 . S
C127 H154 0.930 . S
C128 C123 1.348 . S
C128 C127 1.408 . S
C128 H155 0.930 . S
C129 O142 1.281 . S
C129 O143 1.254 . S
C130 O144 1.221 1_545 S
C130 O145 1.282 . S
C131 Tb121 2.809 . S
C131 C132 1.514 . S
C131 O146 1.248 . S
C131 O147 1.266 . S
C132 C131 1.514 . S
C132 C133 1.359 . S
C132 C137 1.348 . S
C133 C132 1.359 . S
C133 C134 1.380 . S
C133 H156 0.929 . S
C134 C133 1.380 . S
C134 C135 1.347 . S
C134 H157 0.931 . S
C135 C134 1.347 . S
C135 C136 1.369 . S
C136 C135 1.369 . S
C136 C137 1.408 . S
C136 H158 0.930 . S
C137 C132 1.348 . S
C137 C136 1.408 . S
C137 H159 0.930 . S
C138 O148 1.281 . S
C138 O149 1.254 . S
C139 O150 1.236 . S
C139 O151 1.266 1_545 S
O140 Tb120 2.484 . S
O140 C122 1.248 . S
O141 Tb120 2.440 . S
O141 C122 1.266 . S
O142 Tb120 2.658 1_545 S
O142 Tb121 2.325 . S
O142 C129 1.281 . S
O143 Tb120 2.409 1_545 S
O143 C129 1.254 . S
O144 Tb120 2.381 . S
O144 C130 1.221 1_565 S
O145 Tb121 2.341 . S
O145 C130 1.282 . S
O146 Tb121 2.484 . S
O146 C131 1.248 . S
O147 Tb121 2.440 . S
O147 C131 1.266 . S
O148 Tb120 2.325 . S
O148 Tb121 2.658 1_565 S
O148 C138 1.281 . S
O149 Tb121 2.409 1_565 S
O149 C138 1.254 . S
O150 Tb121 2.378 . S
O150 C139 1.236 . S
O151 Tb120 2.341 . S
O151 C139 1.266 1_565 S
H152 C124 0.929 . S
H153 C125 0.931 . S
H154 C127 0.930 . S
H155 C128 0.930 . S
H156 C133 0.929 . S
H157 C134 0.931 . S
H158 C136 0.930 . S
H159 C137 0.930 . S
Tb160 C162 2.809 . S
Tb160 O180 2.484 . S
Tb160 O181 2.440 . S
Tb160 O182 2.658 . S
Tb160 O183 2.409 . S
Tb160 O184 2.378 . S
Tb160 O188 2.325 . S
Tb160 O191 2.341 . S
Tb161 C171 2.809 . S
Tb161 O182 2.325 . S
Tb161 O185 2.341 . S
Tb161 O186 2.484 . S
Tb161 O187 2.440 . S
Tb161 O188 2.658 . S
Tb161 O189 2.409 . S
Tb161 O190 2.378 . S
C162 Tb160 2.809 . S
C162 C163 1.514 . S
C162 O180 1.248 . S
C162 O181 1.266 . S
C163 C162 1.514 . S
C163 C164 1.359 . S
C163 C168 1.348 . S
C164 C163 1.359 . S
C164 C165 1.380 . S
C164 H192 0.929 . S
C165 C164 1.380 . S
C165 C166 1.347 . S
C165 H193 0.931 . S
C166 C165 1.347 . S
C166 C167 1.369 . S
C167 C166 1.369 . S
C167 C168 1.408 . S
C167 H194 0.930 . S
C168 C163 1.348 . S
C168 C167 1.408 . S
C168 H195 0.930 . S
C169 O182 1.281 . S
C169 O183 1.254 . S
C170 O184 1.236 . S
C170 O185 1.266 . S
C171 Tb161 2.809 . S
C171 C172 1.514 . S
C171 O186 1.248 . S
C171 O187 1.266 . S
C172 C171 1.514 . S
C172 C173 1.359 . S
C172 C177 1.348 . S
C173 C172 1.359 . S
C173 C174 1.380 . S
C173 H196 0.929 . S
C174 C173 1.380 . S
C174 C175 1.347 . S
C174 H197 0.931 . S
C175 C174 1.347 . S
C175 C176 1.369 . S
C176 C175 1.369 . S
C176 C177 1.408 . S
C176 H198 0.930 . S
C177 C172 1.348 . S
C177 C176 1.408 . S
C177 H199 0.930 . S
C178 O188 1.281 . S
C178 O189 1.254 . S
C179 O190 1.236 . S
C179 O191 1.266 . S
O180 Tb160 2.484 . S
O180 C162 1.248 . S
O181 Tb160 2.440 . S
O181 C162 1.266 . S
O182 Tb160 2.658 . S
O182 Tb161 2.325 . S
O182 C169 1.281 . S
O183 Tb160 2.409 . S
O183 C169 1.254 . S
O184 Tb160 2.378 . S
O184 C170 1.236 . S
O185 Tb161 2.341 . S
O185 C170 1.266 . S
O186 Tb161 2.484 . S
O186 C171 1.248 . S
O187 Tb161 2.440 . S
O187 C171 1.266 . S
O188 Tb160 2.325 . S
O188 Tb161 2.658 . S
O188 C178 1.281 . S
O189 Tb161 2.409 . S
O189 C178 1.254 . S
O190 Tb161 2.378 . S
O190 C179 1.236 . S
O191 Tb160 2.341 . S
O191 C179 1.266 . S
H192 C164 0.929 . S
H193 C165 0.931 . S
H194 C167 0.930 . S
H195 C168 0.930 . S
H196 C173 0.929 . S
H197 C174 0.931 . S
H198 C176 0.930 . S
H199 C177 0.930 . S
Tb200 C202 2.809 . S
Tb200 O220 2.484 . S
Tb200 O221 2.440 . S
Tb200 O222 2.658 . S
Tb200 O223 2.409 . S
Tb200 O224 2.378 . S
Tb200 O228 2.325 . S
Tb200 O231 2.341 . S
Tb201 C211 2.809 . S
Tb201 O222 2.325 . S
Tb201 O225 2.341 . S
Tb201 O226 2.484 . S
Tb201 O227 2.440 . S
Tb201 O228 2.658 . S
Tb201 O229 2.409 . S
Tb201 O230 2.378 . S
C202 Tb200 2.809 . S
C202 C203 1.514 . S
C202 O220 1.248 . S
C202 O221 1.266 . S
C203 C202 1.514 . S
C203 C204 1.359 . S
C203 C208 1.348 . S
C204 C203 1.359 . S
C204 C205 1.380 . S
C204 H232 0.929 . S
C205 C204 1.380 . S
C205 C206 1.347 . S
C205 H233 0.931 . S
C206 C205 1.347 . S
C206 C207 1.369 . S
C207 C206 1.369 . S
C207 C208 1.408 . S
C207 H234 0.930 . S
C208 C203 1.348 . S
C208 C207 1.408 . S
C208 H235 0.930 . S
C209 O222 1.281 . S
C209 O223 1.254 . S
C210 O224 1.236 . S
C210 O225 1.266 . S
C211 Tb201 2.809 . S
C211 C212 1.514 . S
C211 O226 1.248 . S
C211 O227 1.266 . S
C212 C211 1.514 . S
C212 C213 1.359 . S
C212 C217 1.348 . S
C213 C212 1.359 . S
C213 C214 1.380 . S
C213 H236 0.929 . S
C214 C213 1.380 . S
C214 C215 1.347 . S
C214 H237 0.931 . S
C215 C214 1.347 . S
C215 C216 1.369 . S
C216 C215 1.369 . S
C216 C217 1.408 . S
C216 H238 0.930 . S
C217 C212 1.348 . S
C217 C216 1.408 . S
C217 H239 0.930 . S
C218 O228 1.281 . S
C218 O229 1.254 . S
C219 O230 1.236 . S
C219 O231 1.266 . S
O220 Tb200 2.484 . S
O220 C202 1.248 . S
O221 Tb200 2.440 . S
O221 C202 1.266 . S
O222 Tb200 2.658 . S
O222 Tb201 2.325 . S
O222 C209 1.281 . S
O223 Tb200 2.409 . S
O223 C209 1.254 . S
O224 Tb200 2.378 . S
O224 C210 1.236 . S
O225 Tb201 2.341 . S
O225 C210 1.266 . S
O226 Tb201 2.484 . S
O226 C211 1.248 . S
O227 Tb201 2.440 . S
O227 C211 1.266 . S
O228 Tb200 2.325 . S
O228 Tb201 2.658 . S
O228 C218 1.281 . S
O229 Tb201 2.409 . S
O229 C218 1.254 . S
O230 Tb201 2.378 . S
O230 C219 1.236 . S
O231 Tb200 2.341 . S
O231 C219 1.266 . S
H232 C204 0.929 . S
H233 C205 0.931 . S
H234 C207 0.930 . S
H235 C208 0.930 . S
H236 C213 0.929 . S
H237 C214 0.931 . S
H238 C216 0.930 . S
H239 C217 0.930 . S
Tb240 C242 2.809 . S
Tb240 O260 2.484 . S
Tb240 O261 2.440 . S
Tb240 O262 2.658 . S
Tb240 O263 2.409 . S
Tb240 O264 2.378 . S
Tb240 O268 2.325 . S
Tb240 O271 2.341 . S
Tb241 C251 2.809 . S
Tb241 O262 2.325 . S
Tb241 O265 2.341 . S
Tb241 O266 2.484 . S
Tb241 O267 2.440 . S
Tb241 O268 2.658 . S
Tb241 O269 2.409 . S
Tb241 O270 2.378 . S
C242 Tb240 2.809 . S
C242 C243 1.514 . S
C242 O260 1.248 . S
C242 O261 1.266 . S
C243 C242 1.514 . S
C243 C244 1.359 . S
C243 C248 1.348 . S
C244 C243 1.359 . S
C244 C245 1.380 . S
C244 H272 0.929 . S
C245 C244 1.380 . S
C245 C246 1.347 . S
C245 H273 0.931 . S
C246 C245 1.347 . S
C246 C247 1.369 . S
C247 C246 1.369 . S
C247 C248 1.408 . S
C247 H274 0.930 . S
C248 C243 1.348 . S
C248 C247 1.408 . S
C248 H275 0.930 . S
C249 O262 1.281 . S
C249 O263 1.254 . S
C250 O264 1.236 . S
C250 O265 1.266 . S
C251 Tb241 2.809 . S
C251 C252 1.514 . S
C251 O266 1.248 . S
C251 O267 1.266 . S
C252 C251 1.514 . S
C252 C253 1.359 . S
C252 C257 1.348 . S
C253 C252 1.359 . S
C253 C254 1.380 . S
C253 H276 0.929 . S
C254 C253 1.380 . S
C254 C255 1.347 . S
C254 H277 0.931 . S
C255 C254 1.347 . S
C255 C256 1.369 . S
C256 C255 1.369 . S
C256 C257 1.408 . S
C256 H278 0.930 . S
C257 C252 1.348 . S
C257 C256 1.408 . S
C257 H279 0.930 . S
C258 O268 1.281 . S
C258 O269 1.254 . S
C259 O270 1.236 . S
C259 O271 1.266 . S
O260 Tb240 2.484 . S
O260 C242 1.248 . S
O261 Tb240 2.440 . S
O261 C242 1.266 . S
O262 Tb240 2.658 . S
O262 Tb241 2.325 . S
O262 C249 1.281 . S
O263 Tb240 2.409 . S
O263 C249 1.254 . S
O264 Tb240 2.378 . S
O264 C250 1.236 . S
O265 Tb241 2.341 . S
O265 C250 1.266 . S
O266 Tb241 2.484 . S
O266 C251 1.248 . S
O267 Tb241 2.440 . S
O267 C251 1.266 . S
O268 Tb240 2.325 . S
O268 Tb241 2.658 . S
O268 C258 1.281 . S
O269 Tb241 2.409 . S
O269 C258 1.254 . S
O270 Tb241 2.378 . S
O270 C259 1.236 . S
O271 Tb240 2.341 . S
O271 C259 1.266 . S
H272 C244 0.929 . S
H273 C245 0.931 . S
H274 C247 0.930 . S
H275 C248 0.930 . S
H276 C253 0.929 . S
H277 C254 0.931 . S
H278 C256 0.930 . S
H279 C257 0.930 . S
Tb280 C282 2.809 . S
Tb280 O300 2.484 . S
Tb280 O301 2.440 . S
Tb280 O302 2.658 1_655 S
Tb280 O303 2.409 1_655 S
Tb280 O304 2.378 1_655 S
Tb280 O308 2.325 . S
Tb280 O311 2.341 . S
Tb281 C291 2.809 . S
Tb281 O302 2.325 . S
Tb281 O305 2.341 . S
Tb281 O306 2.484 . S
Tb281 O307 2.440 . S
Tb281 O308 2.658 1_455 S
Tb281 O309 2.409 1_455 S
Tb281 O310 2.378 1_455 S
C282 Tb280 2.809 . S
C282 C283 1.514 . S
C282 O300 1.248 . S
C282 O301 1.266 . S
C283 C282 1.514 . S
C283 C284 1.359 . S
C283 C288 1.348 . S
C284 C283 1.359 . S
C284 C285 1.380 . S
C284 H312 0.929 . S
C285 C284 1.380 . S
C285 C286 1.347 . S
C285 H313 0.931 . S
C286 C285 1.347 . S
C286 C287 1.369 . S
C287 C286 1.369 . S
C287 C288 1.408 . S
C287 H314 0.930 . S
C288 C283 1.348 . S
C288 C287 1.408 . S
C288 H315 0.930 . S
C289 O302 1.281 . S
C289 O303 1.254 . S
C290 O304 1.236 . S
C290 O305 1.266 . S
C291 Tb281 2.809 . S
C291 C292 1.514 . S
C291 O306 1.248 . S
C291 O307 1.266 . S
C292 C291 1.514 . S
C292 C293 1.359 . S
C292 C297 1.348 . S
C293 C292 1.359 . S
C293 C294 1.380 . S
C293 H316 0.929 . S
C294 C293 1.380 . S
C294 C295 1.347 . S
C294 H317 0.931 . S
C295 C294 1.347 . S
C295 C296 1.369 . S
C296 C295 1.369 . S
C296 C297 1.408 . S
C296 H318 0.930 . S
C297 C292 1.348 . S
C297 C296 1.408 . S
C297 H319 0.930 . S
C298 O308 1.281 . S
C298 O309 1.254 . S
C299 O310 1.236 . S
C299 O311 1.266 . S
O300 Tb280 2.484 . S
O300 C282 1.248 . S
O301 Tb280 2.440 . S
O301 C282 1.266 . S
O302 Tb280 2.658 1_455 S
O302 Tb281 2.325 . S
O302 C289 1.281 . S
O303 Tb280 2.409 1_455 S
O303 C289 1.254 . S
O304 Tb280 2.378 1_455 S
O304 C290 1.236 . S
O305 Tb281 2.341 . S
O305 C290 1.266 . S
O306 Tb281 2.484 . S
O306 C291 1.248 . S
O307 Tb281 2.440 . S
O307 C291 1.266 . S
O308 Tb280 2.325 . S
O308 Tb281 2.658 1_655 S
O308 C298 1.281 . S
O309 Tb281 2.409 1_655 S
O309 C298 1.254 . S
O310 Tb281 2.378 1_655 S
O310 C299 1.236 . S
O311 Tb280 2.341 . S
O311 C299 1.266 . S
H312 C284 0.929 . S
H313 C285 0.931 . S
H314 C287 0.930 . S
H315 C288 0.930 . S
H316 C293 0.929 . S
H317 C294 0.931 . S
H318 C296 0.930 . S
H319 C297 0.930 . S
Tb320 C322 2.809 . S
Tb320 O340 2.484 . S
Tb320 O341 2.440 . S
Tb320 O342 2.658 . S
Tb320 O343 2.409 . S
Tb320 O344 2.401 . S
Tb320 O348 2.325 1_554 S
Tb320 O351 2.341 . S
Tb321 C331 2.809 . S
Tb321 O342 2.325 1_556 S
Tb321 O345 2.341 . S
Tb321 O346 2.484 . S
Tb321 O347 2.440 . S
Tb321 O348 2.658 . S
Tb321 O349 2.409 . S
Tb321 O350 2.379 . S
C322 Tb320 2.809 . S
C322 C323 1.514 . S
C322 O340 1.248 . S
C322 O341 1.266 . S
C323 C322 1.514 . S
C323 C324 1.359 . S
C323 C328 1.348 . S
C324 C323 1.359 . S
C324 C325 1.380 . S
C324 H352 0.929 1_554 S
C325 C324 1.380 . S
C325 C326 1.347 . S
C325 H353 0.931 1_554 S
C326 C325 1.347 . S
C326 C327 1.369 . S
C327 C326 1.369 . S
C327 C328 1.408 . S
C327 H354 0.930 . S
C328 C323 1.348 . S
C328 C327 1.408 . S
C328 H355 0.930 . S
C329 O342 1.281 . S
C329 O343 1.254 . S
C330 O344 1.196 1_556 S
C330 O345 1.266 . S
C331 Tb321 2.809 . S
C331 C332 1.514 . S
C331 O346 1.248 . S
C331 O347 1.266 . S
C332 C331 1.514 . S
C332 C333 1.381 . S
C332 C337 1.348 . S
C333 C332 1.381 . S
C333 C334 1.380 . S
C333 H356 0.907 1_556 S
C334 C333 1.380 . S
C334 C335 1.372 . S
C334 H357 0.906 1_556 S
C335 C334 1.372 . S
C335 C336 1.369 . S
C336 C335 1.369 . S
C336 C337 1.408 . S
C336 H358 0.930 . S
C337 C332 1.348 . S
C337 C336 1.408 . S
C337 H359 0.930 . S
C338 O348 1.281 . S
C338 O349 1.254 . S
C339 O350 1.234 1_554 S
C339 O351 1.266 . S
O340 Tb320 2.484 . S
O340 C322 1.248 . S
O341 Tb320 2.440 . S
O341 C322 1.266 . S
O342 Tb320 2.658 . S
O342 Tb321 2.325 1_554 S
O342 C329 1.281 . S
O343 Tb320 2.409 . S
O343 C329 1.254 . S
O344 Tb320 2.401 . S
O344 C330 1.196 1_554 S
O345 Tb321 2.341 . S
O345 C330 1.266 . S
O346 Tb321 2.484 . S
O346 C331 1.248 . S
O347 Tb321 2.440 . S
O347 C331 1.266 . S
O348 Tb320 2.325 1_556 S
O348 Tb321 2.658 . S
O348 C338 1.281 . S
O349 Tb321 2.409 . S
O349 C338 1.254 . S
O350 Tb321 2.379 . S
O350 C339 1.234 1_556 S
O351 Tb320 2.341 . S
O351 C339 1.266 . S
H352 C324 0.929 1_556 S
H353 C325 0.931 1_556 S
H354 C327 0.930 . S
H355 C328 0.930 . S
H356 C333 0.907 1_554 S
H357 C334 0.906 1_554 S
H358 C336 0.930 . S
H359 C337 0.930 . S
Tb360 C362 2.809 . S
Tb360 O380 2.484 . S
Tb360 O381 2.440 . S
Tb360 O382 2.658 1_565 S
Tb360 O383 2.409 1_565 S
Tb360 O384 2.381 . S
Tb360 O388 2.325 . S
Tb360 O391 2.341 . S
Tb361 C371 2.809 . S
Tb361 O382 2.325 . S
Tb361 O385 2.341 . S
Tb361 O386 2.484 . S
Tb361 O387 2.440 . S
Tb361 O388 2.658 1_545 S
Tb361 O389 2.409 1_545 S
Tb361 O390 2.378 . S
C362 Tb360 2.809 . S
C362 C363 1.514 . S
C362 O380 1.248 . S
C362 O381 1.266 . S
C363 C362 1.514 . S
C363 C364 1.359 . S
C363 C368 1.348 . S
C364 C363 1.359 . S
C364 C365 1.380 . S
C364 H392 0.929 . S
C365 C364 1.380 . S
C365 C366 1.347 . S
C365 H393 0.931 . S
C366 C365 1.347 . S
C366 C367 1.369 . S
C367 C366 1.369 . S
C367 C368 1.408 . S
C367 H394 0.930 . S
C368 C363 1.348 . S
C368 C367 1.408 . S
C368 H395 0.930 . S
C369 O382 1.281 . S
C369 O383 1.254 . S
C370 O384 1.221 1_545 S
C370 O385 1.282 . S
C371 Tb361 2.809 . S
C371 C372 1.514 . S
C371 O386 1.248 . S
C371 O387 1.266 . S
C372 C371 1.514 . S
C372 C373 1.359 . S
C372 C377 1.348 . S
C373 C372 1.359 . S
C373 C374 1.380 . S
C373 H396 0.929 . S
C374 C373 1.380 . S
C374 C375 1.347 . S
C374 H397 0.931 . S
C375 C374 1.347 . S
C375 C376 1.369 . S
C376 C375 1.369 . S
C376 C377 1.408 . S
C376 H398 0.930 . S
C377 C372 1.348 . S
C377 C376 1.408 . S
C377 H399 0.930 . S
C378 O388 1.281 . S
C378 O389 1.254 . S
C379 O390 1.236 . S
C379 O391 1.266 1_545 S
O380 Tb360 2.484 . S
O380 C362 1.248 . S
O381 Tb360 2.440 . S
O381 C362 1.266 . S
O382 Tb360 2.658 1_545 S
O382 Tb361 2.325 . S
O382 C369 1.281 . S
O383 Tb360 2.409 1_545 S
O383 C369 1.254 . S
O384 Tb360 2.381 . S
O384 C370 1.221 1_565 S
O385 Tb361 2.341 . S
O385 C370 1.282 . S
O386 Tb361 2.484 . S
O386 C371 1.248 . S
O387 Tb361 2.440 . S
O387 C371 1.266 . S
O388 Tb360 2.325 . S
O388 Tb361 2.658 1_565 S
O388 C378 1.281 . S
O389 Tb361 2.409 1_565 S
O389 C378 1.254 . S
O390 Tb361 2.378 . S
O390 C379 1.236 . S
O391 Tb360 2.341 . S
O391 C379 1.266 1_565 S
H392 C364 0.929 . S
H393 C365 0.931 . S
H394 C367 0.930 . S
H395 C368 0.930 . S
H396 C373 0.929 . S
H397 C374 0.931 . S
H398 C376 0.930 . S
H399 C377 0.930 . S
Tb400 C402 2.809 . S
Tb400 O420 2.484 . S
Tb400 O421 2.440 . S
Tb400 O422 2.658 . S
Tb400 O423 2.409 . S
Tb400 O424 2.378 . S
Tb400 O428 2.325 . S
Tb400 O431 2.341 . S
Tb401 C411 2.809 . S
Tb401 O422 2.325 . S
Tb401 O425 2.341 . S
Tb401 O426 2.484 . S
Tb401 O427 2.440 . S
Tb401 O428 2.658 . S
Tb401 O429 2.409 . S
Tb401 O430 2.378 . S
C402 Tb400 2.809 . S
C402 C403 1.514 . S
C402 O420 1.248 . S
C402 O421 1.266 . S
C403 C402 1.514 . S
C403 C404 1.359 . S
C403 C408 1.348 . S
C404 C403 1.359 . S
C404 C405 1.380 . S
C404 H432 0.929 . S
C405 C404 1.380 . S
C405 C406 1.347 . S
C405 H433 0.931 . S
C406 C405 1.347 . S
C406 C407 1.369 . S
C407 C406 1.369 . S
C407 C408 1.408 . S
C407 H434 0.930 . S
C408 C403 1.348 . S
C408 C407 1.408 . S
C408 H435 0.930 . S
C409 O422 1.281 . S
C409 O423 1.254 . S
C410 O424 1.236 . S
C410 O425 1.266 . S
C411 Tb401 2.809 . S
C411 C412 1.514 . S
C411 O426 1.248 . S
C411 O427 1.266 . S
C412 C411 1.514 . S
C412 C413 1.359 . S
C412 C417 1.348 . S
C413 C412 1.359 . S
C413 C414 1.380 . S
C413 H436 0.929 . S
C414 C413 1.380 . S
C414 C415 1.347 . S
C414 H437 0.931 . S
C415 C414 1.347 . S
C415 C416 1.369 . S
C416 C415 1.369 . S
C416 C417 1.408 . S
C416 H438 0.930 . S
C417 C412 1.348 . S
C417 C416 1.408 . S
C417 H439 0.930 . S
C418 O428 1.281 . S
C418 O429 1.254 . S
C419 O430 1.236 . S
C419 O431 1.266 . S
O420 Tb400 2.484 . S
O420 C402 1.248 . S
O421 Tb400 2.440 . S
O421 C402 1.266 . S
O422 Tb400 2.658 . S
O422 Tb401 2.325 . S
O422 C409 1.281 . S
O423 Tb400 2.409 . S
O423 C409 1.254 . S
O424 Tb400 2.378 . S
O424 C410 1.236 . S
O425 Tb401 2.341 . S
O425 C410 1.266 . S
O426 Tb401 2.484 . S
O426 C411 1.248 . S
O427 Tb401 2.440 . S
O427 C411 1.266 . S
O428 Tb400 2.325 . S
O428 Tb401 2.658 . S
O428 C418 1.281 . S
O429 Tb401 2.409 . S
O429 C418 1.254 . S
O430 Tb401 2.378 . S
O430 C419 1.236 . S
O431 Tb400 2.341 . S
O431 C419 1.266 . S
H432 C404 0.929 . S
H433 C405 0.931 . S
H434 C407 0.930 . S
H435 C408 0.930 . S
H436 C413 0.929 . S
H437 C414 0.931 . S
H438 C416 0.930 . S
H439 C417 0.930 . S
Tb440 C442 2.809 . S
Tb440 O460 2.489 . S
Tb440 O461 2.440 . S
Tb440 O462 2.658 . S
Tb440 O463 2.409 . S
Tb440 O464 2.378 1_455 S
Tb440 O468 2.325 1_455 S
Tb440 O471 2.341 . S
Tb441 C451 2.809 . S
Tb441 O462 2.325 1_655 S
Tb441 O465 2.341 . S
Tb441 O466 2.484 1_655 S
Tb441 O467 2.440 . S
Tb441 O468 2.658 . S
Tb441 O469 2.409 . S
Tb441 O470 2.378 1_655 S
C442 Tb440 2.809 . S
C442 C443 1.514 . S
C442 O460 1.263 . S
C442 O461 1.266 . S
C443 C442 1.514 . S
C443 C444 1.359 1_455 S
C443 C448 1.348 . S
C444 C443 1.359 1_655 S
C444 C445 1.380 . S
C444 H472 0.929 . S
C445 C444 1.380 . S
C445 C446 1.347 1_655 S
C445 H473 0.931 . S
C446 C445 1.347 1_455 S
C446 C447 1.369 . S
C447 C446 1.369 . S
C447 C448 1.408 . S
C447 H474 0.930 . S
C448 C443 1.348 . S
C448 C447 1.408 . S
C448 H475 0.930 . S
C449 O462 1.281 . S
C449 O463 1.254 . S
C450 O464 1.236 . S
C450 O465 1.266 . S
C451 Tb441 2.809 . S
C451 C452 1.514 . S
C451 O466 1.246 1_655 S
C451 O467 1.266 . S
C452 C451 1.514 . S
C452 C453 1.359 1_655 S
C452 C457 1.348 . S
C453 C452 1.359 1_455 S
C453 C454 1.380 . S
C453 H476 0.929 . S
C454 C453 1.380 . S
C454 C455 1.347 1_455 S
C454 H477 0.931 . S
C455 C454 1.347 1_655 S
C455 C456 1.369 . S
C456 C455 1.369 . S
C456 C457 1.408 . S
C456 H478 0.930 . S
C457 C452 1.348 . S
C457 C456 1.408 . S
C457 H479 0.930 . S
C458 O468 1.281 . S
C458 O469 1.254 . S
C459 O470 1.236 . S
C459 O471 1.266 . S
O460 Tb440 2.489 . S
O460 C442 1.263 . S
O461 Tb440 2.440 . S
O461 C442 1.266 . S
O462 Tb440 2.658 . S
O462 Tb441 2.325 1_455 S
O462 C449 1.281 . S
O463 Tb440 2.409 . S
O463 C449 1.254 . S
O464 Tb440 2.378 1_655 S
O464 C450 1.236 . S
O465 Tb441 2.341 . S
O465 C450 1.266 . S
O466 Tb441 2.484 1_455 S
O466 C451 1.246 1_455 S
O467 Tb441 2.440 . S
O467 C451 1.266 . S
O468 Tb440 2.325 1_655 S
O468 Tb441 2.658 . S
O468 C458 1.281 . S
O469 Tb441 2.409 . S
O469 C458 1.254 . S
O470 Tb441 2.378 1_455 S
O470 C459 1.236 . S
O471 Tb440 2.341 . S
O471 C459 1.266 . S
H472 C444 0.929 . S
H473 C445 0.931 . S
H474 C447 0.930 . S
H475 C448 0.930 . S
H476 C453 0.929 . S
H477 C454 0.931 . S
H478 C456 0.930 . S
H479 C457 0.930 . S
Tb480 C482 2.809 . S
Tb480 O500 2.484 . S
Tb480 O501 2.440 . S
Tb480 O502 2.658 . S
Tb480 O503 2.409 . S
Tb480 O504 2.378 . S
Tb480 O508 2.325 . S
Tb480 O511 2.341 . S
Tb481 C491 2.809 . S
Tb481 O502 2.325 . S
Tb481 O505 2.341 . S
Tb481 O506 2.484 . S
Tb481 O507 2.440 . S
Tb481 O508 2.658 . S
Tb481 O509 2.409 . S
Tb481 O510 2.378 . S
C482 Tb480 2.809 . S
C482 C483 1.514 . S
C482 O500 1.248 . S
C482 O501 1.266 . S
C483 C482 1.514 . S
C483 C484 1.359 . S
C483 C488 1.348 . S
C484 C483 1.359 . S
C484 C485 1.380 . S
C484 H512 0.929 . S
C485 C484 1.380 . S
C485 C486 1.347 . S
C485 H513 0.931 . S
C486 C485 1.347 . S
C486 C487 1.369 . S
C487 C486 1.369 . S
C487 C488 1.408 . S
C487 H514 0.930 . S
C488 C483 1.348 . S
C488 C487 1.408 . S
C488 H515 0.930 . S
C489 O502 1.281 . S
C489 O503 1.254 . S
C490 O504 1.236 . S
C490 O505 1.266 . S
C491 Tb481 2.809 . S
C491 C492 1.514 . S
C491 O506 1.248 . S
C491 O507 1.266 . S
C492 C491 1.514 . S
C492 C493 1.359 . S
C492 C497 1.348 . S
C493 C492 1.359 . S
C493 C494 1.380 . S
C493 H516 0.929 . S
C494 C493 1.380 . S
C494 C495 1.347 . S
C494 H517 0.931 . S
C495 C494 1.347 . S
C495 C496 1.369 . S
C496 C495 1.369 . S
C496 C497 1.408 . S
C496 H518 0.930 . S
C497 C492 1.348 . S
C497 C496 1.408 . S
C497 H519 0.930 . S
C498 O508 1.281 . S
C498 O509 1.254 . S
C499 O510 1.236 . S
C499 O511 1.266 . S
O500 Tb480 2.484 . S
O500 C482 1.248 . S
O501 Tb480 2.440 . S
O501 C482 1.266 . S
O502 Tb480 2.658 . S
O502 Tb481 2.325 . S
O502 C489 1.281 . S
O503 Tb480 2.409 . S
O503 C489 1.254 . S
O504 Tb480 2.378 . S
O504 C490 1.236 . S
O505 Tb481 2.341 . S
O505 C490 1.266 . S
O506 Tb481 2.484 . S
O506 C491 1.248 . S
O507 Tb481 2.440 . S
O507 C491 1.266 . S
O508 Tb480 2.325 . S
O508 Tb481 2.658 . S
O508 C498 1.281 . S
O509 Tb481 2.409 . S
O509 C498 1.254 . S
O510 Tb481 2.378 . S
O510 C499 1.236 . S
O511 Tb480 2.341 . S
O511 C499 1.266 . S
H512 C484 0.929 . S
H513 C485 0.931 . S
H514 C487 0.930 . S
H515 C488 0.930 . S
H516 C493 0.929 . S
H517 C494 0.931 . S
H518 C496 0.930 . S
H519 C497 0.930 . S
Tb520 C522 2.809 . S
Tb520 O540 2.484 . S
Tb520 O541 2.440 . S
Tb520 O542 2.658 . S
Tb520 O543 2.409 . S
Tb520 O544 2.401 . S
Tb520 O548 2.325 1_554 S
Tb520 O551 2.341 . S
Tb521 C531 2.809 . S
Tb521 O542 2.325 1_556 S
Tb521 O545 2.341 . S
Tb521 O546 2.484 . S
Tb521 O547 2.440 . S
Tb521 O548 2.658 . S
Tb521 O549 2.409 . S
Tb521 O550 2.379 . S
C522 Tb520 2.809 . S
C522 C523 1.514 . S
C522 O540 1.248 . S
C522 O541 1.266 . S
C523 C522 1.514 . S
C523 C524 1.359 . S
C523 C528 1.348 . S
C524 C523 1.359 . S
C524 C525 1.380 . S
C524 H552 0.929 1_554 S
C525 C524 1.380 . S
C525 C526 1.347 . S
C525 H553 0.931 1_554 S
C526 C525 1.347 . S
C526 C527 1.369 . S
C527 C526 1.369 . S
C527 C528 1.408 . S
C527 H554 0.930 . S
C528 C523 1.348 . S
C528 C527 1.408 . S
C528 H555 0.930 . S
C529 O542 1.281 . S
C529 O543 1.254 . S
C530 O544 1.196 1_556 S
C530 O545 1.266 . S
C531 Tb521 2.809 . S
C531 C532 1.514 . S
C531 O546 1.248 . S
C531 O547 1.266 . S
C532 C531 1.514 . S
C532 C533 1.381 . S
C532 C537 1.348 . S
C533 C532 1.381 . S
C533 C534 1.380 . S
C533 H556 0.907 1_556 S
C534 C533 1.380 . S
C534 C535 1.372 . S
C534 H557 0.906 1_556 S
C535 C534 1.372 . S
C535 C536 1.369 . S
C536 C535 1.369 . S
C536 C537 1.408 . S
C536 H558 0.930 . S
C537 C532 1.348 . S
C537 C536 1.408 . S
C537 H559 0.930 . S
C538 O548 1.281 . S
C538 O549 1.254 . S
C539 O550 1.234 1_554 S
C539 O551 1.266 . S
O540 Tb520 2.484 . S
O540 C522 1.248 . S
O541 Tb520 2.440 . S
O541 C522 1.266 . S
O542 Tb520 2.658 . S
O542 Tb521 2.325 1_554 S
O542 C529 1.281 . S
O543 Tb520 2.409 . S
O543 C529 1.254 . S
O544 Tb520 2.401 . S
O544 C530 1.196 1_554 S
O545 Tb521 2.341 . S
O545 C530 1.266 . S
O546 Tb521 2.484 . S
O546 C531 1.248 . S
O547 Tb521 2.440 . S
O547 C531 1.266 . S
O548 Tb520 2.325 1_556 S
O548 Tb521 2.658 . S
O548 C538 1.281 . S
O549 Tb521 2.409 . S
O549 C538 1.254 . S
O550 Tb521 2.379 . S
O550 C539 1.234 1_556 S
O551 Tb520 2.341 . S
O551 C539 1.266 . S
H552 C524 0.929 1_556 S
H553 C525 0.931 1_556 S
H554 C527 0.930 . S
H555 C528 0.930 . S
H556 C533 0.907 1_554 S
H557 C534 0.906 1_554 S
H558 C536 0.930 . S
H559 C537 0.930 . S
Tb560 C562 2.809 . S
Tb560 O580 2.484 . S
Tb560 O581 2.440 . S
Tb560 O582 2.658 . S
Tb560 O583 2.409 . S
Tb560 O584 2.378 . S
Tb560 O588 2.325 1_565 S
Tb560 O591 2.341 1_565 S
Tb561 C571 2.809 . S
Tb561 O582 2.325 1_545 S
Tb561 O585 2.341 1_545 S
Tb561 O586 2.484 . S
Tb561 O587 2.440 . S
Tb561 O588 2.658 . S
Tb561 O589 2.409 . S
Tb561 O590 2.378 . S
C562 Tb560 2.809 . S
C562 C563 1.514 . S
C562 O580 1.248 . S
C562 O581 1.266 . S
C563 C562 1.514 . S
C563 C564 1.359 . S
C563 C568 1.348 . S
C564 C563 1.359 . S
C564 C565 1.380 . S
C564 H592 0.929 . S
C565 C564 1.380 . S
C565 C566 1.347 . S
C565 H593 0.931 . S
C566 C565 1.347 . S
C566 C567 1.369 . S
C567 C566 1.369 . S
C567 C568 1.408 . S
C567 H594 0.930 . S
C568 C563 1.348 . S
C568 C567 1.408 . S
C568 H595 0.930 . S
C569 O582 1.281 . S
C569 O583 1.254 . S
C570 O584 1.236 . S
C570 O585 1.266 . S
C571 Tb561 2.809 . S
C571 C572 1.514 . S
C571 O586 1.248 . S
C571 O587 1.266 . S
C572 C571 1.514 . S
C572 C573 1.359 . S
C572 C577 1.348 . S
C573 C572 1.359 . S
C573 C574 1.380 . S
C573 H596 0.929 . S
C574 C573 1.380 . S
C574 C575 1.347 . S
C574 H597 0.931 . S
C575 C574 1.347 . S
C575 C576 1.369 . S
C576 C575 1.369 . S
C576 C577 1.408 . S
C576 H598 0.930 . S
C577 C572 1.348 . S
C577 C576 1.408 . S
C577 H599 0.930 . S
C578 O588 1.281 . S
C578 O589 1.254 . S
C579 O590 1.236 . S
C579 O591 1.266 . S
O580 Tb560 2.484 . S
O580 C562 1.248 . S
O581 Tb560 2.440 . S
O581 C562 1.266 . S
O582 Tb560 2.658 . S
O582 Tb561 2.325 1_565 S
O582 C569 1.281 . S
O583 Tb560 2.409 . S
O583 C569 1.254 . S
O584 Tb560 2.378 . S
O584 C570 1.236 . S
O585 Tb561 2.341 1_565 S
O585 C570 1.266 . S
O586 Tb561 2.484 . S
O586 C571 1.248 . S
O587 Tb561 2.440 . S
O587 C571 1.266 . S
O588 Tb560 2.325 1_545 S
O588 Tb561 2.658 . S
O588 C578 1.281 . S
O589 Tb561 2.409 . S
O589 C578 1.254 . S
O590 Tb561 2.378 . S
O590 C579 1.236 . S
O591 Tb560 2.341 1_545 S
O591 C579 1.266 . S
H592 C564 0.929 . S
H593 C565 0.931 . S
H594 C567 0.930 . S
H595 C568 0.930 . S
H596 C573 0.929 . S
H597 C574 0.931 . S
H598 C576 0.930 . S
H599 C577 0.930 . S
Tb600 C602 2.809 . S
Tb600 O620 2.484 . S
Tb600 O621 2.440 . S
Tb600 O622 2.658 . S
Tb600 O623 2.409 . S
Tb600 O624 2.401 . S
Tb600 O628 2.325 1_554 S
Tb600 O631 2.341 . S
Tb601 C611 2.809 . S
Tb601 O622 2.325 1_556 S
Tb601 O625 2.341 . S
Tb601 O626 2.484 . S
Tb601 O627 2.440 . S
Tb601 O628 2.658 . S
Tb601 O629 2.409 . S
Tb601 O630 2.379 . S
C602 Tb600 2.809 . S
C602 C603 1.514 . S
C602 O620 1.248 . S
C602 O621 1.266 . S
C603 C602 1.514 . S
C603 C604 1.359 . S
C603 C608 1.348 . S
C604 C603 1.359 . S
C604 C605 1.380 . S
C604 H632 0.929 1_554 S
C605 C604 1.380 . S
C605 C606 1.347 . S
C605 H633 0.931 1_554 S
C606 C605 1.347 . S
C606 C607 1.369 . S
C607 C606 1.369 . S
C607 C608 1.408 . S
C607 H634 0.930 . S
C608 C603 1.348 . S
C608 C607 1.408 . S
C608 H635 0.930 . S
C609 O622 1.281 . S
C609 O623 1.254 . S
C610 O624 1.196 1_556 S
C610 O625 1.266 . S
C611 Tb601 2.809 . S
C611 C612 1.514 . S
C611 O626 1.248 . S
C611 O627 1.266 . S
C612 C611 1.514 . S
C612 C613 1.381 . S
C612 C617 1.348 . S
C613 C612 1.381 . S
C613 C614 1.380 . S
C613 H636 0.907 1_556 S
C614 C613 1.380 . S
C614 C615 1.372 . S
C614 H637 0.906 1_556 S
C615 C614 1.372 . S
C615 C616 1.369 . S
C616 C615 1.369 . S
C616 C617 1.408 . S
C616 H638 0.930 . S
C617 C612 1.348 . S
C617 C616 1.408 . S
C617 H639 0.930 . S
C618 O628 1.281 . S
C618 O629 1.254 . S
C619 O630 1.234 1_554 S
C619 O631 1.266 . S
O620 Tb600 2.484 . S
O620 C602 1.248 . S
O621 Tb600 2.440 . S
O621 C602 1.266 . S
O622 Tb600 2.658 . S
O622 Tb601 2.325 1_554 S
O622 C609 1.281 . S
O623 Tb600 2.409 . S
O623 C609 1.254 . S
O624 Tb600 2.401 . S
O624 C610 1.196 1_554 S
O625 Tb601 2.341 . S
O625 C610 1.266 . S
O626 Tb601 2.484 . S
O626 C611 1.248 . S
O627 Tb601 2.440 . S
O627 C611 1.266 . S
O628 Tb600 2.325 1_556 S
O628 Tb601 2.658 . S
O628 C618 1.281 . S
O629 Tb601 2.409 . S
O629 C618 1.254 . S
O630 Tb601 2.379 . S
O630 C619 1.234 1_556 S
O631 Tb600 2.341 . S
O631 C619 1.266 . S
H632 C604 0.929 1_556 S
H633 C605 0.931 1_556 S
H634 C607 0.930 . S
H635 C608 0.930 . S
H636 C613 0.907 1_554 S
H637 C614 0.906 1_554 S
H638 C616 0.930 . S
H639 C617 0.930 . S
H640 C648 0.929 . S
H641 C650 0.930 . S
H642 C652 0.930 1_455 S
H643 C655 0.929 1_455 S
H644 C658 0.930 . S
H645 C660 0.960 . S
H646 C660 0.960 . S
H647 C660 0.960 . S
C648 H640 0.929 . S
C648 C649 1.377 . S
C648 C650 1.384 . S
C649 C648 1.377 . S
C649 C655 1.390 . S
C650 H641 0.930 . S
C650 C648 1.384 . S
C650 C651 1.372 . S
C651 C650 1.372 . S
C651 C652 1.400 . S
C651 C656 1.490 . S
C652 H642 0.930 1_655 S
C652 C651 1.400 . S
C652 C655 1.386 . S
H653 C669 0.930 1_455 S
H654 C670 0.931 1_455 S
C655 H643 0.929 1_655 S
C655 C649 1.390 . S
C655 C652 1.386 . S
C656 C651 1.490 . S
C656 C658 1.395 . S
C656 C659 1.403 1_655 S
H657 C663 0.930 . S
C658 H644 0.930 . S
C658 C656 1.395 . S
C658 C661 1.403 . S
C659 C656 1.403 1_455 S
C659 C660 1.524 . S
C659 C663 1.400 . S
C660 H645 0.960 . S
C660 H646 0.960 . S
C660 H647 0.960 . S
C660 C659 1.524 . S
C661 C658 1.403 . S
C661 C662 1.392 . S
C661 C665 1.495 . S
C662 C661 1.392 . S
C662 C663 1.385 1_655 S
C662 C664 1.478 . S
C663 H657 0.930 . S
C663 C659 1.400 . S
C663 C662 1.385 1_455 S
C664 C662 1.478 . S
C664 C666 1.381 . S
C664 C670 1.383 . S
C665 C661 1.495 . S
C665 H671 0.959 . S
C665 H672 0.961 . S
C665 H673 0.960 . S
C666 C664 1.381 . S
C666 C667 1.394 . S
C666 H674 0.930 . S
C667 C666 1.394 . S
C667 C668 1.383 . S
C667 H675 0.929 . S
C668 C667 1.383 . S
C668 C669 1.377 . S
C669 H653 0.930 1_655 S
C669 C668 1.377 . S
C669 C670 1.379 . S
C670 H654 0.931 1_655 S
C670 C664 1.383 . S
C670 C669 1.379 . S
H671 C665 0.959 . S
H672 C665 0.961 . S
H673 C665 0.960 . S
H674 C666 0.930 . S
H675 C667 0.929 . S
H676 C684 0.929 . S
H677 C686 0.930 . S
H678 C688 0.930 . S
H679 C691 0.929 . S
H680 C694 0.930 . S
H681 C696 0.960 . S
H682 C696 0.960 . S
H683 C696 0.960 . S
C684 H676 0.929 . S
C684 C685 1.377 . S
C684 C686 1.384 . S
C685 C684 1.377 . S
C685 C691 1.390 . S
C686 H677 0.930 . S
C686 C684 1.384 . S
C686 C687 1.372 . S
C687 C686 1.372 . S
C687 C688 1.400 . S
C687 C692 1.490 . S
C688 H678 0.930 . S
C688 C687 1.400 . S
C688 C691 1.386 . S
H689 C705 0.930 . S
H690 C706 0.931 . S
C691 H679 0.929 . S
C691 C685 1.390 . S
C691 C688 1.386 . S
C692 C687 1.490 . S
C692 C694 1.395 . S
C692 C695 1.403 . S
H693 C699 0.930 . S
C694 H680 0.930 . S
C694 C692 1.395 . S
C694 C697 1.403 . S
C695 C692 1.403 . S
C695 C696 1.524 . S
C695 C699 1.400 . S
C696 H681 0.960 . S
C696 H682 0.960 . S
C696 H683 0.960 . S
C696 C695 1.524 . S
C697 C694 1.403 . S
C697 C698 1.392 . S
C697 C701 1.495 . S
C698 C697 1.392 . S
C698 C699 1.385 . S
C698 C700 1.478 . S
C699 H693 0.930 . S
C699 C695 1.400 . S
C699 C698 1.385 . S
C700 C698 1.478 . S
C700 C702 1.381 . S
C700 C706 1.383 . S
C701 C697 1.495 . S
C701 H707 0.959 . S
C701 H708 0.961 . S
C701 H709 0.960 . S
C702 C700 1.381 . S
C702 C703 1.394 . S
C702 H710 0.930 . S
C703 C702 1.394 . S
C703 C704 1.383 . S
C703 H711 0.929 . S
C704 C703 1.383 . S
C704 C705 1.377 . S
C705 H689 0.930 . S
C705 C704 1.377 . S
C705 C706 1.379 . S
C706 H690 0.931 . S
C706 C700 1.383 . S
C706 C705 1.379 . S
H707 C701 0.959 . S
H708 C701 0.961 . S
H709 C701 0.960 . S
H710 C702 0.930 . S
H711 C703 0.929 . S
H712 C720 0.929 . S
H713 C722 0.930 . S
H714 C724 0.930 . S
H715 C727 0.929 . S
H716 C730 0.930 . S
H717 C732 0.960 . S
H718 C732 0.960 . S
H719 C732 0.960 . S
C720 H712 0.929 . S
C720 C721 1.377 . S
C720 C722 1.384 . S
C721 C720 1.377 . S
C721 C727 1.390 . S
C722 H713 0.930 . S
C722 C720 1.384 . S
C722 C723 1.372 . S
C723 C722 1.372 . S
C723 C724 1.400 . S
C723 C728 1.490 . S
C724 H714 0.930 . S
C724 C723 1.400 . S
C724 C727 1.386 . S
H725 C741 0.930 . S
H726 C742 0.931 . S
C727 H715 0.929 . S
C727 C721 1.390 . S
C727 C724 1.386 . S
C728 C723 1.490 . S
C728 C730 1.395 . S
C728 C731 1.403 . S
H729 C735 0.930 . S
C730 H716 0.930 . S
C730 C728 1.395 . S
C730 C733 1.403 . S
C731 C728 1.403 . S
C731 C732 1.524 . S
C731 C735 1.400 . S
C732 H717 0.960 . S
C732 H718 0.960 . S
C732 H719 0.960 . S
C732 C731 1.524 . S
C733 C730 1.403 . S
C733 C734 1.392 . S
C733 C737 1.495 . S
C734 C733 1.392 . S
C734 C735 1.385 . S
C734 C736 1.478 . S
C735 H729 0.930 . S
C735 C731 1.400 . S
C735 C734 1.385 . S
C736 C734 1.478 . S
C736 C738 1.381 . S
C736 C742 1.383 . S
C737 C733 1.495 . S
C737 H743 0.959 . S
C737 H744 0.961 . S
C737 H745 0.960 . S
C738 C736 1.381 . S
C738 C739 1.394 . S
C738 H746 0.930 . S
C739 C738 1.394 . S
C739 C740 1.383 . S
C739 H747 0.929 . S
C740 C739 1.383 . S
C740 C741 1.377 . S
C741 H725 0.930 . S
C741 C740 1.377 . S
C741 C742 1.379 . S
C742 H726 0.931 . S
C742 C736 1.383 . S
C742 C741 1.379 . S
H743 C737 0.959 . S
H744 C737 0.961 . S
H745 C737 0.960 . S
H746 C738 0.930 . S
H747 C739 0.929 . S
H748 C756 0.929 . S
H749 C758 0.930 . S
H750 C760 0.925 1_565 S
H751 C763 0.929 1_565 S
H752 C766 0.930 . S
H753 C768 0.960 . S
H754 C768 0.960 . S
H755 C768 0.960 . S
C756 H748 0.929 . S
C756 C757 1.377 . S
C756 C758 1.384 . S
C757 C756 1.377 . S
C757 C763 1.390 . S
C758 H749 0.930 . S
C758 C756 1.384 . S
C758 C759 1.372 . S
C759 C758 1.372 . S
C759 C760 1.403 . S
C759 C764 1.490 . S
C760 H750 0.925 1_545 S
C760 C759 1.403 . S
C760 C763 1.388 . S
H761 C777 0.930 . S
H762 C778 0.931 . S
C763 H751 0.929 1_545 S
C763 C757 1.390 . S
C763 C760 1.388 . S
C764 C759 1.490 . S
C764 C766 1.395 . S
C764 C767 1.403 . S
H765 C771 0.930 . S
C766 H752 0.930 . S
C766 C764 1.395 . S
C766 C769 1.403 . S
C767 C764 1.403 . S
C767 C768 1.524 . S
C767 C771 1.400 . S
C768 H753 0.960 . S
C768 H754 0.960 . S
C768 H755 0.960 . S
C768 C767 1.524 . S
C769 C766 1.403 . S
C769 C770 1.392 . S
C769 C773 1.495 . S
C770 C769 1.392 . S
C770 C771 1.385 . S
C770 C772 1.478 . S
C771 H765 0.930 . S
C771 C767 1.400 . S
C771 C770 1.385 . S
C772 C770 1.478 . S
C772 C774 1.381 . S
C772 C778 1.383 1_545 S
C773 C769 1.495 . S
C773 H779 0.959 . S
C773 H780 0.961 1_545 S
C773 H781 0.960 . S
C774 C772 1.381 . S
C774 C775 1.394 . S
C774 H782 0.930 . S
C775 C774 1.394 . S
C775 C776 1.383 1_545 S
C775 H783 0.929 . S
C776 C775 1.383 1_565 S
C776 C777 1.377 . S
C777 H761 0.930 . S
C777 C776 1.377 . S
C777 C778 1.379 . S
C778 H762 0.931 . S
C778 C772 1.383 1_565 S
C778 C777 1.379 . S
H779 C773 0.959 . S
H780 C773 0.961 1_565 S
H781 C773 0.960 . S
H782 C774 0.930 . S
H783 C775 0.929 . S
H784 C792 0.929 . S
H785 C794 0.930 . S
H786 C796 0.930 . S
H787 C799 0.929 . S
H788 C802 0.930 . S
H789 C804 0.960 . S
H790 C804 0.960 . S
H791 C804 0.960 . S
C792 H784 0.929 . S
C792 C793 1.377 . S
C792 C794 1.384 . S
C793 C792 1.377 . S
C793 C799 1.390 . S
C794 H785 0.930 . S
C794 C792 1.384 . S
C794 C795 1.372 . S
C795 C794 1.372 . S
C795 C796 1.400 . S
C795 C800 1.490 . S
C796 H786 0.930 . S
C796 C795 1.400 . S
C796 C799 1.386 . S
H797 C813 0.930 . S
H798 C814 0.931 . S
C799 H787 0.929 . S
C799 C793 1.390 . S
C799 C796 1.386 . S
C800 C795 1.490 . S
C800 C802 1.395 . S
C800 C803 1.403 1_565 S
H801 C807 0.930 . S
C802 H788 0.930 . S
C802 C800 1.395 . S
C802 C805 1.403 . S
C803 C800 1.403 1_545 S
C803 C804 1.524 . S
C803 C807 1.400 . S
C804 H789 0.960 . S
C804 H790 0.960 . S
C804 H791 0.960 . S
C804 C803 1.524 . S
C805 C802 1.403 . S
C805 C806 1.392 . S
C805 C809 1.495 . S
C806 C805 1.392 . S
C806 C807 1.385 1_565 S
C806 C808 1.478 . S
C807 H801 0.930 . S
C807 C803 1.400 . S
C807 C806 1.385 1_545 S
C808 C806 1.478 . S
C808 C810 1.381 1_565 S
C808 C814 1.383 . S
C809 C805 1.495 . S
C809 H815 0.959 . S
C809 H816 0.961 . S
C809 H817 0.960 . S
C810 C808 1.381 1_545 S
C810 C811 1.394 . S
C810 H818 0.930 . S
C811 C810 1.394 . S
C811 C812 1.383 . S
C811 H819 0.929 . S
C812 C811 1.383 . S
C812 C813 1.377 1_545 S
C813 H797 0.930 . S
C813 C812 1.377 1_565 S
C813 C814 1.379 . S
C814 H798 0.931 . S
C814 C808 1.383 . S
C814 C813 1.379 . S
H815 C809 0.959 . S
H816 C809 0.961 . S
H817 C809 0.960 . S
H818 C810 0.930 . S
H819 C811 0.929 . S
H820 C828 0.929 . S
H821 C830 0.930 . S
H822 C832 0.930 . S
H823 C835 0.929 . S
H824 C838 0.930 . S
H825 C840 0.960 . S
H826 C840 0.960 . S
H827 C840 0.960 . S
C828 H820 0.929 . S
C828 C829 1.377 . S
C828 C830 1.384 . S
C829 C828 1.377 . S
C829 C835 1.390 1_455 S
C830 H821 0.930 . S
C830 C828 1.384 . S
C830 C831 1.372 . S
C831 C830 1.372 . S
C831 C832 1.400 1_455 S
C831 C836 1.490 . S
C832 H822 0.930 . S
C832 C831 1.400 1_655 S
C832 C835 1.386 . S
H833 C849 0.930 . S
H834 C850 0.931 . S
C835 H823 0.929 . S
C835 C829 1.390 1_655 S
C835 C832 1.386 . S
C836 C831 1.490 . S
C836 C838 1.395 . S
C836 C839 1.403 . S
H837 C843 0.930 1_655 S
C838 H824 0.930 . S
C838 C836 1.395 . S
C838 C841 1.403 . S
C839 C836 1.403 . S
C839 C840 1.524 1_455 S
C839 C843 1.400 . S
C840 H825 0.960 . S
C840 H826 0.960 . S
C840 H827 0.960 . S
C840 C839 1.524 1_655 S
C841 C838 1.403 . S
C841 C842 1.392 . S
C841 C845 1.495 . S
C842 C841 1.392 . S
C842 C843 1.385 . S
C842 C844 1.478 . S
C843 H837 0.930 1_455 S
C843 C839 1.400 . S
C843 C842 1.385 . S
C844 C842 1.478 . S
C844 C846 1.381 . S
C844 C850 1.383 1_455 S
C845 C841 1.495 . S
C845 H851 0.959 . S
C845 H852 0.961 . S
C845 H853 0.960 . S
C846 C844 1.381 . S
C846 C847 1.394 . S
C846 H854 0.930 . S
C847 C846 1.394 . S
C847 C848 1.383 . S
C847 H855 0.929 . S
C848 C847 1.383 . S
C848 C849 1.377 1_455 S
C849 H833 0.930 . S
C849 C848 1.377 1_655 S
C849 C850 1.379 . S
C850 H834 0.931 . S
C850 C844 1.383 1_655 S
C850 C849 1.379 . S
H851 C845 0.959 . S
H852 C845 0.961 . S
H853 C845 0.960 . S
H854 C846 0.930 . S
H855 C847 0.929 . S
H856 C864 0.929 . S
H857 C866 0.930 . S
H858 C868 0.930 . S
H859 C871 0.929 . S
H860 C874 0.930 . S
H861 C876 0.960 . S
H862 C876 0.960 . S
H863 C876 0.960 . S
C864 H856 0.929 . S
C864 C865 1.377 . S
C864 C866 1.384 . S
C865 C864 1.377 . S
C865 C871 1.390 . S
C866 H857 0.930 . S
C866 C864 1.384 . S
C866 C867 1.372 . S
C867 C866 1.372 . S
C867 C868 1.400 . S
C867 C872 1.490 . S
C868 H858 0.930 . S
C868 C867 1.400 . S
C868 C871 1.386 . S
H869 C885 0.930 . S
H870 C886 0.931 . S
C871 H859 0.929 . S
C871 C865 1.390 . S
C871 C868 1.386 . S
C872 C867 1.490 . S
C872 C874 1.395 . S
C872 C875 1.403 . S
H873 C879 0.930 . S
C874 H860 0.930 . S
C874 C872 1.395 . S
C874 C877 1.403 . S
C875 C872 1.403 . S
C875 C876 1.524 . S
C875 C879 1.400 . S
C876 H861 0.960 . S
C876 H862 0.960 . S
C876 H863 0.960 . S
C876 C875 1.524 . S
C877 C874 1.403 . S
C877 C878 1.392 . S
C877 C881 1.495 . S
C878 C877 1.392 . S
C878 C879 1.385 . S
C878 C880 1.478 . S
C879 H873 0.930 . S
C879 C875 1.400 . S
C879 C878 1.385 . S
C880 C878 1.478 . S
C880 C882 1.381 . S
C880 C886 1.383 . S
C881 C877 1.495 . S
C881 H887 0.959 . S
C881 H888 0.961 . S
C881 H889 0.960 . S
C882 C880 1.381 . S
C882 C883 1.394 . S
C882 H890 0.930 . S
C883 C882 1.394 . S
C883 C884 1.383 . S
C883 H891 0.929 . S
C884 C883 1.383 . S
C884 C885 1.377 . S
C885 H869 0.930 . S
C885 C884 1.377 . S
C885 C886 1.379 . S
C886 H870 0.931 . S
C886 C880 1.383 . S
C886 C885 1.379 . S
H887 C881 0.959 . S
H888 C881 0.961 . S
H889 C881 0.960 . S
H890 C882 0.930 . S
H891 C883 0.929 . S
H892 C900 0.929 . S
H893 C902 0.930 . S
H894 C904 0.930 . S
H895 C907 0.929 . S
H896 C910 0.930 . S
H897 C912 0.960 . S
H898 C912 0.960 . S
H899 C912 0.960 . S
C900 H892 0.929 . S
C900 C901 1.377 . S
C900 C902 1.384 . S
C901 C900 1.377 . S
C901 C907 1.390 . S
C902 H893 0.930 . S
C902 C900 1.384 . S
C902 C903 1.372 . S
C903 C902 1.372 . S
C903 C904 1.400 . S
C903 C908 1.490 . S
C904 H894 0.930 . S
C904 C903 1.400 . S
C904 C907 1.386 . S
H905 C921 0.930 . S
H906 C922 0.931 . S
C907 H895 0.929 . S
C907 C901 1.390 . S
C907 C904 1.386 . S
C908 C903 1.490 . S
C908 C910 1.395 . S
C908 C911 1.403 . S
H909 C915 0.930 . S
C910 H896 0.930 . S
C910 C908 1.395 . S
C910 C913 1.403 . S
C911 C908 1.403 . S
C911 C912 1.524 . S
C911 C915 1.400 . S
C912 H897 0.960 . S
C912 H898 0.960 . S
C912 H899 0.960 . S
C912 C911 1.524 . S
C913 C910 1.403 . S
C913 C914 1.392 . S
C913 C917 1.495 . S
C914 C913 1.392 . S
C914 C915 1.385 . S
C914 C916 1.478 . S
C915 H909 0.930 . S
C915 C911 1.400 . S
C915 C914 1.385 . S
C916 C914 1.478 . S
C916 C918 1.381 . S
C916 C922 1.383 . S
C917 C913 1.495 . S
C917 H923 0.959 . S
C917 H924 0.961 . S
C917 H925 0.960 . S
C918 C916 1.381 . S
C918 C919 1.394 . S
C918 H926 0.930 . S
C919 C918 1.394 . S
C919 C920 1.383 . S
C919 H927 0.929 . S
C920 C919 1.383 . S
C920 C921 1.377 . S
C921 H905 0.930 . S
C921 C920 1.377 . S
C921 C922 1.379 . S
C922 H906 0.931 . S
C922 C916 1.383 . S
C922 C921 1.379 . S
H923 C917 0.959 . S
H924 C917 0.961 . S
H925 C917 0.960 . S
H926 C918 0.930 . S
H927 C919 0.929 . S
H928 C936 0.929 . S
H929 C938 0.930 . S
H930 C940 0.930 . S
H931 C943 0.929 . S
H932 C946 0.930 . S
H933 C948 0.960 . S
H934 C948 0.960 . S
H935 C948 0.960 . S
C936 H928 0.929 . S
C936 C937 1.377 . S
C936 C938 1.384 . S
C937 C936 1.377 . S
C937 C943 1.390 . S
C938 H929 0.930 . S
C938 C936 1.384 . S
C938 C939 1.372 . S
C939 C938 1.372 . S
C939 C940 1.400 . S
C939 C944 1.490 . S
C940 H930 0.930 . S
C940 C939 1.400 . S
C940 C943 1.386 . S
H941 C957 0.930 . S
H942 C958 0.931 . S
C943 H931 0.929 . S
C943 C937 1.390 . S
C943 C940 1.386 . S
C944 C939 1.490 . S
C944 C946 1.395 . S
C944 C947 1.403 . S
H945 C951 0.930 . S
C946 H932 0.930 . S
C946 C944 1.395 . S
C946 C949 1.403 . S
C947 C944 1.403 . S
C947 C948 1.524 . S
C947 C951 1.400 . S
C948 H933 0.960 . S
C948 H934 0.960 . S
C948 H935 0.960 . S
C948 C947 1.524 . S
C949 C946 1.403 . S
C949 C950 1.392 . S
C949 C953 1.495 . S
C950 C949 1.392 . S
C950 C951 1.385 . S
C950 C952 1.478 . S
C951 H945 0.930 . S
C951 C947 1.400 . S
C951 C950 1.385 . S
C952 C950 1.478 . S
C952 C954 1.381 . S
C952 C958 1.383 . S
C953 C949 1.495 . S
C953 H959 0.959 . S
C953 H960 0.961 . S
C953 H961 0.960 . S
C954 C952 1.381 . S
C954 C955 1.394 . S
C954 H962 0.930 . S
C955 C954 1.394 . S
C955 C956 1.383 . S
C955 H963 0.929 . S
C956 C955 1.383 . S
C956 C957 1.377 . S
C957 H941 0.930 . S
C957 C956 1.377 . S
C957 C958 1.379 . S
C958 H942 0.931 . S
C958 C952 1.383 . S
C958 C957 1.379 . S
H959 C953 0.959 . S
H960 C953 0.961 . S
H961 C953 0.960 . S
H962 C954 0.930 . S
H963 C955 0.929 . S
H964 C972 0.929 . S
H965 C974 0.930 . S
H966 C976 0.930 . S
H967 C979 0.929 . S
H968 C982 0.930 . S
H969 C984 0.960 . S
H970 C984 0.960 . S
H971 C984 0.960 . S
C972 H964 0.929 . S
C972 C973 1.377 . S
C972 C974 1.384 . S
C973 C972 1.377 . S
C973 C979 1.390 . S
C974 H965 0.930 . S
C974 C972 1.384 . S
C974 C975 1.372 . S
C975 C974 1.372 . S
C975 C976 1.400 . S
C975 C980 1.490 . S
C976 H966 0.930 . S
C976 C975 1.400 . S
C976 C979 1.386 . S
H977 C993 0.930 . S
H978 C994 0.931 . S
C979 H967 0.929 . S
C979 C973 1.390 . S
C979 C976 1.386 . S
C980 C975 1.490 . S
C980 C982 1.395 . S
C980 C983 1.403 . S
H981 C987 0.930 . S
C982 H968 0.930 . S
C982 C980 1.395 . S
C982 C985 1.403 . S
C983 C980 1.403 . S
C983 C984 1.524 . S
C983 C987 1.400 . S
C984 H969 0.960 . S
C984 H970 0.960 . S
C984 H971 0.960 . S
C984 C983 1.524 . S
C985 C982 1.403 . S
C985 C986 1.392 . S
C985 C989 1.495 . S
C986 C985 1.392 . S
C986 C987 1.385 . S
C986 C988 1.478 . S
C987 H981 0.930 . S
C987 C983 1.400 . S
C987 C986 1.385 . S
C988 C986 1.478 . S
C988 C990 1.381 . S
C988 C994 1.383 . S
C989 C985 1.495 . S
C989 H995 0.959 . S
C989 H996 0.961 . S
C989 H997 0.960 . S
C990 C988 1.381 . S
C990 C991 1.394 . S
C990 H998 0.930 . S
C991 C990 1.394 . S
C991 C992 1.383 . S
C991 H999 0.929 . S
C992 C991 1.383 . S
C992 C993 1.377 . S
C993 H977 0.930 . S
C993 C992 1.377 . S
C993 C994 1.379 . S
C994 H978 0.931 . S
C994 C988 1.383 . S
C994 C993 1.379 . S
H995 C989 0.959 . S
H996 C989 0.961 . S
H997 C989 0.960 . S
H998 C990 0.930 . S
H999 C991 0.929 . S
H1000 C1008 0.929 . S
H1001 C1010 0.930 . S
H1002 C1012 0.887 1_545 S
H1003 C1015 0.929 1_545 S
H1004 C1018 0.930 . S
H1005 C1020 0.960 . S
H1006 C1020 0.960 . S
H1007 C1020 0.960 . S
C1008 H1000 0.929 . S
C1008 C1009 1.377 . S
C1008 C1010 1.384 . S
C1009 C1008 1.377 . S
C1009 C1015 1.390 . S
C1010 H1001 0.930 . S
C1010 C1008 1.384 . S
C1010 C1011 1.372 . S
C1011 C1010 1.372 . S
C1011 C1012 1.425 . S
C1011 C1016 1.490 . S
C1012 H1002 0.887 1_565 S
C1012 C1011 1.425 . S
C1012 C1015 1.404 . S
H1013 C1029 0.930 . S
H1014 C1030 0.931 . S
C1015 H1003 0.929 1_565 S
C1015 C1009 1.390 . S
C1015 C1012 1.404 . S
C1016 C1011 1.490 . S
C1016 C1018 1.395 . S
C1016 C1019 1.403 1_565 S
H1017 C1023 0.930 . S
C1018 H1004 0.930 . S
C1018 C1016 1.395 . S
C1018 C1021 1.403 . S
C1019 C1016 1.403 1_545 S
C1019 C1020 1.524 . S
C1019 C1023 1.400 . S
C1020 H1005 0.960 . S
C1020 H1006 0.960 . S
C1020 H1007 0.960 . S
C1020 C1019 1.524 . S
C1021 C1018 1.403 . S
C1021 C1022 1.392 . S
C1021 C1025 1.495 . S
C1022 C1021 1.392 . S
C1022 C1023 1.385 1_565 S
C1022 C1024 1.478 . S
C1023 H1017 0.930 . S
C1023 C1019 1.400 . S
C1023 C1022 1.385 1_545 S
C1024 C1022 1.478 . S
C1024 C1026 1.381 . S
C1024 C1030 1.383 1_565 S
C1025 C1021 1.495 . S
C1025 H1031 0.959 . S
C1025 H1032 0.961 . S
C1025 H1033 0.960 . S
C1026 C1024 1.381 . S
C1026 C1027 1.394 . S
C1026 H1034 0.930 . S
C1027 C1026 1.394 . S
C1027 C1028 1.383 1_565 S
C1027 H1035 0.929 . S
C1028 C1027 1.383 1_545 S
C1028 C1029 1.377 . S
C1029 H1013 0.930 . S
C1029 C1028 1.377 . S
C1029 C1030 1.379 . S
C1030 H1014 0.931 . S
C1030 C1024 1.383 1_545 S
C1030 C1029 1.379 . S
H1031 C1025 0.959 . S
H1032 C1025 0.961 . S
H1033 C1025 0.960 . S
H1034 C1026 0.930 . S
H1035 C1027 0.929 . S
H1036 C1044 0.929 . S
H1037 C1046 0.930 . S
H1038 C1048 0.930 . S
H1039 C1051 0.929 . S
H1040 C1054 0.930 . S
H1041 C1056 0.960 . S
H1042 C1056 0.960 . S
H1043 C1056 0.960 . S
C1044 H1036 0.929 . S
C1044 C1045 1.377 . S
C1044 C1046 1.384 . S
C1045 C1044 1.377 . S
C1045 C1051 1.390 . S
C1046 H1037 0.930 . S
C1046 C1044 1.384 . S
C1046 C1047 1.372 . S
C1047 C1046 1.372 . S
C1047 C1048 1.400 . S
C1047 C1052 1.490 . S
C1048 H1038 0.930 . S
C1048 C1047 1.400 . S
C1048 C1051 1.386 . S
H1049 C1065 0.930 . S
H1050 C1066 0.931 . S
C1051 H1039 0.929 . S
C1051 C1045 1.390 . S
C1051 C1048 1.386 . S
C1052 C1047 1.490 . S
C1052 C1054 1.395 1_455 S
C1052 C1055 1.403 . S
H1053 C1059 0.930 . S
C1054 H1040 0.930 . S
C1054 C1052 1.395 1_655 S
C1054 C1057 1.403 . S
C1055 C1052 1.403 . S
C1055 C1056 1.524 . S
C1055 C1059 1.400 . S
C1056 H1041 0.960 . S
C1056 H1042 0.960 . S
C1056 H1043 0.960 . S
C1056 C1055 1.524 . S
C1057 C1054 1.403 . S
C1057 C1058 1.392 1_655 S
C1057 C1061 1.495 . S
C1058 C1057 1.392 1_455 S
C1058 C1059 1.385 . S
C1058 C1060 1.478 . S
C1059 H1053 0.930 . S
C1059 C1055 1.400 . S
C1059 C1058 1.385 . S
C1060 C1058 1.478 . S
C1060 C1062 1.381 . S
C1060 C1066 1.383 . S
C1061 C1057 1.495 . S
C1061 H1067 0.959 . S
C1061 H1068 0.961 . S
C1061 H1069 0.960 . S
C1062 C1060 1.381 . S
C1062 C1063 1.394 . S
C1062 H1070 0.930 1_455 S
C1063 C1062 1.394 . S
C1063 C1064 1.383 . S
C1063 H1071 0.929 1_455 S
C1064 C1063 1.383 . S
C1064 C1065 1.377 . S
C1065 H1049 0.930 . S
C1065 C1064 1.377 . S
C1065 C1066 1.379 . S
C1066 H1050 0.931 . S
C1066 C1060 1.383 . S
C1066 C1065 1.379 . S
H1067 C1061 0.959 . S
H1068 C1061 0.961 . S
H1069 C1061 0.960 . S
H1070 C1062 0.930 1_655 S
H1071 C1063 0.929 1_655 S
H1072 C1080 0.929 . S
H1073 C1082 0.930 . S
H1074 C1084 0.930 . S
H1075 C1087 0.929 . S
H1076 C1090 0.930 . S
H1077 C1092 0.960 . S
H1078 C1092 0.960 . S
H1079 C1092 0.960 . S
C1080 H1072 0.929 . S
C1080 C1081 1.377 . S
C1080 C1082 1.384 . S
C1081 C1080 1.377 . S
C1081 C1087 1.390 . S
C1082 H1073 0.930 . S
C1082 C1080 1.384 . S
C1082 C1083 1.372 . S
C1083 C1082 1.372 . S
C1083 C1084 1.400 . S
C1083 C1088 1.490 . S
C1084 H1074 0.930 . S
C1084 C1083 1.400 . S
C1084 C1087 1.386 . S
H1085 C1101 0.930 . S
H1086 C1102 0.931 . S
C1087 H1075 0.929 . S
C1087 C1081 1.390 . S
C1087 C1084 1.386 . S
C1088 C1083 1.490 . S
C1088 C1090 1.395 . S
C1088 C1091 1.438 . S
H1089 C1095 0.930 1_554 S
C1090 H1076 0.930 . S
C1090 C1088 1.395 . S
C1090 C1093 1.403 . S
C1091 C1088 1.438 . S
C1091 C1092 1.485 1_556 S
C1091 C1095 1.405 . S
C1092 H1077 0.960 . S
C1092 H1078 0.960 . S
C1092 H1079 0.960 . S
C1092 C1091 1.485 1_554 S
C1093 C1090 1.403 . S
C1093 C1094 1.392 . S
C1093 C1097 1.495 . S
C1094 C1093 1.392 . S
C1094 C1095 1.385 . S
C1094 C1096 1.478 . S
C1095 H1089 0.930 1_556 S
C1095 C1091 1.405 . S
C1095 C1094 1.385 . S
C1096 C1094 1.478 . S
C1096 C1098 1.381 . S
C1096 C1102 1.383 . S
C1097 C1093 1.495 . S
C1097 H1103 0.959 . S
C1097 H1104 0.961 . S
C1097 H1105 0.960 . S
C1098 C1096 1.381 . S
C1098 C1099 1.394 . S
C1098 H1106 0.930 . S
C1099 C1098 1.394 . S
C1099 C1100 1.383 . S
C1099 H1107 0.929 . S
C1100 C1099 1.383 . S
C1100 C1101 1.377 . S
C1101 H1085 0.930 . S
C1101 C1100 1.377 . S
C1101 C1102 1.379 . S
C1102 H1086 0.931 . S
C1102 C1096 1.383 . S
C1102 C1101 1.379 . S
H1103 C1097 0.959 . S
H1104 C1097 0.961 . S
H1105 C1097 0.960 . S
H1106 C1098 0.930 . S
H1107 C1099 0.929 . S
H1108 C1116 0.929 . S
H1109 C1118 0.930 . S
H1110 C1120 0.930 . S
H1111 C1123 0.929 . S
H1112 C1126 0.930 . S
H1113 C1128 0.960 . S
H1114 C1128 0.960 . S
H1115 C1128 0.960 . S
C1116 H1108 0.929 . S
C1116 C1117 1.377 . S
C1116 C1118 1.384 . S
C1117 C1116 1.377 . S
C1117 C1123 1.390 . S
C1118 H1109 0.930 . S
C1118 C1116 1.384 . S
C1118 C1119 1.372 . S
C1119 C1118 1.372 . S
C1119 C1120 1.400 . S
C1119 C1124 1.490 . S
C1120 H1110 0.930 . S
C1120 C1119 1.400 . S
C1120 C1123 1.386 . S
H1121 C1137 0.930 . S
H1122 C1138 0.931 . S
C1123 H1111 0.929 . S
C1123 C1117 1.390 . S
C1123 C1120 1.386 . S
C1124 C1119 1.490 . S
C1124 C1126 1.395 . S
C1124 C1127 1.403 . S
H1125 C1131 0.930 . S
C1126 H1112 0.930 . S
C1126 C1124 1.395 . S
C1126 C1129 1.403 . S
C1127 C1124 1.403 . S
C1127 C1128 1.524 . S
C1127 C1131 1.400 . S
C1128 H1113 0.960 . S
C1128 H1114 0.960 . S
C1128 H1115 0.960 . S
C1128 C1127 1.524 . S
C1129 C1126 1.403 . S
C1129 C1130 1.392 . S
C1129 C1133 1.495 . S
C1130 C1129 1.392 . S
C1130 C1131 1.385 . S
C1130 C1132 1.478 . S
C1131 H1125 0.930 . S
C1131 C1127 1.400 . S
C1131 C1130 1.385 . S
C1132 C1130 1.478 . S
C1132 C1134 1.381 . S
C1132 C1138 1.383 . S
C1133 C1129 1.495 . S
C1133 H1139 0.959 . S
C1133 H1140 0.961 . S
C1133 H1141 0.960 . S
C1134 C1132 1.381 . S
C1134 C1135 1.394 . S
C1134 H1142 0.930 . S
C1135 C1134 1.394 . S
C1135 C1136 1.383 . S
C1135 H1143 0.929 . S
C1136 C1135 1.383 . S
C1136 C1137 1.377 . S
C1137 H1121 0.930 . S
C1137 C1136 1.377 . S
C1137 C1138 1.379 . S
C1138 H1122 0.931 . S
C1138 C1132 1.383 . S
C1138 C1137 1.379 . S
H1139 C1133 0.959 . S
H1140 C1133 0.961 . S
H1141 C1133 0.960 . S
H1142 C1134 0.930 . S
H1143 C1135 0.929 . S
H1144 C1152 0.929 . S
H1145 C1154 0.930 . S
H1146 C1156 0.930 . S
H1147 C1159 0.929 . S
H1148 C1162 0.930 . S
H1149 C1164 0.960 . S
H1150 C1164 0.960 . S
H1151 C1164 0.960 . S
C1152 H1144 0.929 . S
C1152 C1153 1.377 . S
C1152 C1154 1.384 . S
C1153 C1152 1.377 . S
C1153 C1159 1.390 . S
C1154 H1145 0.930 . S
C1154 C1152 1.384 . S
C1154 C1155 1.372 . S
C1155 C1154 1.372 . S
C1155 C1156 1.400 . S
C1155 C1160 1.490 . S
C1156 H1146 0.930 . S
C1156 C1155 1.400 . S
C1156 C1159 1.386 . S
H1157 C1173 0.930 . S
H1158 C1174 0.931 . S
C1159 H1147 0.929 . S
C1159 C1153 1.390 . S
C1159 C1156 1.386 . S
C1160 C1155 1.490 . S
C1160 C1162 1.395 . S
C1160 C1163 1.403 . S
H1161 C1167 0.930 . S
C1162 H1148 0.930 . S
C1162 C1160 1.395 . S
C1162 C1165 1.403 . S
C1163 C1160 1.403 . S
C1163 C1164 1.524 . S
C1163 C1167 1.400 . S
C1164 H1149 0.960 . S
C1164 H1150 0.960 . S
C1164 H1151 0.960 . S
C1164 C1163 1.524 . S
C1165 C1162 1.403 . S
C1165 C1166 1.392 . S
C1165 C1169 1.495 . S
C1166 C1165 1.392 . S
C1166 C1167 1.385 . S
C1166 C1168 1.478 . S
C1167 H1161 0.930 . S
C1167 C1163 1.400 . S
C1167 C1166 1.385 . S
C1168 C1166 1.478 . S
C1168 C1170 1.381 . S
C1168 C1174 1.383 . S
C1169 C1165 1.495 . S
C1169 H1175 0.959 . S
C1169 H1176 0.961 . S
C1169 H1177 0.960 . S
C1170 C1168 1.381 . S
C1170 C1171 1.394 . S
C1170 H1178 0.930 . S
C1171 C1170 1.394 . S
C1171 C1172 1.383 . S
C1171 H1179 0.929 . S
C1172 C1171 1.383 . S
C1172 C1173 1.377 . S
C1173 H1157 0.930 . S
C1173 C1172 1.377 . S
C1173 C1174 1.379 . S
C1174 H1158 0.931 . S
C1174 C1168 1.383 . S
C1174 C1173 1.379 . S
H1175 C1169 0.959 . S
H1176 C1169 0.961 . S
H1177 C1169 0.960 . S
H1178 C1170 0.930 . S
H1179 C1171 0.929 . S
H1180 C1188 0.929 . S
H1181 C1190 0.930 . S
H1182 C1192 0.930 . S
H1183 C1195 0.929 . S
H1184 C1198 0.930 . S
H1185 C1200 0.960 . S
H1186 C1200 0.960 . S
H1187 C1200 0.960 . S
C1188 H1180 0.929 . S
C1188 C1189 1.377 . S
C1188 C1190 1.384 . S
C1189 C1188 1.377 . S
C1189 C1195 1.390 . S
C1190 H1181 0.930 . S
C1190 C1188 1.384 . S
C1190 C1191 1.372 . S
C1191 C1190 1.372 . S
C1191 C1192 1.400 . S
C1191 C1196 1.490 . S
C1192 H1182 0.930 . S
C1192 C1191 1.400 . S
C1192 C1195 1.386 . S
H1193 C1209 0.930 . S
H1194 C1210 0.931 . S
C1195 H1183 0.929 . S
C1195 C1189 1.390 . S
C1195 C1192 1.386 . S
C1196 C1191 1.490 . S
C1196 C1198 1.395 . S
C1196 C1199 1.403 . S
H1197 C1203 0.930 . S
C1198 H1184 0.930 . S
C1198 C1196 1.395 . S
C1198 C1201 1.403 . S
C1199 C1196 1.403 . S
C1199 C1200 1.524 . S
C1199 C1203 1.400 . S
C1200 H1185 0.960 . S
C1200 H1186 0.960 . S
C1200 H1187 0.960 . S
C1200 C1199 1.524 . S
C1201 C1198 1.403 . S
C1201 C1202 1.392 . S
C1201 C1205 1.495 . S
C1202 C1201 1.392 . S
C1202 C1203 1.385 . S
C1202 C1204 1.478 . S
C1203 H1197 0.930 . S
C1203 C1199 1.400 . S
C1203 C1202 1.385 . S
C1204 C1202 1.478 . S
C1204 C1206 1.381 . S
C1204 C1210 1.383 . S
C1205 C1201 1.495 . S
C1205 H1211 0.959 . S
C1205 H1212 0.961 . S
C1205 H1213 0.960 . S
C1206 C1204 1.381 . S
C1206 C1207 1.394 . S
C1206 H1214 0.930 . S
C1207 C1206 1.394 . S
C1207 C1208 1.383 . S
C1207 H1215 0.929 . S
C1208 C1207 1.383 . S
C1208 C1209 1.377 . S
C1209 H1193 0.930 . S
C1209 C1208 1.377 . S
C1209 C1210 1.379 . S
C1210 H1194 0.931 . S
C1210 C1204 1.383 . S
C1210 C1209 1.379 . S
H1211 C1205 0.959 . S
H1212 C1205 0.961 . S
H1213 C1205 0.960 . S
H1214 C1206 0.930 . S
H1215 C1207 0.929 . S
H1216 C1224 0.929 . S
H1217 C1226 0.930 . S
H1218 C1228 0.930 . S
H1219 C1231 0.929 . S
H1220 C1234 0.930 . S
H1221 C1236 0.960 . S
H1222 C1236 0.960 . S
H1223 C1236 0.960 . S
C1224 H1216 0.929 . S
C1224 C1225 1.377 . S
C1224 C1226 1.384 . S
C1225 C1224 1.377 . S
C1225 C1231 1.390 . S
C1226 H1217 0.930 . S
C1226 C1224 1.384 . S
C1226 C1227 1.372 . S
C1227 C1226 1.372 . S
C1227 C1228 1.400 . S
C1227 C1232 1.490 . S
C1228 H1218 0.930 . S
C1228 C1227 1.400 . S
C1228 C1231 1.386 . S
H1229 C1245 0.930 . S
H1230 C1246 0.931 . S
C1231 H1219 0.929 . S
C1231 C1225 1.390 . S
C1231 C1228 1.386 . S
C1232 C1227 1.490 . S
C1232 C1234 1.395 . S
C1232 C1235 1.403 . S
H1233 C1239 0.930 . S
C1234 H1220 0.930 . S
C1234 C1232 1.395 . S
C1234 C1237 1.403 . S
C1235 C1232 1.403 . S
C1235 C1236 1.524 . S
C1235 C1239 1.400 . S
C1236 H1221 0.960 . S
C1236 H1222 0.960 . S
C1236 H1223 0.960 . S
C1236 C1235 1.524 . S
C1237 C1234 1.403 . S
C1237 C1238 1.392 . S
C1237 C1241 1.495 . S
C1238 C1237 1.392 . S
C1238 C1239 1.385 . S
C1238 C1240 1.478 . S
C1239 H1233 0.930 . S
C1239 C1235 1.400 . S
C1239 C1238 1.385 . S
C1240 C1238 1.478 . S
C1240 C1242 1.381 . S
C1240 C1246 1.383 . S
C1241 C1237 1.495 . S
C1241 H1247 0.959 . S
C1241 H1248 0.961 . S
C1241 H1249 0.960 . S
C1242 C1240 1.381 . S
C1242 C1243 1.394 . S
C1242 H1250 0.930 . S
C1243 C1242 1.394 . S
C1243 C1244 1.383 . S
C1243 H1251 0.929 . S
C1244 C1243 1.383 . S
C1244 C1245 1.377 . S
C1245 H1229 0.930 . S
C1245 C1244 1.377 . S
C1245 C1246 1.379 . S
C1246 H1230 0.931 . S
C1246 C1240 1.383 . S
C1246 C1245 1.379 . S
H1247 C1241 0.959 . S
H1248 C1241 0.961 . S
H1249 C1241 0.960 . S
H1250 C1242 0.930 . S
H1251 C1243 0.929 . S
H1252 C1260 0.929 . S
H1253 C1262 0.930 . S
H1254 C1264 0.930 . S
H1255 C1267 0.929 . S
H1256 C1270 0.930 . S
H1257 C1272 0.960 . S
H1258 C1272 0.960 . S
H1259 C1272 0.960 . S
C1260 H1252 0.929 . S
C1260 C1261 1.377 . S
C1260 C1262 1.384 . S
C1261 C1260 1.377 . S
C1261 C1267 1.390 . S
C1262 H1253 0.930 . S
C1262 C1260 1.384 . S
C1262 C1263 1.372 . S
C1263 C1262 1.372 . S
C1263 C1264 1.400 . S
C1263 C1268 1.490 . S
C1264 H1254 0.930 . S
C1264 C1263 1.400 . S
C1264 C1267 1.386 . S
H1265 C1281 0.930 . S
H1266 C1282 0.931 . S
C1267 H1255 0.929 . S
C1267 C1261 1.390 . S
C1267 C1264 1.386 . S
C1268 C1263 1.490 . S
C1268 C1270 1.395 . S
C1268 C1271 1.403 . S
H1269 C1275 0.930 . S
C1270 H1256 0.930 . S
C1270 C1268 1.395 . S
C1270 C1273 1.403 . S
C1271 C1268 1.403 . S
C1271 C1272 1.524 . S
C1271 C1275 1.400 . S
C1272 H1257 0.960 . S
C1272 H1258 0.960 . S
C1272 H1259 0.960 . S
C1272 C1271 1.524 . S
C1273 C1270 1.403 . S
C1273 C1274 1.392 . S
C1273 C1277 1.495 . S
C1274 C1273 1.392 . S
C1274 C1275 1.385 . S
C1274 C1276 1.478 . S
C1275 H1269 0.930 . S
C1275 C1271 1.400 . S
C1275 C1274 1.385 . S
C1276 C1274 1.478 . S
C1276 C1278 1.381 . S
C1276 C1282 1.383 . S
C1277 C1273 1.495 . S
C1277 H1283 0.959 . S
C1277 H1284 0.961 . S
C1277 H1285 0.960 . S
C1278 C1276 1.381 . S
C1278 C1279 1.394 . S
C1278 H1286 0.930 . S
C1279 C1278 1.394 . S
C1279 C1280 1.383 . S
C1279 H1287 0.929 . S
C1280 C1279 1.383 . S
C1280 C1281 1.377 . S
C1281 H1265 0.930 . S
C1281 C1280 1.377 . S
C1281 C1282 1.379 . S
C1282 H1266 0.931 . S
C1282 C1276 1.383 . S
C1282 C1281 1.379 . S
H1283 C1277 0.959 . S
H1284 C1277 0.961 . S
H1285 C1277 0.960 . S
H1286 C1278 0.930 . S
H1287 C1279 0.929 . S
H1288 C1296 0.929 . S
H1289 C1298 0.930 . S
H1290 C1300 0.930 . S
H1291 C1303 0.929 . S
H1292 C1306 0.930 . S
H1293 C1308 0.960 . S
H1294 C1308 0.960 . S
H1295 C1308 0.960 . S
C1296 H1288 0.929 . S
C1296 C1297 1.377 . S
C1296 C1298 1.384 . S
C1297 C1296 1.377 . S
C1297 C1303 1.390 . S
C1298 H1289 0.930 . S
C1298 C1296 1.384 . S
C1298 C1299 1.372 . S
C1299 C1298 1.372 . S
C1299 C1300 1.400 . S
C1299 C1304 1.490 . S
C1300 H1290 0.930 . S
C1300 C1299 1.400 . S
C1300 C1303 1.386 . S
H1301 C1317 0.930 . S
H1302 C1318 0.931 . S
C1303 H1291 0.929 . S
C1303 C1297 1.390 . S
C1303 C1300 1.386 . S
C1304 C1299 1.490 . S
C1304 C1306 1.395 . S
C1304 C1307 1.403 . S
H1305 C1311 0.930 . S
C1306 H1292 0.930 . S
C1306 C1304 1.395 . S
C1306 C1309 1.403 . S
C1307 C1304 1.403 . S
C1307 C1308 1.524 . S
C1307 C1311 1.400 . S
C1308 H1293 0.960 . S
C1308 H1294 0.960 . S
C1308 H1295 0.960 . S
C1308 C1307 1.524 . S
C1309 C1306 1.403 . S
C1309 C1310 1.392 . S
C1309 C1313 1.495 . S
C1310 C1309 1.392 . S
C1310 C1311 1.385 . S
C1310 C1312 1.478 . S
C1311 H1305 0.930 . S
C1311 C1307 1.400 . S
C1311 C1310 1.385 . S
C1312 C1310 1.478 . S
C1312 C1314 1.381 . S
C1312 C1318 1.383 . S
C1313 C1309 1.495 . S
C1313 H1319 0.959 . S
C1313 H1320 0.961 . S
C1313 H1321 0.960 . S
C1314 C1312 1.381 . S
C1314 C1315 1.394 . S
C1314 H1322 0.930 . S
C1315 C1314 1.394 . S
C1315 C1316 1.383 . S
C1315 H1323 0.929 . S
C1316 C1315 1.383 . S
C1316 C1317 1.377 . S
C1317 H1301 0.930 . S
C1317 C1316 1.377 . S
C1317 C1318 1.379 . S
C1318 H1302 0.931 . S
C1318 C1312 1.383 . S
C1318 C1317 1.379 . S
H1319 C1313 0.959 . S
H1320 C1313 0.961 . S
H1321 C1313 0.960 . S
H1322 C1314 0.930 . S
H1323 C1315 0.929 . S
H1324 C1332 0.929 . S
H1325 C1334 0.930 . S
H1326 C1336 0.930 . S
H1327 C1339 0.929 . S
H1328 C1342 0.930 . S
H1329 C1344 0.960 . S
H1330 C1344 0.960 . S
H1331 C1344 0.960 . S
C1332 H1324 0.929 . S
C1332 C1333 1.377 . S
C1332 C1334 1.384 . S
C1333 C1332 1.377 . S
C1333 C1339 1.390 . S
C1334 H1325 0.930 . S
C1334 C1332 1.384 . S
C1334 C1335 1.372 . S
C1335 C1334 1.372 . S
C1335 C1336 1.400 . S
C1335 C1340 1.490 . S
C1336 H1326 0.930 . S
C1336 C1335 1.400 . S
C1336 C1339 1.386 . S
H1337 C1353 0.930 . S
H1338 C1354 0.931 . S
C1339 H1327 0.929 . S
C1339 C1333 1.390 . S
C1339 C1336 1.386 . S
C1340 C1335 1.490 . S
C1340 C1342 1.395 . S
C1340 C1343 1.403 . S
H1341 C1347 0.930 . S
C1342 H1328 0.930 . S
C1342 C1340 1.395 . S
C1342 C1345 1.403 . S
C1343 C1340 1.403 . S
C1343 C1344 1.524 . S
C1343 C1347 1.400 . S
C1344 H1329 0.960 . S
C1344 H1330 0.960 . S
C1344 H1331 0.960 . S
C1344 C1343 1.524 . S
C1345 C1342 1.403 . S
C1345 C1346 1.392 . S
C1345 C1349 1.495 . S
C1346 C1345 1.392 . S
C1346 C1347 1.385 . S
C1346 C1348 1.478 . S
C1347 H1341 0.930 . S
C1347 C1343 1.400 . S
C1347 C1346 1.385 . S
C1348 C1346 1.478 . S
C1348 C1350 1.381 . S
C1348 C1354 1.383 . S
C1349 C1345 1.495 . S
C1349 H1355 0.959 . S
C1349 H1356 0.961 . S
C1349 H1357 0.960 . S
C1350 C1348 1.381 . S
C1350 C1351 1.394 . S
C1350 H1358 0.930 . S
C1351 C1350 1.394 . S
C1351 C1352 1.383 . S
C1351 H1359 0.929 . S
C1352 C1351 1.383 . S
C1352 C1353 1.377 . S
C1353 H1337 0.930 . S
C1353 C1352 1.377 . S
C1353 C1354 1.379 . S
C1354 H1338 0.931 . S
C1354 C1348 1.383 . S
C1354 C1353 1.379 . S
H1355 C1349 0.959 . S
H1356 C1349 0.961 . S
H1357 C1349 0.960 . S
H1358 C1350 0.930 . S
H1359 C1351 0.929 . S
H1360 C1368 0.929 . S
H1361 C1370 0.930 . S
H1362 C1372 0.930 . S
H1363 C1375 0.929 . S
H1364 C1378 0.930 . S
H1365 C1380 0.960 . S
H1366 C1380 0.960 . S
H1367 C1380 0.960 . S
C1368 H1360 0.929 . S
C1368 C1369 1.377 . S
C1368 C1370 1.384 . S
C1369 C1368 1.377 . S
C1369 C1375 1.390 . S
C1370 H1361 0.930 . S
C1370 C1368 1.384 . S
C1370 C1371 1.372 . S
C1371 C1370 1.372 . S
C1371 C1372 1.400 . S
C1371 C1376 1.490 . S
C1372 H1362 0.930 . S
C1372 C1371 1.400 . S
C1372 C1375 1.386 . S
H1373 C1389 0.930 . S
H1374 C1390 0.931 . S
C1375 H1363 0.929 . S
C1375 C1369 1.390 . S
C1375 C1372 1.386 . S
C1376 C1371 1.490 . S
C1376 C1378 1.395 . S
C1376 C1379 1.403 . S
H1377 C1383 0.930 . S
C1378 H1364 0.930 . S
C1378 C1376 1.395 . S
C1378 C1381 1.403 . S
C1379 C1376 1.403 . S
C1379 C1380 1.524 . S
C1379 C1383 1.400 . S
C1380 H1365 0.960 . S
C1380 H1366 0.960 . S
C1380 H1367 0.960 . S
C1380 C1379 1.524 . S
C1381 C1378 1.403 . S
C1381 C1382 1.392 . S
C1381 C1385 1.495 . S
C1382 C1381 1.392 . S
C1382 C1383 1.385 . S
C1382 C1384 1.478 . S
C1383 H1377 0.930 . S
C1383 C1379 1.400 . S
C1383 C1382 1.385 . S
C1384 C1382 1.478 . S
C1384 C1386 1.381 . S
C1384 C1390 1.383 . S
C1385 C1381 1.495 . S
C1385 H1391 0.959 . S
C1385 H1392 0.961 . S
C1385 H1393 0.960 . S
C1386 C1384 1.381 . S
C1386 C1387 1.394 . S
C1386 H1394 0.930 . S
C1387 C1386 1.394 . S
C1387 C1388 1.383 . S
C1387 H1395 0.929 . S
C1388 C1387 1.383 . S
C1388 C1389 1.377 . S
C1389 H1373 0.930 . S
C1389 C1388 1.377 . S
C1389 C1390 1.379 . S
C1390 H1374 0.931 . S
C1390 C1384 1.383 . S
C1390 C1389 1.379 . S
H1391 C1385 0.959 . S
H1392 C1385 0.961 . S
H1393 C1385 0.960 . S
H1394 C1386 0.930 . S
H1395 C1387 0.929 . S
H1396 C1404 0.929 . S
H1397 C1406 0.930 . S
H1398 C1408 0.924 1_455 S
H1399 C1411 0.951 . S
H1400 C1414 0.930 . S
H1401 C1416 0.960 . S
H1402 C1416 0.960 . S
H1403 C1416 0.960 . S
C1404 H1396 0.929 . S
C1404 C1405 1.377 . S
C1404 C1406 1.384 . S
C1405 C1404 1.377 . S
C1405 C1411 1.379 1_655 S
C1406 H1397 0.930 . S
C1406 C1404 1.384 . S
C1406 C1407 1.372 . S
C1407 C1406 1.372 . S
C1407 C1408 1.411 . S
C1407 C1412 1.490 . S
C1408 H1398 0.924 1_655 S
C1408 C1407 1.411 . S
C1408 C1411 1.370 1_655 S
H1409 C1425 0.940 . S
H1410 C1426 0.931 . S
C1411 H1399 0.951 . S
C1411 C1405 1.379 1_455 S
C1411 C1408 1.370 1_455 S
C1412 C1407 1.490 . S
C1412 C1414 1.395 . S
C1412 C1415 1.403 1_655 S
H1413 C1419 0.930 . S
C1414 H1400 0.930 . S
C1414 C1412 1.395 . S
C1414 C1417 1.403 . S
C1415 C1412 1.403 1_455 S
C1415 C1416 1.524 . S
C1415 C1419 1.400 . S
C1416 H1401 0.960 . S
C1416 H1402 0.960 . S
C1416 H1403 0.960 . S
C1416 C1415 1.524 . S
C1417 C1414 1.403 . S
C1417 C1418 1.392 . S
C1417 C1421 1.495 . S
C1418 C1417 1.392 . S
C1418 C1419 1.385 1_655 S
C1418 C1420 1.478 . S
C1419 H1413 0.930 . S
C1419 C1415 1.400 . S
C1419 C1418 1.385 1_455 S
C1420 C1418 1.478 . S
C1420 C1422 1.381 . S
C1420 C1426 1.383 . S
C1421 C1417 1.495 . S
C1421 H1427 0.959 . S
C1421 H1428 0.961 . S
C1421 H1429 0.960 . S
C1422 C1420 1.381 . S
C1422 C1423 1.394 . S
C1422 H1430 0.930 . S
C1423 C1422 1.394 . S
C1423 C1424 1.383 . S
C1423 H1431 0.929 . S
C1424 C1423 1.383 . S
C1424 C1425 1.377 . S
C1425 H1409 0.940 . S
C1425 C1424 1.377 . S
C1425 C1426 1.379 . S
C1426 H1410 0.931 . S
C1426 C1420 1.383 . S
C1426 C1425 1.379 . S
H1427 C1421 0.959 . S
H1428 C1421 0.961 . S
H1429 C1421 0.960 . S
H1430 C1422 0.930 . S
H1431 C1423 0.929 . S
H1432 C1440 0.929 . S
H1433 C1442 0.930 . S
H1434 C1444 0.930 . S
H1435 C1447 0.929 . S
H1436 C1450 0.930 . S
H1437 C1452 0.960 . S
H1438 C1452 0.960 . S
H1439 C1452 0.960 . S
C1440 H1432 0.929 . S
C1440 C1441 1.377 . S
C1440 C1442 1.384 . S
C1441 C1440 1.377 . S
C1441 C1447 1.390 . S
C1442 H1433 0.930 . S
C1442 C1440 1.384 . S
C1442 C1443 1.372 . S
C1443 C1442 1.372 . S
C1443 C1444 1.400 . S
C1443 C1448 1.490 . S
C1444 H1434 0.930 . S
C1444 C1443 1.400 . S
C1444 C1447 1.386 . S
H1445 C1461 0.930 . S
H1446 C1462 0.931 . S
C1447 H1435 0.929 . S
C1447 C1441 1.390 . S
C1447 C1444 1.386 . S
C1448 C1443 1.490 . S
C1448 C1450 1.395 . S
C1448 C1451 1.403 . S
H1449 C1455 0.930 . S
C1450 H1436 0.930 . S
C1450 C1448 1.395 . S
C1450 C1453 1.403 . S
C1451 C1448 1.403 . S
C1451 C1452 1.524 . S
C1451 C1455 1.400 . S
C1452 H1437 0.960 . S
C1452 H1438 0.960 . S
C1452 H1439 0.960 . S
C1452 C1451 1.524 . S
C1453 C1450 1.403 . S
C1453 C1454 1.392 . S
C1453 C1457 1.495 . S
C1454 C1453 1.392 . S
C1454 C1455 1.385 . S
C1454 C1456 1.478 . S
C1455 H1449 0.930 . S
C1455 C1451 1.400 . S
C1455 C1454 1.385 . S
C1456 C1454 1.478 . S
C1456 C1458 1.381 . S
C1456 C1462 1.383 . S
C1457 C1453 1.495 . S
C1457 H1463 0.959 . S
C1457 H1464 0.961 . S
C1457 H1465 0.960 . S
C1458 C1456 1.381 . S
C1458 C1459 1.394 . S
C1458 H1466 0.930 . S
C1459 C1458 1.394 . S
C1459 C1460 1.383 . S
C1459 H1467 0.929 . S
C1460 C1459 1.383 . S
C1460 C1461 1.377 . S
C1461 H1445 0.930 . S
C1461 C1460 1.377 . S
C1461 C1462 1.379 . S
C1462 H1446 0.931 . S
C1462 C1456 1.383 . S
C1462 C1461 1.379 . S
H1463 C1457 0.959 . S
H1464 C1457 0.961 . S
H1465 C1457 0.960 . S
H1466 C1458 0.930 . S
H1467 C1459 0.929 . S
H1468 C1476 0.929 . S
H1469 C1478 0.930 . S
H1470 C1480 0.930 . S
H1471 C1483 0.929 . S
H1472 C1486 0.930 . S
H1473 C1488 0.960 . S
H1474 C1488 0.960 . S
H1475 C1488 0.960 . S
C1476 H1468 0.929 . S
C1476 C1477 1.377 . S
C1476 C1478 1.384 . S
C1477 C1476 1.377 . S
C1477 C1483 1.390 . S
C1478 H1469 0.930 . S
C1478 C1476 1.384 . S
C1478 C1479 1.372 . S
C1479 C1478 1.372 . S
C1479 C1480 1.400 . S
C1479 C1484 1.490 . S
C1480 H1470 0.930 . S
C1480 C1479 1.400 . S
C1480 C1483 1.386 . S
H1481 C1497 0.930 . S
H1482 C1498 0.931 . S
C1483 H1471 0.929 . S
C1483 C1477 1.390 . S
C1483 C1480 1.386 . S
C1484 C1479 1.490 . S
C1484 C1486 1.395 . S
C1484 C1487 1.403 . S
H1485 C1491 0.930 . S
C1486 H1472 0.930 . S
C1486 C1484 1.395 . S
C1486 C1489 1.403 . S
C1487 C1484 1.403 . S
C1487 C1488 1.524 . S
C1487 C1491 1.400 . S
C1488 H1473 0.960 . S
C1488 H1474 0.960 . S
C1488 H1475 0.960 . S
C1488 C1487 1.524 . S
C1489 C1486 1.403 . S
C1489 C1490 1.392 . S
C1489 C1493 1.495 . S
C1490 C1489 1.392 . S
C1490 C1491 1.385 . S
C1490 C1492 1.478 . S
C1491 H1485 0.930 . S
C1491 C1487 1.400 . S
C1491 C1490 1.385 . S
C1492 C1490 1.478 . S
C1492 C1494 1.381 . S
C1492 C1498 1.383 . S
C1493 C1489 1.495 . S
C1493 H1499 0.959 . S
C1493 H1500 0.961 . S
C1493 H1501 0.960 . S
C1494 C1492 1.381 . S
C1494 C1495 1.394 . S
C1494 H1502 0.930 . S
C1495 C1494 1.394 . S
C1495 C1496 1.383 . S
C1495 H1503 0.929 . S
C1496 C1495 1.383 . S
C1496 C1497 1.377 . S
C1497 H1481 0.930 . S
C1497 C1496 1.377 . S
C1497 C1498 1.379 . S
C1498 H1482 0.931 . S
C1498 C1492 1.383 . S
C1498 C1497 1.379 . S
H1499 C1493 0.959 . S
H1500 C1493 0.961 . S
H1501 C1493 0.960 . S
H1502 C1494 0.930 . S
H1503 C1495 0.929 . S
H1504 C1512 0.929 . S
H1505 C1514 0.930 . S
H1506 C1516 0.930 . S
H1507 C1519 0.929 . S
H1508 C1522 0.930 . S
H1509 C1524 0.960 . S
H1510 C1524 0.960 . S
H1511 C1524 0.960 . S
C1512 H1504 0.929 . S
C1512 C1513 1.377 . S
C1512 C1514 1.384 . S
C1513 C1512 1.377 . S
C1513 C1519 1.390 . S
C1514 H1505 0.930 . S
C1514 C1512 1.384 . S
C1514 C1515 1.372 . S
C1515 C1514 1.372 . S
C1515 C1516 1.400 . S
C1515 C1520 1.490 . S
C1516 H1506 0.930 . S
C1516 C1515 1.400 . S
C1516 C1519 1.386 . S
H1517 C1533 0.930 . S
H1518 C1534 0.931 . S
C1519 H1507 0.929 . S
C1519 C1513 1.390 . S
C1519 C1516 1.386 . S
C1520 C1515 1.490 . S
C1520 C1522 1.395 . S
C1520 C1523 1.403 . S
H1521 C1527 0.930 . S
C1522 H1508 0.930 . S
C1522 C1520 1.395 . S
C1522 C1525 1.403 . S
C1523 C1520 1.403 . S
C1523 C1524 1.524 . S
C1523 C1527 1.400 . S
C1524 H1509 0.960 . S
C1524 H1510 0.960 . S
C1524 H1511 0.960 . S
C1524 C1523 1.524 . S
C1525 C1522 1.403 . S
C1525 C1526 1.392 . S
C1525 C1529 1.495 . S
C1526 C1525 1.392 . S
C1526 C1527 1.385 . S
C1526 C1528 1.478 . S
C1527 H1521 0.930 . S
C1527 C1523 1.400 . S
C1527 C1526 1.385 . S
C1528 C1526 1.478 . S
C1528 C1530 1.381 . S
C1528 C1534 1.383 . S
C1529 C1525 1.495 . S
C1529 H1535 0.959 . S
C1529 H1536 0.961 . S
C1529 H1537 0.960 . S
C1530 C1528 1.381 . S
C1530 C1531 1.394 . S
C1530 H1538 0.930 . S
C1531 C1530 1.394 . S
C1531 C1532 1.383 . S
C1531 H1539 0.929 . S
C1532 C1531 1.383 . S
C1532 C1533 1.377 . S
C1533 H1517 0.930 . S
C1533 C1532 1.377 . S
C1533 C1534 1.379 . S
C1534 H1518 0.931 . S
C1534 C1528 1.383 . S
C1534 C1533 1.379 . S
H1535 C1529 0.959 . S
H1536 C1529 0.961 . S
H1537 C1529 0.960 . S
H1538 C1530 0.930 . S
H1539 C1531 0.929 . S
H1540 C1548 0.929 . S
H1541 C1550 0.930 . S
H1542 C1552 0.930 . S
H1543 C1555 0.929 . S
H1544 C1558 0.930 . S
H1545 C1560 0.960 . S
H1546 C1560 0.960 . S
H1547 C1560 0.960 . S
C1548 H1540 0.929 . S
C1548 C1549 1.377 . S
C1548 C1550 1.384 . S
C1549 C1548 1.377 . S
C1549 C1555 1.390 . S
C1550 H1541 0.930 . S
C1550 C1548 1.384 . S
C1550 C1551 1.372 . S
C1551 C1550 1.372 . S
C1551 C1552 1.400 . S
C1551 C1556 1.490 . S
C1552 H1542 0.930 . S
C1552 C1551 1.400 . S
C1552 C1555 1.386 . S
H1553 C1569 0.930 . S
H1554 C1570 0.931 . S
C1555 H1543 0.929 . S
C1555 C1549 1.390 . S
C1555 C1552 1.386 . S
C1556 C1551 1.490 . S
C1556 C1558 1.395 . S
C1556 C1559 1.403 . S
H1557 C1563 0.930 . S
C1558 H1544 0.930 . S
C1558 C1556 1.395 . S
C1558 C1561 1.403 . S
C1559 C1556 1.403 . S
C1559 C1560 1.524 . S
C1559 C1563 1.400 . S
C1560 H1545 0.960 . S
C1560 H1546 0.960 . S
C1560 H1547 0.960 . S
C1560 C1559 1.524 . S
C1561 C1558 1.403 . S
C1561 C1562 1.392 . S
C1561 C1565 1.495 . S
C1562 C1561 1.392 . S
C1562 C1563 1.385 . S
C1562 C1564 1.478 . S
C1563 H1557 0.930 . S
C1563 C1559 1.400 . S
C1563 C1562 1.385 . S
C1564 C1562 1.478 . S
C1564 C1566 1.381 . S
C1564 C1570 1.383 . S
C1565 C1561 1.495 . S
C1565 H1571 0.959 . S
C1565 H1572 0.961 . S
C1565 H1573 0.960 . S
C1566 C1564 1.381 . S
C1566 C1567 1.394 . S
C1566 H1574 0.930 . S
C1567 C1566 1.394 . S
C1567 C1568 1.383 . S
C1567 H1575 0.929 . S
C1568 C1567 1.383 . S
C1568 C1569 1.377 . S
C1569 H1553 0.930 . S
C1569 C1568 1.377 . S
C1569 C1570 1.379 . S
C1570 H1554 0.931 . S
C1570 C1564 1.383 . S
C1570 C1569 1.379 . S
H1571 C1565 0.959 . S
H1572 C1565 0.961 . S
H1573 C1565 0.960 . S
H1574 C1566 0.930 . S
H1575 C1567 0.929 . S
H1576 C1584 0.929 . S
H1577 C1586 0.930 . S
H1578 C1588 0.930 . S
H1579 C1591 0.929 . S
H1580 C1594 0.930 . S
H1581 C1596 0.960 . S
H1582 C1596 0.960 . S
H1583 C1596 0.960 . S
C1584 H1576 0.929 . S
C1584 C1585 1.377 1_545 S
C1584 C1586 1.384 . S
C1585 C1584 1.377 1_565 S
C1585 C1591 1.390 . S
C1586 H1577 0.930 . S
C1586 C1584 1.384 . S
C1586 C1587 1.372 . S
C1587 C1586 1.372 . S
C1587 C1588 1.400 1_545 S
C1587 C1592 1.490 . S
C1588 H1578 0.930 . S
C1588 C1587 1.400 1_565 S
C1588 C1591 1.386 . S
H1589 C1605 0.932 1_565 S
H1590 C1606 0.931 . S
C1591 H1579 0.929 . S
C1591 C1585 1.390 . S
C1591 C1588 1.386 . S
C1592 C1587 1.490 . S
C1592 C1594 1.395 . S
C1592 C1595 1.403 . S
H1593 C1599 0.930 1_565 S
C1594 H1580 0.930 . S
C1594 C1592 1.395 . S
C1594 C1597 1.403 . S
C1595 C1592 1.403 . S
C1595 C1596 1.525 1_545 S
C1595 C1599 1.398 . S
C1596 H1581 0.960 . S
C1596 H1582 0.960 . S
C1596 H1583 0.960 . S
C1596 C1595 1.525 1_565 S
C1597 C1594 1.403 . S
C1597 C1598 1.392 . S
C1597 C1601 1.495 . S
C1598 C1597 1.392 . S
C1598 C1599 1.385 . S
C1598 C1600 1.478 . S
C1599 H1593 0.930 1_545 S
C1599 C1595 1.398 . S
C1599 C1598 1.385 . S
C1600 C1598 1.478 . S
C1600 C1602 1.381 . S
C1600 C1606 1.383 1_545 S
C1601 C1597 1.495 . S
C1601 H1607 0.959 . S
C1601 H1608 0.961 . S
C1601 H1609 0.960 . S
C1602 C1600 1.381 . S
C1602 C1603 1.394 . S
C1602 H1610 0.930 . S
C1603 C1602 1.394 . S
C1603 C1604 1.383 . S
C1603 H1611 0.929 . S
C1604 C1603 1.383 . S
C1604 C1605 1.374 . S
C1605 H1589 0.932 1_545 S
C1605 C1604 1.374 . S
C1605 C1606 1.381 1_545 S
C1606 H1590 0.931 . S
C1606 C1600 1.383 1_565 S
C1606 C1605 1.381 1_565 S
H1607 C1601 0.959 . S
H1608 C1601 0.961 . S
H1609 C1601 0.960 . S
H1610 C1602 0.930 . S
H1611 C1603 0.929 . S
H1612 C1620 0.929 . S
H1613 C1622 0.930 . S
H1614 C1624 0.894 1_556 S
H1615 C1627 0.921 1_556 S
H1616 C1630 0.930 . S
H1617 C1632 0.960 . S
H1618 C1632 0.960 . S
H1619 C1632 0.960 1_556 S
C1620 H1612 0.929 . S
C1620 C1621 1.377 . S
C1620 C1622 1.384 . S
C1621 C1620 1.377 . S
C1621 C1627 1.398 . S
C1622 H1613 0.930 . S
C1622 C1620 1.384 . S
C1622 C1623 1.372 . S
C1623 C1622 1.372 . S
C1623 C1624 1.436 . S
C1623 C1628 1.490 . S
C1624 H1614 0.894 1_554 S
C1624 C1623 1.436 . S
C1624 C1627 1.385 . S
H1625 C1641 0.908 1_556 S
H1626 C1642 0.931 1_556 S
C1627 H1615 0.921 1_554 S
C1627 C1621 1.398 . S
C1627 C1624 1.385 . S
C1628 C1623 1.490 . S
C1628 C1630 1.395 . S
C1628 C1631 1.403 . S
H1629 C1635 0.930 . S
C1630 H1616 0.930 . S
C1630 C1628 1.395 . S
C1630 C1633 1.403 . S
C1631 C1628 1.403 . S
C1631 C1632 1.524 . S
C1631 C1635 1.400 . S
C1632 H1617 0.960 . S
C1632 H1618 0.960 . S
C1632 H1619 0.960 1_554 S
C1632 C1631 1.524 . S
C1633 C1630 1.403 . S
C1633 C1634 1.392 . S
C1633 C1637 1.495 . S
C1634 C1633 1.392 . S
C1634 C1635 1.385 . S
C1634 C1636 1.478 . S
C1635 H1629 0.930 . S
C1635 C1631 1.400 . S
C1635 C1634 1.385 . S
C1636 C1634 1.478 . S
C1636 C1638 1.381 . S
C1636 C1642 1.383 . S
C1637 C1633 1.495 . S
C1637 H1643 0.959 . S
C1637 H1644 0.961 . S
C1637 H1645 0.960 . S
C1638 C1636 1.381 . S
C1638 C1639 1.394 . S
C1638 H1646 0.930 . S
C1639 C1638 1.394 . S
C1639 C1640 1.383 . S
C1639 H1647 0.929 . S
C1640 C1639 1.383 . S
C1640 C1641 1.397 . S
C1641 H1625 0.908 1_554 S
C1641 C1640 1.397 . S
C1641 C1642 1.380 . S
C1642 H1626 0.931 1_554 S
C1642 C1636 1.383 . S
C1642 C1641 1.380 . S
H1643 C1637 0.959 . S
H1644 C1637 0.961 . S
H1645 C1637 0.960 . S
H1646 C1638 0.930 . S
H1647 C1639 0.929 . S
H1648 C1656 0.929 . S
H1649 C1658 0.930 . S
H1650 C1660 0.930 . S
H1651 C1663 0.929 . S
H1652 C1666 0.930 . S
H1653 C1668 0.960 . S
H1654 C1668 0.960 . S
H1655 C1668 0.960 . S
C1656 H1648 0.929 . S
C1656 C1657 1.377 . S
C1656 C1658 1.384 . S
C1657 C1656 1.377 . S
C1657 C1663 1.390 . S
C1658 H1649 0.930 . S
C1658 C1656 1.384 . S
C1658 C1659 1.372 . S
C1659 C1658 1.372 . S
C1659 C1660 1.400 . S
C1659 C1664 1.490 . S
C1660 H1650 0.930 . S
C1660 C1659 1.400 . S
C1660 C1663 1.386 . S
H1661 C1677 0.930 . S
H1662 C1678 0.931 . S
C1663 H1651 0.929 . S
C1663 C1657 1.390 . S
C1663 C1660 1.386 . S
C1664 C1659 1.490 . S
C1664 C1666 1.395 . S
C1664 C1667 1.403 . S
H1665 C1671 0.930 . S
C1666 H1652 0.930 . S
C1666 C1664 1.395 . S
C1666 C1669 1.403 . S
C1667 C1664 1.403 . S
C1667 C1668 1.524 . S
C1667 C1671 1.400 . S
C1668 H1653 0.960 . S
C1668 H1654 0.960 . S
C1668 H1655 0.960 . S
C1668 C1667 1.524 . S
C1669 C1666 1.403 . S
C1669 C1670 1.392 . S
C1669 C1673 1.495 . S
C1670 C1669 1.392 . S
C1670 C1671 1.385 . S
C1670 C1672 1.478 . S
C1671 H1665 0.930 . S
C1671 C1667 1.400 . S
C1671 C1670 1.385 . S
C1672 C1670 1.478 . S
C1672 C1674 1.381 . S
C1672 C1678 1.383 . S
C1673 C1669 1.495 . S
C1673 H1679 0.959 . S
C1673 H1680 0.961 . S
C1673 H1681 0.960 . S
C1674 C1672 1.381 . S
C1674 C1675 1.394 . S
C1674 H1682 0.930 . S
C1675 C1674 1.394 . S
C1675 C1676 1.383 . S
C1675 H1683 0.929 . S
C1676 C1675 1.383 . S
C1676 C1677 1.377 . S
C1677 H1661 0.930 . S
C1677 C1676 1.377 . S
C1677 C1678 1.379 . S
C1678 H1662 0.931 . S
C1678 C1672 1.383 . S
C1678 C1677 1.379 . S
H1679 C1673 0.959 . S
H1680 C1673 0.961 . S
H1681 C1673 0.960 . S
H1682 C1674 0.930 . S
H1683 C1675 0.929 . S
H1684 C1692 0.929 . S
H1685 C1694 0.930 . S
H1686 C1696 0.930 . S
H1687 C1699 0.929 . S
H1688 C1702 0.930 . S
H1689 C1704 0.960 . S
H1690 C1704 0.960 . S
H1691 C1704 0.960 . S
C1692 H1684 0.929 . S
C1692 C1693 1.377 . S
C1692 C1694 1.384 . S
C1693 C1692 1.377 . S
C1693 C1699 1.390 . S
C1694 H1685 0.930 . S
C1694 C1692 1.384 . S
C1694 C1695 1.372 . S
C1695 C1694 1.372 . S
C1695 C1696 1.400 . S
C1695 C1700 1.490 . S
C1696 H1686 0.930 . S
C1696 C1695 1.400 . S
C1696 C1699 1.386 . S
H1697 C1713 0.930 . S
H1698 C1714 0.931 . S
C1699 H1687 0.929 . S
C1699 C1693 1.390 . S
C1699 C1696 1.386 . S
C1700 C1695 1.490 . S
C1700 C1702 1.395 . S
C1700 C1703 1.403 . S
H1701 C1707 0.930 . S
C1702 H1688 0.930 . S
C1702 C1700 1.395 . S
C1702 C1705 1.403 . S
C1703 C1700 1.403 . S
C1703 C1704 1.524 . S
C1703 C1707 1.400 . S
C1704 H1689 0.960 . S
C1704 H1690 0.960 . S
C1704 H1691 0.960 . S
C1704 C1703 1.524 . S
C1705 C1702 1.403 . S
C1705 C1706 1.392 . S
C1705 C1709 1.495 . S
C1706 C1705 1.392 . S
C1706 C1707 1.385 . S
C1706 C1708 1.478 . S
C1707 H1701 0.930 . S
C1707 C1703 1.400 . S
C1707 C1706 1.385 . S
C1708 C1706 1.478 . S
C1708 C1710 1.381 . S
C1708 C1714 1.383 . S
C1709 C1705 1.495 . S
C1709 H1715 0.959 . S
C1709 H1716 0.961 . S
C1709 H1717 0.960 . S
C1710 C1708 1.381 . S
C1710 C1711 1.394 . S
C1710 H1718 0.930 . S
C1711 C1710 1.394 . S
C1711 C1712 1.383 . S
C1711 H1719 0.929 . S
C1712 C1711 1.383 . S
C1712 C1713 1.377 . S
C1713 H1697 0.930 . S
C1713 C1712 1.377 . S
C1713 C1714 1.379 . S
C1714 H1698 0.931 . S
C1714 C1708 1.383 . S
C1714 C1713 1.379 . S
H1715 C1709 0.959 . S
H1716 C1709 0.961 . S
H1717 C1709 0.960 . S
H1718 C1710 0.930 . S
H1719 C1711 0.929 . S
H1720 C1728 0.929 . S
H1721 C1730 0.930 . S
H1722 C1732 0.930 . S
H1723 C1735 0.929 . S
H1724 C1738 0.930 . S
H1725 C1740 0.960 . S
H1726 C1740 0.960 . S
H1727 C1740 0.960 . S
C1728 H1720 0.929 . S
C1728 C1729 1.377 . S
C1728 C1730 1.384 . S
C1729 C1728 1.377 . S
C1729 C1735 1.390 . S
C1730 H1721 0.930 . S
C1730 C1728 1.384 . S
C1730 C1731 1.372 . S
C1731 C1730 1.372 . S
C1731 C1732 1.400 . S
C1731 C1736 1.490 . S
C1732 H1722 0.930 . S
C1732 C1731 1.400 . S
C1732 C1735 1.386 . S
H1733 C1749 0.930 . S
H1734 C1750 0.931 . S
C1735 H1723 0.929 . S
C1735 C1729 1.390 . S
C1735 C1732 1.386 . S
C1736 C1731 1.490 . S
C1736 C1738 1.395 . S
C1736 C1739 1.403 . S
H1737 C1743 0.930 . S
C1738 H1724 0.930 . S
C1738 C1736 1.395 . S
C1738 C1741 1.403 . S
C1739 C1736 1.403 . S
C1739 C1740 1.524 . S
C1739 C1743 1.400 . S
C1740 H1725 0.960 . S
C1740 H1726 0.960 . S
C1740 H1727 0.960 . S
C1740 C1739 1.524 . S
C1741 C1738 1.403 . S
C1741 C1742 1.392 . S
C1741 C1745 1.495 . S
C1742 C1741 1.392 . S
C1742 C1743 1.385 . S
C1742 C1744 1.478 . S
C1743 H1737 0.930 . S
C1743 C1739 1.400 . S
C1743 C1742 1.385 . S
C1744 C1742 1.478 . S
C1744 C1746 1.381 . S
C1744 C1750 1.383 . S
C1745 C1741 1.495 . S
C1745 H1751 0.959 . S
C1745 H1752 0.961 . S
C1745 H1753 0.960 . S
C1746 C1744 1.381 . S
C1746 C1747 1.394 . S
C1746 H1754 0.930 . S
C1747 C1746 1.394 . S
C1747 C1748 1.383 . S
C1747 H1755 0.929 . S
C1748 C1747 1.383 . S
C1748 C1749 1.377 . S
C1749 H1733 0.930 . S
C1749 C1748 1.377 . S
C1749 C1750 1.379 . S
C1750 H1734 0.931 . S
C1750 C1744 1.383 . S
C1750 C1749 1.379 . S
H1751 C1745 0.959 . S
H1752 C1745 0.961 . S
H1753 C1745 0.960 . S
H1754 C1746 0.930 . S
H1755 C1747 0.929 . S
H1756 C1764 0.929 . S
H1757 C1766 0.930 . S
H1758 C1768 0.930 . S
H1759 C1771 0.929 . S
H1760 C1774 0.930 . S
H1761 C1776 0.960 . S
H1762 C1776 0.960 . S
H1763 C1776 0.960 . S
C1764 H1756 0.929 . S
C1764 C1765 1.377 . S
C1764 C1766 1.384 . S
C1765 C1764 1.377 . S
C1765 C1771 1.390 . S
C1766 H1757 0.930 . S
C1766 C1764 1.384 . S
C1766 C1767 1.372 . S
C1767 C1766 1.372 . S
C1767 C1768 1.400 . S
C1767 C1772 1.490 . S
C1768 H1758 0.930 . S
C1768 C1767 1.400 . S
C1768 C1771 1.386 . S
H1769 C1785 0.930 . S
H1770 C1786 0.931 . S
C1771 H1759 0.929 . S
C1771 C1765 1.390 . S
C1771 C1768 1.386 . S
C1772 C1767 1.490 . S
C1772 C1774 1.395 . S
C1772 C1775 1.403 . S
H1773 C1779 0.930 . S
C1774 H1760 0.930 . S
C1774 C1772 1.395 . S
C1774 C1777 1.403 . S
C1775 C1772 1.403 . S
C1775 C1776 1.524 . S
C1775 C1779 1.400 . S
C1776 H1761 0.960 . S
C1776 H1762 0.960 . S
C1776 H1763 0.960 . S
C1776 C1775 1.524 . S
C1777 C1774 1.403 . S
C1777 C1778 1.392 . S
C1777 C1781 1.495 . S
C1778 C1777 1.392 . S
C1778 C1779 1.385 . S
C1778 C1780 1.478 . S
C1779 H1773 0.930 . S
C1779 C1775 1.400 . S
C1779 C1778 1.385 . S
C1780 C1778 1.478 . S
C1780 C1782 1.381 . S
C1780 C1786 1.383 . S
C1781 C1777 1.495 . S
C1781 H1787 0.959 . S
C1781 H1788 0.961 . S
C1781 H1789 0.960 . S
C1782 C1780 1.381 . S
C1782 C1783 1.394 . S
C1782 H1790 0.930 . S
C1783 C1782 1.394 . S
C1783 C1784 1.383 . S
C1783 H1791 0.929 . S
C1784 C1783 1.383 . S
C1784 C1785 1.377 . S
C1785 H1769 0.930 . S
C1785 C1784 1.377 . S
C1785 C1786 1.379 . S
C1786 H1770 0.931 . S
C1786 C1780 1.383 . S
C1786 C1785 1.379 . S
H1787 C1781 0.959 . S
H1788 C1781 0.961 . S
H1789 C1781 0.960 . S
H1790 C1782 0.930 . S
H1791 C1783 0.929 . S
H1792 C1800 0.929 . S
H1793 C1802 0.930 . S
H1794 C1804 0.930 . S
H1795 C1807 0.929 . S
H1796 C1810 0.930 . S
H1797 C1812 0.960 . S
H1798 C1812 0.960 . S
H1799 C1812 0.960 . S
C1800 H1792 0.929 . S
C1800 C1801 1.377 . S
C1800 C1802 1.384 . S
C1801 C1800 1.377 . S
C1801 C1807 1.390 . S
C1802 H1793 0.930 . S
C1802 C1800 1.384 . S
C1802 C1803 1.372 . S
C1803 C1802 1.372 . S
C1803 C1804 1.400 . S
C1803 C1808 1.490 . S
C1804 H1794 0.930 . S
C1804 C1803 1.400 . S
C1804 C1807 1.386 . S
H1805 C1821 0.930 . S
H1806 C1822 0.931 . S
C1807 H1795 0.929 . S
C1807 C1801 1.390 . S
C1807 C1804 1.386 . S
C1808 C1803 1.490 . S
C1808 C1810 1.395 . S
C1808 C1811 1.403 . S
H1809 C1815 0.930 . S
C1810 H1796 0.930 . S
C1810 C1808 1.395 . S
C1810 C1813 1.403 . S
C1811 C1808 1.403 . S
C1811 C1812 1.524 . S
C1811 C1815 1.400 . S
C1812 H1797 0.960 . S
C1812 H1798 0.960 . S
C1812 H1799 0.960 . S
C1812 C1811 1.524 . S
C1813 C1810 1.403 . S
C1813 C1814 1.392 . S
C1813 C1817 1.495 . S
C1814 C1813 1.392 . S
C1814 C1815 1.385 . S
C1814 C1816 1.478 . S
C1815 H1809 0.930 . S
C1815 C1811 1.400 . S
C1815 C1814 1.385 . S
C1816 C1814 1.478 . S
C1816 C1818 1.381 . S
C1816 C1822 1.383 . S
C1817 C1813 1.495 . S
C1817 H1823 0.959 . S
C1817 H1824 0.961 . S
C1817 H1825 0.960 . S
C1818 C1816 1.381 . S
C1818 C1819 1.394 . S
C1818 H1826 0.930 . S
C1819 C1818 1.394 . S
C1819 C1820 1.383 . S
C1819 H1827 0.929 . S
C1820 C1819 1.383 . S
C1820 C1821 1.377 . S
C1821 H1805 0.930 . S
C1821 C1820 1.377 . S
C1821 C1822 1.379 . S
C1822 H1806 0.931 . S
C1822 C1816 1.383 . S
C1822 C1821 1.379 . S
H1823 C1817 0.959 . S
H1824 C1817 0.961 . S
H1825 C1817 0.960 . S
H1826 C1818 0.930 . S
H1827 C1819 0.929 . S
H1828 C1836 0.929 . S
H1829 C1838 0.930 . S
H1830 C1840 0.930 . S
H1831 C1843 0.929 . S
H1832 C1846 0.930 . S
H1833 C1848 0.960 . S
H1834 C1848 0.960 . S
H1835 C1848 0.960 . S
C1836 H1828 0.929 . S
C1836 C1837 1.377 . S
C1836 C1838 1.384 . S
C1837 C1836 1.377 . S
C1837 C1843 1.390 . S
C1838 H1829 0.930 . S
C1838 C1836 1.384 . S
C1838 C1839 1.372 . S
C1839 C1838 1.372 . S
C1839 C1840 1.400 . S
C1839 C1844 1.490 . S
C1840 H1830 0.930 . S
C1840 C1839 1.400 . S
C1840 C1843 1.386 . S
H1841 C1857 0.930 . S
H1842 C1858 0.931 . S
C1843 H1831 0.929 . S
C1843 C1837 1.390 . S
C1843 C1840 1.386 . S
C1844 C1839 1.490 . S
C1844 C1846 1.395 . S
C1844 C1847 1.403 . S
H1845 C1851 0.930 . S
C1846 H1832 0.930 . S
C1846 C1844 1.395 . S
C1846 C1849 1.403 . S
C1847 C1844 1.403 . S
C1847 C1848 1.524 . S
C1847 C1851 1.400 . S
C1848 H1833 0.960 . S
C1848 H1834 0.960 . S
C1848 H1835 0.960 . S
C1848 C1847 1.524 . S
C1849 C1846 1.403 . S
C1849 C1850 1.392 . S
C1849 C1853 1.495 . S
C1850 C1849 1.392 . S
C1850 C1851 1.385 . S
C1850 C1852 1.478 . S
C1851 H1845 0.930 . S
C1851 C1847 1.400 . S
C1851 C1850 1.385 . S
C1852 C1850 1.478 . S
C1852 C1854 1.381 . S
C1852 C1858 1.383 . S
C1853 C1849 1.495 . S
C1853 H1859 0.959 . S
C1853 H1860 0.961 . S
C1853 H1861 0.960 . S
C1854 C1852 1.381 . S
C1854 C1855 1.394 . S
C1854 H1862 0.930 . S
C1855 C1854 1.394 . S
C1855 C1856 1.383 . S
C1855 H1863 0.929 . S
C1856 C1855 1.383 . S
C1856 C1857 1.377 . S
C1857 H1841 0.930 . S
C1857 C1856 1.377 . S
C1857 C1858 1.379 . S
C1858 H1842 0.931 . S
C1858 C1852 1.383 . S
C1858 C1857 1.379 . S
H1859 C1853 0.959 . S
H1860 C1853 0.961 . S
H1861 C1853 0.960 . S
H1862 C1854 0.930 . S
H1863 C1855 0.929 . S
H1864 C1872 0.929 . S
H1865 C1874 0.930 . S
H1866 C1876 0.930 . S
H1867 C1879 0.929 . S
H1868 C1882 0.930 . S
H1869 C1884 0.960 . S
H1870 C1884 0.960 . S
H1871 C1884 0.960 . S
C1872 H1864 0.929 . S
C1872 C1873 1.377 . S
C1872 C1874 1.384 . S
C1873 C1872 1.377 . S
C1873 C1879 1.390 . S
C1874 H1865 0.930 . S
C1874 C1872 1.384 . S
C1874 C1875 1.372 . S
C1875 C1874 1.372 . S
C1875 C1876 1.400 . S
C1875 C1880 1.490 . S
C1876 H1866 0.930 . S
C1876 C1875 1.400 . S
C1876 C1879 1.386 . S
H1877 C1893 0.930 . S
H1878 C1894 0.931 . S
C1879 H1867 0.929 . S
C1879 C1873 1.390 . S
C1879 C1876 1.386 . S
C1880 C1875 1.490 . S
C1880 C1882 1.395 . S
C1880 C1883 1.403 . S
H1881 C1887 0.930 . S
C1882 H1868 0.930 . S
C1882 C1880 1.395 . S
C1882 C1885 1.403 . S
C1883 C1880 1.403 . S
C1883 C1884 1.524 . S
C1883 C1887 1.400 . S
C1884 H1869 0.960 . S
C1884 H1870 0.960 . S
C1884 H1871 0.960 . S
C1884 C1883 1.524 . S
C1885 C1882 1.403 . S
C1885 C1886 1.392 . S
C1885 C1889 1.495 . S
C1886 C1885 1.392 . S
C1886 C1887 1.385 . S
C1886 C1888 1.478 . S
C1887 H1881 0.930 . S
C1887 C1883 1.400 . S
C1887 C1886 1.385 . S
C1888 C1886 1.478 . S
C1888 C1890 1.381 . S
C1888 C1894 1.383 . S
C1889 C1885 1.495 . S
C1889 H1895 0.959 . S
C1889 H1896 0.961 . S
C1889 H1897 0.960 . S
C1890 C1888 1.381 . S
C1890 C1891 1.394 . S
C1890 H1898 0.930 . S
C1891 C1890 1.394 . S
C1891 C1892 1.383 . S
C1891 H1899 0.929 . S
C1892 C1891 1.383 . S
C1892 C1893 1.377 . S
C1893 H1877 0.930 . S
C1893 C1892 1.377 . S
C1893 C1894 1.379 . S
C1894 H1878 0.931 . S
C1894 C1888 1.383 . S
C1894 C1893 1.379 . S
H1895 C1889 0.959 . S
H1896 C1889 0.961 . S
H1897 C1889 0.960 . S
H1898 C1890 0.930 . S
H1899 C1891 0.929 . S
H1900 C1908 0.929 . S
H1901 C1910 0.930 . S
H1902 C1912 0.930 . S
H1903 C1915 0.929 . S
H1904 C1918 0.930 . S
H1905 C1920 0.960 . S
H1906 C1920 0.960 . S
H1907 C1920 0.960 . S
C1908 H1900 0.929 . S
C1908 C1909 1.377 . S
C1908 C1910 1.384 . S
C1909 C1908 1.377 . S
C1909 C1915 1.390 . S
C1910 H1901 0.930 . S
C1910 C1908 1.384 . S
C1910 C1911 1.372 . S
C1911 C1910 1.372 . S
C1911 C1912 1.400 . S
C1911 C1916 1.490 . S
C1912 H1902 0.930 . S
C1912 C1911 1.400 . S
C1912 C1915 1.386 . S
H1913 C1929 0.930 . S
H1914 C1930 0.931 . S
C1915 H1903 0.929 . S
C1915 C1909 1.390 . S
C1915 C1912 1.386 . S
C1916 C1911 1.490 . S
C1916 C1918 1.395 . S
C1916 C1919 1.403 . S
H1917 C1923 0.930 . S
C1918 H1904 0.930 . S
C1918 C1916 1.395 . S
C1918 C1921 1.403 . S
C1919 C1916 1.403 . S
C1919 C1920 1.524 . S
C1919 C1923 1.400 . S
C1920 H1905 0.960 . S
C1920 H1906 0.960 . S
C1920 H1907 0.960 . S
C1920 C1919 1.524 . S
C1921 C1918 1.403 . S
C1921 C1922 1.392 . S
C1921 C1925 1.495 . S
C1922 C1921 1.392 . S
C1922 C1923 1.385 . S
C1922 C1924 1.478 . S
C1923 H1917 0.930 . S
C1923 C1919 1.400 . S
C1923 C1922 1.385 . S
C1924 C1922 1.478 . S
C1924 C1926 1.381 . S
C1924 C1930 1.383 . S
C1925 C1921 1.495 . S
C1925 H1931 0.959 . S
C1925 H1932 0.961 . S
C1925 H1933 0.960 . S
C1926 C1924 1.381 . S
C1926 C1927 1.394 . S
C1926 H1934 0.930 . S
C1927 C1926 1.394 . S
C1927 C1928 1.383 . S
C1927 H1935 0.929 . S
C1928 C1927 1.383 . S
C1928 C1929 1.377 . S
C1929 H1913 0.930 . S
C1929 C1928 1.377 . S
C1929 C1930 1.379 . S
C1930 H1914 0.931 . S
C1930 C1924 1.383 . S
C1930 C1929 1.379 . S
H1931 C1925 0.959 . S
H1932 C1925 0.961 . S
H1933 C1925 0.960 . S
H1934 C1926 0.930 . S
H1935 C1927 0.929 . S
H1936 C1944 0.929 . S
H1937 C1946 0.930 . S
H1938 C1948 0.930 . S
H1939 C1951 0.929 . S
H1940 C1954 0.930 . S
H1941 C1956 0.960 . S
H1942 C1956 0.960 . S
H1943 C1956 0.960 . S
C1944 H1936 0.929 . S
C1944 C1945 1.377 . S
C1944 C1946 1.384 . S
C1945 C1944 1.377 . S
C1945 C1951 1.390 . S
C1946 H1937 0.930 . S
C1946 C1944 1.384 . S
C1946 C1947 1.372 . S
C1947 C1946 1.372 . S
C1947 C1948 1.400 . S
C1947 C1952 1.490 . S
C1948 H1938 0.930 . S
C1948 C1947 1.400 . S
C1948 C1951 1.386 . S
H1949 C1965 0.930 . S
H1950 C1966 0.931 . S
C1951 H1939 0.929 . S
C1951 C1945 1.390 . S
C1951 C1948 1.386 . S
C1952 C1947 1.490 . S
C1952 C1954 1.395 . S
C1952 C1955 1.403 . S
H1953 C1959 0.930 . S
C1954 H1940 0.930 . S
C1954 C1952 1.395 . S
C1954 C1957 1.403 . S
C1955 C1952 1.403 . S
C1955 C1956 1.524 . S
C1955 C1959 1.400 . S
C1956 H1941 0.960 . S
C1956 H1942 0.960 . S
C1956 H1943 0.960 . S
C1956 C1955 1.524 . S
C1957 C1954 1.403 . S
C1957 C1958 1.392 . S
C1957 C1961 1.495 . S
C1958 C1957 1.392 . S
C1958 C1959 1.385 . S
C1958 C1960 1.478 . S
C1959 H1953 0.930 . S
C1959 C1955 1.400 . S
C1959 C1958 1.385 . S
C1960 C1958 1.478 . S
C1960 C1962 1.381 . S
C1960 C1966 1.383 . S
C1961 C1957 1.495 . S
C1961 H1967 0.959 . S
C1961 H1968 0.961 . S
C1961 H1969 0.960 . S
C1962 C1960 1.381 . S
C1962 C1963 1.394 . S
C1962 H1970 0.930 . S
C1963 C1962 1.394 . S
C1963 C1964 1.383 . S
C1963 H1971 0.929 . S
C1964 C1963 1.383 . S
C1964 C1965 1.377 . S
C1965 H1949 0.930 . S
C1965 C1964 1.377 . S
C1965 C1966 1.379 . S
C1966 H1950 0.931 . S
C1966 C1960 1.383 . S
C1966 C1965 1.379 . S
H1967 C1961 0.959 . S
H1968 C1961 0.961 . S
H1969 C1961 0.960 . S
H1970 C1962 0.930 . S
H1971 C1963 0.929 . S
H1972 C1980 0.905 1_556 S
H1973 C1982 0.924 1_556 S
H1974 C1984 0.930 . S
H1975 C1987 0.929 . S
H1976 C1990 0.930 . S
H1977 C1992 0.960 . S
H1978 C1992 0.960 . S
H1979 C1992 0.960 . S
C1980 H1972 0.905 1_554 S
C1980 C1981 1.402 . S
C1980 C1982 1.384 . S
C1981 C1980 1.402 . S
C1981 C1987 1.390 . S
C1982 H1973 0.924 1_554 S
C1982 C1980 1.384 . S
C1982 C1983 1.378 . S
C1983 C1982 1.378 . S
C1983 C1984 1.400 . S
C1983 C1988 1.490 . S
C1984 H1974 0.930 . S
C1984 C1983 1.400 . S
C1984 C1987 1.386 . S
H1985 C2001 0.930 . S
H1986 C2002 0.931 . S
C1987 H1975 0.929 . S
C1987 C1981 1.390 . S
C1987 C1984 1.386 . S
C1988 C1983 1.490 . S
C1988 C1990 1.395 . S
C1988 C1991 1.403 . S
H1989 C1995 0.930 . S
C1990 H1976 0.930 . S
C1990 C1988 1.395 . S
C1990 C1993 1.403 . S
C1991 C1988 1.403 . S
C1991 C1992 1.524 . S
C1991 C1995 1.400 . S
C1992 H1977 0.960 . S
C1992 H1978 0.960 . S
C1992 H1979 0.960 . S
C1992 C1991 1.524 . S
C1993 C1990 1.403 . S
C1993 C1994 1.392 . S
C1993 C1997 1.495 . S
C1994 C1993 1.392 . S
C1994 C1995 1.385 . S
C1994 C1996 1.478 . S
C1995 H1989 0.930 . S
C1995 C1991 1.400 . S
C1995 C1994 1.385 . S
C1996 C1994 1.478 . S
C1996 C1998 1.378 1_554 S
C1996 C2002 1.383 . S
C1997 C1993 1.495 . S
C1997 H2003 0.959 . S
C1997 H2004 0.961 . S
C1997 H2005 0.936 1_554 S
C1998 C1996 1.378 1_556 S
C1998 C1999 1.394 . S
C1998 H2006 0.933 . S
C1999 C1998 1.394 . S
C1999 C2000 1.387 1_556 S
C1999 H2007 0.926 . S
C2000 C1999 1.387 1_554 S
C2000 C2001 1.377 . S
C2001 H1985 0.930 . S
C2001 C2000 1.377 . S
C2001 C2002 1.379 . S
C2002 H1986 0.931 . S
C2002 C1996 1.383 . S
C2002 C2001 1.379 . S
H2003 C1997 0.959 . S
H2004 C1997 0.961 . S
H2005 C1997 0.936 1_556 S
H2006 C1998 0.933 . S
H2007 C1999 0.926 . S
H2008 C2016 0.929 . S
H2009 C2018 0.930 . S
H2010 C2020 0.930 . S
H2011 C2023 0.929 . S
H2012 C2026 0.930 . S
H2013 C2028 0.960 . S
H2014 C2028 0.960 . S
H2015 C2028 0.960 . S
C2016 H2008 0.929 . S
C2016 C2017 1.377 . S
C2016 C2018 1.384 . S
C2017 C2016 1.377 . S
C2017 C2023 1.390 . S
C2018 H2009 0.930 . S
C2018 C2016 1.384 . S
C2018 C2019 1.372 . S
C2019 C2018 1.372 . S
C2019 C2020 1.400 . S
C2019 C2024 1.490 . S
C2020 H2010 0.930 . S
C2020 C2019 1.400 . S
C2020 C2023 1.386 . S
H2021 C2037 0.930 . S
H2022 C2038 0.931 . S
C2023 H2011 0.929 . S
C2023 C2017 1.390 . S
C2023 C2020 1.386 . S
C2024 C2019 1.490 . S
C2024 C2026 1.395 . S
C2024 C2027 1.403 . S
H2025 C2031 0.930 . S
C2026 H2012 0.930 . S
C2026 C2024 1.395 . S
C2026 C2029 1.403 . S
C2027 C2024 1.403 . S
C2027 C2028 1.524 . S
C2027 C2031 1.400 . S
C2028 H2013 0.960 . S
C2028 H2014 0.960 . S
C2028 H2015 0.960 . S
C2028 C2027 1.524 . S
C2029 C2026 1.403 . S
C2029 C2030 1.392 . S
C2029 C2033 1.495 . S
C2030 C2029 1.392 . S
C2030 C2031 1.385 . S
C2030 C2032 1.478 . S
C2031 H2025 0.930 . S
C2031 C2027 1.400 . S
C2031 C2030 1.385 . S
C2032 C2030 1.478 . S
C2032 C2034 1.381 . S
C2032 C2038 1.383 . S
C2033 C2029 1.495 . S
C2033 H2039 0.959 . S
C2033 H2040 0.961 . S
C2033 H2041 0.960 . S
C2034 C2032 1.381 . S
C2034 C2035 1.394 . S
C2034 H2042 0.930 . S
C2035 C2034 1.394 . S
C2035 C2036 1.383 . S
C2035 H2043 0.929 . S
C2036 C2035 1.383 . S
C2036 C2037 1.377 . S
C2037 H2021 0.930 . S
C2037 C2036 1.377 . S
C2037 C2038 1.379 . S
C2038 H2022 0.931 . S
C2038 C2032 1.383 . S
C2038 C2037 1.379 . S
H2039 C2033 0.959 . S
H2040 C2033 0.961 . S
H2041 C2033 0.960 . S
H2042 C2034 0.930 . S
H2043 C2035 0.929 . S
H2044 C2052 0.941 . S
H2045 C2054 0.930 . S
H2046 C2056 0.930 . S
H2047 C2059 0.929 . S
H2048 C2062 0.930 . S
H2049 C2064 0.960 . S
H2050 C2064 0.960 . S
H2051 C2064 0.960 . S
C2052 H2044 0.941 . S
C2052 C2053 1.377 . S
C2052 C2054 1.384 . S
C2053 C2052 1.377 . S
C2053 C2059 1.390 . S
C2054 H2045 0.930 . S
C2054 C2052 1.384 . S
C2054 C2055 1.372 . S
C2055 C2054 1.372 . S
C2055 C2056 1.400 . S
C2055 C2060 1.490 . S
C2056 H2046 0.930 . S
C2056 C2055 1.400 . S
C2056 C2059 1.386 . S
H2057 C2073 0.930 . S
H2058 C2074 0.931 . S
C2059 H2047 0.929 . S
C2059 C2053 1.390 . S
C2059 C2056 1.386 . S
C2060 C2055 1.490 . S
C2060 C2062 1.395 . S
C2060 C2063 1.403 . S
H2061 C2067 0.930 . S
C2062 H2048 0.930 . S
C2062 C2060 1.395 . S
C2062 C2065 1.403 . S
C2063 C2060 1.403 . S
C2063 C2064 1.524 . S
C2063 C2067 1.400 . S
C2064 H2049 0.960 . S
C2064 H2050 0.960 . S
C2064 H2051 0.960 . S
C2064 C2063 1.524 . S
C2065 C2062 1.403 . S
C2065 C2066 1.392 . S
C2065 C2069 1.495 . S
C2066 C2065 1.392 . S
C2066 C2067 1.385 . S
C2066 C2068 1.478 . S
C2067 H2061 0.930 . S
C2067 C2063 1.400 . S
C2067 C2066 1.385 . S
C2068 C2066 1.478 . S
C2068 C2070 1.381 . S
C2068 C2074 1.383 . S
C2069 C2065 1.495 . S
C2069 H2075 0.959 . S
C2069 H2076 0.961 . S
C2069 H2077 0.960 . S
C2070 C2068 1.381 . S
C2070 C2071 1.394 . S
C2070 H2078 0.930 . S
C2071 C2070 1.394 . S
C2071 C2072 1.383 . S
C2071 H2079 0.929 . S
C2072 C2071 1.383 . S
C2072 C2073 1.377 . S
C2073 H2057 0.930 . S
C2073 C2072 1.377 . S
C2073 C2074 1.379 . S
C2074 H2058 0.931 . S
C2074 C2068 1.383 . S
C2074 C2073 1.379 . S
H2075 C2069 0.959 . S
H2076 C2069 0.961 . S
H2077 C2069 0.960 . S
H2078 C2070 0.930 . S
H2079 C2071 0.929 . S
H2080 C2088 0.929 . S
H2081 C2090 0.930 . S
H2082 C2092 0.930 . S
H2083 C2095 0.929 . S
H2084 C2098 0.930 . S
H2085 C2100 0.960 . S
H2086 C2100 0.960 . S
H2087 C2100 0.960 . S
C2088 H2080 0.929 . S
C2088 C2089 1.377 . S
C2088 C2090 1.384 . S
C2089 C2088 1.377 . S
C2089 C2095 1.390 . S
C2090 H2081 0.930 . S
C2090 C2088 1.384 . S
C2090 C2091 1.372 . S
C2091 C2090 1.372 . S
C2091 C2092 1.400 . S
C2091 C2096 1.490 . S
C2092 H2082 0.930 . S
C2092 C2091 1.400 . S
C2092 C2095 1.386 . S
H2093 C2109 0.930 . S
H2094 C2110 0.931 . S
C2095 H2083 0.929 . S
C2095 C2089 1.390 . S
C2095 C2092 1.386 . S
C2096 C2091 1.490 . S
C2096 C2098 1.395 . S
C2096 C2099 1.403 . S
H2097 C2103 0.930 . S
C2098 H2084 0.930 . S
C2098 C2096 1.395 . S
C2098 C2101 1.403 . S
C2099 C2096 1.403 . S
C2099 C2100 1.524 . S
C2099 C2103 1.400 . S
C2100 H2085 0.960 . S
C2100 H2086 0.960 . S
C2100 H2087 0.960 . S
C2100 C2099 1.524 . S
C2101 C2098 1.403 . S
C2101 C2102 1.392 . S
C2101 C2105 1.495 . S
C2102 C2101 1.392 . S
C2102 C2103 1.385 . S
C2102 C2104 1.478 . S
C2103 H2097 0.930 . S
C2103 C2099 1.400 . S
C2103 C2102 1.385 . S
C2104 C2102 1.478 . S
C2104 C2106 1.381 . S
C2104 C2110 1.383 . S
C2105 C2101 1.495 . S
C2105 H2111 0.959 . S
C2105 H2112 0.961 . S
C2105 H2113 0.960 . S
C2106 C2104 1.381 . S
C2106 C2107 1.394 . S
C2106 H2114 0.930 . S
C2107 C2106 1.394 . S
C2107 C2108 1.383 . S
C2107 H2115 0.929 . S
C2108 C2107 1.383 . S
C2108 C2109 1.377 . S
C2109 H2093 0.930 . S
C2109 C2108 1.377 . S
C2109 C2110 1.379 . S
C2110 H2094 0.931 . S
C2110 C2104 1.383 . S
C2110 C2109 1.379 . S
H2111 C2105 0.959 . S
H2112 C2105 0.961 . S
H2113 C2105 0.960 . S
H2114 C2106 0.930 . S
H2115 C2107 0.929 . S
H2116 C2124 0.929 . S
H2117 C2126 0.930 . S
H2118 C2128 0.930 . S
H2119 C2131 0.929 . S
H2120 C2134 0.930 . S
H2121 C2136 0.960 . S
H2122 C2136 0.960 . S
H2123 C2136 0.960 . S
C2124 H2116 0.929 . S
C2124 C2125 1.377 . S
C2124 C2126 1.384 . S
C2125 C2124 1.377 . S
C2125 C2131 1.390 . S
C2126 H2117 0.930 . S
C2126 C2124 1.384 . S
C2126 C2127 1.372 . S
C2127 C2126 1.372 . S
C2127 C2128 1.400 . S
C2127 C2132 1.490 . S
C2128 H2118 0.930 . S
C2128 C2127 1.400 . S
C2128 C2131 1.386 . S
H2129 C2145 0.930 . S
H2130 C2146 0.931 . S
C2131 H2119 0.929 . S
C2131 C2125 1.390 . S
C2131 C2128 1.386 . S
C2132 C2127 1.490 . S
C2132 C2134 1.395 . S
C2132 C2135 1.403 . S
H2133 C2139 0.930 . S
C2134 H2120 0.930 . S
C2134 C2132 1.395 . S
C2134 C2137 1.403 . S
C2135 C2132 1.403 . S
C2135 C2136 1.524 . S
C2135 C2139 1.400 . S
C2136 H2121 0.960 . S
C2136 H2122 0.960 . S
C2136 H2123 0.960 . S
C2136 C2135 1.524 . S
C2137 C2134 1.403 . S
C2137 C2138 1.392 . S
C2137 C2141 1.495 . S
C2138 C2137 1.392 . S
C2138 C2139 1.385 . S
C2138 C2140 1.478 . S
C2139 H2133 0.930 . S
C2139 C2135 1.400 . S
C2139 C2138 1.385 . S
C2140 C2138 1.478 . S
C2140 C2142 1.381 . S
C2140 C2146 1.383 . S
C2141 C2137 1.495 . S
C2141 H2147 0.959 . S
C2141 H2148 0.961 . S
C2141 H2149 0.960 . S
C2142 C2140 1.381 . S
C2142 C2143 1.394 . S
C2142 H2150 0.930 . S
C2143 C2142 1.394 . S
C2143 C2144 1.383 . S
C2143 H2151 0.929 . S
C2144 C2143 1.383 . S
C2144 C2145 1.377 . S
C2145 H2129 0.930 . S
C2145 C2144 1.377 . S
C2145 C2146 1.379 . S
C2146 H2130 0.931 . S
C2146 C2140 1.383 . S
C2146 C2145 1.379 . S
H2147 C2141 0.959 . S
H2148 C2141 0.961 . S
H2149 C2141 0.960 . S
H2150 C2142 0.930 . S
H2151 C2143 0.929 . S
H2152 C2160 0.929 . S
H2153 C2162 0.930 . S
H2154 C2164 0.930 1_554 S
H2155 C2167 0.929 1_554 S
H2156 C2170 0.930 . S
H2157 C2172 0.960 . S
H2158 C2172 0.960 . S
H2159 C2172 0.960 . S
C2160 H2152 0.929 . S
C2160 C2161 1.377 . S
C2160 C2162 1.384 . S
C2161 C2160 1.377 . S
C2161 C2167 1.390 . S
C2162 H2153 0.930 . S
C2162 C2160 1.384 . S
C2162 C2163 1.372 . S
C2163 C2162 1.372 . S
C2163 C2164 1.400 . S
C2163 C2168 1.490 . S
C2164 H2154 0.930 1_556 S
C2164 C2163 1.400 . S
C2164 C2167 1.386 . S
H2165 C2181 0.930 1_554 S
H2166 C2182 0.931 1_554 S
C2167 H2155 0.929 1_556 S
C2167 C2161 1.390 . S
C2167 C2164 1.386 . S
C2168 C2163 1.490 . S
C2168 C2170 1.395 . S
C2168 C2171 1.403 . S
H2169 C2175 0.930 1_554 S
C2170 H2156 0.930 . S
C2170 C2168 1.395 . S
C2170 C2173 1.403 . S
C2171 C2168 1.403 . S
C2171 C2172 1.524 1_556 S
C2171 C2175 1.400 . S
C2172 H2157 0.960 . S
C2172 H2158 0.960 . S
C2172 H2159 0.960 . S
C2172 C2171 1.524 1_554 S
C2173 C2170 1.403 . S
C2173 C2174 1.392 . S
C2173 C2177 1.495 . S
C2174 C2173 1.392 . S
C2174 C2175 1.385 . S
C2174 C2176 1.478 . S
C2175 H2169 0.930 1_556 S
C2175 C2171 1.400 . S
C2175 C2174 1.385 . S
C2176 C2174 1.478 . S
C2176 C2178 1.381 . S
C2176 C2182 1.383 . S
C2177 C2173 1.495 . S
C2177 H2183 0.959 . S
C2177 H2184 0.961 . S
C2177 H2185 0.960 . S
C2178 C2176 1.381 . S
C2178 C2179 1.394 . S
C2178 H2186 0.930 . S
C2179 C2178 1.394 . S
C2179 C2180 1.383 . S
C2179 H2187 0.929 . S
C2180 C2179 1.383 . S
C2180 C2181 1.377 . S
C2181 H2165 0.930 1_556 S
C2181 C2180 1.377 . S
C2181 C2182 1.379 . S
C2182 H2166 0.931 1_556 S
C2182 C2176 1.383 . S
C2182 C2181 1.379 . S
H2183 C2177 0.959 . S
H2184 C2177 0.961 . S
H2185 C2177 0.960 . S
H2186 C2178 0.930 . S
H2187 C2179 0.929 . S
H2188 C2196 0.929 . S
H2189 C2198 0.930 . S
H2190 C2200 0.930 . S
H2191 C2203 0.929 . S
H2192 C2206 0.930 . S
H2193 C2208 0.960 . S
H2194 C2208 0.960 . S
H2195 C2208 0.960 . S
C2196 H2188 0.929 . S
C2196 C2197 1.377 . S
C2196 C2198 1.384 . S
C2197 C2196 1.377 . S
C2197 C2203 1.390 . S
C2198 H2189 0.930 . S
C2198 C2196 1.384 . S
C2198 C2199 1.372 . S
C2199 C2198 1.372 . S
C2199 C2200 1.400 . S
C2199 C2204 1.490 . S
C2200 H2190 0.930 . S
C2200 C2199 1.400 . S
C2200 C2203 1.386 . S
H2201 C2217 0.930 . S
H2202 C2218 0.931 . S
C2203 H2191 0.929 . S
C2203 C2197 1.390 . S
C2203 C2200 1.386 . S
C2204 C2199 1.490 . S
C2204 C2206 1.395 . S
C2204 C2207 1.403 . S
H2205 C2211 0.930 . S
C2206 H2192 0.930 . S
C2206 C2204 1.395 . S
C2206 C2209 1.403 . S
C2207 C2204 1.403 . S
C2207 C2208 1.524 . S
C2207 C2211 1.400 . S
C2208 H2193 0.960 . S
C2208 H2194 0.960 . S
C2208 H2195 0.960 . S
C2208 C2207 1.524 . S
C2209 C2206 1.403 . S
C2209 C2210 1.392 . S
C2209 C2213 1.495 . S
C2210 C2209 1.392 . S
C2210 C2211 1.385 . S
C2210 C2212 1.478 . S
C2211 H2205 0.930 . S
C2211 C2207 1.400 . S
C2211 C2210 1.385 . S
C2212 C2210 1.478 . S
C2212 C2214 1.381 . S
C2212 C2218 1.383 . S
C2213 C2209 1.495 . S
C2213 H2219 0.959 . S
C2213 H2220 0.961 . S
C2213 H2221 0.960 . S
C2214 C2212 1.381 . S
C2214 C2215 1.394 . S
C2214 H2222 0.930 . S
C2215 C2214 1.394 . S
C2215 C2216 1.383 . S
C2215 H2223 0.929 . S
C2216 C2215 1.383 . S
C2216 C2217 1.377 . S
C2217 H2201 0.930 . S
C2217 C2216 1.377 . S
C2217 C2218 1.379 . S
C2218 H2202 0.931 . S
C2218 C2212 1.383 . S
C2218 C2217 1.379 . S
H2219 C2213 0.959 . S
H2220 C2213 0.961 . S
H2221 C2213 0.960 . S
H2222 C2214 0.930 . S
H2223 C2215 0.929 . S
H2224 C2232 0.929 . S
H2225 C2234 0.930 . S
H2226 C2236 0.930 . S
H2227 C2239 0.929 . S
H2228 C2242 0.930 . S
H2229 C2244 0.960 . S
H2230 C2244 0.960 . S
H2231 C2244 0.960 . S
C2232 H2224 0.929 . S
C2232 C2233 1.377 . S
C2232 C2234 1.384 . S
C2233 C2232 1.377 . S
C2233 C2239 1.390 . S
C2234 H2225 0.930 . S
C2234 C2232 1.384 . S
C2234 C2235 1.372 . S
C2235 C2234 1.372 . S
C2235 C2236 1.400 . S
C2235 C2240 1.490 . S
C2236 H2226 0.930 . S
C2236 C2235 1.400 . S
C2236 C2239 1.386 . S
H2237 C2253 0.930 . S
H2238 C2254 0.931 . S
C2239 H2227 0.929 . S
C2239 C2233 1.390 . S
C2239 C2236 1.386 . S
C2240 C2235 1.490 . S
C2240 C2242 1.395 . S
C2240 C2243 1.403 . S
H2241 C2247 0.930 . S
C2242 H2228 0.930 . S
C2242 C2240 1.395 . S
C2242 C2245 1.403 . S
C2243 C2240 1.403 . S
C2243 C2244 1.524 . S
C2243 C2247 1.400 . S
C2244 H2229 0.960 . S
C2244 H2230 0.960 . S
C2244 H2231 0.960 . S
C2244 C2243 1.524 . S
C2245 C2242 1.403 . S
C2245 C2246 1.392 . S
C2245 C2249 1.495 . S
C2246 C2245 1.392 . S
C2246 C2247 1.385 . S
C2246 C2248 1.478 . S
C2247 H2241 0.930 . S
C2247 C2243 1.400 . S
C2247 C2246 1.385 . S
C2248 C2246 1.478 . S
C2248 C2250 1.381 . S
C2248 C2254 1.383 . S
C2249 C2245 1.495 . S
C2249 H2255 0.959 . S
C2249 H2256 0.961 . S
C2249 H2257 0.960 . S
C2250 C2248 1.381 . S
C2250 C2251 1.394 . S
C2250 H2258 0.930 . S
C2251 C2250 1.394 . S
C2251 C2252 1.383 . S
C2251 H2259 0.929 . S
C2252 C2251 1.383 . S
C2252 C2253 1.377 . S
C2253 H2237 0.930 . S
C2253 C2252 1.377 . S
C2253 C2254 1.379 . S
C2254 H2238 0.931 . S
C2254 C2248 1.383 . S
C2254 C2253 1.379 . S
H2255 C2249 0.959 . S
H2256 C2249 0.961 . S
H2257 C2249 0.960 . S
H2258 C2250 0.930 . S
H2259 C2251 0.929 . S
H2260 C2268 0.929 . S
H2261 C2270 0.930 . S
H2262 C2272 0.930 . S
H2263 C2275 0.929 . S
H2264 C2278 0.930 . S
H2265 C2280 0.960 . S
H2266 C2280 0.960 . S
H2267 C2280 0.960 . S
C2268 H2260 0.929 . S
C2268 C2269 1.377 . S
C2268 C2270 1.384 . S
C2269 C2268 1.377 . S
C2269 C2275 1.390 . S
C2270 H2261 0.930 . S
C2270 C2268 1.384 . S
C2270 C2271 1.372 . S
C2271 C2270 1.372 . S
C2271 C2272 1.400 . S
C2271 C2276 1.490 . S
C2272 H2262 0.930 . S
C2272 C2271 1.400 . S
C2272 C2275 1.386 . S
H2273 C2289 0.930 . S
H2274 C2290 0.931 . S
C2275 H2263 0.929 . S
C2275 C2269 1.390 . S
C2275 C2272 1.386 . S
C2276 C2271 1.490 . S
C2276 C2278 1.395 . S
C2276 C2279 1.403 . S
H2277 C2283 0.930 . S
C2278 H2264 0.930 . S
C2278 C2276 1.395 . S
C2278 C2281 1.403 . S
C2279 C2276 1.403 . S
C2279 C2280 1.524 . S
C2279 C2283 1.400 . S
C2280 H2265 0.960 . S
C2280 H2266 0.960 . S
C2280 H2267 0.960 . S
C2280 C2279 1.524 . S
C2281 C2278 1.403 . S
C2281 C2282 1.392 . S
C2281 C2285 1.495 . S
C2282 C2281 1.392 . S
C2282 C2283 1.385 . S
C2282 C2284 1.478 . S
C2283 H2277 0.930 . S
C2283 C2279 1.400 . S
C2283 C2282 1.385 . S
C2284 C2282 1.478 . S
C2284 C2286 1.381 . S
C2284 C2290 1.383 . S
C2285 C2281 1.495 . S
C2285 H2291 0.959 . S
C2285 H2292 0.961 . S
C2285 H2293 0.960 . S
C2286 C2284 1.381 . S
C2286 C2287 1.394 . S
C2286 H2294 0.930 . S
C2287 C2286 1.394 . S
C2287 C2288 1.383 . S
C2287 H2295 0.929 . S
C2288 C2287 1.383 . S
C2288 C2289 1.377 . S
C2289 H2273 0.930 . S
C2289 C2288 1.377 . S
C2289 C2290 1.379 . S
C2290 H2274 0.931 . S
C2290 C2284 1.383 . S
C2290 C2289 1.379 . S
H2291 C2285 0.959 . S
H2292 C2285 0.961 . S
H2293 C2285 0.960 . S
H2294 C2286 0.930 . S
H2295 C2287 0.929 . S
H2296 C2304 0.929 . S
H2297 C2306 0.930 . S
H2298 C2308 0.930 . S
H2299 C2311 0.929 . S
H2300 C2314 0.930 . S
H2301 C2316 0.960 . S
H2302 C2316 0.960 . S
H2303 C2316 0.960 . S
C2304 H2296 0.929 . S
C2304 C2305 1.377 . S
C2304 C2306 1.384 . S
C2305 C2304 1.377 . S
C2305 C2311 1.390 . S
C2306 H2297 0.930 . S
C2306 C2304 1.384 . S
C2306 C2307 1.372 . S
C2307 C2306 1.372 . S
C2307 C2308 1.400 . S
C2307 C2312 1.490 . S
C2308 H2298 0.930 . S
C2308 C2307 1.400 . S
C2308 C2311 1.386 . S
H2309 C2325 0.930 . S
H2310 C2326 0.931 . S
C2311 H2299 0.929 . S
C2311 C2305 1.390 . S
C2311 C2308 1.386 . S
C2312 C2307 1.490 . S
C2312 C2314 1.395 . S
C2312 C2315 1.403 . S
H2313 C2319 0.930 . S
C2314 H2300 0.930 . S
C2314 C2312 1.395 . S
C2314 C2317 1.403 . S
C2315 C2312 1.403 . S
C2315 C2316 1.524 . S
C2315 C2319 1.400 . S
C2316 H2301 0.960 . S
C2316 H2302 0.960 . S
C2316 H2303 0.960 . S
C2316 C2315 1.524 . S
C2317 C2314 1.403 . S
C2317 C2318 1.392 . S
C2317 C2321 1.495 . S
C2318 C2317 1.392 . S
C2318 C2319 1.385 . S
C2318 C2320 1.478 . S
C2319 H2313 0.930 . S
C2319 C2315 1.400 . S
C2319 C2318 1.385 . S
C2320 C2318 1.478 . S
C2320 C2322 1.381 . S
C2320 C2326 1.383 . S
C2321 C2317 1.495 . S
C2321 H2327 0.959 . S
C2321 H2328 0.961 . S
C2321 H2329 0.960 . S
C2322 C2320 1.381 . S
C2322 C2323 1.394 . S
C2322 H2330 0.930 . S
C2323 C2322 1.394 . S
C2323 C2324 1.383 . S
C2323 H2331 0.929 . S
C2324 C2323 1.383 . S
C2324 C2325 1.377 . S
C2325 H2309 0.930 . S
C2325 C2324 1.377 . S
C2325 C2326 1.379 . S
C2326 H2310 0.931 . S
C2326 C2320 1.383 . S
C2326 C2325 1.379 . S
H2327 C2321 0.959 . S
H2328 C2321 0.961 . S
H2329 C2321 0.960 . S
H2330 C2322 0.930 . S
H2331 C2323 0.929 . S
H2332 C2340 0.929 . S
H2333 C2342 0.930 . S
H2334 C2344 0.930 . S
H2335 C2347 0.929 . S
H2336 C2350 0.930 . S
H2337 C2352 0.960 . S
H2338 C2352 0.960 . S
H2339 C2352 0.960 . S
C2340 H2332 0.929 . S
C2340 C2341 1.377 . S
C2340 C2342 1.384 . S
C2341 C2340 1.377 . S
C2341 C2347 1.390 . S
C2342 H2333 0.930 . S
C2342 C2340 1.384 . S
C2342 C2343 1.372 . S
C2343 C2342 1.372 . S
C2343 C2344 1.400 . S
C2343 C2348 1.490 . S
C2344 H2334 0.930 . S
C2344 C2343 1.400 . S
C2344 C2347 1.386 . S
H2345 C2361 0.930 . S
H2346 C2362 0.931 . S
C2347 H2335 0.929 . S
C2347 C2341 1.390 . S
C2347 C2344 1.386 . S
C2348 C2343 1.490 . S
C2348 C2350 1.395 . S
C2348 C2351 1.403 . S
H2349 C2355 0.930 . S
C2350 H2336 0.930 . S
C2350 C2348 1.395 . S
C2350 C2353 1.403 . S
C2351 C2348 1.403 . S
C2351 C2352 1.524 . S
C2351 C2355 1.400 . S
C2352 H2337 0.960 . S
C2352 H2338 0.960 . S
C2352 H2339 0.960 . S
C2352 C2351 1.524 . S
C2353 C2350 1.403 . S
C2353 C2354 1.392 . S
C2353 C2357 1.495 . S
C2354 C2353 1.392 . S
C2354 C2355 1.385 . S
C2354 C2356 1.478 . S
C2355 H2349 0.930 . S
C2355 C2351 1.400 . S
C2355 C2354 1.385 . S
C2356 C2354 1.478 . S
C2356 C2358 1.381 . S
C2356 C2362 1.383 . S
C2357 C2353 1.495 . S
C2357 H2363 0.959 . S
C2357 H2364 0.961 . S
C2357 H2365 0.960 . S
C2358 C2356 1.381 . S
C2358 C2359 1.394 . S
C2358 H2366 0.930 . S
C2359 C2358 1.394 . S
C2359 C2360 1.383 . S
C2359 H2367 0.929 . S
C2360 C2359 1.383 . S
C2360 C2361 1.377 . S
C2361 H2345 0.930 . S
C2361 C2360 1.377 . S
C2361 C2362 1.379 . S
C2362 H2346 0.931 . S
C2362 C2356 1.383 . S
C2362 C2361 1.379 . S
H2363 C2357 0.959 . S
H2364 C2357 0.961 . S
H2365 C2357 0.960 . S
H2366 C2358 0.930 . S
H2367 C2359 0.929 . S
C649 C19 1.542 . S
C668 C55 1.469 . S
C685 C98 1.300 . S
C704 C50 1.332 . S
C721 C135 1.477 . S
C740 C99 1.536 . S
C757 C18 1.303 . S
C776 C130 1.325 1_565 S
C793 C9 1.291 . S
C812 C379 1.301 . S
C829 C290 1.545 . S
C848 C46 1.502 . S
C865 C89 1.292 . S
C884 C419 1.304 . S
C901 C126 1.476 . S
C920 C530 1.535 . S
C937 C329 1.290 . S
C956 C59 1.302 . S
C973 C486 1.486 . S
C992 C90 1.543 . S
C1009 C569 1.290 . S
C1028 C139 1.304 . S
C1045 C10 1.542 . S
C1064 C446 1.478 . S
C1081 C15 0.586 . S
C1100 C335 0.613 . S
C1117 C489 1.556 . S
C1136 C169 1.540 . S
C1153 C206 0.590 . S
C1172 C566 0.610 . S
C1189 C449 1.552 . S
C1208 C249 1.543 . S
C1225 C86 0.589 . S
C1244 C286 0.595 . S
C1261 C378 1.553 . S
C1280 C178 1.556 . S
C1297 C258 1.552 . S
C1316 C418 1.536 . S
C1333 C209 1.299 . S
C1352 C459 1.327 . S
C1369 C366 1.476 . S
C1388 C210 1.531 . S
C1405 C455 1.476 . S
C1424 C299 1.544 . S
C1441 C218 1.304 . S
C1460 C170 1.304 . S
C1477 C375 1.485 . S
C1496 C339 1.549 . S
C1513 C538 1.290 . S
C1532 C450 1.347 . S
C1549 C255 1.477 . S
C1568 C219 1.535 . S
C1585 C370 1.328 1_565 S
C1604 C578 1.327 . S
C1621 C526 0.591 . S
C1640 C6 0.610 . S
C1657 C95 0.590 . S
C1676 C575 0.597 . S
C1693 C498 1.556 . S
C1712 C58 1.565 . S
C1729 C295 0.587 . S
C1748 C215 0.611 . S
C1765 C129 1.554 . S
C1784 C409 1.536 . S
C1801 C495 1.481 . S
C1820 C539 1.530 . S
C1837 C298 1.298 . S
C1856 C490 1.302 . S
C1873 C259 1.328 . S
C1892 C289 1.303 . S
C1909 C179 1.332 . S
C1928 C529 1.328 . S
C1945 C499 1.322 . S
C1964 C609 1.261 . S
C1981 C606 0.586 . S
C2000 C326 0.598 . S
C2017 C49 1.554 . S
C2036 C369 1.566 . S
C2053 C330 1.543 . S
C2072 C246 1.490 . S
C2089 C338 1.298 . S
C2108 C410 1.340 . S
C2125 C618 1.304 . S
C2144 C250 1.307 . S
C2161 C535 0.588 . S
C2180 C615 0.607 . S
C2197 C458 1.556 . S
C2216 C138 1.565 . S
C2233 C415 1.476 . S
C2252 C579 1.545 . S
C2269 C406 1.476 . S
C2288 C610 1.531 . S
C2305 C166 1.487 . S
C2324 C570 1.550 . S
C2341 C619 1.543 . S
C2360 C175 1.451 . S
