# Generated by pormake.
# Topology xfz, (5)-cn, num edge types: 1
# Building blocks:
#     Node 0, Type 0, BuildingBlock: XOMCOT_clean_sbu_1, # of connection points: 5
#     Node 1, Type 0, BuildingBlock: XOMCOT_clean_sbu_1, # of connection points: 5
#     Node 2, Type 0, BuildingBlock: XOMCOT_clean_sbu_1, # of connection points: 5
#     Node 3, Type 0, BuildingBlock: XOMCOT_clean_sbu_1, # of connection points: 5
#     Node 4, Type 0, BuildingBlock: XOMCOT_clean_sbu_1, # of connection points: 5
#     Node 5, Type 0, BuildingBlock: XOMCOT_clean_sbu_1, # of connection points: 5
#     Node 6, Type 0, BuildingBlock: XOMCOT_clean_sbu_1, # of connection points: 5
#     Node 7, Type 0, BuildingBlock: XOMCOT_clean_sbu_1, # of connection points: 5
#     Node 8, Type 0, BuildingBlock: XOMCOT_clean_sbu_1, # of connection points: 5
#     Node 9, Type 0, BuildingBlock: XOMCOT_clean_sbu_1, # of connection points: 5
#     Node 10, Type 0, BuildingBlock: XOMCOT_clean_sbu_1, # of connection points: 5
#     Node 11, Type 0, BuildingBlock: XOMCOT_clean_sbu_1, # of connection points: 5
#     Node 12, Type 0, BuildingBlock: XOMCOT_clean_sbu_1, # of connection points: 5
#     Node 13, Type 0, BuildingBlock: XOMCOT_clean_sbu_1, # of connection points: 5
#     Node 14, Type 0, BuildingBlock: XOMCOT_clean_sbu_1, # of connection points: 5
#     Node 15, Type 0, BuildingBlock: XOMCOT_clean_sbu_1, # of connection points: 5
#     Edge 16, Type (0, 0), BuildingBlock: XUDNAN_clean_linker_2, # of connection points: 2
#     Edge 17, Type (0, 0), BuildingBlock: XUDNAN_clean_linker_2, # of connection points: 2
#     Edge 18, Type (0, 0), BuildingBlock: XUDNAN_clean_linker_2, # of connection points: 2
#     Edge 19, Type (0, 0), BuildingBlock: XUDNAN_clean_linker_2, # of connection points: 2
#     Edge 20, Type (0, 0), BuildingBlock: XUDNAN_clean_linker_2, # of connection points: 2
#     Edge 21, Type (0, 0), BuildingBlock: XUDNAN_clean_linker_2, # of connection points: 2
#     Edge 22, Type (0, 0), BuildingBlock: XUDNAN_clean_linker_2, # of connection points: 2
#     Edge 23, Type (0, 0), BuildingBlock: XUDNAN_clean_linker_2, # of connection points: 2
#     Edge 24, Type (0, 0), BuildingBlock: XUDNAN_clean_linker_2, # of connection points: 2
#     Edge 25, Type (0, 0), BuildingBlock: XUDNAN_clean_linker_2, # of connection points: 2
#     Edge 26, Type (0, 0), BuildingBlock: XUDNAN_clean_linker_2, # of connection points: 2
#     Edge 27, Type (0, 0), BuildingBlock: XUDNAN_clean_linker_2, # of connection points: 2
#     Edge 28, Type (0, 0), BuildingBlock: XUDNAN_clean_linker_2, # of connection points: 2
#     Edge 29, Type (0, 0), BuildingBlock: XUDNAN_clean_linker_2, # of connection points: 2
#     Edge 30, Type (0, 0), BuildingBlock: XUDNAN_clean_linker_2, # of connection points: 2
#     Edge 31, Type (0, 0), BuildingBlock: XUDNAN_clean_linker_2, # of connection points: 2
#     Edge 32, Type (0, 0), BuildingBlock: XUDNAN_clean_linker_2, # of connection points: 2
#     Edge 33, Type (0, 0), BuildingBlock: XUDNAN_clean_linker_2, # of connection points: 2
#     Edge 34, Type (0, 0), BuildingBlock: XUDNAN_clean_linker_2, # of connection points: 2
#     Edge 35, Type (0, 0), BuildingBlock: XUDNAN_clean_linker_2, # of connection points: 2
#     Edge 36, Type (0, 0), BuildingBlock: XUDNAN_clean_linker_2, # of connection points: 2
#     Edge 37, Type (0, 0), BuildingBlock: XUDNAN_clean_linker_2, # of connection points: 2
#     Edge 38, Type (0, 0), BuildingBlock: XUDNAN_clean_linker_2, # of connection points: 2
#     Edge 39, Type (0, 0), BuildingBlock: XUDNAN_clean_linker_2, # of connection points: 2
#     Edge 40, Type (0, 0), BuildingBlock: XUDNAN_clean_linker_2, # of connection points: 2
#     Edge 41, Type (0, 0), BuildingBlock: XUDNAN_clean_linker_2, # of connection points: 2
#     Edge 42, Type (0, 0), BuildingBlock: XUDNAN_clean_linker_2, # of connection points: 2
#     Edge 43, Type (0, 0), BuildingBlock: XUDNAN_clean_linker_2, # of connection points: 2
#     Edge 44, Type (0, 0), BuildingBlock: XUDNAN_clean_linker_2, # of connection points: 2
#     Edge 45, Type (0, 0), BuildingBlock: XUDNAN_clean_linker_2, # of connection points: 2
#     Edge 46, Type (0, 0), BuildingBlock: XUDNAN_clean_linker_2, # of connection points: 2
#     Edge 47, Type (0, 0), BuildingBlock: XUDNAN_clean_linker_2, # of connection points: 2
#     Edge 48, Type (0, 0), BuildingBlock: XUDNAN_clean_linker_2, # of connection points: 2
#     Edge 49, Type (0, 0), BuildingBlock: XUDNAN_clean_linker_2, # of connection points: 2
#     Edge 50, Type (0, 0), BuildingBlock: XUDNAN_clean_linker_2, # of connection points: 2
#     Edge 51, Type (0, 0), BuildingBlock: XUDNAN_clean_linker_2, # of connection points: 2
#     Edge 52, Type (0, 0), BuildingBlock: XUDNAN_clean_linker_2, # of connection points: 2
#     Edge 53, Type (0, 0), BuildingBlock: XUDNAN_clean_linker_2, # of connection points: 2
#     Edge 54, Type (0, 0), BuildingBlock: XUDNAN_clean_linker_2, # of connection points: 2
#     Edge 55, Type (0, 0), BuildingBlock: XUDNAN_clean_linker_2, # of connection points: 2
# Relax obj value: 0.582
# Max RMSD: 0.323
# Mean RMSD: 0.323
data_MOF--net-xfz--node1-XOMCOT_clean_sbu_1--edge1-XUDNAN_clean_linker_2
_symmetry_space_group_name_H-M    P1
_symmetry_Int_Tables_number       1
_symmetry_cell_setting            triclinic
loop_
_symmetry_equiv_pos_as_xyz
'x, y, z'
_cell_length_a     37.845946
_cell_length_b     37.840927
_cell_length_c     60.017475
_cell_angle_alpha  90.000854
_cell_angle_beta   90.122248
_cell_angle_gamma 90.006511
loop_
_atom_site_label
_atom_site_type_symbol
_atom_site_fract_x
_atom_site_fract_y
_atom_site_fract_z
_atom_type_partial_charge
C0 C 0.24011 0.41377 0.33063 0.0
C1 C 0.23775 0.39117 0.31277 0.0
N2 N 0.20379 0.39014 0.30605 0.0
N3 N 0.20782 0.42683 0.33522 0.0
C4 C 0.18617 0.41189 0.32002 0.0
H5 H 0.26403 0.42085 0.33943 0.0
Co6 Co 0.1997 0.45999 0.35722 0.0
C7 C 0.12503 0.45347 0.36962 0.0
O8 O 0.13509 0.44772 0.39028 0.0
N9 N 0.19233 0.4941 0.3795 0.0
C10 C 0.17237 0.54136 0.39773 0.0
C11 C 0.17259 0.52379 0.37768 0.0
C12 C 0.20378 0.49436 0.40081 0.0
N13 N 0.19188 0.52256 0.41223 0.0
O14 O 0.20106 0.42217 0.37859 0.0
H15 H 0.15827 0.53172 0.3629 0.0
H16 H 0.22012 0.47417 0.40816 0.0
O17 O 0.14833 0.45565 0.3543 0.0
C18 C 0.23143 0.41534 0.38672 0.0
O19 O 0.25776 0.43695 0.38249 0.0
N20 N 0.20096 0.49565 0.33568 0.0
C21 C 0.20835 0.54873 0.30409 0.0
C22 C 0.17793 0.52781 0.30452 0.0
C23 C 0.17493 0.50099 0.32024 0.0
C24 C 0.23106 0.51547 0.33529 0.0
C25 C 0.23542 0.54227 0.31947 0.0
H26 H 0.15178 0.48449 0.31968 0.0
H27 H 0.25176 0.51032 0.34732 0.0
H28 H 0.15833 0.41801 0.31863 0.0
H29 H 0.25945 0.37702 0.30517 0.0
H30 H 0.15786 0.56522 0.40159 0.0
H31 H 0.15686 0.53184 0.29252 0.0
H32 H 0.2594 0.55789 0.31934 0.0
C33 C 0.42594 0.78751 0.67113 0.0
C34 C 0.40032 0.79222 0.68702 0.0
N35 N 0.38483 0.82373 0.68339 0.0
N36 N 0.42681 0.81611 0.65777 0.0
C37 C 0.40126 0.83767 0.66549 0.0
H38 H 0.44311 0.76483 0.66945 0.0
Co39 Co 0.4572 0.82027 0.63395 0.0
C40 C 0.45187 0.89388 0.61809 0.0
O41 O 0.44501 0.88228 0.5979 0.0
N42 N 0.48832 0.82332 0.60993 0.0
C43 C 0.53351 0.83829 0.58829 0.0
C44 C 0.51776 0.84343 0.60863 0.0
C45 C 0.48683 0.80614 0.59026 0.0
N46 N 0.5139 0.81489 0.57678 0.0
O47 O 0.41713 0.81609 0.6145 0.0
H48 H 0.52693 0.86116 0.62154 0.0
H49 H 0.46641 0.78747 0.58581 0.0
O50 O 0.45393 0.87187 0.63417 0.0
C51 C 0.4087 0.78369 0.61228 0.0
O52 O 0.42998 0.75958 0.62055 0.0
N53 N 0.49522 0.82201 0.65383 0.0
C54 C 0.54974 0.81974 0.68475 0.0
C55 C 0.52611 0.84811 0.6845 0.0
C56 C 0.4986 0.84847 0.66915 0.0
C57 C 0.51776 0.79388 0.65399 0.0
C58 C 0.54539 0.79214 0.66949 0.0
H59 H 0.4795 0.86954 0.67013 0.0
H60 H 0.51395 0.77255 0.64223 0.0
H61 H 0.39548 0.86342 0.65853 0.0
H62 H 0.3938 0.77408 0.70034 0.0
H63 H 0.55697 0.85148 0.58222 0.0
H64 H 0.52838 0.86938 0.69651 0.0
H65 H 0.56307 0.76963 0.66956 0.0
C66 C 0.77778 0.55632 0.31756 0.0
C67 C 0.78158 0.57777 0.29924 0.0
N68 N 0.8111 0.59729 0.30194 0.0
N69 N 0.80494 0.56203 0.33163 0.0
C70 C 0.82459 0.58729 0.32183 0.0
H71 H 0.75664 0.53766 0.32043 0.0
Co72 Co 0.81125 0.54038 0.35893 0.0
C73 C 0.88575 0.55532 0.37203 0.0
O74 O 0.87651 0.56362 0.39245 0.0
N75 N 0.81704 0.51811 0.38668 0.0
C76 C 0.837 0.48384 0.41411 0.0
C77 C 0.8376 0.48989 0.39151 0.0
C78 C 0.804 0.52836 0.40658 0.0
N79 N 0.81603 0.50833 0.42354 0.0
O80 O 0.80299 0.58538 0.37288 0.0
H81 H 0.85346 0.47561 0.37957 0.0
H82 H 0.78672 0.5507 0.40889 0.0
O83 O 0.86201 0.54849 0.35754 0.0
C84 C 0.76963 0.58925 0.37459 0.0
O85 O 0.74925 0.56244 0.36915 0.0
N86 N 0.81626 0.49693 0.34432 0.0
C87 C 0.81347 0.43776 0.31692 0.0
C88 C 0.8446 0.45749 0.31881 0.0
C89 C 0.84533 0.48732 0.3323 0.0
C90 C 0.78627 0.47699 0.34361 0.0
C91 C 0.7841 0.44738 0.32972 0.0
H92 H 0.86884 0.50328 0.33197 0.0
H93 H 0.76327 0.48536 0.35289 0.0
H94 H 0.84813 0.59837 0.32931 0.0
H95 H 0.76432 0.57821 0.28485 0.0
H96 H 0.85234 0.46423 0.42301 0.0
H97 H 0.86754 0.4513 0.30876 0.0
H98 H 0.75951 0.43288 0.32844 0.0
C99 C 0.59372 0.24422 0.6481 0.0
C100 C 0.61066 0.24302 0.66831 0.0
N101 N 0.61032 0.20936 0.67562 0.0
N102 N 0.58299 0.21144 0.64245 0.0
C103 C 0.59326 0.19078 0.65961 0.0
H104 H 0.58896 0.26777 0.6384 0.0
Co105 Co 0.55745 0.20071 0.61682 0.0
C106 C 0.57049 0.12491 0.60789 0.0
O107 O 0.57849 0.13194 0.58707 0.0
N108 N 0.53113 0.19083 0.59071 0.0
C109 C 0.49358 0.16767 0.56602 0.0
C110 C 0.50472 0.16714 0.58782 0.0
C111 C 0.53513 0.20555 0.57033 0.0
N112 N 0.51281 0.19192 0.55503 0.0
O113 O 0.60075 0.20489 0.60012 0.0
H114 H 0.49461 0.14961 0.60043 0.0
H115 H 0.55472 0.22517 0.56639 0.0
O116 O 0.56503 0.15029 0.62146 0.0
C117 C 0.60682 0.23677 0.59433 0.0
O118 O 0.58144 0.26014 0.59693 0.0
N119 N 0.51616 0.19946 0.63413 0.0
C120 C 0.4664 0.2049 0.66801 0.0
C121 C 0.47598 0.17182 0.65955 0.0
C122 C 0.50124 0.16959 0.64283 0.0
C123 C 0.50512 0.23198 0.64099 0.0
C124 C 0.48059 0.23536 0.65826 0.0
H125 H 0.50946 0.14361 0.63772 0.0
H126 H 0.51735 0.2554 0.63411 0.0
H127 H 0.58735 0.16288 0.66066 0.0
H128 H 0.62228 0.26533 0.67689 0.0
H129 H 0.47298 0.15138 0.55886 0.0
H130 H 0.46579 0.14769 0.66684 0.0
H131 H 0.47375 0.26136 0.66444 0.0
C132 C 0.24215 0.57019 0.67797 0.0
C133 C 0.23921 0.59383 0.69522 0.0
N134 N 0.20888 0.61199 0.69254 0.0
N135 N 0.21368 0.57321 0.66458 0.0
C136 C 0.1939 0.59892 0.67382 0.0
H137 H 0.26407 0.55246 0.67508 0.0
Co138 Co 0.20824 0.55007 0.63769 0.0
C139 C 0.1326 0.55783 0.62564 0.0
O140 O 0.14111 0.56887 0.6056 0.0
N141 N 0.20374 0.52662 0.61054 0.0
C142 C 0.18522 0.49145 0.58325 0.0
C143 C 0.18497 0.49714 0.60589 0.0
C144 C 0.21568 0.53785 0.59061 0.0
N145 N 0.20427 0.51739 0.5737 0.0
O146 O 0.2097 0.59522 0.62288 0.0
H147 H 0.17029 0.48193 0.61799 0.0
H148 H 0.23141 0.56137 0.58834 0.0
O149 O 0.15686 0.55224 0.64003 0.0
C150 C 0.24111 0.60729 0.62214 0.0
O151 O 0.26711 0.58775 0.62981 0.0
N152 N 0.20921 0.50669 0.65284 0.0
C153 C 0.21969 0.44861 0.68049 0.0
C154 C 0.18661 0.46497 0.67922 0.0
C155 C 0.18204 0.49433 0.6656 0.0
C156 C 0.24113 0.48994 0.65295 0.0
C157 C 0.24716 0.46101 0.66699 0.0
H158 H 0.15705 0.50777 0.66642 0.0
H159 H 0.26257 0.50043 0.64306 0.0
H160 H 0.16956 0.60858 0.66654 0.0
H161 H 0.25783 0.59708 0.70877 0.0
H162 H 0.17064 0.47119 0.57441 0.0
H163 H 0.16502 0.45658 0.68982 0.0
H164 H 0.27319 0.44916 0.6678 0.0
C165 C 0.56106 0.78503 0.31464 0.0
C166 C 0.58047 0.79923 0.29768 0.0
N167 N 0.58669 0.83353 0.30237 0.0
N168 N 0.55489 0.81003 0.33005 0.0
C169 C 0.57095 0.83944 0.32229 0.0
H170 H 0.55244 0.75786 0.31596 0.0
Co171 Co 0.53128 0.79712 0.35546 0.0
C172 C 0.50184 0.86011 0.37722 0.0
O173 O 0.47395 0.84028 0.38083 0.0
N174 N 0.50839 0.7813 0.3815 0.0
C175 C 0.47673 0.75416 0.40772 0.0
C176 C 0.48015 0.76013 0.38513 0.0
C177 C 0.52158 0.78751 0.40204 0.0
N178 N 0.50319 0.77118 0.41816 0.0
O179 O 0.57637 0.78979 0.36968 0.0
H180 H 0.46332 0.74899 0.37244 0.0
H181 H 0.54448 0.80393 0.40516 0.0
O182 O 0.5284 0.84715 0.36658 0.0
C183 C 0.58394 0.757 0.37055 0.0
O184 O 0.56054 0.73409 0.36322 0.0
N185 N 0.48857 0.80195 0.33947 0.0
C186 C 0.44084 0.80399 0.30409 0.0
C187 C 0.45395 0.83522 0.3133 0.0
C188 C 0.47842 0.83367 0.33054 0.0
C189 C 0.47514 0.77122 0.33103 0.0
C190 C 0.45086 0.77162 0.31338 0.0
H191 H 0.49172 0.85792 0.33476 0.0
H192 H 0.48579 0.74619 0.33656 0.0
H193 H 0.57116 0.86442 0.33105 0.0
H194 H 0.5901 0.78494 0.28331 0.0
H195 H 0.45711 0.73773 0.41574 0.0
H196 H 0.44787 0.86056 0.30579 0.0
H197 H 0.4423 0.74697 0.30595 0.0
C198 C 0.79331 0.40563 0.6741 0.0
C199 C 0.80081 0.37988 0.68957 0.0
N200 N 0.83434 0.36913 0.68637 0.0
N201 N 0.82213 0.41127 0.66145 0.0
C202 C 0.84659 0.38843 0.66914 0.0
H203 H 0.76882 0.42017 0.67256 0.0
Co204 Co 0.82514 0.4454 0.63964 0.0
C205 C 0.89876 0.44345 0.62297 0.0
O206 O 0.88736 0.44094 0.60233 0.0
N207 N 0.82754 0.4805 0.61748 0.0
C208 C 0.8428 0.52901 0.59879 0.0
C209 C 0.84581 0.51119 0.61865 0.0
C210 C 0.81377 0.48035 0.59669 0.0
N211 N 0.8228 0.50938 0.58501 0.0
O212 O 0.82012 0.40858 0.61783 0.0
H213 H 0.8615 0.51959 0.63277 0.0
H214 H 0.79807 0.45914 0.58987 0.0
O215 O 0.87666 0.44247 0.63899 0.0
C216 C 0.78739 0.40275 0.61437 0.0
O217 O 0.76418 0.42437 0.62327 0.0
N218 N 0.82748 0.47997 0.66188 0.0
C219 C 0.82728 0.53159 0.69506 0.0
C220 C 0.85532 0.50748 0.69326 0.0
C221 C 0.85458 0.48152 0.67687 0.0
C222 C 0.79943 0.50233 0.66365 0.0
C223 C 0.7988 0.52846 0.68011 0.0
H224 H 0.87579 0.46253 0.67647 0.0
H225 H 0.77752 0.4999 0.65214 0.0
H226 H 0.87344 0.38721 0.66303 0.0
H227 H 0.78335 0.37049 0.70255 0.0
H228 H 0.85573 0.55357 0.59446 0.0
H229 H 0.87809 0.5088 0.70417 0.0
H230 H 0.77618 0.54588 0.68113 0.0
C231 C 0.3386 0.17564 0.32873 0.0
C232 C 0.31321 0.15549 0.31852 0.0
N233 N 0.32359 0.12151 0.31926 0.0
N234 N 0.36481 0.15454 0.3361 0.0
C235 C 0.35499 0.12158 0.33004 0.0
H236 H 0.33859 0.20412 0.32992 0.0
Co237 Co 0.40442 0.1725 0.35022 0.0
C238 C 0.44735 0.11187 0.36534 0.0
O239 O 0.47526 0.1296 0.35869 0.0
N240 N 0.44372 0.19235 0.36506 0.0
C241 C 0.4892 0.22486 0.37677 0.0
C242 C 0.46885 0.21561 0.35863 0.0
C243 C 0.44931 0.18828 0.38716 0.0
N244 N 0.47678 0.20754 0.3947 0.0
O245 O 0.37523 0.18447 0.37528 0.0
H246 H 0.47189 0.22646 0.34215 0.0
H247 H 0.43252 0.17233 0.39771 0.0
O248 O 0.41635 0.12542 0.36314 0.0
C249 C 0.36745 0.21718 0.37403 0.0
O250 O 0.3814 0.23617 0.35798 0.0
N251 N 0.43076 0.16363 0.3242 0.0
C252 C 0.46942 0.15858 0.28501 0.0
C253 C 0.46014 0.12813 0.29682 0.0
C254 C 0.4397 0.13112 0.316 0.0
C255 C 0.43631 0.19301 0.31155 0.0
C256 C 0.45617 0.19125 0.292 0.0
H257 H 0.43134 0.10713 0.32407 0.0
H258 H 0.42583 0.21818 0.31696 0.0
H259 H 0.37086 0.09823 0.33285 0.0
H260 H 0.29007 0.16533 0.30989 0.0
H261 H 0.51102 0.24335 0.3768 0.0
H262 H 0.46851 0.10223 0.29122 0.0
H263 H 0.46193 0.21523 0.28285 0.0
C264 C 0.72958 0.9554 0.81398 0.0
C265 C 0.72475 0.9324 0.79656 0.0
N266 N 0.69535 0.91347 0.80058 0.0
N267 N 0.7031 0.9513 0.82873 0.0
C268 C 0.68276 0.92526 0.82024 0.0
H269 H 0.75064 0.97455 0.81564 0.0
Co270 Co 0.69996 0.97887 0.85408 0.0
C271 C 0.62608 0.94946 0.8634 0.0
O272 O 0.63519 0.91782 0.87034 0.0
N273 N 0.69791 0.00704 0.8796 0.0
C274 C 0.68332 0.04919 0.90373 0.0
C275 C 0.67552 0.03418 0.88345 0.0
C276 C 0.71882 0.00592 0.89784 0.0
N277 N 0.7105 0.03124 0.9127 0.0
O278 O 0.71156 0.93774 0.87151 0.0
H279 H 0.65502 0.0428 0.87214 0.0
H280 H 0.74002 0.98722 0.90029 0.0
O281 O 0.64961 0.97134 0.85722 0.0
C282 C 0.74497 0.93337 0.87193 0.0
O283 O 0.76505 0.958 0.86309 0.0
N284 N 0.69053 0.01819 0.83602 0.0
C285 C 0.68159 0.07302 0.80567 0.0
C286 C 0.65757 0.04496 0.80642 0.0
C287 C 0.66261 0.01771 0.82156 0.0
C288 C 0.71409 0.04547 0.83578 0.0
C289 C 0.70985 0.07357 0.82083 0.0
H290 H 0.64473 0.99551 0.82089 0.0
H291 H 0.73662 0.04502 0.8469 0.0
H292 H 0.65855 0.91603 0.82775 0.0
H293 H 0.74121 0.93013 0.78189 0.0
H294 H 0.66958 0.07102 0.91152 0.0
H295 H 0.63533 0.0437 0.79503 0.0
H296 H 0.72909 0.09475 0.82056 0.0
C297 C 0.93905 0.28319 0.17296 0.0
C298 C 0.91747 0.28338 0.19133 0.0
N299 N 0.89733 0.31266 0.19043 0.0
N300 N 0.93288 0.31249 0.16081 0.0
C301 C 0.90701 0.32982 0.1717 0.0
H302 H 0.95864 0.2634 0.16891 0.0
Co303 Co 0.95743 0.32337 0.13519 0.0
C304 C 0.94288 0.39832 0.12469 0.0
O305 O 0.934 0.38992 0.10419 0.0
N306 N 0.98273 0.33328 0.10907 0.0
C307 C 0.01893 0.35754 0.08417 0.0
C308 C 0.01005 0.35594 0.10638 0.0
C309 C 0.97592 0.3212 0.08836 0.0
N310 N 0.99711 0.33584 0.07291 0.0
O311 O 0.91422 0.31695 0.11873 0.0
H312 H 0.02174 0.37154 0.11958 0.0
H313 H 0.95522 0.30264 0.08439 0.0
O314 O 0.94877 0.37386 0.13886 0.0
C315 C 0.9091 0.2843 0.11462 0.0
O316 O 0.93443 0.26181 0.11955 0.0
N317 N 0.99883 0.3275 0.15223 0.0
C318 C 0.05638 0.3267 0.1812 0.0
C319 C 0.0288 0.35087 0.18414 0.0
C320 C 1.00016 0.35059 0.16969 0.0
C321 C 0.02565 0.30407 0.14877 0.0
C322 C 0.05504 0.30345 0.163 0.0
H323 H 0.9783 0.3679 0.17335 0.0
H324 H 0.02376 0.2852 0.13527 0.0
H325 H 0.89648 0.35512 0.16651 0.0
H326 H 0.917 0.26389 0.20453 0.0
H327 H 0.03854 0.3747 0.07675 0.0
H328 H 0.02893 0.36951 0.19785 0.0
H329 H 0.07579 0.28422 0.16029 0.0
C330 C 0.2885 0.09922 0.81108 0.0
C331 C 0.29798 0.12073 0.79375 0.0
N332 N 0.33255 0.1283 0.7959 0.0
N333 N 0.31691 0.09305 0.82409 0.0
C334 C 0.34349 0.11134 0.81449 0.0
H335 H 0.2626 0.08797 0.81381 0.0
Co336 Co 0.31314 0.063 0.8483 0.0
C337 C 0.39376 0.06834 0.85582 0.0
O338 O 0.39595 0.10136 0.86242 0.0
N339 N 0.30817 0.03235 0.87248 0.0
C340 C 0.31133 0.98415 0.89357 0.0
C341 C 0.32089 0.99903 0.87366 0.0
C342 C 0.29112 0.03717 0.89201 0.0
N343 N 0.29264 0.00819 0.90508 0.0
O344 O 0.3149 0.10331 0.86785 0.0
H345 H 0.33593 0.98607 0.86077 0.0
H346 H 0.27758 0.06124 0.89658 0.0
O347 O 0.36387 0.05523 0.85052 0.0
C348 C 0.28447 0.11774 0.86852 0.0
O349 O 0.25803 0.10232 0.85818 0.0
N350 N 0.30912 0.02505 0.8285 0.0
C351 C 0.29863 0.97156 0.79757 0.0
C352 C 0.33146 0.98825 0.79935 0.0
C353 C 0.33604 0.0154 0.81466 0.0
C354 C 0.27678 0.00929 0.82686 0.0
C355 C 0.27085 0.98236 0.81132 0.0
H356 H 0.36102 0.02914 0.81486 0.0
H357 H 0.25545 0.01806 0.83748 0.0
H358 H 0.3705 0.11116 0.82036 0.0
H359 H 0.28094 0.12971 0.78039 0.0
H360 H 0.31827 0.95795 0.89935 0.0
H361 H 0.35314 0.981 0.7885 0.0
H362 H 0.24502 0.9702 0.81002 0.0
C363 C 0.08779 0.73852 0.1759 0.0
C364 C 0.11289 0.73451 0.19233 0.0
N365 N 0.12928 0.70337 0.18908 0.0
N366 N 0.08805 0.7097 0.16272 0.0
C367 C 0.11392 0.68894 0.17095 0.0
H368 H 0.06951 0.76032 0.17416 0.0
Co369 Co 0.05661 0.70144 0.13975 0.0
C370 C 0.06613 0.6272 0.12628 0.0
O371 O 0.07238 0.63729 0.10572 0.0
N372 N 0.02422 0.69319 0.11635 0.0
C373 C 0.98041 0.6686 0.09701 0.0
C374 C 0.99517 0.67248 0.11772 0.0
C375 C 0.02635 0.70165 0.0945 0.0
N376 N 1.00024 0.6867 0.08234 0.0
O377 O 0.09521 0.70725 0.11944 0.0
H378 H 0.9862 0.65924 0.13264 0.0
H379 H 0.04791 0.71639 0.08729 0.0
O380 O 0.06353 0.6504 0.14163 0.0
C381 C 0.09867 0.73994 0.11478 0.0
O382 O 0.07332 0.76169 0.12076 0.0
N383 N 0.02007 0.69859 0.16064 0.0
C384 C 0.9659 0.69728 0.19198 0.0
C385 C 0.99345 0.67251 0.1928 0.0
C386 C 0.02049 0.67394 0.17723 0.0
C387 C 0.99421 0.72365 0.15986 0.0
C388 C 0.96656 0.72328 0.17529 0.0
H389 H 0.04197 0.65536 0.17875 0.0
H390 H 0.99495 0.7438 0.14708 0.0
H391 H 0.12004 0.66289 0.1646 0.0
H392 H 0.11788 0.75243 0.20604 0.0
H393 H 0.95754 0.65264 0.093 0.0
H394 H 0.99401 0.65176 0.20522 0.0
H395 H 0.94611 0.74322 0.17426 0.0
C396 C 0.71147 0.09076 0.17031 0.0
C397 C 0.69188 0.10791 0.18627 0.0
N398 N 0.65793 0.10761 0.17967 0.0
N399 N 0.68976 0.0791 0.15399 0.0
C400 C 0.6573 0.09021 0.16012 0.0
H401 H 0.73973 0.08675 0.17075 0.0
Co402 Co 0.70306 0.05296 0.12902 0.0
C403 C 0.63123 0.05664 0.10661 0.0
O404 O 0.64108 0.08043 0.09195 0.0
N405 N 0.71647 0.02685 0.10367 0.0
C406 C 0.71413 0.99054 0.07453 0.0
C407 C 0.70152 0.99708 0.09554 0.0
C408 C 0.73868 0.0373 0.08731 0.0
N409 N 0.73714 0.01626 0.06918 0.0
O410 O 0.70555 0.09646 0.11242 0.0
H411 H 0.6804 0.98253 0.10323 0.0
H412 H 0.75413 0.06118 0.08793 0.0
O413 O 0.65331 0.04545 0.12113 0.0
C414 C 0.73603 0.10978 0.11586 0.0
O415 O 0.75899 0.09162 0.12767 0.0
N416 N 0.70358 0.01182 0.14679 0.0
C417 C 0.69933 0.96671 0.1834 0.0
C418 C 0.6737 0.96569 0.16653 0.0
C419 C 0.67647 0.98827 0.14834 0.0
C420 C 0.731 0.01012 0.16154 0.0
C421 C 0.72918 0.98813 0.18026 0.0
H422 H 0.65592 0.98752 0.13615 0.0
H423 H 0.75313 0.02794 0.15973 0.0
H424 H 0.63333 0.08497 0.15088 0.0
H425 H 0.70173 0.11965 0.20152 0.0
H426 H 0.70422 0.97049 0.06327 0.0
H427 H 0.65028 0.94942 0.16798 0.0
H428 H 0.7501 0.98904 0.19258 0.0
C429 C 0.11224 0.28441 0.82509 0.0
C430 C 0.13679 0.28543 0.80827 0.0
N431 N 0.15085 0.31807 0.80781 0.0
N432 N 0.11042 0.31647 0.83481 0.0
C433 C 0.13456 0.33641 0.8241 0.0
H434 H 0.09575 0.26214 0.82949 0.0
Co435 Co 0.07834 0.3271 0.85695 0.0
C436 C 0.08576 0.40288 0.86596 0.0
O437 O 0.09604 0.39481 0.88625 0.0
N438 N 0.04542 0.33716 0.8794 0.0
C439 C 0.99796 0.35862 0.89654 0.0
C440 C 0.01614 0.35729 0.87682 0.0
C441 C 0.04461 0.32693 0.90095 0.0
N442 N 0.016 0.33958 0.91165 0.0
O443 O 0.11707 0.32723 0.87763 0.0
H444 H 0.00857 0.37048 0.86156 0.0
H445 H 0.06432 0.31041 0.90878 0.0
O446 O 0.08173 0.37818 0.85164 0.0
C447 C 0.12318 0.29614 0.88485 0.0
O448 O 0.10002 0.27119 0.88052 0.0
N449 N 0.04195 0.32376 0.83599 0.0
C450 C 0.99286 0.31037 0.80269 0.0
C451 C 0.01778 0.3373 0.80013 0.0
C452 C 0.04219 0.34363 0.817 0.0
C453 C 0.01782 0.29734 0.83876 0.0
C454 C 0.99249 0.29049 0.82233 0.0
H455 H 0.06227 0.36344 0.81431 0.0
H456 H 0.01876 0.28108 0.85358 0.0
H457 H 0.13879 0.36423 0.82734 0.0
H458 H 0.14308 0.26427 0.79681 0.0
H459 H 0.97377 0.37304 0.89969 0.0
H460 H 0.01873 0.35291 0.785 0.0
H461 H 0.97357 0.26933 0.82462 0.0
C462 C 0.38572 0.96408 0.14928 0.0
C463 C 0.39862 0.94226 0.16567 0.0
N464 N 0.37632 0.91473 0.16786 0.0
N465 N 0.35565 0.9502 0.14105 0.0
C466 C 0.3505 0.92012 0.15271 0.0
H467 H 0.39699 0.98898 0.14402 0.0
Co468 Co 0.32854 0.97275 0.11983 0.0
C469 C 0.38383 0.99003 0.09251 0.0
O470 O 0.37119 0.0219 0.0959 0.0
N471 N 0.30207 0.99666 0.098 0.0
C472 C 0.27184 0.03562 0.07767 0.0
C473 C 0.28584 0.02851 0.09841 0.0
C474 C 0.29793 0.9853 0.07684 0.0
N475 N 0.27925 0.00812 0.06431 0.0
O476 O 0.30419 0.92771 0.11234 0.0
H477 H 0.28455 0.04597 0.11259 0.0
H478 H 0.30885 0.96075 0.07064 0.0
O479 O 0.36532 0.96346 0.09856 0.0
C480 C 0.27165 0.92331 0.10693 0.0
O481 O 0.25017 0.9506 0.10689 0.0
N482 N 0.29621 0.98415 0.14229 0.0
C483 C 0.27549 1.0024 0.18516 0.0
C484 C 0.2949 0.02606 0.17216 0.0
C485 C 0.30526 0.01623 0.15084 0.0
C486 C 0.27577 0.96131 0.15443 0.0
C487 C 0.26464 0.97029 0.17591 0.0
H488 H 0.32372 0.03281 0.14191 0.0
H489 H 0.27105 0.93465 0.14895 0.0
H490 H 0.32794 0.9029 0.15052 0.0
H491 H 0.42173 0.94712 0.17588 0.0
H492 H 0.25735 0.05905 0.07279 0.0
H493 H 0.30439 0.05075 0.17909 0.0
H494 H 0.25058 0.95105 0.18589 0.0
C495 C 0.94853 0.74172 0.81666 0.0
C496 C 0.92666 0.73256 0.79937 0.0
N497 N 0.91417 0.69976 0.80321 0.0
N498 N 0.9501 0.7148 0.83127 0.0
C499 C 0.92885 0.68955 0.82274 0.0
H500 H 0.96245 0.76651 0.81859 0.0
Co501 Co 0.97525 0.71832 0.85741 0.0
C502 C 0.99843 0.64666 0.87056 0.0
O503 O 0.02795 0.66192 0.87694 0.0
N504 N 0.9999 0.72402 0.88455 0.0
C505 C 0.03464 0.73976 0.91287 0.0
C506 C 0.02896 0.74277 0.89029 0.0
C507 C 0.98819 0.71055 0.90403 0.0
N508 N 0.00898 0.71929 0.92142 0.0
O509 O 0.93138 0.72634 0.87279 0.0
H510 H 0.04514 0.75812 0.87918 0.0
H511 H 0.96451 0.69467 0.9054 0.0
O512 O 0.97325 0.66573 0.86246 0.0
C513 C 0.92726 0.75948 0.87572 0.0
O514 O 0.95331 0.78063 0.87007 0.0
N515 N 0.0171 0.71353 0.8406 0.0
C516 C 0.06975 0.71336 0.80811 0.0
C517 C 0.0496 0.6831 0.81219 0.0
C518 C 0.02289 0.68403 0.82795 0.0
C519 C 0.03594 0.74359 0.83642 0.0
C520 C 0.06314 0.74386 0.82062 0.0
H521 H 1.00532 0.66167 0.82852 0.0
H522 H 0.02833 0.76814 0.84426 0.0
H523 H 0.92381 0.66452 0.83085 0.0
H524 H 0.92095 0.74863 0.78489 0.0
H525 H 0.05615 0.75149 0.92221 0.0
H526 H 0.05337 0.65922 0.80251 0.0
H527 H 0.07736 0.76813 0.81731 0.0
H528 H 0.93793 0.53701 0.40175 0.0
H529 H 0.91699 0.54907 0.33105 0.0
H530 H 0.97531 0.52294 0.32254 0.0
H531 H 0.03291 0.55635 0.39937 0.0
H532 H 0.04341 0.5241 0.42046 0.0
H533 H 1.00113 0.54594 0.42073 0.0
H534 H 0.97002 0.48493 0.4203 0.0
H535 H 0.01218 0.46292 0.41961 0.0
H536 H 0.97976 0.45404 0.39829 0.0
H537 H 0.03506 0.49233 0.3218 0.0
H538 H 0.09293 0.46419 0.32898 0.0
H539 H 0.07433 0.47192 0.40016 0.0
C540 C 0.94591 0.53496 0.38448 0.0
C541 C 0.92285 0.54521 0.36706 0.0
C542 C 0.93415 0.54137 0.34468 0.0
C543 C 0.96721 0.52647 0.33968 0.0
C544 C 0.9888 0.51554 0.35724 0.0
C545 C 0.97876 0.51999 0.3792 0.0
C546 C 0.00641 0.50525 0.39498 0.0
C547 C 0.02188 0.53466 0.40975 0.0
C548 C 0.99117 0.47499 0.40912 0.0
C549 C 0.0335 0.49166 0.3785 0.0
C550 C 0.02289 0.4978 0.35681 0.0
C551 C 0.04368 0.4876 0.33875 0.0
C552 C 0.07654 0.47155 0.34299 0.0
C553 C 0.08837 0.46581 0.36512 0.0
C554 C 0.06609 0.47556 0.38302 0.0
H555 H 0.54919 0.07142 0.57995 0.0
H556 H 0.56103 0.09802 0.6499 0.0
H557 H 0.53056 0.0426 0.6602 0.0
H558 H 0.46318 0.03644 0.584 0.0
H559 H 0.46988 1.00156 0.56399 0.0
H560 H 0.49511 0.04179 0.56201 0.0
H561 H 0.55354 0.00614 0.5634 0.0
H562 H 0.52849 0.96574 0.56493 0.0
H563 H 0.56107 0.97562 0.58598 0.0
H564 H 0.49587 0.98532 0.66277 0.0
H565 H 0.46392 0.92899 0.65745 0.0
H566 H 0.47395 0.94046 0.58579 0.0
C567 C 0.54623 0.06521 0.59746 0.0
C568 C 0.55783 0.08903 0.61412 0.0
C569 C 0.5526 0.08014 0.63683 0.0
C570 C 0.53515 0.04878 0.64284 0.0
C571 C 0.523 0.02648 0.62598 0.0
C572 C 0.52866 0.03412 0.60375 0.0
C573 C 0.5121 0.00628 0.58883 0.0
C574 C 0.48337 0.0225 0.57382 0.0
C575 C 0.54049 0.98732 0.57497 0.0
C576 C 0.49615 0.98181 0.60611 0.0
C577 C 0.5027 0.99391 0.62744 0.0
C578 C 0.49076 0.97556 0.64613 0.0
C579 C 0.47251 0.94358 0.64293 0.0
C580 C 0.46628 0.93016 0.62122 0.0
C581 C 0.47783 0.95004 0.60262 0.0
H582 H 0.94715 0.46995 0.59307 0.0
H583 H 0.93306 0.44622 0.66325 0.0
H584 H 0.98987 0.47534 0.67172 0.0
H585 H 0.04287 0.45599 0.59214 0.0
H586 H 0.05026 0.49144 0.57264 0.0
H587 H 0.00912 0.46752 0.57218 0.0
H588 H 0.97512 0.52652 0.57665 0.0
H589 H 0.01618 0.55055 0.57753 0.0
H590 H 0.98494 0.55486 0.6 0.0
H591 H 0.04696 0.50986 0.67283 0.0
H592 H 0.10297 0.54153 0.66602 0.0
H593 H 0.08071 0.54171 0.59504 0.0
C594 C 0.95626 0.47026 0.61018 0.0
C595 C 0.93537 0.45589 0.62751 0.0
C596 C 0.94828 0.45728 0.64969 0.0
C597 C 0.98057 0.47382 0.65468 0.0
C598 C 0.99989 0.48873 0.63731 0.0
C599 C 0.9885 0.48663 0.61546 0.0
C600 C 0.01427 0.50487 0.5999 0.0
C601 C 0.03007 0.47837 0.58323 0.0
C602 C 0.99656 0.53605 0.58781 0.0
C603 C 0.04186 0.51766 0.61641 0.0
C604 C 0.03296 0.50822 0.63792 0.0
C605 C 0.05433 0.5171 0.65602 0.0
C606 C 0.08612 0.53513 0.65198 0.0
C607 C 0.09649 0.54396 0.62999 0.0
C608 C 0.07354 0.53565 0.61207 0.0
H609 H 0.52916 0.91782 0.35447 0.0
H610 H 0.46376 0.88821 0.41073 0.0
H611 H 0.444 0.94982 0.41471 0.0
H612 H 0.55385 0.00767 0.37659 0.0
H613 H 0.55228 0.02719 0.34921 0.0
H614 H 0.56464 0.98148 0.35244 0.0
H615 H 0.51508 0.96362 0.32485 0.0
H616 H 0.50209 0.00913 0.32187 0.0
H617 H 0.47014 0.97659 0.3305 0.0
H618 H 0.42383 0.01226 0.40904 0.0
H619 H 0.4125 0.07433 0.39765 0.0
H620 H 0.49312 0.065 0.34678 0.0
C621 C 0.51183 0.92465 0.36814 0.0
C622 C 0.49811 0.89823 0.38234 0.0
C623 C 0.47464 0.90804 0.39966 0.0
C624 C 0.46312 0.94297 0.40204 0.0
C625 C 0.47561 0.96813 0.38714 0.0
C626 C 0.50012 0.95972 0.37086 0.0
C627 C 0.50808 0.99173 0.3565 0.0
C628 C 0.54703 1.00267 0.35883 0.0
C629 C 0.49825 0.98484 0.33198 0.0
C630 C 0.48366 0.01892 0.36693 0.0
C631 C 0.46494 1.00471 0.38448 0.0
C632 C 0.4389 0.02399 0.39564 0.0
C633 C 0.43239 0.05904 0.38899 0.0
C634 C 0.45222 0.07444 0.37162 0.0
C635 C 0.47805 0.05401 0.36046 0.0
H636 H 0.59945 0.01688 0.86241 0.0
H637 H 0.56729 0.90685 0.86173 0.0
H638 H 0.50474 0.92552 0.85865 0.0
H639 H 0.52753 0.0477 0.89655 0.0
H640 H 0.52366 0.08938 0.88221 0.0
H641 H 0.56574 0.06722 0.88354 0.0
H642 H 0.56991 0.06869 0.84048 0.0
H643 H 0.52779 0.09077 0.839 0.0
H644 H 0.53463 0.05005 0.82403 0.0
H645 H 0.44603 0.95639 0.85405 0.0
H646 H 0.39496 0.99634 0.85224 0.0
H647 H 0.46464 0.08683 0.85899 0.0
C648 C 0.57931 0.99665 0.86164 0.0
C649 C 0.58836 0.96031 0.86224 0.0
C650 C 0.56106 0.93477 0.86135 0.0
C651 C 0.52548 0.94516 0.8595 0.0
C652 C 0.51756 0.98121 0.8589 0.0
C653 C 0.54369 0.00656 0.86024 0.0
C654 C 0.52808 0.04356 0.8601 0.0
C655 C 0.53677 0.06311 0.8819 0.0
C656 C 0.54086 0.0645 0.83969 0.0
C657 C 0.48895 0.03512 0.85842 0.0
C658 C 0.4836 0.99899 0.85743 0.0
C659 C 0.44993 0.98467 0.85511 0.0
C660 C 0.42097 0.00773 0.85411 0.0
C661 C 0.42546 0.04488 0.85582 0.0
C662 C 0.46012 0.05863 0.85789 0.0
H663 H 0.96299 0.44966 0.09487 0.0
H664 H 0.9555 0.42777 0.16568 0.0
H665 H 0.98801 0.48292 0.1738 0.0
H666 H 0.04976 0.48281 0.09566 0.0
H667 H 0.04234 0.51676 0.0751 0.0
H668 H 0.01602 0.47711 0.07472 0.0
H669 H 0.95865 0.51433 0.07695 0.0
H670 H 0.98477 0.55413 0.07688 0.0
H671 H 0.95366 0.54626 0.09902 0.0
H672 H 0.02413 0.53923 0.1741 0.0
H673 H 0.05673 0.59455 0.16666 0.0
H674 H 0.04133 0.57918 0.09563 0.0
C675 C 0.96733 0.45687 0.11212 0.0
C676 C 0.95648 0.43434 0.12965 0.0
C677 C 0.9635 0.44452 0.15196 0.0
C678 C 0.98206 0.47578 0.15674 0.0
C679 C 0.99347 0.49671 0.13903 0.0
C680 C 0.98598 0.48791 0.11718 0.0
C681 C 1.00203 0.51448 0.10119 0.0
C682 C 0.02914 0.49672 0.08576 0.0
C683 C 0.97305 0.53342 0.08772 0.0
C684 C 0.01989 0.53946 0.11744 0.0
C685 C 0.01463 0.52877 0.1392 0.0
C686 C 0.0283 0.54788 0.15712 0.0
C687 C 0.04692 0.57924 0.15272 0.0
C688 C 0.05184 0.59124 0.13057 0.0
C689 C 0.0386 0.57057 0.11275 0.0
H690 H 0.42873 0.03388 0.06971 0.0
H691 H 0.42648 0.94003 0.1112 0.0
H692 H 0.49036 0.94616 0.11807 0.0
H693 H 0.5205 0.01433 0.04565 0.0
H694 H 0.53107 0.06075 0.04459 0.0
H695 H 0.4861 0.04631 0.04058 0.0
H696 H 0.46636 0.08789 0.07244 0.0
H697 H 0.51127 0.10171 0.07704 0.0
H698 H 0.48606 0.08324 0.09967 0.0
H699 H 0.54805 0.97259 0.12895 0.0
H700 H 0.60319 1.00513 0.13362 0.0
H701 H 0.57492 0.07443 0.07894 0.0
C702 C 0.44206 0.01373 0.0794 0.0
C703 C 0.42258 0.98661 0.09006 0.0
C704 C 0.44077 0.96094 0.10283 0.0
C705 C 0.47706 0.96437 0.10696 0.0
C706 C 0.49504 0.99269 0.09739 0.0
C707 C 0.47866 0.01594 0.08298 0.0
C708 C 0.50434 0.0443 0.07518 0.0
C709 C 0.5109 0.04123 0.05 0.0
C710 C 0.4912 0.08147 0.08146 0.0
C711 C 0.5371 0.03436 0.08842 0.0
C712 C 0.53072 1.0049 0.10141 0.0
C713 C 0.55441 0.99404 0.11773 0.0
C714 C 0.5862 0.01253 0.12005 0.0
C715 C 0.59529 0.04048 0.10542 0.0
C716 C 0.56979 0.05203 0.08968 0.0
H717 H 0.03369 0.60097 0.89721 0.0
H718 H 0.96771 0.60467 0.83817 0.0
H719 H 0.98296 0.54213 0.83007 0.0
H720 H 0.10237 0.55278 0.87462 0.0
H721 H 0.11166 0.52707 0.89923 0.0
H722 H 0.09222 0.57026 0.90181 0.0
H723 H 0.03962 0.54427 0.92399 0.0
H724 H 0.05938 0.50108 0.92204 0.0
H725 H 0.01476 0.50798 0.91242 0.0
H726 H 0.01178 0.48051 0.82657 0.0
H727 H 0.04414 0.42407 0.8306 0.0
H728 H 0.0908 0.46203 0.89221 0.0
C729 C 0.02158 0.58831 0.88292 0.0
C730 C 0.99929 0.6076 0.8684 0.0
C731 C 0.98432 0.59025 0.84973 0.0
C732 C 0.99321 0.55484 0.84489 0.0
C733 C 0.01672 0.53714 0.85905 0.0
C734 C 0.03 0.55319 0.87797 0.0
C735 C 0.05557 0.52924 0.89023 0.0
C736 C 0.09264 0.54584 0.89154 0.0
C737 C 0.04148 0.52009 0.91355 0.0
C738 C 0.05529 0.49727 0.87509 0.0
C739 C 0.03285 0.50221 0.85714 0.0
C740 C 0.02911 0.47638 0.8407 0.0
C741 C 0.04793 0.44446 0.84303 0.0
C742 C 0.07022 0.43846 0.8617 0.0
C743 C 0.07411 0.46562 0.87771 0.0
H744 H 0.2173 0.35182 0.36828 0.0
H745 H 0.26833 0.40168 0.42457 0.0
H746 H 0.29801 0.34544 0.43389 0.0
H747 H 0.21482 0.25585 0.39137 0.0
H748 H 0.22583 0.23902 0.36416 0.0
H749 H 0.19895 0.27816 0.36677 0.0
H750 H 0.24282 0.31245 0.34175 0.0
H751 H 0.26977 0.27378 0.33916 0.0
H752 H 0.28883 0.31425 0.34954 0.0
H753 H 0.33351 0.29072 0.43123 0.0
H754 H 0.37295 0.24474 0.41572 0.0
H755 H 0.30122 0.2303 0.36036 0.0
C756 C 0.23292 0.35003 0.38338 0.0
C757 C 0.23972 0.38048 0.3962 0.0
C758 C 0.26213 0.37821 0.41499 0.0
C759 C 0.27905 0.34633 0.42038 0.0
C760 C 0.27355 0.31706 0.40664 0.0
C761 C 0.25075 0.31859 0.38855 0.0
C762 C 0.25512 0.28654 0.37367 0.0
C763 C 0.22168 0.26352 0.37403 0.0
C764 C 0.26473 0.29743 0.34964 0.0
C765 C 0.28558 0.2681 0.38527 0.0
C766 C 0.29503 0.28536 0.40472 0.0
C767 C 0.32559 0.27619 0.41651 0.0
C768 C 0.34778 0.2499 0.40772 0.0
C769 C 0.3393 0.23335 0.38734 0.0
C770 C 0.30728 0.24161 0.3765 0.0
H771 H 0.25771 0.66184 0.64867 0.0
H772 H 0.24703 0.63154 0.57958 0.0
H773 H 0.27933 0.68555 0.56819 0.0
H774 H 0.25708 0.76332 0.63924 0.0
H775 H 0.2896 0.76873 0.66097 0.0
H776 H 0.25693 0.73416 0.663 0.0
H777 H 0.30683 0.68794 0.6677 0.0
H778 H 0.33944 0.72209 0.66555 0.0
H779 H 0.34086 0.68491 0.64679 0.0
H780 H 0.32592 0.73251 0.56542 0.0
H781 H 0.37981 0.76853 0.57161 0.0
H782 H 0.35852 0.77012 0.6423 0.0
C783 C 0.26042 0.66789 0.63111 0.0
C784 C 0.24914 0.64344 0.61491 0.0
C785 C 0.25453 0.65076 0.5921 0.0
C786 C 0.27296 0.68131 0.58555 0.0
C787 C 0.28537 0.70431 0.60204 0.0
C788 C 0.2786 0.69828 0.6244 0.0
C789 C 0.2992 0.7235 0.6391 0.0
C790 C 0.2742 0.74894 0.65129 0.0
C791 C 0.32299 0.7034 0.65573 0.0
C792 C 0.32072 0.74281 0.62171 0.0
C793 C 0.31188 0.73207 0.60036 0.0
C794 C 0.33206 0.74223 0.58193 0.0
C795 C 0.36254 0.76281 0.58552 0.0
C796 C 0.37227 0.773 0.60731 0.0
C797 C 0.35049 0.76389 0.62541 0.0
H798 H 0.59633 0.69556 0.39177 0.0
H799 H 0.64945 0.78753 0.36511 0.0
H800 H 0.70729 0.75752 0.37011 0.0
H801 H 0.66888 0.66775 0.43207 0.0
H802 H 0.65975 0.62183 0.4265 0.0
H803 H 0.62445 0.65381 0.42569 0.0
H804 H 0.60873 0.63381 0.38555 0.0
H805 H 0.64393 0.60213 0.38616 0.0
H806 H 0.64239 0.63483 0.36434 0.0
H807 H 0.75761 0.712 0.37096 0.0
H808 H 0.79361 0.65732 0.36791 0.0
H809 H 0.70643 0.59662 0.39457 0.0
C810 C 0.62028 0.70988 0.38778 0.0
C811 C 0.61862 0.74382 0.3782 0.0
C812 C 0.65032 0.76169 0.37284 0.0
C813 C 0.68323 0.74476 0.37559 0.0
C814 C 0.68384 0.71038 0.38416 0.0
C815 C 0.65304 0.69352 0.39058 0.0
C816 C 0.65966 0.65541 0.39682 0.0
C817 C 0.65278 0.64936 0.42176 0.0
C818 C 0.63739 0.6301 0.38234 0.0
C819 C 0.69855 0.65257 0.39155 0.0
C820 C 0.71248 0.68459 0.38475 0.0
C821 C 0.74715 0.68707 0.37682 0.0
C822 C 0.7675 0.65595 0.37521 0.0
C823 C 0.75279 0.6229 0.38115 0.0
C824 C 0.71844 0.62163 0.39013 0.0
H825 H 0.73107 0.39844 0.58703 0.0
H826 H 0.81215 0.33494 0.61836 0.0
H827 H 0.77863 0.28063 0.60888 0.0
H828 H 0.66252 0.3572 0.60799 0.0
H829 H 0.63368 0.35976 0.5841 0.0
H830 H 0.66819 0.39171 0.58758 0.0
H831 H 0.69343 0.3759 0.54873 0.0
H832 H 0.65855 0.34395 0.54497 0.0
H833 H 0.70406 0.33061 0.54228 0.0
H834 H 0.72913 0.23566 0.60433 0.0
H835 H 0.67095 0.20561 0.60411 0.0
H836 H 0.62355 0.29869 0.57455 0.0
C837 C 0.74256 0.37293 0.59087 0.0
C838 C 0.77429 0.37066 0.6031 0.0
C839 C 0.78826 0.33707 0.60848 0.0
C840 C 0.76926 0.30613 0.60324 0.0
C841 C 0.73684 0.30936 0.59219 0.0
C842 C 0.7241 0.34204 0.58559 0.0
C843 C 0.68677 0.33942 0.5767 0.0
C844 C 0.66133 0.36341 0.5899 0.0
C845 C 0.68565 0.34797 0.55168 0.0
C846 C 0.67935 0.30072 0.58084 0.0
C847 C 0.70867 0.28345 0.58931 0.0
C848 C 0.7064 0.24865 0.59705 0.0
C849 C 0.67325 0.23168 0.59681 0.0
C850 C 0.64281 0.24973 0.58913 0.0
C851 C 0.64645 0.28404 0.58022 0.0
H852 H 0.91727 0.82507 0.89234 0.0
H853 H 0.86017 0.73083 0.87272 0.0
H854 H 0.8036 0.76352 0.87635 0.0
H855 H 0.84852 0.86254 0.93108 0.0
H856 H 0.85847 0.90682 0.92198 0.0
H857 H 0.89282 0.87382 0.9227 0.0
H858 H 0.90623 0.88573 0.88102 0.0
H859 H 0.872 0.91848 0.88014 0.0
H860 H 0.87107 0.882 0.86083 0.0
H861 H 0.75427 0.8104 0.87584 0.0
H862 H 0.71917 0.86525 0.87054 0.0
H863 H 0.81006 0.92763 0.88996 0.0
C864 C 0.8928 0.81089 0.88953 0.0
C865 C 0.89308 0.77537 0.88239 0.0
C866 C 0.86054 0.7579 0.87856 0.0
C867 C 0.82829 0.77635 0.88054 0.0
C868 C 0.82912 0.81201 0.88669 0.0
C869 C 0.86072 0.82884 0.8914 0.0
C870 C 0.85558 0.86805 0.89497 0.0
C871 C 0.86436 0.8784 0.91912 0.0
C872 C 0.87749 0.88981 0.87824 0.0
C873 C 0.81644 0.87122 0.89042 0.0
C874 C 0.80123 0.83865 0.88617 0.0
C875 C 0.76583 0.83586 0.87963 0.0
C876 C 0.746 0.8671 0.87676 0.0
C877 C 0.76191 0.90056 0.88003 0.0
C878 C 0.79714 0.90235 0.8876 0.0
H879 H 0.79405 0.11965 0.09124 0.0
H880 H 0.70659 0.17536 0.12124 0.0
H881 H 0.73839 0.23214 0.11613 0.0
H882 H 0.85686 0.15968 0.11828 0.0
H883 H 0.88937 0.16175 0.09641 0.0
H884 H 0.85594 0.12829 0.09567 0.0
H885 H 0.83602 0.149 0.05647 0.0
H886 H 0.87001 0.18242 0.05688 0.0
H887 H 0.82464 0.1947 0.05196 0.0
H888 H 0.78598 0.2796 0.11644 0.0
H889 H 0.84259 0.31164 0.12157 0.0
H890 H 0.8985 0.22412 0.09142 0.0
C891 C 0.78085 0.14412 0.09552 0.0
C892 C 0.74774 0.1435 0.10615 0.0
C893 C 0.73154 0.17561 0.11243 0.0
C894 C 0.74957 0.2079 0.10969 0.0
C895 C 0.78341 0.20745 0.10032 0.0
C896 C 0.79848 0.17628 0.09286 0.0
C897 C 0.83688 0.18134 0.0867 0.0
C898 C 0.86114 0.15631 0.10008 0.0
C899 C 0.84219 0.1766 0.0615 0.0
C900 C 0.84203 0.21946 0.09348 0.0
C901 C 0.81079 0.23458 0.10069 0.0
C902 C 0.8103 0.26833 0.11021 0.0
C903 C 0.84255 0.28643 0.11302 0.0
C904 C 0.87479 0.27037 0.10673 0.0
C905 C 0.87415 0.23715 0.09611 0.0
H906 H 0.1783 0.28986 0.85707 0.0
H907 H 0.14569 0.2715 0.92501 0.0
H908 H 0.19767 0.23298 0.93093 0.0
H909 H 0.19264 0.2068 0.84593 0.0
H910 H 0.22988 0.21161 0.82748 0.0
H911 H 0.19938 0.2474 0.83078 0.0
H912 H 0.25014 0.28918 0.84239 0.0
H913 H 0.2813 0.25355 0.83887 0.0
H914 H 0.27915 0.27696 0.86498 0.0
H915 H 0.24298 0.18569 0.92672 0.0
H916 H 0.27422 0.13291 0.91237 0.0
H917 H 0.27531 0.17877 0.84644 0.0
C918 C 0.18363 0.27961 0.87359 0.0
C919 C 0.15908 0.28478 0.89091 0.0
C920 C 0.16513 0.26895 0.91188 0.0
C921 C 0.19454 0.24691 0.9153 0.0
C922 C 0.21735 0.24059 0.89746 0.0
C923 C 0.21228 0.25674 0.87698 0.0
C924 C 0.23536 0.24008 0.85923 0.0
C925 C 0.21297 0.2256 0.83974 0.0
C926 C 0.26315 0.26652 0.85088 0.0
C927 C 0.25245 0.21058 0.87251 0.0
C928 C 0.24278 0.21204 0.89472 0.0
C929 C 0.2517 0.18497 0.90957 0.0
C930 C 0.26965 0.15515 0.90136 0.0
C931 C 0.27813 0.1526 0.87853 0.0
C932 C 0.2704 0.18106 0.86416 0.0
H933 H 0.20882 0.90827 0.08746 0.0
H934 H 0.29873 0.85822 0.11927 0.0
H935 H 0.26712 0.80075 0.11832 0.0
H936 H 0.14574 0.86771 0.118 0.0
H937 H 0.11375 0.86376 0.09584 0.0
H938 H 0.14621 0.89829 0.09496 0.0
H939 H 0.16684 0.87653 0.05613 0.0
H940 H 0.13431 0.84172 0.05693 0.0
H941 H 0.18022 0.83116 0.05257 0.0
H942 H 0.22112 0.75091 0.11913 0.0
H943 H 0.16603 0.71597 0.12308 0.0
H944 H 0.1072 0.79998 0.09103 0.0
C945 C 0.22234 0.88507 0.09372 0.0
C946 C 0.25626 0.8877 0.1034 0.0
C947 C 0.27288 0.85675 0.11155 0.0
C948 C 0.25509 0.824 0.11106 0.0
C949 C 0.22099 0.82264 0.10206 0.0
C950 C 0.20503 0.85249 0.09335 0.0
C951 C 0.16699 0.84559 0.08696 0.0
C952 C 0.14172 0.87028 0.09971 0.0
C953 C 0.1618 0.84894 0.06164 0.0
C954 C 0.16323 0.80765 0.09445 0.0
C955 C 0.19477 0.7944 0.10263 0.0
C956 C 0.19656 0.76082 0.1123 0.0
C957 C 0.16519 0.74101 0.11434 0.0
C958 C 0.1325 0.75517 0.1071 0.0
C959 C 0.13194 0.78831 0.09637 0.0
H960 H 0.17018 0.60896 0.30204 0.0
H961 H 0.2508 0.54928 0.26757 0.0
H962 H 0.24555 0.58945 0.23508 0.0
H963 H 0.1153 0.62015 0.25861 0.0
H964 H 0.10119 0.6645 0.26498 0.0
H965 H 0.11643 0.63606 0.28692 0.0
H966 H 0.16362 0.68232 0.29833 0.0
H967 H 0.14823 0.71125 0.2765 0.0
H968 H 0.19415 0.69875 0.27777 0.0
H969 H 0.22219 0.62753 0.20411 0.0
H970 H 0.18636 0.66412 0.17827 0.0
H971 H 0.12349 0.70106 0.2337 0.0
C972 C 0.18771 0.60544 0.28797 0.0
C973 C 0.21124 0.57667 0.28719 0.0
C974 C 0.23316 0.57179 0.26844 0.0
C975 C 0.23027 0.59438 0.24997 0.0
C976 C 0.20579 0.62193 0.25087 0.0
C977 C 0.18543 0.628 0.26961 0.0
C978 C 0.1587 0.65704 0.26567 0.0
C979 C 0.12069 0.64361 0.26925 0.0
C980 C 0.16667 0.68926 0.28044 0.0
C981 C 0.16578 0.66505 0.24142 0.0
C982 C 0.19322 0.64478 0.23317 0.0
C983 C 0.20147 0.64438 0.21053 0.0
C984 C 0.18097 0.66499 0.19598 0.0
C985 C 0.15284 0.68579 0.20419 0.0
C986 C 0.14571 0.68632 0.22721 0.0
H987 H 0.60592 0.8635 0.68701 0.0
H988 H 0.55416 0.77724 0.72118 0.0
H989 H 0.59256 0.78698 0.75415 0.0
H990 H 0.69697 0.84983 0.71259 0.0
H991 H 0.70421 0.89688 0.71373 0.0
H992 H 0.67787 0.87814 0.69162 0.0
H993 H 0.62638 0.92004 0.70215 0.0
H994 H 0.65215 0.93845 0.72446 0.0
H995 H 0.60944 0.91949 0.7302 0.0
H996 H 0.62725 0.81449 0.78549 0.0
H997 H 0.66024 0.85352 0.81142 0.0
H998 H 0.69086 0.92 0.75602 0.0
C999 C 0.60394 0.84573 0.7011 0.0
C1000 C 0.57782 0.8193 0.70166 0.0
C1001 C 0.57475 0.79709 0.72047 0.0
C1002 C 0.5963 0.80256 0.73922 0.0
C1003 C 0.621 0.82993 0.73856 0.0
C1004 C 0.62547 0.85062 0.71975 0.0
C1005 C 0.65119 0.88047 0.72392 0.0
C1006 C 0.68455 0.87605 0.70962 0.0
C1007 C 0.63373 0.91673 0.71996 0.0
C1008 C 0.65914 0.8745 0.7483 0.0
C1009 C 0.64172 0.84513 0.75647 0.0
C1010 C 0.64187 0.8369 0.77914 0.0
C1011 C 0.66035 0.85927 0.79375 0.0
C1012 C 0.67845 0.88926 0.78556 0.0
C1013 C 0.67815 0.89656 0.76255 0.0
H1014 H 0.85794 0.38232 0.31045 0.0
H1015 H 0.76562 0.43428 0.28312 0.0
H1016 H 0.77194 0.39984 0.24835 0.0
H1017 H 0.90777 0.38668 0.26511 0.0
H1018 H 0.9292 0.3443 0.26746 0.0
H1019 H 0.91264 0.36581 0.29196 0.0
H1020 H 0.87438 0.31107 0.30141 0.0
H1021 H 0.89138 0.28892 0.27709 0.0
H1022 H 0.84437 0.2936 0.28081 0.0
H1023 H 0.79695 0.37159 0.2141 0.0
H1024 H 0.83449 0.34547 0.18454 0.0
H1025 H 0.90888 0.31 0.23462 0.0
C1026 C 0.83817 0.3851 0.2975 0.0
C1027 C 0.81112 0.4105 0.29941 0.0
C1028 C 0.78608 0.41435 0.28205 0.0
C1029 C 0.78961 0.39504 0.26223 0.0
C1030 C 0.81785 0.37157 0.26033 0.0
C1031 C 0.84116 0.36581 0.27776 0.0
C1032 C 0.87148 0.34228 0.27076 0.0
C1033 C 0.90736 0.3609 0.27401 0.0
C1034 C 0.87031 0.30686 0.28326 0.0
C1035 C 0.8628 0.33748 0.24636 0.0
C1036 C 0.83163 0.35428 0.24065 0.0
C1037 C 0.82073 0.35731 0.21849 0.0
C1038 C 0.84225 0.34275 0.20183 0.0
C1039 C 0.87405 0.3253 0.20748 0.0
C1040 C 0.88405 0.32221 0.23002 0.0
H1041 H 0.32646 0.1258 0.75123 0.0
H1042 H 0.38675 0.17297 0.80494 0.0
H1043 H 0.42315 0.20539 0.77727 0.0
H1044 H 0.39845 0.10997 0.71651 0.0
H1045 H 0.37482 0.11852 0.69096 0.0
H1046 H 0.35137 0.10302 0.71507 0.0
H1047 H 0.30961 0.15724 0.71265 0.0
H1048 H 0.33323 0.1731 0.6886 0.0
H1049 H 0.32807 0.20116 0.71265 0.0
H1050 H 0.45457 0.2299 0.74343 0.0
H1051 H 0.48326 0.23835 0.70679 0.0
H1052 H 0.403 0.17313 0.67571 0.0
C1053 C 0.34683 0.14357 0.75715 0.0
C1054 C 0.35362 0.14743 0.78013 0.0
C1055 C 0.38125 0.16987 0.78734 0.0
C1056 C 0.40172 0.18854 0.77178 0.0
C1057 C 0.39422 0.1842 0.74916 0.0
C1058 C 0.36764 0.16191 0.7419 0.0
C1059 C 0.3671 0.15879 0.7168 0.0
C1060 C 0.37333 0.12031 0.70941 0.0
C1061 C 0.33244 0.17346 0.70711 0.0
C1062 C 0.39806 0.18219 0.71098 0.0
C1063 C 0.4129 0.1973 0.72979 0.0
C1064 C 0.44293 0.21855 0.72859 0.0
C1065 C 0.45889 0.22342 0.70772 0.0
C1066 C 0.44504 0.20661 0.68853 0.0
C1067 C 0.41377 0.18657 0.69014 0.0
H1068 H 0.18308 0.38776 0.68723 0.0
H1069 H 0.26751 0.45204 0.71424 0.0
H1070 H 0.2655 0.41785 0.74932 0.0
H1071 H 0.13273 0.38619 0.73218 0.0
H1072 H 0.11725 0.34124 0.73027 0.0
H1073 H 0.13111 0.36407 0.70558 0.0
H1074 H 0.17655 0.31478 0.69696 0.0
H1075 H 0.16233 0.29122 0.72148 0.0
H1076 H 0.20834 0.30211 0.7179 0.0
H1077 H 0.24362 0.38796 0.78386 0.0
H1078 H 0.20884 0.35861 0.81363 0.0
H1079 H 0.14125 0.31125 0.76372 0.0
C1080 C 0.20227 0.39333 0.70017 0.0
C1081 C 0.22573 0.42207 0.69809 0.0
C1082 C 0.2499 0.42956 0.71545 0.0
C1083 C 0.24878 0.4104 0.73545 0.0
C1084 C 0.2239 0.38341 0.73751 0.0
C1085 C 0.20175 0.37417 0.72007 0.0
C1086 C 0.17477 0.34696 0.72724 0.0
C1087 C 0.13675 0.36045 0.72361 0.0
C1088 C 0.18088 0.31167 0.71518 0.0
C1089 C 0.18365 0.34405 0.75174 0.0
C1090 C 0.21224 0.36503 0.75737 0.0
C1091 C 0.22208 0.37042 0.77955 0.0
C1092 C 0.20216 0.35398 0.79632 0.0
C1093 C 0.1731 0.33227 0.79074 0.0
C1094 C 0.16421 0.3268 0.76821 0.0
H1095 H 0.47287 0.81739 0.26533 0.0
H1096 H 0.37016 0.79849 0.29445 0.0
H1097 H 0.34153 0.81599 0.25881 0.0
H1098 H 0.45203 0.89386 0.24076 0.0
H1099 H 0.47839 0.88844 0.21602 0.0
H1100 H 0.49069 0.86602 0.24121 0.0
H1101 H 0.48918 0.80579 0.22076 0.0
H1102 H 0.47734 0.82806 0.19526 0.0
H1103 H 0.45 0.79277 0.20572 0.0
H1104 H 0.32472 0.84553 0.22252 0.0
H1105 H 0.32108 0.88478 0.18961 0.0
H1106 H 0.43528 0.88543 0.18507 0.0
C1107 C 0.4444 0.81545 0.26375 0.0
C1108 C 0.42352 0.80597 0.28219 0.0
C1109 C 0.38637 0.80492 0.28016 0.0
C1110 C 0.37004 0.81486 0.26004 0.0
C1111 C 0.39142 0.82553 0.2423 0.0
C1112 C 0.4279 0.8255 0.24397 0.0
C1113 C 0.44498 0.84274 0.22398 0.0
C1114 C 0.46783 0.87465 0.23093 0.0
C1115 C 0.46664 0.81572 0.21064 0.0
C1116 C 0.41247 0.85417 0.21127 0.0
C1117 C 0.38179 0.84332 0.22174 0.0
C1118 C 0.34855 0.85343 0.21393 0.0
C1119 C 0.34671 0.87565 0.19521 0.0
C1120 C 0.37794 0.88794 0.18481 0.0
C1121 C 0.41105 0.8763 0.1927 0.0
H1122 H 0.85599 0.52917 0.73728 0.0
H1123 H 0.80304 0.59979 0.69089 0.0
H1124 H 0.81198 0.64915 0.71699 0.0
H1125 H 0.82887 0.57332 0.78987 0.0
H1126 H 0.87162 0.56637 0.80242 0.0
H1127 H 0.85469 0.5351 0.7824 0.0
H1128 H 0.91116 0.54298 0.75854 0.0
H1129 H 0.92817 0.57419 0.77843 0.0
H1130 H 0.92378 0.58666 0.74956 0.0
H1131 H 0.83322 0.69213 0.74546 0.0
H1132 H 0.86672 0.72587 0.7735 0.0
H1133 H 0.91014 0.62818 0.79974 0.0
C1134 C 0.84588 0.55488 0.73262 0.0
C1135 C 0.82869 0.56039 0.71194 0.0
C1136 C 0.81562 0.59453 0.70676 0.0
C1137 C 0.8207 0.62286 0.72147 0.0
C1138 C 0.8389 0.61667 0.74129 0.0
C1139 C 0.85126 0.58351 0.7469 0.0
C1140 C 0.87364 0.58464 0.76785 0.0
C1141 C 0.85615 0.56361 0.78675 0.0
C1142 C 0.91142 0.57135 0.76331 0.0
C1143 C 0.8731 0.62389 0.77264 0.0
C1144 C 0.85226 0.64175 0.75741 0.0
C1145 C 0.84935 0.6784 0.75759 0.0
C1146 C 0.86878 0.69736 0.77347 0.0
C1147 C 0.89129 0.67971 0.78876 0.0
C1148 C 0.89276 0.64242 0.78857 0.0
H1149 H 0.5342 0.12812 0.28482 0.0
H1150 H 0.45962 0.18389 0.24268 0.0
H1151 H 0.50087 0.1783 0.21077 0.0
H1152 H 0.61284 0.16786 0.26155 0.0
H1153 H 0.63864 0.12802 0.26411 0.0
H1154 H 0.6032 0.13655 0.28336 0.0
H1155 H 0.57462 0.07636 0.27322 0.0
H1156 H 0.60998 0.06761 0.25399 0.0
H1157 H 0.56479 0.06652 0.24448 0.0
H1158 H 0.54894 0.16291 0.18316 0.0
H1159 H 0.60198 0.14269 0.16255 0.0
H1160 H 0.646 0.10062 0.22369 0.0
C1161 C 0.52661 0.13908 0.26883 0.0
C1162 C 0.49382 0.15615 0.26598 0.0
C1163 C 0.48477 0.17072 0.24503 0.0
C1164 C 0.50794 0.16761 0.2269 0.0
C1165 C 0.54011 0.1504 0.23024 0.0
C1166 C 0.54958 0.13675 0.25077 0.0
C1167 C 0.58576 0.11986 0.25015 0.0
C1168 C 0.61163 0.13924 0.26571 0.0
C1169 C 0.58364 0.08024 0.25579 0.0
C1170 C 0.59506 0.12569 0.22597 0.0
C1171 C 0.56834 0.14311 0.21469 0.0
C1172 C 0.57023 0.14968 0.19187 0.0
C1173 C 0.60024 0.13808 0.18032 0.0
C1174 C 0.62798 0.12063 0.1917 0.0
C1175 C 0.6254 0.11463 0.21479 0.0
H1176 H 0.62775 0.14137 0.68564 0.0
H1177 H 0.62449 0.24748 0.71317 0.0
H1178 H 0.64785 0.22493 0.74873 0.0
H1179 H 0.59706 0.0984 0.73407 0.0
H1180 H 0.62449 0.05991 0.7304 0.0
H1181 H 0.61055 0.08509 0.70652 0.0
H1182 H 0.67595 0.09302 0.69473 0.0
H1183 H 0.69011 0.06799 0.71868 0.0
H1184 H 0.70709 0.1119 0.71414 0.0
H1185 H 0.66897 0.19008 0.78214 0.0
H1186 H 0.68274 0.14504 0.81092 0.0
H1187 H 0.67043 0.06238 0.76146 0.0
C1188 C 0.63185 0.15999 0.69907 0.0
C1189 C 0.62439 0.1963 0.6964 0.0
C1190 C 0.63054 0.21965 0.71452 0.0
C1191 C 0.64373 0.20708 0.73488 0.0
C1192 C 0.65066 0.17111 0.7369 0.0
C1193 C 0.64479 0.1479 0.71949 0.0
C1194 C 0.65246 0.11022 0.72625 0.0
C1195 C 0.61915 0.08706 0.72419 0.0
C1196 C 0.68324 0.09489 0.71264 0.0
C1197 C 0.66288 0.11577 0.75031 0.0
C1198 C 0.66217 0.15107 0.75613 0.0
C1199 C 0.66984 0.16236 0.77775 0.0
C1200 C 0.67776 0.13672 0.79393 0.0
C1201 C 0.67746 0.10041 0.78834 0.0
C1202 C 0.6706 0.09002 0.76617 0.0
H1203 H 0.13636 0.36816 0.29958 0.0
H1204 H 0.23938 0.37317 0.2682 0.0
H1205 H 0.21405 0.34849 0.23367 0.0
H1206 H 0.10492 0.28677 0.27081 0.0
H1207 H 0.06058 0.30377 0.26849 0.0
H1208 H 0.088 0.31638 0.29176 0.0
H1209 H 0.07834 0.38248 0.28209 0.0
H1210 H 0.05098 0.37009 0.25886 0.0
H1211 H 0.08891 0.39805 0.2545 0.0
H1212 H 0.17582 0.33111 0.20098 0.0
H1213 H 0.1278 0.32333 0.17326 0.0
H1214 H 0.05044 0.32901 0.22634 0.0
C1215 C 0.15371 0.3636 0.28557 0.0
C1216 C 0.18985 0.37254 0.28665 0.0
C1217 C 0.2117 0.36604 0.26793 0.0
C1218 C 0.19754 0.35206 0.2482 0.0
C1219 C 0.16157 0.34434 0.24753 0.0
C1220 C 0.14003 0.34964 0.26581 0.0
C1221 C 0.10177 0.34221 0.26031 0.0
C1222 C 0.08802 0.31038 0.27363 0.0
C1223 C 0.07866 0.37517 0.26416 0.0
C1224 C 0.10493 0.33349 0.23582 0.0
C1225 C 0.13964 0.33424 0.22877 0.0
C1226 C 0.14859 0.32977 0.20638 0.0
C1227 C 0.12123 0.32528 0.19077 0.0
C1228 C 0.08552 0.32571 0.19769 0.0
C1229 C 0.07754 0.32875 0.22058 0.0
H1230 H 0.38241 0.82048 0.72813 0.0
H1231 H 0.33159 0.86712 0.67055 0.0
H1232 H 0.29277 0.902 0.69543 0.0
H1233 H 0.30346 0.82131 0.76681 0.0
H1234 H 0.33112 0.83309 0.79015 0.0
H1235 H 0.34847 0.80582 0.76809 0.0
H1236 H 0.39998 0.85012 0.76241 0.0
H1237 H 0.38293 0.87726 0.78439 0.0
H1238 H 0.39004 0.89598 0.75715 0.0
H1239 H 0.26666 0.93819 0.72617 0.0
H1240 H 0.26013 0.97642 0.75942 0.0
H1241 H 0.32971 0.90741 0.79659 0.0
C1242 C 0.36211 0.83696 0.72081 0.0
C1243 C 0.35951 0.84086 0.69751 0.0
C1244 C 0.33376 0.8638 0.68842 0.0
C1245 C 0.31144 0.88336 0.70241 0.0
C1246 C 0.3153 0.8796 0.72542 0.0
C1247 C 0.34012 0.85695 0.73453 0.0
C1248 C 0.34327 0.86179 0.75946 0.0
C1249 C 0.33083 0.82852 0.77186 0.0
C1250 C 0.38128 0.87191 0.76622 0.0
C1251 C 0.31783 0.89207 0.76284 0.0
C1252 C 0.30098 0.90122 0.74317 0.0
C1253 C 0.27898 0.93074 0.74177 0.0
C1254 C 0.27528 0.95221 0.76068 0.0
C1255 C 0.29398 0.94421 0.78044 0.0
C1256 C 0.31448 0.91327 0.78174 0.0
H1257 H 0.96997 0.68071 0.23628 0.0
H1258 H 0.89503 0.7067 0.18397 0.0
H1259 H 0.84578 0.69254 0.20937 0.0
H1260 H 0.92851 0.6056 0.25277 0.0
H1261 H 0.93816 0.60985 0.28207 0.0
H1262 H 0.96687 0.6299 0.26192 0.0
H1263 H 0.95855 0.69087 0.28091 0.0
H1264 H 0.92985 0.67088 0.30128 0.0
H1265 H 0.91461 0.708 0.28507 0.0
H1266 H 0.80545 0.66661 0.23823 0.0
H1267 H 0.77758 0.63105 0.26776 0.0
H1268 H 0.8798 0.61817 0.29973 0.0
C1269 C 0.94319 0.68411 0.23026 0.0
C1270 C 0.93636 0.69478 0.20812 0.0
C1271 C 0.90094 0.69909 0.20097 0.0
C1272 C 0.87278 0.69101 0.21527 0.0
C1273 C 0.88055 0.67889 0.23667 0.0
C1274 C 0.91496 0.67572 0.24418 0.0
C1275 C 0.91663 0.65791 0.26671 0.0
C1276 C 0.93883 0.6238 0.26579 0.0
C1277 C 0.93074 0.68345 0.28455 0.0
C1278 C 0.87792 0.65001 0.27026 0.0
C1279 C 0.85742 0.66301 0.25304 0.0
C1280 C 0.8212 0.65671 0.25195 0.0
C1281 C 0.80566 0.63612 0.26871 0.0
C1282 C 0.82642 0.62156 0.28614 0.0
C1283 C 0.86291 0.62934 0.28701 0.0
H1284 H 0.66989 0.90132 0.1896 0.0
H1285 H 0.71159 0.99154 0.22572 0.0
H1286 H 0.68984 0.96592 0.261 0.0
H1287 H 0.59063 0.8974 0.21848 0.0
H1288 H 0.58729 0.8499 0.21812 0.0
H1289 H 0.61095 0.8724 0.19638 0.0
H1290 H 0.66696 0.83519 0.20485 0.0
H1291 H 0.6433 0.81217 0.22644 0.0
H1292 H 0.68438 0.83408 0.23282 0.0
H1293 H 0.65753 0.93278 0.292 0.0
H1294 H 0.62119 0.89345 0.31569 0.0
H1295 H 0.59771 0.8286 0.25788 0.0
C1296 C 0.67502 0.91547 0.20495 0.0
C1297 C 0.69256 0.94838 0.20486 0.0
C1298 C 0.69881 0.96594 0.22538 0.0
C1299 C 0.68625 0.95176 0.2455 0.0
C1300 C 0.66758 0.92002 0.24479 0.0
C1301 C 0.66232 0.90199 0.22502 0.0
C1302 C 0.6393 0.86983 0.22828 0.0
C1303 C 0.60502 0.87258 0.2145 0.0
C1304 C 0.65971 0.83581 0.22278 0.0
C1305 C 0.63196 0.87276 0.25292 0.0
C1306 C 0.64858 0.90165 0.2623 0.0
C1307 C 0.64466 0.9099 0.28483 0.0
C1308 C 0.62369 0.88761 0.29812 0.0
C1309 C 0.60681 0.85762 0.28877 0.0
C1310 C 0.61085 0.85066 0.26579 0.0
H1311 H 0.9234 0.32753 0.80084 0.0
H1312 H 0.00825 0.28003 0.76308 0.0
H1313 H 0.97043 0.27932 0.72942 0.0
H1314 H 0.84653 0.28489 0.76893 0.0
H1315 H 0.82122 0.32514 0.77069 0.0
H1316 H 0.85116 0.31328 0.79288 0.0
H1317 H 0.88259 0.37378 0.78877 0.0
H1318 H 0.85308 0.38567 0.76656 0.0
H1319 H 0.90015 0.38643 0.76202 0.0
H1320 H 0.92929 0.29508 0.69898 0.0
H1321 H 0.88745 0.32572 0.6739 0.0
H1322 H 0.82913 0.36367 0.73112 0.0
C1323 C 0.93315 0.31546 0.78569 0.0
C1324 C 0.96813 0.30306 0.7844 0.0
C1325 C 0.9811 0.28891 0.76425 0.0
C1326 C 0.95981 0.28837 0.74515 0.0
C1327 C 0.9257 0.30205 0.74661 0.0
C1328 C 0.91227 0.31505 0.76644 0.0
C1329 C 0.87707 0.33319 0.76283 0.0
C1330 C 0.84723 0.3129 0.77452 0.0
C1331 C 0.87834 0.37205 0.77049 0.0
C1332 C 0.87387 0.33026 0.73776 0.0
C1333 C 0.90178 0.31152 0.72877 0.0
C1334 C 0.90681 0.30897 0.70582 0.0
C1335 C 0.88314 0.32663 0.69172 0.0
C1336 C 0.85497 0.34668 0.70062 0.0
C1337 C 0.8498 0.34762 0.72389 0.0
H1338 H 0.3291 1.00278 0.2145 0.0
H1339 H 0.21616 0.01841 0.20921 0.0
H1340 H 0.21473 0.03976 0.24832 0.0
H1341 H 0.33123 0.97919 0.27651 0.0
H1342 H 0.37224 1.00279 0.28001 0.0
H1343 H 0.36273 0.98071 0.25404 0.0
H1344 H 0.3729 0.03944 0.23276 0.0
H1345 H 0.3823 0.06157 0.25851 0.0
H1346 H 0.34785 0.07805 0.24051 0.0
H1347 H 0.22785 0.07097 0.284 0.0
H1348 H 0.25399 0.10934 0.313 0.0
H1349 H 0.35843 0.07239 0.29534 0.0
C1350 C 0.30395 0.00949 0.22199 0.0
C1351 C 0.27268 0.0089 0.20923 0.0
C1352 C 0.2402 0.01841 0.21903 0.0
C1353 C 0.23923 0.03039 0.24118 0.0
C1354 C 0.2709 0.03198 0.25318 0.0
C1355 C 0.30262 0.02128 0.24398 0.0
C1356 C 0.33356 0.03003 0.259 0.0
C1357 C 0.35096 0.99616 0.26792 0.0
C1358 C 0.3607 0.05369 0.24698 0.0
C1359 C 0.31469 0.04973 0.27736 0.0
C1360 C 0.27846 0.04979 0.27403 0.0
C1361 C 0.25601 0.07023 0.28715 0.0
C1362 C 0.27104 0.09203 0.30349 0.0
C1363 C 0.30811 0.09338 0.30649 0.0
C1364 C 0.32996 0.0709 0.29386 0.0
H1365 H 0.05794 0.69069 0.76599 0.0
H1366 H 0.13936 0.73358 0.80902 0.0
H1367 H 0.1842 0.72118 0.77998 0.0
H1368 H 0.1032 0.61938 0.74962 0.0
H1369 H 0.08709 0.61787 0.72134 0.0
H1370 H 0.06081 0.63817 0.74264 0.0
H1371 H 0.05827 0.69633 0.71987 0.0
H1372 H 0.0844 0.67603 0.69828 0.0
H1373 H 0.09874 0.71689 0.71082 0.0
H1374 H 0.22072 0.69375 0.74959 0.0
H1375 H 0.24571 0.65488 0.72062 0.0
H1376 H 0.13986 0.62809 0.69856 0.0
C1377 C 0.08509 0.69845 0.76899 0.0
C1378 C 0.09542 0.71299 0.78963 0.0
C1379 C 0.13104 0.72273 0.79315 0.0
C1380 C 0.15658 0.71576 0.77677 0.0
C1381 C 0.14575 0.6996 0.75697 0.0
C1382 C 0.11068 0.69152 0.75294 0.0
C1383 C 0.10619 0.67007 0.73188 0.0
C1384 C 0.0883 0.63427 0.73668 0.0
C1385 C 0.08569 0.6911 0.71416 0.0
C1386 C 0.14439 0.66547 0.7253 0.0
C1387 C 0.16681 0.68335 0.73963 0.0
C1388 C 0.20338 0.68021 0.73805 0.0
C1389 C 0.21732 0.65775 0.72169 0.0
C1390 C 0.19471 0.63833 0.70734 0.0
C1391 C 0.15785 0.6431 0.7089 0.0
H1392 H 0.2045 0.4702 0.53972 0.0
H1393 H 0.20861 0.58231 0.55468 0.0
H1394 H 0.20879 0.59589 0.51455 0.0
H1395 H 0.26057 0.47331 0.49019 0.0
H1396 H 0.23487 0.4405 0.47561 0.0
H1397 H 0.23754 0.43953 0.50558 0.0
H1398 H 0.16916 0.44146 0.50798 0.0
H1399 H 0.16631 0.44251 0.47805 0.0
H1400 H 0.14549 0.47669 0.4943 0.0
H1401 H 0.20368 0.59748 0.47287 0.0
H1402 H 0.1969 0.58639 0.43241 0.0
H1403 H 0.19638 0.47353 0.44489 0.0
C1404 C 0.20571 0.49755 0.53452 0.0
C1405 C 0.20681 0.52513 0.55031 0.0
C1406 C 0.20846 0.56068 0.5429 0.0
C1407 C 0.20833 0.56869 0.52013 0.0
C1408 C 0.20679 0.54088 0.505 0.0
C1409 C 0.20581 0.50601 0.51187 0.0
C1410 C 0.20322 0.4811 0.49224 0.0
C1411 C 0.23601 0.45721 0.49083 0.0
C1412 C 0.16901 0.45916 0.49321 0.0
C1413 C 0.20228 0.50745 0.47332 0.0
C1414 C 0.20437 0.5418 0.48099 0.0
C1415 C 0.20242 0.57068 0.46662 0.0
C1416 C 0.19837 0.5642 0.44375 0.0
C1417 C 0.19651 0.52917 0.4356 0.0
C1418 C 0.19856 0.50056 0.45062 0.0
H1419 H 0.45699 0.77162 0.45264 0.0
H1420 H 0.5685 0.77171 0.43627 0.0
H1421 H 0.58352 0.77809 0.47608 0.0
H1422 H 0.4614 0.83705 0.49336 0.0
H1423 H 0.42925 0.81761 0.51178 0.0
H1424 H 0.42716 0.80885 0.48235 0.0
H1425 H 0.42968 0.74149 0.49006 0.0
H1426 H 0.43162 0.75008 0.51958 0.0
H1427 H 0.46539 0.7237 0.50652 0.0
H1428 H 0.5864 0.79032 0.51672 0.0
H1429 H 0.57683 0.8064 0.55615 0.0
H1430 H 0.46356 0.79819 0.54633 0.0
C1431 C 0.48451 0.77209 0.45758 0.0
C1432 C 0.51161 0.7713 0.44149 0.0
C1433 C 0.54739 0.77272 0.4484 0.0
C1434 C 0.55617 0.77606 0.47094 0.0
C1435 C 0.52884 0.77773 0.48637 0.0
C1436 C 0.49374 0.77557 0.48006 0.0
C1437 C 0.4695 0.78054 0.49985 0.0
C1438 C 0.44542 0.81294 0.49663 0.0
C1439 C 0.44777 0.74695 0.50426 0.0
C1440 C 0.49648 0.78671 0.5181 0.0
C1441 C 0.53055 0.78468 0.50999 0.0
C1442 C 0.55987 0.79152 0.52337 0.0
C1443 C 0.5542 0.80088 0.54565 0.0
C1444 C 0.51951 0.80332 0.55427 0.0
C1445 C 0.49038 0.79575 0.54032 0.0
H1446 H 0.81682 0.45989 0.4569 0.0
H1447 H 0.80586 0.57198 0.44331 0.0
H1448 H 0.80172 0.58395 0.48354 0.0
H1449 H 0.75718 0.45739 0.50522 0.0
H1450 H 0.78422 0.42593 0.52 0.0
H1451 H 0.78327 0.42576 0.48998 0.0
H1452 H 0.85144 0.43237 0.48911 0.0
H1453 H 0.85259 0.43255 0.51909 0.0
H1454 H 0.87192 0.46863 0.50375 0.0
H1455 H 0.80457 0.58448 0.52517 0.0
H1456 H 0.81191 0.57288 0.56551 0.0
H1457 H 0.82022 0.46066 0.55202 0.0
C1458 C 0.81323 0.48688 0.46242 0.0
C1459 C 0.8114 0.51493 0.44695 0.0
C1460 C 0.80664 0.54996 0.45479 0.0
C1461 C 0.80444 0.55707 0.47763 0.0
C1462 C 0.80673 0.52885 0.49243 0.0
C1463 C 0.81073 0.49442 0.48516 0.0
C1464 C 0.81394 0.46908 0.50457 0.0
C1465 C 0.78279 0.443 0.50496 0.0
C1466 C 0.84959 0.44952 0.50409 0.0
C1467 C 0.81204 0.49478 0.52384 0.0
C1468 C 0.80775 0.52912 0.5165 0.0
C1469 C 0.80743 0.55766 0.53117 0.0
C1470 C 0.81178 0.5509 0.55397 0.0
C1471 C 0.81622 0.51592 0.56181 0.0
C1472 C 0.81599 0.48757 0.54652 0.0
H1473 H 0.47065 0.1582 0.42725 0.0
H1474 H 0.50778 0.26465 0.41408 0.0
H1475 H 0.52284 0.27169 0.4539 0.0
H1476 H 0.42931 0.17705 0.47866 0.0
H1477 H 0.4414 0.13575 0.49155 0.0
H1478 H 0.43591 0.13819 0.46179 0.0
H1479 H 0.49931 0.11394 0.45619 0.0
H1480 H 0.50494 0.11117 0.48595 0.0
H1481 H 0.53602 0.13594 0.46944 0.0
H1482 H 0.53035 0.26827 0.49553 0.0
H1483 H 0.5319 0.25397 0.53559 0.0
H1484 H 0.48991 0.1496 0.52129 0.0
C1485 C 0.48198 0.18299 0.4327 0.0
C1486 C 0.48797 0.21091 0.41754 0.0
C1487 C 0.50334 0.24275 0.42532 0.0
C1488 C 0.51178 0.24707 0.44793 0.0
C1489 C 0.50485 0.21923 0.46247 0.0
C1490 C 0.49053 0.18772 0.45514 0.0
C1491 C 0.48489 0.16218 0.4742 0.0
C1492 C 0.44554 0.15276 0.47669 0.0
C1493 C 0.50765 0.12884 0.47126 0.0
C1494 C 0.49777 0.18445 0.49349 0.0
C1495 C 0.50929 0.21721 0.48639 0.0
C1496 C 0.52174 0.24256 0.50126 0.0
C1497 C 0.52266 0.23411 0.524 0.0
C1498 C 0.51119 0.20057 0.53166 0.0
C1499 C 0.49856 0.17556 0.51608 0.0
H1500 H 0.72998 0.98009 0.94147 0.0
H1501 H 0.72308 0.09351 0.93324 0.0
H1502 H 0.7426 0.10187 0.97225 0.0
H1503 H 0.69139 0.97762 0.99207 0.0
H1504 H 0.71758 0.94228 0.00364 0.0
H1505 H 0.71165 0.94538 0.97403 0.0
H1506 H 0.77957 0.94636 0.96859 0.0
H1507 H 0.78573 0.94325 -0.00167 0.0
H1508 H 0.80579 0.97894 0.98301 0.0
H1509 H 0.75338 0.09776 0.01287 0.0
H1510 H 0.74887 0.08213 0.05241 0.0
H1511 H 0.74815 0.97084 0.03496 0.0
C1512 C 0.73396 0.00663 0.94771 0.0
C1513 C 0.72557 0.03622 0.93443 0.0
C1514 C 0.72957 0.07062 0.94326 0.0
C1515 C 0.74096 0.07555 0.96527 0.0
C1516 C 0.74818 0.04577 0.97818 0.0
C1517 C 0.74478 0.01192 0.96973 0.0
C1518 C 0.74863 0.98441 0.98789 0.0
C1519 C 0.71533 0.96109 0.9895 0.0
C1520 C 0.78192 0.96191 0.98423 0.0
C1521 C 0.75265 0.00809 0.00805 0.0
C1522 C 0.7535 0.04334 0.002 0.0
C1523 C 0.75353 0.07026 0.01781 0.0
C1524 C 0.75111 0.06102 0.04035 0.0
C1525 C 0.74814 0.02511 0.04688 0.0
C1526 C 0.75046 0.99844 0.03049 0.0
H1527 H 0.06079 0.33975 0.94685 0.0
H1528 H 0.95061 0.32951 0.92816 0.0
H1529 H 0.93417 0.3242 0.96788 0.0
H1530 H 0.05918 0.27947 -0.00538 0.0
H1531 H 0.0885 0.3066 0.01102 0.0
H1532 H 0.09185 0.30664 0.98107 0.0
H1533 H 0.08408 0.37468 0.98074 0.0
H1534 H 0.08054 0.37485 0.01065 0.0
H1535 H 0.04591 0.39401 -0.0061 0.0
H1536 H 0.92958 0.32207 0.00915 0.0
H1537 H 0.93642 0.32581 0.04989 0.0
H1538 H 0.04959 0.33923 0.04218 0.0
C1539 C 0.03334 0.33573 0.9512 0.0
C1540 C 0.00689 0.33474 0.93461 0.0
C1541 C 0.9711 0.33039 0.94076 0.0
C1542 C 0.96161 0.32718 0.9632 0.0
C1543 C 0.98826 0.32868 0.9792 0.0
C1544 C 0.02338 0.33301 0.97354 0.0
C1545 C 0.0465 0.33603 -0.00592 0.0
C1546 C 0.07307 0.30535 -0.00474 0.0
C1547 C 0.06536 0.37204 -0.00512 0.0
C1548 C 0.01882 0.33305 0.01215 0.0
C1549 C 0.98549 0.3284 0.00316 0.0
C1550 C 0.95555 0.32543 0.01643 0.0
C1551 C 0.95974 0.32739 0.03955 0.0
C1552 C 0.99358 0.33254 0.04916 0.0
C1553 C 0.02345 0.33537 0.03523 0.0
H1554 H 0.28205 0.05822 0.03224 0.0
H1555 H 0.25805 0.94802 0.04441 0.0
H1556 H 0.2497 0.93841 0.00402 0.0
H1557 H 0.22206 0.07047 0.98252 0.0
H1558 H 0.25384 0.09824 0.96863 0.0
H1559 H 0.2513 0.09812 -0.00137 0.0
H1560 H 0.31791 0.08265 0.00094 0.0
H1561 H 0.32062 0.08264 0.97105 0.0
H1562 H 0.33415 0.04412 0.98655 0.0
H1563 H 0.25229 0.93865 0.9629 0.0
H1564 H 0.26688 0.94833 0.92332 0.0
H1565 H 0.29007 0.05829 0.9373 0.0
C1566 C 0.27384 0.03245 0.02634 0.0
C1567 C 0.27037 1.00386 0.04124 0.0
C1568 C 0.2608 0.97013 0.03309 0.0
C1569 C 0.25575 0.96455 0.01027 0.0
C1570 C 0.26034 0.99303 -0.00414 0.0
C1571 C 0.26907 0.02639 0.00354 0.0
C1572 C 0.2767 0.05134 0.98439 0.0
C1573 C 0.24933 0.08131 0.98349 0.0
C1574 C 0.31459 0.06602 0.98583 0.0
C1575 C 0.27236 0.02639 0.96485 0.0
C1576 C 0.26226 0.99308 0.97184 0.0
C1577 C 0.25958 0.96475 0.95714 0.0
C1578 C 0.26814 0.9704 0.93476 0.0
C1579 C 0.27944 1.00404 0.92734 0.0
C1580 C 0.2807 0.03255 0.94249 0.0
H1581 H 0.02971 0.75516 0.95851 0.0
H1582 H 0.97837 0.65891 0.93608 0.0
H1583 H 0.96948 0.64082 0.97511 0.0
H1584 H 0.07595 0.71603 0.00497 0.0
H1585 H 0.07033 0.75395 0.02279 0.0
H1586 H 0.07236 0.7596 0.99302 0.0
H1587 H 0.012 0.79194 -0.0063 0.0
H1588 H 0.00975 0.7863 0.02346 0.0
H1589 H 0.9743 0.77042 0.00603 0.0
H1590 H 0.96661 0.63283 0.01626 0.0
H1591 H 0.9706 0.6349 0.05714 0.0
H1592 H 0.02347 0.73657 0.05313 0.0
C1593 C 0.01686 0.73017 0.96181 0.0
C1594 C 1.00452 0.70856 0.94424 0.0
C1595 C 0.98746 0.67619 0.94926 0.0
C1596 C 0.98248 0.66558 0.97137 0.0
C1597 C 0.99472 0.68761 0.98827 0.0
C1598 C 0.01162 0.71918 0.9838 0.0
C1599 C 0.02225 0.73788 0.0051 0.0
C1600 C 0.06262 0.7421 0.00655 0.0
C1601 C 1.00344 0.77376 0.00719 0.0
C1602 C 0.0088 0.71178 0.02221 0.0
C1603 C 0.99296 0.68303 0.01212 0.0
C1604 C 0.97875 0.65529 0.02439 0.0
C1605 C 0.9809 0.65689 0.04765 0.0
C1606 C 0.99711 0.68606 0.05843 0.0
C1607 C 0.01113 0.71384 0.04543 0.0
loop_
_geom_bond_atom_site_label_1
_geom_bond_atom_site_label_2
_geom_bond_distance
_geom_bond_site_symmetry_2
_ccdc_geom_bond_type
C0 C1 1.351 . S
C0 N3 1.368 . S
C0 H5 0.931 . S
C1 C0 1.351 . S
C1 N2 1.373 . S
C1 H29 0.930 . S
N2 C1 1.373 . S
N2 C4 1.340 . S
N3 C0 1.368 . S
N3 C4 1.321 . S
N3 Co6 2.135 . S
C4 N2 1.340 . S
C4 N3 1.321 . S
C4 H28 0.930 . S
H5 C0 0.931 . S
Co6 N3 2.135 . S
Co6 N9 2.121 . S
Co6 O14 2.055 . S
Co6 O17 2.039 . S
Co6 N20 2.140 . S
C7 O8 1.227 . S
C7 O17 1.265 . S
O8 C7 1.227 . S
N9 Co6 2.121 . S
N9 C11 1.375 . S
N9 C12 1.313 . S
C10 C11 1.338 . S
C10 N13 1.377 . S
C10 H30 0.930 . S
C11 N9 1.375 . S
C11 C10 1.338 . S
C11 H15 0.931 . S
C12 N9 1.313 . S
C12 N13 1.344 . S
C12 H16 0.930 . S
N13 C10 1.377 . S
N13 C12 1.344 . S
O14 Co6 2.055 . S
O14 C18 1.253 . S
H15 C11 0.931 . S
H16 C12 0.930 . S
O17 Co6 2.039 . S
O17 C7 1.265 . S
C18 O14 1.253 . S
C18 O19 1.227 . S
O19 C18 1.227 . S
N20 Co6 2.140 . S
N20 C23 1.346 . S
N20 C24 1.345 . S
C21 C22 1.387 . S
C21 C25 1.391 . S
C22 C21 1.387 . S
C22 C23 1.369 . S
C22 H31 0.929 . S
C23 N20 1.346 . S
C23 C22 1.369 . S
C23 H26 0.928 . S
C24 N20 1.345 . S
C24 C25 1.371 . S
C24 H27 0.931 . S
C25 C21 1.391 . S
C25 C24 1.371 . S
C25 H32 0.930 . S
H26 C23 0.928 . S
H27 C24 0.931 . S
H28 C4 0.930 . S
H29 C1 0.930 . S
H30 C10 0.930 . S
H31 C22 0.929 . S
H32 C25 0.930 . S
C33 C34 1.351 . S
C33 N36 1.368 . S
C33 H38 0.931 . S
C34 C33 1.351 . S
C34 N35 1.373 . S
C34 H62 0.930 . S
N35 C34 1.373 . S
N35 C37 1.340 . S
N36 C33 1.368 . S
N36 C37 1.321 . S
N36 Co39 2.135 . S
C37 N35 1.340 . S
C37 N36 1.321 . S
C37 H61 0.930 . S
H38 C33 0.931 . S
Co39 N36 2.135 . S
Co39 N42 2.121 . S
Co39 O47 2.055 . S
Co39 O50 2.039 . S
Co39 N53 2.140 . S
C40 O41 1.227 . S
C40 O50 1.265 . S
O41 C40 1.227 . S
N42 Co39 2.121 . S
N42 C44 1.375 . S
N42 C45 1.313 . S
C43 C44 1.338 . S
C43 N46 1.377 . S
C43 H63 0.930 . S
C44 N42 1.375 . S
C44 C43 1.338 . S
C44 H48 0.931 . S
C45 N42 1.313 . S
C45 N46 1.344 . S
C45 H49 0.930 . S
N46 C43 1.377 . S
N46 C45 1.344 . S
O47 Co39 2.055 . S
O47 C51 1.253 . S
H48 C44 0.931 . S
H49 C45 0.930 . S
O50 Co39 2.039 . S
O50 C40 1.265 . S
C51 O47 1.253 . S
C51 O52 1.227 . S
O52 C51 1.227 . S
N53 Co39 2.140 . S
N53 C56 1.346 . S
N53 C57 1.345 . S
C54 C55 1.387 . S
C54 C58 1.391 . S
C55 C54 1.387 . S
C55 C56 1.369 . S
C55 H64 0.929 . S
C56 N53 1.346 . S
C56 C55 1.369 . S
C56 H59 0.928 . S
C57 N53 1.345 . S
C57 C58 1.371 . S
C57 H60 0.931 . S
C58 C54 1.391 . S
C58 C57 1.371 . S
C58 H65 0.930 . S
H59 C56 0.928 . S
H60 C57 0.931 . S
H61 C37 0.930 . S
H62 C34 0.930 . S
H63 C43 0.930 . S
H64 C55 0.929 . S
H65 C58 0.930 . S
C66 C67 1.351 . S
C66 N69 1.368 . S
C66 H71 0.931 . S
C67 C66 1.351 . S
C67 N68 1.373 . S
C67 H95 0.930 . S
N68 C67 1.373 . S
N68 C70 1.340 . S
N69 C66 1.368 . S
N69 C70 1.321 . S
N69 Co72 2.135 . S
C70 N68 1.340 . S
C70 N69 1.321 . S
C70 H94 0.930 . S
H71 C66 0.931 . S
Co72 N69 2.135 . S
Co72 N75 2.121 . S
Co72 O80 2.055 . S
Co72 O83 2.039 . S
Co72 N86 2.140 . S
C73 O74 1.227 . S
C73 O83 1.265 . S
O74 C73 1.227 . S
N75 Co72 2.121 . S
N75 C77 1.375 . S
N75 C78 1.313 . S
C76 C77 1.338 . S
C76 N79 1.377 . S
C76 H96 0.930 . S
C77 N75 1.375 . S
C77 C76 1.338 . S
C77 H81 0.931 . S
C78 N75 1.313 . S
C78 N79 1.344 . S
C78 H82 0.930 . S
N79 C76 1.377 . S
N79 C78 1.344 . S
O80 Co72 2.055 . S
O80 C84 1.253 . S
H81 C77 0.931 . S
H82 C78 0.930 . S
O83 Co72 2.039 . S
O83 C73 1.265 . S
C84 O80 1.253 . S
C84 O85 1.227 . S
O85 C84 1.227 . S
N86 Co72 2.140 . S
N86 C89 1.346 . S
N86 C90 1.345 . S
C87 C88 1.387 . S
C87 C91 1.391 . S
C88 C87 1.387 . S
C88 C89 1.369 . S
C88 H97 0.929 . S
C89 N86 1.346 . S
C89 C88 1.369 . S
C89 H92 0.928 . S
C90 N86 1.345 . S
C90 C91 1.371 . S
C90 H93 0.931 . S
C91 C87 1.391 . S
C91 C90 1.371 . S
C91 H98 0.930 . S
H92 C89 0.928 . S
H93 C90 0.931 . S
H94 C70 0.930 . S
H95 C67 0.930 . S
H96 C76 0.930 . S
H97 C88 0.929 . S
H98 C91 0.930 . S
C99 C100 1.351 . S
C99 N102 1.368 . S
C99 H104 0.931 . S
C100 C99 1.351 . S
C100 N101 1.373 . S
C100 H128 0.930 . S
N101 C100 1.373 . S
N101 C103 1.340 . S
N102 C99 1.368 . S
N102 C103 1.321 . S
N102 Co105 2.135 . S
C103 N101 1.340 . S
C103 N102 1.321 . S
C103 H127 0.930 . S
H104 C99 0.931 . S
Co105 N102 2.135 . S
Co105 N108 2.121 . S
Co105 O113 2.055 . S
Co105 O116 2.039 . S
Co105 N119 2.140 . S
C106 O107 1.227 . S
C106 O116 1.265 . S
O107 C106 1.227 . S
N108 Co105 2.121 . S
N108 C110 1.375 . S
N108 C111 1.313 . S
C109 C110 1.338 . S
C109 N112 1.377 . S
C109 H129 0.930 . S
C110 N108 1.375 . S
C110 C109 1.338 . S
C110 H114 0.931 . S
C111 N108 1.313 . S
C111 N112 1.344 . S
C111 H115 0.930 . S
N112 C109 1.377 . S
N112 C111 1.344 . S
O113 Co105 2.055 . S
O113 C117 1.253 . S
H114 C110 0.931 . S
H115 C111 0.930 . S
O116 Co105 2.039 . S
O116 C106 1.265 . S
C117 O113 1.253 . S
C117 O118 1.227 . S
O118 C117 1.227 . S
N119 Co105 2.140 . S
N119 C122 1.346 . S
N119 C123 1.345 . S
C120 C121 1.387 . S
C120 C124 1.391 . S
C121 C120 1.387 . S
C121 C122 1.369 . S
C121 H130 0.929 . S
C122 N119 1.346 . S
C122 C121 1.369 . S
C122 H125 0.928 . S
C123 N119 1.345 . S
C123 C124 1.371 . S
C123 H126 0.931 . S
C124 C120 1.391 . S
C124 C123 1.371 . S
C124 H131 0.930 . S
H125 C122 0.928 . S
H126 C123 0.931 . S
H127 C103 0.930 . S
H128 C100 0.930 . S
H129 C109 0.930 . S
H130 C121 0.929 . S
H131 C124 0.930 . S
C132 C133 1.351 . S
C132 N135 1.368 . S
C132 H137 0.931 . S
C133 C132 1.351 . S
C133 N134 1.373 . S
C133 H161 0.930 . S
N134 C133 1.373 . S
N134 C136 1.340 . S
N135 C132 1.368 . S
N135 C136 1.321 . S
N135 Co138 2.135 . S
C136 N134 1.340 . S
C136 N135 1.321 . S
C136 H160 0.930 . S
H137 C132 0.931 . S
Co138 N135 2.135 . S
Co138 N141 2.121 . S
Co138 O146 2.055 . S
Co138 O149 2.039 . S
Co138 N152 2.140 . S
C139 O140 1.227 . S
C139 O149 1.265 . S
O140 C139 1.227 . S
N141 Co138 2.121 . S
N141 C143 1.375 . S
N141 C144 1.313 . S
C142 C143 1.338 . S
C142 N145 1.377 . S
C142 H162 0.930 . S
C143 N141 1.375 . S
C143 C142 1.338 . S
C143 H147 0.931 . S
C144 N141 1.313 . S
C144 N145 1.344 . S
C144 H148 0.930 . S
N145 C142 1.377 . S
N145 C144 1.344 . S
O146 Co138 2.055 . S
O146 C150 1.253 . S
H147 C143 0.931 . S
H148 C144 0.930 . S
O149 Co138 2.039 . S
O149 C139 1.265 . S
C150 O146 1.253 . S
C150 O151 1.227 . S
O151 C150 1.227 . S
N152 Co138 2.140 . S
N152 C155 1.346 . S
N152 C156 1.345 . S
C153 C154 1.387 . S
C153 C157 1.391 . S
C154 C153 1.387 . S
C154 C155 1.369 . S
C154 H163 0.929 . S
C155 N152 1.346 . S
C155 C154 1.369 . S
C155 H158 0.928 . S
C156 N152 1.345 . S
C156 C157 1.371 . S
C156 H159 0.931 . S
C157 C153 1.391 . S
C157 C156 1.371 . S
C157 H164 0.930 . S
H158 C155 0.928 . S
H159 C156 0.931 . S
H160 C136 0.930 . S
H161 C133 0.930 . S
H162 C142 0.930 . S
H163 C154 0.929 . S
H164 C157 0.930 . S
C165 C166 1.351 . S
C165 N168 1.368 . S
C165 H170 0.931 . S
C166 C165 1.351 . S
C166 N167 1.373 . S
C166 H194 0.930 . S
N167 C166 1.373 . S
N167 C169 1.340 . S
N168 C165 1.368 . S
N168 C169 1.321 . S
N168 Co171 2.135 . S
C169 N167 1.340 . S
C169 N168 1.321 . S
C169 H193 0.930 . S
H170 C165 0.931 . S
Co171 N168 2.135 . S
Co171 N174 2.121 . S
Co171 O179 2.055 . S
Co171 O182 2.039 . S
Co171 N185 2.140 . S
C172 O173 1.227 . S
C172 O182 1.265 . S
O173 C172 1.227 . S
N174 Co171 2.121 . S
N174 C176 1.375 . S
N174 C177 1.313 . S
C175 C176 1.338 . S
C175 N178 1.377 . S
C175 H195 0.930 . S
C176 N174 1.375 . S
C176 C175 1.338 . S
C176 H180 0.931 . S
C177 N174 1.313 . S
C177 N178 1.344 . S
C177 H181 0.930 . S
N178 C175 1.377 . S
N178 C177 1.344 . S
O179 Co171 2.055 . S
O179 C183 1.253 . S
H180 C176 0.931 . S
H181 C177 0.930 . S
O182 Co171 2.039 . S
O182 C172 1.265 . S
C183 O179 1.253 . S
C183 O184 1.227 . S
O184 C183 1.227 . S
N185 Co171 2.140 . S
N185 C188 1.346 . S
N185 C189 1.345 . S
C186 C187 1.387 . S
C186 C190 1.391 . S
C187 C186 1.387 . S
C187 C188 1.369 . S
C187 H196 0.929 . S
C188 N185 1.346 . S
C188 C187 1.369 . S
C188 H191 0.928 . S
C189 N185 1.345 . S
C189 C190 1.371 . S
C189 H192 0.931 . S
C190 C186 1.391 . S
C190 C189 1.371 . S
C190 H197 0.930 . S
H191 C188 0.928 . S
H192 C189 0.931 . S
H193 C169 0.930 . S
H194 C166 0.930 . S
H195 C175 0.930 . S
H196 C187 0.929 . S
H197 C190 0.930 . S
C198 C199 1.351 . S
C198 N201 1.368 . S
C198 H203 0.931 . S
C199 C198 1.351 . S
C199 N200 1.373 . S
C199 H227 0.930 . S
N200 C199 1.373 . S
N200 C202 1.340 . S
N201 C198 1.368 . S
N201 C202 1.321 . S
N201 Co204 2.135 . S
C202 N200 1.340 . S
C202 N201 1.321 . S
C202 H226 0.930 . S
H203 C198 0.931 . S
Co204 N201 2.135 . S
Co204 N207 2.121 . S
Co204 O212 2.055 . S
Co204 O215 2.039 . S
Co204 N218 2.140 . S
C205 O206 1.227 . S
C205 O215 1.265 . S
O206 C205 1.227 . S
N207 Co204 2.121 . S
N207 C209 1.375 . S
N207 C210 1.313 . S
C208 C209 1.338 . S
C208 N211 1.377 . S
C208 H228 0.930 . S
C209 N207 1.375 . S
C209 C208 1.338 . S
C209 H213 0.931 . S
C210 N207 1.313 . S
C210 N211 1.344 . S
C210 H214 0.930 . S
N211 C208 1.377 . S
N211 C210 1.344 . S
O212 Co204 2.055 . S
O212 C216 1.253 . S
H213 C209 0.931 . S
H214 C210 0.930 . S
O215 Co204 2.039 . S
O215 C205 1.265 . S
C216 O212 1.253 . S
C216 O217 1.227 . S
O217 C216 1.227 . S
N218 Co204 2.140 . S
N218 C221 1.346 . S
N218 C222 1.345 . S
C219 C220 1.387 . S
C219 C223 1.391 . S
C220 C219 1.387 . S
C220 C221 1.369 . S
C220 H229 0.929 . S
C221 N218 1.346 . S
C221 C220 1.369 . S
C221 H224 0.928 . S
C222 N218 1.345 . S
C222 C223 1.371 . S
C222 H225 0.931 . S
C223 C219 1.391 . S
C223 C222 1.371 . S
C223 H230 0.930 . S
H224 C221 0.928 . S
H225 C222 0.931 . S
H226 C202 0.930 . S
H227 C199 0.930 . S
H228 C208 0.930 . S
H229 C220 0.929 . S
H230 C223 0.930 . S
C231 C232 1.351 . S
C231 N234 1.368 . S
C231 H236 0.931 . S
C232 C231 1.351 . S
C232 N233 1.373 . S
C232 H260 0.930 . S
N233 C232 1.373 . S
N233 C235 1.340 . S
N234 C231 1.368 . S
N234 C235 1.321 . S
N234 Co237 2.135 . S
C235 N233 1.340 . S
C235 N234 1.321 . S
C235 H259 0.930 . S
H236 C231 0.931 . S
Co237 N234 2.135 . S
Co237 N240 2.121 . S
Co237 O245 2.055 . S
Co237 O248 2.039 . S
Co237 N251 2.140 . S
C238 O239 1.227 . S
C238 O248 1.265 . S
O239 C238 1.227 . S
N240 Co237 2.121 . S
N240 C242 1.375 . S
N240 C243 1.313 . S
C241 C242 1.338 . S
C241 N244 1.377 . S
C241 H261 0.930 . S
C242 N240 1.375 . S
C242 C241 1.338 . S
C242 H246 0.931 . S
C243 N240 1.313 . S
C243 N244 1.344 . S
C243 H247 0.930 . S
N244 C241 1.377 . S
N244 C243 1.344 . S
O245 Co237 2.055 . S
O245 C249 1.253 . S
H246 C242 0.931 . S
H247 C243 0.930 . S
O248 Co237 2.039 . S
O248 C238 1.265 . S
C249 O245 1.253 . S
C249 O250 1.227 . S
O250 C249 1.227 . S
N251 Co237 2.140 . S
N251 C254 1.346 . S
N251 C255 1.345 . S
C252 C253 1.387 . S
C252 C256 1.391 . S
C253 C252 1.387 . S
C253 C254 1.369 . S
C253 H262 0.929 . S
C254 N251 1.346 . S
C254 C253 1.369 . S
C254 H257 0.928 . S
C255 N251 1.345 . S
C255 C256 1.371 . S
C255 H258 0.931 . S
C256 C252 1.391 . S
C256 C255 1.371 . S
C256 H263 0.930 . S
H257 C254 0.928 . S
H258 C255 0.931 . S
H259 C235 0.930 . S
H260 C232 0.930 . S
H261 C241 0.930 . S
H262 C253 0.929 . S
H263 C256 0.930 . S
C264 C265 1.351 . S
C264 N267 1.368 . S
C264 H269 0.931 . S
C265 C264 1.351 . S
C265 N266 1.373 . S
C265 H293 0.930 . S
N266 C265 1.373 . S
N266 C268 1.340 . S
N267 C264 1.368 . S
N267 C268 1.321 . S
N267 Co270 2.135 . S
C268 N266 1.340 . S
C268 N267 1.321 . S
C268 H292 0.930 . S
H269 C264 0.931 . S
Co270 N267 2.135 . S
Co270 N273 2.121 . S
Co270 O278 2.055 . S
Co270 O281 2.039 . S
Co270 N284 2.140 . S
C271 O272 1.227 . S
C271 O281 1.265 . S
O272 C271 1.227 . S
N273 Co270 2.121 . S
N273 C275 1.375 1_565 S
N273 C276 1.313 . S
C274 C275 1.338 . S
C274 N277 1.385 . S
C274 H294 0.930 . S
C275 N273 1.375 1_545 S
C275 C274 1.338 . S
C275 H279 0.931 . S
C276 N273 1.313 . S
C276 N277 1.333 1_565 S
C276 H280 0.930 . S
N277 C274 1.385 . S
N277 C276 1.333 1_545 S
O278 Co270 2.055 . S
O278 C282 1.253 . S
H279 C275 0.931 . S
H280 C276 0.930 . S
O281 Co270 2.039 . S
O281 C271 1.265 . S
C282 O278 1.253 . S
C282 O283 1.227 . S
O283 C282 1.227 . S
N284 Co270 2.140 . S
N284 C287 1.346 1_565 S
N284 C288 1.345 1_565 S
C285 C286 1.387 . S
C285 C289 1.391 . S
C286 C285 1.387 . S
C286 C287 1.369 . S
C286 H295 0.929 . S
C287 N284 1.346 1_545 S
C287 C286 1.369 . S
C287 H290 0.928 1_545 S
C288 N284 1.345 1_545 S
C288 C289 1.371 . S
C288 H291 0.931 . S
C289 C285 1.391 . S
C289 C288 1.371 . S
C289 H296 0.930 . S
H290 C287 0.928 1_565 S
H291 C288 0.931 . S
H292 C268 0.930 . S
H293 C265 0.930 . S
H294 C274 0.930 . S
H295 C286 0.929 . S
H296 C289 0.930 . S
C297 C298 1.351 . S
C297 N300 1.368 . S
C297 H302 0.931 . S
C298 C297 1.351 . S
C298 N299 1.373 . S
C298 H326 0.930 . S
N299 C298 1.373 . S
N299 C301 1.340 . S
N300 C297 1.368 . S
N300 C301 1.321 . S
N300 Co303 2.135 . S
C301 N299 1.340 . S
C301 N300 1.321 . S
C301 H325 0.930 . S
H302 C297 0.931 . S
Co303 N300 2.135 . S
Co303 N306 2.121 . S
Co303 O311 2.055 . S
Co303 O314 2.039 . S
Co303 N317 2.140 . S
C304 O305 1.227 . S
C304 O314 1.265 . S
O305 C304 1.227 . S
N306 Co303 2.121 . S
N306 C308 1.375 1_655 S
N306 C309 1.313 . S
C307 C308 1.338 . S
C307 N310 1.385 . S
C307 H327 0.930 . S
C308 N306 1.375 1_455 S
C308 C307 1.338 . S
C308 H312 0.931 . S
C309 N306 1.313 . S
C309 N310 1.333 1_655 S
C309 H313 0.930 . S
N310 C307 1.385 . S
N310 C309 1.333 1_455 S
O311 Co303 2.055 . S
O311 C315 1.253 . S
H312 C308 0.931 . S
H313 C309 0.930 . S
O314 Co303 2.039 . S
O314 C304 1.265 . S
C315 O311 1.253 . S
C315 O316 1.227 . S
O316 C315 1.227 . S
N317 Co303 2.140 . S
N317 C320 1.346 1_655 S
N317 C321 1.345 1_655 S
C318 C319 1.387 . S
C318 C322 1.391 . S
C319 C318 1.387 . S
C319 C320 1.369 . S
C319 H328 0.929 . S
C320 N317 1.346 1_455 S
C320 C319 1.369 . S
C320 H323 0.928 1_455 S
C321 N317 1.345 1_455 S
C321 C322 1.371 . S
C321 H324 0.931 . S
C322 C318 1.391 . S
C322 C321 1.371 . S
C322 H329 0.930 . S
H323 C320 0.928 1_655 S
H324 C321 0.931 . S
H325 C301 0.930 . S
H326 C298 0.930 . S
H327 C307 0.930 . S
H328 C319 0.929 . S
H329 C322 0.930 . S
C330 C331 1.351 . S
C330 N333 1.368 . S
C330 H335 0.931 . S
C331 C330 1.351 . S
C331 N332 1.373 . S
C331 H359 0.930 . S
N332 C331 1.373 . S
N332 C334 1.340 . S
N333 C330 1.368 . S
N333 C334 1.321 . S
N333 Co336 2.135 . S
C334 N332 1.340 . S
C334 N333 1.321 . S
C334 H358 0.930 . S
H335 C330 0.931 . S
Co336 N333 2.135 . S
Co336 N339 2.121 . S
Co336 O344 2.055 . S
Co336 O347 2.039 . S
Co336 N350 2.140 . S
C337 O338 1.227 . S
C337 O347 1.265 . S
O338 C337 1.227 . S
N339 Co336 2.121 . S
N339 C341 1.375 1_545 S
N339 C342 1.313 . S
C340 C341 1.338 . S
C340 N343 1.385 . S
C340 H360 0.930 . S
C341 N339 1.375 1_565 S
C341 C340 1.338 . S
C341 H345 0.931 . S
C342 N339 1.313 . S
C342 N343 1.333 1_545 S
C342 H346 0.930 . S
N343 C340 1.385 . S
N343 C342 1.333 1_565 S
O344 Co336 2.055 . S
O344 C348 1.253 . S
H345 C341 0.931 . S
H346 C342 0.930 . S
O347 Co336 2.039 . S
O347 C337 1.265 . S
C348 O344 1.253 . S
C348 O349 1.227 . S
O349 C348 1.227 . S
N350 Co336 2.140 . S
N350 C353 1.346 1_545 S
N350 C354 1.345 1_545 S
C351 C352 1.387 . S
C351 C355 1.391 . S
C352 C351 1.387 . S
C352 C353 1.369 . S
C352 H361 0.929 . S
C353 N350 1.346 1_565 S
C353 C352 1.369 . S
C353 H356 0.928 1_565 S
C354 N350 1.345 1_565 S
C354 C355 1.371 . S
C354 H357 0.931 . S
C355 C351 1.391 . S
C355 C354 1.371 . S
C355 H362 0.930 . S
H356 C353 0.928 1_545 S
H357 C354 0.931 . S
H358 C334 0.930 . S
H359 C331 0.930 . S
H360 C340 0.930 . S
H361 C352 0.929 . S
H362 C355 0.930 . S
C363 C364 1.351 . S
C363 N366 1.368 . S
C363 H368 0.931 . S
C364 C363 1.351 . S
C364 N365 1.373 . S
C364 H392 0.930 . S
N365 C364 1.373 . S
N365 C367 1.340 . S
N366 C363 1.368 . S
N366 C367 1.321 . S
N366 Co369 2.135 . S
C367 N365 1.340 . S
C367 N366 1.321 . S
C367 H391 0.930 . S
H368 C363 0.931 . S
Co369 N366 2.135 . S
Co369 N372 2.121 . S
Co369 O377 2.055 . S
Co369 O380 2.039 . S
Co369 N383 2.140 . S
C370 O371 1.227 . S
C370 O380 1.265 . S
O371 C370 1.227 . S
N372 Co369 2.121 . S
N372 C374 1.375 1_455 S
N372 C375 1.313 . S
C373 C374 1.338 . S
C373 N376 1.385 . S
C373 H393 0.930 . S
C374 N372 1.375 1_655 S
C374 C373 1.338 . S
C374 H378 0.931 . S
C375 N372 1.313 . S
C375 N376 1.333 1_455 S
C375 H379 0.930 . S
N376 C373 1.385 . S
N376 C375 1.333 1_655 S
O377 Co369 2.055 . S
O377 C381 1.253 . S
H378 C374 0.931 . S
H379 C375 0.930 . S
O380 Co369 2.039 . S
O380 C370 1.265 . S
C381 O377 1.253 . S
C381 O382 1.227 . S
O382 C381 1.227 . S
N383 Co369 2.140 . S
N383 C386 1.346 1_455 S
N383 C387 1.345 1_455 S
C384 C385 1.387 . S
C384 C388 1.391 . S
C385 C384 1.387 . S
C385 C386 1.369 . S
C385 H394 0.929 . S
C386 N383 1.346 1_655 S
C386 C385 1.369 . S
C386 H389 0.928 1_655 S
C387 N383 1.345 1_655 S
C387 C388 1.371 . S
C387 H390 0.931 . S
C388 C384 1.391 . S
C388 C387 1.371 . S
C388 H395 0.930 . S
H389 C386 0.928 1_455 S
H390 C387 0.931 . S
H391 C367 0.930 . S
H392 C364 0.930 . S
H393 C373 0.930 . S
H394 C385 0.929 . S
H395 C388 0.930 . S
C396 C397 1.351 . S
C396 N399 1.368 . S
C396 H401 0.931 . S
C397 C396 1.351 . S
C397 N398 1.373 . S
C397 H425 0.930 . S
N398 C397 1.373 . S
N398 C400 1.340 . S
N399 C396 1.368 . S
N399 C400 1.321 . S
N399 Co402 2.135 . S
C400 N398 1.340 . S
C400 N399 1.321 . S
C400 H424 0.930 . S
H401 C396 0.931 . S
Co402 N399 2.135 . S
Co402 N405 2.121 . S
Co402 O410 2.055 . S
Co402 O413 2.039 . S
Co402 N416 2.140 . S
C403 O404 1.227 . S
C403 O413 1.265 . S
O404 C403 1.227 . S
N405 Co402 2.121 . S
N405 C407 1.375 1_545 S
N405 C408 1.313 . S
C406 C407 1.338 . S
C406 N409 1.385 . S
C406 H426 0.930 . S
C407 N405 1.375 1_565 S
C407 C406 1.338 . S
C407 H411 0.931 . S
C408 N405 1.313 . S
C408 N409 1.333 1_545 S
C408 H412 0.930 . S
N409 C406 1.385 . S
N409 C408 1.333 1_565 S
O410 Co402 2.055 . S
O410 C414 1.253 . S
H411 C407 0.931 . S
H412 C408 0.930 . S
O413 Co402 2.039 . S
O413 C403 1.265 . S
C414 O410 1.253 . S
C414 O415 1.227 . S
O415 C414 1.227 . S
N416 Co402 2.140 . S
N416 C419 1.346 1_545 S
N416 C420 1.345 1_545 S
C417 C418 1.387 . S
C417 C421 1.391 . S
C418 C417 1.387 . S
C418 C419 1.369 . S
C418 H427 0.929 . S
C419 N416 1.346 1_565 S
C419 C418 1.369 . S
C419 H422 0.928 1_565 S
C420 N416 1.345 1_565 S
C420 C421 1.371 . S
C420 H423 0.931 . S
C421 C417 1.391 . S
C421 C420 1.371 . S
C421 H428 0.930 . S
H422 C419 0.928 1_545 S
H423 C420 0.931 . S
H424 C400 0.930 . S
H425 C397 0.930 . S
H426 C406 0.930 . S
H427 C418 0.929 . S
H428 C421 0.930 . S
C429 C430 1.351 . S
C429 N432 1.368 . S
C429 H434 0.931 . S
C430 C429 1.351 . S
C430 N431 1.373 . S
C430 H458 0.930 . S
N431 C430 1.373 . S
N431 C433 1.340 . S
N432 C429 1.368 . S
N432 C433 1.321 . S
N432 Co435 2.135 . S
C433 N431 1.340 . S
C433 N432 1.321 . S
C433 H457 0.930 . S
H434 C429 0.931 . S
Co435 N432 2.135 . S
Co435 N438 2.121 . S
Co435 O443 2.055 . S
Co435 O446 2.039 . S
Co435 N449 2.140 . S
C436 O437 1.227 . S
C436 O446 1.265 . S
O437 C436 1.227 . S
N438 Co435 2.121 . S
N438 C440 1.375 1_455 S
N438 C441 1.313 . S
C439 C440 1.338 . S
C439 N442 1.385 . S
C439 H459 0.930 . S
C440 N438 1.375 1_655 S
C440 C439 1.338 . S
C440 H444 0.931 . S
C441 N438 1.313 . S
C441 N442 1.333 1_455 S
C441 H445 0.930 . S
N442 C439 1.385 . S
N442 C441 1.333 1_655 S
O443 Co435 2.055 . S
O443 C447 1.253 . S
H444 C440 0.931 . S
H445 C441 0.930 . S
O446 Co435 2.039 . S
O446 C436 1.265 . S
C447 O443 1.253 . S
C447 O448 1.227 . S
O448 C447 1.227 . S
N449 Co435 2.140 . S
N449 C452 1.346 1_455 S
N449 C453 1.345 1_455 S
C450 C451 1.387 . S
C450 C454 1.391 . S
C451 C450 1.387 . S
C451 C452 1.369 . S
C451 H460 0.929 . S
C452 N449 1.346 1_655 S
C452 C451 1.369 . S
C452 H455 0.928 1_655 S
C453 N449 1.345 1_655 S
C453 C454 1.371 . S
C453 H456 0.931 . S
C454 C450 1.391 . S
C454 C453 1.371 . S
C454 H461 0.930 . S
H455 C452 0.928 1_455 S
H456 C453 0.931 . S
H457 C433 0.930 . S
H458 C430 0.930 . S
H459 C439 0.930 . S
H460 C451 0.929 . S
H461 C454 0.930 . S
C462 C463 1.351 . S
C462 N465 1.368 . S
C462 H467 0.931 . S
C463 C462 1.351 . S
C463 N464 1.373 . S
C463 H491 0.930 . S
N464 C463 1.373 . S
N464 C466 1.340 . S
N465 C462 1.368 . S
N465 C466 1.321 . S
N465 Co468 2.135 . S
C466 N464 1.340 . S
C466 N465 1.321 . S
C466 H490 0.930 . S
H467 C462 0.931 . S
Co468 N465 2.135 . S
Co468 N471 2.121 . S
Co468 O476 2.055 . S
Co468 O479 2.039 . S
Co468 N482 2.140 . S
C469 O470 1.227 . S
C469 O479 1.265 . S
O470 C469 1.227 . S
N471 Co468 2.121 . S
N471 C473 1.375 1_565 S
N471 C474 1.313 . S
C472 C473 1.338 . S
C472 N475 1.385 . S
C472 H492 0.930 . S
C473 N471 1.375 1_545 S
C473 C472 1.338 . S
C473 H477 0.931 . S
C474 N471 1.313 . S
C474 N475 1.333 1_565 S
C474 H478 0.930 . S
N475 C472 1.385 . S
N475 C474 1.333 1_545 S
O476 Co468 2.055 . S
O476 C480 1.253 . S
H477 C473 0.931 . S
H478 C474 0.930 . S
O479 Co468 2.039 . S
O479 C469 1.265 . S
C480 O476 1.253 . S
C480 O481 1.227 . S
O481 C480 1.227 . S
N482 Co468 2.140 . S
N482 C485 1.346 1_565 S
N482 C486 1.345 1_565 S
C483 C484 1.387 . S
C483 C487 1.391 . S
C484 C483 1.387 . S
C484 C485 1.369 . S
C484 H493 0.929 . S
C485 N482 1.346 1_545 S
C485 C484 1.369 . S
C485 H488 0.928 1_545 S
C486 N482 1.345 1_545 S
C486 C487 1.371 . S
C486 H489 0.931 . S
C487 C483 1.391 . S
C487 C486 1.371 . S
C487 H494 0.930 . S
H488 C485 0.928 1_565 S
H489 C486 0.931 . S
H490 C466 0.930 . S
H491 C463 0.930 . S
H492 C472 0.930 . S
H493 C484 0.929 . S
H494 C487 0.930 . S
C495 C496 1.351 . S
C495 N498 1.368 . S
C495 H500 0.931 . S
C496 C495 1.351 . S
C496 N497 1.373 . S
C496 H524 0.930 . S
N497 C496 1.373 . S
N497 C499 1.340 . S
N498 C495 1.368 . S
N498 C499 1.321 . S
N498 Co501 2.135 . S
C499 N497 1.340 . S
C499 N498 1.321 . S
C499 H523 0.930 . S
H500 C495 0.931 . S
Co501 N498 2.135 . S
Co501 N504 2.121 . S
Co501 O509 2.055 . S
Co501 O512 2.039 . S
Co501 N515 2.140 . S
C502 O503 1.227 . S
C502 O512 1.265 . S
O503 C502 1.227 . S
N504 Co501 2.121 . S
N504 C506 1.375 1_655 S
N504 C507 1.313 . S
C505 C506 1.338 . S
C505 N508 1.385 . S
C505 H525 0.930 . S
C506 N504 1.375 1_455 S
C506 C505 1.338 . S
C506 H510 0.931 . S
C507 N504 1.313 . S
C507 N508 1.333 1_655 S
C507 H511 0.930 . S
N508 C505 1.385 . S
N508 C507 1.333 1_455 S
O509 Co501 2.055 . S
O509 C513 1.253 . S
H510 C506 0.931 . S
H511 C507 0.930 . S
O512 Co501 2.039 . S
O512 C502 1.265 . S
C513 O509 1.253 . S
C513 O514 1.227 . S
O514 C513 1.227 . S
N515 Co501 2.140 . S
N515 C518 1.346 1_655 S
N515 C519 1.345 1_655 S
C516 C517 1.387 . S
C516 C520 1.391 . S
C517 C516 1.387 . S
C517 C518 1.369 . S
C517 H526 0.929 . S
C518 N515 1.346 1_455 S
C518 C517 1.369 . S
C518 H521 0.928 1_455 S
C519 N515 1.345 1_455 S
C519 C520 1.371 . S
C519 H522 0.931 . S
C520 C516 1.391 . S
C520 C519 1.371 . S
C520 H527 0.930 . S
H521 C518 0.928 1_655 S
H522 C519 0.931 . S
H523 C499 0.930 . S
H524 C496 0.930 . S
H525 C505 0.930 . S
H526 C517 0.929 . S
H527 C520 0.930 . S
H528 C540 0.930 . S
H529 C542 0.930 . S
H530 C543 0.930 . S
H531 C547 0.959 . S
H532 C547 0.959 . S
H533 C547 0.961 . S
H534 C548 0.960 . S
H535 C548 0.961 1_455 S
H536 C548 0.959 . S
H537 C551 0.929 . S
H538 C552 0.931 . S
H539 C554 0.930 . S
C540 H528 0.930 . S
C540 C541 1.399 . S
C540 C545 1.399 . S
C541 C540 1.399 . S
C541 C542 1.376 . S
C542 H529 0.930 . S
C542 C541 1.376 . S
C542 C543 1.388 . S
C543 H530 0.930 . S
C543 C542 1.388 . S
C543 C544 1.390 . S
C544 C543 1.390 . S
C544 C545 1.394 . S
C544 C550 1.465 1_655 S
C545 C540 1.399 . S
C545 C544 1.394 . S
C545 C546 1.516 1_655 S
C546 C545 1.516 1_455 S
C546 C547 1.502 . S
C546 C548 1.561 1_455 S
C546 C549 1.526 . S
C547 H531 0.959 . S
C547 H532 0.959 . S
C547 H533 0.961 . S
C547 C546 1.502 . S
C548 H534 0.960 . S
C548 H535 0.961 1_655 S
C548 H536 0.959 . S
C548 C546 1.561 1_655 S
C549 C546 1.526 . S
C549 C550 1.396 . S
C549 C554 1.390 . S
C550 C544 1.465 1_455 S
C550 C549 1.396 . S
C550 C551 1.399 . S
C551 H537 0.929 . S
C551 C550 1.399 . S
C551 C552 1.385 . S
C552 H538 0.931 . S
C552 C551 1.385 . S
C552 C553 1.389 . S
C553 C552 1.389 . S
C553 C554 1.387 . S
C554 H539 0.930 . S
C554 C549 1.390 . S
C554 C553 1.387 . S
H555 C567 0.930 . S
H556 C569 0.930 . S
H557 C570 0.930 . S
H558 C574 0.959 . S
H559 C574 0.959 . S
H560 C574 0.961 . S
H561 C575 0.960 1_545 S
H562 C575 0.961 . S
H563 C575 0.959 . S
H564 C578 0.929 . S
H565 C579 0.931 . S
H566 C581 0.930 . S
C567 H555 0.930 . S
C567 C568 1.399 . S
C567 C572 1.399 . S
C568 C567 1.399 . S
C568 C569 1.376 . S
C569 H556 0.930 . S
C569 C568 1.376 . S
C569 C570 1.388 . S
C570 H557 0.930 . S
C570 C569 1.388 . S
C570 C571 1.390 . S
C571 C570 1.390 . S
C571 C572 1.394 . S
C571 C577 1.465 1_545 S
C572 C567 1.399 . S
C572 C571 1.394 . S
C572 C573 1.516 . S
C573 C572 1.516 . S
C573 C574 1.502 . S
C573 C575 1.561 1_545 S
C573 C576 1.526 1_545 S
C574 H558 0.959 . S
C574 H559 0.959 . S
C574 H560 0.961 . S
C574 C573 1.502 . S
C575 H561 0.960 1_565 S
C575 H562 0.961 . S
C575 H563 0.959 . S
C575 C573 1.561 1_565 S
C576 C573 1.526 1_565 S
C576 C577 1.396 . S
C576 C581 1.390 . S
C577 C571 1.465 1_565 S
C577 C576 1.396 . S
C577 C578 1.399 . S
C578 H564 0.929 . S
C578 C577 1.399 . S
C578 C579 1.385 . S
C579 H565 0.931 . S
C579 C578 1.385 . S
C579 C580 1.389 . S
C580 C579 1.389 . S
C580 C581 1.387 . S
C581 H566 0.930 . S
C581 C576 1.390 . S
C581 C580 1.387 . S
H582 C594 0.930 . S
H583 C596 0.930 . S
H584 C597 0.930 . S
H585 C601 0.959 1_455 S
H586 C601 0.959 1_455 S
H587 C601 0.961 . S
H588 C602 0.960 . S
H589 C602 0.961 . S
H590 C602 0.959 . S
H591 C605 0.929 . S
H592 C606 0.931 . S
H593 C608 0.930 . S
C594 H582 0.930 . S
C594 C595 1.399 . S
C594 C599 1.399 . S
C595 C594 1.399 . S
C595 C596 1.376 . S
C596 H583 0.930 . S
C596 C595 1.376 . S
C596 C597 1.388 . S
C597 H584 0.930 . S
C597 C596 1.388 . S
C597 C598 1.390 . S
C598 C597 1.390 . S
C598 C599 1.394 . S
C598 C604 1.465 1_655 S
C599 C594 1.399 . S
C599 C598 1.394 . S
C599 C600 1.516 . S
C600 C599 1.516 . S
C600 C601 1.502 . S
C600 C602 1.561 . S
C600 C603 1.526 1_655 S
C601 H585 0.959 1_655 S
C601 H586 0.959 1_655 S
C601 H587 0.961 . S
C601 C600 1.502 . S
C602 H588 0.960 . S
C602 H589 0.961 . S
C602 H590 0.959 . S
C602 C600 1.561 . S
C603 C600 1.526 1_455 S
C603 C604 1.396 . S
C603 C608 1.390 . S
C604 C598 1.465 1_455 S
C604 C603 1.396 . S
C604 C605 1.399 . S
C605 H591 0.929 . S
C605 C604 1.399 . S
C605 C606 1.385 . S
C606 H592 0.931 . S
C606 C605 1.385 . S
C606 C607 1.389 . S
C607 C606 1.389 . S
C607 C608 1.387 . S
C608 H593 0.930 . S
C608 C603 1.390 . S
C608 C607 1.387 . S
H609 C621 0.930 . S
H610 C623 0.930 . S
H611 C624 0.930 . S
H612 C628 0.959 . S
H613 C628 0.959 . S
H614 C628 0.961 . S
H615 C629 0.960 . S
H616 C629 0.961 1_545 S
H617 C629 0.959 . S
H618 C632 0.929 . S
H619 C633 0.931 . S
H620 C635 0.930 . S
C621 H609 0.930 . S
C621 C622 1.399 . S
C621 C626 1.399 . S
C622 C621 1.399 . S
C622 C623 1.376 . S
C623 H610 0.930 . S
C623 C622 1.376 . S
C623 C624 1.388 . S
C624 H611 0.930 . S
C624 C623 1.388 . S
C624 C625 1.390 . S
C625 C624 1.390 . S
C625 C626 1.394 . S
C625 C631 1.465 1_565 S
C626 C621 1.399 . S
C626 C625 1.394 . S
C626 C627 1.516 1_565 S
C627 C626 1.516 1_545 S
C627 C628 1.502 . S
C627 C629 1.561 1_545 S
C627 C630 1.526 . S
C628 H612 0.959 . S
C628 H613 0.959 . S
C628 H614 0.961 . S
C628 C627 1.502 . S
C629 H615 0.960 . S
C629 H616 0.961 1_565 S
C629 H617 0.959 . S
C629 C627 1.561 1_565 S
C630 C627 1.526 . S
C630 C631 1.396 . S
C630 C635 1.390 . S
C631 C625 1.465 1_545 S
C631 C630 1.396 . S
C631 C632 1.399 . S
C632 H618 0.929 . S
C632 C631 1.399 . S
C632 C633 1.385 . S
C633 H619 0.931 . S
C633 C632 1.385 . S
C633 C634 1.389 . S
C634 C633 1.389 . S
C634 C635 1.387 . S
C635 H620 0.930 . S
C635 C630 1.390 . S
C635 C634 1.387 . S
H636 C648 0.930 1_545 S
H637 C650 0.930 . S
H638 C651 0.930 . S
H639 C655 0.959 . S
H640 C655 0.959 . S
H641 C655 0.961 . S
H642 C656 0.960 . S
H643 C656 0.961 . S
H644 C656 0.959 . S
H645 C659 0.929 . S
H646 C660 0.930 1_565 S
H647 C662 0.930 . S
C648 H636 0.930 1_565 S
C648 C649 1.399 . S
C648 C653 1.392 1_565 S
C649 C648 1.399 . S
C649 C650 1.376 . S
C650 H637 0.930 . S
C650 C649 1.376 . S
C650 C651 1.388 . S
C651 H638 0.930 . S
C651 C650 1.388 . S
C651 C652 1.390 . S
C652 C651 1.390 . S
C652 C653 1.371 1_565 S
C652 C658 1.465 . S
C653 C648 1.392 1_545 S
C653 C652 1.371 1_545 S
C653 C654 1.544 . S
C654 C653 1.544 . S
C654 C655 1.502 . S
C654 C656 1.561 . S
C654 C657 1.526 . S
C655 H639 0.959 . S
C655 H640 0.959 . S
C655 H641 0.961 . S
C655 C654 1.502 . S
C656 H642 0.960 . S
C656 H643 0.961 . S
C656 H644 0.959 . S
C656 C654 1.561 . S
C657 C654 1.526 . S
C657 C658 1.396 1_545 S
C657 C662 1.390 . S
C658 C652 1.465 . S
C658 C657 1.396 1_565 S
C658 C659 1.399 . S
C659 H645 0.929 . S
C659 C658 1.399 . S
C659 C660 1.384 1_565 S
C660 H646 0.930 1_545 S
C660 C659 1.384 1_545 S
C660 C661 1.391 . S
C661 C660 1.391 . S
C661 C662 1.387 . S
C662 H647 0.930 . S
C662 C657 1.390 . S
C662 C661 1.387 . S
H663 C675 0.930 . S
H664 C677 0.930 . S
H665 C678 0.930 . S
H666 C682 0.959 . S
H667 C682 0.959 . S
H668 C682 0.961 . S
H669 C683 0.960 . S
H670 C683 0.961 1_455 S
H671 C683 0.959 . S
H672 C686 0.947 . S
H673 C687 0.931 . S
H674 C689 0.930 . S
C675 H663 0.930 . S
C675 C676 1.399 . S
C675 C680 1.399 . S
C676 C675 1.399 . S
C676 C677 1.376 . S
C677 H664 0.930 . S
C677 C676 1.376 . S
C677 C678 1.388 . S
C678 H665 0.930 . S
C678 C677 1.388 . S
C678 C679 1.390 . S
C679 C678 1.390 . S
C679 C680 1.394 . S
C679 C685 1.465 . S
C680 C675 1.399 . S
C680 C679 1.394 . S
C680 C681 1.516 1_655 S
C681 C680 1.516 1_455 S
C681 C682 1.502 . S
C681 C683 1.561 1_455 S
C681 C684 1.526 . S
C682 H666 0.959 . S
C682 H667 0.959 . S
C682 H668 0.961 . S
C682 C681 1.502 . S
C683 H669 0.960 . S
C683 H670 0.961 1_655 S
C683 H671 0.959 . S
C683 C681 1.561 1_655 S
C684 C681 1.526 . S
C684 C685 1.396 1_455 S
C684 C689 1.390 . S
C685 C679 1.465 . S
C685 C684 1.396 1_655 S
C685 C686 1.399 . S
C686 H672 0.947 . S
C686 C685 1.399 . S
C686 C687 1.368 1_655 S
C687 H673 0.931 . S
C687 C686 1.368 1_455 S
C687 C688 1.389 . S
C688 C687 1.389 . S
C688 C689 1.387 . S
C689 H674 0.930 . S
C689 C684 1.390 . S
C689 C688 1.387 . S
H690 C702 0.930 . S
H691 C704 0.930 . S
H692 C705 0.930 . S
H693 C709 0.959 . S
H694 C709 0.959 . S
H695 C709 0.961 . S
H696 C710 0.960 1_565 S
H697 C710 0.961 . S
H698 C710 0.959 . S
H699 C713 0.929 . S
H700 C714 0.931 . S
H701 C716 0.930 . S
C702 H690 0.930 . S
C702 C703 1.399 . S
C702 C707 1.399 . S
C703 C702 1.399 . S
C703 C704 1.376 . S
C704 H691 0.930 . S
C704 C703 1.376 . S
C704 C705 1.388 1_565 S
C705 H692 0.930 . S
C705 C704 1.388 1_545 S
C705 C706 1.390 . S
C706 C705 1.390 . S
C706 C707 1.394 1_545 S
C706 C712 1.465 . S
C707 C702 1.399 . S
C707 C706 1.394 1_565 S
C707 C708 1.516 . S
C708 C707 1.516 . S
C708 C709 1.502 . S
C708 C710 1.561 1_565 S
C708 C711 1.526 1_565 S
C709 H693 0.959 . S
C709 H694 0.959 . S
C709 H695 0.961 . S
C709 C708 1.502 . S
C710 H696 0.960 1_545 S
C710 H697 0.961 . S
C710 H698 0.959 . S
C710 C708 1.561 1_545 S
C711 C708 1.526 1_545 S
C711 C712 1.396 . S
C711 C716 1.390 . S
C712 C706 1.465 . S
C712 C711 1.396 . S
C712 C713 1.399 . S
C713 H699 0.929 . S
C713 C712 1.399 . S
C713 C714 1.385 . S
C714 H700 0.931 . S
C714 C713 1.385 . S
C714 C715 1.389 . S
C715 C714 1.389 . S
C715 C716 1.387 . S
C716 H701 0.930 . S
C716 C711 1.390 . S
C716 C715 1.387 . S
H717 C729 0.930 . S
H718 C731 0.930 . S
H719 C732 0.930 . S
H720 C736 0.959 . S
H721 C736 0.959 . S
H722 C736 0.961 . S
H723 C737 0.960 . S
H724 C737 0.961 . S
H725 C737 0.959 . S
H726 C740 0.929 1_655 S
H727 C741 0.931 . S
H728 C743 0.930 . S
C729 H717 0.930 . S
C729 C730 1.399 . S
C729 C734 1.399 . S
C730 C729 1.399 . S
C730 C731 1.376 . S
C731 H718 0.930 . S
C731 C730 1.376 . S
C731 C732 1.388 . S
C732 H719 0.930 . S
C732 C731 1.388 . S
C732 C733 1.390 . S
C733 C732 1.390 . S
C733 C734 1.394 . S
C733 C739 1.468 . S
C734 C729 1.399 . S
C734 C733 1.394 . S
C734 C735 1.516 1_655 S
C735 C734 1.516 1_455 S
C735 C736 1.502 . S
C735 C737 1.561 1_455 S
C735 C738 1.526 . S
C736 H720 0.959 . S
C736 H721 0.959 . S
C736 H722 0.961 . S
C736 C735 1.502 . S
C737 H723 0.960 . S
C737 H724 0.961 . S
C737 H725 0.959 . S
C737 C735 1.561 1_655 S
C738 C735 1.526 . S
C738 C739 1.393 1_455 S
C738 C743 1.390 . S
C739 C733 1.468 . S
C739 C738 1.393 1_655 S
C739 C740 1.398 1_655 S
C740 H726 0.929 1_455 S
C740 C739 1.398 1_455 S
C740 C741 1.385 . S
C741 H727 0.931 . S
C741 C740 1.385 . S
C741 C742 1.389 . S
C742 C741 1.389 . S
C742 C743 1.387 . S
C743 H728 0.930 . S
C743 C738 1.390 . S
C743 C742 1.387 . S
H744 C756 0.930 . S
H745 C758 0.930 . S
H746 C759 0.930 . S
H747 C763 0.959 . S
H748 C763 0.959 . S
H749 C763 0.961 . S
H750 C764 0.960 . S
H751 C764 0.961 . S
H752 C764 0.959 . S
H753 C767 0.929 . S
H754 C768 0.931 . S
H755 C770 0.930 . S
C756 H744 0.930 . S
C756 C757 1.399 . S
C756 C761 1.399 . S
C757 C756 1.399 . S
C757 C758 1.376 . S
C758 H745 0.930 . S
C758 C757 1.376 . S
C758 C759 1.388 . S
C759 H746 0.930 . S
C759 C758 1.388 . S
C759 C760 1.390 . S
C760 C759 1.390 . S
C760 C761 1.394 . S
C760 C766 1.465 . S
C761 C756 1.399 . S
C761 C760 1.394 . S
C761 C762 1.516 . S
C762 C761 1.516 . S
C762 C763 1.502 . S
C762 C764 1.561 . S
C762 C765 1.526 . S
C763 H747 0.959 . S
C763 H748 0.959 . S
C763 H749 0.961 . S
C763 C762 1.502 . S
C764 H750 0.960 . S
C764 H751 0.961 . S
C764 H752 0.959 . S
C764 C762 1.561 . S
C765 C762 1.526 . S
C765 C766 1.396 . S
C765 C770 1.390 . S
C766 C760 1.465 . S
C766 C765 1.396 . S
C766 C767 1.399 . S
C767 H753 0.929 . S
C767 C766 1.399 . S
C767 C768 1.385 . S
C768 H754 0.931 . S
C768 C767 1.385 . S
C768 C769 1.389 . S
C769 C768 1.389 . S
C769 C770 1.387 . S
C770 H755 0.930 . S
C770 C765 1.390 . S
C770 C769 1.387 . S
H771 C783 0.930 . S
H772 C785 0.930 . S
H773 C786 0.930 . S
H774 C790 0.959 . S
H775 C790 0.959 . S
H776 C790 0.961 . S
H777 C791 0.960 . S
H778 C791 0.961 . S
H779 C791 0.959 . S
H780 C794 0.929 . S
H781 C795 0.931 . S
H782 C797 0.930 . S
C783 H771 0.930 . S
C783 C784 1.399 . S
C783 C788 1.399 . S
C784 C783 1.399 . S
C784 C785 1.376 . S
C785 H772 0.930 . S
C785 C784 1.376 . S
C785 C786 1.388 . S
C786 H773 0.930 . S
C786 C785 1.388 . S
C786 C787 1.390 . S
C787 C786 1.390 . S
C787 C788 1.394 . S
C787 C793 1.465 . S
C788 C783 1.399 . S
C788 C787 1.394 . S
C788 C789 1.516 . S
C789 C788 1.516 . S
C789 C790 1.502 . S
C789 C791 1.561 . S
C789 C792 1.526 . S
C790 H774 0.959 . S
C790 H775 0.959 . S
C790 H776 0.961 . S
C790 C789 1.502 . S
C791 H777 0.960 . S
C791 H778 0.961 . S
C791 H779 0.959 . S
C791 C789 1.561 . S
C792 C789 1.526 . S
C792 C793 1.396 . S
C792 C797 1.390 . S
C793 C787 1.465 . S
C793 C792 1.396 . S
C793 C794 1.399 . S
C794 H780 0.929 . S
C794 C793 1.399 . S
C794 C795 1.385 . S
C795 H781 0.931 . S
C795 C794 1.385 . S
C795 C796 1.389 . S
C796 C795 1.389 . S
C796 C797 1.387 . S
C797 H782 0.930 . S
C797 C792 1.390 . S
C797 C796 1.387 . S
H798 C810 0.930 . S
H799 C812 0.930 . S
H800 C813 0.930 . S
H801 C817 0.959 . S
H802 C817 0.959 . S
H803 C817 0.961 . S
H804 C818 0.960 . S
H805 C818 0.961 . S
H806 C818 0.959 . S
H807 C821 0.929 . S
H808 C822 0.931 . S
H809 C824 0.930 . S
C810 H798 0.930 . S
C810 C811 1.399 . S
C810 C815 1.399 . S
C811 C810 1.399 . S
C811 C812 1.376 . S
C812 H799 0.930 . S
C812 C811 1.376 . S
C812 C813 1.388 . S
C813 H800 0.930 . S
C813 C812 1.388 . S
C813 C814 1.390 . S
C814 C813 1.390 . S
C814 C815 1.394 . S
C814 C820 1.465 . S
C815 C810 1.399 . S
C815 C814 1.394 . S
C815 C816 1.516 . S
C816 C815 1.516 . S
C816 C817 1.502 . S
C816 C818 1.561 . S
C816 C819 1.526 . S
C817 H801 0.959 . S
C817 H802 0.959 . S
C817 H803 0.961 . S
C817 C816 1.502 . S
C818 H804 0.960 . S
C818 H805 0.961 . S
C818 H806 0.959 . S
C818 C816 1.561 . S
C819 C816 1.526 . S
C819 C820 1.396 . S
C819 C824 1.390 . S
C820 C814 1.465 . S
C820 C819 1.396 . S
C820 C821 1.399 . S
C821 H807 0.929 . S
C821 C820 1.399 . S
C821 C822 1.385 . S
C822 H808 0.931 . S
C822 C821 1.385 . S
C822 C823 1.389 . S
C823 C822 1.389 . S
C823 C824 1.387 . S
C824 H809 0.930 . S
C824 C819 1.390 . S
C824 C823 1.387 . S
H825 C837 0.930 . S
H826 C839 0.930 . S
H827 C840 0.930 . S
H828 C844 0.959 . S
H829 C844 0.959 . S
H830 C844 0.961 . S
H831 C845 0.960 . S
H832 C845 0.961 . S
H833 C845 0.959 . S
H834 C848 0.929 . S
H835 C849 0.931 . S
H836 C851 0.930 . S
C837 H825 0.930 . S
C837 C838 1.399 . S
C837 C842 1.399 . S
C838 C837 1.399 . S
C838 C839 1.376 . S
C839 H826 0.930 . S
C839 C838 1.376 . S
C839 C840 1.388 . S
C840 H827 0.930 . S
C840 C839 1.388 . S
C840 C841 1.390 . S
C841 C840 1.390 . S
C841 C842 1.394 . S
C841 C847 1.465 . S
C842 C837 1.399 . S
C842 C841 1.394 . S
C842 C843 1.516 . S
C843 C842 1.516 . S
C843 C844 1.502 . S
C843 C845 1.561 . S
C843 C846 1.526 . S
C844 H828 0.959 . S
C844 H829 0.959 . S
C844 H830 0.961 . S
C844 C843 1.502 . S
C845 H831 0.960 . S
C845 H832 0.961 . S
C845 H833 0.959 . S
C845 C843 1.561 . S
C846 C843 1.526 . S
C846 C847 1.396 . S
C846 C851 1.390 . S
C847 C841 1.465 . S
C847 C846 1.396 . S
C847 C848 1.399 . S
C848 H834 0.929 . S
C848 C847 1.399 . S
C848 C849 1.385 . S
C849 H835 0.931 . S
C849 C848 1.385 . S
C849 C850 1.389 . S
C850 C849 1.389 . S
C850 C851 1.387 . S
C851 H836 0.930 . S
C851 C846 1.390 . S
C851 C850 1.387 . S
H852 C864 0.930 . S
H853 C866 0.930 . S
H854 C867 0.930 . S
H855 C871 0.959 . S
H856 C871 0.959 . S
H857 C871 0.961 . S
H858 C872 0.960 . S
H859 C872 0.961 . S
H860 C872 0.959 . S
H861 C875 0.929 . S
H862 C876 0.931 . S
H863 C878 0.930 . S
C864 H852 0.930 . S
C864 C865 1.399 . S
C864 C869 1.399 . S
C865 C864 1.399 . S
C865 C866 1.376 . S
C866 H853 0.930 . S
C866 C865 1.376 . S
C866 C867 1.388 . S
C867 H854 0.930 . S
C867 C866 1.388 . S
C867 C868 1.390 . S
C868 C867 1.390 . S
C868 C869 1.394 . S
C868 C874 1.465 . S
C869 C864 1.399 . S
C869 C868 1.394 . S
C869 C870 1.516 . S
C870 C869 1.516 . S
C870 C871 1.502 . S
C870 C872 1.561 . S
C870 C873 1.526 . S
C871 H855 0.959 . S
C871 H856 0.959 . S
C871 H857 0.961 . S
C871 C870 1.502 . S
C872 H858 0.960 . S
C872 H859 0.961 . S
C872 H860 0.959 . S
C872 C870 1.561 . S
C873 C870 1.526 . S
C873 C874 1.396 . S
C873 C878 1.390 . S
C874 C868 1.465 . S
C874 C873 1.396 . S
C874 C875 1.399 . S
C875 H861 0.929 . S
C875 C874 1.399 . S
C875 C876 1.385 . S
C876 H862 0.931 . S
C876 C875 1.385 . S
C876 C877 1.389 . S
C877 C876 1.389 . S
C877 C878 1.387 . S
C878 H863 0.930 . S
C878 C873 1.390 . S
C878 C877 1.387 . S
H879 C891 0.930 . S
H880 C893 0.930 . S
H881 C894 0.930 . S
H882 C898 0.959 . S
H883 C898 0.959 . S
H884 C898 0.961 . S
H885 C899 0.960 . S
H886 C899 0.961 . S
H887 C899 0.959 . S
H888 C902 0.929 . S
H889 C903 0.931 . S
H890 C905 0.930 . S
C891 H879 0.930 . S
C891 C892 1.399 . S
C891 C896 1.399 . S
C892 C891 1.399 . S
C892 C893 1.376 . S
C893 H880 0.930 . S
C893 C892 1.376 . S
C893 C894 1.388 . S
C894 H881 0.930 . S
C894 C893 1.388 . S
C894 C895 1.390 . S
C895 C894 1.390 . S
C895 C896 1.394 . S
C895 C901 1.465 . S
C896 C891 1.399 . S
C896 C895 1.394 . S
C896 C897 1.516 . S
C897 C896 1.516 . S
C897 C898 1.502 . S
C897 C899 1.561 . S
C897 C900 1.526 . S
C898 H882 0.959 . S
C898 H883 0.959 . S
C898 H884 0.961 . S
C898 C897 1.502 . S
C899 H885 0.960 . S
C899 H886 0.961 . S
C899 H887 0.959 . S
C899 C897 1.561 . S
C900 C897 1.526 . S
C900 C901 1.396 . S
C900 C905 1.390 . S
C901 C895 1.465 . S
C901 C900 1.396 . S
C901 C902 1.399 . S
C902 H888 0.929 . S
C902 C901 1.399 . S
C902 C903 1.385 . S
C903 H889 0.931 . S
C903 C902 1.385 . S
C903 C904 1.389 . S
C904 C903 1.389 . S
C904 C905 1.387 . S
C905 H890 0.930 . S
C905 C900 1.390 . S
C905 C904 1.387 . S
H906 C918 0.930 . S
H907 C920 0.930 . S
H908 C921 0.930 . S
H909 C925 0.959 . S
H910 C925 0.959 . S
H911 C925 0.961 . S
H912 C926 0.960 . S
H913 C926 0.961 . S
H914 C926 0.959 . S
H915 C929 0.929 . S
H916 C930 0.931 . S
H917 C932 0.930 . S
C918 H906 0.930 . S
C918 C919 1.399 . S
C918 C923 1.399 . S
C919 C918 1.399 . S
C919 C920 1.376 . S
C920 H907 0.930 . S
C920 C919 1.376 . S
C920 C921 1.388 . S
C921 H908 0.930 . S
C921 C920 1.388 . S
C921 C922 1.390 . S
C922 C921 1.390 . S
C922 C923 1.394 . S
C922 C928 1.465 . S
C923 C918 1.399 . S
C923 C922 1.394 . S
C923 C924 1.516 . S
C924 C923 1.516 . S
C924 C925 1.502 . S
C924 C926 1.561 . S
C924 C927 1.526 . S
C925 H909 0.959 . S
C925 H910 0.959 . S
C925 H911 0.961 . S
C925 C924 1.502 . S
C926 H912 0.960 . S
C926 H913 0.961 . S
C926 H914 0.959 . S
C926 C924 1.561 . S
C927 C924 1.526 . S
C927 C928 1.396 . S
C927 C932 1.390 . S
C928 C922 1.465 . S
C928 C927 1.396 . S
C928 C929 1.399 . S
C929 H915 0.929 . S
C929 C928 1.399 . S
C929 C930 1.385 . S
C930 H916 0.931 . S
C930 C929 1.385 . S
C930 C931 1.389 . S
C931 C930 1.389 . S
C931 C932 1.387 . S
C932 H917 0.930 . S
C932 C927 1.390 . S
C932 C931 1.387 . S
H933 C945 0.930 . S
H934 C947 0.930 . S
H935 C948 0.930 . S
H936 C952 0.959 . S
H937 C952 0.959 . S
H938 C952 0.961 . S
H939 C953 0.960 . S
H940 C953 0.961 . S
H941 C953 0.959 . S
H942 C956 0.929 . S
H943 C957 0.931 . S
H944 C959 0.930 . S
C945 H933 0.930 . S
C945 C946 1.399 . S
C945 C950 1.399 . S
C946 C945 1.399 . S
C946 C947 1.376 . S
C947 H934 0.930 . S
C947 C946 1.376 . S
C947 C948 1.388 . S
C948 H935 0.930 . S
C948 C947 1.388 . S
C948 C949 1.390 . S
C949 C948 1.390 . S
C949 C950 1.394 . S
C949 C955 1.465 . S
C950 C945 1.399 . S
C950 C949 1.394 . S
C950 C951 1.516 . S
C951 C950 1.516 . S
C951 C952 1.502 . S
C951 C953 1.561 . S
C951 C954 1.526 . S
C952 H936 0.959 . S
C952 H937 0.959 . S
C952 H938 0.961 . S
C952 C951 1.502 . S
C953 H939 0.960 . S
C953 H940 0.961 . S
C953 H941 0.959 . S
C953 C951 1.561 . S
C954 C951 1.526 . S
C954 C955 1.396 . S
C954 C959 1.390 . S
C955 C949 1.465 . S
C955 C954 1.396 . S
C955 C956 1.399 . S
C956 H942 0.929 . S
C956 C955 1.399 . S
C956 C957 1.385 . S
C957 H943 0.931 . S
C957 C956 1.385 . S
C957 C958 1.389 . S
C958 C957 1.389 . S
C958 C959 1.387 . S
C959 H944 0.930 . S
C959 C954 1.390 . S
C959 C958 1.387 . S
H960 C972 0.930 . S
H961 C974 0.930 . S
H962 C975 0.930 . S
H963 C979 0.959 . S
H964 C979 0.959 . S
H965 C979 0.961 . S
H966 C980 0.960 . S
H967 C980 0.961 . S
H968 C980 0.959 . S
H969 C983 0.929 . S
H970 C984 0.931 . S
H971 C986 0.930 . S
C972 H960 0.930 . S
C972 C973 1.399 . S
C972 C977 1.399 . S
C973 C972 1.399 . S
C973 C974 1.376 . S
C974 H961 0.930 . S
C974 C973 1.376 . S
C974 C975 1.388 . S
C975 H962 0.930 . S
C975 C974 1.388 . S
C975 C976 1.390 . S
C976 C975 1.390 . S
C976 C977 1.394 . S
C976 C982 1.465 . S
C977 C972 1.399 . S
C977 C976 1.394 . S
C977 C978 1.516 . S
C978 C977 1.516 . S
C978 C979 1.502 . S
C978 C980 1.561 . S
C978 C981 1.526 . S
C979 H963 0.959 . S
C979 H964 0.959 . S
C979 H965 0.961 . S
C979 C978 1.502 . S
C980 H966 0.960 . S
C980 H967 0.961 . S
C980 H968 0.959 . S
C980 C978 1.561 . S
C981 C978 1.526 . S
C981 C982 1.396 . S
C981 C986 1.390 . S
C982 C976 1.465 . S
C982 C981 1.396 . S
C982 C983 1.399 . S
C983 H969 0.929 . S
C983 C982 1.399 . S
C983 C984 1.385 . S
C984 H970 0.931 . S
C984 C983 1.385 . S
C984 C985 1.389 . S
C985 C984 1.389 . S
C985 C986 1.387 . S
C986 H971 0.930 . S
C986 C981 1.390 . S
C986 C985 1.387 . S
H987 C999 0.930 . S
H988 C1001 0.930 . S
H989 C1002 0.930 . S
H990 C1006 0.959 . S
H991 C1006 0.959 . S
H992 C1006 0.961 . S
H993 C1007 0.960 . S
H994 C1007 0.961 . S
H995 C1007 0.959 . S
H996 C1010 0.929 . S
H997 C1011 0.931 . S
H998 C1013 0.930 . S
C999 H987 0.930 . S
C999 C1000 1.399 . S
C999 C1004 1.399 . S
C1000 C999 1.399 . S
C1000 C1001 1.376 . S
C1001 H988 0.930 . S
C1001 C1000 1.376 . S
C1001 C1002 1.388 . S
C1002 H989 0.930 . S
C1002 C1001 1.388 . S
C1002 C1003 1.390 . S
C1003 C1002 1.390 . S
C1003 C1004 1.394 . S
C1003 C1009 1.465 . S
C1004 C999 1.399 . S
C1004 C1003 1.394 . S
C1004 C1005 1.516 . S
C1005 C1004 1.516 . S
C1005 C1006 1.502 . S
C1005 C1007 1.561 . S
C1005 C1008 1.526 . S
C1006 H990 0.959 . S
C1006 H991 0.959 . S
C1006 H992 0.961 . S
C1006 C1005 1.502 . S
C1007 H993 0.960 . S
C1007 H994 0.961 . S
C1007 H995 0.959 . S
C1007 C1005 1.561 . S
C1008 C1005 1.526 . S
C1008 C1009 1.396 . S
C1008 C1013 1.390 . S
C1009 C1003 1.465 . S
C1009 C1008 1.396 . S
C1009 C1010 1.399 . S
C1010 H996 0.929 . S
C1010 C1009 1.399 . S
C1010 C1011 1.385 . S
C1011 H997 0.931 . S
C1011 C1010 1.385 . S
C1011 C1012 1.389 . S
C1012 C1011 1.389 . S
C1012 C1013 1.387 . S
C1013 H998 0.930 . S
C1013 C1008 1.390 . S
C1013 C1012 1.387 . S
H1014 C1026 0.930 . S
H1015 C1028 0.930 . S
H1016 C1029 0.930 . S
H1017 C1033 0.959 . S
H1018 C1033 0.959 . S
H1019 C1033 0.961 . S
H1020 C1034 0.960 . S
H1021 C1034 0.961 . S
H1022 C1034 0.959 . S
H1023 C1037 0.929 . S
H1024 C1038 0.931 . S
H1025 C1040 0.930 . S
C1026 H1014 0.930 . S
C1026 C1027 1.399 . S
C1026 C1031 1.399 . S
C1027 C1026 1.399 . S
C1027 C1028 1.376 . S
C1028 H1015 0.930 . S
C1028 C1027 1.376 . S
C1028 C1029 1.388 . S
C1029 H1016 0.930 . S
C1029 C1028 1.388 . S
C1029 C1030 1.390 . S
C1030 C1029 1.390 . S
C1030 C1031 1.394 . S
C1030 C1036 1.465 . S
C1031 C1026 1.399 . S
C1031 C1030 1.394 . S
C1031 C1032 1.516 . S
C1032 C1031 1.516 . S
C1032 C1033 1.502 . S
C1032 C1034 1.561 . S
C1032 C1035 1.526 . S
C1033 H1017 0.959 . S
C1033 H1018 0.959 . S
C1033 H1019 0.961 . S
C1033 C1032 1.502 . S
C1034 H1020 0.960 . S
C1034 H1021 0.961 . S
C1034 H1022 0.959 . S
C1034 C1032 1.561 . S
C1035 C1032 1.526 . S
C1035 C1036 1.396 . S
C1035 C1040 1.390 . S
C1036 C1030 1.465 . S
C1036 C1035 1.396 . S
C1036 C1037 1.399 . S
C1037 H1023 0.929 . S
C1037 C1036 1.399 . S
C1037 C1038 1.385 . S
C1038 H1024 0.931 . S
C1038 C1037 1.385 . S
C1038 C1039 1.389 . S
C1039 C1038 1.389 . S
C1039 C1040 1.387 . S
C1040 H1025 0.930 . S
C1040 C1035 1.390 . S
C1040 C1039 1.387 . S
H1041 C1053 0.930 . S
H1042 C1055 0.930 . S
H1043 C1056 0.930 . S
H1044 C1060 0.959 . S
H1045 C1060 0.959 . S
H1046 C1060 0.961 . S
H1047 C1061 0.960 . S
H1048 C1061 0.961 . S
H1049 C1061 0.959 . S
H1050 C1064 0.929 . S
H1051 C1065 0.931 . S
H1052 C1067 0.930 . S
C1053 H1041 0.930 . S
C1053 C1054 1.399 . S
C1053 C1058 1.399 . S
C1054 C1053 1.399 . S
C1054 C1055 1.376 . S
C1055 H1042 0.930 . S
C1055 C1054 1.376 . S
C1055 C1056 1.388 . S
C1056 H1043 0.930 . S
C1056 C1055 1.388 . S
C1056 C1057 1.390 . S
C1057 C1056 1.390 . S
C1057 C1058 1.394 . S
C1057 C1063 1.465 . S
C1058 C1053 1.399 . S
C1058 C1057 1.394 . S
C1058 C1059 1.516 . S
C1059 C1058 1.516 . S
C1059 C1060 1.502 . S
C1059 C1061 1.561 . S
C1059 C1062 1.526 . S
C1060 H1044 0.959 . S
C1060 H1045 0.959 . S
C1060 H1046 0.961 . S
C1060 C1059 1.502 . S
C1061 H1047 0.960 . S
C1061 H1048 0.961 . S
C1061 H1049 0.959 . S
C1061 C1059 1.561 . S
C1062 C1059 1.526 . S
C1062 C1063 1.396 . S
C1062 C1067 1.390 . S
C1063 C1057 1.465 . S
C1063 C1062 1.396 . S
C1063 C1064 1.399 . S
C1064 H1050 0.929 . S
C1064 C1063 1.399 . S
C1064 C1065 1.385 . S
C1065 H1051 0.931 . S
C1065 C1064 1.385 . S
C1065 C1066 1.389 . S
C1066 C1065 1.389 . S
C1066 C1067 1.387 . S
C1067 H1052 0.930 . S
C1067 C1062 1.390 . S
C1067 C1066 1.387 . S
H1068 C1080 0.930 . S
H1069 C1082 0.930 . S
H1070 C1083 0.930 . S
H1071 C1087 0.959 . S
H1072 C1087 0.959 . S
H1073 C1087 0.961 . S
H1074 C1088 0.960 . S
H1075 C1088 0.961 . S
H1076 C1088 0.959 . S
H1077 C1091 0.929 . S
H1078 C1092 0.931 . S
H1079 C1094 0.930 . S
C1080 H1068 0.930 . S
C1080 C1081 1.399 . S
C1080 C1085 1.399 . S
C1081 C1080 1.399 . S
C1081 C1082 1.376 . S
C1082 H1069 0.930 . S
C1082 C1081 1.376 . S
C1082 C1083 1.388 . S
C1083 H1070 0.930 . S
C1083 C1082 1.388 . S
C1083 C1084 1.390 . S
C1084 C1083 1.390 . S
C1084 C1085 1.394 . S
C1084 C1090 1.465 . S
C1085 C1080 1.399 . S
C1085 C1084 1.394 . S
C1085 C1086 1.516 . S
C1086 C1085 1.516 . S
C1086 C1087 1.502 . S
C1086 C1088 1.561 . S
C1086 C1089 1.526 . S
C1087 H1071 0.959 . S
C1087 H1072 0.959 . S
C1087 H1073 0.961 . S
C1087 C1086 1.502 . S
C1088 H1074 0.960 . S
C1088 H1075 0.961 . S
C1088 H1076 0.959 . S
C1088 C1086 1.561 . S
C1089 C1086 1.526 . S
C1089 C1090 1.396 . S
C1089 C1094 1.390 . S
C1090 C1084 1.465 . S
C1090 C1089 1.396 . S
C1090 C1091 1.399 . S
C1091 H1077 0.929 . S
C1091 C1090 1.399 . S
C1091 C1092 1.385 . S
C1092 H1078 0.931 . S
C1092 C1091 1.385 . S
C1092 C1093 1.389 . S
C1093 C1092 1.389 . S
C1093 C1094 1.387 . S
C1094 H1079 0.930 . S
C1094 C1089 1.390 . S
C1094 C1093 1.387 . S
H1095 C1107 0.930 . S
H1096 C1109 0.930 . S
H1097 C1110 0.930 . S
H1098 C1114 0.959 . S
H1099 C1114 0.959 . S
H1100 C1114 0.961 . S
H1101 C1115 0.960 . S
H1102 C1115 0.961 . S
H1103 C1115 0.959 . S
H1104 C1118 0.929 . S
H1105 C1119 0.931 . S
H1106 C1121 0.930 . S
C1107 H1095 0.930 . S
C1107 C1108 1.399 . S
C1107 C1112 1.399 . S
C1108 C1107 1.399 . S
C1108 C1109 1.376 . S
C1109 H1096 0.930 . S
C1109 C1108 1.376 . S
C1109 C1110 1.388 . S
C1110 H1097 0.930 . S
C1110 C1109 1.388 . S
C1110 C1111 1.390 . S
C1111 C1110 1.390 . S
C1111 C1112 1.394 . S
C1111 C1117 1.465 . S
C1112 C1107 1.399 . S
C1112 C1111 1.394 . S
C1112 C1113 1.516 . S
C1113 C1112 1.516 . S
C1113 C1114 1.502 . S
C1113 C1115 1.561 . S
C1113 C1116 1.526 . S
C1114 H1098 0.959 . S
C1114 H1099 0.959 . S
C1114 H1100 0.961 . S
C1114 C1113 1.502 . S
C1115 H1101 0.960 . S
C1115 H1102 0.961 . S
C1115 H1103 0.959 . S
C1115 C1113 1.561 . S
C1116 C1113 1.526 . S
C1116 C1117 1.396 . S
C1116 C1121 1.390 . S
C1117 C1111 1.465 . S
C1117 C1116 1.396 . S
C1117 C1118 1.399 . S
C1118 H1104 0.929 . S
C1118 C1117 1.399 . S
C1118 C1119 1.385 . S
C1119 H1105 0.931 . S
C1119 C1118 1.385 . S
C1119 C1120 1.389 . S
C1120 C1119 1.389 . S
C1120 C1121 1.387 . S
C1121 H1106 0.930 . S
C1121 C1116 1.390 . S
C1121 C1120 1.387 . S
H1122 C1134 0.930 . S
H1123 C1136 0.930 . S
H1124 C1137 0.930 . S
H1125 C1141 0.959 . S
H1126 C1141 0.959 . S
H1127 C1141 0.961 . S
H1128 C1142 0.960 . S
H1129 C1142 0.961 . S
H1130 C1142 0.959 . S
H1131 C1145 0.929 . S
H1132 C1146 0.931 . S
H1133 C1148 0.930 . S
C1134 H1122 0.930 . S
C1134 C1135 1.399 . S
C1134 C1139 1.399 . S
C1135 C1134 1.399 . S
C1135 C1136 1.376 . S
C1136 H1123 0.930 . S
C1136 C1135 1.376 . S
C1136 C1137 1.388 . S
C1137 H1124 0.930 . S
C1137 C1136 1.388 . S
C1137 C1138 1.390 . S
C1138 C1137 1.390 . S
C1138 C1139 1.394 . S
C1138 C1144 1.465 . S
C1139 C1134 1.399 . S
C1139 C1138 1.394 . S
C1139 C1140 1.516 . S
C1140 C1139 1.516 . S
C1140 C1141 1.502 . S
C1140 C1142 1.561 . S
C1140 C1143 1.526 . S
C1141 H1125 0.959 . S
C1141 H1126 0.959 . S
C1141 H1127 0.961 . S
C1141 C1140 1.502 . S
C1142 H1128 0.960 . S
C1142 H1129 0.961 . S
C1142 H1130 0.959 . S
C1142 C1140 1.561 . S
C1143 C1140 1.526 . S
C1143 C1144 1.396 . S
C1143 C1148 1.390 . S
C1144 C1138 1.465 . S
C1144 C1143 1.396 . S
C1144 C1145 1.399 . S
C1145 H1131 0.929 . S
C1145 C1144 1.399 . S
C1145 C1146 1.385 . S
C1146 H1132 0.931 . S
C1146 C1145 1.385 . S
C1146 C1147 1.389 . S
C1147 C1146 1.389 . S
C1147 C1148 1.387 . S
C1148 H1133 0.930 . S
C1148 C1143 1.390 . S
C1148 C1147 1.387 . S
H1149 C1161 0.930 . S
H1150 C1163 0.930 . S
H1151 C1164 0.930 . S
H1152 C1168 0.959 . S
H1153 C1168 0.959 . S
H1154 C1168 0.961 . S
H1155 C1169 0.960 . S
H1156 C1169 0.961 . S
H1157 C1169 0.959 . S
H1158 C1172 0.929 . S
H1159 C1173 0.931 . S
H1160 C1175 0.930 . S
C1161 H1149 0.930 . S
C1161 C1162 1.399 . S
C1161 C1166 1.399 . S
C1162 C1161 1.399 . S
C1162 C1163 1.376 . S
C1163 H1150 0.930 . S
C1163 C1162 1.376 . S
C1163 C1164 1.388 . S
C1164 H1151 0.930 . S
C1164 C1163 1.388 . S
C1164 C1165 1.390 . S
C1165 C1164 1.390 . S
C1165 C1166 1.394 . S
C1165 C1171 1.465 . S
C1166 C1161 1.399 . S
C1166 C1165 1.394 . S
C1166 C1167 1.516 . S
C1167 C1166 1.516 . S
C1167 C1168 1.502 . S
C1167 C1169 1.561 . S
C1167 C1170 1.526 . S
C1168 H1152 0.959 . S
C1168 H1153 0.959 . S
C1168 H1154 0.961 . S
C1168 C1167 1.502 . S
C1169 H1155 0.960 . S
C1169 H1156 0.961 . S
C1169 H1157 0.959 . S
C1169 C1167 1.561 . S
C1170 C1167 1.526 . S
C1170 C1171 1.396 . S
C1170 C1175 1.390 . S
C1171 C1165 1.465 . S
C1171 C1170 1.396 . S
C1171 C1172 1.399 . S
C1172 H1158 0.929 . S
C1172 C1171 1.399 . S
C1172 C1173 1.385 . S
C1173 H1159 0.931 . S
C1173 C1172 1.385 . S
C1173 C1174 1.389 . S
C1174 C1173 1.389 . S
C1174 C1175 1.387 . S
C1175 H1160 0.930 . S
C1175 C1170 1.390 . S
C1175 C1174 1.387 . S
H1176 C1188 0.930 . S
H1177 C1190 0.930 . S
H1178 C1191 0.930 . S
H1179 C1195 0.959 . S
H1180 C1195 0.959 . S
H1181 C1195 0.961 . S
H1182 C1196 0.960 . S
H1183 C1196 0.961 . S
H1184 C1196 0.959 . S
H1185 C1199 0.929 . S
H1186 C1200 0.931 . S
H1187 C1202 0.930 . S
C1188 H1176 0.930 . S
C1188 C1189 1.399 . S
C1188 C1193 1.399 . S
C1189 C1188 1.399 . S
C1189 C1190 1.376 . S
C1190 H1177 0.930 . S
C1190 C1189 1.376 . S
C1190 C1191 1.388 . S
C1191 H1178 0.930 . S
C1191 C1190 1.388 . S
C1191 C1192 1.390 . S
C1192 C1191 1.390 . S
C1192 C1193 1.394 . S
C1192 C1198 1.465 . S
C1193 C1188 1.399 . S
C1193 C1192 1.394 . S
C1193 C1194 1.516 . S
C1194 C1193 1.516 . S
C1194 C1195 1.502 . S
C1194 C1196 1.561 . S
C1194 C1197 1.526 . S
C1195 H1179 0.959 . S
C1195 H1180 0.959 . S
C1195 H1181 0.961 . S
C1195 C1194 1.502 . S
C1196 H1182 0.960 . S
C1196 H1183 0.961 . S
C1196 H1184 0.959 . S
C1196 C1194 1.561 . S
C1197 C1194 1.526 . S
C1197 C1198 1.396 . S
C1197 C1202 1.390 . S
C1198 C1192 1.465 . S
C1198 C1197 1.396 . S
C1198 C1199 1.399 . S
C1199 H1185 0.929 . S
C1199 C1198 1.399 . S
C1199 C1200 1.385 . S
C1200 H1186 0.931 . S
C1200 C1199 1.385 . S
C1200 C1201 1.389 . S
C1201 C1200 1.389 . S
C1201 C1202 1.387 . S
C1202 H1187 0.930 . S
C1202 C1197 1.390 . S
C1202 C1201 1.387 . S
H1203 C1215 0.930 . S
H1204 C1217 0.930 . S
H1205 C1218 0.930 . S
H1206 C1222 0.959 . S
H1207 C1222 0.959 . S
H1208 C1222 0.961 . S
H1209 C1223 0.960 . S
H1210 C1223 0.961 . S
H1211 C1223 0.959 . S
H1212 C1226 0.929 . S
H1213 C1227 0.931 . S
H1214 C1229 0.930 . S
C1215 H1203 0.930 . S
C1215 C1216 1.399 . S
C1215 C1220 1.399 . S
C1216 C1215 1.399 . S
C1216 C1217 1.376 . S
C1217 H1204 0.930 . S
C1217 C1216 1.376 . S
C1217 C1218 1.388 . S
C1218 H1205 0.930 . S
C1218 C1217 1.388 . S
C1218 C1219 1.390 . S
C1219 C1218 1.390 . S
C1219 C1220 1.394 . S
C1219 C1225 1.465 . S
C1220 C1215 1.399 . S
C1220 C1219 1.394 . S
C1220 C1221 1.516 . S
C1221 C1220 1.516 . S
C1221 C1222 1.502 . S
C1221 C1223 1.561 . S
C1221 C1224 1.526 . S
C1222 H1206 0.959 . S
C1222 H1207 0.959 . S
C1222 H1208 0.961 . S
C1222 C1221 1.502 . S
C1223 H1209 0.960 . S
C1223 H1210 0.961 . S
C1223 H1211 0.959 . S
C1223 C1221 1.561 . S
C1224 C1221 1.526 . S
C1224 C1225 1.396 . S
C1224 C1229 1.390 . S
C1225 C1219 1.465 . S
C1225 C1224 1.396 . S
C1225 C1226 1.399 . S
C1226 H1212 0.929 . S
C1226 C1225 1.399 . S
C1226 C1227 1.385 . S
C1227 H1213 0.931 . S
C1227 C1226 1.385 . S
C1227 C1228 1.389 . S
C1228 C1227 1.389 . S
C1228 C1229 1.387 . S
C1229 H1214 0.930 . S
C1229 C1224 1.390 . S
C1229 C1228 1.387 . S
H1230 C1242 0.930 . S
H1231 C1244 0.930 . S
H1232 C1245 0.930 . S
H1233 C1249 0.959 . S
H1234 C1249 0.959 . S
H1235 C1249 0.961 . S
H1236 C1250 0.960 . S
H1237 C1250 0.961 . S
H1238 C1250 0.959 . S
H1239 C1253 0.929 . S
H1240 C1254 0.931 . S
H1241 C1256 0.930 . S
C1242 H1230 0.930 . S
C1242 C1243 1.399 . S
C1242 C1247 1.399 . S
C1243 C1242 1.399 . S
C1243 C1244 1.376 . S
C1244 H1231 0.930 . S
C1244 C1243 1.376 . S
C1244 C1245 1.388 . S
C1245 H1232 0.930 . S
C1245 C1244 1.388 . S
C1245 C1246 1.390 . S
C1246 C1245 1.390 . S
C1246 C1247 1.394 . S
C1246 C1252 1.465 . S
C1247 C1242 1.399 . S
C1247 C1246 1.394 . S
C1247 C1248 1.516 . S
C1248 C1247 1.516 . S
C1248 C1249 1.502 . S
C1248 C1250 1.561 . S
C1248 C1251 1.526 . S
C1249 H1233 0.959 . S
C1249 H1234 0.959 . S
C1249 H1235 0.961 . S
C1249 C1248 1.502 . S
C1250 H1236 0.960 . S
C1250 H1237 0.961 . S
C1250 H1238 0.959 . S
C1250 C1248 1.561 . S
C1251 C1248 1.526 . S
C1251 C1252 1.396 . S
C1251 C1256 1.390 . S
C1252 C1246 1.465 . S
C1252 C1251 1.396 . S
C1252 C1253 1.399 . S
C1253 H1239 0.929 . S
C1253 C1252 1.399 . S
C1253 C1254 1.385 . S
C1254 H1240 0.931 . S
C1254 C1253 1.385 . S
C1254 C1255 1.389 . S
C1255 C1254 1.389 . S
C1255 C1256 1.387 . S
C1256 H1241 0.930 . S
C1256 C1251 1.390 . S
C1256 C1255 1.387 . S
H1257 C1269 0.930 . S
H1258 C1271 0.930 . S
H1259 C1272 0.930 . S
H1260 C1276 0.959 . S
H1261 C1276 0.959 . S
H1262 C1276 0.961 . S
H1263 C1277 0.960 . S
H1264 C1277 0.961 . S
H1265 C1277 0.959 . S
H1266 C1280 0.929 . S
H1267 C1281 0.931 . S
H1268 C1283 0.930 . S
C1269 H1257 0.930 . S
C1269 C1270 1.399 . S
C1269 C1274 1.399 . S
C1270 C1269 1.399 . S
C1270 C1271 1.376 . S
C1271 H1258 0.930 . S
C1271 C1270 1.376 . S
C1271 C1272 1.388 . S
C1272 H1259 0.930 . S
C1272 C1271 1.388 . S
C1272 C1273 1.390 . S
C1273 C1272 1.390 . S
C1273 C1274 1.394 . S
C1273 C1279 1.465 . S
C1274 C1269 1.399 . S
C1274 C1273 1.394 . S
C1274 C1275 1.516 . S
C1275 C1274 1.516 . S
C1275 C1276 1.502 . S
C1275 C1277 1.561 . S
C1275 C1278 1.526 . S
C1276 H1260 0.959 . S
C1276 H1261 0.959 . S
C1276 H1262 0.961 . S
C1276 C1275 1.502 . S
C1277 H1263 0.960 . S
C1277 H1264 0.961 . S
C1277 H1265 0.959 . S
C1277 C1275 1.561 . S
C1278 C1275 1.526 . S
C1278 C1279 1.396 . S
C1278 C1283 1.390 . S
C1279 C1273 1.465 . S
C1279 C1278 1.396 . S
C1279 C1280 1.399 . S
C1280 H1266 0.929 . S
C1280 C1279 1.399 . S
C1280 C1281 1.385 . S
C1281 H1267 0.931 . S
C1281 C1280 1.385 . S
C1281 C1282 1.389 . S
C1282 C1281 1.389 . S
C1282 C1283 1.387 . S
C1283 H1268 0.930 . S
C1283 C1278 1.390 . S
C1283 C1282 1.387 . S
H1284 C1296 0.930 . S
H1285 C1298 0.930 . S
H1286 C1299 0.930 . S
H1287 C1303 0.959 . S
H1288 C1303 0.959 . S
H1289 C1303 0.961 . S
H1290 C1304 0.960 . S
H1291 C1304 0.961 . S
H1292 C1304 0.959 . S
H1293 C1307 0.929 . S
H1294 C1308 0.931 . S
H1295 C1310 0.930 . S
C1296 H1284 0.930 . S
C1296 C1297 1.399 . S
C1296 C1301 1.399 . S
C1297 C1296 1.399 . S
C1297 C1298 1.376 . S
C1298 H1285 0.930 . S
C1298 C1297 1.376 . S
C1298 C1299 1.388 . S
C1299 H1286 0.930 . S
C1299 C1298 1.388 . S
C1299 C1300 1.390 . S
C1300 C1299 1.390 . S
C1300 C1301 1.394 . S
C1300 C1306 1.465 . S
C1301 C1296 1.399 . S
C1301 C1300 1.394 . S
C1301 C1302 1.516 . S
C1302 C1301 1.516 . S
C1302 C1303 1.502 . S
C1302 C1304 1.561 . S
C1302 C1305 1.526 . S
C1303 H1287 0.959 . S
C1303 H1288 0.959 . S
C1303 H1289 0.961 . S
C1303 C1302 1.502 . S
C1304 H1290 0.960 . S
C1304 H1291 0.961 . S
C1304 H1292 0.959 . S
C1304 C1302 1.561 . S
C1305 C1302 1.526 . S
C1305 C1306 1.396 . S
C1305 C1310 1.390 . S
C1306 C1300 1.465 . S
C1306 C1305 1.396 . S
C1306 C1307 1.399 . S
C1307 H1293 0.929 . S
C1307 C1306 1.399 . S
C1307 C1308 1.385 . S
C1308 H1294 0.931 . S
C1308 C1307 1.385 . S
C1308 C1309 1.389 . S
C1309 C1308 1.389 . S
C1309 C1310 1.387 . S
C1310 H1295 0.930 . S
C1310 C1305 1.390 . S
C1310 C1309 1.387 . S
H1311 C1323 0.930 . S
H1312 C1325 0.930 . S
H1313 C1326 0.930 . S
H1314 C1330 0.959 . S
H1315 C1330 0.959 . S
H1316 C1330 0.961 . S
H1317 C1331 0.960 . S
H1318 C1331 0.961 . S
H1319 C1331 0.959 . S
H1320 C1334 0.929 . S
H1321 C1335 0.931 . S
H1322 C1337 0.930 . S
C1323 H1311 0.930 . S
C1323 C1324 1.399 . S
C1323 C1328 1.399 . S
C1324 C1323 1.399 . S
C1324 C1325 1.376 . S
C1325 H1312 0.930 . S
C1325 C1324 1.376 . S
C1325 C1326 1.388 . S
C1326 H1313 0.930 . S
C1326 C1325 1.388 . S
C1326 C1327 1.390 . S
C1327 C1326 1.390 . S
C1327 C1328 1.394 . S
C1327 C1333 1.465 . S
C1328 C1323 1.399 . S
C1328 C1327 1.394 . S
C1328 C1329 1.516 . S
C1329 C1328 1.516 . S
C1329 C1330 1.502 . S
C1329 C1331 1.561 . S
C1329 C1332 1.526 . S
C1330 H1314 0.959 . S
C1330 H1315 0.959 . S
C1330 H1316 0.961 . S
C1330 C1329 1.502 . S
C1331 H1317 0.960 . S
C1331 H1318 0.961 . S
C1331 H1319 0.959 . S
C1331 C1329 1.561 . S
C1332 C1329 1.526 . S
C1332 C1333 1.396 . S
C1332 C1337 1.390 . S
C1333 C1327 1.465 . S
C1333 C1332 1.396 . S
C1333 C1334 1.399 . S
C1334 H1320 0.929 . S
C1334 C1333 1.399 . S
C1334 C1335 1.385 . S
C1335 H1321 0.931 . S
C1335 C1334 1.385 . S
C1335 C1336 1.389 . S
C1336 C1335 1.389 . S
C1336 C1337 1.387 . S
C1337 H1322 0.930 . S
C1337 C1332 1.390 . S
C1337 C1336 1.387 . S
H1338 C1350 0.930 . S
H1339 C1352 0.930 . S
H1340 C1353 0.930 . S
H1341 C1357 0.959 . S
H1342 C1357 0.959 . S
H1343 C1357 0.961 . S
H1344 C1358 0.960 . S
H1345 C1358 0.961 . S
H1346 C1358 0.959 . S
H1347 C1361 0.929 . S
H1348 C1362 0.931 . S
H1349 C1364 0.930 . S
C1350 H1338 0.930 . S
C1350 C1351 1.399 . S
C1350 C1355 1.399 . S
C1351 C1350 1.399 . S
C1351 C1352 1.376 . S
C1352 H1339 0.930 . S
C1352 C1351 1.376 . S
C1352 C1353 1.388 . S
C1353 H1340 0.930 . S
C1353 C1352 1.388 . S
C1353 C1354 1.390 . S
C1354 C1353 1.390 . S
C1354 C1355 1.394 . S
C1354 C1360 1.465 . S
C1355 C1350 1.399 . S
C1355 C1354 1.394 . S
C1355 C1356 1.516 . S
C1356 C1355 1.516 . S
C1356 C1357 1.502 . S
C1356 C1358 1.561 . S
C1356 C1359 1.526 . S
C1357 H1341 0.959 . S
C1357 H1342 0.959 . S
C1357 H1343 0.961 . S
C1357 C1356 1.502 . S
C1358 H1344 0.960 . S
C1358 H1345 0.961 . S
C1358 H1346 0.959 . S
C1358 C1356 1.561 . S
C1359 C1356 1.526 . S
C1359 C1360 1.396 . S
C1359 C1364 1.390 . S
C1360 C1354 1.465 . S
C1360 C1359 1.396 . S
C1360 C1361 1.399 . S
C1361 H1347 0.929 . S
C1361 C1360 1.399 . S
C1361 C1362 1.385 . S
C1362 H1348 0.931 . S
C1362 C1361 1.385 . S
C1362 C1363 1.389 . S
C1363 C1362 1.389 . S
C1363 C1364 1.387 . S
C1364 H1349 0.930 . S
C1364 C1359 1.390 . S
C1364 C1363 1.387 . S
H1365 C1377 0.930 . S
H1366 C1379 0.930 . S
H1367 C1380 0.930 . S
H1368 C1384 0.959 . S
H1369 C1384 0.959 . S
H1370 C1384 0.961 . S
H1371 C1385 0.960 . S
H1372 C1385 0.961 . S
H1373 C1385 0.959 . S
H1374 C1388 0.929 . S
H1375 C1389 0.931 . S
H1376 C1391 0.930 . S
C1377 H1365 0.930 . S
C1377 C1378 1.399 . S
C1377 C1382 1.399 . S
C1378 C1377 1.399 . S
C1378 C1379 1.376 . S
C1379 H1366 0.930 . S
C1379 C1378 1.376 . S
C1379 C1380 1.388 . S
C1380 H1367 0.930 . S
C1380 C1379 1.388 . S
C1380 C1381 1.390 . S
C1381 C1380 1.390 . S
C1381 C1382 1.394 . S
C1381 C1387 1.465 . S
C1382 C1377 1.399 . S
C1382 C1381 1.394 . S
C1382 C1383 1.516 . S
C1383 C1382 1.516 . S
C1383 C1384 1.502 . S
C1383 C1385 1.561 . S
C1383 C1386 1.526 . S
C1384 H1368 0.959 . S
C1384 H1369 0.959 . S
C1384 H1370 0.961 . S
C1384 C1383 1.502 . S
C1385 H1371 0.960 . S
C1385 H1372 0.961 . S
C1385 H1373 0.959 . S
C1385 C1383 1.561 . S
C1386 C1383 1.526 . S
C1386 C1387 1.396 . S
C1386 C1391 1.390 . S
C1387 C1381 1.465 . S
C1387 C1386 1.396 . S
C1387 C1388 1.399 . S
C1388 H1374 0.929 . S
C1388 C1387 1.399 . S
C1388 C1389 1.385 . S
C1389 H1375 0.931 . S
C1389 C1388 1.385 . S
C1389 C1390 1.389 . S
C1390 C1389 1.389 . S
C1390 C1391 1.387 . S
C1391 H1376 0.930 . S
C1391 C1386 1.390 . S
C1391 C1390 1.387 . S
H1392 C1404 0.930 . S
H1393 C1406 0.930 . S
H1394 C1407 0.930 . S
H1395 C1411 0.959 . S
H1396 C1411 0.959 . S
H1397 C1411 0.961 . S
H1398 C1412 0.960 . S
H1399 C1412 0.961 . S
H1400 C1412 0.959 . S
H1401 C1415 0.929 . S
H1402 C1416 0.931 . S
H1403 C1418 0.930 . S
C1404 H1392 0.930 . S
C1404 C1405 1.399 . S
C1404 C1409 1.399 . S
C1405 C1404 1.399 . S
C1405 C1406 1.376 . S
C1406 H1393 0.930 . S
C1406 C1405 1.376 . S
C1406 C1407 1.388 . S
C1407 H1394 0.930 . S
C1407 C1406 1.388 . S
C1407 C1408 1.390 . S
C1408 C1407 1.390 . S
C1408 C1409 1.394 . S
C1408 C1414 1.465 . S
C1409 C1404 1.399 . S
C1409 C1408 1.394 . S
C1409 C1410 1.516 . S
C1410 C1409 1.516 . S
C1410 C1411 1.502 . S
C1410 C1412 1.561 . S
C1410 C1413 1.526 . S
C1411 H1395 0.959 . S
C1411 H1396 0.959 . S
C1411 H1397 0.961 . S
C1411 C1410 1.502 . S
C1412 H1398 0.960 . S
C1412 H1399 0.961 . S
C1412 H1400 0.959 . S
C1412 C1410 1.561 . S
C1413 C1410 1.526 . S
C1413 C1414 1.396 . S
C1413 C1418 1.390 . S
C1414 C1408 1.465 . S
C1414 C1413 1.396 . S
C1414 C1415 1.399 . S
C1415 H1401 0.929 . S
C1415 C1414 1.399 . S
C1415 C1416 1.385 . S
C1416 H1402 0.931 . S
C1416 C1415 1.385 . S
C1416 C1417 1.389 . S
C1417 C1416 1.389 . S
C1417 C1418 1.387 . S
C1418 H1403 0.930 . S
C1418 C1413 1.390 . S
C1418 C1417 1.387 . S
H1419 C1431 0.930 . S
H1420 C1433 0.930 . S
H1421 C1434 0.930 . S
H1422 C1438 0.959 . S
H1423 C1438 0.959 . S
H1424 C1438 0.961 . S
H1425 C1439 0.960 . S
H1426 C1439 0.961 . S
H1427 C1439 0.959 . S
H1428 C1442 0.929 . S
H1429 C1443 0.931 . S
H1430 C1445 0.930 . S
C1431 H1419 0.930 . S
C1431 C1432 1.399 . S
C1431 C1436 1.399 . S
C1432 C1431 1.399 . S
C1432 C1433 1.376 . S
C1433 H1420 0.930 . S
C1433 C1432 1.376 . S
C1433 C1434 1.388 . S
C1434 H1421 0.930 . S
C1434 C1433 1.388 . S
C1434 C1435 1.390 . S
C1435 C1434 1.390 . S
C1435 C1436 1.394 . S
C1435 C1441 1.465 . S
C1436 C1431 1.399 . S
C1436 C1435 1.394 . S
C1436 C1437 1.516 . S
C1437 C1436 1.516 . S
C1437 C1438 1.502 . S
C1437 C1439 1.561 . S
C1437 C1440 1.526 . S
C1438 H1422 0.959 . S
C1438 H1423 0.959 . S
C1438 H1424 0.961 . S
C1438 C1437 1.502 . S
C1439 H1425 0.960 . S
C1439 H1426 0.961 . S
C1439 H1427 0.959 . S
C1439 C1437 1.561 . S
C1440 C1437 1.526 . S
C1440 C1441 1.396 . S
C1440 C1445 1.390 . S
C1441 C1435 1.465 . S
C1441 C1440 1.396 . S
C1441 C1442 1.399 . S
C1442 H1428 0.929 . S
C1442 C1441 1.399 . S
C1442 C1443 1.385 . S
C1443 H1429 0.931 . S
C1443 C1442 1.385 . S
C1443 C1444 1.389 . S
C1444 C1443 1.389 . S
C1444 C1445 1.387 . S
C1445 H1430 0.930 . S
C1445 C1440 1.390 . S
C1445 C1444 1.387 . S
H1446 C1458 0.930 . S
H1447 C1460 0.930 . S
H1448 C1461 0.930 . S
H1449 C1465 0.959 . S
H1450 C1465 0.959 . S
H1451 C1465 0.961 . S
H1452 C1466 0.960 . S
H1453 C1466 0.961 . S
H1454 C1466 0.959 . S
H1455 C1469 0.929 . S
H1456 C1470 0.931 . S
H1457 C1472 0.930 . S
C1458 H1446 0.930 . S
C1458 C1459 1.399 . S
C1458 C1463 1.399 . S
C1459 C1458 1.399 . S
C1459 C1460 1.376 . S
C1460 H1447 0.930 . S
C1460 C1459 1.376 . S
C1460 C1461 1.388 . S
C1461 H1448 0.930 . S
C1461 C1460 1.388 . S
C1461 C1462 1.390 . S
C1462 C1461 1.390 . S
C1462 C1463 1.394 . S
C1462 C1468 1.465 . S
C1463 C1458 1.399 . S
C1463 C1462 1.394 . S
C1463 C1464 1.516 . S
C1464 C1463 1.516 . S
C1464 C1465 1.502 . S
C1464 C1466 1.561 . S
C1464 C1467 1.526 . S
C1465 H1449 0.959 . S
C1465 H1450 0.959 . S
C1465 H1451 0.961 . S
C1465 C1464 1.502 . S
C1466 H1452 0.960 . S
C1466 H1453 0.961 . S
C1466 H1454 0.959 . S
C1466 C1464 1.561 . S
C1467 C1464 1.526 . S
C1467 C1468 1.396 . S
C1467 C1472 1.390 . S
C1468 C1462 1.465 . S
C1468 C1467 1.396 . S
C1468 C1469 1.399 . S
C1469 H1455 0.929 . S
C1469 C1468 1.399 . S
C1469 C1470 1.385 . S
C1470 H1456 0.931 . S
C1470 C1469 1.385 . S
C1470 C1471 1.389 . S
C1471 C1470 1.389 . S
C1471 C1472 1.387 . S
C1472 H1457 0.930 . S
C1472 C1467 1.390 . S
C1472 C1471 1.387 . S
H1473 C1485 0.930 . S
H1474 C1487 0.930 . S
H1475 C1488 0.930 . S
H1476 C1492 0.959 . S
H1477 C1492 0.959 . S
H1478 C1492 0.961 . S
H1479 C1493 0.960 . S
H1480 C1493 0.961 . S
H1481 C1493 0.959 . S
H1482 C1496 0.929 . S
H1483 C1497 0.931 . S
H1484 C1499 0.930 . S
C1485 H1473 0.930 . S
C1485 C1486 1.399 . S
C1485 C1490 1.399 . S
C1486 C1485 1.399 . S
C1486 C1487 1.376 . S
C1487 H1474 0.930 . S
C1487 C1486 1.376 . S
C1487 C1488 1.388 . S
C1488 H1475 0.930 . S
C1488 C1487 1.388 . S
C1488 C1489 1.390 . S
C1489 C1488 1.390 . S
C1489 C1490 1.394 . S
C1489 C1495 1.465 . S
C1490 C1485 1.399 . S
C1490 C1489 1.394 . S
C1490 C1491 1.516 . S
C1491 C1490 1.516 . S
C1491 C1492 1.502 . S
C1491 C1493 1.561 . S
C1491 C1494 1.526 . S
C1492 H1476 0.959 . S
C1492 H1477 0.959 . S
C1492 H1478 0.961 . S
C1492 C1491 1.502 . S
C1493 H1479 0.960 . S
C1493 H1480 0.961 . S
C1493 H1481 0.959 . S
C1493 C1491 1.561 . S
C1494 C1491 1.526 . S
C1494 C1495 1.396 . S
C1494 C1499 1.390 . S
C1495 C1489 1.465 . S
C1495 C1494 1.396 . S
C1495 C1496 1.399 . S
C1496 H1482 0.929 . S
C1496 C1495 1.399 . S
C1496 C1497 1.385 . S
C1497 H1483 0.931 . S
C1497 C1496 1.385 . S
C1497 C1498 1.389 . S
C1498 C1497 1.389 . S
C1498 C1499 1.387 . S
C1499 H1484 0.930 . S
C1499 C1494 1.390 . S
C1499 C1498 1.387 . S
H1500 C1512 0.930 . S
H1501 C1514 0.930 . S
H1502 C1515 0.930 . S
H1503 C1519 0.957 1_554 S
H1504 C1519 0.941 1_554 S
H1505 C1519 0.981 . S
H1506 C1520 0.960 . S
H1507 C1520 0.961 1_554 S
H1508 C1520 0.959 1_554 S
H1509 C1523 0.929 . S
H1510 C1524 0.931 . S
H1511 C1526 0.930 . S
C1512 H1500 0.930 . S
C1512 C1513 1.399 1_565 S
C1512 C1517 1.399 . S
C1513 C1512 1.399 1_545 S
C1513 C1514 1.376 . S
C1514 H1501 0.930 . S
C1514 C1513 1.376 . S
C1514 C1515 1.388 . S
C1515 H1502 0.930 . S
C1515 C1514 1.388 . S
C1515 C1516 1.390 . S
C1516 C1515 1.390 . S
C1516 C1517 1.394 1_545 S
C1516 C1522 1.465 1_556 S
C1517 C1512 1.399 . S
C1517 C1516 1.394 1_565 S
C1517 C1518 1.545 . S
C1518 C1517 1.545 . S
C1518 C1519 1.502 . S
C1518 C1520 1.563 . S
C1518 C1521 1.496 1_556 S
C1519 H1503 0.957 1_556 S
C1519 H1504 0.941 1_556 S
C1519 H1505 0.981 . S
C1519 C1518 1.502 . S
C1520 H1506 0.960 . S
C1520 H1507 0.961 1_556 S
C1520 H1508 0.959 1_556 S
C1520 C1518 1.563 . S
C1521 C1518 1.496 1_554 S
C1521 C1522 1.396 1_565 S
C1521 C1526 1.390 . S
C1522 C1516 1.465 1_554 S
C1522 C1521 1.396 1_545 S
C1522 C1523 1.399 . S
C1523 H1509 0.929 . S
C1523 C1522 1.399 . S
C1523 C1524 1.385 . S
C1524 H1510 0.931 . S
C1524 C1523 1.385 . S
C1524 C1525 1.388 . S
C1525 C1524 1.388 . S
C1525 C1526 1.387 1_545 S
C1526 H1511 0.930 . S
C1526 C1521 1.390 . S
C1526 C1525 1.387 1_565 S
H1527 C1539 0.930 . S
H1528 C1541 0.930 . S
H1529 C1542 0.930 . S
H1530 C1546 0.958 1_554 S
H1531 C1546 0.939 1_554 S
H1532 C1546 0.984 . S
H1533 C1547 0.947 1_556 S
H1534 C1547 0.973 . S
H1535 C1547 0.961 . S
H1536 C1550 0.929 . S
H1537 C1551 0.931 . S
H1538 C1553 0.930 . S
C1539 H1527 0.930 . S
C1539 C1540 1.399 1_455 S
C1539 C1544 1.399 . S
C1540 C1539 1.399 1_655 S
C1540 C1541 1.376 . S
C1541 H1528 0.930 . S
C1541 C1540 1.376 . S
C1541 C1542 1.388 . S
C1542 H1529 0.930 . S
C1542 C1541 1.388 . S
C1542 C1543 1.390 . S
C1543 C1542 1.390 . S
C1543 C1544 1.394 1_655 S
C1543 C1549 1.465 1_556 S
C1544 C1539 1.399 . S
C1544 C1543 1.394 1_455 S
C1544 C1545 1.521 . S
C1545 C1544 1.521 . S
C1545 C1546 1.502 . S
C1545 C1547 1.561 1_456 S
C1545 C1548 1.521 1_556 S
C1546 H1530 0.958 1_556 S
C1546 H1531 0.939 1_556 S
C1546 H1532 0.984 . S
C1546 C1545 1.502 . S
C1547 H1533 0.947 1_554 S
C1547 H1534 0.973 . S
C1547 H1535 0.961 . S
C1547 C1545 1.561 1_654 S
C1548 C1545 1.521 1_554 S
C1548 C1549 1.396 1_455 S
C1548 C1553 1.390 . S
C1549 C1543 1.465 1_554 S
C1549 C1548 1.396 1_655 S
C1549 C1550 1.399 . S
C1550 H1536 0.929 . S
C1550 C1549 1.399 . S
C1550 C1551 1.385 . S
C1551 H1537 0.931 . S
C1551 C1550 1.385 . S
C1551 C1552 1.376 1_655 S
C1552 C1551 1.376 1_455 S
C1552 C1553 1.395 . S
C1553 H1538 0.930 . S
C1553 C1548 1.390 . S
C1553 C1552 1.395 . S
H1554 C1566 0.930 . S
H1555 C1568 0.930 . S
H1556 C1569 0.930 . S
H1557 C1573 0.959 . S
H1558 C1573 0.959 . S
H1559 C1573 0.961 1_554 S
H1560 C1574 0.960 1_554 S
H1561 C1574 0.961 . S
H1562 C1574 0.959 . S
H1563 C1577 0.929 . S
H1564 C1578 0.931 . S
H1565 C1580 0.930 . S
C1566 H1554 0.930 . S
C1566 C1567 1.403 . S
C1566 C1571 1.399 . S
C1567 C1566 1.403 . S
C1567 C1568 1.372 1_545 S
C1568 H1555 0.930 . S
C1568 C1567 1.372 1_565 S
C1568 C1569 1.388 . S
C1569 H1556 0.930 . S
C1569 C1568 1.388 . S
C1569 C1570 1.390 . S
C1570 C1569 1.390 . S
C1570 C1571 1.394 1_565 S
C1570 C1576 1.465 1_554 S
C1571 C1566 1.399 . S
C1571 C1570 1.394 1_545 S
C1571 C1572 1.477 1_554 S
C1572 C1571 1.477 1_556 S
C1572 C1573 1.504 . S
C1572 C1574 1.563 . S
C1572 C1575 1.563 . S
C1573 H1557 0.959 . S
C1573 H1558 0.959 . S
C1573 H1559 0.961 1_556 S
C1573 C1572 1.504 . S
C1574 H1560 0.960 1_556 S
C1574 H1561 0.961 . S
C1574 H1562 0.959 . S
C1574 C1572 1.563 . S
C1575 C1572 1.563 . S
C1575 C1576 1.396 1_545 S
C1575 C1580 1.390 . S
C1576 C1570 1.465 1_556 S
C1576 C1575 1.396 1_565 S
C1576 C1577 1.399 . S
C1577 H1563 0.929 . S
C1577 C1576 1.399 . S
C1577 C1578 1.385 . S
C1578 H1564 0.931 . S
C1578 C1577 1.385 . S
C1578 C1579 1.389 . S
C1579 C1578 1.389 . S
C1579 C1580 1.387 1_565 S
C1580 H1565 0.930 . S
C1580 C1575 1.390 . S
C1580 C1579 1.387 1_545 S
H1581 C1593 0.930 . S
H1582 C1595 0.930 . S
H1583 C1596 0.930 . S
H1584 C1600 0.959 . S
H1585 C1600 0.959 . S
H1586 C1600 0.961 1_556 S
H1587 C1601 0.964 . S
H1588 C1601 0.957 1_554 S
H1589 C1601 0.958 1_554 S
H1590 C1604 0.929 . S
H1591 C1605 0.931 . S
H1592 C1607 0.930 . S
C1593 H1581 0.930 . S
C1593 C1594 1.400 . S
C1593 C1598 1.399 . S
C1594 C1593 1.400 . S
C1594 C1595 1.376 1_455 S
C1595 H1582 0.930 . S
C1595 C1594 1.376 1_655 S
C1595 C1596 1.388 . S
C1596 H1583 0.930 . S
C1596 C1595 1.388 . S
C1596 C1597 1.390 . S
C1597 C1596 1.390 . S
C1597 C1598 1.394 1_655 S
C1597 C1603 1.465 1_556 S
C1598 C1593 1.399 . S
C1598 C1597 1.394 1_455 S
C1598 C1599 1.507 1_556 S
C1599 C1598 1.507 1_554 S
C1599 C1600 1.502 . S
C1599 C1601 1.561 1_454 S
C1599 C1602 1.535 . S
C1600 H1584 0.959 . S
C1600 H1585 0.959 . S
C1600 H1586 0.961 1_554 S
C1600 C1599 1.502 . S
C1601 H1587 0.964 . S
C1601 H1588 0.957 1_556 S
C1601 H1589 0.958 1_556 S
C1601 C1599 1.561 1_656 S
C1602 C1599 1.535 . S
C1602 C1603 1.396 1_455 S
C1602 C1607 1.390 . S
C1603 C1597 1.465 1_554 S
C1603 C1602 1.396 1_655 S
C1603 C1604 1.399 . S
C1604 H1590 0.929 . S
C1604 C1603 1.399 . S
C1604 C1605 1.385 . S
C1605 H1591 0.931 . S
C1605 C1604 1.385 . S
C1605 C1606 1.389 . S
C1606 C1605 1.389 . S
C1606 C1607 1.387 1_655 S
C1607 H1592 0.930 . S
C1607 C1602 1.390 . S
C1607 C1606 1.387 1_455 S
C541 C73 1.030 . S
C553 C7 1.079 . S
C568 C106 1.107 . S
C580 C40 1.032 . S
C595 C205 1.058 . S
C607 C139 1.035 . S
C622 C172 1.089 . S
C634 C238 1.158 . S
C649 C271 1.132 . S
C661 C337 1.056 . S
C676 C304 1.101 . S
C688 C370 1.033 . S
C703 C469 1.030 . S
C715 C403 1.085 . S
C730 C502 1.097 . S
C742 C436 1.034 . S
C757 C18 1.241 . S
C769 C249 1.245 . S
C784 C150 1.247 . S
C796 C51 1.249 . S
C811 C183 1.217 . S
C823 C84 1.216 . S
C838 C216 1.222 . S
C850 C117 1.218 . S
C865 C513 1.240 . S
C877 C282 1.244 . S
C892 C414 1.220 . S
C904 C315 1.217 . S
C919 C447 1.245 . S
C931 C348 1.248 . S
C946 C480 1.236 . S
C958 C381 1.231 . S
C973 C21 0.729 . S
C985 N365 0.889 . S
C1000 C54 0.783 . S
C1012 N266 0.827 . S
C1027 C87 0.822 . S
C1039 N299 0.846 . S
C1054 N332 0.762 . S
C1066 C120 0.914 . S
C1081 C153 0.792 . S
C1093 N431 0.862 . S
C1108 C186 0.915 . S
C1120 N464 0.768 . S
C1135 C219 0.707 . S
C1147 N497 0.875 . S
C1162 C252 0.718 . S
C1174 N398 0.868 . S
C1189 N101 0.873 . S
C1201 C285 0.713 . S
C1216 N2 0.896 . S
C1228 C318 0.690 . S
C1243 N35 0.887 . S
C1255 C351 0.739 . S
C1270 C384 0.772 . S
C1282 N68 0.871 . S
C1297 C417 0.767 . S
C1309 N167 0.875 . S
C1324 C450 0.792 . S
C1336 N200 0.822 . S
C1351 C483 0.817 . S
C1363 N233 0.806 . S
C1378 C516 0.835 . S
C1390 N134 0.837 . S
C1405 N145 1.649 . S
C1417 N13 1.688 . S
C1432 N178 1.716 . S
C1444 N46 1.717 . S
C1459 N79 1.629 . S
C1471 N211 1.660 . S
C1486 N244 1.711 . S
C1498 N112 1.704 . S
C1513 N277 1.717 . S
C1525 N409 1.688 1_545 S
C1540 N442 1.711 . S
C1552 N310 1.702 . S
C1567 N475 1.631 . S
C1579 N343 1.665 . S
C1594 N508 1.631 . S
C1606 N376 1.641 . S
