# Generated by pormake.
# Topology uon, (4)-cn, num edge types: 1
# Building blocks:
#     Node 0, Type 0, BuildingBlock: ESEHIV_clean_sbu_0, # of connection points: 4
#     Node 1, Type 0, BuildingBlock: ESEHIV_clean_sbu_0, # of connection points: 4
#     Node 2, Type 0, BuildingBlock: ESEHIV_clean_sbu_0, # of connection points: 4
#     Node 3, Type 0, BuildingBlock: ESEHIV_clean_sbu_0, # of connection points: 4
#     Node 4, Type 0, BuildingBlock: ESEHIV_clean_sbu_0, # of connection points: 4
#     Node 5, Type 0, BuildingBlock: ESEHIV_clean_sbu_0, # of connection points: 4
#     Edge 6, Type (0, 0), BuildingBlock: ZUJKAS_clean_linker_0, # of connection points: 2
#     Edge 7, Type (0, 0), BuildingBlock: ZUJKAS_clean_linker_0, # of connection points: 2
#     Edge 8, Type (0, 0), BuildingBlock: ZUJKAS_clean_linker_0, # of connection points: 2
#     Edge 9, Type (0, 0), BuildingBlock: ZUJKAS_clean_linker_0, # of connection points: 2
#     Edge 10, Type (0, 0), BuildingBlock: ZUJKAS_clean_linker_0, # of connection points: 2
#     Edge 11, Type (0, 0), BuildingBlock: ZUJKAS_clean_linker_0, # of connection points: 2
#     Edge 12, Type (0, 0), BuildingBlock: ZUJKAS_clean_linker_0, # of connection points: 2
#     Edge 13, Type (0, 0), BuildingBlock: ZUJKAS_clean_linker_0, # of connection points: 2
#     Edge 14, Type (0, 0), BuildingBlock: ZUJKAS_clean_linker_0, # of connection points: 2
#     Edge 15, Type (0, 0), BuildingBlock: ZUJKAS_clean_linker_0, # of connection points: 2
#     Edge 16, Type (0, 0), BuildingBlock: ZUJKAS_clean_linker_0, # of connection points: 2
#     Edge 17, Type (0, 0), BuildingBlock: ZUJKAS_clean_linker_0, # of connection points: 2
# Relax obj value: 0.074
# Max RMSD: 0.073
# Mean RMSD: 0.073
data_MOF--net-uon--node1-ESEHIV_clean_sbu_0--edge1-ZUJKAS_clean_linker_0
_symmetry_space_group_name_H-M    P1
_symmetry_Int_Tables_number       1
_symmetry_cell_setting            triclinic
loop_
_symmetry_equiv_pos_as_xyz
'x, y, z'
_cell_length_a     44.311936
_cell_length_b     44.390225
_cell_length_c     35.410933
_cell_angle_alpha  89.955321
_cell_angle_beta   89.983979
_cell_angle_gamma 120.05967
loop_
_atom_site_label
_atom_site_type_symbol
_atom_site_fract_x
_atom_site_fract_y
_atom_site_fract_z
_atom_type_partial_charge
Cu0 Cu 0.23423 0.4301 1.00626 0.0
N1 N 0.283 0.45649 1.00359 0.0
N2 N 0.33418 0.49225 0.97562 0.0
C3 C 0.2994 0.47198 0.97118 0.0
C4 C 0.33999 0.48938 1.01257 0.0
C5 C 0.30833 0.46712 0.02976 0.0
O6 O 0.22294 0.4067 0.95705 0.0
C7 C 0.22581 0.47424 0.05231 0.0
O8 O 0.2448 0.46506 0.07243 0.0
H9 H 0.28571 0.46955 0.94504 0.0
H10 H 0.30408 0.45999 0.0593 0.0
N11 N 0.21564 0.3961 0.04455 0.0
N12 N 0.17425 0.35866 0.08411 0.0
C13 C 0.18515 0.38697 0.06195 0.0
C14 C 0.22456 0.37274 0.05625 0.0
C15 C 0.19891 0.34946 0.08057 0.0
C16 C 0.20672 0.37363 0.9537 0.0
O17 O 0.18556 0.3545 0.98082 0.0
H18 H 0.17018 0.39975 0.05673 0.0
H19 H 0.2471 0.37166 0.04636 0.0
O20 O 0.21777 0.46266 0.01857 0.0
H21 H 0.36519 0.50266 0.02628 0.0
H22 H 0.19811 0.32714 0.09395 0.0
Cu23 Cu 0.81808 0.23486 0.35053 0.0
N24 N 0.83804 0.28332 0.34436 0.0
N25 N 0.85131 0.3323 0.31258 0.0
C26 C 0.8343 0.29712 0.312 0.0
C27 C 0.86656 0.34095 0.347 0.0
C28 C 0.85836 0.31072 0.36652 0.0
O29 O 0.8396 0.22255 0.30921 0.0
C30 C 0.7603 0.23039 0.38095 0.0
O31 O 0.78634 0.25566 0.39948 0.0
H32 H 0.81981 0.2813 0.28812 0.0
H33 H 0.86667 0.30895 0.39472 0.0
N34 N 0.82716 0.21814 0.39548 0.0
N35 N 0.81835 0.17732 0.43852 0.0
C36 C 0.80797 0.18436 0.40546 0.0
C37 C 0.85069 0.23332 0.42335 0.0
C38 C 0.84541 0.20814 0.44985 0.0
C39 C 0.87253 0.2368 0.31445 0.0
O40 O 0.88547 0.25444 0.34579 0.0
H41 H 0.78691 0.16518 0.38827 0.0
H42 H 0.8703 0.2606 0.42436 0.0
O43 O 0.76744 0.21585 0.3539 0.0
H44 H 0.88231 0.36718 0.35759 0.0
H45 H 0.86009 0.21235 0.47565 0.0
Cu46 Cu 0.60491 0.81619 0.68239 0.0
N47 N 0.5793 0.83913 0.67762 0.0
N48 N 0.54439 0.85376 0.64647 0.0
C49 C 0.55504 0.83026 0.65043 0.0
C50 C 0.56274 0.87852 0.67254 0.0
C51 C 0.58434 0.86946 0.69167 0.0
O52 O 0.63129 0.82979 0.63487 0.0
C53 C 0.55192 0.76321 0.72097 0.0
O54 O 0.5561 0.79133 0.73802 0.0
H55 H 0.5473 0.80812 0.63203 0.0
H56 H 0.60357 0.88483 0.71277 0.0
N57 N 0.63571 0.82943 0.72355 0.0
N58 N 0.67038 0.8235 0.76541 0.0
C59 C 0.64433 0.8074 0.74009 0.0
C60 C 0.65689 0.86073 0.73915 0.0
C61 C 0.67839 0.85715 0.76495 0.0
C62 C 0.66442 0.84915 0.63399 0.0
O63 O 0.68264 0.84985 0.66354 0.0
H64 H 0.63293 0.78035 0.73204 0.0
H65 H 0.65787 0.8847 0.73106 0.0
O66 O 0.57099 0.767 0.69221 0.0
H67 H 0.56153 0.90203 0.67674 0.0
H68 H 0.69876 0.87784 0.78147 0.0
Cu69 Cu 0.80888 0.59093 0.01893 0.0
N70 N 0.76111 0.55784 0.01783 0.0
N71 N 0.71065 0.51977 0.99018 0.0
C72 C 0.74298 0.54731 0.98528 0.0
C73 C 0.70824 0.51289 0.02762 0.0
C74 C 0.73942 0.53648 0.04464 0.0
O75 O 0.81433 0.62513 0.98021 0.0
C76 C 0.82067 0.53338 1.01502 0.0
O77 O 0.78888 0.51536 1.00158 0.0
H78 H 0.75434 0.55825 0.95808 0.0
H79 H 0.74635 0.5369 0.074 0.0
N80 N 0.82571 0.61503 0.06455 0.0
N81 N 0.86667 0.64681 0.10745 0.0
C82 C 0.85985 0.63111 0.0734 0.0
C83 C 0.81005 0.62055 0.09417 0.0
C84 C 0.83535 0.64038 0.12062 0.0
C85 C 0.79564 0.63886 0.98791 0.0
O86 O 0.77842 0.63026 0.02 0.0
H87 H 0.87943 0.63154 0.05477 0.0
H88 H 0.78234 0.61085 0.09643 0.0
O89 O 0.83546 0.56654 0.0156 0.0
H90 H 0.686 0.4917 0.0416 0.0
H91 H 0.83094 0.6489 0.14764 0.0
Cu92 Cu 0.23325 0.80331 0.3397 0.0
N93 N 0.20938 0.75471 0.33499 0.0
N94 N 0.19203 0.70424 0.30487 0.0
C95 C 0.21104 0.73927 0.30296 0.0
C96 C 0.17774 0.69728 0.33979 0.0
C97 C 0.18829 0.72854 0.35825 0.0
O98 O 0.21896 0.81653 0.29303 0.0
C99 C 0.28799 0.80264 0.37437 0.0
O100 O 0.26084 0.77668 0.39081 0.0
H101 H 0.22652 0.7537 0.2788 0.0
H102 H 0.18124 0.7319 0.38654 0.0
N103 N 0.22171 0.8214 0.38157 0.0
N104 N 0.22901 0.86337 0.42223 0.0
C105 C 0.24362 0.85354 0.39492 0.0
C106 C 0.19204 0.80992 0.40137 0.0
C107 C 0.19649 0.83573 0.42652 0.0
C108 C 0.19868 0.82921 0.29335 0.0
O109 O 0.19727 0.8453 0.32379 0.0
H110 H 0.26965 0.86961 0.38383 0.0
H111 H 0.16848 0.78527 0.39678 0.0
O112 O 0.28276 0.81887 0.34765 0.0
H113 H 0.16064 0.67153 0.35106 0.0
H114 H 0.17671 0.83459 0.44534 0.0
Cu115 Cu 0.44292 0.21659 0.68226 0.0
N116 N 0.46655 0.19155 0.67675 0.0
N117 N 0.49869 0.17357 0.6455 0.0
C118 C 0.48007 0.18997 0.6432 0.0
C119 C 0.49676 0.16424 0.68212 0.0
C120 C 0.47659 0.17507 0.70132 0.0
O121 O 0.41349 0.20203 0.63681 0.0
C122 C 0.49859 0.2705 0.71662 0.0
O123 O 0.49472 0.24307 0.73493 0.0
H124 H 0.47751 0.20205 0.61776 0.0
H125 H 0.47071 0.17214 0.7312 0.0
N126 N 0.41496 0.20749 0.72543 0.0
N127 N 0.38193 0.21662 0.76675 0.0
C128 C 0.40172 0.22789 0.73522 0.0
C129 C 0.4034 0.18231 0.75183 0.0
C130 C 0.38286 0.18779 0.77728 0.0
C131 C 0.3822 0.17665 0.63929 0.0
O132 O 0.36788 0.16718 0.67283 0.0
H133 H 0.40603 0.25027 0.71879 0.0
H134 H 0.40918 0.16136 0.75236 0.0
O135 O 0.47836 0.26584 0.68875 0.0
H136 H 0.50933 0.15094 0.69421 0.0
H137 H 0.36987 0.1719 0.80174 0.0
H138 H 0.1808 0.30405 0.94154 0.0
H139 H 0.20813 0.27673 0.90625 0.0
H140 H 0.28924 0.37757 0.869 0.0
H141 H 0.26203 0.40529 0.90418 0.0
H142 H 0.26445 0.32342 0.81194 0.0
H143 H 0.29917 0.28331 0.94613 0.0
H144 H 0.25379 0.26982 0.941 0.0
H145 H 0.28547 0.31535 0.9444 0.0
C146 C 0.2041 0.3205 0.92531 0.0
C147 C 0.21927 0.35698 0.92604 0.0
C148 C 0.21986 0.30478 0.90535 0.0
C149 C 0.25119 0.3251 0.88566 0.0
C150 C 0.26523 0.36135 0.88423 0.0
H151 H 0.39793 0.28422 0.76343 0.0
H152 H 0.36565 0.30992 0.79126 0.0
C153 C 0.24949 0.37716 0.90427 0.0
C154 C 0.27009 0.30867 0.86821 0.0
H155 H 0.31147 0.26323 0.88965 0.0
C156 C 0.2748 0.31033 0.8289 0.0
C157 C 0.2836 0.29152 0.89034 0.0
C158 C 0.2806 0.29005 0.93284 0.0
C159 C 0.29207 0.2948 0.8111 0.0
C160 C 0.30577 0.27779 0.83327 0.0
C161 C 0.30096 0.27613 0.87258 0.0
C162 C 0.32556 0.262 0.81636 0.0
C163 C 0.29474 0.29607 0.76859 0.0
C164 C 0.31468 0.22665 0.8222 0.0
C165 C 0.33328 0.21182 0.80638 0.0
C166 C 0.36332 0.23202 0.78441 0.0
C167 C 0.37453 0.26759 0.77936 0.0
C168 C 0.35599 0.28239 0.79524 0.0
H169 H 0.27457 0.3006 0.75549 0.0
H170 H 0.32067 0.31785 0.76013 0.0
H171 H 0.29195 0.27153 0.7571 0.0
H172 H 0.29145 0.21038 0.83862 0.0
H173 H 0.32372 0.18437 0.81077 0.0
H174 H 0.86293 0.22181 0.23759 0.0
H175 H 0.90852 0.2315 0.19118 0.0
H176 H 0.9844 0.26538 0.28086 0.0
H177 H 0.93961 0.25466 0.32662 0.0
H178 H 0.96506 0.29033 0.17185 0.0
H179 H 1.01065 0.20415 0.2264 0.0
H180 H 0.97042 0.20085 0.24233 0.0
H181 H 1.01138 0.23142 0.264 0.0
C182 C 0.88916 0.23037 0.24736 0.0
C183 C 0.89748 0.23732 0.28588 0.0
C184 C 0.91528 0.23614 0.22082 0.0
C185 C 0.95001 0.24863 0.23245 0.0
C186 C 0.95786 0.25475 0.271 0.0
H187 H 0.14212 0.38813 0.12073 0.0
H188 H 0.08589 0.35851 0.15323 0.0
C189 C 0.93203 0.24889 0.29726 0.0
C190 C 0.97903 0.25834 0.2048 0.0
H191 H 0.05409 0.25549 0.19234 0.0
C192 C 0.98415 0.28214 0.17588 0.0
C193 C 1.0038 0.24725 0.20916 0.0
C194 C 0.9985 0.21919 0.23691 0.0
C195 C 1.01423 0.29671 0.15301 0.0
C196 C 0.04072 0.28832 0.16005 0.0
C197 C 0.03447 0.2628 0.18731 0.0
C198 C 0.07539 0.30639 0.14049 0.0
C199 C 1.01708 0.3209 0.12149 0.0
C200 C 0.08957 0.28729 0.12412 0.0
C201 C 0.12236 0.30435 0.10644 0.0
C202 C 0.14156 0.34089 0.1044 0.0
C203 C 0.12767 0.35995 0.12131 0.0
C204 C 0.09527 0.34296 0.13957 0.0
H205 H 0.99089 0.31436 0.11091 0.0
H206 H 0.02984 0.34797 0.13234 0.0
H207 H 0.03259 0.31982 0.09744 0.0
H208 H 0.0751 0.2591 0.12463 0.0
H209 H 0.13228 0.28896 0.09348 0.0
H210 H 0.75173 0.12355 0.43343 0.0
H211 H 0.72678 0.06656 0.46375 0.0
H212 H 0.82584 0.09721 0.51614 0.0
H213 H 0.85093 0.15448 0.48604 0.0
H214 H 0.74317 0.01552 0.45788 0.0
H215 H 0.76149 0.06141 0.6061 0.0
H216 H 0.76684 0.08942 0.56667 0.0
H217 H 0.80123 0.08096 0.57937 0.0
C218 C 0.76832 0.11823 0.45129 0.0
C219 C 0.80343 0.14381 0.45726 0.0
C220 C 0.75393 0.08555 0.46875 0.0
C221 C 0.77418 0.07754 0.49274 0.0
C222 C 0.80933 0.10291 0.49855 0.0
H223 H 0.73389 0.89594 0.62527 0.0
H224 H 0.76047 0.94951 0.58805 0.0
C225 C 0.82372 0.13572 0.48125 0.0
C226 C 0.75855 0.04252 0.51111 0.0
H227 H 0.74341 1.00181 0.59684 0.0
C228 C 0.74313 1.01255 0.48829 0.0
C229 C 0.7583 0.03844 0.55083 0.0
C230 C 0.77253 0.06922 0.57722 0.0
C231 C 0.72813 0.97887 0.50396 0.0
C232 C 0.72817 0.97488 0.54362 0.0
C233 C 0.74355 1.0048 0.56642 0.0
C234 C 0.71225 0.94005 0.56233 0.0
C235 C 0.71296 0.94785 0.47791 0.0
C236 C 0.67628 0.91627 0.55968 0.0
C237 C 0.6609 0.88538 0.58094 0.0
C238 C 0.68115 0.87769 0.60552 0.0
C239 C 0.71741 0.90084 0.60667 0.0
C240 C 0.7327 0.93166 0.5855 0.0
H241 H 0.72261 0.95537 0.44851 0.0
H242 H 0.71937 0.92798 0.48785 0.0
H243 H 0.68416 0.93577 0.47752 0.0
H244 H 0.6598 0.92232 0.5425 0.0
H245 H 0.63289 0.86848 0.57959 0.0
H246 H 0.75408 0.66657 0.99916 0.0
H247 H 0.74097 0.70111 0.95663 0.0
H248 H 0.8114 0.69926 0.87381 0.0
H249 H 0.82408 0.66307 0.91654 0.0
H250 H 0.7804 0.76399 0.92787 0.0
H251 H 0.72449 0.66791 0.81095 0.0
H252 H 0.73402 0.65673 0.85666 0.0
H253 H 0.76867 0.6812 0.82365 0.0
C254 C 0.76699 0.67333 0.97195 0.0
C255 C 0.79013 0.66176 0.96134 0.0
C256 C 0.75942 0.69331 0.94756 0.0
C257 C 0.77479 0.70264 0.91171 0.0
C258 C 0.79859 0.69186 0.90103 0.0
H259 H 0.73823 0.85488 0.78756 0.0
H260 H 0.76735 0.82785 0.82035 0.0
C261 C 0.80607 0.67142 0.92558 0.0
C262 C 0.76516 0.7235 0.88638 0.0
H263 H 0.72354 0.72009 0.80376 0.0
C264 C 0.76828 0.75454 0.90053 0.0
C265 C 0.74897 0.71108 0.85086 0.0
C266 C 0.74349 0.67729 0.83461 0.0
C267 C 0.75463 0.77271 0.88105 0.0
C268 C 0.73824 0.7602 0.84562 0.0
C269 C 0.73614 0.72979 0.83083 0.0
C270 C 0.72114 0.77692 0.82467 0.0
C271 C 0.75629 0.80408 0.8997 0.0
C272 C 0.68564 0.75727 0.81513 0.0
C273 C 0.66906 0.77261 0.79603 0.0
C274 C 0.68749 0.80807 0.78603 0.0
C275 C 0.72308 0.82772 0.79545 0.0
C276 C 0.73978 0.81225 0.81424 0.0
H277 H 0.76118 0.80469 0.93054 0.0
H278 H 0.77799 0.82809 0.88713 0.0
H279 H 0.73169 0.8045 0.89537 0.0
H280 H 0.67058 0.73002 0.82283 0.0
H281 H 0.64161 0.75675 0.78946 0.0
H282 H 0.92207 0.63712 0.09882 0.0
H283 H 0.97973 0.67076 0.1275 0.0
H284 H 0.94637 0.73473 0.18493 0.0
H285 H 0.88838 0.70079 0.15658 0.0
H286 H 0.02842 0.7387 0.12179 0.0
H287 H 0.98717 0.708 0.27131 0.0
H288 H 0.95829 0.68507 0.23258 0.0
H289 H 0.96554 0.72714 0.24667 0.0
C290 C 0.92696 0.65838 0.1175 0.0
C291 C 0.90047 0.66619 0.1254 0.0
C292 C 0.96 0.67758 0.13399 0.0
C293 C 0.96746 0.70508 0.15885 0.0
C294 C 0.94114 0.71312 0.16662 0.0
H295 H 0.15073 0.85041 0.28645 0.0
H296 H 0.09639 0.82229 0.25056 0.0
C297 C 0.90794 0.69372 0.15034 0.0
C298 C 1.00293 0.72555 0.17603 0.0
H299 H 0.04598 0.75158 0.26039 0.0
C300 C 0.03223 0.7414 0.15212 0.0
C301 C 1.0081 0.72906 0.21563 0.0
C302 C 0.97816 0.71115 0.24307 0.0
C303 C 0.0663 0.76103 0.16664 0.0
C304 C 0.07136 0.76475 0.20617 0.0
C305 C 0.04211 0.74894 0.23006 0.0
C306 C 0.10665 0.78462 0.22367 0.0
C307 C 0.09658 0.77815 0.13956 0.0
C308 C 0.13112 0.77346 0.21979 0.0
C309 C 0.16244 0.78961 0.2403 0.0
C310 C 0.16983 0.81714 0.2653 0.0
C311 C 0.14603 0.82934 0.26752 0.0
C312 C 0.11479 0.81317 0.2471 0.0
H313 H 0.08796 0.77986 0.11057 0.0
H314 H 0.11589 0.80475 0.14927 0.0
H315 H 0.10984 0.76259 0.13823 0.0
H316 H 0.12527 0.75117 0.20233 0.0
H317 H 0.17988 0.77921 0.23814 0.0
H318 H 0.41162 0.17042 0.57315 0.0
H319 H 0.38534 0.12161 0.5285 0.0
H320 H 0.28879 0.07685 0.59086 0.0
H321 H 0.3143 0.12569 0.63441 0.0
H322 H 0.36342 0.05543 0.54541 0.0
H323 H 0.25098 0.06084 0.48639 0.0
H324 H 0.28527 0.0968 0.51205 0.0
H325 H 0.25002 0.06105 0.53696 0.0
C326 C 0.38441 0.15085 0.57648 0.0
C327 C 0.36505 0.15214 0.60732 0.0
C328 C 0.36947 0.12272 0.55112 0.0
C329 C 0.33484 0.09552 0.55592 0.0
C330 C 0.31516 0.09773 0.58574 0.0
H331 H 0.20708 0.88027 0.48685 0.0
H332 H 0.23324 0.93729 0.51747 0.0
C333 C 0.32995 0.12574 0.61088 0.0
C334 C 0.32026 0.06316 0.53256 0.0
H335 H 0.24807 1.00513 0.4828 0.0
C336 C 0.33845 0.04477 0.53123 0.0
C337 C 0.28755 0.04895 0.51406 0.0
C338 C 0.26754 0.06817 0.5121 0.0
C339 C 0.32438 1.01223 0.51321 0.0
C340 C 0.29123 0.99759 0.49588 0.0
C341 C 0.27329 0.01618 0.49649 0.0
C342 C 0.27492 0.96307 0.47681 0.0
C343 C 0.34459 0.99318 0.51378 0.0
C344 C 0.28934 0.95865 0.44349 0.0
C345 C 0.27429 0.92618 0.42566 0.0
C346 C 0.24439 0.89708 0.44074 0.0
C347 C 0.22984 0.90181 0.47408 0.0
C348 C 0.24485 0.93446 0.49177 0.0
H349 H 0.36658 1.00483 0.53417 0.0
H350 H 0.32723 0.96535 0.52116 0.0
H351 H 0.35544 0.99428 0.48523 0.0
H352 H 0.31221 0.98047 0.43109 0.0
H353 H 0.28609 0.92425 0.39974 0.0
H354 H 0.18107 0.63868 0.3141 0.0
H355 H 0.17993 0.59953 0.26458 0.0
H356 H 0.19391 0.67526 0.17984 0.0
H357 H 0.19536 0.7145 0.2291 0.0
H358 H 0.13779 0.56937 0.20256 0.0
H359 H 0.27383 0.65888 0.15581 0.0
H360 H 0.25633 0.66564 0.1989 0.0
H361 H 0.24594 0.67737 0.15415 0.0
C362 C 0.18362 0.64687 0.28492 0.0
C363 C 0.18883 0.67998 0.2757 0.0
C364 C 0.18307 0.62451 0.25659 0.0
C365 C 0.18764 0.63471 0.21843 0.0
C366 C 0.19137 0.66715 0.20907 0.0
H367 H 0.21473 0.52566 0.02257 0.0
H368 H 0.20061 0.56469 0.05861 0.0
C369 C 0.19216 0.68958 0.23733 0.0
C370 C 0.18896 0.61159 0.18865 0.0
H371 H 0.24194 0.6068 0.12143 0.0
C372 C 0.16051 0.57767 0.18471 0.0
C373 C 0.2185 0.62237 0.16506 0.0
C374 C 0.25053 0.65792 0.16879 0.0
C375 C 0.16104 0.55417 0.15842 0.0
C376 C 0.19095 0.56464 0.13564 0.0
C377 C 0.2189 0.59889 0.13862 0.0
C378 C 0.19565 0.53932 0.11238 0.0
C379 C 0.1297 0.51811 0.15554 0.0
C380 C 0.19732 0.51212 0.13049 0.0
C381 C 0.2056 0.49031 0.11021 0.0
C382 C 0.21233 0.49495 0.07119 0.0
C383 C 0.20936 0.5213 0.05253 0.0
C384 C 0.20147 0.54364 0.07312 0.0
H385 H 0.10563 0.51755 0.16546 0.0
H386 H 0.12566 0.50835 0.12605 0.0
H387 H 0.13388 0.50009 0.17361 0.0
H388 H 0.19355 0.50855 0.16074 0.0
H389 H 0.20759 0.47017 0.12541 0.0
H390 H 0.48065 0.16062 0.57191 0.0
H391 H 0.5163 0.15928 0.51981 0.0
H392 H 0.59872 0.17949 0.59843 0.0
H393 H 0.56238 0.17927 0.65064 0.0
H394 H 0.57272 0.20765 0.4926 0.0
H395 H 0.60226 0.10652 0.53828 0.0
H396 H 0.56972 0.11292 0.56163 0.0
H397 H 0.61514 0.1391 0.57415 0.0
C398 C 0.50619 0.16422 0.57806 0.0
C399 C 0.51866 0.16991 0.61539 0.0
C400 C 0.5266 0.16345 0.54825 0.0
C401 C 0.56022 0.16873 0.55491 0.0
C402 C 0.57256 0.17413 0.59236 0.0
H403 H 0.73816 0.2697 0.41566 0.0
H404 H 0.68532 0.25045 0.45222 0.0
C405 C 0.55184 0.17424 0.62229 0.0
C406 C 0.58332 0.17161 0.52251 0.0
H407 H 0.64223 0.14824 0.49268 0.0
C408 C 0.58739 0.1941 0.49247 0.0
C409 C 0.60209 0.15346 0.52133 0.0
C410 C 0.59675 0.12636 0.55039 0.0
C411 C 0.61089 0.2004 0.46274 0.0
C412 C 0.63202 0.18478 0.46345 0.0
C413 C 0.62653 0.1607 0.49221 0.0
C414 C 0.66236 0.19606 0.43734 0.0
C415 C 0.61297 0.22407 0.431 0.0
C416 C 0.66761 0.17197 0.41655 0.0
C417 C 0.6984 0.18307 0.39543 0.0
C418 C 0.72452 0.21837 0.39525 0.0
C419 C 0.71848 0.24235 0.41494 0.0
C420 C 0.68802 0.23137 0.4358 0.0
H421 H 0.58736 0.22238 0.42643 0.0
H422 H 0.63199 0.25142 0.43857 0.0
H423 H 0.62136 0.21762 0.40412 0.0
H424 H 0.64836 0.14451 0.4175 0.0
H425 H 0.70258 0.1639 0.38114 0.0
H426 H 0.55149 0.70068 0.7156 0.0
H427 H 0.51439 0.64704 0.75188 0.0
H428 H 0.461 0.69579 0.80221 0.0
H429 H 0.49713 0.7485 0.76625 0.0
H430 H 0.50893 0.64 0.83079 0.0
H431 H 0.38015 0.60253 0.76986 0.0
H432 H 0.42047 0.63317 0.747 0.0
H433 H 0.40277 0.64723 0.78436 0.0
C434 C 0.53125 0.69953 0.73374 0.0
C435 C 0.52718 0.72882 0.73787 0.0
C436 C 0.51026 0.66901 0.75468 0.0
C437 C 0.48454 0.66716 0.77953 0.0
C438 C 0.48006 0.69616 0.78278 0.0
H439 H 0.39308 0.5548 0.9857 0.0
H440 H 0.43129 0.59421 0.93643 0.0
C441 C 0.50098 0.72645 0.76223 0.0
C442 C 0.46351 0.63615 0.80404 0.0
H443 H 0.37976 0.58042 0.83211 0.0
C444 C 0.48066 0.62654 0.83068 0.0
C445 C 0.42659 0.61819 0.80375 0.0
C446 C 0.40642 0.62556 0.77443 0.0
C447 C 0.46198 0.60076 0.85813 0.0
C448 C 0.42512 0.58459 0.85953 0.0
C449 C 0.40798 0.59302 0.83163 0.0
C450 C 0.40369 0.55952 0.88995 0.0
C451 C 0.48201 0.59117 0.88531 0.0
C452 C 0.37502 0.52695 0.88057 0.0
C453 C 0.35289 0.5046 0.90872 0.0
C454 C 0.35883 0.51418 0.94706 0.0
C455 C 0.38803 0.54639 0.95656 0.0
C456 C 0.41001 0.56892 0.92831 0.0
H457 H 0.50735 0.59661 0.87306 0.0
H458 H 0.48768 0.60705 0.91131 0.0
H459 H 0.46689 0.56324 0.89328 0.0
H460 H 0.36943 0.51897 0.85131 0.0
H461 H 0.3309 0.47984 0.90042 0.0
H462 H 0.87583 0.562 0.06491 0.0
H463 H 0.8898 0.53125 0.11315 0.0
H464 H 0.80826 0.43303 0.07037 0.0
H465 H 0.79474 0.46334 0.02179 0.0
H466 H 0.84713 0.49158 0.16903 0.0
H467 H 0.8843 0.4103 0.08527 0.0
H468 H 0.88162 0.44614 0.0648 0.0
H469 H 0.84291 0.40425 0.07064 0.0
C470 C 0.86158 0.53381 0.06499 0.0
C471 C 0.83419 0.51521 0.03921 0.0
C472 C 0.86944 0.51623 0.09285 0.0
C473 C 0.85035 0.47969 0.09538 0.0
C474 C 0.82398 0.46111 0.06869 0.0
H475 H 0.80668 0.31613 0.25318 0.0
H476 H 0.81008 0.35405 0.20162 0.0
C477 C 0.81615 0.47859 0.04088 0.0
C478 C 0.8556 0.46103 0.12767 0.0
H479 H 0.86631 0.39182 0.14939 0.0
C480 C 0.85192 0.47015 0.16473 0.0
C481 C 0.86183 0.43298 0.12227 0.0
C482 C 0.86826 0.42308 0.0836 0.0
C483 C 0.8527 0.45109 0.1962 0.0
C484 C 0.85761 0.42226 0.19063 0.0
C485 C 0.86231 0.41376 0.15371 0.0
C486 C 0.85622 0.39954 0.22247 0.0
C487 C 0.84678 0.46104 0.23508 0.0
C488 C 0.88118 0.41232 0.25151 0.0
C489 C 0.87953 0.39048 0.28116 0.0
C490 C 0.85289 0.35528 0.28242 0.0
C491 C 0.82794 0.34275 0.25319 0.0
C492 C 0.82971 0.36452 0.22359 0.0
H493 H 0.83684 0.47956 0.23395 0.0
H494 H 0.82794 0.43759 0.25117 0.0
H495 H 0.8718 0.47363 0.25079 0.0
H496 H 0.90222 0.43911 0.25103 0.0
H497 H 0.89949 0.40111 0.3027 0.0
H498 H 0.30976 0.76191 0.40696 0.0
H499 H 0.36086 0.77996 0.44676 0.0
H500 H 0.39566 0.88753 0.42154 0.0
H501 H 0.34392 0.86938 0.38136 0.0
H502 H 0.43376 0.82092 0.43428 0.0
H503 H 0.38581 0.88148 0.53829 0.0
H504 H 0.35823 0.85283 0.50146 0.0
H505 H 0.3913 0.89653 0.49024 0.0
C506 C 0.32865 0.78942 0.40919 0.0
C507 C 0.32281 0.81423 0.39103 0.0
C508 C 0.35786 0.79971 0.43205 0.0
C509 C 0.38183 0.8351 0.43775 0.0
C510 C 0.37722 0.86006 0.418 0.0
H511 H 0.54366 0.90979 0.61567 0.0
H512 H 0.50709 0.90928 0.56337 0.0
C513 C 0.34793 0.84968 0.39467 0.0
C514 C 0.41016 0.84503 0.46608 0.0
H515 H 0.43473 0.87732 0.55552 0.0
C516 C 0.43428 0.8337 0.46056 0.0
C517 C 0.41089 0.86172 0.50044 0.0
C518 C 0.38512 0.87374 0.50833 0.0
C519 C 0.45838 0.8377 0.48874 0.0
C520 C 0.45793 0.85276 0.52385 0.0
C521 C 0.43493 0.86558 0.52875 0.0
C522 C 0.47956 0.85335 0.55645 0.0
C523 C 0.48391 0.82542 0.48072 0.0
C524 C 0.47557 0.82207 0.57083 0.0
C525 C 0.49624 0.82226 0.60078 0.0
C526 C 0.52138 0.85375 0.61738 0.0
C527 C 0.52452 0.88505 0.6038 0.0
C528 C 0.50376 0.88482 0.5737 0.0
H529 H 0.48839 0.82495 0.44991 0.0
H530 H 0.50935 0.84233 0.49472 0.0
H531 H 0.47317 0.79852 0.49163 0.0
H532 H 0.45638 0.79736 0.55883 0.0
H533 H 0.49249 0.79762 0.61096 0.0
H534 H 0.56037 0.28902 0.74912 0.0
H535 H 0.59534 0.33942 0.78897 0.0
H536 H 0.52803 0.38051 0.7617 0.0
H537 H 0.49234 0.32927 0.72168 0.0
H538 H 0.63211 0.41041 0.77907 0.0
H539 H 0.52032 0.37111 0.87718 0.0
H540 H 0.51961 0.34296 0.84004 0.0
H541 H 0.51359 0.37909 0.82899 0.0
C542 C 0.55342 0.30916 0.75086 0.0
C543 C 0.52359 0.30517 0.73229 0.0
C544 C 0.57343 0.33799 0.77376 0.0
C545 C 0.56401 0.3635 0.77905 0.0
C546 C 0.53548 0.36084 0.75861 0.0
H547 H 0.70342 0.54305 0.92177 0.0
H548 H 0.66642 0.5082 0.8694 0.0
C549 C 0.5154 0.33185 0.7353 0.0
C550 C 0.5831 0.39118 0.80789 0.0
H551 H 0.57433 0.41816 0.89567 0.0
C552 C 0.6194 0.41249 0.80432 0.0
C553 C 0.56662 0.39347 0.8412 0.0
C554 C 0.52795 0.37033 0.84746 0.0
C555 C 0.63974 0.43527 0.83336 0.0
C556 C 0.62331 0.43737 0.8668 0.0
C557 C 0.58691 0.41669 0.87002 0.0
C558 C 0.64372 0.45926 0.89957 0.0
C559 C 0.67886 0.4556 0.82867 0.0
C560 C 0.64228 0.44373 0.93465 0.0
C561 C 0.66331 0.46367 0.9648 0.0
C562 C 0.68631 0.49966 0.96055 0.0
C563 C 0.6866 0.51533 0.92583 0.0
C564 C 0.66546 0.49541 0.89579 0.0
H565 H 0.68781 0.44499 0.8056 0.0
H566 H 0.68711 0.48301 0.82158 0.0
H567 H 0.69214 0.45549 0.85521 0.0
H568 H 0.62564 0.41591 0.93837 0.0
H569 H 0.66249 0.45064 0.99093 0.0
loop_
_geom_bond_atom_site_label_1
_geom_bond_atom_site_label_2
_geom_bond_distance
_geom_bond_site_symmetry_2
_ccdc_geom_bond_type
Cu0 N1 1.999 . S
Cu0 O6 1.974 . S
Cu0 N11 1.985 1_556 S
Cu0 O20 1.959 1_556 S
N1 Cu0 1.999 . S
N1 C3 1.263 . S
N1 C5 1.389 . S
N2 C3 1.358 . S
N2 C4 1.400 . S
C3 N1 1.263 . S
C3 N2 1.358 . S
C3 H9 0.930 . S
C4 N2 1.400 . S
C4 C5 1.351 . S
C4 H21 0.930 . S
C5 N1 1.389 . S
C5 C4 1.351 . S
C5 H10 0.930 . S
O6 Cu0 1.974 . S
O6 C16 1.282 . S
C7 O8 1.261 . S
C7 O20 1.251 . S
O8 C7 1.261 . S
H9 C3 0.930 . S
H10 C5 0.930 . S
N11 Cu0 1.985 1_554 S
N11 C13 1.335 . S
N11 C14 1.390 . S
N12 C13 1.345 . S
N12 C15 1.336 . S
C13 N11 1.335 . S
C13 N12 1.345 . S
C13 H18 0.930 . S
C14 N11 1.390 . S
C14 C15 1.346 . S
C14 H19 0.930 . S
C15 N12 1.336 . S
C15 C14 1.346 . S
C15 H22 0.929 . S
C16 O6 1.282 . S
C16 O17 1.216 . S
O17 C16 1.216 . S
H18 C13 0.930 . S
H19 C14 0.930 . S
O20 Cu0 1.959 1_554 S
O20 C7 1.251 . S
H21 C4 0.930 . S
H22 C15 0.929 . S
Cu23 N24 1.999 . S
Cu23 O29 1.974 . S
Cu23 N34 1.985 . S
Cu23 O43 1.959 . S
N24 Cu23 1.999 . S
N24 C26 1.263 . S
N24 C28 1.389 . S
N25 C26 1.358 . S
N25 C27 1.400 . S
C26 N24 1.263 . S
C26 N25 1.358 . S
C26 H32 0.930 . S
C27 N25 1.400 . S
C27 C28 1.351 . S
C27 H44 0.930 . S
C28 N24 1.389 . S
C28 C27 1.351 . S
C28 H33 0.930 . S
O29 Cu23 1.974 . S
O29 C39 1.282 . S
C30 O31 1.261 . S
C30 O43 1.251 . S
O31 C30 1.261 . S
H32 C26 0.930 . S
H33 C28 0.930 . S
N34 Cu23 1.985 . S
N34 C36 1.335 . S
N34 C37 1.390 . S
N35 C36 1.345 . S
N35 C38 1.336 . S
C36 N34 1.335 . S
C36 N35 1.345 . S
C36 H41 0.930 . S
C37 N34 1.390 . S
C37 C38 1.346 . S
C37 H42 0.930 . S
C38 N35 1.336 . S
C38 C37 1.346 . S
C38 H45 0.929 . S
C39 O29 1.282 . S
C39 O40 1.216 . S
O40 C39 1.216 . S
H41 C36 0.930 . S
H42 C37 0.930 . S
O43 Cu23 1.959 . S
O43 C30 1.251 . S
H44 C27 0.930 . S
H45 C38 0.929 . S
Cu46 N47 1.999 . S
Cu46 O52 1.974 . S
Cu46 N57 1.985 . S
Cu46 O66 1.959 . S
N47 Cu46 1.999 . S
N47 C49 1.263 . S
N47 C51 1.389 . S
N48 C49 1.358 . S
N48 C50 1.400 . S
C49 N47 1.263 . S
C49 N48 1.358 . S
C49 H55 0.930 . S
C50 N48 1.400 . S
C50 C51 1.351 . S
C50 H67 0.930 . S
C51 N47 1.389 . S
C51 C50 1.351 . S
C51 H56 0.930 . S
O52 Cu46 1.974 . S
O52 C62 1.282 . S
C53 O54 1.261 . S
C53 O66 1.251 . S
O54 C53 1.261 . S
H55 C49 0.930 . S
H56 C51 0.930 . S
N57 Cu46 1.985 . S
N57 C59 1.335 . S
N57 C60 1.390 . S
N58 C59 1.345 . S
N58 C61 1.336 . S
C59 N57 1.335 . S
C59 N58 1.345 . S
C59 H64 0.930 . S
C60 N57 1.390 . S
C60 C61 1.346 . S
C60 H65 0.930 . S
C61 N58 1.336 . S
C61 C60 1.346 . S
C61 H68 0.929 . S
C62 O52 1.282 . S
C62 O63 1.216 . S
O63 C62 1.216 . S
H64 C59 0.930 . S
H65 C60 0.930 . S
O66 Cu46 1.959 . S
O66 C53 1.251 . S
H67 C50 0.930 . S
H68 C61 0.929 . S
Cu69 N70 1.999 . S
Cu69 O75 1.974 . S
Cu69 N80 1.985 1_556 S
Cu69 O89 1.959 1_556 S
N70 Cu69 1.999 . S
N70 C72 1.263 . S
N70 C74 1.389 . S
N71 C72 1.358 . S
N71 C73 1.400 . S
C72 N70 1.263 . S
C72 N71 1.358 . S
C72 H78 0.930 . S
C73 N71 1.400 . S
C73 C74 1.351 . S
C73 H90 0.930 . S
C74 N70 1.389 . S
C74 C73 1.351 . S
C74 H79 0.930 . S
O75 Cu69 1.974 . S
O75 C85 1.282 . S
C76 O77 1.261 . S
C76 O89 1.251 . S
O77 C76 1.261 . S
H78 C72 0.930 . S
H79 C74 0.930 . S
N80 Cu69 1.985 1_554 S
N80 C82 1.335 . S
N80 C83 1.390 . S
N81 C82 1.345 . S
N81 C84 1.336 . S
C82 N80 1.335 . S
C82 N81 1.345 . S
C82 H87 0.930 . S
C83 N80 1.390 . S
C83 C84 1.346 . S
C83 H88 0.930 . S
C84 N81 1.336 . S
C84 C83 1.346 . S
C84 H91 0.929 . S
C85 O75 1.282 . S
C85 O86 1.216 . S
O86 C85 1.216 . S
H87 C82 0.930 . S
H88 C83 0.930 . S
O89 Cu69 1.959 1_554 S
O89 C76 1.251 . S
H90 C73 0.930 . S
H91 C84 0.929 . S
Cu92 N93 1.999 . S
Cu92 O98 1.974 . S
Cu92 N103 1.985 . S
Cu92 O112 1.959 . S
N93 Cu92 1.999 . S
N93 C95 1.263 . S
N93 C97 1.389 . S
N94 C95 1.358 . S
N94 C96 1.400 . S
C95 N93 1.263 . S
C95 N94 1.358 . S
C95 H101 0.930 . S
C96 N94 1.400 . S
C96 C97 1.351 . S
C96 H113 0.930 . S
C97 N93 1.389 . S
C97 C96 1.351 . S
C97 H102 0.930 . S
O98 Cu92 1.974 . S
O98 C108 1.282 . S
C99 O100 1.261 . S
C99 O112 1.251 . S
O100 C99 1.261 . S
H101 C95 0.930 . S
H102 C97 0.930 . S
N103 Cu92 1.985 . S
N103 C105 1.335 . S
N103 C106 1.390 . S
N104 C105 1.345 . S
N104 C107 1.336 . S
C105 N103 1.335 . S
C105 N104 1.345 . S
C105 H110 0.930 . S
C106 N103 1.390 . S
C106 C107 1.346 . S
C106 H111 0.930 . S
C107 N104 1.336 . S
C107 C106 1.346 . S
C107 H114 0.929 . S
C108 O98 1.282 . S
C108 O109 1.216 . S
O109 C108 1.216 . S
H110 C105 0.930 . S
H111 C106 0.930 . S
O112 Cu92 1.959 . S
O112 C99 1.251 . S
H113 C96 0.930 . S
H114 C107 0.929 . S
Cu115 N116 1.999 . S
Cu115 O121 1.974 . S
Cu115 N126 1.985 . S
Cu115 O135 1.959 . S
N116 Cu115 1.999 . S
N116 C118 1.263 . S
N116 C120 1.389 . S
N117 C118 1.358 . S
N117 C119 1.400 . S
C118 N116 1.263 . S
C118 N117 1.358 . S
C118 H124 0.930 . S
C119 N117 1.400 . S
C119 C120 1.351 . S
C119 H136 0.930 . S
C120 N116 1.389 . S
C120 C119 1.351 . S
C120 H125 0.930 . S
O121 Cu115 1.974 . S
O121 C131 1.282 . S
C122 O123 1.261 . S
C122 O135 1.251 . S
O123 C122 1.261 . S
H124 C118 0.930 . S
H125 C120 0.930 . S
N126 Cu115 1.985 . S
N126 C128 1.335 . S
N126 C129 1.390 . S
N127 C128 1.345 . S
N127 C130 1.336 . S
C128 N126 1.335 . S
C128 N127 1.345 . S
C128 H133 0.930 . S
C129 N126 1.390 . S
C129 C130 1.346 . S
C129 H134 0.930 . S
C130 N127 1.336 . S
C130 C129 1.346 . S
C130 H137 0.929 . S
C131 O121 1.282 . S
C131 O132 1.216 . S
O132 C131 1.216 . S
H133 C128 0.930 . S
H134 C129 0.930 . S
O135 Cu115 1.959 . S
O135 C122 1.251 . S
H136 C119 0.930 . S
H137 C130 0.929 . S
H138 C146 0.929 . S
H139 C148 0.930 . S
H140 C150 0.930 . S
H141 C153 0.929 . S
H142 C156 0.930 . S
H143 C158 0.960 . S
H144 C158 0.960 . S
H145 C158 0.960 . S
C146 H138 0.929 . S
C146 C147 1.377 . S
C146 C148 1.384 . S
C147 C146 1.377 . S
C147 C153 1.390 . S
C148 H139 0.930 . S
C148 C146 1.384 . S
C148 C149 1.372 . S
C149 C148 1.372 . S
C149 C150 1.400 . S
C149 C154 1.490 . S
C150 H140 0.930 . S
C150 C149 1.400 . S
C150 C153 1.386 . S
H151 C167 0.930 . S
H152 C168 0.931 . S
C153 H141 0.929 . S
C153 C147 1.390 . S
C153 C150 1.386 . S
C154 C149 1.490 . S
C154 C156 1.395 . S
C154 C157 1.403 . S
H155 C161 0.930 . S
C156 H142 0.930 . S
C156 C154 1.395 . S
C156 C159 1.403 . S
C157 C154 1.403 . S
C157 C158 1.524 . S
C157 C161 1.400 . S
C158 H143 0.960 . S
C158 H144 0.960 . S
C158 H145 0.960 . S
C158 C157 1.524 . S
C159 C156 1.403 . S
C159 C160 1.392 . S
C159 C163 1.495 . S
C160 C159 1.392 . S
C160 C161 1.385 . S
C160 C162 1.478 . S
C161 H155 0.930 . S
C161 C157 1.400 . S
C161 C160 1.385 . S
C162 C160 1.478 . S
C162 C164 1.381 . S
C162 C168 1.383 . S
C163 C159 1.495 . S
C163 H169 0.959 . S
C163 H170 0.961 . S
C163 H171 0.960 . S
C164 C162 1.381 . S
C164 C165 1.394 . S
C164 H172 0.930 . S
C165 C164 1.394 . S
C165 C166 1.383 . S
C165 H173 0.929 . S
C166 C165 1.383 . S
C166 C167 1.377 . S
C167 H151 0.930 . S
C167 C166 1.377 . S
C167 C168 1.379 . S
C168 H152 0.931 . S
C168 C162 1.383 . S
C168 C167 1.379 . S
H169 C163 0.959 . S
H170 C163 0.961 . S
H171 C163 0.960 . S
H172 C164 0.930 . S
H173 C165 0.929 . S
H174 C182 0.929 . S
H175 C184 0.930 . S
H176 C186 0.930 . S
H177 C189 0.929 . S
H178 C192 0.930 . S
H179 C194 0.960 1_455 S
H180 C194 0.960 . S
H181 C194 0.960 . S
C182 H174 0.929 . S
C182 C183 1.377 . S
C182 C184 1.384 . S
C183 C182 1.377 . S
C183 C189 1.390 . S
C184 H175 0.930 . S
C184 C182 1.384 . S
C184 C185 1.372 . S
C185 C184 1.372 . S
C185 C186 1.400 . S
C185 C190 1.490 . S
C186 H176 0.930 . S
C186 C185 1.400 . S
C186 C189 1.386 . S
H187 C203 0.930 . S
H188 C204 0.931 . S
C189 H177 0.929 . S
C189 C183 1.390 . S
C189 C186 1.386 . S
C190 C185 1.490 . S
C190 C192 1.395 . S
C190 C193 1.403 . S
H191 C197 0.930 . S
C192 H178 0.930 . S
C192 C190 1.395 . S
C192 C195 1.403 . S
C193 C190 1.403 . S
C193 C194 1.524 . S
C193 C197 1.400 1_655 S
C194 H179 0.960 1_655 S
C194 H180 0.960 . S
C194 H181 0.960 . S
C194 C193 1.524 . S
C195 C192 1.403 . S
C195 C196 1.392 1_655 S
C195 C199 1.495 . S
C196 C195 1.392 1_455 S
C196 C197 1.385 . S
C196 C198 1.478 . S
C197 H191 0.930 . S
C197 C193 1.400 1_455 S
C197 C196 1.385 . S
C198 C196 1.478 . S
C198 C200 1.381 . S
C198 C204 1.383 . S
C199 C195 1.495 . S
C199 H205 0.959 . S
C199 H206 0.961 1_655 S
C199 H207 0.960 . S
C200 C198 1.381 . S
C200 C201 1.394 . S
C200 H208 0.930 . S
C201 C200 1.394 . S
C201 C202 1.383 . S
C201 H209 0.929 . S
C202 C201 1.383 . S
C202 C203 1.377 . S
C203 H187 0.930 . S
C203 C202 1.377 . S
C203 C204 1.379 . S
C204 H188 0.931 . S
C204 C198 1.383 . S
C204 C203 1.379 . S
H205 C199 0.959 . S
H206 C199 0.961 1_455 S
H207 C199 0.960 . S
H208 C200 0.930 . S
H209 C201 0.929 . S
H210 C218 0.929 . S
H211 C220 0.930 . S
H212 C222 0.930 . S
H213 C225 0.929 . S
H214 C228 0.930 . S
H215 C230 0.960 . S
H216 C230 0.960 . S
H217 C230 0.960 . S
C218 H210 0.929 . S
C218 C219 1.377 . S
C218 C220 1.384 . S
C219 C218 1.377 . S
C219 C225 1.390 . S
C220 H211 0.930 . S
C220 C218 1.384 . S
C220 C221 1.372 . S
C221 C220 1.372 . S
C221 C222 1.400 . S
C221 C226 1.490 . S
C222 H212 0.930 . S
C222 C221 1.400 . S
C222 C225 1.386 . S
H223 C239 0.930 . S
H224 C240 0.931 . S
C225 H213 0.929 . S
C225 C219 1.390 . S
C225 C222 1.386 . S
C226 C221 1.490 . S
C226 C228 1.395 1_545 S
C226 C229 1.403 . S
H227 C233 0.930 . S
C228 H214 0.930 . S
C228 C226 1.395 1_565 S
C228 C231 1.403 . S
C229 C226 1.403 . S
C229 C230 1.524 . S
C229 C233 1.400 1_545 S
C230 H215 0.960 . S
C230 H216 0.960 . S
C230 H217 0.960 . S
C230 C229 1.524 . S
C231 C228 1.403 . S
C231 C232 1.392 . S
C231 C235 1.495 . S
C232 C231 1.392 . S
C232 C233 1.385 . S
C232 C234 1.478 . S
C233 H227 0.930 . S
C233 C229 1.400 1_565 S
C233 C232 1.385 . S
C234 C232 1.478 . S
C234 C236 1.381 . S
C234 C240 1.383 . S
C235 C231 1.495 . S
C235 H241 0.959 . S
C235 H242 0.961 . S
C235 H243 0.960 . S
C236 C234 1.381 . S
C236 C237 1.394 . S
C236 H244 0.930 . S
C237 C236 1.394 . S
C237 C238 1.383 . S
C237 H245 0.929 . S
C238 C237 1.383 . S
C238 C239 1.377 . S
C239 H223 0.930 . S
C239 C238 1.377 . S
C239 C240 1.379 . S
C240 H224 0.931 . S
C240 C234 1.383 . S
C240 C239 1.379 . S
H241 C235 0.959 . S
H242 C235 0.961 . S
H243 C235 0.960 . S
H244 C236 0.930 . S
H245 C237 0.929 . S
H246 C254 0.929 . S
H247 C256 0.930 . S
H248 C258 0.930 . S
H249 C261 0.929 . S
H250 C264 0.930 . S
H251 C266 0.960 . S
H252 C266 0.960 . S
H253 C266 0.960 . S
C254 H246 0.929 . S
C254 C255 1.377 . S
C254 C256 1.384 . S
C255 C254 1.377 . S
C255 C261 1.390 . S
C256 H247 0.930 . S
C256 C254 1.384 . S
C256 C257 1.372 . S
C257 C256 1.372 . S
C257 C258 1.400 . S
C257 C262 1.490 . S
C258 H248 0.930 . S
C258 C257 1.400 . S
C258 C261 1.386 . S
H259 C275 0.930 . S
H260 C276 0.931 . S
C261 H249 0.929 . S
C261 C255 1.390 . S
C261 C258 1.386 . S
C262 C257 1.490 . S
C262 C264 1.395 . S
C262 C265 1.403 . S
H263 C269 0.930 . S
C264 H250 0.930 . S
C264 C262 1.395 . S
C264 C267 1.403 . S
C265 C262 1.403 . S
C265 C266 1.524 . S
C265 C269 1.400 . S
C266 H251 0.960 . S
C266 H252 0.960 . S
C266 H253 0.960 . S
C266 C265 1.524 . S
C267 C264 1.403 . S
C267 C268 1.392 . S
C267 C271 1.495 . S
C268 C267 1.392 . S
C268 C269 1.385 . S
C268 C270 1.478 . S
C269 H263 0.930 . S
C269 C265 1.400 . S
C269 C268 1.385 . S
C270 C268 1.478 . S
C270 C272 1.381 . S
C270 C276 1.383 . S
C271 C267 1.495 . S
C271 H277 0.959 . S
C271 H278 0.961 . S
C271 H279 0.960 . S
C272 C270 1.381 . S
C272 C273 1.394 . S
C272 H280 0.930 . S
C273 C272 1.394 . S
C273 C274 1.383 . S
C273 H281 0.929 . S
C274 C273 1.383 . S
C274 C275 1.377 . S
C275 H259 0.930 . S
C275 C274 1.377 . S
C275 C276 1.379 . S
C276 H260 0.931 . S
C276 C270 1.383 . S
C276 C275 1.379 . S
H277 C271 0.959 . S
H278 C271 0.961 . S
H279 C271 0.960 . S
H280 C272 0.930 . S
H281 C273 0.929 . S
H282 C290 0.929 . S
H283 C292 0.930 . S
H284 C294 0.930 . S
H285 C297 0.929 . S
H286 C300 0.930 . S
H287 C302 0.960 . S
H288 C302 0.960 . S
H289 C302 0.960 . S
C290 H282 0.929 . S
C290 C291 1.377 . S
C290 C292 1.384 . S
C291 C290 1.377 . S
C291 C297 1.390 . S
C292 H283 0.930 . S
C292 C290 1.384 . S
C292 C293 1.372 . S
C293 C292 1.372 . S
C293 C294 1.400 . S
C293 C298 1.490 . S
C294 H284 0.930 . S
C294 C293 1.400 . S
C294 C297 1.386 . S
H295 C311 0.930 . S
H296 C312 0.931 . S
C297 H285 0.929 . S
C297 C291 1.390 . S
C297 C294 1.386 . S
C298 C293 1.490 . S
C298 C300 1.395 1_655 S
C298 C301 1.403 . S
H299 C305 0.930 . S
C300 H286 0.930 . S
C300 C298 1.395 1_455 S
C300 C303 1.403 . S
C301 C298 1.403 . S
C301 C302 1.524 . S
C301 C305 1.400 1_655 S
C302 H287 0.960 . S
C302 H288 0.960 . S
C302 H289 0.960 . S
C302 C301 1.524 . S
C303 C300 1.403 . S
C303 C304 1.392 . S
C303 C307 1.495 . S
C304 C303 1.392 . S
C304 C305 1.385 . S
C304 C306 1.478 . S
C305 H299 0.930 . S
C305 C301 1.400 1_455 S
C305 C304 1.385 . S
C306 C304 1.478 . S
C306 C308 1.381 . S
C306 C312 1.383 . S
C307 C303 1.495 . S
C307 H313 0.959 . S
C307 H314 0.961 . S
C307 H315 0.960 . S
C308 C306 1.381 . S
C308 C309 1.394 . S
C308 H316 0.930 . S
C309 C308 1.394 . S
C309 C310 1.383 . S
C309 H317 0.929 . S
C310 C309 1.383 . S
C310 C311 1.377 . S
C311 H295 0.930 . S
C311 C310 1.377 . S
C311 C312 1.379 . S
C312 H296 0.931 . S
C312 C306 1.383 . S
C312 C311 1.379 . S
H313 C307 0.959 . S
H314 C307 0.961 . S
H315 C307 0.960 . S
H316 C308 0.930 . S
H317 C309 0.929 . S
H318 C326 0.929 . S
H319 C328 0.930 . S
H320 C330 0.930 . S
H321 C333 0.929 . S
H322 C336 0.930 . S
H323 C338 0.960 . S
H324 C338 0.960 . S
H325 C338 0.960 . S
C326 H318 0.929 . S
C326 C327 1.377 . S
C326 C328 1.384 . S
C327 C326 1.377 . S
C327 C333 1.390 . S
C328 H319 0.930 . S
C328 C326 1.384 . S
C328 C329 1.372 . S
C329 C328 1.372 . S
C329 C330 1.400 . S
C329 C334 1.490 . S
C330 H320 0.930 . S
C330 C329 1.400 . S
C330 C333 1.386 . S
H331 C347 0.930 . S
H332 C348 0.931 . S
C333 H321 0.929 . S
C333 C327 1.390 . S
C333 C330 1.386 . S
C334 C329 1.490 . S
C334 C336 1.395 . S
C334 C337 1.403 . S
H335 C341 0.930 . S
C336 H322 0.930 . S
C336 C334 1.395 . S
C336 C339 1.403 . S
C337 C334 1.403 . S
C337 C338 1.524 . S
C337 C341 1.400 1_545 S
C338 H323 0.960 . S
C338 H324 0.960 . S
C338 H325 0.960 . S
C338 C337 1.524 . S
C339 C336 1.403 . S
C339 C340 1.392 1_545 S
C339 C343 1.495 . S
C340 C339 1.392 1_565 S
C340 C341 1.385 . S
C340 C342 1.478 . S
C341 H335 0.930 . S
C341 C337 1.400 1_565 S
C341 C340 1.385 . S
C342 C340 1.478 . S
C342 C344 1.381 . S
C342 C348 1.383 . S
C343 C339 1.495 . S
C343 H349 0.959 . S
C343 H350 0.961 1_545 S
C343 H351 0.960 . S
C344 C342 1.381 . S
C344 C345 1.394 . S
C344 H352 0.930 . S
C345 C344 1.394 . S
C345 C346 1.383 . S
C345 H353 0.929 . S
C346 C345 1.383 . S
C346 C347 1.377 . S
C347 H331 0.930 . S
C347 C346 1.377 . S
C347 C348 1.379 . S
C348 H332 0.931 . S
C348 C342 1.383 . S
C348 C347 1.379 . S
H349 C343 0.959 . S
H350 C343 0.961 1_565 S
H351 C343 0.960 . S
H352 C344 0.930 . S
H353 C345 0.929 . S
H354 C362 0.929 . S
H355 C364 0.930 . S
H356 C366 0.930 . S
H357 C369 0.929 . S
H358 C372 0.930 . S
H359 C374 0.960 . S
H360 C374 0.960 . S
H361 C374 0.960 . S
C362 H354 0.929 . S
C362 C363 1.377 . S
C362 C364 1.384 . S
C363 C362 1.377 . S
C363 C369 1.390 . S
C364 H355 0.930 . S
C364 C362 1.384 . S
C364 C365 1.372 . S
C365 C364 1.372 . S
C365 C366 1.400 . S
C365 C370 1.490 . S
C366 H356 0.930 . S
C366 C365 1.400 . S
C366 C369 1.386 . S
H367 C383 0.930 . S
H368 C384 0.931 . S
C369 H357 0.929 . S
C369 C363 1.390 . S
C369 C366 1.386 . S
C370 C365 1.490 . S
C370 C372 1.395 . S
C370 C373 1.403 . S
H371 C377 0.930 . S
C372 H358 0.930 . S
C372 C370 1.395 . S
C372 C375 1.403 . S
C373 C370 1.403 . S
C373 C374 1.524 . S
C373 C377 1.400 . S
C374 H359 0.960 . S
C374 H360 0.960 . S
C374 H361 0.960 . S
C374 C373 1.524 . S
C375 C372 1.403 . S
C375 C376 1.392 . S
C375 C379 1.495 . S
C376 C375 1.392 . S
C376 C377 1.385 . S
C376 C378 1.478 . S
C377 H371 0.930 . S
C377 C373 1.400 . S
C377 C376 1.385 . S
C378 C376 1.478 . S
C378 C380 1.381 . S
C378 C384 1.383 . S
C379 C375 1.495 . S
C379 H385 0.959 . S
C379 H386 0.961 . S
C379 H387 0.960 . S
C380 C378 1.381 . S
C380 C381 1.394 . S
C380 H388 0.930 . S
C381 C380 1.394 . S
C381 C382 1.383 . S
C381 H389 0.929 . S
C382 C381 1.383 . S
C382 C383 1.377 . S
C383 H367 0.930 . S
C383 C382 1.377 . S
C383 C384 1.379 . S
C384 H368 0.931 . S
C384 C378 1.383 . S
C384 C383 1.379 . S
H385 C379 0.959 . S
H386 C379 0.961 . S
H387 C379 0.960 . S
H388 C380 0.930 . S
H389 C381 0.929 . S
H390 C398 0.929 . S
H391 C400 0.930 . S
H392 C402 0.930 . S
H393 C405 0.929 . S
H394 C408 0.930 . S
H395 C410 0.960 . S
H396 C410 0.960 . S
H397 C410 0.960 . S
C398 H390 0.929 . S
C398 C399 1.377 . S
C398 C400 1.384 . S
C399 C398 1.377 . S
C399 C405 1.390 . S
C400 H391 0.930 . S
C400 C398 1.384 . S
C400 C401 1.372 . S
C401 C400 1.372 . S
C401 C402 1.400 . S
C401 C406 1.490 . S
C402 H392 0.930 . S
C402 C401 1.400 . S
C402 C405 1.386 . S
H403 C419 0.930 . S
H404 C420 0.931 . S
C405 H393 0.929 . S
C405 C399 1.390 . S
C405 C402 1.386 . S
C406 C401 1.490 . S
C406 C408 1.395 . S
C406 C409 1.403 . S
H407 C413 0.930 . S
C408 H394 0.930 . S
C408 C406 1.395 . S
C408 C411 1.403 . S
C409 C406 1.403 . S
C409 C410 1.524 . S
C409 C413 1.400 . S
C410 H395 0.960 . S
C410 H396 0.960 . S
C410 H397 0.960 . S
C410 C409 1.524 . S
C411 C408 1.403 . S
C411 C412 1.392 . S
C411 C415 1.495 . S
C412 C411 1.392 . S
C412 C413 1.385 . S
C412 C414 1.478 . S
C413 H407 0.930 . S
C413 C409 1.400 . S
C413 C412 1.385 . S
C414 C412 1.478 . S
C414 C416 1.381 . S
C414 C420 1.383 . S
C415 C411 1.495 . S
C415 H421 0.959 . S
C415 H422 0.961 . S
C415 H423 0.960 . S
C416 C414 1.381 . S
C416 C417 1.394 . S
C416 H424 0.930 . S
C417 C416 1.394 . S
C417 C418 1.383 . S
C417 H425 0.929 . S
C418 C417 1.383 . S
C418 C419 1.377 . S
C419 H403 0.930 . S
C419 C418 1.377 . S
C419 C420 1.379 . S
C420 H404 0.931 . S
C420 C414 1.383 . S
C420 C419 1.379 . S
H421 C415 0.959 . S
H422 C415 0.961 . S
H423 C415 0.960 . S
H424 C416 0.930 . S
H425 C417 0.929 . S
H426 C434 0.929 . S
H427 C436 0.930 . S
H428 C438 0.930 . S
H429 C441 0.929 . S
H430 C444 0.930 . S
H431 C446 0.960 . S
H432 C446 0.960 . S
H433 C446 0.960 . S
C434 H426 0.929 . S
C434 C435 1.377 . S
C434 C436 1.384 . S
C435 C434 1.377 . S
C435 C441 1.390 . S
C436 H427 0.930 . S
C436 C434 1.384 . S
C436 C437 1.372 . S
C437 C436 1.372 . S
C437 C438 1.400 . S
C437 C442 1.490 . S
C438 H428 0.930 . S
C438 C437 1.400 . S
C438 C441 1.386 . S
H439 C455 0.930 . S
H440 C456 0.931 . S
C441 H429 0.929 . S
C441 C435 1.390 . S
C441 C438 1.386 . S
C442 C437 1.490 . S
C442 C444 1.395 . S
C442 C445 1.403 . S
H443 C449 0.930 . S
C444 H430 0.930 . S
C444 C442 1.395 . S
C444 C447 1.403 . S
C445 C442 1.403 . S
C445 C446 1.524 . S
C445 C449 1.400 . S
C446 H431 0.960 . S
C446 H432 0.960 . S
C446 H433 0.960 . S
C446 C445 1.524 . S
C447 C444 1.403 . S
C447 C448 1.392 . S
C447 C451 1.495 . S
C448 C447 1.392 . S
C448 C449 1.385 . S
C448 C450 1.478 . S
C449 H443 0.930 . S
C449 C445 1.400 . S
C449 C448 1.385 . S
C450 C448 1.478 . S
C450 C452 1.381 . S
C450 C456 1.383 . S
C451 C447 1.495 . S
C451 H457 0.959 . S
C451 H458 0.961 . S
C451 H459 0.960 . S
C452 C450 1.381 . S
C452 C453 1.394 . S
C452 H460 0.930 . S
C453 C452 1.394 . S
C453 C454 1.383 . S
C453 H461 0.929 . S
C454 C453 1.383 . S
C454 C455 1.377 . S
C455 H439 0.930 . S
C455 C454 1.377 . S
C455 C456 1.379 . S
C456 H440 0.931 . S
C456 C450 1.383 . S
C456 C455 1.379 . S
H457 C451 0.959 . S
H458 C451 0.961 . S
H459 C451 0.960 . S
H460 C452 0.930 . S
H461 C453 0.929 . S
H462 C470 0.929 . S
H463 C472 0.930 . S
H464 C474 0.930 . S
H465 C477 0.929 . S
H466 C480 0.930 . S
H467 C482 0.960 . S
H468 C482 0.960 . S
H469 C482 0.960 . S
C470 H462 0.929 . S
C470 C471 1.377 . S
C470 C472 1.384 . S
C471 C470 1.377 . S
C471 C477 1.390 . S
C472 H463 0.930 . S
C472 C470 1.384 . S
C472 C473 1.372 . S
C473 C472 1.372 . S
C473 C474 1.400 . S
C473 C478 1.490 . S
C474 H464 0.930 . S
C474 C473 1.400 . S
C474 C477 1.386 . S
H475 C491 0.930 . S
H476 C492 0.931 . S
C477 H465 0.929 . S
C477 C471 1.390 . S
C477 C474 1.386 . S
C478 C473 1.490 . S
C478 C480 1.395 . S
C478 C481 1.403 . S
H479 C485 0.930 . S
C480 H466 0.930 . S
C480 C478 1.395 . S
C480 C483 1.403 . S
C481 C478 1.403 . S
C481 C482 1.524 . S
C481 C485 1.400 . S
C482 H467 0.960 . S
C482 H468 0.960 . S
C482 H469 0.960 . S
C482 C481 1.524 . S
C483 C480 1.403 . S
C483 C484 1.392 . S
C483 C487 1.495 . S
C484 C483 1.392 . S
C484 C485 1.385 . S
C484 C486 1.478 . S
C485 H479 0.930 . S
C485 C481 1.400 . S
C485 C484 1.385 . S
C486 C484 1.478 . S
C486 C488 1.381 . S
C486 C492 1.383 . S
C487 C483 1.495 . S
C487 H493 0.959 . S
C487 H494 0.961 . S
C487 H495 0.960 . S
C488 C486 1.381 . S
C488 C489 1.394 . S
C488 H496 0.930 . S
C489 C488 1.394 . S
C489 C490 1.383 . S
C489 H497 0.929 . S
C490 C489 1.383 . S
C490 C491 1.377 . S
C491 H475 0.930 . S
C491 C490 1.377 . S
C491 C492 1.379 . S
C492 H476 0.931 . S
C492 C486 1.383 . S
C492 C491 1.379 . S
H493 C487 0.959 . S
H494 C487 0.961 . S
H495 C487 0.960 . S
H496 C488 0.930 . S
H497 C489 0.929 . S
H498 C506 0.929 . S
H499 C508 0.930 . S
H500 C510 0.930 . S
H501 C513 0.929 . S
H502 C516 0.930 . S
H503 C518 0.960 . S
H504 C518 0.960 . S
H505 C518 0.960 . S
C506 H498 0.929 . S
C506 C507 1.377 . S
C506 C508 1.384 . S
C507 C506 1.377 . S
C507 C513 1.390 . S
C508 H499 0.930 . S
C508 C506 1.384 . S
C508 C509 1.372 . S
C509 C508 1.372 . S
C509 C510 1.400 . S
C509 C514 1.490 . S
C510 H500 0.930 . S
C510 C509 1.400 . S
C510 C513 1.386 . S
H511 C527 0.930 . S
H512 C528 0.931 . S
C513 H501 0.929 . S
C513 C507 1.390 . S
C513 C510 1.386 . S
C514 C509 1.490 . S
C514 C516 1.395 . S
C514 C517 1.403 . S
H515 C521 0.930 . S
C516 H502 0.930 . S
C516 C514 1.395 . S
C516 C519 1.403 . S
C517 C514 1.403 . S
C517 C518 1.524 . S
C517 C521 1.400 . S
C518 H503 0.960 . S
C518 H504 0.960 . S
C518 H505 0.960 . S
C518 C517 1.524 . S
C519 C516 1.403 . S
C519 C520 1.392 . S
C519 C523 1.495 . S
C520 C519 1.392 . S
C520 C521 1.385 . S
C520 C522 1.478 . S
C521 H515 0.930 . S
C521 C517 1.400 . S
C521 C520 1.385 . S
C522 C520 1.478 . S
C522 C524 1.381 . S
C522 C528 1.383 . S
C523 C519 1.495 . S
C523 H529 0.959 . S
C523 H530 0.961 . S
C523 H531 0.960 . S
C524 C522 1.381 . S
C524 C525 1.394 . S
C524 H532 0.930 . S
C525 C524 1.394 . S
C525 C526 1.383 . S
C525 H533 0.929 . S
C526 C525 1.383 . S
C526 C527 1.377 . S
C527 H511 0.930 . S
C527 C526 1.377 . S
C527 C528 1.379 . S
C528 H512 0.931 . S
C528 C522 1.383 . S
C528 C527 1.379 . S
H529 C523 0.959 . S
H530 C523 0.961 . S
H531 C523 0.960 . S
H532 C524 0.930 . S
H533 C525 0.929 . S
H534 C542 0.929 . S
H535 C544 0.930 . S
H536 C546 0.930 . S
H537 C549 0.929 . S
H538 C552 0.930 . S
H539 C554 0.960 . S
H540 C554 0.960 . S
H541 C554 0.960 . S
C542 H534 0.929 . S
C542 C543 1.377 . S
C542 C544 1.384 . S
C543 C542 1.377 . S
C543 C549 1.390 . S
C544 H535 0.930 . S
C544 C542 1.384 . S
C544 C545 1.372 . S
C545 C544 1.372 . S
C545 C546 1.400 . S
C545 C550 1.490 . S
C546 H536 0.930 . S
C546 C545 1.400 . S
C546 C549 1.386 . S
H547 C563 0.930 . S
H548 C564 0.931 . S
C549 H537 0.929 . S
C549 C543 1.390 . S
C549 C546 1.386 . S
C550 C545 1.490 . S
C550 C552 1.395 . S
C550 C553 1.403 . S
H551 C557 0.930 . S
C552 H538 0.930 . S
C552 C550 1.395 . S
C552 C555 1.403 . S
C553 C550 1.403 . S
C553 C554 1.524 . S
C553 C557 1.400 . S
C554 H539 0.960 . S
C554 H540 0.960 . S
C554 H541 0.960 . S
C554 C553 1.524 . S
C555 C552 1.403 . S
C555 C556 1.392 . S
C555 C559 1.495 . S
C556 C555 1.392 . S
C556 C557 1.385 . S
C556 C558 1.478 . S
C557 H551 0.930 . S
C557 C553 1.400 . S
C557 C556 1.385 . S
C558 C556 1.478 . S
C558 C560 1.381 . S
C558 C564 1.383 . S
C559 C555 1.495 . S
C559 H565 0.959 . S
C559 H566 0.961 . S
C559 H567 0.960 . S
C560 C558 1.381 . S
C560 C561 1.394 . S
C560 H568 0.930 . S
C561 C560 1.394 . S
C561 C562 1.383 . S
C561 H569 0.929 . S
C562 C561 1.383 . S
C562 C563 1.377 . S
C563 H547 0.930 . S
C563 C562 1.377 . S
C563 C564 1.379 . S
C564 H548 0.931 . S
C564 C558 1.383 . S
C564 C563 1.379 . S
H565 C559 0.959 . S
H566 C559 0.961 . S
H567 C559 0.960 . S
H568 C560 0.930 . S
H569 C561 0.929 . S
C147 C16 1.347 . S
C166 N127 1.352 . S
C183 C39 1.349 . S
C202 N12 1.358 . S
C219 N35 1.357 . S
C238 C62 1.350 . S
C255 C85 1.344 . S
C274 N58 1.351 . S
C291 N81 1.356 . S
C310 C108 1.341 . S
C327 C131 1.349 . S
C346 N104 1.360 . S
C363 N94 1.383 . S
C382 C7 1.457 . S
C399 N117 1.394 . S
C418 C30 1.444 . S
C435 C53 1.448 . S
C454 N2 1.409 . S
C471 C76 1.451 . S
C490 N25 1.366 . S
C507 C99 1.447 . S
C526 N48 1.389 . S
C543 C122 1.449 . S
C562 N71 1.367 . S
