# Generated by pormake.
# Topology dft, (4)-cn, num edge types: 1
# Building blocks:
#     Node 0, Type 0, BuildingBlock: GALJAG_clean_sbu_0, # of connection points: 4
#     Node 1, Type 0, BuildingBlock: GALJAG_clean_sbu_0, # of connection points: 4
#     Node 2, Type 0, BuildingBlock: GALJAG_clean_sbu_0, # of connection points: 4
#     Node 3, Type 0, BuildingBlock: GALJAG_clean_sbu_0, # of connection points: 4
#     Node 4, Type 0, BuildingBlock: GALJAG_clean_sbu_0, # of connection points: 4
#     Node 5, Type 0, BuildingBlock: GALJAG_clean_sbu_0, # of connection points: 4
#     Node 6, Type 0, BuildingBlock: GALJAG_clean_sbu_0, # of connection points: 4
#     Node 7, Type 0, BuildingBlock: GALJAG_clean_sbu_0, # of connection points: 4
#     Edge 8, Type (0, 0), BuildingBlock: FUNLAD_clean_linker_0, # of connection points: 2
#     Edge 9, Type (0, 0), BuildingBlock: FUNLAD_clean_linker_0, # of connection points: 2
#     Edge 10, Type (0, 0), BuildingBlock: FUNLAD_clean_linker_0, # of connection points: 2
#     Edge 11, Type (0, 0), BuildingBlock: FUNLAD_clean_linker_0, # of connection points: 2
#     Edge 12, Type (0, 0), BuildingBlock: FUNLAD_clean_linker_0, # of connection points: 2
#     Edge 13, Type (0, 0), BuildingBlock: FUNLAD_clean_linker_0, # of connection points: 2
#     Edge 14, Type (0, 0), BuildingBlock: FUNLAD_clean_linker_0, # of connection points: 2
#     Edge 15, Type (0, 0), BuildingBlock: FUNLAD_clean_linker_0, # of connection points: 2
#     Edge 16, Type (0, 0), BuildingBlock: FUNLAD_clean_linker_0, # of connection points: 2
#     Edge 17, Type (0, 0), BuildingBlock: FUNLAD_clean_linker_0, # of connection points: 2
#     Edge 18, Type (0, 0), BuildingBlock: FUNLAD_clean_linker_0, # of connection points: 2
#     Edge 19, Type (0, 0), BuildingBlock: FUNLAD_clean_linker_0, # of connection points: 2
#     Edge 20, Type (0, 0), BuildingBlock: FUNLAD_clean_linker_0, # of connection points: 2
#     Edge 21, Type (0, 0), BuildingBlock: FUNLAD_clean_linker_0, # of connection points: 2
#     Edge 22, Type (0, 0), BuildingBlock: FUNLAD_clean_linker_0, # of connection points: 2
#     Edge 23, Type (0, 0), BuildingBlock: FUNLAD_clean_linker_0, # of connection points: 2
# Relax obj value: 0.096
# Max RMSD: 0.146
# Mean RMSD: 0.146
data_MOF--net-dft--node1-GALJAG_clean_sbu_0--edge1-FUNLAD_clean_linker_0
_symmetry_space_group_name_H-M    P1
_symmetry_Int_Tables_number       1
_symmetry_cell_setting            triclinic
loop_
_symmetry_equiv_pos_as_xyz
'x, y, z'
_cell_length_a     39.036814
_cell_length_b     39.038976
_cell_length_c     52.355717
_cell_angle_alpha  89.856598
_cell_angle_beta   89.896042
_cell_angle_gamma 89.909157
loop_
_atom_site_label
_atom_site_type_symbol
_atom_site_fract_x
_atom_site_fract_y
_atom_site_fract_z
_atom_type_partial_charge
In0 In 0.31209 0.03077 0.17027 0.0
O1 O 0.36012 0.06333 0.17477 0.0
O2 O 0.3665 0.01013 0.16775 0.0
C3 C 0.273 0.07554 0.19673 0.0
C4 C 0.3039 0.03468 0.11925 0.0
C5 C 0.29114 0.97254 0.19311 0.0
O6 O 0.3007 0.06355 0.20528 0.0
O7 O 0.26511 0.06522 0.17472 0.0
O8 O 0.27692 0.98443 0.17335 0.0
O9 O 0.31605 0.9899 0.20121 0.0
C10 C 0.38059 0.03872 0.17146 0.0
O11 O 0.30317 0.00663 0.13126 0.0
O12 O 0.30841 0.06077 0.13302 0.0
In13 In 0.046 0.30883 0.66371 0.0
O14 O 0.02746 0.36084 0.67775 0.0
O15 O 0.07269 0.35961 0.65521 0.0
C16 C 0.99525 0.27081 0.68446 0.0
C17 C 0.03746 0.29975 0.61301 0.0
C18 C 0.10081 0.28657 0.69038 0.0
O19 O 0.99552 0.30307 0.68535 0.0
O20 O 0.02037 0.25772 0.67285 0.0
O21 O 0.09704 0.2809 0.66687 0.0
O22 O 0.07702 0.30375 0.70049 0.0
C23 C 0.05136 0.37755 0.66739 0.0
O24 O 0.06409 0.29044 0.62471 0.0
O25 O 0.01492 0.31352 0.62689 0.0
In26 In 0.76566 0.05299 0.16277 0.0
O27 O 0.71735 0.03181 0.18149 0.0
O28 O 0.71116 0.06591 0.15025 0.0
C29 C 0.80644 0.00649 0.18586 0.0
C30 C 0.7798 0.04717 0.11243 0.0
C31 C 0.78086 0.11171 0.18714 0.0
O32 O 0.77672 -0.00056 0.17809 0.0
O33 O 0.81593 0.03682 0.18148 0.0
O34 O 0.79239 0.10454 0.16529 0.0
O35 O 0.76156 0.08923 0.19679 0.0
C36 C 0.69695 0.04742 0.16692 0.0
O37 O 0.77518 0.0756 0.12325 0.0
O38 O 0.77738 0.02152 0.127 0.0
In39 In 0.03478 0.76243 0.66438 0.0
O40 O 0.01636 0.7839 0.62626 0.0
O41 O 0.06268 0.75533 0.62642 0.0
C42 C 0.97925 0.78094 0.69182 0.0
C43 C 0.03411 0.6935 0.66807 0.0
C44 C 0.08336 0.80362 0.68434 0.0
O45 O 0.9802 0.78269 0.66777 0.0
O46 O 0.00628 0.76974 0.70204 0.0
O47 O 0.08136 0.77215 0.68962 0.0
O48 O 0.06096 0.81429 0.66891 0.0
C49 C 0.04104 0.77195 0.61351 0.0
O50 O 0.06031 0.7111 0.67302 0.0
O51 O 0.0083 0.71065 0.66124 0.0
In52 In 0.31189 0.03953 0.83195 0.0
O53 O 0.2954 0.05746 0.87141 0.0
O54 O 0.32126 0.00961 0.86881 0.0
C55 C 0.27915 0.09669 0.81611 0.0
C56 C 0.38018 0.04142 0.82365 0.0
C57 C 0.27911 0.989 0.80665 0.0
O58 O 0.26469 0.07354 0.82901 0.0
O59 O 0.31034 0.0912 0.81128 0.0
O60 O 0.29371 0.01355 0.7954 0.0
O61 O 0.28142 0.98964 0.83066 0.0
C62 C 0.3071 0.03161 0.88299 0.0
O63 O 0.3606 0.02135 0.81179 0.0
O64 O 0.36533 0.06061 0.83952 0.0
In65 In 0.02694 0.31516 0.32776 0.0
O66 O 0.04877 0.36758 0.31772 0.0
O67 O 0.00305 0.36588 0.33979 0.0
C68 C 0.07487 0.27658 0.30411 0.0
C69 C 0.03644 0.30233 0.3778 0.0
C70 C 0.97058 0.29792 0.30094 0.0
O71 O 0.07192 0.30835 0.30033 0.0
O72 O 0.05399 0.26433 0.32009 0.0
O73 O 0.97553 0.28807 0.32358 0.0
O74 O 0.99388 0.3167 0.29193 0.0
C75 C 0.02558 0.38411 0.32914 0.0
O76 O 0.00898 0.29522 0.36631 0.0
O77 O 0.05939 0.31561 0.36395 0.0
In78 In 0.76494 0.02676 0.8271 0.0
O79 O 0.77862 0.00835 0.86695 0.0
O80 O 0.76816 0.06144 0.86211 0.0
C81 C 0.78286 0.96875 0.80242 0.0
C82 C 0.69581 0.02793 0.82597 0.0
C83 C 0.80711 0.0724 0.80438 0.0
O84 O 0.79177 0.97504 0.82504 0.0
O85 O 0.76418 0.9914 0.79234 0.0
O86 O 0.77492 0.0754 0.80375 0.0
O87 O 0.81784 0.04686 0.81678 0.0
C88 C 0.77608 0.03744 0.87721 0.0
O89 O 0.71384 0.04595 0.81112 0.0
O90 O 0.71261 0.00913 0.84102 0.0
In91 In 0.04422 0.76834 0.32805 0.0
O92 O 0.06431 0.78532 0.36671 0.0
O93 O 0.0121 0.77012 0.36449 0.0
C94 C 0.10285 0.7792 0.30197 0.0
C95 C 0.03848 0.6997 0.32444 0.0
C96 C 0.00124 0.81476 0.30718 0.0
O97 O 0.10024 0.78462 0.32563 0.0
O98 O 0.07609 0.76782 0.29161 0.0
O99 O 0.99363 0.78347 0.30926 0.0
O100 O 0.0301 0.82266 0.31615 0.0
C101 C 0.03634 0.78066 0.37832 0.0
O102 O 0.0231 0.7199 0.30953 0.0
O103 O 0.0566 0.7141 0.34115 0.0
C104 C 0.29475 0.00715 0.07674 0.0
C105 C 0.30068 0.03677 0.09121 0.0
C106 C 0.29276 0.009 0.05012 0.0
C107 C 0.29706 0.04056 0.03742 0.0
C108 C 0.30223 0.07022 0.05203 0.0
C109 C 0.30411 0.06837 0.07863 0.0
C110 C 0.29586 0.04389 0.00913 0.0
C111 C 0.3013 0.01761 0.99295 0.0
C112 C 0.30169 0.02154 0.96468 0.0
C113 C 0.3188 -0.00318 0.94994 0.0
C114 C 0.32039 -0.00011 0.92336 0.0
C115 C 0.30474 0.02773 0.91098 0.0
H116 H 0.27063 0.06787 0.96259 0.0
C117 C 0.28694 0.05206 0.9256 0.0
C118 C 0.28521 0.04893 0.95214 0.0
H119 H 0.27424 0.07357 0.91652 0.0
H120 H 0.29165 0.98248 0.08597 0.0
H121 H 0.28753 0.98568 0.03974 0.0
H122 H 0.30528 0.09492 0.04282 0.0
H123 H 0.30858 0.09168 0.0893 0.0
H124 H 0.29238 0.06954 0.00154 0.0
H125 H 0.30782 0.99254 0.0005 0.0
H126 H 0.3314 0.97526 0.95903 0.0
H127 H 0.33414 0.98063 0.91256 0.0
C128 C 0.05975 0.28049 0.57065 0.0
C129 C 0.03356 0.29572 0.58515 0.0
C130 C 0.05679 0.27788 0.54415 0.0
C131 C 0.0276 0.29073 0.53158 0.0
C132 C 0.00102 0.305 0.54621 0.0
C133 C 0.00399 0.30761 0.57273 0.0
C134 C 0.02387 0.28959 0.50337 0.0
C135 C 0.05075 0.28878 0.48718 0.0
C136 C 0.04699 0.29039 0.45898 0.0
C137 C 0.07408 0.3036 0.44431 0.0
C138 C 0.07095 0.30697 0.41784 0.0
C139 C 0.04071 0.29689 0.40551 0.0
H140 H -0.00378 0.26763 0.45696 0.0
C141 C 0.01405 0.28251 0.42002 0.0
C142 C 0.01717 0.27914 0.44648 0.0
H143 H 0.99059 0.27412 0.41098 0.0
H144 H 0.08268 0.27073 0.57976 0.0
H145 H 0.07731 0.26558 0.5337 0.0
H146 H 0.9781 0.31475 0.53706 0.0
H147 H 0.9833 0.31929 0.58344 0.0
H148 H -0.00189 0.2921 0.4958 0.0
H149 H 0.07662 0.28963 0.49471 0.0
H150 H 0.09748 0.31208 0.45341 0.0
H151 H 0.092 0.31797 0.40711 0.0
C152 C 0.78748 0.01439 0.92087 0.0
C153 C 0.78059 0.04252 0.90492 0.0
C154 C 0.78984 0.0186 0.94727 0.0
C155 C 0.78566 0.05121 0.95832 0.0
C156 C 0.77916 0.07935 0.94225 0.0
C157 C 0.77673 0.07511 0.91582 0.0
C158 C 0.78563 0.05664 0.98643 0.0
C159 C 0.79888 0.03425 0.00342 0.0
C160 C 0.79563 0.03856 0.03149 0.0
C161 C 0.79572 0.00923 0.04707 0.0
C162 C 0.79098 0.01199 0.07344 0.0
C163 C 0.78642 0.04423 0.08477 0.0
H164 H 0.79326 0.09424 0.03179 0.0
C165 C 0.78755 0.07369 0.06935 0.0
C166 C 0.7922 0.07094 0.04298 0.0
H167 H 0.78453 0.09893 0.07762 0.0
H168 H 0.79032 0.9889 0.91301 0.0
H169 H 0.79383 -0.00405 0.9588 0.0
H170 H 0.77558 0.10471 0.9502 0.0
H171 H 0.77132 0.09726 0.90398 0.0
H172 H 0.77326 0.07979 0.99327 0.0
H173 H 0.81114 0.01095 0.99682 0.0
H174 H 0.79866 0.98401 0.03875 0.0
H175 H 0.79047 0.98884 0.08489 0.0
C176 C 0.06101 0.79638 0.42067 0.0
C177 C 0.03287 0.78546 0.40616 0.0
C178 C 0.05854 0.79879 0.44722 0.0
C179 C 0.02788 0.79003 0.45982 0.0
C180 C -0.00061 0.78041 0.44518 0.0
C181 C 0.00187 0.77799 0.41861 0.0
C182 C 0.02475 0.79046 0.48809 0.0
C183 C 0.05166 0.78558 0.50379 0.0
C184 C 0.04853 0.78327 0.53202 0.0
C185 C 0.07395 0.76563 0.54571 0.0
C186 C 0.07167 0.76214 0.57221 0.0
C187 C 0.04399 0.7765 0.5856 0.0
H188 H 0.00169 0.81315 0.53584 0.0
C189 C 0.01894 0.79488 0.57205 0.0
C190 C 0.02121 0.79837 0.54553 0.0
H191 H -0.00251 0.80654 0.58193 0.0
H192 H 0.08512 0.80271 0.41156 0.0
H193 H 0.08069 0.80757 0.45771 0.0
H194 H 0.97536 0.77392 0.45436 0.0
H195 H 0.97969 0.76969 0.40789 0.0
H196 H -0.00092 0.79216 0.49601 0.0
H197 H 0.07679 0.78058 0.49568 0.0
H198 H 0.09544 0.75404 0.53583 0.0
H199 H 0.09146 0.74797 0.58217 0.0
C200 C 0.43963 0.01453 0.16839 0.0
C201 C 0.41808 0.04305 0.17142 0.0
C202 C 0.47513 0.0186 0.16773 0.0
C203 C 0.48978 0.05134 0.17022 0.0
C204 C 0.46817 0.07984 0.17307 0.0
C205 C 0.43265 0.07575 0.17383 0.0
C206 C 0.52731 0.05676 0.16875 0.0
C207 C 0.55026 0.03254 0.17533 0.0
C208 C 0.58778 0.03754 0.17321 0.0
C209 C 0.6095 0.01833 0.18906 0.0
C210 C 0.64501 0.02174 0.18718 0.0
C211 C 0.65947 0.04417 0.16915 0.0
H212 H 0.58644 0.07428 0.1419 0.0
C213 C 0.63781 0.06317 0.15308 0.0
C214 C 0.6023 0.05987 0.15503 0.0
H215 H 0.64829 0.08044 0.13886 0.0
H216 H 0.42908 0.98905 0.16626 0.0
H217 H 0.49085 -0.00387 0.16465 0.0
H218 H 0.47881 0.10535 0.17478 0.0
H219 H 0.41661 0.09822 0.17605 0.0
H220 H 0.53615 0.082 0.16299 0.0
H221 H 0.54144 0.00856 0.18356 0.0
H222 H 0.59897 0.00071 0.20303 0.0
H223 H 0.66112 0.00665 0.19974 0.0
C224 C 0.02925 0.43386 0.68288 0.0
C225 C 0.05375 0.41519 0.66902 0.0
C226 C 0.03085 0.46956 0.68386 0.0
C227 C 0.05691 0.48733 0.67079 0.0
C228 C 0.08189 0.46855 0.65751 0.0
C229 C 0.08027 0.43282 0.65652 0.0
C230 C 0.05903 0.5253 0.67083 0.0
C231 C 0.03142 0.54565 0.67384 0.0
C232 C 0.03298 0.58362 0.67269 0.0
C233 C 0.00322 0.60182 0.66614 0.0
C234 C 0.00358 0.63753 0.66465 0.0
C235 C 0.03369 0.65579 0.66992 0.0
H236 H 0.08618 0.58899 0.68435 0.0
C237 C 0.06335 0.63771 0.67695 0.0
C238 C 0.06302 0.60197 0.6784 0.0
H239 H 0.08684 0.65117 0.68137 0.0
H240 H 0.00874 0.4209 0.69296 0.0
H241 H 0.01183 0.48299 0.69508 0.0
H242 H 0.10244 0.48157 0.6475 0.0
H243 H 0.09964 0.41907 0.6458 0.0
H244 H 0.08377 0.53662 0.66653 0.0
H245 H 0.0062 0.53421 0.67563 0.0
H246 H 0.97966 0.58836 0.66189 0.0
H247 H 0.98027 0.6508 0.65931 0.0
C248 C 0.6399 0.04645 0.80702 0.0
C249 C 0.65806 0.02954 0.82646 0.0
C250 C 0.60415 0.04864 0.80802 0.0
C251 C 0.58603 0.03416 0.82863 0.0
C252 C 0.60427 0.0175 0.8481 0.0
C253 C 0.6399 0.01489 0.84691 0.0
C254 C 0.54833 0.03727 0.83104 0.0
C255 C 0.52711 0.03838 0.81083 0.0
C256 C 0.48941 0.04032 0.8139 0.0
C257 C 0.46824 0.02327 0.79645 0.0
C258 C 0.43266 0.02368 0.79952 0.0
C259 C 0.41763 0.04178 0.81982 0.0
H260 H 0.48989 0.07324 0.84728 0.0
C261 C 0.43875 0.0598 0.83679 0.0
C262 C 0.4743 0.05902 0.83391 0.0
H263 H 0.42785 0.07416 0.85251 0.0
H264 H 0.65331 0.05813 0.79111 0.0
H265 H 0.59091 0.06239 0.793 0.0
H266 H 0.59091 0.00637 0.86426 0.0
H267 H 0.65325 0.00189 0.86227 0.0
H268 H 0.53761 0.03659 0.85021 0.0
H269 H 0.53734 0.03542 0.79165 0.0
H270 H 0.4793 0.00897 0.78074 0.0
H271 H 0.41694 0.00975 0.78605 0.0
C272 C 0.0463 0.44113 0.31404 0.0
C273 C 0.02511 0.4218 0.33025 0.0
C274 C 0.04612 0.47685 0.31529 0.0
C275 C 0.02493 0.49383 0.33296 0.0
C276 C 0.00407 0.47446 0.34934 0.0
C277 C 0.00384 0.43876 0.34781 0.0
C278 C 0.02536 0.53156 0.33554 0.0
C279 C 0.0305 0.55268 0.31558 0.0
C280 C 0.03189 0.59036 0.31844 0.0
C281 C 0.0201 0.61133 0.2985 0.0
C282 C 0.0217 0.64697 0.30058 0.0
C283 C 0.03587 0.66217 0.32242 0.0
H284 H 0.05621 0.59012 0.35572 0.0
C285 C 0.0481 0.64118 0.34223 0.0
C286 C 0.04604 0.6056 0.34031 0.0
H287 H 0.0593 0.65224 0.35922 0.0
H288 H 0.06305 0.42866 0.3004 0.0
H289 H 0.06318 0.49104 0.30285 0.0
H290 H 0.98778 0.48699 0.36327 0.0
H291 H 0.98741 0.42443 0.36065 0.0
H292 H 0.0199 0.54221 0.35428 0.0
H293 H 0.03236 0.54223 0.2964 0.0
H294 H 0.0094 0.60012 0.28137 0.0
H295 H 0.01229 0.66259 0.28496 0.0
C296 C 0.10462 0.22068 0.29698 0.0
C297 C 0.09991 0.2552 0.29025 0.0
C298 C 0.12739 0.20008 0.28325 0.0
C299 C 0.14582 0.21363 0.26244 0.0
C300 C 0.14095 0.2481 0.25567 0.0
C301 C 0.11845 0.26879 0.26957 0.0
C302 C 0.16892 0.19208 0.2467 0.0
C303 C 0.1862 0.16507 0.25621 0.0
C304 C 0.20875 0.14313 0.24032 0.0
C305 C 0.23682 0.12674 0.25178 0.0
C306 C 0.25806 0.10521 0.2375 0.0
C307 C 0.2512 0.09915 0.21157 0.0
H308 H 0.1799 0.14853 0.20507 0.0
C309 C 0.22292 0.11525 0.20013 0.0
C310 C 0.2019 0.13709 0.21434 0.0
H311 H 0.21691 0.11085 0.18022 0.0
H312 H 0.09047 0.20947 0.31273 0.0
H313 H 0.12976 0.17337 0.28857 0.0
H314 H 0.15462 0.25905 0.23959 0.0
H315 H 0.11516 0.29528 0.26384 0.0
H316 H 0.17284 0.19964 0.22692 0.0
H317 H 0.18506 0.15963 0.27655 0.0
H318 H 0.24243 0.13072 0.27181 0.0
H319 H 0.27957 0.09295 0.24686 0.0
C320 C 0.97029 0.21408 0.69641 0.0
C321 C 0.96842 0.24999 0.69689 0.0
C322 C 0.94589 0.19433 0.70925 0.0
C323 C 0.9192 0.21015 0.723 0.0
C324 C 0.91672 0.24602 0.72273 0.0
C325 C 0.94118 0.26579 0.70993 0.0
C326 C 0.89344 0.19002 0.73759 0.0
C327 C 0.90043 0.15903 0.74772 0.0
C328 C 0.87559 0.13846 0.76288 0.0
C329 C 0.88832 0.11204 0.77845 0.0
C330 C 0.86607 0.09106 0.7923 0.0
C331 C 0.83049 0.09592 0.79078 0.0
H332 H 0.82888 0.16288 0.7492 0.0
C333 C 0.8176 0.12245 0.77538 0.0
C334 C 0.83989 0.14346 0.76146 0.0
H335 H 0.79025 0.12657 0.77367 0.0
H336 H 0.99078 0.20119 0.68627 0.0
H337 H 0.94796 0.16673 0.70817 0.0
H338 H 0.8962 0.25884 0.7329 0.0
H339 H 0.93897 0.29344 0.71049 0.0
H340 H 0.86892 0.20216 0.74133 0.0
H341 H 0.92614 0.14864 0.74586 0.0
H342 H 0.91564 0.10745 0.77983 0.0
H343 H 0.87678 0.07076 0.80396 0.0
C344 C 0.94823 0.82946 0.28271 0.0
C345 C 0.97914 0.83981 0.29394 0.0
C346 C 0.92845 0.85274 0.26874 0.0
C347 C 0.93915 0.887 0.26589 0.0
C348 C 0.96997 0.89727 0.27731 0.0
C349 C 0.9897 0.874 0.29127 0.0
C350 C 0.91993 0.91239 0.25027 0.0
C351 C 0.8863 0.90972 0.24488 0.0
C352 C 0.86707 0.93499 0.22911 0.0
C353 C 0.83558 0.92505 0.21855 0.0
C354 C 0.81615 0.94808 0.20412 0.0
C355 C 0.82775 0.98166 0.20002 0.0
H356 H 0.90213 0.97802 0.23336 0.0
C357 C 0.85923 0.99173 0.21049 0.0
C358 C 0.87863 0.96875 0.22499 0.0
H359 H 0.86861 0.01761 0.20789 0.0
H360 H 0.93965 0.80316 0.28425 0.0
H361 H 0.90547 0.84339 0.25965 0.0
H362 H 0.97894 0.9234 0.27532 0.0
H363 H 0.01351 0.8827 0.29962 0.0
H364 H 0.9344 0.93412 0.24318 0.0
H365 H 0.87191 0.88797 0.25207 0.0
H366 H 0.8259 0.89934 0.2215 0.0
H367 H 0.79188 0.93963 0.19637 0.0
C368 C 0.13357 0.81324 0.71303 0.0
C369 C 0.10933 0.82632 0.69577 0.0
C370 C 0.1575 0.83492 0.72444 0.0
C371 C 0.15747 0.87026 0.71894 0.0
C372 C 0.13374 0.88308 0.70119 0.0
C373 C 0.10983 0.8614 0.68979 0.0
C374 C 0.18183 0.89448 0.73107 0.0
C375 C 0.19687 0.88862 0.75382 0.0
C376 C 0.21931 0.91395 0.76672 0.0
C377 C 0.22259 0.91248 0.7934 0.0
C378 C 0.24244 0.93654 0.80638 0.0
C379 C 0.25966 0.96245 0.79287 0.0
H380 H 0.23664 0.94059 0.73251 0.0
C381 C 0.25731 0.96335 0.76612 0.0
C382 C 0.23746 0.93928 0.75314 0.0
H383 H 0.27061 0.98283 0.75519 0.0
H384 H 0.13402 0.78622 0.71779 0.0
H385 H 0.17608 0.82376 0.73731 0.0
H386 H 0.13334 0.9101 0.6964 0.0
H387 H 0.09156 0.87219 0.67644 0.0
H388 H 0.18549 0.919 0.72164 0.0
H389 H 0.19068 0.8655 0.76442 0.0
H390 H 0.2092 0.89303 0.80433 0.0
H391 H 0.24391 0.93512 0.82701 0.0
C392 C 0.81883 0.916 0.79998 0.0
C393 C 0.79623 0.93906 0.78814 0.0
C394 C 0.83532 0.89065 0.78576 0.0
C395 C 0.82933 0.88768 0.75932 0.0
C396 C 0.80553 0.90985 0.74779 0.0
C397 C 0.78904 0.93523 0.76205 0.0
C398 C 0.8501 0.8648 0.7427 0.0
C399 C 0.86888 0.83825 0.75143 0.0
C400 C 0.895 0.82047 0.73559 0.0
C401 C 0.9234 0.80573 0.74785 0.0
C402 C 0.95044 0.79206 0.73364 0.0
C403 C 0.94945 0.79261 0.70685 0.0
H404 H 0.8712 0.8292 0.69858 0.0
C405 C 0.92026 0.80565 0.69454 0.0
C406 C 0.89321 0.81934 0.70875 0.0
H407 H 0.91858 0.8059 0.67389 0.0
H408 H 0.82494 0.91842 0.82007 0.0
H409 H 0.85398 0.87484 0.79545 0.0
H410 H 0.80051 0.9083 0.72748 0.0
H411 H 0.77172 0.95266 0.75241 0.0
H412 H 0.85157 0.87187 0.72267 0.0
H413 H 0.86751 0.83104 0.77143 0.0
H414 H 0.9253 0.80595 0.7685 0.0
H415 H 0.97249 0.78187 0.74366 0.0
C416 C 0.25149 0.92259 0.19618 0.0
C417 C 0.27833 0.9419 0.20657 0.0
C418 C 0.23714 0.89553 0.20999 0.0
C419 C 0.24945 0.88724 0.23452 0.0
C420 C 0.27693 0.906 0.24454 0.0
C421 C 0.29144 0.93291 0.23064 0.0
C422 C 0.2315 0.86233 0.25125 0.0
C423 C 0.21246 0.8363 0.24223 0.0
C424 C 0.18768 0.81685 0.25822 0.0
C425 C 0.15984 0.80111 0.24605 0.0
C426 C 0.13297 0.78726 0.26032 0.0
C427 C 0.1335 0.78879 0.2871 0.0
H428 H 0.21106 0.82634 0.2953 0.0
C429 C 0.16246 0.80217 0.29937 0.0
C430 C 0.18943 0.81589 0.28509 0.0
H431 H 0.1638 0.80308 0.32002 0.0
H432 H 0.24083 0.92904 0.17769 0.0
H433 H 0.21533 0.88245 0.20188 0.0
H434 H 0.28664 0.90037 0.26348 0.0
H435 H 0.31211 0.9474 0.23914 0.0
H436 H 0.23241 0.86747 0.27158 0.0
H437 H 0.21231 0.83126 0.22183 0.0
H438 H 0.15798 0.80107 0.22539 0.0
H439 H 0.1111 0.77678 0.25033 0.0
C440 C 0.13148 0.27698 0.73169 0.0
C441 C 0.12974 0.2724 0.70513 0.0
C442 C 0.15713 0.26085 0.74592 0.0
C443 C 0.18142 0.23967 0.73381 0.0
C444 C 0.18071 0.2367 0.70711 0.0
C445 C 0.15503 0.25275 0.6929 0.0
C446 C 0.2068 0.21906 0.74832 0.0
C447 C 0.20078 0.2074 0.77215 0.0
C448 C 0.2226 0.18123 0.78478 0.0
C449 C 0.20736 0.15905 0.80259 0.0
C450 C 0.226 0.13203 0.81321 0.0
C451 C 0.26044 0.1269 0.80645 0.0
H452 H 0.27051 0.19433 0.76589 0.0
C453 C 0.27628 0.15007 0.78962 0.0
C454 C 0.25756 0.17705 0.77889 0.0
H455 H 0.30294 0.14694 0.78432 0.0
H456 H 0.11256 0.29239 0.74157 0.0
H457 H 0.1576 0.26476 0.76637 0.0
H458 H 0.19931 0.22085 0.69727 0.0
H459 H 0.15452 0.24903 0.67241 0.0
H460 H 0.22904 0.20988 0.73789 0.0
H461 H 0.17692 0.21401 0.78163 0.0
H462 H 0.18058 0.16189 0.80767 0.0
H463 H 0.2132 0.11476 0.82633 0.0
C464 C 0.91636 0.2647 0.29638 0.0
C465 C 0.94122 0.28629 0.28559 0.0
C466 C 0.89076 0.25045 0.28116 0.0
C467 C 0.88949 0.25768 0.25481 0.0
C468 C 0.91362 0.28033 0.2443 0.0
C469 C 0.93914 0.29466 0.25955 0.0
C470 C 0.8665 0.23881 0.23726 0.0
C471 C 0.83728 0.22341 0.24476 0.0
C472 C 0.81892 0.19798 0.22875 0.0
C473 C 0.79841 0.17335 0.24098 0.0
C474 C 0.78471 0.14598 0.22726 0.0
C475 C 0.7913 0.14276 0.20102 0.0
H476 H 0.83749 0.21526 0.19161 0.0
C477 C 0.80984 0.16854 0.18842 0.0
C478 C 0.82326 0.19607 0.20207 0.0
H479 H 0.81466 0.16705 0.16807 0.0
H480 H 0.91741 0.25776 0.31641 0.0
H481 H 0.87332 0.23242 0.28994 0.0
H482 H 0.9134 0.28613 0.22405 0.0
H483 H 0.95797 0.31127 0.25072 0.0
H484 H 0.87569 0.23576 0.21785 0.0
H485 H 0.82816 0.22691 0.26418 0.0
H486 H 0.79427 0.17438 0.26144 0.0
H487 H 0.77021 0.1266 0.23742 0.0
loop_
_geom_bond_atom_site_label_1
_geom_bond_atom_site_label_2
_geom_bond_distance
_geom_bond_site_symmetry_2
_ccdc_geom_bond_type
In0 O1 2.294 . S
In0 O2 2.322 1_545 S
In0 O6 2.266 . S
In0 O7 2.326 . S
In0 O8 2.266 1_545 S
In0 O9 2.326 . S
In0 O11 2.294 . S
In0 O12 2.326 . S
O1 In0 2.294 . S
O1 C10 1.240 . S
O2 In0 2.322 1_565 S
O2 C10 1.246 1_565 S
C3 O6 1.252 . S
C3 O7 1.260 . S
C4 O11 1.240 . S
C4 O12 1.252 . S
C5 O8 1.252 . S
C5 O9 1.260 1_565 S
O6 In0 2.266 . S
O6 C3 1.252 . S
O7 In0 2.326 . S
O7 C3 1.260 . S
O8 In0 2.266 1_565 S
O8 C5 1.252 . S
O9 In0 2.326 . S
O9 C5 1.260 1_545 S
C10 O1 1.240 . S
C10 O2 1.246 1_545 S
O11 In0 2.294 . S
O11 C4 1.240 . S
O12 In0 2.326 . S
O12 C4 1.252 . S
In13 O14 2.294 . S
In13 O15 2.326 . S
In13 O19 2.266 . S
In13 O20 2.326 . S
In13 O21 2.266 . S
In13 O22 2.326 . S
In13 O24 2.294 . S
In13 O25 2.326 . S
O14 In13 2.294 . S
O14 C23 1.240 . S
O15 In13 2.326 . S
O15 C23 1.252 . S
C16 O19 1.252 . S
C16 O20 1.260 . S
C17 O24 1.240 . S
C17 O25 1.252 . S
C18 O21 1.252 . S
C18 O22 1.260 . S
O19 In13 2.266 . S
O19 C16 1.252 . S
O20 In13 2.326 . S
O20 C16 1.260 . S
O21 In13 2.266 . S
O21 C18 1.252 . S
O22 In13 2.326 . S
O22 C18 1.260 . S
C23 O14 1.240 . S
C23 O15 1.252 . S
O24 In13 2.294 . S
O24 C17 1.240 . S
O25 In13 2.326 . S
O25 C17 1.252 . S
In26 O27 2.294 . S
In26 O28 2.326 . S
In26 O32 2.266 . S
In26 O33 2.326 . S
In26 O34 2.266 . S
In26 O35 2.326 . S
In26 O37 2.294 . S
In26 O38 2.326 . S
O27 In26 2.294 . S
O27 C36 1.240 . S
O28 In26 2.326 . S
O28 C36 1.252 . S
C29 O32 1.252 . S
C29 O33 1.260 . S
C30 O37 1.240 . S
C30 O38 1.252 . S
C31 O34 1.252 . S
C31 O35 1.260 . S
O32 In26 2.266 . S
O32 C29 1.252 . S
O33 In26 2.326 . S
O33 C29 1.260 . S
O34 In26 2.266 . S
O34 C31 1.252 . S
O35 In26 2.326 . S
O35 C31 1.260 . S
C36 O27 1.240 . S
C36 O28 1.252 . S
O37 In26 2.294 . S
O37 C30 1.240 . S
O38 In26 2.326 . S
O38 C30 1.252 . S
In39 O40 2.294 . S
In39 O41 2.326 . S
In39 O45 2.266 1_455 S
In39 O46 2.326 . S
In39 O47 2.266 . S
In39 O48 2.326 . S
In39 O50 2.294 . S
In39 O51 2.322 1_455 S
O40 In39 2.294 . S
O40 C49 1.240 . S
O41 In39 2.326 . S
O41 C49 1.252 . S
C42 O45 1.252 . S
C42 O46 1.260 1_655 S
C43 O50 1.240 . S
C43 O51 1.247 1_455 S
C44 O47 1.252 . S
C44 O48 1.260 . S
O45 In39 2.266 1_655 S
O45 C42 1.252 . S
O46 In39 2.326 . S
O46 C42 1.260 1_455 S
O47 In39 2.266 . S
O47 C44 1.252 . S
O48 In39 2.326 . S
O48 C44 1.260 . S
C49 O40 1.240 . S
C49 O41 1.252 . S
O50 In39 2.294 . S
O50 C43 1.240 . S
O51 In39 2.322 1_655 S
O51 C43 1.247 1_655 S
In52 O53 2.294 . S
In52 O54 2.326 . S
In52 O58 2.266 . S
In52 O59 2.326 . S
In52 O60 2.266 . S
In52 O61 2.326 . S
In52 O63 2.294 . S
In52 O64 2.326 . S
O53 In52 2.294 . S
O53 C62 1.240 . S
O54 In52 2.326 . S
O54 C62 1.252 . S
C55 O58 1.252 . S
C55 O59 1.260 . S
C56 O63 1.240 . S
C56 O64 1.252 . S
C57 O60 1.252 . S
C57 O61 1.260 . S
O58 In52 2.266 . S
O58 C55 1.252 . S
O59 In52 2.326 . S
O59 C55 1.260 . S
O60 In52 2.266 . S
O60 C57 1.252 . S
O61 In52 2.326 . S
O61 C57 1.260 . S
C62 O53 1.240 . S
C62 O54 1.252 . S
O63 In52 2.294 . S
O63 C56 1.240 . S
O64 In52 2.326 . S
O64 C56 1.252 . S
In65 O66 2.294 . S
In65 O67 2.322 1_455 S
In65 O71 2.266 . S
In65 O72 2.326 . S
In65 O73 2.266 1_455 S
In65 O74 2.326 . S
In65 O76 2.294 . S
In65 O77 2.326 . S
O66 In65 2.294 . S
O66 C75 1.240 . S
O67 In65 2.322 1_655 S
O67 C75 1.246 1_655 S
C68 O71 1.252 . S
C68 O72 1.260 . S
C69 O76 1.240 . S
C69 O77 1.252 . S
C70 O73 1.252 . S
C70 O74 1.260 1_655 S
O71 In65 2.266 . S
O71 C68 1.252 . S
O72 In65 2.326 . S
O72 C68 1.260 . S
O73 In65 2.266 1_655 S
O73 C70 1.252 . S
O74 In65 2.326 . S
O74 C70 1.260 1_455 S
C75 O66 1.240 . S
C75 O67 1.246 1_455 S
O76 In65 2.294 . S
O76 C69 1.240 . S
O77 In65 2.326 . S
O77 C69 1.252 . S
In78 O79 2.294 . S
In78 O80 2.326 . S
In78 O84 2.266 1_545 S
In78 O85 2.326 . S
In78 O86 2.266 . S
In78 O87 2.326 . S
In78 O89 2.294 . S
In78 O90 2.322 1_545 S
O79 In78 2.294 . S
O79 C88 1.240 . S
O80 In78 2.326 . S
O80 C88 1.252 . S
C81 O84 1.252 . S
C81 O85 1.260 1_565 S
C82 O89 1.240 . S
C82 O90 1.247 1_545 S
C83 O86 1.252 . S
C83 O87 1.260 . S
O84 In78 2.266 1_565 S
O84 C81 1.252 . S
O85 In78 2.326 . S
O85 C81 1.260 1_545 S
O86 In78 2.266 . S
O86 C83 1.252 . S
O87 In78 2.326 . S
O87 C83 1.260 . S
C88 O79 1.240 . S
C88 O80 1.252 . S
O89 In78 2.294 . S
O89 C82 1.240 . S
O90 In78 2.322 1_565 S
O90 C82 1.247 1_565 S
In91 O92 2.294 . S
In91 O93 2.326 . S
In91 O97 2.266 . S
In91 O98 2.326 . S
In91 O99 2.266 . S
In91 O100 2.326 . S
In91 O102 2.294 . S
In91 O103 2.326 . S
O92 In91 2.294 . S
O92 C101 1.240 . S
O93 In91 2.326 . S
O93 C101 1.252 . S
C94 O97 1.252 . S
C94 O98 1.260 . S
C95 O102 1.240 . S
C95 O103 1.252 . S
C96 O99 1.252 . S
C96 O100 1.260 . S
O97 In91 2.266 . S
O97 C94 1.252 . S
O98 In91 2.326 . S
O98 C94 1.260 . S
O99 In91 2.266 . S
O99 C96 1.252 . S
O100 In91 2.326 . S
O100 C96 1.260 . S
C101 O92 1.240 . S
C101 O93 1.252 . S
O102 In91 2.294 . S
O102 C95 1.240 . S
O103 In91 2.326 . S
O103 C95 1.252 . S
C104 C105 1.386 . S
C104 C106 1.383 . S
C104 H120 0.951 . S
C105 C104 1.386 . S
C105 C109 1.383 . S
C106 C104 1.383 . S
C106 C107 1.402 . S
C106 H121 0.951 . S
C107 C106 1.402 . S
C107 C108 1.375 . S
C107 C110 1.481 . S
C108 C107 1.375 . S
C108 C109 1.367 . S
C108 H122 0.951 . S
C109 C105 1.383 . S
C109 C108 1.367 . S
C109 H123 0.950 . S
C110 C107 1.481 . S
C110 C111 1.297 1_554 S
C110 H124 0.950 . S
C111 C110 1.297 1_556 S
C111 C112 1.479 . S
C111 H125 0.950 . S
C112 C111 1.479 . S
C112 C113 1.375 . S
C112 C118 1.404 . S
C113 C112 1.375 . S
C113 C114 1.369 . S
C113 H126 0.950 . S
C114 C113 1.369 . S
C114 C115 1.392 . S
C114 H127 0.951 . S
C115 C114 1.392 . S
C115 C117 1.384 . S
H116 C118 0.949 . S
C117 C115 1.384 . S
C117 C118 1.385 . S
C117 H119 0.950 . S
C118 C112 1.404 . S
C118 H116 0.949 . S
C118 C117 1.385 . S
H119 C117 0.950 . S
H120 C104 0.951 . S
H121 C106 0.951 . S
H122 C108 0.951 . S
H123 C109 0.950 . S
H124 C110 0.950 . S
H125 C111 0.950 . S
H126 C113 0.950 . S
H127 C114 0.951 . S
C128 C129 1.386 . S
C128 C130 1.383 . S
C128 H144 0.951 . S
C129 C128 1.386 . S
C129 C133 1.383 . S
C130 C128 1.383 . S
C130 C131 1.402 . S
C130 H145 0.951 . S
C131 C130 1.402 . S
C131 C132 1.375 . S
C131 C134 1.481 . S
C132 C131 1.375 . S
C132 C133 1.367 . S
C132 H146 0.951 1_455 S
C133 C129 1.383 . S
C133 C132 1.367 . S
C133 H147 0.950 1_455 S
C134 C131 1.481 . S
C134 C135 1.297 . S
C134 H148 0.950 . S
C135 C134 1.297 . S
C135 C136 1.479 . S
C135 H149 0.950 . S
C136 C135 1.479 . S
C136 C137 1.375 . S
C136 C142 1.404 . S
C137 C136 1.375 . S
C137 C138 1.369 . S
C137 H150 0.950 . S
C138 C137 1.369 . S
C138 C139 1.392 . S
C138 H151 0.951 . S
C139 C138 1.392 . S
C139 C141 1.384 . S
H140 C142 0.948 1_655 S
C141 C139 1.384 . S
C141 C142 1.385 . S
C141 H143 0.950 1_455 S
C142 C136 1.404 . S
C142 H140 0.948 1_455 S
C142 C141 1.385 . S
H143 C141 0.950 1_655 S
H144 C128 0.951 . S
H145 C130 0.951 . S
H146 C132 0.951 1_655 S
H147 C133 0.950 1_655 S
H148 C134 0.950 . S
H149 C135 0.950 . S
H150 C137 0.950 . S
H151 C138 0.951 . S
C152 C153 1.386 . S
C152 C154 1.383 . S
C152 H168 0.951 . S
C153 C152 1.386 . S
C153 C157 1.383 . S
C154 C152 1.383 . S
C154 C155 1.402 . S
C154 H169 0.951 . S
C155 C154 1.402 . S
C155 C156 1.375 . S
C155 C158 1.481 . S
C156 C155 1.375 . S
C156 C157 1.367 . S
C156 H170 0.951 . S
C157 C153 1.383 . S
C157 C156 1.367 . S
C157 H171 0.950 . S
C158 C155 1.481 . S
C158 C159 1.297 1_556 S
C158 H172 0.950 . S
C159 C158 1.297 1_554 S
C159 C160 1.479 . S
C159 H173 0.950 . S
C160 C159 1.479 . S
C160 C161 1.375 . S
C160 C166 1.404 . S
C161 C160 1.375 . S
C161 C162 1.369 . S
C161 H174 0.950 . S
C162 C161 1.369 . S
C162 C163 1.392 . S
C162 H175 0.951 . S
C163 C162 1.392 . S
C163 C165 1.384 . S
H164 C166 0.949 . S
C165 C163 1.384 . S
C165 C166 1.385 . S
C165 H167 0.950 . S
C166 C160 1.404 . S
C166 H164 0.949 . S
C166 C165 1.385 . S
H167 C165 0.950 . S
H168 C152 0.951 . S
H169 C154 0.951 . S
H170 C156 0.951 . S
H171 C157 0.950 . S
H172 C158 0.950 . S
H173 C159 0.950 . S
H174 C161 0.950 . S
H175 C162 0.951 . S
C176 C177 1.386 . S
C176 C178 1.383 . S
C176 H192 0.951 . S
C177 C176 1.386 . S
C177 C181 1.383 . S
C178 C176 1.383 . S
C178 C179 1.402 . S
C178 H193 0.951 . S
C179 C178 1.402 . S
C179 C180 1.375 . S
C179 C182 1.481 . S
C180 C179 1.375 . S
C180 C181 1.367 . S
C180 H194 0.951 1_455 S
C181 C177 1.383 . S
C181 C180 1.367 . S
C181 H195 0.934 1_455 S
C182 C179 1.481 . S
C182 C183 1.297 . S
C182 H196 0.950 . S
C183 C182 1.297 . S
C183 C184 1.479 . S
C183 H197 0.950 . S
C184 C183 1.479 . S
C184 C185 1.375 . S
C184 C190 1.404 . S
C185 C184 1.375 . S
C185 C186 1.369 . S
C185 H198 0.950 . S
C186 C185 1.369 . S
C186 C187 1.392 . S
C186 H199 0.951 . S
C187 C186 1.392 . S
C187 C189 1.384 . S
H188 C190 0.949 . S
C189 C187 1.384 . S
C189 C190 1.385 . S
C189 H191 0.950 . S
C190 C184 1.404 . S
C190 H188 0.949 . S
C190 C189 1.385 . S
H191 C189 0.950 . S
H192 C176 0.951 . S
H193 C178 0.951 . S
H194 C180 0.951 1_655 S
H195 C181 0.934 1_655 S
H196 C182 0.950 . S
H197 C183 0.950 . S
H198 C185 0.950 . S
H199 C186 0.951 . S
C200 C201 1.386 . S
C200 C202 1.383 . S
C200 H216 0.951 1_545 S
C201 C200 1.386 . S
C201 C205 1.383 . S
C202 C200 1.383 . S
C202 C203 1.402 . S
C202 H217 0.951 . S
C203 C202 1.402 . S
C203 C204 1.375 . S
C203 C206 1.481 . S
C204 C203 1.375 . S
C204 C205 1.367 . S
C204 H218 0.951 . S
C205 C201 1.383 . S
C205 C204 1.367 . S
C205 H219 0.950 . S
C206 C203 1.481 . S
C206 C207 1.297 . S
C206 H220 0.950 . S
C207 C206 1.297 . S
C207 C208 1.479 . S
C207 H221 0.950 . S
C208 C207 1.479 . S
C208 C209 1.375 . S
C208 C214 1.404 . S
C209 C208 1.375 . S
C209 C210 1.369 . S
C209 H222 0.950 . S
C210 C209 1.369 . S
C210 C211 1.392 . S
C210 H223 0.951 . S
C211 C210 1.392 . S
C211 C213 1.384 . S
H212 C214 0.949 . S
C213 C211 1.384 . S
C213 C214 1.385 . S
C213 H215 0.950 . S
C214 C208 1.404 . S
C214 H212 0.949 . S
C214 C213 1.385 . S
H215 C213 0.950 . S
H216 C200 0.951 1_565 S
H217 C202 0.951 . S
H218 C204 0.951 . S
H219 C205 0.950 . S
H220 C206 0.950 . S
H221 C207 0.950 . S
H222 C209 0.950 . S
H223 C210 0.951 . S
C224 C225 1.386 . S
C224 C226 1.383 . S
C224 H240 0.951 . S
C225 C224 1.386 . S
C225 C229 1.383 . S
C226 C224 1.383 . S
C226 C227 1.402 . S
C226 H241 0.951 . S
C227 C226 1.402 . S
C227 C228 1.375 . S
C227 C230 1.481 . S
C228 C227 1.375 . S
C228 C229 1.367 . S
C228 H242 0.951 . S
C229 C225 1.383 . S
C229 C228 1.367 . S
C229 H243 0.950 . S
C230 C227 1.481 . S
C230 C231 1.297 . S
C230 H244 0.950 . S
C231 C230 1.297 . S
C231 C232 1.479 . S
C231 H245 0.950 . S
C232 C231 1.479 . S
C232 C233 1.375 . S
C232 C238 1.404 . S
C233 C232 1.375 . S
C233 C234 1.369 . S
C233 H246 0.950 . S
C234 C233 1.369 . S
C234 C235 1.392 . S
C234 H247 0.951 1_455 S
C235 C234 1.392 . S
C235 C237 1.384 . S
H236 C238 0.949 . S
C237 C235 1.384 . S
C237 C238 1.385 . S
C237 H239 0.950 . S
C238 C232 1.404 . S
C238 H236 0.949 . S
C238 C237 1.385 . S
H239 C237 0.950 . S
H240 C224 0.951 . S
H241 C226 0.951 . S
H242 C228 0.951 . S
H243 C229 0.950 . S
H244 C230 0.950 . S
H245 C231 0.950 . S
H246 C233 0.950 . S
H247 C234 0.951 1_655 S
C248 C249 1.386 . S
C248 C250 1.383 . S
C248 H264 0.951 . S
C249 C248 1.386 . S
C249 C253 1.383 . S
C250 C248 1.383 . S
C250 C251 1.402 . S
C250 H265 0.951 . S
C251 C250 1.402 . S
C251 C252 1.375 . S
C251 C254 1.481 . S
C252 C251 1.375 . S
C252 C253 1.367 . S
C252 H266 0.951 . S
C253 C249 1.383 . S
C253 C252 1.367 . S
C253 H267 0.950 . S
C254 C251 1.481 . S
C254 C255 1.297 . S
C254 H268 0.950 . S
C255 C254 1.297 . S
C255 C256 1.479 . S
C255 H269 0.950 . S
C256 C255 1.479 . S
C256 C257 1.375 . S
C256 C262 1.404 . S
C257 C256 1.375 . S
C257 C258 1.369 . S
C257 H270 0.950 . S
C258 C257 1.369 . S
C258 C259 1.392 . S
C258 H271 0.951 . S
C259 C258 1.392 . S
C259 C261 1.384 . S
H260 C262 0.949 . S
C261 C259 1.384 . S
C261 C262 1.385 . S
C261 H263 0.950 . S
C262 C256 1.404 . S
C262 H260 0.949 . S
C262 C261 1.385 . S
H263 C261 0.950 . S
H264 C248 0.951 . S
H265 C250 0.951 . S
H266 C252 0.951 . S
H267 C253 0.950 . S
H268 C254 0.950 . S
H269 C255 0.950 . S
H270 C257 0.950 . S
H271 C258 0.951 . S
C272 C273 1.386 . S
C272 C274 1.383 . S
C272 H288 0.951 . S
C273 C272 1.386 . S
C273 C277 1.383 . S
C274 C272 1.383 . S
C274 C275 1.402 . S
C274 H289 0.951 . S
C275 C274 1.402 . S
C275 C276 1.375 . S
C275 C278 1.481 . S
C276 C275 1.375 . S
C276 C277 1.367 . S
C276 H290 0.951 . S
C277 C273 1.383 . S
C277 C276 1.367 . S
C277 H291 0.950 . S
C278 C275 1.481 . S
C278 C279 1.297 . S
C278 H292 0.950 . S
C279 C278 1.297 . S
C279 C280 1.479 . S
C279 H293 0.950 . S
C280 C279 1.479 . S
C280 C281 1.375 . S
C280 C286 1.404 . S
C281 C280 1.375 . S
C281 C282 1.369 . S
C281 H294 0.950 . S
C282 C281 1.369 . S
C282 C283 1.392 . S
C282 H295 0.951 . S
C283 C282 1.392 . S
C283 C285 1.384 . S
H284 C286 0.949 . S
C285 C283 1.384 . S
C285 C286 1.385 . S
C285 H287 0.950 . S
C286 C280 1.404 . S
C286 H284 0.949 . S
C286 C285 1.385 . S
H287 C285 0.950 . S
H288 C272 0.951 . S
H289 C274 0.951 . S
H290 C276 0.951 . S
H291 C277 0.950 . S
H292 C278 0.950 . S
H293 C279 0.950 . S
H294 C281 0.950 . S
H295 C282 0.951 . S
C296 C297 1.386 . S
C296 C298 1.383 . S
C296 H312 0.951 . S
C297 C296 1.386 . S
C297 C301 1.383 . S
C298 C296 1.383 . S
C298 C299 1.402 . S
C298 H313 0.951 . S
C299 C298 1.402 . S
C299 C300 1.375 . S
C299 C302 1.481 . S
C300 C299 1.375 . S
C300 C301 1.367 . S
C300 H314 0.951 . S
C301 C297 1.383 . S
C301 C300 1.367 . S
C301 H315 0.950 . S
C302 C299 1.481 . S
C302 C303 1.297 . S
C302 H316 0.950 . S
C303 C302 1.297 . S
C303 C304 1.479 . S
C303 H317 0.950 . S
C304 C303 1.479 . S
C304 C305 1.375 . S
C304 C310 1.404 . S
C305 C304 1.375 . S
C305 C306 1.369 . S
C305 H318 0.950 . S
C306 C305 1.369 . S
C306 C307 1.392 . S
C306 H319 0.951 . S
C307 C306 1.392 . S
C307 C309 1.384 . S
H308 C310 0.949 . S
C309 C307 1.384 . S
C309 C310 1.385 . S
C309 H311 0.950 . S
C310 C304 1.404 . S
C310 H308 0.949 . S
C310 C309 1.385 . S
H311 C309 0.950 . S
H312 C296 0.951 . S
H313 C298 0.951 . S
H314 C300 0.951 . S
H315 C301 0.950 . S
H316 C302 0.950 . S
H317 C303 0.950 . S
H318 C305 0.950 . S
H319 C306 0.951 . S
C320 C321 1.386 . S
C320 C322 1.383 . S
C320 H336 0.951 1_655 S
C321 C320 1.386 . S
C321 C325 1.383 . S
C322 C320 1.383 . S
C322 C323 1.402 . S
C322 H337 0.951 . S
C323 C322 1.402 . S
C323 C324 1.375 . S
C323 C326 1.481 . S
C324 C323 1.375 . S
C324 C325 1.367 . S
C324 H338 0.951 . S
C325 C321 1.383 . S
C325 C324 1.367 . S
C325 H339 0.950 . S
C326 C323 1.481 . S
C326 C327 1.297 . S
C326 H340 0.950 . S
C327 C326 1.297 . S
C327 C328 1.479 . S
C327 H341 0.950 . S
C328 C327 1.479 . S
C328 C329 1.375 . S
C328 C334 1.404 . S
C329 C328 1.375 . S
C329 C330 1.369 . S
C329 H342 0.950 . S
C330 C329 1.369 . S
C330 C331 1.392 . S
C330 H343 0.951 . S
C331 C330 1.392 . S
C331 C333 1.384 . S
H332 C334 0.949 . S
C333 C331 1.384 . S
C333 C334 1.385 . S
C333 H335 0.950 . S
C334 C328 1.404 . S
C334 H332 0.949 . S
C334 C333 1.385 . S
H335 C333 0.950 . S
H336 C320 0.951 1_455 S
H337 C322 0.951 . S
H338 C324 0.951 . S
H339 C325 0.950 . S
H340 C326 0.950 . S
H341 C327 0.950 . S
H342 C329 0.950 . S
H343 C330 0.951 . S
C344 C345 1.386 . S
C344 C346 1.383 . S
C344 H360 0.951 . S
C345 C344 1.386 . S
C345 C349 1.383 . S
C346 C344 1.383 . S
C346 C347 1.402 . S
C346 H361 0.951 . S
C347 C346 1.402 . S
C347 C348 1.375 . S
C347 C350 1.481 . S
C348 C347 1.375 . S
C348 C349 1.367 . S
C348 H362 0.951 . S
C349 C345 1.383 . S
C349 C348 1.367 . S
C349 H363 0.950 1_655 S
C350 C347 1.481 . S
C350 C351 1.297 . S
C350 H364 0.950 . S
C351 C350 1.297 . S
C351 C352 1.479 . S
C351 H365 0.950 . S
C352 C351 1.479 . S
C352 C353 1.375 . S
C352 C358 1.404 . S
C353 C352 1.375 . S
C353 C354 1.369 . S
C353 H366 0.950 . S
C354 C353 1.369 . S
C354 C355 1.392 . S
C354 H367 0.951 . S
C355 C354 1.392 . S
C355 C357 1.384 . S
H356 C358 0.949 . S
C357 C355 1.384 . S
C357 C358 1.385 . S
C357 H359 0.950 1_565 S
C358 C352 1.404 . S
C358 H356 0.949 . S
C358 C357 1.385 . S
H359 C357 0.950 1_545 S
H360 C344 0.951 . S
H361 C346 0.951 . S
H362 C348 0.951 . S
H363 C349 0.950 1_455 S
H364 C350 0.950 . S
H365 C351 0.950 . S
H366 C353 0.950 . S
H367 C354 0.951 . S
C368 C369 1.386 . S
C368 C370 1.383 . S
C368 H384 0.951 . S
C369 C368 1.386 . S
C369 C373 1.383 . S
C370 C368 1.383 . S
C370 C371 1.402 . S
C370 H385 0.951 . S
C371 C370 1.402 . S
C371 C372 1.375 . S
C371 C374 1.481 . S
C372 C371 1.375 . S
C372 C373 1.367 . S
C372 H386 0.951 . S
C373 C369 1.383 . S
C373 C372 1.367 . S
C373 H387 0.950 . S
C374 C371 1.481 . S
C374 C375 1.297 . S
C374 H388 0.950 . S
C375 C374 1.297 . S
C375 C376 1.479 . S
C375 H389 0.950 . S
C376 C375 1.479 . S
C376 C377 1.375 . S
C376 C382 1.404 . S
C377 C376 1.375 . S
C377 C378 1.369 . S
C377 H390 0.950 . S
C378 C377 1.369 . S
C378 C379 1.392 . S
C378 H391 0.951 . S
C379 C378 1.392 . S
C379 C381 1.384 . S
H380 C382 0.949 . S
C381 C379 1.384 . S
C381 C382 1.385 . S
C381 H383 0.950 . S
C382 C376 1.404 . S
C382 H380 0.949 . S
C382 C381 1.385 . S
H383 C381 0.950 . S
H384 C368 0.951 . S
H385 C370 0.951 . S
H386 C372 0.951 . S
H387 C373 0.950 . S
H388 C374 0.950 . S
H389 C375 0.950 . S
H390 C377 0.950 . S
H391 C378 0.951 . S
C392 C393 1.386 . S
C392 C394 1.383 . S
C392 H408 0.951 . S
C393 C392 1.386 . S
C393 C397 1.383 . S
C394 C392 1.383 . S
C394 C395 1.402 . S
C394 H409 0.951 . S
C395 C394 1.402 . S
C395 C396 1.375 . S
C395 C398 1.481 . S
C396 C395 1.375 . S
C396 C397 1.367 . S
C396 H410 0.951 . S
C397 C393 1.383 . S
C397 C396 1.367 . S
C397 H411 0.950 . S
C398 C395 1.481 . S
C398 C399 1.297 . S
C398 H412 0.950 . S
C399 C398 1.297 . S
C399 C400 1.479 . S
C399 H413 0.950 . S
C400 C399 1.479 . S
C400 C401 1.375 . S
C400 C406 1.404 . S
C401 C400 1.375 . S
C401 C402 1.369 . S
C401 H414 0.950 . S
C402 C401 1.369 . S
C402 C403 1.392 . S
C402 H415 0.932 1_655 S
C403 C402 1.392 . S
C403 C405 1.384 . S
H404 C406 0.949 . S
C405 C403 1.384 . S
C405 C406 1.385 . S
C405 H407 0.950 . S
C406 C400 1.404 . S
C406 H404 0.949 . S
C406 C405 1.385 . S
H407 C405 0.950 . S
H408 C392 0.951 . S
H409 C394 0.951 . S
H410 C396 0.951 . S
H411 C397 0.950 . S
H412 C398 0.950 . S
H413 C399 0.950 . S
H414 C401 0.950 . S
H415 C402 0.932 1_455 S
C416 C417 1.386 . S
C416 C418 1.383 . S
C416 H432 0.951 . S
C417 C416 1.386 . S
C417 C421 1.383 . S
C418 C416 1.383 . S
C418 C419 1.402 . S
C418 H433 0.951 . S
C419 C418 1.402 . S
C419 C420 1.375 . S
C419 C422 1.481 . S
C420 C419 1.375 . S
C420 C421 1.367 . S
C420 H434 0.951 . S
C421 C417 1.383 . S
C421 C420 1.367 . S
C421 H435 0.950 . S
C422 C419 1.481 . S
C422 C423 1.297 . S
C422 H436 0.950 . S
C423 C422 1.297 . S
C423 C424 1.479 . S
C423 H437 0.950 . S
C424 C423 1.479 . S
C424 C425 1.375 . S
C424 C430 1.404 . S
C425 C424 1.375 . S
C425 C426 1.369 . S
C425 H438 0.950 . S
C426 C425 1.369 . S
C426 C427 1.392 . S
C426 H439 0.951 . S
C427 C426 1.392 . S
C427 C429 1.384 . S
H428 C430 0.949 . S
C429 C427 1.384 . S
C429 C430 1.385 . S
C429 H431 0.950 . S
C430 C424 1.404 . S
C430 H428 0.949 . S
C430 C429 1.385 . S
H431 C429 0.950 . S
H432 C416 0.951 . S
H433 C418 0.951 . S
H434 C420 0.951 . S
H435 C421 0.950 . S
H436 C422 0.950 . S
H437 C423 0.950 . S
H438 C425 0.950 . S
H439 C426 0.951 . S
C440 C441 1.386 . S
C440 C442 1.383 . S
C440 H456 0.951 . S
C441 C440 1.386 . S
C441 C445 1.383 . S
C442 C440 1.383 . S
C442 C443 1.402 . S
C442 H457 0.951 . S
C443 C442 1.402 . S
C443 C444 1.375 . S
C443 C446 1.481 . S
C444 C443 1.375 . S
C444 C445 1.367 . S
C444 H458 0.951 . S
C445 C441 1.383 . S
C445 C444 1.367 . S
C445 H459 0.950 . S
C446 C443 1.481 . S
C446 C447 1.297 . S
C446 H460 0.950 . S
C447 C446 1.297 . S
C447 C448 1.479 . S
C447 H461 0.950 . S
C448 C447 1.479 . S
C448 C449 1.375 . S
C448 C454 1.404 . S
C449 C448 1.375 . S
C449 C450 1.369 . S
C449 H462 0.950 . S
C450 C449 1.369 . S
C450 C451 1.392 . S
C450 H463 0.951 . S
C451 C450 1.392 . S
C451 C453 1.384 . S
H452 C454 0.949 . S
C453 C451 1.384 . S
C453 C454 1.385 . S
C453 H455 0.950 . S
C454 C448 1.404 . S
C454 H452 0.949 . S
C454 C453 1.385 . S
H455 C453 0.950 . S
H456 C440 0.951 . S
H457 C442 0.951 . S
H458 C444 0.951 . S
H459 C445 0.950 . S
H460 C446 0.950 . S
H461 C447 0.950 . S
H462 C449 0.950 . S
H463 C450 0.951 . S
C464 C465 1.386 . S
C464 C466 1.383 . S
C464 H480 0.951 . S
C465 C464 1.386 . S
C465 C469 1.383 . S
C466 C464 1.383 . S
C466 C467 1.402 . S
C466 H481 0.951 . S
C467 C466 1.402 . S
C467 C468 1.375 . S
C467 C470 1.481 . S
C468 C467 1.375 . S
C468 C469 1.367 . S
C468 H482 0.951 . S
C469 C465 1.383 . S
C469 C468 1.367 . S
C469 H483 0.950 1_655 S
C470 C467 1.481 . S
C470 C471 1.297 . S
C470 H484 0.950 . S
C471 C470 1.297 . S
C471 C472 1.479 . S
C471 H485 0.950 . S
C472 C471 1.479 . S
C472 C473 1.375 . S
C472 C478 1.404 . S
C473 C472 1.375 . S
C473 C474 1.369 . S
C473 H486 0.950 . S
C474 C473 1.369 . S
C474 C475 1.392 . S
C474 H487 0.951 . S
C475 C474 1.392 . S
C475 C477 1.384 . S
H476 C478 0.949 . S
C477 C475 1.384 . S
C477 C478 1.385 . S
C477 H479 0.950 . S
C478 C472 1.404 . S
C478 H476 0.949 . S
C478 C477 1.385 . S
H479 C477 0.950 . S
H480 C464 0.951 . S
H481 C466 0.951 . S
H482 C468 0.951 . S
H483 C469 0.950 1_455 S
H484 C470 0.950 . S
H485 C471 0.950 . S
H486 C473 0.950 . S
H487 C474 0.951 . S
C105 C4 1.629 . S
C115 C62 1.600 . S
C129 C17 1.626 . S
C139 C69 1.617 . S
C153 C88 1.629 . S
C163 C30 1.599 . S
C177 C101 1.623 . S
C187 C49 1.622 . S
C201 C10 1.376 . S
C211 C36 1.342 . S
C225 C23 1.395 . S
C235 C43 1.357 . S
C249 C82 1.379 . S
C259 C56 1.341 . S
C273 C75 1.385 . S
C283 C95 1.342 . S
C297 C68 1.654 . S
C307 C3 1.655 . S
C321 C16 1.661 1_655 S
C331 C83 1.666 . S
C345 C96 1.666 1_655 S
C355 C29 1.642 1_565 S
C369 C44 1.669 . S
C379 C57 1.657 1_565 S
C393 C81 1.147 . S
C403 C42 1.160 . S
C417 C5 1.157 . S
C427 C94 1.160 . S
C441 C18 1.117 . S
C451 C55 1.106 . S
C465 C70 1.138 . S
C475 C31 1.118 . S
