# Generated by pormake.
# Topology vcl, (7)-cn, num edge types: 1
# Building blocks:
#     Node 0, Type 0, BuildingBlock: NUHQUE_clean_sbu_2, # of connection points: 7
#     Node 1, Type 0, BuildingBlock: NUHQUE_clean_sbu_2, # of connection points: 7
#     Node 2, Type 0, BuildingBlock: NUHQUE_clean_sbu_2, # of connection points: 7
#     Node 3, Type 0, BuildingBlock: NUHQUE_clean_sbu_2, # of connection points: 7
#     Node 4, Type 0, BuildingBlock: NUHQUE_clean_sbu_2, # of connection points: 7
#     Node 5, Type 0, BuildingBlock: NUHQUE_clean_sbu_2, # of connection points: 7
#     Node 6, Type 0, BuildingBlock: NUHQUE_clean_sbu_2, # of connection points: 7
#     Node 7, Type 0, BuildingBlock: NUHQUE_clean_sbu_2, # of connection points: 7
#     Node 8, Type 0, BuildingBlock: NUHQUE_clean_sbu_2, # of connection points: 7
#     Node 9, Type 0, BuildingBlock: NUHQUE_clean_sbu_2, # of connection points: 7
#     Node 10, Type 0, BuildingBlock: NUHQUE_clean_sbu_2, # of connection points: 7
#     Node 11, Type 0, BuildingBlock: NUHQUE_clean_sbu_2, # of connection points: 7
#     Node 12, Type 0, BuildingBlock: NUHQUE_clean_sbu_2, # of connection points: 7
#     Node 13, Type 0, BuildingBlock: NUHQUE_clean_sbu_2, # of connection points: 7
#     Node 14, Type 0, BuildingBlock: NUHQUE_clean_sbu_2, # of connection points: 7
#     Node 15, Type 0, BuildingBlock: NUHQUE_clean_sbu_2, # of connection points: 7
#     Edge 16, Type (0, 0), BuildingBlock: MIFKUJ_clean_linker_0, # of connection points: 2
#     Edge 17, Type (0, 0), BuildingBlock: MIFKUJ_clean_linker_0, # of connection points: 2
#     Edge 18, Type (0, 0), BuildingBlock: MIFKUJ_clean_linker_0, # of connection points: 2
#     Edge 19, Type (0, 0), BuildingBlock: MIFKUJ_clean_linker_0, # of connection points: 2
#     Edge 20, Type (0, 0), BuildingBlock: MIFKUJ_clean_linker_0, # of connection points: 2
#     Edge 21, Type (0, 0), BuildingBlock: MIFKUJ_clean_linker_0, # of connection points: 2
#     Edge 22, Type (0, 0), BuildingBlock: MIFKUJ_clean_linker_0, # of connection points: 2
#     Edge 23, Type (0, 0), BuildingBlock: MIFKUJ_clean_linker_0, # of connection points: 2
#     Edge 24, Type (0, 0), BuildingBlock: MIFKUJ_clean_linker_0, # of connection points: 2
#     Edge 25, Type (0, 0), BuildingBlock: MIFKUJ_clean_linker_0, # of connection points: 2
#     Edge 26, Type (0, 0), BuildingBlock: MIFKUJ_clean_linker_0, # of connection points: 2
#     Edge 27, Type (0, 0), BuildingBlock: MIFKUJ_clean_linker_0, # of connection points: 2
#     Edge 28, Type (0, 0), BuildingBlock: MIFKUJ_clean_linker_0, # of connection points: 2
#     Edge 29, Type (0, 0), BuildingBlock: MIFKUJ_clean_linker_0, # of connection points: 2
#     Edge 30, Type (0, 0), BuildingBlock: MIFKUJ_clean_linker_0, # of connection points: 2
#     Edge 31, Type (0, 0), BuildingBlock: MIFKUJ_clean_linker_0, # of connection points: 2
#     Edge 32, Type (0, 0), BuildingBlock: MIFKUJ_clean_linker_0, # of connection points: 2
#     Edge 33, Type (0, 0), BuildingBlock: MIFKUJ_clean_linker_0, # of connection points: 2
#     Edge 34, Type (0, 0), BuildingBlock: MIFKUJ_clean_linker_0, # of connection points: 2
#     Edge 35, Type (0, 0), BuildingBlock: MIFKUJ_clean_linker_0, # of connection points: 2
#     Edge 36, Type (0, 0), BuildingBlock: MIFKUJ_clean_linker_0, # of connection points: 2
#     Edge 37, Type (0, 0), BuildingBlock: MIFKUJ_clean_linker_0, # of connection points: 2
#     Edge 38, Type (0, 0), BuildingBlock: MIFKUJ_clean_linker_0, # of connection points: 2
#     Edge 39, Type (0, 0), BuildingBlock: MIFKUJ_clean_linker_0, # of connection points: 2
#     Edge 40, Type (0, 0), BuildingBlock: MIFKUJ_clean_linker_0, # of connection points: 2
#     Edge 41, Type (0, 0), BuildingBlock: MIFKUJ_clean_linker_0, # of connection points: 2
#     Edge 42, Type (0, 0), BuildingBlock: MIFKUJ_clean_linker_0, # of connection points: 2
#     Edge 43, Type (0, 0), BuildingBlock: MIFKUJ_clean_linker_0, # of connection points: 2
#     Edge 44, Type (0, 0), BuildingBlock: MIFKUJ_clean_linker_0, # of connection points: 2
#     Edge 45, Type (0, 0), BuildingBlock: MIFKUJ_clean_linker_0, # of connection points: 2
#     Edge 46, Type (0, 0), BuildingBlock: MIFKUJ_clean_linker_0, # of connection points: 2
#     Edge 47, Type (0, 0), BuildingBlock: MIFKUJ_clean_linker_0, # of connection points: 2
#     Edge 48, Type (0, 0), BuildingBlock: MIFKUJ_clean_linker_0, # of connection points: 2
#     Edge 49, Type (0, 0), BuildingBlock: MIFKUJ_clean_linker_0, # of connection points: 2
#     Edge 50, Type (0, 0), BuildingBlock: MIFKUJ_clean_linker_0, # of connection points: 2
#     Edge 51, Type (0, 0), BuildingBlock: MIFKUJ_clean_linker_0, # of connection points: 2
#     Edge 52, Type (0, 0), BuildingBlock: MIFKUJ_clean_linker_0, # of connection points: 2
#     Edge 53, Type (0, 0), BuildingBlock: MIFKUJ_clean_linker_0, # of connection points: 2
#     Edge 54, Type (0, 0), BuildingBlock: MIFKUJ_clean_linker_0, # of connection points: 2
#     Edge 55, Type (0, 0), BuildingBlock: MIFKUJ_clean_linker_0, # of connection points: 2
#     Edge 56, Type (0, 0), BuildingBlock: MIFKUJ_clean_linker_0, # of connection points: 2
#     Edge 57, Type (0, 0), BuildingBlock: MIFKUJ_clean_linker_0, # of connection points: 2
#     Edge 58, Type (0, 0), BuildingBlock: MIFKUJ_clean_linker_0, # of connection points: 2
#     Edge 59, Type (0, 0), BuildingBlock: MIFKUJ_clean_linker_0, # of connection points: 2
#     Edge 60, Type (0, 0), BuildingBlock: MIFKUJ_clean_linker_0, # of connection points: 2
#     Edge 61, Type (0, 0), BuildingBlock: MIFKUJ_clean_linker_0, # of connection points: 2
#     Edge 62, Type (0, 0), BuildingBlock: MIFKUJ_clean_linker_0, # of connection points: 2
#     Edge 63, Type (0, 0), BuildingBlock: MIFKUJ_clean_linker_0, # of connection points: 2
#     Edge 64, Type (0, 0), BuildingBlock: MIFKUJ_clean_linker_0, # of connection points: 2
#     Edge 65, Type (0, 0), BuildingBlock: MIFKUJ_clean_linker_0, # of connection points: 2
#     Edge 66, Type (0, 0), BuildingBlock: MIFKUJ_clean_linker_0, # of connection points: 2
#     Edge 67, Type (0, 0), BuildingBlock: MIFKUJ_clean_linker_0, # of connection points: 2
#     Edge 68, Type (0, 0), BuildingBlock: MIFKUJ_clean_linker_0, # of connection points: 2
#     Edge 69, Type (0, 0), BuildingBlock: MIFKUJ_clean_linker_0, # of connection points: 2
#     Edge 70, Type (0, 0), BuildingBlock: MIFKUJ_clean_linker_0, # of connection points: 2
#     Edge 71, Type (0, 0), BuildingBlock: MIFKUJ_clean_linker_0, # of connection points: 2
# Relax obj value: 0.202
# Max RMSD: 0.250
# Mean RMSD: 0.250
data_MOF--net-vcl--node1-NUHQUE_clean_sbu_2--edge1-MIFKUJ_clean_linker_0
_symmetry_space_group_name_H-M    P1
_symmetry_Int_Tables_number       1
_symmetry_cell_setting            triclinic
loop_
_symmetry_equiv_pos_as_xyz
'x, y, z'
_cell_length_a     74.498697
_cell_length_b     62.397637
_cell_length_c     41.154172
_cell_angle_alpha  89.998577
_cell_angle_beta   90.039832
_cell_angle_gamma 89.929517
loop_
_atom_site_label
_atom_site_type_symbol
_atom_site_fract_x
_atom_site_fract_y
_atom_site_fract_z
_atom_type_partial_charge
O0 O 0.32844 0.03771 0.05313 0.0
Tb1 Tb 0.31111 0.06598 0.0446 0.0
Eu2 Eu 0.2759 0.10076 1.00799 0.0
C3 C 0.32193 0.01822 0.05789 0.0
O4 O 0.30486 0.01481 0.05198 0.0
C5 C 0.27141 0.06485 0.0643 0.0
O6 O 0.26336 0.13446 0.01288 0.0
C7 C 0.26706 0.08178 0.95299 0.0
C8 C 0.27162 0.15102 0.99918 0.0
O9 O 0.28607 0.14708 0.98191 0.0
C10 C 0.31904 0.10298 0.99626 0.0
C11 C 0.25164 0.07128 0.93612 0.0
C12 C 0.25363 0.06113 0.90529 0.0
C13 C 0.23834 0.0542 0.88747 0.0
C14 C 0.2213 0.05733 0.90119 0.0
C15 C 0.21917 0.06739 0.93147 0.0
C16 C 0.23435 0.07405 0.94889 0.0
O17 O 0.28364 0.05432 0.04744 0.0
O18 O 0.26633 0.08426 0.05481 0.0
O19 O 0.32297 0.07202 0.09212 0.0
O20 O 0.30835 0.09685 0.06954 0.0
C21 C 0.31768 0.09173 0.09502 0.0
O22 O 0.30464 0.11249 1.00802 0.0
O23 O 0.32207 0.08227 1.00132 0.0
O24 O 0.27469 0.07173 0.97749 0.0
O25 O 0.26511 0.10232 0.95888 0.0
H26 H 0.26686 0.05956 0.89462 0.0
H27 H 0.20949 0.05284 0.88734 0.0
H28 H 0.23264 0.08239 0.97181 0.0
O29 O 0.65885 0.99313 0.06328 0.0
Tb30 Tb 0.67097 0.96144 0.05372 0.0
Eu31 Eu 0.71475 0.92426 0.99692 0.0
C32 C 0.65945 1.00126 0.09301 0.0
O33 O 0.66783 0.99043 0.11577 0.0
C34 C 0.71272 0.95394 0.0576 0.0
O35 O 0.72781 0.89073 0.995 0.0
C36 C 0.72099 0.94839 0.94554 0.0
C37 C 0.72074 0.8745 1.01145 0.0
O38 O 0.70666 0.87842 0.02973 0.0
C39 C 0.67153 0.93014 0.99461 0.0
C40 C 0.73568 0.95352 0.92219 0.0
C41 C 0.73242 0.9648 0.89268 0.0
C42 C 0.74693 0.97112 0.87247 0.0
C43 C 0.76444 0.96571 0.882 0.0
C44 C 0.76781 0.95439 0.91081 0.0
C45 C 0.75339 0.94829 0.93065 0.0
O46 O 0.69895 0.95931 0.03921 0.0
O47 O 0.72395 0.93992 0.04461 0.0
O48 O 0.67412 0.9467 0.10195 0.0
O49 O 0.65351 0.93593 0.0699 0.0
C50 C 0.66088 0.93328 0.09819 0.0
O51 O 0.68522 0.92222 1.01113 0.0
O52 O 0.66254 0.94649 1.00755 0.0
O53 O 0.72367 0.95445 0.9757 0.0
O54 O 0.71379 0.92922 0.94398 0.0
H55 H 0.71882 0.9691 0.88599 0.0
H56 H 0.77558 0.96994 0.8663 0.0
H57 H 0.75598 0.93982 0.95318 0.0
O58 O 0.91617 0.27798 0.31936 0.0
Tb59 Tb 0.92442 0.31113 0.30806 0.0
Eu60 Eu 0.96707 0.35087 0.25046 0.0
C61 C 0.91397 0.27274 0.35031 0.0
O62 O 0.91821 0.28708 0.37237 0.0
C63 C 0.96596 0.31959 0.31001 0.0
O64 O 0.9794 0.38471 0.2463 0.0
C65 C 0.97254 0.32662 0.19917 0.0
C66 C 0.97297 0.40093 0.2636 0.0
O67 O 0.95992 0.39689 0.28419 0.0
C68 C 0.92413 0.34451 0.25325 0.0
C69 C 0.9864 0.32459 0.17333 0.0
C70 C 0.98415 0.31131 0.14549 0.0
C71 C -0.00133 0.30792 0.12365 0.0
C72 C 0.01507 0.31823 0.12999 0.0
C73 C 0.01734 0.33123 0.15742 0.0
C74 C 0.00297 0.33453 0.17863 0.0
O75 O 0.95226 0.31343 0.29198 0.0
O76 O 0.97655 0.33447 0.29737 0.0
O77 O 0.90401 0.32627 0.33774 0.0
O78 O 0.93153 0.33153 0.34956 0.0
C79 C 0.915 0.33572 0.35756 0.0
O80 O 0.93859 0.3498 0.2698 0.0
O81 O 0.91441 0.32845 0.26492 0.0
O82 O 0.97829 0.32213 0.2286 0.0
O83 O 0.96225 0.34379 0.1988 0.0
H84 H 0.97152 0.30315 0.14152 0.0
H85 H 0.02634 0.3158 0.11371 0.0
H86 H 0.0048 0.34461 0.19986 0.0
O87 O 0.09185 0.74027 0.31854 0.0
Tb88 Tb 0.07638 0.71082 0.30893 0.0
Eu89 Eu 0.03336 0.67599 0.24272 0.0
C90 C 0.08482 0.75504 0.3378 0.0
O91 O 0.06836 0.75214 0.34821 0.0
C92 C 0.03465 0.7051 0.3081 0.0
O93 O 0.0269 0.63993 0.23809 0.0
C94 C 0.02242 0.69884 0.19281 0.0
C95 C 0.01735 0.62907 0.25966 0.0
O96 O 0.01098 0.63942 0.28496 0.0
C97 C 0.07823 0.68224 0.25027 0.0
C98 C 0.00907 0.69725 0.16592 0.0
C99 C 0.00949 0.7107 0.13792 0.0
C100 C 0.99514 0.71044 0.11497 0.0
C101 C 0.98071 0.69635 0.12085 0.0
C102 C 0.98005 0.68345 0.14875 0.0
C103 C 0.99445 0.68357 0.17049 0.0
O104 O 0.04832 0.71405 0.2928 0.0
O105 O 0.025 0.69021 0.2926 0.0
O106 O 0.0754 0.70381 0.36127 0.0
O107 O 0.08286 0.67933 0.32845 0.0
C108 C 0.08048 0.68391 0.35883 0.0
O109 O 0.06129 0.68523 0.2576 0.0
O110 O 0.08925 0.69399 0.26792 0.0
O111 O 0.0155 0.69999 0.22221 0.0
O112 O 0.03647 0.68602 0.19175 0.0
H113 H 0.02053 0.72177 0.13472 0.0
H114 H 0.96969 0.69542 0.10372 0.0
H115 H 0.99376 0.67389 0.19235 0.0
O116 O 0.3338 0.53515 0.556 0.0
Tb117 Tb 0.32095 0.56676 0.54827 0.0
Eu118 Eu 0.28354 0.60198 0.51474 0.0
C119 C 0.332 0.52612 0.58502 0.0
O120 O 0.32175 0.53595 0.60631 0.0
C121 C 0.28207 0.56753 0.57404 0.0
O122 O 0.26798 0.63375 0.51092 0.0
C123 C 0.2768 0.57699 0.46447 0.0
C124 C 0.27121 0.64945 0.53179 0.0
O125 O 0.28212 0.64553 0.55617 0.0
C126 C 0.3253 0.60424 0.50012 0.0
C127 C 0.26194 0.57428 0.44054 0.0
C128 C 0.26378 0.56193 0.4116 0.0
C129 C 0.24901 0.55937 0.38999 0.0
C130 C 0.23281 0.56985 0.39757 0.0
C131 C 0.23095 0.58214 0.42591 0.0
C132 C 0.24547 0.58419 0.44723 0.0
O133 O 0.29338 0.55615 0.55634 0.0
O134 O 0.27756 0.58721 0.56481 0.0
O135 O 0.3399 0.57362 0.58716 0.0
O136 O 0.31762 0.59446 0.58072 0.0
C137 C 0.33176 0.59046 0.59821 0.0
O138 O 0.31245 0.61286 0.51773 0.0
O139 O 0.329 0.58354 0.50332 0.0
O140 O 0.27303 0.57203 0.49471 0.0
O141 O 0.28591 0.59491 0.46267 0.0
H142 H 0.27641 0.55405 0.40634 0.0
H143 H 0.22144 0.5684 0.38126 0.0
H144 H 0.24403 0.59383 0.46902 0.0
O145 O 0.65796 0.49062 0.56664 0.0
Tb146 Tb 0.67428 0.46116 0.56232 0.0
Eu147 Eu 0.71702 0.42674 0.49629 0.0
C148 C 0.6653 0.50975 0.57073 0.0
O149 O 0.68266 0.5118 0.56626 0.0
C150 C 0.71594 0.45516 0.56161 0.0
O151 O 0.72656 0.39161 0.49303 0.0
C152 C 0.72676 0.45134 0.44774 0.0
C153 C 0.71736 0.37562 0.50615 0.0
O154 O 0.70264 0.38025 0.52225 0.0
C155 C 0.67206 0.42963 0.50737 0.0
C156 C 0.74062 0.45415 0.42202 0.0
C157 C 0.73724 0.46649 0.39361 0.0
C158 C 0.75146 0.47186 0.37221 0.0
C159 C 0.76881 0.46451 0.37946 0.0
C160 C 0.77231 0.4524 0.40741 0.0
C161 C 0.75815 0.44695 0.42818 0.0
O162 O 0.70226 0.46416 0.54623 0.0
O163 O 0.72578 0.44066 0.54578 0.0
O164 O 0.67191 0.46027 0.61542 0.0
O165 O 0.67309 0.43119 0.5895 0.0
C166 C 0.67162 0.43955 0.61823 0.0
O167 O 0.68894 0.43472 0.51186 0.0
O168 O 0.66093 0.441 0.52542 0.0
O169 O 0.73252 0.4534 0.4778 0.0
O170 O 0.71485 0.43588 0.44464 0.0
H171 H 0.72386 0.47261 0.38897 0.0
H172 H 0.77974 0.46824 0.36302 0.0
H173 H 0.76094 0.43797 0.45017 0.0
O174 O 0.91372 0.78062 0.81763 0.0
Tb175 Tb 0.92207 0.81374 0.80581 0.0
Eu176 Eu 0.96563 0.85067 0.74533 0.0
C177 C 0.91008 0.77585 0.84833 0.0
O178 O 0.91221 0.79087 0.87035 0.0
C179 C 0.96452 0.82054 0.80613 0.0
O180 O 0.97789 0.88454 0.74319 0.0
C181 C 0.97082 0.8271 0.69303 0.0
C182 C 0.96883 0.90108 0.75515 0.0
O183 O 0.95339 0.8972 0.76938 0.0
C184 C 0.92224 0.84573 0.7486 0.0
C185 C 0.98461 0.82365 0.66721 0.0
C186 C 0.98094 0.81177 0.63838 0.0
C187 C 0.99493 0.80692 0.61608 0.0
C188 C 0.01231 0.8142 0.62291 0.0
C189 C 0.01609 0.82581 0.65122 0.0
C190 C 0.00224 0.83057 0.67309 0.0
O191 O 0.94991 0.81577 0.78944 0.0
O192 O 0.97576 0.83392 0.79162 0.0
O193 O 0.90113 0.82932 0.83366 0.0
O194 O 0.92844 0.835 0.84678 0.0
C195 C 0.91174 0.83925 0.85363 0.0
O196 O 0.93696 0.85108 0.7644 0.0
O197 O 0.91235 0.83024 0.76164 0.0
O198 O 0.97578 0.82163 0.72252 0.0
O199 O 0.96172 0.84519 0.69286 0.0
H200 H 0.96751 0.80582 0.63388 0.0
H201 H 0.02315 0.8103 0.60632 0.0
H202 H 0.00525 0.83946 0.69508 0.0
O203 O 0.08536 0.24184 0.82561 0.0
Tb204 Tb 0.07041 0.21279 0.81147 0.0
Eu205 Eu 0.02856 0.17616 0.74991 0.0
C206 C 0.07901 0.2616 0.8237 0.0
O207 O 0.06347 0.26488 0.80943 0.0
C208 C 0.02896 0.20635 0.81114 0.0
O209 O 0.0162 0.14231 0.74815 0.0
C210 C 0.02198 0.19908 0.69755 0.0
C211 C 0.02675 0.12517 0.74868 0.0
O212 O 0.04415 0.1282 0.75093 0.0
C213 C 0.07169 0.18345 0.75171 0.0
C214 C 0.00751 0.1999 0.67259 0.0
C215 C 0.00921 0.21128 0.64273 0.0
C216 C 0.99473 0.21189 0.62013 0.0
C217 C 0.97865 0.2015 0.62869 0.0
C218 C 0.97691 0.19031 0.65805 0.0
C219 C 0.99137 0.18944 0.67961 0.0
O220 O 0.04283 0.21323 0.79426 0.0
O221 O 0.01855 0.19194 0.7969 0.0
O222 O 0.06606 0.19802 0.85946 0.0
O223 O 0.08284 0.18262 0.8247 0.0
C224 C 0.07593 0.18123 0.85349 0.0
O225 O 0.05757 0.17594 0.76732 0.0
O226 O 0.08051 0.19946 0.76565 0.0
O227 O 0.01703 0.20453 0.72707 0.0
O228 O 0.03226 0.18194 0.69767 0.0
H229 H 0.02169 0.21936 0.63709 0.0
H230 H 0.96712 0.20251 0.61268 0.0
H231 H 0.99006 0.18056 0.70215 0.0
O232 O 0.83625 0.03433 0.56588 0.0
Tb233 Tb 0.81975 0.06294 0.55478 0.0
Eu234 Eu 0.77707 0.10015 0.49629 0.0
C235 C 0.82951 0.01504 0.57136 0.0
O236 O 0.81248 1.01161 0.56499 0.0
C237 C 0.77786 0.06857 0.55666 0.0
O238 O 0.76423 0.13382 0.49613 0.0
C239 C 0.77097 0.07833 0.44264 0.0
C240 C 0.77394 0.15079 0.48791 0.0
O241 O 0.79074 0.14755 0.47946 0.0
C242 C 0.82007 0.09431 0.49718 0.0
C243 C 0.75644 0.0778 0.41768 0.0
C244 C 0.75773 0.06602 0.38808 0.0
C245 C 0.74304 0.06543 0.36584 0.0
C246 C 0.72713 0.07623 0.37467 0.0
C247 C 0.72578 0.08782 0.40382 0.0
C248 C 0.74052 0.08872 0.4248 0.0
O249 O 0.7917 0.06151 0.53967 0.0
O250 O 0.76743 0.0831 0.54255 0.0
O251 O 0.81698 0.07375 0.60537 0.0
O252 O 0.83038 0.09349 0.57128 0.0
C253 C 0.82521 0.09189 0.60124 0.0
O254 O 0.80601 0.10089 0.51382 0.0
O255 O 0.82934 0.07813 0.50972 0.0
O256 O 0.76609 0.07208 0.47183 0.0
O257 O 0.78098 0.09569 0.44378 0.0
H258 H 0.77004 0.05759 0.38238 0.0
H259 H 0.71543 0.0752 0.35908 0.0
H260 H 0.73957 0.0979 0.44712 0.0
O261 O 0.16214 0.99632 0.57412 0.0
Tb262 Tb 0.16994 0.96283 0.56597 0.0
Eu263 Eu 0.21316 0.92411 0.50864 0.0
C264 C 0.16271 1.004 0.60404 0.0
O265 O 0.16903 0.9917 0.6273 0.0
C266 C 0.21159 0.95511 0.56884 0.0
O267 O 0.22478 0.89007 0.5034 0.0
C268 C 0.21767 0.94824 0.45689 0.0
C269 C 0.2239 0.87606 0.52752 0.0
O270 O 0.21715 0.88251 0.55534 0.0
C271 C 0.17015 0.92913 0.51221 0.0
C272 C 0.23035 0.94949 0.42896 0.0
C273 C 0.22701 0.96217 0.40077 0.0
C274 C 0.24055 0.96478 0.3767 0.0
C275 C 0.2571 0.95433 0.38128 0.0
C276 C 0.26043 0.94192 0.409 0.0
C277 C 0.247 0.93933 0.43231 0.0
O278 O 0.19796 0.96136 0.55069 0.0
O279 O 0.22231 0.94038 0.55605 0.0
O280 O 0.14904 0.95066 0.59747 0.0
O281 O 0.1762 0.94259 0.6082 0.0
C282 C 0.15954 0.94039 0.61726 0.0
O283 O 0.18489 0.92491 0.52862 0.0
O284 O 0.15991 0.94473 0.52375 0.0
O285 O 0.22491 0.95208 0.48547 0.0
O286 O 0.20654 0.93189 0.45783 0.0
H287 H 0.21432 0.97049 0.3982 0.0
H288 H 0.26767 0.95626 0.36341 0.0
H289 H 0.24968 0.92968 0.45372 0.0
O290 O 0.41209 0.28635 0.81563 0.0
Tb291 Tb 0.42143 0.31862 0.80104 0.0
Eu292 Eu 0.46497 0.35562 0.73963 0.0
C293 C 0.40557 0.28366 0.84533 0.0
O294 O 0.40476 0.30051 0.86439 0.0
C295 C 0.46374 0.32604 0.80141 0.0
O296 O 0.47521 0.39034 0.7351 0.0
C297 C 0.47145 0.33201 0.68791 0.0
C298 C 0.47471 0.40395 0.75981 0.0
O299 O 0.46939 0.3968 0.78824 0.0
C300 C 0.42215 0.3484 0.74161 0.0
C301 C 0.48531 0.33161 0.66181 0.0
C302 C 0.48361 0.31927 0.63287 0.0
C303 C 0.49783 0.31857 0.6098 0.0
C304 C 0.51378 0.32974 0.61697 0.0
C305 C 0.51563 0.34164 0.64576 0.0
C306 C 0.50126 0.34278 0.66752 0.0
O307 O 0.44926 0.32072 0.78478 0.0
O308 O 0.47484 0.33951 0.78668 0.0
O309 O 0.40167 0.34182 0.81677 0.0
O310 O 0.42561 0.33827 0.8448 0.0
C311 C 0.41051 0.34868 0.84189 0.0
O312 O 0.43636 0.3544 0.7582 0.0
O313 O 0.41239 0.33276 0.7545 0.0
O314 O 0.47754 0.32781 0.7172 0.0
O315 O 0.46014 0.34823 0.68804 0.0
H316 H 0.47136 0.31043 0.62833 0.0
H317 H 0.52494 0.32903 0.60012 0.0
H318 H 0.50276 0.3517 0.68998 0.0
O319 O 0.58113 0.74739 0.80281 0.0
Tb320 Tb 0.5684 0.71569 0.79608 0.0
Eu321 Eu 0.52933 0.6801 0.75482 0.0
C322 C 0.57756 0.75825 0.82975 0.0
O323 O 0.56573 0.75014 0.84993 0.0
C324 C 0.52832 0.71409 0.81469 0.0
O325 O 0.51475 0.64767 0.75003 0.0
C326 C 0.52424 0.70536 0.70423 0.0
C327 C 0.51992 0.63133 0.76844 0.0
O328 O 0.53239 0.63494 0.79036 0.0
C329 C 0.57157 0.67916 0.74602 0.0
C330 C 0.51034 0.7087 0.67858 0.0
C331 C 0.51387 0.71989 0.64906 0.0
C332 C 0.50014 0.72244 0.62533 0.0
C333 C 0.48303 0.71419 0.63206 0.0
C334 C 0.47941 0.70326 0.66107 0.0
C335 C 0.49309 0.70052 0.68404 0.0
O336 O 0.5401 0.72487 0.79717 0.0
O337 O 0.52235 0.69523 0.80425 0.0
O338 O 0.58502 0.71067 0.83887 0.0
O339 O 0.56476 0.68795 0.82838 0.0
C340 C 0.57743 0.69315 0.8486 0.0
O341 O 0.55839 0.67174 0.764 0.0
O342 O 0.57808 0.69841 0.75275 0.0
O343 O 0.51934 0.71004 0.73406 0.0
O344 O 0.5334 0.68739 0.70308 0.0
H345 H 0.52717 0.72618 0.64441 0.0
H346 H 0.47235 0.71639 0.61443 0.0
H347 H 0.4904 0.69162 0.70615 0.0
O348 O 0.84233 0.53329 0.06818 0.0
Tb349 Tb 0.82576 0.56236 0.06168 0.0
Eu350 Eu 0.78445 0.59995 0.99595 0.0
C351 C 0.83533 0.51395 0.07167 0.0
O352 O 0.81824 0.51121 0.06512 0.0
C353 C 0.78425 0.56925 0.05897 0.0
O354 O 0.77429 0.63493 0.99312 0.0
C355 C 0.77568 0.57644 0.94557 0.0
C356 C 0.78176 0.65091 1.00955 0.0
O357 O 0.79537 0.64647 0.02875 0.0
C358 C 0.82914 0.59352 1.00655 0.0
C359 C 0.76234 0.57555 0.91869 0.0
C360 C 0.76471 0.56194 0.89135 0.0
C361 C 0.75057 0.55896 0.86867 0.0
C362 C 0.73436 0.56997 0.87364 0.0
C363 C 0.73186 0.58342 0.90058 0.0
C364 C 0.74598 0.58638 0.92262 0.0
O365 O 0.79805 0.56052 0.04361 0.0
O366 O 0.77485 0.58453 0.04389 0.0
O367 O 0.82564 0.56383 0.11487 0.0
O368 O 0.82832 0.59249 0.08815 0.0
C369 C 0.82751 0.58445 0.11719 0.0
O370 O 0.81211 0.59175 0.01422 0.0
O371 O 0.83974 0.58102 0.02394 0.0
O372 O 0.76896 0.57405 0.9749 0.0
O373 O 0.78822 0.59132 0.94452 0.0
H374 H 0.77713 0.55308 0.88849 0.0
H375 H 0.72355 0.56804 0.85624 0.0
H376 H 0.74394 0.5963 0.94394 0.0
O377 O 0.16078 0.49315 0.0624 0.0
Tb378 Tb 0.17632 0.46322 0.05717 0.0
Eu379 Eu 0.2144 0.42677 0.01529 0.0
C380 C 0.16622 0.50766 0.08371 0.0
O381 O 0.18147 0.5043 0.09885 0.0
C382 C 0.21649 0.46118 0.07447 0.0
O383 O 0.22805 0.39359 0.0135 0.0
C384 C 0.2203 0.45081 0.96362 0.0
C385 C 0.21915 0.3769 0.02532 0.0
O386 O 0.2036 0.38065 0.03927 0.0
C387 C 0.17213 0.42794 1.00522 0.0
C388 C 0.23465 0.45558 0.93939 0.0
C389 C 0.23127 0.46802 0.91098 0.0
C390 C 0.2455 0.47346 0.88955 0.0
C391 C 0.26279 0.46599 0.89682 0.0
C392 C 0.26623 0.45315 0.92415 0.0
C393 C 0.25212 0.44814 0.94539 0.0
O394 O 0.20468 0.47209 0.05713 0.0
O395 O 0.22208 0.4421 0.06422 0.0
O396 O 0.16486 0.45945 0.10576 0.0
O397 O 0.17695 0.43266 0.08341 0.0
C398 C 0.16872 0.43933 0.10926 0.0
O399 O 0.18504 0.41959 0.02294 0.0
O400 O 0.166 0.44719 0.01319 0.0
O401 O 0.22346 0.45687 0.99364 0.0
O402 O 0.21295 0.43173 0.9625 0.0
H403 H 0.21782 0.4738 0.90603 0.0
H404 H 0.27377 0.4702 0.88075 0.0
H405 H 0.25467 0.43827 0.96658 0.0
O406 O 0.41269 0.78731 0.30424 0.0
Tb407 Tb 0.42353 0.81964 0.29378 0.0
Eu408 Eu 0.46156 0.85639 0.25425 0.0
C409 C 0.41497 0.77951 0.33399 0.0
O410 O 0.42478 0.79074 0.35433 0.0
C411 C 0.46341 0.82222 0.31353 0.0
O412 O 0.47634 0.88871 0.25079 0.0
C413 C 0.46758 0.83194 0.20314 0.0
C414 C 0.4715 0.90487 0.26981 0.0
O415 O 0.45915 0.90122 0.29192 0.0
C416 C 0.4195 0.85605 0.24339 0.0
C417 C 0.48244 0.82827 0.17956 0.0
C418 C 0.47989 0.81735 0.14953 0.0
C419 C 0.49448 0.81441 0.12774 0.0
C420 C 0.5115 0.82189 0.13711 0.0
C421 C 0.51418 0.83271 0.16669 0.0
C422 C 0.49954 0.83595 0.18749 0.0
O423 O 0.45197 0.81117 0.29568 0.0
O424 O 0.46892 0.84135 0.30348 0.0
O425 O 0.40504 0.82645 0.33326 0.0
O426 O 0.42776 0.84663 0.32728 0.0
C427 C 0.41367 0.84272 0.34493 0.0
O428 O 0.43225 0.86429 0.26164 0.0
O429 O 0.41404 0.83621 0.24951 0.0
O430 O 0.4708 0.82615 0.23328 0.0
O431 O 0.45951 0.85062 0.20176 0.0
H432 H 0.46667 0.81158 0.14297 0.0
H433 H 0.52285 0.81902 0.12121 0.0
H434 H 0.50136 0.84477 0.20996 0.0
O435 O 0.5907 0.24085 0.31726 0.0
Tb436 Tb 0.57346 0.21275 0.30815 0.0
Eu437 Eu 0.53073 0.17942 0.23906 0.0
C438 C 0.58537 0.25514 0.33898 0.0
O439 O 0.56942 0.25269 0.35194 0.0
C440 C 0.53191 0.20938 0.3035 0.0
O441 O 0.52272 0.14384 0.23491 0.0
C442 C 0.52137 0.20267 0.18854 0.0
C443 C 0.52095 0.13119 0.26057 0.0
O444 O 0.52363 0.13949 0.28951 0.0
C445 C 0.57584 0.18263 0.25102 0.0
C446 C 0.50933 0.20211 0.15953 0.0
C447 C 0.51108 0.21697 0.13339 0.0
C448 C 0.49799 0.21776 0.10824 0.0
C449 C 0.48362 0.20326 0.10957 0.0
C450 C 0.48163 0.18875 0.13529 0.0
C451 C 0.49466 0.18803 0.15984 0.0
O452 O 0.54624 0.21717 0.2888 0.0
O453 O 0.52201 0.19473 0.288 0.0
O454 O 0.5704 0.20797 0.3608 0.0
O455 O 0.57668 0.18154 0.33091 0.0
C456 C 0.57375 0.18753 0.36059 0.0
O457 O 0.5588 0.18705 0.25567 0.0
O458 O 0.58672 0.19386 0.26976 0.0
O459 O 0.51321 0.20319 0.21691 0.0
O460 O 0.53548 0.18993 0.18875 0.0
H461 H 0.52204 0.22836 0.13337 0.0
H462 H 0.47338 0.20391 0.09088 0.0
H463 H 0.49307 0.17693 0.17991 0.0
H464 H 0.38668 0.85036 0.21182 0.0
H465 H 0.37027 0.87669 0.17854 0.0
H466 H 0.41343 0.92191 0.19109 0.0
H467 H 0.42959 0.89607 0.22433 0.0
H468 H 0.38357 0.94235 0.19933 0.0
H469 H 0.40522 0.89399 0.11763 0.0
H470 H 0.4095 0.85905 0.09071 0.0
H471 H 0.35245 0.85251 0.07949 0.0
H472 H 0.34782 0.88731 0.10676 0.0
H473 H 0.35667 0.02008 0.08171 0.0
H474 H 0.37345 0.99199 0.11036 0.0
H475 H 0.32888 0.94869 0.09838 0.0
H476 H 0.31227 0.97647 0.06929 0.0
H477 H 0.35897 0.92703 0.08983 0.0
H478 H 0.33766 0.97585 0.17175 0.0
H479 H 0.33385 1.01118 0.19771 0.0
H480 H 0.391 0.01708 0.20781 0.0
H481 H 0.39516 0.98188 0.18152 0.0
C482 C 0.39273 0.86585 0.20726 0.0
C483 C 0.4095 0.87096 0.22103 0.0
C484 C 0.38332 0.88097 0.18811 0.0
C485 C 0.39052 0.90152 0.18197 0.0
C486 C 0.40737 0.9064 0.1954 0.0
C487 C 0.41669 0.89143 0.21447 0.0
C488 C 0.3806 0.91822 0.16226 0.0
C489 C 0.37841 0.93896 0.17522 0.0
C490 C 0.37343 0.91404 0.13093 0.0
C491 C 0.37617 0.89314 0.11456 0.0
C492 C 0.39358 0.88502 0.10966 0.0
C493 C 0.39607 0.86526 0.0943 0.0
C494 C 0.38125 0.85354 0.08348 0.0
C495 C 0.36392 0.86159 0.08794 0.0
C496 C 0.36135 0.88134 0.10333 0.0
C497 C 0.35051 1.00451 0.08478 0.0
C498 C 0.33304 1.0007 0.073 0.0
C499 C 0.36009 0.98842 0.1015 0.0
C500 C 0.35243 0.96808 0.1072 0.0
C501 C 0.33521 0.9641 0.09455 0.0
C502 C 0.32566 0.98014 0.07785 0.0
C503 C 0.36205 0.95114 0.12685 0.0
C504 C 0.36414 0.93037 0.11394 0.0
C505 C 0.36921 0.95529 0.1582 0.0
C506 C 0.36673 0.97632 0.17439 0.0
C507 C 0.34942 0.98474 0.17934 0.0
C508 C 0.34719 1.00473 0.19413 0.0
C509 C 0.36217 0.0164 0.20432 0.0
C510 C 0.37941 1.00804 0.19986 0.0
C511 C 0.38171 0.98806 0.18505 0.0
H512 H 0.36043 0.03189 0.21574 0.0
H513 H 0.38321 0.83825 0.07158 0.0
H514 H 0.55711 0.15442 0.21131 0.0
H515 H 0.56944 0.12486 0.17868 0.0
H516 H 0.62288 0.14188 0.20973 0.0
H517 H 0.61073 0.17152 0.24121 0.0
H518 H 0.62549 0.13169 0.15095 0.0
H519 H 0.5968 0.09903 0.24141 0.0
H520 H 0.57304 0.08804 0.27954 0.0
H521 H 0.54466 0.05714 0.20173 0.0
H522 H 0.56788 0.06862 0.16296 0.0
H523 H 0.67021 0.02978 0.13893 0.0
H524 H 0.65447 0.06166 0.15872 0.0
H525 H 0.6121 0.0508 0.08938 0.0
H526 H 0.62818 0.01901 0.06865 0.0
H527 H 0.60205 0.0577 0.16157 0.0
H528 H 0.6347 0.09003 0.07265 0.0
H529 H 0.66213 0.09728 0.04101 0.0
H530 H 0.68681 0.12551 0.12503 0.0
H531 H 0.65961 0.11816 0.15729 0.0
C532 C 0.57149 0.152 0.21083 0.0
C533 C 0.58288 0.16549 0.22891 0.0
C534 C 0.57857 0.13491 0.19234 0.0
C535 C 0.59721 0.13074 0.19178 0.0
C536 C 0.60851 0.14456 0.20937 0.0
C537 C 0.60149 0.1616 0.22756 0.0
C538 C 0.60515 0.11206 0.1734 0.0
C539 C 0.62028 0.11556 0.15352 0.0
C540 C 0.59851 0.09077 0.17615 0.0
C541 C 0.58396 0.08501 0.19913 0.0
C542 C 0.58531 0.09028 0.23229 0.0
C543 C 0.57194 0.08392 0.25407 0.0
C544 C 0.55731 0.07196 0.24309 0.0
C545 C 0.55592 0.06652 0.21025 0.0
C546 C 0.56915 0.07303 0.18832 0.0
C547 C 0.65766 0.03431 0.12752 0.0
C548 C 0.65051 0.02186 0.10206 0.0
C549 C 0.64865 0.05256 0.13893 0.0
C550 C 0.63204 0.05867 0.12569 0.0
C551 C 0.62488 0.04642 0.10003 0.0
C552 C 0.63415 0.02836 0.08801 0.0
C553 C 0.62216 0.07754 0.1395 0.0
C554 C 0.60686 0.07399 0.15865 0.0
C555 C 0.62891 0.09865 0.13693 0.0
C556 C 0.64516 0.1034 0.11743 0.0
C557 C 0.64602 0.09765 0.08443 0.0
C558 C 0.66152 0.10181 0.06638 0.0
C559 C 0.67622 0.11181 0.08101 0.0
C560 C 0.67542 0.11775 0.11372 0.0
C561 C 0.65996 0.11363 0.13189 0.0
H562 H 0.68821 0.115 0.067 0.0
H563 H 0.54711 0.06682 0.26007 0.0
H564 H 0.9091 0.25909 0.41259 0.0
H565 H 0.89433 0.22696 0.43209 0.0
H566 H 0.88547 0.20636 0.33335 0.0
H567 H 0.89998 0.2393 0.31339 0.0
H568 H 0.85634 0.19837 0.36723 0.0
H569 H 0.91784 0.1836 0.38482 0.0
H570 H 0.94891 0.1893 0.40346 0.0
H571 H 0.93104 0.19035 0.50257 0.0
H572 H 0.89976 0.18539 0.48455 0.0
H573 H 0.82999 0.09364 0.43245 0.0
H574 H 0.84661 0.12163 0.40247 0.0
H575 H 0.84973 0.15955 0.48984 0.0
H576 H 0.83286 0.13206 0.51934 0.0
H577 H 0.88324 0.15508 0.45588 0.0
H578 H 0.82104 0.17372 0.43522 0.0
H579 H 0.79043 0.1666 0.415 0.0
H580 H 0.8112 0.15524 0.31929 0.0
H581 H 0.84198 0.16197 0.33899 0.0
C582 C 0.90414 0.24777 0.39477 0.0
C583 C 0.90587 0.25194 0.36124 0.0
C584 C 0.89571 0.22918 0.40611 0.0
C585 C 0.88892 0.2138 0.38439 0.0
C586 C 0.89061 0.21782 0.35078 0.0
C587 C 0.89902 0.23664 0.33933 0.0
C588 C 0.8798 0.19395 0.3972 0.0
C589 C 0.86244 0.18871 0.38617 0.0
C590 C 0.88752 0.18118 0.42222 0.0
C591 C 0.90636 0.18431 0.43324 0.0
C592 C 0.92048 0.18529 0.41058 0.0
C593 C 0.93814 0.1884 0.42105 0.0
C594 C 0.94193 0.19025 0.45417 0.0
C595 C 0.92807 0.18893 0.47691 0.0
C596 C 0.91035 0.18604 0.46657 0.0
C597 C 0.83422 0.10799 0.4451 0.0
C598 C 0.8301 0.11071 0.47818 0.0
C599 C 0.84368 0.124 0.42799 0.0
C600 C 0.84948 0.14279 0.44385 0.0
C601 C 0.84549 0.14527 0.477 0.0
C602 C 0.83578 0.12956 0.49382 0.0
C603 C 0.85978 0.15996 0.4264 0.0
C604 C 0.87733 0.16466 0.43665 0.0
C605 C 0.85236 0.17201 0.40047 0.0
C606 C 0.83384 0.16808 0.38866 0.0
C607 C 0.81911 0.1695 0.40993 0.0
C608 C 0.80173 0.16558 0.39856 0.0
C609 C 0.79889 0.1604 0.36594 0.0
C610 C 0.81342 0.1592 0.34457 0.0
C611 C 0.83084 0.16308 0.35581 0.0
H612 H 0.78542 0.15738 0.3572 0.0
H613 H 0.95562 0.19269 0.46224 0.0
H614 H 0.18752 0.89437 0.48574 0.0
H615 H 0.17464 0.86567 0.45259 0.0
H616 H 0.12382 0.89873 0.45135 0.0
H617 H 0.13665 0.92758 0.48435 0.0
H618 H 0.12042 0.85628 0.46943 0.0
H619 H 0.14975 0.89559 0.3832 0.0
H620 H 0.17586 0.91265 0.35705 0.0
H621 H 0.20352 0.85224 0.35565 0.0
H622 H 0.17766 0.83488 0.38221 0.0
H623 H 0.07134 0.79234 0.36178 0.0
H624 H 0.08724 0.82169 0.38803 0.0
H625 H 0.13768 0.78974 0.37052 0.0
H626 H 0.12166 0.76035 0.3431 0.0
H627 H 0.14288 0.83048 0.36293 0.0
H628 H 0.11792 0.79139 0.45183 0.0
H629 H 0.09531 0.77275 0.4852 0.0
H630 H 0.06256 0.82938 0.48633 0.0
H631 H 0.08524 0.84857 0.45371 0.0
C632 C 0.17371 0.89582 0.47784 0.0
C633 C 0.1632 0.91347 0.48769 0.0
C634 C 0.16633 0.8793 0.45886 0.0
C635 C 0.1482 0.87991 0.4493 0.0
C636 C 0.13782 0.89779 0.45836 0.0
C637 C 0.14523 0.91441 0.47709 0.0
C638 C 0.13978 0.86147 0.43149 0.0
C639 C 0.12516 0.85091 0.44587 0.0
C640 C 0.14643 0.85363 0.40147 0.0
C641 C 0.16182 0.86397 0.38493 0.0
C642 C 0.16144 0.88597 0.37748 0.0
C643 C 0.17619 0.89569 0.36257 0.0
C644 C 0.19135 0.88355 0.35475 0.0
C645 C 0.19177 0.86164 0.36173 0.0
C646 C 0.17706 0.85184 0.37668 0.0
C647 C 0.08585 0.79158 0.36315 0.0
C648 C 0.09518 0.77386 0.3503 0.0
C649 C 0.09497 0.80836 0.37863 0.0
C650 C 0.11373 0.80788 0.38232 0.0
C651 C 0.12321 0.79057 0.36837 0.0
C652 C 0.11404 0.77376 0.35252 0.0
C653 C 0.12321 0.82551 0.40057 0.0
C654 C 0.13807 0.83587 0.38641 0.0
C655 C 0.1171 0.83289 0.43129 0.0
C656 C 0.10315 0.8213 0.44998 0.0
C657 C 0.10583 0.7998 0.45898 0.0
C658 C 0.09305 0.78918 0.47788 0.0
C659 C 0.07739 0.79977 0.4875 0.0
C660 C 0.07463 0.82114 0.47868 0.0
C661 C 0.0875 0.83196 0.4602 0.0
H662 H 0.06747 0.79145 0.50197 0.0
H663 H 0.20277 0.89111 0.34325 0.0
H664 H 0.35476 0.49928 0.54956 0.0
H665 H 0.37157 0.46786 0.56978 0.0
H666 H 0.34905 0.47742 0.66511 0.0
H667 H 0.33237 0.50825 0.64538 0.0
H668 H 0.3846 0.47013 0.66968 0.0
H669 H 0.33386 0.4377 0.61492 0.0
H670 H 0.3144 0.43037 0.5677 0.0
H671 H 0.35939 0.40446 0.51559 0.0
H672 H 0.37915 0.4119 0.56239 0.0
H673 H 0.38789 0.34957 0.71604 0.0
H674 H 0.37433 0.3783 0.68357 0.0
H675 H 0.42572 0.4097 0.67718 0.0
H676 H 0.43911 0.38161 0.71061 0.0
H677 H 0.37718 0.39673 0.62542 0.0
H678 H 0.42118 0.4629 0.67926 0.0
H679 H 0.44023 0.46924 0.72742 0.0
H680 H 0.40688 0.42735 0.78397 0.0
H681 H 0.38755 0.42095 0.73624 0.0
C682 C 0.35335 0.49461 0.57477 0.0
C683 C 0.34211 0.50646 0.59568 0.0
C684 C 0.36297 0.47659 0.58636 0.0
C685 C 0.36168 0.47012 0.61916 0.0
C686 C 0.35047 0.48198 0.63984 0.0
C687 C 0.34081 0.4997 0.62832 0.0
C688 C 0.37184 0.45116 0.63254 0.0
C689 C 0.38306 0.45414 0.65972 0.0
C690 C 0.36989 0.43011 0.62002 0.0
C691 C 0.35801 0.42557 0.59199 0.0
C692 C 0.33962 0.4306 0.59329 0.0
C693 C 0.32853 0.42639 0.56663 0.0
C694 C 0.33566 0.41701 0.53862 0.0
C695 C 0.35389 0.41176 0.53727 0.0
C696 C 0.36503 0.41595 0.56386 0.0
C697 C 0.3964 0.36235 0.7072 0.0
C698 C 0.41465 0.36315 0.71616 0.0
C699 C 0.38859 0.37888 0.68859 0.0
C700 C 0.39881 0.39663 0.67834 0.0
C701 C 0.41732 0.3966 0.6853 0.0
C702 C 0.42506 0.38028 0.70423 0.0
C703 C 0.38994 0.41572 0.66252 0.0
C704 C 0.37893 0.41277 0.63504 0.0
C705 C 0.392 0.43685 0.67484 0.0
C706 C 0.40302 0.44133 0.70411 0.0
C707 C 0.41785 0.45518 0.70204 0.0
C708 C 0.42872 0.45874 0.72923 0.0
C709 C 0.42481 0.44864 0.75869 0.0
C710 C 0.40993 0.43511 0.76111 0.0
C711 C 0.39901 0.43151 0.734 0.0
H712 H 0.4333 0.45133 0.77966 0.0
H713 H 0.32706 0.41377 0.51801 0.0
H714 H 0.60631 0.68083 0.7214 0.0
H715 H 0.62196 0.65312 0.68973 0.0
H716 H 0.57396 0.61453 0.68958 0.0
H717 H 0.55856 0.64173 0.72163 0.0
H718 H 0.60017 0.58932 0.70118 0.0
H719 H 0.59033 0.64309 0.62026 0.0
H720 H 0.59159 0.67914 0.59583 0.0
H721 H 0.64919 0.67754 0.59917 0.0
H722 H 0.64826 0.64157 0.62403 0.0
H723 H 0.6289 0.51262 0.58323 0.0
H724 H 0.61265 0.54192 0.60994 0.0
H725 H 0.66172 0.57822 0.61621 0.0
H726 H 0.6779 0.54918 0.58931 0.0
H727 H 0.63493 0.60444 0.60111 0.0
H728 H 0.64374 0.54946 0.68232 0.0
H729 H 0.64133 0.51255 0.70335 0.0
H730 H 0.58388 0.51595 0.69657 0.0
H731 H 0.58596 0.55279 0.67507 0.0
C732 C 0.59905 0.66655 0.71429 0.0
C733 C 0.58113 0.66363 0.72418 0.0
C734 C 0.60802 0.65063 0.69608 0.0
C735 C 0.59922 0.63152 0.68684 0.0
C736 C 0.58124 0.62888 0.69634 0.0
C737 C 0.57237 0.64461 0.71467 0.0
C738 C 0.60863 0.61404 0.66796 0.0
C739 C 0.60757 0.59271 0.67908 0.0
C740 C 0.6186 0.61812 0.63923 0.0
C741 C 0.61922 0.63974 0.62434 0.0
C742 C 0.60326 0.6505 0.61603 0.0
C743 C 0.60392 0.67091 0.60206 0.0
C744 C 0.62046 0.68065 0.59604 0.0
C745 C 0.63638 0.66999 0.6039 0.0
C746 C 0.6358 0.64958 0.61791 0.0
C747 C 0.63622 0.52684 0.59016 0.0
C748 C 0.65479 0.52828 0.5842 0.0
C749 C 0.62691 0.54365 0.60561 0.0
C750 C 0.63593 0.56234 0.6158 0.0
C751 C 0.65434 0.56409 0.60882 0.0
C752 C 0.66362 0.54734 0.59334 0.0
C753 C 0.62643 0.57984 0.63435 0.0
C754 C 0.62752 0.60113 0.62321 0.0
C755 C 0.61632 0.57569 0.66287 0.0
C756 C 0.61502 0.55382 0.67683 0.0
C757 C 0.6306 0.54231 0.68522 0.0
C758 C 0.62929 0.5214 0.69721 0.0
C759 C 0.61246 0.51189 0.70121 0.0
C760 C 0.5969 0.52333 0.69342 0.0
C761 C 0.59814 0.54423 0.68137 0.0
H762 H 0.61148 0.49567 0.71036 0.0
H763 H 0.62094 0.69645 0.58521 0.0
H764 H 0.86349 0.59614 0.98373 0.0
H765 H 0.87686 0.62462 0.95085 0.0
H766 H 0.82514 0.65515 0.94246 0.0
H767 H 0.81162 0.62642 0.97502 0.0
H768 H 0.87183 0.64268 0.88897 0.0
H769 H 0.83103 0.70643 0.95535 0.0
H770 H 0.81667 0.7128 1.00863 0.0
H771 H 0.8546 0.67046 0.05405 0.0
H772 H 0.86949 0.66458 1.00121 0.0
H773 H 0.89145 0.74497 0.81339 0.0
H774 H 0.8775 0.71213 0.83484 0.0
H775 H 0.89984 0.72555 0.92941 0.0
H776 H 0.91317 0.75834 0.90846 0.0
H777 H 0.8674 0.71501 0.93832 0.0
H778 H 0.91541 0.68389 0.87694 0.0
H779 H 0.93386 0.67684 0.82836 0.0
H780 H 0.88794 0.65082 0.77918 0.0
H781 H 0.86916 0.65796 0.82737 0.0
C782 C 0.85485 0.60866 0.97434 0.0
C783 C 0.83644 0.609 0.98223 0.0
C784 C 0.86255 0.62496 0.95542 0.0
C785 C 0.85211 0.64221 0.94427 0.0
C786 C 0.83355 0.64211 0.95088 0.0
C787 C 0.82579 0.62563 0.9695 0.0
C788 C 0.8609 0.66115 0.92844 0.0
C789 C 0.87074 0.65855 0.89956 0.0
C790 C 0.86007 0.68176 0.94263 0.0
C791 C 0.85133 0.68524 0.97447 0.0
C792 C 0.83637 0.69879 0.97686 0.0
C793 C 0.82814 0.70223 1.00691 0.0
C794 C 0.83468 0.69201 0.03472 0.0
C795 C 0.84953 0.67838 0.03251 0.0
C796 C 0.8579 0.67505 1.00253 0.0
C797 C 0.89356 0.74072 0.83861 0.0
C798 C 0.90338 0.75441 0.85917 0.0
C799 C 0.88556 0.7219 0.85095 0.0
C800 C 0.88747 0.71616 0.88398 0.0
C801 C 0.89784 0.72953 0.90404 0.0
C802 C 0.90558 0.74834 0.8919 0.0
C803 C 0.87831 0.69681 0.89832 0.0
C804 C 0.86839 0.69929 0.92722 0.0
C805 C 0.87961 0.67598 0.88458 0.0
C806 C 0.89085 0.67168 0.85561 0.0
C807 C 0.90922 0.67682 0.85567 0.0
C808 C 0.91974 0.67278 0.82823 0.0
C809 C 0.91207 0.66345 0.80066 0.0
C810 C 0.89386 0.65808 0.80053 0.0
C811 C 0.88328 0.66211 0.8279 0.0
H812 H 0.92024 0.66033 0.77944 0.0
H813 H 0.82825 0.69465 0.05795 0.0
H814 H 0.1117 0.26117 0.85506 0.0
H815 H 0.12656 0.29063 0.8836 0.0
H816 H 0.08294 0.33291 0.85818 0.0
H817 H 0.06822 0.30364 0.82898 0.0
H818 H 0.11312 0.35433 0.85317 0.0
H819 H 0.08743 0.31045 0.93595 0.0
H820 H 0.08119 0.27706 0.96592 0.0
H821 H 0.13732 0.26984 0.98711 0.0
H822 H 0.14393 0.30305 0.95687 0.0
H823 H 0.13913 0.43384 0.97435 0.0
H824 H 0.12241 0.40741 0.9417 0.0
H825 H 0.16552 0.36198 0.95391 0.0
H826 H 0.18218 0.38803 0.98572 0.0
H827 H 0.1335 0.34341 0.9667 0.0
H828 H 0.15877 0.38743 0.88196 0.0
H829 H 0.16428 0.42124 0.85262 0.0
H830 H 0.10767 0.42888 0.83663 0.0
H831 H 0.1018 0.39523 0.86628 0.0
C832 C 0.10529 0.27675 0.85533 0.0
C833 C 0.08868 0.27987 0.83967 0.0
C834 C 0.11378 0.29365 0.87192 0.0
C835 C 0.10581 0.31411 0.87372 0.0
C836 C 0.08945 0.31739 0.85738 0.0
C837 C 0.08099 0.30053 0.84066 0.0
C838 C 0.11439 0.33192 0.89295 0.0
C839 C 0.11732 0.35197 0.87816 0.0
C840 C 0.12012 0.32908 0.92558 0.0
C841 C 0.1162 0.30913 0.94388 0.0
C842 C 0.09846 0.30166 0.9468 0.0
C843 C 0.09485 0.28278 0.96386 0.0
C844 C 0.10885 0.27131 0.97834 0.0
C845 C 0.12649 0.27873 0.97585 0.0
C846 C 0.13018 0.29759 0.95877 0.0
C847 C 0.1451 0.41831 0.9698 0.0
C848 C 0.16199 0.41313 0.98311 0.0
C849 C 0.13551 0.40315 0.95111 0.0
C850 C 0.14261 0.38251 0.94535 0.0
C851 C 0.15959 0.3776 0.95812 0.0
C852 C 0.16915 0.39266 0.97643 0.0
C853 C 0.13246 0.36566 0.92677 0.0
C854 C 0.12921 0.34578 0.94176 0.0
C855 C 0.12633 0.36875 0.89449 0.0
C856 C 0.12983 0.38895 0.87666 0.0
C857 C 0.14748 0.39642 0.87244 0.0
C858 C 0.15067 0.41553 0.8557 0.0
C859 C 0.13633 0.42724 0.84285 0.0
C860 C 0.11876 0.41982 0.84665 0.0
C861 C 0.1155 0.40072 0.8634 0.0
H862 H 0.13883 0.44203 0.82989 0.0
H863 H 0.10604 0.25669 0.99154 0.0
H864 H 0.86534 0.01566 0.58957 0.0
H865 H 0.88234 0.98765 0.61821 0.0
H866 H 0.83539 0.94735 0.61893 0.0
H867 H 0.81845 0.97507 0.59031 0.0
H868 H 0.85188 0.94766 0.67852 0.0
H869 H 0.8709 0.93852 0.56605 0.0
H870 H 0.88429 0.95094 0.51458 0.0
H871 H 0.93324 0.96649 0.56442 0.0
H872 H 0.92006 0.95437 0.61623 0.0
H873 H 0.88735 0.84776 0.72652 0.0
H874 H 0.87313 0.87656 0.69542 0.0
H875 H 0.92413 0.90868 0.68717 0.0
H876 H 0.9385 0.87949 0.71728 0.0
H877 H 0.90707 0.91464 0.63331 0.0
H878 H 0.89146 0.9248 0.74321 0.0
H879 H 0.88041 0.91537 0.79784 0.0
H880 H 0.82806 0.90278 0.75863 0.0
H881 H 0.83886 0.91186 0.70363 0.0
C882 C 0.85867 1.00076 0.59551 0.0
C883 C 0.84048 0.9977 0.58725 0.0
C884 C 0.86843 0.98469 0.61197 0.0
C885 C 0.86027 0.96514 0.62072 0.0
C886 C 0.8421 0.96217 0.61259 0.0
C887 C 0.83241 0.97809 0.59599 0.0
C888 C 0.87041 0.94778 0.63843 0.0
C889 C 0.86381 0.94027 0.66837 0.0
C890 C 0.8865 0.93863 0.62622 0.0
C891 C 0.89443 0.94574 0.59504 0.0
C892 C 0.88447 0.94472 0.56605 0.0
C893 C 0.89203 0.95168 0.53681 0.0
C894 C 0.90958 0.95955 0.53624 0.0
C895 C 0.91964 0.96042 0.56489 0.0
C896 C 0.91214 0.95349 0.59419 0.0
C897 C 0.89565 0.86073 0.71762 0.0
C898 C 0.91412 0.8613 0.72492 0.0
C899 C 0.88742 0.87743 0.70009 0.0
C900 C 0.89736 0.89532 0.68948 0.0
C901 C 0.91599 0.89532 0.6952 0.0
C902 C 0.92423 0.87857 0.71263 0.0
C903 C 0.88828 0.91408 0.67307 0.0
C904 C 0.89512 0.92196 0.64352 0.0
C905 C 0.87271 0.92403 0.68614 0.0
C906 C 0.86605 0.91871 0.71918 0.0
C907 C 0.87763 0.91984 0.74617 0.0
C908 C 0.87141 0.91458 0.7772 0.0
C909 C 0.8536 0.90829 0.78163 0.0
C910 C 0.8419 0.90751 0.75509 0.0
C911 C 0.84805 0.91274 0.72398 0.0
H912 H 0.84885 0.9041 0.80564 0.0
H913 H 0.91541 0.96494 0.51358 0.0
H914 H 0.133 0.02407 0.57875 0.0
H915 H 0.11796 0.05608 0.59991 0.0
H916 H 0.16053 0.06419 0.67016 0.0
H917 H 0.17471 0.03138 0.65056 0.0
H918 H 0.13293 0.07071 0.70013 0.0
H919 H 0.15158 0.09858 0.59723 0.0
H920 H 0.15467 0.09987 0.5376 0.0
H921 H 0.09734 0.10251 0.52738 0.0
H922 H 0.09391 0.10098 0.58696 0.0
H923 H 0.10805 0.17714 0.74793 0.0
H924 H 0.12398 0.1483 0.7196 0.0
H925 H 0.07406 0.12645 0.67844 0.0
H926 H 0.058 0.15498 0.70734 0.0
H927 H 0.10491 0.12779 0.63337 0.0
H928 H 0.08815 0.10133 0.73957 0.0
H929 H 0.08714 0.09979 0.79941 0.0
H930 H 0.14467 0.09627 0.8031 0.0
H931 H 0.14607 0.09827 0.74332 0.0
C932 C 0.13927 0.03295 0.5983 0.0
C933 C 0.15509 0.02527 0.61282 0.0
C934 C 0.13069 0.05139 0.61041 0.0
C935 C 0.13809 0.06305 0.63658 0.0
C936 C 0.15432 0.05567 0.65016 0.0
C937 C 0.16256 0.03693 0.63874 0.0
C938 C 0.12854 0.08204 0.65125 0.0
C939 C 0.12718 0.08336 0.68532 0.0
C940 C 0.12047 0.09852 0.63236 0.0
C941 C 0.12249 0.09946 0.59654 0.0
C942 C 0.13963 0.09929 0.58226 0.0
C943 C 0.14144 0.10009 0.54847 0.0
C944 C 0.12621 0.10122 0.52871 0.0
C945 C 0.10913 0.10161 0.54271 0.0
C946 C 0.10724 0.1008 0.57649 0.0
C947 C 0.10047 0.16651 0.73232 0.0
C948 C 0.08167 0.16851 0.72984 0.0
C949 C 0.10961 0.14988 0.71634 0.0
C950 C 0.10023 0.13505 0.69706 0.0
C951 C 0.08161 0.13765 0.69319 0.0
C952 C 0.07242 0.15403 0.70968 0.0
C953 C 0.10974 0.11644 0.68191 0.0
C954 C 0.11093 0.11519 0.6479 0.0
C955 C 0.11808 0.1003 0.70085 0.0
C956 C 0.11722 0.10024 0.73691 0.0
C957 C 0.10061 0.10063 0.75312 0.0
C958 C 0.09996 0.09958 0.78705 0.0
C959 C 0.11583 0.09794 0.80501 0.0
C960 C 0.1324 0.09757 0.78915 0.0
C961 C 0.13312 0.09869 0.75525 0.0
H962 H 0.11531 0.09675 0.83119 0.0
H963 H 0.12764 0.10183 0.50256 0.0
H964 H 0.4068 0.24323 0.81658 0.0
H965 H 0.3964 0.20905 0.83975 0.0
H966 H 0.37934 0.24211 0.92643 0.0
H967 H 0.38997 0.27577 0.904 0.0
H968 H 0.39425 0.20717 0.94459 0.0
H969 H 0.34953 0.22385 0.86334 0.0
H970 H 0.3385 0.23179 0.8081 0.0
H971 H 0.35937 0.17167 0.77408 0.0
H972 H 0.3707 0.16349 0.82909 0.0
H973 H 0.3261 0.14399 0.01345 0.0
H974 H 0.34471 0.17027 0.98589 0.0
H975 H 0.3617 0.12215 0.91728 0.0
H976 H 0.34269 0.09539 0.94514 0.0
H977 H 0.35127 0.16001 0.88677 0.0
H978 H 0.39092 0.14155 0.97362 0.0
H979 H 0.39927 0.13445 0.03063 0.0
H980 H 0.38587 0.19921 0.05617 0.0
H981 H 0.37714 0.20664 0.99944 0.0
C982 C 0.40079 0.24319 0.84052 0.0
C983 C 0.39921 0.26244 0.8582 0.0
C984 C 0.39475 0.22359 0.8538 0.0
C985 C 0.38683 0.22276 0.88497 0.0
C986 C 0.3854 0.24201 0.90251 0.0
C987 C 0.39147 0.26142 0.88943 0.0
C988 C 0.3799 0.2022 0.89974 0.0
C989 C 0.38479 0.19697 0.93188 0.0
C990 C 0.3679 0.18827 0.88323 0.0
C991 C 0.36116 0.19319 0.85019 0.0
C992 C 0.3519 0.21241 0.844 0.0
C993 C 0.34556 0.21694 0.81276 0.0
C994 C 0.34829 0.20228 0.78757 0.0
C995 C 0.35731 0.18303 0.7936 0.0
C996 C 0.36368 0.17844 0.8248 0.0
C997 C 0.33396 0.13878 0.99275 0.0
C998 C 0.33285 0.11746 0.98159 0.0
C999 C 0.34471 0.15392 0.97701 0.0
C1000 C 0.35481 0.14836 0.94947 0.0
C1001 C 0.3541 0.12693 0.93851 0.0
C1002 C 0.34336 0.11156 0.95461 0.0
C1003 C 0.36525 0.1654 0.9318 0.0
C1004 C 0.36101 0.16999 0.89922 0.0
C1005 C 0.37766 0.17891 0.94809 0.0
C1006 C 0.38328 0.17462 0.98219 0.0
C1007 C 0.38965 0.15426 0.99139 0.0
C1008 C 0.39446 0.15017 0.02368 0.0
C1009 C 0.39306 0.16636 0.047 0.0
C1010 C 0.38693 0.18669 0.03807 0.0
C1011 C 0.38208 0.19086 1.00583 0.0
H1012 H 0.39675 0.16317 0.07197 0.0
H1013 H 0.34338 0.20581 0.7634 0.0
H1014 H 0.56732 0.78741 0.87531 0.0
H1015 H 0.58393 0.81796 0.89654 0.0
H1016 H 0.62696 0.80515 0.82931 0.0
H1017 H 0.61023 0.77414 0.80779 0.0
H1018 H 0.63977 0.81296 0.89106 0.0
H1019 H 0.59933 0.84848 0.81841 0.0
H1020 H 0.56988 0.85708 0.79428 0.0
H1021 H 0.55106 0.87973 0.88672 0.0
H1022 H 0.58033 0.87101 0.91151 0.0
H1023 H 0.68649 0.90471 0.94731 0.0
H1024 H 0.67158 0.87898 0.91176 0.0
H1025 H 0.62076 0.89445 0.95637 0.0
H1026 H 0.63548 0.92197 0.98911 0.0
H1027 H 0.61314 0.88557 0.90018 0.0
H1028 H 0.6522 0.84654 0.97449 0.0
H1029 H 0.68171 0.8384 0.999 0.0
H1030 H 0.70258 0.82161 0.90518 0.0
H1031 H 0.67331 0.82994 0.88004 0.0
C1032 C 0.58024 0.79113 0.86464 0.0
C1033 C 0.58734 0.77823 0.83961 0.0
C1034 C 0.58974 0.80877 0.87684 0.0
C1035 C 0.60673 0.81418 0.86452 0.0
C1036 C 0.61387 0.80146 0.83928 0.0
C1037 C 0.60423 0.78379 0.82678 0.0
C1038 C 0.61704 0.83266 0.87892 0.0
C1039 C 0.63405 0.82892 0.8926 0.0
C1040 C 0.60956 0.8535 0.88177 0.0
C1041 C 0.59199 0.85895 0.86686 0.0
C1042 C 0.58888 0.85517 0.83364 0.0
C1043 C 0.57222 0.86009 0.81984 0.0
C1044 C 0.5586 0.86891 0.83897 0.0
C1045 C 0.56162 0.87289 0.87193 0.0
C1046 C 0.57825 0.86799 0.88586 0.0
C1047 C 0.67208 0.90307 0.94888 0.0
C1048 C 0.66224 0.91574 0.97081 0.0
C1049 C 0.66351 0.88788 0.92894 0.0
C1050 C 0.64494 0.88382 0.93182 0.0
C1051 C 0.63505 0.8969 0.95332 0.0
C1052 C 0.64352 0.91277 0.97219 0.0
C1053 C 0.63582 0.86588 0.91323 0.0
C1054 C 0.61897 0.86968 0.89872 0.0
C1055 C 0.64336 0.845 0.90998 0.0
C1056 C 0.66065 0.83908 0.92537 0.0
C1057 C 0.66311 0.84116 0.95911 0.0
C1058 C 0.6798 0.83663 0.97307 0.0
C1059 C 0.69401 0.82975 0.95355 0.0
C1060 C 0.69156 0.82714 0.92015 0.0
C1061 C 0.67494 0.83172 0.90606 0.0
H1062 H 0.70685 0.82605 0.96432 0.0
H1063 H 0.54571 0.87269 0.82824 0.0
H1064 H 0.87093 0.51322 0.09094 0.0
H1065 H 0.88701 0.48441 0.1192 0.0
H1066 H 0.8396 0.44498 0.11515 0.0
H1067 H 0.8235 0.47365 0.08714 0.0
H1068 H 0.85422 0.44372 0.1752 0.0
H1069 H 0.87629 0.43573 0.06542 0.0
H1070 H 0.89071 0.44811 0.01487 0.0
H1071 H 0.93867 0.46351 0.06782 0.0
H1072 H 0.92445 0.45147 0.11877 0.0
H1073 H 0.89072 0.34416 0.22457 0.0
H1074 H 0.87689 0.37233 0.19151 0.0
H1075 H 0.92618 0.40841 0.19437 0.0
H1076 H 0.94013 0.38019 0.22705 0.0
H1077 H 0.91139 0.4123 0.13578 0.0
H1078 H 0.89089 0.42125 0.24452 0.0
H1079 H 0.87769 0.40984 0.29668 0.0
H1080 H 0.82811 0.39493 0.24855 0.0
H1081 H 0.84108 0.40602 0.196 0.0
C1082 C 0.86397 0.49837 0.09573 0.0
C1083 C 0.84588 0.49589 0.08647 0.0
C1084 C 0.87321 0.48181 0.11195 0.0
C1085 C 0.86462 0.4623 0.11935 0.0
C1086 C 0.84661 0.45978 0.10991 0.0
C1087 C 0.83742 0.47625 0.09362 0.0
C1088 C 0.87415 0.44463 0.13734 0.0
C1089 C 0.86659 0.43668 0.16627 0.0
C1090 C 0.89066 0.43578 0.12657 0.0
C1091 C 0.89924 0.44289 0.09594 0.0
C1092 C 0.88987 0.4419 0.06631 0.0
C1093 C 0.89801 0.44883 0.03758 0.0
C1094 C 0.91558 0.45664 0.03814 0.0
C1095 C 0.92506 0.45748 0.06743 0.0
C1096 C 0.91697 0.45059 0.09623 0.0
C1097 C 0.89875 0.35788 0.21771 0.0
C1098 C 0.91658 0.35982 0.22871 0.0
C1099 C 0.89074 0.37416 0.19899 0.0
C1100 C 0.9003 0.39286 0.19082 0.0
C1101 C 0.91839 0.3943 0.20036 0.0
C1102 C 0.92639 0.37806 0.21912 0.0
C1103 C 0.8913 0.41115 0.17333 0.0
C1104 C 0.89899 0.41929 0.14466 0.0
C1105 C 0.87505 0.42043 0.1846 0.0
C1106 C 0.86705 0.41417 0.21624 0.0
C1107 C 0.87721 0.41539 0.24501 0.0
C1108 C 0.86978 0.40899 0.27464 0.0
C1109 C 0.85215 0.40144 0.27584 0.0
C1110 C 0.84182 0.40062 0.24751 0.0
C1111 C 0.84919 0.40699 0.21781 0.0
H1112 H 0.84647 0.39632 0.29874 0.0
H1113 H 0.92186 0.462 0.01588 0.0
H1114 H 0.11295 0.6746 0.23276 0.0
H1115 H 0.12484 0.64573 0.19915 0.0
H1116 H 0.07109 0.62317 0.18091 0.0
H1117 H 0.05909 0.65208 0.21521 0.0
H1118 H 0.09248 0.58989 0.19405 0.0
H1119 H 0.09632 0.64878 0.12082 0.0
H1120 H 0.10396 0.68532 0.10274 0.0
H1121 H 0.1599 0.6724 0.11877 0.0
H1122 H 0.15257 0.63587 0.13738 0.0
H1123 H 0.12933 0.51306 0.08039 0.0
H1124 H 0.11154 0.54282 0.10304 0.0
H1125 H 0.16031 0.57443 0.13267 0.0
H1126 H 0.17795 0.54503 0.11017 0.0
H1127 H 0.13778 0.60304 0.10812 0.0
H1128 H 0.13345 0.54629 0.18767 0.0
H1129 H 0.12614 0.50986 0.20689 0.0
H1130 H 0.07105 0.51905 0.17931 0.0
H1131 H 0.07816 0.5554 0.15936 0.0
C1132 C 0.10357 0.66372 0.22128 0.0
C1133 C 0.08499 0.66588 0.2266 0.0
C1134 C 0.11043 0.64714 0.20189 0.0
C1135 C 0.09894 0.63222 0.18691 0.0
C1136 C 0.08032 0.63441 0.19197 0.0
C1137 C 0.07343 0.65108 0.21146 0.0
C1138 C 0.10658 0.61413 0.16696 0.0
C1139 C 0.1021 0.59283 0.1748 0.0
C1140 C 0.11939 0.61769 0.14204 0.0
C1141 C 0.12388 0.63962 0.13071 0.0
C1142 C 0.11024 0.65378 0.12069 0.0
C1143 C 0.11452 0.67448 0.11032 0.0
C1144 C 0.1324 0.68119 0.10967 0.0
C1145 C 0.14605 0.66718 0.11931 0.0
C1146 C 0.14184 0.64646 0.12973 0.0
C1147 C 0.13623 0.52653 0.09127 0.0
C1148 C 0.1551 0.52661 0.09336 0.0
C1149 C 0.12604 0.54348 0.10457 0.0
C1150 C 0.13449 0.56094 0.12006 0.0
C1151 C 0.15335 0.56129 0.12097 0.0
C1152 C 0.16347 0.54439 0.10801 0.0
C1153 C 0.124 0.57882 0.13569 0.0
C1154 C 0.12796 0.60011 0.12704 0.0
C1155 C 0.11072 0.57523 0.1598 0.0
C1156 C 0.10641 0.55338 0.17152 0.0
C1157 C 0.11984 0.54041 0.18532 0.0
C1158 C 0.11572 0.51981 0.19642 0.0
C1159 C 0.09816 0.51211 0.19417 0.0
C1160 C 0.08467 0.52501 0.1809 0.0
C1161 C 0.08874 0.5456 0.16968 0.0
H1162 H 0.09499 0.49618 0.20283 0.0
H1163 H 0.13569 0.69723 0.10164 0.0
H1164 H 0.33926 0.59958 0.43808 0.0
H1165 H 0.35408 0.62729 0.40511 0.0
H1166 H 0.35262 0.67051 0.48697 0.0
H1167 H 0.33706 0.64343 0.51888 0.0
H1168 H 0.34369 0.69246 0.44011 0.0
H1169 H 0.39305 0.64358 0.45287 0.0
H1170 H 0.40898 0.60898 0.44956 0.0
H1171 H 0.40162 0.60808 0.34607 0.0
H1172 H 0.38545 0.64259 0.34883 0.0
H1173 H 0.41105 0.76744 0.39714 0.0
H1174 H 0.3957 0.73641 0.4196 0.0
H1175 H 0.38227 0.71511 0.32307 0.0
H1176 H 0.3975 0.74684 0.3 0.0
H1177 H 0.39719 0.68156 0.37045 0.0
H1178 H 0.34975 0.73403 0.36104 0.0
H1179 H 0.33572 0.76953 0.3684 0.0
H1180 H 0.34242 0.76435 0.47174 0.0
H1181 H 0.35666 0.72892 0.46497 0.0
C1182 C 0.34244 0.61487 0.44912 0.0
C1183 C 0.33705 0.61918 0.48123 0.0
C1184 C 0.35095 0.63083 0.43022 0.0
C1185 C 0.35472 0.65132 0.44325 0.0
C1186 C 0.34985 0.65515 0.47579 0.0
C1187 C 0.34103 0.63949 0.49427 0.0
C1188 C 0.36299 0.66917 0.42324 0.0
C1189 C 0.35551 0.6899 0.42523 0.0
C1190 C 0.3782 0.66626 0.40283 0.0
C1191 C 0.38786 0.64552 0.40111 0.0
C1192 C 0.39471 0.63592 0.42945 0.0
C1193 C 0.4038 0.61634 0.42766 0.0
C1194 C 0.40626 0.6063 0.39764 0.0
C1195 C 0.39967 0.61585 0.36932 0.0
C1196 C 0.39055 0.63542 0.37097 0.0
C1197 C 0.4049 0.75625 0.3804 0.0
C1198 C 0.4056 0.75984 0.34655 0.0
C1199 C 0.39605 0.73841 0.39345 0.0
C1200 C 0.38774 0.7233 0.37321 0.0
C1201 C 0.38859 0.72649 0.3393 0.0
C1202 C 0.39725 0.7447 0.32611 0.0
C1203 C 0.37804 0.70457 0.38809 0.0
C1204 C 0.38527 0.68383 0.38518 0.0
C1205 C 0.36286 0.70751 0.40834 0.0
C1206 C 0.35443 0.7289 0.41245 0.0
C1207 C 0.34839 0.74055 0.38531 0.0
C1208 C 0.34036 0.76064 0.38938 0.0
C1209 C 0.33824 0.76923 0.42051 0.0
C1210 C 0.34413 0.75772 0.44763 0.0
C1211 C 0.35215 0.73762 0.44369 0.0
H1212 H 0.33198 0.78476 0.42361 0.0
H1213 H 0.4133 0.59115 0.39631 0.0
H1214 H 0.69167 0.40361 0.46601 0.0
H1215 H 0.68108 0.37215 0.43567 0.0
H1216 H 0.62736 0.38344 0.47072 0.0
H1217 H 0.63795 0.41436 0.50153 0.0
H1218 H 0.63532 0.34206 0.47605 0.0
H1219 H 0.64168 0.39564 0.39037 0.0
H1220 H 0.65899 0.42153 0.35768 0.0
H1221 H 0.69535 0.37156 0.32893 0.0
H1222 H 0.67835 0.34543 0.36178 0.0
H1223 H 0.57526 0.28898 0.37626 0.0
H1224 H 0.59387 0.31615 0.40172 0.0
H1225 H 0.64092 0.28903 0.35672 0.0
H1226 H 0.62207 0.26147 0.33049 0.0
H1227 H 0.64187 0.33383 0.35675 0.0
H1228 H 0.63341 0.27916 0.4348 0.0
H1229 H 0.61674 0.2526 0.46714 0.0
H1230 H 0.58595 0.30296 0.51131 0.0
H1231 H 0.60225 0.32987 0.47889 0.0
C1232 C 0.67761 0.39943 0.46712 0.0
C1233 C 0.66571 0.41158 0.48634 0.0
C1234 C 0.67151 0.38143 0.44962 0.0
C1235 C 0.65332 0.37527 0.45063 0.0
C1236 C 0.64145 0.38763 0.46949 0.0
C1237 C 0.64753 0.4055 0.48698 0.0
C1238 C 0.64642 0.35596 0.43263 0.0
C1239 C 0.63667 0.3404 0.44993 0.0
C1240 C 0.6488 0.35301 0.39869 0.0
C1241 C 0.65886 0.36865 0.37873 0.0
C1242 C 0.65343 0.39022 0.37721 0.0
C1243 C 0.66317 0.40492 0.35865 0.0
C1244 C 0.67828 0.3982 0.34131 0.0
C1245 C 0.68365 0.37675 0.34241 0.0
C1246 C 0.67396 0.36198 0.36096 0.0
C1247 C 0.58955 0.28873 0.37142 0.0
C1248 C 0.59711 0.27283 0.35134 0.0
C1249 C 0.60023 0.30434 0.38622 0.0
C1250 C 0.61892 0.30455 0.38177 0.0
C1251 C 0.62656 0.28924 0.3607 0.0
C1252 C 0.61576 0.27349 0.34566 0.0
C1253 C 0.63009 0.32056 0.40005 0.0
C1254 C 0.64071 0.33536 0.38292 0.0
C1255 C 0.62871 0.3227 0.43428 0.0
C1256 C 0.61904 0.30658 0.45426 0.0
C1257 C 0.62305 0.28461 0.4513 0.0
C1258 C 0.61366 0.26947 0.46966 0.0
C1259 C 0.60029 0.27609 0.49125 0.0
C1260 C 0.59632 0.29786 0.49459 0.0
C1261 C 0.60565 0.31307 0.47626 0.0
H1262 H 0.59302 0.26434 0.5054 0.0
H1263 H 0.68582 0.40961 0.32697 0.0
H1264 H 0.20085 0.34074 0.04231 0.0
H1265 H 0.20984 0.30345 0.03799 0.0
H1266 H 0.26076 0.32266 0.99787 0.0
H1267 H 0.25152 0.36057 1.0014 0.0
H1268 H 0.2489 0.28847 0.96602 0.0
H1269 H 0.25538 0.30392 0.07951 0.0
H1270 H 0.24575 0.3171 0.13325 0.0
H1271 H 0.20289 0.27116 0.13455 0.0
H1272 H 0.21213 0.25788 0.08062 0.0
H1273 H 0.29016 0.18704 0.98247 0.0
H1274 H 0.28152 0.22442 0.98754 0.0
H1275 H 0.23093 0.20557 0.02944 0.0
H1276 H 0.23987 0.16759 0.02527 0.0
H1277 H 0.24269 0.23965 0.06048 0.0
H1278 H 0.23587 0.22432 0.94717 0.0
H1279 H 0.24513 0.2112 0.89319 0.0
H1280 H 0.28818 0.25687 0.89126 0.0
H1281 H 0.27931 0.2701 0.94543 0.0
C1282 C 0.21405 0.33725 0.03266 0.0
C1283 C 0.22548 0.35399 0.02249 0.0
C1284 C 0.21924 0.31567 0.03037 0.0
C1285 C 0.23621 0.30986 0.01828 0.0
C1286 C 0.24763 0.32649 1.00756 0.0
C1287 C 0.24236 0.34827 1.00967 0.0
C1288 C 0.24168 0.28649 0.01652 0.0
C1289 C 0.24781 0.27794 0.9869 0.0
C1290 C 0.23983 0.27224 0.04331 0.0
C1291 C 0.23436 0.28003 0.0759 0.0
C1292 C 0.24384 0.29671 0.09118 0.0
C1293 C 0.23846 0.30419 0.12168 0.0
C1294 C 0.22369 0.295 0.13727 0.0
C1295 C 0.21431 0.27827 0.12243 0.0
C1296 C 0.21963 0.27074 0.09192 0.0
C1297 C 0.27711 0.19065 0.99272 0.0
C1298 C 0.26568 0.17399 1.00316 0.0
C1299 C 0.27211 0.21227 0.99543 0.0
C1300 C 0.25531 0.21821 1.00814 0.0
C1301 C 0.24393 0.20165 0.01927 0.0
C1302 C 0.24904 0.17984 0.01683 0.0
C1303 C 0.24993 0.24162 1.00997 0.0
C1304 C 0.24381 0.25017 0.03961 0.0
C1305 C 0.25175 0.25587 0.98317 0.0
C1306 C 0.25702 0.24807 0.95048 0.0
C1307 C 0.24738 0.23148 0.93532 0.0
C1308 C 0.25254 0.22403 0.90468 0.0
C1309 C 0.26725 0.23316 0.88884 0.0
C1310 C 0.2768 0.2498 0.90357 0.0
C1311 C 0.27169 0.2573 0.93422 0.0
H1312 H 0.27124 0.22736 0.86513 0.0
H1313 H 0.21953 0.30083 0.16087 0.0
H1314 H 0.75479 0.66796 0.97044 0.0
H1315 H 0.74492 0.70552 0.96654 0.0
H1316 H 0.78414 0.72344 0.03853 0.0
H1317 H 0.79388 0.68621 0.04266 0.0
H1318 H 0.72983 0.73244 1.00708 0.0
H1319 H 0.79894 0.77184 0.02968 0.0
H1320 H 0.83064 0.76911 0.01257 0.0
H1321 H 0.81455 0.73634 0.92555 0.0
H1322 H 0.78285 0.73843 0.94256 0.0
H1323 H 0.71216 0.8404 0.05028 0.0
H1324 H 0.72213 0.80335 0.0468 0.0
H1325 H 0.75462 0.81911 0.96349 0.0
H1326 H 0.74522 0.85677 0.96795 0.0
H1327 H 0.77252 0.79276 0.99462 0.0
H1328 H 0.71084 0.78346 0.95805 0.0
H1329 H 0.6778 0.78694 0.9601 0.0
H1330 H 0.67747 0.76056 0.05643 0.0
H1331 H 0.71043 0.75644 0.05458 0.0
C1332 C 0.76136 0.67989 0.98539 0.0
C1333 C 0.7753 0.67381 1.0067 0.0
C1334 C 0.75569 0.70149 0.98314 0.0
C1335 C 0.76391 0.71775 1.00182 0.0
C1336 C 0.77774 0.7116 0.02319 0.0
C1337 C 0.78328 0.69008 0.02564 0.0
C1338 C 0.75758 0.74084 1.0003 0.0
C1339 C 0.73924 0.74556 1.00432 0.0
C1340 C 0.76952 0.75836 0.99606 0.0
C1341 C 0.78861 0.75509 0.98755 0.0
C1342 C 0.80223 0.76382 1.0071 0.0
C1343 C 0.82018 0.7624 0.99741 0.0
C1344 C 0.82461 0.75259 0.96797 0.0
C1345 C 0.81111 0.74389 0.94839 0.0
C1346 C 0.79319 0.74496 0.95822 0.0
C1347 C 0.72148 0.83611 0.03116 0.0
C1348 C 0.72778 0.85185 1.00934 0.0
C1349 C 0.72702 0.8146 0.02887 0.0
C1350 C 0.73882 0.80776 1.00424 0.0
C1351 C 0.74544 0.82357 0.98273 0.0
C1352 C 0.74006 0.84527 0.98529 0.0
C1353 C 0.74476 0.78448 1.0019 0.0
C1354 C 0.76307 0.77969 0.99741 0.0
C1355 C 0.73271 0.76688 1.0047 0.0
C1356 C 0.71305 0.76998 1.00636 0.0
C1357 C 0.7037 0.77858 0.97974 0.0
C1358 C 0.68501 0.78055 0.9808 0.0
C1359 C 0.67558 0.77421 1.0085 0.0
C1360 C 0.6848 0.76559 0.03505 0.0
C1361 C 0.70346 0.76329 0.03393 0.0
H1362 H 0.66112 0.77585 1.00932 0.0
H1363 H 0.83849 0.75163 0.96038 0.0
H1364 H 0.99566 0.4187 0.21688 0.0
H1365 H 0.00461 0.45653 0.21101 0.0
H1366 H 0.97404 0.47257 0.29647 0.0
H1367 H 0.96497 0.43532 0.3021 0.0
H1368 H 0.96713 0.50095 0.25244 0.0
H1369 H 0.0226 0.46852 0.2908 0.0
H1370 H 0.04909 0.44484 0.28844 0.0
H1371 H 0.06515 0.47376 0.19839 0.0
H1372 H 0.03856 0.49731 0.19983 0.0
H1373 H 0.99682 0.60339 0.29888 0.0
H1374 H 0.99075 0.56515 0.29428 0.0
H1375 H 0.02332 0.56198 0.20792 0.0
H1376 H 0.02967 0.60058 0.21265 0.0
H1377 H 0.0297 0.52726 0.24405 0.0
H1378 H 0.97671 0.55921 0.2034 0.0
H1379 H 0.95062 0.58353 0.20134 0.0
H1380 H 0.93008 0.55586 0.28928 0.0
H1381 H 0.95612 0.53145 0.292 0.0
C1382 C 0.99102 0.43026 0.23461 0.0
C1383 C 0.97959 0.42369 0.26005 0.0
C1384 C 0.99619 0.452 0.23127 0.0
C1385 C 0.99018 0.46778 0.2534 0.0
C1386 C 0.97891 0.46106 0.27886 0.0
C1387 C 0.97374 0.43952 0.28212 0.0
C1388 C 0.99488 0.49135 0.25003 0.0
C1389 C 0.98088 0.50657 0.25102 0.0
C1390 C 0.01272 0.49913 0.24647 0.0
C1391 C 0.02843 0.48451 0.24524 0.0
C1392 C 0.03165 0.46966 0.27029 0.0
C1393 C 0.04673 0.45631 0.26917 0.0
C1394 C 0.05882 0.45784 0.24334 0.0
C1395 C 0.05582 0.47266 0.21847 0.0
C1396 C 0.04071 0.48595 0.21937 0.0
C1397 C 0.00272 0.5947 0.27876 0.0
C1398 C 0.0137 0.60539 0.25605 0.0
C1399 C -0.00087 0.57266 0.27605 0.0
C1400 C 0.00628 0.56036 0.25044 0.0
C1401 C 0.0175 0.57088 0.2279 0.0
C1402 C 0.02108 0.59308 0.23056 0.0
C1403 C 0.00198 0.53668 0.24768 0.0
C1404 C 0.01597 0.52154 0.24538 0.0
C1405 C 0.98412 0.52887 0.24937 0.0
C1406 C 0.96847 0.54362 0.24805 0.0
C1407 C 0.96671 0.55842 0.22245 0.0
C1408 C 0.95191 0.5722 0.22113 0.0
C1409 C 0.93873 0.5713 0.24522 0.0
C1410 C 0.94031 0.55656 0.27064 0.0
C1411 C 0.95507 0.54271 0.27205 0.0
H1412 H 0.92728 0.58198 0.24413 0.0
H1413 H 0.07049 0.4475 0.24251 0.0
H1414 H 0.25864 0.66958 0.4759 0.0
H1415 H 0.24986 0.70749 0.46954 0.0
H1416 H 0.25858 0.71778 0.57185 0.0
H1417 H 0.26765 0.6804 0.57817 0.0
H1418 H 0.2264 0.73636 0.54921 0.0
H1419 H 0.2894 0.73312 0.51769 0.0
H1420 H 0.31422 0.71979 0.48352 0.0
H1421 H 0.28822 0.74476 0.39842 0.0
H1422 H 0.26308 0.75793 0.43201 0.0
H1423 H 0.22957 0.84665 0.57562 0.0
H1424 H 0.23676 0.80873 0.57104 0.0
H1425 H 0.23784 0.81427 0.46663 0.0
H1426 H 0.23118 0.85283 0.47124 0.0
H1427 H 0.26262 0.78675 0.48306 0.0
H1428 H 0.20106 0.79126 0.50967 0.0
H1429 H 0.1739 0.8029 0.53902 0.0
H1430 H 0.19387 0.77415 0.6267 0.0
H1431 H 0.22128 0.76258 0.59797 0.0
C1432 C 0.25851 0.67988 0.49708 0.0
C1433 C 0.2639 0.67178 0.52758 0.0
C1434 C 0.25359 0.70164 0.49339 0.0
C1435 C 0.25364 0.71576 0.52018 0.0
C1436 C 0.25842 0.70743 0.55072 0.0
C1437 C 0.26363 0.68592 0.55429 0.0
C1438 C 0.24895 0.73921 0.51697 0.0
C1439 C 0.23443 0.74737 0.53493 0.0
C1440 C 0.25888 0.75366 0.49731 0.0
C1441 C 0.27423 0.74623 0.47732 0.0
C1442 C 0.2889 0.73562 0.49167 0.0
C1443 C 0.30303 0.7281 0.47241 0.0
C1444 C 0.3027 0.73126 0.4388 0.0
C1445 C 0.28838 0.7422 0.42444 0.0
C1446 C 0.2742 0.74971 0.44357 0.0
C1447 C 0.23138 0.83995 0.55157 0.0
C1448 C 0.22958 0.853 0.52381 0.0
C1449 C 0.2354 0.81802 0.54895 0.0
C1450 C 0.23738 0.80809 0.51843 0.0
C1451 C 0.23624 0.82123 0.49056 0.0
C1452 C 0.23241 0.84338 0.4932 0.0
C1453 C 0.24033 0.78408 0.51617 0.0
C1454 C 0.25447 0.77579 0.49718 0.0
C1455 C 0.22977 0.76932 0.53426 0.0
C1456 C 0.2133 0.7762 0.55171 0.0
C1457 C 0.19972 0.78755 0.53526 0.0
C1458 C 0.18427 0.79412 0.55178 0.0
C1459 C 0.18218 0.78931 0.58472 0.0
C1460 C 0.19552 0.77788 0.60119 0.0
C1461 C 0.211 0.77129 0.58479 0.0
H1462 H 0.17021 0.79441 0.59747 0.0
H1463 H 0.31357 0.72529 0.4239 0.0
H1464 H 0.7911 0.18744 0.46883 0.0
H1465 H 0.78065 0.22434 0.47041 0.0
H1466 H 0.73021 0.20355 0.51071 0.0
H1467 H 0.74053 0.16603 0.50819 0.0
H1468 H 0.72388 0.23547 0.4691 0.0
H1469 H 0.76441 0.22752 0.55826 0.0
H1470 H 0.79263 0.21768 0.58587 0.0
H1471 H 0.82164 0.26225 0.52629 0.0
H1472 H 0.79362 0.27216 0.498 0.0
H1473 H 0.69894 0.33974 0.52525 0.0
H1474 H 0.70771 0.30217 0.52099 0.0
H1475 H 0.75735 0.32071 0.47532 0.0
H1476 H 0.74863 0.35866 0.47974 0.0
H1477 H 0.76337 0.28986 0.52022 0.0
H1478 H 0.72215 0.29802 0.43157 0.0
H1479 H 0.69346 0.30882 0.40643 0.0
H1480 H 0.66514 0.26454 0.4675 0.0
H1481 H 0.69365 0.25359 0.49325 0.0
C1482 C 0.77771 0.19051 0.47794 0.0
C1483 C 0.76675 0.17344 0.48851 0.0
C1484 C 0.77175 0.21187 0.47905 0.0
C1485 C 0.75469 0.21719 0.49135 0.0
C1486 C 0.74347 0.20016 0.50125 0.0
C1487 C 0.74942 0.1786 0.4999 0.0
C1488 C 0.74892 0.24046 0.49418 0.0
C1489 C 0.73245 0.24723 0.48072 0.0
C1490 C 0.76006 0.25628 0.50877 0.0
C1491 C 0.77693 0.25044 0.52581 0.0
C1492 C 0.77683 0.23512 0.55089 0.0
C1493 C 0.79279 0.22955 0.56669 0.0
C1494 C 0.80892 0.2393 0.55778 0.0
C1495 C 0.80913 0.25469 0.53313 0.0
C1496 C 0.79321 0.26031 0.51723 0.0
C1497 C 0.71175 0.33597 0.51421 0.0
C1498 C 0.72304 0.35251 0.50284 0.0
C1499 C 0.71672 0.31428 0.51161 0.0
C1500 C 0.73316 0.30825 0.49745 0.0
C1501 C 0.74457 0.32472 0.48629 0.0
C1502 C 0.73954 0.34651 0.48874 0.0
C1503 C 0.73847 0.28487 0.49491 0.0
C1504 C 0.75483 0.27808 0.50854 0.0
C1505 C 0.72717 0.26909 0.48068 0.0
C1506 C 0.71004 0.27511 0.46453 0.0
C1507 C 0.7098 0.29063 0.43972 0.0
C1508 C 0.69357 0.29676 0.42534 0.0
C1509 C 0.67749 0.28737 0.43536 0.0
C1510 C 0.67761 0.27175 0.4597 0.0
C1511 C 0.69381 0.26555 0.47417 0.0
H1512 H 0.66496 0.29221 0.42424 0.0
H1513 H 0.82126 0.23496 0.57004 0.0
H1514 H 0.95019 0.9375 0.77036 0.0
H1515 H 0.95967 0.97477 0.76684 0.0
H1516 H 0.01118 0.95472 0.73019 0.0
H1517 H 0.0017 0.91696 0.73374 0.0
H1518 H 0.01496 0.9859 0.77626 0.0
H1519 H 0.97892 0.97751 0.68055 0.0
H1520 H 0.95189 0.96801 0.64908 0.0
H1521 H 0.92112 0.01444 0.70227 0.0
H1522 H 0.94788 0.02396 0.7345 0.0
H1523 H 0.04566 0.08897 0.734 0.0
H1524 H 0.03559 0.05192 0.73257 0.0
H1525 H 0.9821 0.07209 0.75846 0.0
H1526 H 0.9921 0.10972 0.75857 0.0
H1527 H 0.97916 0.04062 0.71739 0.0
H1528 H 0.01361 0.04804 0.81473 0.0
H1529 H 0.03992 0.05792 0.84786 0.0
H1530 H 0.0726 1.01358 0.79426 0.0
H1531 H 0.04652 1.00364 0.7605 0.0
C1532 C 0.96357 0.94085 0.76145 0.0
C1533 C 0.97514 0.92395 0.75233 0.0
C1534 C 0.96896 0.96238 0.75927 0.0
C1535 C 0.98612 0.9679 0.74786 0.0
C1536 C -0.00217 0.95108 0.73897 0.0
C1537 C 0.99238 0.92941 0.74094 0.0
C1538 C 0.99182 0.99112 0.74602 0.0
C1539 C 0.00726 0.99776 0.7629 0.0
C1540 C 0.98153 1.00701 0.72959 0.0
C1541 C 0.9654 1.00129 0.7102 0.0
C1542 C 0.96636 0.98556 0.68577 0.0
C1543 C 0.95108 0.98018 0.66776 0.0
C1544 C 0.93479 0.99056 0.67375 0.0
C1545 C 0.93374 1.00637 0.69771 0.0
C1546 C 0.94896 1.01177 0.71585 0.0
C1547 C 0.0317 0.08567 0.73938 0.0
C1548 C 0.01977 0.10255 0.74673 0.0
C1549 C 0.02594 0.06425 0.73877 0.0
C1550 C 0.00811 0.05873 0.74632 0.0
C1551 C 0.99597 0.07563 0.75278 0.0
C1552 C 0.00171 0.09724 0.7529 0.0
C1553 C 0.00237 0.03543 0.74759 0.0
C1554 C 0.98689 0.02878 0.7307 0.0
C1555 C 0.01249 0.01953 0.76434 0.0
C1556 C 0.02814 0.02524 0.7849 0.0
C1557 C 0.02643 0.04048 0.8099 0.0
C1558 C 0.0413 0.04608 0.82879 0.0
C1559 C 0.05793 0.03643 0.82311 0.0
C1560 C 0.05971 0.02107 0.7986 0.0
C1561 C 0.04489 0.01543 0.7796 0.0
H1562 H 0.06944 0.04081 0.83774 0.0
H1563 H 0.92298 0.98639 0.65977 0.0
H1564 H 0.50154 0.61281 0.71642 0.0
H1565 H 0.49285 0.57493 0.70985 0.0
H1566 H 0.51404 0.56093 0.80499 0.0
H1567 H 0.52285 0.59822 0.81135 0.0
H1568 H 0.52522 0.53163 0.76676 0.0
H1569 H 0.46731 0.56377 0.7838 0.0
H1570 H 0.4411 0.58694 0.77343 0.0
H1571 H 0.43372 0.55758 0.68006 0.0
H1572 H 0.46016 0.53456 0.68951 0.0
H1573 H 0.48551 0.43167 0.80738 0.0
H1574 H 0.49239 0.46987 0.80321 0.0
H1575 H 0.48103 0.46814 0.70062 0.0
H1576 H 0.47448 0.42947 0.70453 0.0
H1577 H 0.46508 0.50477 0.73533 0.0
H1578 H 0.52233 0.47196 0.71946 0.0
H1579 H 0.54744 0.44743 0.73148 0.0
H1580 H 0.5551 0.47778 0.82409 0.0
H1581 H 0.52986 0.50231 0.81281 0.0
C1582 C 0.50407 0.60171 0.73612 0.0
C1583 C 0.51287 0.60881 0.76449 0.0
C1584 C 0.49909 0.57994 0.73235 0.0
C1585 C 0.50266 0.5647 0.75694 0.0
C1586 C 0.51115 0.57201 0.7854 0.0
C1587 C 0.51616 0.59356 0.78908 0.0
C1588 C 0.49841 0.54105 0.75315 0.0
C1589 C 0.51196 0.52594 0.76016 0.0
C1590 C 0.48131 0.53311 0.74349 0.0
C1591 C 0.46588 0.54761 0.73722 0.0
C1592 C 0.46027 0.56245 0.76086 0.0
C1593 C 0.44532 0.5755 0.7552 0.0
C1594 C 0.43572 0.57368 0.72616 0.0
C1595 C 0.44114 0.55892 0.7026 0.0
C1596 C 0.45614 0.54592 0.70804 0.0
C1597 C 0.48456 0.43929 0.7838 0.0
C1598 C 0.47958 0.42725 0.75624 0.0
C1599 C 0.48851 0.46126 0.78146 0.0
C1600 C 0.48731 0.47213 0.75159 0.0
C1601 C 0.4821 0.46027 0.72399 0.0
C1602 C 0.47848 0.43807 0.7262 0.0
C1603 C 0.49178 0.49571 0.74965 0.0
C1604 C 0.47833 0.51067 0.7416 0.0
C1605 C 0.50893 0.50361 0.75844 0.0
C1606 C 0.52408 0.48885 0.76541 0.0
C1607 C 0.52926 0.47328 0.74252 0.0
C1608 C 0.54354 0.4594 0.74917 0.0
C1609 C 0.55284 0.46101 0.77856 0.0
C1610 C 0.54788 0.47653 0.80134 0.0
C1611 C 0.53359 0.49044 0.79482 0.0
H1612 H 0.5639 0.45026 0.78366 0.0
H1613 H 0.42412 0.58376 0.72185 0.0
H1614 H 0.48952 0.92339 0.21762 0.0
H1615 H 0.49844 0.96111 0.21117 0.0
H1616 H 0.47898 0.97476 0.30766 0.0
H1617 H 0.46957 0.93764 0.31359 0.0
H1618 H 0.46829 1.00499 0.27244 0.0
H1619 H 0.52616 0.97104 0.28239 0.0
H1620 H 0.55031 0.9458 0.26751 0.0
H1621 H 0.55418 0.97476 0.17316 0.0
H1622 H 0.52983 0.99996 0.18727 0.0
H1623 H 0.5126 0.10309 0.30945 0.0
H1624 H 0.50478 0.06517 0.30583 0.0
H1625 H 0.51026 0.0676 0.20175 0.0
H1626 H 0.51808 0.10592 0.20513 0.0
H1627 H 0.52783 0.02998 0.23454 0.0
H1628 H 0.47064 0.06494 0.22649 0.0
H1629 H 0.44689 0.09032 0.24273 0.0
H1630 H 0.44273 0.05937 0.33561 0.0
H1631 H 0.46666 0.03399 0.32009 0.0
C1632 C 0.48733 0.9344 0.23757 0.0
C1633 C 0.47878 0.92727 0.26614 0.0
C1634 C 0.4925 0.95609 0.23392 0.0
C1635 C 0.48957 0.9712 0.25898 0.0
C1636 C 0.48138 0.96382 0.28769 0.0
C1637 C 0.47604 0.94236 0.29114 0.0
C1638 C 0.49431 0.99475 0.25549 0.0
C1639 C 0.48143 1.01026 0.26442 0.0
C1640 C 0.51124 1.0022 0.24413 0.0
C1641 C 0.52597 0.98717 0.23572 0.0
C1642 C 0.53205 0.97191 0.25837 0.0
C1643 C 0.54579 0.95763 0.25008 0.0
C1644 C 0.55368 0.95859 0.21934 0.0
C1645 C 0.54798 0.97397 0.19691 0.0
C1646 C 0.53421 0.98825 0.20503 0.0
C1647 C 0.51217 0.0957 0.28566 0.0
C1648 C 0.516 0.10784 0.25757 0.0
C1649 C 0.50766 0.07387 0.28366 0.0
C1650 C 0.50694 0.06327 0.25354 0.0
C1651 C 0.51078 0.07525 0.22535 0.0
C1652 C 0.51518 0.09726 0.22731 0.0
C1653 C 0.50191 0.03986 0.25199 0.0
C1654 C 0.5147 0.02452 0.24224 0.0
C1655 C 0.48497 0.03248 0.26281 0.0
C1656 C 0.47057 0.04769 0.27223 0.0
C1657 C 0.46478 0.06367 0.25049 0.0
C1658 C 0.45126 0.07803 0.25954 0.0
C1659 C 0.44334 0.07649 0.29022 0.0
C1660 C 0.4489 0.06056 0.31187 0.0
C1661 C 0.46243 0.04617 0.30295 0.0
H1662 H 0.43287 0.08762 0.29718 0.0
H1663 H 0.56422 0.94743 0.21289 0.0
H1664 H 0.26276 0.99696 0.35712 0.0
H1665 H 0.26361 0.0153 0.30481 0.0
H1666 H 0.21533 0.98248 0.27558 0.0
H1667 H 0.21469 0.96364 0.32827 0.0
H1668 H 0.23869 0.98057 0.22767 0.0
H1669 H 0.21637 0.0381 0.29153 0.0
H1670 H 0.21501 0.06316 0.33779 0.0
H1671 H 0.26709 0.0876 0.31307 0.0
H1672 H 0.26888 0.06248 0.2669 0.0
H1673 H 0.24439 0.07938 0.10536 0.0
H1674 H 0.2348 0.06404 0.15759 0.0
H1675 H 0.27438 1.01404 0.14758 0.0
H1676 H 0.28356 0.02883 0.09563 0.0
H1677 H 0.24985 0.0584 0.21396 0.0
H1678 H 0.26314 0.96883 0.18493 0.0
H1679 H 0.262 0.94436 0.13789 0.0
H1680 H 0.22289 0.98487 0.09188 0.0
H1681 H 0.22363 1.00944 0.1388 0.0
C1682 C 0.25209 0.99392 0.33985 0.0
C1683 C 0.23859 0.97885 0.34716 0.0
C1684 C 0.25256 1.00452 0.30977 0.0
C1685 C 0.23949 1.00056 0.28583 0.0
C1686 C 0.22562 0.98596 0.2934 0.0
C1687 C 0.22511 0.97535 0.32375 0.0
C1688 C 0.24105 1.01076 0.25259 0.0
C1689 C 0.24104 0.99761 0.2248 0.0
C1690 C 0.24383 0.03311 0.24818 0.0
C1691 C 0.2428 0.04829 0.27587 0.0
C1692 C 0.22759 0.04872 0.29608 0.0
C1693 C 0.22673 0.06295 0.32227 0.0
C1694 C 0.24097 0.07694 0.3284 0.0
C1695 C 0.25608 0.07675 0.3083 0.0
C1696 C 0.25701 0.06254 0.28209 0.0
C1697 C 0.25089 0.06495 0.11407 0.0
C1698 C 0.26462 0.05524 0.09561 0.0
C1699 C 0.24544 0.0562 0.14417 0.0
C1700 C 0.25356 0.0375 0.15675 0.0
C1701 C 0.26741 0.02803 0.13845 0.0
C1702 C 0.27272 0.03663 0.10843 0.0
C1703 C 0.24804 0.02811 0.18917 0.0
C1704 C 0.24736 0.04138 0.2168 0.0
C1705 C 0.24433 1.00593 0.19338 0.0
C1706 C 0.24354 0.99104 0.1653 0.0
C1707 C 0.25422 0.97245 0.16486 0.0
C1708 C 0.25367 0.95858 0.1382 0.0
C1709 C 0.24241 0.96308 0.11189 0.0
C1710 C 0.23164 0.98143 0.11224 0.0
C1711 C 0.23214 0.99535 0.13884 0.0
H1712 H 0.24202 0.95234 0.09125 0.0
H1713 H 0.24028 0.08794 0.34869 0.0
H1714 H 0.699 0.99139 0.08192 0.0
H1715 H 0.70536 1.00878 0.13403 0.0
H1716 H 0.74103 0.95701 0.15958 0.0
H1717 H 0.73434 0.93935 0.10755 0.0
H1718 H 0.72151 0.96923 0.21252 0.0
H1719 H 0.75721 1.00633 0.13261 0.0
H1720 H 0.76213 0.02616 0.08153 0.0
H1721 H 0.72566 0.07526 0.11313 0.0
H1722 H 0.72039 0.0556 0.16426 0.0
H1723 H 0.75791 0.02565 0.35004 0.0
H1724 H 0.75495 1.00575 0.29871 0.0
H1725 H 0.72507 0.0584 0.25753 0.0
H1726 H 0.72892 0.07858 0.30749 0.0
H1727 H 0.74345 0.0442 0.21219 0.0
H1728 H 0.70579 1.00803 0.28926 0.0
H1729 H 0.69857 0.98867 0.33983 0.0
H1730 H 0.73557 0.93871 0.31388 0.0
H1731 H 0.74317 0.95792 0.2633 0.0
C1732 C 0.70792 0.98346 0.09888 0.0
C1733 C 0.71589 0.96375 0.09054 0.0
C1734 C 0.71178 0.99361 0.12866 0.0
C1735 C 0.72391 0.98449 0.15106 0.0
C1736 C 0.73164 0.96454 0.14303 0.0
C1737 C 0.72782 0.95442 0.11312 0.0
C1738 C 0.72878 0.99596 0.18229 0.0
C1739 C 0.72656 0.98552 0.21236 0.0
C1740 C 0.73499 0.01747 0.18268 0.0
C1741 C 0.73833 0.02943 0.15215 0.0
C1742 C 0.75018 0.02131 0.12858 0.0
C1743 C 0.75304 0.03252 0.09964 0.0
C1744 C 0.74419 0.05194 0.09407 0.0
C1745 C 0.73251 0.06022 0.11748 0.0
C1746 C 0.7296 0.04907 0.14646 0.0
C1747 C 0.751 0.03314 0.32985 0.0
C1748 C 0.74344 0.05373 0.33352 0.0
C1749 C 0.74903 0.02156 0.30046 0.0
C1750 C 0.7393 0.03012 0.2739 0.0
C1751 C 0.73251 0.05105 0.27723 0.0
C1752 C 0.73461 0.06263 0.30626 0.0
C1753 C 0.73594 0.01763 0.24276 0.0
C1754 C 0.73847 0.02787 0.21256 0.0
C1755 C 0.72971 0.99608 0.24235 0.0
C1756 C 0.72521 0.98453 0.27271 0.0
C1757 C 0.71248 0.99299 0.29447 0.0
C1758 C 0.70831 0.98204 0.3231 0.0
C1759 C 0.71665 0.96251 0.33011 0.0
C1760 C 0.72915 0.95386 0.30845 0.0
C1761 C 0.73339 0.96477 0.27979 0.0
H1762 H 0.7134 0.95404 0.35229 0.0
H1763 H 0.74641 0.06059 0.07164 0.0
H1764 H 0.98778 0.33491 0.35905 0.0
H1765 H 0.99389 0.31864 0.4122 0.0
H1766 H 0.95838 0.26634 0.38862 0.0
H1767 H 0.95212 0.28276 0.33586 0.0
H1768 H 0.953 0.27622 0.44833 0.0
H1769 H 0.00671 0.26312 0.38705 0.0
H1770 H 0.03312 0.27279 0.35408 0.0
H1771 H 0.05309 0.31188 0.43196 0.0
H1772 H 0.02667 0.30265 0.46526 0.0
H1773 H 0.9814 0.19807 0.56162 0.0
H1774 H 0.97752 0.21822 0.51138 0.0
H1775 H 0.00597 0.27161 0.55312 0.0
H1776 H 0.00943 0.2516 0.60444 0.0
H1777 H 0.01522 0.26382 0.48699 0.0
H1778 H 0.96235 0.2723 0.55047 0.0
H1779 H 0.93576 0.26185 0.5822 0.0
H1780 H 0.91332 0.23098 0.49833 0.0
H1781 H 0.94016 0.24033 0.46639 0.0
C1782 C 0.98121 0.31999 0.36525 0.0
C1783 C 0.96927 0.3103 0.34314 0.0
C1784 C 0.98482 0.31056 0.3957 0.0
C1785 C 0.97685 0.29094 0.40472 0.0
C1786 C 0.96477 0.28143 0.38269 0.0
C1787 C 0.96109 0.29092 0.35241 0.0
C1788 C 0.98095 0.28026 0.43689 0.0
C1789 C 0.96663 0.27327 0.45646 0.0
C1790 C -0.00128 0.27683 0.44842 0.0
C1791 C 0.01462 0.28238 0.42849 0.0
C1792 C 0.01667 0.2739 0.39705 0.0
C1793 C 0.03165 0.27928 0.37832 0.0
C1794 C 0.04475 0.29299 0.39088 0.0
C1795 C 0.04292 0.3013 0.42224 0.0
C1796 C 0.02795 0.29599 0.44106 0.0
C1797 C 0.98687 0.21412 0.56036 0.0
C1798 C 0.99546 0.22326 0.58768 0.0
C1799 C 0.98464 0.22565 0.53138 0.0
C1800 C 0.9911 0.24669 0.52837 0.0
C1801 C 0.00071 0.25547 0.55475 0.0
C1802 C 0.00279 0.24394 0.58412 0.0
C1803 C 0.98725 0.25943 0.49801 0.0
C1804 C 0.00159 0.26681 0.47884 0.0
C1805 C 0.96947 0.263 0.48666 0.0
C1806 C 0.95349 0.25674 0.50612 0.0
C1807 C 0.95195 0.26289 0.5389 0.0
C1808 C 0.9368 0.25716 0.55695 0.0
C1809 C 0.92293 0.24559 0.54236 0.0
C1810 C 0.92417 0.23974 0.50968 0.0
C1811 C 0.93939 0.24518 0.49163 0.0
H1812 H 0.91117 0.24127 0.55632 0.0
H1813 H 0.05634 0.29714 0.37635 0.0
H1814 H 0.9799 0.81788 0.55719 0.0
H1815 H 0.98393 0.7991 0.50511 0.0
H1816 H 0.01074 0.74738 0.55497 0.0
H1817 H 0.00689 0.76627 0.60666 0.0
H1818 H 0.03045 0.75916 0.50584 0.0
H1819 H 0.9678 0.74233 0.51775 0.0
H1820 H 0.93568 0.75036 0.52573 0.0
H1821 H 0.93543 0.78867 0.43906 0.0
H1822 H 0.96762 0.7811 0.43078 0.0
H1823 H 0.02031 0.68412 0.36155 0.0
H1824 H 0.0115 0.69992 0.41425 0.0
H1825 H 0.02602 0.76253 0.37911 0.0
H1826 H 0.03495 0.74689 0.32695 0.0
H1827 H 0.98514 0.74406 0.42058 0.0
H1828 H 0.04981 0.76836 0.41995 0.0
H1829 H 0.0824 0.76183 0.41577 0.0
H1830 H 0.07813 0.70953 0.48295 0.0
H1831 H 0.04542 0.71551 0.48715 0.0
C1832 C 0.98602 0.80212 0.55713 0.0
C1833 C 0.99267 0.79335 0.58626 0.0
C1834 C 0.98846 0.7914 0.52722 0.0
C1835 C -0.00233 0.77162 0.52569 0.0
C1836 C 0.00364 0.76254 0.55509 0.0
C1837 C 0.00121 0.77323 0.58483 0.0
C1838 C 0.00235 0.76114 0.49364 0.0
C1839 C 0.02039 0.75576 0.48748 0.0
C1840 C 0.98951 0.75681 0.46895 0.0
C1841 C 0.97016 0.7613 0.47382 0.0
C1842 C 0.96093 0.7526 0.50053 0.0
C1843 C 0.9427 0.75704 0.50508 0.0
C1844 C 0.93353 0.77005 0.48296 0.0
C1845 C 0.94256 0.77861 0.45619 0.0
C1846 C 0.96078 0.77423 0.45154 0.0
C1847 C 0.02168 0.70123 0.36515 0.0
C1848 C 0.02876 0.71414 0.3402 0.0
C1849 C 0.01666 0.71027 0.39533 0.0
C1850 C 0.01838 0.73245 0.40108 0.0
C1851 C 0.02491 0.74537 0.37578 0.0
C1852 C 0.03009 0.73635 0.34591 0.0
C1853 C 0.01313 0.74228 0.43311 0.0
C1854 C 0.99505 0.74748 0.43917 0.0
C1855 C 0.02589 0.74667 0.4577 0.0
C1856 C 0.04517 0.74204 0.45324 0.0
C1857 C 0.05575 0.75514 0.43319 0.0
C1858 C 0.07423 0.7516 0.43091 0.0
C1859 C 0.08229 0.73524 0.44891 0.0
C1860 C 0.07185 0.72219 0.46899 0.0
C1861 C 0.05334 0.72557 0.4712 0.0
H1862 H 0.09664 0.73273 0.44739 0.0
H1863 H 0.91942 0.77348 0.48653 0.0
H1864 H 0.28629 0.52649 0.59727 0.0
H1865 H 0.27738 0.51179 0.64982 0.0
H1866 H 0.25324 0.57225 0.67548 0.0
H1867 H 0.26231 0.58718 0.62279 0.0
H1868 H 0.28664 0.52138 0.70998 0.0
H1869 H 0.21819 0.56331 0.72919 0.0
H1870 H 0.19305 0.57751 0.69655 0.0
H1871 H 0.20598 0.53388 0.61933 0.0
H1872 H 0.23104 0.51923 0.65166 0.0
H1873 H 0.26311 0.51034 0.8742 0.0
H1874 H 0.26613 0.52709 0.82079 0.0
H1875 H 0.22735 0.48292 0.78153 0.0
H1876 H 0.22428 0.46603 0.83544 0.0
H1877 H 0.2244 0.52377 0.75271 0.0
H1878 H 0.27073 0.47225 0.77322 0.0
H1879 H 0.29492 0.45573 0.80561 0.0
H1880 H 0.32544 0.51394 0.80013 0.0
H1881 H 0.30125 0.53097 0.76818 0.0
C1882 C 0.27908 0.53677 0.61397 0.0
C1883 C 0.27517 0.55818 0.60547 0.0
C1884 C 0.27397 0.52826 0.64425 0.0
C1885 C 0.26453 0.54073 0.66707 0.0
C1886 C 0.26031 0.56205 0.65847 0.0
C1887 C 0.26553 0.57063 0.62815 0.0
C1888 C 0.25955 0.53148 0.69986 0.0
C1889 C 0.27302 0.52203 0.71919 0.0
C1890 C 0.24174 0.53182 0.71224 0.0
C1891 C 0.2266 0.54035 0.69273 0.0
C1892 C 0.21562 0.55671 0.70529 0.0
C1893 C 0.2014 0.56484 0.68684 0.0
C1894 C 0.19796 0.55665 0.65585 0.0
C1895 C 0.2087 0.54027 0.64329 0.0
C1896 C 0.22293 0.53206 0.66165 0.0
C1897 C 0.25482 0.50454 0.85444 0.0
C1898 C 0.24339 0.48683 0.85931 0.0
C1899 C 0.25667 0.51406 0.82372 0.0
C1900 C 0.24725 0.50613 0.79664 0.0
C1901 C 0.23485 0.4894 0.80183 0.0
C1902 C 0.23298 0.47981 0.83279 0.0
C1903 C 0.25157 0.51419 0.76291 0.0
C1904 C 0.23803 0.5233 0.74346 0.0
C1905 C 0.26928 0.51332 0.75017 0.0
C1906 C 0.2841 0.50294 0.76852 0.0
C1907 C 0.28256 0.48157 0.77904 0.0
C1908 C 0.29626 0.47211 0.79733 0.0
C1909 C 0.31169 0.48378 0.80495 0.0
C1910 C 0.31347 0.50492 0.79421 0.0
C1911 C 0.29977 0.51448 0.77599 0.0
H1912 H 0.32227 0.47642 0.81912 0.0
H1913 H 0.18694 0.56298 0.6416 0.0
H1914 H 0.72758 0.52657 0.85354 0.0
H1915 H 0.7254 0.50642 0.80285 0.0
H1916 H 0.77316 0.53761 0.76748 0.0
H1917 H 0.77525 0.55813 0.81854 0.0
H1918 H 0.74729 0.53888 0.72215 0.0
H1919 H 0.77273 0.48328 0.78759 0.0
H1920 H 0.77537 0.45971 0.83546 0.0
H1921 H 0.72297 0.43402 0.8164 0.0
H1922 H 0.71991 0.45764 0.76867 0.0
H1923 H 0.74436 0.44214 0.60042 0.0
H1924 H 0.75364 0.45698 0.65321 0.0
H1925 H 0.70831 0.49993 0.65147 0.0
H1926 H 0.69914 0.48524 0.59924 0.0
H1927 H 0.73783 0.46036 0.71387 0.0
H1928 H 0.72003 0.54782 0.68192 0.0
H1929 H 0.71796 0.57096 0.63344 0.0
H1930 H 0.75754 0.5324 0.58505 0.0
H1931 H 0.75998 0.50917 0.63335 0.0
C1932 C 0.73787 0.52884 0.83525 0.0
C1933 C 0.75166 0.54393 0.84026 0.0
C1934 C 0.73661 0.51723 0.80616 0.0
C1935 C 0.74914 0.52026 0.78105 0.0
C1936 C 0.7633 0.53486 0.78635 0.0
C1937 C 0.76462 0.54645 0.81571 0.0
C1938 C 0.74666 0.5092 0.74882 0.0
C1939 C 0.74535 0.52169 0.72046 0.0
C1940 C 0.7442 0.48669 0.7461 0.0
C1941 C 0.74605 0.47234 0.77465 0.0
C1942 C 0.76172 0.4727 0.79372 0.0
C1943 C 0.7633 0.45931 0.82081 0.0
C1944 C 0.74934 0.4454 0.82899 0.0
C1945 C 0.73378 0.4448 0.81004 0.0
C1946 C 0.73212 0.45817 0.78293 0.0
C1947 C 0.73628 0.45463 0.61139 0.0
C1948 C 0.72098 0.46258 0.59515 0.0
C1949 C 0.74161 0.46312 0.64167 0.0
C1950 C 0.73189 0.47992 0.65633 0.0
C1951 C 0.71632 0.48731 0.64063 0.0
C1952 C 0.71101 0.47882 0.61058 0.0
C1953 C 0.73804 0.49013 0.68753 0.0
C1954 C 0.73995 0.47751 0.71563 0.0
C1955 C 0.74113 0.51251 0.69005 0.0
C1956 C 0.7401 0.52669 0.66119 0.0
C1957 C 0.72837 0.54436 0.66101 0.0
C1958 C 0.72711 0.55747 0.63354 0.0
C1959 C 0.73759 0.55313 0.60616 0.0
C1960 C 0.74939 0.53571 0.60623 0.0
C1961 C 0.7507 0.52255 0.63363 0.0
H1962 H 0.73657 0.56328 0.58491 0.0
H1963 H 0.75058 0.43505 0.84999 0.0
H1964 H 0.96547 0.73068 0.08924 0.0
H1965 H 0.9625 0.74956 0.03777 0.0
H1966 H 0.0194 0.74384 0.02183 0.0
H1967 H 0.02246 0.72371 0.07315 0.0
H1968 H 0.00107 0.78764 1.00738 0.0
H1969 H 0.99663 0.71167 0.98276 0.0
H1970 H 0.98409 0.67539 0.98947 0.0
H1971 H 0.93152 0.69903 0.96586 0.0
H1972 H 0.94366 0.73554 0.95968 0.0
H1973 H 0.99548 0.82396 0.84268 0.0
H1974 H 0.00271 0.80648 0.89421 0.0
H1975 H 0.94962 0.77886 0.89668 0.0
H1976 H 0.9434 0.79459 0.84355 0.0
H1977 H 0.96806 0.75112 0.91866 0.0
H1978 H 0.96789 0.825 0.94834 0.0
H1979 H 0.97616 0.86323 0.94586 0.0
H1980 H 0.03124 0.84706 0.96468 0.0
H1981 H 0.02332 0.8087 0.96689 0.0
C1982 C 0.97745 0.73312 0.07486 0.0
C1983 C 0.9942 0.72497 0.08543 0.0
C1984 C 0.97569 0.74418 0.04533 0.0
C1985 C 0.99063 0.74799 0.02544 0.0
C1986 C 0.00759 0.74107 0.03658 0.0
C1987 C 0.00935 0.72961 0.06611 0.0
C1988 C 0.98815 0.75845 0.99271 0.0
C1989 C 0.99413 0.77955 0.98772 0.0
C1990 C 0.97832 0.7484 0.96742 0.0
C1991 C 0.97104 0.72641 0.97114 0.0
C1992 C 0.98236 0.70919 0.97937 0.0
C1993 C 0.97533 0.68857 0.98302 0.0
C1994 C 0.95701 0.68492 0.97821 0.0
C1995 C 0.94569 0.70188 0.96967 0.0
C1996 C 0.95265 0.72254 0.9661 0.0
C1997 C 0.98529 0.81428 0.85432 0.0
C1998 C 0.96852 0.81118 0.83912 0.0
C1999 C 0.98939 0.80435 0.88424 0.0
C2000 C 0.97664 0.79156 0.90065 0.0
C2001 C 0.95989 0.78856 0.88528 0.0
C2002 C 0.95609 0.79789 0.85491 0.0
C2003 C 0.98079 0.78071 0.93291 0.0
C2004 C 0.97508 0.75943 0.93799 0.0
C2005 C 0.99022 0.79095 0.95875 0.0
C2006 C 0.99504 0.81397 0.95741 0.0
C2007 C 0.98178 0.82959 0.95173 0.0
C2008 C 0.9864 0.85128 0.9504 0.0
C2009 C 0.00422 0.85756 0.95501 0.0
C2010 C 0.01745 0.84217 0.96105 0.0
C2011 C 0.0129 0.82045 0.96237 0.0
H2012 H 0.00778 0.87436 0.95397 0.0
H2013 H 0.9516 0.66894 0.98101 0.0
H2014 H 0.02164 0.27548 0.10802 0.0
H2015 H 0.02452 0.25655 0.05641 0.0
H2016 H 0.97692 0.28828 0.02096 0.0
H2017 H 0.97429 0.30777 0.07279 0.0
H2018 H 0.00765 0.22934 0.02067 0.0
H2019 H 0.98148 0.29835 0.93943 0.0
H2020 H 0.97872 0.33777 0.94066 0.0
H2021 H 0.02287 0.34156 1.00754 0.0
H2022 H 0.02604 0.30221 1.00636 0.0
H2023 H 0.00306 0.19294 0.85466 0.0
H2024 H 0.99608 0.20795 0.90836 0.0
H2025 H 0.03902 0.2536 0.8974 0.0
H2026 H 0.04604 0.23854 0.84411 0.0
H2027 H 0.00994 0.27346 0.92054 0.0
H2028 H 0.04361 0.21126 0.94761 0.0
H2029 H 0.05176 0.17295 0.94737 0.0
H2030 H 0.001 0.15717 0.99052 0.0
H2031 H 0.99244 0.1954 0.99059 0.0
C2032 C 0.01159 0.27822 0.08943 0.0
C2033 C -0.00222 0.29331 0.09462 0.0
C2034 C 0.01324 0.26729 0.05979 0.0
C2035 C 0.00117 0.2711 0.03416 0.0
C2036 C 0.98667 0.28522 0.03993 0.0
C2037 C 0.98501 0.29621 0.06978 0.0
C2038 C 0.00454 0.2612 1.00122 0.0
C2039 C 0.00792 0.23902 0.99879 0.0
C2040 C 0.00554 0.27368 0.97241 0.0
C2041 C 0.00382 0.29734 0.97312 0.0
C2042 C 0.99061 0.30762 0.95434 0.0
C2043 C 0.98898 0.32994 0.95502 0.0
C2044 C 0.00056 0.34215 0.97426 0.0
C2045 C 0.01386 0.33208 0.99275 0.0
C2046 C 0.01556 0.30977 0.99211 0.0
C2047 C 0.01111 0.20608 0.86375 0.0
C2048 C 0.02519 0.2145 0.84481 0.0
C2049 C 0.00709 0.21468 0.89458 0.0
C2050 C 0.01697 0.23203 0.90725 0.0
C2051 C 0.03105 0.24037 0.88837 0.0
C2052 C 0.03513 0.23167 0.85776 0.0
C2053 C 0.01269 0.24159 0.93997 0.0
C2054 C 0.00928 0.26372 0.94234 0.0
C2055 C 0.01224 0.22918 0.96884 0.0
C2056 C 0.01729 0.20617 0.96876 0.0
C2057 C 0.03411 0.19961 0.95677 0.0
C2058 C 0.03883 0.17791 0.95672 0.0
C2059 C 0.02689 0.16263 0.96884 0.0
C2060 C 0.01022 0.16902 0.98109 0.0
C2061 C 0.00544 0.19071 0.98116 0.0
H2062 H 0.03057 0.14584 0.96883 0.0
H2063 H -0.00073 0.35943 0.97478 0.0
H2064 H 0.76223 1.00936 0.85687 0.0
H2065 H 0.76447 0.02624 0.80347 0.0
H2066 H 0.73023 0.97735 0.7631 0.0
H2067 H 0.72813 0.96022 0.81696 0.0
H2068 H 0.75888 0.98291 0.72484 0.0
H2069 H 0.71579 0.03021 0.77165 0.0
H2070 H 0.70302 0.05438 0.81305 0.0
H2071 H 0.74808 0.09666 0.80266 0.0
H2072 H 0.76125 0.0726 0.7615 0.0
H2073 H 0.74757 0.07552 0.59373 0.0
H2074 H 0.73951 0.05927 0.64589 0.0
H2075 H 0.79028 0.02597 0.64765 0.0
H2076 H 0.79766 0.04108 0.59477 0.0
H2077 H 0.74994 0.06044 0.70376 0.0
H2078 H 0.79013 0.98184 0.69219 0.0
H2079 H 0.8012 0.95745 0.64945 0.0
H2080 H 0.75783 0.97651 0.587 0.0
H2081 H 0.74642 1.00088 0.62947 0.0
C2082 C 0.75478 1.00248 0.8368 0.0
C2083 C 0.74479 0.98355 0.84141 0.0
C2084 C 0.7561 1.01217 0.80611 0.0
C2085 C 0.74748 1.00327 0.77885 0.0
C2086 C 0.73704 0.98466 0.78354 0.0
C2087 C 0.73562 0.97499 0.81447 0.0
C2088 C 0.75021 1.01285 0.74551 0.0
C2089 C 0.75682 0.99985 0.72027 0.0
C2090 C 0.74745 0.03496 0.73897 0.0
C2091 C 0.73957 0.04951 0.76366 0.0
C2092 C 0.72304 0.04459 0.77836 0.0
C2093 C 0.71572 0.05828 0.80176 0.0
C2094 C 0.72475 0.07702 0.81053 0.0
C2095 C 0.7411 0.08213 0.79586 0.0
C2096 C 0.74849 0.06848 0.77246 0.0
C2097 C 0.75701 0.06466 0.60514 0.0
C2098 C 0.77337 0.05964 0.58968 0.0
C2099 C 0.75239 0.05535 0.63522 0.0
C2100 C 0.76402 0.04084 0.651 0.0
C2101 C 0.78061 0.03641 0.63598 0.0
C2102 C 0.785 0.04531 0.60562 0.0
C2103 C 0.75889 0.03058 0.68305 0.0
C2104 C 0.7519 0.04346 0.70815 0.0
C2105 C 0.76107 1.00829 0.68932 0.0
C2106 C 0.76749 0.99327 0.66394 0.0
C2107 C 0.78289 0.98071 0.66942 0.0
C2108 C 0.78924 0.96693 0.64522 0.0
C2109 C 0.78023 0.96545 0.61552 0.0
C2110 C 0.76481 0.9777 0.60999 0.0
C2111 C 0.7584 0.99151 0.6341 0.0
H2112 H 0.7852 0.95481 0.59679 0.0
H2113 H 0.71906 0.0876 0.82865 0.0
H2114 H 0.22446 0.0717 0.83219 0.0
H2115 H 0.22104 0.05526 0.7786 0.0
H2116 H 0.24904 0.99901 0.81261 0.0
H2117 H 0.25306 0.01601 0.86612 0.0
H2118 H 0.25824 1.00473 0.75314 0.0
H2119 H 0.19977 1.00475 0.80384 0.0
H2120 H 0.17266 0.02004 0.82931 0.0
H2121 H 0.16342 0.05907 0.74499 0.0
H2122 H 0.19057 0.04419 0.71914 0.0
H2123 H 0.22967 0.93758 0.62127 0.0
H2124 H 0.23516 0.9538 0.67473 0.0
H2125 H 0.20729 1.01096 0.64407 0.0
H2126 H 0.20143 0.99451 0.59118 0.0
H2127 H 0.1979 1.00403 0.70234 0.0
H2128 H 0.25574 1.00595 0.6519 0.0
H2129 H 0.28243 0.99124 0.62432 0.0
H2130 H 0.29274 0.95016 0.70596 0.0
H2131 H 0.26597 0.96445 0.73387 0.0
C2132 C 0.23021 0.05598 0.82804 0.0
C2133 C 0.23919 0.04529 0.85349 0.0
C2134 C 0.22799 0.04637 0.79738 0.0
C2135 C 0.23425 0.02543 0.79124 0.0
C2136 C 0.2439 0.01506 0.81633 0.0
C2137 C 0.24633 0.02485 0.84701 0.0
C2138 C 0.23068 0.01441 0.75897 0.0
C2139 C 0.24494 1.00435 0.74241 0.0
C2140 C 0.21347 0.01423 0.74384 0.0
C2141 C 0.19733 0.0235 0.7597 0.0
C2142 C 0.19205 0.01672 0.79084 0.0
C2143 C 0.17662 0.02525 0.80528 0.0
C2144 C 0.16632 0.04051 0.78877 0.0
C2145 C 0.17142 0.04726 0.75777 0.0
C2146 C 0.18681 0.03877 0.7432 0.0
C2147 C 0.22466 0.95358 0.62599 0.0
C2148 C 0.21485 0.96458 0.60192 0.0
C2149 C 0.22793 0.96299 0.65664 0.0
C2150 C 0.22188 0.98391 0.6639 0.0
C2151 C 0.21211 0.99484 0.63968 0.0
C2152 C 0.20868 0.98534 0.60928 0.0
C2153 C 0.22545 0.99442 0.69653 0.0
C2154 C 0.21118 1.00438 0.71313 0.0
C2155 C 0.24265 0.99471 0.71151 0.0
C2156 C 0.25875 0.9861 0.69482 0.0
C2157 C 0.26363 0.99367 0.66387 0.0
C2158 C 0.27878 0.98542 0.64819 0.0
C2159 C 0.28924 0.96973 0.66333 0.0
C2160 C 0.28461 0.96229 0.69423 0.0
C2161 C 0.26945 0.97047 0.71 0.0
H2162 H 0.30097 0.96337 0.65116 0.0
H2163 H 0.15442 0.04714 0.80004 0.0
H2164 H 0.52503 0.2286 0.06455 0.0
H2165 H 0.52155 0.24921 0.01359 0.0
H2166 H 0.4665 0.26262 0.03824 0.0
H2167 H 0.47006 0.24307 0.08919 0.0
H2168 H 0.47407 0.24095 0.97325 0.0
H2169 H 0.48987 0.30184 0.04127 0.0
H2170 H 0.50996 0.32175 0.07808 0.0
H2171 H 0.55138 0.32111 1.00556 0.0
H2172 H 0.53159 0.3009 0.96848 0.0
H2173 H 0.4419 0.3025 0.84209 0.0
H2174 H 0.44869 0.28783 0.89538 0.0
H2175 H 0.50332 0.31011 0.88642 0.0
H2176 H 0.49558 0.32754 0.83513 0.0
H2177 H 0.4982 0.31228 0.94362 0.0
H2178 H 0.48443 0.2525 0.87455 0.0
H2179 H 0.46651 0.23036 0.83694 0.0
H2180 H 0.42487 0.22489 0.90854 0.0
H2181 H 0.44233 0.24737 0.94628 0.0
C2182 C 0.51239 0.23653 0.05957 0.0
C2183 C 0.49781 0.23395 0.08101 0.0
C2184 C 0.51034 0.24815 0.03025 0.0
C2185 C 0.49364 0.25726 0.02172 0.0
C2186 C 0.47945 0.25562 0.04393 0.0
C2187 C 0.48155 0.24443 0.07321 0.0
C2188 C 0.49033 0.26735 0.98906 0.0
C2189 C 0.47927 0.2566 0.96674 0.0
C2190 C 0.49749 0.28746 0.98003 0.0
C2191 C 0.50934 0.29962 1.00228 0.0
C2192 C 0.50333 0.30573 0.03331 0.0
C2193 C 0.51464 0.31713 0.05419 0.0
C2194 C 0.53196 0.32263 0.04421 0.0
C2195 C 0.53797 0.3168 0.01328 0.0
C2196 C 0.52671 0.30539 0.99233 0.0
C2197 C 0.45518 0.30489 0.85185 0.0
C2198 C 0.46794 0.3168 0.83435 0.0
C2199 C 0.45931 0.29585 0.88227 0.0
C2200 C 0.47683 0.29694 0.89529 0.0
C2201 C 0.48967 0.3088 0.87761 0.0
C2202 C 0.48524 0.31877 0.84793 0.0
C2203 C 0.48175 0.28593 0.92706 0.0
C2204 C 0.49309 0.29649 0.94948 0.0
C2205 C 0.47519 0.26527 0.93587 0.0
C2206 C 0.46464 0.25178 0.91314 0.0
C2207 C 0.47139 0.2467 0.88217 0.0
C2208 C 0.4613 0.23411 0.86081 0.0
C2209 C 0.44453 0.2263 0.87028 0.0
C2210 C 0.43782 0.23104 0.90115 0.0
C2211 C 0.44781 0.2437 0.92254 0.0
H2212 H 0.43676 0.21651 0.85374 0.0
H2213 H 0.5407 0.33145 0.0604 0.0
H2214 H 0.48084 0.77446 0.11128 0.0
H2215 H 0.48312 0.75613 0.05836 0.0
H2216 H 0.50752 0.81249 0.01704 0.0
H2217 H 0.50512 0.8307 0.06941 0.0
H2218 H 0.4855 0.79574 0.97373 0.0
H2219 H 0.53244 0.768 0.04237 0.0
H2220 H 0.54492 0.75031 0.09098 0.0
H2221 H 0.51459 0.69355 0.06963 0.0
H2222 H 0.50174 0.71103 0.02108 0.0
H2223 H 0.53098 0.75579 0.83532 0.0
H2224 H 0.5225 0.77115 0.88758 0.0
H2225 H 0.5014 0.71004 0.91788 0.0
H2226 H 0.51061 0.69429 0.8657 0.0
H2227 H 0.51894 0.72711 0.96716 0.0
H2228 H 0.47365 0.75434 0.89578 0.0
H2229 H 0.46174 0.77228 0.8469 0.0
H2230 H 0.48917 0.83022 0.87325 0.0
H2231 H 0.50143 0.81254 0.92209 0.0
C2232 C 0.48631 0.78306 0.09071 0.0
C2233 C 0.49276 0.80411 0.09474 0.0
C2234 C 0.48784 0.77248 0.06044 0.0
C2235 C 0.49579 0.78269 0.03339 0.0
C2236 C 0.50139 0.80406 0.03718 0.0
C2237 C 0.49999 0.81452 0.0673 0.0
C2238 C 0.49891 0.77124 1.00146 0.0
C2239 C 0.49292 0.78079 0.97241 0.0
C2240 C 0.50826 0.75144 0.99922 0.0
C2241 C 0.51596 0.74091 0.02834 0.0
C2242 C 0.52832 0.75181 0.04819 0.0
C2243 C 0.53548 0.74181 0.07571 0.0
C2244 C 0.53051 0.72084 0.08345 0.0
C2245 C 0.5184 0.70981 0.06364 0.0
C2246 C 0.51117 0.71975 0.03612 0.0
C2247 C 0.52459 0.7455 0.85305 0.0
C2248 C 0.52165 0.72367 0.84606 0.0
C2249 C 0.51953 0.75443 0.88305 0.0
C2250 C 0.511 0.74198 0.90705 0.0
C2251 C 0.5079 0.72016 0.90005 0.0
C2252 C 0.51307 0.71116 0.86997 0.0
C2253 C 0.50569 0.75173 0.93936 0.0
C2254 C 0.51131 0.7419 0.96847 0.0
C2255 C 0.49602 0.77132 0.94168 0.0
C2256 C 0.48856 0.78206 0.91248 0.0
C2257 C 0.47723 0.77087 0.89105 0.0
C2258 C 0.4704 0.781 0.86337 0.0
C2259 C 0.47472 0.80236 0.85694 0.0
C2260 C 0.48584 0.81367 0.87825 0.0
C2261 C 0.49271 0.80361 0.90596 0.0
H2262 H 0.46943 0.81017 0.83549 0.0
H2263 H 0.53607 0.71312 0.10475 0.0
H2264 H 0.75609 0.58232 0.09835 0.0
H2265 H 0.74723 0.56762 0.15132 0.0
H2266 H 0.79199 0.52378 0.14786 0.0
H2267 H 0.80028 0.53784 0.09491 0.0
H2268 H 0.76605 0.50276 0.17002 0.0
H2269 H 0.79084 0.57048 0.1973 0.0
H2270 H 0.79469 0.60969 0.1951 0.0
H2271 H 0.7405 0.6185 0.22809 0.0
H2272 H 0.73625 0.57929 0.23004 0.0
H2273 H 0.76966 0.50842 0.35796 0.0
H2274 H 0.77194 0.52659 0.30563 0.0
H2275 H 0.73123 0.48482 0.26642 0.0
H2276 H 0.72928 0.46616 0.31903 0.0
H2277 H 0.75361 0.54897 0.26539 0.0
H2278 H 0.74117 0.47263 0.18781 0.0
H2279 H 0.74464 0.4334 0.19254 0.0
H2280 H 0.78571 0.44193 0.26467 0.0
H2281 H 0.78261 0.48116 0.2601 0.0
C2282 C 0.76409 0.5696 0.10895 0.0
C2283 C 0.7791 0.56142 0.0922 0.0
C2284 C 0.75903 0.5612 0.13942 0.0
C2285 C 0.76896 0.54455 0.15416 0.0
C2286 C 0.78392 0.53646 0.13735 0.0
C2287 C 0.7888 0.54467 0.10692 0.0
C2288 C 0.76394 0.53538 0.18684 0.0
C2289 C 0.76318 0.51296 0.1907 0.0
C2290 C 0.76067 0.5484 0.21449 0.0
C2291 C 0.76315 0.57196 0.21345 0.0
C2292 C 0.7797 0.58078 0.20385 0.0
C2293 C 0.78196 0.603 0.20268 0.0
C2294 C 0.76783 0.61658 0.21136 0.0
C2295 C 0.75142 0.60795 0.22131 0.0
C2296 C 0.74907 0.58573 0.22246 0.0
C2297 C 0.76089 0.50338 0.33839 0.0
C2298 C 0.7493 0.48577 0.34274 0.0
C2299 C 0.76221 0.51383 0.30833 0.0
C2300 C 0.75202 0.50698 0.28153 0.0
C2301 C 0.73952 0.49028 0.28638 0.0
C2302 C 0.73821 0.47975 0.31664 0.0
C2303 C 0.75553 0.51639 0.24838 0.0
C2304 C 0.75611 0.53881 0.24449 0.0
C2305 C 0.75953 0.50338 0.22105 0.0
C2306 C 0.76146 0.4798 0.22391 0.0
C2307 C 0.75094 0.46611 0.20465 0.0
C2308 C 0.75284 0.44388 0.2073 0.0
C2309 C 0.76533 0.43517 0.22899 0.0
C2310 C 0.77598 0.44868 0.24799 0.0
C2311 C 0.77413 0.47091 0.24541 0.0
H2312 H 0.76678 0.41796 0.231 0.0
H2313 H 0.7696 0.63378 0.21046 0.0
H2314 H 0.22498 0.52885 0.37094 0.0
H2315 H 0.22225 0.51114 0.31833 0.0
H2316 H 0.27085 0.54194 0.2861 0.0
H2317 H 0.27368 0.55972 0.33934 0.0
H2318 H 0.2161 0.52726 0.26173 0.0
H2319 H 0.28945 0.5122 0.22261 0.0
H2320 H 0.31894 0.50453 0.24738 0.0
H2321 H 0.29296 0.47637 0.3301 0.0
H2322 H 0.26334 0.48363 0.30564 0.0
H2323 H 0.21675 0.50337 0.09325 0.0
H2324 H 0.22459 0.51854 0.14615 0.0
H2325 H 0.23971 0.45579 0.18037 0.0
H2326 H 0.23169 0.44046 0.12725 0.0
H2327 H 0.26288 0.48546 0.20399 0.0
H2328 H 0.19907 0.47824 0.19888 0.0
H2329 H 0.16882 0.48332 0.17594 0.0
H2330 H 0.17384 0.55142 0.18643 0.0
H2331 H 0.20441 0.54688 0.20858 0.0
C2332 C 0.23528 0.53167 0.35287 0.0
C2333 C 0.24955 0.54584 0.35959 0.0
C2334 C 0.23364 0.52156 0.32254 0.0
C2335 C 0.24623 0.52512 0.29767 0.0
C2336 C 0.26096 0.53862 0.30468 0.0
C2337 C 0.26264 0.54876 0.33529 0.0
C2338 C 0.24324 0.51544 0.26435 0.0
C2339 C 0.22644 0.51823 0.24918 0.0
C2340 C 0.25647 0.5033 0.24762 0.0
C2341 C 0.27419 0.49869 0.26244 0.0
C2342 C 0.29004 0.50432 0.24604 0.0
C2343 C 0.30677 0.50005 0.26003 0.0
C2344 C 0.30782 0.49004 0.29035 0.0
C2345 C 0.29213 0.4842 0.30668 0.0
C2346 C 0.27537 0.48842 0.29279 0.0
C2347 C 0.22165 0.49271 0.11201 0.0
C2348 C 0.22319 0.47055 0.10594 0.0
C2349 C 0.22622 0.50147 0.1424 0.0
C2350 C 0.2325 0.48838 0.16787 0.0
C2351 C 0.23486 0.46636 0.16141 0.0
C2352 C 0.23025 0.45756 0.13091 0.0
C2353 C 0.23584 0.49756 0.20135 0.0
C2354 C 0.25264 0.49466 0.2165 0.0
C2355 C 0.22253 0.50941 0.21835 0.0
C2356 C 0.20413 0.51222 0.20509 0.0
C2357 C 0.19382 0.49432 0.19603 0.0
C2358 C 0.1766 0.49709 0.1832 0.0
C2359 C 0.16942 0.51763 0.17976 0.0
C2360 C 0.17944 0.5355 0.1891 0.0
C2361 C 0.19674 0.53285 0.20173 0.0
H2362 H 0.1561 0.51965 0.16975 0.0
H2363 H 0.32079 0.48676 0.30114 0.0
H2364 H 0.48067 0.8424 0.36467 0.0
H2365 H 0.48936 0.82713 0.41734 0.0
H2366 H 0.46988 0.76531 0.38661 0.0
H2367 H 0.46088 0.78057 0.33448 0.0
H2368 H 0.45926 0.77101 0.44492 0.0
H2369 H 0.51684 0.77971 0.39412 0.0
H2370 H 0.5412 0.79946 0.36682 0.0
H2371 H 0.54598 0.84128 0.44923 0.0
H2372 H 0.52148 0.82193 0.47686 0.0
H2373 H 0.49535 0.70457 0.56574 0.0
H2374 H 0.4919 0.72278 0.51352 0.0
H2375 H 0.50568 0.78289 0.55862 0.0
H2376 H 0.50927 0.76446 0.6113 0.0
H2377 H 0.51923 0.78026 0.49537 0.0
H2378 H 0.46242 0.76947 0.54705 0.0
H2379 H 0.43859 0.74864 0.57396 0.0
H2380 H 0.4325 0.70986 0.48848 0.0
H2381 H 0.45658 0.73015 0.46128 0.0
C2382 C 0.47839 0.8255 0.36899 0.0
C2383 C 0.47002 0.81281 0.34505 0.0
C2384 C 0.48344 0.8167 0.39926 0.0
C2385 C 0.48051 0.79485 0.40637 0.0
C2386 C 0.47233 0.78218 0.38223 0.0
C2387 C 0.4672 0.79097 0.35216 0.0
C2388 C 0.48539 0.78517 0.43897 0.0
C2389 C 0.47249 0.77287 0.45557 0.0
C2390 C 0.50246 0.7879 0.45392 0.0
C2391 C 0.5172 0.79952 0.4374 0.0
C2392 C 0.523 0.79322 0.40632 0.0
C2393 C 0.53684 0.80432 0.3908 0.0
C2394 C 0.5451 0.82165 0.40624 0.0
C2395 C 0.53955 0.82788 0.43728 0.0
C2396 C 0.5257 0.81684 0.45288 0.0
C2397 C 0.49815 0.72158 0.56442 0.0
C2398 C 0.50272 0.73298 0.5928 0.0
C2399 C 0.49599 0.73206 0.53449 0.0
C2400 C 0.49812 0.7544 0.5319 0.0
C2401 C 0.50385 0.76569 0.55976 0.0
C2402 C 0.50606 0.75511 0.58991 0.0
C2403 C 0.4932 0.76581 0.50075 0.0
C2404 C 0.50603 0.77847 0.4846 0.0
C2405 C 0.47608 0.76333 0.48603 0.0
C2406 C 0.46145 0.75121 0.50224 0.0
C2407 C 0.45611 0.75638 0.53408 0.0
C2408 C 0.44255 0.74467 0.54938 0.0
C2409 C 0.43407 0.7279 0.53297 0.0
C2410 C 0.43911 0.72283 0.50119 0.0
C2411 C 0.45272 0.73443 0.48582 0.0
H2412 H 0.42356 0.71886 0.54486 0.0
H2413 H 0.55581 0.83023 0.39419 0.0
H2414 H 0.48765 0.27637 0.59883 0.0
H2415 H 0.49064 0.25566 0.54813 0.0
H2416 H 0.50982 0.31215 0.49891 0.0
H2417 H 0.50661 0.33274 0.54901 0.0
H2418 H 0.48879 0.29152 0.45917 0.0
H2419 H 0.53863 0.27123 0.52634 0.0
H2420 H 0.55365 0.2572 0.57535 0.0
H2421 H 0.52656 0.19698 0.56356 0.0
H2422 H 0.51121 0.21077 0.51464 0.0
H2423 H 0.53693 0.25007 0.32507 0.0
H2424 H 0.52863 0.26598 0.37718 0.0
H2425 H 0.50551 0.20594 0.40742 0.0
H2426 H 0.51404 0.18979 0.35484 0.0
H2427 H 0.52591 0.22549 0.4574 0.0
H2428 H 0.47834 0.24625 0.38554 0.0
H2429 H 0.46523 0.26128 0.33543 0.0
H2430 H 0.48995 0.322 0.35547 0.0
H2431 H 0.50342 0.30724 0.40548 0.0
C2432 C 0.49216 0.28444 0.57703 0.0
C2433 C 0.49691 0.30629 0.57822 0.0
C2434 C 0.49411 0.27251 0.54802 0.0
C2435 C 0.50078 0.28211 0.51937 0.0
C2436 C 0.50472 0.30414 0.52035 0.0
C2437 C 0.5029 0.31596 0.54921 0.0
C2438 C 0.50403 0.26947 0.48851 0.0
C2439 C 0.497 0.27716 0.45895 0.0
C2440 C 0.51449 0.25041 0.48766 0.0
C2441 C 0.52359 0.24212 0.51712 0.0
C2442 C 0.53575 0.25506 0.53438 0.0
C2443 C 0.54435 0.24714 0.5621 0.0
C2444 C 0.54101 0.22624 0.57264 0.0
C2445 C 0.5291 0.21319 0.55541 0.0
C2446 C 0.52045 0.22105 0.52769 0.0
C2447 C 0.53026 0.2401 0.3429 0.0
C2448 C 0.52641 0.21853 0.33577 0.0
C2449 C 0.52534 0.24933 0.37273 0.0
C2450 C 0.5163 0.23733 0.39655 0.0
C2451 C 0.51248 0.21565 0.38965 0.0
C2452 C 0.51728 0.20643 0.35947 0.0
C2453 C 0.51079 0.24771 0.4282 0.0
C2454 C 0.51747 0.23967 0.45779 0.0
C2455 C 0.50017 0.26661 0.42908 0.0
C2456 C 0.492 0.27558 0.39914 0.0
C2457 C 0.48108 0.26277 0.37915 0.0
C2458 C 0.47357 0.27124 0.35078 0.0
C2459 C 0.47678 0.29257 0.34224 0.0
C2460 C 0.48748 0.30548 0.3621 0.0
C2461 C 0.49504 0.29707 0.39049 0.0
H2462 H 0.47096 0.2991 0.32026 0.0
H2463 H 0.54768 0.22013 0.59409 0.0
H2464 H 0.07605 0.13927 0.83956 0.0
H2465 H 0.09304 0.11176 0.86842 0.0
H2466 H 0.10492 0.15701 0.94472 0.0
H2467 H 0.087 0.18434 0.91649 0.0
H2468 H 0.128 0.12206 0.87109 0.0
H2469 H 0.12182 0.12788 1.01129 0.0
H2470 H 0.09815 0.13303 0.05242 0.0
H2471 H 0.05913 0.10612 0.98741 0.0
H2472 H 0.0826 0.10041 0.94612 0.0
H2473 H 0.20833 0.10726 0.94885 0.0
H2474 H 0.17744 0.12025 0.95132 0.0
H2475 H 0.15793 0.05575 0.93924 0.0
H2476 H 0.18896 0.0426 0.93611 0.0
H2477 H 0.13631 0.09475 0.98334 0.0
H2478 H 0.15951 0.06835 0.87724 0.0
H2479 H 0.18454 0.06566 0.83823 0.0
H2480 H 0.18726 0.13423 0.83234 0.0
H2481 H 0.16297 0.13736 0.87283 0.0
C2482 C 0.08154 0.14297 0.8633 0.0
C2483 C 0.08042 0.1638 0.87587 0.0
C2484 C 0.09131 0.12731 0.87968 0.0
C2485 C 0.10054 0.13246 0.90834 0.0
C2486 C 0.09782 0.15265 0.92273 0.0
C2487 C 0.08761 0.16826 0.90662 0.0
C2488 C 0.11588 0.11887 0.91845 0.0
C2489 C 0.12949 0.1156 0.89542 0.0
C2490 C 0.11813 0.11104 0.95047 0.0
C2491 C 0.10399 0.11387 0.97549 0.0
C2492 C 0.10822 0.12291 1.00584 0.0
C2493 C 0.09483 0.12595 0.02918 0.0
C2494 C 0.07714 0.11996 0.0225 0.0
C2495 C 0.07282 0.11082 0.99252 0.0
C2496 C 0.08617 0.1077 0.96912 0.0
C2497 C 0.19749 0.09571 0.94813 0.0
C2498 C 0.20098 0.07396 0.94196 0.0
C2499 C 0.17985 0.10315 0.94966 0.0
C2500 C 0.1655 0.08893 0.94541 0.0
C2501 C 0.16889 0.06689 0.94285 0.0
C2502 C 0.18657 0.05945 0.94077 0.0
C2503 C 0.1479 0.09765 0.93564 0.0
C2504 C 0.13425 0.10049 0.95874 0.0
C2505 C 0.14537 0.10501 0.90351 0.0
C2506 C 0.15963 0.10308 0.87847 0.0
C2507 C 0.16563 0.08285 0.86802 0.0
C2508 C 0.17965 0.08124 0.84558 0.0
C2509 C 0.18742 0.09974 0.83269 0.0
C2510 C 0.18125 0.11991 0.84236 0.0
C2511 C 0.16743 0.12161 0.8652 0.0
H2512 H 0.1982 0.09844 0.8152 0.0
H2513 H 0.06679 0.12238 0.04057 0.0
H2514 H 0.79795 0.97936 0.90735 0.0
H2515 H 0.82916 0.96771 0.91363 0.0
H2516 H 0.81099 0.9044 0.93983 0.0
H2517 H 0.77987 0.91585 0.93337 0.0
H2518 H 0.84084 0.9158 0.97422 0.0
H2519 H 0.81944 0.91762 0.86304 0.0
H2520 H 0.80782 0.93419 0.81289 0.0
H2521 H 0.85417 0.97487 0.80801 0.0
H2522 H 0.86587 0.9589 0.85865 0.0
H2523 H 0.88361 0.83355 0.89323 0.0
H2524 H 0.86713 0.86153 0.92178 0.0
H2525 H 0.90761 0.90765 0.89491 0.0
H2526 H 0.92451 0.87922 0.86688 0.0
H2527 H 0.87371 0.91565 0.86945 0.0
H2528 H 0.89833 0.90365 0.97343 0.0
H2529 H 0.9095 0.88268 0.02 0.0
H2530 H 0.85688 0.85652 0.03493 0.0
H2531 H 0.84542 0.87706 0.98816 0.0
C2532 C 0.80064 0.96302 0.91481 0.0
C2533 C 0.78649 0.9484 0.91937 0.0
C2534 C 0.81844 0.95646 0.91859 0.0
C2535 C 0.82236 0.93515 0.92683 0.0
C2536 C 0.80824 0.92095 0.93358 0.0
C2537 C 0.79045 0.9275 0.92983 0.0
C2538 C 0.84089 0.92673 0.92461 0.0
C2539 C 0.84816 0.91587 0.95144 0.0
C2540 C 0.85062 0.92742 0.89507 0.0
C2541 C 0.84333 0.93742 0.86508 0.0
C2542 C 0.827 0.93038 0.85163 0.0
C2543 C 0.82041 0.93963 0.82306 0.0
C2544 C 0.83018 0.95569 0.8074 0.0
C2545 C 0.84656 0.96253 0.82028 0.0
C2546 C 0.85315 0.95343 0.84897 0.0
C2547 C 0.88938 0.84946 0.89472 0.0
C2548 C 0.90521 0.8544 0.87801 0.0
C2549 C 0.88002 0.86542 0.91116 0.0
C2550 C 0.88619 0.88665 0.91055 0.0
C2551 C 0.90277 0.8913 0.89593 0.0
C2552 C 0.9124 0.87511 0.88004 0.0
C2553 C 0.87333 0.90389 0.91866 0.0
C2554 C 0.86695 0.91639 0.89279 0.0
C2555 C 0.86427 0.9043 0.94881 0.0
C2556 C 0.87101 0.89195 0.9772 0.0
C2557 C 0.88914 0.89335 0.98652 0.0
C2558 C 0.89553 0.88154 0.01298 0.0
C2559 C 0.88391 0.86828 0.03042 0.0
C2560 C 0.86586 0.86683 0.02144 0.0
C2561 C 0.8594 0.8786 0.99499 0.0
H2562 H 0.88888 0.85914 0.05089 0.0
H2563 H 0.82512 0.96272 0.78517 0.0
H2564 H 0.03601 0.33 0.21446 0.0
H2565 H 0.06503 0.347 0.22634 0.0
H2566 H 0.06713 0.37122 0.12824 0.0
H2567 H 0.03826 0.35429 0.11624 0.0
H2568 H 0.09952 0.34231 0.19368 0.0
H2569 H 0.07833 0.42365 0.13514 0.0
H2570 H 0.05079 0.44534 0.12996 0.0
H2571 H 0.02965 0.41668 0.21668 0.0
H2572 H 0.05716 0.39513 0.22275 0.0
H2573 H 0.16376 0.39638 0.1054 0.0
H2574 H 0.14186 0.37586 0.13603 0.0
H2575 H 0.13313 0.43005 0.19948 0.0
H2576 H 0.15412 0.45108 0.16709 0.0
H2577 H 0.10388 0.42073 0.17572 0.0
H2578 H 0.14628 0.37743 0.22851 0.0
H2579 H 0.17347 0.35541 0.23594 0.0
H2580 H 0.15295 0.30873 0.16893 0.0
H2581 H 0.12576 0.33058 0.16069 0.0
C2582 C 0.04271 0.339 0.19551 0.0
C2583 C 0.03494 0.341 0.16448 0.0
C2584 C 0.05927 0.34851 0.20227 0.0
C2585 C 0.06804 0.36041 0.17822 0.0
C2586 C 0.06042 0.36217 0.14713 0.0
C2587 C 0.04402 0.35248 0.14027 0.0
C2588 C 0.08502 0.3716 0.18518 0.0
C2589 C 0.10063 0.35949 0.19024 0.0
C2590 C 0.08615 0.39408 0.18217 0.0
C2591 C 0.06979 0.40762 0.17924 0.0
C2592 C 0.06787 0.42208 0.15325 0.0
C2593 C 0.05223 0.43431 0.15009 0.0
C2594 C 0.0384 0.43225 0.17279 0.0
C2595 C 0.04026 0.4181 0.19888 0.0
C2596 C 0.05589 0.40589 0.20221 0.0
C2597 C 0.15765 0.40365 0.1266 0.0
C2598 C 0.16039 0.42537 0.13368 0.0
C2599 C 0.1452 0.39181 0.14441 0.0
C2600 C 0.13571 0.40136 0.17018 0.0
C2601 C 0.14014 0.42235 0.17958 0.0
C2602 C 0.15221 0.43436 0.16117 0.0
C2603 C 0.11888 0.39132 0.18199 0.0
C2604 C 0.10308 0.40366 0.18041 0.0
C2605 C 0.11766 0.36912 0.18895 0.0
C2606 C 0.13393 0.3557 0.19399 0.0
C2607 C 0.14758 0.36252 0.21524 0.0
C2608 C 0.16301 0.35005 0.2196 0.0
C2609 C 0.16494 0.33069 0.20292 0.0
C2610 C 0.15142 0.32372 0.18189 0.0
C2611 C 0.13597 0.33612 0.17744 0.0
H2612 H 0.1769 0.32108 0.2063 0.0
H2613 H 0.02631 0.44172 0.17027 0.0
H2614 H 0.94559 0.69773 0.14522 0.0
H2615 H 0.91838 0.67903 0.16187 0.0
H2616 H 0.94994 0.62401 0.18988 0.0
H2617 H 0.9773 0.6425 0.1724 0.0
H2618 H 0.92188 0.61342 0.15206 0.0
H2619 H 0.93002 0.65369 0.24839 0.0
H2620 H 0.93634 0.68574 0.28146 0.0
H2621 H 0.88906 0.7164 0.24389 0.0
H2622 H 0.88258 0.68468 0.21019 0.0
H2623 H 0.84129 0.56634 0.17192 0.0
H2624 H 0.8654 0.58266 0.20354 0.0
H2625 H 0.85464 0.64361 0.15816 0.0
H2626 H 0.83074 0.62733 0.12613 0.0
H2627 H 0.87437 0.64571 0.22117 0.0
H2628 H 0.8768 0.61502 0.11061 0.0
H2629 H 0.87009 0.58631 0.07124 0.0
H2630 H 0.89714 0.5406 0.1321 0.0
H2631 H 0.90387 0.56914 0.17203 0.0
C2632 C 0.94673 0.68157 0.1546 0.0
C2633 C 0.96354 0.67149 0.15723 0.0
C2634 C 0.93122 0.67106 0.16471 0.0
C2635 C 0.93221 0.65033 0.17781 0.0
C2636 C 0.94895 0.64012 0.18025 0.0
C2637 C 0.96452 0.65066 0.17018 0.0
C2638 C 0.91549 0.63872 0.18576 0.0
C2639 C 0.91177 0.62005 0.16818 0.0
C2640 C 0.90214 0.64768 0.2062 0.0
C2641 C 0.90584 0.66678 0.22667 0.0
C2642 C 0.92101 0.66731 0.24703 0.0
C2643 C 0.92462 0.68542 0.26591 0.0
C2644 C 0.91311 0.7031 0.26477 0.0
C2645 C 0.89795 0.70269 0.24478 0.0
C2646 C 0.89429 0.68462 0.22582 0.0
C2647 C 0.84335 0.58349 0.17011 0.0
C2648 C 0.83468 0.5955 0.14587 0.0
C2649 C 0.85711 0.5928 0.18831 0.0
C2650 C 0.86205 0.61415 0.18245 0.0
C2651 C 0.85107 0.62706 0.16284 0.0
C2652 C 0.83746 0.61771 0.14439 0.0
C2653 C 0.88088 0.62078 0.18709 0.0
C2654 C 0.88489 0.63856 0.20654 0.0
C2655 C 0.89456 0.61128 0.16804 0.0
C2656 C 0.89066 0.59408 0.14433 0.0
C2657 C 0.88122 0.59881 0.11563 0.0
C2658 C 0.87743 0.58261 0.09324 0.0
C2659 C 0.88318 0.56166 0.09919 0.0
C2660 C 0.8927 0.55685 0.12758 0.0
C2661 C 0.8965 0.57303 0.1501 0.0
H2662 H 0.88036 0.54921 0.08165 0.0
H2663 H 0.91594 0.71712 0.2794 0.0
H2664 H 0.21189 0.60802 0.3856 0.0
H2665 H 0.18326 0.62578 0.39657 0.0
H2666 H 0.18254 0.59871 0.49302 0.0
H2667 H 0.21143 0.58092 0.48215 0.0
H2668 H 0.14989 0.59385 0.4585 0.0
H2669 H 0.18859 0.6489 0.49132 0.0
H2670 H 0.21483 0.67291 0.48954 0.0
H2671 H 0.19534 0.70092 0.40098 0.0
H2672 H 0.16913 0.67685 0.40189 0.0
H2673 H 0.08913 0.69651 0.42014 0.0
H2674 H 0.11006 0.67815 0.45675 0.0
H2675 H 0.11082 0.62391 0.39157 0.0
H2676 H 0.08969 0.64203 0.35593 0.0
H2677 H 0.14228 0.67165 0.43785 0.0
H2678 H 0.12593 0.57985 0.42264 0.0
H2679 H 0.09961 0.55623 0.42766 0.0
H2680 H 0.07366 0.60244 0.48907 0.0
H2681 H 0.09994 0.62623 0.48488 0.0
C2682 C 0.20563 0.60588 0.40913 0.0
C2683 C 0.21379 0.59311 0.43301 0.0
C2684 C 0.18938 0.61613 0.41548 0.0
C2685 C 0.18092 0.61369 0.44571 0.0
C2686 C 0.18896 0.60086 0.46963 0.0
C2687 C 0.20541 0.59081 0.46343 0.0
C2688 C 0.16329 0.62398 0.45112 0.0
C2689 C 0.14811 0.6109 0.45451 0.0
C2690 C 0.16114 0.64634 0.44744 0.0
C2691 C 0.17686 0.661 0.44668 0.0
C2692 C 0.18994 0.66008 0.47134 0.0
C2693 C 0.20481 0.67372 0.4705 0.0
C2694 C 0.20675 0.68843 0.44517 0.0
C2695 C 0.19381 0.68954 0.42062 0.0
C2696 C 0.17892 0.67592 0.42133 0.0
C2697 C 0.0931 0.68028 0.41469 0.0
C2698 C 0.08796 0.67076 0.38527 0.0
C2699 C 0.10515 0.66982 0.43542 0.0
C2700 C 0.11212 0.64963 0.42695 0.0
C2701 C 0.10549 0.63928 0.3991 0.0
C2702 C 0.09346 0.64973 0.37852 0.0
C2703 C 0.1287 0.64128 0.44256 0.0
C2704 C 0.14383 0.65472 0.44307 0.0
C2705 C 0.13074 0.61932 0.45048 0.0
C2706 C 0.11497 0.60487 0.45342 0.0
C2707 C 0.1147 0.58492 0.43748 0.0
C2708 C 0.09975 0.57151 0.4401 0.0
C2709 C 0.08497 0.57784 0.45866 0.0
C2710 C 0.08511 0.59758 0.47466 0.0
C2711 C 0.10003 0.61105 0.47212 0.0
H2712 H 0.07341 0.56744 0.46063 0.0
H2713 H 0.21826 0.69899 0.44456 0.0
H2714 H 0.92861 0.37533 0.36986 0.0
H2715 H 0.91219 0.40447 0.39701 0.0
H2716 H 0.87126 0.3595 0.42611 0.0
H2717 H 0.88729 0.3308 0.39841 0.0
H2718 H 0.87872 0.41212 0.37038 0.0
H2719 H 0.84918 0.37681 0.49071 0.0
H2720 H 0.86022 0.35778 0.53922 0.0
H2721 H 0.91296 0.38353 0.52398 0.0
H2722 H 0.9022 0.403 0.47564 0.0
H2723 H 0.78409 0.41354 0.42937 0.0
H2724 H 0.81514 0.40206 0.43725 0.0
H2725 H 0.83371 0.46517 0.4109 0.0
H2726 H 0.80263 0.47688 0.40336 0.0
H2727 H 0.84457 0.41486 0.47372 0.0
H2728 H 0.87093 0.45513 0.35692 0.0
H2729 H 0.85957 0.47039 0.30551 0.0
H2730 H 0.8131 0.42992 0.31082 0.0
H2731 H 0.82445 0.41396 0.36163 0.0
C2732 C 0.91654 0.37163 0.38342 0.0
C2733 C 0.90904 0.35104 0.38212 0.0
C2734 C 0.90719 0.38822 0.39881 0.0
C2735 C 0.89056 0.38411 0.41363 0.0
C2736 C 0.88419 0.36299 0.41529 0.0
C2737 C 0.89328 0.34661 0.39934 0.0
C2738 C 0.87776 0.40166 0.42026 0.0
C2739 C 0.87168 0.41345 0.39338 0.0
C2740 C 0.86837 0.40286 0.45002 0.0
C2741 C 0.87485 0.3914 0.47944 0.0
C2742 C 0.86309 0.3786 0.49782 0.0
C2743 C 0.86932 0.36767 0.52528 0.0
C2744 C 0.88728 0.36943 0.53467 0.0
C2745 C 0.89906 0.38214 0.51665 0.0
C2746 C 0.8929 0.3931 0.48918 0.0
C2747 C 0.79475 0.4251 0.42594 0.0
C2748 C 0.79097 0.44598 0.41521 0.0
C2749 C 0.81248 0.41856 0.43058 0.0
C2750 C 0.82667 0.43275 0.42441 0.0
C2751 C 0.82292 0.45397 0.41552 0.0
C2752 C 0.80519 0.46053 0.41091 0.0
C2753 C 0.84522 0.4244 0.42348 0.0
C2754 C 0.85218 0.41436 0.45127 0.0
C2755 C 0.8553 0.42442 0.39433 0.0
C2756 C 0.84834 0.43376 0.36356 0.0
C2757 C 0.85828 0.44951 0.34712 0.0
C2758 C 0.85187 0.45823 0.31802 0.0
C2759 C 0.83554 0.45128 0.30508 0.0
C2760 C 0.82566 0.43546 0.32105 0.0
C2761 C 0.83209 0.42655 0.34998 0.0
H2762 H 0.83061 0.45804 0.28255 0.0
H2763 H 0.89207 0.36095 0.55592 0.0
H2764 H 0.03883 0.84692 0.61097 0.0
H2765 H 0.06982 0.8573 0.62154 0.0
H2766 H 0.06672 0.8292 0.71726 0.0
H2767 H 0.03531 0.81938 0.70698 0.0
H2768 H 0.08261 0.86525 0.72184 0.0
H2769 H 0.09295 0.8054 0.65587 0.0
H2770 H 0.089 0.78026 0.61022 0.0
H2771 H 0.10491 0.8292 0.54286 0.0
H2772 H 0.10874 0.85476 0.58802 0.0
H2773 H 0.17394 0.90221 0.63702 0.0
H2774 H 0.15719 0.87345 0.66429 0.0
H2775 H 0.11263 0.91681 0.67841 0.0
H2776 H 0.12923 0.94513 0.65158 0.0
H2777 H 0.12889 0.85848 0.63588 0.0
H2778 H 0.08471 0.90358 0.73344 0.0
H2779 H 0.08979 0.92714 0.78055 0.0
H2780 H 0.1439 0.90404 0.78882 0.0
H2781 H 0.13911 0.88004 0.74207 0.0
C2782 C 0.04481 0.84287 0.63419 0.0
C2783 C 0.03476 0.83236 0.65815 0.0
C2784 C 0.06258 0.84859 0.64013 0.0
C2785 C 0.07081 0.84349 0.66989 0.0
C2786 C 0.06072 0.83311 0.69402 0.0
C2787 C 0.0428 0.82763 0.68822 0.0
C2788 C 0.0895 0.85057 0.67613 0.0
C2789 C 0.09287 0.86353 0.70335 0.0
C2790 C 0.10327 0.84734 0.65292 0.0
C2791 C 0.10116 0.83202 0.62547 0.0
C2792 C 0.09555 0.81085 0.63133 0.0
C2793 C 0.09333 0.79652 0.60552 0.0
C2794 C 0.09673 0.80313 0.57368 0.0
C2795 C 0.10234 0.82409 0.56756 0.0
C2796 C 0.10459 0.83849 0.59329 0.0
C2797 C 0.16091 0.90573 0.64741 0.0
C2798 C 0.1527 0.92568 0.64208 0.0
C2799 C 0.15133 0.88932 0.66284 0.0
C2800 C 0.13363 0.89291 0.67345 0.0
C2801 C 0.12634 0.91362 0.67108 0.0
C2802 C 0.13578 0.92982 0.65546 0.0
C2803 C 0.12123 0.87483 0.67989 0.0
C2804 C 0.11898 0.85961 0.6551 0.0
C2805 C 0.10869 0.87565 0.70566 0.0
C2806 C 0.11152 0.88992 0.73417 0.0
C2807 C 0.09765 0.90331 0.74547 0.0
C2808 C 0.1005 0.91682 0.77208 0.0
C2809 C 0.11716 0.91709 0.78767 0.0
C2810 C 0.13101 0.90384 0.77669 0.0
C2811 C 0.12824 0.8903 0.7501 0.0
H2812 H 0.11933 0.92757 0.80825 0.0
H2813 H 0.09501 0.79199 0.55377 0.0
H2814 H 0.83541 0.133 0.59474 0.0
H2815 H 0.85655 0.1515 0.62987 0.0
H2816 H 0.85216 0.10071 0.70065 0.0
H2817 H 0.83085 0.08201 0.66512 0.0
H2818 H 0.86473 0.16623 0.68998 0.0
H2819 H 0.89561 0.0852 0.71529 0.0
H2820 H 0.89301 0.04721 0.69896 0.0
H2821 H 0.87665 0.06641 0.60318 0.0
H2822 H 0.87948 0.10446 0.61884 0.0
H2823 H 0.95829 0.19189 0.71532 0.0
H2824 H 0.92938 0.17483 0.72757 0.0
H2825 H 0.92834 0.14756 0.63123 0.0
H2826 H 0.95718 0.16427 0.61906 0.0
H2827 H 0.91779 0.11873 0.67788 0.0
H2828 H 0.90646 0.19316 0.64616 0.0
H2829 H 0.90946 0.23228 0.65292 0.0
H2830 H 0.88712 0.22786 0.74887 0.0
H2831 H 0.88419 0.18864 0.74274 0.0
C2832 C 0.83832 0.12627 0.61845 0.0
C2833 C 0.83193 0.10594 0.62703 0.0
C2834 C 0.85033 0.13691 0.63866 0.0
C2835 C 0.85626 0.1272 0.6675 0.0
C2836 C 0.84787 0.10834 0.6783 0.0
C2837 C 0.8357 0.09769 0.65804 0.0
C2838 C 0.87382 0.13402 0.68065 0.0
C2839 C 0.87631 0.15571 0.68848 0.0
C2840 C 0.88897 0.12036 0.67821 0.0
C2841 C 0.88748 0.09758 0.6684 0.0
C2842 C 0.89148 0.08127 0.69076 0.0
C2843 C 0.89 0.05975 0.68161 0.0
C2844 C 0.88459 0.0544 0.6501 0.0
C2845 C 0.88079 0.07057 0.6276 0.0
C2846 C 0.88236 0.0921 0.63658 0.0
C2847 C 0.95195 0.18201 0.69697 0.0
C2848 C 0.95986 0.17946 0.66617 0.0
C2849 C 0.93548 0.17235 0.70398 0.0
C2850 C 0.92679 0.15995 0.68032 0.0
C2851 C 0.93492 0.15697 0.64989 0.0
C2852 C 0.95127 0.16668 0.64284 0.0
C2853 C 0.90868 0.15107 0.68581 0.0
C2854 C 0.90619 0.129 0.68146 0.0
C2855 C 0.89359 0.16449 0.69053 0.0
C2856 C 0.89535 0.188 0.6942 0.0
C2857 C 0.90234 0.20053 0.66879 0.0
C2858 C 0.90399 0.22271 0.67248 0.0
C2859 C 0.89855 0.23254 0.70136 0.0
C2860 C 0.89138 0.22021 0.72656 0.0
C2861 C 0.88972 0.19802 0.723 0.0
H2862 H 0.89983 0.24972 0.70417 0.0
H2863 H 0.88339 0.03774 0.64309 0.0
H2864 H 0.70882 0.08837 0.46288 0.0
H2865 H 0.68073 0.10658 0.47702 0.0
H2866 H 0.67634 0.13007 0.37872 0.0
H2867 H 0.70456 0.11242 0.36469 0.0
H2868 H 0.66806 0.16096 0.42273 0.0
H2869 H 0.65376 0.0856 0.4033 0.0
H2870 H 0.65627 0.04687 0.41452 0.0
H2871 H 0.63908 0.05736 0.51283 0.0
H2872 H 0.63667 0.09622 0.50224 0.0
H2873 H 0.5793 0.14488 0.36247 0.0
H2874 H 0.60189 0.12765 0.39591 0.0
H2875 H 0.60546 0.18435 0.45568 0.0
H2876 H 0.58314 0.20205 0.4211 0.0
H2877 H 0.61517 0.11677 0.45217 0.0
H2878 H 0.64936 0.19641 0.46287 0.0
H2879 H 0.64636 0.23408 0.44521 0.0
H2880 H 0.62332 0.21344 0.35483 0.0
H2881 H 0.62647 0.17563 0.3718 0.0
C2882 C 0.70196 0.09765 0.44441 0.0
C2883 C 0.70884 0.09892 0.41261 0.0
C2884 C 0.68589 0.10794 0.45251 0.0
C2885 C 0.67645 0.11963 0.42892 0.0
C2886 C 0.68347 0.12121 0.39734 0.0
C2887 C 0.69948 0.11092 0.38924 0.0
C2888 C 0.65882 0.1295 0.43615 0.0
C2889 C 0.65654 0.1514 0.42981 0.0
C2890 C 0.64385 0.1171 0.44581 0.0
C2891 C 0.64528 0.0938 0.45213 0.0
C2892 C 0.65066 0.07965 0.42738 0.0
C2893 C 0.65204 0.05769 0.4336 0.0
C2894 C 0.6479 0.04967 0.4644 0.0
C2895 C 0.64233 0.0636 0.48901 0.0
C2896 C 0.64095 0.08559 0.48292 0.0
C2897 C 0.58428 0.15334 0.38362 0.0
C2898 C 0.58004 0.17498 0.38858 0.0
C2899 C 0.5972 0.14343 0.40291 0.0
C2900 C 0.60595 0.15505 0.42747 0.0
C2901 C 0.59924 0.17532 0.43623 0.0
C2902 C 0.58638 0.18538 0.41659 0.0
C2903 C 0.62423 0.148 0.43707 0.0
C2904 C 0.62678 0.12661 0.44669 0.0
C2905 C 0.63946 0.16075 0.42969 0.0
C2906 C 0.63795 0.1833 0.41876 0.0
C2907 C 0.64373 0.19995 0.43919 0.0
C2908 C 0.64201 0.22129 0.42931 0.0
C2909 C 0.63459 0.22615 0.39899 0.0
C2910 C 0.62904 0.20965 0.37833 0.0
C2911 C 0.63083 0.18827 0.38802 0.0
H2912 H 0.63319 0.24269 0.39151 0.0
H2913 H 0.64897 0.03266 0.46918 0.0
H2914 H 0.27979 0.91763 0.36678 0.0
H2915 H 0.30937 0.90156 0.37584 0.0
H2916 H 0.31092 0.9286 0.4723 0.0
H2917 H 0.28125 0.94473 0.46333 0.0
H2918 H 0.34299 0.93416 0.43758 0.0
H2919 H 0.30482 0.87869 0.47017 0.0
H2920 H 0.27907 0.85392 0.4689 0.0
H2921 H 0.2991 0.8256 0.38101 0.0
H2922 H 0.32478 0.85048 0.38133 0.0
H2923 H 0.40208 0.82957 0.40358 0.0
H2924 H 0.38125 0.84907 0.43867 0.0
H2925 H 0.38611 0.90452 0.37634 0.0
H2926 H 0.40799 0.8855 0.34308 0.0
H2927 H 0.3513 0.85641 0.41781 0.0
H2928 H 0.36783 0.94835 0.40341 0.0
H2929 H 0.39382 0.97221 0.41102 0.0
H2930 H 0.41817 0.92627 0.47507 0.0
H2931 H 0.39221 0.90224 0.46828 0.0
C2932 C 0.28648 0.92016 0.38985 0.0
C2933 C 0.27829 0.93228 0.4144 0.0
C2934 C 0.30327 0.91092 0.39508 0.0
C2935 C 0.31217 0.91378 0.42486 0.0
C2936 C 0.30418 0.92617 0.44926 0.0
C2937 C 0.28726 0.93523 0.44416 0.0
C2938 C 0.32994 0.90385 0.42979 0.0
C2939 C 0.34496 0.91714 0.43366 0.0
C2940 C 0.33227 0.88153 0.42637 0.0
C2941 C 0.31673 0.86657 0.42572 0.0
C2942 C 0.30366 0.86733 0.45038 0.0
C2943 C 0.28908 0.85324 0.44986 0.0
C2944 C 0.28745 0.83821 0.42488 0.0
C2945 C 0.30038 0.83725 0.40035 0.0
C2946 C 0.31497 0.85134 0.40071 0.0
C2947 C 0.39938 0.84633 0.39861 0.0
C2948 C 0.40647 0.85617 0.37087 0.0
C2949 C 0.38741 0.85743 0.41849 0.0
C2950 C 0.38184 0.87823 0.41007 0.0
C2951 C 0.39034 0.88869 0.38395 0.0
C2952 C 0.40281 0.87779 0.36473 0.0
C2953 C 0.36474 0.8869 0.42322 0.0
C2954 C 0.34965 0.87336 0.42276 0.0
C2955 C 0.36245 0.90887 0.43079 0.0
C2956 C 0.37803 0.92343 0.43526 0.0
C2957 C 0.37864 0.94338 0.41935 0.0
C2958 C 0.3934 0.95693 0.42346 0.0
C2959 C 0.40765 0.95075 0.44348 0.0
C2960 C 0.40715 0.93102 0.45949 0.0
C2961 C 0.39242 0.91741 0.45548 0.0
H2962 H 0.41907 0.96126 0.44661 0.0
H2963 H 0.27617 0.82729 0.42456 0.0
H2964 H 0.54953 0.3253 0.63967 0.0
H2965 H 0.57782 0.34231 0.65505 0.0
H2966 H 0.5489 0.39821 0.68793 0.0
H2967 H 0.52061 0.38162 0.67146 0.0
H2968 H 0.57577 0.40904 0.65015 0.0
H2969 H 0.56933 0.36443 0.74276 0.0
H2970 H 0.56369 0.33098 0.77291 0.0
H2971 H 0.61007 0.3021 0.72908 0.0
H2972 H 0.61586 0.33527 0.69827 0.0
H2973 H 0.65587 0.45655 0.67218 0.0
H2974 H 0.63154 0.43902 0.70168 0.0
H2975 H 0.64442 0.37914 0.65484 0.0
H2976 H 0.6688 0.3965 0.62554 0.0
H2977 H 0.6242 0.37393 0.71388 0.0
H2978 H 0.62185 0.41173 0.60882 0.0
H2979 H 0.62788 0.44324 0.57429 0.0
H2980 H 0.59807 0.48315 0.64004 0.0
H2981 H 0.59202 0.45182 0.67514 0.0
C2982 C 0.54922 0.34129 0.64991 0.0
C2983 C 0.53286 0.35216 0.65421 0.0
C2984 C 0.56535 0.35083 0.65926 0.0
C2985 C 0.56543 0.37135 0.6733 0.0
C2986 C 0.54912 0.38226 0.67752 0.0
C2987 C 0.53299 0.37276 0.6681 0.0
C2988 C 0.58265 0.38215 0.68062 0.0
C2989 C 0.58611 0.40166 0.66502 0.0
C2990 C 0.59631 0.37232 0.69944 0.0
C2991 C 0.59298 0.35234 0.71807 0.0
C2992 C 0.57827 0.3509 0.73937 0.0
C2993 C 0.57505 0.33199 0.75661 0.0
C2994 C 0.5865 0.31442 0.75288 0.0
C2995 C 0.60121 0.31573 0.73195 0.0
C2996 C 0.60449 0.3346 0.71463 0.0
C2997 C 0.6542 0.43939 0.66964 0.0
C2998 C 0.66372 0.42797 0.64582 0.0
C2999 C 0.64029 0.42937 0.68657 0.0
C3000 C 0.63587 0.40798 0.67957 0.0
C3001 C 0.64752 0.39571 0.66034 0.0
C3002 C 0.66141 0.4057 0.64343 0.0
C3003 C 0.61714 0.40056 0.68322 0.0
C3004 C 0.61349 0.38164 0.70035 0.0
C3005 C 0.60321 0.41076 0.66564 0.0
C3006 C 0.6066 0.42955 0.6446 0.0
C3007 C 0.61664 0.42726 0.61592 0.0
C3008 C 0.62006 0.44505 0.59628 0.0
C3009 C 0.61333 0.46516 0.60497 0.0
C3010 C 0.60324 0.46755 0.63337 0.0
C3011 C 0.59981 0.44978 0.65313 0.0
H3012 H 0.61585 0.47884 0.58956 0.0
H3013 H 0.58398 0.29978 0.76624 0.0
H3014 H 0.34674 0.57799 0.65482 0.0
H3015 H 0.36647 0.59947 0.68932 0.0
H3016 H 0.35555 0.65484 0.62929 0.0
H3017 H 0.33474 0.63369 0.59673 0.0
H3018 H 0.3953 0.61144 0.66894 0.0
H3019 H 0.3695 0.70051 0.65748 0.0
H3020 H 0.34125 0.72036 0.66563 0.0
H3021 H 0.32182 0.67048 0.72821 0.0
H3022 H 0.35006 0.65044 0.72088 0.0
H3023 H 0.45946 0.6805 0.61796 0.0
H3024 H 0.43055 0.66334 0.62712 0.0
H3025 H 0.42996 0.6867 0.72576 0.0
H3026 H 0.45902 0.70439 0.71656 0.0
H3027 H 0.39568 0.68955 0.69127 0.0
H3028 H 0.43929 0.63878 0.72195 0.0
H3029 H 0.46799 0.61942 0.71749 0.0
H3030 H 0.45092 0.59163 0.62719 0.0
H3031 H 0.42218 0.61112 0.63083 0.0
C3032 C 0.34797 0.59501 0.65013 0.0
C3033 C 0.33939 0.60432 0.62331 0.0
C3034 C 0.35928 0.60727 0.6697 0.0
C3035 C 0.3627 0.62882 0.66193 0.0
C3036 C 0.35293 0.63846 0.63649 0.0
C3037 C 0.34111 0.62634 0.61764 0.0
C3038 C 0.37883 0.6397 0.67537 0.0
C3039 C 0.39518 0.62841 0.67458 0.0
C3040 C 0.37889 0.66175 0.68371 0.0
C3041 C 0.36194 0.67392 0.68856 0.0
C3042 C 0.35929 0.69384 0.67322 0.0
C3043 C 0.34324 0.70511 0.67763 0.0
C3044 C 0.32974 0.69668 0.6974 0.0
C3045 C 0.33227 0.67697 0.71285 0.0
C3046 C 0.34829 0.66563 0.70853 0.0
C3047 C 0.45309 0.6823 0.64145 0.0
C3048 C 0.46149 0.69374 0.66657 0.0
C3049 C 0.43663 0.67242 0.6467 0.0
C3050 C 0.42827 0.67368 0.67717 0.0
C3051 C 0.43628 0.68559 0.70212 0.0
C3052 C 0.45288 0.69548 0.6969 0.0
C3053 C 0.41164 0.6614 0.68264 0.0
C3054 C 0.39541 0.67242 0.6869 0.0
C3055 C 0.41158 0.63896 0.67852 0.0
C3056 C 0.42859 0.62653 0.6766 0.0
C3057 C 0.44169 0.62865 0.70102 0.0
C3058 C 0.458 0.61769 0.6986 0.0
C3059 C 0.46135 0.60442 0.67194 0.0
C3060 C 0.44833 0.60197 0.64777 0.0
C3061 C 0.432 0.61294 0.65005 0.0
H3062 H 0.47398 0.59593 0.67009 0.0
H3063 H 0.31733 0.70543 0.70075 0.0
H3064 H 0.59639 0.7057 0.90103 0.0
H3065 H 0.61897 0.68398 0.92868 0.0
H3066 H 0.60015 0.62785 0.87797 0.0
H3067 H 0.57715 0.64951 0.85079 0.0
H3068 H 0.61939 0.62005 0.9416 0.0
H3069 H 0.62582 0.65489 0.83553 0.0
H3070 H 0.62236 0.68637 0.79976 0.0
H3071 H 0.65638 0.72318 0.86287 0.0
H3072 H 0.65976 0.69196 0.8993 0.0
H3073 H 0.69862 0.56555 0.89323 0.0
H3074 H 0.66951 0.58294 0.89963 0.0
H3075 H 0.69583 0.64136 0.92916 0.0
H3076 H 0.72508 0.62433 0.92136 0.0
H3077 H 0.67244 0.649 0.88326 0.0
H3078 H 0.67116 0.61063 0.98337 0.0
H3079 H 0.67368 0.57919 0.01938 0.0
H3080 H 0.6303 0.54861 0.96873 0.0
H3081 H 0.62768 0.57974 0.93208 0.0
C3082 C 0.59646 0.68852 0.89713 0.0
C3083 C 0.5854 0.67925 0.87341 0.0
C3084 C 0.60929 0.67612 0.91303 0.0
C3085 C 0.61143 0.65448 0.90472 0.0
C3086 C 0.59867 0.64456 0.88462 0.0
C3087 C 0.58559 0.65695 0.86902 0.0
C3088 C 0.62917 0.64437 0.90914 0.0
C3089 C 0.63103 0.62622 0.92889 0.0
C3090 C 0.64432 0.65271 0.89275 0.0
C3091 C 0.64291 0.6712 0.87024 0.0
C3092 C 0.6325 0.66973 0.84181 0.0
C3093 C 0.63055 0.68751 0.82144 0.0
C3094 C 0.63911 0.70678 0.82908 0.0
C3095 C 0.64973 0.70826 0.85702 0.0
C3096 C 0.65168 0.69053 0.87752 0.0
C3097 C 0.69822 0.58213 0.90098 0.0
C3098 C 0.71416 0.59365 0.9064 0.0
C3099 C 0.68155 0.59194 0.90517 0.0
C3100 C 0.68049 0.61337 0.91528 0.0
C3101 C 0.69636 0.62475 0.92153 0.0
C3102 C 0.71306 0.61499 0.91716 0.0
C3103 C 0.66293 0.6245 0.91597 0.0
C3104 C 0.661 0.64287 0.89668 0.0
C3105 C 0.64783 0.61622 0.93275 0.0
C3106 C 0.64932 0.59748 0.95481 0.0
C3107 C 0.66224 0.59713 0.97974 0.0
C3108 C 0.66367 0.57938 1.0003 0.0
C3109 C 0.65218 0.5619 0.9963 0.0
C3110 C 0.6392 0.56216 0.97178 0.0
C3111 C 0.63772 0.57987 0.95114 0.0
H3112 H 0.65331 0.54817 0.01225 0.0
H3113 H 0.63755 0.72055 0.81334 0.0
H3114 H 0.41644 0.35406 0.90731 0.0
H3115 H 0.39986 0.37875 0.94331 0.0
H3116 H 0.37286 0.40547 0.85968 0.0
H3117 H 0.38908 0.38107 0.82434 0.0
H3118 H 0.37924 0.43608 0.9053 0.0
H3119 H 0.35557 0.36136 0.89897 0.0
H3120 H 0.35911 0.32258 0.90918 0.0
H3121 H 0.3692 0.33517 1.01016 0.0
H3122 H 0.36591 0.37405 1.00036 0.0
H3123 H 0.28947 0.43744 0.87904 0.0
H3124 H 0.32046 0.42635 0.88692 0.0
H3125 H 0.31584 0.43777 0.98989 0.0
H3126 H 0.28468 0.44991 0.98209 0.0
H3127 H 0.33239 0.39462 0.96341 0.0
H3128 H 0.34023 0.4705 0.96343 0.0
H3129 H 0.33371 0.50731 0.94508 0.0
H3130 H 0.35163 0.49138 0.84893 0.0
H3131 H 0.35794 0.45437 0.86649 0.0
C3132 C 0.40732 0.36569 0.89681 0.0
C3133 C 0.40375 0.36561 0.8633 0.0
C3134 C 0.3979 0.37972 0.91728 0.0
C3135 C 0.38507 0.39385 0.90416 0.0
C3136 C 0.38274 0.39482 0.87037 0.0
C3137 C 0.39189 0.38073 0.85018 0.0
C3138 C 0.37183 0.40528 0.9246 0.0
C3139 C 0.36921 0.42723 0.9189 0.0
C3140 C 0.35896 0.3938 0.94294 0.0
C3141 C 0.36069 0.37052 0.94891 0.0
C3142 C 0.3586 0.35581 0.92331 0.0
C3143 C 0.36057 0.33385 0.92901 0.0
C3144 C 0.36443 0.32642 0.96029 0.0
C3145 C 0.36626 0.34095 0.98594 0.0
C3146 C 0.36436 0.36294 0.98033 0.0
C3147 C 0.29502 0.43789 0.90337 0.0
C3148 C 0.28467 0.4449 0.92986 0.0
C3149 C 0.3127 0.43142 0.90784 0.0
C3150 C 0.32041 0.43156 0.93889 0.0
C3151 C 0.31006 0.43773 0.96573 0.0
C3152 C 0.29228 0.4445 0.96122 0.0
C3153 C 0.33935 0.425 0.94211 0.0
C3154 C 0.34295 0.40396 0.95206 0.0
C3155 C 0.35296 0.43721 0.927 0.0
C3156 C 0.34962 0.45963 0.91638 0.0
C3157 C 0.34274 0.47482 0.93835 0.0
C3158 C 0.33906 0.49572 0.92807 0.0
C3159 C 0.34226 0.50168 0.89586 0.0
C3160 C 0.34919 0.48675 0.87389 0.0
C3161 C 0.35286 0.46581 0.88402 0.0
H3162 H 0.33937 0.51786 0.88793 0.0
H3163 H 0.36596 0.30941 0.96466 0.0
H3164 H 0.53883 0.85117 0.12636 0.0
H3165 H 0.56862 0.86438 0.14014 0.0
H3166 H 0.56006 0.84809 0.24069 0.0
H3167 H 0.53038 0.83361 0.22693 0.0
H3168 H 0.57476 0.89724 0.20699 0.0
H3169 H 0.5875 0.82328 0.23543 0.0
H3170 H 0.58427 0.78427 0.22758 0.0
H3171 H 0.60553 0.78986 0.13099 0.0
H3172 H 0.60861 0.82894 0.13811 0.0
H3173 H 0.66087 0.93731 0.16467 0.0
H3174 H 0.64214 0.91636 0.20247 0.0
H3175 H 0.62574 0.87563 0.12298 0.0
H3176 H 0.64417 0.89626 0.08586 0.0
H3177 H 0.62765 0.85288 0.17789 0.0
H3178 H 0.60209 0.92335 0.14166 0.0
H3179 H 0.60235 0.96293 0.14064 0.0
H3180 H 0.60408 0.96436 0.24494 0.0
H3181 H 0.60389 0.92477 0.24646 0.0
C3182 C 0.54331 0.84998 0.15134 0.0
C3183 C 0.53223 0.8411 0.17544 0.0
C3184 C 0.56027 0.85774 0.1592 0.0
C3185 C 0.56646 0.85706 0.19134 0.0
C3186 C 0.55545 0.84863 0.21574 0.0
C3187 C 0.53849 0.84053 0.2078 0.0
C3188 C 0.58458 0.86532 0.19826 0.0
C3189 C 0.58654 0.88749 0.20216 0.0
C3190 C 0.59978 0.85254 0.19158 0.0
C3191 C 0.59821 0.82903 0.18729 0.0
C3192 C 0.59136 0.8162 0.21245 0.0
C3193 C 0.58958 0.79407 0.20814 0.0
C3194 C 0.59468 0.78459 0.17879 0.0
C3195 C 0.6016 0.79722 0.15372 0.0
C3196 C 0.60339 0.81935 0.1579 0.0
C3197 C 0.65371 0.92339 0.15576 0.0
C3198 C 0.65371 0.9184 0.12248 0.0
C3199 C 0.643 0.91152 0.17724 0.0
C3200 C 0.6324 0.89456 0.16548 0.0
C3201 C 0.63382 0.88855 0.13273 0.0
C3202 C 0.64428 0.90043 0.11143 0.0
C3203 C 0.61767 0.88498 0.18475 0.0
C3204 C 0.61626 0.86254 0.18536 0.0
C3205 C 0.60289 0.89754 0.19507 0.0
C3206 C 0.6032 0.92122 0.19416 0.0
C3207 C 0.60262 0.93215 0.16433 0.0
C3208 C 0.60273 0.95456 0.16367 0.0
C3209 C 0.6033 0.96615 0.19271 0.0
C3210 C 0.60373 0.95536 0.22247 0.0
C3211 C 0.60361 0.93295 0.22325 0.0
H3212 H 0.60334 0.98349 0.19215 0.0
H3213 H 0.59328 0.76747 0.1755 0.0
H3214 H 0.46393 0.16736 0.08697 0.0
H3215 H 0.43348 0.15311 0.08898 0.0
H3216 H 0.4309 0.16699 0.19162 0.0
H3217 H 0.461 0.18241 0.18937 0.0
H3218 H 0.41699 0.12244 0.11725 0.0
H3219 H 0.38905 0.1837 0.21127 0.0
H3220 H 0.39496 0.22081 0.22904 0.0
H3221 H 0.41806 0.23527 0.13603 0.0
H3222 H 0.41206 0.19836 0.11758 0.0
H3223 H 0.33548 0.08322 0.15088 0.0
H3224 H 0.36092 0.10405 0.17069 0.0
H3225 H 0.3473 0.15523 0.10468 0.0
H3226 H 0.32161 0.13459 0.08514 0.0
H3227 H 0.36838 0.16853 0.16161 0.0
H3228 H 0.36956 0.12145 0.06956 0.0
H3229 H 0.3618 0.08801 0.04092 0.0
H3230 H 0.39098 0.05151 0.11201 0.0
H3231 H 0.39872 0.08482 0.14132 0.0
C3232 C 0.45691 0.16728 0.11001 0.0
C3233 C 0.46478 0.17625 0.13791 0.0
C3234 C 0.43955 0.15902 0.11117 0.0
C3235 C 0.42979 0.15938 0.14032 0.0
C3236 C 0.43806 0.16697 0.16872 0.0
C3237 C 0.45538 0.17547 0.1675 0.0
C3238 C 0.41077 0.15252 0.14054 0.0
C3239 C 0.40646 0.13249 0.12728 0.0
C3240 C 0.39686 0.16592 0.15246 0.0
C3241 C 0.40032 0.18821 0.16324 0.0
C3242 C 0.39535 0.19483 0.19461 0.0
C3243 C 0.39871 0.21582 0.20479 0.0
C3244 C 0.40695 0.23037 0.18372 0.0
C3245 C 0.41176 0.22397 0.15237 0.0
C3246 C 0.4084 0.20301 0.14206 0.0
C3247 C 0.3373 0.09941 0.14196 0.0
C3248 C 0.32693 0.10716 0.11604 0.0
C3249 C 0.35183 0.1113 0.1533 0.0
C3250 C 0.35616 0.13088 0.13852 0.0
C3251 C 0.34414 0.14012 0.11631 0.0
C3252 C 0.32947 0.12828 0.10513 0.0
C3253 C 0.37492 0.13834 0.13937 0.0
C3254 C 0.37909 0.15844 0.15237 0.0
C3255 C 0.38867 0.12556 0.12565 0.0
C3256 C 0.38459 0.10555 0.10772 0.0
C3257 C 0.37426 0.10627 0.07913 0.0
C3258 C 0.36987 0.08736 0.06278 0.0
C3259 C 0.37589 0.06764 0.07466 0.0
C3260 C 0.38634 0.06681 0.10286 0.0
C3261 C 0.39075 0.0857 0.11933 0.0
H3262 H 0.37249 0.05303 0.06193 0.0
H3263 H 0.40956 0.2466 0.19167 0.0
loop_
_geom_bond_atom_site_label_1
_geom_bond_atom_site_label_2
_geom_bond_distance
_geom_bond_site_symmetry_2
_ccdc_geom_bond_type
O0 Tb1 2.292 . S
O0 C3 1.255 . S
Tb1 O0 2.292 . S
Tb1 O17 2.326 . S
Tb1 O19 2.500 . S
Tb1 O20 2.473 . S
Tb1 O23 2.324 1_554 S
Eu2 O6 2.292 . S
Eu2 C7 2.852 1_554 S
Eu2 O18 2.324 . S
Eu2 O22 2.326 1_554 S
Eu2 O24 2.500 1_554 S
Eu2 O25 2.491 . S
C3 O0 1.255 . S
C3 O4 1.247 . S
O4 C3 1.247 . S
C5 O17 1.242 . S
C5 O18 1.258 . S
O6 Eu2 2.292 . S
O6 C8 1.255 . S
C7 Eu2 2.852 1_556 S
C7 C11 1.503 . S
C7 O24 1.273 . S
C7 O25 1.235 1_556 S
C8 O6 1.255 . S
C8 O9 1.247 . S
O9 C8 1.247 . S
C10 O22 1.242 . S
C10 O23 1.258 . S
C11 C7 1.503 . S
C11 C12 1.379 . S
C11 C16 1.392 . S
C12 C11 1.379 . S
C12 C13 1.404 . S
C12 H26 0.929 . S
C13 C12 1.404 . S
C13 C14 1.389 . S
C14 C13 1.389 . S
C14 C15 1.399 . S
C14 H27 0.931 . S
C15 C14 1.399 . S
C15 C16 1.390 . S
C16 C11 1.392 . S
C16 C15 1.390 . S
C16 H28 0.929 . S
O17 Tb1 2.326 . S
O17 C5 1.242 . S
O18 Eu2 2.324 . S
O18 C5 1.258 . S
O19 Tb1 2.500 . S
O19 C21 1.273 . S
O20 Tb1 2.473 . S
O20 C21 1.257 . S
C21 O19 1.273 . S
C21 O20 1.257 . S
O22 Eu2 2.326 1_556 S
O22 C10 1.242 . S
O23 Tb1 2.324 1_556 S
O23 C10 1.258 . S
O24 Eu2 2.500 1_556 S
O24 C7 1.273 . S
O25 Eu2 2.491 . S
O25 C7 1.235 1_554 S
H26 C12 0.929 . S
H27 C14 0.931 . S
H28 C16 0.929 . S
O29 Tb30 2.292 . S
O29 C32 1.255 . S
Tb30 O29 2.292 . S
Tb30 O46 2.326 . S
Tb30 O48 2.500 . S
Tb30 O49 2.473 . S
Tb30 O52 2.324 1_554 S
Eu31 O35 2.292 . S
Eu31 C36 2.852 1_554 S
Eu31 O47 2.324 . S
Eu31 O51 2.326 1_554 S
Eu31 O53 2.500 1_554 S
Eu31 O54 2.491 . S
C32 O29 1.255 . S
C32 O33 1.247 . S
O33 C32 1.247 . S
C34 O46 1.242 . S
C34 O47 1.258 . S
O35 Eu31 2.292 . S
O35 C37 1.255 . S
C36 Eu31 2.852 1_556 S
C36 C40 1.503 . S
C36 O53 1.273 . S
C36 O54 1.235 1_556 S
C37 O35 1.255 . S
C37 O38 1.247 . S
O38 C37 1.247 . S
C39 O51 1.242 . S
C39 O52 1.258 . S
C40 C36 1.503 . S
C40 C41 1.379 . S
C40 C45 1.392 . S
C41 C40 1.379 . S
C41 C42 1.404 . S
C41 H55 0.929 . S
C42 C41 1.404 . S
C42 C43 1.389 . S
C43 C42 1.389 . S
C43 C44 1.399 . S
C43 H56 0.931 . S
C44 C43 1.399 . S
C44 C45 1.390 . S
C45 C40 1.392 . S
C45 C44 1.390 . S
C45 H57 0.929 . S
O46 Tb30 2.326 . S
O46 C34 1.242 . S
O47 Eu31 2.324 . S
O47 C34 1.258 . S
O48 Tb30 2.500 . S
O48 C50 1.273 . S
O49 Tb30 2.473 . S
O49 C50 1.257 . S
C50 O48 1.273 . S
C50 O49 1.257 . S
O51 Eu31 2.326 1_556 S
O51 C39 1.242 . S
O52 Tb30 2.324 1_556 S
O52 C39 1.258 . S
O53 Eu31 2.500 1_556 S
O53 C36 1.273 . S
O54 Eu31 2.491 . S
O54 C36 1.235 1_554 S
H55 C41 0.929 . S
H56 C43 0.931 . S
H57 C45 0.929 . S
O58 Tb59 2.292 . S
O58 C61 1.255 . S
Tb59 O58 2.292 . S
Tb59 O75 2.326 . S
Tb59 O77 2.500 . S
Tb59 O78 2.473 . S
Tb59 O81 2.324 . S
Eu60 O64 2.292 . S
Eu60 C65 2.852 . S
Eu60 O76 2.324 . S
Eu60 O80 2.326 . S
Eu60 O82 2.500 . S
Eu60 O83 2.473 . S
C61 O58 1.255 . S
C61 O62 1.247 . S
O62 C61 1.247 . S
C63 O75 1.242 . S
C63 O76 1.258 . S
O64 Eu60 2.292 . S
O64 C66 1.255 . S
C65 Eu60 2.852 . S
C65 C69 1.503 . S
C65 O82 1.273 . S
C65 O83 1.257 . S
C66 O64 1.255 . S
C66 O67 1.247 . S
O67 C66 1.247 . S
C68 O80 1.242 . S
C68 O81 1.258 . S
C69 C65 1.503 . S
C69 C70 1.379 . S
C69 C74 1.392 1_655 S
C70 C69 1.379 . S
C70 C71 1.404 . S
C70 H84 0.929 . S
C71 C70 1.404 . S
C71 C72 1.389 1_655 S
C72 C71 1.389 1_455 S
C72 C73 1.399 . S
C72 H85 0.931 . S
C73 C72 1.399 . S
C73 C74 1.390 . S
C74 C69 1.392 1_455 S
C74 C73 1.390 . S
C74 H86 0.929 . S
O75 Tb59 2.326 . S
O75 C63 1.242 . S
O76 Eu60 2.324 . S
O76 C63 1.258 . S
O77 Tb59 2.500 . S
O77 C79 1.273 . S
O78 Tb59 2.473 . S
O78 C79 1.257 . S
C79 O77 1.273 . S
C79 O78 1.257 . S
O80 Eu60 2.326 . S
O80 C68 1.242 . S
O81 Tb59 2.324 . S
O81 C68 1.258 . S
O82 Eu60 2.500 . S
O82 C65 1.273 . S
O83 Eu60 2.473 . S
O83 C65 1.257 . S
H84 C70 0.929 . S
H85 C72 0.931 . S
H86 C74 0.929 . S
O87 Tb88 2.292 . S
O87 C90 1.255 . S
Tb88 O87 2.292 . S
Tb88 O104 2.326 . S
Tb88 O106 2.500 . S
Tb88 O107 2.473 . S
Tb88 O110 2.324 . S
Eu89 O93 2.292 . S
Eu89 C94 2.852 . S
Eu89 O105 2.324 . S
Eu89 O109 2.326 . S
Eu89 O111 2.500 . S
Eu89 O112 2.473 . S
C90 O87 1.255 . S
C90 O91 1.247 . S
O91 C90 1.247 . S
C92 O104 1.242 . S
C92 O105 1.258 . S
O93 Eu89 2.292 . S
O93 C95 1.255 . S
C94 Eu89 2.852 . S
C94 C98 1.503 . S
C94 O111 1.273 . S
C94 O112 1.257 . S
C95 O93 1.255 . S
C95 O96 1.247 . S
O96 C95 1.247 . S
C97 O109 1.242 . S
C97 O110 1.258 . S
C98 C94 1.503 . S
C98 C99 1.379 . S
C98 C103 1.392 1_455 S
C99 C98 1.379 . S
C99 C100 1.404 . S
C99 H113 0.929 . S
C100 C99 1.404 . S
C100 C101 1.389 1_455 S
C101 C100 1.389 1_655 S
C101 C102 1.399 . S
C101 H114 0.931 . S
C102 C101 1.399 . S
C102 C103 1.390 . S
C103 C98 1.392 1_655 S
C103 C102 1.390 . S
C103 H115 0.929 . S
O104 Tb88 2.326 . S
O104 C92 1.242 . S
O105 Eu89 2.324 . S
O105 C92 1.258 . S
O106 Tb88 2.500 . S
O106 C108 1.273 . S
O107 Tb88 2.473 . S
O107 C108 1.257 . S
C108 O106 1.273 . S
C108 O107 1.257 . S
O109 Eu89 2.326 . S
O109 C97 1.242 . S
O110 Tb88 2.324 . S
O110 C97 1.258 . S
O111 Eu89 2.500 . S
O111 C94 1.273 . S
O112 Eu89 2.473 . S
O112 C94 1.257 . S
H113 C99 0.929 . S
H114 C101 0.931 . S
H115 C103 0.929 . S
O116 Tb117 2.292 . S
O116 C119 1.255 . S
Tb117 O116 2.292 . S
Tb117 O133 2.326 . S
Tb117 O135 2.500 . S
Tb117 O136 2.473 . S
Tb117 O139 2.324 . S
Eu118 O122 2.292 . S
Eu118 C123 2.852 . S
Eu118 O134 2.324 . S
Eu118 O138 2.326 . S
Eu118 O140 2.500 . S
Eu118 O141 2.473 . S
C119 O116 1.255 . S
C119 O120 1.247 . S
O120 C119 1.247 . S
C121 O133 1.242 . S
C121 O134 1.258 . S
O122 Eu118 2.292 . S
O122 C124 1.255 . S
C123 Eu118 2.852 . S
C123 C127 1.503 . S
C123 O140 1.273 . S
C123 O141 1.257 . S
C124 O122 1.255 . S
C124 O125 1.247 . S
O125 C124 1.247 . S
C126 O138 1.242 . S
C126 O139 1.258 . S
C127 C123 1.503 . S
C127 C128 1.379 . S
C127 C132 1.392 . S
C128 C127 1.379 . S
C128 C129 1.404 . S
C128 H142 0.929 . S
C129 C128 1.404 . S
C129 C130 1.389 . S
C130 C129 1.389 . S
C130 C131 1.399 . S
C130 H143 0.931 . S
C131 C130 1.399 . S
C131 C132 1.390 . S
C132 C127 1.392 . S
C132 C131 1.390 . S
C132 H144 0.929 . S
O133 Tb117 2.326 . S
O133 C121 1.242 . S
O134 Eu118 2.324 . S
O134 C121 1.258 . S
O135 Tb117 2.500 . S
O135 C137 1.273 . S
O136 Tb117 2.473 . S
O136 C137 1.257 . S
C137 O135 1.273 . S
C137 O136 1.257 . S
O138 Eu118 2.326 . S
O138 C126 1.242 . S
O139 Tb117 2.324 . S
O139 C126 1.258 . S
O140 Eu118 2.500 . S
O140 C123 1.273 . S
O141 Eu118 2.473 . S
O141 C123 1.257 . S
H142 C128 0.929 . S
H143 C130 0.931 . S
H144 C132 0.929 . S
O145 Tb146 2.292 . S
O145 C148 1.255 . S
Tb146 O145 2.292 . S
Tb146 O162 2.326 . S
Tb146 O164 2.500 . S
Tb146 O165 2.473 . S
Tb146 O168 2.324 . S
Eu147 O151 2.292 . S
Eu147 C152 2.852 . S
Eu147 O163 2.324 . S
Eu147 O167 2.326 . S
Eu147 O169 2.500 . S
Eu147 O170 2.473 . S
C148 O145 1.255 . S
C148 O149 1.247 . S
O149 C148 1.247 . S
C150 O162 1.242 . S
C150 O163 1.258 . S
O151 Eu147 2.292 . S
O151 C153 1.255 . S
C152 Eu147 2.852 . S
C152 C156 1.503 . S
C152 O169 1.273 . S
C152 O170 1.257 . S
C153 O151 1.255 . S
C153 O154 1.247 . S
O154 C153 1.247 . S
C155 O167 1.242 . S
C155 O168 1.258 . S
C156 C152 1.503 . S
C156 C157 1.379 . S
C156 C161 1.392 . S
C157 C156 1.379 . S
C157 C158 1.404 . S
C157 H171 0.929 . S
C158 C157 1.404 . S
C158 C159 1.389 . S
C159 C158 1.389 . S
C159 C160 1.399 . S
C159 H172 0.931 . S
C160 C159 1.399 . S
C160 C161 1.390 . S
C161 C156 1.392 . S
C161 C160 1.390 . S
C161 H173 0.929 . S
O162 Tb146 2.326 . S
O162 C150 1.242 . S
O163 Eu147 2.324 . S
O163 C150 1.258 . S
O164 Tb146 2.500 . S
O164 C166 1.273 . S
O165 Tb146 2.473 . S
O165 C166 1.257 . S
C166 O164 1.273 . S
C166 O165 1.257 . S
O167 Eu147 2.326 . S
O167 C155 1.242 . S
O168 Tb146 2.324 . S
O168 C155 1.258 . S
O169 Eu147 2.500 . S
O169 C152 1.273 . S
O170 Eu147 2.473 . S
O170 C152 1.257 . S
H171 C157 0.929 . S
H172 C159 0.931 . S
H173 C161 0.929 . S
O174 Tb175 2.292 . S
O174 C177 1.255 . S
Tb175 O174 2.292 . S
Tb175 O191 2.326 . S
Tb175 O193 2.500 . S
Tb175 O194 2.473 . S
Tb175 O197 2.324 . S
Eu176 O180 2.292 . S
Eu176 C181 2.852 . S
Eu176 O192 2.324 . S
Eu176 O196 2.326 . S
Eu176 O198 2.500 . S
Eu176 O199 2.473 . S
C177 O174 1.255 . S
C177 O178 1.247 . S
O178 C177 1.247 . S
C179 O191 1.242 . S
C179 O192 1.258 . S
O180 Eu176 2.292 . S
O180 C182 1.255 . S
C181 Eu176 2.852 . S
C181 C185 1.503 . S
C181 O198 1.273 . S
C181 O199 1.257 . S
C182 O180 1.255 . S
C182 O183 1.247 . S
O183 C182 1.247 . S
C184 O196 1.242 . S
C184 O197 1.258 . S
C185 C181 1.503 . S
C185 C186 1.379 . S
C185 C190 1.392 1_655 S
C186 C185 1.379 . S
C186 C187 1.404 . S
C186 H200 0.929 . S
C187 C186 1.404 . S
C187 C188 1.389 1_655 S
C188 C187 1.389 1_455 S
C188 C189 1.399 . S
C188 H201 0.931 . S
C189 C188 1.399 . S
C189 C190 1.390 . S
C190 C185 1.392 1_455 S
C190 C189 1.390 . S
C190 H202 0.929 . S
O191 Tb175 2.326 . S
O191 C179 1.242 . S
O192 Eu176 2.324 . S
O192 C179 1.258 . S
O193 Tb175 2.500 . S
O193 C195 1.273 . S
O194 Tb175 2.473 . S
O194 C195 1.257 . S
C195 O193 1.273 . S
C195 O194 1.257 . S
O196 Eu176 2.326 . S
O196 C184 1.242 . S
O197 Tb175 2.324 . S
O197 C184 1.258 . S
O198 Eu176 2.500 . S
O198 C181 1.273 . S
O199 Eu176 2.473 . S
O199 C181 1.257 . S
H200 C186 0.929 . S
H201 C188 0.931 . S
H202 C190 0.929 . S
O203 Tb204 2.292 . S
O203 C206 1.255 . S
Tb204 O203 2.292 . S
Tb204 O220 2.326 . S
Tb204 O222 2.500 . S
Tb204 O223 2.473 . S
Tb204 O226 2.324 . S
Eu205 O209 2.292 . S
Eu205 C210 2.852 . S
Eu205 O221 2.324 . S
Eu205 O225 2.326 . S
Eu205 O227 2.500 . S
Eu205 O228 2.473 . S
C206 O203 1.255 . S
C206 O207 1.247 . S
O207 C206 1.247 . S
C208 O220 1.242 . S
C208 O221 1.258 . S
O209 Eu205 2.292 . S
O209 C211 1.255 . S
C210 Eu205 2.852 . S
C210 C214 1.503 . S
C210 O227 1.273 . S
C210 O228 1.257 . S
C211 O209 1.255 . S
C211 O212 1.247 . S
O212 C211 1.247 . S
C213 O225 1.242 . S
C213 O226 1.258 . S
C214 C210 1.503 . S
C214 C215 1.379 . S
C214 C219 1.392 1_455 S
C215 C214 1.379 . S
C215 C216 1.404 . S
C215 H229 0.929 . S
C216 C215 1.404 . S
C216 C217 1.389 1_455 S
C217 C216 1.389 1_655 S
C217 C218 1.399 . S
C217 H230 0.931 . S
C218 C217 1.399 . S
C218 C219 1.390 . S
C219 C214 1.392 1_655 S
C219 C218 1.390 . S
C219 H231 0.929 . S
O220 Tb204 2.326 . S
O220 C208 1.242 . S
O221 Eu205 2.324 . S
O221 C208 1.258 . S
O222 Tb204 2.500 . S
O222 C224 1.273 . S
O223 Tb204 2.473 . S
O223 C224 1.257 . S
C224 O222 1.273 . S
C224 O223 1.257 . S
O225 Eu205 2.326 . S
O225 C213 1.242 . S
O226 Tb204 2.324 . S
O226 C213 1.258 . S
O227 Eu205 2.500 . S
O227 C210 1.273 . S
O228 Eu205 2.473 . S
O228 C210 1.257 . S
H229 C215 0.929 . S
H230 C217 0.931 . S
H231 C219 0.929 . S
O232 Tb233 2.292 . S
O232 C235 1.255 . S
Tb233 O232 2.292 . S
Tb233 O249 2.326 . S
Tb233 O251 2.500 . S
Tb233 O252 2.473 . S
Tb233 O255 2.324 . S
Eu234 O238 2.292 . S
Eu234 C239 2.852 . S
Eu234 O250 2.324 . S
Eu234 O254 2.326 . S
Eu234 O256 2.500 . S
Eu234 O257 2.473 . S
C235 O232 1.255 . S
C235 O236 1.247 . S
O236 C235 1.247 . S
C237 O249 1.242 . S
C237 O250 1.258 . S
O238 Eu234 2.292 . S
O238 C240 1.255 . S
C239 Eu234 2.852 . S
C239 C243 1.503 . S
C239 O256 1.273 . S
C239 O257 1.257 . S
C240 O238 1.255 . S
C240 O241 1.247 . S
O241 C240 1.247 . S
C242 O254 1.242 . S
C242 O255 1.258 . S
C243 C239 1.503 . S
C243 C244 1.379 . S
C243 C248 1.392 . S
C244 C243 1.379 . S
C244 C245 1.404 . S
C244 H258 0.929 . S
C245 C244 1.404 . S
C245 C246 1.389 . S
C246 C245 1.389 . S
C246 C247 1.399 . S
C246 H259 0.931 . S
C247 C246 1.399 . S
C247 C248 1.390 . S
C248 C243 1.392 . S
C248 C247 1.390 . S
C248 H260 0.929 . S
O249 Tb233 2.326 . S
O249 C237 1.242 . S
O250 Eu234 2.324 . S
O250 C237 1.258 . S
O251 Tb233 2.500 . S
O251 C253 1.273 . S
O252 Tb233 2.473 . S
O252 C253 1.257 . S
C253 O251 1.273 . S
C253 O252 1.257 . S
O254 Eu234 2.326 . S
O254 C242 1.242 . S
O255 Tb233 2.324 . S
O255 C242 1.258 . S
O256 Eu234 2.500 . S
O256 C239 1.273 . S
O257 Eu234 2.473 . S
O257 C239 1.257 . S
H258 C244 0.929 . S
H259 C246 0.931 . S
H260 C248 0.929 . S
O261 Tb262 2.292 . S
O261 C264 1.255 . S
Tb262 O261 2.292 . S
Tb262 O278 2.326 . S
Tb262 O280 2.500 . S
Tb262 O281 2.473 . S
Tb262 O284 2.324 . S
Eu263 O267 2.292 . S
Eu263 C268 2.852 . S
Eu263 O279 2.324 . S
Eu263 O283 2.326 . S
Eu263 O285 2.500 . S
Eu263 O286 2.473 . S
C264 O261 1.255 . S
C264 O265 1.247 . S
O265 C264 1.247 . S
C266 O278 1.242 . S
C266 O279 1.258 . S
O267 Eu263 2.292 . S
O267 C269 1.255 . S
C268 Eu263 2.852 . S
C268 C272 1.503 . S
C268 O285 1.273 . S
C268 O286 1.257 . S
C269 O267 1.255 . S
C269 O270 1.247 . S
O270 C269 1.247 . S
C271 O283 1.242 . S
C271 O284 1.258 . S
C272 C268 1.503 . S
C272 C273 1.379 . S
C272 C277 1.392 . S
C273 C272 1.379 . S
C273 C274 1.404 . S
C273 H287 0.929 . S
C274 C273 1.404 . S
C274 C275 1.389 . S
C275 C274 1.389 . S
C275 C276 1.399 . S
C275 H288 0.931 . S
C276 C275 1.399 . S
C276 C277 1.390 . S
C277 C272 1.392 . S
C277 C276 1.390 . S
C277 H289 0.929 . S
O278 Tb262 2.326 . S
O278 C266 1.242 . S
O279 Eu263 2.324 . S
O279 C266 1.258 . S
O280 Tb262 2.500 . S
O280 C282 1.273 . S
O281 Tb262 2.473 . S
O281 C282 1.257 . S
C282 O280 1.273 . S
C282 O281 1.257 . S
O283 Eu263 2.326 . S
O283 C271 1.242 . S
O284 Tb262 2.324 . S
O284 C271 1.258 . S
O285 Eu263 2.500 . S
O285 C268 1.273 . S
O286 Eu263 2.473 . S
O286 C268 1.257 . S
H287 C273 0.929 . S
H288 C275 0.931 . S
H289 C277 0.929 . S
O290 Tb291 2.292 . S
O290 C293 1.255 . S
Tb291 O290 2.292 . S
Tb291 O307 2.326 . S
Tb291 O309 2.500 . S
Tb291 O310 2.473 . S
Tb291 O313 2.324 . S
Eu292 O296 2.292 . S
Eu292 C297 2.852 . S
Eu292 O308 2.324 . S
Eu292 O312 2.326 . S
Eu292 O314 2.500 . S
Eu292 O315 2.473 . S
C293 O290 1.255 . S
C293 O294 1.247 . S
O294 C293 1.247 . S
C295 O307 1.242 . S
C295 O308 1.258 . S
O296 Eu292 2.292 . S
O296 C298 1.255 . S
C297 Eu292 2.852 . S
C297 C301 1.503 . S
C297 O314 1.273 . S
C297 O315 1.257 . S
C298 O296 1.255 . S
C298 O299 1.247 . S
O299 C298 1.247 . S
C300 O312 1.242 . S
C300 O313 1.258 . S
C301 C297 1.503 . S
C301 C302 1.379 . S
C301 C306 1.392 . S
C302 C301 1.379 . S
C302 C303 1.404 . S
C302 H316 0.929 . S
C303 C302 1.404 . S
C303 C304 1.389 . S
C304 C303 1.389 . S
C304 C305 1.399 . S
C304 H317 0.931 . S
C305 C304 1.399 . S
C305 C306 1.390 . S
C306 C301 1.392 . S
C306 C305 1.390 . S
C306 H318 0.929 . S
O307 Tb291 2.326 . S
O307 C295 1.242 . S
O308 Eu292 2.324 . S
O308 C295 1.258 . S
O309 Tb291 2.500 . S
O309 C311 1.273 . S
O310 Tb291 2.473 . S
O310 C311 1.257 . S
C311 O309 1.273 . S
C311 O310 1.257 . S
O312 Eu292 2.326 . S
O312 C300 1.242 . S
O313 Tb291 2.324 . S
O313 C300 1.258 . S
O314 Eu292 2.500 . S
O314 C297 1.273 . S
O315 Eu292 2.473 . S
O315 C297 1.257 . S
H316 C302 0.929 . S
H317 C304 0.931 . S
H318 C306 0.929 . S
O319 Tb320 2.292 . S
O319 C322 1.255 . S
Tb320 O319 2.292 . S
Tb320 O336 2.326 . S
Tb320 O338 2.500 . S
Tb320 O339 2.473 . S
Tb320 O342 2.324 . S
Eu321 O325 2.292 . S
Eu321 C326 2.852 . S
Eu321 O337 2.324 . S
Eu321 O341 2.326 . S
Eu321 O343 2.500 . S
Eu321 O344 2.473 . S
C322 O319 1.255 . S
C322 O323 1.247 . S
O323 C322 1.247 . S
C324 O336 1.242 . S
C324 O337 1.258 . S
O325 Eu321 2.292 . S
O325 C327 1.255 . S
C326 Eu321 2.852 . S
C326 C330 1.503 . S
C326 O343 1.273 . S
C326 O344 1.257 . S
C327 O325 1.255 . S
C327 O328 1.247 . S
O328 C327 1.247 . S
C329 O341 1.242 . S
C329 O342 1.258 . S
C330 C326 1.503 . S
C330 C331 1.379 . S
C330 C335 1.392 . S
C331 C330 1.379 . S
C331 C332 1.404 . S
C331 H345 0.929 . S
C332 C331 1.404 . S
C332 C333 1.389 . S
C333 C332 1.389 . S
C333 C334 1.399 . S
C333 H346 0.931 . S
C334 C333 1.399 . S
C334 C335 1.390 . S
C335 C330 1.392 . S
C335 C334 1.390 . S
C335 H347 0.929 . S
O336 Tb320 2.326 . S
O336 C324 1.242 . S
O337 Eu321 2.324 . S
O337 C324 1.258 . S
O338 Tb320 2.500 . S
O338 C340 1.273 . S
O339 Tb320 2.473 . S
O339 C340 1.257 . S
C340 O338 1.273 . S
C340 O339 1.257 . S
O341 Eu321 2.326 . S
O341 C329 1.242 . S
O342 Tb320 2.324 . S
O342 C329 1.258 . S
O343 Eu321 2.500 . S
O343 C326 1.273 . S
O344 Eu321 2.473 . S
O344 C326 1.257 . S
H345 C331 0.929 . S
H346 C333 0.931 . S
H347 C335 0.929 . S
O348 Tb349 2.292 . S
O348 C351 1.255 . S
Tb349 O348 2.292 . S
Tb349 O365 2.326 . S
Tb349 O367 2.500 . S
Tb349 O368 2.473 . S
Tb349 O371 2.324 1_554 S
Eu350 O354 2.292 . S
Eu350 C355 2.852 1_554 S
Eu350 O366 2.324 . S
Eu350 O370 2.326 1_554 S
Eu350 O372 2.500 1_554 S
Eu350 O373 2.491 . S
C351 O348 1.255 . S
C351 O352 1.247 . S
O352 C351 1.247 . S
C353 O365 1.242 . S
C353 O366 1.258 . S
O354 Eu350 2.292 . S
O354 C356 1.255 . S
C355 Eu350 2.852 1_556 S
C355 C359 1.503 . S
C355 O372 1.273 . S
C355 O373 1.235 1_556 S
C356 O354 1.255 . S
C356 O357 1.247 . S
O357 C356 1.247 . S
C358 O370 1.242 . S
C358 O371 1.258 . S
C359 C355 1.503 . S
C359 C360 1.379 . S
C359 C364 1.392 . S
C360 C359 1.379 . S
C360 C361 1.404 . S
C360 H374 0.929 . S
C361 C360 1.404 . S
C361 C362 1.389 . S
C362 C361 1.389 . S
C362 C363 1.399 . S
C362 H375 0.931 . S
C363 C362 1.399 . S
C363 C364 1.390 . S
C364 C359 1.392 . S
C364 C363 1.390 . S
C364 H376 0.929 . S
O365 Tb349 2.326 . S
O365 C353 1.242 . S
O366 Eu350 2.324 . S
O366 C353 1.258 . S
O367 Tb349 2.500 . S
O367 C369 1.273 . S
O368 Tb349 2.473 . S
O368 C369 1.257 . S
C369 O367 1.273 . S
C369 O368 1.257 . S
O370 Eu350 2.326 1_556 S
O370 C358 1.242 . S
O371 Tb349 2.324 1_556 S
O371 C358 1.258 . S
O372 Eu350 2.500 1_556 S
O372 C355 1.273 . S
O373 Eu350 2.491 . S
O373 C355 1.235 1_554 S
H374 C360 0.929 . S
H375 C362 0.931 . S
H376 C364 0.929 . S
O377 Tb378 2.292 . S
O377 C380 1.255 . S
Tb378 O377 2.292 . S
Tb378 O394 2.326 . S
Tb378 O396 2.500 . S
Tb378 O397 2.473 . S
Tb378 O400 2.324 1_554 S
Eu379 O383 2.292 . S
Eu379 C384 2.852 1_554 S
Eu379 O395 2.324 . S
Eu379 O399 2.326 1_554 S
Eu379 O401 2.500 1_554 S
Eu379 O402 2.491 . S
C380 O377 1.255 . S
C380 O381 1.247 . S
O381 C380 1.247 . S
C382 O394 1.242 . S
C382 O395 1.258 . S
O383 Eu379 2.292 . S
O383 C385 1.255 . S
C384 Eu379 2.852 1_556 S
C384 C388 1.503 . S
C384 O401 1.273 . S
C384 O402 1.235 1_556 S
C385 O383 1.255 . S
C385 O386 1.247 . S
O386 C385 1.247 . S
C387 O399 1.242 . S
C387 O400 1.258 . S
C388 C384 1.503 . S
C388 C389 1.379 . S
C388 C393 1.392 . S
C389 C388 1.379 . S
C389 C390 1.404 . S
C389 H403 0.929 . S
C390 C389 1.404 . S
C390 C391 1.389 . S
C391 C390 1.389 . S
C391 C392 1.399 . S
C391 H404 0.931 . S
C392 C391 1.399 . S
C392 C393 1.390 . S
C393 C388 1.392 . S
C393 C392 1.390 . S
C393 H405 0.929 . S
O394 Tb378 2.326 . S
O394 C382 1.242 . S
O395 Eu379 2.324 . S
O395 C382 1.258 . S
O396 Tb378 2.500 . S
O396 C398 1.273 . S
O397 Tb378 2.473 . S
O397 C398 1.257 . S
C398 O396 1.273 . S
C398 O397 1.257 . S
O399 Eu379 2.326 1_556 S
O399 C387 1.242 . S
O400 Tb378 2.324 1_556 S
O400 C387 1.258 . S
O401 Eu379 2.500 1_556 S
O401 C384 1.273 . S
O402 Eu379 2.491 . S
O402 C384 1.235 1_554 S
H403 C389 0.929 . S
H404 C391 0.931 . S
H405 C393 0.929 . S
O406 Tb407 2.292 . S
O406 C409 1.255 . S
Tb407 O406 2.292 . S
Tb407 O423 2.326 . S
Tb407 O425 2.500 . S
Tb407 O426 2.473 . S
Tb407 O429 2.324 . S
Eu408 O412 2.292 . S
Eu408 C413 2.852 . S
Eu408 O424 2.324 . S
Eu408 O428 2.326 . S
Eu408 O430 2.500 . S
Eu408 O431 2.473 . S
C409 O406 1.255 . S
C409 O410 1.247 . S
O410 C409 1.247 . S
C411 O423 1.242 . S
C411 O424 1.258 . S
O412 Eu408 2.292 . S
O412 C414 1.255 . S
C413 Eu408 2.852 . S
C413 C417 1.503 . S
C413 O430 1.273 . S
C413 O431 1.257 . S
C414 O412 1.255 . S
C414 O415 1.247 . S
O415 C414 1.247 . S
C416 O428 1.242 . S
C416 O429 1.258 . S
C417 C413 1.503 . S
C417 C418 1.379 . S
C417 C422 1.392 . S
C418 C417 1.379 . S
C418 C419 1.404 . S
C418 H432 0.929 . S
C419 C418 1.404 . S
C419 C420 1.389 . S
C420 C419 1.389 . S
C420 C421 1.399 . S
C420 H433 0.931 . S
C421 C420 1.399 . S
C421 C422 1.390 . S
C422 C417 1.392 . S
C422 C421 1.390 . S
C422 H434 0.929 . S
O423 Tb407 2.326 . S
O423 C411 1.242 . S
O424 Eu408 2.324 . S
O424 C411 1.258 . S
O425 Tb407 2.500 . S
O425 C427 1.273 . S
O426 Tb407 2.473 . S
O426 C427 1.257 . S
C427 O425 1.273 . S
C427 O426 1.257 . S
O428 Eu408 2.326 . S
O428 C416 1.242 . S
O429 Tb407 2.324 . S
O429 C416 1.258 . S
O430 Eu408 2.500 . S
O430 C413 1.273 . S
O431 Eu408 2.473 . S
O431 C413 1.257 . S
H432 C418 0.929 . S
H433 C420 0.931 . S
H434 C422 0.929 . S
O435 Tb436 2.292 . S
O435 C438 1.255 . S
Tb436 O435 2.292 . S
Tb436 O452 2.326 . S
Tb436 O454 2.500 . S
Tb436 O455 2.473 . S
Tb436 O458 2.324 . S
Eu437 O441 2.292 . S
Eu437 C442 2.852 . S
Eu437 O453 2.324 . S
Eu437 O457 2.326 . S
Eu437 O459 2.500 . S
Eu437 O460 2.473 . S
C438 O435 1.255 . S
C438 O439 1.247 . S
O439 C438 1.247 . S
C440 O452 1.242 . S
C440 O453 1.258 . S
O441 Eu437 2.292 . S
O441 C443 1.255 . S
C442 Eu437 2.852 . S
C442 C446 1.503 . S
C442 O459 1.273 . S
C442 O460 1.257 . S
C443 O441 1.255 . S
C443 O444 1.247 . S
O444 C443 1.247 . S
C445 O457 1.242 . S
C445 O458 1.258 . S
C446 C442 1.503 . S
C446 C447 1.379 . S
C446 C451 1.392 . S
C447 C446 1.379 . S
C447 C448 1.404 . S
C447 H461 0.929 . S
C448 C447 1.404 . S
C448 C449 1.389 . S
C449 C448 1.389 . S
C449 C450 1.399 . S
C449 H462 0.931 . S
C450 C449 1.399 . S
C450 C451 1.390 . S
C451 C446 1.392 . S
C451 C450 1.390 . S
C451 H463 0.929 . S
O452 Tb436 2.326 . S
O452 C440 1.242 . S
O453 Eu437 2.324 . S
O453 C440 1.258 . S
O454 Tb436 2.500 . S
O454 C456 1.273 . S
O455 Tb436 2.473 . S
O455 C456 1.257 . S
C456 O454 1.273 . S
C456 O455 1.257 . S
O457 Eu437 2.326 . S
O457 C445 1.242 . S
O458 Tb436 2.324 . S
O458 C445 1.258 . S
O459 Eu437 2.500 . S
O459 C442 1.273 . S
O460 Eu437 2.473 . S
O460 C442 1.257 . S
H461 C447 0.929 . S
H462 C449 0.931 . S
H463 C451 0.929 . S
H464 C482 0.951 . S
H465 C484 0.951 . S
H466 C486 0.950 . S
H467 C487 0.950 . S
H468 C489 0.950 . S
H469 C492 0.950 . S
H470 C493 0.950 . S
H471 C495 0.950 . S
H472 C496 0.950 . S
H473 C497 0.952 1_545 S
H474 C499 0.951 . S
H475 C501 0.950 . S
H476 C502 0.950 . S
H477 C504 0.950 . S
H478 C507 0.950 . S
H479 C508 0.950 . S
H480 C510 0.950 . S
H481 C511 0.950 . S
C482 H464 0.951 . S
C482 C483 1.366 . S
C482 C484 1.388 . S
C483 C482 1.366 . S
C483 C487 1.385 . S
C484 H465 0.951 . S
C484 C482 1.388 . S
C484 C485 1.366 . S
C485 C484 1.366 . S
C485 C486 1.414 . S
C485 C488 1.499 . S
C486 H466 0.950 . S
C486 C485 1.414 . S
C486 C487 1.374 . S
C487 H467 0.950 . S
C487 C483 1.385 . S
C487 C486 1.374 . S
C488 C485 1.499 . S
C488 C489 1.373 . S
C488 C490 1.389 . S
C489 H468 0.950 . S
C489 C488 1.373 . S
C489 C505 1.377 . S
C490 C488 1.389 . S
C490 C491 1.524 . S
C490 C504 1.377 . S
C491 C490 1.524 . S
C491 C492 1.397 . S
C491 C496 1.363 . S
C492 H469 0.950 . S
C492 C491 1.397 . S
C492 C493 1.334 . S
C493 H470 0.950 . S
C493 C492 1.334 . S
C493 C494 1.287 . S
C494 C493 1.287 . S
C494 C495 1.524 . S
C494 H513 0.913 . S
C495 H471 0.950 . S
C495 C494 1.524 . S
C495 C496 1.415 . S
C496 H472 0.950 . S
C496 C491 1.363 . S
C496 C495 1.415 . S
C497 H473 0.952 1_565 S
C497 C498 1.365 . S
C497 C499 1.387 . S
C498 C497 1.365 . S
C498 C502 1.385 . S
C499 H474 0.951 . S
C499 C497 1.387 . S
C499 C500 1.366 . S
C500 C499 1.366 . S
C500 C501 1.414 . S
C500 C503 1.499 . S
C501 H475 0.950 . S
C501 C500 1.414 . S
C501 C502 1.374 . S
C502 H476 0.950 . S
C502 C498 1.385 . S
C502 C501 1.374 . S
C503 C500 1.499 . S
C503 C504 1.373 . S
C503 C505 1.389 . S
C504 H477 0.950 . S
C504 C490 1.377 . S
C504 C503 1.373 . S
C505 C489 1.377 . S
C505 C503 1.389 . S
C505 C506 1.524 . S
C506 C505 1.524 . S
C506 C507 1.397 . S
C506 C511 1.363 . S
C507 H478 0.950 . S
C507 C506 1.397 . S
C507 C508 1.334 . S
C508 H479 0.950 . S
C508 C507 1.334 . S
C508 C509 1.287 . S
C509 C508 1.287 . S
C509 C510 1.524 . S
C509 H512 0.999 . S
C510 H480 0.950 . S
C510 C509 1.524 . S
C510 C511 1.415 . S
C511 H481 0.950 . S
C511 C506 1.363 . S
C511 C510 1.415 . S
H512 C509 0.999 . S
H513 C494 0.913 . S
H514 C532 0.951 . S
H515 C534 0.951 . S
H516 C536 0.950 . S
H517 C537 0.950 . S
H518 C539 0.950 . S
H519 C542 0.950 . S
H520 C543 0.950 . S
H521 C545 0.950 . S
H522 C546 0.950 . S
H523 C547 0.951 . S
H524 C549 0.951 . S
H525 C551 0.950 . S
H526 C552 0.975 . S
H527 C554 0.950 . S
H528 C557 0.950 . S
H529 C558 0.950 . S
H530 C560 0.950 . S
H531 C561 0.950 . S
C532 H514 0.951 . S
C532 C533 1.366 . S
C532 C534 1.388 . S
C533 C532 1.366 . S
C533 C537 1.385 . S
C534 H515 0.951 . S
C534 C532 1.388 . S
C534 C535 1.366 . S
C535 C534 1.366 . S
C535 C536 1.414 . S
C535 C538 1.499 . S
C536 H516 0.950 . S
C536 C535 1.414 . S
C536 C537 1.374 . S
C537 H517 0.950 . S
C537 C533 1.385 . S
C537 C536 1.374 . S
C538 C535 1.499 . S
C538 C539 1.373 . S
C538 C540 1.389 . S
C539 H518 0.950 . S
C539 C538 1.373 . S
C539 C555 1.377 . S
C540 C538 1.389 . S
C540 C541 1.524 . S
C540 C554 1.377 . S
C541 C540 1.524 . S
C541 C542 1.397 . S
C541 C546 1.363 . S
C542 H519 0.950 . S
C542 C541 1.397 . S
C542 C543 1.334 . S
C543 H520 0.950 . S
C543 C542 1.334 . S
C543 C544 1.287 . S
C544 C543 1.287 . S
C544 C545 1.524 . S
C544 H563 0.913 . S
C545 H521 0.950 . S
C545 C544 1.524 . S
C545 C546 1.415 . S
C546 H522 0.950 . S
C546 C541 1.363 . S
C546 C545 1.415 . S
C547 H523 0.951 . S
C547 C548 1.366 . S
C547 C549 1.388 . S
C548 C547 1.366 . S
C548 C552 1.385 . S
C549 H524 0.951 . S
C549 C547 1.388 . S
C549 C550 1.366 . S
C550 C549 1.366 . S
C550 C551 1.414 . S
C550 C553 1.499 . S
C551 H525 0.950 . S
C551 C550 1.414 . S
C551 C552 1.374 . S
C552 H526 0.975 . S
C552 C548 1.385 . S
C552 C551 1.374 . S
C553 C550 1.499 . S
C553 C554 1.373 . S
C553 C555 1.389 . S
C554 H527 0.950 . S
C554 C540 1.377 . S
C554 C553 1.373 . S
C555 C539 1.377 . S
C555 C553 1.389 . S
C555 C556 1.524 . S
C556 C555 1.524 . S
C556 C557 1.397 . S
C556 C561 1.363 . S
C557 H528 0.950 . S
C557 C556 1.397 . S
C557 C558 1.334 . S
C558 H529 0.950 . S
C558 C557 1.334 . S
C558 C559 1.287 . S
C559 C558 1.287 . S
C559 C560 1.524 . S
C559 H562 0.999 . S
C560 H530 0.950 . S
C560 C559 1.524 . S
C560 C561 1.415 . S
C561 H531 0.950 . S
C561 C556 1.363 . S
C561 C560 1.415 . S
H562 C559 0.999 . S
H563 C544 0.913 . S
H564 C582 0.951 . S
H565 C584 0.951 . S
H566 C586 0.950 . S
H567 C587 0.950 . S
H568 C589 0.950 . S
H569 C592 0.950 . S
H570 C593 0.950 . S
H571 C595 0.950 . S
H572 C596 0.950 . S
H573 C597 0.951 . S
H574 C599 0.951 . S
H575 C601 0.950 . S
H576 C602 0.950 . S
H577 C604 0.950 . S
H578 C607 0.950 . S
H579 C608 0.950 . S
H580 C610 0.950 . S
H581 C611 0.950 . S
C582 H564 0.951 . S
C582 C583 1.366 . S
C582 C584 1.388 . S
C583 C582 1.366 . S
C583 C587 1.385 . S
C584 H565 0.951 . S
C584 C582 1.388 . S
C584 C585 1.366 . S
C585 C584 1.366 . S
C585 C586 1.414 . S
C585 C588 1.499 . S
C586 H566 0.950 . S
C586 C585 1.414 . S
C586 C587 1.374 . S
C587 H567 0.950 . S
C587 C583 1.385 . S
C587 C586 1.374 . S
C588 C585 1.499 . S
C588 C589 1.373 . S
C588 C590 1.389 . S
C589 H568 0.950 . S
C589 C588 1.373 . S
C589 C605 1.377 . S
C590 C588 1.389 . S
C590 C591 1.524 . S
C590 C604 1.377 . S
C591 C590 1.524 . S
C591 C592 1.397 . S
C591 C596 1.363 . S
C592 H569 0.950 . S
C592 C591 1.397 . S
C592 C593 1.334 . S
C593 H570 0.950 . S
C593 C592 1.334 . S
C593 C594 1.287 . S
C594 C593 1.287 . S
C594 C595 1.524 . S
C594 H613 0.913 . S
C595 H571 0.950 . S
C595 C594 1.524 . S
C595 C596 1.415 . S
C596 H572 0.950 . S
C596 C591 1.363 . S
C596 C595 1.415 . S
C597 H573 0.951 . S
C597 C598 1.366 . S
C597 C599 1.388 . S
C598 C597 1.366 . S
C598 C602 1.385 . S
C599 H574 0.951 . S
C599 C597 1.388 . S
C599 C600 1.366 . S
C600 C599 1.366 . S
C600 C601 1.414 . S
C600 C603 1.499 . S
C601 H575 0.950 . S
C601 C600 1.414 . S
C601 C602 1.374 . S
C602 H576 0.950 . S
C602 C598 1.385 . S
C602 C601 1.374 . S
C603 C600 1.499 . S
C603 C604 1.373 . S
C603 C605 1.389 . S
C604 H577 0.950 . S
C604 C590 1.377 . S
C604 C603 1.373 . S
C605 C589 1.377 . S
C605 C603 1.389 . S
C605 C606 1.524 . S
C606 C605 1.524 . S
C606 C607 1.397 . S
C606 C611 1.363 . S
C607 H578 0.950 . S
C607 C606 1.397 . S
C607 C608 1.334 . S
C608 H579 0.950 . S
C608 C607 1.334 . S
C608 C609 1.287 . S
C609 C608 1.287 . S
C609 C610 1.524 . S
C609 H612 0.999 . S
C610 H580 0.950 . S
C610 C609 1.524 . S
C610 C611 1.415 . S
C611 H581 0.950 . S
C611 C606 1.363 . S
C611 C610 1.415 . S
H612 C609 0.999 . S
H613 C594 0.913 . S
H614 C632 0.951 . S
H615 C634 0.951 . S
H616 C636 0.950 . S
H617 C637 0.950 . S
H618 C639 0.950 . S
H619 C642 0.950 . S
H620 C643 0.950 . S
H621 C645 0.950 . S
H622 C646 0.950 . S
H623 C647 0.951 . S
H624 C649 0.951 . S
H625 C651 0.950 . S
H626 C652 0.950 . S
H627 C654 0.950 . S
H628 C657 0.950 . S
H629 C658 0.950 . S
H630 C660 0.950 . S
H631 C661 0.950 . S
C632 H614 0.951 . S
C632 C633 1.366 . S
C632 C634 1.388 . S
C633 C632 1.366 . S
C633 C637 1.385 . S
C634 H615 0.951 . S
C634 C632 1.388 . S
C634 C635 1.366 . S
C635 C634 1.366 . S
C635 C636 1.414 . S
C635 C638 1.499 . S
C636 H616 0.950 . S
C636 C635 1.414 . S
C636 C637 1.374 . S
C637 H617 0.950 . S
C637 C633 1.385 . S
C637 C636 1.374 . S
C638 C635 1.499 . S
C638 C639 1.373 . S
C638 C640 1.389 . S
C639 H618 0.950 . S
C639 C638 1.373 . S
C639 C655 1.377 . S
C640 C638 1.389 . S
C640 C641 1.524 . S
C640 C654 1.377 . S
C641 C640 1.524 . S
C641 C642 1.397 . S
C641 C646 1.363 . S
C642 H619 0.950 . S
C642 C641 1.397 . S
C642 C643 1.334 . S
C643 H620 0.950 . S
C643 C642 1.334 . S
C643 C644 1.287 . S
C644 C643 1.287 . S
C644 C645 1.524 . S
C644 H663 0.913 . S
C645 H621 0.950 . S
C645 C644 1.524 . S
C645 C646 1.415 . S
C646 H622 0.950 . S
C646 C641 1.363 . S
C646 C645 1.415 . S
C647 H623 0.951 . S
C647 C648 1.366 . S
C647 C649 1.388 . S
C648 C647 1.366 . S
C648 C652 1.385 . S
C649 H624 0.951 . S
C649 C647 1.388 . S
C649 C650 1.366 . S
C650 C649 1.366 . S
C650 C651 1.414 . S
C650 C653 1.499 . S
C651 H625 0.950 . S
C651 C650 1.414 . S
C651 C652 1.374 . S
C652 H626 0.950 . S
C652 C648 1.385 . S
C652 C651 1.374 . S
C653 C650 1.499 . S
C653 C654 1.373 . S
C653 C655 1.389 . S
C654 H627 0.950 . S
C654 C640 1.377 . S
C654 C653 1.373 . S
C655 C639 1.377 . S
C655 C653 1.389 . S
C655 C656 1.524 . S
C656 C655 1.524 . S
C656 C657 1.397 . S
C656 C661 1.363 . S
C657 H628 0.950 . S
C657 C656 1.397 . S
C657 C658 1.334 . S
C658 H629 0.950 . S
C658 C657 1.334 . S
C658 C659 1.287 . S
C659 C658 1.287 . S
C659 C660 1.524 . S
C659 H662 0.999 . S
C660 H630 0.950 . S
C660 C659 1.524 . S
C660 C661 1.415 . S
C661 H631 0.950 . S
C661 C656 1.363 . S
C661 C660 1.415 . S
H662 C659 0.999 . S
H663 C644 0.913 . S
H664 C682 0.951 . S
H665 C684 0.951 . S
H666 C686 0.950 . S
H667 C687 0.950 . S
H668 C689 0.950 . S
H669 C692 0.950 . S
H670 C693 0.950 . S
H671 C695 0.950 . S
H672 C696 0.950 . S
H673 C697 0.951 . S
H674 C699 0.951 . S
H675 C701 0.950 . S
H676 C702 0.950 . S
H677 C704 0.950 . S
H678 C707 0.950 . S
H679 C708 0.950 . S
H680 C710 0.950 . S
H681 C711 0.950 . S
C682 H664 0.951 . S
C682 C683 1.366 . S
C682 C684 1.388 . S
C683 C682 1.366 . S
C683 C687 1.385 . S
C684 H665 0.951 . S
C684 C682 1.388 . S
C684 C685 1.366 . S
C685 C684 1.366 . S
C685 C686 1.414 . S
C685 C688 1.499 . S
C686 H666 0.950 . S
C686 C685 1.414 . S
C686 C687 1.374 . S
C687 H667 0.950 . S
C687 C683 1.385 . S
C687 C686 1.374 . S
C688 C685 1.499 . S
C688 C689 1.373 . S
C688 C690 1.389 . S
C689 H668 0.950 . S
C689 C688 1.373 . S
C689 C705 1.377 . S
C690 C688 1.389 . S
C690 C691 1.524 . S
C690 C704 1.377 . S
C691 C690 1.524 . S
C691 C692 1.397 . S
C691 C696 1.363 . S
C692 H669 0.950 . S
C692 C691 1.397 . S
C692 C693 1.334 . S
C693 H670 0.950 . S
C693 C692 1.334 . S
C693 C694 1.287 . S
C694 C693 1.287 . S
C694 C695 1.524 . S
C694 H713 0.913 . S
C695 H671 0.950 . S
C695 C694 1.524 . S
C695 C696 1.415 . S
C696 H672 0.950 . S
C696 C691 1.363 . S
C696 C695 1.415 . S
C697 H673 0.951 . S
C697 C698 1.366 . S
C697 C699 1.388 . S
C698 C697 1.366 . S
C698 C702 1.385 . S
C699 H674 0.951 . S
C699 C697 1.388 . S
C699 C700 1.366 . S
C700 C699 1.366 . S
C700 C701 1.414 . S
C700 C703 1.499 . S
C701 H675 0.950 . S
C701 C700 1.414 . S
C701 C702 1.374 . S
C702 H676 0.950 . S
C702 C698 1.385 . S
C702 C701 1.374 . S
C703 C700 1.499 . S
C703 C704 1.373 . S
C703 C705 1.389 . S
C704 H677 0.950 . S
C704 C690 1.377 . S
C704 C703 1.373 . S
C705 C689 1.377 . S
C705 C703 1.389 . S
C705 C706 1.524 . S
C706 C705 1.524 . S
C706 C707 1.397 . S
C706 C711 1.363 . S
C707 H678 0.950 . S
C707 C706 1.397 . S
C707 C708 1.334 . S
C708 H679 0.950 . S
C708 C707 1.334 . S
C708 C709 1.287 . S
C709 C708 1.287 . S
C709 C710 1.524 . S
C709 H712 0.999 . S
C710 H680 0.950 . S
C710 C709 1.524 . S
C710 C711 1.415 . S
C711 H681 0.950 . S
C711 C706 1.363 . S
C711 C710 1.415 . S
H712 C709 0.999 . S
H713 C694 0.913 . S
H714 C732 0.951 . S
H715 C734 0.951 . S
H716 C736 0.950 . S
H717 C737 0.950 . S
H718 C739 0.950 . S
H719 C742 0.950 . S
H720 C743 0.950 . S
H721 C745 0.950 . S
H722 C746 0.950 . S
H723 C747 0.951 . S
H724 C749 0.951 . S
H725 C751 0.950 . S
H726 C752 0.950 . S
H727 C754 0.950 . S
H728 C757 0.950 . S
H729 C758 0.950 . S
H730 C760 0.950 . S
H731 C761 0.950 . S
C732 H714 0.951 . S
C732 C733 1.366 . S
C732 C734 1.388 . S
C733 C732 1.366 . S
C733 C737 1.385 . S
C734 H715 0.951 . S
C734 C732 1.388 . S
C734 C735 1.366 . S
C735 C734 1.366 . S
C735 C736 1.414 . S
C735 C738 1.499 . S
C736 H716 0.950 . S
C736 C735 1.414 . S
C736 C737 1.374 . S
C737 H717 0.950 . S
C737 C733 1.385 . S
C737 C736 1.374 . S
C738 C735 1.499 . S
C738 C739 1.373 . S
C738 C740 1.389 . S
C739 H718 0.950 . S
C739 C738 1.373 . S
C739 C755 1.377 . S
C740 C738 1.389 . S
C740 C741 1.524 . S
C740 C754 1.377 . S
C741 C740 1.524 . S
C741 C742 1.397 . S
C741 C746 1.363 . S
C742 H719 0.950 . S
C742 C741 1.397 . S
C742 C743 1.334 . S
C743 H720 0.950 . S
C743 C742 1.334 . S
C743 C744 1.287 . S
C744 C743 1.287 . S
C744 C745 1.524 . S
C744 H763 0.913 . S
C745 H721 0.950 . S
C745 C744 1.524 . S
C745 C746 1.415 . S
C746 H722 0.950 . S
C746 C741 1.363 . S
C746 C745 1.415 . S
C747 H723 0.951 . S
C747 C748 1.366 . S
C747 C749 1.388 . S
C748 C747 1.366 . S
C748 C752 1.385 . S
C749 H724 0.951 . S
C749 C747 1.388 . S
C749 C750 1.366 . S
C750 C749 1.366 . S
C750 C751 1.414 . S
C750 C753 1.499 . S
C751 H725 0.950 . S
C751 C750 1.414 . S
C751 C752 1.374 . S
C752 H726 0.950 . S
C752 C748 1.385 . S
C752 C751 1.374 . S
C753 C750 1.499 . S
C753 C754 1.373 . S
C753 C755 1.389 . S
C754 H727 0.950 . S
C754 C740 1.377 . S
C754 C753 1.373 . S
C755 C739 1.377 . S
C755 C753 1.389 . S
C755 C756 1.524 . S
C756 C755 1.524 . S
C756 C757 1.397 . S
C756 C761 1.363 . S
C757 H728 0.950 . S
C757 C756 1.397 . S
C757 C758 1.334 . S
C758 H729 0.950 . S
C758 C757 1.334 . S
C758 C759 1.287 . S
C759 C758 1.287 . S
C759 C760 1.524 . S
C759 H762 0.999 . S
C760 H730 0.950 . S
C760 C759 1.524 . S
C760 C761 1.415 . S
C761 H731 0.950 . S
C761 C756 1.363 . S
C761 C760 1.415 . S
H762 C759 0.999 . S
H763 C744 0.913 . S
H764 C782 0.951 . S
H765 C784 0.951 . S
H766 C786 0.950 . S
H767 C787 0.950 . S
H768 C789 0.950 . S
H769 C792 0.950 . S
H770 C793 0.950 . S
H771 C795 0.950 . S
H772 C796 0.950 . S
H773 C797 0.951 . S
H774 C799 0.951 . S
H775 C801 0.950 . S
H776 C802 0.950 . S
H777 C804 0.950 . S
H778 C807 0.950 . S
H779 C808 0.950 . S
H780 C810 0.950 . S
H781 C811 0.950 . S
C782 H764 0.951 . S
C782 C783 1.366 . S
C782 C784 1.388 . S
C783 C782 1.366 . S
C783 C787 1.385 . S
C784 H765 0.951 . S
C784 C782 1.388 . S
C784 C785 1.366 . S
C785 C784 1.366 . S
C785 C786 1.414 . S
C785 C788 1.499 . S
C786 H766 0.950 . S
C786 C785 1.414 . S
C786 C787 1.374 . S
C787 H767 0.950 . S
C787 C783 1.385 . S
C787 C786 1.374 . S
C788 C785 1.499 . S
C788 C789 1.373 . S
C788 C790 1.389 . S
C789 H768 0.950 . S
C789 C788 1.373 . S
C789 C805 1.377 . S
C790 C788 1.389 . S
C790 C791 1.524 . S
C790 C804 1.377 . S
C791 C790 1.524 . S
C791 C792 1.397 . S
C791 C796 1.363 . S
C792 H769 0.950 . S
C792 C791 1.397 . S
C792 C793 1.334 . S
C793 H770 0.950 . S
C793 C792 1.334 . S
C793 C794 1.287 . S
C794 C793 1.287 . S
C794 C795 1.524 . S
C794 H813 0.913 . S
C795 H771 0.950 . S
C795 C794 1.524 . S
C795 C796 1.415 . S
C796 H772 0.950 . S
C796 C791 1.363 . S
C796 C795 1.415 . S
C797 H773 0.951 . S
C797 C798 1.366 . S
C797 C799 1.388 . S
C798 C797 1.366 . S
C798 C802 1.385 . S
C799 H774 0.951 . S
C799 C797 1.388 . S
C799 C800 1.366 . S
C800 C799 1.366 . S
C800 C801 1.414 . S
C800 C803 1.499 . S
C801 H775 0.950 . S
C801 C800 1.414 . S
C801 C802 1.374 . S
C802 H776 0.950 . S
C802 C798 1.385 . S
C802 C801 1.374 . S
C803 C800 1.499 . S
C803 C804 1.373 . S
C803 C805 1.389 . S
C804 H777 0.950 . S
C804 C790 1.377 . S
C804 C803 1.373 . S
C805 C789 1.377 . S
C805 C803 1.389 . S
C805 C806 1.524 . S
C806 C805 1.524 . S
C806 C807 1.397 . S
C806 C811 1.363 . S
C807 H778 0.950 . S
C807 C806 1.397 . S
C807 C808 1.334 . S
C808 H779 0.950 . S
C808 C807 1.334 . S
C808 C809 1.287 . S
C809 C808 1.287 . S
C809 C810 1.524 . S
C809 H812 0.999 . S
C810 H780 0.950 . S
C810 C809 1.524 . S
C810 C811 1.415 . S
C811 H781 0.950 . S
C811 C806 1.363 . S
C811 C810 1.415 . S
H812 C809 0.999 . S
H813 C794 0.913 . S
H814 C832 0.951 . S
H815 C834 0.951 . S
H816 C836 0.950 . S
H817 C837 0.950 . S
H818 C839 0.950 . S
H819 C842 0.950 . S
H820 C843 0.950 . S
H821 C845 0.950 . S
H822 C846 0.950 . S
H823 C847 0.951 . S
H824 C849 0.951 . S
H825 C851 0.950 . S
H826 C852 0.950 . S
H827 C854 0.950 . S
H828 C857 0.950 . S
H829 C858 0.950 . S
H830 C860 0.950 . S
H831 C861 0.950 . S
C832 H814 0.951 . S
C832 C833 1.366 . S
C832 C834 1.388 . S
C833 C832 1.366 . S
C833 C837 1.385 . S
C834 H815 0.951 . S
C834 C832 1.388 . S
C834 C835 1.366 . S
C835 C834 1.366 . S
C835 C836 1.414 . S
C835 C838 1.499 . S
C836 H816 0.950 . S
C836 C835 1.414 . S
C836 C837 1.374 . S
C837 H817 0.950 . S
C837 C833 1.385 . S
C837 C836 1.374 . S
C838 C835 1.499 . S
C838 C839 1.373 . S
C838 C840 1.389 . S
C839 H818 0.950 . S
C839 C838 1.373 . S
C839 C855 1.377 . S
C840 C838 1.389 . S
C840 C841 1.524 . S
C840 C854 1.377 . S
C841 C840 1.524 . S
C841 C842 1.397 . S
C841 C846 1.363 . S
C842 H819 0.950 . S
C842 C841 1.397 . S
C842 C843 1.334 . S
C843 H820 0.950 . S
C843 C842 1.334 . S
C843 C844 1.287 . S
C844 C843 1.287 . S
C844 C845 1.524 . S
C844 H863 0.913 . S
C845 H821 0.950 . S
C845 C844 1.524 . S
C845 C846 1.415 . S
C846 H822 0.950 . S
C846 C841 1.363 . S
C846 C845 1.415 . S
C847 H823 0.951 . S
C847 C848 1.366 . S
C847 C849 1.388 . S
C848 C847 1.366 . S
C848 C852 1.385 . S
C849 H824 0.951 . S
C849 C847 1.388 . S
C849 C850 1.366 . S
C850 C849 1.366 . S
C850 C851 1.414 . S
C850 C853 1.499 . S
C851 H825 0.950 . S
C851 C850 1.414 . S
C851 C852 1.374 . S
C852 H826 0.950 . S
C852 C848 1.385 . S
C852 C851 1.374 . S
C853 C850 1.499 . S
C853 C854 1.373 . S
C853 C855 1.389 . S
C854 H827 0.950 . S
C854 C840 1.377 . S
C854 C853 1.373 . S
C855 C839 1.377 . S
C855 C853 1.389 . S
C855 C856 1.524 . S
C856 C855 1.524 . S
C856 C857 1.397 . S
C856 C861 1.363 . S
C857 H828 0.950 . S
C857 C856 1.397 . S
C857 C858 1.334 . S
C858 H829 0.950 . S
C858 C857 1.334 . S
C858 C859 1.287 . S
C859 C858 1.287 . S
C859 C860 1.524 . S
C859 H862 0.999 . S
C860 H830 0.950 . S
C860 C859 1.524 . S
C860 C861 1.415 . S
C861 H831 0.950 . S
C861 C856 1.363 . S
C861 C860 1.415 . S
H862 C859 0.999 . S
H863 C844 0.913 . S
H864 C882 0.951 1_545 S
H865 C884 0.951 . S
H866 C886 0.950 . S
H867 C887 0.950 . S
H868 C889 0.950 . S
H869 C892 0.950 . S
H870 C893 0.950 . S
H871 C895 0.950 . S
H872 C896 0.950 . S
H873 C897 0.951 . S
H874 C899 0.951 . S
H875 C901 0.950 . S
H876 C902 0.950 . S
H877 C904 0.950 . S
H878 C907 0.950 . S
H879 C908 0.950 . S
H880 C910 0.950 . S
H881 C911 0.950 . S
C882 H864 0.951 1_565 S
C882 C883 1.366 . S
C882 C884 1.388 . S
C883 C882 1.366 . S
C883 C887 1.385 . S
C884 H865 0.951 . S
C884 C882 1.388 . S
C884 C885 1.366 . S
C885 C884 1.366 . S
C885 C886 1.414 . S
C885 C888 1.499 . S
C886 H866 0.950 . S
C886 C885 1.414 . S
C886 C887 1.374 . S
C887 H867 0.950 . S
C887 C883 1.385 . S
C887 C886 1.374 . S
C888 C885 1.499 . S
C888 C889 1.373 . S
C888 C890 1.389 . S
C889 H868 0.950 . S
C889 C888 1.373 . S
C889 C905 1.377 . S
C890 C888 1.389 . S
C890 C891 1.524 . S
C890 C904 1.377 . S
C891 C890 1.524 . S
C891 C892 1.397 . S
C891 C896 1.363 . S
C892 H869 0.950 . S
C892 C891 1.397 . S
C892 C893 1.334 . S
C893 H870 0.950 . S
C893 C892 1.334 . S
C893 C894 1.287 . S
C894 C893 1.287 . S
C894 C895 1.524 . S
C894 H913 0.913 . S
C895 H871 0.950 . S
C895 C894 1.524 . S
C895 C896 1.415 . S
C896 H872 0.950 . S
C896 C891 1.363 . S
C896 C895 1.415 . S
C897 H873 0.951 . S
C897 C898 1.366 . S
C897 C899 1.388 . S
C898 C897 1.366 . S
C898 C902 1.385 . S
C899 H874 0.951 . S
C899 C897 1.388 . S
C899 C900 1.366 . S
C900 C899 1.366 . S
C900 C901 1.414 . S
C900 C903 1.499 . S
C901 H875 0.950 . S
C901 C900 1.414 . S
C901 C902 1.374 . S
C902 H876 0.950 . S
C902 C898 1.385 . S
C902 C901 1.374 . S
C903 C900 1.499 . S
C903 C904 1.373 . S
C903 C905 1.389 . S
C904 H877 0.950 . S
C904 C890 1.377 . S
C904 C903 1.373 . S
C905 C889 1.377 . S
C905 C903 1.389 . S
C905 C906 1.524 . S
C906 C905 1.524 . S
C906 C907 1.397 . S
C906 C911 1.363 . S
C907 H878 0.950 . S
C907 C906 1.397 . S
C907 C908 1.334 . S
C908 H879 0.950 . S
C908 C907 1.334 . S
C908 C909 1.287 . S
C909 C908 1.287 . S
C909 C910 1.524 . S
C909 H912 0.999 . S
C910 H880 0.950 . S
C910 C909 1.524 . S
C910 C911 1.415 . S
C911 H881 0.950 . S
C911 C906 1.363 . S
C911 C910 1.415 . S
H912 C909 0.999 . S
H913 C894 0.913 . S
H914 C932 0.933 1_565 S
H915 C934 0.951 . S
H916 C936 0.950 . S
H917 C937 0.950 . S
H918 C939 0.950 . S
H919 C942 0.950 . S
H920 C943 0.950 . S
H921 C945 0.950 . S
H922 C946 0.950 . S
H923 C947 0.951 . S
H924 C949 0.951 . S
H925 C951 0.950 . S
H926 C952 0.950 . S
H927 C954 0.950 . S
H928 C957 0.950 . S
H929 C958 0.950 . S
H930 C960 0.950 . S
H931 C961 0.950 . S
C932 H914 0.933 1_545 S
C932 C933 1.371 . S
C932 C934 1.400 . S
C933 C932 1.371 . S
C933 C937 1.385 . S
C934 H915 0.951 . S
C934 C932 1.400 . S
C934 C935 1.366 . S
C935 C934 1.366 . S
C935 C936 1.414 . S
C935 C938 1.499 . S
C936 H916 0.950 . S
C936 C935 1.414 . S
C936 C937 1.374 . S
C937 H917 0.950 . S
C937 C933 1.385 . S
C937 C936 1.374 . S
C938 C935 1.499 . S
C938 C939 1.373 . S
C938 C940 1.389 . S
C939 H918 0.950 . S
C939 C938 1.373 . S
C939 C955 1.377 . S
C940 C938 1.389 . S
C940 C941 1.524 . S
C940 C954 1.377 . S
C941 C940 1.524 . S
C941 C942 1.397 . S
C941 C946 1.363 . S
C942 H919 0.950 . S
C942 C941 1.397 . S
C942 C943 1.334 . S
C943 H920 0.950 . S
C943 C942 1.334 . S
C943 C944 1.287 . S
C944 C943 1.287 . S
C944 C945 1.524 . S
C944 H963 0.913 . S
C945 H921 0.950 . S
C945 C944 1.524 . S
C945 C946 1.415 . S
C946 H922 0.950 . S
C946 C941 1.363 . S
C946 C945 1.415 . S
C947 H923 0.951 . S
C947 C948 1.366 . S
C947 C949 1.388 . S
C948 C947 1.366 . S
C948 C952 1.385 . S
C949 H924 0.951 . S
C949 C947 1.388 . S
C949 C950 1.366 . S
C950 C949 1.366 . S
C950 C951 1.414 . S
C950 C953 1.499 . S
C951 H925 0.950 . S
C951 C950 1.414 . S
C951 C952 1.374 . S
C952 H926 0.950 . S
C952 C948 1.385 . S
C952 C951 1.374 . S
C953 C950 1.499 . S
C953 C954 1.373 . S
C953 C955 1.389 . S
C954 H927 0.950 . S
C954 C940 1.377 . S
C954 C953 1.373 . S
C955 C939 1.377 . S
C955 C953 1.389 . S
C955 C956 1.524 . S
C956 C955 1.524 . S
C956 C957 1.397 . S
C956 C961 1.363 . S
C957 H928 0.950 . S
C957 C956 1.397 . S
C957 C958 1.334 . S
C958 H929 0.950 . S
C958 C957 1.334 . S
C958 C959 1.287 . S
C959 C958 1.287 . S
C959 C960 1.524 . S
C959 H962 0.999 . S
C960 H930 0.950 . S
C960 C959 1.524 . S
C960 C961 1.415 . S
C961 H931 0.950 . S
C961 C956 1.363 . S
C961 C960 1.415 . S
H962 C959 0.999 . S
H963 C944 0.913 . S
H964 C982 0.951 . S
H965 C984 0.951 . S
H966 C986 0.950 . S
H967 C987 0.950 . S
H968 C989 0.950 . S
H969 C992 0.950 . S
H970 C993 0.950 . S
H971 C995 0.950 . S
H972 C996 0.950 . S
H973 C997 0.951 . S
H974 C999 0.951 . S
H975 C1001 0.950 . S
H976 C1002 0.950 . S
H977 C1004 0.950 . S
H978 C1007 0.950 . S
H979 C1008 0.950 . S
H980 C1010 0.950 1_554 S
H981 C1011 0.950 . S
C982 H964 0.951 . S
C982 C983 1.366 . S
C982 C984 1.388 . S
C983 C982 1.366 . S
C983 C987 1.385 . S
C984 H965 0.951 . S
C984 C982 1.388 . S
C984 C985 1.366 . S
C985 C984 1.366 . S
C985 C986 1.414 . S
C985 C988 1.499 . S
C986 H966 0.950 . S
C986 C985 1.414 . S
C986 C987 1.374 . S
C987 H967 0.950 . S
C987 C983 1.385 . S
C987 C986 1.374 . S
C988 C985 1.499 . S
C988 C989 1.373 . S
C988 C990 1.389 . S
C989 H968 0.950 . S
C989 C988 1.373 . S
C989 C1005 1.377 . S
C990 C988 1.389 . S
C990 C991 1.524 . S
C990 C1004 1.377 . S
C991 C990 1.524 . S
C991 C992 1.397 . S
C991 C996 1.363 . S
C992 H969 0.950 . S
C992 C991 1.397 . S
C992 C993 1.334 . S
C993 H970 0.950 . S
C993 C992 1.334 . S
C993 C994 1.287 . S
C994 C993 1.287 . S
C994 C995 1.524 . S
C994 H1013 0.913 . S
C995 H971 0.950 . S
C995 C994 1.524 . S
C995 C996 1.415 . S
C996 H972 0.950 . S
C996 C991 1.363 . S
C996 C995 1.415 . S
C997 H973 0.951 . S
C997 C998 1.366 . S
C997 C999 1.388 . S
C998 C997 1.366 . S
C998 C1002 1.385 . S
C999 H974 0.951 . S
C999 C997 1.388 . S
C999 C1000 1.366 . S
C1000 C999 1.366 . S
C1000 C1001 1.414 . S
C1000 C1003 1.499 . S
C1001 H975 0.950 . S
C1001 C1000 1.414 . S
C1001 C1002 1.374 . S
C1002 H976 0.950 . S
C1002 C998 1.385 . S
C1002 C1001 1.374 . S
C1003 C1000 1.499 . S
C1003 C1004 1.373 . S
C1003 C1005 1.389 . S
C1004 H977 0.950 . S
C1004 C990 1.377 . S
C1004 C1003 1.373 . S
C1005 C989 1.377 . S
C1005 C1003 1.389 . S
C1005 C1006 1.524 . S
C1006 C1005 1.524 . S
C1006 C1007 1.397 . S
C1006 C1011 1.363 . S
C1007 H978 0.950 . S
C1007 C1006 1.397 . S
C1007 C1008 1.334 . S
C1008 H979 0.950 . S
C1008 C1007 1.334 . S
C1008 C1009 1.287 . S
C1009 C1008 1.287 . S
C1009 C1010 1.524 . S
C1009 H1012 0.999 1_556 S
C1010 H980 0.950 1_556 S
C1010 C1009 1.524 . S
C1010 C1011 1.415 . S
C1011 H981 0.950 . S
C1011 C1006 1.363 . S
C1011 C1010 1.415 . S
H1012 C1009 0.999 1_554 S
H1013 C994 0.913 . S
H1014 C1032 0.951 . S
H1015 C1034 0.951 . S
H1016 C1036 0.950 . S
H1017 C1037 0.950 . S
H1018 C1039 0.950 . S
H1019 C1042 0.950 . S
H1020 C1043 0.950 . S
H1021 C1045 0.950 . S
H1022 C1046 0.950 . S
H1023 C1047 0.951 . S
H1024 C1049 0.951 . S
H1025 C1051 0.950 . S
H1026 C1052 0.950 . S
H1027 C1054 0.950 . S
H1028 C1057 0.950 . S
H1029 C1058 0.950 . S
H1030 C1060 0.950 . S
H1031 C1061 0.950 . S
C1032 H1014 0.951 . S
C1032 C1033 1.366 . S
C1032 C1034 1.388 . S
C1033 C1032 1.366 . S
C1033 C1037 1.385 . S
C1034 H1015 0.951 . S
C1034 C1032 1.388 . S
C1034 C1035 1.366 . S
C1035 C1034 1.366 . S
C1035 C1036 1.414 . S
C1035 C1038 1.499 . S
C1036 H1016 0.950 . S
C1036 C1035 1.414 . S
C1036 C1037 1.374 . S
C1037 H1017 0.950 . S
C1037 C1033 1.385 . S
C1037 C1036 1.374 . S
C1038 C1035 1.499 . S
C1038 C1039 1.373 . S
C1038 C1040 1.389 . S
C1039 H1018 0.950 . S
C1039 C1038 1.373 . S
C1039 C1055 1.377 . S
C1040 C1038 1.389 . S
C1040 C1041 1.524 . S
C1040 C1054 1.377 . S
C1041 C1040 1.524 . S
C1041 C1042 1.397 . S
C1041 C1046 1.363 . S
C1042 H1019 0.950 . S
C1042 C1041 1.397 . S
C1042 C1043 1.334 . S
C1043 H1020 0.950 . S
C1043 C1042 1.334 . S
C1043 C1044 1.287 . S
C1044 C1043 1.287 . S
C1044 C1045 1.524 . S
C1044 H1063 0.913 . S
C1045 H1021 0.950 . S
C1045 C1044 1.524 . S
C1045 C1046 1.415 . S
C1046 H1022 0.950 . S
C1046 C1041 1.363 . S
C1046 C1045 1.415 . S
C1047 H1023 0.951 . S
C1047 C1048 1.366 . S
C1047 C1049 1.388 . S
C1048 C1047 1.366 . S
C1048 C1052 1.385 . S
C1049 H1024 0.951 . S
C1049 C1047 1.388 . S
C1049 C1050 1.366 . S
C1050 C1049 1.366 . S
C1050 C1051 1.414 . S
C1050 C1053 1.499 . S
C1051 H1025 0.950 . S
C1051 C1050 1.414 . S
C1051 C1052 1.374 . S
C1052 H1026 0.950 . S
C1052 C1048 1.385 . S
C1052 C1051 1.374 . S
C1053 C1050 1.499 . S
C1053 C1054 1.373 . S
C1053 C1055 1.389 . S
C1054 H1027 0.950 . S
C1054 C1040 1.377 . S
C1054 C1053 1.373 . S
C1055 C1039 1.377 . S
C1055 C1053 1.389 . S
C1055 C1056 1.524 . S
C1056 C1055 1.524 . S
C1056 C1057 1.397 . S
C1056 C1061 1.363 . S
C1057 H1028 0.950 . S
C1057 C1056 1.397 . S
C1057 C1058 1.334 . S
C1058 H1029 0.950 . S
C1058 C1057 1.334 . S
C1058 C1059 1.287 . S
C1059 C1058 1.287 . S
C1059 C1060 1.524 . S
C1059 H1062 0.999 . S
C1060 H1030 0.950 . S
C1060 C1059 1.524 . S
C1060 C1061 1.415 . S
C1061 H1031 0.950 . S
C1061 C1056 1.363 . S
C1061 C1060 1.415 . S
H1062 C1059 0.999 . S
H1063 C1044 0.913 . S
H1064 C1082 0.951 . S
H1065 C1084 0.951 . S
H1066 C1086 0.950 . S
H1067 C1087 0.950 . S
H1068 C1089 0.950 . S
H1069 C1092 0.950 . S
H1070 C1093 0.950 . S
H1071 C1095 0.950 . S
H1072 C1096 0.950 . S
H1073 C1097 0.951 . S
H1074 C1099 0.951 . S
H1075 C1101 0.950 . S
H1076 C1102 0.950 . S
H1077 C1104 0.950 . S
H1078 C1107 0.950 . S
H1079 C1108 0.950 . S
H1080 C1110 0.950 . S
H1081 C1111 0.950 . S
C1082 H1064 0.951 . S
C1082 C1083 1.366 . S
C1082 C1084 1.388 . S
C1083 C1082 1.366 . S
C1083 C1087 1.385 . S
C1084 H1065 0.951 . S
C1084 C1082 1.388 . S
C1084 C1085 1.366 . S
C1085 C1084 1.366 . S
C1085 C1086 1.414 . S
C1085 C1088 1.499 . S
C1086 H1066 0.950 . S
C1086 C1085 1.414 . S
C1086 C1087 1.374 . S
C1087 H1067 0.950 . S
C1087 C1083 1.385 . S
C1087 C1086 1.374 . S
C1088 C1085 1.499 . S
C1088 C1089 1.373 . S
C1088 C1090 1.389 . S
C1089 H1068 0.950 . S
C1089 C1088 1.373 . S
C1089 C1105 1.377 . S
C1090 C1088 1.389 . S
C1090 C1091 1.524 . S
C1090 C1104 1.377 . S
C1091 C1090 1.524 . S
C1091 C1092 1.397 . S
C1091 C1096 1.363 . S
C1092 H1069 0.950 . S
C1092 C1091 1.397 . S
C1092 C1093 1.334 . S
C1093 H1070 0.950 . S
C1093 C1092 1.334 . S
C1093 C1094 1.286 . S
C1094 C1093 1.286 . S
C1094 C1095 1.523 . S
C1094 H1113 0.915 1_554 S
C1095 H1071 0.950 . S
C1095 C1094 1.523 . S
C1095 C1096 1.415 . S
C1096 H1072 0.950 . S
C1096 C1091 1.363 . S
C1096 C1095 1.415 . S
C1097 H1073 0.951 . S
C1097 C1098 1.366 . S
C1097 C1099 1.388 . S
C1098 C1097 1.366 . S
C1098 C1102 1.385 . S
C1099 H1074 0.951 . S
C1099 C1097 1.388 . S
C1099 C1100 1.366 . S
C1100 C1099 1.366 . S
C1100 C1101 1.414 . S
C1100 C1103 1.499 . S
C1101 H1075 0.950 . S
C1101 C1100 1.414 . S
C1101 C1102 1.374 . S
C1102 H1076 0.950 . S
C1102 C1098 1.385 . S
C1102 C1101 1.374 . S
C1103 C1100 1.499 . S
C1103 C1104 1.373 . S
C1103 C1105 1.389 . S
C1104 H1077 0.950 . S
C1104 C1090 1.377 . S
C1104 C1103 1.373 . S
C1105 C1089 1.377 . S
C1105 C1103 1.389 . S
C1105 C1106 1.524 . S
C1106 C1105 1.524 . S
C1106 C1107 1.397 . S
C1106 C1111 1.363 . S
C1107 H1078 0.950 . S
C1107 C1106 1.397 . S
C1107 C1108 1.334 . S
C1108 H1079 0.950 . S
C1108 C1107 1.334 . S
C1108 C1109 1.287 . S
C1109 C1108 1.287 . S
C1109 C1110 1.524 . S
C1109 H1112 0.999 . S
C1110 H1080 0.950 . S
C1110 C1109 1.524 . S
C1110 C1111 1.415 . S
C1111 H1081 0.950 . S
C1111 C1106 1.363 . S
C1111 C1110 1.415 . S
H1112 C1109 0.999 . S
H1113 C1094 0.915 1_556 S
H1114 C1132 0.951 . S
H1115 C1134 0.951 . S
H1116 C1136 0.950 . S
H1117 C1137 0.950 . S
H1118 C1139 0.950 . S
H1119 C1142 0.950 . S
H1120 C1143 0.950 . S
H1121 C1145 0.950 . S
H1122 C1146 0.950 . S
H1123 C1147 0.951 . S
H1124 C1149 0.951 . S
H1125 C1151 0.950 . S
H1126 C1152 0.950 . S
H1127 C1154 0.950 . S
H1128 C1157 0.950 . S
H1129 C1158 0.950 . S
H1130 C1160 0.950 . S
H1131 C1161 0.950 . S
C1132 H1114 0.951 . S
C1132 C1133 1.366 . S
C1132 C1134 1.388 . S
C1133 C1132 1.366 . S
C1133 C1137 1.385 . S
C1134 H1115 0.951 . S
C1134 C1132 1.388 . S
C1134 C1135 1.366 . S
C1135 C1134 1.366 . S
C1135 C1136 1.414 . S
C1135 C1138 1.499 . S
C1136 H1116 0.950 . S
C1136 C1135 1.414 . S
C1136 C1137 1.374 . S
C1137 H1117 0.950 . S
C1137 C1133 1.385 . S
C1137 C1136 1.374 . S
C1138 C1135 1.499 . S
C1138 C1139 1.373 . S
C1138 C1140 1.389 . S
C1139 H1118 0.950 . S
C1139 C1138 1.373 . S
C1139 C1155 1.377 . S
C1140 C1138 1.389 . S
C1140 C1141 1.524 . S
C1140 C1154 1.377 . S
C1141 C1140 1.524 . S
C1141 C1142 1.397 . S
C1141 C1146 1.363 . S
C1142 H1119 0.950 . S
C1142 C1141 1.397 . S
C1142 C1143 1.334 . S
C1143 H1120 0.950 . S
C1143 C1142 1.334 . S
C1143 C1144 1.287 . S
C1144 C1143 1.287 . S
C1144 C1145 1.524 . S
C1144 H1163 0.913 . S
C1145 H1121 0.950 . S
C1145 C1144 1.524 . S
C1145 C1146 1.415 . S
C1146 H1122 0.950 . S
C1146 C1141 1.363 . S
C1146 C1145 1.415 . S
C1147 H1123 0.951 . S
C1147 C1148 1.366 . S
C1147 C1149 1.388 . S
C1148 C1147 1.366 . S
C1148 C1152 1.385 . S
C1149 H1124 0.951 . S
C1149 C1147 1.388 . S
C1149 C1150 1.366 . S
C1150 C1149 1.366 . S
C1150 C1151 1.414 . S
C1150 C1153 1.499 . S
C1151 H1125 0.950 . S
C1151 C1150 1.414 . S
C1151 C1152 1.374 . S
C1152 H1126 0.950 . S
C1152 C1148 1.385 . S
C1152 C1151 1.374 . S
C1153 C1150 1.499 . S
C1153 C1154 1.373 . S
C1153 C1155 1.389 . S
C1154 H1127 0.950 . S
C1154 C1140 1.377 . S
C1154 C1153 1.373 . S
C1155 C1139 1.377 . S
C1155 C1153 1.389 . S
C1155 C1156 1.524 . S
C1156 C1155 1.524 . S
C1156 C1157 1.397 . S
C1156 C1161 1.363 . S
C1157 H1128 0.950 . S
C1157 C1156 1.397 . S
C1157 C1158 1.334 . S
C1158 H1129 0.950 . S
C1158 C1157 1.334 . S
C1158 C1159 1.287 . S
C1159 C1158 1.287 . S
C1159 C1160 1.524 . S
C1159 H1162 0.999 . S
C1160 H1130 0.950 . S
C1160 C1159 1.524 . S
C1160 C1161 1.415 . S
C1161 H1131 0.950 . S
C1161 C1156 1.363 . S
C1161 C1160 1.415 . S
H1162 C1159 0.999 . S
H1163 C1144 0.913 . S
H1164 C1182 0.951 . S
H1165 C1184 0.951 . S
H1166 C1186 0.950 . S
H1167 C1187 0.950 . S
H1168 C1189 0.950 . S
H1169 C1192 0.950 . S
H1170 C1193 0.950 . S
H1171 C1195 0.950 . S
H1172 C1196 0.950 . S
H1173 C1197 0.951 . S
H1174 C1199 0.951 . S
H1175 C1201 0.950 . S
H1176 C1202 0.950 . S
H1177 C1204 0.950 . S
H1178 C1207 0.950 . S
H1179 C1208 0.950 . S
H1180 C1210 0.950 . S
H1181 C1211 0.950 . S
C1182 H1164 0.951 . S
C1182 C1183 1.366 . S
C1182 C1184 1.388 . S
C1183 C1182 1.366 . S
C1183 C1187 1.385 . S
C1184 H1165 0.951 . S
C1184 C1182 1.388 . S
C1184 C1185 1.366 . S
C1185 C1184 1.366 . S
C1185 C1186 1.414 . S
C1185 C1188 1.499 . S
C1186 H1166 0.950 . S
C1186 C1185 1.414 . S
C1186 C1187 1.374 . S
C1187 H1167 0.950 . S
C1187 C1183 1.385 . S
C1187 C1186 1.374 . S
C1188 C1185 1.499 . S
C1188 C1189 1.373 . S
C1188 C1190 1.389 . S
C1189 H1168 0.950 . S
C1189 C1188 1.373 . S
C1189 C1205 1.377 . S
C1190 C1188 1.389 . S
C1190 C1191 1.524 . S
C1190 C1204 1.377 . S
C1191 C1190 1.524 . S
C1191 C1192 1.397 . S
C1191 C1196 1.363 . S
C1192 H1169 0.950 . S
C1192 C1191 1.397 . S
C1192 C1193 1.334 . S
C1193 H1170 0.950 . S
C1193 C1192 1.334 . S
C1193 C1194 1.287 . S
C1194 C1193 1.287 . S
C1194 C1195 1.524 . S
C1194 H1213 0.913 . S
C1195 H1171 0.950 . S
C1195 C1194 1.524 . S
C1195 C1196 1.415 . S
C1196 H1172 0.950 . S
C1196 C1191 1.363 . S
C1196 C1195 1.415 . S
C1197 H1173 0.951 . S
C1197 C1198 1.366 . S
C1197 C1199 1.388 . S
C1198 C1197 1.366 . S
C1198 C1202 1.385 . S
C1199 H1174 0.951 . S
C1199 C1197 1.388 . S
C1199 C1200 1.366 . S
C1200 C1199 1.366 . S
C1200 C1201 1.414 . S
C1200 C1203 1.499 . S
C1201 H1175 0.950 . S
C1201 C1200 1.414 . S
C1201 C1202 1.374 . S
C1202 H1176 0.950 . S
C1202 C1198 1.385 . S
C1202 C1201 1.374 . S
C1203 C1200 1.499 . S
C1203 C1204 1.373 . S
C1203 C1205 1.389 . S
C1204 H1177 0.950 . S
C1204 C1190 1.377 . S
C1204 C1203 1.373 . S
C1205 C1189 1.377 . S
C1205 C1203 1.389 . S
C1205 C1206 1.524 . S
C1206 C1205 1.524 . S
C1206 C1207 1.397 . S
C1206 C1211 1.363 . S
C1207 H1178 0.950 . S
C1207 C1206 1.397 . S
C1207 C1208 1.334 . S
C1208 H1179 0.950 . S
C1208 C1207 1.334 . S
C1208 C1209 1.287 . S
C1209 C1208 1.287 . S
C1209 C1210 1.524 . S
C1209 H1212 0.999 . S
C1210 H1180 0.950 . S
C1210 C1209 1.524 . S
C1210 C1211 1.415 . S
C1211 H1181 0.950 . S
C1211 C1206 1.363 . S
C1211 C1210 1.415 . S
H1212 C1209 0.999 . S
H1213 C1194 0.913 . S
H1214 C1232 0.951 . S
H1215 C1234 0.951 . S
H1216 C1236 0.950 . S
H1217 C1237 0.950 . S
H1218 C1239 0.950 . S
H1219 C1242 0.950 . S
H1220 C1243 0.950 . S
H1221 C1245 0.950 . S
H1222 C1246 0.950 . S
H1223 C1247 0.951 . S
H1224 C1249 0.951 . S
H1225 C1251 0.950 . S
H1226 C1252 0.950 . S
H1227 C1254 0.950 . S
H1228 C1257 0.950 . S
H1229 C1258 0.950 . S
H1230 C1260 0.950 . S
H1231 C1261 0.950 . S
C1232 H1214 0.951 . S
C1232 C1233 1.366 . S
C1232 C1234 1.388 . S
C1233 C1232 1.366 . S
C1233 C1237 1.385 . S
C1234 H1215 0.951 . S
C1234 C1232 1.388 . S
C1234 C1235 1.366 . S
C1235 C1234 1.366 . S
C1235 C1236 1.414 . S
C1235 C1238 1.499 . S
C1236 H1216 0.950 . S
C1236 C1235 1.414 . S
C1236 C1237 1.374 . S
C1237 H1217 0.950 . S
C1237 C1233 1.385 . S
C1237 C1236 1.374 . S
C1238 C1235 1.499 . S
C1238 C1239 1.373 . S
C1238 C1240 1.389 . S
C1239 H1218 0.950 . S
C1239 C1238 1.373 . S
C1239 C1255 1.377 . S
C1240 C1238 1.389 . S
C1240 C1241 1.524 . S
C1240 C1254 1.377 . S
C1241 C1240 1.524 . S
C1241 C1242 1.397 . S
C1241 C1246 1.363 . S
C1242 H1219 0.950 . S
C1242 C1241 1.397 . S
C1242 C1243 1.334 . S
C1243 H1220 0.950 . S
C1243 C1242 1.334 . S
C1243 C1244 1.287 . S
C1244 C1243 1.287 . S
C1244 C1245 1.524 . S
C1244 H1263 0.913 . S
C1245 H1221 0.950 . S
C1245 C1244 1.524 . S
C1245 C1246 1.415 . S
C1246 H1222 0.950 . S
C1246 C1241 1.363 . S
C1246 C1245 1.415 . S
C1247 H1223 0.951 . S
C1247 C1248 1.366 . S
C1247 C1249 1.388 . S
C1248 C1247 1.366 . S
C1248 C1252 1.385 . S
C1249 H1224 0.951 . S
C1249 C1247 1.388 . S
C1249 C1250 1.366 . S
C1250 C1249 1.366 . S
C1250 C1251 1.414 . S
C1250 C1253 1.499 . S
C1251 H1225 0.950 . S
C1251 C1250 1.414 . S
C1251 C1252 1.374 . S
C1252 H1226 0.950 . S
C1252 C1248 1.385 . S
C1252 C1251 1.374 . S
C1253 C1250 1.499 . S
C1253 C1254 1.373 . S
C1253 C1255 1.389 . S
C1254 H1227 0.950 . S
C1254 C1240 1.377 . S
C1254 C1253 1.373 . S
C1255 C1239 1.377 . S
C1255 C1253 1.389 . S
C1255 C1256 1.524 . S
C1256 C1255 1.524 . S
C1256 C1257 1.397 . S
C1256 C1261 1.363 . S
C1257 H1228 0.950 . S
C1257 C1256 1.397 . S
C1257 C1258 1.334 . S
C1258 H1229 0.950 . S
C1258 C1257 1.334 . S
C1258 C1259 1.287 . S
C1259 C1258 1.287 . S
C1259 C1260 1.524 . S
C1259 H1262 0.999 . S
C1260 H1230 0.950 . S
C1260 C1259 1.524 . S
C1260 C1261 1.415 . S
C1261 H1231 0.950 . S
C1261 C1256 1.363 . S
C1261 C1260 1.415 . S
H1262 C1259 0.999 . S
H1263 C1244 0.913 . S
H1264 C1282 0.951 . S
H1265 C1284 0.951 . S
H1266 C1286 0.950 1_556 S
H1267 C1287 0.950 1_556 S
H1268 C1289 0.950 . S
H1269 C1292 0.950 . S
H1270 C1293 0.950 . S
H1271 C1295 0.950 . S
H1272 C1296 0.950 . S
H1273 C1297 0.951 1_556 S
H1274 C1299 0.951 1_556 S
H1275 C1301 0.950 . S
H1276 C1302 0.950 . S
H1277 C1304 0.950 . S
H1278 C1307 0.950 . S
H1279 C1308 0.950 . S
H1280 C1310 0.950 . S
H1281 C1311 0.950 . S
C1282 H1264 0.951 . S
C1282 C1283 1.366 . S
C1282 C1284 1.388 . S
C1283 C1282 1.366 . S
C1283 C1287 1.385 . S
C1284 H1265 0.951 . S
C1284 C1282 1.388 . S
C1284 C1285 1.366 . S
C1285 C1284 1.366 . S
C1285 C1286 1.414 . S
C1285 C1288 1.499 . S
C1286 H1266 0.950 1_554 S
C1286 C1285 1.414 . S
C1286 C1287 1.374 . S
C1287 H1267 0.950 1_554 S
C1287 C1283 1.385 . S
C1287 C1286 1.374 . S
C1288 C1285 1.499 . S
C1288 C1289 1.373 1_554 S
C1288 C1290 1.389 . S
C1289 H1268 0.950 . S
C1289 C1288 1.373 1_556 S
C1289 C1305 1.377 . S
C1290 C1288 1.389 . S
C1290 C1291 1.524 . S
C1290 C1304 1.377 . S
C1291 C1290 1.524 . S
C1291 C1292 1.397 . S
C1291 C1296 1.363 . S
C1292 H1269 0.950 . S
C1292 C1291 1.397 . S
C1292 C1293 1.334 . S
C1293 H1270 0.950 . S
C1293 C1292 1.334 . S
C1293 C1294 1.287 . S
C1294 C1293 1.287 . S
C1294 C1295 1.524 . S
C1294 H1313 0.913 . S
C1295 H1271 0.950 . S
C1295 C1294 1.524 . S
C1295 C1296 1.415 . S
C1296 H1272 0.950 . S
C1296 C1291 1.363 . S
C1296 C1295 1.415 . S
C1297 H1273 0.951 1_554 S
C1297 C1298 1.366 . S
C1297 C1299 1.388 . S
C1298 C1297 1.366 . S
C1298 C1302 1.385 . S
C1299 H1274 0.951 1_554 S
C1299 C1297 1.388 . S
C1299 C1300 1.366 . S
C1300 C1299 1.366 . S
C1300 C1301 1.414 . S
C1300 C1303 1.499 . S
C1301 H1275 0.950 . S
C1301 C1300 1.414 . S
C1301 C1302 1.374 . S
C1302 H1276 0.950 . S
C1302 C1298 1.385 . S
C1302 C1301 1.374 . S
C1303 C1300 1.499 . S
C1303 C1304 1.373 . S
C1303 C1305 1.389 1_554 S
C1304 H1277 0.950 . S
C1304 C1290 1.377 . S
C1304 C1303 1.373 . S
C1305 C1289 1.377 . S
C1305 C1303 1.389 1_556 S
C1305 C1306 1.524 . S
C1306 C1305 1.524 . S
C1306 C1307 1.397 . S
C1306 C1311 1.363 . S
C1307 H1278 0.950 . S
C1307 C1306 1.397 . S
C1307 C1308 1.334 . S
C1308 H1279 0.950 . S
C1308 C1307 1.334 . S
C1308 C1309 1.287 . S
C1309 C1308 1.287 . S
C1309 C1310 1.524 . S
C1309 H1312 0.999 . S
C1310 H1280 0.950 . S
C1310 C1309 1.524 . S
C1310 C1311 1.415 . S
C1311 H1281 0.950 . S
C1311 C1306 1.363 . S
C1311 C1310 1.415 . S
H1312 C1309 0.999 . S
H1313 C1294 0.913 . S
H1314 C1332 0.951 . S
H1315 C1334 0.951 . S
H1316 C1336 0.950 . S
H1317 C1337 0.950 . S
H1318 C1339 0.950 . S
H1319 C1342 0.950 1_554 S
H1320 C1343 0.950 . S
H1321 C1345 0.950 . S
H1322 C1346 0.950 . S
H1323 C1347 0.951 . S
H1324 C1349 0.951 . S
H1325 C1351 0.950 . S
H1326 C1352 0.950 . S
H1327 C1354 0.950 . S
H1328 C1357 0.950 . S
H1329 C1358 0.950 . S
H1330 C1360 0.950 . S
H1331 C1361 0.950 . S
C1332 H1314 0.951 . S
C1332 C1333 1.366 1_556 S
C1332 C1334 1.388 . S
C1333 C1332 1.366 1_554 S
C1333 C1337 1.385 . S
C1334 H1315 0.951 . S
C1334 C1332 1.388 . S
C1334 C1335 1.366 1_556 S
C1335 C1334 1.366 1_554 S
C1335 C1336 1.414 . S
C1335 C1338 1.499 . S
C1336 H1316 0.950 . S
C1336 C1335 1.414 . S
C1336 C1337 1.374 . S
C1337 H1317 0.950 . S
C1337 C1333 1.385 . S
C1337 C1336 1.374 . S
C1338 C1335 1.499 . S
C1338 C1339 1.373 . S
C1338 C1340 1.369 1_554 S
C1339 H1318 0.950 . S
C1339 C1338 1.373 . S
C1339 C1355 1.377 . S
C1340 C1338 1.369 1_556 S
C1340 C1341 1.544 . S
C1340 C1354 1.378 . S
C1341 C1340 1.544 . S
C1341 C1342 1.397 . S
C1341 C1346 1.363 . S
C1342 H1319 0.950 1_556 S
C1342 C1341 1.397 . S
C1342 C1343 1.334 . S
C1343 H1320 0.950 . S
C1343 C1342 1.334 . S
C1343 C1344 1.287 . S
C1344 C1343 1.287 . S
C1344 C1345 1.524 . S
C1344 H1363 0.913 . S
C1345 H1321 0.950 . S
C1345 C1344 1.524 . S
C1345 C1346 1.415 . S
C1346 H1322 0.950 . S
C1346 C1341 1.363 . S
C1346 C1345 1.415 . S
C1347 H1323 0.951 . S
C1347 C1348 1.366 . S
C1347 C1349 1.388 . S
C1348 C1347 1.366 . S
C1348 C1352 1.385 1_554 S
C1349 H1324 0.951 . S
C1349 C1347 1.388 . S
C1349 C1350 1.366 . S
C1350 C1349 1.366 . S
C1350 C1351 1.414 1_554 S
C1350 C1353 1.499 . S
C1351 H1325 0.950 . S
C1351 C1350 1.414 1_556 S
C1351 C1352 1.374 . S
C1352 H1326 0.950 . S
C1352 C1348 1.385 1_556 S
C1352 C1351 1.374 . S
C1353 C1350 1.499 . S
C1353 C1354 1.373 1_554 S
C1353 C1355 1.389 . S
C1354 H1327 0.950 . S
C1354 C1340 1.378 . S
C1354 C1353 1.373 1_556 S
C1355 C1339 1.377 . S
C1355 C1353 1.389 . S
C1355 C1356 1.524 . S
C1356 C1355 1.524 . S
C1356 C1357 1.397 . S
C1356 C1361 1.363 . S
C1357 H1328 0.950 . S
C1357 C1356 1.397 . S
C1357 C1358 1.334 . S
C1358 H1329 0.950 . S
C1358 C1357 1.334 . S
C1358 C1359 1.287 . S
C1359 C1358 1.287 . S
C1359 C1360 1.524 . S
C1359 H1362 0.999 . S
C1360 H1330 0.950 . S
C1360 C1359 1.524 . S
C1360 C1361 1.415 . S
C1361 H1331 0.950 . S
C1361 C1356 1.363 . S
C1361 C1360 1.415 . S
H1362 C1359 0.999 . S
H1363 C1344 0.913 . S
H1364 C1382 0.951 . S
H1365 C1384 0.951 . S
H1366 C1386 0.950 . S
H1367 C1387 0.950 . S
H1368 C1389 0.950 . S
H1369 C1392 0.950 . S
H1370 C1393 0.950 . S
H1371 C1395 0.950 . S
H1372 C1396 0.950 . S
H1373 C1397 0.951 . S
H1374 C1399 0.951 . S
H1375 C1401 0.950 . S
H1376 C1402 0.950 . S
H1377 C1404 0.950 . S
H1378 C1407 0.950 . S
H1379 C1408 0.950 . S
H1380 C1410 0.950 . S
H1381 C1411 0.950 . S
C1382 H1364 0.951 . S
C1382 C1383 1.366 . S
C1382 C1384 1.388 . S
C1383 C1382 1.366 . S
C1383 C1387 1.385 . S
C1384 H1365 0.951 . S
C1384 C1382 1.388 . S
C1384 C1385 1.366 . S
C1385 C1384 1.366 . S
C1385 C1386 1.414 . S
C1385 C1388 1.499 . S
C1386 H1366 0.950 . S
C1386 C1385 1.414 . S
C1386 C1387 1.374 . S
C1387 H1367 0.950 . S
C1387 C1383 1.385 . S
C1387 C1386 1.374 . S
C1388 C1385 1.499 . S
C1388 C1389 1.373 . S
C1388 C1390 1.389 1_655 S
C1389 H1368 0.950 . S
C1389 C1388 1.373 . S
C1389 C1405 1.377 . S
C1390 C1388 1.389 1_455 S
C1390 C1391 1.524 . S
C1390 C1404 1.377 . S
C1391 C1390 1.524 . S
C1391 C1392 1.397 . S
C1391 C1396 1.363 . S
C1392 H1369 0.950 . S
C1392 C1391 1.397 . S
C1392 C1393 1.334 . S
C1393 H1370 0.950 . S
C1393 C1392 1.334 . S
C1393 C1394 1.287 . S
C1394 C1393 1.287 . S
C1394 C1395 1.524 . S
C1394 H1413 0.913 . S
C1395 H1371 0.950 . S
C1395 C1394 1.524 . S
C1395 C1396 1.415 . S
C1396 H1372 0.950 . S
C1396 C1391 1.363 . S
C1396 C1395 1.415 . S
C1397 H1373 0.951 . S
C1397 C1398 1.366 . S
C1397 C1399 1.388 . S
C1398 C1397 1.366 . S
C1398 C1402 1.385 . S
C1399 H1374 0.951 . S
C1399 C1397 1.388 . S
C1399 C1400 1.366 . S
C1400 C1399 1.366 . S
C1400 C1401 1.414 . S
C1400 C1403 1.499 . S
C1401 H1375 0.950 . S
C1401 C1400 1.414 . S
C1401 C1402 1.374 . S
C1402 H1376 0.950 . S
C1402 C1398 1.385 . S
C1402 C1401 1.374 . S
C1403 C1400 1.499 . S
C1403 C1404 1.373 . S
C1403 C1405 1.389 1_455 S
C1404 H1377 0.950 . S
C1404 C1390 1.377 . S
C1404 C1403 1.373 . S
C1405 C1389 1.377 . S
C1405 C1403 1.389 1_655 S
C1405 C1406 1.524 . S
C1406 C1405 1.524 . S
C1406 C1407 1.397 . S
C1406 C1411 1.363 . S
C1407 H1378 0.950 . S
C1407 C1406 1.397 . S
C1407 C1408 1.334 . S
C1408 H1379 0.950 . S
C1408 C1407 1.334 . S
C1408 C1409 1.287 . S
C1409 C1408 1.287 . S
C1409 C1410 1.524 . S
C1409 H1412 0.999 . S
C1410 H1380 0.950 . S
C1410 C1409 1.524 . S
C1410 C1411 1.415 . S
C1411 H1381 0.950 . S
C1411 C1406 1.363 . S
C1411 C1410 1.415 . S
H1412 C1409 0.999 . S
H1413 C1394 0.913 . S
H1414 C1432 0.951 . S
H1415 C1434 0.951 . S
H1416 C1436 0.950 . S
H1417 C1437 0.950 . S
H1418 C1439 0.950 . S
H1419 C1442 0.950 . S
H1420 C1443 0.950 . S
H1421 C1445 0.950 . S
H1422 C1446 0.950 . S
H1423 C1447 0.951 . S
H1424 C1449 0.951 . S
H1425 C1451 0.950 . S
H1426 C1452 0.950 . S
H1427 C1454 0.950 . S
H1428 C1457 0.950 . S
H1429 C1458 0.950 . S
H1430 C1460 0.950 . S
H1431 C1461 0.950 . S
C1432 H1414 0.951 . S
C1432 C1433 1.366 . S
C1432 C1434 1.388 . S
C1433 C1432 1.366 . S
C1433 C1437 1.385 . S
C1434 H1415 0.951 . S
C1434 C1432 1.388 . S
C1434 C1435 1.366 . S
C1435 C1434 1.366 . S
C1435 C1436 1.414 . S
C1435 C1438 1.499 . S
C1436 H1416 0.950 . S
C1436 C1435 1.414 . S
C1436 C1437 1.374 . S
C1437 H1417 0.950 . S
C1437 C1433 1.385 . S
C1437 C1436 1.374 . S
C1438 C1435 1.499 . S
C1438 C1439 1.373 . S
C1438 C1440 1.389 . S
C1439 H1418 0.950 . S
C1439 C1438 1.373 . S
C1439 C1455 1.377 . S
C1440 C1438 1.389 . S
C1440 C1441 1.524 . S
C1440 C1454 1.377 . S
C1441 C1440 1.524 . S
C1441 C1442 1.397 . S
C1441 C1446 1.363 . S
C1442 H1419 0.950 . S
C1442 C1441 1.397 . S
C1442 C1443 1.334 . S
C1443 H1420 0.950 . S
C1443 C1442 1.334 . S
C1443 C1444 1.287 . S
C1444 C1443 1.287 . S
C1444 C1445 1.524 . S
C1444 H1463 0.913 . S
C1445 H1421 0.950 . S
C1445 C1444 1.524 . S
C1445 C1446 1.415 . S
C1446 H1422 0.950 . S
C1446 C1441 1.363 . S
C1446 C1445 1.415 . S
C1447 H1423 0.951 . S
C1447 C1448 1.366 . S
C1447 C1449 1.388 . S
C1448 C1447 1.366 . S
C1448 C1452 1.385 . S
C1449 H1424 0.951 . S
C1449 C1447 1.388 . S
C1449 C1450 1.366 . S
C1450 C1449 1.366 . S
C1450 C1451 1.414 . S
C1450 C1453 1.499 . S
C1451 H1425 0.950 . S
C1451 C1450 1.414 . S
C1451 C1452 1.374 . S
C1452 H1426 0.950 . S
C1452 C1448 1.385 . S
C1452 C1451 1.374 . S
C1453 C1450 1.499 . S
C1453 C1454 1.373 . S
C1453 C1455 1.389 . S
C1454 H1427 0.950 . S
C1454 C1440 1.377 . S
C1454 C1453 1.373 . S
C1455 C1439 1.377 . S
C1455 C1453 1.389 . S
C1455 C1456 1.524 . S
C1456 C1455 1.524 . S
C1456 C1457 1.397 . S
C1456 C1461 1.363 . S
C1457 H1428 0.950 . S
C1457 C1456 1.397 . S
C1457 C1458 1.334 . S
C1458 H1429 0.950 . S
C1458 C1457 1.334 . S
C1458 C1459 1.287 . S
C1459 C1458 1.287 . S
C1459 C1460 1.524 . S
C1459 H1462 0.999 . S
C1460 H1430 0.950 . S
C1460 C1459 1.524 . S
C1460 C1461 1.415 . S
C1461 H1431 0.950 . S
C1461 C1456 1.363 . S
C1461 C1460 1.415 . S
H1462 C1459 0.999 . S
H1463 C1444 0.913 . S
H1464 C1482 0.951 . S
H1465 C1484 0.951 . S
H1466 C1486 0.950 . S
H1467 C1487 0.950 . S
H1468 C1489 0.950 . S
H1469 C1492 0.950 . S
H1470 C1493 0.950 . S
H1471 C1495 0.950 . S
H1472 C1496 0.950 . S
H1473 C1497 0.951 . S
H1474 C1499 0.951 . S
H1475 C1501 0.950 . S
H1476 C1502 0.950 . S
H1477 C1504 0.950 . S
H1478 C1507 0.950 . S
H1479 C1508 0.950 . S
H1480 C1510 0.950 . S
H1481 C1511 0.950 . S
C1482 H1464 0.951 . S
C1482 C1483 1.366 . S
C1482 C1484 1.388 . S
C1483 C1482 1.366 . S
C1483 C1487 1.385 . S
C1484 H1465 0.951 . S
C1484 C1482 1.388 . S
C1484 C1485 1.366 . S
C1485 C1484 1.366 . S
C1485 C1486 1.414 . S
C1485 C1488 1.499 . S
C1486 H1466 0.950 . S
C1486 C1485 1.414 . S
C1486 C1487 1.374 . S
C1487 H1467 0.950 . S
C1487 C1483 1.385 . S
C1487 C1486 1.374 . S
C1488 C1485 1.499 . S
C1488 C1489 1.373 . S
C1488 C1490 1.389 . S
C1489 H1468 0.950 . S
C1489 C1488 1.373 . S
C1489 C1505 1.377 . S
C1490 C1488 1.389 . S
C1490 C1491 1.524 . S
C1490 C1504 1.377 . S
C1491 C1490 1.524 . S
C1491 C1492 1.397 . S
C1491 C1496 1.363 . S
C1492 H1469 0.950 . S
C1492 C1491 1.397 . S
C1492 C1493 1.334 . S
C1493 H1470 0.950 . S
C1493 C1492 1.334 . S
C1493 C1494 1.287 . S
C1494 C1493 1.287 . S
C1494 C1495 1.524 . S
C1494 H1513 0.913 . S
C1495 H1471 0.950 . S
C1495 C1494 1.524 . S
C1495 C1496 1.415 . S
C1496 H1472 0.950 . S
C1496 C1491 1.363 . S
C1496 C1495 1.415 . S
C1497 H1473 0.951 . S
C1497 C1498 1.366 . S
C1497 C1499 1.388 . S
C1498 C1497 1.366 . S
C1498 C1502 1.385 . S
C1499 H1474 0.951 . S
C1499 C1497 1.388 . S
C1499 C1500 1.366 . S
C1500 C1499 1.366 . S
C1500 C1501 1.414 . S
C1500 C1503 1.499 . S
C1501 H1475 0.950 . S
C1501 C1500 1.414 . S
C1501 C1502 1.374 . S
C1502 H1476 0.950 . S
C1502 C1498 1.385 . S
C1502 C1501 1.374 . S
C1503 C1500 1.499 . S
C1503 C1504 1.373 . S
C1503 C1505 1.389 . S
C1504 H1477 0.950 . S
C1504 C1490 1.377 . S
C1504 C1503 1.373 . S
C1505 C1489 1.377 . S
C1505 C1503 1.389 . S
C1505 C1506 1.524 . S
C1506 C1505 1.524 . S
C1506 C1507 1.397 . S
C1506 C1511 1.363 . S
C1507 H1478 0.950 . S
C1507 C1506 1.397 . S
C1507 C1508 1.334 . S
C1508 H1479 0.950 . S
C1508 C1507 1.334 . S
C1508 C1509 1.287 . S
C1509 C1508 1.287 . S
C1509 C1510 1.524 . S
C1509 H1512 0.999 . S
C1510 H1480 0.950 . S
C1510 C1509 1.524 . S
C1510 C1511 1.415 . S
C1511 H1481 0.950 . S
C1511 C1506 1.363 . S
C1511 C1510 1.415 . S
H1512 C1509 0.999 . S
H1513 C1494 0.913 . S
H1514 C1532 0.951 . S
H1515 C1534 0.951 . S
H1516 C1536 0.950 1_455 S
H1517 C1537 0.950 . S
H1518 C1539 0.950 . S
H1519 C1542 0.987 . S
H1520 C1543 0.950 1_455 S
H1521 C1545 0.950 . S
H1522 C1546 0.950 1_545 S
H1523 C1547 0.951 . S
H1524 C1549 0.951 . S
H1525 C1551 0.950 1_655 S
H1526 C1552 0.950 . S
H1527 C1554 0.950 . S
H1528 C1557 0.987 . S
H1529 C1558 0.950 1_655 S
H1530 C1560 0.950 . S
H1531 C1561 0.950 1_565 S
C1532 H1514 0.951 . S
C1532 C1533 1.366 . S
C1532 C1534 1.388 . S
C1533 C1532 1.366 . S
C1533 C1537 1.385 . S
C1534 H1515 0.951 . S
C1534 C1532 1.388 . S
C1534 C1535 1.366 . S
C1535 C1534 1.366 . S
C1535 C1536 1.414 . S
C1535 C1538 1.499 . S
C1536 H1516 0.950 1_655 S
C1536 C1535 1.414 . S
C1536 C1537 1.374 . S
C1537 H1517 0.950 . S
C1537 C1533 1.385 . S
C1537 C1536 1.374 . S
C1538 C1535 1.499 . S
C1538 C1539 1.374 . S
C1538 C1540 1.389 . S
C1539 H1518 0.950 . S
C1539 C1538 1.374 . S
C1539 C1555 1.376 1_665 S
C1540 C1538 1.389 . S
C1540 C1541 1.524 . S
C1540 C1554 1.376 1_665 S
C1541 C1540 1.524 . S
C1541 C1542 1.368 1_655 S
C1541 C1546 1.363 . S
C1542 H1519 0.987 . S
C1542 C1541 1.368 1_455 S
C1542 C1543 1.329 1_455 S
C1543 H1520 0.950 1_655 S
C1543 C1542 1.329 1_655 S
C1543 C1544 1.287 . S
C1544 C1543 1.287 . S
C1544 C1545 1.524 . S
C1544 H1563 0.913 . S
C1545 H1521 0.950 . S
C1545 C1544 1.524 . S
C1545 C1546 1.415 . S
C1546 H1522 0.950 1_565 S
C1546 C1541 1.363 . S
C1546 C1545 1.415 . S
C1547 H1523 0.951 . S
C1547 C1548 1.366 . S
C1547 C1549 1.388 . S
C1548 C1547 1.366 . S
C1548 C1552 1.385 . S
C1549 H1524 0.951 . S
C1549 C1547 1.388 . S
C1549 C1550 1.366 . S
C1550 C1549 1.366 . S
C1550 C1551 1.414 . S
C1550 C1553 1.499 . S
C1551 H1525 0.950 1_455 S
C1551 C1550 1.414 . S
C1551 C1552 1.374 . S
C1552 H1526 0.950 . S
C1552 C1548 1.385 . S
C1552 C1551 1.374 . S
C1553 C1550 1.499 . S
C1553 C1554 1.374 . S
C1553 C1555 1.389 . S
C1554 H1527 0.950 . S
C1554 C1540 1.376 1_445 S
C1554 C1553 1.374 . S
C1555 C1539 1.376 1_445 S
C1555 C1553 1.389 . S
C1555 C1556 1.524 . S
C1556 C1555 1.524 . S
C1556 C1557 1.368 1_455 S
C1556 C1561 1.363 . S
C1557 H1528 0.987 . S
C1557 C1556 1.368 1_655 S
C1557 C1558 1.329 1_655 S
C1558 H1529 0.950 1_455 S
C1558 C1557 1.329 1_455 S
C1558 C1559 1.287 . S
C1559 C1558 1.287 . S
C1559 C1560 1.524 . S
C1559 H1562 0.999 . S
C1560 H1530 0.950 . S
C1560 C1559 1.524 . S
C1560 C1561 1.415 . S
C1561 H1531 0.950 1_545 S
C1561 C1556 1.363 . S
C1561 C1560 1.415 . S
H1562 C1559 0.999 . S
H1563 C1544 0.913 . S
H1564 C1582 0.951 . S
H1565 C1584 0.951 . S
H1566 C1586 0.950 . S
H1567 C1587 0.950 . S
H1568 C1589 0.950 . S
H1569 C1592 0.950 . S
H1570 C1593 0.950 . S
H1571 C1595 0.950 . S
H1572 C1596 0.950 . S
H1573 C1597 0.951 . S
H1574 C1599 0.951 . S
H1575 C1601 0.950 . S
H1576 C1602 0.950 . S
H1577 C1604 0.950 . S
H1578 C1607 0.950 . S
H1579 C1608 0.950 . S
H1580 C1610 0.950 . S
H1581 C1611 0.950 . S
C1582 H1564 0.951 . S
C1582 C1583 1.366 . S
C1582 C1584 1.388 . S
C1583 C1582 1.366 . S
C1583 C1587 1.385 . S
C1584 H1565 0.951 . S
C1584 C1582 1.388 . S
C1584 C1585 1.366 . S
C1585 C1584 1.366 . S
C1585 C1586 1.414 . S
C1585 C1588 1.499 . S
C1586 H1566 0.950 . S
C1586 C1585 1.414 . S
C1586 C1587 1.374 . S
C1587 H1567 0.950 . S
C1587 C1583 1.385 . S
C1587 C1586 1.374 . S
C1588 C1585 1.499 . S
C1588 C1589 1.373 . S
C1588 C1590 1.389 . S
C1589 H1568 0.950 . S
C1589 C1588 1.373 . S
C1589 C1605 1.377 . S
C1590 C1588 1.389 . S
C1590 C1591 1.524 . S
C1590 C1604 1.377 . S
C1591 C1590 1.524 . S
C1591 C1592 1.397 . S
C1591 C1596 1.363 . S
C1592 H1569 0.950 . S
C1592 C1591 1.397 . S
C1592 C1593 1.334 . S
C1593 H1570 0.950 . S
C1593 C1592 1.334 . S
C1593 C1594 1.287 . S
C1594 C1593 1.287 . S
C1594 C1595 1.524 . S
C1594 H1613 0.913 . S
C1595 H1571 0.950 . S
C1595 C1594 1.524 . S
C1595 C1596 1.415 . S
C1596 H1572 0.950 . S
C1596 C1591 1.363 . S
C1596 C1595 1.415 . S
C1597 H1573 0.951 . S
C1597 C1598 1.366 . S
C1597 C1599 1.388 . S
C1598 C1597 1.366 . S
C1598 C1602 1.385 . S
C1599 H1574 0.951 . S
C1599 C1597 1.388 . S
C1599 C1600 1.366 . S
C1600 C1599 1.366 . S
C1600 C1601 1.414 . S
C1600 C1603 1.499 . S
C1601 H1575 0.950 . S
C1601 C1600 1.414 . S
C1601 C1602 1.374 . S
C1602 H1576 0.950 . S
C1602 C1598 1.385 . S
C1602 C1601 1.374 . S
C1603 C1600 1.499 . S
C1603 C1604 1.373 . S
C1603 C1605 1.389 . S
C1604 H1577 0.950 . S
C1604 C1590 1.377 . S
C1604 C1603 1.373 . S
C1605 C1589 1.377 . S
C1605 C1603 1.389 . S
C1605 C1606 1.524 . S
C1606 C1605 1.524 . S
C1606 C1607 1.397 . S
C1606 C1611 1.363 . S
C1607 H1578 0.950 . S
C1607 C1606 1.397 . S
C1607 C1608 1.334 . S
C1608 H1579 0.950 . S
C1608 C1607 1.334 . S
C1608 C1609 1.287 . S
C1609 C1608 1.287 . S
C1609 C1610 1.524 . S
C1609 H1612 0.999 . S
C1610 H1580 0.950 . S
C1610 C1609 1.524 . S
C1610 C1611 1.415 . S
C1611 H1581 0.950 . S
C1611 C1606 1.363 . S
C1611 C1610 1.415 . S
H1612 C1609 0.999 . S
H1613 C1594 0.913 . S
H1614 C1632 0.951 . S
H1615 C1634 0.951 . S
H1616 C1636 0.950 . S
H1617 C1637 0.950 . S
H1618 C1639 0.950 . S
H1619 C1642 0.950 . S
H1620 C1643 0.950 . S
H1621 C1645 0.950 . S
H1622 C1646 0.950 . S
H1623 C1647 0.951 . S
H1624 C1649 0.951 . S
H1625 C1651 0.950 . S
H1626 C1652 0.950 . S
H1627 C1654 0.950 . S
H1628 C1657 0.950 . S
H1629 C1658 0.950 . S
H1630 C1660 0.950 . S
H1631 C1661 0.950 . S
C1632 H1614 0.951 . S
C1632 C1633 1.366 . S
C1632 C1634 1.388 . S
C1633 C1632 1.366 . S
C1633 C1637 1.385 . S
C1634 H1615 0.951 . S
C1634 C1632 1.388 . S
C1634 C1635 1.366 . S
C1635 C1634 1.366 . S
C1635 C1636 1.414 . S
C1635 C1638 1.499 . S
C1636 H1616 0.950 . S
C1636 C1635 1.414 . S
C1636 C1637 1.374 . S
C1637 H1617 0.950 . S
C1637 C1633 1.385 . S
C1637 C1636 1.374 . S
C1638 C1635 1.499 . S
C1638 C1639 1.373 . S
C1638 C1640 1.389 . S
C1639 H1618 0.950 . S
C1639 C1638 1.373 . S
C1639 C1655 1.377 1_565 S
C1640 C1638 1.389 . S
C1640 C1641 1.524 . S
C1640 C1654 1.377 1_565 S
C1641 C1640 1.524 . S
C1641 C1642 1.397 . S
C1641 C1646 1.363 . S
C1642 H1619 0.950 . S
C1642 C1641 1.397 . S
C1642 C1643 1.334 . S
C1643 H1620 0.950 . S
C1643 C1642 1.334 . S
C1643 C1644 1.287 . S
C1644 C1643 1.287 . S
C1644 C1645 1.524 . S
C1644 H1663 0.913 . S
C1645 H1621 0.950 . S
C1645 C1644 1.524 . S
C1645 C1646 1.415 . S
C1646 H1622 0.950 . S
C1646 C1641 1.363 . S
C1646 C1645 1.415 . S
C1647 H1623 0.951 . S
C1647 C1648 1.366 . S
C1647 C1649 1.388 . S
C1648 C1647 1.366 . S
C1648 C1652 1.385 . S
C1649 H1624 0.951 . S
C1649 C1647 1.388 . S
C1649 C1650 1.366 . S
C1650 C1649 1.366 . S
C1650 C1651 1.414 . S
C1650 C1653 1.499 . S
C1651 H1625 0.950 . S
C1651 C1650 1.414 . S
C1651 C1652 1.374 . S
C1652 H1626 0.950 . S
C1652 C1648 1.385 . S
C1652 C1651 1.374 . S
C1653 C1650 1.499 . S
C1653 C1654 1.373 . S
C1653 C1655 1.389 . S
C1654 H1627 0.950 . S
C1654 C1640 1.377 1_545 S
C1654 C1653 1.373 . S
C1655 C1639 1.377 1_545 S
C1655 C1653 1.389 . S
C1655 C1656 1.524 . S
C1656 C1655 1.524 . S
C1656 C1657 1.397 . S
C1656 C1661 1.363 . S
C1657 H1628 0.950 . S
C1657 C1656 1.397 . S
C1657 C1658 1.334 . S
C1658 H1629 0.950 . S
C1658 C1657 1.334 . S
C1658 C1659 1.287 . S
C1659 C1658 1.287 . S
C1659 C1660 1.524 . S
C1659 H1662 0.999 . S
C1660 H1630 0.950 . S
C1660 C1659 1.524 . S
C1660 C1661 1.415 . S
C1661 H1631 0.950 . S
C1661 C1656 1.363 . S
C1661 C1660 1.415 . S
H1662 C1659 0.999 . S
H1663 C1644 0.913 . S
H1664 C1682 0.951 . S
H1665 C1684 0.951 . S
H1666 C1686 0.950 . S
H1667 C1687 0.950 . S
H1668 C1689 0.950 . S
H1669 C1692 0.950 . S
H1670 C1693 0.950 . S
H1671 C1695 0.950 . S
H1672 C1696 0.950 . S
H1673 C1697 0.951 . S
H1674 C1699 0.951 . S
H1675 C1701 0.950 . S
H1676 C1702 0.950 . S
H1677 C1704 0.950 . S
H1678 C1707 0.950 . S
H1679 C1708 0.950 . S
H1680 C1710 0.950 . S
H1681 C1711 0.950 . S
C1682 H1664 0.951 . S
C1682 C1683 1.366 . S
C1682 C1684 1.388 . S
C1683 C1682 1.366 . S
C1683 C1687 1.385 . S
C1684 H1665 0.951 . S
C1684 C1682 1.388 . S
C1684 C1685 1.366 . S
C1685 C1684 1.366 . S
C1685 C1686 1.414 . S
C1685 C1688 1.499 1_565 S
C1686 H1666 0.950 . S
C1686 C1685 1.414 . S
C1686 C1687 1.374 . S
C1687 H1667 0.950 . S
C1687 C1683 1.385 . S
C1687 C1686 1.374 . S
C1688 C1685 1.499 1_545 S
C1688 C1689 1.373 1_545 S
C1688 C1690 1.389 . S
C1689 H1668 0.950 . S
C1689 C1688 1.373 1_565 S
C1689 C1705 1.377 1_565 S
C1690 C1688 1.389 . S
C1690 C1691 1.524 . S
C1690 C1704 1.377 . S
C1691 C1690 1.524 . S
C1691 C1692 1.397 . S
C1691 C1696 1.363 . S
C1692 H1669 0.950 . S
C1692 C1691 1.397 . S
C1692 C1693 1.334 . S
C1693 H1670 0.950 . S
C1693 C1692 1.334 . S
C1693 C1694 1.287 . S
C1694 C1693 1.287 . S
C1694 C1695 1.524 . S
C1694 H1713 0.913 . S
C1695 H1671 0.950 . S
C1695 C1694 1.524 . S
C1695 C1696 1.415 . S
C1696 H1672 0.950 . S
C1696 C1691 1.363 . S
C1696 C1695 1.415 . S
C1697 H1673 0.951 . S
C1697 C1698 1.366 . S
C1697 C1699 1.388 . S
C1698 C1697 1.366 . S
C1698 C1702 1.385 . S
C1699 H1674 0.951 . S
C1699 C1697 1.388 . S
C1699 C1700 1.366 . S
C1700 C1699 1.366 . S
C1700 C1701 1.414 . S
C1700 C1703 1.499 . S
C1701 H1675 0.950 . S
C1701 C1700 1.414 . S
C1701 C1702 1.374 . S
C1702 H1676 0.950 . S
C1702 C1698 1.385 . S
C1702 C1701 1.374 . S
C1703 C1700 1.499 . S
C1703 C1704 1.373 . S
C1703 C1705 1.389 . S
C1704 H1677 0.950 . S
C1704 C1690 1.377 . S
C1704 C1703 1.373 . S
C1705 C1689 1.377 1_545 S
C1705 C1703 1.389 . S
C1705 C1706 1.524 1_545 S
C1706 C1705 1.524 1_565 S
C1706 C1707 1.397 . S
C1706 C1711 1.363 . S
C1707 H1678 0.950 . S
C1707 C1706 1.397 . S
C1707 C1708 1.334 . S
C1708 H1679 0.950 . S
C1708 C1707 1.334 . S
C1708 C1709 1.287 . S
C1709 C1708 1.287 . S
C1709 C1710 1.524 . S
C1709 H1712 0.999 . S
C1710 H1680 0.950 . S
C1710 C1709 1.524 . S
C1710 C1711 1.415 . S
C1711 H1681 0.950 . S
C1711 C1706 1.363 . S
C1711 C1710 1.415 . S
H1712 C1709 0.999 . S
H1713 C1694 0.913 . S
H1714 C1732 0.951 . S
H1715 C1734 0.951 . S
H1716 C1736 0.950 . S
H1717 C1737 0.950 . S
H1718 C1739 0.950 . S
H1719 C1742 0.950 . S
H1720 C1743 0.938 1_565 S
H1721 C1745 0.950 . S
H1722 C1746 0.950 . S
H1723 C1747 0.951 1_565 S
H1724 C1749 0.951 . S
H1725 C1751 0.950 . S
H1726 C1752 0.950 . S
H1727 C1754 0.950 . S
H1728 C1757 0.950 . S
H1729 C1758 0.950 . S
H1730 C1760 0.950 . S
H1731 C1761 0.950 . S
C1732 H1714 0.951 . S
C1732 C1733 1.366 . S
C1732 C1734 1.388 . S
C1733 C1732 1.366 . S
C1733 C1737 1.385 . S
C1734 H1715 0.951 . S
C1734 C1732 1.388 . S
C1734 C1735 1.366 . S
C1735 C1734 1.366 . S
C1735 C1736 1.414 . S
C1735 C1738 1.499 . S
C1736 H1716 0.950 . S
C1736 C1735 1.414 . S
C1736 C1737 1.374 . S
C1737 H1717 0.950 . S
C1737 C1733 1.385 . S
C1737 C1736 1.374 . S
C1738 C1735 1.499 . S
C1738 C1739 1.373 . S
C1738 C1740 1.389 . S
C1739 H1718 0.950 . S
C1739 C1738 1.373 . S
C1739 C1755 1.377 . S
C1740 C1738 1.389 . S
C1740 C1741 1.524 1_565 S
C1740 C1754 1.377 1_565 S
C1741 C1740 1.524 1_545 S
C1741 C1742 1.397 1_545 S
C1741 C1746 1.363 . S
C1742 H1719 0.950 . S
C1742 C1741 1.397 1_565 S
C1742 C1743 1.334 1_565 S
C1743 H1720 0.938 1_545 S
C1743 C1742 1.334 1_545 S
C1743 C1744 1.287 . S
C1744 C1743 1.287 . S
C1744 C1745 1.524 . S
C1744 H1763 0.913 . S
C1745 H1721 0.950 . S
C1745 C1744 1.524 . S
C1745 C1746 1.415 . S
C1746 H1722 0.950 . S
C1746 C1741 1.363 . S
C1746 C1745 1.415 . S
C1747 H1723 0.951 1_545 S
C1747 C1748 1.366 . S
C1747 C1749 1.388 1_545 S
C1748 C1747 1.366 . S
C1748 C1752 1.385 . S
C1749 H1724 0.951 . S
C1749 C1747 1.388 1_565 S
C1749 C1750 1.366 1_565 S
C1750 C1749 1.366 1_545 S
C1750 C1751 1.414 . S
C1750 C1753 1.499 1_545 S
C1751 H1725 0.950 . S
C1751 C1750 1.414 . S
C1751 C1752 1.374 . S
C1752 H1726 0.950 . S
C1752 C1748 1.385 . S
C1752 C1751 1.374 . S
C1753 C1750 1.499 1_565 S
C1753 C1754 1.373 1_565 S
C1753 C1755 1.389 . S
C1754 H1727 0.950 . S
C1754 C1740 1.377 1_545 S
C1754 C1753 1.373 1_545 S
C1755 C1739 1.377 . S
C1755 C1753 1.389 . S
C1755 C1756 1.524 . S
C1756 C1755 1.524 . S
C1756 C1757 1.397 . S
C1756 C1761 1.363 . S
C1757 H1728 0.950 . S
C1757 C1756 1.397 . S
C1757 C1758 1.334 . S
C1758 H1729 0.950 . S
C1758 C1757 1.334 . S
C1758 C1759 1.287 . S
C1759 C1758 1.287 . S
C1759 C1760 1.524 . S
C1759 H1762 0.999 . S
C1760 H1730 0.950 . S
C1760 C1759 1.524 . S
C1760 C1761 1.415 . S
C1761 H1731 0.950 . S
C1761 C1756 1.363 . S
C1761 C1760 1.415 . S
H1762 C1759 0.999 . S
H1763 C1744 0.913 . S
H1764 C1782 0.951 . S
H1765 C1784 0.951 . S
H1766 C1786 0.950 . S
H1767 C1787 0.950 . S
H1768 C1789 0.950 . S
H1769 C1792 0.950 . S
H1770 C1793 0.950 . S
H1771 C1795 0.950 . S
H1772 C1796 0.950 . S
H1773 C1797 0.954 . S
H1774 C1799 0.951 . S
H1775 C1801 0.950 . S
H1776 C1802 0.950 . S
H1777 C1804 0.950 1_455 S
H1778 C1807 0.950 . S
H1779 C1808 0.950 . S
H1780 C1810 0.950 . S
H1781 C1811 0.950 . S
C1782 H1764 0.951 . S
C1782 C1783 1.366 . S
C1782 C1784 1.388 . S
C1783 C1782 1.366 . S
C1783 C1787 1.385 . S
C1784 H1765 0.951 . S
C1784 C1782 1.388 . S
C1784 C1785 1.366 . S
C1785 C1784 1.366 . S
C1785 C1786 1.414 . S
C1785 C1788 1.499 . S
C1786 H1766 0.950 . S
C1786 C1785 1.414 . S
C1786 C1787 1.374 . S
C1787 H1767 0.950 . S
C1787 C1783 1.385 . S
C1787 C1786 1.374 . S
C1788 C1785 1.499 . S
C1788 C1789 1.373 . S
C1788 C1790 1.389 . S
C1789 H1768 0.950 . S
C1789 C1788 1.373 . S
C1789 C1805 1.377 . S
C1790 C1788 1.389 . S
C1790 C1791 1.524 1_655 S
C1790 C1804 1.377 . S
C1791 C1790 1.524 1_455 S
C1791 C1792 1.397 . S
C1791 C1796 1.363 . S
C1792 H1769 0.950 . S
C1792 C1791 1.397 . S
C1792 C1793 1.334 . S
C1793 H1770 0.950 . S
C1793 C1792 1.334 . S
C1793 C1794 1.287 . S
C1794 C1793 1.287 . S
C1794 C1795 1.524 . S
C1794 H1813 0.913 . S
C1795 H1771 0.950 . S
C1795 C1794 1.524 . S
C1795 C1796 1.415 . S
C1796 H1772 0.950 . S
C1796 C1791 1.363 . S
C1796 C1795 1.415 . S
C1797 H1773 0.954 . S
C1797 C1798 1.365 . S
C1797 C1799 1.388 . S
C1798 C1797 1.365 . S
C1798 C1802 1.384 . S
C1799 H1774 0.951 . S
C1799 C1797 1.388 . S
C1799 C1800 1.366 . S
C1800 C1799 1.366 . S
C1800 C1801 1.414 . S
C1800 C1803 1.499 . S
C1801 H1775 0.950 . S
C1801 C1800 1.414 . S
C1801 C1802 1.374 . S
C1802 H1776 0.950 . S
C1802 C1798 1.384 . S
C1802 C1801 1.374 . S
C1803 C1800 1.499 . S
C1803 C1804 1.373 . S
C1803 C1805 1.389 . S
C1804 H1777 0.950 1_655 S
C1804 C1790 1.377 . S
C1804 C1803 1.373 . S
C1805 C1789 1.377 . S
C1805 C1803 1.389 . S
C1805 C1806 1.524 . S
C1806 C1805 1.524 . S
C1806 C1807 1.397 . S
C1806 C1811 1.363 . S
C1807 H1778 0.950 . S
C1807 C1806 1.397 . S
C1807 C1808 1.334 . S
C1808 H1779 0.950 . S
C1808 C1807 1.334 . S
C1808 C1809 1.287 . S
C1809 C1808 1.287 . S
C1809 C1810 1.524 . S
C1809 H1812 0.999 . S
C1810 H1780 0.950 . S
C1810 C1809 1.524 . S
C1810 C1811 1.415 . S
C1811 H1781 0.950 . S
C1811 C1806 1.363 . S
C1811 C1810 1.415 . S
H1812 C1809 0.999 . S
H1813 C1794 0.913 . S
H1814 C1832 0.951 . S
H1815 C1834 0.951 . S
H1816 C1836 0.950 . S
H1817 C1837 0.950 . S
H1818 C1839 0.950 . S
H1819 C1842 0.950 1_455 S
H1820 C1843 0.950 . S
H1821 C1845 0.950 . S
H1822 C1846 0.950 . S
H1823 C1847 0.951 . S
H1824 C1849 0.951 . S
H1825 C1851 0.950 . S
H1826 C1852 0.950 . S
H1827 C1854 0.913 1_655 S
H1828 C1857 0.950 . S
H1829 C1858 0.950 . S
H1830 C1860 0.950 . S
H1831 C1861 0.950 . S
C1832 H1814 0.951 . S
C1832 C1833 1.365 1_655 S
C1832 C1834 1.388 . S
C1833 C1832 1.365 1_455 S
C1833 C1837 1.385 . S
C1834 H1815 0.951 . S
C1834 C1832 1.388 . S
C1834 C1835 1.366 1_655 S
C1835 C1834 1.366 1_455 S
C1835 C1836 1.414 . S
C1835 C1838 1.499 . S
C1836 H1816 0.950 . S
C1836 C1835 1.414 . S
C1836 C1837 1.374 . S
C1837 H1817 0.950 . S
C1837 C1833 1.385 . S
C1837 C1836 1.374 . S
C1838 C1835 1.499 . S
C1838 C1839 1.373 . S
C1838 C1840 1.389 . S
C1839 H1818 0.950 . S
C1839 C1838 1.373 . S
C1839 C1855 1.377 . S
C1840 C1838 1.389 . S
C1840 C1841 1.524 1_455 S
C1840 C1854 1.377 . S
C1841 C1840 1.524 1_655 S
C1841 C1842 1.397 . S
C1841 C1846 1.363 . S
C1842 H1819 0.950 1_655 S
C1842 C1841 1.397 . S
C1842 C1843 1.334 . S
C1843 H1820 0.950 . S
C1843 C1842 1.334 . S
C1843 C1844 1.287 . S
C1844 C1843 1.287 . S
C1844 C1845 1.524 . S
C1844 H1863 0.913 . S
C1845 H1821 0.950 . S
C1845 C1844 1.524 . S
C1845 C1846 1.415 . S
C1846 H1822 0.950 . S
C1846 C1841 1.363 . S
C1846 C1845 1.415 . S
C1847 H1823 0.951 . S
C1847 C1848 1.366 . S
C1847 C1849 1.388 . S
C1848 C1847 1.366 . S
C1848 C1852 1.385 . S
C1849 H1824 0.951 . S
C1849 C1847 1.388 . S
C1849 C1850 1.366 . S
C1850 C1849 1.366 . S
C1850 C1851 1.414 . S
C1850 C1853 1.499 . S
C1851 H1825 0.950 . S
C1851 C1850 1.414 . S
C1851 C1852 1.374 . S
C1852 H1826 0.950 . S
C1852 C1848 1.385 . S
C1852 C1851 1.374 . S
C1853 C1850 1.499 . S
C1853 C1854 1.373 . S
C1853 C1855 1.389 . S
C1854 H1827 0.913 1_455 S
C1854 C1840 1.377 . S
C1854 C1853 1.373 . S
C1855 C1839 1.377 . S
C1855 C1853 1.389 . S
C1855 C1856 1.524 . S
C1856 C1855 1.524 . S
C1856 C1857 1.397 . S
C1856 C1861 1.363 . S
C1857 H1828 0.950 . S
C1857 C1856 1.397 . S
C1857 C1858 1.334 . S
C1858 H1829 0.950 . S
C1858 C1857 1.334 . S
C1858 C1859 1.287 . S
C1859 C1858 1.287 . S
C1859 C1860 1.524 . S
C1859 H1862 0.999 . S
C1860 H1830 0.950 . S
C1860 C1859 1.524 . S
C1860 C1861 1.415 . S
C1861 H1831 0.950 . S
C1861 C1856 1.363 . S
C1861 C1860 1.415 . S
H1862 C1859 0.999 . S
H1863 C1844 0.913 . S
H1864 C1882 0.951 . S
H1865 C1884 0.951 . S
H1866 C1886 0.950 . S
H1867 C1887 0.950 . S
H1868 C1889 0.950 . S
H1869 C1892 0.950 . S
H1870 C1893 0.950 . S
H1871 C1895 0.950 . S
H1872 C1896 0.950 . S
H1873 C1897 0.951 . S
H1874 C1899 0.951 . S
H1875 C1901 0.950 . S
H1876 C1902 0.950 . S
H1877 C1904 0.950 . S
H1878 C1907 0.950 . S
H1879 C1908 0.950 . S
H1880 C1910 0.950 . S
H1881 C1911 0.950 . S
C1882 H1864 0.951 . S
C1882 C1883 1.366 . S
C1882 C1884 1.388 . S
C1883 C1882 1.366 . S
C1883 C1887 1.385 . S
C1884 H1865 0.951 . S
C1884 C1882 1.388 . S
C1884 C1885 1.366 . S
C1885 C1884 1.366 . S
C1885 C1886 1.414 . S
C1885 C1888 1.499 . S
C1886 H1866 0.950 . S
C1886 C1885 1.414 . S
C1886 C1887 1.374 . S
C1887 H1867 0.950 . S
C1887 C1883 1.385 . S
C1887 C1886 1.374 . S
C1888 C1885 1.499 . S
C1888 C1889 1.373 . S
C1888 C1890 1.389 . S
C1889 H1868 0.950 . S
C1889 C1888 1.373 . S
C1889 C1905 1.377 . S
C1890 C1888 1.389 . S
C1890 C1891 1.524 . S
C1890 C1904 1.377 . S
C1891 C1890 1.524 . S
C1891 C1892 1.397 . S
C1891 C1896 1.363 . S
C1892 H1869 0.950 . S
C1892 C1891 1.397 . S
C1892 C1893 1.334 . S
C1893 H1870 0.950 . S
C1893 C1892 1.334 . S
C1893 C1894 1.287 . S
C1894 C1893 1.287 . S
C1894 C1895 1.524 . S
C1894 H1913 0.913 . S
C1895 H1871 0.950 . S
C1895 C1894 1.524 . S
C1895 C1896 1.415 . S
C1896 H1872 0.950 . S
C1896 C1891 1.363 . S
C1896 C1895 1.415 . S
C1897 H1873 0.951 . S
C1897 C1898 1.366 . S
C1897 C1899 1.388 . S
C1898 C1897 1.366 . S
C1898 C1902 1.385 . S
C1899 H1874 0.951 . S
C1899 C1897 1.388 . S
C1899 C1900 1.366 . S
C1900 C1899 1.366 . S
C1900 C1901 1.414 . S
C1900 C1903 1.499 . S
C1901 H1875 0.950 . S
C1901 C1900 1.414 . S
C1901 C1902 1.374 . S
C1902 H1876 0.950 . S
C1902 C1898 1.385 . S
C1902 C1901 1.374 . S
C1903 C1900 1.499 . S
C1903 C1904 1.373 . S
C1903 C1905 1.389 . S
C1904 H1877 0.950 . S
C1904 C1890 1.377 . S
C1904 C1903 1.373 . S
C1905 C1889 1.377 . S
C1905 C1903 1.389 . S
C1905 C1906 1.524 . S
C1906 C1905 1.524 . S
C1906 C1907 1.397 . S
C1906 C1911 1.363 . S
C1907 H1878 0.950 . S
C1907 C1906 1.397 . S
C1907 C1908 1.334 . S
C1908 H1879 0.950 . S
C1908 C1907 1.334 . S
C1908 C1909 1.287 . S
C1909 C1908 1.287 . S
C1909 C1910 1.524 . S
C1909 H1912 0.999 . S
C1910 H1880 0.950 . S
C1910 C1909 1.524 . S
C1910 C1911 1.415 . S
C1911 H1881 0.950 . S
C1911 C1906 1.363 . S
C1911 C1910 1.415 . S
H1912 C1909 0.999 . S
H1913 C1894 0.913 . S
H1914 C1932 0.951 . S
H1915 C1934 0.951 . S
H1916 C1936 0.950 . S
H1917 C1937 0.950 . S
H1918 C1939 0.950 . S
H1919 C1942 0.950 . S
H1920 C1943 0.950 . S
H1921 C1945 0.950 . S
H1922 C1946 0.950 . S
H1923 C1947 0.951 . S
H1924 C1949 0.951 . S
H1925 C1951 0.950 . S
H1926 C1952 0.950 . S
H1927 C1954 0.950 . S
H1928 C1957 0.950 . S
H1929 C1958 0.950 . S
H1930 C1960 0.950 . S
H1931 C1961 0.950 . S
C1932 H1914 0.951 . S
C1932 C1933 1.366 . S
C1932 C1934 1.388 . S
C1933 C1932 1.366 . S
C1933 C1937 1.385 . S
C1934 H1915 0.951 . S
C1934 C1932 1.388 . S
C1934 C1935 1.366 . S
C1935 C1934 1.366 . S
C1935 C1936 1.414 . S
C1935 C1938 1.499 . S
C1936 H1916 0.950 . S
C1936 C1935 1.414 . S
C1936 C1937 1.374 . S
C1937 H1917 0.950 . S
C1937 C1933 1.385 . S
C1937 C1936 1.374 . S
C1938 C1935 1.499 . S
C1938 C1939 1.373 . S
C1938 C1940 1.389 . S
C1939 H1918 0.950 . S
C1939 C1938 1.373 . S
C1939 C1955 1.377 . S
C1940 C1938 1.389 . S
C1940 C1941 1.524 . S
C1940 C1954 1.377 . S
C1941 C1940 1.524 . S
C1941 C1942 1.397 . S
C1941 C1946 1.363 . S
C1942 H1919 0.950 . S
C1942 C1941 1.397 . S
C1942 C1943 1.334 . S
C1943 H1920 0.950 . S
C1943 C1942 1.334 . S
C1943 C1944 1.287 . S
C1944 C1943 1.287 . S
C1944 C1945 1.524 . S
C1944 H1963 0.913 . S
C1945 H1921 0.950 . S
C1945 C1944 1.524 . S
C1945 C1946 1.415 . S
C1946 H1922 0.950 . S
C1946 C1941 1.363 . S
C1946 C1945 1.415 . S
C1947 H1923 0.951 . S
C1947 C1948 1.366 . S
C1947 C1949 1.388 . S
C1948 C1947 1.366 . S
C1948 C1952 1.385 . S
C1949 H1924 0.951 . S
C1949 C1947 1.388 . S
C1949 C1950 1.366 . S
C1950 C1949 1.366 . S
C1950 C1951 1.414 . S
C1950 C1953 1.499 . S
C1951 H1925 0.950 . S
C1951 C1950 1.414 . S
C1951 C1952 1.374 . S
C1952 H1926 0.950 . S
C1952 C1948 1.385 . S
C1952 C1951 1.374 . S
C1953 C1950 1.499 . S
C1953 C1954 1.373 . S
C1953 C1955 1.389 . S
C1954 H1927 0.950 . S
C1954 C1940 1.377 . S
C1954 C1953 1.373 . S
C1955 C1939 1.377 . S
C1955 C1953 1.389 . S
C1955 C1956 1.524 . S
C1956 C1955 1.524 . S
C1956 C1957 1.397 . S
C1956 C1961 1.363 . S
C1957 H1928 0.950 . S
C1957 C1956 1.397 . S
C1957 C1958 1.334 . S
C1958 H1929 0.950 . S
C1958 C1957 1.334 . S
C1958 C1959 1.287 . S
C1959 C1958 1.287 . S
C1959 C1960 1.524 . S
C1959 H1962 0.999 . S
C1960 H1930 0.950 . S
C1960 C1959 1.524 . S
C1960 C1961 1.415 . S
C1961 H1931 0.950 . S
C1961 C1956 1.363 . S
C1961 C1960 1.415 . S
H1962 C1959 0.999 . S
H1963 C1944 0.913 . S
H1964 C1982 0.951 . S
H1965 C1984 0.951 . S
H1966 C1986 0.950 . S
H1967 C1987 0.950 . S
H1968 C1989 0.950 1_455 S
H1969 C1992 0.950 . S
H1970 C1993 0.950 . S
H1971 C1995 0.950 . S
H1972 C1996 0.950 . S
H1973 C1997 0.951 . S
H1974 C1999 0.951 . S
H1975 C2001 0.950 . S
H1976 C2002 0.950 . S
H1977 C2004 0.950 . S
H1978 C2007 0.950 1_655 S
H1979 C2008 0.950 . S
H1980 C2010 0.950 . S
H1981 C2011 0.950 . S
C1982 H1964 0.951 . S
C1982 C1983 1.364 . S
C1982 C1984 1.388 . S
C1983 C1982 1.364 . S
C1983 C1987 1.386 1_655 S
C1984 H1965 0.951 . S
C1984 C1982 1.388 . S
C1984 C1985 1.366 . S
C1985 C1984 1.366 . S
C1985 C1986 1.414 1_655 S
C1985 C1988 1.499 . S
C1986 H1966 0.950 . S
C1986 C1985 1.414 1_455 S
C1986 C1987 1.374 . S
C1987 H1967 0.950 . S
C1987 C1983 1.386 1_455 S
C1987 C1986 1.374 . S
C1988 C1985 1.499 . S
C1988 C1989 1.373 . S
C1988 C1990 1.389 . S
C1989 H1968 0.950 1_655 S
C1989 C1988 1.373 . S
C1989 C2005 1.377 1_554 S
C1990 C1988 1.389 . S
C1990 C1991 1.524 . S
C1990 C2004 1.377 1_554 S
C1991 C1990 1.524 . S
C1991 C1992 1.397 . S
C1991 C1996 1.363 . S
C1992 H1969 0.950 . S
C1992 C1991 1.397 . S
C1992 C1993 1.334 . S
C1993 H1970 0.950 . S
C1993 C1992 1.334 . S
C1993 C1994 1.287 . S
C1994 C1993 1.287 . S
C1994 C1995 1.524 . S
C1994 H2013 0.913 . S
C1995 H1971 0.950 . S
C1995 C1994 1.524 . S
C1995 C1996 1.415 . S
C1996 H1972 0.950 . S
C1996 C1991 1.363 . S
C1996 C1995 1.415 . S
C1997 H1973 0.951 . S
C1997 C1998 1.366 . S
C1997 C1999 1.388 . S
C1998 C1997 1.366 . S
C1998 C2002 1.385 . S
C1999 H1974 0.951 . S
C1999 C1997 1.388 . S
C1999 C2000 1.366 . S
C2000 C1999 1.366 . S
C2000 C2001 1.414 . S
C2000 C2003 1.499 . S
C2001 H1975 0.950 . S
C2001 C2000 1.414 . S
C2001 C2002 1.374 . S
C2002 H1976 0.950 . S
C2002 C1998 1.385 . S
C2002 C2001 1.374 . S
C2003 C2000 1.499 . S
C2003 C2004 1.373 . S
C2003 C2005 1.389 . S
C2004 H1977 0.950 . S
C2004 C1990 1.377 1_556 S
C2004 C2003 1.373 . S
C2005 C1989 1.377 1_556 S
C2005 C2003 1.389 . S
C2005 C2006 1.524 1_655 S
C2006 C2005 1.524 1_455 S
C2006 C2007 1.397 . S
C2006 C2011 1.363 . S
C2007 H1978 0.950 1_455 S
C2007 C2006 1.397 . S
C2007 C2008 1.334 . S
C2008 H1979 0.950 . S
C2008 C2007 1.334 . S
C2008 C2009 1.287 . S
C2009 C2008 1.287 . S
C2009 C2010 1.524 . S
C2009 H2012 0.999 . S
C2010 H1980 0.950 . S
C2010 C2009 1.524 . S
C2010 C2011 1.415 . S
C2011 H1981 0.950 . S
C2011 C2006 1.363 . S
C2011 C2010 1.415 . S
H2012 C2009 0.999 . S
H2013 C1994 0.913 . S
H2014 C2032 0.951 . S
H2015 C2034 0.951 . S
H2016 C2036 0.950 . S
H2017 C2037 0.950 . S
H2018 C2039 0.950 . S
H2019 C2042 0.950 . S
H2020 C2043 0.950 . S
H2021 C2045 0.950 . S
H2022 C2046 0.950 . S
H2023 C2047 0.951 . S
H2024 C2049 0.951 . S
H2025 C2051 0.950 . S
H2026 C2052 0.950 . S
H2027 C2054 0.950 . S
H2028 C2057 0.950 . S
H2029 C2058 0.950 . S
H2030 C2060 0.950 . S
H2031 C2061 0.950 . S
C2032 H2014 0.951 . S
C2032 C2033 1.366 . S
C2032 C2034 1.388 . S
C2033 C2032 1.366 . S
C2033 C2037 1.384 1_455 S
C2034 H2015 0.951 . S
C2034 C2032 1.388 . S
C2034 C2035 1.366 . S
C2035 C2034 1.366 . S
C2035 C2036 1.414 1_455 S
C2035 C2038 1.499 . S
C2036 H2016 0.950 . S
C2036 C2035 1.414 1_655 S
C2036 C2037 1.374 . S
C2037 H2017 0.950 . S
C2037 C2033 1.384 1_655 S
C2037 C2036 1.374 . S
C2038 C2035 1.499 . S
C2038 C2039 1.373 . S
C2038 C2040 1.367 1_554 S
C2039 H2018 0.950 . S
C2039 C2038 1.373 . S
C2039 C2055 1.377 1_554 S
C2040 C2038 1.367 1_556 S
C2040 C2041 1.526 . S
C2040 C2054 1.400 . S
C2041 C2040 1.526 . S
C2041 C2042 1.397 1_456 S
C2041 C2046 1.363 . S
C2042 H2019 0.950 . S
C2042 C2041 1.397 1_654 S
C2042 C2043 1.334 . S
C2043 H2020 0.950 . S
C2043 C2042 1.334 . S
C2043 C2044 1.287 1_554 S
C2044 C2043 1.287 1_556 S
C2044 C2045 1.524 1_655 S
C2044 H2063 0.913 . S
C2045 H2021 0.950 . S
C2045 C2044 1.524 1_455 S
C2045 C2046 1.415 . S
C2046 H2022 0.950 . S
C2046 C2041 1.363 . S
C2046 C2045 1.415 . S
C2047 H2023 0.951 . S
C2047 C2048 1.366 . S
C2047 C2049 1.388 . S
C2048 C2047 1.366 . S
C2048 C2052 1.385 . S
C2049 H2024 0.951 . S
C2049 C2047 1.388 . S
C2049 C2050 1.366 . S
C2050 C2049 1.366 . S
C2050 C2051 1.414 . S
C2050 C2053 1.499 . S
C2051 H2025 0.950 . S
C2051 C2050 1.414 . S
C2051 C2052 1.374 . S
C2052 H2026 0.950 . S
C2052 C2048 1.385 . S
C2052 C2051 1.374 . S
C2053 C2050 1.499 . S
C2053 C2054 1.373 . S
C2053 C2055 1.389 . S
C2054 H2027 0.950 . S
C2054 C2040 1.400 . S
C2054 C2053 1.373 . S
C2055 C2039 1.377 1_556 S
C2055 C2053 1.389 . S
C2055 C2056 1.527 . S
C2056 C2055 1.527 . S
C2056 C2057 1.409 . S
C2056 C2061 1.347 1_556 S
C2057 H2028 0.950 . S
C2057 C2056 1.409 . S
C2057 C2058 1.334 . S
C2058 H2029 0.950 . S
C2058 C2057 1.334 . S
C2058 C2059 1.287 1_556 S
C2059 C2058 1.287 1_554 S
C2059 C2060 1.524 . S
C2059 H2062 0.999 . S
C2060 H2030 0.950 . S
C2060 C2059 1.524 . S
C2060 C2061 1.415 . S
C2061 H2031 0.950 . S
C2061 C2056 1.347 1_554 S
C2061 C2060 1.415 . S
H2062 C2059 0.999 . S
H2063 C2044 0.913 . S
H2064 C2082 0.951 . S
H2065 C2084 0.951 . S
H2066 C2086 0.950 . S
H2067 C2087 0.950 . S
H2068 C2089 0.950 . S
H2069 C2092 0.950 . S
H2070 C2093 0.950 . S
H2071 C2095 0.950 . S
H2072 C2096 0.950 . S
H2073 C2097 0.951 . S
H2074 C2099 0.951 . S
H2075 C2101 0.950 . S
H2076 C2102 0.950 . S
H2077 C2104 0.950 . S
H2078 C2107 0.950 . S
H2079 C2108 0.950 . S
H2080 C2110 0.950 . S
H2081 C2111 0.950 . S
C2082 H2064 0.951 . S
C2082 C2083 1.366 . S
C2082 C2084 1.388 . S
C2083 C2082 1.366 . S
C2083 C2087 1.385 . S
C2084 H2065 0.951 . S
C2084 C2082 1.388 . S
C2084 C2085 1.366 . S
C2085 C2084 1.366 . S
C2085 C2086 1.414 . S
C2085 C2088 1.499 1_565 S
C2086 H2066 0.950 . S
C2086 C2085 1.414 . S
C2086 C2087 1.374 . S
C2087 H2067 0.950 . S
C2087 C2083 1.385 . S
C2087 C2086 1.374 . S
C2088 C2085 1.499 1_545 S
C2088 C2089 1.373 1_545 S
C2088 C2090 1.389 . S
C2089 H2068 0.950 . S
C2089 C2088 1.373 1_565 S
C2089 C2105 1.377 1_565 S
C2090 C2088 1.389 . S
C2090 C2091 1.524 . S
C2090 C2104 1.377 . S
C2091 C2090 1.524 . S
C2091 C2092 1.397 . S
C2091 C2096 1.363 . S
C2092 H2069 0.950 . S
C2092 C2091 1.397 . S
C2092 C2093 1.334 . S
C2093 H2070 0.950 . S
C2093 C2092 1.334 . S
C2093 C2094 1.287 . S
C2094 C2093 1.287 . S
C2094 C2095 1.524 . S
C2094 H2113 0.913 . S
C2095 H2071 0.950 . S
C2095 C2094 1.524 . S
C2095 C2096 1.415 . S
C2096 H2072 0.950 . S
C2096 C2091 1.363 . S
C2096 C2095 1.415 . S
C2097 H2073 0.951 . S
C2097 C2098 1.366 . S
C2097 C2099 1.388 . S
C2098 C2097 1.366 . S
C2098 C2102 1.385 . S
C2099 H2074 0.951 . S
C2099 C2097 1.388 . S
C2099 C2100 1.366 . S
C2100 C2099 1.366 . S
C2100 C2101 1.414 . S
C2100 C2103 1.499 . S
C2101 H2075 0.950 . S
C2101 C2100 1.414 . S
C2101 C2102 1.374 . S
C2102 H2076 0.950 . S
C2102 C2098 1.385 . S
C2102 C2101 1.374 . S
C2103 C2100 1.499 . S
C2103 C2104 1.373 . S
C2103 C2105 1.389 . S
C2104 H2077 0.950 . S
C2104 C2090 1.377 . S
C2104 C2103 1.373 . S
C2105 C2089 1.377 1_545 S
C2105 C2103 1.389 . S
C2105 C2106 1.524 1_545 S
C2106 C2105 1.524 1_565 S
C2106 C2107 1.397 . S
C2106 C2111 1.363 . S
C2107 H2078 0.950 . S
C2107 C2106 1.397 . S
C2107 C2108 1.334 . S
C2108 H2079 0.950 . S
C2108 C2107 1.334 . S
C2108 C2109 1.287 . S
C2109 C2108 1.287 . S
C2109 C2110 1.524 . S
C2109 H2112 0.999 . S
C2110 H2080 0.950 . S
C2110 C2109 1.524 . S
C2110 C2111 1.415 . S
C2111 H2081 0.950 . S
C2111 C2106 1.363 . S
C2111 C2110 1.415 . S
H2112 C2109 0.999 . S
H2113 C2094 0.913 . S
H2114 C2132 0.951 . S
H2115 C2134 0.951 . S
H2116 C2136 0.950 . S
H2117 C2137 0.950 1_565 S
H2118 C2139 0.950 . S
H2119 C2142 0.950 . S
H2120 C2143 0.950 . S
H2121 C2145 0.950 . S
H2122 C2146 0.950 . S
H2123 C2147 0.951 . S
H2124 C2149 0.951 . S
H2125 C2151 0.950 . S
H2126 C2152 0.950 . S
H2127 C2154 0.926 1_545 S
H2128 C2157 0.950 . S
H2129 C2158 0.950 . S
H2130 C2160 0.950 . S
H2131 C2161 0.950 . S
C2132 H2114 0.951 . S
C2132 C2133 1.366 . S
C2132 C2134 1.388 . S
C2133 C2132 1.366 . S
C2133 C2137 1.385 . S
C2134 H2115 0.951 . S
C2134 C2132 1.388 . S
C2134 C2135 1.366 . S
C2135 C2134 1.366 . S
C2135 C2136 1.414 1_545 S
C2135 C2138 1.499 1_545 S
C2136 H2116 0.950 . S
C2136 C2135 1.414 1_565 S
C2136 C2137 1.374 1_565 S
C2137 H2117 0.950 1_545 S
C2137 C2133 1.385 . S
C2137 C2136 1.374 1_545 S
C2138 C2135 1.499 1_565 S
C2138 C2139 1.373 . S
C2138 C2140 1.389 1_565 S
C2139 H2118 0.950 . S
C2139 C2138 1.373 . S
C2139 C2155 1.377 . S
C2140 C2138 1.389 1_545 S
C2140 C2141 1.524 . S
C2140 C2154 1.359 1_545 S
C2141 C2140 1.524 . S
C2141 C2142 1.397 . S
C2141 C2146 1.363 . S
C2142 H2119 0.950 . S
C2142 C2141 1.397 . S
C2142 C2143 1.334 . S
C2143 H2120 0.950 . S
C2143 C2142 1.334 . S
C2143 C2144 1.287 . S
C2144 C2143 1.287 . S
C2144 C2145 1.524 . S
C2144 H2163 0.913 . S
C2145 H2121 0.950 . S
C2145 C2144 1.524 . S
C2145 C2146 1.415 . S
C2146 H2122 0.950 . S
C2146 C2141 1.363 . S
C2146 C2145 1.415 . S
C2147 H2123 0.951 . S
C2147 C2148 1.366 . S
C2147 C2149 1.388 . S
C2148 C2147 1.366 . S
C2148 C2152 1.385 . S
C2149 H2124 0.951 . S
C2149 C2147 1.388 . S
C2149 C2150 1.366 . S
C2150 C2149 1.366 . S
C2150 C2151 1.414 . S
C2150 C2153 1.499 . S
C2151 H2125 0.950 . S
C2151 C2150 1.414 . S
C2151 C2152 1.374 . S
C2152 H2126 0.950 . S
C2152 C2148 1.385 . S
C2152 C2151 1.374 . S
C2153 C2150 1.499 . S
C2153 C2154 1.416 . S
C2153 C2155 1.389 . S
C2154 H2127 0.926 1_565 S
C2154 C2140 1.359 1_565 S
C2154 C2153 1.416 . S
C2155 C2139 1.377 . S
C2155 C2153 1.389 . S
C2155 C2156 1.524 . S
C2156 C2155 1.524 . S
C2156 C2157 1.397 . S
C2156 C2161 1.363 . S
C2157 H2128 0.950 . S
C2157 C2156 1.397 . S
C2157 C2158 1.334 . S
C2158 H2129 0.950 . S
C2158 C2157 1.334 . S
C2158 C2159 1.287 . S
C2159 C2158 1.287 . S
C2159 C2160 1.524 . S
C2159 H2162 0.999 . S
C2160 H2130 0.950 . S
C2160 C2159 1.524 . S
C2160 C2161 1.415 . S
C2161 H2131 0.950 . S
C2161 C2156 1.363 . S
C2161 C2160 1.415 . S
H2162 C2159 0.999 . S
H2163 C2144 0.913 . S
H2164 C2182 0.951 . S
H2165 C2184 0.951 . S
H2166 C2186 0.950 . S
H2167 C2187 0.950 . S
H2168 C2189 0.950 . S
H2169 C2192 0.950 . S
H2170 C2193 0.950 . S
H2171 C2195 0.950 . S
H2172 C2196 0.950 1_556 S
H2173 C2197 0.951 . S
H2174 C2199 0.951 . S
H2175 C2201 0.950 . S
H2176 C2202 0.950 . S
H2177 C2204 0.950 . S
H2178 C2207 0.950 . S
H2179 C2208 0.950 . S
H2180 C2210 0.950 . S
H2181 C2211 0.950 . S
C2182 H2164 0.951 . S
C2182 C2183 1.366 . S
C2182 C2184 1.388 . S
C2183 C2182 1.366 . S
C2183 C2187 1.385 . S
C2184 H2165 0.951 . S
C2184 C2182 1.388 . S
C2184 C2185 1.366 . S
C2185 C2184 1.366 . S
C2185 C2186 1.414 . S
C2185 C2188 1.499 . S
C2186 H2166 0.950 . S
C2186 C2185 1.414 . S
C2186 C2187 1.374 . S
C2187 H2167 0.950 . S
C2187 C2183 1.385 . S
C2187 C2186 1.374 . S
C2188 C2185 1.499 . S
C2188 C2189 1.373 . S
C2188 C2190 1.389 . S
C2189 H2168 0.950 . S
C2189 C2188 1.373 . S
C2189 C2205 1.377 1_554 S
C2190 C2188 1.389 . S
C2190 C2191 1.524 . S
C2190 C2204 1.377 1_554 S
C2191 C2190 1.524 . S
C2191 C2192 1.397 . S
C2191 C2196 1.363 . S
C2192 H2169 0.950 . S
C2192 C2191 1.397 . S
C2192 C2193 1.334 . S
C2193 H2170 0.950 . S
C2193 C2192 1.334 . S
C2193 C2194 1.287 . S
C2194 C2193 1.287 . S
C2194 C2195 1.524 . S
C2194 H2213 0.913 . S
C2195 H2171 0.950 . S
C2195 C2194 1.524 . S
C2195 C2196 1.415 . S
C2196 H2172 0.950 1_554 S
C2196 C2191 1.363 . S
C2196 C2195 1.415 . S
C2197 H2173 0.951 . S
C2197 C2198 1.366 . S
C2197 C2199 1.388 . S
C2198 C2197 1.366 . S
C2198 C2202 1.385 . S
C2199 H2174 0.951 . S
C2199 C2197 1.388 . S
C2199 C2200 1.366 . S
C2200 C2199 1.366 . S
C2200 C2201 1.414 . S
C2200 C2203 1.499 . S
C2201 H2175 0.950 . S
C2201 C2200 1.414 . S
C2201 C2202 1.374 . S
C2202 H2176 0.950 . S
C2202 C2198 1.385 . S
C2202 C2201 1.374 . S
C2203 C2200 1.499 . S
C2203 C2204 1.373 . S
C2203 C2205 1.389 . S
C2204 H2177 0.950 . S
C2204 C2190 1.377 1_556 S
C2204 C2203 1.373 . S
C2205 C2189 1.377 1_556 S
C2205 C2203 1.389 . S
C2205 C2206 1.524 . S
C2206 C2205 1.524 . S
C2206 C2207 1.397 . S
C2206 C2211 1.363 . S
C2207 H2178 0.950 . S
C2207 C2206 1.397 . S
C2207 C2208 1.334 . S
C2208 H2179 0.950 . S
C2208 C2207 1.334 . S
C2208 C2209 1.287 . S
C2209 C2208 1.287 . S
C2209 C2210 1.524 . S
C2209 H2212 0.999 . S
C2210 H2180 0.950 . S
C2210 C2209 1.524 . S
C2210 C2211 1.415 . S
C2211 H2181 0.950 . S
C2211 C2206 1.363 . S
C2211 C2210 1.415 . S
H2212 C2209 0.999 . S
H2213 C2194 0.913 . S
H2214 C2232 0.951 . S
H2215 C2234 0.951 . S
H2216 C2236 0.950 . S
H2217 C2237 0.950 . S
H2218 C2239 0.952 . S
H2219 C2242 0.950 . S
H2220 C2243 0.950 . S
H2221 C2245 0.950 . S
H2222 C2246 0.950 . S
H2223 C2247 0.951 . S
H2224 C2249 0.951 . S
H2225 C2251 0.950 . S
H2226 C2252 0.950 . S
H2227 C2254 0.950 . S
H2228 C2257 0.950 . S
H2229 C2258 0.950 . S
H2230 C2260 0.950 . S
H2231 C2261 0.950 . S
C2232 H2214 0.951 . S
C2232 C2233 1.366 . S
C2232 C2234 1.388 . S
C2233 C2232 1.366 . S
C2233 C2237 1.385 . S
C2234 H2215 0.951 . S
C2234 C2232 1.388 . S
C2234 C2235 1.366 . S
C2235 C2234 1.366 . S
C2235 C2236 1.414 . S
C2235 C2238 1.499 . S
C2236 H2216 0.950 . S
C2236 C2235 1.414 . S
C2236 C2237 1.374 . S
C2237 H2217 0.950 . S
C2237 C2233 1.385 . S
C2237 C2236 1.374 . S
C2238 C2235 1.499 . S
C2238 C2239 1.392 . S
C2238 C2240 1.389 . S
C2239 H2218 0.952 . S
C2239 C2238 1.392 . S
C2239 C2255 1.356 1_554 S
C2240 C2238 1.389 . S
C2240 C2241 1.524 . S
C2240 C2254 1.377 1_554 S
C2241 C2240 1.524 . S
C2241 C2242 1.397 . S
C2241 C2246 1.363 . S
C2242 H2219 0.950 . S
C2242 C2241 1.397 . S
C2242 C2243 1.334 . S
C2243 H2220 0.950 . S
C2243 C2242 1.334 . S
C2243 C2244 1.287 . S
C2244 C2243 1.287 . S
C2244 C2245 1.524 . S
C2244 H2263 0.913 . S
C2245 H2221 0.950 . S
C2245 C2244 1.524 . S
C2245 C2246 1.415 . S
C2246 H2222 0.950 . S
C2246 C2241 1.363 . S
C2246 C2245 1.415 . S
C2247 H2223 0.951 . S
C2247 C2248 1.366 . S
C2247 C2249 1.388 . S
C2248 C2247 1.366 . S
C2248 C2252 1.385 . S
C2249 H2224 0.951 . S
C2249 C2247 1.388 . S
C2249 C2250 1.366 . S
C2250 C2249 1.366 . S
C2250 C2251 1.414 . S
C2250 C2253 1.499 . S
C2251 H2225 0.950 . S
C2251 C2250 1.414 . S
C2251 C2252 1.374 . S
C2252 H2226 0.950 . S
C2252 C2248 1.385 . S
C2252 C2251 1.374 . S
C2253 C2250 1.499 . S
C2253 C2254 1.373 . S
C2253 C2255 1.389 . S
C2254 H2227 0.950 . S
C2254 C2240 1.377 1_556 S
C2254 C2253 1.373 . S
C2255 C2239 1.356 1_556 S
C2255 C2253 1.389 . S
C2255 C2256 1.524 . S
C2256 C2255 1.524 . S
C2256 C2257 1.397 . S
C2256 C2261 1.363 . S
C2257 H2228 0.950 . S
C2257 C2256 1.397 . S
C2257 C2258 1.334 . S
C2258 H2229 0.950 . S
C2258 C2257 1.334 . S
C2258 C2259 1.287 . S
C2259 C2258 1.287 . S
C2259 C2260 1.524 . S
C2259 H2262 0.999 . S
C2260 H2230 0.950 . S
C2260 C2259 1.524 . S
C2260 C2261 1.415 . S
C2261 H2231 0.950 . S
C2261 C2256 1.363 . S
C2261 C2260 1.415 . S
H2262 C2259 0.999 . S
H2263 C2244 0.913 . S
H2264 C2282 0.951 . S
H2265 C2284 0.951 . S
H2266 C2286 0.950 . S
H2267 C2287 0.950 . S
H2268 C2289 0.950 . S
H2269 C2292 0.950 . S
H2270 C2293 0.950 . S
H2271 C2295 0.950 . S
H2272 C2296 0.950 . S
H2273 C2297 0.951 . S
H2274 C2299 0.951 . S
H2275 C2301 0.950 . S
H2276 C2302 0.950 . S
H2277 C2304 0.950 . S
H2278 C2307 0.950 . S
H2279 C2308 0.950 . S
H2280 C2310 0.950 . S
H2281 C2311 0.950 . S
C2282 H2264 0.951 . S
C2282 C2283 1.366 . S
C2282 C2284 1.388 . S
C2283 C2282 1.366 . S
C2283 C2287 1.385 . S
C2284 H2265 0.951 . S
C2284 C2282 1.388 . S
C2284 C2285 1.366 . S
C2285 C2284 1.366 . S
C2285 C2286 1.414 . S
C2285 C2288 1.499 . S
C2286 H2266 0.950 . S
C2286 C2285 1.414 . S
C2286 C2287 1.374 . S
C2287 H2267 0.950 . S
C2287 C2283 1.385 . S
C2287 C2286 1.374 . S
C2288 C2285 1.499 . S
C2288 C2289 1.373 . S
C2288 C2290 1.389 . S
C2289 H2268 0.950 . S
C2289 C2288 1.373 . S
C2289 C2305 1.377 . S
C2290 C2288 1.389 . S
C2290 C2291 1.524 . S
C2290 C2304 1.377 . S
C2291 C2290 1.524 . S
C2291 C2292 1.397 . S
C2291 C2296 1.363 . S
C2292 H2269 0.950 . S
C2292 C2291 1.397 . S
C2292 C2293 1.334 . S
C2293 H2270 0.950 . S
C2293 C2292 1.334 . S
C2293 C2294 1.287 . S
C2294 C2293 1.287 . S
C2294 C2295 1.524 . S
C2294 H2313 0.913 . S
C2295 H2271 0.950 . S
C2295 C2294 1.524 . S
C2295 C2296 1.415 . S
C2296 H2272 0.950 . S
C2296 C2291 1.363 . S
C2296 C2295 1.415 . S
C2297 H2273 0.951 . S
C2297 C2298 1.366 . S
C2297 C2299 1.388 . S
C2298 C2297 1.366 . S
C2298 C2302 1.385 . S
C2299 H2274 0.951 . S
C2299 C2297 1.388 . S
C2299 C2300 1.366 . S
C2300 C2299 1.366 . S
C2300 C2301 1.414 . S
C2300 C2303 1.499 . S
C2301 H2275 0.950 . S
C2301 C2300 1.414 . S
C2301 C2302 1.374 . S
C2302 H2276 0.950 . S
C2302 C2298 1.385 . S
C2302 C2301 1.374 . S
C2303 C2300 1.499 . S
C2303 C2304 1.373 . S
C2303 C2305 1.389 . S
C2304 H2277 0.950 . S
C2304 C2290 1.377 . S
C2304 C2303 1.373 . S
C2305 C2289 1.377 . S
C2305 C2303 1.389 . S
C2305 C2306 1.524 . S
C2306 C2305 1.524 . S
C2306 C2307 1.397 . S
C2306 C2311 1.363 . S
C2307 H2278 0.950 . S
C2307 C2306 1.397 . S
C2307 C2308 1.334 . S
C2308 H2279 0.950 . S
C2308 C2307 1.334 . S
C2308 C2309 1.287 . S
C2309 C2308 1.287 . S
C2309 C2310 1.524 . S
C2309 H2312 0.999 . S
C2310 H2280 0.950 . S
C2310 C2309 1.524 . S
C2310 C2311 1.415 . S
C2311 H2281 0.950 . S
C2311 C2306 1.363 . S
C2311 C2310 1.415 . S
H2312 C2309 0.999 . S
H2313 C2294 0.913 . S
H2314 C2332 0.951 . S
H2315 C2334 0.951 . S
H2316 C2336 0.950 . S
H2317 C2337 0.950 . S
H2318 C2339 0.950 . S
H2319 C2342 0.950 . S
H2320 C2343 0.950 . S
H2321 C2345 0.950 . S
H2322 C2346 0.950 . S
H2323 C2347 0.951 . S
H2324 C2349 0.951 . S
H2325 C2351 0.950 . S
H2326 C2352 0.950 . S
H2327 C2354 0.950 . S
H2328 C2357 0.950 . S
H2329 C2358 0.950 . S
H2330 C2360 0.950 . S
H2331 C2361 0.950 . S
C2332 H2314 0.951 . S
C2332 C2333 1.366 . S
C2332 C2334 1.388 . S
C2333 C2332 1.366 . S
C2333 C2337 1.385 . S
C2334 H2315 0.951 . S
C2334 C2332 1.388 . S
C2334 C2335 1.366 . S
C2335 C2334 1.366 . S
C2335 C2336 1.414 . S
C2335 C2338 1.499 . S
C2336 H2316 0.950 . S
C2336 C2335 1.414 . S
C2336 C2337 1.374 . S
C2337 H2317 0.950 . S
C2337 C2333 1.385 . S
C2337 C2336 1.374 . S
C2338 C2335 1.499 . S
C2338 C2339 1.373 . S
C2338 C2340 1.389 . S
C2339 H2318 0.950 . S
C2339 C2338 1.373 . S
C2339 C2355 1.377 . S
C2340 C2338 1.389 . S
C2340 C2341 1.524 . S
C2340 C2354 1.377 . S
C2341 C2340 1.524 . S
C2341 C2342 1.397 . S
C2341 C2346 1.363 . S
C2342 H2319 0.950 . S
C2342 C2341 1.397 . S
C2342 C2343 1.334 . S
C2343 H2320 0.950 . S
C2343 C2342 1.334 . S
C2343 C2344 1.287 . S
C2344 C2343 1.287 . S
C2344 C2345 1.524 . S
C2344 H2363 0.913 . S
C2345 H2321 0.950 . S
C2345 C2344 1.524 . S
C2345 C2346 1.415 . S
C2346 H2322 0.950 . S
C2346 C2341 1.363 . S
C2346 C2345 1.415 . S
C2347 H2323 0.951 . S
C2347 C2348 1.366 . S
C2347 C2349 1.388 . S
C2348 C2347 1.366 . S
C2348 C2352 1.385 . S
C2349 H2324 0.951 . S
C2349 C2347 1.388 . S
C2349 C2350 1.366 . S
C2350 C2349 1.366 . S
C2350 C2351 1.414 . S
C2350 C2353 1.499 . S
C2351 H2325 0.950 . S
C2351 C2350 1.414 . S
C2351 C2352 1.374 . S
C2352 H2326 0.950 . S
C2352 C2348 1.385 . S
C2352 C2351 1.374 . S
C2353 C2350 1.499 . S
C2353 C2354 1.373 . S
C2353 C2355 1.389 . S
C2354 H2327 0.950 . S
C2354 C2340 1.377 . S
C2354 C2353 1.373 . S
C2355 C2339 1.377 . S
C2355 C2353 1.389 . S
C2355 C2356 1.524 . S
C2356 C2355 1.524 . S
C2356 C2357 1.397 . S
C2356 C2361 1.363 . S
C2357 H2328 0.950 . S
C2357 C2356 1.397 . S
C2357 C2358 1.334 . S
C2358 H2329 0.950 . S
C2358 C2357 1.334 . S
C2358 C2359 1.287 . S
C2359 C2358 1.287 . S
C2359 C2360 1.524 . S
C2359 H2362 0.999 . S
C2360 H2330 0.950 . S
C2360 C2359 1.524 . S
C2360 C2361 1.415 . S
C2361 H2331 0.950 . S
C2361 C2356 1.363 . S
C2361 C2360 1.415 . S
H2362 C2359 0.999 . S
H2363 C2344 0.913 . S
H2364 C2382 0.951 . S
H2365 C2384 0.951 . S
H2366 C2386 0.950 . S
H2367 C2387 0.950 . S
H2368 C2389 0.950 . S
H2369 C2392 0.950 . S
H2370 C2393 0.950 . S
H2371 C2395 0.950 . S
H2372 C2396 0.950 . S
H2373 C2397 0.951 . S
H2374 C2399 0.951 . S
H2375 C2401 0.950 . S
H2376 C2402 0.950 . S
H2377 C2404 0.950 . S
H2378 C2407 0.950 . S
H2379 C2408 0.950 . S
H2380 C2410 0.950 . S
H2381 C2411 0.950 . S
C2382 H2364 0.951 . S
C2382 C2383 1.366 . S
C2382 C2384 1.388 . S
C2383 C2382 1.366 . S
C2383 C2387 1.385 . S
C2384 H2365 0.951 . S
C2384 C2382 1.388 . S
C2384 C2385 1.366 . S
C2385 C2384 1.366 . S
C2385 C2386 1.414 . S
C2385 C2388 1.499 . S
C2386 H2366 0.950 . S
C2386 C2385 1.414 . S
C2386 C2387 1.374 . S
C2387 H2367 0.950 . S
C2387 C2383 1.385 . S
C2387 C2386 1.374 . S
C2388 C2385 1.499 . S
C2388 C2389 1.373 . S
C2388 C2390 1.389 . S
C2389 H2368 0.950 . S
C2389 C2388 1.373 . S
C2389 C2405 1.377 . S
C2390 C2388 1.389 . S
C2390 C2391 1.524 . S
C2390 C2404 1.377 . S
C2391 C2390 1.524 . S
C2391 C2392 1.397 . S
C2391 C2396 1.363 . S
C2392 H2369 0.950 . S
C2392 C2391 1.397 . S
C2392 C2393 1.334 . S
C2393 H2370 0.950 . S
C2393 C2392 1.334 . S
C2393 C2394 1.287 . S
C2394 C2393 1.287 . S
C2394 C2395 1.524 . S
C2394 H2413 0.913 . S
C2395 H2371 0.950 . S
C2395 C2394 1.524 . S
C2395 C2396 1.415 . S
C2396 H2372 0.950 . S
C2396 C2391 1.363 . S
C2396 C2395 1.415 . S
C2397 H2373 0.951 . S
C2397 C2398 1.366 . S
C2397 C2399 1.388 . S
C2398 C2397 1.366 . S
C2398 C2402 1.385 . S
C2399 H2374 0.951 . S
C2399 C2397 1.388 . S
C2399 C2400 1.366 . S
C2400 C2399 1.366 . S
C2400 C2401 1.414 . S
C2400 C2403 1.499 . S
C2401 H2375 0.950 . S
C2401 C2400 1.414 . S
C2401 C2402 1.374 . S
C2402 H2376 0.950 . S
C2402 C2398 1.385 . S
C2402 C2401 1.374 . S
C2403 C2400 1.499 . S
C2403 C2404 1.373 . S
C2403 C2405 1.389 . S
C2404 H2377 0.950 . S
C2404 C2390 1.377 . S
C2404 C2403 1.373 . S
C2405 C2389 1.377 . S
C2405 C2403 1.389 . S
C2405 C2406 1.524 . S
C2406 C2405 1.524 . S
C2406 C2407 1.397 . S
C2406 C2411 1.363 . S
C2407 H2378 0.950 . S
C2407 C2406 1.397 . S
C2407 C2408 1.334 . S
C2408 H2379 0.950 . S
C2408 C2407 1.334 . S
C2408 C2409 1.287 . S
C2409 C2408 1.287 . S
C2409 C2410 1.524 . S
C2409 H2412 0.999 . S
C2410 H2380 0.950 . S
C2410 C2409 1.524 . S
C2410 C2411 1.415 . S
C2411 H2381 0.950 . S
C2411 C2406 1.363 . S
C2411 C2410 1.415 . S
H2412 C2409 0.999 . S
H2413 C2394 0.913 . S
H2414 C2432 0.951 . S
H2415 C2434 0.951 . S
H2416 C2436 0.950 . S
H2417 C2437 0.950 . S
H2418 C2439 0.950 . S
H2419 C2442 0.950 . S
H2420 C2443 0.950 . S
H2421 C2445 0.950 . S
H2422 C2446 0.950 . S
H2423 C2447 0.951 . S
H2424 C2449 0.951 . S
H2425 C2451 0.950 . S
H2426 C2452 0.950 . S
H2427 C2454 0.950 . S
H2428 C2457 0.950 . S
H2429 C2458 0.950 . S
H2430 C2460 0.950 . S
H2431 C2461 0.950 . S
C2432 H2414 0.951 . S
C2432 C2433 1.366 . S
C2432 C2434 1.388 . S
C2433 C2432 1.366 . S
C2433 C2437 1.385 . S
C2434 H2415 0.951 . S
C2434 C2432 1.388 . S
C2434 C2435 1.366 . S
C2435 C2434 1.366 . S
C2435 C2436 1.414 . S
C2435 C2438 1.499 . S
C2436 H2416 0.950 . S
C2436 C2435 1.414 . S
C2436 C2437 1.374 . S
C2437 H2417 0.950 . S
C2437 C2433 1.385 . S
C2437 C2436 1.374 . S
C2438 C2435 1.499 . S
C2438 C2439 1.373 . S
C2438 C2440 1.389 . S
C2439 H2418 0.950 . S
C2439 C2438 1.373 . S
C2439 C2455 1.377 . S
C2440 C2438 1.389 . S
C2440 C2441 1.524 . S
C2440 C2454 1.377 . S
C2441 C2440 1.524 . S
C2441 C2442 1.397 . S
C2441 C2446 1.363 . S
C2442 H2419 0.950 . S
C2442 C2441 1.397 . S
C2442 C2443 1.334 . S
C2443 H2420 0.950 . S
C2443 C2442 1.334 . S
C2443 C2444 1.287 . S
C2444 C2443 1.287 . S
C2444 C2445 1.524 . S
C2444 H2463 0.913 . S
C2445 H2421 0.950 . S
C2445 C2444 1.524 . S
C2445 C2446 1.415 . S
C2446 H2422 0.950 . S
C2446 C2441 1.363 . S
C2446 C2445 1.415 . S
C2447 H2423 0.951 . S
C2447 C2448 1.366 . S
C2447 C2449 1.388 . S
C2448 C2447 1.366 . S
C2448 C2452 1.385 . S
C2449 H2424 0.951 . S
C2449 C2447 1.388 . S
C2449 C2450 1.366 . S
C2450 C2449 1.366 . S
C2450 C2451 1.414 . S
C2450 C2453 1.499 . S
C2451 H2425 0.950 . S
C2451 C2450 1.414 . S
C2451 C2452 1.374 . S
C2452 H2426 0.950 . S
C2452 C2448 1.385 . S
C2452 C2451 1.374 . S
C2453 C2450 1.499 . S
C2453 C2454 1.373 . S
C2453 C2455 1.389 . S
C2454 H2427 0.950 . S
C2454 C2440 1.377 . S
C2454 C2453 1.373 . S
C2455 C2439 1.377 . S
C2455 C2453 1.389 . S
C2455 C2456 1.524 . S
C2456 C2455 1.524 . S
C2456 C2457 1.397 . S
C2456 C2461 1.363 . S
C2457 H2428 0.950 . S
C2457 C2456 1.397 . S
C2457 C2458 1.334 . S
C2458 H2429 0.950 . S
C2458 C2457 1.334 . S
C2458 C2459 1.287 . S
C2459 C2458 1.287 . S
C2459 C2460 1.524 . S
C2459 H2462 0.999 . S
C2460 H2430 0.950 . S
C2460 C2459 1.524 . S
C2460 C2461 1.415 . S
C2461 H2431 0.950 . S
C2461 C2456 1.363 . S
C2461 C2460 1.415 . S
H2462 C2459 0.999 . S
H2463 C2444 0.913 . S
H2464 C2482 0.951 . S
H2465 C2484 0.951 . S
H2466 C2486 0.950 . S
H2467 C2487 0.950 . S
H2468 C2489 0.950 . S
H2469 C2492 0.950 . S
H2470 C2493 0.950 . S
H2471 C2495 0.950 . S
H2472 C2496 0.950 . S
H2473 C2497 0.951 . S
H2474 C2499 0.951 . S
H2475 C2501 0.950 . S
H2476 C2502 0.950 . S
H2477 C2504 0.950 . S
H2478 C2507 0.950 . S
H2479 C2508 0.950 . S
H2480 C2510 0.950 . S
H2481 C2511 0.950 . S
C2482 H2464 0.951 . S
C2482 C2483 1.366 . S
C2482 C2484 1.388 . S
C2483 C2482 1.366 . S
C2483 C2487 1.385 . S
C2484 H2465 0.951 . S
C2484 C2482 1.388 . S
C2484 C2485 1.366 . S
C2485 C2484 1.366 . S
C2485 C2486 1.414 . S
C2485 C2488 1.499 . S
C2486 H2466 0.950 . S
C2486 C2485 1.414 . S
C2486 C2487 1.374 . S
C2487 H2467 0.950 . S
C2487 C2483 1.385 . S
C2487 C2486 1.374 . S
C2488 C2485 1.499 . S
C2488 C2489 1.373 . S
C2488 C2490 1.389 . S
C2489 H2468 0.950 . S
C2489 C2488 1.373 . S
C2489 C2505 1.377 . S
C2490 C2488 1.389 . S
C2490 C2491 1.524 . S
C2490 C2504 1.377 . S
C2491 C2490 1.524 . S
C2491 C2492 1.397 . S
C2491 C2496 1.363 . S
C2492 H2469 0.950 . S
C2492 C2491 1.397 . S
C2492 C2493 1.334 . S
C2493 H2470 0.950 . S
C2493 C2492 1.334 . S
C2493 C2494 1.287 . S
C2494 C2493 1.287 . S
C2494 C2495 1.524 . S
C2494 H2513 0.913 . S
C2495 H2471 0.950 . S
C2495 C2494 1.524 . S
C2495 C2496 1.415 . S
C2496 H2472 0.950 . S
C2496 C2491 1.363 . S
C2496 C2495 1.415 . S
C2497 H2473 0.951 . S
C2497 C2498 1.366 . S
C2497 C2499 1.388 . S
C2498 C2497 1.366 . S
C2498 C2502 1.385 . S
C2499 H2474 0.951 . S
C2499 C2497 1.388 . S
C2499 C2500 1.366 . S
C2500 C2499 1.366 . S
C2500 C2501 1.414 . S
C2500 C2503 1.499 . S
C2501 H2475 0.950 . S
C2501 C2500 1.414 . S
C2501 C2502 1.374 . S
C2502 H2476 0.950 . S
C2502 C2498 1.385 . S
C2502 C2501 1.374 . S
C2503 C2500 1.499 . S
C2503 C2504 1.373 . S
C2503 C2505 1.389 . S
C2504 H2477 0.950 . S
C2504 C2490 1.377 . S
C2504 C2503 1.373 . S
C2505 C2489 1.377 . S
C2505 C2503 1.389 . S
C2505 C2506 1.524 . S
C2506 C2505 1.524 . S
C2506 C2507 1.397 . S
C2506 C2511 1.363 . S
C2507 H2478 0.950 . S
C2507 C2506 1.397 . S
C2507 C2508 1.334 . S
C2508 H2479 0.950 . S
C2508 C2507 1.334 . S
C2508 C2509 1.287 . S
C2509 C2508 1.287 . S
C2509 C2510 1.524 . S
C2509 H2512 0.999 . S
C2510 H2480 0.950 . S
C2510 C2509 1.524 . S
C2510 C2511 1.415 . S
C2511 H2481 0.950 . S
C2511 C2506 1.363 . S
C2511 C2510 1.415 . S
H2512 C2509 0.999 . S
H2513 C2494 0.913 . S
H2514 C2532 0.951 . S
H2515 C2534 0.951 . S
H2516 C2536 0.950 . S
H2517 C2537 0.950 . S
H2518 C2539 0.950 . S
H2519 C2542 0.950 . S
H2520 C2543 0.950 . S
H2521 C2545 0.950 . S
H2522 C2546 0.950 . S
H2523 C2547 0.951 . S
H2524 C2549 0.951 . S
H2525 C2551 0.950 . S
H2526 C2552 0.950 . S
H2527 C2554 0.950 . S
H2528 C2557 0.950 . S
H2529 C2558 0.950 . S
H2530 C2560 0.950 . S
H2531 C2561 0.950 . S
C2532 H2514 0.951 . S
C2532 C2533 1.366 . S
C2532 C2534 1.388 . S
C2533 C2532 1.366 . S
C2533 C2537 1.385 . S
C2534 H2515 0.951 . S
C2534 C2532 1.388 . S
C2534 C2535 1.366 . S
C2535 C2534 1.366 . S
C2535 C2536 1.414 . S
C2535 C2538 1.499 . S
C2536 H2516 0.950 . S
C2536 C2535 1.414 . S
C2536 C2537 1.374 . S
C2537 H2517 0.950 . S
C2537 C2533 1.385 . S
C2537 C2536 1.374 . S
C2538 C2535 1.499 . S
C2538 C2539 1.373 . S
C2538 C2540 1.389 . S
C2539 H2518 0.950 . S
C2539 C2538 1.373 . S
C2539 C2555 1.377 . S
C2540 C2538 1.389 . S
C2540 C2541 1.524 . S
C2540 C2554 1.377 . S
C2541 C2540 1.524 . S
C2541 C2542 1.397 . S
C2541 C2546 1.363 . S
C2542 H2519 0.950 . S
C2542 C2541 1.397 . S
C2542 C2543 1.334 . S
C2543 H2520 0.950 . S
C2543 C2542 1.334 . S
C2543 C2544 1.287 . S
C2544 C2543 1.287 . S
C2544 C2545 1.524 . S
C2544 H2563 0.913 . S
C2545 H2521 0.950 . S
C2545 C2544 1.524 . S
C2545 C2546 1.415 . S
C2546 H2522 0.950 . S
C2546 C2541 1.363 . S
C2546 C2545 1.415 . S
C2547 H2523 0.951 . S
C2547 C2548 1.366 . S
C2547 C2549 1.388 . S
C2548 C2547 1.366 . S
C2548 C2552 1.385 . S
C2549 H2524 0.951 . S
C2549 C2547 1.388 . S
C2549 C2550 1.366 . S
C2550 C2549 1.366 . S
C2550 C2551 1.414 . S
C2550 C2553 1.499 . S
C2551 H2525 0.950 . S
C2551 C2550 1.414 . S
C2551 C2552 1.374 . S
C2552 H2526 0.950 . S
C2552 C2548 1.385 . S
C2552 C2551 1.374 . S
C2553 C2550 1.499 . S
C2553 C2554 1.373 . S
C2553 C2555 1.389 . S
C2554 H2527 0.950 . S
C2554 C2540 1.377 . S
C2554 C2553 1.373 . S
C2555 C2539 1.377 . S
C2555 C2553 1.389 . S
C2555 C2556 1.524 . S
C2556 C2555 1.524 . S
C2556 C2557 1.397 . S
C2556 C2561 1.363 . S
C2557 H2528 0.950 . S
C2557 C2556 1.397 . S
C2557 C2558 1.334 . S
C2558 H2529 0.950 . S
C2558 C2557 1.334 . S
C2558 C2559 1.287 . S
C2559 C2558 1.287 . S
C2559 C2560 1.524 . S
C2559 H2562 0.999 . S
C2560 H2530 0.950 . S
C2560 C2559 1.524 . S
C2560 C2561 1.415 . S
C2561 H2531 0.950 . S
C2561 C2556 1.363 . S
C2561 C2560 1.415 . S
H2562 C2559 0.999 . S
H2563 C2544 0.913 . S
H2564 C2582 0.951 . S
H2565 C2584 0.951 . S
H2566 C2586 0.950 . S
H2567 C2587 0.950 . S
H2568 C2589 0.950 . S
H2569 C2592 0.950 . S
H2570 C2593 0.950 . S
H2571 C2595 0.950 . S
H2572 C2596 0.950 . S
H2573 C2597 0.951 . S
H2574 C2599 0.951 . S
H2575 C2601 0.950 . S
H2576 C2602 0.950 . S
H2577 C2604 0.950 . S
H2578 C2607 0.950 . S
H2579 C2608 0.950 . S
H2580 C2610 0.950 1_556 S
H2581 C2611 0.950 . S
C2582 H2564 0.951 . S
C2582 C2583 1.366 . S
C2582 C2584 1.388 . S
C2583 C2582 1.366 . S
C2583 C2587 1.385 . S
C2584 H2565 0.951 . S
C2584 C2582 1.388 . S
C2584 C2585 1.366 . S
C2585 C2584 1.366 . S
C2585 C2586 1.414 . S
C2585 C2588 1.499 . S
C2586 H2566 0.950 . S
C2586 C2585 1.414 . S
C2586 C2587 1.374 . S
C2587 H2567 0.950 . S
C2587 C2583 1.385 . S
C2587 C2586 1.374 . S
C2588 C2585 1.499 . S
C2588 C2589 1.373 . S
C2588 C2590 1.389 . S
C2589 H2568 0.950 . S
C2589 C2588 1.373 . S
C2589 C2605 1.377 . S
C2590 C2588 1.389 . S
C2590 C2591 1.524 . S
C2590 C2604 1.377 . S
C2591 C2590 1.524 . S
C2591 C2592 1.397 . S
C2591 C2596 1.363 . S
C2592 H2569 0.950 . S
C2592 C2591 1.397 . S
C2592 C2593 1.334 . S
C2593 H2570 0.950 . S
C2593 C2592 1.334 . S
C2593 C2594 1.287 . S
C2594 C2593 1.287 . S
C2594 C2595 1.524 . S
C2594 H2613 0.913 . S
C2595 H2571 0.950 . S
C2595 C2594 1.524 . S
C2595 C2596 1.415 . S
C2596 H2572 0.950 . S
C2596 C2591 1.363 . S
C2596 C2595 1.415 . S
C2597 H2573 0.951 . S
C2597 C2598 1.366 . S
C2597 C2599 1.388 . S
C2598 C2597 1.366 . S
C2598 C2602 1.385 . S
C2599 H2574 0.951 . S
C2599 C2597 1.388 . S
C2599 C2600 1.366 . S
C2600 C2599 1.366 . S
C2600 C2601 1.414 . S
C2600 C2603 1.499 . S
C2601 H2575 0.950 . S
C2601 C2600 1.414 . S
C2601 C2602 1.374 . S
C2602 H2576 0.950 . S
C2602 C2598 1.385 . S
C2602 C2601 1.374 . S
C2603 C2600 1.499 . S
C2603 C2604 1.373 . S
C2603 C2605 1.389 . S
C2604 H2577 0.950 . S
C2604 C2590 1.377 . S
C2604 C2603 1.373 . S
C2605 C2589 1.377 . S
C2605 C2603 1.389 . S
C2605 C2606 1.524 . S
C2606 C2605 1.524 . S
C2606 C2607 1.397 . S
C2606 C2611 1.363 . S
C2607 H2578 0.950 . S
C2607 C2606 1.397 . S
C2607 C2608 1.334 . S
C2608 H2579 0.950 . S
C2608 C2607 1.334 . S
C2608 C2609 1.287 . S
C2609 C2608 1.287 . S
C2609 C2610 1.524 . S
C2609 H2612 0.999 . S
C2610 H2580 0.950 1_554 S
C2610 C2609 1.524 . S
C2610 C2611 1.415 . S
C2611 H2581 0.950 . S
C2611 C2606 1.363 . S
C2611 C2610 1.415 . S
H2612 C2609 0.999 . S
H2613 C2594 0.913 . S
H2614 C2632 0.951 . S
H2615 C2634 0.951 . S
H2616 C2636 0.950 . S
H2617 C2637 0.950 . S
H2618 C2639 0.950 . S
H2619 C2642 0.950 . S
H2620 C2643 0.950 . S
H2621 C2645 0.950 . S
H2622 C2646 0.950 . S
H2623 C2647 0.951 . S
H2624 C2649 0.951 . S
H2625 C2651 0.950 . S
H2626 C2652 0.950 . S
H2627 C2654 0.950 . S
H2628 C2657 0.950 . S
H2629 C2658 0.950 1_556 S
H2630 C2660 0.950 . S
H2631 C2661 0.950 . S
C2632 H2614 0.951 . S
C2632 C2633 1.366 . S
C2632 C2634 1.388 . S
C2633 C2632 1.366 . S
C2633 C2637 1.385 . S
C2634 H2615 0.951 . S
C2634 C2632 1.388 . S
C2634 C2635 1.366 . S
C2635 C2634 1.366 . S
C2635 C2636 1.414 . S
C2635 C2638 1.499 . S
C2636 H2616 0.950 . S
C2636 C2635 1.414 . S
C2636 C2637 1.374 . S
C2637 H2617 0.950 . S
C2637 C2633 1.385 . S
C2637 C2636 1.374 . S
C2638 C2635 1.499 . S
C2638 C2639 1.373 . S
C2638 C2640 1.389 . S
C2639 H2618 0.950 . S
C2639 C2638 1.373 . S
C2639 C2655 1.377 . S
C2640 C2638 1.389 . S
C2640 C2641 1.524 . S
C2640 C2654 1.377 . S
C2641 C2640 1.524 . S
C2641 C2642 1.397 . S
C2641 C2646 1.363 . S
C2642 H2619 0.950 . S
C2642 C2641 1.397 . S
C2642 C2643 1.334 . S
C2643 H2620 0.950 . S
C2643 C2642 1.334 . S
C2643 C2644 1.287 . S
C2644 C2643 1.287 . S
C2644 C2645 1.524 . S
C2644 H2663 0.913 . S
C2645 H2621 0.950 . S
C2645 C2644 1.524 . S
C2645 C2646 1.415 . S
C2646 H2622 0.950 . S
C2646 C2641 1.363 . S
C2646 C2645 1.415 . S
C2647 H2623 0.951 . S
C2647 C2648 1.366 . S
C2647 C2649 1.388 . S
C2648 C2647 1.366 . S
C2648 C2652 1.385 . S
C2649 H2624 0.951 . S
C2649 C2647 1.388 . S
C2649 C2650 1.366 . S
C2650 C2649 1.366 . S
C2650 C2651 1.414 . S
C2650 C2653 1.499 . S
C2651 H2625 0.950 . S
C2651 C2650 1.414 . S
C2651 C2652 1.374 . S
C2652 H2626 0.950 . S
C2652 C2648 1.385 . S
C2652 C2651 1.374 . S
C2653 C2650 1.499 . S
C2653 C2654 1.373 . S
C2653 C2655 1.389 . S
C2654 H2627 0.950 . S
C2654 C2640 1.377 . S
C2654 C2653 1.373 . S
C2655 C2639 1.377 . S
C2655 C2653 1.389 . S
C2655 C2656 1.524 . S
C2656 C2655 1.524 . S
C2656 C2657 1.397 . S
C2656 C2661 1.363 . S
C2657 H2628 0.950 . S
C2657 C2656 1.397 . S
C2657 C2658 1.334 . S
C2658 H2629 0.950 1_554 S
C2658 C2657 1.334 . S
C2658 C2659 1.287 . S
C2659 C2658 1.287 . S
C2659 C2660 1.524 . S
C2659 H2662 0.999 1_554 S
C2660 H2630 0.950 . S
C2660 C2659 1.524 . S
C2660 C2661 1.415 . S
C2661 H2631 0.950 . S
C2661 C2656 1.363 . S
C2661 C2660 1.415 . S
H2662 C2659 0.999 1_556 S
H2663 C2644 0.913 . S
H2664 C2682 0.951 . S
H2665 C2684 0.951 . S
H2666 C2686 0.950 . S
H2667 C2687 0.950 . S
H2668 C2689 0.950 . S
H2669 C2692 0.950 . S
H2670 C2693 0.950 . S
H2671 C2695 0.950 . S
H2672 C2696 0.950 . S
H2673 C2697 0.951 . S
H2674 C2699 0.951 . S
H2675 C2701 0.950 . S
H2676 C2702 0.950 . S
H2677 C2704 0.950 . S
H2678 C2707 0.950 . S
H2679 C2708 0.950 . S
H2680 C2710 0.950 . S
H2681 C2711 0.950 . S
C2682 H2664 0.951 . S
C2682 C2683 1.366 . S
C2682 C2684 1.388 . S
C2683 C2682 1.366 . S
C2683 C2687 1.385 . S
C2684 H2665 0.951 . S
C2684 C2682 1.388 . S
C2684 C2685 1.366 . S
C2685 C2684 1.366 . S
C2685 C2686 1.414 . S
C2685 C2688 1.499 . S
C2686 H2666 0.950 . S
C2686 C2685 1.414 . S
C2686 C2687 1.374 . S
C2687 H2667 0.950 . S
C2687 C2683 1.385 . S
C2687 C2686 1.374 . S
C2688 C2685 1.499 . S
C2688 C2689 1.373 . S
C2688 C2690 1.389 . S
C2689 H2668 0.950 . S
C2689 C2688 1.373 . S
C2689 C2705 1.377 . S
C2690 C2688 1.389 . S
C2690 C2691 1.524 . S
C2690 C2704 1.377 . S
C2691 C2690 1.524 . S
C2691 C2692 1.397 . S
C2691 C2696 1.363 . S
C2692 H2669 0.950 . S
C2692 C2691 1.397 . S
C2692 C2693 1.334 . S
C2693 H2670 0.950 . S
C2693 C2692 1.334 . S
C2693 C2694 1.287 . S
C2694 C2693 1.287 . S
C2694 C2695 1.524 . S
C2694 H2713 0.913 . S
C2695 H2671 0.950 . S
C2695 C2694 1.524 . S
C2695 C2696 1.415 . S
C2696 H2672 0.950 . S
C2696 C2691 1.363 . S
C2696 C2695 1.415 . S
C2697 H2673 0.951 . S
C2697 C2698 1.366 . S
C2697 C2699 1.388 . S
C2698 C2697 1.366 . S
C2698 C2702 1.385 . S
C2699 H2674 0.951 . S
C2699 C2697 1.388 . S
C2699 C2700 1.366 . S
C2700 C2699 1.366 . S
C2700 C2701 1.414 . S
C2700 C2703 1.499 . S
C2701 H2675 0.950 . S
C2701 C2700 1.414 . S
C2701 C2702 1.374 . S
C2702 H2676 0.950 . S
C2702 C2698 1.385 . S
C2702 C2701 1.374 . S
C2703 C2700 1.499 . S
C2703 C2704 1.373 . S
C2703 C2705 1.389 . S
C2704 H2677 0.950 . S
C2704 C2690 1.377 . S
C2704 C2703 1.373 . S
C2705 C2689 1.377 . S
C2705 C2703 1.389 . S
C2705 C2706 1.524 . S
C2706 C2705 1.524 . S
C2706 C2707 1.397 . S
C2706 C2711 1.363 . S
C2707 H2678 0.950 . S
C2707 C2706 1.397 . S
C2707 C2708 1.334 . S
C2708 H2679 0.950 . S
C2708 C2707 1.334 . S
C2708 C2709 1.287 . S
C2709 C2708 1.287 . S
C2709 C2710 1.524 . S
C2709 H2712 0.999 . S
C2710 H2680 0.950 . S
C2710 C2709 1.524 . S
C2710 C2711 1.415 . S
C2711 H2681 0.950 . S
C2711 C2706 1.363 . S
C2711 C2710 1.415 . S
H2712 C2709 0.999 . S
H2713 C2694 0.913 . S
H2714 C2732 0.951 . S
H2715 C2734 0.951 . S
H2716 C2736 0.950 . S
H2717 C2737 0.950 . S
H2718 C2739 0.950 . S
H2719 C2742 0.950 . S
H2720 C2743 0.950 . S
H2721 C2745 0.950 . S
H2722 C2746 0.950 . S
H2723 C2747 0.951 . S
H2724 C2749 0.951 . S
H2725 C2751 0.950 . S
H2726 C2752 0.950 . S
H2727 C2754 0.950 . S
H2728 C2757 0.950 . S
H2729 C2758 0.950 . S
H2730 C2760 0.950 . S
H2731 C2761 0.950 . S
C2732 H2714 0.951 . S
C2732 C2733 1.366 . S
C2732 C2734 1.388 . S
C2733 C2732 1.366 . S
C2733 C2737 1.385 . S
C2734 H2715 0.951 . S
C2734 C2732 1.388 . S
C2734 C2735 1.366 . S
C2735 C2734 1.366 . S
C2735 C2736 1.414 . S
C2735 C2738 1.499 . S
C2736 H2716 0.950 . S
C2736 C2735 1.414 . S
C2736 C2737 1.374 . S
C2737 H2717 0.950 . S
C2737 C2733 1.385 . S
C2737 C2736 1.374 . S
C2738 C2735 1.499 . S
C2738 C2739 1.373 . S
C2738 C2740 1.389 . S
C2739 H2718 0.950 . S
C2739 C2738 1.373 . S
C2739 C2755 1.377 . S
C2740 C2738 1.389 . S
C2740 C2741 1.524 . S
C2740 C2754 1.377 . S
C2741 C2740 1.524 . S
C2741 C2742 1.397 . S
C2741 C2746 1.363 . S
C2742 H2719 0.950 . S
C2742 C2741 1.397 . S
C2742 C2743 1.334 . S
C2743 H2720 0.950 . S
C2743 C2742 1.334 . S
C2743 C2744 1.287 . S
C2744 C2743 1.287 . S
C2744 C2745 1.524 . S
C2744 H2763 0.913 . S
C2745 H2721 0.950 . S
C2745 C2744 1.524 . S
C2745 C2746 1.415 . S
C2746 H2722 0.950 . S
C2746 C2741 1.363 . S
C2746 C2745 1.415 . S
C2747 H2723 0.951 . S
C2747 C2748 1.366 . S
C2747 C2749 1.388 . S
C2748 C2747 1.366 . S
C2748 C2752 1.385 . S
C2749 H2724 0.951 . S
C2749 C2747 1.388 . S
C2749 C2750 1.366 . S
C2750 C2749 1.366 . S
C2750 C2751 1.414 . S
C2750 C2753 1.499 . S
C2751 H2725 0.950 . S
C2751 C2750 1.414 . S
C2751 C2752 1.374 . S
C2752 H2726 0.950 . S
C2752 C2748 1.385 . S
C2752 C2751 1.374 . S
C2753 C2750 1.499 . S
C2753 C2754 1.373 . S
C2753 C2755 1.389 . S
C2754 H2727 0.950 . S
C2754 C2740 1.377 . S
C2754 C2753 1.373 . S
C2755 C2739 1.377 . S
C2755 C2753 1.389 . S
C2755 C2756 1.524 . S
C2756 C2755 1.524 . S
C2756 C2757 1.397 . S
C2756 C2761 1.363 . S
C2757 H2728 0.950 . S
C2757 C2756 1.397 . S
C2757 C2758 1.334 . S
C2758 H2729 0.950 . S
C2758 C2757 1.334 . S
C2758 C2759 1.287 . S
C2759 C2758 1.287 . S
C2759 C2760 1.524 . S
C2759 H2762 0.999 . S
C2760 H2730 0.950 . S
C2760 C2759 1.524 . S
C2760 C2761 1.415 . S
C2761 H2731 0.950 . S
C2761 C2756 1.363 . S
C2761 C2760 1.415 . S
H2762 C2759 0.999 . S
H2763 C2744 0.913 . S
H2764 C2782 0.951 . S
H2765 C2784 0.951 . S
H2766 C2786 0.950 . S
H2767 C2787 0.950 . S
H2768 C2789 0.950 . S
H2769 C2792 0.950 . S
H2770 C2793 0.950 . S
H2771 C2795 0.950 . S
H2772 C2796 0.950 . S
H2773 C2797 0.951 . S
H2774 C2799 0.951 . S
H2775 C2801 0.950 . S
H2776 C2802 0.950 . S
H2777 C2804 0.950 . S
H2778 C2807 0.950 . S
H2779 C2808 0.950 . S
H2780 C2810 0.950 . S
H2781 C2811 0.950 . S
C2782 H2764 0.951 . S
C2782 C2783 1.366 . S
C2782 C2784 1.388 . S
C2783 C2782 1.366 . S
C2783 C2787 1.385 . S
C2784 H2765 0.951 . S
C2784 C2782 1.388 . S
C2784 C2785 1.366 . S
C2785 C2784 1.366 . S
C2785 C2786 1.414 . S
C2785 C2788 1.499 . S
C2786 H2766 0.950 . S
C2786 C2785 1.414 . S
C2786 C2787 1.374 . S
C2787 H2767 0.950 . S
C2787 C2783 1.385 . S
C2787 C2786 1.374 . S
C2788 C2785 1.499 . S
C2788 C2789 1.373 . S
C2788 C2790 1.389 . S
C2789 H2768 0.950 . S
C2789 C2788 1.373 . S
C2789 C2805 1.377 . S
C2790 C2788 1.389 . S
C2790 C2791 1.524 . S
C2790 C2804 1.377 . S
C2791 C2790 1.524 . S
C2791 C2792 1.397 . S
C2791 C2796 1.363 . S
C2792 H2769 0.950 . S
C2792 C2791 1.397 . S
C2792 C2793 1.334 . S
C2793 H2770 0.950 . S
C2793 C2792 1.334 . S
C2793 C2794 1.287 . S
C2794 C2793 1.287 . S
C2794 C2795 1.524 . S
C2794 H2813 0.913 . S
C2795 H2771 0.950 . S
C2795 C2794 1.524 . S
C2795 C2796 1.415 . S
C2796 H2772 0.950 . S
C2796 C2791 1.363 . S
C2796 C2795 1.415 . S
C2797 H2773 0.951 . S
C2797 C2798 1.366 . S
C2797 C2799 1.388 . S
C2798 C2797 1.366 . S
C2798 C2802 1.385 . S
C2799 H2774 0.951 . S
C2799 C2797 1.388 . S
C2799 C2800 1.366 . S
C2800 C2799 1.366 . S
C2800 C2801 1.414 . S
C2800 C2803 1.499 . S
C2801 H2775 0.950 . S
C2801 C2800 1.414 . S
C2801 C2802 1.374 . S
C2802 H2776 0.950 . S
C2802 C2798 1.385 . S
C2802 C2801 1.374 . S
C2803 C2800 1.499 . S
C2803 C2804 1.373 . S
C2803 C2805 1.389 . S
C2804 H2777 0.950 . S
C2804 C2790 1.377 . S
C2804 C2803 1.373 . S
C2805 C2789 1.377 . S
C2805 C2803 1.389 . S
C2805 C2806 1.524 . S
C2806 C2805 1.524 . S
C2806 C2807 1.397 . S
C2806 C2811 1.363 . S
C2807 H2778 0.950 . S
C2807 C2806 1.397 . S
C2807 C2808 1.334 . S
C2808 H2779 0.950 . S
C2808 C2807 1.334 . S
C2808 C2809 1.287 . S
C2809 C2808 1.287 . S
C2809 C2810 1.524 . S
C2809 H2812 0.999 . S
C2810 H2780 0.950 . S
C2810 C2809 1.524 . S
C2810 C2811 1.415 . S
C2811 H2781 0.950 . S
C2811 C2806 1.363 . S
C2811 C2810 1.415 . S
H2812 C2809 0.999 . S
H2813 C2794 0.913 . S
H2814 C2832 0.951 . S
H2815 C2834 0.951 . S
H2816 C2836 0.950 . S
H2817 C2837 0.950 . S
H2818 C2839 0.950 . S
H2819 C2842 0.950 . S
H2820 C2843 0.950 . S
H2821 C2845 0.950 . S
H2822 C2846 0.950 . S
H2823 C2847 0.951 . S
H2824 C2849 0.951 . S
H2825 C2851 0.950 . S
H2826 C2852 0.950 . S
H2827 C2854 0.950 . S
H2828 C2857 0.950 . S
H2829 C2858 0.950 . S
H2830 C2860 0.950 . S
H2831 C2861 0.950 . S
C2832 H2814 0.951 . S
C2832 C2833 1.366 . S
C2832 C2834 1.388 . S
C2833 C2832 1.366 . S
C2833 C2837 1.385 . S
C2834 H2815 0.951 . S
C2834 C2832 1.388 . S
C2834 C2835 1.366 . S
C2835 C2834 1.366 . S
C2835 C2836 1.414 . S
C2835 C2838 1.499 . S
C2836 H2816 0.950 . S
C2836 C2835 1.414 . S
C2836 C2837 1.374 . S
C2837 H2817 0.950 . S
C2837 C2833 1.385 . S
C2837 C2836 1.374 . S
C2838 C2835 1.499 . S
C2838 C2839 1.373 . S
C2838 C2840 1.389 . S
C2839 H2818 0.950 . S
C2839 C2838 1.373 . S
C2839 C2855 1.377 . S
C2840 C2838 1.389 . S
C2840 C2841 1.524 . S
C2840 C2854 1.377 . S
C2841 C2840 1.524 . S
C2841 C2842 1.397 . S
C2841 C2846 1.363 . S
C2842 H2819 0.950 . S
C2842 C2841 1.397 . S
C2842 C2843 1.334 . S
C2843 H2820 0.950 . S
C2843 C2842 1.334 . S
C2843 C2844 1.287 . S
C2844 C2843 1.287 . S
C2844 C2845 1.524 . S
C2844 H2863 0.913 . S
C2845 H2821 0.950 . S
C2845 C2844 1.524 . S
C2845 C2846 1.415 . S
C2846 H2822 0.950 . S
C2846 C2841 1.363 . S
C2846 C2845 1.415 . S
C2847 H2823 0.951 . S
C2847 C2848 1.366 . S
C2847 C2849 1.388 . S
C2848 C2847 1.366 . S
C2848 C2852 1.385 . S
C2849 H2824 0.951 . S
C2849 C2847 1.388 . S
C2849 C2850 1.366 . S
C2850 C2849 1.366 . S
C2850 C2851 1.414 . S
C2850 C2853 1.499 . S
C2851 H2825 0.950 . S
C2851 C2850 1.414 . S
C2851 C2852 1.374 . S
C2852 H2826 0.950 . S
C2852 C2848 1.385 . S
C2852 C2851 1.374 . S
C2853 C2850 1.499 . S
C2853 C2854 1.373 . S
C2853 C2855 1.389 . S
C2854 H2827 0.950 . S
C2854 C2840 1.377 . S
C2854 C2853 1.373 . S
C2855 C2839 1.377 . S
C2855 C2853 1.389 . S
C2855 C2856 1.524 . S
C2856 C2855 1.524 . S
C2856 C2857 1.397 . S
C2856 C2861 1.363 . S
C2857 H2828 0.950 . S
C2857 C2856 1.397 . S
C2857 C2858 1.334 . S
C2858 H2829 0.950 . S
C2858 C2857 1.334 . S
C2858 C2859 1.287 . S
C2859 C2858 1.287 . S
C2859 C2860 1.524 . S
C2859 H2862 0.999 . S
C2860 H2830 0.950 . S
C2860 C2859 1.524 . S
C2860 C2861 1.415 . S
C2861 H2831 0.950 . S
C2861 C2856 1.363 . S
C2861 C2860 1.415 . S
H2862 C2859 0.999 . S
H2863 C2844 0.913 . S
H2864 C2882 0.951 . S
H2865 C2884 0.951 . S
H2866 C2886 0.950 . S
H2867 C2887 0.950 . S
H2868 C2889 0.950 . S
H2869 C2892 0.950 . S
H2870 C2893 0.950 . S
H2871 C2895 0.950 . S
H2872 C2896 0.950 . S
H2873 C2897 0.951 . S
H2874 C2899 0.951 . S
H2875 C2901 0.950 . S
H2876 C2902 0.950 . S
H2877 C2904 0.950 . S
H2878 C2907 0.950 . S
H2879 C2908 0.950 . S
H2880 C2910 0.950 . S
H2881 C2911 0.950 . S
C2882 H2864 0.951 . S
C2882 C2883 1.366 . S
C2882 C2884 1.388 . S
C2883 C2882 1.366 . S
C2883 C2887 1.385 . S
C2884 H2865 0.951 . S
C2884 C2882 1.388 . S
C2884 C2885 1.366 . S
C2885 C2884 1.366 . S
C2885 C2886 1.414 . S
C2885 C2888 1.499 . S
C2886 H2866 0.950 . S
C2886 C2885 1.414 . S
C2886 C2887 1.374 . S
C2887 H2867 0.950 . S
C2887 C2883 1.385 . S
C2887 C2886 1.374 . S
C2888 C2885 1.499 . S
C2888 C2889 1.373 . S
C2888 C2890 1.389 . S
C2889 H2868 0.950 . S
C2889 C2888 1.373 . S
C2889 C2905 1.377 . S
C2890 C2888 1.389 . S
C2890 C2891 1.524 . S
C2890 C2904 1.377 . S
C2891 C2890 1.524 . S
C2891 C2892 1.397 . S
C2891 C2896 1.363 . S
C2892 H2869 0.950 . S
C2892 C2891 1.397 . S
C2892 C2893 1.334 . S
C2893 H2870 0.950 . S
C2893 C2892 1.334 . S
C2893 C2894 1.287 . S
C2894 C2893 1.287 . S
C2894 C2895 1.524 . S
C2894 H2913 0.913 . S
C2895 H2871 0.950 . S
C2895 C2894 1.524 . S
C2895 C2896 1.415 . S
C2896 H2872 0.950 . S
C2896 C2891 1.363 . S
C2896 C2895 1.415 . S
C2897 H2873 0.951 . S
C2897 C2898 1.366 . S
C2897 C2899 1.388 . S
C2898 C2897 1.366 . S
C2898 C2902 1.385 . S
C2899 H2874 0.951 . S
C2899 C2897 1.388 . S
C2899 C2900 1.366 . S
C2900 C2899 1.366 . S
C2900 C2901 1.414 . S
C2900 C2903 1.499 . S
C2901 H2875 0.950 . S
C2901 C2900 1.414 . S
C2901 C2902 1.374 . S
C2902 H2876 0.950 . S
C2902 C2898 1.385 . S
C2902 C2901 1.374 . S
C2903 C2900 1.499 . S
C2903 C2904 1.373 . S
C2903 C2905 1.389 . S
C2904 H2877 0.950 . S
C2904 C2890 1.377 . S
C2904 C2903 1.373 . S
C2905 C2889 1.377 . S
C2905 C2903 1.389 . S
C2905 C2906 1.524 . S
C2906 C2905 1.524 . S
C2906 C2907 1.397 . S
C2906 C2911 1.363 . S
C2907 H2878 0.950 . S
C2907 C2906 1.397 . S
C2907 C2908 1.334 . S
C2908 H2879 0.950 . S
C2908 C2907 1.334 . S
C2908 C2909 1.287 . S
C2909 C2908 1.287 . S
C2909 C2910 1.524 . S
C2909 H2912 0.999 . S
C2910 H2880 0.950 . S
C2910 C2909 1.524 . S
C2910 C2911 1.415 . S
C2911 H2881 0.950 . S
C2911 C2906 1.363 . S
C2911 C2910 1.415 . S
H2912 C2909 0.999 . S
H2913 C2894 0.913 . S
H2914 C2932 0.951 . S
H2915 C2934 0.951 . S
H2916 C2936 0.950 . S
H2917 C2937 0.950 . S
H2918 C2939 0.950 . S
H2919 C2942 0.950 . S
H2920 C2943 0.950 . S
H2921 C2945 0.950 . S
H2922 C2946 0.950 . S
H2923 C2947 0.951 . S
H2924 C2949 0.951 . S
H2925 C2951 0.950 . S
H2926 C2952 0.950 . S
H2927 C2954 0.950 . S
H2928 C2957 0.950 . S
H2929 C2958 0.950 . S
H2930 C2960 0.950 . S
H2931 C2961 0.950 . S
C2932 H2914 0.951 . S
C2932 C2933 1.366 . S
C2932 C2934 1.388 . S
C2933 C2932 1.366 . S
C2933 C2937 1.385 . S
C2934 H2915 0.951 . S
C2934 C2932 1.388 . S
C2934 C2935 1.366 . S
C2935 C2934 1.366 . S
C2935 C2936 1.414 . S
C2935 C2938 1.499 . S
C2936 H2916 0.950 . S
C2936 C2935 1.414 . S
C2936 C2937 1.374 . S
C2937 H2917 0.950 . S
C2937 C2933 1.385 . S
C2937 C2936 1.374 . S
C2938 C2935 1.499 . S
C2938 C2939 1.373 . S
C2938 C2940 1.389 . S
C2939 H2918 0.950 . S
C2939 C2938 1.373 . S
C2939 C2955 1.377 . S
C2940 C2938 1.389 . S
C2940 C2941 1.524 . S
C2940 C2954 1.377 . S
C2941 C2940 1.524 . S
C2941 C2942 1.397 . S
C2941 C2946 1.363 . S
C2942 H2919 0.950 . S
C2942 C2941 1.397 . S
C2942 C2943 1.334 . S
C2943 H2920 0.950 . S
C2943 C2942 1.334 . S
C2943 C2944 1.287 . S
C2944 C2943 1.287 . S
C2944 C2945 1.524 . S
C2944 H2963 0.913 . S
C2945 H2921 0.950 . S
C2945 C2944 1.524 . S
C2945 C2946 1.415 . S
C2946 H2922 0.950 . S
C2946 C2941 1.363 . S
C2946 C2945 1.415 . S
C2947 H2923 0.951 . S
C2947 C2948 1.366 . S
C2947 C2949 1.388 . S
C2948 C2947 1.366 . S
C2948 C2952 1.385 . S
C2949 H2924 0.951 . S
C2949 C2947 1.388 . S
C2949 C2950 1.366 . S
C2950 C2949 1.366 . S
C2950 C2951 1.414 . S
C2950 C2953 1.499 . S
C2951 H2925 0.950 . S
C2951 C2950 1.414 . S
C2951 C2952 1.374 . S
C2952 H2926 0.950 . S
C2952 C2948 1.385 . S
C2952 C2951 1.374 . S
C2953 C2950 1.499 . S
C2953 C2954 1.373 . S
C2953 C2955 1.389 . S
C2954 H2927 0.950 . S
C2954 C2940 1.377 . S
C2954 C2953 1.373 . S
C2955 C2939 1.377 . S
C2955 C2953 1.389 . S
C2955 C2956 1.524 . S
C2956 C2955 1.524 . S
C2956 C2957 1.397 . S
C2956 C2961 1.363 . S
C2957 H2928 0.950 . S
C2957 C2956 1.397 . S
C2957 C2958 1.334 . S
C2958 H2929 0.950 . S
C2958 C2957 1.334 . S
C2958 C2959 1.287 . S
C2959 C2958 1.287 . S
C2959 C2960 1.524 . S
C2959 H2962 0.999 . S
C2960 H2930 0.950 . S
C2960 C2959 1.524 . S
C2960 C2961 1.415 . S
C2961 H2931 0.950 . S
C2961 C2956 1.363 . S
C2961 C2960 1.415 . S
H2962 C2959 0.999 . S
H2963 C2944 0.913 . S
H2964 C2982 0.951 . S
H2965 C2984 0.951 . S
H2966 C2986 0.950 . S
H2967 C2987 0.950 . S
H2968 C2989 0.950 . S
H2969 C2992 0.950 . S
H2970 C2993 0.950 . S
H2971 C2995 0.950 . S
H2972 C2996 0.950 . S
H2973 C2997 0.951 . S
H2974 C2999 0.951 . S
H2975 C3001 0.950 . S
H2976 C3002 0.950 . S
H2977 C3004 0.950 . S
H2978 C3007 0.950 . S
H2979 C3008 0.950 . S
H2980 C3010 0.950 . S
H2981 C3011 0.950 . S
C2982 H2964 0.951 . S
C2982 C2983 1.366 . S
C2982 C2984 1.388 . S
C2983 C2982 1.366 . S
C2983 C2987 1.385 . S
C2984 H2965 0.951 . S
C2984 C2982 1.388 . S
C2984 C2985 1.366 . S
C2985 C2984 1.366 . S
C2985 C2986 1.414 . S
C2985 C2988 1.499 . S
C2986 H2966 0.950 . S
C2986 C2985 1.414 . S
C2986 C2987 1.374 . S
C2987 H2967 0.950 . S
C2987 C2983 1.385 . S
C2987 C2986 1.374 . S
C2988 C2985 1.499 . S
C2988 C2989 1.373 . S
C2988 C2990 1.389 . S
C2989 H2968 0.950 . S
C2989 C2988 1.373 . S
C2989 C3005 1.377 . S
C2990 C2988 1.389 . S
C2990 C2991 1.524 . S
C2990 C3004 1.377 . S
C2991 C2990 1.524 . S
C2991 C2992 1.397 . S
C2991 C2996 1.363 . S
C2992 H2969 0.950 . S
C2992 C2991 1.397 . S
C2992 C2993 1.334 . S
C2993 H2970 0.950 . S
C2993 C2992 1.334 . S
C2993 C2994 1.287 . S
C2994 C2993 1.287 . S
C2994 C2995 1.524 . S
C2994 H3013 0.913 . S
C2995 H2971 0.950 . S
C2995 C2994 1.524 . S
C2995 C2996 1.415 . S
C2996 H2972 0.950 . S
C2996 C2991 1.363 . S
C2996 C2995 1.415 . S
C2997 H2973 0.951 . S
C2997 C2998 1.366 . S
C2997 C2999 1.388 . S
C2998 C2997 1.366 . S
C2998 C3002 1.385 . S
C2999 H2974 0.951 . S
C2999 C2997 1.388 . S
C2999 C3000 1.366 . S
C3000 C2999 1.366 . S
C3000 C3001 1.414 . S
C3000 C3003 1.499 . S
C3001 H2975 0.950 . S
C3001 C3000 1.414 . S
C3001 C3002 1.374 . S
C3002 H2976 0.950 . S
C3002 C2998 1.385 . S
C3002 C3001 1.374 . S
C3003 C3000 1.499 . S
C3003 C3004 1.373 . S
C3003 C3005 1.389 . S
C3004 H2977 0.950 . S
C3004 C2990 1.377 . S
C3004 C3003 1.373 . S
C3005 C2989 1.377 . S
C3005 C3003 1.389 . S
C3005 C3006 1.524 . S
C3006 C3005 1.524 . S
C3006 C3007 1.397 . S
C3006 C3011 1.363 . S
C3007 H2978 0.950 . S
C3007 C3006 1.397 . S
C3007 C3008 1.334 . S
C3008 H2979 0.950 . S
C3008 C3007 1.334 . S
C3008 C3009 1.287 . S
C3009 C3008 1.287 . S
C3009 C3010 1.524 . S
C3009 H3012 0.999 . S
C3010 H2980 0.950 . S
C3010 C3009 1.524 . S
C3010 C3011 1.415 . S
C3011 H2981 0.950 . S
C3011 C3006 1.363 . S
C3011 C3010 1.415 . S
H3012 C3009 0.999 . S
H3013 C2994 0.913 . S
H3014 C3032 0.951 . S
H3015 C3034 0.951 . S
H3016 C3036 0.950 . S
H3017 C3037 0.950 . S
H3018 C3039 0.950 . S
H3019 C3042 0.950 . S
H3020 C3043 0.950 . S
H3021 C3045 0.950 . S
H3022 C3046 0.950 . S
H3023 C3047 0.951 . S
H3024 C3049 0.951 . S
H3025 C3051 0.950 . S
H3026 C3052 0.950 . S
H3027 C3054 0.950 . S
H3028 C3057 0.950 . S
H3029 C3058 0.950 . S
H3030 C3060 0.950 . S
H3031 C3061 0.950 . S
C3032 H3014 0.951 . S
C3032 C3033 1.366 . S
C3032 C3034 1.388 . S
C3033 C3032 1.366 . S
C3033 C3037 1.385 . S
C3034 H3015 0.951 . S
C3034 C3032 1.388 . S
C3034 C3035 1.366 . S
C3035 C3034 1.366 . S
C3035 C3036 1.414 . S
C3035 C3038 1.499 . S
C3036 H3016 0.950 . S
C3036 C3035 1.414 . S
C3036 C3037 1.374 . S
C3037 H3017 0.950 . S
C3037 C3033 1.385 . S
C3037 C3036 1.374 . S
C3038 C3035 1.499 . S
C3038 C3039 1.373 . S
C3038 C3040 1.389 . S
C3039 H3018 0.950 . S
C3039 C3038 1.373 . S
C3039 C3055 1.377 . S
C3040 C3038 1.389 . S
C3040 C3041 1.524 . S
C3040 C3054 1.377 . S
C3041 C3040 1.524 . S
C3041 C3042 1.397 . S
C3041 C3046 1.363 . S
C3042 H3019 0.950 . S
C3042 C3041 1.397 . S
C3042 C3043 1.334 . S
C3043 H3020 0.950 . S
C3043 C3042 1.334 . S
C3043 C3044 1.287 . S
C3044 C3043 1.287 . S
C3044 C3045 1.524 . S
C3044 H3063 0.913 . S
C3045 H3021 0.950 . S
C3045 C3044 1.524 . S
C3045 C3046 1.415 . S
C3046 H3022 0.950 . S
C3046 C3041 1.363 . S
C3046 C3045 1.415 . S
C3047 H3023 0.951 . S
C3047 C3048 1.366 . S
C3047 C3049 1.388 . S
C3048 C3047 1.366 . S
C3048 C3052 1.385 . S
C3049 H3024 0.951 . S
C3049 C3047 1.388 . S
C3049 C3050 1.366 . S
C3050 C3049 1.366 . S
C3050 C3051 1.414 . S
C3050 C3053 1.499 . S
C3051 H3025 0.950 . S
C3051 C3050 1.414 . S
C3051 C3052 1.374 . S
C3052 H3026 0.950 . S
C3052 C3048 1.385 . S
C3052 C3051 1.374 . S
C3053 C3050 1.499 . S
C3053 C3054 1.373 . S
C3053 C3055 1.389 . S
C3054 H3027 0.950 . S
C3054 C3040 1.377 . S
C3054 C3053 1.373 . S
C3055 C3039 1.377 . S
C3055 C3053 1.389 . S
C3055 C3056 1.524 . S
C3056 C3055 1.524 . S
C3056 C3057 1.397 . S
C3056 C3061 1.363 . S
C3057 H3028 0.950 . S
C3057 C3056 1.397 . S
C3057 C3058 1.334 . S
C3058 H3029 0.950 . S
C3058 C3057 1.334 . S
C3058 C3059 1.287 . S
C3059 C3058 1.287 . S
C3059 C3060 1.524 . S
C3059 H3062 0.999 . S
C3060 H3030 0.950 . S
C3060 C3059 1.524 . S
C3060 C3061 1.415 . S
C3061 H3031 0.950 . S
C3061 C3056 1.363 . S
C3061 C3060 1.415 . S
H3062 C3059 0.999 . S
H3063 C3044 0.913 . S
H3064 C3082 0.951 . S
H3065 C3084 0.951 . S
H3066 C3086 0.950 . S
H3067 C3087 0.950 . S
H3068 C3089 0.950 . S
H3069 C3092 0.950 . S
H3070 C3093 0.950 . S
H3071 C3095 0.950 . S
H3072 C3096 0.950 . S
H3073 C3097 0.951 . S
H3074 C3099 0.951 . S
H3075 C3101 0.950 . S
H3076 C3102 0.950 . S
H3077 C3104 0.950 . S
H3078 C3107 0.950 . S
H3079 C3108 0.950 . S
H3080 C3110 0.950 . S
H3081 C3111 0.950 . S
C3082 H3064 0.951 . S
C3082 C3083 1.366 . S
C3082 C3084 1.388 . S
C3083 C3082 1.366 . S
C3083 C3087 1.385 . S
C3084 H3065 0.951 . S
C3084 C3082 1.388 . S
C3084 C3085 1.366 . S
C3085 C3084 1.366 . S
C3085 C3086 1.414 . S
C3085 C3088 1.499 . S
C3086 H3066 0.950 . S
C3086 C3085 1.414 . S
C3086 C3087 1.374 . S
C3087 H3067 0.950 . S
C3087 C3083 1.385 . S
C3087 C3086 1.374 . S
C3088 C3085 1.499 . S
C3088 C3089 1.373 . S
C3088 C3090 1.389 . S
C3089 H3068 0.950 . S
C3089 C3088 1.373 . S
C3089 C3105 1.377 . S
C3090 C3088 1.389 . S
C3090 C3091 1.524 . S
C3090 C3104 1.377 . S
C3091 C3090 1.524 . S
C3091 C3092 1.397 . S
C3091 C3096 1.363 . S
C3092 H3069 0.950 . S
C3092 C3091 1.397 . S
C3092 C3093 1.334 . S
C3093 H3070 0.950 . S
C3093 C3092 1.334 . S
C3093 C3094 1.287 . S
C3094 C3093 1.287 . S
C3094 C3095 1.524 . S
C3094 H3113 0.913 . S
C3095 H3071 0.950 . S
C3095 C3094 1.524 . S
C3095 C3096 1.415 . S
C3096 H3072 0.950 . S
C3096 C3091 1.363 . S
C3096 C3095 1.415 . S
C3097 H3073 0.951 . S
C3097 C3098 1.366 . S
C3097 C3099 1.388 . S
C3098 C3097 1.366 . S
C3098 C3102 1.385 . S
C3099 H3074 0.951 . S
C3099 C3097 1.388 . S
C3099 C3100 1.366 . S
C3100 C3099 1.366 . S
C3100 C3101 1.414 . S
C3100 C3103 1.499 . S
C3101 H3075 0.950 . S
C3101 C3100 1.414 . S
C3101 C3102 1.374 . S
C3102 H3076 0.950 . S
C3102 C3098 1.385 . S
C3102 C3101 1.374 . S
C3103 C3100 1.499 . S
C3103 C3104 1.373 . S
C3103 C3105 1.389 . S
C3104 H3077 0.950 . S
C3104 C3090 1.377 . S
C3104 C3103 1.373 . S
C3105 C3089 1.377 . S
C3105 C3103 1.389 . S
C3105 C3106 1.524 . S
C3106 C3105 1.524 . S
C3106 C3107 1.397 . S
C3106 C3111 1.363 . S
C3107 H3078 0.950 . S
C3107 C3106 1.397 . S
C3107 C3108 1.334 . S
C3108 H3079 0.950 . S
C3108 C3107 1.334 . S
C3108 C3109 1.287 . S
C3109 C3108 1.287 . S
C3109 C3110 1.524 . S
C3109 H3112 0.999 . S
C3110 H3080 0.950 . S
C3110 C3109 1.524 . S
C3110 C3111 1.415 . S
C3111 H3081 0.950 . S
C3111 C3106 1.363 . S
C3111 C3110 1.415 . S
H3112 C3109 0.999 . S
H3113 C3094 0.913 . S
H3114 C3132 0.951 . S
H3115 C3134 0.951 . S
H3116 C3136 0.950 . S
H3117 C3137 0.950 . S
H3118 C3139 0.950 . S
H3119 C3142 0.950 . S
H3120 C3143 0.950 . S
H3121 C3145 0.950 . S
H3122 C3146 0.950 . S
H3123 C3147 0.951 . S
H3124 C3149 0.951 . S
H3125 C3151 0.950 . S
H3126 C3152 0.950 . S
H3127 C3154 0.950 . S
H3128 C3157 0.950 . S
H3129 C3158 0.950 . S
H3130 C3160 0.950 . S
H3131 C3161 0.950 . S
C3132 H3114 0.951 . S
C3132 C3133 1.366 . S
C3132 C3134 1.388 . S
C3133 C3132 1.366 . S
C3133 C3137 1.385 . S
C3134 H3115 0.951 . S
C3134 C3132 1.388 . S
C3134 C3135 1.366 . S
C3135 C3134 1.366 . S
C3135 C3136 1.414 . S
C3135 C3138 1.499 . S
C3136 H3116 0.950 . S
C3136 C3135 1.414 . S
C3136 C3137 1.374 . S
C3137 H3117 0.950 . S
C3137 C3133 1.385 . S
C3137 C3136 1.374 . S
C3138 C3135 1.499 . S
C3138 C3139 1.373 . S
C3138 C3140 1.389 . S
C3139 H3118 0.950 . S
C3139 C3138 1.373 . S
C3139 C3155 1.377 . S
C3140 C3138 1.389 . S
C3140 C3141 1.524 . S
C3140 C3154 1.377 . S
C3141 C3140 1.524 . S
C3141 C3142 1.397 . S
C3141 C3146 1.363 . S
C3142 H3119 0.950 . S
C3142 C3141 1.397 . S
C3142 C3143 1.334 . S
C3143 H3120 0.950 . S
C3143 C3142 1.334 . S
C3143 C3144 1.287 . S
C3144 C3143 1.287 . S
C3144 C3145 1.524 . S
C3144 H3163 0.913 . S
C3145 H3121 0.950 . S
C3145 C3144 1.524 . S
C3145 C3146 1.415 . S
C3146 H3122 0.950 . S
C3146 C3141 1.363 . S
C3146 C3145 1.415 . S
C3147 H3123 0.951 . S
C3147 C3148 1.366 . S
C3147 C3149 1.388 . S
C3148 C3147 1.366 . S
C3148 C3152 1.385 . S
C3149 H3124 0.951 . S
C3149 C3147 1.388 . S
C3149 C3150 1.366 . S
C3150 C3149 1.366 . S
C3150 C3151 1.414 . S
C3150 C3153 1.499 . S
C3151 H3125 0.950 . S
C3151 C3150 1.414 . S
C3151 C3152 1.374 . S
C3152 H3126 0.950 . S
C3152 C3148 1.385 . S
C3152 C3151 1.374 . S
C3153 C3150 1.499 . S
C3153 C3154 1.373 . S
C3153 C3155 1.389 . S
C3154 H3127 0.950 . S
C3154 C3140 1.377 . S
C3154 C3153 1.373 . S
C3155 C3139 1.377 . S
C3155 C3153 1.389 . S
C3155 C3156 1.524 . S
C3156 C3155 1.524 . S
C3156 C3157 1.397 . S
C3156 C3161 1.363 . S
C3157 H3128 0.950 . S
C3157 C3156 1.397 . S
C3157 C3158 1.334 . S
C3158 H3129 0.950 . S
C3158 C3157 1.334 . S
C3158 C3159 1.287 . S
C3159 C3158 1.287 . S
C3159 C3160 1.524 . S
C3159 H3162 0.999 . S
C3160 H3130 0.950 . S
C3160 C3159 1.524 . S
C3160 C3161 1.415 . S
C3161 H3131 0.950 . S
C3161 C3156 1.363 . S
C3161 C3160 1.415 . S
H3162 C3159 0.999 . S
H3163 C3144 0.913 . S
H3164 C3182 0.951 . S
H3165 C3184 0.951 . S
H3166 C3186 0.950 . S
H3167 C3187 0.950 . S
H3168 C3189 0.950 . S
H3169 C3192 0.950 . S
H3170 C3193 0.950 . S
H3171 C3195 0.950 1_556 S
H3172 C3196 0.950 . S
H3173 C3197 0.951 . S
H3174 C3199 0.951 . S
H3175 C3201 0.950 . S
H3176 C3202 0.950 . S
H3177 C3204 0.950 . S
H3178 C3207 0.950 . S
H3179 C3208 0.950 . S
H3180 C3210 0.950 . S
H3181 C3211 0.950 . S
C3182 H3164 0.951 . S
C3182 C3183 1.366 . S
C3182 C3184 1.388 . S
C3183 C3182 1.366 . S
C3183 C3187 1.385 . S
C3184 H3165 0.951 . S
C3184 C3182 1.388 . S
C3184 C3185 1.366 . S
C3185 C3184 1.366 . S
C3185 C3186 1.414 . S
C3185 C3188 1.499 . S
C3186 H3166 0.950 . S
C3186 C3185 1.414 . S
C3186 C3187 1.374 . S
C3187 H3167 0.950 . S
C3187 C3183 1.385 . S
C3187 C3186 1.374 . S
C3188 C3185 1.499 . S
C3188 C3189 1.373 . S
C3188 C3190 1.389 . S
C3189 H3168 0.950 . S
C3189 C3188 1.373 . S
C3189 C3205 1.377 . S
C3190 C3188 1.389 . S
C3190 C3191 1.524 . S
C3190 C3204 1.377 . S
C3191 C3190 1.524 . S
C3191 C3192 1.397 . S
C3191 C3196 1.363 . S
C3192 H3169 0.950 . S
C3192 C3191 1.397 . S
C3192 C3193 1.334 . S
C3193 H3170 0.950 . S
C3193 C3192 1.334 . S
C3193 C3194 1.287 . S
C3194 C3193 1.287 . S
C3194 C3195 1.524 . S
C3194 H3213 0.913 . S
C3195 H3171 0.950 1_554 S
C3195 C3194 1.524 . S
C3195 C3196 1.415 . S
C3196 H3172 0.950 . S
C3196 C3191 1.363 . S
C3196 C3195 1.415 . S
C3197 H3173 0.951 . S
C3197 C3198 1.366 . S
C3197 C3199 1.388 . S
C3198 C3197 1.366 . S
C3198 C3202 1.385 . S
C3199 H3174 0.951 . S
C3199 C3197 1.388 . S
C3199 C3200 1.366 . S
C3200 C3199 1.366 . S
C3200 C3201 1.414 . S
C3200 C3203 1.499 . S
C3201 H3175 0.950 . S
C3201 C3200 1.414 . S
C3201 C3202 1.374 . S
C3202 H3176 0.950 . S
C3202 C3198 1.385 . S
C3202 C3201 1.374 . S
C3203 C3200 1.499 . S
C3203 C3204 1.373 . S
C3203 C3205 1.389 . S
C3204 H3177 0.950 . S
C3204 C3190 1.377 . S
C3204 C3203 1.373 . S
C3205 C3189 1.377 . S
C3205 C3203 1.389 . S
C3205 C3206 1.524 . S
C3206 C3205 1.524 . S
C3206 C3207 1.397 . S
C3206 C3211 1.363 . S
C3207 H3178 0.950 . S
C3207 C3206 1.397 . S
C3207 C3208 1.334 . S
C3208 H3179 0.950 . S
C3208 C3207 1.334 . S
C3208 C3209 1.287 . S
C3209 C3208 1.287 . S
C3209 C3210 1.524 . S
C3209 H3212 0.999 . S
C3210 H3180 0.950 . S
C3210 C3209 1.524 . S
C3210 C3211 1.415 . S
C3211 H3181 0.950 . S
C3211 C3206 1.363 . S
C3211 C3210 1.415 . S
H3212 C3209 0.999 . S
H3213 C3194 0.913 . S
H3214 C3232 0.951 . S
H3215 C3234 0.951 . S
H3216 C3236 0.950 . S
H3217 C3237 0.950 . S
H3218 C3239 0.950 . S
H3219 C3242 0.950 . S
H3220 C3243 0.950 . S
H3221 C3245 0.950 . S
H3222 C3246 0.950 . S
H3223 C3247 0.951 . S
H3224 C3249 0.951 . S
H3225 C3251 0.950 . S
H3226 C3252 0.950 . S
H3227 C3254 0.950 . S
H3228 C3257 0.950 . S
H3229 C3258 0.950 . S
H3230 C3260 0.950 . S
H3231 C3261 0.950 . S
C3232 H3214 0.951 . S
C3232 C3233 1.366 . S
C3232 C3234 1.388 . S
C3233 C3232 1.366 . S
C3233 C3237 1.385 . S
C3234 H3215 0.951 . S
C3234 C3232 1.388 . S
C3234 C3235 1.366 . S
C3235 C3234 1.366 . S
C3235 C3236 1.414 . S
C3235 C3238 1.499 . S
C3236 H3216 0.950 . S
C3236 C3235 1.414 . S
C3236 C3237 1.374 . S
C3237 H3217 0.950 . S
C3237 C3233 1.385 . S
C3237 C3236 1.374 . S
C3238 C3235 1.499 . S
C3238 C3239 1.373 . S
C3238 C3240 1.389 . S
C3239 H3218 0.950 . S
C3239 C3238 1.373 . S
C3239 C3255 1.377 . S
C3240 C3238 1.389 . S
C3240 C3241 1.524 . S
C3240 C3254 1.377 . S
C3241 C3240 1.524 . S
C3241 C3242 1.397 . S
C3241 C3246 1.363 . S
C3242 H3219 0.950 . S
C3242 C3241 1.397 . S
C3242 C3243 1.334 . S
C3243 H3220 0.950 . S
C3243 C3242 1.334 . S
C3243 C3244 1.287 . S
C3244 C3243 1.287 . S
C3244 C3245 1.524 . S
C3244 H3263 0.913 . S
C3245 H3221 0.950 . S
C3245 C3244 1.524 . S
C3245 C3246 1.415 . S
C3246 H3222 0.950 . S
C3246 C3241 1.363 . S
C3246 C3245 1.415 . S
C3247 H3223 0.951 . S
C3247 C3248 1.366 . S
C3247 C3249 1.388 . S
C3248 C3247 1.366 . S
C3248 C3252 1.385 . S
C3249 H3224 0.951 . S
C3249 C3247 1.388 . S
C3249 C3250 1.366 . S
C3250 C3249 1.366 . S
C3250 C3251 1.414 . S
C3250 C3253 1.499 . S
C3251 H3225 0.950 . S
C3251 C3250 1.414 . S
C3251 C3252 1.374 . S
C3252 H3226 0.950 . S
C3252 C3248 1.385 . S
C3252 C3251 1.374 . S
C3253 C3250 1.499 . S
C3253 C3254 1.373 . S
C3253 C3255 1.389 . S
C3254 H3227 0.950 . S
C3254 C3240 1.377 . S
C3254 C3253 1.373 . S
C3255 C3239 1.377 . S
C3255 C3253 1.389 . S
C3255 C3256 1.524 . S
C3256 C3255 1.524 . S
C3256 C3257 1.397 . S
C3256 C3261 1.363 . S
C3257 H3228 0.950 . S
C3257 C3256 1.397 . S
C3257 C3258 1.334 . S
C3258 H3229 0.950 . S
C3258 C3257 1.334 . S
C3258 C3259 1.287 . S
C3259 C3258 1.287 . S
C3259 C3260 1.524 . S
C3259 H3262 0.999 . S
C3260 H3230 0.950 . S
C3260 C3259 1.524 . S
C3260 C3261 1.415 . S
C3261 H3231 0.950 . S
C3261 C3256 1.363 . S
C3261 C3260 1.415 . S
H3262 C3259 0.999 . S
H3263 C3244 0.913 . S
C483 C416 2.249 . S
C498 C3 2.314 1_565 S
C533 C445 2.249 . S
C548 C32 2.314 1_545 S
C583 C61 2.316 . S
C598 C242 2.249 . S
C633 C271 2.249 . S
C648 C90 2.316 . S
C683 C119 2.316 . S
C698 C300 2.249 . S
C733 C329 2.249 . S
C748 C148 2.316 . S
C783 C358 2.249 . S
C798 C177 2.318 . S
C833 C206 2.316 . S
C848 C387 2.251 . S
C883 C235 2.316 1_565 S
C898 C184 2.249 . S
C933 C264 2.316 1_545 S
C948 C213 2.249 . S
C983 C293 2.316 . S
C998 C10 2.252 . S
C1033 C322 2.316 . S
C1048 C39 2.251 . S
C1083 C351 2.316 . S
C1098 C68 2.247 . S
C1133 C97 2.249 . S
C1148 C380 2.314 . S
C1183 C126 2.249 . S
C1198 C409 2.316 . S
C1233 C155 2.249 . S
C1248 C438 2.316 . S
C1283 C385 0.675 . S
C1298 C8 0.673 . S
C1333 C356 0.674 . S
C1348 C37 0.674 . S
C1383 C66 0.673 . S
C1398 C95 0.674 . S
C1433 C124 0.674 . S
C1448 C269 0.674 . S
C1483 C240 0.675 . S
C1498 C153 0.673 . S
C1533 C182 0.673 . S
C1548 C211 0.675 . S
C1583 C327 0.673 . S
C1598 C298 0.674 . S
C1633 C414 0.674 . S
C1648 C443 0.673 . S
C1683 C274 2.480 . S
C1698 C5 2.726 . S
C1733 C34 2.730 . S
C1748 C245 2.477 . S
C1783 C63 2.730 . S
C1798 C216 2.481 1_655 S
C1833 C187 2.480 1_455 S
C1848 C92 2.729 . S
C1883 C121 2.730 . S
C1898 C390 2.484 . S
C1933 C361 2.480 . S
C1948 C150 2.733 . S
C1983 C100 2.481 1_655 S
C1998 C179 2.730 . S
C2033 C71 2.480 1_455 S
C2048 C208 2.730 . S
C2083 C42 2.480 . S
C2098 C237 2.733 . S
C2133 C13 2.481 . S
C2148 C266 2.733 . S
C2183 C448 2.480 . S
C2198 C295 2.729 . S
C2233 C419 2.480 . S
C2248 C324 2.730 . S
C2283 C353 2.730 . S
C2298 C158 2.477 . S
C2333 C129 2.480 . S
C2348 C382 2.726 . S
C2383 C411 2.730 . S
C2398 C332 2.481 . S
C2433 C303 2.480 . S
C2448 C440 2.730 . S
C2483 C224 0.733 . S
C2498 C15 0.731 . S
C2533 C44 0.728 . S
C2548 C195 0.736 . S
C2583 C73 0.729 . S
C2598 C398 0.731 . S
C2633 C102 0.730 . S
C2648 C369 0.733 . S
C2683 C131 0.727 . S
C2698 C108 0.733 . S
C2733 C79 0.733 . S
C2748 C160 0.728 . S
C2783 C189 0.728 . S
C2798 C282 0.733 . S
C2833 C253 0.736 . S
C2848 C218 0.730 . S
C2883 C247 0.730 . S
C2898 C456 0.736 . S
C2933 C276 0.727 . S
C2948 C427 0.733 . S
C2983 C305 0.730 . S
C2998 C166 0.736 . S
C3033 C137 0.733 . S
C3048 C334 0.727 . S
C3083 C340 0.736 . S
C3098 C363 0.733 . S
C3133 C311 0.735 . S
C3148 C392 0.733 . S
C3183 C421 0.728 . S
C3198 C50 0.730 . S
C3233 C450 0.730 . S
C3248 C21 0.732 . S
