# Generated by pormake.
# Topology wju, (5)-cn, num edge types: 1
# Building blocks:
#     Node 0, Type 0, BuildingBlock: XOMCOT_clean_sbu_1, # of connection points: 5
#     Node 1, Type 0, BuildingBlock: XOMCOT_clean_sbu_1, # of connection points: 5
#     Node 2, Type 0, BuildingBlock: XOMCOT_clean_sbu_1, # of connection points: 5
#     Node 3, Type 0, BuildingBlock: XOMCOT_clean_sbu_1, # of connection points: 5
#     Node 4, Type 0, BuildingBlock: XOMCOT_clean_sbu_1, # of connection points: 5
#     Node 5, Type 0, BuildingBlock: XOMCOT_clean_sbu_1, # of connection points: 5
#     Node 6, Type 0, BuildingBlock: XOMCOT_clean_sbu_1, # of connection points: 5
#     Node 7, Type 0, BuildingBlock: XOMCOT_clean_sbu_1, # of connection points: 5
#     Node 8, Type 0, BuildingBlock: XOMCOT_clean_sbu_1, # of connection points: 5
#     Node 9, Type 0, BuildingBlock: XOMCOT_clean_sbu_1, # of connection points: 5
#     Node 10, Type 0, BuildingBlock: XOMCOT_clean_sbu_1, # of connection points: 5
#     Node 11, Type 0, BuildingBlock: XOMCOT_clean_sbu_1, # of connection points: 5
#     Edge 12, Type (0, 0), BuildingBlock: XIVTED_clean_linker_0, # of connection points: 2
#     Edge 13, Type (0, 0), BuildingBlock: XIVTED_clean_linker_0, # of connection points: 2
#     Edge 14, Type (0, 0), BuildingBlock: XIVTED_clean_linker_0, # of connection points: 2
#     Edge 15, Type (0, 0), BuildingBlock: XIVTED_clean_linker_0, # of connection points: 2
#     Edge 16, Type (0, 0), BuildingBlock: XIVTED_clean_linker_0, # of connection points: 2
#     Edge 17, Type (0, 0), BuildingBlock: XIVTED_clean_linker_0, # of connection points: 2
#     Edge 18, Type (0, 0), BuildingBlock: XIVTED_clean_linker_0, # of connection points: 2
#     Edge 19, Type (0, 0), BuildingBlock: XIVTED_clean_linker_0, # of connection points: 2
#     Edge 20, Type (0, 0), BuildingBlock: XIVTED_clean_linker_0, # of connection points: 2
#     Edge 21, Type (0, 0), BuildingBlock: XIVTED_clean_linker_0, # of connection points: 2
#     Edge 22, Type (0, 0), BuildingBlock: XIVTED_clean_linker_0, # of connection points: 2
#     Edge 23, Type (0, 0), BuildingBlock: XIVTED_clean_linker_0, # of connection points: 2
#     Edge 24, Type (0, 0), BuildingBlock: XIVTED_clean_linker_0, # of connection points: 2
#     Edge 25, Type (0, 0), BuildingBlock: XIVTED_clean_linker_0, # of connection points: 2
#     Edge 26, Type (0, 0), BuildingBlock: XIVTED_clean_linker_0, # of connection points: 2
#     Edge 27, Type (0, 0), BuildingBlock: XIVTED_clean_linker_0, # of connection points: 2
#     Edge 28, Type (0, 0), BuildingBlock: XIVTED_clean_linker_0, # of connection points: 2
#     Edge 29, Type (0, 0), BuildingBlock: XIVTED_clean_linker_0, # of connection points: 2
#     Edge 30, Type (0, 0), BuildingBlock: XIVTED_clean_linker_0, # of connection points: 2
#     Edge 31, Type (0, 0), BuildingBlock: XIVTED_clean_linker_0, # of connection points: 2
#     Edge 32, Type (0, 0), BuildingBlock: XIVTED_clean_linker_0, # of connection points: 2
#     Edge 33, Type (0, 0), BuildingBlock: XIVTED_clean_linker_0, # of connection points: 2
#     Edge 34, Type (0, 0), BuildingBlock: XIVTED_clean_linker_0, # of connection points: 2
#     Edge 35, Type (0, 0), BuildingBlock: XIVTED_clean_linker_0, # of connection points: 2
#     Edge 36, Type (0, 0), BuildingBlock: XIVTED_clean_linker_0, # of connection points: 2
#     Edge 37, Type (0, 0), BuildingBlock: XIVTED_clean_linker_0, # of connection points: 2
#     Edge 38, Type (0, 0), BuildingBlock: XIVTED_clean_linker_0, # of connection points: 2
#     Edge 39, Type (0, 0), BuildingBlock: XIVTED_clean_linker_0, # of connection points: 2
#     Edge 40, Type (0, 0), BuildingBlock: XIVTED_clean_linker_0, # of connection points: 2
#     Edge 41, Type (0, 0), BuildingBlock: XIVTED_clean_linker_0, # of connection points: 2
# Relax obj value: 0.078
# Max RMSD: 0.117
# Mean RMSD: 0.117
data_MOF--net-wju--node1-XOMCOT_clean_sbu_1--edge1-XIVTED_clean_linker_0
_symmetry_space_group_name_H-M    P1
_symmetry_Int_Tables_number       1
_symmetry_cell_setting            triclinic
loop_
_symmetry_equiv_pos_as_xyz
'x, y, z'
_cell_length_a     27.889097
_cell_length_b     27.902317
_cell_length_c     103.19861
_cell_angle_alpha  89.973315
_cell_angle_beta   90.024
_cell_angle_gamma 119.87859
loop_
_atom_site_label
_atom_site_type_symbol
_atom_site_fract_x
_atom_site_fract_y
_atom_site_fract_z
_atom_type_partial_charge
C0 C 0.23647 0.11469 0.11973 0.0
C1 C 0.23362 0.11865 0.1329 0.0
N2 N 0.2775 0.11839 0.1382 0.0
N3 N 0.2818 0.11158 0.11661 0.0
C4 C 0.30603 0.11353 0.12816 0.0
H5 H 0.20955 0.11864 0.11283 0.0
Co6 Co 0.30686 0.12339 0.09947 0.0
C7 C 0.39324 0.09161 0.09698 0.0
O8 O 0.41879 0.13462 0.08929 0.0
N9 N 0.33026 0.13674 0.08176 0.0
C10 C 0.35835 0.17756 0.06251 0.0
C11 C 0.35826 0.18599 0.07562 0.0
C12 C 0.31449 0.099 0.07205 0.0
N13 N 0.33032 0.12284 0.06024 0.0
O14 O 0.23827 0.05902 0.09438 0.0
H15 H 0.37609 0.22603 0.08016 0.0
H16 H 0.289 0.05492 0.07355 0.0
O17 O 0.34665 0.08047 0.1021 0.0
C18 C 0.20871 0.07638 0.08879 0.0
O19 O 0.23131 0.1294 0.08623 0.0
N20 N 0.36718 0.18989 0.10486 0.0
C21 C 0.43315 0.29564 0.11466 0.0
C22 C 0.45023 0.25628 0.11565 0.0
C23 C 0.41554 0.20263 0.11103 0.0
C24 C 0.34975 0.22754 0.10425 0.0
C25 C 0.38207 0.28061 0.10901 0.0
H26 H 0.42696 0.1717 0.11293 0.0
H27 H 0.30993 0.21583 0.10002 0.0
H28 H 0.34598 0.11632 0.12912 0.0
H29 H 0.20326 0.12443 0.13815 0.0
H30 H 0.37661 0.20946 0.05518 0.0
H31 H 0.48923 0.2666 0.12019 0.0
H32 H 0.36767 0.31004 0.10802 0.0
C33 C 0.11316 0.2435 0.4503 0.0
C34 C 0.10334 0.23846 0.46338 0.0
N35 N 0.15003 0.27503 0.46948 0.0
N36 N 0.16589 0.28296 0.44805 0.0
C37 C 0.18778 0.3012 0.45999 0.0
H38 H 0.08269 0.222 0.44283 0.0
Co39 Co 0.18751 0.30887 0.4312 0.0
C40 C 0.30332 0.40008 0.43236 0.0
O41 O 0.28597 0.42758 0.4253 0.0
N42 N 0.20723 0.33385 0.41358 0.0
C43 C 0.21505 0.373 0.39426 0.0
C44 C 0.1988 0.37075 0.40689 0.0
C45 C 0.22941 0.31483 0.40463 0.0
N46 N 0.23378 0.33729 0.39274 0.0
O47 O 0.1875 0.24107 0.4273 0.0
H48 H 0.18238 0.39549 0.41076 0.0
H49 H 0.24043 0.28357 0.40669 0.0
O50 O 0.26844 0.35042 0.43599 0.0
C51 C 0.14251 0.20976 0.42118 0.0
O52 O 0.1126 0.23111 0.41706 0.0
N53 N 0.17612 0.36746 0.4354 0.0
C54 C 0.12221 0.4207 0.44533 0.0
C55 C 0.17591 0.43598 0.44946 0.0
C56 C 0.20187 0.40781 0.44457 0.0
C57 C 0.12424 0.35289 0.43129 0.0
C58 C 0.097 0.3795 0.43592 0.0
H59 H 0.24043 0.41581 0.44886 0.0
H60 H 0.10284 0.31841 0.42472 0.0
H61 H 0.22898 0.33554 0.46165 0.0
H62 H 0.0642 0.21131 0.46803 0.0
H63 H 0.21297 0.39911 0.38679 0.0
H64 H 0.19614 0.46693 0.45693 0.0
H65 H 0.05574 0.36671 0.4324 0.0
C66 C 0.87253 0.10994 0.7818 0.0
C67 C 0.86988 0.09964 0.79483 0.0
N68 N 0.88089 0.14609 0.80121 0.0
N69 N 0.88551 0.16278 0.77983 0.0
C70 C 0.89091 0.18419 0.79188 0.0
H71 H 0.86302 0.07993 0.77418 0.0
Co72 Co 0.88178 0.186 0.7631 0.0
C73 C 0.90525 0.30131 0.76497 0.0
O74 O 0.86018 0.28432 0.75803 0.0
N75 N 0.87746 0.20766 0.74558 0.0
C76 C 0.84774 0.218 0.72626 0.0
C77 C 0.83283 0.20066 0.7388 0.0
C78 C 0.91917 0.23026 0.73678 0.0
N79 N 0.90208 0.23611 0.72489 0.0
O80 O 0.9498 0.18645 0.75923 0.0
H81 H 0.79155 0.18445 0.74257 0.0
H82 H 0.96113 0.24049 0.73893 0.0
O83 O 0.92049 0.26635 0.76829 0.0
C84 C 0.93652 0.14203 0.75289 0.0
O85 O 0.88566 0.11283 0.74855 0.0
N86 N 0.8115 0.17397 0.76723 0.0
C87 C 0.70382 0.11869 0.77679 0.0
C88 C 0.74209 0.17139 0.78147 0.0
C89 C 0.79645 0.198 0.77675 0.0
C90 C 0.77439 0.12306 0.76259 0.0
C91 C 0.72029 0.09526 0.76702 0.0
H92 H 0.82683 0.23557 0.78142 0.0
H93 H 0.78778 0.10278 0.75575 0.0
H94 H 0.89852 0.22554 0.79379 0.0
H95 H 0.85921 0.06041 0.79927 0.0
H96 H 0.82023 0.21705 0.71874 0.0
H97 H 0.73108 0.19022 0.78923 0.0
H98 H 0.69202 0.05482 0.76308 0.0
C99 C 0.77458 0.87652 0.11754 0.0
C100 C 0.77742 0.87004 0.13062 0.0
N101 N 0.73621 0.87396 0.13635 0.0
N102 N 0.73192 0.88478 0.11489 0.0
C103 C 0.70926 0.88338 0.12662 0.0
H104 H 0.79997 0.87189 0.1103 0.0
Co105 Co 0.70888 0.88064 0.09771 0.0
C106 C 0.61203 0.89718 0.098 0.0
O107 O 0.58791 0.85366 0.09045 0.0
N108 N 0.68679 0.87522 0.07975 0.0
C109 C 0.65435 0.84093 0.06008 0.0
C110 C 0.65264 0.82885 0.073 0.0
C111 C 0.70758 0.91529 0.0705 0.0
N112 N 0.68946 0.89519 0.05846 0.0
O113 O 0.77347 0.95163 0.09458 0.0
H114 H 0.62787 0.78799 0.077 0.0
H115 H 0.73779 0.95802 0.0724 0.0
O116 O 0.66138 0.91365 0.10213 0.0
C117 C 0.80809 0.94155 0.08878 0.0
O118 O 0.79126 0.89105 0.08471 0.0
N119 N 0.6541 0.80852 0.10111 0.0
C120 C 0.60178 0.69678 0.10741 0.0
C121 C 0.58056 0.73014 0.1119 0.0
C122 C 0.60827 0.7867 0.10885 0.0
C123 C 0.67611 0.77699 0.09725 0.0
C124 C 0.65065 0.72136 0.10016 0.0
H125 H 0.59422 0.81278 0.11316 0.0
H126 H 0.71473 0.79576 0.092 0.0
H127 H 0.67159 0.88501 0.12792 0.0
H128 H 0.80638 0.86106 0.13553 0.0
H129 H 0.63201 0.81169 0.05243 0.0
H130 H 0.54375 0.71305 0.11786 0.0
H131 H 0.67033 0.69826 0.09705 0.0
C132 C 0.9057 0.77383 0.45042 0.0
C133 C 0.91602 0.77866 0.46347 0.0
N134 N 0.87035 0.74037 0.46961 0.0
N135 N 0.85362 0.73279 0.4482 0.0
C136 C 0.83263 0.71338 0.46015 0.0
H137 H 0.93562 0.79655 0.44293 0.0
Co138 Co 0.83239 0.70668 0.4313 0.0
C139 C 0.71634 0.61585 0.43224 0.0
O140 O 0.73362 0.58846 0.42513 0.0
N141 N 0.81316 0.68157 0.41365 0.0
C142 C 0.80671 0.64259 0.39437 0.0
C143 C 0.8225 0.64508 0.40705 0.0
C144 C 0.79093 0.70013 0.40458 0.0
N145 N 0.78738 0.67777 0.39271 0.0
O146 O 0.83271 0.77459 0.42724 0.0
H147 H 0.83936 0.62087 0.41102 0.0
H148 H 0.77936 0.73107 0.40654 0.0
O149 O 0.75134 0.66532 0.43597 0.0
C150 C 0.87757 0.80557 0.42103 0.0
O151 O 0.90699 0.78376 0.41688 0.0
N152 N 0.84351 0.64803 0.43563 0.0
C153 C 0.89663 0.59405 0.44562 0.0
C154 C 0.84249 0.57825 0.44947 0.0
C155 C 0.81691 0.60679 0.44456 0.0
C156 C 0.89587 0.66316 0.4318 0.0
C157 C 0.92276 0.63625 0.43646 0.0
H158 H 0.77785 0.5982 0.44866 0.0
H159 H 0.91779 0.6982 0.4254 0.0
H160 H 0.79231 0.67769 0.46184 0.0
H161 H 0.95496 0.8068 0.46808 0.0
H162 H 0.80953 0.6167 0.38696 0.0
H163 H 0.82151 0.54649 0.45674 0.0
H164 H 0.96438 0.64945 0.43316 0.0
C165 C 0.12632 0.90064 0.7836 0.0
C166 C 0.12819 0.90956 0.79668 0.0
N167 N 0.12266 0.86447 0.80282 0.0
N168 N 0.11913 0.84994 0.78132 0.0
C169 C 0.11657 0.82845 0.79327 0.0
H170 H 0.13283 0.9306 0.77617 0.0
Co171 Co 0.1266 0.83008 0.76446 0.0
C172 C 0.10282 0.71438 0.76519 0.0
O173 O 0.14795 0.7323 0.75824 0.0
N174 N 0.13484 0.81203 0.74689 0.0
C175 C 0.16915 0.80765 0.72768 0.0
C176 C 0.18153 0.82358 0.74038 0.0
C177 C 0.09455 0.78835 0.73776 0.0
N178 N 0.11439 0.78599 0.72593 0.0
O179 O 0.05899 0.82967 0.75995 0.0
H180 H 0.22257 0.84226 0.74443 0.0
H181 H 0.05157 0.77491 0.73966 0.0
O182 O 0.08762 0.74891 0.76891 0.0
C183 C 0.07287 0.87439 0.75367 0.0
O184 O 0.12437 0.90426 0.74979 0.0
N185 N 0.19625 0.84196 0.76921 0.0
C186 C 0.30364 0.89438 0.77895 0.0
C187 C 0.26559 0.83998 0.78266 0.0
C188 C 0.21127 0.81479 0.77791 0.0
C189 C 0.23291 0.89481 0.76565 0.0
C190 C 0.28682 0.92139 0.7702 0.0
H191 H 0.18112 0.77528 0.78185 0.0
H192 H 0.21945 0.91711 0.75946 0.0
H193 H 0.11403 0.78896 0.79493 0.0
H194 H 0.1349 0.94718 0.80133 0.0
H195 H 0.19868 0.81209 0.72031 0.0
H196 H 0.27691 0.81834 0.78964 0.0
H197 H 0.31489 0.96325 0.76702 0.0
C198 C 0.87567 0.76828 0.58473 0.0
C199 C 0.86998 0.77332 0.57169 0.0
N200 N 0.88015 0.73701 0.56544 0.0
N201 N 0.88952 0.72905 0.58682 0.0
C202 C 0.89267 0.71099 0.57482 0.0
H203 H 0.86681 0.78954 0.59228 0.0
Co204 Co 0.88612 0.70307 0.60369 0.0
C205 C 0.91079 0.61187 0.60223 0.0
O206 O 0.86609 0.58411 0.60928 0.0
N207 N 0.88174 0.67805 0.62134 0.0
C208 C 0.85083 0.63788 0.64059 0.0
C209 C 0.83692 0.63992 0.62794 0.0
C210 C 0.92261 0.69803 0.63039 0.0
N211 N 0.90471 0.67498 0.64224 0.0
O212 O 0.95385 0.77075 0.60747 0.0
H213 H 0.79618 0.61408 0.62398 0.0
H214 H 0.96446 0.73036 0.62844 0.0
O215 O 0.92542 0.66165 0.59871 0.0
C216 C 0.94029 0.80213 0.61362 0.0
O217 O 0.88922 0.78088 0.61781 0.0
N218 N 0.81618 0.64446 0.5996 0.0
C219 C 0.70874 0.59079 0.58991 0.0
C220 C 0.74747 0.57636 0.5855 0.0
C221 C 0.80166 0.60466 0.59029 0.0
C222 C 0.77863 0.65827 0.60399 0.0
C223 C 0.72463 0.63135 0.5995 0.0
H224 H 0.83229 0.59724 0.58581 0.0
H225 H 0.79159 0.69234 0.61068 0.0
H226 H 0.89977 0.67681 0.57303 0.0
H227 H 0.85727 0.80022 0.56716 0.0
H228 H 0.82293 0.61089 0.64798 0.0
H229 H 0.73691 0.54597 0.5779 0.0
H230 H 0.69595 0.64345 0.60326 0.0
C231 C 0.1096 0.83699 0.91962 0.0
C232 C 0.0937 0.82583 0.90686 0.0
N233 N 0.13802 0.85696 0.89933 0.0
N234 N 0.16391 0.87471 0.92022 0.0
C235 C 0.17996 0.8868 0.90769 0.0
H236 H 0.08354 0.81785 0.92797 0.0
Co237 Co 0.20415 0.89985 0.93578 0.0
C238 C 0.31049 0.91176 0.92413 0.0
O239 O 0.29749 0.86256 0.92838 0.0
N240 N 0.24518 0.92699 0.95164 0.0
C241 C 0.30452 0.94039 0.96763 0.0
C242 C 0.2893 0.92214 0.95519 0.0
C243 C 0.23503 0.94936 0.96229 0.0
N244 N 0.27028 0.95726 0.97216 0.0
O245 O 0.19987 0.96649 0.93383 0.0
H246 H 0.30788 0.90344 0.94954 0.0
H247 H 0.20099 0.95729 0.96311 0.0
O248 O 0.27778 0.93126 0.92623 0.0
C249 C 0.15318 0.95155 0.93932 0.0
O250 O 0.12866 0.90381 0.94542 0.0
N251 N 0.19636 0.82876 0.93845 0.0
C252 C 0.15334 0.7158 0.94292 0.0
C253 C 0.17038 0.73798 0.93049 0.0
C254 C 0.19074 0.79412 0.92843 0.0
C255 C 0.17977 0.80732 0.95061 0.0
C256 C 0.15964 0.75149 0.95311 0.0
H257 H 0.20102 0.80945 0.91862 0.0
H258 H 0.17823 0.83234 0.95838 0.0
H259 H 0.22195 0.9155 0.90476 0.0
H260 H 0.05254 0.79699 0.90341 0.0
H261 H 0.33762 0.94009 0.97305 0.0
H262 H 0.16474 0.71176 0.92223 0.0
H263 H 0.14633 0.73599 0.96284 0.0
C264 C 0.24356 0.10714 0.2523 0.0
C265 C 0.2397 0.09711 0.23923 0.0
N266 N 0.27809 0.14312 0.23322 0.0
N267 N 0.28413 0.15931 0.25462 0.0
C268 C 0.30412 0.1807 0.24274 0.0
H269 H 0.22069 0.07696 0.25972 0.0
Co270 Co 0.30988 0.18046 0.27151 0.0
C271 C 0.40012 0.29664 0.27064 0.0
O272 O 0.42751 0.27969 0.27787 0.0
N273 N 0.33469 0.19966 0.28914 0.0
C274 C 0.37318 0.20631 0.30849 0.0
C275 C 0.37064 0.1899 0.29587 0.0
C276 C 0.31648 0.22271 0.29806 0.0
N277 N 0.33858 0.22644 0.30997 0.0
O278 O 0.24167 0.17963 0.27549 0.0
H279 H 0.39443 0.17235 0.29203 0.0
H280 H 0.286 0.23478 0.29595 0.0
O281 O 0.35083 0.26142 0.26685 0.0
C282 C 0.21069 0.13478 0.2817 0.0
O283 O 0.23266 0.10562 0.28594 0.0
N284 N 0.36898 0.16995 0.26724 0.0
C285 C 0.42351 0.1176 0.25714 0.0
C286 C 0.43904 0.17176 0.25337 0.0
C287 C 0.41032 0.19698 0.25835 0.0
C288 C 0.35412 0.11761 0.271 0.0
C289 C 0.38137 0.09114 0.2663 0.0
H290 H 0.41877 0.23607 0.25431 0.0
H291 H 0.31902 0.09536 0.27736 0.0
H292 H 0.3397 0.22119 0.24117 0.0
H293 H 0.2123 0.05816 0.23454 0.0
H294 H 0.39872 0.20337 0.31598 0.0
H295 H 0.47074 0.19304 0.24611 0.0
H296 H 0.3684 0.04955 0.26958 0.0
C297 C 0.14012 0.23847 0.58436 0.0
C298 C 0.14503 0.23361 0.57128 0.0
N299 N 0.13676 0.27159 0.56522 0.0
N300 N 0.12861 0.27923 0.58665 0.0
C301 C 0.12613 0.29841 0.57474 0.0
H302 H 0.14783 0.2159 0.59181 0.0
Co303 Co 0.1333 0.30527 0.60351 0.0
C304 C 0.10762 0.39579 0.60261 0.0
O305 O 0.1519 0.42293 0.60984 0.0
N306 N 0.13884 0.33028 0.6211 0.0
C307 C 0.16999 0.36815 0.64052 0.0
C308 C 0.18441 0.36516 0.62797 0.0
C309 C 0.09713 0.31317 0.62986 0.0
N310 N 0.11503 0.33493 0.6418 0.0
O311 O 0.06604 0.23739 0.60755 0.0
H312 H 0.22603 0.38784 0.62428 0.0
H313 H 0.05453 0.28371 0.6276 0.0
O314 O 0.09345 0.34646 0.5988 0.0
C315 C 0.07992 0.20652 0.61383 0.0
O316 O 0.13103 0.22838 0.61804 0.0
N317 N 0.20279 0.36412 0.59919 0.0
C318 C 0.30986 0.41944 0.58931 0.0
C319 C 0.27101 0.4346 0.58544 0.0
C320 C 0.21695 0.40541 0.59029 0.0
C321 C 0.24037 0.34935 0.60299 0.0
C322 C 0.29419 0.37699 0.59839 0.0
H323 H 0.18622 0.41363 0.58618 0.0
H324 H 0.22762 0.31417 0.60932 0.0
H325 H 0.12075 0.33376 0.57311 0.0
H326 H 0.15584 0.20556 0.5666 0.0
H327 H 0.19824 0.39305 0.6481 0.0
H328 H 0.28141 0.46646 0.57821 0.0
H329 H 0.32295 0.36421 0.60172 0.0
C330 C 0.91676 0.17773 0.9178 0.0
C331 C 0.93122 0.18781 0.90495 0.0
N332 N 0.88515 0.15976 0.89773 0.0
N333 N 0.86169 0.14368 0.91877 0.0
C334 C 0.84358 0.13268 0.90636 0.0
H335 H 0.94442 0.19537 0.92596 0.0
Co336 Co 0.82389 0.12268 0.93468 0.0
C337 C 0.71901 0.11848 0.9243 0.0
O338 O 0.73627 0.16874 0.9285 0.0
N339 N 0.78557 0.10007 0.95094 0.0
C340 C 0.73259 0.09454 0.96772 0.0
C341 C 0.74647 0.11159 0.95516 0.0
C342 C 0.79409 0.07507 0.96131 0.0
N343 N 0.76268 0.07182 0.97164 0.0
O344 O 0.8208 0.05246 0.9328 0.0
H345 H 0.73087 0.13406 0.94989 0.0
H346 H 0.82443 0.06176 0.96156 0.0
O347 O 0.74939 0.09598 0.92588 0.0
C348 C 0.86783 0.06357 0.93752 0.0
O349 O 0.89804 0.11148 0.94326 0.0
N350 N 0.8387 0.19625 0.93712 0.0
C351 C 0.89566 0.31051 0.94059 0.0
C352 C 0.87211 0.2877 0.92859 0.0
C353 C 0.84453 0.2306 0.927 0.0
C354 C 0.86113 0.21847 0.94891 0.0
C355 C 0.88849 0.2753 0.95094 0.0
H356 H 0.82959 0.21417 0.91744 0.0
H357 H 0.86218 0.19282 0.95661 0.0
H358 H 0.80055 0.10713 0.90372 0.0
H359 H 0.97255 0.214 0.90123 0.0
H360 H 0.70327 0.09953 0.97362 0.0
H361 H 0.87736 0.31387 0.92034 0.0
H362 H 0.90788 0.29165 0.96023 0.0
C363 C 0.77198 0.89812 0.25101 0.0
C364 C 0.77581 0.90792 0.23794 0.0
N365 N 0.73797 0.86158 0.23194 0.0
N366 N 0.73199 0.84574 0.25339 0.0
C367 C 0.71224 0.82402 0.2415 0.0
H368 H 0.79452 0.92856 0.25841 0.0
Co369 Co 0.70684 0.82496 0.27038 0.0
C370 C 0.6158 0.70911 0.26961 0.0
O371 O 0.58854 0.72659 0.27671 0.0
N372 N 0.68264 0.80617 0.28812 0.0
C373 C 0.64392 0.79944 0.30746 0.0
C374 C 0.6457 0.81474 0.29476 0.0
C375 C 0.70219 0.78489 0.2972 0.0
N376 N 0.67998 0.7812 0.3091 0.0
O377 O 0.77486 0.82523 0.27424 0.0
H378 H 0.62055 0.83055 0.2908 0.0
H379 H 0.73361 0.77399 0.29521 0.0
O380 O 0.66523 0.74392 0.26583 0.0
C381 C 0.80626 0.87047 0.28026 0.0
O382 O 0.78506 0.90071 0.2842 0.0
N383 N 0.64795 0.83599 0.26623 0.0
C384 C 0.59347 0.88888 0.2564 0.0
C385 C 0.57809 0.83501 0.25242 0.0
C386 C 0.60681 0.80953 0.25727 0.0
C387 C 0.66272 0.88807 0.27018 0.0
C388 C 0.63547 0.91478 0.26562 0.0
H389 H 0.59847 0.77069 0.25309 0.0
H390 H 0.69768 0.90992 0.2766 0.0
H391 H 0.67706 0.78325 0.23995 0.0
H392 H 0.80287 0.94693 0.23322 0.0
H393 H 0.61779 0.80175 0.31488 0.0
H394 H 0.54649 0.81418 0.24511 0.0
H395 H 0.64832 0.95613 0.26906 0.0
H396 H 0.31245 0.16349 0.03798 0.0
H397 H 0.2918 0.91892 0.99416 0.0
H398 H 0.31425 0.02137 0.05381 0.0
H399 H 0.24919 0.03811 0.97993 0.0
H400 H 0.30105 0.95636 1.01598 0.0
H401 H 0.291 0.11966 1.01665 0.0
C402 C 0.30855 0.1231 0.03697 0.0
C403 C 0.31579 0.0963 0.0477 0.0
C404 C 0.28927 0.97419 1.00814 0.0
C405 C 0.2908 0.04563 0.02323 0.0
C406 C 0.28423 0.95298 0.99566 0.0
C407 C 0.27025 0.97586 0.9852 0.0
C408 C 0.28102 0.01925 1.01022 0.0
C409 C 0.25996 0.01931 0.98773 0.0
C410 C 0.2958 0.09789 0.02479 0.0
C411 C 0.30897 0.04345 0.04582 0.0
N412 N 0.26622 0.04009 0.99997 0.0
N413 N 0.29739 0.02009 0.03381 0.0
H414 H 0.21056 0.35535 0.36812 0.0
H415 H 0.35506 0.20197 0.33459 0.0
H416 H 0.29517 0.28643 0.38953 0.0
H417 H 0.29087 0.29074 0.31312 0.0
H418 H 0.33183 0.23091 0.35469 0.0
H419 H 0.23796 0.33058 0.348 0.0
C420 C 0.23534 0.33551 0.36867 0.0
C421 C 0.25064 0.32332 0.3807 0.0
C422 C 0.32299 0.24426 0.34559 0.0
C423 C 0.28148 0.29376 0.35742 0.0
C424 C 0.33659 0.22798 0.33402 0.0
C425 C 0.32531 0.24403 0.32199 0.0
C426 C 0.29749 0.27669 0.34525 0.0
C427 C 0.30001 0.2768 0.32208 0.0
C428 C 0.25072 0.32103 0.35709 0.0
C429 C 0.28181 0.29631 0.38059 0.0
N430 N 0.28693 0.29193 0.3335 0.0
N431 N 0.29607 0.2824 0.36916 0.0
H432 H 0.01437 0.29626 0.72215 0.0
H433 H 1.00333 0.29064 0.64445 0.0
H434 H 0.86261 0.21544 0.70011 0.0
H435 H 0.15385 0.35015 0.6666 0.0
H436 H 0.95119 0.26808 0.66472 0.0
H437 H 0.06637 0.32183 0.70186 0.0
C438 C 0.99181 0.28374 0.71311 0.0
C439 C 0.93371 0.25346 0.71297 0.0
C440 C 0.9957 0.28623 0.66512 0.0
C441 C 0.99334 0.28327 0.68959 0.0
C442 C 0.02556 0.29894 0.65351 0.0
C443 C 0.08337 0.32251 0.65369 0.0
C444 C 0.02369 0.29719 0.67704 0.0
C445 C 0.10964 0.33289 0.66585 0.0
C446 C 0.02163 0.29859 0.70149 0.0
C447 C 0.90713 0.23933 0.70083 0.0
N448 N 0.07968 0.32017 0.67698 0.0
N449 N 0.93707 0.25425 0.68968 0.0
H450 H 0.75185 0.11459 0.99421 0.0
H451 H 0.70093 0.8531 0.03578 0.0
H452 H 0.77243 0.98293 0.97849 0.0
H453 H 0.72015 1.00221 0.05311 0.0
H454 H 0.72694 0.89964 1.01479 0.0
H455 H 0.74094 0.07468 1.01582 0.0
C456 C 0.75428 0.07729 0.99534 0.0
C457 C 0.76242 0.05162 0.98453 0.0
C458 C 0.72582 0.92238 0.02318 0.0
C459 C 0.74969 1.00543 1.00929 0.0
C460 C 0.71049 0.89568 0.03516 0.0
C461 C 0.70761 0.92361 0.0462 0.0
C462 C 0.73783 0.9774 0.02213 0.0
C463 C 0.72179 0.97917 0.04486 0.0
C464 C 0.74831 0.05466 1.0077 0.0
C465 C 0.76624 1.00395 0.98658 0.0
N466 N 0.73568 1.00407 0.03301 0.0
N467 N 0.75912 0.98195 0.9987 0.0
H468 H 0.66199 0.80576 0.33358 0.0
H469 H 0.81239 0.66023 0.36823 0.0
H470 H 0.73129 0.72037 0.31269 0.0
H471 H 0.72467 0.72704 0.38911 0.0
H472 H 0.7848 0.68356 0.34792 0.0
H473 H 0.68626 0.77905 0.35388 0.0
C474 C 0.68183 0.78096 0.33318 0.0
C475 C 0.69416 0.76514 0.32124 0.0
C476 C 0.77141 0.69298 0.35694 0.0
C477 C 0.72318 0.73508 0.34474 0.0
C478 C 0.7869 0.67932 0.36862 0.0
C479 C 0.77071 0.69125 0.38056 0.0
C480 C 0.73962 0.71918 0.35705 0.0
C481 C 0.73867 0.71734 0.38024 0.0
C482 C 0.69603 0.76598 0.34486 0.0
C483 C 0.72123 0.73404 0.32156 0.0
N484 N 0.72427 0.73042 0.36871 0.0
N485 N 0.73482 0.72012 0.33309 0.0
H486 H 0.15713 0.81259 0.70148 0.0
H487 H 0.86219 0.65446 0.66674 0.0
H488 H 1.00316 0.71956 0.72222 0.0
H489 H 0.01685 0.72938 0.64582 0.0
H490 H 0.91311 0.67935 0.68702 0.0
H491 H 0.10667 0.78396 0.68112 0.0
C492 C 0.1128 0.78573 0.70183 0.0
C493 C 0.08466 0.76843 0.71375 0.0
C494 C 0.93598 0.69021 0.678 0.0
C495 C 0.02617 0.7361 0.6902 0.0
C496 C 0.90684 0.67566 0.66632 0.0
C497 C 0.93497 0.6894 0.65438 0.0
C498 C 0.99397 0.71914 0.67788 0.0
C499 C 0.99311 0.71819 0.65469 0.0
C500 C 0.08391 0.76964 0.69012 0.0
C501 C 0.02684 0.73452 0.71338 0.0
N502 N 0.02059 0.73211 0.66622 0.0
N503 N 0.99961 0.7196 0.70182 0.0
H504 H 0.50024 0.85042 0.09933 0.0
H505 H 0.50416 0.13706 0.09946 0.0
H506 H 0.64979 0.00693 0.10432 0.0
H507 H 0.35318 0.98064 0.10268 0.0
H508 H 0.55742 0.09028 0.10246 0.0
H509 H 0.44588 0.89646 0.10179 0.0
C510 C 0.52175 0.89456 0.10109 0.0
C511 C 0.5799 0.9249 0.10151 0.0
C512 C 0.51271 0.06602 0.10267 0.0
C513 C 0.5173 0.97828 0.10419 0.0
C514 C 0.48208 0.0927 0.10093 0.0
C515 C 0.42392 0.06267 0.1007 0.0
C516 C 0.48533 0.00838 0.10401 0.0
C517 C 0.39784 1.00543 0.10279 0.0
C518 C 0.49049 0.9208 0.10252 0.0
C519 C 0.60518 0.98185 0.10394 0.0
N520 N 0.42872 0.98003 0.10416 0.0
N521 N 0.57379 0.00679 0.10499 0.0
H522 H 0.37227 0.35738 0.43796 0.0
H523 H 0.64748 0.65848 0.43801 0.0
H524 H 0.37101 0.51087 0.43488 0.0
H525 H 0.64863 0.50503 0.43466 0.0
H526 H 0.54621 0.60516 0.44071 0.0
H527 H 0.47357 0.41066 0.44061 0.0
C528 C 0.39304 0.40211 0.43808 0.0
C529 C 0.36301 0.42953 0.43607 0.0
C530 C 0.56882 0.58322 0.43953 0.0
C531 C 0.47891 0.49095 0.43902 0.0
C532 C 0.62669 0.61375 0.43808 0.0
C533 C 0.65668 0.58635 0.43597 0.0
C534 C 0.54082 0.5249 0.439 0.0
C535 C 0.62728 0.52809 0.43608 0.0
C536 C 0.45093 0.43262 0.4395 0.0
C537 C 0.3924 0.48779 0.43623 0.0
N538 N 0.57133 0.49951 0.43747 0.0
N539 N 0.44837 0.51635 0.43759 0.0
H540 H 0.99178 0.64574 0.7712 0.0
H541 H 0.01709 0.36974 0.77012 0.0
H542 H 0.14571 0.64597 0.76695 0.0
H543 H 0.86245 0.36927 0.76801 0.0
H544 H 0.06535 0.47099 0.77277 0.0
H545 H 0.94392 0.54447 0.77381 0.0
C546 C 0.01561 0.62474 0.77104 0.0
C547 C 0.07276 0.65451 0.76872 0.0
C548 C 0.02074 0.44854 0.77188 0.0
C549 C 0.01845 0.53863 0.77165 0.0
C550 C 0.99323 0.39068 0.77046 0.0
C551 C 0.9357 0.36088 0.76873 0.0
C552 C 0.99046 0.47674 0.77166 0.0
C553 C 0.90695 0.39047 0.76916 0.0
C554 C 0.98831 0.56687 0.77244 0.0
C555 C 0.10146 0.62483 0.76854 0.0
N556 N 0.93448 0.44643 0.7705 0.0
N557 N 0.07414 0.56889 0.76989 0.0
H558 H 0.99677 0.35351 0.5964 0.0
H559 H 0.02243 0.65476 0.59689 0.0
H560 H 0.15078 0.50669 0.60036 0.0
H561 H 0.86777 0.50132 0.59918 0.0
H562 H 0.07056 0.60147 0.59421 0.0
H563 H 0.94899 0.40706 0.59349 0.0
C564 C 0.02063 0.39824 0.59643 0.0
C565 C 0.07775 0.42549 0.59877 0.0
C566 C 0.02597 0.57954 0.59514 0.0
C567 C 0.02359 0.48718 0.5955 0.0
C568 C 0.99854 0.61005 0.59658 0.0
C569 C 0.94107 0.5826 0.5984 0.0
C570 C 0.99564 0.52119 0.59541 0.0
C571 C 0.91224 0.52438 0.59799 0.0
C572 C 0.99339 0.42889 0.59485 0.0
C573 C 0.10654 0.48374 0.59877 0.0
N574 N 0.9397 0.49579 0.59664 0.0
N575 N 0.07928 0.51244 0.59726 0.0
H576 H 0.65537 0.16182 0.91662 0.0
H577 H 0.37333 0.87419 0.91296 0.0
H578 H 0.64785 1.00486 0.92214 0.0
H579 H 0.38019 0.02575 0.92478 0.0
H580 H 0.47349 0.92391 0.91027 0.0
H581 H 0.55553 0.11397 0.91368 0.0
C582 C 0.63291 0.11707 0.91703 0.0
C583 C 0.6604 0.08742 0.91984 0.0
C584 C 0.45309 0.9465 0.91326 0.0
C585 C 0.54513 0.03232 0.91633 0.0
C586 C 0.39577 0.91833 0.91473 0.0
C587 C 0.36809 0.9457 0.91925 0.0
C588 C 0.48349 1.0029 0.91615 0.0
C589 C 0.39954 1.00296 0.92124 0.0
C590 C 0.57571 0.08993 0.91538 0.0
C591 C 0.6287 0.0295 0.92003 0.0
N592 N 0.45571 0.02961 0.91979 0.0
N593 N 0.57264 1.00384 0.9184 0.0
H594 H 0.35735 0.36505 0.26455 0.0
H595 H 0.65845 0.64014 0.26412 0.0
H596 H 0.51096 0.36426 0.26823 0.0
H597 H 0.50493 0.64146 0.26719 0.0
H598 H 0.60513 0.53882 0.26166 0.0
H599 H 0.4106 0.46614 0.26157 0.0
C600 C 0.4021 0.38587 0.2645 0.0
C601 C 0.42958 0.35607 0.26678 0.0
C602 C 0.58317 0.56147 0.26273 0.0
C603 C 0.49093 0.47168 0.26343 0.0
C604 C 0.6137 0.61936 0.26404 0.0
C605 C 0.58627 0.6494 0.266 0.0
C606 C 0.52483 0.53352 0.26326 0.0
C607 C 0.52799 0.62004 0.26588 0.0
C608 C 0.43258 0.44363 0.26288 0.0
C609 C 0.48785 0.38549 0.26668 0.0
N610 N 0.49941 0.56406 0.26463 0.0
N611 N 0.51639 0.44133 0.26513 0.0
H612 H 0.30635 0.23028 0.21717 0.0
H613 H 0.31164 0.06386 0.15409 0.0
H614 H 0.28177 0.06521 0.21842 0.0
H615 H 0.27869 0.199 0.15279 0.0
H616 H 0.32423 0.07606 0.17775 0.0
H617 H 0.3194 0.23143 0.19354 0.0
C618 C 0.30452 0.19471 0.21248 0.0
C619 C 0.29209 0.1473 0.21967 0.0
C620 C 0.31497 0.1035 0.17224 0.0
C621 C 0.30728 0.14824 0.19281 0.0
C622 C 0.30819 0.09671 0.15878 0.0
C623 C 0.29352 0.13004 0.1516 0.0
C624 C 0.3078 0.14444 0.17845 0.0
C625 C 0.28921 0.17199 0.15807 0.0
C626 C 0.3117 0.19519 0.19903 0.0
C627 C 0.29015 0.10213 0.21316 0.0
N628 N 0.29602 0.17786 0.17113 0.0
N629 N 0.2974 0.1036 0.20012 0.0
H630 H 0.23758 0.29922 0.4851 0.0
H631 H 0.07744 0.30147 0.54968 0.0
H632 H 0.07351 0.27765 0.48505 0.0
H633 H 0.21387 0.2701 0.54962 0.0
H634 H 0.08591 0.31289 0.52598 0.0
H635 H 0.24006 0.30872 0.50886 0.0
C636 C 0.2025 0.29726 0.49009 0.0
C637 C 0.15502 0.28682 0.48317 0.0
C638 C 0.11424 0.30392 0.53119 0.0
C639 C 0.1574 0.29783 0.51019 0.0
C640 C 0.10953 0.2977 0.54469 0.0
C641 C 0.1444 0.28399 0.55155 0.0
C642 C 0.15469 0.2972 0.52459 0.0
C643 C 0.18541 0.27952 0.54464 0.0
C644 C 0.20371 0.30236 0.50361 0.0
C645 C 0.11048 0.28456 0.49007 0.0
N646 N 0.18932 0.28591 0.53156 0.0
N647 N 0.11266 0.2898 0.50318 0.0
H648 H 0.81067 0.06634 0.81764 0.0
H649 H 0.95286 0.24267 0.88143 0.0
H650 H 0.94156 0.23628 0.81643 0.0
H651 H 0.80925 0.0795 0.88201 0.0
H652 H 0.94899 0.2421 0.85778 0.0
H653 H 0.80877 0.07153 0.84119 0.0
C654 C 0.83917 0.10484 0.82235 0.0
C655 C 0.87693 0.15077 0.81505 0.0
C656 C 0.91817 0.2065 0.86307 0.0
C657 C 0.87479 0.15713 0.84216 0.0
C658 C 0.92056 0.20658 0.8766 0.0
C659 C 0.8816 0.16075 0.88377 0.0
C660 C 0.87671 0.16012 0.85658 0.0
C661 C 0.83999 0.11576 0.87692 0.0
C662 C 0.83782 0.10787 0.83582 0.0
C663 C 0.91187 0.19996 0.82168 0.0
N664 N 0.83891 0.11643 0.86374 0.0
N665 N 0.91036 0.2017 0.83488 0.0
H666 H 0.7347 0.79353 0.15116 0.0
H667 H 0.733 0.93853 0.21702 0.0
H668 H 0.70658 0.93182 0.15245 0.0
H669 H 0.71239 0.77503 0.21583 0.0
H670 H 0.72083 0.9358 0.19351 0.0
H671 H 0.72378 0.78424 0.17471 0.0
C672 C 0.72566 0.82163 0.15644 0.0
C673 C 0.72201 0.86385 0.1499 0.0
C674 C 0.71832 0.90019 0.19836 0.0
C675 C 0.71009 0.85393 0.17691 0.0
C676 C 0.72557 0.90186 0.21178 0.0
C677 C 0.72437 0.85716 0.21834 0.0
C678 C 0.71069 0.85381 0.19136 0.0
C679 C 0.71366 0.8103 0.21112 0.0
C680 C 0.71924 0.8162 0.16987 0.0
C681 C 0.70961 0.89875 0.15715 0.0
N682 N 0.70809 0.81015 0.19799 0.0
N683 N 0.70497 0.89361 0.1703 0.0
H684 H 0.94964 0.74031 0.48464 0.0
H685 H 0.79876 0.73265 0.55041 0.0
H686 H 0.7831 0.71195 0.48571 0.0
H687 H 0.94338 0.71469 0.54924 0.0
H688 H 0.79113 0.72319 0.52684 0.0
H689 H 0.9475 0.72916 0.50817 0.0
C690 C 0.91246 0.73146 0.48986 0.0
C691 C 0.86667 0.72774 0.48326 0.0
C692 C 0.82425 0.72072 0.53171 0.0
C693 C 0.86397 0.71514 0.51026 0.0
C694 C 0.8288 0.72642 0.54516 0.0
C695 C 0.87222 0.72514 0.55175 0.0
C696 C 0.86394 0.71453 0.5247 0.0
C697 C 0.90941 0.71597 0.54451 0.0
C698 C 0.91115 0.72479 0.50329 0.0
C699 C 0.81921 0.7152 0.49045 0.0
N700 N 0.90492 0.71184 0.53134 0.0
N701 N 0.81935 0.71015 0.5036 0.0
H702 H 0.20779 0.94074 0.88346 0.0
H703 H 0.07152 0.77197 0.81782 0.0
H704 H 0.07264 0.77256 0.88307 0.0
H705 H 0.18803 0.94677 0.81931 0.0
H706 H 0.0781 0.76781 0.84155 0.0
H707 H 0.20789 0.94035 0.85975 0.0
C708 C 0.17839 0.9036 0.87841 0.0
C709 C 0.13988 0.85681 0.88532 0.0
C710 C 0.1023 0.80702 0.83665 0.0
C711 C 0.13951 0.85603 0.85809 0.0
C712 C 0.09873 0.80928 0.82312 0.0
C713 C 0.12861 0.85988 0.8166 0.0
C714 C 0.13651 0.85564 0.84366 0.0
C715 C 0.16328 0.90709 0.82395 0.0
C716 C 0.17823 0.90345 0.86485 0.0
C717 C 0.10243 0.80995 0.87819 0.0
N718 N 0.16616 0.90383 0.83703 0.0
N719 N 0.10314 0.81077 0.86499 0.0
H720 H 0.55226 0.64286 0.13024 0.0
H721 H 0.53721 0.36487 0.10618 0.0
H722 H 0.59221 0.61448 0.09157 0.0
H723 H 0.40938 0.3583 0.13087 0.0
H724 H 0.58385 0.46596 0.10673 0.0
H725 H 0.51908 0.54498 0.13534 0.0
C726 C 0.55377 0.61621 0.12282 0.0
C727 C 0.57572 0.63711 0.1105 0.0
C728 C 0.54632 0.44226 0.1123 0.0
C729 C 0.54064 0.52703 0.11648 0.0
C730 C 0.52018 0.38482 0.11211 0.0
C731 C 0.4693 0.35375 0.11836 0.0
C732 C 0.52142 0.46832 0.11885 0.0
C733 C 0.44843 0.38133 0.12583 0.0
C734 C 0.53559 0.56083 0.1258 0.0
C735 C 0.57712 0.60076 0.1013 0.0
N736 N 0.47423 0.4374 0.12573 0.0
N737 N 0.56042 0.54777 0.10452 0.0
H738 H 0.01537 0.36761 0.45375 0.0
H739 H 1.00259 0.64599 0.45464 0.0
H740 H 0.15767 0.53038 0.44954 0.0
H741 H 0.86073 0.48388 0.44913 0.0
H742 H 0.05885 0.6035 0.45942 0.0
H743 H 0.95867 0.40944 0.45869 0.0
C744 C 0.03478 0.41226 0.45403 0.0
C745 C 0.09091 0.44573 0.45088 0.0
C746 C 0.01524 0.57717 0.45737 0.0
C747 C 0.02641 0.49368 0.45658 0.0
C748 C 0.98316 0.60133 0.45461 0.0
C749 C 0.92733 0.5683 0.45114 0.0
C750 C 0.99133 0.51959 0.45664 0.0
C751 C 0.90376 0.51075 0.45162 0.0
C752 C 1.00245 0.43603 0.45689 0.0
C753 C 0.11442 0.50319 0.45177 0.0
N754 N 0.93617 0.48815 0.45409 0.0
N755 N 0.08178 0.52545 0.45433 0.0
H756 H 0.35951 0.99968 0.78834 0.0
H757 H 0.64939 0.01003 0.78383 0.0
H758 H 0.37773 0.85735 0.78109 0.0
H759 H 0.62987 0.15386 0.78209 0.0
H760 H 0.55126 0.9532 0.78894 0.0
H761 H 0.45888 0.05494 0.79227 0.0
C762 C 0.38444 0.97991 0.78776 0.0
C763 C 0.36076 0.92424 0.78406 0.0
C764 C 0.56854 0.99728 0.78761 0.0
C765 C 0.47426 0.98714 0.78856 0.0
C766 C 0.62444 0.02972 0.78465 0.0
C767 C 0.64732 0.08647 0.78219 0.0
C768 C 0.53522 0.02174 0.78812 0.0
C769 C 0.61369 0.11018 0.78378 0.0
C770 C 0.44106 0.01144 0.79002 0.0
C771 C 0.3945 0.90024 0.7838 0.0
N772 N 0.55898 0.07749 0.78645 0.0
N773 N 0.44985 0.93213 0.78579 0.0
H774 H 0.63688 0.4814 0.58475 0.0
H775 H 0.38169 0.53 0.58567 0.0
H776 H 0.65228 0.64293 0.58262 0.0
H777 H 0.36664 0.36958 0.58065 0.0
H778 H 0.4805 0.573 0.58086 0.0
H779 H 0.53852 0.43993 0.57958 0.0
C780 C 0.61975 0.50813 0.58294 0.0
C781 C 0.65223 0.56547 0.58448 0.0
C782 C 0.45542 0.52838 0.58059 0.0
C783 C 0.53997 0.51862 0.57876 0.0
C784 C 0.399 0.50392 0.58328 0.0
C785 C 0.36647 0.44626 0.58391 0.0
C786 C 0.47922 0.49478 0.57863 0.0
C787 C 0.39081 0.41428 0.58068 0.0
C788 C 0.5636 0.48452 0.58003 0.0
C789 C 0.62813 0.59832 0.58196 0.0
N790 N 0.44593 0.43892 0.57842 0.0
N791 N 0.57324 0.5744 0.57946 0.0
H792 H 0.17358 0.63818 0.93191 0.0
H793 H 0.89894 0.38007 0.9597 0.0
H794 H 0.06163 0.65526 0.95791 0.0
H795 H 0.98074 0.37558 0.92462 0.0
H796 H 0.96734 0.47858 0.96204 0.0
H797 H 0.11273 0.53799 0.93233 0.0
C798 C 0.13656 0.62087 0.9378 0.0
C799 C 0.12241 0.65519 0.94477 0.0
C800 C 0.9701 0.45591 0.95383 0.0
C801 C 0.05301 0.54099 0.94534 0.0
C802 C 0.93118 0.40001 0.95249 0.0
C803 C 0.93398 0.37028 0.94186 0.0
C804 C 0.01235 0.4816 0.94458 0.0
C805 C 0.97661 0.39753 0.9328 0.0
C806 C 0.10192 0.5638 0.93804 0.0
C807 C 0.07451 0.63047 0.95247 0.0
N808 N 0.01427 0.45172 0.93439 0.0
N809 N 0.04124 0.5748 0.95247 0.0
H810 H 0.4833 0.85159 0.25226 0.0
H811 H 0.53367 0.15508 0.25294 0.0
H812 H 0.64477 0.99592 0.24812 0.0
H813 H 0.37215 0.01108 0.24849 0.0
H814 H 0.57551 0.09852 0.24768 0.0
H815 H 0.4414 0.90848 0.24737 0.0
C816 C 0.50986 0.89499 0.25005 0.0
C817 C 0.56745 0.91948 0.25096 0.0
C818 C 0.53089 0.07945 0.24763 0.0
C819 C 0.52017 0.98491 0.24558 0.0
C820 C 0.50708 0.11184 0.25059 0.0
C821 C 0.4495 0.08731 0.25152 0.0
C822 C 0.49673 0.02222 0.2457 0.0
C823 C 0.41685 0.03115 0.24831 0.0
C824 C 0.48603 0.92756 0.2473 0.0
C825 C 0.60008 0.97585 0.24794 0.0
N826 N 0.4409 1.00024 0.24579 0.0
N827 N 0.57601 0.0069 0.24563 0.0
H828 H 0.13413 0.01346 0.10752 0.0
H829 H 0.87414 0.98229 0.06784 0.0
H830 H 0.14637 0.07111 0.06827 0.0
H831 H 0.87752 0.97851 0.10951 0.0
H832 H 0.97243 0.01042 0.06738 0.0
H833 H 0.03619 0.98863 0.10783 0.0
C834 C 0.11561 0.01882 0.09881 0.0
C835 C 0.148 0.04359 0.08778 0.0
C836 C 0.95213 1.00473 0.07666 0.0
C837 C 0.03708 0.01735 0.0882 0.0
C838 C 0.89634 0.9898 0.07691 0.0
C839 C 0.86815 0.97946 0.08873 0.0
C840 C 0.97959 0.00775 0.08831 0.0
C841 C 0.89817 0.98744 0.10022 0.0
C842 C 0.06015 1.00587 0.09908 0.0
C843 C 0.12249 0.05136 0.0769 0.0
N844 N 0.9521 1.00021 0.09973 0.0
N845 N 0.0687 0.03852 0.07738 0.0
H846 H 0.10443 0.14424 0.40006 0.0
H847 H 0.89724 0.87682 0.44126 0.0
H848 H 0.11385 0.1381 0.44161 0.0
H849 H 0.92545 0.872 0.40038 0.0
H850 H 0.96801 0.97559 0.4415 0.0
H851 H 0.03466 0.046 0.39988 0.0
C852 C 0.09317 0.12153 0.40911 0.0
C853 C 0.11605 0.1489 0.42082 0.0
C854 C 0.95797 0.95309 0.43244 0.0
C855 C 0.03348 0.03703 0.42081 0.0
C856 C 0.91673 0.89709 0.43225 0.0
C857 C 0.90472 0.86655 0.42072 0.0
C858 C 0.98698 0.97863 0.421 0.0
C859 C 0.9328 0.89432 0.40942 0.0
C860 C 0.05265 0.06567 0.40904 0.0
C861 C 0.09841 0.1181 0.43234 0.0
N862 N 0.97254 0.94855 0.40984 0.0
N863 N 0.05762 0.06395 0.43208 0.0
H864 H 0.96387 0.10317 0.73188 0.0
H865 H 0.01927 0.89343 0.77356 0.0
H866 H 0.97867 0.11293 0.77345 0.0
H867 H 0.05551 0.92222 0.73281 0.0
H868 H 0.99195 0.96488 0.77356 0.0
H869 H 0.99116 0.03233 0.73187 0.0
C870 C 0.97489 0.09173 0.74098 0.0
C871 C 0.97045 0.11496 0.75264 0.0
C872 C 1.00495 0.9548 0.76458 0.0
C873 C 0.9984 0.03124 0.75283 0.0
C874 C 0.01933 0.91319 0.76452 0.0
C875 C 0.0387 0.90125 0.75311 0.0
C876 C 1.00957 0.98419 0.75311 0.0
C877 C 0.03992 0.92956 0.74176 0.0
C878 C 0.98956 0.05061 0.741 0.0
C879 C 0.98312 0.09715 0.76422 0.0
N880 N 0.02579 0.96967 0.74205 0.0
N881 N 0.9958 0.05578 0.76404 0.0
H882 H 0.96813 0.86762 0.63475 0.0
H883 H 0.02802 0.13534 0.59363 0.0
H884 H 0.98289 0.87368 0.59319 0.0
H885 H 0.062 0.14009 0.63446 0.0
H886 H 0.99986 0.03646 0.59337 0.0
H887 H 0.9968 0.96598 0.63495 0.0
C888 C 0.97943 0.89033 0.6257 0.0
C889 C 0.97466 0.86293 0.61398 0.0
C890 C 0.01258 0.05898 0.60242 0.0
C891 C 1.00423 0.97492 0.61401 0.0
C892 C 0.02744 0.11504 0.60262 0.0
C893 C 0.04628 0.14557 0.61415 0.0
C894 C 0.01626 0.03339 0.61385 0.0
C895 C 0.04682 0.11778 0.62543 0.0
C896 C 0.99491 0.94626 0.62578 0.0
C897 C 0.98768 0.89372 0.60246 0.0
N898 N 0.03222 0.06348 0.625 0.0
N899 N 1.00118 0.94795 0.60274 0.0
H900 H 0.88239 1.00265 0.95572 0.0
H901 H 0.1277 0.99158 0.91742 0.0
H902 H 0.92022 0.0555 0.91603 0.0
H903 H 0.10105 0.97158 0.95863 0.0
H904 H 0.05076 0.01126 0.9157 0.0
H905 H 0.95618 0.97962 0.95568 0.0
C906 C 0.90466 0.00695 0.94679 0.0
C907 C 0.89392 0.02922 0.93575 0.0
C908 C 0.06252 1.00356 0.92514 0.0
C909 C 0.98143 0.00644 0.93581 0.0
C910 C 0.10715 0.99348 0.92614 0.0
C911 C 0.12145 0.981 0.93823 0.0
C912 C 0.03182 1.00035 0.93628 0.0
C913 C 0.09189 0.98174 0.94916 0.0
C914 C 0.94779 0.99507 0.94684 0.0
C915 C 0.92595 0.03655 0.92461 0.0
N916 N 0.04848 0.99066 0.94791 0.0
N917 N 0.96862 0.02569 0.92494 0.0
H918 H 0.14024 0.11641 0.26134 0.0
H919 H 0.87076 0.90665 0.30158 0.0
H920 H 0.14332 0.08504 0.30211 0.0
H921 H 0.87883 0.90019 0.26001 0.0
H922 H 0.96912 0.97613 0.3021 0.0
H923 H 0.04143 0.04571 0.26077 0.0
C924 C 0.11959 0.0962 0.27026 0.0
C925 C 0.14965 0.1073 0.28185 0.0
C926 C 0.94985 0.95883 0.29286 0.0
C927 C 0.03752 0.02517 0.2812 0.0
C928 C 0.89392 0.91847 0.29259 0.0
C929 C 0.86707 0.89651 0.28078 0.0
C930 C 0.97906 0.97877 0.28118 0.0
C931 C 0.89843 0.91489 0.26935 0.0
C932 C 0.06357 0.05503 0.26988 0.0
C933 C 0.12139 0.07836 0.29303 0.0
N934 N 0.95263 0.95551 0.26981 0.0
N935 N 0.06714 0.03871 0.29243 0.0
loop_
_geom_bond_atom_site_label_1
_geom_bond_atom_site_label_2
_geom_bond_distance
_geom_bond_site_symmetry_2
_ccdc_geom_bond_type
C0 C1 1.351 . S
C0 N3 1.368 . S
C0 H5 0.931 . S
C1 C0 1.351 . S
C1 N2 1.373 . S
C1 H29 0.930 . S
N2 C1 1.373 . S
N2 C4 1.340 . S
N3 C0 1.368 . S
N3 C4 1.321 . S
N3 Co6 2.135 . S
C4 N2 1.340 . S
C4 N3 1.321 . S
C4 H28 0.930 . S
H5 C0 0.931 . S
Co6 N3 2.135 . S
Co6 N9 2.121 . S
Co6 O14 2.055 . S
Co6 O17 2.039 . S
Co6 N20 2.140 . S
C7 O8 1.227 . S
C7 O17 1.265 . S
O8 C7 1.227 . S
N9 Co6 2.121 . S
N9 C11 1.375 . S
N9 C12 1.313 . S
C10 C11 1.338 . S
C10 N13 1.377 . S
C10 H30 0.930 . S
C11 N9 1.375 . S
C11 C10 1.338 . S
C11 H15 0.931 . S
C12 N9 1.313 . S
C12 N13 1.344 . S
C12 H16 0.930 . S
N13 C10 1.377 . S
N13 C12 1.344 . S
O14 Co6 2.055 . S
O14 C18 1.253 . S
H15 C11 0.931 . S
H16 C12 0.930 . S
O17 Co6 2.039 . S
O17 C7 1.265 . S
C18 O14 1.253 . S
C18 O19 1.227 . S
O19 C18 1.227 . S
N20 Co6 2.140 . S
N20 C23 1.346 . S
N20 C24 1.345 . S
C21 C22 1.387 . S
C21 C25 1.391 . S
C22 C21 1.387 . S
C22 C23 1.369 . S
C22 H31 0.929 . S
C23 N20 1.346 . S
C23 C22 1.369 . S
C23 H26 0.928 . S
C24 N20 1.345 . S
C24 C25 1.371 . S
C24 H27 0.931 . S
C25 C21 1.391 . S
C25 C24 1.371 . S
C25 H32 0.930 . S
H26 C23 0.928 . S
H27 C24 0.931 . S
H28 C4 0.930 . S
H29 C1 0.930 . S
H30 C10 0.930 . S
H31 C22 0.929 . S
H32 C25 0.930 . S
C33 C34 1.351 . S
C33 N36 1.368 . S
C33 H38 0.931 . S
C34 C33 1.351 . S
C34 N35 1.373 . S
C34 H62 0.930 . S
N35 C34 1.373 . S
N35 C37 1.340 . S
N36 C33 1.368 . S
N36 C37 1.321 . S
N36 Co39 2.135 . S
C37 N35 1.340 . S
C37 N36 1.321 . S
C37 H61 0.930 . S
H38 C33 0.931 . S
Co39 N36 2.135 . S
Co39 N42 2.121 . S
Co39 O47 2.055 . S
Co39 O50 2.039 . S
Co39 N53 2.140 . S
C40 O41 1.227 . S
C40 O50 1.265 . S
O41 C40 1.227 . S
N42 Co39 2.121 . S
N42 C44 1.375 . S
N42 C45 1.313 . S
C43 C44 1.338 . S
C43 N46 1.377 . S
C43 H63 0.930 . S
C44 N42 1.375 . S
C44 C43 1.338 . S
C44 H48 0.931 . S
C45 N42 1.313 . S
C45 N46 1.344 . S
C45 H49 0.930 . S
N46 C43 1.377 . S
N46 C45 1.344 . S
O47 Co39 2.055 . S
O47 C51 1.253 . S
H48 C44 0.931 . S
H49 C45 0.930 . S
O50 Co39 2.039 . S
O50 C40 1.265 . S
C51 O47 1.253 . S
C51 O52 1.227 . S
O52 C51 1.227 . S
N53 Co39 2.140 . S
N53 C56 1.346 . S
N53 C57 1.345 . S
C54 C55 1.387 . S
C54 C58 1.391 . S
C55 C54 1.387 . S
C55 C56 1.369 . S
C55 H64 0.929 . S
C56 N53 1.346 . S
C56 C55 1.369 . S
C56 H59 0.928 . S
C57 N53 1.345 . S
C57 C58 1.371 . S
C57 H60 0.931 . S
C58 C54 1.391 . S
C58 C57 1.371 . S
C58 H65 0.930 . S
H59 C56 0.928 . S
H60 C57 0.931 . S
H61 C37 0.930 . S
H62 C34 0.930 . S
H63 C43 0.930 . S
H64 C55 0.929 . S
H65 C58 0.930 . S
C66 C67 1.351 . S
C66 N69 1.368 . S
C66 H71 0.931 . S
C67 C66 1.351 . S
C67 N68 1.373 . S
C67 H95 0.930 . S
N68 C67 1.373 . S
N68 C70 1.340 . S
N69 C66 1.368 . S
N69 C70 1.321 . S
N69 Co72 2.135 . S
C70 N68 1.340 . S
C70 N69 1.321 . S
C70 H94 0.930 . S
H71 C66 0.931 . S
Co72 N69 2.135 . S
Co72 N75 2.121 . S
Co72 O80 2.055 . S
Co72 O83 2.039 . S
Co72 N86 2.140 . S
C73 O74 1.227 . S
C73 O83 1.265 . S
O74 C73 1.227 . S
N75 Co72 2.121 . S
N75 C77 1.375 . S
N75 C78 1.313 . S
C76 C77 1.338 . S
C76 N79 1.377 . S
C76 H96 0.930 . S
C77 N75 1.375 . S
C77 C76 1.338 . S
C77 H81 0.931 . S
C78 N75 1.313 . S
C78 N79 1.344 . S
C78 H82 0.930 . S
N79 C76 1.377 . S
N79 C78 1.344 . S
O80 Co72 2.055 . S
O80 C84 1.253 . S
H81 C77 0.931 . S
H82 C78 0.930 . S
O83 Co72 2.039 . S
O83 C73 1.265 . S
C84 O80 1.253 . S
C84 O85 1.227 . S
O85 C84 1.227 . S
N86 Co72 2.140 . S
N86 C89 1.346 . S
N86 C90 1.345 . S
C87 C88 1.387 . S
C87 C91 1.391 . S
C88 C87 1.387 . S
C88 C89 1.369 . S
C88 H97 0.929 . S
C89 N86 1.346 . S
C89 C88 1.369 . S
C89 H92 0.928 . S
C90 N86 1.345 . S
C90 C91 1.371 . S
C90 H93 0.931 . S
C91 C87 1.391 . S
C91 C90 1.371 . S
C91 H98 0.930 . S
H92 C89 0.928 . S
H93 C90 0.931 . S
H94 C70 0.930 . S
H95 C67 0.930 . S
H96 C76 0.930 . S
H97 C88 0.929 . S
H98 C91 0.930 . S
C99 C100 1.351 . S
C99 N102 1.368 . S
C99 H104 0.931 . S
C100 C99 1.351 . S
C100 N101 1.373 . S
C100 H128 0.930 . S
N101 C100 1.373 . S
N101 C103 1.340 . S
N102 C99 1.368 . S
N102 C103 1.321 . S
N102 Co105 2.135 . S
C103 N101 1.340 . S
C103 N102 1.321 . S
C103 H127 0.930 . S
H104 C99 0.931 . S
Co105 N102 2.135 . S
Co105 N108 2.121 . S
Co105 O113 2.055 . S
Co105 O116 2.039 . S
Co105 N119 2.140 . S
C106 O107 1.227 . S
C106 O116 1.265 . S
O107 C106 1.227 . S
N108 Co105 2.121 . S
N108 C110 1.375 . S
N108 C111 1.313 . S
C109 C110 1.338 . S
C109 N112 1.377 . S
C109 H129 0.930 . S
C110 N108 1.375 . S
C110 C109 1.338 . S
C110 H114 0.931 . S
C111 N108 1.313 . S
C111 N112 1.344 . S
C111 H115 0.930 . S
N112 C109 1.377 . S
N112 C111 1.344 . S
O113 Co105 2.055 . S
O113 C117 1.253 . S
H114 C110 0.931 . S
H115 C111 0.930 . S
O116 Co105 2.039 . S
O116 C106 1.265 . S
C117 O113 1.253 . S
C117 O118 1.227 . S
O118 C117 1.227 . S
N119 Co105 2.140 . S
N119 C122 1.346 . S
N119 C123 1.345 . S
C120 C121 1.387 . S
C120 C124 1.391 . S
C121 C120 1.387 . S
C121 C122 1.369 . S
C121 H130 0.929 . S
C122 N119 1.346 . S
C122 C121 1.369 . S
C122 H125 0.928 . S
C123 N119 1.345 . S
C123 C124 1.371 . S
C123 H126 0.931 . S
C124 C120 1.391 . S
C124 C123 1.371 . S
C124 H131 0.930 . S
H125 C122 0.928 . S
H126 C123 0.931 . S
H127 C103 0.930 . S
H128 C100 0.930 . S
H129 C109 0.930 . S
H130 C121 0.929 . S
H131 C124 0.930 . S
C132 C133 1.351 . S
C132 N135 1.368 . S
C132 H137 0.931 . S
C133 C132 1.351 . S
C133 N134 1.373 . S
C133 H161 0.930 . S
N134 C133 1.373 . S
N134 C136 1.340 . S
N135 C132 1.368 . S
N135 C136 1.321 . S
N135 Co138 2.135 . S
C136 N134 1.340 . S
C136 N135 1.321 . S
C136 H160 0.930 . S
H137 C132 0.931 . S
Co138 N135 2.135 . S
Co138 N141 2.121 . S
Co138 O146 2.055 . S
Co138 O149 2.039 . S
Co138 N152 2.140 . S
C139 O140 1.227 . S
C139 O149 1.265 . S
O140 C139 1.227 . S
N141 Co138 2.121 . S
N141 C143 1.375 . S
N141 C144 1.313 . S
C142 C143 1.338 . S
C142 N145 1.377 . S
C142 H162 0.930 . S
C143 N141 1.375 . S
C143 C142 1.338 . S
C143 H147 0.931 . S
C144 N141 1.313 . S
C144 N145 1.344 . S
C144 H148 0.930 . S
N145 C142 1.377 . S
N145 C144 1.344 . S
O146 Co138 2.055 . S
O146 C150 1.253 . S
H147 C143 0.931 . S
H148 C144 0.930 . S
O149 Co138 2.039 . S
O149 C139 1.265 . S
C150 O146 1.253 . S
C150 O151 1.227 . S
O151 C150 1.227 . S
N152 Co138 2.140 . S
N152 C155 1.346 . S
N152 C156 1.345 . S
C153 C154 1.387 . S
C153 C157 1.391 . S
C154 C153 1.387 . S
C154 C155 1.369 . S
C154 H163 0.929 . S
C155 N152 1.346 . S
C155 C154 1.369 . S
C155 H158 0.928 . S
C156 N152 1.345 . S
C156 C157 1.371 . S
C156 H159 0.931 . S
C157 C153 1.391 . S
C157 C156 1.371 . S
C157 H164 0.930 . S
H158 C155 0.928 . S
H159 C156 0.931 . S
H160 C136 0.930 . S
H161 C133 0.930 . S
H162 C142 0.930 . S
H163 C154 0.929 . S
H164 C157 0.930 . S
C165 C166 1.351 . S
C165 N168 1.368 . S
C165 H170 0.931 . S
C166 C165 1.351 . S
C166 N167 1.373 . S
C166 H194 0.930 . S
N167 C166 1.373 . S
N167 C169 1.340 . S
N168 C165 1.368 . S
N168 C169 1.321 . S
N168 Co171 2.135 . S
C169 N167 1.340 . S
C169 N168 1.321 . S
C169 H193 0.930 . S
H170 C165 0.931 . S
Co171 N168 2.135 . S
Co171 N174 2.121 . S
Co171 O179 2.055 . S
Co171 O182 2.039 . S
Co171 N185 2.140 . S
C172 O173 1.227 . S
C172 O182 1.265 . S
O173 C172 1.227 . S
N174 Co171 2.121 . S
N174 C176 1.375 . S
N174 C177 1.313 . S
C175 C176 1.338 . S
C175 N178 1.377 . S
C175 H195 0.930 . S
C176 N174 1.375 . S
C176 C175 1.338 . S
C176 H180 0.931 . S
C177 N174 1.313 . S
C177 N178 1.344 . S
C177 H181 0.930 . S
N178 C175 1.377 . S
N178 C177 1.344 . S
O179 Co171 2.055 . S
O179 C183 1.253 . S
H180 C176 0.931 . S
H181 C177 0.930 . S
O182 Co171 2.039 . S
O182 C172 1.265 . S
C183 O179 1.253 . S
C183 O184 1.227 . S
O184 C183 1.227 . S
N185 Co171 2.140 . S
N185 C188 1.346 . S
N185 C189 1.345 . S
C186 C187 1.387 . S
C186 C190 1.391 . S
C187 C186 1.387 . S
C187 C188 1.369 . S
C187 H196 0.929 . S
C188 N185 1.346 . S
C188 C187 1.369 . S
C188 H191 0.928 . S
C189 N185 1.345 . S
C189 C190 1.371 . S
C189 H192 0.931 . S
C190 C186 1.391 . S
C190 C189 1.371 . S
C190 H197 0.930 . S
H191 C188 0.928 . S
H192 C189 0.931 . S
H193 C169 0.930 . S
H194 C166 0.930 . S
H195 C175 0.930 . S
H196 C187 0.929 . S
H197 C190 0.930 . S
C198 C199 1.351 . S
C198 N201 1.368 . S
C198 H203 0.931 . S
C199 C198 1.351 . S
C199 N200 1.373 . S
C199 H227 0.930 . S
N200 C199 1.373 . S
N200 C202 1.340 . S
N201 C198 1.368 . S
N201 C202 1.321 . S
N201 Co204 2.135 . S
C202 N200 1.340 . S
C202 N201 1.321 . S
C202 H226 0.930 . S
H203 C198 0.931 . S
Co204 N201 2.135 . S
Co204 N207 2.121 . S
Co204 O212 2.055 . S
Co204 O215 2.039 . S
Co204 N218 2.140 . S
C205 O206 1.227 . S
C205 O215 1.265 . S
O206 C205 1.227 . S
N207 Co204 2.121 . S
N207 C209 1.375 . S
N207 C210 1.313 . S
C208 C209 1.338 . S
C208 N211 1.377 . S
C208 H228 0.930 . S
C209 N207 1.375 . S
C209 C208 1.338 . S
C209 H213 0.931 . S
C210 N207 1.313 . S
C210 N211 1.344 . S
C210 H214 0.930 . S
N211 C208 1.377 . S
N211 C210 1.344 . S
O212 Co204 2.055 . S
O212 C216 1.253 . S
H213 C209 0.931 . S
H214 C210 0.930 . S
O215 Co204 2.039 . S
O215 C205 1.265 . S
C216 O212 1.253 . S
C216 O217 1.227 . S
O217 C216 1.227 . S
N218 Co204 2.140 . S
N218 C221 1.346 . S
N218 C222 1.345 . S
C219 C220 1.387 . S
C219 C223 1.391 . S
C220 C219 1.387 . S
C220 C221 1.369 . S
C220 H229 0.929 . S
C221 N218 1.346 . S
C221 C220 1.369 . S
C221 H224 0.928 . S
C222 N218 1.345 . S
C222 C223 1.371 . S
C222 H225 0.931 . S
C223 C219 1.391 . S
C223 C222 1.371 . S
C223 H230 0.930 . S
H224 C221 0.928 . S
H225 C222 0.931 . S
H226 C202 0.930 . S
H227 C199 0.930 . S
H228 C208 0.930 . S
H229 C220 0.929 . S
H230 C223 0.930 . S
C231 C232 1.351 . S
C231 N234 1.368 . S
C231 H236 0.931 . S
C232 C231 1.351 . S
C232 N233 1.373 . S
C232 H260 0.930 . S
N233 C232 1.373 . S
N233 C235 1.340 . S
N234 C231 1.368 . S
N234 C235 1.321 . S
N234 Co237 2.135 . S
C235 N233 1.340 . S
C235 N234 1.321 . S
C235 H259 0.930 . S
H236 C231 0.931 . S
Co237 N234 2.135 . S
Co237 N240 2.121 . S
Co237 O245 2.055 . S
Co237 O248 2.039 . S
Co237 N251 2.140 . S
C238 O239 1.227 . S
C238 O248 1.265 . S
O239 C238 1.227 . S
N240 Co237 2.121 . S
N240 C242 1.375 . S
N240 C243 1.313 . S
C241 C242 1.338 . S
C241 N244 1.377 . S
C241 H261 0.930 . S
C242 N240 1.375 . S
C242 C241 1.338 . S
C242 H246 0.931 . S
C243 N240 1.313 . S
C243 N244 1.344 . S
C243 H247 0.930 . S
N244 C241 1.377 . S
N244 C243 1.344 . S
O245 Co237 2.055 . S
O245 C249 1.253 . S
H246 C242 0.931 . S
H247 C243 0.930 . S
O248 Co237 2.039 . S
O248 C238 1.265 . S
C249 O245 1.253 . S
C249 O250 1.227 . S
O250 C249 1.227 . S
N251 Co237 2.140 . S
N251 C254 1.346 . S
N251 C255 1.345 . S
C252 C253 1.387 . S
C252 C256 1.391 . S
C253 C252 1.387 . S
C253 C254 1.369 . S
C253 H262 0.929 . S
C254 N251 1.346 . S
C254 C253 1.369 . S
C254 H257 0.928 . S
C255 N251 1.345 . S
C255 C256 1.371 . S
C255 H258 0.931 . S
C256 C252 1.391 . S
C256 C255 1.371 . S
C256 H263 0.930 . S
H257 C254 0.928 . S
H258 C255 0.931 . S
H259 C235 0.930 . S
H260 C232 0.930 . S
H261 C241 0.930 . S
H262 C253 0.929 . S
H263 C256 0.930 . S
C264 C265 1.351 . S
C264 N267 1.368 . S
C264 H269 0.931 . S
C265 C264 1.351 . S
C265 N266 1.373 . S
C265 H293 0.930 . S
N266 C265 1.373 . S
N266 C268 1.340 . S
N267 C264 1.368 . S
N267 C268 1.321 . S
N267 Co270 2.135 . S
C268 N266 1.340 . S
C268 N267 1.321 . S
C268 H292 0.930 . S
H269 C264 0.931 . S
Co270 N267 2.135 . S
Co270 N273 2.121 . S
Co270 O278 2.055 . S
Co270 O281 2.039 . S
Co270 N284 2.140 . S
C271 O272 1.227 . S
C271 O281 1.265 . S
O272 C271 1.227 . S
N273 Co270 2.121 . S
N273 C275 1.375 . S
N273 C276 1.313 . S
C274 C275 1.338 . S
C274 N277 1.377 . S
C274 H294 0.930 . S
C275 N273 1.375 . S
C275 C274 1.338 . S
C275 H279 0.931 . S
C276 N273 1.313 . S
C276 N277 1.344 . S
C276 H280 0.930 . S
N277 C274 1.377 . S
N277 C276 1.344 . S
O278 Co270 2.055 . S
O278 C282 1.253 . S
H279 C275 0.931 . S
H280 C276 0.930 . S
O281 Co270 2.039 . S
O281 C271 1.265 . S
C282 O278 1.253 . S
C282 O283 1.227 . S
O283 C282 1.227 . S
N284 Co270 2.140 . S
N284 C287 1.346 . S
N284 C288 1.345 . S
C285 C286 1.387 . S
C285 C289 1.391 . S
C286 C285 1.387 . S
C286 C287 1.369 . S
C286 H295 0.929 . S
C287 N284 1.346 . S
C287 C286 1.369 . S
C287 H290 0.928 . S
C288 N284 1.345 . S
C288 C289 1.371 . S
C288 H291 0.931 . S
C289 C285 1.391 . S
C289 C288 1.371 . S
C289 H296 0.930 . S
H290 C287 0.928 . S
H291 C288 0.931 . S
H292 C268 0.930 . S
H293 C265 0.930 . S
H294 C274 0.930 . S
H295 C286 0.929 . S
H296 C289 0.930 . S
C297 C298 1.351 . S
C297 N300 1.368 . S
C297 H302 0.931 . S
C298 C297 1.351 . S
C298 N299 1.373 . S
C298 H326 0.930 . S
N299 C298 1.373 . S
N299 C301 1.340 . S
N300 C297 1.368 . S
N300 C301 1.321 . S
N300 Co303 2.135 . S
C301 N299 1.340 . S
C301 N300 1.321 . S
C301 H325 0.930 . S
H302 C297 0.931 . S
Co303 N300 2.135 . S
Co303 N306 2.121 . S
Co303 O311 2.055 . S
Co303 O314 2.039 . S
Co303 N317 2.140 . S
C304 O305 1.227 . S
C304 O314 1.265 . S
O305 C304 1.227 . S
N306 Co303 2.121 . S
N306 C308 1.375 . S
N306 C309 1.313 . S
C307 C308 1.338 . S
C307 N310 1.377 . S
C307 H327 0.930 . S
C308 N306 1.375 . S
C308 C307 1.338 . S
C308 H312 0.931 . S
C309 N306 1.313 . S
C309 N310 1.344 . S
C309 H313 0.930 . S
N310 C307 1.377 . S
N310 C309 1.344 . S
O311 Co303 2.055 . S
O311 C315 1.253 . S
H312 C308 0.931 . S
H313 C309 0.930 . S
O314 Co303 2.039 . S
O314 C304 1.265 . S
C315 O311 1.253 . S
C315 O316 1.227 . S
O316 C315 1.227 . S
N317 Co303 2.140 . S
N317 C320 1.346 . S
N317 C321 1.345 . S
C318 C319 1.387 . S
C318 C322 1.391 . S
C319 C318 1.387 . S
C319 C320 1.369 . S
C319 H328 0.929 . S
C320 N317 1.346 . S
C320 C319 1.369 . S
C320 H323 0.928 . S
C321 N317 1.345 . S
C321 C322 1.371 . S
C321 H324 0.931 . S
C322 C318 1.391 . S
C322 C321 1.371 . S
C322 H329 0.930 . S
H323 C320 0.928 . S
H324 C321 0.931 . S
H325 C301 0.930 . S
H326 C298 0.930 . S
H327 C307 0.930 . S
H328 C319 0.929 . S
H329 C322 0.930 . S
C330 C331 1.351 . S
C330 N333 1.368 . S
C330 H335 0.931 . S
C331 C330 1.351 . S
C331 N332 1.373 . S
C331 H359 0.930 . S
N332 C331 1.373 . S
N332 C334 1.340 . S
N333 C330 1.368 . S
N333 C334 1.321 . S
N333 Co336 2.135 . S
C334 N332 1.340 . S
C334 N333 1.321 . S
C334 H358 0.930 . S
H335 C330 0.931 . S
Co336 N333 2.135 . S
Co336 N339 2.121 . S
Co336 O344 2.055 . S
Co336 O347 2.039 . S
Co336 N350 2.140 . S
C337 O338 1.227 . S
C337 O347 1.265 . S
O338 C337 1.227 . S
N339 Co336 2.121 . S
N339 C341 1.375 . S
N339 C342 1.313 . S
C340 C341 1.338 . S
C340 N343 1.377 . S
C340 H360 0.930 . S
C341 N339 1.375 . S
C341 C340 1.338 . S
C341 H345 0.931 . S
C342 N339 1.313 . S
C342 N343 1.344 . S
C342 H346 0.930 . S
N343 C340 1.377 . S
N343 C342 1.344 . S
O344 Co336 2.055 . S
O344 C348 1.253 . S
H345 C341 0.931 . S
H346 C342 0.930 . S
O347 Co336 2.039 . S
O347 C337 1.265 . S
C348 O344 1.253 . S
C348 O349 1.227 . S
O349 C348 1.227 . S
N350 Co336 2.140 . S
N350 C353 1.346 . S
N350 C354 1.345 . S
C351 C352 1.387 . S
C351 C355 1.391 . S
C352 C351 1.387 . S
C352 C353 1.369 . S
C352 H361 0.929 . S
C353 N350 1.346 . S
C353 C352 1.369 . S
C353 H356 0.928 . S
C354 N350 1.345 . S
C354 C355 1.371 . S
C354 H357 0.931 . S
C355 C351 1.391 . S
C355 C354 1.371 . S
C355 H362 0.930 . S
H356 C353 0.928 . S
H357 C354 0.931 . S
H358 C334 0.930 . S
H359 C331 0.930 . S
H360 C340 0.930 . S
H361 C352 0.929 . S
H362 C355 0.930 . S
C363 C364 1.351 . S
C363 N366 1.368 . S
C363 H368 0.931 . S
C364 C363 1.351 . S
C364 N365 1.373 . S
C364 H392 0.930 . S
N365 C364 1.373 . S
N365 C367 1.340 . S
N366 C363 1.368 . S
N366 C367 1.321 . S
N366 Co369 2.135 . S
C367 N365 1.340 . S
C367 N366 1.321 . S
C367 H391 0.930 . S
H368 C363 0.931 . S
Co369 N366 2.135 . S
Co369 N372 2.121 . S
Co369 O377 2.055 . S
Co369 O380 2.039 . S
Co369 N383 2.140 . S
C370 O371 1.227 . S
C370 O380 1.265 . S
O371 C370 1.227 . S
N372 Co369 2.121 . S
N372 C374 1.375 . S
N372 C375 1.313 . S
C373 C374 1.338 . S
C373 N376 1.377 . S
C373 H393 0.930 . S
C374 N372 1.375 . S
C374 C373 1.338 . S
C374 H378 0.931 . S
C375 N372 1.313 . S
C375 N376 1.344 . S
C375 H379 0.930 . S
N376 C373 1.377 . S
N376 C375 1.344 . S
O377 Co369 2.055 . S
O377 C381 1.253 . S
H378 C374 0.931 . S
H379 C375 0.930 . S
O380 Co369 2.039 . S
O380 C370 1.265 . S
C381 O377 1.253 . S
C381 O382 1.227 . S
O382 C381 1.227 . S
N383 Co369 2.140 . S
N383 C386 1.346 . S
N383 C387 1.345 . S
C384 C385 1.387 . S
C384 C388 1.391 . S
C385 C384 1.387 . S
C385 C386 1.369 . S
C385 H394 0.929 . S
C386 N383 1.346 . S
C386 C385 1.369 . S
C386 H389 0.928 . S
C387 N383 1.345 . S
C387 C388 1.371 . S
C387 H390 0.931 . S
C388 C384 1.391 . S
C388 C387 1.371 . S
C388 H395 0.930 . S
H389 C386 0.928 . S
H390 C387 0.931 . S
H391 C367 0.930 . S
H392 C364 0.930 . S
H393 C373 0.930 . S
H394 C385 0.929 . S
H395 C388 0.930 . S
H396 C402 0.930 . S
H397 C406 0.930 . S
H398 C411 0.933 . S
H399 C409 0.932 . S
H400 C404 0.900 1_554 S
H401 C410 0.900 1_556 S
C402 H396 0.930 . S
C402 C403 1.367 . S
C402 C410 1.378 . S
C403 C402 1.367 . S
C403 C411 1.433 . S
C404 H400 0.900 1_556 S
C404 C406 1.378 . S
C404 C408 1.350 . S
C405 C408 1.463 1_544 S
C405 C410 1.350 . S
C405 N413 1.427 1_545 S
C406 H397 0.930 . S
C406 C404 1.378 . S
C406 C407 1.367 . S
C407 C406 1.367 . S
C407 C409 1.433 . S
C408 C404 1.350 . S
C408 C405 1.463 1_566 S
C408 N412 1.427 1_565 S
C409 H399 0.932 . S
C409 C407 1.433 . S
C409 N412 1.384 1_565 S
C410 H401 0.900 1_554 S
C410 C402 1.378 . S
C410 C405 1.350 . S
C411 H398 0.933 . S
C411 C403 1.433 . S
C411 N413 1.384 1_545 S
N412 C408 1.427 1_545 S
N412 C409 1.384 1_545 S
N413 C405 1.427 1_565 S
N413 C411 1.384 1_565 S
H414 C420 0.930 . S
H415 C424 0.930 . S
H416 C429 0.929 . S
H417 C427 0.929 . S
H418 C422 0.929 . S
H419 C428 0.929 . S
C420 H414 0.930 . S
C420 C421 1.367 . S
C420 C428 1.378 . S
C421 C420 1.367 . S
C421 C429 1.433 . S
C422 H418 0.929 . S
C422 C424 1.378 . S
C422 C426 1.350 . S
C423 C426 1.463 . S
C423 C428 1.350 . S
C423 N431 1.427 . S
C424 H415 0.930 . S
C424 C422 1.378 . S
C424 C425 1.367 . S
C425 C424 1.367 . S
C425 C427 1.433 . S
C426 C422 1.350 . S
C426 C423 1.463 . S
C426 N430 1.427 . S
C427 H417 0.929 . S
C427 C425 1.433 . S
C427 N430 1.384 . S
C428 H419 0.929 . S
C428 C420 1.378 . S
C428 C423 1.350 . S
C429 H416 0.929 . S
C429 C421 1.433 . S
C429 N431 1.384 . S
N430 C426 1.427 . S
N430 C427 1.384 . S
N431 C423 1.427 . S
N431 C429 1.384 . S
H432 C438 0.930 1_455 S
H433 C442 0.930 1_655 S
H434 C447 0.929 . S
H435 C445 0.929 . S
H436 C440 0.929 . S
H437 C446 0.929 . S
C438 H432 0.930 1_655 S
C438 C439 1.367 . S
C438 C446 1.378 1_655 S
C439 C438 1.367 . S
C439 C447 1.433 . S
C440 H436 0.929 . S
C440 C442 1.378 1_655 S
C440 C444 1.350 1_655 S
C441 C444 1.463 1_655 S
C441 C446 1.350 1_655 S
C441 N449 1.427 . S
C442 H433 0.930 1_455 S
C442 C440 1.378 1_455 S
C442 C443 1.367 . S
C443 C442 1.367 . S
C443 C445 1.433 . S
C444 C440 1.350 1_455 S
C444 C441 1.463 1_455 S
C444 N448 1.427 . S
C445 H435 0.929 . S
C445 C443 1.433 . S
C445 N448 1.384 . S
C446 H437 0.929 . S
C446 C438 1.378 1_455 S
C446 C441 1.350 1_455 S
C447 H434 0.929 . S
C447 C439 1.433 . S
C447 N449 1.384 . S
N448 C444 1.427 . S
N448 C445 1.384 . S
N449 C441 1.427 . S
N449 C447 1.384 . S
H450 C456 0.930 . S
H451 C460 0.930 . S
H452 C465 0.929 . S
H453 C463 0.929 . S
H454 C458 0.946 . S
H455 C464 0.946 . S
C456 H450 0.930 . S
C456 C457 1.367 . S
C456 C464 1.378 . S
C457 C456 1.367 . S
C457 C465 1.433 . S
C458 H454 0.946 . S
C458 C460 1.378 . S
C458 C462 1.350 . S
C459 C462 1.463 1_546 S
C459 C464 1.350 . S
C459 N467 1.427 1_545 S
C460 H451 0.930 . S
C460 C458 1.378 . S
C460 C461 1.367 . S
C461 C460 1.367 . S
C461 C463 1.433 . S
C462 C458 1.350 . S
C462 C459 1.463 1_564 S
C462 N466 1.427 1_565 S
C463 H453 0.929 . S
C463 C461 1.433 . S
C463 N466 1.384 1_565 S
C464 H455 0.946 . S
C464 C456 1.378 . S
C464 C459 1.350 . S
C465 H452 0.929 . S
C465 C457 1.433 . S
C465 N467 1.384 1_545 S
N466 C462 1.427 1_545 S
N466 C463 1.384 1_545 S
N467 C459 1.427 1_565 S
N467 C465 1.384 1_565 S
H468 C474 0.930 . S
H469 C478 0.930 . S
H470 C483 0.929 . S
H471 C481 0.929 . S
H472 C476 0.929 . S
H473 C482 0.929 . S
C474 H468 0.930 . S
C474 C475 1.367 . S
C474 C482 1.378 . S
C475 C474 1.367 . S
C475 C483 1.433 . S
C476 H472 0.929 . S
C476 C478 1.378 . S
C476 C480 1.350 . S
C477 C480 1.463 . S
C477 C482 1.350 . S
C477 N485 1.427 . S
C478 H469 0.930 . S
C478 C476 1.378 . S
C478 C479 1.367 . S
C479 C478 1.367 . S
C479 C481 1.433 . S
C480 C476 1.350 . S
C480 C477 1.463 . S
C480 N484 1.427 . S
C481 H471 0.929 . S
C481 C479 1.433 . S
C481 N484 1.384 . S
C482 H473 0.929 . S
C482 C474 1.378 . S
C482 C477 1.350 . S
C483 H470 0.929 . S
C483 C475 1.433 . S
C483 N485 1.384 . S
N484 C480 1.427 . S
N484 C481 1.384 . S
N485 C477 1.427 . S
N485 C483 1.384 . S
H486 C492 0.930 . S
H487 C496 0.930 . S
H488 C501 0.929 1_655 S
H489 C499 0.929 1_455 S
H490 C494 0.929 . S
H491 C500 0.929 . S
C492 H486 0.930 . S
C492 C493 1.367 . S
C492 C500 1.378 . S
C493 C492 1.367 . S
C493 C501 1.433 . S
C494 H490 0.929 . S
C494 C496 1.378 . S
C494 C498 1.350 . S
C495 C498 1.463 1_455 S
C495 C500 1.350 . S
C495 N503 1.427 1_455 S
C496 H487 0.930 . S
C496 C494 1.378 . S
C496 C497 1.367 . S
C497 C496 1.367 . S
C497 C499 1.433 . S
C498 C494 1.350 . S
C498 C495 1.463 1_655 S
C498 N502 1.427 1_655 S
C499 H489 0.929 1_655 S
C499 C497 1.433 . S
C499 N502 1.384 1_655 S
C500 H491 0.929 . S
C500 C492 1.378 . S
C500 C495 1.350 . S
C501 H488 0.929 1_455 S
C501 C493 1.433 . S
C501 N503 1.384 1_455 S
N502 C498 1.427 1_455 S
N502 C499 1.384 1_455 S
N503 C495 1.427 1_655 S
N503 C501 1.384 1_655 S
H504 C510 0.930 . S
H505 C514 0.930 . S
H506 C519 0.929 1_545 S
H507 C517 0.929 1_565 S
H508 C512 0.929 . S
H509 C518 0.929 . S
C510 H504 0.930 . S
C510 C511 1.367 . S
C510 C518 1.378 . S
C511 C510 1.367 . S
C511 C519 1.433 . S
C512 H508 0.929 . S
C512 C514 1.378 . S
C512 C516 1.350 . S
C513 C516 1.463 1_565 S
C513 C518 1.350 . S
C513 N521 1.427 1_565 S
C514 H505 0.930 . S
C514 C512 1.378 . S
C514 C515 1.367 . S
C515 C514 1.367 . S
C515 C517 1.433 . S
C516 C512 1.350 . S
C516 C513 1.463 1_545 S
C516 N520 1.427 1_545 S
C517 H507 0.929 1_545 S
C517 C515 1.433 . S
C517 N520 1.384 1_545 S
C518 H509 0.929 . S
C518 C510 1.378 . S
C518 C513 1.350 . S
C519 H506 0.929 1_565 S
C519 C511 1.433 . S
C519 N521 1.384 1_565 S
N520 C516 1.427 1_565 S
N520 C517 1.384 1_565 S
N521 C513 1.427 1_545 S
N521 C519 1.384 1_545 S
H522 C528 0.930 . S
H523 C532 0.930 . S
H524 C537 0.929 . S
H525 C535 0.929 . S
H526 C530 0.929 . S
H527 C536 0.929 . S
C528 H522 0.930 . S
C528 C529 1.367 . S
C528 C536 1.378 . S
C529 C528 1.367 . S
C529 C537 1.433 . S
C530 H526 0.929 . S
C530 C532 1.378 . S
C530 C534 1.350 . S
C531 C534 1.463 . S
C531 C536 1.350 . S
C531 N539 1.427 . S
C532 H523 0.930 . S
C532 C530 1.378 . S
C532 C533 1.367 . S
C533 C532 1.367 . S
C533 C535 1.433 . S
C534 C530 1.350 . S
C534 C531 1.463 . S
C534 N538 1.427 . S
C535 H525 0.929 . S
C535 C533 1.433 . S
C535 N538 1.384 . S
C536 H527 0.929 . S
C536 C528 1.378 . S
C536 C531 1.350 . S
C537 H524 0.929 . S
C537 C529 1.433 . S
C537 N539 1.384 . S
N538 C534 1.427 . S
N538 C535 1.384 . S
N539 C531 1.427 . S
N539 C537 1.384 . S
H540 C546 0.930 . S
H541 C550 0.930 . S
H542 C555 0.929 . S
H543 C553 0.929 . S
H544 C548 0.929 . S
H545 C554 0.929 . S
C546 H540 0.930 . S
C546 C547 1.367 . S
C546 C554 1.378 1_455 S
C547 C546 1.367 . S
C547 C555 1.433 . S
C548 H544 0.929 . S
C548 C550 1.378 1_455 S
C548 C552 1.350 1_455 S
C549 C552 1.463 1_455 S
C549 C554 1.350 1_455 S
C549 N557 1.427 . S
C550 H541 0.930 . S
C550 C548 1.378 1_655 S
C550 C551 1.367 . S
C551 C550 1.367 . S
C551 C553 1.433 . S
C552 C548 1.350 1_655 S
C552 C549 1.463 1_655 S
C552 N556 1.427 . S
C553 H543 0.929 . S
C553 C551 1.433 . S
C553 N556 1.384 . S
C554 H545 0.929 . S
C554 C546 1.378 1_655 S
C554 C549 1.350 1_655 S
C555 H542 0.929 . S
C555 C547 1.433 . S
C555 N557 1.384 . S
N556 C552 1.427 . S
N556 C553 1.384 . S
N557 C549 1.427 . S
N557 C555 1.384 . S
H558 C564 0.930 . S
H559 C568 0.930 . S
H560 C573 0.929 . S
H561 C571 0.929 . S
H562 C566 0.929 . S
H563 C572 0.929 . S
C564 H558 0.930 . S
C564 C565 1.367 . S
C564 C572 1.378 . S
C565 C564 1.367 . S
C565 C573 1.433 . S
C566 H562 0.929 . S
C566 C568 1.378 . S
C566 C570 1.350 . S
C567 C570 1.463 1_455 S
C567 C572 1.350 . S
C567 N575 1.427 . S
C568 H559 0.930 . S
C568 C566 1.378 . S
C568 C569 1.367 . S
C569 C568 1.367 . S
C569 C571 1.433 . S
C570 C566 1.350 . S
C570 C567 1.463 1_655 S
C570 N574 1.427 . S
C571 H561 0.929 . S
C571 C569 1.433 . S
C571 N574 1.384 . S
C572 H563 0.929 . S
C572 C564 1.378 . S
C572 C567 1.350 . S
C573 H560 0.929 . S
C573 C565 1.433 . S
C573 N575 1.384 . S
N574 C570 1.427 . S
N574 C571 1.384 . S
N575 C567 1.427 . S
N575 C573 1.384 . S
H576 C582 0.930 . S
H577 C586 0.930 . S
H578 C591 0.929 . S
H579 C589 0.929 . S
H580 C584 0.929 . S
H581 C590 0.929 . S
C582 H576 0.930 . S
C582 C583 1.367 . S
C582 C590 1.378 . S
C583 C582 1.367 . S
C583 C591 1.433 . S
C584 H580 0.929 . S
C584 C586 1.378 . S
C584 C588 1.350 . S
C585 C588 1.463 1_545 S
C585 C590 1.350 . S
C585 N593 1.427 . S
C586 H577 0.930 . S
C586 C584 1.378 . S
C586 C587 1.367 . S
C587 C586 1.367 . S
C587 C589 1.433 . S
C588 C584 1.350 . S
C588 C585 1.463 1_565 S
C588 N592 1.427 . S
C589 H579 0.929 . S
C589 C587 1.433 . S
C589 N592 1.384 . S
C590 H581 0.929 . S
C590 C582 1.378 . S
C590 C585 1.350 . S
C591 H578 0.929 . S
C591 C583 1.433 . S
C591 N593 1.384 . S
N592 C588 1.427 . S
N592 C589 1.384 . S
N593 C585 1.427 . S
N593 C591 1.384 . S
H594 C600 0.930 . S
H595 C604 0.930 . S
H596 C609 0.929 . S
H597 C607 0.929 . S
H598 C602 0.929 . S
H599 C608 0.929 . S
C600 H594 0.930 . S
C600 C601 1.367 . S
C600 C608 1.378 . S
C601 C600 1.367 . S
C601 C609 1.433 . S
C602 H598 0.929 . S
C602 C604 1.378 . S
C602 C606 1.350 . S
C603 C606 1.463 . S
C603 C608 1.350 . S
C603 N611 1.427 . S
C604 H595 0.930 . S
C604 C602 1.378 . S
C604 C605 1.367 . S
C605 C604 1.367 . S
C605 C607 1.433 . S
C606 C602 1.350 . S
C606 C603 1.463 . S
C606 N610 1.427 . S
C607 H597 0.929 . S
C607 C605 1.433 . S
C607 N610 1.384 . S
C608 H599 0.929 . S
C608 C600 1.378 . S
C608 C603 1.350 . S
C609 H596 0.929 . S
C609 C601 1.433 . S
C609 N611 1.384 . S
N610 C606 1.427 . S
N610 C607 1.384 . S
N611 C603 1.427 . S
N611 C609 1.384 . S
H612 C618 0.930 . S
H613 C622 0.930 . S
H614 C627 0.929 . S
H615 C625 0.929 . S
H616 C620 0.929 . S
H617 C626 0.929 . S
C618 H612 0.930 . S
C618 C619 1.367 . S
C618 C626 1.378 . S
C619 C618 1.367 . S
C619 C627 1.433 . S
C620 H616 0.929 . S
C620 C622 1.378 . S
C620 C624 1.350 . S
C621 C624 1.463 . S
C621 C626 1.350 . S
C621 N629 1.427 . S
C622 H613 0.930 . S
C622 C620 1.378 . S
C622 C623 1.367 . S
C623 C622 1.367 . S
C623 C625 1.433 . S
C624 C620 1.350 . S
C624 C621 1.463 . S
C624 N628 1.427 . S
C625 H615 0.929 . S
C625 C623 1.433 . S
C625 N628 1.384 . S
C626 H617 0.929 . S
C626 C618 1.378 . S
C626 C621 1.350 . S
C627 H614 0.929 . S
C627 C619 1.433 . S
C627 N629 1.384 . S
N628 C624 1.427 . S
N628 C625 1.384 . S
N629 C621 1.427 . S
N629 C627 1.384 . S
H630 C636 0.930 . S
H631 C640 0.930 . S
H632 C645 0.929 . S
H633 C643 0.929 . S
H634 C638 0.929 . S
H635 C644 0.929 . S
C636 H630 0.930 . S
C636 C637 1.367 . S
C636 C644 1.378 . S
C637 C636 1.367 . S
C637 C645 1.433 . S
C638 H634 0.929 . S
C638 C640 1.378 . S
C638 C642 1.350 . S
C639 C642 1.463 . S
C639 C644 1.350 . S
C639 N647 1.427 . S
C640 H631 0.930 . S
C640 C638 1.378 . S
C640 C641 1.367 . S
C641 C640 1.367 . S
C641 C643 1.433 . S
C642 C638 1.350 . S
C642 C639 1.463 . S
C642 N646 1.427 . S
C643 H633 0.929 . S
C643 C641 1.433 . S
C643 N646 1.384 . S
C644 H635 0.929 . S
C644 C636 1.378 . S
C644 C639 1.350 . S
C645 H632 0.929 . S
C645 C637 1.433 . S
C645 N647 1.384 . S
N646 C642 1.427 . S
N646 C643 1.384 . S
N647 C639 1.427 . S
N647 C645 1.384 . S
H648 C654 0.930 . S
H649 C658 0.930 . S
H650 C663 0.929 . S
H651 C661 0.929 . S
H652 C656 0.929 . S
H653 C662 0.929 . S
C654 H648 0.930 . S
C654 C655 1.367 . S
C654 C662 1.378 . S
C655 C654 1.367 . S
C655 C663 1.433 . S
C656 H652 0.929 . S
C656 C658 1.378 . S
C656 C660 1.350 . S
C657 C660 1.463 . S
C657 C662 1.350 . S
C657 N665 1.427 . S
C658 H649 0.930 . S
C658 C656 1.378 . S
C658 C659 1.367 . S
C659 C658 1.367 . S
C659 C661 1.433 . S
C660 C656 1.350 . S
C660 C657 1.463 . S
C660 N664 1.427 . S
C661 H651 0.929 . S
C661 C659 1.433 . S
C661 N664 1.384 . S
C662 H653 0.929 . S
C662 C654 1.378 . S
C662 C657 1.350 . S
C663 H650 0.929 . S
C663 C655 1.433 . S
C663 N665 1.384 . S
N664 C660 1.427 . S
N664 C661 1.384 . S
N665 C657 1.427 . S
N665 C663 1.384 . S
H666 C672 0.930 . S
H667 C676 0.930 . S
H668 C681 0.929 . S
H669 C679 0.929 . S
H670 C674 0.929 . S
H671 C680 0.929 . S
C672 H666 0.930 . S
C672 C673 1.367 . S
C672 C680 1.378 . S
C673 C672 1.367 . S
C673 C681 1.433 . S
C674 H670 0.929 . S
C674 C676 1.378 . S
C674 C678 1.350 . S
C675 C678 1.463 . S
C675 C680 1.350 . S
C675 N683 1.427 . S
C676 H667 0.930 . S
C676 C674 1.378 . S
C676 C677 1.367 . S
C677 C676 1.367 . S
C677 C679 1.433 . S
C678 C674 1.350 . S
C678 C675 1.463 . S
C678 N682 1.427 . S
C679 H669 0.929 . S
C679 C677 1.433 . S
C679 N682 1.384 . S
C680 H671 0.929 . S
C680 C672 1.378 . S
C680 C675 1.350 . S
C681 H668 0.929 . S
C681 C673 1.433 . S
C681 N683 1.384 . S
N682 C678 1.427 . S
N682 C679 1.384 . S
N683 C675 1.427 . S
N683 C681 1.384 . S
H684 C690 0.930 . S
H685 C694 0.930 . S
H686 C699 0.929 . S
H687 C697 0.929 . S
H688 C692 0.929 . S
H689 C698 0.929 . S
C690 H684 0.930 . S
C690 C691 1.367 . S
C690 C698 1.378 . S
C691 C690 1.367 . S
C691 C699 1.433 . S
C692 H688 0.929 . S
C692 C694 1.378 . S
C692 C696 1.350 . S
C693 C696 1.463 . S
C693 C698 1.350 . S
C693 N701 1.427 . S
C694 H685 0.930 . S
C694 C692 1.378 . S
C694 C695 1.367 . S
C695 C694 1.367 . S
C695 C697 1.433 . S
C696 C692 1.350 . S
C696 C693 1.463 . S
C696 N700 1.427 . S
C697 H687 0.929 . S
C697 C695 1.433 . S
C697 N700 1.384 . S
C698 H689 0.929 . S
C698 C690 1.378 . S
C698 C693 1.350 . S
C699 H686 0.929 . S
C699 C691 1.433 . S
C699 N701 1.384 . S
N700 C696 1.427 . S
N700 C697 1.384 . S
N701 C693 1.427 . S
N701 C699 1.384 . S
H702 C708 0.930 . S
H703 C712 0.930 . S
H704 C717 0.929 . S
H705 C715 0.929 . S
H706 C710 0.929 . S
H707 C716 0.929 . S
C708 H702 0.930 . S
C708 C709 1.367 . S
C708 C716 1.378 . S
C709 C708 1.367 . S
C709 C717 1.433 . S
C710 H706 0.929 . S
C710 C712 1.378 . S
C710 C714 1.350 . S
C711 C714 1.463 . S
C711 C716 1.350 . S
C711 N719 1.427 . S
C712 H703 0.930 . S
C712 C710 1.378 . S
C712 C713 1.367 . S
C713 C712 1.367 . S
C713 C715 1.433 . S
C714 C710 1.350 . S
C714 C711 1.463 . S
C714 N718 1.427 . S
C715 H705 0.929 . S
C715 C713 1.433 . S
C715 N718 1.384 . S
C716 H707 0.929 . S
C716 C708 1.378 . S
C716 C711 1.350 . S
C717 H704 0.929 . S
C717 C709 1.433 . S
C717 N719 1.384 . S
N718 C714 1.427 . S
N718 C715 1.384 . S
N719 C711 1.427 . S
N719 C717 1.384 . S
H720 C726 0.930 . S
H721 C730 0.930 . S
H722 C735 0.929 . S
H723 C733 0.929 . S
H724 C728 0.929 . S
H725 C734 0.929 . S
C726 H720 0.930 . S
C726 C727 1.367 . S
C726 C734 1.378 . S
C727 C726 1.367 . S
C727 C735 1.433 . S
C728 H724 0.929 . S
C728 C730 1.378 . S
C728 C732 1.350 . S
C729 C732 1.463 . S
C729 C734 1.350 . S
C729 N737 1.427 . S
C730 H721 0.930 . S
C730 C728 1.378 . S
C730 C731 1.367 . S
C731 C730 1.367 . S
C731 C733 1.433 . S
C732 C728 1.350 . S
C732 C729 1.463 . S
C732 N736 1.427 . S
C733 H723 0.929 . S
C733 C731 1.433 . S
C733 N736 1.384 . S
C734 H725 0.929 . S
C734 C726 1.378 . S
C734 C729 1.350 . S
C735 H722 0.929 . S
C735 C727 1.433 . S
C735 N737 1.384 . S
N736 C732 1.427 . S
N736 C733 1.384 . S
N737 C729 1.427 . S
N737 C735 1.384 . S
H738 C744 0.930 1_655 S
H739 C748 0.930 1_455 S
H740 C753 0.929 . S
H741 C751 0.929 . S
H742 C746 0.929 . S
H743 C752 0.929 . S
C744 H738 0.930 1_455 S
C744 C745 1.367 . S
C744 C752 1.378 1_455 S
C745 C744 1.367 . S
C745 C753 1.433 . S
C746 H742 0.929 . S
C746 C748 1.378 1_455 S
C746 C750 1.350 1_455 S
C747 C750 1.463 1_455 S
C747 C752 1.350 1_455 S
C747 N755 1.427 . S
C748 H739 0.930 1_655 S
C748 C746 1.378 1_655 S
C748 C749 1.367 . S
C749 C748 1.367 . S
C749 C751 1.433 . S
C750 C746 1.350 1_655 S
C750 C747 1.463 1_655 S
C750 N754 1.427 . S
C751 H741 0.929 . S
C751 C749 1.433 . S
C751 N754 1.384 . S
C752 H743 0.929 . S
C752 C744 1.378 1_655 S
C752 C747 1.350 1_655 S
C753 H740 0.929 . S
C753 C745 1.433 . S
C753 N755 1.384 . S
N754 C750 1.427 . S
N754 C751 1.384 . S
N755 C747 1.427 . S
N755 C753 1.384 . S
H756 C762 0.930 1_545 S
H757 C766 0.930 1_565 S
H758 C771 0.929 . S
H759 C769 0.929 . S
H760 C764 0.929 . S
H761 C770 0.929 . S
C762 H756 0.930 1_565 S
C762 C763 1.367 . S
C762 C770 1.378 1_565 S
C763 C762 1.367 . S
C763 C771 1.433 . S
C764 H760 0.929 . S
C764 C766 1.378 1_565 S
C764 C768 1.350 1_565 S
C765 C768 1.463 1_565 S
C765 C770 1.350 1_565 S
C765 N773 1.427 . S
C766 H757 0.930 1_545 S
C766 C764 1.378 1_545 S
C766 C767 1.367 . S
C767 C766 1.367 . S
C767 C769 1.433 . S
C768 C764 1.350 1_545 S
C768 C765 1.463 1_545 S
C768 N772 1.427 . S
C769 H759 0.929 . S
C769 C767 1.433 . S
C769 N772 1.384 . S
C770 H761 0.929 . S
C770 C762 1.378 1_545 S
C770 C765 1.350 1_545 S
C771 H758 0.929 . S
C771 C763 1.433 . S
C771 N773 1.384 . S
N772 C768 1.427 . S
N772 C769 1.384 . S
N773 C765 1.427 . S
N773 C771 1.384 . S
H774 C780 0.930 . S
H775 C784 0.930 . S
H776 C789 0.929 . S
H777 C787 0.929 . S
H778 C782 0.929 . S
H779 C788 0.929 . S
C780 H774 0.930 . S
C780 C781 1.367 . S
C780 C788 1.378 . S
C781 C780 1.367 . S
C781 C789 1.433 . S
C782 H778 0.929 . S
C782 C784 1.378 . S
C782 C786 1.350 . S
C783 C786 1.463 . S
C783 C788 1.350 . S
C783 N791 1.427 . S
C784 H775 0.930 . S
C784 C782 1.378 . S
C784 C785 1.367 . S
C785 C784 1.367 . S
C785 C787 1.433 . S
C786 C782 1.350 . S
C786 C783 1.463 . S
C786 N790 1.427 . S
C787 H777 0.929 . S
C787 C785 1.433 . S
C787 N790 1.384 . S
C788 H779 0.929 . S
C788 C780 1.378 . S
C788 C783 1.350 . S
C789 H776 0.929 . S
C789 C781 1.433 . S
C789 N791 1.384 . S
N790 C786 1.427 . S
N790 C787 1.384 . S
N791 C783 1.427 . S
N791 C789 1.384 . S
H792 C798 0.930 . S
H793 C802 0.930 . S
H794 C807 0.929 . S
H795 C805 0.929 . S
H796 C800 0.929 . S
H797 C806 0.929 . S
C798 H792 0.930 . S
C798 C799 1.367 . S
C798 C806 1.378 . S
C799 C798 1.367 . S
C799 C807 1.433 . S
C800 H796 0.929 . S
C800 C802 1.378 . S
C800 C804 1.350 . S
C801 C804 1.463 1_455 S
C801 C806 1.350 . S
C801 N809 1.427 1_455 S
C802 H793 0.930 . S
C802 C800 1.378 . S
C802 C803 1.367 . S
C803 C802 1.367 . S
C803 C805 1.433 . S
C804 C800 1.350 . S
C804 C801 1.463 1_655 S
C804 N808 1.427 1_655 S
C805 H795 0.929 . S
C805 C803 1.433 . S
C805 N808 1.384 1_655 S
C806 H797 0.929 . S
C806 C798 1.378 . S
C806 C801 1.350 . S
C807 H794 0.929 . S
C807 C799 1.433 . S
C807 N809 1.384 1_455 S
N808 C804 1.427 1_455 S
N808 C805 1.384 1_455 S
N809 C801 1.427 1_655 S
N809 C807 1.384 1_655 S
H810 C816 0.930 . S
H811 C820 0.930 . S
H812 C825 0.929 1_545 S
H813 C823 0.929 1_565 S
H814 C818 0.929 . S
H815 C824 0.929 . S
C816 H810 0.930 . S
C816 C817 1.367 . S
C816 C824 1.378 . S
C817 C816 1.367 . S
C817 C825 1.433 . S
C818 H814 0.929 . S
C818 C820 1.378 . S
C818 C822 1.350 . S
C819 C822 1.463 1_565 S
C819 C824 1.350 . S
C819 N827 1.427 1_565 S
C820 H811 0.930 . S
C820 C818 1.378 . S
C820 C821 1.367 . S
C821 C820 1.367 . S
C821 C823 1.433 . S
C822 C818 1.350 . S
C822 C819 1.463 1_545 S
C822 N826 1.427 1_545 S
C823 H813 0.929 1_545 S
C823 C821 1.433 . S
C823 N826 1.384 1_545 S
C824 H815 0.929 . S
C824 C816 1.378 . S
C824 C819 1.350 . S
C825 H812 0.929 1_565 S
C825 C817 1.433 . S
C825 N827 1.384 1_565 S
N826 C822 1.427 1_565 S
N826 C823 1.384 1_565 S
N827 C819 1.427 1_545 S
N827 C825 1.384 1_545 S
H828 C834 0.930 . S
H829 C838 0.930 . S
H830 C843 0.929 . S
H831 C841 0.929 . S
H832 C836 0.929 . S
H833 C842 0.929 . S
C834 H828 0.930 . S
C834 C835 1.367 . S
C834 C842 1.378 1_545 S
C835 C834 1.367 . S
C835 C843 1.433 . S
C836 H832 0.929 . S
C836 C838 1.378 1_545 S
C836 C840 1.350 1_545 S
C837 C840 1.463 1_445 S
C837 C842 1.350 1_545 S
C837 N845 1.427 . S
C838 H829 0.930 . S
C838 C836 1.378 1_565 S
C838 C839 1.367 . S
C839 C838 1.367 . S
C839 C841 1.433 . S
C840 C836 1.350 1_565 S
C840 C837 1.463 1_665 S
C840 N844 1.427 . S
C841 H831 0.929 . S
C841 C839 1.433 . S
C841 N844 1.384 . S
C842 H833 0.929 . S
C842 C834 1.378 1_565 S
C842 C837 1.350 1_565 S
C843 H830 0.929 . S
C843 C835 1.433 . S
C843 N845 1.384 . S
N844 C840 1.427 . S
N844 C841 1.384 . S
N845 C837 1.427 . S
N845 C843 1.384 . S
H846 C852 0.930 . S
H847 C856 0.930 . S
H848 C861 0.929 . S
H849 C859 0.929 . S
H850 C854 0.929 . S
H851 C860 0.929 . S
C852 H846 0.930 . S
C852 C853 1.367 . S
C852 C860 1.378 . S
C853 C852 1.367 . S
C853 C861 1.433 . S
C854 H850 0.929 . S
C854 C856 1.378 . S
C854 C858 1.350 . S
C855 C858 1.463 1_445 S
C855 C860 1.350 . S
C855 N863 1.420 1_455 S
C856 H847 0.930 . S
C856 C854 1.378 . S
C856 C857 1.367 . S
C857 C856 1.367 . S
C857 C859 1.433 . S
C858 C854 1.350 . S
C858 C855 1.463 1_665 S
C858 N862 1.422 1_655 S
C859 H849 0.929 . S
C859 C857 1.433 . S
C859 N862 1.383 1_655 S
C860 H851 0.929 . S
C860 C852 1.378 . S
C860 C855 1.350 . S
C861 H848 0.929 . S
C861 C853 1.433 . S
C861 N863 1.382 1_455 S
N862 C858 1.422 1_455 S
N862 C859 1.383 1_455 S
N863 C855 1.420 1_655 S
N863 C861 1.382 1_655 S
H864 C870 0.930 . S
H865 C874 0.930 . S
H866 C879 0.929 1_455 S
H867 C877 0.929 1_655 S
H868 C872 0.929 . S
H869 C878 0.929 . S
C870 H864 0.930 . S
C870 C871 1.367 . S
C870 C878 1.378 1_545 S
C871 C870 1.367 . S
C871 C879 1.436 . S
C872 H868 0.929 . S
C872 C874 1.378 1_545 S
C872 C876 1.350 1_545 S
C873 C876 1.463 1_645 S
C873 C878 1.350 1_545 S
C873 N881 1.427 1_655 S
C874 H865 0.930 . S
C874 C872 1.378 1_565 S
C874 C875 1.367 . S
C875 C874 1.367 . S
C875 C877 1.433 . S
C876 C872 1.350 1_565 S
C876 C873 1.463 1_465 S
C876 N880 1.427 1_455 S
C877 H867 0.929 1_455 S
C877 C875 1.433 . S
C877 N880 1.384 1_455 S
C878 H869 0.929 . S
C878 C870 1.378 1_565 S
C878 C873 1.350 1_565 S
C879 H866 0.929 1_655 S
C879 C871 1.436 . S
C879 N881 1.381 1_655 S
N880 C876 1.427 1_655 S
N880 C877 1.384 1_655 S
N881 C873 1.427 1_455 S
N881 C879 1.381 1_455 S
H882 C888 0.930 . S
H883 C892 0.930 . S
H884 C897 0.929 . S
H885 C895 0.929 . S
H886 C890 0.929 . S
H887 C896 0.929 . S
C888 H882 0.930 . S
C888 C889 1.367 . S
C888 C896 1.378 . S
C889 C888 1.367 . S
C889 C897 1.433 . S
C890 H886 0.929 . S
C890 C892 1.378 . S
C890 C894 1.350 . S
C891 C894 1.463 1_665 S
C891 C896 1.350 . S
C891 N899 1.427 . S
C892 H883 0.930 . S
C892 C890 1.378 . S
C892 C893 1.367 . S
C893 C892 1.367 . S
C893 C895 1.433 . S
C894 C890 1.350 . S
C894 C891 1.463 1_445 S
C894 N898 1.427 . S
C895 H885 0.929 . S
C895 C893 1.433 . S
C895 N898 1.384 . S
C896 H887 0.929 . S
C896 C888 1.378 . S
C896 C891 1.350 . S
C897 H884 0.929 . S
C897 C889 1.433 . S
C897 N899 1.384 . S
N898 C894 1.427 . S
N898 C895 1.384 . S
N899 C891 1.427 . S
N899 C897 1.384 . S
H900 C906 0.930 . S
H901 C910 0.930 . S
H902 C915 0.929 1_565 S
H903 C913 0.929 1_545 S
H904 C908 0.927 1_655 S
H905 C914 0.930 1_455 S
C906 H900 0.930 . S
C906 C907 1.367 . S
C906 C914 1.376 . S
C907 C906 1.367 . S
C907 C915 1.433 . S
C908 H904 0.927 1_455 S
C908 C910 1.379 . S
C908 C912 1.350 . S
C909 C912 1.463 1_645 S
C909 C914 1.350 . S
C909 N917 1.427 1_545 S
C910 H901 0.930 . S
C910 C908 1.379 . S
C910 C911 1.367 . S
C911 C910 1.367 . S
C911 C913 1.433 . S
C912 C908 1.350 . S
C912 C909 1.463 1_465 S
C912 N916 1.427 1_565 S
C913 H903 0.929 1_565 S
C913 C911 1.433 . S
C913 N916 1.384 1_565 S
C914 H905 0.930 1_655 S
C914 C906 1.376 . S
C914 C909 1.350 . S
C915 H902 0.929 1_545 S
C915 C907 1.433 . S
C915 N917 1.384 1_545 S
N916 C912 1.427 1_545 S
N916 C913 1.384 1_545 S
N917 C909 1.427 1_565 S
N917 C915 1.384 1_565 S
H918 C924 0.930 . S
H919 C928 0.930 . S
H920 C933 0.929 . S
H921 C931 0.929 . S
H922 C926 0.929 . S
H923 C932 0.929 . S
C924 H918 0.930 . S
C924 C925 1.367 . S
C924 C932 1.378 . S
C925 C924 1.367 . S
C925 C933 1.433 . S
C926 H922 0.929 . S
C926 C928 1.378 . S
C926 C930 1.350 . S
C927 C930 1.463 1_445 S
C927 C932 1.350 . S
C927 N935 1.427 . S
C928 H919 0.930 . S
C928 C926 1.378 . S
C928 C929 1.367 . S
C929 C928 1.367 . S
C929 C931 1.433 . S
C930 C926 1.350 . S
C930 C927 1.463 1_665 S
C930 N934 1.427 . S
C931 H921 0.929 . S
C931 C929 1.433 . S
C931 N934 1.384 . S
C932 H923 0.929 . S
C932 C924 1.378 . S
C932 C927 1.350 . S
C933 H920 0.929 . S
C933 C925 1.433 . S
C933 N935 1.384 . S
N934 C930 1.427 . S
N934 C931 1.384 . S
N935 C927 1.427 . S
N935 C933 1.384 . S
C403 N13 1.556 . S
C407 N244 1.562 . S
C421 N46 1.558 . S
C425 N277 1.561 . S
C439 N79 1.551 . S
C443 N310 1.553 . S
C457 N343 1.555 . S
C461 N112 1.563 . S
C475 N376 1.563 . S
C479 N145 1.554 . S
C493 N178 1.562 . S
C497 N211 1.557 . S
C511 C106 1.715 . S
C515 C7 1.715 . S
C529 C40 1.718 . S
C533 C139 1.718 . S
C547 C172 1.717 . S
C551 C73 1.718 . S
C565 C304 1.717 . S
C569 C205 1.717 . S
C583 C337 1.716 . S
C587 C238 1.715 . S
C601 C271 1.717 . S
C605 C370 1.717 . S
C619 N266 1.509 . S
C623 N2 1.496 . S
C637 N35 1.508 . S
C641 N299 1.500 . S
C655 N68 1.507 . S
C659 N332 1.494 . S
C673 N101 1.497 . S
C677 N365 1.501 . S
C691 N134 1.505 . S
C695 N200 1.495 . S
C709 N233 1.506 . S
C713 N167 1.504 . S
C727 C120 1.213 . S
C731 C21 1.216 . S
C745 C54 1.214 . S
C749 C153 1.215 . S
C763 C186 1.215 . S
C767 C87 1.213 . S
C781 C219 1.213 . S
C785 C318 1.215 . S
C799 C252 1.213 . S
C803 C351 1.216 . S
C817 C384 1.214 . S
C821 C285 1.215 . S
C835 C18 1.144 . S
C839 C117 1.143 . S
C853 C51 1.145 . S
C857 C150 1.145 . S
C871 C84 1.140 . S
C875 C183 1.140 . S
C889 C216 1.143 . S
C893 C315 1.143 . S
C907 C348 1.140 . S
C911 C249 1.140 . S
C925 C282 1.143 . S
C929 C381 1.143 . S
