# Generated by pormake.
# Topology wiu, (6)-cn, num edge types: 1
# Building blocks:
#     Node 0, Type 0, BuildingBlock: VOLQOD_clean_sbu_1, # of connection points: 6
#     Node 1, Type 0, BuildingBlock: VOLQOD_clean_sbu_1, # of connection points: 6
#     Node 2, Type 0, BuildingBlock: VOLQOD_clean_sbu_1, # of connection points: 6
#     Node 3, Type 0, BuildingBlock: VOLQOD_clean_sbu_1, # of connection points: 6
#     Node 4, Type 0, BuildingBlock: VOLQOD_clean_sbu_1, # of connection points: 6
#     Node 5, Type 0, BuildingBlock: VOLQOD_clean_sbu_1, # of connection points: 6
#     Node 6, Type 0, BuildingBlock: VOLQOD_clean_sbu_1, # of connection points: 6
#     Node 7, Type 0, BuildingBlock: VOLQOD_clean_sbu_1, # of connection points: 6
#     Node 8, Type 0, BuildingBlock: VOLQOD_clean_sbu_1, # of connection points: 6
#     Node 9, Type 0, BuildingBlock: VOLQOD_clean_sbu_1, # of connection points: 6
#     Node 10, Type 0, BuildingBlock: VOLQOD_clean_sbu_1, # of connection points: 6
#     Node 11, Type 0, BuildingBlock: VOLQOD_clean_sbu_1, # of connection points: 6
#     Node 12, Type 0, BuildingBlock: VOLQOD_clean_sbu_1, # of connection points: 6
#     Node 13, Type 0, BuildingBlock: VOLQOD_clean_sbu_1, # of connection points: 6
#     Node 14, Type 0, BuildingBlock: VOLQOD_clean_sbu_1, # of connection points: 6
#     Node 15, Type 0, BuildingBlock: VOLQOD_clean_sbu_1, # of connection points: 6
#     Edge 16, Type (0, 0), BuildingBlock: KIFKEQ_clean_linker_1, # of connection points: 2
#     Edge 17, Type (0, 0), BuildingBlock: KIFKEQ_clean_linker_1, # of connection points: 2
#     Edge 18, Type (0, 0), BuildingBlock: KIFKEQ_clean_linker_1, # of connection points: 2
#     Edge 19, Type (0, 0), BuildingBlock: KIFKEQ_clean_linker_1, # of connection points: 2
#     Edge 20, Type (0, 0), BuildingBlock: KIFKEQ_clean_linker_1, # of connection points: 2
#     Edge 21, Type (0, 0), BuildingBlock: KIFKEQ_clean_linker_1, # of connection points: 2
#     Edge 22, Type (0, 0), BuildingBlock: KIFKEQ_clean_linker_1, # of connection points: 2
#     Edge 23, Type (0, 0), BuildingBlock: KIFKEQ_clean_linker_1, # of connection points: 2
#     Edge 24, Type (0, 0), BuildingBlock: KIFKEQ_clean_linker_1, # of connection points: 2
#     Edge 25, Type (0, 0), BuildingBlock: KIFKEQ_clean_linker_1, # of connection points: 2
#     Edge 26, Type (0, 0), BuildingBlock: KIFKEQ_clean_linker_1, # of connection points: 2
#     Edge 27, Type (0, 0), BuildingBlock: KIFKEQ_clean_linker_1, # of connection points: 2
#     Edge 28, Type (0, 0), BuildingBlock: KIFKEQ_clean_linker_1, # of connection points: 2
#     Edge 29, Type (0, 0), BuildingBlock: KIFKEQ_clean_linker_1, # of connection points: 2
#     Edge 30, Type (0, 0), BuildingBlock: KIFKEQ_clean_linker_1, # of connection points: 2
#     Edge 31, Type (0, 0), BuildingBlock: KIFKEQ_clean_linker_1, # of connection points: 2
#     Edge 32, Type (0, 0), BuildingBlock: KIFKEQ_clean_linker_1, # of connection points: 2
#     Edge 33, Type (0, 0), BuildingBlock: KIFKEQ_clean_linker_1, # of connection points: 2
#     Edge 34, Type (0, 0), BuildingBlock: KIFKEQ_clean_linker_1, # of connection points: 2
#     Edge 35, Type (0, 0), BuildingBlock: KIFKEQ_clean_linker_1, # of connection points: 2
#     Edge 36, Type (0, 0), BuildingBlock: KIFKEQ_clean_linker_1, # of connection points: 2
#     Edge 37, Type (0, 0), BuildingBlock: KIFKEQ_clean_linker_1, # of connection points: 2
#     Edge 38, Type (0, 0), BuildingBlock: KIFKEQ_clean_linker_1, # of connection points: 2
#     Edge 39, Type (0, 0), BuildingBlock: KIFKEQ_clean_linker_1, # of connection points: 2
#     Edge 40, Type (0, 0), BuildingBlock: KIFKEQ_clean_linker_1, # of connection points: 2
#     Edge 41, Type (0, 0), BuildingBlock: KIFKEQ_clean_linker_1, # of connection points: 2
#     Edge 42, Type (0, 0), BuildingBlock: KIFKEQ_clean_linker_1, # of connection points: 2
#     Edge 43, Type (0, 0), BuildingBlock: KIFKEQ_clean_linker_1, # of connection points: 2
#     Edge 44, Type (0, 0), BuildingBlock: KIFKEQ_clean_linker_1, # of connection points: 2
#     Edge 45, Type (0, 0), BuildingBlock: KIFKEQ_clean_linker_1, # of connection points: 2
#     Edge 46, Type (0, 0), BuildingBlock: KIFKEQ_clean_linker_1, # of connection points: 2
#     Edge 47, Type (0, 0), BuildingBlock: KIFKEQ_clean_linker_1, # of connection points: 2
#     Edge 48, Type (0, 0), BuildingBlock: KIFKEQ_clean_linker_1, # of connection points: 2
#     Edge 49, Type (0, 0), BuildingBlock: KIFKEQ_clean_linker_1, # of connection points: 2
#     Edge 50, Type (0, 0), BuildingBlock: KIFKEQ_clean_linker_1, # of connection points: 2
#     Edge 51, Type (0, 0), BuildingBlock: KIFKEQ_clean_linker_1, # of connection points: 2
#     Edge 52, Type (0, 0), BuildingBlock: KIFKEQ_clean_linker_1, # of connection points: 2
#     Edge 53, Type (0, 0), BuildingBlock: KIFKEQ_clean_linker_1, # of connection points: 2
#     Edge 54, Type (0, 0), BuildingBlock: KIFKEQ_clean_linker_1, # of connection points: 2
#     Edge 55, Type (0, 0), BuildingBlock: KIFKEQ_clean_linker_1, # of connection points: 2
#     Edge 56, Type (0, 0), BuildingBlock: KIFKEQ_clean_linker_1, # of connection points: 2
#     Edge 57, Type (0, 0), BuildingBlock: KIFKEQ_clean_linker_1, # of connection points: 2
#     Edge 58, Type (0, 0), BuildingBlock: KIFKEQ_clean_linker_1, # of connection points: 2
#     Edge 59, Type (0, 0), BuildingBlock: KIFKEQ_clean_linker_1, # of connection points: 2
#     Edge 60, Type (0, 0), BuildingBlock: KIFKEQ_clean_linker_1, # of connection points: 2
#     Edge 61, Type (0, 0), BuildingBlock: KIFKEQ_clean_linker_1, # of connection points: 2
#     Edge 62, Type (0, 0), BuildingBlock: KIFKEQ_clean_linker_1, # of connection points: 2
#     Edge 63, Type (0, 0), BuildingBlock: KIFKEQ_clean_linker_1, # of connection points: 2
# Relax obj value: 0.180
# Max RMSD: 0.175
# Mean RMSD: 0.175
data_MOF--net-wiu--node1-VOLQOD_clean_sbu_1--edge1-KIFKEQ_clean_linker_1
_symmetry_space_group_name_H-M    P1
_symmetry_Int_Tables_number       1
_symmetry_cell_setting            triclinic
loop_
_symmetry_equiv_pos_as_xyz
'x, y, z'
_cell_length_a     33.701982
_cell_length_b     33.677197
_cell_length_c     58.520143
_cell_angle_alpha  89.974764
_cell_angle_beta   90.036487
_cell_angle_gamma 89.987426
loop_
_atom_site_label
_atom_site_type_symbol
_atom_site_fract_x
_atom_site_fract_y
_atom_site_fract_z
_atom_type_partial_charge
O0 O 0.35236 0.20363 0.02978 0.0
Zn1 Zn 0.30187 0.18469 0.04335 0.0
O2 O 0.31086 0.13319 0.05758 0.0
Zn3 Zn 0.29072 0.0886 0.03934 0.0
Zn4 Zn 0.36666 0.12559 0.06381 0.0
Zn5 Zn 0.28315 0.13607 0.08598 0.0
O6 O 0.24666 0.05864 0.05797 0.0
O7 O 0.23325 0.10544 0.08387 0.0
O8 O 0.26224 0.17881 0.01804 0.0
O9 O 0.26026 0.11321 0.01289 0.0
O10 O 0.33847 0.05429 0.02612 0.0
O11 O 0.38828 0.07966 0.04618 0.0
O12 O 0.37776 0.1163 0.09753 0.0
O13 O 0.28536 0.22787 0.06592 0.0
O14 O 0.31577 0.11168 0.11023 0.0
O15 O 0.27211 0.19201 0.09661 0.0
C16 C 0.38803 0.1964 0.03542 0.0
C17 C 0.22433 0.07336 0.07363 0.0
C18 C 0.37559 0.05532 0.03126 0.0
C19 C 0.24994 0.1484 0.00718 0.0
C20 C 0.35293 0.10817 0.1133 0.0
C21 C 0.27486 0.22561 0.08679 0.0
O22 O 0.39727 0.17043 0.05032 0.0
O23 O 0.5276 0.61331 0.28264 0.0
Zn24 Zn 0.55002 0.57282 0.30297 0.0
O25 O 0.59119 0.59775 0.32066 0.0
Zn26 Zn 0.64319 0.58819 0.30682 0.0
Zn27 Zn 0.58066 0.65426 0.3225 0.0
Zn28 Zn 0.58621 0.57356 0.35012 0.0
O29 O 0.67587 0.55148 0.32813 0.0
O30 O 0.63038 0.53474 0.35412 0.0
O31 O 0.57234 0.53216 0.28223 0.0
O32 O 0.63443 0.55392 0.27892 0.0
O33 O 0.6699 0.64166 0.29603 0.0
O34 O 0.62297 0.68497 0.30541 0.0
O35 O 0.58381 0.67319 0.35578 0.0
O36 O 0.50534 0.55038 0.3218 0.0
O37 O 0.59229 0.61516 0.37339 0.0
O38 O 0.53268 0.54818 0.35612 0.0
C39 C 0.51784 0.64884 0.28699 0.0
C40 C 0.66462 0.53035 0.34519 0.0
C41 C 0.65633 0.67734 0.29614 0.0
C42 C 0.60605 0.53143 0.2725 0.0
C43 C 0.58981 0.65279 0.37388 0.0
C44 C 0.50318 0.5421 0.34298 0.0
O45 O 0.5296 0.66649 0.30514 0.0
O46 O 0.17195 0.82205 0.52132 0.0
Zn47 Zn 0.22025 0.83737 0.53826 0.0
O48 O 0.21042 0.8869 0.55437 0.0
Zn49 Zn 0.23294 0.93306 0.53807 0.0
Zn50 Zn 0.15399 0.89535 0.5585 0.0
Zn51 Zn 0.23516 0.87837 0.5836 0.0
O52 O 0.27505 0.96004 0.55921 0.0
O53 O 0.28287 0.91255 0.58552 0.0
O54 O 0.26318 0.84536 0.51535 0.0
O55 O 0.26628 0.91115 0.51166 0.0
O56 O 0.18715 0.97065 0.52513 0.0
O57 O 0.13545 0.94524 0.54342 0.0
O58 O 0.13838 0.8978 0.59211 0.0
O59 O 0.23348 0.7905 0.55895 0.0
O60 O 0.19798 0.89321 0.60823 0.0
O61 O 0.24914 0.8212 0.591 0.0
C62 C 0.13575 0.83031 0.5249 0.0
C63 C 0.29408 0.94474 0.57609 0.0
C64 C 0.14984 0.97088 0.5298 0.0
C65 C 0.2771 0.87622 0.50568 0.0
C66 C 0.16067 0.89796 0.60975 0.0
C67 C 0.24508 0.78927 0.57965 0.0
O68 O 0.12466 0.8545 0.54037 0.0
O69 O 0.97327 0.40602 0.7765 0.0
Zn70 Zn 0.96321 0.45318 0.79548 0.0
O71 O 0.91863 0.43927 0.81449 0.0
Zn72 Zn 0.86841 0.45342 0.79985 0.0
Zn73 Zn 0.91965 0.38303 0.82034 0.0
Zn74 Zn 0.92784 0.4675 0.84209 0.0
O75 O 0.83936 0.4943 0.82061 0.0
O76 O 0.88997 0.51271 0.84301 0.0
O77 O 0.94765 0.49535 0.77339 0.0
O78 O 0.88234 0.4856 0.77169 0.0
O79 O 0.83688 0.40213 0.7891 0.0
O80 O 0.87366 0.35581 0.80568 0.0
O81 O 0.91794 0.3705 0.85428 0.0
O82 O 1.0127 0.46886 0.81339 0.0
O83 O 0.91733 0.43193 0.86831 0.0
O84 O 0.98466 0.48539 0.84621 0.0
C85 C 0.97366 0.36983 0.7825 0.0
C86 C 0.85513 0.51822 0.8351 0.0
C87 C 0.84431 0.36536 0.7932 0.0
C88 C 0.91399 0.50203 0.76428 0.0
C89 C 0.91572 0.39451 0.87108 0.0
C90 C 0.01542 0.48224 0.83372 0.0
O91 O 0.96433 0.359 0.80271 0.0
O92 O 0.66647 0.79664 0.95851 0.0
Zn93 Zn 0.70836 0.819 0.93877 0.0
O94 O 0.68479 0.86017 0.92009 0.0
Zn95 Zn 0.69406 0.91295 0.93318 0.0
Zn96 Zn 0.62848 0.84944 0.91762 0.0
Zn97 Zn 0.70898 0.85431 0.89069 0.0
O98 O 0.73147 0.945 0.91144 0.0
O99 O 0.74674 0.89879 0.88558 0.0
O100 O 0.74757 0.842 0.96052 0.0
O101 O 0.72701 0.90482 0.96173 0.0
O102 O 0.63993 0.9395 0.94344 0.0
O103 O 0.59751 0.89163 0.93423 0.0
O104 O 0.6097 0.8509 0.88453 0.0
O105 O 0.73125 0.77337 0.92021 0.0
O106 O 0.66771 0.85753 0.86684 0.0
O107 O 0.73553 0.80134 0.88606 0.0
C108 C 0.63167 0.78636 0.95285 0.0
C109 C 0.75165 0.93326 0.89409 0.0
C110 C 0.60449 0.9253 0.94329 0.0
C111 C 0.74816 0.87641 0.96953 0.0
C112 C 0.63012 0.85498 0.86635 0.0
C113 C 0.74071 0.77163 0.89916 0.0
O114 O 0.61549 0.79854 0.9344 0.0
O115 O 0.46455 0.42809 0.71088 0.0
Zn116 Zn 0.44209 0.47298 0.69326 0.0
O117 O 0.39367 0.45667 0.67777 0.0
Zn118 Zn 0.3454 0.4745 0.69412 0.0
Zn119 Zn 0.39358 0.39945 0.6747 0.0
Zn120 Zn 0.39801 0.47987 0.64784 0.0
O121 O 0.31451 0.51451 0.67303 0.0
O122 O 0.35709 0.52143 0.6441 0.0
O123 O 0.42959 0.51505 0.7158 0.0
O124 O 0.36424 0.50922 0.72072 0.0
O125 O 0.31288 0.42449 0.70704 0.0
O126 O 0.34792 0.37609 0.69117 0.0
O127 O 0.39103 0.38078 0.64174 0.0
O128 O 0.48598 0.49066 0.6718 0.0
O129 O 0.38868 0.43928 0.62428 0.0
O130 O 0.45229 0.50084 0.63996 0.0
C131 C 0.46177 0.39109 0.7073 0.0
C132 C 0.32527 0.53136 0.65431 0.0
C133 C 0.31937 0.3872 0.70379 0.0
C134 C 0.39775 0.52445 0.72614 0.0
C135 C 0.38819 0.40162 0.62363 0.0
C136 C 0.48485 0.50121 0.65093 0.0
O137 O 0.43907 0.37652 0.69206 0.0
O138 O 0.86483 0.24919 0.46102 0.0
Zn139 Zn 0.82397 0.22733 0.44071 0.0
O140 O 0.849 0.18762 0.42193 0.0
Zn141 Zn 0.83963 0.1344 0.4343 0.0
Zn142 Zn 0.90554 0.19791 0.42028 0.0
Zn143 Zn 0.825 0.1952 0.39252 0.0
O144 O 0.80373 0.10346 0.41177 0.0
O145 O 0.78629 0.15133 0.38731 0.0
O146 O 0.78391 0.20302 0.46123 0.0
O147 O 0.80484 0.14037 0.46226 0.0
O148 O 0.89304 0.10706 0.44472 0.0
O149 O 0.93623 0.155 0.43703 0.0
O150 O 0.9246 0.19541 0.38697 0.0
O151 O 0.80079 0.2733 0.42302 0.0
O152 O 0.86652 0.19007 0.3691 0.0
O153 O 0.79984 0.24946 0.38784 0.0
C154 C 0.90003 0.25971 0.4564 0.0
C155 C 0.78248 0.11614 0.39508 0.0
C156 C 0.92859 0.12087 0.44538 0.0
C157 C 0.78269 0.16825 0.46972 0.0
C158 C 0.90418 0.19117 0.36873 0.0
C159 C 0.79309 0.27757 0.40187 0.0
O160 O 0.91745 0.24862 0.43804 0.0
O161 O 0.07953 0.61218 0.21672 0.0
Zn162 Zn 0.0929 0.5602 0.20274 0.0
O163 O 0.14325 0.56498 0.18664 0.0
Zn164 Zn 0.18861 0.54319 0.20375 0.0
Zn165 Zn 0.15319 0.62014 0.17978 0.0
Zn166 Zn 0.13563 0.53618 0.15879 0.0
O167 O 0.21668 0.49982 0.18395 0.0
O168 O 0.1674 0.48661 0.15955 0.0
O169 O 0.09881 0.52028 0.2278 0.0
O170 O 0.16446 0.51108 0.2299 0.0
O171 O 0.22502 0.58983 0.21686 0.0
O172 O 0.19896 0.64067 0.19791 0.0
O173 O 0.16201 0.62983 0.14591 0.0
O174 O 0.04611 0.54562 0.18182 0.0
O175 O 0.15372 0.56858 0.13266 0.0
O176 O 0.07853 0.52456 0.15136 0.0
C177 C 0.0863 0.64692 0.20918 0.0
C178 C 0.20048 0.47767 0.16871 0.0
C179 C 0.22369 0.62724 0.21239 0.0
C180 C 0.12916 0.50411 0.23684 0.0
C181 C 0.16163 0.60503 0.12945 0.0
C182 C 0.04601 0.53134 0.16164 0.0
O183 O 0.10941 0.65318 0.19233 0.0
O184 O 0.86522 0.70546 0.52612 0.0
Zn185 Zn 0.81629 0.68924 0.54208 0.0
O186 O 0.82527 0.63802 0.55665 0.0
Zn187 Zn 0.80402 0.59377 0.53836 0.0
Zn188 Zn 0.88142 0.62899 0.56156 0.0
Zn189 Zn 0.79859 0.64316 0.58548 0.0
O190 O 0.76061 0.56487 0.55729 0.0
O191 O 0.75106 0.60843 0.58557 0.0
O192 O 0.77428 0.68354 0.51834 0.0
O193 O 0.77247 0.61827 0.51208 0.0
O194 O 0.85021 0.55682 0.52577 0.0
O195 O 0.90037 0.57898 0.54673 0.0
O196 O 0.89546 0.62628 0.59535 0.0
O197 O 0.80202 0.73414 0.56401 0.0
O198 O 0.83484 0.62749 0.61041 0.0
O199 O 0.78321 0.69917 0.594 0.0
C200 C 0.90119 0.69573 0.52925 0.0
C201 C 0.74085 0.57755 0.57453 0.0
C202 C 0.8868 0.55494 0.53191 0.0
C203 C 0.76138 0.65366 0.50728 0.0
C204 C 0.87224 0.62426 0.61253 0.0
C205 C 0.78824 0.73253 0.58425 0.0
O206 O 0.91173 0.66976 0.54388 0.0
O207 O 0.04464 0.11442 0.7698 0.0
Zn208 Zn 0.05914 0.07014 0.79025 0.0
O209 O 0.10318 0.08791 0.80913 0.0
Zn210 Zn 0.15435 0.07147 0.79621 0.0
Zn211 Zn 0.10314 0.14509 0.81243 0.0
Zn212 Zn 0.0927 0.06381 0.83807 0.0
O213 O 0.18134 0.03194 0.81874 0.0
O214 O 0.13045 0.01909 0.84206 0.0
O215 O 0.07697 0.02727 0.76913 0.0
O216 O 0.14224 0.03766 0.76841 0.0
O217 O 0.18809 0.12101 0.78524 0.0
O218 O 0.15268 0.16994 0.80024 0.0
O219 O 0.09975 0.16255 0.8458 0.0
O220 O 1.00995 0.05325 0.80816 0.0
O221 O 0.10176 0.10319 0.86251 0.0
O222 O 0.03606 0.04532 0.8425 0.0
C223 C 0.0476 0.15166 0.77248 0.0
C224 C 0.16504 1.01113 0.83455 0.0
C225 C 0.18253 0.15823 0.78885 0.0
C226 C 0.11115 0.02057 0.7607 0.0
C227 C 0.10196 0.14087 0.86367 0.0
C228 C 1.00623 0.044 0.82918 0.0
O229 O 0.06381 0.16722 0.79008 0.0
O230 O 0.66279 0.33285 0.03452 0.0
Zn231 Zn 0.71282 0.35025 0.04927 0.0
O232 O 0.70414 0.40103 0.06454 0.0
Zn233 Zn 0.7248 0.4464 0.0471 0.0
Zn234 Zn 0.64806 0.40944 0.06997 0.0
Zn235 Zn 0.73161 0.39557 0.09308 0.0
O236 O 0.76815 0.47579 0.06639 0.0
O237 O 0.7791 0.43025 0.09343 0.0
O238 O 0.7534 0.35731 0.02476 0.0
O239 O 0.75603 0.42309 0.02075 0.0
O240 O 0.6778 0.48119 0.03364 0.0
O241 O 0.62744 0.45763 0.05391 0.0
O242 O 0.63522 0.41334 0.10373 0.0
O243 O 0.72884 0.30526 0.07075 0.0
O244 O 0.69614 0.41077 0.11828 0.0
O245 O 0.74682 0.33957 0.10116 0.0
C246 C 0.62697 0.34123 0.0392 0.0
C247 C 0.78865 0.46212 0.08315 0.0
C248 C 0.64078 0.48147 0.03892 0.0
C249 C 0.76637 0.38816 0.01463 0.0
C250 C 0.65889 0.41461 0.12072 0.0
C251 C 0.74232 0.30648 0.09106 0.0
O252 O 0.61746 0.36695 0.05415 0.0
O253 O 0.50428 0.91268 0.27673 0.0
Zn254 Zn 0.48284 0.95554 0.29583 0.0
O255 O 0.4424 0.93247 0.31517 0.0
Zn256 Zn 0.38925 0.94219 0.30284 0.0
Zn257 Zn 0.45141 0.87567 0.31819 0.0
Zn258 Zn 0.45001 0.95796 0.34413 0.0
O259 O 0.35803 0.97794 0.32527 0.0
O260 O 0.40617 0.99663 0.34918 0.0
O261 O 0.45929 0.99391 0.27379 0.0
O262 O 0.39546 0.97684 0.27492 0.0
O263 O 0.36187 0.88886 0.29255 0.0
O264 O 0.40776 0.84464 0.30229 0.0
O265 O 0.4492 0.85873 0.35189 0.0
O266 O 0.52879 0.97984 0.31326 0.0
O267 O 0.44527 0.918 0.36846 0.0
O268 O 0.504 0.98325 0.34818 0.0
C269 C 0.51345 0.87734 0.28201 0.0
C270 C 0.37076 0.99968 0.34171 0.0
C271 C 0.37441 0.85283 0.29314 0.0
C272 C 0.42398 0.99669 0.26626 0.0
C273 C 0.44578 0.88037 0.3697 0.0
C274 C 0.53247 0.98896 0.33428 0.0
O275 O 0.50159 0.86129 0.30062 0.0
O276 O 0.16648 0.27264 0.46583 0.0
Zn277 Zn 0.21005 0.29232 0.44674 0.0
O278 O 0.1891 0.33521 0.42861 0.0
Zn279 Zn 0.1999 0.3865 0.4431 0.0
Zn280 Zn 0.13242 0.32757 0.42458 0.0
Zn281 Zn 0.21589 0.32963 0.40005 0.0
O282 O 0.23685 0.41922 0.42206 0.0
O283 O 0.25543 0.37306 0.39688 0.0
O284 O 0.25056 0.31222 0.46845 0.0
O285 O 0.23409 0.37609 0.47103 0.0
O286 O 0.14686 0.41445 0.45333 0.0
O287 O 0.10214 0.37097 0.44103 0.0
O288 O 0.1169 0.33162 0.39059 0.0
O289 O 0.23163 0.24651 0.4282 0.0
O290 O 0.17711 0.33713 0.37546 0.0
O291 O 0.24005 0.27541 0.39463 0.0
C292 C 0.13106 0.26474 0.46015 0.0
C293 C 0.25886 0.40766 0.40547 0.0
C294 C 0.11059 0.40308 0.4515 0.0
C295 C 0.25411 0.3461 0.47782 0.0
C296 C 0.13963 0.33661 0.37335 0.0
C297 C 0.24272 0.24495 0.40743 0.0
O298 O 0.11622 0.27699 0.44128 0.0
O299 O 0.94245 0.9159 0.21154 0.0
Zn300 Zn 0.9295 0.96803 0.19773 0.0
O301 O 0.87774 0.96383 0.18328 0.0
Zn302 Zn 0.83507 0.98487 0.20262 0.0
Zn303 Zn 0.86617 0.90904 0.17589 0.0
Zn304 Zn 0.88307 0.99412 0.15577 0.0
O305 O 0.80527 0.02945 0.18474 0.0
O306 O 0.85083 0.0431 0.15812 0.0
O307 O 0.92691 1.00835 0.22282 0.0
O308 O 0.86188 0.01482 0.22869 0.0
O309 O 0.79955 0.9381 0.21575 0.0
O310 O 0.81884 0.88887 0.19315 0.0
O311 O 0.85793 0.90063 0.14178 0.0
O312 O 0.97449 0.98177 0.17548 0.0
O313 O 0.8636 0.96284 0.12956 0.0
O314 O 0.93946 1.00673 0.14699 0.0
C315 C 0.93367 0.88103 0.20492 0.0
C316 C 0.8192 0.05179 0.16887 0.0
C317 C 0.79705 0.90168 0.20931 0.0
C318 C 0.89784 0.02309 0.23385 0.0
C319 C 0.85678 0.92634 0.12578 0.0
C320 C 0.97284 0.99811 0.15585 0.0
O321 O 0.90897 0.87477 0.18881 0.0
O322 O 0.35613 0.73341 0.9618 0.0
Zn323 Zn 0.31205 0.71339 0.94289 0.0
O324 O 0.33302 0.6713 0.92403 0.0
Zn325 Zn 0.32419 0.61918 0.93789 0.0
Zn326 Zn 0.38924 0.68107 0.91988 0.0
Zn327 Zn 0.30589 0.67679 0.89554 0.0
O328 O 0.28769 0.58553 0.9166 0.0
O329 O 0.26908 0.63142 0.89122 0.0
O330 O 0.27291 0.6919 0.96521 0.0
O331 O 0.29096 0.62829 0.96612 0.0
O332 O 0.37837 0.5938 0.94862 0.0
O333 O 0.42109 0.63959 0.93675 0.0
O334 O 0.40478 0.6785 0.88614 0.0
O335 O 0.28981 0.75958 0.92443 0.0
O336 O 0.34477 0.67403 0.87056 0.0
O337 O 0.27844 0.7294 0.89146 0.0
C338 C 0.39045 0.74337 0.9551 0.0
C339 C 0.26623 0.59663 0.89961 0.0
C340 C 0.414 0.60724 0.9473 0.0
C341 C 0.27096 0.65739 0.97404 0.0
C342 C 0.38226 0.67542 0.86869 0.0
C343 C 0.27672 0.76021 0.904 0.0
O344 O 0.404 0.73243 0.93572 0.0
O345 O 0.57904 0.11805 0.70767 0.0
Zn346 Zn 0.59179 0.06678 0.69278 0.0
O347 O 0.64294 0.0715 0.6777 0.0
Zn348 Zn 0.68638 0.05082 0.69638 0.0
Zn349 Zn 0.65433 0.12649 0.67082 0.0
Zn350 Zn 0.63701 0.04162 0.65011 0.0
O351 O 0.71734 1.00774 0.67783 0.0
O352 O 0.67144 0.99388 0.65144 0.0
O353 O 0.5956 0.02549 0.71722 0.0
O354 O 0.66091 0.01938 0.72204 0.0
O355 O 0.71951 0.09829 0.71034 0.0
O356 O 0.70381 0.1463 0.686 0.0
O357 O 0.65826 0.13646 0.63678 0.0
O358 O 0.54642 0.05297 0.67113 0.0
O359 O 0.65335 0.07463 0.62377 0.0
O360 O 0.58061 0.02626 0.64281 0.0
C361 C 0.58971 0.1531 0.70253 0.0
C362 C 0.70361 0.9856 0.6618 0.0
C363 C 0.72344 0.13417 0.70321 0.0
C364 C 0.62531 1.01054 0.72758 0.0
C365 C 0.65882 0.11151 0.62038 0.0
C366 C 0.54754 0.0351 0.65195 0.0
O367 O 0.61458 0.16043 0.6867 0.0
H368 H 0.39576 0.27596 0.03417 0.0
H369 H 0.45082 0.16673 0.01254 0.0
H370 H 0.4553 0.31235 0.02427 0.0
H371 H 0.50967 0.20326 0.00044 0.0
H372 H 0.61926 0.26202 0.03439 0.0
H373 H 0.55988 0.22709 0.02263 0.0
H374 H 0.50574 0.33904 0.00338 0.0
H375 H 0.56441 0.37385 0.01732 0.0
C376 C 0.42031 0.26015 0.02641 0.0
C377 C 0.41974 0.21883 0.02466 0.0
C378 C 0.4544 0.28095 0.0204 0.0
C379 C 0.48799 0.26062 0.01204 0.0
C380 C 0.48504 0.21965 0.00764 0.0
C381 C 0.45145 0.19874 0.01444 0.0
C382 C 0.5948 0.27884 0.02723 0.0
C383 C 0.59537 0.3203 0.02732 0.0
C384 C 0.5608 0.25891 0.02016 0.0
C385 C 0.52731 0.28031 0.01256 0.0
C386 C 0.53029 0.32173 0.00997 0.0
C387 C 0.56378 0.34168 0.01783 0.0
H388 H 0.5508 0.65128 0.24527 0.0
H389 H 0.45726 0.70243 0.2861 0.0
H390 H 0.553 0.7111 0.22195 0.0
H391 H 0.45699 0.76063 0.26152 0.0
H392 H 0.47796 0.86982 0.24122 0.0
H393 H 0.47479 0.80718 0.22058 0.0
H394 H 0.5742 0.76368 0.2598 0.0
H395 H 0.57497 0.82482 0.28184 0.0
C396 C 0.52864 0.67407 0.24814 0.0
C397 C 0.50477 0.67336 0.26784 0.0
C398 C 0.52961 0.70801 0.23453 0.0
C399 C 0.50602 0.74064 0.2404 0.0
C400 C 0.47581 0.73583 0.25682 0.0
C401 C 0.47617 0.70281 0.27113 0.0
C402 C 0.50062 0.84768 0.24449 0.0
C403 C 0.52583 0.85106 0.26354 0.0
C404 C 0.49907 0.8121 0.23238 0.0
C405 C 0.52337 0.78049 0.23913 0.0
C406 C 0.55479 0.78766 0.25449 0.0
C407 C 0.55505 0.82241 0.26737 0.0
H408 H 0.07626 0.86394 0.50063 0.0
H409 H 0.12849 0.75149 0.51894 0.0
H410 H 0.01807 0.82983 0.48551 0.0
H411 H 0.06954 0.71735 0.50621 0.0
H412 H 0.95941 0.66045 0.50484 0.0
H413 H 0.01638 0.69314 0.48735 0.0
H414 H 0.96782 0.80721 0.50745 0.0
H415 H 0.9099 0.77434 0.52262 0.0
C416 C 0.07523 0.83178 0.50109 0.0
C417 C 0.10561 0.81003 0.51153 0.0
C418 C 0.04201 0.8122 0.49254 0.0
C419 C 0.03793 0.77096 0.49567 0.0
C420 C 0.07096 0.74909 0.50353 0.0
C421 C 0.10477 0.7686 0.5112 0.0
C422 C 0.96088 0.6926 0.50481 0.0
C423 C 0.93158 0.71519 0.51566 0.0
C424 C 0.99336 0.71137 0.49485 0.0
C425 C 0.99788 0.75278 0.49683 0.0
C426 C 0.96596 0.77533 0.5055 0.0
C427 C 0.93283 0.75658 0.51462 0.0
H428 H 0.09082 0.21158 0.75527 0.0
H429 H 0.9812 0.14777 0.74553 0.0
H430 H 0.06602 0.2657 0.73243 0.0
H431 H 0.95543 0.20305 0.72274 0.0
H432 H 0.9319 0.302 0.78031 0.0
H433 H 0.94035 0.24822 0.75384 0.0
H434 H 0.0264 0.31747 0.71601 0.0
H435 H 0.01702 0.37233 0.74297 0.0
C436 C 0.06152 0.20902 0.74774 0.0
C437 C 0.03632 0.17765 0.75362 0.0
C438 C 0.0475 0.23958 0.73403 0.0
C439 C 1.00712 0.24029 0.7279 0.0
C440 C 0.98589 0.20424 0.72862 0.0
C441 C 1.00013 0.17308 0.74213 0.0
C442 C 0.95249 0.3058 0.76625 0.0
C443 C 0.97631 0.33969 0.76461 0.0
C444 C 0.9565 0.27539 0.75049 0.0
C445 C 0.98589 0.2776 0.73342 0.0
C446 C 1.00456 0.31439 0.72947 0.0
C447 C 1.00001 0.3453 0.74517 0.0
H448 H 0.61305 0.82083 0.99269 0.0
H449 H 0.59095 0.71698 0.9515 0.0
H450 H 0.55002 0.81081 0.01241 0.0
H451 H 0.52945 0.70531 0.97224 0.0
H452 H 0.41283 0.70243 0.99216 0.0
H453 H 0.47759 0.70875 0.01057 0.0
H454 H 0.49661 0.81938 0.97489 0.0
H455 H 0.43321 0.81158 0.95541 0.0
C456 C 0.59601 0.79427 0.98906 0.0
C457 C 0.60582 0.77001 0.97039 0.0
C458 C 0.56026 0.78839 0.00052 0.0
C459 C 0.5349 0.75775 0.99356 0.0
C460 C 0.54867 0.72917 0.97791 0.0
C461 C 0.58359 0.73594 0.96585 0.0
C462 C 0.43005 0.72916 0.98929 0.0
C463 C 0.41897 0.75629 0.97221 0.0
C464 C 0.46678 0.73289 1e-05 0.0
C465 C 0.49192 0.76428 0.99397 0.0
C466 C 0.47749 0.79502 0.97993 0.0
C467 C 0.4415 0.79048 0.96856 0.0
H468 H 0.51342 0.16642 0.71455 0.0
H469 H 0.63207 0.21305 0.72095 0.0
H470 H 0.48661 0.22781 0.72954 0.0
H471 H 0.60588 0.27381 0.73785 0.0
H472 H 0.54097 0.38284 0.70536 0.0
H473 H 0.57746 0.32464 0.71746 0.0
H474 H 0.47302 0.28125 0.75273 0.0
H475 H 0.43596 0.33865 0.73876 0.0
C476 C 0.53371 0.18954 0.71997 0.0
C477 C 0.57436 0.18623 0.71581 0.0
C478 C 0.51854 0.22463 0.72896 0.0
C479 C 0.54408 0.25651 0.73434 0.0
C480 C 0.58531 0.25054 0.73308 0.0
C481 C 0.60031 0.21595 0.72337 0.0
C482 C 0.52644 0.36135 0.71632 0.0
C483 C 0.48584 0.364 0.72069 0.0
C484 C 0.54734 0.32803 0.72355 0.0
C485 C 0.52773 0.2973 0.73542 0.0
C486 C 0.48853 0.30356 0.74284 0.0
C487 C 0.46736 0.33634 0.73499 0.0
H488 H 0.07728 0.20444 0.46048 0.0
H489 H 0.12238 0.30259 0.50011 0.0
H490 H 0.01593 0.20633 0.48228 0.0
H491 H 0.05961 0.30674 0.52059 0.0
H492 H 0.95194 0.32169 0.45662 0.0
H493 H 1.01084 0.32357 0.48058 0.0
H494 H 0.965 0.22663 0.52094 0.0
H495 H 0.90445 0.22716 0.49823 0.0
C496 C 0.07478 0.22491 0.47469 0.0
C497 C 0.10365 0.25393 0.47837 0.0
C498 C 0.03993 0.22583 0.48743 0.0
C499 C 0.03291 0.25752 0.50262 0.0
C500 C 0.06447 0.28213 0.50901 0.0
C501 C 0.10011 0.28 0.49702 0.0
C502 C 0.95325 0.3029 0.47164 0.0
C503 C 0.92469 0.27354 0.47529 0.0
C504 C 0.98668 0.30419 0.4856 0.0
C505 C 0.99274 0.27416 0.50201 0.0
C506 C 0.96091 0.24986 0.50833 0.0
C507 C 0.92657 0.24987 0.49506 0.0
H508 H 0.01853 0.64653 0.23473 0.0
H509 H 0.11001 0.72368 0.20806 0.0
H510 H 0.97972 0.70465 0.24596 0.0
H511 H 0.0714 0.78125 0.21904 0.0
H512 H 0.99803 0.88156 0.23334 0.0
H513 H 0.03494 0.8238 0.24692 0.0
H514 H 0.94825 0.74647 0.21558 0.0
H515 H 0.91132 0.80371 0.20229 0.0
C516 C 0.03075 0.67585 0.23182 0.0
C517 C 0.06644 0.68087 0.2198 0.0
C518 C 1.00872 0.70897 0.23837 0.0
C519 C 0.02239 0.74727 0.23309 0.0
C520 C 0.0602 0.75208 0.22344 0.0
C521 C 0.08198 0.71911 0.21674 0.0
C522 C 0.98644 0.85219 0.22982 0.0
C523 C 0.95267 0.84695 0.21606 0.0
C524 C 1.00736 0.81927 0.23776 0.0
C525 C 0.9946 0.78085 0.2321 0.0
C526 C 0.95863 0.77576 0.22036 0.0
C527 C 0.93789 0.80857 0.21234 0.0
H528 H 0.3702 0.01611 0.9894 0.0
H529 H 0.45243 0.04205 0.04394 0.0
H530 H 0.42461 0.9867 0.96722 0.0
H531 H 0.50607 1.01264 0.02217 0.0
H532 H 0.60446 0.99388 0.96983 0.0
H533 H 0.54847 0.0238 0.99023 0.0
H534 H 0.47074 0.93287 0.9638 0.0
H535 H 0.52603 0.90372 0.94321 0.0
C536 C 0.39957 0.01495 -0.00312 0.0
C537 C 0.4065 0.03165 0.01857 0.0
C538 C 0.43101 0.99818 0.9841 0.0
C539 C 0.47036 0.99767 0.9926 0.0
C540 C 0.47676 1.01323 0.0146 0.0
C541 C 0.44556 0.02981 0.02728 0.0
C542 C 0.57539 0.98051 0.96817 0.0
C543 C 0.57026 0.94623 0.95474 0.0
C544 C 0.54312 0.99748 0.98008 0.0
C545 C 0.5046 0.9808 0.97893 0.0
C546 C 0.49947 0.94708 0.96507 0.0
C547 C 0.5316 0.93014 0.95326 0.0
H548 H 0.63542 0.75618 0.29458 0.0
H549 H 0.72611 0.67557 0.27091 0.0
H550 H 0.66716 0.81058 0.27424 0.0
H551 H 0.75837 0.73047 0.25073 0.0
H552 H 0.782 0.82496 0.1967 0.0
H553 H 0.74949 0.77256 0.21803 0.0
H554 H 0.72373 0.85517 0.27238 0.0
H555 H 0.75652 0.90837 0.25072 0.0
C556 C 0.66243 0.74995 0.28523 0.0
C557 C 0.67802 0.71098 0.28454 0.0
C558 C 0.68083 0.78151 0.27357 0.0
C559 C 0.7155 0.77541 0.26064 0.0
C560 C 0.73144 0.73655 0.26018 0.0
C561 C 0.71306 0.7049 0.27194 0.0
C562 C 0.76924 0.83239 0.21313 0.0
C563 C 0.77218 0.87141 0.22183 0.0
C564 C 0.7508 0.80189 0.22555 0.0
C565 C 0.73428 0.80898 0.24724 0.0
C566 C 0.73593 0.84829 0.25573 0.0
C567 C 0.75469 0.87901 0.24326 0.0
H568 H 0.15862 0.0169 0.49033 0.0
H569 H 0.07308 0.98532 0.54208 0.0
H570 H 0.1063 0.05234 0.46925 0.0
H571 H 0.02161 0.02038 0.52137 0.0
H572 H 0.9266 0.04867 0.4683 0.0
H573 H 0.98099 0.01472 0.48799 0.0
H574 H 0.06114 0.10873 0.46849 0.0
H575 H 1.00718 0.14222 0.44862 0.0
C576 C 0.129 0.01799 0.49746 0.0
C577 C 0.1205 0.99791 0.51801 0.0
C578 C 0.09878 0.03824 0.4853 0.0
C579 C 0.05911 0.03885 0.49327 0.0
C580 C 0.05121 0.01992 0.5142 0.0
C581 C 0.08118 0.99999 0.52629 0.0
C582 C 0.95582 0.06202 0.46806 0.0
C583 C 0.96201 0.09836 0.45671 0.0
C584 C 0.98719 0.04265 0.47954 0.0
C585 C 0.02592 0.05885 0.48008 0.0
C586 C 0.03217 0.09485 0.46838 0.0
C587 C 1.00086 0.11425 0.457 0.0
H588 H 0.8516 0.28586 0.8016 0.0
H589 H 0.78841 0.36778 0.75803 0.0
H590 H 0.82502 0.23033 0.78036 0.0
H591 H 0.76022 0.31145 0.73702 0.0
H592 H 0.74989 0.20638 0.68815 0.0
H593 H 0.7761 0.26147 0.7103 0.0
H594 H 0.77135 0.18935 0.77128 0.0
H595 H 0.74595 0.13365 0.74879 0.0
C596 C 0.83136 0.29221 0.78769 0.0
C597 C 0.82235 0.33186 0.78169 0.0
C598 C 0.81583 0.25993 0.77546 0.0
C599 C 0.79039 0.26573 0.75668 0.0
C600 C 0.78025 0.30538 0.75105 0.0
C601 C 0.79601 0.33792 0.76333 0.0
C602 C 0.75499 0.2019 0.70625 0.0
C603 C 0.74594 0.16507 0.71652 0.0
C604 C 0.76957 0.23397 0.71911 0.0
C605 C 0.77554 0.23069 0.74285 0.0
C606 C 0.76763 0.1934 0.75306 0.0
C607 C 0.75316 0.16112 0.74011 0.0
H608 H 0.25404 0.39121 0.73354 0.0
H609 H 0.33478 0.30779 0.7023 0.0
H610 H 0.2221 0.33599 0.75391 0.0
H611 H 0.30497 0.25409 0.72309 0.0
H612 H 0.22458 0.15505 0.74834 0.0
H613 H 0.25418 0.21031 0.72744 0.0
H614 H 0.22556 0.28939 0.7832 0.0
H615 H 0.19449 0.23444 0.8034 0.0
C616 C 0.26501 0.36134 0.73093 0.0
C617 C 0.29701 0.35455 0.71598 0.0
C618 C 0.24695 0.32943 0.74284 0.0
C619 C 0.26059 0.28978 0.74035 0.0
C620 C 0.29251 0.28344 0.72534 0.0
C621 C 0.31003 0.31489 0.71337 0.0
C622 C 0.22532 0.18405 0.75631 0.0
C623 C 0.20736 0.18989 0.77772 0.0
C624 C 0.24228 0.21615 0.74427 0.0
C625 C 0.24245 0.25518 0.75335 0.0
C626 C 0.22551 0.26048 0.77514 0.0
C627 C 0.20812 0.22857 0.78699 0.0
H628 H 0.31321 0.85668 0.26169 0.0
H629 H 0.38402 0.77248 0.29939 0.0
H630 H 0.27955 0.80219 0.24243 0.0
H631 H 0.34903 0.71781 0.28123 0.0
H632 H 0.30001 0.62329 0.23146 0.0
H633 H 0.33655 0.67703 0.25054 0.0
H634 H 0.23402 0.75332 0.24369 0.0
H635 H 0.19932 0.70113 0.22379 0.0
C636 C 0.32113 0.82652 0.26622 0.0
C637 C 0.3513 0.81941 0.28232 0.0
C638 C 0.30157 0.79483 0.2552 0.0
C639 C 0.31084 0.75467 0.26015 0.0
C640 C 0.34096 0.74777 0.27643 0.0
C641 C 0.36093 0.77945 0.28715 0.0
C642 C 0.28548 0.65161 0.23407 0.0
C643 C 0.24681 0.65775 0.22571 0.0
C644 C 0.30637 0.68267 0.24515 0.0
C645 C 0.28891 0.72058 0.24862 0.0
C646 C 0.24966 0.72571 0.24087 0.0
C647 C 0.22934 0.69523 0.22951 0.0
H648 H 0.03094 0.38551 0.45087 0.0
H649 H 0.11339 0.47227 0.47722 0.0
H650 H 0.97644 0.41943 0.46986 0.0
H651 H 0.05845 0.50684 0.49594 0.0
H652 H 0.96124 0.53616 0.54682 0.0
H653 H 0.01357 0.50056 0.52717 0.0
H654 H 0.93411 0.47729 0.47088 0.0
H655 H 0.88095 0.51305 0.49091 0.0
C656 C 0.03759 0.41211 0.46054 0.0
C657 C 0.07707 0.42594 0.46239 0.0
C658 C 1.00598 0.43179 0.47141 0.0
C659 C 1.01253 0.46607 0.48464 0.0
C660 C 0.05196 0.48024 0.48625 0.0
C661 C 0.08365 0.46053 0.47533 0.0
C662 C 0.9545 0.52326 0.53031 0.0
C663 C 0.91642 0.5278 0.52056 0.0
C664 C 0.98496 0.50303 0.51886 0.0
C665 C 0.9788 0.48637 0.49711 0.0
C666 C 0.94028 0.48952 0.48761 0.0
C667 C 0.90956 0.50998 0.49915 0.0
H668 H 0.56455 0.49796 0.05155 0.0
H669 H 0.64708 0.51812 -0.00359 0.0
H670 H 0.51142 0.52684 0.02901 0.0
H671 H 0.59326 0.54697 0.9735 0.0
H672 H 0.49259 0.62867 0.94681 0.0
H673 H 0.54762 0.60114 0.96849 0.0
H674 H 0.46927 0.51293 -0.00275 0.0
H675 H 0.41364 0.54119 0.97577 0.0
C676 C 0.5716 0.5089 0.03462 0.0
C677 C 0.61055 0.50554 0.02595 0.0
C678 C 0.54073 0.52515 0.0215 0.0
C679 C 0.54738 0.53879 -0.00089 0.0
C680 C 0.58668 0.53696 0.99066 0.0
C681 C 0.61779 0.52055 0.00387 0.0
C682 C 0.48688 0.60316 0.95759 0.0
C683 C 0.44817 0.5873 0.95938 0.0
C684 C 0.51881 0.58718 0.97004 0.0
C685 C 0.51338 0.55474 0.98487 0.0
C686 C 0.47482 0.53832 0.98635 0.0
C687 C 0.44277 0.55431 0.97382 0.0
H688 H 0.24603 0.23131 0.13038 0.0
H689 H 0.28703 0.30345 0.07408 0.0
H690 H 0.23405 0.29096 0.15282 0.0
H691 H 0.27467 0.36338 0.09665 0.0
H692 H 0.27465 0.46311 0.15076 0.0
H693 H 0.29639 0.40139 0.1319 0.0
H694 H 0.18584 0.34551 0.1508 0.0
H695 H 0.16452 0.4066 0.16928 0.0
C696 C 0.25249 0.25987 0.12273 0.0
C697 C 0.26717 0.26242 0.10027 0.0
C698 C 0.2456 0.29415 0.13565 0.0
C699 C 0.2534 0.33203 0.12658 0.0
C700 C 0.26878 0.33467 0.10427 0.0
C701 C 0.27543 0.3003 0.09124 0.0
C702 C 0.2557 0.43717 0.15138 0.0
C703 C 0.21814 0.43937 0.16168 0.0
C704 C 0.26781 0.40206 0.14034 0.0
C705 C 0.24278 0.36849 0.13976 0.0
C706 C 0.20608 0.37048 0.15108 0.0
C707 C 0.19384 0.4055 0.16171 0.0
H708 H 0.43359 0.52834 0.32026 0.0
H709 H 0.48694 0.52044 0.3873 0.0
H710 H 0.37185 0.50198 0.33552 0.0
H711 H 0.42512 0.49326 0.40247 0.0
H712 H 0.29675 0.47113 0.42586 0.0
H713 H 0.35427 0.50776 0.41101 0.0
H714 H 0.3501 0.4379 0.34917 0.0
H715 H 0.29304 0.40219 0.36366 0.0
C716 C 0.43225 0.5209 0.33826 0.0
C717 C 0.46549 0.52616 0.35247 0.0
C718 C 0.39678 0.50573 0.34701 0.0
C719 C 0.39353 0.49531 0.37021 0.0
C720 C 0.42645 0.50137 0.38458 0.0
C721 C 0.46203 0.51659 0.37581 0.0
C722 C 0.30779 0.4642 0.40895 0.0
C723 C 0.29039 0.43366 0.396 0.0
C724 C 0.34093 0.48487 0.40053 0.0
C725 C 0.35688 0.47569 0.37891 0.0
C726 C 0.33843 0.44613 0.36575 0.0
C727 C 0.30576 0.42542 0.37417 0.0
H728 H 0.27377 0.77518 0.62289 0.0
H729 H 0.23179 0.71456 0.56252 0.0
H730 H 0.2855 0.71138 0.64146 0.0
H731 H 0.24243 0.65087 0.58129 0.0
H732 H 0.31968 0.54927 0.60939 0.0
H733 H 0.29644 0.61031 0.59211 0.0
H734 H 0.25705 0.65186 0.65816 0.0
H735 H 0.2816 0.5902 0.6757 0.0
C736 C 0.26684 0.74828 0.61358 0.0
C737 C 0.25228 0.7502 0.59103 0.0
C738 C 0.27315 0.71158 0.62437 0.0
C739 C 0.26499 0.6757 0.61296 0.0
C740 C 0.24969 0.67772 0.59056 0.0
C741 C 0.24354 0.71438 0.57975 0.0
C742 C 0.30536 0.57104 0.62025 0.0
C743 C 0.30261 0.56481 0.64398 0.0
C744 C 0.29181 0.60618 0.61026 0.0
C745 C 0.27503 0.63646 0.62366 0.0
C746 C 0.27034 0.62947 0.64732 0.0
C747 C 0.28384 0.59391 0.65736 0.0
H748 H 0.08803 0.48251 0.81225 0.0
H749 H 0.03239 0.50708 0.87723 0.0
H750 H 0.15215 0.50202 0.82816 0.0
H751 H 0.09625 0.52703 0.89294 0.0
H752 H 0.2215 0.53839 0.92053 0.0
H753 H 0.16297 0.50486 0.90455 0.0
H754 H 0.18268 0.56378 0.83997 0.0
H755 H 0.24071 0.59651 0.85573 0.0
C756 C 0.0894 0.49201 0.82991 0.0
C757 C 0.05482 0.49353 0.84334 0.0
C758 C 0.12621 0.50323 0.83905 0.0
C759 C 0.12948 0.51613 0.86187 0.0
C760 C 0.09505 0.51675 0.87543 0.0
C761 C 0.05826 0.50569 0.86629 0.0
C762 C 0.21381 0.54327 0.90277 0.0
C763 C 0.23564 0.57023 0.88944 0.0
C764 C 0.18005 0.52446 0.89367 0.0
C765 C 0.16784 0.53186 0.87099 0.0
C766 C 0.19121 0.55703 0.85739 0.0
C767 C 0.22448 0.57601 0.8665 0.0
H768 H 0.77572 0.53006 0.84492 0.0
H769 H 0.88898 0.58965 0.84174 0.0
H770 H 0.74541 0.59129 0.8602 0.0
H771 H 0.85891 0.65019 0.85635 0.0
H772 H 0.7815 0.76202 0.85927 0.0
H773 H 0.80528 0.70029 0.84225 0.0
H774 H 0.75725 0.63401 0.89894 0.0
H775 H 0.73377 0.69602 0.91631 0.0
C776 C 0.7939 0.55628 0.84717 0.0
C777 C 0.83467 0.55511 0.84222 0.0
C778 C 0.77672 0.59111 0.85604 0.0
C779 C 0.7999 0.62541 0.85945 0.0
C780 C 0.8403 0.62434 0.85379 0.0
C781 C 0.8575 0.58959 0.8455 0.0
C782 C 0.776 0.73435 0.86817 0.0
C783 C 0.75606 0.73403 0.88927 0.0
C784 C 0.78954 0.69901 0.85837 0.0
C785 C 0.78288 0.66239 0.86921 0.0
C786 C 0.76239 0.66182 0.89012 0.0
C787 C 0.7494 0.69734 0.90016 0.0
H788 H 0.49284 0.52928 0.60727 0.0
H789 H 0.56163 0.49455 0.66635 0.0
H790 H 0.55381 0.54221 0.58624 0.0
H791 H 0.62275 0.50798 0.64526 0.0
H792 H 0.72649 0.50543 0.59476 0.0
H793 H 0.66364 0.48423 0.61239 0.0
H794 H 0.6072 0.59108 0.58755 0.0
H795 H 0.66951 0.61172 0.57011 0.0
C796 C 0.52094 0.5246 0.61586 0.0
C797 C 0.52219 0.51115 0.63862 0.0
C798 C 0.55595 0.53199 0.60375 0.0
C799 C 0.59322 0.52599 0.61401 0.0
C800 C 0.59456 0.51236 0.63673 0.0
C801 C 0.55948 0.50515 0.64891 0.0
C802 C 0.70021 0.52356 0.59257 0.0
C803 C 0.70243 0.55979 0.5808 0.0
C804 C 0.66445 0.51182 0.60289 0.0
C805 C 0.63039 0.53606 0.60146 0.0
C806 C 0.63257 0.57144 0.58878 0.0
C807 C 0.66821 0.58325 0.57873 0.0
H808 H 0.77201 0.29818 0.35801 0.0
H809 H 0.77922 0.34512 0.4266 0.0
H810 H 0.74602 0.36176 0.34455 0.0
H811 H 0.75417 0.40866 0.41308 0.0
H812 H 0.65857 0.49417 0.38657 0.0
H813 H 0.69219 0.43486 0.39981 0.0
H814 H 0.76165 0.43218 0.33782 0.0
H815 H 0.72705 0.4918 0.32422 0.0
C816 C 0.76822 0.32204 0.37022 0.0
C817 C 0.77736 0.31625 0.39346 0.0
C818 C 0.75368 0.35867 0.36244 0.0
C819 C 0.74789 0.39042 0.37771 0.0
C820 C 0.75767 0.38476 0.40087 0.0
C821 C 0.77213 0.34822 0.40863 0.0
C822 C 0.68134 0.48134 0.3758 0.0
C823 C 0.68997 0.49778 0.35426 0.0
C824 C 0.70084 0.4473 0.38349 0.0
C825 C 0.7296 0.4285 0.36989 0.0
C826 C 0.73931 0.44563 0.34863 0.0
C827 C 0.71983 0.48005 0.34093 0.0
H828 H 0.80295 0.53367 0.10446 0.0
H829 H 0.86013 0.42831 0.07883 0.0
H830 H 0.86553 0.55393 0.12287 0.0
H831 H 0.92191 0.44774 0.09714 0.0
H832 H 0.03653 0.50433 0.11796 0.0
H833 H 0.97551 0.49408 0.09677 0.0
H834 H 0.90744 0.53207 0.1553 0.0
H835 H 0.96908 0.54333 0.17657 0.0
C836 C 0.82921 0.51556 0.1022 0.0
C837 C 0.82706 0.47989 0.08983 0.0
C838 C 0.86485 0.52672 0.11302 0.0
C839 C 0.89892 0.50246 0.11157 0.0
C840 C 0.89671 0.46758 0.09841 0.0
C841 C 0.86128 0.45641 0.08783 0.0
C842 C 1.00866 0.51052 0.12645 0.0
C843 C 1.00795 0.5243 0.14916 0.0
C844 C 0.9735 0.50457 0.11422 0.0
C845 C 0.93634 0.51203 0.12427 0.0
C846 C 0.93548 0.5264 0.14689 0.0
C847 C 0.97085 0.53244 0.15919 0.0
H848 H 0.75584 0.73925 0.62692 0.0
H849 H 0.80101 0.81019 0.57117 0.0
H850 H 0.74143 0.79935 0.64841 0.0
H851 H 0.78606 0.87063 0.59277 0.0
H852 H 0.77931 0.97221 0.64566 0.0
H853 H 0.80365 0.91043 0.62793 0.0
H854 H 0.69297 0.85279 0.64477 0.0
H855 H 0.66918 0.91387 0.66219 0.0
C856 C 0.76268 0.76765 0.61918 0.0
C857 C 0.77926 0.7697 0.59713 0.0
C858 C 0.75439 0.8022 0.63156 0.0
C859 C 0.76251 0.83991 0.62235 0.0
C860 C 0.77983 0.84208 0.6005 0.0
C861 C 0.78799 0.8074 0.58801 0.0
C862 C 0.76087 0.94588 0.64609 0.0
C863 C 0.72262 0.94754 0.65554 0.0
C864 C 0.77448 0.91072 0.63568 0.0
C865 C 0.75021 0.8766 0.63486 0.0
C866 C 0.7127 0.87816 0.64529 0.0
C867 C 0.69903 0.91318 0.65532 0.0
H868 H 0.77994 0.92945 0.85074 0.0
H869 H 0.79661 0.99229 0.9143 0.0
H870 H 0.83914 0.96018 0.83524 0.0
H871 H 0.8562 0.02401 0.89849 0.0
H872 H 0.98757 0.02317 0.87323 0.0
H873 H 0.9234 1.00315 0.88852 0.0
H874 H 0.87044 0.01971 0.82198 0.0
H875 H 0.93485 0.03901 0.80654 0.0
C876 C 0.79588 0.95052 0.8613 0.0
C877 C 0.78353 0.95821 0.88385 0.0
C878 C 0.82987 0.96838 0.85231 0.0
C879 C 0.85283 0.99447 0.86559 0.0
C880 C 0.83956 1.00365 0.88785 0.0
C881 C 0.80514 0.98587 0.89685 0.0
C882 C 0.96228 0.02262 0.86181 0.0
C883 C 0.96667 0.03238 0.83853 0.0
C884 C 0.92527 1.01151 0.87068 0.0
C885 C 0.89152 1.00975 0.85655 0.0
C886 C 0.89578 0.02021 0.83336 0.0
C887 C 0.9328 0.03136 0.82448 0.0
H888 H 0.85355 0.12332 0.17196 0.0
H889 H 0.7453 0.06604 0.15075 0.0
H890 H 0.83195 0.18505 0.15429 0.0
H891 H 0.72308 0.12844 0.13287 0.0
H892 H 0.73105 0.22909 0.07715 0.0
H893 H 0.74404 0.16836 0.0989 0.0
H894 H 0.78425 0.23881 0.15602 0.0
H895 H 0.77197 0.29916 0.13435 0.0
C896 C 0.82445 0.12445 0.16409 0.0
C897 C 0.80077 0.09022 0.16303 0.0
C898 C 0.81206 0.1598 0.15389 0.0
C899 C 0.77581 0.16178 0.14205 0.0
C900 C 0.75132 0.12782 0.1417 0.0
C901 C 0.76365 0.09232 0.15222 0.0
C902 C 0.74277 0.23161 0.09432 0.0
C903 C 0.75084 0.26914 0.10384 0.0
C904 C 0.74978 0.19679 0.1069 0.0
C905 C 0.76516 0.19865 0.12925 0.0
C906 C 0.77278 0.23619 0.13879 0.0
C907 C 0.76573 0.27088 0.1263 0.0
H908 H 0.74443 0.05158 0.41406 0.0
H909 H 0.74745 0.12495 0.35352 0.0
H910 H 0.68569 0.01733 0.39908 0.0
H911 H 0.689 0.09148 0.33887 0.0
H912 H 0.60013 1.00458 0.30985 0.0
H913 H 0.66337 0.02955 0.32406 0.0
H914 H 0.61544 0.03433 0.39242 0.0
H915 H 0.55232 1.00874 0.37832 0.0
C916 C 0.73302 0.05995 0.39743 0.0
C917 C 0.75059 0.09112 0.38505 0.0
C918 C 0.69913 0.04065 0.38895 0.0
C919 C 0.68241 0.05182 0.36781 0.0
C920 C 0.70115 0.08179 0.35508 0.0
C921 C 0.73465 0.10118 0.36358 0.0
C922 C 0.60299 1.01093 0.32792 0.0
C923 C 0.57089 1.00488 0.34287 0.0
C924 C 0.63931 0.0253 0.33607 0.0
C925 C 0.64458 0.03397 0.35941 0.0
C926 C 0.61265 0.02746 0.37441 0.0
C927 C 0.57627 1.01317 0.36625 0.0
H928 H 0.25504 0.17455 0.42987 0.0
H929 H 0.26412 0.22885 0.36315 0.0
H930 H 0.2799 0.1123 0.41419 0.0
H931 H 0.28946 0.16661 0.34757 0.0
H932 H 0.30683 0.03884 0.32279 0.0
H933 H 0.27175 0.09642 0.33875 0.0
H934 H 0.34354 0.08878 0.39975 0.0
H935 H 0.37796 0.03166 0.38407 0.0
C936 C 0.26235 0.17329 0.41187 0.0
C937 C 0.25787 0.20694 0.39785 0.0
C938 C 0.27664 0.13755 0.40288 0.0
C939 C 0.28671 0.13443 0.37962 0.0
C940 C 0.28153 0.16782 0.36549 0.0
C941 C 0.26738 0.20365 0.3745 0.0
C942 C 0.31449 0.04907 0.33977 0.0
C943 C 0.34528 0.03077 0.3521 0.0
C944 C 0.29471 0.08225 0.34882 0.0
C945 C 0.30499 0.09735 0.37049 0.0
C946 C 0.33457 0.07782 0.38314 0.0
C947 C 0.35449 0.04513 0.37405 0.0
H948 H 0.97864 0.03029 0.1131 0.0
H949 H 0.05073 0.98225 0.16758 0.0
H950 H 0.03779 0.04202 0.09043 0.0
H951 H 0.11045 0.99485 0.14483 0.0
H952 H 0.20987 0.99851 0.09084 0.0
H953 H 0.14842 0.97646 0.1098 0.0
H954 H 0.09255 0.08761 0.09175 0.0
H955 H 0.1532 0.10897 0.07298 0.0
C956 C 1.00713 0.02235 0.12035 0.0
C957 C 1.00973 1.00568 0.14237 0.0
C958 C 0.04119 0.02913 0.10728 0.0
C959 C 0.07907 0.01956 0.11576 0.0
C960 C 0.08177 1.0022 0.13762 0.0
C961 C 0.04753 0.99538 0.15078 0.0
C962 C 0.1839 0.01745 0.09033 0.0
C963 C 0.18599 0.05514 0.08012 0.0
C964 C 0.14895 1.00519 0.10149 0.0
C965 C 0.11544 0.0303 0.10241 0.0
C966 C 0.11736 0.06718 0.0912 0.0
C967 C 0.15215 0.07946 0.08035 0.0
H968 H 0.12824 0.94515 0.84985 0.0
H969 H 0.24513 0.99497 0.8401 0.0
H970 H 0.15729 0.88555 0.86619 0.0
H971 H 0.27446 0.93464 0.85716 0.0
H972 H 0.29159 0.83682 0.91766 0.0
H973 H 0.26827 0.89838 0.89956 0.0
H974 H 0.20419 0.82962 0.84951 0.0
H975 H 0.22782 0.76833 0.86718 0.0
C976 C 0.16026 0.94343 0.85126 0.0
C977 C 0.18441 0.9749 0.84372 0.0
C978 C 0.17683 0.90915 0.86056 0.0
C979 C 0.21804 0.90552 0.86296 0.0
C980 C 0.24252 0.93688 0.85555 0.0
C981 C 0.22583 0.97118 0.8457 0.0
C982 C 0.27243 0.83488 0.90283 0.0
C983 C 0.26128 0.79766 0.89397 0.0
C984 C 0.25953 0.87009 0.89235 0.0
C985 C 0.23465 0.86867 0.87309 0.0
C986 C 0.2234 0.83152 0.86433 0.0
C987 C 0.23684 0.79645 0.8745 0.0
H988 H 0.47152 0.06122 0.66075 0.0
H989 H 0.53896 0.98677 0.61486 0.0
H990 H 0.41051 0.04383 0.64011 0.0
H991 H 0.47833 0.96952 0.59454 0.0
H992 H 0.35791 0.90409 0.5907 0.0
H993 H 0.41856 0.92922 0.60774 0.0
H994 H 0.37699 0.04942 0.59862 0.0
H995 H 0.31543 0.02388 0.581 0.0
C996 C 0.4734 0.04124 0.6463 0.0
C997 C 0.51018 0.0251 0.63964 0.0
C998 C 0.43852 0.03167 0.63435 0.0
C999 C 0.43967 1.00536 0.61571 0.0
C1000 C 0.47648 0.98976 0.60889 0.0
C1001 C 0.51125 0.99963 0.6206 0.0
C1002 C 0.36166 0.93596 0.59212 0.0
C1003 C 0.33184 0.96203 0.58451 0.0
C1004 C 0.39656 0.95033 0.60182 0.0
C1005 C 0.40258 0.99126 0.60453 0.0
C1006 C 0.37299 0.01767 0.5968 0.0
C1007 C 0.33802 1.00315 0.58658 0.0
H1008 H 0.2292 0.21811 0.98594 0.0
H1009 H 0.20876 0.09139 0.98411 0.0
H1010 H 0.18476 0.22663 0.95321 0.0
H1011 H 0.16496 0.09995 0.95156 0.0
H1012 H 0.0697 0.11908 0.90395 0.0
H1013 H 0.09999 0.12851 0.94137 0.0
H1014 H 0.18613 0.20806 0.91153 0.0
H1015 H 0.15495 0.1993 0.87408 0.0
C1016 C 0.21512 0.19212 0.97866 0.0
C1017 C 0.22263 0.15401 0.98761 0.0
C1018 C 0.18973 0.19707 0.95993 0.0
C1019 C 0.17102 0.16407 0.95 0.0
C1020 C 0.17823 0.12611 0.95914 0.0
C1021 C 0.20374 0.12113 0.97767 0.0
C1022 C 0.09403 0.13993 0.90561 0.0
C1023 C 0.11029 0.15821 0.88621 0.0
C1024 C 0.11163 0.145 0.92695 0.0
C1025 C 0.14613 0.16804 0.92921 0.0
C1026 C 0.15962 0.19002 0.91029 0.0
C1027 C 0.14167 0.18521 0.88887 0.0
H1028 H 0.69303 0.3899 0.15998 0.0
H1029 H 0.59154 0.45406 0.13393 0.0
H1030 H 0.67645 0.41032 0.19862 0.0
H1031 H 0.57521 0.47517 0.17288 0.0
H1032 H 0.54879 0.49127 0.24882 0.0
H1033 H 0.55676 0.45464 0.21313 0.0
H1034 H 0.68274 0.47821 0.21466 0.0
H1035 H 0.67504 0.51446 0.25028 0.0
C1036 C 0.66684 0.40801 0.16259 0.0
C1037 C 0.644 0.42122 0.14399 0.0
C1038 C 0.65742 0.41965 0.18469 0.0
C1039 C 0.6251 0.44491 0.18861 0.0
C1040 C 0.60031 0.4556 0.17026 0.0
C1041 C 0.60965 0.44367 0.14802 0.0
C1042 C 0.57829 0.48813 0.24171 0.0
C1043 C 0.61133 0.50593 0.25229 0.0
C1044 C 0.58271 0.46735 0.22125 0.0
C1045 C 0.62028 0.46364 0.21121 0.0
C1046 C 0.65346 0.4802 0.22221 0.0
C1047 C 0.64903 0.50119 0.24253 0.0
H1048 H 0.32076 0.93363 0.48412 0.0
H1049 H 0.30113 0.80678 0.48564 0.0
H1050 H 0.36934 0.9248 0.45379 0.0
H1051 H 0.35012 0.79804 0.45537 0.0
H1052 H 0.4723 0.90367 0.41115 0.0
H1053 H 0.43578 0.89652 0.44684 0.0
H1054 H 0.35527 0.81472 0.41396 0.0
H1055 H 0.39246 0.82142 0.3783 0.0
C1056 C 0.32691 0.90386 0.47809 0.0
C1057 C 0.3069 0.871 0.4873 0.0
C1058 C 0.3551 0.89871 0.46086 0.0
C1059 C 0.3639 0.86061 0.45236 0.0
C1060 C 0.34398 0.82771 0.46157 0.0
C1061 C 0.31594 0.83282 0.47892 0.0
C1062 C 0.4479 0.88275 0.41187 0.0
C1063 C 0.43497 0.86329 0.39199 0.0
C1064 C 0.42665 0.8791 0.4322 0.0
C1065 C 0.39195 0.85608 0.43298 0.0
C1066 C 0.38182 0.83283 0.41385 0.0
C1067 C 0.40331 0.83634 0.39346 0.0
H1068 H 0.84258 0.65308 0.65196 0.0
H1069 H 0.93606 0.57881 0.62516 0.0
H1070 H 0.85787 0.63085 0.69051 0.0
H1071 H 0.95086 0.55556 0.66395 0.0
H1072 H 0.97579 0.53298 0.73961 0.0
H1073 H 0.97203 0.57059 0.70398 0.0
H1074 H 0.84404 0.56555 0.70688 0.0
H1075 H 0.84762 0.52863 0.74244 0.0
C1076 C 0.86688 0.63242 0.65442 0.0
C1077 C 0.88774 0.61704 0.63564 0.0
C1078 C 0.87551 0.61962 0.67646 0.0
C1079 C 0.90488 0.5908 0.68015 0.0
C1080 C 0.92805 0.57785 0.66158 0.0
C1081 C 0.91961 0.59106 0.63941 0.0
C1082 C 0.94684 0.54038 0.73279 0.0
C1083 C 0.91195 0.52767 0.74382 0.0
C1084 C 0.94477 0.56173 0.71234 0.0
C1085 C 0.90781 0.57107 0.70269 0.0
C1086 C 0.873 0.55935 0.71408 0.0
C1087 C 0.87504 0.5379 0.7344 0.0
H1088 H 0.81873 0.85911 0.11057 0.0
H1089 H 0.87495 0.96719 0.08734 0.0
H1090 H 0.79776 0.84503 0.07129 0.0
H1091 H 0.85488 0.95278 0.04842 0.0
H1092 H 0.75911 0.94572 0.9928 0.0
H1093 H 0.79017 0.95446 0.0299 0.0
H1094 H 0.82025 0.82978 0.03168 0.0
H1095 H 0.78851 0.8207 -0.00545 0.0
C1096 C 0.82713 0.87944 0.09707 0.0
C1097 C 0.84774 0.91459 0.10207 0.0
C1098 C 0.81531 0.87134 0.07461 0.0
C1099 C 0.82421 0.89818 0.05689 0.0
C1100 C 0.84681 0.93206 0.0618 0.0
C1101 C 0.85832 0.94023 0.08411 0.0
C1102 C 0.7727 0.9202 0.00093 0.0
C1103 C 0.77116 0.88251 0.99074 0.0
C1104 C 0.79069 0.92525 0.02217 0.0
C1105 C 0.80757 0.89274 0.0337 0.0
C1106 C 0.80708 0.85523 0.02327 0.0
C1107 C 0.78917 0.85018 0.00193 0.0
H1108 H 0.35422 0.70393 0.82873 0.0
H1109 H 0.44464 0.62778 0.8572 0.0
H1110 H 0.36347 0.67332 0.7914 0.0
H1111 H 0.45358 0.59653 0.81981 0.0
H1112 H 0.33679 0.5594 0.74959 0.0
H1113 H 0.34162 0.6049 0.7818 0.0
H1114 H 0.46952 0.60051 0.77796 0.0
H1115 H 0.46488 0.55473 0.74581 0.0
C1116 C 0.37714 0.68161 0.82675 0.0
C1117 C 0.39846 0.66784 0.84579 0.0
C1118 C 0.38211 0.66383 0.80547 0.0
C1119 C 0.40837 0.63181 0.8029 0.0
C1120 C 0.43301 0.62111 0.82134 0.0
C1121 C 0.42813 0.63913 0.84271 0.0
C1122 C 0.36594 0.56828 0.75549 0.0
C1123 C 0.40037 0.55328 0.74516 0.0
C1124 C 0.36874 0.59466 0.77381 0.0
C1125 C 0.40602 0.60649 0.78226 0.0
C1126 C 0.44046 0.59186 0.77181 0.0
C1127 C 0.43768 0.56569 0.75338 0.0
H1128 H 0.69436 0.18066 0.60653 0.0
H1129 H 0.64321 0.0715 0.58116 0.0
H1130 H 0.71796 0.19624 0.56806 0.0
H1131 H 0.66608 0.08739 0.54288 0.0
H1132 H 0.77034 0.09808 0.49198 0.0
H1133 H 0.73344 0.08762 0.52713 0.0
H1134 H 0.69961 0.21136 0.52785 0.0
H1135 H 0.73704 0.22216 0.49276 0.0
C1136 C 0.68743 0.16049 0.59268 0.0
C1137 C 0.66766 0.12455 0.5969 0.0
C1138 C 0.70079 0.16943 0.57066 0.0
C1139 C 0.69435 0.14265 0.55259 0.0
C1140 C 0.6722 0.10811 0.55659 0.0
C1141 C 0.65907 0.0991 0.57852 0.0
C1142 C 0.75471 0.123 0.49945 0.0
C1143 C 0.7569 0.16098 0.48965 0.0
C1144 C 0.73334 0.11695 0.51952 0.0
C1145 C 0.71372 0.14875 0.53022 0.0
C1146 C 0.7148 0.18646 0.52007 0.0
C1147 C 0.73608 0.19251 0.49992 0.0
H1148 H 0.17366 0.32089 0.33272 0.0
H1149 H 0.07174 0.37819 0.36273 0.0
H1150 H 0.16393 0.35733 0.29785 0.0
H1151 H 0.05982 0.4134 0.32678 0.0
H1152 H 0.09645 0.51631 0.27861 0.0
H1153 H 0.08846 0.4679 0.30929 0.0
H1154 H 0.13505 0.37624 0.26484 0.0
H1155 H 0.14614 0.42583 0.2352 0.0
C1156 C 0.14802 0.3402 0.33146 0.0
C1157 C 0.12396 0.34732 0.3506 0.0
C1158 C 0.14218 0.36114 0.31125 0.0
C1159 C 0.11157 0.38936 0.30943 0.0
C1160 C 0.08454 0.39295 0.32775 0.0
C1161 C 0.0908 0.37219 0.34824 0.0
C1162 C 0.10509 0.48575 0.27565 0.0
C1163 C 0.12285 0.47472 0.25497 0.0
C1164 C 0.09994 0.45774 0.29305 0.0
C1165 C 0.1114 0.41785 0.28983 0.0
C1166 C 0.12699 0.40672 0.2684 0.0
C1167 C 0.13332 0.43502 0.25133 0.0
H1168 H 0.56222 0.63412 0.41576 0.0
H1169 H 0.6447 0.71077 0.38071 0.0
H1170 H 0.59999 0.64169 0.45101 0.0
H1171 H 0.68311 0.71791 0.41596 0.0
H1172 H 0.73986 0.72438 0.4877 0.0
H1173 H 0.69009 0.73551 0.45796 0.0
H1174 H 0.66632 0.60956 0.45588 0.0
H1175 H 0.71573 0.59834 0.48551 0.0
C1176 C 0.5874 0.65415 0.41593 0.0
C1177 C 0.60079 0.67168 0.39558 0.0
C1178 C 0.60932 0.65802 0.43599 0.0
C1179 C 0.64512 0.67932 0.43599 0.0
C1180 C 0.6557 0.70114 0.41641 0.0
C1181 C 0.63352 0.6974 0.39627 0.0
C1182 C 0.7239 0.69906 0.48094 0.0
C1183 C 0.73182 0.66039 0.48896 0.0
C1184 C 0.69543 0.70553 0.46394 0.0
C1185 C 0.67394 0.67354 0.45486 0.0
C1186 C 0.6818 0.63496 0.46292 0.0
C1187 C 0.71048 0.62844 0.47971 0.0
H1188 H 0.09637 0.94352 0.62148 0.0
H1189 H 0.18868 0.86926 0.64973 0.0
H1190 H 0.0798 0.96664 0.66001 0.0
H1191 H 0.17167 0.89146 0.68802 0.0
H1192 H 0.05084 0.98895 0.73508 0.0
H1193 H 0.05663 0.95129 0.69958 0.0
H1194 H 0.18439 0.95661 0.70489 0.0
H1195 H 0.17877 0.99364 0.74032 0.0
C1196 C 0.11223 0.93127 0.63596 0.0
C1197 C 0.14426 0.90529 0.63267 0.0
C1198 C 0.10277 0.94441 0.658 0.0
C1199 C 0.12507 0.93144 0.67694 0.0
C1200 C 0.15467 0.90271 0.67369 0.0
C1201 C 0.16429 0.88992 0.65179 0.0
C1202 C 0.08017 0.98157 0.72883 0.0
C1203 C 0.1144 0.99446 0.74049 0.0
C1204 C 0.08341 0.9602 0.70845 0.0
C1205 C 0.1209 0.95098 0.69948 0.0
C1206 C 0.15503 0.96274 0.71154 0.0
C1207 C 0.15183 0.98424 0.73179 0.0
H1208 H 0.94451 0.42326 0.91083 0.0
H1209 H 0.86517 0.33489 0.88318 0.0
H1210 H 0.91479 0.41481 0.94844 0.0
H1211 H 0.83436 0.32722 0.92076 0.0
H1212 H 0.80468 0.44651 0.99106 0.0
H1213 H 0.84901 0.43914 0.95873 0.0
H1214 H 0.8366 0.31159 0.96224 0.0
H1215 H 0.79143 0.3189 -0.00538 0.0
C1216 C 0.92145 0.40116 0.91302 0.0
C1217 C 0.90665 0.38009 0.89417 0.0
C1218 C 0.90423 0.39655 0.93447 0.0
C1219 C 0.8715 0.37126 0.93735 0.0
C1220 C 0.85951 0.34701 0.91903 0.0
C1221 C 0.87716 0.35129 0.89753 0.0
C1222 C 0.81146 0.41684 0.98508 0.0
C1223 C 0.79432 0.38335 -0.00463 0.0
C1224 C 0.83728 0.41257 0.96668 0.0
C1225 C 0.84664 0.37471 0.95811 0.0
C1226 C 0.82988 0.3411 0.96849 0.0
C1227 C 0.80407 0.34536 0.98703 0.0
H1228 H 0.35481 0.03224 0.25382 0.0
H1229 H 0.47626 0.01515 0.23243 0.0
H1230 H 0.34011 0.06472 0.21763 0.0
H1231 H 0.46117 0.04564 0.19569 0.0
H1232 H 0.42412 0.12255 0.13466 0.0
H1233 H 0.4431 0.1022 0.17338 0.0
H1234 H 0.33126 0.04037 0.18041 0.0
H1235 H 0.31199 0.06197 0.14262 0.0
C1236 C 0.37836 0.03561 0.24137 0.0
C1237 C 0.41647 0.02081 0.24575 0.0
C1238 C 0.36996 0.05395 0.22058 0.0
C1239 C 0.39925 0.05693 0.20352 0.0
C1240 C 0.43797 0.04403 0.20845 0.0
C1241 C 0.44658 0.0264 0.22947 0.0
C1242 C 0.40381 0.10456 0.1446 0.0
C1243 C 0.36651 0.0941 0.13579 0.0
C1244 C 0.4146 0.09292 0.16672 0.0
C1245 C 0.3884 0.07024 0.18018 0.0
C1246 C 0.35164 0.05895 0.17092 0.0
C1247 C 0.34073 0.071 0.14911 0.0
H1248 H 0.41429 0.42821 0.58284 0.0
H1249 H 0.34592 0.33429 0.61405 0.0
H1250 H 0.38896 0.40953 0.54541 0.0
H1251 H 0.31988 0.31587 0.57641 0.0
H1252 H 0.29079 0.28674 0.50177 0.0
H1253 H 0.3324 0.29334 0.53573 0.0
H1254 H 0.31952 0.42084 0.53249 0.0
H1255 H 0.27826 0.41446 0.49859 0.0
C1256 C 0.39454 0.4029 0.58157 0.0
C1257 C 0.3814 0.38306 0.60127 0.0
C1258 C 0.37996 0.39236 0.56019 0.0
C1259 C 0.35176 0.36197 0.55815 0.0
C1260 C 0.3416 0.33949 0.57756 0.0
C1261 C 0.35648 0.34994 0.59906 0.0
C1262 C 0.29719 0.31622 0.50817 0.0
C1263 C 0.28111 0.35014 0.49754 0.0
C1264 C 0.32089 0.31989 0.52763 0.0
C1265 C 0.32932 0.35753 0.53662 0.0
C1266 C 0.31402 0.39143 0.52568 0.0
C1267 C 0.2901 0.38779 0.50638 0.0
H1268 H 0.88709 0.22065 0.32698 0.0
H1269 H 0.95985 0.13404 0.36154 0.0
H1270 H 0.89333 0.18346 0.29145 0.0
H1271 H 0.96556 0.09617 0.32603 0.0
H1272 H 0.84499 0.07111 0.25587 0.0
H1273 H 0.85842 0.11909 0.28589 0.0
H1274 H 0.98287 0.08874 0.28407 0.0
H1275 H 0.96949 0.04028 0.25388 0.0
C1276 C 0.90603 0.19464 0.32666 0.0
C1277 C 0.92282 0.18003 0.34695 0.0
C1278 C 0.90912 0.17304 0.30643 0.0
C1279 C 0.92882 0.13629 0.30619 0.0
C1280 C 0.95001 0.12432 0.32574 0.0
C1281 C 0.9471 0.14619 0.34604 0.0
C1282 C 0.87525 0.07458 0.26179 0.0
C1283 C 0.9061 0.05174 0.25248 0.0
C1284 C 0.88305 0.10247 0.27883 0.0
C1285 C 0.92185 0.10813 0.28709 0.0
C1286 C 0.95275 0.08513 0.27796 0.0
C1287 C 0.945 0.0574 0.2607 0.0
H1288 H 0.1399 0.56771 0.09044 0.0
H1289 H 0.20241 0.6712 0.1152 0.0
H1290 H 0.15966 0.58342 0.05163 0.0
H1291 H 0.22308 0.68652 0.07604 0.0
H1292 H 0.23373 0.71415 -0.00018 0.0
H1293 H 0.20122 0.70507 0.03674 0.0
H1294 H 0.22409 0.579 0.03301 0.0
H1295 H 0.25585 0.58777 -0.00385 0.0
C1296 C 0.15781 0.59395 0.08757 0.0
C1297 C 0.1703 0.61786 0.1059 0.0
C1298 C 0.16912 0.60289 0.06532 0.0
C1299 C 0.19345 0.63576 0.06087 0.0
C1300 C 0.20417 0.66104 0.079 0.0
C1301 C 0.19254 0.65221 0.10138 0.0
C1302 C 0.23128 0.68441 0.00674 0.0
C1303 C 0.24751 0.65166 -0.00491 0.0
C1304 C 0.21293 0.67933 0.02793 0.0
C1305 C 0.21022 0.6414 0.03775 0.0
C1306 C 0.22528 0.60856 0.02574 0.0
C1307 C 0.2437 0.61362 0.00465 0.0
H1308 H 0.57148 0.9081 0.85733 0.0
H1309 H 0.64853 0.82184 0.82577 0.0
H1310 H 0.56216 0.94063 0.82037 0.0
H1311 H 0.63835 0.85337 0.78873 0.0
H1312 H 0.55459 0.99071 0.74783 0.0
H1313 H 0.54381 0.94322 0.77886 0.0
H1314 H 0.66943 0.91774 0.78013 0.0
H1315 H 0.6802 0.96452 0.74924 0.0
C1316 C 0.58452 0.89479 0.84225 0.0
C1317 C 0.61104 0.86287 0.84428 0.0
C1318 C 0.5794 0.91351 0.82109 0.0
C1319 C 0.60055 0.90018 0.80184 0.0
C1320 C 0.62254 0.86486 0.80343 0.0
C1321 C 0.62801 0.84654 0.82453 0.0
C1322 C 0.57985 0.97472 0.75465 0.0
C1323 C 0.61833 0.98155 0.74614 0.0
C1324 C 0.5736 0.94754 0.77238 0.0
C1325 C 0.60564 0.92639 0.78171 0.0
C1326 C 0.64394 0.93288 0.77295 0.0
C1327 C 0.65022 0.96012 0.75541 0.0
loop_
_geom_bond_atom_site_label_1
_geom_bond_atom_site_label_2
_geom_bond_distance
_geom_bond_site_symmetry_2
_ccdc_geom_bond_type
O0 Zn1 1.953 . S
O0 C16 1.225 . S
Zn1 O0 1.953 . S
Zn1 O2 1.949 . S
Zn1 O8 1.919 . S
Zn1 O13 1.924 . S
O2 Zn1 1.949 . S
O2 Zn3 1.923 . S
O2 Zn4 1.950 . S
O2 Zn5 1.945 . S
Zn3 O2 1.923 . S
Zn3 O6 1.933 . S
Zn3 O9 1.941 . S
Zn3 O10 1.965 . S
Zn4 O2 1.950 . S
Zn4 O11 1.938 . S
Zn4 O12 1.906 . S
Zn4 O22 1.953 . S
Zn5 O2 1.945 . S
Zn5 O7 1.932 . S
Zn5 O14 1.977 . S
Zn5 O15 1.910 . S
O6 Zn3 1.933 . S
O6 C17 1.226 . S
O7 Zn5 1.932 . S
O7 C17 1.307 . S
O8 Zn1 1.919 . S
O8 C19 1.253 . S
O9 Zn3 1.941 . S
O9 C19 1.283 . S
O10 Zn3 1.965 . S
O10 C18 1.303 . S
O11 Zn4 1.938 . S
O11 C18 1.247 . S
O12 Zn4 1.906 . S
O12 C20 1.304 . S
O13 Zn1 1.924 . S
O13 C21 1.311 . S
O14 Zn5 1.977 . S
O14 C20 1.272 . S
O15 Zn5 1.910 . S
O15 C21 1.231 . S
C16 O0 1.225 . S
C16 O22 1.298 . S
C17 O6 1.226 . S
C17 O7 1.307 . S
C18 O10 1.303 . S
C18 O11 1.247 . S
C19 O8 1.253 . S
C19 O9 1.283 . S
C20 O12 1.304 . S
C20 O14 1.272 . S
C21 O13 1.311 . S
C21 O15 1.231 . S
O22 Zn4 1.953 . S
O22 C16 1.298 . S
O23 Zn24 1.953 . S
O23 C39 1.225 . S
Zn24 O23 1.953 . S
Zn24 O25 1.949 . S
Zn24 O31 1.919 . S
Zn24 O36 1.924 . S
O25 Zn24 1.949 . S
O25 Zn26 1.923 . S
O25 Zn27 1.950 . S
O25 Zn28 1.945 . S
Zn26 O25 1.923 . S
Zn26 O29 1.933 . S
Zn26 O32 1.941 . S
Zn26 O33 1.965 . S
Zn27 O25 1.950 . S
Zn27 O34 1.938 . S
Zn27 O35 1.906 . S
Zn27 O45 1.953 . S
Zn28 O25 1.945 . S
Zn28 O30 1.932 . S
Zn28 O37 1.977 . S
Zn28 O38 1.910 . S
O29 Zn26 1.933 . S
O29 C40 1.226 . S
O30 Zn28 1.932 . S
O30 C40 1.307 . S
O31 Zn24 1.919 . S
O31 C42 1.253 . S
O32 Zn26 1.941 . S
O32 C42 1.283 . S
O33 Zn26 1.965 . S
O33 C41 1.303 . S
O34 Zn27 1.938 . S
O34 C41 1.247 . S
O35 Zn27 1.906 . S
O35 C43 1.304 . S
O36 Zn24 1.924 . S
O36 C44 1.311 . S
O37 Zn28 1.977 . S
O37 C43 1.272 . S
O38 Zn28 1.910 . S
O38 C44 1.231 . S
C39 O23 1.225 . S
C39 O45 1.298 . S
C40 O29 1.226 . S
C40 O30 1.307 . S
C41 O33 1.303 . S
C41 O34 1.247 . S
C42 O31 1.253 . S
C42 O32 1.283 . S
C43 O35 1.304 . S
C43 O37 1.272 . S
C44 O36 1.311 . S
C44 O38 1.231 . S
O45 Zn27 1.953 . S
O45 C39 1.298 . S
O46 Zn47 1.953 . S
O46 C62 1.225 . S
Zn47 O46 1.953 . S
Zn47 O48 1.949 . S
Zn47 O54 1.919 . S
Zn47 O59 1.924 . S
O48 Zn47 1.949 . S
O48 Zn49 1.923 . S
O48 Zn50 1.950 . S
O48 Zn51 1.945 . S
Zn49 O48 1.923 . S
Zn49 O52 1.933 . S
Zn49 O55 1.941 . S
Zn49 O56 1.965 . S
Zn50 O48 1.950 . S
Zn50 O57 1.938 . S
Zn50 O58 1.906 . S
Zn50 O68 1.953 . S
Zn51 O48 1.945 . S
Zn51 O53 1.932 . S
Zn51 O60 1.977 . S
Zn51 O61 1.910 . S
O52 Zn49 1.933 . S
O52 C63 1.226 . S
O53 Zn51 1.932 . S
O53 C63 1.307 . S
O54 Zn47 1.919 . S
O54 C65 1.253 . S
O55 Zn49 1.941 . S
O55 C65 1.283 . S
O56 Zn49 1.965 . S
O56 C64 1.303 . S
O57 Zn50 1.938 . S
O57 C64 1.247 . S
O58 Zn50 1.906 . S
O58 C66 1.304 . S
O59 Zn47 1.924 . S
O59 C67 1.311 . S
O60 Zn51 1.977 . S
O60 C66 1.272 . S
O61 Zn51 1.910 . S
O61 C67 1.231 . S
C62 O46 1.225 . S
C62 O68 1.298 . S
C63 O52 1.226 . S
C63 O53 1.307 . S
C64 O56 1.303 . S
C64 O57 1.247 . S
C65 O54 1.253 . S
C65 O55 1.283 . S
C66 O58 1.304 . S
C66 O60 1.272 . S
C67 O59 1.311 . S
C67 O61 1.231 . S
O68 Zn50 1.953 . S
O68 C62 1.298 . S
O69 Zn70 1.953 . S
O69 C85 1.225 . S
Zn70 O69 1.953 . S
Zn70 O71 1.949 . S
Zn70 O77 1.919 . S
Zn70 O82 1.924 . S
O71 Zn70 1.949 . S
O71 Zn72 1.923 . S
O71 Zn73 1.950 . S
O71 Zn74 1.945 . S
Zn72 O71 1.923 . S
Zn72 O75 1.933 . S
Zn72 O78 1.941 . S
Zn72 O79 1.965 . S
Zn73 O71 1.950 . S
Zn73 O80 1.938 . S
Zn73 O81 1.906 . S
Zn73 O91 1.953 . S
Zn74 O71 1.945 . S
Zn74 O76 1.932 . S
Zn74 O83 1.977 . S
Zn74 O84 1.910 . S
O75 Zn72 1.933 . S
O75 C86 1.226 . S
O76 Zn74 1.932 . S
O76 C86 1.307 . S
O77 Zn70 1.919 . S
O77 C88 1.253 . S
O78 Zn72 1.941 . S
O78 C88 1.283 . S
O79 Zn72 1.965 . S
O79 C87 1.303 . S
O80 Zn73 1.938 . S
O80 C87 1.247 . S
O81 Zn73 1.906 . S
O81 C89 1.304 . S
O82 Zn70 1.924 . S
O82 C90 1.311 . S
O83 Zn74 1.977 . S
O83 C89 1.272 . S
O84 Zn74 1.910 . S
O84 C90 1.231 . S
C85 O69 1.225 . S
C85 O91 1.298 . S
C86 O75 1.226 . S
C86 O76 1.307 . S
C87 O79 1.303 . S
C87 O80 1.247 . S
C88 O77 1.253 . S
C88 O78 1.283 . S
C89 O81 1.304 . S
C89 O83 1.272 . S
C90 O82 1.311 . S
C90 O84 1.231 . S
O91 Zn73 1.953 . S
O91 C85 1.298 . S
O92 Zn93 1.953 . S
O92 C108 1.225 . S
Zn93 O92 1.953 . S
Zn93 O94 1.949 . S
Zn93 O100 1.919 . S
Zn93 O105 1.924 . S
O94 Zn93 1.949 . S
O94 Zn95 1.923 . S
O94 Zn96 1.950 . S
O94 Zn97 1.945 . S
Zn95 O94 1.923 . S
Zn95 O98 1.933 . S
Zn95 O101 1.941 . S
Zn95 O102 1.965 . S
Zn96 O94 1.950 . S
Zn96 O103 1.938 . S
Zn96 O104 1.906 . S
Zn96 O114 1.953 . S
Zn97 O94 1.945 . S
Zn97 O99 1.932 . S
Zn97 O106 1.977 . S
Zn97 O107 1.910 . S
O98 Zn95 1.933 . S
O98 C109 1.226 . S
O99 Zn97 1.932 . S
O99 C109 1.307 . S
O100 Zn93 1.919 . S
O100 C111 1.253 . S
O101 Zn95 1.941 . S
O101 C111 1.283 . S
O102 Zn95 1.965 . S
O102 C110 1.303 . S
O103 Zn96 1.938 . S
O103 C110 1.247 . S
O104 Zn96 1.906 . S
O104 C112 1.304 . S
O105 Zn93 1.924 . S
O105 C113 1.311 . S
O106 Zn97 1.977 . S
O106 C112 1.272 . S
O107 Zn97 1.910 . S
O107 C113 1.231 . S
C108 O92 1.225 . S
C108 O114 1.298 . S
C109 O98 1.226 . S
C109 O99 1.307 . S
C110 O102 1.303 . S
C110 O103 1.247 . S
C111 O100 1.253 . S
C111 O101 1.283 . S
C112 O104 1.304 . S
C112 O106 1.272 . S
C113 O105 1.311 . S
C113 O107 1.231 . S
O114 Zn96 1.953 . S
O114 C108 1.298 . S
O115 Zn116 1.953 . S
O115 C131 1.225 . S
Zn116 O115 1.953 . S
Zn116 O117 1.949 . S
Zn116 O123 1.919 . S
Zn116 O128 1.924 . S
O117 Zn116 1.949 . S
O117 Zn118 1.923 . S
O117 Zn119 1.950 . S
O117 Zn120 1.945 . S
Zn118 O117 1.923 . S
Zn118 O121 1.933 . S
Zn118 O124 1.941 . S
Zn118 O125 1.965 . S
Zn119 O117 1.950 . S
Zn119 O126 1.938 . S
Zn119 O127 1.906 . S
Zn119 O137 1.953 . S
Zn120 O117 1.945 . S
Zn120 O122 1.932 . S
Zn120 O129 1.977 . S
Zn120 O130 1.910 . S
O121 Zn118 1.933 . S
O121 C132 1.226 . S
O122 Zn120 1.932 . S
O122 C132 1.307 . S
O123 Zn116 1.919 . S
O123 C134 1.253 . S
O124 Zn118 1.941 . S
O124 C134 1.283 . S
O125 Zn118 1.965 . S
O125 C133 1.303 . S
O126 Zn119 1.938 . S
O126 C133 1.247 . S
O127 Zn119 1.906 . S
O127 C135 1.304 . S
O128 Zn116 1.924 . S
O128 C136 1.311 . S
O129 Zn120 1.977 . S
O129 C135 1.272 . S
O130 Zn120 1.910 . S
O130 C136 1.231 . S
C131 O115 1.225 . S
C131 O137 1.298 . S
C132 O121 1.226 . S
C132 O122 1.307 . S
C133 O125 1.303 . S
C133 O126 1.247 . S
C134 O123 1.253 . S
C134 O124 1.283 . S
C135 O127 1.304 . S
C135 O129 1.272 . S
C136 O128 1.311 . S
C136 O130 1.231 . S
O137 Zn119 1.953 . S
O137 C131 1.298 . S
O138 Zn139 1.953 . S
O138 C154 1.225 . S
Zn139 O138 1.953 . S
Zn139 O140 1.949 . S
Zn139 O146 1.919 . S
Zn139 O151 1.924 . S
O140 Zn139 1.949 . S
O140 Zn141 1.923 . S
O140 Zn142 1.950 . S
O140 Zn143 1.945 . S
Zn141 O140 1.923 . S
Zn141 O144 1.933 . S
Zn141 O147 1.941 . S
Zn141 O148 1.965 . S
Zn142 O140 1.950 . S
Zn142 O149 1.938 . S
Zn142 O150 1.906 . S
Zn142 O160 1.953 . S
Zn143 O140 1.945 . S
Zn143 O145 1.932 . S
Zn143 O152 1.977 . S
Zn143 O153 1.910 . S
O144 Zn141 1.933 . S
O144 C155 1.226 . S
O145 Zn143 1.932 . S
O145 C155 1.307 . S
O146 Zn139 1.919 . S
O146 C157 1.253 . S
O147 Zn141 1.941 . S
O147 C157 1.283 . S
O148 Zn141 1.965 . S
O148 C156 1.303 . S
O149 Zn142 1.938 . S
O149 C156 1.247 . S
O150 Zn142 1.906 . S
O150 C158 1.304 . S
O151 Zn139 1.924 . S
O151 C159 1.311 . S
O152 Zn143 1.977 . S
O152 C158 1.272 . S
O153 Zn143 1.910 . S
O153 C159 1.231 . S
C154 O138 1.225 . S
C154 O160 1.298 . S
C155 O144 1.226 . S
C155 O145 1.307 . S
C156 O148 1.303 . S
C156 O149 1.247 . S
C157 O146 1.253 . S
C157 O147 1.283 . S
C158 O150 1.304 . S
C158 O152 1.272 . S
C159 O151 1.311 . S
C159 O153 1.231 . S
O160 Zn142 1.953 . S
O160 C154 1.298 . S
O161 Zn162 1.953 . S
O161 C177 1.225 . S
Zn162 O161 1.953 . S
Zn162 O163 1.949 . S
Zn162 O169 1.919 . S
Zn162 O174 1.924 . S
O163 Zn162 1.949 . S
O163 Zn164 1.923 . S
O163 Zn165 1.950 . S
O163 Zn166 1.945 . S
Zn164 O163 1.923 . S
Zn164 O167 1.933 . S
Zn164 O170 1.941 . S
Zn164 O171 1.965 . S
Zn165 O163 1.950 . S
Zn165 O172 1.938 . S
Zn165 O173 1.906 . S
Zn165 O183 1.953 . S
Zn166 O163 1.945 . S
Zn166 O168 1.932 . S
Zn166 O175 1.977 . S
Zn166 O176 1.910 . S
O167 Zn164 1.933 . S
O167 C178 1.226 . S
O168 Zn166 1.932 . S
O168 C178 1.307 . S
O169 Zn162 1.919 . S
O169 C180 1.253 . S
O170 Zn164 1.941 . S
O170 C180 1.283 . S
O171 Zn164 1.965 . S
O171 C179 1.303 . S
O172 Zn165 1.938 . S
O172 C179 1.247 . S
O173 Zn165 1.906 . S
O173 C181 1.304 . S
O174 Zn162 1.924 . S
O174 C182 1.311 . S
O175 Zn166 1.977 . S
O175 C181 1.272 . S
O176 Zn166 1.910 . S
O176 C182 1.231 . S
C177 O161 1.225 . S
C177 O183 1.298 . S
C178 O167 1.226 . S
C178 O168 1.307 . S
C179 O171 1.303 . S
C179 O172 1.247 . S
C180 O169 1.253 . S
C180 O170 1.283 . S
C181 O173 1.304 . S
C181 O175 1.272 . S
C182 O174 1.311 . S
C182 O176 1.231 . S
O183 Zn165 1.953 . S
O183 C177 1.298 . S
O184 Zn185 1.953 . S
O184 C200 1.225 . S
Zn185 O184 1.953 . S
Zn185 O186 1.949 . S
Zn185 O192 1.919 . S
Zn185 O197 1.924 . S
O186 Zn185 1.949 . S
O186 Zn187 1.923 . S
O186 Zn188 1.950 . S
O186 Zn189 1.945 . S
Zn187 O186 1.923 . S
Zn187 O190 1.933 . S
Zn187 O193 1.941 . S
Zn187 O194 1.965 . S
Zn188 O186 1.950 . S
Zn188 O195 1.938 . S
Zn188 O196 1.906 . S
Zn188 O206 1.953 . S
Zn189 O186 1.945 . S
Zn189 O191 1.932 . S
Zn189 O198 1.977 . S
Zn189 O199 1.910 . S
O190 Zn187 1.933 . S
O190 C201 1.226 . S
O191 Zn189 1.932 . S
O191 C201 1.307 . S
O192 Zn185 1.919 . S
O192 C203 1.253 . S
O193 Zn187 1.941 . S
O193 C203 1.283 . S
O194 Zn187 1.965 . S
O194 C202 1.303 . S
O195 Zn188 1.938 . S
O195 C202 1.247 . S
O196 Zn188 1.906 . S
O196 C204 1.304 . S
O197 Zn185 1.924 . S
O197 C205 1.311 . S
O198 Zn189 1.977 . S
O198 C204 1.272 . S
O199 Zn189 1.910 . S
O199 C205 1.231 . S
C200 O184 1.225 . S
C200 O206 1.298 . S
C201 O190 1.226 . S
C201 O191 1.307 . S
C202 O194 1.303 . S
C202 O195 1.247 . S
C203 O192 1.253 . S
C203 O193 1.283 . S
C204 O196 1.304 . S
C204 O198 1.272 . S
C205 O197 1.311 . S
C205 O199 1.231 . S
O206 Zn188 1.953 . S
O206 C200 1.298 . S
O207 Zn208 1.953 . S
O207 C223 1.225 . S
Zn208 O207 1.953 . S
Zn208 O209 1.949 . S
Zn208 O215 1.919 . S
Zn208 O220 1.924 . S
O209 Zn208 1.949 . S
O209 Zn210 1.923 . S
O209 Zn211 1.950 . S
O209 Zn212 1.945 . S
Zn210 O209 1.923 . S
Zn210 O213 1.933 . S
Zn210 O216 1.941 . S
Zn210 O217 1.965 . S
Zn211 O209 1.950 . S
Zn211 O218 1.938 . S
Zn211 O219 1.906 . S
Zn211 O229 1.953 . S
Zn212 O209 1.945 . S
Zn212 O214 1.932 1_545 S
Zn212 O221 1.977 . S
Zn212 O222 1.910 . S
O213 Zn210 1.933 . S
O213 C224 1.226 1_545 S
O214 Zn212 1.932 1_565 S
O214 C224 1.307 . S
O215 Zn208 1.919 . S
O215 C226 1.253 . S
O216 Zn210 1.941 . S
O216 C226 1.283 . S
O217 Zn210 1.965 . S
O217 C225 1.303 . S
O218 Zn211 1.938 . S
O218 C225 1.247 . S
O219 Zn211 1.906 . S
O219 C227 1.304 . S
O220 Zn208 1.924 . S
O220 C228 1.311 . S
O221 Zn212 1.977 . S
O221 C227 1.272 . S
O222 Zn212 1.910 . S
O222 C228 1.231 . S
C223 O207 1.225 . S
C223 O229 1.298 . S
C224 O213 1.226 1_565 S
C224 O214 1.307 . S
C225 O217 1.303 . S
C225 O218 1.247 . S
C226 O215 1.253 . S
C226 O216 1.283 . S
C227 O219 1.304 . S
C227 O221 1.272 . S
C228 O220 1.311 . S
C228 O222 1.231 . S
O229 Zn211 1.953 . S
O229 C223 1.298 . S
O230 Zn231 1.953 . S
O230 C246 1.225 . S
Zn231 O230 1.953 . S
Zn231 O232 1.949 . S
Zn231 O238 1.919 . S
Zn231 O243 1.924 . S
O232 Zn231 1.949 . S
O232 Zn233 1.923 . S
O232 Zn234 1.950 . S
O232 Zn235 1.945 . S
Zn233 O232 1.923 . S
Zn233 O236 1.933 . S
Zn233 O239 1.941 . S
Zn233 O240 1.965 . S
Zn234 O232 1.950 . S
Zn234 O241 1.938 . S
Zn234 O242 1.906 . S
Zn234 O252 1.953 . S
Zn235 O232 1.945 . S
Zn235 O237 1.932 . S
Zn235 O244 1.977 . S
Zn235 O245 1.910 . S
O236 Zn233 1.933 . S
O236 C247 1.226 . S
O237 Zn235 1.932 . S
O237 C247 1.307 . S
O238 Zn231 1.919 . S
O238 C249 1.253 . S
O239 Zn233 1.941 . S
O239 C249 1.283 . S
O240 Zn233 1.965 . S
O240 C248 1.303 . S
O241 Zn234 1.938 . S
O241 C248 1.247 . S
O242 Zn234 1.906 . S
O242 C250 1.304 . S
O243 Zn231 1.924 . S
O243 C251 1.311 . S
O244 Zn235 1.977 . S
O244 C250 1.272 . S
O245 Zn235 1.910 . S
O245 C251 1.231 . S
C246 O230 1.225 . S
C246 O252 1.298 . S
C247 O236 1.226 . S
C247 O237 1.307 . S
C248 O240 1.303 . S
C248 O241 1.247 . S
C249 O238 1.253 . S
C249 O239 1.283 . S
C250 O242 1.304 . S
C250 O244 1.272 . S
C251 O243 1.311 . S
C251 O245 1.231 . S
O252 Zn234 1.953 . S
O252 C246 1.298 . S
O253 Zn254 1.953 . S
O253 C269 1.225 . S
Zn254 O253 1.953 . S
Zn254 O255 1.949 . S
Zn254 O261 1.919 . S
Zn254 O266 1.924 . S
O255 Zn254 1.949 . S
O255 Zn256 1.923 . S
O255 Zn257 1.950 . S
O255 Zn258 1.945 . S
Zn256 O255 1.923 . S
Zn256 O259 1.933 . S
Zn256 O262 1.941 . S
Zn256 O263 1.965 . S
Zn257 O255 1.950 . S
Zn257 O264 1.938 . S
Zn257 O265 1.906 . S
Zn257 O275 1.953 . S
Zn258 O255 1.945 . S
Zn258 O260 1.932 1_565 S
Zn258 O267 1.977 . S
Zn258 O268 1.910 . S
O259 Zn256 1.933 . S
O259 C270 1.226 1_565 S
O260 Zn258 1.932 1_545 S
O260 C270 1.307 . S
O261 Zn254 1.919 . S
O261 C272 1.253 . S
O262 Zn256 1.941 . S
O262 C272 1.283 . S
O263 Zn256 1.965 . S
O263 C271 1.303 . S
O264 Zn257 1.938 . S
O264 C271 1.247 . S
O265 Zn257 1.906 . S
O265 C273 1.304 . S
O266 Zn254 1.924 . S
O266 C274 1.311 . S
O267 Zn258 1.977 . S
O267 C273 1.272 . S
O268 Zn258 1.910 . S
O268 C274 1.231 . S
C269 O253 1.225 . S
C269 O275 1.298 . S
C270 O259 1.226 1_545 S
C270 O260 1.307 . S
C271 O263 1.303 . S
C271 O264 1.247 . S
C272 O261 1.253 . S
C272 O262 1.283 . S
C273 O265 1.304 . S
C273 O267 1.272 . S
C274 O266 1.311 . S
C274 O268 1.231 . S
O275 Zn257 1.953 . S
O275 C269 1.298 . S
O276 Zn277 1.953 . S
O276 C292 1.225 . S
Zn277 O276 1.953 . S
Zn277 O278 1.949 . S
Zn277 O284 1.919 . S
Zn277 O289 1.924 . S
O278 Zn277 1.949 . S
O278 Zn279 1.923 . S
O278 Zn280 1.950 . S
O278 Zn281 1.945 . S
Zn279 O278 1.923 . S
Zn279 O282 1.933 . S
Zn279 O285 1.941 . S
Zn279 O286 1.965 . S
Zn280 O278 1.950 . S
Zn280 O287 1.938 . S
Zn280 O288 1.906 . S
Zn280 O298 1.953 . S
Zn281 O278 1.945 . S
Zn281 O283 1.932 . S
Zn281 O290 1.977 . S
Zn281 O291 1.910 . S
O282 Zn279 1.933 . S
O282 C293 1.226 . S
O283 Zn281 1.932 . S
O283 C293 1.307 . S
O284 Zn277 1.919 . S
O284 C295 1.253 . S
O285 Zn279 1.941 . S
O285 C295 1.283 . S
O286 Zn279 1.965 . S
O286 C294 1.303 . S
O287 Zn280 1.938 . S
O287 C294 1.247 . S
O288 Zn280 1.906 . S
O288 C296 1.304 . S
O289 Zn277 1.924 . S
O289 C297 1.311 . S
O290 Zn281 1.977 . S
O290 C296 1.272 . S
O291 Zn281 1.910 . S
O291 C297 1.231 . S
C292 O276 1.225 . S
C292 O298 1.298 . S
C293 O282 1.226 . S
C293 O283 1.307 . S
C294 O286 1.303 . S
C294 O287 1.247 . S
C295 O284 1.253 . S
C295 O285 1.283 . S
C296 O288 1.304 . S
C296 O290 1.272 . S
C297 O289 1.311 . S
C297 O291 1.231 . S
O298 Zn280 1.953 . S
O298 C292 1.298 . S
O299 Zn300 1.953 . S
O299 C315 1.225 . S
Zn300 O299 1.953 . S
Zn300 O301 1.949 . S
Zn300 O307 1.919 . S
Zn300 O312 1.924 . S
O301 Zn300 1.949 . S
O301 Zn302 1.923 . S
O301 Zn303 1.950 . S
O301 Zn304 1.945 . S
Zn302 O301 1.923 . S
Zn302 O305 1.933 . S
Zn302 O308 1.941 . S
Zn302 O309 1.965 . S
Zn303 O301 1.950 . S
Zn303 O310 1.938 . S
Zn303 O311 1.906 . S
Zn303 O321 1.953 . S
Zn304 O301 1.945 . S
Zn304 O306 1.932 1_565 S
Zn304 O313 1.977 . S
Zn304 O314 1.910 . S
O305 Zn302 1.933 . S
O305 C316 1.226 1_565 S
O306 Zn304 1.932 1_545 S
O306 C316 1.307 . S
O307 Zn300 1.919 . S
O307 C318 1.253 . S
O308 Zn302 1.941 . S
O308 C318 1.283 . S
O309 Zn302 1.965 . S
O309 C317 1.303 . S
O310 Zn303 1.938 . S
O310 C317 1.247 . S
O311 Zn303 1.906 . S
O311 C319 1.304 . S
O312 Zn300 1.924 . S
O312 C320 1.311 . S
O313 Zn304 1.977 . S
O313 C319 1.272 . S
O314 Zn304 1.910 . S
O314 C320 1.231 . S
C315 O299 1.225 . S
C315 O321 1.298 . S
C316 O305 1.226 1_545 S
C316 O306 1.307 . S
C317 O309 1.303 . S
C317 O310 1.247 . S
C318 O307 1.253 . S
C318 O308 1.283 . S
C319 O311 1.304 . S
C319 O313 1.272 . S
C320 O312 1.311 . S
C320 O314 1.231 . S
O321 Zn303 1.953 . S
O321 C315 1.298 . S
O322 Zn323 1.953 . S
O322 C338 1.225 . S
Zn323 O322 1.953 . S
Zn323 O324 1.949 . S
Zn323 O330 1.919 . S
Zn323 O335 1.924 . S
O324 Zn323 1.949 . S
O324 Zn325 1.923 . S
O324 Zn326 1.950 . S
O324 Zn327 1.945 . S
Zn325 O324 1.923 . S
Zn325 O328 1.933 . S
Zn325 O331 1.941 . S
Zn325 O332 1.965 . S
Zn326 O324 1.950 . S
Zn326 O333 1.938 . S
Zn326 O334 1.906 . S
Zn326 O344 1.953 . S
Zn327 O324 1.945 . S
Zn327 O329 1.932 . S
Zn327 O336 1.977 . S
Zn327 O337 1.910 . S
O328 Zn325 1.933 . S
O328 C339 1.226 . S
O329 Zn327 1.932 . S
O329 C339 1.307 . S
O330 Zn323 1.919 . S
O330 C341 1.253 . S
O331 Zn325 1.941 . S
O331 C341 1.283 . S
O332 Zn325 1.965 . S
O332 C340 1.303 . S
O333 Zn326 1.938 . S
O333 C340 1.247 . S
O334 Zn326 1.906 . S
O334 C342 1.304 . S
O335 Zn323 1.924 . S
O335 C343 1.311 . S
O336 Zn327 1.977 . S
O336 C342 1.272 . S
O337 Zn327 1.910 . S
O337 C343 1.231 . S
C338 O322 1.225 . S
C338 O344 1.298 . S
C339 O328 1.226 . S
C339 O329 1.307 . S
C340 O332 1.303 . S
C340 O333 1.247 . S
C341 O330 1.253 . S
C341 O331 1.283 . S
C342 O334 1.304 . S
C342 O336 1.272 . S
C343 O335 1.311 . S
C343 O337 1.231 . S
O344 Zn326 1.953 . S
O344 C338 1.298 . S
O345 Zn346 1.953 . S
O345 C361 1.225 . S
Zn346 O345 1.953 . S
Zn346 O347 1.949 . S
Zn346 O353 1.919 . S
Zn346 O358 1.924 . S
O347 Zn346 1.949 . S
O347 Zn348 1.923 . S
O347 Zn349 1.950 . S
O347 Zn350 1.945 . S
Zn348 O347 1.923 . S
Zn348 O351 1.933 . S
Zn348 O354 1.941 . S
Zn348 O355 1.965 . S
Zn349 O347 1.950 . S
Zn349 O356 1.938 . S
Zn349 O357 1.906 . S
Zn349 O367 1.953 . S
Zn350 O347 1.945 . S
Zn350 O352 1.932 1_545 S
Zn350 O359 1.977 . S
Zn350 O360 1.910 . S
O351 Zn348 1.933 . S
O351 C362 1.226 1_545 S
O352 Zn350 1.932 1_565 S
O352 C362 1.307 . S
O353 Zn346 1.919 . S
O353 C364 1.253 . S
O354 Zn348 1.941 . S
O354 C364 1.283 . S
O355 Zn348 1.965 . S
O355 C363 1.303 . S
O356 Zn349 1.938 . S
O356 C363 1.247 . S
O357 Zn349 1.906 . S
O357 C365 1.304 . S
O358 Zn346 1.924 . S
O358 C366 1.311 . S
O359 Zn350 1.977 . S
O359 C365 1.272 . S
O360 Zn350 1.910 . S
O360 C366 1.231 . S
C361 O345 1.225 . S
C361 O367 1.298 . S
C362 O351 1.226 1_565 S
C362 O352 1.307 . S
C363 O355 1.303 . S
C363 O356 1.247 . S
C364 O353 1.253 . S
C364 O354 1.283 . S
C365 O357 1.304 . S
C365 O359 1.272 . S
C366 O358 1.311 . S
C366 O360 1.231 . S
O367 Zn349 1.953 . S
O367 C361 1.298 . S
H368 C376 0.950 . S
H369 C381 0.950 . S
H370 C378 0.950 . S
H371 C380 0.950 . S
H372 C382 0.950 . S
H373 C384 0.950 . S
H374 C386 0.950 . S
H375 C387 0.950 . S
C376 H368 0.950 . S
C376 C377 1.386 . S
C376 C378 1.391 . S
C377 C376 1.386 . S
C377 C381 1.393 . S
C378 H370 0.950 . S
C378 C376 1.391 . S
C378 C379 1.400 . S
C379 C378 1.400 . S
C379 C380 1.398 . S
C379 C385 1.491 . S
C380 H371 0.950 . S
C380 C379 1.398 . S
C380 C381 1.391 . S
C381 H369 0.950 . S
C381 C377 1.393 . S
C381 C380 1.391 . S
C382 H372 0.950 . S
C382 C383 1.386 . S
C382 C384 1.391 . S
C383 C382 1.386 . S
C383 C387 1.393 . S
C384 H373 0.950 . S
C384 C382 1.391 . S
C384 C385 1.400 . S
C385 C379 1.491 . S
C385 C384 1.400 . S
C385 C386 1.398 . S
C386 H374 0.950 . S
C386 C385 1.398 . S
C386 C387 1.391 . S
C387 H375 0.950 . S
C387 C383 1.393 . S
C387 C386 1.391 . S
H388 C396 0.950 . S
H389 C401 0.950 . S
H390 C398 0.950 . S
H391 C400 0.950 . S
H392 C402 0.950 . S
H393 C404 0.950 . S
H394 C406 0.950 . S
H395 C407 0.950 . S
C396 H388 0.950 . S
C396 C397 1.386 . S
C396 C398 1.391 . S
C397 C396 1.386 . S
C397 C401 1.393 . S
C398 H390 0.950 . S
C398 C396 1.391 . S
C398 C399 1.400 . S
C399 C398 1.400 . S
C399 C400 1.398 . S
C399 C405 1.491 . S
C400 H391 0.950 . S
C400 C399 1.398 . S
C400 C401 1.391 . S
C401 H389 0.950 . S
C401 C397 1.393 . S
C401 C400 1.391 . S
C402 H392 0.950 . S
C402 C403 1.386 . S
C402 C404 1.391 . S
C403 C402 1.386 . S
C403 C407 1.393 . S
C404 H393 0.950 . S
C404 C402 1.391 . S
C404 C405 1.400 . S
C405 C399 1.491 . S
C405 C404 1.400 . S
C405 C406 1.398 . S
C406 H394 0.950 . S
C406 C405 1.398 . S
C406 C407 1.391 . S
C407 H395 0.950 . S
C407 C403 1.393 . S
C407 C406 1.391 . S
H408 C416 0.950 . S
H409 C421 0.950 . S
H410 C418 0.950 1_655 S
H411 C420 0.950 . S
H412 C422 0.950 . S
H413 C424 0.950 1_455 S
H414 C426 0.950 . S
H415 C427 0.950 . S
C416 H408 0.950 . S
C416 C417 1.386 . S
C416 C418 1.391 . S
C417 C416 1.386 . S
C417 C421 1.393 . S
C418 H410 0.950 1_455 S
C418 C416 1.391 . S
C418 C419 1.400 . S
C419 C418 1.400 . S
C419 C420 1.398 . S
C419 C425 1.491 1_455 S
C420 H411 0.950 . S
C420 C419 1.398 . S
C420 C421 1.391 . S
C421 H409 0.950 . S
C421 C417 1.393 . S
C421 C420 1.391 . S
C422 H412 0.950 . S
C422 C423 1.386 . S
C422 C424 1.391 . S
C423 C422 1.386 . S
C423 C427 1.393 . S
C424 H413 0.950 1_655 S
C424 C422 1.391 . S
C424 C425 1.400 . S
C425 C419 1.491 1_655 S
C425 C424 1.400 . S
C425 C426 1.398 . S
C426 H414 0.950 . S
C426 C425 1.398 . S
C426 C427 1.391 . S
C427 H415 0.950 . S
C427 C423 1.393 . S
C427 C426 1.391 . S
H428 C436 0.950 . S
H429 C441 0.950 . S
H430 C438 0.950 . S
H431 C440 0.950 1_655 S
H432 C442 0.950 . S
H433 C444 0.950 . S
H434 C446 0.950 1_455 S
H435 C447 0.950 . S
C436 H428 0.950 . S
C436 C437 1.386 . S
C436 C438 1.391 . S
C437 C436 1.386 . S
C437 C441 1.393 . S
C438 H430 0.950 . S
C438 C436 1.391 . S
C438 C439 1.400 . S
C439 C438 1.400 . S
C439 C440 1.398 . S
C439 C445 1.491 1_455 S
C440 H431 0.950 1_455 S
C440 C439 1.398 . S
C440 C441 1.391 . S
C441 H429 0.950 . S
C441 C437 1.393 . S
C441 C440 1.391 . S
C442 H432 0.950 . S
C442 C443 1.386 . S
C442 C444 1.391 . S
C443 C442 1.386 . S
C443 C447 1.393 . S
C444 H433 0.950 . S
C444 C442 1.391 . S
C444 C445 1.400 . S
C445 C439 1.491 1_655 S
C445 C444 1.400 . S
C445 C446 1.398 . S
C446 H434 0.950 1_655 S
C446 C445 1.398 . S
C446 C447 1.391 . S
C447 H435 0.950 . S
C447 C443 1.393 . S
C447 C446 1.391 . S
H448 C456 0.950 . S
H449 C461 0.950 . S
H450 C458 0.950 . S
H451 C460 0.950 . S
H452 C462 0.950 . S
H453 C464 0.950 . S
H454 C466 0.950 . S
H455 C467 0.950 . S
C456 H448 0.950 . S
C456 C457 1.386 . S
C456 C458 1.391 . S
C457 C456 1.386 . S
C457 C461 1.393 . S
C458 H450 0.950 . S
C458 C456 1.391 . S
C458 C459 1.400 . S
C459 C458 1.400 . S
C459 C460 1.398 . S
C459 C465 1.491 . S
C460 H451 0.950 . S
C460 C459 1.398 . S
C460 C461 1.391 . S
C461 H449 0.950 . S
C461 C457 1.393 . S
C461 C460 1.391 . S
C462 H452 0.950 . S
C462 C463 1.386 . S
C462 C464 1.391 . S
C463 C462 1.386 . S
C463 C467 1.393 . S
C464 H453 0.950 . S
C464 C462 1.391 . S
C464 C465 1.400 . S
C465 C459 1.491 . S
C465 C464 1.400 . S
C465 C466 1.398 . S
C466 H454 0.950 . S
C466 C465 1.398 . S
C466 C467 1.391 . S
C467 H455 0.950 . S
C467 C463 1.393 . S
C467 C466 1.391 . S
H468 C476 0.950 . S
H469 C481 0.950 . S
H470 C478 0.950 . S
H471 C480 0.950 . S
H472 C482 0.950 . S
H473 C484 0.950 . S
H474 C486 0.950 . S
H475 C487 0.950 . S
C476 H468 0.950 . S
C476 C477 1.386 . S
C476 C478 1.391 . S
C477 C476 1.386 . S
C477 C481 1.393 . S
C478 H470 0.950 . S
C478 C476 1.391 . S
C478 C479 1.400 . S
C479 C478 1.400 . S
C479 C480 1.398 . S
C479 C485 1.491 . S
C480 H471 0.950 . S
C480 C479 1.398 . S
C480 C481 1.391 . S
C481 H469 0.950 . S
C481 C477 1.393 . S
C481 C480 1.391 . S
C482 H472 0.950 . S
C482 C483 1.386 . S
C482 C484 1.391 . S
C483 C482 1.386 . S
C483 C487 1.393 . S
C484 H473 0.950 . S
C484 C482 1.391 . S
C484 C485 1.400 . S
C485 C479 1.491 . S
C485 C484 1.400 . S
C485 C486 1.398 . S
C486 H474 0.950 . S
C486 C485 1.398 . S
C486 C487 1.391 . S
C487 H475 0.950 . S
C487 C483 1.393 . S
C487 C486 1.391 . S
H488 C496 0.950 . S
H489 C501 0.950 . S
H490 C498 0.950 . S
H491 C500 0.950 1_655 S
H492 C502 0.950 . S
H493 C504 0.950 . S
H494 C506 0.950 1_455 S
H495 C507 0.950 . S
C496 H488 0.950 . S
C496 C497 1.386 . S
C496 C498 1.391 . S
C497 C496 1.386 . S
C497 C501 1.393 . S
C498 H490 0.950 . S
C498 C496 1.391 . S
C498 C499 1.400 . S
C499 C498 1.400 . S
C499 C500 1.398 . S
C499 C505 1.491 1_455 S
C500 H491 0.950 1_455 S
C500 C499 1.398 . S
C500 C501 1.391 . S
C501 H489 0.950 . S
C501 C497 1.393 . S
C501 C500 1.391 . S
C502 H492 0.950 . S
C502 C503 1.386 . S
C502 C504 1.391 . S
C503 C502 1.386 . S
C503 C507 1.393 . S
C504 H493 0.950 . S
C504 C502 1.391 . S
C504 C505 1.400 . S
C505 C499 1.491 1_655 S
C505 C504 1.400 . S
C505 C506 1.398 . S
C506 H494 0.950 1_655 S
C506 C505 1.398 . S
C506 C507 1.391 . S
C507 H495 0.950 . S
C507 C503 1.393 . S
C507 C506 1.391 . S
H508 C516 0.950 . S
H509 C521 0.950 . S
H510 C518 0.950 1_655 S
H511 C520 0.950 . S
H512 C522 0.950 . S
H513 C524 0.950 1_455 S
H514 C526 0.950 . S
H515 C527 0.950 . S
C516 H508 0.950 . S
C516 C517 1.386 . S
C516 C518 1.391 . S
C517 C516 1.386 . S
C517 C521 1.393 . S
C518 H510 0.950 1_455 S
C518 C516 1.391 . S
C518 C519 1.400 . S
C519 C518 1.400 . S
C519 C520 1.398 . S
C519 C525 1.491 1_455 S
C520 H511 0.950 . S
C520 C519 1.398 . S
C520 C521 1.391 . S
C521 H509 0.950 . S
C521 C517 1.393 . S
C521 C520 1.391 . S
C522 H512 0.950 . S
C522 C523 1.386 . S
C522 C524 1.391 . S
C523 C522 1.386 . S
C523 C527 1.393 . S
C524 H513 0.950 1_655 S
C524 C522 1.391 . S
C524 C525 1.400 . S
C525 C519 1.491 1_655 S
C525 C524 1.400 . S
C525 C526 1.398 . S
C526 H514 0.950 . S
C526 C525 1.398 . S
C526 C527 1.391 . S
C527 H515 0.950 . S
C527 C523 1.393 . S
C527 C526 1.391 . S
H528 C536 0.950 . S
H529 C541 0.950 . S
H530 C538 0.950 1_556 S
H531 C540 0.950 . S
H532 C542 0.950 . S
H533 C544 0.950 1_554 S
H534 C546 0.950 . S
H535 C547 0.950 . S
C536 H528 0.950 . S
C536 C537 1.386 . S
C536 C538 1.391 . S
C537 C536 1.386 . S
C537 C541 1.393 . S
C538 H530 0.950 1_554 S
C538 C536 1.391 . S
C538 C539 1.400 . S
C539 C538 1.400 . S
C539 C540 1.398 1_545 S
C539 C545 1.491 1_544 S
C540 H531 0.950 . S
C540 C539 1.398 1_565 S
C540 C541 1.391 1_565 S
C541 H529 0.950 . S
C541 C537 1.393 . S
C541 C540 1.391 1_545 S
C542 H532 0.950 . S
C542 C543 1.386 . S
C542 C544 1.391 . S
C543 C542 1.386 . S
C543 C547 1.393 . S
C544 H533 0.950 1_556 S
C544 C542 1.391 . S
C544 C545 1.400 . S
C545 C539 1.491 1_566 S
C545 C544 1.400 . S
C545 C546 1.398 1_565 S
C546 H534 0.950 . S
C546 C545 1.398 1_545 S
C546 C547 1.391 1_545 S
C547 H535 0.950 . S
C547 C543 1.393 . S
C547 C546 1.391 1_565 S
H548 C556 0.950 . S
H549 C561 0.950 . S
H550 C558 0.950 . S
H551 C560 0.950 . S
H552 C562 0.950 . S
H553 C564 0.950 . S
H554 C566 0.950 . S
H555 C567 0.950 . S
C556 H548 0.950 . S
C556 C557 1.386 . S
C556 C558 1.391 . S
C557 C556 1.386 . S
C557 C561 1.393 . S
C558 H550 0.950 . S
C558 C556 1.391 . S
C558 C559 1.400 . S
C559 C558 1.400 . S
C559 C560 1.398 . S
C559 C565 1.491 . S
C560 H551 0.950 . S
C560 C559 1.398 . S
C560 C561 1.391 . S
C561 H549 0.950 . S
C561 C557 1.393 . S
C561 C560 1.391 . S
C562 H552 0.950 . S
C562 C563 1.386 . S
C562 C564 1.391 . S
C563 C562 1.386 . S
C563 C567 1.393 . S
C564 H553 0.950 . S
C564 C562 1.391 . S
C564 C565 1.400 . S
C565 C559 1.491 . S
C565 C564 1.400 . S
C565 C566 1.398 . S
C566 H554 0.950 . S
C566 C565 1.398 . S
C566 C567 1.391 . S
C567 H555 0.950 . S
C567 C563 1.393 . S
C567 C566 1.391 . S
H568 C576 0.950 . S
H569 C581 0.950 . S
H570 C578 0.950 . S
H571 C580 0.950 1_655 S
H572 C582 0.950 . S
H573 C584 0.950 . S
H574 C586 0.950 1_455 S
H575 C587 0.950 . S
C576 H568 0.950 . S
C576 C577 1.386 . S
C576 C578 1.391 . S
C577 C576 1.386 . S
C577 C581 1.393 . S
C578 H570 0.950 . S
C578 C576 1.391 . S
C578 C579 1.400 . S
C579 C578 1.400 . S
C579 C580 1.398 . S
C579 C585 1.491 1_465 S
C580 H571 0.950 1_455 S
C580 C579 1.398 . S
C580 C581 1.391 . S
C581 H569 0.950 . S
C581 C577 1.393 . S
C581 C580 1.391 . S
C582 H572 0.950 . S
C582 C583 1.386 . S
C582 C584 1.391 . S
C583 C582 1.386 . S
C583 C587 1.393 . S
C584 H573 0.950 . S
C584 C582 1.391 . S
C584 C585 1.400 . S
C585 C579 1.491 1_645 S
C585 C584 1.400 . S
C585 C586 1.398 . S
C586 H574 0.950 1_655 S
C586 C585 1.398 . S
C586 C587 1.391 . S
C587 H575 0.950 . S
C587 C583 1.393 . S
C587 C586 1.391 . S
H588 C596 0.950 . S
H589 C601 0.950 . S
H590 C598 0.950 . S
H591 C600 0.950 . S
H592 C602 0.950 . S
H593 C604 0.950 . S
H594 C606 0.950 . S
H595 C607 0.950 . S
C596 H588 0.950 . S
C596 C597 1.386 . S
C596 C598 1.391 . S
C597 C596 1.386 . S
C597 C601 1.393 . S
C598 H590 0.950 . S
C598 C596 1.391 . S
C598 C599 1.400 . S
C599 C598 1.400 . S
C599 C600 1.398 . S
C599 C605 1.491 . S
C600 H591 0.950 . S
C600 C599 1.398 . S
C600 C601 1.391 . S
C601 H589 0.950 . S
C601 C597 1.393 . S
C601 C600 1.391 . S
C602 H592 0.950 . S
C602 C603 1.386 . S
C602 C604 1.391 . S
C603 C602 1.386 . S
C603 C607 1.393 . S
C604 H593 0.950 . S
C604 C602 1.391 . S
C604 C605 1.400 . S
C605 C599 1.491 . S
C605 C604 1.400 . S
C605 C606 1.398 . S
C606 H594 0.950 . S
C606 C605 1.398 . S
C606 C607 1.391 . S
C607 H595 0.950 . S
C607 C603 1.393 . S
C607 C606 1.391 . S
H608 C616 0.950 . S
H609 C621 0.950 . S
H610 C618 0.950 . S
H611 C620 0.950 . S
H612 C622 0.950 . S
H613 C624 0.950 . S
H614 C626 0.950 . S
H615 C627 0.950 . S
C616 H608 0.950 . S
C616 C617 1.386 . S
C616 C618 1.391 . S
C617 C616 1.386 . S
C617 C621 1.393 . S
C618 H610 0.950 . S
C618 C616 1.391 . S
C618 C619 1.400 . S
C619 C618 1.400 . S
C619 C620 1.398 . S
C619 C625 1.491 . S
C620 H611 0.950 . S
C620 C619 1.398 . S
C620 C621 1.391 . S
C621 H609 0.950 . S
C621 C617 1.393 . S
C621 C620 1.391 . S
C622 H612 0.950 . S
C622 C623 1.386 . S
C622 C624 1.391 . S
C623 C622 1.386 . S
C623 C627 1.393 . S
C624 H613 0.950 . S
C624 C622 1.391 . S
C624 C625 1.400 . S
C625 C619 1.491 . S
C625 C624 1.400 . S
C625 C626 1.398 . S
C626 H614 0.950 . S
C626 C625 1.398 . S
C626 C627 1.391 . S
C627 H615 0.950 . S
C627 C623 1.393 . S
C627 C626 1.391 . S
H628 C636 0.950 . S
H629 C641 0.950 . S
H630 C638 0.950 . S
H631 C640 0.950 . S
H632 C642 0.950 . S
H633 C644 0.950 . S
H634 C646 0.950 . S
H635 C647 0.950 . S
C636 H628 0.950 . S
C636 C637 1.386 . S
C636 C638 1.391 . S
C637 C636 1.386 . S
C637 C641 1.393 . S
C638 H630 0.950 . S
C638 C636 1.391 . S
C638 C639 1.400 . S
C639 C638 1.400 . S
C639 C640 1.398 . S
C639 C645 1.491 . S
C640 H631 0.950 . S
C640 C639 1.398 . S
C640 C641 1.391 . S
C641 H629 0.950 . S
C641 C637 1.393 . S
C641 C640 1.391 . S
C642 H632 0.950 . S
C642 C643 1.386 . S
C642 C644 1.391 . S
C643 C642 1.386 . S
C643 C647 1.393 . S
C644 H633 0.950 . S
C644 C642 1.391 . S
C644 C645 1.400 . S
C645 C639 1.491 . S
C645 C644 1.400 . S
C645 C646 1.398 . S
C646 H634 0.950 . S
C646 C645 1.398 . S
C646 C647 1.391 . S
C647 H635 0.950 . S
C647 C643 1.393 . S
C647 C646 1.391 . S
H648 C656 0.950 . S
H649 C661 0.950 . S
H650 C658 0.950 . S
H651 C660 0.950 . S
H652 C662 0.950 . S
H653 C664 0.950 . S
H654 C666 0.950 . S
H655 C667 0.950 . S
C656 H648 0.950 . S
C656 C657 1.386 . S
C656 C658 1.391 . S
C657 C656 1.386 . S
C657 C661 1.393 . S
C658 H650 0.950 . S
C658 C656 1.391 . S
C658 C659 1.400 . S
C659 C658 1.400 . S
C659 C660 1.398 . S
C659 C665 1.491 1_455 S
C660 H651 0.950 . S
C660 C659 1.398 . S
C660 C661 1.391 . S
C661 H649 0.950 . S
C661 C657 1.393 . S
C661 C660 1.391 . S
C662 H652 0.950 . S
C662 C663 1.386 . S
C662 C664 1.391 . S
C663 C662 1.386 . S
C663 C667 1.393 . S
C664 H653 0.950 . S
C664 C662 1.391 . S
C664 C665 1.400 . S
C665 C659 1.491 1_655 S
C665 C664 1.400 . S
C665 C666 1.398 . S
C666 H654 0.950 . S
C666 C665 1.398 . S
C666 C667 1.391 . S
C667 H655 0.950 . S
C667 C663 1.393 . S
C667 C666 1.391 . S
H668 C676 0.950 . S
H669 C681 0.950 . S
H670 C678 0.950 . S
H671 C680 0.950 1_556 S
H672 C682 0.950 . S
H673 C684 0.950 . S
H674 C686 0.950 1_554 S
H675 C687 0.950 . S
C676 H668 0.950 . S
C676 C677 1.386 . S
C676 C678 1.391 . S
C677 C676 1.386 . S
C677 C681 1.393 . S
C678 H670 0.950 . S
C678 C676 1.391 . S
C678 C679 1.400 . S
C679 C678 1.400 . S
C679 C680 1.398 . S
C679 C685 1.491 1_554 S
C680 H671 0.950 1_554 S
C680 C679 1.398 . S
C680 C681 1.391 . S
C681 H669 0.950 . S
C681 C677 1.393 . S
C681 C680 1.391 . S
C682 H672 0.950 . S
C682 C683 1.386 . S
C682 C684 1.391 . S
C683 C682 1.386 . S
C683 C687 1.393 . S
C684 H673 0.950 . S
C684 C682 1.391 . S
C684 C685 1.400 . S
C685 C679 1.491 1_556 S
C685 C684 1.400 . S
C685 C686 1.398 . S
C686 H674 0.950 1_556 S
C686 C685 1.398 . S
C686 C687 1.391 . S
C687 H675 0.950 . S
C687 C683 1.393 . S
C687 C686 1.391 . S
H688 C696 0.950 . S
H689 C701 0.950 . S
H690 C698 0.950 . S
H691 C700 0.950 . S
H692 C702 0.950 . S
H693 C704 0.950 . S
H694 C706 0.950 . S
H695 C707 0.950 . S
C696 H688 0.950 . S
C696 C697 1.386 . S
C696 C698 1.391 . S
C697 C696 1.386 . S
C697 C701 1.393 . S
C698 H690 0.950 . S
C698 C696 1.391 . S
C698 C699 1.400 . S
C699 C698 1.400 . S
C699 C700 1.398 . S
C699 C705 1.491 . S
C700 H691 0.950 . S
C700 C699 1.398 . S
C700 C701 1.391 . S
C701 H689 0.950 . S
C701 C697 1.393 . S
C701 C700 1.391 . S
C702 H692 0.950 . S
C702 C703 1.386 . S
C702 C704 1.391 . S
C703 C702 1.386 . S
C703 C707 1.393 . S
C704 H693 0.950 . S
C704 C702 1.391 . S
C704 C705 1.400 . S
C705 C699 1.491 . S
C705 C704 1.400 . S
C705 C706 1.398 . S
C706 H694 0.950 . S
C706 C705 1.398 . S
C706 C707 1.391 . S
C707 H695 0.950 . S
C707 C703 1.393 . S
C707 C706 1.391 . S
H708 C716 0.950 . S
H709 C721 0.950 . S
H710 C718 0.950 . S
H711 C720 0.950 . S
H712 C722 0.950 . S
H713 C724 0.950 . S
H714 C726 0.950 . S
H715 C727 0.950 . S
C716 H708 0.950 . S
C716 C717 1.386 . S
C716 C718 1.391 . S
C717 C716 1.386 . S
C717 C721 1.393 . S
C718 H710 0.950 . S
C718 C716 1.391 . S
C718 C719 1.400 . S
C719 C718 1.400 . S
C719 C720 1.398 . S
C719 C725 1.491 . S
C720 H711 0.950 . S
C720 C719 1.398 . S
C720 C721 1.391 . S
C721 H709 0.950 . S
C721 C717 1.393 . S
C721 C720 1.391 . S
C722 H712 0.950 . S
C722 C723 1.386 . S
C722 C724 1.391 . S
C723 C722 1.386 . S
C723 C727 1.393 . S
C724 H713 0.950 . S
C724 C722 1.391 . S
C724 C725 1.400 . S
C725 C719 1.491 . S
C725 C724 1.400 . S
C725 C726 1.398 . S
C726 H714 0.950 . S
C726 C725 1.398 . S
C726 C727 1.391 . S
C727 H715 0.950 . S
C727 C723 1.393 . S
C727 C726 1.391 . S
H728 C736 0.950 . S
H729 C741 0.950 . S
H730 C738 0.950 . S
H731 C740 0.950 . S
H732 C742 0.950 . S
H733 C744 0.950 . S
H734 C746 0.950 . S
H735 C747 0.950 . S
C736 H728 0.950 . S
C736 C737 1.386 . S
C736 C738 1.391 . S
C737 C736 1.386 . S
C737 C741 1.393 . S
C738 H730 0.950 . S
C738 C736 1.391 . S
C738 C739 1.400 . S
C739 C738 1.400 . S
C739 C740 1.398 . S
C739 C745 1.491 . S
C740 H731 0.950 . S
C740 C739 1.398 . S
C740 C741 1.391 . S
C741 H729 0.950 . S
C741 C737 1.393 . S
C741 C740 1.391 . S
C742 H732 0.950 . S
C742 C743 1.386 . S
C742 C744 1.391 . S
C743 C742 1.386 . S
C743 C747 1.393 . S
C744 H733 0.950 . S
C744 C742 1.391 . S
C744 C745 1.400 . S
C745 C739 1.491 . S
C745 C744 1.400 . S
C745 C746 1.398 . S
C746 H734 0.950 . S
C746 C745 1.398 . S
C746 C747 1.391 . S
C747 H735 0.950 . S
C747 C743 1.393 . S
C747 C746 1.391 . S
H748 C756 0.950 . S
H749 C761 0.950 . S
H750 C758 0.950 . S
H751 C760 0.950 . S
H752 C762 0.950 . S
H753 C764 0.950 . S
H754 C766 0.950 . S
H755 C767 0.950 . S
C756 H748 0.950 . S
C756 C757 1.386 . S
C756 C758 1.391 . S
C757 C756 1.386 . S
C757 C761 1.393 . S
C758 H750 0.950 . S
C758 C756 1.391 . S
C758 C759 1.400 . S
C759 C758 1.400 . S
C759 C760 1.398 . S
C759 C765 1.491 . S
C760 H751 0.950 . S
C760 C759 1.398 . S
C760 C761 1.391 . S
C761 H749 0.950 . S
C761 C757 1.393 . S
C761 C760 1.391 . S
C762 H752 0.950 . S
C762 C763 1.386 . S
C762 C764 1.391 . S
C763 C762 1.386 . S
C763 C767 1.393 . S
C764 H753 0.950 . S
C764 C762 1.391 . S
C764 C765 1.400 . S
C765 C759 1.491 . S
C765 C764 1.400 . S
C765 C766 1.398 . S
C766 H754 0.950 . S
C766 C765 1.398 . S
C766 C767 1.391 . S
C767 H755 0.950 . S
C767 C763 1.393 . S
C767 C766 1.391 . S
H768 C776 0.950 . S
H769 C781 0.950 . S
H770 C778 0.950 . S
H771 C780 0.950 . S
H772 C782 0.950 . S
H773 C784 0.950 . S
H774 C786 0.950 . S
H775 C787 0.950 . S
C776 H768 0.950 . S
C776 C777 1.386 . S
C776 C778 1.391 . S
C777 C776 1.386 . S
C777 C781 1.393 . S
C778 H770 0.950 . S
C778 C776 1.391 . S
C778 C779 1.400 . S
C779 C778 1.400 . S
C779 C780 1.398 . S
C779 C785 1.491 . S
C780 H771 0.950 . S
C780 C779 1.398 . S
C780 C781 1.391 . S
C781 H769 0.950 . S
C781 C777 1.393 . S
C781 C780 1.391 . S
C782 H772 0.950 . S
C782 C783 1.386 . S
C782 C784 1.391 . S
C783 C782 1.386 . S
C783 C787 1.393 . S
C784 H773 0.950 . S
C784 C782 1.391 . S
C784 C785 1.400 . S
C785 C779 1.491 . S
C785 C784 1.400 . S
C785 C786 1.398 . S
C786 H774 0.950 . S
C786 C785 1.398 . S
C786 C787 1.391 . S
C787 H775 0.950 . S
C787 C783 1.393 . S
C787 C786 1.391 . S
H788 C796 0.950 . S
H789 C801 0.950 . S
H790 C798 0.950 . S
H791 C800 0.950 . S
H792 C802 0.950 . S
H793 C804 0.950 . S
H794 C806 0.950 . S
H795 C807 0.950 . S
C796 H788 0.950 . S
C796 C797 1.386 . S
C796 C798 1.391 . S
C797 C796 1.386 . S
C797 C801 1.393 . S
C798 H790 0.950 . S
C798 C796 1.391 . S
C798 C799 1.400 . S
C799 C798 1.400 . S
C799 C800 1.398 . S
C799 C805 1.491 . S
C800 H791 0.950 . S
C800 C799 1.398 . S
C800 C801 1.391 . S
C801 H789 0.950 . S
C801 C797 1.393 . S
C801 C800 1.391 . S
C802 H792 0.950 . S
C802 C803 1.386 . S
C802 C804 1.391 . S
C803 C802 1.386 . S
C803 C807 1.393 . S
C804 H793 0.950 . S
C804 C802 1.391 . S
C804 C805 1.400 . S
C805 C799 1.491 . S
C805 C804 1.400 . S
C805 C806 1.398 . S
C806 H794 0.950 . S
C806 C805 1.398 . S
C806 C807 1.391 . S
C807 H795 0.950 . S
C807 C803 1.393 . S
C807 C806 1.391 . S
H808 C816 0.950 . S
H809 C821 0.950 . S
H810 C818 0.950 . S
H811 C820 0.950 . S
H812 C822 0.950 . S
H813 C824 0.950 . S
H814 C826 0.950 . S
H815 C827 0.950 . S
C816 H808 0.950 . S
C816 C817 1.386 . S
C816 C818 1.391 . S
C817 C816 1.386 . S
C817 C821 1.393 . S
C818 H810 0.950 . S
C818 C816 1.391 . S
C818 C819 1.400 . S
C819 C818 1.400 . S
C819 C820 1.398 . S
C819 C825 1.491 . S
C820 H811 0.950 . S
C820 C819 1.398 . S
C820 C821 1.391 . S
C821 H809 0.950 . S
C821 C817 1.393 . S
C821 C820 1.391 . S
C822 H812 0.950 . S
C822 C823 1.386 . S
C822 C824 1.391 . S
C823 C822 1.386 . S
C823 C827 1.393 . S
C824 H813 0.950 . S
C824 C822 1.391 . S
C824 C825 1.400 . S
C825 C819 1.491 . S
C825 C824 1.400 . S
C825 C826 1.398 . S
C826 H814 0.950 . S
C826 C825 1.398 . S
C826 C827 1.391 . S
C827 H815 0.950 . S
C827 C823 1.393 . S
C827 C826 1.391 . S
H828 C836 0.950 . S
H829 C841 0.950 . S
H830 C838 0.950 . S
H831 C840 0.950 . S
H832 C842 0.950 . S
H833 C844 0.950 . S
H834 C846 0.950 . S
H835 C847 0.950 . S
C836 H828 0.950 . S
C836 C837 1.386 . S
C836 C838 1.391 . S
C837 C836 1.386 . S
C837 C841 1.393 . S
C838 H830 0.950 . S
C838 C836 1.391 . S
C838 C839 1.400 . S
C839 C838 1.400 . S
C839 C840 1.398 . S
C839 C845 1.491 . S
C840 H831 0.950 . S
C840 C839 1.398 . S
C840 C841 1.391 . S
C841 H829 0.950 . S
C841 C837 1.393 . S
C841 C840 1.391 . S
C842 H832 0.950 . S
C842 C843 1.386 . S
C842 C844 1.391 . S
C843 C842 1.386 . S
C843 C847 1.393 . S
C844 H833 0.950 . S
C844 C842 1.391 . S
C844 C845 1.400 . S
C845 C839 1.491 . S
C845 C844 1.400 . S
C845 C846 1.398 . S
C846 H834 0.950 . S
C846 C845 1.398 . S
C846 C847 1.391 . S
C847 H835 0.950 . S
C847 C843 1.393 . S
C847 C846 1.391 . S
H848 C856 0.950 . S
H849 C861 0.950 . S
H850 C858 0.950 . S
H851 C860 0.950 . S
H852 C862 0.950 . S
H853 C864 0.950 . S
H854 C866 0.950 . S
H855 C867 0.950 . S
C856 H848 0.950 . S
C856 C857 1.386 . S
C856 C858 1.391 . S
C857 C856 1.386 . S
C857 C861 1.393 . S
C858 H850 0.950 . S
C858 C856 1.391 . S
C858 C859 1.400 . S
C859 C858 1.400 . S
C859 C860 1.398 . S
C859 C865 1.491 . S
C860 H851 0.950 . S
C860 C859 1.398 . S
C860 C861 1.391 . S
C861 H849 0.950 . S
C861 C857 1.393 . S
C861 C860 1.391 . S
C862 H852 0.950 . S
C862 C863 1.386 . S
C862 C864 1.391 . S
C863 C862 1.386 . S
C863 C867 1.393 . S
C864 H853 0.950 . S
C864 C862 1.391 . S
C864 C865 1.400 . S
C865 C859 1.491 . S
C865 C864 1.400 . S
C865 C866 1.398 . S
C866 H854 0.950 . S
C866 C865 1.398 . S
C866 C867 1.391 . S
C867 H855 0.950 . S
C867 C863 1.393 . S
C867 C866 1.391 . S
H868 C876 0.950 . S
H869 C881 0.950 . S
H870 C878 0.950 . S
H871 C880 0.950 . S
H872 C882 0.950 1_455 S
H873 C884 0.950 . S
H874 C886 0.950 . S
H875 C887 0.950 . S
C876 H868 0.950 . S
C876 C877 1.386 . S
C876 C878 1.391 . S
C877 C876 1.386 . S
C877 C881 1.393 . S
C878 H870 0.950 . S
C878 C876 1.391 . S
C878 C879 1.400 . S
C879 C878 1.400 . S
C879 C880 1.398 . S
C879 C885 1.491 . S
C880 H871 0.950 . S
C880 C879 1.398 . S
C880 C881 1.391 . S
C881 H869 0.950 . S
C881 C877 1.393 . S
C881 C880 1.391 . S
C882 H872 0.950 1_655 S
C882 C883 1.386 . S
C882 C884 1.391 1_545 S
C883 C882 1.386 . S
C883 C887 1.393 . S
C884 H873 0.950 . S
C884 C882 1.391 1_565 S
C884 C885 1.400 . S
C885 C879 1.491 . S
C885 C884 1.400 . S
C885 C886 1.398 1_565 S
C886 H874 0.950 . S
C886 C885 1.398 1_545 S
C886 C887 1.391 . S
C887 H875 0.950 . S
C887 C883 1.393 . S
C887 C886 1.391 . S
H888 C896 0.950 . S
H889 C901 0.950 . S
H890 C898 0.950 . S
H891 C900 0.950 . S
H892 C902 0.950 . S
H893 C904 0.950 . S
H894 C906 0.950 . S
H895 C907 0.950 . S
C896 H888 0.950 . S
C896 C897 1.386 . S
C896 C898 1.391 . S
C897 C896 1.386 . S
C897 C901 1.393 . S
C898 H890 0.950 . S
C898 C896 1.391 . S
C898 C899 1.400 . S
C899 C898 1.400 . S
C899 C900 1.398 . S
C899 C905 1.491 . S
C900 H891 0.950 . S
C900 C899 1.398 . S
C900 C901 1.391 . S
C901 H889 0.950 . S
C901 C897 1.393 . S
C901 C900 1.391 . S
C902 H892 0.950 . S
C902 C903 1.386 . S
C902 C904 1.391 . S
C903 C902 1.386 . S
C903 C907 1.393 . S
C904 H893 0.950 . S
C904 C902 1.391 . S
C904 C905 1.400 . S
C905 C899 1.491 . S
C905 C904 1.400 . S
C905 C906 1.398 . S
C906 H894 0.950 . S
C906 C905 1.398 . S
C906 C907 1.391 . S
C907 H895 0.950 . S
C907 C903 1.393 . S
C907 C906 1.391 . S
H908 C916 0.950 . S
H909 C921 0.950 . S
H910 C918 0.950 1_565 S
H911 C920 0.950 . S
H912 C922 0.950 . S
H913 C924 0.950 . S
H914 C926 0.950 . S
H915 C927 0.950 . S
C916 H908 0.950 . S
C916 C917 1.386 . S
C916 C918 1.391 . S
C917 C916 1.386 . S
C917 C921 1.393 . S
C918 H910 0.950 1_545 S
C918 C916 1.391 . S
C918 C919 1.400 . S
C919 C918 1.400 . S
C919 C920 1.398 . S
C919 C925 1.491 . S
C920 H911 0.950 . S
C920 C919 1.398 . S
C920 C921 1.391 . S
C921 H909 0.950 . S
C921 C917 1.393 . S
C921 C920 1.391 . S
C922 H912 0.950 . S
C922 C923 1.386 1_545 S
C922 C924 1.391 . S
C923 C922 1.386 1_565 S
C923 C927 1.393 . S
C924 H913 0.950 . S
C924 C922 1.391 . S
C924 C925 1.400 . S
C925 C919 1.491 . S
C925 C924 1.400 . S
C925 C926 1.398 1_545 S
C926 H914 0.950 . S
C926 C925 1.398 1_565 S
C926 C927 1.391 . S
C927 H915 0.950 . S
C927 C923 1.393 . S
C927 C926 1.391 . S
H928 C936 0.950 . S
H929 C941 0.950 . S
H930 C938 0.950 . S
H931 C940 0.950 . S
H932 C942 0.950 . S
H933 C944 0.950 . S
H934 C946 0.950 . S
H935 C947 0.950 . S
C936 H928 0.950 . S
C936 C937 1.386 . S
C936 C938 1.391 . S
C937 C936 1.386 . S
C937 C941 1.393 . S
C938 H930 0.950 . S
C938 C936 1.391 . S
C938 C939 1.400 . S
C939 C938 1.400 . S
C939 C940 1.398 . S
C939 C945 1.491 . S
C940 H931 0.950 . S
C940 C939 1.398 . S
C940 C941 1.391 . S
C941 H929 0.950 . S
C941 C937 1.393 . S
C941 C940 1.391 . S
C942 H932 0.950 . S
C942 C943 1.386 . S
C942 C944 1.391 . S
C943 C942 1.386 . S
C943 C947 1.393 . S
C944 H933 0.950 . S
C944 C942 1.391 . S
C944 C945 1.400 . S
C945 C939 1.491 . S
C945 C944 1.400 . S
C945 C946 1.398 . S
C946 H934 0.950 . S
C946 C945 1.398 . S
C946 C947 1.391 . S
C947 H935 0.950 . S
C947 C943 1.393 . S
C947 C946 1.391 . S
H948 C956 0.950 1_655 S
H949 C961 0.950 . S
H950 C958 0.950 . S
H951 C960 0.950 . S
H952 C962 0.950 1_565 S
H953 C964 0.950 . S
H954 C966 0.950 . S
H955 C967 0.950 . S
C956 H948 0.950 1_455 S
C956 C957 1.386 1_545 S
C956 C958 1.391 . S
C957 C956 1.386 1_565 S
C957 C961 1.393 . S
C958 H950 0.950 . S
C958 C956 1.391 . S
C958 C959 1.400 . S
C959 C958 1.400 . S
C959 C960 1.398 1_545 S
C959 C965 1.491 . S
C960 H951 0.950 . S
C960 C959 1.398 1_565 S
C960 C961 1.391 . S
C961 H949 0.950 . S
C961 C957 1.393 . S
C961 C960 1.391 . S
C962 H952 0.950 1_545 S
C962 C963 1.386 . S
C962 C964 1.391 1_545 S
C963 C962 1.386 . S
C963 C967 1.393 . S
C964 H953 0.950 . S
C964 C962 1.391 1_565 S
C964 C965 1.400 1_565 S
C965 C959 1.491 . S
C965 C964 1.400 1_545 S
C965 C966 1.398 . S
C966 H954 0.950 . S
C966 C965 1.398 . S
C966 C967 1.391 . S
C967 H955 0.950 . S
C967 C963 1.393 . S
C967 C966 1.391 . S
H968 C976 0.950 . S
H969 C981 0.950 . S
H970 C978 0.950 . S
H971 C980 0.950 . S
H972 C982 0.950 . S
H973 C984 0.950 . S
H974 C986 0.950 . S
H975 C987 0.950 . S
C976 H968 0.950 . S
C976 C977 1.386 . S
C976 C978 1.391 . S
C977 C976 1.386 . S
C977 C981 1.393 . S
C978 H970 0.950 . S
C978 C976 1.391 . S
C978 C979 1.400 . S
C979 C978 1.400 . S
C979 C980 1.398 . S
C979 C985 1.491 . S
C980 H971 0.950 . S
C980 C979 1.398 . S
C980 C981 1.391 . S
C981 H969 0.950 . S
C981 C977 1.393 . S
C981 C980 1.391 . S
C982 H972 0.950 . S
C982 C983 1.386 . S
C982 C984 1.391 . S
C983 C982 1.386 . S
C983 C987 1.393 . S
C984 H973 0.950 . S
C984 C982 1.391 . S
C984 C985 1.400 . S
C985 C979 1.491 . S
C985 C984 1.400 . S
C985 C986 1.398 . S
C986 H974 0.950 . S
C986 C985 1.398 . S
C986 C987 1.391 . S
C987 H975 0.950 . S
C987 C983 1.393 . S
C987 C986 1.391 . S
H988 C996 0.950 . S
H989 C1001 0.950 . S
H990 C998 0.950 . S
H991 C1000 0.950 . S
H992 C1002 0.950 . S
H993 C1004 0.950 . S
H994 C1006 0.950 1_545 S
H995 C1007 0.950 . S
C996 H988 0.950 . S
C996 C997 1.386 . S
C996 C998 1.391 . S
C997 C996 1.386 . S
C997 C1001 1.393 1_545 S
C998 H990 0.950 . S
C998 C996 1.391 . S
C998 C999 1.400 1_545 S
C999 C998 1.400 1_565 S
C999 C1000 1.398 . S
C999 C1005 1.491 . S
C1000 H991 0.950 . S
C1000 C999 1.398 . S
C1000 C1001 1.391 . S
C1001 H989 0.950 . S
C1001 C997 1.393 1_565 S
C1001 C1000 1.391 . S
C1002 H992 0.950 . S
C1002 C1003 1.386 . S
C1002 C1004 1.391 . S
C1003 C1002 1.386 . S
C1003 C1007 1.393 . S
C1004 H993 0.950 . S
C1004 C1002 1.391 . S
C1004 C1005 1.400 . S
C1005 C999 1.491 . S
C1005 C1004 1.400 . S
C1005 C1006 1.398 . S
C1006 H994 0.950 1_565 S
C1006 C1005 1.398 . S
C1006 C1007 1.391 . S
C1007 H995 0.950 . S
C1007 C1003 1.393 . S
C1007 C1006 1.391 . S
H1008 C1016 0.950 . S
H1009 C1021 0.950 . S
H1010 C1018 0.950 . S
H1011 C1020 0.950 . S
H1012 C1022 0.950 . S
H1013 C1024 0.950 . S
H1014 C1026 0.950 . S
H1015 C1027 0.950 . S
C1016 H1008 0.950 . S
C1016 C1017 1.386 1_556 S
C1016 C1018 1.391 . S
C1017 C1016 1.386 1_554 S
C1017 C1021 1.393 . S
C1018 H1010 0.950 . S
C1018 C1016 1.391 . S
C1018 C1019 1.400 . S
C1019 C1018 1.400 . S
C1019 C1020 1.398 . S
C1019 C1025 1.491 . S
C1020 H1011 0.950 . S
C1020 C1019 1.398 . S
C1020 C1021 1.391 1_556 S
C1021 H1009 0.950 . S
C1021 C1017 1.393 . S
C1021 C1020 1.391 1_554 S
C1022 H1012 0.950 . S
C1022 C1023 1.386 . S
C1022 C1024 1.391 . S
C1023 C1022 1.386 . S
C1023 C1027 1.393 . S
C1024 H1013 0.950 . S
C1024 C1022 1.391 . S
C1024 C1025 1.400 . S
C1025 C1019 1.491 . S
C1025 C1024 1.400 . S
C1025 C1026 1.398 . S
C1026 H1014 0.950 . S
C1026 C1025 1.398 . S
C1026 C1027 1.391 . S
C1027 H1015 0.950 . S
C1027 C1023 1.393 . S
C1027 C1026 1.391 . S
H1028 C1036 0.950 . S
H1029 C1041 0.950 . S
H1030 C1038 0.950 . S
H1031 C1040 0.950 . S
H1032 C1042 0.950 . S
H1033 C1044 0.950 . S
H1034 C1046 0.950 . S
H1035 C1047 0.950 . S
C1036 H1028 0.950 . S
C1036 C1037 1.386 . S
C1036 C1038 1.391 . S
C1037 C1036 1.386 . S
C1037 C1041 1.393 . S
C1038 H1030 0.950 . S
C1038 C1036 1.391 . S
C1038 C1039 1.400 . S
C1039 C1038 1.400 . S
C1039 C1040 1.398 . S
C1039 C1045 1.491 . S
C1040 H1031 0.950 . S
C1040 C1039 1.398 . S
C1040 C1041 1.391 . S
C1041 H1029 0.950 . S
C1041 C1037 1.393 . S
C1041 C1040 1.391 . S
C1042 H1032 0.950 . S
C1042 C1043 1.386 . S
C1042 C1044 1.391 . S
C1043 C1042 1.386 . S
C1043 C1047 1.393 . S
C1044 H1033 0.950 . S
C1044 C1042 1.391 . S
C1044 C1045 1.400 . S
C1045 C1039 1.491 . S
C1045 C1044 1.400 . S
C1045 C1046 1.398 . S
C1046 H1034 0.950 . S
C1046 C1045 1.398 . S
C1046 C1047 1.391 . S
C1047 H1035 0.950 . S
C1047 C1043 1.393 . S
C1047 C1046 1.391 . S
H1048 C1056 0.950 . S
H1049 C1061 0.950 . S
H1050 C1058 0.950 . S
H1051 C1060 0.950 . S
H1052 C1062 0.950 . S
H1053 C1064 0.950 . S
H1054 C1066 0.950 . S
H1055 C1067 0.950 . S
C1056 H1048 0.950 . S
C1056 C1057 1.386 . S
C1056 C1058 1.391 . S
C1057 C1056 1.386 . S
C1057 C1061 1.393 . S
C1058 H1050 0.950 . S
C1058 C1056 1.391 . S
C1058 C1059 1.400 . S
C1059 C1058 1.400 . S
C1059 C1060 1.398 . S
C1059 C1065 1.491 . S
C1060 H1051 0.950 . S
C1060 C1059 1.398 . S
C1060 C1061 1.391 . S
C1061 H1049 0.950 . S
C1061 C1057 1.393 . S
C1061 C1060 1.391 . S
C1062 H1052 0.950 . S
C1062 C1063 1.386 . S
C1062 C1064 1.391 . S
C1063 C1062 1.386 . S
C1063 C1067 1.393 . S
C1064 H1053 0.950 . S
C1064 C1062 1.391 . S
C1064 C1065 1.400 . S
C1065 C1059 1.491 . S
C1065 C1064 1.400 . S
C1065 C1066 1.398 . S
C1066 H1054 0.950 . S
C1066 C1065 1.398 . S
C1066 C1067 1.391 . S
C1067 H1055 0.950 . S
C1067 C1063 1.393 . S
C1067 C1066 1.391 . S
H1068 C1076 0.950 . S
H1069 C1081 0.950 . S
H1070 C1078 0.950 . S
H1071 C1080 0.950 . S
H1072 C1082 0.950 . S
H1073 C1084 0.950 . S
H1074 C1086 0.950 . S
H1075 C1087 0.950 . S
C1076 H1068 0.950 . S
C1076 C1077 1.386 . S
C1076 C1078 1.391 . S
C1077 C1076 1.386 . S
C1077 C1081 1.393 . S
C1078 H1070 0.950 . S
C1078 C1076 1.391 . S
C1078 C1079 1.400 . S
C1079 C1078 1.400 . S
C1079 C1080 1.398 . S
C1079 C1085 1.491 . S
C1080 H1071 0.950 . S
C1080 C1079 1.398 . S
C1080 C1081 1.391 . S
C1081 H1069 0.950 . S
C1081 C1077 1.393 . S
C1081 C1080 1.391 . S
C1082 H1072 0.950 . S
C1082 C1083 1.386 . S
C1082 C1084 1.391 . S
C1083 C1082 1.386 . S
C1083 C1087 1.393 . S
C1084 H1073 0.950 . S
C1084 C1082 1.391 . S
C1084 C1085 1.400 . S
C1085 C1079 1.491 . S
C1085 C1084 1.400 . S
C1085 C1086 1.398 . S
C1086 H1074 0.950 . S
C1086 C1085 1.398 . S
C1086 C1087 1.391 . S
C1087 H1075 0.950 . S
C1087 C1083 1.393 . S
C1087 C1086 1.391 . S
H1088 C1096 0.950 . S
H1089 C1101 0.950 . S
H1090 C1098 0.950 . S
H1091 C1100 0.950 . S
H1092 C1102 0.955 . S
H1093 C1104 0.950 . S
H1094 C1106 0.950 . S
H1095 C1107 0.950 . S
C1096 H1088 0.950 . S
C1096 C1097 1.386 . S
C1096 C1098 1.391 . S
C1097 C1096 1.386 . S
C1097 C1101 1.393 . S
C1098 H1090 0.950 . S
C1098 C1096 1.391 . S
C1098 C1099 1.400 . S
C1099 C1098 1.400 . S
C1099 C1100 1.398 . S
C1099 C1105 1.491 . S
C1100 H1091 0.950 . S
C1100 C1099 1.398 . S
C1100 C1101 1.391 . S
C1101 H1089 0.950 . S
C1101 C1097 1.393 . S
C1101 C1100 1.391 . S
C1102 H1092 0.955 . S
C1102 C1103 1.386 1_554 S
C1102 C1104 1.391 . S
C1103 C1102 1.386 1_556 S
C1103 C1107 1.393 . S
C1104 H1093 0.950 . S
C1104 C1102 1.391 . S
C1104 C1105 1.400 . S
C1105 C1099 1.491 . S
C1105 C1104 1.400 . S
C1105 C1106 1.398 . S
C1106 H1094 0.950 . S
C1106 C1105 1.398 . S
C1106 C1107 1.391 1_554 S
C1107 H1095 0.950 . S
C1107 C1103 1.393 . S
C1107 C1106 1.391 1_556 S
H1108 C1116 0.950 . S
H1109 C1121 0.950 . S
H1110 C1118 0.950 . S
H1111 C1120 0.950 . S
H1112 C1122 0.950 . S
H1113 C1124 0.950 . S
H1114 C1126 0.950 . S
H1115 C1127 0.950 . S
C1116 H1108 0.950 . S
C1116 C1117 1.386 . S
C1116 C1118 1.391 . S
C1117 C1116 1.386 . S
C1117 C1121 1.393 . S
C1118 H1110 0.950 . S
C1118 C1116 1.391 . S
C1118 C1119 1.400 . S
C1119 C1118 1.400 . S
C1119 C1120 1.398 . S
C1119 C1125 1.491 . S
C1120 H1111 0.950 . S
C1120 C1119 1.398 . S
C1120 C1121 1.391 . S
C1121 H1109 0.950 . S
C1121 C1117 1.393 . S
C1121 C1120 1.391 . S
C1122 H1112 0.950 . S
C1122 C1123 1.386 . S
C1122 C1124 1.391 . S
C1123 C1122 1.386 . S
C1123 C1127 1.393 . S
C1124 H1113 0.950 . S
C1124 C1122 1.391 . S
C1124 C1125 1.400 . S
C1125 C1119 1.491 . S
C1125 C1124 1.400 . S
C1125 C1126 1.398 . S
C1126 H1114 0.950 . S
C1126 C1125 1.398 . S
C1126 C1127 1.391 . S
C1127 H1115 0.950 . S
C1127 C1123 1.393 . S
C1127 C1126 1.391 . S
H1128 C1136 0.950 . S
H1129 C1141 0.950 . S
H1130 C1138 0.950 . S
H1131 C1140 0.950 . S
H1132 C1142 0.950 . S
H1133 C1144 0.950 . S
H1134 C1146 0.950 . S
H1135 C1147 0.950 . S
C1136 H1128 0.950 . S
C1136 C1137 1.386 . S
C1136 C1138 1.391 . S
C1137 C1136 1.386 . S
C1137 C1141 1.393 . S
C1138 H1130 0.950 . S
C1138 C1136 1.391 . S
C1138 C1139 1.400 . S
C1139 C1138 1.400 . S
C1139 C1140 1.398 . S
C1139 C1145 1.491 . S
C1140 H1131 0.950 . S
C1140 C1139 1.398 . S
C1140 C1141 1.391 . S
C1141 H1129 0.950 . S
C1141 C1137 1.393 . S
C1141 C1140 1.391 . S
C1142 H1132 0.950 . S
C1142 C1143 1.386 . S
C1142 C1144 1.391 . S
C1143 C1142 1.386 . S
C1143 C1147 1.393 . S
C1144 H1133 0.950 . S
C1144 C1142 1.391 . S
C1144 C1145 1.400 . S
C1145 C1139 1.491 . S
C1145 C1144 1.400 . S
C1145 C1146 1.398 . S
C1146 H1134 0.950 . S
C1146 C1145 1.398 . S
C1146 C1147 1.391 . S
C1147 H1135 0.950 . S
C1147 C1143 1.393 . S
C1147 C1146 1.391 . S
H1148 C1156 0.950 . S
H1149 C1161 0.950 . S
H1150 C1158 0.950 . S
H1151 C1160 0.950 . S
H1152 C1162 0.950 . S
H1153 C1164 0.950 . S
H1154 C1166 0.950 . S
H1155 C1167 0.950 . S
C1156 H1148 0.950 . S
C1156 C1157 1.386 . S
C1156 C1158 1.391 . S
C1157 C1156 1.386 . S
C1157 C1161 1.393 . S
C1158 H1150 0.950 . S
C1158 C1156 1.391 . S
C1158 C1159 1.400 . S
C1159 C1158 1.400 . S
C1159 C1160 1.398 . S
C1159 C1165 1.491 . S
C1160 H1151 0.950 . S
C1160 C1159 1.398 . S
C1160 C1161 1.391 . S
C1161 H1149 0.950 . S
C1161 C1157 1.393 . S
C1161 C1160 1.391 . S
C1162 H1152 0.950 . S
C1162 C1163 1.386 . S
C1162 C1164 1.391 . S
C1163 C1162 1.386 . S
C1163 C1167 1.393 . S
C1164 H1153 0.950 . S
C1164 C1162 1.391 . S
C1164 C1165 1.400 . S
C1165 C1159 1.491 . S
C1165 C1164 1.400 . S
C1165 C1166 1.398 . S
C1166 H1154 0.950 . S
C1166 C1165 1.398 . S
C1166 C1167 1.391 . S
C1167 H1155 0.950 . S
C1167 C1163 1.393 . S
C1167 C1166 1.391 . S
H1168 C1176 0.950 . S
H1169 C1181 0.950 . S
H1170 C1178 0.950 . S
H1171 C1180 0.950 . S
H1172 C1182 0.950 . S
H1173 C1184 0.950 . S
H1174 C1186 0.950 . S
H1175 C1187 0.950 . S
C1176 H1168 0.950 . S
C1176 C1177 1.386 . S
C1176 C1178 1.391 . S
C1177 C1176 1.386 . S
C1177 C1181 1.393 . S
C1178 H1170 0.950 . S
C1178 C1176 1.391 . S
C1178 C1179 1.400 . S
C1179 C1178 1.400 . S
C1179 C1180 1.398 . S
C1179 C1185 1.491 . S
C1180 H1171 0.950 . S
C1180 C1179 1.398 . S
C1180 C1181 1.391 . S
C1181 H1169 0.950 . S
C1181 C1177 1.393 . S
C1181 C1180 1.391 . S
C1182 H1172 0.950 . S
C1182 C1183 1.386 . S
C1182 C1184 1.391 . S
C1183 C1182 1.386 . S
C1183 C1187 1.393 . S
C1184 H1173 0.950 . S
C1184 C1182 1.391 . S
C1184 C1185 1.400 . S
C1185 C1179 1.491 . S
C1185 C1184 1.400 . S
C1185 C1186 1.398 . S
C1186 H1174 0.950 . S
C1186 C1185 1.398 . S
C1186 C1187 1.391 . S
C1187 H1175 0.950 . S
C1187 C1183 1.393 . S
C1187 C1186 1.391 . S
H1188 C1196 0.950 . S
H1189 C1201 0.950 . S
H1190 C1198 0.959 . S
H1191 C1200 0.950 . S
H1192 C1202 0.950 . S
H1193 C1204 0.950 . S
H1194 C1206 0.950 . S
H1195 C1207 0.950 . S
C1196 H1188 0.950 . S
C1196 C1197 1.386 . S
C1196 C1198 1.391 . S
C1197 C1196 1.386 . S
C1197 C1201 1.393 . S
C1198 H1190 0.959 . S
C1198 C1196 1.391 . S
C1198 C1199 1.400 . S
C1199 C1198 1.400 . S
C1199 C1200 1.398 . S
C1199 C1205 1.491 . S
C1200 H1191 0.950 . S
C1200 C1199 1.398 . S
C1200 C1201 1.391 . S
C1201 H1189 0.950 . S
C1201 C1197 1.393 . S
C1201 C1200 1.391 . S
C1202 H1192 0.950 . S
C1202 C1203 1.386 1_565 S
C1202 C1204 1.391 . S
C1203 C1202 1.386 1_545 S
C1203 C1207 1.393 . S
C1204 H1193 0.950 . S
C1204 C1202 1.391 . S
C1204 C1205 1.400 . S
C1205 C1199 1.491 . S
C1205 C1204 1.400 . S
C1205 C1206 1.398 1_565 S
C1206 H1194 0.950 . S
C1206 C1205 1.398 1_545 S
C1206 C1207 1.391 . S
C1207 H1195 0.950 . S
C1207 C1203 1.393 . S
C1207 C1206 1.391 . S
H1208 C1216 0.950 . S
H1209 C1221 0.950 . S
H1210 C1218 0.950 . S
H1211 C1220 0.950 . S
H1212 C1222 0.950 . S
H1213 C1224 0.950 . S
H1214 C1226 0.950 . S
H1215 C1227 0.950 . S
C1216 H1208 0.950 . S
C1216 C1217 1.386 . S
C1216 C1218 1.391 . S
C1217 C1216 1.386 . S
C1217 C1221 1.393 . S
C1218 H1210 0.950 . S
C1218 C1216 1.391 . S
C1218 C1219 1.400 . S
C1219 C1218 1.400 . S
C1219 C1220 1.398 . S
C1219 C1225 1.491 . S
C1220 H1211 0.950 . S
C1220 C1219 1.398 . S
C1220 C1221 1.391 . S
C1221 H1209 0.950 . S
C1221 C1217 1.393 . S
C1221 C1220 1.391 . S
C1222 H1212 0.950 . S
C1222 C1223 1.386 1_556 S
C1222 C1224 1.391 . S
C1223 C1222 1.386 1_554 S
C1223 C1227 1.393 . S
C1224 H1213 0.950 . S
C1224 C1222 1.391 . S
C1224 C1225 1.400 . S
C1225 C1219 1.491 . S
C1225 C1224 1.400 . S
C1225 C1226 1.398 . S
C1226 H1214 0.950 . S
C1226 C1225 1.398 . S
C1226 C1227 1.391 1_556 S
C1227 H1215 0.950 . S
C1227 C1223 1.393 . S
C1227 C1226 1.391 1_554 S
H1228 C1236 0.950 . S
H1229 C1241 0.950 . S
H1230 C1238 0.950 . S
H1231 C1240 0.949 1_565 S
H1232 C1242 0.950 . S
H1233 C1244 0.950 . S
H1234 C1246 0.950 . S
H1235 C1247 0.950 . S
C1236 H1228 0.950 . S
C1236 C1237 1.386 1_545 S
C1236 C1238 1.391 . S
C1237 C1236 1.386 1_565 S
C1237 C1241 1.393 . S
C1238 H1230 0.950 . S
C1238 C1236 1.391 . S
C1238 C1239 1.400 . S
C1239 C1238 1.400 . S
C1239 C1240 1.405 . S
C1239 C1245 1.491 . S
C1240 H1231 0.949 1_545 S
C1240 C1239 1.405 . S
C1240 C1241 1.384 1_545 S
C1241 H1229 0.950 . S
C1241 C1237 1.393 . S
C1241 C1240 1.384 1_565 S
C1242 H1232 0.950 . S
C1242 C1243 1.386 . S
C1242 C1244 1.391 . S
C1243 C1242 1.386 . S
C1243 C1247 1.393 . S
C1244 H1233 0.950 . S
C1244 C1242 1.391 . S
C1244 C1245 1.400 . S
C1245 C1239 1.491 . S
C1245 C1244 1.400 . S
C1245 C1246 1.398 . S
C1246 H1234 0.950 . S
C1246 C1245 1.398 . S
C1246 C1247 1.391 . S
C1247 H1235 0.950 . S
C1247 C1243 1.393 . S
C1247 C1246 1.391 . S
H1248 C1256 0.950 . S
H1249 C1261 0.950 . S
H1250 C1258 0.950 . S
H1251 C1260 0.950 . S
H1252 C1262 0.950 . S
H1253 C1264 0.950 . S
H1254 C1266 0.950 . S
H1255 C1267 0.950 . S
C1256 H1248 0.950 . S
C1256 C1257 1.386 . S
C1256 C1258 1.391 . S
C1257 C1256 1.386 . S
C1257 C1261 1.393 . S
C1258 H1250 0.950 . S
C1258 C1256 1.391 . S
C1258 C1259 1.400 . S
C1259 C1258 1.400 . S
C1259 C1260 1.398 . S
C1259 C1265 1.491 . S
C1260 H1251 0.950 . S
C1260 C1259 1.398 . S
C1260 C1261 1.391 . S
C1261 H1249 0.950 . S
C1261 C1257 1.393 . S
C1261 C1260 1.391 . S
C1262 H1252 0.950 . S
C1262 C1263 1.386 . S
C1262 C1264 1.391 . S
C1263 C1262 1.386 . S
C1263 C1267 1.393 . S
C1264 H1253 0.950 . S
C1264 C1262 1.391 . S
C1264 C1265 1.400 . S
C1265 C1259 1.491 . S
C1265 C1264 1.400 . S
C1265 C1266 1.398 . S
C1266 H1254 0.950 . S
C1266 C1265 1.398 . S
C1266 C1267 1.391 . S
C1267 H1255 0.950 . S
C1267 C1263 1.393 . S
C1267 C1266 1.391 . S
H1268 C1276 0.950 . S
H1269 C1281 0.950 . S
H1270 C1278 0.950 . S
H1271 C1280 0.950 . S
H1272 C1282 0.950 . S
H1273 C1284 0.950 . S
H1274 C1286 0.950 . S
H1275 C1287 0.950 . S
C1276 H1268 0.950 . S
C1276 C1277 1.386 . S
C1276 C1278 1.391 . S
C1277 C1276 1.386 . S
C1277 C1281 1.393 . S
C1278 H1270 0.950 . S
C1278 C1276 1.391 . S
C1278 C1279 1.400 . S
C1279 C1278 1.400 . S
C1279 C1280 1.398 . S
C1279 C1285 1.491 . S
C1280 H1271 0.950 . S
C1280 C1279 1.398 . S
C1280 C1281 1.391 . S
C1281 H1269 0.950 . S
C1281 C1277 1.393 . S
C1281 C1280 1.391 . S
C1282 H1272 0.950 . S
C1282 C1283 1.386 . S
C1282 C1284 1.391 . S
C1283 C1282 1.386 . S
C1283 C1287 1.393 1_565 S
C1284 H1273 0.950 . S
C1284 C1282 1.391 . S
C1284 C1285 1.400 1_565 S
C1285 C1279 1.491 . S
C1285 C1284 1.400 1_545 S
C1285 C1286 1.398 . S
C1286 H1274 0.950 . S
C1286 C1285 1.398 . S
C1286 C1287 1.391 . S
C1287 H1275 0.950 . S
C1287 C1283 1.393 1_545 S
C1287 C1286 1.391 . S
H1288 C1296 0.950 . S
H1289 C1301 0.950 . S
H1290 C1298 0.950 . S
H1291 C1300 0.950 . S
H1292 C1302 0.950 . S
H1293 C1304 0.950 . S
H1294 C1306 0.950 . S
H1295 C1307 0.950 . S
C1296 H1288 0.950 . S
C1296 C1297 1.386 . S
C1296 C1298 1.391 . S
C1297 C1296 1.386 . S
C1297 C1301 1.393 . S
C1298 H1290 0.950 . S
C1298 C1296 1.391 . S
C1298 C1299 1.400 . S
C1299 C1298 1.400 . S
C1299 C1300 1.398 . S
C1299 C1305 1.491 . S
C1300 H1291 0.950 . S
C1300 C1299 1.398 . S
C1300 C1301 1.391 . S
C1301 H1289 0.950 . S
C1301 C1297 1.393 . S
C1301 C1300 1.391 . S
C1302 H1292 0.950 . S
C1302 C1303 1.386 . S
C1302 C1304 1.391 1_556 S
C1303 C1302 1.386 . S
C1303 C1307 1.393 1_556 S
C1304 H1293 0.950 . S
C1304 C1302 1.391 1_554 S
C1304 C1305 1.400 . S
C1305 C1299 1.491 . S
C1305 C1304 1.400 . S
C1305 C1306 1.398 . S
C1306 H1294 0.950 . S
C1306 C1305 1.398 . S
C1306 C1307 1.391 . S
C1307 H1295 0.950 . S
C1307 C1303 1.393 1_554 S
C1307 C1306 1.391 . S
H1308 C1316 0.950 . S
H1309 C1321 0.950 . S
H1310 C1318 0.950 1_545 S
H1311 C1320 0.950 . S
H1312 C1322 0.950 . S
H1313 C1324 0.950 . S
H1314 C1326 0.950 . S
H1315 C1327 0.950 . S
C1316 H1308 0.950 . S
C1316 C1317 1.386 . S
C1316 C1318 1.391 . S
C1317 C1316 1.386 . S
C1317 C1321 1.393 . S
C1318 H1310 0.950 1_565 S
C1318 C1316 1.391 . S
C1318 C1319 1.400 . S
C1319 C1318 1.400 . S
C1319 C1320 1.398 . S
C1319 C1325 1.491 . S
C1320 H1311 0.950 . S
C1320 C1319 1.398 . S
C1320 C1321 1.391 . S
C1321 H1309 0.950 . S
C1321 C1317 1.393 . S
C1321 C1320 1.391 . S
C1322 H1312 0.950 . S
C1322 C1323 1.386 1_565 S
C1322 C1324 1.391 . S
C1323 C1322 1.386 1_545 S
C1323 C1327 1.393 . S
C1324 H1313 0.950 . S
C1324 C1322 1.391 . S
C1324 C1325 1.400 . S
C1325 C1319 1.491 . S
C1325 C1324 1.400 . S
C1325 C1326 1.398 1_565 S
C1326 H1314 0.950 . S
C1326 C1325 1.398 1_545 S
C1326 C1327 1.391 . S
C1327 H1315 0.950 . S
C1327 C1323 1.393 . S
C1327 C1326 1.391 . S
C377 C16 0.284 . S
C383 C246 0.296 . S
C397 C39 0.307 . S
C403 C269 0.281 . S
C417 C62 0.306 . S
C423 C200 0.284 . S
C437 C223 0.302 . S
C443 C85 0.291 . S
C457 C108 0.287 . S
C463 C338 0.305 . S
C477 C361 0.303 . S
C483 C131 0.281 . S
C497 C292 0.304 . S
C503 C154 0.280 . S
C517 C177 0.302 . S
C523 C315 0.291 . S
C537 C18 2.072 . S
C543 C110 2.072 . S
C557 C41 2.074 . S
C563 C317 2.074 . S
C577 C64 2.072 . S
C583 C156 2.072 . S
C597 C87 2.073 . S
C603 C363 2.073 . S
C617 C133 2.071 . S
C623 C225 2.071 . S
C637 C271 2.071 . S
C643 C179 2.071 . S
C657 C294 2.074 . S
C663 C202 2.074 . S
C677 C248 2.073 . S
C683 C340 2.073 . S
C697 C21 1.800 . S
C703 C178 1.796 . S
C717 C44 1.796 . S
C723 C293 1.801 . S
C737 C67 1.805 . S
C743 C132 1.794 . S
C757 C90 1.798 1_455 S
C763 C339 1.798 . S
C777 C86 1.794 . S
C783 C113 1.803 . S
C797 C136 1.799 . S
C803 C201 1.802 . S
C817 C159 1.795 . S
C823 C40 1.802 . S
C837 C247 1.796 . S
C843 C182 1.801 1_655 S
C857 C205 1.804 . S
C863 C362 1.793 . S
C877 C109 1.803 . S
C883 C228 1.795 1_655 S
C897 C316 1.795 . S
C903 C251 1.802 . S
C917 C155 1.797 . S
C923 C274 1.803 . S
C937 C297 1.805 . S
C943 C270 1.794 . S
C957 C320 1.797 1_455 S
C963 C17 1.803 . S
C977 C224 1.804 . S
C983 C343 1.796 . S
C997 C366 1.805 . S
C1003 C63 1.793 . S
C1017 C19 1.121 . S
C1023 C227 1.141 . S
C1037 C250 1.142 . S
C1043 C42 1.127 . S
C1057 C65 1.126 . S
C1063 C273 1.142 . S
C1077 C204 1.143 . S
C1083 C88 1.132 . S
C1097 C319 1.143 . S
C1103 C111 1.132 . S
C1117 C342 1.147 . S
C1123 C134 1.140 . S
C1137 C365 1.143 . S
C1143 C157 1.130 . S
C1157 C296 1.141 . S
C1163 C180 1.120 . S
C1177 C43 1.143 . S
C1183 C203 1.130 . S
C1197 C66 1.140 . S
C1203 C226 1.121 . S
C1217 C89 1.147 . S
C1223 C249 1.140 . S
C1237 C272 1.141 . S
C1243 C20 1.147 . S
C1257 C135 1.143 . S
C1263 C295 1.125 . S
C1277 C158 1.140 . S
C1283 C318 1.120 . S
C1297 C181 1.145 . S
C1303 C341 1.130 . S
C1317 C112 1.146 . S
C1323 C364 1.136 . S
