# Generated by pormake.
# Topology ukd, (4)-cn, num edge types: 1
# Building blocks:
#     Node 0, Type 0, BuildingBlock: TATPOV_clean_sbu_0, # of connection points: 4
#     Node 1, Type 0, BuildingBlock: TATPOV_clean_sbu_0, # of connection points: 4
#     Node 2, Type 0, BuildingBlock: TATPOV_clean_sbu_0, # of connection points: 4
#     Node 3, Type 0, BuildingBlock: TATPOV_clean_sbu_0, # of connection points: 4
#     Node 4, Type 0, BuildingBlock: TATPOV_clean_sbu_0, # of connection points: 4
#     Node 5, Type 0, BuildingBlock: TATPOV_clean_sbu_0, # of connection points: 4
#     Node 6, Type 0, BuildingBlock: TATPOV_clean_sbu_0, # of connection points: 4
#     Node 7, Type 0, BuildingBlock: TATPOV_clean_sbu_0, # of connection points: 4
#     Node 8, Type 0, BuildingBlock: TATPOV_clean_sbu_0, # of connection points: 4
#     Node 9, Type 0, BuildingBlock: TATPOV_clean_sbu_0, # of connection points: 4
#     Node 10, Type 0, BuildingBlock: TATPOV_clean_sbu_0, # of connection points: 4
#     Node 11, Type 0, BuildingBlock: TATPOV_clean_sbu_0, # of connection points: 4
#     Node 12, Type 0, BuildingBlock: TATPOV_clean_sbu_0, # of connection points: 4
#     Node 13, Type 0, BuildingBlock: TATPOV_clean_sbu_0, # of connection points: 4
#     Node 14, Type 0, BuildingBlock: TATPOV_clean_sbu_0, # of connection points: 4
#     Node 15, Type 0, BuildingBlock: TATPOV_clean_sbu_0, # of connection points: 4
#     Node 16, Type 0, BuildingBlock: TATPOV_clean_sbu_0, # of connection points: 4
#     Node 17, Type 0, BuildingBlock: TATPOV_clean_sbu_0, # of connection points: 4
#     Node 18, Type 0, BuildingBlock: TATPOV_clean_sbu_0, # of connection points: 4
#     Node 19, Type 0, BuildingBlock: TATPOV_clean_sbu_0, # of connection points: 4
#     Node 20, Type 0, BuildingBlock: TATPOV_clean_sbu_0, # of connection points: 4
#     Node 21, Type 0, BuildingBlock: TATPOV_clean_sbu_0, # of connection points: 4
#     Node 22, Type 0, BuildingBlock: TATPOV_clean_sbu_0, # of connection points: 4
#     Node 23, Type 0, BuildingBlock: TATPOV_clean_sbu_0, # of connection points: 4
#     Node 24, Type 0, BuildingBlock: TATPOV_clean_sbu_0, # of connection points: 4
#     Node 25, Type 0, BuildingBlock: TATPOV_clean_sbu_0, # of connection points: 4
#     Node 26, Type 0, BuildingBlock: TATPOV_clean_sbu_0, # of connection points: 4
#     Node 27, Type 0, BuildingBlock: TATPOV_clean_sbu_0, # of connection points: 4
#     Node 28, Type 0, BuildingBlock: TATPOV_clean_sbu_0, # of connection points: 4
#     Node 29, Type 0, BuildingBlock: TATPOV_clean_sbu_0, # of connection points: 4
#     Node 30, Type 0, BuildingBlock: TATPOV_clean_sbu_0, # of connection points: 4
#     Node 31, Type 0, BuildingBlock: TATPOV_clean_sbu_0, # of connection points: 4
#     Edge 32, Type (0, 0), None
#     Edge 33, Type (0, 0), None
#     Edge 34, Type (0, 0), None
#     Edge 35, Type (0, 0), None
#     Edge 36, Type (0, 0), None
#     Edge 37, Type (0, 0), None
#     Edge 38, Type (0, 0), None
#     Edge 39, Type (0, 0), None
#     Edge 40, Type (0, 0), None
#     Edge 41, Type (0, 0), None
#     Edge 42, Type (0, 0), None
#     Edge 43, Type (0, 0), None
#     Edge 44, Type (0, 0), None
#     Edge 45, Type (0, 0), None
#     Edge 46, Type (0, 0), None
#     Edge 47, Type (0, 0), None
#     Edge 48, Type (0, 0), None
#     Edge 49, Type (0, 0), None
#     Edge 50, Type (0, 0), None
#     Edge 51, Type (0, 0), None
#     Edge 52, Type (0, 0), None
#     Edge 53, Type (0, 0), None
#     Edge 54, Type (0, 0), None
#     Edge 55, Type (0, 0), None
#     Edge 56, Type (0, 0), None
#     Edge 57, Type (0, 0), None
#     Edge 58, Type (0, 0), None
#     Edge 59, Type (0, 0), None
#     Edge 60, Type (0, 0), None
#     Edge 61, Type (0, 0), None
#     Edge 62, Type (0, 0), None
#     Edge 63, Type (0, 0), None
#     Edge 64, Type (0, 0), None
#     Edge 65, Type (0, 0), None
#     Edge 66, Type (0, 0), None
#     Edge 67, Type (0, 0), None
#     Edge 68, Type (0, 0), None
#     Edge 69, Type (0, 0), None
#     Edge 70, Type (0, 0), None
#     Edge 71, Type (0, 0), None
#     Edge 72, Type (0, 0), None
#     Edge 73, Type (0, 0), None
#     Edge 74, Type (0, 0), None
#     Edge 75, Type (0, 0), None
#     Edge 76, Type (0, 0), None
#     Edge 77, Type (0, 0), None
#     Edge 78, Type (0, 0), None
#     Edge 79, Type (0, 0), None
#     Edge 80, Type (0, 0), None
#     Edge 81, Type (0, 0), None
#     Edge 82, Type (0, 0), None
#     Edge 83, Type (0, 0), None
#     Edge 84, Type (0, 0), None
#     Edge 85, Type (0, 0), None
#     Edge 86, Type (0, 0), None
#     Edge 87, Type (0, 0), None
#     Edge 88, Type (0, 0), None
#     Edge 89, Type (0, 0), None
#     Edge 90, Type (0, 0), None
#     Edge 91, Type (0, 0), None
#     Edge 92, Type (0, 0), None
#     Edge 93, Type (0, 0), None
#     Edge 94, Type (0, 0), None
#     Edge 95, Type (0, 0), None
# Relax obj value: 0.127
# Max RMSD: 0.198
# Mean RMSD: 0.187
data_MOF--net-ukd--node1-TATPOV_clean_sbu_0--edge1-none
_symmetry_space_group_name_H-M    P1
_symmetry_Int_Tables_number       1
_symmetry_cell_setting            triclinic
loop_
_symmetry_equiv_pos_as_xyz
'x, y, z'
_cell_length_a     20.457701
_cell_length_b     18.319204
_cell_length_c     37.151366
_cell_angle_alpha  90.000005
_cell_angle_beta   89.999979
_cell_angle_gamma 90.000148
loop_
_atom_site_label
_atom_site_type_symbol
_atom_site_fract_x
_atom_site_fract_y
_atom_site_fract_z
_atom_type_partial_charge
Zn0 Zn 0.1161 0.22625 0.27451 0.0
Zn1 Zn 0.2146 0.25812 0.31691 0.0
O2 O 0.17965 0.1579 0.33215 0.0
O3 O 0.11922 0.11887 0.28727 0.0
O4 O 0.29265 0.27943 0.34895 0.0
O5 O 0.16207 0.26911 0.23119 0.0
O6 O 0.24961 0.27178 0.26572 0.0
C7 C 0.14333 0.10876 0.31826 0.0
C8 C 0.08554 0.3346 0.32846 0.0
O9 O 0.14732 0.33614 0.33292 0.0
O10 O 0.05999 0.28948 0.30684 0.0
C11 C 0.34289 0.24397 0.35924 0.0
O12 O 0.38217 0.2745 0.3828 0.0
C13 C 0.22267 0.28005 0.23509 0.0
Zn14 Zn 0.0893 0.04026 0.61764 0.0
Zn15 Zn 0.02352 0.02622 0.5574 0.0
O16 O 0.94108 1.01261 0.58594 0.0
O17 O -0.00077 1.00219 0.63567 0.0
O18 O -0.00135 0.03048 0.50537 0.0
O19 O 0.11911 0.14593 0.61232 0.0
O20 O 0.06647 0.12804 0.56165 0.0
C21 C 0.9457 0.99328 0.6187 0.0
C22 C 0.12067 0.91053 0.58586 0.0
O23 O 0.07122 0.9296 0.56736 0.0
O24 O 0.15051 0.95795 0.60439 0.0
C25 C -0.01274 0.98623 0.47984 0.0
O26 O -0.01085 0.91546 0.48531 0.0
C27 C 0.1008 0.16897 0.58192 0.0
Zn28 Zn 0.34159 0.81539 0.77451 0.0
Zn29 Zn 0.24309 0.78352 0.81691 0.0
O30 O 0.27803 0.88374 0.83215 0.0
O31 O 0.33846 0.92276 0.78727 0.0
O32 O 0.16503 0.76221 0.84895 0.0
O33 O 0.29561 0.77253 0.73119 0.0
O34 O 0.20808 0.76986 0.76572 0.0
C35 C 0.31436 0.93287 0.81826 0.0
C36 C 0.37215 0.70704 0.82846 0.0
O37 O 0.31037 0.7055 0.83292 0.0
O38 O 0.39769 0.75216 0.80684 0.0
C39 C 0.11479 0.79767 0.85924 0.0
O40 O 0.07551 0.76714 0.8828 0.0
C41 C 0.23501 0.76159 0.73509 0.0
Zn42 Zn 0.36838 1.00138 0.11764 0.0
Zn43 Zn 0.43416 1.01542 0.0574 0.0
O44 O 0.51661 0.02903 0.08594 0.0
O45 O 0.45845 0.03945 0.13567 0.0
O46 O 0.45903 1.01116 0.00537 0.0
O47 O 0.33857 0.89571 0.11232 0.0
O48 O 0.39121 0.91359 0.06165 0.0
C49 C 0.51199 0.04836 0.1187 0.0
C50 C 0.33701 0.13111 0.08586 0.0
O51 O 0.38647 0.11204 0.06736 0.0
O52 O 0.30717 0.08369 0.10439 0.0
C53 C 0.47042 0.05541 -0.02016 0.0
O54 O 0.46853 0.12618 -0.01469 0.0
C55 C 0.35688 0.87266 0.08192 0.0
Zn56 Zn 0.11609 0.81539 0.15477 0.0
Zn57 Zn 0.21459 0.78352 0.11237 0.0
O58 O 0.17965 0.88374 0.09713 0.0
O59 O 0.11921 0.92277 0.14201 0.0
O60 O 0.29265 0.76221 0.08033 0.0
O61 O 0.16207 0.77253 0.19809 0.0
O62 O 0.2496 0.76986 0.16356 0.0
C63 C 0.14332 0.93288 0.11102 0.0
C64 C 0.08553 0.70704 0.10082 0.0
O65 O 0.14731 0.7055 0.09636 0.0
O66 O 0.05998 0.75216 0.12244 0.0
C67 C 0.34288 0.79767 0.07004 0.0
O68 O 0.38217 0.76714 0.04648 0.0
C69 C 0.22266 0.76159 0.19419 0.0
Zn70 Zn 0.36839 0.04026 0.31164 0.0
Zn71 Zn 0.43416 0.02622 0.37188 0.0
O72 O 0.51661 1.01261 0.34334 0.0
O73 O 0.45846 1.00219 0.29361 0.0
O74 O 0.45903 0.03048 0.42391 0.0
O75 O 0.33858 0.14593 0.31696 0.0
O76 O 0.39122 0.12805 0.36763 0.0
C77 C 0.512 0.99328 0.31058 0.0
C78 C 0.33702 0.91053 0.34341 0.0
O79 O 0.38647 0.9296 0.36192 0.0
O80 O 0.30718 0.95796 0.32489 0.0
C81 C 0.47042 0.98623 0.44944 0.0
O82 O 0.46854 0.91546 0.44397 0.0
C83 C 0.35689 0.16898 0.34736 0.0
Zn84 Zn 0.34159 0.22625 0.65477 0.0
Zn85 Zn 0.24309 0.25811 0.61237 0.0
O86 O 0.27803 0.1579 0.59713 0.0
O87 O 0.33847 0.11887 0.64201 0.0
O88 O 0.16504 0.27943 0.58033 0.0
O89 O 0.29562 0.26911 0.69809 0.0
O90 O 0.20808 0.27178 0.66356 0.0
C91 C 0.31436 0.10876 0.61102 0.0
C92 C 0.37215 0.3346 0.60082 0.0
O93 O 0.31037 0.33614 0.59636 0.0
O94 O 0.3977 0.28947 0.62244 0.0
C95 C 0.1148 0.24397 0.57004 0.0
O96 O 0.07551 0.2745 0.54648 0.0
C97 C 0.23502 0.28005 0.69419 0.0
Zn98 Zn 0.08929 1.00137 0.81164 0.0
Zn99 Zn 0.02352 1.01542 0.87188 0.0
O100 O 0.94107 0.02903 0.84334 0.0
O101 O -0.00078 0.03945 0.79361 0.0
O102 O -0.00135 1.01116 0.92391 0.0
O103 O 0.1191 0.8957 0.81696 0.0
O104 O 0.06646 0.91359 0.86763 0.0
C105 C 0.94569 0.04835 0.81058 0.0
C106 C 0.12067 0.1311 0.84341 0.0
O107 O 0.07122 0.11204 0.86192 0.0
O108 O 0.15051 0.08368 0.82489 0.0
C109 C -0.01274 0.05541 0.94944 0.0
O110 O -0.01085 0.12618 0.94397 0.0
C111 C 0.10079 0.87266 0.84736 0.0
Zn112 Zn 0.87357 0.80083 0.65984 0.0
Zn113 Zn 0.7736 0.8434 0.62424 0.0
O114 O 0.84688 0.92275 0.61642 0.0
O115 O 0.92148 0.89534 0.65663 0.0
O116 O 0.6991 0.88682 0.59672 0.0
O117 O 0.8229 0.78019 0.70451 0.0
O118 O 0.73766 0.82456 0.6755 0.0
C119 C 0.89996 0.93829 0.63284 0.0
C120 C 0.83737 0.7049 0.60065 0.0
O121 O 0.78701 0.74518 0.59904 0.0
O122 O 0.88345 0.72066 0.62212 0.0
C123 C 0.63856 0.87668 0.60233 0.0
O124 O 0.61912 0.83438 0.62877 0.0
C125 C 0.76305 0.79697 0.70378 0.0
Zn126 Zn 0.02213 0.11307 0.39127 0.0
Zn127 Zn 0.96914 1.01036 0.36233 0.0
O128 O 0.90064 0.09175 0.35389 0.0
O129 O 0.97098 0.18142 0.35851 0.0
O130 O 0.92469 0.92705 0.33724 0.0
O131 O -0.00975 0.08514 0.44001 0.0
O132 O -0.01873 0.97653 0.41554 0.0
C133 C 0.91559 0.15822 0.34863 0.0
C134 C 0.10628 0.06274 0.34341 0.0
O135 O 0.05178 0.03691 0.33261 0.0
O136 O 0.11191 0.07894 0.37628 0.0
C137 C 0.86608 0.91933 0.34784 0.0
O138 O 0.845 0.95858 0.37506 0.0
C139 C -0.01644 1.01691 0.44345 0.0
Zn140 Zn 0.58411 0.24081 0.15984 0.0
Zn141 Zn 0.68408 0.19824 0.12424 0.0
O142 O 0.61081 0.11889 0.11642 0.0
O143 O 0.5362 0.1463 0.15663 0.0
O144 O 0.75858 0.15482 0.09672 0.0
O145 O 0.63478 0.26145 0.20451 0.0
O146 O 0.72002 0.21708 0.1755 0.0
C147 C 0.55772 0.10335 0.13284 0.0
C148 C 0.62032 0.33674 0.10065 0.0
O149 O 0.67068 0.29646 0.09904 0.0
O150 O 0.57423 0.32098 0.12212 0.0
C151 C 0.81913 0.16496 0.10233 0.0
O152 O 0.83856 0.20726 0.12877 0.0
C153 C 0.69463 0.24467 0.20378 0.0
Zn154 Zn 0.43555 0.92857 0.89127 0.0
Zn155 Zn 0.48854 0.03128 0.86233 0.0
O156 O 0.55704 0.94988 0.85389 0.0
O157 O 0.4867 0.86022 0.85851 0.0
O158 O 0.53299 0.11459 0.83724 0.0
O159 O 0.46743 0.9565 0.94001 0.0
O160 O 0.47642 0.06511 0.91554 0.0
C161 C 0.54209 0.88342 0.84863 0.0
C162 C 0.35141 0.9789 0.84341 0.0
O163 O 0.40591 1.00472 0.83261 0.0
O164 O 0.34578 0.9627 0.87628 0.0
C165 C 0.5916 0.12231 0.84784 0.0
O166 O 0.61269 0.08305 0.87506 0.0
C167 C 0.47413 0.02473 0.94345 0.0
Zn168 Zn 0.87356 0.24081 0.76943 0.0
Zn169 Zn 0.7736 0.19824 0.80504 0.0
O170 O 0.84687 0.11889 0.81286 0.0
O171 O 0.92147 0.14629 0.77265 0.0
O172 O 0.69909 0.15483 0.83256 0.0
O173 O 0.8229 0.26145 0.72477 0.0
O174 O 0.73766 0.21708 0.75378 0.0
C175 C 0.89995 0.10335 0.79644 0.0
C176 C 0.83737 0.33674 0.82863 0.0
O177 O 0.78701 0.29647 0.83024 0.0
O178 O 0.88345 0.32098 0.80715 0.0
C179 C 0.63855 0.16498 0.82695 0.0
O180 O 0.61912 0.20727 0.80051 0.0
C181 C 0.76304 0.24467 0.7255 0.0
Zn182 Zn 0.43554 0.11306 0.53801 0.0
Zn183 Zn 0.48854 1.01036 0.56695 0.0
O184 O 0.55704 0.09176 0.57539 0.0
O185 O 0.48669 0.18142 0.57077 0.0
O186 O 0.533 0.92706 0.59204 0.0
O187 O 0.46743 0.08514 0.48927 0.0
O188 O 0.47642 0.97653 0.51374 0.0
C189 C 0.54209 0.15822 0.58065 0.0
C190 C 0.35141 0.06274 0.58587 0.0
O191 O 0.40591 0.03691 0.59667 0.0
O192 O 0.34577 0.07893 0.553 0.0
C193 C 0.59161 0.91934 0.58144 0.0
O194 O 0.6127 0.95859 0.55422 0.0
C195 C 0.47413 1.01691 0.48582 0.0
Zn196 Zn 0.58412 0.80083 0.26943 0.0
Zn197 Zn 0.68409 0.8434 0.30504 0.0
O198 O 0.61081 0.92274 0.31286 0.0
O199 O 0.53621 0.89534 0.27265 0.0
O200 O 0.75859 0.88681 0.33256 0.0
O201 O 0.63479 0.78019 0.22477 0.0
O202 O 0.72003 0.82456 0.25378 0.0
C203 C 0.55773 0.93829 0.29644 0.0
C204 C 0.62031 0.7049 0.32863 0.0
O205 O 0.67068 0.74517 0.33024 0.0
O206 O 0.57424 0.72066 0.30715 0.0
C207 C 0.81913 0.87666 0.32695 0.0
O208 O 0.83857 0.83437 0.30051 0.0
C209 C 0.69464 0.79697 0.2255 0.0
Zn210 Zn 0.02214 0.92857 0.03801 0.0
Zn211 Zn 0.96914 0.03128 0.06695 0.0
O212 O 0.90064 0.94988 0.07539 0.0
O213 O 0.97099 0.86022 0.07077 0.0
O214 O 0.92469 0.11458 0.09204 0.0
O215 O -0.00974 0.9565 -0.01073 0.0
O216 O -0.01873 0.06511 0.01374 0.0
C217 C 0.9156 0.88342 0.08065 0.0
C218 C 0.10628 0.9789 0.08587 0.0
O219 O 0.05177 1.00473 0.09667 0.0
O220 O 0.11191 0.9627 0.053 0.0
C221 C 0.86607 0.1223 0.08144 0.0
O222 O 0.84499 0.08305 0.05422 0.0
C223 C -0.01644 0.02473 -0.01418 0.0
Zn224 Zn 0.61608 0.72627 0.77451 0.0
Zn225 Zn 0.71458 0.75814 0.81691 0.0
O226 O 0.67963 0.65793 0.83215 0.0
O227 O 0.6192 0.6189 0.78727 0.0
O228 O 0.79263 0.77946 0.84895 0.0
O229 O 0.66206 0.76911 0.73119 0.0
O230 O 0.7496 0.77179 0.76572 0.0
C231 C 0.64331 0.60879 0.81827 0.0
C232 C 0.58552 0.83463 0.82846 0.0
O233 O 0.6473 0.83617 0.83291 0.0
O234 O 0.55998 0.78951 0.80684 0.0
C235 C 0.84287 0.74399 0.85924 0.0
O236 O 0.88215 0.77451 0.88281 0.0
C237 C 0.72266 0.78007 0.73509 0.0
Zn238 Zn 0.58932 0.54031 0.11769 0.0
Zn239 Zn 0.52356 0.52623 0.0574 0.0
O240 O 0.44112 0.51259 0.08595 0.0
O241 O 0.49924 0.50224 0.13569 0.0
O242 O 0.49867 0.53051 0.00537 0.0
O243 O 0.61912 0.64598 0.11233 0.0
O244 O 0.56651 0.62805 0.06166 0.0
C245 C 0.44572 0.49331 0.11872 0.0
C246 C 0.62076 0.41062 0.08585 0.0
O247 O 0.5713 0.42963 0.06734 0.0
O248 O 0.65054 0.458 0.10443 0.0
C249 C 0.48727 0.48626 -0.02016 0.0
O250 O 0.48916 0.41548 -0.01468 0.0
C251 C 0.60082 0.669 0.08192 0.0
Zn252 Zn 0.8416 0.31536 0.27451 0.0
Zn253 Zn 0.7431 0.2835 0.31691 0.0
O254 O 0.77805 0.38371 0.33215 0.0
O255 O 0.83848 0.42274 0.28727 0.0
O256 O 0.66505 0.26218 0.34895 0.0
O257 O 0.79562 0.27252 0.23119 0.0
O258 O 0.70809 0.26984 0.26572 0.0
C259 C 0.81438 0.43285 0.31827 0.0
C260 C 0.87216 0.20701 0.32846 0.0
O261 O 0.81038 0.20547 0.33291 0.0
O262 O 0.89771 0.25213 0.30684 0.0
C263 C 0.61481 0.29765 0.35924 0.0
O264 O 0.57553 0.26713 0.38281 0.0
C265 C 0.73502 0.26157 0.23509 0.0
Zn266 Zn 0.86836 0.50133 0.61769 0.0
Zn267 Zn 0.93412 0.51541 0.5574 0.0
O268 O 0.01656 0.52905 0.58595 0.0
O269 O 0.95845 0.5394 0.63569 0.0
O270 O 0.95902 0.51113 0.50537 0.0
O271 O 0.83857 0.39566 0.61233 0.0
O272 O 0.89118 0.41359 0.56166 0.0
C273 C 0.01197 0.54833 0.61872 0.0
C274 C 0.83693 0.63102 0.58585 0.0
O275 O 0.88639 0.61201 0.56734 0.0
O276 O 0.80715 0.58364 0.60443 0.0
C277 C 0.97042 0.55538 0.47984 0.0
O278 O 0.96853 0.62615 0.48532 0.0
C279 C 0.85686 0.37264 0.58192 0.0
Zn280 Zn 0.61608 0.31537 0.65477 0.0
Zn281 Zn 0.71458 0.2835 0.61237 0.0
O282 O 0.67963 0.38371 0.59713 0.0
O283 O 0.61919 0.42274 0.64201 0.0
O284 O 0.79263 0.26218 0.58033 0.0
O285 O 0.66206 0.27253 0.69809 0.0
O286 O 0.74959 0.26985 0.66356 0.0
C287 C 0.6433 0.43285 0.61102 0.0
C288 C 0.58552 0.20701 0.60082 0.0
O289 O 0.6473 0.20547 0.59637 0.0
O290 O 0.55997 0.25213 0.62244 0.0
C291 C 0.84286 0.29765 0.57004 0.0
O292 O 0.88215 0.26713 0.54647 0.0
C293 C 0.72265 0.26157 0.69419 0.0
Zn294 Zn 0.86837 0.54031 0.81159 0.0
Zn295 Zn 0.93412 0.52623 0.87187 0.0
O296 O 0.01656 0.51259 0.84333 0.0
O297 O 0.95846 0.50224 0.79358 0.0
O298 O 0.95902 0.53051 0.92391 0.0
O299 O 0.83858 0.64598 0.81695 0.0
O300 O 0.89118 0.62806 0.86762 0.0
C301 C 0.01197 0.49331 0.81056 0.0
C302 C 0.83693 0.41062 0.84342 0.0
O303 O 0.88639 0.42963 0.86194 0.0
O304 O 0.80715 0.45801 0.82484 0.0
C305 C 0.97042 0.48626 0.94943 0.0
O306 O 0.96853 0.41549 0.94396 0.0
C307 C 0.85687 0.669 0.84735 0.0
Zn308 Zn 0.84161 0.72627 0.15477 0.0
Zn309 Zn 0.74311 0.75814 0.11237 0.0
O310 O 0.77805 0.65793 0.09713 0.0
O311 O 0.83849 0.6189 0.14201 0.0
O312 O 0.66506 0.77946 0.08033 0.0
O313 O 0.79563 0.76911 0.19809 0.0
O314 O 0.70809 0.77179 0.16356 0.0
C315 C 0.81438 0.60879 0.11102 0.0
C316 C 0.87217 0.83463 0.10082 0.0
O317 O 0.81039 0.83617 0.09637 0.0
O318 O 0.89771 0.7895 0.12244 0.0
C319 C 0.61482 0.74399 0.07004 0.0
O320 O 0.57554 0.77451 0.04647 0.0
C321 C 0.73503 0.78006 0.19419 0.0
Zn322 Zn 0.58931 0.50133 0.31159 0.0
Zn323 Zn 0.52356 0.51541 0.37187 0.0
O324 O 0.44112 0.52905 0.34333 0.0
O325 O 0.49923 0.53939 0.29358 0.0
O326 O 0.49867 0.51113 0.42391 0.0
O327 O 0.61911 0.39566 0.31695 0.0
O328 O 0.5665 0.41358 0.36762 0.0
C329 C 0.44571 0.54832 0.31056 0.0
C330 C 0.62075 0.63102 0.34342 0.0
O331 O 0.5713 0.61201 0.36194 0.0
O332 O 0.65053 0.58363 0.32484 0.0
C333 C 0.48727 0.55538 0.44943 0.0
O334 O 0.48915 0.62615 0.44396 0.0
C335 C 0.60082 0.37264 0.34736 0.0
Zn336 Zn 0.37358 0.3009 0.15985 0.0
Zn337 Zn 0.27361 0.34344 0.12425 0.0
O338 O 0.3469 0.42277 0.11642 0.0
O339 O 0.42147 0.39543 0.15667 0.0
O340 O 0.19912 0.38686 0.09673 0.0
O341 O 0.32291 0.28018 0.20451 0.0
O342 O 0.23767 0.32459 0.17551 0.0
C343 C 0.39997 0.43834 0.13286 0.0
C344 C 0.33742 0.205 0.10065 0.0
O345 O 0.28702 0.24521 0.09906 0.0
O346 O 0.38351 0.22078 0.12211 0.0
C347 C 0.13857 0.37671 0.10233 0.0
O348 O 0.11914 0.33441 0.12877 0.0
C349 C 0.26306 0.29697 0.20378 0.0
Zn350 Zn 0.52212 0.6131 0.89127 0.0
Zn351 Zn 0.46912 0.51039 0.86234 0.0
O352 O 0.40062 0.59179 0.8539 0.0
O353 O 0.47097 0.68146 0.85852 0.0
O354 O 0.42467 0.42709 0.83724 0.0
O355 O 0.49024 0.58517 0.94002 0.0
O356 O 0.48125 0.47656 0.91554 0.0
C357 C 0.41558 0.65825 0.84864 0.0
C358 C 0.60626 0.56277 0.84341 0.0
O359 O 0.55176 0.53695 0.83261 0.0
O360 O 0.61189 0.57898 0.87629 0.0
C361 C 0.36606 0.41937 0.84785 0.0
O362 O 0.34497 0.45862 0.87506 0.0
C363 C 0.48355 0.51695 0.94346 0.0
Zn364 Zn 0.08411 0.74074 0.65985 0.0
Zn365 Zn 0.18407 0.6982 0.62425 0.0
O366 O 0.11078 0.61887 0.61642 0.0
O367 O 0.03622 0.64621 0.65667 0.0
O368 O 0.25856 0.65478 0.59673 0.0
O369 O 0.13478 0.76146 0.70451 0.0
O370 O 0.22001 0.71705 0.67551 0.0
C371 C 0.05771 0.6033 0.63286 0.0
C372 C 0.12026 0.83664 0.60065 0.0
O373 O 0.17067 0.79643 0.59906 0.0
O374 O 0.07417 0.82086 0.62211 0.0
C375 C 0.31911 0.66493 0.60233 0.0
O376 O 0.33855 0.70723 0.62877 0.0
C377 C 0.19463 0.74467 0.70378 0.0
Zn378 Zn 0.93556 0.42854 0.39127 0.0
Zn379 Zn -0.01144 0.53125 0.36234 0.0
O380 O 0.05706 0.44985 0.3539 0.0
O381 O -0.01328 0.36018 0.35852 0.0
O382 O 0.03301 0.61455 0.33724 0.0
O383 O 0.96744 0.45647 0.44002 0.0
O384 O 0.97643 0.56508 0.41554 0.0
C385 C 0.04211 0.38339 0.34864 0.0
C386 C 0.85143 0.47886 0.34341 0.0
O387 O 0.90593 0.50469 0.33261 0.0
O388 O 0.84579 0.46266 0.37629 0.0
C389 C 0.09162 0.62227 0.34785 0.0
O390 O 0.11271 0.58302 0.37506 0.0
C391 C 0.97413 0.52469 0.44346 0.0
Zn392 Zn 0.37357 0.74074 0.26943 0.0
Zn393 Zn 0.27361 0.69821 0.30503 0.0
O394 O 0.3469 0.61887 0.31286 0.0
O395 O 0.42146 0.64621 0.27261 0.0
O396 O 0.19911 0.65479 0.33256 0.0
O397 O 0.3229 0.76146 0.22477 0.0
O398 O 0.23766 0.71705 0.25377 0.0
C399 C 0.39996 0.6033 0.29642 0.0
C400 C 0.33742 0.83665 0.32863 0.0
O401 O 0.28702 0.79643 0.33022 0.0
O402 O 0.38351 0.82086 0.30717 0.0
C403 C 0.13857 0.66494 0.32695 0.0
O404 O 0.11913 0.70723 0.30051 0.0
C405 C 0.26305 0.74467 0.2255 0.0
Zn406 Zn 0.93556 0.6131 0.03801 0.0
Zn407 Zn -0.01144 0.51039 0.06694 0.0
O408 O 0.05706 0.59179 0.07538 0.0
O409 O -0.01329 0.68146 0.07076 0.0
O410 O 0.03302 0.42709 0.09204 0.0
O411 O 0.96744 0.58517 -0.01074 0.0
O412 O 0.97643 0.47656 0.01374 0.0
C413 C 0.0421 0.65825 0.08064 0.0
C414 C 0.85143 0.56277 0.08587 0.0
O415 O 0.90593 0.53694 0.09667 0.0
O416 O 0.84579 0.57897 0.05299 0.0
C417 C 0.09163 0.41938 0.08143 0.0
O418 O 0.11272 0.45863 0.05422 0.0
C419 C 0.97413 0.51694 -0.01418 0.0
Zn420 Zn 0.08411 0.3009 0.76943 0.0
Zn421 Zn 0.18408 0.34343 0.80503 0.0
O422 O 0.11079 0.42277 0.81286 0.0
O423 O 0.03623 0.39543 0.77261 0.0
O424 O 0.25857 0.38685 0.83256 0.0
O425 O 0.13478 0.28018 0.72477 0.0
O426 O 0.22002 0.32459 0.75377 0.0
C427 C 0.05772 0.43834 0.79642 0.0
C428 C 0.12026 0.20499 0.82863 0.0
O429 O 0.17067 0.24521 0.83022 0.0
O430 O 0.07417 0.22078 0.80717 0.0
C431 C 0.31911 0.3767 0.82695 0.0
O432 O 0.33855 0.33441 0.80051 0.0
C433 C 0.19463 0.29697 0.7255 0.0
Zn434 Zn 0.52213 0.42854 0.53801 0.0
Zn435 Zn 0.46912 0.53125 0.56694 0.0
O436 O 0.40063 0.44985 0.57538 0.0
O437 O 0.47097 0.36018 0.57076 0.0
O438 O 0.42467 0.61455 0.59204 0.0
O439 O 0.49025 0.45647 0.48926 0.0
O440 O 0.48125 0.56508 0.51374 0.0
C441 C 0.41558 0.38339 0.58064 0.0
C442 C 0.60626 0.47887 0.58587 0.0
O443 O 0.55176 0.5047 0.59667 0.0
O444 O 0.61189 0.46267 0.55299 0.0
C445 C 0.36605 0.62226 0.58143 0.0
O446 O 0.34496 0.58301 0.55422 0.0
C447 C 0.48355 0.52469 0.48582 0.0
loop_
_geom_bond_atom_site_label_1
_geom_bond_atom_site_label_2
_geom_bond_distance
_geom_bond_site_symmetry_2
_ccdc_geom_bond_type
Zn0 O3 2.031 . S
Zn0 O5 2.049 . S
Zn0 O10 2.067 . S
Zn1 O2 1.962 . S
Zn1 O4 1.986 . S
Zn1 O6 1.996 . S
Zn1 O9 1.943 . S
O2 Zn1 1.962 . S
O2 C7 1.254 . S
O3 Zn0 2.031 . S
O3 C7 1.269 . S
O4 Zn1 1.986 . S
O4 C11 1.262 . S
O5 Zn0 2.049 . S
O5 C13 1.260 . S
O6 Zn1 1.996 . S
O6 C13 1.257 . S
C7 O2 1.254 . S
C7 O3 1.269 . S
C8 O9 1.249 . S
C8 O10 1.270 . S
O9 Zn1 1.943 . S
O9 C8 1.249 . S
O10 Zn0 2.067 . S
O10 C8 1.270 . S
C11 O4 1.262 . S
C11 O12 1.232 . S
O12 C11 1.232 . S
C13 O5 1.260 . S
C13 O6 1.257 . S
Zn14 O17 2.036 . S
Zn14 O19 2.049 1_565 S
Zn14 O24 2.067 . S
Zn15 O16 1.962 1_455 S
Zn15 O18 1.986 1_565 S
Zn15 O20 1.996 1_565 S
Zn15 O23 1.943 . S
O16 Zn15 1.962 1_655 S
O16 C21 1.254 . S
O17 Zn14 2.036 . S
O17 C21 1.265 1_455 S
O18 Zn15 1.986 1_545 S
O18 C25 1.262 1_545 S
O19 Zn14 2.049 1_545 S
O19 C27 1.260 . S
O20 Zn15 1.996 1_545 S
O20 C27 1.257 . S
C21 O16 1.254 . S
C21 O17 1.265 1_655 S
C22 O23 1.249 . S
C22 O24 1.270 . S
O23 Zn15 1.943 . S
O23 C22 1.249 . S
O24 Zn14 2.067 . S
O24 C22 1.270 . S
C25 O18 1.262 1_565 S
C25 O26 1.227 1_455 S
O26 C25 1.227 1_655 S
C27 O19 1.260 . S
C27 O20 1.257 . S
Zn28 O31 2.031 . S
Zn28 O33 2.049 . S
Zn28 O38 2.067 . S
Zn29 O30 1.962 . S
Zn29 O32 1.986 . S
Zn29 O34 1.996 . S
Zn29 O37 1.943 . S
O30 Zn29 1.962 . S
O30 C35 1.254 . S
O31 Zn28 2.031 . S
O31 C35 1.269 . S
O32 Zn29 1.986 . S
O32 C39 1.262 . S
O33 Zn28 2.049 . S
O33 C41 1.260 . S
O34 Zn29 1.996 . S
O34 C41 1.257 . S
C35 O30 1.254 . S
C35 O31 1.269 . S
C36 O37 1.249 . S
C36 O38 1.270 . S
O37 Zn29 1.943 . S
O37 C36 1.249 . S
O38 Zn28 2.067 . S
O38 C36 1.270 . S
C39 O32 1.262 . S
C39 O40 1.232 . S
O40 C39 1.232 . S
C41 O33 1.260 . S
C41 O34 1.257 . S
Zn42 O45 2.031 . S
Zn42 O47 2.049 1_545 S
Zn42 O52 2.067 . S
Zn43 O44 1.962 . S
Zn43 O46 1.986 1_545 S
Zn43 O48 1.996 1_545 S
Zn43 O51 1.943 . S
O44 Zn43 1.962 . S
O44 C49 1.254 . S
O45 Zn42 2.031 . S
O45 C49 1.269 . S
O46 Zn43 1.986 1_565 S
O46 C53 1.262 1_565 S
O47 Zn42 2.049 1_565 S
O47 C55 1.260 . S
O48 Zn43 1.996 1_565 S
O48 C55 1.257 . S
C49 O44 1.254 . S
C49 O45 1.269 . S
C50 O51 1.249 . S
C50 O52 1.270 . S
O51 Zn43 1.943 . S
O51 C50 1.249 . S
O52 Zn42 2.067 . S
O52 C50 1.270 . S
C53 O46 1.262 1_545 S
C53 O54 1.232 . S
O54 C53 1.232 . S
C55 O47 1.260 . S
C55 O48 1.257 . S
Zn56 O59 2.031 . S
Zn56 O61 2.049 . S
Zn56 O66 2.067 . S
Zn57 O58 1.962 . S
Zn57 O60 1.986 . S
Zn57 O62 1.996 . S
Zn57 O65 1.943 . S
O58 Zn57 1.962 . S
O58 C63 1.254 . S
O59 Zn56 2.031 . S
O59 C63 1.269 . S
O60 Zn57 1.986 . S
O60 C67 1.262 . S
O61 Zn56 2.049 . S
O61 C69 1.260 . S
O62 Zn57 1.996 . S
O62 C69 1.257 . S
C63 O58 1.254 . S
C63 O59 1.269 . S
C64 O65 1.249 . S
C64 O66 1.270 . S
O65 Zn57 1.943 . S
O65 C64 1.249 . S
O66 Zn56 2.067 . S
O66 C64 1.270 . S
C67 O60 1.262 . S
C67 O68 1.232 . S
O68 C67 1.232 . S
C69 O61 1.260 . S
C69 O62 1.257 . S
Zn70 O73 2.031 . S
Zn70 O75 2.049 1_565 S
Zn70 O80 2.067 . S
Zn71 O72 1.962 . S
Zn71 O74 1.986 1_565 S
Zn71 O76 1.996 1_565 S
Zn71 O79 1.943 . S
O72 Zn71 1.962 . S
O72 C77 1.254 . S
O73 Zn70 2.031 . S
O73 C77 1.269 . S
O74 Zn71 1.986 1_545 S
O74 C81 1.262 1_545 S
O75 Zn70 2.049 1_545 S
O75 C83 1.260 . S
O76 Zn71 1.996 1_545 S
O76 C83 1.257 . S
C77 O72 1.254 . S
C77 O73 1.269 . S
C78 O79 1.249 . S
C78 O80 1.270 . S
O79 Zn71 1.943 . S
O79 C78 1.249 . S
O80 Zn70 2.067 . S
O80 C78 1.270 . S
C81 O74 1.262 1_565 S
C81 O82 1.232 . S
O82 C81 1.232 . S
C83 O75 1.260 . S
C83 O76 1.257 . S
Zn84 O87 2.031 . S
Zn84 O89 2.049 . S
Zn84 O94 2.067 . S
Zn85 O86 1.962 . S
Zn85 O88 1.986 . S
Zn85 O90 1.996 . S
Zn85 O93 1.943 . S
O86 Zn85 1.962 . S
O86 C91 1.254 . S
O87 Zn84 2.031 . S
O87 C91 1.269 . S
O88 Zn85 1.986 . S
O88 C95 1.262 . S
O89 Zn84 2.049 . S
O89 C97 1.260 . S
O90 Zn85 1.996 . S
O90 C97 1.257 . S
C91 O86 1.254 . S
C91 O87 1.269 . S
C92 O93 1.249 . S
C92 O94 1.270 . S
O93 Zn85 1.943 . S
O93 C92 1.249 . S
O94 Zn84 2.067 . S
O94 C92 1.270 . S
C95 O88 1.262 . S
C95 O96 1.232 . S
O96 C95 1.232 . S
C97 O89 1.260 . S
C97 O90 1.257 . S
Zn98 O101 2.036 . S
Zn98 O103 2.049 1_545 S
Zn98 O108 2.067 . S
Zn99 O100 1.962 1_455 S
Zn99 O102 1.986 1_545 S
Zn99 O104 1.996 1_545 S
Zn99 O107 1.943 . S
O100 Zn99 1.962 1_655 S
O100 C105 1.254 . S
O101 Zn98 2.036 . S
O101 C105 1.265 1_455 S
O102 Zn99 1.986 1_565 S
O102 C109 1.262 1_565 S
O103 Zn98 2.049 1_565 S
O103 C111 1.260 . S
O104 Zn99 1.996 1_565 S
O104 C111 1.257 . S
C105 O100 1.254 . S
C105 O101 1.265 1_655 S
C106 O107 1.249 . S
C106 O108 1.270 . S
O107 Zn99 1.943 . S
O107 C106 1.249 . S
O108 Zn98 2.067 . S
O108 C106 1.270 . S
C109 O102 1.262 1_545 S
C109 O110 1.227 1_455 S
O110 C109 1.227 1_655 S
C111 O103 1.260 . S
C111 O104 1.257 . S
Zn112 O115 2.031 . S
Zn112 O117 2.049 . S
Zn112 O122 2.067 . S
Zn113 O114 1.962 . S
Zn113 O116 1.986 . S
Zn113 O118 1.996 . S
Zn113 O121 1.943 . S
O114 Zn113 1.962 . S
O114 C119 1.254 . S
O115 Zn112 2.031 . S
O115 C119 1.269 . S
O116 Zn113 1.986 . S
O116 C123 1.262 . S
O117 Zn112 2.049 . S
O117 C125 1.260 . S
O118 Zn113 1.996 . S
O118 C125 1.257 . S
C119 O114 1.254 . S
C119 O115 1.269 . S
C120 O121 1.249 . S
C120 O122 1.270 . S
O121 Zn113 1.943 . S
O121 C120 1.249 . S
O122 Zn112 2.067 . S
O122 C120 1.270 . S
C123 O116 1.262 . S
C123 O124 1.232 . S
O124 C123 1.232 . S
C125 O117 1.260 . S
C125 O118 1.257 . S
Zn126 O129 2.031 1_455 S
Zn126 O131 2.049 . S
Zn126 O136 2.067 . S
Zn127 O128 1.962 . S
Zn127 O130 1.986 1_545 S
Zn127 O132 1.996 . S
Zn127 O135 1.943 1_655 S
O128 Zn127 1.962 . S
O128 C133 1.254 . S
O129 Zn126 2.031 1_655 S
O129 C133 1.269 . S
O130 Zn127 1.986 1_565 S
O130 C137 1.262 . S
O131 Zn126 2.049 . S
O131 C139 1.260 1_455 S
O132 Zn127 1.996 . S
O132 C139 1.257 . S
C133 O128 1.254 . S
C133 O129 1.269 . S
C134 O135 1.249 . S
C134 O136 1.270 . S
O135 Zn127 1.943 1_455 S
O135 C134 1.249 . S
O136 Zn126 2.067 . S
O136 C134 1.270 . S
C137 O130 1.262 . S
C137 O138 1.232 . S
O138 C137 1.232 . S
C139 O131 1.260 1_655 S
C139 O132 1.257 . S
Zn140 O143 2.031 . S
Zn140 O145 2.049 . S
Zn140 O150 2.067 . S
Zn141 O142 1.962 . S
Zn141 O144 1.986 . S
Zn141 O146 1.996 . S
Zn141 O149 1.943 . S
O142 Zn141 1.962 . S
O142 C147 1.254 . S
O143 Zn140 2.031 . S
O143 C147 1.269 . S
O144 Zn141 1.986 . S
O144 C151 1.262 . S
O145 Zn140 2.049 . S
O145 C153 1.260 . S
O146 Zn141 1.996 . S
O146 C153 1.257 . S
C147 O142 1.254 . S
C147 O143 1.269 . S
C148 O149 1.249 . S
C148 O150 1.270 . S
O149 Zn141 1.943 . S
O149 C148 1.249 . S
O150 Zn140 2.067 . S
O150 C148 1.270 . S
C151 O144 1.262 . S
C151 O152 1.232 . S
O152 C151 1.232 . S
C153 O145 1.260 . S
C153 O146 1.257 . S
Zn154 O157 2.031 . S
Zn154 O159 2.049 . S
Zn154 O164 2.067 . S
Zn155 O156 1.962 . S
Zn155 O158 1.986 1_565 S
Zn155 O160 1.996 . S
Zn155 O163 1.943 . S
O156 Zn155 1.962 . S
O156 C161 1.254 . S
O157 Zn154 2.031 . S
O157 C161 1.269 . S
O158 Zn155 1.986 1_545 S
O158 C165 1.262 . S
O159 Zn154 2.049 . S
O159 C167 1.260 . S
O160 Zn155 1.996 . S
O160 C167 1.257 . S
C161 O156 1.254 . S
C161 O157 1.269 . S
C162 O163 1.249 . S
C162 O164 1.270 . S
O163 Zn155 1.943 . S
O163 C162 1.249 . S
O164 Zn154 2.067 . S
O164 C162 1.270 . S
C165 O158 1.262 . S
C165 O166 1.232 . S
O166 C165 1.232 . S
C167 O159 1.260 . S
C167 O160 1.257 . S
Zn168 O171 2.031 . S
Zn168 O173 2.049 . S
Zn168 O178 2.067 . S
Zn169 O170 1.962 . S
Zn169 O172 1.986 . S
Zn169 O174 1.996 . S
Zn169 O177 1.943 . S
O170 Zn169 1.962 . S
O170 C175 1.254 . S
O171 Zn168 2.031 . S
O171 C175 1.269 . S
O172 Zn169 1.986 . S
O172 C179 1.262 . S
O173 Zn168 2.049 . S
O173 C181 1.260 . S
O174 Zn169 1.996 . S
O174 C181 1.257 . S
C175 O170 1.254 . S
C175 O171 1.269 . S
C176 O177 1.249 . S
C176 O178 1.270 . S
O177 Zn169 1.943 . S
O177 C176 1.249 . S
O178 Zn168 2.067 . S
O178 C176 1.270 . S
C179 O172 1.262 . S
C179 O180 1.232 . S
O180 C179 1.232 . S
C181 O173 1.260 . S
C181 O174 1.257 . S
Zn182 O185 2.031 . S
Zn182 O187 2.049 . S
Zn182 O192 2.067 . S
Zn183 O184 1.962 . S
Zn183 O186 1.986 1_545 S
Zn183 O188 1.996 . S
Zn183 O191 1.943 . S
O184 Zn183 1.962 . S
O184 C189 1.254 . S
O185 Zn182 2.031 . S
O185 C189 1.269 . S
O186 Zn183 1.986 1_565 S
O186 C193 1.262 . S
O187 Zn182 2.049 . S
O187 C195 1.260 . S
O188 Zn183 1.996 . S
O188 C195 1.257 . S
C189 O184 1.254 . S
C189 O185 1.269 . S
C190 O191 1.249 . S
C190 O192 1.270 . S
O191 Zn183 1.943 . S
O191 C190 1.249 . S
O192 Zn182 2.067 . S
O192 C190 1.270 . S
C193 O186 1.262 . S
C193 O194 1.232 . S
O194 C193 1.232 . S
C195 O187 1.260 . S
C195 O188 1.257 . S
Zn196 O199 2.031 . S
Zn196 O201 2.049 . S
Zn196 O206 2.067 . S
Zn197 O198 1.962 . S
Zn197 O200 1.986 . S
Zn197 O202 1.996 . S
Zn197 O205 1.943 . S
O198 Zn197 1.962 . S
O198 C203 1.254 . S
O199 Zn196 2.031 . S
O199 C203 1.269 . S
O200 Zn197 1.986 . S
O200 C207 1.262 . S
O201 Zn196 2.049 . S
O201 C209 1.260 . S
O202 Zn197 1.996 . S
O202 C209 1.257 . S
C203 O198 1.254 . S
C203 O199 1.269 . S
C204 O205 1.249 . S
C204 O206 1.270 . S
O205 Zn197 1.943 . S
O205 C204 1.249 . S
O206 Zn196 2.067 . S
O206 C204 1.270 . S
C207 O200 1.262 . S
C207 O208 1.232 . S
O208 C207 1.232 . S
C209 O201 1.260 . S
C209 O202 1.257 . S
Zn210 O213 2.031 1_455 S
Zn210 O215 2.049 . S
Zn210 O220 2.067 . S
Zn211 O212 1.962 . S
Zn211 O214 1.986 1_565 S
Zn211 O216 1.996 . S
Zn211 O219 1.943 1_655 S
O212 Zn211 1.962 . S
O212 C217 1.254 . S
O213 Zn210 2.031 1_655 S
O213 C217 1.269 . S
O214 Zn211 1.986 1_545 S
O214 C221 1.262 . S
O215 Zn210 2.049 . S
O215 C223 1.260 1_455 S
O216 Zn211 1.996 . S
O216 C223 1.257 . S
C217 O212 1.254 . S
C217 O213 1.269 . S
C218 O219 1.249 . S
C218 O220 1.270 . S
O219 Zn211 1.943 1_455 S
O219 C218 1.249 . S
O220 Zn210 2.067 . S
O220 C218 1.270 . S
C221 O214 1.262 . S
C221 O222 1.232 . S
O222 C221 1.232 . S
C223 O215 1.260 1_655 S
C223 O216 1.257 . S
Zn224 O227 2.031 . S
Zn224 O229 2.049 . S
Zn224 O234 2.067 . S
Zn225 O226 1.962 . S
Zn225 O228 1.986 . S
Zn225 O230 1.996 . S
Zn225 O233 1.943 . S
O226 Zn225 1.962 . S
O226 C231 1.254 . S
O227 Zn224 2.031 . S
O227 C231 1.269 . S
O228 Zn225 1.986 . S
O228 C235 1.262 . S
O229 Zn224 2.049 . S
O229 C237 1.260 . S
O230 Zn225 1.996 . S
O230 C237 1.257 . S
C231 O226 1.254 . S
C231 O227 1.269 . S
C232 O233 1.249 . S
C232 O234 1.270 . S
O233 Zn225 1.943 . S
O233 C232 1.249 . S
O234 Zn224 2.067 . S
O234 C232 1.270 . S
C235 O228 1.262 . S
C235 O236 1.232 . S
O236 C235 1.232 . S
C237 O229 1.260 . S
C237 O230 1.257 . S
Zn238 O241 2.031 . S
Zn238 O243 2.049 . S
Zn238 O248 2.067 . S
Zn239 O240 1.962 . S
Zn239 O242 1.986 . S
Zn239 O244 1.996 . S
Zn239 O247 1.943 . S
O240 Zn239 1.962 . S
O240 C245 1.254 . S
O241 Zn238 2.031 . S
O241 C245 1.269 . S
O242 Zn239 1.986 . S
O242 C249 1.262 . S
O243 Zn238 2.049 . S
O243 C251 1.260 . S
O244 Zn239 1.996 . S
O244 C251 1.257 . S
C245 O240 1.254 . S
C245 O241 1.269 . S
C246 O247 1.249 . S
C246 O248 1.270 . S
O247 Zn239 1.943 . S
O247 C246 1.249 . S
O248 Zn238 2.067 . S
O248 C246 1.270 . S
C249 O242 1.262 . S
C249 O250 1.232 . S
O250 C249 1.232 . S
C251 O243 1.260 . S
C251 O244 1.257 . S
Zn252 O255 2.031 . S
Zn252 O257 2.049 . S
Zn252 O262 2.067 . S
Zn253 O254 1.962 . S
Zn253 O256 1.986 . S
Zn253 O258 1.996 . S
Zn253 O261 1.943 . S
O254 Zn253 1.962 . S
O254 C259 1.254 . S
O255 Zn252 2.031 . S
O255 C259 1.269 . S
O256 Zn253 1.986 . S
O256 C263 1.262 . S
O257 Zn252 2.049 . S
O257 C265 1.260 . S
O258 Zn253 1.996 . S
O258 C265 1.257 . S
C259 O254 1.254 . S
C259 O255 1.269 . S
C260 O261 1.249 . S
C260 O262 1.270 . S
O261 Zn253 1.943 . S
O261 C260 1.249 . S
O262 Zn252 2.067 . S
O262 C260 1.270 . S
C263 O256 1.262 . S
C263 O264 1.232 . S
O264 C263 1.232 . S
C265 O257 1.260 . S
C265 O258 1.257 . S
Zn266 O269 2.036 . S
Zn266 O271 2.049 . S
Zn266 O276 2.067 . S
Zn267 O268 1.962 1_655 S
Zn267 O270 1.986 . S
Zn267 O272 1.996 . S
Zn267 O275 1.943 . S
O268 Zn267 1.962 1_455 S
O268 C273 1.254 . S
O269 Zn266 2.036 . S
O269 C273 1.265 1_655 S
O270 Zn267 1.986 . S
O270 C277 1.262 . S
O271 Zn266 2.049 . S
O271 C279 1.260 . S
O272 Zn267 1.996 . S
O272 C279 1.257 . S
C273 O268 1.254 . S
C273 O269 1.265 1_455 S
C274 O275 1.249 . S
C274 O276 1.270 . S
O275 Zn267 1.943 . S
O275 C274 1.249 . S
O276 Zn266 2.067 . S
O276 C274 1.270 . S
C277 O270 1.262 . S
C277 O278 1.227 1_655 S
O278 C277 1.227 1_455 S
C279 O271 1.260 . S
C279 O272 1.257 . S
Zn280 O283 2.031 . S
Zn280 O285 2.049 . S
Zn280 O290 2.067 . S
Zn281 O282 1.962 . S
Zn281 O284 1.986 . S
Zn281 O286 1.996 . S
Zn281 O289 1.943 . S
O282 Zn281 1.962 . S
O282 C287 1.254 . S
O283 Zn280 2.031 . S
O283 C287 1.269 . S
O284 Zn281 1.986 . S
O284 C291 1.262 . S
O285 Zn280 2.049 . S
O285 C293 1.260 . S
O286 Zn281 1.996 . S
O286 C293 1.257 . S
C287 O282 1.254 . S
C287 O283 1.269 . S
C288 O289 1.249 . S
C288 O290 1.270 . S
O289 Zn281 1.943 . S
O289 C288 1.249 . S
O290 Zn280 2.067 . S
O290 C288 1.270 . S
C291 O284 1.262 . S
C291 O292 1.232 . S
O292 C291 1.232 . S
C293 O285 1.260 . S
C293 O286 1.257 . S
Zn294 O297 2.036 . S
Zn294 O299 2.049 . S
Zn294 O304 2.067 . S
Zn295 O296 1.962 1_655 S
Zn295 O298 1.986 . S
Zn295 O300 1.996 . S
Zn295 O303 1.943 . S
O296 Zn295 1.962 1_455 S
O296 C301 1.254 . S
O297 Zn294 2.036 . S
O297 C301 1.265 1_655 S
O298 Zn295 1.986 . S
O298 C305 1.262 . S
O299 Zn294 2.049 . S
O299 C307 1.260 . S
O300 Zn295 1.996 . S
O300 C307 1.257 . S
C301 O296 1.254 . S
C301 O297 1.265 1_455 S
C302 O303 1.249 . S
C302 O304 1.270 . S
O303 Zn295 1.943 . S
O303 C302 1.249 . S
O304 Zn294 2.067 . S
O304 C302 1.270 . S
C305 O298 1.262 . S
C305 O306 1.227 1_655 S
O306 C305 1.227 1_455 S
C307 O299 1.260 . S
C307 O300 1.257 . S
Zn308 O311 2.031 . S
Zn308 O313 2.049 . S
Zn308 O318 2.067 . S
Zn309 O310 1.962 . S
Zn309 O312 1.986 . S
Zn309 O314 1.996 . S
Zn309 O317 1.943 . S
O310 Zn309 1.962 . S
O310 C315 1.254 . S
O311 Zn308 2.031 . S
O311 C315 1.269 . S
O312 Zn309 1.986 . S
O312 C319 1.262 . S
O313 Zn308 2.049 . S
O313 C321 1.260 . S
O314 Zn309 1.996 . S
O314 C321 1.257 . S
C315 O310 1.254 . S
C315 O311 1.269 . S
C316 O317 1.249 . S
C316 O318 1.270 . S
O317 Zn309 1.943 . S
O317 C316 1.249 . S
O318 Zn308 2.067 . S
O318 C316 1.270 . S
C319 O312 1.262 . S
C319 O320 1.232 . S
O320 C319 1.232 . S
C321 O313 1.260 . S
C321 O314 1.257 . S
Zn322 O325 2.031 . S
Zn322 O327 2.049 . S
Zn322 O332 2.067 . S
Zn323 O324 1.962 . S
Zn323 O326 1.986 . S
Zn323 O328 1.996 . S
Zn323 O331 1.943 . S
O324 Zn323 1.962 . S
O324 C329 1.254 . S
O325 Zn322 2.031 . S
O325 C329 1.269 . S
O326 Zn323 1.986 . S
O326 C333 1.262 . S
O327 Zn322 2.049 . S
O327 C335 1.260 . S
O328 Zn323 1.996 . S
O328 C335 1.257 . S
C329 O324 1.254 . S
C329 O325 1.269 . S
C330 O331 1.249 . S
C330 O332 1.270 . S
O331 Zn323 1.943 . S
O331 C330 1.249 . S
O332 Zn322 2.067 . S
O332 C330 1.270 . S
C333 O326 1.262 . S
C333 O334 1.232 . S
O334 C333 1.232 . S
C335 O327 1.260 . S
C335 O328 1.257 . S
Zn336 O339 2.031 . S
Zn336 O341 2.049 . S
Zn336 O346 2.067 . S
Zn337 O338 1.962 . S
Zn337 O340 1.986 . S
Zn337 O342 1.996 . S
Zn337 O345 1.943 . S
O338 Zn337 1.962 . S
O338 C343 1.254 . S
O339 Zn336 2.031 . S
O339 C343 1.269 . S
O340 Zn337 1.986 . S
O340 C347 1.262 . S
O341 Zn336 2.049 . S
O341 C349 1.260 . S
O342 Zn337 1.996 . S
O342 C349 1.257 . S
C343 O338 1.254 . S
C343 O339 1.269 . S
C344 O345 1.249 . S
C344 O346 1.270 . S
O345 Zn337 1.943 . S
O345 C344 1.249 . S
O346 Zn336 2.067 . S
O346 C344 1.270 . S
C347 O340 1.262 . S
C347 O348 1.232 . S
O348 C347 1.232 . S
C349 O341 1.260 . S
C349 O342 1.257 . S
Zn350 O353 2.031 . S
Zn350 O355 2.049 . S
Zn350 O360 2.067 . S
Zn351 O352 1.962 . S
Zn351 O354 1.986 . S
Zn351 O356 1.996 . S
Zn351 O359 1.943 . S
O352 Zn351 1.962 . S
O352 C357 1.254 . S
O353 Zn350 2.031 . S
O353 C357 1.269 . S
O354 Zn351 1.986 . S
O354 C361 1.262 . S
O355 Zn350 2.049 . S
O355 C363 1.260 . S
O356 Zn351 1.996 . S
O356 C363 1.257 . S
C357 O352 1.254 . S
C357 O353 1.269 . S
C358 O359 1.249 . S
C358 O360 1.270 . S
O359 Zn351 1.943 . S
O359 C358 1.249 . S
O360 Zn350 2.067 . S
O360 C358 1.270 . S
C361 O354 1.262 . S
C361 O362 1.232 . S
O362 C361 1.232 . S
C363 O355 1.260 . S
C363 O356 1.257 . S
Zn364 O367 2.031 . S
Zn364 O369 2.049 . S
Zn364 O374 2.067 . S
Zn365 O366 1.962 . S
Zn365 O368 1.986 . S
Zn365 O370 1.996 . S
Zn365 O373 1.943 . S
O366 Zn365 1.962 . S
O366 C371 1.254 . S
O367 Zn364 2.031 . S
O367 C371 1.269 . S
O368 Zn365 1.986 . S
O368 C375 1.262 . S
O369 Zn364 2.049 . S
O369 C377 1.260 . S
O370 Zn365 1.996 . S
O370 C377 1.257 . S
C371 O366 1.254 . S
C371 O367 1.269 . S
C372 O373 1.249 . S
C372 O374 1.270 . S
O373 Zn365 1.943 . S
O373 C372 1.249 . S
O374 Zn364 2.067 . S
O374 C372 1.270 . S
C375 O368 1.262 . S
C375 O376 1.232 . S
O376 C375 1.232 . S
C377 O369 1.260 . S
C377 O370 1.257 . S
Zn378 O381 2.031 1_655 S
Zn378 O383 2.049 . S
Zn378 O388 2.067 . S
Zn379 O380 1.962 . S
Zn379 O382 1.986 . S
Zn379 O384 1.996 . S
Zn379 O387 1.943 1_455 S
O380 Zn379 1.962 . S
O380 C385 1.254 . S
O381 Zn378 2.031 1_455 S
O381 C385 1.269 . S
O382 Zn379 1.986 . S
O382 C389 1.262 . S
O383 Zn378 2.049 . S
O383 C391 1.260 1_655 S
O384 Zn379 1.996 . S
O384 C391 1.257 . S
C385 O380 1.254 . S
C385 O381 1.269 . S
C386 O387 1.249 . S
C386 O388 1.270 . S
O387 Zn379 1.943 1_655 S
O387 C386 1.249 . S
O388 Zn378 2.067 . S
O388 C386 1.270 . S
C389 O382 1.262 . S
C389 O390 1.232 . S
O390 C389 1.232 . S
C391 O383 1.260 1_455 S
C391 O384 1.257 . S
Zn392 O395 2.031 . S
Zn392 O397 2.049 . S
Zn392 O402 2.067 . S
Zn393 O394 1.962 . S
Zn393 O396 1.986 . S
Zn393 O398 1.996 . S
Zn393 O401 1.943 . S
O394 Zn393 1.962 . S
O394 C399 1.254 . S
O395 Zn392 2.031 . S
O395 C399 1.269 . S
O396 Zn393 1.986 . S
O396 C403 1.262 . S
O397 Zn392 2.049 . S
O397 C405 1.260 . S
O398 Zn393 1.996 . S
O398 C405 1.257 . S
C399 O394 1.254 . S
C399 O395 1.269 . S
C400 O401 1.249 . S
C400 O402 1.270 . S
O401 Zn393 1.943 . S
O401 C400 1.249 . S
O402 Zn392 2.067 . S
O402 C400 1.270 . S
C403 O396 1.262 . S
C403 O404 1.232 . S
O404 C403 1.232 . S
C405 O397 1.260 . S
C405 O398 1.257 . S
Zn406 O409 2.031 1_655 S
Zn406 O411 2.049 . S
Zn406 O416 2.067 . S
Zn407 O408 1.962 . S
Zn407 O410 1.986 . S
Zn407 O412 1.996 . S
Zn407 O415 1.943 1_455 S
O408 Zn407 1.962 . S
O408 C413 1.254 . S
O409 Zn406 2.031 1_455 S
O409 C413 1.269 . S
O410 Zn407 1.986 . S
O410 C417 1.262 . S
O411 Zn406 2.049 . S
O411 C419 1.260 1_655 S
O412 Zn407 1.996 . S
O412 C419 1.257 . S
C413 O408 1.254 . S
C413 O409 1.269 . S
C414 O415 1.249 . S
C414 O416 1.270 . S
O415 Zn407 1.943 1_655 S
O415 C414 1.249 . S
O416 Zn406 2.067 . S
O416 C414 1.270 . S
C417 O410 1.262 . S
C417 O418 1.232 . S
O418 C417 1.232 . S
C419 O411 1.260 1_455 S
C419 O412 1.257 . S
Zn420 O423 2.031 . S
Zn420 O425 2.049 . S
Zn420 O430 2.067 . S
Zn421 O422 1.962 . S
Zn421 O424 1.986 . S
Zn421 O426 1.996 . S
Zn421 O429 1.943 . S
O422 Zn421 1.962 . S
O422 C427 1.254 . S
O423 Zn420 2.031 . S
O423 C427 1.269 . S
O424 Zn421 1.986 . S
O424 C431 1.262 . S
O425 Zn420 2.049 . S
O425 C433 1.260 . S
O426 Zn421 1.996 . S
O426 C433 1.257 . S
C427 O422 1.254 . S
C427 O423 1.269 . S
C428 O429 1.249 . S
C428 O430 1.270 . S
O429 Zn421 1.943 . S
O429 C428 1.249 . S
O430 Zn420 2.067 . S
O430 C428 1.270 . S
C431 O424 1.262 . S
C431 O432 1.232 . S
O432 C431 1.232 . S
C433 O425 1.260 . S
C433 O426 1.257 . S
Zn434 O437 2.031 . S
Zn434 O439 2.049 . S
Zn434 O444 2.067 . S
Zn435 O436 1.962 . S
Zn435 O438 1.986 . S
Zn435 O440 1.996 . S
Zn435 O443 1.943 . S
O436 Zn435 1.962 . S
O436 C441 1.254 . S
O437 Zn434 2.031 . S
O437 C441 1.269 . S
O438 Zn435 1.986 . S
O438 C445 1.262 . S
O439 Zn434 2.049 . S
O439 C447 1.260 . S
O440 Zn435 1.996 . S
O440 C447 1.257 . S
C441 O436 1.254 . S
C441 O437 1.269 . S
C442 O443 1.249 . S
C442 O444 1.270 . S
O443 Zn435 1.943 . S
O443 C442 1.249 . S
O444 Zn434 2.067 . S
O444 C442 1.270 . S
C445 O438 1.262 . S
C445 O446 1.232 . S
O446 C445 1.232 . S
C447 O439 1.260 . S
C447 O440 1.257 . S
C385 C8 1.592 . S
C21 C119 1.470 . S
C357 C36 1.592 . S
C49 C147 1.470 . S
C64 C413 1.592 . S
C77 C203 1.470 . S
C92 C441 1.592 . S
C105 C175 1.470 . S
C274 C120 1.235 . S
C7 C134 1.352 . S
C246 C148 1.236 . S
C162 C35 1.352 . S
C302 C176 1.236 . S
C91 C190 1.352 . S
C204 C330 1.236 . S
C63 C218 1.352 . S
C232 C161 1.592 . S
C245 C343 1.470 . S
C133 C260 1.592 . S
C371 C273 1.470 . S
C189 C288 1.592 . S
C427 C301 1.470 . S
C217 C316 1.592 . S
C329 C399 1.470 . S
C50 C344 1.235 . S
C358 C231 1.352 . S
C372 C22 1.236 . S
C386 C259 1.352 . S
C400 C78 1.236 . S
C414 C315 1.352 . S
C428 C106 1.236 . S
C442 C287 1.352 . S
C349 C13 1.723 . S
C25 C139 1.612 1_465 S
C377 C41 1.723 . S
C53 C167 1.612 1_544 S
C405 C69 1.723 . S
C81 C195 1.612 1_565 S
C433 C97 1.723 . S
C109 C223 1.612 1_446 S
C125 C237 1.723 . S
C153 C265 1.723 . S
C181 C293 1.723 . S
C209 C321 1.723 . S
C249 C363 1.612 1_554 S
C391 C277 1.612 1_455 S
C419 C305 1.612 1_454 S
C333 C447 1.612 . S
C11 C83 1.484 . S
C27 C95 1.484 . S
C39 C111 1.484 . S
C67 C55 1.484 . S
C123 C193 1.401 . S
C137 C207 1.401 . S
C151 C221 1.401 . S
C165 C179 1.401 . S
C235 C307 1.484 . S
C319 C251 1.484 . S
C263 C335 1.484 . S
C279 C291 1.484 . S
C417 C347 1.401 . S
C361 C431 1.401 . S
C445 C375 1.401 . S
C389 C403 1.401 . S
