# Generated by pormake.
# Topology qtz-e, (6)-cn, num edge types: 1
# Building blocks:
#     Node 0, Type 0, BuildingBlock: KUMJIN_clean_sbu_0, # of connection points: 6
#     Node 1, Type 0, BuildingBlock: KUMJIN_clean_sbu_0, # of connection points: 6
#     Node 2, Type 0, BuildingBlock: KUMJIN_clean_sbu_0, # of connection points: 6
#     Node 3, Type 0, BuildingBlock: KUMJIN_clean_sbu_0, # of connection points: 6
#     Node 4, Type 0, BuildingBlock: KUMJIN_clean_sbu_0, # of connection points: 6
#     Node 5, Type 0, BuildingBlock: KUMJIN_clean_sbu_0, # of connection points: 6
#     Edge 6, Type (0, 0), BuildingBlock: XIVTED_clean_linker_0, # of connection points: 2
#     Edge 7, Type (0, 0), BuildingBlock: XIVTED_clean_linker_0, # of connection points: 2
#     Edge 8, Type (0, 0), BuildingBlock: XIVTED_clean_linker_0, # of connection points: 2
#     Edge 9, Type (0, 0), BuildingBlock: XIVTED_clean_linker_0, # of connection points: 2
#     Edge 10, Type (0, 0), BuildingBlock: XIVTED_clean_linker_0, # of connection points: 2
#     Edge 11, Type (0, 0), BuildingBlock: XIVTED_clean_linker_0, # of connection points: 2
#     Edge 12, Type (0, 0), BuildingBlock: XIVTED_clean_linker_0, # of connection points: 2
#     Edge 13, Type (0, 0), BuildingBlock: XIVTED_clean_linker_0, # of connection points: 2
#     Edge 14, Type (0, 0), BuildingBlock: XIVTED_clean_linker_0, # of connection points: 2
#     Edge 15, Type (0, 0), BuildingBlock: XIVTED_clean_linker_0, # of connection points: 2
#     Edge 16, Type (0, 0), BuildingBlock: XIVTED_clean_linker_0, # of connection points: 2
#     Edge 17, Type (0, 0), BuildingBlock: XIVTED_clean_linker_0, # of connection points: 2
#     Edge 18, Type (0, 0), BuildingBlock: XIVTED_clean_linker_0, # of connection points: 2
#     Edge 19, Type (0, 0), BuildingBlock: XIVTED_clean_linker_0, # of connection points: 2
#     Edge 20, Type (0, 0), BuildingBlock: XIVTED_clean_linker_0, # of connection points: 2
#     Edge 21, Type (0, 0), BuildingBlock: XIVTED_clean_linker_0, # of connection points: 2
#     Edge 22, Type (0, 0), BuildingBlock: XIVTED_clean_linker_0, # of connection points: 2
#     Edge 23, Type (0, 0), BuildingBlock: XIVTED_clean_linker_0, # of connection points: 2
# Relax obj value: 0.058
# Max RMSD: 0.144
# Mean RMSD: 0.144
data_MOF--net-qtz-e--node1-KUMJIN_clean_sbu_0--edge1-XIVTED_clean_linker_0
_symmetry_space_group_name_H-M    P1
_symmetry_Int_Tables_number       1
_symmetry_cell_setting            triclinic
loop_
_symmetry_equiv_pos_as_xyz
'x, y, z'
_cell_length_a     29.533491
_cell_length_b     29.535907
_cell_length_c     46.829134
_cell_angle_alpha  90.074151
_cell_angle_beta   90.067882
_cell_angle_gamma 120.00061
loop_
_atom_site_label
_atom_site_type_symbol
_atom_site_fract_x
_atom_site_fract_y
_atom_site_fract_z
_atom_type_partial_charge
Eu0 Eu 0.27295 0.49356 0.04935 0.0
C1 C 0.10219 0.26942 0.03292 0.0
C2 C 0.13683 0.23054 0.06539 0.0
C3 C 0.04287 0.19115 0.05946 0.0
C4 C 0.1445 0.26992 0.04571 0.0
C5 C 0.05086 0.22936 0.03914 0.0
C6 C 0.08581 0.19178 0.07259 0.0
C7 C 0.01939 0.26547 1.00318 0.0
N8 N 0.11128 0.30682 0.01342 0.0
C9 C 0.07099 0.30426 0.99774 0.0
C10 C 1.00919 0.22823 0.02426 0.0
Eu11 Eu 0.19922 0.37354 1.00637 0.0
N12 N 0.19324 0.30818 0.03841 0.0
C13 C 0.23605 0.30721 0.04867 0.0
C14 C 0.18068 0.23086 0.07691 0.0
C15 C 0.2305 0.26902 0.06822 0.0
H16 H 0.07864 0.33264 0.98115 0.0
H17 H 0.26471 0.26905 0.07656 0.0
H18 H 0.07917 0.16155 0.08787 0.0
H19 H 0.98759 0.26426 0.99104 0.0
H20 H 0.27472 0.33571 0.04205 0.0
H21 H 0.25393 0.63684 0.98406 0.0
H22 H 0.17649 0.20135 0.09209 0.0
H23 H 0.38629 0.52 0.08178 0.0
H24 H 0.22555 0.56421 0.01789 0.0
H25 H 0.48126 0.57063 0.07261 0.0
H26 H 1.00373 0.16038 0.06474 0.0
H27 H 0.34391 0.68062 0.96484 0.0
H28 H 0.4338 0.69134 0.96584 0.0
H29 H 0.9692 0.19808 0.02839 0.0
H30 H 0.49624 0.67141 0.98946 0.0
N31 N 0.29838 0.56546 0.01778 0.0
C32 C 0.26501 0.58279 1.00993 0.0
C33 C 0.3317 0.64868 0.97981 0.0
C34 C 0.36677 0.63325 0.98945 0.0
C35 C 0.28098 0.62423 0.99071 0.0
C36 C 0.34885 0.59141 1.00898 0.0
H37 H 0.51466 0.62734 0.03004 0.0
N38 N 0.36577 0.54473 0.04361 0.0
C39 C 0.45426 0.57304 0.0579 0.0
C40 C 0.38372 0.57993 0.02203 0.0
C41 C 0.40043 0.54436 0.06297 0.0
C42 C 0.47291 0.60478 0.03378 0.0
C43 C 0.43772 0.61036 0.0162 0.0
O44 O 0.2961 0.51885 0.09336 0.0
O45 O 0.20821 0.40987 0.04967 0.0
O46 O 0.1421 0.40477 0.01351 0.0
O47 O 0.19183 0.48062 0.04079 0.0
O48 O 0.25855 0.43467 0.08415 0.0
O49 O 0.25157 0.5465 0.07039 0.0
O50 O 0.16993 0.34127 0.96363 0.0
O51 O 0.25652 0.45941 1.00477 0.0
O52 O 0.32077 0.45426 0.04701 0.0
O53 O 0.28824 0.40439 1.00603 0.0
O54 O 0.19219 0.42826 0.97661 0.0
O55 O 0.2382 0.3417 0.98001 0.0
C56 C 0.21678 0.39583 0.07365 0.0
C57 C 0.31534 0.60423 0.10302 0.0
C58 C 0.34842 0.66981 0.14088 0.0
C59 C 0.3105 0.62044 0.13037 0.0
C60 C 0.39154 0.70226 0.12351 0.0
C61 C 0.35751 0.63799 0.08574 0.0
C62 C 0.39562 0.68655 0.09602 0.0
C63 C 0.14844 0.44733 0.02714 0.0
C64 C 0.27814 0.55097 0.09342 0.0
C65 C 0.45507 0.64843 0.99466 0.0
C66 C 0.41956 0.65993 0.9813 0.0
C67 C 0.23492 0.46975 0.9842 0.0
C68 C 0.19085 0.27948 0.94359 0.0
C69 C 0.21852 0.27822 0.91908 0.0
C70 C 0.20463 0.23027 0.90514 0.0
C71 C 0.16197 0.18423 0.91601 0.0
C72 C 0.149 0.23275 0.95385 0.0
C73 C 0.1346 0.18557 0.94003 0.0
C74 C 0.32617 0.43031 0.02486 0.0
C75 C 0.20621 0.32951 0.95848 0.0
H76 H 0.27683 0.59465 0.14317 0.0
H77 H 0.42224 0.73984 0.13107 0.0
H78 H 0.36135 0.62675 0.06447 0.0
H79 H 0.42853 0.71198 0.08268 0.0
H80 H 0.2513 0.31424 0.91129 0.0
H81 H 0.14932 0.14687 0.90577 0.0
H82 H 0.12745 0.23279 0.97255 0.0
H83 H 0.102 0.14968 0.94802 0.0
Eu84 Eu 0.76303 0.25682 0.37949 0.0
C85 C 0.83717 0.09994 0.36258 0.0
C86 C 0.90576 0.13235 0.39828 0.0
C87 C 0.85691 0.0395 0.38739 0.0
C88 C 0.87565 0.14121 0.378 0.0
C89 C 0.82822 0.04876 0.3666 0.0
C90 C 0.89555 0.08121 0.40324 0.0
C91 C 0.7663 0.02036 0.32762 0.0
N92 N 0.81016 0.11013 0.34267 0.0
C93 C 0.7767 0.07173 0.32441 0.0
C94 C 0.79165 0.00865 0.34909 0.0
Eu95 Eu 0.82839 0.19762 0.33892 0.0
N96 N 0.88448 0.19016 0.37274 0.0
C97 C 0.92445 0.23229 0.38626 0.0
C98 C 0.94575 0.17523 0.41271 0.0
C99 C 0.95543 0.22545 0.40645 0.0
H100 H 0.75727 0.08071 0.3076 0.0
H101 H 0.98649 0.25894 0.41736 0.0
H102 H 0.91798 0.07364 0.4189 0.0
H103 H 0.73889 0.98989 0.31349 0.0
H104 H 0.9322 0.27136 0.38219 0.0
H105 H 0.6342 0.28335 0.3059 0.0
H106 H 0.96968 0.17006 0.42846 0.0
H107 H 0.83728 0.33824 0.43194 0.0
H108 H 0.66682 0.23416 0.33306 0.0
H109 H 0.87369 0.43034 0.4463 0.0
H110 H 0.85023 1.00039 0.39097 0.0
H111 H 0.67592 0.37916 0.31194 0.0
H112 H 0.74051 0.46006 0.33833 0.0
H113 H 0.78371 0.96885 0.35148 0.0
H114 H 0.80537 0.50006 0.37693 0.0
N115 N 0.72868 0.30142 0.35293 0.0
C116 C 0.68592 0.27593 0.33562 0.0
C117 C 0.69074 0.35774 0.32372 0.0
C118 C 0.73155 0.38305 0.34341 0.0
C119 C 0.66704 0.30369 0.3203 0.0
C120 C 0.74936 0.35328 0.35819 0.0
H121 H 0.8544 0.48904 0.41769 0.0
N122 N 0.79873 0.34481 0.39506 0.0
C123 C 0.84915 0.41556 0.42751 0.0
C124 C 0.78526 0.37564 0.38008 0.0
C125 C 0.82838 0.36332 0.4193 0.0
C126 C 0.83828 0.4486 0.41127 0.0
C127 C 0.80519 0.42856 0.38754 0.0
O128 O 0.73633 0.24716 0.42369 0.0
O129 O 0.79286 0.20002 0.38086 0.0
O130 O 0.74186 0.13415 0.3455 0.0
O131 O 0.7027 0.18415 0.35654 0.0
O132 O 0.81012 0.24916 0.41539 0.0
O133 O 0.6799 0.21968 0.38908 0.0
O134 O 0.83652 0.17805 0.2948 0.0
O135 O 0.79359 0.24875 0.33733 0.0
O136 O 0.84073 0.32433 0.36791 0.0
O137 O 0.88538 0.28646 0.34614 0.0
O138 O 0.7764 0.19672 0.30339 0.0
O139 O 0.90442 0.23691 0.31721 0.0
C140 C 0.81401 0.21077 0.4053 0.0
C141 C 0.66483 0.26085 0.42831 0.0
C142 C 0.64478 0.2965 0.47024 0.0
C143 C 0.6653 0.26717 0.45795 0.0
C144 C 0.62485 0.32064 0.45227 0.0
C145 C 0.64433 0.2849 0.41075 0.0
C146 C 0.62489 0.31495 0.42272 0.0
C147 C 0.70013 0.13977 0.34904 0.0
C148 C 0.68813 0.23123 0.41616 0.0
C149 C 0.79008 0.4592 0.37171 0.0
C150 C 0.75325 0.43645 0.3497 0.0
C151 C 0.77063 0.23416 0.31351 0.0
C152 C 0.91919 0.19367 0.27831 0.0
C153 C 0.94772 0.21982 0.25345 0.0
C154 C 0.97875 0.20279 0.23899 0.0
C155 C 0.97951 0.1586 0.2497 0.0
C156 C 0.92146 0.15026 0.28843 0.0
C157 C 0.95126 0.1328 0.27411 0.0
C158 C 0.88285 0.32721 0.35661 0.0
C159 C 0.88652 0.21127 0.29329 0.0
H160 H 0.6818 0.24919 0.47141 0.0
H161 H 0.60772 0.3426 0.46101 0.0
H162 H 0.64326 0.2807 0.38781 0.0
H163 H 0.60913 0.3333 0.40907 0.0
H164 H 0.94637 0.25369 0.24573 0.0
H165 H 1.00175 0.1435 0.23904 0.0
H166 H 0.89995 0.1297 0.30733 0.0
H167 H 0.95246 0.09897 0.28197 0.0
Eu168 Eu 0.51564 0.76241 0.70603 0.0
C169 C 0.7497 0.82388 0.69283 0.0
C170 C 0.78939 0.88642 0.73128 0.0
C171 C 0.82743 0.83375 0.71658 0.0
C172 C 0.75 0.86151 0.71039 0.0
C173 C 0.78903 0.81028 0.69526 0.0
C174 C 0.82754 0.87169 0.7346 0.0
C175 C 0.75156 0.75403 0.65416 0.0
N176 N 0.71214 0.80206 0.67252 0.0
C177 C 0.71349 0.7689 0.65262 0.0
C178 C 0.7892 0.77437 0.67579 0.0
Eu179 Eu 0.64715 0.82654 0.67158 0.0
N180 N 0.71254 0.87473 0.70655 0.0
C181 C 0.71399 0.91474 0.72203 0.0
C182 C 0.78975 0.92596 0.7479 0.0
C183 C 0.75222 0.94056 0.74301 0.0
H184 H 0.6843 0.75304 0.63589 0.0
H185 H 0.75246 0.97149 0.75554 0.0
H186 H 0.85784 0.89009 0.75068 0.0
H187 H 0.75186 0.72695 0.63867 0.0
H188 H 0.68508 0.92631 0.719 0.0
H189 H 0.36706 0.63265 0.62936 0.0
H190 H 0.81924 0.94594 0.76422 0.0
H191 H 0.50599 0.84231 0.75365 0.0
H192 H 0.44441 0.66354 0.66037 0.0
H193 H 0.45327 0.88485 0.76156 0.0
H194 H 0.85771 0.8235 0.71896 0.0
H195 H 0.31749 0.67976 0.62866 0.0
H196 H 0.30296 0.74978 0.64968 0.0
H197 H 0.81876 0.76293 0.67692 0.0
H198 H 0.32595 0.81808 0.6861 0.0
N199 N 0.44074 0.72919 0.67605 0.0
C200 C 0.42353 0.68476 0.66014 0.0
C201 C 0.3517 0.69372 0.6422 0.0
C202 C 0.36687 0.73659 0.66038 0.0
C203 C 0.37946 0.66694 0.6426 0.0
C204 C 0.41176 0.75317 0.67755 0.0
H205 H 0.3813 0.86796 0.72832 0.0
N206 N 0.46514 0.80279 0.7159 0.0
C207 C 0.44477 0.85867 0.74361 0.0
C208 C 0.42397 0.79078 0.69836 0.0
C209 C 0.47452 0.83445 0.73909 0.0
C210 C 0.40427 0.84915 0.72475 0.0
C211 C 0.39274 0.81404 0.70211 0.0
O212 O 0.49421 0.73816 0.75031 0.0
O213 O 0.60129 0.79052 0.71128 0.0
O214 O 0.62063 0.73928 0.67948 0.0
O215 O 0.52982 0.70152 0.68523 0.0
O216 O 0.56631 0.80798 0.74397 0.0
O217 O 0.46429 0.68012 0.71657 0.0
O218 O 0.67461 0.84026 0.62731 0.0
O219 O 0.56187 0.79241 0.66593 0.0
O220 O 0.53022 0.8397 0.6902 0.0
O221 O 0.62087 0.88632 0.68336 0.0
O222 O 0.60175 0.77717 0.63395 0.0
O223 O 0.6844 0.90526 0.6529 0.0
C224 C 0.60923 0.81069 0.73584 0.0
C225 C 0.40836 0.66895 0.75532 0.0
C226 C 0.35029 0.6391 0.79659 0.0
C227 C 0.39917 0.65409 0.78409 0.0
C228 C 0.31126 0.6403 0.77977 0.0
C229 C 0.36798 0.66736 0.73875 0.0
C230 C 0.31995 0.65364 0.751 0.0
C231 C 0.57223 0.69809 0.68068 0.0
C232 C 0.46116 0.68982 0.74347 0.0
C233 C 0.35013 0.80027 0.68376 0.0
C234 C 0.33714 0.7615 0.66296 0.0
C235 C 0.55727 0.7711 0.64186 0.0
C236 C 0.74087 0.92454 0.6127 0.0
C237 C 0.74119 0.95155 0.58759 0.0
C238 C 0.7885 0.98408 0.57288 0.0
C239 C 0.83491 0.98797 0.58364 0.0
C240 C 0.78784 0.92964 0.6228 0.0
C241 C 0.83447 0.96106 0.60827 0.0
C242 C 0.57463 0.88341 0.68642 0.0
C243 C 0.69131 0.89025 0.62784 0.0
H244 H 0.43009 0.65398 0.79651 0.0
H245 H 0.27385 0.631 0.78876 0.0
H246 H 0.37348 0.67712 0.71644 0.0
H247 H 0.28943 0.65366 0.73818 0.0
H248 H 0.70489 0.94783 0.57985 0.0
H249 H 0.87181 0.01158 0.57282 0.0
H250 H 0.78835 0.90908 0.64184 0.0
H251 H 0.87058 0.96457 0.61612 0.0
Eu252 Eu 0.76972 0.52036 0.04026 0.0
C253 C 0.94474 0.74981 0.01828 0.0
C254 C 0.92627 0.79561 0.0552 0.0
C255 C 0.01563 0.82922 0.0391 0.0
C256 C 0.90936 0.75347 0.0359 0.0
C257 C 0.99815 0.7883 0.01914 0.0
C258 C 0.97973 0.83282 0.05715 0.0
C259 C 0.01212 0.74542 0.97892 0.0
N260 N 0.92644 0.71011 0.99917 0.0
C261 C 0.95876 0.70837 0.97889 0.0
C262 C 0.03206 0.78525 0.99938 0.0
Eu263 Eu 0.83646 0.64669 1.00109 0.0
N264 N 0.85804 0.71711 0.03321 0.0
C265 C 0.82111 0.72262 0.04791 0.0
C266 C 0.8888 0.79984 0.0714 0.0
C267 C 0.83592 0.76359 0.06742 0.0
H268 H 0.94337 0.67741 0.96312 0.0
H269 H 0.80652 0.76699 0.07947 0.0
H270 H 0.99353 0.8652 0.07203 0.0
H271 H 0.03778 0.74325 0.96319 0.0
H272 H 0.78011 0.69487 0.04536 0.0
H273 H 0.75609 0.36172 0.97365 0.0
H274 H 0.90016 0.83154 0.08652 0.0
H275 H 0.67693 0.52253 0.08086 0.0
H276 H 0.80053 0.44558 0.99939 0.0
H277 H 0.58171 0.46977 0.0884 0.0
H278 H 0.05658 0.85891 0.0403 0.0
H279 H 0.65976 0.30709 0.97544 0.0
H280 H 0.57455 0.29277 0.99504 0.0
H281 H 0.07336 0.81407 0.99931 0.0
H282 H 0.52719 0.32191 0.02636 0.0
N283 N 0.73023 0.44021 0.0147 0.0
C284 C 0.75853 0.42262 1.00017 0.0
C285 C 0.6791 0.34413 0.9867 0.0
C286 C 0.65049 0.36088 1.00295 0.0
C287 C 0.73345 0.37481 0.98565 0.0
C288 C 0.67757 0.40947 0.01718 0.0
H289 H 0.52953 0.38761 0.06135 0.0
N290 N 0.67862 0.47144 0.04934 0.0
C291 C 0.60068 0.4569 0.0733 0.0
C292 C 0.65098 0.42544 0.03511 0.0
C293 C 0.65468 0.48667 0.06901 0.0
C294 C 0.57135 0.4106 0.05795 0.0
C295 C 0.5965 0.39393 0.03887 0.0
O296 O 0.76806 0.50249 0.08556 0.0
O297 O 0.82711 0.60663 0.04309 0.0
O298 O 0.89767 0.62153 1.01053 0.0
O299 O 0.84518 0.53217 0.02108 0.0
O300 O 0.77234 0.57543 0.07497 0.0
O301 O 0.80485 0.4751 0.0553 0.0
O302 O 0.84663 0.67078 0.9562 0.0
O303 O 0.78682 0.5613 0.99876 0.0
O304 O 0.70828 0.53045 0.01805 0.0
O305 O 0.75126 0.62131 0.01471 0.0
O306 O 0.83743 0.59595 0.96477 0.0
O307 O 0.792 0.68053 0.98218 0.0
C308 C 0.81338 0.61724 0.06651 0.0
C309 C 0.75814 0.41963 0.09393 0.0
C310 C 0.72355 0.36529 0.13632 0.0
C311 C 0.75308 0.41473 0.12367 0.0
C312 C 0.69847 0.32074 0.1187 0.0
C313 C 0.73329 0.3746 0.07674 0.0
C314 C 0.70334 0.32553 0.08911 0.0
C315 C 0.8906 0.57366 0.01455 0.0
C316 C 0.7877 0.47208 0.08133 0.0
C317 C 0.56908 0.34652 0.02387 0.0
C318 C 0.59604 0.32998 1.006 0.0
C319 C 0.80091 0.55248 0.97505 0.0
C320 C 0.82727 0.73634 0.94182 0.0
C321 C 0.79869 0.73674 0.91752 0.0
C322 C 0.81203 0.78422 0.90337 0.0
C323 C 0.855 0.83067 0.91376 0.0
C324 C 0.86961 0.78336 0.95155 0.0
C325 C 0.88341 0.83012 0.93751 0.0
C326 C 0.70802 0.5745 0.01456 0.0
C327 C 0.81287 0.68691 0.95691 0.0
H328 H 0.77202 0.4495 0.13693 0.0
H329 H 0.67631 0.28197 0.12778 0.0
H330 H 0.73691 0.37702 0.05381 0.0
H331 H 0.68435 0.29103 0.07572 0.0
H332 H 0.76567 0.70047 0.91006 0.0
H333 H 0.86703 0.86768 0.90333 0.0
H334 H 0.892 0.78384 0.97002 0.0
H335 H 0.91632 0.86626 0.94512 0.0
Eu336 Eu 0.23705 0.75147 0.37321 0.0
C337 C 0.20601 0.94562 0.35657 0.0
C338 C 0.14213 0.9295 0.39319 0.0
C339 C 0.20385 0.01873 0.3791 0.0
C340 C 0.16519 0.91107 0.3734 0.0
C341 C 0.22518 0.99985 0.35868 0.0
C342 C 0.1624 0.98357 0.39638 0.0
C343 C 0.28211 0.0121 0.31886 0.0
N344 N 0.22523 0.92593 0.33704 0.0
C345 C 0.26159 0.95798 0.31762 0.0
C346 C 0.26425 0.03324 0.33972 0.0
Eu347 Eu 0.1923 0.83458 0.33684 0.0
N348 N 0.14651 0.85924 0.36948 0.0
C349 C 0.10232 0.82351 0.38342 0.0
C350 C 0.09863 0.89302 0.40864 0.0
C351 C 0.07821 0.83977 0.40342 0.0
H352 H 0.27567 0.9417 0.30156 0.0
H353 H 0.04399 0.81118 0.41487 0.0
H354 H 0.14553 0.99851 0.41165 0.0
H355 H 0.31169 0.03742 0.30377 0.0
H356 H 0.08606 0.7822 0.37992 0.0
H357 H 0.3845 0.73787 0.30908 0.0
H358 H 0.07985 0.90552 0.42411 0.0
H359 H 0.13238 0.65489 0.4059 0.0
H360 H 0.3486 0.78186 0.33842 0.0
H361 H 0.07932 0.5583 0.40438 0.0
H362 H 0.21834 0.06028 0.38126 0.0
H363 H 0.33179 0.64275 0.30001 0.0
H364 H 0.24973 0.55742 0.3094 0.0
H365 H 0.28004 0.07515 0.34061 0.0
H366 H 0.16656 0.50844 0.33532 0.0
N367 N 0.27557 0.71266 0.34532 0.0
C368 C 0.32514 0.74033 0.33468 0.0
C369 C 0.31572 0.66185 0.31287 0.0
C370 C 0.26605 0.63319 0.32513 0.0
C371 C 0.34567 0.71552 0.31803 0.0
C372 C 0.24692 0.65998 0.34163 0.0
H373 H 0.10315 0.50831 0.37124 0.0
N374 N 0.18491 0.65909 0.37367 0.0
C375 C 0.11311 0.57866 0.39068 0.0
C376 C 0.20024 0.63223 0.35637 0.0
C377 C 0.14321 0.63324 0.39155 0.0
C378 C 0.12661 0.55058 0.37187 0.0
C379 C 0.1712 0.57724 0.35479 0.0
O380 O 0.24136 0.73735 0.41852 0.0
O381 O 0.21691 0.81509 0.37816 0.0
O382 O 0.28012 0.88795 0.34786 0.0
O383 O 0.30763 0.8285 0.36109 0.0
O384 O 0.18411 0.7554 0.40734 0.0
O385 O 0.31135 0.7684 0.39255 0.0
O386 O 0.18196 0.85012 0.29221 0.0
O387 O 0.22395 0.78151 0.3326 0.0
O388 O 0.16794 0.70208 0.34545 0.0
O389 O 0.12622 0.75056 0.34799 0.0
O390 O 0.24623 0.83849 0.30136 0.0
O391 O 0.11539 0.7934 0.31592 0.0
C392 C 0.19064 0.80076 0.4009 0.0
C393 C 0.30186 0.71109 0.43027 0.0
C394 C 0.33203 0.68147 0.47078 0.0
C395 C 0.32405 0.71979 0.45761 0.0
C396 C 0.31628 0.63395 0.45639 0.0
C397 C 0.28828 0.66426 0.41604 0.0
C398 C 0.29498 0.62573 0.42908 0.0
C399 C 0.31719 0.87617 0.35453 0.0
C400 C 0.29032 0.74956 0.41741 0.0
C401 C 0.1886 0.55067 0.33706 0.0
C402 C 0.23596 0.57859 0.32228 0.0
C403 C 0.2499 0.79899 0.30992 0.0
C404 C 0.09836 0.83174 0.27562 0.0
C405 C 0.0709 0.80405 0.25076 0.0
C406 C 0.03811 0.81822 0.23577 0.0
C407 C 0.03436 0.86112 0.24598 0.0
C408 C 0.09343 0.874 0.28517 0.0
C409 C 0.06174 0.88861 0.27036 0.0
C410 C 0.1257 0.7059 0.34334 0.0
C411 C 0.13211 0.81642 0.29136 0.0
H412 H 0.3357 0.75658 0.4683 0.0
H413 H 0.32055 0.60309 0.46617 0.0
H414 H 0.27221 0.65718 0.39497 0.0
H415 H 0.28357 0.58938 0.41799 0.0
H416 H 0.07438 0.77108 0.24347 0.0
H417 H 1.01048 0.87389 0.23493 0.0
H418 H 0.11421 0.89572 0.30408 0.0
H419 H 0.05833 0.92148 0.27781 0.0
Eu420 Eu 0.49626 0.23822 0.71181 0.0
C421 C 0.27059 0.19831 0.68946 0.0
C422 C 0.2226 0.13397 0.72583 0.0
C423 C 0.19285 0.19327 0.71034 0.0
C424 C 0.26498 0.15814 0.70669 0.0
C425 C 0.23396 0.21565 0.69053 0.0
C426 C 0.18723 0.15251 0.72801 0.0
C427 C 0.27893 0.27273 0.65084 0.0
N428 N 0.31038 0.21855 0.6705 0.0
C429 C 0.31405 0.25399 0.65059 0.0
C430 C 0.23903 0.25393 0.67114 0.0
Eu431 Eu 0.37114 0.18849 0.67206 0.0
N432 N 0.29965 0.14109 0.70376 0.0
C433 C 0.292 0.09747 0.71804 0.0
C434 C 0.2163 0.09107 0.74163 0.0
C435 C 0.25074 0.07229 0.7374 0.0
H436 H 0.34503 0.26871 0.63492 0.0
H437 H 0.24571 0.03853 0.74913 0.0
H438 H 0.1547 0.13477 0.74277 0.0
H439 H 0.28268 0.30164 0.63539 0.0
H440 H 0.31829 0.08249 0.71532 0.0
H441 H 0.65627 0.38372 0.64659 0.0
H442 H 0.18436 0.07148 0.75662 0.0
H443 H 0.4897 0.13776 0.7486 0.0
H444 H 0.57384 0.34641 0.67363 0.0
H445 H 0.53823 0.08987 0.75254 0.0
H446 H 0.16458 0.20636 0.7117 0.0
H447 H 0.70542 0.33631 0.64397 0.0
H448 H 0.71494 0.26019 0.65959 0.0
H449 H 0.2117 0.26831 0.67125 0.0
H450 H 0.68321 0.18063 0.68861 0.0
N451 N 0.57486 0.27725 0.68522 0.0
C452 C 0.59463 0.32506 0.67253 0.0
C453 C 0.66907 0.31955 0.65577 0.0
C454 C 0.65038 0.27224 0.6704 0.0
C455 C 0.6415 0.34648 0.65724 0.0
C456 C 0.60282 0.25209 0.68543 0.0
H457 H 0.61764 0.11709 0.72351 0.0
N458 N 0.54068 0.19071 0.7173 0.0
C459 C 0.55184 0.12287 0.73823 0.0
C460 C 0.58547 0.20776 0.70213 0.0
C461 C 0.5245 0.15006 0.73598 0.0
C462 C 0.59661 0.13831 0.72176 0.0
C463 C 0.61442 0.1817 0.70374 0.0
O464 O 0.51762 0.24822 0.75698 0.0
O465 O 0.41137 0.21491 0.71453 0.0
O466 O 0.40182 0.27626 0.68179 0.0
O467 O 0.48795 0.30656 0.69754 0.0
O468 O 0.43874 0.1859 0.74571 0.0
O469 O 0.54701 0.31601 0.72915 0.0
O470 O 0.34652 0.17704 0.62711 0.0
O471 O 0.45636 0.22104 0.66981 0.0
O472 O 0.48197 0.16808 0.68663 0.0
O473 O 0.39128 0.12423 0.68443 0.0
O474 O 0.42348 0.24343 0.63756 0.0
O475 O 0.3379 0.11155 0.65133 0.0
C476 C 0.39895 0.18953 0.7376 0.0
C477 C 0.60308 0.31737 0.76569 0.0
C478 C 0.66065 0.33948 0.80702 0.0
C479 C 0.61035 0.31993 0.79532 0.0
C480 C 0.7033 0.35422 0.78849 0.0
C481 C 0.64635 0.33321 0.74763 0.0
C482 C 0.69597 0.35075 0.75901 0.0
C483 C 0.44947 0.31447 0.68949 0.0
C484 C 0.55023 0.29825 0.75416 0.0
C485 C 0.66057 0.2003 0.68779 0.0
C486 C 0.67858 0.24554 0.67121 0.0
C487 C 0.46627 0.24767 0.64732 0.0
C488 C 0.28163 0.09263 0.61117 0.0
C489 C 0.28104 0.06403 0.58659 0.0
C490 C 0.23344 0.03023 0.57223 0.0
C491 C 0.18713 0.02679 0.58274 0.0
C492 C 0.23465 0.08781 0.62098 0.0
C493 C 0.18785 0.05526 0.60677 0.0
C494 C 0.43678 0.12518 0.68312 0.0
C495 C 0.33109 0.12733 0.62657 0.0
H496 H 0.57684 0.30754 0.80918 0.0
H497 H 0.74274 0.37054 0.79664 0.0
H498 H 0.64232 0.33286 0.7248 0.0
H499 H 0.7291 0.36302 0.74491 0.0
H500 H 0.31726 0.06737 0.57906 0.0
H501 H 0.15005 1.00228 0.57218 0.0
H502 H 0.23424 0.10934 0.63965 0.0
H503 H 0.15177 0.052 0.61444 0.0
H504 H 0.2054 0.69693 0.2935 0.0
H505 H 0.37647 0.76977 0.15697 0.0
H506 H 0.34269 0.84855 0.28343 0.0
H507 H 0.30512 0.61212 0.18988 0.0
H508 H 0.36109 0.79879 0.20255 0.0
H509 H 0.2371 0.66292 0.25526 0.0
C510 C 0.243 0.72246 0.28383 0.0
C511 C 0.2724 0.77507 0.2919 0.0
C512 C 0.34941 0.75794 0.19987 0.0
C513 C 0.30733 0.73758 0.24768 0.0
C514 C 0.3584 0.74124 0.17384 0.0
C515 C 0.34202 0.68823 0.16934 0.0
C516 C 0.32271 0.72134 0.22144 0.0
C517 C 0.31737 0.65315 0.19202 0.0
C518 C 0.26085 0.70326 0.26196 0.0
C519 C 0.31962 0.80747 0.27797 0.0
N520 N 0.30774 0.67021 0.217 0.0
N521 N 0.33548 0.78832 0.25629 0.0
H522 H 0.51285 0.33733 0.61742 0.0
H523 H 0.62193 0.21836 0.50887 0.0
H524 H 0.52147 0.19878 0.63526 0.0
H525 H 0.65694 0.37872 0.50348 0.0
H526 H 0.59916 0.21675 0.55873 0.0
H527 H 0.57773 0.36009 0.57967 0.0
C528 C 0.52954 0.31246 0.61372 0.0
C529 C 0.51245 0.26646 0.62936 0.0
C530 C 0.61285 0.2527 0.54685 0.0
C531 C 0.58487 0.29089 0.58586 0.0
C532 C 0.62613 0.25376 0.51828 0.0
C533 C 0.64018 0.2984 0.50167 0.0
C534 C 0.61243 0.29611 0.55873 0.0
C535 C 0.64445 0.34283 0.51519 0.0
C536 C 0.5666 0.32542 0.59231 0.0
C537 C 0.53432 0.23489 0.62379 0.0
N538 N 0.62949 0.3402 0.5428 0.0
N539 N 0.56893 0.24728 0.6021 0.0
H540 H 0.19167 0.51455 0.95378 0.0
H541 H 0.41801 0.67159 0.84302 0.0
H542 H 0.33545 0.51185 0.96378 0.0
H543 H 0.25728 0.56468 0.81935 0.0
H544 H 0.39692 0.6394 0.89233 0.0
H545 H 0.22563 0.56477 0.90985 0.0
C546 C 0.23106 0.52595 0.94704 0.0
C547 C 0.26132 0.51011 0.96246 0.0
C548 C 0.36663 0.6236 0.87613 0.0
C549 C 0.29964 0.5661 0.91217 0.0
C550 C 0.37847 0.64149 0.84798 0.0
C551 C 0.33926 0.62123 0.82678 0.0
C552 C 0.31513 0.58638 0.88309 0.0
C553 C 0.28859 0.58287 0.83482 0.0
C554 C 0.25021 0.55425 0.92204 0.0
C555 C 0.31162 0.52458 0.95266 0.0
N556 N 0.27799 0.56711 0.86232 0.0
N557 N 0.32938 0.55181 0.92783 0.0
H558 H 0.81862 0.33992 0.30569 0.0
H559 H 0.63987 0.29979 0.16959 0.0
H560 H 0.68733 0.19319 0.27866 0.0
H561 H 0.8033 0.41741 0.17477 0.0
H562 H 0.6429 0.27776 0.21959 0.0
H563 H 0.79878 0.38425 0.26723 0.0
C564 C 0.78483 0.31748 0.29214 0.0
C565 C 0.75428 0.26313 0.29508 0.0
C566 C 0.67773 0.30916 0.20986 0.0
C567 C 0.73165 0.31286 0.25169 0.0
C568 C 0.67616 0.3215 0.18134 0.0
C569 C 0.72179 0.35938 0.16777 0.0
C570 C 0.72521 0.33488 0.22485 0.0
C571 C 0.76729 0.38757 0.18429 0.0
C572 C 0.77364 0.34259 0.2703 0.0
C573 C 0.71156 0.23525 0.27687 0.0
N574 N 0.76813 0.37407 0.2119 0.0
N575 N 0.70153 0.26043 0.25585 0.0
H576 H 0.52326 0.68577 0.6094 0.0
H577 H 0.32315 0.73344 0.51765 0.0
H578 H 0.49496 0.81231 0.62848 0.0
H579 H 0.4024 0.65282 0.48779 0.0
H580 H 0.37071 0.75088 0.56311 0.0
H581 H 0.46066 0.65878 0.5702 0.0
C582 C 0.50284 0.70713 0.60555 0.0
C583 C 0.51306 0.75044 0.62227 0.0
C584 C 0.37716 0.7291 0.54655 0.0
C585 C 0.44326 0.72139 0.57694 0.0
C586 C 0.35039 0.71939 0.52059 0.0
C587 C 0.35863 0.69142 0.49884 0.0
C588 C 0.41185 0.71028 0.55071 0.0
C589 C 0.3938 0.67351 0.50402 0.0
C590 C 0.46751 0.69206 0.58313 0.0
C591 C 0.48689 0.77793 0.61624 0.0
N592 N 0.41899 0.68323 0.52937 0.0
N593 N 0.4531 0.76305 0.59379 0.0
H594 H 0.69574 0.49119 0.96761 0.0
H595 H 0.73132 0.33057 0.84155 0.0
H596 H 0.844 0.50945 0.94184 0.0
H597 H 0.61112 0.3733 0.84349 0.0
H598 H 0.75896 0.36799 0.88934 0.0
H599 H 0.65176 0.42046 0.9327 0.0
C600 C 0.71877 0.47921 0.95518 0.0
C601 C 0.7733 0.50516 0.9578 0.0
C602 C 0.7258 0.36795 0.87941 0.0
C603 C 0.72377 0.4255 0.91784 0.0
C604 C 0.71019 0.34699 0.85212 0.0
C605 C 0.6698 0.35014 0.83807 0.0
C606 C 0.70045 0.39163 0.89277 0.0
C607 C 0.64258 0.37009 0.85328 0.0
C608 C 0.69378 0.43914 0.93524 0.0
C609 C 0.80176 0.48959 0.94058 0.0
N610 N 0.65895 0.39083 0.87968 0.0
N611 N 0.77662 0.45066 0.92122 0.0
H612 H 0.37946 0.45338 0.97413 0.0
H613 H 0.65301 0.5918 0.05527 0.0
H614 H 0.39584 0.43456 0.06412 0.0
H615 H 0.64301 0.53719 0.96895 0.0
H616 H 0.55734 0.55145 0.05613 0.0
H617 H 0.47515 0.49552 0.96908 0.0
C618 C 0.40299 0.45657 0.99261 0.0
C619 C 0.37983 0.44053 0.0196 0.0
C620 C 0.57624 0.54937 0.03677 0.0
C621 C 0.48871 0.49051 0.01422 0.0
C622 C 0.63078 0.57333 0.03609 0.0
C623 C 0.65574 0.56861 1.01183 0.0
C624 C 0.54667 0.52098 0.0129 0.0
C625 C 0.62505 0.5424 0.98787 0.0
C626 C 0.45752 0.4813 0.9898 0.0
C627 C 0.41222 0.4465 0.04295 0.0
N628 N 0.57202 0.51941 0.98897 0.0
N629 N 0.465 0.47173 0.03983 0.0
H630 H 0.04059 0.6583 0.37839 0.0
H631 H 0.9338 0.37578 0.30729 0.0
H632 H 0.10506 0.63762 0.30031 0.0
H633 H 0.92772 0.40174 0.39733 0.0
H634 H 0.98595 0.47119 0.30031 0.0
H635 H 0.98092 0.56324 0.38033 0.0
C636 C 0.04034 0.63403 0.36095 0.0
C637 C 0.07721 0.65567 0.339 0.0
C638 C 0.97347 0.45583 0.32162 0.0
C639 C 0.01113 0.54728 0.34162 0.0
C640 C 0.94472 0.40151 0.32566 0.0
C641 C 0.92658 0.38108 0.35295 0.0
C642 C 0.98304 0.48953 0.34498 0.0
C643 C 0.94039 0.4161 0.37593 0.0
C644 C 1.00723 0.57975 0.36237 0.0
C645 C 0.07669 0.62228 0.31743 0.0
N646 N 0.96717 0.46852 0.37143 0.0
N647 N 0.04466 0.5697 0.3194 0.0
H648 H 0.41233 0.04672 0.72127 0.0
H649 H 0.56701 0.92977 0.63812 0.0
H650 H 0.47643 0.10105 0.63754 0.0
H651 H 0.56273 0.93728 0.72978 0.0
H652 H 0.52516 0.98365 0.63493 0.0
H653 H 0.45199 0.99066 0.7216 0.0
C654 C 0.43262 0.0449 0.70243 0.0
C655 C 0.44035 0.07766 0.67912 0.0
C656 C 0.53429 0.97432 0.65575 0.0
C657 C 0.48769 0.01587 0.6798 0.0
C658 C 0.55914 0.9446 0.65754 0.0
C659 C 0.56925 0.93014 0.68425 0.0
C660 C 0.51817 0.98828 0.68086 0.0
C661 C 0.55615 0.94829 0.7088 0.0
C662 C 0.45634 0.014 0.70288 0.0
C663 C 0.4689 0.07561 0.6557 0.0
N664 N 0.53059 0.97576 0.70657 0.0
N665 N 0.49182 0.04555 0.65667 0.0
H666 H 0.62833 0.65311 0.70091 0.0
H667 H 0.40298 0.36117 0.6587 0.0
H668 H 0.49164 0.61962 0.65167 0.0
H669 H 0.53165 0.39694 0.71572 0.0
H670 H 0.43693 0.4556 0.653 0.0
H671 H 0.59815 0.5589 0.70193 0.0
C672 C 0.59267 0.6261 0.68979 0.0
C673 C 0.56223 0.64412 0.67643 0.0
C674 C 0.45758 0.44252 0.66677 0.0
C675 C 0.52674 0.53643 0.67794 0.0
C676 C 0.43785 0.38855 0.67022 0.0
C677 C 0.46435 0.37065 0.68761 0.0
C678 C 0.50415 0.47876 0.68079 0.0
C679 C 0.50989 0.4084 0.7018 0.0
C680 C 0.57501 0.57227 0.69065 0.0
C681 C 0.51593 0.60731 0.6626 0.0
N682 N 0.52827 0.46025 0.698 0.0
N683 N 0.49943 0.55538 0.66387 0.0
H684 H 0.14225 0.52113 0.05936 0.0
H685 H 0.88929 0.49604 0.98314 0.0
H686 H 0.06283 0.41172 0.99075 0.0
H687 H 0.98902 0.62416 0.03857 0.0
H688 H 0.95154 0.46453 0.98518 0.0
H689 H 0.08439 0.55654 0.05297 0.0
C690 C 0.11236 0.50408 0.043 0.0
C691 C 0.10777 0.46315 0.02549 0.0
C692 C 0.96037 0.49994 0.99658 0.0
C693 C 0.04085 0.50446 0.01802 0.0
C694 C 0.92495 0.51816 0.99532 0.0
C695 C 0.9341 0.56291 1.01064 0.0
C696 C 1.00512 0.52608 0.01376 0.0
C697 C 0.98078 0.5899 0.02617 0.0
C698 C 0.07943 0.52479 0.03928 0.0
C699 C 0.06778 0.4429 1.00488 0.0
N700 N 0.01425 0.57067 0.02763 0.0
N701 N 0.03592 0.46379 1.00171 0.0
H702 H 0.36406 0.97613 0.33147 0.0
H703 H 0.65686 0.03603 0.36419 0.0
H704 H 0.40033 0.86788 0.37335 0.0
H705 H 0.62085 0.14448 0.32278 0.0
H706 H 0.56292 0.97066 0.36419 0.0
H707 H 0.45812 0.03727 0.32627 0.0
C708 C 0.39149 0.96524 0.33971 0.0
C709 C 0.37373 0.91654 0.3528 0.0
C710 C 0.57571 0.00867 0.35484 0.0
C711 C 0.48171 0.98608 0.34664 0.0
C712 C 0.62936 0.04564 0.35455 0.0
C713 C 0.64654 0.09585 0.34376 0.0
C714 C 0.53927 0.02216 0.3442 0.0
C715 C 0.60918 0.10652 0.33179 0.0
C716 C 0.44531 1.00002 0.33657 0.0
C717 C 0.41164 0.9047 0.36293 0.0
N718 N 0.55747 0.07033 0.33255 0.0
N719 N 0.46348 0.93901 0.35962 0.0
H720 H 0.36134 0.12932 0.78504 0.0
H721 H 0.24286 0.29507 0.85761 0.0
H722 H 0.3571 0.2552 0.74115 0.0
H723 H 0.23358 0.15687 0.89431 0.0
H724 H 0.28574 0.2836 0.81527 0.0
H725 H 0.31361 0.1394 0.82486 0.0
C726 C 0.3497 0.1587 0.78363 0.0
C727 C 0.36297 0.19109 0.75956 0.0
C728 C 0.27421 0.25579 0.8326 0.0
C729 C 0.30908 0.2041 0.80578 0.0
C730 C 0.25009 0.26258 0.85694 0.0
C731 C 0.23407 0.22677 0.87972 0.0
C732 C 0.28298 0.21313 0.83103 0.0
C733 C 0.24429 0.18516 0.87729 0.0
C734 C 0.32257 0.16467 0.80649 0.0
C735 C 0.34722 0.22892 0.75912 0.0
N736 N 0.2679 0.17964 0.85362 0.0
N737 N 0.3215 0.23463 0.78192 0.0
H738 H 0.95424 0.24513 0.19239 0.0
H739 H 0.23357 0.34695 0.11756 0.0
H740 H 0.07813 0.22389 0.22638 0.0
H741 H 0.11005 0.35979 0.07637 0.0
H742 H 0.174 0.29781 0.15627 0.0
H743 H 1.00797 0.28591 0.14961 0.0
C744 C 0.9927 0.24921 0.19102 0.0
C745 C 0.01127 0.23053 0.21318 0.0
C746 C 0.15937 0.31069 0.13871 0.0
C747 C 0.07293 0.27684 0.16399 0.0
C748 C 0.19343 0.3385 0.11643 0.0
C749 C 0.17677 0.3571 0.09352 0.0
C750 C 0.10803 0.30211 0.13871 0.0
C751 C 0.12439 0.34557 0.09343 0.0
C752 C 0.02319 0.2721 0.16642 0.0
C753 C 0.06142 0.23668 0.20986 0.0
N754 N 0.09203 0.3193 0.11581 0.0
N755 N 0.09015 0.25914 0.18597 0.0
H756 H 0.72095 0.95416 0.52625 0.0
H757 H 0.87819 0.23509 0.45076 0.0
H758 H 0.86201 0.08502 0.55957 0.0
H759 H 0.75326 0.10232 0.40775 0.0
H760 H 0.87282 0.17851 0.49005 0.0
H761 H 0.72985 1.00561 0.48302 0.0
C762 C 0.75359 0.99367 0.52463 0.0
C763 C 0.79089 0.01495 0.54675 0.0
C764 C 0.84685 0.16124 0.47196 0.0
C765 C 0.80153 0.07406 0.49708 0.0
C766 C 0.85022 0.19363 0.44936 0.0
C767 C 0.81671 0.17344 0.42572 0.0
C768 C 0.80858 0.10793 0.47158 0.0
C769 C 0.78049 0.11944 0.42535 0.0
C770 C 0.7589 0.02287 0.49978 0.0
C771 C 0.83258 0.06635 0.54311 0.0
N772 N 0.77699 0.08864 0.44807 0.0
N773 N 0.83659 0.09384 0.519 0.0
H774 H 0.66001 0.75304 0.73693 0.0
H775 H 0.77973 0.85514 0.8938 0.0
H776 H 0.64003 0.86595 0.7853 0.0
H777 H 0.77507 0.72012 0.85542 0.0
H778 H 0.73564 0.86397 0.85193 0.0
H779 H 0.71034 0.74594 0.77702 0.0
C780 C 0.66699 0.77702 0.75574 0.0
C781 C 0.64627 0.81069 0.75761 0.0
C782 C 0.74409 0.83229 0.85253 0.0
C783 C 0.7028 0.80184 0.80386 0.0
C784 C 0.76949 0.82725 0.87652 0.0
C785 C 0.78152 0.78688 0.8783 0.0
C786 C 0.73044 0.79695 0.82965 0.0
C787 C 0.76636 0.75163 0.85519 0.0
C788 C 0.69527 0.77255 0.77875 0.0
C789 C 0.65557 0.83984 0.78282 0.0
N790 N 0.74194 0.75762 0.83181 0.0
N791 N 0.68301 0.83481 0.80478 0.0
H792 H 0.06795 0.7799 0.18961 0.0
H793 H 0.78696 0.65363 0.11294 0.0
H794 H 0.93662 0.78931 0.22256 0.0
H795 H 0.92143 0.6643 0.07072 0.0
H796 H 0.84251 0.70373 0.15306 0.0
H797 H 0.01625 0.73606 0.14657 0.0
C798 C 0.02825 0.77253 0.18795 0.0
C799 C 1.00692 0.78875 0.20988 0.0
C800 C 0.86027 0.69574 0.13497 0.0
C801 C 0.94748 0.73874 0.16044 0.0
C802 C 0.82848 0.66728 0.11195 0.0
C803 C 0.84951 0.65514 0.08827 0.0
C804 C 0.9138 0.71158 0.13488 0.0
C805 C 0.90361 0.67334 0.08836 0.0
C806 C 0.99889 0.74789 0.16322 0.0
C807 C 0.95527 0.77838 0.20622 0.0
N808 N 0.93379 0.70023 0.11138 0.0
N809 N 0.92759 0.75415 0.18221 0.0
H810 H 0.29862 0.05786 0.52481 0.0
H811 H 0.13148 0.77616 0.44905 0.0
H812 H 0.16065 0.92787 0.56088 0.0
H813 H 0.2579 0.90765 0.40639 0.0
H814 H 0.14262 0.83229 0.49003 0.0
H815 H 0.28721 1.00457 0.48192 0.0
C816 C 0.26624 0.01809 0.5239 0.0
C817 C 0.23042 0.99771 0.54664 0.0
C818 C 0.16781 0.84923 0.47169 0.0
C819 C 0.21682 0.93637 0.49732 0.0
C820 C 0.16126 0.81709 0.44818 0.0
C821 C 0.19342 0.83711 0.42406 0.0
C822 C 0.20754 0.90208 0.47158 0.0
C823 C 0.23176 0.89054 0.42435 0.0
C824 C 0.25947 0.98779 0.49925 0.0
C825 C 0.18894 0.94586 0.5439 0.0
N826 N 0.23795 0.92102 0.44773 0.0
N827 N 0.18341 0.91732 0.51992 0.0
loop_
_geom_bond_atom_site_label_1
_geom_bond_atom_site_label_2
_geom_bond_distance
_geom_bond_site_symmetry_2
_ccdc_geom_bond_type
Eu0 N31 2.657 . S
Eu0 N38 2.609 . S
Eu0 O44 2.558 . S
Eu0 O45 2.612 . S
Eu0 O47 2.339 . S
Eu0 O48 2.563 . S
Eu0 O49 2.419 . S
Eu0 O51 2.380 1_554 S
Eu0 O52 2.432 . S
Eu0 C64 2.848 . S
C1 C4 1.429 . S
C1 C5 1.411 . S
C1 N8 1.377 1_554 S
C2 C4 1.420 . S
C2 C6 1.423 . S
C2 C14 1.392 . S
C3 C5 1.420 . S
C3 C6 1.351 . S
C3 H26 0.931 1_455 S
C4 C1 1.429 . S
C4 C2 1.420 . S
C4 N12 1.362 . S
C5 C1 1.411 . S
C5 C3 1.420 . S
C5 C10 1.395 1_454 S
C6 C2 1.423 . S
C6 C3 1.351 . S
C6 H18 0.930 . S
C7 C9 1.400 1_655 S
C7 C10 1.386 . S
C7 H19 0.930 . S
N8 C1 1.377 1_556 S
N8 C9 1.321 . S
N8 Eu11 2.609 . S
C9 C7 1.400 1_455 S
C9 N8 1.321 . S
C9 H16 0.930 . S
C10 C5 1.395 1_656 S
C10 C7 1.386 . S
C10 H29 0.930 . S
Eu11 N8 2.609 . S
Eu11 N12 2.657 1_556 S
Eu11 O45 2.380 1_556 S
Eu11 O46 2.432 . S
Eu11 O50 2.558 . S
Eu11 O51 2.612 . S
Eu11 O53 2.339 1_556 S
Eu11 O54 2.563 . S
Eu11 O55 2.419 . S
Eu11 C75 2.848 . S
N12 C4 1.362 . S
N12 Eu11 2.657 1_554 S
N12 C13 1.334 . S
C13 N12 1.334 . S
C13 C15 1.413 . S
C13 H20 0.929 . S
C14 C2 1.392 . S
C14 C15 1.367 . S
C14 H22 0.930 . S
C15 C13 1.413 . S
C15 C14 1.367 . S
C15 H17 0.930 . S
H16 C9 0.930 . S
H17 C15 0.930 . S
H18 C6 0.930 . S
H19 C7 0.930 . S
H20 C13 0.929 . S
H21 C35 0.930 . S
H22 C14 0.930 . S
H23 C41 0.930 . S
H24 C32 0.929 . S
H25 C39 0.930 . S
H26 C3 0.931 1_655 S
H27 C33 0.930 . S
H28 C66 0.930 . S
H29 C10 0.930 . S
H30 C65 0.931 . S
N31 Eu0 2.657 . S
N31 C32 1.334 1_554 S
N31 C36 1.362 . S
C32 H24 0.929 . S
C32 N31 1.334 1_556 S
C32 C35 1.413 . S
C33 H27 0.930 . S
C33 C34 1.392 . S
C33 C35 1.367 . S
C34 C33 1.392 . S
C34 C36 1.420 1_556 S
C34 C66 1.423 . S
C35 H21 0.930 . S
C35 C32 1.413 . S
C35 C33 1.367 . S
C36 N31 1.362 . S
C36 C34 1.420 1_554 S
C36 C40 1.429 . S
H37 C42 0.930 . S
N38 Eu0 2.609 . S
N38 C40 1.377 . S
N38 C41 1.321 . S
C39 H25 0.930 . S
C39 C41 1.400 . S
C39 C42 1.386 . S
C40 C36 1.429 . S
C40 N38 1.377 . S
C40 C43 1.411 . S
C41 H23 0.930 . S
C41 N38 1.321 . S
C41 C39 1.400 . S
C42 H37 0.930 . S
C42 C39 1.386 . S
C42 C43 1.395 . S
C43 C40 1.411 . S
C43 C42 1.395 . S
C43 C65 1.420 . S
O44 Eu0 2.558 . S
O44 C64 1.257 . S
O45 Eu0 2.612 . S
O45 Eu11 2.380 1_554 S
O45 C56 1.276 . S
O46 Eu11 2.432 . S
O46 C63 1.264 1_556 S
O47 Eu0 2.339 . S
O47 C63 1.254 . S
O48 Eu0 2.563 . S
O48 C56 1.235 . S
O49 Eu0 2.419 . S
O49 C64 1.249 . S
O50 Eu11 2.558 . S
O50 C75 1.257 . S
O51 Eu0 2.380 1_556 S
O51 Eu11 2.612 . S
O51 C67 1.276 . S
O52 Eu0 2.432 . S
O52 C74 1.264 . S
O53 Eu11 2.339 1_554 S
O53 C74 1.254 . S
O54 Eu11 2.563 . S
O54 C67 1.235 . S
O55 Eu11 2.419 . S
O55 C75 1.249 . S
C56 O45 1.276 . S
C56 O48 1.235 . S
C57 C59 1.393 . S
C57 C61 1.395 . S
C57 C64 1.492 . S
C58 C59 1.392 . S
C58 C60 1.386 . S
C59 C57 1.393 . S
C59 C58 1.392 . S
C59 H76 0.930 . S
C60 C58 1.386 . S
C60 C62 1.395 . S
C60 H77 0.930 . S
C61 C57 1.395 . S
C61 C62 1.379 . S
C61 H78 0.930 . S
C62 C60 1.395 . S
C62 C61 1.379 . S
C62 H79 0.930 . S
C63 O46 1.264 1_554 S
C63 O47 1.254 . S
C64 Eu0 2.848 . S
C64 O44 1.257 . S
C64 O49 1.249 . S
C64 C57 1.492 . S
C65 H30 0.931 . S
C65 C43 1.420 . S
C65 C66 1.351 1_554 S
C66 H28 0.930 . S
C66 C34 1.423 . S
C66 C65 1.351 1_556 S
C67 O51 1.276 . S
C67 O54 1.235 . S
C68 C69 1.393 . S
C68 C72 1.395 . S
C68 C75 1.492 . S
C69 C68 1.393 . S
C69 C70 1.392 . S
C69 H80 0.930 . S
C70 C69 1.392 . S
C70 C71 1.386 . S
C71 C70 1.386 . S
C71 C73 1.395 . S
C71 H81 0.930 . S
C72 C68 1.395 . S
C72 C73 1.379 . S
C72 H82 0.930 . S
C73 C71 1.395 . S
C73 C72 1.379 . S
C73 H83 0.930 . S
C74 O52 1.264 . S
C74 O53 1.254 . S
C75 Eu11 2.848 . S
C75 O50 1.257 . S
C75 O55 1.249 . S
C75 C68 1.492 . S
H76 C59 0.930 . S
H77 C60 0.930 . S
H78 C61 0.930 . S
H79 C62 0.930 . S
H80 C69 0.930 . S
H81 C71 0.930 . S
H82 C72 0.930 . S
H83 C73 0.930 . S
Eu84 N115 2.657 . S
Eu84 N122 2.609 . S
Eu84 O128 2.558 . S
Eu84 O129 2.612 . S
Eu84 O131 2.339 . S
Eu84 O132 2.563 . S
Eu84 O133 2.419 . S
Eu84 O135 2.380 . S
Eu84 O136 2.432 . S
Eu84 C148 2.848 . S
C85 C88 1.429 . S
C85 C89 1.411 . S
C85 N92 1.377 . S
C86 C88 1.420 . S
C86 C90 1.423 . S
C86 C98 1.392 . S
C87 C89 1.420 . S
C87 C90 1.351 . S
C87 H110 0.931 1_545 S
C88 C85 1.429 . S
C88 C86 1.420 . S
C88 N96 1.362 . S
C89 C85 1.411 . S
C89 C87 1.420 . S
C89 C94 1.395 1_545 S
C90 C86 1.423 . S
C90 C87 1.351 . S
C90 H102 0.930 . S
C91 C93 1.400 1_565 S
C91 C94 1.386 . S
C91 H103 0.930 . S
N92 C85 1.377 . S
N92 C93 1.321 . S
N92 Eu95 2.609 . S
C93 C91 1.400 1_545 S
C93 N92 1.321 . S
C93 H100 0.930 . S
C94 C89 1.395 1_565 S
C94 C91 1.386 . S
C94 H113 0.930 . S
Eu95 N92 2.609 . S
Eu95 N96 2.657 . S
Eu95 O129 2.380 . S
Eu95 O130 2.432 . S
Eu95 O134 2.558 . S
Eu95 O135 2.612 . S
Eu95 O137 2.339 . S
Eu95 O138 2.563 . S
Eu95 O139 2.419 . S
Eu95 C159 2.848 . S
N96 C88 1.362 . S
N96 Eu95 2.657 . S
N96 C97 1.334 . S
C97 N96 1.334 . S
C97 C99 1.413 . S
C97 H104 0.929 . S
C98 C86 1.392 . S
C98 C99 1.367 . S
C98 H106 0.930 . S
C99 C97 1.413 . S
C99 C98 1.367 . S
C99 H101 0.930 . S
H100 C93 0.930 . S
H101 C99 0.930 . S
H102 C90 0.930 . S
H103 C91 0.930 . S
H104 C97 0.929 . S
H105 C119 0.930 . S
H106 C98 0.930 . S
H107 C125 0.930 . S
H108 C116 0.929 . S
H109 C123 0.930 . S
H110 C87 0.931 1_565 S
H111 C117 0.930 . S
H112 C150 0.930 . S
H113 C94 0.930 . S
H114 C149 0.931 . S
N115 Eu84 2.657 . S
N115 C116 1.334 . S
N115 C120 1.362 . S
C116 H108 0.929 . S
C116 N115 1.334 . S
C116 C119 1.413 . S
C117 H111 0.930 . S
C117 C118 1.392 . S
C117 C119 1.367 . S
C118 C117 1.392 . S
C118 C120 1.420 . S
C118 C150 1.423 . S
C119 H105 0.930 . S
C119 C116 1.413 . S
C119 C117 1.367 . S
C120 N115 1.362 . S
C120 C118 1.420 . S
C120 C124 1.429 . S
H121 C126 0.930 . S
N122 Eu84 2.609 . S
N122 C124 1.377 . S
N122 C125 1.321 . S
C123 H109 0.930 . S
C123 C125 1.400 . S
C123 C126 1.386 . S
C124 C120 1.429 . S
C124 N122 1.377 . S
C124 C127 1.411 . S
C125 H107 0.930 . S
C125 N122 1.321 . S
C125 C123 1.400 . S
C126 H121 0.930 . S
C126 C123 1.386 . S
C126 C127 1.395 . S
C127 C124 1.411 . S
C127 C126 1.395 . S
C127 C149 1.420 . S
O128 Eu84 2.558 . S
O128 C148 1.257 . S
O129 Eu84 2.612 . S
O129 Eu95 2.380 . S
O129 C140 1.276 . S
O130 Eu95 2.432 . S
O130 C147 1.264 . S
O131 Eu84 2.339 . S
O131 C147 1.254 . S
O132 Eu84 2.563 . S
O132 C140 1.235 . S
O133 Eu84 2.419 . S
O133 C148 1.249 . S
O134 Eu95 2.558 . S
O134 C159 1.257 . S
O135 Eu84 2.380 . S
O135 Eu95 2.612 . S
O135 C151 1.276 . S
O136 Eu84 2.432 . S
O136 C158 1.264 . S
O137 Eu95 2.339 . S
O137 C158 1.254 . S
O138 Eu95 2.563 . S
O138 C151 1.235 . S
O139 Eu95 2.419 . S
O139 C159 1.249 . S
C140 O129 1.276 . S
C140 O132 1.235 . S
C141 C143 1.393 . S
C141 C145 1.395 . S
C141 C148 1.492 . S
C142 C143 1.392 . S
C142 C144 1.386 . S
C143 C141 1.393 . S
C143 C142 1.392 . S
C143 H160 0.930 . S
C144 C142 1.386 . S
C144 C146 1.395 . S
C144 H161 0.930 . S
C145 C141 1.395 . S
C145 C146 1.379 . S
C145 H162 0.930 . S
C146 C144 1.395 . S
C146 C145 1.379 . S
C146 H163 0.930 . S
C147 O130 1.264 . S
C147 O131 1.254 . S
C148 Eu84 2.848 . S
C148 O128 1.257 . S
C148 O133 1.249 . S
C148 C141 1.492 . S
C149 H114 0.931 . S
C149 C127 1.420 . S
C149 C150 1.351 . S
C150 H112 0.930 . S
C150 C118 1.423 . S
C150 C149 1.351 . S
C151 O135 1.276 . S
C151 O138 1.235 . S
C152 C153 1.393 . S
C152 C156 1.395 . S
C152 C159 1.492 . S
C153 C152 1.393 . S
C153 C154 1.392 . S
C153 H164 0.930 . S
C154 C153 1.392 . S
C154 C155 1.386 . S
C155 C154 1.386 . S
C155 C157 1.395 . S
C155 H165 0.930 . S
C156 C152 1.395 . S
C156 C157 1.379 . S
C156 H166 0.930 . S
C157 C155 1.395 . S
C157 C156 1.379 . S
C157 H167 0.930 . S
C158 O136 1.264 . S
C158 O137 1.254 . S
C159 Eu95 2.848 . S
C159 O134 1.257 . S
C159 O139 1.249 . S
C159 C152 1.492 . S
H160 C143 0.930 . S
H161 C144 0.930 . S
H162 C145 0.930 . S
H163 C146 0.930 . S
H164 C153 0.930 . S
H165 C155 0.930 . S
H166 C156 0.930 . S
H167 C157 0.930 . S
Eu168 N199 2.657 . S
Eu168 N206 2.609 . S
Eu168 O212 2.558 . S
Eu168 O213 2.612 . S
Eu168 O215 2.339 . S
Eu168 O216 2.563 . S
Eu168 O217 2.419 . S
Eu168 O219 2.380 . S
Eu168 O220 2.432 . S
Eu168 C232 2.848 . S
C169 C172 1.429 . S
C169 C173 1.411 . S
C169 N176 1.377 . S
C170 C172 1.420 . S
C170 C174 1.423 . S
C170 C182 1.392 . S
C171 C173 1.420 . S
C171 C174 1.351 . S
C171 H194 0.931 . S
C172 C169 1.429 . S
C172 C170 1.420 . S
C172 N180 1.362 . S
C173 C169 1.411 . S
C173 C171 1.420 . S
C173 C178 1.395 . S
C174 C170 1.423 . S
C174 C171 1.351 . S
C174 H186 0.930 . S
C175 C177 1.400 . S
C175 C178 1.386 . S
C175 H187 0.930 . S
N176 C169 1.377 . S
N176 C177 1.321 . S
N176 Eu179 2.609 . S
C177 C175 1.400 . S
C177 N176 1.321 . S
C177 H184 0.930 . S
C178 C173 1.395 . S
C178 C175 1.386 . S
C178 H197 0.930 . S
Eu179 N176 2.609 . S
Eu179 N180 2.657 . S
Eu179 O213 2.380 . S
Eu179 O214 2.432 . S
Eu179 O218 2.558 . S
Eu179 O219 2.612 . S
Eu179 O221 2.339 . S
Eu179 O222 2.563 . S
Eu179 O223 2.419 . S
Eu179 C243 2.848 . S
N180 C172 1.362 . S
N180 Eu179 2.657 . S
N180 C181 1.334 . S
C181 N180 1.334 . S
C181 C183 1.413 . S
C181 H188 0.929 . S
C182 C170 1.392 . S
C182 C183 1.367 . S
C182 H190 0.930 . S
C183 C181 1.413 . S
C183 C182 1.367 . S
C183 H185 0.930 . S
H184 C177 0.930 . S
H185 C183 0.930 . S
H186 C174 0.930 . S
H187 C175 0.930 . S
H188 C181 0.929 . S
H189 C203 0.930 . S
H190 C182 0.930 . S
H191 C209 0.930 . S
H192 C200 0.929 . S
H193 C207 0.930 . S
H194 C171 0.931 . S
H195 C201 0.930 . S
H196 C234 0.930 . S
H197 C178 0.930 . S
H198 C233 0.931 . S
N199 Eu168 2.657 . S
N199 C200 1.334 . S
N199 C204 1.362 . S
C200 H192 0.929 . S
C200 N199 1.334 . S
C200 C203 1.413 . S
C201 H195 0.930 . S
C201 C202 1.392 . S
C201 C203 1.367 . S
C202 C201 1.392 . S
C202 C204 1.420 . S
C202 C234 1.423 . S
C203 H189 0.930 . S
C203 C200 1.413 . S
C203 C201 1.367 . S
C204 N199 1.362 . S
C204 C202 1.420 . S
C204 C208 1.429 . S
H205 C210 0.930 . S
N206 Eu168 2.609 . S
N206 C208 1.377 . S
N206 C209 1.321 . S
C207 H193 0.930 . S
C207 C209 1.400 . S
C207 C210 1.386 . S
C208 C204 1.429 . S
C208 N206 1.377 . S
C208 C211 1.411 . S
C209 H191 0.930 . S
C209 N206 1.321 . S
C209 C207 1.400 . S
C210 H205 0.930 . S
C210 C207 1.386 . S
C210 C211 1.395 . S
C211 C208 1.411 . S
C211 C210 1.395 . S
C211 C233 1.420 . S
O212 Eu168 2.558 . S
O212 C232 1.257 . S
O213 Eu168 2.612 . S
O213 Eu179 2.380 . S
O213 C224 1.276 . S
O214 Eu179 2.432 . S
O214 C231 1.264 . S
O215 Eu168 2.339 . S
O215 C231 1.254 . S
O216 Eu168 2.563 . S
O216 C224 1.235 . S
O217 Eu168 2.419 . S
O217 C232 1.249 . S
O218 Eu179 2.558 . S
O218 C243 1.257 . S
O219 Eu168 2.380 . S
O219 Eu179 2.612 . S
O219 C235 1.276 . S
O220 Eu168 2.432 . S
O220 C242 1.264 . S
O221 Eu179 2.339 . S
O221 C242 1.254 . S
O222 Eu179 2.563 . S
O222 C235 1.235 . S
O223 Eu179 2.419 . S
O223 C243 1.249 . S
C224 O213 1.276 . S
C224 O216 1.235 . S
C225 C227 1.393 . S
C225 C229 1.395 . S
C225 C232 1.492 . S
C226 C227 1.392 . S
C226 C228 1.386 . S
C227 C225 1.393 . S
C227 C226 1.392 . S
C227 H244 0.930 . S
C228 C226 1.386 . S
C228 C230 1.395 . S
C228 H245 0.930 . S
C229 C225 1.395 . S
C229 C230 1.379 . S
C229 H246 0.930 . S
C230 C228 1.395 . S
C230 C229 1.379 . S
C230 H247 0.930 . S
C231 O214 1.264 . S
C231 O215 1.254 . S
C232 Eu168 2.848 . S
C232 O212 1.257 . S
C232 O217 1.249 . S
C232 C225 1.492 . S
C233 H198 0.931 . S
C233 C211 1.420 . S
C233 C234 1.351 . S
C234 H196 0.930 . S
C234 C202 1.423 . S
C234 C233 1.351 . S
C235 O219 1.276 . S
C235 O222 1.235 . S
C236 C237 1.393 . S
C236 C240 1.395 . S
C236 C243 1.492 . S
C237 C236 1.393 . S
C237 C238 1.392 . S
C237 H248 0.930 . S
C238 C237 1.392 . S
C238 C239 1.386 . S
C239 C238 1.386 . S
C239 C241 1.395 . S
C239 H249 0.930 . S
C240 C236 1.395 . S
C240 C241 1.379 . S
C240 H250 0.930 . S
C241 C239 1.395 . S
C241 C240 1.379 . S
C241 H251 0.930 . S
C242 O220 1.264 . S
C242 O221 1.254 . S
C243 Eu179 2.848 . S
C243 O218 1.257 . S
C243 O223 1.249 . S
C243 C236 1.492 . S
H244 C227 0.930 . S
H245 C228 0.930 . S
H246 C229 0.930 . S
H247 C230 0.930 . S
H248 C237 0.930 . S
H249 C239 0.930 . S
H250 C240 0.930 . S
H251 C241 0.930 . S
Eu252 N283 2.657 . S
Eu252 N290 2.609 . S
Eu252 O296 2.558 . S
Eu252 O297 2.612 . S
Eu252 O299 2.339 . S
Eu252 O300 2.563 . S
Eu252 O301 2.419 . S
Eu252 O303 2.380 1_554 S
Eu252 O304 2.432 . S
Eu252 C316 2.848 . S
C253 C256 1.429 . S
C253 C257 1.411 . S
C253 N260 1.377 1_554 S
C254 C256 1.420 . S
C254 C258 1.423 . S
C254 C266 1.392 . S
C255 C257 1.420 . S
C255 C258 1.351 . S
C255 H278 0.931 1_655 S
C256 C253 1.429 . S
C256 C254 1.420 . S
C256 N264 1.362 . S
C257 C253 1.411 . S
C257 C255 1.420 . S
C257 C262 1.395 1_654 S
C258 C254 1.423 . S
C258 C255 1.351 . S
C258 H270 0.930 . S
C259 C261 1.400 1_455 S
C259 C262 1.386 . S
C259 H271 0.930 . S
N260 C253 1.377 1_556 S
N260 C261 1.321 . S
N260 Eu263 2.609 . S
C261 C259 1.400 1_655 S
C261 N260 1.321 . S
C261 H268 0.930 . S
C262 C257 1.395 1_456 S
C262 C259 1.386 . S
C262 H281 0.930 . S
Eu263 N260 2.609 . S
Eu263 N264 2.657 1_556 S
Eu263 O297 2.380 1_556 S
Eu263 O298 2.432 . S
Eu263 O302 2.558 . S
Eu263 O303 2.612 . S
Eu263 O305 2.339 1_556 S
Eu263 O306 2.563 . S
Eu263 O307 2.419 . S
Eu263 C327 2.848 . S
N264 C256 1.362 . S
N264 Eu263 2.657 1_554 S
N264 C265 1.334 . S
C265 N264 1.334 . S
C265 C267 1.413 . S
C265 H272 0.929 . S
C266 C254 1.392 . S
C266 C267 1.367 . S
C266 H274 0.930 . S
C267 C265 1.413 . S
C267 C266 1.367 . S
C267 H269 0.930 . S
H268 C261 0.930 . S
H269 C267 0.930 . S
H270 C258 0.930 . S
H271 C259 0.930 . S
H272 C265 0.929 . S
H273 C287 0.930 . S
H274 C266 0.930 . S
H275 C293 0.930 . S
H276 C284 0.929 . S
H277 C291 0.930 . S
H278 C255 0.931 1_455 S
H279 C285 0.930 . S
H280 C318 0.930 . S
H281 C262 0.930 . S
H282 C317 0.931 . S
N283 Eu252 2.657 . S
N283 C284 1.334 1_554 S
N283 C288 1.362 . S
C284 H276 0.929 . S
C284 N283 1.334 1_556 S
C284 C287 1.413 . S
C285 H279 0.930 . S
C285 C286 1.392 . S
C285 C287 1.367 . S
C286 C285 1.392 . S
C286 C288 1.420 1_556 S
C286 C318 1.423 . S
C287 H273 0.930 . S
C287 C284 1.413 . S
C287 C285 1.367 . S
C288 N283 1.362 . S
C288 C286 1.420 1_554 S
C288 C292 1.429 . S
H289 C294 0.930 . S
N290 Eu252 2.609 . S
N290 C292 1.377 . S
N290 C293 1.321 . S
C291 H277 0.930 . S
C291 C293 1.400 . S
C291 C294 1.386 . S
C292 C288 1.429 . S
C292 N290 1.377 . S
C292 C295 1.411 . S
C293 H275 0.930 . S
C293 N290 1.321 . S
C293 C291 1.400 . S
C294 H289 0.930 . S
C294 C291 1.386 . S
C294 C295 1.395 . S
C295 C292 1.411 . S
C295 C294 1.395 . S
C295 C317 1.420 . S
O296 Eu252 2.558 . S
O296 C316 1.257 . S
O297 Eu252 2.612 . S
O297 Eu263 2.380 1_554 S
O297 C308 1.276 . S
O298 Eu263 2.432 . S
O298 C315 1.264 1_556 S
O299 Eu252 2.339 . S
O299 C315 1.254 . S
O300 Eu252 2.563 . S
O300 C308 1.235 . S
O301 Eu252 2.419 . S
O301 C316 1.249 . S
O302 Eu263 2.558 . S
O302 C327 1.257 . S
O303 Eu252 2.380 1_556 S
O303 Eu263 2.612 . S
O303 C319 1.276 . S
O304 Eu252 2.432 . S
O304 C326 1.264 . S
O305 Eu263 2.339 1_554 S
O305 C326 1.254 . S
O306 Eu263 2.563 . S
O306 C319 1.235 . S
O307 Eu263 2.419 . S
O307 C327 1.249 . S
C308 O297 1.276 . S
C308 O300 1.235 . S
C309 C311 1.393 . S
C309 C313 1.395 . S
C309 C316 1.492 . S
C310 C311 1.392 . S
C310 C312 1.386 . S
C311 C309 1.393 . S
C311 C310 1.392 . S
C311 H328 0.930 . S
C312 C310 1.386 . S
C312 C314 1.395 . S
C312 H329 0.930 . S
C313 C309 1.395 . S
C313 C314 1.379 . S
C313 H330 0.930 . S
C314 C312 1.395 . S
C314 C313 1.379 . S
C314 H331 0.930 . S
C315 O298 1.264 1_554 S
C315 O299 1.254 . S
C316 Eu252 2.848 . S
C316 O296 1.257 . S
C316 O301 1.249 . S
C316 C309 1.492 . S
C317 H282 0.931 . S
C317 C295 1.420 . S
C317 C318 1.351 1_554 S
C318 H280 0.930 . S
C318 C286 1.423 . S
C318 C317 1.351 1_556 S
C319 O303 1.276 . S
C319 O306 1.235 . S
C320 C321 1.393 . S
C320 C324 1.395 . S
C320 C327 1.492 . S
C321 C320 1.393 . S
C321 C322 1.392 . S
C321 H332 0.930 . S
C322 C321 1.392 . S
C322 C323 1.386 . S
C323 C322 1.386 . S
C323 C325 1.395 . S
C323 H333 0.930 . S
C324 C320 1.395 . S
C324 C325 1.379 . S
C324 H334 0.930 . S
C325 C323 1.395 . S
C325 C324 1.379 . S
C325 H335 0.930 . S
C326 O304 1.264 . S
C326 O305 1.254 . S
C327 Eu263 2.848 . S
C327 O302 1.257 . S
C327 O307 1.249 . S
C327 C320 1.492 . S
H328 C311 0.930 . S
H329 C312 0.930 . S
H330 C313 0.930 . S
H331 C314 0.930 . S
H332 C321 0.930 . S
H333 C323 0.930 . S
H334 C324 0.930 . S
H335 C325 0.930 . S
Eu336 N367 2.657 . S
Eu336 N374 2.609 . S
Eu336 O380 2.558 . S
Eu336 O381 2.612 . S
Eu336 O383 2.339 . S
Eu336 O384 2.563 . S
Eu336 O385 2.419 . S
Eu336 O387 2.380 . S
Eu336 O388 2.432 . S
Eu336 C400 2.848 . S
C337 C340 1.429 . S
C337 C341 1.411 . S
C337 N344 1.377 . S
C338 C340 1.420 . S
C338 C342 1.423 . S
C338 C350 1.392 . S
C339 C341 1.420 . S
C339 C342 1.351 . S
C339 H362 0.931 1_565 S
C340 C337 1.429 . S
C340 C338 1.420 . S
C340 N348 1.362 . S
C341 C337 1.411 . S
C341 C339 1.420 . S
C341 C346 1.395 1_565 S
C342 C338 1.423 . S
C342 C339 1.351 . S
C342 H354 0.930 . S
C343 C345 1.400 1_545 S
C343 C346 1.386 . S
C343 H355 0.930 . S
N344 C337 1.377 . S
N344 C345 1.321 . S
N344 Eu347 2.609 . S
C345 C343 1.400 1_565 S
C345 N344 1.321 . S
C345 H352 0.930 . S
C346 C341 1.395 1_545 S
C346 C343 1.386 . S
C346 H365 0.930 . S
Eu347 N344 2.609 . S
Eu347 N348 2.657 . S
Eu347 O381 2.380 . S
Eu347 O382 2.432 . S
Eu347 O386 2.558 . S
Eu347 O387 2.612 . S
Eu347 O389 2.339 . S
Eu347 O390 2.563 . S
Eu347 O391 2.419 . S
Eu347 C411 2.848 . S
N348 C340 1.362 . S
N348 Eu347 2.657 . S
N348 C349 1.334 . S
C349 N348 1.334 . S
C349 C351 1.413 . S
C349 H356 0.929 . S
C350 C338 1.392 . S
C350 C351 1.367 . S
C350 H358 0.930 . S
C351 C349 1.413 . S
C351 C350 1.367 . S
C351 H353 0.930 . S
H352 C345 0.930 . S
H353 C351 0.930 . S
H354 C342 0.930 . S
H355 C343 0.930 . S
H356 C349 0.929 . S
H357 C371 0.930 . S
H358 C350 0.930 . S
H359 C377 0.930 . S
H360 C368 0.929 . S
H361 C375 0.930 . S
H362 C339 0.931 1_545 S
H363 C369 0.930 . S
H364 C402 0.930 . S
H365 C346 0.930 . S
H366 C401 0.931 . S
N367 Eu336 2.657 . S
N367 C368 1.334 . S
N367 C372 1.362 . S
C368 H360 0.929 . S
C368 N367 1.334 . S
C368 C371 1.413 . S
C369 H363 0.930 . S
C369 C370 1.392 . S
C369 C371 1.367 . S
C370 C369 1.392 . S
C370 C372 1.420 . S
C370 C402 1.423 . S
C371 H357 0.930 . S
C371 C368 1.413 . S
C371 C369 1.367 . S
C372 N367 1.362 . S
C372 C370 1.420 . S
C372 C376 1.429 . S
H373 C378 0.930 . S
N374 Eu336 2.609 . S
N374 C376 1.377 . S
N374 C377 1.321 . S
C375 H361 0.930 . S
C375 C377 1.400 . S
C375 C378 1.386 . S
C376 C372 1.429 . S
C376 N374 1.377 . S
C376 C379 1.411 . S
C377 H359 0.930 . S
C377 N374 1.321 . S
C377 C375 1.400 . S
C378 H373 0.930 . S
C378 C375 1.386 . S
C378 C379 1.395 . S
C379 C376 1.411 . S
C379 C378 1.395 . S
C379 C401 1.420 . S
O380 Eu336 2.558 . S
O380 C400 1.257 . S
O381 Eu336 2.612 . S
O381 Eu347 2.380 . S
O381 C392 1.276 . S
O382 Eu347 2.432 . S
O382 C399 1.264 . S
O383 Eu336 2.339 . S
O383 C399 1.254 . S
O384 Eu336 2.563 . S
O384 C392 1.235 . S
O385 Eu336 2.419 . S
O385 C400 1.249 . S
O386 Eu347 2.558 . S
O386 C411 1.257 . S
O387 Eu336 2.380 . S
O387 Eu347 2.612 . S
O387 C403 1.276 . S
O388 Eu336 2.432 . S
O388 C410 1.264 . S
O389 Eu347 2.339 . S
O389 C410 1.254 . S
O390 Eu347 2.563 . S
O390 C403 1.235 . S
O391 Eu347 2.419 . S
O391 C411 1.249 . S
C392 O381 1.276 . S
C392 O384 1.235 . S
C393 C395 1.393 . S
C393 C397 1.395 . S
C393 C400 1.492 . S
C394 C395 1.392 . S
C394 C396 1.386 . S
C395 C393 1.393 . S
C395 C394 1.392 . S
C395 H412 0.930 . S
C396 C394 1.386 . S
C396 C398 1.395 . S
C396 H413 0.930 . S
C397 C393 1.395 . S
C397 C398 1.379 . S
C397 H414 0.930 . S
C398 C396 1.395 . S
C398 C397 1.379 . S
C398 H415 0.930 . S
C399 O382 1.264 . S
C399 O383 1.254 . S
C400 Eu336 2.848 . S
C400 O380 1.257 . S
C400 O385 1.249 . S
C400 C393 1.492 . S
C401 H366 0.931 . S
C401 C379 1.420 . S
C401 C402 1.351 . S
C402 H364 0.930 . S
C402 C370 1.423 . S
C402 C401 1.351 . S
C403 O387 1.276 . S
C403 O390 1.235 . S
C404 C405 1.393 . S
C404 C408 1.395 . S
C404 C411 1.492 . S
C405 C404 1.393 . S
C405 C406 1.392 . S
C405 H416 0.930 . S
C406 C405 1.392 . S
C406 C407 1.386 . S
C407 C406 1.386 . S
C407 C409 1.395 . S
C407 H417 0.930 . S
C408 C404 1.395 . S
C408 C409 1.379 . S
C408 H418 0.930 . S
C409 C407 1.395 . S
C409 C408 1.379 . S
C409 H419 0.930 . S
C410 O388 1.264 . S
C410 O389 1.254 . S
C411 Eu347 2.848 . S
C411 O386 1.257 . S
C411 O391 1.249 . S
C411 C404 1.492 . S
H412 C395 0.930 . S
H413 C396 0.930 . S
H414 C397 0.930 . S
H415 C398 0.930 . S
H416 C405 0.930 . S
H417 C407 0.930 . S
H418 C408 0.930 . S
H419 C409 0.930 . S
Eu420 N451 2.657 . S
Eu420 N458 2.609 . S
Eu420 O464 2.558 . S
Eu420 O465 2.612 . S
Eu420 O467 2.339 . S
Eu420 O468 2.563 . S
Eu420 O469 2.419 . S
Eu420 O471 2.380 . S
Eu420 O472 2.432 . S
Eu420 C484 2.848 . S
C421 C424 1.429 . S
C421 C425 1.411 . S
C421 N428 1.377 . S
C422 C424 1.420 . S
C422 C426 1.423 . S
C422 C434 1.392 . S
C423 C425 1.420 . S
C423 C426 1.351 . S
C423 H446 0.931 . S
C424 C421 1.429 . S
C424 C422 1.420 . S
C424 N432 1.362 . S
C425 C421 1.411 . S
C425 C423 1.420 . S
C425 C430 1.395 . S
C426 C422 1.423 . S
C426 C423 1.351 . S
C426 H438 0.930 . S
C427 C429 1.400 . S
C427 C430 1.386 . S
C427 H439 0.930 . S
N428 C421 1.377 . S
N428 C429 1.321 . S
N428 Eu431 2.609 . S
C429 C427 1.400 . S
C429 N428 1.321 . S
C429 H436 0.930 . S
C430 C425 1.395 . S
C430 C427 1.386 . S
C430 H449 0.930 . S
Eu431 N428 2.609 . S
Eu431 N432 2.657 . S
Eu431 O465 2.380 . S
Eu431 O466 2.432 . S
Eu431 O470 2.558 . S
Eu431 O471 2.612 . S
Eu431 O473 2.339 . S
Eu431 O474 2.563 . S
Eu431 O475 2.419 . S
Eu431 C495 2.848 . S
N432 C424 1.362 . S
N432 Eu431 2.657 . S
N432 C433 1.334 . S
C433 N432 1.334 . S
C433 C435 1.413 . S
C433 H440 0.929 . S
C434 C422 1.392 . S
C434 C435 1.367 . S
C434 H442 0.930 . S
C435 C433 1.413 . S
C435 C434 1.367 . S
C435 H437 0.930 . S
H436 C429 0.930 . S
H437 C435 0.930 . S
H438 C426 0.930 . S
H439 C427 0.930 . S
H440 C433 0.929 . S
H441 C455 0.930 . S
H442 C434 0.930 . S
H443 C461 0.930 . S
H444 C452 0.929 . S
H445 C459 0.930 . S
H446 C423 0.931 . S
H447 C453 0.930 . S
H448 C486 0.930 . S
H449 C430 0.930 . S
H450 C485 0.931 . S
N451 Eu420 2.657 . S
N451 C452 1.334 . S
N451 C456 1.362 . S
C452 H444 0.929 . S
C452 N451 1.334 . S
C452 C455 1.413 . S
C453 H447 0.930 . S
C453 C454 1.392 . S
C453 C455 1.367 . S
C454 C453 1.392 . S
C454 C456 1.420 . S
C454 C486 1.423 . S
C455 H441 0.930 . S
C455 C452 1.413 . S
C455 C453 1.367 . S
C456 N451 1.362 . S
C456 C454 1.420 . S
C456 C460 1.429 . S
H457 C462 0.930 . S
N458 Eu420 2.609 . S
N458 C460 1.377 . S
N458 C461 1.321 . S
C459 H445 0.930 . S
C459 C461 1.400 . S
C459 C462 1.386 . S
C460 C456 1.429 . S
C460 N458 1.377 . S
C460 C463 1.411 . S
C461 H443 0.930 . S
C461 N458 1.321 . S
C461 C459 1.400 . S
C462 H457 0.930 . S
C462 C459 1.386 . S
C462 C463 1.395 . S
C463 C460 1.411 . S
C463 C462 1.395 . S
C463 C485 1.420 . S
O464 Eu420 2.558 . S
O464 C484 1.257 . S
O465 Eu420 2.612 . S
O465 Eu431 2.380 . S
O465 C476 1.276 . S
O466 Eu431 2.432 . S
O466 C483 1.264 . S
O467 Eu420 2.339 . S
O467 C483 1.254 . S
O468 Eu420 2.563 . S
O468 C476 1.235 . S
O469 Eu420 2.419 . S
O469 C484 1.249 . S
O470 Eu431 2.558 . S
O470 C495 1.257 . S
O471 Eu420 2.380 . S
O471 Eu431 2.612 . S
O471 C487 1.276 . S
O472 Eu420 2.432 . S
O472 C494 1.264 . S
O473 Eu431 2.339 . S
O473 C494 1.254 . S
O474 Eu431 2.563 . S
O474 C487 1.235 . S
O475 Eu431 2.419 . S
O475 C495 1.249 . S
C476 O465 1.276 . S
C476 O468 1.235 . S
C477 C479 1.393 . S
C477 C481 1.395 . S
C477 C484 1.492 . S
C478 C479 1.392 . S
C478 C480 1.386 . S
C479 C477 1.393 . S
C479 C478 1.392 . S
C479 H496 0.930 . S
C480 C478 1.386 . S
C480 C482 1.395 . S
C480 H497 0.930 . S
C481 C477 1.395 . S
C481 C482 1.379 . S
C481 H498 0.930 . S
C482 C480 1.395 . S
C482 C481 1.379 . S
C482 H499 0.930 . S
C483 O466 1.264 . S
C483 O467 1.254 . S
C484 Eu420 2.848 . S
C484 O464 1.257 . S
C484 O469 1.249 . S
C484 C477 1.492 . S
C485 H450 0.931 . S
C485 C463 1.420 . S
C485 C486 1.351 . S
C486 H448 0.930 . S
C486 C454 1.423 . S
C486 C485 1.351 . S
C487 O471 1.276 . S
C487 O474 1.235 . S
C488 C489 1.393 . S
C488 C492 1.395 . S
C488 C495 1.492 . S
C489 C488 1.393 . S
C489 C490 1.392 . S
C489 H500 0.930 . S
C490 C489 1.392 . S
C490 C491 1.386 . S
C491 C490 1.386 . S
C491 C493 1.395 . S
C491 H501 0.930 . S
C492 C488 1.395 . S
C492 C493 1.379 . S
C492 H502 0.930 . S
C493 C491 1.395 . S
C493 C492 1.379 . S
C493 H503 0.930 . S
C494 O472 1.264 . S
C494 O473 1.254 . S
C495 Eu431 2.848 . S
C495 O470 1.257 . S
C495 O475 1.249 . S
C495 C488 1.492 . S
H496 C479 0.930 . S
H497 C480 0.930 . S
H498 C481 0.930 . S
H499 C482 0.930 . S
H500 C489 0.930 . S
H501 C491 0.930 . S
H502 C492 0.930 . S
H503 C493 0.930 . S
H504 C510 0.930 . S
H505 C514 0.930 . S
H506 C519 0.929 . S
H507 C517 0.929 . S
H508 C512 0.929 . S
H509 C518 0.929 . S
C510 H504 0.930 . S
C510 C511 1.367 . S
C510 C518 1.378 . S
C511 C510 1.367 . S
C511 C519 1.433 . S
C512 H508 0.929 . S
C512 C514 1.378 . S
C512 C516 1.350 . S
C513 C516 1.463 . S
C513 C518 1.350 . S
C513 N521 1.427 . S
C514 H505 0.930 . S
C514 C512 1.378 . S
C514 C515 1.367 . S
C515 C514 1.367 . S
C515 C517 1.433 . S
C516 C512 1.350 . S
C516 C513 1.463 . S
C516 N520 1.427 . S
C517 H507 0.929 . S
C517 C515 1.433 . S
C517 N520 1.384 . S
C518 H509 0.929 . S
C518 C510 1.378 . S
C518 C513 1.350 . S
C519 H506 0.929 . S
C519 C511 1.433 . S
C519 N521 1.384 . S
N520 C516 1.427 . S
N520 C517 1.384 . S
N521 C513 1.427 . S
N521 C519 1.384 . S
H522 C528 0.930 . S
H523 C532 0.930 . S
H524 C537 0.929 . S
H525 C535 0.929 . S
H526 C530 0.929 . S
H527 C536 0.929 . S
C528 H522 0.930 . S
C528 C529 1.367 . S
C528 C536 1.378 . S
C529 C528 1.367 . S
C529 C537 1.433 . S
C530 H526 0.929 . S
C530 C532 1.378 . S
C530 C534 1.350 . S
C531 C534 1.463 . S
C531 C536 1.350 . S
C531 N539 1.427 . S
C532 H523 0.930 . S
C532 C530 1.378 . S
C532 C533 1.367 . S
C533 C532 1.367 . S
C533 C535 1.433 . S
C534 C530 1.350 . S
C534 C531 1.463 . S
C534 N538 1.427 . S
C535 H525 0.929 . S
C535 C533 1.433 . S
C535 N538 1.384 . S
C536 H527 0.929 . S
C536 C528 1.378 . S
C536 C531 1.350 . S
C537 H524 0.929 . S
C537 C529 1.433 . S
C537 N539 1.384 . S
N538 C534 1.427 . S
N538 C535 1.384 . S
N539 C531 1.427 . S
N539 C537 1.384 . S
H540 C546 0.930 . S
H541 C550 0.930 . S
H542 C555 0.929 . S
H543 C553 0.929 . S
H544 C548 0.929 . S
H545 C554 0.929 . S
C546 H540 0.930 . S
C546 C547 1.367 . S
C546 C554 1.378 . S
C547 C546 1.367 . S
C547 C555 1.433 . S
C548 H544 0.929 . S
C548 C550 1.378 . S
C548 C552 1.350 . S
C549 C552 1.463 . S
C549 C554 1.350 . S
C549 N557 1.427 . S
C550 H541 0.930 . S
C550 C548 1.378 . S
C550 C551 1.367 . S
C551 C550 1.367 . S
C551 C553 1.433 . S
C552 C548 1.350 . S
C552 C549 1.463 . S
C552 N556 1.427 . S
C553 H543 0.929 . S
C553 C551 1.433 . S
C553 N556 1.384 . S
C554 H545 0.929 . S
C554 C546 1.378 . S
C554 C549 1.350 . S
C555 H542 0.929 . S
C555 C547 1.433 . S
C555 N557 1.384 . S
N556 C552 1.427 . S
N556 C553 1.384 . S
N557 C549 1.427 . S
N557 C555 1.384 . S
H558 C564 0.930 . S
H559 C568 0.930 . S
H560 C573 0.929 . S
H561 C571 0.929 . S
H562 C566 0.929 . S
H563 C572 0.929 . S
C564 H558 0.930 . S
C564 C565 1.367 . S
C564 C572 1.378 . S
C565 C564 1.367 . S
C565 C573 1.433 . S
C566 H562 0.929 . S
C566 C568 1.378 . S
C566 C570 1.350 . S
C567 C570 1.463 . S
C567 C572 1.350 . S
C567 N575 1.427 . S
C568 H559 0.930 . S
C568 C566 1.378 . S
C568 C569 1.367 . S
C569 C568 1.367 . S
C569 C571 1.433 . S
C570 C566 1.350 . S
C570 C567 1.463 . S
C570 N574 1.427 . S
C571 H561 0.929 . S
C571 C569 1.433 . S
C571 N574 1.384 . S
C572 H563 0.929 . S
C572 C564 1.378 . S
C572 C567 1.350 . S
C573 H560 0.929 . S
C573 C565 1.433 . S
C573 N575 1.384 . S
N574 C570 1.427 . S
N574 C571 1.384 . S
N575 C567 1.427 . S
N575 C573 1.384 . S
H576 C582 0.930 . S
H577 C586 0.930 . S
H578 C591 0.929 . S
H579 C589 0.929 . S
H580 C584 0.929 . S
H581 C590 0.929 . S
C582 H576 0.930 . S
C582 C583 1.367 . S
C582 C590 1.378 . S
C583 C582 1.367 . S
C583 C591 1.433 . S
C584 H580 0.929 . S
C584 C586 1.378 . S
C584 C588 1.350 . S
C585 C588 1.463 . S
C585 C590 1.350 . S
C585 N593 1.427 . S
C586 H577 0.930 . S
C586 C584 1.378 . S
C586 C587 1.367 . S
C587 C586 1.367 . S
C587 C589 1.433 . S
C588 C584 1.350 . S
C588 C585 1.463 . S
C588 N592 1.427 . S
C589 H579 0.929 . S
C589 C587 1.433 . S
C589 N592 1.384 . S
C590 H581 0.929 . S
C590 C582 1.378 . S
C590 C585 1.350 . S
C591 H578 0.929 . S
C591 C583 1.433 . S
C591 N593 1.384 . S
N592 C588 1.427 . S
N592 C589 1.384 . S
N593 C585 1.427 . S
N593 C591 1.384 . S
H594 C600 0.930 . S
H595 C604 0.930 . S
H596 C609 0.929 . S
H597 C607 0.929 . S
H598 C602 0.929 . S
H599 C608 0.929 . S
C600 H594 0.930 . S
C600 C601 1.367 . S
C600 C608 1.378 . S
C601 C600 1.367 . S
C601 C609 1.433 . S
C602 H598 0.929 . S
C602 C604 1.378 . S
C602 C606 1.350 . S
C603 C606 1.463 . S
C603 C608 1.350 . S
C603 N611 1.427 . S
C604 H595 0.930 . S
C604 C602 1.378 . S
C604 C605 1.367 . S
C605 C604 1.367 . S
C605 C607 1.433 . S
C606 C602 1.350 . S
C606 C603 1.463 . S
C606 N610 1.427 . S
C607 H597 0.929 . S
C607 C605 1.433 . S
C607 N610 1.384 . S
C608 H599 0.929 . S
C608 C600 1.378 . S
C608 C603 1.350 . S
C609 H596 0.929 . S
C609 C601 1.433 . S
C609 N611 1.384 . S
N610 C606 1.427 . S
N610 C607 1.384 . S
N611 C603 1.427 . S
N611 C609 1.384 . S
H612 C618 0.930 . S
H613 C622 0.930 . S
H614 C627 0.929 . S
H615 C625 0.929 . S
H616 C620 0.929 . S
H617 C626 0.929 . S
C618 H612 0.930 . S
C618 C619 1.367 1_556 S
C618 C626 1.378 . S
C619 C618 1.367 1_554 S
C619 C627 1.433 . S
C620 H616 0.929 . S
C620 C622 1.378 . S
C620 C624 1.350 . S
C621 C624 1.463 . S
C621 C626 1.350 1_554 S
C621 N629 1.427 . S
C622 H613 0.930 . S
C622 C620 1.378 . S
C622 C623 1.367 . S
C623 C622 1.367 . S
C623 C625 1.433 1_554 S
C624 C620 1.350 . S
C624 C621 1.463 . S
C624 N628 1.427 1_554 S
C625 H615 0.929 . S
C625 C623 1.433 1_556 S
C625 N628 1.384 . S
C626 H617 0.929 . S
C626 C618 1.378 . S
C626 C621 1.350 1_556 S
C627 H614 0.929 . S
C627 C619 1.433 . S
C627 N629 1.384 . S
N628 C624 1.427 1_556 S
N628 C625 1.384 . S
N629 C621 1.427 . S
N629 C627 1.384 . S
H630 C636 0.930 . S
H631 C640 0.930 . S
H632 C645 0.929 . S
H633 C643 0.929 . S
H634 C638 0.929 1_455 S
H635 C644 0.929 1_655 S
C636 H630 0.930 . S
C636 C637 1.367 . S
C636 C644 1.378 . S
C637 C636 1.367 . S
C637 C645 1.433 . S
C638 H634 0.929 1_655 S
C638 C640 1.378 . S
C638 C642 1.350 . S
C639 C642 1.463 1_455 S
C639 C644 1.350 . S
C639 N647 1.427 . S
C640 H631 0.930 . S
C640 C638 1.378 . S
C640 C641 1.367 . S
C641 C640 1.367 . S
C641 C643 1.433 . S
C642 C638 1.350 . S
C642 C639 1.463 1_655 S
C642 N646 1.427 . S
C643 H633 0.929 . S
C643 C641 1.433 . S
C643 N646 1.384 . S
C644 H635 0.929 1_455 S
C644 C636 1.378 . S
C644 C639 1.350 . S
C645 H632 0.929 . S
C645 C637 1.433 . S
C645 N647 1.384 . S
N646 C642 1.427 . S
N646 C643 1.384 . S
N647 C639 1.427 . S
N647 C645 1.384 . S
H648 C654 0.930 . S
H649 C658 0.930 . S
H650 C663 0.929 . S
H651 C661 0.929 . S
H652 C656 0.929 1_545 S
H653 C662 0.929 1_565 S
C654 H648 0.930 . S
C654 C655 1.367 . S
C654 C662 1.378 . S
C655 C654 1.367 . S
C655 C663 1.433 . S
C656 H652 0.929 1_565 S
C656 C658 1.378 . S
C656 C660 1.350 . S
C657 C660 1.463 1_545 S
C657 C662 1.350 . S
C657 N665 1.427 . S
C658 H649 0.930 . S
C658 C656 1.378 . S
C658 C659 1.367 . S
C659 C658 1.367 . S
C659 C661 1.433 . S
C660 C656 1.350 . S
C660 C657 1.463 1_565 S
C660 N664 1.427 . S
C661 H651 0.929 . S
C661 C659 1.433 . S
C661 N664 1.384 . S
C662 H653 0.929 1_545 S
C662 C654 1.378 . S
C662 C657 1.350 . S
C663 H650 0.929 . S
C663 C655 1.433 . S
C663 N665 1.384 . S
N664 C660 1.427 . S
N664 C661 1.384 . S
N665 C657 1.427 . S
N665 C663 1.384 . S
H666 C672 0.930 . S
H667 C676 0.930 . S
H668 C681 0.929 . S
H669 C679 0.929 . S
H670 C674 0.929 . S
H671 C680 0.929 . S
C672 H666 0.930 . S
C672 C673 1.367 . S
C672 C680 1.378 . S
C673 C672 1.367 . S
C673 C681 1.433 . S
C674 H670 0.929 . S
C674 C676 1.378 . S
C674 C678 1.350 . S
C675 C678 1.463 . S
C675 C680 1.350 . S
C675 N683 1.427 . S
C676 H667 0.930 . S
C676 C674 1.378 . S
C676 C677 1.367 . S
C677 C676 1.367 . S
C677 C679 1.433 . S
C678 C674 1.350 . S
C678 C675 1.463 . S
C678 N682 1.427 . S
C679 H669 0.929 . S
C679 C677 1.433 . S
C679 N682 1.384 . S
C680 H671 0.929 . S
C680 C672 1.378 . S
C680 C675 1.350 . S
C681 H668 0.929 . S
C681 C673 1.433 . S
C681 N683 1.384 . S
N682 C678 1.427 . S
N682 C679 1.384 . S
N683 C675 1.427 . S
N683 C681 1.384 . S
H684 C690 0.930 . S
H685 C694 0.930 . S
H686 C699 0.929 . S
H687 C697 0.929 . S
H688 C692 0.929 . S
H689 C698 0.929 . S
C690 H684 0.930 . S
C690 C691 1.367 . S
C690 C698 1.378 . S
C691 C690 1.367 . S
C691 C699 1.433 1_554 S
C692 H688 0.929 . S
C692 C694 1.378 . S
C692 C696 1.350 1_556 S
C693 C696 1.463 1_455 S
C693 C698 1.350 . S
C693 N701 1.427 1_554 S
C694 H685 0.930 . S
C694 C692 1.378 . S
C694 C695 1.367 1_556 S
C695 C694 1.367 1_554 S
C695 C697 1.433 . S
C696 C692 1.350 1_554 S
C696 C693 1.463 1_655 S
C696 N700 1.427 . S
C697 H687 0.929 . S
C697 C695 1.433 . S
C697 N700 1.384 . S
C698 H689 0.929 . S
C698 C690 1.378 . S
C698 C693 1.350 . S
C699 H686 0.929 . S
C699 C691 1.433 1_556 S
C699 N701 1.384 . S
N700 C696 1.427 . S
N700 C697 1.384 . S
N701 C693 1.427 1_556 S
N701 C699 1.384 . S
H702 C708 0.930 . S
H703 C712 0.930 . S
H704 C717 0.929 . S
H705 C715 0.929 . S
H706 C710 0.929 . S
H707 C716 0.929 . S
C708 H702 0.930 . S
C708 C709 1.367 . S
C708 C716 1.378 . S
C709 C708 1.367 . S
C709 C717 1.433 . S
C710 H706 0.929 . S
C710 C712 1.378 . S
C710 C714 1.350 . S
C711 C714 1.463 1_565 S
C711 C716 1.350 . S
C711 N719 1.427 . S
C712 H703 0.930 . S
C712 C710 1.378 . S
C712 C713 1.367 . S
C713 C712 1.367 . S
C713 C715 1.433 . S
C714 C710 1.350 . S
C714 C711 1.463 1_545 S
C714 N718 1.427 . S
C715 H705 0.929 . S
C715 C713 1.433 . S
C715 N718 1.384 . S
C716 H707 0.929 . S
C716 C708 1.378 . S
C716 C711 1.350 . S
C717 H704 0.929 . S
C717 C709 1.433 . S
C717 N719 1.384 . S
N718 C714 1.427 . S
N718 C715 1.384 . S
N719 C711 1.427 . S
N719 C717 1.384 . S
H720 C726 0.930 . S
H721 C730 0.930 . S
H722 C735 0.929 . S
H723 C733 0.929 . S
H724 C728 0.929 . S
H725 C734 0.929 . S
C726 H720 0.930 . S
C726 C727 1.367 . S
C726 C734 1.378 . S
C727 C726 1.367 . S
C727 C735 1.433 . S
C728 H724 0.929 . S
C728 C730 1.378 . S
C728 C732 1.350 . S
C729 C732 1.463 . S
C729 C734 1.350 . S
C729 N737 1.427 . S
C730 H721 0.930 . S
C730 C728 1.378 . S
C730 C731 1.367 . S
C731 C730 1.367 . S
C731 C733 1.433 . S
C732 C728 1.350 . S
C732 C729 1.463 . S
C732 N736 1.427 . S
C733 H723 0.929 . S
C733 C731 1.433 . S
C733 N736 1.384 . S
C734 H725 0.929 . S
C734 C726 1.378 . S
C734 C729 1.350 . S
C735 H722 0.929 . S
C735 C727 1.433 . S
C735 N737 1.384 . S
N736 C732 1.427 . S
N736 C733 1.384 . S
N737 C729 1.427 . S
N737 C735 1.384 . S
H738 C744 0.930 . S
H739 C748 0.930 . S
H740 C753 0.929 1_655 S
H741 C751 0.929 . S
H742 C746 0.929 . S
H743 C752 0.929 . S
C744 H738 0.930 . S
C744 C745 1.367 . S
C744 C752 1.378 . S
C745 C744 1.367 . S
C745 C753 1.433 . S
C746 H742 0.929 . S
C746 C748 1.378 . S
C746 C750 1.350 . S
C747 C750 1.463 . S
C747 C752 1.350 . S
C747 N755 1.427 . S
C748 H739 0.930 . S
C748 C746 1.378 . S
C748 C749 1.367 . S
C749 C748 1.367 . S
C749 C751 1.433 . S
C750 C746 1.350 . S
C750 C747 1.463 . S
C750 N754 1.427 . S
C751 H741 0.929 . S
C751 C749 1.433 . S
C751 N754 1.384 . S
C752 H743 0.929 . S
C752 C744 1.378 . S
C752 C747 1.350 . S
C753 H740 0.929 1_455 S
C753 C745 1.433 . S
C753 N755 1.384 . S
N754 C750 1.427 . S
N754 C751 1.384 . S
N755 C747 1.427 . S
N755 C753 1.384 . S
H756 C762 0.930 . S
H757 C766 0.930 . S
H758 C771 0.929 . S
H759 C769 0.929 . S
H760 C764 0.929 . S
H761 C770 0.929 1_565 S
C762 H756 0.930 . S
C762 C763 1.367 1_565 S
C762 C770 1.378 1_565 S
C763 C762 1.367 1_545 S
C763 C771 1.433 . S
C764 H760 0.929 . S
C764 C766 1.378 . S
C764 C768 1.350 . S
C765 C768 1.463 . S
C765 C770 1.350 . S
C765 N773 1.427 . S
C766 H757 0.930 . S
C766 C764 1.378 . S
C766 C767 1.367 . S
C767 C766 1.367 . S
C767 C769 1.433 . S
C768 C764 1.350 . S
C768 C765 1.463 . S
C768 N772 1.427 . S
C769 H759 0.929 . S
C769 C767 1.433 . S
C769 N772 1.384 . S
C770 H761 0.929 1_545 S
C770 C762 1.378 1_545 S
C770 C765 1.350 . S
C771 H758 0.929 . S
C771 C763 1.433 . S
C771 N773 1.384 . S
N772 C768 1.427 . S
N772 C769 1.384 . S
N773 C765 1.427 . S
N773 C771 1.384 . S
H774 C780 0.930 . S
H775 C784 0.930 . S
H776 C789 0.929 . S
H777 C787 0.929 . S
H778 C782 0.929 . S
H779 C788 0.929 . S
C780 H774 0.930 . S
C780 C781 1.367 . S
C780 C788 1.378 . S
C781 C780 1.367 . S
C781 C789 1.433 . S
C782 H778 0.929 . S
C782 C784 1.378 . S
C782 C786 1.350 . S
C783 C786 1.463 . S
C783 C788 1.350 . S
C783 N791 1.427 . S
C784 H775 0.930 . S
C784 C782 1.378 . S
C784 C785 1.367 . S
C785 C784 1.367 . S
C785 C787 1.433 . S
C786 C782 1.350 . S
C786 C783 1.463 . S
C786 N790 1.427 . S
C787 H777 0.929 . S
C787 C785 1.433 . S
C787 N790 1.384 . S
C788 H779 0.929 . S
C788 C780 1.378 . S
C788 C783 1.350 . S
C789 H776 0.929 . S
C789 C781 1.433 . S
C789 N791 1.384 . S
N790 C786 1.427 . S
N790 C787 1.384 . S
N791 C783 1.427 . S
N791 C789 1.384 . S
H792 C798 0.930 . S
H793 C802 0.930 . S
H794 C807 0.929 . S
H795 C805 0.929 . S
H796 C800 0.929 . S
H797 C806 0.929 1_455 S
C798 H792 0.930 . S
C798 C799 1.367 1_455 S
C798 C806 1.378 1_455 S
C799 C798 1.367 1_655 S
C799 C807 1.433 . S
C800 H796 0.929 . S
C800 C802 1.378 . S
C800 C804 1.350 . S
C801 C804 1.463 . S
C801 C806 1.350 . S
C801 N809 1.427 . S
C802 H793 0.930 . S
C802 C800 1.378 . S
C802 C803 1.367 . S
C803 C802 1.367 . S
C803 C805 1.433 . S
C804 C800 1.350 . S
C804 C801 1.463 . S
C804 N808 1.427 . S
C805 H795 0.929 . S
C805 C803 1.433 . S
C805 N808 1.384 . S
C806 H797 0.929 1_655 S
C806 C798 1.378 1_655 S
C806 C801 1.350 . S
C807 H794 0.929 . S
C807 C799 1.433 . S
C807 N809 1.384 . S
N808 C804 1.427 . S
N808 C805 1.384 . S
N809 C801 1.427 . S
N809 C807 1.384 . S
H810 C816 0.930 . S
H811 C820 0.930 . S
H812 C825 0.929 . S
H813 C823 0.929 . S
H814 C818 0.929 . S
H815 C824 0.929 1_545 S
C816 H810 0.930 . S
C816 C817 1.367 1_545 S
C816 C824 1.378 1_545 S
C817 C816 1.367 1_565 S
C817 C825 1.433 . S
C818 H814 0.929 . S
C818 C820 1.378 . S
C818 C822 1.350 . S
C819 C822 1.463 . S
C819 C824 1.350 . S
C819 N827 1.427 . S
C820 H811 0.930 . S
C820 C818 1.378 . S
C820 C821 1.367 . S
C821 C820 1.367 . S
C821 C823 1.433 . S
C822 C818 1.350 . S
C822 C819 1.463 . S
C822 N826 1.427 . S
C823 H813 0.929 . S
C823 C821 1.433 . S
C823 N826 1.384 . S
C824 H815 0.929 1_565 S
C824 C816 1.378 1_565 S
C824 C819 1.350 . S
C825 H812 0.929 . S
C825 C817 1.433 . S
C825 N827 1.384 . S
N826 C822 1.427 . S
N826 C823 1.384 . S
N827 C819 1.427 . S
N827 C825 1.384 . S
C511 C403 1.156 . S
C515 C58 1.013 . S
C529 C487 1.156 . S
C533 C142 1.037 . S
C547 C67 1.140 . S
C551 C226 1.029 . S
C565 C151 1.139 . S
C569 C310 1.001 . S
C583 C235 1.150 . S
C587 C394 1.039 . S
C601 C319 1.136 . S
C605 C478 1.005 . S
C619 C74 1.820 . S
C623 C326 1.812 . S
C637 C410 1.813 . S
C641 C158 1.821 . S
C655 C494 1.814 . S
C659 C242 1.821 . S
C673 C231 1.809 . S
C677 C483 1.801 . S
C691 C63 1.806 . S
C695 C315 1.800 . S
C709 C399 1.803 . S
C713 C147 1.811 . S
C727 C476 1.218 . S
C731 C70 1.206 . S
C745 C154 1.224 1_455 S
C749 C56 1.235 . S
C763 C238 1.207 1_545 S
C767 C140 1.219 . S
C781 C224 1.228 . S
C785 C322 1.215 . S
C799 C406 1.209 1_655 S
C803 C308 1.221 . S
C817 C490 1.207 1_565 S
C821 C392 1.219 . S
