# Generated by pormake.
# Topology can, (4)-cn, num edge types: 1
# Building blocks:
#     Node 0, Type 0, BuildingBlock: UXUYUI_clean_sbu_0, # of connection points: 4
#     Node 1, Type 0, BuildingBlock: UXUYUI_clean_sbu_0, # of connection points: 4
#     Node 2, Type 0, BuildingBlock: UXUYUI_clean_sbu_0, # of connection points: 4
#     Node 3, Type 0, BuildingBlock: UXUYUI_clean_sbu_0, # of connection points: 4
#     Node 4, Type 0, BuildingBlock: UXUYUI_clean_sbu_0, # of connection points: 4
#     Node 5, Type 0, BuildingBlock: UXUYUI_clean_sbu_0, # of connection points: 4
#     Node 6, Type 0, BuildingBlock: UXUYUI_clean_sbu_0, # of connection points: 4
#     Node 7, Type 0, BuildingBlock: UXUYUI_clean_sbu_0, # of connection points: 4
#     Node 8, Type 0, BuildingBlock: UXUYUI_clean_sbu_0, # of connection points: 4
#     Node 9, Type 0, BuildingBlock: UXUYUI_clean_sbu_0, # of connection points: 4
#     Node 10, Type 0, BuildingBlock: UXUYUI_clean_sbu_0, # of connection points: 4
#     Node 11, Type 0, BuildingBlock: UXUYUI_clean_sbu_0, # of connection points: 4
#     Edge 12, Type (0, 0), None
#     Edge 13, Type (0, 0), None
#     Edge 14, Type (0, 0), None
#     Edge 15, Type (0, 0), None
#     Edge 16, Type (0, 0), None
#     Edge 17, Type (0, 0), None
#     Edge 18, Type (0, 0), None
#     Edge 19, Type (0, 0), None
#     Edge 20, Type (0, 0), None
#     Edge 21, Type (0, 0), None
#     Edge 22, Type (0, 0), None
#     Edge 23, Type (0, 0), None
#     Edge 24, Type (0, 0), None
#     Edge 25, Type (0, 0), None
#     Edge 26, Type (0, 0), None
#     Edge 27, Type (0, 0), None
#     Edge 28, Type (0, 0), None
#     Edge 29, Type (0, 0), None
#     Edge 30, Type (0, 0), None
#     Edge 31, Type (0, 0), None
#     Edge 32, Type (0, 0), None
#     Edge 33, Type (0, 0), None
#     Edge 34, Type (0, 0), None
#     Edge 35, Type (0, 0), None
# Relax obj value: 0.136
# Max RMSD: 0.111
# Mean RMSD: 0.111
data_MOF--net-can--node1-UXUYUI_clean_sbu_0--edge1-none
_symmetry_space_group_name_H-M    P1
_symmetry_Int_Tables_number       1
_symmetry_cell_setting            triclinic
loop_
_symmetry_equiv_pos_as_xyz
'x, y, z'
_cell_length_a     54.171889
_cell_length_b     54.169809
_cell_length_c     23.642224
_cell_angle_alpha  89.999803
_cell_angle_beta   90.001661
_cell_angle_gamma 119.9843
loop_
_atom_site_label
_atom_site_type_symbol
_atom_site_fract_x
_atom_site_fract_y
_atom_site_fract_z
_atom_type_partial_charge
Li0 Li 0.08857 0.44541 0.25204 0.0
Li1 Li 0.06475 0.40286 0.30712 0.0
Li2 Li 0.1111 0.41674 0.25357 0.0
Li3 Li 0.06501 0.40183 0.2021 0.0
C4 C 0.11818 0.45958 0.34956 0.0
N5 N 0.14695 0.50926 0.41151 0.0
C6 C 0.10301 0.46949 0.38085 0.0
C7 C 0.14796 0.47473 0.35016 0.0
C8 C 0.11795 0.49473 0.41174 0.0
C9 C 0.16212 0.49984 0.38171 0.0
C10 C 0.0183 0.39893 0.25409 0.0
C11 C 0.97828 0.35091 0.2519 0.0
N12 N 0.96017 0.36134 0.25665 0.0
C13 C 0.99921 0.40912 0.25907 0.0
C14 C 0.00769 0.36954 0.25063 0.0
C15 C 0.96994 0.3898 0.26026 0.0
C16 C 0.07152 0.48565 0.23715 0.0
N17 N 0.09511 0.4839 0.24915 0.0
C18 C 0.12312 0.53477 0.2559 0.0
C19 C 0.12074 0.50784 0.258 0.0
C20 C 0.09885 0.53714 0.24495 0.0
C21 C 0.07281 0.51198 0.23542 0.0
H22 H 0.05154 0.46651 0.2291 0.0
H23 H 0.13942 0.50616 0.26657 0.0
C24 C 0.04404 0.36659 0.40659 0.0
N25 N 0.04357 0.38746 0.37539 0.0
C26 C 0.02903 0.35779 0.45789 0.0
C27 C 0.01286 0.39151 0.4426 0.0
C28 C 0.02844 0.39991 0.39253 0.0
C29 C 0.01336 0.37055 0.47689 0.0
H30 H 0.05647 0.3572 0.39227 0.0
H31 H 0.02874 0.41675 0.36752 0.0
C32 C 0.11831 0.45944 0.15929 0.0
N33 N 0.14732 0.51172 0.10585 0.0
C34 C 0.10454 0.46711 0.11885 0.0
C35 C 0.14686 0.47833 0.17244 0.0
C36 C 0.11955 0.49366 0.0924 0.0
C37 C 0.16117 0.50464 0.14491 0.0
C38 C 0.07309 0.35488 0.23625 0.0
C39 C 0.09195 0.35692 0.19374 0.0
C40 C 0.05351 0.32818 0.25819 0.0
C41 C 0.09082 0.33212 0.17367 0.0
C42 C 0.05301 0.30387 0.23692 0.0
N43 N 0.07153 0.30633 0.19548 0.0
C44 C 0.1533 0.40672 0.30192 0.0
C45 C 0.16181 0.42215 0.20656 0.0
C46 C 0.17849 0.4055 0.30322 0.0
N47 N 0.14558 0.41509 0.25414 0.0
C48 C 0.18725 0.42148 0.20611 0.0
C49 C 0.19604 0.41312 0.25494 0.0
H50 H 0.13985 0.40098 0.33901 0.0
H51 H 0.155 0.42835 0.16883 0.0
C52 C 0.03024 0.3997 0.11524 0.0
N53 N 0.04308 0.38528 0.13464 0.0
C54 C 0.01496 0.39182 0.06476 0.0
C55 C 0.02592 0.35398 0.05464 0.0
C56 C 0.0409 0.36251 0.10587 0.0
C57 C 0.01305 0.36901 0.03299 0.0
H58 H 0.03228 0.41776 0.13872 0.0
H59 H 0.05112 0.35122 0.12176 0.0
O60 O 0.104 0.43494 0.3191 0.0
O61 O 0.04711 0.41776 0.25321 0.0
O62 O 0.10385 0.43371 0.18627 0.0
O63 O 0.07414 0.37887 0.25738 0.0
H64 H 0.07995 0.45798 0.38078 0.0
H65 H 0.15999 0.46725 0.32625 0.0
H66 H 0.10651 0.50279 0.43584 0.0
H67 H 0.18516 0.51188 0.38241 0.0
H68 H 0.96986 0.32815 0.24911 0.0
H69 H 0.00686 0.43171 0.26246 0.0
H70 H 0.02186 0.36105 0.24676 0.0
H71 H 0.955 0.39743 0.26417 0.0
H72 H 0.1438 0.55347 0.26252 0.0
H73 H 0.05332 0.51239 0.22778 0.0
H74 H 0.03032 0.34175 0.48295 0.0
H75 H 1.00064 0.40156 0.45426 0.0
H76 H 0.08246 0.45281 0.10821 0.0
H77 H 0.15772 0.47301 0.20442 0.0
H78 H 0.10912 0.49992 0.0612 0.0
H79 H 0.18321 0.51953 0.15495 0.0
H80 H 0.10689 0.37736 0.17566 0.0
H81 H 0.03887 0.32628 0.29133 0.0
H82 H 0.10519 0.33337 0.14058 0.0
H83 H 0.03794 0.28305 0.25342 0.0
H84 H 0.18398 0.39841 0.34157 0.0
H85 H 0.20009 0.42791 0.16808 0.0
H86 H 1.00486 0.40367 0.05072 0.0
H87 H 0.02513 0.33634 0.03155 0.0
Li88 Li 0.64783 0.08863 0.75456 0.0
Li89 Li 0.66676 0.06304 0.8084 0.0
Li90 Li 0.69992 0.10868 0.75425 0.0
Li91 Li 0.66748 0.06313 0.70323 0.0
C92 C 0.67008 0.12042 0.85334 0.0
N93 N 0.66087 0.15652 0.92132 0.0
C94 C 0.6543 0.11023 0.90319 0.0
C95 C 0.68159 0.14906 0.83854 0.0
C96 C 0.64974 0.12878 0.93684 0.0
C97 C 0.67659 0.16695 0.87334 0.0
C98 C 0.62038 0.01811 0.75651 0.0
C99 C 0.62187 0.97436 0.75662 0.0
N100 N 0.59292 0.9593 0.75929 0.0
C101 C 0.59066 1.00223 0.75929 0.0
C102 C 0.63615 0.00411 0.7552 0.0
C103 C 0.57717 0.9725 0.76065 0.0
C104 C 0.60874 0.10673 0.71301 0.0
N105 N 0.61638 0.09577 0.75705 0.0
C106 C 0.57509 0.08777 0.80907 0.0
C107 C 0.6 0.08625 0.80441 0.0
C108 C 0.56664 0.09886 0.76414 0.0
C109 C 0.58404 0.10874 0.71591 0.0
H110 H 0.62094 0.1129 0.67455 0.0
H111 H 0.60579 0.07656 0.83795 0.0
C112 C 0.68144 0.04022 0.90543 0.0
N113 N 0.66052 0.0417 0.87646 0.0
C114 C 0.67522 0.02525 0.95676 0.0
C115 C 0.62608 0.01315 0.94615 0.0
C116 C 0.63329 0.02857 0.89584 0.0
C117 C 0.64719 0.01168 0.97816 0.0
H118 H 0.70301 0.05106 0.88926 0.0
H119 H 0.61713 0.03039 0.87242 0.0
C120 C 0.67118 0.11845 0.64959 0.0
N121 N 0.66399 0.15157 0.56965 0.0
C122 C 0.66022 0.10725 0.59619 0.0
C123 C 0.67856 0.14654 0.66225 0.0
C124 C 0.65673 0.12433 0.55638 0.0
C125 C 0.67475 0.16292 0.62129 0.0
C126 C 0.72091 0.06762 0.73606 0.0
C127 C 0.73998 0.0871 0.69679 0.0
C128 C 0.72439 0.04503 0.75444 0.0
C129 C 0.76215 0.08352 0.67617 0.0
C130 C 0.74682 0.04216 0.73276 0.0
N131 N 0.76508 0.0613 0.69441 0.0
C132 C 0.75301 0.14938 0.80145 0.0
C133 C 0.74534 0.15949 0.70779 0.0
C134 C 0.77967 0.17427 0.80285 0.0
N135 N 0.73642 0.14261 0.75449 0.0
C136 C 0.77153 0.18478 0.70768 0.0
C137 C 0.78923 0.19263 0.75568 0.0
H138 H 0.74553 0.13539 0.8378 0.0
H139 H 0.73215 0.15333 0.67042 0.0
C140 C 0.63356 0.02661 0.618 0.0
N141 N 0.66114 0.04106 0.63548 0.0
C142 C 0.62611 0.01107 0.56778 0.0
C143 C 0.67569 0.0259 0.55302 0.0
C144 C 0.68215 0.0409 0.60419 0.0
C145 C 0.64732 0.01087 0.53385 0.0
H146 H 0.61726 0.02761 0.64257 0.0
H147 H 0.70399 0.05288 0.61788 0.0
O148 O 0.67492 0.10262 0.82011 0.0
O149 O 0.63385 0.04724 0.75534 0.0
O150 O 0.67478 0.102 0.68896 0.0
O151 O 0.69944 0.07107 0.75783 0.0
H152 H 0.64555 0.08819 0.91562 0.0
H153 H 0.69443 0.15744 0.80087 0.0
H154 H 0.63741 0.12114 0.97535 0.0
H155 H 0.68531 0.18916 0.86232 0.0
H156 H 0.6338 0.96324 0.7556 0.0
H157 H 0.57819 0.0128 0.76043 0.0
H158 H 0.65914 0.01604 0.75303 0.0
H159 H 0.55417 0.95993 0.7628 0.0
H160 H 0.56232 0.07988 0.84707 0.0
H161 H 0.57797 0.11675 0.67966 0.0
H162 H 0.69228 0.02496 0.98001 0.0
H163 H 0.60406 1.00258 0.9598 0.0
H164 H 0.65449 0.08563 0.58552 0.0
H165 H 0.68701 0.15554 0.7033 0.0
H166 H 0.64825 0.11593 0.51491 0.0
H167 H 0.68031 0.18465 0.63058 0.0
H168 H 0.73737 0.10446 0.68152 0.0
H169 H 0.70996 0.02992 0.78525 0.0
H170 H 0.77696 0.09833 0.64549 0.0
H171 H 0.74975 0.02475 0.74652 0.0
H172 H 0.79264 0.17888 0.84046 0.0
H173 H 0.77751 0.19819 0.67048 0.0
H174 H 0.60387 0.99947 0.55568 0.0
H175 H 0.69288 0.02679 0.52811 0.0
Li176 Li 0.60781 0.66435 0.30668 0.0
Li177 Li 0.56438 0.64629 0.25317 0.0
Li178 Li 0.60768 0.66523 0.20149 0.0
Li179 Li 0.59451 0.69758 0.25388 0.0
C180 C 0.60816 0.61959 0.2531 0.0
N181 N 0.64208 0.59483 0.25329 0.0
C182 C 0.59576 0.58995 0.25535 0.0
C183 C 0.63782 0.63663 0.25099 0.0
C184 C 0.61327 0.57784 0.2554 0.0
C185 C 0.6546 0.62371 0.2511 0.0
C186 C 0.55405 0.66442 0.35569 0.0
C187 C 0.51782 0.67216 0.39712 0.0
N188 N 0.5092 0.64857 0.42978 0.0
C189 C 0.54498 0.64036 0.38985 0.0
C190 C 0.54049 0.68056 0.35943 0.0
C191 C 0.52219 0.63264 0.42694 0.0
C192 C 0.64451 0.67954 0.40538 0.0
N193 N 0.6234 0.65823 0.37455 0.0
C194 C 0.61919 0.62358 0.44227 0.0
C195 C 0.61081 0.6307 0.39206 0.0
C196 C 0.64036 0.64504 0.4762 0.0
C197 C 0.65336 0.67339 0.4567 0.0
H198 H 0.65403 0.70134 0.39078 0.0
H199 H 0.59378 0.61416 0.36741 0.0
C200 C 0.52303 0.59114 0.22508 0.0
N201 N 0.52578 0.61485 0.25072 0.0
C202 C 0.49657 0.56625 0.22227 0.0
C203 C 0.4758 0.59065 0.27112 0.0
C204 C 0.50269 0.61524 0.2724 0.0
C205 C 0.47258 0.56564 0.24628 0.0
H206 H 0.54155 0.59152 0.20706 0.0
H207 H 0.505 0.6345 0.29076 0.0
C208 C 0.65656 0.71914 0.23454 0.0
N209 N 0.70662 0.76392 0.19294 0.0
C210 C 0.65573 0.73783 0.19485 0.0
C211 C 0.68283 0.72333 0.25342 0.0
C212 C 0.68128 0.76032 0.17425 0.0
C213 C 0.70791 0.74605 0.23173 0.0
C214 C 0.55019 0.66196 0.16207 0.0
C215 C 0.54259 0.64195 0.11864 0.0
C216 C 0.53066 0.66987 0.18084 0.0
C217 C 0.51541 0.63003 0.09483 0.0
C218 C 0.5037 0.65749 0.15589 0.0
N219 N 0.49669 0.63797 0.1138 0.0
C220 C 0.60957 0.63164 0.11513 0.0
C221 C 0.64502 0.67994 0.10273 0.0
C222 C 0.61759 0.62408 0.06495 0.0
N223 N 0.62329 0.65913 0.13328 0.0
C224 C 0.6535 0.67339 0.05157 0.0
C225 C 0.63958 0.6451 0.03172 0.0
H226 H 0.59198 0.6155 0.13939 0.0
H227 H 0.65547 0.70171 0.11712 0.0
C228 C 0.60554 0.75045 0.30148 0.0
N229 N 0.59646 0.73384 0.25442 0.0
C230 C 0.60643 0.77672 0.30246 0.0
C231 C 0.58889 0.76838 0.20639 0.0
C232 C 0.58838 0.74234 0.20726 0.0
C233 C 0.59788 0.78598 0.25452 0.0
H234 H 0.61195 0.74321 0.33834 0.0
H235 H 0.5814 0.7288 0.17025 0.0
O236 O 0.59115 0.63165 0.25304 0.0
O237 O 0.57646 0.67253 0.31953 0.0
O238 O 0.63184 0.69732 0.25616 0.0
O239 O 0.57638 0.67325 0.18705 0.0
H240 H 0.57284 0.57643 0.25723 0.0
H241 H 0.64783 0.65954 0.24912 0.0
H242 H 0.60395 0.55493 0.25716 0.0
H243 H 0.67757 0.63666 0.24942 0.0
H244 H 0.50705 0.68438 0.40038 0.0
H245 H 0.55525 0.62765 0.38737 0.0
H246 H 0.54734 0.69929 0.33332 0.0
H247 H 0.51483 0.61399 0.45346 0.0
H248 H 0.60893 0.60135 0.4544 0.0
H249 H 0.66958 0.69072 0.48146 0.0
H250 H 0.49511 0.54743 0.20298 0.0
H251 H 0.45774 0.5912 0.28931 0.0
H252 H 0.6356 0.73471 0.17931 0.0
H253 H 0.68382 0.70922 0.2846 0.0
H254 H 0.68096 0.77485 0.14325 0.0
H255 H 0.7284 0.74952 0.24585 0.0
H256 H 0.55744 0.63553 0.10382 0.0
H257 H 0.53609 0.68503 0.21499 0.0
H258 H 0.50917 0.61441 0.06137 0.0
H259 H 0.48829 0.66326 0.17023 0.0
H260 H 0.60651 0.60189 0.05247 0.0
H261 H 0.67028 0.69046 0.02728 0.0
H262 H 0.61391 0.78969 0.34027 0.0
H263 H 0.58175 0.77436 0.16872 0.0
Li264 Li 0.92317 0.56241 0.75193 0.0
Li265 Li 0.94692 0.60492 0.80714 0.0
Li266 Li 0.90057 0.59101 0.7534 0.0
Li267 Li 0.94674 0.60601 0.70209 0.0
C268 C 0.89349 0.54809 0.84922 0.0
N269 N 0.86477 0.49826 0.91072 0.0
C270 C 0.90869 0.5382 0.88052 0.0
C271 C 0.86371 0.53284 0.84959 0.0
C272 C 0.89376 0.51288 0.91117 0.0
C273 C 0.84958 0.50765 0.88091 0.0
C274 C 0.99344 0.60894 0.75423 0.0
C275 C 0.03341 0.65699 0.75199 0.0
N276 N 0.05155 0.64661 0.75704 0.0
C277 C 0.01255 0.59881 0.75951 0.0
C278 C 1.00401 0.63832 0.7506 0.0
C279 C 0.04181 0.61816 0.76082 0.0
C280 C 0.94029 0.52218 0.73764 0.0
N281 N 0.91664 0.52392 0.74902 0.0
C282 C 0.88857 0.47303 0.75519 0.0
C283 C 0.89095 0.49997 0.75729 0.0
C284 C 0.9129 0.47068 0.74483 0.0
C285 C 0.939 0.49586 0.73593 0.0
H286 H 0.96032 0.54134 0.73006 0.0
H287 H 0.87223 0.50164 0.7654 0.0
C288 C 0.96762 0.64119 0.90666 0.0
N289 N 0.96807 0.62031 0.87546 0.0
C290 C 0.98264 0.64999 0.95795 0.0
C291 C 0.99877 0.61624 0.94269 0.0
C292 C 0.98318 0.60784 0.89263 0.0
C293 C 0.9983 0.63722 0.97696 0.0
H294 H 0.9552 0.6506 0.89232 0.0
H295 H 0.98287 0.59099 0.86763 0.0
C296 C 0.89347 0.54842 0.65905 0.0
N297 N 0.86445 0.4962 0.60541 0.0
C298 C 0.90734 0.54064 0.61906 0.0
C299 C 0.86481 0.52967 0.67165 0.0
C300 C 0.89232 0.51412 0.5925 0.0
C301 C 0.85051 0.50338 0.64402 0.0
C302 C 0.93881 0.65306 0.73661 0.0
C303 C 0.92004 0.65133 0.6942 0.0
C304 C 0.95857 0.67963 0.75881 0.0
C305 C 0.92143 0.67631 0.6745 0.0
C306 C 0.95933 0.70412 0.7379 0.0
N307 N 0.94089 0.70197 0.69655 0.0
C308 C 0.85787 0.60023 0.80192 0.0
C309 C 0.85019 0.58611 0.70576 0.0
C310 C 0.83261 0.60132 0.80311 0.0
N311 N 0.86605 0.59258 0.75379 0.0
C312 C 0.82471 0.58672 0.70514 0.0
C313 C 0.81548 0.59434 0.75432 0.0
H314 H 0.87101 0.60548 0.83941 0.0
H315 H 0.85733 0.58042 0.6678 0.0
C316 C 0.98163 0.60825 0.61536 0.0
N317 N 0.96867 0.62257 0.63463 0.0
C318 C 0.99691 0.61614 0.56488 0.0
C319 C 0.98566 0.65378 0.55448 0.0
C320 C 0.97069 0.64524 0.60571 0.0
C321 C 0.99868 0.63885 0.53297 0.0
H322 H 0.97969 0.59026 0.63893 0.0
H323 H 0.96034 0.65642 0.62147 0.0
O324 O 0.90765 0.5728 0.81898 0.0
O325 O 0.96464 0.59008 0.75325 0.0
O326 O 0.90793 0.57412 0.68614 0.0
O327 O 0.93751 0.62888 0.75737 0.0
H328 H 0.93174 0.54979 0.88063 0.0
H329 H 0.85168 0.5403 0.82566 0.0
H330 H 0.90522 0.50484 0.93527 0.0
H331 H 0.82654 0.49554 0.88142 0.0
H332 H 0.04181 0.67974 0.74907 0.0
H333 H 1.00494 0.57623 0.76305 0.0
H334 H 0.98982 0.64677 0.74648 0.0
H335 H 0.05678 0.61056 0.76496 0.0
H336 H 0.86784 0.45432 0.76133 0.0
H337 H 0.95853 0.49545 0.72877 0.0
H338 H 0.98137 0.66605 0.98299 0.0
H339 H 0.01098 0.60618 0.95436 0.0
H340 H 0.9295 0.55482 0.60888 0.0
H341 H 0.85386 0.53508 0.70326 0.0
H342 H 0.90284 0.50777 0.56166 0.0
H343 H 0.82838 0.4886 0.65363 0.0
H344 H 0.90497 0.631 0.67593 0.0
H345 H 0.97315 0.68128 0.79188 0.0
H346 H 0.90713 0.67531 0.64148 0.0
H347 H 0.97455 0.72484 0.75461 0.0
H348 H 0.82674 0.6078 0.84178 0.0
H349 H 0.81219 0.58081 0.66669 0.0
H350 H 0.00712 0.60438 0.55094 0.0
H351 H 0.98633 0.67133 0.53127 0.0
Li352 Li 0.34504 0.94475 0.30848 0.0
Li353 Li 0.364 0.91918 0.25465 0.0
Li354 Li 0.3443 0.94464 0.20333 0.0
Li355 Li 0.3119 0.8991 0.25437 0.0
C356 C 0.39139 0.9897 0.25653 0.0
N357 N 0.41881 0.04851 0.25921 0.0
C358 C 0.42111 0.0056 0.2592 0.0
C359 C 0.3756 1.00368 0.25528 0.0
C360 C 0.43459 0.03533 0.26051 0.0
C361 C 0.38986 0.03343 0.25665 0.0
C362 C 0.34164 0.88736 0.35361 0.0
C363 C 0.33494 0.84078 0.37388 0.0
N364 N 0.35056 0.8512 0.42197 0.0
C365 C 0.35731 0.89753 0.40358 0.0
C366 C 0.33008 0.85871 0.33888 0.0
C367 C 0.36173 0.87895 0.43743 0.0
C368 C 0.33035 0.96756 0.40553 0.0
N369 N 0.35127 0.9661 0.37653 0.0
C370 C 0.38573 0.99467 0.44618 0.0
C371 C 0.37851 0.97925 0.39588 0.0
C372 C 0.36461 0.99613 0.47821 0.0
C373 C 0.33658 0.98253 0.45685 0.0
H374 H 0.30878 0.9567 0.38938 0.0
H375 H 0.39468 0.97744 0.37244 0.0
C376 C 0.40325 0.90141 0.21271 0.0
N377 N 0.39547 0.91206 0.25706 0.0
C378 C 0.42793 0.89937 0.21554 0.0
C379 C 0.43661 0.91973 0.30923 0.0
C380 C 0.41171 0.92128 0.30464 0.0
C381 C 0.44518 0.90892 0.26401 0.0
H382 H 0.39118 0.89552 0.17408 0.0
H383 H 0.40583 0.93077 0.33842 0.0
C384 C 0.29084 0.94008 0.2361 0.0
N385 N 0.24663 0.94629 0.19429 0.0
C386 C 0.27182 0.92057 0.1968 0.0
C387 C 0.28729 0.96263 0.25442 0.0
C388 C 0.24962 0.9241 0.17611 0.0
C389 C 0.26485 0.96545 0.23266 0.0
C390 C 0.34062 0.88932 0.14972 0.0
C391 C 0.35132 0.9004 0.09612 0.0
C392 C 0.33349 0.86133 0.16261 0.0
C393 C 0.35481 0.88331 0.05635 0.0
C394 C 0.33729 0.84492 0.12168 0.0
N395 N 0.34779 0.85617 0.06985 0.0
C396 C 0.3782 0.98107 0.11802 0.0
C397 C 0.32964 0.96696 0.1044 0.0
C398 C 0.38565 0.9966 0.0678 0.0
N399 N 0.35062 0.96671 0.13559 0.0
C400 C 0.3361 0.98194 0.05322 0.0
C401 C 0.36445 0.99688 0.03395 0.0
H402 H 0.39447 0.98 0.14254 0.0
H403 H 0.3078 0.95505 0.11817 0.0
C404 C 0.25876 0.85844 0.30145 0.0
N405 N 0.27542 0.86515 0.25461 0.0
C406 C 0.2321 0.83356 0.30282 0.0
C407 C 0.24037 0.82292 0.20786 0.0
C408 C 0.26657 0.8482 0.208 0.0
C409 C 0.2226 0.81514 0.25574 0.0
H410 H 0.26619 0.87249 0.33773 0.0
H411 H 0.27982 0.85431 0.17071 0.0
O412 O 0.37794 0.96057 0.25541 0.0
O413 O 0.33692 0.90519 0.32019 0.0
O414 O 0.31234 0.93669 0.25794 0.0
O415 O 0.33705 0.90579 0.18907 0.0
H416 H 0.43361 0.99505 0.26029 0.0
H417 H 0.3526 0.99172 0.25319 0.0
H418 H 0.45758 0.04792 0.26257 0.0
H419 H 0.37791 0.04453 0.25566 0.0
H420 H 0.32619 0.81856 0.36292 0.0
H421 H 0.36609 0.91959 0.41595 0.0
H422 H 0.31731 0.85034 0.30113 0.0
H423 H 0.37398 0.88657 0.47603 0.0
H424 H 0.40775 0.00526 0.4598 0.0
H425 H 0.31952 0.98281 0.48013 0.0
H426 H 0.43411 0.89159 0.17908 0.0
H427 H 0.44928 0.92739 0.3474 0.0
H428 H 0.27447 0.90324 0.18157 0.0
H429 H 0.3017 0.97777 0.28524 0.0
H430 H 0.23484 0.90926 0.14541 0.0
H431 H 0.26187 0.98284 0.24637 0.0
H432 H 0.35685 0.92196 0.08528 0.0
H433 H 0.32524 0.85241 0.20381 0.0
H434 H 0.36309 0.89163 0.01474 0.0
H435 H 0.33193 0.82327 0.13116 0.0
H436 H 0.40788 0.00813 0.05563 0.0
H437 H 0.31892 0.98113 0.02838 0.0
H438 H 0.21907 0.829 0.34033 0.0
H439 H 0.23444 0.80946 0.17074 0.0
Li440 Li 0.44754 0.36137 0.754 0.0
Li441 Li 0.40394 0.34339 0.80723 0.0
Li442 Li 0.41715 0.31007 0.75456 0.0
Li443 Li 0.40422 0.34253 0.70204 0.0
C444 C 0.45714 0.34249 0.85722 0.0
N445 N 0.50103 0.35688 0.93307 0.0
C446 C 0.4659 0.36599 0.89286 0.0
C447 C 0.47052 0.32617 0.86035 0.0
C448 C 0.4882 0.37297 0.93084 0.0
C449 C 0.49272 0.33383 0.89895 0.0
C450 C 0.40414 0.38846 0.75332 0.0
C451 C 0.35796 0.38492 0.75151 0.0
N452 N 0.37079 0.41384 0.75279 0.0
C453 C 0.41687 0.41815 0.75463 0.0
C454 C 0.37444 0.37169 0.75177 0.0
C455 C 0.39964 0.43057 0.75433 0.0
C456 C 0.48914 0.416 0.72364 0.0
N457 N 0.48616 0.39275 0.75169 0.0
C458 C 0.53586 0.41744 0.77461 0.0
C459 C 0.50901 0.39281 0.77581 0.0
C460 C 0.53931 0.44197 0.74717 0.0
C461 C 0.51562 0.44088 0.72061 0.0
H462 H 0.47079 0.41528 0.70389 0.0
H463 H 0.50656 0.3739 0.79612 0.0
C464 C 0.36729 0.32832 0.90594 0.0
N465 N 0.38837 0.34961 0.87503 0.0
C466 C 0.35846 0.33452 0.95724 0.0
C467 C 0.39259 0.38432 0.94261 0.0
C468 C 0.40095 0.37716 0.89243 0.0
C469 C 0.37145 0.36289 0.97663 0.0
H470 H 0.35777 0.30651 0.89144 0.0
H471 H 0.41798 0.39368 0.86773 0.0
C472 C 0.46169 0.34564 0.66298 0.0
N473 N 0.51526 0.36957 0.61505 0.0
C474 C 0.46915 0.36518 0.61869 0.0
C475 C 0.48138 0.33816 0.68277 0.0
C476 C 0.49638 0.37708 0.59506 0.0
C477 C 0.50837 0.35051 0.65798 0.0
C478 C 0.35516 0.28873 0.73486 0.0
C479 C 0.35596 0.26994 0.69539 0.0
C480 C 0.32891 0.28474 0.75336 0.0
C481 C 0.33039 0.24754 0.67462 0.0
C482 C 0.30381 0.26211 0.73151 0.0
N483 N 0.30506 0.24414 0.69293 0.0
C484 C 0.40579 0.257 0.80188 0.0
C485 C 0.42356 0.26548 0.7081 0.0
C486 C 0.40492 0.23075 0.80277 0.0
N487 N 0.41515 0.27379 0.75509 0.0
C488 C 0.42308 0.23946 0.70715 0.0
C489 C 0.41379 0.22168 0.75501 0.0
H490 H 0.39913 0.2641 0.8386 0.0
H491 H 0.43078 0.27917 0.67132 0.0
C492 C 0.40262 0.37615 0.61537 0.0
N493 N 0.38869 0.3487 0.63377 0.0
C494 C 0.39462 0.38372 0.56517 0.0
C495 C 0.35831 0.33452 0.55232 0.0
C496 C 0.36678 0.32795 0.60348 0.0
C497 C 0.37243 0.36276 0.5322 0.0
H498 H 0.42033 0.39223 0.63945 0.0
H499 H 0.35616 0.30622 0.61808 0.0
O500 O 0.43517 0.33507 0.82021 0.0
O501 O 0.42086 0.37609 0.75356 0.0
O502 O 0.43547 0.33441 0.68781 0.0
O503 O 0.37989 0.31046 0.75665 0.0
H504 H 0.45575 0.37882 0.8909 0.0
H505 H 0.46392 0.30787 0.83309 0.0
H506 H 0.49531 0.39117 0.95854 0.0
H507 H 0.50335 0.32146 0.90174 0.0
H508 H 0.33496 0.37219 0.75027 0.0
H509 H 0.43983 0.43145 0.75599 0.0
H510 H 0.3642 0.34875 0.75063 0.0
H511 H 0.40921 0.45352 0.75536 0.0
H512 H 0.55373 0.41733 0.79491 0.0
H513 H 0.51733 0.45935 0.69923 0.0
H514 H 0.34225 0.31721 0.98207 0.0
H515 H 0.40284 0.40656 0.95465 0.0
H516 H 0.45418 0.37126 0.60306 0.0
H517 H 0.47603 0.32334 0.71753 0.0
H518 H 0.50252 0.39234 0.56094 0.0
H519 H 0.52391 0.34508 0.6731 0.0
H520 H 0.37607 0.2729 0.68016 0.0
H521 H 0.32794 0.29893 0.78438 0.0
H522 H 0.33068 0.23293 0.64379 0.0
H523 H 0.28334 0.2588 0.74533 0.0
H524 H 0.39722 0.21763 0.84036 0.0
H525 H 0.43046 0.23363 0.66964 0.0
H526 H 0.40586 0.40588 0.55247 0.0
H527 H 0.34136 0.31749 0.52824 0.0
Li528 Li 0.60788 0.94399 0.30856 0.0
Li529 Li 0.59414 0.89838 0.25612 0.0
Li530 Li 0.60753 0.94495 0.20348 0.0
Li531 Li 0.56448 0.92001 0.25774 0.0
C532 C 0.6563 0.93835 0.27445 0.0
N533 N 0.70626 0.94297 0.315 0.0
C534 C 0.65538 0.91907 0.31481 0.0
C535 C 0.68259 0.95987 0.25442 0.0
C536 C 0.68088 0.92178 0.33484 0.0
C537 C 0.70763 0.96191 0.27557 0.0
C538 C 0.55034 0.88986 0.34857 0.0
C539 C 0.5042 0.84748 0.35602 0.0
N540 N 0.49699 0.86016 0.39743 0.0
C541 C 0.54255 0.90244 0.39134 0.0
C542 C 0.53107 0.86216 0.33076 0.0
C543 C 0.51544 0.88708 0.41545 0.0
C544 C 0.60963 0.97895 0.39523 0.0
N545 N 0.62372 0.96563 0.37661 0.0
C546 C 0.65415 0.98186 0.45795 0.0
C547 C 0.64578 0.96695 0.40664 0.0
C548 C 0.63976 0.99565 0.4784 0.0
C549 C 0.6175 0.99436 0.44558 0.0
H550 H 0.59187 0.97726 0.37121 0.0
H551 H 0.65658 0.95606 0.39173 0.0
C552 C 0.6043 0.85615 0.20759 0.0
N553 N 0.59601 0.86403 0.25529 0.0
C554 C 0.60534 0.83085 0.20649 0.0
C555 C 0.58952 0.82241 0.30373 0.0
C556 C 0.58883 0.84784 0.30295 0.0
C557 C 0.59776 0.81348 0.25499 0.0
H558 H 0.61003 0.86951 0.17035 0.0
H559 H 0.58247 0.85468 0.34045 0.0
C560 C 0.609 0.99039 0.25734 0.0
N561 N 0.64394 0.04895 0.25662 0.0
C562 C 0.59719 0.00816 0.25462 0.0
C563 C 0.63861 1.00246 0.25962 0.0
C564 C 0.6152 0.03769 0.2543 0.0
C565 C 0.65589 0.03209 0.25925 0.0
C566 C 0.55288 0.89178 0.15592 0.0
C567 C 0.54358 0.90731 0.12408 0.0
C568 C 0.53882 0.8621 0.15125 0.0
C569 C 0.52006 0.8928 0.0884 0.0
C570 C 0.51541 0.84838 0.11501 0.0
N571 N 0.50658 0.86389 0.08465 0.0
C572 C 0.64381 0.96606 0.10426 0.0
C573 C 0.61057 0.98175 0.1185 0.0
C574 C 0.65257 0.98104 0.05292 0.0
N575 N 0.62298 0.96655 0.13556 0.0
C576 C 0.61889 0.99725 0.06832 0.0
C577 C 0.63977 0.99667 0.03392 0.0
H578 H 0.65317 0.95358 0.1185 0.0
H579 H 0.59376 0.98148 0.14353 0.0
C580 C 0.5237 0.93493 0.284 0.0
N581 N 0.526 0.91318 0.26094 0.0
C582 C 0.49735 0.93362 0.28667 0.0
C583 C 0.47575 0.88702 0.24348 0.0
C584 C 0.50257 0.88915 0.24204 0.0
C585 C 0.47297 0.90962 0.26544 0.0
H586 H 0.54247 0.9535 0.30003 0.0
H587 H 0.50458 0.87165 0.22571 0.0
O588 O 0.63162 0.93579 0.25338 0.0
O589 O 0.57647 0.90482 0.32337 0.0
O590 O 0.59148 0.96139 0.25758 0.0
O591 O 0.57593 0.90552 0.19082 0.0
H592 H 0.63524 0.90253 0.33127 0.0
H593 H 0.68364 0.97482 0.22278 0.0
H594 H 0.6805 0.9071 0.36633 0.0
H595 H 0.72814 0.97849 0.26055 0.0
H596 H 0.489 0.8261 0.34242 0.0
H597 H 0.55718 0.9239 0.40544 0.0
H598 H 0.53663 0.85227 0.2971 0.0
H599 H 0.50906 0.89659 0.44841 0.0
H600 H 0.67121 0.98193 0.4819 0.0
H601 H 0.6061 0.00508 0.45856 0.0
H602 H 0.61221 0.8251 0.16818 0.0
H603 H 0.58313 0.80963 0.34186 0.0
H604 H 0.57433 0.99923 0.25251 0.0
H605 H 0.6482 0.98919 0.26185 0.0
H606 H 0.60633 0.05167 0.25216 0.0
H607 H 0.67883 0.04167 0.26107 0.0
H608 H 0.55422 0.93028 0.12734 0.0
H609 H 0.54583 0.8498 0.17557 0.0
H610 H 0.5125 0.90452 0.06374 0.0
H611 H 0.50424 0.82542 0.11108 0.0
H612 H 0.66856 0.97972 0.02778 0.0
H613 H 0.60881 0.00944 0.05657 0.0
H614 H 0.49629 0.95163 0.30367 0.0
H615 H 0.4574 0.8679 0.22759 0.0
Li616 Li 0.66804 0.60585 0.80687 0.0
Li617 Li 0.70011 0.59232 0.75559 0.0
Li618 Li 0.66745 0.60569 0.70182 0.0
Li619 Li 0.64784 0.56059 0.75509 0.0
C620 C 0.72161 0.65448 0.77556 0.0
N621 N 0.76535 0.70442 0.82003 0.0
C622 C 0.74052 0.65359 0.81462 0.0
C623 C 0.72504 0.68076 0.75882 0.0
C624 C 0.76248 0.67908 0.83667 0.0
C625 C 0.74725 0.70577 0.78192 0.0
C626 C 0.67095 0.55333 0.85889 0.0
C627 C 0.67134 0.51023 0.88276 0.0
N628 N 0.66262 0.51155 0.93607 0.0
C629 C 0.6621 0.55432 0.91396 0.0
C630 C 0.67571 0.53118 0.84316 0.0
C631 C 0.65797 0.53297 0.95234 0.0
C632 C 0.63413 0.60748 0.89295 0.0
N633 N 0.66163 0.62136 0.8749 0.0
C634 C 0.67566 0.65148 0.95673 0.0
C635 C 0.68234 0.64311 0.90559 0.0
C636 C 0.64736 0.63743 0.97646 0.0
C637 C 0.62645 0.6154 0.94312 0.0
H638 H 0.61809 0.58982 0.8687 0.0
H639 H 0.70413 0.65364 0.89137 0.0
C640 C 0.75245 0.60222 0.70805 0.0
N641 N 0.73611 0.59367 0.75549 0.0
C642 C 0.77861 0.6029 0.70684 0.0
C643 C 0.77062 0.58598 0.80332 0.0
C644 C 0.74476 0.58582 0.80277 0.0
C645 C 0.78801 0.59454 0.75487 0.0
H646 H 0.74511 0.60847 0.6711 0.0
H647 H 0.7316 0.57946 0.84024 0.0
C648 C 0.62101 0.60423 0.7544 0.0
N649 N 0.59372 0.63577 0.75346 0.0
C650 C 0.59127 0.5905 0.75304 0.0
C651 C 0.63689 0.63399 0.75528 0.0
C652 C 0.57786 0.60683 0.75258 0.0
C653 C 0.62269 0.64956 0.75479 0.0
C654 C 0.67258 0.5534 0.65293 0.0
C655 C 0.65942 0.55031 0.60048 0.0
C656 C 0.68427 0.53627 0.66635 0.0
C657 C 0.65767 0.52965 0.56273 0.0
C658 C 0.68212 0.51587 0.62743 0.0
N659 N 0.66894 0.51299 0.57689 0.0
C660 C 0.68224 0.64309 0.60434 0.0
C661 C 0.63396 0.60709 0.61483 0.0
C662 C 0.67597 0.65179 0.55298 0.0
N663 N 0.66128 0.62095 0.63377 0.0
C664 C 0.62671 0.61525 0.5645 0.0
C665 C 0.64786 0.63755 0.53201 0.0
H666 H 0.70388 0.65363 0.62015 0.0
H667 H 0.61775 0.58929 0.63855 0.0
C668 C 0.60629 0.5062 0.80127 0.0
N669 N 0.61644 0.52207 0.75333 0.0
C670 C 0.58176 0.47934 0.7996 0.0
C671 C 0.57784 0.48582 0.69963 0.0
C672 C 0.60265 0.51242 0.70311 0.0
C673 C 0.56701 0.46902 0.74844 0.0
H674 H 0.61639 0.51468 0.84141 0.0
H675 H 0.61029 0.52583 0.66607 0.0
O676 O 0.70031 0.62986 0.75253 0.0
O677 O 0.67477 0.5739 0.82067 0.0
O678 O 0.6344 0.58848 0.75484 0.0
O679 O 0.67489 0.57385 0.68996 0.0
H680 H 0.73795 0.63346 0.82861 0.0
H681 H 0.71074 0.68181 0.72818 0.0
H682 H 0.77716 0.6787 0.8672 0.0
H683 H 0.75013 0.72627 0.76945 0.0
H684 H 0.67483 0.49291 0.87109 0.0
H685 H 0.65839 0.57135 0.92692 0.0
H686 H 0.68251 0.53006 0.80078 0.0
H687 H 0.65105 0.53343 0.99506 0.0
H688 H 0.69266 0.66829 0.98112 0.0
H689 H 0.60425 0.60419 0.95554 0.0
H690 H 0.7914 0.61013 0.66878 0.0
H691 H 0.77663 0.57899 0.84113 0.0
H692 H 0.57871 0.56745 0.75232 0.0
H693 H 0.65989 0.64495 0.75641 0.0
H694 H 0.55485 0.59649 0.75152 0.0
H695 H 0.63471 0.67261 0.75548 0.0
H696 H 0.65057 0.56365 0.58915 0.0
H697 H 0.69516 0.53887 0.70608 0.0
H698 H 0.64741 0.52691 0.52212 0.0
H699 H 0.69104 0.50243 0.63731 0.0
H700 H 0.69307 0.66892 0.52936 0.0
H701 H 0.60464 0.60399 0.5512 0.0
H702 H 0.57368 0.46737 0.83848 0.0
H703 H 0.56695 0.47871 0.65941 0.0
Li704 Li 0.11084 0.69873 0.25693 0.0
Li705 Li 0.06515 0.66545 0.30721 0.0
Li706 Li 0.09123 0.64723 0.25577 0.0
Li707 Li 0.06534 0.66492 0.20186 0.0
C708 C 0.11874 0.66694 0.36098 0.0
N709 N 0.1477 0.65406 0.44118 0.0
C710 C 0.10373 0.64688 0.40315 0.0
C711 C 0.1485 0.68044 0.35958 0.0
C712 C 0.11876 0.64065 0.44329 0.0
C713 C 0.16274 0.67365 0.40053 0.0
C714 C 0.06626 0.71722 0.27143 0.0
C715 C 0.03572 0.73777 0.27025 0.0
N716 N 0.05352 0.75813 0.3073 0.0
C717 C 0.08438 0.7385 0.30905 0.0
C718 C 0.04186 0.71698 0.25141 0.0
C719 C 0.07752 0.75893 0.32687 0.0
C720 C 0.15367 0.74998 0.20818 0.0
N721 N 0.14426 0.73545 0.25762 0.0
C722 C 0.18406 0.77238 0.30732 0.0
C723 C 0.15857 0.74632 0.30686 0.0
C724 C 0.19474 0.78782 0.25672 0.0
C725 C 0.1788 0.77638 0.20681 0.0
H726 H 0.1417 0.74092 0.1697 0.0
H727 H 0.15037 0.73455 0.34581 0.0
C728 C 0.02686 0.63157 0.39114 0.0
N729 N 0.04309 0.65925 0.37503 0.0
C730 C 0.01162 0.62454 0.44167 0.0
C731 C 0.03022 0.67465 0.45944 0.0
C732 C 0.04502 0.68073 0.40806 0.0
C733 C 0.01346 0.64619 0.47719 0.0
H734 H 0.02636 0.61482 0.36556 0.0
H735 H 0.05867 0.7026 0.39565 0.0
C736 C 0.12215 0.66531 0.16397 0.0
N737 N 0.1553 0.64607 0.11322 0.0
C738 C 0.11174 0.64705 0.11737 0.0
C739 C 0.14948 0.674 0.18451 0.0
C740 C 0.12882 0.6375 0.09237 0.0
C741 C 0.16589 0.66398 0.15833 0.0
C742 C 0.02067 0.61771 0.25268 0.0
C743 C 1.00582 0.58807 0.24691 0.0
C744 C 1.00563 0.6324 0.25594 0.0
C745 C 0.97608 0.5736 0.24435 0.0
C746 C 0.9759 0.61717 0.25327 0.0
N747 N 0.96185 0.58833 0.24755 0.0
C748 C 0.11753 0.6126 0.2844 0.0
C749 C 0.08131 0.59547 0.21484 0.0
C750 C 0.11852 0.58731 0.2818 0.0
N751 N 0.09857 0.61593 0.25219 0.0
C752 C 0.08199 0.57016 0.21 0.0
C753 C 0.10018 0.56535 0.24494 0.0
H754 H 0.13147 0.62907 0.31314 0.0
H755 H 0.06664 0.59871 0.18919 0.0
C756 C 0.04201 0.67925 0.10505 0.0
N757 N 0.04389 0.65851 0.13385 0.0
C758 C 0.02687 0.67286 0.05391 0.0
C759 C 0.01542 0.6239 0.06434 0.0
C760 C 0.03105 0.6313 0.11438 0.0
C761 C 0.01351 0.64483 0.03253 0.0
H762 H 0.05267 0.70083 0.12121 0.0
H763 H 0.03322 0.61529 0.13753 0.0
O764 O 0.10445 0.67378 0.32205 0.0
O765 O 0.07287 0.69733 0.25264 0.0
O766 O 0.10554 0.67435 0.18989 0.0
O767 O 0.04982 0.63216 0.25479 0.0
H768 H 0.08074 0.63619 0.40484 0.0
H769 H 0.16049 0.6957 0.32681 0.0
H770 H 0.10741 0.62516 0.47615 0.0
H771 H 0.18575 0.68387 0.39984 0.0
H772 H 0.01686 0.73779 0.25526 0.0
H773 H 0.10331 0.73898 0.32502 0.0
H774 H 0.02785 0.70098 0.22144 0.0
H775 H 0.09125 0.77538 0.35633 0.0
H776 H 0.19552 0.77991 0.34682 0.0
H777 H 0.18559 0.78762 0.16694 0.0
H778 H 0.99872 0.60227 0.45296 0.0
H779 H 0.03265 0.69209 0.48577 0.0
H780 H 0.09061 0.64015 0.10105 0.0
H781 H 0.1578 0.68816 0.22054 0.0
H782 H 0.121 0.62323 0.05647 0.0
H783 H 0.18703 0.67039 0.17392 0.0
H784 H 0.01717 0.57638 0.24436 0.0
H785 H 0.01677 0.65526 0.26079 0.0
H786 H 0.9643 0.55066 0.23982 0.0
H787 H 0.96399 0.62828 0.25579 0.0
H788 H 0.13283 0.58471 0.3099 0.0
H789 H 0.06803 0.5544 0.17961 0.0
H790 H 0.02629 0.68981 0.0308 0.0
H791 H 1.00502 0.60188 0.05078 0.0
Li792 Li 0.41766 0.10936 0.7563 0.0
Li793 Li 0.40391 0.06373 0.80866 0.0
Li794 Li 0.44731 0.08772 0.75789 0.0
Li795 Li 0.40429 0.06282 0.70357 0.0
C796 C 0.46143 0.11785 0.84877 0.0
N797 N 0.51476 0.14758 0.89772 0.0
C798 C 0.46927 0.10523 0.89136 0.0
C799 C 0.48064 0.14562 0.83119 0.0
C800 C 0.49636 0.1206 0.91552 0.0
C801 C 0.50751 0.1603 0.85648 0.0
C802 C 0.35546 0.06934 0.77438 0.0
C803 C 0.30413 0.04574 0.77511 0.0
N804 N 0.3054 0.06462 0.81457 0.0
C805 C 0.35628 0.08857 0.81476 0.0
C806 C 0.32922 0.04783 0.75414 0.0
C807 C 0.33073 0.08581 0.83462 0.0
C808 C 0.40767 0.15169 0.70775 0.0
N809 N 0.41577 0.14369 0.75555 0.0
C810 C 0.422 0.18516 0.80423 0.0
C811 C 0.42274 0.15975 0.80337 0.0
C812 C 0.41394 0.19421 0.75539 0.0
C813 C 0.4066 0.17697 0.70672 0.0
H814 H 0.40212 0.13844 0.67038 0.0
H815 H 0.42896 0.15283 0.84094 0.0
C816 C 0.40208 0.0287 0.89524 0.0
N817 N 0.38806 0.04209 0.87669 0.0
C818 C 0.39421 0.01329 0.94559 0.0
C819 C 0.3577 0.02596 0.95811 0.0
C820 C 0.36607 0.04086 0.90681 0.0
C821 C 0.37202 0.01209 0.97849 0.0
H822 H 0.4198 0.03032 0.87117 0.0
H823 H 0.35533 0.05183 0.89196 0.0
C824 C 0.459 0.11601 0.65622 0.0
N825 N 0.50541 0.1439 0.58523 0.0
C826 C 0.46832 0.10047 0.62444 0.0
C827 C 0.4731 0.14569 0.65163 0.0
C828 C 0.4919 0.11499 0.58891 0.0
C829 C 0.49656 0.15941 0.61553 0.0
C830 C 0.40277 0.01733 0.75733 0.0
C831 C 0.41455 0.99955 0.75443 0.0
C832 C 0.37316 0.0053 0.75972 0.0
C833 C 0.39651 0.97002 0.75403 0.0
C834 C 0.35585 0.97567 0.75926 0.0
N835 N 0.36778 0.95879 0.75645 0.0
C836 C 0.48808 0.07273 0.78382 0.0
C837 C 0.50924 0.11866 0.74255 0.0
C838 C 0.51442 0.07404 0.78645 0.0
N839 N 0.4858 0.09456 0.76111 0.0
C840 C 0.53607 0.12081 0.744 0.0
C841 C 0.53884 0.09814 0.76559 0.0
H842 H 0.46929 0.0541 0.7996 0.0
H843 H 0.50724 0.13622 0.72649 0.0
C844 C 0.368 0.04172 0.60435 0.0
N845 N 0.38884 0.04124 0.63562 0.0
C846 C 0.35924 0.02675 0.55301 0.0
C847 C 0.39294 0.01057 0.56834 0.0
C848 C 0.40126 0.02606 0.61853 0.0
C849 C 0.37205 0.01113 0.53398 0.0
H850 H 0.35862 0.05419 0.61862 0.0
H851 H 0.41809 0.02634 0.64354 0.0
O852 O 0.43531 0.10289 0.82353 0.0
O853 O 0.3802 0.07196 0.75348 0.0
O854 O 0.4359 0.10226 0.69097 0.0
O855 O 0.42031 0.04634 0.75765 0.0
H856 H 0.45469 0.08372 0.90528 0.0
H857 H 0.47504 0.15554 0.79768 0.0
H858 H 0.50279 0.11105 0.94833 0.0
H859 H 0.52266 0.18174 0.84306 0.0
H860 H 0.28366 0.02916 0.75993 0.0
H861 H 0.37638 0.1051 0.83139 0.0
H862 H 0.32825 0.03293 0.72247 0.0
H863 H 0.33103 0.10044 0.86612 0.0
H864 H 0.4282 0.19784 0.8425 0.0
H865 H 0.39989 0.18282 0.66832 0.0
H866 H 0.40556 1.00251 0.95851 0.0
H867 H 0.34069 0.02597 0.98213 0.0
H868 H 0.45766 0.0775 0.62764 0.0
H869 H 0.46606 0.15799 0.6759 0.0
H870 H 0.49948 0.10327 0.5643 0.0
H871 H 0.50776 0.18238 0.61167 0.0
H872 H 0.4374 0.00846 0.75223 0.0
H873 H 0.36359 0.01858 0.76209 0.0
H874 H 0.40536 0.95602 0.75175 0.0
H875 H 0.33292 0.9661 0.76116 0.0
H876 H 0.51546 0.05597 0.80316 0.0
H877 H 0.55443 0.14 0.72839 0.0
H878 H 0.34323 0.02806 0.52788 0.0
H879 H 0.40303 0.99839 0.55657 0.0
Li880 Li 0.34382 0.40199 0.30744 0.0
Li881 Li 0.31151 0.41533 0.25647 0.0
Li882 Li 0.34436 0.40226 0.20231 0.0
Li883 Li 0.36373 0.44721 0.25568 0.0
C884 C 0.29046 0.35305 0.27565 0.0
N885 N 0.24704 0.30259 0.31906 0.0
C886 C 0.27127 0.35343 0.31467 0.0
C887 C 0.28746 0.32702 0.25837 0.0
C888 C 0.24949 0.32768 0.3362 0.0
C889 C 0.26542 0.30173 0.28095 0.0
C890 C 0.34003 0.45396 0.36002 0.0
C891 C 0.33722 0.49561 0.38537 0.0
N892 N 0.3467 0.49476 0.43821 0.0
C893 C 0.34966 0.45343 0.41463 0.0
C894 C 0.33368 0.47516 0.34526 0.0
C895 C 0.35291 0.47427 0.45353 0.0
C896 C 0.37789 0.40018 0.39315 0.0
N897 N 0.35034 0.38651 0.37543 0.0
C898 C 0.33626 0.35661 0.45759 0.0
C899 C 0.32958 0.36499 0.40647 0.0
C900 C 0.36463 0.37043 0.47696 0.0
C901 C 0.38558 0.39225 0.44331 0.0
H902 H 0.39398 0.41769 0.36869 0.0
H903 H 0.30774 0.35467 0.39256 0.0
C904 C 0.25957 0.40614 0.20842 0.0
N905 N 0.27539 0.41373 0.25655 0.0
C906 C 0.23339 0.40543 0.20708 0.0
C907 C 0.24031 0.42036 0.30484 0.0
C908 C 0.26617 0.42051 0.30442 0.0
C909 C 0.22346 0.41282 0.25567 0.0
H910 H 0.26734 0.4007 0.17101 0.0
H911 H 0.2789 0.42608 0.34243 0.0
C912 C 0.39095 0.40391 0.25451 0.0
N913 N 0.41854 0.37267 0.25293 0.0
C914 C 0.42068 0.4178 0.25249 0.0
C915 C 0.37523 0.37415 0.25571 0.0
C916 C 0.43425 0.40163 0.25172 0.0
C917 C 0.38958 0.35873 0.25489 0.0
C918 C 0.34009 0.45525 0.15469 0.0
C919 C 0.35444 0.45923 0.1034 0.0
C920 C 0.32847 0.47245 0.1681 0.0
C921 C 0.35744 0.48082 0.06683 0.0
C922 C 0.3319 0.49379 0.13039 0.0
N923 N 0.34622 0.49752 0.08098 0.0
C924 C 0.3296 0.36484 0.10487 0.0
C925 C 0.37785 0.40097 0.11512 0.0
C926 C 0.33586 0.35614 0.0535 0.0
N927 N 0.35056 0.38705 0.13419 0.0
C928 C 0.3851 0.39279 0.06479 0.0
C929 C 0.36395 0.37042 0.03242 0.0
H930 H 0.30798 0.35426 0.12076 0.0
H931 H 0.39405 0.41881 0.13876 0.0
C932 C 0.40396 0.50301 0.29975 0.0
N933 N 0.39511 0.48576 0.25345 0.0
C934 C 0.42862 0.52977 0.29751 0.0
C935 C 0.43511 0.52048 0.20037 0.0
C936 C 0.41022 0.49399 0.20438 0.0
C937 C 0.44476 0.53865 0.24756 0.0
H938 H 0.39275 0.49577 0.33927 0.0
H939 H 0.40352 0.47951 0.16888 0.0
O940 O 0.31158 0.37795 0.25312 0.0
O941 O 0.33693 0.43381 0.32138 0.0
O942 O 0.3774 0.41951 0.25524 0.0
O943 O 0.33656 0.43392 0.19056 0.0
H944 H 0.27349 0.37336 0.32903 0.0
H945 H 0.30196 0.32636 0.22771 0.0
H946 H 0.23459 0.32766 0.36671 0.0
H947 H 0.26287 0.28143 0.26806 0.0
H948 H 0.33248 0.5122 0.37445 0.0
H949 H 0.35459 0.43714 0.42684 0.0
H950 H 0.32624 0.47589 0.30327 0.0
H951 H 0.36039 0.47415 0.4959 0.0
H952 H 0.31924 0.33998 0.48225 0.0
H953 H 0.40782 0.40327 0.45547 0.0
H954 H 0.22104 0.39898 0.16843 0.0
H955 H 0.23389 0.42658 0.34315 0.0
H956 H 0.43312 0.44085 0.25151 0.0
H957 H 0.35223 0.36307 0.25736 0.0
H958 H 0.45726 0.41208 0.25016 0.0
H959 H 0.37769 0.33569 0.25584 0.0
H960 H 0.36324 0.44585 0.09204 0.0
H961 H 0.31669 0.46919 0.20689 0.0
H962 H 0.36863 0.48425 0.02713 0.0
H963 H 0.32305 0.5073 0.14027 0.0
H964 H 0.31878 0.33895 0.02998 0.0
H965 H 0.40716 0.40409 0.05142 0.0
H966 H 0.43568 0.54279 0.33532 0.0
H967 H 0.44697 0.52645 0.16107 0.0
Li968 Li 0.90091 0.30911 0.75694 0.0
Li969 Li 0.9466 0.34244 0.80719 0.0
Li970 Li 0.92051 0.36059 0.75569 0.0
Li971 Li 0.94639 0.34292 0.70184 0.0
C972 C 0.89316 0.34115 0.86092 0.0
N973 N 0.86453 0.35449 0.94108 0.0
C974 C 0.90835 0.3615 0.90251 0.0
C975 C 0.86338 0.32759 0.86007 0.0
C976 C 0.89349 0.36796 0.94264 0.0
C977 C 0.84932 0.33462 0.90099 0.0
C978 C 0.94549 0.29065 0.77148 0.0
C979 C 0.97599 0.27005 0.77026 0.0
N980 N 0.95821 0.24972 0.80737 0.0
C981 C 0.92738 0.26939 0.80916 0.0
C982 C 0.96987 0.29085 0.75141 0.0
C983 C 0.93424 0.24896 0.82699 0.0
C984 C 0.85818 0.2578 0.70823 0.0
N985 N 0.86751 0.27237 0.75764 0.0
C986 C 0.82768 0.23545 0.80727 0.0
C987 C 0.85315 0.26153 0.80684 0.0
C988 C 0.81708 0.21997 0.75669 0.0
C989 C 0.83307 0.23138 0.70684 0.0
H990 H 0.87019 0.26684 0.66979 0.0
H991 H 0.86131 0.27333 0.84577 0.0
C992 C 0.985 0.37632 0.89103 0.0
N993 N 0.96864 0.34864 0.87504 0.0
C994 C 1.00024 0.38334 0.94156 0.0
C995 C 0.98138 0.33321 0.95959 0.0
C996 C 0.96658 0.32715 0.9082 0.0
C997 C 0.99827 0.36167 0.97721 0.0
H998 H 0.9856 0.39309 0.86537 0.0
H999 H 0.95284 0.30528 0.89589 0.0
C1000 C 0.88955 0.34251 0.66411 0.0
N1001 N 0.85637 0.36185 0.61383 0.0
C1002 C 0.89993 0.36084 0.61762 0.0
C1003 C 0.86225 0.33381 0.6848 0.0
C1004 C 0.88283 0.37044 0.59285 0.0
C1005 C 0.84582 0.34388 0.65885 0.0
C1006 C 0.99108 0.39011 0.7526 0.0
C1007 C 0.00597 0.41976 0.74685 0.0
C1008 C 0.00608 0.37539 0.75585 0.0
C1009 C 0.03571 0.43419 0.74429 0.0
C1010 C 0.03582 0.39058 0.75319 0.0
N1011 N 0.0499 0.41942 0.74748 0.0
C1012 C 0.89399 0.3951 0.78379 0.0
C1013 C 0.9306 0.41244 0.71504 0.0
C1014 C 0.893 0.42039 0.78119 0.0
N1015 N 0.91315 0.39189 0.75203 0.0
C1016 C 0.92994 0.43776 0.7102 0.0
C1017 C 0.91155 0.44246 0.74476 0.0
H1018 H 0.87987 0.37852 0.81215 0.0
H1019 H 0.94539 0.40927 0.68966 0.0
C1020 C 0.9697 0.32855 0.60505 0.0
N1021 N 0.96783 0.3493 0.63383 0.0
C1022 C 0.98482 0.33493 0.55389 0.0
C1023 C 0.99626 0.38389 0.56426 0.0
C1024 C 0.98065 0.3765 0.61432 0.0
C1025 C 0.99817 0.36295 0.53247 0.0
H1026 H 0.95905 0.30698 0.62123 0.0
H1027 H 0.97847 0.39252 0.63746 0.0
O1028 O 0.90728 0.33408 0.82202 0.0
O1029 O 0.93889 0.31054 0.75269 0.0
O1030 O 0.90618 0.33345 0.68985 0.0
O1031 O 0.96192 0.3757 0.75471 0.0
H1032 H 0.93135 0.37225 0.90376 0.0
H1033 H 0.85126 0.31212 0.82772 0.0
H1034 H 0.90498 0.38368 0.97506 0.0
H1035 H 0.82631 0.32436 0.90071 0.0
H1036 H 0.99484 0.27001 0.75523 0.0
H1037 H 0.90847 0.26893 0.82517 0.0
H1038 H 0.98386 0.30682 0.72139 0.0
H1039 H 0.92052 0.23252 0.8565 0.0
H1040 H 0.81618 0.22795 0.84673 0.0
H1041 H 0.82635 0.2201 0.667 0.0
H1042 H 0.01324 0.40561 0.95275 0.0
H1043 H 0.97885 0.31577 0.98601 0.0
H1044 H 0.92105 0.36777 0.6012 0.0
H1045 H 0.85396 0.31961 0.72078 0.0
H1046 H 0.89063 0.38476 0.55703 0.0
H1047 H 0.8247 0.33746 0.67456 0.0
H1048 H 0.99465 0.43148 0.74432 0.0
H1049 H 0.99491 0.35252 0.7607 0.0
H1050 H 0.04752 0.45713 0.73977 0.0
H1051 H 0.0477 0.37944 0.75571 0.0
H1052 H 0.87852 0.4229 0.80895 0.0
H1053 H 0.94405 0.45361 0.68012 0.0
H1054 H 0.9854 0.31798 0.53079 0.0
H1055 H 0.00664 0.40591 0.55068 0.0
loop_
_geom_bond_atom_site_label_1
_geom_bond_atom_site_label_2
_geom_bond_distance
_geom_bond_site_symmetry_2
_ccdc_geom_bond_type
Li0 N17 1.990 . S
Li0 O60 1.956 . S
Li0 O61 1.970 . S
Li0 O62 1.961 . S
Li1 N25 1.990 . S
Li1 O60 1.970 . S
Li1 O61 1.956 . S
Li1 O63 1.961 . S
Li2 N47 1.990 . S
Li2 O60 1.961 . S
Li2 O62 1.956 . S
Li2 O63 1.970 . S
Li3 N53 1.990 . S
Li3 O61 1.961 . S
Li3 O62 1.970 . S
Li3 O63 1.956 . S
C4 C6 1.348 . S
C4 C7 1.356 . S
C4 O60 1.325 . S
N5 C8 1.314 . S
N5 C9 1.279 . S
C6 C4 1.348 . S
C6 C8 1.353 . S
C6 H64 0.929 . S
C7 C4 1.356 . S
C7 C9 1.358 . S
C7 H65 0.930 . S
C8 N5 1.314 . S
C8 C6 1.353 . S
C8 H66 0.930 . S
C9 N5 1.279 . S
C9 C7 1.358 . S
C9 H67 0.930 . S
C10 C13 1.348 . S
C10 C14 1.356 1_455 S
C10 O61 1.325 . S
C11 N12 1.279 . S
C11 C14 1.358 . S
C11 H68 0.930 . S
N12 C11 1.279 . S
N12 C15 1.314 . S
C13 C10 1.348 . S
C13 C15 1.353 1_455 S
C13 H69 0.929 . S
C14 C10 1.356 1_655 S
C14 C11 1.358 . S
C14 H70 0.930 . S
C15 N12 1.314 . S
C15 C13 1.353 1_655 S
C15 H71 0.930 . S
C16 N17 1.314 . S
C16 C21 1.353 . S
C16 H22 0.930 . S
N17 Li0 1.990 . S
N17 C16 1.314 . S
N17 C19 1.279 . S
C18 C19 1.358 . S
C18 C20 1.356 . S
C18 H72 0.930 . S
C19 N17 1.279 . S
C19 C18 1.358 . S
C19 H23 0.930 . S
C20 C18 1.356 . S
C20 C21 1.348 . S
C21 C16 1.353 . S
C21 C20 1.348 . S
C21 H73 0.929 . S
H22 C16 0.930 . S
H23 C19 0.930 . S
C24 N25 1.314 . S
C24 C26 1.353 . S
C24 H30 0.930 . S
N25 Li1 1.990 . S
N25 C24 1.314 . S
N25 C28 1.279 . S
C26 C24 1.353 . S
C26 C29 1.348 . S
C26 H74 0.929 . S
C27 C28 1.356 1_655 S
C27 C29 1.352 1_655 S
C27 H75 0.936 . S
C28 N25 1.279 . S
C28 C27 1.356 1_455 S
C28 H31 0.930 . S
C29 C26 1.348 . S
C29 C27 1.352 1_455 S
H30 C24 0.930 . S
H31 C28 0.930 . S
C32 C34 1.348 . S
C32 C35 1.356 . S
C32 O62 1.325 . S
N33 C36 1.314 . S
N33 C37 1.279 . S
C34 C32 1.348 . S
C34 C36 1.353 . S
C34 H76 0.929 . S
C35 C32 1.356 . S
C35 C37 1.358 . S
C35 H77 0.930 . S
C36 N33 1.314 . S
C36 C34 1.353 . S
C36 H78 0.930 . S
C37 N33 1.279 . S
C37 C35 1.358 . S
C37 H79 0.930 . S
C38 C39 1.348 . S
C38 C40 1.356 . S
C38 O63 1.325 . S
C39 C38 1.348 . S
C39 C41 1.353 . S
C39 H80 0.929 . S
C40 C38 1.356 . S
C40 C42 1.358 . S
C40 H81 0.930 . S
C41 C39 1.353 . S
C41 N43 1.314 . S
C41 H82 0.930 . S
C42 C40 1.358 . S
C42 N43 1.279 . S
C42 H83 0.930 . S
N43 C41 1.314 . S
N43 C42 1.279 . S
C44 C46 1.353 . S
C44 N47 1.314 . S
C44 H50 0.930 . S
C45 N47 1.279 . S
C45 C48 1.358 . S
C45 H51 0.930 . S
C46 C44 1.353 . S
C46 C49 1.348 . S
C46 H84 0.929 . S
N47 Li2 1.990 . S
N47 C44 1.314 . S
N47 C45 1.279 . S
C48 C45 1.358 . S
C48 C49 1.356 . S
C48 H85 0.930 . S
C49 C46 1.348 . S
C49 C48 1.356 . S
H50 C44 0.930 . S
H51 C45 0.930 . S
C52 N53 1.314 . S
C52 C54 1.353 . S
C52 H58 0.930 . S
N53 Li3 1.990 . S
N53 C52 1.314 . S
N53 C56 1.279 . S
C54 C52 1.353 . S
C54 C57 1.348 . S
C54 H86 0.933 1_455 S
C55 C56 1.358 . S
C55 C57 1.356 . S
C55 H87 0.930 . S
C56 N53 1.279 . S
C56 C55 1.358 . S
C56 H59 0.930 . S
C57 C54 1.348 . S
C57 C55 1.356 . S
H58 C52 0.930 . S
H59 C56 0.930 . S
O60 Li0 1.956 . S
O60 Li1 1.970 . S
O60 Li2 1.961 . S
O60 C4 1.325 . S
O61 Li0 1.970 . S
O61 Li1 1.956 . S
O61 Li3 1.961 . S
O61 C10 1.325 . S
O62 Li0 1.961 . S
O62 Li2 1.956 . S
O62 Li3 1.970 . S
O62 C32 1.325 . S
O63 Li1 1.961 . S
O63 Li2 1.970 . S
O63 Li3 1.956 . S
O63 C38 1.325 . S
H64 C6 0.929 . S
H65 C7 0.930 . S
H66 C8 0.930 . S
H67 C9 0.930 . S
H68 C11 0.930 . S
H69 C13 0.929 . S
H70 C14 0.930 . S
H71 C15 0.930 . S
H72 C18 0.930 . S
H73 C21 0.929 . S
H74 C26 0.929 . S
H75 C27 0.936 . S
H76 C34 0.929 . S
H77 C35 0.930 . S
H78 C36 0.930 . S
H79 C37 0.930 . S
H80 C39 0.929 . S
H81 C40 0.930 . S
H82 C41 0.930 . S
H83 C42 0.930 . S
H84 C46 0.929 . S
H85 C48 0.930 . S
H86 C54 0.933 1_655 S
H87 C55 0.930 . S
Li88 N105 1.990 . S
Li88 O148 1.956 . S
Li88 O149 1.970 . S
Li88 O150 1.961 . S
Li89 N113 1.990 . S
Li89 O148 1.970 . S
Li89 O149 1.956 . S
Li89 O151 1.961 . S
Li90 N135 1.990 . S
Li90 O148 1.961 . S
Li90 O150 1.956 . S
Li90 O151 1.970 . S
Li91 N141 1.990 . S
Li91 O149 1.961 . S
Li91 O150 1.970 . S
Li91 O151 1.956 . S
C92 C94 1.348 . S
C92 C95 1.356 . S
C92 O148 1.325 . S
N93 C96 1.314 . S
N93 C97 1.279 . S
C94 C92 1.348 . S
C94 C96 1.353 . S
C94 H152 0.929 . S
C95 C92 1.356 . S
C95 C97 1.358 . S
C95 H153 0.930 . S
C96 N93 1.314 . S
C96 C94 1.353 . S
C96 H154 0.930 . S
C97 N93 1.279 . S
C97 C95 1.358 . S
C97 H155 0.930 . S
C98 C101 1.348 . S
C98 C102 1.356 1_545 S
C98 O149 1.325 . S
C99 N100 1.279 . S
C99 C102 1.358 . S
C99 H156 0.930 . S
N100 C99 1.279 . S
N100 C103 1.314 . S
C101 C98 1.348 . S
C101 C103 1.353 1_545 S
C101 H157 0.929 . S
C102 C98 1.356 1_565 S
C102 C99 1.358 . S
C102 H158 0.930 . S
C103 N100 1.314 . S
C103 C101 1.353 1_565 S
C103 H159 0.930 . S
C104 N105 1.314 . S
C104 C109 1.353 . S
C104 H110 0.930 . S
N105 Li88 1.990 . S
N105 C104 1.314 . S
N105 C107 1.279 . S
C106 C107 1.358 . S
C106 C108 1.356 . S
C106 H160 0.930 . S
C107 N105 1.279 . S
C107 C106 1.358 . S
C107 H111 0.930 . S
C108 C106 1.356 . S
C108 C109 1.348 . S
C109 C104 1.353 . S
C109 C108 1.348 . S
C109 H161 0.929 . S
H110 C104 0.930 . S
H111 C107 0.930 . S
C112 N113 1.314 . S
C112 C114 1.353 . S
C112 H118 0.930 . S
N113 Li89 1.990 . S
N113 C112 1.314 . S
N113 C116 1.279 . S
C114 C112 1.353 . S
C114 C117 1.348 . S
C114 H162 0.929 . S
C115 C116 1.355 1_565 S
C115 C117 1.357 1_565 S
C115 H163 0.932 . S
C116 N113 1.279 . S
C116 C115 1.355 1_545 S
C116 H119 0.930 . S
C117 C114 1.348 . S
C117 C115 1.357 1_545 S
H118 C112 0.930 . S
H119 C116 0.930 . S
C120 C122 1.348 . S
C120 C123 1.356 . S
C120 O150 1.325 . S
N121 C124 1.314 . S
N121 C125 1.279 . S
C122 C120 1.348 . S
C122 C124 1.353 . S
C122 H164 0.929 . S
C123 C120 1.356 . S
C123 C125 1.358 . S
C123 H165 0.930 . S
C124 N121 1.314 . S
C124 C122 1.353 . S
C124 H166 0.930 . S
C125 N121 1.279 . S
C125 C123 1.358 . S
C125 H167 0.930 . S
C126 C127 1.348 . S
C126 C128 1.356 . S
C126 O151 1.325 . S
C127 C126 1.348 . S
C127 C129 1.353 . S
C127 H168 0.929 . S
C128 C126 1.356 . S
C128 C130 1.358 . S
C128 H169 0.930 . S
C129 C127 1.353 . S
C129 N131 1.314 . S
C129 H170 0.930 . S
C130 C128 1.358 . S
C130 N131 1.279 . S
C130 H171 0.930 . S
N131 C129 1.314 . S
N131 C130 1.279 . S
C132 C134 1.353 . S
C132 N135 1.314 . S
C132 H138 0.930 . S
C133 N135 1.279 . S
C133 C136 1.358 . S
C133 H139 0.930 . S
C134 C132 1.353 . S
C134 C137 1.348 . S
C134 H172 0.929 . S
N135 Li90 1.990 . S
N135 C132 1.314 . S
N135 C133 1.279 . S
C136 C133 1.358 . S
C136 C137 1.356 . S
C136 H173 0.930 . S
C137 C134 1.348 . S
C137 C136 1.356 . S
H138 C132 0.930 . S
H139 C133 0.930 . S
C140 N141 1.314 . S
C140 C142 1.353 . S
C140 H146 0.930 . S
N141 Li91 1.990 . S
N141 C140 1.314 . S
N141 C144 1.279 . S
C142 C140 1.353 . S
C142 C145 1.348 . S
C142 H174 0.930 1_545 S
C143 C144 1.358 . S
C143 C145 1.356 . S
C143 H175 0.930 . S
C144 N141 1.279 . S
C144 C143 1.358 . S
C144 H147 0.930 . S
C145 C142 1.348 . S
C145 C143 1.356 . S
H146 C140 0.930 . S
H147 C144 0.930 . S
O148 Li88 1.956 . S
O148 Li89 1.970 . S
O148 Li90 1.961 . S
O148 C92 1.325 . S
O149 Li88 1.970 . S
O149 Li89 1.956 . S
O149 Li91 1.961 . S
O149 C98 1.325 . S
O150 Li88 1.961 . S
O150 Li90 1.956 . S
O150 Li91 1.970 . S
O150 C120 1.325 . S
O151 Li89 1.961 . S
O151 Li90 1.970 . S
O151 Li91 1.956 . S
O151 C126 1.325 . S
H152 C94 0.929 . S
H153 C95 0.930 . S
H154 C96 0.930 . S
H155 C97 0.930 . S
H156 C99 0.930 . S
H157 C101 0.929 . S
H158 C102 0.930 . S
H159 C103 0.930 . S
H160 C106 0.930 . S
H161 C109 0.929 . S
H162 C114 0.929 . S
H163 C115 0.932 . S
H164 C122 0.929 . S
H165 C123 0.930 . S
H166 C124 0.930 . S
H167 C125 0.930 . S
H168 C127 0.929 . S
H169 C128 0.930 . S
H170 C129 0.930 . S
H171 C130 0.930 . S
H172 C134 0.929 . S
H173 C136 0.930 . S
H174 C142 0.930 1_565 S
H175 C143 0.930 . S
Li176 N193 1.990 . S
Li176 O236 1.956 . S
Li176 O237 1.970 . S
Li176 O238 1.961 . S
Li177 N201 1.990 . S
Li177 O236 1.970 . S
Li177 O237 1.956 . S
Li177 O239 1.961 . S
Li178 N223 1.990 . S
Li178 O236 1.961 . S
Li178 O238 1.956 . S
Li178 O239 1.970 . S
Li179 N229 1.990 . S
Li179 O237 1.961 . S
Li179 O238 1.970 . S
Li179 O239 1.956 . S
C180 C182 1.348 . S
C180 C183 1.356 . S
C180 O236 1.325 . S
N181 C184 1.314 . S
N181 C185 1.279 . S
C182 C180 1.348 . S
C182 C184 1.353 . S
C182 H240 0.929 . S
C183 C180 1.356 . S
C183 C185 1.358 . S
C183 H241 0.930 . S
C184 N181 1.314 . S
C184 C182 1.353 . S
C184 H242 0.930 . S
C185 N181 1.279 . S
C185 C183 1.358 . S
C185 H243 0.930 . S
C186 C189 1.348 . S
C186 C190 1.356 . S
C186 O237 1.325 . S
C187 N188 1.279 . S
C187 C190 1.358 . S
C187 H244 0.930 . S
N188 C187 1.279 . S
N188 C191 1.314 . S
C189 C186 1.348 . S
C189 C191 1.353 . S
C189 H245 0.929 . S
C190 C186 1.356 . S
C190 C187 1.358 . S
C190 H246 0.930 . S
C191 N188 1.314 . S
C191 C189 1.353 . S
C191 H247 0.930 . S
C192 N193 1.314 . S
C192 C197 1.353 . S
C192 H198 0.930 . S
N193 Li176 1.990 . S
N193 C192 1.314 . S
N193 C195 1.279 . S
C194 C195 1.358 . S
C194 C196 1.356 . S
C194 H248 0.930 . S
C195 N193 1.279 . S
C195 C194 1.358 . S
C195 H199 0.930 . S
C196 C194 1.356 . S
C196 C197 1.348 . S
C197 C192 1.353 . S
C197 C196 1.348 . S
C197 H249 0.929 . S
H198 C192 0.930 . S
H199 C195 0.930 . S
C200 N201 1.314 . S
C200 C202 1.353 . S
C200 H206 0.930 . S
N201 Li177 1.990 . S
N201 C200 1.314 . S
N201 C204 1.279 . S
C202 C200 1.353 . S
C202 C205 1.348 . S
C202 H250 0.929 . S
C203 C204 1.358 . S
C203 C205 1.356 . S
C203 H251 0.930 . S
C204 N201 1.279 . S
C204 C203 1.358 . S
C204 H207 0.930 . S
C205 C202 1.348 . S
C205 C203 1.356 . S
H206 C200 0.930 . S
H207 C204 0.930 . S
C208 C210 1.348 . S
C208 C211 1.356 . S
C208 O238 1.325 . S
N209 C212 1.314 . S
N209 C213 1.279 . S
C210 C208 1.348 . S
C210 C212 1.353 . S
C210 H252 0.929 . S
C211 C208 1.356 . S
C211 C213 1.358 . S
C211 H253 0.930 . S
C212 N209 1.314 . S
C212 C210 1.353 . S
C212 H254 0.930 . S
C213 N209 1.279 . S
C213 C211 1.358 . S
C213 H255 0.930 . S
C214 C215 1.348 . S
C214 C216 1.356 . S
C214 O239 1.325 . S
C215 C214 1.348 . S
C215 C217 1.353 . S
C215 H256 0.929 . S
C216 C214 1.356 . S
C216 C218 1.358 . S
C216 H257 0.930 . S
C217 C215 1.353 . S
C217 N219 1.314 . S
C217 H258 0.930 . S
C218 C216 1.358 . S
C218 N219 1.279 . S
C218 H259 0.930 . S
N219 C217 1.314 . S
N219 C218 1.279 . S
C220 C222 1.353 . S
C220 N223 1.314 . S
C220 H226 0.930 . S
C221 N223 1.279 . S
C221 C224 1.358 . S
C221 H227 0.930 . S
C222 C220 1.353 . S
C222 C225 1.348 . S
C222 H260 0.929 . S
N223 Li178 1.990 . S
N223 C220 1.314 . S
N223 C221 1.279 . S
C224 C221 1.358 . S
C224 C225 1.356 . S
C224 H261 0.930 . S
C225 C222 1.348 . S
C225 C224 1.356 . S
H226 C220 0.930 . S
H227 C221 0.930 . S
C228 N229 1.314 . S
C228 C230 1.353 . S
C228 H234 0.930 . S
N229 Li179 1.990 . S
N229 C228 1.314 . S
N229 C232 1.279 . S
C230 C228 1.353 . S
C230 C233 1.348 . S
C230 H262 0.929 . S
C231 C232 1.358 . S
C231 C233 1.356 . S
C231 H263 0.930 . S
C232 N229 1.279 . S
C232 C231 1.358 . S
C232 H235 0.930 . S
C233 C230 1.348 . S
C233 C231 1.356 . S
H234 C228 0.930 . S
H235 C232 0.930 . S
O236 Li176 1.956 . S
O236 Li177 1.970 . S
O236 Li178 1.961 . S
O236 C180 1.325 . S
O237 Li176 1.970 . S
O237 Li177 1.956 . S
O237 Li179 1.961 . S
O237 C186 1.325 . S
O238 Li176 1.961 . S
O238 Li178 1.956 . S
O238 Li179 1.970 . S
O238 C208 1.325 . S
O239 Li177 1.961 . S
O239 Li178 1.970 . S
O239 Li179 1.956 . S
O239 C214 1.325 . S
H240 C182 0.929 . S
H241 C183 0.930 . S
H242 C184 0.930 . S
H243 C185 0.930 . S
H244 C187 0.930 . S
H245 C189 0.929 . S
H246 C190 0.930 . S
H247 C191 0.930 . S
H248 C194 0.930 . S
H249 C197 0.929 . S
H250 C202 0.929 . S
H251 C203 0.930 . S
H252 C210 0.929 . S
H253 C211 0.930 . S
H254 C212 0.930 . S
H255 C213 0.930 . S
H256 C215 0.929 . S
H257 C216 0.930 . S
H258 C217 0.930 . S
H259 C218 0.930 . S
H260 C222 0.929 . S
H261 C224 0.930 . S
H262 C230 0.929 . S
H263 C231 0.930 . S
Li264 N281 1.990 . S
Li264 O324 1.956 . S
Li264 O325 1.970 . S
Li264 O326 1.961 . S
Li265 N289 1.990 . S
Li265 O324 1.970 . S
Li265 O325 1.956 . S
Li265 O327 1.961 . S
Li266 N311 1.990 . S
Li266 O324 1.961 . S
Li266 O326 1.956 . S
Li266 O327 1.970 . S
Li267 N317 1.990 . S
Li267 O325 1.961 . S
Li267 O326 1.970 . S
Li267 O327 1.956 . S
C268 C270 1.348 . S
C268 C271 1.356 . S
C268 O324 1.325 . S
N269 C272 1.314 . S
N269 C273 1.279 . S
C270 C268 1.348 . S
C270 C272 1.353 . S
C270 H328 0.929 . S
C271 C268 1.356 . S
C271 C273 1.358 . S
C271 H329 0.930 . S
C272 N269 1.314 . S
C272 C270 1.353 . S
C272 H330 0.930 . S
C273 N269 1.279 . S
C273 C271 1.358 . S
C273 H331 0.930 . S
C274 C277 1.348 . S
C274 C278 1.356 1_655 S
C274 O325 1.325 . S
C275 N276 1.279 . S
C275 C278 1.358 . S
C275 H332 0.930 . S
N276 C275 1.279 . S
N276 C279 1.314 . S
C277 C274 1.348 . S
C277 C279 1.353 1_655 S
C277 H333 0.929 . S
C278 C274 1.356 1_455 S
C278 C275 1.358 . S
C278 H334 0.930 . S
C279 N276 1.314 . S
C279 C277 1.353 1_455 S
C279 H335 0.930 . S
C280 N281 1.314 . S
C280 C285 1.353 . S
C280 H286 0.930 . S
N281 Li264 1.990 . S
N281 C280 1.314 . S
N281 C283 1.279 . S
C282 C283 1.358 . S
C282 C284 1.356 . S
C282 H336 0.930 . S
C283 N281 1.279 . S
C283 C282 1.358 . S
C283 H287 0.930 . S
C284 C282 1.356 . S
C284 C285 1.348 . S
C285 C280 1.353 . S
C285 C284 1.348 . S
C285 H337 0.929 . S
H286 C280 0.930 . S
H287 C283 0.930 . S
C288 N289 1.314 . S
C288 C290 1.353 . S
C288 H294 0.930 . S
N289 Li265 1.990 . S
N289 C288 1.314 . S
N289 C292 1.279 . S
C290 C288 1.353 . S
C290 C293 1.348 . S
C290 H338 0.929 . S
C291 C292 1.356 1_455 S
C291 C293 1.352 1_455 S
C291 H339 0.936 . S
C292 N289 1.279 . S
C292 C291 1.356 1_655 S
C292 H295 0.930 . S
C293 C290 1.348 . S
C293 C291 1.352 1_655 S
H294 C288 0.930 . S
H295 C292 0.930 . S
C296 C298 1.348 . S
C296 C299 1.356 . S
C296 O326 1.325 . S
N297 C300 1.314 . S
N297 C301 1.279 . S
C298 C296 1.348 . S
C298 C300 1.353 . S
C298 H340 0.929 . S
C299 C296 1.356 . S
C299 C301 1.358 . S
C299 H341 0.930 . S
C300 N297 1.314 . S
C300 C298 1.353 . S
C300 H342 0.930 . S
C301 N297 1.279 . S
C301 C299 1.358 . S
C301 H343 0.930 . S
C302 C303 1.348 . S
C302 C304 1.356 . S
C302 O327 1.325 . S
C303 C302 1.348 . S
C303 C305 1.353 . S
C303 H344 0.929 . S
C304 C302 1.356 . S
C304 C306 1.358 . S
C304 H345 0.930 . S
C305 C303 1.353 . S
C305 N307 1.314 . S
C305 H346 0.930 . S
C306 C304 1.358 . S
C306 N307 1.279 . S
C306 H347 0.930 . S
N307 C305 1.314 . S
N307 C306 1.279 . S
C308 C310 1.353 . S
C308 N311 1.314 . S
C308 H314 0.930 . S
C309 N311 1.279 . S
C309 C312 1.358 . S
C309 H315 0.930 . S
C310 C308 1.353 . S
C310 C313 1.348 . S
C310 H348 0.929 . S
N311 Li266 1.990 . S
N311 C308 1.314 . S
N311 C309 1.279 . S
C312 C309 1.358 . S
C312 C313 1.356 . S
C312 H349 0.930 . S
C313 C310 1.348 . S
C313 C312 1.356 . S
H314 C308 0.930 . S
H315 C309 0.930 . S
C316 N317 1.314 . S
C316 C318 1.353 . S
C316 H322 0.930 . S
N317 Li267 1.990 . S
N317 C316 1.314 . S
N317 C320 1.279 . S
C318 C316 1.353 . S
C318 C321 1.348 . S
C318 H350 0.933 1_655 S
C319 C320 1.358 . S
C319 C321 1.356 . S
C319 H351 0.930 . S
C320 N317 1.279 . S
C320 C319 1.358 . S
C320 H323 0.930 . S
C321 C318 1.348 . S
C321 C319 1.356 . S
H322 C316 0.930 . S
H323 C320 0.930 . S
O324 Li264 1.956 . S
O324 Li265 1.970 . S
O324 Li266 1.961 . S
O324 C268 1.325 . S
O325 Li264 1.970 . S
O325 Li265 1.956 . S
O325 Li267 1.961 . S
O325 C274 1.325 . S
O326 Li264 1.961 . S
O326 Li266 1.956 . S
O326 Li267 1.970 . S
O326 C296 1.325 . S
O327 Li265 1.961 . S
O327 Li266 1.970 . S
O327 Li267 1.956 . S
O327 C302 1.325 . S
H328 C270 0.929 . S
H329 C271 0.930 . S
H330 C272 0.930 . S
H331 C273 0.930 . S
H332 C275 0.930 . S
H333 C277 0.929 . S
H334 C278 0.930 . S
H335 C279 0.930 . S
H336 C282 0.930 . S
H337 C285 0.929 . S
H338 C290 0.929 . S
H339 C291 0.936 . S
H340 C298 0.929 . S
H341 C299 0.930 . S
H342 C300 0.930 . S
H343 C301 0.930 . S
H344 C303 0.929 . S
H345 C304 0.930 . S
H346 C305 0.930 . S
H347 C306 0.930 . S
H348 C310 0.929 . S
H349 C312 0.930 . S
H350 C318 0.933 1_455 S
H351 C319 0.930 . S
Li352 N369 1.990 . S
Li352 O412 1.956 . S
Li352 O413 1.970 . S
Li352 O414 1.961 . S
Li353 N377 1.990 . S
Li353 O412 1.970 . S
Li353 O413 1.956 . S
Li353 O415 1.961 . S
Li354 N399 1.990 . S
Li354 O412 1.961 . S
Li354 O414 1.956 . S
Li354 O415 1.970 . S
Li355 N405 1.990 . S
Li355 O413 1.961 . S
Li355 O414 1.970 . S
Li355 O415 1.956 . S
C356 C358 1.348 . S
C356 C359 1.356 1_565 S
C356 O412 1.325 . S
N357 C360 1.314 . S
N357 C361 1.279 . S
C358 C356 1.348 . S
C358 C360 1.353 1_565 S
C358 H416 0.929 . S
C359 C356 1.356 1_545 S
C359 C361 1.358 . S
C359 H417 0.930 . S
C360 N357 1.314 . S
C360 C358 1.353 1_545 S
C360 H418 0.930 . S
C361 N357 1.279 . S
C361 C359 1.358 . S
C361 H419 0.930 . S
C362 C365 1.348 . S
C362 C366 1.356 . S
C362 O413 1.325 . S
C363 N364 1.279 . S
C363 C366 1.358 . S
C363 H420 0.930 . S
N364 C363 1.279 . S
N364 C367 1.314 . S
C365 C362 1.348 . S
C365 C367 1.353 . S
C365 H421 0.929 . S
C366 C362 1.356 . S
C366 C363 1.358 . S
C366 H422 0.930 . S
C367 N364 1.314 . S
C367 C365 1.353 . S
C367 H423 0.930 . S
C368 N369 1.314 . S
C368 C373 1.353 . S
C368 H374 0.930 . S
N369 Li352 1.990 . S
N369 C368 1.314 . S
N369 C371 1.279 . S
C370 C371 1.355 1_545 S
C370 C372 1.357 1_545 S
C370 H424 0.932 . S
C371 N369 1.279 . S
C371 C370 1.355 1_565 S
C371 H375 0.930 . S
C372 C370 1.357 1_565 S
C372 C373 1.348 . S
C373 C368 1.353 . S
C373 C372 1.348 . S
C373 H425 0.929 . S
H374 C368 0.930 . S
H375 C371 0.930 . S
C376 N377 1.314 . S
C376 C378 1.353 . S
C376 H382 0.930 . S
N377 Li353 1.990 . S
N377 C376 1.314 . S
N377 C380 1.279 . S
C378 C376 1.353 . S
C378 C381 1.348 . S
C378 H426 0.929 . S
C379 C380 1.358 . S
C379 C381 1.356 . S
C379 H427 0.930 . S
C380 N377 1.279 . S
C380 C379 1.358 . S
C380 H383 0.930 . S
C381 C378 1.348 . S
C381 C379 1.356 . S
H382 C376 0.930 . S
H383 C380 0.930 . S
C384 C386 1.348 . S
C384 C387 1.356 . S
C384 O414 1.325 . S
N385 C388 1.314 . S
N385 C389 1.279 . S
C386 C384 1.348 . S
C386 C388 1.353 . S
C386 H428 0.929 . S
C387 C384 1.356 . S
C387 C389 1.358 . S
C387 H429 0.930 . S
C388 N385 1.314 . S
C388 C386 1.353 . S
C388 H430 0.930 . S
C389 N385 1.279 . S
C389 C387 1.358 . S
C389 H431 0.930 . S
C390 C391 1.348 . S
C390 C392 1.356 . S
C390 O415 1.325 . S
C391 C390 1.348 . S
C391 C393 1.353 . S
C391 H432 0.929 . S
C392 C390 1.356 . S
C392 C394 1.358 . S
C392 H433 0.930 . S
C393 C391 1.353 . S
C393 N395 1.314 . S
C393 H434 0.930 . S
C394 C392 1.358 . S
C394 N395 1.279 . S
C394 H435 0.930 . S
N395 C393 1.314 . S
N395 C394 1.279 . S
C396 C398 1.353 . S
C396 N399 1.314 . S
C396 H402 0.930 . S
C397 N399 1.279 . S
C397 C400 1.358 . S
C397 H403 0.930 . S
C398 C396 1.353 . S
C398 C401 1.348 . S
C398 H436 0.930 1_565 S
N399 Li354 1.990 . S
N399 C396 1.314 . S
N399 C397 1.279 . S
C400 C397 1.358 . S
C400 C401 1.356 . S
C400 H437 0.930 . S
C401 C398 1.348 . S
C401 C400 1.356 . S
H402 C396 0.930 . S
H403 C397 0.930 . S
C404 N405 1.314 . S
C404 C406 1.353 . S
C404 H410 0.930 . S
N405 Li355 1.990 . S
N405 C404 1.314 . S
N405 C408 1.279 . S
C406 C404 1.353 . S
C406 C409 1.348 . S
C406 H438 0.929 . S
C407 C408 1.358 . S
C407 C409 1.356 . S
C407 H439 0.930 . S
C408 N405 1.279 . S
C408 C407 1.358 . S
C408 H411 0.930 . S
C409 C406 1.348 . S
C409 C407 1.356 . S
H410 C404 0.930 . S
H411 C408 0.930 . S
O412 Li352 1.956 . S
O412 Li353 1.970 . S
O412 Li354 1.961 . S
O412 C356 1.325 . S
O413 Li352 1.970 . S
O413 Li353 1.956 . S
O413 Li355 1.961 . S
O413 C362 1.325 . S
O414 Li352 1.961 . S
O414 Li354 1.956 . S
O414 Li355 1.970 . S
O414 C384 1.325 . S
O415 Li353 1.961 . S
O415 Li354 1.970 . S
O415 Li355 1.956 . S
O415 C390 1.325 . S
H416 C358 0.929 . S
H417 C359 0.930 . S
H418 C360 0.930 . S
H419 C361 0.930 . S
H420 C363 0.930 . S
H421 C365 0.929 . S
H422 C366 0.930 . S
H423 C367 0.930 . S
H424 C370 0.932 . S
H425 C373 0.929 . S
H426 C378 0.929 . S
H427 C379 0.930 . S
H428 C386 0.929 . S
H429 C387 0.930 . S
H430 C388 0.930 . S
H431 C389 0.930 . S
H432 C391 0.929 . S
H433 C392 0.930 . S
H434 C393 0.930 . S
H435 C394 0.930 . S
H436 C398 0.930 1_545 S
H437 C400 0.930 . S
H438 C406 0.929 . S
H439 C407 0.930 . S
Li440 N457 1.990 . S
Li440 O500 1.956 . S
Li440 O501 1.970 . S
Li440 O502 1.961 . S
Li441 N465 1.990 . S
Li441 O500 1.970 . S
Li441 O501 1.956 . S
Li441 O503 1.961 . S
Li442 N487 1.990 . S
Li442 O500 1.961 . S
Li442 O502 1.956 . S
Li442 O503 1.970 . S
Li443 N493 1.990 . S
Li443 O501 1.961 . S
Li443 O502 1.970 . S
Li443 O503 1.956 . S
C444 C446 1.348 . S
C444 C447 1.356 . S
C444 O500 1.325 . S
N445 C448 1.314 . S
N445 C449 1.279 . S
C446 C444 1.348 . S
C446 C448 1.353 . S
C446 H504 0.929 . S
C447 C444 1.356 . S
C447 C449 1.358 . S
C447 H505 0.930 . S
C448 N445 1.314 . S
C448 C446 1.353 . S
C448 H506 0.930 . S
C449 N445 1.279 . S
C449 C447 1.358 . S
C449 H507 0.930 . S
C450 C453 1.348 . S
C450 C454 1.356 . S
C450 O501 1.325 . S
C451 N452 1.279 . S
C451 C454 1.358 . S
C451 H508 0.930 . S
N452 C451 1.279 . S
N452 C455 1.314 . S
C453 C450 1.348 . S
C453 C455 1.353 . S
C453 H509 0.929 . S
C454 C450 1.356 . S
C454 C451 1.358 . S
C454 H510 0.930 . S
C455 N452 1.314 . S
C455 C453 1.353 . S
C455 H511 0.930 . S
C456 N457 1.314 . S
C456 C461 1.353 . S
C456 H462 0.930 . S
N457 Li440 1.990 . S
N457 C456 1.314 . S
N457 C459 1.279 . S
C458 C459 1.358 . S
C458 C460 1.356 . S
C458 H512 0.930 . S
C459 N457 1.279 . S
C459 C458 1.358 . S
C459 H463 0.930 . S
C460 C458 1.356 . S
C460 C461 1.348 . S
C461 C456 1.353 . S
C461 C460 1.348 . S
C461 H513 0.929 . S
H462 C456 0.930 . S
H463 C459 0.930 . S
C464 N465 1.314 . S
C464 C466 1.353 . S
C464 H470 0.930 . S
N465 Li441 1.990 . S
N465 C464 1.314 . S
N465 C468 1.279 . S
C466 C464 1.353 . S
C466 C469 1.348 . S
C466 H514 0.929 . S
C467 C468 1.358 . S
C467 C469 1.356 . S
C467 H515 0.930 . S
C468 N465 1.279 . S
C468 C467 1.358 . S
C468 H471 0.930 . S
C469 C466 1.348 . S
C469 C467 1.356 . S
H470 C464 0.930 . S
H471 C468 0.930 . S
C472 C474 1.348 . S
C472 C475 1.356 . S
C472 O502 1.325 . S
N473 C476 1.314 . S
N473 C477 1.279 . S
C474 C472 1.348 . S
C474 C476 1.353 . S
C474 H516 0.929 . S
C475 C472 1.356 . S
C475 C477 1.358 . S
C475 H517 0.930 . S
C476 N473 1.314 . S
C476 C474 1.353 . S
C476 H518 0.930 . S
C477 N473 1.279 . S
C477 C475 1.358 . S
C477 H519 0.930 . S
C478 C479 1.348 . S
C478 C480 1.356 . S
C478 O503 1.325 . S
C479 C478 1.348 . S
C479 C481 1.353 . S
C479 H520 0.929 . S
C480 C478 1.356 . S
C480 C482 1.358 . S
C480 H521 0.930 . S
C481 C479 1.353 . S
C481 N483 1.314 . S
C481 H522 0.930 . S
C482 C480 1.358 . S
C482 N483 1.279 . S
C482 H523 0.930 . S
N483 C481 1.314 . S
N483 C482 1.279 . S
C484 C486 1.353 . S
C484 N487 1.314 . S
C484 H490 0.930 . S
C485 N487 1.279 . S
C485 C488 1.358 . S
C485 H491 0.930 . S
C486 C484 1.353 . S
C486 C489 1.348 . S
C486 H524 0.929 . S
N487 Li442 1.990 . S
N487 C484 1.314 . S
N487 C485 1.279 . S
C488 C485 1.358 . S
C488 C489 1.356 . S
C488 H525 0.930 . S
C489 C486 1.348 . S
C489 C488 1.356 . S
H490 C484 0.930 . S
H491 C485 0.930 . S
C492 N493 1.314 . S
C492 C494 1.353 . S
C492 H498 0.930 . S
N493 Li443 1.990 . S
N493 C492 1.314 . S
N493 C496 1.279 . S
C494 C492 1.353 . S
C494 C497 1.348 . S
C494 H526 0.929 . S
C495 C496 1.358 . S
C495 C497 1.356 . S
C495 H527 0.930 . S
C496 N493 1.279 . S
C496 C495 1.358 . S
C496 H499 0.930 . S
C497 C494 1.348 . S
C497 C495 1.356 . S
H498 C492 0.930 . S
H499 C496 0.930 . S
O500 Li440 1.956 . S
O500 Li441 1.970 . S
O500 Li442 1.961 . S
O500 C444 1.325 . S
O501 Li440 1.970 . S
O501 Li441 1.956 . S
O501 Li443 1.961 . S
O501 C450 1.325 . S
O502 Li440 1.961 . S
O502 Li442 1.956 . S
O502 Li443 1.970 . S
O502 C472 1.325 . S
O503 Li441 1.961 . S
O503 Li442 1.970 . S
O503 Li443 1.956 . S
O503 C478 1.325 . S
H504 C446 0.929 . S
H505 C447 0.930 . S
H506 C448 0.930 . S
H507 C449 0.930 . S
H508 C451 0.930 . S
H509 C453 0.929 . S
H510 C454 0.930 . S
H511 C455 0.930 . S
H512 C458 0.930 . S
H513 C461 0.929 . S
H514 C466 0.929 . S
H515 C467 0.930 . S
H516 C474 0.929 . S
H517 C475 0.930 . S
H518 C476 0.930 . S
H519 C477 0.930 . S
H520 C479 0.929 . S
H521 C480 0.930 . S
H522 C481 0.930 . S
H523 C482 0.930 . S
H524 C486 0.929 . S
H525 C488 0.930 . S
H526 C494 0.929 . S
H527 C495 0.930 . S
Li528 N545 1.990 . S
Li528 O588 1.956 . S
Li528 O589 1.970 . S
Li528 O590 1.961 . S
Li529 N553 1.990 . S
Li529 O588 1.970 . S
Li529 O589 1.956 . S
Li529 O591 1.961 . S
Li530 N575 1.990 . S
Li530 O588 1.961 . S
Li530 O590 1.956 . S
Li530 O591 1.970 . S
Li531 N581 1.990 . S
Li531 O589 1.961 . S
Li531 O590 1.970 . S
Li531 O591 1.956 . S
C532 C534 1.348 . S
C532 C535 1.356 . S
C532 O588 1.325 . S
N533 C536 1.314 . S
N533 C537 1.279 . S
C534 C532 1.348 . S
C534 C536 1.353 . S
C534 H592 0.929 . S
C535 C532 1.356 . S
C535 C537 1.358 . S
C535 H593 0.930 . S
C536 N533 1.314 . S
C536 C534 1.353 . S
C536 H594 0.930 . S
C537 N533 1.279 . S
C537 C535 1.358 . S
C537 H595 0.930 . S
C538 C541 1.348 . S
C538 C542 1.356 . S
C538 O589 1.325 . S
C539 N540 1.279 . S
C539 C542 1.358 . S
C539 H596 0.930 . S
N540 C539 1.279 . S
N540 C543 1.314 . S
C541 C538 1.348 . S
C541 C543 1.353 . S
C541 H597 0.929 . S
C542 C538 1.356 . S
C542 C539 1.358 . S
C542 H598 0.930 . S
C543 N540 1.314 . S
C543 C541 1.353 . S
C543 H599 0.930 . S
C544 N545 1.314 . S
C544 C549 1.353 . S
C544 H550 0.930 . S
N545 Li528 1.990 . S
N545 C544 1.314 . S
N545 C547 1.279 . S
C546 C547 1.358 . S
C546 C548 1.356 . S
C546 H600 0.930 . S
C547 N545 1.279 . S
C547 C546 1.358 . S
C547 H551 0.930 . S
C548 C546 1.356 . S
C548 C549 1.348 . S
C549 C544 1.353 . S
C549 C548 1.348 . S
C549 H601 0.933 1_565 S
H550 C544 0.930 . S
H551 C547 0.930 . S
C552 N553 1.314 . S
C552 C554 1.353 . S
C552 H558 0.930 . S
N553 Li529 1.990 . S
N553 C552 1.314 . S
N553 C556 1.279 . S
C554 C552 1.353 . S
C554 C557 1.348 . S
C554 H602 0.929 . S
C555 C556 1.358 . S
C555 C557 1.356 . S
C555 H603 0.930 . S
C556 N553 1.279 . S
C556 C555 1.358 . S
C556 H559 0.930 . S
C557 C554 1.348 . S
C557 C555 1.356 . S
H558 C552 0.930 . S
H559 C556 0.930 . S
C560 C562 1.348 . S
C560 C563 1.356 1_565 S
C560 O590 1.325 . S
N561 C564 1.314 . S
N561 C565 1.279 . S
C562 C560 1.348 . S
C562 C564 1.353 1_565 S
C562 H604 0.929 . S
C563 C560 1.356 1_545 S
C563 C565 1.358 . S
C563 H605 0.930 . S
C564 N561 1.314 . S
C564 C562 1.353 1_545 S
C564 H606 0.930 . S
C565 N561 1.279 . S
C565 C563 1.358 . S
C565 H607 0.930 . S
C566 C567 1.348 . S
C566 C568 1.356 . S
C566 O591 1.325 . S
C567 C566 1.348 . S
C567 C569 1.353 . S
C567 H608 0.929 . S
C568 C566 1.356 . S
C568 C570 1.358 . S
C568 H609 0.930 . S
C569 C567 1.353 . S
C569 N571 1.314 . S
C569 H610 0.930 . S
C570 C568 1.358 . S
C570 N571 1.279 . S
C570 H611 0.930 . S
N571 C569 1.314 . S
N571 C570 1.279 . S
C572 C574 1.353 . S
C572 N575 1.314 . S
C572 H578 0.930 . S
C573 N575 1.279 . S
C573 C576 1.356 1_565 S
C573 H579 0.930 . S
C574 C572 1.353 . S
C574 C577 1.348 . S
C574 H612 0.929 . S
N575 Li530 1.990 . S
N575 C572 1.314 . S
N575 C573 1.279 . S
C576 C573 1.356 1_545 S
C576 C577 1.352 1_545 S
C576 H613 0.936 . S
C577 C574 1.348 . S
C577 C576 1.352 1_565 S
H578 C572 0.930 . S
H579 C573 0.930 . S
C580 N581 1.314 . S
C580 C582 1.353 . S
C580 H586 0.930 . S
N581 Li531 1.990 . S
N581 C580 1.314 . S
N581 C584 1.279 . S
C582 C580 1.353 . S
C582 C585 1.348 . S
C582 H614 0.929 . S
C583 C584 1.358 . S
C583 C585 1.356 . S
C583 H615 0.930 . S
C584 N581 1.279 . S
C584 C583 1.358 . S
C584 H587 0.930 . S
C585 C582 1.348 . S
C585 C583 1.356 . S
H586 C580 0.930 . S
H587 C584 0.930 . S
O588 Li528 1.956 . S
O588 Li529 1.970 . S
O588 Li530 1.961 . S
O588 C532 1.325 . S
O589 Li528 1.970 . S
O589 Li529 1.956 . S
O589 Li531 1.961 . S
O589 C538 1.325 . S
O590 Li528 1.961 . S
O590 Li530 1.956 . S
O590 Li531 1.970 . S
O590 C560 1.325 . S
O591 Li529 1.961 . S
O591 Li530 1.970 . S
O591 Li531 1.956 . S
O591 C566 1.325 . S
H592 C534 0.929 . S
H593 C535 0.930 . S
H594 C536 0.930 . S
H595 C537 0.930 . S
H596 C539 0.930 . S
H597 C541 0.929 . S
H598 C542 0.930 . S
H599 C543 0.930 . S
H600 C546 0.930 . S
H601 C549 0.933 1_545 S
H602 C554 0.929 . S
H603 C555 0.930 . S
H604 C562 0.929 . S
H605 C563 0.930 . S
H606 C564 0.930 . S
H607 C565 0.930 . S
H608 C567 0.929 . S
H609 C568 0.930 . S
H610 C569 0.930 . S
H611 C570 0.930 . S
H612 C574 0.929 . S
H613 C576 0.936 . S
H614 C582 0.929 . S
H615 C583 0.930 . S
Li616 N633 1.990 . S
Li616 O676 1.956 . S
Li616 O677 1.970 . S
Li616 O678 1.961 . S
Li617 N641 1.990 . S
Li617 O676 1.970 . S
Li617 O677 1.956 . S
Li617 O679 1.961 . S
Li618 N663 1.990 . S
Li618 O676 1.961 . S
Li618 O678 1.956 . S
Li618 O679 1.970 . S
Li619 N669 1.990 . S
Li619 O677 1.961 . S
Li619 O678 1.970 . S
Li619 O679 1.956 . S
C620 C622 1.348 . S
C620 C623 1.356 . S
C620 O676 1.325 . S
N621 C624 1.314 . S
N621 C625 1.279 . S
C622 C620 1.348 . S
C622 C624 1.353 . S
C622 H680 0.929 . S
C623 C620 1.356 . S
C623 C625 1.358 . S
C623 H681 0.930 . S
C624 N621 1.314 . S
C624 C622 1.353 . S
C624 H682 0.930 . S
C625 N621 1.279 . S
C625 C623 1.358 . S
C625 H683 0.930 . S
C626 C629 1.348 . S
C626 C630 1.356 . S
C626 O677 1.325 . S
C627 N628 1.279 . S
C627 C630 1.358 . S
C627 H684 0.930 . S
N628 C627 1.279 . S
N628 C631 1.314 . S
C629 C626 1.348 . S
C629 C631 1.353 . S
C629 H685 0.929 . S
C630 C626 1.356 . S
C630 C627 1.358 . S
C630 H686 0.930 . S
C631 N628 1.314 . S
C631 C629 1.353 . S
C631 H687 0.930 . S
C632 N633 1.314 . S
C632 C637 1.353 . S
C632 H638 0.930 . S
N633 Li616 1.990 . S
N633 C632 1.314 . S
N633 C635 1.279 . S
C634 C635 1.358 . S
C634 C636 1.356 . S
C634 H688 0.930 . S
C635 N633 1.279 . S
C635 C634 1.358 . S
C635 H639 0.930 . S
C636 C634 1.356 . S
C636 C637 1.348 . S
C637 C632 1.353 . S
C637 C636 1.348 . S
C637 H689 0.929 . S
H638 C632 0.930 . S
H639 C635 0.930 . S
C640 N641 1.314 . S
C640 C642 1.353 . S
C640 H646 0.930 . S
N641 Li617 1.990 . S
N641 C640 1.314 . S
N641 C644 1.279 . S
C642 C640 1.353 . S
C642 C645 1.348 . S
C642 H690 0.929 . S
C643 C644 1.358 . S
C643 C645 1.356 . S
C643 H691 0.930 . S
C644 N641 1.279 . S
C644 C643 1.358 . S
C644 H647 0.930 . S
C645 C642 1.348 . S
C645 C643 1.356 . S
H646 C640 0.930 . S
H647 C644 0.930 . S
C648 C650 1.348 . S
C648 C651 1.356 . S
C648 O678 1.325 . S
N649 C652 1.314 . S
N649 C653 1.279 . S
C650 C648 1.348 . S
C650 C652 1.353 . S
C650 H692 0.929 . S
C651 C648 1.356 . S
C651 C653 1.358 . S
C651 H693 0.930 . S
C652 N649 1.314 . S
C652 C650 1.353 . S
C652 H694 0.930 . S
C653 N649 1.279 . S
C653 C651 1.358 . S
C653 H695 0.930 . S
C654 C655 1.348 . S
C654 C656 1.356 . S
C654 O679 1.325 . S
C655 C654 1.348 . S
C655 C657 1.353 . S
C655 H696 0.929 . S
C656 C654 1.356 . S
C656 C658 1.358 . S
C656 H697 0.930 . S
C657 C655 1.353 . S
C657 N659 1.314 . S
C657 H698 0.930 . S
C658 C656 1.358 . S
C658 N659 1.279 . S
C658 H699 0.930 . S
N659 C657 1.314 . S
N659 C658 1.279 . S
C660 C662 1.353 . S
C660 N663 1.314 . S
C660 H666 0.930 . S
C661 N663 1.279 . S
C661 C664 1.358 . S
C661 H667 0.930 . S
C662 C660 1.353 . S
C662 C665 1.348 . S
C662 H700 0.929 . S
N663 Li618 1.990 . S
N663 C660 1.314 . S
N663 C661 1.279 . S
C664 C661 1.358 . S
C664 C665 1.356 . S
C664 H701 0.930 . S
C665 C662 1.348 . S
C665 C664 1.356 . S
H666 C660 0.930 . S
H667 C661 0.930 . S
C668 N669 1.314 . S
C668 C670 1.353 . S
C668 H674 0.930 . S
N669 Li619 1.990 . S
N669 C668 1.314 . S
N669 C672 1.279 . S
C670 C668 1.353 . S
C670 C673 1.348 . S
C670 H702 0.929 . S
C671 C672 1.358 . S
C671 C673 1.356 . S
C671 H703 0.930 . S
C672 N669 1.279 . S
C672 C671 1.358 . S
C672 H675 0.930 . S
C673 C670 1.348 . S
C673 C671 1.356 . S
H674 C668 0.930 . S
H675 C672 0.930 . S
O676 Li616 1.956 . S
O676 Li617 1.970 . S
O676 Li618 1.961 . S
O676 C620 1.325 . S
O677 Li616 1.970 . S
O677 Li617 1.956 . S
O677 Li619 1.961 . S
O677 C626 1.325 . S
O678 Li616 1.961 . S
O678 Li618 1.956 . S
O678 Li619 1.970 . S
O678 C648 1.325 . S
O679 Li617 1.961 . S
O679 Li618 1.970 . S
O679 Li619 1.956 . S
O679 C654 1.325 . S
H680 C622 0.929 . S
H681 C623 0.930 . S
H682 C624 0.930 . S
H683 C625 0.930 . S
H684 C627 0.930 . S
H685 C629 0.929 . S
H686 C630 0.930 . S
H687 C631 0.930 . S
H688 C634 0.930 . S
H689 C637 0.929 . S
H690 C642 0.929 . S
H691 C643 0.930 . S
H692 C650 0.929 . S
H693 C651 0.930 . S
H694 C652 0.930 . S
H695 C653 0.930 . S
H696 C655 0.929 . S
H697 C656 0.930 . S
H698 C657 0.930 . S
H699 C658 0.930 . S
H700 C662 0.929 . S
H701 C664 0.930 . S
H702 C670 0.929 . S
H703 C671 0.930 . S
Li704 N721 1.990 . S
Li704 O764 1.956 . S
Li704 O765 1.970 . S
Li704 O766 1.961 . S
Li705 N729 1.990 . S
Li705 O764 1.970 . S
Li705 O765 1.956 . S
Li705 O767 1.961 . S
Li706 N751 1.990 . S
Li706 O764 1.961 . S
Li706 O766 1.956 . S
Li706 O767 1.970 . S
Li707 N757 1.990 . S
Li707 O765 1.961 . S
Li707 O766 1.970 . S
Li707 O767 1.956 . S
C708 C710 1.348 . S
C708 C711 1.356 . S
C708 O764 1.325 . S
N709 C712 1.314 . S
N709 C713 1.279 . S
C710 C708 1.348 . S
C710 C712 1.353 . S
C710 H768 0.929 . S
C711 C708 1.356 . S
C711 C713 1.358 . S
C711 H769 0.930 . S
C712 N709 1.314 . S
C712 C710 1.353 . S
C712 H770 0.930 . S
C713 N709 1.279 . S
C713 C711 1.358 . S
C713 H771 0.930 . S
C714 C717 1.348 . S
C714 C718 1.356 . S
C714 O765 1.325 . S
C715 N716 1.279 . S
C715 C718 1.358 . S
C715 H772 0.930 . S
N716 C715 1.279 . S
N716 C719 1.314 . S
C717 C714 1.348 . S
C717 C719 1.353 . S
C717 H773 0.929 . S
C718 C714 1.356 . S
C718 C715 1.358 . S
C718 H774 0.930 . S
C719 N716 1.314 . S
C719 C717 1.353 . S
C719 H775 0.930 . S
C720 N721 1.314 . S
C720 C725 1.353 . S
C720 H726 0.930 . S
N721 Li704 1.990 . S
N721 C720 1.314 . S
N721 C723 1.279 . S
C722 C723 1.358 . S
C722 C724 1.356 . S
C722 H776 0.930 . S
C723 N721 1.279 . S
C723 C722 1.358 . S
C723 H727 0.930 . S
C724 C722 1.356 . S
C724 C725 1.348 . S
C725 C720 1.353 . S
C725 C724 1.348 . S
C725 H777 0.929 . S
H726 C720 0.930 . S
H727 C723 0.930 . S
C728 N729 1.314 . S
C728 C730 1.353 . S
C728 H734 0.930 . S
N729 Li705 1.990 . S
N729 C728 1.314 . S
N729 C732 1.279 . S
C730 C728 1.353 . S
C730 C733 1.348 . S
C730 H778 0.930 1_455 S
C731 C732 1.358 . S
C731 C733 1.356 . S
C731 H779 0.930 . S
C732 N729 1.279 . S
C732 C731 1.358 . S
C732 H735 0.930 . S
C733 C730 1.348 . S
C733 C731 1.356 . S
H734 C728 0.930 . S
H735 C732 0.930 . S
C736 C738 1.348 . S
C736 C739 1.356 . S
C736 O766 1.325 . S
N737 C740 1.314 . S
N737 C741 1.279 . S
C738 C736 1.348 . S
C738 C740 1.353 . S
C738 H780 0.929 . S
C739 C736 1.356 . S
C739 C741 1.358 . S
C739 H781 0.930 . S
C740 N737 1.314 . S
C740 C738 1.353 . S
C740 H782 0.930 . S
C741 N737 1.279 . S
C741 C739 1.358 . S
C741 H783 0.930 . S
C742 C743 1.348 . S
C742 C744 1.356 1_455 S
C742 O767 1.325 . S
C743 C742 1.348 . S
C743 C745 1.353 1_455 S
C743 H784 0.929 . S
C744 C742 1.356 1_655 S
C744 C746 1.358 . S
C744 H785 0.930 . S
C745 C743 1.353 1_655 S
C745 N747 1.314 . S
C745 H786 0.930 . S
C746 C744 1.358 . S
C746 N747 1.279 . S
C746 H787 0.930 . S
N747 C745 1.314 . S
N747 C746 1.279 . S
C748 C750 1.353 . S
C748 N751 1.314 . S
C748 H754 0.930 . S
C749 N751 1.279 . S
C749 C752 1.358 . S
C749 H755 0.930 . S
C750 C748 1.353 . S
C750 C753 1.348 . S
C750 H788 0.929 . S
N751 Li706 1.990 . S
N751 C748 1.314 . S
N751 C749 1.279 . S
C752 C749 1.358 . S
C752 C753 1.356 . S
C752 H789 0.930 . S
C753 C750 1.348 . S
C753 C752 1.356 . S
H754 C748 0.930 . S
H755 C749 0.930 . S
C756 N757 1.314 . S
C756 C758 1.353 . S
C756 H762 0.930 . S
N757 Li707 1.990 . S
N757 C756 1.314 . S
N757 C760 1.279 . S
C758 C756 1.353 . S
C758 C761 1.348 . S
C758 H790 0.929 . S
C759 C760 1.355 1_655 S
C759 C761 1.357 1_655 S
C759 H791 0.932 . S
C760 N757 1.279 . S
C760 C759 1.355 1_455 S
C760 H763 0.930 . S
C761 C758 1.348 . S
C761 C759 1.357 1_455 S
H762 C756 0.930 . S
H763 C760 0.930 . S
O764 Li704 1.956 . S
O764 Li705 1.970 . S
O764 Li706 1.961 . S
O764 C708 1.325 . S
O765 Li704 1.970 . S
O765 Li705 1.956 . S
O765 Li707 1.961 . S
O765 C714 1.325 . S
O766 Li704 1.961 . S
O766 Li706 1.956 . S
O766 Li707 1.970 . S
O766 C736 1.325 . S
O767 Li705 1.961 . S
O767 Li706 1.970 . S
O767 Li707 1.956 . S
O767 C742 1.325 . S
H768 C710 0.929 . S
H769 C711 0.930 . S
H770 C712 0.930 . S
H771 C713 0.930 . S
H772 C715 0.930 . S
H773 C717 0.929 . S
H774 C718 0.930 . S
H775 C719 0.930 . S
H776 C722 0.930 . S
H777 C725 0.929 . S
H778 C730 0.930 1_655 S
H779 C731 0.930 . S
H780 C738 0.929 . S
H781 C739 0.930 . S
H782 C740 0.930 . S
H783 C741 0.930 . S
H784 C743 0.929 . S
H785 C744 0.930 . S
H786 C745 0.930 . S
H787 C746 0.930 . S
H788 C750 0.929 . S
H789 C752 0.930 . S
H790 C758 0.929 . S
H791 C759 0.932 . S
Li792 N809 1.990 . S
Li792 O852 1.956 . S
Li792 O853 1.970 . S
Li792 O854 1.961 . S
Li793 N817 1.990 . S
Li793 O852 1.970 . S
Li793 O853 1.956 . S
Li793 O855 1.961 . S
Li794 N839 1.990 . S
Li794 O852 1.961 . S
Li794 O854 1.956 . S
Li794 O855 1.970 . S
Li795 N845 1.990 . S
Li795 O853 1.961 . S
Li795 O854 1.970 . S
Li795 O855 1.956 . S
C796 C798 1.348 . S
C796 C799 1.356 . S
C796 O852 1.325 . S
N797 C800 1.314 . S
N797 C801 1.279 . S
C798 C796 1.348 . S
C798 C800 1.353 . S
C798 H856 0.929 . S
C799 C796 1.356 . S
C799 C801 1.358 . S
C799 H857 0.930 . S
C800 N797 1.314 . S
C800 C798 1.353 . S
C800 H858 0.930 . S
C801 N797 1.279 . S
C801 C799 1.358 . S
C801 H859 0.930 . S
C802 C805 1.348 . S
C802 C806 1.356 . S
C802 O853 1.325 . S
C803 N804 1.279 . S
C803 C806 1.358 . S
C803 H860 0.930 . S
N804 C803 1.279 . S
N804 C807 1.314 . S
C805 C802 1.348 . S
C805 C807 1.353 . S
C805 H861 0.929 . S
C806 C802 1.356 . S
C806 C803 1.358 . S
C806 H862 0.930 . S
C807 N804 1.314 . S
C807 C805 1.353 . S
C807 H863 0.930 . S
C808 N809 1.314 . S
C808 C813 1.353 . S
C808 H814 0.930 . S
N809 Li792 1.990 . S
N809 C808 1.314 . S
N809 C811 1.279 . S
C810 C811 1.358 . S
C810 C812 1.356 . S
C810 H864 0.930 . S
C811 N809 1.279 . S
C811 C810 1.358 . S
C811 H815 0.930 . S
C812 C810 1.356 . S
C812 C813 1.348 . S
C813 C808 1.353 . S
C813 C812 1.348 . S
C813 H865 0.929 . S
H814 C808 0.930 . S
H815 C811 0.930 . S
C816 N817 1.314 . S
C816 C818 1.353 . S
C816 H822 0.930 . S
N817 Li793 1.990 . S
N817 C816 1.314 . S
N817 C820 1.279 . S
C818 C816 1.353 . S
C818 C821 1.348 . S
C818 H866 0.933 1_545 S
C819 C820 1.358 . S
C819 C821 1.356 . S
C819 H867 0.930 . S
C820 N817 1.279 . S
C820 C819 1.358 . S
C820 H823 0.930 . S
C821 C818 1.348 . S
C821 C819 1.356 . S
H822 C816 0.930 . S
H823 C820 0.930 . S
C824 C826 1.348 . S
C824 C827 1.356 . S
C824 O854 1.325 . S
N825 C828 1.314 . S
N825 C829 1.279 . S
C826 C824 1.348 . S
C826 C828 1.353 . S
C826 H868 0.929 . S
C827 C824 1.356 . S
C827 C829 1.358 . S
C827 H869 0.930 . S
C828 N825 1.314 . S
C828 C826 1.353 . S
C828 H870 0.930 . S
C829 N825 1.279 . S
C829 C827 1.358 . S
C829 H871 0.930 . S
C830 C831 1.348 . S
C830 C832 1.356 1_545 S
C830 O855 1.325 . S
C831 C830 1.348 . S
C831 C833 1.353 1_545 S
C831 H872 0.929 . S
C832 C830 1.356 1_565 S
C832 C834 1.358 . S
C832 H873 0.930 . S
C833 C831 1.353 1_565 S
C833 N835 1.314 . S
C833 H874 0.930 . S
C834 C832 1.358 . S
C834 N835 1.279 . S
C834 H875 0.930 . S
N835 C833 1.314 . S
N835 C834 1.279 . S
C836 C838 1.353 . S
C836 N839 1.314 . S
C836 H842 0.930 . S
C837 N839 1.279 . S
C837 C840 1.358 . S
C837 H843 0.930 . S
C838 C836 1.353 . S
C838 C841 1.348 . S
C838 H876 0.929 . S
N839 Li794 1.990 . S
N839 C836 1.314 . S
N839 C837 1.279 . S
C840 C837 1.358 . S
C840 C841 1.356 . S
C840 H877 0.930 . S
C841 C838 1.348 . S
C841 C840 1.356 . S
H842 C836 0.930 . S
H843 C837 0.930 . S
C844 N845 1.314 . S
C844 C846 1.353 . S
C844 H850 0.930 . S
N845 Li795 1.990 . S
N845 C844 1.314 . S
N845 C848 1.279 . S
C846 C844 1.353 . S
C846 C849 1.348 . S
C846 H878 0.929 . S
C847 C848 1.356 1_565 S
C847 C849 1.352 1_565 S
C847 H879 0.936 . S
C848 N845 1.279 . S
C848 C847 1.356 1_545 S
C848 H851 0.930 . S
C849 C846 1.348 . S
C849 C847 1.352 1_545 S
H850 C844 0.930 . S
H851 C848 0.930 . S
O852 Li792 1.956 . S
O852 Li793 1.970 . S
O852 Li794 1.961 . S
O852 C796 1.325 . S
O853 Li792 1.970 . S
O853 Li793 1.956 . S
O853 Li795 1.961 . S
O853 C802 1.325 . S
O854 Li792 1.961 . S
O854 Li794 1.956 . S
O854 Li795 1.970 . S
O854 C824 1.325 . S
O855 Li793 1.961 . S
O855 Li794 1.970 . S
O855 Li795 1.956 . S
O855 C830 1.325 . S
H856 C798 0.929 . S
H857 C799 0.930 . S
H858 C800 0.930 . S
H859 C801 0.930 . S
H860 C803 0.930 . S
H861 C805 0.929 . S
H862 C806 0.930 . S
H863 C807 0.930 . S
H864 C810 0.930 . S
H865 C813 0.929 . S
H866 C818 0.933 1_565 S
H867 C819 0.930 . S
H868 C826 0.929 . S
H869 C827 0.930 . S
H870 C828 0.930 . S
H871 C829 0.930 . S
H872 C831 0.929 . S
H873 C832 0.930 . S
H874 C833 0.930 . S
H875 C834 0.930 . S
H876 C838 0.929 . S
H877 C840 0.930 . S
H878 C846 0.929 . S
H879 C847 0.936 . S
Li880 N897 1.990 . S
Li880 O940 1.956 . S
Li880 O941 1.970 . S
Li880 O942 1.961 . S
Li881 N905 1.990 . S
Li881 O940 1.970 . S
Li881 O941 1.956 . S
Li881 O943 1.961 . S
Li882 N927 1.990 . S
Li882 O940 1.961 . S
Li882 O942 1.956 . S
Li882 O943 1.970 . S
Li883 N933 1.990 . S
Li883 O941 1.961 . S
Li883 O942 1.970 . S
Li883 O943 1.956 . S
C884 C886 1.348 . S
C884 C887 1.356 . S
C884 O940 1.325 . S
N885 C888 1.314 . S
N885 C889 1.279 . S
C886 C884 1.348 . S
C886 C888 1.353 . S
C886 H944 0.929 . S
C887 C884 1.356 . S
C887 C889 1.358 . S
C887 H945 0.930 . S
C888 N885 1.314 . S
C888 C886 1.353 . S
C888 H946 0.930 . S
C889 N885 1.279 . S
C889 C887 1.358 . S
C889 H947 0.930 . S
C890 C893 1.348 . S
C890 C894 1.356 . S
C890 O941 1.325 . S
C891 N892 1.279 . S
C891 C894 1.358 . S
C891 H948 0.930 . S
N892 C891 1.279 . S
N892 C895 1.314 . S
C893 C890 1.348 . S
C893 C895 1.353 . S
C893 H949 0.929 . S
C894 C890 1.356 . S
C894 C891 1.358 . S
C894 H950 0.930 . S
C895 N892 1.314 . S
C895 C893 1.353 . S
C895 H951 0.930 . S
C896 N897 1.314 . S
C896 C901 1.353 . S
C896 H902 0.930 . S
N897 Li880 1.990 . S
N897 C896 1.314 . S
N897 C899 1.279 . S
C898 C899 1.358 . S
C898 C900 1.356 . S
C898 H952 0.930 . S
C899 N897 1.279 . S
C899 C898 1.358 . S
C899 H903 0.930 . S
C900 C898 1.356 . S
C900 C901 1.348 . S
C901 C896 1.353 . S
C901 C900 1.348 . S
C901 H953 0.929 . S
H902 C896 0.930 . S
H903 C899 0.930 . S
C904 N905 1.314 . S
C904 C906 1.353 . S
C904 H910 0.930 . S
N905 Li881 1.990 . S
N905 C904 1.314 . S
N905 C908 1.279 . S
C906 C904 1.353 . S
C906 C909 1.348 . S
C906 H954 0.929 . S
C907 C908 1.358 . S
C907 C909 1.356 . S
C907 H955 0.930 . S
C908 N905 1.279 . S
C908 C907 1.358 . S
C908 H911 0.930 . S
C909 C906 1.348 . S
C909 C907 1.356 . S
H910 C904 0.930 . S
H911 C908 0.930 . S
C912 C914 1.348 . S
C912 C915 1.356 . S
C912 O942 1.325 . S
N913 C916 1.314 . S
N913 C917 1.279 . S
C914 C912 1.348 . S
C914 C916 1.353 . S
C914 H956 0.929 . S
C915 C912 1.356 . S
C915 C917 1.358 . S
C915 H957 0.930 . S
C916 N913 1.314 . S
C916 C914 1.353 . S
C916 H958 0.930 . S
C917 N913 1.279 . S
C917 C915 1.358 . S
C917 H959 0.930 . S
C918 C919 1.348 . S
C918 C920 1.356 . S
C918 O943 1.325 . S
C919 C918 1.348 . S
C919 C921 1.353 . S
C919 H960 0.929 . S
C920 C918 1.356 . S
C920 C922 1.358 . S
C920 H961 0.930 . S
C921 C919 1.353 . S
C921 N923 1.314 . S
C921 H962 0.930 . S
C922 C920 1.358 . S
C922 N923 1.279 . S
C922 H963 0.930 . S
N923 C921 1.314 . S
N923 C922 1.279 . S
C924 C926 1.353 . S
C924 N927 1.314 . S
C924 H930 0.930 . S
C925 N927 1.279 . S
C925 C928 1.358 . S
C925 H931 0.930 . S
C926 C924 1.353 . S
C926 C929 1.348 . S
C926 H964 0.929 . S
N927 Li882 1.990 . S
N927 C924 1.314 . S
N927 C925 1.279 . S
C928 C925 1.358 . S
C928 C929 1.356 . S
C928 H965 0.930 . S
C929 C926 1.348 . S
C929 C928 1.356 . S
H930 C924 0.930 . S
H931 C925 0.930 . S
C932 N933 1.314 . S
C932 C934 1.353 . S
C932 H938 0.930 . S
N933 Li883 1.990 . S
N933 C932 1.314 . S
N933 C936 1.279 . S
C934 C932 1.353 . S
C934 C937 1.348 . S
C934 H966 0.929 . S
C935 C936 1.358 . S
C935 C937 1.356 . S
C935 H967 0.930 . S
C936 N933 1.279 . S
C936 C935 1.358 . S
C936 H939 0.930 . S
C937 C934 1.348 . S
C937 C935 1.356 . S
H938 C932 0.930 . S
H939 C936 0.930 . S
O940 Li880 1.956 . S
O940 Li881 1.970 . S
O940 Li882 1.961 . S
O940 C884 1.325 . S
O941 Li880 1.970 . S
O941 Li881 1.956 . S
O941 Li883 1.961 . S
O941 C890 1.325 . S
O942 Li880 1.961 . S
O942 Li882 1.956 . S
O942 Li883 1.970 . S
O942 C912 1.325 . S
O943 Li881 1.961 . S
O943 Li882 1.970 . S
O943 Li883 1.956 . S
O943 C918 1.325 . S
H944 C886 0.929 . S
H945 C887 0.930 . S
H946 C888 0.930 . S
H947 C889 0.930 . S
H948 C891 0.930 . S
H949 C893 0.929 . S
H950 C894 0.930 . S
H951 C895 0.930 . S
H952 C898 0.930 . S
H953 C901 0.929 . S
H954 C906 0.929 . S
H955 C907 0.930 . S
H956 C914 0.929 . S
H957 C915 0.930 . S
H958 C916 0.930 . S
H959 C917 0.930 . S
H960 C919 0.929 . S
H961 C920 0.930 . S
H962 C921 0.930 . S
H963 C922 0.930 . S
H964 C926 0.929 . S
H965 C928 0.930 . S
H966 C934 0.929 . S
H967 C935 0.930 . S
Li968 N985 1.990 . S
Li968 O1028 1.956 . S
Li968 O1029 1.970 . S
Li968 O1030 1.961 . S
Li969 N993 1.990 . S
Li969 O1028 1.970 . S
Li969 O1029 1.956 . S
Li969 O1031 1.961 . S
Li970 N1015 1.990 . S
Li970 O1028 1.961 . S
Li970 O1030 1.956 . S
Li970 O1031 1.970 . S
Li971 N1021 1.990 . S
Li971 O1029 1.961 . S
Li971 O1030 1.970 . S
Li971 O1031 1.956 . S
C972 C974 1.348 . S
C972 C975 1.356 . S
C972 O1028 1.325 . S
N973 C976 1.314 . S
N973 C977 1.279 . S
C974 C972 1.348 . S
C974 C976 1.353 . S
C974 H1032 0.929 . S
C975 C972 1.356 . S
C975 C977 1.358 . S
C975 H1033 0.930 . S
C976 N973 1.314 . S
C976 C974 1.353 . S
C976 H1034 0.930 . S
C977 N973 1.279 . S
C977 C975 1.358 . S
C977 H1035 0.930 . S
C978 C981 1.348 . S
C978 C982 1.356 . S
C978 O1029 1.325 . S
C979 N980 1.279 . S
C979 C982 1.358 . S
C979 H1036 0.930 . S
N980 C979 1.279 . S
N980 C983 1.314 . S
C981 C978 1.348 . S
C981 C983 1.353 . S
C981 H1037 0.929 . S
C982 C978 1.356 . S
C982 C979 1.358 . S
C982 H1038 0.930 . S
C983 N980 1.314 . S
C983 C981 1.353 . S
C983 H1039 0.930 . S
C984 N985 1.314 . S
C984 C989 1.353 . S
C984 H990 0.930 . S
N985 Li968 1.990 . S
N985 C984 1.314 . S
N985 C987 1.279 . S
C986 C987 1.358 . S
C986 C988 1.356 . S
C986 H1040 0.930 . S
C987 N985 1.279 . S
C987 C986 1.358 . S
C987 H991 0.930 . S
C988 C986 1.356 . S
C988 C989 1.348 . S
C989 C984 1.353 . S
C989 C988 1.348 . S
C989 H1041 0.929 . S
H990 C984 0.930 . S
H991 C987 0.930 . S
C992 N993 1.314 . S
C992 C994 1.353 . S
C992 H998 0.930 . S
N993 Li969 1.990 . S
N993 C992 1.314 . S
N993 C996 1.279 . S
C994 C992 1.353 . S
C994 C997 1.348 . S
C994 H1042 0.930 1_655 S
C995 C996 1.358 . S
C995 C997 1.356 . S
C995 H1043 0.930 . S
C996 N993 1.279 . S
C996 C995 1.358 . S
C996 H999 0.930 . S
C997 C994 1.348 . S
C997 C995 1.356 . S
H998 C992 0.930 . S
H999 C996 0.930 . S
C1000 C1002 1.348 . S
C1000 C1003 1.356 . S
C1000 O1030 1.325 . S
N1001 C1004 1.314 . S
N1001 C1005 1.279 . S
C1002 C1000 1.348 . S
C1002 C1004 1.353 . S
C1002 H1044 0.929 . S
C1003 C1000 1.356 . S
C1003 C1005 1.358 . S
C1003 H1045 0.930 . S
C1004 N1001 1.314 . S
C1004 C1002 1.353 . S
C1004 H1046 0.930 . S
C1005 N1001 1.279 . S
C1005 C1003 1.358 . S
C1005 H1047 0.930 . S
C1006 C1007 1.348 . S
C1006 C1008 1.356 1_655 S
C1006 O1031 1.325 . S
C1007 C1006 1.348 . S
C1007 C1009 1.353 1_655 S
C1007 H1048 0.929 . S
C1008 C1006 1.356 1_455 S
C1008 C1010 1.358 . S
C1008 H1049 0.930 . S
C1009 C1007 1.353 1_455 S
C1009 N1011 1.314 . S
C1009 H1050 0.930 . S
C1010 C1008 1.358 . S
C1010 N1011 1.279 . S
C1010 H1051 0.930 . S
N1011 C1009 1.314 . S
N1011 C1010 1.279 . S
C1012 C1014 1.353 . S
C1012 N1015 1.314 . S
C1012 H1018 0.930 . S
C1013 N1015 1.279 . S
C1013 C1016 1.358 . S
C1013 H1019 0.930 . S
C1014 C1012 1.353 . S
C1014 C1017 1.348 . S
C1014 H1052 0.929 . S
N1015 Li970 1.990 . S
N1015 C1012 1.314 . S
N1015 C1013 1.279 . S
C1016 C1013 1.358 . S
C1016 C1017 1.356 . S
C1016 H1053 0.930 . S
C1017 C1014 1.348 . S
C1017 C1016 1.356 . S
H1018 C1012 0.930 . S
H1019 C1013 0.930 . S
C1020 N1021 1.314 . S
C1020 C1022 1.353 . S
C1020 H1026 0.930 . S
N1021 Li971 1.990 . S
N1021 C1020 1.314 . S
N1021 C1024 1.279 . S
C1022 C1020 1.353 . S
C1022 C1025 1.348 . S
C1022 H1054 0.929 . S
C1023 C1024 1.355 1_455 S
C1023 C1025 1.357 1_455 S
C1023 H1055 0.932 . S
C1024 N1021 1.279 . S
C1024 C1023 1.355 1_655 S
C1024 H1027 0.930 . S
C1025 C1022 1.348 . S
C1025 C1023 1.357 1_655 S
H1026 C1020 0.930 . S
H1027 C1024 0.930 . S
O1028 Li968 1.956 . S
O1028 Li969 1.970 . S
O1028 Li970 1.961 . S
O1028 C972 1.325 . S
O1029 Li968 1.970 . S
O1029 Li969 1.956 . S
O1029 Li971 1.961 . S
O1029 C978 1.325 . S
O1030 Li968 1.961 . S
O1030 Li970 1.956 . S
O1030 Li971 1.970 . S
O1030 C1000 1.325 . S
O1031 Li969 1.961 . S
O1031 Li970 1.970 . S
O1031 Li971 1.956 . S
O1031 C1006 1.325 . S
H1032 C974 0.929 . S
H1033 C975 0.930 . S
H1034 C976 0.930 . S
H1035 C977 0.930 . S
H1036 C979 0.930 . S
H1037 C981 0.929 . S
H1038 C982 0.930 . S
H1039 C983 0.930 . S
H1040 C986 0.930 . S
H1041 C989 0.929 . S
H1042 C994 0.930 1_455 S
H1043 C995 0.930 . S
H1044 C1002 0.929 . S
H1045 C1003 0.930 . S
H1046 C1004 0.930 . S
H1047 C1005 0.930 . S
H1048 C1007 0.929 . S
H1049 C1008 0.930 . S
H1050 C1009 0.930 . S
H1051 C1010 0.930 . S
H1052 C1014 0.929 . S
H1053 C1016 0.930 . S
H1054 C1022 0.929 . S
H1055 C1023 0.932 . S
C57 C997 1.571 1_454 S
C548 C145 1.571 1_565 S
C225 C636 1.571 1_554 S
C733 C321 1.571 1_455 S
C821 C401 1.571 1_546 S
C900 C497 1.571 . S
C293 C761 1.569 1_656 S
C372 C849 1.568 1_565 S
C469 C929 1.568 1_556 S
C1025 C29 1.569 1_655 S
C117 C577 1.569 1_546 S
C196 C665 1.569 . S
C753 C20 1.534 . S
C841 C108 1.534 . S
C205 C937 1.534 . S
C284 C1017 1.534 . S
C381 C585 1.534 . S
C673 C460 1.534 . S
C49 C909 0.909 . S
C988 C137 0.909 . S
C233 C557 0.910 . S
C313 C645 0.909 . S
C409 C724 0.909 . S
C489 C812 0.910 . S
