# Generated by pormake.
# Topology yfq, (5)-cn, num edge types: 1
# Building blocks:
#     Node 0, Type 0, BuildingBlock: BEQFEK_clean_sbu_0, # of connection points: 5
#     Node 1, Type 0, BuildingBlock: BEQFEK_clean_sbu_0, # of connection points: 5
#     Node 2, Type 0, BuildingBlock: BEQFEK_clean_sbu_0, # of connection points: 5
#     Node 3, Type 0, BuildingBlock: BEQFEK_clean_sbu_0, # of connection points: 5
#     Node 4, Type 0, BuildingBlock: BEQFEK_clean_sbu_0, # of connection points: 5
#     Node 5, Type 0, BuildingBlock: BEQFEK_clean_sbu_0, # of connection points: 5
#     Node 6, Type 0, BuildingBlock: BEQFEK_clean_sbu_0, # of connection points: 5
#     Node 7, Type 0, BuildingBlock: BEQFEK_clean_sbu_0, # of connection points: 5
#     Node 8, Type 0, BuildingBlock: BEQFEK_clean_sbu_0, # of connection points: 5
#     Node 9, Type 0, BuildingBlock: BEQFEK_clean_sbu_0, # of connection points: 5
#     Node 10, Type 0, BuildingBlock: BEQFEK_clean_sbu_0, # of connection points: 5
#     Node 11, Type 0, BuildingBlock: BEQFEK_clean_sbu_0, # of connection points: 5
#     Node 12, Type 0, BuildingBlock: BEQFEK_clean_sbu_0, # of connection points: 5
#     Node 13, Type 0, BuildingBlock: BEQFEK_clean_sbu_0, # of connection points: 5
#     Node 14, Type 0, BuildingBlock: BEQFEK_clean_sbu_0, # of connection points: 5
#     Node 15, Type 0, BuildingBlock: BEQFEK_clean_sbu_0, # of connection points: 5
#     Node 16, Type 0, BuildingBlock: BEQFEK_clean_sbu_0, # of connection points: 5
#     Node 17, Type 0, BuildingBlock: BEQFEK_clean_sbu_0, # of connection points: 5
#     Node 18, Type 0, BuildingBlock: BEQFEK_clean_sbu_0, # of connection points: 5
#     Node 19, Type 0, BuildingBlock: BEQFEK_clean_sbu_0, # of connection points: 5
#     Node 20, Type 0, BuildingBlock: BEQFEK_clean_sbu_0, # of connection points: 5
#     Node 21, Type 0, BuildingBlock: BEQFEK_clean_sbu_0, # of connection points: 5
#     Node 22, Type 0, BuildingBlock: BEQFEK_clean_sbu_0, # of connection points: 5
#     Node 23, Type 0, BuildingBlock: BEQFEK_clean_sbu_0, # of connection points: 5
#     Node 24, Type 0, BuildingBlock: BEQFEK_clean_sbu_0, # of connection points: 5
#     Node 25, Type 0, BuildingBlock: BEQFEK_clean_sbu_0, # of connection points: 5
#     Node 26, Type 0, BuildingBlock: BEQFEK_clean_sbu_0, # of connection points: 5
#     Node 27, Type 0, BuildingBlock: BEQFEK_clean_sbu_0, # of connection points: 5
#     Node 28, Type 0, BuildingBlock: BEQFEK_clean_sbu_0, # of connection points: 5
#     Node 29, Type 0, BuildingBlock: BEQFEK_clean_sbu_0, # of connection points: 5
#     Node 30, Type 0, BuildingBlock: BEQFEK_clean_sbu_0, # of connection points: 5
#     Node 31, Type 0, BuildingBlock: BEQFEK_clean_sbu_0, # of connection points: 5
#     Edge 32, Type (0, 0), BuildingBlock: ZUJKAS_clean_linker_0, # of connection points: 2
#     Edge 33, Type (0, 0), BuildingBlock: ZUJKAS_clean_linker_0, # of connection points: 2
#     Edge 34, Type (0, 0), BuildingBlock: ZUJKAS_clean_linker_0, # of connection points: 2
#     Edge 35, Type (0, 0), BuildingBlock: ZUJKAS_clean_linker_0, # of connection points: 2
#     Edge 36, Type (0, 0), BuildingBlock: ZUJKAS_clean_linker_0, # of connection points: 2
#     Edge 37, Type (0, 0), BuildingBlock: ZUJKAS_clean_linker_0, # of connection points: 2
#     Edge 38, Type (0, 0), BuildingBlock: ZUJKAS_clean_linker_0, # of connection points: 2
#     Edge 39, Type (0, 0), BuildingBlock: ZUJKAS_clean_linker_0, # of connection points: 2
#     Edge 40, Type (0, 0), BuildingBlock: ZUJKAS_clean_linker_0, # of connection points: 2
#     Edge 41, Type (0, 0), BuildingBlock: ZUJKAS_clean_linker_0, # of connection points: 2
#     Edge 42, Type (0, 0), BuildingBlock: ZUJKAS_clean_linker_0, # of connection points: 2
#     Edge 43, Type (0, 0), BuildingBlock: ZUJKAS_clean_linker_0, # of connection points: 2
#     Edge 44, Type (0, 0), BuildingBlock: ZUJKAS_clean_linker_0, # of connection points: 2
#     Edge 45, Type (0, 0), BuildingBlock: ZUJKAS_clean_linker_0, # of connection points: 2
#     Edge 46, Type (0, 0), BuildingBlock: ZUJKAS_clean_linker_0, # of connection points: 2
#     Edge 47, Type (0, 0), BuildingBlock: ZUJKAS_clean_linker_0, # of connection points: 2
#     Edge 48, Type (0, 0), BuildingBlock: ZUJKAS_clean_linker_0, # of connection points: 2
#     Edge 49, Type (0, 0), BuildingBlock: ZUJKAS_clean_linker_0, # of connection points: 2
#     Edge 50, Type (0, 0), BuildingBlock: ZUJKAS_clean_linker_0, # of connection points: 2
#     Edge 51, Type (0, 0), BuildingBlock: ZUJKAS_clean_linker_0, # of connection points: 2
#     Edge 52, Type (0, 0), BuildingBlock: ZUJKAS_clean_linker_0, # of connection points: 2
#     Edge 53, Type (0, 0), BuildingBlock: ZUJKAS_clean_linker_0, # of connection points: 2
#     Edge 54, Type (0, 0), BuildingBlock: ZUJKAS_clean_linker_0, # of connection points: 2
#     Edge 55, Type (0, 0), BuildingBlock: ZUJKAS_clean_linker_0, # of connection points: 2
#     Edge 56, Type (0, 0), BuildingBlock: ZUJKAS_clean_linker_0, # of connection points: 2
#     Edge 57, Type (0, 0), BuildingBlock: ZUJKAS_clean_linker_0, # of connection points: 2
#     Edge 58, Type (0, 0), BuildingBlock: ZUJKAS_clean_linker_0, # of connection points: 2
#     Edge 59, Type (0, 0), BuildingBlock: ZUJKAS_clean_linker_0, # of connection points: 2
#     Edge 60, Type (0, 0), BuildingBlock: ZUJKAS_clean_linker_0, # of connection points: 2
#     Edge 61, Type (0, 0), BuildingBlock: ZUJKAS_clean_linker_0, # of connection points: 2
#     Edge 62, Type (0, 0), BuildingBlock: ZUJKAS_clean_linker_0, # of connection points: 2
#     Edge 63, Type (0, 0), BuildingBlock: ZUJKAS_clean_linker_0, # of connection points: 2
#     Edge 64, Type (0, 0), BuildingBlock: ZUJKAS_clean_linker_0, # of connection points: 2
#     Edge 65, Type (0, 0), BuildingBlock: ZUJKAS_clean_linker_0, # of connection points: 2
#     Edge 66, Type (0, 0), BuildingBlock: ZUJKAS_clean_linker_0, # of connection points: 2
#     Edge 67, Type (0, 0), BuildingBlock: ZUJKAS_clean_linker_0, # of connection points: 2
#     Edge 68, Type (0, 0), BuildingBlock: ZUJKAS_clean_linker_0, # of connection points: 2
#     Edge 69, Type (0, 0), BuildingBlock: ZUJKAS_clean_linker_0, # of connection points: 2
#     Edge 70, Type (0, 0), BuildingBlock: ZUJKAS_clean_linker_0, # of connection points: 2
#     Edge 71, Type (0, 0), BuildingBlock: ZUJKAS_clean_linker_0, # of connection points: 2
#     Edge 72, Type (0, 0), BuildingBlock: ZUJKAS_clean_linker_0, # of connection points: 2
#     Edge 73, Type (0, 0), BuildingBlock: ZUJKAS_clean_linker_0, # of connection points: 2
#     Edge 74, Type (0, 0), BuildingBlock: ZUJKAS_clean_linker_0, # of connection points: 2
#     Edge 75, Type (0, 0), BuildingBlock: ZUJKAS_clean_linker_0, # of connection points: 2
#     Edge 76, Type (0, 0), BuildingBlock: ZUJKAS_clean_linker_0, # of connection points: 2
#     Edge 77, Type (0, 0), BuildingBlock: ZUJKAS_clean_linker_0, # of connection points: 2
#     Edge 78, Type (0, 0), BuildingBlock: ZUJKAS_clean_linker_0, # of connection points: 2
#     Edge 79, Type (0, 0), BuildingBlock: ZUJKAS_clean_linker_0, # of connection points: 2
#     Edge 80, Type (0, 0), BuildingBlock: ZUJKAS_clean_linker_0, # of connection points: 2
#     Edge 81, Type (0, 0), BuildingBlock: ZUJKAS_clean_linker_0, # of connection points: 2
#     Edge 82, Type (0, 0), BuildingBlock: ZUJKAS_clean_linker_0, # of connection points: 2
#     Edge 83, Type (0, 0), BuildingBlock: ZUJKAS_clean_linker_0, # of connection points: 2
#     Edge 84, Type (0, 0), BuildingBlock: ZUJKAS_clean_linker_0, # of connection points: 2
#     Edge 85, Type (0, 0), BuildingBlock: ZUJKAS_clean_linker_0, # of connection points: 2
#     Edge 86, Type (0, 0), BuildingBlock: ZUJKAS_clean_linker_0, # of connection points: 2
#     Edge 87, Type (0, 0), BuildingBlock: ZUJKAS_clean_linker_0, # of connection points: 2
#     Edge 88, Type (0, 0), BuildingBlock: ZUJKAS_clean_linker_0, # of connection points: 2
#     Edge 89, Type (0, 0), BuildingBlock: ZUJKAS_clean_linker_0, # of connection points: 2
#     Edge 90, Type (0, 0), BuildingBlock: ZUJKAS_clean_linker_0, # of connection points: 2
#     Edge 91, Type (0, 0), BuildingBlock: ZUJKAS_clean_linker_0, # of connection points: 2
#     Edge 92, Type (0, 0), BuildingBlock: ZUJKAS_clean_linker_0, # of connection points: 2
#     Edge 93, Type (0, 0), BuildingBlock: ZUJKAS_clean_linker_0, # of connection points: 2
#     Edge 94, Type (0, 0), BuildingBlock: ZUJKAS_clean_linker_0, # of connection points: 2
#     Edge 95, Type (0, 0), BuildingBlock: ZUJKAS_clean_linker_0, # of connection points: 2
#     Edge 96, Type (0, 0), BuildingBlock: ZUJKAS_clean_linker_0, # of connection points: 2
#     Edge 97, Type (0, 0), BuildingBlock: ZUJKAS_clean_linker_0, # of connection points: 2
#     Edge 98, Type (0, 0), BuildingBlock: ZUJKAS_clean_linker_0, # of connection points: 2
#     Edge 99, Type (0, 0), BuildingBlock: ZUJKAS_clean_linker_0, # of connection points: 2
#     Edge 100, Type (0, 0), BuildingBlock: ZUJKAS_clean_linker_0, # of connection points: 2
#     Edge 101, Type (0, 0), BuildingBlock: ZUJKAS_clean_linker_0, # of connection points: 2
#     Edge 102, Type (0, 0), BuildingBlock: ZUJKAS_clean_linker_0, # of connection points: 2
#     Edge 103, Type (0, 0), BuildingBlock: ZUJKAS_clean_linker_0, # of connection points: 2
#     Edge 104, Type (0, 0), BuildingBlock: ZUJKAS_clean_linker_0, # of connection points: 2
#     Edge 105, Type (0, 0), BuildingBlock: ZUJKAS_clean_linker_0, # of connection points: 2
#     Edge 106, Type (0, 0), BuildingBlock: ZUJKAS_clean_linker_0, # of connection points: 2
#     Edge 107, Type (0, 0), BuildingBlock: ZUJKAS_clean_linker_0, # of connection points: 2
#     Edge 108, Type (0, 0), BuildingBlock: ZUJKAS_clean_linker_0, # of connection points: 2
#     Edge 109, Type (0, 0), BuildingBlock: ZUJKAS_clean_linker_0, # of connection points: 2
#     Edge 110, Type (0, 0), BuildingBlock: ZUJKAS_clean_linker_0, # of connection points: 2
#     Edge 111, Type (0, 0), BuildingBlock: ZUJKAS_clean_linker_0, # of connection points: 2
# Relax obj value: 0.340
# Max RMSD: 0.188
# Mean RMSD: 0.188
data_MOF--net-yfq--node1-BEQFEK_clean_sbu_0--edge1-ZUJKAS_clean_linker_0
_symmetry_space_group_name_H-M    P1
_symmetry_Int_Tables_number       1
_symmetry_cell_setting            triclinic
loop_
_symmetry_equiv_pos_as_xyz
'x, y, z'
_cell_length_a     72.277303
_cell_length_b     72.330674
_cell_length_c     76.699628
_cell_angle_alpha  89.999484
_cell_angle_beta   90.003177
_cell_angle_gamma 89.993259
loop_
_atom_site_label
_atom_site_type_symbol
_atom_site_fract_x
_atom_site_fract_y
_atom_site_fract_z
_atom_type_partial_charge
Co0 Co 0.12052 0.20378 0.29398 0.0
Co1 Co 0.1165 0.1754 0.26316 0.0
C2 C 0.09088 0.20767 0.26685 0.0
O3 O 0.0994 0.21331 0.28035 0.0
O4 O 0.09589 0.19307 0.25887 0.0
C5 C 0.12435 0.23947 0.30903 0.0
O6 O 0.11947 0.24467 0.29327 0.0
C7 C 0.11486 0.16391 0.22675 0.0
C8 C 0.12229 0.13432 0.22803 0.0
C9 C 0.11746 0.14829 0.21651 0.0
N10 N 0.11788 0.15934 0.24349 0.0
N11 N 0.12223 0.14161 0.2442 0.0
C12 C 0.11104 0.18325 0.22079 0.0
H13 H 0.1168 0.19335 0.23023 0.0
H14 H 0.11711 0.18576 0.20771 0.0
H15 H 0.09586 0.18538 0.22005 0.0
C16 C 0.15815 0.20685 0.27978 0.0
N17 N 0.14108 0.19948 0.2796 0.0
N18 N 0.13958 0.18797 0.26637 0.0
C19 C 0.15574 0.18793 0.25752 0.0
C20 C 0.16799 0.19981 0.2658 0.0
C21 C 0.16432 0.22145 0.29235 0.0
H22 H 0.16087 0.21716 0.30585 0.0
H23 H 0.15685 0.23448 0.28945 0.0
H24 H 0.17935 0.22423 0.29148 0.0
O25 O 0.11312 0.18075 0.30559 0.0
O26 O 0.10981 0.16039 0.2841 0.0
H27 H 0.15543 0.16221 0.24374 0.0
H28 H 0.17428 0.17737 0.23774 0.0
C29 C 0.15945 0.17679 0.24147 0.0
H30 H 0.15099 0.18225 0.23056 0.0
H31 H 0.12536 0.13455 0.25569 0.0
O32 O 0.12608 0.22233 0.31228 0.0
C33 C 0.10913 0.16458 0.30025 0.0
Co34 Co 0.04319 0.86702 0.54701 0.0
Co35 Co 0.07043 0.86301 0.5152 0.0
C36 C 0.03883 0.83679 0.52062 0.0
O37 O 0.03353 0.84536 0.53423 0.0
O38 O 0.05298 0.84202 0.51204 0.0
C39 C 0.00823 0.87081 0.56406 0.0
O40 O 0.00189 0.86438 0.5492 0.0
C41 C 0.08154 0.86043 0.47851 0.0
C42 C 0.11035 0.87068 0.47921 0.0
C43 C 0.09673 0.86428 0.46802 0.0
N44 N 0.08592 0.86465 0.49507 0.0
N45 N 0.10318 0.87069 0.49542 0.0
C46 C 0.06361 0.85159 0.47334 0.0
H47 H 0.05189 0.86 0.47829 0.0
H48 H 0.06235 0.84967 0.45908 0.0
H49 H 0.06269 0.83779 0.47956 0.0
C50 C 0.03752 0.90362 0.53137 0.0
N51 N 0.04611 0.88715 0.53183 0.0
N52 N 0.05723 0.88569 0.5183 0.0
C53 C 0.05587 0.90129 0.50868 0.0
C54 C 0.04321 0.91302 0.51663 0.0
C55 C 0.0241 0.9103 0.54484 0.0
H56 H 0.02929 0.90689 0.55806 0.0
H57 H 0.0106 0.90334 0.54286 0.0
H58 H 0.02201 0.92547 0.54396 0.0
O59 O 0.06692 0.86053 0.55787 0.0
O60 O 0.08644 0.8572 0.53571 0.0
H61 H 0.08053 0.90263 0.49334 0.0
H62 H 0.0625 0.91827 0.48625 0.0
C63 C 0.06539 0.90432 0.4916 0.0
H64 H 0.0606 0.8938 0.48212 0.0
H65 H 0.11001 0.87493 0.50672 0.0
O66 O 0.02556 0.87307 0.56595 0.0
C67 C 0.08296 0.85681 0.55201 0.0
Co68 Co 0.3817 0.79444 0.79569 0.0
Co69 Co 0.38387 0.82238 0.76434 0.0
C70 C 0.41145 0.79195 0.76835 0.0
O71 O 0.40357 0.78646 0.78224 0.0
O72 O 0.40528 0.80575 0.75982 0.0
C73 C 0.37935 0.75843 0.80997 0.0
O74 O 0.38401 0.75389 0.79397 0.0
C75 C 0.38453 0.83461 0.72795 0.0
C76 C 0.37452 0.86342 0.72984 0.0
C77 C 0.3804 0.85015 0.71805 0.0
N78 N 0.38101 0.83847 0.74477 0.0
N79 N 0.37505 0.85571 0.74583 0.0
C80 C 0.39321 0.81689 0.72201 0.0
H81 H 0.40787 0.81677 0.72626 0.0
H82 H 0.3862 0.805 0.72832 0.0
H83 H 0.39298 0.81525 0.70768 0.0
C84 C 0.34478 0.78786 0.7809 0.0
N85 N 0.36101 0.79691 0.78107 0.0
N86 N 0.36172 0.80832 0.7677 0.0
C87 C 0.34588 0.80666 0.75847 0.0
C88 C 0.33478 0.79351 0.7665 0.0
C89 C 0.33875 0.77415 0.79437 0.0
H90 H 0.34313 0.7788 0.80751 0.0
H91 H 0.34523 0.76058 0.79155 0.0
H92 H 0.3235 0.77237 0.79429 0.0
O93 O 0.38723 0.81796 0.80721 0.0
O94 O 0.3899 0.83786 0.78526 0.0
H95 H 0.34359 0.83157 0.7436 0.0
H96 H 0.32785 0.8135 0.73684 0.0
C97 C 0.342 0.81646 0.74169 0.0
H98 H 0.35214 0.81196 0.73173 0.0
H99 H 0.37136 0.86221 0.75746 0.0
O100 O 0.37737 0.77542 0.8138 0.0
C101 C 0.39052 0.83416 0.80152 0.0
Co102 Co 0.4522 0.13065 0.04655 0.0
Co103 Co 0.42447 0.13455 0.01518 0.0
C104 C 0.45668 0.16005 0.01927 0.0
O105 O 0.46189 0.15165 0.03298 0.0
O106 O 0.44227 0.15505 0.01098 0.0
C107 C 0.48784 0.12596 0.06122 0.0
O108 O 0.49284 0.12957 0.0451 0.0
C109 C 0.41322 0.13576 0.97861 0.0
C110 C 0.38341 0.12909 0.97995 0.0
C111 C 0.39755 0.13327 0.96842 0.0
N112 N 0.40858 0.13295 0.99537 0.0
N113 N 0.39075 0.12898 0.9961 0.0
C114 C 0.43195 0.14229 0.97295 0.0
H115 H 0.44285 0.13475 0.98026 0.0
H116 H 0.43417 0.14069 0.95876 0.0
H117 H 0.4333 0.15718 0.9762 0.0
C118 C 0.45641 0.09339 0.03192 0.0
N119 N 0.44835 0.11012 0.03206 0.0
N120 N 0.4371 0.11155 0.01861 0.0
C121 C 0.43789 0.09565 0.00937 0.0
C122 C 0.45029 0.08379 0.01746 0.0
C123 C 0.46987 0.08661 0.04531 0.0
H124 H 0.46562 0.09132 0.05846 0.0
H125 H 0.48379 0.0922 0.04234 0.0
H126 H 0.4707 0.07128 0.04526 0.0
O127 O 0.429 0.13808 0.05781 0.0
O128 O 0.40915 0.14143 0.0359 0.0
H129 H 0.41312 0.09568 0.99407 0.0
H130 H 0.42945 0.07779 0.98816 0.0
C131 C 0.428 0.09234 0.99252 0.0
H132 H 0.43383 0.10152 0.98235 0.0
H133 H 0.38358 0.12626 0.00763 0.0
O134 O 0.47072 0.12537 0.06494 0.0
C135 C 0.41297 0.14217 0.05213 0.0
Co136 Co 0.117 0.79399 0.20399 0.0
Co137 Co 0.1133 0.82202 0.23509 0.0
C138 C 0.08645 0.79088 0.2303 0.0
O139 O 0.09478 0.7854 0.21662 0.0
O140 O 0.09218 0.80484 0.23887 0.0
C141 C 0.11908 0.75872 0.1872 0.0
O142 O 0.11114 0.75292 0.2016 0.0
C143 C 0.11099 0.83357 0.27154 0.0
C144 C 0.12042 0.86259 0.27051 0.0
C145 C 0.11427 0.849 0.28186 0.0
N146 N 0.11489 0.8379 0.2549 0.0
N147 N 0.12046 0.85529 0.25435 0.0
C148 C 0.10575 0.81454 0.27741 0.0
H149 H 0.09045 0.81343 0.27781 0.0
H150 H 0.11108 0.80404 0.26814 0.0
H151 H 0.11128 0.81167 0.29064 0.0
C152 C 0.15326 0.78776 0.22004 0.0
N153 N 0.13702 0.79673 0.2193 0.0
N154 N 0.13588 0.80848 0.23237 0.0
C155 C 0.15157 0.80726 0.24191 0.0
C156 C 0.16293 0.79395 0.23445 0.0
C157 C 0.15948 0.77357 0.20708 0.0
H158 H 0.15681 0.77862 0.19367 0.0
H159 H 0.1515 0.76065 0.20911 0.0
H160 H 0.17445 0.77048 0.20841 0.0
O161 O 0.11153 0.81752 0.19247 0.0
O162 O 0.10746 0.83753 0.21415 0.0
H163 H 0.15253 0.83263 0.25623 0.0
H164 H 0.16948 0.81571 0.2631 0.0
C165 C 0.1551 0.8177 0.25841 0.0
H166 H 0.14544 0.8128 0.26863 0.0
H167 H 0.12447 0.86211 0.24297 0.0
O168 O 0.12285 0.77578 0.18551 0.0
C169 C 0.10767 0.83367 0.19793 0.0
Co170 Co 0.45436 0.86921 0.45385 0.0
Co171 Co 0.42701 0.86532 0.48558 0.0
C172 C 0.45912 0.83973 0.48108 0.0
O173 O 0.4642 0.84809 0.46728 0.0
O174 O 0.44484 0.84479 0.48956 0.0
C175 C 0.48951 0.8726 0.43709 0.0
O176 O 0.49562 0.86638 0.45211 0.0
C177 C 0.41532 0.86347 0.52211 0.0
C178 C 0.3864 0.87324 0.52075 0.0
C179 C 0.39986 0.86719 0.53229 0.0
N180 N 0.41113 0.86709 0.50538 0.0
N181 N 0.39378 0.87282 0.50464 0.0
C182 C 0.43426 0.8581 0.52818 0.0
H183 H 0.43525 0.8428 0.52864 0.0
H184 H 0.4449 0.86329 0.51897 0.0
H185 H 0.43707 0.86368 0.5414 0.0
C186 C 0.45937 0.90611 0.46883 0.0
N187 N 0.45086 0.88961 0.46853 0.0
N188 N 0.4397 0.88825 0.48204 0.0
C189 C 0.44091 0.904 0.49146 0.0
C190 C 0.45354 0.91567 0.48342 0.0
C191 C 0.4732 0.91249 0.45561 0.0
H192 H 0.4683 0.90902 0.44232 0.0
H193 H 0.48655 0.90534 0.45794 0.0
H194 H 0.47549 0.92763 0.45644 0.0
O195 O 0.43093 0.862 0.44287 0.0
O196 O 0.4115 0.85834 0.46506 0.0
H197 H 0.41636 0.90462 0.50702 0.0
H198 H 0.43353 0.92156 0.51324 0.0
C199 C 0.43139 0.90723 0.5085 0.0
H200 H 0.4369 0.89747 0.51834 0.0
H201 H 0.38709 0.87671 0.49316 0.0
O202 O 0.47223 0.87499 0.43499 0.0
C203 C 0.41504 0.8578 0.44879 0.0
Co204 Co 0.37922 0.201 0.70342 0.0
Co205 Co 0.38324 0.174 0.73525 0.0
C206 C 0.40841 0.2063 0.73101 0.0
O207 O 0.40027 0.21086 0.71695 0.0
O208 O 0.40318 0.1923 0.73977 0.0
C209 C 0.37444 0.23657 0.68895 0.0
O210 O 0.3779 0.24136 0.70515 0.0
C211 C 0.38315 0.1633 0.77195 0.0
C212 C 0.38065 0.13288 0.77065 0.0
C213 C 0.38232 0.14751 0.78219 0.0
N214 N 0.38186 0.15823 0.75514 0.0
N215 N 0.3803 0.14004 0.75443 0.0
C216 C 0.38696 0.18271 0.77773 0.0
H217 H 0.38186 0.1927 0.76787 0.0
H218 H 0.3805 0.18573 0.7905 0.0
H219 H 0.40214 0.18454 0.77913 0.0
C220 C 0.34123 0.20393 0.71705 0.0
N221 N 0.35842 0.19684 0.71765 0.0
N222 N 0.35995 0.18593 0.73132 0.0
C223 C 0.34373 0.18608 0.74007 0.0
C224 C 0.33139 0.19744 0.73128 0.0
C225 C 0.3349 0.21784 0.70387 0.0
H226 H 0.34092 0.2315 0.70715 0.0
H227 H 0.31966 0.21933 0.70365 0.0
H228 H 0.33969 0.21374 0.69071 0.0
O229 O 0.3869 0.17786 0.69229 0.0
O230 O 0.39086 0.1587 0.71467 0.0
H231 H 0.32507 0.17565 0.75977 0.0
H232 H 0.34763 0.18246 0.76745 0.0
C233 C 0.34005 0.17575 0.7566 0.0
H234 H 0.34503 0.16132 0.75535 0.0
H235 H 0.37927 0.1325 0.74287 0.0
O236 O 0.37393 0.2195 0.68502 0.0
C237 C 0.39145 0.16211 0.69836 0.0
Co238 Co 0.04481 0.13145 0.95178 0.0
Co239 Co 0.07205 0.13442 0.98376 0.0
C240 C 0.04071 0.16098 0.97899 0.0
O241 O 0.03549 0.15283 0.96513 0.0
O242 O 0.05476 0.15543 0.98756 0.0
C243 C 0.00974 0.12926 0.93477 0.0
O244 O 0.00379 0.13615 0.94959 0.0
C245 C 0.08394 0.13627 0.02037 0.0
C246 C 0.11217 0.12457 0.01905 0.0
C247 C 0.09915 0.13158 0.03054 0.0
N248 N 0.08774 0.13193 0.0037 0.0
N249 N 0.10465 0.12503 0.00299 0.0
C250 C 0.06662 0.14598 0.02594 0.0
H251 H 0.06595 0.15961 0.01936 0.0
H252 H 0.05438 0.13788 0.02171 0.0
H253 H 0.06607 0.1484 0.04018 0.0
C254 C 0.03858 0.09471 0.96668 0.0
N255 N 0.04757 0.11095 0.96648 0.0
N256 N 0.05857 0.11199 0.98013 0.0
C257 C 0.0567 0.09634 0.98958 0.0
C258 C 0.04386 0.08502 0.98138 0.0
C259 C 0.02491 0.08865 0.95317 0.0
H260 H 0.03021 0.09201 0.93998 0.0
H261 H 0.01168 0.0961 0.95522 0.0
H262 H 0.02226 0.07356 0.95392 0.0
O263 O 0.06851 0.13806 0.94102 0.0
O264 O 0.08798 0.14076 0.9633 0.0
H265 H 0.08099 0.09395 0.00533 0.0
H266 H 0.06214 0.07922 0.0122 0.0
C267 C 0.06577 0.09299 0.00683 0.0
H268 H 0.06132 0.1038 0.01617 0.0
H269 H 0.11102 0.12052 0.99154 0.0
O270 O 0.02691 0.12608 0.93284 0.0
C271 C 0.08454 0.14161 0.94701 0.0
Co272 Co 0.88214 0.79469 0.70352 0.0
Co273 Co 0.8846 0.82138 0.73582 0.0
C274 C 0.91161 0.79066 0.73112 0.0
O275 O 0.90372 0.78594 0.71697 0.0
O276 O 0.90563 0.8042 0.74013 0.0
C277 C 0.8788 0.75912 0.68865 0.0
O278 O 0.88231 0.75423 0.70482 0.0
C279 C 0.88559 0.83349 0.7724 0.0
C280 C 0.87359 0.86155 0.77078 0.0
C281 C 0.88054 0.84866 0.78243 0.0
N282 N 0.88154 0.83716 0.75564 0.0
N283 N 0.87444 0.85398 0.75476 0.0
C284 C 0.89545 0.81635 0.77818 0.0
H285 H 0.90951 0.81636 0.77242 0.0
H286 H 0.88809 0.80397 0.7732 0.0
H287 H 0.89695 0.8155 0.79252 0.0
C288 C 0.8449 0.78843 0.71772 0.0
N289 N 0.86133 0.79711 0.71798 0.0
N290 N 0.86229 0.80776 0.73188 0.0
C291 C 0.84648 0.80582 0.74111 0.0
C292 C 0.83508 0.79339 0.73246 0.0
C293 C 0.83849 0.77582 0.70347 0.0
H294 H 0.84353 0.78084 0.69067 0.0
H295 H 0.84399 0.76173 0.70582 0.0
H296 H 0.82315 0.77501 0.70313 0.0
O297 O 0.88823 0.81838 0.69271 0.0
O298 O 0.8912 0.83736 0.71533 0.0
H299 H 0.84348 0.82974 0.75723 0.0
H300 H 0.8295 0.81031 0.76404 0.0
C301 C 0.84306 0.81447 0.75853 0.0
H302 H 0.85414 0.81026 0.76768 0.0
H303 H 0.87006 0.86024 0.74321 0.0
O304 O 0.87781 0.77621 0.68492 0.0
C305 C 0.89186 0.83426 0.69896 0.0
Co306 Co 0.95487 0.13306 0.4528 0.0
Co307 Co 0.92751 0.13532 0.48457 0.0
C308 C 0.95753 0.16329 0.47954 0.0
O309 O 0.96291 0.15528 0.46566 0.0
O310 O 0.94398 0.15704 0.48838 0.0
C311 C 0.99007 0.13216 0.43583 0.0
O312 O 0.99572 0.13978 0.45044 0.0
C313 C 0.91578 0.13691 0.52109 0.0
C314 C 0.88745 0.12551 0.5199 0.0
C315 C 0.90053 0.13257 0.53132 0.0
N316 N 0.91183 0.13271 0.50443 0.0
N317 N 0.89485 0.12597 0.50378 0.0
C318 C 0.93437 0.14347 0.52707 0.0
H319 H 0.93443 0.1588 0.52737 0.0
H320 H 0.94529 0.1388 0.51792 0.0
H321 H 0.93749 0.13825 0.54036 0.0
C322 C 0.96248 0.09667 0.46808 0.0
N323 N 0.95309 0.11269 0.46784 0.0
N324 N 0.94179 0.11334 0.48129 0.0
C325 C 0.94377 0.09761 0.49061 0.0
C326 C 0.95708 0.08668 0.48258 0.0
C327 C 0.9762 0.0909 0.4545 0.0
H328 H 0.97069 0.09403 0.44134 0.0
H329 H 0.98922 0.09876 0.45639 0.0
H330 H 0.97929 0.0759 0.45529 0.0
O331 O 0.93098 0.1381 0.44177 0.0
O332 O 0.9114 0.14071 0.46396 0.0
H333 H 0.91891 0.09493 0.50552 0.0
H334 H 0.93737 0.07973 0.51248 0.0
C335 C 0.93407 0.09371 0.50744 0.0
H336 H 0.93832 0.10408 0.51728 0.0
H337 H 0.88839 0.1215 0.49237 0.0
O338 O 0.97306 0.12814 0.43404 0.0
C339 C 0.91481 0.14118 0.44765 0.0
Co340 Co 0.61817 0.20333 0.20435 0.0
Co341 Co 0.61386 0.17516 0.23525 0.0
C342 C 0.58793 0.207 0.23103 0.0
O343 O 0.59637 0.21228 0.21735 0.0
O344 O 0.5933 0.19288 0.23952 0.0
C345 C 0.62247 0.23923 0.19009 0.0
O346 O 0.61794 0.24404 0.20606 0.0
C347 C 0.61399 0.16401 0.2718 0.0
C348 C 0.61545 0.13354 0.27019 0.0
C349 C 0.61439 0.1481 0.28188 0.0
N350 N 0.61494 0.15909 0.25493 0.0
N351 N 0.61587 0.14086 0.25404 0.0
C352 C 0.61096 0.18347 0.27784 0.0
H353 H 0.61442 0.19341 0.26732 0.0
H354 H 0.61945 0.18661 0.28948 0.0
H355 H 0.5962 0.18522 0.28149 0.0
C356 C 0.65562 0.20666 0.21896 0.0
N357 N 0.63851 0.19938 0.21913 0.0
N358 N 0.637 0.18774 0.23225 0.0
C359 C 0.65321 0.1875 0.24103 0.0
C360 C 0.66547 0.19943 0.23284 0.0
C361 C 0.66195 0.22113 0.20633 0.0
H362 H 0.65486 0.23433 0.20936 0.0
H363 H 0.67705 0.22359 0.20701 0.0
H364 H 0.65825 0.21695 0.19287 0.0
O365 O 0.61182 0.18021 0.19253 0.0
O366 O 0.60734 0.16016 0.21414 0.0
H367 H 0.67218 0.17531 0.25953 0.0
H368 H 0.65003 0.18207 0.26822 0.0
C369 C 0.65711 0.17594 0.25678 0.0
H370 H 0.65176 0.16174 0.25478 0.0
H371 H 0.61652 0.13342 0.2424 0.0
O372 O 0.62373 0.22217 0.18634 0.0
C373 C 0.60752 0.16414 0.19793 0.0
Co374 Co 0.54174 0.86776 0.95446 0.0
Co375 Co 0.56974 0.86358 0.98569 0.0
C376 C 0.53876 0.83676 0.98035 0.0
O377 O 0.53319 0.84545 0.9669 0.0
O378 O 0.5528 0.84219 0.98898 0.0
C379 C 0.50641 0.86988 0.93772 0.0
O380 O 0.50068 0.86196 0.95216 0.0
C381 C 0.58206 0.86092 0.02208 0.0
C382 C 0.61057 0.87186 0.0206 0.0
C383 C 0.59749 0.86509 0.03215 0.0
N384 N 0.5858 0.86532 0.00542 0.0
N385 N 0.60289 0.87175 0.0046 0.0
C386 C 0.56451 0.85167 0.02773 0.0
H387 H 0.56351 0.83802 0.02123 0.0
H388 H 0.55245 0.86001 0.02342 0.0
H389 H 0.56391 0.84938 0.04198 0.0
C390 C 0.53519 0.90355 0.97109 0.0
N391 N 0.54438 0.88746 0.97005 0.0
N392 N 0.5559 0.88604 0.98328 0.0
C393 C 0.55426 0.90136 0.99326 0.0
C394 C 0.54095 0.91279 0.98588 0.0
C395 C 0.52103 0.90993 0.95817 0.0
H396 H 0.52614 0.90749 0.94474 0.0
H397 H 0.5081 0.90193 0.96006 0.0
H398 H 0.51792 0.92487 0.95971 0.0
O399 O 0.56535 0.86248 0.94296 0.0
O400 O 0.58528 0.85825 0.96469 0.0
H401 H 0.57928 0.9029 0.00807 0.0
H402 H 0.56125 0.9183 0.0156 0.0
C403 C 0.56418 0.9044 0.01013 0.0
H404 H 0.55974 0.89379 0.01967 0.0
H405 H 0.60925 0.87623 0.99314 0.0
O406 O 0.52347 0.87371 0.936 0.0
C407 C 0.5815 0.85864 0.94846 0.0
Co408 Co 0.88229 0.20447 0.79588 0.0
Co409 Co 0.88474 0.17747 0.76386 0.0
C410 C 0.91238 0.20762 0.76884 0.0
O411 O 0.90437 0.21265 0.78284 0.0
O412 O 0.90619 0.1942 0.75981 0.0
C413 C 0.8796 0.24016 0.81062 0.0
O414 O 0.88408 0.24492 0.79464 0.0
C415 C 0.88553 0.16604 0.72727 0.0
C416 C 0.87589 0.13707 0.72861 0.0
C417 C 0.88164 0.15065 0.71708 0.0
N418 N 0.88201 0.16179 0.744 0.0
N419 N 0.87627 0.14446 0.74473 0.0
C420 C 0.89403 0.18397 0.72168 0.0
H421 H 0.90881 0.18394 0.72553 0.0
H422 H 0.8872 0.19563 0.72855 0.0
H423 H 0.89334 0.18613 0.70742 0.0
C424 C 0.84536 0.21126 0.78111 0.0
N425 N 0.8617 0.2024 0.78106 0.0
N426 N 0.86253 0.19138 0.76742 0.0
C427 C 0.84667 0.19311 0.75823 0.0
C428 C 0.83542 0.20591 0.76658 0.0
C429 C 0.83909 0.22435 0.79504 0.0
H430 H 0.84365 0.21935 0.808 0.0
H431 H 0.84521 0.23816 0.79261 0.0
H432 H 0.82379 0.22576 0.79509 0.0
O433 O 0.88771 0.18068 0.80695 0.0
O434 O 0.89075 0.16152 0.78446 0.0
H435 H 0.84449 0.16851 0.7429 0.0
H436 H 0.82875 0.1867 0.73639 0.0
C437 C 0.84288 0.18365 0.74126 0.0
H438 H 0.85307 0.18836 0.73142 0.0
H439 H 0.87264 0.13767 0.75623 0.0
O440 O 0.87785 0.22312 0.8143 0.0
C441 C 0.8912 0.1647 0.80082 0.0
Co442 Co 0.54665 0.13104 0.5472 0.0
Co443 Co 0.57401 0.13503 0.51551 0.0
C444 C 0.54255 0.16139 0.5209 0.0
O445 O 0.53728 0.15282 0.53451 0.0
O446 O 0.55665 0.15612 0.51226 0.0
C447 C 0.51163 0.12835 0.56426 0.0
O448 O 0.50563 0.13553 0.54958 0.0
C449 C 0.58443 0.13691 0.47875 0.0
C450 C 0.61413 0.12963 0.47935 0.0
C451 C 0.59982 0.13436 0.46819 0.0
N452 N 0.58939 0.13363 0.49535 0.0
N453 N 0.60716 0.1293 0.49564 0.0
C454 C 0.5657 0.14392 0.47361 0.0
H455 H 0.55483 0.13645 0.48101 0.0
H456 H 0.56313 0.14264 0.45943 0.0
H457 H 0.56473 0.15876 0.47714 0.0
C458 C 0.54052 0.09474 0.53127 0.0
N459 N 0.54943 0.11102 0.53191 0.0
N460 N 0.56072 0.11237 0.51849 0.0
C461 C 0.55925 0.0968 0.50884 0.0
C462 C 0.54627 0.0853 0.51659 0.0
C463 C 0.52656 0.0884 0.54439 0.0
H464 H 0.53169 0.09123 0.55775 0.0
H465 H 0.51347 0.09613 0.5424 0.0
H466 H 0.5237 0.07339 0.54314 0.0
O467 O 0.57038 0.13721 0.55815 0.0
O468 O 0.58999 0.1407 0.53608 0.0
H469 H 0.584 0.09657 0.4935 0.0
H470 H 0.56731 0.07907 0.48741 0.0
C471 C 0.56906 0.09353 0.49194 0.0
H472 H 0.56336 0.10294 0.48189 0.0
H473 H 0.61452 0.12617 0.50696 0.0
O474 O 0.52881 0.12512 0.56605 0.0
C475 C 0.58646 0.14092 0.55237 0.0
Co476 Co 0.61624 0.79372 0.29612 0.0
Co477 Co 0.61395 0.82152 0.2647 0.0
C478 C 0.5871 0.79036 0.26836 0.0
O479 O 0.59485 0.78503 0.28238 0.0
O480 O 0.59306 0.80434 0.26 0.0
C481 C 0.61928 0.75788 0.31063 0.0
O482 O 0.61501 0.75315 0.29458 0.0
C483 C 0.61291 0.83312 0.22822 0.0
C484 C 0.62238 0.86212 0.22953 0.0
C485 C 0.61649 0.84857 0.21801 0.0
N486 N 0.61637 0.83741 0.24496 0.0
N487 N 0.62196 0.85478 0.24567 0.0
C488 C 0.60774 0.81413 0.22217 0.0
H489 H 0.61277 0.80357 0.23154 0.0
H490 H 0.61362 0.81127 0.20908 0.0
H491 H 0.59245 0.81309 0.2214 0.0
C492 C 0.65357 0.788 0.28188 0.0
N493 N 0.63715 0.79672 0.28182 0.0
N494 N 0.6364 0.80807 0.26841 0.0
C495 C 0.6524 0.8067 0.25938 0.0
C496 C 0.66364 0.79378 0.26757 0.0
C497 C 0.65966 0.77441 0.29543 0.0
H498 H 0.65502 0.77898 0.30851 0.0
H499 H 0.65349 0.76071 0.29254 0.0
H500 H 0.67495 0.77293 0.29554 0.0
O501 O 0.60977 0.81713 0.30743 0.0
O502 O 0.6072 0.83699 0.28543 0.0
H503 H 0.65383 0.83152 0.24427 0.0
H504 H 0.67072 0.81424 0.23818 0.0
C505 C 0.65629 0.8165 0.2426 0.0
H506 H 0.64675 0.81133 0.23241 0.0
H507 H 0.62565 0.86158 0.25716 0.0
O508 O 0.62078 0.77492 0.3144 0.0
C509 C 0.60625 0.83325 0.30167 0.0
Co510 Co 0.95301 0.86865 0.04573 0.0
Co511 Co 0.92445 0.86478 0.01498 0.0
C512 C 0.95567 0.83809 0.01934 0.0
O513 O 0.96144 0.84667 0.03276 0.0
O514 O 0.94137 0.84348 0.01109 0.0
C515 C 0.98904 0.87194 0.06019 0.0
O516 O 0.99386 0.86692 0.04436 0.0
C517 C 0.91252 0.86263 0.97865 0.0
C518 C 0.88343 0.8719 0.97999 0.0
C519 C 0.89698 0.86598 0.96846 0.0
N520 N 0.90829 0.86632 0.99536 0.0
N521 N 0.89085 0.87175 0.9961 0.0
C522 C 0.93156 0.85756 0.97263 0.0
H523 H 0.94208 0.86276 0.98196 0.0
H524 H 0.93438 0.86335 0.9595 0.0
H525 H 0.93274 0.84228 0.97201 0.0
C526 C 0.9585 0.90509 0.02984 0.0
N527 N 0.94982 0.8887 0.03058 0.0
N528 N 0.93808 0.88737 0.0175 0.0
C529 C 0.93911 0.90304 0.00792 0.0
C530 C 0.95224 0.91459 0.01538 0.0
C531 C 0.97244 0.91171 0.04286 0.0
H532 H 0.96806 0.90781 0.05621 0.0
H533 H 0.986 0.90518 0.04005 0.0
H534 H 0.97413 0.92695 0.04225 0.0
O535 O 0.92968 0.86305 0.0576 0.0
O536 O 0.90928 0.85915 0.03618 0.0
H537 H 0.91371 0.90364 0.99358 0.0
H538 H 0.93037 0.92083 0.98675 0.0
C539 C 0.92861 0.90643 0.99142 0.0
H540 H 0.93368 0.89688 0.98118 0.0
H541 H 0.88411 0.87561 0.00757 0.0
O542 O 0.97198 0.87389 0.06374 0.0
C543 C 0.91341 0.85929 0.05234 0.0
Co544 Co 0.61535 0.70342 0.79659 0.0
Co545 Co 0.6129 0.6769 0.76415 0.0
C546 C 0.58601 0.70772 0.76889 0.0
O547 O 0.5938 0.7123 0.78314 0.0
O548 O 0.59202 0.69423 0.75984 0.0
C549 C 0.6185 0.73895 0.81158 0.0
O550 O 0.61456 0.74385 0.79551 0.0
C551 C 0.61202 0.66527 0.72749 0.0
C552 C 0.62297 0.63677 0.72885 0.0
C553 C 0.61653 0.65004 0.71732 0.0
N554 N 0.61586 0.66126 0.74422 0.0
N555 N 0.62237 0.6442 0.74495 0.0
C556 C 0.6027 0.68277 0.72188 0.0
H557 H 0.58824 0.68254 0.72669 0.0
H558 H 0.60971 0.69483 0.72791 0.0
H559 H 0.60227 0.6844 0.70754 0.0
C560 C 0.65263 0.70964 0.78246 0.0
N561 N 0.63618 0.701 0.78213 0.0
N562 N 0.63526 0.69037 0.76823 0.0
C563 C 0.65112 0.69225 0.75906 0.0
C564 C 0.66252 0.70465 0.76777 0.0
C565 C 0.65898 0.72228 0.79672 0.0
H566 H 0.65404 0.71717 0.80952 0.0
H567 H 0.6533 0.73631 0.79443 0.0
H568 H 0.67431 0.72325 0.79702 0.0
O569 O 0.60922 0.67965 0.80731 0.0
O570 O 0.60617 0.66086 0.78454 0.0
H571 H 0.65376 0.66833 0.74289 0.0
H572 H 0.66836 0.68742 0.73636 0.0
C573 C 0.65461 0.68358 0.74166 0.0
H574 H 0.64379 0.68813 0.73237 0.0
H575 H 0.62643 0.63763 0.75645 0.0
O576 O 0.6198 0.72185 0.81523 0.0
C577 C 0.60553 0.66384 0.80094 0.0
Co578 Co 0.5461 0.36714 0.04806 0.0
Co579 Co 0.5736 0.36267 0.01647 0.0
C580 C 0.54218 0.33635 0.02219 0.0
O581 O 0.53683 0.34509 0.03568 0.0
O582 O 0.55631 0.34152 0.01355 0.0
C583 C 0.51112 0.37001 0.06523 0.0
O584 O 0.50502 0.36253 0.05072 0.0
C585 C 0.58437 0.3598 0.97977 0.0
C586 C 0.61326 0.36982 0.9801 0.0
C587 C 0.59944 0.3635 0.96909 0.0
N588 N 0.589 0.36404 0.99627 0.0
N589 N 0.60631 0.36994 0.9964 0.0
C590 C 0.5663 0.3511 0.97484 0.0
H591 H 0.56548 0.3372 0.98089 0.0
H592 H 0.55471 0.35946 0.98014 0.0
H593 H 0.5647 0.34938 0.96059 0.0
C594 C 0.53979 0.40306 0.03158 0.0
N595 N 0.54877 0.38684 0.03247 0.0
N596 N 0.56008 0.3853 0.01909 0.0
C597 C 0.55849 0.40067 0.00916 0.0
C598 C 0.54546 0.41225 0.01673 0.0
C599 C 0.52588 0.40962 0.04466 0.0
H600 H 0.53108 0.40704 0.05804 0.0
H601 H 0.5128 0.40184 0.04285 0.0
H602 H 0.52299 0.42461 0.04319 0.0
O603 O 0.5699 0.36155 0.0591 0.0
O604 O 0.58961 0.35738 0.03717 0.0
H605 H 0.58328 0.4016 0.99395 0.0
H606 H 0.56562 0.4177 0.98694 0.0
C607 C 0.5682 0.40363 0.99216 0.0
H608 H 0.56321 0.39332 0.98256 0.0
H609 H 0.61332 0.37419 0.0076 0.0
O610 O 0.5283 0.37332 0.06685 0.0
C611 C 0.586 0.35776 0.05344 0.0
Co612 Co 0.88065 0.28949 0.29462 0.0
Co613 Co 0.88503 0.31846 0.26421 0.0
C614 C 0.91125 0.28638 0.26869 0.0
O615 O 0.90242 0.28023 0.28182 0.0
O616 O 0.9061 0.30101 0.26083 0.0
C617 C 0.87752 0.25424 0.31146 0.0
O618 O 0.88554 0.24823 0.29718 0.0
C619 C 0.88509 0.33015 0.22739 0.0
C620 C 0.88252 0.36048 0.22979 0.0
C621 C 0.88406 0.34635 0.21766 0.0
N622 N 0.88402 0.33455 0.24442 0.0
N623 N 0.88245 0.3527 0.24574 0.0
C624 C 0.88817 0.31093 0.22072 0.0
H625 H 0.89282 0.3016 0.23125 0.0
H626 H 0.87504 0.30532 0.21548 0.0
H627 H 0.89851 0.31103 0.21001 0.0
C628 C 0.84367 0.28588 0.27944 0.0
N629 N 0.86062 0.29347 0.27957 0.0
N630 N 0.86197 0.30568 0.2669 0.0
C631 C 0.84565 0.30623 0.25829 0.0
C632 C 0.83361 0.29373 0.26601 0.0
C633 C 0.83771 0.27058 0.29134 0.0
H634 H 0.84715 0.25864 0.28962 0.0
H635 H 0.8234 0.26589 0.28869 0.0
H636 H 0.83872 0.27529 0.30507 0.0
O637 O 0.88717 0.31271 0.3064 0.0
O638 O 0.89093 0.33352 0.28533 0.0
H639 H 0.82616 0.31999 0.24135 0.0
H640 H 0.84766 0.31331 0.23136 0.0
C641 C 0.84132 0.31886 0.24342 0.0
H642 H 0.84712 0.33279 0.24595 0.0
H643 H 0.88147 0.3598 0.25755 0.0
O644 O 0.87405 0.27139 0.31302 0.0
C645 C 0.89104 0.32904 0.30141 0.0
Co646 Co 0.95452 0.62768 0.5449 0.0
Co647 Co 0.92573 0.63244 0.51448 0.0
C648 C 0.95794 0.65804 0.51843 0.0
O649 O 0.96368 0.64927 0.53174 0.0
O650 O 0.94335 0.65309 0.51039 0.0
C651 C 0.99051 0.62327 0.55921 0.0
O652 O 0.99542 0.62786 0.54329 0.0
C653 C 0.91423 0.63366 0.47809 0.0
C654 C 0.88396 0.62962 0.4797 0.0
C655 C 0.89832 0.6324 0.46802 0.0
N656 N 0.90949 0.63153 0.49491 0.0
N657 N 0.89139 0.62911 0.49581 0.0
C658 C 0.9334 0.63852 0.47227 0.0
H659 H 0.93547 0.65361 0.474 0.0
H660 H 0.94373 0.63129 0.48052 0.0
H661 H 0.93577 0.63517 0.45837 0.0
C662 C 0.9574 0.59043 0.52994 0.0
N663 N 0.95012 0.60752 0.5301 0.0
N664 N 0.93836 0.60929 0.51709 0.0
C665 C 0.9381 0.59328 0.50801 0.0
C666 C 0.95007 0.58086 0.51593 0.0
C667 C 0.97206 0.58391 0.5423 0.0
H668 H 0.96806 0.58742 0.55586 0.0
H669 H 0.98522 0.59105 0.53921 0.0
H670 H 0.97447 0.56882 0.54138 0.0
O671 O 0.93155 0.63437 0.55694 0.0
O672 O 0.91096 0.6387 0.53575 0.0
H673 H 0.91221 0.59445 0.49446 0.0
H674 H 0.92656 0.57492 0.4886 0.0
C675 C 0.92661 0.5898 0.49213 0.0
H676 H 0.93232 0.59781 0.48104 0.0
H677 H 0.88409 0.62725 0.50742 0.0
O678 O 0.97341 0.62191 0.56285 0.0
C679 C 0.91533 0.63861 0.55187 0.0
Co680 Co 0.61576 0.29311 0.70458 0.0
Co681 Co 0.61199 0.32091 0.73585 0.0
C682 C 0.58453 0.2905 0.7303 0.0
O683 O 0.59304 0.28502 0.71671 0.0
O684 O 0.59041 0.30417 0.73919 0.0
C685 C 0.61772 0.25781 0.6878 0.0
O686 O 0.6095 0.25208 0.70209 0.0
C687 C 0.60963 0.33246 0.77232 0.0
C688 C 0.61975 0.36126 0.77132 0.0
C689 C 0.61331 0.34779 0.78267 0.0
N690 N 0.61363 0.33673 0.75569 0.0
N691 N 0.61957 0.35399 0.75515 0.0
C692 C 0.60398 0.31354 0.77817 0.0
H693 H 0.60891 0.30296 0.76878 0.0
H694 H 0.60961 0.31045 0.79131 0.0
H695 H 0.58866 0.31282 0.77874 0.0
C696 C 0.65166 0.28613 0.72111 0.0
N697 N 0.63551 0.29528 0.72028 0.0
N698 N 0.63435 0.30692 0.73343 0.0
C699 C 0.6499 0.30542 0.74314 0.0
C700 C 0.66121 0.29205 0.73569 0.0
C701 C 0.658 0.2722 0.70796 0.0
H702 H 0.65543 0.27749 0.69462 0.0
H703 H 0.65005 0.25922 0.70973 0.0
H704 H 0.67297 0.26912 0.70934 0.0
O705 O 0.61112 0.31681 0.69308 0.0
O706 O 0.60692 0.33665 0.71487 0.0
H707 H 0.65116 0.33075 0.75751 0.0
H708 H 0.66764 0.31348 0.76461 0.0
C709 C 0.65338 0.31577 0.7597 0.0
H710 H 0.64347 0.31105 0.76978 0.0
H711 H 0.62377 0.36072 0.74378 0.0
O712 O 0.62163 0.27484 0.68616 0.0
C713 C 0.60745 0.33297 0.69862 0.0
Co714 Co 0.95511 0.36931 0.95375 0.0
Co715 Co 0.92693 0.36514 0.98481 0.0
C716 C 0.95836 0.33869 0.97992 0.0
O717 O 0.96401 0.34737 0.96651 0.0
O718 O 0.94406 0.3439 0.98828 0.0
C719 C 0.99041 0.37163 0.93698 0.0
O720 O 0.99624 0.3641 0.95157 0.0
C721 C 0.91533 0.36244 0.02124 0.0
C722 C 0.88651 0.37256 0.02034 0.0
C723 C 0.9 0.36602 0.03162 0.0
N724 N 0.91105 0.36657 0.00464 0.0
N725 N 0.89376 0.3725 0.00416 0.0
C726 C 0.93427 0.35675 0.02705 0.0
H727 H 0.94488 0.36215 0.01792 0.0
H728 H 0.93721 0.36189 0.0404 0.0
H729 H 0.93515 0.34143 0.02708 0.0
C730 C 0.9611 0.40536 0.97006 0.0
N731 N 0.95212 0.38915 0.96913 0.0
N732 N 0.94047 0.38777 0.98226 0.0
C733 C 0.94177 0.40327 0.99204 0.0
C734 C 0.95502 0.41474 0.98465 0.0
C735 C 0.97539 0.41169 0.95725 0.0
H736 H 0.97046 0.40912 0.94379 0.0
H737 H 0.98832 0.40374 0.95934 0.0
H738 H 0.97844 0.42665 0.95873 0.0
O739 O 0.93157 0.3636 0.94229 0.0
O740 O 0.91141 0.35959 0.96387 0.0
H741 H 0.91654 0.4041 0.00661 0.0
H742 H 0.93365 0.42078 0.01361 0.0
C743 C 0.93152 0.40651 0.0087 0.0
H744 H 0.93647 0.39662 0.01869 0.0
H745 H 0.88703 0.3768 0.99283 0.0
O746 O 0.9733 0.37523 0.93521 0.0
C747 C 0.91536 0.3598 0.94768 0.0
Co748 Co 0.88209 0.7031 0.20324 0.0
Co749 Co 0.88495 0.67596 0.23512 0.0
C750 C 0.91147 0.70721 0.23078 0.0
O751 O 0.90355 0.71211 0.21671 0.0
O752 O 0.90568 0.69341 0.23952 0.0
C753 C 0.87826 0.73877 0.18863 0.0
O754 O 0.8819 0.74358 0.20479 0.0
C755 C 0.88511 0.66498 0.27182 0.0
C756 C 0.87936 0.635 0.2704 0.0
C757 C 0.8829 0.64927 0.28198 0.0
N758 N 0.88281 0.66024 0.25501 0.0
N759 N 0.87933 0.64232 0.25424 0.0
C760 C 0.89108 0.68383 0.27761 0.0
H761 H 0.88559 0.69451 0.26859 0.0
H762 H 0.88655 0.6869 0.29109 0.0
H763 H 0.90641 0.68451 0.27727 0.0
C764 C 0.84475 0.7086 0.21759 0.0
N765 N 0.8613 0.70015 0.21772 0.0
N766 N 0.8623 0.68907 0.23133 0.0
C767 C 0.84631 0.69037 0.2404 0.0
C768 C 0.83484 0.70295 0.23204 0.0
C769 C 0.83833 0.72179 0.20382 0.0
H770 H 0.84321 0.71719 0.19083 0.0
H771 H 0.844 0.73572 0.20658 0.0
H772 H 0.823 0.72277 0.20362 0.0
O773 O 0.88858 0.67957 0.19217 0.0
O774 O 0.89178 0.66029 0.21455 0.0
H775 H 0.84586 0.66588 0.25608 0.0
H776 H 0.82799 0.68244 0.26146 0.0
C777 C 0.8426 0.6808 0.25733 0.0
H778 H 0.85164 0.68676 0.26756 0.0
H779 H 0.87714 0.63505 0.24267 0.0
O780 O 0.8774 0.72169 0.1848 0.0
C781 C 0.89242 0.66364 0.19823 0.0
Co782 Co 0.54263 0.63043 0.45362 0.0
Co783 Co 0.57079 0.63398 0.48473 0.0
C784 C 0.54013 0.66131 0.47961 0.0
O785 O 0.5343 0.65276 0.46618 0.0
O786 O 0.55419 0.65565 0.48809 0.0
C787 C 0.50727 0.62818 0.43678 0.0
O788 O 0.5013 0.63553 0.4514 0.0
C789 C 0.58263 0.63635 0.52116 0.0
C790 C 0.61129 0.62579 0.51999 0.0
C791 C 0.59801 0.63249 0.53141 0.0
N792 N 0.5867 0.6322 0.50451 0.0
N793 N 0.60388 0.62599 0.50388 0.0
C794 C 0.56384 0.64237 0.52709 0.0
H795 H 0.55309 0.63738 0.5179 0.0
H796 H 0.56082 0.63707 0.54036 0.0
H797 H 0.56331 0.6577 0.52735 0.0
C798 C 0.53576 0.59452 0.46999 0.0
N799 N 0.54504 0.61057 0.46909 0.0
N800 N 0.5567 0.6117 0.48224 0.0
C801 C 0.55507 0.59623 0.49202 0.0
C802 C 0.54161 0.58503 0.48461 0.0
C803 C 0.52155 0.58834 0.45704 0.0
H804 H 0.52659 0.591 0.44362 0.0
H805 H 0.50862 0.5963 0.4591 0.0
H806 H 0.51845 0.57338 0.45838 0.0
O807 O 0.56633 0.63544 0.44216 0.0
O808 O 0.58647 0.6391 0.4638 0.0
H809 H 0.58031 0.59483 0.50655 0.0
H810 H 0.56283 0.57856 0.5136 0.0
C811 C 0.56528 0.59276 0.50866 0.0
H812 H 0.56058 0.60277 0.51865 0.0
H813 H 0.61045 0.62164 0.49248 0.0
O814 O 0.52442 0.6248 0.43503 0.0
C815 C 0.58259 0.63888 0.44759 0.0
Co816 Co 0.38215 0.29615 0.20402 0.0
Co817 Co 0.38554 0.32262 0.23641 0.0
C818 C 0.41167 0.291 0.23122 0.0
O819 O 0.40359 0.28644 0.21711 0.0
O820 O 0.40605 0.30467 0.24026 0.0
C821 C 0.37946 0.2614 0.18662 0.0
O822 O 0.38629 0.25524 0.2014 0.0
C823 C 0.3859 0.33277 0.27333 0.0
C824 C 0.37896 0.36253 0.2726 0.0
C825 C 0.38299 0.34811 0.28388 0.0
N826 N 0.38347 0.33787 0.25664 0.0
N827 N 0.37933 0.35567 0.25627 0.0
C828 C 0.39254 0.31396 0.27857 0.0
H829 H 0.40733 0.31267 0.27494 0.0
H830 H 0.38478 0.30322 0.27126 0.0
H831 H 0.39138 0.31145 0.29275 0.0
C832 C 0.34462 0.29144 0.218 0.0
N833 N 0.3615 0.29921 0.21859 0.0
N834 N 0.36267 0.31006 0.23232 0.0
C835 C 0.34647 0.30929 0.24108 0.0
C836 C 0.33453 0.29756 0.23221 0.0
C837 C 0.33893 0.27721 0.20486 0.0
H838 H 0.34143 0.28259 0.19152 0.0
H839 H 0.34749 0.26464 0.2067 0.0
H840 H 0.3242 0.27323 0.20613 0.0
O841 O 0.38905 0.31988 0.19355 0.0
O842 O 0.39254 0.33872 0.21621 0.0
H843 H 0.34619 0.33425 0.25606 0.0
H844 H 0.32762 0.31844 0.26123 0.0
C845 C 0.34245 0.31949 0.25762 0.0
H846 H 0.35095 0.31361 0.2683 0.0
H847 H 0.3768 0.36313 0.24488 0.0
O848 O 0.37649 0.27862 0.18486 0.0
C849 C 0.39311 0.33564 0.19984 0.0
Co850 Co 0.45398 0.6277 0.95263 0.0
Co851 Co 0.42574 0.6321 0.9836 0.0
C852 C 0.45747 0.65825 0.97885 0.0
O853 O 0.46309 0.64954 0.96544 0.0
O854 O 0.44309 0.65315 0.98716 0.0
C855 C 0.48929 0.62495 0.93587 0.0
O856 O 0.49524 0.63243 0.95044 0.0
C857 C 0.41399 0.63475 0.02001 0.0
C858 C 0.385 0.62516 0.01888 0.0
C859 C 0.39852 0.63137 0.03028 0.0
N860 N 0.40974 0.63081 0.00336 0.0
N861 N 0.39236 0.62519 0.00274 0.0
C862 C 0.43298 0.64008 0.02595 0.0
H863 H 0.44355 0.63469 0.01677 0.0
H864 H 0.4358 0.63469 0.03923 0.0
H865 H 0.43407 0.65539 0.0262 0.0
C866 C 0.45949 0.59153 0.96882 0.0
N867 N 0.45071 0.60786 0.96794 0.0
N868 N 0.43904 0.60933 0.98105 0.0
C869 C 0.44014 0.59377 0.99078 0.0
C870 C 0.45327 0.58216 0.98338 0.0
C871 C 0.47371 0.58506 0.95601 0.0
H872 H 0.46882 0.58774 0.94254 0.0
H873 H 0.48674 0.59284 0.95813 0.0
H874 H 0.47656 0.57006 0.95743 0.0
O875 O 0.43056 0.63369 0.94109 0.0
O876 O 0.41036 0.63786 0.9626 0.0
H877 H 0.41489 0.59327 0.00532 0.0
H878 H 0.43171 0.57625 0.01224 0.0
C879 C 0.42982 0.59059 0.00741 0.0
H880 H 0.43493 0.60033 0.01747 0.0
H881 H 0.38562 0.62109 0.99135 0.0
O882 O 0.47214 0.62158 0.93411 0.0
C883 C 0.41438 0.63763 0.94642 0.0
Co884 Co 0.11711 0.70372 0.70299 0.0
Co885 Co 0.11348 0.67549 0.73395 0.0
C886 C 0.08656 0.70661 0.72927 0.0
O887 O 0.09486 0.71217 0.71561 0.0
O888 O 0.09233 0.69262 0.73777 0.0
C889 C 0.11905 0.73914 0.68655 0.0
O890 O 0.1112 0.74471 0.70108 0.0
C891 C 0.11281 0.66464 0.77058 0.0
C892 C 0.11717 0.63442 0.76935 0.0
C893 C 0.11431 0.64892 0.78084 0.0
N894 N 0.11488 0.65968 0.75381 0.0
N895 N 0.11752 0.64161 0.75314 0.0
C896 C 0.10779 0.68379 0.77628 0.0
H897 H 0.09251 0.68481 0.77725 0.0
H898 H 0.11266 0.69408 0.76657 0.0
H899 H 0.11367 0.68712 0.78923 0.0
C900 C 0.15333 0.70999 0.71911 0.0
N901 N 0.13712 0.70096 0.71833 0.0
N902 N 0.13608 0.68907 0.73129 0.0
C903 C 0.15182 0.69021 0.74076 0.0
C904 C 0.16308 0.70367 0.73341 0.0
C905 C 0.15943 0.72438 0.70631 0.0
H906 H 0.15681 0.71946 0.69284 0.0
H907 H 0.15136 0.73721 0.70847 0.0
H908 H 0.17438 0.72757 0.70767 0.0
O909 O 0.11179 0.68019 0.69137 0.0
O910 O 0.10783 0.66002 0.71294 0.0
H911 H 0.15161 0.66483 0.75519 0.0
H912 H 0.17038 0.68027 0.76082 0.0
C913 C 0.15558 0.6795 0.75706 0.0
H914 H 0.1472 0.68531 0.76785 0.0
H915 H 0.11937 0.63416 0.74162 0.0
O916 O 0.12287 0.72212 0.68463 0.0
C917 C 0.10805 0.66397 0.69674 0.0
Co918 Co 0.04541 0.36846 0.45352 0.0
Co919 Co 0.07347 0.36442 0.48461 0.0
C920 C 0.04141 0.33879 0.48078 0.0
O921 O 0.03633 0.347 0.46692 0.0
O922 O 0.05555 0.34417 0.48927 0.0
C923 C 0.00951 0.37183 0.43894 0.0
O924 O 0.00469 0.36697 0.45481 0.0
C925 C 0.0848 0.36436 0.52112 0.0
C926 C 0.11516 0.3675 0.51945 0.0
C927 C 0.10072 0.36545 0.53117 0.0
N928 N 0.0896 0.36586 0.50426 0.0
N929 N 0.10776 0.3678 0.50333 0.0
C930 C 0.06553 0.3601 0.52708 0.0
H931 H 0.0553 0.3657 0.51767 0.0
H932 H 0.0627 0.36574 0.54022 0.0
H933 H 0.0638 0.34487 0.52767 0.0
C934 C 0.04208 0.40599 0.46772 0.0
N935 N 0.04947 0.38895 0.46801 0.0
N936 N 0.061 0.38754 0.48124 0.0
C937 C 0.06102 0.40375 0.48999 0.0
C938 C 0.04911 0.41592 0.48164 0.0
C939 C 0.02752 0.41208 0.45507 0.0
H940 H 0.03185 0.40853 0.44161 0.0
H941 H 0.01446 0.40467 0.45798 0.0
H942 H 0.02476 0.42712 0.45582 0.0
O943 O 0.06852 0.36175 0.44185 0.0
O944 O 0.08844 0.35735 0.4636 0.0
H945 H 0.08657 0.40283 0.50412 0.0
H946 H 0.07219 0.4226 0.50917 0.0
C947 C 0.07214 0.40762 0.50603 0.0
H948 H 0.06611 0.39996 0.51718 0.0
H949 H 0.11511 0.36908 0.49168 0.0
O950 O 0.02657 0.37378 0.43538 0.0
C951 C 0.08452 0.35735 0.44738 0.0
Co952 Co 0.38328 0.70498 0.2941 0.0
Co953 Co 0.38512 0.67698 0.26275 0.0
C954 C 0.4126 0.70774 0.26657 0.0
O955 O 0.40481 0.71328 0.28051 0.0
O956 O 0.40644 0.69383 0.25818 0.0
C957 C 0.3757 0.72087 0.32804 0.0
O958 O 0.37549 0.7037 0.33361 0.0
C959 C 0.38531 0.66512 0.22623 0.0
C960 C 0.37561 0.6362 0.22801 0.0
C961 C 0.38118 0.64963 0.21625 0.0
N962 N 0.3821 0.66106 0.24306 0.0
N963 N 0.37632 0.64376 0.24405 0.0
C964 C 0.39373 0.68297 0.22034 0.0
H965 H 0.40841 0.68323 0.22449 0.0
H966 H 0.38662 0.69473 0.22677 0.0
H967 H 0.39336 0.68471 0.20601 0.0
C968 C 0.34659 0.71193 0.27954 0.0
N969 N 0.3626 0.70254 0.27962 0.0
N970 N 0.36297 0.69095 0.2664 0.0
C971 C 0.34696 0.69265 0.25743 0.0
C972 C 0.33619 0.70612 0.26543 0.0
C973 C 0.34141 0.72619 0.29283 0.0
H974 H 0.34297 0.72023 0.30607 0.0
H975 H 0.35094 0.73816 0.29173 0.0
H976 H 0.32694 0.73099 0.29122 0.0
O977 O 0.38919 0.68142 0.30539 0.0
O978 O 0.39144 0.66137 0.28353 0.0
H979 H 0.34448 0.66755 0.24287 0.0
H980 H 0.32833 0.68539 0.23638 0.0
C981 C 0.34265 0.68262 0.24087 0.0
H982 H 0.35243 0.68712 0.23058 0.0
H983 H 0.37288 0.63711 0.25568 0.0
O984 O 0.37871 0.72414 0.31202 0.0
C985 C 0.39236 0.66519 0.29975 0.0
Co986 Co 0.04492 0.6317 0.0459 0.0
Co987 Co 0.07236 0.63592 0.01429 0.0
C988 C 0.04011 0.66145 0.01913 0.0
O989 O 0.03496 0.65293 0.03281 0.0
O990 O 0.05448 0.65652 0.01071 0.0
C991 C 0.00995 0.62847 0.06303 0.0
O992 O 0.00377 0.63544 0.04833 0.0
C993 C 0.08278 0.63746 0.97753 0.0
C994 C 0.11273 0.63134 0.97828 0.0
C995 C 0.09827 0.63533 0.96704 0.0
N996 N 0.08783 0.63465 0.99418 0.0
N997 N 0.10575 0.63101 0.99456 0.0
C998 C 0.06381 0.64367 0.97227 0.0
H999 H 0.05322 0.63618 0.98 0.0
H1000 H 0.0612 0.64173 0.95817 0.0
H1001 H 0.06241 0.65862 0.97526 0.0
C1002 C 0.03985 0.59502 0.03047 0.0
N1003 N 0.04834 0.61152 0.03093 0.0
N1004 N 0.05966 0.61296 0.01754 0.0
C1005 C 0.05865 0.5972 0.0081 0.0
C1006 C 0.04593 0.5855 0.01595 0.0
C1007 C 0.02589 0.58859 0.04355 0.0
H1008 H 0.03089 0.59161 0.05691 0.0
H1009 H 0.01271 0.5961 0.04142 0.0
H1010 H 0.02327 0.57352 0.0424 0.0
O1011 O 0.06845 0.63869 0.05685 0.0
O1012 O 0.08813 0.64222 0.03483 0.0
H1013 H 0.08345 0.5975 0.99283 0.0
H1014 H 0.06742 0.57928 0.98708 0.0
C1015 C 0.06863 0.59389 0.99131 0.0
H1016 H 0.06263 0.60286 0.98104 0.0
H1017 H 0.11321 0.62836 0.00594 0.0
O1018 O 0.0272 0.62557 0.06479 0.0
C1019 C 0.08449 0.64264 0.05109 0.0
Co1020 Co 0.11896 0.2948 0.79639 0.0
Co1021 Co 0.11513 0.32197 0.76451 0.0
C1022 C 0.08925 0.29 0.76949 0.0
O1023 O 0.0975 0.28507 0.78339 0.0
O1024 O 0.09466 0.30397 0.76078 0.0
C1025 C 0.12188 0.25987 0.81348 0.0
O1026 O 0.11483 0.25385 0.79875 0.0
C1027 C 0.11568 0.33242 0.72749 0.0
C1028 C 0.11676 0.36292 0.72892 0.0
C1029 C 0.11599 0.34828 0.71729 0.0
N1030 N 0.11639 0.33748 0.74436 0.0
N1031 N 0.11712 0.35572 0.74512 0.0
C1032 C 0.11313 0.31291 0.72143 0.0
H1033 H 0.11253 0.30324 0.73261 0.0
H1034 H 0.1248 0.30871 0.71297 0.0
H1035 H 0.10024 0.31186 0.71361 0.0
C1036 C 0.15635 0.29052 0.78197 0.0
N1037 N 0.13945 0.29829 0.78166 0.0
N1038 N 0.13822 0.30959 0.76825 0.0
C1039 C 0.15446 0.30926 0.75953 0.0
C1040 C 0.16642 0.29721 0.76798 0.0
C1041 C 0.16204 0.27576 0.79457 0.0
H1042 H 0.15319 0.26344 0.79257 0.0
H1043 H 0.17666 0.27153 0.79289 0.0
H1044 H 0.15997 0.28077 0.8081 0.0
O1045 O 0.11191 0.31832 0.80726 0.0
O1046 O 0.10828 0.33769 0.78501 0.0
H1047 H 0.17377 0.32098 0.74112 0.0
H1048 H 0.15201 0.31355 0.73212 0.0
C1049 C 0.15864 0.32026 0.7435 0.0
H1050 H 0.15304 0.33445 0.74484 0.0
H1051 H 0.11754 0.36327 0.7567 0.0
O1052 O 0.12495 0.27707 0.81531 0.0
C1053 C 0.10777 0.33422 0.80131 0.0
Co1054 Co 0.45348 0.36804 0.54747 0.0
Co1055 Co 0.42513 0.36348 0.51662 0.0
C1056 C 0.45706 0.33771 0.5209 0.0
O1057 O 0.46259 0.34644 0.53432 0.0
O1058 O 0.44256 0.3426 0.5127 0.0
C1059 C 0.48946 0.3726 0.56165 0.0
O1060 O 0.49427 0.36848 0.54559 0.0
C1061 C 0.41281 0.36042 0.48042 0.0
C1062 C 0.38403 0.3706 0.48171 0.0
C1063 C 0.39728 0.36388 0.47028 0.0
N1064 N 0.40888 0.36479 0.49704 0.0
N1065 N 0.39161 0.37077 0.49775 0.0
C1066 C 0.43162 0.35463 0.47432 0.0
H1067 H 0.43258 0.33932 0.47473 0.0
H1068 H 0.44244 0.36038 0.48303 0.0
H1069 H 0.43418 0.35933 0.46076 0.0
C1070 C 0.45805 0.40467 0.53163 0.0
N1071 N 0.44977 0.38808 0.53239 0.0
N1072 N 0.43824 0.38636 0.51918 0.0
C1073 C 0.43906 0.40193 0.50945 0.0
C1074 C 0.45177 0.41388 0.51701 0.0
C1075 C 0.47173 0.41173 0.54468 0.0
H1076 H 0.4676 0.40748 0.558 0.0
H1077 H 0.48556 0.40588 0.54172 0.0
H1078 H 0.47273 0.42704 0.54419 0.0
O1079 O 0.43029 0.36174 0.55929 0.0
O1080 O 0.41007 0.35752 0.53777 0.0
H1081 H 0.41389 0.40259 0.49482 0.0
H1082 H 0.43112 0.41895 0.48746 0.0
C1083 C 0.42889 0.40483 0.4927 0.0
H1084 H 0.43376 0.39462 0.48295 0.0
H1085 H 0.38511 0.37522 0.50915 0.0
O1086 O 0.47238 0.37358 0.56547 0.0
C1087 C 0.41413 0.35765 0.55396 0.0
H1088 H 0.12934 0.14388 0.04815 0.0
H1089 H 0.13354 0.14586 0.07984 0.0
H1090 H 0.07853 0.1242 0.08752 0.0
H1091 H 0.07457 0.12155 0.05592 0.0
H1092 H 0.1133 0.16603 0.10374 0.0
H1093 H 0.10981 0.09113 0.11877 0.0
H1094 H 0.11282 0.0998 0.09688 0.0
H1095 H 0.09022 0.09942 0.10669 0.0
C1096 C 0.11819 0.13951 0.05664 0.0
C1097 C 0.10146 0.13301 0.04963 0.0
C1098 C 0.12058 0.14067 0.0747 0.0
C1099 C 0.1064 0.13507 0.08603 0.0
C1100 C 0.08974 0.1284 0.07903 0.0
H1101 H 0.09207 0.16429 0.19466 0.0
H1102 H 0.09013 0.16132 0.16298 0.0
C1103 C 0.08736 0.12721 0.06098 0.0
C1104 C 0.10885 0.13663 0.10516 0.0
H1105 H 0.10827 0.11173 0.14298 0.0
C1106 C 0.1123 0.15415 0.11233 0.0
C1107 C 0.1078 0.12107 0.1163 0.0
C1108 C 0.10514 0.10176 0.10928 0.0
C1109 C 0.11431 0.1566 0.13038 0.0
C1110 C 0.11248 0.14116 0.14157 0.0
C1111 C 0.10946 0.12357 0.13438 0.0
C1112 C 0.11367 0.14297 0.16079 0.0
C1113 C 0.11859 0.17567 0.13728 0.0
C1114 C 0.12719 0.13319 0.17015 0.0
C1115 C 0.12833 0.13489 0.18828 0.0
C1116 C 0.11604 0.14647 0.19734 0.0
C1117 C 0.10221 0.15586 0.18799 0.0
C1118 C 0.10103 0.15411 0.16988 0.0
H1119 H 0.12453 0.18472 0.127 0.0
H1120 H 0.10561 0.18219 0.14198 0.0
H1121 H 0.12845 0.175 0.14836 0.0
H1122 H 0.13696 0.12437 0.1634 0.0
H1123 H 0.13902 0.12735 0.19518 0.0
H1124 H 0.07228 0.87598 0.44322 0.0
H1125 H 0.07522 0.87306 0.41153 0.0
H1126 H 0.12891 0.84792 0.41799 0.0
H1127 H 0.1257 0.85023 0.44976 0.0
H1128 H 0.10168 0.88773 0.3896 0.0
H1129 H 0.10207 0.81106 0.38642 0.0
H1130 H 0.09504 0.82357 0.40567 0.0
H1131 H 0.11919 0.82066 0.40078 0.0
C1132 C 0.08449 0.8694 0.43787 0.0
C1133 C 0.09847 0.86269 0.4489 0.0
C1134 C 0.08626 0.86796 0.41979 0.0
C1135 C 0.1021 0.8599 0.41242 0.0
C1136 C 0.11636 0.85374 0.42341 0.0
H1137 H 0.13665 0.86813 0.30392 0.0
H1138 H 0.13374 0.8712 0.33561 0.0
C1139 C 0.11458 0.85516 0.44152 0.0
C1140 C 0.10381 0.85829 0.39323 0.0
H1141 H 0.10893 0.82707 0.3602 0.0
C1142 C 0.10324 0.87448 0.38315 0.0
C1143 C 0.1056 0.84095 0.38486 0.0
C1144 C 0.10534 0.82304 0.39495 0.0
C1145 C 0.10462 0.87381 0.3649 0.0
C1146 C 0.10695 0.85652 0.35657 0.0
C1147 C 0.10731 0.84032 0.36664 0.0
C1148 C 0.10872 0.85486 0.33739 0.0
C1149 C 0.1032 0.8916 0.3547 0.0
C1150 C 0.09581 0.84442 0.32792 0.0
C1151 C 0.09752 0.84255 0.30986 0.0
C1152 C 0.1123 0.85093 0.30097 0.0
C1153 C 0.12513 0.86152 0.31045 0.0
C1154 C 0.12345 0.86334 0.32853 0.0
H1155 H 0.09664 0.90277 0.36248 0.0
H1156 H 0.11729 0.89626 0.35101 0.0
H1157 H 0.09508 0.88958 0.34255 0.0
H1158 H 0.08429 0.83784 0.3345 0.0
H1159 H 0.08709 0.8348 0.30287 0.0
H1160 H 0.3956 0.87915 0.70072 0.0
H1161 H 0.39805 0.8834 0.66906 0.0
H1162 H 0.3706 0.83114 0.66095 0.0
H1163 H 0.36749 0.82723 0.69252 0.0
H1164 H 0.41614 0.86139 0.64526 0.0
H1165 H 0.34142 0.86567 0.62949 0.0
H1166 H 0.35009 0.86761 0.65148 0.0
H1167 H 0.34744 0.84525 0.64151 0.0
C1168 C 0.39003 0.86864 0.69213 0.0
C1169 C 0.3818 0.85264 0.699 0.0
C1170 C 0.39147 0.87105 0.67409 0.0
C1171 C 0.38442 0.85764 0.66265 0.0
C1172 C 0.37595 0.84176 0.66952 0.0
H1173 H 0.41351 0.84057 0.55426 0.0
H1174 H 0.4101 0.83892 0.58593 0.0
C1175 C 0.37447 0.83938 0.68754 0.0
C1176 C 0.38644 0.85996 0.64354 0.0
H1177 H 0.36203 0.86179 0.60547 0.0
C1178 C 0.40431 0.86159 0.63656 0.0
C1179 C 0.37097 0.86047 0.63225 0.0
C1180 C 0.35139 0.85984 0.63905 0.0
C1181 C 0.40717 0.86329 0.61853 0.0
C1182 C 0.39174 0.86299 0.60718 0.0
C1183 C 0.37385 0.8618 0.61419 0.0
C1184 C 0.39387 0.86398 0.58797 0.0
C1185 C 0.42667 0.86563 0.61185 0.0
C1186 C 0.3854 0.87829 0.57854 0.0
C1187 C 0.38733 0.87924 0.56043 0.0
C1188 C 0.39784 0.86596 0.55145 0.0
C1189 C 0.40594 0.8514 0.56087 0.0
C1190 C 0.40394 0.8504 0.57897 0.0
H1191 H 0.43613 0.87073 0.6222 0.0
H1192 H 0.43195 0.85205 0.60731 0.0
H1193 H 0.42712 0.87542 0.6007 0.0
H1194 H 0.37743 0.88882 0.58521 0.0
H1195 H 0.38081 0.89053 0.55347 0.0
H1196 H 0.36189 0.16568 0.8067 0.0
H1197 H 0.36465 0.16328 0.83851 0.0
H1198 H 0.40767 0.12245 0.83247 0.0
H1199 H 0.40519 0.12511 0.80064 0.0
H1200 H 0.36072 0.13026 0.8595 0.0
H1201 H 0.43038 0.16228 0.86541 0.0
H1202 H 0.41606 0.16508 0.84629 0.0
H1203 H 0.42845 0.14387 0.84976 0.0
C1204 C 0.3722 0.15651 0.8122 0.0
C1205 C 0.38374 0.14599 0.80131 0.0
C1206 C 0.37362 0.15499 0.83031 0.0
C1207 C 0.3866 0.14295 0.83779 0.0
C1208 C 0.39782 0.13209 0.82692 0.0
H1209 H 0.41878 0.11632 0.94377 0.0
H1210 H 0.41564 0.11848 0.91202 0.0
C1211 C 0.39634 0.13355 0.80881 0.0
C1212 C 0.38816 0.14149 0.85698 0.0
H1213 H 0.41758 0.14928 0.89101 0.0
C1214 C 0.37311 0.13447 0.86643 0.0
C1215 C 0.40438 0.14695 0.86591 0.0
C1216 C 0.42072 0.15511 0.8564 0.0
C1217 C 0.37395 0.13244 0.88462 0.0
C1218 C 0.39014 0.13799 0.89359 0.0
C1219 C 0.40519 0.14503 0.8841 0.0
C1220 C 0.39182 0.1366 0.91281 0.0
C1221 C 0.35768 0.12395 0.894 0.0
C1222 C 0.37954 0.14615 0.92378 0.0
C1223 C 0.38137 0.14498 0.94189 0.0
C1224 C 0.39574 0.13455 0.9493 0.0
C1225 C 0.40795 0.12491 0.93834 0.0
C1226 C 0.40607 0.12601 0.92024 0.0
H1227 H 0.34878 0.11585 0.88499 0.0
H1228 H 0.36234 0.11475 0.90472 0.0
H1229 H 0.34909 0.13512 0.89973 0.0
H1230 H 0.36866 0.15467 0.91833 0.0
H1231 H 0.37175 0.15244 0.95012 0.0
H1232 H 0.91169 0.83985 0.94653 0.0
H1233 H 0.90866 0.83817 0.91484 0.0
H1234 H 0.87372 0.8865 0.91542 0.0
H1235 H 0.87686 0.88837 0.94719 0.0
H1236 H 0.85997 0.85785 0.89485 0.0
H1237 H 0.93347 0.87247 0.87915 0.0
H1238 H 0.93027 0.85373 0.89421 0.0
H1239 H 0.92367 0.87678 0.90042 0.0
C1240 C 0.90371 0.85036 0.9399 0.0
C1241 C 0.89496 0.86457 0.94929 0.0
C1242 C 0.90191 0.84933 0.92179 0.0
C1243 C 0.89131 0.86245 0.91275 0.0
C1244 C 0.88211 0.87634 0.92214 0.0
H1245 H 0.89284 0.87877 0.80014 0.0
H1246 H 0.89459 0.88292 0.83186 0.0
C1247 C 0.8839 0.87737 0.94026 0.0
C1248 C 0.8895 0.86146 0.89352 0.0
H1249 H 0.9145 0.86213 0.85576 0.0
C1250 C 0.87186 0.85887 0.88628 0.0
C1251 C 0.90502 0.86307 0.88239 0.0
C1252 C 0.92416 0.86684 0.88939 0.0
C1253 C 0.86938 0.85739 0.86818 0.0
C1254 C 0.88499 0.85825 0.85708 0.0
C1255 C 0.90257 0.86129 0.86431 0.0
C1256 C 0.88345 0.85591 0.83794 0.0
C1257 C 0.85003 0.85513 0.86109 0.0
C1258 C 0.87663 0.83935 0.83087 0.0
C1259 C 0.87557 0.83701 0.81282 0.0
C1260 C 0.88166 0.85104 0.80153 0.0
C1261 C 0.88825 0.86768 0.8086 0.0
C1262 C 0.88929 0.87004 0.82667 0.0
H1263 H 0.83944 0.85988 0.87059 0.0
H1264 H 0.84823 0.86294 0.84874 0.0
H1265 H 0.84745 0.84028 0.85837 0.0
H1266 H 0.87223 0.82819 0.83932 0.0
H1267 H 0.86985 0.82428 0.80769 0.0
H1268 H 0.89745 0.12226 0.69935 0.0
H1269 H 0.90025 0.11873 0.66763 0.0
H1270 H 0.87166 0.1705 0.66025 0.0
H1271 H 0.86826 0.1737 0.6919 0.0
H1272 H 0.85921 0.14292 0.63834 0.0
H1273 H 0.93585 0.14772 0.63645 0.0
H1274 H 0.92713 0.13013 0.65079 0.0
H1275 H 0.92251 0.15405 0.65543 0.0
C1276 C 0.89183 0.13288 0.69091 0.0
C1277 C 0.88322 0.14856 0.698 0.0
C1278 C 0.89354 0.13092 0.67285 0.0
C1279 C 0.88659 0.14459 0.66162 0.0
C1280 C 0.87739 0.15994 0.6687 0.0
H1281 H 0.91267 0.16064 0.55243 0.0
H1282 H 0.90893 0.16335 0.584 0.0
C1283 C 0.87566 0.16188 0.68675 0.0
C1284 C 0.88867 0.14282 0.64248 0.0
H1285 H 0.92084 0.13967 0.61002 0.0
C1286 C 0.87267 0.14223 0.63212 0.0
C1287 C 0.90627 0.14218 0.63442 0.0
C1288 C 0.92394 0.14372 0.6448 0.0
C1289 C 0.87379 0.1408 0.6139 0.0
C1290 C 0.89137 0.13961 0.60588 0.0
C1291 C 0.90737 0.14041 0.61623 0.0
C1292 C 0.89352 0.13786 0.58674 0.0
C1293 C 0.85614 0.14095 0.60338 0.0
C1294 C 0.88622 0.12257 0.57783 0.0
C1295 C 0.88844 0.12095 0.55979 0.0
C1296 C 0.89828 0.13442 0.55041 0.0
C1297 C 0.90553 0.14975 0.55935 0.0
C1298 C 0.90325 0.15139 0.57737 0.0
H1299 H 0.84439 0.14679 0.61093 0.0
H1300 H 0.85784 0.14912 0.59123 0.0
H1301 H 0.85251 0.12657 0.59971 0.0
H1302 H 0.87894 0.1118 0.58484 0.0
H1303 H 0.8827 0.109 0.55321 0.0
H1304 H 0.63558 0.16554 0.30631 0.0
H1305 H 0.63325 0.16287 0.33808 0.0
H1306 H 0.58871 0.12365 0.33225 0.0
H1307 H 0.59103 0.12632 0.30044 0.0
H1308 H 0.60365 0.17056 0.35951 0.0
H1309 H 0.62359 0.09672 0.36507 0.0
H1310 H 0.62695 0.10988 0.34533 0.0
H1311 H 0.60451 0.10068 0.35057 0.0
C1312 C 0.6251 0.1566 0.31184 0.0
C1313 C 0.61318 0.14645 0.30102 0.0
C1314 C 0.62391 0.15493 0.32996 0.0
C1315 C 0.61092 0.14294 0.33753 0.0
C1316 C 0.59907 0.13272 0.32669 0.0
H1317 H 0.57771 0.11833 0.44367 0.0
H1318 H 0.58031 0.12099 0.41187 0.0
C1319 C 0.60032 0.13432 0.30856 0.0
C1320 C 0.6095 0.14151 0.35676 0.0
H1321 H 0.61186 0.11104 0.39072 0.0
C1322 C 0.60555 0.15757 0.36635 0.0
C1323 C 0.612 0.12454 0.36565 0.0
C1324 C 0.61717 0.107 0.35616 0.0
C1325 C 0.60369 0.15706 0.38456 0.0
C1326 C 0.60604 0.14007 0.3934 0.0
C1327 C 0.61002 0.12402 0.38385 0.0
C1328 C 0.60442 0.13869 0.41259 0.0
C1329 C 0.59886 0.1746 0.39418 0.0
C1330 C 0.61728 0.14756 0.42345 0.0
C1331 C 0.61575 0.14614 0.44157 0.0
C1332 C 0.60123 0.13599 0.44907 0.0
C1333 C 0.58862 0.1268 0.43818 0.0
C1334 C 0.5902 0.12814 0.42006 0.0
H1335 H 0.59361 0.1855 0.38525 0.0
H1336 H 0.58824 0.17188 0.40433 0.0
H1337 H 0.61141 0.17998 0.40078 0.0
H1338 H 0.62857 0.15547 0.41791 0.0
H1339 H 0.6258 0.1531 0.44974 0.0
H1340 H 0.57347 0.87603 0.05764 0.0
H1341 H 0.57765 0.87349 0.08924 0.0
H1342 H 0.63175 0.84976 0.08124 0.0
H1343 H 0.62734 0.85172 0.04957 0.0
H1344 H 0.61059 0.83049 0.10551 0.0
H1345 H 0.61085 0.90565 0.11987 0.0
H1346 H 0.5909 0.89811 0.10788 0.0
H1347 H 0.61344 0.8966 0.09806 0.0
C1348 C 0.58609 0.86995 0.06264 0.0
C1349 C 0.59988 0.86359 0.05122 0.0
C1350 C 0.5886 0.8688 0.08067 0.0
C1351 C 0.60507 0.86158 0.08758 0.0
C1352 C 0.61894 0.85538 0.07617 0.0
H1353 H 0.63918 0.86803 0.19647 0.0
H1354 H 0.63706 0.87104 0.16468 0.0
C1355 C 0.61642 0.85652 0.05813 0.0
C1356 C 0.60765 0.86009 0.10669 0.0
H1357 H 0.60869 0.88538 0.14427 0.0
C1358 C 0.61028 0.84249 0.11399 0.0
C1359 C 0.60748 0.8758 0.11768 0.0
C1360 C 0.6057 0.89513 0.11049 0.0
C1361 C 0.61229 0.84012 0.13205 0.0
C1362 C 0.61136 0.85575 0.1431 0.0
C1363 C 0.6092 0.8734 0.13577 0.0
C1364 C 0.61254 0.85405 0.16232 0.0
C1365 C 0.61559 0.82093 0.13911 0.0
C1366 C 0.59924 0.84385 0.17154 0.0
C1367 C 0.60044 0.84212 0.18964 0.0
C1368 C 0.61497 0.85054 0.19886 0.0
C1369 C 0.62795 0.86123 0.18967 0.0
C1370 C 0.62676 0.86295 0.17154 0.0
H1371 H 0.62087 0.81143 0.12888 0.0
H1372 H 0.62563 0.82119 0.15007 0.0
H1373 H 0.60234 0.81522 0.14406 0.0
H1374 H 0.58783 0.83736 0.16473 0.0
H1375 H 0.58979 0.83444 0.19641 0.0
H1376 H 0.58463 0.65976 0.55286 0.0
H1377 H 0.58826 0.66222 0.58447 0.0
H1378 H 0.62056 0.61207 0.58472 0.0
H1379 H 0.61687 0.60948 0.55307 0.0
H1380 H 0.57756 0.63738 0.61034 0.0
H1381 H 0.65353 0.64861 0.611 0.0
H1382 H 0.63983 0.65062 0.59141 0.0
H1383 H 0.64636 0.62821 0.59948 0.0
C1384 C 0.59225 0.6491 0.55966 0.0
C1385 C 0.60017 0.63423 0.55053 0.0
C1386 C 0.59446 0.65061 0.5777 0.0
C1387 C 0.6048 0.63741 0.58691 0.0
C1388 C 0.61278 0.62258 0.57783 0.0
H1389 H 0.6024 0.62076 0.69955 0.0
H1390 H 0.59969 0.61716 0.66783 0.0
C1391 C 0.61061 0.62108 0.55977 0.0
C1392 C 0.60695 0.63904 0.60607 0.0
H1393 H 0.63907 0.6438 0.63841 0.0
C1394 C 0.591 0.63881 0.61649 0.0
C1395 C 0.62449 0.6411 0.61402 0.0
C1396 C 0.64204 0.64233 0.60342 0.0
C1397 C 0.59211 0.64042 0.6347 0.0
C1398 C 0.60968 0.642 0.64269 0.0
C1399 C 0.62563 0.6424 0.63225 0.0
C1400 C 0.61178 0.64379 0.66184 0.0
C1401 C 0.57444 0.64083 0.64518 0.0
C1402 C 0.62009 0.65963 0.66893 0.0
C1403 C 0.62178 0.66162 0.68698 0.0
C1404 C 0.61504 0.64786 0.69823 0.0
C1405 C 0.60736 0.63171 0.69112 0.0
C1406 C 0.6057 0.6297 0.67305 0.0
H1407 H 0.56225 0.64414 0.63692 0.0
H1408 H 0.57213 0.62704 0.65112 0.0
H1409 H 0.57531 0.65117 0.65586 0.0
H1410 H 0.62514 0.67054 0.6605 0.0
H1411 H 0.62847 0.67385 0.69213 0.0
H1412 H 0.57477 0.37554 0.94466 0.0
H1413 H 0.57708 0.3725 0.91293 0.0
H1414 H 0.63053 0.34665 0.91858 0.0
H1415 H 0.62793 0.34906 0.9504 0.0
H1416 H 0.60319 0.38673 0.89052 0.0
H1417 H 0.60272 0.31004 0.88756 0.0
H1418 H 0.59624 0.32268 0.90691 0.0
H1419 H 0.62025 0.3195 0.90155 0.0
C1420 C 0.58678 0.36878 0.93913 0.0
C1421 C 0.60086 0.36189 0.94994 0.0
C1422 C 0.58819 0.36726 0.92102 0.0
C1423 C 0.60378 0.35896 0.91342 0.0
C1424 C 0.61816 0.35265 0.92419 0.0
H1425 H 0.63634 0.36654 0.8044 0.0
H1426 H 0.63403 0.36963 0.83613 0.0
C1427 C 0.61673 0.35414 0.94232 0.0
C1428 C 0.60509 0.35727 0.8942 0.0
H1429 H 0.60917 0.3259 0.86117 0.0
C1430 C 0.60447 0.37343 0.88409 0.0
C1431 C 0.60652 0.33989 0.88585 0.0
C1432 C 0.6063 0.32201 0.89598 0.0
C1433 C 0.60545 0.3727 0.86582 0.0
C1434 C 0.60742 0.35536 0.8575 0.0
C1435 C 0.60782 0.33919 0.8676 0.0
C1436 C 0.60882 0.35364 0.83829 0.0
C1437 C 0.604 0.39047 0.85559 0.0
C1438 C 0.5956 0.34338 0.82903 0.0
C1439 C 0.59696 0.34151 0.81094 0.0
C1440 C 0.61169 0.3497 0.80182 0.0
C1441 C 0.62484 0.36009 0.8111 0.0
C1442 C 0.6235 0.36191 0.8292 0.0
H1443 H 0.59771 0.40173 0.86346 0.0
H1444 H 0.61806 0.39497 0.85163 0.0
H1445 H 0.5956 0.3885 0.84361 0.0
H1446 H 0.58411 0.33697 0.83579 0.0
H1447 H 0.58629 0.33392 0.80411 0.0
H1448 H 0.90034 0.3746 0.20003 0.0
H1449 H 0.90224 0.37902 0.16843 0.0
H1450 H 0.87218 0.32821 0.16047 0.0
H1451 H 0.86944 0.32421 0.19192 0.0
H1452 H 0.9186 0.35692 0.14398 0.0
H1453 H 0.8437 0.36412 0.13009 0.0
H1454 H 0.853 0.36527 0.1519 0.0
H1455 H 0.84925 0.34324 0.14159 0.0
C1456 C 0.89404 0.36442 0.19154 0.0
C1457 C 0.88512 0.34882 0.19851 0.0
C1458 C 0.89519 0.36694 0.1735 0.0
C1459 C 0.88725 0.35401 0.16209 0.0
C1460 C 0.87823 0.33848 0.16902 0.0
H1461 H 0.91332 0.33849 0.0527 0.0
H1462 H 0.91047 0.33608 0.08438 0.0
C1463 C 0.87701 0.336 0.18705 0.0
C1464 C 0.88883 0.35652 0.14296 0.0
H1465 H 0.86349 0.35991 0.10553 0.0
C1466 C 0.90656 0.35767 0.13557 0.0
C1467 C 0.87309 0.35776 0.13205 0.0
C1468 C 0.85369 0.35772 0.13931 0.0
C1469 C 0.90899 0.35965 0.11751 0.0
C1470 C 0.89327 0.3601 0.10652 0.0
C1471 C 0.87553 0.35935 0.11395 0.0
C1472 C 0.89491 0.36147 0.08729 0.0
C1473 C 0.92838 0.36154 0.11041 0.0
C1474 C 0.88658 0.3762 0.07833 0.0
C1475 C 0.88814 0.37756 0.06021 0.0
C1476 C 0.89818 0.36428 0.05076 0.0
C1477 C 0.9061 0.34929 0.0597 0.0
C1478 C 0.90444 0.34788 0.0778 0.0
H1479 H 0.93824 0.36618 0.12063 0.0
H1480 H 0.93314 0.34789 0.10556 0.0
H1481 H 0.92884 0.37151 0.09941 0.0
H1482 H 0.87901 0.38674 0.08538 0.0
H1483 H 0.88177 0.38918 0.05362 0.0
H1484 H 0.86488 0.66931 0.30686 0.0
H1485 H 0.86768 0.66627 0.33861 0.0
H1486 H 0.90602 0.62115 0.33179 0.0
H1487 H 0.90349 0.62439 0.30001 0.0
H1488 H 0.86047 0.63357 0.35935 0.0
H1489 H 0.93318 0.65802 0.36487 0.0
H1490 H 0.91903 0.66256 0.34592 0.0
H1491 H 0.92911 0.64012 0.34906 0.0
C1492 C 0.87419 0.65902 0.31217 0.0
C1493 C 0.88442 0.64744 0.30108 0.0
C1494 C 0.87562 0.65716 0.33026 0.0
C1495 C 0.88731 0.64372 0.33751 0.0
C1496 C 0.89721 0.63185 0.32643 0.0
H1497 H 0.91749 0.61336 0.44322 0.0
H1498 H 0.91435 0.6159 0.41148 0.0
C1499 C 0.8957 0.63364 0.30834 0.0
C1500 C 0.88891 0.6419 0.35667 0.0
H1501 H 0.91927 0.64634 0.39049 0.0
C1502 C 0.87329 0.63641 0.3662 0.0
C1503 C 0.90568 0.64556 0.36549 0.0
C1504 C 0.92271 0.65204 0.35589 0.0
C1505 C 0.87407 0.63417 0.38438 0.0
C1506 C 0.89083 0.63795 0.39324 0.0
C1507 C 0.90645 0.64344 0.38367 0.0
C1508 C 0.89249 0.63633 0.41246 0.0
C1509 C 0.85709 0.62735 0.39384 0.0
C1510 C 0.88133 0.64706 0.42352 0.0
C1511 C 0.88317 0.64566 0.44162 0.0
C1512 C 0.89647 0.63383 0.44892 0.0
C1513 C 0.90755 0.62303 0.43787 0.0
C1514 C 0.90565 0.62435 0.41978 0.0
H1515 H 0.84735 0.62022 0.38486 0.0
H1516 H 0.86086 0.61769 0.40451 0.0
H1517 H 0.84971 0.63932 0.39963 0.0
H1518 H 0.87132 0.65665 0.41816 0.0
H1519 H 0.87442 0.65406 0.44992 0.0
H1520 H 0.37925 0.38697 0.44806 0.0
H1521 H 0.37607 0.38397 0.41639 0.0
H1522 H 0.40653 0.3327 0.41797 0.0
H1523 H 0.40984 0.33572 0.44958 0.0
H1524 H 0.41891 0.35547 0.39235 0.0
H1525 H 0.3425 0.34977 0.38913 0.0
H1526 H 0.35027 0.37013 0.4003 0.0
H1527 H 0.35516 0.34769 0.40931 0.0
C1528 C 0.38517 0.37502 0.44164 0.0
C1529 C 0.39505 0.36174 0.45122 0.0
C1530 C 0.38327 0.37328 0.42357 0.0
C1531 C 0.3909 0.35801 0.41483 0.0
C1532 C 0.40059 0.34462 0.42444 0.0
H1533 H 0.36729 0.32526 0.30811 0.0
H1534 H 0.36982 0.32738 0.33989 0.0
C1535 C 0.40259 0.34643 0.44247 0.0
C1536 C 0.38932 0.35627 0.39562 0.0
H1537 H 0.35822 0.3542 0.36216 0.0
C1538 C 0.40564 0.35512 0.38575 0.0
C1539 C 0.372 0.35557 0.38705 0.0
C1540 C 0.35398 0.35567 0.39699 0.0
C1541 C 0.40512 0.35354 0.36752 0.0
C1542 C 0.38781 0.35355 0.3589 0.0
C1543 C 0.37148 0.35442 0.36878 0.0
C1544 C 0.38634 0.35234 0.33965 0.0
C1545 C 0.42311 0.35153 0.35771 0.0
C1546 C 0.39448 0.36585 0.32897 0.0
C1547 C 0.39333 0.36445 0.31082 0.0
C1548 C 0.38405 0.34952 0.30307 0.0
C1549 C 0.37528 0.33643 0.31376 0.0
C1550 C 0.37649 0.33777 0.3319 0.0
H1551 H 0.43445 0.34665 0.36634 0.0
H1552 H 0.42167 0.34169 0.34668 0.0
H1553 H 0.42721 0.36518 0.35235 0.0
H1554 H 0.40168 0.37751 0.33467 0.0
H1555 H 0.39988 0.37494 0.30284 0.0
H1556 H 0.41247 0.65829 0.05176 0.0
H1557 H 0.40933 0.66049 0.08343 0.0
H1558 H 0.37624 0.61087 0.08367 0.0
H1559 H 0.37934 0.60861 0.05193 0.0
H1560 H 0.36133 0.63832 0.10382 0.0
H1561 H 0.43558 0.62889 0.11974 0.0
H1562 H 0.43133 0.64742 0.1047 0.0
H1563 H 0.42623 0.62401 0.09841 0.0
C1564 C 0.40484 0.64765 0.05858 0.0
C1565 C 0.39656 0.63299 0.04943 0.0
C1566 C 0.40301 0.64895 0.07668 0.0
C1567 C 0.39291 0.63561 0.08595 0.0
C1568 C 0.38423 0.62123 0.07678 0.0
H1569 H 0.39616 0.62074 0.1986 0.0
H1570 H 0.39819 0.61662 0.1669 0.0
C1571 C 0.386 0.61996 0.05868 0.0
C1572 C 0.39105 0.63686 0.10517 0.0
H1573 H 0.41597 0.63848 0.14296 0.0
C1574 C 0.37326 0.63828 0.1124 0.0
C1575 C 0.40663 0.63651 0.11635 0.0
C1576 C 0.42601 0.63394 0.10945 0.0
C1577 C 0.37064 0.63974 0.13048 0.0
C1578 C 0.38626 0.64015 0.1416 0.0
C1579 C 0.40402 0.63835 0.1344 0.0
C1580 C 0.38452 0.64244 0.16074 0.0
C1581 C 0.35116 0.64055 0.13752 0.0
C1582 C 0.37616 0.6583 0.16778 0.0
C1583 C 0.37492 0.66059 0.18583 0.0
C1584 C 0.38236 0.64727 0.19715 0.0
C1585 C 0.3905 0.6313 0.19012 0.0
C1586 C 0.3917 0.62897 0.17206 0.0
H1587 H 0.34101 0.63479 0.12808 0.0
H1588 H 0.34995 0.63283 0.14998 0.0
H1589 H 0.34737 0.65518 0.13999 0.0
H1590 H 0.37072 0.66897 0.15931 0.0
H1591 H 0.36798 0.67272 0.19093 0.0
H1592 H 0.1234 0.65504 0.94844 0.0
H1593 H 0.12594 0.65744 0.91661 0.0
H1594 H 0.07964 0.62029 0.91087 0.0
H1595 H 0.07703 0.618 0.94264 0.0
H1596 H 0.13229 0.6305 0.89234 0.0
H1597 H 0.06411 0.66335 0.88025 0.0
H1598 H 0.07415 0.66175 0.90174 0.0
H1599 H 0.06265 0.64212 0.89227 0.0
C1600 C 0.1137 0.64754 0.94033 0.0
C1601 C 0.09966 0.63681 0.9479 0.0
C1602 C 0.11516 0.64889 0.9222 0.0
C1603 C 0.10269 0.63941 0.91137 0.0
C1604 C 0.08901 0.62822 0.91896 0.0
H1605 H 0.09233 0.62559 0.79925 0.0
H1606 H 0.08987 0.6229 0.83111 0.0
C1607 C 0.0875 0.62695 0.93708 0.0
C1608 C 0.10433 0.64082 0.89214 0.0
H1609 H 0.08063 0.65288 0.85532 0.0
C1610 C 0.12103 0.63549 0.88425 0.0
C1611 C 0.08962 0.64733 0.88162 0.0
C1612 C 0.07168 0.65413 0.88939 0.0
C1613 C 0.12331 0.63622 0.86609 0.0
C1614 C 0.10856 0.6426 0.8556 0.0
C1615 C 0.09187 0.64792 0.86345 0.0
C1616 C 0.11026 0.64406 0.83643 0.0
C1617 C 0.14136 0.62988 0.85821 0.0
C1618 C 0.12249 0.65687 0.82896 0.0
C1619 C 0.12384 0.65846 0.81084 0.0
C1620 C 0.11286 0.64737 0.79995 0.0
C1621 C 0.10081 0.63438 0.80743 0.0
C1622 C 0.09938 0.63287 0.82556 0.0
H1623 H 0.14973 0.62169 0.8676 0.0
H1624 H 0.13884 0.62137 0.8464 0.0
H1625 H 0.14957 0.64214 0.85426 0.0
H1626 H 0.13093 0.66569 0.83714 0.0
H1627 H 0.13365 0.66816 0.80536 0.0
H1628 H 0.0946 0.37215 0.69885 0.0
H1629 H 0.09211 0.37496 0.66707 0.0
H1630 H 0.13256 0.33161 0.66085 0.0
H1631 H 0.1352 0.32891 0.69252 0.0
H1632 H 0.11934 0.38332 0.64285 0.0
H1633 H 0.08996 0.31369 0.63016 0.0
H1634 H 0.09071 0.32375 0.65169 0.0
H1635 H 0.11111 0.31347 0.64243 0.0
C1636 C 0.10287 0.36316 0.69067 0.0
C1637 C 0.11462 0.34988 0.69813 0.0
C1638 C 0.10143 0.36477 0.67255 0.0
C1639 C 0.11181 0.35318 0.66161 0.0
C1640 C 0.12396 0.34026 0.66905 0.0
H1641 H 0.12409 0.34323 0.54929 0.0
H1642 H 0.12726 0.34072 0.58108 0.0
C1643 C 0.12535 0.33862 0.68716 0.0
C1644 C 0.11029 0.35496 0.6424 0.0
H1645 H 0.09907 0.33116 0.60543 0.0
C1646 C 0.11483 0.37195 0.63466 0.0
C1647 C 0.10443 0.34009 0.63177 0.0
C1648 C 0.0986 0.32176 0.63941 0.0
C1649 C 0.11394 0.37439 0.61652 0.0
C1650 C 0.1081 0.35951 0.6059 0.0
C1651 C 0.10359 0.34252 0.61363 0.0
C1652 C 0.10641 0.36134 0.58673 0.0
C1653 C 0.11959 0.39275 0.60884 0.0
C1654 C 0.09362 0.37372 0.57943 0.0
C1655 C 0.0918 0.37515 0.56134 0.0
C1656 C 0.10257 0.36403 0.55029 0.0
C1657 C 0.11553 0.35182 0.55759 0.0
C1658 C 0.11732 0.35036 0.57568 0.0
H1659 H 0.128 0.40102 0.61813 0.0
H1660 H 0.12765 0.39077 0.59666 0.0
H1661 H 0.10699 0.40083 0.60561 0.0
H1662 H 0.08497 0.38221 0.58773 0.0
H1663 H 0.08216 0.38511 0.55601 0.0
H1664 H 0.92354 0.25223 0.27851 0.0
H1665 H 0.95413 0.23894 0.27346 0.0
H1666 H 0.96929 0.28643 0.24264 0.0
H1667 H 0.93851 0.29969 0.24726 0.0
H1668 H 0.98351 0.25295 0.22943 0.0
H1669 H 0.99783 0.26106 0.30009 0.0
H1670 H 0.97771 0.24733 0.29558 0.0
H1671 H 0.97799 0.2714 0.28968 0.0
C1672 C 0.93327 0.25976 0.27044 0.0
C1673 C 0.92869 0.27717 0.26352 0.0
C1674 C 0.95076 0.25216 0.26762 0.0
C1675 C 0.96409 0.26193 0.25804 0.0
C1676 C 0.95922 0.27875 0.25017 0.0
H1677 H 0.08073 0.24292 0.27496 0.0
H1678 H 0.05074 0.25747 0.26998 0.0
C1679 C 0.94163 0.2863 0.25285 0.0
C1680 C 0.98346 0.25527 0.25742 0.0
H1681 H 0.01996 0.24441 0.28364 0.0
C1682 C 0.99156 0.25114 0.24124 0.0
C1683 C 0.99402 0.2533 0.27284 0.0
C1684 C 0.98654 0.25868 0.29051 0.0
C1685 C 0.00987 0.24464 0.24013 0.0
C1686 C 0.02014 0.24194 0.25564 0.0
C1687 C 0.01208 0.24641 0.27175 0.0
C1688 C 0.0392 0.23432 0.25577 0.0
C1689 C 0.01809 0.24101 0.22239 0.0
C1690 C 0.0429 0.21667 0.24898 0.0
C1691 C 0.06018 0.20839 0.25162 0.0
C1692 C 0.07388 0.21749 0.26141 0.0
C1693 C 0.07041 0.23549 0.26749 0.0
C1694 C 0.05327 0.24383 0.26464 0.0
H1695 H 0.01084 0.249 0.21207 0.0
H1696 H 0.03302 0.24458 0.22207 0.0
H1697 H 0.01662 0.22611 0.21924 0.0
H1698 H 0.03216 0.20888 0.24244 0.0
H1699 H 0.06241 0.19447 0.24686 0.0
H1700 H 0.99265 0.66909 0.5277 0.0
H1701 H 0.00645 0.69956 0.52343 0.0
H1702 H 0.95859 0.71681 0.49405 0.0
H1703 H 0.94483 0.68613 0.49787 0.0
H1704 H 0.99188 0.73127 0.48094 0.0
H1705 H 0.98554 0.74213 0.55229 0.0
H1706 H 0.99896 0.72212 0.54667 0.0
H1707 H 0.97475 0.72295 0.54123 0.0
C1708 C 0.98517 0.67926 0.52009 0.0
C1709 C 0.9675 0.67531 0.51337 0.0
C1710 C 0.99306 0.69668 0.51771 0.0
C1711 C 0.98332 0.71056 0.50883 0.0
C1712 C 0.96626 0.7063 0.50107 0.0
H1713 H 0.00408 0.8261 0.53006 0.0
H1714 H 0.98929 0.79633 0.52464 0.0
C1715 C 0.95842 0.68877 0.50327 0.0
C1716 C 0.99024 0.72983 0.50893 0.0
H1717 H 0.00222 0.76479 0.53652 0.0
C1718 C 0.99409 0.73868 0.49306 0.0
C1719 C 0.99271 0.73957 0.52476 0.0
C1720 C 0.9876 0.7313 0.5422 0.0
C1721 C 0.00081 0.75692 0.49262 0.0
C1722 C 0.00404 0.76635 0.50851 0.0
C1723 C -0.00016 0.75755 0.52433 0.0
C1724 C 0.01189 0.78528 0.50932 0.0
C1725 C 0.00408 0.76599 0.47519 0.0
C1726 C 0.02935 0.78916 0.50216 0.0
C1727 C 0.03776 0.80631 0.50506 0.0
C1728 C 0.029 0.81971 0.51547 0.0
C1729 C 0.01125 0.81602 0.5221 0.0
C1730 C 0.00277 0.79901 0.51899 0.0
H1731 H 0.99571 0.75939 0.46476 0.0
H1732 H 0.00071 0.78096 0.47563 0.0
H1733 H 0.01888 0.76449 0.47161 0.0
H1734 H 0.03686 0.77866 0.49501 0.0
H1735 H 0.05149 0.8087 0.49988 0.0
H1736 H 0.43385 0.80052 0.7405 0.0
H1737 H 0.4633 0.78599 0.73262 0.0
H1738 H 0.45763 0.74822 0.77581 0.0
H1739 H 0.42815 0.76218 0.78345 0.0
H1740 H 0.49408 0.78496 0.75177 0.0
H1741 H 0.47297 0.71326 0.73788 0.0
H1742 H 0.45647 0.73196 0.73916 0.0
H1743 H 0.46414 0.72032 0.75866 0.0
C1744 C 0.4387 0.78888 0.74811 0.0
C1745 C 0.42859 0.78251 0.76259 0.0
C1746 C 0.45555 0.78062 0.7436 0.0
C1747 C 0.46251 0.76579 0.75342 0.0
C1748 C 0.45231 0.75927 0.76772 0.0
H1749 H 0.56823 0.73536 0.78634 0.0
H1750 H 0.53931 0.7504 0.77862 0.0
C1751 C 0.43549 0.76743 0.77218 0.0
C1752 C 0.48119 0.75815 0.74997 0.0
H1753 H 0.5047 0.71733 0.74796 0.0
C1754 C 0.4964 0.7702 0.75054 0.0
C1755 C 0.48426 0.73895 0.74793 0.0
C1756 C 0.46855 0.72544 0.74567 0.0
C1757 C 0.51459 0.76343 0.75052 0.0
C1758 C 0.51758 0.74409 0.7504 0.0
C1759 C 0.50242 0.73215 0.7484 0.0
C1760 C 0.53599 0.73592 0.75411 0.0
C1761 C 0.53036 0.77707 0.75104 0.0
C1762 C 0.54361 0.72241 0.7431 0.0
C1763 C 0.5601 0.71348 0.74764 0.0
C1764 C 0.56922 0.71788 0.76331 0.0
C1765 C 0.56168 0.73166 0.77412 0.0
C1766 C 0.54518 0.74045 0.76964 0.0
H1767 H 0.5265 0.79022 0.74449 0.0
H1768 H 0.53367 0.78038 0.76483 0.0
H1769 H 0.54296 0.77144 0.7447 0.0
H1770 H 0.53665 0.71857 0.73113 0.0
H1771 H 0.56547 0.70292 0.73904 0.0
H1772 H 0.49183 0.16986 0.02807 0.0
H1773 H 0.50659 0.19985 0.02366 0.0
H1774 H 0.45902 0.21867 0.99472 0.0
H1775 H 0.44428 0.18843 0.99868 0.0
H1776 H 0.49311 0.23223 0.98156 0.0
H1777 H 0.48647 0.2427 0.05295 0.0
H1778 H 0.49924 0.2223 0.04724 0.0
H1779 H 0.47512 0.224 0.04165 0.0
C1780 C 0.48462 0.18026 0.02051 0.0
C1781 C 0.46675 0.17692 0.01399 0.0
C1782 C 0.49306 0.19739 0.01803 0.0
C1783 C 0.48368 0.21159 0.00926 0.0
C1784 C 0.46642 0.2079 0.00164 0.0
H1785 H 0.50721 0.32626 0.03134 0.0
H1786 H 0.49185 0.29686 0.02562 0.0
C1787 C 0.45802 0.19064 0.00392 0.0
C1788 C 0.49114 0.23063 0.00953 0.0
H1789 H 0.50394 0.26497 0.03747 0.0
C1790 C 0.49543 0.23947 0.99374 0.0
C1791 C 0.49376 0.24016 0.02545 0.0
C1792 C 0.48824 0.2319 0.04278 0.0
C1793 C 0.50273 0.2575 0.99351 0.0
C1794 C 0.50609 0.26668 0.0095 0.0
C1795 C 0.50146 0.2579 0.02522 0.0
C1796 C 0.51441 0.28539 0.01052 0.0
C1797 C 0.50649 0.2666 0.97618 0.0
C1798 C 0.53206 0.28889 0.00363 0.0
C1799 C 0.54082 0.30582 0.00672 0.0
C1800 C 0.5322 0.31937 0.01706 0.0
C1801 C 0.51429 0.31604 0.02346 0.0
C1802 C 0.50547 0.29926 0.02016 0.0
H1803 H 0.49812 0.26028 0.96559 0.0
H1804 H 0.50347 0.28164 0.97667 0.0
H1805 H 0.5213 0.26477 0.9728 0.0
H1806 H 0.53942 0.27826 0.99651 0.0
H1807 H 0.55466 0.30796 0.00169 0.0
H1808 H 0.93287 0.70091 0.25981 0.0
H1809 H 0.96207 0.71606 0.26752 0.0
H1810 H 0.95768 0.75058 0.22184 0.0
H1811 H 0.92847 0.73599 0.21432 0.0
H1812 H 0.99332 0.7156 0.24914 0.0
H1813 H 0.97218 0.78824 0.25764 0.0
H1814 H 0.95562 0.76955 0.25715 0.0
H1815 H 0.96396 0.77966 0.23714 0.0
C1816 C 0.93796 0.71196 0.25159 0.0
C1817 C 0.92831 0.71722 0.23644 0.0
C1818 C 0.95465 0.7206 0.25601 0.0
C1819 C 0.96191 0.73468 0.24543 0.0
C1820 C 0.95212 0.74014 0.2305 0.0
H1821 H 0.06894 0.76245 0.21373 0.0
H1822 H 0.03957 0.74818 0.22134 0.0
C1823 C 0.93545 0.73162 0.22612 0.0
C1824 C 0.98052 0.74252 0.24883 0.0
H1825 H 0.00419 0.7833 0.2488 0.0
C1826 C 0.99568 0.7304 0.24947 0.0
C1827 C 0.98363 0.76181 0.24966 0.0
C1828 C 0.96793 0.77552 0.25057 0.0
C1829 C 0.01389 0.7371 0.24954 0.0
C1830 C 0.01699 0.75638 0.2485 0.0
C1831 C 0.00184 0.7685 0.24927 0.0
C1832 C 0.03557 0.76418 0.2449 0.0
C1833 C 0.02961 0.72339 0.25034 0.0
C1834 C 0.04297 0.77825 0.25541 0.0
C1835 C 0.05973 0.7867 0.25093 0.0
C1836 C 0.06934 0.78125 0.23582 0.0
C1837 C 0.062 0.76694 0.22551 0.0
C1838 C 0.04525 0.75861 0.22994 0.0
H1839 H 0.02545 0.7107 0.2575 0.0
H1840 H 0.03343 0.71921 0.23689 0.0
H1841 H 0.04199 0.7294 0.25678 0.0
H1842 H 0.03563 0.78288 0.26693 0.0
H1843 H 0.06496 0.79769 0.25915 0.0
H1844 H 0.50628 0.67388 0.46931 0.0
H1845 H 0.49307 0.70447 0.47428 0.0
H1846 H 0.54028 0.71934 0.50567 0.0
H1847 H 0.55346 0.68849 0.50114 0.0
H1848 H 0.50667 0.73354 0.51859 0.0
H1849 H 0.51549 0.74823 0.44812 0.0
H1850 H 0.50172 0.72807 0.45228 0.0
H1851 H 0.52572 0.72835 0.45852 0.0
C1852 C 0.51378 0.68355 0.47745 0.0
C1853 C 0.53108 0.67887 0.48458 0.0
C1854 C 0.50622 0.70104 0.48025 0.0
C1855 C 0.51593 0.71428 0.48997 0.0
C1856 C 0.53265 0.70933 0.49801 0.0
H1857 H 0.49456 0.83047 0.47281 0.0
H1858 H 0.50995 0.80094 0.47791 0.0
C1859 C 0.54016 0.69172 0.49538 0.0
C1860 C 0.50925 0.73362 0.49062 0.0
H1861 H 0.49802 0.76995 0.46439 0.0
C1862 C 0.50487 0.7416 0.50679 0.0
C1863 C 0.5073 0.74419 0.47522 0.0
C1864 C 0.51298 0.73686 0.45757 0.0
C1865 C 0.49805 0.75978 0.50789 0.0
C1866 C 0.49526 0.77001 0.49237 0.0
C1867 C 0.50006 0.7621 0.47629 0.0
C1868 C 0.48713 0.78884 0.4922 0.0
C1869 C 0.49414 0.76788 0.52562 0.0
C1870 C 0.46937 0.79209 0.49899 0.0
C1871 C 0.46063 0.80911 0.49631 0.0
C1872 C 0.46935 0.82299 0.48645 0.0
C1873 C 0.48742 0.81998 0.48033 0.0
C1874 C 0.49625 0.80312 0.48325 0.0
H1875 H 0.50236 0.76088 0.53594 0.0
H1876 H 0.49725 0.78291 0.52596 0.0
H1877 H 0.47928 0.76594 0.52876 0.0
H1878 H 0.46188 0.78118 0.50558 0.0
H1879 H 0.44665 0.811 0.50109 0.0
H1880 H 0.42525 0.23453 0.71357 0.0
H1881 H 0.45474 0.24908 0.72026 0.0
H1882 H 0.45898 0.2168 0.76738 0.0
H1883 H 0.42955 0.20163 0.7605 0.0
H1884 H 0.46789 0.26946 0.7472 0.0
H1885 H 0.50615 0.20289 0.74206 0.0
H1886 H 0.48226 0.20512 0.73565 0.0
H1887 H 0.48831 0.20368 0.75834 0.0
C1888 C 0.43232 0.23056 0.72545 0.0
C1889 C 0.42514 0.21668 0.73637 0.0
C1890 C 0.44919 0.23896 0.72928 0.0
C1891 C 0.45924 0.23378 0.74414 0.0
C1892 C 0.45166 0.22069 0.75562 0.0
H1893 H 0.56329 0.29623 0.75955 0.0
H1894 H 0.53339 0.28206 0.76648 0.0
C1895 C 0.43479 0.21212 0.75172 0.0
C1896 C 0.47804 0.2415 0.74681 0.0
H1897 H 0.52378 0.2297 0.74621 0.0
C1898 C 0.48014 0.26079 0.74723 0.0
C1899 C 0.49397 0.23011 0.74671 0.0
C1900 C 0.49267 0.20931 0.74553 0.0
C1901 C 0.4977 0.26905 0.74671 0.0
C1902 C 0.51362 0.25766 0.74622 0.0
C1903 C 0.51154 0.23837 0.74666 0.0
C1904 C 0.53235 0.26534 0.74309 0.0
C1905 C 0.49899 0.28985 0.7456 0.0
C1906 C 0.54202 0.2601 0.72802 0.0
C1907 C 0.55915 0.26793 0.72415 0.0
C1908 C 0.567 0.28128 0.73525 0.0
C1909 C 0.55756 0.28612 0.75064 0.0
C1910 C 0.54042 0.27812 0.75458 0.0
H1911 H 0.48542 0.29631 0.74257 0.0
H1912 H 0.5038 0.29539 0.75831 0.0
H1913 H 0.50909 0.29408 0.73545 0.0
H1914 H 0.53607 0.25024 0.71898 0.0
H1915 H 0.56602 0.26382 0.71222 0.0
H1916 H 0.00618 0.17213 0.9694 0.0
H1917 H 0.99199 0.20228 0.97448 0.0
H1918 H 0.03913 0.21885 0.00519 0.0
H1919 H 0.0533 0.18847 0.00052 0.0
H1920 H 0.00498 0.23236 0.0182 0.0
H1921 H 0.0135 0.24609 0.94747 0.0
H1922 H 0.00025 0.22568 0.95206 0.0
H1923 H 0.02426 0.22667 0.95819 0.0
C1924 C 0.01343 0.18208 0.97746 0.0
C1925 C 0.031 0.17805 0.98432 0.0
C1926 C 0.0053 0.1993 0.98032 0.0
C1927 C 0.01473 0.2129 0.98984 0.0
C1928 C 0.03171 0.20854 0.9977 0.0
H1929 H 0.99363 0.32872 0.97179 0.0
H1930 H 0.0085 0.29897 0.97703 0.0
C1931 C 0.03978 0.19119 0.99501 0.0
C1932 C 0.00761 0.23207 0.99023 0.0
H1933 H 0.99608 0.26793 0.96353 0.0
C1934 C 0.00308 0.24023 0.00629 0.0
C1935 C 0.00553 0.24238 0.97469 0.0
C1936 C 0.01131 0.23486 0.95714 0.0
C1937 C 0.99609 0.25835 0.00715 0.0
C1938 C 0.9933 0.26835 0.9915 0.0
C1939 C 0.99814 0.26024 0.97552 0.0
C1940 C 0.98534 0.28724 0.99109 0.0
C1941 C 0.99205 0.26668 0.02476 0.0
C1942 C 0.96754 0.29072 0.99767 0.0
C1943 C 0.95907 0.30787 0.99487 0.0
C1944 C 0.96813 0.32162 0.98514 0.0
C1945 C 0.98622 0.31833 0.97919 0.0
C1946 C 0.99475 0.30135 0.98221 0.0
H1947 H 3e-05 0.2597 0.03525 0.0
H1948 H 0.99535 0.28168 0.02498 0.0
H1949 H 0.97712 0.26498 0.02773 0.0
H1950 H 0.95983 0.27993 0.00422 0.0
H1951 H 0.94508 0.30998 0.99955 0.0
H1952 H 0.9285 0.76203 0.71433 0.0
H1953 H 0.95777 0.74738 0.7215 0.0
H1954 H 0.96263 0.78161 0.76733 0.0
H1955 H 0.93342 0.79685 0.75994 0.0
H1956 H 0.99374 0.78204 0.74882 0.0
H1957 H 0.97235 0.70942 0.75697 0.0
H1958 H 0.96407 0.71818 0.73656 0.0
H1959 H 0.95586 0.72818 0.75666 0.0
C1960 C 0.9356 0.76634 0.72608 0.0
C1961 C 0.92856 0.78067 0.73655 0.0
C1962 C 0.9523 0.75778 0.73026 0.0
C1963 C 0.96223 0.76311 0.74515 0.0
C1964 C 0.9551 0.77715 0.75586 0.0
H1965 H 0.0652 0.6997 0.75817 0.0
H1966 H 0.03591 0.71453 0.76611 0.0
C1967 C 0.93839 0.78584 0.75162 0.0
C1968 C 0.98083 0.75517 0.7484 0.0
H1969 H 0.00434 0.71429 0.74805 0.0
C1970 C 0.99604 0.76722 0.74905 0.0
C1971 C 0.98387 0.73586 0.74911 0.0
C1972 C 0.96812 0.72221 0.74999 0.0
C1973 C 0.01422 0.76045 0.74902 0.0
C1974 C 0.01724 0.74116 0.74787 0.0
C1975 C 0.00205 0.7291 0.74861 0.0
C1976 C 0.03577 0.73331 0.74415 0.0
C1977 C 0.03 0.77408 0.74983 0.0
C1978 C 0.04538 0.73891 0.72916 0.0
C1979 C 0.0621 0.73056 0.72463 0.0
C1980 C 0.06946 0.71621 0.73487 0.0
C1981 C 0.05992 0.71072 0.75001 0.0
C1982 C 0.04319 0.71918 0.75458 0.0
H1983 H 0.02592 0.78675 0.75706 0.0
H1984 H 0.04237 0.76798 0.75621 0.0
H1985 H 0.0338 0.77831 0.73639 0.0
H1986 H 0.03968 0.74938 0.72062 0.0
H1987 H 0.06898 0.73508 0.71284 0.0
H1988 H 0.04682 0.3178 0.51025 0.0
H1989 H 0.03182 0.28842 0.51759 0.0
H1990 H 0.99873 0.29217 0.47092 0.0
H1991 H 0.01309 0.32161 0.46379 0.0
H1992 H 0.97878 0.27936 0.4983 0.0
H1993 H 0.04531 0.24102 0.49255 0.0
H1994 H 0.04469 0.25901 0.50868 0.0
H1995 H 0.04301 0.26483 0.48596 0.0
C1996 C 0.0362 0.31245 0.50166 0.0
C1997 C 0.03132 0.32196 0.48632 0.0
C1998 C 0.02772 0.29561 0.50583 0.0
C1999 C 0.01443 0.28793 0.49461 0.0
C2000 C 0.00899 0.29781 0.47974 0.0
H2001 H 0.98414 0.18227 0.46183 0.0
H2002 H 0.99778 0.21196 0.46925 0.0
C2003 C 0.01729 0.31465 0.47566 0.0
C2004 C 0.00674 0.26918 0.49755 0.0
H2005 H 0.01848 0.22347 0.49671 0.0
C2006 C 0.98744 0.26711 0.49823 0.0
C2007 C 0.01812 0.25325 0.49735 0.0
C2008 C 0.03892 0.25452 0.49596 0.0
C2009 C 0.97914 0.24958 0.49772 0.0
C2010 C 0.99051 0.23366 0.497 0.0
C2011 C 0.00982 0.23571 0.49732 0.0
C2012 C 0.98279 0.21504 0.49351 0.0
C2013 C 0.95831 0.24832 0.49681 0.0
C2014 C 0.97003 0.20669 0.50485 0.0
C2015 C 0.96198 0.18969 0.50053 0.0
C2016 C 0.96675 0.18067 0.48489 0.0
C2017 C 0.98007 0.1888 0.47394 0.0
C2018 C 0.98795 0.20579 0.47819 0.0
H2019 H 0.95181 0.26195 0.49414 0.0
H2020 H 0.95396 0.23848 0.48648 0.0
H2021 H 0.95292 0.24319 0.50946 0.0
H2022 H 0.96615 0.21341 0.51693 0.0
H2023 H 0.95189 0.18373 0.50932 0.0
H2024 H 0.43279 0.29576 0.26072 0.0
H2025 H 0.46235 0.28092 0.26759 0.0
H2026 H 0.45889 0.24927 0.22004 0.0
H2027 H 0.42921 0.26347 0.21338 0.0
H2028 H 0.47179 0.2286 0.24681 0.0
H2029 H 0.5098 0.29539 0.24318 0.0
H2030 H 0.49174 0.29432 0.25923 0.0
H2031 H 0.48601 0.29316 0.23645 0.0
C2032 C 0.43821 0.28548 0.25184 0.0
C2033 C 0.42868 0.28096 0.23641 0.0
C2034 C 0.45518 0.27711 0.25573 0.0
C2035 C 0.46301 0.26427 0.24414 0.0
C2036 C 0.45315 0.25919 0.22914 0.0
H2037 H 0.57035 0.23481 0.21365 0.0
H2038 H 0.54054 0.24868 0.22039 0.0
C2039 C 0.43616 0.26739 0.22533 0.0
C2040 C 0.48181 0.25661 0.24697 0.0
H2041 H 0.52749 0.26862 0.24755 0.0
C2042 C 0.48399 0.23732 0.2472 0.0
C2043 C 0.49768 0.26807 0.24736 0.0
C2044 C 0.4963 0.28888 0.24641 0.0
C2045 C 0.50161 0.22915 0.24697 0.0
C2046 C 0.51748 0.24062 0.247 0.0
C2047 C 0.51529 0.25989 0.24762 0.0
C2048 C 0.53631 0.23305 0.24413 0.0
C2049 C 0.50301 0.20837 0.2456 0.0
C2050 C 0.54411 0.21996 0.25548 0.0
C2051 C 0.56117 0.21179 0.25155 0.0
C2052 C 0.5708 0.21677 0.2363 0.0
C2053 C 0.56332 0.23056 0.22546 0.0
C2054 C 0.54626 0.23856 0.22931 0.0
H2055 H 0.48954 0.20192 0.24217 0.0
H2056 H 0.51337 0.20434 0.23561 0.0
H2057 H 0.50751 0.20264 0.25832 0.0
H2058 H 0.53687 0.21583 0.26721 0.0
H2059 H 0.56664 0.20136 0.26027 0.0
H2060 H 0.55182 0.80894 0.00128 0.0
H2061 H 0.53823 0.77818 0.00525 0.0
H2062 H 0.49102 0.79447 0.97449 0.0
H2063 H 0.50463 0.825 0.9701 0.0
H2064 H 0.50433 0.76406 0.01797 0.0
H2065 H 0.51306 0.75121 0.94714 0.0
H2066 H 0.52355 0.77065 0.95805 0.0
H2067 H 0.49955 0.77142 0.95185 0.0
C2068 C 0.53842 0.80606 0.99558 0.0
C2069 C 0.52945 0.81928 0.98511 0.0
C2070 C 0.53068 0.78849 0.99788 0.0
C2071 C 0.51384 0.78397 0.98983 0.0
C2072 C 0.50424 0.79758 0.98046 0.0
H2073 H 0.44443 0.68685 0.99876 0.0
H2074 H 0.45932 0.71679 0.0036 0.0
C2075 C 0.51203 0.81502 0.978 0.0
C2076 C 0.50696 0.7647 0.99001 0.0
H2077 H 0.49558 0.72913 0.96292 0.0
C2078 C 0.50249 0.75633 0.00597 0.0
C2079 C 0.50495 0.75456 0.97436 0.0
C2080 C 0.5107 0.76233 0.95689 0.0
C2081 C 0.49556 0.73817 0.00664 0.0
C2082 C 0.49277 0.72836 0.99089 0.0
C2083 C 0.49763 0.73667 0.975 0.0
C2084 C 0.48472 0.70952 0.99028 0.0
C2085 C 0.49157 0.72962 0.02417 0.0
C2086 C 0.49401 0.69546 0.98119 0.0
C2087 C 0.48539 0.67853 0.97808 0.0
C2088 C 0.46734 0.67525 0.98412 0.0
C2089 C 0.45839 0.68895 0.99402 0.0
C2090 C 0.46694 0.70603 0.99691 0.0
H2091 H 0.49965 0.73641 0.0347 0.0
H2092 H 0.47667 0.73138 0.02723 0.0
H2093 H 0.49478 0.71461 0.0242 0.0
H2094 H 0.50774 0.69783 0.97596 0.0
H2095 H 0.49272 0.66819 0.97054 0.0
H2096 H 0.93388 0.20143 0.7398 0.0
H2097 H 0.96384 0.21547 0.73292 0.0
H2098 H 0.96048 0.24841 0.77969 0.0
H2099 H 0.93046 0.23499 0.78636 0.0
H2100 H 0.9736 0.2682 0.75232 0.0
H2101 H 0.01109 0.20126 0.75807 0.0
H2102 H 0.99308 0.20205 0.74195 0.0
H2103 H 0.98729 0.2039 0.76467 0.0
C2104 C 0.93943 0.2118 0.74852 0.0
C2105 C 0.9298 0.21695 0.76371 0.0
C2106 C 0.95662 0.21971 0.74462 0.0
C2107 C 0.96455 0.23273 0.75597 0.0
C2108 C 0.95465 0.23835 0.77077 0.0
H2109 H 0.07133 0.26271 0.7873 0.0
H2110 H 0.04169 0.2486 0.78034 0.0
C2111 C 0.93747 0.2306 0.77459 0.0
C2112 C 0.98343 0.24014 0.75306 0.0
H2113 H 0.02903 0.22781 0.75346 0.0
C2114 C 0.98574 0.25939 0.75232 0.0
C2115 C 0.99922 0.22856 0.75318 0.0
C2116 C 0.99766 0.20781 0.75464 0.0
C2117 C 0.0034 0.26745 0.75258 0.0
C2118 C 0.01919 0.25589 0.75311 0.0
C2119 C 0.01689 0.23662 0.75296 0.0
C2120 C 0.038 0.26344 0.75608 0.0
C2121 C 0.00491 0.28826 0.75342 0.0
C2122 C 0.04606 0.27614 0.74451 0.0
C2123 C 0.06302 0.28446 0.74856 0.0
C2124 C 0.07228 0.28001 0.76416 0.0
C2125 C 0.06458 0.26656 0.77523 0.0
C2126 C 0.04761 0.25841 0.77125 0.0
H2127 H 0.99142 0.2949 0.75643 0.0
H2128 H 0.0151 0.29253 0.76347 0.0
H2129 H 0.0097 0.29357 0.74062 0.0
H2130 H 0.03909 0.27989 0.73253 0.0
H2131 H 0.06868 0.29461 0.73966 0.0
H2132 H 0.49272 0.32879 0.52852 0.0
H2133 H 0.50836 0.29947 0.52312 0.0
H2134 H 0.45984 0.27899 0.49663 0.0
H2135 H 0.44431 0.30863 0.50145 0.0
H2136 H 0.49708 0.2682 0.53689 0.0
H2137 H 0.50004 0.25963 0.46519 0.0
H2138 H 0.49491 0.28153 0.4754 0.0
H2139 H 0.47711 0.26433 0.47296 0.0
C2140 C 0.4855 0.31818 0.52123 0.0
C2141 C 0.46724 0.32094 0.51553 0.0
C2142 C 0.49447 0.30144 0.51812 0.0
C2143 C 0.48533 0.28704 0.5094 0.0
C2144 C 0.46734 0.29001 0.50305 0.0
H2145 H 0.50824 0.17251 0.53123 0.0
H2146 H 0.49381 0.20258 0.52639 0.0
C2147 C 0.45843 0.30692 0.50593 0.0
C2148 C 0.49379 0.26837 0.50896 0.0
H2149 H 0.50574 0.23244 0.48231 0.0
C2150 C 0.4991 0.26048 0.52491 0.0
C2151 C 0.49654 0.25833 0.49334 0.0
C2152 C 0.49202 0.26645 0.47574 0.0
C2153 C 0.50686 0.24278 0.52574 0.0
C2154 C 0.50886 0.2324 0.51023 0.0
C2155 C 0.50391 0.24036 0.49419 0.0
C2156 C 0.5162 0.21331 0.51064 0.0
C2157 C 0.51308 0.23548 0.54324 0.0
C2158 C 0.53306 0.20904 0.50251 0.0
C2159 C 0.54127 0.19173 0.50508 0.0
C2160 C 0.53276 0.17853 0.51589 0.0
C2161 C 0.5153 0.18249 0.52307 0.0
C2162 C 0.50704 0.19967 0.52034 0.0
H2163 H 0.51531 0.24683 0.55278 0.0
H2164 H 0.50224 0.22621 0.54858 0.0
H2165 H 0.52611 0.22746 0.54203 0.0
H2166 H 0.54027 0.21938 0.49488 0.0
H2167 H 0.55468 0.18905 0.4993 0.0
H2168 H 0.42991 0.73689 0.28209 0.0
H2169 H 0.45925 0.75089 0.27418 0.0
H2170 H 0.46352 0.71453 0.22979 0.0
H2171 H 0.43421 0.69991 0.23796 0.0
H2172 H 0.49474 0.7147 0.24796 0.0
H2173 H 0.47403 0.78708 0.23731 0.0
H2174 H 0.46566 0.77939 0.25805 0.0
H2175 H 0.45734 0.76855 0.23838 0.0
C2176 C 0.43689 0.73197 0.27049 0.0
C2177 C 0.42963 0.71725 0.26065 0.0
C2178 C 0.45363 0.74016 0.26587 0.0
C2179 C 0.4634 0.73406 0.25116 0.0
C2180 C 0.45609 0.71959 0.24109 0.0
H2181 H 0.5667 0.79689 0.23875 0.0
H2182 H 0.53778 0.78184 0.23005 0.0
C2183 C 0.43933 0.71127 0.24577 0.0
C2184 C 0.48205 0.74168 0.24754 0.0
H2185 H 0.5059 0.78235 0.24698 0.0
C2186 C 0.49716 0.72949 0.24731 0.0
C2187 C 0.48527 0.76093 0.24625 0.0
C2188 C 0.46965 0.77469 0.24481 0.0
C2189 C 0.5154 0.7361 0.24733 0.0
C2190 C 0.51857 0.75539 0.24807 0.0
C2191 C 0.5035 0.76755 0.24677 0.0
C2192 C 0.53705 0.76319 0.25211 0.0
C2193 C 0.53106 0.72231 0.24702 0.0
C2194 C 0.54624 0.75772 0.26738 0.0
C2195 C 0.56276 0.76617 0.27231 0.0
C2196 C 0.57034 0.78053 0.26223 0.0
C2197 C 0.56126 0.78586 0.2468 0.0
C2198 C 0.54474 0.77727 0.2418 0.0
H2199 H 0.52703 0.70961 0.23982 0.0
H2200 H 0.54366 0.7282 0.24088 0.0
H2201 H 0.53445 0.71817 0.26058 0.0
H2202 H 0.54031 0.7473 0.27584 0.0
H2203 H 0.56928 0.76176 0.28433 0.0
H2204 H 0.00454 0.6703 0.02721 0.0
H2205 H 0.98868 0.69949 0.02175 0.0
H2206 H 0.03662 0.71982 0.99424 0.0
H2207 H 0.05234 0.6903 0.99911 0.0
H2208 H 6e-05 0.73088 0.03504 0.0
H2209 H 0.99589 0.73891 0.96335 0.0
H2210 H 0.00128 0.7171 0.97363 0.0
H2211 H 0.01899 0.73433 0.97074 0.0
C2212 C 0.01157 0.68084 0.01967 0.0
C2213 C 0.02974 0.67808 0.01371 0.0
C2214 C 0.00247 0.69751 0.01653 0.0
C2215 C 0.0114 0.71184 0.00751 0.0
C2216 C 0.02928 0.70885 0.00089 0.0
H2217 H 0.99008 0.82657 0.02894 0.0
H2218 H 0.00396 0.79628 0.02397 0.0
C2219 C 0.03831 0.69201 0.0038 0.0
C2220 C 0.00291 0.7305 0.00707 0.0
H2221 H 0.99077 0.76633 0.98037 0.0
C2222 C 0.99788 0.73852 0.02304 0.0
C2223 C -4e-05 0.74045 0.99142 0.0
C2224 C 0.00414 0.73218 0.9738 0.0
C2225 C 0.99026 0.75628 0.02386 0.0
C2226 C 0.98812 0.76658 0.00833 0.0
C2227 C 0.99272 0.75848 0.99227 0.0
C2228 C 0.98105 0.78577 0.00875 0.0
C2229 C 0.9844 0.76375 0.04141 0.0
C2230 C 0.96406 0.79023 0.00096 0.0
C2231 C 0.95615 0.80767 0.0036 0.0
C2232 C 0.96511 0.82081 0.01417 0.0
C2233 C 0.98268 0.81665 0.02099 0.0
C2234 C 0.99063 0.79934 0.01818 0.0
H2235 H 0.98222 0.75249 0.05104 0.0
H2236 H 0.99542 0.77295 0.04654 0.0
H2237 H 0.97143 0.7719 0.04034 0.0
H2238 H 0.95653 0.77995 0.99354 0.0
H2239 H 0.94265 0.8105 0.9981 0.0
H2240 H 0.11941 0.2768 0.30677 0.0
H2241 H 0.12004 0.29925 0.33055 0.0
H2242 H 0.13525 0.25617 0.36666 0.0
H2243 H 0.13473 0.23354 0.34293 0.0
H2244 H 0.09581 0.29354 0.35989 0.0
H2245 H 0.16939 0.30096 0.37999 0.0
H2246 H 0.16271 0.293 0.35855 0.0
H2247 H 0.16093 0.27778 0.37694 0.0
C2248 C 0.12322 0.27212 0.3197 0.0
C2249 C 0.12684 0.25335 0.323 0.0
C2250 C 0.12364 0.28499 0.33325 0.0
C2251 C 0.12787 0.27938 0.35029 0.0
C2252 C 0.13228 0.26082 0.35353 0.0
H2253 H 0.10801 0.3281 0.45133 0.0
H2254 H 0.12201 0.31027 0.42751 0.0
C2255 C 0.13181 0.24789 0.33997 0.0
C2256 C 0.12506 0.29237 0.36492 0.0
H2257 H 0.14683 0.31534 0.39802 0.0
C2258 C 0.10698 0.29843 0.36814 0.0
C2259 C 0.13965 0.29842 0.37579 0.0
C2260 C 0.15932 0.29234 0.37266 0.0
C2261 C 0.10299 0.31029 0.38204 0.0
C2262 C 0.1176 0.31672 0.39274 0.0
C2263 C 0.13572 0.31054 0.38966 0.0
C2264 C 0.11386 0.32955 0.40734 0.0
C2265 C 0.08304 0.31543 0.3854 0.0
C2266 C 0.10575 0.34679 0.40396 0.0
C2267 C 0.09752 0.35678 0.41743 0.0
C2268 C 0.09771 0.34989 0.43455 0.0
C2269 C 0.10776 0.33373 0.43824 0.0
C2270 C 0.11571 0.32353 0.42466 0.0
H2271 H 0.0733 0.30572 0.37894 0.0
H2272 H 0.07998 0.31558 0.39959 0.0
H2273 H 0.08036 0.32947 0.38014 0.0
H2274 H 0.1045 0.35182 0.3907 0.0
H2275 H 0.08998 0.3693 0.4143 0.0
H2276 H 0.88735 0.83594 0.66382 0.0
H2277 H 0.90611 0.85353 0.64332 0.0
H2278 H 0.93246 0.88193 0.68607 0.0
H2279 H 0.91377 0.86412 0.70684 0.0
H2280 H 0.91557 0.89163 0.6362 0.0
H2281 H 0.97382 0.85014 0.66359 0.0
H2282 H 0.95002 0.84484 0.66855 0.0
H2283 H 0.96095 0.86456 0.67833 0.0
C2284 C 0.89678 0.84627 0.66889 0.0
C2285 C 0.89937 0.84837 0.68695 0.0
C2286 C 0.90744 0.85638 0.65714 0.0
C2287 C 0.92091 0.86873 0.66321 0.0
C2288 C 0.92227 0.87225 0.68117 0.0
H2289 H 0.01633 0.88745 0.59519 0.0
H2290 H 0.99547 0.89246 0.61987 0.0
C2291 C 0.91152 0.86214 0.693 0.0
C2292 C 0.93512 0.87538 0.65082 0.0
H2293 H 0.97903 0.86557 0.63744 0.0
C2294 C 0.92959 0.88631 0.63663 0.0
C2295 C 0.95341 0.86841 0.65145 0.0
C2296 C 0.96 0.85625 0.66621 0.0
C2297 C 0.94162 0.8897 0.62261 0.0
C2298 C 0.95943 0.88158 0.62266 0.0
C2299 C 0.96535 0.87173 0.6374 0.0
C2300 C 0.97138 0.88116 0.60694 0.0
C2301 C 0.93495 0.90155 0.6077 0.0
C2302 C 0.96475 0.87322 0.59144 0.0
C2303 C 0.97661 0.87036 0.57733 0.0
C2304 C 0.99541 0.87515 0.57852 0.0
C2305 C 0.00194 0.88352 0.59389 0.0
C2306 C 0.99002 0.88647 0.60798 0.0
H2307 H 0.92472 0.91195 0.61226 0.0
H2308 H 0.94659 0.90885 0.60123 0.0
H2309 H 0.92796 0.89266 0.59792 0.0
H2310 H 0.95057 0.8685 0.59049 0.0
H2311 H 0.97116 0.86384 0.5657 0.0
H2312 H 0.40914 0.62497 0.91352 0.0
H2313 H 0.39514 0.64226 0.88951 0.0
H2314 H 0.37732 0.68437 0.92559 0.0
H2315 H 0.3907 0.66672 0.9498 0.0
H2316 H 0.3534 0.67999 0.89582 0.0
H2317 H 0.42759 0.68731 0.87806 0.0
H2318 H 0.41968 0.66382 0.87902 0.0
H2319 H 0.42021 0.67759 0.89854 0.0
C2320 C 0.40157 0.63754 0.9164 0.0
C2321 C 0.40117 0.64468 0.93342 0.0
C2322 C 0.39366 0.64743 0.90269 0.0
C2323 C 0.38571 0.66482 0.90575 0.0
C2324 C 0.38351 0.67101 0.92297 0.0
H2325 H 0.3686 0.76293 0.84394 0.0
H2326 H 0.36717 0.73922 0.86666 0.0
C2327 C 0.39111 0.66091 0.93679 0.0
C2328 C 0.38266 0.67768 0.89103 0.0
H2329 H 0.40593 0.70081 0.85906 0.0
C2330 C 0.36483 0.68452 0.88772 0.0
C2331 C 0.3977 0.68377 0.88068 0.0
C2332 C 0.4174 0.67791 0.88431 0.0
C2333 C 0.36162 0.69709 0.87405 0.0
C2334 C 0.37665 0.70294 0.86363 0.0
C2335 C 0.39442 0.69609 0.86697 0.0
C2336 C 0.37467 0.71669 0.8495 0.0
C2337 C 0.34223 0.70392 0.87073 0.0
C2338 C 0.37936 0.71185 0.83236 0.0
C2339 C 0.38033 0.72535 0.81939 0.0
C2340 C 0.37678 0.74398 0.82338 0.0
C2341 C 0.37147 0.74871 0.84046 0.0
C2342 C 0.37046 0.73516 0.85343 0.0
H2343 H 0.33171 0.69511 0.87726 0.0
H2344 H 0.34085 0.7182 0.87587 0.0
H2345 H 0.33927 0.70432 0.85653 0.0
H2346 H 0.38283 0.69768 0.82914 0.0
H2347 H 0.38439 0.72124 0.80636 0.0
H2348 H 0.4823 0.11983 0.09606 0.0
H2349 H 0.50578 0.11914 0.11907 0.0
H2350 H 0.5487 0.12546 0.08052 0.0
H2351 H 0.5254 0.1263 0.05743 0.0
H2352 H 0.54092 0.0968 0.12418 0.0
H2353 H 0.55056 0.17229 0.11325 0.0
H2354 H 0.53055 0.15993 0.10538 0.0
H2355 H 0.55231 0.1578 0.09428 0.0
C2356 C 0.49675 0.12083 0.09245 0.0
C2357 C 0.50198 0.12342 0.07495 0.0
C2358 C 0.51013 0.12031 0.1056 0.0
C2359 C 0.5289 0.12239 0.10145 0.0
C2360 C 0.53424 0.12395 0.08394 0.0
H2361 H 0.6196 0.15939 0.1648 0.0
H2362 H 0.60269 0.14444 0.14112 0.0
C2363 C 0.5209 0.12448 0.07079 0.0
C2364 C 0.54265 0.12504 0.11546 0.0
H2365 H 0.56946 0.15824 0.13422 0.0
C2366 C 0.54729 0.11017 0.12639 0.0
C2367 C 0.55078 0.14254 0.11828 0.0
C2368 C 0.54575 0.15914 0.1073 0.0
C2369 C 0.56012 0.11236 0.14003 0.0
C2370 C 0.56817 0.12993 0.1429 0.0
C2371 C 0.56347 0.14471 0.13189 0.0
C2372 C 0.58081 0.13394 0.15765 0.0
C2373 C 0.56507 0.09585 0.1511 0.0
C2374 C 0.57468 0.1321 0.17495 0.0
C2375 C 0.58456 0.14036 0.18858 0.0
C2376 C 0.60043 0.15089 0.18498 0.0
C2377 C 0.60734 0.15139 0.16788 0.0
C2378 C 0.59769 0.14287 0.15436 0.0
H2379 H 0.56247 0.08268 0.14406 0.0
H2380 H 0.57981 0.09629 0.15515 0.0
H2381 H 0.55637 0.09589 0.16301 0.0
H2382 H 0.56152 0.1256 0.17779 0.0
H2383 H 0.57885 0.13995 0.20163 0.0
H2384 H 0.11389 0.66548 0.04439 0.0
H2385 H 0.13131 0.68341 0.06599 0.0
H2386 H 0.10286 0.65485 0.10744 0.0
H2387 H 0.08559 0.63694 0.08609 0.0
H2388 H 0.11151 0.70633 0.08746 0.0
H2389 H 0.15447 0.66 0.12778 0.0
H2390 H 0.14643 0.65361 0.10629 0.0
H2391 H 0.1316 0.65087 0.125 0.0
C2392 C 0.11187 0.66255 0.05811 0.0
C2393 C 0.09822 0.64997 0.06357 0.0
C2394 C 0.12182 0.67281 0.07042 0.0
C2395 C 0.11848 0.67037 0.08832 0.0
C2396 C 0.10596 0.65672 0.09373 0.0
H2397 H 0.10751 0.72296 0.18409 0.0
H2398 H 0.11188 0.70229 0.15925 0.0
C2399 C 0.09594 0.64661 0.08149 0.0
C2400 C 0.12504 0.68416 0.10118 0.0
H2401 H 0.14281 0.68769 0.14225 0.0
C2402 C 0.11885 0.70243 0.09924 0.0
C2403 C 0.13451 0.67899 0.11654 0.0
C2404 C 0.14229 0.65982 0.11895 0.0
C2405 C 0.12046 0.71527 0.11284 0.0
C2406 C 0.12891 0.70976 0.12866 0.0
C2407 C 0.13625 0.69185 0.13015 0.0
C2408 C 0.12832 0.72168 0.14435 0.0
C2409 C 0.11184 0.73415 0.11061 0.0
C2410 C 0.13651 0.73926 0.14439 0.0
C2411 C 0.13382 0.75121 0.15848 0.0
C2412 C 0.1231 0.74566 0.17287 0.0
C2413 C 0.11574 0.72769 0.17317 0.0
C2414 C 0.1183 0.71583 0.15902 0.0
H2415 H 0.1028 0.7349 0.09891 0.0
H2416 H 0.10348 0.7379 0.12223 0.0
H2417 H 0.12294 0.74462 0.10911 0.0
H2418 H 0.14462 0.7439 0.13334 0.0
H2419 H 0.13991 0.76489 0.15799 0.0
H2420 H 0.61004 0.83351 0.33694 0.0
H2421 H 0.59143 0.85091 0.35773 0.0
H2422 H 0.56623 0.88118 0.31552 0.0
H2423 H 0.5848 0.86363 0.29446 0.0
H2424 H 0.58318 0.88972 0.36521 0.0
H2425 H 0.52391 0.8498 0.33769 0.0
H2426 H 0.54759 0.8438 0.33289 0.0
H2427 H 0.53731 0.86381 0.323 0.0
C2428 C 0.60089 0.84418 0.33206 0.0
C2429 C 0.59863 0.84696 0.31405 0.0
C2430 C 0.59032 0.85418 0.34398 0.0
C2431 C 0.57725 0.86707 0.33812 0.0
C2432 C 0.57613 0.87111 0.32025 0.0
H2433 H 0.48206 0.8889 0.40564 0.0
H2434 H 0.50321 0.89286 0.38101 0.0
C2435 C 0.58681 0.86114 0.30826 0.0
C2436 C 0.56324 0.87396 0.35059 0.0
H2437 H 0.51902 0.86541 0.36384 0.0
C2438 C 0.56902 0.88476 0.36476 0.0
C2439 C 0.54478 0.86748 0.34993 0.0
C2440 C 0.53793 0.8555 0.33515 0.0
C2441 C 0.55703 0.88858 0.37871 0.0
C2442 C 0.53899 0.88098 0.37863 0.0
C2443 C 0.53287 0.87118 0.36392 0.0
C2444 C 0.5269 0.88113 0.39426 0.0
C2445 C 0.56395 0.90038 0.39356 0.0
C2446 C 0.5332 0.8733 0.40993 0.0
C2447 C 0.52118 0.87106 0.42402 0.0
C2448 C 0.50253 0.87635 0.42264 0.0
C2449 C 0.49633 0.88459 0.40709 0.0
C2450 C 0.50841 0.88694 0.39302 0.0
H2451 H 0.57448 0.91045 0.38896 0.0
H2452 H 0.55249 0.90806 0.39992 0.0
H2453 H 0.57065 0.89139 0.40343 0.0
H2454 H 0.54723 0.86818 0.41105 0.0
H2455 H 0.52638 0.86461 0.43579 0.0
H2456 H 0.36868 0.23155 0.65397 0.0
H2457 H 0.36816 0.25539 0.63129 0.0
H2458 H 0.37388 0.29767 0.67052 0.0
H2459 H 0.37452 0.27402 0.69328 0.0
H2460 H 0.34567 0.29114 0.62682 0.0
H2461 H 0.42136 0.29941 0.63804 0.0
H2462 H 0.40875 0.27929 0.64527 0.0
H2463 H 0.40675 0.30068 0.65698 0.0
C2464 C 0.36956 0.24593 0.6578 0.0
C2465 C 0.37194 0.25089 0.6754 0.0
C2466 C 0.36914 0.25952 0.64484 0.0
C2467 C 0.37109 0.27821 0.64929 0.0
C2468 C 0.37243 0.28327 0.66688 0.0
H2469 H 0.40995 0.3692 0.58735 0.0
H2470 H 0.3947 0.35227 0.61084 0.0
C2471 C 0.37286 0.26973 0.67984 0.0
C2472 C 0.37397 0.29218 0.63552 0.0
H2473 H 0.40766 0.31876 0.61727 0.0
C2474 C 0.35916 0.29731 0.62472 0.0
C2475 C 0.39161 0.30006 0.63286 0.0
C2476 C 0.40811 0.29455 0.64378 0.0
C2477 C 0.36156 0.31039 0.61133 0.0
C2478 C 0.37929 0.31817 0.60859 0.0
C2479 C 0.39401 0.31299 0.6195 0.0
C2480 C 0.38355 0.33097 0.59403 0.0
C2481 C 0.34512 0.31588 0.6004 0.0
C2482 C 0.38145 0.32521 0.57665 0.0
C2483 C 0.38987 0.33512 0.56313 0.0
C2484 C 0.40084 0.35064 0.56692 0.0
C2485 C 0.40163 0.35722 0.58412 0.0
C2486 C 0.39294 0.34755 0.59754 0.0
H2487 H 0.33192 0.3135 0.60747 0.0
H2488 H 0.34588 0.33065 0.59652 0.0
H2489 H 0.34488 0.30734 0.58838 0.0
H2490 H 0.3746 0.31229 0.57363 0.0
H2491 H 0.38922 0.32967 0.54999 0.0
H2492 H 0.01611 0.10986 0.90471 0.0
H2493 H 0.99481 0.10537 0.88024 0.0
H2494 H 0.95267 0.13587 0.90779 0.0
H2495 H 0.97365 0.13998 0.93244 0.0
H2496 H 0.93857 0.10533 0.89034 0.0
H2497 H 0.98377 0.14749 0.84695 0.0
H2498 H 0.99427 0.12735 0.85638 0.0
H2499 H 0.98741 0.14623 0.87016 0.0
C2500 C 0.00227 0.11552 0.90558 0.0
C2501 C 0.99663 0.12551 0.9204 0.0
C2502 C 0.99013 0.11295 0.89159 0.0
C2503 C 0.97228 0.12057 0.89208 0.0
C2504 C 0.96641 0.1299 0.90714 0.0
H2505 H 0.88552 0.1626 0.8358 0.0
H2506 H 0.90395 0.14519 0.85667 0.0
C2507 C 0.97844 0.13231 0.92119 0.0
C2508 C 0.96002 0.12004 0.87661 0.0
H2509 H 0.95524 0.13815 0.8358 0.0
C2510 C 0.9423 0.11225 0.87829 0.0
C2511 C 0.96496 0.12896 0.86085 0.0
C2512 C 0.98356 0.13812 0.85842 0.0
C2513 C 0.9291 0.11394 0.86496 0.0
C2514 C 0.9337 0.12381 0.84967 0.0
C2515 C 0.95178 0.1305 0.84752 0.0
C2516 C 0.91949 0.13019 0.83713 0.0
C2517 C 0.91016 0.10567 0.86759 0.0
C2518 C 0.9217 0.12716 0.81916 0.0
C2519 C 0.91113 0.13717 0.80713 0.0
C2520 C 0.89846 0.15058 0.81295 0.0
C2521 C 0.89525 0.15244 0.83093 0.0
C2522 C 0.90567 0.14235 0.8429 0.0
H2523 H 0.91079 0.0934 0.8763 0.0
H2524 H 0.90105 0.11607 0.87389 0.0
H2525 H 0.90382 0.10154 0.85499 0.0
H2526 H 0.93241 0.11794 0.81444 0.0
H2527 H 0.91396 0.13549 0.79335 0.0
H2528 H 0.87996 0.72161 0.69251 0.0
H2529 H 0.87911 0.69824 0.6695 0.0
H2530 H 0.87164 0.74091 0.6309 0.0
H2531 H 0.87236 0.76447 0.65383 0.0
H2532 H 0.8494 0.70556 0.62646 0.0
H2533 H 0.92527 0.69659 0.6358 0.0
H2534 H 0.91124 0.69492 0.6551 0.0
H2535 H 0.91294 0.71657 0.64377 0.0
C2536 C 0.87792 0.72605 0.67916 0.0
C2537 C 0.87651 0.74492 0.67496 0.0
C2538 C 0.87737 0.71267 0.66605 0.0
C2539 C 0.87544 0.71792 0.64856 0.0
C2540 C 0.8731 0.73663 0.64437 0.0
H2541 H 0.89086 0.66706 0.54843 0.0
H2542 H 0.87702 0.68458 0.57241 0.0
C2543 C 0.87363 0.75006 0.65747 0.0
C2544 C 0.87788 0.70412 0.63456 0.0
H2545 H 0.91084 0.67739 0.61531 0.0
C2546 C 0.86277 0.69928 0.62401 0.0
C2547 C 0.89538 0.69611 0.63142 0.0
C2548 C 0.91221 0.70135 0.642 0.0
C2549 C 0.86471 0.68633 0.61044 0.0
C2550 C 0.88228 0.67838 0.60726 0.0
C2551 C 0.89731 0.6833 0.61789 0.0
C2552 C 0.88601 0.66561 0.59256 0.0
C2553 C 0.84796 0.68115 0.59979 0.0
C2554 C 0.89514 0.64883 0.59582 0.0
C2555 C 0.90338 0.63907 0.58221 0.0
C2556 C 0.90239 0.64577 0.56506 0.0
C2557 C 0.89165 0.66152 0.56153 0.0
C2558 C 0.88368 0.67151 0.57524 0.0
H2559 H 0.83494 0.68374 0.60709 0.0
H2560 H 0.84764 0.68971 0.58779 0.0
H2561 H 0.8484 0.66637 0.59588 0.0
H2562 H 0.89708 0.644 0.60907 0.0
H2563 H 0.91153 0.62692 0.58524 0.0
H2564 H 0.02576 0.14409 0.43316 0.0
H2565 H 0.04686 0.13993 0.40859 0.0
H2566 H 0.00573 0.10727 0.38191 0.0
H2567 H 0.98432 0.11176 0.40628 0.0
H2568 H 0.06178 0.10901 0.39202 0.0
H2569 H 0.01568 0.1488 0.34749 0.0
H2570 H 0.0121 0.14823 0.37074 0.0
H2571 H 0.00561 0.12877 0.35753 0.0
C2572 C 0.02122 0.13594 0.42211 0.0
C2573 C 0.00328 0.1285 0.42154 0.0
C2574 C 0.03332 0.13351 0.40811 0.0
C2575 C 0.02775 0.12353 0.39333 0.0
C2576 C 0.01016 0.11534 0.39305 0.0
H2577 H 0.08602 0.13529 0.29402 0.0
H2578 H 0.06746 0.11881 0.3158 0.0
C2579 C 0.99796 0.1179 0.40699 0.0
C2580 C 0.04004 0.12284 0.37789 0.0
H2581 H 0.04437 0.13961 0.33653 0.0
C2582 C 0.05789 0.11544 0.37978 0.0
C2583 C 0.03489 0.13112 0.36189 0.0
C2584 C 0.0161 0.13982 0.35923 0.0
C2585 C 0.07103 0.1169 0.36637 0.0
C2586 C 0.0662 0.12613 0.35079 0.0
C2587 C 0.048 0.13244 0.34848 0.0
C2588 C 0.08025 0.1322 0.33796 0.0
C2589 C 0.09011 0.10904 0.36919 0.0
C2590 C 0.09396 0.14472 0.34325 0.0
C2591 C 0.10444 0.1542 0.3309 0.0
C2592 C 0.10139 0.15137 0.313 0.0
C2593 C 0.08872 0.13771 0.30772 0.0
C2594 C 0.07809 0.12831 0.32013 0.0
H2595 H 0.08973 0.09712 0.37832 0.0
H2596 H 0.09645 0.1045 0.35671 0.0
H2597 H 0.09909 0.11982 0.37506 0.0
H2598 H 0.09562 0.14822 0.35689 0.0
H2599 H 0.11416 0.16457 0.33536 0.0
H2600 H 0.59165 0.37107 0.08601 0.0
H2601 H 0.6069 0.3548 0.10991 0.0
H2602 H 0.62492 0.31248 0.07406 0.0
H2603 H 0.61029 0.32918 0.04999 0.0
H2604 H 0.59247 0.32203 0.11743 0.0
H2605 H 0.6679 0.31325 0.10776 0.0
H2606 H 0.65464 0.33064 0.09635 0.0
H2607 H 0.65462 0.30705 0.08887 0.0
C2608 C 0.59958 0.35873 0.08313 0.0
C2609 C 0.59973 0.35128 0.06624 0.0
C2610 C 0.60828 0.34943 0.09678 0.0
C2611 C 0.617 0.33238 0.09382 0.0
C2612 C 0.61859 0.32577 0.07665 0.0
H2613 H 0.62955 0.23403 0.15537 0.0
H2614 H 0.63092 0.25772 0.13261 0.0
C2615 C 0.61017 0.3353 0.06288 0.0
C2616 C 0.62078 0.31998 0.1088 0.0
H2617 H 0.65323 0.29208 0.12771 0.0
C2618 C 0.60587 0.31576 0.11984 0.0
C2619 C 0.63816 0.31155 0.11174 0.0
C2620 C 0.65479 0.31598 0.10064 0.0
C2621 C 0.6077 0.3031 0.1335 0.0
C2622 C 0.625 0.29455 0.13639 0.0
C2623 C 0.64002 0.29877 0.12547 0.0
C2624 C 0.62726 0.28066 0.15035 0.0
C2625 C 0.59091 0.29849 0.1444 0.0
C2626 C 0.62526 0.28582 0.16787 0.0
C2627 C 0.6243 0.27236 0.18088 0.0
C2628 C 0.62541 0.2535 0.17657 0.0
C2629 C 0.62849 0.24844 0.1591 0.0
C2630 C 0.6294 0.26194 0.14608 0.0
H2631 H 0.57788 0.30343 0.13827 0.0
H2632 H 0.58983 0.28334 0.1465 0.0
H2633 H 0.59221 0.30522 0.15734 0.0
H2634 H 0.62374 0.30025 0.1714 0.0
H2635 H 0.62214 0.27673 0.19423 0.0
H2636 H 0.47069 0.85811 0.93478 0.0
H2637 H 0.44992 0.86215 0.90996 0.0
H2638 H 0.49129 0.89489 0.88371 0.0
H2639 H 0.5124 0.8905 0.90834 0.0
H2640 H 0.435 0.89268 0.89285 0.0
H2641 H 0.48241 0.85299 0.84948 0.0
H2642 H 0.48555 0.85384 0.87278 0.0
H2643 H 0.49203 0.87326 0.8595 0.0
C2644 C 0.47535 0.86628 0.92379 0.0
C2645 C 0.49329 0.87373 0.92339 0.0
C2646 C 0.46342 0.86864 0.90964 0.0
C2647 C 0.46918 0.87856 0.89488 0.0
C2648 C 0.48673 0.88685 0.89482 0.0
H2649 H 0.41289 0.86392 0.79494 0.0
H2650 H 0.43066 0.88139 0.81663 0.0
C2651 C 0.49875 0.88435 0.90891 0.0
C2652 C 0.45718 0.87898 0.87922 0.0
H2653 H 0.45377 0.86155 0.83803 0.0
C2654 C 0.43918 0.88615 0.88075 0.0
C2655 C 0.46271 0.87056 0.8634 0.0
C2656 C 0.48166 0.86209 0.86113 0.0
C2657 C 0.42629 0.88429 0.86717 0.0
C2658 C 0.43151 0.87489 0.85178 0.0
C2659 C 0.44984 0.86884 0.84982 0.0
C2660 C 0.41774 0.86832 0.83889 0.0
C2661 C 0.40704 0.89189 0.86962 0.0
C2662 C 0.40418 0.85566 0.84424 0.0
C2663 C 0.39416 0.84562 0.83194 0.0
C2664 C 0.39752 0.84801 0.81404 0.0
C2665 C 0.40996 0.86182 0.80865 0.0
C2666 C 0.42014 0.87179 0.82101 0.0
H2667 H 0.40712 0.90401 0.87852 0.0
H2668 H 0.40079 0.89606 0.85699 0.0
H2669 H 0.39818 0.8811 0.8756 0.0
H2670 H 0.40234 0.85246 0.85793 0.0
H2671 H 0.38461 0.83513 0.83649 0.0
H2672 H 0.89155 0.33085 0.9511 0.0
H2673 H 0.87797 0.31333 0.92691 0.0
H2674 H 0.89578 0.35548 0.89085 0.0
H2675 H 0.90999 0.37262 0.91484 0.0
H2676 H 0.85395 0.31782 0.89724 0.0
H2677 H 0.92805 0.31035 0.8792 0.0
H2678 H 0.92077 0.32005 0.89973 0.0
H2679 H 0.92023 0.33387 0.88024 0.0
C2680 C 0.89192 0.3367 0.9381 0.0
C2681 C 0.90203 0.35289 0.93472 0.0
C2682 C 0.8842 0.32667 0.92429 0.0
C2683 C 0.88634 0.33291 0.90708 0.0
C2684 C 0.89435 0.35027 0.90403 0.0
H2685 H 0.88424 0.27744 0.80733 0.0
H2686 H 0.88272 0.30072 0.83036 0.0
C2687 C 0.90238 0.36008 0.91772 0.0
C2688 C 0.8832 0.3201 0.89234 0.0
H2689 H 0.90627 0.29708 0.86016 0.0
C2690 C 0.86533 0.31331 0.88908 0.0
C2691 C 0.89818 0.314 0.88192 0.0
C2692 C 0.91792 0.31977 0.88551 0.0
C2693 C 0.86204 0.30081 0.87536 0.0
C2694 C 0.87701 0.29501 0.86484 0.0
C2695 C 0.89481 0.30178 0.86816 0.0
C2696 C 0.87492 0.28141 0.8506 0.0
C2697 C 0.84263 0.29402 0.87209 0.0
C2698 C 0.87089 0.26288 0.85437 0.0
C2699 C 0.87188 0.24948 0.84127 0.0
C2700 C 0.877 0.25444 0.82419 0.0
C2701 C 0.88034 0.27314 0.82035 0.0
C2702 C 0.8794 0.28649 0.83347 0.0
H2703 H 0.83215 0.30268 0.87885 0.0
H2704 H 0.83954 0.2939 0.85791 0.0
H2705 H 0.84133 0.27963 0.87697 0.0
H2706 H 0.86776 0.25865 0.8676 0.0
H2707 H 0.86917 0.2352 0.84463 0.0
H2708 H 0.47539 0.13856 0.5666 0.0
H2709 H 0.45459 0.13446 0.59137 0.0
H2710 H 0.49726 0.10489 0.61908 0.0
H2711 H 0.51838 0.10934 0.59447 0.0
H2712 H 0.4411 0.10376 0.60923 0.0
H2713 H 0.48564 0.14743 0.6519 0.0
H2714 H 0.48916 0.14596 0.62868 0.0
H2715 H 0.49647 0.12737 0.64261 0.0
C2716 C 0.48034 0.13108 0.57791 0.0
C2717 C 0.49862 0.12453 0.57869 0.0
C2718 C 0.46841 0.12869 0.59203 0.0
C2719 C 0.47448 0.11963 0.60717 0.0
C2720 C 0.49243 0.11225 0.60767 0.0
H2721 H 0.41565 0.13408 0.70592 0.0
H2722 H 0.43491 0.11724 0.68494 0.0
C2723 C 0.50446 0.11479 0.59359 0.0
C2724 C 0.46229 0.11911 0.62268 0.0
H2725 H 0.45728 0.13778 0.66325 0.0
C2726 C 0.44473 0.11094 0.62116 0.0
C2727 C 0.4671 0.12838 0.63829 0.0
C2728 C 0.48554 0.13792 0.64053 0.0
C2729 C 0.43154 0.11257 0.63451 0.0
C2730 C 0.436 0.12279 0.64965 0.0
C2731 C 0.45394 0.12988 0.65165 0.0
C2732 C 0.4217 0.12899 0.66217 0.0
C2733 C 0.41277 0.10386 0.63207 0.0
C2734 C 0.40754 0.1407 0.65631 0.0
C2735 C 0.39666 0.15039 0.66821 0.0
C2736 C 0.39974 0.14858 0.68622 0.0
C2737 C 0.41291 0.13571 0.69212 0.0
C2738 C 0.42394 0.12611 0.68016 0.0
H2739 H 0.41362 0.09151 0.62349 0.0
H2740 H 0.4066 0.09974 0.64475 0.0
H2741 H 0.4034 0.11398 0.62572 0.0
H2742 H 0.40579 0.14344 0.64252 0.0
H2743 H 0.38657 0.16015 0.66327 0.0
H2744 H 0.6294 0.76277 0.34473 0.0
H2745 H 0.63078 0.73923 0.36761 0.0
H2746 H 0.61654 0.6972 0.33009 0.0
H2747 H 0.61505 0.72058 0.30714 0.0
H2748 H 0.59261 0.70062 0.35966 0.0
H2749 H 0.66652 0.69536 0.37912 0.0
H2750 H 0.65727 0.71836 0.37719 0.0
H2751 H 0.65934 0.70414 0.35811 0.0
C2752 C 0.62684 0.74848 0.34128 0.0
C2753 C 0.62192 0.74356 0.32415 0.0
C2754 C 0.62783 0.73503 0.35435 0.0
C2755 C 0.62398 0.71648 0.35046 0.0
C2756 C 0.61972 0.71144 0.33327 0.0
H2757 H 0.58812 0.62563 0.41494 0.0
H2758 H 0.60264 0.64241 0.39087 0.0
C2759 C 0.6188 0.72484 0.3202 0.0
C2760 C 0.62181 0.70282 0.36465 0.0
H2761 H 0.64457 0.68018 0.39734 0.0
C2762 C 0.604 0.69597 0.36778 0.0
C2763 C 0.63668 0.6971 0.37533 0.0
C2764 C 0.65609 0.70398 0.37227 0.0
C2765 C 0.60051 0.68378 0.38153 0.0
C2766 C 0.61539 0.67777 0.39214 0.0
C2767 C 0.63327 0.68462 0.38903 0.0
C2768 C 0.61211 0.66509 0.40696 0.0
C2769 C 0.58075 0.67799 0.38495 0.0
C2770 C 0.6142 0.67147 0.42413 0.0
C2771 C 0.60633 0.66163 0.43798 0.0
C2772 C 0.59611 0.64549 0.43468 0.0
C2773 C 0.59582 0.63813 0.41775 0.0
C2774 C 0.60402 0.64774 0.40401 0.0
H2775 H 0.57067 0.68736 0.3785 0.0
H2776 H 0.57851 0.66386 0.37971 0.0
H2777 H 0.57773 0.67777 0.39914 0.0
H2778 H 0.6205 0.68479 0.42666 0.0
H2779 H 0.60665 0.66762 0.45093 0.0
H2780 H 0.07873 0.85754 0.20146 0.0
H2781 H 0.06125 0.87137 0.17735 0.0
H2782 H 0.10327 0.85349 0.14116 0.0
H2783 H 0.12037 0.83907 0.16506 0.0
H2784 H 0.06613 0.89569 0.1479 0.0
H2785 H 0.0577 0.822 0.12903 0.0
H2786 H 0.06743 0.82888 0.14968 0.0
H2787 H 0.08135 0.82943 0.13024 0.0
C2788 C 0.08456 0.85719 0.18845 0.0
C2789 C 0.10072 0.84703 0.18502 0.0
C2790 C 0.07455 0.86505 0.17469 0.0
C2791 C 0.08076 0.863 0.15745 0.0
C2792 C 0.09807 0.85487 0.15434 0.0
H2793 H 0.02633 0.86684 0.05726 0.0
H2794 H 0.04936 0.86781 0.08056 0.0
C2795 C 0.10786 0.84672 0.168 0.0
C2796 C 0.06802 0.86649 0.14271 0.0
H2797 H 0.04498 0.84419 0.11006 0.0
C2798 C 0.06151 0.88448 0.13958 0.0
C2799 C 0.0618 0.85174 0.13207 0.0
C2800 C 0.06726 0.8319 0.13548 0.0
C2801 C 0.04922 0.88814 0.12577 0.0
C2802 C 0.0433 0.87341 0.11502 0.0
C2803 C 0.04976 0.85547 0.11822 0.0
C2804 C 0.02994 0.87589 0.10061 0.0
C2805 C 0.04277 0.90768 0.12265 0.0
C2806 C 0.01142 0.8803 0.10417 0.0
C2807 C 0.99818 0.87964 0.0909 0.0
C2808 C 0.00325 0.87447 0.07387 0.0
C2809 C 0.02195 0.8708 0.07023 0.0
C2810 C 0.03515 0.87142 0.08351 0.0
H2811 H 0.05156 0.91792 0.12958 0.0
H2812 H 0.04281 0.91093 0.1085 0.0
H2813 H 0.02836 0.90917 0.12745 0.0
H2814 H 0.00707 0.88344 0.11736 0.0
H2815 H 0.98389 0.8826 0.09411 0.0
H2816 H 0.61461 0.7763 0.80829 0.0
H2817 H 0.61588 0.79949 0.83141 0.0
H2818 H 0.62911 0.75708 0.86889 0.0
H2819 H 0.62793 0.73371 0.84583 0.0
H2820 H 0.59141 0.79599 0.8608 0.0
H2821 H 0.66518 0.80069 0.88092 0.0
H2822 H 0.65817 0.79221 0.85975 0.0
H2823 H 0.65575 0.77779 0.87865 0.0
C2824 C 0.61808 0.77191 0.82139 0.0
C2825 C 0.62099 0.75313 0.82526 0.0
C2826 C 0.61888 0.7852 0.83456 0.0
C2827 C 0.62279 0.78001 0.85178 0.0
C2828 C 0.62641 0.76139 0.85561 0.0
H2829 H 0.60526 0.82967 0.95206 0.0
H2830 H 0.61898 0.81209 0.92798 0.0
C2831 C 0.62555 0.74805 0.84244 0.0
C2832 C 0.62055 0.79361 0.866 0.0
H2833 H 0.64319 0.81622 0.89878 0.0
C2834 C 0.60276 0.80057 0.86899 0.0
C2835 C 0.63536 0.79927 0.87678 0.0
C2836 C 0.65475 0.79224 0.87387 0.0
C2837 C 0.59923 0.81284 0.88269 0.0
C2838 C 0.61407 0.81881 0.89337 0.0
C2839 C 0.63193 0.81182 0.89042 0.0
C2840 C 0.61078 0.83164 0.90807 0.0
C2841 C 0.57948 0.81878 0.88594 0.0
C2842 C 0.60283 0.84903 0.90495 0.0
C2843 C 0.59472 0.85887 0.91858 0.0
C2844 C 0.59493 0.85171 0.9356 0.0
C2845 C 0.60499 0.8355 0.93905 0.0
C2846 C 0.61278 0.82543 0.92531 0.0
H2847 H 0.5694 0.8094 0.87951 0.0
H2848 H 0.57637 0.81914 0.90012 0.0
H2849 H 0.57736 0.83287 0.88058 0.0
H2850 H 0.60152 0.85423 0.89176 0.0
H2851 H 0.58714 0.87142 0.91564 0.0
H2852 H 0.41694 0.36393 0.20758 0.0
H2853 H 0.4357 0.38135 0.18661 0.0
H2854 H 0.4062 0.3556 0.14419 0.0
H2855 H 0.38748 0.33834 0.16491 0.0
H2856 H 0.45794 0.36137 0.16467 0.0
H2857 H 0.41371 0.40752 0.1254 0.0
H2858 H 0.40681 0.39903 0.14659 0.0
H2859 H 0.4036 0.38498 0.12743 0.0
C2860 C 0.41399 0.36255 0.1938 0.0
C2861 C 0.40089 0.34962 0.18786 0.0
C2862 C 0.42473 0.37248 0.18184 0.0
C2863 C 0.42228 0.36987 0.16384 0.0
C2864 C 0.40812 0.35814 0.15798 0.0
H2865 H 0.4749 0.35982 0.06801 0.0
H2866 H 0.45436 0.36422 0.09294 0.0
C2867 C 0.39753 0.34813 0.16987 0.0
C2868 C 0.43643 0.37625 0.15124 0.0
H2869 H 0.441 0.39517 0.11072 0.0
C2870 C 0.45443 0.36925 0.15309 0.0
C2871 C 0.43177 0.38642 0.13614 0.0
C2872 C 0.41295 0.39507 0.13386 0.0
C2873 C 0.46744 0.37076 0.1396 0.0
C2874 C 0.46239 0.37993 0.124 0.0
C2875 C 0.4448 0.38805 0.12265 0.0
C2876 C 0.47438 0.37932 0.10835 0.0
C2877 C 0.48594 0.36131 0.14167 0.0
C2878 C 0.49231 0.38675 0.10858 0.0
C2879 C 0.50418 0.38405 0.09441 0.0
C2880 C 0.49822 0.37407 0.0797 0.0
C2881 C 0.47995 0.36747 0.07918 0.0
C2882 C 0.46816 0.37005 0.09338 0.0
H2883 H 0.48625 0.35191 0.15313 0.0
H2884 H 0.48941 0.35315 0.12985 0.0
H2885 H 0.49687 0.3719 0.14352 0.0
H2886 H 0.49725 0.39428 0.11986 0.0
H2887 H 0.51811 0.38954 0.0951 0.0
H2888 H 0.91441 0.13654 0.41248 0.0
H2889 H 0.89627 0.15413 0.3915 0.0
H2890 H 0.86504 0.17869 0.43343 0.0
H2891 H 0.88342 0.16123 0.4547 0.0
H2892 H 0.85806 0.16112 0.38325 0.0
H2893 H 0.89456 0.22199 0.41184 0.0
H2894 H 0.90123 0.19863 0.41707 0.0
H2895 H 0.88043 0.20824 0.42611 0.0
C2896 C 0.90338 0.14532 0.41727 0.0
C2897 C 0.90062 0.14782 0.43526 0.0
C2898 C 0.89295 0.1553 0.40523 0.0
C2899 C 0.8796 0.16798 0.41095 0.0
C2900 C 0.87549 0.16914 0.42881 0.0
H2901 H 0.8584 0.26159 0.34148 0.0
H2902 H 0.85306 0.2407 0.36606 0.0
C2903 C 0.88594 0.15909 0.44092 0.0
C2904 C 0.87243 0.1817 0.39835 0.0
H2905 H 0.87999 0.22607 0.38508 0.0
C2906 C 0.86245 0.17545 0.3838 0.0
C2907 C 0.87817 0.2004 0.39914 0.0
C2908 C 0.88927 0.20781 0.41429 0.0
C2909 C 0.85892 0.18716 0.36958 0.0
C2910 C 0.86592 0.20543 0.36982 0.0
C2911 C 0.8747 0.21204 0.3849 0.0
C2912 C 0.86647 0.2172 0.354 0.0
C2913 C 0.8482 0.17969 0.35426 0.0
C2914 C 0.87569 0.21091 0.33902 0.0
C2915 C 0.87876 0.22279 0.32497 0.0
C2916 C 0.87289 0.24129 0.32573 0.0
C2917 C 0.86319 0.24744 0.34054 0.0
C2918 C 0.86005 0.2355 0.35456 0.0
H2919 H 0.83821 0.16891 0.35849 0.0
H2920 H 0.84053 0.19082 0.34738 0.0
H2921 H 0.85795 0.17316 0.34494 0.0
H2922 H 0.88127 0.19702 0.33848 0.0
H2923 H 0.8863 0.21763 0.31378 0.0
H2924 H 0.98506 0.61595 0.59387 0.0
H2925 H 0.00843 0.6157 0.61699 0.0
H2926 H 0.05126 0.62455 0.57879 0.0
H2927 H 0.02806 0.62498 0.5556 0.0
H2928 H 0.04419 0.59491 0.62221 0.0
H2929 H 0.05123 0.67079 0.61203 0.0
H2930 H 0.03182 0.65777 0.60376 0.0
H2931 H 0.05381 0.65663 0.59293 0.0
C2932 C -0.00052 0.61758 0.59035 0.0
C2933 C 0.00468 0.62079 0.57293 0.0
C2934 C 0.0128 0.61732 0.60356 0.0
C2935 C 0.03149 0.62026 0.59956 0.0
C2936 C 0.03685 0.62238 0.58211 0.0
H2937 H 0.12054 0.65968 0.66368 0.0
H2938 H 0.10427 0.64433 0.63984 0.0
C2939 C 0.02357 0.62267 0.56889 0.0
C2940 C 0.04504 0.62326 0.6137 0.0
H2941 H 0.07059 0.65718 0.63289 0.0
C2942 C 0.05009 0.60847 0.62456 0.0
C2943 C 0.05255 0.641 0.61673 0.0
C2944 C 0.04702 0.65753 0.60587 0.0
C2945 C 0.06274 0.61096 0.63831 0.0
C2946 C 0.07019 0.62876 0.64135 0.0
C2947 C 0.06507 0.64348 0.63042 0.0
C2948 C 0.08262 0.63307 0.6562 0.0
C2949 C 0.06815 0.59455 0.6493 0.0
C2950 C 0.07645 0.63094 0.67346 0.0
C2951 C 0.08598 0.63944 0.68718 0.0
C2952 C 0.10153 0.65049 0.68371 0.0
C2953 C 0.10854 0.65129 0.66666 0.0
C2954 C 0.09924 0.64253 0.65304 0.0
H2955 H 0.06598 0.58134 0.64219 0.0
H2956 H 0.08286 0.59541 0.65341 0.0
H2957 H 0.0594 0.59425 0.66119 0.0
H2958 H 0.06349 0.62402 0.67619 0.0
H2959 H 0.0802 0.6388 0.7002 0.0
H2960 H 0.63923 0.26386 0.65901 0.0
H2961 H 0.64472 0.24268 0.63466 0.0
H2962 H 0.61151 0.20112 0.66009 0.0
H2963 H 0.60633 0.22199 0.68465 0.0
H2964 H 0.6432 0.18662 0.64398 0.0
H2965 H 0.60385 0.23299 0.59932 0.0
H2966 H 0.62359 0.24301 0.60995 0.0
H2967 H 0.60383 0.2362 0.62263 0.0
C2968 C 0.63319 0.25016 0.65946 0.0
C2969 C 0.62211 0.24468 0.67363 0.0
C2970 C 0.63634 0.2381 0.64554 0.0
C2971 C 0.62827 0.22046 0.64545 0.0
C2972 C 0.61786 0.21469 0.6599 0.0
H2973 H 0.58766 0.13485 0.58731 0.0
H2974 H 0.60471 0.15285 0.60874 0.0
C2975 C 0.61483 0.22667 0.67389 0.0
C2976 C 0.62939 0.2084 0.62989 0.0
H2977 H 0.61307 0.20438 0.58836 0.0
C2978 C 0.63689 0.19058 0.6317 0.0
C2979 C 0.6213 0.21366 0.61384 0.0
C2980 C 0.61256 0.23244 0.61125 0.0
C2981 C 0.63565 0.17758 0.61817 0.0
C2982 C 0.62649 0.18248 0.60256 0.0
C2983 C 0.62016 0.20068 0.60032 0.0
C2984 C 0.62033 0.1685 0.58971 0.0
C2985 C 0.6436 0.15853 0.62091 0.0
C2986 C 0.62379 0.17092 0.57183 0.0
C2987 C 0.61396 0.16061 0.55947 0.0
C2988 C 0.60031 0.148 0.56486 0.0
C2989 C 0.59801 0.14455 0.58276 0.0
C2990 C 0.60791 0.15472 0.59506 0.0
H2991 H 0.65567 0.15899 0.62988 0.0
H2992 H 0.63294 0.14956 0.62698 0.0
H2993 H 0.64797 0.15217 0.6084 0.0
H2994 H 0.63322 0.18159 0.56744 0.0
H2995 H 0.61599 0.1636 0.54576 0.0
H2996 H 0.08422 0.36293 0.79418 0.0
H2997 H 0.06579 0.38024 0.8155 0.0
H2998 H 0.09489 0.35311 0.8574 0.0
H2999 H 0.11328 0.33593 0.83633 0.0
H3000 H 0.04321 0.36032 0.83754 0.0
H3001 H 0.08897 0.40523 0.87661 0.0
H3002 H 0.09535 0.39681 0.85524 0.0
H3003 H 0.09844 0.38245 0.8742 0.0
C3004 C 0.08715 0.36119 0.80793 0.0
C3005 C 0.10005 0.34794 0.8136 0.0
C3006 C 0.07658 0.37105 0.82009 0.0
C3007 C 0.07905 0.36806 0.83803 0.0
C3008 C 0.09297 0.35593 0.84365 0.0
H3009 H 0.02636 0.36044 0.93443 0.0
H3010 H 0.04703 0.36381 0.90946 0.0
C3011 C 0.10338 0.34598 0.83156 0.0
C3012 C 0.06517 0.37467 0.8508 0.0
H3013 H 0.06134 0.39391 0.89126 0.0
C3014 C 0.04699 0.36813 0.84908 0.0
C3015 C 0.0702 0.38475 0.86585 0.0
C3016 C 0.08928 0.39287 0.86801 0.0
C3017 C 0.0341 0.37007 0.86262 0.0
C3018 C 0.03946 0.37922 0.87813 0.0
C3019 C 0.05729 0.38682 0.87939 0.0
C3020 C 0.02746 0.37921 0.8938 0.0
C3021 C 0.01534 0.36111 0.86067 0.0
C3022 C 0.00975 0.38717 0.89345 0.0
C3023 C 0.9978 0.38506 0.90765 0.0
C3024 C 0.00346 0.37516 0.92251 0.0
C3025 C 0.02154 0.36805 0.92315 0.0
C3026 C 0.0334 0.37003 0.90891 0.0
H3027 H 0.01478 0.35154 0.84935 0.0
H3028 H 0.01163 0.35326 0.87261 0.0
H3029 H 0.00472 0.37198 0.85865 0.0
H3030 H 0.00503 0.39464 0.88205 0.0
H3031 H 0.98404 0.39093 0.90686 0.0
H3032 H 0.87183 0.73363 0.15377 0.0
H3033 H 0.87058 0.75739 0.13105 0.0
H3034 H 0.87722 0.79982 0.17 0.0
H3035 H 0.87863 0.77625 0.1928 0.0
H3036 H 0.84769 0.79219 0.12676 0.0
H3037 H 0.92328 0.8029 0.13648 0.0
H3038 H 0.91139 0.78262 0.14435 0.0
H3039 H 0.90914 0.8042 0.15572 0.0
C3040 C 0.87281 0.74803 0.15754 0.0
C3041 C 0.87563 0.75305 0.17506 0.0
C3042 C 0.87197 0.76156 0.14455 0.0
C3043 C 0.87394 0.78028 0.14889 0.0
C3044 C 0.87579 0.7854 0.16643 0.0
H3045 H 0.90897 0.87163 0.08544 0.0
H3046 H 0.89436 0.85478 0.10934 0.0
C3047 C 0.87665 0.7719 0.17942 0.0
C3048 C 0.8761 0.79426 0.135 0.0
H3049 H 0.90852 0.82179 0.11597 0.0
C3050 C 0.86093 0.79879 0.12439 0.0
C3051 C 0.89341 0.80271 0.13198 0.0
C3052 C 0.91031 0.79782 0.14261 0.0
C3053 C 0.86264 0.81181 0.11085 0.0
C3054 C 0.88003 0.82016 0.10776 0.0
C3055 C 0.89511 0.81559 0.11848 0.0
C3056 C 0.88361 0.83288 0.09298 0.0
C3057 C 0.84583 0.81661 0.10014 0.0
C3058 C 0.88146 0.82677 0.0757 0.0
C3059 C 0.8895 0.83664 0.06196 0.0
C3060 C 0.90013 0.85247 0.06541 0.0
C3061 C 0.90088 0.85942 0.08248 0.0
C3062 C 0.89256 0.84978 0.09613 0.0
H3063 H 0.83284 0.81389 0.10745 0.0
H3064 H 0.84603 0.83134 0.09607 0.0
H3065 H 0.84565 0.80789 0.08823 0.0
H3066 H 0.87495 0.81361 0.07296 0.0
H3067 H 0.88891 0.8309 0.04892 0.0
H3068 H 0.38753 0.66493 0.33488 0.0
H3069 H 0.40574 0.64776 0.35614 0.0
H3070 H 0.432 0.61732 0.31461 0.0
H3071 H 0.41387 0.63472 0.29308 0.0
H3072 H 0.4141 0.60975 0.36451 0.0
H3073 H 0.47384 0.64876 0.33675 0.0
H3074 H 0.45025 0.65448 0.33133 0.0
H3075 H 0.46084 0.63422 0.32221 0.0
C3076 C 0.39684 0.65427 0.33025 0.0
C3077 C 0.39956 0.65144 0.3123 0.0
C3078 C 0.40717 0.6444 0.34243 0.0
C3079 C 0.42046 0.63156 0.33691 0.0
C3080 C 0.42196 0.62738 0.31908 0.0
H3081 H 0.5146 0.61057 0.40597 0.0
H3082 H 0.49362 0.60617 0.38129 0.0
C3083 C 0.41153 0.63725 0.30682 0.0
C3084 C 0.43431 0.62495 0.34968 0.0
H3085 H 0.4784 0.63368 0.36322 0.0
C3086 C 0.42829 0.61461 0.36409 0.0
C3087 C 0.4528 0.63135 0.34907 0.0
C3088 C 0.45991 0.6429 0.3341 0.0
C3089 C 0.44008 0.6112 0.37829 0.0
C3090 C 0.45816 0.61869 0.37819 0.0
C3091 C 0.46451 0.628 0.36329 0.0
C3092 C 0.47008 0.6189 0.39393 0.0
C3093 C 0.4329 0.59998 0.39341 0.0
C3094 C 0.4638 0.62746 0.40926 0.0
C3095 C 0.47574 0.62999 0.42338 0.0
C3096 C 0.49427 0.62423 0.42236 0.0
C3097 C 0.50042 0.61525 0.40715 0.0
C3098 C 0.48844 0.61265 0.39305 0.0
H3099 H 0.42221 0.58996 0.38906 0.0
H3100 H 0.44421 0.5923 0.40001 0.0
H3101 H 0.42635 0.60939 0.40303 0.0
H3102 H 0.44986 0.63289 0.41007 0.0
H3103 H 0.47058 0.63699 0.43488 0.0
H3104 H 0.38301 0.16421 0.04495 0.0
H3105 H 0.36621 0.18353 0.06593 0.0
H3106 H 0.39636 0.15822 0.10816 0.0
H3107 H 0.413 0.13884 0.08745 0.0
H3108 H 0.35814 0.16767 0.11611 0.0
H3109 H 0.3989 0.22537 0.08683 0.0
H3110 H 0.38418 0.21213 0.07265 0.0
H3111 H 0.40417 0.20149 0.08225 0.0
C3112 C 0.38562 0.16235 0.05874 0.0
C3113 C 0.39958 0.15027 0.06454 0.0
C3114 C 0.37608 0.17346 0.07069 0.0
C3115 C 0.38034 0.17252 0.08852 0.0
C3116 C 0.39294 0.1592 0.09443 0.0
H3117 H 0.3871 0.2245 0.18515 0.0
H3118 H 0.38232 0.20358 0.16065 0.0
C3119 C 0.40251 0.14819 0.08256 0.0
C3120 C 0.37405 0.18693 0.10084 0.0
H3121 H 0.38408 0.23109 0.11324 0.0
C3122 C 0.36344 0.18168 0.11534 0.0
C3123 C 0.38098 0.20519 0.09975 0.0
C3124 C 0.39277 0.21148 0.08462 0.0
C3125 C 0.36032 0.19397 0.1292 0.0
C3126 C 0.36841 0.21178 0.12867 0.0
C3127 C 0.37795 0.21741 0.11365 0.0
C3128 C 0.36912 0.22401 0.14417 0.0
C3129 C 0.34879 0.1876 0.14444 0.0
C3130 C 0.36361 0.24258 0.14298 0.0
C3131 C 0.36662 0.25469 0.1569 0.0
C3132 C 0.37527 0.24844 0.17224 0.0
C3133 C 0.38036 0.22974 0.17355 0.0
C3134 C 0.37743 0.21769 0.1596 0.0
H3135 H 0.33833 0.17725 0.14026 0.0
H3136 H 0.35791 0.18086 0.15419 0.0
H3137 H 0.34157 0.19935 0.1508 0.0
H3138 H 0.35736 0.24779 0.13112 0.0
H3139 H 0.36247 0.269 0.15552 0.0
H3140 H 0.61141 0.66099 0.83582 0.0
H3141 H 0.59328 0.64305 0.8565 0.0
H3142 H 0.56413 0.61699 0.81403 0.0
H3143 H 0.58231 0.63508 0.7931 0.0
H3144 H 0.54157 0.6362 0.83642 0.0
H3145 H 0.58734 0.59062 0.87471 0.0
H3146 H 0.59685 0.61342 0.8728 0.0
H3147 H 0.59377 0.59952 0.85353 0.0
C3148 C 0.60157 0.651 0.83083 0.0
C3149 C 0.59813 0.64959 0.81285 0.0
C3150 C 0.59132 0.6406 0.84269 0.0
C3151 C 0.57743 0.62857 0.83682 0.0
C3152 C 0.5749 0.62609 0.81881 0.0
H3153 H 0.48264 0.60557 0.90586 0.0
H3154 H 0.50349 0.60162 0.88097 0.0
C3155 C 0.58531 0.6364 0.80688 0.0
C3156 C 0.56357 0.62166 0.84946 0.0
H3157 H 0.55985 0.60196 0.88973 0.0
C3158 C 0.54538 0.62824 0.84786 0.0
C3159 C 0.56862 0.61137 0.86437 0.0
C3160 C 0.58768 0.60317 0.86637 0.0
C3161 C 0.53254 0.62617 0.86142 0.0
C3162 C 0.53796 0.61687 0.87684 0.0
C3163 C 0.55577 0.60918 0.87794 0.0
C3164 C 0.52609 0.61689 0.89259 0.0
C3165 C 0.51379 0.63521 0.85963 0.0
C3166 C 0.53219 0.62605 0.90766 0.0
C3167 C 0.52041 0.62816 0.92195 0.0
C3168 C 0.50227 0.62122 0.92139 0.0
C3169 C 0.49646 0.61131 0.90658 0.0
C3170 C 0.50833 0.60907 0.89234 0.0
H3171 H 0.51317 0.64482 0.84835 0.0
H3172 H 0.50312 0.62438 0.85767 0.0
H3173 H 0.51022 0.64304 0.87162 0.0
H3174 H 0.54587 0.63217 0.90813 0.0
H3175 H 0.52535 0.63576 0.93319 0.0
H3176 H 0.08417 0.86223 0.58706 0.0
H3177 H 0.10165 0.84422 0.60818 0.0
H3178 H 0.13028 0.81642 0.56637 0.0
H3179 H 0.11265 0.83445 0.54501 0.0
H3180 H 0.11063 0.79308 0.58755 0.0
H3181 H 0.15332 0.83909 0.62845 0.0
H3182 H 0.13037 0.84808 0.6258 0.0
H3183 H 0.1452 0.84574 0.60705 0.0
C3184 C 0.09461 0.85272 0.58234 0.0
C3185 C 0.09687 0.84958 0.56438 0.0
C3186 C 0.10475 0.84254 0.59445 0.0
C3187 C 0.11737 0.82905 0.58887 0.0
C3188 C 0.12071 0.82688 0.57094 0.0
H3189 H 0.1397 0.73353 0.6571 0.0
H3190 H 0.14412 0.75495 0.63274 0.0
C3191 C 0.11064 0.83721 0.55876 0.0
C3192 C 0.12402 0.81512 0.60155 0.0
H3193 H 0.14198 0.81105 0.64251 0.0
C3194 C 0.11797 0.79684 0.59937 0.0
C3195 C 0.1335 0.82012 0.61696 0.0
C3196 C 0.14113 0.83931 0.61963 0.0
C3197 C 0.11974 0.78379 0.61278 0.0
C3198 C 0.12821 0.7891 0.62865 0.0
C3199 C 0.1354 0.80704 0.63038 0.0
C3200 C 0.12779 0.77691 0.64416 0.0
C3201 C 0.11125 0.76488 0.6103 0.0
C3202 C 0.11785 0.78247 0.65897 0.0
C3203 C 0.11546 0.77037 0.67297 0.0
C3204 C 0.1229 0.75244 0.67237 0.0
C3205 C 0.13354 0.74717 0.65783 0.0
C3206 C 0.13608 0.75936 0.64389 0.0
H3207 H 0.10215 0.76428 0.59864 0.0
H3208 H 0.12243 0.75453 0.60855 0.0
H3209 H 0.103 0.76085 0.6219 0.0
H3210 H 0.11136 0.79597 0.65945 0.0
H3211 H 0.10728 0.77488 0.68401 0.0
H3212 H 0.91887 0.35425 0.29779 0.0
H3213 H 0.93642 0.36837 0.32172 0.0
H3214 H 0.89686 0.34705 0.3587 0.0
H3215 H 0.87971 0.33238 0.33497 0.0
H3216 H 0.9309 0.39179 0.35149 0.0
H3217 H 0.94468 0.31868 0.36944 0.0
H3218 H 0.93391 0.32509 0.34912 0.0
H3219 H 0.92054 0.32445 0.3689 0.0
C3220 C 0.9136 0.35313 0.31097 0.0
C3221 C 0.89814 0.342 0.31462 0.0
C3222 C 0.92365 0.36116 0.32462 0.0
C3223 C 0.91817 0.35831 0.34198 0.0
C3224 C 0.90151 0.34905 0.34541 0.0
H3225 H 0.97236 0.36588 0.4418 0.0
H3226 H 0.94946 0.36575 0.41837 0.0
C3227 C 0.8917 0.34074 0.33186 0.0
C3228 C 0.93105 0.36248 0.35645 0.0
H3229 H 0.95598 0.3415 0.38864 0.0
C3230 C 0.9364 0.38084 0.35964 0.0
C3231 C 0.93843 0.34809 0.36686 0.0
C3232 C 0.93427 0.32796 0.36334 0.0
C3233 C 0.94863 0.38519 0.37331 0.0
C3234 C 0.95561 0.3708 0.3839 0.0
C3235 C 0.95037 0.3525 0.3806 0.0
C3236 C 0.96876 0.37408 0.39832 0.0
C3237 C 0.95386 0.40507 0.37654 0.0
C3238 C 0.98713 0.37904 0.39477 0.0
C3239 C 0.00032 0.37899 0.40812 0.0
C3240 C 0.99531 0.37392 0.42519 0.0
C3241 C 0.9767 0.36978 0.4288 0.0
C3242 C 0.96357 0.36977 0.41545 0.0
H3243 H 0.94481 0.4148 0.36926 0.0
H3244 H 0.95306 0.40832 0.39067 0.0
H3245 H 0.96836 0.40733 0.37229 0.0
H3246 H 0.99145 0.3821 0.38156 0.0
H3247 H 0.01454 0.38231 0.40493 0.0
H3248 H 0.37095 0.75736 0.3202 0.0
H3249 H 0.37039 0.78344 0.34048 0.0
H3250 H 0.3747 0.74585 0.38389 0.0
H3251 H 0.37526 0.71957 0.36372 0.0
H3252 H 0.34681 0.78245 0.38399 0.0
H3253 H 0.42222 0.79081 0.3705 0.0
H3254 H 0.40672 0.786 0.35267 0.0
H3255 H 0.41096 0.7686 0.36881 0.0
C3256 C 0.37154 0.75459 0.33407 0.0
C3257 C 0.37337 0.73641 0.34036 0.0
C3258 C 0.37109 0.7695 0.34561 0.0
C3259 C 0.37246 0.76648 0.36359 0.0
C3260 C 0.37345 0.74836 0.37001 0.0
H3261 H 0.38978 0.83077 0.45569 0.0
H3262 H 0.37524 0.81062 0.4341 0.0
C3263 C 0.37386 0.7334 0.35847 0.0
C3264 C 0.37519 0.78226 0.37547 0.0
H3265 H 0.4087 0.81134 0.39026 0.0
C3266 C 0.36028 0.7889 0.38536 0.0
C3267 C 0.39275 0.79058 0.37707 0.0
C3268 C 0.40918 0.7837 0.36679 0.0
C3269 C 0.36257 0.80381 0.39696 0.0
C3270 C 0.38029 0.81191 0.39882 0.0
C3271 C 0.39508 0.80527 0.38872 0.0
C3272 C 0.38445 0.82651 0.4118 0.0
C3273 C 0.34603 0.81081 0.40694 0.0
C3274 C 0.39394 0.84249 0.4065 0.0
C3275 C 0.40257 0.85378 0.41879 0.0
C3276 C 0.40167 0.84941 0.43661 0.0
C3277 C 0.39056 0.83454 0.44204 0.0
C3278 C 0.38218 0.82304 0.42969 0.0
H3279 H 0.33291 0.80756 0.40005 0.0
H3280 H 0.34557 0.80395 0.41987 0.0
H3281 H 0.34684 0.82598 0.40903 0.0
H3282 H 0.39583 0.84546 0.39277 0.0
H3283 H 0.41097 0.86523 0.41427 0.0
H3284 H 0.88684 0.66157 0.16324 0.0
H3285 H 0.90537 0.64434 0.14231 0.0
H3286 H 0.93449 0.61763 0.18445 0.0
H3287 H 0.9159 0.63497 0.20561 0.0
H3288 H 0.95693 0.6379 0.16254 0.0
H3289 H 0.91221 0.59225 0.12319 0.0
H3290 H 0.90232 0.61486 0.12557 0.0
H3291 H 0.90556 0.60053 0.14453 0.0
C3292 C 0.89676 0.65157 0.16809 0.0
C3293 C 0.90006 0.64977 0.18606 0.0
C3294 C 0.90724 0.64159 0.15609 0.0
C3295 C 0.92123 0.6296 0.16181 0.0
C3296 C 0.92364 0.6267 0.17978 0.0
H3297 H 0.01698 0.60934 0.09312 0.0
H3298 H 0.9961 0.60486 0.11791 0.0
C3299 C 0.91299 0.63659 0.19184 0.0
C3300 C 0.93531 0.62318 0.14915 0.0
H3301 H 0.93969 0.60415 0.10866 0.0
C3302 C 0.95335 0.63005 0.15097 0.0
C3303 C 0.93054 0.61305 0.13406 0.0
C3304 C 0.91163 0.60459 0.1318 0.0
C3305 C 0.96633 0.62843 0.13747 0.0
C3306 C 0.96122 0.61924 0.1219 0.0
C3307 C 0.94355 0.61127 0.12057 0.0
C3308 C 0.97322 0.61967 0.10624 0.0
C3309 C 0.98489 0.63779 0.13952 0.0
C3310 C 0.96699 0.62873 0.09117 0.0
C3311 C 0.97878 0.63112 0.07693 0.0
C3312 C 0.99707 0.62457 0.07754 0.0
C3313 C 0.00304 0.6148 0.09237 0.0
C3314 C 0.99116 0.61225 0.10655 0.0
H3315 H 0.9852 0.64732 0.15087 0.0
H3316 H 0.99573 0.62714 0.14153 0.0
H3317 H 0.98847 0.64578 0.12762 0.0
H3318 H 0.95319 0.63454 0.09064 0.0
H3319 H 0.97372 0.63862 0.06567 0.0
H3320 H 0.11503 0.16269 0.95476 0.0
H3321 H 0.1328 0.18155 0.93412 0.0
H3322 H 0.10275 0.15722 0.89132 0.0
H3323 H 0.08516 0.13829 0.91169 0.0
H3324 H 0.14129 0.16569 0.88395 0.0
H3325 H 0.10166 0.22435 0.91295 0.0
H3326 H 0.11584 0.21066 0.92725 0.0
H3327 H 0.09569 0.20061 0.91739 0.0
C3328 C 0.11264 0.16093 0.94092 0.0
C3329 C 0.09844 0.14928 0.93485 0.0
C3330 C 0.12274 0.17178 0.92917 0.0
C3331 C 0.11879 0.17101 0.91126 0.0
C3332 C 0.10594 0.15806 0.90511 0.0
H3333 H 0.11395 0.22304 0.81484 0.0
H3334 H 0.11842 0.20204 0.83931 0.0
C3335 C 0.09583 0.14731 0.91679 0.0
C3336 C 0.12567 0.18531 0.89909 0.0
H3337 H 0.11685 0.22972 0.88668 0.0
C3338 C 0.13633 0.17982 0.8847 0.0
C3339 C 0.1192 0.20374 0.90016 0.0
C3340 C 0.10738 0.21029 0.91518 0.0
C3341 C 0.13989 0.19207 0.8709 0.0
C3342 C 0.13221 0.21006 0.87137 0.0
C3343 C 0.12267 0.2159 0.88631 0.0
C3344 C 0.13184 0.22227 0.85584 0.0
C3345 C 0.15144 0.18544 0.85576 0.0
C3346 C 0.1376 0.24076 0.85705 0.0
C3347 C 0.13477 0.25293 0.84313 0.0
C3348 C 0.12604 0.24682 0.82779 0.0
C3349 C 0.12075 0.22818 0.82644 0.0
C3350 C 0.12351 0.21607 0.84038 0.0
H3351 H 0.16167 0.17491 0.86005 0.0
H3352 H 0.14228 0.17883 0.84596 0.0
H3353 H 0.15893 0.19703 0.84941 0.0
H3354 H 0.14389 0.24588 0.86893 0.0
H3355 H 0.13909 0.26719 0.84454 0.0
H3356 H 0.62054 0.33792 0.66583 0.0
H3357 H 0.60442 0.35333 0.64193 0.0
H3358 H 0.56285 0.3727 0.67794 0.0
H3359 H 0.57941 0.35791 0.70201 0.0
H3360 H 0.57128 0.34 0.63439 0.0
H3361 H 0.56464 0.41554 0.64431 0.0
H3362 H 0.58162 0.40177 0.65572 0.0
H3363 H 0.55802 0.40244 0.66316 0.0
C3364 C 0.6084 0.34616 0.66874 0.0
C3365 C 0.60113 0.34667 0.6857 0.0
C3366 C 0.59918 0.35494 0.65508 0.0
C3367 C 0.58237 0.36413 0.6581 0.0
C3368 C 0.57595 0.36602 0.6753 0.0
H3369 H 0.48426 0.37926 0.59646 0.0
H3370 H 0.50791 0.37984 0.61932 0.0
C3371 C 0.5854 0.3575 0.68907 0.0
C3372 C 0.57002 0.36829 0.64316 0.0
H3373 H 0.54298 0.40156 0.62438 0.0
C3374 C 0.56537 0.35357 0.63205 0.0
C3375 C 0.56205 0.3859 0.64027 0.0
C3376 C 0.56697 0.40235 0.65141 0.0
C3377 C 0.55276 0.35582 0.61839 0.0
C3378 C 0.54467 0.37334 0.61558 0.0
C3379 C 0.54931 0.38816 0.62657 0.0
C3380 C 0.53086 0.37605 0.6016 0.0
C3381 C 0.54772 0.33924 0.60738 0.0
C3382 C 0.53606 0.37425 0.58407 0.0
C3383 C 0.52261 0.37377 0.571 0.0
C3384 C 0.50374 0.37515 0.57526 0.0
C3385 C 0.49867 0.37802 0.59276 0.0
C3386 C 0.51215 0.37846 0.60584 0.0
H3387 H 0.55241 0.32606 0.61336 0.0
H3388 H 0.53252 0.33853 0.60535 0.0
H3389 H 0.55439 0.34053 0.5944 0.0
H3390 H 0.55048 0.3725 0.58057 0.0
H3391 H 0.527 0.37174 0.55763 0.0
H3392 H 0.17619 0.21827 0.23605 0.0
H3393 H 0.20534 0.23423 0.22933 0.0
H3394 H 0.22957 0.21217 0.27636 0.0
H3395 H 0.20056 0.19607 0.28291 0.0
H3396 H 0.21982 0.26105 0.25203 0.0
H3397 H 0.27071 0.20497 0.24024 0.0
H3398 H 0.24603 0.20127 0.23911 0.0
H3399 H 0.25749 0.20223 0.25989 0.0
C3400 C 0.18799 0.2164 0.24459 0.0
C3401 C 0.18634 0.20602 0.25994 0.0
C3402 C 0.20452 0.22558 0.24083 0.0
C3403 C 0.2196 0.2243 0.25232 0.0
C3404 C 0.21822 0.21308 0.26719 0.0
H3405 H 0.32622 0.27831 0.26153 0.0
H3406 H 0.29719 0.26189 0.26771 0.0
C3407 C 0.20169 0.20394 0.27094 0.0
C3408 C 0.23603 0.23617 0.2498 0.0
H3409 H 0.28289 0.23516 0.24478 0.0
C3410 C 0.23361 0.25542 0.2503 0.0
C3411 C 0.25397 0.22873 0.24774 0.0
C3412 C 0.25725 0.20817 0.24655 0.0
C3413 C 0.24874 0.26748 0.24905 0.0
C3414 C 0.26668 0.26005 0.24701 0.0
C3415 C 0.2691 0.24079 0.24649 0.0
C3416 C 0.28312 0.27194 0.24466 0.0
C3417 C 0.24544 0.28804 0.25028 0.0
C3418 C 0.28457 0.28332 0.22992 0.0
C3419 C 0.30102 0.29273 0.22648 0.0
C3420 C 0.31625 0.29075 0.23766 0.0
C3421 C 0.31453 0.28011 0.25285 0.0
C3422 C 0.29807 0.27067 0.25629 0.0
H3423 H 0.23195 0.29123 0.25653 0.0
H3424 H 0.25663 0.29492 0.25779 0.0
H3425 H 0.24528 0.29402 0.23695 0.0
H3426 H 0.27331 0.28424 0.22064 0.0
H3427 H 0.3022 0.30082 0.21464 0.0
H3428 H 0.0074 0.91965 0.509 0.0
H3429 H 0.99311 0.94954 0.50242 0.0
H3430 H 0.04683 0.97552 0.50385 0.0
H3431 H 0.06119 0.94545 0.51031 0.0
H3432 H 0.99521 0.97986 0.52486 0.0
H3433 H 0.02329 0.99665 0.45929 0.0
H3434 H 0.02379 0.97355 0.46821 0.0
H3435 H 0.04033 0.99048 0.47533 0.0
C3436 C 0.01614 0.93172 0.50755 0.0
C3437 C 0.03532 0.93042 0.51007 0.0
C3438 C 0.008 0.94873 0.50385 0.0
C3439 C 0.01893 0.96468 0.50258 0.0
C3440 C 0.03821 0.9633 0.5045 0.0
H3441 H 0.99312 0.08054 0.48977 0.0
H3442 H 0.00798 0.05084 0.49604 0.0
C3443 C 0.04639 0.9462 0.50817 0.0
C3444 C 0.00989 0.98287 0.50058 0.0
H3445 H 0.00645 0.02025 0.47371 0.0
C3446 C 0.9976 0.98869 0.51366 0.0
C3447 C 0.01313 0.99431 0.48598 0.0
C3448 C 0.02572 0.98843 0.47131 0.0
C3449 C 0.98855 0.0058 0.5126 0.0
C3450 C 0.99173 0.01721 0.49796 0.0
C3451 C 0.00408 0.01143 0.48492 0.0
C3452 C 0.98243 0.03525 0.49586 0.0
C3453 C 0.97597 0.01168 0.52728 0.0
C3454 C 0.96312 0.0363 0.49397 0.0
C3455 C 0.95463 0.05327 0.49046 0.0
C3456 C 0.9654 0.06928 0.4887 0.0
C3457 C 0.98461 0.06829 0.49111 0.0
C3458 C 0.99308 0.0514 0.49463 0.0
H3459 H 0.97855 0.00357 0.53935 0.0
H3460 H 0.97775 0.02659 0.53026 0.0
H3461 H 0.96137 0.00941 0.52334 0.0
H3462 H 0.95472 0.02392 0.49459 0.0
H3463 H 0.93981 0.05377 0.48839 0.0
H3464 H 0.19638 0.68653 0.73755 0.0
H3465 H 0.22609 0.70147 0.7444 0.0
H3466 H 0.19813 0.75385 0.75008 0.0
H3467 H 0.16858 0.73891 0.74357 0.0
H3468 H 0.24105 0.72994 0.72419 0.0
H3469 H 0.23189 0.75279 0.79267 0.0
H3470 H 0.21739 0.7354 0.78273 0.0
H3471 H 0.21323 0.75951 0.77859 0.0
C3472 C 0.19663 0.7011 0.74079 0.0
C3473 C 0.18036 0.71163 0.74021 0.0
C3474 C 0.21353 0.70963 0.74457 0.0
C3475 C 0.21424 0.72872 0.74792 0.0
C3476 C 0.19784 0.73906 0.7479 0.0
H3477 H 0.30143 0.81031 0.7615 0.0
H3478 H 0.27176 0.79493 0.75527 0.0
C3479 C 0.18101 0.73056 0.74412 0.0
C3480 C 0.23222 0.73823 0.74985 0.0
H3481 H 0.25698 0.76625 0.77697 0.0
C3482 C 0.24463 0.73775 0.73578 0.0
C3483 C 0.2367 0.74855 0.76492 0.0
C3484 C 0.22418 0.74899 0.78066 0.0
C3485 C 0.26134 0.74757 0.73628 0.0
C3486 C 0.26578 0.75794 0.75132 0.0
C3487 C 0.2534 0.75842 0.76539 0.0
C3488 C 0.28369 0.76756 0.75316 0.0
C3489 C 0.27397 0.74705 0.72062 0.0
C3490 C 0.3001 0.75726 0.7538 0.0
C3491 C 0.31688 0.76598 0.75729 0.0
C3492 C 0.31749 0.78511 0.76023 0.0
C3493 C 0.30121 0.79556 0.75905 0.0
C3494 C 0.28434 0.7868 0.75561 0.0
H3495 H 0.26649 0.74266 0.70866 0.0
H3496 H 0.28033 0.76079 0.71825 0.0
H3497 H 0.28526 0.73698 0.72304 0.0
H3498 H 0.29983 0.74237 0.75224 0.0
H3499 H 0.32933 0.75769 0.75827 0.0
H3500 H 0.55758 0.94608 0.99116 0.0
H3501 H 0.54196 0.97552 0.99771 0.0
H3502 H 0.48981 0.94679 0.00181 0.0
H3503 H 0.5054 0.91752 0.99549 0.0
H3504 H 0.51346 0.98941 0.97607 0.0
H3505 H 0.48922 0.98117 0.04431 0.0
H3506 H 0.5074 0.96711 0.03508 0.0
H3507 H 0.48358 0.9621 0.03029 0.0
C3508 C 0.5429 0.9461 0.99401 0.0
C3509 C 0.53261 0.92973 0.99296 0.0
C3510 C 0.53399 0.96283 0.99762 0.0
C3511 C 0.51477 0.96325 0.00037 0.0
C3512 C 0.50468 0.94671 5e-05 0.0
H3513 H 0.43293 0.05068 0.01294 0.0
H3514 H 0.4479 0.02078 0.00678 0.0
C3515 C 0.51355 0.93005 0.9964 0.0
C3516 C 0.50491 0.98106 0.0018 0.0
H3517 H 0.47624 0.00605 0.02811 0.0
C3518 C 0.50543 0.99314 0.98749 0.0
C3519 C 0.49426 0.98569 0.01662 0.0
C3520 C 0.49366 0.97342 0.03252 0.0
C3521 C 0.4954 0.00973 0.98754 0.0
C3522 C 0.48483 0.01442 0.0024 0.0
C3523 C 0.48424 0.0023 0.01668 0.0
C3524 C 0.47534 0.03242 0.00394 0.0
C3525 C 0.496 0.02197 0.97162 0.0
C3526 C 0.4858 0.04873 0.00411 0.0
C3527 C 0.47731 0.06562 0.00753 0.0
C3528 C 0.45825 0.06644 0.0109 0.0
C3529 C 0.44761 0.05027 0.01013 0.0
C3530 C 0.45615 0.03329 0.00674 0.0
H3531 H 0.50011 0.01411 0.95979 0.0
H3532 H 0.48235 0.02856 0.96922 0.0
H3533 H 0.50635 0.03308 0.97369 0.0
H3534 H 0.50066 0.04831 0.00232 0.0
H3535 H 0.48574 0.07799 0.00824 0.0
H3536 H 0.3028 0.68912 0.26176 0.0
H3537 H 0.27288 0.70417 0.25591 0.0
H3538 H 0.30058 0.75676 0.25091 0.0
H3539 H 0.33033 0.74172 0.25646 0.0
H3540 H 0.25818 0.73255 0.27699 0.0
H3541 H 0.26625 0.75595 0.2085 0.0
H3542 H 0.28079 0.73835 0.21807 0.0
H3543 H 0.28509 0.76238 0.22249 0.0
C3544 C 0.30243 0.70379 0.25895 0.0
C3545 C 0.31868 0.71434 0.25945 0.0
C3546 C 0.28542 0.71237 0.25574 0.0
C3547 C 0.28459 0.73154 0.25284 0.0
C3548 C 0.30096 0.74192 0.25279 0.0
H3549 H 0.19592 0.81155 0.23885 0.0
H3550 H 0.22592 0.79696 0.24535 0.0
C3551 C 0.3179 0.73337 0.25602 0.0
C3552 C 0.26655 0.74099 0.25124 0.0
H3553 H 0.24104 0.76867 0.22442 0.0
C3554 C 0.25434 0.74034 0.26545 0.0
C3555 C 0.26174 0.75129 0.23625 0.0
C3556 C 0.27407 0.75194 0.22038 0.0
C3557 C 0.23749 0.74994 0.26517 0.0
C3558 C 0.23267 0.76022 0.25017 0.0
C3559 C 0.24489 0.7609 0.23597 0.0
C3560 C 0.21453 0.76947 0.24846 0.0
C3561 C 0.22512 0.74925 0.281 0.0
C3562 C 0.1983 0.75886 0.24833 0.0
C3563 C 0.18132 0.76715 0.24471 0.0
C3564 C 0.18034 0.78613 0.2411 0.0
C3565 C 0.19643 0.79692 0.24183 0.0
C3566 C 0.21349 0.7886 0.24542 0.0
H3567 H 0.23295 0.74535 0.29292 0.0
H3568 H 0.21829 0.76279 0.28327 0.0
H3569 H 0.21419 0.73871 0.2789 0.0
H3570 H 0.19886 0.74404 0.2503 0.0
H3571 H 0.16903 0.75861 0.24406 0.0
H3572 H 0.56275 0.05186 0.51155 0.0
H3573 H 0.54704 0.0225 0.50489 0.0
H3574 H 0.49502 0.05146 0.50069 0.0
H3575 H 0.51069 0.08065 0.50711 0.0
H3576 H 0.51836 0.00836 0.52609 0.0
H3577 H 0.49468 0.01767 0.45783 0.0
H3578 H 0.5128 0.03158 0.46738 0.0
H3579 H 0.48893 0.03659 0.47199 0.0
C3580 C 0.54807 0.0519 0.50869 0.0
C3581 C 0.53785 0.06832 0.50969 0.0
C3582 C 0.53912 0.03521 0.50501 0.0
C3583 C 0.51991 0.03489 0.50215 0.0
C3584 C 0.50988 0.05147 0.50251 0.0
H3585 H 0.43693 0.94906 0.48842 0.0
H3586 H 0.45253 0.97852 0.495 0.0
C3587 C 0.5188 0.06807 0.50622 0.0
C3588 C 0.50999 0.01715 0.50044 0.0
H3589 H 0.48119 0.99282 0.47373 0.0
C3590 C 0.51035 0.00486 0.5146 0.0
C3591 C 0.4994 0.01281 0.48551 0.0
C3592 C 0.49901 0.02527 0.46974 0.0
C3593 C 0.50015 0.98838 0.51431 0.0
C3594 C 0.48957 0.98403 0.49937 0.0
C3595 C 0.4892 0.99633 0.48522 0.0
C3596 C 0.47972 0.96625 0.49764 0.0
C3597 C 0.50055 0.97591 0.53008 0.0
C3598 C 0.48984 0.94973 0.49724 0.0
C3599 C 0.48098 0.93308 0.49357 0.0
C3600 C 0.46192 0.93273 0.49018 0.0
C3601 C 0.45162 0.94911 0.49121 0.0
C3602 C 0.46051 0.96584 0.49485 0.0
H3603 H 0.50487 0.98351 0.54199 0.0
H3604 H 0.48678 0.96958 0.53243 0.0
H3605 H 0.51065 0.96461 0.52783 0.0
H3606 H 0.5047 0.94981 0.49903 0.0
H3607 H 0.48914 0.92054 0.49269 0.0
H3608 H 0.17417 0.27917 0.73787 0.0
H3609 H 0.20276 0.26229 0.73098 0.0
H3610 H 0.22756 0.28244 0.77848 0.0
H3611 H 0.19904 0.29942 0.78529 0.0
H3612 H 0.25163 0.28169 0.748 0.0
H3613 H 0.21518 0.21524 0.76047 0.0
H3614 H 0.2045 0.23036 0.74482 0.0
H3615 H 0.20594 0.23729 0.76726 0.0
C3616 C 0.18594 0.28034 0.74654 0.0
C3617 C 0.18456 0.2904 0.76211 0.0
C3618 C 0.20213 0.27059 0.74272 0.0
C3619 C 0.21705 0.27087 0.75443 0.0
C3620 C 0.21611 0.28199 0.76937 0.0
H3621 H 0.32428 0.21692 0.7607 0.0
H3622 H 0.29575 0.23388 0.76755 0.0
C3623 C 0.19992 0.29168 0.77322 0.0
C3624 C 0.23319 0.25869 0.75172 0.0
H3625 H 0.24627 0.21333 0.75112 0.0
C3626 C 0.25052 0.26675 0.74869 0.0
C3627 C 0.23159 0.23923 0.75273 0.0
C3628 C 0.21335 0.22994 0.75663 0.0
C3629 C 0.26633 0.25579 0.7463 0.0
C3630 C 0.26475 0.23632 0.74739 0.0
C3631 C 0.2474 0.22827 0.7504 0.0
C3632 C 0.28091 0.22411 0.74483 0.0
C3633 C 0.2845 0.26513 0.74225 0.0
C3634 C 0.28152 0.21219 0.73041 0.0
C3635 C 0.29766 0.20237 0.72665 0.0
C3636 C 0.31333 0.20437 0.73726 0.0
C3637 C 0.31229 0.21523 0.75237 0.0
C3638 C 0.29614 0.22503 0.75616 0.0
H3639 H 0.28252 0.27964 0.73788 0.0
H3640 H 0.2932 0.26534 0.75418 0.0
H3641 H 0.29215 0.25748 0.73197 0.0
H3642 H 0.26983 0.21118 0.72162 0.0
H3643 H 0.29824 0.19397 0.71497 0.0
H3644 H 0.98765 0.92033 0.00594 0.0
H3645 H 0.0025 0.95 0.99971 0.0
H3646 H 0.94962 0.97739 0.00368 0.0
H3647 H 0.93474 0.94756 0.01023 0.0
H3648 H 0.99657 0.97717 0.97403 0.0
H3649 H 0.98195 0.00291 0.04098 0.0
H3650 H 0.97934 0.97893 0.03497 0.0
H3651 H 0.96209 0.99553 0.02872 0.0
C3652 C 0.9792 0.93268 0.00517 0.0
C3653 C 0.96015 0.93186 0.00857 0.0
C3654 C 0.98766 0.94956 0.00165 0.0
C3655 C 0.97719 0.96587 0.00156 0.0
C3656 C 0.95794 0.96494 0.00399 0.0
H3657 H 0.00785 0.08017 0.98932 0.0
H3658 H 0.99205 0.05088 0.99524 0.0
C3659 C 0.94944 0.94798 0.00753 0.0
C3660 C 0.98673 0.98381 0.99977 0.0
H3661 H 0.99724 0.02342 0.02183 0.0
C3662 C 0.99672 0.98731 0.98445 0.0
C3663 C 0.98699 0.99686 0.0135 0.0
C3664 C 0.97716 0.99339 0.03055 0.0
C3665 C 0.0068 0.00372 0.98238 0.0
C3666 C 0.0071 0.01674 0.99613 0.0
C3667 C 0.99704 0.01329 0.01141 0.0
C3668 C 0.01706 0.03446 0.99448 0.0
C3669 C 0.01677 0.00717 0.9654 0.0
C3670 C 0.0364 0.03491 0.99275 0.0
C3671 C 0.04544 0.05164 0.98944 0.0
C3672 C 0.03517 0.06798 0.98785 0.0
C3673 C 0.01596 0.06763 0.99049 0.0
C3674 C 0.00697 0.05098 0.99384 0.0
H3675 H 0.01208 0.99762 0.95495 0.0
H3676 H 0.01463 0.02162 0.96095 0.0
H3677 H 0.03184 0.00505 0.96735 0.0
H3678 H 0.04441 0.02227 0.99347 0.0
H3679 H 0.06026 0.0517 0.98736 0.0
H3680 H 0.82848 0.75702 0.73724 0.0
H3681 H 0.79877 0.74218 0.74337 0.0
H3682 H 0.77283 0.79576 0.74721 0.0
H3683 H 0.80265 0.81068 0.7407 0.0
H3684 H 0.77423 0.74576 0.77175 0.0
H3685 H 0.74279 0.76863 0.70917 0.0
H3686 H 0.76735 0.76985 0.71328 0.0
H3687 H 0.75207 0.78677 0.72258 0.0
C3688 C 0.81643 0.7656 0.73952 0.0
C3689 C 0.81767 0.78492 0.73841 0.0
C3690 C 0.79953 0.75714 0.74304 0.0
C3691 C 0.7836 0.76788 0.74544 0.0
C3692 C 0.78496 0.78726 0.74509 0.0
H3693 H 0.66918 0.741 0.76294 0.0
H3694 H 0.69893 0.75579 0.75687 0.0
C3695 C 0.80194 0.79575 0.74156 0.0
C3696 C 0.76557 0.75862 0.74779 0.0
H3697 H 0.72347 0.75217 0.7286 0.0
C3698 C 0.76311 0.74713 0.76233 0.0
C3699 C 0.75122 0.76038 0.73537 0.0
C3700 C 0.75345 0.77194 0.71913 0.0
C3701 C 0.74648 0.73755 0.76498 0.0
C3702 C 0.73212 0.73931 0.75256 0.0
C3703 C 0.73458 0.7508 0.73802 0.0
C3704 C 0.71408 0.73007 0.75492 0.0
C3705 C 0.74424 0.726 0.78123 0.0
C3706 C 0.71271 0.7107 0.75532 0.0
C3707 C 0.69571 0.70223 0.75882 0.0
C3708 C 0.67997 0.71309 0.76188 0.0
C3709 C 0.68123 0.73241 0.76073 0.0
C3710 C 0.69815 0.74084 0.75724 0.0
H3711 H 0.7549 0.72933 0.79119 0.0
H3712 H 0.73034 0.72807 0.78707 0.0
H3713 H 0.74565 0.71116 0.77778 0.0
H3714 H 0.72483 0.70218 0.75325 0.0
H3715 H 0.69497 0.68731 0.75972 0.0
H3716 H 0.8237 0.27779 0.23543 0.0
H3717 H 0.79414 0.26235 0.22913 0.0
H3718 H 0.77254 0.28113 0.2785 0.0
H3719 H 0.80199 0.29659 0.2847 0.0
H3720 H 0.78098 0.23397 0.25187 0.0
H3721 H 0.72957 0.29047 0.24416 0.0
H3722 H 0.75415 0.29413 0.24168 0.0
H3723 H 0.74414 0.29241 0.26306 0.0
C3724 C 0.81237 0.27909 0.24459 0.0
C3725 C 0.81491 0.2883 0.26049 0.0
C3726 C 0.79561 0.27021 0.24108 0.0
C3727 C 0.78119 0.27068 0.25334 0.0
C3728 C 0.7834 0.28085 0.26876 0.0
H3729 H 0.67426 0.21725 0.26279 0.0
H3730 H 0.7036 0.23293 0.26934 0.0
C3731 C 0.80016 0.28964 0.2723 0.0
C3732 C 0.76469 0.2589 0.25098 0.0
H3733 H 0.71769 0.26007 0.24753 0.0
C3734 C 0.76713 0.23964 0.25079 0.0
C3735 C 0.7467 0.26639 0.24982 0.0
C3736 C 0.74341 0.28699 0.24954 0.0
C3737 C 0.75196 0.22762 0.24967 0.0
C3738 C 0.73395 0.23511 0.24841 0.0
C3739 C 0.73153 0.25437 0.24863 0.0
C3740 C 0.71744 0.22332 0.246 0.0
C3741 C 0.75532 0.20704 0.25018 0.0
C3742 C 0.71576 0.21232 0.23101 0.0
C3743 C 0.69914 0.20329 0.22739 0.0
C3744 C 0.68396 0.20532 0.2386 0.0
C3745 C 0.68592 0.21543 0.25408 0.0
C3746 C 0.70256 0.22446 0.25772 0.0
H3747 H 0.76885 0.20368 0.25628 0.0
H3748 H 0.7442 0.19981 0.25749 0.0
H3749 H 0.75549 0.20158 0.23666 0.0
H3750 H 0.72695 0.2115 0.22164 0.0
H3751 H 0.69779 0.1956 0.21533 0.0
H3752 H 0.8026 0.18831 0.76087 0.0
H3753 H 0.77247 0.20299 0.75508 0.0
H3754 H 0.79883 0.25651 0.75427 0.0
H3755 H 0.82878 0.2419 0.75984 0.0
H3756 H 0.75646 0.23013 0.77762 0.0
H3757 H 0.76598 0.25706 0.71042 0.0
H3758 H 0.78035 0.23903 0.71948 0.0
H3759 H 0.78437 0.26278 0.72522 0.0
C3760 C 0.80191 0.20314 0.759 0.0
C3761 C 0.81784 0.21405 0.76067 0.0
C3762 C 0.78478 0.2115 0.75582 0.0
C3763 C 0.78351 0.2308 0.7541 0.0
C3764 C 0.79957 0.24159 0.75526 0.0
H3765 H 0.69398 0.30983 0.74094 0.0
H3766 H 0.72402 0.29538 0.74745 0.0
C3767 C 0.81661 0.23327 0.75849 0.0
C3768 C 0.76531 0.2399 0.75244 0.0
H3769 H 0.74 0.26832 0.72617 0.0
C3770 C 0.75276 0.23838 0.76632 0.0
C3771 C 0.7607 0.25079 0.73778 0.0
C3772 C 0.77347 0.25243 0.72229 0.0
C3773 C 0.73576 0.24771 0.76605 0.0
C3774 C 0.73113 0.25858 0.75136 0.0
C3775 C 0.74368 0.2601 0.73748 0.0
C3776 C 0.7129 0.26767 0.74964 0.0
C3777 C 0.72306 0.24614 0.78159 0.0
C3778 C 0.69679 0.2569 0.74899 0.0
C3779 C 0.67977 0.26512 0.7454 0.0
C3780 C 0.67863 0.2842 0.7423 0.0
C3781 C 0.6946 0.29512 0.74353 0.0
C3782 C 0.71168 0.28688 0.74712 0.0
H3783 H 0.73072 0.24197 0.79352 0.0
H3784 H 0.71586 0.25943 0.78417 0.0
H3785 H 0.71244 0.23544 0.77893 0.0
H3786 H 0.69748 0.24204 0.75053 0.0
H3787 H 0.66758 0.25648 0.74436 0.0
H3788 H 0.66925 0.75789 0.25973 0.0
H3789 H 0.69876 0.74265 0.25354 0.0
H3790 H 0.7265 0.79544 0.25539 0.0
H3791 H 0.69685 0.81072 0.26191 0.0
H3792 H 0.72507 0.74794 0.22678 0.0
H3793 H 0.75332 0.76383 0.29255 0.0
H3794 H 0.72909 0.76628 0.2873 0.0
H3795 H 0.74541 0.78346 0.28025 0.0
C3796 C 0.68165 0.76622 0.25861 0.0
C3797 C 0.68096 0.78539 0.26133 0.0
C3798 C 0.69844 0.75754 0.25508 0.0
C3799 C 0.71479 0.76789 0.25431 0.0
C3800 C 0.71402 0.7872 0.25622 0.0
H3801 H 0.82906 0.73886 0.2396 0.0
H3802 H 0.7995 0.75399 0.24582 0.0
C3803 C 0.69715 0.79592 0.25976 0.0
C3804 C 0.73265 0.75825 0.25212 0.0
H3805 H 0.77329 0.74853 0.27285 0.0
C3806 C 0.73563 0.74803 0.23683 0.0
C3807 C 0.74626 0.75832 0.26536 0.0
C3808 C 0.74338 0.76842 0.28237 0.0
C3809 C 0.75209 0.73813 0.23428 0.0
C3810 C 0.76571 0.73823 0.24751 0.0
C3811 C 0.76272 0.74843 0.2628 0.0
C3812 C 0.7836 0.72865 0.24529 0.0
C3813 C 0.75497 0.72801 0.21728 0.0
C3814 C 0.78446 0.70934 0.24349 0.0
C3815 C 0.80136 0.70068 0.23996 0.0
C3816 C 0.81749 0.71129 0.23827 0.0
C3817 C 0.81671 0.73048 0.24084 0.0
C3818 C 0.79989 0.73909 0.24438 0.0
H3819 H 0.74495 0.73248 0.20713 0.0
H3820 H 0.76922 0.73025 0.2123 0.0
H3821 H 0.75308 0.71296 0.21945 0.0
H3822 H 0.77202 0.70105 0.24442 0.0
H3823 H 0.80173 0.68587 0.23791 0.0
H3824 H 0.48847 0.57693 0.99378 0.0
H3825 H 0.50366 0.54736 -0.00018 0.0
H3826 H 0.45136 0.51922 0.99413 0.0
H3827 H 0.43615 0.54895 0.98783 0.0
H3828 H 0.49744 0.51911 0.02472 0.0
H3829 H 0.48516 0.49571 0.9566 0.0
H3830 H 0.48209 0.51943 0.96331 0.0
H3831 H 0.46486 0.50242 0.96857 0.0
C3832 C 0.48021 0.56444 0.99419 0.0
C3833 C 0.46124 0.56501 0.99034 0.0
C3834 C 0.48886 0.54762 0.99759 0.0
C3835 C 0.47867 0.53115 0.99708 0.0
C3836 C 0.45947 0.53181 0.99428 0.0
H3837 H 0.50995 0.41695 0.00704 0.0
H3838 H 0.49428 0.44628 0.00099 0.0
C3839 C 0.45078 0.54871 0.99088 0.0
C3840 C 0.48848 0.51332 0.99853 0.0
H3841 H 0.50016 0.47468 0.97547 0.0
C3842 C 0.49805 0.50937 0.01398 0.0
C3843 C 0.48934 0.50079 0.98438 0.0
C3844 C 0.47996 0.50479 0.9672 0.0
C3845 C 0.50827 0.49301 0.01579 0.0
C3846 C 0.50914 0.4805 0.00164 0.0
C3847 C 0.49953 0.48442 0.9862 0.0
C3848 C 0.51915 0.46279 0.00303 0.0
C3849 C 0.51771 0.48903 0.03294 0.0
C3850 C 0.53842 0.46237 0.00545 0.0
C3851 C 0.54738 0.44561 0.00882 0.0
C3852 C 0.53711 0.42921 0.00975 0.0
C3853 C 0.51806 0.42953 0.00631 0.0
C3854 C 0.50913 0.44621 0.00291 0.0
H3855 H 0.51259 0.49815 0.04355 0.0
H3856 H 0.51557 0.4744 0.03685 0.0
H3857 H 0.53281 0.49135 0.0315 0.0
H3858 H 0.54637 0.47506 0.00533 0.0
H3859 H 0.56208 0.44558 0.01156 0.0
H3860 H 0.96868 0.57325 0.48615 0.0
H3861 H 0.98499 0.54437 0.47923 0.0
H3862 H 0.96242 0.51923 0.52562 0.0
H3863 H 0.94598 0.54799 0.53236 0.0
H3864 H 0.01162 0.53017 0.50216 0.0
H3865 H 0.95672 0.47836 0.48913 0.0
H3866 H 0.95253 0.50296 0.48819 0.0
H3867 H 0.95336 0.49128 0.50887 0.0
C3868 C 0.96674 0.5613 0.49446 0.0
C3869 C 0.95616 0.56263 0.50972 0.0
C3870 C 0.97612 0.54491 0.49061 0.0
C3871 C 0.97484 0.52968 0.50189 0.0
C3872 C 0.96335 0.53072 0.5166 0.0
H3873 H 0.03027 0.42396 0.5112 0.0
H3874 H 0.01375 0.45287 0.5176 0.0
C3875 C 0.954 0.54709 0.52045 0.0
C3876 C 0.98707 0.51352 0.49944 0.0
H3877 H 0.98705 0.46671 0.49423 0.0
C3878 C 0.00628 0.5163 0.50027 0.0
C3879 C 0.98001 0.49547 0.49718 0.0
C3880 C 0.95953 0.4918 0.49563 0.0
C3881 C 0.01866 0.50142 0.49917 0.0
C3882 C 0.0116 0.48336 0.49695 0.0
C3883 C 0.99239 0.48058 0.49609 0.0
C3884 C 0.02383 0.46718 0.4947 0.0
C3885 C 0.03914 0.50507 0.50071 0.0
C3886 C 0.03534 0.46593 0.48002 0.0
C3887 C 0.0448 0.44955 0.47645 0.0
C3888 C 0.04275 0.43421 0.48746 0.0
C3889 C 0.03212 0.43576 0.50267 0.0
C3890 C 0.02262 0.45215 0.50623 0.0
H3891 H 0.04198 0.51862 0.50701 0.0
H3892 H 0.04609 0.49402 0.50834 0.0
H3893 H 0.04536 0.50532 0.48749 0.0
H3894 H 0.03622 0.47726 0.47082 0.0
H3895 H 0.05286 0.44848 0.46459 0.0
H3896 H 0.06291 0.55216 0.01198 0.0
H3897 H 0.04766 0.52244 0.00576 0.0
H3898 H 0.99545 0.5507 -0.00019 0.0
H3899 H 0.01067 0.58023 0.0058 0.0
H3900 H 0.01867 0.50864 0.02681 0.0
H3901 H 0.99638 0.51562 0.95789 0.0
H3902 H 0.01416 0.52999 0.96739 0.0
H3903 H 0.99015 0.53493 0.97138 0.0
C3904 C 0.04831 0.55195 0.00882 0.0
C3905 C 0.03788 0.56828 0.00921 0.0
C3906 C 0.03961 0.53507 0.00539 0.0
C3907 C 0.02048 0.53445 0.00218 0.0
C3908 C 0.01027 0.55093 0.00191 0.0
H3909 H 0.93819 0.4481 0.98894 0.0
H3910 H 0.9536 0.47768 0.99537 0.0
C3911 C 0.01892 0.56773 0.00537 0.0
C3912 C 0.01077 0.51657 0.00078 0.0
H3913 H 0.98263 0.49125 0.97426 0.0
C3914 C 0.01092 0.50473 0.01527 0.0
C3915 C 0.00051 0.51169 0.98579 0.0
C3916 C 0.00038 0.52364 0.96966 0.0
C3917 C 0.0008 0.48819 0.01528 0.0
C3918 C 0.99052 0.48333 0.0003 0.0
C3919 C 0.99039 0.49516 0.98579 0.0
C3920 C 0.98071 0.4655 0.99891 0.0
C3921 C 0.00094 0.47623 0.03139 0.0
C3922 C 0.99082 0.44897 0.99913 0.0
C3923 C 0.98208 0.43223 0.99555 0.0
C3924 C 0.96313 0.43182 0.99165 0.0
C3925 C 0.95279 0.4482 0.99215 0.0
C3926 C 0.96158 0.46501 0.9957 0.0
H3927 H 0.00503 0.48421 0.04316 0.0
H3928 H 0.98714 0.46995 0.0337 0.0
H3929 H 0.0111 0.46489 0.02963 0.0
H3930 H 0.00564 0.4491 0.00124 0.0
H3931 H 0.99027 0.41969 0.99504 0.0
H3932 H 0.4341 0.44672 0.51197 0.0
H3933 H 0.44881 0.47662 0.50532 0.0
H3934 H 0.50175 0.44941 0.50093 0.0
H3935 H 0.48708 0.41972 0.50735 0.0
H3936 H 0.47714 0.49156 0.52657 0.0
H3937 H 0.50086 0.48341 0.45821 0.0
H3938 H 0.48317 0.46894 0.46772 0.0
H3939 H 0.50719 0.46451 0.47216 0.0
C3940 C 0.44876 0.44719 0.50905 0.0
C3941 C 0.45954 0.43112 0.51002 0.0
C3942 C 0.45714 0.46418 0.50538 0.0
C3943 C 0.47632 0.46514 0.50249 0.0
C3944 C 0.4869 0.4489 0.50279 0.0
H3945 H 0.55823 0.55164 0.48944 0.0
H3946 H 0.54264 0.52215 0.49583 0.0
C3947 C 0.47855 0.43201 0.5065 0.0
C3948 C 0.48568 0.48318 0.50085 0.0
H3949 H 0.51413 0.50823 0.4744 0.0
C3950 C 0.48508 0.49533 0.51511 0.0
C3951 C 0.49619 0.48787 0.48596 0.0
C3952 C 0.49679 0.47558 0.47007 0.0
C3953 C 0.49505 0.51196 0.515 0.0
C3954 C 0.50563 0.5166 0.50014 0.0
C3955 C 0.50614 0.5045 0.48585 0.0
C3956 C 0.51547 0.53441 0.49869 0.0
C3957 C 0.49447 0.52423 0.5309 0.0
C3958 C 0.50537 0.55095 0.49852 0.0
C3959 C 0.51423 0.56764 0.49498 0.0
C3960 C 0.53328 0.56799 0.49149 0.0
C3961 C 0.54356 0.5516 0.49234 0.0
C3962 C 0.53467 0.53484 0.49586 0.0
H3963 H 0.49014 0.51646 0.54271 0.0
H3964 H 0.50819 0.53062 0.53339 0.0
H3965 H 0.48431 0.53549 0.52872 0.0
H3966 H 0.49051 0.55087 0.50033 0.0
H3967 H 0.50608 0.58019 0.49421 0.0
loop_
_geom_bond_atom_site_label_1
_geom_bond_atom_site_label_2
_geom_bond_distance
_geom_bond_site_symmetry_2
_ccdc_geom_bond_type
Co0 O3 1.970 . S
Co0 N17 1.989 . S
Co0 O25 1.967 . S
Co0 O32 1.920 . S
Co1 O4 1.966 . S
Co1 N10 2.022 . S
Co1 N18 1.993 . S
Co1 O26 1.941 . S
C2 O3 1.258 . S
C2 O4 1.263 . S
O3 Co0 1.970 . S
O3 C2 1.258 . S
O4 Co1 1.966 . S
O4 C2 1.263 . S
C5 O6 1.235 . S
C5 O32 1.289 . S
O6 C5 1.235 . S
C7 C9 1.400 . S
C7 N10 1.351 . S
C7 C12 1.501 . S
C8 C9 1.387 . S
C8 N11 1.341 . S
C9 C7 1.400 . S
C9 C8 1.387 . S
N10 Co1 2.022 . S
N10 C7 1.351 . S
N10 N11 1.365 . S
N11 C8 1.341 . S
N11 N10 1.365 . S
N11 H31 0.862 . S
C12 C7 1.501 . S
C12 H13 0.961 . S
C12 H14 0.961 . S
C12 H15 0.960 . S
H13 C12 0.961 . S
H14 C12 0.961 . S
H15 C12 0.960 . S
C16 N17 1.342 . S
C16 C20 1.401 . S
C16 C21 1.499 . S
N17 Co0 1.989 . S
N17 C16 1.342 . S
N17 N18 1.388 . S
N18 Co1 1.993 . S
N18 N17 1.388 . S
N18 C19 1.346 . S
C19 N18 1.346 . S
C19 C20 1.396 . S
C19 C29 1.510 . S
C20 C16 1.401 . S
C20 C19 1.396 . S
C21 C16 1.499 . S
C21 H22 0.959 . S
C21 H23 0.960 . S
C21 H24 0.961 . S
H22 C21 0.959 . S
H23 C21 0.960 . S
H24 C21 0.961 . S
O25 Co0 1.967 . S
O25 C33 1.258 . S
O26 Co1 1.941 . S
O26 C33 1.266 . S
H27 C29 0.959 . S
H28 C29 0.961 . S
C29 C19 1.510 . S
C29 H27 0.959 . S
C29 H28 0.961 . S
C29 H30 0.960 . S
H30 C29 0.960 . S
H31 N11 0.862 . S
O32 Co0 1.920 . S
O32 C5 1.289 . S
C33 O25 1.258 . S
C33 O26 1.266 . S
Co34 O37 1.970 . S
Co34 N51 1.989 . S
Co34 O59 1.967 . S
Co34 O66 1.920 . S
Co35 O38 1.966 . S
Co35 N44 2.022 . S
Co35 N52 1.993 . S
Co35 O60 1.941 . S
C36 O37 1.258 . S
C36 O38 1.263 . S
O37 Co34 1.970 . S
O37 C36 1.258 . S
O38 Co35 1.966 . S
O38 C36 1.263 . S
C39 O40 1.235 1_455 S
C39 O66 1.289 . S
O40 C39 1.235 1_655 S
C41 C43 1.400 . S
C41 N44 1.351 . S
C41 C46 1.501 . S
C42 C43 1.387 . S
C42 N45 1.341 . S
C43 C41 1.400 . S
C43 C42 1.387 . S
N44 Co35 2.022 . S
N44 C41 1.351 . S
N44 N45 1.365 . S
N45 C42 1.341 . S
N45 N44 1.365 . S
N45 H65 0.862 . S
C46 C41 1.501 . S
C46 H47 0.961 . S
C46 H48 0.961 . S
C46 H49 0.960 . S
H47 C46 0.961 . S
H48 C46 0.961 . S
H49 C46 0.960 . S
C50 N51 1.342 . S
C50 C54 1.401 . S
C50 C55 1.499 . S
N51 Co34 1.989 . S
N51 C50 1.342 . S
N51 N52 1.388 . S
N52 Co35 1.993 . S
N52 N51 1.388 . S
N52 C53 1.346 . S
C53 N52 1.346 . S
C53 C54 1.396 . S
C53 C63 1.510 . S
C54 C50 1.401 . S
C54 C53 1.396 . S
C55 C50 1.499 . S
C55 H56 0.959 . S
C55 H57 0.960 . S
C55 H58 0.961 . S
H56 C55 0.959 . S
H57 C55 0.960 . S
H58 C55 0.961 . S
O59 Co34 1.967 . S
O59 C67 1.258 . S
O60 Co35 1.941 . S
O60 C67 1.266 . S
H61 C63 0.959 . S
H62 C63 0.961 . S
C63 C53 1.510 . S
C63 H61 0.959 . S
C63 H62 0.961 . S
C63 H64 0.960 . S
H64 C63 0.960 . S
H65 N45 0.862 . S
O66 Co34 1.920 . S
O66 C39 1.289 . S
C67 O59 1.258 . S
C67 O60 1.266 . S
Co68 O71 1.970 . S
Co68 N85 1.989 . S
Co68 O93 1.967 . S
Co68 O100 1.920 . S
Co69 O72 1.966 . S
Co69 N78 2.022 . S
Co69 N86 1.993 . S
Co69 O94 1.941 . S
C70 O71 1.258 . S
C70 O72 1.263 . S
O71 Co68 1.970 . S
O71 C70 1.258 . S
O72 Co69 1.966 . S
O72 C70 1.263 . S
C73 O74 1.235 . S
C73 O100 1.289 . S
O74 C73 1.235 . S
C75 C77 1.400 . S
C75 N78 1.351 . S
C75 C80 1.501 . S
C76 C77 1.387 . S
C76 N79 1.341 . S
C77 C75 1.400 . S
C77 C76 1.387 . S
N78 Co69 2.022 . S
N78 C75 1.351 . S
N78 N79 1.365 . S
N79 C76 1.341 . S
N79 N78 1.365 . S
N79 H99 0.862 . S
C80 C75 1.501 . S
C80 H81 0.961 . S
C80 H82 0.961 . S
C80 H83 0.960 . S
H81 C80 0.961 . S
H82 C80 0.961 . S
H83 C80 0.960 . S
C84 N85 1.342 . S
C84 C88 1.401 . S
C84 C89 1.499 . S
N85 Co68 1.989 . S
N85 C84 1.342 . S
N85 N86 1.388 . S
N86 Co69 1.993 . S
N86 N85 1.388 . S
N86 C87 1.346 . S
C87 N86 1.346 . S
C87 C88 1.396 . S
C87 C97 1.510 . S
C88 C84 1.401 . S
C88 C87 1.396 . S
C89 C84 1.499 . S
C89 H90 0.959 . S
C89 H91 0.960 . S
C89 H92 0.961 . S
H90 C89 0.959 . S
H91 C89 0.960 . S
H92 C89 0.961 . S
O93 Co68 1.967 . S
O93 C101 1.258 . S
O94 Co69 1.941 . S
O94 C101 1.266 . S
H95 C97 0.959 . S
H96 C97 0.961 . S
C97 C87 1.510 . S
C97 H95 0.959 . S
C97 H96 0.961 . S
C97 H98 0.960 . S
H98 C97 0.960 . S
H99 N79 0.862 . S
O100 Co68 1.920 . S
O100 C73 1.289 . S
C101 O93 1.258 . S
C101 O94 1.266 . S
Co102 O105 1.970 . S
Co102 N119 1.989 . S
Co102 O127 1.967 . S
Co102 O134 1.920 . S
Co103 O106 1.966 . S
Co103 N112 2.022 1_554 S
Co103 N120 1.993 . S
Co103 O128 1.941 . S
C104 O105 1.258 . S
C104 O106 1.263 . S
O105 Co102 1.970 . S
O105 C104 1.258 . S
O106 Co103 1.966 . S
O106 C104 1.263 . S
C107 O108 1.235 . S
C107 O134 1.289 . S
O108 C107 1.235 . S
C109 C111 1.400 . S
C109 N112 1.351 . S
C109 C114 1.501 . S
C110 C111 1.387 . S
C110 N113 1.341 . S
C111 C109 1.400 . S
C111 C110 1.387 . S
N112 Co103 2.022 1_556 S
N112 C109 1.351 . S
N112 N113 1.365 . S
N113 C110 1.341 . S
N113 N112 1.365 . S
N113 H133 0.862 1_556 S
C114 C109 1.501 . S
C114 H115 0.961 . S
C114 H116 0.961 . S
C114 H117 0.960 . S
H115 C114 0.961 . S
H116 C114 0.961 . S
H117 C114 0.960 . S
C118 N119 1.342 . S
C118 C122 1.401 . S
C118 C123 1.499 . S
N119 Co102 1.989 . S
N119 C118 1.342 . S
N119 N120 1.388 . S
N120 Co103 1.993 . S
N120 N119 1.388 . S
N120 C121 1.346 . S
C121 N120 1.346 . S
C121 C122 1.396 . S
C121 C131 1.510 1_554 S
C122 C118 1.401 . S
C122 C121 1.396 . S
C123 C118 1.499 . S
C123 H124 0.959 . S
C123 H125 0.960 . S
C123 H126 0.961 . S
H124 C123 0.959 . S
H125 C123 0.960 . S
H126 C123 0.961 . S
O127 Co102 1.967 . S
O127 C135 1.258 . S
O128 Co103 1.941 . S
O128 C135 1.266 . S
H129 C131 0.959 . S
H130 C131 0.961 . S
C131 C121 1.510 1_556 S
C131 H129 0.959 . S
C131 H130 0.961 . S
C131 H132 0.960 . S
H132 C131 0.960 . S
H133 N113 0.862 1_554 S
O134 Co102 1.920 . S
O134 C107 1.289 . S
C135 O127 1.258 . S
C135 O128 1.266 . S
Co136 O139 1.970 . S
Co136 N153 1.989 . S
Co136 O161 1.967 . S
Co136 O168 1.920 . S
Co137 O140 1.966 . S
Co137 N146 2.022 . S
Co137 N154 1.993 . S
Co137 O162 1.941 . S
C138 O139 1.258 . S
C138 O140 1.263 . S
O139 Co136 1.970 . S
O139 C138 1.258 . S
O140 Co137 1.966 . S
O140 C138 1.263 . S
C141 O142 1.235 . S
C141 O168 1.289 . S
O142 C141 1.235 . S
C143 C145 1.400 . S
C143 N146 1.351 . S
C143 C148 1.501 . S
C144 C145 1.387 . S
C144 N147 1.341 . S
C145 C143 1.400 . S
C145 C144 1.387 . S
N146 Co137 2.022 . S
N146 C143 1.351 . S
N146 N147 1.365 . S
N147 C144 1.341 . S
N147 N146 1.365 . S
N147 H167 0.862 . S
C148 C143 1.501 . S
C148 H149 0.961 . S
C148 H150 0.961 . S
C148 H151 0.960 . S
H149 C148 0.961 . S
H150 C148 0.961 . S
H151 C148 0.960 . S
C152 N153 1.342 . S
C152 C156 1.401 . S
C152 C157 1.499 . S
N153 Co136 1.989 . S
N153 C152 1.342 . S
N153 N154 1.388 . S
N154 Co137 1.993 . S
N154 N153 1.388 . S
N154 C155 1.346 . S
C155 N154 1.346 . S
C155 C156 1.396 . S
C155 C165 1.510 . S
C156 C152 1.401 . S
C156 C155 1.396 . S
C157 C152 1.499 . S
C157 H158 0.959 . S
C157 H159 0.960 . S
C157 H160 0.961 . S
H158 C157 0.959 . S
H159 C157 0.960 . S
H160 C157 0.961 . S
O161 Co136 1.967 . S
O161 C169 1.258 . S
O162 Co137 1.941 . S
O162 C169 1.266 . S
H163 C165 0.959 . S
H164 C165 0.961 . S
C165 C155 1.510 . S
C165 H163 0.959 . S
C165 H164 0.961 . S
C165 H166 0.960 . S
H166 C165 0.960 . S
H167 N147 0.862 . S
O168 Co136 1.920 . S
O168 C141 1.289 . S
C169 O161 1.258 . S
C169 O162 1.266 . S
Co170 O173 1.970 . S
Co170 N187 1.989 . S
Co170 O195 1.967 . S
Co170 O202 1.920 . S
Co171 O174 1.966 . S
Co171 N180 2.022 . S
Co171 N188 1.993 . S
Co171 O196 1.941 . S
C172 O173 1.258 . S
C172 O174 1.263 . S
O173 Co170 1.970 . S
O173 C172 1.258 . S
O174 Co171 1.966 . S
O174 C172 1.263 . S
C175 O176 1.235 . S
C175 O202 1.289 . S
O176 C175 1.235 . S
C177 C179 1.400 . S
C177 N180 1.351 . S
C177 C182 1.501 . S
C178 C179 1.387 . S
C178 N181 1.341 . S
C179 C177 1.400 . S
C179 C178 1.387 . S
N180 Co171 2.022 . S
N180 C177 1.351 . S
N180 N181 1.365 . S
N181 C178 1.341 . S
N181 N180 1.365 . S
N181 H201 0.862 . S
C182 C177 1.501 . S
C182 H183 0.961 . S
C182 H184 0.961 . S
C182 H185 0.960 . S
H183 C182 0.961 . S
H184 C182 0.961 . S
H185 C182 0.960 . S
C186 N187 1.342 . S
C186 C190 1.401 . S
C186 C191 1.499 . S
N187 Co170 1.989 . S
N187 C186 1.342 . S
N187 N188 1.388 . S
N188 Co171 1.993 . S
N188 N187 1.388 . S
N188 C189 1.346 . S
C189 N188 1.346 . S
C189 C190 1.396 . S
C189 C199 1.510 . S
C190 C186 1.401 . S
C190 C189 1.396 . S
C191 C186 1.499 . S
C191 H192 0.959 . S
C191 H193 0.960 . S
C191 H194 0.961 . S
H192 C191 0.959 . S
H193 C191 0.960 . S
H194 C191 0.961 . S
O195 Co170 1.967 . S
O195 C203 1.258 . S
O196 Co171 1.941 . S
O196 C203 1.266 . S
H197 C199 0.959 . S
H198 C199 0.961 . S
C199 C189 1.510 . S
C199 H197 0.959 . S
C199 H198 0.961 . S
C199 H200 0.960 . S
H200 C199 0.960 . S
H201 N181 0.862 . S
O202 Co170 1.920 . S
O202 C175 1.289 . S
C203 O195 1.258 . S
C203 O196 1.266 . S
Co204 O207 1.970 . S
Co204 N221 1.989 . S
Co204 O229 1.967 . S
Co204 O236 1.920 . S
Co205 O208 1.966 . S
Co205 N214 2.022 . S
Co205 N222 1.993 . S
Co205 O230 1.941 . S
C206 O207 1.258 . S
C206 O208 1.263 . S
O207 Co204 1.970 . S
O207 C206 1.258 . S
O208 Co205 1.966 . S
O208 C206 1.263 . S
C209 O210 1.235 . S
C209 O236 1.289 . S
O210 C209 1.235 . S
C211 C213 1.400 . S
C211 N214 1.351 . S
C211 C216 1.501 . S
C212 C213 1.387 . S
C212 N215 1.341 . S
C213 C211 1.400 . S
C213 C212 1.387 . S
N214 Co205 2.022 . S
N214 C211 1.351 . S
N214 N215 1.365 . S
N215 C212 1.341 . S
N215 N214 1.365 . S
N215 H235 0.862 . S
C216 C211 1.501 . S
C216 H217 0.961 . S
C216 H218 0.961 . S
C216 H219 0.960 . S
H217 C216 0.961 . S
H218 C216 0.961 . S
H219 C216 0.960 . S
C220 N221 1.342 . S
C220 C224 1.401 . S
C220 C225 1.499 . S
N221 Co204 1.989 . S
N221 C220 1.342 . S
N221 N222 1.388 . S
N222 Co205 1.993 . S
N222 N221 1.388 . S
N222 C223 1.346 . S
C223 N222 1.346 . S
C223 C224 1.396 . S
C223 C233 1.510 . S
C224 C220 1.401 . S
C224 C223 1.396 . S
C225 C220 1.499 . S
C225 H226 0.959 . S
C225 H227 0.960 . S
C225 H228 0.961 . S
H226 C225 0.959 . S
H227 C225 0.960 . S
H228 C225 0.961 . S
O229 Co204 1.967 . S
O229 C237 1.258 . S
O230 Co205 1.941 . S
O230 C237 1.266 . S
H231 C233 0.959 . S
H232 C233 0.961 . S
C233 C223 1.510 . S
C233 H231 0.959 . S
C233 H232 0.961 . S
C233 H234 0.960 . S
H234 C233 0.960 . S
H235 N215 0.862 . S
O236 Co204 1.920 . S
O236 C209 1.289 . S
C237 O229 1.258 . S
C237 O230 1.266 . S
Co238 O241 1.970 . S
Co238 N255 1.989 . S
Co238 O263 1.967 . S
Co238 O270 1.920 . S
Co239 O242 1.966 . S
Co239 N248 2.022 1_556 S
Co239 N256 1.993 . S
Co239 O264 1.941 . S
C240 O241 1.258 . S
C240 O242 1.263 . S
O241 Co238 1.970 . S
O241 C240 1.258 . S
O242 Co239 1.966 . S
O242 C240 1.263 . S
C243 O244 1.235 1_455 S
C243 O270 1.289 . S
O244 C243 1.235 1_655 S
C245 C247 1.400 . S
C245 N248 1.351 . S
C245 C250 1.501 . S
C246 C247 1.387 . S
C246 N249 1.341 . S
C247 C245 1.400 . S
C247 C246 1.387 . S
N248 Co239 2.022 1_554 S
N248 C245 1.351 . S
N248 N249 1.365 . S
N249 C246 1.341 . S
N249 N248 1.365 . S
N249 H269 0.862 1_554 S
C250 C245 1.501 . S
C250 H251 0.961 . S
C250 H252 0.961 . S
C250 H253 0.960 . S
H251 C250 0.961 . S
H252 C250 0.961 . S
H253 C250 0.960 . S
C254 N255 1.342 . S
C254 C258 1.401 . S
C254 C259 1.499 . S
N255 Co238 1.989 . S
N255 C254 1.342 . S
N255 N256 1.388 . S
N256 Co239 1.993 . S
N256 N255 1.388 . S
N256 C257 1.346 . S
C257 N256 1.346 . S
C257 C258 1.396 . S
C257 C267 1.510 1_556 S
C258 C254 1.401 . S
C258 C257 1.396 . S
C259 C254 1.499 . S
C259 H260 0.959 . S
C259 H261 0.960 . S
C259 H262 0.961 . S
H260 C259 0.959 . S
H261 C259 0.960 . S
H262 C259 0.961 . S
O263 Co238 1.967 . S
O263 C271 1.258 . S
O264 Co239 1.941 . S
O264 C271 1.266 . S
H265 C267 0.959 . S
H266 C267 0.961 . S
C267 C257 1.510 1_554 S
C267 H265 0.959 . S
C267 H266 0.961 . S
C267 H268 0.960 . S
H268 C267 0.960 . S
H269 N249 0.862 1_556 S
O270 Co238 1.920 . S
O270 C243 1.289 . S
C271 O263 1.258 . S
C271 O264 1.266 . S
Co272 O275 1.970 . S
Co272 N289 1.989 . S
Co272 O297 1.967 . S
Co272 O304 1.920 . S
Co273 O276 1.966 . S
Co273 N282 2.022 . S
Co273 N290 1.993 . S
Co273 O298 1.941 . S
C274 O275 1.258 . S
C274 O276 1.263 . S
O275 Co272 1.970 . S
O275 C274 1.258 . S
O276 Co273 1.966 . S
O276 C274 1.263 . S
C277 O278 1.235 . S
C277 O304 1.289 . S
O278 C277 1.235 . S
C279 C281 1.400 . S
C279 N282 1.351 . S
C279 C284 1.501 . S
C280 C281 1.387 . S
C280 N283 1.341 . S
C281 C279 1.400 . S
C281 C280 1.387 . S
N282 Co273 2.022 . S
N282 C279 1.351 . S
N282 N283 1.365 . S
N283 C280 1.341 . S
N283 N282 1.365 . S
N283 H303 0.862 . S
C284 C279 1.501 . S
C284 H285 0.961 . S
C284 H286 0.961 . S
C284 H287 0.960 . S
H285 C284 0.961 . S
H286 C284 0.961 . S
H287 C284 0.960 . S
C288 N289 1.342 . S
C288 C292 1.401 . S
C288 C293 1.499 . S
N289 Co272 1.989 . S
N289 C288 1.342 . S
N289 N290 1.388 . S
N290 Co273 1.993 . S
N290 N289 1.388 . S
N290 C291 1.346 . S
C291 N290 1.346 . S
C291 C292 1.396 . S
C291 C301 1.510 . S
C292 C288 1.401 . S
C292 C291 1.396 . S
C293 C288 1.499 . S
C293 H294 0.959 . S
C293 H295 0.960 . S
C293 H296 0.961 . S
H294 C293 0.959 . S
H295 C293 0.960 . S
H296 C293 0.961 . S
O297 Co272 1.967 . S
O297 C305 1.258 . S
O298 Co273 1.941 . S
O298 C305 1.266 . S
H299 C301 0.959 . S
H300 C301 0.961 . S
C301 C291 1.510 . S
C301 H299 0.959 . S
C301 H300 0.961 . S
C301 H302 0.960 . S
H302 C301 0.960 . S
H303 N283 0.862 . S
O304 Co272 1.920 . S
O304 C277 1.289 . S
C305 O297 1.258 . S
C305 O298 1.266 . S
Co306 O309 1.970 . S
Co306 N323 1.989 . S
Co306 O331 1.967 . S
Co306 O338 1.920 . S
Co307 O310 1.966 . S
Co307 N316 2.022 . S
Co307 N324 1.993 . S
Co307 O332 1.941 . S
C308 O309 1.258 . S
C308 O310 1.263 . S
O309 Co306 1.970 . S
O309 C308 1.258 . S
O310 Co307 1.966 . S
O310 C308 1.263 . S
C311 O312 1.235 1_655 S
C311 O338 1.289 . S
O312 C311 1.235 1_455 S
C313 C315 1.400 . S
C313 N316 1.351 . S
C313 C318 1.501 . S
C314 C315 1.387 . S
C314 N317 1.341 . S
C315 C313 1.400 . S
C315 C314 1.387 . S
N316 Co307 2.022 . S
N316 C313 1.351 . S
N316 N317 1.365 . S
N317 C314 1.341 . S
N317 N316 1.365 . S
N317 H337 0.862 . S
C318 C313 1.501 . S
C318 H319 0.961 . S
C318 H320 0.961 . S
C318 H321 0.960 . S
H319 C318 0.961 . S
H320 C318 0.961 . S
H321 C318 0.960 . S
C322 N323 1.342 . S
C322 C326 1.401 . S
C322 C327 1.499 . S
N323 Co306 1.989 . S
N323 C322 1.342 . S
N323 N324 1.388 . S
N324 Co307 1.993 . S
N324 N323 1.388 . S
N324 C325 1.346 . S
C325 N324 1.346 . S
C325 C326 1.396 . S
C325 C335 1.510 . S
C326 C322 1.401 . S
C326 C325 1.396 . S
C327 C322 1.499 . S
C327 H328 0.959 . S
C327 H329 0.960 . S
C327 H330 0.961 . S
H328 C327 0.959 . S
H329 C327 0.960 . S
H330 C327 0.961 . S
O331 Co306 1.967 . S
O331 C339 1.258 . S
O332 Co307 1.941 . S
O332 C339 1.266 . S
H333 C335 0.959 . S
H334 C335 0.961 . S
C335 C325 1.510 . S
C335 H333 0.959 . S
C335 H334 0.961 . S
C335 H336 0.960 . S
H336 C335 0.960 . S
H337 N317 0.862 . S
O338 Co306 1.920 . S
O338 C311 1.289 . S
C339 O331 1.258 . S
C339 O332 1.266 . S
Co340 O343 1.970 . S
Co340 N357 1.989 . S
Co340 O365 1.967 . S
Co340 O372 1.920 . S
Co341 O344 1.966 . S
Co341 N350 2.022 . S
Co341 N358 1.993 . S
Co341 O366 1.941 . S
C342 O343 1.258 . S
C342 O344 1.263 . S
O343 Co340 1.970 . S
O343 C342 1.258 . S
O344 Co341 1.966 . S
O344 C342 1.263 . S
C345 O346 1.235 . S
C345 O372 1.289 . S
O346 C345 1.235 . S
C347 C349 1.400 . S
C347 N350 1.351 . S
C347 C352 1.501 . S
C348 C349 1.387 . S
C348 N351 1.341 . S
C349 C347 1.400 . S
C349 C348 1.387 . S
N350 Co341 2.022 . S
N350 C347 1.351 . S
N350 N351 1.365 . S
N351 C348 1.341 . S
N351 N350 1.365 . S
N351 H371 0.862 . S
C352 C347 1.501 . S
C352 H353 0.961 . S
C352 H354 0.961 . S
C352 H355 0.960 . S
H353 C352 0.961 . S
H354 C352 0.961 . S
H355 C352 0.960 . S
C356 N357 1.342 . S
C356 C360 1.401 . S
C356 C361 1.499 . S
N357 Co340 1.989 . S
N357 C356 1.342 . S
N357 N358 1.388 . S
N358 Co341 1.993 . S
N358 N357 1.388 . S
N358 C359 1.346 . S
C359 N358 1.346 . S
C359 C360 1.396 . S
C359 C369 1.510 . S
C360 C356 1.401 . S
C360 C359 1.396 . S
C361 C356 1.499 . S
C361 H362 0.959 . S
C361 H363 0.960 . S
C361 H364 0.961 . S
H362 C361 0.959 . S
H363 C361 0.960 . S
H364 C361 0.961 . S
O365 Co340 1.967 . S
O365 C373 1.258 . S
O366 Co341 1.941 . S
O366 C373 1.266 . S
H367 C369 0.959 . S
H368 C369 0.961 . S
C369 C359 1.510 . S
C369 H367 0.959 . S
C369 H368 0.961 . S
C369 H370 0.960 . S
H370 C369 0.960 . S
H371 N351 0.862 . S
O372 Co340 1.920 . S
O372 C345 1.289 . S
C373 O365 1.258 . S
C373 O366 1.266 . S
Co374 O377 1.970 . S
Co374 N391 1.989 . S
Co374 O399 1.967 . S
Co374 O406 1.920 . S
Co375 O378 1.966 . S
Co375 N384 2.022 1_556 S
Co375 N392 1.993 . S
Co375 O400 1.941 . S
C376 O377 1.258 . S
C376 O378 1.263 . S
O377 Co374 1.970 . S
O377 C376 1.258 . S
O378 Co375 1.966 . S
O378 C376 1.263 . S
C379 O380 1.235 . S
C379 O406 1.289 . S
O380 C379 1.235 . S
C381 C383 1.400 . S
C381 N384 1.351 . S
C381 C386 1.501 . S
C382 C383 1.387 . S
C382 N385 1.341 . S
C383 C381 1.400 . S
C383 C382 1.387 . S
N384 Co375 2.022 1_554 S
N384 C381 1.351 . S
N384 N385 1.365 . S
N385 C382 1.341 . S
N385 N384 1.365 . S
N385 H405 0.862 1_554 S
C386 C381 1.501 . S
C386 H387 0.961 . S
C386 H388 0.961 . S
C386 H389 0.960 . S
H387 C386 0.961 . S
H388 C386 0.961 . S
H389 C386 0.960 . S
C390 N391 1.342 . S
C390 C394 1.401 . S
C390 C395 1.499 . S
N391 Co374 1.989 . S
N391 C390 1.342 . S
N391 N392 1.388 . S
N392 Co375 1.993 . S
N392 N391 1.388 . S
N392 C393 1.346 . S
C393 N392 1.346 . S
C393 C394 1.396 . S
C393 C403 1.510 1_556 S
C394 C390 1.401 . S
C394 C393 1.396 . S
C395 C390 1.499 . S
C395 H396 0.959 . S
C395 H397 0.960 . S
C395 H398 0.961 . S
H396 C395 0.959 . S
H397 C395 0.960 . S
H398 C395 0.961 . S
O399 Co374 1.967 . S
O399 C407 1.258 . S
O400 Co375 1.941 . S
O400 C407 1.266 . S
H401 C403 0.959 . S
H402 C403 0.961 . S
C403 C393 1.510 1_554 S
C403 H401 0.959 . S
C403 H402 0.961 . S
C403 H404 0.960 . S
H404 C403 0.960 . S
H405 N385 0.862 1_556 S
O406 Co374 1.920 . S
O406 C379 1.289 . S
C407 O399 1.258 . S
C407 O400 1.266 . S
Co408 O411 1.970 . S
Co408 N425 1.989 . S
Co408 O433 1.967 . S
Co408 O440 1.920 . S
Co409 O412 1.966 . S
Co409 N418 2.022 . S
Co409 N426 1.993 . S
Co409 O434 1.941 . S
C410 O411 1.258 . S
C410 O412 1.263 . S
O411 Co408 1.970 . S
O411 C410 1.258 . S
O412 Co409 1.966 . S
O412 C410 1.263 . S
C413 O414 1.235 . S
C413 O440 1.289 . S
O414 C413 1.235 . S
C415 C417 1.400 . S
C415 N418 1.351 . S
C415 C420 1.501 . S
C416 C417 1.387 . S
C416 N419 1.341 . S
C417 C415 1.400 . S
C417 C416 1.387 . S
N418 Co409 2.022 . S
N418 C415 1.351 . S
N418 N419 1.365 . S
N419 C416 1.341 . S
N419 N418 1.365 . S
N419 H439 0.862 . S
C420 C415 1.501 . S
C420 H421 0.961 . S
C420 H422 0.961 . S
C420 H423 0.960 . S
H421 C420 0.961 . S
H422 C420 0.961 . S
H423 C420 0.960 . S
C424 N425 1.342 . S
C424 C428 1.401 . S
C424 C429 1.499 . S
N425 Co408 1.989 . S
N425 C424 1.342 . S
N425 N426 1.388 . S
N426 Co409 1.993 . S
N426 N425 1.388 . S
N426 C427 1.346 . S
C427 N426 1.346 . S
C427 C428 1.396 . S
C427 C437 1.510 . S
C428 C424 1.401 . S
C428 C427 1.396 . S
C429 C424 1.499 . S
C429 H430 0.959 . S
C429 H431 0.960 . S
C429 H432 0.961 . S
H430 C429 0.959 . S
H431 C429 0.960 . S
H432 C429 0.961 . S
O433 Co408 1.967 . S
O433 C441 1.258 . S
O434 Co409 1.941 . S
O434 C441 1.266 . S
H435 C437 0.959 . S
H436 C437 0.961 . S
C437 C427 1.510 . S
C437 H435 0.959 . S
C437 H436 0.961 . S
C437 H438 0.960 . S
H438 C437 0.960 . S
H439 N419 0.862 . S
O440 Co408 1.920 . S
O440 C413 1.289 . S
C441 O433 1.258 . S
C441 O434 1.266 . S
Co442 O445 1.970 . S
Co442 N459 1.989 . S
Co442 O467 1.967 . S
Co442 O474 1.920 . S
Co443 O446 1.966 . S
Co443 N452 2.022 . S
Co443 N460 1.993 . S
Co443 O468 1.941 . S
C444 O445 1.258 . S
C444 O446 1.263 . S
O445 Co442 1.970 . S
O445 C444 1.258 . S
O446 Co443 1.966 . S
O446 C444 1.263 . S
C447 O448 1.235 . S
C447 O474 1.289 . S
O448 C447 1.235 . S
C449 C451 1.400 . S
C449 N452 1.351 . S
C449 C454 1.501 . S
C450 C451 1.387 . S
C450 N453 1.341 . S
C451 C449 1.400 . S
C451 C450 1.387 . S
N452 Co443 2.022 . S
N452 C449 1.351 . S
N452 N453 1.365 . S
N453 C450 1.341 . S
N453 N452 1.365 . S
N453 H473 0.862 . S
C454 C449 1.501 . S
C454 H455 0.961 . S
C454 H456 0.961 . S
C454 H457 0.960 . S
H455 C454 0.961 . S
H456 C454 0.961 . S
H457 C454 0.960 . S
C458 N459 1.342 . S
C458 C462 1.401 . S
C458 C463 1.499 . S
N459 Co442 1.989 . S
N459 C458 1.342 . S
N459 N460 1.388 . S
N460 Co443 1.993 . S
N460 N459 1.388 . S
N460 C461 1.346 . S
C461 N460 1.346 . S
C461 C462 1.396 . S
C461 C471 1.510 . S
C462 C458 1.401 . S
C462 C461 1.396 . S
C463 C458 1.499 . S
C463 H464 0.959 . S
C463 H465 0.960 . S
C463 H466 0.961 . S
H464 C463 0.959 . S
H465 C463 0.960 . S
H466 C463 0.961 . S
O467 Co442 1.967 . S
O467 C475 1.258 . S
O468 Co443 1.941 . S
O468 C475 1.266 . S
H469 C471 0.959 . S
H470 C471 0.961 . S
C471 C461 1.510 . S
C471 H469 0.959 . S
C471 H470 0.961 . S
C471 H472 0.960 . S
H472 C471 0.960 . S
H473 N453 0.862 . S
O474 Co442 1.920 . S
O474 C447 1.289 . S
C475 O467 1.258 . S
C475 O468 1.266 . S
Co476 O479 1.970 . S
Co476 N493 1.989 . S
Co476 O501 1.967 . S
Co476 O508 1.920 . S
Co477 O480 1.966 . S
Co477 N486 2.022 . S
Co477 N494 1.993 . S
Co477 O502 1.941 . S
C478 O479 1.258 . S
C478 O480 1.263 . S
O479 Co476 1.970 . S
O479 C478 1.258 . S
O480 Co477 1.966 . S
O480 C478 1.263 . S
C481 O482 1.235 . S
C481 O508 1.289 . S
O482 C481 1.235 . S
C483 C485 1.400 . S
C483 N486 1.351 . S
C483 C488 1.501 . S
C484 C485 1.387 . S
C484 N487 1.341 . S
C485 C483 1.400 . S
C485 C484 1.387 . S
N486 Co477 2.022 . S
N486 C483 1.351 . S
N486 N487 1.365 . S
N487 C484 1.341 . S
N487 N486 1.365 . S
N487 H507 0.862 . S
C488 C483 1.501 . S
C488 H489 0.961 . S
C488 H490 0.961 . S
C488 H491 0.960 . S
H489 C488 0.961 . S
H490 C488 0.961 . S
H491 C488 0.960 . S
C492 N493 1.342 . S
C492 C496 1.401 . S
C492 C497 1.499 . S
N493 Co476 1.989 . S
N493 C492 1.342 . S
N493 N494 1.388 . S
N494 Co477 1.993 . S
N494 N493 1.388 . S
N494 C495 1.346 . S
C495 N494 1.346 . S
C495 C496 1.396 . S
C495 C505 1.510 . S
C496 C492 1.401 . S
C496 C495 1.396 . S
C497 C492 1.499 . S
C497 H498 0.959 . S
C497 H499 0.960 . S
C497 H500 0.961 . S
H498 C497 0.959 . S
H499 C497 0.960 . S
H500 C497 0.961 . S
O501 Co476 1.967 . S
O501 C509 1.258 . S
O502 Co477 1.941 . S
O502 C509 1.266 . S
H503 C505 0.959 . S
H504 C505 0.961 . S
C505 C495 1.510 . S
C505 H503 0.959 . S
C505 H504 0.961 . S
C505 H506 0.960 . S
H506 C505 0.960 . S
H507 N487 0.862 . S
O508 Co476 1.920 . S
O508 C481 1.289 . S
C509 O501 1.258 . S
C509 O502 1.266 . S
Co510 O513 1.970 . S
Co510 N527 1.989 . S
Co510 O535 1.967 . S
Co510 O542 1.920 . S
Co511 O514 1.966 . S
Co511 N520 2.022 1_554 S
Co511 N528 1.993 . S
Co511 O536 1.941 . S
C512 O513 1.258 . S
C512 O514 1.263 . S
O513 Co510 1.970 . S
O513 C512 1.258 . S
O514 Co511 1.966 . S
O514 C512 1.263 . S
C515 O516 1.235 1_655 S
C515 O542 1.289 . S
O516 C515 1.235 1_455 S
C517 C519 1.400 . S
C517 N520 1.351 . S
C517 C522 1.501 . S
C518 C519 1.387 . S
C518 N521 1.341 . S
C519 C517 1.400 . S
C519 C518 1.387 . S
N520 Co511 2.022 1_556 S
N520 C517 1.351 . S
N520 N521 1.365 . S
N521 C518 1.341 . S
N521 N520 1.365 . S
N521 H541 0.862 1_556 S
C522 C517 1.501 . S
C522 H523 0.961 . S
C522 H524 0.961 . S
C522 H525 0.960 . S
H523 C522 0.961 . S
H524 C522 0.961 . S
H525 C522 0.960 . S
C526 N527 1.342 . S
C526 C530 1.401 . S
C526 C531 1.499 . S
N527 Co510 1.989 . S
N527 C526 1.342 . S
N527 N528 1.388 . S
N528 Co511 1.993 . S
N528 N527 1.388 . S
N528 C529 1.346 . S
C529 N528 1.346 . S
C529 C530 1.396 . S
C529 C539 1.510 1_554 S
C530 C526 1.401 . S
C530 C529 1.396 . S
C531 C526 1.499 . S
C531 H532 0.959 . S
C531 H533 0.960 . S
C531 H534 0.961 . S
H532 C531 0.959 . S
H533 C531 0.960 . S
H534 C531 0.961 . S
O535 Co510 1.967 . S
O535 C543 1.258 . S
O536 Co511 1.941 . S
O536 C543 1.266 . S
H537 C539 0.959 . S
H538 C539 0.961 . S
C539 C529 1.510 1_556 S
C539 H537 0.959 . S
C539 H538 0.961 . S
C539 H540 0.960 . S
H540 C539 0.960 . S
H541 N521 0.862 1_554 S
O542 Co510 1.920 . S
O542 C515 1.289 . S
C543 O535 1.258 . S
C543 O536 1.266 . S
Co544 O547 1.970 . S
Co544 N561 1.989 . S
Co544 O569 1.967 . S
Co544 O576 1.920 . S
Co545 O548 1.966 . S
Co545 N554 2.022 . S
Co545 N562 1.993 . S
Co545 O570 1.941 . S
C546 O547 1.258 . S
C546 O548 1.263 . S
O547 Co544 1.970 . S
O547 C546 1.258 . S
O548 Co545 1.966 . S
O548 C546 1.263 . S
C549 O550 1.235 . S
C549 O576 1.289 . S
O550 C549 1.235 . S
C551 C553 1.400 . S
C551 N554 1.351 . S
C551 C556 1.501 . S
C552 C553 1.387 . S
C552 N555 1.341 . S
C553 C551 1.400 . S
C553 C552 1.387 . S
N554 Co545 2.022 . S
N554 C551 1.351 . S
N554 N555 1.365 . S
N555 C552 1.341 . S
N555 N554 1.365 . S
N555 H575 0.862 . S
C556 C551 1.501 . S
C556 H557 0.961 . S
C556 H558 0.961 . S
C556 H559 0.960 . S
H557 C556 0.961 . S
H558 C556 0.961 . S
H559 C556 0.960 . S
C560 N561 1.342 . S
C560 C564 1.401 . S
C560 C565 1.499 . S
N561 Co544 1.989 . S
N561 C560 1.342 . S
N561 N562 1.388 . S
N562 Co545 1.993 . S
N562 N561 1.388 . S
N562 C563 1.346 . S
C563 N562 1.346 . S
C563 C564 1.396 . S
C563 C573 1.510 . S
C564 C560 1.401 . S
C564 C563 1.396 . S
C565 C560 1.499 . S
C565 H566 0.959 . S
C565 H567 0.960 . S
C565 H568 0.961 . S
H566 C565 0.959 . S
H567 C565 0.960 . S
H568 C565 0.961 . S
O569 Co544 1.967 . S
O569 C577 1.258 . S
O570 Co545 1.941 . S
O570 C577 1.266 . S
H571 C573 0.959 . S
H572 C573 0.961 . S
C573 C563 1.510 . S
C573 H571 0.959 . S
C573 H572 0.961 . S
C573 H574 0.960 . S
H574 C573 0.960 . S
H575 N555 0.862 . S
O576 Co544 1.920 . S
O576 C549 1.289 . S
C577 O569 1.258 . S
C577 O570 1.266 . S
Co578 O581 1.970 . S
Co578 N595 1.989 . S
Co578 O603 1.967 . S
Co578 O610 1.920 . S
Co579 O582 1.966 . S
Co579 N588 2.022 1_554 S
Co579 N596 1.993 . S
Co579 O604 1.941 . S
C580 O581 1.258 . S
C580 O582 1.263 . S
O581 Co578 1.970 . S
O581 C580 1.258 . S
O582 Co579 1.966 . S
O582 C580 1.263 . S
C583 O584 1.235 . S
C583 O610 1.289 . S
O584 C583 1.235 . S
C585 C587 1.400 . S
C585 N588 1.351 . S
C585 C590 1.501 . S
C586 C587 1.387 . S
C586 N589 1.341 . S
C587 C585 1.400 . S
C587 C586 1.387 . S
N588 Co579 2.022 1_556 S
N588 C585 1.351 . S
N588 N589 1.365 . S
N589 C586 1.341 . S
N589 N588 1.365 . S
N589 H609 0.862 1_556 S
C590 C585 1.501 . S
C590 H591 0.961 . S
C590 H592 0.961 . S
C590 H593 0.960 . S
H591 C590 0.961 . S
H592 C590 0.961 . S
H593 C590 0.960 . S
C594 N595 1.342 . S
C594 C598 1.401 . S
C594 C599 1.499 . S
N595 Co578 1.989 . S
N595 C594 1.342 . S
N595 N596 1.388 . S
N596 Co579 1.993 . S
N596 N595 1.388 . S
N596 C597 1.346 . S
C597 N596 1.346 . S
C597 C598 1.396 . S
C597 C607 1.510 1_554 S
C598 C594 1.401 . S
C598 C597 1.396 . S
C599 C594 1.499 . S
C599 H600 0.959 . S
C599 H601 0.960 . S
C599 H602 0.961 . S
H600 C599 0.959 . S
H601 C599 0.960 . S
H602 C599 0.961 . S
O603 Co578 1.967 . S
O603 C611 1.258 . S
O604 Co579 1.941 . S
O604 C611 1.266 . S
H605 C607 0.959 . S
H606 C607 0.961 . S
C607 C597 1.510 1_556 S
C607 H605 0.959 . S
C607 H606 0.961 . S
C607 H608 0.960 . S
H608 C607 0.960 . S
H609 N589 0.862 1_554 S
O610 Co578 1.920 . S
O610 C583 1.289 . S
C611 O603 1.258 . S
C611 O604 1.266 . S
Co612 O615 1.970 . S
Co612 N629 1.989 . S
Co612 O637 1.967 . S
Co612 O644 1.920 . S
Co613 O616 1.966 . S
Co613 N622 2.022 . S
Co613 N630 1.993 . S
Co613 O638 1.941 . S
C614 O615 1.258 . S
C614 O616 1.263 . S
O615 Co612 1.970 . S
O615 C614 1.258 . S
O616 Co613 1.966 . S
O616 C614 1.263 . S
C617 O618 1.235 . S
C617 O644 1.289 . S
O618 C617 1.235 . S
C619 C621 1.400 . S
C619 N622 1.351 . S
C619 C624 1.501 . S
C620 C621 1.387 . S
C620 N623 1.341 . S
C621 C619 1.400 . S
C621 C620 1.387 . S
N622 Co613 2.022 . S
N622 C619 1.351 . S
N622 N623 1.365 . S
N623 C620 1.341 . S
N623 N622 1.365 . S
N623 H643 0.862 . S
C624 C619 1.501 . S
C624 H625 0.961 . S
C624 H626 0.961 . S
C624 H627 0.960 . S
H625 C624 0.961 . S
H626 C624 0.961 . S
H627 C624 0.960 . S
C628 N629 1.342 . S
C628 C632 1.401 . S
C628 C633 1.499 . S
N629 Co612 1.989 . S
N629 C628 1.342 . S
N629 N630 1.388 . S
N630 Co613 1.993 . S
N630 N629 1.388 . S
N630 C631 1.346 . S
C631 N630 1.346 . S
C631 C632 1.396 . S
C631 C641 1.510 . S
C632 C628 1.401 . S
C632 C631 1.396 . S
C633 C628 1.499 . S
C633 H634 0.959 . S
C633 H635 0.960 . S
C633 H636 0.961 . S
H634 C633 0.959 . S
H635 C633 0.960 . S
H636 C633 0.961 . S
O637 Co612 1.967 . S
O637 C645 1.258 . S
O638 Co613 1.941 . S
O638 C645 1.266 . S
H639 C641 0.959 . S
H640 C641 0.961 . S
C641 C631 1.510 . S
C641 H639 0.959 . S
C641 H640 0.961 . S
C641 H642 0.960 . S
H642 C641 0.960 . S
H643 N623 0.862 . S
O644 Co612 1.920 . S
O644 C617 1.289 . S
C645 O637 1.258 . S
C645 O638 1.266 . S
Co646 O649 1.970 . S
Co646 N663 1.989 . S
Co646 O671 1.967 . S
Co646 O678 1.920 . S
Co647 O650 1.966 . S
Co647 N656 2.022 . S
Co647 N664 1.993 . S
Co647 O672 1.941 . S
C648 O649 1.258 . S
C648 O650 1.263 . S
O649 Co646 1.970 . S
O649 C648 1.258 . S
O650 Co647 1.966 . S
O650 C648 1.263 . S
C651 O652 1.235 1_655 S
C651 O678 1.289 . S
O652 C651 1.235 1_455 S
C653 C655 1.400 . S
C653 N656 1.351 . S
C653 C658 1.501 . S
C654 C655 1.387 . S
C654 N657 1.341 . S
C655 C653 1.400 . S
C655 C654 1.387 . S
N656 Co647 2.022 . S
N656 C653 1.351 . S
N656 N657 1.365 . S
N657 C654 1.341 . S
N657 N656 1.365 . S
N657 H677 0.862 . S
C658 C653 1.501 . S
C658 H659 0.961 . S
C658 H660 0.961 . S
C658 H661 0.960 . S
H659 C658 0.961 . S
H660 C658 0.961 . S
H661 C658 0.960 . S
C662 N663 1.342 . S
C662 C666 1.401 . S
C662 C667 1.499 . S
N663 Co646 1.989 . S
N663 C662 1.342 . S
N663 N664 1.388 . S
N664 Co647 1.993 . S
N664 N663 1.388 . S
N664 C665 1.346 . S
C665 N664 1.346 . S
C665 C666 1.396 . S
C665 C675 1.510 . S
C666 C662 1.401 . S
C666 C665 1.396 . S
C667 C662 1.499 . S
C667 H668 0.959 . S
C667 H669 0.960 . S
C667 H670 0.961 . S
H668 C667 0.959 . S
H669 C667 0.960 . S
H670 C667 0.961 . S
O671 Co646 1.967 . S
O671 C679 1.258 . S
O672 Co647 1.941 . S
O672 C679 1.266 . S
H673 C675 0.959 . S
H674 C675 0.961 . S
C675 C665 1.510 . S
C675 H673 0.959 . S
C675 H674 0.961 . S
C675 H676 0.960 . S
H676 C675 0.960 . S
H677 N657 0.862 . S
O678 Co646 1.920 . S
O678 C651 1.289 . S
C679 O671 1.258 . S
C679 O672 1.266 . S
Co680 O683 1.970 . S
Co680 N697 1.989 . S
Co680 O705 1.967 . S
Co680 O712 1.920 . S
Co681 O684 1.966 . S
Co681 N690 2.022 . S
Co681 N698 1.993 . S
Co681 O706 1.941 . S
C682 O683 1.258 . S
C682 O684 1.263 . S
O683 Co680 1.970 . S
O683 C682 1.258 . S
O684 Co681 1.966 . S
O684 C682 1.263 . S
C685 O686 1.235 . S
C685 O712 1.289 . S
O686 C685 1.235 . S
C687 C689 1.400 . S
C687 N690 1.351 . S
C687 C692 1.501 . S
C688 C689 1.387 . S
C688 N691 1.341 . S
C689 C687 1.400 . S
C689 C688 1.387 . S
N690 Co681 2.022 . S
N690 C687 1.351 . S
N690 N691 1.365 . S
N691 C688 1.341 . S
N691 N690 1.365 . S
N691 H711 0.862 . S
C692 C687 1.501 . S
C692 H693 0.961 . S
C692 H694 0.961 . S
C692 H695 0.960 . S
H693 C692 0.961 . S
H694 C692 0.961 . S
H695 C692 0.960 . S
C696 N697 1.342 . S
C696 C700 1.401 . S
C696 C701 1.499 . S
N697 Co680 1.989 . S
N697 C696 1.342 . S
N697 N698 1.388 . S
N698 Co681 1.993 . S
N698 N697 1.388 . S
N698 C699 1.346 . S
C699 N698 1.346 . S
C699 C700 1.396 . S
C699 C709 1.510 . S
C700 C696 1.401 . S
C700 C699 1.396 . S
C701 C696 1.499 . S
C701 H702 0.959 . S
C701 H703 0.960 . S
C701 H704 0.961 . S
H702 C701 0.959 . S
H703 C701 0.960 . S
H704 C701 0.961 . S
O705 Co680 1.967 . S
O705 C713 1.258 . S
O706 Co681 1.941 . S
O706 C713 1.266 . S
H707 C709 0.959 . S
H708 C709 0.961 . S
C709 C699 1.510 . S
C709 H707 0.959 . S
C709 H708 0.961 . S
C709 H710 0.960 . S
H710 C709 0.960 . S
H711 N691 0.862 . S
O712 Co680 1.920 . S
O712 C685 1.289 . S
C713 O705 1.258 . S
C713 O706 1.266 . S
Co714 O717 1.970 . S
Co714 N731 1.989 . S
Co714 O739 1.967 . S
Co714 O746 1.920 . S
Co715 O718 1.966 . S
Co715 N724 2.022 1_556 S
Co715 N732 1.993 . S
Co715 O740 1.941 . S
C716 O717 1.258 . S
C716 O718 1.263 . S
O717 Co714 1.970 . S
O717 C716 1.258 . S
O718 Co715 1.966 . S
O718 C716 1.263 . S
C719 O720 1.235 1_655 S
C719 O746 1.289 . S
O720 C719 1.235 1_455 S
C721 C723 1.400 . S
C721 N724 1.351 . S
C721 C726 1.501 . S
C722 C723 1.387 . S
C722 N725 1.341 . S
C723 C721 1.400 . S
C723 C722 1.387 . S
N724 Co715 2.022 1_554 S
N724 C721 1.351 . S
N724 N725 1.365 . S
N725 C722 1.341 . S
N725 N724 1.365 . S
N725 H745 0.862 1_554 S
C726 C721 1.501 . S
C726 H727 0.961 . S
C726 H728 0.961 . S
C726 H729 0.960 . S
H727 C726 0.961 . S
H728 C726 0.961 . S
H729 C726 0.960 . S
C730 N731 1.342 . S
C730 C734 1.401 . S
C730 C735 1.499 . S
N731 Co714 1.989 . S
N731 C730 1.342 . S
N731 N732 1.388 . S
N732 Co715 1.993 . S
N732 N731 1.388 . S
N732 C733 1.346 . S
C733 N732 1.346 . S
C733 C734 1.396 . S
C733 C743 1.510 1_556 S
C734 C730 1.401 . S
C734 C733 1.396 . S
C735 C730 1.499 . S
C735 H736 0.959 . S
C735 H737 0.960 . S
C735 H738 0.961 . S
H736 C735 0.959 . S
H737 C735 0.960 . S
H738 C735 0.961 . S
O739 Co714 1.967 . S
O739 C747 1.258 . S
O740 Co715 1.941 . S
O740 C747 1.266 . S
H741 C743 0.959 . S
H742 C743 0.961 . S
C743 C733 1.510 1_554 S
C743 H741 0.959 . S
C743 H742 0.961 . S
C743 H744 0.960 . S
H744 C743 0.960 . S
H745 N725 0.862 1_556 S
O746 Co714 1.920 . S
O746 C719 1.289 . S
C747 O739 1.258 . S
C747 O740 1.266 . S
Co748 O751 1.970 . S
Co748 N765 1.989 . S
Co748 O773 1.967 . S
Co748 O780 1.920 . S
Co749 O752 1.966 . S
Co749 N758 2.022 . S
Co749 N766 1.993 . S
Co749 O774 1.941 . S
C750 O751 1.258 . S
C750 O752 1.263 . S
O751 Co748 1.970 . S
O751 C750 1.258 . S
O752 Co749 1.966 . S
O752 C750 1.263 . S
C753 O754 1.235 . S
C753 O780 1.289 . S
O754 C753 1.235 . S
C755 C757 1.400 . S
C755 N758 1.351 . S
C755 C760 1.501 . S
C756 C757 1.387 . S
C756 N759 1.341 . S
C757 C755 1.400 . S
C757 C756 1.387 . S
N758 Co749 2.022 . S
N758 C755 1.351 . S
N758 N759 1.365 . S
N759 C756 1.341 . S
N759 N758 1.365 . S
N759 H779 0.862 . S
C760 C755 1.501 . S
C760 H761 0.961 . S
C760 H762 0.961 . S
C760 H763 0.960 . S
H761 C760 0.961 . S
H762 C760 0.961 . S
H763 C760 0.960 . S
C764 N765 1.342 . S
C764 C768 1.401 . S
C764 C769 1.499 . S
N765 Co748 1.989 . S
N765 C764 1.342 . S
N765 N766 1.388 . S
N766 Co749 1.993 . S
N766 N765 1.388 . S
N766 C767 1.346 . S
C767 N766 1.346 . S
C767 C768 1.396 . S
C767 C777 1.510 . S
C768 C764 1.401 . S
C768 C767 1.396 . S
C769 C764 1.499 . S
C769 H770 0.959 . S
C769 H771 0.960 . S
C769 H772 0.961 . S
H770 C769 0.959 . S
H771 C769 0.960 . S
H772 C769 0.961 . S
O773 Co748 1.967 . S
O773 C781 1.258 . S
O774 Co749 1.941 . S
O774 C781 1.266 . S
H775 C777 0.959 . S
H776 C777 0.961 . S
C777 C767 1.510 . S
C777 H775 0.959 . S
C777 H776 0.961 . S
C777 H778 0.960 . S
H778 C777 0.960 . S
H779 N759 0.862 . S
O780 Co748 1.920 . S
O780 C753 1.289 . S
C781 O773 1.258 . S
C781 O774 1.266 . S
Co782 O785 1.970 . S
Co782 N799 1.989 . S
Co782 O807 1.967 . S
Co782 O814 1.920 . S
Co783 O786 1.966 . S
Co783 N792 2.022 . S
Co783 N800 1.993 . S
Co783 O808 1.941 . S
C784 O785 1.258 . S
C784 O786 1.263 . S
O785 Co782 1.970 . S
O785 C784 1.258 . S
O786 Co783 1.966 . S
O786 C784 1.263 . S
C787 O788 1.235 . S
C787 O814 1.289 . S
O788 C787 1.235 . S
C789 C791 1.400 . S
C789 N792 1.351 . S
C789 C794 1.501 . S
C790 C791 1.387 . S
C790 N793 1.341 . S
C791 C789 1.400 . S
C791 C790 1.387 . S
N792 Co783 2.022 . S
N792 C789 1.351 . S
N792 N793 1.365 . S
N793 C790 1.341 . S
N793 N792 1.365 . S
N793 H813 0.862 . S
C794 C789 1.501 . S
C794 H795 0.961 . S
C794 H796 0.961 . S
C794 H797 0.960 . S
H795 C794 0.961 . S
H796 C794 0.961 . S
H797 C794 0.960 . S
C798 N799 1.342 . S
C798 C802 1.401 . S
C798 C803 1.499 . S
N799 Co782 1.989 . S
N799 C798 1.342 . S
N799 N800 1.388 . S
N800 Co783 1.993 . S
N800 N799 1.388 . S
N800 C801 1.346 . S
C801 N800 1.346 . S
C801 C802 1.396 . S
C801 C811 1.510 . S
C802 C798 1.401 . S
C802 C801 1.396 . S
C803 C798 1.499 . S
C803 H804 0.959 . S
C803 H805 0.960 . S
C803 H806 0.961 . S
H804 C803 0.959 . S
H805 C803 0.960 . S
H806 C803 0.961 . S
O807 Co782 1.967 . S
O807 C815 1.258 . S
O808 Co783 1.941 . S
O808 C815 1.266 . S
H809 C811 0.959 . S
H810 C811 0.961 . S
C811 C801 1.510 . S
C811 H809 0.959 . S
C811 H810 0.961 . S
C811 H812 0.960 . S
H812 C811 0.960 . S
H813 N793 0.862 . S
O814 Co782 1.920 . S
O814 C787 1.289 . S
C815 O807 1.258 . S
C815 O808 1.266 . S
Co816 O819 1.970 . S
Co816 N833 1.989 . S
Co816 O841 1.967 . S
Co816 O848 1.920 . S
Co817 O820 1.966 . S
Co817 N826 2.022 . S
Co817 N834 1.993 . S
Co817 O842 1.941 . S
C818 O819 1.258 . S
C818 O820 1.263 . S
O819 Co816 1.970 . S
O819 C818 1.258 . S
O820 Co817 1.966 . S
O820 C818 1.263 . S
C821 O822 1.235 . S
C821 O848 1.289 . S
O822 C821 1.235 . S
C823 C825 1.400 . S
C823 N826 1.351 . S
C823 C828 1.501 . S
C824 C825 1.387 . S
C824 N827 1.341 . S
C825 C823 1.400 . S
C825 C824 1.387 . S
N826 Co817 2.022 . S
N826 C823 1.351 . S
N826 N827 1.365 . S
N827 C824 1.341 . S
N827 N826 1.365 . S
N827 H847 0.862 . S
C828 C823 1.501 . S
C828 H829 0.961 . S
C828 H830 0.961 . S
C828 H831 0.960 . S
H829 C828 0.961 . S
H830 C828 0.961 . S
H831 C828 0.960 . S
C832 N833 1.342 . S
C832 C836 1.401 . S
C832 C837 1.499 . S
N833 Co816 1.989 . S
N833 C832 1.342 . S
N833 N834 1.388 . S
N834 Co817 1.993 . S
N834 N833 1.388 . S
N834 C835 1.346 . S
C835 N834 1.346 . S
C835 C836 1.396 . S
C835 C845 1.510 . S
C836 C832 1.401 . S
C836 C835 1.396 . S
C837 C832 1.499 . S
C837 H838 0.959 . S
C837 H839 0.960 . S
C837 H840 0.961 . S
H838 C837 0.959 . S
H839 C837 0.960 . S
H840 C837 0.961 . S
O841 Co816 1.967 . S
O841 C849 1.258 . S
O842 Co817 1.941 . S
O842 C849 1.266 . S
H843 C845 0.959 . S
H844 C845 0.961 . S
C845 C835 1.510 . S
C845 H843 0.959 . S
C845 H844 0.961 . S
C845 H846 0.960 . S
H846 C845 0.960 . S
H847 N827 0.862 . S
O848 Co816 1.920 . S
O848 C821 1.289 . S
C849 O841 1.258 . S
C849 O842 1.266 . S
Co850 O853 1.970 . S
Co850 N867 1.989 . S
Co850 O875 1.967 . S
Co850 O882 1.920 . S
Co851 O854 1.966 . S
Co851 N860 2.022 1_556 S
Co851 N868 1.993 . S
Co851 O876 1.941 . S
C852 O853 1.258 . S
C852 O854 1.263 . S
O853 Co850 1.970 . S
O853 C852 1.258 . S
O854 Co851 1.966 . S
O854 C852 1.263 . S
C855 O856 1.235 . S
C855 O882 1.289 . S
O856 C855 1.235 . S
C857 C859 1.400 . S
C857 N860 1.351 . S
C857 C862 1.501 . S
C858 C859 1.387 . S
C858 N861 1.341 . S
C859 C857 1.400 . S
C859 C858 1.387 . S
N860 Co851 2.022 1_554 S
N860 C857 1.351 . S
N860 N861 1.365 . S
N861 C858 1.341 . S
N861 N860 1.365 . S
N861 H881 0.862 1_554 S
C862 C857 1.501 . S
C862 H863 0.961 . S
C862 H864 0.961 . S
C862 H865 0.960 . S
H863 C862 0.961 . S
H864 C862 0.961 . S
H865 C862 0.960 . S
C866 N867 1.342 . S
C866 C870 1.401 . S
C866 C871 1.499 . S
N867 Co850 1.989 . S
N867 C866 1.342 . S
N867 N868 1.388 . S
N868 Co851 1.993 . S
N868 N867 1.388 . S
N868 C869 1.346 . S
C869 N868 1.346 . S
C869 C870 1.396 . S
C869 C879 1.510 1_556 S
C870 C866 1.401 . S
C870 C869 1.396 . S
C871 C866 1.499 . S
C871 H872 0.959 . S
C871 H873 0.960 . S
C871 H874 0.961 . S
H872 C871 0.959 . S
H873 C871 0.960 . S
H874 C871 0.961 . S
O875 Co850 1.967 . S
O875 C883 1.258 . S
O876 Co851 1.941 . S
O876 C883 1.266 . S
H877 C879 0.959 . S
H878 C879 0.961 . S
C879 C869 1.510 1_554 S
C879 H877 0.959 . S
C879 H878 0.961 . S
C879 H880 0.960 . S
H880 C879 0.960 . S
H881 N861 0.862 1_556 S
O882 Co850 1.920 . S
O882 C855 1.289 . S
C883 O875 1.258 . S
C883 O876 1.266 . S
Co884 O887 1.970 . S
Co884 N901 1.989 . S
Co884 O909 1.967 . S
Co884 O916 1.920 . S
Co885 O888 1.966 . S
Co885 N894 2.022 . S
Co885 N902 1.993 . S
Co885 O910 1.941 . S
C886 O887 1.258 . S
C886 O888 1.263 . S
O887 Co884 1.970 . S
O887 C886 1.258 . S
O888 Co885 1.966 . S
O888 C886 1.263 . S
C889 O890 1.235 . S
C889 O916 1.289 . S
O890 C889 1.235 . S
C891 C893 1.400 . S
C891 N894 1.351 . S
C891 C896 1.501 . S
C892 C893 1.387 . S
C892 N895 1.341 . S
C893 C891 1.400 . S
C893 C892 1.387 . S
N894 Co885 2.022 . S
N894 C891 1.351 . S
N894 N895 1.365 . S
N895 C892 1.341 . S
N895 N894 1.365 . S
N895 H915 0.862 . S
C896 C891 1.501 . S
C896 H897 0.961 . S
C896 H898 0.961 . S
C896 H899 0.960 . S
H897 C896 0.961 . S
H898 C896 0.961 . S
H899 C896 0.960 . S
C900 N901 1.342 . S
C900 C904 1.401 . S
C900 C905 1.499 . S
N901 Co884 1.989 . S
N901 C900 1.342 . S
N901 N902 1.388 . S
N902 Co885 1.993 . S
N902 N901 1.388 . S
N902 C903 1.346 . S
C903 N902 1.346 . S
C903 C904 1.396 . S
C903 C913 1.510 . S
C904 C900 1.401 . S
C904 C903 1.396 . S
C905 C900 1.499 . S
C905 H906 0.959 . S
C905 H907 0.960 . S
C905 H908 0.961 . S
H906 C905 0.959 . S
H907 C905 0.960 . S
H908 C905 0.961 . S
O909 Co884 1.967 . S
O909 C917 1.258 . S
O910 Co885 1.941 . S
O910 C917 1.266 . S
H911 C913 0.959 . S
H912 C913 0.961 . S
C913 C903 1.510 . S
C913 H911 0.959 . S
C913 H912 0.961 . S
C913 H914 0.960 . S
H914 C913 0.960 . S
H915 N895 0.862 . S
O916 Co884 1.920 . S
O916 C889 1.289 . S
C917 O909 1.258 . S
C917 O910 1.266 . S
Co918 O921 1.970 . S
Co918 N935 1.989 . S
Co918 O943 1.967 . S
Co918 O950 1.920 . S
Co919 O922 1.966 . S
Co919 N928 2.022 . S
Co919 N936 1.993 . S
Co919 O944 1.941 . S
C920 O921 1.258 . S
C920 O922 1.263 . S
O921 Co918 1.970 . S
O921 C920 1.258 . S
O922 Co919 1.966 . S
O922 C920 1.263 . S
C923 O924 1.235 1_455 S
C923 O950 1.289 . S
O924 C923 1.235 1_655 S
C925 C927 1.400 . S
C925 N928 1.351 . S
C925 C930 1.501 . S
C926 C927 1.387 . S
C926 N929 1.341 . S
C927 C925 1.400 . S
C927 C926 1.387 . S
N928 Co919 2.022 . S
N928 C925 1.351 . S
N928 N929 1.365 . S
N929 C926 1.341 . S
N929 N928 1.365 . S
N929 H949 0.862 . S
C930 C925 1.501 . S
C930 H931 0.961 . S
C930 H932 0.961 . S
C930 H933 0.960 . S
H931 C930 0.961 . S
H932 C930 0.961 . S
H933 C930 0.960 . S
C934 N935 1.342 . S
C934 C938 1.401 . S
C934 C939 1.499 . S
N935 Co918 1.989 . S
N935 C934 1.342 . S
N935 N936 1.388 . S
N936 Co919 1.993 . S
N936 N935 1.388 . S
N936 C937 1.346 . S
C937 N936 1.346 . S
C937 C938 1.396 . S
C937 C947 1.510 . S
C938 C934 1.401 . S
C938 C937 1.396 . S
C939 C934 1.499 . S
C939 H940 0.959 . S
C939 H941 0.960 . S
C939 H942 0.961 . S
H940 C939 0.959 . S
H941 C939 0.960 . S
H942 C939 0.961 . S
O943 Co918 1.967 . S
O943 C951 1.258 . S
O944 Co919 1.941 . S
O944 C951 1.266 . S
H945 C947 0.959 . S
H946 C947 0.961 . S
C947 C937 1.510 . S
C947 H945 0.959 . S
C947 H946 0.961 . S
C947 H948 0.960 . S
H948 C947 0.960 . S
H949 N929 0.862 . S
O950 Co918 1.920 . S
O950 C923 1.289 . S
C951 O943 1.258 . S
C951 O944 1.266 . S
Co952 O955 1.970 . S
Co952 N969 1.989 . S
Co952 O977 1.967 . S
Co952 O984 1.920 . S
Co953 O956 1.966 . S
Co953 N962 2.022 . S
Co953 N970 1.993 . S
Co953 O978 1.941 . S
C954 O955 1.258 . S
C954 O956 1.263 . S
O955 Co952 1.970 . S
O955 C954 1.258 . S
O956 Co953 1.966 . S
O956 C954 1.263 . S
C957 O958 1.235 . S
C957 O984 1.289 . S
O958 C957 1.235 . S
C959 C961 1.400 . S
C959 N962 1.351 . S
C959 C964 1.501 . S
C960 C961 1.387 . S
C960 N963 1.341 . S
C961 C959 1.400 . S
C961 C960 1.387 . S
N962 Co953 2.022 . S
N962 C959 1.351 . S
N962 N963 1.365 . S
N963 C960 1.341 . S
N963 N962 1.365 . S
N963 H983 0.862 . S
C964 C959 1.501 . S
C964 H965 0.961 . S
C964 H966 0.961 . S
C964 H967 0.960 . S
H965 C964 0.961 . S
H966 C964 0.961 . S
H967 C964 0.960 . S
C968 N969 1.342 . S
C968 C972 1.401 . S
C968 C973 1.499 . S
N969 Co952 1.989 . S
N969 C968 1.342 . S
N969 N970 1.388 . S
N970 Co953 1.993 . S
N970 N969 1.388 . S
N970 C971 1.346 . S
C971 N970 1.346 . S
C971 C972 1.396 . S
C971 C981 1.510 . S
C972 C968 1.401 . S
C972 C971 1.396 . S
C973 C968 1.499 . S
C973 H974 0.959 . S
C973 H975 0.960 . S
C973 H976 0.961 . S
H974 C973 0.959 . S
H975 C973 0.960 . S
H976 C973 0.961 . S
O977 Co952 1.967 . S
O977 C985 1.258 . S
O978 Co953 1.941 . S
O978 C985 1.266 . S
H979 C981 0.959 . S
H980 C981 0.961 . S
C981 C971 1.510 . S
C981 H979 0.959 . S
C981 H980 0.961 . S
C981 H982 0.960 . S
H982 C981 0.960 . S
H983 N963 0.862 . S
O984 Co952 1.920 . S
O984 C957 1.289 . S
C985 O977 1.258 . S
C985 O978 1.266 . S
Co986 O989 1.970 . S
Co986 N1003 1.989 . S
Co986 O1011 1.967 . S
Co986 O1018 1.920 . S
Co987 O990 1.966 . S
Co987 N996 2.022 1_554 S
Co987 N1004 1.993 . S
Co987 O1012 1.941 . S
C988 O989 1.258 . S
C988 O990 1.263 . S
O989 Co986 1.970 . S
O989 C988 1.258 . S
O990 Co987 1.966 . S
O990 C988 1.263 . S
C991 O992 1.235 1_455 S
C991 O1018 1.289 . S
O992 C991 1.235 1_655 S
C993 C995 1.400 . S
C993 N996 1.351 . S
C993 C998 1.501 . S
C994 C995 1.387 . S
C994 N997 1.341 . S
C995 C993 1.400 . S
C995 C994 1.387 . S
N996 Co987 2.022 1_556 S
N996 C993 1.351 . S
N996 N997 1.365 . S
N997 C994 1.341 . S
N997 N996 1.365 . S
N997 H1017 0.862 1_556 S
C998 C993 1.501 . S
C998 H999 0.961 . S
C998 H1000 0.961 . S
C998 H1001 0.960 . S
H999 C998 0.961 . S
H1000 C998 0.961 . S
H1001 C998 0.960 . S
C1002 N1003 1.342 . S
C1002 C1006 1.401 . S
C1002 C1007 1.499 . S
N1003 Co986 1.989 . S
N1003 C1002 1.342 . S
N1003 N1004 1.388 . S
N1004 Co987 1.993 . S
N1004 N1003 1.388 . S
N1004 C1005 1.346 . S
C1005 N1004 1.346 . S
C1005 C1006 1.396 . S
C1005 C1015 1.510 1_554 S
C1006 C1002 1.401 . S
C1006 C1005 1.396 . S
C1007 C1002 1.499 . S
C1007 H1008 0.959 . S
C1007 H1009 0.960 . S
C1007 H1010 0.961 . S
H1008 C1007 0.959 . S
H1009 C1007 0.960 . S
H1010 C1007 0.961 . S
O1011 Co986 1.967 . S
O1011 C1019 1.258 . S
O1012 Co987 1.941 . S
O1012 C1019 1.266 . S
H1013 C1015 0.959 . S
H1014 C1015 0.961 . S
C1015 C1005 1.510 1_556 S
C1015 H1013 0.959 . S
C1015 H1014 0.961 . S
C1015 H1016 0.960 . S
H1016 C1015 0.960 . S
H1017 N997 0.862 1_554 S
O1018 Co986 1.920 . S
O1018 C991 1.289 . S
C1019 O1011 1.258 . S
C1019 O1012 1.266 . S
Co1020 O1023 1.970 . S
Co1020 N1037 1.989 . S
Co1020 O1045 1.967 . S
Co1020 O1052 1.920 . S
Co1021 O1024 1.966 . S
Co1021 N1030 2.022 . S
Co1021 N1038 1.993 . S
Co1021 O1046 1.941 . S
C1022 O1023 1.258 . S
C1022 O1024 1.263 . S
O1023 Co1020 1.970 . S
O1023 C1022 1.258 . S
O1024 Co1021 1.966 . S
O1024 C1022 1.263 . S
C1025 O1026 1.235 . S
C1025 O1052 1.289 . S
O1026 C1025 1.235 . S
C1027 C1029 1.400 . S
C1027 N1030 1.351 . S
C1027 C1032 1.501 . S
C1028 C1029 1.387 . S
C1028 N1031 1.341 . S
C1029 C1027 1.400 . S
C1029 C1028 1.387 . S
N1030 Co1021 2.022 . S
N1030 C1027 1.351 . S
N1030 N1031 1.365 . S
N1031 C1028 1.341 . S
N1031 N1030 1.365 . S
N1031 H1051 0.862 . S
C1032 C1027 1.501 . S
C1032 H1033 0.961 . S
C1032 H1034 0.961 . S
C1032 H1035 0.960 . S
H1033 C1032 0.961 . S
H1034 C1032 0.961 . S
H1035 C1032 0.960 . S
C1036 N1037 1.342 . S
C1036 C1040 1.401 . S
C1036 C1041 1.499 . S
N1037 Co1020 1.989 . S
N1037 C1036 1.342 . S
N1037 N1038 1.388 . S
N1038 Co1021 1.993 . S
N1038 N1037 1.388 . S
N1038 C1039 1.346 . S
C1039 N1038 1.346 . S
C1039 C1040 1.396 . S
C1039 C1049 1.510 . S
C1040 C1036 1.401 . S
C1040 C1039 1.396 . S
C1041 C1036 1.499 . S
C1041 H1042 0.959 . S
C1041 H1043 0.960 . S
C1041 H1044 0.961 . S
H1042 C1041 0.959 . S
H1043 C1041 0.960 . S
H1044 C1041 0.961 . S
O1045 Co1020 1.967 . S
O1045 C1053 1.258 . S
O1046 Co1021 1.941 . S
O1046 C1053 1.266 . S
H1047 C1049 0.959 . S
H1048 C1049 0.961 . S
C1049 C1039 1.510 . S
C1049 H1047 0.959 . S
C1049 H1048 0.961 . S
C1049 H1050 0.960 . S
H1050 C1049 0.960 . S
H1051 N1031 0.862 . S
O1052 Co1020 1.920 . S
O1052 C1025 1.289 . S
C1053 O1045 1.258 . S
C1053 O1046 1.266 . S
Co1054 O1057 1.970 . S
Co1054 N1071 1.989 . S
Co1054 O1079 1.967 . S
Co1054 O1086 1.920 . S
Co1055 O1058 1.966 . S
Co1055 N1064 2.022 . S
Co1055 N1072 1.993 . S
Co1055 O1080 1.941 . S
C1056 O1057 1.258 . S
C1056 O1058 1.263 . S
O1057 Co1054 1.970 . S
O1057 C1056 1.258 . S
O1058 Co1055 1.966 . S
O1058 C1056 1.263 . S
C1059 O1060 1.235 . S
C1059 O1086 1.289 . S
O1060 C1059 1.235 . S
C1061 C1063 1.400 . S
C1061 N1064 1.351 . S
C1061 C1066 1.501 . S
C1062 C1063 1.387 . S
C1062 N1065 1.341 . S
C1063 C1061 1.400 . S
C1063 C1062 1.387 . S
N1064 Co1055 2.022 . S
N1064 C1061 1.351 . S
N1064 N1065 1.365 . S
N1065 C1062 1.341 . S
N1065 N1064 1.365 . S
N1065 H1085 0.862 . S
C1066 C1061 1.501 . S
C1066 H1067 0.961 . S
C1066 H1068 0.961 . S
C1066 H1069 0.960 . S
H1067 C1066 0.961 . S
H1068 C1066 0.961 . S
H1069 C1066 0.960 . S
C1070 N1071 1.342 . S
C1070 C1074 1.401 . S
C1070 C1075 1.499 . S
N1071 Co1054 1.989 . S
N1071 C1070 1.342 . S
N1071 N1072 1.388 . S
N1072 Co1055 1.993 . S
N1072 N1071 1.388 . S
N1072 C1073 1.346 . S
C1073 N1072 1.346 . S
C1073 C1074 1.396 . S
C1073 C1083 1.510 . S
C1074 C1070 1.401 . S
C1074 C1073 1.396 . S
C1075 C1070 1.499 . S
C1075 H1076 0.959 . S
C1075 H1077 0.960 . S
C1075 H1078 0.961 . S
H1076 C1075 0.959 . S
H1077 C1075 0.960 . S
H1078 C1075 0.961 . S
O1079 Co1054 1.967 . S
O1079 C1087 1.258 . S
O1080 Co1055 1.941 . S
O1080 C1087 1.266 . S
H1081 C1083 0.959 . S
H1082 C1083 0.961 . S
C1083 C1073 1.510 . S
C1083 H1081 0.959 . S
C1083 H1082 0.961 . S
C1083 H1084 0.960 . S
H1084 C1083 0.960 . S
H1085 N1065 0.862 . S
O1086 Co1054 1.920 . S
O1086 C1059 1.289 . S
C1087 O1079 1.258 . S
C1087 O1080 1.266 . S
H1088 C1096 0.929 . S
H1089 C1098 0.930 . S
H1090 C1100 0.930 . S
H1091 C1103 0.929 . S
H1092 C1106 0.930 . S
H1093 C1108 0.960 . S
H1094 C1108 0.960 . S
H1095 C1108 0.960 . S
C1096 H1088 0.929 . S
C1096 C1097 1.377 . S
C1096 C1098 1.384 . S
C1097 C1096 1.377 . S
C1097 C1103 1.390 . S
C1098 H1089 0.930 . S
C1098 C1096 1.384 . S
C1098 C1099 1.372 . S
C1099 C1098 1.372 . S
C1099 C1100 1.400 . S
C1099 C1104 1.490 . S
C1100 H1090 0.930 . S
C1100 C1099 1.400 . S
C1100 C1103 1.386 . S
H1101 C1117 0.930 . S
H1102 C1118 0.931 . S
C1103 H1091 0.929 . S
C1103 C1097 1.390 . S
C1103 C1100 1.386 . S
C1104 C1099 1.490 . S
C1104 C1106 1.395 . S
C1104 C1107 1.403 . S
H1105 C1111 0.930 . S
C1106 H1092 0.930 . S
C1106 C1104 1.395 . S
C1106 C1109 1.403 . S
C1107 C1104 1.403 . S
C1107 C1108 1.524 . S
C1107 C1111 1.400 . S
C1108 H1093 0.960 . S
C1108 H1094 0.960 . S
C1108 H1095 0.960 . S
C1108 C1107 1.524 . S
C1109 C1106 1.403 . S
C1109 C1110 1.392 . S
C1109 C1113 1.495 . S
C1110 C1109 1.392 . S
C1110 C1111 1.385 . S
C1110 C1112 1.478 . S
C1111 H1105 0.930 . S
C1111 C1107 1.400 . S
C1111 C1110 1.385 . S
C1112 C1110 1.478 . S
C1112 C1114 1.381 . S
C1112 C1118 1.383 . S
C1113 C1109 1.495 . S
C1113 H1119 0.959 . S
C1113 H1120 0.961 . S
C1113 H1121 0.960 . S
C1114 C1112 1.381 . S
C1114 C1115 1.394 . S
C1114 H1122 0.930 . S
C1115 C1114 1.394 . S
C1115 C1116 1.383 . S
C1115 H1123 0.929 . S
C1116 C1115 1.383 . S
C1116 C1117 1.377 . S
C1117 H1101 0.930 . S
C1117 C1116 1.377 . S
C1117 C1118 1.379 . S
C1118 H1102 0.931 . S
C1118 C1112 1.383 . S
C1118 C1117 1.379 . S
H1119 C1113 0.959 . S
H1120 C1113 0.961 . S
H1121 C1113 0.960 . S
H1122 C1114 0.930 . S
H1123 C1115 0.929 . S
H1124 C1132 0.929 . S
H1125 C1134 0.930 . S
H1126 C1136 0.930 . S
H1127 C1139 0.929 . S
H1128 C1142 0.930 . S
H1129 C1144 0.960 . S
H1130 C1144 0.960 . S
H1131 C1144 0.960 . S
C1132 H1124 0.929 . S
C1132 C1133 1.377 . S
C1132 C1134 1.384 . S
C1133 C1132 1.377 . S
C1133 C1139 1.390 . S
C1134 H1125 0.930 . S
C1134 C1132 1.384 . S
C1134 C1135 1.372 . S
C1135 C1134 1.372 . S
C1135 C1136 1.400 . S
C1135 C1140 1.490 . S
C1136 H1126 0.930 . S
C1136 C1135 1.400 . S
C1136 C1139 1.386 . S
H1137 C1153 0.930 . S
H1138 C1154 0.931 . S
C1139 H1127 0.929 . S
C1139 C1133 1.390 . S
C1139 C1136 1.386 . S
C1140 C1135 1.490 . S
C1140 C1142 1.395 . S
C1140 C1143 1.403 . S
H1141 C1147 0.930 . S
C1142 H1128 0.930 . S
C1142 C1140 1.395 . S
C1142 C1145 1.403 . S
C1143 C1140 1.403 . S
C1143 C1144 1.524 . S
C1143 C1147 1.400 . S
C1144 H1129 0.960 . S
C1144 H1130 0.960 . S
C1144 H1131 0.960 . S
C1144 C1143 1.524 . S
C1145 C1142 1.403 . S
C1145 C1146 1.392 . S
C1145 C1149 1.495 . S
C1146 C1145 1.392 . S
C1146 C1147 1.385 . S
C1146 C1148 1.478 . S
C1147 H1141 0.930 . S
C1147 C1143 1.400 . S
C1147 C1146 1.385 . S
C1148 C1146 1.478 . S
C1148 C1150 1.381 . S
C1148 C1154 1.383 . S
C1149 C1145 1.495 . S
C1149 H1155 0.959 . S
C1149 H1156 0.961 . S
C1149 H1157 0.960 . S
C1150 C1148 1.381 . S
C1150 C1151 1.394 . S
C1150 H1158 0.930 . S
C1151 C1150 1.394 . S
C1151 C1152 1.383 . S
C1151 H1159 0.929 . S
C1152 C1151 1.383 . S
C1152 C1153 1.377 . S
C1153 H1137 0.930 . S
C1153 C1152 1.377 . S
C1153 C1154 1.379 . S
C1154 H1138 0.931 . S
C1154 C1148 1.383 . S
C1154 C1153 1.379 . S
H1155 C1149 0.959 . S
H1156 C1149 0.961 . S
H1157 C1149 0.960 . S
H1158 C1150 0.930 . S
H1159 C1151 0.929 . S
H1160 C1168 0.929 . S
H1161 C1170 0.930 . S
H1162 C1172 0.930 . S
H1163 C1175 0.929 . S
H1164 C1178 0.930 . S
H1165 C1180 0.960 . S
H1166 C1180 0.960 . S
H1167 C1180 0.960 . S
C1168 H1160 0.929 . S
C1168 C1169 1.377 . S
C1168 C1170 1.384 . S
C1169 C1168 1.377 . S
C1169 C1175 1.390 . S
C1170 H1161 0.930 . S
C1170 C1168 1.384 . S
C1170 C1171 1.372 . S
C1171 C1170 1.372 . S
C1171 C1172 1.400 . S
C1171 C1176 1.490 . S
C1172 H1162 0.930 . S
C1172 C1171 1.400 . S
C1172 C1175 1.386 . S
H1173 C1189 0.930 . S
H1174 C1190 0.931 . S
C1175 H1163 0.929 . S
C1175 C1169 1.390 . S
C1175 C1172 1.386 . S
C1176 C1171 1.490 . S
C1176 C1178 1.395 . S
C1176 C1179 1.403 . S
H1177 C1183 0.930 . S
C1178 H1164 0.930 . S
C1178 C1176 1.395 . S
C1178 C1181 1.403 . S
C1179 C1176 1.403 . S
C1179 C1180 1.524 . S
C1179 C1183 1.400 . S
C1180 H1165 0.960 . S
C1180 H1166 0.960 . S
C1180 H1167 0.960 . S
C1180 C1179 1.524 . S
C1181 C1178 1.403 . S
C1181 C1182 1.392 . S
C1181 C1185 1.495 . S
C1182 C1181 1.392 . S
C1182 C1183 1.385 . S
C1182 C1184 1.478 . S
C1183 H1177 0.930 . S
C1183 C1179 1.400 . S
C1183 C1182 1.385 . S
C1184 C1182 1.478 . S
C1184 C1186 1.381 . S
C1184 C1190 1.383 . S
C1185 C1181 1.495 . S
C1185 H1191 0.959 . S
C1185 H1192 0.961 . S
C1185 H1193 0.960 . S
C1186 C1184 1.381 . S
C1186 C1187 1.394 . S
C1186 H1194 0.930 . S
C1187 C1186 1.394 . S
C1187 C1188 1.383 . S
C1187 H1195 0.929 . S
C1188 C1187 1.383 . S
C1188 C1189 1.377 . S
C1189 H1173 0.930 . S
C1189 C1188 1.377 . S
C1189 C1190 1.379 . S
C1190 H1174 0.931 . S
C1190 C1184 1.383 . S
C1190 C1189 1.379 . S
H1191 C1185 0.959 . S
H1192 C1185 0.961 . S
H1193 C1185 0.960 . S
H1194 C1186 0.930 . S
H1195 C1187 0.929 . S
H1196 C1204 0.929 . S
H1197 C1206 0.930 . S
H1198 C1208 0.930 . S
H1199 C1211 0.929 . S
H1200 C1214 0.930 . S
H1201 C1216 0.960 . S
H1202 C1216 0.960 . S
H1203 C1216 0.960 . S
C1204 H1196 0.929 . S
C1204 C1205 1.377 . S
C1204 C1206 1.384 . S
C1205 C1204 1.377 . S
C1205 C1211 1.390 . S
C1206 H1197 0.930 . S
C1206 C1204 1.384 . S
C1206 C1207 1.372 . S
C1207 C1206 1.372 . S
C1207 C1208 1.400 . S
C1207 C1212 1.490 . S
C1208 H1198 0.930 . S
C1208 C1207 1.400 . S
C1208 C1211 1.386 . S
H1209 C1225 0.930 . S
H1210 C1226 0.931 . S
C1211 H1199 0.929 . S
C1211 C1205 1.390 . S
C1211 C1208 1.386 . S
C1212 C1207 1.490 . S
C1212 C1214 1.395 . S
C1212 C1215 1.403 . S
H1213 C1219 0.930 . S
C1214 H1200 0.930 . S
C1214 C1212 1.395 . S
C1214 C1217 1.403 . S
C1215 C1212 1.403 . S
C1215 C1216 1.524 . S
C1215 C1219 1.400 . S
C1216 H1201 0.960 . S
C1216 H1202 0.960 . S
C1216 H1203 0.960 . S
C1216 C1215 1.524 . S
C1217 C1214 1.403 . S
C1217 C1218 1.392 . S
C1217 C1221 1.495 . S
C1218 C1217 1.392 . S
C1218 C1219 1.385 . S
C1218 C1220 1.478 . S
C1219 H1213 0.930 . S
C1219 C1215 1.400 . S
C1219 C1218 1.385 . S
C1220 C1218 1.478 . S
C1220 C1222 1.381 . S
C1220 C1226 1.383 . S
C1221 C1217 1.495 . S
C1221 H1227 0.959 . S
C1221 H1228 0.961 . S
C1221 H1229 0.960 . S
C1222 C1220 1.381 . S
C1222 C1223 1.394 . S
C1222 H1230 0.930 . S
C1223 C1222 1.394 . S
C1223 C1224 1.383 . S
C1223 H1231 0.929 . S
C1224 C1223 1.383 . S
C1224 C1225 1.377 . S
C1225 H1209 0.930 . S
C1225 C1224 1.377 . S
C1225 C1226 1.379 . S
C1226 H1210 0.931 . S
C1226 C1220 1.383 . S
C1226 C1225 1.379 . S
H1227 C1221 0.959 . S
H1228 C1221 0.961 . S
H1229 C1221 0.960 . S
H1230 C1222 0.930 . S
H1231 C1223 0.929 . S
H1232 C1240 0.929 . S
H1233 C1242 0.930 . S
H1234 C1244 0.930 . S
H1235 C1247 0.929 . S
H1236 C1250 0.930 . S
H1237 C1252 0.960 . S
H1238 C1252 0.960 . S
H1239 C1252 0.960 . S
C1240 H1232 0.929 . S
C1240 C1241 1.377 . S
C1240 C1242 1.384 . S
C1241 C1240 1.377 . S
C1241 C1247 1.390 . S
C1242 H1233 0.930 . S
C1242 C1240 1.384 . S
C1242 C1243 1.372 . S
C1243 C1242 1.372 . S
C1243 C1244 1.400 . S
C1243 C1248 1.490 . S
C1244 H1234 0.930 . S
C1244 C1243 1.400 . S
C1244 C1247 1.386 . S
H1245 C1261 0.930 . S
H1246 C1262 0.931 . S
C1247 H1235 0.929 . S
C1247 C1241 1.390 . S
C1247 C1244 1.386 . S
C1248 C1243 1.490 . S
C1248 C1250 1.395 . S
C1248 C1251 1.403 . S
H1249 C1255 0.930 . S
C1250 H1236 0.930 . S
C1250 C1248 1.395 . S
C1250 C1253 1.403 . S
C1251 C1248 1.403 . S
C1251 C1252 1.524 . S
C1251 C1255 1.400 . S
C1252 H1237 0.960 . S
C1252 H1238 0.960 . S
C1252 H1239 0.960 . S
C1252 C1251 1.524 . S
C1253 C1250 1.403 . S
C1253 C1254 1.392 . S
C1253 C1257 1.495 . S
C1254 C1253 1.392 . S
C1254 C1255 1.385 . S
C1254 C1256 1.478 . S
C1255 H1249 0.930 . S
C1255 C1251 1.400 . S
C1255 C1254 1.385 . S
C1256 C1254 1.478 . S
C1256 C1258 1.381 . S
C1256 C1262 1.383 . S
C1257 C1253 1.495 . S
C1257 H1263 0.959 . S
C1257 H1264 0.961 . S
C1257 H1265 0.960 . S
C1258 C1256 1.381 . S
C1258 C1259 1.394 . S
C1258 H1266 0.930 . S
C1259 C1258 1.394 . S
C1259 C1260 1.383 . S
C1259 H1267 0.929 . S
C1260 C1259 1.383 . S
C1260 C1261 1.377 . S
C1261 H1245 0.930 . S
C1261 C1260 1.377 . S
C1261 C1262 1.379 . S
C1262 H1246 0.931 . S
C1262 C1256 1.383 . S
C1262 C1261 1.379 . S
H1263 C1257 0.959 . S
H1264 C1257 0.961 . S
H1265 C1257 0.960 . S
H1266 C1258 0.930 . S
H1267 C1259 0.929 . S
H1268 C1276 0.929 . S
H1269 C1278 0.930 . S
H1270 C1280 0.930 . S
H1271 C1283 0.929 . S
H1272 C1286 0.930 . S
H1273 C1288 0.960 . S
H1274 C1288 0.960 . S
H1275 C1288 0.960 . S
C1276 H1268 0.929 . S
C1276 C1277 1.377 . S
C1276 C1278 1.384 . S
C1277 C1276 1.377 . S
C1277 C1283 1.390 . S
C1278 H1269 0.930 . S
C1278 C1276 1.384 . S
C1278 C1279 1.372 . S
C1279 C1278 1.372 . S
C1279 C1280 1.400 . S
C1279 C1284 1.490 . S
C1280 H1270 0.930 . S
C1280 C1279 1.400 . S
C1280 C1283 1.386 . S
H1281 C1297 0.930 . S
H1282 C1298 0.931 . S
C1283 H1271 0.929 . S
C1283 C1277 1.390 . S
C1283 C1280 1.386 . S
C1284 C1279 1.490 . S
C1284 C1286 1.395 . S
C1284 C1287 1.403 . S
H1285 C1291 0.930 . S
C1286 H1272 0.930 . S
C1286 C1284 1.395 . S
C1286 C1289 1.403 . S
C1287 C1284 1.403 . S
C1287 C1288 1.524 . S
C1287 C1291 1.400 . S
C1288 H1273 0.960 . S
C1288 H1274 0.960 . S
C1288 H1275 0.960 . S
C1288 C1287 1.524 . S
C1289 C1286 1.403 . S
C1289 C1290 1.392 . S
C1289 C1293 1.495 . S
C1290 C1289 1.392 . S
C1290 C1291 1.385 . S
C1290 C1292 1.478 . S
C1291 H1285 0.930 . S
C1291 C1287 1.400 . S
C1291 C1290 1.385 . S
C1292 C1290 1.478 . S
C1292 C1294 1.381 . S
C1292 C1298 1.383 . S
C1293 C1289 1.495 . S
C1293 H1299 0.959 . S
C1293 H1300 0.961 . S
C1293 H1301 0.960 . S
C1294 C1292 1.381 . S
C1294 C1295 1.394 . S
C1294 H1302 0.930 . S
C1295 C1294 1.394 . S
C1295 C1296 1.383 . S
C1295 H1303 0.929 . S
C1296 C1295 1.383 . S
C1296 C1297 1.377 . S
C1297 H1281 0.930 . S
C1297 C1296 1.377 . S
C1297 C1298 1.379 . S
C1298 H1282 0.931 . S
C1298 C1292 1.383 . S
C1298 C1297 1.379 . S
H1299 C1293 0.959 . S
H1300 C1293 0.961 . S
H1301 C1293 0.960 . S
H1302 C1294 0.930 . S
H1303 C1295 0.929 . S
H1304 C1312 0.929 . S
H1305 C1314 0.930 . S
H1306 C1316 0.930 . S
H1307 C1319 0.929 . S
H1308 C1322 0.930 . S
H1309 C1324 0.960 . S
H1310 C1324 0.960 . S
H1311 C1324 0.960 . S
C1312 H1304 0.929 . S
C1312 C1313 1.377 . S
C1312 C1314 1.384 . S
C1313 C1312 1.377 . S
C1313 C1319 1.390 . S
C1314 H1305 0.930 . S
C1314 C1312 1.384 . S
C1314 C1315 1.372 . S
C1315 C1314 1.372 . S
C1315 C1316 1.400 . S
C1315 C1320 1.490 . S
C1316 H1306 0.930 . S
C1316 C1315 1.400 . S
C1316 C1319 1.386 . S
H1317 C1333 0.930 . S
H1318 C1334 0.931 . S
C1319 H1307 0.929 . S
C1319 C1313 1.390 . S
C1319 C1316 1.386 . S
C1320 C1315 1.490 . S
C1320 C1322 1.395 . S
C1320 C1323 1.403 . S
H1321 C1327 0.930 . S
C1322 H1308 0.930 . S
C1322 C1320 1.395 . S
C1322 C1325 1.403 . S
C1323 C1320 1.403 . S
C1323 C1324 1.524 . S
C1323 C1327 1.400 . S
C1324 H1309 0.960 . S
C1324 H1310 0.960 . S
C1324 H1311 0.960 . S
C1324 C1323 1.524 . S
C1325 C1322 1.403 . S
C1325 C1326 1.392 . S
C1325 C1329 1.495 . S
C1326 C1325 1.392 . S
C1326 C1327 1.385 . S
C1326 C1328 1.478 . S
C1327 H1321 0.930 . S
C1327 C1323 1.400 . S
C1327 C1326 1.385 . S
C1328 C1326 1.478 . S
C1328 C1330 1.381 . S
C1328 C1334 1.383 . S
C1329 C1325 1.495 . S
C1329 H1335 0.959 . S
C1329 H1336 0.961 . S
C1329 H1337 0.960 . S
C1330 C1328 1.381 . S
C1330 C1331 1.394 . S
C1330 H1338 0.930 . S
C1331 C1330 1.394 . S
C1331 C1332 1.383 . S
C1331 H1339 0.929 . S
C1332 C1331 1.383 . S
C1332 C1333 1.377 . S
C1333 H1317 0.930 . S
C1333 C1332 1.377 . S
C1333 C1334 1.379 . S
C1334 H1318 0.931 . S
C1334 C1328 1.383 . S
C1334 C1333 1.379 . S
H1335 C1329 0.959 . S
H1336 C1329 0.961 . S
H1337 C1329 0.960 . S
H1338 C1330 0.930 . S
H1339 C1331 0.929 . S
H1340 C1348 0.929 . S
H1341 C1350 0.930 . S
H1342 C1352 0.930 . S
H1343 C1355 0.929 . S
H1344 C1358 0.930 . S
H1345 C1360 0.960 . S
H1346 C1360 0.960 . S
H1347 C1360 0.960 . S
C1348 H1340 0.929 . S
C1348 C1349 1.377 . S
C1348 C1350 1.384 . S
C1349 C1348 1.377 . S
C1349 C1355 1.390 . S
C1350 H1341 0.930 . S
C1350 C1348 1.384 . S
C1350 C1351 1.372 . S
C1351 C1350 1.372 . S
C1351 C1352 1.400 . S
C1351 C1356 1.490 . S
C1352 H1342 0.930 . S
C1352 C1351 1.400 . S
C1352 C1355 1.386 . S
H1353 C1369 0.930 . S
H1354 C1370 0.931 . S
C1355 H1343 0.929 . S
C1355 C1349 1.390 . S
C1355 C1352 1.386 . S
C1356 C1351 1.490 . S
C1356 C1358 1.395 . S
C1356 C1359 1.403 . S
H1357 C1363 0.930 . S
C1358 H1344 0.930 . S
C1358 C1356 1.395 . S
C1358 C1361 1.403 . S
C1359 C1356 1.403 . S
C1359 C1360 1.524 . S
C1359 C1363 1.400 . S
C1360 H1345 0.960 . S
C1360 H1346 0.960 . S
C1360 H1347 0.960 . S
C1360 C1359 1.524 . S
C1361 C1358 1.403 . S
C1361 C1362 1.392 . S
C1361 C1365 1.495 . S
C1362 C1361 1.392 . S
C1362 C1363 1.385 . S
C1362 C1364 1.478 . S
C1363 H1357 0.930 . S
C1363 C1359 1.400 . S
C1363 C1362 1.385 . S
C1364 C1362 1.478 . S
C1364 C1366 1.381 . S
C1364 C1370 1.383 . S
C1365 C1361 1.495 . S
C1365 H1371 0.959 . S
C1365 H1372 0.961 . S
C1365 H1373 0.960 . S
C1366 C1364 1.381 . S
C1366 C1367 1.394 . S
C1366 H1374 0.930 . S
C1367 C1366 1.394 . S
C1367 C1368 1.383 . S
C1367 H1375 0.929 . S
C1368 C1367 1.383 . S
C1368 C1369 1.377 . S
C1369 H1353 0.930 . S
C1369 C1368 1.377 . S
C1369 C1370 1.379 . S
C1370 H1354 0.931 . S
C1370 C1364 1.383 . S
C1370 C1369 1.379 . S
H1371 C1365 0.959 . S
H1372 C1365 0.961 . S
H1373 C1365 0.960 . S
H1374 C1366 0.930 . S
H1375 C1367 0.929 . S
H1376 C1384 0.929 . S
H1377 C1386 0.930 . S
H1378 C1388 0.930 . S
H1379 C1391 0.929 . S
H1380 C1394 0.930 . S
H1381 C1396 0.960 . S
H1382 C1396 0.960 . S
H1383 C1396 0.960 . S
C1384 H1376 0.929 . S
C1384 C1385 1.377 . S
C1384 C1386 1.384 . S
C1385 C1384 1.377 . S
C1385 C1391 1.390 . S
C1386 H1377 0.930 . S
C1386 C1384 1.384 . S
C1386 C1387 1.372 . S
C1387 C1386 1.372 . S
C1387 C1388 1.400 . S
C1387 C1392 1.490 . S
C1388 H1378 0.930 . S
C1388 C1387 1.400 . S
C1388 C1391 1.386 . S
H1389 C1405 0.930 . S
H1390 C1406 0.931 . S
C1391 H1379 0.929 . S
C1391 C1385 1.390 . S
C1391 C1388 1.386 . S
C1392 C1387 1.490 . S
C1392 C1394 1.395 . S
C1392 C1395 1.403 . S
H1393 C1399 0.930 . S
C1394 H1380 0.930 . S
C1394 C1392 1.395 . S
C1394 C1397 1.403 . S
C1395 C1392 1.403 . S
C1395 C1396 1.524 . S
C1395 C1399 1.400 . S
C1396 H1381 0.960 . S
C1396 H1382 0.960 . S
C1396 H1383 0.960 . S
C1396 C1395 1.524 . S
C1397 C1394 1.403 . S
C1397 C1398 1.392 . S
C1397 C1401 1.495 . S
C1398 C1397 1.392 . S
C1398 C1399 1.385 . S
C1398 C1400 1.478 . S
C1399 H1393 0.930 . S
C1399 C1395 1.400 . S
C1399 C1398 1.385 . S
C1400 C1398 1.478 . S
C1400 C1402 1.381 . S
C1400 C1406 1.383 . S
C1401 C1397 1.495 . S
C1401 H1407 0.959 . S
C1401 H1408 0.961 . S
C1401 H1409 0.960 . S
C1402 C1400 1.381 . S
C1402 C1403 1.394 . S
C1402 H1410 0.930 . S
C1403 C1402 1.394 . S
C1403 C1404 1.383 . S
C1403 H1411 0.929 . S
C1404 C1403 1.383 . S
C1404 C1405 1.377 . S
C1405 H1389 0.930 . S
C1405 C1404 1.377 . S
C1405 C1406 1.379 . S
C1406 H1390 0.931 . S
C1406 C1400 1.383 . S
C1406 C1405 1.379 . S
H1407 C1401 0.959 . S
H1408 C1401 0.961 . S
H1409 C1401 0.960 . S
H1410 C1402 0.930 . S
H1411 C1403 0.929 . S
H1412 C1420 0.929 . S
H1413 C1422 0.930 . S
H1414 C1424 0.930 . S
H1415 C1427 0.929 . S
H1416 C1430 0.930 . S
H1417 C1432 0.960 . S
H1418 C1432 0.960 . S
H1419 C1432 0.960 . S
C1420 H1412 0.929 . S
C1420 C1421 1.377 . S
C1420 C1422 1.384 . S
C1421 C1420 1.377 . S
C1421 C1427 1.390 . S
C1422 H1413 0.930 . S
C1422 C1420 1.384 . S
C1422 C1423 1.372 . S
C1423 C1422 1.372 . S
C1423 C1424 1.400 . S
C1423 C1428 1.490 . S
C1424 H1414 0.930 . S
C1424 C1423 1.400 . S
C1424 C1427 1.386 . S
H1425 C1441 0.930 . S
H1426 C1442 0.931 . S
C1427 H1415 0.929 . S
C1427 C1421 1.390 . S
C1427 C1424 1.386 . S
C1428 C1423 1.490 . S
C1428 C1430 1.395 . S
C1428 C1431 1.403 . S
H1429 C1435 0.930 . S
C1430 H1416 0.930 . S
C1430 C1428 1.395 . S
C1430 C1433 1.403 . S
C1431 C1428 1.403 . S
C1431 C1432 1.524 . S
C1431 C1435 1.400 . S
C1432 H1417 0.960 . S
C1432 H1418 0.960 . S
C1432 H1419 0.960 . S
C1432 C1431 1.524 . S
C1433 C1430 1.403 . S
C1433 C1434 1.392 . S
C1433 C1437 1.495 . S
C1434 C1433 1.392 . S
C1434 C1435 1.385 . S
C1434 C1436 1.478 . S
C1435 H1429 0.930 . S
C1435 C1431 1.400 . S
C1435 C1434 1.385 . S
C1436 C1434 1.478 . S
C1436 C1438 1.381 . S
C1436 C1442 1.383 . S
C1437 C1433 1.495 . S
C1437 H1443 0.959 . S
C1437 H1444 0.961 . S
C1437 H1445 0.960 . S
C1438 C1436 1.381 . S
C1438 C1439 1.394 . S
C1438 H1446 0.930 . S
C1439 C1438 1.394 . S
C1439 C1440 1.383 . S
C1439 H1447 0.929 . S
C1440 C1439 1.383 . S
C1440 C1441 1.377 . S
C1441 H1425 0.930 . S
C1441 C1440 1.377 . S
C1441 C1442 1.379 . S
C1442 H1426 0.931 . S
C1442 C1436 1.383 . S
C1442 C1441 1.379 . S
H1443 C1437 0.959 . S
H1444 C1437 0.961 . S
H1445 C1437 0.960 . S
H1446 C1438 0.930 . S
H1447 C1439 0.929 . S
H1448 C1456 0.929 . S
H1449 C1458 0.930 . S
H1450 C1460 0.930 . S
H1451 C1463 0.929 . S
H1452 C1466 0.930 . S
H1453 C1468 0.960 . S
H1454 C1468 0.960 . S
H1455 C1468 0.960 . S
C1456 H1448 0.929 . S
C1456 C1457 1.377 . S
C1456 C1458 1.384 . S
C1457 C1456 1.377 . S
C1457 C1463 1.390 . S
C1458 H1449 0.930 . S
C1458 C1456 1.384 . S
C1458 C1459 1.372 . S
C1459 C1458 1.372 . S
C1459 C1460 1.400 . S
C1459 C1464 1.490 . S
C1460 H1450 0.930 . S
C1460 C1459 1.400 . S
C1460 C1463 1.386 . S
H1461 C1477 0.930 . S
H1462 C1478 0.931 . S
C1463 H1451 0.929 . S
C1463 C1457 1.390 . S
C1463 C1460 1.386 . S
C1464 C1459 1.490 . S
C1464 C1466 1.395 . S
C1464 C1467 1.403 . S
H1465 C1471 0.930 . S
C1466 H1452 0.930 . S
C1466 C1464 1.395 . S
C1466 C1469 1.403 . S
C1467 C1464 1.403 . S
C1467 C1468 1.524 . S
C1467 C1471 1.400 . S
C1468 H1453 0.960 . S
C1468 H1454 0.960 . S
C1468 H1455 0.960 . S
C1468 C1467 1.524 . S
C1469 C1466 1.403 . S
C1469 C1470 1.392 . S
C1469 C1473 1.495 . S
C1470 C1469 1.392 . S
C1470 C1471 1.385 . S
C1470 C1472 1.478 . S
C1471 H1465 0.930 . S
C1471 C1467 1.400 . S
C1471 C1470 1.385 . S
C1472 C1470 1.478 . S
C1472 C1474 1.381 . S
C1472 C1478 1.383 . S
C1473 C1469 1.495 . S
C1473 H1479 0.959 . S
C1473 H1480 0.961 . S
C1473 H1481 0.960 . S
C1474 C1472 1.381 . S
C1474 C1475 1.394 . S
C1474 H1482 0.930 . S
C1475 C1474 1.394 . S
C1475 C1476 1.383 . S
C1475 H1483 0.929 . S
C1476 C1475 1.383 . S
C1476 C1477 1.377 . S
C1477 H1461 0.930 . S
C1477 C1476 1.377 . S
C1477 C1478 1.379 . S
C1478 H1462 0.931 . S
C1478 C1472 1.383 . S
C1478 C1477 1.379 . S
H1479 C1473 0.959 . S
H1480 C1473 0.961 . S
H1481 C1473 0.960 . S
H1482 C1474 0.930 . S
H1483 C1475 0.929 . S
H1484 C1492 0.929 . S
H1485 C1494 0.930 . S
H1486 C1496 0.930 . S
H1487 C1499 0.929 . S
H1488 C1502 0.930 . S
H1489 C1504 0.960 . S
H1490 C1504 0.960 . S
H1491 C1504 0.960 . S
C1492 H1484 0.929 . S
C1492 C1493 1.377 . S
C1492 C1494 1.384 . S
C1493 C1492 1.377 . S
C1493 C1499 1.390 . S
C1494 H1485 0.930 . S
C1494 C1492 1.384 . S
C1494 C1495 1.372 . S
C1495 C1494 1.372 . S
C1495 C1496 1.400 . S
C1495 C1500 1.490 . S
C1496 H1486 0.930 . S
C1496 C1495 1.400 . S
C1496 C1499 1.386 . S
H1497 C1513 0.930 . S
H1498 C1514 0.931 . S
C1499 H1487 0.929 . S
C1499 C1493 1.390 . S
C1499 C1496 1.386 . S
C1500 C1495 1.490 . S
C1500 C1502 1.395 . S
C1500 C1503 1.403 . S
H1501 C1507 0.930 . S
C1502 H1488 0.930 . S
C1502 C1500 1.395 . S
C1502 C1505 1.403 . S
C1503 C1500 1.403 . S
C1503 C1504 1.524 . S
C1503 C1507 1.400 . S
C1504 H1489 0.960 . S
C1504 H1490 0.960 . S
C1504 H1491 0.960 . S
C1504 C1503 1.524 . S
C1505 C1502 1.403 . S
C1505 C1506 1.392 . S
C1505 C1509 1.495 . S
C1506 C1505 1.392 . S
C1506 C1507 1.385 . S
C1506 C1508 1.478 . S
C1507 H1501 0.930 . S
C1507 C1503 1.400 . S
C1507 C1506 1.385 . S
C1508 C1506 1.478 . S
C1508 C1510 1.381 . S
C1508 C1514 1.383 . S
C1509 C1505 1.495 . S
C1509 H1515 0.959 . S
C1509 H1516 0.961 . S
C1509 H1517 0.960 . S
C1510 C1508 1.381 . S
C1510 C1511 1.394 . S
C1510 H1518 0.930 . S
C1511 C1510 1.394 . S
C1511 C1512 1.383 . S
C1511 H1519 0.929 . S
C1512 C1511 1.383 . S
C1512 C1513 1.377 . S
C1513 H1497 0.930 . S
C1513 C1512 1.377 . S
C1513 C1514 1.379 . S
C1514 H1498 0.931 . S
C1514 C1508 1.383 . S
C1514 C1513 1.379 . S
H1515 C1509 0.959 . S
H1516 C1509 0.961 . S
H1517 C1509 0.960 . S
H1518 C1510 0.930 . S
H1519 C1511 0.929 . S
H1520 C1528 0.929 . S
H1521 C1530 0.930 . S
H1522 C1532 0.930 . S
H1523 C1535 0.929 . S
H1524 C1538 0.930 . S
H1525 C1540 0.960 . S
H1526 C1540 0.960 . S
H1527 C1540 0.960 . S
C1528 H1520 0.929 . S
C1528 C1529 1.377 . S
C1528 C1530 1.384 . S
C1529 C1528 1.377 . S
C1529 C1535 1.390 . S
C1530 H1521 0.930 . S
C1530 C1528 1.384 . S
C1530 C1531 1.372 . S
C1531 C1530 1.372 . S
C1531 C1532 1.400 . S
C1531 C1536 1.490 . S
C1532 H1522 0.930 . S
C1532 C1531 1.400 . S
C1532 C1535 1.386 . S
H1533 C1549 0.930 . S
H1534 C1550 0.931 . S
C1535 H1523 0.929 . S
C1535 C1529 1.390 . S
C1535 C1532 1.386 . S
C1536 C1531 1.490 . S
C1536 C1538 1.395 . S
C1536 C1539 1.403 . S
H1537 C1543 0.930 . S
C1538 H1524 0.930 . S
C1538 C1536 1.395 . S
C1538 C1541 1.403 . S
C1539 C1536 1.403 . S
C1539 C1540 1.524 . S
C1539 C1543 1.400 . S
C1540 H1525 0.960 . S
C1540 H1526 0.960 . S
C1540 H1527 0.960 . S
C1540 C1539 1.524 . S
C1541 C1538 1.403 . S
C1541 C1542 1.392 . S
C1541 C1545 1.495 . S
C1542 C1541 1.392 . S
C1542 C1543 1.385 . S
C1542 C1544 1.478 . S
C1543 H1537 0.930 . S
C1543 C1539 1.400 . S
C1543 C1542 1.385 . S
C1544 C1542 1.478 . S
C1544 C1546 1.381 . S
C1544 C1550 1.383 . S
C1545 C1541 1.495 . S
C1545 H1551 0.959 . S
C1545 H1552 0.961 . S
C1545 H1553 0.960 . S
C1546 C1544 1.381 . S
C1546 C1547 1.394 . S
C1546 H1554 0.930 . S
C1547 C1546 1.394 . S
C1547 C1548 1.383 . S
C1547 H1555 0.929 . S
C1548 C1547 1.383 . S
C1548 C1549 1.377 . S
C1549 H1533 0.930 . S
C1549 C1548 1.377 . S
C1549 C1550 1.379 . S
C1550 H1534 0.931 . S
C1550 C1544 1.383 . S
C1550 C1549 1.379 . S
H1551 C1545 0.959 . S
H1552 C1545 0.961 . S
H1553 C1545 0.960 . S
H1554 C1546 0.930 . S
H1555 C1547 0.929 . S
H1556 C1564 0.929 . S
H1557 C1566 0.930 . S
H1558 C1568 0.930 . S
H1559 C1571 0.929 . S
H1560 C1574 0.930 . S
H1561 C1576 0.960 . S
H1562 C1576 0.960 . S
H1563 C1576 0.960 . S
C1564 H1556 0.929 . S
C1564 C1565 1.377 . S
C1564 C1566 1.384 . S
C1565 C1564 1.377 . S
C1565 C1571 1.390 . S
C1566 H1557 0.930 . S
C1566 C1564 1.384 . S
C1566 C1567 1.372 . S
C1567 C1566 1.372 . S
C1567 C1568 1.400 . S
C1567 C1572 1.490 . S
C1568 H1558 0.930 . S
C1568 C1567 1.400 . S
C1568 C1571 1.386 . S
H1569 C1585 0.930 . S
H1570 C1586 0.931 . S
C1571 H1559 0.929 . S
C1571 C1565 1.390 . S
C1571 C1568 1.386 . S
C1572 C1567 1.490 . S
C1572 C1574 1.395 . S
C1572 C1575 1.403 . S
H1573 C1579 0.930 . S
C1574 H1560 0.930 . S
C1574 C1572 1.395 . S
C1574 C1577 1.403 . S
C1575 C1572 1.403 . S
C1575 C1576 1.524 . S
C1575 C1579 1.400 . S
C1576 H1561 0.960 . S
C1576 H1562 0.960 . S
C1576 H1563 0.960 . S
C1576 C1575 1.524 . S
C1577 C1574 1.403 . S
C1577 C1578 1.392 . S
C1577 C1581 1.495 . S
C1578 C1577 1.392 . S
C1578 C1579 1.385 . S
C1578 C1580 1.478 . S
C1579 H1573 0.930 . S
C1579 C1575 1.400 . S
C1579 C1578 1.385 . S
C1580 C1578 1.478 . S
C1580 C1582 1.381 . S
C1580 C1586 1.383 . S
C1581 C1577 1.495 . S
C1581 H1587 0.959 . S
C1581 H1588 0.961 . S
C1581 H1589 0.960 . S
C1582 C1580 1.381 . S
C1582 C1583 1.394 . S
C1582 H1590 0.930 . S
C1583 C1582 1.394 . S
C1583 C1584 1.383 . S
C1583 H1591 0.929 . S
C1584 C1583 1.383 . S
C1584 C1585 1.377 . S
C1585 H1569 0.930 . S
C1585 C1584 1.377 . S
C1585 C1586 1.379 . S
C1586 H1570 0.931 . S
C1586 C1580 1.383 . S
C1586 C1585 1.379 . S
H1587 C1581 0.959 . S
H1588 C1581 0.961 . S
H1589 C1581 0.960 . S
H1590 C1582 0.930 . S
H1591 C1583 0.929 . S
H1592 C1600 0.929 . S
H1593 C1602 0.930 . S
H1594 C1604 0.930 . S
H1595 C1607 0.929 . S
H1596 C1610 0.930 . S
H1597 C1612 0.960 . S
H1598 C1612 0.960 . S
H1599 C1612 0.960 . S
C1600 H1592 0.929 . S
C1600 C1601 1.377 . S
C1600 C1602 1.384 . S
C1601 C1600 1.377 . S
C1601 C1607 1.390 . S
C1602 H1593 0.930 . S
C1602 C1600 1.384 . S
C1602 C1603 1.372 . S
C1603 C1602 1.372 . S
C1603 C1604 1.400 . S
C1603 C1608 1.490 . S
C1604 H1594 0.930 . S
C1604 C1603 1.400 . S
C1604 C1607 1.386 . S
H1605 C1621 0.930 . S
H1606 C1622 0.931 . S
C1607 H1595 0.929 . S
C1607 C1601 1.390 . S
C1607 C1604 1.386 . S
C1608 C1603 1.490 . S
C1608 C1610 1.395 . S
C1608 C1611 1.403 . S
H1609 C1615 0.930 . S
C1610 H1596 0.930 . S
C1610 C1608 1.395 . S
C1610 C1613 1.403 . S
C1611 C1608 1.403 . S
C1611 C1612 1.524 . S
C1611 C1615 1.400 . S
C1612 H1597 0.960 . S
C1612 H1598 0.960 . S
C1612 H1599 0.960 . S
C1612 C1611 1.524 . S
C1613 C1610 1.403 . S
C1613 C1614 1.392 . S
C1613 C1617 1.495 . S
C1614 C1613 1.392 . S
C1614 C1615 1.385 . S
C1614 C1616 1.478 . S
C1615 H1609 0.930 . S
C1615 C1611 1.400 . S
C1615 C1614 1.385 . S
C1616 C1614 1.478 . S
C1616 C1618 1.381 . S
C1616 C1622 1.383 . S
C1617 C1613 1.495 . S
C1617 H1623 0.959 . S
C1617 H1624 0.961 . S
C1617 H1625 0.960 . S
C1618 C1616 1.381 . S
C1618 C1619 1.394 . S
C1618 H1626 0.930 . S
C1619 C1618 1.394 . S
C1619 C1620 1.383 . S
C1619 H1627 0.929 . S
C1620 C1619 1.383 . S
C1620 C1621 1.377 . S
C1621 H1605 0.930 . S
C1621 C1620 1.377 . S
C1621 C1622 1.379 . S
C1622 H1606 0.931 . S
C1622 C1616 1.383 . S
C1622 C1621 1.379 . S
H1623 C1617 0.959 . S
H1624 C1617 0.961 . S
H1625 C1617 0.960 . S
H1626 C1618 0.930 . S
H1627 C1619 0.929 . S
H1628 C1636 0.929 . S
H1629 C1638 0.930 . S
H1630 C1640 0.930 . S
H1631 C1643 0.929 . S
H1632 C1646 0.930 . S
H1633 C1648 0.960 . S
H1634 C1648 0.960 . S
H1635 C1648 0.960 . S
C1636 H1628 0.929 . S
C1636 C1637 1.377 . S
C1636 C1638 1.384 . S
C1637 C1636 1.377 . S
C1637 C1643 1.390 . S
C1638 H1629 0.930 . S
C1638 C1636 1.384 . S
C1638 C1639 1.372 . S
C1639 C1638 1.372 . S
C1639 C1640 1.400 . S
C1639 C1644 1.490 . S
C1640 H1630 0.930 . S
C1640 C1639 1.400 . S
C1640 C1643 1.386 . S
H1641 C1657 0.930 . S
H1642 C1658 0.931 . S
C1643 H1631 0.929 . S
C1643 C1637 1.390 . S
C1643 C1640 1.386 . S
C1644 C1639 1.490 . S
C1644 C1646 1.395 . S
C1644 C1647 1.403 . S
H1645 C1651 0.930 . S
C1646 H1632 0.930 . S
C1646 C1644 1.395 . S
C1646 C1649 1.403 . S
C1647 C1644 1.403 . S
C1647 C1648 1.524 . S
C1647 C1651 1.400 . S
C1648 H1633 0.960 . S
C1648 H1634 0.960 . S
C1648 H1635 0.960 . S
C1648 C1647 1.524 . S
C1649 C1646 1.403 . S
C1649 C1650 1.392 . S
C1649 C1653 1.495 . S
C1650 C1649 1.392 . S
C1650 C1651 1.385 . S
C1650 C1652 1.478 . S
C1651 H1645 0.930 . S
C1651 C1647 1.400 . S
C1651 C1650 1.385 . S
C1652 C1650 1.478 . S
C1652 C1654 1.381 . S
C1652 C1658 1.383 . S
C1653 C1649 1.495 . S
C1653 H1659 0.959 . S
C1653 H1660 0.961 . S
C1653 H1661 0.960 . S
C1654 C1652 1.381 . S
C1654 C1655 1.394 . S
C1654 H1662 0.930 . S
C1655 C1654 1.394 . S
C1655 C1656 1.383 . S
C1655 H1663 0.929 . S
C1656 C1655 1.383 . S
C1656 C1657 1.377 . S
C1657 H1641 0.930 . S
C1657 C1656 1.377 . S
C1657 C1658 1.379 . S
C1658 H1642 0.931 . S
C1658 C1652 1.383 . S
C1658 C1657 1.379 . S
H1659 C1653 0.959 . S
H1660 C1653 0.961 . S
H1661 C1653 0.960 . S
H1662 C1654 0.930 . S
H1663 C1655 0.929 . S
H1664 C1672 0.929 . S
H1665 C1674 0.930 . S
H1666 C1676 0.930 . S
H1667 C1679 0.929 . S
H1668 C1682 0.930 . S
H1669 C1684 0.992 . S
H1670 C1684 0.960 . S
H1671 C1684 0.960 . S
C1672 H1664 0.929 . S
C1672 C1673 1.377 . S
C1672 C1674 1.384 . S
C1673 C1672 1.377 . S
C1673 C1679 1.390 . S
C1674 H1665 0.930 . S
C1674 C1672 1.384 . S
C1674 C1675 1.372 . S
C1675 C1674 1.372 . S
C1675 C1676 1.400 . S
C1675 C1680 1.490 . S
C1676 H1666 0.930 . S
C1676 C1675 1.400 . S
C1676 C1679 1.386 . S
H1677 C1693 0.930 . S
H1678 C1694 0.931 . S
C1679 H1667 0.929 . S
C1679 C1673 1.390 . S
C1679 C1676 1.386 . S
C1680 C1675 1.490 . S
C1680 C1682 1.395 . S
C1680 C1683 1.403 . S
H1681 C1687 0.930 . S
C1682 H1668 0.930 . S
C1682 C1680 1.395 . S
C1682 C1685 1.403 1_655 S
C1683 C1680 1.403 . S
C1683 C1684 1.524 . S
C1683 C1687 1.400 1_655 S
C1684 H1669 0.992 . S
C1684 H1670 0.960 . S
C1684 H1671 0.960 . S
C1684 C1683 1.524 . S
C1685 C1682 1.403 1_455 S
C1685 C1686 1.392 . S
C1685 C1689 1.495 . S
C1686 C1685 1.392 . S
C1686 C1687 1.385 . S
C1686 C1688 1.478 . S
C1687 H1681 0.930 . S
C1687 C1683 1.400 1_455 S
C1687 C1686 1.385 . S
C1688 C1686 1.478 . S
C1688 C1690 1.381 . S
C1688 C1694 1.383 . S
C1689 C1685 1.495 . S
C1689 H1695 0.956 1_455 S
C1689 H1696 0.961 . S
C1689 H1697 0.960 . S
C1690 C1688 1.381 . S
C1690 C1691 1.394 . S
C1690 H1698 0.930 . S
C1691 C1690 1.394 . S
C1691 C1692 1.383 . S
C1691 H1699 0.929 . S
C1692 C1691 1.383 . S
C1692 C1693 1.377 . S
C1693 H1677 0.930 . S
C1693 C1692 1.377 . S
C1693 C1694 1.379 . S
C1694 H1678 0.931 . S
C1694 C1688 1.383 . S
C1694 C1693 1.379 . S
H1695 C1689 0.956 1_655 S
H1696 C1689 0.961 . S
H1697 C1689 0.960 . S
H1698 C1690 0.930 . S
H1699 C1691 0.929 . S
H1700 C1708 0.929 . S
H1701 C1710 0.930 1_455 S
H1702 C1712 0.930 . S
H1703 C1715 0.929 . S
H1704 C1718 0.930 . S
H1705 C1720 0.960 . S
H1706 C1720 0.960 . S
H1707 C1720 0.960 . S
C1708 H1700 0.929 . S
C1708 C1709 1.377 . S
C1708 C1710 1.384 . S
C1709 C1708 1.377 . S
C1709 C1715 1.390 . S
C1710 H1701 0.930 1_655 S
C1710 C1708 1.384 . S
C1710 C1711 1.372 . S
C1711 C1710 1.372 . S
C1711 C1712 1.400 . S
C1711 C1716 1.490 . S
C1712 H1702 0.930 . S
C1712 C1711 1.400 . S
C1712 C1715 1.386 . S
H1713 C1729 0.930 . S
H1714 C1730 0.931 1_655 S
C1715 H1703 0.929 . S
C1715 C1709 1.390 . S
C1715 C1712 1.386 . S
C1716 C1711 1.490 . S
C1716 C1718 1.395 1_655 S
C1716 C1719 1.403 . S
H1717 C1723 0.930 . S
C1718 H1704 0.930 . S
C1718 C1716 1.395 1_455 S
C1718 C1721 1.403 . S
C1719 C1716 1.403 . S
C1719 C1720 1.524 . S
C1719 C1723 1.400 . S
C1720 H1705 0.960 . S
C1720 H1706 0.960 . S
C1720 H1707 0.960 . S
C1720 C1719 1.524 . S
C1721 C1718 1.403 . S
C1721 C1722 1.392 . S
C1721 C1725 1.495 . S
C1722 C1721 1.392 . S
C1722 C1723 1.385 1_455 S
C1722 C1724 1.478 . S
C1723 H1717 0.930 . S
C1723 C1719 1.400 . S
C1723 C1722 1.385 1_655 S
C1724 C1722 1.478 . S
C1724 C1726 1.381 . S
C1724 C1730 1.383 . S
C1725 C1721 1.495 . S
C1725 H1731 0.959 . S
C1725 H1732 0.961 . S
C1725 H1733 0.960 . S
C1726 C1724 1.381 . S
C1726 C1727 1.394 . S
C1726 H1734 0.930 . S
C1727 C1726 1.394 . S
C1727 C1728 1.383 . S
C1727 H1735 0.929 . S
C1728 C1727 1.383 . S
C1728 C1729 1.377 . S
C1729 H1713 0.930 . S
C1729 C1728 1.377 . S
C1729 C1730 1.379 . S
C1730 H1714 0.931 1_455 S
C1730 C1724 1.383 . S
C1730 C1729 1.379 . S
H1731 C1725 0.959 . S
H1732 C1725 0.961 . S
H1733 C1725 0.960 . S
H1734 C1726 0.930 . S
H1735 C1727 0.929 . S
H1736 C1744 0.929 . S
H1737 C1746 0.930 . S
H1738 C1748 0.930 . S
H1739 C1751 0.929 . S
H1740 C1754 0.930 . S
H1741 C1756 0.960 . S
H1742 C1756 0.960 . S
H1743 C1756 0.960 . S
C1744 H1736 0.929 . S
C1744 C1745 1.377 . S
C1744 C1746 1.384 . S
C1745 C1744 1.377 . S
C1745 C1751 1.390 . S
C1746 H1737 0.930 . S
C1746 C1744 1.384 . S
C1746 C1747 1.372 . S
C1747 C1746 1.372 . S
C1747 C1748 1.400 . S
C1747 C1752 1.490 . S
C1748 H1738 0.930 . S
C1748 C1747 1.400 . S
C1748 C1751 1.386 . S
H1749 C1765 0.930 . S
H1750 C1766 0.931 . S
C1751 H1739 0.929 . S
C1751 C1745 1.390 . S
C1751 C1748 1.386 . S
C1752 C1747 1.490 . S
C1752 C1754 1.395 . S
C1752 C1755 1.403 . S
H1753 C1759 0.930 . S
C1754 H1740 0.930 . S
C1754 C1752 1.395 . S
C1754 C1757 1.403 . S
C1755 C1752 1.403 . S
C1755 C1756 1.524 . S
C1755 C1759 1.400 . S
C1756 H1741 0.960 . S
C1756 H1742 0.960 . S
C1756 H1743 0.960 . S
C1756 C1755 1.524 . S
C1757 C1754 1.403 . S
C1757 C1758 1.392 . S
C1757 C1761 1.495 . S
C1758 C1757 1.392 . S
C1758 C1759 1.385 . S
C1758 C1760 1.478 . S
C1759 H1753 0.930 . S
C1759 C1755 1.400 . S
C1759 C1758 1.385 . S
C1760 C1758 1.478 . S
C1760 C1762 1.381 . S
C1760 C1766 1.383 . S
C1761 C1757 1.495 . S
C1761 H1767 0.959 . S
C1761 H1768 0.961 . S
C1761 H1769 0.960 . S
C1762 C1760 1.381 . S
C1762 C1763 1.394 . S
C1762 H1770 0.930 . S
C1763 C1762 1.394 . S
C1763 C1764 1.383 . S
C1763 H1771 0.929 . S
C1764 C1763 1.383 . S
C1764 C1765 1.377 . S
C1765 H1749 0.930 . S
C1765 C1764 1.377 . S
C1765 C1766 1.379 . S
C1766 H1750 0.931 . S
C1766 C1760 1.383 . S
C1766 C1765 1.379 . S
H1767 C1761 0.959 . S
H1768 C1761 0.961 . S
H1769 C1761 0.960 . S
H1770 C1762 0.930 . S
H1771 C1763 0.929 . S
H1772 C1780 0.929 . S
H1773 C1782 0.930 . S
H1774 C1784 0.930 . S
H1775 C1787 0.929 . S
H1776 C1790 0.930 1_556 S
H1777 C1792 0.960 . S
H1778 C1792 0.960 . S
H1779 C1792 0.960 . S
C1780 H1772 0.929 . S
C1780 C1781 1.377 . S
C1780 C1782 1.384 . S
C1781 C1780 1.377 . S
C1781 C1787 1.390 . S
C1782 H1773 0.930 . S
C1782 C1780 1.384 . S
C1782 C1783 1.372 . S
C1783 C1782 1.372 . S
C1783 C1784 1.400 . S
C1783 C1788 1.490 . S
C1784 H1774 0.930 . S
C1784 C1783 1.400 . S
C1784 C1787 1.386 . S
H1785 C1801 0.930 . S
H1786 C1802 0.931 . S
C1787 H1775 0.929 . S
C1787 C1781 1.390 . S
C1787 C1784 1.386 . S
C1788 C1783 1.490 . S
C1788 C1790 1.395 . S
C1788 C1791 1.403 . S
H1789 C1795 0.930 . S
C1790 H1776 0.930 1_554 S
C1790 C1788 1.395 . S
C1790 C1793 1.403 . S
C1791 C1788 1.403 . S
C1791 C1792 1.524 . S
C1791 C1795 1.400 . S
C1792 H1777 0.960 . S
C1792 H1778 0.960 . S
C1792 H1779 0.960 . S
C1792 C1791 1.524 . S
C1793 C1790 1.403 . S
C1793 C1794 1.392 . S
C1793 C1797 1.495 1_554 S
C1794 C1793 1.392 . S
C1794 C1795 1.385 . S
C1794 C1796 1.478 . S
C1795 H1789 0.930 . S
C1795 C1791 1.400 . S
C1795 C1794 1.385 . S
C1796 C1794 1.478 . S
C1796 C1798 1.381 . S
C1796 C1802 1.383 . S
C1797 C1793 1.495 1_556 S
C1797 H1803 0.959 . S
C1797 H1804 0.961 . S
C1797 H1805 0.960 . S
C1798 C1796 1.381 . S
C1798 C1799 1.394 . S
C1798 H1806 0.930 . S
C1799 C1798 1.394 . S
C1799 C1800 1.383 . S
C1799 H1807 0.929 . S
C1800 C1799 1.383 . S
C1800 C1801 1.377 . S
C1801 H1785 0.930 . S
C1801 C1800 1.377 . S
C1801 C1802 1.379 . S
C1802 H1786 0.931 . S
C1802 C1796 1.383 . S
C1802 C1801 1.379 . S
H1803 C1797 0.959 . S
H1804 C1797 0.961 . S
H1805 C1797 0.960 . S
H1806 C1798 0.930 . S
H1807 C1799 0.929 . S
H1808 C1816 0.929 . S
H1809 C1818 0.930 . S
H1810 C1820 0.930 . S
H1811 C1823 0.929 . S
H1812 C1826 0.930 . S
H1813 C1828 0.960 . S
H1814 C1828 0.960 . S
H1815 C1828 0.960 . S
C1816 H1808 0.929 . S
C1816 C1817 1.377 . S
C1816 C1818 1.384 . S
C1817 C1816 1.377 . S
C1817 C1823 1.390 . S
C1818 H1809 0.930 . S
C1818 C1816 1.384 . S
C1818 C1819 1.372 . S
C1819 C1818 1.372 . S
C1819 C1820 1.400 . S
C1819 C1824 1.490 . S
C1820 H1810 0.930 . S
C1820 C1819 1.400 . S
C1820 C1823 1.386 . S
H1821 C1837 0.930 . S
H1822 C1838 0.931 . S
C1823 H1811 0.929 . S
C1823 C1817 1.390 . S
C1823 C1820 1.386 . S
C1824 C1819 1.490 . S
C1824 C1826 1.395 . S
C1824 C1827 1.403 . S
H1825 C1831 0.930 . S
C1826 H1812 0.930 . S
C1826 C1824 1.395 . S
C1826 C1829 1.403 1_655 S
C1827 C1824 1.403 . S
C1827 C1828 1.524 . S
C1827 C1831 1.400 1_655 S
C1828 H1813 0.960 . S
C1828 H1814 0.960 . S
C1828 H1815 0.960 . S
C1828 C1827 1.524 . S
C1829 C1826 1.403 1_455 S
C1829 C1830 1.392 . S
C1829 C1833 1.495 . S
C1830 C1829 1.392 . S
C1830 C1831 1.385 . S
C1830 C1832 1.478 . S
C1831 H1825 0.930 . S
C1831 C1827 1.400 1_455 S
C1831 C1830 1.385 . S
C1832 C1830 1.478 . S
C1832 C1834 1.381 . S
C1832 C1838 1.383 . S
C1833 C1829 1.495 . S
C1833 H1839 0.959 . S
C1833 H1840 0.961 . S
C1833 H1841 0.960 . S
C1834 C1832 1.381 . S
C1834 C1835 1.394 . S
C1834 H1842 0.930 . S
C1835 C1834 1.394 . S
C1835 C1836 1.383 . S
C1835 H1843 0.929 . S
C1836 C1835 1.383 . S
C1836 C1837 1.377 . S
C1837 H1821 0.930 . S
C1837 C1836 1.377 . S
C1837 C1838 1.379 . S
C1838 H1822 0.931 . S
C1838 C1832 1.383 . S
C1838 C1837 1.379 . S
H1839 C1833 0.959 . S
H1840 C1833 0.961 . S
H1841 C1833 0.960 . S
H1842 C1834 0.930 . S
H1843 C1835 0.929 . S
H1844 C1852 0.929 . S
H1845 C1854 0.930 . S
H1846 C1856 0.930 . S
H1847 C1859 0.929 . S
H1848 C1862 0.930 . S
H1849 C1864 0.960 . S
H1850 C1864 0.960 . S
H1851 C1864 0.960 . S
C1852 H1844 0.929 . S
C1852 C1853 1.377 . S
C1852 C1854 1.384 . S
C1853 C1852 1.377 . S
C1853 C1859 1.390 . S
C1854 H1845 0.930 . S
C1854 C1852 1.384 . S
C1854 C1855 1.372 . S
C1855 C1854 1.372 . S
C1855 C1856 1.400 . S
C1855 C1860 1.490 . S
C1856 H1846 0.930 . S
C1856 C1855 1.400 . S
C1856 C1859 1.386 . S
H1857 C1873 0.930 . S
H1858 C1874 0.931 . S
C1859 H1847 0.929 . S
C1859 C1853 1.390 . S
C1859 C1856 1.386 . S
C1860 C1855 1.490 . S
C1860 C1862 1.395 . S
C1860 C1863 1.403 . S
H1861 C1867 0.930 . S
C1862 H1848 0.930 . S
C1862 C1860 1.395 . S
C1862 C1865 1.403 . S
C1863 C1860 1.403 . S
C1863 C1864 1.524 . S
C1863 C1867 1.400 . S
C1864 H1849 0.960 . S
C1864 H1850 0.960 . S
C1864 H1851 0.960 . S
C1864 C1863 1.524 . S
C1865 C1862 1.403 . S
C1865 C1866 1.392 . S
C1865 C1869 1.495 . S
C1866 C1865 1.392 . S
C1866 C1867 1.385 . S
C1866 C1868 1.478 . S
C1867 H1861 0.930 . S
C1867 C1863 1.400 . S
C1867 C1866 1.385 . S
C1868 C1866 1.478 . S
C1868 C1870 1.381 . S
C1868 C1874 1.383 . S
C1869 C1865 1.495 . S
C1869 H1875 0.959 . S
C1869 H1876 0.961 . S
C1869 H1877 0.960 . S
C1870 C1868 1.381 . S
C1870 C1871 1.394 . S
C1870 H1878 0.930 . S
C1871 C1870 1.394 . S
C1871 C1872 1.383 . S
C1871 H1879 0.929 . S
C1872 C1871 1.383 . S
C1872 C1873 1.377 . S
C1873 H1857 0.930 . S
C1873 C1872 1.377 . S
C1873 C1874 1.379 . S
C1874 H1858 0.931 . S
C1874 C1868 1.383 . S
C1874 C1873 1.379 . S
H1875 C1869 0.959 . S
H1876 C1869 0.961 . S
H1877 C1869 0.960 . S
H1878 C1870 0.930 . S
H1879 C1871 0.929 . S
H1880 C1888 0.929 . S
H1881 C1890 0.930 . S
H1882 C1892 0.930 . S
H1883 C1895 0.929 . S
H1884 C1898 0.930 . S
H1885 C1900 0.960 . S
H1886 C1900 0.960 . S
H1887 C1900 0.960 . S
C1888 H1880 0.929 . S
C1888 C1889 1.377 . S
C1888 C1890 1.384 . S
C1889 C1888 1.377 . S
C1889 C1895 1.390 . S
C1890 H1881 0.930 . S
C1890 C1888 1.384 . S
C1890 C1891 1.372 . S
C1891 C1890 1.372 . S
C1891 C1892 1.400 . S
C1891 C1896 1.490 . S
C1892 H1882 0.930 . S
C1892 C1891 1.400 . S
C1892 C1895 1.386 . S
H1893 C1909 0.930 . S
H1894 C1910 0.931 . S
C1895 H1883 0.929 . S
C1895 C1889 1.390 . S
C1895 C1892 1.386 . S
C1896 C1891 1.490 . S
C1896 C1898 1.395 . S
C1896 C1899 1.403 . S
H1897 C1903 0.930 . S
C1898 H1884 0.930 . S
C1898 C1896 1.395 . S
C1898 C1901 1.403 . S
C1899 C1896 1.403 . S
C1899 C1900 1.524 . S
C1899 C1903 1.400 . S
C1900 H1885 0.960 . S
C1900 H1886 0.960 . S
C1900 H1887 0.960 . S
C1900 C1899 1.524 . S
C1901 C1898 1.403 . S
C1901 C1902 1.392 . S
C1901 C1905 1.495 . S
C1902 C1901 1.392 . S
C1902 C1903 1.385 . S
C1902 C1904 1.478 . S
C1903 H1897 0.930 . S
C1903 C1899 1.400 . S
C1903 C1902 1.385 . S
C1904 C1902 1.478 . S
C1904 C1906 1.381 . S
C1904 C1910 1.383 . S
C1905 C1901 1.495 . S
C1905 H1911 0.959 . S
C1905 H1912 0.961 . S
C1905 H1913 0.960 . S
C1906 C1904 1.381 . S
C1906 C1907 1.394 . S
C1906 H1914 0.930 . S
C1907 C1906 1.394 . S
C1907 C1908 1.383 . S
C1907 H1915 0.929 . S
C1908 C1907 1.383 . S
C1908 C1909 1.377 . S
C1909 H1893 0.930 . S
C1909 C1908 1.377 . S
C1909 C1910 1.379 . S
C1910 H1894 0.931 . S
C1910 C1904 1.383 . S
C1910 C1909 1.379 . S
H1911 C1905 0.959 . S
H1912 C1905 0.961 . S
H1913 C1905 0.960 . S
H1914 C1906 0.930 . S
H1915 C1907 0.929 . S
H1916 C1924 0.929 . S
H1917 C1926 0.930 1_655 S
H1918 C1928 0.930 . S
H1919 C1931 0.929 . S
H1920 C1934 0.930 . S
H1921 C1936 0.960 . S
H1922 C1936 0.960 . S
H1923 C1936 0.960 . S
C1924 H1916 0.929 . S
C1924 C1925 1.377 . S
C1924 C1926 1.384 . S
C1925 C1924 1.377 . S
C1925 C1931 1.390 . S
C1926 H1917 0.930 1_455 S
C1926 C1924 1.384 . S
C1926 C1927 1.372 . S
C1927 C1926 1.372 . S
C1927 C1928 1.400 . S
C1927 C1932 1.490 . S
C1928 H1918 0.930 . S
C1928 C1927 1.400 . S
C1928 C1931 1.386 . S
H1929 C1945 0.930 . S
H1930 C1946 0.931 1_455 S
C1931 H1919 0.929 . S
C1931 C1925 1.390 . S
C1931 C1928 1.386 . S
C1932 C1927 1.490 . S
C1932 C1934 1.395 1_455 S
C1932 C1935 1.403 . S
H1933 C1939 0.930 . S
C1934 H1920 0.930 . S
C1934 C1932 1.395 1_655 S
C1934 C1937 1.403 . S
C1935 C1932 1.403 . S
C1935 C1936 1.524 . S
C1935 C1939 1.400 . S
C1936 H1921 0.960 . S
C1936 H1922 0.960 . S
C1936 H1923 0.960 . S
C1936 C1935 1.524 . S
C1937 C1934 1.403 . S
C1937 C1938 1.392 . S
C1937 C1941 1.488 1_556 S
C1938 C1937 1.392 . S
C1938 C1939 1.385 1_655 S
C1938 C1940 1.478 . S
C1939 H1933 0.930 . S
C1939 C1935 1.400 . S
C1939 C1938 1.385 1_455 S
C1940 C1938 1.478 . S
C1940 C1942 1.381 . S
C1940 C1946 1.383 . S
C1941 C1937 1.488 1_554 S
C1941 H1947 0.964 . S
C1941 H1948 0.969 . S
C1941 H1949 0.954 1_554 S
C1942 C1940 1.381 . S
C1942 C1943 1.394 . S
C1942 H1950 0.930 . S
C1943 C1942 1.394 . S
C1943 C1944 1.383 . S
C1943 H1951 0.929 . S
C1944 C1943 1.383 . S
C1944 C1945 1.377 . S
C1945 H1929 0.930 . S
C1945 C1944 1.377 . S
C1945 C1946 1.379 . S
C1946 H1930 0.931 1_655 S
C1946 C1940 1.383 . S
C1946 C1945 1.379 . S
H1947 C1941 0.964 . S
H1948 C1941 0.969 . S
H1949 C1941 0.954 1_556 S
H1950 C1942 0.930 . S
H1951 C1943 0.929 . S
H1952 C1960 0.929 . S
H1953 C1962 0.930 . S
H1954 C1964 0.930 . S
H1955 C1967 0.929 . S
H1956 C1970 0.930 . S
H1957 C1972 0.960 . S
H1958 C1972 0.960 . S
H1959 C1972 0.960 . S
C1960 H1952 0.929 . S
C1960 C1961 1.377 . S
C1960 C1962 1.384 . S
C1961 C1960 1.377 . S
C1961 C1967 1.390 . S
C1962 H1953 0.930 . S
C1962 C1960 1.384 . S
C1962 C1963 1.372 . S
C1963 C1962 1.372 . S
C1963 C1964 1.400 . S
C1963 C1968 1.490 . S
C1964 H1954 0.930 . S
C1964 C1963 1.400 . S
C1964 C1967 1.386 . S
H1965 C1981 0.930 . S
H1966 C1982 0.931 . S
C1967 H1955 0.929 . S
C1967 C1961 1.390 . S
C1967 C1964 1.386 . S
C1968 C1963 1.490 . S
C1968 C1970 1.395 . S
C1968 C1971 1.403 . S
H1969 C1975 0.930 . S
C1970 H1956 0.930 . S
C1970 C1968 1.395 . S
C1970 C1973 1.403 1_655 S
C1971 C1968 1.403 . S
C1971 C1972 1.524 . S
C1971 C1975 1.400 1_655 S
C1972 H1957 0.960 . S
C1972 H1958 0.960 . S
C1972 H1959 0.960 . S
C1972 C1971 1.524 . S
C1973 C1970 1.403 1_455 S
C1973 C1974 1.392 . S
C1973 C1977 1.495 . S
C1974 C1973 1.392 . S
C1974 C1975 1.385 . S
C1974 C1976 1.478 . S
C1975 H1969 0.930 . S
C1975 C1971 1.400 1_455 S
C1975 C1974 1.385 . S
C1976 C1974 1.478 . S
C1976 C1978 1.381 . S
C1976 C1982 1.383 . S
C1977 C1973 1.495 . S
C1977 H1983 0.959 . S
C1977 H1984 0.961 . S
C1977 H1985 0.960 . S
C1978 C1976 1.381 . S
C1978 C1979 1.394 . S
C1978 H1986 0.930 . S
C1979 C1978 1.394 . S
C1979 C1980 1.383 . S
C1979 H1987 0.929 . S
C1980 C1979 1.383 . S
C1980 C1981 1.377 . S
C1981 H1965 0.930 . S
C1981 C1980 1.377 . S
C1981 C1982 1.379 . S
C1982 H1966 0.931 . S
C1982 C1976 1.383 . S
C1982 C1981 1.379 . S
H1983 C1977 0.959 . S
H1984 C1977 0.961 . S
H1985 C1977 0.960 . S
H1986 C1978 0.930 . S
H1987 C1979 0.929 . S
H1988 C1996 0.929 . S
H1989 C1998 0.930 . S
H1990 C2000 0.930 . S
H1991 C2003 0.929 . S
H1992 C2006 0.934 . S
H1993 C2008 0.960 . S
H1994 C2008 0.960 . S
H1995 C2008 0.960 . S
C1996 H1988 0.929 . S
C1996 C1997 1.377 . S
C1996 C1998 1.384 . S
C1997 C1996 1.377 . S
C1997 C2003 1.390 . S
C1998 H1989 0.930 . S
C1998 C1996 1.384 . S
C1998 C1999 1.372 . S
C1999 C1998 1.372 . S
C1999 C2000 1.400 . S
C1999 C2004 1.490 . S
C2000 H1990 0.930 . S
C2000 C1999 1.400 . S
C2000 C2003 1.386 . S
H2001 C2017 0.930 . S
H2002 C2018 0.931 . S
C2003 H1991 0.929 . S
C2003 C1997 1.390 . S
C2003 C2000 1.386 . S
C2004 C1999 1.490 . S
C2004 C2006 1.366 1_455 S
C2004 C2007 1.403 . S
H2005 C2011 0.932 . S
C2006 H1992 0.934 . S
C2006 C2004 1.366 1_655 S
C2006 C2009 1.432 . S
C2007 C2004 1.403 . S
C2007 C2008 1.524 . S
C2007 C2011 1.417 . S
C2008 H1993 0.960 . S
C2008 H1994 0.960 . S
C2008 H1995 0.960 . S
C2008 C2007 1.524 . S
C2009 C2006 1.432 . S
C2009 C2010 1.392 . S
C2009 C2013 1.495 . S
C2010 C2009 1.392 . S
C2010 C2011 1.367 1_655 S
C2010 C2012 1.478 . S
C2011 H2005 0.932 . S
C2011 C2007 1.417 . S
C2011 C2010 1.367 1_455 S
C2012 C2010 1.478 . S
C2012 C2014 1.381 . S
C2012 C2018 1.383 . S
C2013 C2009 1.495 . S
C2013 H2019 0.959 . S
C2013 H2020 0.961 . S
C2013 H2021 0.960 . S
C2014 C2012 1.381 . S
C2014 C2015 1.394 . S
C2014 H2022 0.964 . S
C2015 C2014 1.394 . S
C2015 C2016 1.383 . S
C2015 H2023 0.929 . S
C2016 C2015 1.383 . S
C2016 C2017 1.377 . S
C2017 H2001 0.930 . S
C2017 C2016 1.377 . S
C2017 C2018 1.379 . S
C2018 H2002 0.931 . S
C2018 C2012 1.383 . S
C2018 C2017 1.379 . S
H2019 C2013 0.959 . S
H2020 C2013 0.961 . S
H2021 C2013 0.960 . S
H2022 C2014 0.964 . S
H2023 C2015 0.929 . S
H2024 C2032 0.929 . S
H2025 C2034 0.930 . S
H2026 C2036 0.930 . S
H2027 C2039 0.929 . S
H2028 C2042 0.930 . S
H2029 C2044 0.960 . S
H2030 C2044 0.960 . S
H2031 C2044 0.960 . S
C2032 H2024 0.929 . S
C2032 C2033 1.377 . S
C2032 C2034 1.384 . S
C2033 C2032 1.377 . S
C2033 C2039 1.390 . S
C2034 H2025 0.930 . S
C2034 C2032 1.384 . S
C2034 C2035 1.372 . S
C2035 C2034 1.372 . S
C2035 C2036 1.400 . S
C2035 C2040 1.490 . S
C2036 H2026 0.930 . S
C2036 C2035 1.400 . S
C2036 C2039 1.386 . S
H2037 C2053 0.930 . S
H2038 C2054 0.931 . S
C2039 H2027 0.929 . S
C2039 C2033 1.390 . S
C2039 C2036 1.386 . S
C2040 C2035 1.490 . S
C2040 C2042 1.395 . S
C2040 C2043 1.403 . S
H2041 C2047 0.930 . S
C2042 H2028 0.930 . S
C2042 C2040 1.395 . S
C2042 C2045 1.403 . S
C2043 C2040 1.403 . S
C2043 C2044 1.524 . S
C2043 C2047 1.400 . S
C2044 H2029 0.960 . S
C2044 H2030 0.960 . S
C2044 H2031 0.960 . S
C2044 C2043 1.524 . S
C2045 C2042 1.403 . S
C2045 C2046 1.392 . S
C2045 C2049 1.495 . S
C2046 C2045 1.392 . S
C2046 C2047 1.385 . S
C2046 C2048 1.478 . S
C2047 H2041 0.930 . S
C2047 C2043 1.400 . S
C2047 C2046 1.385 . S
C2048 C2046 1.478 . S
C2048 C2050 1.381 . S
C2048 C2054 1.383 . S
C2049 C2045 1.495 . S
C2049 H2055 0.959 . S
C2049 H2056 0.961 . S
C2049 H2057 0.960 . S
C2050 C2048 1.381 . S
C2050 C2051 1.394 . S
C2050 H2058 0.930 . S
C2051 C2050 1.394 . S
C2051 C2052 1.383 . S
C2051 H2059 0.929 . S
C2052 C2051 1.383 . S
C2052 C2053 1.377 . S
C2053 H2037 0.930 . S
C2053 C2052 1.377 . S
C2053 C2054 1.379 . S
C2054 H2038 0.931 . S
C2054 C2048 1.383 . S
C2054 C2053 1.379 . S
H2055 C2049 0.959 . S
H2056 C2049 0.961 . S
H2057 C2049 0.960 . S
H2058 C2050 0.930 . S
H2059 C2051 0.929 . S
H2060 C2068 0.929 . S
H2061 C2070 0.930 . S
H2062 C2072 0.930 . S
H2063 C2075 0.929 . S
H2064 C2078 0.930 1_554 S
H2065 C2080 0.960 . S
H2066 C2080 0.960 . S
H2067 C2080 0.960 . S
C2068 H2060 0.929 . S
C2068 C2069 1.377 . S
C2068 C2070 1.384 . S
C2069 C2068 1.377 . S
C2069 C2075 1.390 . S
C2070 H2061 0.930 . S
C2070 C2068 1.384 . S
C2070 C2071 1.372 . S
C2071 C2070 1.372 . S
C2071 C2072 1.400 . S
C2071 C2076 1.490 . S
C2072 H2062 0.930 . S
C2072 C2071 1.400 . S
C2072 C2075 1.386 . S
H2073 C2089 0.930 . S
H2074 C2090 0.931 . S
C2075 H2063 0.929 . S
C2075 C2069 1.390 . S
C2075 C2072 1.386 . S
C2076 C2071 1.490 . S
C2076 C2078 1.395 . S
C2076 C2079 1.403 . S
H2077 C2083 0.930 . S
C2078 H2064 0.930 1_556 S
C2078 C2076 1.395 . S
C2078 C2081 1.403 . S
C2079 C2076 1.403 . S
C2079 C2080 1.524 . S
C2079 C2083 1.400 . S
C2080 H2065 0.960 . S
C2080 H2066 0.960 . S
C2080 H2067 0.960 . S
C2080 C2079 1.524 . S
C2081 C2078 1.403 . S
C2081 C2082 1.392 . S
C2081 C2085 1.495 1_556 S
C2082 C2081 1.392 . S
C2082 C2083 1.385 . S
C2082 C2084 1.478 . S
C2083 H2077 0.930 . S
C2083 C2079 1.400 . S
C2083 C2082 1.385 . S
C2084 C2082 1.478 . S
C2084 C2086 1.381 . S
C2084 C2090 1.383 . S
C2085 C2081 1.495 1_554 S
C2085 H2091 0.959 . S
C2085 H2092 0.961 . S
C2085 H2093 0.960 . S
C2086 C2084 1.381 . S
C2086 C2087 1.394 . S
C2086 H2094 0.930 . S
C2087 C2086 1.394 . S
C2087 C2088 1.383 . S
C2087 H2095 0.929 . S
C2088 C2087 1.383 . S
C2088 C2089 1.377 . S
C2089 H2073 0.930 . S
C2089 C2088 1.377 . S
C2089 C2090 1.379 . S
C2090 H2074 0.931 . S
C2090 C2084 1.383 . S
C2090 C2089 1.379 . S
H2091 C2085 0.959 . S
H2092 C2085 0.961 . S
H2093 C2085 0.960 . S
H2094 C2086 0.930 . S
H2095 C2087 0.929 . S
H2096 C2104 0.929 . S
H2097 C2106 0.930 . S
H2098 C2108 0.930 . S
H2099 C2111 0.929 . S
H2100 C2114 0.930 . S
H2101 C2116 0.960 1_455 S
H2102 C2116 0.960 . S
H2103 C2116 0.960 . S
C2104 H2096 0.929 . S
C2104 C2105 1.377 . S
C2104 C2106 1.384 . S
C2105 C2104 1.377 . S
C2105 C2111 1.390 . S
C2106 H2097 0.930 . S
C2106 C2104 1.384 . S
C2106 C2107 1.372 . S
C2107 C2106 1.372 . S
C2107 C2108 1.400 . S
C2107 C2112 1.490 . S
C2108 H2098 0.930 . S
C2108 C2107 1.400 . S
C2108 C2111 1.386 . S
H2109 C2125 0.930 . S
H2110 C2126 0.931 . S
C2111 H2099 0.929 . S
C2111 C2105 1.390 . S
C2111 C2108 1.386 . S
C2112 C2107 1.490 . S
C2112 C2114 1.395 . S
C2112 C2115 1.403 . S
H2113 C2119 0.930 . S
C2114 H2100 0.930 . S
C2114 C2112 1.395 . S
C2114 C2117 1.403 1_655 S
C2115 C2112 1.403 . S
C2115 C2116 1.524 . S
C2115 C2119 1.400 1_655 S
C2116 H2101 0.960 1_655 S
C2116 H2102 0.960 . S
C2116 H2103 0.960 . S
C2116 C2115 1.524 . S
C2117 C2114 1.403 1_455 S
C2117 C2118 1.392 . S
C2117 C2121 1.495 . S
C2118 C2117 1.392 . S
C2118 C2119 1.385 . S
C2118 C2120 1.478 . S
C2119 H2113 0.930 . S
C2119 C2115 1.400 1_455 S
C2119 C2118 1.385 . S
C2120 C2118 1.478 . S
C2120 C2122 1.381 . S
C2120 C2126 1.383 . S
C2121 C2117 1.495 . S
C2121 H2127 0.959 1_455 S
C2121 H2128 0.961 . S
C2121 H2129 0.960 . S
C2122 C2120 1.381 . S
C2122 C2123 1.394 . S
C2122 H2130 0.930 . S
C2123 C2122 1.394 . S
C2123 C2124 1.383 . S
C2123 H2131 0.929 . S
C2124 C2123 1.383 . S
C2124 C2125 1.377 . S
C2125 H2109 0.930 . S
C2125 C2124 1.377 . S
C2125 C2126 1.379 . S
C2126 H2110 0.931 . S
C2126 C2120 1.383 . S
C2126 C2125 1.379 . S
H2127 C2121 0.959 1_655 S
H2128 C2121 0.961 . S
H2129 C2121 0.960 . S
H2130 C2122 0.930 . S
H2131 C2123 0.929 . S
H2132 C2140 0.929 . S
H2133 C2142 0.930 . S
H2134 C2144 0.930 . S
H2135 C2147 0.929 . S
H2136 C2150 0.930 . S
H2137 C2152 0.960 . S
H2138 C2152 0.960 . S
H2139 C2152 0.960 . S
C2140 H2132 0.929 . S
C2140 C2141 1.377 . S
C2140 C2142 1.384 . S
C2141 C2140 1.377 . S
C2141 C2147 1.390 . S
C2142 H2133 0.930 . S
C2142 C2140 1.384 . S
C2142 C2143 1.372 . S
C2143 C2142 1.372 . S
C2143 C2144 1.400 . S
C2143 C2148 1.490 . S
C2144 H2134 0.930 . S
C2144 C2143 1.400 . S
C2144 C2147 1.386 . S
H2145 C2161 0.930 . S
H2146 C2162 0.931 . S
C2147 H2135 0.929 . S
C2147 C2141 1.390 . S
C2147 C2144 1.386 . S
C2148 C2143 1.490 . S
C2148 C2150 1.395 . S
C2148 C2151 1.403 . S
H2149 C2155 0.930 . S
C2150 H2136 0.930 . S
C2150 C2148 1.395 . S
C2150 C2153 1.403 . S
C2151 C2148 1.403 . S
C2151 C2152 1.524 . S
C2151 C2155 1.400 . S
C2152 H2137 0.960 . S
C2152 H2138 0.960 . S
C2152 H2139 0.960 . S
C2152 C2151 1.524 . S
C2153 C2150 1.403 . S
C2153 C2154 1.392 . S
C2153 C2157 1.495 . S
C2154 C2153 1.392 . S
C2154 C2155 1.385 . S
C2154 C2156 1.478 . S
C2155 H2149 0.930 . S
C2155 C2151 1.400 . S
C2155 C2154 1.385 . S
C2156 C2154 1.478 . S
C2156 C2158 1.381 . S
C2156 C2162 1.383 . S
C2157 C2153 1.495 . S
C2157 H2163 0.959 . S
C2157 H2164 0.961 . S
C2157 H2165 0.960 . S
C2158 C2156 1.381 . S
C2158 C2159 1.394 . S
C2158 H2166 0.930 . S
C2159 C2158 1.394 . S
C2159 C2160 1.383 . S
C2159 H2167 0.929 . S
C2160 C2159 1.383 . S
C2160 C2161 1.377 . S
C2161 H2145 0.930 . S
C2161 C2160 1.377 . S
C2161 C2162 1.379 . S
C2162 H2146 0.931 . S
C2162 C2156 1.383 . S
C2162 C2161 1.379 . S
H2163 C2157 0.959 . S
H2164 C2157 0.961 . S
H2165 C2157 0.960 . S
H2166 C2158 0.930 . S
H2167 C2159 0.929 . S
H2168 C2176 0.929 . S
H2169 C2178 0.930 . S
H2170 C2180 0.930 . S
H2171 C2183 0.929 . S
H2172 C2186 0.930 . S
H2173 C2188 0.960 . S
H2174 C2188 0.960 . S
H2175 C2188 0.960 . S
C2176 H2168 0.929 . S
C2176 C2177 1.377 . S
C2176 C2178 1.384 . S
C2177 C2176 1.377 . S
C2177 C2183 1.390 . S
C2178 H2169 0.930 . S
C2178 C2176 1.384 . S
C2178 C2179 1.372 . S
C2179 C2178 1.372 . S
C2179 C2180 1.400 . S
C2179 C2184 1.490 . S
C2180 H2170 0.930 . S
C2180 C2179 1.400 . S
C2180 C2183 1.386 . S
H2181 C2197 0.930 . S
H2182 C2198 0.931 . S
C2183 H2171 0.929 . S
C2183 C2177 1.390 . S
C2183 C2180 1.386 . S
C2184 C2179 1.490 . S
C2184 C2186 1.395 . S
C2184 C2187 1.403 . S
H2185 C2191 0.930 . S
C2186 H2172 0.930 . S
C2186 C2184 1.395 . S
C2186 C2189 1.403 . S
C2187 C2184 1.403 . S
C2187 C2188 1.524 . S
C2187 C2191 1.400 . S
C2188 H2173 0.960 . S
C2188 H2174 0.960 . S
C2188 H2175 0.960 . S
C2188 C2187 1.524 . S
C2189 C2186 1.403 . S
C2189 C2190 1.392 . S
C2189 C2193 1.495 . S
C2190 C2189 1.392 . S
C2190 C2191 1.385 . S
C2190 C2192 1.478 . S
C2191 H2185 0.930 . S
C2191 C2187 1.400 . S
C2191 C2190 1.385 . S
C2192 C2190 1.478 . S
C2192 C2194 1.381 . S
C2192 C2198 1.383 . S
C2193 C2189 1.495 . S
C2193 H2199 0.959 . S
C2193 H2200 0.961 . S
C2193 H2201 0.960 . S
C2194 C2192 1.381 . S
C2194 C2195 1.394 . S
C2194 H2202 0.930 . S
C2195 C2194 1.394 . S
C2195 C2196 1.383 . S
C2195 H2203 0.929 . S
C2196 C2195 1.383 . S
C2196 C2197 1.377 . S
C2197 H2181 0.930 . S
C2197 C2196 1.377 . S
C2197 C2198 1.379 . S
C2198 H2182 0.931 . S
C2198 C2192 1.383 . S
C2198 C2197 1.379 . S
H2199 C2193 0.959 . S
H2200 C2193 0.961 . S
H2201 C2193 0.960 . S
H2202 C2194 0.930 . S
H2203 C2195 0.929 . S
H2204 C2212 0.929 . S
H2205 C2214 0.930 1_655 S
H2206 C2216 0.930 . S
H2207 C2219 0.929 . S
H2208 C2222 0.930 . S
H2209 C2224 0.960 1_556 S
H2210 C2224 0.960 1_556 S
H2211 C2224 0.960 . S
C2212 H2204 0.929 . S
C2212 C2213 1.377 . S
C2212 C2214 1.384 . S
C2213 C2212 1.377 . S
C2213 C2219 1.390 . S
C2214 H2205 0.930 1_455 S
C2214 C2212 1.384 . S
C2214 C2215 1.372 . S
C2215 C2214 1.372 . S
C2215 C2216 1.400 . S
C2215 C2220 1.490 . S
C2216 H2206 0.930 . S
C2216 C2215 1.400 . S
C2216 C2219 1.386 . S
H2217 C2233 0.930 . S
H2218 C2234 0.931 1_455 S
C2219 H2207 0.929 . S
C2219 C2213 1.390 . S
C2219 C2216 1.386 . S
C2220 C2215 1.490 . S
C2220 C2222 1.395 1_455 S
C2220 C2223 1.403 . S
H2221 C2227 0.930 . S
C2222 H2208 0.930 . S
C2222 C2220 1.395 1_655 S
C2222 C2225 1.403 . S
C2223 C2220 1.403 . S
C2223 C2224 1.524 . S
C2223 C2227 1.400 . S
C2224 H2209 0.960 1_554 S
C2224 H2210 0.960 1_554 S
C2224 H2211 0.960 . S
C2224 C2223 1.524 . S
C2225 C2222 1.403 . S
C2225 C2226 1.392 . S
C2225 C2229 1.495 . S
C2226 C2225 1.392 . S
C2226 C2227 1.385 1_655 S
C2226 C2228 1.478 . S
C2227 H2221 0.930 . S
C2227 C2223 1.400 . S
C2227 C2226 1.385 1_455 S
C2228 C2226 1.478 . S
C2228 C2230 1.381 . S
C2228 C2234 1.383 . S
C2229 C2225 1.495 . S
C2229 H2235 0.959 . S
C2229 H2236 0.961 . S
C2229 H2237 0.960 . S
C2230 C2228 1.381 . S
C2230 C2231 1.394 . S
C2230 H2238 0.930 . S
C2231 C2230 1.394 . S
C2231 C2232 1.383 . S
C2231 H2239 0.929 . S
C2232 C2231 1.383 . S
C2232 C2233 1.377 . S
C2233 H2217 0.930 . S
C2233 C2232 1.377 . S
C2233 C2234 1.379 . S
C2234 H2218 0.931 1_655 S
C2234 C2228 1.383 . S
C2234 C2233 1.379 . S
H2235 C2229 0.959 . S
H2236 C2229 0.961 . S
H2237 C2229 0.960 . S
H2238 C2230 0.930 . S
H2239 C2231 0.929 . S
H2240 C2248 0.929 . S
H2241 C2250 0.930 . S
H2242 C2252 0.930 . S
H2243 C2255 0.929 . S
H2244 C2258 0.930 . S
H2245 C2260 0.960 . S
H2246 C2260 0.960 . S
H2247 C2260 0.960 . S
C2248 H2240 0.929 . S
C2248 C2249 1.377 . S
C2248 C2250 1.384 . S
C2249 C2248 1.377 . S
C2249 C2255 1.390 . S
C2250 H2241 0.930 . S
C2250 C2248 1.384 . S
C2250 C2251 1.372 . S
C2251 C2250 1.372 . S
C2251 C2252 1.400 . S
C2251 C2256 1.490 . S
C2252 H2242 0.930 . S
C2252 C2251 1.400 . S
C2252 C2255 1.386 . S
H2253 C2269 0.930 . S
H2254 C2270 0.931 . S
C2255 H2243 0.929 . S
C2255 C2249 1.390 . S
C2255 C2252 1.386 . S
C2256 C2251 1.490 . S
C2256 C2258 1.395 . S
C2256 C2259 1.403 . S
H2257 C2263 0.930 . S
C2258 H2244 0.930 . S
C2258 C2256 1.395 . S
C2258 C2261 1.403 . S
C2259 C2256 1.403 . S
C2259 C2260 1.524 . S
C2259 C2263 1.400 . S
C2260 H2245 0.960 . S
C2260 H2246 0.960 . S
C2260 H2247 0.960 . S
C2260 C2259 1.524 . S
C2261 C2258 1.403 . S
C2261 C2262 1.392 . S
C2261 C2265 1.495 . S
C2262 C2261 1.392 . S
C2262 C2263 1.385 . S
C2262 C2264 1.478 . S
C2263 H2257 0.930 . S
C2263 C2259 1.400 . S
C2263 C2262 1.385 . S
C2264 C2262 1.478 . S
C2264 C2266 1.381 . S
C2264 C2270 1.383 . S
C2265 C2261 1.495 . S
C2265 H2271 0.959 . S
C2265 H2272 0.961 . S
C2265 H2273 0.960 . S
C2266 C2264 1.381 . S
C2266 C2267 1.394 . S
C2266 H2274 0.930 . S
C2267 C2266 1.394 . S
C2267 C2268 1.383 . S
C2267 H2275 0.929 . S
C2268 C2267 1.383 . S
C2268 C2269 1.377 . S
C2269 H2253 0.930 . S
C2269 C2268 1.377 . S
C2269 C2270 1.379 . S
C2270 H2254 0.931 . S
C2270 C2264 1.383 . S
C2270 C2269 1.379 . S
H2271 C2265 0.959 . S
H2272 C2265 0.961 . S
H2273 C2265 0.960 . S
H2274 C2266 0.930 . S
H2275 C2267 0.929 . S
H2276 C2284 0.929 . S
H2277 C2286 0.930 . S
H2278 C2288 0.930 . S
H2279 C2291 0.929 . S
H2280 C2294 0.930 . S
H2281 C2296 0.960 . S
H2282 C2296 0.960 . S
H2283 C2296 0.960 . S
C2284 H2276 0.929 . S
C2284 C2285 1.377 . S
C2284 C2286 1.384 . S
C2285 C2284 1.377 . S
C2285 C2291 1.390 . S
C2286 H2277 0.930 . S
C2286 C2284 1.384 . S
C2286 C2287 1.372 . S
C2287 C2286 1.372 . S
C2287 C2288 1.400 . S
C2287 C2292 1.490 . S
C2288 H2278 0.930 . S
C2288 C2287 1.400 . S
C2288 C2291 1.386 . S
H2289 C2305 0.930 1_455 S
H2290 C2306 0.931 . S
C2291 H2279 0.929 . S
C2291 C2285 1.390 . S
C2291 C2288 1.386 . S
C2292 C2287 1.490 . S
C2292 C2294 1.395 . S
C2292 C2295 1.403 . S
H2293 C2299 0.930 . S
C2294 H2280 0.930 . S
C2294 C2292 1.395 . S
C2294 C2297 1.403 . S
C2295 C2292 1.403 . S
C2295 C2296 1.524 . S
C2295 C2299 1.400 . S
C2296 H2281 0.960 . S
C2296 H2282 0.960 . S
C2296 H2283 0.960 . S
C2296 C2295 1.524 . S
C2297 C2294 1.403 . S
C2297 C2298 1.392 . S
C2297 C2301 1.495 . S
C2298 C2297 1.392 . S
C2298 C2299 1.385 . S
C2298 C2300 1.478 . S
C2299 H2293 0.930 . S
C2299 C2295 1.400 . S
C2299 C2298 1.385 . S
C2300 C2298 1.478 . S
C2300 C2302 1.381 . S
C2300 C2306 1.383 . S
C2301 C2297 1.495 . S
C2301 H2307 0.959 . S
C2301 H2308 0.961 . S
C2301 H2309 0.960 . S
C2302 C2300 1.381 . S
C2302 C2303 1.394 . S
C2302 H2310 0.930 . S
C2303 C2302 1.394 . S
C2303 C2304 1.383 1_655 S
C2303 H2311 0.929 . S
C2304 C2303 1.383 1_455 S
C2304 C2305 1.377 1_455 S
C2305 H2289 0.930 1_655 S
C2305 C2304 1.377 1_655 S
C2305 C2306 1.379 . S
C2306 H2290 0.931 . S
C2306 C2300 1.383 . S
C2306 C2305 1.379 . S
H2307 C2301 0.959 . S
H2308 C2301 0.961 . S
H2309 C2301 0.960 . S
H2310 C2302 0.930 . S
H2311 C2303 0.929 . S
H2312 C2320 0.929 . S
H2313 C2322 0.930 . S
H2314 C2324 0.930 . S
H2315 C2327 0.929 . S
H2316 C2330 0.930 . S
H2317 C2332 0.960 . S
H2318 C2332 0.960 . S
H2319 C2332 0.960 . S
C2320 H2312 0.929 . S
C2320 C2321 1.377 . S
C2320 C2322 1.384 . S
C2321 C2320 1.377 . S
C2321 C2327 1.390 . S
C2322 H2313 0.930 . S
C2322 C2320 1.384 . S
C2322 C2323 1.372 . S
C2323 C2322 1.372 . S
C2323 C2324 1.400 . S
C2323 C2328 1.490 . S
C2324 H2314 0.930 . S
C2324 C2323 1.400 . S
C2324 C2327 1.386 . S
H2325 C2341 0.930 . S
H2326 C2342 0.931 . S
C2327 H2315 0.929 . S
C2327 C2321 1.390 . S
C2327 C2324 1.386 . S
C2328 C2323 1.490 . S
C2328 C2330 1.395 . S
C2328 C2331 1.403 . S
H2329 C2335 0.930 . S
C2330 H2316 0.930 . S
C2330 C2328 1.395 . S
C2330 C2333 1.403 . S
C2331 C2328 1.403 . S
C2331 C2332 1.524 . S
C2331 C2335 1.400 . S
C2332 H2317 0.960 . S
C2332 H2318 0.960 . S
C2332 H2319 0.960 . S
C2332 C2331 1.524 . S
C2333 C2330 1.403 . S
C2333 C2334 1.392 . S
C2333 C2337 1.495 . S
C2334 C2333 1.392 . S
C2334 C2335 1.385 . S
C2334 C2336 1.478 . S
C2335 H2329 0.930 . S
C2335 C2331 1.400 . S
C2335 C2334 1.385 . S
C2336 C2334 1.478 . S
C2336 C2338 1.381 . S
C2336 C2342 1.383 . S
C2337 C2333 1.495 . S
C2337 H2343 0.959 . S
C2337 H2344 0.961 . S
C2337 H2345 0.960 . S
C2338 C2336 1.381 . S
C2338 C2339 1.394 . S
C2338 H2346 0.930 . S
C2339 C2338 1.394 . S
C2339 C2340 1.383 . S
C2339 H2347 0.929 . S
C2340 C2339 1.383 . S
C2340 C2341 1.377 . S
C2341 H2325 0.930 . S
C2341 C2340 1.377 . S
C2341 C2342 1.379 . S
C2342 H2326 0.931 . S
C2342 C2336 1.383 . S
C2342 C2341 1.379 . S
H2343 C2337 0.959 . S
H2344 C2337 0.961 . S
H2345 C2337 0.960 . S
H2346 C2338 0.930 . S
H2347 C2339 0.929 . S
H2348 C2356 0.929 . S
H2349 C2358 0.930 . S
H2350 C2360 0.930 . S
H2351 C2363 0.929 . S
H2352 C2366 0.930 . S
H2353 C2368 0.960 . S
H2354 C2368 0.960 . S
H2355 C2368 0.960 . S
C2356 H2348 0.929 . S
C2356 C2357 1.377 . S
C2356 C2358 1.384 . S
C2357 C2356 1.377 . S
C2357 C2363 1.390 . S
C2358 H2349 0.930 . S
C2358 C2356 1.384 . S
C2358 C2359 1.372 . S
C2359 C2358 1.372 . S
C2359 C2360 1.400 . S
C2359 C2364 1.490 . S
C2360 H2350 0.930 . S
C2360 C2359 1.400 . S
C2360 C2363 1.386 . S
H2361 C2377 0.930 . S
H2362 C2378 0.931 . S
C2363 H2351 0.929 . S
C2363 C2357 1.390 . S
C2363 C2360 1.386 . S
C2364 C2359 1.490 . S
C2364 C2366 1.395 . S
C2364 C2367 1.403 . S
H2365 C2371 0.930 . S
C2366 H2352 0.930 . S
C2366 C2364 1.395 . S
C2366 C2369 1.403 . S
C2367 C2364 1.403 . S
C2367 C2368 1.524 . S
C2367 C2371 1.400 . S
C2368 H2353 0.960 . S
C2368 H2354 0.960 . S
C2368 H2355 0.960 . S
C2368 C2367 1.524 . S
C2369 C2366 1.403 . S
C2369 C2370 1.392 . S
C2369 C2373 1.495 . S
C2370 C2369 1.392 . S
C2370 C2371 1.385 . S
C2370 C2372 1.478 . S
C2371 H2365 0.930 . S
C2371 C2367 1.400 . S
C2371 C2370 1.385 . S
C2372 C2370 1.478 . S
C2372 C2374 1.381 . S
C2372 C2378 1.383 . S
C2373 C2369 1.495 . S
C2373 H2379 0.959 . S
C2373 H2380 0.961 . S
C2373 H2381 0.960 . S
C2374 C2372 1.381 . S
C2374 C2375 1.394 . S
C2374 H2382 0.930 . S
C2375 C2374 1.394 . S
C2375 C2376 1.383 . S
C2375 H2383 0.929 . S
C2376 C2375 1.383 . S
C2376 C2377 1.377 . S
C2377 H2361 0.930 . S
C2377 C2376 1.377 . S
C2377 C2378 1.379 . S
C2378 H2362 0.931 . S
C2378 C2372 1.383 . S
C2378 C2377 1.379 . S
H2379 C2373 0.959 . S
H2380 C2373 0.961 . S
H2381 C2373 0.960 . S
H2382 C2374 0.930 . S
H2383 C2375 0.929 . S
H2384 C2392 0.929 . S
H2385 C2394 0.930 . S
H2386 C2396 0.930 . S
H2387 C2399 0.929 . S
H2388 C2402 0.930 . S
H2389 C2404 0.960 . S
H2390 C2404 0.960 . S
H2391 C2404 0.960 . S
C2392 H2384 0.929 . S
C2392 C2393 1.377 . S
C2392 C2394 1.384 . S
C2393 C2392 1.377 . S
C2393 C2399 1.390 . S
C2394 H2385 0.930 . S
C2394 C2392 1.384 . S
C2394 C2395 1.372 . S
C2395 C2394 1.372 . S
C2395 C2396 1.400 . S
C2395 C2400 1.490 . S
C2396 H2386 0.930 . S
C2396 C2395 1.400 . S
C2396 C2399 1.386 . S
H2397 C2413 0.930 . S
H2398 C2414 0.931 . S
C2399 H2387 0.929 . S
C2399 C2393 1.390 . S
C2399 C2396 1.386 . S
C2400 C2395 1.490 . S
C2400 C2402 1.395 . S
C2400 C2403 1.403 . S
H2401 C2407 0.930 . S
C2402 H2388 0.930 . S
C2402 C2400 1.395 . S
C2402 C2405 1.403 . S
C2403 C2400 1.403 . S
C2403 C2404 1.524 . S
C2403 C2407 1.400 . S
C2404 H2389 0.960 . S
C2404 H2390 0.960 . S
C2404 H2391 0.960 . S
C2404 C2403 1.524 . S
C2405 C2402 1.403 . S
C2405 C2406 1.392 . S
C2405 C2409 1.495 . S
C2406 C2405 1.392 . S
C2406 C2407 1.385 . S
C2406 C2408 1.478 . S
C2407 H2401 0.930 . S
C2407 C2403 1.400 . S
C2407 C2406 1.385 . S
C2408 C2406 1.478 . S
C2408 C2410 1.381 . S
C2408 C2414 1.383 . S
C2409 C2405 1.495 . S
C2409 H2415 0.959 . S
C2409 H2416 0.961 . S
C2409 H2417 0.960 . S
C2410 C2408 1.381 . S
C2410 C2411 1.394 . S
C2410 H2418 0.930 . S
C2411 C2410 1.394 . S
C2411 C2412 1.383 . S
C2411 H2419 0.929 . S
C2412 C2411 1.383 . S
C2412 C2413 1.377 . S
C2413 H2397 0.930 . S
C2413 C2412 1.377 . S
C2413 C2414 1.379 . S
C2414 H2398 0.931 . S
C2414 C2408 1.383 . S
C2414 C2413 1.379 . S
H2415 C2409 0.959 . S
H2416 C2409 0.961 . S
H2417 C2409 0.960 . S
H2418 C2410 0.930 . S
H2419 C2411 0.929 . S
H2420 C2428 0.929 . S
H2421 C2430 0.930 . S
H2422 C2432 0.930 . S
H2423 C2435 0.929 . S
H2424 C2438 0.930 . S
H2425 C2440 0.960 . S
H2426 C2440 0.960 . S
H2427 C2440 0.960 . S
C2428 H2420 0.929 . S
C2428 C2429 1.377 . S
C2428 C2430 1.384 . S
C2429 C2428 1.377 . S
C2429 C2435 1.390 . S
C2430 H2421 0.930 . S
C2430 C2428 1.384 . S
C2430 C2431 1.372 . S
C2431 C2430 1.372 . S
C2431 C2432 1.400 . S
C2431 C2436 1.490 . S
C2432 H2422 0.930 . S
C2432 C2431 1.400 . S
C2432 C2435 1.386 . S
H2433 C2449 0.930 . S
H2434 C2450 0.931 . S
C2435 H2423 0.929 . S
C2435 C2429 1.390 . S
C2435 C2432 1.386 . S
C2436 C2431 1.490 . S
C2436 C2438 1.395 . S
C2436 C2439 1.403 . S
H2437 C2443 0.930 . S
C2438 H2424 0.930 . S
C2438 C2436 1.395 . S
C2438 C2441 1.403 . S
C2439 C2436 1.403 . S
C2439 C2440 1.524 . S
C2439 C2443 1.400 . S
C2440 H2425 0.960 . S
C2440 H2426 0.960 . S
C2440 H2427 0.960 . S
C2440 C2439 1.524 . S
C2441 C2438 1.403 . S
C2441 C2442 1.392 . S
C2441 C2445 1.495 . S
C2442 C2441 1.392 . S
C2442 C2443 1.385 . S
C2442 C2444 1.478 . S
C2443 H2437 0.930 . S
C2443 C2439 1.400 . S
C2443 C2442 1.385 . S
C2444 C2442 1.478 . S
C2444 C2446 1.381 . S
C2444 C2450 1.383 . S
C2445 C2441 1.495 . S
C2445 H2451 0.959 . S
C2445 H2452 0.961 . S
C2445 H2453 0.960 . S
C2446 C2444 1.381 . S
C2446 C2447 1.394 . S
C2446 H2454 0.930 . S
C2447 C2446 1.394 . S
C2447 C2448 1.383 . S
C2447 H2455 0.929 . S
C2448 C2447 1.383 . S
C2448 C2449 1.377 . S
C2449 H2433 0.930 . S
C2449 C2448 1.377 . S
C2449 C2450 1.379 . S
C2450 H2434 0.931 . S
C2450 C2444 1.383 . S
C2450 C2449 1.379 . S
H2451 C2445 0.959 . S
H2452 C2445 0.961 . S
H2453 C2445 0.960 . S
H2454 C2446 0.930 . S
H2455 C2447 0.929 . S
H2456 C2464 0.929 . S
H2457 C2466 0.930 . S
H2458 C2468 0.930 . S
H2459 C2471 0.929 . S
H2460 C2474 0.930 . S
H2461 C2476 0.960 . S
H2462 C2476 0.960 . S
H2463 C2476 0.960 . S
C2464 H2456 0.929 . S
C2464 C2465 1.377 . S
C2464 C2466 1.384 . S
C2465 C2464 1.377 . S
C2465 C2471 1.390 . S
C2466 H2457 0.930 . S
C2466 C2464 1.384 . S
C2466 C2467 1.372 . S
C2467 C2466 1.372 . S
C2467 C2468 1.400 . S
C2467 C2472 1.490 . S
C2468 H2458 0.930 . S
C2468 C2467 1.400 . S
C2468 C2471 1.386 . S
H2469 C2485 0.930 . S
H2470 C2486 0.931 . S
C2471 H2459 0.929 . S
C2471 C2465 1.390 . S
C2471 C2468 1.386 . S
C2472 C2467 1.490 . S
C2472 C2474 1.395 . S
C2472 C2475 1.403 . S
H2473 C2479 0.930 . S
C2474 H2460 0.930 . S
C2474 C2472 1.395 . S
C2474 C2477 1.403 . S
C2475 C2472 1.403 . S
C2475 C2476 1.524 . S
C2475 C2479 1.400 . S
C2476 H2461 0.960 . S
C2476 H2462 0.960 . S
C2476 H2463 0.960 . S
C2476 C2475 1.524 . S
C2477 C2474 1.403 . S
C2477 C2478 1.392 . S
C2477 C2481 1.495 . S
C2478 C2477 1.392 . S
C2478 C2479 1.385 . S
C2478 C2480 1.478 . S
C2479 H2473 0.930 . S
C2479 C2475 1.400 . S
C2479 C2478 1.385 . S
C2480 C2478 1.478 . S
C2480 C2482 1.381 . S
C2480 C2486 1.383 . S
C2481 C2477 1.495 . S
C2481 H2487 0.959 . S
C2481 H2488 0.961 . S
C2481 H2489 0.960 . S
C2482 C2480 1.381 . S
C2482 C2483 1.394 . S
C2482 H2490 0.930 . S
C2483 C2482 1.394 . S
C2483 C2484 1.383 . S
C2483 H2491 0.929 . S
C2484 C2483 1.383 . S
C2484 C2485 1.377 . S
C2485 H2469 0.930 . S
C2485 C2484 1.377 . S
C2485 C2486 1.379 . S
C2486 H2470 0.931 . S
C2486 C2480 1.383 . S
C2486 C2485 1.379 . S
H2487 C2481 0.959 . S
H2488 C2481 0.961 . S
H2489 C2481 0.960 . S
H2490 C2482 0.930 . S
H2491 C2483 0.929 . S
H2492 C2500 0.911 1_455 S
H2493 C2502 0.930 . S
H2494 C2504 0.930 . S
H2495 C2507 0.942 . S
H2496 C2510 0.930 . S
H2497 C2512 0.960 . S
H2498 C2512 0.960 . S
H2499 C2512 0.960 . S
C2500 H2492 0.911 1_655 S
C2500 C2501 1.377 1_655 S
C2500 C2502 1.384 . S
C2501 C2500 1.377 1_455 S
C2501 C2507 1.390 1_455 S
C2502 H2493 0.930 . S
C2502 C2500 1.384 . S
C2502 C2503 1.372 . S
C2503 C2502 1.372 . S
C2503 C2504 1.400 . S
C2503 C2508 1.490 . S
C2504 H2494 0.930 . S
C2504 C2503 1.400 . S
C2504 C2507 1.386 . S
H2505 C2521 0.930 . S
H2506 C2522 0.931 . S
C2507 H2495 0.942 . S
C2507 C2501 1.390 1_655 S
C2507 C2504 1.386 . S
C2508 C2503 1.490 . S
C2508 C2510 1.395 . S
C2508 C2511 1.403 . S
H2509 C2515 0.930 . S
C2510 H2496 0.930 . S
C2510 C2508 1.395 . S
C2510 C2513 1.403 . S
C2511 C2508 1.403 . S
C2511 C2512 1.524 . S
C2511 C2515 1.400 . S
C2512 H2497 0.960 . S
C2512 H2498 0.960 . S
C2512 H2499 0.960 . S
C2512 C2511 1.524 . S
C2513 C2510 1.403 . S
C2513 C2514 1.392 . S
C2513 C2517 1.495 . S
C2514 C2513 1.392 . S
C2514 C2515 1.385 . S
C2514 C2516 1.478 . S
C2515 H2509 0.930 . S
C2515 C2511 1.400 . S
C2515 C2514 1.385 . S
C2516 C2514 1.478 . S
C2516 C2518 1.381 . S
C2516 C2522 1.383 . S
C2517 C2513 1.495 . S
C2517 H2523 0.959 . S
C2517 H2524 0.961 . S
C2517 H2525 0.960 . S
C2518 C2516 1.381 . S
C2518 C2519 1.394 . S
C2518 H2526 0.930 . S
C2519 C2518 1.394 . S
C2519 C2520 1.383 . S
C2519 H2527 0.929 . S
C2520 C2519 1.383 . S
C2520 C2521 1.377 . S
C2521 H2505 0.930 . S
C2521 C2520 1.377 . S
C2521 C2522 1.379 . S
C2522 H2506 0.931 . S
C2522 C2516 1.383 . S
C2522 C2521 1.379 . S
H2523 C2517 0.959 . S
H2524 C2517 0.961 . S
H2525 C2517 0.960 . S
H2526 C2518 0.930 . S
H2527 C2519 0.929 . S
H2528 C2536 0.929 . S
H2529 C2538 0.930 . S
H2530 C2540 0.930 . S
H2531 C2543 0.929 . S
H2532 C2546 0.930 . S
H2533 C2548 0.960 . S
H2534 C2548 0.960 . S
H2535 C2548 0.960 . S
C2536 H2528 0.929 . S
C2536 C2537 1.377 . S
C2536 C2538 1.384 . S
C2537 C2536 1.377 . S
C2537 C2543 1.390 . S
C2538 H2529 0.930 . S
C2538 C2536 1.384 . S
C2538 C2539 1.372 . S
C2539 C2538 1.372 . S
C2539 C2540 1.400 . S
C2539 C2544 1.490 . S
C2540 H2530 0.930 . S
C2540 C2539 1.400 . S
C2540 C2543 1.386 . S
H2541 C2557 0.930 . S
H2542 C2558 0.931 . S
C2543 H2531 0.929 . S
C2543 C2537 1.390 . S
C2543 C2540 1.386 . S
C2544 C2539 1.490 . S
C2544 C2546 1.395 . S
C2544 C2547 1.403 . S
H2545 C2551 0.930 . S
C2546 H2532 0.930 . S
C2546 C2544 1.395 . S
C2546 C2549 1.403 . S
C2547 C2544 1.403 . S
C2547 C2548 1.524 . S
C2547 C2551 1.400 . S
C2548 H2533 0.960 . S
C2548 H2534 0.960 . S
C2548 H2535 0.960 . S
C2548 C2547 1.524 . S
C2549 C2546 1.403 . S
C2549 C2550 1.392 . S
C2549 C2553 1.495 . S
C2550 C2549 1.392 . S
C2550 C2551 1.385 . S
C2550 C2552 1.478 . S
C2551 H2545 0.930 . S
C2551 C2547 1.400 . S
C2551 C2550 1.385 . S
C2552 C2550 1.478 . S
C2552 C2554 1.381 . S
C2552 C2558 1.383 . S
C2553 C2549 1.495 . S
C2553 H2559 0.959 . S
C2553 H2560 0.961 . S
C2553 H2561 0.960 . S
C2554 C2552 1.381 . S
C2554 C2555 1.394 . S
C2554 H2562 0.930 . S
C2555 C2554 1.394 . S
C2555 C2556 1.383 . S
C2555 H2563 0.929 . S
C2556 C2555 1.383 . S
C2556 C2557 1.377 . S
C2557 H2541 0.930 . S
C2557 C2556 1.377 . S
C2557 C2558 1.379 . S
C2558 H2542 0.931 . S
C2558 C2552 1.383 . S
C2558 C2557 1.379 . S
H2559 C2553 0.959 . S
H2560 C2553 0.961 . S
H2561 C2553 0.960 . S
H2562 C2554 0.930 . S
H2563 C2555 0.929 . S
H2564 C2572 0.929 . S
H2565 C2574 0.930 . S
H2566 C2576 0.930 . S
H2567 C2579 0.929 . S
H2568 C2582 0.930 . S
H2569 C2584 0.960 . S
H2570 C2584 0.960 . S
H2571 C2584 0.960 . S
C2572 H2564 0.929 . S
C2572 C2573 1.377 1_455 S
C2572 C2574 1.384 . S
C2573 C2572 1.377 1_655 S
C2573 C2579 1.390 . S
C2574 H2565 0.930 . S
C2574 C2572 1.384 . S
C2574 C2575 1.372 . S
C2575 C2574 1.372 . S
C2575 C2576 1.400 . S
C2575 C2580 1.490 . S
C2576 H2566 0.930 . S
C2576 C2575 1.400 . S
C2576 C2579 1.386 1_455 S
H2577 C2593 0.930 . S
H2578 C2594 0.931 . S
C2579 H2567 0.929 . S
C2579 C2573 1.390 . S
C2579 C2576 1.386 1_655 S
C2580 C2575 1.490 . S
C2580 C2582 1.395 . S
C2580 C2583 1.403 . S
H2581 C2587 0.930 . S
C2582 H2568 0.930 . S
C2582 C2580 1.395 . S
C2582 C2585 1.403 . S
C2583 C2580 1.403 . S
C2583 C2584 1.524 . S
C2583 C2587 1.400 . S
C2584 H2569 0.960 . S
C2584 H2570 0.960 . S
C2584 H2571 0.960 . S
C2584 C2583 1.524 . S
C2585 C2582 1.403 . S
C2585 C2586 1.392 . S
C2585 C2589 1.495 . S
C2586 C2585 1.392 . S
C2586 C2587 1.385 . S
C2586 C2588 1.478 . S
C2587 H2581 0.930 . S
C2587 C2583 1.400 . S
C2587 C2586 1.385 . S
C2588 C2586 1.478 . S
C2588 C2590 1.381 . S
C2588 C2594 1.383 . S
C2589 C2585 1.495 . S
C2589 H2595 0.959 . S
C2589 H2596 0.961 . S
C2589 H2597 0.960 . S
C2590 C2588 1.381 . S
C2590 C2591 1.394 . S
C2590 H2598 0.930 . S
C2591 C2590 1.394 . S
C2591 C2592 1.383 . S
C2591 H2599 0.929 . S
C2592 C2591 1.383 . S
C2592 C2593 1.377 . S
C2593 H2577 0.930 . S
C2593 C2592 1.377 . S
C2593 C2594 1.379 . S
C2594 H2578 0.931 . S
C2594 C2588 1.383 . S
C2594 C2593 1.379 . S
H2595 C2589 0.959 . S
H2596 C2589 0.961 . S
H2597 C2589 0.960 . S
H2598 C2590 0.930 . S
H2599 C2591 0.929 . S
H2600 C2608 0.929 . S
H2601 C2610 0.930 . S
H2602 C2612 0.930 . S
H2603 C2615 0.929 . S
H2604 C2618 0.930 . S
H2605 C2620 0.960 . S
H2606 C2620 0.960 . S
H2607 C2620 0.960 . S
C2608 H2600 0.929 . S
C2608 C2609 1.377 . S
C2608 C2610 1.384 . S
C2609 C2608 1.377 . S
C2609 C2615 1.390 . S
C2610 H2601 0.930 . S
C2610 C2608 1.384 . S
C2610 C2611 1.372 . S
C2611 C2610 1.372 . S
C2611 C2612 1.400 . S
C2611 C2616 1.490 . S
C2612 H2602 0.930 . S
C2612 C2611 1.400 . S
C2612 C2615 1.386 . S
H2613 C2629 0.930 . S
H2614 C2630 0.931 . S
C2615 H2603 0.929 . S
C2615 C2609 1.390 . S
C2615 C2612 1.386 . S
C2616 C2611 1.490 . S
C2616 C2618 1.395 . S
C2616 C2619 1.403 . S
H2617 C2623 0.930 . S
C2618 H2604 0.930 . S
C2618 C2616 1.395 . S
C2618 C2621 1.403 . S
C2619 C2616 1.403 . S
C2619 C2620 1.524 . S
C2619 C2623 1.400 . S
C2620 H2605 0.960 . S
C2620 H2606 0.960 . S
C2620 H2607 0.960 . S
C2620 C2619 1.524 . S
C2621 C2618 1.403 . S
C2621 C2622 1.392 . S
C2621 C2625 1.495 . S
C2622 C2621 1.392 . S
C2622 C2623 1.385 . S
C2622 C2624 1.478 . S
C2623 H2617 0.930 . S
C2623 C2619 1.400 . S
C2623 C2622 1.385 . S
C2624 C2622 1.478 . S
C2624 C2626 1.381 . S
C2624 C2630 1.383 . S
C2625 C2621 1.495 . S
C2625 H2631 0.959 . S
C2625 H2632 0.961 . S
C2625 H2633 0.960 . S
C2626 C2624 1.381 . S
C2626 C2627 1.394 . S
C2626 H2634 0.930 . S
C2627 C2626 1.394 . S
C2627 C2628 1.383 . S
C2627 H2635 0.929 . S
C2628 C2627 1.383 . S
C2628 C2629 1.377 . S
C2629 H2613 0.930 . S
C2629 C2628 1.377 . S
C2629 C2630 1.379 . S
C2630 H2614 0.931 . S
C2630 C2624 1.383 . S
C2630 C2629 1.379 . S
H2631 C2625 0.959 . S
H2632 C2625 0.961 . S
H2633 C2625 0.960 . S
H2634 C2626 0.930 . S
H2635 C2627 0.929 . S
H2636 C2644 0.929 . S
H2637 C2646 0.930 . S
H2638 C2648 0.930 . S
H2639 C2651 0.929 . S
H2640 C2654 0.930 . S
H2641 C2656 0.960 . S
H2642 C2656 0.960 . S
H2643 C2656 0.960 . S
C2644 H2636 0.929 . S
C2644 C2645 1.377 . S
C2644 C2646 1.384 . S
C2645 C2644 1.377 . S
C2645 C2651 1.390 . S
C2646 H2637 0.930 . S
C2646 C2644 1.384 . S
C2646 C2647 1.372 . S
C2647 C2646 1.372 . S
C2647 C2648 1.400 . S
C2647 C2652 1.490 . S
C2648 H2638 0.930 . S
C2648 C2647 1.400 . S
C2648 C2651 1.386 . S
H2649 C2665 0.930 . S
H2650 C2666 0.931 . S
C2651 H2639 0.929 . S
C2651 C2645 1.390 . S
C2651 C2648 1.386 . S
C2652 C2647 1.490 . S
C2652 C2654 1.395 . S
C2652 C2655 1.403 . S
H2653 C2659 0.930 . S
C2654 H2640 0.930 . S
C2654 C2652 1.395 . S
C2654 C2657 1.403 . S
C2655 C2652 1.403 . S
C2655 C2656 1.524 . S
C2655 C2659 1.400 . S
C2656 H2641 0.960 . S
C2656 H2642 0.960 . S
C2656 H2643 0.960 . S
C2656 C2655 1.524 . S
C2657 C2654 1.403 . S
C2657 C2658 1.392 . S
C2657 C2661 1.495 . S
C2658 C2657 1.392 . S
C2658 C2659 1.385 . S
C2658 C2660 1.478 . S
C2659 H2653 0.930 . S
C2659 C2655 1.400 . S
C2659 C2658 1.385 . S
C2660 C2658 1.478 . S
C2660 C2662 1.381 . S
C2660 C2666 1.383 . S
C2661 C2657 1.495 . S
C2661 H2667 0.959 . S
C2661 H2668 0.961 . S
C2661 H2669 0.960 . S
C2662 C2660 1.381 . S
C2662 C2663 1.394 . S
C2662 H2670 0.930 . S
C2663 C2662 1.394 . S
C2663 C2664 1.383 . S
C2663 H2671 0.929 . S
C2664 C2663 1.383 . S
C2664 C2665 1.377 . S
C2665 H2649 0.930 . S
C2665 C2664 1.377 . S
C2665 C2666 1.379 . S
C2666 H2650 0.931 . S
C2666 C2660 1.383 . S
C2666 C2665 1.379 . S
H2667 C2661 0.959 . S
H2668 C2661 0.961 . S
H2669 C2661 0.960 . S
H2670 C2662 0.930 . S
H2671 C2663 0.929 . S
H2672 C2680 0.929 . S
H2673 C2682 0.930 . S
H2674 C2684 0.930 . S
H2675 C2687 0.929 . S
H2676 C2690 0.930 . S
H2677 C2692 0.960 . S
H2678 C2692 0.960 . S
H2679 C2692 0.960 . S
C2680 H2672 0.929 . S
C2680 C2681 1.377 . S
C2680 C2682 1.384 . S
C2681 C2680 1.377 . S
C2681 C2687 1.390 . S
C2682 H2673 0.930 . S
C2682 C2680 1.384 . S
C2682 C2683 1.372 . S
C2683 C2682 1.372 . S
C2683 C2684 1.400 . S
C2683 C2688 1.490 . S
C2684 H2674 0.930 . S
C2684 C2683 1.400 . S
C2684 C2687 1.386 . S
H2685 C2701 0.930 . S
H2686 C2702 0.931 . S
C2687 H2675 0.929 . S
C2687 C2681 1.390 . S
C2687 C2684 1.386 . S
C2688 C2683 1.490 . S
C2688 C2690 1.395 . S
C2688 C2691 1.403 . S
H2689 C2695 0.930 . S
C2690 H2676 0.930 . S
C2690 C2688 1.395 . S
C2690 C2693 1.403 . S
C2691 C2688 1.403 . S
C2691 C2692 1.524 . S
C2691 C2695 1.400 . S
C2692 H2677 0.960 . S
C2692 H2678 0.960 . S
C2692 H2679 0.960 . S
C2692 C2691 1.524 . S
C2693 C2690 1.403 . S
C2693 C2694 1.392 . S
C2693 C2697 1.495 . S
C2694 C2693 1.392 . S
C2694 C2695 1.385 . S
C2694 C2696 1.478 . S
C2695 H2689 0.930 . S
C2695 C2691 1.400 . S
C2695 C2694 1.385 . S
C2696 C2694 1.478 . S
C2696 C2698 1.381 . S
C2696 C2702 1.383 . S
C2697 C2693 1.495 . S
C2697 H2703 0.959 . S
C2697 H2704 0.961 . S
C2697 H2705 0.960 . S
C2698 C2696 1.381 . S
C2698 C2699 1.394 . S
C2698 H2706 0.930 . S
C2699 C2698 1.394 . S
C2699 C2700 1.383 . S
C2699 H2707 0.929 . S
C2700 C2699 1.383 . S
C2700 C2701 1.377 . S
C2701 H2685 0.930 . S
C2701 C2700 1.377 . S
C2701 C2702 1.379 . S
C2702 H2686 0.931 . S
C2702 C2696 1.383 . S
C2702 C2701 1.379 . S
H2703 C2697 0.959 . S
H2704 C2697 0.961 . S
H2705 C2697 0.960 . S
H2706 C2698 0.930 . S
H2707 C2699 0.929 . S
H2708 C2716 0.929 . S
H2709 C2718 0.930 . S
H2710 C2720 0.930 . S
H2711 C2723 0.929 . S
H2712 C2726 0.930 . S
H2713 C2728 0.960 . S
H2714 C2728 0.960 . S
H2715 C2728 0.960 . S
C2716 H2708 0.929 . S
C2716 C2717 1.377 . S
C2716 C2718 1.384 . S
C2717 C2716 1.377 . S
C2717 C2723 1.390 . S
C2718 H2709 0.930 . S
C2718 C2716 1.384 . S
C2718 C2719 1.372 . S
C2719 C2718 1.372 . S
C2719 C2720 1.400 . S
C2719 C2724 1.490 . S
C2720 H2710 0.930 . S
C2720 C2719 1.400 . S
C2720 C2723 1.386 . S
H2721 C2737 0.930 . S
H2722 C2738 0.931 . S
C2723 H2711 0.929 . S
C2723 C2717 1.390 . S
C2723 C2720 1.386 . S
C2724 C2719 1.490 . S
C2724 C2726 1.395 . S
C2724 C2727 1.403 . S
H2725 C2731 0.930 . S
C2726 H2712 0.930 . S
C2726 C2724 1.395 . S
C2726 C2729 1.403 . S
C2727 C2724 1.403 . S
C2727 C2728 1.524 . S
C2727 C2731 1.400 . S
C2728 H2713 0.960 . S
C2728 H2714 0.960 . S
C2728 H2715 0.960 . S
C2728 C2727 1.524 . S
C2729 C2726 1.403 . S
C2729 C2730 1.392 . S
C2729 C2733 1.495 . S
C2730 C2729 1.392 . S
C2730 C2731 1.385 . S
C2730 C2732 1.478 . S
C2731 H2725 0.930 . S
C2731 C2727 1.400 . S
C2731 C2730 1.385 . S
C2732 C2730 1.478 . S
C2732 C2734 1.381 . S
C2732 C2738 1.383 . S
C2733 C2729 1.495 . S
C2733 H2739 0.959 . S
C2733 H2740 0.961 . S
C2733 H2741 0.960 . S
C2734 C2732 1.381 . S
C2734 C2735 1.394 . S
C2734 H2742 0.930 . S
C2735 C2734 1.394 . S
C2735 C2736 1.383 . S
C2735 H2743 0.929 . S
C2736 C2735 1.383 . S
C2736 C2737 1.377 . S
C2737 H2721 0.930 . S
C2737 C2736 1.377 . S
C2737 C2738 1.379 . S
C2738 H2722 0.931 . S
C2738 C2732 1.383 . S
C2738 C2737 1.379 . S
H2739 C2733 0.959 . S
H2740 C2733 0.961 . S
H2741 C2733 0.960 . S
H2742 C2734 0.930 . S
H2743 C2735 0.929 . S
H2744 C2752 0.929 . S
H2745 C2754 0.930 . S
H2746 C2756 0.930 . S
H2747 C2759 0.929 . S
H2748 C2762 0.930 . S
H2749 C2764 0.960 . S
H2750 C2764 0.960 . S
H2751 C2764 0.960 . S
C2752 H2744 0.929 . S
C2752 C2753 1.377 . S
C2752 C2754 1.384 . S
C2753 C2752 1.377 . S
C2753 C2759 1.390 . S
C2754 H2745 0.930 . S
C2754 C2752 1.384 . S
C2754 C2755 1.372 . S
C2755 C2754 1.372 . S
C2755 C2756 1.400 . S
C2755 C2760 1.490 . S
C2756 H2746 0.930 . S
C2756 C2755 1.400 . S
C2756 C2759 1.386 . S
H2757 C2773 0.930 . S
H2758 C2774 0.931 . S
C2759 H2747 0.929 . S
C2759 C2753 1.390 . S
C2759 C2756 1.386 . S
C2760 C2755 1.490 . S
C2760 C2762 1.395 . S
C2760 C2763 1.403 . S
H2761 C2767 0.930 . S
C2762 H2748 0.930 . S
C2762 C2760 1.395 . S
C2762 C2765 1.403 . S
C2763 C2760 1.403 . S
C2763 C2764 1.524 . S
C2763 C2767 1.400 . S
C2764 H2749 0.960 . S
C2764 H2750 0.960 . S
C2764 H2751 0.960 . S
C2764 C2763 1.524 . S
C2765 C2762 1.403 . S
C2765 C2766 1.392 . S
C2765 C2769 1.495 . S
C2766 C2765 1.392 . S
C2766 C2767 1.385 . S
C2766 C2768 1.478 . S
C2767 H2761 0.930 . S
C2767 C2763 1.400 . S
C2767 C2766 1.385 . S
C2768 C2766 1.478 . S
C2768 C2770 1.381 . S
C2768 C2774 1.383 . S
C2769 C2765 1.495 . S
C2769 H2775 0.959 . S
C2769 H2776 0.961 . S
C2769 H2777 0.960 . S
C2770 C2768 1.381 . S
C2770 C2771 1.394 . S
C2770 H2778 0.930 . S
C2771 C2770 1.394 . S
C2771 C2772 1.383 . S
C2771 H2779 0.929 . S
C2772 C2771 1.383 . S
C2772 C2773 1.377 . S
C2773 H2757 0.930 . S
C2773 C2772 1.377 . S
C2773 C2774 1.379 . S
C2774 H2758 0.931 . S
C2774 C2768 1.383 . S
C2774 C2773 1.379 . S
H2775 C2769 0.959 . S
H2776 C2769 0.961 . S
H2777 C2769 0.960 . S
H2778 C2770 0.930 . S
H2779 C2771 0.929 . S
H2780 C2788 0.929 . S
H2781 C2790 0.930 . S
H2782 C2792 0.930 . S
H2783 C2795 0.929 . S
H2784 C2798 0.930 . S
H2785 C2800 0.960 . S
H2786 C2800 0.960 . S
H2787 C2800 0.960 . S
C2788 H2780 0.929 . S
C2788 C2789 1.377 . S
C2788 C2790 1.384 . S
C2789 C2788 1.377 . S
C2789 C2795 1.390 . S
C2790 H2781 0.930 . S
C2790 C2788 1.384 . S
C2790 C2791 1.372 . S
C2791 C2790 1.372 . S
C2791 C2792 1.400 . S
C2791 C2796 1.490 . S
C2792 H2782 0.930 . S
C2792 C2791 1.400 . S
C2792 C2795 1.386 . S
H2793 C2809 0.930 . S
H2794 C2810 0.931 . S
C2795 H2783 0.929 . S
C2795 C2789 1.390 . S
C2795 C2792 1.386 . S
C2796 C2791 1.490 . S
C2796 C2798 1.395 . S
C2796 C2799 1.403 . S
H2797 C2803 0.930 . S
C2798 H2784 0.930 . S
C2798 C2796 1.395 . S
C2798 C2801 1.403 . S
C2799 C2796 1.403 . S
C2799 C2800 1.524 . S
C2799 C2803 1.400 . S
C2800 H2785 0.960 . S
C2800 H2786 0.960 . S
C2800 H2787 0.960 . S
C2800 C2799 1.524 . S
C2801 C2798 1.403 . S
C2801 C2802 1.392 . S
C2801 C2805 1.495 . S
C2802 C2801 1.392 . S
C2802 C2803 1.385 . S
C2802 C2804 1.478 . S
C2803 H2797 0.930 . S
C2803 C2799 1.400 . S
C2803 C2802 1.385 . S
C2804 C2802 1.478 . S
C2804 C2806 1.381 . S
C2804 C2810 1.383 . S
C2805 C2801 1.495 . S
C2805 H2811 0.959 . S
C2805 H2812 0.961 . S
C2805 H2813 0.960 . S
C2806 C2804 1.381 . S
C2806 C2807 1.394 1_455 S
C2806 H2814 0.930 . S
C2807 C2806 1.394 1_655 S
C2807 C2808 1.383 . S
C2807 H2815 0.929 . S
C2808 C2807 1.383 . S
C2808 C2809 1.377 1_655 S
C2809 H2793 0.930 . S
C2809 C2808 1.377 1_455 S
C2809 C2810 1.379 . S
C2810 H2794 0.931 . S
C2810 C2804 1.383 . S
C2810 C2809 1.379 . S
H2811 C2805 0.959 . S
H2812 C2805 0.961 . S
H2813 C2805 0.960 . S
H2814 C2806 0.930 . S
H2815 C2807 0.929 . S
H2816 C2824 0.929 . S
H2817 C2826 0.930 . S
H2818 C2828 0.930 . S
H2819 C2831 0.929 . S
H2820 C2834 0.930 . S
H2821 C2836 0.960 . S
H2822 C2836 0.960 . S
H2823 C2836 0.960 . S
C2824 H2816 0.929 . S
C2824 C2825 1.377 . S
C2824 C2826 1.384 . S
C2825 C2824 1.377 . S
C2825 C2831 1.390 . S
C2826 H2817 0.930 . S
C2826 C2824 1.384 . S
C2826 C2827 1.372 . S
C2827 C2826 1.372 . S
C2827 C2828 1.400 . S
C2827 C2832 1.490 . S
C2828 H2818 0.930 . S
C2828 C2827 1.400 . S
C2828 C2831 1.386 . S
H2829 C2845 0.930 . S
H2830 C2846 0.931 . S
C2831 H2819 0.929 . S
C2831 C2825 1.390 . S
C2831 C2828 1.386 . S
C2832 C2827 1.490 . S
C2832 C2834 1.395 . S
C2832 C2835 1.403 . S
H2833 C2839 0.930 . S
C2834 H2820 0.930 . S
C2834 C2832 1.395 . S
C2834 C2837 1.403 . S
C2835 C2832 1.403 . S
C2835 C2836 1.524 . S
C2835 C2839 1.400 . S
C2836 H2821 0.960 . S
C2836 H2822 0.960 . S
C2836 H2823 0.960 . S
C2836 C2835 1.524 . S
C2837 C2834 1.403 . S
C2837 C2838 1.392 . S
C2837 C2841 1.495 . S
C2838 C2837 1.392 . S
C2838 C2839 1.385 . S
C2838 C2840 1.478 . S
C2839 H2833 0.930 . S
C2839 C2835 1.400 . S
C2839 C2838 1.385 . S
C2840 C2838 1.478 . S
C2840 C2842 1.381 . S
C2840 C2846 1.383 . S
C2841 C2837 1.495 . S
C2841 H2847 0.959 . S
C2841 H2848 0.961 . S
C2841 H2849 0.960 . S
C2842 C2840 1.381 . S
C2842 C2843 1.394 . S
C2842 H2850 0.930 . S
C2843 C2842 1.394 . S
C2843 C2844 1.383 . S
C2843 H2851 0.929 . S
C2844 C2843 1.383 . S
C2844 C2845 1.377 . S
C2845 H2829 0.930 . S
C2845 C2844 1.377 . S
C2845 C2846 1.379 . S
C2846 H2830 0.931 . S
C2846 C2840 1.383 . S
C2846 C2845 1.379 . S
H2847 C2841 0.959 . S
H2848 C2841 0.961 . S
H2849 C2841 0.960 . S
H2850 C2842 0.930 . S
H2851 C2843 0.929 . S
H2852 C2860 0.929 . S
H2853 C2862 0.930 . S
H2854 C2864 0.930 . S
H2855 C2867 0.929 . S
H2856 C2870 0.930 . S
H2857 C2872 0.960 . S
H2858 C2872 0.960 . S
H2859 C2872 0.960 . S
C2860 H2852 0.929 . S
C2860 C2861 1.377 . S
C2860 C2862 1.384 . S
C2861 C2860 1.377 . S
C2861 C2867 1.390 . S
C2862 H2853 0.930 . S
C2862 C2860 1.384 . S
C2862 C2863 1.372 . S
C2863 C2862 1.372 . S
C2863 C2864 1.400 . S
C2863 C2868 1.490 . S
C2864 H2854 0.930 . S
C2864 C2863 1.400 . S
C2864 C2867 1.386 . S
H2865 C2881 0.930 . S
H2866 C2882 0.931 . S
C2867 H2855 0.929 . S
C2867 C2861 1.390 . S
C2867 C2864 1.386 . S
C2868 C2863 1.490 . S
C2868 C2870 1.395 . S
C2868 C2871 1.403 . S
H2869 C2875 0.930 . S
C2870 H2856 0.930 . S
C2870 C2868 1.395 . S
C2870 C2873 1.403 . S
C2871 C2868 1.403 . S
C2871 C2872 1.524 . S
C2871 C2875 1.400 . S
C2872 H2857 0.960 . S
C2872 H2858 0.960 . S
C2872 H2859 0.960 . S
C2872 C2871 1.524 . S
C2873 C2870 1.403 . S
C2873 C2874 1.392 . S
C2873 C2877 1.495 . S
C2874 C2873 1.392 . S
C2874 C2875 1.385 . S
C2874 C2876 1.478 . S
C2875 H2869 0.930 . S
C2875 C2871 1.400 . S
C2875 C2874 1.385 . S
C2876 C2874 1.478 . S
C2876 C2878 1.381 . S
C2876 C2882 1.383 . S
C2877 C2873 1.495 . S
C2877 H2883 0.959 . S
C2877 H2884 0.961 . S
C2877 H2885 0.960 . S
C2878 C2876 1.381 . S
C2878 C2879 1.394 . S
C2878 H2886 0.930 . S
C2879 C2878 1.394 . S
C2879 C2880 1.383 . S
C2879 H2887 0.929 . S
C2880 C2879 1.383 . S
C2880 C2881 1.377 . S
C2881 H2865 0.930 . S
C2881 C2880 1.377 . S
C2881 C2882 1.379 . S
C2882 H2866 0.931 . S
C2882 C2876 1.383 . S
C2882 C2881 1.379 . S
H2883 C2877 0.959 . S
H2884 C2877 0.961 . S
H2885 C2877 0.960 . S
H2886 C2878 0.930 . S
H2887 C2879 0.929 . S
H2888 C2896 0.929 . S
H2889 C2898 0.930 . S
H2890 C2900 0.930 . S
H2891 C2903 0.929 . S
H2892 C2906 0.930 . S
H2893 C2908 0.960 . S
H2894 C2908 0.960 . S
H2895 C2908 0.960 . S
C2896 H2888 0.929 . S
C2896 C2897 1.377 . S
C2896 C2898 1.384 . S
C2897 C2896 1.377 . S
C2897 C2903 1.390 . S
C2898 H2889 0.930 . S
C2898 C2896 1.384 . S
C2898 C2899 1.372 . S
C2899 C2898 1.372 . S
C2899 C2900 1.400 . S
C2899 C2904 1.490 . S
C2900 H2890 0.930 . S
C2900 C2899 1.400 . S
C2900 C2903 1.386 . S
H2901 C2917 0.930 . S
H2902 C2918 0.931 . S
C2903 H2891 0.929 . S
C2903 C2897 1.390 . S
C2903 C2900 1.386 . S
C2904 C2899 1.490 . S
C2904 C2906 1.395 . S
C2904 C2907 1.403 . S
H2905 C2911 0.930 . S
C2906 H2892 0.930 . S
C2906 C2904 1.395 . S
C2906 C2909 1.403 . S
C2907 C2904 1.403 . S
C2907 C2908 1.524 . S
C2907 C2911 1.400 . S
C2908 H2893 0.960 . S
C2908 H2894 0.960 . S
C2908 H2895 0.960 . S
C2908 C2907 1.524 . S
C2909 C2906 1.403 . S
C2909 C2910 1.392 . S
C2909 C2913 1.495 . S
C2910 C2909 1.392 . S
C2910 C2911 1.385 . S
C2910 C2912 1.478 . S
C2911 H2905 0.930 . S
C2911 C2907 1.400 . S
C2911 C2910 1.385 . S
C2912 C2910 1.478 . S
C2912 C2914 1.381 . S
C2912 C2918 1.383 . S
C2913 C2909 1.495 . S
C2913 H2919 0.959 . S
C2913 H2920 0.961 . S
C2913 H2921 0.960 . S
C2914 C2912 1.381 . S
C2914 C2915 1.394 . S
C2914 H2922 0.930 . S
C2915 C2914 1.394 . S
C2915 C2916 1.383 . S
C2915 H2923 0.929 . S
C2916 C2915 1.383 . S
C2916 C2917 1.377 . S
C2917 H2901 0.930 . S
C2917 C2916 1.377 . S
C2917 C2918 1.379 . S
C2918 H2902 0.931 . S
C2918 C2912 1.383 . S
C2918 C2917 1.379 . S
H2919 C2913 0.959 . S
H2920 C2913 0.961 . S
H2921 C2913 0.960 . S
H2922 C2914 0.930 . S
H2923 C2915 0.929 . S
H2924 C2932 0.929 . S
H2925 C2934 0.930 . S
H2926 C2936 0.930 . S
H2927 C2939 0.929 . S
H2928 C2942 0.930 . S
H2929 C2944 0.960 . S
H2930 C2944 0.960 . S
H2931 C2944 0.960 . S
C2932 H2924 0.929 . S
C2932 C2933 1.377 . S
C2932 C2934 1.384 1_655 S
C2933 C2932 1.377 . S
C2933 C2939 1.390 1_655 S
C2934 H2925 0.930 . S
C2934 C2932 1.384 1_455 S
C2934 C2935 1.372 . S
C2935 C2934 1.372 . S
C2935 C2936 1.400 . S
C2935 C2940 1.490 . S
C2936 H2926 0.930 . S
C2936 C2935 1.400 . S
C2936 C2939 1.386 . S
H2937 C2953 0.930 . S
H2938 C2954 0.931 . S
C2939 H2927 0.929 . S
C2939 C2933 1.390 1_455 S
C2939 C2936 1.386 . S
C2940 C2935 1.490 . S
C2940 C2942 1.395 . S
C2940 C2943 1.403 . S
H2941 C2947 0.930 . S
C2942 H2928 0.930 . S
C2942 C2940 1.395 . S
C2942 C2945 1.403 . S
C2943 C2940 1.403 . S
C2943 C2944 1.524 . S
C2943 C2947 1.400 . S
C2944 H2929 0.960 . S
C2944 H2930 0.960 . S
C2944 H2931 0.960 . S
C2944 C2943 1.524 . S
C2945 C2942 1.403 . S
C2945 C2946 1.392 . S
C2945 C2949 1.495 . S
C2946 C2945 1.392 . S
C2946 C2947 1.385 . S
C2946 C2948 1.478 . S
C2947 H2941 0.930 . S
C2947 C2943 1.400 . S
C2947 C2946 1.385 . S
C2948 C2946 1.478 . S
C2948 C2950 1.381 . S
C2948 C2954 1.383 . S
C2949 C2945 1.495 . S
C2949 H2955 0.959 . S
C2949 H2956 0.961 . S
C2949 H2957 0.960 . S
C2950 C2948 1.381 . S
C2950 C2951 1.394 . S
C2950 H2958 0.930 . S
C2951 C2950 1.394 . S
C2951 C2952 1.383 . S
C2951 H2959 0.929 . S
C2952 C2951 1.383 . S
C2952 C2953 1.377 . S
C2953 H2937 0.930 . S
C2953 C2952 1.377 . S
C2953 C2954 1.379 . S
C2954 H2938 0.931 . S
C2954 C2948 1.383 . S
C2954 C2953 1.379 . S
H2955 C2949 0.959 . S
H2956 C2949 0.961 . S
H2957 C2949 0.960 . S
H2958 C2950 0.930 . S
H2959 C2951 0.929 . S
H2960 C2968 0.929 . S
H2961 C2970 0.930 . S
H2962 C2972 0.930 . S
H2963 C2975 0.929 . S
H2964 C2978 0.930 . S
H2965 C2980 0.960 . S
H2966 C2980 0.960 . S
H2967 C2980 0.960 . S
C2968 H2960 0.929 . S
C2968 C2969 1.377 . S
C2968 C2970 1.384 . S
C2969 C2968 1.377 . S
C2969 C2975 1.390 . S
C2970 H2961 0.930 . S
C2970 C2968 1.384 . S
C2970 C2971 1.372 . S
C2971 C2970 1.372 . S
C2971 C2972 1.400 . S
C2971 C2976 1.490 . S
C2972 H2962 0.930 . S
C2972 C2971 1.400 . S
C2972 C2975 1.386 . S
H2973 C2989 0.930 . S
H2974 C2990 0.931 . S
C2975 H2963 0.929 . S
C2975 C2969 1.390 . S
C2975 C2972 1.386 . S
C2976 C2971 1.490 . S
C2976 C2978 1.395 . S
C2976 C2979 1.403 . S
H2977 C2983 0.930 . S
C2978 H2964 0.930 . S
C2978 C2976 1.395 . S
C2978 C2981 1.403 . S
C2979 C2976 1.403 . S
C2979 C2980 1.524 . S
C2979 C2983 1.400 . S
C2980 H2965 0.960 . S
C2980 H2966 0.960 . S
C2980 H2967 0.960 . S
C2980 C2979 1.524 . S
C2981 C2978 1.403 . S
C2981 C2982 1.392 . S
C2981 C2985 1.495 . S
C2982 C2981 1.392 . S
C2982 C2983 1.385 . S
C2982 C2984 1.478 . S
C2983 H2977 0.930 . S
C2983 C2979 1.400 . S
C2983 C2982 1.385 . S
C2984 C2982 1.478 . S
C2984 C2986 1.381 . S
C2984 C2990 1.383 . S
C2985 C2981 1.495 . S
C2985 H2991 0.959 . S
C2985 H2992 0.961 . S
C2985 H2993 0.960 . S
C2986 C2984 1.381 . S
C2986 C2987 1.394 . S
C2986 H2994 0.930 . S
C2987 C2986 1.394 . S
C2987 C2988 1.383 . S
C2987 H2995 0.929 . S
C2988 C2987 1.383 . S
C2988 C2989 1.377 . S
C2989 H2973 0.930 . S
C2989 C2988 1.377 . S
C2989 C2990 1.379 . S
C2990 H2974 0.931 . S
C2990 C2984 1.383 . S
C2990 C2989 1.379 . S
H2991 C2985 0.959 . S
H2992 C2985 0.961 . S
H2993 C2985 0.960 . S
H2994 C2986 0.930 . S
H2995 C2987 0.929 . S
H2996 C3004 0.929 . S
H2997 C3006 0.930 . S
H2998 C3008 0.930 . S
H2999 C3011 0.929 . S
H3000 C3014 0.930 . S
H3001 C3016 0.960 . S
H3002 C3016 0.960 . S
H3003 C3016 0.960 . S
C3004 H2996 0.929 . S
C3004 C3005 1.377 . S
C3004 C3006 1.384 . S
C3005 C3004 1.377 . S
C3005 C3011 1.390 . S
C3006 H2997 0.930 . S
C3006 C3004 1.384 . S
C3006 C3007 1.372 . S
C3007 C3006 1.372 . S
C3007 C3008 1.400 . S
C3007 C3012 1.490 . S
C3008 H2998 0.930 . S
C3008 C3007 1.400 . S
C3008 C3011 1.386 . S
H3009 C3025 0.930 . S
H3010 C3026 0.931 . S
C3011 H2999 0.929 . S
C3011 C3005 1.390 . S
C3011 C3008 1.386 . S
C3012 C3007 1.490 . S
C3012 C3014 1.395 . S
C3012 C3015 1.403 . S
H3013 C3019 0.930 . S
C3014 H3000 0.930 . S
C3014 C3012 1.395 . S
C3014 C3017 1.403 . S
C3015 C3012 1.403 . S
C3015 C3016 1.524 . S
C3015 C3019 1.400 . S
C3016 H3001 0.960 . S
C3016 H3002 0.960 . S
C3016 H3003 0.960 . S
C3016 C3015 1.524 . S
C3017 C3014 1.403 . S
C3017 C3018 1.392 . S
C3017 C3021 1.495 . S
C3018 C3017 1.392 . S
C3018 C3019 1.385 . S
C3018 C3020 1.478 . S
C3019 H3013 0.930 . S
C3019 C3015 1.400 . S
C3019 C3018 1.385 . S
C3020 C3018 1.478 . S
C3020 C3022 1.381 . S
C3020 C3026 1.383 . S
C3021 C3017 1.495 . S
C3021 H3027 0.959 . S
C3021 H3028 0.961 . S
C3021 H3029 0.960 . S
C3022 C3020 1.381 . S
C3022 C3023 1.394 1_455 S
C3022 H3030 0.929 1_455 S
C3023 C3022 1.394 1_655 S
C3023 C3024 1.383 . S
C3023 H3031 0.929 . S
C3024 C3023 1.383 . S
C3024 C3025 1.377 1_655 S
C3025 H3009 0.930 . S
C3025 C3024 1.377 1_455 S
C3025 C3026 1.379 . S
C3026 H3010 0.931 . S
C3026 C3020 1.383 . S
C3026 C3025 1.379 . S
H3027 C3021 0.959 . S
H3028 C3021 0.961 . S
H3029 C3021 0.960 . S
H3030 C3022 0.929 1_655 S
H3031 C3023 0.929 . S
H3032 C3040 0.929 . S
H3033 C3042 0.930 . S
H3034 C3044 0.930 . S
H3035 C3047 0.929 . S
H3036 C3050 0.930 . S
H3037 C3052 0.960 . S
H3038 C3052 0.960 . S
H3039 C3052 0.960 . S
C3040 H3032 0.929 . S
C3040 C3041 1.377 . S
C3040 C3042 1.384 . S
C3041 C3040 1.377 . S
C3041 C3047 1.390 . S
C3042 H3033 0.930 . S
C3042 C3040 1.384 . S
C3042 C3043 1.372 . S
C3043 C3042 1.372 . S
C3043 C3044 1.400 . S
C3043 C3048 1.490 . S
C3044 H3034 0.930 . S
C3044 C3043 1.400 . S
C3044 C3047 1.386 . S
H3045 C3061 0.930 . S
H3046 C3062 0.931 . S
C3047 H3035 0.929 . S
C3047 C3041 1.390 . S
C3047 C3044 1.386 . S
C3048 C3043 1.490 . S
C3048 C3050 1.395 . S
C3048 C3051 1.403 . S
H3049 C3055 0.930 . S
C3050 H3036 0.930 . S
C3050 C3048 1.395 . S
C3050 C3053 1.403 . S
C3051 C3048 1.403 . S
C3051 C3052 1.524 . S
C3051 C3055 1.400 . S
C3052 H3037 0.960 . S
C3052 H3038 0.960 . S
C3052 H3039 0.960 . S
C3052 C3051 1.524 . S
C3053 C3050 1.403 . S
C3053 C3054 1.392 . S
C3053 C3057 1.495 . S
C3054 C3053 1.392 . S
C3054 C3055 1.385 . S
C3054 C3056 1.478 . S
C3055 H3049 0.930 . S
C3055 C3051 1.400 . S
C3055 C3054 1.385 . S
C3056 C3054 1.478 . S
C3056 C3058 1.381 . S
C3056 C3062 1.383 . S
C3057 C3053 1.495 . S
C3057 H3063 0.959 . S
C3057 H3064 0.961 . S
C3057 H3065 0.960 . S
C3058 C3056 1.381 . S
C3058 C3059 1.394 . S
C3058 H3066 0.930 . S
C3059 C3058 1.394 . S
C3059 C3060 1.383 . S
C3059 H3067 0.929 . S
C3060 C3059 1.383 . S
C3060 C3061 1.377 . S
C3061 H3045 0.930 . S
C3061 C3060 1.377 . S
C3061 C3062 1.379 . S
C3062 H3046 0.931 . S
C3062 C3056 1.383 . S
C3062 C3061 1.379 . S
H3063 C3057 0.959 . S
H3064 C3057 0.961 . S
H3065 C3057 0.960 . S
H3066 C3058 0.930 . S
H3067 C3059 0.929 . S
H3068 C3076 0.929 . S
H3069 C3078 0.930 . S
H3070 C3080 0.930 . S
H3071 C3083 0.929 . S
H3072 C3086 0.930 . S
H3073 C3088 0.960 . S
H3074 C3088 0.960 . S
H3075 C3088 0.960 . S
C3076 H3068 0.929 . S
C3076 C3077 1.377 . S
C3076 C3078 1.384 . S
C3077 C3076 1.377 . S
C3077 C3083 1.390 . S
C3078 H3069 0.930 . S
C3078 C3076 1.384 . S
C3078 C3079 1.372 . S
C3079 C3078 1.372 . S
C3079 C3080 1.400 . S
C3079 C3084 1.490 . S
C3080 H3070 0.930 . S
C3080 C3079 1.400 . S
C3080 C3083 1.386 . S
H3081 C3097 0.930 . S
H3082 C3098 0.931 . S
C3083 H3071 0.929 . S
C3083 C3077 1.390 . S
C3083 C3080 1.386 . S
C3084 C3079 1.490 . S
C3084 C3086 1.395 . S
C3084 C3087 1.403 . S
H3085 C3091 0.930 . S
C3086 H3072 0.930 . S
C3086 C3084 1.395 . S
C3086 C3089 1.403 . S
C3087 C3084 1.403 . S
C3087 C3088 1.524 . S
C3087 C3091 1.400 . S
C3088 H3073 0.960 . S
C3088 H3074 0.960 . S
C3088 H3075 0.960 . S
C3088 C3087 1.524 . S
C3089 C3086 1.403 . S
C3089 C3090 1.392 . S
C3089 C3093 1.495 . S
C3090 C3089 1.392 . S
C3090 C3091 1.385 . S
C3090 C3092 1.478 . S
C3091 H3085 0.930 . S
C3091 C3087 1.400 . S
C3091 C3090 1.385 . S
C3092 C3090 1.478 . S
C3092 C3094 1.381 . S
C3092 C3098 1.383 . S
C3093 C3089 1.495 . S
C3093 H3099 0.959 . S
C3093 H3100 0.961 . S
C3093 H3101 0.960 . S
C3094 C3092 1.381 . S
C3094 C3095 1.394 . S
C3094 H3102 0.930 . S
C3095 C3094 1.394 . S
C3095 C3096 1.383 . S
C3095 H3103 0.929 . S
C3096 C3095 1.383 . S
C3096 C3097 1.377 . S
C3097 H3081 0.930 . S
C3097 C3096 1.377 . S
C3097 C3098 1.379 . S
C3098 H3082 0.931 . S
C3098 C3092 1.383 . S
C3098 C3097 1.379 . S
H3099 C3093 0.959 . S
H3100 C3093 0.961 . S
H3101 C3093 0.960 . S
H3102 C3094 0.930 . S
H3103 C3095 0.929 . S
H3104 C3112 0.929 . S
H3105 C3114 0.930 . S
H3106 C3116 0.930 . S
H3107 C3119 0.929 . S
H3108 C3122 0.930 . S
H3109 C3124 0.960 . S
H3110 C3124 0.960 . S
H3111 C3124 0.960 . S
C3112 H3104 0.929 . S
C3112 C3113 1.377 . S
C3112 C3114 1.384 . S
C3113 C3112 1.377 . S
C3113 C3119 1.390 . S
C3114 H3105 0.930 . S
C3114 C3112 1.384 . S
C3114 C3115 1.372 . S
C3115 C3114 1.372 . S
C3115 C3116 1.400 . S
C3115 C3120 1.490 . S
C3116 H3106 0.930 . S
C3116 C3115 1.400 . S
C3116 C3119 1.386 . S
H3117 C3133 0.930 . S
H3118 C3134 0.931 . S
C3119 H3107 0.929 . S
C3119 C3113 1.390 . S
C3119 C3116 1.386 . S
C3120 C3115 1.490 . S
C3120 C3122 1.395 . S
C3120 C3123 1.403 . S
H3121 C3127 0.930 . S
C3122 H3108 0.930 . S
C3122 C3120 1.395 . S
C3122 C3125 1.403 . S
C3123 C3120 1.403 . S
C3123 C3124 1.524 . S
C3123 C3127 1.400 . S
C3124 H3109 0.960 . S
C3124 H3110 0.960 . S
C3124 H3111 0.960 . S
C3124 C3123 1.524 . S
C3125 C3122 1.403 . S
C3125 C3126 1.392 . S
C3125 C3129 1.495 . S
C3126 C3125 1.392 . S
C3126 C3127 1.385 . S
C3126 C3128 1.478 . S
C3127 H3121 0.930 . S
C3127 C3123 1.400 . S
C3127 C3126 1.385 . S
C3128 C3126 1.478 . S
C3128 C3130 1.381 . S
C3128 C3134 1.383 . S
C3129 C3125 1.495 . S
C3129 H3135 0.959 . S
C3129 H3136 0.961 . S
C3129 H3137 0.960 . S
C3130 C3128 1.381 . S
C3130 C3131 1.394 . S
C3130 H3138 0.930 . S
C3131 C3130 1.394 . S
C3131 C3132 1.383 . S
C3131 H3139 0.929 . S
C3132 C3131 1.383 . S
C3132 C3133 1.377 . S
C3133 H3117 0.930 . S
C3133 C3132 1.377 . S
C3133 C3134 1.379 . S
C3134 H3118 0.931 . S
C3134 C3128 1.383 . S
C3134 C3133 1.379 . S
H3135 C3129 0.959 . S
H3136 C3129 0.961 . S
H3137 C3129 0.960 . S
H3138 C3130 0.930 . S
H3139 C3131 0.929 . S
H3140 C3148 0.929 . S
H3141 C3150 0.930 . S
H3142 C3152 0.930 . S
H3143 C3155 0.929 . S
H3144 C3158 0.930 . S
H3145 C3160 0.960 . S
H3146 C3160 0.960 . S
H3147 C3160 0.960 . S
C3148 H3140 0.929 . S
C3148 C3149 1.377 . S
C3148 C3150 1.384 . S
C3149 C3148 1.377 . S
C3149 C3155 1.390 . S
C3150 H3141 0.930 . S
C3150 C3148 1.384 . S
C3150 C3151 1.372 . S
C3151 C3150 1.372 . S
C3151 C3152 1.400 . S
C3151 C3156 1.490 . S
C3152 H3142 0.930 . S
C3152 C3151 1.400 . S
C3152 C3155 1.386 . S
H3153 C3169 0.930 . S
H3154 C3170 0.931 . S
C3155 H3143 0.929 . S
C3155 C3149 1.390 . S
C3155 C3152 1.386 . S
C3156 C3151 1.490 . S
C3156 C3158 1.395 . S
C3156 C3159 1.403 . S
H3157 C3163 0.930 . S
C3158 H3144 0.930 . S
C3158 C3156 1.395 . S
C3158 C3161 1.403 . S
C3159 C3156 1.403 . S
C3159 C3160 1.524 . S
C3159 C3163 1.400 . S
C3160 H3145 0.960 . S
C3160 H3146 0.960 . S
C3160 H3147 0.960 . S
C3160 C3159 1.524 . S
C3161 C3158 1.403 . S
C3161 C3162 1.392 . S
C3161 C3165 1.495 . S
C3162 C3161 1.392 . S
C3162 C3163 1.385 . S
C3162 C3164 1.478 . S
C3163 H3157 0.930 . S
C3163 C3159 1.400 . S
C3163 C3162 1.385 . S
C3164 C3162 1.478 . S
C3164 C3166 1.381 . S
C3164 C3170 1.383 . S
C3165 C3161 1.495 . S
C3165 H3171 0.959 . S
C3165 H3172 0.961 . S
C3165 H3173 0.960 . S
C3166 C3164 1.381 . S
C3166 C3167 1.394 . S
C3166 H3174 0.930 . S
C3167 C3166 1.394 . S
C3167 C3168 1.383 . S
C3167 H3175 0.929 . S
C3168 C3167 1.383 . S
C3168 C3169 1.377 . S
C3169 H3153 0.930 . S
C3169 C3168 1.377 . S
C3169 C3170 1.379 . S
C3170 H3154 0.931 . S
C3170 C3164 1.383 . S
C3170 C3169 1.379 . S
H3171 C3165 0.959 . S
H3172 C3165 0.961 . S
H3173 C3165 0.960 . S
H3174 C3166 0.930 . S
H3175 C3167 0.929 . S
H3176 C3184 0.929 . S
H3177 C3186 0.930 . S
H3178 C3188 0.930 . S
H3179 C3191 0.929 . S
H3180 C3194 0.930 . S
H3181 C3196 0.960 . S
H3182 C3196 0.960 . S
H3183 C3196 0.960 . S
C3184 H3176 0.929 . S
C3184 C3185 1.377 . S
C3184 C3186 1.384 . S
C3185 C3184 1.377 . S
C3185 C3191 1.390 . S
C3186 H3177 0.930 . S
C3186 C3184 1.384 . S
C3186 C3187 1.372 . S
C3187 C3186 1.372 . S
C3187 C3188 1.400 . S
C3187 C3192 1.490 . S
C3188 H3178 0.930 . S
C3188 C3187 1.400 . S
C3188 C3191 1.386 . S
H3189 C3205 0.930 . S
H3190 C3206 0.931 . S
C3191 H3179 0.929 . S
C3191 C3185 1.390 . S
C3191 C3188 1.386 . S
C3192 C3187 1.490 . S
C3192 C3194 1.395 . S
C3192 C3195 1.403 . S
H3193 C3199 0.930 . S
C3194 H3180 0.930 . S
C3194 C3192 1.395 . S
C3194 C3197 1.403 . S
C3195 C3192 1.403 . S
C3195 C3196 1.524 . S
C3195 C3199 1.400 . S
C3196 H3181 0.960 . S
C3196 H3182 0.960 . S
C3196 H3183 0.960 . S
C3196 C3195 1.524 . S
C3197 C3194 1.403 . S
C3197 C3198 1.392 . S
C3197 C3201 1.495 . S
C3198 C3197 1.392 . S
C3198 C3199 1.385 . S
C3198 C3200 1.478 . S
C3199 H3193 0.930 . S
C3199 C3195 1.400 . S
C3199 C3198 1.385 . S
C3200 C3198 1.478 . S
C3200 C3202 1.381 . S
C3200 C3206 1.383 . S
C3201 C3197 1.495 . S
C3201 H3207 0.959 . S
C3201 H3208 0.961 . S
C3201 H3209 0.960 . S
C3202 C3200 1.381 . S
C3202 C3203 1.394 . S
C3202 H3210 0.930 . S
C3203 C3202 1.394 . S
C3203 C3204 1.383 . S
C3203 H3211 0.929 . S
C3204 C3203 1.383 . S
C3204 C3205 1.377 . S
C3205 H3189 0.930 . S
C3205 C3204 1.377 . S
C3205 C3206 1.379 . S
C3206 H3190 0.931 . S
C3206 C3200 1.383 . S
C3206 C3205 1.379 . S
H3207 C3201 0.959 . S
H3208 C3201 0.961 . S
H3209 C3201 0.960 . S
H3210 C3202 0.930 . S
H3211 C3203 0.929 . S
H3212 C3220 0.929 . S
H3213 C3222 0.930 . S
H3214 C3224 0.930 . S
H3215 C3227 0.929 . S
H3216 C3230 0.930 . S
H3217 C3232 0.960 . S
H3218 C3232 0.960 . S
H3219 C3232 0.960 . S
C3220 H3212 0.929 . S
C3220 C3221 1.377 . S
C3220 C3222 1.384 . S
C3221 C3220 1.377 . S
C3221 C3227 1.390 . S
C3222 H3213 0.930 . S
C3222 C3220 1.384 . S
C3222 C3223 1.372 . S
C3223 C3222 1.372 . S
C3223 C3224 1.400 . S
C3223 C3228 1.490 . S
C3224 H3214 0.930 . S
C3224 C3223 1.400 . S
C3224 C3227 1.386 . S
H3225 C3241 0.930 . S
H3226 C3242 0.931 . S
C3227 H3215 0.929 . S
C3227 C3221 1.390 . S
C3227 C3224 1.386 . S
C3228 C3223 1.490 . S
C3228 C3230 1.395 . S
C3228 C3231 1.403 . S
H3229 C3235 0.930 . S
C3230 H3216 0.930 . S
C3230 C3228 1.395 . S
C3230 C3233 1.403 . S
C3231 C3228 1.403 . S
C3231 C3232 1.524 . S
C3231 C3235 1.400 . S
C3232 H3217 0.960 . S
C3232 H3218 0.960 . S
C3232 H3219 0.960 . S
C3232 C3231 1.524 . S
C3233 C3230 1.403 . S
C3233 C3234 1.392 . S
C3233 C3237 1.495 . S
C3234 C3233 1.392 . S
C3234 C3235 1.385 . S
C3234 C3236 1.478 . S
C3235 H3229 0.930 . S
C3235 C3231 1.400 . S
C3235 C3234 1.385 . S
C3236 C3234 1.478 . S
C3236 C3238 1.381 . S
C3236 C3242 1.383 . S
C3237 C3233 1.495 . S
C3237 H3243 0.959 . S
C3237 H3244 0.961 . S
C3237 H3245 0.960 . S
C3238 C3236 1.381 . S
C3238 C3239 1.394 1_655 S
C3238 H3246 0.930 . S
C3239 C3238 1.394 1_455 S
C3239 C3240 1.383 . S
C3239 H3247 0.929 . S
C3240 C3239 1.383 . S
C3240 C3241 1.377 1_455 S
C3241 H3225 0.930 . S
C3241 C3240 1.377 1_655 S
C3241 C3242 1.379 . S
C3242 H3226 0.931 . S
C3242 C3236 1.383 . S
C3242 C3241 1.379 . S
H3243 C3237 0.959 . S
H3244 C3237 0.961 . S
H3245 C3237 0.960 . S
H3246 C3238 0.930 . S
H3247 C3239 0.929 . S
H3248 C3256 0.929 . S
H3249 C3258 0.930 . S
H3250 C3260 0.930 . S
H3251 C3263 0.929 . S
H3252 C3266 0.930 . S
H3253 C3268 0.960 . S
H3254 C3268 0.960 . S
H3255 C3268 0.960 . S
C3256 H3248 0.929 . S
C3256 C3257 1.377 . S
C3256 C3258 1.384 . S
C3257 C3256 1.377 . S
C3257 C3263 1.390 . S
C3258 H3249 0.930 . S
C3258 C3256 1.384 . S
C3258 C3259 1.372 . S
C3259 C3258 1.372 . S
C3259 C3260 1.400 . S
C3259 C3264 1.490 . S
C3260 H3250 0.930 . S
C3260 C3259 1.400 . S
C3260 C3263 1.386 . S
H3261 C3277 0.930 . S
H3262 C3278 0.931 . S
C3263 H3251 0.929 . S
C3263 C3257 1.390 . S
C3263 C3260 1.386 . S
C3264 C3259 1.490 . S
C3264 C3266 1.395 . S
C3264 C3267 1.403 . S
H3265 C3271 0.930 . S
C3266 H3252 0.930 . S
C3266 C3264 1.395 . S
C3266 C3269 1.403 . S
C3267 C3264 1.403 . S
C3267 C3268 1.524 . S
C3267 C3271 1.400 . S
C3268 H3253 0.960 . S
C3268 H3254 0.960 . S
C3268 H3255 0.960 . S
C3268 C3267 1.524 . S
C3269 C3266 1.403 . S
C3269 C3270 1.392 . S
C3269 C3273 1.495 . S
C3270 C3269 1.392 . S
C3270 C3271 1.385 . S
C3270 C3272 1.478 . S
C3271 H3265 0.930 . S
C3271 C3267 1.400 . S
C3271 C3270 1.385 . S
C3272 C3270 1.478 . S
C3272 C3274 1.381 . S
C3272 C3278 1.383 . S
C3273 C3269 1.495 . S
C3273 H3279 0.959 . S
C3273 H3280 0.961 . S
C3273 H3281 0.960 . S
C3274 C3272 1.381 . S
C3274 C3275 1.394 . S
C3274 H3282 0.930 . S
C3275 C3274 1.394 . S
C3275 C3276 1.383 . S
C3275 H3283 0.929 . S
C3276 C3275 1.383 . S
C3276 C3277 1.377 . S
C3277 H3261 0.930 . S
C3277 C3276 1.377 . S
C3277 C3278 1.379 . S
C3278 H3262 0.931 . S
C3278 C3272 1.383 . S
C3278 C3277 1.379 . S
H3279 C3273 0.959 . S
H3280 C3273 0.961 . S
H3281 C3273 0.960 . S
H3282 C3274 0.930 . S
H3283 C3275 0.929 . S
H3284 C3292 0.929 . S
H3285 C3294 0.930 . S
H3286 C3296 0.930 . S
H3287 C3299 0.929 . S
H3288 C3302 0.930 . S
H3289 C3304 0.960 . S
H3290 C3304 0.960 . S
H3291 C3304 0.960 . S
C3292 H3284 0.929 . S
C3292 C3293 1.377 . S
C3292 C3294 1.384 . S
C3293 C3292 1.377 . S
C3293 C3299 1.390 . S
C3294 H3285 0.930 . S
C3294 C3292 1.384 . S
C3294 C3295 1.372 . S
C3295 C3294 1.372 . S
C3295 C3296 1.400 . S
C3295 C3300 1.490 . S
C3296 H3286 0.930 . S
C3296 C3295 1.400 . S
C3296 C3299 1.386 . S
H3297 C3313 0.930 . S
H3298 C3314 0.931 . S
C3299 H3287 0.929 . S
C3299 C3293 1.390 . S
C3299 C3296 1.386 . S
C3300 C3295 1.490 . S
C3300 C3302 1.395 . S
C3300 C3303 1.403 . S
H3301 C3307 0.930 . S
C3302 H3288 0.930 . S
C3302 C3300 1.395 . S
C3302 C3305 1.403 . S
C3303 C3300 1.403 . S
C3303 C3304 1.524 . S
C3303 C3307 1.400 . S
C3304 H3289 0.960 . S
C3304 H3290 0.960 . S
C3304 H3291 0.960 . S
C3304 C3303 1.524 . S
C3305 C3302 1.403 . S
C3305 C3306 1.392 . S
C3305 C3309 1.495 . S
C3306 C3305 1.392 . S
C3306 C3307 1.385 . S
C3306 C3308 1.478 . S
C3307 H3301 0.930 . S
C3307 C3303 1.400 . S
C3307 C3306 1.385 . S
C3308 C3306 1.478 . S
C3308 C3310 1.381 . S
C3308 C3314 1.383 . S
C3309 C3305 1.495 . S
C3309 H3315 0.959 . S
C3309 H3316 0.961 . S
C3309 H3317 0.960 . S
C3310 C3308 1.381 . S
C3310 C3311 1.394 . S
C3310 H3318 0.930 . S
C3311 C3310 1.394 . S
C3311 C3312 1.383 1_655 S
C3311 H3319 0.929 . S
C3312 C3311 1.383 1_455 S
C3312 C3313 1.377 . S
C3313 H3297 0.930 . S
C3313 C3312 1.377 . S
C3313 C3314 1.379 1_455 S
C3314 H3298 0.931 . S
C3314 C3308 1.383 . S
C3314 C3313 1.379 1_655 S
H3315 C3309 0.959 . S
H3316 C3309 0.961 . S
H3317 C3309 0.960 . S
H3318 C3310 0.930 . S
H3319 C3311 0.929 . S
H3320 C3328 0.929 . S
H3321 C3330 0.930 . S
H3322 C3332 0.930 . S
H3323 C3335 0.929 . S
H3324 C3338 0.930 . S
H3325 C3340 0.960 . S
H3326 C3340 0.960 . S
H3327 C3340 0.960 . S
C3328 H3320 0.929 . S
C3328 C3329 1.377 . S
C3328 C3330 1.384 . S
C3329 C3328 1.377 . S
C3329 C3335 1.390 . S
C3330 H3321 0.930 . S
C3330 C3328 1.384 . S
C3330 C3331 1.372 . S
C3331 C3330 1.372 . S
C3331 C3332 1.400 . S
C3331 C3336 1.490 . S
C3332 H3322 0.930 . S
C3332 C3331 1.400 . S
C3332 C3335 1.386 . S
H3333 C3349 0.930 . S
H3334 C3350 0.931 . S
C3335 H3323 0.929 . S
C3335 C3329 1.390 . S
C3335 C3332 1.386 . S
C3336 C3331 1.490 . S
C3336 C3338 1.395 . S
C3336 C3339 1.403 . S
H3337 C3343 0.930 . S
C3338 H3324 0.930 . S
C3338 C3336 1.395 . S
C3338 C3341 1.403 . S
C3339 C3336 1.403 . S
C3339 C3340 1.524 . S
C3339 C3343 1.400 . S
C3340 H3325 0.960 . S
C3340 H3326 0.960 . S
C3340 H3327 0.960 . S
C3340 C3339 1.524 . S
C3341 C3338 1.403 . S
C3341 C3342 1.392 . S
C3341 C3345 1.495 . S
C3342 C3341 1.392 . S
C3342 C3343 1.385 . S
C3342 C3344 1.478 . S
C3343 H3337 0.930 . S
C3343 C3339 1.400 . S
C3343 C3342 1.385 . S
C3344 C3342 1.478 . S
C3344 C3346 1.381 . S
C3344 C3350 1.383 . S
C3345 C3341 1.495 . S
C3345 H3351 0.959 . S
C3345 H3352 0.961 . S
C3345 H3353 0.960 . S
C3346 C3344 1.381 . S
C3346 C3347 1.394 . S
C3346 H3354 0.930 . S
C3347 C3346 1.394 . S
C3347 C3348 1.383 . S
C3347 H3355 0.929 . S
C3348 C3347 1.383 . S
C3348 C3349 1.377 . S
C3349 H3333 0.930 . S
C3349 C3348 1.377 . S
C3349 C3350 1.379 . S
C3350 H3334 0.931 . S
C3350 C3344 1.383 . S
C3350 C3349 1.379 . S
H3351 C3345 0.959 . S
H3352 C3345 0.961 . S
H3353 C3345 0.960 . S
H3354 C3346 0.930 . S
H3355 C3347 0.929 . S
H3356 C3364 0.929 . S
H3357 C3366 0.930 . S
H3358 C3368 0.930 . S
H3359 C3371 0.929 . S
H3360 C3374 0.930 . S
H3361 C3376 0.960 . S
H3362 C3376 0.960 . S
H3363 C3376 0.960 . S
C3364 H3356 0.929 . S
C3364 C3365 1.377 . S
C3364 C3366 1.384 . S
C3365 C3364 1.377 . S
C3365 C3371 1.390 . S
C3366 H3357 0.930 . S
C3366 C3364 1.384 . S
C3366 C3367 1.372 . S
C3367 C3366 1.372 . S
C3367 C3368 1.400 . S
C3367 C3372 1.490 . S
C3368 H3358 0.930 . S
C3368 C3367 1.400 . S
C3368 C3371 1.386 . S
H3369 C3385 0.930 . S
H3370 C3386 0.931 . S
C3371 H3359 0.929 . S
C3371 C3365 1.390 . S
C3371 C3368 1.386 . S
C3372 C3367 1.490 . S
C3372 C3374 1.395 . S
C3372 C3375 1.403 . S
H3373 C3379 0.930 . S
C3374 H3360 0.930 . S
C3374 C3372 1.395 . S
C3374 C3377 1.403 . S
C3375 C3372 1.403 . S
C3375 C3376 1.524 . S
C3375 C3379 1.400 . S
C3376 H3361 0.960 . S
C3376 H3362 0.960 . S
C3376 H3363 0.960 . S
C3376 C3375 1.524 . S
C3377 C3374 1.403 . S
C3377 C3378 1.392 . S
C3377 C3381 1.495 . S
C3378 C3377 1.392 . S
C3378 C3379 1.385 . S
C3378 C3380 1.478 . S
C3379 H3373 0.930 . S
C3379 C3375 1.400 . S
C3379 C3378 1.385 . S
C3380 C3378 1.478 . S
C3380 C3382 1.381 . S
C3380 C3386 1.383 . S
C3381 C3377 1.495 . S
C3381 H3387 0.959 . S
C3381 H3388 0.961 . S
C3381 H3389 0.960 . S
C3382 C3380 1.381 . S
C3382 C3383 1.394 . S
C3382 H3390 0.930 . S
C3383 C3382 1.394 . S
C3383 C3384 1.383 . S
C3383 H3391 0.929 . S
C3384 C3383 1.383 . S
C3384 C3385 1.377 . S
C3385 H3369 0.930 . S
C3385 C3384 1.377 . S
C3385 C3386 1.379 . S
C3386 H3370 0.931 . S
C3386 C3380 1.383 . S
C3386 C3385 1.379 . S
H3387 C3381 0.959 . S
H3388 C3381 0.961 . S
H3389 C3381 0.960 . S
H3390 C3382 0.930 . S
H3391 C3383 0.929 . S
H3392 C3400 0.929 . S
H3393 C3402 0.930 . S
H3394 C3404 0.930 . S
H3395 C3407 0.929 . S
H3396 C3410 0.930 . S
H3397 C3412 0.960 . S
H3398 C3412 0.960 . S
H3399 C3412 0.960 . S
C3400 H3392 0.929 . S
C3400 C3401 1.377 . S
C3400 C3402 1.384 . S
C3401 C3400 1.377 . S
C3401 C3407 1.390 . S
C3402 H3393 0.930 . S
C3402 C3400 1.384 . S
C3402 C3403 1.372 . S
C3403 C3402 1.372 . S
C3403 C3404 1.400 . S
C3403 C3408 1.490 . S
C3404 H3394 0.930 . S
C3404 C3403 1.400 . S
C3404 C3407 1.386 . S
H3405 C3421 0.930 . S
H3406 C3422 0.931 . S
C3407 H3395 0.929 . S
C3407 C3401 1.390 . S
C3407 C3404 1.386 . S
C3408 C3403 1.490 . S
C3408 C3410 1.395 . S
C3408 C3411 1.403 . S
H3409 C3415 0.930 . S
C3410 H3396 0.930 . S
C3410 C3408 1.395 . S
C3410 C3413 1.403 . S
C3411 C3408 1.403 . S
C3411 C3412 1.524 . S
C3411 C3415 1.400 . S
C3412 H3397 0.960 . S
C3412 H3398 0.960 . S
C3412 H3399 0.960 . S
C3412 C3411 1.524 . S
C3413 C3410 1.403 . S
C3413 C3414 1.392 . S
C3413 C3417 1.495 . S
C3414 C3413 1.392 . S
C3414 C3415 1.385 . S
C3414 C3416 1.478 . S
C3415 H3409 0.930 . S
C3415 C3411 1.400 . S
C3415 C3414 1.385 . S
C3416 C3414 1.478 . S
C3416 C3418 1.381 . S
C3416 C3422 1.383 . S
C3417 C3413 1.495 . S
C3417 H3423 0.959 . S
C3417 H3424 0.961 . S
C3417 H3425 0.960 . S
C3418 C3416 1.381 . S
C3418 C3419 1.394 . S
C3418 H3426 0.930 . S
C3419 C3418 1.394 . S
C3419 C3420 1.383 . S
C3419 H3427 0.929 . S
C3420 C3419 1.383 . S
C3420 C3421 1.377 . S
C3421 H3405 0.930 . S
C3421 C3420 1.377 . S
C3421 C3422 1.379 . S
C3422 H3406 0.931 . S
C3422 C3416 1.383 . S
C3422 C3421 1.379 . S
H3423 C3417 0.959 . S
H3424 C3417 0.961 . S
H3425 C3417 0.960 . S
H3426 C3418 0.930 . S
H3427 C3419 0.929 . S
H3428 C3436 0.929 . S
H3429 C3438 0.930 1_655 S
H3430 C3440 0.930 . S
H3431 C3443 0.929 . S
H3432 C3446 0.936 . S
H3433 C3448 0.960 . S
H3434 C3448 0.960 . S
H3435 C3448 0.960 . S
C3436 H3428 0.929 . S
C3436 C3437 1.377 . S
C3436 C3438 1.384 . S
C3437 C3436 1.377 . S
C3437 C3443 1.390 . S
C3438 H3429 0.930 1_455 S
C3438 C3436 1.384 . S
C3438 C3439 1.372 . S
C3439 C3438 1.372 . S
C3439 C3440 1.400 . S
C3439 C3444 1.490 . S
C3440 H3430 0.930 . S
C3440 C3439 1.400 . S
C3440 C3443 1.386 . S
H3441 C3457 0.930 . S
H3442 C3458 0.931 1_455 S
C3443 H3431 0.929 . S
C3443 C3437 1.390 . S
C3443 C3440 1.386 . S
C3444 C3439 1.490 . S
C3444 C3446 1.412 . S
C3444 C3447 1.403 . S
H3445 C3451 0.930 . S
C3446 H3432 0.936 . S
C3446 C3444 1.412 . S
C3446 C3449 1.383 1_465 S
C3447 C3444 1.403 . S
C3447 C3448 1.524 . S
C3447 C3451 1.400 1_465 S
C3448 H3433 0.960 . S
C3448 H3434 0.960 . S
C3448 H3435 0.960 . S
C3448 C3447 1.524 . S
C3449 C3446 1.383 1_645 S
C3449 C3450 1.392 . S
C3449 C3453 1.495 . S
C3450 C3449 1.392 . S
C3450 C3451 1.385 . S
C3450 C3452 1.478 . S
C3451 H3445 0.930 . S
C3451 C3447 1.400 1_645 S
C3451 C3450 1.385 . S
C3452 C3450 1.478 . S
C3452 C3454 1.381 . S
C3452 C3458 1.383 . S
C3453 C3449 1.495 . S
C3453 H3459 0.959 . S
C3453 H3460 0.961 . S
C3453 H3461 0.960 . S
C3454 C3452 1.381 . S
C3454 C3455 1.394 . S
C3454 H3462 0.930 . S
C3455 C3454 1.394 . S
C3455 C3456 1.383 . S
C3455 H3463 0.929 . S
C3456 C3455 1.383 . S
C3456 C3457 1.377 . S
C3457 H3441 0.930 . S
C3457 C3456 1.377 . S
C3457 C3458 1.379 . S
C3458 H3442 0.931 1_655 S
C3458 C3452 1.383 . S
C3458 C3457 1.379 . S
H3459 C3453 0.959 . S
H3460 C3453 0.961 . S
H3461 C3453 0.960 . S
H3462 C3454 0.930 . S
H3463 C3455 0.929 . S
H3464 C3472 0.929 . S
H3465 C3474 0.930 . S
H3466 C3476 0.930 . S
H3467 C3479 0.929 . S
H3468 C3482 0.930 . S
H3469 C3484 0.960 . S
H3470 C3484 0.960 . S
H3471 C3484 0.960 . S
C3472 H3464 0.929 . S
C3472 C3473 1.377 . S
C3472 C3474 1.384 . S
C3473 C3472 1.377 . S
C3473 C3479 1.390 . S
C3474 H3465 0.930 . S
C3474 C3472 1.384 . S
C3474 C3475 1.372 . S
C3475 C3474 1.372 . S
C3475 C3476 1.400 . S
C3475 C3480 1.490 . S
C3476 H3466 0.930 . S
C3476 C3475 1.400 . S
C3476 C3479 1.386 . S
H3477 C3493 0.930 . S
H3478 C3494 0.931 . S
C3479 H3467 0.929 . S
C3479 C3473 1.390 . S
C3479 C3476 1.386 . S
C3480 C3475 1.490 . S
C3480 C3482 1.395 . S
C3480 C3483 1.403 . S
H3481 C3487 0.930 . S
C3482 H3468 0.930 . S
C3482 C3480 1.395 . S
C3482 C3485 1.403 . S
C3483 C3480 1.403 . S
C3483 C3484 1.524 . S
C3483 C3487 1.400 . S
C3484 H3469 0.960 . S
C3484 H3470 0.960 . S
C3484 H3471 0.960 . S
C3484 C3483 1.524 . S
C3485 C3482 1.403 . S
C3485 C3486 1.392 . S
C3485 C3489 1.495 . S
C3486 C3485 1.392 . S
C3486 C3487 1.385 . S
C3486 C3488 1.478 . S
C3487 H3481 0.930 . S
C3487 C3483 1.400 . S
C3487 C3486 1.385 . S
C3488 C3486 1.478 . S
C3488 C3490 1.381 . S
C3488 C3494 1.383 . S
C3489 C3485 1.495 . S
C3489 H3495 0.959 . S
C3489 H3496 0.961 . S
C3489 H3497 0.960 . S
C3490 C3488 1.381 . S
C3490 C3491 1.394 . S
C3490 H3498 0.930 . S
C3491 C3490 1.394 . S
C3491 C3492 1.383 . S
C3491 H3499 0.929 . S
C3492 C3491 1.383 . S
C3492 C3493 1.377 . S
C3493 H3477 0.930 . S
C3493 C3492 1.377 . S
C3493 C3494 1.379 . S
C3494 H3478 0.931 . S
C3494 C3488 1.383 . S
C3494 C3493 1.379 . S
H3495 C3489 0.959 . S
H3496 C3489 0.961 . S
H3497 C3489 0.960 . S
H3498 C3490 0.930 . S
H3499 C3491 0.929 . S
H3500 C3508 0.929 . S
H3501 C3510 0.930 1_554 S
H3502 C3512 0.930 . S
H3503 C3515 0.929 . S
H3504 C3518 0.929 . S
H3505 C3520 0.960 . S
H3506 C3520 0.960 . S
H3507 C3520 0.960 . S
C3508 H3500 0.929 . S
C3508 C3509 1.377 . S
C3508 C3510 1.384 . S
C3509 C3508 1.377 . S
C3509 C3515 1.390 . S
C3510 H3501 0.930 1_556 S
C3510 C3508 1.384 . S
C3510 C3511 1.372 . S
C3511 C3510 1.372 . S
C3511 C3512 1.400 . S
C3511 C3516 1.490 . S
C3512 H3502 0.930 . S
C3512 C3511 1.400 . S
C3512 C3515 1.386 . S
H3513 C3529 0.930 . S
H3514 C3530 0.931 1_556 S
C3515 H3503 0.929 . S
C3515 C3509 1.390 . S
C3515 C3512 1.386 . S
C3516 C3511 1.490 . S
C3516 C3518 1.344 1_565 S
C3516 C3519 1.403 1_556 S
H3517 C3523 0.930 . S
C3518 H3504 0.929 . S
C3518 C3516 1.344 1_545 S
C3518 C3521 1.456 . S
C3519 C3516 1.403 1_554 S
C3519 C3520 1.524 . S
C3519 C3523 1.400 1_565 S
C3520 H3505 0.960 . S
C3520 H3506 0.960 . S
C3520 H3507 0.960 . S
C3520 C3519 1.524 . S
C3521 C3518 1.456 . S
C3521 C3522 1.392 1_556 S
C3521 C3525 1.495 . S
C3522 C3521 1.392 1_554 S
C3522 C3523 1.385 . S
C3522 C3524 1.478 . S
C3523 H3517 0.930 . S
C3523 C3519 1.400 1_545 S
C3523 C3522 1.385 . S
C3524 C3522 1.478 . S
C3524 C3526 1.381 . S
C3524 C3530 1.383 . S
C3525 C3521 1.495 . S
C3525 H3531 0.959 . S
C3525 H3532 0.961 . S
C3525 H3533 0.960 . S
C3526 C3524 1.381 . S
C3526 C3527 1.394 . S
C3526 H3534 0.930 . S
C3527 C3526 1.394 . S
C3527 C3528 1.383 . S
C3527 H3535 0.929 . S
C3528 C3527 1.383 . S
C3528 C3529 1.377 . S
C3529 H3513 0.930 . S
C3529 C3528 1.377 . S
C3529 C3530 1.379 . S
C3530 H3514 0.931 1_554 S
C3530 C3524 1.383 . S
C3530 C3529 1.379 . S
H3531 C3525 0.959 . S
H3532 C3525 0.961 . S
H3533 C3525 0.960 . S
H3534 C3526 0.930 . S
H3535 C3527 0.929 . S
H3536 C3544 0.929 . S
H3537 C3546 0.930 . S
H3538 C3548 0.930 . S
H3539 C3551 0.929 . S
H3540 C3554 0.930 . S
H3541 C3556 0.960 . S
H3542 C3556 0.960 . S
H3543 C3556 0.960 . S
C3544 H3536 0.929 . S
C3544 C3545 1.377 . S
C3544 C3546 1.384 . S
C3545 C3544 1.377 . S
C3545 C3551 1.390 . S
C3546 H3537 0.930 . S
C3546 C3544 1.384 . S
C3546 C3547 1.372 . S
C3547 C3546 1.372 . S
C3547 C3548 1.400 . S
C3547 C3552 1.490 . S
C3548 H3538 0.930 . S
C3548 C3547 1.400 . S
C3548 C3551 1.386 . S
H3549 C3565 0.930 . S
H3550 C3566 0.931 . S
C3551 H3539 0.929 . S
C3551 C3545 1.390 . S
C3551 C3548 1.386 . S
C3552 C3547 1.490 . S
C3552 C3554 1.395 . S
C3552 C3555 1.403 . S
H3553 C3559 0.930 . S
C3554 H3540 0.930 . S
C3554 C3552 1.395 . S
C3554 C3557 1.403 . S
C3555 C3552 1.403 . S
C3555 C3556 1.524 . S
C3555 C3559 1.400 . S
C3556 H3541 0.960 . S
C3556 H3542 0.960 . S
C3556 H3543 0.960 . S
C3556 C3555 1.524 . S
C3557 C3554 1.403 . S
C3557 C3558 1.392 . S
C3557 C3561 1.495 . S
C3558 C3557 1.392 . S
C3558 C3559 1.385 . S
C3558 C3560 1.478 . S
C3559 H3553 0.930 . S
C3559 C3555 1.400 . S
C3559 C3558 1.385 . S
C3560 C3558 1.478 . S
C3560 C3562 1.381 . S
C3560 C3566 1.383 . S
C3561 C3557 1.495 . S
C3561 H3567 0.959 . S
C3561 H3568 0.961 . S
C3561 H3569 0.960 . S
C3562 C3560 1.381 . S
C3562 C3563 1.394 . S
C3562 H3570 0.930 . S
C3563 C3562 1.394 . S
C3563 C3564 1.383 . S
C3563 H3571 0.929 . S
C3564 C3563 1.383 . S
C3564 C3565 1.377 . S
C3565 H3549 0.930 . S
C3565 C3564 1.377 . S
C3565 C3566 1.379 . S
C3566 H3550 0.931 . S
C3566 C3560 1.383 . S
C3566 C3565 1.379 . S
H3567 C3561 0.959 . S
H3568 C3561 0.961 . S
H3569 C3561 0.960 . S
H3570 C3562 0.930 . S
H3571 C3563 0.929 . S
H3572 C3580 0.929 . S
H3573 C3582 0.930 . S
H3574 C3584 0.930 . S
H3575 C3587 0.929 . S
H3576 C3590 0.932 . S
H3577 C3592 0.960 . S
H3578 C3592 0.960 . S
H3579 C3592 0.960 . S
C3580 H3572 0.929 . S
C3580 C3581 1.377 . S
C3580 C3582 1.384 . S
C3581 C3580 1.377 . S
C3581 C3587 1.390 . S
C3582 H3573 0.930 . S
C3582 C3580 1.384 . S
C3582 C3583 1.372 . S
C3583 C3582 1.372 . S
C3583 C3584 1.400 . S
C3583 C3588 1.490 . S
C3584 H3574 0.930 . S
C3584 C3583 1.400 . S
C3584 C3587 1.386 . S
H3585 C3601 0.930 . S
H3586 C3602 0.931 . S
C3587 H3575 0.929 . S
C3587 C3581 1.390 . S
C3587 C3584 1.386 . S
C3588 C3583 1.490 . S
C3588 C3590 1.409 . S
C3588 C3591 1.403 . S
H3589 C3595 0.930 . S
C3590 H3576 0.932 . S
C3590 C3588 1.409 . S
C3590 C3593 1.387 1_545 S
C3591 C3588 1.403 . S
C3591 C3592 1.524 . S
C3591 C3595 1.400 1_545 S
C3592 H3577 0.960 . S
C3592 H3578 0.960 . S
C3592 H3579 0.960 . S
C3592 C3591 1.524 . S
C3593 C3590 1.387 1_565 S
C3593 C3594 1.392 . S
C3593 C3597 1.495 . S
C3594 C3593 1.392 . S
C3594 C3595 1.385 . S
C3594 C3596 1.478 . S
C3595 H3589 0.930 . S
C3595 C3591 1.400 1_565 S
C3595 C3594 1.385 . S
C3596 C3594 1.478 . S
C3596 C3598 1.381 . S
C3596 C3602 1.383 . S
C3597 C3593 1.495 . S
C3597 H3603 0.959 . S
C3597 H3604 0.961 . S
C3597 H3605 0.960 . S
C3598 C3596 1.381 . S
C3598 C3599 1.394 . S
C3598 H3606 0.930 . S
C3599 C3598 1.394 . S
C3599 C3600 1.383 . S
C3599 H3607 0.929 . S
C3600 C3599 1.383 . S
C3600 C3601 1.377 . S
C3601 H3585 0.930 . S
C3601 C3600 1.377 . S
C3601 C3602 1.379 . S
C3602 H3586 0.931 . S
C3602 C3596 1.383 . S
C3602 C3601 1.379 . S
H3603 C3597 0.959 . S
H3604 C3597 0.961 . S
H3605 C3597 0.960 . S
H3606 C3598 0.930 . S
H3607 C3599 0.929 . S
H3608 C3616 0.929 . S
H3609 C3618 0.930 . S
H3610 C3620 0.930 . S
H3611 C3623 0.929 . S
H3612 C3626 0.930 . S
H3613 C3628 0.960 . S
H3614 C3628 0.960 . S
H3615 C3628 0.960 . S
C3616 H3608 0.929 . S
C3616 C3617 1.377 . S
C3616 C3618 1.384 . S
C3617 C3616 1.377 . S
C3617 C3623 1.390 . S
C3618 H3609 0.930 . S
C3618 C3616 1.384 . S
C3618 C3619 1.372 . S
C3619 C3618 1.372 . S
C3619 C3620 1.400 . S
C3619 C3624 1.490 . S
C3620 H3610 0.930 . S
C3620 C3619 1.400 . S
C3620 C3623 1.386 . S
H3621 C3637 0.930 . S
H3622 C3638 0.931 . S
C3623 H3611 0.929 . S
C3623 C3617 1.390 . S
C3623 C3620 1.386 . S
C3624 C3619 1.490 . S
C3624 C3626 1.395 . S
C3624 C3627 1.403 . S
H3625 C3631 0.930 . S
C3626 H3612 0.930 . S
C3626 C3624 1.395 . S
C3626 C3629 1.403 . S
C3627 C3624 1.403 . S
C3627 C3628 1.524 . S
C3627 C3631 1.400 . S
C3628 H3613 0.960 . S
C3628 H3614 0.960 . S
C3628 H3615 0.960 . S
C3628 C3627 1.524 . S
C3629 C3626 1.403 . S
C3629 C3630 1.392 . S
C3629 C3633 1.495 . S
C3630 C3629 1.392 . S
C3630 C3631 1.385 . S
C3630 C3632 1.478 . S
C3631 H3625 0.930 . S
C3631 C3627 1.400 . S
C3631 C3630 1.385 . S
C3632 C3630 1.478 . S
C3632 C3634 1.381 . S
C3632 C3638 1.383 . S
C3633 C3629 1.495 . S
C3633 H3639 0.959 . S
C3633 H3640 0.961 . S
C3633 H3641 0.960 . S
C3634 C3632 1.381 . S
C3634 C3635 1.394 . S
C3634 H3642 0.930 . S
C3635 C3634 1.394 . S
C3635 C3636 1.383 . S
C3635 H3643 0.929 . S
C3636 C3635 1.383 . S
C3636 C3637 1.377 . S
C3637 H3621 0.930 . S
C3637 C3636 1.377 . S
C3637 C3638 1.379 . S
C3638 H3622 0.931 . S
C3638 C3632 1.383 . S
C3638 C3637 1.379 . S
H3639 C3633 0.959 . S
H3640 C3633 0.961 . S
H3641 C3633 0.960 . S
H3642 C3634 0.930 . S
H3643 C3635 0.929 . S
H3644 C3652 0.929 . S
H3645 C3654 0.930 . S
H3646 C3656 0.930 1_556 S
H3647 C3659 0.929 1_556 S
H3648 C3662 0.930 . S
H3649 C3664 0.960 . S
H3650 C3664 0.961 1_565 S
H3651 C3664 0.960 1_565 S
C3652 H3644 0.929 . S
C3652 C3653 1.377 . S
C3652 C3654 1.384 . S
C3653 C3652 1.377 . S
C3653 C3659 1.390 . S
C3654 H3645 0.930 . S
C3654 C3652 1.384 . S
C3654 C3655 1.372 . S
C3655 C3654 1.372 . S
C3655 C3656 1.400 . S
C3655 C3660 1.490 . S
C3656 H3646 0.930 1_554 S
C3656 C3655 1.400 . S
C3656 C3659 1.386 . S
H3657 C3673 0.930 . S
H3658 C3674 0.931 . S
C3659 H3647 0.929 1_554 S
C3659 C3653 1.390 . S
C3659 C3656 1.386 . S
C3660 C3655 1.490 . S
C3660 C3662 1.395 1_655 S
C3660 C3663 1.366 1_565 S
H3661 C3667 0.929 . S
C3662 H3648 0.930 . S
C3662 C3660 1.395 1_455 S
C3662 C3665 1.403 1_554 S
C3663 C3660 1.366 1_545 S
C3663 C3664 1.530 . S
C3663 C3667 1.428 1_554 S
C3664 H3649 0.960 . S
C3664 H3650 0.961 1_545 S
C3664 H3651 0.960 1_545 S
C3664 C3663 1.530 . S
C3665 C3662 1.403 1_556 S
C3665 C3666 1.392 1_565 S
C3665 C3669 1.495 . S
C3666 C3665 1.392 1_545 S
C3666 C3667 1.390 1_455 S
C3666 C3668 1.478 . S
C3667 H3661 0.929 . S
C3667 C3663 1.428 1_556 S
C3667 C3666 1.390 1_655 S
C3668 C3666 1.478 . S
C3668 C3670 1.381 . S
C3668 C3674 1.383 . S
C3669 C3665 1.495 . S
C3669 H3675 0.959 . S
C3669 H3676 0.979 . S
C3669 H3677 0.960 1_565 S
C3670 C3668 1.381 . S
C3670 C3671 1.394 . S
C3670 H3678 0.931 1_556 S
C3671 C3670 1.394 . S
C3671 C3672 1.383 . S
C3671 H3679 0.929 1_556 S
C3672 C3671 1.383 . S
C3672 C3673 1.377 . S
C3673 H3657 0.930 . S
C3673 C3672 1.377 . S
C3673 C3674 1.379 . S
C3674 H3658 0.931 . S
C3674 C3668 1.383 . S
C3674 C3673 1.379 . S
H3675 C3669 0.959 . S
H3676 C3669 0.979 . S
H3677 C3669 0.960 1_545 S
H3678 C3670 0.931 1_554 S
H3679 C3671 0.929 1_554 S
H3680 C3688 0.929 . S
H3681 C3690 0.930 . S
H3682 C3692 0.930 . S
H3683 C3695 0.929 . S
H3684 C3698 0.930 . S
H3685 C3700 0.960 . S
H3686 C3700 0.960 . S
H3687 C3700 0.960 . S
C3688 H3680 0.929 . S
C3688 C3689 1.377 . S
C3688 C3690 1.384 . S
C3689 C3688 1.377 . S
C3689 C3695 1.390 . S
C3690 H3681 0.930 . S
C3690 C3688 1.384 . S
C3690 C3691 1.372 . S
C3691 C3690 1.372 . S
C3691 C3692 1.400 . S
C3691 C3696 1.490 . S
C3692 H3682 0.930 . S
C3692 C3691 1.400 . S
C3692 C3695 1.386 . S
H3693 C3709 0.930 . S
H3694 C3710 0.931 . S
C3695 H3683 0.929 . S
C3695 C3689 1.390 . S
C3695 C3692 1.386 . S
C3696 C3691 1.490 . S
C3696 C3698 1.395 . S
C3696 C3699 1.403 . S
H3697 C3703 0.930 . S
C3698 H3684 0.930 . S
C3698 C3696 1.395 . S
C3698 C3701 1.403 . S
C3699 C3696 1.403 . S
C3699 C3700 1.524 . S
C3699 C3703 1.400 . S
C3700 H3685 0.960 . S
C3700 H3686 0.960 . S
C3700 H3687 0.960 . S
C3700 C3699 1.524 . S
C3701 C3698 1.403 . S
C3701 C3702 1.392 . S
C3701 C3705 1.495 . S
C3702 C3701 1.392 . S
C3702 C3703 1.385 . S
C3702 C3704 1.478 . S
C3703 H3697 0.930 . S
C3703 C3699 1.400 . S
C3703 C3702 1.385 . S
C3704 C3702 1.478 . S
C3704 C3706 1.381 . S
C3704 C3710 1.383 . S
C3705 C3701 1.495 . S
C3705 H3711 0.959 . S
C3705 H3712 0.961 . S
C3705 H3713 0.960 . S
C3706 C3704 1.381 . S
C3706 C3707 1.394 . S
C3706 H3714 0.930 . S
C3707 C3706 1.394 . S
C3707 C3708 1.383 . S
C3707 H3715 0.929 . S
C3708 C3707 1.383 . S
C3708 C3709 1.377 . S
C3709 H3693 0.930 . S
C3709 C3708 1.377 . S
C3709 C3710 1.379 . S
C3710 H3694 0.931 . S
C3710 C3704 1.383 . S
C3710 C3709 1.379 . S
H3711 C3705 0.959 . S
H3712 C3705 0.961 . S
H3713 C3705 0.960 . S
H3714 C3706 0.930 . S
H3715 C3707 0.929 . S
H3716 C3724 0.929 . S
H3717 C3726 0.930 . S
H3718 C3728 0.930 . S
H3719 C3731 0.929 . S
H3720 C3734 0.930 . S
H3721 C3736 0.960 . S
H3722 C3736 0.960 . S
H3723 C3736 0.960 . S
C3724 H3716 0.929 . S
C3724 C3725 1.377 . S
C3724 C3726 1.384 . S
C3725 C3724 1.377 . S
C3725 C3731 1.390 . S
C3726 H3717 0.930 . S
C3726 C3724 1.384 . S
C3726 C3727 1.372 . S
C3727 C3726 1.372 . S
C3727 C3728 1.400 . S
C3727 C3732 1.490 . S
C3728 H3718 0.930 . S
C3728 C3727 1.400 . S
C3728 C3731 1.386 . S
H3729 C3745 0.930 . S
H3730 C3746 0.931 . S
C3731 H3719 0.929 . S
C3731 C3725 1.390 . S
C3731 C3728 1.386 . S
C3732 C3727 1.490 . S
C3732 C3734 1.395 . S
C3732 C3735 1.403 . S
H3733 C3739 0.930 . S
C3734 H3720 0.930 . S
C3734 C3732 1.395 . S
C3734 C3737 1.403 . S
C3735 C3732 1.403 . S
C3735 C3736 1.524 . S
C3735 C3739 1.400 . S
C3736 H3721 0.960 . S
C3736 H3722 0.960 . S
C3736 H3723 0.960 . S
C3736 C3735 1.524 . S
C3737 C3734 1.403 . S
C3737 C3738 1.392 . S
C3737 C3741 1.495 . S
C3738 C3737 1.392 . S
C3738 C3739 1.385 . S
C3738 C3740 1.478 . S
C3739 H3733 0.930 . S
C3739 C3735 1.400 . S
C3739 C3738 1.385 . S
C3740 C3738 1.478 . S
C3740 C3742 1.381 . S
C3740 C3746 1.383 . S
C3741 C3737 1.495 . S
C3741 H3747 0.959 . S
C3741 H3748 0.961 . S
C3741 H3749 0.960 . S
C3742 C3740 1.381 . S
C3742 C3743 1.394 . S
C3742 H3750 0.930 . S
C3743 C3742 1.394 . S
C3743 C3744 1.383 . S
C3743 H3751 0.929 . S
C3744 C3743 1.383 . S
C3744 C3745 1.377 . S
C3745 H3729 0.930 . S
C3745 C3744 1.377 . S
C3745 C3746 1.379 . S
C3746 H3730 0.931 . S
C3746 C3740 1.383 . S
C3746 C3745 1.379 . S
H3747 C3741 0.959 . S
H3748 C3741 0.961 . S
H3749 C3741 0.960 . S
H3750 C3742 0.930 . S
H3751 C3743 0.929 . S
H3752 C3760 0.929 . S
H3753 C3762 0.930 . S
H3754 C3764 0.930 . S
H3755 C3767 0.929 . S
H3756 C3770 0.930 . S
H3757 C3772 0.960 . S
H3758 C3772 0.960 . S
H3759 C3772 0.960 . S
C3760 H3752 0.929 . S
C3760 C3761 1.377 . S
C3760 C3762 1.384 . S
C3761 C3760 1.377 . S
C3761 C3767 1.390 . S
C3762 H3753 0.930 . S
C3762 C3760 1.384 . S
C3762 C3763 1.372 . S
C3763 C3762 1.372 . S
C3763 C3764 1.400 . S
C3763 C3768 1.490 . S
C3764 H3754 0.930 . S
C3764 C3763 1.400 . S
C3764 C3767 1.386 . S
H3765 C3781 0.930 . S
H3766 C3782 0.931 . S
C3767 H3755 0.929 . S
C3767 C3761 1.390 . S
C3767 C3764 1.386 . S
C3768 C3763 1.490 . S
C3768 C3770 1.395 . S
C3768 C3771 1.403 . S
H3769 C3775 0.930 . S
C3770 H3756 0.930 . S
C3770 C3768 1.395 . S
C3770 C3773 1.403 . S
C3771 C3768 1.403 . S
C3771 C3772 1.524 . S
C3771 C3775 1.400 . S
C3772 H3757 0.960 . S
C3772 H3758 0.960 . S
C3772 H3759 0.960 . S
C3772 C3771 1.524 . S
C3773 C3770 1.403 . S
C3773 C3774 1.392 . S
C3773 C3777 1.495 . S
C3774 C3773 1.392 . S
C3774 C3775 1.385 . S
C3774 C3776 1.478 . S
C3775 H3769 0.930 . S
C3775 C3771 1.400 . S
C3775 C3774 1.385 . S
C3776 C3774 1.478 . S
C3776 C3778 1.381 . S
C3776 C3782 1.383 . S
C3777 C3773 1.495 . S
C3777 H3783 0.959 . S
C3777 H3784 0.961 . S
C3777 H3785 0.960 . S
C3778 C3776 1.381 . S
C3778 C3779 1.394 . S
C3778 H3786 0.930 . S
C3779 C3778 1.394 . S
C3779 C3780 1.383 . S
C3779 H3787 0.929 . S
C3780 C3779 1.383 . S
C3780 C3781 1.377 . S
C3781 H3765 0.930 . S
C3781 C3780 1.377 . S
C3781 C3782 1.379 . S
C3782 H3766 0.931 . S
C3782 C3776 1.383 . S
C3782 C3781 1.379 . S
H3783 C3777 0.959 . S
H3784 C3777 0.961 . S
H3785 C3777 0.960 . S
H3786 C3778 0.930 . S
H3787 C3779 0.929 . S
H3788 C3796 0.929 . S
H3789 C3798 0.930 . S
H3790 C3800 0.930 . S
H3791 C3803 0.929 . S
H3792 C3806 0.930 . S
H3793 C3808 0.960 . S
H3794 C3808 0.960 . S
H3795 C3808 0.960 . S
C3796 H3788 0.929 . S
C3796 C3797 1.377 . S
C3796 C3798 1.384 . S
C3797 C3796 1.377 . S
C3797 C3803 1.390 . S
C3798 H3789 0.930 . S
C3798 C3796 1.384 . S
C3798 C3799 1.372 . S
C3799 C3798 1.372 . S
C3799 C3800 1.400 . S
C3799 C3804 1.490 . S
C3800 H3790 0.930 . S
C3800 C3799 1.400 . S
C3800 C3803 1.386 . S
H3801 C3817 0.930 . S
H3802 C3818 0.931 . S
C3803 H3791 0.929 . S
C3803 C3797 1.390 . S
C3803 C3800 1.386 . S
C3804 C3799 1.490 . S
C3804 C3806 1.395 . S
C3804 C3807 1.403 . S
H3805 C3811 0.930 . S
C3806 H3792 0.930 . S
C3806 C3804 1.395 . S
C3806 C3809 1.403 . S
C3807 C3804 1.403 . S
C3807 C3808 1.524 . S
C3807 C3811 1.400 . S
C3808 H3793 0.960 . S
C3808 H3794 0.960 . S
C3808 H3795 0.960 . S
C3808 C3807 1.524 . S
C3809 C3806 1.403 . S
C3809 C3810 1.392 . S
C3809 C3813 1.495 . S
C3810 C3809 1.392 . S
C3810 C3811 1.385 . S
C3810 C3812 1.478 . S
C3811 H3805 0.930 . S
C3811 C3807 1.400 . S
C3811 C3810 1.385 . S
C3812 C3810 1.478 . S
C3812 C3814 1.381 . S
C3812 C3818 1.383 . S
C3813 C3809 1.495 . S
C3813 H3819 0.959 . S
C3813 H3820 0.961 . S
C3813 H3821 0.960 . S
C3814 C3812 1.381 . S
C3814 C3815 1.394 . S
C3814 H3822 0.930 . S
C3815 C3814 1.394 . S
C3815 C3816 1.383 . S
C3815 H3823 0.929 . S
C3816 C3815 1.383 . S
C3816 C3817 1.377 . S
C3817 H3801 0.930 . S
C3817 C3816 1.377 . S
C3817 C3818 1.379 . S
C3818 H3802 0.931 . S
C3818 C3812 1.383 . S
C3818 C3817 1.379 . S
H3819 C3813 0.959 . S
H3820 C3813 0.961 . S
H3821 C3813 0.960 . S
H3822 C3814 0.930 . S
H3823 C3815 0.929 . S
H3824 C3832 0.929 . S
H3825 C3834 0.930 . S
H3826 C3836 0.930 . S
H3827 C3839 0.929 . S
H3828 C3842 0.930 . S
H3829 C3844 0.960 . S
H3830 C3844 0.960 . S
H3831 C3844 0.960 . S
C3832 H3824 0.929 . S
C3832 C3833 1.377 . S
C3832 C3834 1.384 . S
C3833 C3832 1.377 . S
C3833 C3839 1.390 . S
C3834 H3825 0.930 . S
C3834 C3832 1.384 . S
C3834 C3835 1.372 . S
C3835 C3834 1.372 . S
C3835 C3836 1.400 . S
C3835 C3840 1.490 . S
C3836 H3826 0.930 . S
C3836 C3835 1.400 . S
C3836 C3839 1.386 . S
H3837 C3853 0.930 . S
H3838 C3854 0.931 . S
C3839 H3827 0.929 . S
C3839 C3833 1.390 . S
C3839 C3836 1.386 . S
C3840 C3835 1.490 . S
C3840 C3842 1.395 1_556 S
C3840 C3843 1.403 . S
H3841 C3847 0.930 . S
C3842 H3828 0.930 . S
C3842 C3840 1.395 1_554 S
C3842 C3845 1.403 . S
C3843 C3840 1.403 . S
C3843 C3844 1.524 . S
C3843 C3847 1.400 . S
C3844 H3829 0.960 . S
C3844 H3830 0.960 . S
C3844 H3831 0.960 . S
C3844 C3843 1.524 . S
C3845 C3842 1.403 . S
C3845 C3846 1.392 . S
C3845 C3849 1.495 . S
C3846 C3845 1.392 . S
C3846 C3847 1.385 1_554 S
C3846 C3848 1.478 . S
C3847 H3841 0.930 . S
C3847 C3843 1.400 . S
C3847 C3846 1.385 1_556 S
C3848 C3846 1.478 . S
C3848 C3850 1.381 . S
C3848 C3854 1.383 . S
C3849 C3845 1.495 . S
C3849 H3855 0.959 . S
C3849 H3856 0.961 . S
C3849 H3857 0.960 . S
C3850 C3848 1.381 . S
C3850 C3851 1.394 . S
C3850 H3858 0.930 . S
C3851 C3850 1.394 . S
C3851 C3852 1.383 . S
C3851 H3859 0.929 . S
C3852 C3851 1.383 . S
C3852 C3853 1.377 . S
C3853 H3837 0.930 . S
C3853 C3852 1.377 . S
C3853 C3854 1.379 . S
C3854 H3838 0.931 . S
C3854 C3848 1.383 . S
C3854 C3853 1.379 . S
H3855 C3849 0.959 . S
H3856 C3849 0.961 . S
H3857 C3849 0.960 . S
H3858 C3850 0.930 . S
H3859 C3851 0.929 . S
H3860 C3868 0.929 . S
H3861 C3870 0.930 . S
H3862 C3872 0.930 . S
H3863 C3875 0.929 . S
H3864 C3878 0.930 . S
H3865 C3880 0.960 . S
H3866 C3880 0.960 . S
H3867 C3880 0.960 . S
C3868 H3860 0.929 . S
C3868 C3869 1.377 . S
C3868 C3870 1.384 . S
C3869 C3868 1.377 . S
C3869 C3875 1.390 . S
C3870 H3861 0.930 . S
C3870 C3868 1.384 . S
C3870 C3871 1.372 . S
C3871 C3870 1.372 . S
C3871 C3872 1.400 . S
C3871 C3876 1.490 . S
C3872 H3862 0.930 . S
C3872 C3871 1.400 . S
C3872 C3875 1.386 . S
H3873 C3889 0.930 . S
H3874 C3890 0.931 . S
C3875 H3863 0.929 . S
C3875 C3869 1.390 . S
C3875 C3872 1.386 . S
C3876 C3871 1.490 . S
C3876 C3878 1.395 1_655 S
C3876 C3879 1.403 . S
H3877 C3883 0.930 . S
C3878 H3864 0.930 . S
C3878 C3876 1.395 1_455 S
C3878 C3881 1.403 . S
C3879 C3876 1.403 . S
C3879 C3880 1.524 . S
C3879 C3883 1.400 . S
C3880 H3865 0.960 . S
C3880 H3866 0.960 . S
C3880 H3867 0.960 . S
C3880 C3879 1.524 . S
C3881 C3878 1.403 . S
C3881 C3882 1.392 . S
C3881 C3885 1.495 . S
C3882 C3881 1.392 . S
C3882 C3883 1.385 1_455 S
C3882 C3884 1.478 . S
C3883 H3877 0.930 . S
C3883 C3879 1.400 . S
C3883 C3882 1.385 1_655 S
C3884 C3882 1.478 . S
C3884 C3886 1.381 . S
C3884 C3890 1.383 . S
C3885 C3881 1.495 . S
C3885 H3891 0.959 . S
C3885 H3892 0.961 . S
C3885 H3893 0.960 . S
C3886 C3884 1.381 . S
C3886 C3887 1.394 . S
C3886 H3894 0.930 . S
C3887 C3886 1.394 . S
C3887 C3888 1.383 . S
C3887 H3895 0.929 . S
C3888 C3887 1.383 . S
C3888 C3889 1.377 . S
C3889 H3873 0.930 . S
C3889 C3888 1.377 . S
C3889 C3890 1.379 . S
C3890 H3874 0.931 . S
C3890 C3884 1.383 . S
C3890 C3889 1.379 . S
H3891 C3885 0.959 . S
H3892 C3885 0.961 . S
H3893 C3885 0.960 . S
H3894 C3886 0.930 . S
H3895 C3887 0.929 . S
H3896 C3904 0.930 1_556 S
H3897 C3906 0.887 1_556 S
H3898 C3908 0.966 . S
H3899 C3911 0.929 . S
H3900 C3914 0.930 . S
H3901 C3916 0.960 . S
H3902 C3916 0.960 . S
H3903 C3916 0.960 1_554 S
C3904 H3896 0.930 1_554 S
C3904 C3905 1.377 . S
C3904 C3906 1.401 . S
C3905 C3904 1.377 . S
C3905 C3911 1.390 . S
C3906 H3897 0.887 1_554 S
C3906 C3904 1.401 . S
C3906 C3907 1.400 . S
C3907 C3906 1.400 . S
C3907 C3908 1.400 . S
C3907 C3912 1.490 . S
C3908 H3898 0.966 . S
C3908 C3907 1.400 . S
C3908 C3911 1.386 . S
H3909 C3925 0.930 1_554 S
H3910 C3926 0.953 . S
C3911 H3899 0.929 . S
C3911 C3905 1.390 . S
C3911 C3908 1.386 . S
C3912 C3907 1.490 . S
C3912 C3914 1.395 . S
C3912 C3915 1.403 1_454 S
H3913 C3919 0.930 . S
C3914 H3900 0.930 . S
C3914 C3912 1.395 . S
C3914 C3917 1.403 . S
C3915 C3912 1.403 1_656 S
C3915 C3916 1.524 . S
C3915 C3919 1.400 . S
C3916 H3901 0.960 . S
C3916 H3902 0.960 . S
C3916 H3903 0.960 1_556 S
C3916 C3915 1.524 . S
C3917 C3914 1.403 . S
C3917 C3918 1.392 1_454 S
C3917 C3921 1.495 . S
C3918 C3917 1.392 1_656 S
C3918 C3919 1.385 . S
C3918 C3920 1.478 . S
C3919 H3913 0.930 . S
C3919 C3915 1.400 . S
C3919 C3918 1.385 . S
C3920 C3918 1.478 . S
C3920 C3922 1.381 . S
C3920 C3926 1.369 1_556 S
C3921 C3917 1.495 . S
C3921 H3927 0.959 . S
C3921 H3928 0.961 . S
C3921 H3929 0.960 1_554 S
C3922 C3920 1.381 . S
C3922 C3923 1.394 . S
C3922 H3930 0.930 1_655 S
C3923 C3922 1.394 . S
C3923 C3924 1.383 . S
C3923 H3931 0.929 . S
C3924 C3923 1.383 . S
C3924 C3925 1.377 . S
C3925 H3909 0.930 1_556 S
C3925 C3924 1.377 . S
C3925 C3926 1.372 1_556 S
C3926 H3910 0.953 . S
C3926 C3920 1.369 1_554 S
C3926 C3925 1.372 1_554 S
H3927 C3921 0.959 . S
H3928 C3921 0.961 . S
H3929 C3921 0.960 1_556 S
H3930 C3922 0.930 1_455 S
H3931 C3923 0.929 . S
H3932 C3940 0.929 . S
H3933 C3942 0.930 . S
H3934 C3944 0.930 . S
H3935 C3947 0.929 . S
H3936 C3950 0.930 . S
H3937 C3952 0.960 . S
H3938 C3952 0.960 . S
H3939 C3952 0.960 . S
C3940 H3932 0.929 . S
C3940 C3941 1.377 . S
C3940 C3942 1.384 . S
C3941 C3940 1.377 . S
C3941 C3947 1.390 . S
C3942 H3933 0.930 . S
C3942 C3940 1.384 . S
C3942 C3943 1.372 . S
C3943 C3942 1.372 . S
C3943 C3944 1.400 . S
C3943 C3948 1.490 . S
C3944 H3934 0.930 . S
C3944 C3943 1.400 . S
C3944 C3947 1.386 . S
H3945 C3961 0.930 . S
H3946 C3962 0.931 . S
C3947 H3935 0.929 . S
C3947 C3941 1.390 . S
C3947 C3944 1.386 . S
C3948 C3943 1.490 . S
C3948 C3950 1.395 . S
C3948 C3951 1.403 . S
H3949 C3955 0.930 . S
C3950 H3936 0.930 . S
C3950 C3948 1.395 . S
C3950 C3953 1.403 . S
C3951 C3948 1.403 . S
C3951 C3952 1.524 . S
C3951 C3955 1.400 . S
C3952 H3937 0.960 . S
C3952 H3938 0.960 . S
C3952 H3939 0.960 . S
C3952 C3951 1.524 . S
C3953 C3950 1.403 . S
C3953 C3954 1.392 . S
C3953 C3957 1.495 . S
C3954 C3953 1.392 . S
C3954 C3955 1.385 . S
C3954 C3956 1.478 . S
C3955 H3949 0.930 . S
C3955 C3951 1.400 . S
C3955 C3954 1.385 . S
C3956 C3954 1.478 . S
C3956 C3958 1.381 . S
C3956 C3962 1.383 . S
C3957 C3953 1.495 . S
C3957 H3963 0.959 . S
C3957 H3964 0.961 . S
C3957 H3965 0.960 . S
C3958 C3956 1.381 . S
C3958 C3959 1.394 . S
C3958 H3966 0.930 . S
C3959 C3958 1.394 . S
C3959 C3960 1.383 . S
C3959 H3967 0.929 . S
C3960 C3959 1.383 . S
C3960 C3961 1.377 . S
C3961 H3945 0.930 . S
C3961 C3960 1.377 . S
C3961 C3962 1.379 . S
C3962 H3946 0.931 . S
C3962 C3956 1.383 . S
C3962 C3961 1.379 . S
H3963 C3957 0.959 . S
H3964 C3957 0.961 . S
H3965 C3957 0.960 . S
H3966 C3958 0.930 . S
H3967 C3959 0.929 . S
C1097 C247 1.618 . S
C1116 C9 1.629 . S
C1133 C43 1.622 . S
C1152 C145 1.604 . S
C1169 C77 1.617 . S
C1188 C179 1.628 . S
C1205 C213 1.622 . S
C1224 C111 1.607 . S
C1241 C519 1.622 . S
C1260 C281 1.624 . S
C1277 C417 1.618 . S
C1296 C315 1.607 . S
C1313 C349 1.620 . S
C1332 C451 1.621 . S
C1349 C383 1.621 . S
C1368 C485 1.627 . S
C1385 C791 1.618 . S
C1404 C553 1.617 . S
C1421 C587 1.620 . S
C1440 C689 1.606 . S
C1457 C621 1.617 . S
C1476 C723 1.628 . S
C1493 C757 1.622 . S
C1512 C655 1.606 . S
C1529 C1063 1.619 . S
C1548 C825 1.618 . S
C1565 C859 1.621 . S
C1584 C961 1.621 . S
C1601 C995 1.619 . S
C1620 C893 1.610 . S
C1637 C1029 1.619 . S
C1656 C927 1.611 . S
C1673 C614 0.930 . S
C1692 C2 0.950 . S
C1709 C648 0.929 . S
C1728 C36 0.947 . S
C1745 C70 0.937 . S
C1764 C546 0.917 . S
C1781 C104 0.930 . S
C1800 C580 0.950 . S
C1817 C750 0.935 . S
C1836 C138 0.934 . S
C1853 C784 0.930 . S
C1872 C172 0.950 . S
C1889 C206 0.932 . S
C1908 C682 0.927 . S
C1925 C240 0.929 . S
C1944 C716 0.948 . S
C1961 C274 0.929 . S
C1980 C886 0.929 . S
C1997 C920 0.934 . S
C2016 C308 0.950 . S
C2033 C818 0.937 . S
C2052 C342 0.936 . S
C2069 C376 0.932 . S
C2088 C852 0.950 . S
C2105 C410 0.935 . S
C2124 C1022 0.946 . S
C2141 C1056 0.934 . S
C2160 C444 0.914 . S
C2177 C954 0.929 . S
C2196 C478 0.939 . S
C2213 C988 0.936 . S
C2232 C512 0.921 . S
C2249 C5 0.813 . S
C2268 C951 0.764 . S
C2285 C305 0.795 . S
C2304 C39 0.791 . S
C2321 C883 0.813 . S
C2340 C73 0.852 . S
C2357 C107 0.805 . S
C2376 C373 0.792 . S
C2393 C1019 0.818 . S
C2412 C141 0.837 . S
C2429 C509 0.796 . S
C2448 C175 0.805 . S
C2465 C209 0.807 . S
C2484 C1087 0.808 . S
C2501 C243 0.821 . S
C2520 C441 0.856 . S
C2537 C277 0.808 . S
C2556 C679 0.833 . S
C2573 C311 0.808 . S
C2592 C33 0.848 . S
C2609 C611 0.818 . S
C2628 C345 0.772 . S
C2645 C379 0.813 . S
C2664 C101 0.817 . S
C2681 C747 0.794 . S
C2700 C413 0.852 . S
C2717 C447 0.806 . S
C2736 C237 0.859 . S
C2753 C481 0.817 . S
C2772 C815 0.793 . S
C2789 C169 0.801 . S
C2808 C515 0.838 . S
C2825 C549 0.818 . S
C2844 C407 0.801 . S
C2861 C849 0.817 . S
C2880 C583 0.825 . S
C2897 C339 0.798 . S
C2916 C617 0.815 . S
C2933 C651 0.805 . S
C2952 C917 0.791 . S
C2969 C685 0.820 . S
C2988 C475 0.858 . S
C3005 C1053 0.813 . S
C3024 C719 0.805 . S
C3041 C753 0.805 . S
C3060 C543 0.786 . S
C3077 C985 0.805 . S
C3096 C787 0.838 . S
C3113 C135 0.798 . S
C3132 C821 0.836 . S
C3149 C577 0.801 . S
C3168 C855 0.836 . S
C3185 C67 0.807 . S
C3204 C889 0.819 . S
C3221 C645 0.796 . S
C3240 C923 0.850 . S
C3257 C957 0.812 . S
C3276 C203 0.805 . S
C3293 C781 0.813 . S
C3312 C991 0.794 . S
C3329 C271 0.803 . S
C3348 C1025 0.818 . S
C3365 C713 0.813 . S
C3384 C1059 0.785 . S
C3401 C20 1.450 . S
C3420 C836 1.468 . S
C3437 C54 1.445 . S
C3456 C326 1.442 . S
C3473 C904 1.447 . S
C3492 C88 1.424 . S
C3509 C394 1.449 . S
C3528 C122 1.426 . S
C3545 C972 1.449 . S
C3564 C156 1.426 . S
C3581 C462 1.447 . S
C3600 C190 1.424 . S
C3617 C1040 1.446 . S
C3636 C224 1.426 . S
C3653 C530 1.451 . S
C3672 C258 1.469 . S
C3689 C292 1.449 . S
C3708 C564 1.465 . S
C3725 C632 1.453 . S
C3744 C360 1.468 . S
C3761 C428 1.450 . S
C3780 C700 1.428 . S
C3797 C496 1.446 . S
C3816 C768 1.453 . S
C3833 C870 1.447 . S
C3852 C598 1.458 . S
C3869 C666 1.450 . S
C3888 C938 1.467 . S
C3905 C1006 1.448 . S
C3924 C734 1.424 . S
C3941 C1074 1.448 . S
C3960 C802 1.424 . S
