# Generated by pormake.
# Topology smm, (6)-cn, num edge types: 1
# Building blocks:
#     Node 0, Type 0, BuildingBlock: KUMBUR_clean_sbu_1, # of connection points: 6
#     Node 1, Type 0, BuildingBlock: KUMBUR_clean_sbu_1, # of connection points: 6
#     Node 2, Type 0, BuildingBlock: KUMBUR_clean_sbu_1, # of connection points: 6
#     Node 3, Type 0, BuildingBlock: KUMBUR_clean_sbu_1, # of connection points: 6
#     Node 4, Type 0, BuildingBlock: KUMBUR_clean_sbu_1, # of connection points: 6
#     Node 5, Type 0, BuildingBlock: KUMBUR_clean_sbu_1, # of connection points: 6
#     Node 6, Type 0, BuildingBlock: KUMBUR_clean_sbu_1, # of connection points: 6
#     Node 7, Type 0, BuildingBlock: KUMBUR_clean_sbu_1, # of connection points: 6
#     Node 8, Type 0, BuildingBlock: KUMBUR_clean_sbu_1, # of connection points: 6
#     Edge 9, Type (0, 0), BuildingBlock: KIFKEQ_clean_linker_1, # of connection points: 2
#     Edge 10, Type (0, 0), BuildingBlock: KIFKEQ_clean_linker_1, # of connection points: 2
#     Edge 11, Type (0, 0), BuildingBlock: KIFKEQ_clean_linker_1, # of connection points: 2
#     Edge 12, Type (0, 0), BuildingBlock: KIFKEQ_clean_linker_1, # of connection points: 2
#     Edge 13, Type (0, 0), BuildingBlock: KIFKEQ_clean_linker_1, # of connection points: 2
#     Edge 14, Type (0, 0), BuildingBlock: KIFKEQ_clean_linker_1, # of connection points: 2
#     Edge 15, Type (0, 0), BuildingBlock: KIFKEQ_clean_linker_1, # of connection points: 2
#     Edge 16, Type (0, 0), BuildingBlock: KIFKEQ_clean_linker_1, # of connection points: 2
#     Edge 17, Type (0, 0), BuildingBlock: KIFKEQ_clean_linker_1, # of connection points: 2
#     Edge 18, Type (0, 0), BuildingBlock: KIFKEQ_clean_linker_1, # of connection points: 2
#     Edge 19, Type (0, 0), BuildingBlock: KIFKEQ_clean_linker_1, # of connection points: 2
#     Edge 20, Type (0, 0), BuildingBlock: KIFKEQ_clean_linker_1, # of connection points: 2
#     Edge 21, Type (0, 0), BuildingBlock: KIFKEQ_clean_linker_1, # of connection points: 2
#     Edge 22, Type (0, 0), BuildingBlock: KIFKEQ_clean_linker_1, # of connection points: 2
#     Edge 23, Type (0, 0), BuildingBlock: KIFKEQ_clean_linker_1, # of connection points: 2
#     Edge 24, Type (0, 0), BuildingBlock: KIFKEQ_clean_linker_1, # of connection points: 2
#     Edge 25, Type (0, 0), BuildingBlock: KIFKEQ_clean_linker_1, # of connection points: 2
#     Edge 26, Type (0, 0), BuildingBlock: KIFKEQ_clean_linker_1, # of connection points: 2
#     Edge 27, Type (0, 0), BuildingBlock: KIFKEQ_clean_linker_1, # of connection points: 2
#     Edge 28, Type (0, 0), BuildingBlock: KIFKEQ_clean_linker_1, # of connection points: 2
#     Edge 29, Type (0, 0), BuildingBlock: KIFKEQ_clean_linker_1, # of connection points: 2
#     Edge 30, Type (0, 0), BuildingBlock: KIFKEQ_clean_linker_1, # of connection points: 2
#     Edge 31, Type (0, 0), BuildingBlock: KIFKEQ_clean_linker_1, # of connection points: 2
#     Edge 32, Type (0, 0), BuildingBlock: KIFKEQ_clean_linker_1, # of connection points: 2
#     Edge 33, Type (0, 0), BuildingBlock: KIFKEQ_clean_linker_1, # of connection points: 2
#     Edge 34, Type (0, 0), BuildingBlock: KIFKEQ_clean_linker_1, # of connection points: 2
#     Edge 35, Type (0, 0), BuildingBlock: KIFKEQ_clean_linker_1, # of connection points: 2
# Relax obj value: 0.107
# Max RMSD: 0.221
# Mean RMSD: 0.174
data_MOF--net-smm--node1-KUMBUR_clean_sbu_1--edge1-KIFKEQ_clean_linker_1
_symmetry_space_group_name_H-M    P1
_symmetry_Int_Tables_number       1
_symmetry_cell_setting            triclinic
loop_
_symmetry_equiv_pos_as_xyz
'x, y, z'
_cell_length_a     60.527675
_cell_length_b     75.763871
_cell_length_c     15.178834
_cell_angle_alpha  96.262362
_cell_angle_beta   96.783881
_cell_angle_gamma 121.6445
loop_
_atom_site_label
_atom_site_type_symbol
_atom_site_fract_x
_atom_site_fract_y
_atom_site_fract_z
_atom_type_partial_charge
Tb0 Tb 0.03294 0.1808 0.09896 0.0
C1 C 0.15 0.23443 0.24196 0.0
N2 N 0.13089 0.23574 0.2752 0.0
C3 C 0.15107 0.23855 0.42611 0.0
C4 C 0.16993 0.23434 0.29974 0.0
C5 C 0.1315 0.2383 0.36605 0.0
C6 C 0.17028 0.23643 0.39281 0.0
C7 C 0.16751 0.22982 0.11179 0.0
C8 C 0.14868 0.23215 0.14885 0.0
C9 C 0.18739 0.22967 0.16914 0.0
C10 C 0.18864 0.23198 0.26282 0.0
Tb11 Tb 0.10094 0.23619 0.17134 0.0
N12 N 0.12885 0.232 0.09488 0.0
C13 C 0.16591 0.22786 0.01821 0.0
C14 C 0.12843 0.23158 0.00453 0.0
C15 C 0.1465 0.22901 0.9646 0.0
H16 H 0.11729 0.2406 0.39268 0.0
H17 H 0.14576 0.22834 0.89264 0.0
H18 H 1.021 0.16782 0.87355 0.0
H19 H 0.96976 0.1768 0.32859 0.0
H20 H 0.11506 0.23404 0.96307 0.0
H21 H 0.17997 0.226 0.98705 0.0
H22 H 1.00989 0.18071 0.28619 0.0
H23 H 0.15141 0.2405 0.49807 0.0
H24 H 0.20199 0.22787 0.14174 0.0
H25 H 0.2041 0.23184 0.30609 0.0
H26 H 0.98637 0.16029 0.74504 0.0
H27 H 0.18535 0.23652 0.43951 0.0
H28 H 0.93279 0.16978 0.20985 0.0
N29 N 1.00152 0.17214 0.97381 0.0
C30 C 0.97879 0.17007 0.99031 0.0
C31 C 0.98411 0.16326 0.81374 0.0
C32 C 0.95801 0.16503 0.91901 0.0
C33 C 1.00401 0.16801 0.8869 0.0
C34 C 0.96111 0.16199 0.82981 0.0
N35 N 0.99667 0.17729 0.14562 0.0
C36 C 0.9943 0.17822 0.23409 0.0
C37 C 0.95258 0.16974 0.09998 0.0
C38 C 0.97607 0.17238 0.07923 0.0
C39 C 0.95052 0.1717 0.19096 0.0
C40 C 0.97139 0.17574 0.25822 0.0
H41 H 0.94563 0.15814 0.77302 0.0
H42 H 0.91855 0.15907 0.88521 0.0
H43 H 0.9138 0.16319 0.04384 0.0
O44 O 0.03151 0.15847 0.17345 0.0
O45 O 1.02669 0.20723 0.12668 0.0
O46 O 0.06696 0.23975 0.14975 0.0
O47 O 1.01153 0.14901 0.03325 0.0
O48 O 0.05296 0.1918 0.24335 0.0
O49 O 0.07652 0.22831 0.2736 0.0
O50 O 0.1275 0.26506 0.13372 0.0
O51 O 0.09797 0.20608 0.18958 0.0
O52 O 0.06879 0.18478 0.06133 0.0
O53 O 0.11909 0.26411 0.26968 0.0
O54 O 0.07886 0.22995 0.03262 0.0
O55 O 0.05675 0.19392 0.99766 0.0
C56 C 0.04084 0.22817 0.13938 0.0
C57 C 0.99459 0.12339 0.12225 0.0
C58 C 0.9759 0.08655 0.1321 0.0
C59 C 0.95162 0.08441 0.13866 0.0
C60 C 0.97038 0.1211 0.12904 0.0
C61 C 0.949 0.10165 0.1377 0.0
C62 C 0.99739 0.10627 0.12479 0.0
C63 C 0.06332 0.21011 0.29927 0.0
C64 C 1.01665 0.14277 0.10476 0.0
C65 C 0.93471 0.16284 0.93906 0.0
C66 C 0.93198 0.16515 0.02938 0.0
C67 C 0.08879 0.18954 0.12427 0.0
C68 C 0.15008 0.29876 0.2418 0.0
C69 C 0.17409 0.33361 0.2039 0.0
C70 C 0.18115 0.34291 0.29625 0.0
C71 C 0.15744 0.30835 0.33391 0.0
C72 C 0.1588 0.31146 0.17678 0.0
C73 C 0.173 0.33032 0.36083 0.0
C74 C 0.06448 0.212 0.97288 0.0
C75 C 0.13195 0.27568 0.21418 0.0
H76 H 0.93449 0.06933 0.14276 0.0
H77 H 0.96783 0.13412 0.12591 0.0
H78 H 0.93021 0.09982 0.14206 0.0
H79 H 1.01632 0.10833 0.12007 0.0
H80 H 0.19307 0.35997 0.3184 0.0
H81 H 0.15094 0.29888 0.3852 0.0
H82 H 0.15294 0.30424 0.10536 0.0
H83 H 0.17852 0.33761 0.43187 0.0
Tb84 Tb 0.9244 0.86117 0.07094 0.0
C85 C 0.97708 0.81234 0.99305 0.0
N86 N 0.95305 0.80754 0.9492 0.0
C87 C 0.96249 0.79998 0.80613 0.0
C88 C 0.99512 0.81172 0.94417 0.0
C89 C 0.94521 0.80079 0.85737 0.0
C90 C 0.98761 0.80559 0.8496 0.0
C91 C 1.00884 0.82395 0.13439 0.0
C92 C 0.98389 0.81849 0.08748 0.0
C93 C 1.02685 0.82334 0.08568 0.0
C94 C 1.02002 0.81726 0.99098 0.0
Tb95 Tb 0.92684 0.80871 0.04161 0.0
N96 N 0.96621 0.81943 0.13282 0.0
C97 C 1.01489 0.82971 0.22899 0.0
C98 C 0.97144 0.82376 0.22526 0.0
C99 C 0.99599 0.82936 0.27458 0.0
H100 H 0.92549 0.79561 0.82325 0.0
H101 H 1.00011 0.833 0.34789 0.0
H102 H 0.92908 0.87367 0.29419 0.0
H103 H 0.85813 0.85972 0.79757 0.0
H104 H 0.95659 0.82204 0.2619 0.0
H105 H 0.03383 0.83396 0.26754 0.0
H106 H 0.89866 0.86191 0.87028 0.0
H107 H 0.95633 0.79483 0.73323 0.0
H108 H 0.04612 0.82748 0.12069 0.0
H109 H 0.03415 0.81686 0.95453 0.0
H110 H 0.89883 0.86947 0.39701 0.0
H111 H 1.00093 0.8049 0.80961 0.0
H112 H 0.82379 0.85415 0.88543 0.0
N113 N 0.89894 0.85958 0.17454 0.0
C114 C 0.87468 0.8556 0.1386 0.0
C115 C 0.89146 0.86487 0.3244 0.0
C116 C 0.85723 0.85479 0.1944 0.0
C117 C 0.90833 0.86634 0.26607 0.0
C118 C 0.86548 0.85848 0.2883 0.0
N119 N 0.88656 0.85679 0.99581 0.0
C120 C 0.88352 0.85923 0.90828 0.0
C121 C 0.84535 0.85358 0.00841 0.0
C122 C 0.8687 0.85495 0.04675 0.0
C123 C 0.8414 0.855 0.91728 0.0
C124 C 0.86074 0.85812 0.86737 0.0
H125 H 0.85268 0.85797 0.33355 0.0
H126 H 0.81927 0.85103 0.19713 0.0
H127 H 0.8089 0.85001 0.03421 0.0
O128 O 0.94779 0.88793 0.01509 0.0
O129 O 0.8883 0.83089 0.9957 0.0
O130 O 0.887 0.8036 0.05312 0.0
O131 O 0.92865 0.88976 0.12234 0.0
O132 O 0.93209 0.85145 0.94155 0.0
O133 O 0.9116 0.81466 0.91665 0.0
O134 O 0.92355 0.78373 0.10419 0.0
O135 O 0.96408 0.84108 0.03015 0.0
O136 O 0.96429 0.86756 0.1208 0.0
O137 O 0.90516 0.77688 0.96699 0.0
O138 O 0.91589 0.81683 0.16473 0.0
O139 O 0.93869 0.85321 0.19165 0.0
C140 C 0.87474 0.81265 0.02123 0.0
C141 C 0.9668 0.92103 0.11422 0.0
C142 C 0.98754 0.95918 0.14187 0.0
C143 C 1.00722 0.96152 0.2104 0.0
C144 C 0.9854 0.92347 0.18668 0.0
C145 C 1.00609 0.94368 0.23262 0.0
C146 C 0.96778 0.93885 0.09233 0.0
C147 C 0.92218 0.83281 0.88818 0.0
C148 C 0.94396 0.9001 0.06952 0.0
C149 C 0.83301 0.85188 0.15541 0.0
C150 C 0.82716 0.85141 0.06268 0.0
C151 C 0.97701 0.86155 0.07321 0.0
C152 C 0.88569 0.74771 0.0471 0.0
C153 C 0.86323 0.70991 0.07117 0.0
C154 C 0.83992 0.70992 0.06878 0.0
C155 C 0.86162 0.74622 0.0469 0.0
C156 C 0.88644 0.72919 0.05908 0.0
C157 C 0.83916 0.72762 0.05696 0.0
C158 C 0.92625 0.83515 0.21953 0.0
C159 C 0.90911 0.7686 0.03341 0.0
H160 H 1.02261 0.97701 0.24998 0.0
H161 H 0.98323 0.90974 0.20961 0.0
H162 H 1.02062 0.94551 0.28796 0.0
H163 H 0.95248 0.93681 0.03922 0.0
H164 H 0.82183 0.69591 0.07627 0.0
H165 H 0.86008 0.75957 0.03828 0.0
H166 H 0.90482 0.72992 0.06034 0.0
H167 H 0.8208 0.72692 0.05581 0.0
Tb168 Tb 0.21161 0.04257 0.04087 0.0
C169 C 0.19957 0.95547 0.06481 0.0
N170 N 0.21644 0.9753 0.11626 0.0
C171 C 0.21234 0.96096 0.25101 0.0
C172 C 0.18775 0.93763 0.10528 0.0
C173 C 0.22373 0.97813 0.20772 0.0
C174 C 0.19406 0.94063 0.19969 0.0
C175 C 0.17717 0.93275 0.91566 0.0
C176 C 0.19448 0.95306 0.97088 0.0
C177 C 0.16524 0.91496 0.9559 0.0
C178 C 0.17051 0.91739 0.05036 0.0
Tb179 Tb 0.23521 1.0015 0.03653 0.0
N180 N 0.20575 0.97072 0.93423 0.0
C181 C 0.17197 0.93097 0.82175 0.0
C182 C 0.20155 0.96893 0.84239 0.0
C183 C 0.18429 0.94912 0.78503 0.0
H184 H 0.23927 0.99338 0.24687 0.0
H185 H 0.18086 0.94784 0.71233 0.0
H186 H 0.20409 0.04733 0.82477 0.0
H187 H 0.27742 0.09838 0.35022 0.0
H188 H 0.21206 0.98247 0.81228 0.0
H189 H 0.15866 0.91565 0.77703 0.0
H190 H 0.24355 0.06316 0.26032 0.0
H191 H 0.21816 0.96335 0.32369 0.0
H192 H 0.15183 0.89923 0.91454 0.0
H193 H 0.16125 0.9035 0.08029 0.0
H194 H 0.22413 0.076 0.74012 0.0
H195 H 0.18549 0.92732 0.23337 0.0
H196 H 0.29712 0.12928 0.27667 0.0
N197 N 0.22931 0.06668 0.95156 0.0
C198 C 0.24717 0.08685 0.99877 0.0
C199 C 0.23107 0.0792 0.81261 0.0
C200 C 0.25828 0.10391 0.95352 0.0
C201 C 0.22033 0.06281 0.86039 0.0
C202 C 0.25025 0.09981 0.85922 0.0
N203 N 0.24522 0.07327 0.13435 0.0
C204 C 0.25265 0.07608 0.22586 0.0
C205 C 0.2743 0.11088 0.14267 0.0
C206 C 0.25517 0.09029 0.09289 0.0
C207 C 0.28247 0.1137 0.23606 0.0
C208 C 0.27156 0.09625 0.27773 0.0
H209 H 0.25841 0.1125 0.82197 0.0
H210 H 0.28581 0.13775 0.9698 0.0
H211 H 0.29973 0.14385 0.13488 0.0
O212 O 0.1986 0.05918 0.11721 0.0
O213 O 0.25494 0.05584 0.0296 0.0
O214 O 0.26994 0.0349 0.07323 0.0
O215 O 0.18248 0.04716 0.97529 0.0
O216 O 0.20947 0.02846 0.16078 0.0
O217 O 0.24215 0.02106 0.16841 0.0
O218 O 0.25604 0.99279 0.95746 0.0
O219 O 0.19085 0.98631 0.03083 0.0
O220 O 0.17671 1.00974 0.04281 0.0
O221 O 0.2645 0.99745 0.10177 0.0
O222 O 0.23684 1.01695 0.92098 0.0
O223 O 0.20129 0.02066 0.91264 0.0
C224 C 0.27477 0.05301 0.05268 0.0
C225 C 0.16019 0.05959 0.06053 0.0
C226 C 0.13871 0.07954 0.08544 0.0
C227 C 0.11585 0.06052 0.09233 0.0
C228 C 0.13696 0.04109 0.06783 0.0
C229 C 0.11497 0.04158 0.08316 0.0
C230 C 0.16096 0.0789 0.0685 0.0
C231 C 0.22488 0.02347 0.20488 0.0
C232 C 0.1839 0.05908 0.04725 0.0
C233 C 0.2771 0.12444 0.00347 0.0
C234 C 0.28501 0.12792 0.09762 0.0
C235 C 0.1717 0.99009 0.03625 0.0
C236 C 0.27231 0.9731 0.02099 0.0
C237 C 0.29361 0.95451 0.97268 0.0
C238 C 0.27742 0.93811 0.01531 0.0
C239 C 0.25734 0.95671 0.06571 0.0
C240 C 0.29097 0.9721 0.97542 0.0
C241 C 0.25959 0.93929 0.06176 0.0
C242 C 0.21882 1.01903 0.87475 0.0
C243 C 0.26972 0.99173 0.02715 0.0
H244 H 0.0984 0.06026 0.10434 0.0
H245 H 0.13589 0.02627 0.06208 0.0
H246 H 0.09709 0.02715 0.08851 0.0
H247 H 0.1789 0.09335 0.06348 0.0
H248 H 0.27909 0.92454 0.01475 0.0
H249 H 0.2443 0.95748 0.10594 0.0
H250 H 0.30335 0.98488 0.94287 0.0
H251 H 0.24775 0.92678 0.09633 0.0
Tb252 Tb 0.80303 0.51321 0.15007 0.0
C253 C 0.68371 0.47769 0.05805 0.0
N254 N 0.70386 0.49327 0.02711 0.0
C255 C 0.678 0.4786 0.87546 0.0
C256 C 0.66022 0.46139 0.99794 0.0
C257 C 0.70098 0.49437 0.93769 0.0
C258 C 0.65762 0.46192 0.90553 0.0
C259 C 0.66686 0.46175 0.18474 0.0
C260 C 0.68709 0.47788 0.15031 0.0
C261 C 0.64361 0.44521 0.12491 0.0
C262 C 0.64026 0.44507 0.0318 0.0
Tb263 Tb 0.74017 0.51815 0.13462 0.0
N264 N 0.71 0.49407 0.2062 0.0
C265 C 0.6704 0.46295 0.27842 0.0
C266 C 0.71232 0.49626 0.2979 0.0
C267 C 0.69302 0.48049 0.33533 0.0
H268 H 0.71611 0.5075 0.91396 0.0
H269 H 0.6953 0.48215 0.40814 0.0
H270 H 0.81993 0.51722 0.37537 0.0
H271 H 0.86394 0.55556 0.92226 0.0
H272 H 0.72826 0.51052 0.34271 0.0
H273 H 0.65536 0.45085 0.30762 0.0
H274 H 0.82508 0.52576 0.96469 0.0
H275 H 0.67597 0.4794 0.80444 0.0
H276 H 0.62793 0.4326 0.15011 0.0
H277 H 0.62215 0.43229 0.9866 0.0
H278 H 0.85298 0.54499 0.50418 0.0
H279 H 0.63988 0.44967 0.85708 0.0
H280 H 0.899 0.58601 0.04131 0.0
N281 N 0.83395 0.53657 0.27708 0.0
C282 C 0.85517 0.55428 0.26063 0.0
C283 C 0.85351 0.54804 0.43619 0.0
C284 C 0.87557 0.57016 0.332 0.0
C285 C 0.83417 0.53253 0.36282 0.0
C286 C 0.87397 0.56718 0.42093 0.0
N287 N 0.83774 0.53982 0.10467 0.0
C288 C 0.84024 0.53912 0.01638 0.0
C289 C 0.87995 0.57297 0.15099 0.0
C290 C 0.85753 0.55568 0.17154 0.0
C291 C 0.88202 0.57302 0.05999 0.0
C292 C 0.86224 0.55588 0.99251 0.0
H293 H 0.88919 0.57902 0.47775 0.0
H294 H 0.91318 0.60046 0.36608 0.0
H295 H 0.91697 0.60293 0.20749 0.0
O296 O 0.80477 0.48986 0.0661 0.0
O297 O 0.80738 0.54334 0.11548 0.0
O298 O 0.77967 0.54692 0.19348 0.0
O299 O 0.83128 0.50596 0.1935 0.0
O300 O 0.77785 0.50354 0.01459 0.0
O301 O 0.75889 0.52348 0.01584 0.0
O302 O 0.71892 0.52924 0.19586 0.0
O303 O 0.73381 0.48652 0.08578 0.0
O304 O 0.76619 0.48591 0.1773 0.0
O305 O 0.73147 0.53768 0.06946 0.0
O306 O 0.76604 0.52827 0.26905 0.0
O307 O 0.78229 0.50675 0.26355 0.0
C308 C 0.79941 0.5554 0.15078 0.0
C309 C 0.81839 0.47061 0.14635 0.0
C310 C 0.83064 0.44444 0.15675 0.0
C311 C 0.80815 0.43244 0.19319 0.0
C312 C 0.79642 0.45822 0.18403 0.0
C313 C 0.79132 0.43932 0.207 0.0
C314 C 0.83589 0.46379 0.1338 0.0
C315 C 0.76819 0.51332 0.97348 0.0
C316 C 0.82322 0.4909 0.12438 0.0
C317 C 0.89745 0.58799 0.31209 0.0
C318 C 0.89967 0.58936 0.22177 0.0
C319 C 0.74157 0.47599 0.13016 0.0
C320 C 0.70692 0.55173 0.1299 0.0
C321 C 0.69063 0.57139 0.2067 0.0
C322 C 0.68038 0.57292 0.12197 0.0
C323 C 0.69689 0.55378 0.04621 0.0
C324 C 0.70397 0.56074 0.21046 0.0
C325 C 0.68366 0.56427 0.04241 0.0
C326 C 0.77505 0.51804 0.30878 0.0
C327 C 0.71921 0.53932 0.13172 0.0
H328 H 0.8037 0.41768 0.21187 0.0
H329 H 0.78326 0.46327 0.19655 0.0
H330 H 0.77422 0.42997 0.23592 0.0
H331 H 0.85316 0.47328 0.10576 0.0
H332 H 0.67013 0.58108 0.11745 0.0
H333 H 0.69883 0.54688 0.98351 0.0
H334 H 0.71169 0.55929 0.27556 0.0
H335 H 0.67579 0.56562 0.97747 0.0
Tb336 Tb 0.53333 0.21831 0.09283 0.0
C337 C 0.57271 0.16134 0.99795 0.0
N338 N 0.54986 0.15966 0.96157 0.0
C339 C 0.55636 0.15234 0.81197 0.0
C340 C 0.58893 0.15962 0.94257 0.0
C341 C 0.54065 0.15357 0.86971 0.0
C342 C 0.58089 0.15581 0.84855 0.0
C343 C 0.60124 0.16337 0.13074 0.0
C344 C 0.57887 0.16318 0.09072 0.0
C345 C 0.61801 0.16255 0.07628 0.0
C346 C 0.61193 0.16077 0.98244 0.0
Tb347 Tb 0.526 0.16181 0.06465 0.0
N348 N 0.56263 0.16455 0.14178 0.0
C349 C 0.60591 0.16422 0.2242 0.0
C350 C 0.56638 0.16444 0.23225 0.0
C351 C 0.58827 0.16457 0.27501 0.0
H352 H 0.52078 0.14885 0.8401 0.0
H353 H 0.59147 0.16487 0.34697 0.0
H354 H 0.53966 0.23557 0.30991 0.0
H355 H 0.46637 0.20726 0.79103 0.0
H356 H 0.55253 0.16439 0.27123 0.0
H357 H 0.62287 0.16436 0.2575 0.0
H358 H 0.50591 0.21042 0.87422 0.0
H359 H 0.54917 0.14808 0.73931 0.0
H360 H 0.63549 0.16292 0.10582 0.0
H361 H 0.6247 0.15963 0.94099 0.0
H362 H 0.51416 0.24329 0.40449 0.0
H363 H 0.59277 0.15439 0.80365 0.0
H364 H 0.43713 0.21289 0.87434 0.0
N365 N 0.51205 0.22626 0.18702 0.0
C366 C 0.49023 0.22535 0.14564 0.0
C367 C 0.507 0.23797 0.3319 0.0
C368 C 0.47531 0.23005 0.19659 0.0
C369 C 0.52114 0.23316 0.27837 0.0
C370 C 0.48381 0.2362 0.29096 0.0
N371 N 0.49822 0.21583 0.00459 0.0
C372 C 0.49289 0.21193 0.91211 0.0
C373 C 0.46055 0.21889 0.00638 0.0
C374 C 0.48304 0.21993 0.05155 0.0
C375 C 0.45426 0.21385 0.91163 0.0
C376 C 0.47065 0.21057 0.86436 0.0
H377 H 0.47293 0.24001 0.33256 0.0
H378 H 0.44088 0.23222 0.18983 0.0
H379 H 0.4279 0.22237 0.02346 0.0
O380 O 0.546 0.24661 0.04312 0.0
O381 O 0.4921 0.18901 0.09683 0.0
O382 O 0.48903 0.16003 0.01399 0.0
O383 O 0.56605 0.24776 0.1709 0.0
O384 O 0.53823 0.2062 0.96377 0.0
O385 O 0.51246 0.16967 0.94173 0.0
O386 O 0.50609 0.13739 0.13831 0.0
O387 O 0.5646 0.19143 0.12903 0.0
O388 O 0.56531 0.21555 0.05095 0.0
O389 O 0.51145 0.13064 0.00223 0.0
O390 O 0.51714 0.17268 0.18703 0.0
O391 O 0.54416 0.20936 0.21753 0.0
C392 C 0.47766 0.16831 0.05635 0.0
C393 C 0.57331 0.28114 0.14183 0.0
C394 C 0.60152 0.32035 0.15031 0.0
C395 C 0.58474 0.32231 0.20149 0.0
C396 C 0.55739 0.28434 0.19237 0.0
C397 C 0.56316 0.30466 0.22223 0.0
C398 C 0.59576 0.2994 0.12099 0.0
C399 C 0.52528 0.18732 0.91098 0.0
C400 C 0.56606 0.25878 0.11045 0.0
C401 C 0.45267 0.22874 0.15182 0.0
C402 C 0.44529 0.22314 0.05703 0.0
C403 C 0.57786 0.20812 0.09327 0.0
C404 C 0.48928 0.10042 0.0725 0.0
C405 C 0.48037 0.07106 0.14825 0.0
C406 C 0.46775 0.05712 0.06331 0.0
C407 C 0.47627 0.08604 0.98927 0.0
C408 C 0.49121 0.0929 0.1523 0.0
C409 C 0.46556 0.06456 0.98492 0.0
C410 C 0.53091 0.19107 0.24418 0.0
C411 C 0.50311 0.12325 0.0728 0.0
H412 H 0.58834 0.33777 0.22579 0.0
H413 H 0.54028 0.27104 0.20869 0.0
H414 H 0.55061 0.30676 0.26153 0.0
H415 H 0.60819 0.29727 0.08109 0.0
H416 H 0.45994 0.04039 0.05683 0.0
H417 H 0.47478 0.09148 0.92703 0.0
H418 H 0.5015 0.10402 0.21652 0.0
H419 H 0.45589 0.05363 0.92017 0.0
Tb420 Tb 0.89702 0.31289 0.16753 0.0
C421 C 0.97464 0.40372 0.17026 0.0
N422 N 0.97524 0.38672 0.13436 0.0
C423 C 0.98259 0.39948 0.99569 0.0
C424 C 0.9767 0.41868 0.11841 0.0
C425 C 0.98133 0.38549 0.05078 0.0
C426 C 0.97973 0.41592 0.02899 0.0
C427 C 0.97485 0.42503 0.30273 0.0
C428 C 0.97359 0.40689 0.26124 0.0
C429 C 0.97601 0.43957 0.25045 0.0
C430 C 0.97675 0.43632 0.15841 0.0
Tb431 Tb 0.97213 0.36498 0.23304 0.0
N432 N 0.97122 0.39202 0.30909 0.0
C433 C 0.97499 0.428 0.39561 0.0
C434 C 0.97272 0.3953 0.40048 0.0
C435 C 0.97422 0.41319 0.44486 0.0
H436 H 0.98606 0.37419 0.02661 0.0
H437 H 0.97489 0.41559 0.51697 0.0
H438 H 0.89328 0.29915 0.36856 0.0
H439 H 0.87923 0.2691 0.83246 0.0
H440 H 0.97262 0.38403 0.43863 0.0
H441 H 0.97604 0.4418 0.43011 0.0
H442 H 0.88754 0.29935 0.94192 0.0
H443 H 0.98653 0.39794 0.92849 0.0
H444 H 0.97666 0.4535 0.28079 0.0
H445 H 0.97813 0.44789 0.11937 0.0
H446 H 0.88581 0.26856 0.43233 0.0
H447 H 0.98123 0.42698 0.98674 0.0
H448 H 0.87259 0.23714 0.88443 0.0
N449 N 0.89113 0.28571 0.23496 0.0
C450 C 0.88455 0.26779 0.17795 0.0
C451 C 0.88587 0.26824 0.36089 0.0
C452 C 0.87941 0.24959 0.21103 0.0
C453 C 0.89089 0.2859 0.3249 0.0
C454 C 0.88036 0.25006 0.30388 0.0
N455 N 0.88841 0.28576 0.05715 0.0
C456 C 0.88608 0.28606 0.96673 0.0
C457 C 0.87792 0.24997 0.02547 0.0
C458 C 0.8837 0.26798 0.08637 0.0
C459 C 0.87688 0.25062 0.9334 0.0
C460 C 0.88075 0.26867 0.90387 0.0
H461 H 0.87649 0.2364 0.33197 0.0
H462 H 0.87 0.21759 0.17484 0.0
H463 H 0.8688 0.21793 0.01243 0.0
O464 O 0.85755 0.2953 0.09133 0.0
O465 O 0.92987 0.30726 0.20263 0.0
O466 O 0.97 0.3356 0.18073 0.0
O467 O 0.86627 0.31162 0.22648 0.0
O468 O 0.91414 0.33012 0.06038 0.0
O469 O 0.95981 0.34575 0.09463 0.0
O470 O 1.00357 0.37281 0.34108 0.0
O471 O 0.93675 0.36584 0.25098 0.0
O472 O 0.9052 0.34243 0.12845 0.0
O473 O 1.01127 0.38846 0.22935 0.0
O474 O 0.95786 0.34568 0.33567 0.0
O475 O 0.91253 0.33124 0.30841 0.0
C476 C 0.95458 0.31561 0.18916 0.0
C477 C 0.82214 0.28107 0.17097 0.0
C478 C 0.77323 0.26043 0.15815 0.0
C479 C 0.7758 0.24609 0.20318 0.0
C480 C 0.82311 0.26587 0.21282 0.0
C481 C 0.80031 0.24873 0.22943 0.0
C482 C 0.79689 0.27835 0.14344 0.0
C483 C 0.93702 0.33666 0.03572 0.0
C484 C 0.84747 0.29932 0.15556 0.0
C485 C 0.87381 0.23167 0.15067 0.0
C486 C 0.87317 0.23189 0.05819 0.0
C487 C 0.91684 0.36057 0.18546 0.0
C488 C 0.04812 0.39093 0.31621 0.0
C489 C 0.09587 0.41209 0.38592 0.0
C490 C 0.09944 0.3998 0.31946 0.0
C491 C 0.05248 0.37889 0.25249 0.0
C492 C 0.06989 0.40762 0.38296 0.0
C493 C 0.078 0.38336 0.25413 0.0
C494 C 0.93543 0.3385 0.3639 0.0
C495 C 1.0216 0.38773 0.30755 0.0
H496 H 0.75865 0.23264 0.21875 0.0
H497 H 0.84154 0.26715 0.23319 0.0
H498 H 0.80166 0.23732 0.26294 0.0
H499 H 0.79565 0.28977 0.10965 0.0
H500 H 0.11901 0.40305 0.31692 0.0
H501 H 0.03623 0.36641 0.19991 0.0
H502 H 0.06657 0.41707 0.43191 0.0
H503 H 0.08127 0.37421 0.20363 0.0
Tb504 Tb 0.40149 0.86561 0.71981 0.0
C505 C 0.52601 0.92906 0.88349 0.0
N506 N 0.50498 0.92944 0.90329 0.0
C507 C 0.52626 0.94244 0.06053 0.0
C508 C 0.54776 0.93475 0.952 0.0
C509 C 0.50538 0.93698 0.98979 0.0
C510 C 0.54737 0.94101 0.04177 0.0
C511 C 0.54863 0.92509 0.76883 0.0
C512 C 0.52645 0.9243 0.79347 0.0
C513 C 0.56994 0.92992 0.83688 0.0
C514 C 0.56949 0.9347 0.92833 0.0
Tb515 Tb 0.47156 0.91923 0.78286 0.0
N516 N 0.50532 0.91941 0.72979 0.0
C517 C 0.54876 0.92125 0.6766 0.0
C518 C 0.50615 0.91716 0.63999 0.0
C519 C 0.52758 0.91757 0.61193 0.0
H520 H 0.49006 0.93945 0.00379 0.0
H521 H 0.52789 0.91532 0.54054 0.0
H522 H 0.38792 0.86591 0.5022 0.0
H523 H 0.35505 0.8701 0.99938 0.0
H524 H 0.49053 0.91526 0.58992 0.0
H525 H 0.56539 0.92165 0.65473 0.0
H526 H 0.3861 0.86526 0.92773 0.0
H527 H 0.52628 0.94813 0.12915 0.0
H528 H 0.58706 0.93038 0.81946 0.0
H529 H 0.58632 0.93887 0.98005 0.0
H530 H 0.35556 0.86856 0.40047 0.0
H531 H 0.5637 0.94551 0.0965 0.0
H532 H 0.3219 0.87409 0.90812 0.0
N533 N 0.37446 0.87017 0.62108 0.0
C534 C 0.35477 0.87052 0.65443 0.0
C535 C 0.35543 0.86958 0.47208 0.0
C536 C 0.33539 0.87158 0.59824 0.0
C537 C 0.37431 0.8687 0.53053 0.0
C538 C 0.33603 0.87125 0.5062 0.0
N539 N 0.37358 0.86931 0.79831 0.0
C540 C 0.37318 0.86837 0.88758 0.0
C541 C 0.33547 0.87223 0.78386 0.0
C542 C 0.35466 0.87056 0.74614 0.0
C543 C 0.33613 0.87261 0.87643 0.0
C544 C 0.35494 0.87051 0.92828 0.0
H545 H 0.32141 0.87193 0.4607 0.0
H546 H 0.30116 0.87396 0.59363 0.0
H547 H 0.30141 0.87479 0.75617 0.0
O548 O 0.37047 0.83652 0.74043 0.0
O549 O 0.40789 0.89706 0.71346 0.0
O550 O 0.43966 0.9192 0.83686 0.0
O551 O 0.38343 0.83918 0.61343 0.0
O552 O 0.42219 0.87163 0.85992 0.0
O553 O 0.45234 0.90821 0.89798 0.0
O554 O 0.46984 0.93997 0.7016 0.0
O555 O 0.47324 0.89048 0.75041 0.0
O556 O 0.43392 0.8615 0.77163 0.0
O557 O 0.49864 0.95177 0.82879 0.0
O558 O 0.44811 0.90737 0.64417 0.0
O559 O 0.42622 0.87132 0.61876 0.0
C560 C 0.41675 0.91226 0.78469 0.0
C561 C 0.35817 0.80492 0.64176 0.0
C562 C 0.36264 0.77628 0.67414 0.0
C563 C 0.34143 0.76239 0.60112 0.0
C564 C 0.33702 0.79095 0.56909 0.0
C565 C 0.32863 0.76973 0.54908 0.0
C566 C 0.37091 0.7976 0.69517 0.0
C567 C 0.43845 0.88947 0.9201 0.0
C568 C 0.36628 0.82697 0.65795 0.0
C569 C 0.31614 0.87304 0.63564 0.0
C570 C 0.31628 0.8735 0.72823 0.0
C571 C 0.45928 0.871 0.76628 0.0
C572 C 0.50044 0.97872 0.75195 0.0
C573 C 0.50579 1.00575 0.66612 0.0
C574 C 0.52351 0.0215 0.74217 0.0
C575 C 0.51815 0.99487 0.82708 0.0
C576 C 0.49393 0.98423 0.67137 0.0
C577 C 0.52948 1.01606 0.82214 0.0
C578 C 0.43915 0.88919 0.59078 0.0
C579 C 0.48926 0.95643 0.76011 0.0
H580 H 0.33465 0.74581 0.58496 0.0
H581 H 0.32702 0.79652 0.52764 0.0
H582 H 0.31225 0.75897 0.49309 0.0
H583 H 0.38724 0.80838 0.75146 0.0
H584 H 0.53262 0.0381 0.7398 0.0
H585 H 0.52329 0.99115 0.89017 0.0
H586 H 0.48026 0.97199 0.61285 0.0
H587 H 0.54304 0.02834 0.88051 0.0
Tb588 Tb 0.31575 0.57733 0.83468 0.0
C589 C 0.38604 0.54086 0.77231 0.0
N590 N 0.36129 0.53419 0.72782 0.0
C591 C 0.37223 0.52756 0.58616 0.0
C592 C 0.40513 0.54167 0.72507 0.0
C593 C 0.35383 0.52668 0.63618 0.0
C594 C 0.3981 0.53535 0.63062 0.0
C595 C 0.41649 0.55135 0.91545 0.0
C596 C 0.39174 0.54574 0.86607 0.0
C597 C 0.43592 0.55288 0.86871 0.0
C598 C 0.43028 0.54812 0.77371 0.0
Tb599 Tb 0.33354 0.53407 0.81803 0.0
N600 N 0.3727 0.54455 0.90897 0.0
C601 C 0.42079 0.55501 0.01022 0.0
C602 C 0.37612 0.54675 0.00095 0.0
C603 C 0.40037 0.55242 0.05308 0.0
H604 H 0.33357 0.51952 0.60115 0.0
H605 H 0.40319 0.55457 0.12612 0.0
H606 H 0.29497 0.57032 0.02679 0.0
H607 H 0.26867 0.57528 0.50302 0.0
H608 H 0.36016 0.54402 0.03406 0.0
H609 H 0.43955 0.55935 0.05072 0.0
H610 H 0.30611 0.58311 0.61859 0.0
H611 H 0.36631 0.52189 0.51349 0.0
H612 H 0.45519 0.55741 0.90536 0.0
H613 H 0.44528 0.54898 0.73856 0.0
H614 H 0.25408 0.5603 0.08153 0.0
H615 H 0.41221 0.53575 0.59177 0.0
H616 H 0.22476 0.56226 0.54128 0.0
N617 N 0.27824 0.56671 0.88992 0.0
C618 C 0.25716 0.56364 0.8318 0.0
C619 C 0.2545 0.56084 0.01074 0.0
C620 C 0.23333 0.55805 0.86001 0.0
C621 C 0.27758 0.56616 0.97921 0.0
C622 C 0.23215 0.55655 0.95067 0.0
N623 N 0.28328 0.5722 0.72046 0.0
C624 C 0.2869 0.57629 0.63593 0.0
C625 C 0.2378 0.56218 0.6802 0.0
C626 C 0.25953 0.56591 0.74353 0.0
C627 C 0.24102 0.56506 0.59211 0.0
C628 C 0.26575 0.57234 0.57019 0.0
H629 H 0.21427 0.55241 0.97521 0.0
H630 H 0.19302 0.54968 0.81714 0.0
H631 H 0.19681 0.55309 0.65933 0.0
O632 O 0.32144 0.60654 0.81652 0.0
O633 O 0.28388 0.54357 0.8244 0.0
O634 O 0.29587 0.52521 0.73411 0.0
O635 O 0.33 0.60119 0.94921 0.0
O636 O 0.3304 0.57374 0.71149 0.0
O637 O 0.3206 0.53932 0.68652 0.0
O638 O 0.31297 0.51022 0.89031 0.0
O639 O 0.36683 0.56756 0.87461 0.0
O640 O 0.35477 0.58746 0.80371 0.0
O641 O 0.32921 0.50473 0.77982 0.0
O642 O 0.31737 0.53908 0.9327 0.0
O643 O 0.33503 0.5745 0.95864 0.0
C644 C 0.27746 0.52773 0.75907 0.0
C645 C 0.35906 0.63463 0.92073 0.0
C646 C 0.38675 0.6723 0.92342 0.0
C647 C 0.40934 0.67224 0.95763 0.0
C648 C 0.38179 0.63478 0.9553 0.0
C649 C 0.4068 0.65352 0.97319 0.0
C650 C 0.36167 0.65332 0.90442 0.0
C651 C 0.32621 0.55682 0.65813 0.0
C652 C 0.33257 0.61514 0.90156 0.0
C653 C 0.21157 0.55414 0.79701 0.0
C654 C 0.21374 0.55607 0.70715 0.0
C655 C 0.37315 0.58464 0.84118 0.0
C656 C 0.28836 0.47638 0.7986 0.0
C657 C 0.25186 0.44258 0.81872 0.0
C658 C 0.23802 0.43951 0.73141 0.0
C659 C 0.27435 0.47301 0.71139 0.0
C660 C 0.2771 0.46114 0.85201 0.0
C661 C 0.24926 0.45466 0.67819 0.0
C662 C 0.32701 0.55701 0.98878 0.0
C663 C 0.314 0.49621 0.83646 0.0
H664 H 0.42889 0.68668 0.97325 0.0
H665 H 0.38025 0.62048 0.96868 0.0
H666 H 0.42423 0.65354 0.99952 0.0
H667 H 0.3441 0.65297 0.87594 0.0
H668 H 0.21864 0.42526 0.70381 0.0
H669 H 0.28277 0.48459 0.66918 0.0
H670 H 0.28776 0.46395 0.91997 0.0
H671 H 0.2385 0.45215 0.61101 0.0
Tb672 Tb 0.61499 0.74768 0.87487 0.0
C673 C 0.56459 0.65333 0.87006 0.0
N674 N 0.58751 0.66911 0.92667 0.0
C675 C 0.57355 0.65214 0.05172 0.0
C676 C 0.54485 0.63648 0.90292 0.0
C677 C 0.59243 0.66864 0.01618 0.0
C678 C 0.5496 0.63602 0.99496 0.0
C679 C 0.53679 0.63878 0.71939 0.0
C680 C 0.56061 0.65465 0.7796 0.0
C681 C 0.51687 0.62208 0.752 0.0
C682 C 0.52091 0.62091 0.84345 0.0
Tb683 Tb 0.61705 0.69487 0.86139 0.0
N684 N 0.58021 0.67124 0.75054 0.0
C685 C 0.53396 0.63988 0.62777 0.0
C686 C 0.57857 0.67093 0.65979 0.0
C687 C 0.55519 0.65576 0.59758 0.0
H688 H 0.61105 0.68086 0.05988 0.0
H689 H 0.55386 0.65597 0.526 0.0
H690 H 0.6135 0.75474 0.66107 0.0
H691 H 0.68017 0.79978 0.1907 0.0
H692 H 0.59552 0.68147 0.63382 0.0
H693 H 0.51598 0.62802 0.57928 0.0
H694 H 0.64059 0.76776 0.09636 0.0
H695 H 0.57749 0.65185 0.12282 0.0
H696 H 0.49838 0.60985 0.70679 0.0
H697 H 0.50539 0.60792 0.86751 0.0
H698 H 0.64342 0.78039 0.57753 0.0
H699 H 0.53492 0.62334 0.02284 0.0
H700 H 0.7124 0.82765 0.11923 0.0
N701 N 0.64013 0.77048 0.78877 0.0
C702 C 0.66228 0.78886 0.83664 0.0
C703 C 0.64925 0.78278 0.65021 0.0
C704 C 0.67944 0.80452 0.79232 0.0
C705 C 0.63271 0.76783 0.69732 0.0
C706 C 0.67292 0.80107 0.69777 0.0
N707 N 0.65104 0.77631 0.9713 0.0
C708 C 0.65483 0.77923 0.06353 0.0
C709 C 0.69045 0.81081 0.98255 0.0
C710 C 0.66769 0.79204 0.93084 0.0
C711 C 0.69514 0.81341 0.07702 0.0
C712 C 0.67709 0.79765 0.11762 0.0
H713 H 0.6856 0.81272 0.66116 0.0
H714 H 0.71578 0.83535 0.81077 0.0
H715 H 0.72544 0.84083 0.97708 0.0
O716 O 0.59454 0.75776 0.94933 0.0
O717 O 0.65637 0.75299 0.89185 0.0
O718 O 0.65695 0.72278 0.90416 0.0
O719 O 0.60077 0.76532 0.82045 0.0
O720 O 0.61067 0.73398 0.99805 0.0
O721 O 0.6318 0.71546 0.99755 0.0
O722 O 0.62723 0.67693 0.77744 0.0
O723 O 0.58393 0.69523 0.90462 0.0
O724 O 0.57696 0.71626 0.82337 0.0
O725 O 0.63567 0.68137 0.92438 0.0
O726 O 0.62802 0.71306 0.75231 0.0
O727 O 0.60079 0.72561 0.74497 0.0
C728 C 0.66923 0.74323 0.90631 0.0
C729 C 0.56363 0.76386 0.86522 0.0
C730 C 0.53422 0.77748 0.84234 0.0
C731 C 0.51241 0.75633 0.82046 0.0
C732 C 0.54112 0.74317 0.843 0.0
C733 C 0.51584 0.73949 0.82061 0.0
C734 C 0.56013 0.78116 0.86377 0.0
C735 C 0.62241 0.7256 0.03999 0.0
C736 C 0.59051 0.76715 0.88816 0.0
C737 C 0.7023 0.82317 0.84368 0.0
C738 C 0.70778 0.82632 0.93846 0.0
C739 C 0.56779 0.69952 0.8616 0.0
C740 C 0.64825 0.65968 0.84312 0.0
C741 C 0.66401 0.64034 0.75935 0.0
C742 C 0.66893 0.6341 0.83961 0.0
C743 C 0.65383 0.65342 0.92204 0.0
C744 C 0.65332 0.65306 0.76146 0.0
C745 C 0.664 0.64068 0.92003 0.0
C746 C 0.61556 0.72036 0.70756 0.0
C747 C 0.63671 0.67271 0.84768 0.0
H748 H 0.4924 0.75272 0.80254 0.0
H749 H 0.5431 0.72977 0.84281 0.0
H750 H 0.49867 0.72339 0.80338 0.0
H751 H 0.57733 0.79725 0.88074 0.0
H752 H 0.67631 0.62381 0.84028 0.0
H753 H 0.65003 0.65817 0.98551 0.0
H754 H 0.6493 0.65801 0.70049 0.0
H755 H 0.66793 0.63575 0.98109 0.0
H756 H 0.20216 0.33391 0.07517 0.0
H757 H 0.16472 0.36424 0.18328 0.0
H758 H 0.22065 0.36006 0.97842 0.0
H759 H 0.18322 0.39035 0.088 0.0
H760 H 0.20108 0.42179 0.84423 0.0
H761 H 0.18043 0.39367 0.92896 0.0
H762 H 0.25511 0.39915 0.00674 0.0
H763 H 0.27566 0.42695 0.91959 0.0
C764 C 0.19765 0.34601 0.07712 0.0
C765 C 0.18234 0.34733 0.13692 0.0
C766 C 0.20839 0.36104 0.02272 0.0
C767 C 0.2036 0.37735 0.0266 0.0
C768 C 0.1872 0.37795 0.08341 0.0
C769 C 0.17672 0.3631 0.13816 0.0
C770 C 0.21302 0.41685 0.87878 0.0
C771 C 0.23987 0.42637 0.87454 0.0
C772 C 0.20126 0.40088 0.92777 0.0
C773 C 0.2161 0.39408 0.97357 0.0
C774 C 0.24309 0.40382 0.97062 0.0
C775 C 0.25491 0.41989 0.92179 0.0
H776 H 0.83751 0.7831 0.1083 0.0
H777 H 0.84185 0.81573 0.88997 0.0
H778 H 0.78966 0.76809 0.08555 0.0
H779 H 0.79452 0.80155 0.86881 0.0
H780 H 0.70922 0.78415 0.8854 0.0
H781 H 0.75758 0.80048 0.9141 0.0
H782 H 0.74699 0.74466 0.00087 0.0
H783 H 0.6997 0.72896 0.97537 0.0
C784 C 0.82841 0.78715 0.05521 0.0
C785 C 0.84436 0.8013 0.00286 0.0
C786 C 0.80061 0.7785 0.04187 0.0
C787 C 0.78732 0.78359 0.9756 0.0
C788 C 0.80333 0.79736 0.92211 0.0
C789 C 0.83092 0.80568 0.93462 0.0
C790 C 0.71717 0.77547 0.91185 0.0
C791 C 0.6997 0.75502 0.92781 0.0
C792 C 0.74522 0.78478 0.92759 0.0
C793 C 0.75714 0.77415 0.96045 0.0
C794 C 0.73952 0.75389 0.97728 0.0
C795 C 0.71179 0.74466 0.96151 0.0
H796 H 0.34797 0.97983 0.01922 0.0
H797 H 0.28371 0.92395 0.83293 0.0
H798 H 0.37959 0.97179 0.97026 0.0
H799 H 0.31499 0.91586 0.7838 0.0
H800 H 0.38082 0.9149 0.66795 0.0
H801 H 0.35227 0.9272 0.7052 0.0
H802 H 0.3897 0.94425 0.98784 0.0
H803 H 0.41762 0.93125 0.95054 0.0
C804 C 0.34073 0.9662 0.96585 0.0
C805 C 0.31339 0.95268 0.92904 0.0
C806 C 0.35876 0.96139 0.93869 0.0
C807 C 0.3499 0.94307 0.87332 0.0
C808 C 0.32267 0.93019 0.83353 0.0
C809 C 0.3047 0.93485 0.86145 0.0
C810 C 0.38275 0.92106 0.73813 0.0
C811 C 0.40105 0.92156 0.80639 0.0
C812 C 0.36649 0.92826 0.75953 0.0
C813 C 0.36851 0.93669 0.84971 0.0
C814 C 0.38766 0.93804 0.91758 0.0
C815 C 0.40367 0.93054 0.89622 0.0
H816 H 0.44716 0.12453 0.00842 0.0
H817 H 0.43809 0.17538 0.10623 0.0
H818 H 0.40099 0.09883 0.00674 0.0
H819 H 0.39103 0.14921 0.10538 0.0
H820 H 0.2988 0.09615 0.03503 0.0
H821 H 0.34511 0.12346 0.03998 0.0
H822 H 0.36625 0.07806 0.07176 0.0
H823 H 0.32012 0.05112 0.06918 0.0
C824 C 0.43547 0.13051 0.02998 0.0
C825 C 0.44761 0.15273 0.05744 0.0
C826 C 0.4083 0.11533 0.0298 0.0
C827 C 0.39083 0.12105 0.05664 0.0
C828 C 0.40283 0.14339 0.08348 0.0
C829 C 0.43038 0.15873 0.08449 0.0
C830 C 0.31308 0.09184 0.04467 0.0
C831 C 0.30438 0.07077 0.05357 0.0
C832 C 0.34035 0.10786 0.04722 0.0
C833 C 0.36092 0.10384 0.05634 0.0
C834 C 0.35207 0.08264 0.06375 0.0
C835 C 0.32495 0.0668 0.06291 0.0
H836 H 1.00552 0.32774 0.17488 0.0
H837 H 0.9311 0.27236 0.18794 0.0
H838 H 1.02486 0.30676 0.16159 0.0
H839 H 0.9503 0.25113 0.17541 0.0
H840 H 0.98752 0.2139 0.0813 0.0
H841 H 0.96644 0.23394 0.09264 0.0
H842 H 0.04186 0.28978 0.23006 0.0
H843 H 0.06272 0.26994 0.21622 0.0
C844 C 0.99305 0.31104 0.17515 0.0
C845 C 0.96631 0.30203 0.18231 0.0
C846 C 1.00436 0.29883 0.16815 0.0
C847 C 0.98954 0.27689 0.16781 0.0
C848 C 0.9627 0.2678 0.17433 0.0
C849 C 0.95146 0.28012 0.1819 0.0
C850 C 0.9996 0.23041 0.11431 0.0
C851 C 1.02705 0.24008 0.14724 0.0
C852 C 0.98742 0.24207 0.12112 0.0
C853 C 1.00218 0.26389 0.16164 0.0
C854 C 0.02954 0.27333 0.19596 0.0
C855 C 0.04166 0.26176 0.18848 0.0
H856 H 0.84733 0.69028 0.21401 0.0
H857 H 0.87202 0.68146 0.96777 0.0
H858 H 0.83425 0.65493 0.23273 0.0
H859 H 0.85825 0.64529 0.98481 0.0
H860 H 0.83897 0.58024 0.05624 0.0
H861 H 0.85737 0.61708 0.04032 0.0
H862 H 0.80392 0.61994 0.19703 0.0
H863 H 0.78673 0.58389 0.21542 0.0
C864 C 0.85044 0.68091 0.16396 0.0
C865 C 0.86124 0.68947 0.08973 0.0
C866 C 0.84232 0.66005 0.17381 0.0
C867 C 0.84412 0.64605 0.10947 0.0
C868 C 0.85613 0.65492 0.03685 0.0
C869 C 0.86439 0.67605 0.0271 0.0
C870 C 0.83142 0.58881 0.0887 0.0
C871 C 0.81144 0.57855 0.13902 0.0
C872 C 0.8419 0.61022 0.0787 0.0
C873 C 0.83292 0.6226 0.11825 0.0
C874 C 0.81257 0.61201 0.16706 0.0
C875 C 0.80228 0.59079 0.17727 0.0
H876 H 0.26031 0.5 0.59886 0.0
H877 H 0.23036 0.51981 0.80615 0.0
H878 H 0.21533 0.47309 0.52002 0.0
H879 H 0.1847 0.49343 0.72269 0.0
H880 H 0.1093 0.45279 0.45841 0.0
H881 H 0.15176 0.48185 0.55555 0.0
H882 H 0.17884 0.43951 0.56713 0.0
H883 H 0.13677 0.41067 0.47395 0.0
C884 C 0.24418 0.49882 0.62769 0.0
C885 C 0.24929 0.51227 0.70959 0.0
C886 C 0.21825 0.48336 0.58184 0.0
C887 C 0.19632 0.48097 0.61502 0.0
C888 C 0.20114 0.4949 0.69501 0.0
C889 C 0.22735 0.51017 0.74247 0.0
C890 C 0.1241 0.44958 0.48328 0.0
C891 C 0.11968 0.42937 0.45594 0.0
C892 C 0.14846 0.46627 0.53879 0.0
C893 C 0.16893 0.46311 0.5675 0.0
C894 C 0.16378 0.44264 0.54464 0.0
C895 C 0.13959 0.42607 0.49062 0.0
H896 H 0.70621 0.63698 0.74272 0.0
H897 H 0.63525 0.62726 0.58385 0.0
H898 H 0.71248 0.62002 0.61253 0.0
H899 H 0.6428 0.61187 0.45023 0.0
H900 H 0.6446 0.5635 0.25236 0.0
H901 H 0.63912 0.58132 0.38361 0.0
H902 H 0.72444 0.62064 0.47584 0.0
H903 H 0.72943 0.60166 0.34736 0.0
C904 C 0.69201 0.63138 0.67951 0.0
C905 C 0.66982 0.63304 0.67476 0.0
C906 C 0.69586 0.62189 0.60387 0.0
C907 C 0.678 0.61417 0.52007 0.0
C908 C 0.65663 0.61699 0.5139 0.0
C909 C 0.65251 0.62621 0.59034 0.0
C910 C 0.66209 0.57582 0.30159 0.0
C911 C 0.68742 0.58119 0.29017 0.0
C912 C 0.65903 0.58629 0.37635 0.0
C913 C 0.6813 0.60276 0.4407 0.0
C914 C 0.70669 0.60791 0.42915 0.0
C915 C 0.70967 0.59708 0.35532 0.0
H916 H 0.52277 0.08855 0.29289 0.0
H917 H 0.44321 0.03392 0.1899 0.0
H918 H 0.52763 0.07222 0.41733 0.0
H919 H 0.44877 1.0169 0.30879 0.0
H920 H 0.4584 0.99775 0.57846 0.0
H921 H 0.4515 1.01462 0.45917 0.0
H922 H 0.53452 0.04579 0.44679 0.0
H923 H 0.54133 0.02974 0.56909 0.0
C924 C 0.50625 0.07312 0.2969 0.0
C925 C 0.48273 0.06245 0.23028 0.0
C926 C 0.50919 0.06353 0.36748 0.0
C927 C 0.4888 0.04294 0.37267 0.0
C928 C 0.46494 0.03274 0.30799 0.0
C929 C 0.46187 0.04243 0.2386 0.0
C930 C 0.47497 1.00796 0.54886 0.0
C931 C 0.50036 1.01248 0.58263 0.0
C932 C 0.47112 1.01771 0.48054 0.0
C933 C 0.49254 0.03194 0.44363 0.0
C934 C 0.51767 0.03552 0.47498 0.0
C935 C 0.52155 0.02606 0.54407 0.0
H936 H 0.1283 0.09685 0.2297 0.0
H937 H 0.1466 0.10673 0.96676 0.0
H938 H 0.11944 0.1249 0.24076 0.0
H939 H 0.13758 0.13493 0.97721 0.0
H940 H 0.0826 0.16127 0.97911 0.0
H941 H 0.09868 0.13768 0.97249 0.0
H942 H 0.13675 0.16277 0.25504 0.0
H943 H 0.12066 0.18656 0.26138 0.0
C944 C 0.13095 0.10533 0.17479 0.0
C945 C 0.1383 0.09945 0.09747 0.0
C946 C 0.12587 0.12152 0.18116 0.0
C947 C 0.12749 0.13231 0.10973 0.0
C948 C 0.13575 0.12693 0.03344 0.0
C949 C 0.14126 0.11089 0.02772 0.0
C950 C 0.09453 0.1619 0.03998 0.0
C951 C 0.10013 0.1759 0.12097 0.0
C952 C 0.10399 0.14839 0.03593 0.0
C953 C 0.11914 0.14808 0.1131 0.0
C954 C 0.12502 0.16229 0.19408 0.0
C955 C 0.11587 0.17609 0.19774 0.0
H956 H 0.94374 0.96124 0.12515 0.0
H957 H 1.02786 0.99867 0.13052 0.0
H958 H 0.94152 0.99221 0.11726 0.0
H959 H 1.02575 0.02993 0.12501 0.0
H960 H 1.00299 0.07565 0.02932 0.0
H961 H 1.00643 0.04492 0.02579 0.0
H962 H 0.95841 0.02524 0.22804 0.0
H963 H 0.9554 0.0561 0.23326 0.0
C964 C 0.9617 0.97604 0.12336 0.0
C965 C 0.98602 0.9776 0.12863 0.0
C966 C 0.96047 0.99381 0.11996 0.0
C967 C 0.98352 1.0135 0.12177 0.0
C968 C 1.00767 1.01492 0.12347 0.0
C969 C 1.00893 0.99712 0.12726 0.0
C970 C 0.99343 0.06491 0.07387 0.0
C971 C 0.97867 0.06822 0.13108 0.0
C972 C 0.99535 0.0473 0.07153 0.0
C973 C 0.98239 0.03258 0.12571 0.0
C974 C 0.9681 0.03609 0.18398 0.0
C975 C 0.96633 0.05374 0.18685 0.0
H976 H 1.01151 0.8621 0.95577 0.0
H977 H 1.01198 0.90209 0.17956 0.0
H978 H 0.05602 0.89133 0.94529 0.0
H979 H 0.05498 0.93139 0.16649 0.0
H980 H 0.12891 0.98943 0.09952 0.0
H981 H 0.08483 0.95966 0.10646 0.0
H982 H 0.10295 0.91596 0.98504 0.0
H983 H 0.14653 0.94578 0.97698 0.0
C984 C 1.02063 0.87706 0.00275 0.0
C985 C 1.00633 0.87914 0.06695 0.0
C986 C 0.04675 0.89428 0.99669 0.0
C987 C 0.0604 0.91494 0.05353 0.0
C988 C 0.04613 0.91664 0.11841 0.0
C989 C 1.02052 0.89943 0.12546 0.0
C990 C 0.12377 0.97356 0.07384 0.0
C991 C 0.14286 0.97093 0.03848 0.0
C992 C 0.09791 0.95598 0.07851 0.0
C993 C 0.08882 0.93429 0.04715 0.0
C994 C 0.10783 0.93176 0.01043 0.0
C995 C 0.13372 0.94933 0.0067 0.0
H996 H 0.81584 0.4073 0.05054 0.0
H997 H 0.88272 0.46111 0.2382 0.0
H998 H 0.83844 0.3886 0.05405 0.0
H999 H 0.90601 0.44253 0.24091 0.0
H1000 H 0.92035 0.3905 0.31712 0.0
H1001 H 0.90356 0.41337 0.30097 0.0
H1002 H 0.8727 0.38494 0.01617 0.0
H1003 H 0.88979 0.36236 0.03275 0.0
C1004 C 0.83581 0.41539 0.09052 0.0
C1005 C 0.84753 0.43577 0.14338 0.0
C1006 C 0.84888 0.40464 0.09269 0.0
C1007 C 0.87415 0.41385 0.14827 0.0
C1008 C 0.88645 0.43472 0.1982 0.0
C1009 C 0.87331 0.44556 0.19562 0.0
C1010 C 0.91045 0.38945 0.25076 0.0
C1011 C 0.90679 0.37475 0.17613 0.0
C1012 C 0.90075 0.40259 0.24133 0.0
C1013 C 0.88664 0.40117 0.15711 0.0
C1014 C 0.88312 0.38646 0.08245 0.0
C1015 C 0.89297 0.37345 0.09188 0.0
H1016 H 0.69572 0.44669 0.00316 0.0
H1017 H 0.74301 0.45097 0.24951 0.0
H1018 H 0.66407 0.40935 0.99903 0.0
H1019 H 0.71163 0.41336 0.24518 0.0
H1020 H 0.65676 0.3405 0.19826 0.0
H1021 H 0.69097 0.3769 0.18977 0.0
H1022 H 0.63011 0.38389 0.05293 0.0
H1023 H 0.59669 0.34772 0.05933 0.0
C1024 C 0.69937 0.43978 0.05726 0.0
C1025 C 0.72221 0.45238 0.12693 0.0
C1026 C 0.68101 0.41802 0.05496 0.0
C1027 C 0.68458 0.40758 0.122 0.0
C1028 C 0.70777 0.42019 0.19107 0.0
C1029 C 0.72604 0.44205 0.19364 0.0
C1030 C 0.65082 0.34961 0.16381 0.0
C1031 C 0.62367 0.34071 0.12824 0.0
C1032 C 0.67052 0.37084 0.16031 0.0
C1033 C 0.66391 0.38412 0.12109 0.0
C1034 C 0.63677 0.37472 0.08272 0.0
C1035 C 0.61727 0.35366 0.08632 0.0
H1036 H 0.6105 0.23615 0.99356 0.0
H1037 H 0.61294 0.20467 0.21086 0.0
H1038 H 0.65815 0.25125 0.00033 0.0
H1039 H 0.65959 0.21819 0.2122 0.0
H1040 H 0.72819 0.22209 0.07844 0.0
H1041 H 0.68217 0.21164 0.06253 0.0
H1042 H 0.70777 0.2767 0.15053 0.0
H1043 H 0.75457 0.2873 0.17145 0.0
C1044 C 0.62103 0.2323 0.04246 0.0
C1045 C 0.60735 0.21845 0.09965 0.0
C1046 C 0.64839 0.24099 0.04624 0.0
C1047 C 0.66271 0.23581 0.10629 0.0
C1048 C 0.64919 0.22239 0.16455 0.0
C1049 C 0.6222 0.21429 0.16265 0.0
C1050 C 0.72426 0.23434 0.09434 0.0
C1051 C 0.74546 0.25557 0.12852 0.0
C1052 C 0.69772 0.22826 0.08482 0.0
C1053 C 0.69118 0.24323 0.10634 0.0
C1054 C 0.71213 0.26474 0.13364 0.0
C1055 C 0.73898 0.27084 0.14505 0.0
H1056 H 0.55479 0.81217 0.75687 0.0
H1057 H 0.49955 0.78162 0.92819 0.0
H1058 H 0.53826 0.83537 0.73824 0.0
H1059 H 0.48362 0.80479 0.91232 0.0
H1060 H 0.43677 0.83021 0.79436 0.0
H1061 H 0.45668 0.80993 0.81424 0.0
H1062 H 0.53198 0.86298 0.78784 0.0
H1063 H 0.5113 0.88285 0.76268 0.0
C1064 C 0.53956 0.81068 0.79228 0.0
C1065 C 0.52845 0.79475 0.84353 0.0
C1066 C 0.5299 0.824 0.78138 0.0
C1067 C 0.50884 0.82188 0.82161 0.0
C1068 C 0.49903 0.80671 0.877 0.0
C1069 C 0.50849 0.79345 0.88728 0.0
C1070 C 0.45758 0.8377 0.79248 0.0
C1071 C 0.47227 0.85857 0.7777 0.0
C1072 C 0.46928 0.826 0.8051 0.0
C1073 C 0.49642 0.83465 0.80482 0.0
C1074 C 0.5111 0.85545 0.78864 0.0
C1075 C 0.49922 0.8671 0.77504 0.0
H1076 H 0.35432 0.68605 0.95639 0.0
H1077 H 0.42443 0.70275 0.84921 0.0
H1078 H 0.35528 0.71617 0.9108 0.0
H1079 H 0.42634 0.73369 0.80875 0.0
H1080 H 0.38681 0.75752 0.61285 0.0
H1081 H 0.39844 0.73615 0.69011 0.0
H1082 H 0.37873 0.75478 0.93333 0.0
H1083 H 0.36658 0.77597 0.85418 0.0
C1084 C 0.37019 0.69636 0.9244 0.0
C1085 C 0.38918 0.69195 0.90556 0.0
C1086 C 0.371 0.71383 0.89978 0.0
C1087 C 0.39098 0.72733 0.85666 0.0
C1088 C 0.41066 0.72347 0.8416 0.0
C1089 C 0.4097 0.70587 0.86544 0.0
C1090 C 0.38569 0.75744 0.68355 0.0
C1091 C 0.37559 0.76801 0.72771 0.0
C1092 C 0.39249 0.74535 0.72807 0.0
C1093 C 0.38923 0.74365 0.81749 0.0
C1094 C 0.3811 0.75565 0.86399 0.0
C1095 C 0.37439 0.76786 0.81929 0.0
H1096 H 0.52386 0.68739 0.72924 0.0
H1097 H 0.54585 0.67771 0.99141 0.0
H1098 H 0.47751 0.65956 0.72241 0.0
H1099 H 0.49999 0.65056 0.98671 0.0
H1100 H 0.41925 0.5895 0.93153 0.0
H1101 H 0.46508 0.61656 0.93175 0.0
H1102 H 0.43789 0.64735 0.76759 0.0
H1103 H 0.39231 0.6192 0.76081 0.0
C1104 C 0.51875 0.67964 0.78623 0.0
C1105 C 0.53877 0.68485 0.86059 0.0
C1106 C 0.49203 0.66353 0.78258 0.0
C1107 C 0.48441 0.65226 0.85365 0.0
C1108 C 0.50455 0.65817 0.9292 0.0
C1109 C 0.53109 0.67408 0.93246 0.0
C1110 C 0.423 0.60166 0.89339 0.0
C1111 C 0.40171 0.60161 0.84459 0.0
C1112 C 0.44954 0.61766 0.895 0.0
C1113 C 0.45584 0.6346 0.84974 0.0
C1114 C 0.4344 0.6346 0.80185 0.0
C1115 C 0.40796 0.61838 0.79877 0.0
H1116 H 0.05879 0.23831 0.87458 0.0
H1117 H 0.07036 0.18663 0.84984 0.0
H1118 H 0.05708 0.23759 0.71215 0.0
H1119 H 0.07004 0.18645 0.68979 0.0
H1120 H 0.04534 0.17676 0.38775 0.0
H1121 H 0.04458 0.17736 0.54773 0.0
H1122 H 0.08005 0.24503 0.59559 0.0
H1123 H 0.07917 0.24412 0.43459 0.0
C1124 C 0.0612 0.22693 0.83446 0.0
C1125 C 0.06435 0.21237 0.87485 0.0
C1126 C 0.06038 0.22654 0.74118 0.0
C1127 C 0.06321 0.21183 0.6862 0.0
C1128 C 0.06698 0.19763 0.72802 0.0
C1129 C 0.06736 0.19781 0.8205 0.0
C1130 C 0.05275 0.19176 0.43216 0.0
C1131 C 0.06237 0.21039 0.39753 0.0
C1132 C 0.05262 0.19217 0.52476 0.0
C1133 C 0.06246 0.2113 0.58628 0.0
C1134 C 0.07191 0.2299 0.55122 0.0
C1135 C 0.07165 0.22942 0.45838 0.0
H1136 H 0.88133 0.80793 0.7424 0.0
H1137 H 0.96433 0.85737 0.81514 0.0
H1138 H 0.88201 0.8091 0.58282 0.0
H1139 H 0.96607 0.85752 0.65597 0.0
H1140 H 0.95996 0.86704 0.368 0.0
H1141 H 0.95805 0.86678 0.52682 0.0
H1142 H 0.89231 0.80124 0.45354 0.0
H1143 H 0.89267 0.80246 0.29487 0.0
C1144 C 0.89986 0.81879 0.72365 0.0
C1145 C 0.92274 0.83258 0.79078 0.0
C1146 C 0.90043 0.81942 0.63175 0.0
C1147 C 0.92416 0.83341 0.60421 0.0
C1148 C 0.94716 0.84688 0.67265 0.0
C1149 C 0.94633 0.84669 0.76446 0.0
C1150 C 0.94471 0.85275 0.38588 0.0
C1151 C 0.92602 0.83499 0.31802 0.0
C1152 C 0.94387 0.85239 0.47779 0.0
C1153 C 0.92492 0.83397 0.5053 0.0
C1154 C 0.90679 0.81601 0.43684 0.0
C1155 C 0.90721 0.81658 0.345 0.0
H1156 H 0.26224 0.03804 0.79881 0.0
H1157 H 0.1769 1.00261 0.72996 0.0
H1158 H 0.26422 0.04009 0.64105 0.0
H1159 H 0.17842 1.00316 0.5703 0.0
H1160 H 0.18649 0.01997 0.29428 0.0
H1161 H 0.18534 0.02004 0.45331 0.0
H1162 H 0.26064 0.02524 0.49913 0.0
H1163 H 0.26278 0.02725 0.34132 0.0
C1164 C 0.2438 0.03044 0.74935 0.0
C1165 C 0.21941 0.02021 0.77719 0.0
C1166 C 0.24487 0.03142 0.65795 0.0
C1167 C 0.22151 0.02169 0.59036 0.0
C1168 C 0.19703 1.01131 0.61892 0.0
C1169 C 0.19602 1.01081 0.71092 0.0
C1170 C 0.20295 0.0213 0.33838 0.0
C1171 C 0.22452 0.02323 0.30364 0.0
C1172 C 0.20214 0.02104 0.43036 0.0
C1173 C 0.22269 0.02236 0.49136 0.0
C1174 C 0.24441 0.02443 0.45629 0.0
C1175 C 0.24549 0.0252 0.36454 0.0
H1176 H 0.78302 0.54924 0.44286 0.0
H1177 H 0.76679 0.486 0.39524 0.0
H1178 H 0.78231 0.54845 0.60273 0.0
H1179 H 0.7645 0.48451 0.55344 0.0
H1180 H 0.78351 0.49308 0.85829 0.0
H1181 H 0.78678 0.4951 0.70139 0.0
H1182 H 0.75641 0.53561 0.70761 0.0
H1183 H 0.75516 0.53488 0.86641 0.0
C1184 C 0.77915 0.53511 0.46673 0.0
C1185 C 0.77513 0.51776 0.40666 0.0
C1186 C 0.77848 0.53452 0.55845 0.0
C1187 C 0.77323 0.51636 0.59238 0.0
C1188 C 0.76916 0.49898 0.53144 0.0
C1189 C 0.77032 0.49975 0.44019 0.0
C1190 C 0.77763 0.50251 0.82642 0.0
C1191 C 0.76897 0.51375 0.87568 0.0
C1192 C 0.77927 0.50352 0.73552 0.0
C1193 C 0.7718 0.51548 0.69024 0.0
C1194 C 0.76286 0.52652 0.73955 0.0
C1195 C 0.76172 0.52584 0.83093 0.0
H1196 H 0.5004 0.15705 0.31882 0.0
H1197 H 0.56186 0.22364 0.3939 0.0
H1198 H 0.49985 0.15538 0.47675 0.0
H1199 H 0.55974 0.22246 0.55245 0.0
H1200 H 0.56764 0.21201 0.83891 0.0
H1201 H 0.56987 0.21255 0.68025 0.0
H1202 H 0.48661 0.16252 0.60328 0.0
H1203 H 0.48519 0.16125 0.76282 0.0
C1204 C 0.51361 0.17151 0.36893 0.0
C1205 C 0.53084 0.19062 0.34252 0.0
C1206 C 0.51306 0.17058 0.46034 0.0
C1207 C 0.52946 0.1888 0.52905 0.0
C1208 C 0.54688 0.20794 0.50258 0.0
C1209 C 0.54778 0.20876 0.41089 0.0
C1210 C 0.54986 0.20105 0.78776 0.0
C1211 C 0.52622 0.1866 0.81322 0.0
C1212 C 0.55103 0.20148 0.69634 0.0
C1213 C 0.52838 0.18777 0.62726 0.0
C1214 C 0.5047 0.17315 0.65337 0.0
C1215 C 0.50373 0.17243 0.74507 0.0
H1216 H 0.97691 0.34768 0.49752 0.0
H1217 H 0.89575 0.33065 0.45632 0.0
H1218 H 0.97808 0.34808 0.65832 0.0
H1219 H 0.89616 0.32955 0.61558 0.0
H1220 H 0.90865 0.34588 0.91915 0.0
H1221 H 0.90928 0.34759 0.76063 0.0
H1222 H 0.96608 0.32919 0.77127 0.0
H1223 H 0.96657 0.329 0.93248 0.0
C1224 C 0.95919 0.34386 0.52254 0.0
C1225 C 0.93616 0.33897 0.4631 0.0
C1226 C 0.95975 0.34384 0.61527 0.0
C1227 C 0.93718 0.33871 0.65169 0.0
C1228 C 0.9142 0.33395 0.59185 0.0
C1229 C 0.91382 0.33433 0.4995 0.0
C1230 C 0.92127 0.3422 0.88744 0.0
C1231 C 0.9375 0.33724 0.93824 0.0
C1232 C 0.92152 0.34301 0.79579 0.0
C1233 C 0.93755 0.33836 0.75107 0.0
C1234 C 0.95376 0.33329 0.8025 0.0
C1235 C 0.95395 0.33298 0.89507 0.0
H1236 H 0.43481 0.91533 0.49134 0.0
H1237 H 0.44255 0.86171 0.46862 0.0
H1238 H 0.43319 0.91443 0.33071 0.0
H1239 H 0.44324 0.86168 0.30807 0.0
H1240 H 0.42277 0.85539 0.00305 0.0
H1241 H 0.42179 0.8546 0.16265 0.0
H1242 H 0.45558 0.92212 0.219 0.0
H1243 H 0.45328 0.92214 0.05951 0.0
C1244 C 0.43669 0.90355 0.45188 0.0
C1245 C 0.43895 0.88866 0.49263 0.0
C1246 C 0.436 0.9031 0.35924 0.0
C1247 C 0.43847 0.88816 0.3047 0.0
C1248 C 0.44084 0.87326 0.34627 0.0
C1249 C 0.4407 0.87334 0.43877 0.0
C1250 C 0.42984 0.87001 0.04978 0.0
C1251 C 0.43877 0.88894 0.01819 0.0
C1252 C 0.42958 0.86965 0.142 0.0
C1253 C 0.43872 0.88832 0.20569 0.0
C1254 C 0.44788 0.90724 0.1734 0.0
C1255 C 0.44737 0.90744 0.08123 0.0
H1256 H 0.34535 0.5911 0.12692 0.0
H1257 H 0.30981 0.5235 0.0748 0.0
H1258 H 0.34435 0.59118 0.28653 0.0
H1259 H 0.31052 0.52367 0.23486 0.0
H1260 H 0.29224 0.52513 0.51388 0.0
H1261 H 0.29182 0.52555 0.3537 0.0
H1262 H 0.36194 0.58924 0.4237 0.0
H1263 H 0.36074 0.5891 0.58368 0.0
C1264 C 0.33758 0.57625 0.14965 0.0
C1265 C 0.32753 0.55728 0.08747 0.0
C1266 C 0.33722 0.5763 0.24188 0.0
C1267 C 0.32733 0.55742 0.27521 0.0
C1268 C 0.31774 0.53852 0.21274 0.0
C1269 C 0.31761 0.53842 0.12038 0.0
C1270 C 0.30747 0.5392 0.49458 0.0
C1271 C 0.3265 0.55707 0.56094 0.0
C1272 C 0.30745 0.53944 0.40247 0.0
C1273 C 0.32698 0.55739 0.37413 0.0
C1274 C 0.34618 0.57523 0.44153 0.0
C1275 C 0.34571 0.57516 0.53362 0.0
H1276 H 0.65642 0.7279 0.62374 0.0
H1277 H 0.57654 0.71347 0.56951 0.0
H1278 H 0.65867 0.72979 0.46538 0.0
H1279 H 0.5781 0.71438 0.41001 0.0
H1280 H 0.59599 0.73671 0.14599 0.0
H1281 H 0.59462 0.7356 0.30483 0.0
H1282 H 0.64585 0.71185 0.3168 0.0
H1283 H 0.64842 0.71419 0.15935 0.0
C1284 C 0.6392 0.72491 0.57754 0.0
C1285 C 0.61642 0.72076 0.60961 0.0
C1286 C 0.64039 0.72586 0.48613 0.0
C1287 C 0.61862 0.72232 0.42332 0.0
C1288 C 0.59559 0.71772 0.45564 0.0
C1289 C 0.59456 0.71704 0.54733 0.0
C1290 C 0.60721 0.73144 0.18257 0.0
C1291 C 0.62228 0.72549 0.13881 0.0
C1292 C 0.60616 0.73054 0.27409 0.0
C1293 C 0.61997 0.7235 0.32516 0.0
C1294 C 0.63517 0.71767 0.28126 0.0
C1295 C 0.63645 0.7188 0.19 0.0
loop_
_geom_bond_atom_site_label_1
_geom_bond_atom_site_label_2
_geom_bond_distance
_geom_bond_site_symmetry_2
_ccdc_geom_bond_type
Tb0 N29 2.617 1_454 S
Tb0 N35 2.572 1_455 S
Tb0 O44 2.465 1_455 S
Tb0 O45 2.387 . S
Tb0 O47 2.428 1_455 S
Tb0 O48 2.308 . S
Tb0 O52 2.349 . S
Tb0 O55 2.393 1_554 S
Tb0 C64 2.802 1_455 S
C1 N2 1.379 . S
C1 C4 1.416 . S
C1 C8 1.424 . S
N2 C1 1.379 . S
N2 C5 1.334 . S
N2 Tb11 2.617 . S
C3 C5 1.390 . S
C3 C6 1.339 . S
C3 H23 0.930 . S
C4 C1 1.416 . S
C4 C6 1.416 . S
C4 C10 1.448 . S
C5 N2 1.334 . S
C5 C3 1.390 . S
C5 H16 0.930 . S
C6 C3 1.339 . S
C6 C4 1.416 . S
C6 H27 0.930 . S
C7 C8 1.413 . S
C7 C9 1.427 . S
C7 C13 1.416 . S
C8 C1 1.424 . S
C8 C7 1.413 . S
C8 N12 1.361 . S
C9 C7 1.427 . S
C9 C10 1.328 . S
C9 H24 0.929 . S
C10 C4 1.448 . S
C10 C9 1.328 . S
C10 H25 0.930 . S
Tb11 N2 2.617 . S
Tb11 N12 2.572 . S
Tb11 O46 2.349 . S
Tb11 O49 2.393 . S
Tb11 O50 2.465 . S
Tb11 O51 2.387 . S
Tb11 O53 2.428 . S
Tb11 O54 2.308 . S
Tb11 C75 2.802 . S
N12 C8 1.361 . S
N12 Tb11 2.572 . S
N12 C14 1.340 . S
C13 C7 1.416 . S
C13 C15 1.332 . S
C13 H21 0.931 . S
C14 N12 1.340 . S
C14 C15 1.407 . S
C14 H20 0.930 . S
C15 C13 1.332 . S
C15 C14 1.407 . S
C15 H17 0.929 1_554 S
H16 C5 0.930 . S
H17 C15 0.929 1_556 S
H18 C33 0.930 . S
H19 C40 0.929 . S
H20 C14 0.930 . S
H21 C13 0.931 . S
H22 C36 0.930 . S
H23 C3 0.930 . S
H24 C9 0.929 . S
H25 C10 0.930 . S
H26 C31 0.930 . S
H27 C6 0.930 . S
H28 C39 0.931 . S
N29 Tb0 2.617 1_656 S
N29 C30 1.379 . S
N29 C33 1.334 . S
C30 N29 1.379 . S
C30 C32 1.416 . S
C30 C38 1.424 1_556 S
C31 H26 0.930 . S
C31 C33 1.390 . S
C31 C34 1.339 . S
C32 C30 1.416 . S
C32 C34 1.416 . S
C32 C65 1.448 . S
C33 H18 0.930 . S
C33 N29 1.334 . S
C33 C31 1.390 . S
C34 C31 1.339 . S
C34 C32 1.416 . S
C34 H41 0.930 . S
N35 Tb0 2.572 1_655 S
N35 C36 1.340 . S
N35 C38 1.361 . S
C36 H22 0.930 . S
C36 N35 1.340 . S
C36 C40 1.407 . S
C37 C38 1.413 . S
C37 C39 1.416 . S
C37 C66 1.427 . S
C38 C30 1.424 1_554 S
C38 N35 1.361 . S
C38 C37 1.413 . S
C39 H28 0.931 . S
C39 C37 1.416 . S
C39 C40 1.332 . S
C40 H19 0.929 . S
C40 C36 1.407 . S
C40 C39 1.332 . S
H41 C34 0.930 . S
H42 C65 0.930 . S
H43 C66 0.929 . S
O44 Tb0 2.465 1_655 S
O44 C64 1.264 . S
O45 Tb0 2.387 . S
O45 C56 1.264 . S
O46 Tb11 2.349 . S
O46 C56 1.243 . S
O47 Tb0 2.428 1_655 S
O47 C64 1.256 . S
O48 Tb0 2.308 . S
O48 C63 1.266 . S
O49 Tb11 2.393 . S
O49 C63 1.248 . S
O50 Tb11 2.465 . S
O50 C75 1.264 . S
O51 Tb11 2.387 . S
O51 C67 1.264 . S
O52 Tb0 2.349 . S
O52 C67 1.243 . S
O53 Tb11 2.428 . S
O53 C75 1.256 . S
O54 Tb11 2.308 . S
O54 C74 1.266 1_554 S
O55 Tb0 2.393 1_556 S
O55 C74 1.248 . S
C56 O45 1.264 . S
C56 O46 1.243 . S
C57 C60 1.399 . S
C57 C62 1.383 . S
C57 C64 1.496 . S
C58 C59 1.399 . S
C58 C62 1.389 . S
C59 C58 1.399 . S
C59 C61 1.380 . S
C59 H76 0.929 . S
C60 C57 1.399 . S
C60 C61 1.392 . S
C60 H77 0.929 1_554 S
C61 C59 1.380 . S
C61 C60 1.392 . S
C61 H78 0.929 1_554 S
C62 C57 1.383 . S
C62 C58 1.389 . S
C62 H79 0.931 . S
C63 O48 1.266 . S
C63 O49 1.248 . S
C64 Tb0 2.802 1_655 S
C64 O44 1.264 . S
C64 O47 1.256 . S
C64 C57 1.496 . S
C65 C32 1.448 . S
C65 H42 0.930 . S
C65 C66 1.328 1_556 S
C66 C37 1.427 . S
C66 H43 0.929 . S
C66 C65 1.328 1_554 S
C67 O51 1.264 . S
C67 O52 1.243 . S
C68 C71 1.399 . S
C68 C72 1.383 . S
C68 C75 1.496 . S
C69 C70 1.399 . S
C69 C72 1.389 . S
C70 C69 1.399 . S
C70 C73 1.380 . S
C70 H80 0.929 . S
C71 C68 1.399 . S
C71 C73 1.392 . S
C71 H81 0.929 . S
C72 C68 1.383 . S
C72 C69 1.389 . S
C72 H82 0.931 . S
C73 C70 1.380 . S
C73 C71 1.392 . S
C73 H83 0.929 . S
C74 O54 1.266 1_556 S
C74 O55 1.248 . S
C75 Tb11 2.802 . S
C75 O50 1.264 . S
C75 O53 1.256 . S
C75 C68 1.496 . S
H76 C59 0.929 . S
H77 C60 0.929 1_556 S
H78 C61 0.929 1_556 S
H79 C62 0.931 . S
H80 C70 0.929 . S
H81 C71 0.929 . S
H82 C72 0.931 . S
H83 C73 0.929 . S
Tb84 N113 2.617 . S
Tb84 N119 2.572 . S
Tb84 O128 2.465 . S
Tb84 O129 2.387 . S
Tb84 O131 2.428 . S
Tb84 O132 2.308 . S
Tb84 O136 2.349 . S
Tb84 O139 2.393 . S
Tb84 C148 2.802 . S
C85 N86 1.379 1_554 S
C85 C88 1.416 1_554 S
C85 C92 1.424 . S
N86 C85 1.379 1_556 S
N86 C89 1.334 . S
N86 Tb95 2.617 1_556 S
C87 C89 1.390 . S
C87 C90 1.339 . S
C87 H107 0.930 . S
C88 C85 1.416 1_556 S
C88 C90 1.416 . S
C88 C94 1.444 1_556 S
C89 N86 1.334 . S
C89 C87 1.390 . S
C89 H100 0.930 . S
C90 C87 1.339 . S
C90 C88 1.416 . S
C90 H111 0.930 . S
C91 C92 1.413 . S
C91 C93 1.427 . S
C91 C97 1.416 . S
C92 C85 1.424 . S
C92 C91 1.413 . S
C92 N96 1.361 . S
C93 C91 1.427 . S
C93 C94 1.341 . S
C93 H108 0.929 1_655 S
C94 C88 1.444 1_554 S
C94 C93 1.341 . S
C94 H109 0.922 1_554 S
Tb95 N86 2.617 1_554 S
Tb95 N96 2.572 . S
Tb95 O130 2.349 . S
Tb95 O133 2.393 1_554 S
Tb95 O134 2.465 . S
Tb95 O135 2.387 . S
Tb95 O137 2.428 . S
Tb95 O138 2.308 . S
Tb95 C159 2.802 . S
N96 C92 1.361 . S
N96 Tb95 2.572 . S
N96 C98 1.340 . S
C97 C91 1.416 . S
C97 C99 1.332 . S
C97 H105 0.931 . S
C98 N96 1.340 . S
C98 C99 1.407 . S
C98 H104 0.930 . S
C99 C97 1.332 . S
C99 C98 1.407 . S
C99 H101 0.929 . S
H100 C89 0.930 . S
H101 C99 0.929 . S
H102 C117 0.930 . S
H103 C124 0.929 . S
H104 C98 0.930 . S
H105 C97 0.931 . S
H106 C120 0.930 . S
H107 C87 0.930 . S
H108 C93 0.929 1_455 S
H109 C94 0.922 1_556 S
H110 C115 0.930 . S
H111 C90 0.930 . S
H112 C123 0.931 . S
N113 Tb84 2.617 . S
N113 C114 1.379 . S
N113 C117 1.334 . S
C114 N113 1.379 . S
C114 C116 1.416 . S
C114 C122 1.424 . S
C115 H110 0.930 . S
C115 C117 1.390 . S
C115 C118 1.339 . S
C116 C114 1.416 . S
C116 C118 1.416 . S
C116 C149 1.448 . S
C117 H102 0.930 . S
C117 N113 1.334 . S
C117 C115 1.390 . S
C118 C115 1.339 . S
C118 C116 1.416 . S
C118 H125 0.930 . S
N119 Tb84 2.572 . S
N119 C120 1.340 1_554 S
N119 C122 1.361 . S
C120 H106 0.930 . S
C120 N119 1.340 1_556 S
C120 C124 1.407 . S
C121 C122 1.413 . S
C121 C123 1.416 1_554 S
C121 C150 1.427 . S
C122 C114 1.424 . S
C122 N119 1.361 . S
C122 C121 1.413 . S
C123 H112 0.931 . S
C123 C121 1.416 1_556 S
C123 C124 1.332 . S
C124 H103 0.929 . S
C124 C120 1.407 . S
C124 C123 1.332 . S
H125 C118 0.930 . S
H126 C149 0.930 . S
H127 C150 0.929 . S
O128 Tb84 2.465 . S
O128 C148 1.264 . S
O129 Tb84 2.387 . S
O129 C140 1.264 . S
O130 Tb95 2.349 . S
O130 C140 1.243 . S
O131 Tb84 2.428 . S
O131 C148 1.256 . S
O132 Tb84 2.308 . S
O132 C147 1.266 1_554 S
O133 Tb95 2.393 1_556 S
O133 C147 1.248 . S
O134 Tb95 2.465 . S
O134 C159 1.264 . S
O135 Tb95 2.387 . S
O135 C151 1.264 . S
O136 Tb84 2.349 . S
O136 C151 1.243 . S
O137 Tb95 2.428 . S
O137 C159 1.256 . S
O138 Tb95 2.308 . S
O138 C158 1.266 . S
O139 Tb84 2.393 . S
O139 C158 1.248 . S
C140 O129 1.264 . S
C140 O130 1.243 . S
C141 C144 1.399 . S
C141 C146 1.383 . S
C141 C148 1.496 . S
C142 C143 1.399 . S
C142 C146 1.389 . S
C143 C142 1.399 . S
C143 C145 1.380 . S
C143 H160 0.929 . S
C144 C141 1.399 . S
C144 C145 1.392 . S
C144 H161 0.929 . S
C145 C143 1.380 . S
C145 C144 1.392 . S
C145 H162 0.929 . S
C146 C141 1.383 . S
C146 C142 1.389 . S
C146 H163 0.931 . S
C147 O132 1.266 1_556 S
C147 O133 1.248 . S
C148 Tb84 2.802 . S
C148 O128 1.264 . S
C148 O131 1.256 . S
C148 C141 1.496 . S
C149 C116 1.448 . S
C149 H126 0.930 . S
C149 C150 1.328 . S
C150 C121 1.427 . S
C150 H127 0.929 . S
C150 C149 1.328 . S
C151 O135 1.264 . S
C151 O136 1.243 . S
C152 C155 1.399 1_554 S
C152 C156 1.383 . S
C152 C159 1.496 . S
C153 C154 1.399 . S
C153 C156 1.389 . S
C154 C153 1.399 . S
C154 C157 1.380 1_554 S
C154 H164 0.929 . S
C155 C152 1.399 1_556 S
C155 C157 1.392 . S
C155 H165 0.929 . S
C156 C152 1.383 . S
C156 C153 1.389 . S
C156 H166 0.931 . S
C157 C154 1.380 1_556 S
C157 C155 1.392 . S
C157 H167 0.929 . S
C158 O138 1.266 . S
C158 O139 1.248 . S
C159 Tb95 2.802 . S
C159 O134 1.264 . S
C159 O137 1.256 . S
C159 C152 1.496 . S
H160 C143 0.929 . S
H161 C144 0.929 . S
H162 C145 0.929 . S
H163 C146 0.931 . S
H164 C154 0.929 . S
H165 C155 0.929 . S
H166 C156 0.931 . S
H167 C157 0.929 . S
Tb168 N197 2.617 . S
Tb168 N203 2.572 1_556 S
Tb168 O212 2.465 1_556 S
Tb168 O213 2.387 . S
Tb168 O215 2.428 . S
Tb168 O216 2.308 1_556 S
Tb168 O220 2.387 . S
Tb168 O223 2.393 . S
Tb168 C232 2.802 1_556 S
C169 N170 1.379 . S
C169 C172 1.416 . S
C169 C176 1.424 1_554 S
N170 C169 1.379 . S
N170 C173 1.334 . S
N170 Tb179 2.617 . S
C171 C173 1.390 . S
C171 C174 1.339 . S
C171 H191 0.930 . S
C172 C169 1.416 . S
C172 C174 1.416 . S
C172 C178 1.448 . S
C173 N170 1.334 . S
C173 C171 1.390 . S
C173 H184 0.930 . S
C174 C171 1.339 . S
C174 C172 1.416 . S
C174 H195 0.930 . S
C175 C176 1.413 . S
C175 C177 1.427 . S
C175 C181 1.416 . S
C176 C169 1.424 1_556 S
C176 C175 1.413 . S
C176 N180 1.361 . S
C177 C175 1.427 . S
C177 C178 1.328 1_556 S
C177 H192 0.929 . S
C178 C172 1.448 . S
C178 C177 1.328 1_554 S
C178 H193 0.930 . S
Tb179 N170 2.617 . S
Tb179 N180 2.572 1_554 S
Tb179 O214 2.349 1_565 S
Tb179 O217 2.393 1_565 S
Tb179 O218 2.465 1_554 S
Tb179 O219 2.387 . S
Tb179 O221 2.428 . S
Tb179 O222 2.308 1_554 S
Tb179 C243 2.804 . S
N180 C176 1.361 . S
N180 Tb179 2.572 1_556 S
N180 C182 1.340 . S
C181 C175 1.416 . S
C181 C183 1.332 . S
C181 H189 0.931 . S
C182 N180 1.340 . S
C182 C183 1.407 . S
C182 H188 0.930 . S
C183 C181 1.332 . S
C183 C182 1.407 . S
C183 H185 0.929 . S
H184 C173 0.930 . S
H185 C183 0.929 . S
H186 C201 0.930 . S
H187 C208 0.929 . S
H188 C182 0.930 . S
H189 C181 0.931 . S
H190 C204 0.930 . S
H191 C171 0.930 . S
H192 C177 0.929 . S
H193 C178 0.930 . S
H194 C199 0.930 . S
H195 C174 0.930 . S
H196 C207 0.931 . S
N197 Tb168 2.617 . S
N197 C198 1.379 . S
N197 C201 1.334 . S
C198 N197 1.379 . S
C198 C200 1.416 . S
C198 C206 1.424 1_556 S
C199 H194 0.930 . S
C199 C201 1.390 . S
C199 C202 1.339 . S
C200 C198 1.416 . S
C200 C202 1.416 . S
C200 C233 1.448 . S
C201 H186 0.930 . S
C201 N197 1.334 . S
C201 C199 1.390 . S
C202 C199 1.339 . S
C202 C200 1.416 . S
C202 H209 0.930 . S
N203 Tb168 2.572 1_554 S
N203 C204 1.340 . S
N203 C206 1.361 . S
C204 H190 0.930 . S
C204 N203 1.340 . S
C204 C208 1.407 . S
C205 C206 1.413 . S
C205 C207 1.416 . S
C205 C234 1.427 . S
C206 C198 1.424 1_554 S
C206 N203 1.361 . S
C206 C205 1.413 . S
C207 H196 0.931 . S
C207 C205 1.416 . S
C207 C208 1.332 . S
C208 H187 0.929 . S
C208 C204 1.407 . S
C208 C207 1.332 . S
H209 C202 0.930 . S
H210 C233 0.930 . S
H211 C234 0.929 . S
O212 Tb168 2.465 1_554 S
O212 C232 1.264 . S
O213 Tb168 2.387 . S
O213 C224 1.264 1_556 S
O214 Tb179 2.349 1_545 S
O214 C224 1.243 . S
O215 Tb168 2.428 . S
O215 C232 1.256 1_556 S
O216 Tb168 2.308 1_554 S
O216 C231 1.266 . S
O217 Tb179 2.393 1_545 S
O217 C231 1.248 . S
O218 Tb179 2.465 1_556 S
O218 C243 1.256 1_556 S
O219 Tb179 2.387 . S
O219 C235 1.262 1_554 S
O220 Tb168 2.387 . S
O220 C235 1.182 1_545 S
O221 Tb179 2.428 . S
O221 C243 1.266 . S
O222 Tb179 2.308 1_556 S
O222 C242 1.266 1_565 S
O223 Tb168 2.393 . S
O223 C242 1.248 . S
C224 O213 1.264 1_554 S
C224 O214 1.243 . S
C225 C228 1.399 1_554 S
C225 C230 1.383 . S
C225 C232 1.496 . S
C226 C227 1.399 . S
C226 C230 1.389 . S
C227 C226 1.399 . S
C227 C229 1.380 1_554 S
C227 H244 0.929 . S
C228 C225 1.399 1_556 S
C228 C229 1.392 . S
C228 H245 0.929 . S
C229 C227 1.380 1_556 S
C229 C228 1.392 . S
C229 H246 0.929 . S
C230 C225 1.383 . S
C230 C226 1.389 . S
C230 H247 0.931 . S
C231 O216 1.266 . S
C231 O217 1.248 . S
C232 Tb168 2.802 1_554 S
C232 O212 1.264 . S
C232 O215 1.256 1_554 S
C232 C225 1.496 . S
C233 C200 1.448 . S
C233 H210 0.930 . S
C233 C234 1.328 1_556 S
C234 C205 1.427 . S
C234 H211 0.929 . S
C234 C233 1.328 1_554 S
C235 O219 1.262 1_556 S
C235 O220 1.182 1_565 S
C236 C239 1.399 1_556 S
C236 C240 1.383 . S
C236 C243 1.494 1_556 S
C237 C238 1.399 . S
C237 C240 1.389 . S
C238 C237 1.399 . S
C238 C241 1.380 1_556 S
C238 H248 0.929 . S
C239 C236 1.399 1_554 S
C239 C241 1.392 . S
C239 H249 0.929 . S
C240 C236 1.383 . S
C240 C237 1.389 . S
C240 H250 0.931 . S
C241 C238 1.380 1_554 S
C241 C239 1.392 . S
C241 H251 0.929 . S
C242 O222 1.266 1_545 S
C242 O223 1.248 . S
C243 Tb179 2.804 . S
C243 O218 1.256 1_554 S
C243 O221 1.266 . S
C243 C236 1.494 1_554 S
H244 C227 0.929 . S
H245 C228 0.929 . S
H246 C229 0.929 . S
H247 C230 0.931 . S
H248 C238 0.929 . S
H249 C239 0.929 . S
H250 C240 0.931 . S
H251 C241 0.929 . S
Tb252 N281 2.617 . S
Tb252 N287 2.572 . S
Tb252 O296 2.465 . S
Tb252 O297 2.387 . S
Tb252 O299 2.428 . S
Tb252 O300 2.308 . S
Tb252 O304 2.349 . S
Tb252 O307 2.393 . S
Tb252 C316 2.802 . S
C253 N254 1.379 1_554 S
C253 C256 1.416 1_554 S
C253 C260 1.424 . S
N254 C253 1.379 1_556 S
N254 C257 1.334 . S
N254 Tb263 2.617 1_556 S
C255 C257 1.390 . S
C255 C258 1.339 . S
C255 H275 0.930 . S
C256 C253 1.416 1_556 S
C256 C258 1.416 . S
C256 C262 1.448 . S
C257 N254 1.334 . S
C257 C255 1.390 . S
C257 H268 0.930 . S
C258 C255 1.339 . S
C258 C256 1.416 . S
C258 H279 0.930 . S
C259 C260 1.413 . S
C259 C261 1.427 . S
C259 C265 1.416 . S
C260 C253 1.424 . S
C260 C259 1.413 . S
C260 N264 1.361 . S
C261 C259 1.427 . S
C261 C262 1.328 1_554 S
C261 H276 0.929 . S
C262 C256 1.448 . S
C262 C261 1.328 1_556 S
C262 H277 0.930 . S
Tb263 N254 2.617 1_554 S
Tb263 N264 2.572 . S
Tb263 O298 2.349 . S
Tb263 O301 2.393 1_554 S
Tb263 O302 2.465 . S
Tb263 O303 2.387 . S
Tb263 O305 2.428 . S
Tb263 O306 2.308 . S
Tb263 C327 2.802 . S
N264 C260 1.361 . S
N264 Tb263 2.572 . S
N264 C266 1.340 . S
C265 C259 1.416 . S
C265 C267 1.332 . S
C265 H273 0.931 . S
C266 N264 1.340 . S
C266 C267 1.407 . S
C266 H272 0.930 . S
C267 C265 1.332 . S
C267 C266 1.407 . S
C267 H269 0.929 . S
H268 C257 0.930 . S
H269 C267 0.929 . S
H270 C285 0.930 . S
H271 C292 0.929 1_556 S
H272 C266 0.930 . S
H273 C265 0.931 . S
H274 C288 0.930 . S
H275 C255 0.930 . S
H276 C261 0.929 . S
H277 C262 0.930 . S
H278 C283 0.930 . S
H279 C258 0.930 . S
H280 C291 0.931 . S
N281 Tb252 2.617 . S
N281 C282 1.379 . S
N281 C285 1.334 . S
C282 N281 1.379 . S
C282 C284 1.416 . S
C282 C290 1.424 . S
C283 H278 0.930 . S
C283 C285 1.390 . S
C283 C286 1.339 . S
C284 C282 1.416 . S
C284 C286 1.416 . S
C284 C317 1.448 . S
C285 H270 0.930 . S
C285 N281 1.334 . S
C285 C283 1.390 . S
C286 C283 1.339 . S
C286 C284 1.416 . S
C286 H293 0.930 . S
N287 Tb252 2.572 . S
N287 C288 1.340 . S
N287 C290 1.361 . S
C288 H274 0.930 . S
C288 N287 1.340 . S
C288 C292 1.407 . S
C289 C290 1.413 . S
C289 C291 1.416 . S
C289 C318 1.427 . S
C290 C282 1.424 . S
C290 N287 1.361 . S
C290 C289 1.413 . S
C291 H280 0.931 . S
C291 C289 1.416 . S
C291 C292 1.332 . S
C292 H271 0.929 1_554 S
C292 C288 1.407 . S
C292 C291 1.332 . S
H293 C286 0.930 . S
H294 C317 0.930 . S
H295 C318 0.929 . S
O296 Tb252 2.465 . S
O296 C316 1.264 . S
O297 Tb252 2.387 . S
O297 C308 1.264 . S
O298 Tb263 2.349 . S
O298 C308 1.243 . S
O299 Tb252 2.428 . S
O299 C316 1.256 . S
O300 Tb252 2.308 . S
O300 C315 1.266 1_554 S
O301 Tb263 2.393 1_556 S
O301 C315 1.248 . S
O302 Tb263 2.465 . S
O302 C327 1.264 . S
O303 Tb263 2.387 . S
O303 C319 1.264 . S
O304 Tb252 2.349 . S
O304 C319 1.243 . S
O305 Tb263 2.428 . S
O305 C327 1.256 . S
O306 Tb263 2.308 . S
O306 C326 1.266 . S
O307 Tb252 2.393 . S
O307 C326 1.248 . S
C308 O297 1.264 . S
C308 O298 1.243 . S
C309 C312 1.399 . S
C309 C314 1.383 . S
C309 C316 1.496 . S
C310 C311 1.399 . S
C310 C314 1.389 . S
C311 C310 1.399 . S
C311 C313 1.380 . S
C311 H328 0.929 . S
C312 C309 1.399 . S
C312 C313 1.392 . S
C312 H329 0.929 . S
C313 C311 1.380 . S
C313 C312 1.392 . S
C313 H330 0.929 . S
C314 C309 1.383 . S
C314 C310 1.389 . S
C314 H331 0.931 1_554 S
C315 O300 1.266 1_556 S
C315 O301 1.248 . S
C316 Tb252 2.802 . S
C316 O296 1.264 . S
C316 O299 1.256 . S
C316 C309 1.496 . S
C317 C284 1.448 . S
C317 H294 0.930 . S
C317 C318 1.328 . S
C318 C289 1.427 . S
C318 H295 0.929 . S
C318 C317 1.328 . S
C319 O303 1.264 . S
C319 O304 1.243 . S
C320 C323 1.399 . S
C320 C324 1.383 . S
C320 C327 1.496 . S
C321 C322 1.399 . S
C321 C324 1.389 . S
C322 C321 1.399 . S
C322 C325 1.380 . S
C322 H332 0.929 . S
C323 C320 1.399 . S
C323 C325 1.392 . S
C323 H333 0.929 . S
C324 C320 1.383 . S
C324 C321 1.389 . S
C324 H334 0.931 . S
C325 C322 1.380 . S
C325 C323 1.392 . S
C325 H335 0.929 . S
C326 O306 1.266 . S
C326 O307 1.248 . S
C327 Tb263 2.802 . S
C327 O302 1.264 . S
C327 O305 1.256 . S
C327 C320 1.496 . S
H328 C311 0.929 . S
H329 C312 0.929 . S
H330 C313 0.929 . S
H331 C314 0.931 1_556 S
H332 C322 0.929 . S
H333 C323 0.929 . S
H334 C324 0.931 . S
H335 C325 0.929 . S
Tb336 N365 2.617 . S
Tb336 N371 2.572 . S
Tb336 O380 2.465 . S
Tb336 O381 2.387 . S
Tb336 O383 2.428 . S
Tb336 O384 2.308 1_554 S
Tb336 O388 2.349 . S
Tb336 O391 2.393 . S
Tb336 C400 2.802 . S
C337 N338 1.379 . S
C337 C340 1.416 . S
C337 C344 1.424 1_556 S
N338 C337 1.379 . S
N338 C341 1.334 . S
N338 Tb347 2.617 1_556 S
C339 C341 1.390 . S
C339 C342 1.339 . S
C339 H359 0.930 . S
C340 C337 1.416 . S
C340 C342 1.416 . S
C340 C346 1.448 . S
C341 N338 1.334 . S
C341 C339 1.390 . S
C341 H352 0.930 . S
C342 C339 1.339 . S
C342 C340 1.416 . S
C342 H363 0.930 . S
C343 C344 1.413 . S
C343 C345 1.427 . S
C343 C349 1.416 . S
C344 C337 1.424 1_554 S
C344 C343 1.413 . S
C344 N348 1.361 . S
C345 C343 1.427 . S
C345 C346 1.328 1_554 S
C345 H360 0.929 . S
C346 C340 1.448 . S
C346 C345 1.328 1_556 S
C346 H361 0.930 . S
Tb347 N338 2.617 1_554 S
Tb347 N348 2.572 . S
Tb347 O382 2.349 . S
Tb347 O385 2.393 1_554 S
Tb347 O386 2.465 . S
Tb347 O387 2.387 . S
Tb347 O389 2.428 1_554 S
Tb347 O390 2.308 . S
Tb347 C411 2.802 . S
N348 C344 1.361 . S
N348 Tb347 2.572 . S
N348 C350 1.340 . S
C349 C343 1.416 . S
C349 C351 1.332 . S
C349 H357 0.931 . S
C350 N348 1.340 . S
C350 C351 1.407 . S
C350 H356 0.930 . S
C351 C349 1.332 . S
C351 C350 1.407 . S
C351 H353 0.929 . S
H352 C341 0.930 . S
H353 C351 0.929 . S
H354 C369 0.930 . S
H355 C376 0.929 . S
H356 C350 0.930 . S
H357 C349 0.931 . S
H358 C372 0.930 . S
H359 C339 0.930 . S
H360 C345 0.929 . S
H361 C346 0.930 . S
H362 C367 0.930 . S
H363 C342 0.930 . S
H364 C375 0.931 . S
N365 Tb336 2.617 . S
N365 C366 1.379 . S
N365 C369 1.334 . S
C366 N365 1.379 . S
C366 C368 1.416 . S
C366 C374 1.424 . S
C367 H362 0.930 . S
C367 C369 1.390 . S
C367 C370 1.339 . S
C368 C366 1.416 . S
C368 C370 1.416 . S
C368 C401 1.448 . S
C369 H354 0.930 . S
C369 N365 1.334 . S
C369 C367 1.390 . S
C370 C367 1.339 . S
C370 C368 1.416 . S
C370 H377 0.930 . S
N371 Tb336 2.572 . S
N371 C372 1.340 1_554 S
N371 C374 1.361 . S
C372 H358 0.930 . S
C372 N371 1.340 1_556 S
C372 C376 1.407 . S
C373 C374 1.413 . S
C373 C375 1.416 1_554 S
C373 C402 1.427 . S
C374 C366 1.424 . S
C374 N371 1.361 . S
C374 C373 1.413 . S
C375 H364 0.931 . S
C375 C373 1.416 1_556 S
C375 C376 1.332 . S
C376 H355 0.929 . S
C376 C372 1.407 . S
C376 C375 1.332 . S
H377 C370 0.930 . S
H378 C401 0.930 . S
H379 C402 0.929 . S
O380 Tb336 2.465 . S
O380 C400 1.264 . S
O381 Tb336 2.387 . S
O381 C392 1.264 . S
O382 Tb347 2.349 . S
O382 C392 1.243 . S
O383 Tb336 2.428 . S
O383 C400 1.256 . S
O384 Tb336 2.308 1_556 S
O384 C399 1.266 . S
O385 Tb347 2.393 1_556 S
O385 C399 1.248 . S
O386 Tb347 2.465 . S
O386 C411 1.264 . S
O387 Tb347 2.387 . S
O387 C403 1.264 . S
O388 Tb336 2.349 . S
O388 C403 1.243 . S
O389 Tb347 2.428 1_556 S
O389 C411 1.256 1_556 S
O390 Tb347 2.308 . S
O390 C410 1.266 . S
O391 Tb336 2.393 . S
O391 C410 1.248 . S
C392 O381 1.264 . S
C392 O382 1.243 . S
C393 C396 1.399 . S
C393 C398 1.383 1_554 S
C393 C400 1.496 . S
C394 C395 1.399 1_556 S
C394 C398 1.389 . S
C395 C394 1.399 1_554 S
C395 C397 1.380 . S
C395 H412 0.929 . S
C396 C393 1.399 . S
C396 C397 1.392 . S
C396 H413 0.929 . S
C397 C395 1.380 . S
C397 C396 1.392 . S
C397 H414 0.929 . S
C398 C393 1.383 1_556 S
C398 C394 1.389 . S
C398 H415 0.931 . S
C399 O384 1.266 . S
C399 O385 1.248 . S
C400 Tb336 2.802 . S
C400 O380 1.264 . S
C400 O383 1.256 . S
C400 C393 1.496 . S
C401 C368 1.448 . S
C401 H378 0.930 . S
C401 C402 1.328 . S
C402 C373 1.427 . S
C402 H379 0.929 . S
C402 C401 1.328 . S
C403 O387 1.264 . S
C403 O388 1.243 . S
C404 C407 1.399 1_554 S
C404 C408 1.383 . S
C404 C411 1.496 . S
C405 C406 1.399 . S
C405 C408 1.389 . S
C406 C405 1.399 . S
C406 C409 1.372 1_554 S
C406 H416 0.929 . S
C407 C404 1.399 1_556 S
C407 C409 1.394 . S
C407 H417 0.929 . S
C408 C404 1.383 . S
C408 C405 1.389 . S
C408 H418 0.931 . S
C409 C406 1.372 1_556 S
C409 C407 1.394 . S
C409 H419 0.935 . S
C410 O390 1.266 . S
C410 O391 1.248 . S
C411 Tb347 2.802 . S
C411 O386 1.264 . S
C411 O389 1.256 1_554 S
C411 C404 1.496 . S
H412 C395 0.929 . S
H413 C396 0.929 . S
H414 C397 0.929 . S
H415 C398 0.931 . S
H416 C406 0.929 . S
H417 C407 0.929 . S
H418 C408 0.931 . S
H419 C409 0.935 . S
Tb420 N449 2.617 . S
Tb420 N455 2.572 . S
Tb420 O464 2.465 . S
Tb420 O465 2.387 . S
Tb420 O467 2.428 . S
Tb420 O468 2.308 . S
Tb420 O472 2.349 . S
Tb420 O475 2.393 . S
Tb420 C484 2.802 . S
C421 N422 1.379 . S
C421 C424 1.416 . S
C421 C428 1.424 . S
N422 C421 1.379 . S
N422 C425 1.334 . S
N422 Tb431 2.617 . S
C423 C425 1.390 1_556 S
C423 C426 1.339 1_556 S
C423 H443 0.930 . S
C424 C421 1.416 . S
C424 C426 1.416 . S
C424 C430 1.448 . S
C425 N422 1.334 . S
C425 C423 1.390 1_554 S
C425 H436 0.930 1_554 S
C426 C423 1.339 1_554 S
C426 C424 1.416 . S
C426 H447 0.930 1_554 S
C427 C428 1.413 . S
C427 C429 1.427 . S
C427 C433 1.416 . S
C428 C421 1.424 . S
C428 C427 1.413 . S
C428 N432 1.361 . S
C429 C427 1.427 . S
C429 C430 1.328 . S
C429 H444 0.929 . S
C430 C424 1.448 . S
C430 C429 1.328 . S
C430 H445 0.930 . S
Tb431 N422 2.617 . S
Tb431 N432 2.572 . S
Tb431 O466 2.349 . S
Tb431 O469 2.393 . S
Tb431 O470 2.465 . S
Tb431 O471 2.387 . S
Tb431 O473 2.428 . S
Tb431 O474 2.308 . S
Tb431 C495 2.802 . S
N432 C428 1.361 . S
N432 Tb431 2.572 . S
N432 C434 1.340 . S
C433 C427 1.416 . S
C433 C435 1.332 . S
C433 H441 0.931 . S
C434 N432 1.340 . S
C434 C435 1.407 . S
C434 H440 0.930 . S
C435 C433 1.332 . S
C435 C434 1.407 . S
C435 H437 0.929 . S
H436 C425 0.930 1_556 S
H437 C435 0.929 . S
H438 C453 0.930 . S
H439 C460 0.929 . S
H440 C434 0.930 . S
H441 C433 0.931 . S
H442 C456 0.930 1_556 S
H443 C423 0.930 . S
H444 C429 0.929 . S
H445 C430 0.930 . S
H446 C451 0.930 . S
H447 C426 0.930 1_556 S
H448 C459 0.931 1_556 S
N449 Tb420 2.617 . S
N449 C450 1.379 . S
N449 C453 1.334 . S
C450 N449 1.379 . S
C450 C452 1.416 . S
C450 C458 1.424 . S
C451 H446 0.930 . S
C451 C453 1.390 . S
C451 C454 1.339 . S
C452 C450 1.416 . S
C452 C454 1.416 . S
C452 C485 1.448 . S
C453 H438 0.930 . S
C453 N449 1.334 . S
C453 C451 1.390 . S
C454 C451 1.339 . S
C454 C452 1.416 . S
C454 H461 0.930 . S
N455 Tb420 2.572 . S
N455 C456 1.340 . S
N455 C458 1.361 . S
C456 H442 0.930 1_554 S
C456 N455 1.340 . S
C456 C460 1.407 1_554 S
C457 C458 1.413 . S
C457 C459 1.416 . S
C457 C486 1.427 . S
C458 C450 1.424 . S
C458 N455 1.361 . S
C458 C457 1.413 . S
C459 H448 0.931 1_554 S
C459 C457 1.416 . S
C459 C460 1.332 1_554 S
C460 H439 0.929 . S
C460 C456 1.407 1_556 S
C460 C459 1.332 1_556 S
H461 C454 0.930 . S
H462 C485 0.930 . S
H463 C486 0.929 . S
O464 Tb420 2.465 . S
O464 C484 1.264 . S
O465 Tb420 2.387 . S
O465 C476 1.264 . S
O466 Tb431 2.349 . S
O466 C476 1.243 . S
O467 Tb420 2.428 . S
O467 C484 1.256 . S
O468 Tb420 2.308 . S
O468 C483 1.266 . S
O469 Tb431 2.393 . S
O469 C483 1.248 . S
O470 Tb431 2.465 . S
O470 C495 1.264 . S
O471 Tb431 2.387 . S
O471 C487 1.264 . S
O472 Tb420 2.349 . S
O472 C487 1.243 . S
O473 Tb431 2.428 . S
O473 C495 1.256 . S
O474 Tb431 2.308 . S
O474 C494 1.266 . S
O475 Tb420 2.393 . S
O475 C494 1.248 . S
C476 O465 1.264 . S
C476 O466 1.243 . S
C477 C480 1.399 . S
C477 C482 1.383 . S
C477 C484 1.496 . S
C478 C479 1.399 1_556 S
C478 C482 1.389 1_556 S
C479 C478 1.399 1_554 S
C479 C481 1.380 . S
C479 H496 0.929 . S
C480 C477 1.399 . S
C480 C481 1.392 . S
C480 H497 0.929 . S
C481 C479 1.380 . S
C481 C480 1.392 . S
C481 H498 0.929 . S
C482 C477 1.383 . S
C482 C478 1.389 1_554 S
C482 H499 0.931 1_554 S
C483 O468 1.266 . S
C483 O469 1.248 . S
C484 Tb420 2.802 . S
C484 O464 1.264 . S
C484 O467 1.256 . S
C484 C477 1.496 . S
C485 C452 1.448 . S
C485 H462 0.930 . S
C485 C486 1.328 . S
C486 C457 1.427 . S
C486 H463 0.929 . S
C486 C485 1.328 . S
C487 O471 1.264 . S
C487 O472 1.243 . S
C488 C491 1.399 . S
C488 C492 1.383 . S
C488 C495 1.496 1_455 S
C489 C490 1.399 . S
C489 C492 1.389 . S
C490 C489 1.399 . S
C490 C493 1.380 . S
C490 H500 0.929 . S
C491 C488 1.399 . S
C491 C493 1.392 . S
C491 H501 0.929 . S
C492 C488 1.383 . S
C492 C489 1.389 . S
C492 H502 0.931 . S
C493 C490 1.380 . S
C493 C491 1.392 . S
C493 H503 0.929 . S
C494 O474 1.266 . S
C494 O475 1.248 . S
C495 Tb431 2.802 . S
C495 O470 1.264 . S
C495 O473 1.256 . S
C495 C488 1.496 1_655 S
H496 C479 0.929 . S
H497 C480 0.929 . S
H498 C481 0.929 . S
H499 C482 0.931 1_556 S
H500 C490 0.929 . S
H501 C491 0.929 . S
H502 C492 0.931 . S
H503 C493 0.929 . S
Tb504 N533 2.617 . S
Tb504 N539 2.572 . S
Tb504 O548 2.465 . S
Tb504 O549 2.387 . S
Tb504 O551 2.428 . S
Tb504 O552 2.308 . S
Tb504 O556 2.349 . S
Tb504 O559 2.393 . S
Tb504 C568 2.802 . S
C505 N506 1.379 . S
C505 C508 1.416 . S
C505 C512 1.424 . S
N506 C505 1.379 . S
N506 C509 1.334 . S
N506 Tb515 2.617 . S
C507 C509 1.390 1_554 S
C507 C510 1.339 . S
C507 H527 0.930 . S
C508 C505 1.416 . S
C508 C510 1.416 1_556 S
C508 C514 1.448 . S
C509 N506 1.334 . S
C509 C507 1.390 1_556 S
C509 H520 0.930 1_556 S
C510 C507 1.339 . S
C510 C508 1.416 1_554 S
C510 H531 0.930 . S
C511 C512 1.413 . S
C511 C513 1.427 . S
C511 C517 1.416 . S
C512 C505 1.424 . S
C512 C511 1.413 . S
C512 N516 1.361 . S
C513 C511 1.427 . S
C513 C514 1.328 . S
C513 H528 0.929 . S
C514 C508 1.448 . S
C514 C513 1.328 . S
C514 H529 0.930 . S
Tb515 N506 2.617 . S
Tb515 N516 2.572 . S
Tb515 O550 2.349 . S
Tb515 O553 2.393 . S
Tb515 O554 2.465 . S
Tb515 O555 2.387 . S
Tb515 O557 2.428 . S
Tb515 O558 2.308 . S
Tb515 C579 2.802 . S
N516 C512 1.361 . S
N516 Tb515 2.572 . S
N516 C518 1.340 . S
C517 C511 1.416 . S
C517 C519 1.332 . S
C517 H525 0.931 . S
C518 N516 1.340 . S
C518 C519 1.407 . S
C518 H524 0.930 . S
C519 C517 1.332 . S
C519 C518 1.407 . S
C519 H521 0.929 . S
H520 C509 0.930 1_554 S
H521 C519 0.929 . S
H522 C537 0.930 . S
H523 C544 0.929 . S
H524 C518 0.930 . S
H525 C517 0.931 . S
H526 C540 0.930 . S
H527 C507 0.930 . S
H528 C513 0.929 . S
H529 C514 0.930 . S
H530 C535 0.930 . S
H531 C510 0.930 . S
H532 C543 0.931 . S
N533 Tb504 2.617 . S
N533 C534 1.379 . S
N533 C537 1.334 . S
C534 N533 1.379 . S
C534 C536 1.416 . S
C534 C542 1.424 . S
C535 H530 0.930 . S
C535 C537 1.390 . S
C535 C538 1.339 . S
C536 C534 1.416 . S
C536 C538 1.416 . S
C536 C569 1.448 . S
C537 H522 0.930 . S
C537 N533 1.334 . S
C537 C535 1.390 . S
C538 C535 1.339 . S
C538 C536 1.416 . S
C538 H545 0.930 . S
N539 Tb504 2.572 . S
N539 C540 1.340 . S
N539 C542 1.361 . S
C540 H526 0.930 . S
C540 N539 1.340 . S
C540 C544 1.407 . S
C541 C542 1.413 . S
C541 C543 1.416 . S
C541 C570 1.427 . S
C542 C534 1.424 . S
C542 N539 1.361 . S
C542 C541 1.413 . S
C543 H532 0.931 . S
C543 C541 1.416 . S
C543 C544 1.332 . S
C544 H523 0.929 . S
C544 C540 1.407 . S
C544 C543 1.332 . S
H545 C538 0.930 . S
H546 C569 0.930 . S
H547 C570 0.929 . S
O548 Tb504 2.465 . S
O548 C568 1.264 . S
O549 Tb504 2.387 . S
O549 C560 1.264 . S
O550 Tb515 2.349 . S
O550 C560 1.243 . S
O551 Tb504 2.428 . S
O551 C568 1.256 . S
O552 Tb504 2.308 . S
O552 C567 1.266 . S
O553 Tb515 2.393 . S
O553 C567 1.248 . S
O554 Tb515 2.465 . S
O554 C579 1.264 . S
O555 Tb515 2.387 . S
O555 C571 1.264 . S
O556 Tb504 2.349 . S
O556 C571 1.243 . S
O557 Tb515 2.428 . S
O557 C579 1.256 . S
O558 Tb515 2.308 . S
O558 C578 1.266 . S
O559 Tb504 2.393 . S
O559 C578 1.248 . S
C560 O549 1.264 . S
C560 O550 1.243 . S
C561 C564 1.399 . S
C561 C566 1.383 . S
C561 C568 1.496 . S
C562 C563 1.399 . S
C562 C566 1.389 . S
C563 C562 1.399 . S
C563 C565 1.380 . S
C563 H580 0.929 . S
C564 C561 1.399 . S
C564 C565 1.392 . S
C564 H581 0.929 . S
C565 C563 1.380 . S
C565 C564 1.392 . S
C565 H582 0.929 . S
C566 C561 1.383 . S
C566 C562 1.389 . S
C566 H583 0.931 . S
C567 O552 1.266 . S
C567 O553 1.248 . S
C568 Tb504 2.802 . S
C568 O548 1.264 . S
C568 O551 1.256 . S
C568 C561 1.496 . S
C569 C536 1.448 . S
C569 H546 0.930 . S
C569 C570 1.328 . S
C570 C541 1.427 . S
C570 H547 0.929 . S
C570 C569 1.328 . S
C571 O555 1.264 . S
C571 O556 1.243 . S
C572 C575 1.399 . S
C572 C576 1.383 . S
C572 C579 1.496 . S
C573 C574 1.399 1_565 S
C573 C576 1.389 . S
C574 C573 1.399 1_545 S
C574 C577 1.380 1_545 S
C574 H584 0.929 . S
C575 C572 1.399 . S
C575 C577 1.392 . S
C575 H585 0.929 . S
C576 C572 1.383 . S
C576 C573 1.389 . S
C576 H586 0.931 . S
C577 C574 1.380 1_565 S
C577 C575 1.392 . S
C577 H587 0.929 1_565 S
C578 O558 1.266 . S
C578 O559 1.248 . S
C579 Tb515 2.802 . S
C579 O554 1.264 . S
C579 O557 1.256 . S
C579 C572 1.496 . S
H580 C563 0.929 . S
H581 C564 0.929 . S
H582 C565 0.929 . S
H583 C566 0.931 . S
H584 C574 0.929 . S
H585 C575 0.929 . S
H586 C576 0.931 . S
H587 C577 0.929 1_545 S
Tb588 N617 2.617 . S
Tb588 N623 2.572 . S
Tb588 O632 2.465 . S
Tb588 O633 2.387 . S
Tb588 O635 2.428 . S
Tb588 O636 2.308 . S
Tb588 O640 2.349 . S
Tb588 O643 2.393 1_556 S
Tb588 C652 2.802 . S
C589 N590 1.379 . S
C589 C592 1.416 . S
C589 C596 1.424 . S
N590 C589 1.379 . S
N590 C593 1.334 . S
N590 Tb599 2.617 . S
C591 C593 1.390 . S
C591 C594 1.339 . S
C591 H611 0.930 . S
C592 C589 1.416 . S
C592 C594 1.416 . S
C592 C598 1.448 . S
C593 N590 1.334 . S
C593 C591 1.390 . S
C593 H604 0.930 . S
C594 C591 1.339 . S
C594 C592 1.416 . S
C594 H615 0.930 . S
C595 C596 1.413 . S
C595 C597 1.427 . S
C595 C601 1.416 1_556 S
C596 C589 1.424 . S
C596 C595 1.413 . S
C596 N600 1.361 . S
C597 C595 1.427 . S
C597 C598 1.328 . S
C597 H612 0.929 . S
C598 C592 1.448 . S
C598 C597 1.328 . S
C598 H613 0.930 . S
Tb599 N590 2.617 . S
Tb599 N600 2.572 . S
Tb599 O634 2.349 . S
Tb599 O637 2.393 . S
Tb599 O638 2.465 . S
Tb599 O639 2.387 . S
Tb599 O641 2.428 . S
Tb599 O642 2.308 . S
Tb599 C663 2.802 . S
N600 C596 1.361 . S
N600 Tb599 2.572 . S
N600 C602 1.340 1_556 S
C601 C595 1.416 1_554 S
C601 C603 1.332 . S
C601 H609 0.931 . S
C602 N600 1.340 1_554 S
C602 C603 1.407 . S
C602 H608 0.930 . S
C603 C601 1.332 . S
C603 C602 1.407 . S
C603 H605 0.929 . S
H604 C593 0.930 . S
H605 C603 0.929 . S
H606 C621 0.930 . S
H607 C628 0.929 . S
H608 C602 0.930 . S
H609 C601 0.931 . S
H610 C624 0.930 . S
H611 C591 0.930 . S
H612 C597 0.929 . S
H613 C598 0.930 . S
H614 C619 0.930 . S
H615 C594 0.930 . S
H616 C627 0.931 . S
N617 Tb588 2.617 . S
N617 C618 1.379 . S
N617 C621 1.334 1_556 S
C618 N617 1.379 . S
C618 C620 1.416 . S
C618 C626 1.424 . S
C619 H614 0.930 . S
C619 C621 1.390 . S
C619 C622 1.339 . S
C620 C618 1.416 . S
C620 C622 1.416 1_556 S
C620 C653 1.448 . S
C621 H606 0.930 . S
C621 N617 1.334 1_554 S
C621 C619 1.390 . S
C622 C619 1.339 . S
C622 C620 1.416 1_554 S
C622 H629 0.930 . S
N623 Tb588 2.572 . S
N623 C624 1.340 . S
N623 C626 1.361 . S
C624 H610 0.930 . S
C624 N623 1.340 . S
C624 C628 1.407 . S
C625 C626 1.413 . S
C625 C627 1.416 . S
C625 C654 1.427 . S
C626 C618 1.424 . S
C626 N623 1.361 . S
C626 C625 1.413 . S
C627 H616 0.931 . S
C627 C625 1.416 . S
C627 C628 1.332 . S
C628 H607 0.929 . S
C628 C624 1.407 . S
C628 C627 1.332 . S
H629 C622 0.930 . S
H630 C653 0.930 . S
H631 C654 0.929 . S
O632 Tb588 2.465 . S
O632 C652 1.264 . S
O633 Tb588 2.387 . S
O633 C644 1.264 . S
O634 Tb599 2.349 . S
O634 C644 1.243 . S
O635 Tb588 2.428 . S
O635 C652 1.256 . S
O636 Tb588 2.308 . S
O636 C651 1.266 . S
O637 Tb599 2.393 . S
O637 C651 1.248 . S
O638 Tb599 2.465 . S
O638 C663 1.264 . S
O639 Tb599 2.387 . S
O639 C655 1.264 . S
O640 Tb588 2.349 . S
O640 C655 1.243 . S
O641 Tb599 2.428 . S
O641 C663 1.256 . S
O642 Tb599 2.308 . S
O642 C662 1.266 1_556 S
O643 Tb588 2.393 1_554 S
O643 C662 1.248 . S
C644 O633 1.264 . S
C644 O634 1.243 . S
C645 C648 1.399 . S
C645 C650 1.383 . S
C645 C652 1.496 . S
C646 C647 1.399 . S
C646 C650 1.389 . S
C647 C646 1.399 . S
C647 C649 1.380 . S
C647 H664 0.929 . S
C648 C645 1.399 . S
C648 C649 1.392 . S
C648 H665 0.929 . S
C649 C647 1.380 . S
C649 C648 1.392 . S
C649 H666 0.929 . S
C650 C645 1.383 . S
C650 C646 1.389 . S
C650 H667 0.931 . S
C651 O636 1.266 . S
C651 O637 1.248 . S
C652 Tb588 2.802 . S
C652 O632 1.264 . S
C652 O635 1.256 . S
C652 C645 1.496 . S
C653 C620 1.448 . S
C653 H630 0.930 . S
C653 C654 1.328 . S
C654 C625 1.427 . S
C654 H631 0.929 . S
C654 C653 1.328 . S
C655 O639 1.264 . S
C655 O640 1.243 . S
C656 C659 1.399 . S
C656 C660 1.383 . S
C656 C663 1.496 . S
C657 C658 1.399 . S
C657 C660 1.389 . S
C658 C657 1.399 . S
C658 C661 1.380 . S
C658 H668 0.929 . S
C659 C656 1.399 . S
C659 C661 1.392 . S
C659 H669 0.929 . S
C660 C656 1.383 . S
C660 C657 1.389 . S
C660 H670 0.931 . S
C661 C658 1.380 . S
C661 C659 1.392 . S
C661 H671 0.929 . S
C662 O642 1.266 1_554 S
C662 O643 1.248 . S
C663 Tb599 2.802 . S
C663 O638 1.264 . S
C663 O641 1.256 . S
C663 C656 1.496 . S
H664 C647 0.929 . S
H665 C648 0.929 . S
H666 C649 0.929 . S
H667 C650 0.931 . S
H668 C658 0.929 . S
H669 C659 0.929 . S
H670 C660 0.931 . S
H671 C661 0.929 . S
Tb672 N701 2.617 . S
Tb672 N707 2.572 . S
Tb672 O716 2.465 . S
Tb672 O717 2.387 . S
Tb672 O719 2.428 . S
Tb672 O720 2.308 . S
Tb672 O724 2.349 . S
Tb672 O727 2.393 . S
Tb672 C736 2.802 . S
C673 N674 1.379 . S
C673 C676 1.416 . S
C673 C680 1.424 . S
N674 C673 1.379 . S
N674 C677 1.334 1_556 S
N674 Tb683 2.617 . S
C675 C677 1.390 . S
C675 C678 1.339 . S
C675 H695 0.930 . S
C676 C673 1.416 . S
C676 C678 1.416 1_556 S
C676 C682 1.448 . S
C677 N674 1.334 1_554 S
C677 C675 1.390 . S
C677 H688 0.930 . S
C678 C675 1.339 . S
C678 C676 1.416 1_554 S
C678 H699 0.930 . S
C679 C680 1.413 . S
C679 C681 1.427 . S
C679 C685 1.416 . S
C680 C673 1.424 . S
C680 C679 1.413 . S
C680 N684 1.361 . S
C681 C679 1.427 . S
C681 C682 1.328 . S
C681 H696 0.929 . S
C682 C676 1.448 . S
C682 C681 1.328 . S
C682 H697 0.930 . S
Tb683 N674 2.617 . S
Tb683 N684 2.572 . S
Tb683 O718 2.349 . S
Tb683 O721 2.393 . S
Tb683 O722 2.465 . S
Tb683 O723 2.387 . S
Tb683 O725 2.428 . S
Tb683 O726 2.308 . S
Tb683 C747 2.802 . S
N684 C680 1.361 . S
N684 Tb683 2.572 . S
N684 C686 1.340 . S
C685 C679 1.416 . S
C685 C687 1.332 . S
C685 H693 0.931 . S
C686 N684 1.340 . S
C686 C687 1.407 . S
C686 H692 0.930 . S
C687 C685 1.332 . S
C687 C686 1.407 . S
C687 H689 0.929 . S
H688 C677 0.930 . S
H689 C687 0.929 . S
H690 C705 0.930 . S
H691 C712 0.929 . S
H692 C686 0.930 . S
H693 C685 0.931 . S
H694 C708 0.930 . S
H695 C675 0.930 . S
H696 C681 0.929 . S
H697 C682 0.930 . S
H698 C703 0.930 . S
H699 C678 0.930 . S
H700 C711 0.931 . S
N701 Tb672 2.617 . S
N701 C702 1.379 . S
N701 C705 1.334 . S
C702 N701 1.379 . S
C702 C704 1.416 . S
C702 C710 1.424 . S
C703 H698 0.930 . S
C703 C705 1.390 . S
C703 C706 1.339 . S
C704 C702 1.416 . S
C704 C706 1.416 . S
C704 C737 1.448 . S
C705 H690 0.930 . S
C705 N701 1.334 . S
C705 C703 1.390 . S
C706 C703 1.339 . S
C706 C704 1.416 . S
C706 H713 0.930 . S
N707 Tb672 2.572 . S
N707 C708 1.340 1_556 S
N707 C710 1.361 . S
C708 H694 0.930 . S
C708 N707 1.340 1_554 S
C708 C712 1.407 . S
C709 C710 1.413 . S
C709 C711 1.416 1_556 S
C709 C738 1.427 . S
C710 C702 1.424 . S
C710 N707 1.361 . S
C710 C709 1.413 . S
C711 H700 0.931 . S
C711 C709 1.416 1_554 S
C711 C712 1.332 . S
C712 H691 0.929 . S
C712 C708 1.407 . S
C712 C711 1.332 . S
H713 C706 0.930 . S
H714 C737 0.930 . S
H715 C738 0.929 . S
O716 Tb672 2.465 . S
O716 C736 1.264 . S
O717 Tb672 2.387 . S
O717 C728 1.264 . S
O718 Tb683 2.349 . S
O718 C728 1.243 . S
O719 Tb672 2.428 . S
O719 C736 1.256 . S
O720 Tb672 2.308 . S
O720 C735 1.266 1_556 S
O721 Tb683 2.393 . S
O721 C735 1.248 1_556 S
O722 Tb683 2.465 . S
O722 C747 1.264 . S
O723 Tb683 2.387 . S
O723 C739 1.264 . S
O724 Tb672 2.349 . S
O724 C739 1.243 . S
O725 Tb683 2.428 . S
O725 C747 1.256 . S
O726 Tb683 2.308 . S
O726 C746 1.266 . S
O727 Tb672 2.393 . S
O727 C746 1.248 . S
C728 O717 1.264 . S
C728 O718 1.243 . S
C729 C732 1.399 . S
C729 C734 1.383 . S
C729 C736 1.496 . S
C730 C731 1.399 . S
C730 C734 1.389 . S
C731 C730 1.399 . S
C731 C733 1.380 . S
C731 H748 0.929 . S
C732 C729 1.399 . S
C732 C733 1.392 . S
C732 H749 0.929 . S
C733 C731 1.380 . S
C733 C732 1.392 . S
C733 H750 0.929 . S
C734 C729 1.383 . S
C734 C730 1.389 . S
C734 H751 0.931 1_556 S
C735 O720 1.266 1_554 S
C735 O721 1.248 1_554 S
C736 Tb672 2.802 . S
C736 O716 1.264 . S
C736 O719 1.256 . S
C736 C729 1.496 . S
C737 C704 1.448 . S
C737 H714 0.930 . S
C737 C738 1.328 . S
C738 C709 1.427 . S
C738 H715 0.929 . S
C738 C737 1.328 . S
C739 O723 1.264 . S
C739 O724 1.243 . S
C740 C743 1.399 . S
C740 C744 1.383 . S
C740 C747 1.496 . S
C741 C742 1.399 . S
C741 C744 1.389 . S
C742 C741 1.399 . S
C742 C745 1.380 . S
C742 H752 0.929 . S
C743 C740 1.399 . S
C743 C745 1.392 . S
C743 H753 0.929 . S
C744 C740 1.383 . S
C744 C741 1.389 . S
C744 H754 0.931 . S
C745 C742 1.380 . S
C745 C743 1.392 . S
C745 H755 0.929 . S
C746 O726 1.266 . S
C746 O727 1.248 . S
C747 Tb683 2.802 . S
C747 O722 1.264 . S
C747 O725 1.256 . S
C747 C740 1.496 . S
H748 C731 0.929 . S
H749 C732 0.929 . S
H750 C733 0.929 . S
H751 C734 0.931 1_554 S
H752 C742 0.929 . S
H753 C743 0.929 . S
H754 C744 0.931 . S
H755 C745 0.929 . S
H756 C764 0.950 . S
H757 C769 0.950 . S
H758 C766 0.950 1_556 S
H759 C768 0.950 . S
H760 C770 0.949 1_554 S
H761 C772 0.950 . S
H762 C774 0.950 . S
H763 C775 0.950 . S
C764 H756 0.950 . S
C764 C765 1.386 . S
C764 C766 1.391 . S
C765 C764 1.386 . S
C765 C769 1.393 . S
C766 H758 0.950 1_554 S
C766 C764 1.391 . S
C766 C767 1.400 . S
C767 C766 1.400 . S
C767 C768 1.398 . S
C767 C773 1.491 . S
C768 H759 0.950 . S
C768 C767 1.398 . S
C768 C769 1.391 . S
C769 H757 0.950 . S
C769 C765 1.393 . S
C769 C768 1.391 . S
C770 H760 0.949 1_556 S
C770 C771 1.387 . S
C770 C772 1.390 1_556 S
C771 C770 1.387 . S
C771 C775 1.393 . S
C772 H761 0.950 . S
C772 C770 1.390 1_554 S
C772 C773 1.400 . S
C773 C767 1.491 . S
C773 C772 1.400 . S
C773 C774 1.398 1_554 S
C774 H762 0.950 . S
C774 C773 1.398 1_556 S
C774 C775 1.391 . S
C775 H763 0.950 . S
C775 C771 1.393 . S
C775 C774 1.391 . S
H776 C784 0.950 . S
H777 C789 0.950 . S
H778 C786 0.950 . S
H779 C788 0.950 . S
H780 C790 0.950 . S
H781 C792 0.950 . S
H782 C794 0.950 1_554 S
H783 C795 0.950 . S
C784 H776 0.950 . S
C784 C785 1.386 . S
C784 C786 1.391 . S
C785 C784 1.386 . S
C785 C789 1.393 1_554 S
C786 H778 0.950 . S
C786 C784 1.391 . S
C786 C787 1.400 1_554 S
C787 C786 1.400 1_556 S
C787 C788 1.398 . S
C787 C793 1.491 . S
C788 H779 0.950 . S
C788 C787 1.398 . S
C788 C789 1.391 . S
C789 H777 0.950 . S
C789 C785 1.393 1_556 S
C789 C788 1.391 . S
C790 H780 0.950 . S
C790 C791 1.386 . S
C790 C792 1.391 . S
C791 C790 1.386 . S
C791 C795 1.393 . S
C792 H781 0.950 . S
C792 C790 1.391 . S
C792 C793 1.400 . S
C793 C787 1.491 . S
C793 C792 1.400 . S
C793 C794 1.398 . S
C794 H782 0.950 1_556 S
C794 C793 1.398 . S
C794 C795 1.391 . S
C795 H783 0.950 . S
C795 C791 1.393 . S
C795 C794 1.391 . S
H796 C804 0.950 . S
H797 C809 0.950 . S
H798 C806 0.950 . S
H799 C808 0.950 . S
H800 C810 0.950 . S
H801 C812 0.950 . S
H802 C814 0.950 . S
H803 C815 0.950 . S
C804 H796 0.950 . S
C804 C805 1.386 . S
C804 C806 1.391 . S
C805 C804 1.386 . S
C805 C809 1.393 . S
C806 H798 0.950 . S
C806 C804 1.391 . S
C806 C807 1.400 . S
C807 C806 1.400 . S
C807 C808 1.398 . S
C807 C813 1.491 . S
C808 H799 0.950 . S
C808 C807 1.398 . S
C808 C809 1.391 . S
C809 H797 0.950 . S
C809 C805 1.393 . S
C809 C808 1.391 . S
C810 H800 0.950 . S
C810 C811 1.386 . S
C810 C812 1.391 . S
C811 C810 1.386 . S
C811 C815 1.393 . S
C812 H801 0.950 . S
C812 C810 1.391 . S
C812 C813 1.400 . S
C813 C807 1.491 . S
C813 C812 1.400 . S
C813 C814 1.398 . S
C814 H802 0.950 . S
C814 C813 1.398 . S
C814 C815 1.391 . S
C815 H803 0.950 . S
C815 C811 1.393 . S
C815 C814 1.391 . S
H816 C824 0.950 . S
H817 C829 0.950 . S
H818 C826 0.950 . S
H819 C828 0.950 . S
H820 C830 0.950 . S
H821 C832 0.950 . S
H822 C834 0.950 . S
H823 C835 0.950 . S
C824 H816 0.950 . S
C824 C825 1.386 1_556 S
C824 C826 1.391 . S
C825 C824 1.386 1_554 S
C825 C829 1.393 . S
C826 H818 0.950 . S
C826 C824 1.391 . S
C826 C827 1.400 1_556 S
C827 C826 1.400 1_554 S
C827 C828 1.398 . S
C827 C833 1.491 . S
C828 H819 0.950 . S
C828 C827 1.398 . S
C828 C829 1.391 . S
C829 H817 0.950 . S
C829 C825 1.393 . S
C829 C828 1.391 . S
C830 H820 0.950 . S
C830 C831 1.386 . S
C830 C832 1.391 . S
C831 C830 1.386 . S
C831 C835 1.393 1_554 S
C832 H821 0.950 . S
C832 C830 1.391 . S
C832 C833 1.400 . S
C833 C827 1.491 . S
C833 C832 1.400 . S
C833 C834 1.398 1_554 S
C834 H822 0.950 . S
C834 C833 1.398 1_556 S
C834 C835 1.391 . S
C835 H823 0.950 . S
C835 C831 1.393 1_556 S
C835 C834 1.391 . S
H836 C844 0.950 . S
H837 C849 0.950 . S
H838 C846 0.950 . S
H839 C848 0.950 . S
H840 C850 0.950 . S
H841 C852 0.950 . S
H842 C854 0.950 . S
H843 C855 0.950 . S
C844 H836 0.950 . S
C844 C845 1.386 . S
C844 C846 1.391 . S
C845 C844 1.386 . S
C845 C849 1.393 . S
C846 H838 0.950 . S
C846 C844 1.391 . S
C846 C847 1.400 . S
C847 C846 1.400 . S
C847 C848 1.398 . S
C847 C853 1.491 . S
C848 H839 0.950 . S
C848 C847 1.398 . S
C848 C849 1.391 . S
C849 H837 0.950 . S
C849 C845 1.393 . S
C849 C848 1.391 . S
C850 H840 0.950 . S
C850 C851 1.386 1_655 S
C850 C852 1.391 . S
C851 C850 1.386 1_455 S
C851 C855 1.393 . S
C852 H841 0.950 . S
C852 C850 1.391 . S
C852 C853 1.400 . S
C853 C847 1.491 . S
C853 C852 1.400 . S
C853 C854 1.398 1_655 S
C854 H842 0.950 . S
C854 C853 1.398 1_455 S
C854 C855 1.391 . S
C855 H843 0.950 . S
C855 C851 1.393 . S
C855 C854 1.391 . S
H856 C864 0.950 . S
H857 C869 0.950 . S
H858 C866 0.950 . S
H859 C868 0.950 . S
H860 C870 0.950 . S
H861 C872 0.950 . S
H862 C874 0.950 . S
H863 C875 0.950 . S
C864 H856 0.950 . S
C864 C865 1.386 . S
C864 C866 1.391 . S
C865 C864 1.386 . S
C865 C869 1.393 . S
C866 H858 0.950 . S
C866 C864 1.391 . S
C866 C867 1.400 . S
C867 C866 1.400 . S
C867 C868 1.398 . S
C867 C873 1.491 . S
C868 H859 0.950 . S
C868 C867 1.398 . S
C868 C869 1.391 . S
C869 H857 0.950 . S
C869 C865 1.393 . S
C869 C868 1.391 . S
C870 H860 0.950 . S
C870 C871 1.386 . S
C870 C872 1.391 . S
C871 C870 1.386 . S
C871 C875 1.393 . S
C872 H861 0.950 . S
C872 C870 1.391 . S
C872 C873 1.400 . S
C873 C867 1.491 . S
C873 C872 1.400 . S
C873 C874 1.398 . S
C874 H862 0.950 . S
C874 C873 1.398 . S
C874 C875 1.391 . S
C875 H863 0.950 . S
C875 C871 1.393 . S
C875 C874 1.391 . S
H876 C884 0.950 . S
H877 C889 0.950 . S
H878 C886 0.950 . S
H879 C888 0.950 . S
H880 C890 0.950 . S
H881 C892 0.950 . S
H882 C894 0.950 . S
H883 C895 0.950 . S
C884 H876 0.950 . S
C884 C885 1.386 . S
C884 C886 1.391 . S
C885 C884 1.386 . S
C885 C889 1.393 . S
C886 H878 0.950 . S
C886 C884 1.391 . S
C886 C887 1.400 . S
C887 C886 1.400 . S
C887 C888 1.398 . S
C887 C893 1.491 . S
C888 H879 0.950 . S
C888 C887 1.398 . S
C888 C889 1.391 . S
C889 H877 0.950 . S
C889 C885 1.393 . S
C889 C888 1.391 . S
C890 H880 0.950 . S
C890 C891 1.386 . S
C890 C892 1.391 . S
C891 C890 1.386 . S
C891 C895 1.393 . S
C892 H881 0.950 . S
C892 C890 1.391 . S
C892 C893 1.400 . S
C893 C887 1.491 . S
C893 C892 1.400 . S
C893 C894 1.398 . S
C894 H882 0.950 . S
C894 C893 1.398 . S
C894 C895 1.391 . S
C895 H883 0.950 . S
C895 C891 1.393 . S
C895 C894 1.391 . S
H896 C904 0.950 . S
H897 C909 0.950 . S
H898 C906 0.950 . S
H899 C908 0.950 . S
H900 C910 0.950 . S
H901 C912 0.950 . S
H902 C914 0.950 . S
H903 C915 0.950 . S
C904 H896 0.950 . S
C904 C905 1.386 . S
C904 C906 1.391 . S
C905 C904 1.386 . S
C905 C909 1.393 . S
C906 H898 0.950 . S
C906 C904 1.391 . S
C906 C907 1.400 . S
C907 C906 1.400 . S
C907 C908 1.398 . S
C907 C913 1.491 . S
C908 H899 0.950 . S
C908 C907 1.398 . S
C908 C909 1.391 . S
C909 H897 0.950 . S
C909 C905 1.393 . S
C909 C908 1.391 . S
C910 H900 0.950 . S
C910 C911 1.386 . S
C910 C912 1.391 . S
C911 C910 1.386 . S
C911 C915 1.393 . S
C912 H901 0.950 . S
C912 C910 1.391 . S
C912 C913 1.400 . S
C913 C907 1.491 . S
C913 C912 1.400 . S
C913 C914 1.398 . S
C914 H902 0.950 . S
C914 C913 1.398 . S
C914 C915 1.391 . S
C915 H903 0.950 . S
C915 C911 1.393 . S
C915 C914 1.391 . S
H916 C924 0.950 . S
H917 C929 0.950 . S
H918 C926 0.950 . S
H919 C928 0.950 . S
H920 C930 0.950 . S
H921 C932 0.950 1_565 S
H922 C934 0.950 . S
H923 C935 0.950 . S
C924 H916 0.950 . S
C924 C925 1.386 . S
C924 C926 1.391 . S
C925 C924 1.386 . S
C925 C929 1.393 . S
C926 H918 0.950 . S
C926 C924 1.391 . S
C926 C927 1.400 . S
C927 C926 1.400 . S
C927 C928 1.398 . S
C927 C933 1.491 . S
C928 H919 0.950 . S
C928 C927 1.398 . S
C928 C929 1.391 . S
C929 H917 0.950 . S
C929 C925 1.393 . S
C929 C928 1.391 . S
C930 H920 0.950 . S
C930 C931 1.386 . S
C930 C932 1.391 1_565 S
C931 C930 1.386 . S
C931 C935 1.393 1_565 S
C932 H921 0.950 1_545 S
C932 C930 1.391 1_545 S
C932 C933 1.400 . S
C933 C927 1.491 . S
C933 C932 1.400 . S
C933 C934 1.398 . S
C934 H922 0.950 . S
C934 C933 1.398 . S
C934 C935 1.391 . S
C935 H923 0.950 . S
C935 C931 1.393 1_545 S
C935 C934 1.391 . S
H936 C944 0.950 . S
H937 C949 0.950 . S
H938 C946 0.950 . S
H939 C948 0.950 . S
H940 C950 0.950 . S
H941 C952 0.950 . S
H942 C954 0.950 . S
H943 C955 0.950 . S
C944 H936 0.950 . S
C944 C945 1.386 . S
C944 C946 1.391 . S
C945 C944 1.386 . S
C945 C949 1.393 . S
C946 H938 0.950 . S
C946 C944 1.391 . S
C946 C947 1.400 . S
C947 C946 1.400 . S
C947 C948 1.398 . S
C947 C953 1.491 . S
C948 H939 0.950 . S
C948 C947 1.398 . S
C948 C949 1.391 . S
C949 H937 0.950 . S
C949 C945 1.393 . S
C949 C948 1.391 . S
C950 H940 0.950 . S
C950 C951 1.386 . S
C950 C952 1.391 . S
C951 C950 1.386 . S
C951 C955 1.393 . S
C952 H941 0.950 . S
C952 C950 1.391 . S
C952 C953 1.400 . S
C953 C947 1.491 . S
C953 C952 1.400 . S
C953 C954 1.398 . S
C954 H942 0.950 . S
C954 C953 1.398 . S
C954 C955 1.391 . S
C955 H943 0.950 . S
C955 C951 1.393 . S
C955 C954 1.391 . S
H956 C964 0.950 . S
H957 C969 0.950 . S
H958 C966 0.950 . S
H959 C968 0.950 1_556 S
H960 C970 0.950 . S
H961 C972 0.950 . S
H962 C974 0.950 . S
H963 C975 0.950 . S
C964 H956 0.950 . S
C964 C965 1.386 . S
C964 C966 1.391 . S
C965 C964 1.386 . S
C965 C969 1.393 1_554 S
C966 H958 0.950 . S
C966 C964 1.391 . S
C966 C967 1.400 . S
C967 C966 1.400 . S
C967 C968 1.398 . S
C967 C973 1.491 1_565 S
C968 H959 0.950 1_554 S
C968 C967 1.398 . S
C968 C969 1.391 1_554 S
C969 H957 0.950 . S
C969 C965 1.393 1_556 S
C969 C968 1.391 1_556 S
C970 H960 0.950 . S
C970 C971 1.386 . S
C970 C972 1.391 . S
C971 C970 1.386 . S
C971 C975 1.393 . S
C972 H961 0.950 . S
C972 C970 1.391 . S
C972 C973 1.400 . S
C973 C967 1.491 1_545 S
C973 C972 1.400 . S
C973 C974 1.398 . S
C974 H962 0.950 . S
C974 C973 1.398 . S
C974 C975 1.391 . S
C975 H963 0.950 . S
C975 C971 1.393 . S
C975 C974 1.391 . S
H976 C984 0.950 1_556 S
H977 C989 0.950 . S
H978 C986 0.950 1_556 S
H979 C988 0.950 . S
H980 C990 0.950 . S
H981 C992 0.950 . S
H982 C994 0.950 . S
H983 C995 0.950 . S
C984 H976 0.950 1_554 S
C984 C985 1.386 . S
C984 C986 1.391 1_655 S
C985 C984 1.386 . S
C985 C989 1.393 1_655 S
C986 H978 0.950 1_554 S
C986 C984 1.391 1_455 S
C986 C987 1.400 . S
C987 C986 1.400 . S
C987 C988 1.398 . S
C987 C993 1.491 . S
C988 H979 0.950 . S
C988 C987 1.398 . S
C988 C989 1.391 . S
C989 H977 0.950 . S
C989 C985 1.393 1_455 S
C989 C988 1.391 . S
C990 H980 0.950 . S
C990 C991 1.386 . S
C990 C992 1.391 . S
C991 C990 1.386 . S
C991 C995 1.393 1_554 S
C992 H981 0.950 . S
C992 C990 1.391 . S
C992 C993 1.400 . S
C993 C987 1.491 . S
C993 C992 1.400 . S
C993 C994 1.398 1_554 S
C994 H982 0.950 . S
C994 C993 1.398 1_556 S
C994 C995 1.391 . S
C995 H983 0.950 . S
C995 C991 1.393 1_556 S
C995 C994 1.391 . S
H996 C1004 0.950 . S
H997 C1009 0.950 . S
H998 C1006 0.950 1_556 S
H999 C1008 0.950 . S
H1000 C1010 0.950 . S
H1001 C1012 0.950 . S
H1002 C1014 0.950 . S
H1003 C1015 0.950 . S
C1004 H996 0.950 . S
C1004 C1005 1.386 1_556 S
C1004 C1006 1.391 1_556 S
C1005 C1004 1.386 1_554 S
C1005 C1009 1.393 . S
C1006 H998 0.950 1_554 S
C1006 C1004 1.391 1_554 S
C1006 C1007 1.400 . S
C1007 C1006 1.400 . S
C1007 C1008 1.398 . S
C1007 C1013 1.491 . S
C1008 H999 0.950 . S
C1008 C1007 1.398 . S
C1008 C1009 1.391 . S
C1009 H997 0.950 . S
C1009 C1005 1.393 . S
C1009 C1008 1.391 . S
C1010 H1000 0.950 . S
C1010 C1011 1.386 . S
C1010 C1012 1.391 . S
C1011 C1010 1.386 . S
C1011 C1015 1.393 . S
C1012 H1001 0.950 . S
C1012 C1010 1.391 . S
C1012 C1013 1.400 . S
C1013 C1007 1.491 . S
C1013 C1012 1.400 . S
C1013 C1014 1.398 . S
C1014 H1002 0.950 . S
C1014 C1013 1.398 . S
C1014 C1015 1.391 . S
C1015 H1003 0.950 . S
C1015 C1011 1.393 . S
C1015 C1014 1.391 . S
H1016 C1024 0.950 . S
H1017 C1029 0.950 . S
H1018 C1026 0.950 . S
H1019 C1028 0.950 . S
H1020 C1030 0.950 . S
H1021 C1032 0.950 . S
H1022 C1034 0.950 . S
H1023 C1035 0.950 . S
C1024 H1016 0.950 . S
C1024 C1025 1.386 . S
C1024 C1026 1.391 . S
C1025 C1024 1.386 . S
C1025 C1029 1.393 . S
C1026 H1018 0.950 . S
C1026 C1024 1.391 . S
C1026 C1027 1.400 . S
C1027 C1026 1.400 . S
C1027 C1028 1.398 . S
C1027 C1033 1.491 . S
C1028 H1019 0.950 . S
C1028 C1027 1.398 . S
C1028 C1029 1.391 . S
C1029 H1017 0.950 . S
C1029 C1025 1.393 . S
C1029 C1028 1.391 . S
C1030 H1020 0.950 . S
C1030 C1031 1.386 1_554 S
C1030 C1032 1.391 . S
C1031 C1030 1.386 1_556 S
C1031 C1035 1.393 . S
C1032 H1021 0.950 . S
C1032 C1030 1.391 . S
C1032 C1033 1.400 . S
C1033 C1027 1.491 . S
C1033 C1032 1.400 . S
C1033 C1034 1.398 1_554 S
C1034 H1022 0.950 . S
C1034 C1033 1.398 1_556 S
C1034 C1035 1.391 . S
C1035 H1023 0.950 . S
C1035 C1031 1.393 . S
C1035 C1034 1.391 . S
H1036 C1044 0.950 . S
H1037 C1049 0.950 . S
H1038 C1046 0.950 . S
H1039 C1048 0.950 . S
H1040 C1050 0.950 . S
H1041 C1052 0.950 . S
H1042 C1054 0.950 . S
H1043 C1055 0.950 . S
C1044 H1036 0.950 . S
C1044 C1045 1.386 . S
C1044 C1046 1.391 . S
C1045 C1044 1.386 . S
C1045 C1049 1.393 . S
C1046 H1038 0.950 . S
C1046 C1044 1.391 . S
C1046 C1047 1.400 . S
C1047 C1046 1.400 . S
C1047 C1048 1.398 . S
C1047 C1053 1.491 . S
C1048 H1039 0.950 . S
C1048 C1047 1.398 . S
C1048 C1049 1.391 . S
C1049 H1037 0.950 . S
C1049 C1045 1.393 . S
C1049 C1048 1.391 . S
C1050 H1040 0.950 . S
C1050 C1051 1.386 . S
C1050 C1052 1.391 . S
C1051 C1050 1.386 . S
C1051 C1055 1.393 . S
C1052 H1041 0.950 . S
C1052 C1050 1.391 . S
C1052 C1053 1.400 1_556 S
C1053 C1047 1.491 . S
C1053 C1052 1.400 1_554 S
C1053 C1054 1.398 . S
C1054 H1042 0.950 . S
C1054 C1053 1.398 . S
C1054 C1055 1.391 1_554 S
C1055 H1043 0.950 . S
C1055 C1051 1.393 . S
C1055 C1054 1.391 1_556 S
H1056 C1064 0.950 . S
H1057 C1069 0.950 . S
H1058 C1066 0.950 . S
H1059 C1068 0.950 . S
H1060 C1070 0.950 . S
H1061 C1072 0.950 . S
H1062 C1074 0.950 . S
H1063 C1075 0.950 . S
C1064 H1056 0.950 . S
C1064 C1065 1.386 . S
C1064 C1066 1.391 . S
C1065 C1064 1.386 . S
C1065 C1069 1.393 . S
C1066 H1058 0.950 . S
C1066 C1064 1.391 . S
C1066 C1067 1.400 . S
C1067 C1066 1.400 . S
C1067 C1068 1.398 . S
C1067 C1073 1.491 . S
C1068 H1059 0.950 . S
C1068 C1067 1.398 . S
C1068 C1069 1.391 . S
C1069 H1057 0.950 . S
C1069 C1065 1.393 . S
C1069 C1068 1.391 . S
C1070 H1060 0.950 . S
C1070 C1071 1.386 . S
C1070 C1072 1.391 . S
C1071 C1070 1.386 . S
C1071 C1075 1.393 . S
C1072 H1061 0.950 . S
C1072 C1070 1.391 . S
C1072 C1073 1.400 . S
C1073 C1067 1.491 . S
C1073 C1072 1.400 . S
C1073 C1074 1.398 . S
C1074 H1062 0.950 . S
C1074 C1073 1.398 . S
C1074 C1075 1.391 . S
C1075 H1063 0.950 . S
C1075 C1071 1.393 . S
C1075 C1074 1.391 . S
H1076 C1084 0.950 . S
H1077 C1089 0.950 . S
H1078 C1086 0.950 . S
H1079 C1088 0.950 . S
H1080 C1090 0.950 . S
H1081 C1092 0.950 . S
H1082 C1094 0.950 . S
H1083 C1095 0.950 . S
C1084 H1076 0.950 . S
C1084 C1085 1.386 . S
C1084 C1086 1.391 . S
C1085 C1084 1.386 . S
C1085 C1089 1.393 . S
C1086 H1078 0.950 . S
C1086 C1084 1.391 . S
C1086 C1087 1.400 . S
C1087 C1086 1.400 . S
C1087 C1088 1.398 . S
C1087 C1093 1.491 . S
C1088 H1079 0.950 . S
C1088 C1087 1.398 . S
C1088 C1089 1.391 . S
C1089 H1077 0.950 . S
C1089 C1085 1.393 . S
C1089 C1088 1.391 . S
C1090 H1080 0.950 . S
C1090 C1091 1.386 . S
C1090 C1092 1.391 . S
C1091 C1090 1.386 . S
C1091 C1095 1.393 . S
C1092 H1081 0.950 . S
C1092 C1090 1.391 . S
C1092 C1093 1.400 . S
C1093 C1087 1.491 . S
C1093 C1092 1.400 . S
C1093 C1094 1.398 . S
C1094 H1082 0.950 . S
C1094 C1093 1.398 . S
C1094 C1095 1.391 . S
C1095 H1083 0.950 . S
C1095 C1091 1.393 . S
C1095 C1094 1.391 . S
H1096 C1104 0.950 . S
H1097 C1109 0.950 . S
H1098 C1106 0.950 . S
H1099 C1108 0.950 . S
H1100 C1110 0.950 1_554 S
H1101 C1112 0.950 . S
H1102 C1114 0.950 . S
H1103 C1115 0.950 . S
C1104 H1096 0.950 . S
C1104 C1105 1.386 . S
C1104 C1106 1.391 . S
C1105 C1104 1.386 . S
C1105 C1109 1.393 . S
C1106 H1098 0.950 . S
C1106 C1104 1.391 . S
C1106 C1107 1.400 . S
C1107 C1106 1.400 . S
C1107 C1108 1.398 . S
C1107 C1113 1.491 . S
C1108 H1099 0.950 . S
C1108 C1107 1.398 . S
C1108 C1109 1.391 . S
C1109 H1097 0.950 . S
C1109 C1105 1.393 . S
C1109 C1108 1.391 . S
C1110 H1100 0.950 1_556 S
C1110 C1111 1.386 . S
C1110 C1112 1.391 . S
C1111 C1110 1.386 . S
C1111 C1115 1.393 . S
C1112 H1101 0.950 . S
C1112 C1110 1.391 . S
C1112 C1113 1.400 . S
C1113 C1107 1.491 . S
C1113 C1112 1.400 . S
C1113 C1114 1.398 . S
C1114 H1102 0.950 . S
C1114 C1113 1.398 . S
C1114 C1115 1.391 . S
C1115 H1103 0.950 . S
C1115 C1111 1.393 . S
C1115 C1114 1.391 . S
H1116 C1124 0.950 . S
H1117 C1129 0.950 . S
H1118 C1126 0.950 . S
H1119 C1128 0.950 . S
H1120 C1130 0.950 . S
H1121 C1132 0.950 . S
H1122 C1134 0.950 . S
H1123 C1135 0.950 . S
C1124 H1116 0.950 . S
C1124 C1125 1.386 . S
C1124 C1126 1.391 . S
C1125 C1124 1.386 . S
C1125 C1129 1.393 . S
C1126 H1118 0.950 . S
C1126 C1124 1.391 . S
C1126 C1127 1.400 . S
C1127 C1126 1.400 . S
C1127 C1128 1.398 . S
C1127 C1133 1.491 . S
C1128 H1119 0.950 . S
C1128 C1127 1.398 . S
C1128 C1129 1.391 . S
C1129 H1117 0.950 . S
C1129 C1125 1.393 . S
C1129 C1128 1.391 . S
C1130 H1120 0.950 . S
C1130 C1131 1.386 . S
C1130 C1132 1.391 . S
C1131 C1130 1.386 . S
C1131 C1135 1.393 . S
C1132 H1121 0.950 . S
C1132 C1130 1.391 . S
C1132 C1133 1.400 . S
C1133 C1127 1.491 . S
C1133 C1132 1.400 . S
C1133 C1134 1.398 . S
C1134 H1122 0.950 . S
C1134 C1133 1.398 . S
C1134 C1135 1.391 . S
C1135 H1123 0.950 . S
C1135 C1131 1.393 . S
C1135 C1134 1.391 . S
H1136 C1144 0.950 . S
H1137 C1149 0.950 . S
H1138 C1146 0.950 . S
H1139 C1148 0.950 . S
H1140 C1150 0.950 . S
H1141 C1152 0.950 . S
H1142 C1154 0.950 . S
H1143 C1155 0.950 . S
C1144 H1136 0.950 . S
C1144 C1145 1.386 . S
C1144 C1146 1.391 . S
C1145 C1144 1.386 . S
C1145 C1149 1.393 . S
C1146 H1138 0.950 . S
C1146 C1144 1.391 . S
C1146 C1147 1.400 . S
C1147 C1146 1.400 . S
C1147 C1148 1.398 . S
C1147 C1153 1.491 . S
C1148 H1139 0.950 . S
C1148 C1147 1.398 . S
C1148 C1149 1.391 . S
C1149 H1137 0.950 . S
C1149 C1145 1.393 . S
C1149 C1148 1.391 . S
C1150 H1140 0.950 . S
C1150 C1151 1.386 . S
C1150 C1152 1.391 . S
C1151 C1150 1.386 . S
C1151 C1155 1.393 . S
C1152 H1141 0.950 . S
C1152 C1150 1.391 . S
C1152 C1153 1.400 . S
C1153 C1147 1.491 . S
C1153 C1152 1.400 . S
C1153 C1154 1.398 . S
C1154 H1142 0.950 . S
C1154 C1153 1.398 . S
C1154 C1155 1.391 . S
C1155 H1143 0.950 . S
C1155 C1151 1.393 . S
C1155 C1154 1.391 . S
H1156 C1164 0.950 . S
H1157 C1169 0.950 . S
H1158 C1166 0.950 . S
H1159 C1168 0.950 . S
H1160 C1170 0.950 . S
H1161 C1172 0.950 1_565 S
H1162 C1174 0.950 . S
H1163 C1175 0.950 . S
C1164 H1156 0.950 . S
C1164 C1165 1.386 . S
C1164 C1166 1.391 . S
C1165 C1164 1.386 . S
C1165 C1169 1.395 1_545 S
C1166 H1158 0.950 . S
C1166 C1164 1.391 . S
C1166 C1167 1.400 . S
C1167 C1166 1.400 . S
C1167 C1168 1.398 1_545 S
C1167 C1173 1.491 . S
C1168 H1159 0.950 . S
C1168 C1167 1.398 1_565 S
C1168 C1169 1.391 . S
C1169 H1157 0.950 . S
C1169 C1165 1.395 1_565 S
C1169 C1168 1.391 . S
C1170 H1160 0.950 . S
C1170 C1171 1.386 . S
C1170 C1172 1.391 . S
C1171 C1170 1.386 . S
C1171 C1175 1.393 . S
C1172 H1161 0.950 1_545 S
C1172 C1170 1.391 . S
C1172 C1173 1.400 . S
C1173 C1167 1.491 . S
C1173 C1172 1.400 . S
C1173 C1174 1.398 . S
C1174 H1162 0.950 . S
C1174 C1173 1.398 . S
C1174 C1175 1.391 . S
C1175 H1163 0.950 . S
C1175 C1171 1.393 . S
C1175 C1174 1.391 . S
H1176 C1184 0.950 . S
H1177 C1189 0.950 . S
H1178 C1186 0.950 . S
H1179 C1188 0.950 . S
H1180 C1190 0.950 . S
H1181 C1192 0.950 . S
H1182 C1194 0.950 . S
H1183 C1195 0.950 . S
C1184 H1176 0.950 . S
C1184 C1185 1.386 . S
C1184 C1186 1.391 . S
C1185 C1184 1.386 . S
C1185 C1189 1.393 . S
C1186 H1178 0.950 . S
C1186 C1184 1.391 . S
C1186 C1187 1.400 . S
C1187 C1186 1.400 . S
C1187 C1188 1.398 . S
C1187 C1193 1.491 . S
C1188 H1179 0.950 . S
C1188 C1187 1.398 . S
C1188 C1189 1.391 . S
C1189 H1177 0.950 . S
C1189 C1185 1.393 . S
C1189 C1188 1.391 . S
C1190 H1180 0.950 . S
C1190 C1191 1.386 . S
C1190 C1192 1.391 . S
C1191 C1190 1.386 . S
C1191 C1195 1.393 . S
C1192 H1181 0.950 . S
C1192 C1190 1.391 . S
C1192 C1193 1.400 . S
C1193 C1187 1.491 . S
C1193 C1192 1.400 . S
C1193 C1194 1.398 . S
C1194 H1182 0.950 . S
C1194 C1193 1.398 . S
C1194 C1195 1.391 . S
C1195 H1183 0.950 . S
C1195 C1191 1.393 . S
C1195 C1194 1.391 . S
H1196 C1204 0.950 . S
H1197 C1209 0.950 . S
H1198 C1206 0.950 . S
H1199 C1208 0.950 . S
H1200 C1210 0.950 . S
H1201 C1212 0.950 . S
H1202 C1214 0.950 . S
H1203 C1215 0.950 . S
C1204 H1196 0.950 . S
C1204 C1205 1.386 . S
C1204 C1206 1.391 . S
C1205 C1204 1.386 . S
C1205 C1209 1.393 . S
C1206 H1198 0.950 . S
C1206 C1204 1.391 . S
C1206 C1207 1.400 . S
C1207 C1206 1.400 . S
C1207 C1208 1.398 . S
C1207 C1213 1.491 . S
C1208 H1199 0.950 . S
C1208 C1207 1.398 . S
C1208 C1209 1.391 . S
C1209 H1197 0.950 . S
C1209 C1205 1.393 . S
C1209 C1208 1.391 . S
C1210 H1200 0.950 . S
C1210 C1211 1.386 . S
C1210 C1212 1.391 . S
C1211 C1210 1.386 . S
C1211 C1215 1.393 . S
C1212 H1201 0.950 . S
C1212 C1210 1.391 . S
C1212 C1213 1.400 . S
C1213 C1207 1.491 . S
C1213 C1212 1.400 . S
C1213 C1214 1.398 . S
C1214 H1202 0.950 . S
C1214 C1213 1.398 . S
C1214 C1215 1.391 . S
C1215 H1203 0.950 . S
C1215 C1211 1.393 . S
C1215 C1214 1.391 . S
H1216 C1224 0.950 . S
H1217 C1229 0.950 . S
H1218 C1226 0.950 . S
H1219 C1228 0.950 . S
H1220 C1230 0.950 . S
H1221 C1232 0.950 . S
H1222 C1234 0.950 . S
H1223 C1235 0.950 . S
C1224 H1216 0.950 . S
C1224 C1225 1.386 . S
C1224 C1226 1.391 . S
C1225 C1224 1.386 . S
C1225 C1229 1.393 . S
C1226 H1218 0.950 . S
C1226 C1224 1.391 . S
C1226 C1227 1.400 . S
C1227 C1226 1.400 . S
C1227 C1228 1.398 . S
C1227 C1233 1.491 . S
C1228 H1219 0.950 . S
C1228 C1227 1.398 . S
C1228 C1229 1.391 . S
C1229 H1217 0.950 . S
C1229 C1225 1.393 . S
C1229 C1228 1.391 . S
C1230 H1220 0.950 . S
C1230 C1231 1.386 . S
C1230 C1232 1.391 . S
C1231 C1230 1.386 . S
C1231 C1235 1.393 . S
C1232 H1221 0.950 . S
C1232 C1230 1.391 . S
C1232 C1233 1.400 . S
C1233 C1227 1.491 . S
C1233 C1232 1.400 . S
C1233 C1234 1.398 . S
C1234 H1222 0.950 . S
C1234 C1233 1.398 . S
C1234 C1235 1.391 . S
C1235 H1223 0.950 . S
C1235 C1231 1.393 . S
C1235 C1234 1.391 . S
H1236 C1244 0.950 . S
H1237 C1249 0.950 . S
H1238 C1246 0.950 . S
H1239 C1248 0.950 . S
H1240 C1250 0.950 1_556 S
H1241 C1252 0.950 . S
H1242 C1254 0.950 . S
H1243 C1255 0.950 . S
C1244 H1236 0.950 . S
C1244 C1245 1.386 . S
C1244 C1246 1.391 . S
C1245 C1244 1.386 . S
C1245 C1249 1.393 . S
C1246 H1238 0.950 . S
C1246 C1244 1.391 . S
C1246 C1247 1.400 . S
C1247 C1246 1.400 . S
C1247 C1248 1.398 . S
C1247 C1253 1.491 . S
C1248 H1239 0.950 . S
C1248 C1247 1.398 . S
C1248 C1249 1.391 . S
C1249 H1237 0.950 . S
C1249 C1245 1.393 . S
C1249 C1248 1.391 . S
C1250 H1240 0.950 1_554 S
C1250 C1251 1.386 . S
C1250 C1252 1.391 . S
C1251 C1250 1.386 . S
C1251 C1255 1.393 . S
C1252 H1241 0.950 . S
C1252 C1250 1.391 . S
C1252 C1253 1.400 . S
C1253 C1247 1.491 . S
C1253 C1252 1.400 . S
C1253 C1254 1.398 . S
C1254 H1242 0.950 . S
C1254 C1253 1.398 . S
C1254 C1255 1.391 . S
C1255 H1243 0.950 . S
C1255 C1251 1.393 . S
C1255 C1254 1.391 . S
H1256 C1264 0.950 . S
H1257 C1269 0.950 . S
H1258 C1266 0.950 . S
H1259 C1268 0.950 . S
H1260 C1270 0.950 . S
H1261 C1272 0.950 . S
H1262 C1274 0.950 . S
H1263 C1275 0.950 . S
C1264 H1256 0.950 . S
C1264 C1265 1.386 . S
C1264 C1266 1.391 . S
C1265 C1264 1.386 . S
C1265 C1269 1.393 . S
C1266 H1258 0.950 . S
C1266 C1264 1.391 . S
C1266 C1267 1.400 . S
C1267 C1266 1.400 . S
C1267 C1268 1.398 . S
C1267 C1273 1.491 . S
C1268 H1259 0.950 . S
C1268 C1267 1.398 . S
C1268 C1269 1.391 . S
C1269 H1257 0.950 . S
C1269 C1265 1.393 . S
C1269 C1268 1.391 . S
C1270 H1260 0.950 . S
C1270 C1271 1.386 . S
C1270 C1272 1.391 . S
C1271 C1270 1.386 . S
C1271 C1275 1.393 . S
C1272 H1261 0.950 . S
C1272 C1270 1.391 . S
C1272 C1273 1.400 . S
C1273 C1267 1.491 . S
C1273 C1272 1.400 . S
C1273 C1274 1.398 . S
C1274 H1262 0.950 . S
C1274 C1273 1.398 . S
C1274 C1275 1.391 . S
C1275 H1263 0.950 . S
C1275 C1271 1.393 . S
C1275 C1274 1.391 . S
H1276 C1284 0.950 . S
H1277 C1289 0.950 . S
H1278 C1286 0.950 . S
H1279 C1288 0.950 . S
H1280 C1290 0.950 . S
H1281 C1292 0.950 . S
H1282 C1294 0.950 . S
H1283 C1295 0.950 . S
C1284 H1276 0.950 . S
C1284 C1285 1.386 . S
C1284 C1286 1.391 . S
C1285 C1284 1.386 . S
C1285 C1289 1.393 . S
C1286 H1278 0.950 . S
C1286 C1284 1.391 . S
C1286 C1287 1.400 . S
C1287 C1286 1.400 . S
C1287 C1288 1.398 . S
C1287 C1293 1.491 . S
C1288 H1279 0.950 . S
C1288 C1287 1.398 . S
C1288 C1289 1.391 . S
C1289 H1277 0.950 . S
C1289 C1285 1.393 . S
C1289 C1288 1.391 . S
C1290 H1280 0.950 . S
C1290 C1291 1.386 . S
C1290 C1292 1.391 . S
C1291 C1290 1.386 . S
C1291 C1295 1.393 . S
C1292 H1281 0.950 . S
C1292 C1290 1.391 . S
C1292 C1293 1.400 . S
C1293 C1287 1.491 . S
C1293 C1292 1.400 . S
C1293 C1294 1.398 . S
C1294 H1282 0.950 . S
C1294 C1293 1.398 . S
C1294 C1295 1.391 . S
C1295 H1283 0.950 . S
C1295 C1291 1.393 . S
C1295 C1294 1.391 . S
C765 C69 1.134 . S
C771 C657 1.149 . S
C785 C140 2.224 . S
C791 C728 2.230 . S
C805 C237 1.292 . S
C811 C560 1.492 . S
C825 C392 2.359 . S
C831 C224 2.376 . S
C845 C476 2.261 . S
C851 C56 2.252 . S
C865 C153 1.904 . S
C871 C308 2.165 . S
C885 C644 1.582 . S
C891 C489 1.429 . S
C905 C741 1.219 . S
C911 C321 1.247 . S
C925 C405 1.575 . S
C931 C573 1.604 . S
C945 C226 1.403 . S
C951 C67 1.746 . S
C965 C142 1.214 . S
C971 C58 1.234 . S
C985 C151 2.958 . S
C991 C235 2.985 1_554 S
C1005 C310 1.627 . S
C1011 C487 2.068 . S
C1025 C319 2.033 . S
C1031 C394 1.627 . S
C1045 C403 2.000 . S
C1051 C478 1.532 . S
C1065 C730 1.727 . S
C1071 C571 2.265 . S
C1085 C646 0.805 . S
C1091 C562 0.804 . S
C1105 C739 2.039 . S
C1111 C655 2.032 . S
C1125 C74 1.466 . S
C1131 C63 1.466 . S
C1145 C147 1.488 . S
C1151 C158 1.488 . S
C1165 C242 1.533 . S
C1171 C231 1.533 . S
C1185 C326 1.467 . S
C1191 C315 1.467 . S
C1205 C410 1.473 . S
C1211 C399 1.473 . S
C1225 C494 1.504 . S
C1231 C483 1.504 1_556 S
C1245 C578 1.453 . S
C1251 C567 1.453 1_554 S
C1265 C662 1.442 . S
C1271 C651 1.442 . S
C1285 C746 1.483 . S
C1291 C735 1.483 . S
