# Generated by pormake.
# Topology ukc, (4)-cn, num edge types: 1
# Building blocks:
#     Node 0, Type 0, BuildingBlock: KUFVIS_clean_sbu_0, # of connection points: 4
#     Node 1, Type 0, BuildingBlock: KUFVIS_clean_sbu_0, # of connection points: 4
#     Node 2, Type 0, BuildingBlock: KUFVIS_clean_sbu_0, # of connection points: 4
#     Node 3, Type 0, BuildingBlock: KUFVIS_clean_sbu_0, # of connection points: 4
#     Node 4, Type 0, BuildingBlock: KUFVIS_clean_sbu_0, # of connection points: 4
#     Node 5, Type 0, BuildingBlock: KUFVIS_clean_sbu_0, # of connection points: 4
#     Node 6, Type 0, BuildingBlock: KUFVIS_clean_sbu_0, # of connection points: 4
#     Node 7, Type 0, BuildingBlock: KUFVIS_clean_sbu_0, # of connection points: 4
#     Node 8, Type 0, BuildingBlock: KUFVIS_clean_sbu_0, # of connection points: 4
#     Node 9, Type 0, BuildingBlock: KUFVIS_clean_sbu_0, # of connection points: 4
#     Node 10, Type 0, BuildingBlock: KUFVIS_clean_sbu_0, # of connection points: 4
#     Node 11, Type 0, BuildingBlock: KUFVIS_clean_sbu_0, # of connection points: 4
#     Node 12, Type 0, BuildingBlock: KUFVIS_clean_sbu_0, # of connection points: 4
#     Node 13, Type 0, BuildingBlock: KUFVIS_clean_sbu_0, # of connection points: 4
#     Node 14, Type 0, BuildingBlock: KUFVIS_clean_sbu_0, # of connection points: 4
#     Node 15, Type 0, BuildingBlock: KUFVIS_clean_sbu_0, # of connection points: 4
#     Node 16, Type 0, BuildingBlock: KUFVIS_clean_sbu_0, # of connection points: 4
#     Node 17, Type 0, BuildingBlock: KUFVIS_clean_sbu_0, # of connection points: 4
#     Node 18, Type 0, BuildingBlock: KUFVIS_clean_sbu_0, # of connection points: 4
#     Node 19, Type 0, BuildingBlock: KUFVIS_clean_sbu_0, # of connection points: 4
#     Node 20, Type 0, BuildingBlock: KUFVIS_clean_sbu_0, # of connection points: 4
#     Node 21, Type 0, BuildingBlock: KUFVIS_clean_sbu_0, # of connection points: 4
#     Node 22, Type 0, BuildingBlock: KUFVIS_clean_sbu_0, # of connection points: 4
#     Node 23, Type 0, BuildingBlock: KUFVIS_clean_sbu_0, # of connection points: 4
#     Node 24, Type 0, BuildingBlock: KUFVIS_clean_sbu_0, # of connection points: 4
#     Node 25, Type 0, BuildingBlock: KUFVIS_clean_sbu_0, # of connection points: 4
#     Node 26, Type 0, BuildingBlock: KUFVIS_clean_sbu_0, # of connection points: 4
#     Node 27, Type 0, BuildingBlock: KUFVIS_clean_sbu_0, # of connection points: 4
#     Node 28, Type 0, BuildingBlock: KUFVIS_clean_sbu_0, # of connection points: 4
#     Node 29, Type 0, BuildingBlock: KUFVIS_clean_sbu_0, # of connection points: 4
#     Node 30, Type 0, BuildingBlock: KUFVIS_clean_sbu_0, # of connection points: 4
#     Node 31, Type 0, BuildingBlock: KUFVIS_clean_sbu_0, # of connection points: 4
#     Edge 32, Type (0, 0), BuildingBlock: ZUJKAS_clean_linker_0, # of connection points: 2
#     Edge 33, Type (0, 0), BuildingBlock: ZUJKAS_clean_linker_0, # of connection points: 2
#     Edge 34, Type (0, 0), BuildingBlock: ZUJKAS_clean_linker_0, # of connection points: 2
#     Edge 35, Type (0, 0), BuildingBlock: ZUJKAS_clean_linker_0, # of connection points: 2
#     Edge 36, Type (0, 0), BuildingBlock: ZUJKAS_clean_linker_0, # of connection points: 2
#     Edge 37, Type (0, 0), BuildingBlock: ZUJKAS_clean_linker_0, # of connection points: 2
#     Edge 38, Type (0, 0), BuildingBlock: ZUJKAS_clean_linker_0, # of connection points: 2
#     Edge 39, Type (0, 0), BuildingBlock: ZUJKAS_clean_linker_0, # of connection points: 2
#     Edge 40, Type (0, 0), BuildingBlock: ZUJKAS_clean_linker_0, # of connection points: 2
#     Edge 41, Type (0, 0), BuildingBlock: ZUJKAS_clean_linker_0, # of connection points: 2
#     Edge 42, Type (0, 0), BuildingBlock: ZUJKAS_clean_linker_0, # of connection points: 2
#     Edge 43, Type (0, 0), BuildingBlock: ZUJKAS_clean_linker_0, # of connection points: 2
#     Edge 44, Type (0, 0), BuildingBlock: ZUJKAS_clean_linker_0, # of connection points: 2
#     Edge 45, Type (0, 0), BuildingBlock: ZUJKAS_clean_linker_0, # of connection points: 2
#     Edge 46, Type (0, 0), BuildingBlock: ZUJKAS_clean_linker_0, # of connection points: 2
#     Edge 47, Type (0, 0), BuildingBlock: ZUJKAS_clean_linker_0, # of connection points: 2
#     Edge 48, Type (0, 0), BuildingBlock: ZUJKAS_clean_linker_0, # of connection points: 2
#     Edge 49, Type (0, 0), BuildingBlock: ZUJKAS_clean_linker_0, # of connection points: 2
#     Edge 50, Type (0, 0), BuildingBlock: ZUJKAS_clean_linker_0, # of connection points: 2
#     Edge 51, Type (0, 0), BuildingBlock: ZUJKAS_clean_linker_0, # of connection points: 2
#     Edge 52, Type (0, 0), BuildingBlock: ZUJKAS_clean_linker_0, # of connection points: 2
#     Edge 53, Type (0, 0), BuildingBlock: ZUJKAS_clean_linker_0, # of connection points: 2
#     Edge 54, Type (0, 0), BuildingBlock: ZUJKAS_clean_linker_0, # of connection points: 2
#     Edge 55, Type (0, 0), BuildingBlock: ZUJKAS_clean_linker_0, # of connection points: 2
#     Edge 56, Type (0, 0), BuildingBlock: ZUJKAS_clean_linker_0, # of connection points: 2
#     Edge 57, Type (0, 0), BuildingBlock: ZUJKAS_clean_linker_0, # of connection points: 2
#     Edge 58, Type (0, 0), BuildingBlock: ZUJKAS_clean_linker_0, # of connection points: 2
#     Edge 59, Type (0, 0), BuildingBlock: ZUJKAS_clean_linker_0, # of connection points: 2
#     Edge 60, Type (0, 0), BuildingBlock: ZUJKAS_clean_linker_0, # of connection points: 2
#     Edge 61, Type (0, 0), BuildingBlock: ZUJKAS_clean_linker_0, # of connection points: 2
#     Edge 62, Type (0, 0), BuildingBlock: ZUJKAS_clean_linker_0, # of connection points: 2
#     Edge 63, Type (0, 0), BuildingBlock: ZUJKAS_clean_linker_0, # of connection points: 2
#     Edge 64, Type (0, 0), BuildingBlock: ZUJKAS_clean_linker_0, # of connection points: 2
#     Edge 65, Type (0, 0), BuildingBlock: ZUJKAS_clean_linker_0, # of connection points: 2
#     Edge 66, Type (0, 0), BuildingBlock: ZUJKAS_clean_linker_0, # of connection points: 2
#     Edge 67, Type (0, 0), BuildingBlock: ZUJKAS_clean_linker_0, # of connection points: 2
#     Edge 68, Type (0, 0), BuildingBlock: ZUJKAS_clean_linker_0, # of connection points: 2
#     Edge 69, Type (0, 0), BuildingBlock: ZUJKAS_clean_linker_0, # of connection points: 2
#     Edge 70, Type (0, 0), BuildingBlock: ZUJKAS_clean_linker_0, # of connection points: 2
#     Edge 71, Type (0, 0), BuildingBlock: ZUJKAS_clean_linker_0, # of connection points: 2
#     Edge 72, Type (0, 0), BuildingBlock: ZUJKAS_clean_linker_0, # of connection points: 2
#     Edge 73, Type (0, 0), BuildingBlock: ZUJKAS_clean_linker_0, # of connection points: 2
#     Edge 74, Type (0, 0), BuildingBlock: ZUJKAS_clean_linker_0, # of connection points: 2
#     Edge 75, Type (0, 0), BuildingBlock: ZUJKAS_clean_linker_0, # of connection points: 2
#     Edge 76, Type (0, 0), BuildingBlock: ZUJKAS_clean_linker_0, # of connection points: 2
#     Edge 77, Type (0, 0), BuildingBlock: ZUJKAS_clean_linker_0, # of connection points: 2
#     Edge 78, Type (0, 0), BuildingBlock: ZUJKAS_clean_linker_0, # of connection points: 2
#     Edge 79, Type (0, 0), BuildingBlock: ZUJKAS_clean_linker_0, # of connection points: 2
#     Edge 80, Type (0, 0), BuildingBlock: ZUJKAS_clean_linker_0, # of connection points: 2
#     Edge 81, Type (0, 0), BuildingBlock: ZUJKAS_clean_linker_0, # of connection points: 2
#     Edge 82, Type (0, 0), BuildingBlock: ZUJKAS_clean_linker_0, # of connection points: 2
#     Edge 83, Type (0, 0), BuildingBlock: ZUJKAS_clean_linker_0, # of connection points: 2
#     Edge 84, Type (0, 0), BuildingBlock: ZUJKAS_clean_linker_0, # of connection points: 2
#     Edge 85, Type (0, 0), BuildingBlock: ZUJKAS_clean_linker_0, # of connection points: 2
#     Edge 86, Type (0, 0), BuildingBlock: ZUJKAS_clean_linker_0, # of connection points: 2
#     Edge 87, Type (0, 0), BuildingBlock: ZUJKAS_clean_linker_0, # of connection points: 2
#     Edge 88, Type (0, 0), BuildingBlock: ZUJKAS_clean_linker_0, # of connection points: 2
#     Edge 89, Type (0, 0), BuildingBlock: ZUJKAS_clean_linker_0, # of connection points: 2
#     Edge 90, Type (0, 0), BuildingBlock: ZUJKAS_clean_linker_0, # of connection points: 2
#     Edge 91, Type (0, 0), BuildingBlock: ZUJKAS_clean_linker_0, # of connection points: 2
#     Edge 92, Type (0, 0), BuildingBlock: ZUJKAS_clean_linker_0, # of connection points: 2
#     Edge 93, Type (0, 0), BuildingBlock: ZUJKAS_clean_linker_0, # of connection points: 2
#     Edge 94, Type (0, 0), BuildingBlock: ZUJKAS_clean_linker_0, # of connection points: 2
#     Edge 95, Type (0, 0), BuildingBlock: ZUJKAS_clean_linker_0, # of connection points: 2
# Relax obj value: 0.034
# Max RMSD: 0.053
# Mean RMSD: 0.053
data_MOF--net-ukc--node1-KUFVIS_clean_sbu_0--edge1-ZUJKAS_clean_linker_0
_symmetry_space_group_name_H-M    P1
_symmetry_Int_Tables_number       1
_symmetry_cell_setting            triclinic
loop_
_symmetry_equiv_pos_as_xyz
'x, y, z'
_cell_length_a     56.792578
_cell_length_b     56.806037
_cell_length_c     113.61462
_cell_angle_alpha  89.986898
_cell_angle_beta   90.063406
_cell_angle_gamma 89.993167
loop_
_atom_site_label
_atom_site_type_symbol
_atom_site_fract_x
_atom_site_fract_y
_atom_site_fract_z
_atom_type_partial_charge
Mn0 Mn 0.10507 0.38999 0.05738 0.0
Mn1 Mn 0.09521 0.36271 0.03139 0.0
C2 C 0.07545 0.36207 0.05569 0.0
C3 C 0.12349 0.3924 0.07578 0.0
C4 C 0.07913 0.41254 0.03646 0.0
O5 O 0.13555 0.39643 0.04832 0.0
O6 O 0.1272 0.37679 0.03157 0.0
C7 C 0.12991 0.32417 0.03408 0.0
N8 N 0.10737 0.33138 0.03215 0.0
C9 C 0.09402 0.2914 0.02999 0.0
C10 C 0.11711 0.28354 0.0319 0.0
C11 C 0.13512 0.29999 0.03399 0.0
C12 C 0.08988 0.31569 0.03024 0.0
H13 H 0.14378 0.33677 0.03568 0.0
C14 C 0.14091 0.38932 0.03798 0.0
O15 O 0.11489 0.41092 0.07064 0.0
O16 O 0.1224 0.37275 0.06998 0.0
N17 N 0.06497 0.3482 0.02988 0.0
C18 C 0.04357 0.35868 0.02847 0.0
C19 C 0.02372 0.34473 0.02612 0.0
C20 C 0.0261 0.32021 0.02516 0.0
C21 C 0.04827 0.30979 0.02673 0.0
C22 C 0.06748 0.32463 0.02887 0.0
H23 H 0.04167 0.37755 0.02904 0.0
O24 O 0.07474 0.37775 0.06399 0.0
O25 O 0.09338 0.36323 0.04863 0.0
O26 O 0.08707 0.41354 0.04697 0.0
O27 O 0.08153 0.39449 0.02987 0.0
C28 C 0.05206 0.2853 0.02625 0.0
C29 C 0.07489 0.2761 0.02797 0.0
H30 H 0.12121 0.26491 0.03184 0.0
H31 H 0.15297 0.29405 0.03552 0.0
H32 H 0.00665 0.35288 0.02495 0.0
H33 H 0.0108 0.30957 0.02315 0.0
H34 H 0.0375 0.27337 0.02469 0.0
H35 H 0.07755 0.25722 0.02772 0.0
Mn36 Mn 0.8687 0.85297 0.30702 0.0
Mn37 Mn 0.8969 0.84452 0.28119 0.0
C38 C 0.89838 0.82511 0.30545 0.0
C39 C 0.86515 0.87079 0.3255 0.0
C40 C 0.8482 0.82532 0.28609 0.0
O41 O 0.86065 0.88308 0.29794 0.0
O42 O 0.88018 0.87522 0.28111 0.0
C43 C 0.93229 0.88247 0.2837 0.0
N44 N 0.92708 0.85931 0.28203 0.0
C45 C 0.9681 0.84937 0.28021 0.0
C46 C 0.97391 0.87314 0.28186 0.0
C47 C 0.95593 0.88974 0.28366 0.0
C48 C 0.94425 0.84315 0.28044 0.0
H49 H 0.91852 0.8953 0.28504 0.0
C50 C 0.86705 0.88842 0.28748 0.0
O51 O 0.84712 0.86137 0.32027 0.0
O52 O 0.88481 0.87105 0.3197 0.0
N53 N 0.91398 0.81558 0.28 0.0
C54 C 0.90542 0.7933 0.27875 0.0
C55 C 0.92116 0.77455 0.27702 0.0
C56 C 0.94547 0.77894 0.27641 0.0
C57 C 0.95381 0.80207 0.2775 0.0
C58 C 0.9373 0.82003 0.27925 0.0
H59 H 0.88674 0.78985 0.27911 0.0
O60 O 0.88258 0.82335 0.31364 0.0
O61 O 0.89627 0.84297 0.2984 0.0
O62 O 0.84637 0.83378 0.29647 0.0
O63 O 0.86638 0.82824 0.27965 0.0
C64 C 0.97785 0.80801 0.2769 0.0
C65 C 0.98502 0.83161 0.27837 0.0
H66 H 0.99212 0.87882 0.28179 0.0
H67 H 0.96028 0.9081 0.28496 0.0
H68 H 0.91458 0.75676 0.27614 0.0
H69 H 0.95757 0.76443 0.27509 0.0
H70 H 0.99101 0.79451 0.27545 0.0
H71 H 1.0036 0.83589 0.27808 0.0
Mn72 Mn 0.40709 0.61954 0.5571 0.0
Mn73 Mn 0.41302 0.64544 0.53048 0.0
C74 C 0.43608 0.64762 0.5541 0.0
C75 C 0.39149 0.61797 0.57617 0.0
C76 C 0.43187 0.59684 0.5358 0.0
O77 O 0.37547 0.61213 0.54931 0.0
O78 O 0.38228 0.629 0.5317 0.0
C79 C 0.37554 0.68119 0.53351 0.0
N80 N 0.39834 0.6757 0.53103 0.0
C81 C 0.40782 0.71637 0.52748 0.0
C82 C 0.38441 0.72245 0.52994 0.0
C83 C 0.36822 0.70478 0.53301 0.0
C84 C 0.4141 0.69257 0.52816 0.0
H85 H 0.36303 0.66767 0.53586 0.0
C86 C 0.3693 0.61727 0.5388 0.0
O87 O 0.39953 0.59924 0.571 0.0
O88 O 0.39142 0.63725 0.57005 0.0
N89 N 0.44168 0.66228 0.52782 0.0
C90 C 0.46376 0.65355 0.52608 0.0
C91 C 0.482 0.66892 0.52285 0.0
C92 C 0.47732 0.69302 0.52134 0.0
C93 C 0.45452 0.7016 0.52326 0.0
C94 C 0.43698 0.68541 0.5263 0.0
H95 H 0.46737 0.63499 0.52707 0.0
O96 O 0.43804 0.63222 0.56247 0.0
O97 O 0.41714 0.64623 0.54766 0.0
O98 O 0.42399 0.5957 0.54633 0.0
O99 O 0.42903 0.61479 0.52919 0.0
C100 C 0.44854 0.7256 0.52232 0.0
C101 C 0.42523 0.733 0.5245 0.0
H102 H 0.37869 0.74063 0.52957 0.0
H103 H 0.35014 0.70934 0.53496 0.0
H104 H 0.4996 0.66219 0.52144 0.0
H105 H 0.49138 0.7048 0.51876 0.0
H106 H 0.46178 0.73855 0.52005 0.0
H107 H 0.4209 0.75153 0.52389 0.0
Mn108 Mn 0.63982 0.15545 0.8077 0.0
Mn109 Mn 0.61349 0.16183 0.78117 0.0
C110 C 0.61077 0.18365 0.80509 0.0
C111 C 0.64236 0.13877 0.82653 0.0
C112 C 0.6616 0.18184 0.78665 0.0
O113 O 0.6483 0.1246 0.79947 0.0
O114 O 0.63059 0.1314 0.78206 0.0
C115 C 0.57859 0.12347 0.78389 0.0
N116 N 0.58356 0.14647 0.78159 0.0
C117 C 0.54268 0.15515 0.7781 0.0
C118 C 0.53713 0.13152 0.78036 0.0
C119 C 0.55517 0.11564 0.78332 0.0
C120 C 0.56634 0.16193 0.77885 0.0
H121 H 0.5924 0.11119 0.78615 0.0
C122 C 0.64294 0.11857 0.78897 0.0
O123 O 0.66059 0.14801 0.82142 0.0
O124 O 0.62297 0.13826 0.82048 0.0
N125 N 0.596 0.19021 0.77879 0.0
C126 C 0.60422 0.21252 0.77723 0.0
C127 C 0.58845 0.23051 0.77411 0.0
C128 C 0.56446 0.22534 0.77254 0.0
C129 C 0.55639 0.2023 0.77427 0.0
C130 C 0.57297 0.18503 0.77719 0.0
H131 H 0.62269 0.21652 0.77827 0.0
O132 O 0.62609 0.18559 0.8135 0.0
O133 O 0.61271 0.16512 0.79841 0.0
O134 O 0.6629 0.17376 0.79713 0.0
O135 O 0.6438 0.17858 0.77997 0.0
C136 C 0.53253 0.19581 0.77325 0.0
C137 C 0.52566 0.17228 0.77524 0.0
H138 H 0.51909 0.12542 0.77992 0.0
H139 H 0.55102 0.0974 0.78512 0.0
H140 H 0.59478 0.2483 0.77285 0.0
H141 H 0.55236 0.23922 0.77005 0.0
H142 H 0.51929 0.20883 0.77106 0.0
H143 H 0.50723 0.16755 0.77457 0.0
Mn144 Mn 0.10392 0.61917 0.46953 0.0
Mn145 Mn 0.09257 0.64546 0.49567 0.0
C146 C 0.0757 0.64855 0.4706 0.0
C147 C 0.12343 0.61664 0.45141 0.0
C148 C 0.07468 0.59686 0.48936 0.0
O149 O 0.13317 0.6111 0.47918 0.0
O150 O 0.12383 0.62958 0.49611 0.0
C151 C 0.12977 0.68198 0.49557 0.0
N152 N 0.10664 0.67595 0.49651 0.0
C153 C 0.09558 0.71604 0.50054 0.0
C154 C 0.11931 0.72267 0.4997 0.0
C155 C 0.13646 0.70557 0.49717 0.0
C156 C 0.09 0.69223 0.49901 0.0
H157 H 0.14299 0.66888 0.49363 0.0
C158 C 0.1378 0.6172 0.48977 0.0
O159 O 0.11365 0.59837 0.45623 0.0
O160 O 0.12315 0.636 0.45747 0.0
N161 N 0.06313 0.66172 0.49653 0.0
C162 C 0.0409 0.65288 0.49565 0.0
C163 C 0.02155 0.66797 0.49717 0.0
C164 C 0.02526 0.69191 0.49966 0.0
C165 C 0.04831 0.70057 0.50057 0.0
C166 C 0.06691 0.68468 0.49902 0.0
H167 H 0.03798 0.63449 0.49373 0.0
O168 O 0.07506 0.63279 0.46235 0.0
O169 O 0.09272 0.64651 0.47827 0.0
O170 O 0.08397 0.59579 0.47916 0.0
O171 O 0.07687 0.61466 0.49609 0.0
C172 C 0.05357 0.7245 0.5025 0.0
C173 C 0.07718 0.73223 0.50249 0.0
H174 H 0.12452 0.74087 0.50081 0.0
H175 H 0.15478 0.71057 0.49644 0.0
H176 H 1.00381 0.66118 0.4964 0.0
H177 H 0.01029 0.70354 0.5007 0.0
H178 H 0.03956 0.73721 0.50372 0.0
H179 H 0.08097 0.75076 0.50373 0.0
Mn180 Mn 0.63966 0.85324 0.71925 0.0
Mn181 Mn 0.61229 0.84374 0.74523 0.0
C182 C 0.6109 0.82445 0.72082 0.0
C183 C 0.64247 0.87183 0.70093 0.0
C184 C 0.6616 0.82629 0.73999 0.0
O185 O 0.64716 0.88331 0.72847 0.0
O186 O 0.6272 0.87533 0.74516 0.0
C187 C 0.57464 0.87947 0.74278 0.0
N188 N 0.58128 0.85672 0.74459 0.0
C189 C 0.54098 0.84439 0.74679 0.0
C190 C 0.53371 0.86771 0.745 0.0
C191 C 0.55061 0.88531 0.74295 0.0
C192 C 0.56515 0.83963 0.74647 0.0
H193 H 0.58759 0.89303 0.74121 0.0
C194 C 0.64016 0.88875 0.73881 0.0
O195 O 0.66072 0.86245 0.70598 0.0
O196 O 0.6229 0.87148 0.70681 0.0
N197 N 0.59701 0.81388 0.74665 0.0
C198 C 0.60694 0.79219 0.74795 0.0
C199 C 0.5925 0.77268 0.75027 0.0
C200 C 0.56805 0.7757 0.75131 0.0
C201 C 0.5582 0.79814 0.74983 0.0
C202 C 0.57352 0.81698 0.74772 0.0
H203 H 0.62575 0.7898 0.74734 0.0
O204 O 0.62647 0.82348 0.71249 0.0
O205 O 0.61259 0.84219 0.72799 0.0
O206 O 0.66271 0.83427 0.7295 0.0
O207 O 0.64371 0.8292 0.74663 0.0
C208 C 0.53382 0.80257 0.75038 0.0
C209 C 0.5252 0.82565 0.74878 0.0
H210 H 0.51519 0.87229 0.74513 0.0
H211 H 0.54512 0.90333 0.74151 0.0
H212 H 0.60021 0.7554 0.75137 0.0
H213 H 0.55703 0.76067 0.7533 0.0
H214 H 0.52153 0.78831 0.75191 0.0
H215 H 0.5064 0.8288 0.74908 0.0
Mn216 Mn 0.40736 0.38693 0.96828 0.0
Mn217 Mn 0.41548 0.3597 0.99442 0.0
C218 C 0.43588 0.358 0.97034 0.0
C219 C 0.38959 0.38959 0.94972 0.0
C220 C 0.43356 0.40881 0.98931 0.0
O221 O 0.37684 0.39453 0.97706 0.0
O222 O 0.38411 0.37511 0.994 0.0
C223 C 0.3791 0.32274 0.99176 0.0
N224 N 0.40196 0.32894 0.99366 0.0
C225 C 0.41343 0.28842 0.99598 0.0
C226 C 0.39 0.28161 0.9941 0.0
C227 C 0.37278 0.29884 0.99193 0.0
C228 C 0.41871 0.31248 0.9956 0.0
H229 H 0.3658 0.33594 0.99014 0.0
C230 C 0.37095 0.38787 0.98741 0.0
O231 O 0.39866 0.40792 0.95483 0.0
O232 O 0.38986 0.37005 0.95562 0.0
N233 N 0.44504 0.34385 0.99608 0.0
C234 C 0.4669 0.35332 0.99752 0.0
C235 C 0.48618 0.33841 0.99962 0.0
C236 C 0.48273 0.31398 1.00042 0.0
C237 C 0.46 0.30468 0.99913 0.0
C238 C 0.44149 0.32039 0.99699 0.0
H239 H 0.46964 0.3721 0.99703 0.0
O240 O 0.43747 0.37349 0.96199 0.0
O241 O 0.41776 0.35993 0.97722 0.0
O242 O 0.42579 0.41 0.97877 0.0
O243 O 0.43051 0.39088 0.99591 0.0
C244 C 0.45499 0.28046 0.99988 0.0
C245 C 0.43177 0.2723 0.9982 0.0
H246 H 0.38503 0.2632 0.99428 0.0
H247 H 0.35467 0.29372 0.99045 0.0
H248 H 0.50365 0.34573 1.00065 0.0
H249 H 0.49764 0.30252 1.00203 0.0
H250 H 0.46894 0.2679 1.00161 0.0
H251 H 0.42821 0.25358 0.99862 0.0
Mn252 Mn 0.87421 0.15576 0.22008 0.0
Mn253 Mn 0.89793 0.15909 0.2473 0.0
C254 C 0.90424 0.1824 0.22405 0.0
C255 C 0.87262 0.14088 0.20085 0.0
C256 C 0.85133 0.18144 0.24103 0.0
O257 O 0.86368 0.12459 0.22745 0.0
O258 O 0.87961 0.12964 0.24542 0.0
C259 C 0.9312 0.11922 0.24497 0.0
N260 N 0.92707 0.14231 0.24744 0.0
C261 C 0.96739 0.14833 0.25316 0.0
C262 C 0.9721 0.12459 0.25072 0.0
C263 C 0.95395 0.11002 0.24652 0.0
C264 C 0.9445 0.1566 0.25122 0.0
H265 H 0.91722 0.10788 0.24191 0.0
C266 C 0.86757 0.11773 0.23799 0.0
O267 O 0.8544 0.15046 0.2058 0.0
O268 O 0.89147 0.139 0.20726 0.0
N269 N 0.91642 0.18641 0.25061 0.0
C270 C 0.90911 0.20904 0.25218 0.0
C271 C 0.92521 0.22598 0.25622 0.0
C272 C 0.94843 0.21933 0.25889 0.0
C273 C 0.95548 0.19589 0.25729 0.0
C274 C 0.93879 0.1799 0.25305 0.0
H275 H 0.89112 0.21409 0.25041 0.0
O276 O 0.88987 0.18579 0.21534 0.0
O277 O 0.90078 0.16342 0.23022 0.0
O278 O 0.8508 0.17407 0.23042 0.0
O279 O 0.86836 0.17718 0.24806 0.0
C280 C 0.97838 0.18771 0.2598 0.0
C281 C 0.98444 0.16405 0.25756 0.0
H282 H 0.98956 0.11738 0.25203 0.0
H283 H 0.95743 0.09169 0.2446 0.0
H284 H 0.91964 0.24403 0.25744 0.0
H285 H 0.96071 0.23239 0.26215 0.0
H286 H 0.99158 0.19955 0.26331 0.0
H287 H 1.00223 0.15811 0.2593 0.0
Mn288 Mn 0.90717 0.62021 0.96946 0.0
Mn289 Mn 0.91456 0.6484 0.99538 0.0
C290 C 0.9349 0.6499 0.97126 0.0
C291 C 0.88936 0.61658 0.95096 0.0
C292 C 0.93387 0.59958 0.99062 0.0
O293 O 0.87697 0.61197 0.97834 0.0
O294 O 0.88345 0.63239 0.99505 0.0
C295 C 0.87749 0.68458 0.99242 0.0
N296 N 0.90046 0.67888 0.99437 0.0
C297 C 0.91121 0.71968 0.99623 0.0
C298 C 0.88766 0.726 0.99429 0.0
C299 C 0.87074 0.70837 0.99233 0.0
C300 C 0.91692 0.69571 0.99612 0.0
H301 H 0.86443 0.67108 0.99094 0.0
C302 C 0.87073 0.61899 0.98857 0.0
O303 O 0.89914 0.59869 0.95614 0.0
O304 O 0.88895 0.63622 0.95678 0.0
N305 N 0.94381 0.66484 0.99692 0.0
C306 C 0.96586 0.65583 0.99842 0.0
C307 C 0.98487 0.67117 1.00032 0.0
C308 C 0.98098 0.69557 1.00085 0.0
C309 C 0.95808 0.70439 0.9995 0.0
C310 C 0.93984 0.68826 0.99759 0.0
H311 H 0.96894 0.63708 0.99811 0.0
O312 O 0.93681 0.63426 0.96301 0.0
O313 O 0.91687 0.64772 0.97819 0.0
O314 O 0.92633 0.59799 0.98005 0.0
O315 O 0.93018 0.61753 0.99713 0.0
C316 C 0.95265 0.72856 0.99995 0.0
C317 C 0.92927 0.73623 0.99821 0.0
H318 H 0.88237 0.74432 0.99425 0.0
H319 H 0.85254 0.71311 0.9908 0.0
H320 H 1.00248 0.66421 1.0014 0.0
H321 H 0.9957 0.70735 1.00229 0.0
H322 H 0.96638 0.74144 1.00149 0.0
H323 H 0.92539 0.75489 0.9984 0.0
Mn324 Mn 0.13891 0.15588 0.71729 0.0
Mn325 Mn 0.11082 0.16467 0.74312 0.0
C326 C 0.10995 0.18451 0.71879 0.0
C327 C 0.14202 0.13748 0.69892 0.0
C328 C 0.16043 0.182 0.73835 0.0
O329 O 0.14638 0.12576 0.72647 0.0
O330 O 0.12522 0.13283 0.74288 0.0
C331 C 0.07267 0.12964 0.74016 0.0
N332 N 0.07962 0.15222 0.74217 0.0
C333 C 0.03947 0.16514 0.74421 0.0
C334 C 0.03187 0.142 0.74221 0.0
C335 C 0.04854 0.12419 0.74014 0.0
C336 C 0.06372 0.16952 0.74407 0.0
H337 H 0.08544 0.11591 0.73858 0.0
C338 C 0.13867 0.11974 0.73662 0.0
O339 O 0.16019 0.14687 0.70403 0.0
O340 O 0.1224 0.13772 0.70475 0.0
N341 N 0.09598 0.19474 0.74462 0.0
C342 C 0.10622 0.21624 0.74608 0.0
C343 C 0.09204 0.23592 0.74842 0.0
C344 C 0.06753 0.23327 0.74931 0.0
C345 C 0.05736 0.21103 0.74765 0.0
C346 C 0.07241 0.19199 0.74552 0.0
H347 H 0.12508 0.21833 0.74558 0.0
O348 O 0.12568 0.18568 0.71055 0.0
O349 O 0.11164 0.16668 0.72591 0.0
O350 O 0.16168 0.17474 0.72773 0.0
O351 O 0.14245 0.17865 0.74487 0.0
C352 C 0.03289 0.20698 0.74803 0.0
C353 C 0.02394 0.18408 0.74623 0.0
H354 H 0.01328 0.13772 0.7422 0.0
H355 H 0.04281 0.1063 0.73856 0.0
H356 H 0.1 0.25305 0.74965 0.0
H357 H 0.05671 0.24845 0.75131 0.0
H358 H 0.02079 0.22139 0.74959 0.0
H359 H 0.00509 0.18123 0.7464 0.0
Mn360 Mn 0.60244 0.38932 0.46755 0.0
Mn361 Mn 0.59448 0.36128 0.49349 0.0
C362 C 0.57374 0.36053 0.46937 0.0
C363 C 0.61987 0.39231 0.44893 0.0
C364 C 0.57682 0.41078 0.48881 0.0
O365 O 0.63306 0.39656 0.47639 0.0
O366 O 0.62612 0.37607 0.49303 0.0
C367 C 0.62993 0.32359 0.49033 0.0
N368 N 0.60732 0.33025 0.49249 0.0
C369 C 0.59497 0.28994 0.49459 0.0
C370 C 0.61816 0.28264 0.49244 0.0
C371 C 0.6357 0.29955 0.49026 0.0
C372 C 0.59027 0.31413 0.4945 0.0
H373 H 0.64345 0.33654 0.48866 0.0
C374 C 0.63918 0.3892 0.48659 0.0
O375 O 0.61091 0.41054 0.45417 0.0
O376 O 0.61987 0.37271 0.45479 0.0
N377 N 0.56465 0.34605 0.49523 0.0
C378 C 0.54305 0.356 0.49684 0.0
C379 C 0.52361 0.34154 0.49926 0.0
C380 C 0.52659 0.31706 0.50009 0.0
C381 C 0.54894 0.3072 0.49831 0.0
C382 C 0.56773 0.32252 0.4961 0.0
H383 H 0.5407 0.37483 0.49636 0.0
O384 O 0.57226 0.3763 0.46115 0.0
O385 O 0.59189 0.36206 0.47629 0.0
O386 O 0.58412 0.41216 0.4782 0.0
O387 O 0.58014 0.39271 0.49529 0.0
C388 C 0.55331 0.2828 0.49864 0.0
C389 C 0.57629 0.27416 0.4967 0.0
H390 H 0.62268 0.26412 0.49238 0.0
H391 H 0.65362 0.29405 0.48856 0.0
H392 H 0.5064 0.34927 0.50059 0.0
H393 H 0.51161 0.30603 0.50214 0.0
H394 H 0.53909 0.2705 0.50025 0.0
H395 H 0.57938 0.25535 0.49683 0.0
Mn396 Mn 0.37046 0.8543 0.22119 0.0
Mn397 Mn 0.39391 0.8503 0.24845 0.0
C398 C 0.40034 0.82746 0.22508 0.0
C399 C 0.36894 0.86979 0.20207 0.0
C400 C 0.3474 0.82806 0.24192 0.0
O401 O 0.36003 0.88534 0.22869 0.0
O402 O 0.37567 0.87986 0.2467 0.0
C403 C 0.42727 0.89015 0.24638 0.0
N404 N 0.42308 0.86702 0.24873 0.0
C405 C 0.46335 0.86079 0.25448 0.0
C406 C 0.46812 0.88456 0.25215 0.0
C407 C 0.45003 0.89926 0.248 0.0
C408 C 0.44046 0.85261 0.25247 0.0
H409 H 0.41335 0.90158 0.24334 0.0
C410 C 0.36383 0.89198 0.23927 0.0
O411 O 0.35072 0.86005 0.20694 0.0
O412 O 0.38781 0.87138 0.20849 0.0
N413 N 0.41232 0.82287 0.25166 0.0
C414 C 0.40495 0.80024 0.25313 0.0
C415 C 0.42098 0.78319 0.25713 0.0
C416 C 0.4442 0.78973 0.25987 0.0
C417 C 0.45131 0.81319 0.25837 0.0
C418 C 0.43468 0.82929 0.25417 0.0
H419 H 0.38696 0.79526 0.25131 0.0
O420 O 0.38607 0.82435 0.21629 0.0
O421 O 0.39692 0.84632 0.23134 0.0
O422 O 0.34694 0.83573 0.23136 0.0
O423 O 0.36432 0.83222 0.24902 0.0
C424 C 0.47422 0.82126 0.26095 0.0
C425 C 0.48035 0.84494 0.25883 0.0
H426 H 0.48559 0.89171 0.25353 0.0
H427 H 0.45357 0.91762 0.24617 0.0
H428 H 0.41536 0.76514 0.25827 0.0
H429 H 0.45642 0.77659 0.2631 0.0
H430 H 0.48737 0.80932 0.26443 0.0
H431 H 0.49814 0.85081 0.26062 0.0
Mn432 Mn 0.90462 0.3886 0.55724 0.0
Mn433 Mn 0.91225 0.36055 0.53129 0.0
C434 C 0.93301 0.35954 0.55528 0.0
C435 C 0.88766 0.39144 0.57598 0.0
C436 C 0.93084 0.4096 0.53596 0.0
O437 O 0.87387 0.39607 0.54855 0.0
O438 O 0.88127 0.37671 0.53161 0.0
C439 C 0.8751 0.32448 0.53428 0.0
N440 N 0.89806 0.33012 0.5323 0.0
C441 C 0.90862 0.28931 0.53021 0.0
C442 C 0.88506 0.28306 0.53218 0.0
C443 C 0.86826 0.30072 0.53427 0.0
C444 C 0.91443 0.31325 0.53044 0.0
H445 H 0.86212 0.33801 0.53584 0.0
C446 C 0.86816 0.38959 0.53814 0.0
O447 O 0.8964 0.40977 0.57073 0.0
O448 O 0.88752 0.37194 0.57006 0.0
N449 N 0.94143 0.34402 0.5297 0.0
C450 C 0.96347 0.35298 0.52816 0.0
C451 C 0.9824 0.3376 0.52612 0.0
C452 C 0.9784 0.31323 0.52548 0.0
C453 C 0.95549 0.30447 0.52686 0.0
C454 C 0.93735 0.32063 0.52895 0.0
H455 H 0.96661 0.37171 0.52852 0.0
O456 O 0.93486 0.37533 0.56347 0.0
O457 O 0.91474 0.36128 0.54846 0.0
O458 O 0.92287 0.41138 0.54645 0.0
O459 O 0.92787 0.39133 0.52959 0.0
C460 C 0.94993 0.28035 0.52624 0.0
C461 C 0.92656 0.27274 0.52803 0.0
H462 H 0.87969 0.26476 0.53212 0.0
H463 H 0.85006 0.29603 0.53583 0.0
H464 H 1.00001 0.34451 0.52502 0.0
H465 H 0.99304 0.30141 0.52391 0.0
H466 H 0.96356 0.26746 0.52453 0.0
H467 H 0.92259 0.2541 0.52773 0.0
Mn468 Mn 0.37134 0.15803 0.30777 0.0
Mn469 Mn 0.3982 0.16764 0.28167 0.0
C470 C 0.39954 0.18733 0.30598 0.0
C471 C 0.36938 0.13979 0.32622 0.0
C472 C 0.34869 0.18438 0.287 0.0
O473 O 0.36428 0.12764 0.2987 0.0
O474 O 0.38364 0.13588 0.28188 0.0
C475 C 0.43627 0.13235 0.2841 0.0
N476 N 0.42936 0.155 0.28225 0.0
C477 C 0.4695 0.16776 0.27994 0.0
C478 C 0.47705 0.14454 0.28176 0.0
C479 C 0.46037 0.12678 0.28389 0.0
C480 C 0.44528 0.17226 0.2803 0.0
H481 H 0.42349 0.11866 0.28573 0.0
C482 C 0.37107 0.12227 0.28831 0.0
O483 O 0.35074 0.14847 0.32121 0.0
O484 O 0.38879 0.14054 0.32023 0.0
N485 N 0.41314 0.19765 0.28012 0.0
C486 C 0.40295 0.21921 0.27879 0.0
C487 C 0.41716 0.23886 0.27641 0.0
C488 C 0.44163 0.23611 0.27534 0.0
C489 C 0.45173 0.21379 0.27683 0.0
C490 C 0.43665 0.1948 0.27901 0.0
H491 H 0.38411 0.22139 0.27945 0.0
O492 O 0.38404 0.18819 0.31433 0.0
O493 O 0.39806 0.16943 0.2989 0.0
O494 O 0.34774 0.17634 0.2975 0.0
O495 O 0.3666 0.1818 0.28035 0.0
C496 C 0.47616 0.20964 0.27625 0.0
C497 C 0.48505 0.18666 0.27788 0.0
H498 H 0.49562 0.14017 0.2816 0.0
H499 H 0.46607 0.10883 0.28535 0.0
H500 H 0.40924 0.25605 0.2753 0.0
H501 H 0.45246 0.25126 0.27332 0.0
H502 H 0.48828 0.22402 0.27466 0.0
H503 H 0.50389 0.18372 0.27754 0.0
Mn504 Mn 0.60281 0.62029 0.05566 0.0
Mn505 Mn 0.59549 0.64688 0.02928 0.0
C506 C 0.57419 0.64901 0.05332 0.0
C507 C 0.61997 0.61771 0.07436 0.0
C508 C 0.57619 0.59848 0.03468 0.0
O509 O 0.63356 0.61227 0.04724 0.0
O510 O 0.62612 0.63006 0.02992 0.0
C511 C 0.63356 0.68212 0.03194 0.0
N512 N 0.61056 0.67694 0.02974 0.0
C513 C 0.60135 0.71779 0.02652 0.0
C514 C 0.62497 0.72355 0.02868 0.0
C515 C 0.64113 0.70563 0.03144 0.0
C516 C 0.59484 0.69405 0.02718 0.0
H517 H 0.64604 0.66841 0.03405 0.0
C518 C 0.63925 0.61777 0.03672 0.0
O519 O 0.61081 0.59944 0.06924 0.0
O520 O 0.62011 0.63717 0.06839 0.0
N521 N 0.56687 0.6641 0.02713 0.0
C522 C 0.5446 0.65567 0.02567 0.0
C523 C 0.52635 0.67131 0.02276 0.0
C524 C 0.53123 0.69537 0.02129 0.0
C525 C 0.55423 0.70365 0.02291 0.0
C526 C 0.57176 0.6872 0.02563 0.0
H527 H 0.54083 0.63714 0.02664 0.0
O528 O 0.57264 0.63355 0.06168 0.0
O529 O 0.5926 0.6474 0.04653 0.0
O530 O 0.58454 0.59714 0.04511 0.0
O531 O 0.57903 0.61641 0.02805 0.0
C532 C 0.56044 0.7276 0.02199 0.0
C533 C 0.58396 0.73468 0.02387 0.0
H534 H 0.63087 0.74166 0.0283 0.0
H535 H 0.65937 0.70995 0.03316 0.0
H536 H 0.50859 0.66481 0.02158 0.0
H537 H 0.51715 0.70737 0.01896 0.0
H538 H 0.54722 0.74074 0.01996 0.0
H539 H 0.58847 0.75317 0.02328 0.0
Mn540 Mn 0.13753 0.85372 0.8052 0.0
Mn541 Mn 0.11378 0.84981 0.778 0.0
C542 C 0.10751 0.827 0.80138 0.0
C543 C 0.13931 0.869 0.82435 0.0
C544 C 0.16025 0.82742 0.78437 0.0
O545 O 0.148 0.88476 0.7977 0.0
O546 O 0.13245 0.8791 0.77968 0.0
C547 C 0.08091 0.89006 0.78016 0.0
N548 N 0.08481 0.86687 0.7778 0.0
C549 C 0.04439 0.86111 0.77218 0.0
C550 C 0.03992 0.88493 0.77451 0.0
C551 C 0.05823 0.89943 0.7786 0.0
C552 C 0.06721 0.85267 0.77413 0.0
H553 H 0.09501 0.90133 0.78314 0.0
C554 C 0.14438 0.89119 0.78708 0.0
O555 O 0.15746 0.85929 0.81941 0.0
O556 O 0.12038 0.87073 0.81799 0.0
N557 N 0.09503 0.82261 0.77485 0.0
C558 C 0.10214 0.79991 0.77334 0.0
C559 C 0.0859 0.78306 0.76935 0.0
C560 C 0.06272 0.78986 0.76669 0.0
C561 C 0.05586 0.81338 0.76824 0.0
C562 C 0.07271 0.82928 0.77241 0.0
H563 H 0.12011 0.79474 0.77508 0.0
O564 O 0.12191 0.82378 0.8101 0.0
O565 O 0.11092 0.84588 0.79512 0.0
O566 O 0.1609 0.8352 0.79491 0.0
O567 O 0.14316 0.83144 0.77735 0.0
C568 C 0.033 0.8217 0.76575 0.0
C569 C 0.02716 0.84545 0.7679 0.0
H570 H 0.02252 0.89228 0.77319 0.0
H571 H 0.05493 0.91783 0.78043 0.0
H572 H 0.09133 0.76495 0.76818 0.0
H573 H 0.05033 0.77686 0.76347 0.0
H574 H 0.01968 0.80991 0.76231 0.0
H575 H 0.00942 0.85152 0.76616 0.0
Mn576 Mn 0.60423 0.88774 0.55732 0.0
Mn577 Mn 0.59775 0.86009 0.53118 0.0
C578 C 0.57675 0.85791 0.55513 0.0
C579 C 0.6212 0.89136 0.57601 0.0
C580 C 0.57782 0.90852 0.53607 0.0
O581 O 0.63476 0.89627 0.54879 0.0
O582 O 0.62845 0.87679 0.53177 0.0
C583 C 0.63554 0.82466 0.53414 0.0
N584 N 0.61251 0.82991 0.53207 0.0
C585 C 0.60278 0.78896 0.52969 0.0
C586 C 0.62642 0.78311 0.53175 0.0
C587 C 0.64284 0.80104 0.53403 0.0
C588 C 0.5965 0.81278 0.53002 0.0
H589 H 0.64824 0.83839 0.53585 0.0
C590 C 0.64102 0.88992 0.53846 0.0
O591 O 0.61154 0.9092 0.57074 0.0
O592 O 0.622 0.87174 0.57018 0.0
N593 N 0.56892 0.84304 0.52934 0.0
C594 C 0.54672 0.85161 0.52778 0.0
C595 C 0.52812 0.83591 0.52557 0.0
C596 C 0.5326 0.81165 0.5248 0.0
C597 C 0.55567 0.8033 0.52622 0.0
C598 C 0.57346 0.81976 0.52846 0.0
H599 H 0.5432 0.87026 0.52825 0.0
O600 O 0.57442 0.87344 0.56342 0.0
O601 O 0.59503 0.86028 0.54838 0.0
O602 O 0.58538 0.91005 0.54663 0.0
O603 O 0.58151 0.89063 0.52953 0.0
C604 C 0.5617 0.7793 0.5255 0.0
C605 C 0.58519 0.7721 0.52735 0.0
H606 H 0.63214 0.76492 0.53163 0.0
H607 H 0.66111 0.79666 0.53566 0.0
H608 H 0.51039 0.84251 0.52444 0.0
H609 H 0.51822 0.79959 0.52311 0.0
H610 H 0.54834 0.76619 0.52366 0.0
H611 H 0.58952 0.75354 0.52697 0.0
Mn612 Mn 0.36998 0.3508 0.80668 0.0
Mn613 Mn 0.39772 0.3421 0.78075 0.0
C614 C 0.39923 0.32252 0.80499 0.0
C615 C 0.36705 0.36894 0.82513 0.0
C616 C 0.34872 0.32368 0.78578 0.0
O617 O 0.36216 0.38098 0.79761 0.0
O618 O 0.38173 0.37317 0.7808 0.0
C619 C 0.43402 0.37919 0.78325 0.0
N620 N 0.42824 0.35618 0.78153 0.0
C621 C 0.46899 0.34532 0.7795 0.0
C622 C 0.47538 0.36892 0.7812 0.0
C623 C 0.45781 0.38591 0.78313 0.0
C624 C 0.44502 0.33965 0.77982 0.0
H625 H 0.42056 0.3923 0.78469 0.0
C626 C 0.36872 0.38643 0.78719 0.0
O627 O 0.3488 0.35964 0.82003 0.0
O628 O 0.3866 0.36878 0.81924 0.0
N629 N 0.4141 0.31278 0.77943 0.0
C630 C 0.40502 0.29073 0.77814 0.0
C631 C 0.42029 0.27164 0.77628 0.0
C632 C 0.44468 0.27548 0.77557 0.0
C633 C 0.45357 0.29839 0.7767 0.0
C634 C 0.43751 0.3167 0.77859 0.0
H635 H 0.38627 0.2877 0.77856 0.0
O636 O 0.38359 0.32101 0.81327 0.0
O637 O 0.39723 0.3404 0.79795 0.0
O638 O 0.34721 0.33187 0.79622 0.0
O639 O 0.36681 0.32655 0.77926 0.0
C640 C 0.47773 0.30379 0.776 0.0
C641 C 0.48546 0.3272 0.77752 0.0
H642 H 0.49371 0.37419 0.78107 0.0
H643 H 0.4626 0.40415 0.78448 0.0
H644 H 0.41328 0.25402 0.77537 0.0
H645 H 0.45641 0.26072 0.77415 0.0
H646 H 0.49054 0.29001 0.77446 0.0
H647 H 0.50413 0.33105 0.77716 0.0
Mn648 Mn 0.9088 0.1222 0.05603 0.0
Mn649 Mn 0.91096 0.1451 0.02858 0.0
C650 C 0.9347 0.15263 0.05175 0.0
C651 C 0.89395 0.12071 0.07526 0.0
C652 C 0.93417 0.09909 0.03512 0.0
O653 O 0.87785 0.11057 0.04875 0.0
O654 O 0.88156 0.12695 0.03079 0.0
C655 C 0.87131 0.17859 0.03094 0.0
N656 N 0.89432 0.1743 0.02836 0.0
C657 C 0.9004 0.21446 0.02241 0.0
C658 C 0.87674 0.21933 0.02496 0.0
C659 C 0.86218 0.20135 0.02933 0.0
C660 C 0.9086 0.19157 0.0244 0.0
H661 H 0.85999 0.16473 0.03414 0.0
C662 C 0.87033 0.11455 0.03832 0.0
O663 O 0.90407 0.10267 0.07042 0.0
O664 O 0.89154 0.13934 0.06874 0.0
N665 N 0.93829 0.16336 0.025 0.0
C666 C 0.96088 0.15594 0.02341 0.0
C667 C 0.97784 0.1719 0.01927 0.0
C668 C 0.97126 0.1951 0.01653 0.0
C669 C 0.94784 0.20227 0.01815 0.0
C670 C 0.93184 0.18571 0.02249 0.0
H671 H 0.96588 0.13797 0.02525 0.0
O672 O 0.93838 0.1388 0.06065 0.0
O673 O 0.91575 0.14851 0.04564 0.0
O674 O 0.92795 0.09915 0.04591 0.0
O675 O 0.92878 0.11532 0.02784 0.0
C676 C 0.93972 0.22515 0.01557 0.0
C677 C 0.91612 0.23135 0.01788 0.0
H678 H 0.86958 0.2368 0.02361 0.0
H679 H 0.84391 0.20496 0.03133 0.0
H680 H 0.99586 0.16625 0.01804 0.0
H681 H 0.98433 0.20728 0.0132 0.0
H682 H 0.95156 0.23822 1.01195 0.0
H683 H 0.91023 0.24913 0.01608 0.0
Mn684 Mn 0.13809 0.65718 0.30757 0.0
Mn685 Mn 0.11002 0.66461 0.28156 0.0
C686 C 0.10984 0.68656 0.3055 0.0
C687 C 0.14117 0.64019 0.32631 0.0
C688 C 0.15998 0.68137 0.28608 0.0
O689 O 0.14493 0.62614 0.299 0.0
O690 O 0.12357 0.63252 0.28258 0.0
C691 C 0.07116 0.63064 0.28526 0.0
N692 N 0.07859 0.65279 0.28258 0.0
C693 C 0.03881 0.66592 0.27939 0.0
C694 C 0.03073 0.64319 0.28201 0.0
C695 C 0.04697 0.62551 0.28501 0.0
C696 C 0.06311 0.66999 0.27982 0.0
H697 H 0.08359 0.61702 0.28758 0.0
C698 C 0.13661 0.61948 0.28907 0.0
O699 O 0.1594 0.64877 0.32093 0.0
O700 O 0.12142 0.64041 0.32056 0.0
N701 N 0.09573 0.69474 0.27926 0.0
C702 C 0.10634 0.71597 0.27749 0.0
C703 C 0.0926 0.73549 0.27429 0.0
C704 C 0.06816 0.73296 0.27288 0.0
C705 C 0.05759 0.71107 0.27496 0.0
C706 C 0.07222 0.69215 0.27791 0.0
H707 H 0.12517 0.71792 0.27836 0.0
O708 O 0.12568 0.6878 0.3137 0.0
O709 O 0.11086 0.66809 0.29875 0.0
O710 O 0.16112 0.67474 0.2968 0.0
O711 O 0.14194 0.6779 0.27959 0.0
C712 C 0.03311 0.70729 0.27422 0.0
C713 C 0.02371 0.68476 0.27652 0.0
H714 H 0.01209 0.63916 0.28184 0.0
H715 H 0.04086 0.60796 0.28712 0.0
H716 H 0.10085 0.7524 0.27279 0.0
H717 H 0.05765 0.748 0.27027 0.0
H718 H 0.02134 0.72165 0.27203 0.0
H719 H 0.00484 0.68214 0.2761 0.0
Mn720 Mn 0.60489 0.11856 0.97043 0.0
Mn721 Mn 0.59706 0.1451 0.99678 0.0
C722 C 0.57649 0.14758 0.97259 0.0
C723 C 0.62216 0.11595 0.95175 0.0
C724 C 0.5773 0.09701 0.99116 0.0
O725 O 0.6354 0.11015 0.97907 0.0
O726 O 0.62729 0.12763 0.99638 0.0
C727 C 0.63596 0.17951 0.99452 0.0
N728 N 0.61278 0.17483 0.99649 0.0
C729 C 0.60437 0.21583 0.99972 0.0
C730 C 0.62818 0.22109 0.99778 0.0
C731 C 0.64402 0.20285 0.99513 0.0
C732 C 0.59736 0.19226 0.99895 0.0
H733 H 0.64821 0.16555 0.9925 0.0
C734 C 0.6406 0.11529 0.98971 0.0
O735 O 0.61288 0.09771 0.95684 0.0
O736 O 0.62254 0.13534 0.95778 0.0
N737 N 0.56876 0.16292 0.99872 0.0
C738 C 0.54629 0.15495 1.00003 0.0
C739 C 0.52831 0.17095 1.00284 0.0
C740 C 0.53366 0.1949 1.00438 0.0
C741 C 0.55687 0.2027 1.00293 0.0
C742 C 0.57411 0.18589 1.00031 0.0
H743 H 0.54216 0.1365 0.99902 0.0
O744 O 0.57498 0.13214 0.96423 0.0
O745 O 0.59471 0.14578 0.97951 0.0
O746 O 0.58617 0.09554 0.98086 0.0
O747 O 0.57994 0.11497 0.99779 0.0
C748 C 0.56357 0.22649 1.00395 0.0
C749 C 0.58728 0.23308 1.00227 0.0
H750 H 0.63447 0.23907 0.99825 0.0
H751 H 0.66241 0.20678 0.99358 0.0
H752 H 0.5104 0.16482 1.0039 0.0
H753 H 0.51978 0.20718 1.00661 0.0
H754 H 0.55059 0.23989 1.00591 0.0
H755 H 0.59218 0.25146 1.00295 0.0
Mn756 Mn 0.1408 0.35394 0.21859 0.0
Mn757 Mn 0.1117 0.34442 0.24407 0.0
C758 C 0.11285 0.32423 0.21982 0.0
C759 C 0.14397 0.37243 0.20025 0.0
C760 C 0.16225 0.329 0.23996 0.0
O761 O 0.14682 0.38434 0.22785 0.0
O762 O 0.12427 0.37701 0.24377 0.0
C763 C 0.07186 0.37726 0.24041 0.0
N764 N 0.07993 0.35515 0.24269 0.0
C765 C 0.04045 0.34017 0.24443 0.0
C766 C 0.03171 0.36282 0.24217 0.0
C767 C 0.04749 0.38142 0.24011 0.0
C768 C 0.0649 0.33708 0.24457 0.0
H769 H 0.08395 0.39158 0.2388 0.0
C770 C 0.13771 0.39045 0.23769 0.0
O771 O 0.16231 0.36387 0.20558 0.0
O772 O 0.12412 0.37135 0.20586 0.0
N773 N 0.09842 0.31362 0.24557 0.0
C774 C 0.10971 0.29268 0.24718 0.0
C775 C 0.09648 0.2723 0.24941 0.0
C776 C 0.07183 0.27367 0.25005 0.0
C777 C 0.06058 0.29535 0.24826 0.0
C778 C 0.07471 0.31513 0.24623 0.0
H779 H 0.12866 0.29155 0.24685 0.0
O780 O 0.12894 0.32363 0.21174 0.0
O781 O 0.11358 0.34215 0.22691 0.0
O782 O 0.16367 0.33591 0.22929 0.0
O783 O 0.14396 0.33211 0.24631 0.0
C784 C 0.03593 0.29812 0.2484 0.0
C785 C 0.02586 0.32048 0.2464 0.0
H786 H 0.01293 0.3661 0.24193 0.0
H787 H 0.04088 0.39892 0.23831 0.0
H788 H 0.10527 0.25561 0.25074 0.0
H789 H 0.06174 0.25795 0.25193 0.0
H790 H 0.02454 0.28311 0.24989 0.0
H791 H 0.00688 0.32233 0.24636 0.0
Mn792 Mn 0.90528 0.88818 0.46865 0.0
Mn793 Mn 0.91747 0.86283 0.49494 0.0
C794 C 0.93405 0.85937 0.46986 0.0
C795 C 0.8854 0.89002 0.45062 0.0
C796 C 0.93436 0.91155 0.48824 0.0
O797 O 0.87603 0.8959 0.4783 0.0
O798 O 0.88594 0.8782 0.49536 0.0
C799 C 0.88088 0.82571 0.49521 0.0
N800 N 0.90392 0.83214 0.49603 0.0
C801 C 0.91571 0.79234 0.50029 0.0
C802 C 0.89208 0.78531 0.49957 0.0
C803 C 0.8746 0.80206 0.49699 0.0
C804 C 0.92087 0.8162 0.49858 0.0
H805 H 0.8674 0.83853 0.49324 0.0
C806 C 0.87165 0.89009 0.48894 0.0
O807 O 0.89477 0.90859 0.45533 0.0
O808 O 0.88638 0.87069 0.45669 0.0
N809 N 0.94719 0.84709 0.49583 0.0
C810 C 0.96925 0.85627 0.49483 0.0
C811 C 0.98887 0.84154 0.49638 0.0
C812 C 0.9856 0.81761 0.49903 0.0
C813 C 0.96271 0.80858 0.50006 0.0
C814 C 0.94383 0.82413 0.49847 0.0
H815 H 0.97184 0.87466 0.49278 0.0
O816 O 0.93435 0.87494 0.4615 0.0
O817 O 0.91709 0.86134 0.47755 0.0
O818 O 0.92482 0.91217 0.47808 0.0
O819 O 0.93267 0.8939 0.4951 0.0
C820 C 0.95788 0.78462 0.50217 0.0
C821 C 0.9344 0.77651 0.50229 0.0
H822 H 0.88719 0.76705 0.50082 0.0
H823 H 0.85635 0.79674 0.49636 0.0
H824 H 0.00648 0.8486 0.49551 0.0
H825 H 1.00078 0.80625 0.5001 0.0
H826 H 0.97212 0.77218 0.50343 0.0
H827 H 0.93095 0.75795 0.50366 0.0
Mn828 Mn 0.37267 0.65529 0.72102 0.0
Mn829 Mn 0.39602 0.65901 0.7483 0.0
C830 C 0.40196 0.68265 0.72511 0.0
C831 C 0.37163 0.6403 0.70182 0.0
C832 C 0.34904 0.68041 0.74195 0.0
O833 O 0.36289 0.62383 0.7283 0.0
O834 O 0.37826 0.62922 0.74635 0.0
C835 C 0.43003 0.61976 0.74599 0.0
N836 N 0.42546 0.64276 0.74848 0.0
C837 C 0.46557 0.64944 0.75438 0.0
C838 C 0.47074 0.62581 0.7519 0.0
C839 C 0.45292 0.61096 0.74761 0.0
C840 C 0.44258 0.65733 0.75236 0.0
H841 H 0.41631 0.6082 0.74285 0.0
C842 C 0.36668 0.61705 0.73885 0.0
O843 O 0.35307 0.64931 0.70672 0.0
O844 O 0.39054 0.63916 0.70823 0.0
N845 N 0.41397 0.68664 0.75169 0.0
C846 C 0.40624 0.70912 0.75328 0.0
C847 C 0.42197 0.72631 0.75741 0.0
C848 C 0.44526 0.72005 0.76017 0.0
C849 C 0.45275 0.69674 0.75855 0.0
C850 C 0.43642 0.6805 0.7542 0.0
H851 H 0.38818 0.71386 0.75146 0.0
O852 O 0.38759 0.68576 0.71636 0.0
O853 O 0.39892 0.66354 0.73123 0.0
O854 O 0.34869 0.67294 0.73135 0.0
O855 O 0.36613 0.67654 0.74899 0.0
C856 C 0.47574 0.68894 0.76115 0.0
C857 C 0.48226 0.66542 0.75888 0.0
H858 H 0.4883 0.61889 0.75328 0.0
H859 H 0.45676 0.5927 0.74567 0.0
H860 H 0.41606 0.74425 0.75864 0.0
H861 H 0.45726 0.7333 0.7635 0.0
H862 H 0.48867 0.70099 0.76475 0.0
H863 H 0.50012 0.65978 0.76069 0.0
Mn864 Mn 0.40745 0.12032 0.47027 0.0
Mn865 Mn 0.41143 0.14373 0.49752 0.0
C866 C 0.43439 0.15008 0.4742 0.0
C867 C 0.39202 0.11887 0.45116 0.0
C868 C 0.43355 0.09721 0.49109 0.0
O869 O 0.37631 0.11008 0.47769 0.0
O870 O 0.38205 0.12522 0.49577 0.0
C871 C 0.37132 0.17679 0.49538 0.0
N872 N 0.39448 0.17276 0.49776 0.0
C873 C 0.40036 0.21304 0.50356 0.0
C874 C 0.37655 0.21764 0.5012 0.0
C875 C 0.36202 0.19946 0.49701 0.0
C876 C 0.40873 0.19023 0.50153 0.0
H877 H 0.36001 0.16279 0.49231 0.0
C878 C 0.36988 0.11352 0.48831 0.0
O879 O 0.4015 0.10053 0.45606 0.0
O880 O 0.39074 0.13783 0.45751 0.0
N881 N 0.4387 0.16233 0.50075 0.0
C882 C 0.46139 0.15512 0.50226 0.0
C883 C 0.47828 0.17123 0.50633 0.0
C884 C 0.47154 0.19437 0.50909 0.0
C885 C 0.44804 0.20133 0.50754 0.0
C886 C 0.43209 0.18462 0.50327 0.0
H887 H 0.4665 0.13717 0.50044 0.0
O888 O 0.43757 0.13573 0.46546 0.0
O889 O 0.41547 0.14673 0.48042 0.0
O890 O 0.4257 0.09666 0.48055 0.0
O891 O 0.42968 0.11429 0.49812 0.0
C892 C 0.43977 0.22415 0.51013 0.0
C893 C 0.41605 0.23011 0.50796 0.0
H894 H 0.36926 0.23504 0.50259 0.0
H895 H 0.34363 0.20287 0.49515 0.0
H896 H 0.49637 0.16573 0.50751 0.0
H897 H 0.48457 0.20665 0.51238 0.0
H898 H 0.45159 0.23735 0.51366 0.0
H899 H 0.41003 0.24784 0.50978 0.0
Mn900 Mn 0.63835 0.65735 0.21785 0.0
Mn901 Mn 0.61056 0.66527 0.24385 0.0
C902 C 0.60941 0.68591 0.21968 0.0
C903 C 0.64141 0.63956 0.19933 0.0
C904 C 0.65992 0.68314 0.23901 0.0
O905 O 0.64604 0.62696 0.22675 0.0
O906 O 0.62541 0.63365 0.24336 0.0
C907 C 0.57291 0.62975 0.24076 0.0
N908 N 0.57954 0.65238 0.24292 0.0
C909 C 0.53923 0.66462 0.24517 0.0
C910 C 0.53195 0.64142 0.24302 0.0
C911 C 0.54887 0.62394 0.24077 0.0
C912 C 0.56341 0.66937 0.245 0.0
H913 H 0.58587 0.61628 0.23903 0.0
C914 C 0.6387 0.62073 0.23693 0.0
O915 O 0.65957 0.64884 0.20451 0.0
O916 O 0.6218 0.63956 0.20518 0.0
N917 N 0.59528 0.69507 0.24564 0.0
C918 C 0.60521 0.71667 0.24725 0.0
C919 C 0.59074 0.73606 0.24976 0.0
C920 C 0.56628 0.73302 0.25068 0.0
C921 C 0.55645 0.71066 0.2489 0.0
C922 C 0.57177 0.69193 0.2466 0.0
H923 H 0.62403 0.71907 0.24672 0.0
O924 O 0.62503 0.68733 0.21139 0.0
O925 O 0.61112 0.66783 0.22664 0.0
O926 O 0.66114 0.67594 0.22839 0.0
O927 O 0.642 0.67968 0.24557 0.0
C928 C 0.53205 0.70624 0.2493 0.0
C929 C 0.52343 0.68326 0.24736 0.0
H930 H 0.51343 0.63686 0.24302 0.0
H931 H 0.54339 0.60601 0.23906 0.0
H932 H 0.59845 0.75328 0.2511 0.0
H933 H 0.55524 0.74795 0.25281 0.0
H934 H 0.51975 0.72043 0.25097 0.0
H935 H 0.50463 0.68012 0.24755 0.0
Mn936 Mn 0.10448 0.88861 0.9687 0.0
Mn937 Mn 0.09669 0.86223 0.99505 0.0
C938 C 0.07568 0.86006 0.97103 0.0
C939 C 0.12097 0.89109 0.94984 0.0
C940 C 0.07702 0.91013 0.98952 0.0
O941 O 0.13543 0.89628 0.97701 0.0
O942 O 0.12639 0.88078 0.99466 0.0
C943 C 0.13689 0.82925 0.9928 0.0
N944 N 0.11355 0.83308 0.99479 0.0
C945 C 0.10672 0.79178 0.99803 0.0
C946 C 0.1307 0.78741 0.99608 0.0
C947 C 0.14583 0.80623 0.99341 0.0
C948 C 0.09881 0.81508 0.99726 0.0
H949 H 0.14861 0.84362 0.99076 0.0
C950 C 0.14011 0.89228 0.98782 0.0
O951 O 0.11231 0.90946 0.95507 0.0
O952 O 0.12118 0.87162 0.95581 0.0
N953 N 0.06912 0.84331 0.99706 0.0
C954 C 0.04636 0.85039 0.99838 0.0
C955 C 0.02904 0.83374 1.00125 0.0
C956 C 0.03528 0.80999 1.00274 0.0
C957 C 0.05878 0.8031 1.0013 0.0
C958 C 0.07535 0.82056 0.99866 0.0
H959 H 0.04149 0.86859 0.99727 0.0
O960 O 0.07403 0.87575 0.96279 0.0
O961 O 0.09419 0.86142 0.97779 0.0
O962 O 0.08691 0.91201 0.97946 0.0
O963 O 0.07841 0.89172 0.99594 0.0
C964 C 0.06638 0.77958 1.00231 0.0
C965 C 0.09031 0.7739 1.00061 0.0
H966 H 0.13766 0.76969 0.99656 0.0
H967 H 0.16434 0.803 0.99186 0.0
H968 H 0.0109 0.83919 1.0023 0.0
H969 H 0.02186 0.79717 1.00492 0.0
H970 H 0.05392 0.76569 1.00428 0.0
H971 H 0.09591 0.75572 1.00129 0.0
Mn972 Mn 0.87143 0.35373 0.7206 0.0
Mn973 Mn 0.89656 0.34831 0.74743 0.0
C974 C 0.90059 0.32559 0.72393 0.0
C975 C 0.86971 0.36968 0.70159 0.0
C976 C 0.84841 0.32857 0.74161 0.0
O977 O 0.86251 0.38503 0.72846 0.0
O978 O 0.88047 0.37901 0.74585 0.0
C979 C 0.93251 0.38574 0.74488 0.0
N980 N 0.92678 0.363 0.74739 0.0
C981 C 0.96643 0.35439 0.75344 0.0
C982 C 0.97277 0.37774 0.75098 0.0
C983 C 0.95577 0.39342 0.74658 0.0
C984 C 0.94313 0.34761 0.7513 0.0
H985 H 0.9194 0.39793 0.74168 0.0
C986 C 0.86838 0.39174 0.7388 0.0
O987 O 0.85123 0.36078 0.70662 0.0
O988 O 0.88891 0.37024 0.70778 0.0
N989 N 0.91319 0.31969 0.75042 0.0
C990 C 0.90445 0.29753 0.75179 0.0
C991 C 0.91932 0.27955 0.75589 0.0
C992 C 0.94278 0.2847 0.75885 0.0
C993 C 0.95133 0.3077 0.75743 0.0
C994 C 0.93586 0.32473 0.75304 0.0
H995 H 0.88623 0.29367 0.74987 0.0
O996 O 0.88569 0.32322 0.71535 0.0
O997 O 0.89816 0.3444 0.73031 0.0
O998 O 0.84775 0.33591 0.731 0.0
O999 O 0.86584 0.33225 0.74846 0.0
C1000 C 0.97454 0.31444 0.76026 0.0
C1001 C 0.98222 0.33764 0.75806 0.0
H1002 H 0.99061 0.38381 0.75244 0.0
H1003 H 0.96052 0.41146 0.74464 0.0
H1004 H 0.9126 0.26185 0.75696 0.0
H1005 H 0.95411 0.27086 0.76216 0.0
H1006 H 0.9868 0.30177 0.76391 0.0
H1007 H 1.00028 0.34243 0.76 0.0
Mn1008 Mn 0.40556 0.88874 0.05799 0.0
Mn1009 Mn 0.41235 0.86131 0.03182 0.0
C1010 C 0.43334 0.85915 0.05579 0.0
C1011 C 0.38868 0.89181 0.07674 0.0
C1012 C 0.43171 0.90998 0.03682 0.0
O1013 O 0.37497 0.89713 0.04938 0.0
O1014 O 0.38139 0.87749 0.03244 0.0
C1015 C 0.37514 0.82526 0.0347 0.0
N1016 N 0.39808 0.83089 0.03266 0.0
C1017 C 0.40848 0.79011 0.03025 0.0
C1018 C 0.38494 0.78387 0.03227 0.0
C1019 C 0.36822 0.80153 0.03455 0.0
C1020 C 0.41436 0.81403 0.0306 0.0
H1021 H 0.36222 0.83878 0.03641 0.0
C1022 C 0.36868 0.89058 0.03907 0.0
O1023 O 0.39805 0.90988 0.07154 0.0
O1024 O 0.38795 0.87235 0.07078 0.0
N1025 N 0.44145 0.84474 0.02998 0.0
C1026 C 0.46351 0.85367 0.02843 0.0
C1027 C 0.48235 0.83828 0.02621 0.0
C1028 C 0.47826 0.81395 0.02542 0.0
C1029 C 0.45535 0.80523 0.02682 0.0
C1030 C 0.43729 0.82138 0.02907 0.0
H1031 H 0.46672 0.87237 0.02892 0.0
O1032 O 0.4355 0.87462 0.06411 0.0
O1033 O 0.41506 0.86145 0.04901 0.0
O1034 O 0.42424 0.91134 0.0474 0.0
O1035 O 0.4281 0.89213 0.03023 0.0
C1036 C 0.44971 0.78113 0.02608 0.0
C1037 C 0.42634 0.77355 0.0279 0.0
H1038 H 0.37952 0.7656 0.03212 0.0
H1039 H 0.35003 0.79685 0.03615 0.0
H1040 H 0.49997 0.84517 0.02509 0.0
H1041 H 0.49284 0.80213 0.02372 0.0
H1042 H 0.46328 0.76824 0.02425 0.0
H1043 H 0.42232 0.75493 0.0275 0.0
Mn1044 Mn 0.86964 0.65678 0.80801 0.0
Mn1045 Mn 0.89858 0.66515 0.78239 0.0
C1046 C 0.89858 0.6855 0.80666 0.0
C1047 C 0.8662 0.63813 0.8263 0.0
C1048 C 0.84855 0.68208 0.78672 0.0
O1049 O 0.86212 0.62681 0.79868 0.0
O1050 O 0.88538 0.63281 0.78287 0.0
C1051 C 0.93787 0.63167 0.78608 0.0
N1052 N 0.93017 0.65386 0.78368 0.0
C1053 C 0.96989 0.66806 0.78167 0.0
C1054 C 0.97825 0.6453 0.78401 0.0
C1055 C 0.96216 0.62705 0.78627 0.0
C1056 C 0.9455 0.67159 0.78163 0.0
H1057 H 0.92555 0.61763 0.78786 0.0
C1058 C 0.8712 0.62013 0.78894 0.0
O1059 O 0.84813 0.64765 0.82115 0.0
O1060 O 0.88591 0.63841 0.82054 0.0
N1061 N 0.91241 0.69568 0.78072 0.0
C1062 C 0.90149 0.71679 0.77908 0.0
C1063 C 0.91504 0.73688 0.77668 0.0
C1064 C 0.93964 0.73504 0.77592 0.0
C1065 C 0.95052 0.71317 0.77773 0.0
C1066 C 0.93607 0.6937 0.77992 0.0
H1067 H 0.88256 0.71829 0.7795 0.0
O1068 O 0.88279 0.68652 0.81488 0.0
O1069 O 0.89708 0.66765 0.79956 0.0
O1070 O 0.84729 0.67576 0.79749 0.0
O1071 O 0.86649 0.67803 0.78025 0.0
C1072 C 0.97511 0.70994 0.77748 0.0
C1073 C 0.9848 0.68743 0.77953 0.0
H1074 H 0.99697 0.64167 0.78418 0.0
H1075 H 0.96848 0.60948 0.78816 0.0
H1076 H 0.90654 0.75372 0.77533 0.0
H1077 H 0.94999 0.75053 0.7739 0.0
H1078 H 0.98675 0.72471 0.77587 0.0
H1079 H 1.00374 0.68523 0.77949 0.0
Mn1080 Mn 0.10306 0.1212 0.55531 0.0
Mn1081 Mn 0.09619 0.14945 0.52933 0.0
C1082 C 0.07462 0.15019 0.55336 0.0
C1083 C 0.12017 0.11757 0.57399 0.0
C1084 C 0.07672 0.10074 0.53395 0.0
O1085 O 0.13369 0.11332 0.54677 0.0
O1086 O 0.12691 0.1328 0.52986 0.0
C1087 C 0.13398 0.18476 0.53265 0.0
N1088 N 0.11105 0.17957 0.53029 0.0
C1089 C 0.10165 0.2205 0.52754 0.0
C1090 C 0.1252 0.22629 0.52988 0.0
C1091 C 0.14141 0.20833 0.53249 0.0
C1092 C 0.09527 0.19671 0.52786 0.0
H1093 H 0.1465 0.17101 0.53465 0.0
C1094 C 0.13977 0.11977 0.53644 0.0
O1095 O 0.11092 0.09961 0.56864 0.0
O1096 O 0.12048 0.13731 0.56824 0.0
N1097 N 0.06749 0.16661 0.52732 0.0
C1098 C 0.04529 0.15813 0.52568 0.0
C1099 C 0.02699 0.1738 0.5229 0.0
C1100 C 0.03175 0.19796 0.52174 0.0
C1101 C 0.05468 0.20629 0.52355 0.0
C1102 C 0.07227 0.1898 0.52612 0.0
H1103 H 0.04161 0.13954 0.5264 0.0
O1104 O 0.073 0.13432 0.56152 0.0
O1105 O 0.09304 0.14887 0.54656 0.0
O1106 O 0.08466 0.09882 0.54443 0.0
O1107 O 0.07994 0.11897 0.52757 0.0
C1108 C 0.06076 0.23031 0.52296 0.0
C1109 C 0.0842 0.23742 0.52502 0.0
H1110 H 0.13099 0.24445 0.52977 0.0
H1111 H 0.15959 0.21266 0.53435 0.0
H1112 H 0.00928 0.16727 0.52158 0.0
H1113 H 0.01762 0.21 0.51953 0.0
H1114 H 0.04749 0.24347 0.52105 0.0
H1115 H 0.08861 0.25596 0.52469 0.0
Mn1116 Mn 0.63935 0.35431 0.30464 0.0
Mn1117 Mn 0.616 0.35011 0.27737 0.0
C1118 C 0.60934 0.3276 0.30079 0.0
C1119 C 0.64086 0.36991 0.32372 0.0
C1120 C 0.66235 0.32772 0.28397 0.0
O1121 O 0.64997 0.38522 0.29708 0.0
O1122 O 0.63469 0.3794 0.27902 0.0
C1123 C 0.58318 0.39045 0.27928 0.0
N1124 N 0.58707 0.36723 0.27701 0.0
C1125 C 0.54671 0.36148 0.27127 0.0
C1126 C 0.54227 0.38534 0.27351 0.0
C1127 C 0.56055 0.39985 0.27761 0.0
C1128 C 0.56949 0.35301 0.27333 0.0
H1129 H 0.59727 0.40173 0.28227 0.0
C1130 C 0.64651 0.39156 0.28643 0.0
O1131 O 0.65906 0.36006 0.3189 0.0
O1132 O 0.62203 0.37154 0.31728 0.0
N1133 N 0.59724 0.3229 0.27424 0.0
C1134 C 0.60431 0.30016 0.27284 0.0
C1135 C 0.58806 0.28328 0.26889 0.0
C1136 C 0.56493 0.2901 0.26613 0.0
C1137 C 0.55812 0.31366 0.26755 0.0
C1138 C 0.57496 0.32959 0.27171 0.0
H1139 H 0.62224 0.29497 0.27466 0.0
O1140 O 0.62359 0.32446 0.30958 0.0
O1141 O 0.61289 0.34639 0.29448 0.0
O1142 O 0.66285 0.33562 0.29449 0.0
O1143 O 0.64537 0.33168 0.27688 0.0
C1144 C 0.53533 0.32201 0.26494 0.0
C1145 C 0.52951 0.34581 0.26698 0.0
H1146 H 0.5249 0.39271 0.2721 0.0
H1147 H 0.55727 0.41828 0.27937 0.0
H1148 H 0.59345 0.26514 0.2678 0.0
H1149 H 0.55253 0.27708 0.26294 0.0
H1150 H 0.52202 0.31021 0.2615 0.0
H1151 H 0.51181 0.35189 0.26516 0.0
H1152 H 0.94695 0.55825 0.97984 0.0
H1153 H 0.97163 0.52681 0.9879 0.0
H1154 H 0.97856 0.56526 0.02042 0.0
H1155 H 0.9538 0.59663 1.01255 0.0
H1156 H 0.01824 0.53026 0.99613 0.0
H1157 H 0.95821 0.49976 0.03152 0.0
H1158 H 0.94839 0.5182 0.01953 0.0
H1159 H 0.96414 0.53081 0.03173 0.0
C1160 C 0.95355 0.55998 0.98874 0.0
C1161 C 0.94821 0.58 0.99555 0.0
C1162 C 0.9677 0.54199 0.99333 0.0
C1163 C 0.97666 0.54354 1.00482 0.0
C1164 C 0.97144 0.56346 1.01162 0.0
H1165 H 0.0675 0.45394 0.04762 0.0
H1166 H 0.0437 0.48639 0.03987 0.0
C1167 C 0.95733 0.58145 1.00706 0.0
C1168 C 0.99213 0.52471 1.00957 0.0
H1169 H 0.99698 0.4842 0.03168 0.0
C1170 C 0.01356 0.52011 1.00387 0.0
C1171 C 0.98604 0.51159 0.01971 0.0
C1172 C 0.96286 0.51514 0.02594 0.0
C1173 C 0.02921 0.50293 1.00812 0.0
C1174 C 0.02307 0.48973 0.01823 0.0
C1175 C 1.00169 0.49441 0.02396 0.0
C1176 C 0.03824 0.47047 0.02278 0.0
C1177 C 0.05237 0.49935 1.00187 0.0
C1178 C 0.04296 0.45071 0.01578 0.0
C1179 C 0.05655 0.43216 0.02016 0.0
C1180 C 0.06565 0.43288 0.0317 0.0
C1181 C 0.06092 0.45278 0.03869 0.0
C1182 C 0.04726 0.47135 0.03429 0.0
H1183 H 0.0572 0.5149 0.99646 0.0
H1184 H 0.06678 0.49585 1.00825 0.0
H1185 H 0.0509 0.48394 0.99592 0.0
H1186 H 0.03577 0.44942 1.00697 0.0
H1187 H 0.05962 0.41711 0.01452 0.0
H1188 H 0.66347 0.70251 0.26103 0.0
H1189 H 0.69543 0.72636 0.26898 0.0
H1190 H 0.73348 0.71941 0.23636 0.0
H1191 H 0.70164 0.69521 0.22829 0.0
H1192 H 0.7613 0.71217 0.25674 0.0
H1193 H 0.70952 0.79484 0.25987 0.0
H1194 H 0.69623 0.76997 0.26701 0.0
H1195 H 0.69985 0.76988 0.2513 0.0
C1196 C 0.67861 0.70595 0.2555 0.0
C1197 C 0.67985 0.69695 0.24396 0.0
C1198 C 0.69682 0.71976 0.26006 0.0
C1199 C 0.71662 0.72501 0.25319 0.0
C1200 C 0.71824 0.71569 0.24178 0.0
H1201 H 0.84533 0.80447 0.2644 0.0
H1202 H 0.81359 0.78016 0.25659 0.0
C1203 C 0.7 0.70186 0.23718 0.0
C1204 C 0.73574 0.74003 0.25798 0.0
H1205 H 0.74736 0.795 0.26874 0.0
C1206 C 0.75831 0.73032 0.25931 0.0
C1207 C 0.73175 0.76367 0.26137 0.0
C1208 C 0.70809 0.77533 0.25973 0.0
C1209 C 0.77691 0.74348 0.26412 0.0
C1210 C 0.77293 0.76714 0.2675 0.0
C1211 C 0.75036 0.77685 0.26618 0.0
C1212 C 0.79206 0.78223 0.27225 0.0
C1213 C 0.80053 0.73177 0.2658 0.0
C1214 C 0.79021 0.79212 0.28353 0.0
C1215 C 0.8083 0.80625 0.28803 0.0
C1216 C 0.82857 0.81089 0.28129 0.0
C1217 C 0.83011 0.80123 0.26989 0.0
C1218 C 0.81202 0.78715 0.26542 0.0
H1219 H 0.79899 0.71227 0.26584 0.0
H1220 H 0.81232 0.73679 0.25843 0.0
H1221 H 0.80892 0.73746 0.27416 0.0
H1222 H 0.77486 0.78867 0.28892 0.0
H1223 H 0.80645 0.8134 0.29682 0.0
H1224 H 0.5634 0.45207 0.47801 0.0
H1225 H 0.53919 0.48371 0.48626 0.0
H1226 H 0.53416 0.44586 0.51905 0.0
H1227 H 0.55842 0.41437 0.51101 0.0
H1228 H 0.49304 0.48013 0.49505 0.0
H1229 H 0.55446 0.51162 0.52966 0.0
H1230 H 0.56385 0.49306 0.51765 0.0
H1231 H 0.54885 0.48053 0.53009 0.0
C1232 C 0.55736 0.45055 0.48702 0.0
C1233 C 0.56303 0.43064 0.49384 0.0
C1234 C 0.54347 0.46865 0.49171 0.0
C1235 C 0.53514 0.4673 0.50332 0.0
C1236 C 0.54079 0.44752 0.51015 0.0
H1237 H 0.44481 0.55575 0.54697 0.0
H1238 H 0.46896 0.52369 0.53905 0.0
C1239 C 0.55461 0.42944 0.50549 0.0
C1240 C 0.51975 0.48608 0.50817 0.0
H1241 H 0.5154 0.52653 0.53033 0.0
C1242 C 0.49798 0.49037 0.50272 0.0
C1243 C 0.52615 0.49931 0.51824 0.0
C1244 C 0.54968 0.4961 0.52421 0.0
C1245 C 0.48228 0.50731 0.50716 0.0
C1246 C 0.48871 0.52059 0.51719 0.0
C1247 C 0.51045 0.51625 0.52267 0.0
C1248 C 0.47348 0.53964 0.5219 0.0
C1249 C 0.45876 0.51052 0.50118 0.0
C1250 C 0.46817 0.55931 0.51493 0.0
C1251 C 0.4544 0.57761 0.51941 0.0
C1252 C 0.4457 0.57676 0.53101 0.0
C1253 C 0.45107 0.55699 0.53799 0.0
C1254 C 0.46492 0.53866 0.53349 0.0
H1255 H 0.4539 0.4949 0.49582 0.0
H1256 H 0.44462 0.51379 0.50772 0.0
H1257 H 0.45968 0.52595 0.4952 0.0
H1258 H 0.47498 0.56069 0.50606 0.0
H1259 H 0.45083 0.59256 0.51377 0.0
H1260 H 0.84413 0.3084 0.76341 0.0
H1261 H 0.81233 0.28356 0.77072 0.0
H1262 H 0.77546 0.29145 0.73777 0.0
H1263 H 0.80739 0.31617 0.73025 0.0
H1264 H 0.76472 0.29345 0.77354 0.0
H1265 H 0.77794 0.21993 0.74202 0.0
H1266 H 0.79949 0.24291 0.74412 0.0
H1267 H 0.77377 0.24823 0.73528 0.0
C1268 C 0.82928 0.30495 0.75767 0.0
C1269 C 0.82845 0.31429 0.74619 0.0
C1270 C 0.81109 0.2907 0.76189 0.0
C1271 C 0.7917 0.28534 0.75474 0.0
C1272 C 0.7905 0.29496 0.74336 0.0
H1273 H 0.66519 0.20249 0.76493 0.0
H1274 H 0.69674 0.22752 0.75751 0.0
C1275 C 0.80873 0.30923 0.73911 0.0
C1276 C 0.77269 0.26983 0.75928 0.0
H1277 H 0.74461 0.2175 0.75448 0.0
C1278 C 0.76036 0.27681 0.7694 0.0
C1279 C 0.76706 0.2481 0.75387 0.0
C1280 C 0.78037 0.23917 0.74328 0.0
C1281 C 0.74229 0.26285 0.77415 0.0
C1282 C 0.73667 0.24111 0.76875 0.0
C1283 C 0.74897 0.23415 0.75862 0.0
C1284 C 0.71779 0.22554 0.77335 0.0
C1285 C 0.72901 0.27173 0.78475 0.0
C1286 C 0.7193 0.21575 0.78468 0.0
C1287 C 0.70123 0.20136 0.78899 0.0
C1288 C 0.68133 0.19636 0.78202 0.0
C1289 C 0.68016 0.20591 0.77058 0.0
C1290 C 0.69822 0.22026 0.7663 0.0
H1291 H 0.73146 0.29096 0.78605 0.0
H1292 H 0.70988 0.26802 0.78391 0.0
H1293 H 0.73559 0.26261 0.79274 0.0
H1294 H 0.73447 0.21923 0.79019 0.0
H1295 H 0.70283 0.19427 0.7978 0.0
H1296 H 0.94326 0.45156 0.54641 0.0
H1297 H 0.9673 0.48319 0.53801 0.0
H1298 H 0.97458 0.44368 0.50583 0.0
H1299 H 0.95052 0.41221 0.51402 0.0
H1300 H 0.01391 0.48013 0.52971 0.0
H1301 H 0.95319 0.50834 0.49408 0.0
H1302 H 0.94373 0.49026 0.50626 0.0
H1303 H 0.95953 0.47737 0.49416 0.0
C1304 C 0.94979 0.44967 0.53751 0.0
C1305 C 0.94478 0.42932 0.5309 0.0
C1306 C 0.96357 0.46775 0.53273 0.0
C1307 C 0.97244 0.46595 0.52123 0.0
C1308 C 0.96752 0.44569 0.51463 0.0
H1309 H 0.06345 0.55538 0.47802 0.0
H1310 H 0.03943 0.52282 0.48562 0.0
C1311 C 0.95381 0.42763 0.51938 0.0
C1312 C 0.98759 0.48479 0.51626 0.0
H1313 H 0.99183 0.52429 0.49366 0.0
C1314 C 0.00903 0.48987 0.52186 0.0
C1315 C 0.98129 0.49734 0.50596 0.0
C1316 C 0.9581 0.49325 0.4998 0.0
C1317 C 0.02445 0.50699 0.51738 0.0
C1318 C 0.01808 0.51966 0.50714 0.0
C1319 C 0.99673 0.51448 0.50148 0.0
C1320 C 0.03283 0.53914 0.5025 0.0
C1321 C 0.04761 0.51114 0.52357 0.0
C1322 C 0.03679 0.55919 0.5094 0.0
C1323 C 0.05041 0.57774 0.50512 0.0
C1324 C 0.06037 0.57678 0.49377 0.0
C1325 C 0.05619 0.5567 0.48681 0.0
C1326 C 0.04245 0.5381 0.49113 0.0
H1327 H 0.0527 0.49589 0.52914 0.0
H1328 H 0.06193 0.51457 0.51714 0.0
H1329 H 0.04598 0.52677 0.52937 0.0
H1330 H 0.02914 0.56059 0.51811 0.0
H1331 H 0.05303 0.59291 0.51074 0.0
H1332 H 0.70249 0.81351 0.72868 0.0
H1333 H 0.73415 0.78841 0.73624 0.0
H1334 H 0.69778 0.78208 0.76937 0.0
H1335 H 0.666 0.80678 0.76192 0.0
H1336 H 0.76341 0.79436 0.75596 0.0
H1337 H 0.70935 0.71347 0.76017 0.0
H1338 H 0.69975 0.73878 0.75184 0.0
H1339 H 0.69723 0.73856 0.76762 0.0
C1340 C 0.7012 0.80682 0.73758 0.0
C1341 C 0.68155 0.81211 0.74465 0.0
C1342 C 0.71933 0.79246 0.74188 0.0
C1343 C 0.71809 0.78301 0.75328 0.0
C1344 C 0.69884 0.78872 0.76045 0.0
H1345 H 0.80719 0.6956 0.79731 0.0
H1346 H 0.77585 0.72003 0.78897 0.0
C1347 C 0.68073 0.80302 0.75618 0.0
C1348 C 0.73704 0.76741 0.75779 0.0
H1349 H 0.74743 0.71246 0.76888 0.0
C1350 C 0.75998 0.7764 0.75871 0.0
C1351 C 0.73249 0.74399 0.76139 0.0
C1352 C 0.70842 0.73301 0.76012 0.0
C1353 C 0.77839 0.76279 0.7634 0.0
C1354 C 0.7738 0.73943 0.76708 0.0
C1355 C 0.75089 0.73039 0.76609 0.0
C1356 C 0.79255 0.72409 0.77199 0.0
C1357 C 0.80248 0.77372 0.76466 0.0
C1358 C 0.81208 0.71785 0.76512 0.0
C1359 C 0.83002 0.70389 0.76984 0.0
C1360 C 0.82876 0.69574 0.78154 0.0
C1361 C 0.80883 0.70156 0.7883 0.0
C1362 C 0.79088 0.71554 0.78355 0.0
H1363 H 0.80172 0.79325 0.76423 0.0
H1364 H 0.81083 0.7685 0.77311 0.0
H1365 H 0.8139 0.76751 0.75737 0.0
H1366 H 0.81348 0.72384 0.7561 0.0
H1367 H 0.845 0.69972 0.76433 0.0
H1368 H 0.44516 0.45045 0.97836 0.0
H1369 H 0.46953 0.48243 0.98615 0.0
H1370 H 0.47771 0.44472 0.01882 0.0
H1371 H 0.45372 0.41261 1.01115 0.0
H1372 H 0.46292 0.51048 1.00635 0.0
H1373 H 0.5458 0.45901 1.00935 0.0
H1374 H 0.52063 0.44905 1.00101 0.0
H1375 H 0.5212 0.4458 0.01675 0.0
C1376 C 0.45213 0.44892 0.98721 0.0
C1377 C 0.44752 0.42881 0.99408 0.0
C1378 C 0.46606 0.46724 0.99164 0.0
C1379 C 0.47578 0.46577 1.00298 0.0
C1380 C 0.47082 0.446 1.00995 0.0
H1381 H 0.56462 0.55695 0.04575 0.0
H1382 H 0.53992 0.52504 0.03815 0.0
C1383 C 0.45693 0.4277 1.00555 0.0
C1384 C 0.49086 0.48501 1.00761 0.0
H1385 H 0.54603 0.49697 0.01806 0.0
C1386 C 0.48113 0.50758 1.00885 0.0
C1387 C 0.51459 0.48114 1.01092 0.0
C1388 C 0.5263 0.4575 1.00936 0.0
C1389 C 0.49435 0.52631 0.0135 0.0
C1390 C 0.51809 0.52245 0.0168 0.0
C1391 C 0.52782 0.49988 0.01557 0.0
C1392 C 0.53324 0.54172 0.02135 0.0
C1393 C 0.48263 0.54994 0.01508 0.0
C1394 C 0.53803 0.56148 0.01436 0.0
C1395 C 0.55211 0.57974 0.01865 0.0
C1396 C 0.56188 0.57859 0.03004 0.0
C1397 C 0.55739 0.55851 0.03696 0.0
C1398 C 0.54327 0.54024 0.03263 0.0
H1399 H 0.46313 0.54838 0.01519 0.0
H1400 H 0.48844 0.55849 0.02338 0.0
H1401 H 0.48753 0.56159 1.00764 0.0
H1402 H 0.53092 0.56277 1.00553 0.0
H1403 H 0.55522 0.59481 0.01303 0.0
H1404 H 0.84654 0.2014 0.26285 0.0
H1405 H 0.81424 0.22567 0.27012 0.0
H1406 H 0.77905 0.21953 0.23662 0.0
H1407 H 0.81117 0.1949 0.22926 0.0
H1408 H 0.79809 0.26855 0.26139 0.0
H1409 H 0.72758 0.20091 0.26004 0.0
H1410 H 0.75842 0.19354 0.25899 0.0
H1411 H 0.74297 0.20485 0.24638 0.0
C1412 C 0.83189 0.20502 0.25701 0.0
C1413 C 0.83146 0.196 0.24546 0.0
C1414 C 0.81345 0.21898 0.2612 0.0
C1415 C 0.79409 0.22415 0.25398 0.0
C1416 C 0.7936 0.21536 0.24243 0.0
H1417 H 0.6674 0.3072 0.26231 0.0
H1418 H 0.69975 0.28272 0.2553 0.0
C1419 C 0.81206 0.20137 0.23822 0.0
C1420 C 0.77475 0.23926 0.25848 0.0
H1421 H 0.71573 0.24006 0.26422 0.0
C1422 C 0.78009 0.26231 0.26206 0.0
C1423 C 0.75129 0.23107 0.25934 0.0
C1424 C 0.74467 0.20618 0.25609 0.0
C1425 C 0.76253 0.27755 0.26628 0.0
C1426 C 0.73906 0.26936 0.26713 0.0
C1427 C 0.73373 0.2463 0.26356 0.0
C1428 C 0.71967 0.28455 0.2715 0.0
C1429 C 0.76915 0.30244 0.26952 0.0
C1430 C 0.72 0.29359 0.283 0.0
C1431 C 0.70151 0.30771 0.28707 0.0
C1432 C 0.68223 0.31296 0.27972 0.0
C1433 C 0.68194 0.30367 0.26823 0.0
C1434 C 0.70042 0.2896 0.26419 0.0
H1435 H 0.7863 0.30767 0.26561 0.0
H1436 H 0.75545 0.31509 0.26655 0.0
H1437 H 0.77073 0.30383 0.27923 0.0
H1438 H 0.73446 0.28953 0.28889 0.0
H1439 H 0.70229 0.31439 0.29599 0.0
H1440 H 0.34536 0.30343 0.76397 0.0
H1441 H 0.3133 0.27967 0.75609 0.0
H1442 H 0.27482 0.28805 0.7885 0.0
H1443 H 0.307 0.3118 0.79658 0.0
H1444 H 0.27681 0.24116 0.78018 0.0
H1445 H 0.24856 0.30255 0.74488 0.0
H1446 H 0.27945 0.29579 0.74475 0.0
H1447 H 0.26711 0.31163 0.75697 0.0
C1448 C 0.33006 0.30042 0.76944 0.0
C1449 C 0.3288 0.30971 0.78092 0.0
C1450 C 0.31166 0.28688 0.76487 0.0
C1451 C 0.29151 0.28239 0.77163 0.0
C1452 C 0.29017 0.29145 0.78311 0.0
H1453 H 0.16392 0.20125 0.76038 0.0
H1454 H 0.19592 0.22487 0.76843 0.0
C1455 C 0.30858 0.30506 0.7877 0.0
C1456 C 0.27222 0.26761 0.76681 0.0
H1457 H 0.23227 0.26405 0.74437 0.0
C1458 C 0.26696 0.24622 0.7724 0.0
C1459 C 0.25949 0.27419 0.75661 0.0
C1460 C 0.26374 0.29738 0.75049 0.0
C1461 C 0.24959 0.23101 0.76794 0.0
C1462 C 0.23687 0.23758 0.75774 0.0
C1463 C 0.24212 0.25899 0.75216 0.0
C1464 C 0.21767 0.22274 0.75285 0.0
C1465 C 0.24538 0.2078 0.77405 0.0
C1466 C 0.21901 0.21405 0.7413 0.0
C1467 C 0.20062 0.20056 0.73661 0.0
C1468 C 0.18044 0.19563 0.74336 0.0
C1469 C 0.17921 0.20447 0.75493 0.0
C1470 C 0.19757 0.21792 0.75959 0.0
H1471 H 0.26062 0.20261 0.77962 0.0
H1472 H 0.22974 0.20939 0.77984 0.0
H1473 H 0.24194 0.19356 0.76757 0.0
H1474 H 0.23432 0.21771 0.73592 0.0
H1475 H 0.20217 0.19416 0.72766 0.0
H1476 H 0.20109 0.69476 0.29699 0.0
H1477 H 0.2327 0.71913 0.28891 0.0
H1478 H 0.1962 0.72272 0.25568 0.0
H1479 H 0.16438 0.69869 0.26366 0.0
H1480 H 0.26204 0.71198 0.26936 0.0
H1481 H 0.20712 0.79208 0.26369 0.0
H1482 H 0.19771 0.76725 0.27241 0.0
H1483 H 0.19562 0.76623 0.25663 0.0
C1484 C 0.19977 0.70064 0.28795 0.0
C1485 C 0.18003 0.69482 0.28102 0.0
C1486 C 0.21788 0.71459 0.28335 0.0
C1487 C 0.2166 0.7231 0.27176 0.0
C1488 C 0.19731 0.71678 0.26472 0.0
H1489 H 0.30784 0.81391 0.22982 0.0
H1490 H 0.27638 0.78793 0.23678 0.0
C1491 C 0.17919 0.70288 0.2693 0.0
C1492 C 0.23544 0.73858 0.26706 0.0
H1493 H 0.24581 0.79354 0.25596 0.0
C1494 C 0.25852 0.72984 0.26646 0.0
C1495 C 0.23079 0.76185 0.26324 0.0
C1496 C 0.20652 0.77255 0.2641 0.0
C1497 C 0.27704 0.74363 0.26203 0.0
C1498 C 0.27241 0.76696 0.25829 0.0
C1499 C 0.2493 0.77565 0.25881 0.0
C1500 C 0.29143 0.78281 0.25409 0.0
C1501 C 0.30132 0.73297 0.26121 0.0
C1502 C 0.31009 0.78892 0.26159 0.0
C1503 C 0.32808 0.80374 0.25766 0.0
C1504 C 0.32774 0.81296 0.24615 0.0
C1505 C 0.30875 0.80713 0.23872 0.0
C1506 C 0.29073 0.79227 0.24268 0.0
H1507 H 0.30065 0.71342 0.26129 0.0
H1508 H 0.31045 0.7388 0.25308 0.0
H1509 H 0.31193 0.73874 0.26889 0.0
H1510 H 0.31072 0.78226 0.27052 0.0
H1511 H 0.34231 0.80786 0.26367 0.0
H1512 H 0.3442 0.20422 0.26515 0.0
H1513 H 0.31225 0.22878 0.25777 0.0
H1514 H 0.27533 0.22077 0.29066 0.0
H1515 H 0.30743 0.19628 0.29825 0.0
H1516 H 0.26446 0.21841 0.255 0.0
H1517 H 0.2779 0.2925 0.28622 0.0
H1518 H 0.29954 0.26962 0.2841 0.0
H1519 H 0.27394 0.26417 0.29297 0.0
C1520 C 0.32931 0.20757 0.27086 0.0
C1521 C 0.32852 0.19828 0.28236 0.0
C1522 C 0.31103 0.22166 0.26659 0.0
C1523 C 0.29159 0.22692 0.27371 0.0
C1524 C 0.29041 0.21731 0.28509 0.0
H1525 H 0.16562 0.31045 0.26218 0.0
H1526 H 0.19701 0.28589 0.27021 0.0
C1527 C 0.30872 0.20317 0.28939 0.0
C1528 C 0.27257 0.24235 0.26912 0.0
H1529 H 0.24501 0.2951 0.27348 0.0
C1530 C 0.26022 0.2352 0.25903 0.0
C1531 C 0.26709 0.26425 0.27438 0.0
C1532 C 0.28041 0.27327 0.28496 0.0
C1533 C 0.24233 0.24922 0.25413 0.0
C1534 C 0.23696 0.27119 0.25934 0.0
C1535 C 0.24921 0.27828 0.26948 0.0
C1536 C 0.21844 0.28691 0.2545 0.0
C1537 C 0.22902 0.24016 0.24356 0.0
C1538 C 0.22029 0.29613 0.24307 0.0
C1539 C 0.20234 0.31023 0.23841 0.0
C1540 C 0.1822 0.31552 0.24512 0.0
C1541 C 0.1808 0.30677 0.25671 0.0
C1542 C 0.19874 0.29269 0.26134 0.0
H1543 H 0.23113 0.22083 0.24248 0.0
H1544 H 0.20996 0.24426 0.24427 0.0
H1545 H 0.23589 0.24881 0.23551 0.0
H1546 H 0.23559 0.29229 0.23771 0.0
H1547 H 0.20413 0.31671 0.22949 0.0
H1548 H 0.20028 0.81377 0.79622 0.0
H1549 H 0.23239 0.78901 0.78889 0.0
H1550 H 0.19696 0.78242 0.75548 0.0
H1551 H 0.16498 0.80721 0.76261 0.0
H1552 H 0.2298 0.74241 0.78034 0.0
H1553 H 0.26339 0.80339 0.74607 0.0
H1554 H 0.2439 0.81287 0.75768 0.0
H1555 H 0.23238 0.7975 0.7451 0.0
C1556 C 0.19935 0.80719 0.78729 0.0
C1557 C 0.18004 0.81267 0.78 0.0
C1558 C 0.21772 0.79301 0.78312 0.0
C1559 C 0.21723 0.78418 0.77158 0.0
C1560 C 0.19795 0.78945 0.76433 0.0
H1561 H 0.30895 0.69371 0.73004 0.0
H1562 H 0.27655 0.71811 0.73735 0.0
C1563 C 0.1796 0.80357 0.76847 0.0
C1564 C 0.23652 0.76888 0.76721 0.0
H1565 H 0.27876 0.76452 0.74593 0.0
C1566 C 0.24061 0.74729 0.77286 0.0
C1567 C 0.2505 0.77523 0.7574 0.0
C1568 C 0.24752 0.7986 0.75126 0.0
C1569 C 0.25805 0.73169 0.76886 0.0
C1570 C 0.27205 0.73806 0.75906 0.0
C1571 C 0.26795 0.75964 0.7534 0.0
C1572 C 0.29143 0.72282 0.75472 0.0
C1573 C 0.26101 0.70832 0.775 0.0
C1574 C 0.31064 0.71757 0.76203 0.0
C1575 C 0.32915 0.70364 0.7579 0.0
C1576 C 0.32896 0.69474 0.74633 0.0
C1577 C 0.30969 0.70014 0.739 0.0
C1578 C 0.29116 0.71412 0.74316 0.0
H1579 H 0.24508 0.70347 0.78012 0.0
H1580 H 0.26479 0.69407 0.76858 0.0
H1581 H 0.27605 0.70946 0.78122 0.0
H1582 H 0.31147 0.72451 0.7709 0.0
H1583 H 0.34373 0.70006 0.76379 0.0
H1584 H 0.56506 0.94992 0.54687 0.0
H1585 H 0.54049 0.98149 0.53885 0.0
H1586 H 0.53388 0.94348 0.50617 0.0
H1587 H 0.55807 0.91173 0.5141 0.0
H1588 H 0.54765 0.00946 0.5188 0.0
H1589 H 0.46535 0.95729 0.51484 0.0
H1590 H 0.49027 0.94745 0.52341 0.0
H1591 H 0.49039 0.94442 0.50766 0.0
C1592 C 0.55837 0.94821 0.53798 0.0
C1593 C 0.56351 0.92815 0.53117 0.0
C1594 C 0.54433 0.9663 0.53341 0.0
C1595 C 0.53503 0.96465 0.52199 0.0
C1596 C 0.54044 0.9449 0.5151 0.0
H1597 H 0.44623 0.05675 0.47936 0.0
H1598 H 0.47134 0.02477 0.48658 0.0
C1599 C 0.55445 0.92681 0.51965 0.0
C1600 C 0.51998 0.98376 0.5172 0.0
H1601 H 0.46502 0.99547 0.5064 0.0
C1602 C 0.52956 0.00644 0.51613 0.0
C1603 C 0.49641 0.97974 0.51367 0.0
C1604 C 0.48487 0.95597 0.51503 0.0
C1605 C 0.51629 0.02515 0.5115 0.0
C1606 C 0.49268 0.02116 0.50804 0.0
C1607 C 0.48314 0.99846 0.50903 0.0
C1608 C 0.4774 0.04048 0.50366 0.0
C1609 C 0.5278 0.04894 0.51017 0.0
C1610 C 0.47216 0.05971 0.51094 0.0
C1611 C 0.45786 0.07798 0.50686 0.0
C1612 C 0.44831 0.07739 0.49542 0.0
C1613 C 0.4533 0.05787 0.4882 0.0
C1614 C 0.46765 0.03956 0.49231 0.0
H1615 H 0.54732 0.04757 0.51015 0.0
H1616 H 0.52207 0.05772 0.50192 0.0
H1617 H 0.52264 0.06029 0.51769 0.0
H1618 H 0.47908 0.06055 0.51982 0.0
H1619 H 0.45437 0.09262 0.51272 0.0
H1620 H 0.0857 0.95716 0.98671 0.0
H1621 H 0.06351 0.99015 0.99511 0.0
H1622 H 0.01367 0.94118 1.01004 0.0
H1623 H 0.03672 0.9084 1.00246 0.0
H1624 H 0.02306 0.00711 0.99213 0.0
H1625 H 0.02524 0.97832 0.03843 0.0
H1626 H 0.04227 0.96378 0.02722 0.0
H1627 H 0.01183 0.95594 0.0296 0.0
C1628 C 0.07008 0.95352 0.99186 0.0
C1629 C 0.06309 0.9302 0.99404 0.0
C1630 C 0.05739 0.97236 0.99666 0.0
C1631 C 0.03718 0.96826 1.00353 0.0
C1632 C 0.0297 0.94493 1.00525 0.0
H1633 H 0.92912 0.07457 0.01475 0.0
H1634 H 0.95427 0.04297 1.00728 0.0
C1635 C 0.04276 0.92613 1.00077 0.0
C1636 C 0.02353 0.98828 1.0086 0.0
H1637 H 0.99556 0.00686 0.03352 0.0
C1638 C 0.01732 0.00717 1.00123 0.0
C1639 C 0.01643 0.98885 0.02056 0.0
C1640 C 0.02455 0.97075 0.02941 0.0
C1641 C 1.0038 0.02616 1.00537 0.0
C1642 C 0.99504 0.02572 0.01706 0.0
C1643 C 1.00178 0.00714 0.0245 0.0
C1644 C 0.97907 0.04432 0.02179 0.0
C1645 C 0.9997 0.04671 0.99719 0.0
C1646 C 0.98359 0.0547 0.03282 0.0
C1647 C 0.96855 0.07199 0.03734 0.0
C1648 C 0.949 0.07961 0.03081 0.0
C1649 C 0.94428 0.06914 0.01987 0.0
C1650 C 0.95885 0.0513 0.01554 0.0
H1651 H 0.01416 0.04835 0.99066 0.0
H1652 H 0.98314 0.04383 0.9922 0.0
H1653 H 0.99833 0.06357 1.00209 0.0
H1654 H 0.99894 0.04963 0.03789 0.0
H1655 H 0.97261 0.07992 0.04577 0.0
H1656 H 0.55578 0.0934 1.01265 0.0
H1657 H 0.53136 0.06133 0.02002 0.0
H1658 H 0.54065 0.02385 0.98737 0.0
H1659 H 0.56548 0.05574 0.97992 0.0
H1660 H 0.48952 0.04421 1.01092 0.0
H1661 H 0.55766 0.97412 1.01191 0.0
H1662 H 0.56492 0.00491 1.01035 0.0
H1663 H 0.55438 0.98845 0.99791 0.0
C1664 C 0.55283 0.0783 1.00702 0.0
C1665 C 0.56279 0.07718 0.99568 0.0
C1666 C 0.53879 0.05998 1.01127 0.0
C1667 C 0.53442 0.04005 1.00432 0.0
C1668 C 0.54418 0.03885 0.99298 0.0
H1669 H 0.4519 0.91318 0.01498 0.0
H1670 H 0.47594 0.9451 1.00711 0.0
C1671 C 0.55829 0.05718 0.98871 0.0
C1672 C 0.51913 0.02089 1.00888 0.0
H1673 H 0.51842 0.9624 0.01587 0.0
C1674 C 0.49585 0.02633 1.01204 0.0
C1675 C 0.52742 0.99758 1.01033 0.0
C1676 C 0.55251 0.99087 1.00755 0.0
C1677 C 0.48054 0.00903 0.01645 0.0
C1678 C 0.48884 0.98573 0.01793 0.0
C1679 C 0.51209 0.98027 0.01473 0.0
C1680 C 0.4737 0.96671 0.02273 0.0
C1681 C 0.45546 0.01573 0.01927 0.0
C1682 C 0.46453 0.96817 0.03418 0.0
C1683 C 0.45069 0.94992 0.03874 0.0
C1684 C 0.44583 0.92977 0.03195 0.0
C1685 C 0.45513 0.92842 0.02047 0.0
C1686 C 0.46895 0.94665 0.01594 0.0
H1687 H 0.45024 0.0324 0.01486 0.0
H1688 H 0.44304 1.00163 0.01655 0.0
H1689 H 0.4537 0.0183 0.02891 0.0
H1690 H 0.46835 0.98329 0.03967 0.0
H1691 H 0.44399 0.95156 0.04762 0.0
H1692 H 0.05611 0.09851 0.51216 0.0
H1693 H 0.03152 0.06717 0.50413 0.0
H1694 H 0.04038 0.02721 0.53609 0.0
H1695 H 0.06486 0.05862 0.54431 0.0
H1696 H 0.04211 0.01973 0.5002 0.0
H1697 H 0.96865 0.02965 0.532 0.0
H1698 H 0.99133 0.05164 0.53026 0.0
H1699 H 0.99699 0.02549 0.53871 0.0
C1700 C 0.0529 0.08309 0.51752 0.0
C1701 C 0.06245 0.08121 0.52894 0.0
C1702 C 0.03881 0.06517 0.51289 0.0
C1703 C 0.03382 0.04503 0.51957 0.0
C1704 C 0.04363 0.04283 0.53087 0.0
H1705 H 0.95684 0.91641 0.50939 0.0
H1706 H 0.98058 0.94931 0.51627 0.0
C1707 C 0.05775 0.06076 0.53553 0.0
C1708 C 0.01851 0.02628 0.51465 0.0
H1709 H 0.96713 0.99649 0.51931 0.0
C1710 C 0.02564 0.01472 0.50433 0.0
C1711 C 0.99698 0.01988 0.52003 0.0
C1712 C 0.98786 0.03243 0.5308 0.0
C1713 C 0.01214 0.99644 0.49942 0.0
C1714 C 0.99077 0.98984 0.50489 0.0
C1715 C 0.98352 1.0016 0.51513 0.0
C1716 C 0.97619 0.97005 0.50047 0.0
C1717 C 0.0212 0.98386 0.48865 0.0
C1718 C 0.96559 0.97087 0.48929 0.0
C1719 C 0.95188 0.95198 0.48528 0.0
C1720 C 0.94848 0.93197 0.49239 0.0
C1721 C 0.95901 0.93144 0.50363 0.0
C1722 C 0.97262 0.95027 0.50761 0.0
H1723 H 0.04012 0.9876 0.48703 0.0
H1724 H 0.01883 0.96453 0.48952 0.0
H1725 H 0.01108 0.98978 0.48083 0.0
H1726 H 0.96781 0.98616 0.48371 0.0
H1727 H 0.94401 0.95305 0.47661 0.0
H1728 H 0.91829 0.19735 0.04979 0.0
H1729 H 0.94108 0.23383 0.05102 0.0
H1730 H 0.0053 0.19344 0.05323 0.0
H1731 H 0.9823 0.1569 0.05237 0.0
H1732 H 1.00437 0.22681 0.06977 0.0
H1733 H 0.97983 0.26834 0.02727 0.0
H1734 H 0.95518 0.25767 0.0356 0.0
H1735 H 0.97694 0.23731 0.03014 0.0
C1736 C 0.93732 0.19634 0.05019 0.0
C1737 C 0.94865 0.17441 0.05063 0.0
C1738 C 0.95037 0.21719 0.0509 0.0
C1739 C 0.97503 0.21649 0.05199 0.0
C1740 C 0.98634 0.19449 0.05233 0.0
H1741 H 0.089 0.31647 0.05632 0.0
H1742 H 0.0638 0.28151 0.05691 0.0
C1743 C 0.97325 0.17365 0.05177 0.0
C1744 C 0.98889 0.23858 0.05347 0.0
H1745 H 0.99978 0.29201 0.04091 0.0
C1746 C 1.00354 0.24097 0.06338 0.0
C1747 C 0.98777 0.25722 0.04522 0.0
C1748 C 0.97422 0.25507 0.0339 0.0
C1749 C 0.01706 0.2614 0.06521 0.0
C1750 C 0.01588 0.27993 0.05691 0.0
C1751 C 1.00079 0.27778 0.04721 0.0
C1752 C 0.03112 0.3011 0.05761 0.0
C1753 C 0.03221 0.26311 0.07609 0.0
C1754 C 0.02116 0.32376 0.05762 0.0
C1755 C 0.03556 0.34374 0.05714 0.0
C1756 C 0.06007 0.34128 0.05629 0.0
C1757 C 0.07006 0.3187 0.05664 0.0
C1758 C 0.05571 0.29876 0.05719 0.0
H1759 H 0.02579 0.25125 0.08317 0.0
H1760 H 0.05046 0.25774 0.07386 0.0
H1761 H 0.03272 0.28141 0.07951 0.0
H1762 H 1.00222 0.32597 0.05788 0.0
H1763 H 0.02757 0.36105 0.05709 0.0
H1764 H 0.06384 0.67424 0.30433 0.0
H1765 H 0.02945 0.70005 0.30518 0.0
H1766 H 0.0751 0.75971 0.31102 0.0
H1767 H 0.10959 0.73399 0.30901 0.0
H1768 H 0.01254 0.72536 0.32192 0.0
H1769 H 0.03601 0.78619 0.28576 0.0
H1770 H 0.05527 0.76261 0.29005 0.0
H1771 H 0.05533 0.78973 0.29813 0.0
C1772 C 0.06648 0.69301 0.30528 0.0
C1773 C 0.08928 0.70239 0.30586 0.0
C1774 C 0.04684 0.70773 0.30602 0.0
C1775 C 0.04957 0.73206 0.30782 0.0
C1776 C 0.07244 0.74121 0.30914 0.0
H1777 H 0.94223 0.84271 0.30791 0.0
H1778 H 0.97905 0.82091 0.31029 0.0
C1779 C 0.09214 0.72652 0.30807 0.0
C1780 C 0.02833 0.7474 0.30865 0.0
H1781 H 1.00207 0.79609 0.29701 0.0
C1782 C 0.01016 0.74071 0.31636 0.0
C1783 C 0.02539 0.76797 0.30174 0.0
C1784 C 0.044 0.77691 0.2934 0.0
C1785 C 0.98906 0.75354 0.31713 0.0
C1786 C 0.9856 0.77326 0.30969 0.0
C1787 C 1.0042 0.78057 0.30242 0.0
C1788 C 0.96288 0.7864 0.30907 0.0
C1789 C 0.97113 0.74613 0.3262 0.0
C1790 C 0.94134 0.77446 0.3076 0.0
C1791 C 0.9202 0.78699 0.30661 0.0
C1792 C 0.9204 0.81164 0.3064 0.0
C1793 C 0.9418 0.82364 0.30781 0.0
C1794 C 0.96281 0.81116 0.30919 0.0
H1795 H 0.97975 0.73751 0.33386 0.0
H1796 H 0.96073 0.76133 0.32946 0.0
H1797 H 0.95895 0.73308 0.32223 0.0
H1798 H 0.94084 0.75546 0.30701 0.0
H1799 H 0.9038 0.77745 0.30562 0.0
H1800 H 0.42368 0.69358 0.55234 0.0
H1801 H 0.44953 0.728 0.55285 0.0
H1802 H 0.50934 0.68253 0.55869 0.0
H1803 H 0.48358 0.64801 0.55713 0.0
H1804 H 0.47507 0.74481 0.56967 0.0
H1805 H 0.53545 0.7217 0.53331 0.0
H1806 H 0.51165 0.70258 0.53745 0.0
H1807 H 0.53884 0.70194 0.5455 0.0
C1808 C 0.44248 0.69097 0.55323 0.0
C1809 C 0.45188 0.6682 0.55399 0.0
C1810 C 0.45722 0.71063 0.55375 0.0
C1811 C 0.48158 0.70794 0.55548 0.0
C1812 C 0.4908 0.68513 0.55688 0.0
H1813 H 0.5936 0.81365 0.5572 0.0
H1814 H 0.57107 0.77708 0.55882 0.0
C1815 C 0.47609 0.66542 0.55606 0.0
C1816 C 0.49693 0.72915 0.55631 0.0
H1817 H 0.54594 0.75514 0.5449 0.0
C1818 C 0.49043 0.74718 0.56413 0.0
C1819 C 0.51748 0.73205 0.54939 0.0
C1820 C 0.52612 0.71358 0.54089 0.0
C1821 C 0.50353 0.76807 0.56509 0.0
C1822 C 0.52334 0.77145 0.55771 0.0
C1823 C 0.53037 0.75303 0.55026 0.0
C1824 C 0.53691 0.79392 0.55739 0.0
C1825 C 0.49633 0.78583 0.57428 0.0
C1826 C 0.52539 0.8157 0.55603 0.0
C1827 C 0.5383 0.83664 0.55544 0.0
C1828 C 0.56295 0.83604 0.55556 0.0
C1829 C 0.57454 0.8144 0.55685 0.0
C1830 C 0.56166 0.79354 0.5578 0.0
H1831 H 0.48735 0.77716 0.58181 0.0
H1832 H 0.5117 0.79576 0.57772 0.0
H1833 H 0.48365 0.79845 0.57034 0.0
H1834 H 0.50642 0.81654 0.55524 0.0
H1835 H 0.52907 0.85324 0.55454 0.0
H1836 H 0.56495 0.1707 0.80307 0.0
H1837 H 0.53019 0.19613 0.8036 0.0
H1838 H 0.57483 0.25624 0.81015 0.0
H1839 H 0.60968 0.23097 0.80854 0.0
H1840 H 0.51253 0.22106 0.8204 0.0
H1841 H 0.53624 0.28262 0.78463 0.0
H1842 H 0.55565 0.25913 0.78889 0.0
H1843 H 0.55541 0.28616 0.79704 0.0
C1844 C 0.5673 0.1895 0.80412 0.0
C1845 C 0.58995 0.19914 0.80505 0.0
C1846 C 0.54744 0.20398 0.80466 0.0
C1847 C 0.54981 0.22832 0.80657 0.0
C1848 C 0.57249 0.23774 0.80818 0.0
H1849 H 0.4433 0.33948 0.80743 0.0
H1850 H 0.47987 0.31716 0.80954 0.0
C1851 C 0.59238 0.2233 0.80733 0.0
C1852 C 0.52842 0.24344 0.80732 0.0
H1853 H 0.5024 0.29257 0.79603 0.0
C1854 C 0.5102 0.23656 0.81495 0.0
C1855 C 0.52556 0.26418 0.80053 0.0
C1856 C 0.54422 0.27331 0.79226 0.0
C1857 C 0.48917 0.24947 0.81583 0.0
C1858 C 0.48583 0.26947 0.80855 0.0
C1859 C 0.50444 0.27686 0.80131 0.0
C1860 C 0.46325 0.28289 0.80812 0.0
C1861 C 0.47123 0.24189 0.82486 0.0
C1862 C 0.44154 0.27126 0.80666 0.0
C1863 C 0.42054 0.28408 0.80585 0.0
C1864 C 0.42106 0.30873 0.80581 0.0
C1865 C 0.44262 0.32042 0.80721 0.0
C1866 C 0.46349 0.30764 0.80843 0.0
H1867 H 0.47982 0.23291 0.83242 0.0
H1868 H 0.461 0.25707 0.82828 0.0
H1869 H 0.4589 0.2291 0.82079 0.0
H1870 H 0.44079 0.25229 0.80592 0.0
H1871 H 0.40401 0.27478 0.80485 0.0
H1872 H 0.97703 0.85519 0.45941 0.0
H1873 H 0.99927 0.81933 0.45585 0.0
H1874 H 0.94699 0.78005 0.47543 0.0
H1875 H 0.92207 0.81458 0.47558 0.0
H1876 H 0.02292 0.79369 0.46468 0.0
H1877 H 0.95337 0.7307 0.4546 0.0
H1878 H 0.94663 0.76146 0.45562 0.0
H1879 H 0.94512 0.74255 0.46851 0.0
C1880 C 0.97022 0.83866 0.46273 0.0
C1881 C 0.94854 0.83791 0.46862 0.0
C1882 C 0.98313 0.818 0.46085 0.0
C1883 C 0.97526 0.79617 0.46533 0.0
C1884 C 0.95353 0.79582 0.47129 0.0
H1885 H 0.08801 0.69346 0.47605 0.0
H1886 H 0.06327 0.72814 0.47567 0.0
C1887 C 0.9397 0.81604 0.47211 0.0
C1888 C 0.99011 0.7743 0.46422 0.0
H1889 H 0.98724 0.71445 0.46492 0.0
C1890 C 0.01483 0.77646 0.46421 0.0
C1891 C 0.98048 0.75127 0.46325 0.0
C1892 C 0.95497 0.7465 0.46032 0.0
C1893 C 0.02972 0.75681 0.46331 0.0
C1894 C 0.02008 0.73381 0.46441 0.0
C1895 C 0.99536 0.73165 0.46435 0.0
C1896 C 0.03488 0.71192 0.46567 0.0
C1897 C 0.05526 0.7615 0.46044 0.0
C1898 C 0.02691 0.69002 0.46131 0.0
C1899 C 0.03968 0.66934 0.46335 0.0
C1900 C 0.06137 0.67011 0.46925 0.0
C1901 C 0.07036 0.69201 0.47259 0.0
C1902 C 0.05663 0.7123 0.47164 0.0
H1903 H 0.05695 0.77719 0.45466 0.0
H1904 H 0.06504 0.76557 0.46866 0.0
H1905 H 0.06362 0.74644 0.45584 0.0
H1906 H 0.01078 0.68864 0.45629 0.0
H1907 H 0.03277 0.65278 0.46013 0.0
H1908 H 0.6093 0.77671 0.71913 0.0
H1909 H 0.57396 0.75176 0.71826 0.0
H1910 H 0.53013 0.81373 0.71984 0.0
H1911 H 0.56539 0.83856 0.72049 0.0
H1912 H 0.54055 0.74927 0.73535 0.0
H1913 H 0.49877 0.77656 0.69353 0.0
H1914 H 0.52908 0.7832 0.69704 0.0
H1915 H 0.50569 0.80088 0.70301 0.0
C1916 C 0.59207 0.78488 0.71921 0.0
C1917 C 0.58988 0.80937 0.72025 0.0
C1918 C 0.57195 0.77071 0.71866 0.0
C1919 C 0.54939 0.78089 0.71883 0.0
C1920 C 0.5473 0.80548 0.71944 0.0
H1921 H 0.40528 0.73039 0.72407 0.0
H1922 H 0.44139 0.75409 0.72305 0.0
C1923 C 0.5674 0.81961 0.72003 0.0
C1924 C 0.52812 0.76579 0.71955 0.0
H1925 H 0.47479 0.75445 0.70681 0.0
C1926 C 0.52619 0.75045 0.72913 0.0
C1927 C 0.50941 0.76719 0.71134 0.0
C1928 C 0.51087 0.78268 0.70059 0.0
C1929 C 0.5057 0.73733 0.73112 0.0
C1930 C 0.48692 0.73853 0.72294 0.0
C1931 C 0.48906 0.75352 0.71314 0.0
C1932 C 0.46505 0.72429 0.72435 0.0
C1933 C 0.50385 0.72355 0.74238 0.0
C1934 C 0.46621 0.69966 0.72548 0.0
C1935 C 0.44563 0.68624 0.72632 0.0
C1936 C 0.42347 0.69713 0.7259 0.0
C1937 C 0.42221 0.72168 0.72465 0.0
C1938 C 0.44281 0.73516 0.72399 0.0
H1939 H 0.51685 0.72948 0.74906 0.0
H1940 H 0.48598 0.72566 0.74609 0.0
H1941 H 0.5071 0.70463 0.74061 0.0
H1942 H 0.48302 0.69068 0.72534 0.0
H1943 H 0.44703 0.66725 0.72682 0.0
H1944 H 0.58908 0.19351 0.97463 0.0
H1945 H 0.56345 0.2281 0.97369 0.0
H1946 H 0.50393 0.18304 0.96655 0.0
H1947 H 0.52933 0.14837 0.96855 0.0
H1948 H 0.53913 0.24548 0.95655 0.0
H1949 H 0.47618 0.22162 0.99166 0.0
H1950 H 0.49996 0.20233 0.98773 0.0
H1951 H 0.47328 0.20234 0.97926 0.0
C1952 C 0.57034 0.19103 0.97335 0.0
C1953 C 0.56088 0.16832 0.97237 0.0
C1954 C 0.55576 0.21079 0.97258 0.0
C1955 C 0.53152 0.20825 0.97039 0.0
C1956 C 0.52232 0.18551 0.96873 0.0
H1957 H 0.41948 0.31372 0.96792 0.0
H1958 H 0.44225 0.27737 0.96621 0.0
C1959 C 0.53685 0.16572 0.9698 0.0
C1960 C 0.51629 0.22954 0.96942 0.0
H1961 H 0.46645 0.25526 0.98004 0.0
C1962 C 0.52337 0.24774 0.96182 0.0
C1963 C 0.49522 0.23229 0.97595 0.0
C1964 C 0.48586 0.21364 0.98416 0.0
C1965 C 0.51031 0.26865 0.96071 0.0
C1966 C 0.48996 0.2719 0.96773 0.0
C1967 C 0.48241 0.2533 0.97495 0.0
C1968 C 0.4763 0.29435 0.96792 0.0
C1969 C 0.51814 0.28654 0.9517 0.0
C1970 C 0.48764 0.3162 0.9694 0.0
C1971 C 0.47458 0.33707 0.96997 0.0
C1972 C 0.44993 0.3363 0.96976 0.0
C1973 C 0.43852 0.3146 0.96833 0.0
C1974 C 0.45156 0.29386 0.96735 0.0
H1975 H 0.52754 0.27794 0.94428 0.0
H1976 H 0.50303 0.29659 0.94807 0.0
H1977 H 0.53064 0.29902 0.95588 0.0
H1978 H 0.50657 0.31716 0.97034 0.0
H1979 H 0.48367 0.35371 0.97099 0.0
H1980 H 0.11232 0.27635 0.21861 0.0
H1981 H 0.07751 0.25068 0.2175 0.0
H1982 H 0.03248 0.31188 0.21761 0.0
H1983 H 0.06719 0.33738 0.21846 0.0
H1984 H 0.04356 0.24797 0.23398 0.0
H1985 H 1.00268 0.27324 0.19168 0.0
H1986 H 0.03262 0.2809 0.19544 0.0
H1987 H 0.00844 0.29817 0.20094 0.0
C1988 C 0.09494 0.28419 0.21829 0.0
C1989 C 0.09222 0.30867 0.21899 0.0
C1990 C 0.07512 0.2696 0.21761 0.0
C1991 C 0.05237 0.27935 0.21732 0.0
C1992 C 0.0498 0.30393 0.21756 0.0
H1993 H 0.90837 0.23002 0.22293 0.0
H1994 H 0.94485 0.25309 0.22173 0.0
C1995 C 0.06959 0.31846 0.21827 0.0
C1996 C 0.0313 0.26394 0.21799 0.0
H1997 H 0.97811 0.25216 0.20521 0.0
C1998 C 0.02929 0.24887 0.22769 0.0
C1999 C 0.01272 0.26498 0.2097 0.0
C2000 C 0.01428 0.28003 0.19879 0.0
C2001 C 0.0088 0.23578 0.22972 0.0
C2002 C 0.99007 0.2368 0.22151 0.0
C2003 C 0.99234 0.25141 0.21158 0.0
C2004 C 0.96801 0.22292 0.22306 0.0
C2005 C 0.00686 0.22225 0.24105 0.0
C2006 C 0.96879 0.1983 0.22429 0.0
C2007 C 0.94799 0.18523 0.2252 0.0
C2008 C 0.92601 0.19648 0.2248 0.0
C2009 C 0.92516 0.22103 0.22349 0.0
C2010 C 0.94597 0.23416 0.22273 0.0
H2011 H 0.02005 0.22807 0.24767 0.0
H2012 H 0.98907 0.22474 0.2448 0.0
H2013 H 0.00973 0.20325 0.23936 0.0
H2014 H 0.98545 0.18905 0.22415 0.0
H2015 H 0.94907 0.16622 0.22574 0.0
H2016 H 0.91799 0.694 0.96866 0.0
H2017 H 0.94043 0.73048 0.9665 0.0
H2018 H 0.00517 0.69135 0.97062 0.0
H2019 H 0.98259 0.65466 0.97178 0.0
H2020 H 0.96519 0.75337 0.97995 0.0
H2021 H 0.02464 0.72931 0.94373 0.0
H2022 H 1.00035 0.7108 0.948 0.0
H2023 H 0.02831 0.70872 0.95551 0.0
C2024 C 0.93705 0.6933 0.96901 0.0
C2025 C 0.94868 0.67175 0.97057 0.0
C2026 C 0.94989 0.71411 0.96775 0.0
C2027 C 0.97465 0.71381 0.96815 0.0
C2028 C 0.98621 0.69212 0.9698 0.0
H2029 H 0.08782 0.81401 0.97304 0.0
H2030 H 0.06182 0.77971 0.97238 0.0
C2031 C 0.97333 0.67119 0.97067 0.0
C2032 C 0.98817 0.73629 0.96755 0.0
H2033 H 0.0368 0.76223 0.95555 0.0
C2034 C 0.9809 0.75517 0.97465 0.0
C2035 C 0.00817 0.73927 0.96025 0.0
C2036 C 0.01561 0.72102 0.95135 0.0
C2037 C 0.99373 0.77623 0.97528 0.0
C2038 C 0.01454 0.77869 0.96851 0.0
C2039 C 0.02126 0.7602 0.961 0.0
C2040 C 0.03001 0.79984 0.96922 0.0
C2041 C 0.98469 0.79524 0.98337 0.0
C2042 C 0.02101 0.82266 0.9675 0.0
C2043 C 0.03579 0.84231 0.96838 0.0
C2044 C 0.05986 0.83948 0.97083 0.0
C2045 C 0.0691 0.81668 0.97183 0.0
C2046 C 0.05428 0.79708 0.97124 0.0
H2047 H 0.97499 0.78763 0.99096 0.0
H2048 H 0.99898 0.80645 0.9868 0.0
H2049 H 0.97222 0.80657 0.97841 0.0
H2050 H 1.00258 0.8253 0.96545 0.0
H2051 H 0.02843 0.85973 0.96713 0.0
H2052 H 0.90343 0.27786 0.72193 0.0
H2053 H 0.93935 0.25389 0.72044 0.0
H2054 H 0.98156 0.31671 0.72371 0.0
H2055 H 0.94582 0.34038 0.72559 0.0
H2056 H 0.97352 0.25412 0.7043 0.0
H2057 H 0.014 0.27617 0.74731 0.0
H2058 H 0.98318 0.27983 0.74413 0.0
H2059 H 1.00423 0.30156 0.73927 0.0
C2060 C 0.92046 0.28637 0.72259 0.0
C2061 C 0.92196 0.31081 0.72427 0.0
C2062 C 0.94094 0.27273 0.72167 0.0
C2063 C 0.96327 0.28337 0.7222 0.0
C2064 C 0.96466 0.3079 0.7237 0.0
H2065 H 0.10778 0.23227 0.71738 0.0
H2066 H 0.07215 0.25678 0.71637 0.0
C2067 C 0.94423 0.32144 0.72478 0.0
C2068 C 0.98508 0.26903 0.72077 0.0
H2069 H 0.03826 0.25755 0.73348 0.0
C2070 C 0.98757 0.25466 0.71076 0.0
C2071 C 1.00353 0.26964 0.72914 0.0
C2072 C 1.00116 0.28248 0.74063 0.0
C2073 C 0.00804 0.24114 0.70893 0.0
C2074 C 0.02649 0.24214 0.71729 0.0
C2075 C 0.02413 0.25677 0.72711 0.0
C2076 C 0.04795 0.22732 0.71651 0.0
C2077 C 0.00993 0.22627 0.69798 0.0
C2078 C 0.04615 0.20269 0.71693 0.0
C2079 C 0.06642 0.18881 0.71763 0.0
C2080 C 0.08876 0.19933 0.71813 0.0
C2081 C 0.09066 0.22387 0.71724 0.0
C2082 C 0.07038 0.2378 0.7166 0.0
H2083 H 0.99779 0.23251 0.69097 0.0
H2084 H 0.02819 0.2263 0.6945 0.0
H2085 H 0.00512 0.20784 0.70016 0.0
H2086 H 0.02908 0.19422 0.71713 0.0
H2087 H 0.06464 0.16983 0.71796 0.0
H2088 H 0.58815 0.31516 0.46856 0.0
H2089 H 0.56356 0.27975 0.46801 0.0
H2090 H 0.50119 0.32315 0.46742 0.0
H2091 H 0.52592 0.35864 0.46823 0.0
H2092 H 0.49948 0.28947 0.48423 0.0
H2093 H 0.52564 0.24859 0.44207 0.0
H2094 H 0.55032 0.25527 0.45137 0.0
H2095 H 0.53241 0.27881 0.44568 0.0
C2096 C 0.56917 0.31704 0.46835 0.0
C2097 C 0.55878 0.33943 0.46884 0.0
C2098 C 0.55516 0.29686 0.46781 0.0
C2099 C 0.53053 0.29878 0.4675 0.0
C2100 C 0.52017 0.32126 0.46759 0.0
H2101 H 0.41832 0.19489 0.47599 0.0
H2102 H 0.44116 0.23124 0.47443 0.0
C2103 C 0.53422 0.34147 0.4681 0.0
C2104 C 0.51562 0.27738 0.46827 0.0
H2105 H 0.50445 0.22408 0.45551 0.0
C2106 C 0.50059 0.27519 0.47796 0.0
C2107 C 0.51694 0.25879 0.46001 0.0
C2108 C 0.53203 0.26053 0.44913 0.0
C2109 C 0.48771 0.25458 0.47999 0.0
C2110 C 0.4889 0.23588 0.47177 0.0
C2111 C 0.50356 0.23828 0.46187 0.0
C2112 C 0.47502 0.21379 0.47325 0.0
C2113 C 0.47417 0.25251 0.4913 0.0
C2114 C 0.48623 0.19174 0.47283 0.0
C2115 C 0.47309 0.17094 0.47354 0.0
C2116 C 0.44855 0.17181 0.47491 0.0
C2117 C 0.43732 0.19379 0.47539 0.0
C2118 C 0.4504 0.21458 0.47451 0.0
H2119 H 0.48009 0.26555 0.49797 0.0
H2120 H 0.45518 0.25556 0.48961 0.0
H2121 H 0.47655 0.23466 0.49499 0.0
H2122 H 0.50516 0.19062 0.47179 0.0
H2123 H 0.48205 0.15415 0.47292 0.0
H2124 H 0.40398 0.7798 0.2239 0.0
H2125 H 0.44021 0.75634 0.22276 0.0
H2126 H 0.48148 0.81992 0.22532 0.0
H2127 H 0.44534 0.84313 0.2269 0.0
H2128 H 0.47343 0.75666 0.20642 0.0
H2129 H 0.51579 0.78069 0.24875 0.0
H2130 H 0.48487 0.7845 0.24587 0.0
H2131 H 0.50588 0.80566 0.24041 0.0
C2132 C 0.42086 0.7886 0.22451 0.0
C2133 C 0.42196 0.81313 0.22586 0.0
C2134 C 0.44153 0.77525 0.22379 0.0
C2135 C 0.4637 0.78624 0.22418 0.0
C2136 C 0.46472 0.81085 0.22543 0.0
H2137 H 0.60794 0.73372 0.21864 0.0
H2138 H 0.57268 0.75881 0.21803 0.0
C2139 C 0.44406 0.82414 0.22632 0.0
C2140 C 0.48563 0.77212 0.22264 0.0
H2141 H 0.53929 0.76095 0.23495 0.0
C2142 C 0.48772 0.7574 0.21274 0.0
C2143 C 0.50445 0.77311 0.2308 0.0
C2144 C 0.50269 0.7867 0.24212 0.0
C2145 C 0.50805 0.74376 0.21083 0.0
C2146 C 0.52677 0.74487 0.21904 0.0
C2147 C 0.5249 0.75997 0.22873 0.0
C2148 C 0.54801 0.72974 0.2182 0.0
C2149 C 0.50946 0.72863 0.19995 0.0
C2150 C 0.54586 0.70512 0.21848 0.0
C2151 C 0.56592 0.6909 0.2189 0.0
C2152 C 0.58842 0.70106 0.2193 0.0
C2153 C 0.59068 0.72559 0.21858 0.0
C2154 C 0.5706 0.73985 0.21819 0.0
H2155 H 0.49748 0.73512 0.19292 0.0
H2156 H 0.52769 0.72804 0.19644 0.0
H2157 H 0.50404 0.71041 0.2022 0.0
H2158 H 0.52866 0.6969 0.21875 0.0
H2159 H 0.56385 0.67194 0.2191 0.0
H2160 H 0.91651 0.31534 0.55789 0.0
H2161 H 0.93924 0.279 0.55986 0.0
H2162 H 1.00364 0.31865 0.55578 0.0
H2163 H 0.98077 0.3552 0.55481 0.0
H2164 H 0.96372 0.25684 0.54607 0.0
H2165 H 0.02399 0.2797 0.58219 0.0
H2166 H 0.99951 0.29827 0.57824 0.0
H2167 H 0.02728 0.30078 0.57061 0.0
C2168 C 0.93556 0.31619 0.55753 0.0
C2169 C 0.94701 0.33784 0.55601 0.0
C2170 C 0.94856 0.29546 0.55868 0.0
C2171 C 0.9733 0.29594 0.5582 0.0
C2172 C 0.98469 0.31773 0.55665 0.0
H2173 H 0.08685 0.1963 0.55204 0.0
H2174 H 0.06086 0.23057 0.5531 0.0
C2175 C 0.97166 0.33859 0.55589 0.0
C2176 C 0.98695 0.27351 0.55851 0.0
H2177 H 0.036 0.24731 0.56997 0.0
C2178 C 0.97961 0.25492 0.55124 0.0
C2179 C 0.00716 0.27034 0.56566 0.0
C2180 C 0.01473 0.28826 0.57471 0.0
C2181 C 0.99258 0.23402 0.55026 0.0
C2182 C 0.01354 0.23135 0.55691 0.0
C2183 C 0.02033 0.24951 0.56461 0.0
C2184 C 0.02903 0.21027 0.55591 0.0
C2185 C 0.98353 0.21543 0.54192 0.0
C2186 C 0.02002 0.18737 0.55727 0.0
C2187 C 0.03477 0.16778 0.55607 0.0
C2188 C 0.05883 0.17075 0.55371 0.0
C2189 C 0.06811 0.19358 0.55311 0.0
C2190 C 0.0533 0.21315 0.55396 0.0
H2191 H 0.97375 0.22343 0.53445 0.0
H2192 H 0.99781 0.20442 0.53832 0.0
H2193 H 0.9711 0.20382 0.54673 0.0
H2194 H 1.00161 0.1846 0.55929 0.0
H2195 H 0.0274 0.15031 0.55706 0.0
H2196 H 0.44508 0.17344 0.30632 0.0
H2197 H 0.48024 0.19839 0.30683 0.0
H2198 H 0.4362 0.26023 0.30826 0.0
H2199 H 0.40094 0.23514 0.30752 0.0
H2200 H 0.46962 0.26267 0.29114 0.0
H2201 H 0.51152 0.2359 0.333 0.0
H2202 H 0.50466 0.2114 0.32363 0.0
H2203 H 0.48123 0.22914 0.32952 0.0
C2204 C 0.443 0.19238 0.30672 0.0
C2205 C 0.42048 0.20253 0.30649 0.0
C2206 C 0.46305 0.20659 0.30723 0.0
C2207 C 0.46087 0.23118 0.30776 0.0
C2208 C 0.43828 0.24129 0.30792 0.0
H2209 H 0.56452 0.34376 0.29898 0.0
H2210 H 0.52814 0.32098 0.30065 0.0
C2211 C 0.4182 0.22703 0.30745 0.0
C2212 C 0.48212 0.24631 0.30698 0.0
H2213 H 0.53563 0.25749 0.31955 0.0
C2214 C 0.48403 0.26152 0.29734 0.0
C2215 C 0.50088 0.24494 0.31515 0.0
C2216 C 0.49943 0.22963 0.32597 0.0
C2217 C 0.50458 0.27448 0.29525 0.0
C2218 C 0.52347 0.27323 0.30338 0.0
C2219 C 0.5213 0.25844 0.31325 0.0
C2220 C 0.54554 0.2871 0.30182 0.0
C2221 C 0.50639 0.28812 0.28395 0.0
C2222 C 0.56759 0.27586 0.3022 0.0
C2223 C 0.58841 0.28898 0.30145 0.0
C2224 C 0.58757 0.31351 0.30006 0.0
C2225 C 0.56559 0.32476 0.2996 0.0
C2226 C 0.54479 0.31171 0.30053 0.0
H2227 H 0.49323 0.28224 0.27733 0.0
H2228 H 0.50335 0.30709 0.28567 0.0
H2229 H 0.52418 0.2858 0.28018 0.0
H2230 H 0.56871 0.25694 0.30325 0.0
H2231 H 0.6052 0.27999 0.30206 0.0
H2232 H 0.41668 0.81488 0.05801 0.0
H2233 H 0.43932 0.77839 0.05958 0.0
H2234 H 0.50379 0.81798 0.05561 0.0
H2235 H 0.48104 0.85462 0.05503 0.0
H2236 H 0.46376 0.75638 0.04563 0.0
H2237 H 0.52419 0.77854 0.08181 0.0
H2238 H 0.49971 0.7972 0.07797 0.0
H2239 H 0.52744 0.79981 0.07032 0.0
C2240 C 0.43573 0.81568 0.05757 0.0
C2241 C 0.44723 0.83734 0.05621 0.0
C2242 C 0.44868 0.79486 0.05849 0.0
C2243 C 0.47342 0.79527 0.05795 0.0
C2244 C 0.48485 0.81708 0.05652 0.0
H2245 H 0.58654 0.69501 0.05147 0.0
H2246 H 0.56071 0.72944 0.05236 0.0
C2247 C 0.47188 0.838 0.05599 0.0
C2248 C 0.48704 0.77281 0.05814 0.0
H2249 H 0.53605 0.74629 0.06948 0.0
C2250 C 0.47964 0.75434 0.0508 0.0
C2251 C 0.50726 0.76947 0.06526 0.0
C2252 C 0.5149 0.78723 0.07438 0.0
C2253 C 0.49252 0.73338 0.04977 0.0
C2254 C 0.51348 0.73056 0.05641 0.0
C2255 C 0.52037 0.74862 0.06414 0.0
C2256 C 0.52882 0.70937 0.0554 0.0
C2257 C 0.48339 0.71487 0.04142 0.0
C2258 C 0.51971 0.68655 0.0569 0.0
C2259 C 0.53437 0.66685 0.05586 0.0
C2260 C 0.55844 0.66964 0.05346 0.0
C2261 C 0.56779 0.69241 0.05261 0.0
C2262 C 0.55308 0.71207 0.05335 0.0
H2263 H 0.47371 0.72296 0.03393 0.0
H2264 H 0.49762 0.70376 0.03784 0.0
H2265 H 0.47086 0.70334 0.0462 0.0
H2266 H 0.50129 0.68394 0.05897 0.0
H2267 H 0.52694 0.64944 0.057 0.0
H2268 H 0.94418 0.67187 0.8077 0.0
H2269 H 0.97917 0.69706 0.80823 0.0
H2270 H 0.93471 0.75868 0.8084 0.0
H2271 H 0.89965 0.73334 0.80761 0.0
H2272 H 0.9683 0.76096 0.79175 0.0
H2273 H 0.00979 0.73572 0.83392 0.0
H2274 H 1.00368 0.71081 0.8247 0.0
H2275 H 0.97973 0.72825 0.83031 0.0
C2276 C 0.94197 0.69081 0.80783 0.0
C2277 C 0.91942 0.70081 0.80722 0.0
C2278 C 0.96192 0.70517 0.80835 0.0
C2279 C 0.95959 0.72978 0.80852 0.0
C2280 C 0.93692 0.73974 0.80833 0.0
H2281 H 0.06259 0.84297 0.79966 0.0
H2282 H 0.02632 0.82 0.80133 0.0
C2283 C 0.91696 0.72533 0.80784 0.0
C2284 C 0.98075 0.74503 0.80771 0.0
H2285 H 0.03407 0.75689 0.82034 0.0
C2286 C 0.98265 0.76007 0.798 0.0
C2287 C 0.99944 0.74401 0.81594 0.0
C2288 C 0.998 0.72899 0.82687 0.0
C2289 C 1.00308 0.7732 0.79591 0.0
C2290 C 0.02191 0.77223 0.80407 0.0
C2291 C 0.01978 0.75761 0.81401 0.0
C2292 C 0.0439 0.78621 0.80249 0.0
C2293 C 0.00483 0.78677 0.78459 0.0
C2294 C 0.06601 0.77507 0.80284 0.0
C2295 C 0.08676 0.78829 0.80206 0.0
C2296 C 0.08579 0.81282 0.80068 0.0
C2297 C 0.06376 0.82397 0.80026 0.0
C2298 C 0.04302 0.81082 0.8012 0.0
H2299 H 0.99171 0.78078 0.77797 0.0
H2300 H 1.00169 0.80574 0.78629 0.0
H2301 H 0.02263 0.78455 0.78083 0.0
H2302 H 0.06721 0.75616 0.80388 0.0
H2303 H 0.10358 0.77938 0.80264 0.0
H2304 H 0.35733 0.38833 1.01039 0.0
H2305 H 0.31787 0.39435 0.01828 0.0
H2306 H 0.29156 0.40756 0.9833 0.0
H2307 H 0.33126 0.40159 0.97524 0.0
H2308 H 0.28385 0.43464 0.01538 0.0
H2309 H 0.25438 0.34863 0.997 0.0
H2310 H 0.28513 0.3558 0.99889 0.0
H2311 H 0.26865 0.36885 0.9871 0.0
C2312 C 0.34325 0.39274 1.00434 0.0
C2313 C 0.34744 0.39425 0.99214 0.0
C2314 C 0.32072 0.39629 1.0089 0.0
C2315 C 0.30181 0.40121 1.00137 0.0
C2316 C 0.30597 0.40365 0.98924 0.0
H2317 H 0.15208 0.39279 0.01481 0.0
H2318 H 0.19073 0.39869 1.00606 0.0
C2319 C 0.32865 0.40031 0.98466 0.0
C2320 C 0.27761 0.40206 1.00623 0.0
H2321 H 0.22693 0.37007 1.00804 0.0
C2322 C 0.27127 0.42065 0.01373 0.0
C2323 C 0.26139 0.38369 1.00411 0.0
C2324 C 0.26762 0.36298 0.99641 0.0
C2325 C 0.24894 0.42147 0.01908 0.0
C2326 C 0.23282 0.40286 0.01712 0.0
C2327 C 0.23923 0.38436 1.00955 0.0
C2328 C 0.20909 0.40203 0.02267 0.0
C2329 C 0.24274 0.44245 0.0266 0.0
C2330 C 0.20633 0.40233 0.03498 0.0
C2331 C 0.18402 0.39924 0.04006 0.0
C2332 C 0.1642 0.3953 0.0329 0.0
C2333 C 0.167 0.39556 0.0206 0.0
C2334 C 0.18912 0.39896 0.01556 0.0
H2335 H 0.25376 0.45798 0.02438 0.0
H2336 H 0.22392 0.44732 0.02557 0.0
H2337 H 0.24594 0.43804 0.03598 0.0
H2338 H 0.22151 0.4041 0.04068 0.0
H2339 H 0.18245 0.39892 0.04956 0.0
H2340 H 0.86023 0.10353 0.26053 0.0
H2341 H 0.85312 0.06371 0.26763 0.0
H2342 H 0.84912 0.03865 0.23187 0.0
H2343 H 0.8565 0.07876 0.2246 0.0
H2344 H 0.81703 0.02919 0.26368 0.0
H2345 H 0.90497 1.00203 0.24687 0.0
H2346 H 0.89638 0.03252 0.24805 0.0
H2347 H 0.88512 0.01469 0.23628 0.0
C2348 C 0.85754 0.08965 0.25413 0.0
C2349 C 0.85925 0.09429 0.24198 0.0
C2350 C 0.85337 0.06689 0.25823 0.0
C2351 C 0.85095 0.04817 0.2503 0.0
C2352 C 0.85124 0.05285 0.23814 0.0
H2353 H 0.8624 0.89854 0.26424 0.0
H2354 H 0.85504 0.93666 0.25515 0.0
C2355 C 0.8553 0.07578 0.234 0.0
C2356 C 0.85016 0.02373 0.25491 0.0
H2357 H 0.88318 0.97374 0.25717 0.0
C2358 C 0.83135 0.01693 0.26218 0.0
C2359 C 0.86901 0.0079 0.25304 0.0
C2360 C 0.89014 0.01459 0.24572 0.0
C2361 C 0.83084 0.99462 0.26758 0.0
C2362 C 0.8499 0.97895 0.26586 0.0
C2363 C 0.86854 0.98571 0.25847 0.0
C2364 C 0.85121 0.95542 0.2716 0.0
C2365 C 0.80979 0.98801 0.27495 0.0
C2366 C 0.85106 0.95305 0.28394 0.0
C2367 C 0.85504 0.93105 0.28921 0.0
C2368 C 0.8597 0.91117 0.28222 0.0
C2369 C 0.8591 0.91353 0.26989 0.0
C2370 C 0.85486 0.93534 0.26466 0.0
H2371 H 0.79407 0.99866 0.27258 0.0
H2372 H 0.80539 0.96908 0.27393 0.0
H2373 H 0.81385 0.99137 0.28436 0.0
H2374 H 0.84881 0.96835 0.2895 0.0
H2375 H 0.85559 0.92983 0.29872 0.0
H2376 H 0.17807 0.60303 0.47836 0.0
H2377 H 0.21726 0.5972 0.48699 0.0
H2378 H 0.18929 0.61174 0.52148 0.0
H2379 H 0.15023 0.61766 0.513 0.0
H2380 H 0.24042 0.63435 0.5006 0.0
H2381 H 0.2306 0.5514 0.52608 0.0
H2382 H 0.21147 0.55899 0.51393 0.0
H2383 H 0.20763 0.57287 0.52798 0.0
C2384 C 0.18015 0.60455 0.48781 0.0
C2385 C 0.16098 0.61089 0.49497 0.0
C2386 C 0.20256 0.60125 0.49272 0.0
C2387 C 0.20611 0.60381 0.50489 0.0
C2388 C 0.18688 0.60932 0.5121 0.0
H2389 H 0.32824 0.61193 0.55137 0.0
H2390 H 0.28837 0.60704 0.54324 0.0
C2391 C 0.16457 0.61285 0.5072 0.0
C2392 C 0.2302 0.60305 0.50994 0.0
H2393 H 0.26547 0.57354 0.52938 0.0
C2394 C 0.246 0.62094 0.50681 0.0
C2395 C 0.23723 0.58577 0.51819 0.0
C2396 C 0.22096 0.56603 0.52172 0.0
C2397 C 0.26854 0.62227 0.51183 0.0
C2398 C 0.2758 0.60477 0.51996 0.0
C2399 C 0.25995 0.58687 0.52312 0.0
C2400 C 0.29989 0.60484 0.52511 0.0
C2401 C 0.28409 0.64286 0.50863 0.0
C2402 C 0.3196 0.60418 0.51769 0.0
C2403 C 0.34219 0.60722 0.52228 0.0
C2404 C 0.34567 0.61049 0.53443 0.0
C2405 C 0.32609 0.60944 0.54198 0.0
C2406 C 0.30333 0.60671 0.53734 0.0
H2407 H 0.27365 0.65793 0.50521 0.0
H2408 H 0.29449 0.64895 0.51633 0.0
H2409 H 0.29651 0.6374 0.50161 0.0
H2410 H 0.31745 0.60205 0.50828 0.0
H2411 H 0.35695 0.60758 0.51625 0.0
H2412 H 0.6524 0.07825 0.80153 0.0
H2413 H 0.65832 0.03848 0.79353 0.0
H2414 H 0.65484 0.06625 0.75825 0.0
H2415 H 0.64885 0.10575 0.7661 0.0
H2416 H 0.62342 0.0176 0.77769 0.0
H2417 H 0.7125 0.02069 0.75763 0.0
H2418 H 0.70334 0.04068 0.76913 0.0
H2419 H 0.69364 0.04522 0.75426 0.0
C2420 C 0.65345 0.07593 0.79208 0.0
C2421 C 0.65006 0.09514 0.78445 0.0
C2422 C 0.65677 0.05322 0.78752 0.0
C2423 C 0.65723 0.04948 0.7753 0.0
C2424 C 0.65491 0.06877 0.76771 0.0
H2425 H 0.6508 0.93015 0.72735 0.0
H2426 H 0.65645 0.96912 0.73635 0.0
C2427 C 0.65132 0.09134 0.77223 0.0
C2428 C 0.65746 0.02529 0.77038 0.0
H2429 H 0.68823 0.98814 0.75241 0.0
C2430 C 0.63771 0.01101 0.77229 0.0
C2431 C 0.67593 0.01699 0.76314 0.0
C2432 C 0.69767 0.03158 0.76096 0.0
C2433 C 0.63564 0.98883 0.76695 0.0
C2434 C 0.6542 0.98034 0.75978 0.0
C2435 C 0.67405 0.99461 0.75791 0.0
C2436 C 0.65322 0.95662 0.75428 0.0
C2437 C 0.61317 0.97507 0.76874 0.0
C2438 C 0.65044 0.93659 0.76136 0.0
C2439 C 0.64695 0.91453 0.75627 0.0
C2440 C 0.64662 0.91185 0.74396 0.0
C2441 C 0.65092 0.93166 0.73685 0.0
C2442 C 0.65411 0.95391 0.74199 0.0
H2443 H 0.59837 0.98667 0.77142 0.0
H2444 H 0.60801 0.96556 0.7606 0.0
H2445 H 0.61588 0.96193 0.77584 0.0
H2446 H 0.6504 0.93811 0.77087 0.0
H2447 H 0.64413 0.89956 0.76201 0.0
H2448 H 0.65085 0.61067 0.01381 0.0
H2449 H 0.68985 0.60409 1.00552 0.0
H2450 H 0.71969 0.60367 0.04046 0.0
H2451 H 0.68035 0.60953 0.04887 0.0
H2452 H 0.72518 0.63397 1.00696 0.0
H2453 H 0.75402 0.54895 0.02603 0.0
H2454 H 0.72383 0.55882 0.02667 0.0
H2455 H 0.7452 0.56988 0.037 0.0
C2456 C 0.66564 0.60874 0.01977 0.0
C2457 C 0.66252 0.61068 0.03201 0.0
C2458 C 0.68796 0.60498 0.015 0.0
C2459 C 0.70777 0.60321 0.02234 0.0
C2460 C 0.70465 0.60441 0.03461 0.0
H2461 H 0.85603 0.62045 1.0114 0.0
H2462 H 0.8164 0.61391 0.01898 0.0
C2463 C 0.68217 0.60787 0.03942 0.0
C2464 C 0.7317 0.60245 0.01701 0.0
H2465 H 0.78386 0.57235 0.0168 0.0
C2466 C 0.73786 0.6203 1.00901 0.0
C2467 C 0.74834 0.58466 0.01969 0.0
C2468 C 0.74247 0.56436 0.02773 0.0
C2469 C 0.76028 0.62116 1.00385 0.0
C2470 C 0.777 0.60365 1.00668 0.0
C2471 C 0.7709 0.58568 0.0146 0.0
C2472 C 0.8014 0.60482 1.0021 0.0
C2473 C 0.7662 0.64123 0.99566 0.0
C2474 C 0.80622 0.6013 0.9901 0.0
C2475 C 0.82899 0.60494 0.98569 0.0
C2476 C 0.84722 0.61237 0.99322 0.0
C2477 C 0.8424 0.61496 1.00531 0.0
C2478 C 0.81977 0.61112 1.0097 0.0
H2479 H 0.75249 0.65518 0.99572 0.0
H2480 H 0.78335 0.64923 0.99814 0.0
H2481 H 0.76784 0.63443 0.98654 0.0
H2482 H 0.79224 0.59631 0.98411 0.0
H2483 H 0.83208 0.60279 0.97635 0.0
H2484 H 0.1604 0.90162 0.76528 0.0
H2485 H 0.16703 0.94057 0.75687 0.0
H2486 H 0.15247 0.97221 0.79061 0.0
H2487 H 0.14655 0.93297 0.79917 0.0
H2488 H 0.13312 0.97228 0.75512 0.0
H2489 H 0.20729 0.01179 0.77989 0.0
H2490 H 0.20079 0.98069 0.78041 0.0
H2491 H 0.18427 1.00109 0.78928 0.0
C2492 C 0.15926 0.91685 0.77099 0.0
C2493 C 0.15296 0.91429 0.78288 0.0
C2494 C 0.163 0.93912 0.76616 0.0
C2495 C 0.16033 0.95939 0.77308 0.0
C2496 C 0.15514 0.95685 0.78513 0.0
H2497 H 0.13279 0.10474 0.75924 0.0
H2498 H 0.14065 0.0659 0.76739 0.0
C2499 C 0.15172 0.93443 0.79003 0.0
C2500 C 0.1602 0.98293 0.76731 0.0
H2501 H 0.18377 0.03826 0.76838 0.0
C2502 C 0.14447 0.98659 0.75793 0.0
C2503 C 0.1749 1.00166 0.77098 0.0
C2504 C 0.19293 0.99859 0.78062 0.0
C2505 C 0.14256 0.00854 0.75234 0.0
C2506 C 0.15693 0.02736 0.75615 0.0
C2507 C 0.17287 0.02372 0.76543 0.0
C2508 C 0.15421 0.05137 0.75118 0.0
C2509 C 0.12455 0.01168 0.74268 0.0
C2510 C 0.15964 0.05626 0.73936 0.0
C2511 C 0.15517 0.07861 0.73461 0.0
C2512 C 0.14507 0.09639 0.7416 0.0
C2513 C 0.14035 0.09149 0.75353 0.0
C2514 C 0.14495 0.06929 0.75826 0.0
H2515 H 0.11213 0.99661 0.74216 0.0
H2516 H 0.11426 0.02808 0.74408 0.0
H2517 H 0.13371 0.01323 0.73409 0.0
H2518 H 0.16702 0.04268 0.73378 0.0
H2519 H 0.15909 0.08178 0.72542 0.0
H2520 H 0.85787 0.39659 0.51511 0.0
H2521 H 0.8194 0.40313 0.50619 0.0
H2522 H 0.78748 0.40367 0.54063 0.0
H2523 H 0.82635 0.39784 0.54968 0.0
H2524 H 0.784 0.37328 0.50705 0.0
H2525 H 0.75412 0.45842 0.52555 0.0
H2526 H 0.78423 0.4485 0.5267 0.0
H2527 H 0.76222 0.43746 0.53666 0.0
C2528 C 0.84272 0.39852 0.52082 0.0
C2529 C 0.84512 0.39662 0.53311 0.0
C2530 C 0.82071 0.40226 0.5157 0.0
C2531 C 0.80047 0.40404 0.5227 0.0
C2532 C 0.80286 0.40289 0.53503 0.0
H2533 H 0.65296 0.3881 0.50954 0.0
H2534 H 0.69228 0.39433 0.51757 0.0
C2535 C 0.82506 0.39946 0.5402 0.0
C2536 C 0.7769 0.40484 0.51696 0.0
H2537 H 0.72493 0.43516 0.51573 0.0
C2538 C 0.77123 0.38701 0.50885 0.0
C2539 C 0.76016 0.42271 0.5193 0.0
C2540 C 0.76554 0.44299 0.52744 0.0
C2541 C 0.7492 0.38623 0.50326 0.0
C2542 C 0.73235 0.40383 0.50576 0.0
C2543 C 0.73798 0.42178 0.51378 0.0
C2544 C 0.7082 0.40265 0.50081 0.0
C2545 C 0.74378 0.36615 0.49499 0.0
C2546 C 0.70399 0.4058 0.48872 0.0
C2547 C 0.68136 0.40232 0.48405 0.0
C2548 C 0.66269 0.39542 0.49141 0.0
C2549 C 0.66695 0.39315 0.50358 0.0
C2550 C 0.6894 0.39682 0.50822 0.0
H2551 H 0.75741 0.35214 0.49534 0.0
H2552 H 0.72643 0.35824 0.49715 0.0
H2553 H 0.74284 0.37292 0.48584 0.0
H2554 H 0.7183 0.41044 0.48287 0.0
H2555 H 0.67869 0.40423 0.47466 0.0
H2556 H 0.35823 0.08135 0.29974 0.0
H2557 H 0.35166 0.04246 0.29079 0.0
H2558 H 0.36208 0.07239 0.25631 0.0
H2559 H 0.36914 0.11082 0.2651 0.0
H2560 H 0.31992 0.02511 0.27391 0.0
H2561 H 0.41154 0.02091 0.25722 0.0
H2562 H 0.40214 0.0426 0.26781 0.0
H2563 H 0.39599 0.04665 0.2524 0.0
C2564 C 0.35894 0.07963 0.29025 0.0
C2565 C 0.3646 0.09912 0.28316 0.0
C2566 C 0.3552 0.05742 0.28515 0.0
C2567 C 0.35696 0.05442 0.27289 0.0
C2568 C 0.3613 0.07412 0.2658 0.0
H2569 H 0.35791 0.93217 0.22612 0.0
H2570 H 0.35247 0.97235 0.2337 0.0
C2571 C 0.36526 0.09614 0.27086 0.0
C2572 C 0.35511 0.03068 0.26745 0.0
H2573 H 0.38535 0.99145 0.25039 0.0
C2574 C 0.33423 0.01771 0.26879 0.0
C2575 C 0.37382 0.02101 0.26077 0.0
C2576 C 0.39722 0.03339 0.25954 0.0
C2577 C 0.33148 0.99547 0.26351 0.0
C2578 C 0.35014 0.98594 0.25678 0.0
C2579 C 0.37093 0.99895 0.2554 0.0
C2580 C 0.34945 0.96169 0.25192 0.0
C2581 C 0.3086 0.98238 0.26508 0.0
C2582 C 0.34913 0.94241 0.25962 0.0
C2583 C 0.35238 0.91961 0.25534 0.0
C2584 C 0.35596 0.91554 0.24325 0.0
C2585 C 0.35497 0.93472 0.23545 0.0
C2586 C 0.35198 0.95766 0.23977 0.0
H2587 H 0.29407 0.99438 0.2677 0.0
H2588 H 0.30352 0.97311 0.25686 0.0
H2589 H 0.31078 0.969 0.27211 0.0
H2590 H 0.34762 0.9451 0.26903 0.0
H2591 H 0.35303 0.90521 0.26159 0.0
H2592 H 0.85871 0.88812 0.5121 0.0
H2593 H 0.81952 0.89393 0.52043 0.0
H2594 H 0.79251 0.91129 0.48605 0.0
H2595 H 0.83178 0.90556 0.47756 0.0
H2596 H 0.78574 0.93535 0.51859 0.0
H2597 H 0.75504 0.85133 0.49852 0.0
H2598 H 0.78588 0.85797 0.50053 0.0
H2599 H 0.76957 0.87201 0.48897 0.0
C2600 C 0.84454 0.89342 0.50629 0.0
C2601 C 0.84841 0.89617 0.49411 0.0
C2602 C 0.82217 0.89683 0.5111 0.0
C2603 C 0.80315 0.90286 0.50384 0.0
C2604 C 0.80701 0.90652 0.49178 0.0
H2605 H 0.6531 0.89642 0.51559 0.0
H2606 H 0.69229 0.90285 0.50749 0.0
C2607 C 0.82947 0.90328 0.48695 0.0
C2608 C 0.77904 0.90362 0.5088 0.0
H2609 H 0.72751 0.87286 0.50951 0.0
C2610 C 0.7729 0.92179 0.51659 0.0
C2611 C 0.76248 0.88581 0.50621 0.0
C2612 C 0.76847 0.86554 0.49817 0.0
C2613 C 0.75037 0.92282 0.52172 0.0
C2614 C 0.73382 0.90485 0.5192 0.0
C2615 C 0.74011 0.88669 0.51141 0.0
C2616 C 0.70979 0.90431 0.5244 0.0
C2617 C 0.74438 0.94337 0.52957 0.0
C2618 C 0.70637 0.90356 0.53666 0.0
C2619 C 0.68377 0.9002 0.54136 0.0
C2620 C 0.66434 0.89706 0.53385 0.0
C2621 C 0.66775 0.89861 0.52161 0.0
C2622 C 0.69016 0.90229 0.51696 0.0
H2623 H 0.75599 0.95872 0.52782 0.0
H2624 H 0.72578 0.9489 0.52837 0.0
H2625 H 0.74689 0.93812 0.53889 0.0
H2626 H 0.72126 0.90453 0.5426 0.0
H2627 H 0.68171 0.89884 0.55081 0.0
H2628 H 0.3589 0.60256 0.76132 0.0
H2629 H 0.35257 0.5625 0.7683 0.0
H2630 H 0.35066 0.53757 0.73248 0.0
H2631 H 0.35718 0.57791 0.72533 0.0
H2632 H 0.31727 0.52676 0.76363 0.0
H2633 H 0.40724 0.50284 0.74831 0.0
H2634 H 0.39761 0.53301 0.74956 0.0
H2635 H 0.38775 0.51522 0.73747 0.0
C2636 C 0.35681 0.58865 0.75488 0.0
C2637 C 0.35884 0.5934 0.74275 0.0
C2638 C 0.35309 0.56576 0.75891 0.0
C2639 C 0.35148 0.54704 0.75093 0.0
C2640 C 0.35212 0.5518 0.73878 0.0
H2641 H 0.36587 0.39751 0.76397 0.0
H2642 H 0.35849 0.43585 0.75514 0.0
C2643 C 0.3557 0.57484 0.73471 0.0
C2644 C 0.3512 0.52256 0.75547 0.0
H2645 H 0.38564 0.47361 0.75807 0.0
C2646 C 0.3321 0.515 0.76235 0.0
C2647 C 0.37069 0.50741 0.75388 0.0
C2648 C 0.39211 0.51496 0.74699 0.0
C2649 C 0.3319 0.49256 0.7676 0.0
C2650 C 0.35157 0.47754 0.76615 0.0
C2651 C 0.37054 0.4851 0.75918 0.0
C2652 C 0.35311 0.45386 0.77169 0.0
C2653 C 0.31053 0.48507 0.77452 0.0
C2654 C 0.35215 0.45102 0.78399 0.0
C2655 C 0.35618 0.42889 0.78912 0.0
C2656 C 0.36165 0.40936 0.78202 0.0
C2657 C 0.36193 0.41221 0.76972 0.0
C2658 C 0.35767 0.43415 0.76463 0.0
H2659 H 0.29469 0.4954 0.77199 0.0
H2660 H 0.30673 0.46608 0.77322 0.0
H2661 H 0.31384 0.4881 0.78403 0.0
H2662 H 0.34918 0.46605 0.78966 0.0
H2663 H 0.35601 0.4273 0.79862 0.0
H2664 H 0.83102 0.10614 0.05185 0.0
H2665 H 0.79089 0.09849 0.04463 0.0
H2666 H 0.81686 0.09642 1.00899 0.0
H2667 H 0.85663 0.10388 0.01608 0.0
H2668 H 0.76841 0.12981 0.02903 0.0
H2669 H 0.77161 0.04044 1.00961 0.0
H2670 H 0.79319 0.05079 0.0201 0.0
H2671 H 0.79525 0.05913 1.00487 0.0
C2672 C 0.82822 0.10336 0.04253 0.0
C2673 C 0.84696 0.1057 0.03454 0.0
C2674 C 0.80531 0.09909 0.0384 0.0
C2675 C 0.80091 0.09664 0.02627 0.0
C2676 C 0.81983 0.09778 0.01839 0.0
H2677 H 0.68227 0.10557 0.97826 0.0
H2678 H 0.72099 0.09892 0.98743 0.0
C2679 C 0.84257 0.10224 0.02247 0.0
C2680 C 0.77646 0.09591 0.02162 0.0
H2681 H 0.73953 0.06507 1.0035 0.0
C2682 C 0.76194 0.11548 0.02361 0.0
C2683 C 0.76822 0.07739 0.01437 0.0
C2684 C 0.78279 0.05564 1.01218 0.0
C2685 C 0.73971 0.1174 0.01828 0.0
C2686 C 0.73148 0.09894 1.01097 0.0
C2687 C 0.74586 0.0792 1.00908 0.0
C2688 C 0.7079 0.10001 1.00531 0.0
C2689 C 0.72562 0.13961 0.0202 0.0
C2690 C 0.68765 0.10186 1.01228 0.0
C2691 C 0.66572 0.10583 1.00711 0.0
C2692 C 0.66343 0.10768 0.99481 0.0
C2693 C 0.68347 0.10424 0.98776 0.0
C2694 C 0.70558 0.10049 0.99298 0.0
H2695 H 0.73687 0.15437 0.02329 0.0
H2696 H 0.71657 0.14515 1.01198 0.0
H2697 H 0.71204 0.13633 0.02701 0.0
H2698 H 0.68891 0.10094 0.02179 0.0
H2699 H 0.65058 0.108 1.0128 0.0
H2700 H 0.11124 0.59507 0.27291 0.0
H2701 H 0.11906 0.5564 0.26478 0.0
H2702 H 0.18132 0.55047 0.28637 0.0
H2703 H 0.17306 0.58937 0.29496 0.0
H2704 H 0.15541 0.54134 0.25206 0.0
H2705 H 0.14921 0.48872 0.29324 0.0
H2706 H 0.14021 0.51913 0.29256 0.0
H2707 H 0.17094 0.51169 0.29326 0.0
C2708 C 0.12658 0.58561 0.27603 0.0
C2709 C 0.14153 0.59539 0.28462 0.0
C2710 C 0.13107 0.56343 0.27131 0.0
C2711 C 0.15072 0.55038 0.27496 0.0
C2712 C 0.1658 0.55999 0.28355 0.0
H2713 H 0.17409 0.42093 0.23243 0.0
H2714 H 0.18196 0.45948 0.24143 0.0
C2715 C 0.16111 0.58225 0.28843 0.0
C2716 C 0.15491 0.52686 0.26957 0.0
H2717 H 0.15537 0.46798 0.27566 0.0
C2718 C 0.15566 0.52528 0.25722 0.0
C2719 C 0.15522 0.50591 0.27631 0.0
C2720 C 0.15367 0.50629 0.28957 0.0
C2721 C 0.15534 0.50344 0.25141 0.0
C2722 C 0.15503 0.48248 0.25815 0.0
C2723 C 0.15562 0.48405 0.2705 0.0
C2724 C 0.1512 0.45894 0.25269 0.0
C2725 C 0.15385 0.50311 0.23815 0.0
C2726 C 0.13164 0.44558 0.25616 0.0
C2727 C 0.12735 0.42356 0.2512 0.0
C2728 C 0.14242 0.41428 0.24254 0.0
C2729 C 0.16201 0.42767 0.23898 0.0
C2730 C 0.16648 0.44974 0.2441 0.0
H2731 H 0.1491 0.52062 0.23449 0.0
H2732 H 0.17122 0.49804 0.23448 0.0
H2733 H 0.14061 0.49007 0.23511 0.0
H2734 H 0.1195 0.45229 0.26271 0.0
H2735 H 0.11203 0.41386 0.25414 0.0
H2736 H 0.17741 0.10021 0.54829 0.0
H2737 H 0.21677 0.09189 0.54038 0.0
H2738 H 0.1942 0.11514 0.50605 0.0
H2739 H 0.15506 0.12333 0.51376 0.0
H2740 H 0.22271 0.07286 0.50606 0.0
H2741 H 0.26201 0.14685 0.5315 0.0
H2742 H 0.24572 0.12542 0.53981 0.0
H2743 H 0.23065 0.14384 0.52941 0.0
C2744 C 0.18076 0.1033 0.53903 0.0
C2745 C 0.1631 0.11268 0.53171 0.0
C2746 C 0.20326 0.09862 0.53454 0.0
C2747 C 0.20843 0.10315 0.52266 0.0
C2748 C 0.1906 0.11156 0.51525 0.0
H2749 H 0.32854 0.11043 0.47586 0.0
H2750 H 0.28906 0.10432 0.48409 0.0
C2751 C 0.16823 0.11634 0.51971 0.0
C2752 C 0.23266 0.10058 0.51798 0.0
H2753 H 0.28728 0.12541 0.51922 0.0
C2754 C 0.23694 0.08418 0.50898 0.0
C2755 C 0.25108 0.11551 0.52176 0.0
C2756 C 0.24724 0.13405 0.53109 0.0
C2757 C 0.25925 0.08223 0.50369 0.0
C2758 C 0.27757 0.09746 0.50734 0.0
C2759 C 0.27328 0.11366 0.51644 0.0
C2760 C 0.30132 0.09744 0.50183 0.0
C2761 C 0.26302 0.06376 0.49436 0.0
C2762 C 0.32135 0.09538 0.50899 0.0
C2763 C 0.34375 0.09922 0.50435 0.0
C2764 C 0.34668 0.10503 0.49242 0.0
C2765 C 0.3268 0.10568 0.48505 0.0
C2766 C 0.30424 0.10213 0.48975 0.0
H2767 H 0.25 0.04924 0.49513 0.0
H2768 H 0.2608 0.07191 0.48555 0.0
H2769 H 0.28102 0.0562 0.49489 0.0
H2770 H 0.31958 0.09174 0.51831 0.0
H2771 H 0.35877 0.0985 0.51023 0.0
H2772 H 0.66223 0.4022 0.26459 0.0
H2773 H 0.66865 0.44124 0.25625 0.0
H2774 H 0.65454 0.47254 0.29011 0.0
H2775 H 0.64882 0.43322 0.29861 0.0
H2776 H 0.63463 0.47287 0.25471 0.0
H2777 H 0.70905 0.51239 0.27927 0.0
H2778 H 0.70266 0.48127 0.27974 0.0
H2779 H 0.68625 0.50151 0.28874 0.0
C2780 C 0.66115 0.41738 0.27034 0.0
C2781 C 0.65502 0.4147 0.28225 0.0
C2782 C 0.66478 0.4397 0.26555 0.0
C2783 C 0.66216 0.4599 0.27253 0.0
C2784 C 0.65717 0.45724 0.28459 0.0
H2785 H 0.63344 0.60521 0.2595 0.0
H2786 H 0.64178 0.56625 0.2674 0.0
C2787 C 0.65385 0.43477 0.28945 0.0
C2788 C 0.66186 0.48349 0.26682 0.0
H2789 H 0.6851 0.53894 0.26801 0.0
C2790 C 0.64593 0.4872 0.25752 0.0
C2791 C 0.67652 0.50225 0.2705 0.0
C2792 C 0.69475 0.49914 0.28003 0.0
C2793 C 0.64378 0.50923 0.25203 0.0
C2794 C 0.65808 0.52809 0.25586 0.0
C2795 C 0.67424 0.52439 0.26505 0.0
C2796 C 0.65508 0.55218 0.25104 0.0
C2797 C 0.62556 0.51242 0.24248 0.0
C2798 C 0.6602 0.55735 0.23922 0.0
C2799 C 0.65544 0.57977 0.23461 0.0
C2800 C 0.64538 0.59733 0.24175 0.0
C2801 C 0.64097 0.59213 0.25368 0.0
C2802 C 0.64584 0.56987 0.25826 0.0
H2803 H 0.61325 0.49726 0.24194 0.0
H2804 H 0.61518 0.5287 0.244 0.0
H2805 H 0.63455 0.5142 0.23385 0.0
H2806 H 0.66755 0.54395 0.23352 0.0
H2807 H 0.65914 0.58316 0.22541 0.0
H2808 H 0.14957 0.90232 1.01071 0.0
H2809 H 0.18786 0.90933 0.01977 0.0
H2810 H 0.22095 0.90515 0.98567 0.0
H2811 H 0.18237 0.89879 0.97648 0.0
H2812 H 0.2227 0.87856 0.02002 0.0
H2813 H 0.25507 0.96077 0.99945 0.0
H2814 H 0.22475 0.95148 0.99837 0.0
H2815 H 0.24671 0.93896 0.98882 0.0
C2816 C 0.16494 0.90336 1.00509 0.0
C2817 C 0.16295 0.89994 0.99287 0.0
C2818 C 0.18684 0.90737 1.0103 0.0
C2819 C 0.20735 0.90793 1.00344 0.0
C2820 C 0.20537 0.90534 0.99115 0.0
H2821 H 0.35429 0.88987 0.0162 0.0
H2822 H 0.31494 0.89694 1.00844 0.0
C2823 C 0.18331 0.90161 0.98589 0.0
C2824 C 0.23079 0.90881 1.00932 0.0
H2825 H 0.28371 0.93749 1.00973 0.0
C2826 C 0.23589 0.89168 0.01788 0.0
C2827 C 0.24807 0.92588 1.00653 0.0
C2828 C 0.24332 0.94545 0.99788 0.0
C2829 C 0.25795 0.89069 0.02345 0.0
C2830 C 0.27538 0.90741 0.02047 0.0
C2831 C 0.27025 0.92477 1.01204 0.0
C2832 C 0.29964 0.90575 0.02528 0.0
C2833 C 0.26277 0.87117 0.03215 0.0
C2834 C 0.30428 0.90895 0.03733 0.0
C2835 C 0.32694 0.90494 0.04185 0.0
C2836 C 0.34524 0.89753 0.03439 0.0
C2837 C 0.34061 0.89531 0.02225 0.0
C2838 C 0.31811 0.89946 0.01776 0.0
H2839 H 0.24882 0.85747 0.03202 0.0
H2840 H 0.27996 0.86268 0.03025 0.0
H2841 H 0.26366 0.87866 0.04116 0.0
H2842 H 0.29027 0.91403 0.04327 0.0
H2843 H 0.3299 0.90685 0.05122 0.0
H2844 H 0.83509 0.42312 0.73014 0.0
H2845 H 0.82579 0.46247 0.73798 0.0
H2846 H 0.87935 0.4538 0.76459 0.0
H2847 H 0.88809 0.4149 0.75721 0.0
H2848 H 0.84018 0.47147 0.77396 0.0
H2849 H 0.86397 0.52181 0.73364 0.0
H2850 H 0.84104 0.50025 0.73206 0.0
H2851 H 0.87061 0.49093 0.73522 0.0
C2852 C 0.84482 0.42968 0.73766 0.0
C2853 C 0.86229 0.41575 0.74304 0.0
C2854 C 0.83957 0.4522 0.74211 0.0
C2855 C 0.85198 0.46121 0.75185 0.0
C2856 C 0.86937 0.44726 0.75714 0.0
H2857 H 0.89817 0.59336 0.77446 0.0
H2858 H 0.88871 0.55555 0.76565 0.0
C2859 C 0.87439 0.4249 0.75284 0.0
C2860 C 0.8477 0.48518 0.75671 0.0
H2861 H 0.85551 0.54351 0.75061 0.0
C2862 C 0.8432 0.48729 0.76883 0.0
C2863 C 0.85166 0.50579 0.75 0.0
C2864 C 0.85725 0.50474 0.73703 0.0
C2865 C 0.84425 0.50916 0.77459 0.0
C2866 C 0.84908 0.52969 0.76796 0.0
C2867 C 0.85191 0.52776 0.7557 0.0
C2868 C 0.85422 0.55279 0.77363 0.0
C2869 C 0.84181 0.50973 0.78782 0.0
C2870 C 0.83809 0.56393 0.78121 0.0
C2871 C 0.84376 0.58551 0.78654 0.0
C2872 C 0.86539 0.59656 0.78413 0.0
C2873 C 0.88133 0.5854 0.7765 0.0
C2874 C 0.87588 0.56377 0.77138 0.0
H2875 H 0.84344 0.49192 0.79178 0.0
H2876 H 0.85537 0.5213 0.79183 0.0
H2877 H 0.8242 0.51677 0.79016 0.0
H2878 H 0.82105 0.55612 0.7829 0.0
H2879 H 0.83098 0.59383 0.79225 0.0
H2880 H 0.13579 0.43103 0.08886 0.0
H2881 H 0.14565 0.43219 0.10986 0.0
H2882 H 0.13754 0.35676 0.11179 0.0
H2883 H 0.12898 0.35543 0.09079 0.0
H2884 H 0.12026 0.42266 0.12769 0.0
H2885 H 0.19599 0.36237 0.1302 0.0
H2886 H 0.18476 0.37292 0.11632 0.0
H2887 H 0.17175 0.34758 0.12336 0.0
C2888 C 0.13667 0.41466 0.09373 0.0
C2889 C 0.13182 0.39312 0.08814 0.0
C2890 C 0.14222 0.41533 0.10575 0.0
C2891 C 0.14279 0.39452 0.11247 0.0
C2892 C 0.13809 0.373 0.10682 0.0
H2893 H 0.10722 0.37882 0.1852 0.0
H2894 H 0.10879 0.387 0.16418 0.0
C2895 C 0.13301 0.37227 0.09478 0.0
C2896 C 0.1463 0.39539 0.12549 0.0
H2897 H 0.17395 0.36748 0.14828 0.0
C2898 C 0.13232 0.41085 0.13216 0.0
C2899 C 0.1624 0.38046 0.13143 0.0
C2900 C 0.17975 0.36513 0.12492 0.0
C2901 C 0.13312 0.41095 0.14452 0.0
C2902 C 0.1476 0.39445 0.15047 0.0
C2903 C 0.16248 0.37986 0.1438 0.0
C2904 C 0.1467 0.39111 0.1635 0.0
C2905 C 0.11848 0.42889 0.15102 0.0
C2906 C 0.16751 0.39002 0.17022 0.0
C2907 C 0.16668 0.3847 0.18226 0.0
C2908 C 0.145 0.38058 0.18786 0.0
C2909 C 0.12419 0.38227 0.18121 0.0
C2910 C 0.12506 0.38714 0.16915 0.0
H2911 H 0.11622 0.44515 0.1457 0.0
H2912 H 0.10068 0.42153 0.15265 0.0
H2913 H 0.12654 0.43374 0.15959 0.0
H2914 H 0.18446 0.39287 0.1661 0.0
H2915 H 0.18302 0.38341 0.18714 0.0
H2916 H 0.88093 0.85251 0.43587 0.0
H2917 H 0.8734 0.85322 0.41472 0.0
H2918 H 0.86236 0.92832 0.41628 0.0
H2919 H 0.87135 0.92784 0.43738 0.0
H2920 H 0.83939 0.86378 0.40083 0.0
H2921 H 0.91151 0.9269 0.39173 0.0
H2922 H 0.90694 0.91435 0.4061 0.0
H2923 H 0.88938 0.93892 0.40122 0.0
C2924 C 0.87667 0.86916 0.43174 0.0
C2925 C 0.87696 0.89016 0.43827 0.0
C2926 C 0.87239 0.86957 0.41961 0.0
C2927 C 0.86795 0.89093 0.41376 0.0
C2928 C 0.86662 0.91173 0.42045 0.0
H2929 H 0.82619 0.88101 0.33885 0.0
H2930 H 0.82492 0.88881 0.36006 0.0
C2931 C 0.87147 0.9114 0.43255 0.0
C2932 C 0.86549 0.89125 0.40067 0.0
H2933 H 0.88786 0.91585 0.37558 0.0
C2934 C 0.84999 0.87519 0.39532 0.0
C2935 C 0.87953 0.90591 0.3934 0.0
C2936 C 0.89794 0.92231 0.39839 0.0
C2937 C 0.84852 0.87296 0.383 0.0
C2938 C 0.86215 0.888 0.37574 0.0
C2939 C 0.87722 0.90446 0.3811 0.0
C2940 C 0.86261 0.88571 0.36264 0.0
C2941 C 0.83324 0.85365 0.37799 0.0
C2942 C 0.88426 0.88293 0.35682 0.0
C2943 C 0.88505 0.87931 0.34465 0.0
C2944 C 0.86418 0.87805 0.33802 0.0
C2945 C 0.84255 0.88169 0.34374 0.0
C2946 C 0.8418 0.88586 0.3559 0.0
H2947 H 0.82952 0.83975 0.38462 0.0
H2948 H 0.81612 0.86122 0.37519 0.0
H2949 H 0.84168 0.84525 0.37025 0.0
H2950 H 0.90061 0.88283 0.36174 0.0
H2951 H 0.90201 0.87648 0.34054 0.0
H2952 H 0.40968 0.63637 0.68735 0.0
H2953 H 0.4098 0.62992 0.6661 0.0
H2954 H 0.33428 0.6216 0.66656 0.0
H2955 H 0.33399 0.62945 0.68775 0.0
H2956 H 0.39879 0.59624 0.65209 0.0
H2957 H 0.33884 0.67042 0.64192 0.0
H2958 H 0.35039 0.66551 0.65648 0.0
H2959 H 0.32537 0.64895 0.6513 0.0
C2960 C 0.3931 0.63307 0.68293 0.0
C2961 C 0.3718 0.63364 0.68921 0.0
C2962 C 0.39317 0.62938 0.67075 0.0
C2963 C 0.37198 0.62586 0.66458 0.0
C2964 C 0.35079 0.62513 0.67097 0.0
H2965 H 0.38075 0.58028 0.59031 0.0
H2966 H 0.37362 0.58067 0.61159 0.0
C2967 C 0.35066 0.62937 0.68313 0.0
C2968 C 0.37226 0.62329 0.65149 0.0
H2969 H 0.34908 0.64558 0.62603 0.0
C2970 C 0.38793 0.60707 0.6464 0.0
C2971 C 0.35835 0.63762 0.64399 0.0
C2972 C 0.34248 0.65676 0.64869 0.0
C2973 C 0.39035 0.605 0.63412 0.0
C2974 C 0.37592 0.61882 0.62662 0.0
C2975 C 0.35999 0.63477 0.63172 0.0
C2976 C 0.3782 0.61835 0.61352 0.0
C2977 C 0.40915 0.58879 0.62938 0.0
C2978 C 0.38171 0.63948 0.60732 0.0
C2979 C 0.38498 0.63935 0.59512 0.0
C2980 C 0.38515 0.61805 0.58883 0.0
C2981 C 0.38093 0.59695 0.59494 0.0
C2982 C 0.37712 0.59714 0.60714 0.0
H2983 H 0.4229 0.58504 0.63609 0.0
H2984 H 0.40102 0.57177 0.62686 0.0
H2985 H 0.41784 0.59645 0.62151 0.0
H2986 H 0.38254 0.65611 0.61196 0.0
H2987 H 0.38828 0.65591 0.59069 0.0
H2988 H 0.67936 0.14132 0.84199 0.0
H2989 H 0.67864 0.13385 0.86321 0.0
H2990 H 0.60598 0.11243 0.86073 0.0
H2991 H 0.60646 0.12013 0.83956 0.0
H2992 H 0.61326 0.14576 0.87777 0.0
H2993 H 0.67817 0.07347 0.88273 0.0
H2994 H 0.68913 0.09853 0.8748 0.0
H2995 H 0.66549 0.0814 0.86869 0.0
C2996 C 0.66335 0.13461 0.84592 0.0
C2997 C 0.64296 0.13133 0.83906 0.0
C2998 C 0.663 0.13024 0.85806 0.0
C2999 C 0.64232 0.12236 0.86358 0.0
C3000 C 0.62216 0.11843 0.85668 0.0
H3001 H 0.61968 0.07897 0.93629 0.0
H3002 H 0.62602 0.08008 0.91496 0.0
C3003 C 0.62249 0.12279 0.84456 0.0
C3004 C 0.64105 0.12008 0.87662 0.0
H3005 H 0.66534 0.09213 0.90039 0.0
C3006 C 0.6246 0.13396 0.8827 0.0
C3007 C 0.65572 0.10456 0.88307 0.0
C3008 C 0.67298 0.08846 0.877 0.0
C3009 C 0.62262 0.133 0.89501 0.0
C3010 C 0.63777 0.11803 0.90149 0.0
C3011 C 0.65396 0.10382 0.89543 0.0
C3012 C 0.63655 0.11666 0.91456 0.0
C3013 C 0.60403 0.14779 0.90096 0.0
C3014 C 0.64118 0.13661 0.92148 0.0
C3015 C 0.63758 0.13604 0.93366 0.0
C3016 C 0.62938 0.11545 0.93919 0.0
C3017 C 0.62597 0.09512 0.93232 0.0
C3018 C 0.62958 0.09572 0.92012 0.0
H3019 H 0.5903 0.15376 0.89466 0.0
H3020 H 0.59538 0.13784 0.90817 0.0
H3021 H 0.61242 0.16365 0.90483 0.0
H3022 H 0.64699 0.15284 0.91741 0.0
H3023 H 0.64048 0.15198 0.93868 0.0
H3024 H 0.10543 0.62304 0.33997 0.0
H3025 H 0.10592 0.61615 0.36123 0.0
H3026 H 0.17949 0.63468 0.36245 0.0
H3027 H 0.17924 0.64136 0.34115 0.0
H3028 H 0.16769 0.59573 0.37699 0.0
H3029 H 0.10815 0.6718 0.38436 0.0
H3030 H 0.09682 0.65019 0.37431 0.0
H3031 H 0.12272 0.66668 0.37049 0.0
C3032 C 0.12182 0.62535 0.34472 0.0
C3033 C 0.14226 0.63294 0.33886 0.0
C3034 C 0.12203 0.62153 0.3569 0.0
C3035 C 0.14262 0.62535 0.36347 0.0
C3036 C 0.16336 0.63176 0.35757 0.0
H3037 H 0.14294 0.65273 0.43881 0.0
H3038 H 0.15046 0.65398 0.41763 0.0
C3039 C 0.16318 0.63556 0.34538 0.0
C3040 C 0.14223 0.62379 0.37655 0.0
H3041 H 0.11667 0.64796 0.40092 0.0
C3042 C 0.15658 0.60716 0.38224 0.0
C3043 C 0.12805 0.63901 0.38341 0.0
C3044 C 0.11321 0.65809 0.37787 0.0
C3045 C 0.15671 0.605 0.3946 0.0
C3046 C 0.14191 0.61969 0.40142 0.0
C3047 C 0.12793 0.63661 0.39571 0.0
C3048 C 0.14029 0.61782 0.41447 0.0
C3049 C 0.17294 0.58725 0.40023 0.0
C3050 C 0.13248 0.59694 0.41982 0.0
C3051 C 0.12827 0.59614 0.43197 0.0
C3052 C 0.13159 0.61627 0.43899 0.0
C3053 C 0.14026 0.63688 0.43368 0.0
C3054 C 0.1445 0.63765 0.42155 0.0
H3055 H 0.18763 0.58232 0.39427 0.0
H3056 H 0.18045 0.59415 0.40858 0.0
H3057 H 0.16284 0.57104 0.40228 0.0
H3058 H 0.12865 0.58154 0.41455 0.0
H3059 H 0.12143 0.58003 0.43575 0.0
H3060 H 0.67963 0.87018 0.6856 0.0
H3061 H 0.67882 0.87785 0.66441 0.0
H3062 H 0.6061 0.89908 0.66692 0.0
H3063 H 0.60666 0.89114 0.68807 0.0
H3064 H 0.6133 0.86523 0.6502 0.0
H3065 H 0.67783 0.93757 0.64441 0.0
H3066 H 0.68906 0.91284 0.65252 0.0
H3067 H 0.66543 0.93007 0.65856 0.0
C3068 C 0.6636 0.87696 0.68169 0.0
C3069 C 0.64319 0.88 0.68853 0.0
C3070 C 0.6632 0.88144 0.66957 0.0
C3071 C 0.64245 0.88923 0.66407 0.0
C3072 C 0.62233 0.89314 0.67097 0.0
H3073 H 0.61833 0.92904 0.591 0.0
H3074 H 0.62505 0.92911 0.61231 0.0
C3075 C 0.6227 0.88864 0.68308 0.0
C3076 C 0.64098 0.89108 0.65103 0.0
H3077 H 0.66499 0.91805 0.62695 0.0
C3078 C 0.62454 0.87687 0.64513 0.0
C3079 C 0.65555 0.90636 0.64441 0.0
C3080 C 0.67282 0.92275 0.65029 0.0
C3081 C 0.62246 0.87727 0.63282 0.0
C3082 C 0.63751 0.892 0.62617 0.0
C3083 C 0.65369 0.90655 0.63205 0.0
C3084 C 0.6362 0.89273 0.61311 0.0
C3085 C 0.60391 0.86213 0.62704 0.0
C3086 C 0.64104 0.87251 0.60644 0.0
C3087 C 0.63722 0.8724 0.59427 0.0
C3088 C 0.62856 0.89257 0.58853 0.0
C3089 C 0.62495 0.9132 0.59515 0.0
C3090 C 0.62879 0.91328 0.60733 0.0
H3091 H 0.59028 0.85631 0.63342 0.0
H3092 H 0.59512 0.87175 0.61975 0.0
H3093 H 0.61237 0.84619 0.62331 0.0
H3094 H 0.64715 0.85658 0.6107 0.0
H3095 H 0.64029 0.85626 0.58944 0.0
H3096 H 0.32835 0.37942 0.8386 0.0
H3097 H 0.32756 0.38891 0.85965 0.0
H3098 H 0.40332 0.38358 0.86092 0.0
H3099 H 0.40423 0.37547 0.83989 0.0
H3100 H 0.33855 0.36404 0.87742 0.0
H3101 H 0.39648 0.44159 0.87941 0.0
H3102 H 0.38584 0.43005 0.86561 0.0
H3103 H 0.41186 0.41789 0.87244 0.0
C3104 C 0.34484 0.38083 0.84334 0.0
C3105 C 0.36636 0.37694 0.83755 0.0
C3106 C 0.34439 0.38617 0.85539 0.0
C3107 C 0.36542 0.38745 0.86193 0.0
C3108 C 0.38689 0.38361 0.85609 0.0
H3109 H 0.38392 0.35254 0.93481 0.0
H3110 H 0.37542 0.35365 0.9138 0.0
C3111 C 0.38737 0.37878 0.84402 0.0
C3112 C 0.36493 0.39089 0.87497 0.0
H3113 H 0.39292 0.41926 0.8975 0.0
C3114 C 0.35018 0.37643 0.88178 0.0
C3115 C 0.3796 0.4074 0.88078 0.0
C3116 C 0.3941 0.42527 0.87414 0.0
C3117 C 0.35052 0.37721 0.89415 0.0
C3118 C 0.36682 0.39214 0.89995 0.0
C3119 C 0.38071 0.40744 0.89315 0.0
C3120 C 0.37058 0.39146 0.91297 0.0
C3121 C 0.33321 0.36209 0.9008 0.0
C3122 C 0.37146 0.41237 0.9196 0.0
C3123 C 0.37703 0.41181 0.93162 0.0
C3124 C 0.38154 0.3903 0.93731 0.0
C3125 C 0.38013 0.36937 0.93075 0.0
C3126 C 0.37507 0.36998 0.9187 0.0
H3127 H 0.31684 0.35938 0.89561 0.0
H3128 H 0.34111 0.3445 0.90237 0.0
H3129 H 0.32842 0.37002 0.9094 0.0
H3130 H 0.3682 0.42921 0.91542 0.0
H3131 H 0.37808 0.42824 0.93643 0.0
H3132 H 0.83621 0.14451 0.18512 0.0
H3133 H 0.83756 0.1383 0.16382 0.0
H3134 H 0.91026 0.11705 0.1665 0.0
H3135 H 0.90913 0.12346 0.18779 0.0
H3136 H 0.90274 0.15133 0.1496 0.0
H3137 H 0.83902 0.07815 0.14399 0.0
H3138 H 0.82776 0.1028 0.15213 0.0
H3139 H 0.85162 0.08574 0.15809 0.0
C3140 C 0.85239 0.13814 0.18122 0.0
C3141 C 0.87257 0.13446 0.18818 0.0
C3142 C 0.8531 0.1345 0.16902 0.0
C3143 C 0.87394 0.12698 0.16355 0.0
C3144 C 0.89395 0.12277 0.17052 0.0
H3145 H 0.89779 0.08446 0.09102 0.0
H3146 H 0.8917 0.08592 0.11233 0.0
C3147 C 0.89325 0.12638 0.18271 0.0
C3148 C 0.87543 0.12513 0.1505 0.0
H3149 H 0.85196 0.09729 0.12651 0.0
C3150 C 0.89167 0.13947 0.14456 0.0
C3151 C 0.8611 0.10953 0.14392 0.0
C3152 C 0.84403 0.093 0.14984 0.0
C3153 C 0.89382 0.13884 0.13224 0.0
C3154 C 0.87907 0.12371 0.12563 0.0
C3155 C 0.86304 0.1091 0.13157 0.0
C3156 C 0.88065 0.12235 0.11258 0.0
C3157 C 0.91217 0.15411 0.12642 0.0
C3158 C 0.87577 0.14214 0.10557 0.0
C3159 C 0.87921 0.14136 0.09337 0.0
C3160 C 0.88754 0.12074 0.08793 0.0
C3161 C 0.89142 0.10064 0.09491 0.0
C3162 C 0.88794 0.10143 0.10711 0.0
H3163 H 0.9256 0.1604 0.13281 0.0
H3164 H 0.92124 0.1444 0.11926 0.0
H3165 H 0.90349 0.16976 0.1225 0.0
H3166 H 0.86973 0.15835 0.10957 0.0
H3167 H 0.87597 0.15712 0.08825 0.0
H3168 H 0.90144 0.61769 0.83908 0.0
H3169 H 0.90185 0.60947 0.86018 0.0
H3170 H 0.82971 0.63254 0.86283 0.0
H3171 H 0.82906 0.64055 0.84165 0.0
H3172 H 0.89544 0.64358 0.87697 0.0
H3173 H 0.82953 0.57242 0.88271 0.0
H3174 H 0.84213 0.57968 0.86858 0.0
H3175 H 0.81895 0.59747 0.87463 0.0
C3176 C 0.88548 0.62055 0.84409 0.0
C3177 C 0.86521 0.62981 0.83867 0.0
C3178 C 0.88576 0.61588 0.85617 0.0
C3179 C 0.86578 0.62024 0.8631 0.0
C3180 C 0.84521 0.62862 0.85765 0.0
H3181 H 0.86961 0.65175 0.93784 0.0
H3182 H 0.86201 0.65174 0.91665 0.0
C3183 C 0.8449 0.63328 0.84553 0.0
C3184 C 0.86732 0.61822 0.87614 0.0
H3185 H 0.84336 0.59112 0.9002 0.0
C3186 C 0.8841 0.63203 0.88203 0.0
C3187 C 0.85261 0.60305 0.88274 0.0
C3188 C 0.83492 0.58713 0.87686 0.0
C3189 C 0.88643 0.63132 0.89432 0.0
C3190 C 0.8713 0.61667 0.90097 0.0
C3191 C 0.85474 0.60254 0.89509 0.0
C3192 C 0.87291 0.61564 0.91401 0.0
C3193 C 0.90531 0.64605 0.90009 0.0
C3194 C 0.88056 0.59502 0.91965 0.0
C3195 C 0.88485 0.59493 0.9318 0.0
C3196 C 0.88146 0.61546 0.93852 0.0
C3197 C 0.87253 0.63568 0.93293 0.0
C3198 C 0.86826 0.63575 0.9208 0.0
H3199 H 0.91881 0.65196 0.89367 0.0
H3200 H 0.89714 0.66194 0.90404 0.0
H3201 H 0.91421 0.63608 0.90723 0.0
H3202 H 0.88417 0.57929 0.91457 0.0
H3203 H 0.89168 0.57905 0.93583 0.0
H3204 H 0.11776 0.07982 0.58899 0.0
H3205 H 0.12467 0.0798 0.61029 0.0
H3206 H 0.14605 0.15253 0.60864 0.0
H3207 H 0.13902 0.15279 0.5874 0.0
H3208 H 0.16476 0.09142 0.62489 0.0
H3209 H 0.08925 0.15215 0.63144 0.0
H3210 H 0.09416 0.13669 0.61779 0.0
H3211 H 0.11109 0.16251 0.62126 0.0
C3212 C 0.12427 0.09571 0.59313 0.0
C3213 C 0.12763 0.11637 0.5865 0.0
C3214 C 0.12821 0.09566 0.60531 0.0
C3215 C 0.13548 0.11627 0.61108 0.0
C3216 C 0.14006 0.13654 0.60439 0.0
H3217 H 0.17911 0.13976 0.68354 0.0
H3218 H 0.17834 0.13208 0.66234 0.0
C3219 C 0.13613 0.13662 0.59223 0.0
C3220 C 0.13688 0.11706 0.62414 0.0
H3221 H 0.11256 0.14368 0.64817 0.0
C3222 C 0.15334 0.1028 0.63001 0.0
C3223 C 0.12171 0.13163 0.6308 0.0
C3224 C 0.10289 0.14648 0.62504 0.0
C3225 C 0.15534 0.10312 0.64236 0.0
C3226 C 0.14063 0.11824 0.64899 0.0
C3227 C 0.12392 0.13216 0.6431 0.0
C3228 C 0.14214 0.12015 0.66203 0.0
C3229 C 0.17293 0.08703 0.64823 0.0
C3230 C 0.12212 0.11594 0.66896 0.0
C3231 C 0.12247 0.12044 0.68106 0.0
C3232 C 0.14284 0.12938 0.68651 0.0
C3233 C 0.16318 0.13273 0.67964 0.0
C3234 C 0.1628 0.12825 0.66751 0.0
H3235 H 0.17816 0.07229 0.64236 0.0
H3236 H 0.189 0.09723 0.65043 0.0
H3237 H 0.1657 0.07962 0.65651 0.0
H3238 H 0.10596 0.10975 0.66493 0.0
H3239 H 0.10649 0.11768 0.68607 0.0
H3240 H 0.61762 0.42963 0.43365 0.0
H3241 H 0.6237 0.42883 0.41229 0.0
H3242 H 0.64407 0.35585 0.41439 0.0
H3243 H 0.63785 0.35641 0.43569 0.0
H3244 H 0.66285 0.41647 0.39755 0.0
H3245 H 0.58692 0.35595 0.39185 0.0
H3246 H 0.59234 0.3717 0.40538 0.0
H3247 H 0.60897 0.34566 0.40197 0.0
C3248 C 0.62374 0.41351 0.42959 0.0
C3249 C 0.62705 0.39302 0.43637 0.0
C3250 C 0.62719 0.41308 0.41738 0.0
C3251 C 0.6339 0.39216 0.41172 0.0
C3252 C 0.63846 0.37206 0.41855 0.0
H3253 H 0.67714 0.36666 0.33952 0.0
H3254 H 0.67587 0.37427 0.3607 0.0
C3255 C 0.63503 0.37247 0.43074 0.0
C3256 C 0.63493 0.39095 0.39865 0.0
H3257 H 0.61004 0.36355 0.37494 0.0
C3258 C 0.65129 0.40495 0.39259 0.0
C3259 C 0.61955 0.37622 0.39218 0.0
C3260 C 0.60079 0.36167 0.39814 0.0
C3261 C 0.65304 0.40417 0.38023 0.0
C3262 C 0.6382 0.38881 0.37379 0.0
C3263 C 0.62152 0.37522 0.37987 0.0
C3264 C 0.6397 0.38627 0.36077 0.0
C3265 C 0.67055 0.42001 0.37416 0.0
C3266 C 0.61977 0.39035 0.35372 0.0
C3267 C 0.62041 0.3859 0.3416 0.0
C3268 C 0.64096 0.37711 0.33629 0.0
C3269 C 0.66107 0.37357 0.34332 0.0
C3270 C 0.66041 0.37803 0.35544 0.0
H3271 H 0.67576 0.43506 0.37985 0.0
H3272 H 0.68666 0.40976 0.3721 0.0
H3273 H 0.66328 0.42699 0.36579 0.0
H3274 H 0.60355 0.3966 0.35764 0.0
H3275 H 0.60459 0.38876 0.33647 0.0
H3276 H 0.39176 0.92897 0.09207 0.0
H3277 H 0.38597 0.92814 0.11344 0.0
H3278 H 0.36456 0.85546 0.11134 0.0
H3279 H 0.37048 0.85605 0.09002 0.0
H3280 H 0.34677 0.91629 0.12825 0.0
H3281 H 0.4219 0.8547 0.13377 0.0
H3282 H 0.41661 0.87057 0.12026 0.0
H3283 H 0.39962 0.84478 0.1237 0.0
C3284 C 0.38548 0.9129 0.09613 0.0
C3285 C 0.38178 0.89251 0.08934 0.0
C3286 C 0.3822 0.91246 0.10835 0.0
C3287 C 0.37526 0.89162 0.11401 0.0
C3288 C 0.37034 0.87162 0.10718 0.0
H3289 H 0.33249 0.86682 0.18636 0.0
H3290 H 0.33364 0.87428 0.16516 0.0
C3291 C 0.3736 0.87204 0.09498 0.0
C3292 C 0.37433 0.8904 0.12708 0.0
H3293 H 0.39912 0.8627 0.15075 0.0
C3294 C 0.35823 0.90463 0.13319 0.0
C3295 C 0.38958 0.87546 0.13353 0.0
C3296 C 0.40807 0.86065 0.12752 0.0
C3297 C 0.3566 0.90389 0.14555 0.0
C3298 C 0.37132 0.88835 0.15196 0.0
C3299 C 0.38774 0.87451 0.14585 0.0
C3300 C 0.36993 0.88587 0.16499 0.0
C3301 C 0.33937 0.91997 0.15165 0.0
C3302 C 0.38997 0.88978 0.17198 0.0
C3303 C 0.3894 0.88542 0.18411 0.0
C3304 C 0.36881 0.87689 0.18949 0.0
C3305 C 0.3486 0.87352 0.18252 0.0
C3306 C 0.34918 0.87789 0.17039 0.0
H3307 H 0.33427 0.93506 0.14597 0.0
H3308 H 0.32317 0.90994 0.15379 0.0
H3309 H 0.34685 0.9269 0.16 0.0
H3310 H 0.40622 0.89582 0.16801 0.0
H3311 H 0.4053 0.88813 0.1892 0.0
H3312 H 0.8317 0.38167 0.68797 0.0
H3313 H 0.83128 0.38999 0.66681 0.0
H3314 H 0.90659 0.38016 0.66554 0.0
H3315 H 0.9072 0.37329 0.68675 0.0
H3316 H 0.89582 0.41413 0.65174 0.0
H3317 H 0.83367 0.34157 0.64196 0.0
H3318 H 0.82112 0.36331 0.6515 0.0
H3319 H 0.84587 0.34602 0.65642 0.0
C3320 C 0.84818 0.38154 0.68317 0.0
C3321 C 0.86947 0.37672 0.68902 0.0
C3322 C 0.8479 0.38604 0.67104 0.0
C3323 C 0.86881 0.38501 0.66442 0.0
C3324 C 0.89016 0.38095 0.67036 0.0
H3325 H 0.88285 0.35398 0.59069 0.0
H3326 H 0.87704 0.35439 0.61193 0.0
C3327 C 0.89051 0.37702 0.68252 0.0
C3328 C 0.86863 0.38774 0.65132 0.0
H3329 H 0.84419 0.36611 0.62602 0.0
C3330 C 0.88452 0.40359 0.64612 0.0
C3331 C 0.85412 0.37382 0.64391 0.0
C3332 C 0.83792 0.35506 0.64871 0.0
C3333 C 0.88668 0.4056 0.63382 0.0
C3334 C 0.87174 0.39213 0.62642 0.0
C3335 C 0.8555 0.37664 0.63163 0.0
C3336 C 0.87389 0.3923 0.6133 0.0
C3337 C 0.90579 0.4213 0.62896 0.0
C3338 C 0.87348 0.41341 0.6068 0.0
C3339 C 0.87734 0.41323 0.5946 0.0
C3340 C 0.88095 0.39189 0.5886 0.0
C3341 C 0.88004 0.37074 0.59501 0.0
C3342 C 0.87672 0.37096 0.6072 0.0
H3343 H 0.91972 0.42483 0.63561 0.0
H3344 H 0.91419 0.41333 0.6211 0.0
H3345 H 0.89802 0.43847 0.6264 0.0
H3346 H 0.8705 0.43007 0.61116 0.0
H3347 H 0.87776 0.4298 0.58988 0.0
H3348 H 0.4071 0.13436 0.34076 0.0
H3349 H 0.40691 0.12677 0.36185 0.0
H3350 H 0.33126 0.11973 0.3611 0.0
H3351 H 0.3313 0.12866 0.33999 0.0
H3352 H 0.34233 0.1455 0.37864 0.0
H3353 H 0.40163 0.06891 0.38066 0.0
H3354 H 0.4163 0.0928 0.37349 0.0
H3355 H 0.39038 0.07997 0.36689 0.0
C3356 C 0.39044 0.13078 0.34503 0.0
C3357 C 0.36922 0.13197 0.33867 0.0
C3358 C 0.39036 0.12626 0.35712 0.0
C3359 C 0.36913 0.12212 0.36313 0.0
C3360 C 0.34792 0.12274 0.35671 0.0
H3361 H 0.38169 0.08073 0.4374 0.0
H3362 H 0.37255 0.0804 0.41633 0.0
C3363 C 0.34795 0.12774 0.34463 0.0
C3364 C 0.36903 0.11898 0.37618 0.0
H3365 H 0.39764 0.09115 0.3987 0.0
C3366 C 0.35418 0.13332 0.383 0.0
C3367 C 0.38404 0.10276 0.38199 0.0
C3368 C 0.39875 0.08508 0.37535 0.0
C3369 C 0.35465 0.13263 0.39538 0.0
C3370 C 0.37115 0.11789 0.40117 0.0
C3371 C 0.38526 0.10281 0.39435 0.0
C3372 C 0.37463 0.11825 0.41421 0.0
C3373 C 0.3372 0.14755 0.40204 0.0
C3374 C 0.37873 0.13958 0.42015 0.0
C3375 C 0.38335 0.13982 0.43225 0.0
C3376 C 0.38473 0.11867 0.43863 0.0
C3377 C 0.38068 0.09732 0.43272 0.0
C3378 C 0.37553 0.09713 0.42066 0.0
H3379 H 0.32087 0.15032 0.39683 0.0
H3380 H 0.33233 0.13942 0.41059 0.0
H3381 H 0.34502 0.16513 0.40374 0.0
H3382 H 0.37903 0.15608 0.41539 0.0
H3383 H 0.38678 0.15653 0.43652 0.0
H3384 H 0.67878 0.64164 0.18412 0.0
H3385 H 0.67819 0.6347 0.16283 0.0
H3386 H 0.60544 0.6135 0.16497 0.0
H3387 H 0.60578 0.6206 0.1862 0.0
H3388 H 0.66639 0.59502 0.14831 0.0
H3389 H 0.60494 0.67009 0.14215 0.0
H3390 H 0.62067 0.66515 0.15574 0.0
H3391 H 0.59489 0.6481 0.15233 0.0
C3392 C 0.66275 0.63515 0.18009 0.0
C3393 C 0.64226 0.6319 0.18685 0.0
C3394 C 0.66245 0.6312 0.16792 0.0
C3395 C 0.64165 0.62401 0.16229 0.0
C3396 C 0.62157 0.61946 0.16911 0.0
H3397 H 0.61764 0.58069 0.08979 0.0
H3398 H 0.62521 0.58146 0.111 0.0
C3399 C 0.62184 0.62342 0.18126 0.0
C3400 C 0.64051 0.62265 0.14923 0.0
H3401 H 0.61321 0.64697 0.12535 0.0
C3402 C 0.6548 0.60638 0.14327 0.0
C3403 C 0.62567 0.63776 0.14266 0.0
C3404 C 0.61081 0.65643 0.1485 0.0
C3405 C 0.65426 0.6045 0.13091 0.0
C3406 C 0.63887 0.61914 0.12438 0.0
C3407 C 0.62491 0.63566 0.13035 0.0
C3408 C 0.63677 0.61776 0.11134 0.0
C3409 C 0.67042 0.58715 0.12495 0.0
C3410 C 0.64074 0.63787 0.10443 0.0
C3411 C 0.6363 0.63752 0.09232 0.0
C3412 C 0.62765 0.61706 0.08685 0.0
C3413 C 0.62443 0.59669 0.09371 0.0
C3414 C 0.62886 0.59706 0.10584 0.0
H3415 H 0.68533 0.582 0.13075 0.0
H3416 H 0.66036 0.571 0.12275 0.0
H3417 H 0.67762 0.59454 0.11665 0.0
H3418 H 0.64677 0.65406 0.10848 0.0
H3419 H 0.63894 0.65353 0.08731 0.0
H3420 H 0.17599 0.86583 0.83993 0.0
H3421 H 0.17499 0.8725 0.86122 0.0
H3422 H 0.10235 0.89397 0.85871 0.0
H3423 H 0.10311 0.88712 0.83743 0.0
H3424 H 0.16383 0.91229 0.87531 0.0
H3425 H 0.10092 0.83871 0.88216 0.0
H3426 H 0.11654 0.84293 0.8685 0.0
H3427 H 0.09122 0.86067 0.87186 0.0
C3428 C 0.15986 0.87222 0.84388 0.0
C3429 C 0.13956 0.87576 0.83698 0.0
C3430 C 0.15933 0.87603 0.85605 0.0
C3431 C 0.13849 0.88335 0.86159 0.0
C3432 C 0.11851 0.88792 0.85466 0.0
H3433 H 0.11814 0.92808 0.93439 0.0
H3434 H 0.12421 0.92707 0.91306 0.0
C3435 C 0.11901 0.88412 0.84248 0.0
C3436 C 0.13739 0.88517 0.87464 0.0
H3437 H 0.11029 0.86185 0.89881 0.0
C3438 C 0.15213 0.90128 0.88046 0.0
C3439 C 0.12239 0.87053 0.88138 0.0
C3440 C 0.10701 0.85207 0.8757 0.0
C3441 C 0.152 0.90338 0.89281 0.0
C3442 C 0.13655 0.88914 0.89951 0.0
C3443 C 0.12204 0.87285 0.89368 0.0
C3444 C 0.13513 0.89058 0.91258 0.0
C3445 C 0.16869 0.92049 0.8986 0.0
C3446 C 0.13927 0.87044 0.91945 0.0
C3447 C 0.13572 0.87094 0.93164 0.0
C3448 C 0.12782 0.89157 0.93723 0.0
C3449 C 0.1244 0.91195 0.93038 0.0
C3450 C 0.12794 0.91142 0.91818 0.0
H3451 H 0.1834 0.92542 0.89264 0.0
H3452 H 0.15897 0.93678 0.90092 0.0
H3453 H 0.17617 0.91297 0.90681 0.0
H3454 H 0.14477 0.85414 0.91534 0.0
H3455 H 0.13847 0.85491 0.93662 0.0
loop_
_geom_bond_atom_site_label_1
_geom_bond_atom_site_label_2
_geom_bond_distance
_geom_bond_site_symmetry_2
_ccdc_geom_bond_type
Mn0 O5 2.095 . S
Mn0 O15 2.162 . S
Mn0 O16 2.297 . S
Mn0 O24 2.385 . S
Mn0 O25 2.209 . S
Mn0 O26 2.094 . S
Mn1 O6 2.121 . S
Mn1 N8 2.257 . S
Mn1 N17 2.282 . S
Mn1 O25 2.215 . S
Mn1 O27 2.117 . S
C2 O24 1.234 . S
C2 O25 1.283 . S
C3 O15 1.281 . S
C3 O16 1.236 . S
C4 O26 1.240 . S
C4 O27 1.264 . S
O5 Mn0 2.095 . S
O5 C14 1.250 . S
O6 Mn1 2.121 . S
O6 C14 1.258 . S
C7 N8 1.326 . S
C7 C11 1.460 . S
C7 H13 0.929 . S
N8 Mn1 2.257 . S
N8 C7 1.326 . S
N8 C12 1.362 . S
C9 C10 1.250 1_554 S
C9 C12 1.455 . S
C9 C29 1.435 1_554 S
C10 C9 1.250 1_556 S
C10 C11 1.477 1_556 S
C10 H30 0.931 . S
C11 C7 1.460 . S
C11 C10 1.477 1_554 S
C11 H31 0.930 . S
C12 N8 1.362 . S
C12 C9 1.455 . S
C12 C22 1.476 . S
H13 C7 0.929 . S
C14 O5 1.250 . S
C14 O6 1.258 . S
O15 Mn0 2.162 . S
O15 C3 1.281 . S
O16 Mn0 2.297 . S
O16 C3 1.236 . S
N17 Mn1 2.282 . S
N17 C18 1.328 . S
N17 C22 1.318 . S
C18 N17 1.328 . S
C18 C19 1.457 . S
C18 H23 0.929 . S
C19 C18 1.457 . S
C19 C20 1.291 . S
C19 H32 0.963 . S
C20 C19 1.291 . S
C20 C21 1.373 . S
C20 H33 0.929 . S
C21 C20 1.373 . S
C21 C22 1.396 . S
C21 C28 1.378 1_554 S
C22 C12 1.476 . S
C22 N17 1.318 . S
C22 C21 1.396 . S
H23 C18 0.929 . S
O24 Mn0 2.385 . S
O24 C2 1.234 . S
O25 Mn0 2.209 . S
O25 Mn1 2.215 . S
O25 C2 1.283 . S
O26 Mn0 2.094 . S
O26 C4 1.240 . S
O27 Mn1 2.117 . S
O27 C4 1.264 . S
C28 C21 1.378 1_556 S
C28 C29 1.412 . S
C28 H34 0.947 . S
C29 C9 1.435 1_556 S
C29 C28 1.412 . S
C29 H35 0.930 . S
H30 C10 0.931 . S
H31 C11 0.930 . S
H32 C19 0.963 . S
H33 C20 0.929 . S
H34 C28 0.947 . S
H35 C29 0.930 . S
Mn36 O41 2.095 . S
Mn36 O51 2.162 . S
Mn36 O52 2.297 . S
Mn36 O60 2.385 . S
Mn36 O61 2.209 . S
Mn36 O62 2.094 . S
Mn37 O42 2.121 . S
Mn37 N44 2.257 . S
Mn37 N53 2.282 . S
Mn37 O61 2.215 . S
Mn37 O63 2.117 . S
C38 O60 1.234 . S
C38 O61 1.283 . S
C39 O51 1.281 . S
C39 O52 1.236 . S
C40 O62 1.240 . S
C40 O63 1.264 . S
O41 Mn36 2.095 . S
O41 C50 1.250 . S
O42 Mn37 2.121 . S
O42 C50 1.258 . S
C43 N44 1.326 . S
C43 C47 1.460 . S
C43 H49 0.929 . S
N44 Mn37 2.257 . S
N44 C43 1.326 . S
N44 C48 1.362 . S
C45 C46 1.258 . S
C45 C48 1.431 . S
C45 C65 1.449 . S
C46 C45 1.258 . S
C46 C47 1.477 . S
C46 H66 0.931 . S
C47 C43 1.460 . S
C47 C46 1.477 . S
C47 H67 0.930 . S
C48 N44 1.362 . S
C48 C45 1.431 . S
C48 C58 1.476 . S
H49 C43 0.929 . S
C50 O41 1.250 . S
C50 O42 1.258 . S
O51 Mn36 2.162 . S
O51 C39 1.281 . S
O52 Mn36 2.297 . S
O52 C39 1.236 . S
N53 Mn37 2.282 . S
N53 C54 1.328 . S
N53 C58 1.318 . S
C54 N53 1.328 . S
C54 C55 1.457 . S
C54 H59 0.929 . S
C55 C54 1.457 . S
C55 C56 1.291 . S
C55 H68 0.931 . S
C56 C55 1.291 . S
C56 C57 1.373 . S
C56 H69 0.929 . S
C57 C56 1.373 . S
C57 C58 1.396 . S
C57 C64 1.403 . S
C58 C48 1.476 . S
C58 N53 1.318 . S
C58 C57 1.396 . S
H59 C54 0.929 . S
O60 Mn36 2.385 . S
O60 C38 1.234 . S
O61 Mn36 2.209 . S
O61 Mn37 2.215 . S
O61 C38 1.283 . S
O62 Mn36 2.094 . S
O62 C40 1.240 . S
O63 Mn37 2.117 . S
O63 C40 1.264 . S
C64 C57 1.403 . S
C64 C65 1.399 . S
C64 H70 0.929 . S
C65 C45 1.449 . S
C65 C64 1.399 . S
C65 H71 0.930 . S
H66 C46 0.931 . S
H67 C47 0.930 . S
H68 C55 0.931 . S
H69 C56 0.929 . S
H70 C64 0.929 . S
H71 C65 0.930 . S
Mn72 O77 2.095 . S
Mn72 O87 2.162 . S
Mn72 O88 2.297 . S
Mn72 O96 2.385 . S
Mn72 O97 2.209 . S
Mn72 O98 2.094 . S
Mn73 O78 2.121 . S
Mn73 N80 2.257 . S
Mn73 N89 2.282 . S
Mn73 O97 2.215 . S
Mn73 O99 2.117 . S
C74 O96 1.234 . S
C74 O97 1.283 . S
C75 O87 1.281 . S
C75 O88 1.236 . S
C76 O98 1.240 . S
C76 O99 1.264 . S
O77 Mn72 2.095 . S
O77 C86 1.250 . S
O78 Mn73 2.121 . S
O78 C86 1.258 . S
C79 N80 1.326 . S
C79 C83 1.460 . S
C79 H85 0.929 . S
N80 Mn73 2.257 . S
N80 C79 1.326 . S
N80 C84 1.362 . S
C81 C82 1.258 . S
C81 C84 1.431 . S
C81 C101 1.449 . S
C82 C81 1.258 . S
C82 C83 1.477 . S
C82 H102 0.931 . S
C83 C79 1.460 . S
C83 C82 1.477 . S
C83 H103 0.930 . S
C84 N80 1.362 . S
C84 C81 1.431 . S
C84 C94 1.476 . S
H85 C79 0.929 . S
C86 O77 1.250 . S
C86 O78 1.258 . S
O87 Mn72 2.162 . S
O87 C75 1.281 . S
O88 Mn72 2.297 . S
O88 C75 1.236 . S
N89 Mn73 2.282 . S
N89 C90 1.328 . S
N89 C94 1.318 . S
C90 N89 1.328 . S
C90 C91 1.457 . S
C90 H95 0.929 . S
C91 C90 1.457 . S
C91 C92 1.291 . S
C91 H104 0.931 . S
C92 C91 1.291 . S
C92 C93 1.373 . S
C92 H105 0.929 . S
C93 C92 1.373 . S
C93 C94 1.396 . S
C93 C100 1.403 . S
C94 C84 1.476 . S
C94 N89 1.318 . S
C94 C93 1.396 . S
H95 C90 0.929 . S
O96 Mn72 2.385 . S
O96 C74 1.234 . S
O97 Mn72 2.209 . S
O97 Mn73 2.215 . S
O97 C74 1.283 . S
O98 Mn72 2.094 . S
O98 C76 1.240 . S
O99 Mn73 2.117 . S
O99 C76 1.264 . S
C100 C93 1.403 . S
C100 C101 1.399 . S
C100 H106 0.929 . S
C101 C81 1.449 . S
C101 C100 1.399 . S
C101 H107 0.930 . S
H102 C82 0.931 . S
H103 C83 0.930 . S
H104 C91 0.931 . S
H105 C92 0.929 . S
H106 C100 0.929 . S
H107 C101 0.930 . S
Mn108 O113 2.095 . S
Mn108 O123 2.162 . S
Mn108 O124 2.297 . S
Mn108 O132 2.385 . S
Mn108 O133 2.209 . S
Mn108 O134 2.094 . S
Mn109 O114 2.121 . S
Mn109 N116 2.257 . S
Mn109 N125 2.282 . S
Mn109 O133 2.215 . S
Mn109 O135 2.117 . S
C110 O132 1.234 . S
C110 O133 1.283 . S
C111 O123 1.281 . S
C111 O124 1.236 . S
C112 O134 1.240 . S
C112 O135 1.264 . S
O113 Mn108 2.095 . S
O113 C122 1.250 . S
O114 Mn109 2.121 . S
O114 C122 1.258 . S
C115 N116 1.326 . S
C115 C119 1.460 . S
C115 H121 0.929 . S
N116 Mn109 2.257 . S
N116 C115 1.326 . S
N116 C120 1.362 . S
C117 C118 1.258 . S
C117 C120 1.431 . S
C117 C137 1.449 . S
C118 C117 1.258 . S
C118 C119 1.477 . S
C118 H138 0.931 . S
C119 C115 1.460 . S
C119 C118 1.477 . S
C119 H139 0.930 . S
C120 N116 1.362 . S
C120 C117 1.431 . S
C120 C130 1.476 . S
H121 C115 0.929 . S
C122 O113 1.250 . S
C122 O114 1.258 . S
O123 Mn108 2.162 . S
O123 C111 1.281 . S
O124 Mn108 2.297 . S
O124 C111 1.236 . S
N125 Mn109 2.282 . S
N125 C126 1.328 . S
N125 C130 1.318 . S
C126 N125 1.328 . S
C126 C127 1.457 . S
C126 H131 0.929 . S
C127 C126 1.457 . S
C127 C128 1.291 . S
C127 H140 0.931 . S
C128 C127 1.291 . S
C128 C129 1.373 . S
C128 H141 0.929 . S
C129 C128 1.373 . S
C129 C130 1.396 . S
C129 C136 1.403 . S
C130 C120 1.476 . S
C130 N125 1.318 . S
C130 C129 1.396 . S
H131 C126 0.929 . S
O132 Mn108 2.385 . S
O132 C110 1.234 . S
O133 Mn108 2.209 . S
O133 Mn109 2.215 . S
O133 C110 1.283 . S
O134 Mn108 2.094 . S
O134 C112 1.240 . S
O135 Mn109 2.117 . S
O135 C112 1.264 . S
C136 C129 1.403 . S
C136 C137 1.399 . S
C136 H142 0.929 . S
C137 C117 1.449 . S
C137 C136 1.399 . S
C137 H143 0.930 . S
H138 C118 0.931 . S
H139 C119 0.930 . S
H140 C127 0.931 . S
H141 C128 0.929 . S
H142 C136 0.929 . S
H143 C137 0.930 . S
Mn144 O149 2.095 . S
Mn144 O159 2.162 . S
Mn144 O160 2.297 . S
Mn144 O168 2.385 . S
Mn144 O169 2.209 . S
Mn144 O170 2.094 . S
Mn145 O150 2.121 . S
Mn145 N152 2.257 . S
Mn145 N161 2.282 . S
Mn145 O169 2.215 . S
Mn145 O171 2.117 . S
C146 O168 1.234 . S
C146 O169 1.283 . S
C147 O159 1.281 . S
C147 O160 1.236 . S
C148 O170 1.240 . S
C148 O171 1.264 . S
O149 Mn144 2.095 . S
O149 C158 1.250 . S
O150 Mn145 2.121 . S
O150 C158 1.258 . S
C151 N152 1.326 . S
C151 C155 1.460 . S
C151 H157 0.929 . S
N152 Mn145 2.257 . S
N152 C151 1.326 . S
N152 C156 1.362 . S
C153 C154 1.258 . S
C153 C156 1.431 . S
C153 C173 1.449 . S
C154 C153 1.258 . S
C154 C155 1.477 . S
C154 H174 0.931 . S
C155 C151 1.460 . S
C155 C154 1.477 . S
C155 H175 0.930 . S
C156 N152 1.362 . S
C156 C153 1.431 . S
C156 C166 1.476 . S
H157 C151 0.929 . S
C158 O149 1.250 . S
C158 O150 1.258 . S
O159 Mn144 2.162 . S
O159 C147 1.281 . S
O160 Mn144 2.297 . S
O160 C147 1.236 . S
N161 Mn145 2.282 . S
N161 C162 1.328 . S
N161 C166 1.318 . S
C162 N161 1.328 . S
C162 C163 1.457 . S
C162 H167 0.929 . S
C163 C162 1.457 . S
C163 C164 1.291 . S
C163 H176 0.963 . S
C164 C163 1.291 . S
C164 C165 1.373 . S
C164 H177 0.929 . S
C165 C164 1.373 . S
C165 C166 1.396 . S
C165 C172 1.403 . S
C166 C156 1.476 . S
C166 N161 1.318 . S
C166 C165 1.396 . S
H167 C162 0.929 . S
O168 Mn144 2.385 . S
O168 C146 1.234 . S
O169 Mn144 2.209 . S
O169 Mn145 2.215 . S
O169 C146 1.283 . S
O170 Mn144 2.094 . S
O170 C148 1.240 . S
O171 Mn145 2.117 . S
O171 C148 1.264 . S
C172 C165 1.403 . S
C172 C173 1.399 . S
C172 H178 0.929 . S
C173 C153 1.449 . S
C173 C172 1.399 . S
C173 H179 0.930 . S
H174 C154 0.931 . S
H175 C155 0.930 . S
H176 C163 0.963 . S
H177 C164 0.929 . S
H178 C172 0.929 . S
H179 C173 0.930 . S
Mn180 O185 2.095 . S
Mn180 O195 2.162 . S
Mn180 O196 2.297 . S
Mn180 O204 2.385 . S
Mn180 O205 2.209 . S
Mn180 O206 2.094 . S
Mn181 O186 2.121 . S
Mn181 N188 2.257 . S
Mn181 N197 2.282 . S
Mn181 O205 2.215 . S
Mn181 O207 2.117 . S
C182 O204 1.234 . S
C182 O205 1.283 . S
C183 O195 1.281 . S
C183 O196 1.236 . S
C184 O206 1.240 . S
C184 O207 1.264 . S
O185 Mn180 2.095 . S
O185 C194 1.250 . S
O186 Mn181 2.121 . S
O186 C194 1.258 . S
C187 N188 1.326 . S
C187 C191 1.460 . S
C187 H193 0.929 . S
N188 Mn181 2.257 . S
N188 C187 1.326 . S
N188 C192 1.362 . S
C189 C190 1.258 . S
C189 C192 1.431 . S
C189 C209 1.449 . S
C190 C189 1.258 . S
C190 C191 1.477 . S
C190 H210 0.931 . S
C191 C187 1.460 . S
C191 C190 1.477 . S
C191 H211 0.930 . S
C192 N188 1.362 . S
C192 C189 1.431 . S
C192 C202 1.476 . S
H193 C187 0.929 . S
C194 O185 1.250 . S
C194 O186 1.258 . S
O195 Mn180 2.162 . S
O195 C183 1.281 . S
O196 Mn180 2.297 . S
O196 C183 1.236 . S
N197 Mn181 2.282 . S
N197 C198 1.328 . S
N197 C202 1.318 . S
C198 N197 1.328 . S
C198 C199 1.457 . S
C198 H203 0.929 . S
C199 C198 1.457 . S
C199 C200 1.291 . S
C199 H212 0.931 . S
C200 C199 1.291 . S
C200 C201 1.373 . S
C200 H213 0.929 . S
C201 C200 1.373 . S
C201 C202 1.396 . S
C201 C208 1.403 . S
C202 C192 1.476 . S
C202 N197 1.318 . S
C202 C201 1.396 . S
H203 C198 0.929 . S
O204 Mn180 2.385 . S
O204 C182 1.234 . S
O205 Mn180 2.209 . S
O205 Mn181 2.215 . S
O205 C182 1.283 . S
O206 Mn180 2.094 . S
O206 C184 1.240 . S
O207 Mn181 2.117 . S
O207 C184 1.264 . S
C208 C201 1.403 . S
C208 C209 1.399 . S
C208 H214 0.929 . S
C209 C189 1.449 . S
C209 C208 1.399 . S
C209 H215 0.930 . S
H210 C190 0.931 . S
H211 C191 0.930 . S
H212 C199 0.931 . S
H213 C200 0.929 . S
H214 C208 0.929 . S
H215 C209 0.930 . S
Mn216 O221 2.095 . S
Mn216 O231 2.162 . S
Mn216 O232 2.297 . S
Mn216 O240 2.385 . S
Mn216 O241 2.209 . S
Mn216 O242 2.094 . S
Mn217 O222 2.121 . S
Mn217 N224 2.257 . S
Mn217 N233 2.282 . S
Mn217 O241 2.215 . S
Mn217 O243 2.117 . S
C218 O240 1.234 . S
C218 O241 1.283 . S
C219 O231 1.281 . S
C219 O232 1.236 . S
C220 O242 1.240 . S
C220 O243 1.264 . S
O221 Mn216 2.095 . S
O221 C230 1.250 . S
O222 Mn217 2.121 . S
O222 C230 1.258 . S
C223 N224 1.326 . S
C223 C227 1.460 . S
C223 H229 0.929 . S
N224 Mn217 2.257 . S
N224 C223 1.326 . S
N224 C228 1.362 . S
C225 C226 1.250 1_556 S
C225 C228 1.455 . S
C225 C245 1.435 1_556 S
C226 C225 1.250 1_554 S
C226 C227 1.477 1_554 S
C226 H246 0.931 . S
C227 C223 1.460 . S
C227 C226 1.477 1_556 S
C227 H247 0.930 . S
C228 N224 1.362 . S
C228 C225 1.455 . S
C228 C238 1.476 . S
H229 C223 0.929 . S
C230 O221 1.250 . S
C230 O222 1.258 . S
O231 Mn216 2.162 . S
O231 C219 1.281 . S
O232 Mn216 2.297 . S
O232 C219 1.236 . S
N233 Mn217 2.282 . S
N233 C234 1.328 . S
N233 C238 1.318 . S
C234 N233 1.328 . S
C234 C235 1.457 . S
C234 H239 0.929 . S
C235 C234 1.457 . S
C235 C236 1.291 . S
C235 H248 0.931 . S
C236 C235 1.291 . S
C236 C237 1.373 . S
C236 H249 0.929 . S
C237 C236 1.373 . S
C237 C238 1.396 . S
C237 C244 1.378 1_556 S
C238 C228 1.476 . S
C238 N233 1.318 . S
C238 C237 1.396 . S
H239 C234 0.929 . S
O240 Mn216 2.385 . S
O240 C218 1.234 . S
O241 Mn216 2.209 . S
O241 Mn217 2.215 . S
O241 C218 1.283 . S
O242 Mn216 2.094 . S
O242 C220 1.240 . S
O243 Mn217 2.117 . S
O243 C220 1.264 . S
C244 C237 1.378 1_554 S
C244 C245 1.412 . S
C244 H250 0.947 . S
C245 C225 1.435 1_554 S
C245 C244 1.412 . S
C245 H251 0.930 . S
H246 C226 0.931 . S
H247 C227 0.930 . S
H248 C235 0.931 . S
H249 C236 0.929 . S
H250 C244 0.947 . S
H251 C245 0.930 . S
Mn252 O257 2.095 . S
Mn252 O267 2.162 . S
Mn252 O268 2.297 . S
Mn252 O276 2.385 . S
Mn252 O277 2.209 . S
Mn252 O278 2.094 . S
Mn253 O258 2.121 . S
Mn253 N260 2.257 . S
Mn253 N269 2.282 . S
Mn253 O277 2.215 . S
Mn253 O279 2.117 . S
C254 O276 1.234 . S
C254 O277 1.283 . S
C255 O267 1.281 . S
C255 O268 1.236 . S
C256 O278 1.240 . S
C256 O279 1.264 . S
O257 Mn252 2.095 . S
O257 C266 1.250 . S
O258 Mn253 2.121 . S
O258 C266 1.258 . S
C259 N260 1.326 . S
C259 C263 1.460 . S
C259 H265 0.929 . S
N260 Mn253 2.257 . S
N260 C259 1.326 . S
N260 C264 1.362 . S
C261 C262 1.258 . S
C261 C264 1.431 . S
C261 C281 1.449 . S
C262 C261 1.258 . S
C262 C263 1.477 . S
C262 H282 0.931 . S
C263 C259 1.460 . S
C263 C262 1.477 . S
C263 H283 0.930 . S
C264 N260 1.362 . S
C264 C261 1.431 . S
C264 C274 1.476 . S
H265 C259 0.929 . S
C266 O257 1.250 . S
C266 O258 1.258 . S
O267 Mn252 2.162 . S
O267 C255 1.281 . S
O268 Mn252 2.297 . S
O268 C255 1.236 . S
N269 Mn253 2.282 . S
N269 C270 1.328 . S
N269 C274 1.318 . S
C270 N269 1.328 . S
C270 C271 1.457 . S
C270 H275 0.929 . S
C271 C270 1.457 . S
C271 C272 1.291 . S
C271 H284 0.931 . S
C272 C271 1.291 . S
C272 C273 1.373 . S
C272 H285 0.929 . S
C273 C272 1.373 . S
C273 C274 1.396 . S
C273 C280 1.403 . S
C274 C264 1.476 . S
C274 N269 1.318 . S
C274 C273 1.396 . S
H275 C270 0.929 . S
O276 Mn252 2.385 . S
O276 C254 1.234 . S
O277 Mn252 2.209 . S
O277 Mn253 2.215 . S
O277 C254 1.283 . S
O278 Mn252 2.094 . S
O278 C256 1.240 . S
O279 Mn253 2.117 . S
O279 C256 1.264 . S
C280 C273 1.403 . S
C280 C281 1.399 . S
C280 H286 0.929 . S
C281 C261 1.449 . S
C281 C280 1.399 . S
C281 H287 0.930 . S
H282 C262 0.931 . S
H283 C263 0.930 . S
H284 C271 0.931 . S
H285 C272 0.929 . S
H286 C280 0.929 . S
H287 C281 0.930 . S
Mn288 O293 2.095 . S
Mn288 O303 2.162 . S
Mn288 O304 2.297 . S
Mn288 O312 2.385 . S
Mn288 O313 2.209 . S
Mn288 O314 2.094 . S
Mn289 O294 2.121 . S
Mn289 N296 2.257 . S
Mn289 N305 2.282 . S
Mn289 O313 2.215 . S
Mn289 O315 2.117 . S
C290 O312 1.234 . S
C290 O313 1.283 . S
C291 O303 1.281 . S
C291 O304 1.236 . S
C292 O314 1.240 . S
C292 O315 1.264 . S
O293 Mn288 2.095 . S
O293 C302 1.250 . S
O294 Mn289 2.121 . S
O294 C302 1.258 . S
C295 N296 1.326 . S
C295 C299 1.460 . S
C295 H301 0.929 . S
N296 Mn289 2.257 . S
N296 C295 1.326 . S
N296 C300 1.362 . S
C297 C298 1.250 1_556 S
C297 C300 1.455 . S
C297 C317 1.435 1_556 S
C298 C297 1.250 1_554 S
C298 C299 1.477 1_554 S
C298 H318 0.931 . S
C299 C295 1.460 . S
C299 C298 1.477 1_556 S
C299 H319 0.930 . S
C300 N296 1.362 . S
C300 C297 1.455 . S
C300 C310 1.476 . S
H301 C295 0.929 . S
C302 O293 1.250 . S
C302 O294 1.258 . S
O303 Mn288 2.162 . S
O303 C291 1.281 . S
O304 Mn288 2.297 . S
O304 C291 1.236 . S
N305 Mn289 2.282 . S
N305 C306 1.328 . S
N305 C310 1.318 . S
C306 N305 1.328 . S
C306 C307 1.457 . S
C306 H311 0.929 . S
C307 C306 1.457 . S
C307 C308 1.291 . S
C307 H320 0.963 . S
C308 C307 1.291 . S
C308 C309 1.373 . S
C308 H321 0.929 . S
C309 C308 1.373 . S
C309 C310 1.396 . S
C309 C316 1.378 1_556 S
C310 C300 1.476 . S
C310 N305 1.318 . S
C310 C309 1.396 . S
H311 C306 0.929 . S
O312 Mn288 2.385 . S
O312 C290 1.234 . S
O313 Mn288 2.209 . S
O313 Mn289 2.215 . S
O313 C290 1.283 . S
O314 Mn288 2.094 . S
O314 C292 1.240 . S
O315 Mn289 2.117 . S
O315 C292 1.264 . S
C316 C309 1.378 1_554 S
C316 C317 1.412 . S
C316 H322 0.947 . S
C317 C297 1.435 1_554 S
C317 C316 1.412 . S
C317 H323 0.930 . S
H318 C298 0.931 . S
H319 C299 0.930 . S
H320 C307 0.963 . S
H321 C308 0.929 . S
H322 C316 0.947 . S
H323 C317 0.930 . S
Mn324 O329 2.095 . S
Mn324 O339 2.162 . S
Mn324 O340 2.297 . S
Mn324 O348 2.385 . S
Mn324 O349 2.209 . S
Mn324 O350 2.094 . S
Mn325 O330 2.121 . S
Mn325 N332 2.257 . S
Mn325 N341 2.282 . S
Mn325 O349 2.215 . S
Mn325 O351 2.117 . S
C326 O348 1.234 . S
C326 O349 1.283 . S
C327 O339 1.281 . S
C327 O340 1.236 . S
C328 O350 1.240 . S
C328 O351 1.264 . S
O329 Mn324 2.095 . S
O329 C338 1.250 . S
O330 Mn325 2.121 . S
O330 C338 1.258 . S
C331 N332 1.326 . S
C331 C335 1.460 . S
C331 H337 0.929 . S
N332 Mn325 2.257 . S
N332 C331 1.326 . S
N332 C336 1.362 . S
C333 C334 1.258 . S
C333 C336 1.431 . S
C333 C353 1.449 . S
C334 C333 1.258 . S
C334 C335 1.477 . S
C334 H354 0.931 . S
C335 C331 1.460 . S
C335 C334 1.477 . S
C335 H355 0.930 . S
C336 N332 1.362 . S
C336 C333 1.431 . S
C336 C346 1.476 . S
H337 C331 0.929 . S
C338 O329 1.250 . S
C338 O330 1.258 . S
O339 Mn324 2.162 . S
O339 C327 1.281 . S
O340 Mn324 2.297 . S
O340 C327 1.236 . S
N341 Mn325 2.282 . S
N341 C342 1.328 . S
N341 C346 1.318 . S
C342 N341 1.328 . S
C342 C343 1.457 . S
C342 H347 0.929 . S
C343 C342 1.457 . S
C343 C344 1.291 . S
C343 H356 0.931 . S
C344 C343 1.291 . S
C344 C345 1.373 . S
C344 H357 0.929 . S
C345 C344 1.373 . S
C345 C346 1.396 . S
C345 C352 1.403 . S
C346 C336 1.476 . S
C346 N341 1.318 . S
C346 C345 1.396 . S
H347 C342 0.929 . S
O348 Mn324 2.385 . S
O348 C326 1.234 . S
O349 Mn324 2.209 . S
O349 Mn325 2.215 . S
O349 C326 1.283 . S
O350 Mn324 2.094 . S
O350 C328 1.240 . S
O351 Mn325 2.117 . S
O351 C328 1.264 . S
C352 C345 1.403 . S
C352 C353 1.399 . S
C352 H358 0.929 . S
C353 C333 1.449 . S
C353 C352 1.399 . S
C353 H359 0.930 . S
H354 C334 0.931 . S
H355 C335 0.930 . S
H356 C343 0.931 . S
H357 C344 0.929 . S
H358 C352 0.929 . S
H359 C353 0.930 . S
Mn360 O365 2.095 . S
Mn360 O375 2.162 . S
Mn360 O376 2.297 . S
Mn360 O384 2.385 . S
Mn360 O385 2.209 . S
Mn360 O386 2.094 . S
Mn361 O366 2.121 . S
Mn361 N368 2.257 . S
Mn361 N377 2.282 . S
Mn361 O385 2.215 . S
Mn361 O387 2.117 . S
C362 O384 1.234 . S
C362 O385 1.283 . S
C363 O375 1.281 . S
C363 O376 1.236 . S
C364 O386 1.240 . S
C364 O387 1.264 . S
O365 Mn360 2.095 . S
O365 C374 1.250 . S
O366 Mn361 2.121 . S
O366 C374 1.258 . S
C367 N368 1.326 . S
C367 C371 1.460 . S
C367 H373 0.929 . S
N368 Mn361 2.257 . S
N368 C367 1.326 . S
N368 C372 1.362 . S
C369 C370 1.258 . S
C369 C372 1.431 . S
C369 C389 1.449 . S
C370 C369 1.258 . S
C370 C371 1.477 . S
C370 H390 0.931 . S
C371 C367 1.460 . S
C371 C370 1.477 . S
C371 H391 0.930 . S
C372 N368 1.362 . S
C372 C369 1.431 . S
C372 C382 1.476 . S
H373 C367 0.929 . S
C374 O365 1.250 . S
C374 O366 1.258 . S
O375 Mn360 2.162 . S
O375 C363 1.281 . S
O376 Mn360 2.297 . S
O376 C363 1.236 . S
N377 Mn361 2.282 . S
N377 C378 1.328 . S
N377 C382 1.318 . S
C378 N377 1.328 . S
C378 C379 1.457 . S
C378 H383 0.929 . S
C379 C378 1.457 . S
C379 C380 1.291 . S
C379 H392 0.931 . S
C380 C379 1.291 . S
C380 C381 1.373 . S
C380 H393 0.929 . S
C381 C380 1.373 . S
C381 C382 1.396 . S
C381 C388 1.403 . S
C382 C372 1.476 . S
C382 N377 1.318 . S
C382 C381 1.396 . S
H383 C378 0.929 . S
O384 Mn360 2.385 . S
O384 C362 1.234 . S
O385 Mn360 2.209 . S
O385 Mn361 2.215 . S
O385 C362 1.283 . S
O386 Mn360 2.094 . S
O386 C364 1.240 . S
O387 Mn361 2.117 . S
O387 C364 1.264 . S
C388 C381 1.403 . S
C388 C389 1.399 . S
C388 H394 0.929 . S
C389 C369 1.449 . S
C389 C388 1.399 . S
C389 H395 0.930 . S
H390 C370 0.931 . S
H391 C371 0.930 . S
H392 C379 0.931 . S
H393 C380 0.929 . S
H394 C388 0.929 . S
H395 C389 0.930 . S
Mn396 O401 2.095 . S
Mn396 O411 2.162 . S
Mn396 O412 2.297 . S
Mn396 O420 2.385 . S
Mn396 O421 2.209 . S
Mn396 O422 2.094 . S
Mn397 O402 2.121 . S
Mn397 N404 2.257 . S
Mn397 N413 2.282 . S
Mn397 O421 2.215 . S
Mn397 O423 2.117 . S
C398 O420 1.234 . S
C398 O421 1.283 . S
C399 O411 1.281 . S
C399 O412 1.236 . S
C400 O422 1.240 . S
C400 O423 1.264 . S
O401 Mn396 2.095 . S
O401 C410 1.250 . S
O402 Mn397 2.121 . S
O402 C410 1.258 . S
C403 N404 1.326 . S
C403 C407 1.460 . S
C403 H409 0.929 . S
N404 Mn397 2.257 . S
N404 C403 1.326 . S
N404 C408 1.362 . S
C405 C406 1.258 . S
C405 C408 1.431 . S
C405 C425 1.449 . S
C406 C405 1.258 . S
C406 C407 1.477 . S
C406 H426 0.931 . S
C407 C403 1.460 . S
C407 C406 1.477 . S
C407 H427 0.930 . S
C408 N404 1.362 . S
C408 C405 1.431 . S
C408 C418 1.476 . S
H409 C403 0.929 . S
C410 O401 1.250 . S
C410 O402 1.258 . S
O411 Mn396 2.162 . S
O411 C399 1.281 . S
O412 Mn396 2.297 . S
O412 C399 1.236 . S
N413 Mn397 2.282 . S
N413 C414 1.328 . S
N413 C418 1.318 . S
C414 N413 1.328 . S
C414 C415 1.457 . S
C414 H419 0.929 . S
C415 C414 1.457 . S
C415 C416 1.291 . S
C415 H428 0.931 . S
C416 C415 1.291 . S
C416 C417 1.373 . S
C416 H429 0.929 . S
C417 C416 1.373 . S
C417 C418 1.396 . S
C417 C424 1.403 . S
C418 C408 1.476 . S
C418 N413 1.318 . S
C418 C417 1.396 . S
H419 C414 0.929 . S
O420 Mn396 2.385 . S
O420 C398 1.234 . S
O421 Mn396 2.209 . S
O421 Mn397 2.215 . S
O421 C398 1.283 . S
O422 Mn396 2.094 . S
O422 C400 1.240 . S
O423 Mn397 2.117 . S
O423 C400 1.264 . S
C424 C417 1.403 . S
C424 C425 1.399 . S
C424 H430 0.929 . S
C425 C405 1.449 . S
C425 C424 1.399 . S
C425 H431 0.930 . S
H426 C406 0.931 . S
H427 C407 0.930 . S
H428 C415 0.931 . S
H429 C416 0.929 . S
H430 C424 0.929 . S
H431 C425 0.930 . S
Mn432 O437 2.095 . S
Mn432 O447 2.162 . S
Mn432 O448 2.297 . S
Mn432 O456 2.385 . S
Mn432 O457 2.209 . S
Mn432 O458 2.094 . S
Mn433 O438 2.121 . S
Mn433 N440 2.257 . S
Mn433 N449 2.282 . S
Mn433 O457 2.215 . S
Mn433 O459 2.117 . S
C434 O456 1.234 . S
C434 O457 1.283 . S
C435 O447 1.281 . S
C435 O448 1.236 . S
C436 O458 1.240 . S
C436 O459 1.264 . S
O437 Mn432 2.095 . S
O437 C446 1.250 . S
O438 Mn433 2.121 . S
O438 C446 1.258 . S
C439 N440 1.326 . S
C439 C443 1.460 . S
C439 H445 0.929 . S
N440 Mn433 2.257 . S
N440 C439 1.326 . S
N440 C444 1.362 . S
C441 C442 1.258 . S
C441 C444 1.431 . S
C441 C461 1.449 . S
C442 C441 1.258 . S
C442 C443 1.477 . S
C442 H462 0.931 . S
C443 C439 1.460 . S
C443 C442 1.477 . S
C443 H463 0.930 . S
C444 N440 1.362 . S
C444 C441 1.431 . S
C444 C454 1.476 . S
H445 C439 0.929 . S
C446 O437 1.250 . S
C446 O438 1.258 . S
O447 Mn432 2.162 . S
O447 C435 1.281 . S
O448 Mn432 2.297 . S
O448 C435 1.236 . S
N449 Mn433 2.282 . S
N449 C450 1.328 . S
N449 C454 1.318 . S
C450 N449 1.328 . S
C450 C451 1.457 . S
C450 H455 0.929 . S
C451 C450 1.457 . S
C451 C452 1.291 . S
C451 H464 0.963 . S
C452 C451 1.291 . S
C452 C453 1.373 . S
C452 H465 0.929 . S
C453 C452 1.373 . S
C453 C454 1.396 . S
C453 C460 1.403 . S
C454 C444 1.476 . S
C454 N449 1.318 . S
C454 C453 1.396 . S
H455 C450 0.929 . S
O456 Mn432 2.385 . S
O456 C434 1.234 . S
O457 Mn432 2.209 . S
O457 Mn433 2.215 . S
O457 C434 1.283 . S
O458 Mn432 2.094 . S
O458 C436 1.240 . S
O459 Mn433 2.117 . S
O459 C436 1.264 . S
C460 C453 1.403 . S
C460 C461 1.399 . S
C460 H466 0.929 . S
C461 C441 1.449 . S
C461 C460 1.399 . S
C461 H467 0.930 . S
H462 C442 0.931 . S
H463 C443 0.930 . S
H464 C451 0.963 . S
H465 C452 0.929 . S
H466 C460 0.929 . S
H467 C461 0.930 . S
Mn468 O473 2.095 . S
Mn468 O483 2.162 . S
Mn468 O484 2.297 . S
Mn468 O492 2.385 . S
Mn468 O493 2.209 . S
Mn468 O494 2.094 . S
Mn469 O474 2.121 . S
Mn469 N476 2.257 . S
Mn469 N485 2.282 . S
Mn469 O493 2.215 . S
Mn469 O495 2.117 . S
C470 O492 1.234 . S
C470 O493 1.283 . S
C471 O483 1.281 . S
C471 O484 1.236 . S
C472 O494 1.240 . S
C472 O495 1.264 . S
O473 Mn468 2.095 . S
O473 C482 1.250 . S
O474 Mn469 2.121 . S
O474 C482 1.258 . S
C475 N476 1.326 . S
C475 C479 1.460 . S
C475 H481 0.929 . S
N476 Mn469 2.257 . S
N476 C475 1.326 . S
N476 C480 1.362 . S
C477 C478 1.258 . S
C477 C480 1.431 . S
C477 C497 1.449 . S
C478 C477 1.258 . S
C478 C479 1.477 . S
C478 H498 0.931 . S
C479 C475 1.460 . S
C479 C478 1.477 . S
C479 H499 0.930 . S
C480 N476 1.362 . S
C480 C477 1.431 . S
C480 C490 1.476 . S
H481 C475 0.929 . S
C482 O473 1.250 . S
C482 O474 1.258 . S
O483 Mn468 2.162 . S
O483 C471 1.281 . S
O484 Mn468 2.297 . S
O484 C471 1.236 . S
N485 Mn469 2.282 . S
N485 C486 1.328 . S
N485 C490 1.318 . S
C486 N485 1.328 . S
C486 C487 1.457 . S
C486 H491 0.929 . S
C487 C486 1.457 . S
C487 C488 1.291 . S
C487 H500 0.931 . S
C488 C487 1.291 . S
C488 C489 1.373 . S
C488 H501 0.929 . S
C489 C488 1.373 . S
C489 C490 1.396 . S
C489 C496 1.403 . S
C490 C480 1.476 . S
C490 N485 1.318 . S
C490 C489 1.396 . S
H491 C486 0.929 . S
O492 Mn468 2.385 . S
O492 C470 1.234 . S
O493 Mn468 2.209 . S
O493 Mn469 2.215 . S
O493 C470 1.283 . S
O494 Mn468 2.094 . S
O494 C472 1.240 . S
O495 Mn469 2.117 . S
O495 C472 1.264 . S
C496 C489 1.403 . S
C496 C497 1.399 . S
C496 H502 0.929 . S
C497 C477 1.449 . S
C497 C496 1.399 . S
C497 H503 0.930 . S
H498 C478 0.931 . S
H499 C479 0.930 . S
H500 C487 0.931 . S
H501 C488 0.929 . S
H502 C496 0.929 . S
H503 C497 0.930 . S
Mn504 O509 2.095 . S
Mn504 O519 2.162 . S
Mn504 O520 2.297 . S
Mn504 O528 2.385 . S
Mn504 O529 2.209 . S
Mn504 O530 2.094 . S
Mn505 O510 2.121 . S
Mn505 N512 2.257 . S
Mn505 N521 2.282 . S
Mn505 O529 2.215 . S
Mn505 O531 2.117 . S
C506 O528 1.234 . S
C506 O529 1.283 . S
C507 O519 1.281 . S
C507 O520 1.236 . S
C508 O530 1.240 . S
C508 O531 1.264 . S
O509 Mn504 2.095 . S
O509 C518 1.250 . S
O510 Mn505 2.121 . S
O510 C518 1.258 . S
C511 N512 1.326 . S
C511 C515 1.460 . S
C511 H517 0.929 . S
N512 Mn505 2.257 . S
N512 C511 1.326 . S
N512 C516 1.362 . S
C513 C514 1.250 1_554 S
C513 C516 1.455 . S
C513 C533 1.435 1_554 S
C514 C513 1.250 1_556 S
C514 C515 1.477 1_556 S
C514 H534 0.931 . S
C515 C511 1.460 . S
C515 C514 1.477 1_554 S
C515 H535 0.930 . S
C516 N512 1.362 . S
C516 C513 1.455 . S
C516 C526 1.476 . S
H517 C511 0.929 . S
C518 O509 1.250 . S
C518 O510 1.258 . S
O519 Mn504 2.162 . S
O519 C507 1.281 . S
O520 Mn504 2.297 . S
O520 C507 1.236 . S
N521 Mn505 2.282 . S
N521 C522 1.328 . S
N521 C526 1.318 . S
C522 N521 1.328 . S
C522 C523 1.457 . S
C522 H527 0.929 . S
C523 C522 1.457 . S
C523 C524 1.291 . S
C523 H536 0.931 . S
C524 C523 1.291 . S
C524 C525 1.373 . S
C524 H537 0.929 . S
C525 C524 1.373 . S
C525 C526 1.396 . S
C525 C532 1.378 1_554 S
C526 C516 1.476 . S
C526 N521 1.318 . S
C526 C525 1.396 . S
H527 C522 0.929 . S
O528 Mn504 2.385 . S
O528 C506 1.234 . S
O529 Mn504 2.209 . S
O529 Mn505 2.215 . S
O529 C506 1.283 . S
O530 Mn504 2.094 . S
O530 C508 1.240 . S
O531 Mn505 2.117 . S
O531 C508 1.264 . S
C532 C525 1.378 1_556 S
C532 C533 1.412 . S
C532 H538 0.947 . S
C533 C513 1.435 1_556 S
C533 C532 1.412 . S
C533 H539 0.930 . S
H534 C514 0.931 . S
H535 C515 0.930 . S
H536 C523 0.931 . S
H537 C524 0.929 . S
H538 C532 0.947 . S
H539 C533 0.930 . S
Mn540 O545 2.095 . S
Mn540 O555 2.162 . S
Mn540 O556 2.297 . S
Mn540 O564 2.385 . S
Mn540 O565 2.209 . S
Mn540 O566 2.094 . S
Mn541 O546 2.121 . S
Mn541 N548 2.257 . S
Mn541 N557 2.282 . S
Mn541 O565 2.215 . S
Mn541 O567 2.117 . S
C542 O564 1.234 . S
C542 O565 1.283 . S
C543 O555 1.281 . S
C543 O556 1.236 . S
C544 O566 1.240 . S
C544 O567 1.264 . S
O545 Mn540 2.095 . S
O545 C554 1.250 . S
O546 Mn541 2.121 . S
O546 C554 1.258 . S
C547 N548 1.326 . S
C547 C551 1.460 . S
C547 H553 0.929 . S
N548 Mn541 2.257 . S
N548 C547 1.326 . S
N548 C552 1.362 . S
C549 C550 1.258 . S
C549 C552 1.431 . S
C549 C569 1.449 . S
C550 C549 1.258 . S
C550 C551 1.477 . S
C550 H570 0.931 . S
C551 C547 1.460 . S
C551 C550 1.477 . S
C551 H571 0.930 . S
C552 N548 1.362 . S
C552 C549 1.431 . S
C552 C562 1.476 . S
H553 C547 0.929 . S
C554 O545 1.250 . S
C554 O546 1.258 . S
O555 Mn540 2.162 . S
O555 C543 1.281 . S
O556 Mn540 2.297 . S
O556 C543 1.236 . S
N557 Mn541 2.282 . S
N557 C558 1.328 . S
N557 C562 1.318 . S
C558 N557 1.328 . S
C558 C559 1.457 . S
C558 H563 0.929 . S
C559 C558 1.457 . S
C559 C560 1.291 . S
C559 H572 0.931 . S
C560 C559 1.291 . S
C560 C561 1.373 . S
C560 H573 0.929 . S
C561 C560 1.373 . S
C561 C562 1.396 . S
C561 C568 1.403 . S
C562 C552 1.476 . S
C562 N557 1.318 . S
C562 C561 1.396 . S
H563 C558 0.929 . S
O564 Mn540 2.385 . S
O564 C542 1.234 . S
O565 Mn540 2.209 . S
O565 Mn541 2.215 . S
O565 C542 1.283 . S
O566 Mn540 2.094 . S
O566 C544 1.240 . S
O567 Mn541 2.117 . S
O567 C544 1.264 . S
C568 C561 1.403 . S
C568 C569 1.399 . S
C568 H574 0.929 . S
C569 C549 1.449 . S
C569 C568 1.399 . S
C569 H575 0.930 . S
H570 C550 0.931 . S
H571 C551 0.930 . S
H572 C559 0.931 . S
H573 C560 0.929 . S
H574 C568 0.929 . S
H575 C569 0.930 . S
Mn576 O581 2.095 . S
Mn576 O591 2.162 . S
Mn576 O592 2.297 . S
Mn576 O600 2.385 . S
Mn576 O601 2.209 . S
Mn576 O602 2.094 . S
Mn577 O582 2.121 . S
Mn577 N584 2.257 . S
Mn577 N593 2.282 . S
Mn577 O601 2.215 . S
Mn577 O603 2.117 . S
C578 O600 1.234 . S
C578 O601 1.283 . S
C579 O591 1.281 . S
C579 O592 1.236 . S
C580 O602 1.240 . S
C580 O603 1.264 . S
O581 Mn576 2.095 . S
O581 C590 1.250 . S
O582 Mn577 2.121 . S
O582 C590 1.258 . S
C583 N584 1.326 . S
C583 C587 1.460 . S
C583 H589 0.929 . S
N584 Mn577 2.257 . S
N584 C583 1.326 . S
N584 C588 1.362 . S
C585 C586 1.258 . S
C585 C588 1.431 . S
C585 C605 1.449 . S
C586 C585 1.258 . S
C586 C587 1.477 . S
C586 H606 0.931 . S
C587 C583 1.460 . S
C587 C586 1.477 . S
C587 H607 0.930 . S
C588 N584 1.362 . S
C588 C585 1.431 . S
C588 C598 1.476 . S
H589 C583 0.929 . S
C590 O581 1.250 . S
C590 O582 1.258 . S
O591 Mn576 2.162 . S
O591 C579 1.281 . S
O592 Mn576 2.297 . S
O592 C579 1.236 . S
N593 Mn577 2.282 . S
N593 C594 1.328 . S
N593 C598 1.318 . S
C594 N593 1.328 . S
C594 C595 1.457 . S
C594 H599 0.929 . S
C595 C594 1.457 . S
C595 C596 1.291 . S
C595 H608 0.931 . S
C596 C595 1.291 . S
C596 C597 1.373 . S
C596 H609 0.929 . S
C597 C596 1.373 . S
C597 C598 1.396 . S
C597 C604 1.403 . S
C598 C588 1.476 . S
C598 N593 1.318 . S
C598 C597 1.396 . S
H599 C594 0.929 . S
O600 Mn576 2.385 . S
O600 C578 1.234 . S
O601 Mn576 2.209 . S
O601 Mn577 2.215 . S
O601 C578 1.283 . S
O602 Mn576 2.094 . S
O602 C580 1.240 . S
O603 Mn577 2.117 . S
O603 C580 1.264 . S
C604 C597 1.403 . S
C604 C605 1.399 . S
C604 H610 0.929 . S
C605 C585 1.449 . S
C605 C604 1.399 . S
C605 H611 0.930 . S
H606 C586 0.931 . S
H607 C587 0.930 . S
H608 C595 0.931 . S
H609 C596 0.929 . S
H610 C604 0.929 . S
H611 C605 0.930 . S
Mn612 O617 2.095 . S
Mn612 O627 2.162 . S
Mn612 O628 2.297 . S
Mn612 O636 2.385 . S
Mn612 O637 2.209 . S
Mn612 O638 2.094 . S
Mn613 O618 2.121 . S
Mn613 N620 2.257 . S
Mn613 N629 2.282 . S
Mn613 O637 2.215 . S
Mn613 O639 2.117 . S
C614 O636 1.234 . S
C614 O637 1.283 . S
C615 O627 1.281 . S
C615 O628 1.236 . S
C616 O638 1.240 . S
C616 O639 1.264 . S
O617 Mn612 2.095 . S
O617 C626 1.250 . S
O618 Mn613 2.121 . S
O618 C626 1.258 . S
C619 N620 1.326 . S
C619 C623 1.460 . S
C619 H625 0.929 . S
N620 Mn613 2.257 . S
N620 C619 1.326 . S
N620 C624 1.362 . S
C621 C622 1.258 . S
C621 C624 1.431 . S
C621 C641 1.449 . S
C622 C621 1.258 . S
C622 C623 1.477 . S
C622 H642 0.931 . S
C623 C619 1.460 . S
C623 C622 1.477 . S
C623 H643 0.930 . S
C624 N620 1.362 . S
C624 C621 1.431 . S
C624 C634 1.476 . S
H625 C619 0.929 . S
C626 O617 1.250 . S
C626 O618 1.258 . S
O627 Mn612 2.162 . S
O627 C615 1.281 . S
O628 Mn612 2.297 . S
O628 C615 1.236 . S
N629 Mn613 2.282 . S
N629 C630 1.328 . S
N629 C634 1.318 . S
C630 N629 1.328 . S
C630 C631 1.457 . S
C630 H635 0.929 . S
C631 C630 1.457 . S
C631 C632 1.291 . S
C631 H644 0.931 . S
C632 C631 1.291 . S
C632 C633 1.373 . S
C632 H645 0.929 . S
C633 C632 1.373 . S
C633 C634 1.396 . S
C633 C640 1.403 . S
C634 C624 1.476 . S
C634 N629 1.318 . S
C634 C633 1.396 . S
H635 C630 0.929 . S
O636 Mn612 2.385 . S
O636 C614 1.234 . S
O637 Mn612 2.209 . S
O637 Mn613 2.215 . S
O637 C614 1.283 . S
O638 Mn612 2.094 . S
O638 C616 1.240 . S
O639 Mn613 2.117 . S
O639 C616 1.264 . S
C640 C633 1.403 . S
C640 C641 1.399 . S
C640 H646 0.929 . S
C641 C621 1.449 . S
C641 C640 1.399 . S
C641 H647 0.930 . S
H642 C622 0.931 . S
H643 C623 0.930 . S
H644 C631 0.931 . S
H645 C632 0.929 . S
H646 C640 0.929 . S
H647 C641 0.930 . S
Mn648 O653 2.095 . S
Mn648 O663 2.162 . S
Mn648 O664 2.297 . S
Mn648 O672 2.385 . S
Mn648 O673 2.209 . S
Mn648 O674 2.094 . S
Mn649 O654 2.121 . S
Mn649 N656 2.257 . S
Mn649 N665 2.282 . S
Mn649 O673 2.215 . S
Mn649 O675 2.117 . S
C650 O672 1.234 . S
C650 O673 1.283 . S
C651 O663 1.281 . S
C651 O664 1.236 . S
C652 O674 1.240 . S
C652 O675 1.264 . S
O653 Mn648 2.095 . S
O653 C662 1.250 . S
O654 Mn649 2.121 . S
O654 C662 1.258 . S
C655 N656 1.326 . S
C655 C659 1.460 . S
C655 H661 0.929 . S
N656 Mn649 2.257 . S
N656 C655 1.326 . S
N656 C660 1.362 . S
C657 C658 1.250 1_554 S
C657 C660 1.455 . S
C657 C677 1.435 1_554 S
C658 C657 1.250 1_556 S
C658 C659 1.477 1_556 S
C658 H678 0.931 . S
C659 C655 1.460 . S
C659 C658 1.477 1_554 S
C659 H679 0.930 . S
C660 N656 1.362 . S
C660 C657 1.455 . S
C660 C670 1.476 . S
H661 C655 0.929 . S
C662 O653 1.250 . S
C662 O654 1.258 . S
O663 Mn648 2.162 . S
O663 C651 1.281 . S
O664 Mn648 2.297 . S
O664 C651 1.236 . S
N665 Mn649 2.282 . S
N665 C666 1.328 . S
N665 C670 1.318 . S
C666 N665 1.328 . S
C666 C667 1.457 . S
C666 H671 0.929 . S
C667 C666 1.457 . S
C667 C668 1.291 . S
C667 H680 0.963 . S
C668 C667 1.291 . S
C668 C669 1.373 . S
C668 H681 0.929 . S
C669 C668 1.373 . S
C669 C670 1.396 . S
C669 C676 1.378 1_554 S
C670 C660 1.476 . S
C670 N665 1.318 . S
C670 C669 1.396 . S
H671 C666 0.929 . S
O672 Mn648 2.385 . S
O672 C650 1.234 . S
O673 Mn648 2.209 . S
O673 Mn649 2.215 . S
O673 C650 1.283 . S
O674 Mn648 2.094 . S
O674 C652 1.240 . S
O675 Mn649 2.117 . S
O675 C652 1.264 . S
C676 C669 1.378 1_556 S
C676 C677 1.412 . S
C676 H682 0.947 . S
C677 C657 1.435 1_556 S
C677 C676 1.412 . S
C677 H683 0.930 . S
H678 C658 0.931 . S
H679 C659 0.930 . S
H680 C667 0.963 . S
H681 C668 0.929 . S
H682 C676 0.947 . S
H683 C677 0.930 . S
Mn684 O689 2.095 . S
Mn684 O699 2.162 . S
Mn684 O700 2.297 . S
Mn684 O708 2.385 . S
Mn684 O709 2.209 . S
Mn684 O710 2.094 . S
Mn685 O690 2.121 . S
Mn685 N692 2.257 . S
Mn685 N701 2.282 . S
Mn685 O709 2.215 . S
Mn685 O711 2.117 . S
C686 O708 1.234 . S
C686 O709 1.283 . S
C687 O699 1.281 . S
C687 O700 1.236 . S
C688 O710 1.240 . S
C688 O711 1.264 . S
O689 Mn684 2.095 . S
O689 C698 1.250 . S
O690 Mn685 2.121 . S
O690 C698 1.258 . S
C691 N692 1.326 . S
C691 C695 1.460 . S
C691 H697 0.929 . S
N692 Mn685 2.257 . S
N692 C691 1.326 . S
N692 C696 1.362 . S
C693 C694 1.258 . S
C693 C696 1.431 . S
C693 C713 1.449 . S
C694 C693 1.258 . S
C694 C695 1.477 . S
C694 H714 0.931 . S
C695 C691 1.460 . S
C695 C694 1.477 . S
C695 H715 0.930 . S
C696 N692 1.362 . S
C696 C693 1.431 . S
C696 C706 1.476 . S
H697 C691 0.929 . S
C698 O689 1.250 . S
C698 O690 1.258 . S
O699 Mn684 2.162 . S
O699 C687 1.281 . S
O700 Mn684 2.297 . S
O700 C687 1.236 . S
N701 Mn685 2.282 . S
N701 C702 1.328 . S
N701 C706 1.318 . S
C702 N701 1.328 . S
C702 C703 1.457 . S
C702 H707 0.929 . S
C703 C702 1.457 . S
C703 C704 1.291 . S
C703 H716 0.931 . S
C704 C703 1.291 . S
C704 C705 1.373 . S
C704 H717 0.929 . S
C705 C704 1.373 . S
C705 C706 1.396 . S
C705 C712 1.403 . S
C706 C696 1.476 . S
C706 N701 1.318 . S
C706 C705 1.396 . S
H707 C702 0.929 . S
O708 Mn684 2.385 . S
O708 C686 1.234 . S
O709 Mn684 2.209 . S
O709 Mn685 2.215 . S
O709 C686 1.283 . S
O710 Mn684 2.094 . S
O710 C688 1.240 . S
O711 Mn685 2.117 . S
O711 C688 1.264 . S
C712 C705 1.403 . S
C712 C713 1.399 . S
C712 H718 0.929 . S
C713 C693 1.449 . S
C713 C712 1.399 . S
C713 H719 0.930 . S
H714 C694 0.931 . S
H715 C695 0.930 . S
H716 C703 0.931 . S
H717 C704 0.929 . S
H718 C712 0.929 . S
H719 C713 0.930 . S
Mn720 O725 2.095 . S
Mn720 O735 2.162 . S
Mn720 O736 2.297 . S
Mn720 O744 2.385 . S
Mn720 O745 2.209 . S
Mn720 O746 2.094 . S
Mn721 O726 2.121 . S
Mn721 N728 2.257 . S
Mn721 N737 2.282 . S
Mn721 O745 2.215 . S
Mn721 O747 2.117 . S
C722 O744 1.234 . S
C722 O745 1.283 . S
C723 O735 1.281 . S
C723 O736 1.236 . S
C724 O746 1.240 . S
C724 O747 1.264 . S
O725 Mn720 2.095 . S
O725 C734 1.250 . S
O726 Mn721 2.121 . S
O726 C734 1.258 . S
C727 N728 1.326 . S
C727 C731 1.460 . S
C727 H733 0.929 . S
N728 Mn721 2.257 . S
N728 C727 1.326 . S
N728 C732 1.362 . S
C729 C730 1.250 1_556 S
C729 C732 1.455 . S
C729 C749 1.435 1_556 S
C730 C729 1.250 1_554 S
C730 C731 1.477 1_554 S
C730 H750 0.931 . S
C731 C727 1.460 . S
C731 C730 1.477 1_556 S
C731 H751 0.930 . S
C732 N728 1.362 . S
C732 C729 1.455 . S
C732 C742 1.476 . S
H733 C727 0.929 . S
C734 O725 1.250 . S
C734 O726 1.258 . S
O735 Mn720 2.162 . S
O735 C723 1.281 . S
O736 Mn720 2.297 . S
O736 C723 1.236 . S
N737 Mn721 2.282 . S
N737 C738 1.328 . S
N737 C742 1.318 . S
C738 N737 1.328 . S
C738 C739 1.457 . S
C738 H743 0.929 . S
C739 C738 1.457 . S
C739 C740 1.291 . S
C739 H752 0.931 . S
C740 C739 1.291 . S
C740 C741 1.373 . S
C740 H753 0.929 . S
C741 C740 1.373 . S
C741 C742 1.396 . S
C741 C748 1.378 1_556 S
C742 C732 1.476 . S
C742 N737 1.318 . S
C742 C741 1.396 . S
H743 C738 0.929 . S
O744 Mn720 2.385 . S
O744 C722 1.234 . S
O745 Mn720 2.209 . S
O745 Mn721 2.215 . S
O745 C722 1.283 . S
O746 Mn720 2.094 . S
O746 C724 1.240 . S
O747 Mn721 2.117 . S
O747 C724 1.264 . S
C748 C741 1.378 1_554 S
C748 C749 1.412 . S
C748 H754 0.947 . S
C749 C729 1.435 1_554 S
C749 C748 1.412 . S
C749 H755 0.930 . S
H750 C730 0.931 . S
H751 C731 0.930 . S
H752 C739 0.931 . S
H753 C740 0.929 . S
H754 C748 0.947 . S
H755 C749 0.930 . S
Mn756 O761 2.095 . S
Mn756 O771 2.162 . S
Mn756 O772 2.297 . S
Mn756 O780 2.385 . S
Mn756 O781 2.209 . S
Mn756 O782 2.094 . S
Mn757 O762 2.121 . S
Mn757 N764 2.257 . S
Mn757 N773 2.282 . S
Mn757 O781 2.215 . S
Mn757 O783 2.117 . S
C758 O780 1.234 . S
C758 O781 1.283 . S
C759 O771 1.281 . S
C759 O772 1.236 . S
C760 O782 1.240 . S
C760 O783 1.264 . S
O761 Mn756 2.095 . S
O761 C770 1.250 . S
O762 Mn757 2.121 . S
O762 C770 1.258 . S
C763 N764 1.326 . S
C763 C767 1.460 . S
C763 H769 0.929 . S
N764 Mn757 2.257 . S
N764 C763 1.326 . S
N764 C768 1.362 . S
C765 C766 1.258 . S
C765 C768 1.431 . S
C765 C785 1.449 . S
C766 C765 1.258 . S
C766 C767 1.477 . S
C766 H786 0.931 . S
C767 C763 1.460 . S
C767 C766 1.477 . S
C767 H787 0.930 . S
C768 N764 1.362 . S
C768 C765 1.431 . S
C768 C778 1.476 . S
H769 C763 0.929 . S
C770 O761 1.250 . S
C770 O762 1.258 . S
O771 Mn756 2.162 . S
O771 C759 1.281 . S
O772 Mn756 2.297 . S
O772 C759 1.236 . S
N773 Mn757 2.282 . S
N773 C774 1.328 . S
N773 C778 1.318 . S
C774 N773 1.328 . S
C774 C775 1.457 . S
C774 H779 0.929 . S
C775 C774 1.457 . S
C775 C776 1.291 . S
C775 H788 0.931 . S
C776 C775 1.291 . S
C776 C777 1.373 . S
C776 H789 0.929 . S
C777 C776 1.373 . S
C777 C778 1.396 . S
C777 C784 1.403 . S
C778 C768 1.476 . S
C778 N773 1.318 . S
C778 C777 1.396 . S
H779 C774 0.929 . S
O780 Mn756 2.385 . S
O780 C758 1.234 . S
O781 Mn756 2.209 . S
O781 Mn757 2.215 . S
O781 C758 1.283 . S
O782 Mn756 2.094 . S
O782 C760 1.240 . S
O783 Mn757 2.117 . S
O783 C760 1.264 . S
C784 C777 1.403 . S
C784 C785 1.399 . S
C784 H790 0.929 . S
C785 C765 1.449 . S
C785 C784 1.399 . S
C785 H791 0.930 . S
H786 C766 0.931 . S
H787 C767 0.930 . S
H788 C775 0.931 . S
H789 C776 0.929 . S
H790 C784 0.929 . S
H791 C785 0.930 . S
Mn792 O797 2.095 . S
Mn792 O807 2.162 . S
Mn792 O808 2.297 . S
Mn792 O816 2.385 . S
Mn792 O817 2.209 . S
Mn792 O818 2.094 . S
Mn793 O798 2.121 . S
Mn793 N800 2.257 . S
Mn793 N809 2.282 . S
Mn793 O817 2.215 . S
Mn793 O819 2.117 . S
C794 O816 1.234 . S
C794 O817 1.283 . S
C795 O807 1.281 . S
C795 O808 1.236 . S
C796 O818 1.240 . S
C796 O819 1.264 . S
O797 Mn792 2.095 . S
O797 C806 1.250 . S
O798 Mn793 2.121 . S
O798 C806 1.258 . S
C799 N800 1.326 . S
C799 C803 1.460 . S
C799 H805 0.929 . S
N800 Mn793 2.257 . S
N800 C799 1.326 . S
N800 C804 1.362 . S
C801 C802 1.258 . S
C801 C804 1.431 . S
C801 C821 1.449 . S
C802 C801 1.258 . S
C802 C803 1.477 . S
C802 H822 0.931 . S
C803 C799 1.460 . S
C803 C802 1.477 . S
C803 H823 0.930 . S
C804 N800 1.362 . S
C804 C801 1.431 . S
C804 C814 1.476 . S
H805 C799 0.929 . S
C806 O797 1.250 . S
C806 O798 1.258 . S
O807 Mn792 2.162 . S
O807 C795 1.281 . S
O808 Mn792 2.297 . S
O808 C795 1.236 . S
N809 Mn793 2.282 . S
N809 C810 1.328 . S
N809 C814 1.318 . S
C810 N809 1.328 . S
C810 C811 1.457 . S
C810 H815 0.929 . S
C811 C810 1.457 . S
C811 C812 1.291 . S
C811 H824 0.963 . S
C812 C811 1.291 . S
C812 C813 1.373 . S
C812 H825 0.929 . S
C813 C812 1.373 . S
C813 C814 1.396 . S
C813 C820 1.403 . S
C814 C804 1.476 . S
C814 N809 1.318 . S
C814 C813 1.396 . S
H815 C810 0.929 . S
O816 Mn792 2.385 . S
O816 C794 1.234 . S
O817 Mn792 2.209 . S
O817 Mn793 2.215 . S
O817 C794 1.283 . S
O818 Mn792 2.094 . S
O818 C796 1.240 . S
O819 Mn793 2.117 . S
O819 C796 1.264 . S
C820 C813 1.403 . S
C820 C821 1.399 . S
C820 H826 0.929 . S
C821 C801 1.449 . S
C821 C820 1.399 . S
C821 H827 0.930 . S
H822 C802 0.931 . S
H823 C803 0.930 . S
H824 C811 0.963 . S
H825 C812 0.929 . S
H826 C820 0.929 . S
H827 C821 0.930 . S
Mn828 O833 2.095 . S
Mn828 O843 2.162 . S
Mn828 O844 2.297 . S
Mn828 O852 2.385 . S
Mn828 O853 2.209 . S
Mn828 O854 2.094 . S
Mn829 O834 2.121 . S
Mn829 N836 2.257 . S
Mn829 N845 2.282 . S
Mn829 O853 2.215 . S
Mn829 O855 2.117 . S
C830 O852 1.234 . S
C830 O853 1.283 . S
C831 O843 1.281 . S
C831 O844 1.236 . S
C832 O854 1.240 . S
C832 O855 1.264 . S
O833 Mn828 2.095 . S
O833 C842 1.250 . S
O834 Mn829 2.121 . S
O834 C842 1.258 . S
C835 N836 1.326 . S
C835 C839 1.460 . S
C835 H841 0.929 . S
N836 Mn829 2.257 . S
N836 C835 1.326 . S
N836 C840 1.362 . S
C837 C838 1.258 . S
C837 C840 1.431 . S
C837 C857 1.449 . S
C838 C837 1.258 . S
C838 C839 1.477 . S
C838 H858 0.931 . S
C839 C835 1.460 . S
C839 C838 1.477 . S
C839 H859 0.930 . S
C840 N836 1.362 . S
C840 C837 1.431 . S
C840 C850 1.476 . S
H841 C835 0.929 . S
C842 O833 1.250 . S
C842 O834 1.258 . S
O843 Mn828 2.162 . S
O843 C831 1.281 . S
O844 Mn828 2.297 . S
O844 C831 1.236 . S
N845 Mn829 2.282 . S
N845 C846 1.328 . S
N845 C850 1.318 . S
C846 N845 1.328 . S
C846 C847 1.457 . S
C846 H851 0.929 . S
C847 C846 1.457 . S
C847 C848 1.291 . S
C847 H860 0.931 . S
C848 C847 1.291 . S
C848 C849 1.373 . S
C848 H861 0.929 . S
C849 C848 1.373 . S
C849 C850 1.396 . S
C849 C856 1.403 . S
C850 C840 1.476 . S
C850 N845 1.318 . S
C850 C849 1.396 . S
H851 C846 0.929 . S
O852 Mn828 2.385 . S
O852 C830 1.234 . S
O853 Mn828 2.209 . S
O853 Mn829 2.215 . S
O853 C830 1.283 . S
O854 Mn828 2.094 . S
O854 C832 1.240 . S
O855 Mn829 2.117 . S
O855 C832 1.264 . S
C856 C849 1.403 . S
C856 C857 1.399 . S
C856 H862 0.929 . S
C857 C837 1.449 . S
C857 C856 1.399 . S
C857 H863 0.930 . S
H858 C838 0.931 . S
H859 C839 0.930 . S
H860 C847 0.931 . S
H861 C848 0.929 . S
H862 C856 0.929 . S
H863 C857 0.930 . S
Mn864 O869 2.095 . S
Mn864 O879 2.162 . S
Mn864 O880 2.297 . S
Mn864 O888 2.385 . S
Mn864 O889 2.209 . S
Mn864 O890 2.094 . S
Mn865 O870 2.121 . S
Mn865 N872 2.257 . S
Mn865 N881 2.282 . S
Mn865 O889 2.215 . S
Mn865 O891 2.117 . S
C866 O888 1.234 . S
C866 O889 1.283 . S
C867 O879 1.281 . S
C867 O880 1.236 . S
C868 O890 1.240 . S
C868 O891 1.264 . S
O869 Mn864 2.095 . S
O869 C878 1.250 . S
O870 Mn865 2.121 . S
O870 C878 1.258 . S
C871 N872 1.326 . S
C871 C875 1.460 . S
C871 H877 0.929 . S
N872 Mn865 2.257 . S
N872 C871 1.326 . S
N872 C876 1.362 . S
C873 C874 1.258 . S
C873 C876 1.431 . S
C873 C893 1.449 . S
C874 C873 1.258 . S
C874 C875 1.477 . S
C874 H894 0.931 . S
C875 C871 1.460 . S
C875 C874 1.477 . S
C875 H895 0.930 . S
C876 N872 1.362 . S
C876 C873 1.431 . S
C876 C886 1.476 . S
H877 C871 0.929 . S
C878 O869 1.250 . S
C878 O870 1.258 . S
O879 Mn864 2.162 . S
O879 C867 1.281 . S
O880 Mn864 2.297 . S
O880 C867 1.236 . S
N881 Mn865 2.282 . S
N881 C882 1.328 . S
N881 C886 1.318 . S
C882 N881 1.328 . S
C882 C883 1.457 . S
C882 H887 0.929 . S
C883 C882 1.457 . S
C883 C884 1.291 . S
C883 H896 0.931 . S
C884 C883 1.291 . S
C884 C885 1.373 . S
C884 H897 0.929 . S
C885 C884 1.373 . S
C885 C886 1.396 . S
C885 C892 1.403 . S
C886 C876 1.476 . S
C886 N881 1.318 . S
C886 C885 1.396 . S
H887 C882 0.929 . S
O888 Mn864 2.385 . S
O888 C866 1.234 . S
O889 Mn864 2.209 . S
O889 Mn865 2.215 . S
O889 C866 1.283 . S
O890 Mn864 2.094 . S
O890 C868 1.240 . S
O891 Mn865 2.117 . S
O891 C868 1.264 . S
C892 C885 1.403 . S
C892 C893 1.399 . S
C892 H898 0.929 . S
C893 C873 1.449 . S
C893 C892 1.399 . S
C893 H899 0.930 . S
H894 C874 0.931 . S
H895 C875 0.930 . S
H896 C883 0.931 . S
H897 C884 0.929 . S
H898 C892 0.929 . S
H899 C893 0.930 . S
Mn900 O905 2.095 . S
Mn900 O915 2.162 . S
Mn900 O916 2.297 . S
Mn900 O924 2.385 . S
Mn900 O925 2.209 . S
Mn900 O926 2.094 . S
Mn901 O906 2.121 . S
Mn901 N908 2.257 . S
Mn901 N917 2.282 . S
Mn901 O925 2.215 . S
Mn901 O927 2.117 . S
C902 O924 1.234 . S
C902 O925 1.283 . S
C903 O915 1.281 . S
C903 O916 1.236 . S
C904 O926 1.240 . S
C904 O927 1.264 . S
O905 Mn900 2.095 . S
O905 C914 1.250 . S
O906 Mn901 2.121 . S
O906 C914 1.258 . S
C907 N908 1.326 . S
C907 C911 1.460 . S
C907 H913 0.929 . S
N908 Mn901 2.257 . S
N908 C907 1.326 . S
N908 C912 1.362 . S
C909 C910 1.258 . S
C909 C912 1.431 . S
C909 C929 1.449 . S
C910 C909 1.258 . S
C910 C911 1.477 . S
C910 H930 0.931 . S
C911 C907 1.460 . S
C911 C910 1.477 . S
C911 H931 0.930 . S
C912 N908 1.362 . S
C912 C909 1.431 . S
C912 C922 1.476 . S
H913 C907 0.929 . S
C914 O905 1.250 . S
C914 O906 1.258 . S
O915 Mn900 2.162 . S
O915 C903 1.281 . S
O916 Mn900 2.297 . S
O916 C903 1.236 . S
N917 Mn901 2.282 . S
N917 C918 1.328 . S
N917 C922 1.318 . S
C918 N917 1.328 . S
C918 C919 1.457 . S
C918 H923 0.929 . S
C919 C918 1.457 . S
C919 C920 1.291 . S
C919 H932 0.931 . S
C920 C919 1.291 . S
C920 C921 1.373 . S
C920 H933 0.929 . S
C921 C920 1.373 . S
C921 C922 1.396 . S
C921 C928 1.403 . S
C922 C912 1.476 . S
C922 N917 1.318 . S
C922 C921 1.396 . S
H923 C918 0.929 . S
O924 Mn900 2.385 . S
O924 C902 1.234 . S
O925 Mn900 2.209 . S
O925 Mn901 2.215 . S
O925 C902 1.283 . S
O926 Mn900 2.094 . S
O926 C904 1.240 . S
O927 Mn901 2.117 . S
O927 C904 1.264 . S
C928 C921 1.403 . S
C928 C929 1.399 . S
C928 H934 0.929 . S
C929 C909 1.449 . S
C929 C928 1.399 . S
C929 H935 0.930 . S
H930 C910 0.931 . S
H931 C911 0.930 . S
H932 C919 0.931 . S
H933 C920 0.929 . S
H934 C928 0.929 . S
H935 C929 0.930 . S
Mn936 O941 2.095 . S
Mn936 O951 2.162 . S
Mn936 O952 2.297 . S
Mn936 O960 2.385 . S
Mn936 O961 2.209 . S
Mn936 O962 2.094 . S
Mn937 O942 2.121 . S
Mn937 N944 2.257 . S
Mn937 N953 2.282 . S
Mn937 O961 2.215 . S
Mn937 O963 2.117 . S
C938 O960 1.234 . S
C938 O961 1.283 . S
C939 O951 1.281 . S
C939 O952 1.236 . S
C940 O962 1.240 . S
C940 O963 1.264 . S
O941 Mn936 2.095 . S
O941 C950 1.250 . S
O942 Mn937 2.121 . S
O942 C950 1.258 . S
C943 N944 1.326 . S
C943 C947 1.460 . S
C943 H949 0.929 . S
N944 Mn937 2.257 . S
N944 C943 1.326 . S
N944 C948 1.362 . S
C945 C946 1.250 1_556 S
C945 C948 1.455 . S
C945 C965 1.435 1_556 S
C946 C945 1.250 1_554 S
C946 C947 1.477 1_554 S
C946 H966 0.931 . S
C947 C943 1.460 . S
C947 C946 1.477 1_556 S
C947 H967 0.930 . S
C948 N944 1.362 . S
C948 C945 1.455 . S
C948 C958 1.476 . S
H949 C943 0.929 . S
C950 O941 1.250 . S
C950 O942 1.258 . S
O951 Mn936 2.162 . S
O951 C939 1.281 . S
O952 Mn936 2.297 . S
O952 C939 1.236 . S
N953 Mn937 2.282 . S
N953 C954 1.328 . S
N953 C958 1.318 . S
C954 N953 1.328 . S
C954 C955 1.457 . S
C954 H959 0.929 . S
C955 C954 1.457 . S
C955 C956 1.291 . S
C955 H968 0.963 . S
C956 C955 1.291 . S
C956 C957 1.373 . S
C956 H969 0.929 . S
C957 C956 1.373 . S
C957 C958 1.396 . S
C957 C964 1.378 1_556 S
C958 C948 1.476 . S
C958 N953 1.318 . S
C958 C957 1.396 . S
H959 C954 0.929 . S
O960 Mn936 2.385 . S
O960 C938 1.234 . S
O961 Mn936 2.209 . S
O961 Mn937 2.215 . S
O961 C938 1.283 . S
O962 Mn936 2.094 . S
O962 C940 1.240 . S
O963 Mn937 2.117 . S
O963 C940 1.264 . S
C964 C957 1.378 1_554 S
C964 C965 1.412 . S
C964 H970 0.947 . S
C965 C945 1.435 1_554 S
C965 C964 1.412 . S
C965 H971 0.930 . S
H966 C946 0.931 . S
H967 C947 0.930 . S
H968 C955 0.963 . S
H969 C956 0.929 . S
H970 C964 0.947 . S
H971 C965 0.930 . S
Mn972 O977 2.095 . S
Mn972 O987 2.162 . S
Mn972 O988 2.297 . S
Mn972 O996 2.385 . S
Mn972 O997 2.209 . S
Mn972 O998 2.094 . S
Mn973 O978 2.121 . S
Mn973 N980 2.257 . S
Mn973 N989 2.282 . S
Mn973 O997 2.215 . S
Mn973 O999 2.117 . S
C974 O996 1.234 . S
C974 O997 1.283 . S
C975 O987 1.281 . S
C975 O988 1.236 . S
C976 O998 1.240 . S
C976 O999 1.264 . S
O977 Mn972 2.095 . S
O977 C986 1.250 . S
O978 Mn973 2.121 . S
O978 C986 1.258 . S
C979 N980 1.326 . S
C979 C983 1.460 . S
C979 H985 0.929 . S
N980 Mn973 2.257 . S
N980 C979 1.326 . S
N980 C984 1.362 . S
C981 C982 1.258 . S
C981 C984 1.431 . S
C981 C1001 1.449 . S
C982 C981 1.258 . S
C982 C983 1.477 . S
C982 H1002 0.931 . S
C983 C979 1.460 . S
C983 C982 1.477 . S
C983 H1003 0.930 . S
C984 N980 1.362 . S
C984 C981 1.431 . S
C984 C994 1.476 . S
H985 C979 0.929 . S
C986 O977 1.250 . S
C986 O978 1.258 . S
O987 Mn972 2.162 . S
O987 C975 1.281 . S
O988 Mn972 2.297 . S
O988 C975 1.236 . S
N989 Mn973 2.282 . S
N989 C990 1.328 . S
N989 C994 1.318 . S
C990 N989 1.328 . S
C990 C991 1.457 . S
C990 H995 0.929 . S
C991 C990 1.457 . S
C991 C992 1.291 . S
C991 H1004 0.931 . S
C992 C991 1.291 . S
C992 C993 1.373 . S
C992 H1005 0.929 . S
C993 C992 1.373 . S
C993 C994 1.396 . S
C993 C1000 1.403 . S
C994 C984 1.476 . S
C994 N989 1.318 . S
C994 C993 1.396 . S
H995 C990 0.929 . S
O996 Mn972 2.385 . S
O996 C974 1.234 . S
O997 Mn972 2.209 . S
O997 Mn973 2.215 . S
O997 C974 1.283 . S
O998 Mn972 2.094 . S
O998 C976 1.240 . S
O999 Mn973 2.117 . S
O999 C976 1.264 . S
C1000 C993 1.403 . S
C1000 C1001 1.399 . S
C1000 H1006 0.929 . S
C1001 C981 1.449 . S
C1001 C1000 1.399 . S
C1001 H1007 0.930 . S
H1002 C982 0.931 . S
H1003 C983 0.930 . S
H1004 C991 0.931 . S
H1005 C992 0.929 . S
H1006 C1000 0.929 . S
H1007 C1001 0.930 . S
Mn1008 O1013 2.095 . S
Mn1008 O1023 2.162 . S
Mn1008 O1024 2.297 . S
Mn1008 O1032 2.385 . S
Mn1008 O1033 2.209 . S
Mn1008 O1034 2.094 . S
Mn1009 O1014 2.121 . S
Mn1009 N1016 2.257 . S
Mn1009 N1025 2.282 . S
Mn1009 O1033 2.215 . S
Mn1009 O1035 2.117 . S
C1010 O1032 1.234 . S
C1010 O1033 1.283 . S
C1011 O1023 1.281 . S
C1011 O1024 1.236 . S
C1012 O1034 1.240 . S
C1012 O1035 1.264 . S
O1013 Mn1008 2.095 . S
O1013 C1022 1.250 . S
O1014 Mn1009 2.121 . S
O1014 C1022 1.258 . S
C1015 N1016 1.326 . S
C1015 C1019 1.460 . S
C1015 H1021 0.929 . S
N1016 Mn1009 2.257 . S
N1016 C1015 1.326 . S
N1016 C1020 1.362 . S
C1017 C1018 1.250 1_554 S
C1017 C1020 1.455 . S
C1017 C1037 1.435 1_554 S
C1018 C1017 1.250 1_556 S
C1018 C1019 1.477 1_556 S
C1018 H1038 0.931 . S
C1019 C1015 1.460 . S
C1019 C1018 1.477 1_554 S
C1019 H1039 0.930 . S
C1020 N1016 1.362 . S
C1020 C1017 1.455 . S
C1020 C1030 1.476 . S
H1021 C1015 0.929 . S
C1022 O1013 1.250 . S
C1022 O1014 1.258 . S
O1023 Mn1008 2.162 . S
O1023 C1011 1.281 . S
O1024 Mn1008 2.297 . S
O1024 C1011 1.236 . S
N1025 Mn1009 2.282 . S
N1025 C1026 1.328 . S
N1025 C1030 1.318 . S
C1026 N1025 1.328 . S
C1026 C1027 1.457 . S
C1026 H1031 0.929 . S
C1027 C1026 1.457 . S
C1027 C1028 1.291 . S
C1027 H1040 0.931 . S
C1028 C1027 1.291 . S
C1028 C1029 1.373 . S
C1028 H1041 0.929 . S
C1029 C1028 1.373 . S
C1029 C1030 1.396 . S
C1029 C1036 1.378 1_554 S
C1030 C1020 1.476 . S
C1030 N1025 1.318 . S
C1030 C1029 1.396 . S
H1031 C1026 0.929 . S
O1032 Mn1008 2.385 . S
O1032 C1010 1.234 . S
O1033 Mn1008 2.209 . S
O1033 Mn1009 2.215 . S
O1033 C1010 1.283 . S
O1034 Mn1008 2.094 . S
O1034 C1012 1.240 . S
O1035 Mn1009 2.117 . S
O1035 C1012 1.264 . S
C1036 C1029 1.378 1_556 S
C1036 C1037 1.412 . S
C1036 H1042 0.947 . S
C1037 C1017 1.435 1_556 S
C1037 C1036 1.412 . S
C1037 H1043 0.930 . S
H1038 C1018 0.931 . S
H1039 C1019 0.930 . S
H1040 C1027 0.931 . S
H1041 C1028 0.929 . S
H1042 C1036 0.947 . S
H1043 C1037 0.930 . S
Mn1044 O1049 2.095 . S
Mn1044 O1059 2.162 . S
Mn1044 O1060 2.297 . S
Mn1044 O1068 2.385 . S
Mn1044 O1069 2.209 . S
Mn1044 O1070 2.094 . S
Mn1045 O1050 2.121 . S
Mn1045 N1052 2.257 . S
Mn1045 N1061 2.282 . S
Mn1045 O1069 2.215 . S
Mn1045 O1071 2.117 . S
C1046 O1068 1.234 . S
C1046 O1069 1.283 . S
C1047 O1059 1.281 . S
C1047 O1060 1.236 . S
C1048 O1070 1.240 . S
C1048 O1071 1.264 . S
O1049 Mn1044 2.095 . S
O1049 C1058 1.250 . S
O1050 Mn1045 2.121 . S
O1050 C1058 1.258 . S
C1051 N1052 1.326 . S
C1051 C1055 1.460 . S
C1051 H1057 0.929 . S
N1052 Mn1045 2.257 . S
N1052 C1051 1.326 . S
N1052 C1056 1.362 . S
C1053 C1054 1.258 . S
C1053 C1056 1.431 . S
C1053 C1073 1.449 . S
C1054 C1053 1.258 . S
C1054 C1055 1.477 . S
C1054 H1074 0.931 . S
C1055 C1051 1.460 . S
C1055 C1054 1.477 . S
C1055 H1075 0.930 . S
C1056 N1052 1.362 . S
C1056 C1053 1.431 . S
C1056 C1066 1.476 . S
H1057 C1051 0.929 . S
C1058 O1049 1.250 . S
C1058 O1050 1.258 . S
O1059 Mn1044 2.162 . S
O1059 C1047 1.281 . S
O1060 Mn1044 2.297 . S
O1060 C1047 1.236 . S
N1061 Mn1045 2.282 . S
N1061 C1062 1.328 . S
N1061 C1066 1.318 . S
C1062 N1061 1.328 . S
C1062 C1063 1.457 . S
C1062 H1067 0.929 . S
C1063 C1062 1.457 . S
C1063 C1064 1.291 . S
C1063 H1076 0.931 . S
C1064 C1063 1.291 . S
C1064 C1065 1.373 . S
C1064 H1077 0.929 . S
C1065 C1064 1.373 . S
C1065 C1066 1.396 . S
C1065 C1072 1.403 . S
C1066 C1056 1.476 . S
C1066 N1061 1.318 . S
C1066 C1065 1.396 . S
H1067 C1062 0.929 . S
O1068 Mn1044 2.385 . S
O1068 C1046 1.234 . S
O1069 Mn1044 2.209 . S
O1069 Mn1045 2.215 . S
O1069 C1046 1.283 . S
O1070 Mn1044 2.094 . S
O1070 C1048 1.240 . S
O1071 Mn1045 2.117 . S
O1071 C1048 1.264 . S
C1072 C1065 1.403 . S
C1072 C1073 1.399 . S
C1072 H1078 0.929 . S
C1073 C1053 1.449 . S
C1073 C1072 1.399 . S
C1073 H1079 0.930 . S
H1074 C1054 0.931 . S
H1075 C1055 0.930 . S
H1076 C1063 0.931 . S
H1077 C1064 0.929 . S
H1078 C1072 0.929 . S
H1079 C1073 0.930 . S
Mn1080 O1085 2.095 . S
Mn1080 O1095 2.162 . S
Mn1080 O1096 2.297 . S
Mn1080 O1104 2.385 . S
Mn1080 O1105 2.209 . S
Mn1080 O1106 2.094 . S
Mn1081 O1086 2.121 . S
Mn1081 N1088 2.257 . S
Mn1081 N1097 2.282 . S
Mn1081 O1105 2.215 . S
Mn1081 O1107 2.117 . S
C1082 O1104 1.234 . S
C1082 O1105 1.283 . S
C1083 O1095 1.281 . S
C1083 O1096 1.236 . S
C1084 O1106 1.240 . S
C1084 O1107 1.264 . S
O1085 Mn1080 2.095 . S
O1085 C1094 1.250 . S
O1086 Mn1081 2.121 . S
O1086 C1094 1.258 . S
C1087 N1088 1.326 . S
C1087 C1091 1.460 . S
C1087 H1093 0.929 . S
N1088 Mn1081 2.257 . S
N1088 C1087 1.326 . S
N1088 C1092 1.362 . S
C1089 C1090 1.258 . S
C1089 C1092 1.431 . S
C1089 C1109 1.449 . S
C1090 C1089 1.258 . S
C1090 C1091 1.477 . S
C1090 H1110 0.931 . S
C1091 C1087 1.460 . S
C1091 C1090 1.477 . S
C1091 H1111 0.930 . S
C1092 N1088 1.362 . S
C1092 C1089 1.431 . S
C1092 C1102 1.476 . S
H1093 C1087 0.929 . S
C1094 O1085 1.250 . S
C1094 O1086 1.258 . S
O1095 Mn1080 2.162 . S
O1095 C1083 1.281 . S
O1096 Mn1080 2.297 . S
O1096 C1083 1.236 . S
N1097 Mn1081 2.282 . S
N1097 C1098 1.328 . S
N1097 C1102 1.318 . S
C1098 N1097 1.328 . S
C1098 C1099 1.457 . S
C1098 H1103 0.929 . S
C1099 C1098 1.457 . S
C1099 C1100 1.291 . S
C1099 H1112 0.963 . S
C1100 C1099 1.291 . S
C1100 C1101 1.373 . S
C1100 H1113 0.929 . S
C1101 C1100 1.373 . S
C1101 C1102 1.396 . S
C1101 C1108 1.403 . S
C1102 C1092 1.476 . S
C1102 N1097 1.318 . S
C1102 C1101 1.396 . S
H1103 C1098 0.929 . S
O1104 Mn1080 2.385 . S
O1104 C1082 1.234 . S
O1105 Mn1080 2.209 . S
O1105 Mn1081 2.215 . S
O1105 C1082 1.283 . S
O1106 Mn1080 2.094 . S
O1106 C1084 1.240 . S
O1107 Mn1081 2.117 . S
O1107 C1084 1.264 . S
C1108 C1101 1.403 . S
C1108 C1109 1.399 . S
C1108 H1114 0.929 . S
C1109 C1089 1.449 . S
C1109 C1108 1.399 . S
C1109 H1115 0.930 . S
H1110 C1090 0.931 . S
H1111 C1091 0.930 . S
H1112 C1099 0.963 . S
H1113 C1100 0.929 . S
H1114 C1108 0.929 . S
H1115 C1109 0.930 . S
Mn1116 O1121 2.095 . S
Mn1116 O1131 2.162 . S
Mn1116 O1132 2.297 . S
Mn1116 O1140 2.385 . S
Mn1116 O1141 2.209 . S
Mn1116 O1142 2.094 . S
Mn1117 O1122 2.121 . S
Mn1117 N1124 2.257 . S
Mn1117 N1133 2.282 . S
Mn1117 O1141 2.215 . S
Mn1117 O1143 2.117 . S
C1118 O1140 1.234 . S
C1118 O1141 1.283 . S
C1119 O1131 1.281 . S
C1119 O1132 1.236 . S
C1120 O1142 1.240 . S
C1120 O1143 1.264 . S
O1121 Mn1116 2.095 . S
O1121 C1130 1.250 . S
O1122 Mn1117 2.121 . S
O1122 C1130 1.258 . S
C1123 N1124 1.326 . S
C1123 C1127 1.460 . S
C1123 H1129 0.929 . S
N1124 Mn1117 2.257 . S
N1124 C1123 1.326 . S
N1124 C1128 1.362 . S
C1125 C1126 1.258 . S
C1125 C1128 1.431 . S
C1125 C1145 1.449 . S
C1126 C1125 1.258 . S
C1126 C1127 1.477 . S
C1126 H1146 0.931 . S
C1127 C1123 1.460 . S
C1127 C1126 1.477 . S
C1127 H1147 0.930 . S
C1128 N1124 1.362 . S
C1128 C1125 1.431 . S
C1128 C1138 1.476 . S
H1129 C1123 0.929 . S
C1130 O1121 1.250 . S
C1130 O1122 1.258 . S
O1131 Mn1116 2.162 . S
O1131 C1119 1.281 . S
O1132 Mn1116 2.297 . S
O1132 C1119 1.236 . S
N1133 Mn1117 2.282 . S
N1133 C1134 1.328 . S
N1133 C1138 1.318 . S
C1134 N1133 1.328 . S
C1134 C1135 1.457 . S
C1134 H1139 0.929 . S
C1135 C1134 1.457 . S
C1135 C1136 1.291 . S
C1135 H1148 0.931 . S
C1136 C1135 1.291 . S
C1136 C1137 1.373 . S
C1136 H1149 0.929 . S
C1137 C1136 1.373 . S
C1137 C1138 1.396 . S
C1137 C1144 1.403 . S
C1138 C1128 1.476 . S
C1138 N1133 1.318 . S
C1138 C1137 1.396 . S
H1139 C1134 0.929 . S
O1140 Mn1116 2.385 . S
O1140 C1118 1.234 . S
O1141 Mn1116 2.209 . S
O1141 Mn1117 2.215 . S
O1141 C1118 1.283 . S
O1142 Mn1116 2.094 . S
O1142 C1120 1.240 . S
O1143 Mn1117 2.117 . S
O1143 C1120 1.264 . S
C1144 C1137 1.403 . S
C1144 C1145 1.399 . S
C1144 H1150 0.929 . S
C1145 C1125 1.449 . S
C1145 C1144 1.399 . S
C1145 H1151 0.930 . S
H1146 C1126 0.931 . S
H1147 C1127 0.930 . S
H1148 C1135 0.931 . S
H1149 C1136 0.929 . S
H1150 C1144 0.929 . S
H1151 C1145 0.930 . S
H1152 C1160 0.929 . S
H1153 C1162 0.930 . S
H1154 C1164 0.930 1_554 S
H1155 C1167 0.929 . S
H1156 C1170 0.930 . S
H1157 C1172 0.977 . S
H1158 C1172 0.960 . S
H1159 C1172 0.972 . S
C1160 H1152 0.929 . S
C1160 C1161 1.377 . S
C1160 C1162 1.384 . S
C1161 C1160 1.377 . S
C1161 C1167 1.390 . S
C1162 H1153 0.930 . S
C1162 C1160 1.384 . S
C1162 C1163 1.372 . S
C1163 C1162 1.372 . S
C1163 C1164 1.400 . S
C1163 C1168 1.490 . S
C1164 H1154 0.930 1_556 S
C1164 C1163 1.400 . S
C1164 C1167 1.386 . S
H1165 C1181 0.930 . S
H1166 C1182 0.931 . S
C1167 H1155 0.929 . S
C1167 C1161 1.390 . S
C1167 C1164 1.386 . S
C1168 C1163 1.490 . S
C1168 C1170 1.395 1_655 S
C1168 C1171 1.403 . S
H1169 C1175 0.930 . S
C1170 H1156 0.930 . S
C1170 C1168 1.395 1_455 S
C1170 C1173 1.361 1_556 S
C1171 C1168 1.403 . S
C1171 C1172 1.524 . S
C1171 C1175 1.400 1_556 S
C1172 H1157 0.977 . S
C1172 H1158 0.960 . S
C1172 H1159 0.972 . S
C1172 C1171 1.524 . S
C1173 C1170 1.361 1_554 S
C1173 C1174 1.429 . S
C1173 C1177 1.510 . S
C1174 C1173 1.429 . S
C1174 C1175 1.385 1_455 S
C1174 C1176 1.478 . S
C1175 H1169 0.930 . S
C1175 C1171 1.400 1_554 S
C1175 C1174 1.385 1_655 S
C1176 C1174 1.478 . S
C1176 C1178 1.381 . S
C1176 C1182 1.383 . S
C1177 C1173 1.510 . S
C1177 H1183 0.921 1_554 S
C1177 H1184 0.961 . S
C1177 H1185 0.960 1_554 S
C1178 C1176 1.381 . S
C1178 C1179 1.394 . S
C1178 H1186 0.930 1_554 S
C1179 C1178 1.394 . S
C1179 C1180 1.383 . S
C1179 H1187 0.929 . S
C1180 C1179 1.383 . S
C1180 C1181 1.377 . S
C1181 H1165 0.930 . S
C1181 C1180 1.377 . S
C1181 C1182 1.379 . S
C1182 H1166 0.931 . S
C1182 C1176 1.383 . S
C1182 C1181 1.379 . S
H1183 C1177 0.921 1_556 S
H1184 C1177 0.961 . S
H1185 C1177 0.960 1_556 S
H1186 C1178 0.930 1_556 S
H1187 C1179 0.929 . S
H1188 C1196 0.929 . S
H1189 C1198 0.930 . S
H1190 C1200 0.930 . S
H1191 C1203 0.929 . S
H1192 C1206 0.930 . S
H1193 C1208 0.960 . S
H1194 C1208 0.960 . S
H1195 C1208 0.960 . S
C1196 H1188 0.929 . S
C1196 C1197 1.377 . S
C1196 C1198 1.384 . S
C1197 C1196 1.377 . S
C1197 C1203 1.390 . S
C1198 H1189 0.930 . S
C1198 C1196 1.384 . S
C1198 C1199 1.372 . S
C1199 C1198 1.372 . S
C1199 C1200 1.400 . S
C1199 C1204 1.490 . S
C1200 H1190 0.930 . S
C1200 C1199 1.400 . S
C1200 C1203 1.386 . S
H1201 C1217 0.930 . S
H1202 C1218 0.931 . S
C1203 H1191 0.929 . S
C1203 C1197 1.390 . S
C1203 C1200 1.386 . S
C1204 C1199 1.490 . S
C1204 C1206 1.395 . S
C1204 C1207 1.403 . S
H1205 C1211 0.930 . S
C1206 H1192 0.930 . S
C1206 C1204 1.395 . S
C1206 C1209 1.403 . S
C1207 C1204 1.403 . S
C1207 C1208 1.524 . S
C1207 C1211 1.400 . S
C1208 H1193 0.960 . S
C1208 H1194 0.960 . S
C1208 H1195 0.960 . S
C1208 C1207 1.524 . S
C1209 C1206 1.403 . S
C1209 C1210 1.392 . S
C1209 C1213 1.495 . S
C1210 C1209 1.392 . S
C1210 C1211 1.385 . S
C1210 C1212 1.478 . S
C1211 H1205 0.930 . S
C1211 C1207 1.400 . S
C1211 C1210 1.385 . S
C1212 C1210 1.478 . S
C1212 C1214 1.381 . S
C1212 C1218 1.383 . S
C1213 C1209 1.495 . S
C1213 H1219 0.959 . S
C1213 H1220 0.961 . S
C1213 H1221 0.960 . S
C1214 C1212 1.381 . S
C1214 C1215 1.394 . S
C1214 H1222 0.930 . S
C1215 C1214 1.394 . S
C1215 C1216 1.383 . S
C1215 H1223 0.929 . S
C1216 C1215 1.383 . S
C1216 C1217 1.377 . S
C1217 H1201 0.930 . S
C1217 C1216 1.377 . S
C1217 C1218 1.379 . S
C1218 H1202 0.931 . S
C1218 C1212 1.383 . S
C1218 C1217 1.379 . S
H1219 C1213 0.959 . S
H1220 C1213 0.961 . S
H1221 C1213 0.960 . S
H1222 C1214 0.930 . S
H1223 C1215 0.929 . S
H1224 C1232 0.929 . S
H1225 C1234 0.930 . S
H1226 C1236 0.930 . S
H1227 C1239 0.929 . S
H1228 C1242 0.930 . S
H1229 C1244 0.960 . S
H1230 C1244 0.960 . S
H1231 C1244 0.960 . S
C1232 H1224 0.929 . S
C1232 C1233 1.377 . S
C1232 C1234 1.384 . S
C1233 C1232 1.377 . S
C1233 C1239 1.390 . S
C1234 H1225 0.930 . S
C1234 C1232 1.384 . S
C1234 C1235 1.372 . S
C1235 C1234 1.372 . S
C1235 C1236 1.400 . S
C1235 C1240 1.490 . S
C1236 H1226 0.930 . S
C1236 C1235 1.400 . S
C1236 C1239 1.386 . S
H1237 C1253 0.930 . S
H1238 C1254 0.931 . S
C1239 H1227 0.929 . S
C1239 C1233 1.390 . S
C1239 C1236 1.386 . S
C1240 C1235 1.490 . S
C1240 C1242 1.395 . S
C1240 C1243 1.403 . S
H1241 C1247 0.930 . S
C1242 H1228 0.930 . S
C1242 C1240 1.395 . S
C1242 C1245 1.403 . S
C1243 C1240 1.403 . S
C1243 C1244 1.524 . S
C1243 C1247 1.400 . S
C1244 H1229 0.960 . S
C1244 H1230 0.960 . S
C1244 H1231 0.960 . S
C1244 C1243 1.524 . S
C1245 C1242 1.403 . S
C1245 C1246 1.392 . S
C1245 C1249 1.495 . S
C1246 C1245 1.392 . S
C1246 C1247 1.385 . S
C1246 C1248 1.478 . S
C1247 H1241 0.930 . S
C1247 C1243 1.400 . S
C1247 C1246 1.385 . S
C1248 C1246 1.478 . S
C1248 C1250 1.381 . S
C1248 C1254 1.383 . S
C1249 C1245 1.495 . S
C1249 H1255 0.959 . S
C1249 H1256 0.961 . S
C1249 H1257 0.960 . S
C1250 C1248 1.381 . S
C1250 C1251 1.394 . S
C1250 H1258 0.930 . S
C1251 C1250 1.394 . S
C1251 C1252 1.383 . S
C1251 H1259 0.929 . S
C1252 C1251 1.383 . S
C1252 C1253 1.377 . S
C1253 H1237 0.930 . S
C1253 C1252 1.377 . S
C1253 C1254 1.379 . S
C1254 H1238 0.931 . S
C1254 C1248 1.383 . S
C1254 C1253 1.379 . S
H1255 C1249 0.959 . S
H1256 C1249 0.961 . S
H1257 C1249 0.960 . S
H1258 C1250 0.930 . S
H1259 C1251 0.929 . S
H1260 C1268 0.929 . S
H1261 C1270 0.930 . S
H1262 C1272 0.930 . S
H1263 C1275 0.929 . S
H1264 C1278 0.930 . S
H1265 C1280 0.960 . S
H1266 C1280 0.960 . S
H1267 C1280 0.960 . S
C1268 H1260 0.929 . S
C1268 C1269 1.377 . S
C1268 C1270 1.384 . S
C1269 C1268 1.377 . S
C1269 C1275 1.390 . S
C1270 H1261 0.930 . S
C1270 C1268 1.384 . S
C1270 C1271 1.372 . S
C1271 C1270 1.372 . S
C1271 C1272 1.400 . S
C1271 C1276 1.490 . S
C1272 H1262 0.930 . S
C1272 C1271 1.400 . S
C1272 C1275 1.386 . S
H1273 C1289 0.930 . S
H1274 C1290 0.931 . S
C1275 H1263 0.929 . S
C1275 C1269 1.390 . S
C1275 C1272 1.386 . S
C1276 C1271 1.490 . S
C1276 C1278 1.395 . S
C1276 C1279 1.403 . S
H1277 C1283 0.930 . S
C1278 H1264 0.930 . S
C1278 C1276 1.395 . S
C1278 C1281 1.403 . S
C1279 C1276 1.403 . S
C1279 C1280 1.524 . S
C1279 C1283 1.400 . S
C1280 H1265 0.960 . S
C1280 H1266 0.960 . S
C1280 H1267 0.960 . S
C1280 C1279 1.524 . S
C1281 C1278 1.403 . S
C1281 C1282 1.392 . S
C1281 C1285 1.495 . S
C1282 C1281 1.392 . S
C1282 C1283 1.385 . S
C1282 C1284 1.478 . S
C1283 H1277 0.930 . S
C1283 C1279 1.400 . S
C1283 C1282 1.385 . S
C1284 C1282 1.478 . S
C1284 C1286 1.381 . S
C1284 C1290 1.383 . S
C1285 C1281 1.495 . S
C1285 H1291 0.959 . S
C1285 H1292 0.961 . S
C1285 H1293 0.960 . S
C1286 C1284 1.381 . S
C1286 C1287 1.394 . S
C1286 H1294 0.930 . S
C1287 C1286 1.394 . S
C1287 C1288 1.383 . S
C1287 H1295 0.929 . S
C1288 C1287 1.383 . S
C1288 C1289 1.377 . S
C1289 H1273 0.930 . S
C1289 C1288 1.377 . S
C1289 C1290 1.379 . S
C1290 H1274 0.931 . S
C1290 C1284 1.383 . S
C1290 C1289 1.379 . S
H1291 C1285 0.959 . S
H1292 C1285 0.961 . S
H1293 C1285 0.960 . S
H1294 C1286 0.930 . S
H1295 C1287 0.929 . S
H1296 C1304 0.929 . S
H1297 C1306 0.930 . S
H1298 C1308 0.930 . S
H1299 C1311 0.929 . S
H1300 C1314 0.930 . S
H1301 C1316 0.960 . S
H1302 C1316 0.960 . S
H1303 C1316 0.960 . S
C1304 H1296 0.929 . S
C1304 C1305 1.377 . S
C1304 C1306 1.384 . S
C1305 C1304 1.377 . S
C1305 C1311 1.390 . S
C1306 H1297 0.930 . S
C1306 C1304 1.384 . S
C1306 C1307 1.372 . S
C1307 C1306 1.372 . S
C1307 C1308 1.400 . S
C1307 C1312 1.490 . S
C1308 H1298 0.930 . S
C1308 C1307 1.400 . S
C1308 C1311 1.386 . S
H1309 C1325 0.930 . S
H1310 C1326 0.931 . S
C1311 H1299 0.929 . S
C1311 C1305 1.390 . S
C1311 C1308 1.386 . S
C1312 C1307 1.490 . S
C1312 C1314 1.395 1_655 S
C1312 C1315 1.403 . S
H1313 C1319 0.930 . S
C1314 H1300 0.930 . S
C1314 C1312 1.395 1_455 S
C1314 C1317 1.403 . S
C1315 C1312 1.403 . S
C1315 C1316 1.524 . S
C1315 C1319 1.400 . S
C1316 H1301 0.960 . S
C1316 H1302 0.960 . S
C1316 H1303 0.960 . S
C1316 C1315 1.524 . S
C1317 C1314 1.403 . S
C1317 C1318 1.392 . S
C1317 C1321 1.495 . S
C1318 C1317 1.392 . S
C1318 C1319 1.385 1_455 S
C1318 C1320 1.478 . S
C1319 H1313 0.930 . S
C1319 C1315 1.400 . S
C1319 C1318 1.385 1_655 S
C1320 C1318 1.478 . S
C1320 C1322 1.381 . S
C1320 C1326 1.383 . S
C1321 C1317 1.495 . S
C1321 H1327 0.959 . S
C1321 H1328 0.961 . S
C1321 H1329 0.960 . S
C1322 C1320 1.381 . S
C1322 C1323 1.394 . S
C1322 H1330 0.930 . S
C1323 C1322 1.394 . S
C1323 C1324 1.383 . S
C1323 H1331 0.929 . S
C1324 C1323 1.383 . S
C1324 C1325 1.377 . S
C1325 H1309 0.930 . S
C1325 C1324 1.377 . S
C1325 C1326 1.379 . S
C1326 H1310 0.931 . S
C1326 C1320 1.383 . S
C1326 C1325 1.379 . S
H1327 C1321 0.959 . S
H1328 C1321 0.961 . S
H1329 C1321 0.960 . S
H1330 C1322 0.930 . S
H1331 C1323 0.929 . S
H1332 C1340 0.929 . S
H1333 C1342 0.930 . S
H1334 C1344 0.930 . S
H1335 C1347 0.929 . S
H1336 C1350 0.930 . S
H1337 C1352 0.960 . S
H1338 C1352 0.960 . S
H1339 C1352 0.960 . S
C1340 H1332 0.929 . S
C1340 C1341 1.377 . S
C1340 C1342 1.384 . S
C1341 C1340 1.377 . S
C1341 C1347 1.390 . S
C1342 H1333 0.930 . S
C1342 C1340 1.384 . S
C1342 C1343 1.372 . S
C1343 C1342 1.372 . S
C1343 C1344 1.400 . S
C1343 C1348 1.490 . S
C1344 H1334 0.930 . S
C1344 C1343 1.400 . S
C1344 C1347 1.386 . S
H1345 C1361 0.930 . S
H1346 C1362 0.931 . S
C1347 H1335 0.929 . S
C1347 C1341 1.390 . S
C1347 C1344 1.386 . S
C1348 C1343 1.490 . S
C1348 C1350 1.395 . S
C1348 C1351 1.403 . S
H1349 C1355 0.930 . S
C1350 H1336 0.930 . S
C1350 C1348 1.395 . S
C1350 C1353 1.403 . S
C1351 C1348 1.403 . S
C1351 C1352 1.524 . S
C1351 C1355 1.400 . S
C1352 H1337 0.960 . S
C1352 H1338 0.960 . S
C1352 H1339 0.960 . S
C1352 C1351 1.524 . S
C1353 C1350 1.403 . S
C1353 C1354 1.392 . S
C1353 C1357 1.495 . S
C1354 C1353 1.392 . S
C1354 C1355 1.385 . S
C1354 C1356 1.478 . S
C1355 H1349 0.930 . S
C1355 C1351 1.400 . S
C1355 C1354 1.385 . S
C1356 C1354 1.478 . S
C1356 C1358 1.381 . S
C1356 C1362 1.383 . S
C1357 C1353 1.495 . S
C1357 H1363 0.959 . S
C1357 H1364 0.961 . S
C1357 H1365 0.960 . S
C1358 C1356 1.381 . S
C1358 C1359 1.394 . S
C1358 H1366 0.930 . S
C1359 C1358 1.394 . S
C1359 C1360 1.383 . S
C1359 H1367 0.929 . S
C1360 C1359 1.383 . S
C1360 C1361 1.377 . S
C1361 H1345 0.930 . S
C1361 C1360 1.377 . S
C1361 C1362 1.379 . S
C1362 H1346 0.931 . S
C1362 C1356 1.383 . S
C1362 C1361 1.379 . S
H1363 C1357 0.959 . S
H1364 C1357 0.961 . S
H1365 C1357 0.960 . S
H1366 C1358 0.930 . S
H1367 C1359 0.929 . S
H1368 C1376 0.929 . S
H1369 C1378 0.930 . S
H1370 C1380 0.930 1_554 S
H1371 C1383 0.929 . S
H1372 C1386 0.930 . S
H1373 C1388 0.960 . S
H1374 C1388 0.933 1_556 S
H1375 C1388 0.960 . S
C1376 H1368 0.929 . S
C1376 C1377 1.377 . S
C1376 C1378 1.384 . S
C1377 C1376 1.377 . S
C1377 C1383 1.390 . S
C1378 H1369 0.930 . S
C1378 C1376 1.384 . S
C1378 C1379 1.372 . S
C1379 C1378 1.372 . S
C1379 C1380 1.400 . S
C1379 C1384 1.490 . S
C1380 H1370 0.930 1_556 S
C1380 C1379 1.400 . S
C1380 C1383 1.386 . S
H1381 C1397 0.930 . S
H1382 C1398 0.931 . S
C1383 H1371 0.929 . S
C1383 C1377 1.390 . S
C1383 C1380 1.386 . S
C1384 C1379 1.490 . S
C1384 C1386 1.395 . S
C1384 C1387 1.403 1_556 S
H1385 C1391 0.930 . S
C1386 H1372 0.930 . S
C1386 C1384 1.395 . S
C1386 C1389 1.403 . S
C1387 C1384 1.403 1_554 S
C1387 C1388 1.524 . S
C1387 C1391 1.400 . S
C1388 H1373 0.960 . S
C1388 H1374 0.933 1_554 S
C1388 H1375 0.960 . S
C1388 C1387 1.524 . S
C1389 C1386 1.403 . S
C1389 C1390 1.392 1_556 S
C1389 C1393 1.495 . S
C1390 C1389 1.392 1_554 S
C1390 C1391 1.385 . S
C1390 C1392 1.478 . S
C1391 H1385 0.930 . S
C1391 C1387 1.400 . S
C1391 C1390 1.385 . S
C1392 C1390 1.478 . S
C1392 C1394 1.381 . S
C1392 C1398 1.383 . S
C1393 C1389 1.495 . S
C1393 H1399 0.959 . S
C1393 H1400 0.961 . S
C1393 H1401 0.960 . S
C1394 C1392 1.381 . S
C1394 C1395 1.394 . S
C1394 H1402 0.930 1_554 S
C1395 C1394 1.394 . S
C1395 C1396 1.383 . S
C1395 H1403 0.929 . S
C1396 C1395 1.383 . S
C1396 C1397 1.377 . S
C1397 H1381 0.930 . S
C1397 C1396 1.377 . S
C1397 C1398 1.379 . S
C1398 H1382 0.931 . S
C1398 C1392 1.383 . S
C1398 C1397 1.379 . S
H1399 C1393 0.959 . S
H1400 C1393 0.961 . S
H1401 C1393 0.960 . S
H1402 C1394 0.930 1_556 S
H1403 C1395 0.929 . S
H1404 C1412 0.929 . S
H1405 C1414 0.930 . S
H1406 C1416 0.930 . S
H1407 C1419 0.929 . S
H1408 C1422 0.930 . S
H1409 C1424 0.960 . S
H1410 C1424 0.960 . S
H1411 C1424 0.960 . S
C1412 H1404 0.929 . S
C1412 C1413 1.377 . S
C1412 C1414 1.384 . S
C1413 C1412 1.377 . S
C1413 C1419 1.390 . S
C1414 H1405 0.930 . S
C1414 C1412 1.384 . S
C1414 C1415 1.372 . S
C1415 C1414 1.372 . S
C1415 C1416 1.400 . S
C1415 C1420 1.490 . S
C1416 H1406 0.930 . S
C1416 C1415 1.400 . S
C1416 C1419 1.386 . S
H1417 C1433 0.930 . S
H1418 C1434 0.931 . S
C1419 H1407 0.929 . S
C1419 C1413 1.390 . S
C1419 C1416 1.386 . S
C1420 C1415 1.490 . S
C1420 C1422 1.395 . S
C1420 C1423 1.403 . S
H1421 C1427 0.930 . S
C1422 H1408 0.930 . S
C1422 C1420 1.395 . S
C1422 C1425 1.403 . S
C1423 C1420 1.403 . S
C1423 C1424 1.524 . S
C1423 C1427 1.400 . S
C1424 H1409 0.960 . S
C1424 H1410 0.960 . S
C1424 H1411 0.960 . S
C1424 C1423 1.524 . S
C1425 C1422 1.403 . S
C1425 C1426 1.392 . S
C1425 C1429 1.495 . S
C1426 C1425 1.392 . S
C1426 C1427 1.385 . S
C1426 C1428 1.478 . S
C1427 H1421 0.930 . S
C1427 C1423 1.400 . S
C1427 C1426 1.385 . S
C1428 C1426 1.478 . S
C1428 C1430 1.381 . S
C1428 C1434 1.383 . S
C1429 C1425 1.495 . S
C1429 H1435 0.959 . S
C1429 H1436 0.961 . S
C1429 H1437 0.960 . S
C1430 C1428 1.381 . S
C1430 C1431 1.394 . S
C1430 H1438 0.930 . S
C1431 C1430 1.394 . S
C1431 C1432 1.383 . S
C1431 H1439 0.929 . S
C1432 C1431 1.383 . S
C1432 C1433 1.377 . S
C1433 H1417 0.930 . S
C1433 C1432 1.377 . S
C1433 C1434 1.379 . S
C1434 H1418 0.931 . S
C1434 C1428 1.383 . S
C1434 C1433 1.379 . S
H1435 C1429 0.959 . S
H1436 C1429 0.961 . S
H1437 C1429 0.960 . S
H1438 C1430 0.930 . S
H1439 C1431 0.929 . S
H1440 C1448 0.929 . S
H1441 C1450 0.930 . S
H1442 C1452 0.930 . S
H1443 C1455 0.929 . S
H1444 C1458 0.930 . S
H1445 C1460 0.960 . S
H1446 C1460 0.960 . S
H1447 C1460 0.960 . S
C1448 H1440 0.929 . S
C1448 C1449 1.377 . S
C1448 C1450 1.384 . S
C1449 C1448 1.377 . S
C1449 C1455 1.390 . S
C1450 H1441 0.930 . S
C1450 C1448 1.384 . S
C1450 C1451 1.372 . S
C1451 C1450 1.372 . S
C1451 C1452 1.400 . S
C1451 C1456 1.490 . S
C1452 H1442 0.930 . S
C1452 C1451 1.400 . S
C1452 C1455 1.386 . S
H1453 C1469 0.930 . S
H1454 C1470 0.931 . S
C1455 H1443 0.929 . S
C1455 C1449 1.390 . S
C1455 C1452 1.386 . S
C1456 C1451 1.490 . S
C1456 C1458 1.395 . S
C1456 C1459 1.403 . S
H1457 C1463 0.930 . S
C1458 H1444 0.930 . S
C1458 C1456 1.395 . S
C1458 C1461 1.403 . S
C1459 C1456 1.403 . S
C1459 C1460 1.524 . S
C1459 C1463 1.400 . S
C1460 H1445 0.960 . S
C1460 H1446 0.960 . S
C1460 H1447 0.960 . S
C1460 C1459 1.524 . S
C1461 C1458 1.403 . S
C1461 C1462 1.392 . S
C1461 C1465 1.495 . S
C1462 C1461 1.392 . S
C1462 C1463 1.385 . S
C1462 C1464 1.478 . S
C1463 H1457 0.930 . S
C1463 C1459 1.400 . S
C1463 C1462 1.385 . S
C1464 C1462 1.478 . S
C1464 C1466 1.381 . S
C1464 C1470 1.383 . S
C1465 C1461 1.495 . S
C1465 H1471 0.959 . S
C1465 H1472 0.961 . S
C1465 H1473 0.960 . S
C1466 C1464 1.381 . S
C1466 C1467 1.394 . S
C1466 H1474 0.930 . S
C1467 C1466 1.394 . S
C1467 C1468 1.383 . S
C1467 H1475 0.929 . S
C1468 C1467 1.383 . S
C1468 C1469 1.377 . S
C1469 H1453 0.930 . S
C1469 C1468 1.377 . S
C1469 C1470 1.379 . S
C1470 H1454 0.931 . S
C1470 C1464 1.383 . S
C1470 C1469 1.379 . S
H1471 C1465 0.959 . S
H1472 C1465 0.961 . S
H1473 C1465 0.960 . S
H1474 C1466 0.930 . S
H1475 C1467 0.929 . S
H1476 C1484 0.929 . S
H1477 C1486 0.930 . S
H1478 C1488 0.930 . S
H1479 C1491 0.929 . S
H1480 C1494 0.930 . S
H1481 C1496 0.960 . S
H1482 C1496 0.960 . S
H1483 C1496 0.960 . S
C1484 H1476 0.929 . S
C1484 C1485 1.377 . S
C1484 C1486 1.384 . S
C1485 C1484 1.377 . S
C1485 C1491 1.390 . S
C1486 H1477 0.930 . S
C1486 C1484 1.384 . S
C1486 C1487 1.372 . S
C1487 C1486 1.372 . S
C1487 C1488 1.400 . S
C1487 C1492 1.490 . S
C1488 H1478 0.930 . S
C1488 C1487 1.400 . S
C1488 C1491 1.386 . S
H1489 C1505 0.930 . S
H1490 C1506 0.931 . S
C1491 H1479 0.929 . S
C1491 C1485 1.390 . S
C1491 C1488 1.386 . S
C1492 C1487 1.490 . S
C1492 C1494 1.395 . S
C1492 C1495 1.403 . S
H1493 C1499 0.930 . S
C1494 H1480 0.930 . S
C1494 C1492 1.395 . S
C1494 C1497 1.403 . S
C1495 C1492 1.403 . S
C1495 C1496 1.524 . S
C1495 C1499 1.400 . S
C1496 H1481 0.960 . S
C1496 H1482 0.960 . S
C1496 H1483 0.960 . S
C1496 C1495 1.524 . S
C1497 C1494 1.403 . S
C1497 C1498 1.392 . S
C1497 C1501 1.495 . S
C1498 C1497 1.392 . S
C1498 C1499 1.385 . S
C1498 C1500 1.478 . S
C1499 H1493 0.930 . S
C1499 C1495 1.400 . S
C1499 C1498 1.385 . S
C1500 C1498 1.478 . S
C1500 C1502 1.381 . S
C1500 C1506 1.383 . S
C1501 C1497 1.495 . S
C1501 H1507 0.959 . S
C1501 H1508 0.961 . S
C1501 H1509 0.960 . S
C1502 C1500 1.381 . S
C1502 C1503 1.394 . S
C1502 H1510 0.930 . S
C1503 C1502 1.394 . S
C1503 C1504 1.383 . S
C1503 H1511 0.929 . S
C1504 C1503 1.383 . S
C1504 C1505 1.377 . S
C1505 H1489 0.930 . S
C1505 C1504 1.377 . S
C1505 C1506 1.379 . S
C1506 H1490 0.931 . S
C1506 C1500 1.383 . S
C1506 C1505 1.379 . S
H1507 C1501 0.959 . S
H1508 C1501 0.961 . S
H1509 C1501 0.960 . S
H1510 C1502 0.930 . S
H1511 C1503 0.929 . S
H1512 C1520 0.929 . S
H1513 C1522 0.930 . S
H1514 C1524 0.930 . S
H1515 C1527 0.929 . S
H1516 C1530 0.930 . S
H1517 C1532 0.960 . S
H1518 C1532 0.960 . S
H1519 C1532 0.960 . S
C1520 H1512 0.929 . S
C1520 C1521 1.377 . S
C1520 C1522 1.384 . S
C1521 C1520 1.377 . S
C1521 C1527 1.390 . S
C1522 H1513 0.930 . S
C1522 C1520 1.384 . S
C1522 C1523 1.372 . S
C1523 C1522 1.372 . S
C1523 C1524 1.400 . S
C1523 C1528 1.490 . S
C1524 H1514 0.930 . S
C1524 C1523 1.400 . S
C1524 C1527 1.386 . S
H1525 C1541 0.930 . S
H1526 C1542 0.931 . S
C1527 H1515 0.929 . S
C1527 C1521 1.390 . S
C1527 C1524 1.386 . S
C1528 C1523 1.490 . S
C1528 C1530 1.395 . S
C1528 C1531 1.403 . S
H1529 C1535 0.930 . S
C1530 H1516 0.930 . S
C1530 C1528 1.395 . S
C1530 C1533 1.403 . S
C1531 C1528 1.403 . S
C1531 C1532 1.524 . S
C1531 C1535 1.400 . S
C1532 H1517 0.960 . S
C1532 H1518 0.960 . S
C1532 H1519 0.960 . S
C1532 C1531 1.524 . S
C1533 C1530 1.403 . S
C1533 C1534 1.392 . S
C1533 C1537 1.495 . S
C1534 C1533 1.392 . S
C1534 C1535 1.385 . S
C1534 C1536 1.478 . S
C1535 H1529 0.930 . S
C1535 C1531 1.400 . S
C1535 C1534 1.385 . S
C1536 C1534 1.478 . S
C1536 C1538 1.381 . S
C1536 C1542 1.383 . S
C1537 C1533 1.495 . S
C1537 H1543 0.959 . S
C1537 H1544 0.961 . S
C1537 H1545 0.960 . S
C1538 C1536 1.381 . S
C1538 C1539 1.394 . S
C1538 H1546 0.930 . S
C1539 C1538 1.394 . S
C1539 C1540 1.383 . S
C1539 H1547 0.929 . S
C1540 C1539 1.383 . S
C1540 C1541 1.377 . S
C1541 H1525 0.930 . S
C1541 C1540 1.377 . S
C1541 C1542 1.379 . S
C1542 H1526 0.931 . S
C1542 C1536 1.383 . S
C1542 C1541 1.379 . S
H1543 C1537 0.959 . S
H1544 C1537 0.961 . S
H1545 C1537 0.960 . S
H1546 C1538 0.930 . S
H1547 C1539 0.929 . S
H1548 C1556 0.929 . S
H1549 C1558 0.930 . S
H1550 C1560 0.930 . S
H1551 C1563 0.929 . S
H1552 C1566 0.930 . S
H1553 C1568 0.960 . S
H1554 C1568 0.960 . S
H1555 C1568 0.960 . S
C1556 H1548 0.929 . S
C1556 C1557 1.377 . S
C1556 C1558 1.384 . S
C1557 C1556 1.377 . S
C1557 C1563 1.390 . S
C1558 H1549 0.930 . S
C1558 C1556 1.384 . S
C1558 C1559 1.372 . S
C1559 C1558 1.372 . S
C1559 C1560 1.400 . S
C1559 C1564 1.490 . S
C1560 H1550 0.930 . S
C1560 C1559 1.400 . S
C1560 C1563 1.386 . S
H1561 C1577 0.930 . S
H1562 C1578 0.931 . S
C1563 H1551 0.929 . S
C1563 C1557 1.390 . S
C1563 C1560 1.386 . S
C1564 C1559 1.490 . S
C1564 C1566 1.395 . S
C1564 C1567 1.403 . S
H1565 C1571 0.930 . S
C1566 H1552 0.930 . S
C1566 C1564 1.395 . S
C1566 C1569 1.403 . S
C1567 C1564 1.403 . S
C1567 C1568 1.524 . S
C1567 C1571 1.400 . S
C1568 H1553 0.960 . S
C1568 H1554 0.960 . S
C1568 H1555 0.960 . S
C1568 C1567 1.524 . S
C1569 C1566 1.403 . S
C1569 C1570 1.392 . S
C1569 C1573 1.495 . S
C1570 C1569 1.392 . S
C1570 C1571 1.385 . S
C1570 C1572 1.478 . S
C1571 H1565 0.930 . S
C1571 C1567 1.400 . S
C1571 C1570 1.385 . S
C1572 C1570 1.478 . S
C1572 C1574 1.381 . S
C1572 C1578 1.383 . S
C1573 C1569 1.495 . S
C1573 H1579 0.959 . S
C1573 H1580 0.961 . S
C1573 H1581 0.960 . S
C1574 C1572 1.381 . S
C1574 C1575 1.394 . S
C1574 H1582 0.930 . S
C1575 C1574 1.394 . S
C1575 C1576 1.383 . S
C1575 H1583 0.929 . S
C1576 C1575 1.383 . S
C1576 C1577 1.377 . S
C1577 H1561 0.930 . S
C1577 C1576 1.377 . S
C1577 C1578 1.379 . S
C1578 H1562 0.931 . S
C1578 C1572 1.383 . S
C1578 C1577 1.379 . S
H1579 C1573 0.959 . S
H1580 C1573 0.961 . S
H1581 C1573 0.960 . S
H1582 C1574 0.930 . S
H1583 C1575 0.929 . S
H1584 C1592 0.929 . S
H1585 C1594 0.930 . S
H1586 C1596 0.930 . S
H1587 C1599 0.929 . S
H1588 C1602 0.930 . S
H1589 C1604 0.960 . S
H1590 C1604 0.960 . S
H1591 C1604 0.960 . S
C1592 H1584 0.929 . S
C1592 C1593 1.377 . S
C1592 C1594 1.384 . S
C1593 C1592 1.377 . S
C1593 C1599 1.390 . S
C1594 H1585 0.930 . S
C1594 C1592 1.384 . S
C1594 C1595 1.372 . S
C1595 C1594 1.372 . S
C1595 C1596 1.400 . S
C1595 C1600 1.490 . S
C1596 H1586 0.930 . S
C1596 C1595 1.400 . S
C1596 C1599 1.386 . S
H1597 C1613 0.930 . S
H1598 C1614 0.931 . S
C1599 H1587 0.929 . S
C1599 C1593 1.390 . S
C1599 C1596 1.386 . S
C1600 C1595 1.490 . S
C1600 C1602 1.395 1_565 S
C1600 C1603 1.403 . S
H1601 C1607 0.930 . S
C1602 H1588 0.930 . S
C1602 C1600 1.395 1_545 S
C1602 C1605 1.403 . S
C1603 C1600 1.403 . S
C1603 C1604 1.524 . S
C1603 C1607 1.400 . S
C1604 H1589 0.960 . S
C1604 H1590 0.960 . S
C1604 H1591 0.960 . S
C1604 C1603 1.524 . S
C1605 C1602 1.403 . S
C1605 C1606 1.392 . S
C1605 C1609 1.495 . S
C1606 C1605 1.392 . S
C1606 C1607 1.385 1_545 S
C1606 C1608 1.478 . S
C1607 H1601 0.930 . S
C1607 C1603 1.400 . S
C1607 C1606 1.385 1_565 S
C1608 C1606 1.478 . S
C1608 C1610 1.381 . S
C1608 C1614 1.383 . S
C1609 C1605 1.495 . S
C1609 H1615 0.959 . S
C1609 H1616 0.961 . S
C1609 H1617 0.960 . S
C1610 C1608 1.381 . S
C1610 C1611 1.394 . S
C1610 H1618 0.930 . S
C1611 C1610 1.394 . S
C1611 C1612 1.383 . S
C1611 H1619 0.929 . S
C1612 C1611 1.383 . S
C1612 C1613 1.377 . S
C1613 H1597 0.930 . S
C1613 C1612 1.377 . S
C1613 C1614 1.379 . S
C1614 H1598 0.931 . S
C1614 C1608 1.383 . S
C1614 C1613 1.379 . S
H1615 C1609 0.959 . S
H1616 C1609 0.961 . S
H1617 C1609 0.960 . S
H1618 C1610 0.930 . S
H1619 C1611 0.929 . S
H1620 C1628 0.929 . S
H1621 C1630 0.930 . S
H1622 C1632 0.930 . S
H1623 C1635 0.929 . S
H1624 C1638 0.930 . S
H1625 C1640 0.960 . S
H1626 C1640 0.960 . S
H1627 C1640 0.960 . S
C1628 H1620 0.929 . S
C1628 C1629 1.377 . S
C1628 C1630 1.384 . S
C1629 C1628 1.377 . S
C1629 C1635 1.390 . S
C1630 H1621 0.930 . S
C1630 C1628 1.384 . S
C1630 C1631 1.372 . S
C1631 C1630 1.372 . S
C1631 C1632 1.400 . S
C1631 C1636 1.490 . S
C1632 H1622 0.930 . S
C1632 C1631 1.400 . S
C1632 C1635 1.386 . S
H1633 C1649 0.930 . S
H1634 C1650 0.931 . S
C1635 H1623 0.929 . S
C1635 C1629 1.390 . S
C1635 C1632 1.386 . S
C1636 C1631 1.490 . S
C1636 C1638 1.395 1_565 S
C1636 C1639 1.403 1_556 S
H1637 C1643 0.929 . S
C1638 H1624 0.930 . S
C1638 C1636 1.395 1_545 S
C1638 C1641 1.403 1_455 S
C1639 C1636 1.403 1_554 S
C1639 C1640 1.524 . S
C1639 C1643 1.368 1_465 S
C1640 H1625 0.960 . S
C1640 H1626 0.960 . S
C1640 H1627 0.960 . S
C1640 C1639 1.524 . S
C1641 C1638 1.403 1_655 S
C1641 C1642 1.392 1_556 S
C1641 C1645 1.495 . S
C1642 C1641 1.392 1_554 S
C1642 C1643 1.421 . S
C1642 C1644 1.478 . S
C1643 H1637 0.929 . S
C1643 C1639 1.368 1_645 S
C1643 C1642 1.421 . S
C1644 C1642 1.478 . S
C1644 C1646 1.381 . S
C1644 C1650 1.383 . S
C1645 C1641 1.495 . S
C1645 H1651 0.959 . S
C1645 H1652 0.961 . S
C1645 H1653 0.960 . S
C1646 C1644 1.381 . S
C1646 C1647 1.394 . S
C1646 H1654 0.930 . S
C1647 C1646 1.394 . S
C1647 C1648 1.383 . S
C1647 H1655 0.929 . S
C1648 C1647 1.383 . S
C1648 C1649 1.377 . S
C1649 H1633 0.930 . S
C1649 C1648 1.377 . S
C1649 C1650 1.379 . S
C1650 H1634 0.931 . S
C1650 C1644 1.383 . S
C1650 C1649 1.379 . S
H1651 C1645 0.959 . S
H1652 C1645 0.961 . S
H1653 C1645 0.960 . S
H1654 C1646 0.930 . S
H1655 C1647 0.929 . S
H1656 C1664 0.929 . S
H1657 C1666 0.911 1_554 S
H1658 C1668 0.930 . S
H1659 C1671 0.929 . S
H1660 C1674 0.930 . S
H1661 C1676 0.960 1_554 S
H1662 C1676 0.960 1_554 S
H1663 C1676 0.960 . S
C1664 H1656 0.929 . S
C1664 C1665 1.377 . S
C1664 C1666 1.384 . S
C1665 C1664 1.377 . S
C1665 C1671 1.390 . S
C1666 H1657 0.911 1_556 S
C1666 C1664 1.384 . S
C1666 C1667 1.372 . S
C1667 C1666 1.372 . S
C1667 C1668 1.400 . S
C1667 C1672 1.490 . S
C1668 H1658 0.930 . S
C1668 C1667 1.400 . S
C1668 C1671 1.386 . S
H1669 C1685 0.930 . S
H1670 C1686 0.931 1_556 S
C1671 H1659 0.929 . S
C1671 C1665 1.390 . S
C1671 C1668 1.386 . S
C1672 C1667 1.490 . S
C1672 C1674 1.395 . S
C1672 C1675 1.436 1_545 S
H1673 C1679 0.930 . S
C1674 H1660 0.930 . S
C1674 C1672 1.395 . S
C1674 C1677 1.403 1_556 S
C1675 C1672 1.436 1_565 S
C1675 C1676 1.531 . S
C1675 C1679 1.364 1_556 S
C1676 H1661 0.960 1_556 S
C1676 H1662 0.960 1_556 S
C1676 H1663 0.960 . S
C1676 C1675 1.531 . S
C1677 C1674 1.403 1_554 S
C1677 C1678 1.392 1_545 S
C1677 C1681 1.495 . S
C1678 C1677 1.392 1_565 S
C1678 C1679 1.385 . S
C1678 C1680 1.478 . S
C1679 H1673 0.930 . S
C1679 C1675 1.364 1_554 S
C1679 C1678 1.385 . S
C1680 C1678 1.478 . S
C1680 C1682 1.381 . S
C1680 C1686 1.383 . S
C1681 C1677 1.495 . S
C1681 H1687 0.949 1_554 S
C1681 H1688 0.961 1_554 S
C1681 H1689 0.960 . S
C1682 C1680 1.381 . S
C1682 C1683 1.394 . S
C1682 H1690 0.930 . S
C1683 C1682 1.394 . S
C1683 C1684 1.383 . S
C1683 H1691 0.929 . S
C1684 C1683 1.383 . S
C1684 C1685 1.377 . S
C1685 H1669 0.930 . S
C1685 C1684 1.377 . S
C1685 C1686 1.379 . S
C1686 H1670 0.931 1_554 S
C1686 C1680 1.383 . S
C1686 C1685 1.379 . S
H1687 C1681 0.949 1_556 S
H1688 C1681 0.961 1_556 S
H1689 C1681 0.960 . S
H1690 C1682 0.930 . S
H1691 C1683 0.929 . S
H1692 C1700 0.929 . S
H1693 C1702 0.930 . S
H1694 C1704 0.930 . S
H1695 C1707 0.929 . S
H1696 C1710 0.930 . S
H1697 C1712 0.960 . S
H1698 C1712 0.960 . S
H1699 C1712 0.960 . S
C1700 H1692 0.929 . S
C1700 C1701 1.377 . S
C1700 C1702 1.384 . S
C1701 C1700 1.377 . S
C1701 C1707 1.390 . S
C1702 H1693 0.930 . S
C1702 C1700 1.384 . S
C1702 C1703 1.372 . S
C1703 C1702 1.372 . S
C1703 C1704 1.400 . S
C1703 C1708 1.490 . S
C1704 H1694 0.930 . S
C1704 C1703 1.400 . S
C1704 C1707 1.386 . S
H1705 C1721 0.930 . S
H1706 C1722 0.931 . S
C1707 H1695 0.929 . S
C1707 C1701 1.390 . S
C1707 C1704 1.386 . S
C1708 C1703 1.490 . S
C1708 C1710 1.395 1_545 S
C1708 C1711 1.403 1_455 S
H1709 C1715 0.930 . S
C1710 H1696 0.930 . S
C1710 C1708 1.395 1_565 S
C1710 C1713 1.403 . S
C1711 C1708 1.403 1_655 S
C1711 C1712 1.524 . S
C1711 C1715 1.400 . S
C1712 H1697 0.960 . S
C1712 H1698 0.960 . S
C1712 H1699 0.960 . S
C1712 C1711 1.524 . S
C1713 C1710 1.403 . S
C1713 C1714 1.392 1_455 S
C1713 C1717 1.495 . S
C1714 C1713 1.392 1_655 S
C1714 C1715 1.385 1_565 S
C1714 C1716 1.478 . S
C1715 H1709 0.930 . S
C1715 C1711 1.400 . S
C1715 C1714 1.385 1_545 S
C1716 C1714 1.478 . S
C1716 C1718 1.381 . S
C1716 C1722 1.383 . S
C1717 C1713 1.495 . S
C1717 H1723 0.959 . S
C1717 H1724 0.961 . S
C1717 H1725 0.960 . S
C1718 C1716 1.381 . S
C1718 C1719 1.394 . S
C1718 H1726 0.930 . S
C1719 C1718 1.394 . S
C1719 C1720 1.383 . S
C1719 H1727 0.929 . S
C1720 C1719 1.383 . S
C1720 C1721 1.377 . S
C1721 H1705 0.930 . S
C1721 C1720 1.377 . S
C1721 C1722 1.379 . S
C1722 H1706 0.931 . S
C1722 C1716 1.383 . S
C1722 C1721 1.379 . S
H1723 C1717 0.959 . S
H1724 C1717 0.961 . S
H1725 C1717 0.960 . S
H1726 C1718 0.930 . S
H1727 C1719 0.929 . S
H1728 C1736 0.929 . S
H1729 C1738 0.930 . S
H1730 C1740 0.930 . S
H1731 C1743 0.929 . S
H1732 C1746 0.930 . S
H1733 C1748 0.960 . S
H1734 C1748 0.960 . S
H1735 C1748 0.960 . S
C1736 H1728 0.929 . S
C1736 C1737 1.377 . S
C1736 C1738 1.384 . S
C1737 C1736 1.377 . S
C1737 C1743 1.390 . S
C1738 H1729 0.930 . S
C1738 C1736 1.384 . S
C1738 C1739 1.372 . S
C1739 C1738 1.372 . S
C1739 C1740 1.400 . S
C1739 C1744 1.490 . S
C1740 H1730 0.930 . S
C1740 C1739 1.400 . S
C1740 C1743 1.386 . S
H1741 C1757 0.930 . S
H1742 C1758 0.931 . S
C1743 H1731 0.929 . S
C1743 C1737 1.390 . S
C1743 C1740 1.386 . S
C1744 C1739 1.490 . S
C1744 C1746 1.395 . S
C1744 C1747 1.403 . S
H1745 C1751 0.930 . S
C1746 H1732 0.930 . S
C1746 C1744 1.395 . S
C1746 C1749 1.403 1_655 S
C1747 C1744 1.403 . S
C1747 C1748 1.524 . S
C1747 C1751 1.400 1_655 S
C1748 H1733 0.960 . S
C1748 H1734 0.960 . S
C1748 H1735 0.960 . S
C1748 C1747 1.524 . S
C1749 C1746 1.403 1_455 S
C1749 C1750 1.392 . S
C1749 C1753 1.495 . S
C1750 C1749 1.392 . S
C1750 C1751 1.385 . S
C1750 C1752 1.478 . S
C1751 H1745 0.930 . S
C1751 C1747 1.400 1_455 S
C1751 C1750 1.385 . S
C1752 C1750 1.478 . S
C1752 C1754 1.381 . S
C1752 C1758 1.383 . S
C1753 C1749 1.495 . S
C1753 H1759 0.959 . S
C1753 H1760 0.961 . S
C1753 H1761 0.960 . S
C1754 C1752 1.381 . S
C1754 C1755 1.394 . S
C1754 H1762 0.930 . S
C1755 C1754 1.394 . S
C1755 C1756 1.383 . S
C1755 H1763 0.929 . S
C1756 C1755 1.383 . S
C1756 C1757 1.377 . S
C1757 H1741 0.930 . S
C1757 C1756 1.377 . S
C1757 C1758 1.379 . S
C1758 H1742 0.931 . S
C1758 C1752 1.383 . S
C1758 C1757 1.379 . S
H1759 C1753 0.959 . S
H1760 C1753 0.961 . S
H1761 C1753 0.960 . S
H1762 C1754 0.930 . S
H1763 C1755 0.929 . S
H1764 C1772 0.929 . S
H1765 C1774 0.930 . S
H1766 C1776 0.930 . S
H1767 C1779 0.929 . S
H1768 C1782 0.930 . S
H1769 C1784 0.960 . S
H1770 C1784 0.960 . S
H1771 C1784 0.960 . S
C1772 H1764 0.929 . S
C1772 C1773 1.377 . S
C1772 C1774 1.384 . S
C1773 C1772 1.377 . S
C1773 C1779 1.390 . S
C1774 H1765 0.930 . S
C1774 C1772 1.384 . S
C1774 C1775 1.372 . S
C1775 C1774 1.372 . S
C1775 C1776 1.400 . S
C1775 C1780 1.490 . S
C1776 H1766 0.930 . S
C1776 C1775 1.400 . S
C1776 C1779 1.386 . S
H1777 C1793 0.930 . S
H1778 C1794 0.931 . S
C1779 H1767 0.929 . S
C1779 C1773 1.390 . S
C1779 C1776 1.386 . S
C1780 C1775 1.490 . S
C1780 C1782 1.395 1_455 S
C1780 C1783 1.403 . S
H1781 C1787 0.932 . S
C1782 H1768 0.930 . S
C1782 C1780 1.395 1_655 S
C1782 C1785 1.403 . S
C1783 C1780 1.403 . S
C1783 C1784 1.524 . S
C1783 C1787 1.400 1_455 S
C1784 H1769 0.960 . S
C1784 H1770 0.960 . S
C1784 H1771 0.960 . S
C1784 C1783 1.524 . S
C1785 C1782 1.403 . S
C1785 C1786 1.392 . S
C1785 C1789 1.495 . S
C1786 C1785 1.392 . S
C1786 C1787 1.385 . S
C1786 C1788 1.478 . S
C1787 H1781 0.932 . S
C1787 C1783 1.400 1_655 S
C1787 C1786 1.385 . S
C1788 C1786 1.478 . S
C1788 C1790 1.381 . S
C1788 C1794 1.383 . S
C1789 C1785 1.495 . S
C1789 H1795 0.959 . S
C1789 H1796 0.961 . S
C1789 H1797 0.960 . S
C1790 C1788 1.381 . S
C1790 C1791 1.394 . S
C1790 H1798 0.930 . S
C1791 C1790 1.394 . S
C1791 C1792 1.383 . S
C1791 H1799 0.929 . S
C1792 C1791 1.383 . S
C1792 C1793 1.377 . S
C1793 H1777 0.930 . S
C1793 C1792 1.377 . S
C1793 C1794 1.379 . S
C1794 H1778 0.931 . S
C1794 C1788 1.383 . S
C1794 C1793 1.379 . S
H1795 C1789 0.959 . S
H1796 C1789 0.961 . S
H1797 C1789 0.960 . S
H1798 C1790 0.930 . S
H1799 C1791 0.929 . S
H1800 C1808 0.929 . S
H1801 C1810 0.930 . S
H1802 C1812 0.930 . S
H1803 C1815 0.929 . S
H1804 C1818 0.930 . S
H1805 C1820 0.960 . S
H1806 C1820 0.960 . S
H1807 C1820 0.960 . S
C1808 H1800 0.929 . S
C1808 C1809 1.377 . S
C1808 C1810 1.384 . S
C1809 C1808 1.377 . S
C1809 C1815 1.390 . S
C1810 H1801 0.930 . S
C1810 C1808 1.384 . S
C1810 C1811 1.372 . S
C1811 C1810 1.372 . S
C1811 C1812 1.400 . S
C1811 C1816 1.490 . S
C1812 H1802 0.930 . S
C1812 C1811 1.400 . S
C1812 C1815 1.386 . S
H1813 C1829 0.930 . S
H1814 C1830 0.931 . S
C1815 H1803 0.929 . S
C1815 C1809 1.390 . S
C1815 C1812 1.386 . S
C1816 C1811 1.490 . S
C1816 C1818 1.395 . S
C1816 C1819 1.403 . S
H1817 C1823 0.930 . S
C1818 H1804 0.930 . S
C1818 C1816 1.395 . S
C1818 C1821 1.403 . S
C1819 C1816 1.403 . S
C1819 C1820 1.524 . S
C1819 C1823 1.400 . S
C1820 H1805 0.960 . S
C1820 H1806 0.960 . S
C1820 H1807 0.960 . S
C1820 C1819 1.524 . S
C1821 C1818 1.403 . S
C1821 C1822 1.392 . S
C1821 C1825 1.495 . S
C1822 C1821 1.392 . S
C1822 C1823 1.385 . S
C1822 C1824 1.478 . S
C1823 H1817 0.930 . S
C1823 C1819 1.400 . S
C1823 C1822 1.385 . S
C1824 C1822 1.478 . S
C1824 C1826 1.381 . S
C1824 C1830 1.383 . S
C1825 C1821 1.495 . S
C1825 H1831 0.959 . S
C1825 H1832 0.961 . S
C1825 H1833 0.960 . S
C1826 C1824 1.381 . S
C1826 C1827 1.394 . S
C1826 H1834 0.930 . S
C1827 C1826 1.394 . S
C1827 C1828 1.383 . S
C1827 H1835 0.929 . S
C1828 C1827 1.383 . S
C1828 C1829 1.377 . S
C1829 H1813 0.930 . S
C1829 C1828 1.377 . S
C1829 C1830 1.379 . S
C1830 H1814 0.931 . S
C1830 C1824 1.383 . S
C1830 C1829 1.379 . S
H1831 C1825 0.959 . S
H1832 C1825 0.961 . S
H1833 C1825 0.960 . S
H1834 C1826 0.930 . S
H1835 C1827 0.929 . S
H1836 C1844 0.929 . S
H1837 C1846 0.930 . S
H1838 C1848 0.930 . S
H1839 C1851 0.929 . S
H1840 C1854 0.930 . S
H1841 C1856 0.960 . S
H1842 C1856 0.960 . S
H1843 C1856 0.960 . S
C1844 H1836 0.929 . S
C1844 C1845 1.377 . S
C1844 C1846 1.384 . S
C1845 C1844 1.377 . S
C1845 C1851 1.390 . S
C1846 H1837 0.930 . S
C1846 C1844 1.384 . S
C1846 C1847 1.372 . S
C1847 C1846 1.372 . S
C1847 C1848 1.400 . S
C1847 C1852 1.490 . S
C1848 H1838 0.930 . S
C1848 C1847 1.400 . S
C1848 C1851 1.386 . S
H1849 C1865 0.930 . S
H1850 C1866 0.931 . S
C1851 H1839 0.929 . S
C1851 C1845 1.390 . S
C1851 C1848 1.386 . S
C1852 C1847 1.490 . S
C1852 C1854 1.395 . S
C1852 C1855 1.403 . S
H1853 C1859 0.930 . S
C1854 H1840 0.930 . S
C1854 C1852 1.395 . S
C1854 C1857 1.403 . S
C1855 C1852 1.403 . S
C1855 C1856 1.524 . S
C1855 C1859 1.400 . S
C1856 H1841 0.960 . S
C1856 H1842 0.960 . S
C1856 H1843 0.960 . S
C1856 C1855 1.524 . S
C1857 C1854 1.403 . S
C1857 C1858 1.392 . S
C1857 C1861 1.495 . S
C1858 C1857 1.392 . S
C1858 C1859 1.385 . S
C1858 C1860 1.478 . S
C1859 H1853 0.930 . S
C1859 C1855 1.400 . S
C1859 C1858 1.385 . S
C1860 C1858 1.478 . S
C1860 C1862 1.381 . S
C1860 C1866 1.383 . S
C1861 C1857 1.495 . S
C1861 H1867 0.959 . S
C1861 H1868 0.961 . S
C1861 H1869 0.960 . S
C1862 C1860 1.381 . S
C1862 C1863 1.394 . S
C1862 H1870 0.930 . S
C1863 C1862 1.394 . S
C1863 C1864 1.383 . S
C1863 H1871 0.929 . S
C1864 C1863 1.383 . S
C1864 C1865 1.377 . S
C1865 H1849 0.930 . S
C1865 C1864 1.377 . S
C1865 C1866 1.379 . S
C1866 H1850 0.931 . S
C1866 C1860 1.383 . S
C1866 C1865 1.379 . S
H1867 C1861 0.959 . S
H1868 C1861 0.961 . S
H1869 C1861 0.960 . S
H1870 C1862 0.930 . S
H1871 C1863 0.929 . S
H1872 C1880 0.929 . S
H1873 C1882 0.930 . S
H1874 C1884 0.930 . S
H1875 C1887 0.929 . S
H1876 C1890 0.930 . S
H1877 C1892 0.960 . S
H1878 C1892 0.960 . S
H1879 C1892 0.960 . S
C1880 H1872 0.929 . S
C1880 C1881 1.377 . S
C1880 C1882 1.384 . S
C1881 C1880 1.377 . S
C1881 C1887 1.390 . S
C1882 H1873 0.930 . S
C1882 C1880 1.384 . S
C1882 C1883 1.372 . S
C1883 C1882 1.372 . S
C1883 C1884 1.400 . S
C1883 C1888 1.490 . S
C1884 H1874 0.930 . S
C1884 C1883 1.400 . S
C1884 C1887 1.386 . S
H1885 C1901 0.930 . S
H1886 C1902 0.931 . S
C1887 H1875 0.929 . S
C1887 C1881 1.390 . S
C1887 C1884 1.386 . S
C1888 C1883 1.490 . S
C1888 C1890 1.395 1_655 S
C1888 C1891 1.403 . S
H1889 C1895 0.930 . S
C1890 H1876 0.930 . S
C1890 C1888 1.395 1_455 S
C1890 C1893 1.403 . S
C1891 C1888 1.403 . S
C1891 C1892 1.524 . S
C1891 C1895 1.400 . S
C1892 H1877 0.960 . S
C1892 H1878 0.960 . S
C1892 H1879 0.960 . S
C1892 C1891 1.524 . S
C1893 C1890 1.403 . S
C1893 C1894 1.392 . S
C1893 C1897 1.495 . S
C1894 C1893 1.392 . S
C1894 C1895 1.385 1_455 S
C1894 C1896 1.478 . S
C1895 H1889 0.930 . S
C1895 C1891 1.400 . S
C1895 C1894 1.385 1_655 S
C1896 C1894 1.478 . S
C1896 C1898 1.381 . S
C1896 C1902 1.383 . S
C1897 C1893 1.495 . S
C1897 H1903 0.959 . S
C1897 H1904 0.961 . S
C1897 H1905 0.960 . S
C1898 C1896 1.381 . S
C1898 C1899 1.394 . S
C1898 H1906 0.930 . S
C1899 C1898 1.394 . S
C1899 C1900 1.383 . S
C1899 H1907 0.929 . S
C1900 C1899 1.383 . S
C1900 C1901 1.377 . S
C1901 H1885 0.930 . S
C1901 C1900 1.377 . S
C1901 C1902 1.379 . S
C1902 H1886 0.931 . S
C1902 C1896 1.383 . S
C1902 C1901 1.379 . S
H1903 C1897 0.959 . S
H1904 C1897 0.961 . S
H1905 C1897 0.960 . S
H1906 C1898 0.930 . S
H1907 C1899 0.929 . S
H1908 C1916 0.929 . S
H1909 C1918 0.930 . S
H1910 C1920 0.930 . S
H1911 C1923 0.929 . S
H1912 C1926 0.930 . S
H1913 C1928 0.960 . S
H1914 C1928 0.960 . S
H1915 C1928 0.960 . S
C1916 H1908 0.929 . S
C1916 C1917 1.377 . S
C1916 C1918 1.384 . S
C1917 C1916 1.377 . S
C1917 C1923 1.390 . S
C1918 H1909 0.930 . S
C1918 C1916 1.384 . S
C1918 C1919 1.372 . S
C1919 C1918 1.372 . S
C1919 C1920 1.400 . S
C1919 C1924 1.490 . S
C1920 H1910 0.930 . S
C1920 C1919 1.400 . S
C1920 C1923 1.386 . S
H1921 C1937 0.930 . S
H1922 C1938 0.931 . S
C1923 H1911 0.929 . S
C1923 C1917 1.390 . S
C1923 C1920 1.386 . S
C1924 C1919 1.490 . S
C1924 C1926 1.395 . S
C1924 C1927 1.403 . S
H1925 C1931 0.930 . S
C1926 H1912 0.930 . S
C1926 C1924 1.395 . S
C1926 C1929 1.403 . S
C1927 C1924 1.403 . S
C1927 C1928 1.524 . S
C1927 C1931 1.400 . S
C1928 H1913 0.960 . S
C1928 H1914 0.960 . S
C1928 H1915 0.960 . S
C1928 C1927 1.524 . S
C1929 C1926 1.403 . S
C1929 C1930 1.392 . S
C1929 C1933 1.495 . S
C1930 C1929 1.392 . S
C1930 C1931 1.385 . S
C1930 C1932 1.478 . S
C1931 H1925 0.930 . S
C1931 C1927 1.400 . S
C1931 C1930 1.385 . S
C1932 C1930 1.478 . S
C1932 C1934 1.381 . S
C1932 C1938 1.383 . S
C1933 C1929 1.495 . S
C1933 H1939 0.959 . S
C1933 H1940 0.961 . S
C1933 H1941 0.960 . S
C1934 C1932 1.381 . S
C1934 C1935 1.394 . S
C1934 H1942 0.930 . S
C1935 C1934 1.394 . S
C1935 C1936 1.383 . S
C1935 H1943 0.929 . S
C1936 C1935 1.383 . S
C1936 C1937 1.377 . S
C1937 H1921 0.930 . S
C1937 C1936 1.377 . S
C1937 C1938 1.379 . S
C1938 H1922 0.931 . S
C1938 C1932 1.383 . S
C1938 C1937 1.379 . S
H1939 C1933 0.959 . S
H1940 C1933 0.961 . S
H1941 C1933 0.960 . S
H1942 C1934 0.930 . S
H1943 C1935 0.929 . S
H1944 C1952 0.929 . S
H1945 C1954 0.930 . S
H1946 C1956 0.930 . S
H1947 C1959 0.929 . S
H1948 C1962 0.930 . S
H1949 C1964 0.960 . S
H1950 C1964 0.960 . S
H1951 C1964 0.960 . S
C1952 H1944 0.929 . S
C1952 C1953 1.377 . S
C1952 C1954 1.384 . S
C1953 C1952 1.377 . S
C1953 C1959 1.390 . S
C1954 H1945 0.930 . S
C1954 C1952 1.384 . S
C1954 C1955 1.372 . S
C1955 C1954 1.372 . S
C1955 C1956 1.400 . S
C1955 C1960 1.490 . S
C1956 H1946 0.930 . S
C1956 C1955 1.400 . S
C1956 C1959 1.386 . S
H1957 C1973 0.930 . S
H1958 C1974 0.931 . S
C1959 H1947 0.929 . S
C1959 C1953 1.390 . S
C1959 C1956 1.386 . S
C1960 C1955 1.490 . S
C1960 C1962 1.395 . S
C1960 C1963 1.403 . S
H1961 C1967 0.930 . S
C1962 H1948 0.930 . S
C1962 C1960 1.395 . S
C1962 C1965 1.403 . S
C1963 C1960 1.403 . S
C1963 C1964 1.524 . S
C1963 C1967 1.400 . S
C1964 H1949 0.960 . S
C1964 H1950 0.960 . S
C1964 H1951 0.960 . S
C1964 C1963 1.524 . S
C1965 C1962 1.403 . S
C1965 C1966 1.392 . S
C1965 C1969 1.495 . S
C1966 C1965 1.392 . S
C1966 C1967 1.385 . S
C1966 C1968 1.478 . S
C1967 H1961 0.930 . S
C1967 C1963 1.400 . S
C1967 C1966 1.385 . S
C1968 C1966 1.478 . S
C1968 C1970 1.381 . S
C1968 C1974 1.383 . S
C1969 C1965 1.495 . S
C1969 H1975 0.959 . S
C1969 H1976 0.961 . S
C1969 H1977 0.960 . S
C1970 C1968 1.381 . S
C1970 C1971 1.394 . S
C1970 H1978 0.930 . S
C1971 C1970 1.394 . S
C1971 C1972 1.383 . S
C1971 H1979 0.929 . S
C1972 C1971 1.383 . S
C1972 C1973 1.377 . S
C1973 H1957 0.930 . S
C1973 C1972 1.377 . S
C1973 C1974 1.379 . S
C1974 H1958 0.931 . S
C1974 C1968 1.383 . S
C1974 C1973 1.379 . S
H1975 C1969 0.959 . S
H1976 C1969 0.961 . S
H1977 C1969 0.960 . S
H1978 C1970 0.930 . S
H1979 C1971 0.929 . S
H1980 C1988 0.929 . S
H1981 C1990 0.930 . S
H1982 C1992 0.930 . S
H1983 C1995 0.929 . S
H1984 C1998 0.930 . S
H1985 C2000 0.960 . S
H1986 C2000 0.960 1_455 S
H1987 C2000 0.960 . S
C1988 H1980 0.929 . S
C1988 C1989 1.377 . S
C1988 C1990 1.384 . S
C1989 C1988 1.377 . S
C1989 C1995 1.390 . S
C1990 H1981 0.930 . S
C1990 C1988 1.384 . S
C1990 C1991 1.372 . S
C1991 C1990 1.372 . S
C1991 C1992 1.400 . S
C1991 C1996 1.490 . S
C1992 H1982 0.930 . S
C1992 C1991 1.400 . S
C1992 C1995 1.386 . S
H1993 C2009 0.930 . S
H1994 C2010 0.931 . S
C1995 H1983 0.929 . S
C1995 C1989 1.390 . S
C1995 C1992 1.386 . S
C1996 C1991 1.490 . S
C1996 C1998 1.395 . S
C1996 C1999 1.359 1_455 S
H1997 C2003 0.930 . S
C1998 H1984 0.930 . S
C1998 C1996 1.395 . S
C1998 C2001 1.403 . S
C1999 C1996 1.359 1_655 S
C1999 C2000 1.531 . S
C1999 C2003 1.438 . S
C2000 H1985 0.960 . S
C2000 H1986 0.960 1_655 S
C2000 H1987 0.960 . S
C2000 C1999 1.531 . S
C2001 C1998 1.403 . S
C2001 C2002 1.392 1_455 S
C2001 C2005 1.495 . S
C2002 C2001 1.392 1_655 S
C2002 C2003 1.385 . S
C2002 C2004 1.478 . S
C2003 H1997 0.930 . S
C2003 C1999 1.438 . S
C2003 C2002 1.385 . S
C2004 C2002 1.478 . S
C2004 C2006 1.381 . S
C2004 C2010 1.383 . S
C2005 C2001 1.495 . S
C2005 H2011 0.959 . S
C2005 H2012 0.961 1_455 S
C2005 H2013 0.960 . S
C2006 C2004 1.381 . S
C2006 C2007 1.394 . S
C2006 H2014 0.930 . S
C2007 C2006 1.394 . S
C2007 C2008 1.383 . S
C2007 H2015 0.929 . S
C2008 C2007 1.383 . S
C2008 C2009 1.377 . S
C2009 H1993 0.930 . S
C2009 C2008 1.377 . S
C2009 C2010 1.379 . S
C2010 H1994 0.931 . S
C2010 C2004 1.383 . S
C2010 C2009 1.379 . S
H2011 C2005 0.959 . S
H2012 C2005 0.961 1_655 S
H2013 C2005 0.960 . S
H2014 C2006 0.930 . S
H2015 C2007 0.929 . S
H2016 C2024 0.929 . S
H2017 C2026 0.930 . S
H2018 C2028 0.930 . S
H2019 C2031 0.929 . S
H2020 C2034 0.930 . S
H2021 C2036 0.960 . S
H2022 C2036 0.960 . S
H2023 C2036 0.960 . S
C2024 H2016 0.929 . S
C2024 C2025 1.377 . S
C2024 C2026 1.384 . S
C2025 C2024 1.377 . S
C2025 C2031 1.390 . S
C2026 H2017 0.930 . S
C2026 C2024 1.384 . S
C2026 C2027 1.372 . S
C2027 C2026 1.372 . S
C2027 C2028 1.400 . S
C2027 C2032 1.490 . S
C2028 H2018 0.930 . S
C2028 C2027 1.400 . S
C2028 C2031 1.386 . S
H2029 C2045 0.930 . S
H2030 C2046 0.931 . S
C2031 H2019 0.929 . S
C2031 C2025 1.390 . S
C2031 C2028 1.386 . S
C2032 C2027 1.490 . S
C2032 C2034 1.395 . S
C2032 C2035 1.403 1_655 S
H2033 C2039 0.930 . S
C2034 H2020 0.930 . S
C2034 C2032 1.395 . S
C2034 C2037 1.403 . S
C2035 C2032 1.403 1_455 S
C2035 C2036 1.524 . S
C2035 C2039 1.400 . S
C2036 H2021 0.960 . S
C2036 H2022 0.960 . S
C2036 H2023 0.960 . S
C2036 C2035 1.524 . S
C2037 C2034 1.403 . S
C2037 C2038 1.392 1_655 S
C2037 C2041 1.495 . S
C2038 C2037 1.392 1_455 S
C2038 C2039 1.385 . S
C2038 C2040 1.478 . S
C2039 H2033 0.930 . S
C2039 C2035 1.400 . S
C2039 C2038 1.385 . S
C2040 C2038 1.478 . S
C2040 C2042 1.381 . S
C2040 C2046 1.383 . S
C2041 C2037 1.495 . S
C2041 H2047 0.959 . S
C2041 H2048 0.961 . S
C2041 H2049 0.960 . S
C2042 C2040 1.381 . S
C2042 C2043 1.394 . S
C2042 H2050 0.930 . S
C2043 C2042 1.394 . S
C2043 C2044 1.383 . S
C2043 H2051 0.929 . S
C2044 C2043 1.383 . S
C2044 C2045 1.377 . S
C2045 H2029 0.930 . S
C2045 C2044 1.377 . S
C2045 C2046 1.379 . S
C2046 H2030 0.931 . S
C2046 C2040 1.383 . S
C2046 C2045 1.379 . S
H2047 C2041 0.959 . S
H2048 C2041 0.961 . S
H2049 C2041 0.960 . S
H2050 C2042 0.930 . S
H2051 C2043 0.929 . S
H2052 C2060 0.929 . S
H2053 C2062 0.930 . S
H2054 C2064 0.930 . S
H2055 C2067 0.929 . S
H2056 C2070 0.930 . S
H2057 C2072 0.960 . S
H2058 C2072 0.960 . S
H2059 C2072 0.956 1_655 S
C2060 H2052 0.929 . S
C2060 C2061 1.377 . S
C2060 C2062 1.384 . S
C2061 C2060 1.377 . S
C2061 C2067 1.390 . S
C2062 H2053 0.930 . S
C2062 C2060 1.384 . S
C2062 C2063 1.372 . S
C2063 C2062 1.372 . S
C2063 C2064 1.400 . S
C2063 C2068 1.490 . S
C2064 H2054 0.930 . S
C2064 C2063 1.400 . S
C2064 C2067 1.386 . S
H2065 C2081 0.930 . S
H2066 C2082 0.931 . S
C2067 H2055 0.929 . S
C2067 C2061 1.390 . S
C2067 C2064 1.386 . S
C2068 C2063 1.490 . S
C2068 C2070 1.395 . S
C2068 C2071 1.403 1_655 S
H2069 C2075 0.930 . S
C2070 H2056 0.930 . S
C2070 C2068 1.395 . S
C2070 C2073 1.403 . S
C2071 C2068 1.403 1_455 S
C2071 C2072 1.524 . S
C2071 C2075 1.400 . S
C2072 H2057 0.960 . S
C2072 H2058 0.960 . S
C2072 H2059 0.956 1_455 S
C2072 C2071 1.524 . S
C2073 C2070 1.403 . S
C2073 C2074 1.392 1_655 S
C2073 C2077 1.495 . S
C2074 C2073 1.392 1_455 S
C2074 C2075 1.385 . S
C2074 C2076 1.478 . S
C2075 H2069 0.930 . S
C2075 C2071 1.400 . S
C2075 C2074 1.385 . S
C2076 C2074 1.478 . S
C2076 C2078 1.381 . S
C2076 C2082 1.383 . S
C2077 C2073 1.495 . S
C2077 H2083 0.959 . S
C2077 H2084 0.961 . S
C2077 H2085 0.960 . S
C2078 C2076 1.381 . S
C2078 C2079 1.394 . S
C2078 H2086 0.930 . S
C2079 C2078 1.394 . S
C2079 C2080 1.383 . S
C2079 H2087 0.929 . S
C2080 C2079 1.383 . S
C2080 C2081 1.377 . S
C2081 H2065 0.930 . S
C2081 C2080 1.377 . S
C2081 C2082 1.379 . S
C2082 H2066 0.931 . S
C2082 C2076 1.383 . S
C2082 C2081 1.379 . S
H2083 C2077 0.959 . S
H2084 C2077 0.961 . S
H2085 C2077 0.960 . S
H2086 C2078 0.930 . S
H2087 C2079 0.929 . S
H2088 C2096 0.929 . S
H2089 C2098 0.930 . S
H2090 C2100 0.930 . S
H2091 C2103 0.929 . S
H2092 C2106 0.930 . S
H2093 C2108 0.960 . S
H2094 C2108 0.960 . S
H2095 C2108 0.960 . S
C2096 H2088 0.929 . S
C2096 C2097 1.377 . S
C2096 C2098 1.384 . S
C2097 C2096 1.377 . S
C2097 C2103 1.390 . S
C2098 H2089 0.930 . S
C2098 C2096 1.384 . S
C2098 C2099 1.372 . S
C2099 C2098 1.372 . S
C2099 C2100 1.400 . S
C2099 C2104 1.490 . S
C2100 H2090 0.930 . S
C2100 C2099 1.400 . S
C2100 C2103 1.386 . S
H2101 C2117 0.930 . S
H2102 C2118 0.931 . S
C2103 H2091 0.929 . S
C2103 C2097 1.390 . S
C2103 C2100 1.386 . S
C2104 C2099 1.490 . S
C2104 C2106 1.395 . S
C2104 C2107 1.403 . S
H2105 C2111 0.930 . S
C2106 H2092 0.930 . S
C2106 C2104 1.395 . S
C2106 C2109 1.403 . S
C2107 C2104 1.403 . S
C2107 C2108 1.524 . S
C2107 C2111 1.400 . S
C2108 H2093 0.960 . S
C2108 H2094 0.960 . S
C2108 H2095 0.960 . S
C2108 C2107 1.524 . S
C2109 C2106 1.403 . S
C2109 C2110 1.392 . S
C2109 C2113 1.495 . S
C2110 C2109 1.392 . S
C2110 C2111 1.385 . S
C2110 C2112 1.478 . S
C2111 H2105 0.930 . S
C2111 C2107 1.400 . S
C2111 C2110 1.385 . S
C2112 C2110 1.478 . S
C2112 C2114 1.381 . S
C2112 C2118 1.383 . S
C2113 C2109 1.495 . S
C2113 H2119 0.959 . S
C2113 H2120 0.961 . S
C2113 H2121 0.960 . S
C2114 C2112 1.381 . S
C2114 C2115 1.394 . S
C2114 H2122 0.930 . S
C2115 C2114 1.394 . S
C2115 C2116 1.383 . S
C2115 H2123 0.929 . S
C2116 C2115 1.383 . S
C2116 C2117 1.377 . S
C2117 H2101 0.930 . S
C2117 C2116 1.377 . S
C2117 C2118 1.379 . S
C2118 H2102 0.931 . S
C2118 C2112 1.383 . S
C2118 C2117 1.379 . S
H2119 C2113 0.959 . S
H2120 C2113 0.961 . S
H2121 C2113 0.960 . S
H2122 C2114 0.930 . S
H2123 C2115 0.929 . S
H2124 C2132 0.929 . S
H2125 C2134 0.930 . S
H2126 C2136 0.930 . S
H2127 C2139 0.929 . S
H2128 C2142 0.930 . S
H2129 C2144 0.960 . S
H2130 C2144 0.960 . S
H2131 C2144 0.960 . S
C2132 H2124 0.929 . S
C2132 C2133 1.377 . S
C2132 C2134 1.384 . S
C2133 C2132 1.377 . S
C2133 C2139 1.390 . S
C2134 H2125 0.930 . S
C2134 C2132 1.384 . S
C2134 C2135 1.372 . S
C2135 C2134 1.372 . S
C2135 C2136 1.400 . S
C2135 C2140 1.490 . S
C2136 H2126 0.930 . S
C2136 C2135 1.400 . S
C2136 C2139 1.386 . S
H2137 C2153 0.930 . S
H2138 C2154 0.931 . S
C2139 H2127 0.929 . S
C2139 C2133 1.390 . S
C2139 C2136 1.386 . S
C2140 C2135 1.490 . S
C2140 C2142 1.395 . S
C2140 C2143 1.403 . S
H2141 C2147 0.930 . S
C2142 H2128 0.930 . S
C2142 C2140 1.395 . S
C2142 C2145 1.403 . S
C2143 C2140 1.403 . S
C2143 C2144 1.524 . S
C2143 C2147 1.400 . S
C2144 H2129 0.960 . S
C2144 H2130 0.960 . S
C2144 H2131 0.960 . S
C2144 C2143 1.524 . S
C2145 C2142 1.403 . S
C2145 C2146 1.392 . S
C2145 C2149 1.495 . S
C2146 C2145 1.392 . S
C2146 C2147 1.385 . S
C2146 C2148 1.478 . S
C2147 H2141 0.930 . S
C2147 C2143 1.400 . S
C2147 C2146 1.385 . S
C2148 C2146 1.478 . S
C2148 C2150 1.381 . S
C2148 C2154 1.383 . S
C2149 C2145 1.495 . S
C2149 H2155 0.959 . S
C2149 H2156 0.961 . S
C2149 H2157 0.960 . S
C2150 C2148 1.381 . S
C2150 C2151 1.394 . S
C2150 H2158 0.930 . S
C2151 C2150 1.394 . S
C2151 C2152 1.383 . S
C2151 H2159 0.929 . S
C2152 C2151 1.383 . S
C2152 C2153 1.377 . S
C2153 H2137 0.930 . S
C2153 C2152 1.377 . S
C2153 C2154 1.379 . S
C2154 H2138 0.931 . S
C2154 C2148 1.383 . S
C2154 C2153 1.379 . S
H2155 C2149 0.959 . S
H2156 C2149 0.961 . S
H2157 C2149 0.960 . S
H2158 C2150 0.930 . S
H2159 C2151 0.929 . S
H2160 C2168 0.929 . S
H2161 C2170 0.930 . S
H2162 C2172 0.930 . S
H2163 C2175 0.929 . S
H2164 C2178 0.930 . S
H2165 C2180 0.960 . S
H2166 C2180 0.960 . S
H2167 C2180 0.960 . S
C2168 H2160 0.929 . S
C2168 C2169 1.377 . S
C2168 C2170 1.384 . S
C2169 C2168 1.377 . S
C2169 C2175 1.390 . S
C2170 H2161 0.930 . S
C2170 C2168 1.384 . S
C2170 C2171 1.372 . S
C2171 C2170 1.372 . S
C2171 C2172 1.400 . S
C2171 C2176 1.490 . S
C2172 H2162 0.930 . S
C2172 C2171 1.400 . S
C2172 C2175 1.386 . S
H2173 C2189 0.930 . S
H2174 C2190 0.931 . S
C2175 H2163 0.929 . S
C2175 C2169 1.390 . S
C2175 C2172 1.386 . S
C2176 C2171 1.490 . S
C2176 C2178 1.395 . S
C2176 C2179 1.403 1_655 S
H2177 C2183 0.930 . S
C2178 H2164 0.930 . S
C2178 C2176 1.395 . S
C2178 C2181 1.403 . S
C2179 C2176 1.403 1_455 S
C2179 C2180 1.524 . S
C2179 C2183 1.400 . S
C2180 H2165 0.960 . S
C2180 H2166 0.960 . S
C2180 H2167 0.960 . S
C2180 C2179 1.524 . S
C2181 C2178 1.403 . S
C2181 C2182 1.392 1_655 S
C2181 C2185 1.495 . S
C2182 C2181 1.392 1_455 S
C2182 C2183 1.385 . S
C2182 C2184 1.478 . S
C2183 H2177 0.930 . S
C2183 C2179 1.400 . S
C2183 C2182 1.385 . S
C2184 C2182 1.478 . S
C2184 C2186 1.381 . S
C2184 C2190 1.383 . S
C2185 C2181 1.495 . S
C2185 H2191 0.959 . S
C2185 H2192 0.961 . S
C2185 H2193 0.960 . S
C2186 C2184 1.381 . S
C2186 C2187 1.394 . S
C2186 H2194 0.930 . S
C2187 C2186 1.394 . S
C2187 C2188 1.383 . S
C2187 H2195 0.929 . S
C2188 C2187 1.383 . S
C2188 C2189 1.377 . S
C2189 H2173 0.930 . S
C2189 C2188 1.377 . S
C2189 C2190 1.379 . S
C2190 H2174 0.931 . S
C2190 C2184 1.383 . S
C2190 C2189 1.379 . S
H2191 C2185 0.959 . S
H2192 C2185 0.961 . S
H2193 C2185 0.960 . S
H2194 C2186 0.930 . S
H2195 C2187 0.929 . S
H2196 C2204 0.929 . S
H2197 C2206 0.930 . S
H2198 C2208 0.930 . S
H2199 C2211 0.929 . S
H2200 C2214 0.930 . S
H2201 C2216 0.960 . S
H2202 C2216 0.960 . S
H2203 C2216 0.960 . S
C2204 H2196 0.929 . S
C2204 C2205 1.377 . S
C2204 C2206 1.384 . S
C2205 C2204 1.377 . S
C2205 C2211 1.390 . S
C2206 H2197 0.930 . S
C2206 C2204 1.384 . S
C2206 C2207 1.372 . S
C2207 C2206 1.372 . S
C2207 C2208 1.400 . S
C2207 C2212 1.490 . S
C2208 H2198 0.930 . S
C2208 C2207 1.400 . S
C2208 C2211 1.386 . S
H2209 C2225 0.930 . S
H2210 C2226 0.931 . S
C2211 H2199 0.929 . S
C2211 C2205 1.390 . S
C2211 C2208 1.386 . S
C2212 C2207 1.490 . S
C2212 C2214 1.395 . S
C2212 C2215 1.403 . S
H2213 C2219 0.930 . S
C2214 H2200 0.930 . S
C2214 C2212 1.395 . S
C2214 C2217 1.403 . S
C2215 C2212 1.403 . S
C2215 C2216 1.524 . S
C2215 C2219 1.400 . S
C2216 H2201 0.960 . S
C2216 H2202 0.960 . S
C2216 H2203 0.960 . S
C2216 C2215 1.524 . S
C2217 C2214 1.403 . S
C2217 C2218 1.392 . S
C2217 C2221 1.495 . S
C2218 C2217 1.392 . S
C2218 C2219 1.385 . S
C2218 C2220 1.478 . S
C2219 H2213 0.930 . S
C2219 C2215 1.400 . S
C2219 C2218 1.385 . S
C2220 C2218 1.478 . S
C2220 C2222 1.381 . S
C2220 C2226 1.383 . S
C2221 C2217 1.495 . S
C2221 H2227 0.959 . S
C2221 H2228 0.961 . S
C2221 H2229 0.960 . S
C2222 C2220 1.381 . S
C2222 C2223 1.394 . S
C2222 H2230 0.930 . S
C2223 C2222 1.394 . S
C2223 C2224 1.383 . S
C2223 H2231 0.929 . S
C2224 C2223 1.383 . S
C2224 C2225 1.377 . S
C2225 H2209 0.930 . S
C2225 C2224 1.377 . S
C2225 C2226 1.379 . S
C2226 H2210 0.931 . S
C2226 C2220 1.383 . S
C2226 C2225 1.379 . S
H2227 C2221 0.959 . S
H2228 C2221 0.961 . S
H2229 C2221 0.960 . S
H2230 C2222 0.930 . S
H2231 C2223 0.929 . S
H2232 C2240 0.929 . S
H2233 C2242 0.930 . S
H2234 C2244 0.930 . S
H2235 C2247 0.929 . S
H2236 C2250 0.930 . S
H2237 C2252 0.960 . S
H2238 C2252 0.960 . S
H2239 C2252 0.960 . S
C2240 H2232 0.929 . S
C2240 C2241 1.377 . S
C2240 C2242 1.384 . S
C2241 C2240 1.377 . S
C2241 C2247 1.390 . S
C2242 H2233 0.930 . S
C2242 C2240 1.384 . S
C2242 C2243 1.372 . S
C2243 C2242 1.372 . S
C2243 C2244 1.400 . S
C2243 C2248 1.490 . S
C2244 H2234 0.930 . S
C2244 C2243 1.400 . S
C2244 C2247 1.386 . S
H2245 C2261 0.930 . S
H2246 C2262 0.931 . S
C2247 H2235 0.929 . S
C2247 C2241 1.390 . S
C2247 C2244 1.386 . S
C2248 C2243 1.490 . S
C2248 C2250 1.395 . S
C2248 C2251 1.403 . S
H2249 C2255 0.930 . S
C2250 H2236 0.930 . S
C2250 C2248 1.395 . S
C2250 C2253 1.403 . S
C2251 C2248 1.403 . S
C2251 C2252 1.524 . S
C2251 C2255 1.400 . S
C2252 H2237 0.960 . S
C2252 H2238 0.960 . S
C2252 H2239 0.960 . S
C2252 C2251 1.524 . S
C2253 C2250 1.403 . S
C2253 C2254 1.392 . S
C2253 C2257 1.495 . S
C2254 C2253 1.392 . S
C2254 C2255 1.385 . S
C2254 C2256 1.478 . S
C2255 H2249 0.930 . S
C2255 C2251 1.400 . S
C2255 C2254 1.385 . S
C2256 C2254 1.478 . S
C2256 C2258 1.381 . S
C2256 C2262 1.383 . S
C2257 C2253 1.495 . S
C2257 H2263 0.959 . S
C2257 H2264 0.961 . S
C2257 H2265 0.960 . S
C2258 C2256 1.381 . S
C2258 C2259 1.394 . S
C2258 H2266 0.930 . S
C2259 C2258 1.394 . S
C2259 C2260 1.383 . S
C2259 H2267 0.929 . S
C2260 C2259 1.383 . S
C2260 C2261 1.377 . S
C2261 H2245 0.930 . S
C2261 C2260 1.377 . S
C2261 C2262 1.379 . S
C2262 H2246 0.931 . S
C2262 C2256 1.383 . S
C2262 C2261 1.379 . S
H2263 C2257 0.959 . S
H2264 C2257 0.961 . S
H2265 C2257 0.960 . S
H2266 C2258 0.930 . S
H2267 C2259 0.929 . S
H2268 C2276 0.929 . S
H2269 C2278 0.930 . S
H2270 C2280 0.930 . S
H2271 C2283 0.929 . S
H2272 C2286 0.930 . S
H2273 C2288 0.960 . S
H2274 C2288 0.960 . S
H2275 C2288 0.960 . S
C2276 H2268 0.929 . S
C2276 C2277 1.377 . S
C2276 C2278 1.384 . S
C2277 C2276 1.377 . S
C2277 C2283 1.390 . S
C2278 H2269 0.930 . S
C2278 C2276 1.384 . S
C2278 C2279 1.372 . S
C2279 C2278 1.372 . S
C2279 C2280 1.400 . S
C2279 C2284 1.490 . S
C2280 H2270 0.930 . S
C2280 C2279 1.400 . S
C2280 C2283 1.386 . S
H2281 C2297 0.930 . S
H2282 C2298 0.931 . S
C2283 H2271 0.929 . S
C2283 C2277 1.390 . S
C2283 C2280 1.386 . S
C2284 C2279 1.490 . S
C2284 C2286 1.395 . S
C2284 C2287 1.403 . S
H2285 C2291 0.930 . S
C2286 H2272 0.930 . S
C2286 C2284 1.395 . S
C2286 C2289 1.403 1_655 S
C2287 C2284 1.403 . S
C2287 C2288 1.524 . S
C2287 C2291 1.400 1_655 S
C2288 H2273 0.960 . S
C2288 H2274 0.960 . S
C2288 H2275 0.960 . S
C2288 C2287 1.524 . S
C2289 C2286 1.403 1_455 S
C2289 C2290 1.392 . S
C2289 C2293 1.495 . S
C2290 C2289 1.392 . S
C2290 C2291 1.385 . S
C2290 C2292 1.478 . S
C2291 H2285 0.930 . S
C2291 C2287 1.400 1_455 S
C2291 C2290 1.385 . S
C2292 C2290 1.478 . S
C2292 C2294 1.381 . S
C2292 C2298 1.383 . S
C2293 C2289 1.495 . S
C2293 H2299 0.959 . S
C2293 H2300 0.961 . S
C2293 H2301 0.960 . S
C2294 C2292 1.381 . S
C2294 C2295 1.394 . S
C2294 H2302 0.930 . S
C2295 C2294 1.394 . S
C2295 C2296 1.383 . S
C2295 H2303 0.929 . S
C2296 C2295 1.383 . S
C2296 C2297 1.377 . S
C2297 H2281 0.930 . S
C2297 C2296 1.377 . S
C2297 C2298 1.379 . S
C2298 H2282 0.931 . S
C2298 C2292 1.383 . S
C2298 C2297 1.379 . S
H2299 C2293 0.959 . S
H2300 C2293 0.961 . S
H2301 C2293 0.960 . S
H2302 C2294 0.930 . S
H2303 C2295 0.929 . S
H2304 C2312 0.929 . S
H2305 C2314 0.930 1_554 S
H2306 C2316 0.930 . S
H2307 C2319 0.929 . S
H2308 C2322 0.930 . S
H2309 C2324 0.960 . S
H2310 C2324 0.960 . S
H2311 C2324 0.960 . S
C2312 H2304 0.929 . S
C2312 C2313 1.377 . S
C2312 C2314 1.384 . S
C2313 C2312 1.377 . S
C2313 C2319 1.390 . S
C2314 H2305 0.930 1_556 S
C2314 C2312 1.384 . S
C2314 C2315 1.372 . S
C2315 C2314 1.372 . S
C2315 C2316 1.400 . S
C2315 C2320 1.490 . S
C2316 H2306 0.930 . S
C2316 C2315 1.400 . S
C2316 C2319 1.386 . S
H2317 C2333 0.930 . S
H2318 C2334 0.832 1_556 S
C2319 H2307 0.929 . S
C2319 C2313 1.390 . S
C2319 C2316 1.386 . S
C2320 C2315 1.490 . S
C2320 C2322 1.395 1_556 S
C2320 C2323 1.403 . S
H2321 C2327 0.929 1_556 S
C2322 H2308 0.930 . S
C2322 C2320 1.395 1_554 S
C2322 C2325 1.403 . S
C2323 C2320 1.403 . S
C2323 C2324 1.524 . S
C2323 C2327 1.383 1_556 S
C2324 H2309 0.960 . S
C2324 H2310 0.960 . S
C2324 H2311 0.960 . S
C2324 C2323 1.524 . S
C2325 C2322 1.403 . S
C2325 C2326 1.392 . S
C2325 C2329 1.495 . S
C2326 C2325 1.392 . S
C2326 C2327 1.404 . S
C2326 C2328 1.478 . S
C2327 H2321 0.929 1_554 S
C2327 C2323 1.383 1_554 S
C2327 C2326 1.404 . S
C2328 C2326 1.478 . S
C2328 C2330 1.381 . S
C2328 C2334 1.383 . S
C2329 C2325 1.495 . S
C2329 H2335 0.959 . S
C2329 H2336 0.961 . S
C2329 H2337 0.960 . S
C2330 C2328 1.381 . S
C2330 C2331 1.394 . S
C2330 H2338 0.930 . S
C2331 C2330 1.394 . S
C2331 C2332 1.383 . S
C2331 H2339 0.929 . S
C2332 C2331 1.383 . S
C2332 C2333 1.377 . S
C2333 H2317 0.930 . S
C2333 C2332 1.377 . S
C2333 C2334 1.379 . S
C2334 H2318 0.832 1_554 S
C2334 C2328 1.383 . S
C2334 C2333 1.379 . S
H2335 C2329 0.959 . S
H2336 C2329 0.961 . S
H2337 C2329 0.960 . S
H2338 C2330 0.930 . S
H2339 C2331 0.929 . S
H2340 C2348 0.929 . S
H2341 C2350 0.930 . S
H2342 C2352 0.930 . S
H2343 C2355 0.929 . S
H2344 C2358 0.930 . S
H2345 C2360 0.960 . S
H2346 C2360 0.960 1_545 S
H2347 C2360 0.960 1_545 S
C2348 H2340 0.929 . S
C2348 C2349 1.377 . S
C2348 C2350 1.384 . S
C2349 C2348 1.377 . S
C2349 C2355 1.390 . S
C2350 H2341 0.930 . S
C2350 C2348 1.384 . S
C2350 C2351 1.372 . S
C2351 C2350 1.372 . S
C2351 C2352 1.400 . S
C2351 C2356 1.490 . S
C2352 H2342 0.930 . S
C2352 C2351 1.400 . S
C2352 C2355 1.386 . S
H2353 C2369 0.930 . S
H2354 C2370 0.931 . S
C2355 H2343 0.929 . S
C2355 C2349 1.390 . S
C2355 C2352 1.386 . S
C2356 C2351 1.490 . S
C2356 C2358 1.395 . S
C2356 C2359 1.403 1_545 S
H2357 C2363 0.930 . S
C2358 H2344 0.930 . S
C2358 C2356 1.395 . S
C2358 C2361 1.403 . S
C2359 C2356 1.403 1_565 S
C2359 C2360 1.524 . S
C2359 C2363 1.399 . S
C2360 H2345 0.960 . S
C2360 H2346 0.960 1_565 S
C2360 H2347 0.960 1_565 S
C2360 C2359 1.524 . S
C2361 C2358 1.403 . S
C2361 C2362 1.392 1_545 S
C2361 C2365 1.495 . S
C2362 C2361 1.392 1_565 S
C2362 C2363 1.385 . S
C2362 C2364 1.478 . S
C2363 H2357 0.930 . S
C2363 C2359 1.399 . S
C2363 C2362 1.385 . S
C2364 C2362 1.478 . S
C2364 C2366 1.381 . S
C2364 C2370 1.383 . S
C2365 C2361 1.495 . S
C2365 H2371 0.959 . S
C2365 H2372 0.961 1_545 S
C2365 H2373 0.960 1_545 S
C2366 C2364 1.381 . S
C2366 C2367 1.394 . S
C2366 H2374 0.930 . S
C2367 C2366 1.394 . S
C2367 C2368 1.383 . S
C2367 H2375 0.929 . S
C2368 C2367 1.383 . S
C2368 C2369 1.377 . S
C2369 H2353 0.930 . S
C2369 C2368 1.377 . S
C2369 C2370 1.379 . S
C2370 H2354 0.931 . S
C2370 C2364 1.383 . S
C2370 C2369 1.379 . S
H2371 C2365 0.959 . S
H2372 C2365 0.961 1_565 S
H2373 C2365 0.960 1_565 S
H2374 C2366 0.930 . S
H2375 C2367 0.929 . S
H2376 C2384 0.929 . S
H2377 C2386 0.930 . S
H2378 C2388 0.930 . S
H2379 C2391 0.929 . S
H2380 C2394 0.930 . S
H2381 C2396 0.960 . S
H2382 C2396 0.960 . S
H2383 C2396 0.960 . S
C2384 H2376 0.929 . S
C2384 C2385 1.377 . S
C2384 C2386 1.384 . S
C2385 C2384 1.377 . S
C2385 C2391 1.390 . S
C2386 H2377 0.930 . S
C2386 C2384 1.384 . S
C2386 C2387 1.372 . S
C2387 C2386 1.372 . S
C2387 C2388 1.400 . S
C2387 C2392 1.490 . S
C2388 H2378 0.930 . S
C2388 C2387 1.400 . S
C2388 C2391 1.386 . S
H2389 C2405 0.930 . S
H2390 C2406 0.931 . S
C2391 H2379 0.929 . S
C2391 C2385 1.390 . S
C2391 C2388 1.386 . S
C2392 C2387 1.490 . S
C2392 C2394 1.395 . S
C2392 C2395 1.403 . S
H2393 C2399 0.930 . S
C2394 H2380 0.930 . S
C2394 C2392 1.395 . S
C2394 C2397 1.403 . S
C2395 C2392 1.403 . S
C2395 C2396 1.524 . S
C2395 C2399 1.400 . S
C2396 H2381 0.960 . S
C2396 H2382 0.960 . S
C2396 H2383 0.960 . S
C2396 C2395 1.524 . S
C2397 C2394 1.403 . S
C2397 C2398 1.392 . S
C2397 C2401 1.495 . S
C2398 C2397 1.392 . S
C2398 C2399 1.385 . S
C2398 C2400 1.478 . S
C2399 H2393 0.930 . S
C2399 C2395 1.400 . S
C2399 C2398 1.385 . S
C2400 C2398 1.478 . S
C2400 C2402 1.381 . S
C2400 C2406 1.383 . S
C2401 C2397 1.495 . S
C2401 H2407 0.959 . S
C2401 H2408 0.961 . S
C2401 H2409 0.960 . S
C2402 C2400 1.381 . S
C2402 C2403 1.394 . S
C2402 H2410 0.930 . S
C2403 C2402 1.394 . S
C2403 C2404 1.383 . S
C2403 H2411 0.929 . S
C2404 C2403 1.383 . S
C2404 C2405 1.377 . S
C2405 H2389 0.930 . S
C2405 C2404 1.377 . S
C2405 C2406 1.379 . S
C2406 H2390 0.931 . S
C2406 C2400 1.383 . S
C2406 C2405 1.379 . S
H2407 C2401 0.959 . S
H2408 C2401 0.961 . S
H2409 C2401 0.960 . S
H2410 C2402 0.930 . S
H2411 C2403 0.929 . S
H2412 C2420 0.929 . S
H2413 C2422 0.930 . S
H2414 C2424 0.930 . S
H2415 C2427 0.929 . S
H2416 C2430 0.930 . S
H2417 C2432 0.960 . S
H2418 C2432 0.960 . S
H2419 C2432 0.960 . S
C2420 H2412 0.929 . S
C2420 C2421 1.377 . S
C2420 C2422 1.384 . S
C2421 C2420 1.377 . S
C2421 C2427 1.390 . S
C2422 H2413 0.930 . S
C2422 C2420 1.384 . S
C2422 C2423 1.372 . S
C2423 C2422 1.372 . S
C2423 C2424 1.400 . S
C2423 C2428 1.490 . S
C2424 H2414 0.930 . S
C2424 C2423 1.400 . S
C2424 C2427 1.386 . S
H2425 C2441 0.930 . S
H2426 C2442 0.931 . S
C2427 H2415 0.929 . S
C2427 C2421 1.390 . S
C2427 C2424 1.386 . S
C2428 C2423 1.490 . S
C2428 C2430 1.395 . S
C2428 C2431 1.403 . S
H2429 C2435 0.930 . S
C2430 H2416 0.930 . S
C2430 C2428 1.395 . S
C2430 C2433 1.403 1_545 S
C2431 C2428 1.403 . S
C2431 C2432 1.524 . S
C2431 C2435 1.400 1_545 S
C2432 H2417 0.960 . S
C2432 H2418 0.960 . S
C2432 H2419 0.960 . S
C2432 C2431 1.524 . S
C2433 C2430 1.403 1_565 S
C2433 C2434 1.392 . S
C2433 C2437 1.495 . S
C2434 C2433 1.392 . S
C2434 C2435 1.385 . S
C2434 C2436 1.478 . S
C2435 H2429 0.930 . S
C2435 C2431 1.400 1_565 S
C2435 C2434 1.385 . S
C2436 C2434 1.478 . S
C2436 C2438 1.381 . S
C2436 C2442 1.383 . S
C2437 C2433 1.495 . S
C2437 H2443 0.959 . S
C2437 H2444 0.961 . S
C2437 H2445 0.960 . S
C2438 C2436 1.381 . S
C2438 C2439 1.394 . S
C2438 H2446 0.930 . S
C2439 C2438 1.394 . S
C2439 C2440 1.383 . S
C2439 H2447 0.929 . S
C2440 C2439 1.383 . S
C2440 C2441 1.377 . S
C2441 H2425 0.930 . S
C2441 C2440 1.377 . S
C2441 C2442 1.379 . S
C2442 H2426 0.931 . S
C2442 C2436 1.383 . S
C2442 C2441 1.379 . S
H2443 C2437 0.959 . S
H2444 C2437 0.961 . S
H2445 C2437 0.960 . S
H2446 C2438 0.930 . S
H2447 C2439 0.929 . S
H2448 C2456 0.929 . S
H2449 C2458 0.930 . S
H2450 C2460 0.930 . S
H2451 C2463 0.929 . S
H2452 C2466 0.930 . S
H2453 C2468 0.960 1_556 S
H2454 C2468 0.960 1_556 S
H2455 C2468 0.960 . S
C2456 H2448 0.929 . S
C2456 C2457 1.377 . S
C2456 C2458 1.384 . S
C2457 C2456 1.377 . S
C2457 C2463 1.390 . S
C2458 H2449 0.930 . S
C2458 C2456 1.384 . S
C2458 C2459 1.372 . S
C2459 C2458 1.372 . S
C2459 C2460 1.400 . S
C2459 C2464 1.490 . S
C2460 H2450 0.930 . S
C2460 C2459 1.400 . S
C2460 C2463 1.386 . S
H2461 C2477 0.930 . S
H2462 C2478 0.940 1_554 S
C2463 H2451 0.929 . S
C2463 C2457 1.390 . S
C2463 C2460 1.386 . S
C2464 C2459 1.490 . S
C2464 C2466 1.395 . S
C2464 C2467 1.439 . S
H2465 C2471 0.930 . S
C2466 H2452 0.930 . S
C2466 C2464 1.395 . S
C2466 C2469 1.403 1_554 S
C2467 C2464 1.439 . S
C2467 C2468 1.530 . S
C2467 C2471 1.361 1_554 S
C2468 H2453 0.960 1_554 S
C2468 H2454 0.960 1_554 S
C2468 H2455 0.960 . S
C2468 C2467 1.530 . S
C2469 C2466 1.403 1_556 S
C2469 C2470 1.392 . S
C2469 C2473 1.495 . S
C2470 C2469 1.392 . S
C2470 C2471 1.385 . S
C2470 C2472 1.478 . S
C2471 H2465 0.930 . S
C2471 C2467 1.361 1_556 S
C2471 C2470 1.385 . S
C2472 C2470 1.478 . S
C2472 C2474 1.381 . S
C2472 C2478 1.383 . S
C2473 C2469 1.495 . S
C2473 H2479 0.929 1_556 S
C2473 H2480 0.961 1_556 S
C2473 H2481 0.960 . S
C2474 C2472 1.381 . S
C2474 C2475 1.394 . S
C2474 H2482 0.930 . S
C2475 C2474 1.394 . S
C2475 C2476 1.383 . S
C2475 H2483 0.929 . S
C2476 C2475 1.383 . S
C2476 C2477 1.377 . S
C2477 H2461 0.930 . S
C2477 C2476 1.377 . S
C2477 C2478 1.379 . S
C2478 H2462 0.940 1_556 S
C2478 C2472 1.383 . S
C2478 C2477 1.379 . S
H2479 C2473 0.929 1_554 S
H2480 C2473 0.961 1_554 S
H2481 C2473 0.960 . S
H2482 C2474 0.930 . S
H2483 C2475 0.929 . S
H2484 C2492 0.929 . S
H2485 C2494 0.930 . S
H2486 C2496 0.930 . S
H2487 C2499 0.929 . S
H2488 C2502 0.930 . S
H2489 C2504 0.960 1_545 S
H2490 C2504 0.960 . S
H2491 C2504 0.960 . S
C2492 H2484 0.929 . S
C2492 C2493 1.377 . S
C2492 C2494 1.384 . S
C2493 C2492 1.377 . S
C2493 C2499 1.390 . S
C2494 H2485 0.930 . S
C2494 C2492 1.384 . S
C2494 C2495 1.372 . S
C2495 C2494 1.372 . S
C2495 C2496 1.400 . S
C2495 C2500 1.490 . S
C2496 H2486 0.930 . S
C2496 C2495 1.400 . S
C2496 C2499 1.386 . S
H2497 C2513 0.930 . S
H2498 C2514 0.931 . S
C2499 H2487 0.929 . S
C2499 C2493 1.390 . S
C2499 C2496 1.386 . S
C2500 C2495 1.490 . S
C2500 C2502 1.395 . S
C2500 C2503 1.403 . S
H2501 C2507 0.930 . S
C2502 H2488 0.930 . S
C2502 C2500 1.395 . S
C2502 C2505 1.403 1_565 S
C2503 C2500 1.403 . S
C2503 C2504 1.524 . S
C2503 C2507 1.400 1_565 S
C2504 H2489 0.960 1_565 S
C2504 H2490 0.960 . S
C2504 H2491 0.960 . S
C2504 C2503 1.524 . S
C2505 C2502 1.403 1_545 S
C2505 C2506 1.392 . S
C2505 C2509 1.495 . S
C2506 C2505 1.392 . S
C2506 C2507 1.385 . S
C2506 C2508 1.478 . S
C2507 H2501 0.930 . S
C2507 C2503 1.400 1_545 S
C2507 C2506 1.385 . S
C2508 C2506 1.478 . S
C2508 C2510 1.381 . S
C2508 C2514 1.383 . S
C2509 C2505 1.495 . S
C2509 H2515 0.959 1_545 S
C2509 H2516 0.961 . S
C2509 H2517 0.960 . S
C2510 C2508 1.381 . S
C2510 C2511 1.394 . S
C2510 H2518 0.930 . S
C2511 C2510 1.394 . S
C2511 C2512 1.383 . S
C2511 H2519 0.929 . S
C2512 C2511 1.383 . S
C2512 C2513 1.377 . S
C2513 H2497 0.930 . S
C2513 C2512 1.377 . S
C2513 C2514 1.379 . S
C2514 H2498 0.931 . S
C2514 C2508 1.383 . S
C2514 C2513 1.379 . S
H2515 C2509 0.959 1_565 S
H2516 C2509 0.961 . S
H2517 C2509 0.960 . S
H2518 C2510 0.930 . S
H2519 C2511 0.929 . S
H2520 C2528 0.929 . S
H2521 C2530 0.930 . S
H2522 C2532 0.930 . S
H2523 C2535 0.929 . S
H2524 C2538 0.930 . S
H2525 C2540 0.960 . S
H2526 C2540 0.960 . S
H2527 C2540 0.960 . S
C2528 H2520 0.929 . S
C2528 C2529 1.377 . S
C2528 C2530 1.384 . S
C2529 C2528 1.377 . S
C2529 C2535 1.390 . S
C2530 H2521 0.930 . S
C2530 C2528 1.384 . S
C2530 C2531 1.372 . S
C2531 C2530 1.372 . S
C2531 C2532 1.400 . S
C2531 C2536 1.490 . S
C2532 H2522 0.930 . S
C2532 C2531 1.400 . S
C2532 C2535 1.386 . S
H2533 C2549 0.930 . S
H2534 C2550 0.931 . S
C2535 H2523 0.929 . S
C2535 C2529 1.390 . S
C2535 C2532 1.386 . S
C2536 C2531 1.490 . S
C2536 C2538 1.395 . S
C2536 C2539 1.403 . S
H2537 C2543 0.930 . S
C2538 H2524 0.930 . S
C2538 C2536 1.395 . S
C2538 C2541 1.403 . S
C2539 C2536 1.403 . S
C2539 C2540 1.524 . S
C2539 C2543 1.400 . S
C2540 H2525 0.960 . S
C2540 H2526 0.960 . S
C2540 H2527 0.960 . S
C2540 C2539 1.524 . S
C2541 C2538 1.403 . S
C2541 C2542 1.392 . S
C2541 C2545 1.495 . S
C2542 C2541 1.392 . S
C2542 C2543 1.385 . S
C2542 C2544 1.478 . S
C2543 H2537 0.930 . S
C2543 C2539 1.400 . S
C2543 C2542 1.385 . S
C2544 C2542 1.478 . S
C2544 C2546 1.381 . S
C2544 C2550 1.383 . S
C2545 C2541 1.495 . S
C2545 H2551 0.959 . S
C2545 H2552 0.961 . S
C2545 H2553 0.960 . S
C2546 C2544 1.381 . S
C2546 C2547 1.394 . S
C2546 H2554 0.930 . S
C2547 C2546 1.394 . S
C2547 C2548 1.383 . S
C2547 H2555 0.929 . S
C2548 C2547 1.383 . S
C2548 C2549 1.377 . S
C2549 H2533 0.930 . S
C2549 C2548 1.377 . S
C2549 C2550 1.379 . S
C2550 H2534 0.931 . S
C2550 C2544 1.383 . S
C2550 C2549 1.379 . S
H2551 C2545 0.959 . S
H2552 C2545 0.961 . S
H2553 C2545 0.960 . S
H2554 C2546 0.930 . S
H2555 C2547 0.929 . S
H2556 C2564 0.929 . S
H2557 C2566 0.930 . S
H2558 C2568 0.930 . S
H2559 C2571 0.929 . S
H2560 C2574 0.930 . S
H2561 C2576 0.960 . S
H2562 C2576 0.960 . S
H2563 C2576 0.960 . S
C2564 H2556 0.929 . S
C2564 C2565 1.377 . S
C2564 C2566 1.384 . S
C2565 C2564 1.377 . S
C2565 C2571 1.390 . S
C2566 H2557 0.930 . S
C2566 C2564 1.384 . S
C2566 C2567 1.372 . S
C2567 C2566 1.372 . S
C2567 C2568 1.400 . S
C2567 C2572 1.490 . S
C2568 H2558 0.930 . S
C2568 C2567 1.400 . S
C2568 C2571 1.386 . S
H2569 C2585 0.930 . S
H2570 C2586 0.931 . S
C2571 H2559 0.929 . S
C2571 C2565 1.390 . S
C2571 C2568 1.386 . S
C2572 C2567 1.490 . S
C2572 C2574 1.395 . S
C2572 C2575 1.403 . S
H2573 C2579 0.930 . S
C2574 H2560 0.930 . S
C2574 C2572 1.395 . S
C2574 C2577 1.403 1_545 S
C2575 C2572 1.403 . S
C2575 C2576 1.524 . S
C2575 C2579 1.400 1_545 S
C2576 H2561 0.960 . S
C2576 H2562 0.960 . S
C2576 H2563 0.960 . S
C2576 C2575 1.524 . S
C2577 C2574 1.403 1_565 S
C2577 C2578 1.392 . S
C2577 C2581 1.495 . S
C2578 C2577 1.392 . S
C2578 C2579 1.385 . S
C2578 C2580 1.478 . S
C2579 H2573 0.930 . S
C2579 C2575 1.400 1_565 S
C2579 C2578 1.385 . S
C2580 C2578 1.478 . S
C2580 C2582 1.381 . S
C2580 C2586 1.383 . S
C2581 C2577 1.495 . S
C2581 H2587 0.959 . S
C2581 H2588 0.961 . S
C2581 H2589 0.960 . S
C2582 C2580 1.381 . S
C2582 C2583 1.394 . S
C2582 H2590 0.930 . S
C2583 C2582 1.394 . S
C2583 C2584 1.383 . S
C2583 H2591 0.929 . S
C2584 C2583 1.383 . S
C2584 C2585 1.377 . S
C2585 H2569 0.930 . S
C2585 C2584 1.377 . S
C2585 C2586 1.379 . S
C2586 H2570 0.931 . S
C2586 C2580 1.383 . S
C2586 C2585 1.379 . S
H2587 C2581 0.959 . S
H2588 C2581 0.961 . S
H2589 C2581 0.960 . S
H2590 C2582 0.930 . S
H2591 C2583 0.929 . S
H2592 C2600 0.929 . S
H2593 C2602 0.930 . S
H2594 C2604 0.930 . S
H2595 C2607 0.929 . S
H2596 C2610 0.930 . S
H2597 C2612 0.960 . S
H2598 C2612 0.960 . S
H2599 C2612 0.960 . S
C2600 H2592 0.929 . S
C2600 C2601 1.377 . S
C2600 C2602 1.384 . S
C2601 C2600 1.377 . S
C2601 C2607 1.390 . S
C2602 H2593 0.930 . S
C2602 C2600 1.384 . S
C2602 C2603 1.372 . S
C2603 C2602 1.372 . S
C2603 C2604 1.400 . S
C2603 C2608 1.490 . S
C2604 H2594 0.930 . S
C2604 C2603 1.400 . S
C2604 C2607 1.386 . S
H2605 C2621 0.930 . S
H2606 C2622 0.931 . S
C2607 H2595 0.929 . S
C2607 C2601 1.390 . S
C2607 C2604 1.386 . S
C2608 C2603 1.490 . S
C2608 C2610 1.395 . S
C2608 C2611 1.403 . S
H2609 C2615 0.930 . S
C2610 H2596 0.930 . S
C2610 C2608 1.395 . S
C2610 C2613 1.403 . S
C2611 C2608 1.403 . S
C2611 C2612 1.524 . S
C2611 C2615 1.400 . S
C2612 H2597 0.960 . S
C2612 H2598 0.960 . S
C2612 H2599 0.960 . S
C2612 C2611 1.524 . S
C2613 C2610 1.403 . S
C2613 C2614 1.392 . S
C2613 C2617 1.495 . S
C2614 C2613 1.392 . S
C2614 C2615 1.385 . S
C2614 C2616 1.478 . S
C2615 H2609 0.930 . S
C2615 C2611 1.400 . S
C2615 C2614 1.385 . S
C2616 C2614 1.478 . S
C2616 C2618 1.381 . S
C2616 C2622 1.383 . S
C2617 C2613 1.495 . S
C2617 H2623 0.959 . S
C2617 H2624 0.961 . S
C2617 H2625 0.960 . S
C2618 C2616 1.381 . S
C2618 C2619 1.394 . S
C2618 H2626 0.930 . S
C2619 C2618 1.394 . S
C2619 C2620 1.383 . S
C2619 H2627 0.929 . S
C2620 C2619 1.383 . S
C2620 C2621 1.377 . S
C2621 H2605 0.930 . S
C2621 C2620 1.377 . S
C2621 C2622 1.379 . S
C2622 H2606 0.931 . S
C2622 C2616 1.383 . S
C2622 C2621 1.379 . S
H2623 C2617 0.959 . S
H2624 C2617 0.961 . S
H2625 C2617 0.960 . S
H2626 C2618 0.930 . S
H2627 C2619 0.929 . S
H2628 C2636 0.929 . S
H2629 C2638 0.930 . S
H2630 C2640 0.930 . S
H2631 C2643 0.929 . S
H2632 C2646 0.930 . S
H2633 C2648 0.960 . S
H2634 C2648 0.960 . S
H2635 C2648 0.960 . S
C2636 H2628 0.929 . S
C2636 C2637 1.377 . S
C2636 C2638 1.384 . S
C2637 C2636 1.377 . S
C2637 C2643 1.390 . S
C2638 H2629 0.930 . S
C2638 C2636 1.384 . S
C2638 C2639 1.372 . S
C2639 C2638 1.372 . S
C2639 C2640 1.400 . S
C2639 C2644 1.490 . S
C2640 H2630 0.930 . S
C2640 C2639 1.400 . S
C2640 C2643 1.386 . S
H2641 C2657 0.930 . S
H2642 C2658 0.931 . S
C2643 H2631 0.929 . S
C2643 C2637 1.390 . S
C2643 C2640 1.386 . S
C2644 C2639 1.490 . S
C2644 C2646 1.395 . S
C2644 C2647 1.403 . S
H2645 C2651 0.930 . S
C2646 H2632 0.930 . S
C2646 C2644 1.395 . S
C2646 C2649 1.403 . S
C2647 C2644 1.403 . S
C2647 C2648 1.524 . S
C2647 C2651 1.400 . S
C2648 H2633 0.960 . S
C2648 H2634 0.960 . S
C2648 H2635 0.960 . S
C2648 C2647 1.524 . S
C2649 C2646 1.403 . S
C2649 C2650 1.392 . S
C2649 C2653 1.495 . S
C2650 C2649 1.392 . S
C2650 C2651 1.385 . S
C2650 C2652 1.478 . S
C2651 H2645 0.930 . S
C2651 C2647 1.400 . S
C2651 C2650 1.385 . S
C2652 C2650 1.478 . S
C2652 C2654 1.381 . S
C2652 C2658 1.383 . S
C2653 C2649 1.495 . S
C2653 H2659 0.959 . S
C2653 H2660 0.961 . S
C2653 H2661 0.960 . S
C2654 C2652 1.381 . S
C2654 C2655 1.394 . S
C2654 H2662 0.930 . S
C2655 C2654 1.394 . S
C2655 C2656 1.383 . S
C2655 H2663 0.929 . S
C2656 C2655 1.383 . S
C2656 C2657 1.377 . S
C2657 H2641 0.930 . S
C2657 C2656 1.377 . S
C2657 C2658 1.379 . S
C2658 H2642 0.931 . S
C2658 C2652 1.383 . S
C2658 C2657 1.379 . S
H2659 C2653 0.959 . S
H2660 C2653 0.961 . S
H2661 C2653 0.960 . S
H2662 C2654 0.930 . S
H2663 C2655 0.929 . S
H2664 C2672 0.929 . S
H2665 C2674 0.930 . S
H2666 C2676 0.930 . S
H2667 C2679 0.929 . S
H2668 C2682 0.930 . S
H2669 C2684 0.960 . S
H2670 C2684 0.960 . S
H2671 C2684 0.960 . S
C2672 H2664 0.929 . S
C2672 C2673 1.377 . S
C2672 C2674 1.384 . S
C2673 C2672 1.377 . S
C2673 C2679 1.390 . S
C2674 H2665 0.930 . S
C2674 C2672 1.384 . S
C2674 C2675 1.372 . S
C2675 C2674 1.372 . S
C2675 C2676 1.400 . S
C2675 C2680 1.490 . S
C2676 H2666 0.930 . S
C2676 C2675 1.400 . S
C2676 C2679 1.386 . S
H2677 C2693 0.930 . S
H2678 C2694 0.931 . S
C2679 H2667 0.929 . S
C2679 C2673 1.390 . S
C2679 C2676 1.386 . S
C2680 C2675 1.490 . S
C2680 C2682 1.395 . S
C2680 C2683 1.403 1_554 S
H2681 C2687 0.930 . S
C2682 H2668 0.930 . S
C2682 C2680 1.395 . S
C2682 C2685 1.403 . S
C2683 C2680 1.403 1_556 S
C2683 C2684 1.524 . S
C2683 C2687 1.400 . S
C2684 H2669 0.960 . S
C2684 H2670 0.960 . S
C2684 H2671 0.960 . S
C2684 C2683 1.524 . S
C2685 C2682 1.403 . S
C2685 C2686 1.392 1_554 S
C2685 C2689 1.495 . S
C2686 C2685 1.392 1_556 S
C2686 C2687 1.385 . S
C2686 C2688 1.478 . S
C2687 H2681 0.930 . S
C2687 C2683 1.400 . S
C2687 C2686 1.385 . S
C2688 C2686 1.478 . S
C2688 C2690 1.381 . S
C2688 C2694 1.383 . S
C2689 C2685 1.495 . S
C2689 H2695 0.959 . S
C2689 H2696 0.961 . S
C2689 H2697 0.960 . S
C2690 C2688 1.381 . S
C2690 C2691 1.394 . S
C2690 H2698 0.930 . S
C2691 C2690 1.394 . S
C2691 C2692 1.383 . S
C2691 H2699 0.929 . S
C2692 C2691 1.383 . S
C2692 C2693 1.377 . S
C2693 H2677 0.930 . S
C2693 C2692 1.377 . S
C2693 C2694 1.379 . S
C2694 H2678 0.931 . S
C2694 C2688 1.383 . S
C2694 C2693 1.379 . S
H2695 C2689 0.959 . S
H2696 C2689 0.961 . S
H2697 C2689 0.960 . S
H2698 C2690 0.930 . S
H2699 C2691 0.929 . S
H2700 C2708 0.929 . S
H2701 C2710 0.930 . S
H2702 C2712 0.930 . S
H2703 C2715 0.929 . S
H2704 C2718 0.930 . S
H2705 C2720 0.960 . S
H2706 C2720 0.960 . S
H2707 C2720 0.960 . S
C2708 H2700 0.929 . S
C2708 C2709 1.377 . S
C2708 C2710 1.384 . S
C2709 C2708 1.377 . S
C2709 C2715 1.390 . S
C2710 H2701 0.930 . S
C2710 C2708 1.384 . S
C2710 C2711 1.372 . S
C2711 C2710 1.372 . S
C2711 C2712 1.400 . S
C2711 C2716 1.490 . S
C2712 H2702 0.930 . S
C2712 C2711 1.400 . S
C2712 C2715 1.386 . S
H2713 C2729 0.930 . S
H2714 C2730 0.931 . S
C2715 H2703 0.929 . S
C2715 C2709 1.390 . S
C2715 C2712 1.386 . S
C2716 C2711 1.490 . S
C2716 C2718 1.395 . S
C2716 C2719 1.403 . S
H2717 C2723 0.930 . S
C2718 H2704 0.930 . S
C2718 C2716 1.395 . S
C2718 C2721 1.403 . S
C2719 C2716 1.403 . S
C2719 C2720 1.524 . S
C2719 C2723 1.400 . S
C2720 H2705 0.960 . S
C2720 H2706 0.960 . S
C2720 H2707 0.960 . S
C2720 C2719 1.524 . S
C2721 C2718 1.403 . S
C2721 C2722 1.392 . S
C2721 C2725 1.495 . S
C2722 C2721 1.392 . S
C2722 C2723 1.385 . S
C2722 C2724 1.478 . S
C2723 H2717 0.930 . S
C2723 C2719 1.400 . S
C2723 C2722 1.385 . S
C2724 C2722 1.478 . S
C2724 C2726 1.381 . S
C2724 C2730 1.383 . S
C2725 C2721 1.495 . S
C2725 H2731 0.959 . S
C2725 H2732 0.961 . S
C2725 H2733 0.960 . S
C2726 C2724 1.381 . S
C2726 C2727 1.394 . S
C2726 H2734 0.930 . S
C2727 C2726 1.394 . S
C2727 C2728 1.383 . S
C2727 H2735 0.929 . S
C2728 C2727 1.383 . S
C2728 C2729 1.377 . S
C2729 H2713 0.930 . S
C2729 C2728 1.377 . S
C2729 C2730 1.379 . S
C2730 H2714 0.931 . S
C2730 C2724 1.383 . S
C2730 C2729 1.379 . S
H2731 C2725 0.959 . S
H2732 C2725 0.961 . S
H2733 C2725 0.960 . S
H2734 C2726 0.930 . S
H2735 C2727 0.929 . S
H2736 C2744 0.929 . S
H2737 C2746 0.930 . S
H2738 C2748 0.930 . S
H2739 C2751 0.929 . S
H2740 C2754 0.930 . S
H2741 C2756 0.960 . S
H2742 C2756 0.960 . S
H2743 C2756 0.960 . S
C2744 H2736 0.929 . S
C2744 C2745 1.377 . S
C2744 C2746 1.384 . S
C2745 C2744 1.377 . S
C2745 C2751 1.390 . S
C2746 H2737 0.930 . S
C2746 C2744 1.384 . S
C2746 C2747 1.372 . S
C2747 C2746 1.372 . S
C2747 C2748 1.400 . S
C2747 C2752 1.490 . S
C2748 H2738 0.930 . S
C2748 C2747 1.400 . S
C2748 C2751 1.386 . S
H2749 C2765 0.930 . S
H2750 C2766 0.931 . S
C2751 H2739 0.929 . S
C2751 C2745 1.390 . S
C2751 C2748 1.386 . S
C2752 C2747 1.490 . S
C2752 C2754 1.395 . S
C2752 C2755 1.403 . S
H2753 C2759 0.930 . S
C2754 H2740 0.930 . S
C2754 C2752 1.395 . S
C2754 C2757 1.403 . S
C2755 C2752 1.403 . S
C2755 C2756 1.524 . S
C2755 C2759 1.400 . S
C2756 H2741 0.960 . S
C2756 H2742 0.960 . S
C2756 H2743 0.960 . S
C2756 C2755 1.524 . S
C2757 C2754 1.403 . S
C2757 C2758 1.392 . S
C2757 C2761 1.495 . S
C2758 C2757 1.392 . S
C2758 C2759 1.385 . S
C2758 C2760 1.478 . S
C2759 H2753 0.930 . S
C2759 C2755 1.400 . S
C2759 C2758 1.385 . S
C2760 C2758 1.478 . S
C2760 C2762 1.381 . S
C2760 C2766 1.383 . S
C2761 C2757 1.495 . S
C2761 H2767 0.959 . S
C2761 H2768 0.961 . S
C2761 H2769 0.960 . S
C2762 C2760 1.381 . S
C2762 C2763 1.394 . S
C2762 H2770 0.930 . S
C2763 C2762 1.394 . S
C2763 C2764 1.383 . S
C2763 H2771 0.929 . S
C2764 C2763 1.383 . S
C2764 C2765 1.377 . S
C2765 H2749 0.930 . S
C2765 C2764 1.377 . S
C2765 C2766 1.379 . S
C2766 H2750 0.931 . S
C2766 C2760 1.383 . S
C2766 C2765 1.379 . S
H2767 C2761 0.959 . S
H2768 C2761 0.961 . S
H2769 C2761 0.960 . S
H2770 C2762 0.930 . S
H2771 C2763 0.929 . S
H2772 C2780 0.929 . S
H2773 C2782 0.930 . S
H2774 C2784 0.930 . S
H2775 C2787 0.929 . S
H2776 C2790 0.930 . S
H2777 C2792 0.960 . S
H2778 C2792 0.960 . S
H2779 C2792 0.960 . S
C2780 H2772 0.929 . S
C2780 C2781 1.377 . S
C2780 C2782 1.384 . S
C2781 C2780 1.377 . S
C2781 C2787 1.390 . S
C2782 H2773 0.930 . S
C2782 C2780 1.384 . S
C2782 C2783 1.372 . S
C2783 C2782 1.372 . S
C2783 C2784 1.400 . S
C2783 C2788 1.490 . S
C2784 H2774 0.930 . S
C2784 C2783 1.400 . S
C2784 C2787 1.386 . S
H2785 C2801 0.930 . S
H2786 C2802 0.931 . S
C2787 H2775 0.929 . S
C2787 C2781 1.390 . S
C2787 C2784 1.386 . S
C2788 C2783 1.490 . S
C2788 C2790 1.395 . S
C2788 C2791 1.403 . S
H2789 C2795 0.930 . S
C2790 H2776 0.930 . S
C2790 C2788 1.395 . S
C2790 C2793 1.403 . S
C2791 C2788 1.403 . S
C2791 C2792 1.524 . S
C2791 C2795 1.400 . S
C2792 H2777 0.960 . S
C2792 H2778 0.960 . S
C2792 H2779 0.960 . S
C2792 C2791 1.524 . S
C2793 C2790 1.403 . S
C2793 C2794 1.392 . S
C2793 C2797 1.495 . S
C2794 C2793 1.392 . S
C2794 C2795 1.385 . S
C2794 C2796 1.478 . S
C2795 H2789 0.930 . S
C2795 C2791 1.400 . S
C2795 C2794 1.385 . S
C2796 C2794 1.478 . S
C2796 C2798 1.381 . S
C2796 C2802 1.383 . S
C2797 C2793 1.495 . S
C2797 H2803 0.959 . S
C2797 H2804 0.961 . S
C2797 H2805 0.960 . S
C2798 C2796 1.381 . S
C2798 C2799 1.394 . S
C2798 H2806 0.930 . S
C2799 C2798 1.394 . S
C2799 C2800 1.383 . S
C2799 H2807 0.929 . S
C2800 C2799 1.383 . S
C2800 C2801 1.377 . S
C2801 H2785 0.930 . S
C2801 C2800 1.377 . S
C2801 C2802 1.379 . S
C2802 H2786 0.931 . S
C2802 C2796 1.383 . S
C2802 C2801 1.379 . S
H2803 C2797 0.959 . S
H2804 C2797 0.961 . S
H2805 C2797 0.960 . S
H2806 C2798 0.930 . S
H2807 C2799 0.929 . S
H2808 C2816 0.929 . S
H2809 C2818 0.930 . S
H2810 C2820 0.930 . S
H2811 C2823 0.929 . S
H2812 C2826 0.930 . S
H2813 C2828 0.960 . S
H2814 C2828 0.960 . S
H2815 C2828 0.960 . S
C2816 H2808 0.929 . S
C2816 C2817 1.377 . S
C2816 C2818 1.384 . S
C2817 C2816 1.377 . S
C2817 C2823 1.390 . S
C2818 H2809 0.930 . S
C2818 C2816 1.384 . S
C2818 C2819 1.372 . S
C2819 C2818 1.372 . S
C2819 C2820 1.400 . S
C2819 C2824 1.490 . S
C2820 H2810 0.930 . S
C2820 C2819 1.400 . S
C2820 C2823 1.386 . S
H2821 C2837 0.930 . S
H2822 C2838 0.931 . S
C2823 H2811 0.929 . S
C2823 C2817 1.390 . S
C2823 C2820 1.386 . S
C2824 C2819 1.490 . S
C2824 C2826 1.395 1_556 S
C2824 C2827 1.403 . S
H2825 C2831 0.930 . S
C2826 H2812 0.930 . S
C2826 C2824 1.395 1_554 S
C2826 C2829 1.403 . S
C2827 C2824 1.403 . S
C2827 C2828 1.524 . S
C2827 C2831 1.400 . S
C2828 H2813 0.960 . S
C2828 H2814 0.960 . S
C2828 H2815 0.960 . S
C2828 C2827 1.524 . S
C2829 C2826 1.403 . S
C2829 C2830 1.392 . S
C2829 C2833 1.495 . S
C2830 C2829 1.392 . S
C2830 C2831 1.385 1_554 S
C2830 C2832 1.478 . S
C2831 H2825 0.930 . S
C2831 C2827 1.400 . S
C2831 C2830 1.385 1_556 S
C2832 C2830 1.478 . S
C2832 C2834 1.381 . S
C2832 C2838 1.383 . S
C2833 C2829 1.495 . S
C2833 H2839 0.959 . S
C2833 H2840 0.961 . S
C2833 H2841 0.960 . S
C2834 C2832 1.381 . S
C2834 C2835 1.394 . S
C2834 H2842 0.930 . S
C2835 C2834 1.394 . S
C2835 C2836 1.383 . S
C2835 H2843 0.929 . S
C2836 C2835 1.383 . S
C2836 C2837 1.377 . S
C2837 H2821 0.930 . S
C2837 C2836 1.377 . S
C2837 C2838 1.379 . S
C2838 H2822 0.931 . S
C2838 C2832 1.383 . S
C2838 C2837 1.379 . S
H2839 C2833 0.959 . S
H2840 C2833 0.961 . S
H2841 C2833 0.960 . S
H2842 C2834 0.930 . S
H2843 C2835 0.929 . S
H2844 C2852 0.929 . S
H2845 C2854 0.930 . S
H2846 C2856 0.930 . S
H2847 C2859 0.929 . S
H2848 C2862 0.930 . S
H2849 C2864 0.960 . S
H2850 C2864 0.960 . S
H2851 C2864 0.960 . S
C2852 H2844 0.929 . S
C2852 C2853 1.377 . S
C2852 C2854 1.384 . S
C2853 C2852 1.377 . S
C2853 C2859 1.390 . S
C2854 H2845 0.930 . S
C2854 C2852 1.384 . S
C2854 C2855 1.372 . S
C2855 C2854 1.372 . S
C2855 C2856 1.400 . S
C2855 C2860 1.490 . S
C2856 H2846 0.930 . S
C2856 C2855 1.400 . S
C2856 C2859 1.386 . S
H2857 C2873 0.930 . S
H2858 C2874 0.931 . S
C2859 H2847 0.929 . S
C2859 C2853 1.390 . S
C2859 C2856 1.386 . S
C2860 C2855 1.490 . S
C2860 C2862 1.395 . S
C2860 C2863 1.403 . S
H2861 C2867 0.930 . S
C2862 H2848 0.930 . S
C2862 C2860 1.395 . S
C2862 C2865 1.403 . S
C2863 C2860 1.403 . S
C2863 C2864 1.524 . S
C2863 C2867 1.400 . S
C2864 H2849 0.960 . S
C2864 H2850 0.960 . S
C2864 H2851 0.960 . S
C2864 C2863 1.524 . S
C2865 C2862 1.403 . S
C2865 C2866 1.392 . S
C2865 C2869 1.495 . S
C2866 C2865 1.392 . S
C2866 C2867 1.385 . S
C2866 C2868 1.478 . S
C2867 H2861 0.930 . S
C2867 C2863 1.400 . S
C2867 C2866 1.385 . S
C2868 C2866 1.478 . S
C2868 C2870 1.381 . S
C2868 C2874 1.383 . S
C2869 C2865 1.495 . S
C2869 H2875 0.959 . S
C2869 H2876 0.961 . S
C2869 H2877 0.960 . S
C2870 C2868 1.381 . S
C2870 C2871 1.394 . S
C2870 H2878 0.930 . S
C2871 C2870 1.394 . S
C2871 C2872 1.383 . S
C2871 H2879 0.929 . S
C2872 C2871 1.383 . S
C2872 C2873 1.377 . S
C2873 H2857 0.930 . S
C2873 C2872 1.377 . S
C2873 C2874 1.379 . S
C2874 H2858 0.931 . S
C2874 C2868 1.383 . S
C2874 C2873 1.379 . S
H2875 C2869 0.959 . S
H2876 C2869 0.961 . S
H2877 C2869 0.960 . S
H2878 C2870 0.930 . S
H2879 C2871 0.929 . S
H2880 C2888 0.929 . S
H2881 C2890 0.930 . S
H2882 C2892 0.930 . S
H2883 C2895 0.929 . S
H2884 C2898 0.930 . S
H2885 C2900 0.960 . S
H2886 C2900 0.960 . S
H2887 C2900 0.960 . S
C2888 H2880 0.929 . S
C2888 C2889 1.377 . S
C2888 C2890 1.384 . S
C2889 C2888 1.377 . S
C2889 C2895 1.390 . S
C2890 H2881 0.930 . S
C2890 C2888 1.384 . S
C2890 C2891 1.372 . S
C2891 C2890 1.372 . S
C2891 C2892 1.400 . S
C2891 C2896 1.490 . S
C2892 H2882 0.930 . S
C2892 C2891 1.400 . S
C2892 C2895 1.386 . S
H2893 C2909 0.930 . S
H2894 C2910 0.931 . S
C2895 H2883 0.929 . S
C2895 C2889 1.390 . S
C2895 C2892 1.386 . S
C2896 C2891 1.490 . S
C2896 C2898 1.395 . S
C2896 C2899 1.403 . S
H2897 C2903 0.930 . S
C2898 H2884 0.930 . S
C2898 C2896 1.395 . S
C2898 C2901 1.403 . S
C2899 C2896 1.403 . S
C2899 C2900 1.524 . S
C2899 C2903 1.400 . S
C2900 H2885 0.960 . S
C2900 H2886 0.960 . S
C2900 H2887 0.960 . S
C2900 C2899 1.524 . S
C2901 C2898 1.403 . S
C2901 C2902 1.392 . S
C2901 C2905 1.495 . S
C2902 C2901 1.392 . S
C2902 C2903 1.385 . S
C2902 C2904 1.478 . S
C2903 H2897 0.930 . S
C2903 C2899 1.400 . S
C2903 C2902 1.385 . S
C2904 C2902 1.478 . S
C2904 C2906 1.381 . S
C2904 C2910 1.383 . S
C2905 C2901 1.495 . S
C2905 H2911 0.959 . S
C2905 H2912 0.961 . S
C2905 H2913 0.960 . S
C2906 C2904 1.381 . S
C2906 C2907 1.394 . S
C2906 H2914 0.930 . S
C2907 C2906 1.394 . S
C2907 C2908 1.383 . S
C2907 H2915 0.929 . S
C2908 C2907 1.383 . S
C2908 C2909 1.377 . S
C2909 H2893 0.930 . S
C2909 C2908 1.377 . S
C2909 C2910 1.379 . S
C2910 H2894 0.931 . S
C2910 C2904 1.383 . S
C2910 C2909 1.379 . S
H2911 C2905 0.959 . S
H2912 C2905 0.961 . S
H2913 C2905 0.960 . S
H2914 C2906 0.930 . S
H2915 C2907 0.929 . S
H2916 C2924 0.929 . S
H2917 C2926 0.930 . S
H2918 C2928 0.930 . S
H2919 C2931 0.929 . S
H2920 C2934 0.930 . S
H2921 C2936 0.960 . S
H2922 C2936 0.960 . S
H2923 C2936 0.960 . S
C2924 H2916 0.929 . S
C2924 C2925 1.377 . S
C2924 C2926 1.384 . S
C2925 C2924 1.377 . S
C2925 C2931 1.390 . S
C2926 H2917 0.930 . S
C2926 C2924 1.384 . S
C2926 C2927 1.372 . S
C2927 C2926 1.372 . S
C2927 C2928 1.400 . S
C2927 C2932 1.490 . S
C2928 H2918 0.930 . S
C2928 C2927 1.400 . S
C2928 C2931 1.386 . S
H2929 C2945 0.930 . S
H2930 C2946 0.931 . S
C2931 H2919 0.929 . S
C2931 C2925 1.390 . S
C2931 C2928 1.386 . S
C2932 C2927 1.490 . S
C2932 C2934 1.395 . S
C2932 C2935 1.403 . S
H2933 C2939 0.930 . S
C2934 H2920 0.930 . S
C2934 C2932 1.395 . S
C2934 C2937 1.403 . S
C2935 C2932 1.403 . S
C2935 C2936 1.524 . S
C2935 C2939 1.400 . S
C2936 H2921 0.960 . S
C2936 H2922 0.960 . S
C2936 H2923 0.960 . S
C2936 C2935 1.524 . S
C2937 C2934 1.403 . S
C2937 C2938 1.392 . S
C2937 C2941 1.495 . S
C2938 C2937 1.392 . S
C2938 C2939 1.385 . S
C2938 C2940 1.478 . S
C2939 H2933 0.930 . S
C2939 C2935 1.400 . S
C2939 C2938 1.385 . S
C2940 C2938 1.478 . S
C2940 C2942 1.381 . S
C2940 C2946 1.383 . S
C2941 C2937 1.495 . S
C2941 H2947 0.959 . S
C2941 H2948 0.961 . S
C2941 H2949 0.960 . S
C2942 C2940 1.381 . S
C2942 C2943 1.394 . S
C2942 H2950 0.930 . S
C2943 C2942 1.394 . S
C2943 C2944 1.383 . S
C2943 H2951 0.929 . S
C2944 C2943 1.383 . S
C2944 C2945 1.377 . S
C2945 H2929 0.930 . S
C2945 C2944 1.377 . S
C2945 C2946 1.379 . S
C2946 H2930 0.931 . S
C2946 C2940 1.383 . S
C2946 C2945 1.379 . S
H2947 C2941 0.959 . S
H2948 C2941 0.961 . S
H2949 C2941 0.960 . S
H2950 C2942 0.930 . S
H2951 C2943 0.929 . S
H2952 C2960 0.929 . S
H2953 C2962 0.930 . S
H2954 C2964 0.930 . S
H2955 C2967 0.929 . S
H2956 C2970 0.930 . S
H2957 C2972 0.960 . S
H2958 C2972 0.960 . S
H2959 C2972 0.960 . S
C2960 H2952 0.929 . S
C2960 C2961 1.377 . S
C2960 C2962 1.384 . S
C2961 C2960 1.377 . S
C2961 C2967 1.390 . S
C2962 H2953 0.930 . S
C2962 C2960 1.384 . S
C2962 C2963 1.372 . S
C2963 C2962 1.372 . S
C2963 C2964 1.400 . S
C2963 C2968 1.490 . S
C2964 H2954 0.930 . S
C2964 C2963 1.400 . S
C2964 C2967 1.386 . S
H2965 C2981 0.930 . S
H2966 C2982 0.931 . S
C2967 H2955 0.929 . S
C2967 C2961 1.390 . S
C2967 C2964 1.386 . S
C2968 C2963 1.490 . S
C2968 C2970 1.395 . S
C2968 C2971 1.403 . S
H2969 C2975 0.930 . S
C2970 H2956 0.930 . S
C2970 C2968 1.395 . S
C2970 C2973 1.403 . S
C2971 C2968 1.403 . S
C2971 C2972 1.524 . S
C2971 C2975 1.400 . S
C2972 H2957 0.960 . S
C2972 H2958 0.960 . S
C2972 H2959 0.960 . S
C2972 C2971 1.524 . S
C2973 C2970 1.403 . S
C2973 C2974 1.392 . S
C2973 C2977 1.495 . S
C2974 C2973 1.392 . S
C2974 C2975 1.385 . S
C2974 C2976 1.478 . S
C2975 H2969 0.930 . S
C2975 C2971 1.400 . S
C2975 C2974 1.385 . S
C2976 C2974 1.478 . S
C2976 C2978 1.381 . S
C2976 C2982 1.383 . S
C2977 C2973 1.495 . S
C2977 H2983 0.959 . S
C2977 H2984 0.961 . S
C2977 H2985 0.960 . S
C2978 C2976 1.381 . S
C2978 C2979 1.394 . S
C2978 H2986 0.930 . S
C2979 C2978 1.394 . S
C2979 C2980 1.383 . S
C2979 H2987 0.929 . S
C2980 C2979 1.383 . S
C2980 C2981 1.377 . S
C2981 H2965 0.930 . S
C2981 C2980 1.377 . S
C2981 C2982 1.379 . S
C2982 H2966 0.931 . S
C2982 C2976 1.383 . S
C2982 C2981 1.379 . S
H2983 C2977 0.959 . S
H2984 C2977 0.961 . S
H2985 C2977 0.960 . S
H2986 C2978 0.930 . S
H2987 C2979 0.929 . S
H2988 C2996 0.929 . S
H2989 C2998 0.930 . S
H2990 C3000 0.930 . S
H2991 C3003 0.929 . S
H2992 C3006 0.930 . S
H2993 C3008 0.960 . S
H2994 C3008 0.960 . S
H2995 C3008 0.960 . S
C2996 H2988 0.929 . S
C2996 C2997 1.377 . S
C2996 C2998 1.384 . S
C2997 C2996 1.377 . S
C2997 C3003 1.390 . S
C2998 H2989 0.930 . S
C2998 C2996 1.384 . S
C2998 C2999 1.372 . S
C2999 C2998 1.372 . S
C2999 C3000 1.400 . S
C2999 C3004 1.490 . S
C3000 H2990 0.930 . S
C3000 C2999 1.400 . S
C3000 C3003 1.386 . S
H3001 C3017 0.930 . S
H3002 C3018 0.931 . S
C3003 H2991 0.929 . S
C3003 C2997 1.390 . S
C3003 C3000 1.386 . S
C3004 C2999 1.490 . S
C3004 C3006 1.395 . S
C3004 C3007 1.403 . S
H3005 C3011 0.930 . S
C3006 H2992 0.930 . S
C3006 C3004 1.395 . S
C3006 C3009 1.403 . S
C3007 C3004 1.403 . S
C3007 C3008 1.524 . S
C3007 C3011 1.400 . S
C3008 H2993 0.960 . S
C3008 H2994 0.960 . S
C3008 H2995 0.960 . S
C3008 C3007 1.524 . S
C3009 C3006 1.403 . S
C3009 C3010 1.392 . S
C3009 C3013 1.495 . S
C3010 C3009 1.392 . S
C3010 C3011 1.385 . S
C3010 C3012 1.478 . S
C3011 H3005 0.930 . S
C3011 C3007 1.400 . S
C3011 C3010 1.385 . S
C3012 C3010 1.478 . S
C3012 C3014 1.381 . S
C3012 C3018 1.383 . S
C3013 C3009 1.495 . S
C3013 H3019 0.959 . S
C3013 H3020 0.961 . S
C3013 H3021 0.960 . S
C3014 C3012 1.381 . S
C3014 C3015 1.394 . S
C3014 H3022 0.930 . S
C3015 C3014 1.394 . S
C3015 C3016 1.383 . S
C3015 H3023 0.929 . S
C3016 C3015 1.383 . S
C3016 C3017 1.377 . S
C3017 H3001 0.930 . S
C3017 C3016 1.377 . S
C3017 C3018 1.379 . S
C3018 H3002 0.931 . S
C3018 C3012 1.383 . S
C3018 C3017 1.379 . S
H3019 C3013 0.959 . S
H3020 C3013 0.961 . S
H3021 C3013 0.960 . S
H3022 C3014 0.930 . S
H3023 C3015 0.929 . S
H3024 C3032 0.929 . S
H3025 C3034 0.930 . S
H3026 C3036 0.930 . S
H3027 C3039 0.929 . S
H3028 C3042 0.930 . S
H3029 C3044 0.960 . S
H3030 C3044 0.960 . S
H3031 C3044 0.960 . S
C3032 H3024 0.929 . S
C3032 C3033 1.377 . S
C3032 C3034 1.384 . S
C3033 C3032 1.377 . S
C3033 C3039 1.390 . S
C3034 H3025 0.930 . S
C3034 C3032 1.384 . S
C3034 C3035 1.372 . S
C3035 C3034 1.372 . S
C3035 C3036 1.400 . S
C3035 C3040 1.490 . S
C3036 H3026 0.930 . S
C3036 C3035 1.400 . S
C3036 C3039 1.386 . S
H3037 C3053 0.930 . S
H3038 C3054 0.931 . S
C3039 H3027 0.929 . S
C3039 C3033 1.390 . S
C3039 C3036 1.386 . S
C3040 C3035 1.490 . S
C3040 C3042 1.395 . S
C3040 C3043 1.403 . S
H3041 C3047 0.930 . S
C3042 H3028 0.930 . S
C3042 C3040 1.395 . S
C3042 C3045 1.403 . S
C3043 C3040 1.403 . S
C3043 C3044 1.524 . S
C3043 C3047 1.400 . S
C3044 H3029 0.960 . S
C3044 H3030 0.960 . S
C3044 H3031 0.960 . S
C3044 C3043 1.524 . S
C3045 C3042 1.403 . S
C3045 C3046 1.392 . S
C3045 C3049 1.495 . S
C3046 C3045 1.392 . S
C3046 C3047 1.385 . S
C3046 C3048 1.478 . S
C3047 H3041 0.930 . S
C3047 C3043 1.400 . S
C3047 C3046 1.385 . S
C3048 C3046 1.478 . S
C3048 C3050 1.381 . S
C3048 C3054 1.383 . S
C3049 C3045 1.495 . S
C3049 H3055 0.959 . S
C3049 H3056 0.961 . S
C3049 H3057 0.960 . S
C3050 C3048 1.381 . S
C3050 C3051 1.394 . S
C3050 H3058 0.930 . S
C3051 C3050 1.394 . S
C3051 C3052 1.383 . S
C3051 H3059 0.929 . S
C3052 C3051 1.383 . S
C3052 C3053 1.377 . S
C3053 H3037 0.930 . S
C3053 C3052 1.377 . S
C3053 C3054 1.379 . S
C3054 H3038 0.931 . S
C3054 C3048 1.383 . S
C3054 C3053 1.379 . S
H3055 C3049 0.959 . S
H3056 C3049 0.961 . S
H3057 C3049 0.960 . S
H3058 C3050 0.930 . S
H3059 C3051 0.929 . S
H3060 C3068 0.929 . S
H3061 C3070 0.930 . S
H3062 C3072 0.930 . S
H3063 C3075 0.929 . S
H3064 C3078 0.930 . S
H3065 C3080 0.960 . S
H3066 C3080 0.960 . S
H3067 C3080 0.960 . S
C3068 H3060 0.929 . S
C3068 C3069 1.377 . S
C3068 C3070 1.384 . S
C3069 C3068 1.377 . S
C3069 C3075 1.390 . S
C3070 H3061 0.930 . S
C3070 C3068 1.384 . S
C3070 C3071 1.372 . S
C3071 C3070 1.372 . S
C3071 C3072 1.400 . S
C3071 C3076 1.490 . S
C3072 H3062 0.930 . S
C3072 C3071 1.400 . S
C3072 C3075 1.386 . S
H3073 C3089 0.930 . S
H3074 C3090 0.931 . S
C3075 H3063 0.929 . S
C3075 C3069 1.390 . S
C3075 C3072 1.386 . S
C3076 C3071 1.490 . S
C3076 C3078 1.395 . S
C3076 C3079 1.403 . S
H3077 C3083 0.930 . S
C3078 H3064 0.930 . S
C3078 C3076 1.395 . S
C3078 C3081 1.403 . S
C3079 C3076 1.403 . S
C3079 C3080 1.524 . S
C3079 C3083 1.400 . S
C3080 H3065 0.960 . S
C3080 H3066 0.960 . S
C3080 H3067 0.960 . S
C3080 C3079 1.524 . S
C3081 C3078 1.403 . S
C3081 C3082 1.392 . S
C3081 C3085 1.495 . S
C3082 C3081 1.392 . S
C3082 C3083 1.385 . S
C3082 C3084 1.478 . S
C3083 H3077 0.930 . S
C3083 C3079 1.400 . S
C3083 C3082 1.385 . S
C3084 C3082 1.478 . S
C3084 C3086 1.381 . S
C3084 C3090 1.383 . S
C3085 C3081 1.495 . S
C3085 H3091 0.959 . S
C3085 H3092 0.961 . S
C3085 H3093 0.960 . S
C3086 C3084 1.381 . S
C3086 C3087 1.394 . S
C3086 H3094 0.930 . S
C3087 C3086 1.394 . S
C3087 C3088 1.383 . S
C3087 H3095 0.929 . S
C3088 C3087 1.383 . S
C3088 C3089 1.377 . S
C3089 H3073 0.930 . S
C3089 C3088 1.377 . S
C3089 C3090 1.379 . S
C3090 H3074 0.931 . S
C3090 C3084 1.383 . S
C3090 C3089 1.379 . S
H3091 C3085 0.959 . S
H3092 C3085 0.961 . S
H3093 C3085 0.960 . S
H3094 C3086 0.930 . S
H3095 C3087 0.929 . S
H3096 C3104 0.929 . S
H3097 C3106 0.930 . S
H3098 C3108 0.930 . S
H3099 C3111 0.929 . S
H3100 C3114 0.930 . S
H3101 C3116 0.960 . S
H3102 C3116 0.960 . S
H3103 C3116 0.960 . S
C3104 H3096 0.929 . S
C3104 C3105 1.377 . S
C3104 C3106 1.384 . S
C3105 C3104 1.377 . S
C3105 C3111 1.390 . S
C3106 H3097 0.930 . S
C3106 C3104 1.384 . S
C3106 C3107 1.372 . S
C3107 C3106 1.372 . S
C3107 C3108 1.400 . S
C3107 C3112 1.490 . S
C3108 H3098 0.930 . S
C3108 C3107 1.400 . S
C3108 C3111 1.386 . S
H3109 C3125 0.930 . S
H3110 C3126 0.931 . S
C3111 H3099 0.929 . S
C3111 C3105 1.390 . S
C3111 C3108 1.386 . S
C3112 C3107 1.490 . S
C3112 C3114 1.395 . S
C3112 C3115 1.403 . S
H3113 C3119 0.930 . S
C3114 H3100 0.930 . S
C3114 C3112 1.395 . S
C3114 C3117 1.403 . S
C3115 C3112 1.403 . S
C3115 C3116 1.524 . S
C3115 C3119 1.400 . S
C3116 H3101 0.960 . S
C3116 H3102 0.960 . S
C3116 H3103 0.960 . S
C3116 C3115 1.524 . S
C3117 C3114 1.403 . S
C3117 C3118 1.392 . S
C3117 C3121 1.495 . S
C3118 C3117 1.392 . S
C3118 C3119 1.385 . S
C3118 C3120 1.478 . S
C3119 H3113 0.930 . S
C3119 C3115 1.400 . S
C3119 C3118 1.385 . S
C3120 C3118 1.478 . S
C3120 C3122 1.381 . S
C3120 C3126 1.383 . S
C3121 C3117 1.495 . S
C3121 H3127 0.959 . S
C3121 H3128 0.961 . S
C3121 H3129 0.960 . S
C3122 C3120 1.381 . S
C3122 C3123 1.394 . S
C3122 H3130 0.930 . S
C3123 C3122 1.394 . S
C3123 C3124 1.383 . S
C3123 H3131 0.929 . S
C3124 C3123 1.383 . S
C3124 C3125 1.377 . S
C3125 H3109 0.930 . S
C3125 C3124 1.377 . S
C3125 C3126 1.379 . S
C3126 H3110 0.931 . S
C3126 C3120 1.383 . S
C3126 C3125 1.379 . S
H3127 C3121 0.959 . S
H3128 C3121 0.961 . S
H3129 C3121 0.960 . S
H3130 C3122 0.930 . S
H3131 C3123 0.929 . S
H3132 C3140 0.929 . S
H3133 C3142 0.930 . S
H3134 C3144 0.930 . S
H3135 C3147 0.929 . S
H3136 C3150 0.930 . S
H3137 C3152 0.960 . S
H3138 C3152 0.960 . S
H3139 C3152 0.960 . S
C3140 H3132 0.929 . S
C3140 C3141 1.377 . S
C3140 C3142 1.384 . S
C3141 C3140 1.377 . S
C3141 C3147 1.390 . S
C3142 H3133 0.930 . S
C3142 C3140 1.384 . S
C3142 C3143 1.372 . S
C3143 C3142 1.372 . S
C3143 C3144 1.400 . S
C3143 C3148 1.490 . S
C3144 H3134 0.930 . S
C3144 C3143 1.400 . S
C3144 C3147 1.386 . S
H3145 C3161 0.930 . S
H3146 C3162 0.931 . S
C3147 H3135 0.929 . S
C3147 C3141 1.390 . S
C3147 C3144 1.386 . S
C3148 C3143 1.490 . S
C3148 C3150 1.395 . S
C3148 C3151 1.403 . S
H3149 C3155 0.930 . S
C3150 H3136 0.930 . S
C3150 C3148 1.395 . S
C3150 C3153 1.403 . S
C3151 C3148 1.403 . S
C3151 C3152 1.524 . S
C3151 C3155 1.400 . S
C3152 H3137 0.960 . S
C3152 H3138 0.960 . S
C3152 H3139 0.960 . S
C3152 C3151 1.524 . S
C3153 C3150 1.403 . S
C3153 C3154 1.392 . S
C3153 C3157 1.495 . S
C3154 C3153 1.392 . S
C3154 C3155 1.385 . S
C3154 C3156 1.478 . S
C3155 H3149 0.930 . S
C3155 C3151 1.400 . S
C3155 C3154 1.385 . S
C3156 C3154 1.478 . S
C3156 C3158 1.381 . S
C3156 C3162 1.383 . S
C3157 C3153 1.495 . S
C3157 H3163 0.959 . S
C3157 H3164 0.961 . S
C3157 H3165 0.960 . S
C3158 C3156 1.381 . S
C3158 C3159 1.394 . S
C3158 H3166 0.930 . S
C3159 C3158 1.394 . S
C3159 C3160 1.383 . S
C3159 H3167 0.929 . S
C3160 C3159 1.383 . S
C3160 C3161 1.377 . S
C3161 H3145 0.930 . S
C3161 C3160 1.377 . S
C3161 C3162 1.379 . S
C3162 H3146 0.931 . S
C3162 C3156 1.383 . S
C3162 C3161 1.379 . S
H3163 C3157 0.959 . S
H3164 C3157 0.961 . S
H3165 C3157 0.960 . S
H3166 C3158 0.930 . S
H3167 C3159 0.929 . S
H3168 C3176 0.929 . S
H3169 C3178 0.930 . S
H3170 C3180 0.930 . S
H3171 C3183 0.929 . S
H3172 C3186 0.930 . S
H3173 C3188 0.960 . S
H3174 C3188 0.960 . S
H3175 C3188 0.960 . S
C3176 H3168 0.929 . S
C3176 C3177 1.377 . S
C3176 C3178 1.384 . S
C3177 C3176 1.377 . S
C3177 C3183 1.390 . S
C3178 H3169 0.930 . S
C3178 C3176 1.384 . S
C3178 C3179 1.372 . S
C3179 C3178 1.372 . S
C3179 C3180 1.400 . S
C3179 C3184 1.490 . S
C3180 H3170 0.930 . S
C3180 C3179 1.400 . S
C3180 C3183 1.386 . S
H3181 C3197 0.930 . S
H3182 C3198 0.931 . S
C3183 H3171 0.929 . S
C3183 C3177 1.390 . S
C3183 C3180 1.386 . S
C3184 C3179 1.490 . S
C3184 C3186 1.395 . S
C3184 C3187 1.403 . S
H3185 C3191 0.930 . S
C3186 H3172 0.930 . S
C3186 C3184 1.395 . S
C3186 C3189 1.403 . S
C3187 C3184 1.403 . S
C3187 C3188 1.524 . S
C3187 C3191 1.400 . S
C3188 H3173 0.960 . S
C3188 H3174 0.960 . S
C3188 H3175 0.960 . S
C3188 C3187 1.524 . S
C3189 C3186 1.403 . S
C3189 C3190 1.392 . S
C3189 C3193 1.495 . S
C3190 C3189 1.392 . S
C3190 C3191 1.385 . S
C3190 C3192 1.478 . S
C3191 H3185 0.930 . S
C3191 C3187 1.400 . S
C3191 C3190 1.385 . S
C3192 C3190 1.478 . S
C3192 C3194 1.381 . S
C3192 C3198 1.383 . S
C3193 C3189 1.495 . S
C3193 H3199 0.959 . S
C3193 H3200 0.961 . S
C3193 H3201 0.960 . S
C3194 C3192 1.381 . S
C3194 C3195 1.394 . S
C3194 H3202 0.930 . S
C3195 C3194 1.394 . S
C3195 C3196 1.383 . S
C3195 H3203 0.929 . S
C3196 C3195 1.383 . S
C3196 C3197 1.377 . S
C3197 H3181 0.930 . S
C3197 C3196 1.377 . S
C3197 C3198 1.379 . S
C3198 H3182 0.931 . S
C3198 C3192 1.383 . S
C3198 C3197 1.379 . S
H3199 C3193 0.959 . S
H3200 C3193 0.961 . S
H3201 C3193 0.960 . S
H3202 C3194 0.930 . S
H3203 C3195 0.929 . S
H3204 C3212 0.929 . S
H3205 C3214 0.930 . S
H3206 C3216 0.930 . S
H3207 C3219 0.929 . S
H3208 C3222 0.930 . S
H3209 C3224 0.960 . S
H3210 C3224 0.960 . S
H3211 C3224 0.960 . S
C3212 H3204 0.929 . S
C3212 C3213 1.377 . S
C3212 C3214 1.384 . S
C3213 C3212 1.377 . S
C3213 C3219 1.390 . S
C3214 H3205 0.930 . S
C3214 C3212 1.384 . S
C3214 C3215 1.372 . S
C3215 C3214 1.372 . S
C3215 C3216 1.400 . S
C3215 C3220 1.490 . S
C3216 H3206 0.930 . S
C3216 C3215 1.400 . S
C3216 C3219 1.386 . S
H3217 C3233 0.930 . S
H3218 C3234 0.931 . S
C3219 H3207 0.929 . S
C3219 C3213 1.390 . S
C3219 C3216 1.386 . S
C3220 C3215 1.490 . S
C3220 C3222 1.395 . S
C3220 C3223 1.403 . S
H3221 C3227 0.930 . S
C3222 H3208 0.930 . S
C3222 C3220 1.395 . S
C3222 C3225 1.403 . S
C3223 C3220 1.403 . S
C3223 C3224 1.524 . S
C3223 C3227 1.400 . S
C3224 H3209 0.960 . S
C3224 H3210 0.960 . S
C3224 H3211 0.960 . S
C3224 C3223 1.524 . S
C3225 C3222 1.403 . S
C3225 C3226 1.392 . S
C3225 C3229 1.495 . S
C3226 C3225 1.392 . S
C3226 C3227 1.385 . S
C3226 C3228 1.478 . S
C3227 H3221 0.930 . S
C3227 C3223 1.400 . S
C3227 C3226 1.385 . S
C3228 C3226 1.478 . S
C3228 C3230 1.381 . S
C3228 C3234 1.383 . S
C3229 C3225 1.495 . S
C3229 H3235 0.959 . S
C3229 H3236 0.961 . S
C3229 H3237 0.960 . S
C3230 C3228 1.381 . S
C3230 C3231 1.394 . S
C3230 H3238 0.930 . S
C3231 C3230 1.394 . S
C3231 C3232 1.383 . S
C3231 H3239 0.929 . S
C3232 C3231 1.383 . S
C3232 C3233 1.377 . S
C3233 H3217 0.930 . S
C3233 C3232 1.377 . S
C3233 C3234 1.379 . S
C3234 H3218 0.931 . S
C3234 C3228 1.383 . S
C3234 C3233 1.379 . S
H3235 C3229 0.959 . S
H3236 C3229 0.961 . S
H3237 C3229 0.960 . S
H3238 C3230 0.930 . S
H3239 C3231 0.929 . S
H3240 C3248 0.929 . S
H3241 C3250 0.930 . S
H3242 C3252 0.930 . S
H3243 C3255 0.929 . S
H3244 C3258 0.930 . S
H3245 C3260 0.960 . S
H3246 C3260 0.960 . S
H3247 C3260 0.960 . S
C3248 H3240 0.929 . S
C3248 C3249 1.377 . S
C3248 C3250 1.384 . S
C3249 C3248 1.377 . S
C3249 C3255 1.390 . S
C3250 H3241 0.930 . S
C3250 C3248 1.384 . S
C3250 C3251 1.372 . S
C3251 C3250 1.372 . S
C3251 C3252 1.400 . S
C3251 C3256 1.490 . S
C3252 H3242 0.930 . S
C3252 C3251 1.400 . S
C3252 C3255 1.386 . S
H3253 C3269 0.930 . S
H3254 C3270 0.931 . S
C3255 H3243 0.929 . S
C3255 C3249 1.390 . S
C3255 C3252 1.386 . S
C3256 C3251 1.490 . S
C3256 C3258 1.395 . S
C3256 C3259 1.403 . S
H3257 C3263 0.930 . S
C3258 H3244 0.930 . S
C3258 C3256 1.395 . S
C3258 C3261 1.403 . S
C3259 C3256 1.403 . S
C3259 C3260 1.524 . S
C3259 C3263 1.400 . S
C3260 H3245 0.960 . S
C3260 H3246 0.960 . S
C3260 H3247 0.960 . S
C3260 C3259 1.524 . S
C3261 C3258 1.403 . S
C3261 C3262 1.392 . S
C3261 C3265 1.495 . S
C3262 C3261 1.392 . S
C3262 C3263 1.385 . S
C3262 C3264 1.478 . S
C3263 H3257 0.930 . S
C3263 C3259 1.400 . S
C3263 C3262 1.385 . S
C3264 C3262 1.478 . S
C3264 C3266 1.381 . S
C3264 C3270 1.383 . S
C3265 C3261 1.495 . S
C3265 H3271 0.959 . S
C3265 H3272 0.961 . S
C3265 H3273 0.960 . S
C3266 C3264 1.381 . S
C3266 C3267 1.394 . S
C3266 H3274 0.930 . S
C3267 C3266 1.394 . S
C3267 C3268 1.383 . S
C3267 H3275 0.929 . S
C3268 C3267 1.383 . S
C3268 C3269 1.377 . S
C3269 H3253 0.930 . S
C3269 C3268 1.377 . S
C3269 C3270 1.379 . S
C3270 H3254 0.931 . S
C3270 C3264 1.383 . S
C3270 C3269 1.379 . S
H3271 C3265 0.959 . S
H3272 C3265 0.961 . S
H3273 C3265 0.960 . S
H3274 C3266 0.930 . S
H3275 C3267 0.929 . S
H3276 C3284 0.929 . S
H3277 C3286 0.930 . S
H3278 C3288 0.930 . S
H3279 C3291 0.929 . S
H3280 C3294 0.930 . S
H3281 C3296 0.960 . S
H3282 C3296 0.960 . S
H3283 C3296 0.960 . S
C3284 H3276 0.929 . S
C3284 C3285 1.377 . S
C3284 C3286 1.384 . S
C3285 C3284 1.377 . S
C3285 C3291 1.390 . S
C3286 H3277 0.930 . S
C3286 C3284 1.384 . S
C3286 C3287 1.372 . S
C3287 C3286 1.372 . S
C3287 C3288 1.400 . S
C3287 C3292 1.490 . S
C3288 H3278 0.930 . S
C3288 C3287 1.400 . S
C3288 C3291 1.386 . S
H3289 C3305 0.930 . S
H3290 C3306 0.931 . S
C3291 H3279 0.929 . S
C3291 C3285 1.390 . S
C3291 C3288 1.386 . S
C3292 C3287 1.490 . S
C3292 C3294 1.395 . S
C3292 C3295 1.403 . S
H3293 C3299 0.930 . S
C3294 H3280 0.930 . S
C3294 C3292 1.395 . S
C3294 C3297 1.403 . S
C3295 C3292 1.403 . S
C3295 C3296 1.524 . S
C3295 C3299 1.400 . S
C3296 H3281 0.960 . S
C3296 H3282 0.960 . S
C3296 H3283 0.960 . S
C3296 C3295 1.524 . S
C3297 C3294 1.403 . S
C3297 C3298 1.392 . S
C3297 C3301 1.495 . S
C3298 C3297 1.392 . S
C3298 C3299 1.385 . S
C3298 C3300 1.478 . S
C3299 H3293 0.930 . S
C3299 C3295 1.400 . S
C3299 C3298 1.385 . S
C3300 C3298 1.478 . S
C3300 C3302 1.381 . S
C3300 C3306 1.383 . S
C3301 C3297 1.495 . S
C3301 H3307 0.959 . S
C3301 H3308 0.961 . S
C3301 H3309 0.960 . S
C3302 C3300 1.381 . S
C3302 C3303 1.394 . S
C3302 H3310 0.930 . S
C3303 C3302 1.394 . S
C3303 C3304 1.383 . S
C3303 H3311 0.929 . S
C3304 C3303 1.383 . S
C3304 C3305 1.377 . S
C3305 H3289 0.930 . S
C3305 C3304 1.377 . S
C3305 C3306 1.379 . S
C3306 H3290 0.931 . S
C3306 C3300 1.383 . S
C3306 C3305 1.379 . S
H3307 C3301 0.959 . S
H3308 C3301 0.961 . S
H3309 C3301 0.960 . S
H3310 C3302 0.930 . S
H3311 C3303 0.929 . S
H3312 C3320 0.929 . S
H3313 C3322 0.930 . S
H3314 C3324 0.930 . S
H3315 C3327 0.929 . S
H3316 C3330 0.930 . S
H3317 C3332 0.960 . S
H3318 C3332 0.960 . S
H3319 C3332 0.960 . S
C3320 H3312 0.929 . S
C3320 C3321 1.377 . S
C3320 C3322 1.384 . S
C3321 C3320 1.377 . S
C3321 C3327 1.390 . S
C3322 H3313 0.930 . S
C3322 C3320 1.384 . S
C3322 C3323 1.372 . S
C3323 C3322 1.372 . S
C3323 C3324 1.400 . S
C3323 C3328 1.490 . S
C3324 H3314 0.930 . S
C3324 C3323 1.400 . S
C3324 C3327 1.386 . S
H3325 C3341 0.930 . S
H3326 C3342 0.931 . S
C3327 H3315 0.929 . S
C3327 C3321 1.390 . S
C3327 C3324 1.386 . S
C3328 C3323 1.490 . S
C3328 C3330 1.395 . S
C3328 C3331 1.403 . S
H3329 C3335 0.930 . S
C3330 H3316 0.930 . S
C3330 C3328 1.395 . S
C3330 C3333 1.403 . S
C3331 C3328 1.403 . S
C3331 C3332 1.524 . S
C3331 C3335 1.400 . S
C3332 H3317 0.960 . S
C3332 H3318 0.960 . S
C3332 H3319 0.960 . S
C3332 C3331 1.524 . S
C3333 C3330 1.403 . S
C3333 C3334 1.392 . S
C3333 C3337 1.495 . S
C3334 C3333 1.392 . S
C3334 C3335 1.385 . S
C3334 C3336 1.478 . S
C3335 H3329 0.930 . S
C3335 C3331 1.400 . S
C3335 C3334 1.385 . S
C3336 C3334 1.478 . S
C3336 C3338 1.381 . S
C3336 C3342 1.383 . S
C3337 C3333 1.495 . S
C3337 H3343 0.959 . S
C3337 H3344 0.961 . S
C3337 H3345 0.960 . S
C3338 C3336 1.381 . S
C3338 C3339 1.394 . S
C3338 H3346 0.930 . S
C3339 C3338 1.394 . S
C3339 C3340 1.383 . S
C3339 H3347 0.929 . S
C3340 C3339 1.383 . S
C3340 C3341 1.377 . S
C3341 H3325 0.930 . S
C3341 C3340 1.377 . S
C3341 C3342 1.379 . S
C3342 H3326 0.931 . S
C3342 C3336 1.383 . S
C3342 C3341 1.379 . S
H3343 C3337 0.959 . S
H3344 C3337 0.961 . S
H3345 C3337 0.960 . S
H3346 C3338 0.930 . S
H3347 C3339 0.929 . S
H3348 C3356 0.929 . S
H3349 C3358 0.930 . S
H3350 C3360 0.930 . S
H3351 C3363 0.929 . S
H3352 C3366 0.930 . S
H3353 C3368 0.960 . S
H3354 C3368 0.960 . S
H3355 C3368 0.960 . S
C3356 H3348 0.929 . S
C3356 C3357 1.377 . S
C3356 C3358 1.384 . S
C3357 C3356 1.377 . S
C3357 C3363 1.390 . S
C3358 H3349 0.930 . S
C3358 C3356 1.384 . S
C3358 C3359 1.372 . S
C3359 C3358 1.372 . S
C3359 C3360 1.400 . S
C3359 C3364 1.490 . S
C3360 H3350 0.930 . S
C3360 C3359 1.400 . S
C3360 C3363 1.386 . S
H3361 C3377 0.930 . S
H3362 C3378 0.931 . S
C3363 H3351 0.929 . S
C3363 C3357 1.390 . S
C3363 C3360 1.386 . S
C3364 C3359 1.490 . S
C3364 C3366 1.395 . S
C3364 C3367 1.403 . S
H3365 C3371 0.930 . S
C3366 H3352 0.930 . S
C3366 C3364 1.395 . S
C3366 C3369 1.403 . S
C3367 C3364 1.403 . S
C3367 C3368 1.524 . S
C3367 C3371 1.400 . S
C3368 H3353 0.960 . S
C3368 H3354 0.960 . S
C3368 H3355 0.960 . S
C3368 C3367 1.524 . S
C3369 C3366 1.403 . S
C3369 C3370 1.392 . S
C3369 C3373 1.495 . S
C3370 C3369 1.392 . S
C3370 C3371 1.385 . S
C3370 C3372 1.478 . S
C3371 H3365 0.930 . S
C3371 C3367 1.400 . S
C3371 C3370 1.385 . S
C3372 C3370 1.478 . S
C3372 C3374 1.381 . S
C3372 C3378 1.383 . S
C3373 C3369 1.495 . S
C3373 H3379 0.959 . S
C3373 H3380 0.961 . S
C3373 H3381 0.960 . S
C3374 C3372 1.381 . S
C3374 C3375 1.394 . S
C3374 H3382 0.930 . S
C3375 C3374 1.394 . S
C3375 C3376 1.383 . S
C3375 H3383 0.929 . S
C3376 C3375 1.383 . S
C3376 C3377 1.377 . S
C3377 H3361 0.930 . S
C3377 C3376 1.377 . S
C3377 C3378 1.379 . S
C3378 H3362 0.931 . S
C3378 C3372 1.383 . S
C3378 C3377 1.379 . S
H3379 C3373 0.959 . S
H3380 C3373 0.961 . S
H3381 C3373 0.960 . S
H3382 C3374 0.930 . S
H3383 C3375 0.929 . S
H3384 C3392 0.929 . S
H3385 C3394 0.930 . S
H3386 C3396 0.930 . S
H3387 C3399 0.929 . S
H3388 C3402 0.930 . S
H3389 C3404 0.960 . S
H3390 C3404 0.960 . S
H3391 C3404 0.960 . S
C3392 H3384 0.929 . S
C3392 C3393 1.377 . S
C3392 C3394 1.384 . S
C3393 C3392 1.377 . S
C3393 C3399 1.390 . S
C3394 H3385 0.930 . S
C3394 C3392 1.384 . S
C3394 C3395 1.372 . S
C3395 C3394 1.372 . S
C3395 C3396 1.400 . S
C3395 C3400 1.490 . S
C3396 H3386 0.930 . S
C3396 C3395 1.400 . S
C3396 C3399 1.386 . S
H3397 C3413 0.930 . S
H3398 C3414 0.931 . S
C3399 H3387 0.929 . S
C3399 C3393 1.390 . S
C3399 C3396 1.386 . S
C3400 C3395 1.490 . S
C3400 C3402 1.395 . S
C3400 C3403 1.403 . S
H3401 C3407 0.930 . S
C3402 H3388 0.930 . S
C3402 C3400 1.395 . S
C3402 C3405 1.403 . S
C3403 C3400 1.403 . S
C3403 C3404 1.524 . S
C3403 C3407 1.400 . S
C3404 H3389 0.960 . S
C3404 H3390 0.960 . S
C3404 H3391 0.960 . S
C3404 C3403 1.524 . S
C3405 C3402 1.403 . S
C3405 C3406 1.392 . S
C3405 C3409 1.495 . S
C3406 C3405 1.392 . S
C3406 C3407 1.385 . S
C3406 C3408 1.478 . S
C3407 H3401 0.930 . S
C3407 C3403 1.400 . S
C3407 C3406 1.385 . S
C3408 C3406 1.478 . S
C3408 C3410 1.381 . S
C3408 C3414 1.383 . S
C3409 C3405 1.495 . S
C3409 H3415 0.959 . S
C3409 H3416 0.961 . S
C3409 H3417 0.960 . S
C3410 C3408 1.381 . S
C3410 C3411 1.394 . S
C3410 H3418 0.930 . S
C3411 C3410 1.394 . S
C3411 C3412 1.383 . S
C3411 H3419 0.929 . S
C3412 C3411 1.383 . S
C3412 C3413 1.377 . S
C3413 H3397 0.930 . S
C3413 C3412 1.377 . S
C3413 C3414 1.379 . S
C3414 H3398 0.931 . S
C3414 C3408 1.383 . S
C3414 C3413 1.379 . S
H3415 C3409 0.959 . S
H3416 C3409 0.961 . S
H3417 C3409 0.960 . S
H3418 C3410 0.930 . S
H3419 C3411 0.929 . S
H3420 C3428 0.929 . S
H3421 C3430 0.930 . S
H3422 C3432 0.930 . S
H3423 C3435 0.929 . S
H3424 C3438 0.930 . S
H3425 C3440 0.960 . S
H3426 C3440 0.960 . S
H3427 C3440 0.960 . S
C3428 H3420 0.929 . S
C3428 C3429 1.377 . S
C3428 C3430 1.384 . S
C3429 C3428 1.377 . S
C3429 C3435 1.390 . S
C3430 H3421 0.930 . S
C3430 C3428 1.384 . S
C3430 C3431 1.372 . S
C3431 C3430 1.372 . S
C3431 C3432 1.400 . S
C3431 C3436 1.490 . S
C3432 H3422 0.930 . S
C3432 C3431 1.400 . S
C3432 C3435 1.386 . S
H3433 C3449 0.930 . S
H3434 C3450 0.931 . S
C3435 H3423 0.929 . S
C3435 C3429 1.390 . S
C3435 C3432 1.386 . S
C3436 C3431 1.490 . S
C3436 C3438 1.395 . S
C3436 C3439 1.403 . S
H3437 C3443 0.930 . S
C3438 H3424 0.930 . S
C3438 C3436 1.395 . S
C3438 C3441 1.403 . S
C3439 C3436 1.403 . S
C3439 C3440 1.524 . S
C3439 C3443 1.400 . S
C3440 H3425 0.960 . S
C3440 H3426 0.960 . S
C3440 H3427 0.960 . S
C3440 C3439 1.524 . S
C3441 C3438 1.403 . S
C3441 C3442 1.392 . S
C3441 C3445 1.495 . S
C3442 C3441 1.392 . S
C3442 C3443 1.385 . S
C3442 C3444 1.478 . S
C3443 H3437 0.930 . S
C3443 C3439 1.400 . S
C3443 C3442 1.385 . S
C3444 C3442 1.478 . S
C3444 C3446 1.381 . S
C3444 C3450 1.383 . S
C3445 C3441 1.495 . S
C3445 H3451 0.959 . S
C3445 H3452 0.961 . S
C3445 H3453 0.960 . S
C3446 C3444 1.381 . S
C3446 C3447 1.394 . S
C3446 H3454 0.930 . S
C3447 C3446 1.394 . S
C3447 C3448 1.383 . S
C3447 H3455 0.929 . S
C3448 C3447 1.383 . S
C3448 C3449 1.377 . S
C3449 H3433 0.930 . S
C3449 C3448 1.377 . S
C3449 C3450 1.379 . S
C3450 H3434 0.931 . S
C3450 C3444 1.383 . S
C3450 C3449 1.379 . S
H3451 C3445 0.959 . S
H3452 C3445 0.961 . S
H3453 C3445 0.960 . S
H3454 C3446 0.930 . S
H3455 C3447 0.929 . S
C1161 C292 1.306 . S
C1180 C4 1.312 . S
C1197 C904 1.303 . S
C1216 C40 1.289 . S
C1233 C364 1.306 . S
C1252 C76 1.309 . S
C1269 C976 1.302 . S
C1288 C112 1.307 . S
C1305 C436 1.306 . S
C1324 C148 1.313 . S
C1341 C184 1.304 . S
C1360 C1048 1.291 . S
C1377 C220 1.302 . S
C1396 C508 1.288 . S
C1413 C256 1.305 . S
C1432 C1120 1.314 . S
C1449 C616 1.302 . S
C1468 C328 1.306 . S
C1485 C688 1.301 . S
C1504 C400 1.299 . S
C1521 C472 1.301 . S
C1540 C760 1.298 . S
C1557 C544 1.306 . S
C1576 C832 1.313 . S
C1593 C580 1.303 . S
C1612 C868 1.288 . S
C1629 C940 1.305 . S
C1648 C652 1.293 . S
C1665 C724 1.303 . S
C1684 C1012 1.311 . S
C1701 C1084 1.302 . S
C1720 C796 1.289 . S
C1737 C650 1.496 . S
C1756 C2 1.483 . S
C1773 C686 1.495 . S
C1792 C38 1.481 . S
C1809 C74 1.496 . S
C1828 C578 1.479 . S
C1845 C110 1.496 . S
C1864 C614 1.478 . S
C1881 C794 1.494 . S
C1900 C146 1.495 . S
C1917 C182 1.492 . S
C1936 C830 1.502 . S
C1953 C722 1.496 . S
C1972 C218 1.478 . S
C1989 C758 1.492 . S
C2008 C254 1.503 . S
C2025 C290 1.491 . S
C2044 C938 1.481 . S
C2061 C974 1.496 . S
C2080 C326 1.500 . S
C2097 C362 1.495 . S
C2116 C866 1.500 . S
C2133 C398 1.495 . S
C2152 C902 1.491 . S
C2169 C434 1.493 . S
C2188 C1082 1.491 . S
C2205 C470 1.496 . S
C2224 C1118 1.503 . S
C2241 C1010 1.493 . S
C2260 C506 1.494 . S
C2277 C1046 1.495 . S
C2296 C542 1.501 . S
C2313 C230 1.585 . S
C2332 C14 1.598 . S
C2349 C266 1.591 . S
C2368 C50 1.610 . S
C2385 C158 1.587 . S
C2404 C86 1.560 . S
C2421 C122 1.593 . S
C2440 C194 1.579 . S
C2457 C518 1.584 . S
C2476 C302 1.576 . S
C2493 C554 1.585 . S
C2512 C338 1.588 . S
C2529 C446 1.584 . S
C2548 C374 1.579 . S
C2565 C482 1.592 . S
C2584 C410 1.583 . S
C2601 C806 1.588 . S
C2620 C590 1.610 . S
C2637 C842 1.586 . S
C2656 C626 1.602 . S
C2673 C662 1.587 . S
C2692 C734 1.560 . S
C2709 C698 1.592 . S
C2728 C770 1.609 . S
C2745 C1094 1.594 . S
C2764 C878 1.609 . S
C2781 C1130 1.584 . S
C2800 C914 1.583 . S
C2817 C950 1.593 . S
C2836 C1022 1.611 . S
C2853 C986 1.594 . S
C2872 C1058 1.608 . S
C2889 C3 1.433 . S
C2908 C759 1.434 . S
C2925 C795 1.431 . S
C2944 C39 1.423 . S
C2961 C831 1.430 . S
C2980 C75 1.423 . S
C2997 C111 1.432 . S
C3016 C723 1.430 . S
C3033 C687 1.432 . S
C3052 C147 1.433 . S
C3069 C183 1.431 . S
C3088 C579 1.425 . S
C3105 C615 1.433 . S
C3124 C219 1.433 . S
C3141 C255 1.431 . S
C3160 C651 1.425 . S
C3177 C1047 1.432 . S
C3196 C291 1.423 . S
C3213 C1083 1.431 . S
C3232 C327 1.434 . S
C3249 C363 1.430 . S
C3268 C1119 1.432 . S
C3285 C1011 1.431 . S
C3304 C399 1.434 . S
C3321 C975 1.432 . S
C3340 C435 1.425 . S
C3357 C471 1.432 . S
C3376 C867 1.430 . S
C3393 C903 1.431 . S
C3412 C507 1.434 . S
C3429 C543 1.431 . S
C3448 C939 1.434 . S
