# Generated by pormake.
# Topology sod, (4)-cn, num edge types: 1
# Building blocks:
#     Node 0, Type 0, BuildingBlock: AZAVOO_clean_sbu_0, # of connection points: 4
#     Node 1, Type 0, BuildingBlock: AZAVOO_clean_sbu_0, # of connection points: 4
#     Node 2, Type 0, BuildingBlock: AZAVOO_clean_sbu_0, # of connection points: 4
#     Node 3, Type 0, BuildingBlock: AZAVOO_clean_sbu_0, # of connection points: 4
#     Node 4, Type 0, BuildingBlock: AZAVOO_clean_sbu_0, # of connection points: 4
#     Node 5, Type 0, BuildingBlock: AZAVOO_clean_sbu_0, # of connection points: 4
#     Node 6, Type 0, BuildingBlock: AZAVOO_clean_sbu_0, # of connection points: 4
#     Node 7, Type 0, BuildingBlock: AZAVOO_clean_sbu_0, # of connection points: 4
#     Node 8, Type 0, BuildingBlock: AZAVOO_clean_sbu_0, # of connection points: 4
#     Node 9, Type 0, BuildingBlock: AZAVOO_clean_sbu_0, # of connection points: 4
#     Node 10, Type 0, BuildingBlock: AZAVOO_clean_sbu_0, # of connection points: 4
#     Node 11, Type 0, BuildingBlock: AZAVOO_clean_sbu_0, # of connection points: 4
#     Edge 12, Type (0, 0), BuildingBlock: OJICUG_clean_linker_0, # of connection points: 2
#     Edge 13, Type (0, 0), BuildingBlock: OJICUG_clean_linker_0, # of connection points: 2
#     Edge 14, Type (0, 0), BuildingBlock: OJICUG_clean_linker_0, # of connection points: 2
#     Edge 15, Type (0, 0), BuildingBlock: OJICUG_clean_linker_0, # of connection points: 2
#     Edge 16, Type (0, 0), BuildingBlock: OJICUG_clean_linker_0, # of connection points: 2
#     Edge 17, Type (0, 0), BuildingBlock: OJICUG_clean_linker_0, # of connection points: 2
#     Edge 18, Type (0, 0), BuildingBlock: OJICUG_clean_linker_0, # of connection points: 2
#     Edge 19, Type (0, 0), BuildingBlock: OJICUG_clean_linker_0, # of connection points: 2
#     Edge 20, Type (0, 0), BuildingBlock: OJICUG_clean_linker_0, # of connection points: 2
#     Edge 21, Type (0, 0), BuildingBlock: OJICUG_clean_linker_0, # of connection points: 2
#     Edge 22, Type (0, 0), BuildingBlock: OJICUG_clean_linker_0, # of connection points: 2
#     Edge 23, Type (0, 0), BuildingBlock: OJICUG_clean_linker_0, # of connection points: 2
#     Edge 24, Type (0, 0), BuildingBlock: OJICUG_clean_linker_0, # of connection points: 2
#     Edge 25, Type (0, 0), BuildingBlock: OJICUG_clean_linker_0, # of connection points: 2
#     Edge 26, Type (0, 0), BuildingBlock: OJICUG_clean_linker_0, # of connection points: 2
#     Edge 27, Type (0, 0), BuildingBlock: OJICUG_clean_linker_0, # of connection points: 2
#     Edge 28, Type (0, 0), BuildingBlock: OJICUG_clean_linker_0, # of connection points: 2
#     Edge 29, Type (0, 0), BuildingBlock: OJICUG_clean_linker_0, # of connection points: 2
#     Edge 30, Type (0, 0), BuildingBlock: OJICUG_clean_linker_0, # of connection points: 2
#     Edge 31, Type (0, 0), BuildingBlock: OJICUG_clean_linker_0, # of connection points: 2
#     Edge 32, Type (0, 0), BuildingBlock: OJICUG_clean_linker_0, # of connection points: 2
#     Edge 33, Type (0, 0), BuildingBlock: OJICUG_clean_linker_0, # of connection points: 2
#     Edge 34, Type (0, 0), BuildingBlock: OJICUG_clean_linker_0, # of connection points: 2
#     Edge 35, Type (0, 0), BuildingBlock: OJICUG_clean_linker_0, # of connection points: 2
# Relax obj value: 0.126
# Max RMSD: 0.159
# Mean RMSD: 0.153
data_MOF--net-sod--node1-AZAVOO_clean_sbu_0--edge1-OJICUG_clean_linker_0
_symmetry_space_group_name_H-M    P1
_symmetry_Int_Tables_number       1
_symmetry_cell_setting            triclinic
loop_
_symmetry_equiv_pos_as_xyz
'x, y, z'
_cell_length_a     29.740911
_cell_length_b     30.493592
_cell_length_c     32.369061
_cell_angle_alpha  88.542577
_cell_angle_beta   94.24646
_cell_angle_gamma 96.879286
loop_
_atom_site_label
_atom_site_type_symbol
_atom_site_fract_x
_atom_site_fract_y
_atom_site_fract_z
_atom_type_partial_charge
Mg0 Mg 0.0199 0.28238 0.53666 0.0
O1 O 0.95548 0.23235 0.53254 0.0
O2 O 0.89717 0.2722 0.53335 0.0
Mg3 Mg 0.9225 0.34468 0.54511 0.0
C4 C 0.91286 0.23535 0.53006 0.0
C5 C 0.09204 0.21799 0.54454 0.0
O6 O 0.09249 0.23298 0.58224 0.0
O7 O 1.00283 0.30624 0.47019 0.0
O8 O 0.94877 0.34921 0.48036 0.0
O9 O 0.0281 0.28127 0.60656 0.0
O10 O 0.98793 0.32582 0.56915 0.0
C11 C 0.97566 0.33386 0.45688 0.0
C12 C 1.00318 0.31326 0.60501 0.0
O13 O 0.06381 0.23096 0.51673 0.0
Mg14 Mg 0.76128 0.97105 0.50088 0.0
O15 O 0.79584 0.04261 0.49933 0.0
O16 O 0.74139 0.087 0.48868 0.0
Mg17 Mg 0.67266 0.04493 0.48284 0.0
C18 C 0.78314 0.08114 0.49517 0.0
C19 C 0.86139 0.9519 0.50121 0.0
O20 O 0.85668 0.97352 0.46583 0.0
O21 O 0.74078 0.98288 0.56623 0.0
O22 O 0.68614 0.02655 0.55119 0.0
O23 O 0.76022 0.96574 0.43181 0.0
O24 O 0.7052 0.98848 0.46467 0.0
C25 C 0.71045 0.00571 0.5773 0.0
C26 C 0.72127 0.98084 0.43014 0.0
O27 O 0.82837 0.94679 0.52442 0.0
Mg28 Mg 0.09047 0.79667 0.5237 0.0
O29 O 0.15372 0.84653 0.51478 0.0
O30 O 0.21166 0.80691 0.51064 0.0
Mg31 Mg 0.18824 0.734 0.5223 0.0
C32 C 0.19542 0.84384 0.50931 0.0
C33 C 0.01292 0.85086 0.53455 0.0
O34 O 0.0132 0.82412 0.56702 0.0
O35 O 0.0886 0.77458 0.4564 0.0
O36 O 0.1455 0.73236 0.46049 0.0
O37 O 0.10085 0.79561 0.59337 0.0
O38 O 0.12938 0.75118 0.5526 0.0
C39 C 0.11233 0.74807 0.44024 0.0
C40 C 0.12349 0.76241 0.58958 0.0
O41 O 0.04266 0.84909 0.50851 0.0
Mg42 Mg 0.34116 0.10999 0.50177 0.0
O43 O 0.30758 0.03914 0.492 0.0
O44 O 0.36077 0.99742 0.47702 0.0
Mg45 Mg 0.42838 0.04187 0.47549 0.0
C46 C 0.3198 1.00178 0.48386 0.0
C47 C 0.24095 0.12689 0.50185 0.0
O48 O 0.24289 0.11331 0.46391 0.0
O49 O 0.37109 0.08777 0.56548 0.0
O50 O 0.42545 0.05005 0.54509 0.0
O51 O 0.3329 0.12583 0.43344 0.0
O52 O 0.39298 0.10025 0.46484 0.0
C53 C 0.4046 0.06542 0.57361 0.0
C54 C 0.37225 0.11241 0.43109 0.0
O55 O 0.27617 0.12779 0.52683 0.0
Mg56 Mg 0.52208 0.04029 0.22977 0.0
O57 O 0.57924 0.02195 0.2759 0.0
O58 O 0.63308 0.99736 0.24111 0.0
Mg59 Mg 0.60854 0.99738 0.17248 0.0
C60 C 0.61761 0.00726 0.27498 0.0
C61 C 0.45129 0.07995 0.27933 0.0
O62 O 0.425 0.06654 0.24656 0.0
O63 O 0.56712 0.10204 0.21026 0.0
O64 O 0.61572 0.07363 0.17198 0.0
O65 O 0.48545 0.97219 0.23337 0.0
O66 O 0.53783 0.99368 0.18951 0.0
C67 C 0.60022 0.10679 0.1869 0.0
C68 C 0.51056 0.96243 0.20476 0.0
O69 O 0.49341 0.07594 0.28044 0.0
Mg70 Mg 0.07166 0.51868 0.29809 0.0
O71 O 0.01641 0.5258 0.24687 0.0
O72 O 0.95057 0.53394 0.27278 0.0
Mg73 Mg 0.96374 0.52662 0.34317 0.0
C74 C 0.97471 0.53202 0.24207 0.0
C75 C 0.14844 0.50309 0.24139 0.0
O76 O 0.14755 0.46657 0.26389 0.0
O77 O 0.0741 0.59168 0.31272 0.0
O78 O 0.00965 0.59303 0.34392 0.0
O79 O 0.05608 0.44536 0.29964 0.0
O80 O 0.02347 0.49066 0.33704 0.0
C81 C 0.04704 0.6123 0.33168 0.0
C82 C 0.02718 0.45084 0.32651 0.0
O83 O 0.12333 0.53211 0.24987 0.0
Mg84 Mg 0.57132 0.01912 0.79772 0.0
O85 O 0.51599 0.0262 0.74653 0.0
O86 O 0.45019 0.03439 0.77252 0.0
Mg87 Mg 0.46347 0.02717 0.8429 0.0
C88 C 0.47428 0.03242 0.74178 0.0
C89 C 0.64813 0.00339 0.7411 0.0
O90 O 0.64724 0.96694 0.76369 0.0
O91 O 0.57384 0.09215 0.81232 0.0
O92 O 0.50944 0.09355 0.84359 0.0
O93 O 0.55569 0.94581 0.79935 0.0
O94 O 0.52316 0.99118 0.83674 0.0
C95 C 0.54683 0.1128 0.83132 0.0
C96 C 0.52683 0.95134 0.82625 0.0
O97 O 0.62298 0.03242 0.74945 0.0
Mg98 Mg 0.02222 0.54075 0.72964 0.0
O99 O 0.07927 0.5223 0.77585 0.0
O100 O 0.13316 0.49772 0.74112 0.0
Mg101 Mg 0.10882 0.4979 0.67246 0.0
C102 C 0.11762 0.50757 0.77497 0.0
C103 C 0.95127 0.58001 0.77934 0.0
O104 O 0.92494 0.56645 0.74664 0.0
O105 O 0.06736 0.60253 0.71032 0.0
O106 O 0.11606 0.57414 0.67213 0.0
O107 O 0.98558 0.47266 0.7331 0.0
O108 O 0.03808 0.49421 0.68937 0.0
C109 C 0.10055 0.60729 0.68705 0.0
C110 C 0.01078 0.46295 0.70455 0.0
O111 O 0.99345 0.57627 0.78033 0.0
Mg112 Mg 0.261 0.47102 0.00092 0.0
O113 O 0.29546 0.54262 -0.00072 0.0
O114 O 0.24094 0.58692 -0.01135 0.0
Mg115 Mg 0.17225 0.54475 -0.01703 0.0
C116 C 0.2827 0.58112 -0.00493 0.0
C117 C 0.36113 0.45195 0.00124 0.0
O118 O 0.35639 0.4735 0.96582 0.0
O119 O 0.24058 0.48283 0.06627 0.0
O120 O 0.18586 0.52643 0.05134 0.0
O121 O 0.25993 0.46569 0.93188 0.0
O122 O 0.20487 0.48836 0.96474 0.0
C123 C 0.21025 0.50562 0.0774 0.0
C124 C 0.22096 0.48077 0.93021 0.0
O125 O 0.32811 0.44685 0.02446 0.0
Mg126 Mg 0.5901 0.29662 0.02368 0.0
O127 O 0.65329 0.34669 0.0151 0.0
O128 O 0.71127 0.30715 0.01083 0.0
Mg129 Mg 0.688 0.23416 0.02219 0.0
C130 C 0.69501 0.34407 0.00965 0.0
C131 C 0.5126 0.35087 0.03465 0.0
O132 O 0.5129 0.32419 0.06716 0.0
O133 O 0.58843 0.27481 0.95629 0.0
O134 O 0.64535 0.23262 0.96033 0.0
O135 O 0.6003 0.29522 0.09336 0.0
O136 O 0.62901 0.25104 0.05247 0.0
C137 C 0.61219 0.24836 0.94008 0.0
C138 C 0.623 0.26208 0.08949 0.0
O139 O 0.54228 0.34902 0.00857 0.0
Mg140 Mg 0.84198 0.61026 0.00219 0.0
O141 O 0.80756 0.5395 -0.00719 0.0
O142 O 0.86045 0.49748 0.97768 0.0
Mg143 Mg 0.92837 0.54129 0.97576 0.0
C144 C 0.81957 0.50204 -0.01533 0.0
C145 C 0.74178 0.62756 0.00362 0.0
O146 O 0.74201 0.61125 0.96647 0.0
O147 O 0.87199 0.58802 0.06583 0.0
O148 O 0.9259 0.54975 0.04538 0.0
O149 O 0.83337 0.62593 0.93385 0.0
O150 O 0.89327 0.59979 0.96503 0.0
C151 C 0.9053 0.56542 0.07392 0.0
C152 C 0.87252 0.61209 0.93135 0.0
O153 O 0.77785 0.62959 0.02759 0.0
Mg154 Mg 0.51928 0.78272 0.03639 0.0
O155 O 0.45493 0.7326 0.03198 0.0
O156 O 0.39655 0.77234 0.0329 0.0
Mg157 Mg 0.42187 0.8448 0.04483 0.0
C158 C 0.4123 0.73554 0.02951 0.0
C159 C 0.59713 0.72657 0.04252 0.0
O160 O 0.60264 0.75008 0.07634 0.0
O161 O 0.50248 0.8067 0.96995 0.0
O162 O 0.4483 0.84953 -0.01988 0.0
O163 O 0.52725 0.78096 0.10622 0.0
O164 O 0.48726 0.82591 0.069 0.0
C165 C 0.47529 0.83431 0.95665 0.0
C166 C 0.50239 0.81303 0.1048 0.0
O167 O 0.56343 0.73149 0.0169 0.0
C168 C 0.01602 0.34698 0.39139 0.0
C169 C 0.98035 0.35482 0.41537 0.0
H170 H 0.05836 0.37135 0.3431 0.0
C171 C 0.9539 0.38879 0.40282 0.0
H172 H 0.03673 0.32079 0.39982 0.0
C173 C 0.96665 0.41795 0.37077 0.0
C174 C 1.00548 0.41319 0.3501 0.0
H175 H 0.92551 0.39526 0.41993 0.0
H176 H 0.94793 0.44595 0.36415 0.0
C177 C 0.02834 0.37588 0.35876 0.0
C178 C 0.71402 0.98243 0.3524 0.0
C179 C 0.69592 0.98932 0.39026 0.0
H180 H 0.70356 0.98263 0.28624 0.0
C181 C 0.65226 0.00264 0.38982 0.0
H182 H 0.74751 0.972 0.35171 0.0
C183 C 0.62713 0.00881 0.35245 0.0
C184 C 0.6449 1.00151 0.31452 0.0
H185 H 0.63697 0.00766 0.41837 0.0
H186 H 0.59348 0.0188 0.35341 0.0
C187 C 0.68875 0.98843 0.3149 0.0
C188 C 0.03247 0.68207 0.36474 0.0
C189 C 0.06282 0.65733 0.34688 0.0
H190 H 0.02475 0.73218 0.40789 0.0
C191 C 0.10953 0.67196 0.35129 0.0
H192 H 0.9962 0.67213 0.36126 0.0
C193 C 0.12587 0.70624 0.37822 0.0
C194 C 0.09573 0.72677 0.40065 0.0
H195 H 0.13384 0.65408 0.33751 0.0
H196 H 0.16224 0.71371 0.38451 0.0
C197 C 0.04883 0.71679 0.39124 0.0
C198 C 0.36552 0.10582 0.35361 0.0
C199 C 0.39227 0.10817 0.39127 0.0
H200 H 0.3633 0.0949 0.28825 0.0
C201 C 0.43895 0.10492 0.39114 0.0
H202 H 0.32947 0.10842 0.35286 0.0
C203 C 0.45835 0.09781 0.35441 0.0
C204 C 0.4314 0.09326 0.31693 0.0
H205 H 0.46057 0.10725 0.41965 0.0
H206 H 0.49427 0.0944 0.35575 0.0
C207 C 0.38491 0.0981 0.31671 0.0
C208 C 0.0951 0.68886 0.68058 0.0
C209 C 0.11714 0.6522 0.67171 0.0
H210 H 0.08107 0.75398 0.66189 0.0
C211 C 0.1505 0.65758 0.64278 0.0
H212 H 0.06978 0.68619 0.70319 0.0
C213 C 0.15701 0.6965 0.6192 0.0
C214 C 0.13048 0.73085 0.62422 0.0
H215 H 0.16897 0.63047 0.63579 0.0
H216 H 0.17988 0.69801 0.59456 0.0
C217 C 0.10186 0.72797 0.65709 0.0
C218 C 0.47808 0.02914 0.66536 0.0
C219 C 0.45441 0.03924 0.69914 0.0
H220 H 0.48114 0.02944 0.59996 0.0
C221 C 0.41326 0.05755 0.69149 0.0
H222 H 0.50978 0.01489 0.67 0.0
C223 C 0.3967 0.06633 0.65077 0.0
C224 C 0.42084 0.05653 0.61708 0.0
H225 H 0.39432 0.06588 0.71692 0.0
H226 H 0.36517 0.08078 0.64572 0.0
C227 C 0.46151 0.03753 0.625 0.0
C228 C 0.04325 0.35898 0.66128 0.0
C229 C 1.00197 0.34202 0.64045 0.0
H230 H 0.07861 0.41208 0.69748 0.0
C231 C 0.96245 0.36126 0.64647 0.0
H232 H 0.07431 0.34515 0.65641 0.0
C233 C 0.96475 0.39872 0.67089 0.0
C234 C 1.00685 0.41821 0.68813 0.0
H235 H 0.93044 0.34903 0.63019 0.0
H236 H 0.93435 0.41456 0.67335 0.0
C237 C 0.04585 0.39742 0.68434 0.0
C238 C 0.66553 0.04295 0.67476 0.0
C239 C 0.67128 0.00719 0.70204 0.0
H240 H 0.67365 0.07044 0.61413 0.0
C241 C 0.69511 0.97316 0.68956 0.0
H242 H 0.64772 0.06992 0.68342 0.0
C243 C 0.71032 0.9736 0.64959 0.0
C244 C 0.70149 0.00785 0.62144 0.0
H245 H 0.70031 0.94525 0.70999 0.0
H246 H 0.72678 0.94606 0.64008 0.0
C247 C 0.68025 0.04316 0.6349 0.0
C248 C 0.44304 0.38016 0.05631 0.0
C249 C 0.47624 0.38001 0.02755 0.0
H250 H 0.38095 0.40316 0.07078 0.0
C251 C 0.47298 0.40631 -0.00857 0.0
H252 H 0.44464 0.3605 0.0846 0.0
C253 C 0.43638 0.43094 -0.01644 0.0
C254 C 0.40226 0.42972 0.01161 0.0
H255 H 0.49808 0.40708 0.96875 0.0
H256 H 0.43424 0.44999 0.95493 0.0
C257 C 0.40648 0.4047 0.04843 0.0
C258 C 0.30239 0.66275 0.00216 0.0
C259 C 0.31671 0.6205 0.00154 0.0
H260 H 0.32087 0.73163 0.01185 0.0
C261 C 0.36314 0.61631 0.00985 0.0
H262 H 0.26694 0.66735 -0.00394 0.0
C263 C 0.39437 0.65353 0.01904 0.0
C264 C 0.37974 0.69564 0.02034 0.0
H265 H 0.37534 0.58424 0.00975 0.0
H266 H 0.42985 0.64921 0.02541 0.0
C267 C 0.33341 0.69973 0.01155 0.0
C268 C 0.71143 0.42689 0.00396 0.0
C269 C 0.72575 0.38482 0.00118 0.0
H270 H 0.72958 0.49695 0.0006 0.0
C271 C 0.77018 0.38184 -0.00975 0.0
H272 H 0.67738 0.43042 0.01206 0.0
C273 C 0.79994 0.41986 -0.01664 0.0
C274 C 0.7862 0.46197 -0.01259 0.0
H275 H 0.78231 0.35003 -0.01263 0.0
H276 H 0.83413 0.4161 0.97583 0.0
C277 C 0.74136 0.46506 -0.00277 0.0
C278 C 0.70306 0.66864 0.05382 0.0
C279 C 0.70219 0.64851 0.0152 0.0
H280 H 0.67055 0.70876 0.09271 0.0
C281 C 0.6646 0.65149 -0.01339 0.0
H282 H 0.73136 0.66682 0.07663 0.0
C283 C 0.6296 0.67573 -0.00421 0.0
C284 C 0.63154 0.69743 0.03375 0.0
H285 H 0.6628 0.63623 0.95659 0.0
H286 H 0.60174 0.67846 0.97272 0.0
C287 C 0.66816 0.6928 0.06298 0.0
C288 C 0.45363 0.88937 0.90269 0.0
C289 C 0.48003 0.85535 0.91518 0.0
H290 H 0.44768 0.94655 0.86404 0.0
C291 C 0.51567 0.84749 0.89117 0.0
H292 H 0.42527 0.89587 0.91982 0.0
C293 C 0.52798 0.8764 0.85854 0.0
C294 C 0.50515 0.91373 0.8499 0.0
H295 H 0.53634 0.82127 0.89957 0.0
H296 H 0.55797 0.87183 0.84284 0.0
C297 C 0.46637 0.91853 0.87063 0.0
C298 C 0.21385 0.48253 0.85248 0.0
C299 C 0.19567 0.4893 0.89032 0.0
H300 H 0.20355 0.48291 0.78632 0.0
C301 C 0.152 0.50262 0.88985 0.0
H302 H 0.24735 0.47211 0.85182 0.0
C303 C 0.12695 0.50889 0.85245 0.0
C304 C 0.14482 0.5017 0.81454 0.0
H305 H 0.13665 0.50755 0.91839 0.0
H306 H 0.0933 0.51887 0.85339 0.0
C307 C 0.18867 0.48863 0.81496 0.0
C308 C 0.53234 0.18258 0.8644 0.0
C309 C 0.56267 0.1578 0.84655 0.0
H310 H 0.52464 0.23266 0.90759 0.0
C311 C 0.60939 0.17235 0.85104 0.0
H312 H 0.49606 0.17271 0.86086 0.0
C313 C 0.62575 0.20657 0.87803 0.0
C314 C 0.59563 0.22713 0.90044 0.0
H315 H 0.63369 0.15443 0.83728 0.0
H316 H 0.66212 0.21397 0.88438 0.0
C317 C 0.54872 0.21725 0.89096 0.0
C318 C 0.95841 0.59754 0.85448 0.0
C319 C 0.93142 0.59315 0.81702 0.0
H320 H 0.96073 0.60675 0.91975 0.0
C321 C 0.88493 0.59799 0.81688 0.0
H322 H 0.99433 0.59411 0.85575 0.0
C323 C 0.86561 0.60561 0.85385 0.0
C324 C 0.89241 0.60783 0.89147 0.0
H325 H 0.86329 0.5949 0.78844 0.0
H326 H 0.82956 0.60825 0.85317 0.0
C327 C 0.93908 0.60452 0.89127 0.0
C328 C 0.59474 0.18836 0.18044 0.0
C329 C 0.61673 0.1517 0.17148 0.0
H330 H 0.58072 0.25352 0.16188 0.0
C331 C 0.64996 0.15707 0.14243 0.0
H332 H 0.56952 0.1857 0.20314 0.0
C333 C 0.65642 0.19601 0.11887 0.0
C334 C 0.62997 0.23039 0.12402 0.0
H335 H 0.66838 0.12995 0.13535 0.0
H336 H 0.67921 0.19752 0.09416 0.0
C337 C 0.60145 0.22749 0.15697 0.0
C338 C 0.97865 0.52892 0.16566 0.0
C339 C 0.95493 0.53896 0.19943 0.0
H340 H 0.98181 0.52937 0.10026 0.0
C341 C 0.91384 0.55738 0.19177 0.0
H342 H 0.01032 0.51461 0.17031 0.0
C343 C 0.89737 0.56627 0.15106 0.0
C344 C 0.92153 0.5565 0.11738 0.0
H345 H 0.89487 0.56568 0.2172 0.0
H346 H 0.86586 0.58077 0.146 0.0
C347 C 0.96216 0.53743 0.12529 0.0
C348 C 0.46185 0.86099 0.14648 0.0
C349 C 0.50128 0.84163 0.14039 0.0
H350 H 0.43396 0.91432 0.17351 0.0
C351 C 0.54261 0.8584 0.16125 0.0
H352 H 0.42981 0.84891 0.13017 0.0
C353 C 0.54536 0.89679 0.18441 0.0
C354 C 0.50646 0.9177 0.18827 0.0
H355 H 0.57362 0.84449 0.15632 0.0
H356 H 0.57816 0.91133 0.19756 0.0
C357 C 0.46429 0.89838 0.17101 0.0
C358 C 0.21039 0.47349 0.14968 0.0
C359 C 0.20139 0.50773 0.12157 0.0
H360 H 0.20065 0.4451 0.2101 0.0
C361 C 0.18013 0.54296 0.13511 0.0
H362 H 0.22689 0.446 0.14011 0.0
C363 C 0.16555 0.54271 0.17502 0.0
C364 C 0.17147 0.50697 0.20227 0.0
H365 H 0.17339 0.57024 0.11437 0.0
H366 H 0.14771 0.56963 0.18375 0.0
C367 C 0.19532 0.473 0.18971 0.0
C368 C 0.93668 0.93096 0.48354 0.0
C369 C 0.90253 0.92966 0.51157 0.0
H370 H 0.99843 0.90718 0.46873 0.0
C371 C 0.90672 0.90456 0.54834 0.0
H372 H 0.93456 0.95007 0.45494 0.0
C373 C 0.9433 0.88004 0.5562 0.0
C374 C 0.97653 0.87997 0.52746 0.0
H375 H 0.88117 0.90296 0.57067 0.0
H376 H 0.94488 0.86032 0.58446 0.0
C377 C 0.97329 0.90634 0.49139 0.0
C378 C 0.83395 0.19965 0.51209 0.0
C379 C 0.88026 0.19549 0.52088 0.0
H380 H 0.76747 0.16737 0.49644 0.0
C381 C 0.89484 0.15337 0.51946 0.0
H382 H 0.82144 0.23156 0.51247 0.0
C383 C 0.86359 0.1162 0.51014 0.0
C384 C 0.81717 0.12047 0.50179 0.0
H385 H 0.93031 0.14901 0.52583 0.0
H386 H 0.87576 0.08412 0.50994 0.0
C387 C 0.8029 0.16272 0.50255 0.0
C388 C 0.2117 0.92658 0.50292 0.0
C389 C 0.22616 0.88453 0.50063 0.0
H390 H 0.22966 0.99662 0.49906 0.0
C391 C 0.2707 0.88152 0.49 0.0
H392 H 0.17755 0.93014 0.51077 0.0
C393 C 0.30043 0.91953 0.48297 0.0
C394 C 0.28652 0.96164 0.48657 0.0
H395 H 0.28294 0.84971 0.4875 0.0
H396 H 0.33472 0.91579 0.47572 0.0
C397 C 0.24157 0.96472 0.49605 0.0
C398 C 0.12921 0.17569 0.49371 0.0
C399 C 0.12718 0.19031 0.53426 0.0
H400 H 0.16658 0.14374 0.45175 0.0
C401 C 0.16093 0.18057 0.56475 0.0
H402 H 0.10364 0.18247 0.46957 0.0
C403 C 0.19708 0.15863 0.55455 0.0
C404 C 0.20017 0.14564 0.51367 0.0
H405 H 0.16027 0.19108 0.5964 0.0
H406 H 0.22319 0.15282 0.57854 0.0
C407 C 0.16528 0.15344 0.48355 0.0
loop_
_geom_bond_atom_site_label_1
_geom_bond_atom_site_label_2
_geom_bond_distance
_geom_bond_site_symmetry_2
_ccdc_geom_bond_type
Mg0 O1 2.028 . S
Mg0 O7 1.986 . S
Mg0 O9 2.114 . S
Mg0 O10 2.251 . S
Mg0 O13 2.010 . S
O1 Mg0 2.028 . S
O1 C4 1.250 1_455 S
O2 Mg3 2.028 . S
O2 C4 1.248 . S
Mg3 O2 2.028 . S
Mg3 O8 2.032 . S
Mg3 O10 2.079 1_655 S
C4 O1 1.250 1_655 S
C4 O2 1.248 . S
C5 O6 1.264 . S
C5 O13 1.249 . S
O6 C5 1.264 . S
O7 Mg0 1.986 . S
O7 C11 1.246 . S
O8 Mg3 2.032 . S
O8 C11 1.259 1_655 S
O9 Mg0 2.114 . S
O9 C12 1.252 . S
O10 Mg0 2.251 . S
O10 Mg3 2.079 1_455 S
O10 C12 1.273 . S
C11 O7 1.246 . S
C11 O8 1.259 1_455 S
C12 O9 1.252 . S
C12 O10 1.273 . S
O13 Mg0 2.010 . S
O13 C5 1.249 . S
Mg14 O15 2.028 . S
Mg14 O21 1.986 . S
Mg14 O23 2.114 . S
Mg14 O24 2.251 . S
Mg14 O27 2.010 1_545 S
O15 Mg14 2.028 . S
O15 C18 1.250 . S
O16 Mg17 2.028 . S
O16 C18 1.248 . S
Mg17 O16 2.028 . S
Mg17 O22 2.032 . S
Mg17 O24 2.079 . S
C18 O15 1.250 . S
C18 O16 1.248 . S
C19 O20 1.264 . S
C19 O27 1.249 . S
O20 C19 1.264 . S
O21 Mg14 1.986 . S
O21 C25 1.246 . S
O22 Mg17 2.032 . S
O22 C25 1.259 . S
O23 Mg14 2.114 . S
O23 C26 1.252 . S
O24 Mg14 2.251 . S
O24 Mg17 2.079 . S
O24 C26 1.273 . S
C25 O21 1.246 . S
C25 O22 1.259 . S
C26 O23 1.252 . S
C26 O24 1.273 . S
O27 Mg14 2.010 1_565 S
O27 C19 1.249 . S
Mg28 O29 2.028 . S
Mg28 O35 1.986 . S
Mg28 O37 2.114 . S
Mg28 O38 2.251 . S
Mg28 O41 2.010 1_455 S
O29 Mg28 2.028 . S
O29 C32 1.250 . S
O30 Mg31 2.028 . S
O30 C32 1.248 . S
Mg31 O30 2.028 . S
Mg31 O36 2.032 . S
Mg31 O38 2.079 . S
C32 O29 1.250 . S
C32 O30 1.248 . S
C33 O34 1.264 . S
C33 O41 1.249 . S
O34 C33 1.264 . S
O35 Mg28 1.986 . S
O35 C39 1.246 . S
O36 Mg31 2.032 . S
O36 C39 1.259 . S
O37 Mg28 2.114 . S
O37 C40 1.252 . S
O38 Mg28 2.251 . S
O38 Mg31 2.079 . S
O38 C40 1.273 . S
C39 O35 1.246 . S
C39 O36 1.259 . S
C40 O37 1.252 . S
C40 O38 1.273 . S
O41 Mg28 2.010 1_655 S
O41 C33 1.249 . S
Mg42 O43 2.028 1_545 S
Mg42 O49 1.986 . S
Mg42 O51 2.114 . S
Mg42 O52 2.251 . S
Mg42 O55 2.010 . S
O43 Mg42 2.028 1_565 S
O43 C46 1.250 . S
O44 Mg45 2.028 . S
O44 C46 1.248 . S
Mg45 O44 2.028 . S
Mg45 O50 2.032 . S
Mg45 O52 2.079 1_565 S
C46 O43 1.250 . S
C46 O44 1.248 . S
C47 O48 1.264 . S
C47 O55 1.249 . S
O48 C47 1.264 . S
O49 Mg42 1.986 . S
O49 C53 1.246 . S
O50 Mg45 2.032 . S
O50 C53 1.259 1_565 S
O51 Mg42 2.114 . S
O51 C54 1.252 . S
O52 Mg42 2.251 . S
O52 Mg45 2.079 1_545 S
O52 C54 1.273 . S
C53 O49 1.246 . S
C53 O50 1.259 1_545 S
C54 O51 1.252 . S
C54 O52 1.273 . S
O55 Mg42 2.010 . S
O55 C47 1.249 . S
Mg56 O57 2.028 . S
Mg56 O63 1.986 . S
Mg56 O65 2.114 1_545 S
Mg56 O66 2.251 1_545 S
Mg56 O69 2.010 . S
O57 Mg56 2.028 . S
O57 C60 1.250 . S
O58 Mg59 2.028 . S
O58 C60 1.248 . S
Mg59 O58 2.028 . S
Mg59 O64 2.032 . S
Mg59 O66 2.079 1_545 S
C60 O57 1.250 . S
C60 O58 1.248 . S
C61 O62 1.264 . S
C61 O69 1.249 . S
O62 C61 1.264 . S
O63 Mg56 1.986 . S
O63 C67 1.246 . S
O64 Mg59 2.032 . S
O64 C67 1.259 . S
O65 Mg56 2.114 1_565 S
O65 C68 1.252 . S
O66 Mg56 2.251 1_565 S
O66 Mg59 2.079 1_565 S
O66 C68 1.273 . S
C67 O63 1.246 . S
C67 O64 1.259 . S
C68 O65 1.252 . S
C68 O66 1.273 . S
O69 Mg56 2.010 . S
O69 C61 1.249 . S
Mg70 O71 2.028 . S
Mg70 O77 1.986 . S
Mg70 O79 2.114 . S
Mg70 O80 2.251 . S
Mg70 O83 2.010 . S
O71 Mg70 2.028 . S
O71 C74 1.250 1_455 S
O72 Mg73 2.028 . S
O72 C74 1.248 . S
Mg73 O72 2.028 . S
Mg73 O78 2.032 1_655 S
Mg73 O80 2.079 1_655 S
C74 O71 1.250 1_655 S
C74 O72 1.248 . S
C75 O76 1.264 . S
C75 O83 1.249 . S
O76 C75 1.264 . S
O77 Mg70 1.986 . S
O77 C81 1.246 . S
O78 Mg73 2.032 1_455 S
O78 C81 1.259 . S
O79 Mg70 2.114 . S
O79 C82 1.252 . S
O80 Mg70 2.251 . S
O80 Mg73 2.079 1_455 S
O80 C82 1.273 . S
C81 O77 1.246 . S
C81 O78 1.259 . S
C82 O79 1.252 . S
C82 O80 1.273 . S
O83 Mg70 2.010 . S
O83 C75 1.249 . S
Mg84 O85 2.028 . S
Mg84 O91 1.986 . S
Mg84 O93 2.114 1_545 S
Mg84 O94 2.251 1_545 S
Mg84 O97 2.010 . S
O85 Mg84 2.028 . S
O85 C88 1.250 . S
O86 Mg87 2.028 . S
O86 C88 1.248 . S
Mg87 O86 2.028 . S
Mg87 O92 2.032 . S
Mg87 O94 2.079 1_545 S
C88 O85 1.250 . S
C88 O86 1.248 . S
C89 O90 1.264 . S
C89 O97 1.249 . S
O90 C89 1.264 . S
O91 Mg84 1.986 . S
O91 C95 1.246 . S
O92 Mg87 2.032 . S
O92 C95 1.259 . S
O93 Mg84 2.114 1_565 S
O93 C96 1.252 . S
O94 Mg84 2.251 1_565 S
O94 Mg87 2.079 1_565 S
O94 C96 1.273 . S
C95 O91 1.246 . S
C95 O92 1.259 . S
C96 O93 1.252 . S
C96 O94 1.273 . S
O97 Mg84 2.010 . S
O97 C89 1.249 . S
Mg98 O99 2.028 . S
Mg98 O105 1.986 . S
Mg98 O107 2.114 . S
Mg98 O108 2.251 . S
Mg98 O111 2.010 1_455 S
O99 Mg98 2.028 . S
O99 C102 1.250 . S
O100 Mg101 2.028 . S
O100 C102 1.248 . S
Mg101 O100 2.028 . S
Mg101 O106 2.032 . S
Mg101 O108 2.079 . S
C102 O99 1.250 . S
C102 O100 1.248 . S
C103 O104 1.264 . S
C103 O111 1.249 . S
O104 C103 1.264 . S
O105 Mg98 1.986 . S
O105 C109 1.246 . S
O106 Mg101 2.032 . S
O106 C109 1.259 . S
O107 Mg98 2.114 . S
O107 C110 1.252 . S
O108 Mg98 2.251 . S
O108 Mg101 2.079 . S
O108 C110 1.273 . S
C109 O105 1.246 . S
C109 O106 1.259 . S
C110 O107 1.252 . S
C110 O108 1.273 . S
O111 Mg98 2.010 1_655 S
O111 C103 1.249 . S
Mg112 O113 2.028 . S
Mg112 O119 1.986 . S
Mg112 O121 2.114 1_554 S
Mg112 O122 2.251 1_554 S
Mg112 O125 2.010 . S
O113 Mg112 2.028 . S
O113 C116 1.250 . S
O114 Mg115 2.028 . S
O114 C116 1.248 . S
Mg115 O114 2.028 . S
Mg115 O120 2.032 . S
Mg115 O122 2.079 1_554 S
C116 O113 1.250 . S
C116 O114 1.248 . S
C117 O118 1.264 . S
C117 O125 1.249 . S
O118 C117 1.264 . S
O119 Mg112 1.986 . S
O119 C123 1.246 . S
O120 Mg115 2.032 . S
O120 C123 1.259 . S
O121 Mg112 2.114 1_556 S
O121 C124 1.252 . S
O122 Mg112 2.251 1_556 S
O122 Mg115 2.079 1_556 S
O122 C124 1.273 . S
C123 O119 1.246 . S
C123 O120 1.259 . S
C124 O121 1.252 . S
C124 O122 1.273 . S
O125 Mg112 2.010 . S
O125 C117 1.249 . S
Mg126 O127 2.028 . S
Mg126 O133 1.986 1_554 S
Mg126 O135 2.114 . S
Mg126 O136 2.251 . S
Mg126 O139 2.010 . S
O127 Mg126 2.028 . S
O127 C130 1.250 . S
O128 Mg129 2.028 . S
O128 C130 1.248 . S
Mg129 O128 2.028 . S
Mg129 O134 2.032 1_554 S
Mg129 O136 2.079 . S
C130 O127 1.250 . S
C130 O128 1.248 . S
C131 O132 1.264 . S
C131 O139 1.249 . S
O132 C131 1.264 . S
O133 Mg126 1.986 1_556 S
O133 C137 1.246 . S
O134 Mg129 2.032 1_556 S
O134 C137 1.259 . S
O135 Mg126 2.114 . S
O135 C138 1.252 . S
O136 Mg126 2.251 . S
O136 Mg129 2.079 . S
O136 C138 1.273 . S
C137 O133 1.246 . S
C137 O134 1.259 . S
C138 O135 1.252 . S
C138 O136 1.273 . S
O139 Mg126 2.010 . S
O139 C131 1.249 . S
Mg140 O141 2.028 . S
Mg140 O147 1.986 . S
Mg140 O149 2.114 1_554 S
Mg140 O150 2.251 . S
Mg140 O153 2.010 . S
O141 Mg140 2.028 . S
O141 C144 1.250 . S
O142 Mg143 2.028 . S
O142 C144 1.248 . S
Mg143 O142 2.028 . S
Mg143 O148 2.032 . S
Mg143 O150 2.079 . S
C144 O141 1.250 . S
C144 O142 1.248 . S
C145 O146 1.264 . S
C145 O153 1.249 . S
O146 C145 1.264 . S
O147 Mg140 1.986 . S
O147 C151 1.246 . S
O148 Mg143 2.032 . S
O148 C151 1.259 . S
O149 Mg140 2.114 1_556 S
O149 C152 1.252 . S
O150 Mg140 2.251 . S
O150 Mg143 2.079 . S
O150 C152 1.273 1_554 S
C151 O147 1.246 . S
C151 O148 1.259 . S
C152 O149 1.252 . S
C152 O150 1.273 1_556 S
O153 Mg140 2.010 . S
O153 C145 1.249 . S
Mg154 O155 2.028 . S
Mg154 O161 1.986 1_554 S
Mg154 O163 2.114 . S
Mg154 O164 2.251 . S
Mg154 O167 2.010 . S
O155 Mg154 2.028 . S
O155 C158 1.250 . S
O156 Mg157 2.028 . S
O156 C158 1.248 . S
Mg157 O156 2.028 . S
Mg157 O162 2.032 1_554 S
Mg157 O164 2.079 . S
C158 O155 1.250 . S
C158 O156 1.248 . S
C159 O160 1.264 . S
C159 O167 1.249 . S
O160 C159 1.264 . S
O161 Mg154 1.986 1_556 S
O161 C165 1.246 . S
O162 Mg157 2.032 1_556 S
O162 C165 1.259 . S
O163 Mg154 2.114 . S
O163 C166 1.252 . S
O164 Mg154 2.251 . S
O164 Mg157 2.079 . S
O164 C166 1.273 . S
C165 O161 1.246 . S
C165 O162 1.259 . S
C166 O163 1.252 . S
C166 O164 1.273 . S
O167 Mg154 2.010 . S
O167 C159 1.249 . S
C168 C169 1.387 . S
C168 H172 0.950 . S
C168 C177 1.390 . S
C169 C168 1.387 . S
C169 C171 1.387 1_455 S
H170 C177 0.950 . S
C171 C169 1.387 1_655 S
C171 C173 1.390 1_655 S
C171 H175 0.950 . S
H172 C168 0.950 . S
C173 C171 1.390 1_455 S
C173 C174 1.405 . S
C173 H176 0.933 1_455 S
C174 C173 1.405 . S
C174 C177 1.387 . S
H175 C171 0.950 . S
H176 C173 0.933 1_655 S
C177 C168 1.390 . S
C177 H170 0.950 . S
C177 C174 1.387 . S
C178 C179 1.387 . S
C178 H182 0.950 1_545 S
C178 C187 1.390 . S
C179 C178 1.387 . S
C179 C181 1.387 . S
H180 C187 0.952 1_565 S
C181 C179 1.387 . S
C181 C183 1.390 . S
C181 H185 0.950 . S
H182 C178 0.950 1_565 S
C183 C181 1.390 . S
C183 C184 1.387 . S
C183 H186 0.950 . S
C184 C183 1.387 . S
C184 C187 1.385 . S
H185 C181 0.950 . S
H186 C183 0.950 . S
C187 C178 1.390 . S
C187 H180 0.952 1_545 S
C187 C184 1.385 . S
C188 C189 1.387 . S
C188 H192 0.950 1_455 S
C188 C197 1.390 . S
C189 C188 1.387 . S
C189 C191 1.387 . S
H190 C197 0.950 1_655 S
C191 C189 1.387 . S
C191 C193 1.390 . S
C191 H195 0.950 . S
H192 C188 0.950 1_655 S
C193 C191 1.390 . S
C193 C194 1.387 . S
C193 H196 0.950 . S
C194 C193 1.387 . S
C194 C197 1.387 . S
H195 C191 0.950 . S
H196 C193 0.950 . S
C197 C188 1.390 . S
C197 H190 0.950 1_455 S
C197 C194 1.387 . S
C198 C199 1.387 1_565 S
C198 H202 0.950 . S
C198 C207 1.390 . S
C199 C198 1.387 1_545 S
C199 C201 1.387 . S
H200 C207 0.950 . S
C201 C199 1.387 . S
C201 C203 1.390 . S
C201 H205 0.950 . S
H202 C198 0.950 . S
C203 C201 1.390 . S
C203 C204 1.387 . S
C203 H206 0.950 . S
C204 C203 1.387 . S
C204 C207 1.387 1_545 S
H205 C201 0.950 . S
H206 C203 0.950 . S
C207 C198 1.390 . S
C207 H200 0.950 . S
C207 C204 1.387 1_565 S
C208 C209 1.387 . S
C208 H212 0.950 . S
C208 C217 1.390 . S
C209 C208 1.387 . S
C209 C211 1.387 . S
H210 C217 0.950 . S
C211 C209 1.387 . S
C211 C213 1.390 . S
C211 H215 0.950 . S
H212 C208 0.950 . S
C213 C211 1.390 . S
C213 C214 1.387 . S
C213 H216 0.950 . S
C214 C213 1.387 . S
C214 C217 1.387 . S
H215 C211 0.950 . S
H216 C213 0.950 . S
C217 C208 1.390 . S
C217 H210 0.950 . S
C217 C214 1.387 . S
C218 C219 1.387 1_565 S
C218 H222 0.950 . S
C218 C227 1.390 . S
C219 C218 1.387 1_545 S
C219 C221 1.387 . S
H220 C227 0.950 . S
C221 C219 1.387 . S
C221 C223 1.390 . S
C221 H225 0.950 . S
H222 C218 0.950 . S
C223 C221 1.390 . S
C223 C224 1.387 . S
C223 H226 0.950 . S
C224 C223 1.387 . S
C224 C227 1.387 1_545 S
H225 C221 0.950 . S
H226 C223 0.950 . S
C227 C218 1.390 . S
C227 H220 0.950 . S
C227 C224 1.387 1_565 S
C228 C229 1.387 . S
C228 H232 0.950 . S
C228 C237 1.390 . S
C229 C228 1.387 . S
C229 C231 1.387 1_455 S
H230 C237 0.950 . S
C231 C229 1.387 1_655 S
C231 C233 1.390 . S
C231 H235 0.950 . S
H232 C228 0.950 . S
C233 C231 1.390 . S
C233 C234 1.387 1_655 S
C233 H236 0.950 . S
C234 C233 1.387 1_455 S
C234 C237 1.387 . S
H235 C231 0.950 . S
H236 C233 0.950 . S
C237 C228 1.390 . S
C237 H230 0.950 . S
C237 C234 1.387 . S
C238 C239 1.387 . S
C238 H242 0.950 . S
C238 C247 1.390 . S
C239 C238 1.387 . S
C239 C241 1.387 . S
H240 C247 0.950 . S
C241 C239 1.387 . S
C241 C243 1.390 . S
C241 H245 0.950 1_545 S
H242 C238 0.950 . S
C243 C241 1.390 . S
C243 C244 1.387 . S
C243 H246 0.950 1_545 S
C244 C243 1.387 . S
C244 C247 1.387 . S
H245 C241 0.950 1_565 S
H246 C243 0.950 1_565 S
C247 C238 1.390 . S
C247 H240 0.950 . S
C247 C244 1.387 . S
C248 C249 1.387 . S
C248 H252 0.950 . S
C248 C257 1.390 . S
C249 C248 1.387 . S
C249 C251 1.387 1_554 S
H250 C257 0.950 . S
C251 C249 1.387 1_556 S
C251 C253 1.390 . S
C251 H255 0.950 . S
H252 C248 0.950 . S
C253 C251 1.390 . S
C253 C254 1.387 1_556 S
C253 H256 0.950 . S
C254 C253 1.387 1_554 S
C254 C257 1.387 . S
H255 C251 0.950 . S
H256 C253 0.950 . S
C257 C248 1.390 . S
C257 H250 0.950 . S
C257 C254 1.387 . S
C258 C259 1.387 1_556 S
C258 H262 0.950 . S
C258 C267 1.390 . S
C259 C258 1.387 1_554 S
C259 C261 1.387 . S
H260 C267 0.950 . S
C261 C259 1.387 . S
C261 C263 1.390 . S
C261 H265 0.950 . S
H262 C258 0.950 . S
C263 C261 1.390 . S
C263 C264 1.387 . S
C263 H266 0.950 . S
C264 C263 1.387 . S
C264 C267 1.387 1_554 S
H265 C261 0.950 . S
H266 C263 0.950 . S
C267 C258 1.390 . S
C267 H260 0.950 . S
C267 C264 1.387 1_556 S
C268 C269 1.387 . S
C268 H272 0.950 . S
C268 C277 1.390 . S
C269 C268 1.387 . S
C269 C271 1.387 . S
H270 C277 0.950 . S
C271 C269 1.387 . S
C271 C273 1.390 . S
C271 H275 0.950 . S
H272 C268 0.950 . S
C273 C271 1.390 . S
C273 C274 1.387 . S
C273 H276 0.950 . S
C274 C273 1.387 . S
C274 C277 1.387 . S
H275 C271 0.950 . S
H276 C273 0.950 . S
C277 C268 1.390 . S
C277 H270 0.950 . S
C277 C274 1.387 . S
C278 C279 1.387 . S
C278 H282 0.950 . S
C278 C287 1.390 . S
C279 C278 1.387 . S
C279 C281 1.387 . S
H280 C287 0.950 . S
C281 C279 1.387 . S
C281 C283 1.390 . S
C281 H285 0.950 1_554 S
H282 C278 0.950 . S
C283 C281 1.390 . S
C283 C284 1.387 . S
C283 H286 0.950 1_554 S
C284 C283 1.387 . S
C284 C287 1.387 . S
H285 C281 0.950 1_556 S
H286 C283 0.950 1_556 S
C287 C278 1.390 . S
C287 H280 0.950 . S
C287 C284 1.387 . S
C288 C289 1.387 . S
C288 H292 0.950 . S
C288 C297 1.390 . S
C289 C288 1.387 . S
C289 C291 1.387 . S
H290 C297 0.950 . S
C291 C289 1.387 . S
C291 C293 1.390 . S
C291 H295 0.950 . S
H292 C288 0.950 . S
C293 C291 1.390 . S
C293 C294 1.387 . S
C293 H296 0.950 . S
C294 C293 1.387 . S
C294 C297 1.387 . S
H295 C291 0.950 . S
H296 C293 0.950 . S
C297 C288 1.390 . S
C297 H290 0.950 . S
C297 C294 1.387 . S
C298 C299 1.387 . S
C298 H302 0.950 . S
C298 C307 1.390 . S
C299 C298 1.387 . S
C299 C301 1.387 . S
H300 C307 0.950 . S
C301 C299 1.387 . S
C301 C303 1.390 . S
C301 H305 0.950 . S
H302 C298 0.950 . S
C303 C301 1.390 . S
C303 C304 1.387 . S
C303 H306 0.950 . S
C304 C303 1.387 . S
C304 C307 1.387 . S
H305 C301 0.950 . S
H306 C303 0.950 . S
C307 C298 1.390 . S
C307 H300 0.950 . S
C307 C304 1.387 . S
C308 C309 1.387 . S
C308 H312 0.950 . S
C308 C317 1.390 . S
C309 C308 1.387 . S
C309 C311 1.387 . S
H310 C317 0.950 . S
C311 C309 1.387 . S
C311 C313 1.390 . S
C311 H315 0.950 . S
H312 C308 0.950 . S
C313 C311 1.390 . S
C313 C314 1.387 . S
C313 H316 0.950 . S
C314 C313 1.387 . S
C314 C317 1.387 . S
H315 C311 0.950 . S
H316 C313 0.950 . S
C317 C308 1.390 . S
C317 H310 0.950 . S
C317 C314 1.387 . S
C318 C319 1.387 . S
C318 H322 0.950 . S
C318 C327 1.390 . S
C319 C318 1.387 . S
C319 C321 1.387 . S
H320 C327 0.950 . S
C321 C319 1.387 . S
C321 C323 1.390 . S
C321 H325 0.950 . S
H322 C318 0.950 . S
C323 C321 1.390 . S
C323 C324 1.387 . S
C323 H326 0.950 . S
C324 C323 1.387 . S
C324 C327 1.387 . S
H325 C321 0.950 . S
H326 C323 0.950 . S
C327 C318 1.390 . S
C327 H320 0.950 . S
C327 C324 1.387 . S
C328 C329 1.387 . S
C328 H332 0.950 . S
C328 C337 1.390 . S
C329 C328 1.387 . S
C329 C331 1.387 . S
H330 C337 0.950 . S
C331 C329 1.387 . S
C331 C333 1.390 . S
C331 H335 0.950 . S
H332 C328 0.950 . S
C333 C331 1.390 . S
C333 C334 1.387 . S
C333 H336 0.950 . S
C334 C333 1.387 . S
C334 C337 1.387 . S
H335 C331 0.950 . S
H336 C333 0.950 . S
C337 C328 1.390 . S
C337 H330 0.950 . S
C337 C334 1.387 . S
C338 C339 1.387 . S
C338 H342 0.950 . S
C338 C347 1.390 . S
C339 C338 1.387 . S
C339 C341 1.387 . S
H340 C347 0.950 . S
C341 C339 1.387 . S
C341 C343 1.390 . S
C341 H345 0.950 . S
H342 C338 0.950 . S
C343 C341 1.390 . S
C343 C344 1.387 . S
C343 H346 0.950 . S
C344 C343 1.387 . S
C344 C347 1.387 . S
H345 C341 0.950 . S
H346 C343 0.950 . S
C347 C338 1.390 . S
C347 H340 0.950 . S
C347 C344 1.387 . S
C348 C349 1.387 . S
C348 H352 0.950 . S
C348 C357 1.390 . S
C349 C348 1.387 . S
C349 C351 1.387 . S
H350 C357 0.950 . S
C351 C349 1.387 . S
C351 C353 1.390 . S
C351 H355 0.950 . S
H352 C348 0.950 . S
C353 C351 1.390 . S
C353 C354 1.387 . S
C353 H356 0.950 . S
C354 C353 1.387 . S
C354 C357 1.387 . S
H355 C351 0.950 . S
H356 C353 0.950 . S
C357 C348 1.390 . S
C357 H350 0.950 . S
C357 C354 1.387 . S
C358 C359 1.387 . S
C358 H362 0.950 . S
C358 C367 1.390 . S
C359 C358 1.387 . S
C359 C361 1.387 . S
H360 C367 0.950 . S
C361 C359 1.387 . S
C361 C363 1.390 . S
C361 H365 0.950 . S
H362 C358 0.950 . S
C363 C361 1.390 . S
C363 C364 1.387 . S
C363 H366 0.950 . S
C364 C363 1.387 . S
C364 C367 1.387 . S
H365 C361 0.950 . S
H366 C363 0.950 . S
C367 C358 1.390 . S
C367 H360 0.950 . S
C367 C364 1.387 . S
C368 C369 1.387 . S
C368 H372 0.950 . S
C368 C377 1.390 . S
C369 C368 1.387 . S
C369 C371 1.387 . S
H370 C377 0.950 . S
C371 C369 1.387 . S
C371 C373 1.390 . S
C371 H375 0.950 . S
H372 C368 0.950 . S
C373 C371 1.390 . S
C373 C374 1.387 . S
C373 H376 0.950 . S
C374 C373 1.387 . S
C374 C377 1.387 . S
H375 C371 0.950 . S
H376 C373 0.950 . S
C377 C368 1.390 . S
C377 H370 0.950 . S
C377 C374 1.387 . S
C378 C379 1.387 . S
C378 H382 0.950 . S
C378 C387 1.390 . S
C379 C378 1.387 . S
C379 C381 1.387 . S
H380 C387 0.950 . S
C381 C379 1.387 . S
C381 C383 1.390 . S
C381 H385 0.950 . S
H382 C378 0.950 . S
C383 C381 1.390 . S
C383 C384 1.387 . S
C383 H386 0.950 . S
C384 C383 1.387 . S
C384 C387 1.387 . S
H385 C381 0.950 . S
H386 C383 0.950 . S
C387 C378 1.390 . S
C387 H380 0.950 . S
C387 C384 1.387 . S
C388 C389 1.387 . S
C388 H392 0.950 . S
C388 C397 1.390 . S
C389 C388 1.387 . S
C389 C391 1.387 . S
H390 C397 0.950 . S
C391 C389 1.387 . S
C391 C393 1.390 . S
C391 H395 0.950 . S
H392 C388 0.950 . S
C393 C391 1.390 . S
C393 C394 1.387 . S
C393 H396 0.950 . S
C394 C393 1.387 . S
C394 C397 1.387 . S
H395 C391 0.950 . S
H396 C393 0.950 . S
C397 C388 1.390 . S
C397 H390 0.950 . S
C397 C394 1.387 . S
C398 C399 1.387 . S
C398 H402 0.950 . S
C398 C407 1.390 . S
C399 C398 1.387 . S
C399 C401 1.387 . S
H400 C407 0.950 . S
C401 C399 1.387 . S
C401 C403 1.390 . S
C401 H405 0.950 . S
H402 C398 0.950 . S
C403 C401 1.390 . S
C403 C404 1.387 . S
C403 H406 0.950 . S
C404 C403 1.387 . S
C404 C407 1.387 . S
H405 C401 0.950 . S
H406 C403 0.950 . S
C407 C398 1.390 . S
C407 H400 0.950 . S
C407 C404 1.387 . S
C169 C11 1.351 . S
C174 C82 1.378 . S
C179 C26 1.380 . S
C184 C60 1.371 . S
C189 C81 1.278 . S
C194 C39 1.277 . S
C199 C54 1.446 . S
C204 C61 1.273 . S
C209 C109 1.379 . S
C214 C40 1.407 . S
C219 C88 1.291 . S
C224 C53 1.273 . S
C229 C12 1.442 . S
C234 C110 1.443 . S
C239 C89 1.207 . S
C244 C25 1.338 . S
C249 C131 1.215 . S
C254 C117 1.230 . S
C259 C116 1.293 . S
C264 C158 1.291 . S
C269 C130 1.253 . S
C274 C144 1.255 . S
C279 C145 1.251 . S
C284 C159 1.246 . S
C289 C165 1.353 . S
C294 C96 1.377 . S
C299 C124 1.380 . S
C304 C102 1.371 . S
C309 C95 1.278 . S
C314 C137 1.277 . S
C319 C103 1.279 . S
C324 C152 1.447 . S
C329 C67 1.378 . S
C334 C138 1.407 . S
C339 C74 1.291 . S
C344 C151 1.273 . S
C349 C166 1.441 . S
C354 C68 1.444 . S
C359 C123 1.336 . S
C364 C75 1.201 . S
C369 C19 1.223 . S
C374 C33 1.221 . S
C379 C4 1.293 . S
C384 C18 1.291 . S
C389 C32 1.254 . S
C394 C46 1.255 . S
C399 C5 1.252 . S
C404 C47 1.245 . S
