# Generated by pormake.
# Topology vbm, (6)-cn, num edge types: 1
# Building blocks:
#     Node 0, Type 0, BuildingBlock: MIDCAF_clean_sbu_0, # of connection points: 6
#     Node 1, Type 0, BuildingBlock: MIDCAF_clean_sbu_0, # of connection points: 6
#     Node 2, Type 0, BuildingBlock: MIDCAF_clean_sbu_0, # of connection points: 6
#     Node 3, Type 0, BuildingBlock: MIDCAF_clean_sbu_0, # of connection points: 6
#     Node 4, Type 0, BuildingBlock: MIDCAF_clean_sbu_0, # of connection points: 6
#     Node 5, Type 0, BuildingBlock: MIDCAF_clean_sbu_0, # of connection points: 6
#     Node 6, Type 0, BuildingBlock: MIDCAF_clean_sbu_0, # of connection points: 6
#     Node 7, Type 0, BuildingBlock: MIDCAF_clean_sbu_0, # of connection points: 6
#     Node 8, Type 0, BuildingBlock: MIDCAF_clean_sbu_0, # of connection points: 6
#     Node 9, Type 0, BuildingBlock: MIDCAF_clean_sbu_0, # of connection points: 6
#     Node 10, Type 0, BuildingBlock: MIDCAF_clean_sbu_0, # of connection points: 6
#     Node 11, Type 0, BuildingBlock: MIDCAF_clean_sbu_0, # of connection points: 6
#     Node 12, Type 0, BuildingBlock: MIDCAF_clean_sbu_0, # of connection points: 6
#     Node 13, Type 0, BuildingBlock: MIDCAF_clean_sbu_0, # of connection points: 6
#     Node 14, Type 0, BuildingBlock: MIDCAF_clean_sbu_0, # of connection points: 6
#     Node 15, Type 0, BuildingBlock: MIDCAF_clean_sbu_0, # of connection points: 6
#     Edge 16, Type (0, 0), BuildingBlock: XUDNAN_clean_linker_2, # of connection points: 2
#     Edge 17, Type (0, 0), BuildingBlock: XUDNAN_clean_linker_2, # of connection points: 2
#     Edge 18, Type (0, 0), BuildingBlock: XUDNAN_clean_linker_2, # of connection points: 2
#     Edge 19, Type (0, 0), BuildingBlock: XUDNAN_clean_linker_2, # of connection points: 2
#     Edge 20, Type (0, 0), BuildingBlock: XUDNAN_clean_linker_2, # of connection points: 2
#     Edge 21, Type (0, 0), BuildingBlock: XUDNAN_clean_linker_2, # of connection points: 2
#     Edge 22, Type (0, 0), BuildingBlock: XUDNAN_clean_linker_2, # of connection points: 2
#     Edge 23, Type (0, 0), BuildingBlock: XUDNAN_clean_linker_2, # of connection points: 2
#     Edge 24, Type (0, 0), BuildingBlock: XUDNAN_clean_linker_2, # of connection points: 2
#     Edge 25, Type (0, 0), BuildingBlock: XUDNAN_clean_linker_2, # of connection points: 2
#     Edge 26, Type (0, 0), BuildingBlock: XUDNAN_clean_linker_2, # of connection points: 2
#     Edge 27, Type (0, 0), BuildingBlock: XUDNAN_clean_linker_2, # of connection points: 2
#     Edge 28, Type (0, 0), BuildingBlock: XUDNAN_clean_linker_2, # of connection points: 2
#     Edge 29, Type (0, 0), BuildingBlock: XUDNAN_clean_linker_2, # of connection points: 2
#     Edge 30, Type (0, 0), BuildingBlock: XUDNAN_clean_linker_2, # of connection points: 2
#     Edge 31, Type (0, 0), BuildingBlock: XUDNAN_clean_linker_2, # of connection points: 2
#     Edge 32, Type (0, 0), BuildingBlock: XUDNAN_clean_linker_2, # of connection points: 2
#     Edge 33, Type (0, 0), BuildingBlock: XUDNAN_clean_linker_2, # of connection points: 2
#     Edge 34, Type (0, 0), BuildingBlock: XUDNAN_clean_linker_2, # of connection points: 2
#     Edge 35, Type (0, 0), BuildingBlock: XUDNAN_clean_linker_2, # of connection points: 2
#     Edge 36, Type (0, 0), BuildingBlock: XUDNAN_clean_linker_2, # of connection points: 2
#     Edge 37, Type (0, 0), BuildingBlock: XUDNAN_clean_linker_2, # of connection points: 2
#     Edge 38, Type (0, 0), BuildingBlock: XUDNAN_clean_linker_2, # of connection points: 2
#     Edge 39, Type (0, 0), BuildingBlock: XUDNAN_clean_linker_2, # of connection points: 2
#     Edge 40, Type (0, 0), BuildingBlock: XUDNAN_clean_linker_2, # of connection points: 2
#     Edge 41, Type (0, 0), BuildingBlock: XUDNAN_clean_linker_2, # of connection points: 2
#     Edge 42, Type (0, 0), BuildingBlock: XUDNAN_clean_linker_2, # of connection points: 2
#     Edge 43, Type (0, 0), BuildingBlock: XUDNAN_clean_linker_2, # of connection points: 2
#     Edge 44, Type (0, 0), BuildingBlock: XUDNAN_clean_linker_2, # of connection points: 2
#     Edge 45, Type (0, 0), BuildingBlock: XUDNAN_clean_linker_2, # of connection points: 2
#     Edge 46, Type (0, 0), BuildingBlock: XUDNAN_clean_linker_2, # of connection points: 2
#     Edge 47, Type (0, 0), BuildingBlock: XUDNAN_clean_linker_2, # of connection points: 2
#     Edge 48, Type (0, 0), BuildingBlock: XUDNAN_clean_linker_2, # of connection points: 2
#     Edge 49, Type (0, 0), BuildingBlock: XUDNAN_clean_linker_2, # of connection points: 2
#     Edge 50, Type (0, 0), BuildingBlock: XUDNAN_clean_linker_2, # of connection points: 2
#     Edge 51, Type (0, 0), BuildingBlock: XUDNAN_clean_linker_2, # of connection points: 2
#     Edge 52, Type (0, 0), BuildingBlock: XUDNAN_clean_linker_2, # of connection points: 2
#     Edge 53, Type (0, 0), BuildingBlock: XUDNAN_clean_linker_2, # of connection points: 2
#     Edge 54, Type (0, 0), BuildingBlock: XUDNAN_clean_linker_2, # of connection points: 2
#     Edge 55, Type (0, 0), BuildingBlock: XUDNAN_clean_linker_2, # of connection points: 2
#     Edge 56, Type (0, 0), BuildingBlock: XUDNAN_clean_linker_2, # of connection points: 2
#     Edge 57, Type (0, 0), BuildingBlock: XUDNAN_clean_linker_2, # of connection points: 2
#     Edge 58, Type (0, 0), BuildingBlock: XUDNAN_clean_linker_2, # of connection points: 2
#     Edge 59, Type (0, 0), BuildingBlock: XUDNAN_clean_linker_2, # of connection points: 2
#     Edge 60, Type (0, 0), BuildingBlock: XUDNAN_clean_linker_2, # of connection points: 2
#     Edge 61, Type (0, 0), BuildingBlock: XUDNAN_clean_linker_2, # of connection points: 2
#     Edge 62, Type (0, 0), BuildingBlock: XUDNAN_clean_linker_2, # of connection points: 2
#     Edge 63, Type (0, 0), BuildingBlock: XUDNAN_clean_linker_2, # of connection points: 2
# Relax obj value: 0.153
# Max RMSD: 0.187
# Mean RMSD: 0.187
data_MOF--net-vbm--node1-MIDCAF_clean_sbu_0--edge1-XUDNAN_clean_linker_2
_symmetry_space_group_name_H-M    P1
_symmetry_Int_Tables_number       1
_symmetry_cell_setting            triclinic
loop_
_symmetry_equiv_pos_as_xyz
'x, y, z'
_cell_length_a     59.113695
_cell_length_b     15.066314
_cell_length_c     60.974315
_cell_angle_alpha  90.057176
_cell_angle_beta   89.988479
_cell_angle_gamma 90.013858
loop_
_atom_site_label
_atom_site_type_symbol
_atom_site_fract_x
_atom_site_fract_y
_atom_site_fract_z
_atom_type_partial_charge
Zn0 Zn 0.15902 0.10182 0.09588 0.0
Zn1 Zn 0.1048 0.24144 0.14808 0.0
Zn2 Zn 0.13443 0.16828 0.12469 0.0
C3 C 0.07898 0.18814 0.11507 0.0
C4 C 0.12291 0.10367 0.17302 0.0
O5 O 0.16567 0.25211 0.12122 0.0
O6 O 0.1822 0.19187 0.09235 0.0
C7 C 0.12021 0.11144 0.0741 0.0
O8 O 0.09926 0.16518 0.10925 0.0
O9 O 0.07608 0.22929 0.13282 0.0
O10 O 0.10875 0.16612 0.174 0.0
O11 O 0.13414 0.08972 0.15526 0.0
O12 O 0.13957 0.07941 0.07079 0.0
O13 O 0.11536 0.14668 0.09288 0.0
O14 O 0.14672 0.04288 0.13932 0.0
O15 O 0.16933 -0.00174 0.11269 0.0
C16 C 0.16105 0.9867 0.13152 0.0
O17 O 0.14782 0.30346 0.13231 0.0
O18 O 0.11832 0.35925 0.14968 0.0
C19 C 0.18256 0.24735 0.1078 0.0
C20 C 0.13803 0.36889 0.14214 0.0
Zn21 Zn 0.92604 0.74756 0.14053 0.0
Zn22 Zn 0.86234 0.91471 0.13765 0.0
Zn23 Zn 0.89325 0.83121 0.13539 0.0
C24 C 0.89317 0.03568 0.13764 0.0
C25 C 0.87983 0.91628 0.09355 0.0
O26 O 0.8816 0.71253 0.11976 0.0
O27 O 0.91565 0.65347 0.1198 0.0
C28 C 0.90624 0.78229 0.18246 0.0
O29 O 0.90136 0.96998 0.12672 0.0
O30 O 0.87751 0.0203 0.15126 0.0
O31 O 0.86066 0.91055 0.10285 0.0
O32 O 0.89759 0.91339 0.10594 0.0
O33 O 0.92084 0.73341 0.1732 0.0
O34 O 0.89445 0.83522 0.17075 0.0
O35 O 0.91974 0.90597 0.11645 0.0
O36 O 0.9492 0.82926 0.12838 0.0
C37 C 0.94133 0.89219 0.11704 0.0
O38 O 0.86098 0.76265 0.1269 0.0
O39 O 0.8444 0.8257 0.15495 0.0
C40 C 0.89521 0.6512 0.11379 0.0
C41 C 0.84341 0.77088 0.13927 0.0
Zn42 Zn 0.16403 0.99035 0.40052 0.0
Zn43 Zn 0.10333 0.84791 0.3556 0.0
Zn44 Zn 0.13605 0.91758 0.37606 0.0
C45 C 0.0826 0.89827 0.39223 0.0
C46 C 0.12027 0.97729 0.32798 0.0
O47 O 0.16691 0.83173 0.37709 0.0
O48 O 0.18655 0.8969 0.40337 0.0
C49 C 0.12799 0.987 0.42685 0.0
O50 O 0.10352 0.9186 0.39593 0.0
O51 O 0.07691 0.86494 0.37413 0.0
O52 O 0.10526 0.91788 0.32858 0.0
O53 O 0.13283 0.99156 0.34488 0.0
O54 O 0.14731 0.02217 0.42693 0.0
O55 O 0.12114 0.94462 0.40962 0.0
O56 O 0.14626 0.04228 0.35939 0.0
O57 O 0.17343 0.08835 0.38146 0.0
C58 C 0.16194 0.09845 0.36425 0.0
O59 O 0.14798 0.78185 0.36748 0.0
O60 O 0.11615 0.72832 0.35391 0.0
C61 C 0.18496 0.83738 0.38893 0.0
C62 C 0.13657 0.71697 0.35918 0.0
Zn63 Zn 0.86019 0.87396 0.41699 0.0
Zn64 Zn 0.90142 0.03217 0.3584 0.0
Zn65 Zn 0.87664 0.94795 0.3855 0.0
C66 C 0.93023 0.01164 0.39204 0.0
C67 C 0.88872 0.87594 0.33729 0.0
O68 O 0.84271 0.01336 0.38997 0.0
O69 O 0.82965 0.92226 0.4152 0.0
C70 C 0.89516 0.93744 0.43727 0.0
O71 O 0.91169 0.97506 0.39886 0.0
O72 O 0.93071 0.04825 0.37346 0.0
O73 O 0.89975 0.94654 0.33445 0.0
O74 O 0.87929 0.85957 0.35595 0.0
O75 O 0.87746 0.89809 0.4433 0.0
O76 O 0.8979 0.95718 0.41677 0.0
O77 O 0.86871 0.81154 0.37378 0.0
O78 O 0.8618 0.75354 0.40624 0.0
C79 C 0.86357 0.74412 0.38579 0.0
O80 O 0.85709 0.06809 0.37687 0.0
O81 O 0.88126 0.13326 0.3543 0.0
C82 C 0.82616 0.98439 0.40182 0.0
C83 C 0.86235 0.13216 0.36384 0.0
Zn84 Zn 0.82922 0.93656 0.90008 0.0
Zn85 Zn 0.89912 0.81802 0.86352 0.0
Zn86 Zn 0.86357 0.88019 0.88047 0.0
C87 C 0.91401 0.86609 0.90338 0.0
C88 C 0.88566 0.94993 0.83523 0.0
O89 O 0.83552 0.78071 0.87626 0.0
O90 O 0.80608 0.85546 0.88891 0.0
C91 C 0.8598 0.91444 0.93327 0.0
O92 O 0.89307 0.89113 0.90408 0.0
O93 O 0.9214 0.82472 0.88693 0.0
O94 O 0.90229 0.89931 0.83853 0.0
O95 O 0.86975 0.95579 0.84967 0.0
O96 O 0.83872 0.92232 0.93073 0.0
O97 O 0.87264 0.90494 0.91622 0.0
O98 O 0.85478 0.00559 0.86387 0.0
O99 O 0.82967 0.05691 0.88747 0.0
C100 C 0.84169 0.06836 0.8706 0.0
O101 O 0.85576 0.74345 0.86896 0.0
O102 O 0.8884 0.70112 0.85467 0.0
C103 C 0.814 0.78814 0.87937 0.0
C104 C 0.86791 0.68543 0.85878 0.0
Zn105 Zn 0.13122 0.01493 0.89795 0.0
Zn106 Zn 0.0696 0.1638 0.85786 0.0
Zn107 Zn 0.10337 0.08805 0.87337 0.0
C108 C 0.05127 0.11998 0.89492 0.0
C109 C 0.08049 0.0237 0.8294 0.0
O110 O 0.1339 0.17503 0.87214 0.0
O111 O 0.15559 0.10115 0.89528 0.0
C112 C 0.09858 0.04184 0.92651 0.0
O113 O 0.07172 0.08872 0.89504 0.0
O114 O 0.04506 0.16897 0.87932 0.0
O115 O 0.06544 0.0807 0.83348 0.0
O116 O 0.09681 0.01153 0.84306 0.0
O117 O 0.11755 0.00399 0.92679 0.0
O118 O 0.09094 0.07457 0.90836 0.0
O119 O 0.11153 0.95871 0.85706 0.0
O120 O 0.13529 0.90534 0.88159 0.0
C121 C 0.12468 0.89606 0.86381 0.0
O122 O 0.11572 0.21966 0.86149 0.0
O123 O 0.08376 0.27393 0.84834 0.0
C124 C 0.1529 0.165 0.88221 0.0
C125 C 0.10476 0.28136 0.85141 0.0
Zn126 Zn 0.86296 0.06992 0.60455 0.0
Zn127 Zn 0.92394 0.21112 0.65324 0.0
Zn128 Zn 0.8905 0.14214 0.6309 0.0
C129 C 0.94407 0.16399 0.61533 0.0
C130 C 0.90476 0.07957 0.67969 0.0
O131 O 0.85995 0.22883 0.62877 0.0
O132 O 0.8402 0.16309 0.60258 0.0
C133 C 0.90048 0.07162 0.58021 0.0
O134 O 0.92321 0.14198 0.61203 0.0
O135 O 0.95001 0.19717 0.63341 0.0
O136 O 0.92067 0.13557 0.67976 0.0
O137 O 0.89258 0.06917 0.66234 0.0
O138 O 0.88074 0.04112 0.57842 0.0
O139 O 0.90658 0.11135 0.59805 0.0
O140 O 0.87973 0.01825 0.64723 0.0
O141 O 0.85434 0.9701 0.62346 0.0
C142 C 0.86475 0.96087 0.64136 0.0
O143 O 0.87895 0.27852 0.63883 0.0
O144 O 0.90993 0.32966 0.65477 0.0
C145 C 0.84192 0.22314 0.61689 0.0
C146 C 0.89 0.34238 0.64803 0.0
Zn147 Zn 0.16038 0.99006 0.61164 0.0
Zn148 Zn 0.0943 0.83667 0.64212 0.0
Zn149 Zn 0.12907 0.91629 0.63197 0.0
C150 C 0.07846 0.89362 0.60607 0.0
C151 C 0.10148 0.97574 0.67284 0.0
O152 O 0.15785 0.81907 0.63128 0.0
O153 O 0.18455 0.90606 0.61776 0.0
C154 C 0.12883 0.9734 0.58015 0.0
O155 O 0.09843 0.92753 0.60901 0.0
O156 O 0.07192 0.83171 0.61842 0.0
O157 O 0.08708 0.92095 0.66575 0.0
O158 O 0.12022 0.98711 0.66246 0.0
O159 O 0.14905 -0.00042 0.58128 0.0
O160 O 0.11888 0.94348 0.59745 0.0
O161 O 0.13711 0.04107 0.65085 0.0
O162 O 0.16201 0.09896 0.62807 0.0
C163 C 0.15043 0.10526 0.64533 0.0
O164 O 0.1395 0.78011 0.64327 0.0
O165 O 0.10637 0.72701 0.65369 0.0
C166 C 0.17868 0.83288 0.62591 0.0
C167 C 0.12753 0.71878 0.65244 0.0
Zn168 Zn 0.65913 0.59344 0.10382 0.0
Zn169 Zn 0.6052 0.74691 0.1561 0.0
Zn170 Zn 0.63734 0.67192 0.13297 0.0
C171 C 0.58239 0.70697 0.12043 0.0
C172 C 0.62264 0.60159 0.18009 0.0
O173 O 0.66821 0.7535 0.12751 0.0
O174 O 0.68014 0.69022 0.09697 0.0
C175 C 0.62061 0.60629 0.08356 0.0
O176 O 0.60275 0.67821 0.11725 0.0
O177 O 0.57762 0.74833 0.13778 0.0
O178 O 0.60736 0.66021 0.18044 0.0
O179 O 0.63571 0.59372 0.16331 0.0
O180 O 0.63791 0.55916 0.08049 0.0
O181 O 0.61856 0.65149 0.10146 0.0
O182 O 0.6491 0.54496 0.14796 0.0
O183 O 0.67203 0.49817 0.12183 0.0
C184 C 0.66371 0.48852 0.14072 0.0
O185 O 0.65161 0.80447 0.14099 0.0
O186 O 0.62234 0.85812 0.15925 0.0
C187 C 0.68269 0.748 0.11173 0.0
C188 C 0.64206 0.86821 0.15166 0.0
Zn189 Zn 0.42474 0.36479 0.13553 0.0
Zn190 Zn 0.36735 0.50726 0.08758 0.0
Zn191 Zn 0.392 0.43618 0.11612 0.0
C192 C 0.37116 0.62843 0.12221 0.0
C193 C 0.40238 0.46846 0.06264 0.0
O194 O 0.37942 0.3041 0.12634 0.0
O195 O 0.41091 0.24869 0.14034 0.0
C196 C 0.40735 0.49569 0.16389 0.0
O197 O 0.38184 0.56354 0.13126 0.0
O198 O 0.36424 0.62115 0.10272 0.0
O199 O 0.38342 0.50429 0.05957 0.0
O200 O 0.40821 0.44359 0.08217 0.0
O201 O 0.42304 0.43944 0.16202 0.0
O202 O 0.39404 0.51065 0.14754 0.0
O203 O 0.4257 0.44578 0.09836 0.0
O204 O 0.45201 0.37623 0.11745 0.0
C205 C 0.44668 0.42368 0.10125 0.0
O206 O 0.36164 0.34913 0.11476 0.0
O207 O 0.34171 0.426 0.09077 0.0
C208 C 0.39013 0.24089 0.13603 0.0
C209 C 0.34317 0.36196 0.104 0.0
Zn210 Zn 0.66748 0.46838 0.40403 0.0
Zn211 Zn 0.59973 0.32313 0.36345 0.0
Zn212 Zn 0.63468 0.39092 0.38269 0.0
C213 C 0.5814 0.3895 0.40036 0.0
C214 C 0.61864 0.44608 0.33438 0.0
O215 O 0.66222 0.29053 0.3864 0.0
O216 O 0.68915 0.37065 0.40217 0.0
C217 C 0.63038 0.46775 0.43227 0.0
O218 O 0.6026 0.4089 0.4025 0.0
O219 O 0.5748 0.34662 0.38379 0.0
O220 O 0.60207 0.39361 0.33606 0.0
O221 O 0.63221 0.45717 0.35067 0.0
O222 O 0.65082 0.49212 0.43175 0.0
O223 O 0.62142 0.42971 0.41543 0.0
O224 O 0.64591 0.51096 0.36437 0.0
O225 O 0.67351 0.56812 0.3844 0.0
C226 C 0.66101 0.57134 0.36768 0.0
O227 O 0.64369 0.25132 0.37453 0.0
O228 O 0.61124 0.20158 0.36128 0.0
C229 C 0.6826 0.29869 0.39374 0.0
C230 C 0.63167 0.18818 0.3662 0.0
Zn231 Zn 0.42398 0.66369 0.35008 0.0
Zn232 Zn 0.36473 0.52432 0.39733 0.0
Zn233 Zn 0.39106 0.59693 0.37069 0.0
C234 C 0.36852 0.40701 0.36211 0.0
C235 C 0.40097 0.53809 0.4226 0.0
O236 O 0.37821 0.72933 0.36064 0.0
O237 O 0.40821 0.77345 0.34199 0.0
C238 C 0.40838 0.53136 0.32301 0.0
O239 O 0.38166 0.46861 0.35478 0.0
O240 O 0.35863 0.41743 0.38025 0.0
O241 O 0.38149 0.50522 0.42444 0.0
O242 O 0.40704 0.57405 0.40424 0.0
O243 O 0.42565 0.57968 0.3254 0.0
O244 O 0.39387 0.52492 0.33877 0.0
O245 O 0.42378 0.60316 0.39007 0.0
O246 O 0.44961 0.67356 0.37046 0.0
C247 C 0.44404 0.63465 0.38791 0.0
O248 O 0.36083 0.68535 0.37277 0.0
O249 O 0.34091 0.61391 0.39779 0.0
C250 C 0.38822 0.78697 0.34841 0.0
C251 C 0.34281 0.67764 0.38454 0.0
Zn252 Zn 0.34487 0.3417 0.90367 0.0
Zn253 Zn 0.384 0.22863 0.83943 0.0
Zn254 Zn 0.36401 0.30387 0.8698 0.0
C255 C 0.41634 0.23911 0.87126 0.0
C256 C 0.37103 0.38947 0.82208 0.0
O257 O 0.33042 0.2329 0.87327 0.0
O258 O 0.3165 0.27935 0.90476 0.0
C259 C 0.38508 0.32007 0.92042 0.0
O260 O 0.39972 0.27879 0.88093 0.0
O261 O 0.41366 0.20807 0.85226 0.0
O262 O 0.38194 0.32053 0.81713 0.0
O263 O 0.36263 0.39855 0.84147 0.0
O264 O 0.36531 0.32204 0.92799 0.0
O265 O 0.38818 0.31686 0.89937 0.0
O266 O 0.35252 0.43603 0.86073 0.0
O267 O 0.33983 0.46613 0.89394 0.0
C268 C 0.34309 0.48978 0.87431 0.0
O269 O 0.34689 0.17385 0.8628 0.0
O270 O 0.3663 0.12147 0.83476 0.0
C271 C 0.31379 0.23816 0.88701 0.0
C272 C 0.35074 0.11175 0.84865 0.0
Zn273 Zn 0.63644 0.52452 0.90646 0.0
Zn274 Zn 0.57817 0.64471 0.86628 0.0
Zn275 Zn 0.60984 0.57268 0.8846 0.0
C276 C 0.5626 0.47994 0.87983 0.0
C277 C 0.61391 0.62987 0.83564 0.0
O278 O 0.64416 0.5913 0.86886 0.0
O279 O 0.65888 0.61772 0.90124 0.0
C280 C 0.60754 0.58549 0.93538 0.0
O281 O 0.58402 0.46611 0.88179 0.0
O282 O 0.55538 0.55627 0.87505 0.0
O283 O 0.5927 0.63909 0.83704 0.0
O284 O 0.62535 0.60967 0.85289 0.0
O285 O 0.62019 0.51849 0.93456 0.0
O286 O 0.60494 0.63229 0.91789 0.0
O287 O 0.60515 0.43017 0.89135 0.0
O288 O 0.6418 0.40703 0.89351 0.0
C289 C 0.62195 0.37626 0.89333 0.0
O290 O 0.6003 0.69452 0.90259 0.0
O291 O 0.57692 0.7628 0.87999 0.0
C292 C 0.6612 0.61587 0.88067 0.0
C293 C 0.5888 0.76387 0.89714 0.0
Zn294 Zn 0.35802 0.5195 0.59292 0.0
Zn295 Zn 0.40804 0.67284 0.64412 0.0
Zn296 Zn 0.37848 0.59981 0.62076 0.0
C297 C 0.4337 0.62893 0.61072 0.0
C298 C 0.38869 0.54673 0.67107 0.0
O299 O 0.3467 0.67758 0.61458 0.0
O300 O 0.33612 0.60942 0.58436 0.0
C301 C 0.39604 0.52583 0.57178 0.0
O302 O 0.4135 0.60444 0.60516 0.0
O303 O 0.43713 0.66355 0.62921 0.0
O304 O 0.40374 0.60604 0.67135 0.0
O305 O 0.3781 0.5295 0.65305 0.0
O306 O 0.37843 0.47966 0.56972 0.0
O307 O 0.39856 0.57446 0.58916 0.0
O308 O 0.36704 0.47508 0.63707 0.0
O309 O 0.34448 0.42648 0.61091 0.0
C310 C 0.35244 0.41834 0.62995 0.0
O311 O 0.3637 0.73343 0.62662 0.0
O312 O 0.39341 0.78908 0.64364 0.0
C313 C 0.33221 0.66654 0.59898 0.0
C314 C 0.37375 0.79922 0.63601 0.0
Zn315 Zn 0.60612 0.44855 0.65935 0.0
Zn316 Zn 0.66452 0.58296 0.60713 0.0
Zn317 Zn 0.6379 0.5108 0.63404 0.0
C318 C 0.66331 0.6984 0.64171 0.0
C319 C 0.62716 0.56267 0.58246 0.0
O320 O 0.64984 0.37681 0.64357 0.0
O321 O 0.62002 0.3299 0.66218 0.0
C322 C 0.62554 0.58793 0.6823 0.0
O323 O 0.64918 0.63914 0.6484 0.0
O324 O 0.67305 0.68943 0.62347 0.0
O325 O 0.64634 0.5985 0.58078 0.0
O326 O 0.62114 0.52737 0.60089 0.0
O327 O 0.60991 0.5315 0.68435 0.0
O328 O 0.63701 0.59223 0.66436 0.0
O329 O 0.60433 0.50696 0.61626 0.0
O330 O 0.57938 0.45831 0.64046 0.0
C331 C 0.58376 0.48648 0.62147 0.0
O332 O 0.66833 0.42362 0.63226 0.0
O333 O 0.68796 0.49206 0.60642 0.0
C334 C 0.63945 0.31537 0.65435 0.0
C335 C 0.68635 0.43093 0.62041 0.0
H336 H 0.21434 0.29882 0.0785 0.0
H337 H 0.20199 0.27271 0.14822 0.0
H338 H 0.24322 0.28485 0.15526 0.0
H339 H 0.26161 0.16364 0.07666 0.0
H340 H 0.27663 0.22748 0.05635 0.0
H341 H 0.24619 0.22935 0.057 0.0
H342 H 0.24602 0.40094 0.06074 0.0
H343 H 0.2764 0.39984 0.05898 0.0
H344 H 0.2627 0.45257 0.08197 0.0
H345 H 0.28707 0.28635 0.15373 0.0
H346 H 0.32761 0.30743 0.14431 0.0
H347 H 0.30981 0.32198 0.07551 0.0
C348 C 0.22022 0.2992 0.09533 0.0
C349 C 0.20494 0.28632 0.11283 0.0
C350 C 0.21334 0.28485 0.1346 0.0
C351 C 0.23678 0.29 0.13869 0.0
C352 C 0.2515 0.29637 0.12083 0.0
C353 C 0.24339 0.30311 0.09963 0.0
C354 C 0.26239 0.30695 0.08309 0.0
C355 C 0.26164 0.22709 0.06736 0.0
C356 C 0.26185 0.39533 0.07046 0.0
C357 C 0.28258 0.30146 0.0982 0.0
C358 C 0.27615 0.29467 0.11993 0.0
C359 C 0.29222 0.29169 0.13675 0.0
C360 C 0.31526 0.30201 0.13125 0.0
C361 C 0.32182 0.31554 0.10917 0.0
C362 C 0.30531 0.31055 0.0925 0.0
H363 H 0.80492 0.74497 0.1633 0.0
H364 H 0.83013 0.75666 0.09653 0.0
H365 H 0.79104 0.7739 0.08294 0.0
H366 H 0.75279 0.61892 0.14978 0.0
H367 H 0.73664 0.67653 0.17044 0.0
H368 H 0.76653 0.6595 0.17421 0.0
H369 H 0.77126 0.82917 0.17976 0.0
H370 H 0.74154 0.84699 0.17491 0.0
H371 H 0.76225 0.90403 0.15843 0.0
H372 H 0.74982 0.80671 0.07704 0.0
H373 H 0.70812 0.80679 0.07776 0.0
H374 H 0.70924 0.76749 0.14815 0.0
C375 C 0.80212 0.74795 0.14576 0.0
C376 C 0.82058 0.74917 0.13097 0.0
C377 C 0.81628 0.75423 0.10815 0.0
C378 C 0.79414 0.76576 0.10031 0.0
C379 C 0.7765 0.77046 0.11547 0.0
C380 C 0.78012 0.75818 0.13763 0.0
C381 C 0.75809 0.76305 0.15037 0.0
C382 C 0.75322 0.67422 0.16187 0.0
C383 C 0.75832 0.84042 0.16684 0.0
C384 C 0.7415 0.78047 0.13191 0.0
C385 C 0.7526 0.78659 0.112 0.0
C386 C 0.74095 0.80133 0.09251 0.0
C387 C 0.71726 0.8028 0.09313 0.0
C388 C 0.70544 0.78807 0.11303 0.0
C389 C 0.71777 0.78134 0.13281 0.0
H390 H 0.31198 0.72597 0.41484 0.0
H391 H 0.3263 0.73915 0.34526 0.0
H392 H 0.2859 0.77323 0.338 0.0
H393 H 0.26252 0.61106 0.41082 0.0
H394 H 0.24796 0.66658 0.43289 0.0
H395 H 0.27835 0.65955 0.4331 0.0
H396 H 0.28196 0.83077 0.43571 0.0
H397 H 0.25158 0.83817 0.43668 0.0
H398 H 0.26712 0.89943 0.41625 0.0
H399 H 0.24234 0.78701 0.33867 0.0
H400 H 0.20184 0.80954 0.34772 0.0
H401 H 0.21714 0.77729 0.4167 0.0
C402 C 0.30681 0.73979 0.39814 0.0
C403 C 0.32222 0.73056 0.38061 0.0
C404 C 0.31482 0.74758 0.35894 0.0
C405 C 0.29183 0.76542 0.35468 0.0
C406 C 0.27669 0.76653 0.3723 0.0
C407 C 0.2841 0.75667 0.39366 0.0
C408 C 0.26466 0.75643 0.40976 0.0
C409 C 0.26331 0.66815 0.42237 0.0
C410 C 0.26643 0.83595 0.42552 0.0
C411 C 0.24497 0.76629 0.39419 0.0
C412 C 0.25209 0.77181 0.37263 0.0
C413 C 0.23667 0.78281 0.35551 0.0
C414 C 0.21363 0.79376 0.36074 0.0
C415 C 0.20632 0.79303 0.38287 0.0
C416 C 0.22217 0.77591 0.39961 0.0
H417 H 0.80943 0.13679 0.38151 0.0
H418 H 0.78864 0.89909 0.41628 0.0
H419 H 0.74901 0.94427 0.41334 0.0
H420 H 0.77157 0.27952 0.4079 0.0
H421 H 0.76539 0.34679 0.38419 0.0
H422 H 0.79206 0.29007 0.38615 0.0
H423 H 0.78486 0.21406 0.34895 0.0
H424 H 0.75795 0.26971 0.34673 0.0
H425 H 0.75935 0.15042 0.34492 0.0
H426 H 0.71161 0.01833 0.40931 0.0
H427 H 0.67979 0.12549 0.40721 0.0
H428 H 0.72426 0.31677 0.37631 0.0
C429 C 0.79657 0.09411 0.38829 0.0
C430 C 0.80239 0.01477 0.3992 0.0
C431 C 0.78484 0.96078 0.40796 0.0
C432 C 0.76212 0.98527 0.40622 0.0
C433 C 0.75695 0.06416 0.39565 0.0
C434 C 0.77363 0.11823 0.38693 0.0
C435 C 0.7635 0.20346 0.37819 0.0
C436 C 0.77371 0.28476 0.38983 0.0
C437 C 0.7666 0.20974 0.35321 0.0
C438 C 0.73881 0.18998 0.38421 0.0
C439 C 0.73528 0.1081 0.39373 0.0
C440 C 0.71405 0.08233 0.40163 0.0
C441 C 0.69608 0.14309 0.40034 0.0
C442 C 0.69964 0.22826 0.39138 0.0
C443 C 0.72113 0.25117 0.38291 0.0
H444 H 0.69908 0.57454 0.9026 0.0
H445 H 0.67651 0.68092 0.84037 0.0
H446 H 0.71669 0.70207 0.8293 0.0
H447 H 0.73947 0.73205 0.91167 0.0
H448 H 0.7586 0.65808 0.92566 0.0
H449 H 0.72882 0.6357 0.92582 0.0
H450 H 0.73674 0.47967 0.90993 0.0
H451 H 0.76666 0.50219 0.90889 0.0
H452 H 0.75178 0.46848 0.8844 0.0
H453 H 0.75943 0.73153 0.82797 0.0
H454 H 0.79778 0.78376 0.83791 0.0
H455 H 0.79107 0.66318 0.9018 0.0
C456 C 0.70245 0.60098 0.88641 0.0
C457 C 0.68461 0.62483 0.87215 0.0
C458 C 0.68987 0.65962 0.85125 0.0
C459 C 0.71267 0.67203 0.84494 0.0
C460 C 0.72986 0.64878 0.85972 0.0
C461 C 0.7248 0.61442 0.8801 0.0
C462 C 0.74554 0.6061 0.89445 0.0
C463 C 0.74295 0.66131 0.91562 0.0
C464 C 0.75049 0.50829 0.89971 0.0
C465 C 0.76326 0.64474 0.87938 0.0
C466 C 0.75412 0.66674 0.85915 0.0
C467 C 0.7668 0.71254 0.84351 0.0
C468 C 0.78871 0.74108 0.84918 0.0
C469 C 0.79752 0.72483 0.87037 0.0
C470 C 0.78503 0.67286 0.88521 0.0
H471 H 0.27785 0.22655 0.91443 0.0
H472 H 0.2962 0.20259 0.84581 0.0
H473 H 0.25543 0.20396 0.83582 0.0
H474 H 0.22729 0.09413 0.91323 0.0
H475 H 0.21326 0.16544 0.9327 0.0
H476 H 0.24354 0.15502 0.93324 0.0
H477 H 0.2466 0.32648 0.92984 0.0
H478 H 0.21629 0.33663 0.92818 0.0
H479 H 0.23384 0.38155 0.90671 0.0
H480 H 0.21149 0.2114 0.83407 0.0
H481 H 0.17034 0.19729 0.8414 0.0
H482 H 0.18281 0.23206 0.91076 0.0
C483 C 0.27342 0.2198 0.89727 0.0
C484 C 0.29027 0.21419 0.88091 0.0
C485 C 0.28359 0.20579 0.85868 0.0
C486 C 0.26049 0.20807 0.85285 0.0
C487 C 0.2444 0.21967 0.86944 0.0
C488 C 0.25073 0.22396 0.89122 0.0
C489 C 0.23064 0.23644 0.90618 0.0
C490 C 0.22856 0.1581 0.92227 0.0
C491 C 0.23194 0.32558 0.91844 0.0
C492 C 0.21175 0.23683 0.88955 0.0
C493 C 0.21984 0.22795 0.86837 0.0
C494 C 0.20507 0.21946 0.85057 0.0
C495 C 0.18166 0.21329 0.8548 0.0
C496 C 0.17347 0.21514 0.87661 0.0
C497 C 0.18862 0.23286 0.8939 0.0
H498 H 0.7163 0.36752 0.59076 0.0
H499 H 0.70481 0.39541 0.66058 0.0
H500 H 0.74451 0.35082 0.66775 0.0
H501 H 0.75609 0.1797 0.59311 0.0
H502 H 0.77277 0.22364 0.57088 0.0
H503 H 0.74289 0.24604 0.57211 0.0
H504 H 0.75155 0.4146 0.57015 0.0
H505 H 0.78148 0.39287 0.56971 0.0
H506 H 0.7697 0.46425 0.59051 0.0
H507 H 0.78656 0.31099 0.66669 0.0
H508 H 0.82584 0.26631 0.65764 0.0
H509 H 0.80965 0.27801 0.5884 0.0
C510 C 0.72193 0.36101 0.60759 0.0
C511 C 0.70734 0.38176 0.62516 0.0
C512 C 0.71553 0.37639 0.64695 0.0
C513 C 0.73811 0.35239 0.65112 0.0
C514 C 0.7523 0.33558 0.6333 0.0
C515 C 0.74439 0.33863 0.61197 0.0
C516 C 0.76313 0.32239 0.59559 0.0
C517 C 0.75844 0.23791 0.58214 0.0
C518 C 0.76666 0.40337 0.58062 0.0
C519 C 0.78293 0.31002 0.61096 0.0
C520 C 0.77644 0.31772 0.63266 0.0
C521 C 0.79184 0.3056 0.64974 0.0
C522 C 0.81417 0.28154 0.64447 0.0
C523 C 0.82094 0.27151 0.62231 0.0
C524 C 0.80513 0.28775 0.60545 0.0
H525 H 0.2145 0.81175 0.65354 0.0
H526 H 0.18298 0.70906 0.59469 0.0
H527 H 0.22019 0.6593 0.58125 0.0
H528 H 0.26094 0.89728 0.63215 0.0
H529 H 0.28171 0.86354 0.65209 0.0
H530 H 0.25255 0.87549 0.66007 0.0
H531 H 0.25095 0.71337 0.67393 0.0
H532 H 0.28052 0.70207 0.66723 0.0
H533 H 0.26021 0.6247 0.6562 0.0
H534 H 0.26033 0.66761 0.56963 0.0
H535 H 0.30159 0.66619 0.56593 0.0
H536 H 0.30843 0.73506 0.63486 0.0
C537 C 0.21528 0.77271 0.63864 0.0
C538 C 0.19588 0.76289 0.62524 0.0
C539 C 0.19755 0.71503 0.60538 0.0
C540 C 0.2187 0.68823 0.59744 0.0
C541 C 0.2378 0.70662 0.61005 0.0
C542 C 0.23627 0.7424 0.63085 0.0
C543 C 0.25971 0.75595 0.64069 0.0
C544 C 0.26395 0.85388 0.6466 0.0
C545 C 0.26305 0.69539 0.6607 0.0
C546 C 0.27455 0.7272 0.62164 0.0
C547 C 0.26141 0.70152 0.604 0.0
C548 C 0.27084 0.68318 0.58364 0.0
C549 C 0.29439 0.68395 0.58167 0.0
C550 C 0.3085 0.6993 0.60016 0.0
C551 C 0.29833 0.72382 0.62032 0.0
H552 H 0.09062 0.00794 0.29511 0.0
H553 H 0.16173 0.02703 0.31176 0.0
H554 H 0.17109 0.04605 0.27236 0.0
H555 H 0.09689 0.87972 0.2481 0.0
H556 H 0.07472 0.93344 0.23277 0.0
H557 H 0.07341 0.93032 0.26226 0.0
H558 H 0.07065 0.10212 0.26418 0.0
H559 H 0.07083 0.1053 0.23468 0.0
H560 H 0.09135 0.16858 0.24999 0.0
H561 H 0.17236 0.04876 0.23009 0.0
H562 H 0.16468 0.06998 0.19041 0.0
H563 H 0.09284 0.04539 0.20283 0.0
C564 C 0.10812 0.01883 0.29055 0.0
C565 C 0.12545 0.01634 0.3064 0.0
C566 C 0.14816 0.03013 0.29985 0.0
C567 C 0.15364 0.03939 0.27749 0.0
C568 C 0.13617 0.03531 0.2621 0.0
C569 C 0.11381 0.02793 0.2685 0.0
C570 C 0.09802 0.02528 0.24907 0.0
C571 C 0.085 0.93693 0.24801 0.0
C572 C 0.08177 0.10508 0.2495 0.0
C573 C 0.1149 0.03225 0.2306 0.0
C574 C 0.13689 0.0367 0.23828 0.0
C575 C 0.15521 0.04547 0.22396 0.0
C576 C 0.15075 0.05587 0.20142 0.0
C577 C 0.1282 0.05831 0.1937 0.0
C578 C 0.11025 0.0423 0.20835 0.0
H579 H 0.86537 0.92542 0.30182 0.0
H580 H 0.90672 0.71296 0.32756 0.0
H581 H 0.91211 0.65486 0.28982 0.0
H582 H 0.84049 0.7996 0.25292 0.0
H583 H 0.84216 0.89791 0.23617 0.0
H584 H 0.83687 0.90756 0.2652 0.0
H585 H 0.87122 0.01318 0.26854 0.0
H586 H 0.87712 0.00195 0.23977 0.0
H587 H 0.8987 0.97572 0.25962 0.0
H588 H 0.91927 0.63986 0.24934 0.0
H589 H 0.92488 0.65836 0.20964 0.0
H590 H 0.8793 0.88428 0.20989 0.0
C591 C 0.87441 0.86351 0.29955 0.0
C592 C 0.88502 0.82161 0.31755 0.0
C593 C 0.8978 0.74376 0.31404 0.0
C594 C 0.90111 0.71112 0.29263 0.0
C595 C 0.89148 0.75731 0.27505 0.0
C596 C 0.87796 0.83091 0.27835 0.0
C597 C 0.87192 0.87539 0.25678 0.0
C598 C 0.84634 0.86974 0.25251 0.0
C599 C 0.88025 0.97224 0.25616 0.0
C600 C 0.88498 0.81789 0.24082 0.0
C601 C 0.89592 0.74959 0.25167 0.0
C602 C 0.91039 0.69191 0.24067 0.0
C603 C 0.91361 0.70362 0.21807 0.0
C604 C 0.90252 0.77288 0.20651 0.0
C605 C 0.88789 0.83032 0.21814 0.0
H606 H 0.93119 0.05483 0.71583 0.0
H607 H 0.8626 0.02131 0.69195 0.0
H608 H 0.84952 0.99383 0.7299 0.0
H609 H 0.92782 0.88481 0.75918 0.0
H610 H 0.9455 0.94883 0.77736 0.0
H611 H 0.94911 0.95788 0.74813 0.0
H612 H 0.94371 0.12819 0.75128 0.0
H613 H 0.93927 0.11931 0.78041 0.0
H614 H 0.91817 0.1715 0.76342 0.0
H615 H 0.84355 0.98608 0.77143 0.0
H616 H 0.8465 0.9673 0.81171 0.0
H617 H 0.91909 0.00443 0.80764 0.0
C618 C 0.91351 0.03936 0.71848 0.0
C619 C 0.89793 0.04005 0.70091 0.0
C620 C 0.87491 0.01996 0.7051 0.0
C621 C 0.86727 0.0055 0.72665 0.0
C622 C 0.88292 0.01035 0.74375 0.0
C623 C 0.90567 0.02426 0.73978 0.0
C624 C 0.91914 0.02627 0.76087 0.0
C625 C 0.9364 0.94989 0.76142 0.0
C626 C 0.93075 0.11671 0.76417 0.0
C627 C 0.90042 0.01246 0.77742 0.0
C628 C 0.87959 0.00445 0.76733 0.0
C629 C 0.85982 0.9917 0.77945 0.0
C630 C 0.86159 0.98241 0.80235 0.0
C631 C 0.88298 0.98532 0.81278 0.0
C632 C 0.90248 0.00293 0.80013 0.0
H633 H 0.11744 0.99131 0.80264 0.0
H634 H 0.04404 0.98563 0.80462 0.0
H635 H 0.04277 0.99243 0.76441 0.0
H636 H 0.12453 0.13667 0.75953 0.0
H637 H 0.14731 0.08011 0.7457 0.0
H638 H 0.14352 0.0665 0.77483 0.0
H639 H 0.14076 0.89577 0.77054 0.0
H640 H 0.14569 0.90857 0.74155 0.0
H641 H 0.12105 0.8495 0.75107 0.0
H642 H 0.04876 0.03027 0.72578 0.0
H643 H 0.06117 0.03278 0.68736 0.0
H644 H 0.13072 0.99433 0.70805 0.0
C645 C 0.10118 0.98697 0.79454 0.0
C646 C 0.08079 0.98872 0.80677 0.0
C647 C 0.05983 0.98448 0.79558 0.0
C648 C 0.05891 0.98973 0.77275 0.0
C649 C 0.07915 -0.00385 0.76127 0.0
C650 C 0.09992 0.98957 0.77149 0.0
C651 C 0.11895 0.99411 0.75469 0.0
C652 C 0.13449 0.07411 0.75896 0.0
C653 C 0.13241 0.90679 0.75444 0.0
C654 C 0.10549 0.00642 0.73363 0.0
C655 C 0.08261 0.01026 0.73814 0.0
C656 C 0.06657 0.02498 0.7219 0.0
C657 C 0.07384 0.0278 0.70015 0.0
C658 C 0.09684 0.01316 0.69473 0.0
C659 C 0.11308 0.00684 0.71173 0.0
H660 H 0.58906 0.47911 0.30123 0.0
H661 H 0.66036 0.48904 0.3178 0.0
H662 H 0.66973 0.51398 0.27868 0.0
H663 H 0.59422 0.36356 0.25129 0.0
H664 H 0.57243 0.4252 0.23734 0.0
H665 H 0.57125 0.41189 0.26667 0.0
H666 H 0.56976 0.5827 0.27207 0.0
H667 H 0.57007 0.59619 0.24275 0.0
H668 H 0.59106 0.65121 0.25936 0.0
H669 H 0.67107 0.52583 0.23681 0.0
H670 H 0.66382 0.5592 0.19762 0.0
H671 H 0.59166 0.54442 0.20957 0.0
C672 C 0.60663 0.48831 0.29671 0.0
C673 C 0.62399 0.48211 0.31249 0.0
C674 C 0.64678 0.49454 0.30597 0.0
C675 C 0.65227 0.50736 0.28376 0.0
C676 C 0.63474 0.50845 0.26843 0.0
C677 C 0.61235 0.50183 0.27477 0.0
C678 C 0.59654 0.508 0.25537 0.0
C679 C 0.58281 0.42203 0.25251 0.0
C680 C 0.58095 0.58938 0.25751 0.0
C681 C 0.61348 0.51923 0.23704 0.0
C682 C 0.63547 0.51756 0.24474 0.0
C683 C 0.65391 0.52765 0.23065 0.0
C684 C 0.64967 0.54527 0.20837 0.0
C685 C 0.6272 0.55402 0.20069 0.0
C686 C 0.609 0.53732 0.21504 0.0
H687 H 0.43798 0.50273 0.28959 0.0
H688 H 0.36631 0.50721 0.30454 0.0
H689 H 0.35765 0.51089 0.26476 0.0
H690 H 0.43637 0.65625 0.24741 0.0
H691 H 0.45746 0.60293 0.23059 0.0
H692 H 0.458 0.58879 0.2599 0.0
H693 H 0.45628 0.41762 0.25569 0.0
H694 H 0.45676 0.43112 0.22637 0.0
H695 H 0.43433 0.36858 0.23911 0.0
H696 H 0.35749 0.52848 0.22242 0.0
H697 H 0.36576 0.52937 0.18249 0.0
H698 H 0.43754 0.52132 0.19675 0.0
C699 C 0.42042 0.50141 0.28453 0.0
C700 C 0.40283 0.50384 0.30023 0.0
C701 C 0.38008 0.50357 0.29286 0.0
C702 C 0.37503 0.50716 0.27027 0.0
C703 C 0.3929 0.51078 0.25529 0.0
C704 C 0.41514 0.50573 0.26221 0.0
C705 C 0.43143 0.51289 0.24318 0.0
C706 C 0.44671 0.59511 0.24542 0.0
C707 C 0.44552 0.42747 0.24095 0.0
C708 C 0.415 0.52327 0.22436 0.0
C709 C 0.39282 0.52247 0.23152 0.0
C710 C 0.37483 0.52906 0.21672 0.0
C711 C 0.37967 0.53114 0.19405 0.0
C712 C 0.4023 0.52641 0.18648 0.0
C713 C 0.42007 0.52625 0.20199 0.0
H714 H 0.40167 0.48251 0.79916 0.0
H715 H 0.33047 0.41874 0.80247 0.0
H716 H 0.32658 0.45166 0.76284 0.0
H717 H 0.39721 0.66004 0.75483 0.0
H718 H 0.42375 0.62395 0.74329 0.0
H719 H 0.41897 0.61583 0.77241 0.0
H720 H 0.42898 0.4487 0.77025 0.0
H721 H 0.43256 0.45467 0.74102 0.0
H722 H 0.41271 0.3769 0.75259 0.0
H723 H 0.33279 0.46223 0.72107 0.0
H724 H 0.3466 0.48343 0.68296 0.0
H725 H 0.41395 0.53519 0.70808 0.0
C726 C 0.38498 0.48146 0.79182 0.0
C727 C 0.36626 0.45039 0.80388 0.0
C728 C 0.34483 0.44544 0.79362 0.0
C729 C 0.3426 0.4623 0.77101 0.0
C730 C 0.36193 0.48514 0.75911 0.0
C731 C 0.38256 0.49785 0.76939 0.0
C732 C 0.40119 0.5154 0.75296 0.0
C733 C 0.41084 0.6094 0.75605 0.0
C734 C 0.41995 0.44469 0.7543 0.0
C735 C 0.38809 0.50754 0.73178 0.0
C736 C 0.36548 0.49008 0.73548 0.0
C737 C 0.35041 0.47741 0.71807 0.0
C738 C 0.35847 0.48793 0.69645 0.0
C739 C 0.38136 0.51081 0.69253 0.0
C740 C 0.39635 0.51772 0.7105 0.0
H741 H 0.59481 0.71333 0.80105 0.0
H742 H 0.65568 0.5731 0.82018 0.0
H743 H 0.66992 0.58526 0.782 0.0
H744 H 0.58615 0.59528 0.75516 0.0
H745 H 0.57432 0.68474 0.73924 0.0
H746 H 0.57234 0.68726 0.76856 0.0
H747 H 0.59204 0.84128 0.76891 0.0
H748 H 0.59431 0.83835 0.73941 0.0
H749 H 0.61925 0.85438 0.75594 0.0
H750 H 0.67465 0.59397 0.74058 0.0
H751 H 0.66681 0.57356 0.70104 0.0
H752 H 0.60086 0.69278 0.70944 0.0
C753 C 0.61147 0.68719 0.79746 0.0
C754 C 0.6244 0.64407 0.81379 0.0
C755 C 0.64584 0.60918 0.80817 0.0
C756 C 0.65399 0.61573 0.78648 0.0
C757 C 0.64044 0.65704 0.77066 0.0
C758 C 0.6195 0.69154 0.77599 0.0
C759 C 0.60623 0.71796 0.7558 0.0
C760 C 0.58345 0.66828 0.75463 0.0
C761 C 0.60276 0.81901 0.75498 0.0
C762 C 0.62233 0.68797 0.73804 0.0
C763 C 0.64243 0.65689 0.74684 0.0
C764 C 0.65915 0.61954 0.73357 0.0
C765 C 0.65465 0.60897 0.71108 0.0
C766 C 0.63336 0.63296 0.70232 0.0
C767 C 0.61746 0.67624 0.71575 0.0
H768 H 0.09688 0.92483 0.95972 0.0
H769 H 0.07584 0.18907 0.94122 0.0
H770 H 0.06892 0.22534 0.98027 0.0
H771 H 0.05982 0.90648 0.01276 0.0
H772 H 0.08253 0.84719 0.02595 0.0
H773 H 0.07747 0.83262 0.99699 0.0
H774 H 0.11916 0.87508 0.98912 0.0
H775 H 0.12425 0.891 0.01775 0.0
H776 H 0.12982 0.98025 0.99882 0.0
H777 H 0.07529 0.24537 0.02097 0.0
H778 H 0.09373 0.24552 0.05755 0.0
H779 H 0.1114 0.96924 0.04904 0.0
C780 C 0.08962 0.98865 0.96388 0.0
C781 C 0.0868 0.05406 0.94764 0.0
C782 C 0.07774 0.13761 0.95347 0.0
C783 C 0.07383 0.15869 0.97565 0.0
C784 C 0.07859 0.09471 0.99161 0.0
C785 C 0.08577 0.01028 0.98584 0.0
C786 C 0.09372 0.95841 0.00561 0.0
C787 C 0.0774 0.88164 0.01062 0.0
C788 C 0.11817 0.9244 1.00263 0.0
C789 C 0.09222 0.02946 0.02304 0.0
C790 C 0.08258 0.10662 0.01503 0.0
C791 C 0.0822 0.18449 0.02757 0.0
C792 C 0.0927 0.18422 0.04831 0.0
C793 C 0.10383 0.10721 0.05592 0.0
C794 C 0.10269 0.02844 0.04354 0.0
H795 H 0.83647 0.87536 0.97046 0.0
H796 H 0.90227 0.96345 0.94823 0.0
H797 H 0.91532 0.97226 0.9868 0.0
H798 H 0.83308 0.02208 0.01599 0.0
H799 H 0.8184 0.94388 0.03324 0.0
H800 H 0.81518 0.93837 0.00391 0.0
H801 H 0.82816 0.77401 0.00418 0.0
H802 H 0.83122 0.77886 0.03353 0.0
H803 H 0.85479 0.74526 0.01671 0.0
H804 H 0.92043 0.97266 0.02891 0.0
H805 H 0.91716 0.9656 0.0694 0.0
H806 H 0.84686 0.88708 0.06305 0.0
C807 C 0.85374 0.89584 0.97359 0.0
C808 C 0.86865 0.91622 0.95614 0.0
C809 C 0.89094 0.94369 0.96115 0.0
C810 C 0.89832 0.9502 0.98309 0.0
C811 C 0.88305 0.92995 0.99987 0.0
C812 C 0.86118 0.90351 0.99527 0.0
C813 C 0.84767 0.88817 0.01601 0.0
C814 C 0.82739 0.95194 0.01735 0.0
C815 C 0.84002 0.79079 0.0177 0.0
C816 C 0.86527 0.91017 0.03316 0.0
C817 C 0.88565 0.93371 0.02364 0.0
C818 C 0.9045 0.95471 0.03644 0.0
C819 C 0.90247 0.95067 0.05944 0.0
C820 C 0.88168 0.92672 0.06942 0.0
C821 C 0.86289 0.90696 0.05598 0.0
H822 H 0.12937 0.11427 0.4579 0.0
H823 H 0.09913 0.85963 0.44308 0.0
H824 H 0.08757 0.84428 0.48191 0.0
H825 H 0.15615 0.05101 0.5017 0.0
H826 H 0.15318 0.15079 0.51779 0.0
H827 H 0.15188 0.15676 0.4885 0.0
H828 H 0.11247 0.23152 0.49055 0.0
H829 H 0.11377 0.22724 0.52009 0.0
H830 H 0.09003 0.17912 0.50583 0.0
H831 H 0.08796 0.84063 0.52351 0.0
H832 H 0.10046 0.84852 0.56227 0.0
H833 H 0.13233 0.10181 0.54947 0.0
C834 C 0.11934 0.05727 0.46265 0.0
C835 C 0.11491 0.98861 0.44752 0.0
C836 C 0.1022 0.914 0.45431 0.0
C837 C 0.09568 0.90467 0.4764 0.0
C838 C 0.1018 0.97104 0.49133 0.0
C839 C 0.11305 0.04682 0.48455 0.0
C840 C 0.12131 0.10116 0.50382 0.0
C841 C 0.14714 0.11561 0.50288 0.0
C842 C 0.10863 0.19002 0.50515 0.0
C843 C 0.11468 0.04086 0.52251 0.0
C844 C 0.10269 0.9677 0.51519 0.0
C845 C 0.09682 0.89877 0.52943 0.0
C846 C 0.10396 0.9037 0.55142 0.0
C847 C 0.11724 0.97602 0.55873 0.0
C848 C 0.12201 0.04628 0.54424 0.0
H849 H 0.91183 0.92054 0.55972 0.0
H850 H 0.92069 0.20468 0.55698 0.0
H851 H 0.93256 0.19284 0.51815 0.0
H852 H 0.95799 0.8634 0.51466 0.0
H853 H 0.94024 0.77398 0.50517 0.0
H854 H 0.94138 0.80074 0.534 0.0
H855 H 0.89784 0.81772 0.53456 0.0
H856 H 0.89647 0.79204 0.506 0.0
H857 H 0.88454 0.89468 0.51593 0.0
H858 H 0.9307 0.15596 0.47806 0.0
H859 H 0.91589 0.09892 0.44276 0.0
H860 H 0.90882 0.83806 0.47132 0.0
C861 C 0.91769 0.97925 0.55121 0.0
C862 C 0.91565 0.06315 0.56116 0.0
C863 C 0.92266 0.13961 0.54965 0.0
C864 C 0.92938 0.13327 0.52756 0.0
C865 C 0.92948 0.04975 0.5175 0.0
C866 C 0.92448 0.97352 0.52927 0.0
C867 C 0.9217 0.89418 0.51426 0.0
C868 C 0.94151 0.82925 0.51719 0.0
C869 C 0.89878 0.84715 0.5179 0.0
C870 C 0.92289 0.93938 0.49214 0.0
C871 C 0.92847 0.0283 0.49417 0.0
C872 C 0.92712 0.08591 0.47621 0.0
C873 C 0.91874 0.05309 0.45615 0.0
C874 C 0.9114 0.96412 0.45446 0.0
C875 C 0.91474 0.90599 0.47225 0.0
H876 H 0.60455 0.47783 0.05696 0.0
H877 H 0.60209 0.76039 0.06889 0.0
H878 H 0.58688 0.7844 0.03165 0.0
H879 H 0.6272 0.48106 0.01038 0.0
H880 H 0.61206 0.39297 0.99674 0.0
H881 H 0.61376 0.39405 0.02598 0.0
H882 H 0.5702 0.39045 0.02885 0.0
H883 H 0.56808 0.38889 0.99935 0.0
H884 H 0.55348 0.47303 0.0149 0.0
H885 H 0.58546 0.78146 0.99073 0.0
H886 H 0.59486 0.74943 0.95195 0.0
H887 H 0.59642 0.46864 0.96664 0.0
C888 C 0.59952 0.54397 0.05202 0.0
C889 C 0.60443 0.61719 0.06549 0.0
C890 C 0.59814 0.7034 0.05874 0.0
C891 C 0.58948 0.71753 0.03761 0.0
C892 C 0.58662 0.64437 0.02381 0.0
C893 C 0.59066 0.55859 0.0311 0.0
C894 C 0.59018 0.49282 0.01238 0.0
C895 C 0.6121 0.4372 0.01132 0.0
C896 C 0.56922 0.4328 0.01397 0.0
C897 C 0.5882 0.55587 0.99323 0.0
C898 C 0.5853 0.64275 1.0 0.0
C899 C 0.58688 0.71343 0.98519 0.0
C900 C 0.59234 0.69493 0.96318 0.0
C901 C 0.59658 0.60678 0.95647 0.0
C902 C 0.59325 0.53676 0.97144 0.0
H903 H 0.39421 0.21524 0.95506 0.0
H904 H 0.41397 0.45988 0.92359 0.0
H905 H 0.43137 0.5113 0.95814 0.0
H906 H 0.37402 0.30238 0.99898 0.0
H907 H 0.38281 0.22084 0.01885 0.0
H908 H 0.37974 0.1896 0.99069 0.0
H909 H 0.42114 0.13392 0.98971 0.0
H910 H 0.42433 0.16416 0.01818 0.0
H911 H 0.44374 0.20698 0.99799 0.0
H912 H 0.43518 0.55426 0.9974 0.0
H913 H 0.42612 0.58111 0.03644 0.0
H914 H 0.40505 0.30816 0.04341 0.0
C915 C 0.40372 0.27667 0.95513 0.0
C916 C 0.40354 0.3321 0.93647 0.0
C917 C 0.41481 0.41474 0.93738 0.0
C918 C 0.42453 0.44481 0.9571 0.0
C919 C 0.42313 0.39091 0.97571 0.0
C920 C 0.41343 0.30732 0.97473 0.0
C921 C 0.41018 0.26899 0.99753 0.0
C922 C 0.38522 0.24416 1.00174 0.0
C923 C 0.42578 0.18876 1.00106 0.0
C924 C 0.41758 0.34689 0.01157 0.0
C925 C 0.42564 0.41576 0.99872 0.0
C926 C 0.42985 0.49961 0.00768 0.0
C927 C 0.42477 0.5144 0.02992 0.0
C928 C 0.41578 0.44564 0.04304 0.0
C929 C 0.41307 0.3602 0.03395 0.0
H930 H 0.63171 0.61335 0.45794 0.0
H931 H 0.60112 0.35337 0.45289 0.0
H932 H 0.58766 0.36589 0.49131 0.0
H933 H 0.65463 0.5912 0.50628 0.0
H934 H 0.6498 0.70203 0.51643 0.0
H935 H 0.65111 0.6826 0.48751 0.0
H936 H 0.61139 0.75284 0.48272 0.0
H937 H 0.60997 0.77277 0.51186 0.0
H938 H 0.58786 0.71092 0.4984 0.0
H939 H 0.58687 0.3912 0.53254 0.0
H940 H 0.59832 0.42709 0.57061 0.0
H941 H 0.62723 0.67457 0.54802 0.0
C942 C 0.62134 0.56077 0.4647 0.0
C943 C 0.61742 0.48254 0.45264 0.0
C944 C 0.60407 0.41429 0.46189 0.0
C945 C 0.59635 0.42103 0.48369 0.0
C946 C 0.60159 0.49757 0.49567 0.0
C947 C 0.6133 0.5673 0.48619 0.0
C948 C 0.61952 0.63719 0.50293 0.0
C949 C 0.64527 0.65406 0.50331 0.0
C950 C 0.60639 0.72354 0.49873 0.0
C951 C 0.61142 0.59245 0.52368 0.0
C952 C 0.60052 0.51311 0.51926 0.0
C953 C 0.59468 0.45451 0.53614 0.0
C954 C 0.60115 0.4755 0.55778 0.0
C955 C 0.61354 0.55384 0.56221 0.0
C956 C 0.61749 0.61483 0.5451 0.0
H957 H 0.40457 0.39635 0.54224 0.0
H958 H 0.42068 0.66944 0.55756 0.0
H959 H 0.43491 0.69085 0.51978 0.0
H960 H 0.45139 0.36222 0.49758 0.0
H961 H 0.43195 0.29505 0.48198 0.0
H962 H 0.43121 0.29259 0.51155 0.0
H963 H 0.38859 0.33269 0.5106 0.0
H964 H 0.38924 0.33598 0.4813 0.0
H965 H 0.37968 0.43178 0.49644 0.0
H966 H 0.43648 0.69403 0.47835 0.0
H967 H 0.42482 0.67863 0.4395 0.0
H968 H 0.40725 0.40421 0.45112 0.0
C969 C 0.41225 0.45924 0.53793 0.0
C970 C 0.41165 0.53102 0.55279 0.0
C971 C 0.42136 0.61303 0.54656 0.0
C972 C 0.42942 0.62573 0.52504 0.0
C973 C 0.42808 0.55522 0.51014 0.0
C974 C 0.4202 0.47265 0.51657 0.0
C975 C 0.41653 0.4122 0.49704 0.0
C976 C 0.4338 0.33601 0.49704 0.0
C977 C 0.39207 0.37626 0.49631 0.0
C978 C 0.4212 0.47611 0.47847 0.0
C979 C 0.4288 0.55726 0.48619 0.0
C980 C 0.43125 0.62997 0.47212 0.0
C981 C 0.42468 0.62071 0.45001 0.0
C982 C 0.41537 0.53993 0.44241 0.0
C983 C 0.41476 0.46603 0.45654 0.0
H984 H 0.95244 0.06585 0.12353 0.0
H985 H 0.96828 0.83422 0.08458 0.0
H986 H 0.00343 0.90549 0.07182 0.0
H987 H 0.98212 0.23737 0.0843 0.0
H988 H 0.99123 0.30065 0.10779 0.0
H989 H 0.96438 0.24368 0.10829 0.0
H990 H 0.97647 0.16341 0.14389 0.0
H991 H 0.00335 0.21832 0.14336 0.0
H992 H 1.00216 0.09878 0.14404 0.0
H993 H 0.04077 0.97625 0.07348 0.0
H994 H 0.07552 0.04782 0.08649 0.0
H995 H 0.03568 0.24683 0.12015 0.0
C996 C 0.96258 0.03331 0.11111 0.0
C997 C 0.95746 0.94605 0.10444 0.0
C998 C 0.97176 0.90217 0.08936 0.0
C999 C 0.99175 0.9422 0.08204 0.0
C1000 C 0.99708 0.02673 0.08977 0.0
C1001 C 0.98259 0.07307 0.10351 0.0
C1002 C 0.9938 0.15682 0.11202 0.0
C1003 C 0.98219 0.23954 0.10253 0.0
C1004 C 0.99396 0.15932 0.13731 0.0
C1005 C 0.01745 0.14565 0.10271 0.0
C1006 C 0.01887 0.07114 0.08954 0.0
C1007 C 0.03972 0.03768 0.08264 0.0
C1008 C 0.05956 0.07982 0.08981 0.0
C1009 C 0.05854 0.15616 0.10327 0.0
C1010 C 0.03709 0.19071 0.10912 0.0
H1011 H 0.96739 0.11787 0.38926 0.0
H1012 H 0.94205 0.88178 0.42142 0.0
H1013 H 0.9805 0.84812 0.4347 0.0
H1014 H 0.01237 0.02767 0.36724 0.0
H1015 H 0.03158 0.1198 0.37033 0.0
H1016 H 1.00174 0.13956 0.36941 0.0
H1017 H 0.00388 0.22079 0.40684 0.0
H1018 H 0.03394 0.20078 0.40789 0.0
H1019 H 0.01609 0.16528 0.43018 0.0
H1020 H 0.02196 0.81748 0.43499 0.0
H1021 H 0.06139 0.7954 0.4226 0.0
H1022 H 0.06066 0.05337 0.39185 0.0
C1023 C 0.9698 0.06125 0.39993 0.0
C1024 C 0.95166 0.00315 0.40454 0.0
C1025 C 0.95553 0.92856 0.41812 0.0
C1026 C 0.97741 0.90879 0.4257 0.0
C1027 C 0.99522 0.96499 0.41986 0.0
C1028 C 0.99152 0.0409 0.40761 0.0
C1029 C 0.01365 0.08299 0.40058 0.0
C1030 C 0.01489 0.09292 0.37542 0.0
C1031 C 0.01709 0.17279 0.41207 0.0
C1032 C 0.03034 0.01476 0.409 0.0
C1033 C 0.01948 0.94839 0.42067 0.0
C1034 C 0.0308 0.87078 0.42675 0.0
C1035 C 0.05327 0.85884 0.4198 0.0
C1036 C 0.06421 0.92442 0.40711 0.0
C1037 C 0.05294 0.0047 0.40257 0.0
H1038 H 0.01004 0.19342 0.90298 0.0
H1039 H 0.05223 0.96915 0.92019 0.0
H1040 H 0.01925 0.89418 0.93634 0.0
H1041 H 0.96545 0.16404 0.95 0.0
H1042 H 0.94331 0.19536 0.93122 0.0
H1043 H 0.97095 0.24535 0.929 0.0
H1044 H 0.97311 0.19649 0.8883 0.0
H1045 H 0.94574 0.14678 0.89042 0.0
H1046 H 0.96947 0.0808 0.8815 0.0
H1047 H 0.98153 0.82517 0.93903 0.0
H1048 H 0.94383 0.77135 0.92787 0.0
H1049 H 0.92475 0.03758 0.90937 0.0
C1050 C 0.01253 0.13051 0.9112 0.0
C1051 C 0.03383 0.08788 0.91057 0.0
C1052 C 0.03632 0.00453 0.92096 0.0
C1053 C 0.01753 0.96111 0.93013 0.0
C1054 C 0.99636 0.00211 0.929 0.0
C1055 C 0.99386 0.08608 0.92014 0.0
C1056 C 0.96908 0.1088 0.91688 0.0
C1057 C 0.96177 0.18277 0.93273 0.0
C1058 C 0.96409 0.13456 0.89287 0.0
C1059 C 0.95814 0.02129 0.92304 0.0
C1060 C 0.97407 0.96165 0.93084 0.0
C1061 C 0.96876 0.87216 0.93387 0.0
C1062 C 0.94724 0.842 0.92761 0.0
C1063 C 0.93123 0.9011 0.91852 0.0
C1064 C 0.93637 0.99234 0.91734 0.0
H1065 H 0.9534 0.00069 0.59948 0.0
H1066 H 0.97599 0.27327 0.5982 0.0
H1067 H 0.0123 0.22639 0.58203 0.0
H1068 H 0.99765 0.92152 0.62172 0.0
H1069 H 0.99983 0.81652 0.60764 0.0
H1070 H 0.97305 0.87105 0.60939 0.0
H1071 H 0.96934 0.8686 0.5671 0.0
H1072 H 0.99628 0.81282 0.56518 0.0
H1073 H 0.99154 0.91458 0.55035 0.0
H1074 H 0.04861 0.1515 0.57732 0.0
H1075 H 0.08108 0.05953 0.58791 0.0
H1076 H 0.03691 0.83135 0.59394 0.0
C1077 C 0.96554 0.05041 0.59439 0.0
C1078 C 0.96187 0.14049 0.59946 0.0
C1079 C 0.97841 0.20415 0.59389 0.0
C1080 C 0.99906 0.17791 0.58462 0.0
C1081 C 0.00301 0.08756 0.58124 0.0
C1082 C 0.98656 0.02453 0.58578 0.0
C1083 C 0.99656 0.93182 0.58578 0.0
C1084 C 0.99149 0.88254 0.60742 0.0
C1085 C 0.98792 0.87882 0.56592 0.0
C1086 C 0.02152 0.95345 0.58334 0.0
C1087 C 0.02475 0.04302 0.57942 0.0
C1088 C 0.04631 0.08095 0.57977 0.0
C1089 C 0.06478 0.02788 0.58578 0.0
C1090 C 0.06155 0.93813 0.59182 0.0
C1091 C 0.0399 0.89952 0.58915 0.0
H1092 H 0.48986 0.36517 0.09501 0.0
H1093 H 0.44535 0.58715 0.08209 0.0
H1094 H 0.47844 0.68357 0.07625 0.0
H1095 H 0.52499 0.45982 0.12663 0.0
H1096 H 0.55131 0.41238 0.11736 0.0
H1097 H 0.52537 0.35416 0.11268 0.0
H1098 H 0.53347 0.34934 0.07099 0.0
H1099 H 0.5598 0.40729 0.07544 0.0
H1100 H 0.53929 0.45091 0.05644 0.0
H1101 H 0.514 0.76287 0.08544 0.0
H1102 H 0.54954 0.81288 0.10297 0.0
H1103 H 0.57251 0.54093 0.10672 0.0
C1104 C 0.48716 0.43278 0.08962 0.0
C1105 C 0.46508 0.46869 0.08904 0.0
C1106 C 0.46207 0.55781 0.08237 0.0
C1107 C 0.48086 0.61333 0.0791 0.0
C1108 C 0.50251 0.57791 0.08178 0.0
C1109 C 0.50579 0.48852 0.08596 0.0
C1110 C 0.53044 0.46924 0.09107 0.0
C1111 C 0.53315 0.42121 0.11325 0.0
C1112 C 0.5414 0.416 0.07237 0.0
C1113 C 0.53988 0.56265 0.09183 0.0
C1114 C 0.52368 0.62442 0.08585 0.0
C1115 C 0.52715 0.71521 0.08913 0.0
C1116 C 0.54731 0.74316 0.09919 0.0
C1117 C 0.56387 0.68073 0.10557 0.0
C1118 C 0.56043 0.58993 0.10111 0.0
H1119 H 0.45518 0.47362 0.40395 0.0
H1120 H 0.47439 0.75014 0.40554 0.0
H1121 H 0.51094 0.71021 0.42238 0.0
H1122 H 0.49309 0.39416 0.45352 0.0
H1123 H 0.49946 0.29372 0.43867 0.0
H1124 H 0.47193 0.34445 0.43615 0.0
H1125 H 0.47675 0.34872 0.39395 0.0
H1126 H 0.50408 0.29898 0.39633 0.0
H1127 H 0.50108 0.4038 0.38236 0.0
H1128 H 0.54817 0.64143 0.42845 0.0
H1129 H 0.58207 0.55423 0.41906 0.0
H1130 H 0.54053 0.32001 0.41105 0.0
C1131 C 0.4666 0.52566 0.40921 0.0
C1132 C 0.46191 0.61486 0.40404 0.0
C1133 C 0.47758 0.68158 0.40989 0.0
C1134 C 0.49836 0.65931 0.41953 0.0
C1135 C 0.50334 0.56982 0.42301 0.0
C1136 C 0.48776 0.50382 0.41815 0.0
C1137 C 0.49885 0.41308 0.41828 0.0
C1138 C 0.49033 0.35811 0.43782 0.0
C1139 C 0.49498 0.36344 0.39643 0.0
C1140 C 0.52343 0.43917 0.42139 0.0
C1141 C 0.52554 0.52919 0.42543 0.0
C1142 C 0.54671 0.57057 0.42591 0.0
C1143 C 0.56599 0.52034 0.42066 0.0
C1144 C 0.56386 0.43035 0.41443 0.0
C1145 C 0.54255 0.38842 0.41614 0.0
H1146 H 0.43665 0.35808 0.89922 0.0
H1147 H 0.44888 0.1184 0.86184 0.0
H1148 H 0.48984 0.13946 0.86596 0.0
H1149 H 0.47497 0.48413 0.87858 0.0
H1150 H 0.48542 0.53955 0.90276 0.0
H1151 H 0.45736 0.49439 0.90263 0.0
H1152 H 0.4663 0.39843 0.9368 0.0
H1153 H 0.49423 0.44631 0.93755 0.0
H1154 H 0.49078 0.32745 0.93677 0.0
H1155 H 0.52706 0.21254 0.86294 0.0
H1156 H 0.55963 0.31569 0.86084 0.0
H1157 H 0.5253 0.49633 0.90479 0.0
C1158 C 0.4479 0.30696 0.89331 0.0
C1159 C 0.43955 0.23668 0.88035 0.0
C1160 C 0.45489 0.17303 0.87183 0.0
C1161 C 0.47825 0.18422 0.87412 0.0
C1162 C 0.48607 0.25776 0.88563 0.0
C1163 C 0.4714 0.31608 0.89597 0.0
C1164 C 0.48423 0.39433 0.90546 0.0
C1165 C 0.47494 0.48326 0.89682 0.0
C1166 C 0.48387 0.39145 0.93064 0.0
C1167 C 0.50779 0.37538 0.89682 0.0
C1168 C 0.50858 0.29571 0.88564 0.0
C1169 C 0.52727 0.27209 0.87287 0.0
C1170 C 0.54577 0.33049 0.87186 0.0
C1171 C 0.54552 0.41068 0.8838 0.0
C1172 C 0.52634 0.43284 0.89649 0.0
H1173 H 0.45426 0.47052 0.60893 0.0
H1174 H 0.45937 0.74091 0.58613 0.0
H1175 H 0.4995 0.71628 0.57637 0.0
H1176 H 0.49999 0.47437 0.63781 0.0
H1177 H 0.50969 0.36234 0.63337 0.0
H1178 H 0.4803 0.38796 0.63036 0.0
H1179 H 0.48064 0.32622 0.59072 0.0
H1180 H 0.5102 0.29906 0.59368 0.0
H1181 H 0.50096 0.36774 0.57121 0.0
H1182 H 0.5405 0.6759 0.57848 0.0
H1183 H 0.57724 0.62789 0.59387 0.0
H1184 H 0.54606 0.38609 0.61732 0.0
C1185 C 0.46352 0.52218 0.60045 0.0
C1186 C 0.45368 0.60637 0.59745 0.0
C1187 C 0.4665 0.67501 0.58775 0.0
C1188 C 0.48934 0.66147 0.58225 0.0
C1189 C 0.49913 0.57906 0.58674 0.0
C1190 C 0.48647 0.51002 0.59543 0.0
C1191 C 0.50157 0.43501 0.60313 0.0
C1192 C 0.49766 0.41386 0.6276 0.0
C1193 C 0.49814 0.3521 0.58883 0.0
C1194 C 0.52468 0.47552 0.59923 0.0
C1195 C 0.52303 0.55695 0.5889 0.0
C1196 C 0.54202 0.61114 0.586 0.0
C1197 C 0.5629 0.58327 0.5947 0.0
C1198 C 0.56446 0.50292 0.60655 0.0
C1199 C 0.54533 0.44711 0.60797 0.0
H1200 H 0.13268 0.88594 0.1565 0.0
H1201 H 0.20037 0.89496 0.12942 0.0
H1202 H 0.20464 0.73457 0.13566 0.0
H1203 H 0.14388 0.68952 0.19683 0.0
H1204 H 0.11591 0.64717 0.19143 0.0
H1205 H 0.12093 0.76527 0.19151 0.0
H1206 H 0.10384 0.77488 0.15251 0.0
H1207 H 0.09939 0.65719 0.15192 0.0
H1208 H 0.11598 0.70925 0.13072 0.0
H1209 H 0.19753 0.57254 0.13426 0.0
H1210 H 0.18122 0.42252 0.13061 0.0
H1211 H 0.11871 0.51691 0.15956 0.0
C1212 C 0.14885 0.85489 0.1532 0.0
C1213 C 0.16619 0.90231 0.14257 0.0
C1214 C 0.1869 0.85939 0.13768 0.0
C1215 C 0.1895 0.76825 0.14116 0.0
C1216 C 0.17135 0.72131 0.14988 0.0
C1217 C 0.15163 0.76347 0.15649 0.0
C1218 C 0.13352 0.69653 0.16232 0.0
C1219 C 0.12826 0.69981 0.18699 0.0
C1220 C 0.11194 0.71032 0.14853 0.0
C1221 C 0.1455 0.61119 0.15621 0.0
C1222 C 0.16743 0.62645 0.14947 0.0
C1223 C 0.18067 0.55912 0.14032 0.0
C1224 C 0.17125 0.47396 0.13813 0.0
C1225 C 0.14885 0.45693 0.14502 0.0
C1226 C 0.13607 0.52672 0.15445 0.0
H1227 H 0.8733 0.18454 0.15398 0.0
H1228 H 0.91739 0.09212 0.10177 0.0
H1229 H 0.91594 0.24049 0.08475 0.0
H1230 H 0.8374 0.32009 0.11884 0.0
H1231 H 0.83364 0.40445 0.13951 0.0
H1232 H 0.83797 0.29051 0.14748 0.0
H1233 H 0.8726 0.33515 0.17134 0.0
H1234 H 0.86757 0.44899 0.16421 0.0
H1235 H 0.89493 0.40014 0.15918 0.0
H1236 H 0.91205 0.40118 0.07544 0.0
H1237 H 0.91055 0.56459 0.07782 0.0
H1238 H 0.86474 0.54627 0.13291 0.0
C1239 C 0.88284 0.1954 0.13906 0.0
C1240 C 0.89583 0.12705 0.12945 0.0
C1241 C 0.90786 0.14406 0.1098 0.0
C1242 C 0.90669 0.22754 0.09973 0.0
C1243 C 0.89291 0.29214 0.10921 0.0
C1244 C 0.88134 0.27703 0.12851 0.0
C1245 C 0.86854 0.35827 0.136 0.0
C1246 C 0.84287 0.34232 0.13541 0.0
C1247 C 0.8764 0.38737 0.15902 0.0
C1248 C 0.87565 0.42339 0.11848 0.0
C1249 C 0.88938 0.3835 0.1029 0.0
C1250 C 0.90082 0.43279 0.08708 0.0
C1251 C 0.89965 0.52545 0.08834 0.0
C1252 C 0.88705 0.56686 0.10519 0.0
C1253 C 0.8736 0.51553 0.11932 0.0
H1254 H 0.12897 0.19864 0.34546 0.0
H1255 H 0.20092 0.19022 0.35852 0.0
H1256 H 0.20353 0.35139 0.35245 0.0
H1257 H 0.13082 0.39911 0.30507 0.0
H1258 H 0.10455 0.43942 0.3163 0.0
H1259 H 0.1097 0.32165 0.31447 0.0
H1260 H 0.10141 0.30778 0.35601 0.0
H1261 H 0.09704 0.42522 0.35825 0.0
H1262 H 0.11792 0.37175 0.37524 0.0
H1263 H 0.19658 0.51358 0.35584 0.0
H1264 H 0.18119 0.66357 0.36251 0.0
H1265 H 0.11396 0.56748 0.34705 0.0
C1266 C 0.14545 0.23006 0.3456 0.0
C1267 C 0.16474 0.18252 0.35231 0.0
C1268 C 0.18598 0.22587 0.35322 0.0
C1269 C 0.18762 0.31747 0.34986 0.0
C1270 C 0.16791 0.36439 0.34528 0.0
C1271 C 0.14729 0.32188 0.34246 0.0
C1272 C 0.12818 0.38837 0.34086 0.0
C1273 C 0.1177 0.38708 0.3178 0.0
C1274 C 0.1101 0.37228 0.35865 0.0
C1275 C 0.14103 0.47372 0.34492 0.0
C1276 C 0.16395 0.45898 0.34705 0.0
C1277 C 0.17875 0.52652 0.35343 0.0
C1278 C 0.16988 0.61151 0.35743 0.0
C1279 C 0.14649 0.62811 0.35514 0.0
C1280 C 0.13204 0.55791 0.34862 0.0
H1281 H 0.84618 0.23203 0.39689 0.0
H1282 H 0.85077 0.21594 0.32628 0.0
H1283 H 0.84443 0.37718 0.32345 0.0
H1284 H 0.80622 0.44235 0.39942 0.0
H1285 H 0.82189 0.47888 0.42309 0.0
H1286 H 0.81723 0.36199 0.41856 0.0
H1287 H 0.86068 0.33914 0.42151 0.0
H1288 H 0.86539 0.45591 0.42454 0.0
H1289 H 0.87908 0.39631 0.4026 0.0
H1290 H 0.84943 0.54111 0.32883 0.0
H1291 H 0.85972 0.6914 0.34223 0.0
H1292 H 0.85389 0.59682 0.4092 0.0
C1293 C 0.84412 0.26188 0.38087 0.0
C1294 C 0.84855 0.21239 0.36183 0.0
C1295 C 0.84692 0.2533 0.34101 0.0
C1296 C 0.84344 0.34491 0.33927 0.0
C1297 C 0.84143 0.39407 0.35851 0.0
C1298 C 0.84097 0.35351 0.37896 0.0
C1299 C 0.84287 0.42106 0.39718 0.0
C1300 C 0.82073 0.42635 0.41033 0.0
C1301 C 0.86322 0.40192 0.4123 0.0
C1302 C 0.84649 0.50415 0.38383 0.0
C1303 C 0.84502 0.48846 0.3616 0.0
C1304 C 0.85001 0.55467 0.34625 0.0
C1305 C 0.85625 0.63936 0.35394 0.0
C1306 C 0.85791 0.65589 0.37671 0.0
C1307 C 0.85278 0.58704 0.39164 0.0
H1308 H 0.81985 0.21658 0.88506 0.0
H1309 H 0.86406 0.12256 0.83335 0.0
H1310 H 0.8675 0.27439 0.81923 0.0
H1311 H 0.79403 0.41055 0.85346 0.0
H1312 H 0.79476 0.48065 0.87736 0.0
H1313 H 0.78983 0.36303 0.88029 0.0
H1314 H 0.82353 0.34959 0.90703 0.0
H1315 H 0.82816 0.46689 0.90494 0.0
H1316 H 0.8509 0.39094 0.89886 0.0
H1317 H 0.8725 0.43471 0.81533 0.0
H1318 H 0.88103 0.59105 0.8233 0.0
H1319 H 0.83505 0.58515 0.87869 0.0
C1320 C 0.82961 0.22722 0.87027 0.0
C1321 C 0.84146 0.15679 0.86006 0.0
C1322 C 0.85452 0.17438 0.84117 0.0
C1323 C 0.85647 0.26081 0.83299 0.0
C1324 C 0.84521 0.32908 0.84391 0.0
C1325 C 0.83197 0.31331 0.86216 0.0
C1326 C 0.82493 0.3992 0.87318 0.0
C1327 C 0.79935 0.41411 0.87093 0.0
C1328 C 0.83235 0.40175 0.89742 0.0
C1329 C 0.83791 0.46531 0.85943 0.0
C1330 C 0.84871 0.4236 0.84209 0.0
C1331 C 0.86374 0.46843 0.82851 0.0
C1332 C 0.86858 0.55704 0.83328 0.0
C1333 C 0.85864 0.59964 0.85162 0.0
C1334 C 0.84242 0.55444 0.86431 0.0
H1335 H 0.13712 0.38274 0.87179 0.0
H1336 H 0.09492 0.36717 0.81388 0.0
H1337 H 0.10245 0.52418 0.80583 0.0
H1338 H 0.11791 0.57048 0.89025 0.0
H1339 H 0.1438 0.61921 0.90021 0.0
H1340 H 0.1415 0.50101 0.89781 0.0
H1341 H 0.17687 0.49623 0.8728 0.0
H1342 H 0.17962 0.61502 0.87545 0.0
H1343 H 0.17799 0.56493 0.84864 0.0
H1344 H 0.10446 0.68714 0.8103 0.0
H1345 H 0.10496 0.84017 0.82491 0.0
H1346 H 0.14785 0.75219 0.87837 0.0
C1347 C 0.13064 0.4114 0.85677 0.0
C1348 C 0.11552 0.36341 0.84346 0.0
C1349 C 0.10661 0.40329 0.82428 0.0
C1350 C 0.11083 0.49244 0.81951 0.0
C1351 C 0.12436 0.54062 0.83386 0.0
C1352 C 0.13474 0.50098 0.85178 0.0
C1353 C 0.1457 0.57008 0.86633 0.0
C1354 C 0.13666 0.56486 0.89002 0.0
C1355 C 0.17158 0.56103 0.86576 0.0
C1356 C 0.13805 0.65425 0.85491 0.0
C1357 C 0.12617 0.63618 0.83596 0.0
C1358 C 0.11451 0.70267 0.82463 0.0
C1359 C 0.11476 0.78955 0.83307 0.0
C1360 C 0.12659 0.80895 0.85262 0.0
C1361 C 0.13893 0.74046 0.86313 0.0
H1362 H 0.89667 0.86152 0.66231 0.0
H1363 H 0.82569 0.86856 0.64484 0.0
H1364 H 0.8229 0.70751 0.6507 0.0
H1365 H 0.91025 0.68749 0.63395 0.0
H1366 H 0.92969 0.63427 0.65253 0.0
H1367 H 0.92515 0.75178 0.65432 0.0
H1368 H 0.91351 0.73857 0.6951 0.0
H1369 H 0.91881 0.62078 0.69378 0.0
H1370 H 0.8917 0.6612 0.70294 0.0
H1371 H 0.83056 0.54781 0.64624 0.0
H1372 H 0.8466 0.39938 0.63983 0.0
H1373 H 0.91183 0.49113 0.66261 0.0
C1374 C 0.88028 0.82978 0.66115 0.0
C1375 C 0.8614 0.87689 0.65319 0.0
C1376 C 0.84032 0.83323 0.65104 0.0
C1377 C 0.83858 0.74169 0.65428 0.0
C1378 C 0.85799 0.69521 0.6601 0.0
C1379 C 0.8783 0.73793 0.66433 0.0
C1380 C 0.89724 0.67138 0.66745 0.0
C1381 C 0.9167 0.68722 0.65108 0.0
C1382 C 0.90582 0.67307 0.69124 0.0
C1383 C 0.88477 0.5858 0.66251 0.0
C1384 C 0.86212 0.60082 0.65855 0.0
C1385 C 0.84801 0.53426 0.65043 0.0
C1386 C 0.8572 0.44977 0.64675 0.0
C1387 C 0.88011 0.43184 0.65144 0.0
C1388 C 0.89399 0.50134 0.65947 0.0
H1389 H 0.17577 0.2478 0.6339 0.0
H1390 H 0.12635 0.16112 0.68198 0.0
H1391 H 0.12348 0.31552 0.69558 0.0
H1392 H 0.20081 0.4428 0.6656 0.0
H1393 H 0.20237 0.5073 0.64076 0.0
H1394 H 0.20628 0.38861 0.63977 0.0
H1395 H 0.1743 0.37638 0.61085 0.0
H1396 H 0.17037 0.49422 0.61181 0.0
H1397 H 0.14677 0.4214 0.61708 0.0
H1398 H 0.12024 0.47906 0.6987 0.0
H1399 H 0.11323 0.63464 0.68882 0.0
H1400 H 0.16229 0.61613 0.63624 0.0
C1401 C 0.16488 0.26006 0.64786 0.0
C1402 C 0.1513 0.19175 0.65696 0.0
C1403 C 0.13705 0.21174 0.67489 0.0
C1404 C 0.13544 0.29936 0.68276 0.0
C1405 C 0.14824 0.36578 0.67253 0.0
C1406 C 0.16273 0.34686 0.65542 0.0
C1407 C 0.17113 0.43057 0.64421 0.0
C1408 C 0.19666 0.44304 0.64781 0.0
C1409 C 0.16526 0.43058 0.61955 0.0
C1410 C 0.15779 0.49987 0.6566 0.0
C1411 C 0.14551 0.46134 0.67351 0.0
C1412 C 0.13008 0.50991 0.68582 0.0
C1413 C 0.12617 0.59825 0.68 0.0
C1414 C 0.13727 0.63699 0.66174 0.0
C1415 C 0.15406 0.58863 0.65057 0.0
H1416 H 0.62201 0.01624 0.16811 0.0
H1417 H 0.68583 0.92194 0.1418 0.0
H1418 H 0.70144 0.07395 0.14504 0.0
H1419 H 0.61965 0.20479 0.13839 0.0
H1420 H 0.60654 0.27207 0.15929 0.0
H1421 H 0.6025 0.1541 0.15938 0.0
H1422 H 0.61765 0.14743 0.19926 0.0
H1423 H 0.62207 0.2659 0.19911 0.0
H1424 H 0.64518 0.19233 0.20549 0.0
H1425 H 0.70792 0.2382 0.14613 0.0
H1426 H 0.7034 0.39873 0.14 0.0
H1427 H 0.63486 0.38609 0.1649 0.0
C1428 C 0.63952 0.02643 0.16354 0.0
C1429 C 0.65279 0.95647 0.1548 0.0
C1430 C 0.67539 0.97396 0.1486 0.0
C1431 C 0.68442 0.06007 0.15061 0.0
C1432 C 0.67064 0.12763 0.15897 0.0
C1433 C 0.64861 0.11152 0.16527 0.0
C1434 C 0.63611 0.1967 0.17062 0.0
C1435 C 0.61498 0.20752 0.15604 0.0
C1436 C 0.62989 0.20079 0.19508 0.0
C1437 C 0.65412 0.26432 0.16511 0.0
C1438 C 0.67418 0.223 0.15917 0.0
C1439 C 0.69248 0.27108 0.15113 0.0
C1440 C 0.68977 0.36239 0.14778 0.0
C1441 C 0.6688 0.40458 0.15212 0.0
C1442 C 0.65123 0.3559 0.16205 0.0
H1443 H 0.34891 0.7712 0.10582 0.0
H1444 H 0.38656 0.68327 0.16287 0.0
H1445 H 0.38566 0.83598 0.17749 0.0
H1446 H 0.37949 0.94885 0.09633 0.0
H1447 H 0.35716 0.0209 0.08694 0.0
H1448 H 0.35408 0.90302 0.0845 0.0
H1449 H 0.31665 0.9099 0.10655 0.0
H1450 H 0.31963 0.02866 0.10908 0.0
H1451 H 0.31629 0.96121 0.13327 0.0
H1452 H 0.38833 -0.00216 0.18165 0.0
H1453 H 0.39734 0.15393 0.1739 0.0
H1454 H 0.35947 0.14017 0.1132 0.0
C1455 C 0.35631 0.78306 0.12179 0.0
C1456 C 0.36774 0.71486 0.13328 0.0
C1457 C 0.3775 0.73384 0.1539 0.0
C1458 C 0.37693 0.82052 0.16236 0.0
C1459 C 0.36642 0.88703 0.15005 0.0
C1460 C 0.35617 0.86907 0.1302 0.0
C1461 C 0.34989 0.95349 0.1181 0.0
C1462 C 0.36083 0.9567 0.09514 0.0
C1463 C 0.32408 0.96391 0.11667 0.0
C1464 C 0.35997 0.02204 0.13335 0.0
C1465 C 0.36853 0.98236 0.15213 0.0
C1466 C 0.38122 0.02979 0.16733 0.0
C1467 C 0.38633 0.11831 0.16273 0.0
C1468 C 0.379 0.15834 0.14296 0.0
C1469 C 0.36473 0.11125 0.12863 0.0
H1470 H 0.60813 0.03468 0.36223 0.0
H1471 H 0.67601 0.14192 0.3581 0.0
H1472 H 0.69082 0.99123 0.35034 0.0
H1473 H 0.62048 0.84032 0.38869 0.0
H1474 H 0.60018 0.77393 0.37391 0.0
H1475 H 0.5956 0.89095 0.37705 0.0
H1476 H 0.59242 0.90591 0.33475 0.0
H1477 H 0.59762 0.78868 0.33154 0.0
H1478 H 0.61533 0.86807 0.3176 0.0
H1479 H 0.69814 0.82709 0.34805 0.0
H1480 H 0.69778 0.6653 0.35441 0.0
H1481 H 0.62461 0.66764 0.35583 0.0
C1482 C 0.62612 0.02684 0.35944 0.0
C1483 C 0.64111 0.09939 0.36152 0.0
C1484 C 0.66444 0.08644 0.35763 0.0
C1485 C 0.67286 0.00153 0.35265 0.0
C1486 C 0.65754 0.93123 0.35087 0.0
C1487 C 0.63463 0.94341 0.35403 0.0
C1488 C 0.62179 0.8567 0.35292 0.0
C1489 C 0.60877 0.83947 0.37442 0.0
C1490 C 0.60585 0.85477 0.33301 0.0
C1491 C 0.6412 0.79256 0.34993 0.0
C1492 C 0.66168 0.83694 0.34831 0.0
C1493 C 0.68222 0.79168 0.34863 0.0
C1494 C 0.68187 0.69974 0.35209 0.0
C1495 C 0.66113 0.65439 0.35512 0.0
C1496 C 0.64059 0.70045 0.35267 0.0
H1497 H 0.35856 0.89124 0.37188 0.0
H1498 H 0.39557 0.8757 0.31065 0.0
H1499 H 0.38785 0.03322 0.30354 0.0
H1500 H 0.31602 0.07138 0.35215 0.0
H1501 H 0.31647 0.12215 0.37892 0.0
H1502 H 0.31944 0.00346 0.37624 0.0
H1503 H 0.35683 0.01096 0.39829 0.0
H1504 H 0.35424 0.12915 0.40072 0.0
H1505 H 0.3794 0.08176 0.38879 0.0
H1506 H 0.38589 0.19648 0.30803 0.0
H1507 H 0.38559 0.35028 0.32212 0.0
H1508 H 0.34746 0.26177 0.37885 0.0
C1509 C 0.36394 0.92011 0.35649 0.0
C1510 C 0.37767 0.87168 0.34187 0.0
C1511 C 0.38506 0.91201 0.32213 0.0
C1512 C 0.38069 0.00148 0.31787 0.0
C1513 C 0.3685 0.04965 0.3333 0.0
C1514 C 0.35964 0.00996 0.35194 0.0
C1515 C 0.34968 0.07896 0.36719 0.0
C1516 C 0.32386 0.06836 0.36871 0.0
C1517 C 0.36071 0.07495 0.39007 0.0
C1518 C 0.35603 0.16326 0.35506 0.0
C1519 C 0.36654 0.14517 0.33537 0.0
C1520 C 0.37689 0.21198 0.323 0.0
C1521 C 0.37674 0.29934 0.33114 0.0
C1522 C 0.36624 0.319 0.35138 0.0
C1523 C 0.35523 0.24994 0.36303 0.0
H1524 H 0.35853 0.59491 0.8404 0.0
H1525 H 0.31058 0.58708 0.89426 0.0
H1526 H 0.30127 0.74375 0.88818 0.0
H1527 H 0.38145 0.79197 0.85285 0.0
H1528 H 0.38509 0.83312 0.82532 0.0
H1529 H 0.38414 0.71573 0.83017 0.0
H1530 H 0.35112 0.69986 0.80258 0.0
H1531 H 0.352 0.81776 0.79752 0.0
H1532 H 0.32596 0.76599 0.80607 0.0
H1533 H 0.30355 0.90469 0.88254 0.0
H1534 H 0.31651 0.05775 0.87646 0.0
H1535 H 0.36089 0.96473 0.8246 0.0
C1536 C 0.34548 0.62551 0.85031 0.0
C1537 C 0.33538 0.5791 0.86782 0.0
C1538 C 0.31871 0.62168 0.88083 0.0
C1539 C 0.3131 0.71057 0.87739 0.0
C1540 C 0.32406 0.75604 0.86068 0.0
C1541 C 0.33967 0.71486 0.84709 0.0
C1542 C 0.35108 0.78177 0.83226 0.0
C1543 C 0.37696 0.78057 0.83536 0.0
C1544 C 0.34464 0.76536 0.80818 0.0
C1545 C 0.34065 0.8671 0.84081 0.0
C1546 C 0.32476 0.85065 0.85688 0.0
C1547 C 0.31533 0.91883 0.86941 0.0
C1548 C 0.32278 0.00599 0.86585 0.0
C1549 C 0.33939 0.0242 0.8498 0.0
C1550 C 0.34774 0.95378 0.83666 0.0
H1551 H 0.58397 0.27438 0.88917 0.0
H1552 H 0.65287 0.26871 0.91304 0.0
H1553 H 0.64742 0.11577 0.92587 0.0
H1554 H 0.55822 0.12024 0.93125 0.0
H1555 H 0.54045 0.07127 0.91048 0.0
H1556 H 0.54872 0.18622 0.9085 0.0
H1557 H 0.56584 0.15229 0.86884 0.0
H1558 H 0.55625 0.04019 0.87218 0.0
H1559 H 0.58561 0.06245 0.86631 0.0
H1560 H 0.63683 0.96036 0.93147 0.0
H1561 H 0.62444 0.80829 0.92324 0.0
H1562 H 0.56228 0.91085 0.89524 0.0
C1563 C 0.59767 0.24115 0.89729 0.0
C1564 C 0.61867 0.28328 0.89998 0.0
C1565 C 0.63655 0.23754 0.91058 0.0
C1566 C 0.63353 0.1511 0.91831 0.0
C1567 C 0.61254 0.1112 0.91531 0.0
C1568 C 0.59501 0.15418 0.90473 0.0
C1569 C 0.57555 0.09184 0.90022 0.0
C1570 C 0.55448 0.11898 0.91338 0.0
C1571 C 0.57051 0.08636 0.87545 0.0
C1572 C 0.58543 0.00605 0.90878 0.0
C1573 C 0.60644 0.01937 0.9182 0.0
C1574 C 0.62019 0.949 0.92461 0.0
C1575 C 0.61297 0.86272 0.91992 0.0
C1576 C 0.59238 0.84826 0.90866 0.0
C1577 C 0.57792 0.92035 0.9042 0.0
H1578 H 0.39378 0.94528 0.65344 0.0
H1579 H 0.33084 0.85713 0.62411 0.0
H1580 H 0.3149 0.00754 0.62946 0.0
H1581 H 0.37034 0.1121 0.69249 0.0
H1582 H 0.39344 0.18734 0.6873 0.0
H1583 H 0.39796 0.0691 0.68581 0.0
H1584 H 0.41333 0.08479 0.64613 0.0
H1585 H 0.40933 0.20257 0.64777 0.0
H1586 H 0.39632 0.14055 0.62583 0.0
H1587 H 0.30781 0.17045 0.63389 0.0
H1588 H 0.31234 0.33186 0.62959 0.0
H1589 H 0.38094 0.31477 0.65406 0.0
C1590 C 0.3764 0.95635 0.64855 0.0
C1591 C 0.36329 0.88806 0.63885 0.0
C1592 C 0.34094 0.90713 0.63213 0.0
C1593 C 0.33178 0.99248 0.63522 0.0
C1594 C 0.34528 0.05795 0.64493 0.0
C1595 C 0.36726 0.04083 0.65119 0.0
C1596 C 0.37966 0.1247 0.6578 0.0
C1597 C 0.3857 0.12318 0.68231 0.0
C1598 C 0.40088 0.13898 0.64352 0.0
C1599 C 0.36162 0.19318 0.65313 0.0
C1600 C 0.34161 0.15294 0.64659 0.0
C1601 C 0.32324 0.2024 0.63928 0.0
C1602 C 0.32594 0.29421 0.63702 0.0
C1603 C 0.34701 0.33533 0.64156 0.0
C1604 C 0.36453 0.28518 0.65105 0.0
H1605 H 0.63215 0.79597 0.66437 0.0
H1606 H 0.70235 0.79101 0.64403 0.0
H1607 H 0.70578 0.95027 0.65214 0.0
H1608 H 0.61786 0.97629 0.63897 0.0
H1609 H 0.59928 0.02584 0.65897 0.0
H1610 H 0.60367 0.90805 0.659 0.0
H1611 H 0.6169 0.91248 0.69944 0.0
H1612 H 0.61185 0.03056 0.69988 0.0
H1613 H 0.63918 0.98744 0.70745 0.0
H1614 H 0.69862 0.11 0.65063 0.0
H1615 H 0.68275 0.25944 0.64598 0.0
H1616 H 0.61781 0.16648 0.66915 0.0
C1617 C 0.64854 0.82761 0.66297 0.0
C1618 C 0.667 0.78183 0.65369 0.0
C1619 C 0.68805 0.82538 0.65123 0.0
C1620 C 0.69017 0.91582 0.65581 0.0
C1621 C 0.67115 0.96137 0.66315 0.0
C1622 C 0.65087 0.9185 0.66741 0.0
C1623 C 0.63223 0.98494 0.67211 0.0
C1624 C 0.6121 0.97303 0.65631 0.0
C1625 C 0.6246 0.97849 0.69615 0.0
C1626 C 0.64473 0.07108 0.66783 0.0
C1627 C 0.66724 0.05601 0.66308 0.0
C1628 C 0.6813 0.12334 0.65533 0.0
C1629 C 0.67218 0.20836 0.65258 0.0
C1630 C 0.64936 0.22604 0.65771 0.0
C1631 C 0.63558 0.15616 0.66566 0.0
loop_
_geom_bond_atom_site_label_1
_geom_bond_atom_site_label_2
_geom_bond_distance
_geom_bond_site_symmetry_2
_ccdc_geom_bond_type
Zn0 O6 1.920 1_565 S
Zn0 O12 1.898 . S
Zn0 O15 1.905 . S
Zn1 O9 1.905 . S
Zn1 O10 1.898 . S
Zn1 O18 1.920 . S
Zn2 O5 2.080 . S
Zn2 O8 2.114 . S
Zn2 O11 2.120 . S
Zn2 O13 2.120 . S
Zn2 O14 2.114 1_545 S
Zn2 O17 2.080 . S
C3 O8 1.166 . S
C3 O9 1.182 . S
C4 O10 1.167 . S
C4 O11 1.299 . S
O5 Zn2 2.080 . S
O5 C19 1.305 . S
O6 Zn0 1.920 1_545 S
O6 C19 1.234 . S
C7 O12 1.167 1_545 S
C7 O13 1.299 . S
O8 Zn2 2.114 . S
O8 C3 1.166 . S
O9 Zn1 1.905 . S
O9 C3 1.182 . S
O10 Zn1 1.898 . S
O10 C4 1.167 . S
O11 Zn2 2.120 . S
O11 C4 1.299 . S
O12 Zn0 1.898 . S
O12 C7 1.167 1_565 S
O13 Zn2 2.120 . S
O13 C7 1.299 . S
O14 Zn2 2.114 1_565 S
O14 C16 1.166 . S
O15 Zn0 1.905 . S
O15 C16 1.182 . S
C16 O14 1.166 . S
C16 O15 1.182 . S
O17 Zn2 2.080 . S
O17 C20 1.305 . S
O18 Zn1 1.920 . S
O18 C20 1.234 . S
C19 O5 1.305 . S
C19 O6 1.234 . S
C20 O17 1.305 . S
C20 O18 1.234 . S
Zn21 O27 1.920 . S
Zn21 O33 1.898 . S
Zn21 O36 1.905 . S
Zn22 O30 1.905 . S
Zn22 O31 1.898 . S
Zn22 O39 1.920 1_545 S
Zn23 O26 2.080 . S
Zn23 O29 2.114 1_565 S
Zn23 O32 2.120 . S
Zn23 O34 2.120 . S
Zn23 O35 2.114 . S
Zn23 O38 2.080 . S
C24 O29 1.166 . S
C24 O30 1.182 . S
C25 O31 1.167 1_565 S
C25 O32 1.299 . S
O26 Zn23 2.080 . S
O26 C40 1.305 . S
O27 Zn21 1.920 . S
O27 C40 1.234 . S
C28 O33 1.167 . S
C28 O34 1.299 . S
O29 Zn23 2.114 1_545 S
O29 C24 1.166 . S
O30 Zn22 1.905 . S
O30 C24 1.182 . S
O31 Zn22 1.898 . S
O31 C25 1.167 1_545 S
O32 Zn23 2.120 . S
O32 C25 1.299 . S
O33 Zn21 1.898 . S
O33 C28 1.167 . S
O34 Zn23 2.120 . S
O34 C28 1.299 . S
O35 Zn23 2.114 . S
O35 C37 1.166 . S
O36 Zn21 1.905 . S
O36 C37 1.182 . S
C37 O35 1.166 . S
C37 O36 1.182 . S
O38 Zn23 2.080 . S
O38 C41 1.305 . S
O39 Zn22 1.920 1_565 S
O39 C41 1.234 . S
C40 O26 1.305 . S
C40 O27 1.234 . S
C41 O38 1.305 . S
C41 O39 1.234 . S
Zn42 O48 1.920 1_545 S
Zn42 O54 1.898 . S
Zn42 O57 1.905 . S
Zn43 O51 1.905 . S
Zn43 O52 1.898 . S
Zn43 O60 1.920 . S
Zn44 O47 2.080 . S
Zn44 O50 2.114 . S
Zn44 O53 2.120 . S
Zn44 O55 2.120 . S
Zn44 O56 2.114 1_565 S
Zn44 O59 2.080 . S
C45 O50 1.166 . S
C45 O51 1.182 . S
C46 O52 1.167 . S
C46 O53 1.299 . S
O47 Zn44 2.080 . S
O47 C61 1.305 . S
O48 Zn42 1.920 1_565 S
O48 C61 1.234 . S
C49 O54 1.167 1_565 S
C49 O55 1.299 . S
O50 Zn44 2.114 . S
O50 C45 1.166 . S
O51 Zn43 1.905 . S
O51 C45 1.182 . S
O52 Zn43 1.898 . S
O52 C46 1.167 . S
O53 Zn44 2.120 . S
O53 C46 1.299 . S
O54 Zn42 1.898 . S
O54 C49 1.167 1_545 S
O55 Zn44 2.120 . S
O55 C49 1.299 . S
O56 Zn44 2.114 1_545 S
O56 C58 1.166 . S
O57 Zn42 1.905 . S
O57 C58 1.182 . S
C58 O56 1.166 . S
C58 O57 1.182 . S
O59 Zn44 2.080 . S
O59 C62 1.305 . S
O60 Zn43 1.920 . S
O60 C62 1.234 . S
C61 O47 1.305 . S
C61 O48 1.234 . S
C62 O59 1.305 . S
C62 O60 1.234 . S
Zn63 O69 1.920 1_565 S
Zn63 O75 1.898 . S
Zn63 O78 1.905 . S
Zn64 O72 1.905 . S
Zn64 O73 1.898 . S
Zn64 O81 1.920 . S
Zn65 O68 2.080 . S
Zn65 O71 2.114 . S
Zn65 O74 2.120 . S
Zn65 O76 2.120 . S
Zn65 O77 2.114 1_545 S
Zn65 O80 2.080 . S
C66 O71 1.166 . S
C66 O72 1.182 . S
C67 O73 1.167 . S
C67 O74 1.299 . S
O68 Zn65 2.080 . S
O68 C82 1.305 . S
O69 Zn63 1.920 1_545 S
O69 C82 1.234 . S
C70 O75 1.167 1_545 S
C70 O76 1.299 . S
O71 Zn65 2.114 . S
O71 C66 1.166 . S
O72 Zn64 1.905 . S
O72 C66 1.182 . S
O73 Zn64 1.898 . S
O73 C67 1.167 . S
O74 Zn65 2.120 . S
O74 C67 1.299 . S
O75 Zn63 1.898 . S
O75 C70 1.167 1_565 S
O76 Zn65 2.120 . S
O76 C70 1.299 . S
O77 Zn65 2.114 1_565 S
O77 C79 1.166 . S
O78 Zn63 1.905 . S
O78 C79 1.182 . S
C79 O77 1.166 . S
C79 O78 1.182 . S
O80 Zn65 2.080 . S
O80 C83 1.305 . S
O81 Zn64 1.920 . S
O81 C83 1.234 . S
C82 O68 1.305 . S
C82 O69 1.234 . S
C83 O80 1.305 . S
C83 O81 1.234 . S
Zn84 O90 1.920 1_545 S
Zn84 O96 1.898 . S
Zn84 O99 1.905 . S
Zn85 O93 1.905 . S
Zn85 O94 1.898 . S
Zn85 O102 1.920 . S
Zn86 O89 2.080 . S
Zn86 O92 2.114 . S
Zn86 O95 2.120 . S
Zn86 O97 2.120 . S
Zn86 O98 2.114 1_565 S
Zn86 O101 2.080 . S
C87 O92 1.166 . S
C87 O93 1.182 . S
C88 O94 1.167 . S
C88 O95 1.299 . S
O89 Zn86 2.080 . S
O89 C103 1.305 . S
O90 Zn84 1.920 1_565 S
O90 C103 1.234 . S
C91 O96 1.167 1_565 S
C91 O97 1.299 . S
O92 Zn86 2.114 . S
O92 C87 1.166 . S
O93 Zn85 1.905 . S
O93 C87 1.182 . S
O94 Zn85 1.898 . S
O94 C88 1.167 . S
O95 Zn86 2.120 . S
O95 C88 1.299 . S
O96 Zn84 1.898 . S
O96 C91 1.167 1_545 S
O97 Zn86 2.120 . S
O97 C91 1.299 . S
O98 Zn86 2.114 1_545 S
O98 C100 1.166 . S
O99 Zn84 1.905 . S
O99 C100 1.182 . S
C100 O98 1.166 . S
C100 O99 1.182 . S
O101 Zn86 2.080 . S
O101 C104 1.305 . S
O102 Zn85 1.920 . S
O102 C104 1.234 . S
C103 O89 1.305 . S
C103 O90 1.234 . S
C104 O101 1.305 . S
C104 O102 1.234 . S
Zn105 O111 1.920 1_565 S
Zn105 O117 1.898 . S
Zn105 O120 1.905 . S
Zn106 O114 1.905 . S
Zn106 O115 1.898 . S
Zn106 O123 1.920 . S
Zn107 O110 2.080 . S
Zn107 O113 2.114 . S
Zn107 O116 2.120 . S
Zn107 O118 2.120 . S
Zn107 O119 2.114 1_545 S
Zn107 O122 2.080 . S
C108 O113 1.166 . S
C108 O114 1.182 . S
C109 O115 1.167 . S
C109 O116 1.299 . S
O110 Zn107 2.080 . S
O110 C124 1.305 . S
O111 Zn105 1.920 1_545 S
O111 C124 1.234 . S
C112 O117 1.167 1_545 S
C112 O118 1.299 . S
O113 Zn107 2.114 . S
O113 C108 1.166 . S
O114 Zn106 1.905 . S
O114 C108 1.182 . S
O115 Zn106 1.898 . S
O115 C109 1.167 . S
O116 Zn107 2.120 . S
O116 C109 1.299 . S
O117 Zn105 1.898 . S
O117 C112 1.167 1_565 S
O118 Zn107 2.120 . S
O118 C112 1.299 . S
O119 Zn107 2.114 1_565 S
O119 C121 1.166 . S
O120 Zn105 1.905 . S
O120 C121 1.182 . S
C121 O119 1.166 . S
C121 O120 1.182 . S
O122 Zn107 2.080 . S
O122 C125 1.305 . S
O123 Zn106 1.920 . S
O123 C125 1.234 . S
C124 O110 1.305 . S
C124 O111 1.234 . S
C125 O122 1.305 . S
C125 O123 1.234 . S
Zn126 O132 1.920 1_565 S
Zn126 O138 1.898 . S
Zn126 O141 1.905 . S
Zn127 O135 1.905 . S
Zn127 O136 1.898 . S
Zn127 O144 1.920 . S
Zn128 O131 2.080 . S
Zn128 O134 2.114 . S
Zn128 O137 2.120 . S
Zn128 O139 2.120 . S
Zn128 O140 2.114 1_545 S
Zn128 O143 2.080 . S
C129 O134 1.166 . S
C129 O135 1.182 . S
C130 O136 1.167 . S
C130 O137 1.299 . S
O131 Zn128 2.080 . S
O131 C145 1.305 . S
O132 Zn126 1.920 1_545 S
O132 C145 1.234 . S
C133 O138 1.167 1_545 S
C133 O139 1.299 . S
O134 Zn128 2.114 . S
O134 C129 1.166 . S
O135 Zn127 1.905 . S
O135 C129 1.182 . S
O136 Zn127 1.898 . S
O136 C130 1.167 . S
O137 Zn128 2.120 . S
O137 C130 1.299 . S
O138 Zn126 1.898 . S
O138 C133 1.167 1_565 S
O139 Zn128 2.120 . S
O139 C133 1.299 . S
O140 Zn128 2.114 1_565 S
O140 C142 1.166 . S
O141 Zn126 1.905 . S
O141 C142 1.182 . S
C142 O140 1.166 . S
C142 O141 1.182 . S
O143 Zn128 2.080 . S
O143 C146 1.305 . S
O144 Zn127 1.920 . S
O144 C146 1.234 . S
C145 O131 1.305 . S
C145 O132 1.234 . S
C146 O143 1.305 . S
C146 O144 1.234 . S
Zn147 O153 1.920 1_545 S
Zn147 O159 1.898 . S
Zn147 O162 1.905 . S
Zn148 O156 1.905 . S
Zn148 O157 1.898 . S
Zn148 O165 1.920 . S
Zn149 O152 2.080 . S
Zn149 O155 2.114 . S
Zn149 O158 2.120 . S
Zn149 O160 2.120 . S
Zn149 O161 2.114 1_565 S
Zn149 O164 2.080 . S
C150 O155 1.166 . S
C150 O156 1.182 . S
C151 O157 1.167 . S
C151 O158 1.299 . S
O152 Zn149 2.080 . S
O152 C166 1.305 . S
O153 Zn147 1.920 1_565 S
O153 C166 1.234 . S
C154 O159 1.167 1_565 S
C154 O160 1.299 . S
O155 Zn149 2.114 . S
O155 C150 1.166 . S
O156 Zn148 1.905 . S
O156 C150 1.182 . S
O157 Zn148 1.898 . S
O157 C151 1.167 . S
O158 Zn149 2.120 . S
O158 C151 1.299 . S
O159 Zn147 1.898 . S
O159 C154 1.167 1_545 S
O160 Zn149 2.120 . S
O160 C154 1.299 . S
O161 Zn149 2.114 1_545 S
O161 C163 1.166 . S
O162 Zn147 1.905 . S
O162 C163 1.182 . S
C163 O161 1.166 . S
C163 O162 1.182 . S
O164 Zn149 2.080 . S
O164 C167 1.305 . S
O165 Zn148 1.920 . S
O165 C167 1.234 . S
C166 O152 1.305 . S
C166 O153 1.234 . S
C167 O164 1.305 . S
C167 O165 1.234 . S
Zn168 O174 1.920 . S
Zn168 O180 1.898 . S
Zn168 O183 1.905 . S
Zn169 O177 1.905 . S
Zn169 O178 1.898 . S
Zn169 O186 1.920 . S
Zn170 O173 2.080 . S
Zn170 O176 2.114 . S
Zn170 O179 2.120 . S
Zn170 O181 2.120 . S
Zn170 O182 2.114 . S
Zn170 O185 2.080 . S
C171 O176 1.166 . S
C171 O177 1.182 . S
C172 O178 1.167 . S
C172 O179 1.299 . S
O173 Zn170 2.080 . S
O173 C187 1.305 . S
O174 Zn168 1.920 . S
O174 C187 1.234 . S
C175 O180 1.167 . S
C175 O181 1.299 . S
O176 Zn170 2.114 . S
O176 C171 1.166 . S
O177 Zn169 1.905 . S
O177 C171 1.182 . S
O178 Zn169 1.898 . S
O178 C172 1.167 . S
O179 Zn170 2.120 . S
O179 C172 1.299 . S
O180 Zn168 1.898 . S
O180 C175 1.167 . S
O181 Zn170 2.120 . S
O181 C175 1.299 . S
O182 Zn170 2.114 . S
O182 C184 1.166 . S
O183 Zn168 1.905 . S
O183 C184 1.182 . S
C184 O182 1.166 . S
C184 O183 1.182 . S
O185 Zn170 2.080 . S
O185 C188 1.305 . S
O186 Zn169 1.920 . S
O186 C188 1.234 . S
C187 O173 1.305 . S
C187 O174 1.234 . S
C188 O185 1.305 . S
C188 O186 1.234 . S
Zn189 O195 1.920 . S
Zn189 O201 1.898 . S
Zn189 O204 1.905 . S
Zn190 O198 1.905 . S
Zn190 O199 1.898 . S
Zn190 O207 1.920 . S
Zn191 O194 2.080 . S
Zn191 O197 2.114 . S
Zn191 O200 2.120 . S
Zn191 O202 2.120 . S
Zn191 O203 2.114 . S
Zn191 O206 2.080 . S
C192 O197 1.166 . S
C192 O198 1.182 . S
C193 O199 1.167 . S
C193 O200 1.299 . S
O194 Zn191 2.080 . S
O194 C208 1.305 . S
O195 Zn189 1.920 . S
O195 C208 1.234 . S
C196 O201 1.167 . S
C196 O202 1.299 . S
O197 Zn191 2.114 . S
O197 C192 1.166 . S
O198 Zn190 1.905 . S
O198 C192 1.182 . S
O199 Zn190 1.898 . S
O199 C193 1.167 . S
O200 Zn191 2.120 . S
O200 C193 1.299 . S
O201 Zn189 1.898 . S
O201 C196 1.167 . S
O202 Zn191 2.120 . S
O202 C196 1.299 . S
O203 Zn191 2.114 . S
O203 C205 1.166 . S
O204 Zn189 1.905 . S
O204 C205 1.182 . S
C205 O203 1.166 . S
C205 O204 1.182 . S
O206 Zn191 2.080 . S
O206 C209 1.305 . S
O207 Zn190 1.920 . S
O207 C209 1.234 . S
C208 O194 1.305 . S
C208 O195 1.234 . S
C209 O206 1.305 . S
C209 O207 1.234 . S
Zn210 O216 1.920 . S
Zn210 O222 1.898 . S
Zn210 O225 1.905 . S
Zn211 O219 1.905 . S
Zn211 O220 1.898 . S
Zn211 O228 1.920 . S
Zn212 O215 2.080 . S
Zn212 O218 2.114 . S
Zn212 O221 2.120 . S
Zn212 O223 2.120 . S
Zn212 O224 2.114 . S
Zn212 O227 2.080 . S
C213 O218 1.166 . S
C213 O219 1.182 . S
C214 O220 1.167 . S
C214 O221 1.299 . S
O215 Zn212 2.080 . S
O215 C229 1.305 . S
O216 Zn210 1.920 . S
O216 C229 1.234 . S
C217 O222 1.167 . S
C217 O223 1.299 . S
O218 Zn212 2.114 . S
O218 C213 1.166 . S
O219 Zn211 1.905 . S
O219 C213 1.182 . S
O220 Zn211 1.898 . S
O220 C214 1.167 . S
O221 Zn212 2.120 . S
O221 C214 1.299 . S
O222 Zn210 1.898 . S
O222 C217 1.167 . S
O223 Zn212 2.120 . S
O223 C217 1.299 . S
O224 Zn212 2.114 . S
O224 C226 1.166 . S
O225 Zn210 1.905 . S
O225 C226 1.182 . S
C226 O224 1.166 . S
C226 O225 1.182 . S
O227 Zn212 2.080 . S
O227 C230 1.305 . S
O228 Zn211 1.920 . S
O228 C230 1.234 . S
C229 O215 1.305 . S
C229 O216 1.234 . S
C230 O227 1.305 . S
C230 O228 1.234 . S
Zn231 O237 1.920 . S
Zn231 O243 1.898 . S
Zn231 O246 1.905 . S
Zn232 O240 1.905 . S
Zn232 O241 1.898 . S
Zn232 O249 1.920 . S
Zn233 O236 2.080 . S
Zn233 O239 2.114 . S
Zn233 O242 2.120 . S
Zn233 O244 2.120 . S
Zn233 O245 2.114 . S
Zn233 O248 2.080 . S
C234 O239 1.166 . S
C234 O240 1.182 . S
C235 O241 1.167 . S
C235 O242 1.299 . S
O236 Zn233 2.080 . S
O236 C250 1.305 . S
O237 Zn231 1.920 . S
O237 C250 1.234 . S
C238 O243 1.167 . S
C238 O244 1.299 . S
O239 Zn233 2.114 . S
O239 C234 1.166 . S
O240 Zn232 1.905 . S
O240 C234 1.182 . S
O241 Zn232 1.898 . S
O241 C235 1.167 . S
O242 Zn233 2.120 . S
O242 C235 1.299 . S
O243 Zn231 1.898 . S
O243 C238 1.167 . S
O244 Zn233 2.120 . S
O244 C238 1.299 . S
O245 Zn233 2.114 . S
O245 C247 1.166 . S
O246 Zn231 1.905 . S
O246 C247 1.182 . S
C247 O245 1.166 . S
C247 O246 1.182 . S
O248 Zn233 2.080 . S
O248 C251 1.305 . S
O249 Zn232 1.920 . S
O249 C251 1.234 . S
C250 O236 1.305 . S
C250 O237 1.234 . S
C251 O248 1.305 . S
C251 O249 1.234 . S
Zn252 O258 1.920 . S
Zn252 O264 1.898 . S
Zn252 O267 1.905 . S
Zn253 O261 1.905 . S
Zn253 O262 1.898 . S
Zn253 O270 1.920 . S
Zn254 O257 2.080 . S
Zn254 O260 2.114 . S
Zn254 O263 2.120 . S
Zn254 O265 2.120 . S
Zn254 O266 2.114 . S
Zn254 O269 2.080 . S
C255 O260 1.166 . S
C255 O261 1.182 . S
C256 O262 1.167 . S
C256 O263 1.299 . S
O257 Zn254 2.080 . S
O257 C271 1.305 . S
O258 Zn252 1.920 . S
O258 C271 1.234 . S
C259 O264 1.167 . S
C259 O265 1.299 . S
O260 Zn254 2.114 . S
O260 C255 1.166 . S
O261 Zn253 1.905 . S
O261 C255 1.182 . S
O262 Zn253 1.898 . S
O262 C256 1.167 . S
O263 Zn254 2.120 . S
O263 C256 1.299 . S
O264 Zn252 1.898 . S
O264 C259 1.167 . S
O265 Zn254 2.120 . S
O265 C259 1.299 . S
O266 Zn254 2.114 . S
O266 C268 1.166 . S
O267 Zn252 1.905 . S
O267 C268 1.182 . S
C268 O266 1.166 . S
C268 O267 1.182 . S
O269 Zn254 2.080 . S
O269 C272 1.305 . S
O270 Zn253 1.920 . S
O270 C272 1.234 . S
C271 O257 1.305 . S
C271 O258 1.234 . S
C272 O269 1.305 . S
C272 O270 1.234 . S
Zn273 O279 1.920 . S
Zn273 O285 1.898 . S
Zn273 O288 1.905 . S
Zn274 O282 1.905 . S
Zn274 O283 1.898 . S
Zn274 O291 1.920 . S
Zn275 O278 2.080 . S
Zn275 O281 2.114 . S
Zn275 O284 2.120 . S
Zn275 O286 2.120 . S
Zn275 O287 2.114 . S
Zn275 O290 2.080 . S
C276 O281 1.166 . S
C276 O282 1.182 . S
C277 O283 1.167 . S
C277 O284 1.299 . S
O278 Zn275 2.080 . S
O278 C292 1.305 . S
O279 Zn273 1.920 . S
O279 C292 1.234 . S
C280 O285 1.167 . S
C280 O286 1.299 . S
O281 Zn275 2.114 . S
O281 C276 1.166 . S
O282 Zn274 1.905 . S
O282 C276 1.182 . S
O283 Zn274 1.898 . S
O283 C277 1.167 . S
O284 Zn275 2.120 . S
O284 C277 1.299 . S
O285 Zn273 1.898 . S
O285 C280 1.167 . S
O286 Zn275 2.120 . S
O286 C280 1.299 . S
O287 Zn275 2.114 . S
O287 C289 1.166 . S
O288 Zn273 1.905 . S
O288 C289 1.182 . S
C289 O287 1.166 . S
C289 O288 1.182 . S
O290 Zn275 2.080 . S
O290 C293 1.305 . S
O291 Zn274 1.920 . S
O291 C293 1.234 . S
C292 O278 1.305 . S
C292 O279 1.234 . S
C293 O290 1.305 . S
C293 O291 1.234 . S
Zn294 O300 1.920 . S
Zn294 O306 1.898 . S
Zn294 O309 1.905 . S
Zn295 O303 1.905 . S
Zn295 O304 1.898 . S
Zn295 O312 1.920 . S
Zn296 O299 2.080 . S
Zn296 O302 2.114 . S
Zn296 O305 2.120 . S
Zn296 O307 2.120 . S
Zn296 O308 2.114 . S
Zn296 O311 2.080 . S
C297 O302 1.166 . S
C297 O303 1.182 . S
C298 O304 1.167 . S
C298 O305 1.299 . S
O299 Zn296 2.080 . S
O299 C313 1.305 . S
O300 Zn294 1.920 . S
O300 C313 1.234 . S
C301 O306 1.167 . S
C301 O307 1.299 . S
O302 Zn296 2.114 . S
O302 C297 1.166 . S
O303 Zn295 1.905 . S
O303 C297 1.182 . S
O304 Zn295 1.898 . S
O304 C298 1.167 . S
O305 Zn296 2.120 . S
O305 C298 1.299 . S
O306 Zn294 1.898 . S
O306 C301 1.167 . S
O307 Zn296 2.120 . S
O307 C301 1.299 . S
O308 Zn296 2.114 . S
O308 C310 1.166 . S
O309 Zn294 1.905 . S
O309 C310 1.182 . S
C310 O308 1.166 . S
C310 O309 1.182 . S
O311 Zn296 2.080 . S
O311 C314 1.305 . S
O312 Zn295 1.920 . S
O312 C314 1.234 . S
C313 O299 1.305 . S
C313 O300 1.234 . S
C314 O311 1.305 . S
C314 O312 1.234 . S
Zn315 O321 1.920 . S
Zn315 O327 1.898 . S
Zn315 O330 1.905 . S
Zn316 O324 1.905 . S
Zn316 O325 1.898 . S
Zn316 O333 1.920 . S
Zn317 O320 2.080 . S
Zn317 O323 2.114 . S
Zn317 O326 2.120 . S
Zn317 O328 2.120 . S
Zn317 O329 2.114 . S
Zn317 O332 2.080 . S
C318 O323 1.166 . S
C318 O324 1.182 . S
C319 O325 1.167 . S
C319 O326 1.299 . S
O320 Zn317 2.080 . S
O320 C334 1.305 . S
O321 Zn315 1.920 . S
O321 C334 1.234 . S
C322 O327 1.167 . S
C322 O328 1.299 . S
O323 Zn317 2.114 . S
O323 C318 1.166 . S
O324 Zn316 1.905 . S
O324 C318 1.182 . S
O325 Zn316 1.898 . S
O325 C319 1.167 . S
O326 Zn317 2.120 . S
O326 C319 1.299 . S
O327 Zn315 1.898 . S
O327 C322 1.167 . S
O328 Zn317 2.120 . S
O328 C322 1.299 . S
O329 Zn317 2.114 . S
O329 C331 1.166 . S
O330 Zn315 1.905 . S
O330 C331 1.182 . S
C331 O329 1.166 . S
C331 O330 1.182 . S
O332 Zn317 2.080 . S
O332 C335 1.305 . S
O333 Zn316 1.920 . S
O333 C335 1.234 . S
C334 O320 1.305 . S
C334 O321 1.234 . S
C335 O332 1.305 . S
C335 O333 1.234 . S
H336 C348 0.930 . S
H337 C350 0.930 . S
H338 C351 0.930 . S
H339 C355 0.959 . S
H340 C355 0.959 . S
H341 C355 0.961 . S
H342 C356 0.960 . S
H343 C356 0.961 . S
H344 C356 0.959 . S
H345 C359 0.929 . S
H346 C360 0.931 . S
H347 C362 0.930 . S
C348 H336 0.930 . S
C348 C349 1.399 . S
C348 C353 1.399 . S
C349 C348 1.399 . S
C349 C350 1.376 . S
C350 H337 0.930 . S
C350 C349 1.376 . S
C350 C351 1.388 . S
C351 H338 0.930 . S
C351 C350 1.388 . S
C351 C352 1.390 . S
C352 C351 1.390 . S
C352 C353 1.394 . S
C352 C358 1.465 . S
C353 C348 1.399 . S
C353 C352 1.394 . S
C353 C354 1.516 . S
C354 C353 1.516 . S
C354 C355 1.502 . S
C354 C356 1.561 . S
C354 C357 1.526 . S
C355 H339 0.959 . S
C355 H340 0.959 . S
C355 H341 0.961 . S
C355 C354 1.502 . S
C356 H342 0.960 . S
C356 H343 0.961 . S
C356 H344 0.959 . S
C356 C354 1.561 . S
C357 C354 1.526 . S
C357 C358 1.396 . S
C357 C362 1.390 . S
C358 C352 1.465 . S
C358 C357 1.396 . S
C358 C359 1.399 . S
C359 H345 0.929 . S
C359 C358 1.399 . S
C359 C360 1.385 . S
C360 H346 0.931 . S
C360 C359 1.385 . S
C360 C361 1.389 . S
C361 C360 1.389 . S
C361 C362 1.387 . S
C362 H347 0.930 . S
C362 C357 1.390 . S
C362 C361 1.387 . S
H363 C375 0.930 . S
H364 C377 0.930 . S
H365 C378 0.930 . S
H366 C382 0.959 . S
H367 C382 0.959 . S
H368 C382 0.961 . S
H369 C383 0.960 . S
H370 C383 0.961 . S
H371 C383 0.959 . S
H372 C386 0.929 . S
H373 C387 0.931 . S
H374 C389 0.930 . S
C375 H363 0.930 . S
C375 C376 1.399 . S
C375 C380 1.399 . S
C376 C375 1.399 . S
C376 C377 1.376 . S
C377 H364 0.930 . S
C377 C376 1.376 . S
C377 C378 1.388 . S
C378 H365 0.930 . S
C378 C377 1.388 . S
C378 C379 1.390 . S
C379 C378 1.390 . S
C379 C380 1.394 . S
C379 C385 1.465 . S
C380 C375 1.399 . S
C380 C379 1.394 . S
C380 C381 1.516 . S
C381 C380 1.516 . S
C381 C382 1.502 . S
C381 C383 1.561 . S
C381 C384 1.526 . S
C382 H366 0.959 . S
C382 H367 0.959 . S
C382 H368 0.961 . S
C382 C381 1.502 . S
C383 H369 0.960 . S
C383 H370 0.961 . S
C383 H371 0.959 . S
C383 C381 1.561 . S
C384 C381 1.526 . S
C384 C385 1.396 . S
C384 C389 1.390 . S
C385 C379 1.465 . S
C385 C384 1.396 . S
C385 C386 1.399 . S
C386 H372 0.929 . S
C386 C385 1.399 . S
C386 C387 1.385 . S
C387 H373 0.931 . S
C387 C386 1.385 . S
C387 C388 1.389 . S
C388 C387 1.389 . S
C388 C389 1.387 . S
C389 H374 0.930 . S
C389 C384 1.390 . S
C389 C388 1.387 . S
H390 C402 0.930 . S
H391 C404 0.930 . S
H392 C405 0.930 . S
H393 C409 0.959 . S
H394 C409 0.959 . S
H395 C409 0.961 . S
H396 C410 0.960 . S
H397 C410 0.961 . S
H398 C410 0.959 . S
H399 C413 0.929 . S
H400 C414 0.931 . S
H401 C416 0.930 . S
C402 H390 0.930 . S
C402 C403 1.399 . S
C402 C407 1.399 . S
C403 C402 1.399 . S
C403 C404 1.376 . S
C404 H391 0.930 . S
C404 C403 1.376 . S
C404 C405 1.388 . S
C405 H392 0.930 . S
C405 C404 1.388 . S
C405 C406 1.390 . S
C406 C405 1.390 . S
C406 C407 1.394 . S
C406 C412 1.465 . S
C407 C402 1.399 . S
C407 C406 1.394 . S
C407 C408 1.516 . S
C408 C407 1.516 . S
C408 C409 1.502 . S
C408 C410 1.561 . S
C408 C411 1.526 . S
C409 H393 0.959 . S
C409 H394 0.959 . S
C409 H395 0.961 . S
C409 C408 1.502 . S
C410 H396 0.960 . S
C410 H397 0.961 . S
C410 H398 0.959 . S
C410 C408 1.561 . S
C411 C408 1.526 . S
C411 C412 1.396 . S
C411 C416 1.390 . S
C412 C406 1.465 . S
C412 C411 1.396 . S
C412 C413 1.399 . S
C413 H399 0.929 . S
C413 C412 1.399 . S
C413 C414 1.385 . S
C414 H400 0.931 . S
C414 C413 1.385 . S
C414 C415 1.389 . S
C415 C414 1.389 . S
C415 C416 1.387 . S
C416 H401 0.930 . S
C416 C411 1.390 . S
C416 C415 1.387 . S
H417 C429 0.930 . S
H418 C431 0.930 . S
H419 C432 0.930 . S
H420 C436 0.959 . S
H421 C436 0.959 . S
H422 C436 0.961 . S
H423 C437 0.960 . S
H424 C437 0.961 . S
H425 C437 0.959 . S
H426 C440 0.929 . S
H427 C441 0.931 . S
H428 C443 0.930 . S
C429 H417 0.930 . S
C429 C430 1.399 . S
C429 C434 1.399 . S
C430 C429 1.399 . S
C430 C431 1.376 . S
C431 H418 0.930 . S
C431 C430 1.376 . S
C431 C432 1.388 . S
C432 H419 0.930 . S
C432 C431 1.388 . S
C432 C433 1.390 . S
C433 C432 1.390 . S
C433 C434 1.394 . S
C433 C439 1.465 . S
C434 C429 1.399 . S
C434 C433 1.394 . S
C434 C435 1.516 . S
C435 C434 1.516 . S
C435 C436 1.502 . S
C435 C437 1.561 . S
C435 C438 1.526 . S
C436 H420 0.959 . S
C436 H421 0.959 . S
C436 H422 0.961 . S
C436 C435 1.502 . S
C437 H423 0.960 . S
C437 H424 0.961 . S
C437 H425 0.959 . S
C437 C435 1.561 . S
C438 C435 1.526 . S
C438 C439 1.396 . S
C438 C443 1.390 . S
C439 C433 1.465 . S
C439 C438 1.396 . S
C439 C440 1.399 . S
C440 H426 0.929 . S
C440 C439 1.399 . S
C440 C441 1.385 . S
C441 H427 0.931 . S
C441 C440 1.385 . S
C441 C442 1.389 . S
C442 C441 1.389 . S
C442 C443 1.387 . S
C443 H428 0.930 . S
C443 C438 1.390 . S
C443 C442 1.387 . S
H444 C456 0.930 . S
H445 C458 0.930 . S
H446 C459 0.930 . S
H447 C463 0.959 . S
H448 C463 0.959 . S
H449 C463 0.961 . S
H450 C464 0.960 . S
H451 C464 0.961 . S
H452 C464 0.959 . S
H453 C467 0.929 . S
H454 C468 0.931 . S
H455 C470 0.930 . S
C456 H444 0.930 . S
C456 C457 1.399 . S
C456 C461 1.399 . S
C457 C456 1.399 . S
C457 C458 1.376 . S
C458 H445 0.930 . S
C458 C457 1.376 . S
C458 C459 1.388 . S
C459 H446 0.930 . S
C459 C458 1.388 . S
C459 C460 1.390 . S
C460 C459 1.390 . S
C460 C461 1.394 . S
C460 C466 1.465 . S
C461 C456 1.399 . S
C461 C460 1.394 . S
C461 C462 1.516 . S
C462 C461 1.516 . S
C462 C463 1.502 . S
C462 C464 1.561 . S
C462 C465 1.526 . S
C463 H447 0.959 . S
C463 H448 0.959 . S
C463 H449 0.961 . S
C463 C462 1.502 . S
C464 H450 0.960 . S
C464 H451 0.961 . S
C464 H452 0.959 . S
C464 C462 1.561 . S
C465 C462 1.526 . S
C465 C466 1.396 . S
C465 C470 1.390 . S
C466 C460 1.465 . S
C466 C465 1.396 . S
C466 C467 1.399 . S
C467 H453 0.929 . S
C467 C466 1.399 . S
C467 C468 1.385 . S
C468 H454 0.931 . S
C468 C467 1.385 . S
C468 C469 1.389 . S
C469 C468 1.389 . S
C469 C470 1.387 . S
C470 H455 0.930 . S
C470 C465 1.390 . S
C470 C469 1.387 . S
H471 C483 0.930 . S
H472 C485 0.930 . S
H473 C486 0.930 . S
H474 C490 0.959 . S
H475 C490 0.959 . S
H476 C490 0.961 . S
H477 C491 0.960 . S
H478 C491 0.961 . S
H479 C491 0.959 . S
H480 C494 0.929 . S
H481 C495 0.931 . S
H482 C497 0.930 . S
C483 H471 0.930 . S
C483 C484 1.399 . S
C483 C488 1.399 . S
C484 C483 1.399 . S
C484 C485 1.376 . S
C485 H472 0.930 . S
C485 C484 1.376 . S
C485 C486 1.388 . S
C486 H473 0.930 . S
C486 C485 1.388 . S
C486 C487 1.390 . S
C487 C486 1.390 . S
C487 C488 1.394 . S
C487 C493 1.465 . S
C488 C483 1.399 . S
C488 C487 1.394 . S
C488 C489 1.516 . S
C489 C488 1.516 . S
C489 C490 1.502 . S
C489 C491 1.561 . S
C489 C492 1.526 . S
C490 H474 0.959 . S
C490 H475 0.959 . S
C490 H476 0.961 . S
C490 C489 1.502 . S
C491 H477 0.960 . S
C491 H478 0.961 . S
C491 H479 0.959 . S
C491 C489 1.561 . S
C492 C489 1.526 . S
C492 C493 1.396 . S
C492 C497 1.390 . S
C493 C487 1.465 . S
C493 C492 1.396 . S
C493 C494 1.399 . S
C494 H480 0.929 . S
C494 C493 1.399 . S
C494 C495 1.385 . S
C495 H481 0.931 . S
C495 C494 1.385 . S
C495 C496 1.389 . S
C496 C495 1.389 . S
C496 C497 1.387 . S
C497 H482 0.930 . S
C497 C492 1.390 . S
C497 C496 1.387 . S
H498 C510 0.930 . S
H499 C512 0.930 . S
H500 C513 0.930 . S
H501 C517 0.959 . S
H502 C517 0.959 . S
H503 C517 0.961 . S
H504 C518 0.960 . S
H505 C518 0.961 . S
H506 C518 0.959 . S
H507 C521 0.929 . S
H508 C522 0.931 . S
H509 C524 0.930 . S
C510 H498 0.930 . S
C510 C511 1.399 . S
C510 C515 1.399 . S
C511 C510 1.399 . S
C511 C512 1.376 . S
C512 H499 0.930 . S
C512 C511 1.376 . S
C512 C513 1.388 . S
C513 H500 0.930 . S
C513 C512 1.388 . S
C513 C514 1.390 . S
C514 C513 1.390 . S
C514 C515 1.394 . S
C514 C520 1.465 . S
C515 C510 1.399 . S
C515 C514 1.394 . S
C515 C516 1.516 . S
C516 C515 1.516 . S
C516 C517 1.502 . S
C516 C518 1.561 . S
C516 C519 1.526 . S
C517 H501 0.959 . S
C517 H502 0.959 . S
C517 H503 0.961 . S
C517 C516 1.502 . S
C518 H504 0.960 . S
C518 H505 0.961 . S
C518 H506 0.959 . S
C518 C516 1.561 . S
C519 C516 1.526 . S
C519 C520 1.396 . S
C519 C524 1.390 . S
C520 C514 1.465 . S
C520 C519 1.396 . S
C520 C521 1.399 . S
C521 H507 0.929 . S
C521 C520 1.399 . S
C521 C522 1.385 . S
C522 H508 0.931 . S
C522 C521 1.385 . S
C522 C523 1.389 . S
C523 C522 1.389 . S
C523 C524 1.387 . S
C524 H509 0.930 . S
C524 C519 1.390 . S
C524 C523 1.387 . S
H525 C537 0.930 . S
H526 C539 0.930 . S
H527 C540 0.930 . S
H528 C544 0.959 . S
H529 C544 0.959 . S
H530 C544 0.961 . S
H531 C545 0.960 . S
H532 C545 0.961 . S
H533 C545 0.959 . S
H534 C548 0.929 . S
H535 C549 0.931 . S
H536 C551 0.930 . S
C537 H525 0.930 . S
C537 C538 1.399 . S
C537 C542 1.399 . S
C538 C537 1.399 . S
C538 C539 1.376 . S
C539 H526 0.930 . S
C539 C538 1.376 . S
C539 C540 1.388 . S
C540 H527 0.930 . S
C540 C539 1.388 . S
C540 C541 1.390 . S
C541 C540 1.390 . S
C541 C542 1.394 . S
C541 C547 1.465 . S
C542 C537 1.399 . S
C542 C541 1.394 . S
C542 C543 1.516 . S
C543 C542 1.516 . S
C543 C544 1.502 . S
C543 C545 1.561 . S
C543 C546 1.526 . S
C544 H528 0.959 . S
C544 H529 0.959 . S
C544 H530 0.961 . S
C544 C543 1.502 . S
C545 H531 0.960 . S
C545 H532 0.961 . S
C545 H533 0.959 . S
C545 C543 1.561 . S
C546 C543 1.526 . S
C546 C547 1.396 . S
C546 C551 1.390 . S
C547 C541 1.465 . S
C547 C546 1.396 . S
C547 C548 1.399 . S
C548 H534 0.929 . S
C548 C547 1.399 . S
C548 C549 1.385 . S
C549 H535 0.931 . S
C549 C548 1.385 . S
C549 C550 1.389 . S
C550 C549 1.389 . S
C550 C551 1.387 . S
C551 H536 0.930 . S
C551 C546 1.390 . S
C551 C550 1.387 . S
H552 C564 0.930 . S
H553 C566 0.930 . S
H554 C567 0.930 . S
H555 C571 0.959 . S
H556 C571 0.959 . S
H557 C571 0.961 . S
H558 C572 0.960 . S
H559 C572 0.961 . S
H560 C572 0.959 . S
H561 C575 0.929 . S
H562 C576 0.931 . S
H563 C578 0.930 . S
C564 H552 0.930 . S
C564 C565 1.399 1_545 S
C564 C569 1.399 . S
C565 C564 1.399 1_565 S
C565 C566 1.376 . S
C566 H553 0.930 . S
C566 C565 1.376 . S
C566 C567 1.388 . S
C567 H554 0.930 . S
C567 C566 1.388 . S
C567 C568 1.390 . S
C568 C567 1.390 . S
C568 C569 1.394 1_565 S
C568 C574 1.465 . S
C569 C564 1.399 . S
C569 C568 1.394 1_545 S
C569 C570 1.516 . S
C570 C569 1.516 . S
C570 C571 1.502 . S
C570 C572 1.561 . S
C570 C573 1.526 . S
C571 H555 0.959 . S
C571 H556 0.959 . S
C571 H557 0.961 . S
C571 C570 1.502 . S
C572 H558 0.960 . S
C572 H559 0.961 . S
C572 H560 0.959 . S
C572 C570 1.561 . S
C573 C570 1.526 . S
C573 C574 1.396 1_545 S
C573 C578 1.390 . S
C574 C568 1.465 . S
C574 C573 1.396 1_565 S
C574 C575 1.399 . S
C575 H561 0.929 . S
C575 C574 1.399 . S
C575 C576 1.385 . S
C576 H562 0.931 . S
C576 C575 1.385 . S
C576 C577 1.389 1_565 S
C577 C576 1.389 1_545 S
C577 C578 1.387 . S
C578 H563 0.930 . S
C578 C573 1.390 . S
C578 C577 1.387 . S
H579 C591 0.930 . S
H580 C593 0.930 . S
H581 C594 0.930 . S
H582 C598 0.959 . S
H583 C598 0.959 . S
H584 C598 0.961 . S
H585 C599 0.960 . S
H586 C599 0.961 . S
H587 C599 0.959 . S
H588 C602 0.929 . S
H589 C603 0.931 . S
H590 C605 0.930 . S
C591 H579 0.930 . S
C591 C592 1.399 . S
C591 C596 1.399 . S
C592 C591 1.399 . S
C592 C593 1.376 1_545 S
C593 H580 0.930 . S
C593 C592 1.376 1_565 S
C593 C594 1.388 . S
C594 H581 0.930 . S
C594 C593 1.388 . S
C594 C595 1.390 . S
C595 C594 1.390 . S
C595 C596 1.394 1_565 S
C595 C601 1.465 . S
C596 C591 1.399 . S
C596 C595 1.394 1_545 S
C596 C597 1.516 . S
C597 C596 1.516 . S
C597 C598 1.502 . S
C597 C599 1.561 . S
C597 C600 1.526 . S
C598 H582 0.959 . S
C598 H583 0.959 . S
C598 H584 0.961 . S
C598 C597 1.502 . S
C599 H585 0.960 . S
C599 H586 0.961 . S
C599 H587 0.959 . S
C599 C597 1.561 . S
C600 C597 1.526 . S
C600 C601 1.396 1_545 S
C600 C605 1.390 . S
C601 C595 1.465 . S
C601 C600 1.396 1_565 S
C601 C602 1.399 . S
C602 H588 0.929 . S
C602 C601 1.399 . S
C602 C603 1.385 . S
C603 H589 0.931 . S
C603 C602 1.385 . S
C603 C604 1.389 . S
C604 C603 1.389 . S
C604 C605 1.387 1_565 S
C605 H590 0.930 . S
C605 C600 1.390 . S
C605 C604 1.387 1_545 S
H606 C618 0.930 . S
H607 C620 0.930 . S
H608 C621 0.930 . S
H609 C625 0.959 . S
H610 C625 0.959 . S
H611 C625 0.961 . S
H612 C626 0.960 . S
H613 C626 0.961 . S
H614 C626 0.959 . S
H615 C629 0.929 . S
H616 C630 0.931 . S
H617 C632 0.930 . S
C618 H606 0.930 . S
C618 C619 1.399 . S
C618 C623 1.399 . S
C619 C618 1.399 . S
C619 C620 1.376 1_545 S
C620 H607 0.930 . S
C620 C619 1.376 1_565 S
C620 C621 1.388 . S
C621 H608 0.930 . S
C621 C620 1.388 . S
C621 C622 1.390 . S
C622 C621 1.390 . S
C622 C623 1.394 1_565 S
C622 C628 1.465 . S
C623 C618 1.399 . S
C623 C622 1.394 1_545 S
C623 C624 1.516 . S
C624 C623 1.516 . S
C624 C625 1.502 . S
C624 C626 1.561 . S
C624 C627 1.526 . S
C625 H609 0.959 . S
C625 H610 0.959 . S
C625 H611 0.961 . S
C625 C624 1.502 . S
C626 H612 0.960 . S
C626 H613 0.961 . S
C626 H614 0.959 . S
C626 C624 1.561 . S
C627 C624 1.526 . S
C627 C628 1.396 1_545 S
C627 C632 1.390 . S
C628 C622 1.465 . S
C628 C627 1.396 1_565 S
C628 C629 1.399 . S
C629 H615 0.929 . S
C629 C628 1.399 . S
C629 C630 1.385 . S
C630 H616 0.931 . S
C630 C629 1.385 . S
C630 C631 1.389 . S
C631 C630 1.389 . S
C631 C632 1.387 1_565 S
C632 H617 0.930 . S
C632 C627 1.390 . S
C632 C631 1.387 1_545 S
H633 C645 0.930 . S
H634 C647 0.930 . S
H635 C648 0.930 . S
H636 C652 0.959 . S
H637 C652 0.959 . S
H638 C652 0.961 . S
H639 C653 0.960 . S
H640 C653 0.961 . S
H641 C653 0.959 . S
H642 C656 0.929 . S
H643 C657 0.931 . S
H644 C659 0.930 . S
C645 H633 0.930 . S
C645 C646 1.399 1_565 S
C645 C650 1.399 . S
C646 C645 1.399 1_545 S
C646 C647 1.376 . S
C647 H634 0.930 . S
C647 C646 1.376 . S
C647 C648 1.388 . S
C648 H635 0.930 . S
C648 C647 1.388 . S
C648 C649 1.390 . S
C649 C648 1.390 . S
C649 C650 1.394 1_545 S
C649 C655 1.465 . S
C650 C645 1.399 . S
C650 C649 1.394 1_565 S
C650 C651 1.516 . S
C651 C650 1.516 . S
C651 C652 1.502 . S
C651 C653 1.561 . S
C651 C654 1.526 . S
C652 H636 0.959 . S
C652 H637 0.959 . S
C652 H638 0.961 . S
C652 C651 1.502 . S
C653 H639 0.960 . S
C653 H640 0.961 . S
C653 H641 0.959 . S
C653 C651 1.561 . S
C654 C651 1.526 . S
C654 C655 1.396 1_565 S
C654 C659 1.390 . S
C655 C649 1.465 . S
C655 C654 1.396 1_545 S
C655 C656 1.399 . S
C656 H642 0.929 . S
C656 C655 1.399 . S
C656 C657 1.385 . S
C657 H643 0.931 . S
C657 C656 1.385 . S
C657 C658 1.389 1_545 S
C658 C657 1.389 1_565 S
C658 C659 1.387 . S
C659 H644 0.930 . S
C659 C654 1.390 . S
C659 C658 1.387 . S
H660 C672 0.930 . S
H661 C674 0.930 . S
H662 C675 0.930 . S
H663 C679 0.959 . S
H664 C679 0.959 . S
H665 C679 0.961 . S
H666 C680 0.960 . S
H667 C680 0.961 . S
H668 C680 0.959 . S
H669 C683 0.929 . S
H670 C684 0.931 . S
H671 C686 0.930 . S
C672 H660 0.930 . S
C672 C673 1.399 . S
C672 C677 1.399 . S
C673 C672 1.399 . S
C673 C674 1.376 . S
C674 H661 0.930 . S
C674 C673 1.376 . S
C674 C675 1.388 . S
C675 H662 0.930 . S
C675 C674 1.388 . S
C675 C676 1.390 . S
C676 C675 1.390 . S
C676 C677 1.394 . S
C676 C682 1.465 . S
C677 C672 1.399 . S
C677 C676 1.394 . S
C677 C678 1.516 . S
C678 C677 1.516 . S
C678 C679 1.502 . S
C678 C680 1.561 . S
C678 C681 1.526 . S
C679 H663 0.959 . S
C679 H664 0.959 . S
C679 H665 0.961 . S
C679 C678 1.502 . S
C680 H666 0.960 . S
C680 H667 0.961 . S
C680 H668 0.959 . S
C680 C678 1.561 . S
C681 C678 1.526 . S
C681 C682 1.396 . S
C681 C686 1.390 . S
C682 C676 1.465 . S
C682 C681 1.396 . S
C682 C683 1.399 . S
C683 H669 0.929 . S
C683 C682 1.399 . S
C683 C684 1.385 . S
C684 H670 0.931 . S
C684 C683 1.385 . S
C684 C685 1.389 . S
C685 C684 1.389 . S
C685 C686 1.387 . S
C686 H671 0.930 . S
C686 C681 1.390 . S
C686 C685 1.387 . S
H687 C699 0.930 . S
H688 C701 0.930 . S
H689 C702 0.930 . S
H690 C706 0.959 . S
H691 C706 0.959 . S
H692 C706 0.961 . S
H693 C707 0.960 . S
H694 C707 0.961 . S
H695 C707 0.959 . S
H696 C710 0.929 . S
H697 C711 0.931 . S
H698 C713 0.930 . S
C699 H687 0.930 . S
C699 C700 1.399 . S
C699 C704 1.399 . S
C700 C699 1.399 . S
C700 C701 1.376 . S
C701 H688 0.930 . S
C701 C700 1.376 . S
C701 C702 1.388 . S
C702 H689 0.930 . S
C702 C701 1.388 . S
C702 C703 1.390 . S
C703 C702 1.390 . S
C703 C704 1.394 . S
C703 C709 1.465 . S
C704 C699 1.399 . S
C704 C703 1.394 . S
C704 C705 1.516 . S
C705 C704 1.516 . S
C705 C706 1.502 . S
C705 C707 1.561 . S
C705 C708 1.526 . S
C706 H690 0.959 . S
C706 H691 0.959 . S
C706 H692 0.961 . S
C706 C705 1.502 . S
C707 H693 0.960 . S
C707 H694 0.961 . S
C707 H695 0.959 . S
C707 C705 1.561 . S
C708 C705 1.526 . S
C708 C709 1.396 . S
C708 C713 1.390 . S
C709 C703 1.465 . S
C709 C708 1.396 . S
C709 C710 1.399 . S
C710 H696 0.929 . S
C710 C709 1.399 . S
C710 C711 1.385 . S
C711 H697 0.931 . S
C711 C710 1.385 . S
C711 C712 1.389 . S
C712 C711 1.389 . S
C712 C713 1.387 . S
C713 H698 0.930 . S
C713 C708 1.390 . S
C713 C712 1.387 . S
H714 C726 0.930 . S
H715 C728 0.930 . S
H716 C729 0.930 . S
H717 C733 0.959 . S
H718 C733 0.959 . S
H719 C733 0.961 . S
H720 C734 0.960 . S
H721 C734 0.961 . S
H722 C734 0.959 . S
H723 C737 0.929 . S
H724 C738 0.931 . S
H725 C740 0.930 . S
C726 H714 0.930 . S
C726 C727 1.399 . S
C726 C731 1.399 . S
C727 C726 1.399 . S
C727 C728 1.376 . S
C728 H715 0.930 . S
C728 C727 1.376 . S
C728 C729 1.388 . S
C729 H716 0.930 . S
C729 C728 1.388 . S
C729 C730 1.390 . S
C730 C729 1.390 . S
C730 C731 1.394 . S
C730 C736 1.465 . S
C731 C726 1.399 . S
C731 C730 1.394 . S
C731 C732 1.516 . S
C732 C731 1.516 . S
C732 C733 1.502 . S
C732 C734 1.561 . S
C732 C735 1.526 . S
C733 H717 0.959 . S
C733 H718 0.959 . S
C733 H719 0.961 . S
C733 C732 1.502 . S
C734 H720 0.960 . S
C734 H721 0.961 . S
C734 H722 0.959 . S
C734 C732 1.561 . S
C735 C732 1.526 . S
C735 C736 1.396 . S
C735 C740 1.390 . S
C736 C730 1.465 . S
C736 C735 1.396 . S
C736 C737 1.399 . S
C737 H723 0.929 . S
C737 C736 1.399 . S
C737 C738 1.385 . S
C738 H724 0.931 . S
C738 C737 1.385 . S
C738 C739 1.389 . S
C739 C738 1.389 . S
C739 C740 1.387 . S
C740 H725 0.930 . S
C740 C735 1.390 . S
C740 C739 1.387 . S
H741 C753 0.930 . S
H742 C755 0.930 . S
H743 C756 0.930 . S
H744 C760 0.959 . S
H745 C760 0.959 . S
H746 C760 0.961 . S
H747 C761 0.960 . S
H748 C761 0.961 . S
H749 C761 0.959 . S
H750 C764 0.929 . S
H751 C765 0.931 . S
H752 C767 0.930 . S
C753 H741 0.930 . S
C753 C754 1.399 . S
C753 C758 1.399 . S
C754 C753 1.399 . S
C754 C755 1.376 . S
C755 H742 0.930 . S
C755 C754 1.376 . S
C755 C756 1.388 . S
C756 H743 0.930 . S
C756 C755 1.388 . S
C756 C757 1.390 . S
C757 C756 1.390 . S
C757 C758 1.394 . S
C757 C763 1.465 . S
C758 C753 1.399 . S
C758 C757 1.394 . S
C758 C759 1.516 . S
C759 C758 1.516 . S
C759 C760 1.502 . S
C759 C761 1.561 . S
C759 C762 1.526 . S
C760 H744 0.959 . S
C760 H745 0.959 . S
C760 H746 0.961 . S
C760 C759 1.502 . S
C761 H747 0.960 . S
C761 H748 0.961 . S
C761 H749 0.959 . S
C761 C759 1.561 . S
C762 C759 1.526 . S
C762 C763 1.396 . S
C762 C767 1.390 . S
C763 C757 1.465 . S
C763 C762 1.396 . S
C763 C764 1.399 . S
C764 H750 0.929 . S
C764 C763 1.399 . S
C764 C765 1.385 . S
C765 H751 0.931 . S
C765 C764 1.385 . S
C765 C766 1.389 . S
C766 C765 1.389 . S
C766 C767 1.387 . S
C767 H752 0.930 . S
C767 C762 1.390 . S
C767 C766 1.387 . S
H768 C780 0.930 . S
H769 C782 0.930 . S
H770 C783 0.930 . S
H771 C787 0.962 . S
H772 C787 0.979 . S
H773 C787 0.940 1_556 S
H774 C788 0.958 1_556 S
H775 C788 0.963 . S
H776 C788 0.959 . S
H777 C791 0.929 . S
H778 C792 0.931 . S
H779 C794 0.930 . S
C780 H768 0.930 . S
C780 C781 1.399 1_565 S
C780 C785 1.399 . S
C781 C780 1.399 1_545 S
C781 C782 1.376 . S
C782 H769 0.930 . S
C782 C781 1.376 . S
C782 C783 1.388 . S
C783 H770 0.930 . S
C783 C782 1.388 . S
C783 C784 1.390 . S
C784 C783 1.390 . S
C784 C785 1.394 1_545 S
C784 C790 1.465 1_556 S
C785 C780 1.399 . S
C785 C784 1.394 1_565 S
C785 C786 1.517 1_556 S
C786 C785 1.517 1_554 S
C786 C787 1.502 . S
C786 C788 1.561 . S
C786 C789 1.525 . S
C787 H771 0.962 . S
C787 H772 0.979 . S
C787 H773 0.940 1_554 S
C787 C786 1.502 . S
C788 H774 0.958 1_554 S
C788 H775 0.963 . S
C788 H776 0.959 . S
C788 C786 1.561 . S
C789 C786 1.525 . S
C789 C790 1.396 1_565 S
C789 C794 1.390 . S
C790 C784 1.465 1_554 S
C790 C789 1.396 1_545 S
C790 C791 1.399 . S
C791 H777 0.929 . S
C791 C790 1.399 . S
C791 C792 1.385 . S
C792 H778 0.931 . S
C792 C791 1.385 . S
C792 C793 1.389 . S
C793 C792 1.389 . S
C793 C794 1.387 1_545 S
C794 H779 0.930 . S
C794 C789 1.390 . S
C794 C793 1.387 1_565 S
H795 C807 0.930 . S
H796 C809 0.930 . S
H797 C810 0.930 . S
H798 C814 0.962 . S
H799 C814 0.979 . S
H800 C814 0.940 1_556 S
H801 C815 0.958 1_556 S
H802 C815 0.963 . S
H803 C815 0.959 . S
H804 C818 0.929 . S
H805 C819 0.931 . S
H806 C821 0.930 . S
C807 H795 0.930 . S
C807 C808 1.399 . S
C807 C812 1.399 . S
C808 C807 1.399 . S
C808 C809 1.376 1_565 S
C809 H796 0.930 . S
C809 C808 1.376 1_545 S
C809 C810 1.388 . S
C810 H797 0.930 . S
C810 C809 1.388 . S
C810 C811 1.390 1_545 S
C811 C810 1.390 1_565 S
C811 C812 1.394 . S
C811 C817 1.465 1_556 S
C812 C807 1.399 . S
C812 C811 1.394 . S
C812 C813 1.517 1_556 S
C813 C812 1.517 1_554 S
C813 C814 1.502 . S
C813 C815 1.561 . S
C813 C816 1.525 . S
C814 H798 0.962 . S
C814 H799 0.979 . S
C814 H800 0.940 1_554 S
C814 C813 1.502 . S
C815 H801 0.958 1_554 S
C815 H802 0.963 . S
C815 H803 0.959 . S
C815 C813 1.561 . S
C816 C813 1.525 . S
C816 C817 1.399 . S
C816 C821 1.390 . S
C817 C811 1.465 1_554 S
C817 C816 1.399 . S
C817 C818 1.396 1_565 S
C818 H804 0.929 . S
C818 C817 1.396 1_545 S
C818 C819 1.385 . S
C819 H805 0.931 . S
C819 C818 1.385 . S
C819 C820 1.389 1_545 S
C820 C819 1.389 1_565 S
C820 C821 1.387 . S
C821 H806 0.930 . S
C821 C816 1.390 . S
C821 C820 1.387 . S
H822 C834 0.930 . S
H823 C836 0.930 . S
H824 C837 0.930 . S
H825 C841 0.959 . S
H826 C841 0.959 . S
H827 C841 0.961 . S
H828 C842 0.960 . S
H829 C842 0.961 . S
H830 C842 0.959 . S
H831 C845 0.929 . S
H832 C846 0.931 . S
H833 C848 0.930 . S
C834 H822 0.930 . S
C834 C835 1.399 1_545 S
C834 C839 1.399 . S
C835 C834 1.399 1_565 S
C835 C836 1.376 . S
C836 H823 0.930 . S
C836 C835 1.376 . S
C836 C837 1.388 . S
C837 H824 0.930 . S
C837 C836 1.388 . S
C837 C838 1.390 . S
C838 C837 1.390 . S
C838 C839 1.394 1_565 S
C838 C844 1.465 . S
C839 C834 1.399 . S
C839 C838 1.394 1_545 S
C839 C840 1.516 . S
C840 C839 1.516 . S
C840 C841 1.502 . S
C840 C842 1.561 . S
C840 C843 1.526 . S
C841 H825 0.959 . S
C841 H826 0.959 . S
C841 H827 0.961 . S
C841 C840 1.502 . S
C842 H828 0.960 . S
C842 H829 0.961 . S
C842 H830 0.959 . S
C842 C840 1.561 . S
C843 C840 1.526 . S
C843 C844 1.396 1_545 S
C843 C848 1.390 . S
C844 C838 1.465 . S
C844 C843 1.396 1_565 S
C844 C845 1.399 . S
C845 H831 0.929 . S
C845 C844 1.399 . S
C845 C846 1.385 . S
C846 H832 0.931 . S
C846 C845 1.385 . S
C846 C847 1.389 . S
C847 C846 1.389 . S
C847 C848 1.387 1_565 S
C848 H833 0.930 . S
C848 C843 1.390 . S
C848 C847 1.387 1_545 S
H849 C861 0.930 . S
H850 C863 0.930 . S
H851 C864 0.930 . S
H852 C868 0.959 . S
H853 C868 0.959 . S
H854 C868 0.961 . S
H855 C869 0.960 . S
H856 C869 0.961 . S
H857 C869 0.959 . S
H858 C872 0.929 . S
H859 C873 0.931 . S
H860 C875 0.930 . S
C861 H849 0.930 . S
C861 C862 1.399 1_565 S
C861 C866 1.399 . S
C862 C861 1.399 1_545 S
C862 C863 1.376 . S
C863 H850 0.930 . S
C863 C862 1.376 . S
C863 C864 1.388 . S
C864 H851 0.930 . S
C864 C863 1.388 . S
C864 C865 1.390 . S
C865 C864 1.390 . S
C865 C866 1.394 1_545 S
C865 C871 1.465 . S
C866 C861 1.399 . S
C866 C865 1.394 1_565 S
C866 C867 1.516 . S
C867 C866 1.516 . S
C867 C868 1.502 . S
C867 C869 1.561 . S
C867 C870 1.526 . S
C868 H852 0.959 . S
C868 H853 0.959 . S
C868 H854 0.961 . S
C868 C867 1.502 . S
C869 H855 0.960 . S
C869 H856 0.961 . S
C869 H857 0.959 . S
C869 C867 1.561 . S
C870 C867 1.526 . S
C870 C871 1.396 1_565 S
C870 C875 1.390 . S
C871 C865 1.465 . S
C871 C870 1.396 1_545 S
C871 C872 1.399 . S
C872 H858 0.929 . S
C872 C871 1.399 . S
C872 C873 1.385 . S
C873 H859 0.931 . S
C873 C872 1.385 . S
C873 C874 1.389 . S
C874 C873 1.389 . S
C874 C875 1.387 1_545 S
C875 H860 0.930 . S
C875 C870 1.390 . S
C875 C874 1.387 1_565 S
H876 C888 0.930 . S
H877 C890 0.930 . S
H878 C891 0.930 . S
H879 C895 0.962 . S
H880 C895 0.979 . S
H881 C895 0.940 1_554 S
H882 C896 0.958 1_554 S
H883 C896 0.963 . S
H884 C896 0.959 . S
H885 C899 0.929 . S
H886 C900 0.931 . S
H887 C902 0.930 . S
C888 H876 0.930 . S
C888 C889 1.399 . S
C888 C893 1.399 . S
C889 C888 1.399 . S
C889 C890 1.376 . S
C890 H877 0.930 . S
C890 C889 1.376 . S
C890 C891 1.388 . S
C891 H878 0.930 . S
C891 C890 1.388 . S
C891 C892 1.390 . S
C892 C891 1.390 . S
C892 C893 1.394 . S
C892 C898 1.465 1_554 S
C893 C888 1.399 . S
C893 C892 1.394 . S
C893 C894 1.517 1_554 S
C894 C893 1.517 1_556 S
C894 C895 1.502 . S
C894 C896 1.561 . S
C894 C897 1.525 . S
C895 H879 0.962 . S
C895 H880 0.979 . S
C895 H881 0.940 1_556 S
C895 C894 1.502 . S
C896 H882 0.958 1_556 S
C896 H883 0.963 . S
C896 H884 0.959 . S
C896 C894 1.561 . S
C897 C894 1.525 . S
C897 C898 1.396 . S
C897 C902 1.390 . S
C898 C892 1.465 1_556 S
C898 C897 1.396 . S
C898 C899 1.399 . S
C899 H885 0.929 . S
C899 C898 1.399 . S
C899 C900 1.385 . S
C900 H886 0.931 . S
C900 C899 1.385 . S
C900 C901 1.389 . S
C901 C900 1.389 . S
C901 C902 1.387 . S
C902 H887 0.930 . S
C902 C897 1.390 . S
C902 C901 1.387 . S
H903 C915 0.930 . S
H904 C917 0.930 . S
H905 C918 0.930 . S
H906 C922 0.962 . S
H907 C922 0.979 . S
H908 C922 0.940 1_556 S
H909 C923 0.958 1_556 S
H910 C923 0.963 . S
H911 C923 0.959 . S
H912 C926 0.929 . S
H913 C927 0.931 . S
H914 C929 0.930 . S
C915 H903 0.930 . S
C915 C916 1.399 . S
C915 C920 1.399 . S
C916 C915 1.399 . S
C916 C917 1.376 . S
C917 H904 0.930 . S
C917 C916 1.376 . S
C917 C918 1.388 . S
C918 H905 0.930 . S
C918 C917 1.388 . S
C918 C919 1.390 . S
C919 C918 1.390 . S
C919 C920 1.394 . S
C919 C925 1.465 1_556 S
C920 C915 1.399 . S
C920 C919 1.394 . S
C920 C921 1.517 1_556 S
C921 C920 1.517 1_554 S
C921 C922 1.502 . S
C921 C923 1.561 . S
C921 C924 1.525 . S
C922 H906 0.962 . S
C922 H907 0.979 . S
C922 H908 0.940 1_554 S
C922 C921 1.502 . S
C923 H909 0.958 1_554 S
C923 H910 0.963 . S
C923 H911 0.959 . S
C923 C921 1.561 . S
C924 C921 1.525 . S
C924 C925 1.396 . S
C924 C929 1.390 . S
C925 C919 1.465 1_554 S
C925 C924 1.396 . S
C925 C926 1.399 . S
C926 H912 0.929 . S
C926 C925 1.399 . S
C926 C927 1.385 . S
C927 H913 0.931 . S
C927 C926 1.385 . S
C927 C928 1.389 . S
C928 C927 1.389 . S
C928 C929 1.387 . S
C929 H914 0.930 . S
C929 C924 1.390 . S
C929 C928 1.387 . S
H930 C942 0.930 . S
H931 C944 0.930 . S
H932 C945 0.930 . S
H933 C949 0.959 . S
H934 C949 0.959 . S
H935 C949 0.961 . S
H936 C950 0.960 . S
H937 C950 0.961 . S
H938 C950 0.959 . S
H939 C953 0.929 . S
H940 C954 0.931 . S
H941 C956 0.930 . S
C942 H930 0.930 . S
C942 C943 1.399 . S
C942 C947 1.399 . S
C943 C942 1.399 . S
C943 C944 1.376 . S
C944 H931 0.930 . S
C944 C943 1.376 . S
C944 C945 1.388 . S
C945 H932 0.930 . S
C945 C944 1.388 . S
C945 C946 1.390 . S
C946 C945 1.390 . S
C946 C947 1.394 . S
C946 C952 1.465 . S
C947 C942 1.399 . S
C947 C946 1.394 . S
C947 C948 1.516 . S
C948 C947 1.516 . S
C948 C949 1.502 . S
C948 C950 1.561 . S
C948 C951 1.526 . S
C949 H933 0.959 . S
C949 H934 0.959 . S
C949 H935 0.961 . S
C949 C948 1.502 . S
C950 H936 0.960 . S
C950 H937 0.961 . S
C950 H938 0.959 . S
C950 C948 1.561 . S
C951 C948 1.526 . S
C951 C952 1.396 . S
C951 C956 1.390 . S
C952 C946 1.465 . S
C952 C951 1.396 . S
C952 C953 1.399 . S
C953 H939 0.929 . S
C953 C952 1.399 . S
C953 C954 1.385 . S
C954 H940 0.931 . S
C954 C953 1.385 . S
C954 C955 1.389 . S
C955 C954 1.389 . S
C955 C956 1.387 . S
C956 H941 0.930 . S
C956 C951 1.390 . S
C956 C955 1.387 . S
H957 C969 0.930 . S
H958 C971 0.930 . S
H959 C972 0.930 . S
H960 C976 0.959 . S
H961 C976 0.959 . S
H962 C976 0.961 . S
H963 C977 0.960 . S
H964 C977 0.961 . S
H965 C977 0.959 . S
H966 C980 0.929 . S
H967 C981 0.931 . S
H968 C983 0.930 . S
C969 H957 0.930 . S
C969 C970 1.399 . S
C969 C974 1.399 . S
C970 C969 1.399 . S
C970 C971 1.376 . S
C971 H958 0.930 . S
C971 C970 1.376 . S
C971 C972 1.388 . S
C972 H959 0.930 . S
C972 C971 1.388 . S
C972 C973 1.390 . S
C973 C972 1.390 . S
C973 C974 1.394 . S
C973 C979 1.465 . S
C974 C969 1.399 . S
C974 C973 1.394 . S
C974 C975 1.516 . S
C975 C974 1.516 . S
C975 C976 1.502 . S
C975 C977 1.561 . S
C975 C978 1.526 . S
C976 H960 0.959 . S
C976 H961 0.959 . S
C976 H962 0.961 . S
C976 C975 1.502 . S
C977 H963 0.960 . S
C977 H964 0.961 . S
C977 H965 0.959 . S
C977 C975 1.561 . S
C978 C975 1.526 . S
C978 C979 1.396 . S
C978 C983 1.390 . S
C979 C973 1.465 . S
C979 C978 1.396 . S
C979 C980 1.399 . S
C980 H966 0.929 . S
C980 C979 1.399 . S
C980 C981 1.385 . S
C981 H967 0.931 . S
C981 C980 1.385 . S
C981 C982 1.389 . S
C982 C981 1.389 . S
C982 C983 1.387 . S
C983 H968 0.930 . S
C983 C978 1.390 . S
C983 C982 1.387 . S
H984 C996 0.930 . S
H985 C998 0.930 . S
H986 C999 0.930 . S
H987 C1003 0.959 . S
H988 C1003 0.959 1_455 S
H989 C1003 0.961 . S
H990 C1004 0.960 1_655 S
H991 C1004 0.961 . S
H992 C1004 0.959 . S
H993 C1007 0.929 . S
H994 C1008 0.931 . S
H995 C1010 0.930 . S
C996 H984 0.930 . S
C996 C997 1.399 . S
C996 C1001 1.399 . S
C997 C996 1.399 . S
C997 C998 1.376 . S
C998 H985 0.930 . S
C998 C997 1.376 . S
C998 C999 1.388 . S
C999 H986 0.930 . S
C999 C998 1.388 . S
C999 C1000 1.390 . S
C1000 C999 1.390 . S
C1000 C1001 1.394 . S
C1000 C1006 1.465 1_655 S
C1001 C996 1.399 . S
C1001 C1000 1.394 . S
C1001 C1002 1.516 1_565 S
C1002 C1001 1.516 1_545 S
C1002 C1003 1.502 . S
C1002 C1004 1.561 1_645 S
C1002 C1005 1.526 1_655 S
C1003 H987 0.959 . S
C1003 H988 0.959 1_655 S
C1003 H989 0.961 . S
C1003 C1002 1.502 . S
C1004 H990 0.960 1_455 S
C1004 H991 0.961 . S
C1004 H992 0.959 . S
C1004 C1002 1.561 1_465 S
C1005 C1002 1.526 1_455 S
C1005 C1006 1.396 1_545 S
C1005 C1010 1.390 . S
C1006 C1000 1.465 1_455 S
C1006 C1005 1.396 1_565 S
C1006 C1007 1.399 . S
C1007 H993 0.929 . S
C1007 C1006 1.399 . S
C1007 C1008 1.385 1_565 S
C1008 H994 0.931 . S
C1008 C1007 1.385 1_545 S
C1008 C1009 1.389 . S
C1009 C1008 1.389 . S
C1009 C1010 1.387 . S
C1010 H995 0.930 . S
C1010 C1005 1.390 . S
C1010 C1009 1.387 . S
H1011 C1023 0.930 . S
H1012 C1025 0.930 . S
H1013 C1026 0.930 . S
H1014 C1030 0.959 . S
H1015 C1030 0.959 . S
H1016 C1030 0.929 1_655 S
H1017 C1031 0.932 1_655 S
H1018 C1031 0.961 . S
H1019 C1031 0.959 . S
H1020 C1034 0.929 . S
H1021 C1035 0.931 . S
H1022 C1037 0.930 . S
C1023 H1011 0.930 . S
C1023 C1024 1.399 . S
C1023 C1028 1.399 . S
C1024 C1023 1.399 . S
C1024 C1025 1.376 1_545 S
C1025 H1012 0.930 . S
C1025 C1024 1.376 1_565 S
C1025 C1026 1.388 . S
C1026 H1013 0.930 . S
C1026 C1025 1.388 . S
C1026 C1027 1.390 . S
C1027 C1026 1.390 . S
C1027 C1028 1.394 1_565 S
C1027 C1033 1.465 1_655 S
C1028 C1023 1.399 . S
C1028 C1027 1.394 1_545 S
C1028 C1029 1.516 1_655 S
C1029 C1028 1.516 1_455 S
C1029 C1030 1.502 . S
C1029 C1031 1.561 . S
C1029 C1032 1.526 . S
C1030 H1014 0.959 . S
C1030 H1015 0.959 . S
C1030 H1016 0.929 1_455 S
C1030 C1029 1.502 . S
C1031 H1017 0.932 1_455 S
C1031 H1018 0.961 . S
C1031 H1019 0.959 . S
C1031 C1029 1.561 . S
C1032 C1029 1.526 . S
C1032 C1033 1.396 1_545 S
C1032 C1037 1.390 . S
C1033 C1027 1.465 1_455 S
C1033 C1032 1.396 1_565 S
C1033 C1034 1.399 . S
C1034 H1020 0.929 . S
C1034 C1033 1.399 . S
C1034 C1035 1.385 . S
C1035 H1021 0.931 . S
C1035 C1034 1.385 . S
C1035 C1036 1.389 . S
C1036 C1035 1.389 . S
C1036 C1037 1.387 1_565 S
C1037 H1022 0.930 . S
C1037 C1032 1.390 . S
C1037 C1036 1.387 1_545 S
H1038 C1050 0.930 . S
H1039 C1052 0.930 . S
H1040 C1053 0.930 . S
H1041 C1057 0.959 . S
H1042 C1057 0.959 . S
H1043 C1057 0.963 . S
H1044 C1058 0.960 1_455 S
H1045 C1058 0.961 . S
H1046 C1058 0.959 . S
H1047 C1061 0.929 . S
H1048 C1062 0.931 . S
H1049 C1064 0.930 . S
C1050 H1038 0.930 . S
C1050 C1051 1.399 . S
C1050 C1055 1.399 . S
C1051 C1050 1.399 . S
C1051 C1052 1.376 1_545 S
C1052 H1039 0.930 . S
C1052 C1051 1.376 1_565 S
C1052 C1053 1.388 . S
C1053 H1040 0.930 . S
C1053 C1052 1.388 . S
C1053 C1054 1.390 . S
C1054 C1053 1.390 . S
C1054 C1055 1.394 1_565 S
C1054 C1060 1.465 1_455 S
C1055 C1050 1.399 . S
C1055 C1054 1.394 1_545 S
C1055 C1056 1.516 1_455 S
C1056 C1055 1.516 1_655 S
C1056 C1057 1.502 . S
C1056 C1058 1.561 . S
C1056 C1059 1.526 . S
C1057 H1041 0.959 . S
C1057 H1042 0.959 . S
C1057 H1043 0.963 . S
C1057 C1056 1.502 . S
C1058 H1044 0.960 1_655 S
C1058 H1045 0.961 . S
C1058 H1046 0.959 . S
C1058 C1056 1.561 . S
C1059 C1056 1.526 . S
C1059 C1060 1.396 1_545 S
C1059 C1064 1.390 . S
C1060 C1054 1.465 1_655 S
C1060 C1059 1.396 1_565 S
C1060 C1061 1.399 . S
C1061 H1047 0.929 . S
C1061 C1060 1.399 . S
C1061 C1062 1.385 . S
C1062 H1048 0.931 . S
C1062 C1061 1.385 . S
C1062 C1063 1.389 . S
C1063 C1062 1.389 . S
C1063 C1064 1.387 1_565 S
C1064 H1049 0.930 . S
C1064 C1059 1.390 . S
C1064 C1063 1.387 1_545 S
H1065 C1077 0.930 . S
H1066 C1079 0.930 . S
H1067 C1080 0.930 . S
H1068 C1084 0.959 . S
H1069 C1084 0.959 1_455 S
H1070 C1084 0.961 . S
H1071 C1085 0.960 1_655 S
H1072 C1085 0.961 . S
H1073 C1085 0.959 . S
H1074 C1088 0.929 . S
H1075 C1089 0.931 . S
H1076 C1091 0.930 . S
C1077 H1065 0.930 . S
C1077 C1078 1.399 . S
C1077 C1082 1.399 . S
C1078 C1077 1.399 . S
C1078 C1079 1.376 . S
C1079 H1066 0.930 . S
C1079 C1078 1.376 . S
C1079 C1080 1.388 . S
C1080 H1067 0.930 . S
C1080 C1079 1.388 . S
C1080 C1081 1.390 . S
C1081 C1080 1.390 . S
C1081 C1082 1.394 . S
C1081 C1087 1.465 1_655 S
C1082 C1077 1.399 . S
C1082 C1081 1.394 . S
C1082 C1083 1.516 1_545 S
C1083 C1082 1.516 1_565 S
C1083 C1084 1.502 . S
C1083 C1085 1.561 1_665 S
C1083 C1086 1.526 1_655 S
C1084 H1068 0.959 . S
C1084 H1069 0.959 1_655 S
C1084 H1070 0.961 . S
C1084 C1083 1.502 . S
C1085 H1071 0.960 1_455 S
C1085 H1072 0.961 . S
C1085 H1073 0.959 . S
C1085 C1083 1.561 1_445 S
C1086 C1083 1.526 1_455 S
C1086 C1087 1.396 1_565 S
C1086 C1091 1.390 . S
C1087 C1081 1.465 1_455 S
C1087 C1086 1.396 1_545 S
C1087 C1088 1.399 . S
C1088 H1074 0.929 . S
C1088 C1087 1.399 . S
C1088 C1089 1.385 1_545 S
C1089 H1075 0.931 . S
C1089 C1088 1.385 1_565 S
C1089 C1090 1.389 . S
C1090 C1089 1.389 . S
C1090 C1091 1.387 . S
C1091 H1076 0.930 . S
C1091 C1086 1.390 . S
C1091 C1090 1.387 . S
H1092 C1104 0.930 . S
H1093 C1106 0.930 . S
H1094 C1107 0.930 . S
H1095 C1111 0.959 . S
H1096 C1111 0.959 . S
H1097 C1111 0.961 . S
H1098 C1112 0.960 . S
H1099 C1112 0.961 . S
H1100 C1112 0.959 . S
H1101 C1115 0.929 . S
H1102 C1116 0.931 . S
H1103 C1118 0.930 . S
C1104 H1092 0.930 . S
C1104 C1105 1.399 . S
C1104 C1109 1.399 . S
C1105 C1104 1.399 . S
C1105 C1106 1.376 . S
C1106 H1093 0.930 . S
C1106 C1105 1.376 . S
C1106 C1107 1.388 . S
C1107 H1094 0.930 . S
C1107 C1106 1.388 . S
C1107 C1108 1.390 . S
C1108 C1107 1.390 . S
C1108 C1109 1.394 . S
C1108 C1114 1.465 . S
C1109 C1104 1.399 . S
C1109 C1108 1.394 . S
C1109 C1110 1.516 . S
C1110 C1109 1.516 . S
C1110 C1111 1.502 . S
C1110 C1112 1.561 . S
C1110 C1113 1.526 . S
C1111 H1095 0.959 . S
C1111 H1096 0.959 . S
C1111 H1097 0.961 . S
C1111 C1110 1.502 . S
C1112 H1098 0.960 . S
C1112 H1099 0.961 . S
C1112 H1100 0.959 . S
C1112 C1110 1.561 . S
C1113 C1110 1.526 . S
C1113 C1114 1.396 . S
C1113 C1118 1.390 . S
C1114 C1108 1.465 . S
C1114 C1113 1.396 . S
C1114 C1115 1.399 . S
C1115 H1101 0.929 . S
C1115 C1114 1.399 . S
C1115 C1116 1.385 . S
C1116 H1102 0.931 . S
C1116 C1115 1.385 . S
C1116 C1117 1.389 . S
C1117 C1116 1.389 . S
C1117 C1118 1.387 . S
C1118 H1103 0.930 . S
C1118 C1113 1.390 . S
C1118 C1117 1.387 . S
H1119 C1131 0.930 . S
H1120 C1133 0.930 . S
H1121 C1134 0.930 . S
H1122 C1138 0.959 . S
H1123 C1138 0.959 . S
H1124 C1138 0.961 . S
H1125 C1139 0.960 . S
H1126 C1139 0.961 . S
H1127 C1139 0.959 . S
H1128 C1142 0.929 . S
H1129 C1143 0.931 . S
H1130 C1145 0.930 . S
C1131 H1119 0.930 . S
C1131 C1132 1.399 . S
C1131 C1136 1.399 . S
C1132 C1131 1.399 . S
C1132 C1133 1.376 . S
C1133 H1120 0.930 . S
C1133 C1132 1.376 . S
C1133 C1134 1.388 . S
C1134 H1121 0.930 . S
C1134 C1133 1.388 . S
C1134 C1135 1.390 . S
C1135 C1134 1.390 . S
C1135 C1136 1.394 . S
C1135 C1141 1.465 . S
C1136 C1131 1.399 . S
C1136 C1135 1.394 . S
C1136 C1137 1.516 . S
C1137 C1136 1.516 . S
C1137 C1138 1.502 . S
C1137 C1139 1.561 . S
C1137 C1140 1.526 . S
C1138 H1122 0.959 . S
C1138 H1123 0.959 . S
C1138 H1124 0.961 . S
C1138 C1137 1.502 . S
C1139 H1125 0.960 . S
C1139 H1126 0.961 . S
C1139 H1127 0.959 . S
C1139 C1137 1.561 . S
C1140 C1137 1.526 . S
C1140 C1141 1.396 . S
C1140 C1145 1.390 . S
C1141 C1135 1.465 . S
C1141 C1140 1.396 . S
C1141 C1142 1.399 . S
C1142 H1128 0.929 . S
C1142 C1141 1.399 . S
C1142 C1143 1.385 . S
C1143 H1129 0.931 . S
C1143 C1142 1.385 . S
C1143 C1144 1.389 . S
C1144 C1143 1.389 . S
C1144 C1145 1.387 . S
C1145 H1130 0.930 . S
C1145 C1140 1.390 . S
C1145 C1144 1.387 . S
H1146 C1158 0.930 . S
H1147 C1160 0.930 . S
H1148 C1161 0.930 . S
H1149 C1165 0.959 . S
H1150 C1165 0.959 . S
H1151 C1165 0.961 . S
H1152 C1166 0.960 . S
H1153 C1166 0.961 . S
H1154 C1166 0.959 . S
H1155 C1169 0.929 . S
H1156 C1170 0.931 . S
H1157 C1172 0.930 . S
C1158 H1146 0.930 . S
C1158 C1159 1.399 . S
C1158 C1163 1.399 . S
C1159 C1158 1.399 . S
C1159 C1160 1.376 . S
C1160 H1147 0.930 . S
C1160 C1159 1.376 . S
C1160 C1161 1.388 . S
C1161 H1148 0.930 . S
C1161 C1160 1.388 . S
C1161 C1162 1.390 . S
C1162 C1161 1.390 . S
C1162 C1163 1.394 . S
C1162 C1168 1.465 . S
C1163 C1158 1.399 . S
C1163 C1162 1.394 . S
C1163 C1164 1.516 . S
C1164 C1163 1.516 . S
C1164 C1165 1.502 . S
C1164 C1166 1.561 . S
C1164 C1167 1.526 . S
C1165 H1149 0.959 . S
C1165 H1150 0.959 . S
C1165 H1151 0.961 . S
C1165 C1164 1.502 . S
C1166 H1152 0.960 . S
C1166 H1153 0.961 . S
C1166 H1154 0.959 . S
C1166 C1164 1.561 . S
C1167 C1164 1.526 . S
C1167 C1168 1.396 . S
C1167 C1172 1.390 . S
C1168 C1162 1.465 . S
C1168 C1167 1.396 . S
C1168 C1169 1.399 . S
C1169 H1155 0.929 . S
C1169 C1168 1.399 . S
C1169 C1170 1.385 . S
C1170 H1156 0.931 . S
C1170 C1169 1.385 . S
C1170 C1171 1.389 . S
C1171 C1170 1.389 . S
C1171 C1172 1.387 . S
C1172 H1157 0.930 . S
C1172 C1167 1.390 . S
C1172 C1171 1.387 . S
H1173 C1185 0.930 . S
H1174 C1187 0.930 . S
H1175 C1188 0.930 . S
H1176 C1192 0.959 . S
H1177 C1192 0.959 . S
H1178 C1192 0.961 . S
H1179 C1193 0.960 . S
H1180 C1193 0.961 . S
H1181 C1193 0.959 . S
H1182 C1196 0.929 . S
H1183 C1197 0.931 . S
H1184 C1199 0.930 . S
C1185 H1173 0.930 . S
C1185 C1186 1.399 . S
C1185 C1190 1.399 . S
C1186 C1185 1.399 . S
C1186 C1187 1.376 . S
C1187 H1174 0.930 . S
C1187 C1186 1.376 . S
C1187 C1188 1.388 . S
C1188 H1175 0.930 . S
C1188 C1187 1.388 . S
C1188 C1189 1.390 . S
C1189 C1188 1.390 . S
C1189 C1190 1.394 . S
C1189 C1195 1.465 . S
C1190 C1185 1.399 . S
C1190 C1189 1.394 . S
C1190 C1191 1.516 . S
C1191 C1190 1.516 . S
C1191 C1192 1.502 . S
C1191 C1193 1.561 . S
C1191 C1194 1.526 . S
C1192 H1176 0.959 . S
C1192 H1177 0.959 . S
C1192 H1178 0.961 . S
C1192 C1191 1.502 . S
C1193 H1179 0.960 . S
C1193 H1180 0.961 . S
C1193 H1181 0.959 . S
C1193 C1191 1.561 . S
C1194 C1191 1.526 . S
C1194 C1195 1.396 . S
C1194 C1199 1.390 . S
C1195 C1189 1.465 . S
C1195 C1194 1.396 . S
C1195 C1196 1.399 . S
C1196 H1182 0.929 . S
C1196 C1195 1.399 . S
C1196 C1197 1.385 . S
C1197 H1183 0.931 . S
C1197 C1196 1.385 . S
C1197 C1198 1.389 . S
C1198 C1197 1.389 . S
C1198 C1199 1.387 . S
C1199 H1184 0.930 . S
C1199 C1194 1.390 . S
C1199 C1198 1.387 . S
H1200 C1212 0.930 . S
H1201 C1214 0.930 . S
H1202 C1215 0.930 . S
H1203 C1219 0.959 . S
H1204 C1219 0.959 . S
H1205 C1219 0.961 . S
H1206 C1220 0.960 . S
H1207 C1220 0.961 . S
H1208 C1220 0.959 . S
H1209 C1223 0.929 . S
H1210 C1224 0.931 . S
H1211 C1226 0.930 . S
C1212 H1200 0.930 . S
C1212 C1213 1.399 . S
C1212 C1217 1.399 . S
C1213 C1212 1.399 . S
C1213 C1214 1.376 . S
C1214 H1201 0.930 . S
C1214 C1213 1.376 . S
C1214 C1215 1.388 . S
C1215 H1202 0.930 . S
C1215 C1214 1.388 . S
C1215 C1216 1.390 . S
C1216 C1215 1.390 . S
C1216 C1217 1.394 . S
C1216 C1222 1.465 . S
C1217 C1212 1.399 . S
C1217 C1216 1.394 . S
C1217 C1218 1.516 . S
C1218 C1217 1.516 . S
C1218 C1219 1.502 . S
C1218 C1220 1.561 . S
C1218 C1221 1.526 . S
C1219 H1203 0.959 . S
C1219 H1204 0.959 . S
C1219 H1205 0.961 . S
C1219 C1218 1.502 . S
C1220 H1206 0.960 . S
C1220 H1207 0.961 . S
C1220 H1208 0.959 . S
C1220 C1218 1.561 . S
C1221 C1218 1.526 . S
C1221 C1222 1.396 . S
C1221 C1226 1.390 . S
C1222 C1216 1.465 . S
C1222 C1221 1.396 . S
C1222 C1223 1.399 . S
C1223 H1209 0.929 . S
C1223 C1222 1.399 . S
C1223 C1224 1.385 . S
C1224 H1210 0.931 . S
C1224 C1223 1.385 . S
C1224 C1225 1.389 . S
C1225 C1224 1.389 . S
C1225 C1226 1.387 . S
C1226 H1211 0.930 . S
C1226 C1221 1.390 . S
C1226 C1225 1.387 . S
H1227 C1239 0.930 . S
H1228 C1241 0.930 . S
H1229 C1242 0.930 . S
H1230 C1246 0.959 . S
H1231 C1246 0.959 . S
H1232 C1246 0.961 . S
H1233 C1247 0.960 . S
H1234 C1247 0.961 . S
H1235 C1247 0.959 . S
H1236 C1250 0.929 . S
H1237 C1251 0.931 . S
H1238 C1253 0.930 . S
C1239 H1227 0.930 . S
C1239 C1240 1.399 . S
C1239 C1244 1.399 . S
C1240 C1239 1.399 . S
C1240 C1241 1.376 . S
C1241 H1228 0.930 . S
C1241 C1240 1.376 . S
C1241 C1242 1.388 . S
C1242 H1229 0.930 . S
C1242 C1241 1.388 . S
C1242 C1243 1.390 . S
C1243 C1242 1.390 . S
C1243 C1244 1.394 . S
C1243 C1249 1.465 . S
C1244 C1239 1.399 . S
C1244 C1243 1.394 . S
C1244 C1245 1.516 . S
C1245 C1244 1.516 . S
C1245 C1246 1.502 . S
C1245 C1247 1.561 . S
C1245 C1248 1.526 . S
C1246 H1230 0.959 . S
C1246 H1231 0.959 . S
C1246 H1232 0.961 . S
C1246 C1245 1.502 . S
C1247 H1233 0.960 . S
C1247 H1234 0.961 . S
C1247 H1235 0.959 . S
C1247 C1245 1.561 . S
C1248 C1245 1.526 . S
C1248 C1249 1.396 . S
C1248 C1253 1.390 . S
C1249 C1243 1.465 . S
C1249 C1248 1.396 . S
C1249 C1250 1.399 . S
C1250 H1236 0.929 . S
C1250 C1249 1.399 . S
C1250 C1251 1.385 . S
C1251 H1237 0.931 . S
C1251 C1250 1.385 . S
C1251 C1252 1.389 . S
C1252 C1251 1.389 . S
C1252 C1253 1.387 . S
C1253 H1238 0.930 . S
C1253 C1248 1.390 . S
C1253 C1252 1.387 . S
H1254 C1266 0.930 . S
H1255 C1268 0.930 . S
H1256 C1269 0.930 . S
H1257 C1273 0.959 . S
H1258 C1273 0.959 . S
H1259 C1273 0.961 . S
H1260 C1274 0.960 . S
H1261 C1274 0.961 . S
H1262 C1274 0.959 . S
H1263 C1277 0.929 . S
H1264 C1278 0.931 . S
H1265 C1280 0.930 . S
C1266 H1254 0.930 . S
C1266 C1267 1.399 . S
C1266 C1271 1.399 . S
C1267 C1266 1.399 . S
C1267 C1268 1.376 . S
C1268 H1255 0.930 . S
C1268 C1267 1.376 . S
C1268 C1269 1.388 . S
C1269 H1256 0.930 . S
C1269 C1268 1.388 . S
C1269 C1270 1.390 . S
C1270 C1269 1.390 . S
C1270 C1271 1.394 . S
C1270 C1276 1.465 . S
C1271 C1266 1.399 . S
C1271 C1270 1.394 . S
C1271 C1272 1.516 . S
C1272 C1271 1.516 . S
C1272 C1273 1.502 . S
C1272 C1274 1.561 . S
C1272 C1275 1.526 . S
C1273 H1257 0.959 . S
C1273 H1258 0.959 . S
C1273 H1259 0.961 . S
C1273 C1272 1.502 . S
C1274 H1260 0.960 . S
C1274 H1261 0.961 . S
C1274 H1262 0.959 . S
C1274 C1272 1.561 . S
C1275 C1272 1.526 . S
C1275 C1276 1.396 . S
C1275 C1280 1.390 . S
C1276 C1270 1.465 . S
C1276 C1275 1.396 . S
C1276 C1277 1.399 . S
C1277 H1263 0.929 . S
C1277 C1276 1.399 . S
C1277 C1278 1.385 . S
C1278 H1264 0.931 . S
C1278 C1277 1.385 . S
C1278 C1279 1.389 . S
C1279 C1278 1.389 . S
C1279 C1280 1.387 . S
C1280 H1265 0.930 . S
C1280 C1275 1.390 . S
C1280 C1279 1.387 . S
H1281 C1293 0.930 . S
H1282 C1295 0.930 . S
H1283 C1296 0.930 . S
H1284 C1300 0.959 . S
H1285 C1300 0.959 . S
H1286 C1300 0.961 . S
H1287 C1301 0.960 . S
H1288 C1301 0.961 . S
H1289 C1301 0.959 . S
H1290 C1304 0.929 . S
H1291 C1305 0.931 . S
H1292 C1307 0.930 . S
C1293 H1281 0.930 . S
C1293 C1294 1.399 . S
C1293 C1298 1.399 . S
C1294 C1293 1.399 . S
C1294 C1295 1.376 . S
C1295 H1282 0.930 . S
C1295 C1294 1.376 . S
C1295 C1296 1.388 . S
C1296 H1283 0.930 . S
C1296 C1295 1.388 . S
C1296 C1297 1.390 . S
C1297 C1296 1.390 . S
C1297 C1298 1.394 . S
C1297 C1303 1.465 . S
C1298 C1293 1.399 . S
C1298 C1297 1.394 . S
C1298 C1299 1.516 . S
C1299 C1298 1.516 . S
C1299 C1300 1.502 . S
C1299 C1301 1.561 . S
C1299 C1302 1.526 . S
C1300 H1284 0.959 . S
C1300 H1285 0.959 . S
C1300 H1286 0.961 . S
C1300 C1299 1.502 . S
C1301 H1287 0.960 . S
C1301 H1288 0.961 . S
C1301 H1289 0.959 . S
C1301 C1299 1.561 . S
C1302 C1299 1.526 . S
C1302 C1303 1.396 . S
C1302 C1307 1.390 . S
C1303 C1297 1.465 . S
C1303 C1302 1.396 . S
C1303 C1304 1.399 . S
C1304 H1290 0.929 . S
C1304 C1303 1.399 . S
C1304 C1305 1.385 . S
C1305 H1291 0.931 . S
C1305 C1304 1.385 . S
C1305 C1306 1.389 . S
C1306 C1305 1.389 . S
C1306 C1307 1.387 . S
C1307 H1292 0.930 . S
C1307 C1302 1.390 . S
C1307 C1306 1.387 . S
H1308 C1320 0.930 . S
H1309 C1322 0.930 . S
H1310 C1323 0.930 . S
H1311 C1327 0.959 . S
H1312 C1327 0.959 . S
H1313 C1327 0.961 . S
H1314 C1328 0.960 . S
H1315 C1328 0.961 . S
H1316 C1328 0.959 . S
H1317 C1331 0.929 . S
H1318 C1332 0.931 . S
H1319 C1334 0.930 . S
C1320 H1308 0.930 . S
C1320 C1321 1.399 . S
C1320 C1325 1.399 . S
C1321 C1320 1.399 . S
C1321 C1322 1.376 . S
C1322 H1309 0.930 . S
C1322 C1321 1.376 . S
C1322 C1323 1.388 . S
C1323 H1310 0.930 . S
C1323 C1322 1.388 . S
C1323 C1324 1.390 . S
C1324 C1323 1.390 . S
C1324 C1325 1.394 . S
C1324 C1330 1.465 . S
C1325 C1320 1.399 . S
C1325 C1324 1.394 . S
C1325 C1326 1.516 . S
C1326 C1325 1.516 . S
C1326 C1327 1.502 . S
C1326 C1328 1.561 . S
C1326 C1329 1.526 . S
C1327 H1311 0.959 . S
C1327 H1312 0.959 . S
C1327 H1313 0.961 . S
C1327 C1326 1.502 . S
C1328 H1314 0.960 . S
C1328 H1315 0.961 . S
C1328 H1316 0.959 . S
C1328 C1326 1.561 . S
C1329 C1326 1.526 . S
C1329 C1330 1.396 . S
C1329 C1334 1.390 . S
C1330 C1324 1.465 . S
C1330 C1329 1.396 . S
C1330 C1331 1.399 . S
C1331 H1317 0.929 . S
C1331 C1330 1.399 . S
C1331 C1332 1.385 . S
C1332 H1318 0.931 . S
C1332 C1331 1.385 . S
C1332 C1333 1.389 . S
C1333 C1332 1.389 . S
C1333 C1334 1.387 . S
C1334 H1319 0.930 . S
C1334 C1329 1.390 . S
C1334 C1333 1.387 . S
H1335 C1347 0.930 . S
H1336 C1349 0.930 . S
H1337 C1350 0.930 . S
H1338 C1354 0.959 . S
H1339 C1354 0.959 . S
H1340 C1354 0.961 . S
H1341 C1355 0.960 . S
H1342 C1355 0.961 . S
H1343 C1355 0.959 . S
H1344 C1358 0.929 . S
H1345 C1359 0.931 . S
H1346 C1361 0.930 . S
C1347 H1335 0.930 . S
C1347 C1348 1.399 . S
C1347 C1352 1.399 . S
C1348 C1347 1.399 . S
C1348 C1349 1.376 . S
C1349 H1336 0.930 . S
C1349 C1348 1.376 . S
C1349 C1350 1.388 . S
C1350 H1337 0.930 . S
C1350 C1349 1.388 . S
C1350 C1351 1.390 . S
C1351 C1350 1.390 . S
C1351 C1352 1.394 . S
C1351 C1357 1.465 . S
C1352 C1347 1.399 . S
C1352 C1351 1.394 . S
C1352 C1353 1.516 . S
C1353 C1352 1.516 . S
C1353 C1354 1.502 . S
C1353 C1355 1.561 . S
C1353 C1356 1.526 . S
C1354 H1338 0.959 . S
C1354 H1339 0.959 . S
C1354 H1340 0.961 . S
C1354 C1353 1.502 . S
C1355 H1341 0.960 . S
C1355 H1342 0.961 . S
C1355 H1343 0.959 . S
C1355 C1353 1.561 . S
C1356 C1353 1.526 . S
C1356 C1357 1.396 . S
C1356 C1361 1.390 . S
C1357 C1351 1.465 . S
C1357 C1356 1.396 . S
C1357 C1358 1.399 . S
C1358 H1344 0.929 . S
C1358 C1357 1.399 . S
C1358 C1359 1.385 . S
C1359 H1345 0.931 . S
C1359 C1358 1.385 . S
C1359 C1360 1.389 . S
C1360 C1359 1.389 . S
C1360 C1361 1.387 . S
C1361 H1346 0.930 . S
C1361 C1356 1.390 . S
C1361 C1360 1.387 . S
H1362 C1374 0.930 . S
H1363 C1376 0.930 . S
H1364 C1377 0.930 . S
H1365 C1381 0.959 . S
H1366 C1381 0.959 . S
H1367 C1381 0.961 . S
H1368 C1382 0.960 . S
H1369 C1382 0.961 . S
H1370 C1382 0.959 . S
H1371 C1385 0.929 . S
H1372 C1386 0.931 . S
H1373 C1388 0.930 . S
C1374 H1362 0.930 . S
C1374 C1375 1.399 . S
C1374 C1379 1.399 . S
C1375 C1374 1.399 . S
C1375 C1376 1.376 . S
C1376 H1363 0.930 . S
C1376 C1375 1.376 . S
C1376 C1377 1.388 . S
C1377 H1364 0.930 . S
C1377 C1376 1.388 . S
C1377 C1378 1.390 . S
C1378 C1377 1.390 . S
C1378 C1379 1.394 . S
C1378 C1384 1.465 . S
C1379 C1374 1.399 . S
C1379 C1378 1.394 . S
C1379 C1380 1.516 . S
C1380 C1379 1.516 . S
C1380 C1381 1.502 . S
C1380 C1382 1.561 . S
C1380 C1383 1.526 . S
C1381 H1365 0.959 . S
C1381 H1366 0.959 . S
C1381 H1367 0.961 . S
C1381 C1380 1.502 . S
C1382 H1368 0.960 . S
C1382 H1369 0.961 . S
C1382 H1370 0.959 . S
C1382 C1380 1.561 . S
C1383 C1380 1.526 . S
C1383 C1384 1.396 . S
C1383 C1388 1.390 . S
C1384 C1378 1.465 . S
C1384 C1383 1.396 . S
C1384 C1385 1.399 . S
C1385 H1371 0.929 . S
C1385 C1384 1.399 . S
C1385 C1386 1.385 . S
C1386 H1372 0.931 . S
C1386 C1385 1.385 . S
C1386 C1387 1.389 . S
C1387 C1386 1.389 . S
C1387 C1388 1.387 . S
C1388 H1373 0.930 . S
C1388 C1383 1.390 . S
C1388 C1387 1.387 . S
H1389 C1401 0.930 . S
H1390 C1403 0.930 . S
H1391 C1404 0.930 . S
H1392 C1408 0.959 . S
H1393 C1408 0.959 . S
H1394 C1408 0.961 . S
H1395 C1409 0.960 . S
H1396 C1409 0.961 . S
H1397 C1409 0.959 . S
H1398 C1412 0.929 . S
H1399 C1413 0.931 . S
H1400 C1415 0.930 . S
C1401 H1389 0.930 . S
C1401 C1402 1.399 . S
C1401 C1406 1.399 . S
C1402 C1401 1.399 . S
C1402 C1403 1.376 . S
C1403 H1390 0.930 . S
C1403 C1402 1.376 . S
C1403 C1404 1.388 . S
C1404 H1391 0.930 . S
C1404 C1403 1.388 . S
C1404 C1405 1.390 . S
C1405 C1404 1.390 . S
C1405 C1406 1.394 . S
C1405 C1411 1.465 . S
C1406 C1401 1.399 . S
C1406 C1405 1.394 . S
C1406 C1407 1.516 . S
C1407 C1406 1.516 . S
C1407 C1408 1.502 . S
C1407 C1409 1.561 . S
C1407 C1410 1.526 . S
C1408 H1392 0.959 . S
C1408 H1393 0.959 . S
C1408 H1394 0.961 . S
C1408 C1407 1.502 . S
C1409 H1395 0.960 . S
C1409 H1396 0.961 . S
C1409 H1397 0.959 . S
C1409 C1407 1.561 . S
C1410 C1407 1.526 . S
C1410 C1411 1.396 . S
C1410 C1415 1.390 . S
C1411 C1405 1.465 . S
C1411 C1410 1.396 . S
C1411 C1412 1.399 . S
C1412 H1398 0.929 . S
C1412 C1411 1.399 . S
C1412 C1413 1.385 . S
C1413 H1399 0.931 . S
C1413 C1412 1.385 . S
C1413 C1414 1.389 . S
C1414 C1413 1.389 . S
C1414 C1415 1.387 . S
C1415 H1400 0.930 . S
C1415 C1410 1.390 . S
C1415 C1414 1.387 . S
H1416 C1428 0.930 . S
H1417 C1430 0.930 . S
H1418 C1431 0.930 . S
H1419 C1435 0.959 . S
H1420 C1435 0.959 . S
H1421 C1435 0.961 . S
H1422 C1436 0.960 . S
H1423 C1436 0.961 . S
H1424 C1436 0.959 . S
H1425 C1439 0.929 . S
H1426 C1440 0.931 . S
H1427 C1442 0.930 . S
C1428 H1416 0.930 . S
C1428 C1429 1.399 . S
C1428 C1433 1.399 . S
C1429 C1428 1.399 . S
C1429 C1430 1.376 . S
C1430 H1417 0.930 . S
C1430 C1429 1.376 . S
C1430 C1431 1.388 . S
C1431 H1418 0.930 . S
C1431 C1430 1.388 . S
C1431 C1432 1.390 1_565 S
C1432 C1431 1.390 1_545 S
C1432 C1433 1.394 1_545 S
C1432 C1438 1.465 . S
C1433 C1428 1.399 . S
C1433 C1432 1.394 1_565 S
C1433 C1434 1.516 1_565 S
C1434 C1433 1.516 1_545 S
C1434 C1435 1.502 . S
C1434 C1436 1.561 . S
C1434 C1437 1.526 . S
C1435 H1419 0.959 . S
C1435 H1420 0.959 . S
C1435 H1421 0.961 . S
C1435 C1434 1.502 . S
C1436 H1422 0.960 . S
C1436 H1423 0.961 . S
C1436 H1424 0.959 . S
C1436 C1434 1.561 . S
C1437 C1434 1.526 . S
C1437 C1438 1.396 . S
C1437 C1442 1.390 . S
C1438 C1432 1.465 . S
C1438 C1437 1.396 . S
C1438 C1439 1.399 . S
C1439 H1425 0.929 . S
C1439 C1438 1.399 . S
C1439 C1440 1.385 . S
C1440 H1426 0.931 . S
C1440 C1439 1.385 . S
C1440 C1441 1.389 . S
C1441 C1440 1.389 . S
C1441 C1442 1.387 . S
C1442 H1427 0.930 . S
C1442 C1437 1.390 . S
C1442 C1441 1.387 . S
H1443 C1455 0.930 . S
H1444 C1457 0.930 . S
H1445 C1458 0.930 . S
H1446 C1462 0.959 . S
H1447 C1462 0.959 . S
H1448 C1462 0.961 . S
H1449 C1463 0.960 . S
H1450 C1463 0.961 . S
H1451 C1463 0.959 . S
H1452 C1466 0.929 . S
H1453 C1467 0.931 . S
H1454 C1469 0.930 . S
C1455 H1443 0.930 . S
C1455 C1456 1.399 . S
C1455 C1460 1.399 . S
C1456 C1455 1.399 . S
C1456 C1457 1.376 . S
C1457 H1444 0.930 . S
C1457 C1456 1.376 . S
C1457 C1458 1.388 . S
C1458 H1445 0.930 . S
C1458 C1457 1.388 . S
C1458 C1459 1.390 . S
C1459 C1458 1.390 . S
C1459 C1460 1.394 . S
C1459 C1465 1.465 . S
C1460 C1455 1.399 . S
C1460 C1459 1.394 . S
C1460 C1461 1.516 . S
C1461 C1460 1.516 . S
C1461 C1462 1.502 . S
C1461 C1463 1.561 . S
C1461 C1464 1.526 1_565 S
C1462 H1446 0.959 . S
C1462 H1447 0.959 . S
C1462 H1448 0.961 . S
C1462 C1461 1.502 . S
C1463 H1449 0.960 . S
C1463 H1450 0.961 . S
C1463 H1451 0.959 . S
C1463 C1461 1.561 . S
C1464 C1461 1.526 1_545 S
C1464 C1465 1.396 1_545 S
C1464 C1469 1.390 . S
C1465 C1459 1.465 . S
C1465 C1464 1.396 1_565 S
C1465 C1466 1.399 1_565 S
C1466 H1452 0.929 . S
C1466 C1465 1.399 1_545 S
C1466 C1467 1.385 . S
C1467 H1453 0.931 . S
C1467 C1466 1.385 . S
C1467 C1468 1.389 . S
C1468 C1467 1.389 . S
C1468 C1469 1.387 . S
C1469 H1454 0.930 . S
C1469 C1464 1.390 . S
C1469 C1468 1.387 . S
H1470 C1482 0.930 . S
H1471 C1484 0.930 . S
H1472 C1485 0.930 . S
H1473 C1489 0.959 . S
H1474 C1489 0.959 . S
H1475 C1489 0.961 . S
H1476 C1490 0.960 . S
H1477 C1490 0.961 . S
H1478 C1490 0.959 . S
H1479 C1493 0.929 . S
H1480 C1494 0.931 . S
H1481 C1496 0.930 . S
C1482 H1470 0.930 . S
C1482 C1483 1.399 . S
C1482 C1487 1.399 . S
C1483 C1482 1.399 . S
C1483 C1484 1.376 . S
C1484 H1471 0.930 . S
C1484 C1483 1.376 . S
C1484 C1485 1.388 . S
C1485 H1472 0.930 . S
C1485 C1484 1.388 . S
C1485 C1486 1.390 1_545 S
C1486 C1485 1.390 1_565 S
C1486 C1487 1.394 1_565 S
C1486 C1492 1.465 . S
C1487 C1482 1.399 . S
C1487 C1486 1.394 1_545 S
C1487 C1488 1.516 1_545 S
C1488 C1487 1.516 1_565 S
C1488 C1489 1.502 . S
C1488 C1490 1.561 . S
C1488 C1491 1.526 . S
C1489 H1473 0.959 . S
C1489 H1474 0.959 . S
C1489 H1475 0.961 . S
C1489 C1488 1.502 . S
C1490 H1476 0.960 . S
C1490 H1477 0.961 . S
C1490 H1478 0.959 . S
C1490 C1488 1.561 . S
C1491 C1488 1.526 . S
C1491 C1492 1.396 . S
C1491 C1496 1.390 . S
C1492 C1486 1.465 . S
C1492 C1491 1.396 . S
C1492 C1493 1.399 . S
C1493 H1479 0.929 . S
C1493 C1492 1.399 . S
C1493 C1494 1.385 . S
C1494 H1480 0.931 . S
C1494 C1493 1.385 . S
C1494 C1495 1.389 . S
C1495 C1494 1.389 . S
C1495 C1496 1.387 . S
C1496 H1481 0.930 . S
C1496 C1491 1.390 . S
C1496 C1495 1.387 . S
H1497 C1509 0.930 . S
H1498 C1511 0.930 . S
H1499 C1512 0.930 . S
H1500 C1516 0.959 . S
H1501 C1516 0.959 . S
H1502 C1516 0.961 . S
H1503 C1517 0.960 . S
H1504 C1517 0.961 . S
H1505 C1517 0.959 . S
H1506 C1520 0.929 . S
H1507 C1521 0.931 . S
H1508 C1523 0.930 . S
C1509 H1497 0.930 . S
C1509 C1510 1.399 . S
C1509 C1514 1.399 . S
C1510 C1509 1.399 . S
C1510 C1511 1.376 . S
C1511 H1498 0.930 . S
C1511 C1510 1.376 . S
C1511 C1512 1.388 . S
C1512 H1499 0.930 . S
C1512 C1511 1.388 . S
C1512 C1513 1.390 1_565 S
C1513 C1512 1.390 1_545 S
C1513 C1514 1.394 1_545 S
C1513 C1519 1.465 . S
C1514 C1509 1.399 . S
C1514 C1513 1.394 1_565 S
C1514 C1515 1.516 1_565 S
C1515 C1514 1.516 1_545 S
C1515 C1516 1.502 . S
C1515 C1517 1.561 . S
C1515 C1518 1.526 . S
C1516 H1500 0.959 . S
C1516 H1501 0.959 . S
C1516 H1502 0.961 . S
C1516 C1515 1.502 . S
C1517 H1503 0.960 . S
C1517 H1504 0.961 . S
C1517 H1505 0.959 . S
C1517 C1515 1.561 . S
C1518 C1515 1.526 . S
C1518 C1519 1.396 . S
C1518 C1523 1.390 . S
C1519 C1513 1.465 . S
C1519 C1518 1.396 . S
C1519 C1520 1.399 . S
C1520 H1506 0.929 . S
C1520 C1519 1.399 . S
C1520 C1521 1.385 . S
C1521 H1507 0.931 . S
C1521 C1520 1.385 . S
C1521 C1522 1.389 . S
C1522 C1521 1.389 . S
C1522 C1523 1.387 . S
C1523 H1508 0.930 . S
C1523 C1518 1.390 . S
C1523 C1522 1.387 . S
H1524 C1536 0.930 . S
H1525 C1538 0.930 . S
H1526 C1539 0.930 . S
H1527 C1543 0.959 . S
H1528 C1543 0.959 . S
H1529 C1543 0.961 . S
H1530 C1544 0.960 . S
H1531 C1544 0.961 . S
H1532 C1544 0.959 . S
H1533 C1547 0.929 . S
H1534 C1548 0.931 . S
H1535 C1550 0.930 . S
C1536 H1524 0.930 . S
C1536 C1537 1.399 . S
C1536 C1541 1.399 . S
C1537 C1536 1.399 . S
C1537 C1538 1.376 . S
C1538 H1525 0.930 . S
C1538 C1537 1.376 . S
C1538 C1539 1.388 . S
C1539 H1526 0.930 . S
C1539 C1538 1.388 . S
C1539 C1540 1.390 . S
C1540 C1539 1.390 . S
C1540 C1541 1.394 . S
C1540 C1546 1.465 . S
C1541 C1536 1.399 . S
C1541 C1540 1.394 . S
C1541 C1542 1.516 . S
C1542 C1541 1.516 . S
C1542 C1543 1.502 . S
C1542 C1544 1.561 . S
C1542 C1545 1.526 1_565 S
C1543 H1527 0.959 . S
C1543 H1528 0.959 . S
C1543 H1529 0.961 . S
C1543 C1542 1.502 . S
C1544 H1530 0.960 . S
C1544 H1531 0.961 . S
C1544 H1532 0.959 . S
C1544 C1542 1.561 . S
C1545 C1542 1.526 1_545 S
C1545 C1546 1.396 1_545 S
C1545 C1550 1.390 . S
C1546 C1540 1.465 . S
C1546 C1545 1.396 1_565 S
C1546 C1547 1.399 1_565 S
C1547 H1533 0.929 . S
C1547 C1546 1.399 1_545 S
C1547 C1548 1.385 . S
C1548 H1534 0.931 . S
C1548 C1547 1.385 . S
C1548 C1549 1.389 . S
C1549 C1548 1.389 . S
C1549 C1550 1.387 . S
C1550 H1535 0.930 . S
C1550 C1545 1.390 . S
C1550 C1549 1.387 . S
H1551 C1563 0.930 . S
H1552 C1565 0.930 . S
H1553 C1566 0.930 . S
H1554 C1570 0.959 . S
H1555 C1570 0.959 . S
H1556 C1570 0.961 . S
H1557 C1571 0.960 . S
H1558 C1571 0.961 . S
H1559 C1571 0.959 . S
H1560 C1574 0.929 . S
H1561 C1575 0.931 . S
H1562 C1577 0.930 . S
C1563 H1551 0.930 . S
C1563 C1564 1.399 . S
C1563 C1568 1.399 . S
C1564 C1563 1.399 . S
C1564 C1565 1.376 . S
C1565 H1552 0.930 . S
C1565 C1564 1.376 . S
C1565 C1566 1.388 . S
C1566 H1553 0.930 . S
C1566 C1565 1.388 . S
C1566 C1567 1.390 . S
C1567 C1566 1.390 . S
C1567 C1568 1.394 . S
C1567 C1573 1.465 . S
C1568 C1563 1.399 . S
C1568 C1567 1.394 . S
C1568 C1569 1.516 . S
C1569 C1568 1.516 . S
C1569 C1570 1.502 . S
C1569 C1571 1.561 . S
C1569 C1572 1.526 1_545 S
C1570 H1554 0.959 . S
C1570 H1555 0.959 . S
C1570 H1556 0.961 . S
C1570 C1569 1.502 . S
C1571 H1557 0.960 . S
C1571 H1558 0.961 . S
C1571 H1559 0.959 . S
C1571 C1569 1.561 . S
C1572 C1569 1.526 1_565 S
C1572 C1573 1.396 1_565 S
C1572 C1577 1.390 . S
C1573 C1567 1.465 . S
C1573 C1572 1.396 1_545 S
C1573 C1574 1.399 1_545 S
C1574 H1560 0.929 . S
C1574 C1573 1.399 1_565 S
C1574 C1575 1.385 . S
C1575 H1561 0.931 . S
C1575 C1574 1.385 . S
C1575 C1576 1.389 . S
C1576 C1575 1.389 . S
C1576 C1577 1.387 . S
C1577 H1562 0.930 . S
C1577 C1572 1.390 . S
C1577 C1576 1.387 . S
H1578 C1590 0.930 . S
H1579 C1592 0.930 . S
H1580 C1593 0.930 . S
H1581 C1597 0.959 . S
H1582 C1597 0.959 . S
H1583 C1597 0.961 . S
H1584 C1598 0.960 . S
H1585 C1598 0.961 . S
H1586 C1598 0.959 . S
H1587 C1601 0.929 . S
H1588 C1602 0.931 . S
H1589 C1604 0.930 . S
C1590 H1578 0.930 . S
C1590 C1591 1.399 . S
C1590 C1595 1.399 . S
C1591 C1590 1.399 . S
C1591 C1592 1.376 . S
C1592 H1579 0.930 . S
C1592 C1591 1.376 . S
C1592 C1593 1.388 . S
C1593 H1580 0.930 . S
C1593 C1592 1.388 . S
C1593 C1594 1.390 1_565 S
C1594 C1593 1.390 1_545 S
C1594 C1595 1.394 1_545 S
C1594 C1600 1.465 . S
C1595 C1590 1.399 . S
C1595 C1594 1.394 1_565 S
C1595 C1596 1.516 1_565 S
C1596 C1595 1.516 1_545 S
C1596 C1597 1.502 . S
C1596 C1598 1.561 . S
C1596 C1599 1.526 . S
C1597 H1581 0.959 . S
C1597 H1582 0.959 . S
C1597 H1583 0.961 . S
C1597 C1596 1.502 . S
C1598 H1584 0.960 . S
C1598 H1585 0.961 . S
C1598 H1586 0.959 . S
C1598 C1596 1.561 . S
C1599 C1596 1.526 . S
C1599 C1600 1.396 . S
C1599 C1604 1.390 . S
C1600 C1594 1.465 . S
C1600 C1599 1.396 . S
C1600 C1601 1.399 . S
C1601 H1587 0.929 . S
C1601 C1600 1.399 . S
C1601 C1602 1.385 . S
C1602 H1588 0.931 . S
C1602 C1601 1.385 . S
C1602 C1603 1.389 . S
C1603 C1602 1.389 . S
C1603 C1604 1.387 . S
C1604 H1589 0.930 . S
C1604 C1599 1.390 . S
C1604 C1603 1.387 . S
H1605 C1617 0.930 . S
H1606 C1619 0.930 . S
H1607 C1620 0.930 . S
H1608 C1624 0.959 . S
H1609 C1624 0.959 . S
H1610 C1624 0.961 . S
H1611 C1625 0.960 . S
H1612 C1625 0.961 . S
H1613 C1625 0.959 . S
H1614 C1628 0.929 . S
H1615 C1629 0.931 . S
H1616 C1631 0.930 . S
C1617 H1605 0.930 . S
C1617 C1618 1.399 . S
C1617 C1622 1.399 . S
C1618 C1617 1.399 . S
C1618 C1619 1.376 . S
C1619 H1606 0.930 . S
C1619 C1618 1.376 . S
C1619 C1620 1.388 . S
C1620 H1607 0.930 . S
C1620 C1619 1.388 . S
C1620 C1621 1.390 . S
C1621 C1620 1.390 . S
C1621 C1622 1.394 . S
C1621 C1627 1.465 . S
C1622 C1617 1.399 . S
C1622 C1621 1.394 . S
C1622 C1623 1.516 . S
C1623 C1622 1.516 . S
C1623 C1624 1.502 . S
C1623 C1625 1.561 . S
C1623 C1626 1.526 1_565 S
C1624 H1608 0.959 . S
C1624 H1609 0.959 . S
C1624 H1610 0.961 . S
C1624 C1623 1.502 . S
C1625 H1611 0.960 . S
C1625 H1612 0.961 . S
C1625 H1613 0.959 . S
C1625 C1623 1.561 . S
C1626 C1623 1.526 1_545 S
C1626 C1627 1.396 1_545 S
C1626 C1631 1.390 . S
C1627 C1621 1.465 . S
C1627 C1626 1.396 1_565 S
C1627 C1628 1.399 1_565 S
C1628 H1614 0.929 . S
C1628 C1627 1.399 1_545 S
C1628 C1629 1.385 . S
C1629 H1615 0.931 . S
C1629 C1628 1.385 . S
C1629 C1630 1.389 . S
C1630 C1629 1.389 . S
C1630 C1631 1.387 . S
C1631 H1616 0.930 . S
C1631 C1626 1.390 . S
C1631 C1630 1.387 . S
C349 C19 1.435 . S
C361 C209 1.380 . S
C376 C41 1.366 . S
C388 C187 1.345 . S
C403 C251 1.436 . S
C415 C61 1.389 . S
C430 C82 1.341 . S
C442 C229 1.403 . S
C457 C292 1.389 . S
C469 C103 1.426 . S
C484 C271 1.381 . S
C496 C124 1.430 . S
C511 C335 1.414 . S
C523 C145 1.406 . S
C538 C166 1.407 . S
C550 C313 1.341 . S
C565 C46 1.273 . S
C577 C4 1.354 . S
C592 C67 1.294 . S
C604 C28 1.222 . S
C619 C130 1.350 . S
C631 C88 1.227 . S
C646 C109 1.231 . S
C658 C151 1.301 . S
C673 C214 1.272 . S
C685 C172 1.353 . S
C700 C238 1.297 . S
C712 C196 1.221 . S
C727 C256 1.221 . S
C739 C298 1.324 . S
C754 C277 1.354 . S
C766 C322 1.233 . S
C781 C112 1.262 . S
C793 C7 1.283 . S
C808 C91 1.332 . S
C820 C25 1.313 . S
C835 C49 1.356 . S
C847 C154 1.344 . S
C862 C133 1.253 . S
C874 C70 1.273 . S
C889 C175 1.359 . S
C901 C280 1.349 . S
C916 C259 1.320 . S
C928 C193 1.300 . S
C943 C217 1.358 . S
C955 C319 1.347 . S
C970 C301 1.265 . S
C982 C235 1.285 . S
C997 C37 1.414 . S
C1009 C3 1.444 . S
C1024 C66 1.434 . S
C1036 C45 1.389 . S
C1051 C108 1.381 . S
C1063 C87 1.366 . S
C1078 C129 1.333 . S
C1090 C150 1.343 . S
C1105 C205 1.377 . S
C1117 C171 1.336 . S
C1132 C247 1.420 . S
C1144 C213 1.445 . S
C1159 C255 1.333 . S
C1171 C276 1.344 . S
C1186 C297 1.443 . S
C1198 C331 1.445 . S
C1213 C16 1.180 . S
C1225 C20 1.222 . S
C1240 C24 1.171 . S
C1252 C40 1.230 . S
C1267 C58 1.172 . S
C1279 C62 1.229 . S
C1294 C83 1.171 . S
C1306 C79 1.265 . S
C1321 C100 1.261 . S
C1333 C104 1.182 . S
C1348 C125 1.256 . S
C1360 C121 1.242 . S
C1375 C142 1.156 . S
C1387 C146 1.274 . S
C1402 C163 1.264 . S
C1414 C167 1.187 . S
C1429 C188 1.264 . S
C1441 C184 1.147 . S
C1456 C192 1.231 . S
C1468 C208 1.235 . S
C1483 C230 1.263 . S
C1495 C226 1.147 . S
C1510 C250 1.176 . S
C1522 C234 1.268 . S
C1537 C268 1.157 . S
C1549 C272 1.274 . S
C1564 C289 1.266 . S
C1576 C293 1.222 . S
C1591 C314 1.263 . S
C1603 C310 1.233 . S
C1618 C318 1.237 . S
C1630 C334 1.260 . S
