# Generated by pormake.
# Topology qtz-x, (6)-cn, num edge types: 1
# Building blocks:
#     Node 0, Type 0, BuildingBlock: KUMBOL_clean_sbu_1, # of connection points: 6
#     Node 1, Type 0, BuildingBlock: KUMBOL_clean_sbu_1, # of connection points: 6
#     Node 2, Type 0, BuildingBlock: KUMBOL_clean_sbu_1, # of connection points: 6
#     Edge 3, Type (0, 0), BuildingBlock: MIFKUJ_clean_linker_0, # of connection points: 2
#     Edge 4, Type (0, 0), BuildingBlock: MIFKUJ_clean_linker_0, # of connection points: 2
#     Edge 5, Type (0, 0), BuildingBlock: MIFKUJ_clean_linker_0, # of connection points: 2
#     Edge 6, Type (0, 0), BuildingBlock: MIFKUJ_clean_linker_0, # of connection points: 2
#     Edge 7, Type (0, 0), BuildingBlock: MIFKUJ_clean_linker_0, # of connection points: 2
#     Edge 8, Type (0, 0), BuildingBlock: MIFKUJ_clean_linker_0, # of connection points: 2
#     Edge 9, Type (0, 0), BuildingBlock: MIFKUJ_clean_linker_0, # of connection points: 2
#     Edge 10, Type (0, 0), BuildingBlock: MIFKUJ_clean_linker_0, # of connection points: 2
#     Edge 11, Type (0, 0), BuildingBlock: MIFKUJ_clean_linker_0, # of connection points: 2
# Relax obj value: 0.199
# Max RMSD: 0.275
# Mean RMSD: 0.275
data_MOF--net-qtz-x--node1-KUMBOL_clean_sbu_1--edge1-MIFKUJ_clean_linker_0
_symmetry_space_group_name_H-M    P1
_symmetry_Int_Tables_number       1
_symmetry_cell_setting            triclinic
loop_
_symmetry_equiv_pos_as_xyz
'x, y, z'
_cell_length_a     19.348458
_cell_length_b     19.329832
_cell_length_c     64.260187
_cell_angle_alpha  89.992966
_cell_angle_beta   90.060407
_cell_angle_gamma 120.10167
loop_
_atom_site_label
_atom_site_type_symbol
_atom_site_fract_x
_atom_site_fract_y
_atom_site_fract_z
_atom_type_partial_charge
C0 C 0.3298 0.53369 0.1572 0.0
C1 C 0.39484 0.66193 0.1395 0.0
C2 C 0.33206 0.60461 0.15189 0.0
C3 C 0.45436 0.64655 0.13231 0.0
C4 C 0.38965 0.51825 0.15009 0.0
C5 C 0.45178 0.57495 0.13759 0.0
N6 N 0.26809 0.47914 0.16896 0.0
C7 C 0.26376 0.40921 0.17472 0.0
C8 C 0.38491 0.44593 0.15565 0.0
C9 C 0.32183 0.39133 0.16809 0.0
Gd10 Gd 0.96449 0.42146 0.14649 0.0
Gd11 Gd 0.17264 0.51326 0.17884 0.0
N12 N 0.27251 0.61709 0.15872 0.0
C13 C 0.39614 0.73323 0.13478 0.0
C14 C 0.27613 0.68839 0.15512 0.0
C15 C 0.33703 0.74683 0.14283 0.0
H16 H 0.23361 0.70177 0.162 0.0
H17 H 0.33882 0.80274 0.13975 0.0
H18 H 0.91089 0.23212 0.16159 0.0
H19 H 0.21609 0.36773 0.1847 0.0
H20 H 0.81485 0.13018 0.18541 0.0
H21 H 0.4433 0.77874 0.1253 0.0
H22 H 0.50283 0.68979 0.1227 0.0
H23 H 0.91407 0.56252 0.14357 0.0
H24 H 0.42973 0.43182 0.15049 0.0
H25 H 0.31804 0.3356 0.17262 0.0
H26 H 0.65025 0.23581 0.20809 0.0
H27 H 0.49818 0.56402 0.13192 0.0
H28 H 0.70688 0.49063 0.18145 0.0
H29 H 0.8116 0.58957 0.15813 0.0
N30 N 0.86782 0.45025 0.15866 0.0
C31 C 0.81021 0.39443 0.17118 0.0
C32 C 0.86874 0.51937 0.15382 0.0
C33 C 0.75153 0.47846 0.17507 0.0
C34 C 0.81066 0.53457 0.16195 0.0
C35 C 0.75081 0.40741 0.17987 0.0
H36 H 0.64748 0.35885 0.20013 0.0
N37 N 0.87189 0.31538 0.16755 0.0
C38 C 0.81269 0.3254 0.1759 0.0
C39 C 0.75673 0.19702 0.19294 0.0
C40 C 0.75437 0.26701 0.18909 0.0
C41 C 0.87061 0.24466 0.17005 0.0
C42 C 0.81438 0.18536 0.18313 0.0
O43 O 0.17443 0.48605 0.14443 0.0
O44 O 0.07783 0.50679 0.12965 0.0
O45 O 0.91969 0.33181 0.12209 0.0
O46 O 0.89372 0.42832 0.12113 0.0
O47 O 0.1121 0.58754 0.17638 0.0
O48 O 0.04495 0.55481 0.14474 0.0
O49 O 0.96831 0.45948 0.17992 0.0
O50 O 0.05633 0.42757 0.19452 0.0
O51 O 0.21742 0.60413 0.20312 0.0
O52 O 0.23437 0.50213 0.20571 0.0
O53 O 0.02954 0.35143 0.14751 0.0
O54 O 0.0903 0.38041 0.17971 0.0
C55 C 0.1442 0.50413 0.1284 0.0
C56 C 0.07805 0.60324 0.16069 0.0
C57 C 0.79934 0.3051 0.10609 0.0
C58 C 0.7061 0.23332 0.07794 0.0
C59 C 0.6588 0.21661 0.1136 0.0
C60 C 0.73644 0.26965 0.12044 0.0
C61 C 0.64339 0.19887 0.09242 0.0
C62 C 0.78404 0.28624 0.08495 0.0
C63 C 0.88138 0.36202 0.11263 0.0
C64 C 0.69521 0.27985 0.19783 0.0
C65 C 0.69345 0.34982 0.19324 0.0
H66 H 0.71308 0.15075 0.20299 0.0
C67 C 0.99433 0.4375 0.19594 0.0
C68 C 0.06363 0.33531 0.16303 0.0
C69 C 0.32984 0.62103 0.22218 0.0
C70 C 0.41633 0.68422 0.25235 0.0
C71 C 0.47368 0.69502 0.21793 0.0
C72 C 0.39732 0.64949 0.20942 0.0
C73 C 0.48335 0.71205 0.23924 0.0
C74 C 0.33961 0.63925 0.2435 0.0
C75 C 0.24886 0.56962 0.21388 0.0
H76 H 0.61037 0.18969 0.12472 0.0
H77 H 0.74712 0.28315 0.13682 0.0
H78 H 0.58276 0.15838 0.08734 0.0
H79 H 0.83263 0.31457 0.07384 0.0
H80 H 0.52565 0.71646 0.20802 0.0
H81 H 0.3911 0.63604 0.19298 0.0
H82 H 0.54332 0.74584 0.24547 0.0
H83 H 0.28722 0.61847 0.25318 0.0
C84 C 0.42806 0.72926 0.49597 0.0
C85 C 0.5094 0.67789 0.48162 0.0
C86 C 0.50296 0.73802 0.49242 0.0
C87 C 0.44023 0.61045 0.47408 0.0
C88 C 0.35846 0.66141 0.48854 0.0
C89 C 0.36499 0.60218 0.47756 0.0
N90 N 0.42352 0.78858 0.50611 0.0
C91 C 0.35168 0.78347 0.50968 0.0
C92 C 0.28437 0.65558 0.49219 0.0
C93 C 0.28103 0.71676 0.50288 0.0
Gd94 Gd 0.6501 0.10132 0.48013 0.0
Gd95 Gd 0.54441 0.89839 0.51676 0.0
N96 N 0.56916 0.80465 0.49967 0.0
C97 C 0.5851 0.68659 0.47901 0.0
C98 C 0.64213 0.80986 0.49855 0.0
C99 C 0.65151 0.75218 0.48782 0.0
H100 H 0.69328 0.85641 0.50642 0.0
H101 H 0.70987 0.75765 0.48669 0.0
H102 H 0.52817 0.15689 0.50304 0.0
H103 H 0.34897 0.8306 0.51798 0.0
H104 H 0.5401 0.27101 0.5229 0.0
H105 H 0.59258 0.64181 0.4708 0.0
H106 H 0.44424 0.56396 0.46569 0.0
H107 H 0.83537 0.1509 0.4664 0.0
H108 H 0.2295 0.60423 0.4868 0.0
H109 H 0.2241 0.7125 0.5059 0.0
H110 H 0.82236 0.45549 0.52573 0.0
H111 H 0.3122 0.54969 0.47169 0.0
H112 H 0.99665 0.38158 0.49188 0.0
H113 H 0.97318 0.26227 0.47182 0.0
N114 N 0.78226 0.20521 0.48376 0.0
C115 C 0.79344 0.2706 0.49449 0.0
C116 C 0.84542 0.20184 0.47556 0.0
C117 C 0.93621 0.33255 0.48967 0.0
C118 C 0.92331 0.26522 0.47842 0.0
C119 C 0.87088 0.33605 0.4978 0.0
H120 H 0.93971 0.45338 0.51183 0.0
N121 N 0.65337 0.20622 0.49952 0.0
C122 C 0.72712 0.27151 0.50246 0.0
C123 C 0.66859 0.33755 0.52132 0.0
C124 C 0.73675 0.33836 0.51373 0.0
C125 C 0.58665 0.20635 0.50627 0.0
C126 C 0.59324 0.2716 0.51739 0.0
O127 O 0.50419 0.88485 0.48295 0.0
O128 O 0.62273 0.97941 0.46992 0.0
O129 O 0.58597 0.12701 0.45657 0.0
O130 O 0.70649 0.15196 0.45047 0.0
O131 O 0.67982 0.96933 0.51468 0.0
O132 O 0.70765 0.02499 0.48174 0.0
O133 O 0.68714 0.11895 0.51385 0.0
O134 O 0.57165 0.02012 0.52776 0.0
O135 O 0.59213 0.86898 0.54391 0.0
O136 O 0.46849 0.83751 0.54331 0.0
O137 O 0.51532 0.03782 0.48401 0.0
O138 O 0.48212 0.97031 0.51567 0.0
C139 C 0.54994 0.92101 0.4669 0.0
C140 C 0.72979 0.00566 0.49918 0.0
C141 C 0.66766 0.23762 0.43523 0.0
C142 C 0.71098 0.32665 0.40521 0.0
C143 C 0.69231 0.37305 0.4388 0.0
C144 C 0.67003 0.29862 0.44758 0.0
C145 C 0.7129 0.38727 0.41774 0.0
C146 C 0.68733 0.2516 0.41414 0.0
C147 C 0.64694 0.15952 0.44398 0.0
C148 C 0.81381 0.40373 0.51704 0.0
C149 C 0.88067 0.40255 0.50911 0.0
H150 H 0.67343 0.3878 0.53002 0.0
C151 C 0.64362 0.08106 0.52999 0.0
C152 C 0.46478 1.00029 0.49934 0.0
C153 C 0.53689 0.88186 0.57528 0.0
C154 C 0.57123 0.89149 0.61219 0.0
C155 C 0.5432 0.98905 0.59647 0.0
C156 C 0.52888 0.94986 0.57737 0.0
C157 C 0.56512 0.96071 0.61375 0.0
C158 C 0.55715 0.85221 0.59284 0.0
C159 C 0.52698 0.84394 0.5547 0.0
H160 H 0.69436 0.42009 0.44838 0.0
H161 H 0.65483 0.28887 0.46391 0.0
H162 H 0.73171 0.44599 0.41141 0.0
H163 H 0.68406 0.20356 0.40469 0.0
H164 H 0.53681 0.04132 0.59792 0.0
H165 H 0.51161 0.97284 0.56425 0.0
H166 H 0.57522 0.99166 0.62848 0.0
H167 H 0.56277 0.79936 0.59141 0.0
C168 C 0.61719 0.69261 0.82894 0.0
C169 C 0.48066 0.61873 0.81637 0.0
C170 C 0.54481 0.62111 0.82747 0.0
C171 C 0.49141 0.68761 0.8061 0.0
C172 C 0.62786 0.76212 0.8189 0.0
C173 C 0.5648 0.75904 0.80733 0.0
N174 N 0.67816 0.69349 0.83973 0.0
C175 C 0.74988 0.76223 0.84195 0.0
C176 C 0.70185 0.83263 0.82072 0.0
C177 C 0.76293 0.83276 0.83239 0.0
Gd178 Gd 0.72238 0.44751 0.81836 0.0
Gd179 Gd 0.65183 0.57247 0.85477 0.0
N180 N 0.53641 0.55483 0.83735 0.0
C181 C 0.40689 0.54774 0.81635 0.0
C182 C 0.4625 0.48806 0.83891 0.0
C183 C 0.39741 0.48271 0.82802 0.0
H184 H 0.45192 0.43929 0.84901 0.0
H185 H 0.33951 0.42891 0.82899 0.0
H186 H 0.89697 0.53301 0.84424 0.0
H187 H 0.79711 0.76207 0.85091 0.0
H188 H 0.97862 0.49093 0.86415 0.0
H189 H 0.35614 0.54356 0.80806 0.0
H190 H 0.44291 0.68655 0.79738 0.0
H191 H 0.56616 0.28057 0.80025 0.0
H192 H 0.71234 0.88729 0.81323 0.0
H193 H 0.82011 0.88708 0.83396 0.0
H194 H 0.82984 0.20404 0.86061 0.0
H195 H 0.57197 0.81174 0.79941 0.0
H196 H 0.58297 0.08068 0.82259 0.0
H197 H 0.51021 0.13427 0.80281 0.0
N198 N 0.66652 0.3085 0.81925 0.0
C199 C 0.70817 0.28052 0.82988 0.0
C200 C 0.59696 0.25736 0.80935 0.0
C201 C 0.60712 0.14473 0.82172 0.0
C202 C 0.56579 0.17472 0.81057 0.0
C203 C 0.67952 0.19777 0.83144 0.0
H204 H 0.70281 0.10735 0.844 0.0
N205 N 0.80461 0.41438 0.8378 0.0
C206 C 0.77972 0.33502 0.83929 0.0
C207 C 0.89659 0.36516 0.85961 0.0
C208 C 0.82459 0.30823 0.85044 0.0
C209 C 0.87583 0.47021 0.84617 0.0
C210 C 0.92251 0.44648 0.85735 0.0
O211 O 0.69556 0.61369 0.8218 0.0
O212 O 0.64402 0.49305 0.80594 0.0
O213 O 0.82383 0.49682 0.79718 0.0
O214 O 0.70883 0.39966 0.78728 0.0
O215 O 0.57301 0.43742 0.85345 0.0
O216 O 0.59232 0.41134 0.81978 0.0
O217 O 0.69857 0.40911 0.85211 0.0
O218 O 0.72392 0.52339 0.86974 0.0
O219 O 0.5718 0.54913 0.88101 0.0
O220 O 0.68591 0.65807 0.87998 0.0
O221 O 0.81214 0.57899 0.82414 0.0
O222 O 0.7832 0.61393 0.85623 0.0
C223 C 0.66832 0.5693 0.8051 0.0
C224 C 0.55189 0.38924 0.83726 0.0
C225 C 0.82094 0.40373 0.77256 0.0
C226 C 0.83811 0.34692 0.74032 0.0
C227 C 0.87024 0.31089 0.7739 0.0
C228 C 0.84808 0.36056 0.78409 0.0
C229 C 0.86388 0.30273 0.75225 0.0
C230 C 0.81934 0.3994 0.75085 0.0
C231 C 0.78378 0.44503 0.78261 0.0
C232 C 0.79624 0.22581 0.85207 0.0
C233 C 0.72388 0.17073 0.84262 0.0
H234 H 0.93287 0.34703 0.86831 0.0
C235 C 0.71176 0.45017 0.86939 0.0
C236 C 0.83195 0.62623 0.84058 0.0
C237 C 0.5816 0.6625 0.89785 0.0
C238 C 0.5159 0.68989 0.92661 0.0
C239 C 0.55079 0.76913 0.89479 0.0
C240 C 0.58253 0.72457 0.88633 0.0
C241 C 0.51828 0.75253 0.91481 0.0
C242 C 0.54741 0.64475 0.91778 0.0
C243 C 0.61873 0.61751 0.88985 0.0
H244 H 0.88991 0.27652 0.78288 0.0
H245 H 0.85047 0.36382 0.80086 0.0
H246 H 0.87714 0.26008 0.7451 0.0
H247 H 0.80091 0.43579 0.74237 0.0
H248 H 0.55237 0.8175 0.88592 0.0
H249 H 0.60865 0.73934 0.87096 0.0
H250 H 0.49635 0.78981 0.92113 0.0
H251 H 0.5456 0.59559 0.92636 0.0
H252 H 0.06864 0.68497 0.12734 0.0
H253 H 0.06767 0.81108 0.12775 0.0
H254 H 0.08558 0.81827 0.19472 0.0
H255 H 0.08716 0.69235 0.19446 0.0
H256 H 0.96489 0.84703 0.17818 0.0
H257 H 0.24414 0.93625 0.17027 0.0
H258 H 0.36123 0.93912 0.15424 0.0
H259 H 0.30797 0.01101 0.09598 0.0
H260 H 0.18994 0.0078 0.11163 0.0
H261 H 0.06719 0.24863 0.19597 0.0
H262 H 0.06886 0.12303 0.1949 0.0
H263 H 0.06446 0.12655 0.12778 0.0
H264 H 0.06308 0.25259 0.12873 0.0
H265 H 0.17763 0.09176 0.14392 0.0
H266 H 0.899 0.00198 0.15118 0.0
H267 H 0.77962 0.9966 0.16647 0.0
H268 H 0.82977 0.92457 0.22514 0.0
H269 H 0.94977 0.92981 0.21019 0.0
C270 C 0.07233 0.71346 0.14214 0.0
C271 C 0.07808 0.67924 0.16087 0.0
C272 C 0.07204 0.7854 0.14234 0.0
C273 C 0.0769 0.82365 0.16126 0.0
C274 C 0.08189 0.78931 0.18 0.0
C275 C 0.0832 0.71786 0.1798 0.0
C276 C 0.07627 0.89946 0.16146 0.0
C277 C 0.01186 0.90093 0.17096 0.0
C278 C 0.13665 0.96867 0.15152 0.0
C279 C 0.20771 0.97094 0.14206 0.0
C280 C 0.25696 0.95198 0.15399 0.0
C281 C 0.3236 0.95383 0.14498 0.0
C282 C 0.34185 0.9749 0.12408 0.0
C283 C 0.29366 0.99453 0.11216 0.0
C284 C 0.22696 0.99284 0.1211 0.0
C285 C 0.06692 0.22276 0.18099 0.0
C286 C 0.06518 0.26011 0.16242 0.0
C287 C 0.06743 0.15098 0.18041 0.0
C288 C 0.06625 0.11563 0.16126 0.0
C289 C 0.0653 0.15315 0.14269 0.0
C290 C 0.06414 0.22469 0.14326 0.0
C291 C 0.06635 0.03948 0.16071 0.0
C292 C 0.13062 0.03789 0.15114 0.0
C293 C 0.00566 0.97001 0.17051 0.0
C294 C 0.93379 0.96707 0.17962 0.0
C295 C 0.88494 0.98561 0.16739 0.0
C296 C 0.81702 0.98233 0.17598 0.0
C297 C 0.7973 0.96058 0.19679 0.0
C298 C 0.84522 0.94157 0.20903 0.0
C299 C 0.91307 0.94446 0.20049 0.0
H300 H 0.74479 0.95829 0.20343 0.0
H301 H 0.39345 0.97623 0.11713 0.0
H302 H 0.35871 0.95872 0.53145 0.0
H303 H 0.23615 0.96514 0.53231 0.0
H304 H 0.27878 0.05497 0.46939 0.0
H305 H 0.40173 0.04865 0.46829 0.0
H306 H 0.23533 0.13964 0.49501 0.0
H307 H 0.14052 0.86536 0.47772 0.0
H308 H 0.12281 0.73038 0.4812 0.0
H309 H 0.0185 0.70626 0.54162 0.0
H310 H 0.03607 0.84145 0.53854 0.0
H311 H 0.83191 0.02832 0.46716 0.0
H312 H 0.96364 0.04063 0.46943 0.0
H313 H 0.93727 0.00766 0.5359 0.0
H314 H 0.80716 0.99986 0.534 0.0
H315 H 0.97359 0.89873 0.51015 0.0
H316 H 0.06031 0.17288 0.5253 0.0
H317 H 0.07384 0.30535 0.5199 0.0
H318 H 0.19116 0.32823 0.46153 0.0
H319 H 0.1768 0.195 0.46635 0.0
C320 C 0.34186 0.97919 0.5177 0.0
C321 C 0.38971 0.00256 0.49972 0.0
C322 C 0.27183 0.98292 0.51825 0.0
C323 C 0.24836 0.00994 0.50086 0.0
C324 C 0.29615 0.03399 0.48296 0.0
C325 C 0.36617 0.03008 0.48236 0.0
C326 C 0.17381 0.01312 0.50141 0.0
C327 C 0.17792 0.08688 0.49809 0.0
C328 C 0.09946 0.94444 0.50587 0.0
C329 C 0.09041 0.86386 0.50799 0.0
C330 C 0.11454 0.8316 0.49183 0.0
C331 C 0.1042 0.75492 0.4937 0.0
C332 C 0.06967 0.70982 0.51164 0.0
C333 C 0.0453 0.74129 0.52774 0.0
C334 C 0.0553 0.81788 0.52593 0.0
C335 C 0.85509 0.02624 0.48235 0.0
C336 C 0.8099 0.01468 0.50045 0.0
C337 C 0.93 0.03272 0.48358 0.0
C338 C 0.95984 0.02583 0.50284 0.0
C339 C 0.91495 0.01374 0.52094 0.0
C340 C 0.84075 0.009 0.51979 0.0
C341 C 0.03525 0.02502 0.50374 0.0
C342 C 0.03117 0.95157 0.50724 0.0
C343 C 0.10928 0.0938 0.49925 0.0
C344 C 0.11666 0.17339 0.49609 0.0
C345 C 0.08801 0.20557 0.51117 0.0
C346 C 0.09616 0.28101 0.50826 0.0
C347 C 0.13346 0.32522 0.4904 0.0
C348 C 0.16237 0.29393 0.47537 0.0
C349 C 0.15421 0.21844 0.47818 0.0
H350 H 0.13985 0.38367 0.48819 0.0
H351 H 0.06173 0.65045 0.51305 0.0
H352 H 0.92572 0.71015 0.80774 0.0
H353 H 0.05325 0.8354 0.80881 0.0
H354 H 0.04728 0.82977 0.87599 0.0
H355 H 0.91776 0.70636 0.87492 0.0
H356 H 0.09055 0.97096 0.86483 0.0
H357 H 0.17773 0.78995 0.84573 0.0
H358 H 0.18169 0.68275 0.82593 0.0
H359 H 0.24388 0.82544 0.77047 0.0
H360 H 0.23913 0.9331 0.78986 0.0
H361 H 0.49254 0.29618 0.87182 0.0
H362 H 0.37623 0.16105 0.87391 0.0
H363 H 0.33473 0.16659 0.80813 0.0
H364 H 0.45054 0.30179 0.80597 0.0
H365 H 0.32293 0.02276 0.82112 0.0
H366 H 0.22363 0.19958 0.84245 0.0
H367 H 0.22977 0.30689 0.86455 0.0
H368 H 0.20133 0.16709 0.9192 0.0
H369 H 0.19594 0.05933 0.89741 0.0
C370 C 0.95213 0.73518 0.82273 0.0
C371 C 0.91203 0.69841 0.84125 0.0
C372 C 0.02528 0.8067 0.82335 0.0
C373 C 0.0609 0.84174 0.8425 0.0
C374 C 0.02124 0.80417 0.86101 0.0
C375 C 0.94732 0.73351 0.86039 0.0
C376 C 0.13745 0.91939 0.84318 0.0
C377 C 0.14165 0.98148 0.85552 0.0
C378 C 0.20448 0.93401 0.83098 0.0
C379 C 0.20737 0.86936 0.81922 0.0
C380 C 0.19163 0.79825 0.82927 0.0
C381 C 0.19412 0.73743 0.81813 0.0
C382 C 0.21286 0.74721 0.79695 0.0
C383 C 0.2293 0.81792 0.78687 0.0
C384 C 0.22679 0.8789 0.79794 0.0
C385 C 0.45818 0.26867 0.85785 0.0
C386 C 0.48047 0.30906 0.8387 0.0
C387 C 0.39212 0.19148 0.85905 0.0
C388 C 0.34689 0.15394 0.84118 0.0
C389 C 0.36919 0.19431 0.82206 0.0
C390 C 0.43512 0.27145 0.82086 0.0
C391 C 0.27474 0.07351 0.84243 0.0
C392 C 0.27163 0.01128 0.8305 0.0
C393 C 0.20942 0.05816 0.85532 0.0
C394 C 0.20971 0.12164 0.86832 0.0
C395 C 0.21878 0.19183 0.85918 0.0
C396 C 0.22217 0.25272 0.87165 0.0
C397 C 0.21596 0.24382 0.89327 0.0
C398 C 0.20605 0.17387 0.90245 0.0
C399 C 0.20267 0.11281 0.89005 0.0
H400 H 0.21877 0.2911 0.9029 0.0
H401 H 0.21479 0.70006 0.78835 0.0
H402 H 0.38927 0.70208 0.94169 0.0
H403 H 0.33593 0.67649 0.97702 0.0
H404 H 0.50769 0.60838 0.99546 0.0
H405 H 0.56496 0.63824 0.96053 0.0
H406 H 0.33935 0.49751 0.00687 0.0
H407 H 0.5451 0.77383 0.01169 0.0
H408 H 0.61815 0.91573 0.00132 0.0
H409 H 0.40657 0.93122 0.01053 0.0
H410 H 0.33184 0.78894 0.02066 0.0
H411 H 0.26167 0.47406 0.11555 0.0
H412 H 0.3323 0.51009 0.08222 0.0
H413 H 0.19601 0.61972 0.06274 0.0
H414 H 0.12642 0.58545 0.09611 0.0
H415 H 0.35314 0.71148 0.05241 0.0
H416 H 0.14452 0.43933 0.04494 0.0
H417 H 0.0648 0.29709 0.05467 0.0
H418 H 0.27293 0.27288 0.04937 0.0
H419 H 0.35413 0.41542 0.03983 0.0
C420 C 0.41693 0.68306 0.95326 0.0
C421 C 0.48183 0.67252 0.94809 0.0
C422 C 0.38583 0.66789 0.97344 0.0
C423 C 0.41809 0.64079 0.9888 0.0
C424 C 0.48189 0.62904 0.98375 0.0
C425 C 0.51406 0.64558 0.96368 0.0
C426 C 0.38438 0.62391 0.01009 0.0
C427 C 0.34348 0.54437 0.01699 0.0
C428 C 0.388 0.68497 0.02297 0.0
C429 C 0.4326 0.7704 0.01671 0.0
C430 C 0.51386 0.8072 0.01128 0.0
C431 C 0.55565 0.88779 0.0055 0.0
C432 C 0.51698 0.93243 0.00521 0.0
C433 C 0.43643 0.89655 0.01073 0.0
C434 C 0.39434 0.81594 0.0165 0.0
C435 C 0.2474 0.50661 0.10427 0.0
C436 C 0.18842 0.52683 0.10848 0.0
C437 C 0.28743 0.52671 0.08518 0.0
C438 C 0.26892 0.56705 0.06994 0.0
C439 C 0.21124 0.58866 0.07428 0.0
C440 C 0.17113 0.56847 0.09332 0.0
C441 C 0.30799 0.58498 0.04923 0.0
C442 C 0.34959 0.66466 0.04238 0.0
C443 C 0.30411 0.52395 0.03627 0.0
C444 C 0.25556 0.43821 0.0419 0.0
C445 C 0.17341 0.40382 0.04601 0.0
C446 C 0.12793 0.32313 0.05146 0.0
C447 C 0.16384 0.27603 0.05271 0.0
C448 C 0.24525 0.30949 0.04844 0.0
C449 C 0.29101 0.39021 0.04298 0.0
H450 H 0.12855 0.21356 0.05694 0.0
H451 H 0.54948 0.99487 0.00077 0.0
H452 H 0.67967 0.41245 0.37631 0.0
H453 H 0.71912 0.43395 0.33963 0.0
H454 H 0.83278 0.29213 0.34716 0.0
H455 H 0.79826 0.27477 0.38387 0.0
H456 H 0.92472 0.41765 0.32596 0.0
H457 H 0.64416 0.21984 0.32347 0.0
H458 H 0.50069 0.16609 0.33022 0.0
H459 H 0.50764 0.35993 0.29581 0.0
H460 H 0.65147 0.41538 0.28907 0.0
H461 H 0.98128 0.33061 0.22534 0.0
H462 H 0.91574 0.3066 0.2592 0.0
H463 H 0.84113 0.47733 0.24468 0.0
H464 H 0.90424 0.49939 0.21038 0.0
H465 H 0.72848 0.34874 0.26864 0.0
H466 H 0.01332 0.54076 0.27054 0.0
H467 H 0.14915 0.57513 0.25996 0.0
H468 H 0.12866 0.37665 0.29512 0.0
H469 H 0.9919 0.34028 0.3056 0.0
C470 C 0.71393 0.38673 0.37019 0.0
C471 C 0.73519 0.34129 0.383 0.0
C472 C 0.73552 0.3982 0.34916 0.0
C473 C 0.77781 0.36358 0.34056 0.0
C474 C 0.79983 0.31913 0.35341 0.0
C475 C 0.77923 0.30851 0.37438 0.0
C476 C 0.80107 0.37432 0.31832 0.0
C477 C 0.88147 0.40206 0.3135 0.0
C478 C 0.74516 0.35557 0.30197 0.0
C479 C 0.65874 0.32225 0.30598 0.0
C480 C 0.61522 0.25134 0.31749 0.0
C481 C 0.53383 0.2205 0.32129 0.0
C482 C 0.49514 0.25971 0.31351 0.0
C483 C 0.53772 0.32971 0.30186 0.0
C484 C 0.61916 0.36084 0.29803 0.0
C485 C 0.9503 0.36246 0.22931 0.0
C486 C 0.94939 0.4183 0.21555 0.0
C487 C 0.9125 0.34838 0.24856 0.0
C488 C 0.87539 0.39174 0.25461 0.0
C489 C 0.86992 0.44371 0.24035 0.0
C490 C 0.90647 0.45668 0.22087 0.0
C491 C 0.85119 0.38972 0.27654 0.0
C492 C 0.7713 0.36474 0.28122 0.0
C493 C 0.90714 0.41001 0.29288 0.0
C494 C 0.99238 0.43756 0.28872 0.0
C495 C 0.03813 0.50492 0.27615 0.0
C496 C 0.11515 0.52452 0.27011 0.0
C497 C 0.14731 0.4777 0.27676 0.0
C498 C 0.10346 0.4126 0.28993 0.0
C499 C 0.02626 0.39256 0.29596 0.0
H500 H 0.20578 0.49111 0.27154 0.0
H501 H 0.43211 0.23574 0.31647 0.0
H502 H 0.55527 0.49669 0.77511 0.0
H503 H 0.54364 0.55376 0.74229 0.0
H504 H 0.75601 0.77693 0.75752 0.0
H505 H 0.76417 0.72124 0.79105 0.0
H506 H 0.66046 0.81058 0.74099 0.0
H507 H 0.74561 0.62592 0.72038 0.0
H508 H 0.73966 0.49591 0.71809 0.0
H509 H 0.5094 0.39278 0.68877 0.0
H510 H 0.51362 0.52223 0.69111 0.0
H511 H 0.69669 0.96976 0.639 0.0
H512 H 0.72176 0.91842 0.67127 0.0
H513 H 0.50777 0.69102 0.6608 0.0
H514 H 0.48548 0.74115 0.628 0.0
H515 H 0.6135 0.66323 0.67455 0.0
H516 H 0.52874 0.85012 0.69719 0.0
H517 H 0.5359 0.98027 0.70128 0.0
H518 H 0.77208 0.08115 0.72695 0.0
H519 H 0.76645 0.95151 0.72284 0.0
C520 C 0.59944 0.55791 0.77139 0.0
C521 C 0.66114 0.60442 0.78544 0.0
C522 C 0.59322 0.59037 0.75253 0.0
C523 C 0.6504 0.66906 0.74698 0.0
C524 C 0.71139 0.71591 0.76127 0.0
C525 C 0.71622 0.68413 0.78041 0.0
C526 C 0.64546 0.70329 0.72659 0.0
C527 C 0.65158 0.77877 0.72642 0.0
C528 C 0.63219 0.6615 0.70752 0.0
C529 C 0.62968 0.58364 0.70609 0.0
C530 C 0.69349 0.5754 0.71357 0.0
C531 C 0.69039 0.50172 0.71224 0.0
C532 C 0.62397 0.43589 0.70335 0.0
C533 C 0.5607 0.44376 0.69569 0.0
C534 C 0.56346 0.51729 0.69699 0.0
C535 C 0.65554 0.90863 0.64358 0.0
C536 C 0.58924 0.85924 0.63105 0.0
C537 C 0.66936 0.87951 0.66213 0.0
C538 C 0.61568 0.80123 0.66885 0.0
C539 C 0.55014 0.75162 0.65607 0.0
C540 C 0.53739 0.78013 0.6373 0.0
C541 C 0.62751 0.77009 0.68899 0.0
C542 C 0.62287 0.69519 0.6891 0.0
C543 C 0.64292 0.81274 0.70799 0.0
C544 C 0.64739 0.89137 0.70954 0.0
C545 C 0.58248 0.90029 0.7035 0.0
C546 C 0.58624 0.97397 0.70589 0.0
C547 C 0.65444 0.039 0.71442 0.0
C548 C 0.7193 0.0307 0.72038 0.0
C549 C 0.71583 0.95717 0.71803 0.0
H550 H 0.65716 0.09583 0.71653 0.0
H551 H 0.62133 0.37876 0.70235 0.0
H552 H 0.672 0.29456 0.8765 0.0
H553 H 0.67038 0.23315 0.90993 0.0
H554 H 0.75578 0.4605 0.9405 0.0
H555 H 0.75918 0.52259 0.90727 0.0
H556 H 0.82945 0.38497 0.95536 0.0
H557 H 0.55927 0.32104 0.93912 0.0
H558 H 0.43571 0.2625 0.91818 0.0
H559 H 0.4104 0.02973 0.9244 0.0
H560 H 0.53468 0.08713 0.94505 0.0
H561 H 0.59584 0.24807 0.05507 0.0
H562 H 0.59076 0.25488 0.01714 0.0
H563 H 0.77627 0.19395 0.01198 0.0
H564 H 0.78307 0.18943 0.04999 0.0
H565 H 0.57007 0.16904 0.98246 0.0
H566 H 0.91066 0.31721 0.9766 0.0
H567 H 0.02976 0.3845 0.99923 0.0
H568 H 0.90743 0.46609 0.03918 0.0
H569 H 0.78818 0.40026 0.01665 0.0
C570 C 0.69162 0.33177 0.89029 0.0
C571 C 0.71566 0.41354 0.88922 0.0
C572 C 0.6902 0.29641 0.90938 0.0
C573 C 0.71233 0.34216 0.9277 0.0
C574 C 0.73861 0.42415 0.92654 0.0
C575 C 0.74012 0.45948 0.90752 0.0
C576 C 0.70522 0.30502 0.94832 0.0
C577 C 0.77296 0.33701 0.96117 0.0
C578 C 0.63131 0.24288 0.95595 0.0
C579 C 0.55684 0.20854 0.94342 0.0
C580 C 0.52782 0.2575 0.93585 0.0
C581 C 0.45758 0.22452 0.92405 0.0
C582 C 0.41529 0.14248 0.91995 0.0
C583 C 0.44328 0.09329 0.92757 0.0
C584 C 0.51364 0.12601 0.93931 0.0
C585 C 0.63389 0.23394 0.04581 0.0
C586 C 0.69074 0.21955 0.05536 0.0
C587 C 0.63086 0.23765 0.02415 0.0
C588 C 0.6843 0.22654 0.01177 0.0
C589 C 0.73556 0.20419 0.02127 0.0
C590 C 0.73946 0.20169 0.04293 0.0
C591 C 0.69404 0.24985 0.98953 0.0
C592 C 0.62696 0.21543 0.97641 0.0
C593 C 0.76814 0.31119 0.98175 0.0
C594 C 0.84033 0.35307 0.99507 0.0
C595 C 0.90942 0.34985 0.99016 0.0
C596 C 0.97689 0.38768 0.00297 0.0
C597 C 0.97607 0.42933 0.02066 0.0
C598 C 0.90794 0.43365 0.02551 0.0
C599 C 0.84042 0.39611 0.01272 0.0
H600 H 0.02826 0.45841 0.03058 0.0
H601 H 0.36063 0.11692 0.91096 0.0
H602 H 0.32872 0.58487 0.28436 0.0
H603 H 0.34057 0.61436 0.32156 0.0
H604 H 0.54181 0.84861 0.3097 0.0
H605 H 0.52733 0.82154 0.27227 0.0
H606 H 0.55904 0.7504 0.34342 0.0
H607 H 0.38234 0.84613 0.31889 0.0
H608 H 0.26128 0.82595 0.3007 0.0
H609 H 0.11455 0.63477 0.34255 0.0
H610 H 0.23496 0.65331 0.36086 0.0
H611 H 0.63267 0.98372 0.43116 0.0
H612 H 0.59814 0.92957 0.39615 0.0
H613 H 0.37741 0.73169 0.41875 0.0
H614 H 0.41126 0.7866 0.45419 0.0
H615 H 0.35763 0.79014 0.38111 0.0
H616 H 0.52258 0.69839 0.40848 0.0
H617 H 0.63724 0.70567 0.42719 0.0
H618 H 0.79727 0.86733 0.38109 0.0
H619 H 0.68365 0.86244 0.36231 0.0
C620 C 0.37433 0.6433 0.28953 0.0
C621 C 0.42607 0.70114 0.27516 0.0
C622 C 0.38164 0.65965 0.31086 0.0
C623 C 0.44186 0.73369 0.31832 0.0
C624 C 0.49503 0.79096 0.30419 0.0
C625 C 0.48685 0.77517 0.2828 0.0
C626 C 0.44896 0.75192 0.34086 0.0
C627 C 0.51555 0.75987 0.35165 0.0
C628 C 0.38996 0.76021 0.35174 0.0
C629 C 0.31762 0.75059 0.34111 0.0
C630 C 0.32428 0.79949 0.32414 0.0
C631 C 0.25579 0.78841 0.31382 0.0
C632 C 0.18027 0.72895 0.32043 0.0
C633 C 0.17309 0.68075 0.33744 0.0
C634 C 0.24142 0.6916 0.34781 0.0
C635 C 0.5766 0.9287 0.42881 0.0
C636 C 0.5253 0.88879 0.44558 0.0
C637 C 0.55701 0.89777 0.40872 0.0
C638 C 0.48591 0.82587 0.40488 0.0
C639 C 0.43286 0.78704 0.42141 0.0
C640 C 0.45246 0.81825 0.44165 0.0
C641 C 0.46944 0.79155 0.38357 0.0
C642 C 0.40094 0.78007 0.37299 0.0
C643 C 0.52573 0.77792 0.37298 0.0
C644 C 0.5945 0.7805 0.38404 0.0
C645 C 0.58226 0.73601 0.40239 0.0
C646 C 0.64708 0.73967 0.41302 0.0
C647 C 0.72451 0.78702 0.40535 0.0
C648 C 0.73723 0.83071 0.38702 0.0
C649 C 0.67261 0.82749 0.37636 0.0
H650 H 0.77464 0.78976 0.41359 0.0
H651 H 0.12733 0.72033 0.31239 0.0
H652 H 0.733 0.36721 0.71557 0.0
H653 H 0.71393 0.35052 0.67851 0.0
H654 H 0.88219 0.26631 0.67547 0.0
H655 H 0.91352 0.29776 0.71211 0.0
H656 H 0.89457 0.34296 0.64207 0.0
H657 H 0.65322 0.14092 0.68063 0.0
H658 H 0.54206 0.10893 0.70509 0.0
H659 H 0.46347 0.23747 0.6666 0.0
H660 H 0.57463 0.27159 0.64229 0.0
H661 H 0.76149 0.09175 0.55446 0.0
H662 H 0.79951 0.15306 0.58901 0.0
H663 H 0.62075 0.224 0.58441 0.0
H664 H 0.57891 0.15685 0.55058 0.0
H665 H 0.61274 0.16938 0.62018 0.0
H666 H 0.82739 0.36055 0.58008 0.0
H667 H 0.93607 0.41067 0.55428 0.0
H668 H 0.06294 0.32824 0.59227 0.0
H669 H 0.95443 0.27653 0.61821 0.0
C670 C 0.7693 0.34898 0.70712 0.0
C671 C 0.82572 0.33495 0.71729 0.0
C672 C 0.75608 0.33676 0.68579 0.0
C673 C 0.79385 0.30376 0.67423 0.0
C674 C 0.85123 0.29078 0.68408 0.0
C675 C 0.86797 0.30742 0.70526 0.0
C676 C 0.77175 0.27991 0.65215 0.0
C677 C 0.83301 0.30424 0.63733 0.0
C678 C 0.69106 0.23311 0.64559 0.0
C679 C 0.62239 0.20908 0.65979 0.0
C680 C 0.61205 0.16212 0.67746 0.0
C681 C 0.54927 0.14378 0.69127 0.0
C682 C 0.49583 0.17093 0.68736 0.0
C683 C 0.50484 0.21637 0.6696 0.0
C684 C 0.56769 0.23525 0.65583 0.0
C685 C 0.73082 0.12075 0.56094 0.0
C686 C 0.66792 0.12049 0.55014 0.0
C687 C 0.75288 0.15636 0.58052 0.0
C688 C 0.71411 0.19466 0.58916 0.0
C689 C 0.65173 0.19514 0.57805 0.0
C690 C 0.6281 0.15732 0.55876 0.0
C691 C 0.73568 0.23017 0.61026 0.0
C692 C 0.67438 0.20826 0.62485 0.0
C693 C 0.81594 0.28151 0.61636 0.0
C694 C 0.8824 0.31412 0.60105 0.0
C695 C 0.87826 0.35272 0.5829 0.0
C696 C 0.93984 0.38141 0.56824 0.0
C697 C 0.00625 0.37243 0.5716 0.0
C698 C 0.0114 0.33508 0.58968 0.0
C699 C 0.94992 0.30618 0.6044 0.0
H700 H 0.05379 0.39453 0.56021 0.0
H701 H 0.44745 0.15678 0.69809 0.0
loop_
_geom_bond_atom_site_label_1
_geom_bond_atom_site_label_2
_geom_bond_distance
_geom_bond_site_symmetry_2
_ccdc_geom_bond_type
C0 C2 1.422 . S
C0 C4 1.415 . S
C0 N6 1.369 . S
C1 C2 1.421 . S
C1 C3 1.417 . S
C1 C13 1.422 . S
C2 C0 1.422 . S
C2 C1 1.421 . S
C2 N12 1.359 . S
C3 C1 1.417 . S
C3 C5 1.329 . S
C3 H22 0.930 . S
C4 C0 1.415 . S
C4 C5 1.437 . S
C4 C8 1.413 . S
C5 C3 1.329 . S
C5 C4 1.437 . S
C5 H27 0.929 . S
N6 C0 1.369 . S
N6 C7 1.338 . S
N6 Gd11 2.622 . S
C7 N6 1.338 . S
C7 C9 1.378 . S
C7 H19 0.929 . S
C8 C4 1.413 . S
C8 C9 1.348 . S
C8 H24 0.931 . S
C9 C7 1.378 . S
C9 C8 1.348 . S
C9 H25 0.930 . S
Gd10 N30 2.622 . S
Gd10 N37 2.570 . S
Gd10 O44 2.353 1_655 S
Gd10 O45 2.468 . S
Gd10 O46 2.427 . S
Gd10 O48 2.388 . S
Gd10 O49 2.386 . S
Gd10 O53 2.307 . S
Gd10 C63 2.805 . S
Gd11 N6 2.622 . S
Gd11 N12 2.570 . S
Gd11 O43 2.386 . S
Gd11 O47 2.307 . S
Gd11 O50 2.353 1_455 S
Gd11 O51 2.468 . S
Gd11 O52 2.427 . S
Gd11 O54 2.388 . S
Gd11 C75 2.805 . S
N12 C2 1.359 . S
N12 Gd11 2.570 . S
N12 C14 1.343 . S
C13 C1 1.422 . S
C13 C15 1.321 . S
C13 H21 0.931 . S
C14 N12 1.343 . S
C14 C15 1.390 . S
C14 H16 0.931 . S
C15 C13 1.321 . S
C15 C14 1.390 . S
C15 H17 0.930 . S
H16 C14 0.931 . S
H17 C15 0.930 . S
H18 C41 0.931 . S
H19 C7 0.929 . S
H20 C42 0.930 . S
H21 C13 0.931 . S
H22 C3 0.930 . S
H23 C32 0.929 . S
H24 C8 0.931 . S
H25 C9 0.930 . S
H26 C64 0.930 . S
H27 C5 0.929 . S
H28 C33 0.931 . S
H29 C34 0.930 . S
N30 Gd10 2.622 . S
N30 C31 1.369 . S
N30 C32 1.338 . S
C31 N30 1.369 . S
C31 C35 1.415 . S
C31 C38 1.422 . S
C32 H23 0.929 . S
C32 N30 1.338 . S
C32 C34 1.378 . S
C33 H28 0.931 . S
C33 C34 1.348 . S
C33 C35 1.413 . S
C34 H29 0.930 . S
C34 C32 1.378 . S
C34 C33 1.348 . S
C35 C31 1.415 . S
C35 C33 1.413 . S
C35 C65 1.437 . S
H36 C65 0.929 . S
N37 Gd10 2.570 . S
N37 C38 1.359 . S
N37 C41 1.343 . S
C38 C31 1.422 . S
C38 N37 1.359 . S
C38 C40 1.421 . S
C39 C40 1.422 . S
C39 C42 1.321 . S
C39 H66 0.931 . S
C40 C38 1.421 . S
C40 C39 1.422 . S
C40 C64 1.417 . S
C41 H18 0.931 . S
C41 N37 1.343 . S
C41 C42 1.390 . S
C42 H20 0.930 . S
C42 C39 1.321 . S
C42 C41 1.390 . S
O43 Gd11 2.386 . S
O43 C55 1.265 . S
O44 Gd10 2.353 1_455 S
O44 C55 1.242 . S
O45 Gd10 2.468 . S
O45 C63 1.263 . S
O46 Gd10 2.427 . S
O46 C63 1.252 . S
O47 Gd11 2.307 . S
O47 C56 1.261 . S
O48 Gd10 2.388 . S
O48 C56 1.252 1_655 S
O49 Gd10 2.386 . S
O49 C67 1.265 . S
O50 Gd11 2.353 1_655 S
O50 C67 1.242 . S
O51 Gd11 2.468 . S
O51 C75 1.263 . S
O52 Gd11 2.427 . S
O52 C75 1.252 . S
O53 Gd10 2.307 . S
O53 C68 1.261 . S
O54 Gd11 2.388 . S
O54 C68 1.252 1_455 S
C55 O43 1.265 . S
C55 O44 1.242 . S
C56 O47 1.261 . S
C56 O48 1.252 1_455 S
C57 C60 1.394 . S
C57 C62 1.370 . S
C57 C63 1.500 . S
C58 C61 1.383 . S
C58 C62 1.395 . S
C59 C60 1.396 . S
C59 C61 1.365 . S
C59 H76 0.929 . S
C60 C57 1.394 . S
C60 C59 1.396 . S
C60 H77 0.930 . S
C61 C58 1.383 . S
C61 C59 1.365 . S
C61 H78 0.931 . S
C62 C57 1.370 . S
C62 C58 1.395 . S
C62 H79 0.930 . S
C63 Gd10 2.805 . S
C63 O45 1.263 . S
C63 O46 1.252 . S
C63 C57 1.500 . S
C64 H26 0.930 . S
C64 C40 1.417 . S
C64 C65 1.329 . S
C65 C35 1.437 . S
C65 H36 0.929 . S
C65 C64 1.329 . S
H66 C39 0.931 . S
C67 O49 1.265 . S
C67 O50 1.242 . S
C68 O53 1.261 . S
C68 O54 1.252 1_655 S
C69 C72 1.394 . S
C69 C74 1.370 . S
C69 C75 1.500 . S
C70 C73 1.383 . S
C70 C74 1.395 . S
C71 C72 1.396 . S
C71 C73 1.365 . S
C71 H80 0.929 . S
C72 C69 1.394 . S
C72 C71 1.396 . S
C72 H81 0.930 . S
C73 C70 1.383 . S
C73 C71 1.365 . S
C73 H82 0.931 . S
C74 C69 1.370 . S
C74 C70 1.395 . S
C74 H83 0.930 . S
C75 Gd11 2.805 . S
C75 O51 1.263 . S
C75 O52 1.252 . S
C75 C69 1.500 . S
H76 C59 0.929 . S
H77 C60 0.930 . S
H78 C61 0.931 . S
H79 C62 0.930 . S
H80 C71 0.929 . S
H81 C72 0.930 . S
H82 C73 0.931 . S
H83 C74 0.930 . S
C84 C86 1.422 . S
C84 C88 1.415 . S
C84 N90 1.369 . S
C85 C86 1.421 . S
C85 C87 1.417 . S
C85 C97 1.422 . S
C86 C84 1.422 . S
C86 C85 1.421 . S
C86 N96 1.359 . S
C87 C85 1.417 . S
C87 C89 1.329 . S
C87 H106 0.930 . S
C88 C84 1.415 . S
C88 C89 1.437 . S
C88 C92 1.413 . S
C89 C87 1.329 . S
C89 C88 1.437 . S
C89 H111 0.929 . S
N90 C84 1.369 . S
N90 C91 1.338 . S
N90 Gd95 2.622 1_565 S
C91 N90 1.338 . S
C91 C93 1.378 . S
C91 H103 0.929 . S
C92 C88 1.413 . S
C92 C93 1.348 . S
C92 H108 0.931 . S
C93 C91 1.378 . S
C93 C92 1.348 . S
C93 H109 0.930 . S
Gd94 N114 2.622 . S
Gd94 N121 2.570 . S
Gd94 O128 2.353 . S
Gd94 O129 2.468 . S
Gd94 O130 2.427 . S
Gd94 O132 2.388 . S
Gd94 O133 2.386 . S
Gd94 O137 2.307 . S
Gd94 C147 2.805 . S
Gd95 N90 2.622 1_545 S
Gd95 N96 2.570 1_545 S
Gd95 O127 2.386 . S
Gd95 O131 2.307 . S
Gd95 O134 2.353 . S
Gd95 O135 2.468 1_545 S
Gd95 O136 2.427 1_545 S
Gd95 O138 2.388 . S
Gd95 C159 2.805 1_545 S
N96 C86 1.359 . S
N96 Gd95 2.570 1_565 S
N96 C98 1.343 . S
C97 C85 1.422 . S
C97 C99 1.321 . S
C97 H105 0.931 . S
C98 N96 1.343 . S
C98 C99 1.390 . S
C98 H100 0.931 . S
C99 C97 1.321 . S
C99 C98 1.390 . S
C99 H101 0.930 . S
H100 C98 0.931 . S
H101 C99 0.930 . S
H102 C125 0.931 . S
H103 C91 0.929 . S
H104 C126 0.930 . S
H105 C97 0.931 . S
H106 C87 0.930 . S
H107 C116 0.929 . S
H108 C92 0.931 . S
H109 C93 0.930 . S
H110 C148 0.930 . S
H111 C89 0.929 . S
H112 C117 0.931 . S
H113 C118 0.930 . S
N114 Gd94 2.622 . S
N114 C115 1.369 . S
N114 C116 1.338 . S
C115 N114 1.369 . S
C115 C119 1.415 . S
C115 C122 1.422 . S
C116 H107 0.929 . S
C116 N114 1.338 . S
C116 C118 1.378 1_655 S
C117 H112 0.931 . S
C117 C118 1.348 . S
C117 C119 1.413 1_455 S
C118 H113 0.930 . S
C118 C116 1.378 1_455 S
C118 C117 1.348 . S
C119 C115 1.415 . S
C119 C117 1.413 1_655 S
C119 C149 1.437 . S
H120 C149 0.929 1_455 S
N121 Gd94 2.570 . S
N121 C122 1.359 . S
N121 C125 1.343 . S
C122 C115 1.422 . S
C122 N121 1.359 . S
C122 C124 1.421 . S
C123 C124 1.422 . S
C123 C126 1.321 . S
C123 H150 0.931 . S
C124 C122 1.421 . S
C124 C123 1.422 . S
C124 C148 1.417 . S
C125 H102 0.931 . S
C125 N121 1.343 . S
C125 C126 1.390 . S
C126 H104 0.930 . S
C126 C123 1.321 . S
C126 C125 1.390 . S
O127 Gd95 2.386 . S
O127 C139 1.265 . S
O128 Gd94 2.353 . S
O128 C139 1.242 . S
O129 Gd94 2.468 . S
O129 C147 1.263 . S
O130 Gd94 2.427 . S
O130 C147 1.252 . S
O131 Gd95 2.307 . S
O131 C140 1.261 . S
O132 Gd94 2.388 . S
O132 C140 1.252 . S
O133 Gd94 2.386 . S
O133 C151 1.265 . S
O134 Gd95 2.353 . S
O134 C151 1.242 . S
O135 Gd95 2.468 1_565 S
O135 C159 1.263 . S
O136 Gd95 2.427 1_565 S
O136 C159 1.252 . S
O137 Gd94 2.307 . S
O137 C152 1.261 . S
O138 Gd95 2.388 . S
O138 C152 1.252 . S
C139 O127 1.265 . S
C139 O128 1.242 . S
C140 O131 1.261 . S
C140 O132 1.252 . S
C141 C144 1.394 . S
C141 C146 1.370 . S
C141 C147 1.500 . S
C142 C145 1.383 . S
C142 C146 1.395 . S
C143 C144 1.396 . S
C143 C145 1.365 . S
C143 H160 0.929 . S
C144 C141 1.394 . S
C144 C143 1.396 . S
C144 H161 0.930 . S
C145 C142 1.383 . S
C145 C143 1.365 . S
C145 H162 0.931 . S
C146 C141 1.370 . S
C146 C142 1.395 . S
C146 H163 0.930 . S
C147 Gd94 2.805 . S
C147 O129 1.263 . S
C147 O130 1.252 . S
C147 C141 1.500 . S
C148 H110 0.930 . S
C148 C124 1.417 . S
C148 C149 1.329 . S
C149 C119 1.437 . S
C149 H120 0.929 1_655 S
C149 C148 1.329 . S
H150 C123 0.931 . S
C151 O133 1.265 . S
C151 O134 1.242 . S
C152 O137 1.261 . S
C152 O138 1.252 . S
C153 C156 1.394 . S
C153 C158 1.370 . S
C153 C159 1.500 . S
C154 C157 1.383 . S
C154 C158 1.395 . S
C155 C156 1.396 . S
C155 C157 1.365 . S
C155 H164 0.929 . S
C156 C153 1.394 . S
C156 C155 1.396 . S
C156 H165 0.930 . S
C157 C154 1.383 . S
C157 C155 1.365 . S
C157 H166 0.931 . S
C158 C153 1.370 . S
C158 C154 1.395 . S
C158 H167 0.930 . S
C159 Gd95 2.805 1_565 S
C159 O135 1.263 . S
C159 O136 1.252 . S
C159 C153 1.500 . S
H160 C143 0.929 . S
H161 C144 0.930 . S
H162 C145 0.931 . S
H163 C146 0.930 . S
H164 C155 0.929 . S
H165 C156 0.930 . S
H166 C157 0.931 . S
H167 C158 0.930 . S
C168 C170 1.422 . S
C168 C172 1.415 . S
C168 N174 1.369 . S
C169 C170 1.421 . S
C169 C171 1.417 . S
C169 C181 1.422 . S
C170 C168 1.422 . S
C170 C169 1.421 . S
C170 N180 1.359 . S
C171 C169 1.417 . S
C171 C173 1.329 . S
C171 H190 0.930 . S
C172 C168 1.415 . S
C172 C173 1.437 . S
C172 C176 1.413 . S
C173 C171 1.329 . S
C173 C172 1.437 . S
C173 H195 0.929 . S
N174 C168 1.369 . S
N174 C175 1.338 . S
N174 Gd179 2.622 . S
C175 N174 1.338 . S
C175 C177 1.378 . S
C175 H187 0.929 . S
C176 C172 1.413 . S
C176 C177 1.348 . S
C176 H192 0.931 . S
C177 C175 1.378 . S
C177 C176 1.348 . S
C177 H193 0.930 . S
Gd178 N198 2.622 . S
Gd178 N205 2.570 . S
Gd178 O212 2.353 . S
Gd178 O213 2.468 . S
Gd178 O214 2.427 . S
Gd178 O216 2.388 . S
Gd178 O217 2.386 . S
Gd178 O221 2.307 . S
Gd178 C231 2.805 . S
Gd179 N174 2.622 . S
Gd179 N180 2.570 . S
Gd179 O211 2.386 . S
Gd179 O215 2.307 . S
Gd179 O218 2.353 . S
Gd179 O219 2.468 . S
Gd179 O220 2.427 . S
Gd179 O222 2.388 . S
Gd179 C243 2.805 . S
N180 C170 1.359 . S
N180 Gd179 2.570 . S
N180 C182 1.343 . S
C181 C169 1.422 . S
C181 C183 1.321 . S
C181 H189 0.931 . S
C182 N180 1.343 . S
C182 C183 1.390 . S
C182 H184 0.931 . S
C183 C181 1.321 . S
C183 C182 1.390 . S
C183 H185 0.930 . S
H184 C182 0.931 . S
H185 C183 0.930 . S
H186 C209 0.931 . S
H187 C175 0.929 . S
H188 C210 0.930 1_455 S
H189 C181 0.931 . S
H190 C171 0.930 . S
H191 C200 0.929 . S
H192 C176 0.931 . S
H193 C177 0.930 . S
H194 C232 0.930 . S
H195 C173 0.929 . S
H196 C201 0.931 . S
H197 C202 0.930 . S
N198 Gd178 2.622 . S
N198 C199 1.369 . S
N198 C200 1.338 . S
C199 N198 1.369 . S
C199 C203 1.415 . S
C199 C206 1.422 . S
C200 H191 0.929 . S
C200 N198 1.338 . S
C200 C202 1.378 . S
C201 H196 0.931 . S
C201 C202 1.348 . S
C201 C203 1.413 . S
C202 H197 0.930 . S
C202 C200 1.378 . S
C202 C201 1.348 . S
C203 C199 1.415 . S
C203 C201 1.413 . S
C203 C233 1.437 . S
H204 C233 0.929 . S
N205 Gd178 2.570 . S
N205 C206 1.359 . S
N205 C209 1.343 . S
C206 C199 1.422 . S
C206 N205 1.359 . S
C206 C208 1.421 . S
C207 C208 1.422 . S
C207 C210 1.321 . S
C207 H234 0.930 . S
C208 C206 1.421 . S
C208 C207 1.422 . S
C208 C232 1.417 . S
C209 H186 0.931 . S
C209 N205 1.343 . S
C209 C210 1.390 . S
C210 H188 0.930 1_655 S
C210 C207 1.321 . S
C210 C209 1.390 . S
O211 Gd179 2.386 . S
O211 C223 1.265 . S
O212 Gd178 2.353 . S
O212 C223 1.242 . S
O213 Gd178 2.468 . S
O213 C231 1.263 . S
O214 Gd178 2.427 . S
O214 C231 1.252 . S
O215 Gd179 2.307 . S
O215 C224 1.261 . S
O216 Gd178 2.388 . S
O216 C224 1.252 . S
O217 Gd178 2.386 . S
O217 C235 1.265 . S
O218 Gd179 2.353 . S
O218 C235 1.242 . S
O219 Gd179 2.468 . S
O219 C243 1.263 . S
O220 Gd179 2.427 . S
O220 C243 1.252 . S
O221 Gd178 2.307 . S
O221 C236 1.261 . S
O222 Gd179 2.388 . S
O222 C236 1.252 . S
C223 O211 1.265 . S
C223 O212 1.242 . S
C224 O215 1.261 . S
C224 O216 1.252 . S
C225 C228 1.394 . S
C225 C230 1.370 . S
C225 C231 1.500 . S
C226 C229 1.383 . S
C226 C230 1.395 . S
C227 C228 1.396 . S
C227 C229 1.365 . S
C227 H244 0.929 . S
C228 C225 1.394 . S
C228 C227 1.396 . S
C228 H245 0.930 . S
C229 C226 1.383 . S
C229 C227 1.365 . S
C229 H246 0.931 . S
C230 C225 1.370 . S
C230 C226 1.395 . S
C230 H247 0.930 . S
C231 Gd178 2.805 . S
C231 O213 1.263 . S
C231 O214 1.252 . S
C231 C225 1.500 . S
C232 H194 0.930 . S
C232 C208 1.417 . S
C232 C233 1.329 . S
C233 C203 1.437 . S
C233 H204 0.929 . S
C233 C232 1.329 . S
H234 C207 0.930 . S
C235 O217 1.265 . S
C235 O218 1.242 . S
C236 O221 1.261 . S
C236 O222 1.252 . S
C237 C240 1.394 . S
C237 C242 1.370 . S
C237 C243 1.500 . S
C238 C241 1.383 . S
C238 C242 1.395 . S
C239 C240 1.396 . S
C239 C241 1.365 . S
C239 H248 0.929 . S
C240 C237 1.394 . S
C240 C239 1.396 . S
C240 H249 0.930 . S
C241 C238 1.383 . S
C241 C239 1.365 . S
C241 H250 0.931 . S
C242 C237 1.370 . S
C242 C238 1.395 . S
C242 H251 0.930 . S
C243 Gd179 2.805 . S
C243 O219 1.263 . S
C243 O220 1.252 . S
C243 C237 1.500 . S
H244 C227 0.929 . S
H245 C228 0.930 . S
H246 C229 0.931 . S
H247 C230 0.930 . S
H248 C239 0.929 . S
H249 C240 0.930 . S
H250 C241 0.931 . S
H251 C242 0.930 . S
H252 C270 0.951 . S
H253 C272 0.951 . S
H254 C274 0.950 . S
H255 C275 0.950 . S
H256 C277 0.950 . S
H257 C280 0.950 . S
H258 C281 0.950 . S
H259 C283 0.950 . S
H260 C284 0.950 . S
H261 C285 0.951 . S
H262 C287 0.951 . S
H263 C289 0.950 . S
H264 C290 0.950 . S
H265 C292 0.950 . S
H266 C295 0.950 . S
H267 C296 0.950 . S
H268 C298 0.950 . S
H269 C299 0.950 . S
C270 H252 0.951 . S
C270 C271 1.366 . S
C270 C272 1.388 . S
C271 C270 1.366 . S
C271 C275 1.385 1_455 S
C272 H253 0.951 . S
C272 C270 1.388 . S
C272 C273 1.366 . S
C273 C272 1.366 . S
C273 C274 1.414 1_455 S
C273 C276 1.499 . S
C274 H254 0.950 . S
C274 C273 1.414 1_655 S
C274 C275 1.374 . S
C275 H255 0.950 . S
C275 C271 1.385 1_655 S
C275 C274 1.374 . S
C276 C273 1.499 . S
C276 C277 1.373 1_455 S
C276 C278 1.389 . S
C277 H256 0.950 . S
C277 C276 1.373 1_655 S
C277 C293 1.377 . S
C278 C276 1.389 . S
C278 C279 1.524 . S
C278 C292 1.377 1_565 S
C279 C278 1.524 . S
C279 C280 1.397 . S
C279 C284 1.363 1_565 S
C280 H257 0.950 . S
C280 C279 1.397 . S
C280 C281 1.334 . S
C281 H258 0.950 . S
C281 C280 1.334 . S
C281 C282 1.287 . S
C282 C281 1.287 . S
C282 C283 1.524 1_565 S
C282 H301 0.913 . S
C283 H259 0.950 . S
C283 C282 1.524 1_545 S
C283 C284 1.415 . S
C284 H260 0.950 . S
C284 C279 1.363 1_545 S
C284 C283 1.415 . S
C285 H261 0.951 . S
C285 C286 1.366 . S
C285 C287 1.388 . S
C286 C285 1.366 . S
C286 C290 1.385 1_655 S
C287 H262 0.951 . S
C287 C285 1.388 . S
C287 C288 1.366 . S
C288 C287 1.366 . S
C288 C289 1.414 1_655 S
C288 C291 1.499 . S
C289 H263 0.950 . S
C289 C288 1.414 1_455 S
C289 C290 1.374 . S
C290 H264 0.950 . S
C290 C286 1.385 1_455 S
C290 C289 1.374 . S
C291 C288 1.499 . S
C291 C292 1.373 1_655 S
C291 C293 1.389 1_545 S
C292 H265 0.950 . S
C292 C278 1.377 1_545 S
C292 C291 1.373 1_455 S
C293 C277 1.377 . S
C293 C291 1.389 1_565 S
C293 C294 1.524 . S
C294 C293 1.524 . S
C294 C295 1.397 . S
C294 C299 1.363 . S
C295 H266 0.950 . S
C295 C294 1.397 . S
C295 C296 1.334 . S
C296 H267 0.950 . S
C296 C295 1.334 . S
C296 C297 1.287 . S
C297 C296 1.287 . S
C297 C298 1.524 . S
C297 H300 0.999 . S
C298 H268 0.950 . S
C298 C297 1.524 . S
C298 C299 1.415 . S
C299 H269 0.950 . S
C299 C294 1.363 . S
C299 C298 1.415 . S
H300 C297 0.999 . S
H301 C282 0.913 . S
H302 C320 0.951 . S
H303 C322 0.951 . S
H304 C324 0.950 . S
H305 C325 0.950 . S
H306 C327 0.950 . S
H307 C330 0.950 . S
H308 C331 0.950 . S
H309 C333 0.950 . S
H310 C334 0.950 . S
H311 C335 0.951 . S
H312 C337 0.949 1_455 S
H313 C339 0.952 . S
H314 C340 0.950 . S
H315 C342 0.950 . S
H316 C345 0.950 . S
H317 C346 0.950 . S
H318 C348 0.950 . S
H319 C349 0.950 . S
C320 H302 0.951 . S
C320 C321 1.366 . S
C320 C322 1.388 . S
C321 C320 1.366 . S
C321 C325 1.385 . S
C322 H303 0.951 . S
C322 C320 1.388 . S
C322 C323 1.366 . S
C323 C322 1.366 . S
C323 C324 1.414 . S
C323 C326 1.499 . S
C324 H304 0.950 . S
C324 C323 1.414 . S
C324 C325 1.374 . S
C325 H305 0.950 . S
C325 C321 1.385 . S
C325 C324 1.374 . S
C326 C323 1.499 . S
C326 C327 1.373 . S
C326 C328 1.389 . S
C327 H306 0.950 . S
C327 C326 1.373 . S
C327 C343 1.377 . S
C328 C326 1.389 . S
C328 C329 1.524 1_545 S
C328 C342 1.377 . S
C329 C328 1.524 1_565 S
C329 C330 1.397 . S
C329 C334 1.363 . S
C330 H307 0.950 . S
C330 C329 1.397 . S
C330 C331 1.334 . S
C331 H308 0.950 . S
C331 C330 1.334 . S
C331 C332 1.287 . S
C332 C331 1.287 . S
C332 C333 1.524 . S
C332 H351 0.913 . S
C333 H309 0.950 . S
C333 C332 1.524 . S
C333 C334 1.415 . S
C334 H310 0.950 . S
C334 C329 1.363 . S
C334 C333 1.415 . S
C335 H311 0.951 . S
C335 C336 1.366 . S
C335 C337 1.392 . S
C336 C335 1.366 . S
C336 C340 1.385 . S
C337 H312 0.949 1_655 S
C337 C335 1.392 . S
C337 C338 1.363 1_655 S
C338 C337 1.363 1_455 S
C338 C339 1.414 1_455 S
C338 C341 1.499 . S
C339 H313 0.952 . S
C339 C338 1.414 1_655 S
C339 C340 1.374 . S
C340 H314 0.950 . S
C340 C336 1.385 . S
C340 C339 1.374 . S
C341 C338 1.499 . S
C341 C342 1.373 . S
C341 C343 1.389 . S
C342 H315 0.950 . S
C342 C328 1.377 . S
C342 C341 1.373 . S
C343 C327 1.377 . S
C343 C341 1.389 . S
C343 C344 1.524 . S
C344 C343 1.524 . S
C344 C345 1.397 . S
C344 C349 1.363 . S
C345 H316 0.950 . S
C345 C344 1.397 . S
C345 C346 1.334 . S
C346 H317 0.950 . S
C346 C345 1.334 . S
C346 C347 1.287 . S
C347 C346 1.287 . S
C347 C348 1.524 . S
C347 H350 0.999 . S
C348 H318 0.950 . S
C348 C347 1.524 . S
C348 C349 1.415 . S
C349 H319 0.950 . S
C349 C344 1.363 . S
C349 C348 1.415 . S
H350 C347 0.999 . S
H351 C332 0.913 . S
H352 C370 0.951 . S
H353 C372 0.951 . S
H354 C374 0.950 . S
H355 C375 0.950 . S
H356 C377 0.950 . S
H357 C380 0.950 . S
H358 C381 0.950 . S
H359 C383 0.950 . S
H360 C384 0.950 . S
H361 C385 0.951 . S
H362 C387 0.951 . S
H363 C389 0.950 . S
H364 C390 0.950 . S
H365 C392 0.950 1_545 S
H366 C395 0.950 . S
H367 C396 0.950 . S
H368 C398 0.950 . S
H369 C399 0.950 . S
C370 H352 0.951 . S
C370 C371 1.366 . S
C370 C372 1.388 . S
C371 C370 1.366 . S
C371 C375 1.385 . S
C372 H353 0.951 . S
C372 C370 1.388 . S
C372 C373 1.366 1_655 S
C373 C372 1.366 1_455 S
C373 C374 1.414 . S
C373 C376 1.499 . S
C374 H354 0.950 . S
C374 C373 1.414 . S
C374 C375 1.374 1_455 S
C375 H355 0.950 . S
C375 C371 1.385 . S
C375 C374 1.374 1_655 S
C376 C373 1.499 . S
C376 C377 1.373 . S
C376 C378 1.389 . S
C377 H356 0.950 . S
C377 C376 1.373 . S
C377 C393 1.377 . S
C378 C376 1.389 . S
C378 C379 1.524 . S
C378 C392 1.377 . S
C379 C378 1.524 . S
C379 C380 1.397 . S
C379 C384 1.363 . S
C380 H357 0.950 . S
C380 C379 1.397 . S
C380 C381 1.334 . S
C381 H358 0.950 . S
C381 C380 1.334 . S
C381 C382 1.287 . S
C382 C381 1.287 . S
C382 C383 1.524 . S
C382 H401 0.913 . S
C383 H359 0.950 . S
C383 C382 1.524 . S
C383 C384 1.415 . S
C384 H360 0.950 . S
C384 C379 1.363 . S
C384 C383 1.415 . S
C385 H361 0.951 . S
C385 C386 1.366 . S
C385 C387 1.388 . S
C386 C385 1.366 . S
C386 C390 1.385 . S
C387 H362 0.951 . S
C387 C385 1.388 . S
C387 C388 1.366 . S
C388 C387 1.366 . S
C388 C389 1.414 . S
C388 C391 1.499 . S
C389 H363 0.950 . S
C389 C388 1.414 . S
C389 C390 1.374 . S
C390 H364 0.950 . S
C390 C386 1.385 . S
C390 C389 1.374 . S
C391 C388 1.499 . S
C391 C392 1.373 1_545 S
C391 C393 1.389 1_545 S
C392 H365 0.950 1_565 S
C392 C378 1.377 . S
C392 C391 1.373 1_565 S
C393 C377 1.377 . S
C393 C391 1.389 1_565 S
C393 C394 1.524 . S
C394 C393 1.524 . S
C394 C395 1.397 1_565 S
C394 C399 1.363 . S
C395 H366 0.950 . S
C395 C394 1.397 1_545 S
C395 C396 1.334 . S
C396 H367 0.950 . S
C396 C395 1.334 . S
C396 C397 1.287 . S
C397 C396 1.287 . S
C397 C398 1.524 1_545 S
C397 H400 0.999 . S
C398 H368 0.950 . S
C398 C397 1.524 1_565 S
C398 C399 1.415 . S
C399 H369 0.950 . S
C399 C394 1.363 . S
C399 C398 1.415 . S
H400 C397 0.999 . S
H401 C382 0.913 . S
H402 C420 0.951 . S
H403 C422 0.951 . S
H404 C424 0.950 1_554 S
H405 C425 0.950 . S
H406 C427 0.950 . S
H407 C430 0.950 . S
H408 C431 0.950 . S
H409 C433 0.943 1_556 S
H410 C434 0.950 . S
H411 C435 0.951 . S
H412 C437 0.951 . S
H413 C439 0.950 . S
H414 C440 0.950 . S
H415 C442 0.950 . S
H416 C445 0.950 . S
H417 C446 0.950 1_655 S
H418 C448 0.950 . S
H419 C449 0.950 . S
C420 H402 0.951 . S
C420 C421 1.366 . S
C420 C422 1.388 . S
C421 C420 1.366 . S
C421 C425 1.385 . S
C422 H403 0.951 . S
C422 C420 1.388 . S
C422 C423 1.366 . S
C423 C422 1.366 . S
C423 C424 1.414 . S
C423 C426 1.499 1_556 S
C424 H404 0.950 1_556 S
C424 C423 1.414 . S
C424 C425 1.374 . S
C425 H405 0.950 . S
C425 C421 1.385 . S
C425 C424 1.374 . S
C426 C423 1.499 1_554 S
C426 C427 1.373 . S
C426 C428 1.389 . S
C427 H406 0.950 . S
C427 C426 1.373 . S
C427 C443 1.377 . S
C428 C426 1.389 . S
C428 C429 1.524 . S
C428 C442 1.377 . S
C429 C428 1.524 . S
C429 C430 1.397 . S
C429 C434 1.363 . S
C430 H407 0.950 . S
C430 C429 1.397 . S
C430 C431 1.334 . S
C431 H408 0.950 . S
C431 C430 1.334 . S
C431 C432 1.287 . S
C432 C431 1.287 . S
C432 C433 1.524 . S
C432 H451 0.913 1_554 S
C433 H409 0.943 1_554 S
C433 C432 1.524 . S
C433 C434 1.415 . S
C434 H410 0.950 . S
C434 C429 1.363 . S
C434 C433 1.415 . S
C435 H411 0.951 . S
C435 C436 1.366 . S
C435 C437 1.388 . S
C436 C435 1.366 . S
C436 C440 1.385 . S
C437 H412 0.951 . S
C437 C435 1.388 . S
C437 C438 1.366 . S
C438 C437 1.366 . S
C438 C439 1.414 . S
C438 C441 1.499 . S
C439 H413 0.950 . S
C439 C438 1.414 . S
C439 C440 1.374 . S
C440 H414 0.950 . S
C440 C436 1.385 . S
C440 C439 1.374 . S
C441 C438 1.499 . S
C441 C442 1.373 . S
C441 C443 1.389 . S
C442 H415 0.950 . S
C442 C428 1.377 . S
C442 C441 1.373 . S
C443 C427 1.377 . S
C443 C441 1.389 . S
C443 C444 1.524 . S
C444 C443 1.524 . S
C444 C445 1.397 . S
C444 C449 1.363 . S
C445 H416 0.950 . S
C445 C444 1.397 . S
C445 C446 1.334 . S
C446 H417 0.950 1_455 S
C446 C445 1.334 . S
C446 C447 1.287 . S
C447 C446 1.287 . S
C447 C448 1.524 . S
C447 H450 0.999 1_455 S
C448 H418 0.950 . S
C448 C447 1.524 . S
C448 C449 1.415 . S
C449 H419 0.950 . S
C449 C444 1.363 . S
C449 C448 1.415 . S
H450 C447 0.999 1_655 S
H451 C432 0.913 1_556 S
H452 C470 0.951 . S
H453 C472 0.951 . S
H454 C474 0.950 . S
H455 C475 0.950 . S
H456 C477 0.950 . S
H457 C480 0.950 . S
H458 C481 0.950 . S
H459 C483 0.950 . S
H460 C484 0.950 . S
H461 C485 0.951 . S
H462 C487 0.951 . S
H463 C489 0.950 . S
H464 C490 0.950 . S
H465 C492 0.950 . S
H466 C495 0.950 . S
H467 C496 0.950 . S
H468 C498 0.950 . S
H469 C499 0.950 . S
C470 H452 0.951 . S
C470 C471 1.366 . S
C470 C472 1.388 . S
C471 C470 1.366 . S
C471 C475 1.385 . S
C472 H453 0.951 . S
C472 C470 1.388 . S
C472 C473 1.366 . S
C473 C472 1.366 . S
C473 C474 1.414 . S
C473 C476 1.499 . S
C474 H454 0.950 . S
C474 C473 1.414 . S
C474 C475 1.374 . S
C475 H455 0.950 . S
C475 C471 1.385 . S
C475 C474 1.374 . S
C476 C473 1.499 . S
C476 C477 1.373 . S
C476 C478 1.389 . S
C477 H456 0.950 . S
C477 C476 1.373 . S
C477 C493 1.377 . S
C478 C476 1.389 . S
C478 C479 1.524 . S
C478 C492 1.377 . S
C479 C478 1.524 . S
C479 C480 1.397 . S
C479 C484 1.363 . S
C480 H457 0.950 . S
C480 C479 1.397 . S
C480 C481 1.334 . S
C481 H458 0.950 . S
C481 C480 1.334 . S
C481 C482 1.287 . S
C482 C481 1.287 . S
C482 C483 1.524 . S
C482 H501 0.913 . S
C483 H459 0.950 . S
C483 C482 1.524 . S
C483 C484 1.415 . S
C484 H460 0.950 . S
C484 C479 1.363 . S
C484 C483 1.415 . S
C485 H461 0.951 . S
C485 C486 1.366 . S
C485 C487 1.388 . S
C486 C485 1.366 . S
C486 C490 1.385 . S
C487 H462 0.951 . S
C487 C485 1.388 . S
C487 C488 1.366 . S
C488 C487 1.366 . S
C488 C489 1.414 . S
C488 C491 1.499 . S
C489 H463 0.950 . S
C489 C488 1.414 . S
C489 C490 1.374 . S
C490 H464 0.950 . S
C490 C486 1.385 . S
C490 C489 1.374 . S
C491 C488 1.499 . S
C491 C492 1.373 . S
C491 C493 1.389 . S
C492 H465 0.950 . S
C492 C478 1.377 . S
C492 C491 1.373 . S
C493 C477 1.377 . S
C493 C491 1.389 . S
C493 C494 1.524 . S
C494 C493 1.524 . S
C494 C495 1.397 . S
C494 C499 1.363 . S
C495 H466 0.950 . S
C495 C494 1.397 . S
C495 C496 1.334 1_655 S
C496 H467 0.950 . S
C496 C495 1.334 1_455 S
C496 C497 1.287 . S
C497 C496 1.287 . S
C497 C498 1.524 1_455 S
C497 H500 0.999 . S
C498 H468 0.950 . S
C498 C497 1.524 1_655 S
C498 C499 1.415 . S
C499 H469 0.950 . S
C499 C494 1.363 . S
C499 C498 1.415 . S
H500 C497 0.999 . S
H501 C482 0.913 . S
H502 C520 0.951 . S
H503 C522 0.951 . S
H504 C524 0.950 . S
H505 C525 0.950 . S
H506 C527 0.950 . S
H507 C530 0.950 . S
H508 C531 0.950 . S
H509 C533 0.950 . S
H510 C534 0.950 . S
H511 C535 0.951 . S
H512 C537 0.951 . S
H513 C539 0.950 . S
H514 C540 0.950 . S
H515 C542 0.950 . S
H516 C545 0.950 . S
H517 C546 0.950 . S
H518 C548 0.950 1_545 S
H519 C549 0.950 . S
C520 H502 0.951 . S
C520 C521 1.366 . S
C520 C522 1.388 . S
C521 C520 1.366 . S
C521 C525 1.385 . S
C522 H503 0.951 . S
C522 C520 1.388 . S
C522 C523 1.366 . S
C523 C522 1.366 . S
C523 C524 1.414 . S
C523 C526 1.499 . S
C524 H504 0.950 . S
C524 C523 1.414 . S
C524 C525 1.374 . S
C525 H505 0.950 . S
C525 C521 1.385 . S
C525 C524 1.374 . S
C526 C523 1.499 . S
C526 C527 1.373 . S
C526 C528 1.389 . S
C527 H506 0.950 . S
C527 C526 1.373 . S
C527 C543 1.377 . S
C528 C526 1.389 . S
C528 C529 1.524 . S
C528 C542 1.377 . S
C529 C528 1.524 . S
C529 C530 1.397 . S
C529 C534 1.363 . S
C530 H507 0.950 . S
C530 C529 1.397 . S
C530 C531 1.334 . S
C531 H508 0.950 . S
C531 C530 1.334 . S
C531 C532 1.287 . S
C532 C531 1.287 . S
C532 C533 1.524 . S
C532 H551 0.913 . S
C533 H509 0.950 . S
C533 C532 1.524 . S
C533 C534 1.415 . S
C534 H510 0.950 . S
C534 C529 1.363 . S
C534 C533 1.415 . S
C535 H511 0.951 . S
C535 C536 1.366 . S
C535 C537 1.388 . S
C536 C535 1.366 . S
C536 C540 1.385 . S
C537 H512 0.951 . S
C537 C535 1.388 . S
C537 C538 1.366 . S
C538 C537 1.366 . S
C538 C539 1.414 . S
C538 C541 1.499 . S
C539 H513 0.950 . S
C539 C538 1.414 . S
C539 C540 1.374 . S
C540 H514 0.950 . S
C540 C536 1.385 . S
C540 C539 1.374 . S
C541 C538 1.499 . S
C541 C542 1.373 . S
C541 C543 1.389 . S
C542 H515 0.950 . S
C542 C528 1.377 . S
C542 C541 1.373 . S
C543 C527 1.377 . S
C543 C541 1.389 . S
C543 C544 1.524 . S
C544 C543 1.524 . S
C544 C545 1.397 . S
C544 C549 1.363 . S
C545 H516 0.950 . S
C545 C544 1.397 . S
C545 C546 1.334 . S
C546 H517 0.950 . S
C546 C545 1.334 . S
C546 C547 1.287 . S
C547 C546 1.287 . S
C547 C548 1.524 . S
C547 H550 0.999 1_565 S
C548 H518 0.950 1_565 S
C548 C547 1.524 . S
C548 C549 1.415 . S
C549 H519 0.950 . S
C549 C544 1.363 . S
C549 C548 1.415 . S
H550 C547 0.999 1_545 S
H551 C532 0.913 . S
H552 C570 0.951 . S
H553 C572 0.951 . S
H554 C574 0.950 . S
H555 C575 0.950 . S
H556 C577 0.950 . S
H557 C580 0.950 . S
H558 C581 0.950 . S
H559 C583 0.950 1_565 S
H560 C584 0.950 . S
H561 C585 0.951 . S
H562 C587 0.951 . S
H563 C589 0.950 . S
H564 C590 0.950 . S
H565 C592 0.950 . S
H566 C595 0.950 . S
H567 C596 0.950 . S
H568 C598 0.950 . S
H569 C599 0.969 . S
C570 H552 0.951 . S
C570 C571 1.366 . S
C570 C572 1.388 . S
C571 C570 1.366 . S
C571 C575 1.385 . S
C572 H553 0.951 . S
C572 C570 1.388 . S
C572 C573 1.366 . S
C573 C572 1.366 . S
C573 C574 1.414 . S
C573 C576 1.499 . S
C574 H554 0.950 . S
C574 C573 1.414 . S
C574 C575 1.374 . S
C575 H555 0.950 . S
C575 C571 1.385 . S
C575 C574 1.374 . S
C576 C573 1.499 . S
C576 C577 1.373 . S
C576 C578 1.389 . S
C577 H556 0.950 . S
C577 C576 1.373 . S
C577 C593 1.377 . S
C578 C576 1.389 . S
C578 C579 1.524 . S
C578 C592 1.377 . S
C579 C578 1.524 . S
C579 C580 1.397 . S
C579 C584 1.363 . S
C580 H557 0.950 . S
C580 C579 1.397 . S
C580 C581 1.334 . S
C581 H558 0.950 . S
C581 C580 1.334 . S
C581 C582 1.287 . S
C582 C581 1.287 . S
C582 C583 1.524 . S
C582 H601 0.913 . S
C583 H559 0.950 1_545 S
C583 C582 1.524 . S
C583 C584 1.415 . S
C584 H560 0.950 . S
C584 C579 1.363 . S
C584 C583 1.415 . S
C585 H561 0.951 . S
C585 C586 1.366 . S
C585 C587 1.388 . S
C586 C585 1.366 . S
C586 C590 1.385 . S
C587 H562 0.951 . S
C587 C585 1.388 . S
C587 C588 1.366 . S
C588 C587 1.366 . S
C588 C589 1.414 . S
C588 C591 1.499 1_554 S
C589 H563 0.950 . S
C589 C588 1.414 . S
C589 C590 1.374 . S
C590 H564 0.950 . S
C590 C586 1.385 . S
C590 C589 1.374 . S
C591 C588 1.499 1_556 S
C591 C592 1.373 . S
C591 C593 1.389 . S
C592 H565 0.950 . S
C592 C578 1.377 . S
C592 C591 1.373 . S
C593 C577 1.377 . S
C593 C591 1.389 . S
C593 C594 1.524 . S
C594 C593 1.524 . S
C594 C595 1.397 1_556 S
C594 C599 1.366 . S
C595 H566 0.950 . S
C595 C594 1.397 1_554 S
C595 C596 1.334 . S
C596 H567 0.950 . S
C596 C595 1.334 . S
C596 C597 1.287 . S
C597 C596 1.287 . S
C597 C598 1.524 . S
C597 H600 0.999 . S
C598 H568 0.950 . S
C598 C597 1.524 . S
C598 C599 1.394 1_554 S
C599 H569 0.969 . S
C599 C594 1.366 . S
C599 C598 1.394 1_556 S
H600 C597 0.999 . S
H601 C582 0.913 . S
H602 C620 0.951 . S
H603 C622 0.951 . S
H604 C624 0.950 . S
H605 C625 0.950 . S
H606 C627 0.950 . S
H607 C630 0.950 . S
H608 C631 0.950 1_545 S
H609 C633 0.950 . S
H610 C634 0.950 . S
H611 C635 0.951 . S
H612 C637 0.951 . S
H613 C639 0.950 . S
H614 C640 0.950 . S
H615 C642 0.950 . S
H616 C645 0.950 . S
H617 C646 0.950 . S
H618 C648 0.950 . S
H619 C649 0.950 . S
C620 H602 0.951 . S
C620 C621 1.366 . S
C620 C622 1.388 . S
C621 C620 1.366 . S
C621 C625 1.385 . S
C622 H603 0.951 . S
C622 C620 1.388 . S
C622 C623 1.366 . S
C623 C622 1.366 . S
C623 C624 1.414 . S
C623 C626 1.499 . S
C624 H604 0.950 . S
C624 C623 1.414 . S
C624 C625 1.374 . S
C625 H605 0.950 . S
C625 C621 1.385 . S
C625 C624 1.374 . S
C626 C623 1.499 . S
C626 C627 1.373 . S
C626 C628 1.389 . S
C627 H606 0.950 . S
C627 C626 1.373 . S
C627 C643 1.377 . S
C628 C626 1.389 . S
C628 C629 1.524 . S
C628 C642 1.377 . S
C629 C628 1.524 . S
C629 C630 1.397 . S
C629 C634 1.363 . S
C630 H607 0.950 . S
C630 C629 1.397 . S
C630 C631 1.334 . S
C631 H608 0.950 1_565 S
C631 C630 1.334 . S
C631 C632 1.287 1_565 S
C632 C631 1.287 1_545 S
C632 C633 1.524 1_545 S
C632 H651 0.913 . S
C633 H609 0.950 . S
C633 C632 1.524 1_565 S
C633 C634 1.415 . S
C634 H610 0.950 . S
C634 C629 1.363 . S
C634 C633 1.415 . S
C635 H611 0.951 . S
C635 C636 1.366 . S
C635 C637 1.388 . S
C636 C635 1.366 . S
C636 C640 1.385 . S
C637 H612 0.951 . S
C637 C635 1.388 . S
C637 C638 1.366 . S
C638 C637 1.366 . S
C638 C639 1.414 . S
C638 C641 1.499 . S
C639 H613 0.950 . S
C639 C638 1.414 . S
C639 C640 1.374 . S
C640 H614 0.950 . S
C640 C636 1.385 . S
C640 C639 1.374 . S
C641 C638 1.499 . S
C641 C642 1.373 . S
C641 C643 1.389 . S
C642 H615 0.950 . S
C642 C628 1.377 . S
C642 C641 1.373 . S
C643 C627 1.377 . S
C643 C641 1.389 . S
C643 C644 1.524 . S
C644 C643 1.524 . S
C644 C645 1.397 . S
C644 C649 1.363 . S
C645 H616 0.950 . S
C645 C644 1.397 . S
C645 C646 1.334 . S
C646 H617 0.950 . S
C646 C645 1.334 . S
C646 C647 1.287 . S
C647 C646 1.287 . S
C647 C648 1.524 . S
C647 H650 0.999 . S
C648 H618 0.950 . S
C648 C647 1.524 . S
C648 C649 1.415 . S
C649 H619 0.950 . S
C649 C644 1.363 . S
C649 C648 1.415 . S
H650 C647 0.999 . S
H651 C632 0.913 . S
H652 C670 0.951 . S
H653 C672 0.951 . S
H654 C674 0.950 . S
H655 C675 0.950 . S
H656 C677 0.950 . S
H657 C680 0.950 . S
H658 C681 0.950 . S
H659 C683 0.950 . S
H660 C684 0.950 . S
H661 C685 0.951 . S
H662 C687 0.951 . S
H663 C689 0.950 . S
H664 C690 0.950 . S
H665 C692 0.950 . S
H666 C695 0.950 . S
H667 C696 0.950 . S
H668 C698 0.950 . S
H669 C699 0.950 . S
C670 H652 0.951 . S
C670 C671 1.366 . S
C670 C672 1.388 . S
C671 C670 1.366 . S
C671 C675 1.385 . S
C672 H653 0.951 . S
C672 C670 1.388 . S
C672 C673 1.366 . S
C673 C672 1.366 . S
C673 C674 1.414 . S
C673 C676 1.499 . S
C674 H654 0.950 . S
C674 C673 1.414 . S
C674 C675 1.374 . S
C675 H655 0.950 . S
C675 C671 1.385 . S
C675 C674 1.374 . S
C676 C673 1.499 . S
C676 C677 1.373 . S
C676 C678 1.389 . S
C677 H656 0.950 . S
C677 C676 1.373 . S
C677 C693 1.377 . S
C678 C676 1.389 . S
C678 C679 1.524 . S
C678 C692 1.377 . S
C679 C678 1.524 . S
C679 C680 1.397 . S
C679 C684 1.363 . S
C680 H657 0.950 . S
C680 C679 1.397 . S
C680 C681 1.334 . S
C681 H658 0.950 . S
C681 C680 1.334 . S
C681 C682 1.287 . S
C682 C681 1.287 . S
C682 C683 1.524 . S
C682 H701 0.913 . S
C683 H659 0.950 . S
C683 C682 1.524 . S
C683 C684 1.415 . S
C684 H660 0.950 . S
C684 C679 1.363 . S
C684 C683 1.415 . S
C685 H661 0.951 . S
C685 C686 1.366 . S
C685 C687 1.388 . S
C686 C685 1.366 . S
C686 C690 1.385 . S
C687 H662 0.951 . S
C687 C685 1.388 . S
C687 C688 1.366 . S
C688 C687 1.366 . S
C688 C689 1.414 . S
C688 C691 1.499 . S
C689 H663 0.950 . S
C689 C688 1.414 . S
C689 C690 1.374 . S
C690 H664 0.950 . S
C690 C686 1.385 . S
C690 C689 1.374 . S
C691 C688 1.499 . S
C691 C692 1.373 . S
C691 C693 1.389 . S
C692 H665 0.950 . S
C692 C678 1.377 . S
C692 C691 1.373 . S
C693 C677 1.377 . S
C693 C691 1.389 . S
C693 C694 1.524 . S
C694 C693 1.524 . S
C694 C695 1.397 . S
C694 C699 1.363 1_655 S
C695 H666 0.950 . S
C695 C694 1.397 . S
C695 C696 1.334 1_655 S
C696 H667 0.950 . S
C696 C695 1.334 1_455 S
C696 C697 1.287 . S
C697 C696 1.287 . S
C697 C698 1.524 . S
C697 H700 0.999 . S
C698 H668 0.950 . S
C698 C697 1.524 . S
C698 C699 1.415 . S
C699 H669 0.950 . S
C699 C694 1.363 1_455 S
C699 C698 1.415 . S
H700 C697 0.999 . S
H701 C682 0.913 . S
C271 C56 1.419 . S
C286 C68 1.419 . S
C321 C152 1.419 . S
C336 C140 1.419 . S
C371 C236 1.419 . S
C386 C224 1.419 . S
C421 C238 1.533 . S
C436 C55 1.668 . S
C471 C142 0.850 . S
C486 C67 1.081 . S
C521 C223 1.667 . S
C536 C154 1.533 . S
C571 C235 1.081 . S
C586 C58 0.854 . S
C621 C70 1.531 . S
C636 C139 1.667 1_565 S
C671 C226 0.854 . S
C686 C151 1.080 . S
