# Generated by pormake.
# Topology sxb, (6)-cn, num edge types: 1
# Building blocks:
#     Node 0, Type 0, BuildingBlock: BETFEN_clean_sbu_0, # of connection points: 6
#     Node 1, Type 0, BuildingBlock: BETFEN_clean_sbu_0, # of connection points: 6
#     Node 2, Type 0, BuildingBlock: BETFEN_clean_sbu_0, # of connection points: 6
#     Node 3, Type 0, BuildingBlock: BETFEN_clean_sbu_0, # of connection points: 6
#     Edge 4, Type (0, 0), BuildingBlock: TEMPAE_clean_linker_10, # of connection points: 2
#     Edge 5, Type (0, 0), BuildingBlock: TEMPAE_clean_linker_10, # of connection points: 2
#     Edge 6, Type (0, 0), BuildingBlock: TEMPAE_clean_linker_10, # of connection points: 2
#     Edge 7, Type (0, 0), BuildingBlock: TEMPAE_clean_linker_10, # of connection points: 2
#     Edge 8, Type (0, 0), BuildingBlock: TEMPAE_clean_linker_10, # of connection points: 2
#     Edge 9, Type (0, 0), BuildingBlock: TEMPAE_clean_linker_10, # of connection points: 2
#     Edge 10, Type (0, 0), BuildingBlock: TEMPAE_clean_linker_10, # of connection points: 2
#     Edge 11, Type (0, 0), BuildingBlock: TEMPAE_clean_linker_10, # of connection points: 2
#     Edge 12, Type (0, 0), BuildingBlock: TEMPAE_clean_linker_10, # of connection points: 2
#     Edge 13, Type (0, 0), BuildingBlock: TEMPAE_clean_linker_10, # of connection points: 2
#     Edge 14, Type (0, 0), BuildingBlock: TEMPAE_clean_linker_10, # of connection points: 2
#     Edge 15, Type (0, 0), BuildingBlock: TEMPAE_clean_linker_10, # of connection points: 2
# Relax obj value: 0.417
# Max RMSD: 0.124
# Mean RMSD: 0.081
data_MOF--net-sxb--node1-BETFEN_clean_sbu_0--edge1-TEMPAE_clean_linker_10
_symmetry_space_group_name_H-M    P1
_symmetry_Int_Tables_number       1
_symmetry_cell_setting            triclinic
loop_
_symmetry_equiv_pos_as_xyz
'x, y, z'
_cell_length_a     18.864838
_cell_length_b     36.472128
_cell_length_c     31.40912
_cell_angle_alpha  92.52879
_cell_angle_beta   94.902305
_cell_angle_gamma 71.832734
loop_
_atom_site_label
_atom_site_type_symbol
_atom_site_fract_x
_atom_site_fract_y
_atom_site_fract_z
_atom_type_partial_charge
Pr0 Pr 1.01079 1.0199 0.94912 0.0
Pr1 Pr 0.12585 1.0336 0.96603 0.0
C2 C 0.88037 1.00944 0.96112 0.0
C3 C 0.83833 1.02273 -0.0008 0.0
C4 C 0.82554 0.99538 0.02504 0.0
C5 C 0.79778 1.00619 0.06501 0.0
C6 C 0.78157 0.04465 0.07967 0.0
C7 C 0.79468 0.07203 0.054 0.0
C8 C 0.82348 0.06111 0.01427 0.0
C9 C 0.06759 1.01461 0.86769 0.0
C10 C 0.9756 0.11861 0.95336 0.0
C11 C 0.24493 0.05692 -0.00999 0.0
C12 C 0.29017 0.0502 0.03102 0.0
C13 C 0.30728 0.08109 0.05272 0.0
C14 C 0.34549 0.0759 0.09315 0.0
C15 C 0.36804 0.03953 0.11241 0.0
C16 C 0.34651 1.00927 0.09173 0.0
C17 C 0.30775 1.01459 0.05142 0.0
C18 C 0.08045 1.01488 0.04401 0.0
C19 C 0.16251 0.93555 0.95401 0.0
O20 O 0.94424 0.98279 0.96918 0.0
O21 O 0.88483 1.03586 0.93548 0.0
O22 O 0.07124 0.04032 0.89574 0.0
O23 O 1.03816 0.99054 0.88225 0.0
O24 O 1.04942 0.10399 0.96341 0.0
O25 O 0.94367 0.0909 0.94411 0.0
O26 O 0.2494 1.02712 0.96448 0.0
O27 O 0.17656 0.07886 -0.00679 0.0
O28 O 1.04186 0.03964 0.01765 0.0
O29 O 0.14092 0.9949 0.02728 0.0
O30 O 0.08829 0.94996 0.95639 0.0
O31 O 0.1941 0.96362 0.95267 0.0
H32 H 0.83835 0.96546 0.0146 0.0
H33 H 0.78618 0.98477 0.08375 0.0
H34 H 0.78129 0.10197 0.0644 0.0
H35 H 0.8348 0.08267 -0.00434 0.0
H36 H 0.29174 0.10917 0.03818 0.0
H37 H 0.36156 0.09978 0.10801 0.0
H38 H 0.36291 0.98099 0.10583 0.0
H39 H 0.29249 0.99068 0.03601 0.0
Pr40 Pr 0.09688 0.99228 0.45618 0.0
Pr41 Pr 1.04542 0.06151 0.45671 0.0
C42 C 0.13156 0.91651 0.47209 0.0
C43 C 0.09103 0.89497 0.49285 0.0
C44 C 0.09719 0.85711 0.47953 0.0
C45 C 1.04944 0.83876 0.49413 0.0
C46 C 0.99491 0.85817 0.5222 0.0
C47 C 0.99209 0.89531 0.53744 0.0
C48 C 1.0396 0.91368 0.52271 0.0
C49 C 0.08798 1.01484 0.37043 0.0
C50 C 0.88904 1.02701 0.45629 0.0
C51 C 1.0145 0.13757 0.44349 0.0
C52 C 1.06431 0.16097 0.44064 0.0
C53 C 1.05089 0.19591 0.46377 0.0
C54 C 0.10678 0.21365 0.47012 0.0
C55 C 0.17666 0.19622 0.4538 0.0
C56 C 0.18817 0.16273 0.42825 0.0
C57 C 0.13217 0.14531 0.42147 0.0
C58 C 1.05244 0.039 0.54238 0.0
C59 C 0.25349 1.02672 0.45694 0.0
O60 O 0.1556 0.94042 0.49681 0.0
O61 O 0.10045 0.93143 0.43557 0.0
O62 O 1.03516 1.02539 0.39505 0.0
O63 O 0.14953 0.99522 0.39123 0.0
O64 O 0.90934 0.05925 0.45309 0.0
O65 O 0.95368 0.99613 0.45947 0.0
O66 O 1.01448 0.11249 0.41257 0.0
O67 O 1.01713 0.12328 0.48104 0.0
O68 O 0.10563 1.02811 0.518 0.0
O69 O 0.99181 0.05934 0.52136 0.0
O70 O 0.2331 0.99449 0.4598 0.0
O71 O 0.18883 0.05754 0.45398 0.0
H72 H 0.13625 0.8425 0.45625 0.0
H73 H 1.0521 0.81034 0.48131 0.0
H74 H 0.95098 0.91078 0.55927 0.0
H75 H 1.03383 0.94311 0.53318 0.0
H76 H 0.99905 0.20819 0.47902 0.0
H77 H 0.0971 0.23961 0.48986 0.0
H78 H 0.24146 0.14934 0.41486 0.0
H79 H 0.1437 0.11844 0.4033 0.0
Pr80 Pr 0.50858 0.52136 0.94958 0.0
Pr81 Pr 0.63041 0.53295 0.95171 0.0
C82 C 0.38102 0.50774 0.96252 0.0
C83 C 0.31319 0.53764 0.97511 0.0
C84 C 0.29102 0.57394 0.95575 0.0
C85 C 0.23342 0.60433 0.97115 0.0
C86 C 0.19612 0.599 0.00592 0.0
C87 C 0.21838 0.56279 0.02555 0.0
C88 C 0.2769 0.53238 0.01039 0.0
C89 C 0.53971 0.52903 0.86391 0.0
C90 C 0.47661 0.61858 0.95234 0.0
C91 C 0.73694 0.56478 0.93884 0.0
C92 C 0.73532 0.60535 0.94188 0.0
C93 C 0.77145 0.6194 0.91254 0.0
C94 C 0.77432 0.65713 0.91654 0.0
C95 C 0.74249 0.68159 0.95089 0.0
C96 C 0.69765 0.66868 0.97663 0.0
C97 C 0.69488 0.6308 0.9725 0.0
C98 C 0.60102 0.52528 0.03738 0.0
C99 C 0.66291 0.43566 0.95066 0.0
O100 O 0.43733 0.50046 -0.0086 0.0
O101 O 0.40068 0.5106 0.92426 0.0
O102 O 0.58326 0.50679 0.89141 0.0
O103 O 0.48127 0.55094 0.88167 0.0
O104 O 0.54892 0.60289 0.94456 0.0
O105 O 0.44512 0.59171 0.95967 0.0
O106 O 0.73505 0.54817 0.97454 0.0
O107 O 0.69362 0.55673 0.90772 0.0
O108 O 0.55619 0.54712 0.0099 0.0
O109 O 0.66083 0.50449 0.01988 0.0
O110 O 0.58952 0.45125 0.95686 0.0
O111 O 0.69561 0.46246 0.9442 0.0
H112 H 0.31857 0.57909 0.92879 0.0
H113 H 0.21625 0.63162 0.95481 0.0
H114 H 0.18984 0.55796 0.05225 0.0
H115 H 0.29429 0.50493 0.02641 0.0
H116 H 0.80033 0.60064 0.88754 0.0
H117 H 0.80832 0.66514 0.89491 0.0
H118 H 0.6685 0.68677 0.00188 0.0
H119 H 0.66326 0.62103 -0.00574 0.0
Pr120 Pr 0.59889 0.4915 0.44864 0.0
Pr121 Pr 0.54768 0.55842 0.45238 0.0
C122 C 0.6445 0.41398 0.45646 0.0
C123 C 0.61932 0.38385 0.47295 0.0
C124 C 0.66125 0.34514 0.46719 0.0
C125 C 0.63393 0.31596 0.47892 0.0
C126 C 0.56419 0.32532 0.49638 0.0
C127 C 0.52452 0.36428 0.50434 0.0
C128 C 0.55198 0.39339 0.49268 0.0
C129 C 0.58972 0.51785 0.36384 0.0
C130 C 0.39172 0.52412 0.44933 0.0
C131 C 0.50982 0.63577 0.44524 0.0
C132 C 0.54764 0.6652 0.45222 0.0
C133 C 0.51334 0.69912 0.47503 0.0
C134 C 0.55157 0.72582 0.48557 0.0
C135 C 0.62434 0.71891 0.4731 0.0
C136 C 0.65789 0.68528 0.44944 0.0
C137 C 0.61995 0.65855 0.43919 0.0
C138 C 0.55513 0.53274 0.53725 0.0
C139 C 0.75549 0.52565 0.45141 0.0
O140 O 0.66198 0.43742 0.48487 0.0
O141 O 0.60604 0.43165 0.42279 0.0
O142 O 0.53626 0.52576 0.38801 0.0
O143 O 0.65162 0.49974 0.3852 0.0
O144 O 0.41191 0.55583 0.44299 0.0
O145 O 0.45698 0.49392 0.45555 0.0
O146 O 0.52918 0.61166 0.41324 0.0
O147 O 0.50218 0.61901 0.47948 0.0
O148 O 0.60897 0.52413 0.51324 0.0
O149 O 0.49378 0.55144 0.51577 0.0
O150 O 0.73475 0.49331 0.44957 0.0
O151 O 0.69094 0.55643 0.45304 0.0
H152 H 0.71379 0.33753 0.4523 0.0
H153 H 0.66573 0.28615 0.47275 0.0
H154 H 0.4701 0.37238 0.51714 0.0
H155 H 0.51937 0.42328 0.49752 0.0
H156 H 0.45767 0.70451 0.48551 0.0
H157 H 0.52462 0.75166 0.50368 0.0
H158 H 0.71444 0.67908 0.44001 0.0
H159 H 0.64786 0.63233 0.42196 0.0
C160 C 0.36278 0.68268 0.9727 0.0
C161 C 0.43128 0.66521 0.95266 0.0
C162 C 0.32178 0.72439 0.97407 0.0
C163 C 0.34372 0.75355 0.95306 0.0
C164 C 0.4123 0.73574 0.93188 0.0
C165 C 0.45396 0.69406 0.93285 0.0
C166 C 0.25403 0.73649 -0.00037 0.0
C167 C 0.44352 0.76032 0.90639 0.0
C168 C 0.17851 0.8592 0.93744 0.0
C169 C 0.20902 0.88902 0.95356 0.0
C170 C 0.2198 0.81749 0.93602 0.0
C171 C 0.29687 0.80067 0.95323 0.0
C172 C 0.3272 0.8308 0.97069 0.0
C173 C 0.28558 0.87249 0.96958 0.0
C174 C 0.17829 0.79171 0.91449 0.0
C175 C 0.40507 0.8198 -0.00769 0.0
H176 H 0.34065 0.66342 -0.0112 0.0
H177 H 0.50508 0.68394 0.91655 0.0
H178 H 0.23712 0.76759 0.00863 0.0
H179 H 0.20689 0.73011 -0.01946 0.0
H180 H 0.26473 0.71948 0.02928 0.0
H181 H 0.46515 0.74478 0.87665 0.0
H182 H 0.40151 0.7883 0.89753 0.0
H183 H 0.4916 0.76586 0.9254 0.0
H184 H 0.12083 0.86853 0.92436 0.0
H185 H 0.31398 0.8925 -0.01708 0.0
H186 H 0.13946 0.78705 0.93678 0.0
H187 H 0.21623 0.76333 0.90451 0.0
H188 H 0.14362 0.80585 0.88583 0.0
H189 H 0.42556 0.78921 0.00213 0.0
H190 H 0.40704 0.8384 0.02108 0.0
H191 H 0.44369 0.82482 0.97013 0.0
C192 C 0.6828 0.36009 0.96886 0.0
C193 C 0.70817 0.38897 0.95104 0.0
C194 C 0.72399 0.31835 0.97022 0.0
C195 C 0.79527 0.30059 0.9518 0.0
C196 C 0.82029 0.3297 0.93297 0.0
C197 C 0.77922 0.37143 0.93364 0.0
C198 C 0.68916 0.29352 -0.00714 0.0
C199 C 0.89172 0.31743 0.91064 0.0
C200 C 0.95678 0.19472 0.97318 0.0
C201 C 0.92951 0.16519 0.95278 0.0
C202 C 0.91547 0.23643 0.97393 0.0
C203 C 0.84186 0.25349 0.95221 0.0
C204 C 0.81471 0.2237 0.93083 0.0
C205 C 0.85617 0.18201 0.93213 0.0
C206 C 0.95286 0.26202 -0.0004 0.0
C207 C 0.74044 0.23517 0.90503 0.0
H208 H 0.62965 0.3702 -0.01689 0.0
H209 H 0.80354 0.39067 0.91919 0.0
H210 H 0.64448 0.28748 0.97107 0.0
H211 H 0.73035 0.26574 0.00317 0.0
H212 H 0.66233 0.30902 0.02141 0.0
H213 H 0.88597 0.33505 0.88184 0.0
H214 H 0.93719 0.32263 0.93245 0.0
H215 H 0.90836 0.28652 0.90076 0.0
H216 H 1.01173 0.18516 -0.00996 0.0
H217 H 0.83022 0.16223 0.9156 0.0
H218 H 0.9127 0.29008 0.00867 0.0
H219 H 0.99532 0.26745 -0.01947 0.0
H220 H 0.98286 0.2474 0.02919 0.0
H221 H 0.69747 0.23052 0.9243 0.0
H222 H 0.74284 0.21667 0.87579 0.0
H223 H 0.72252 0.26579 0.89536 0.0
C224 C 0.30567 0.18688 0.48589 0.0
C225 C 0.23944 0.21116 0.46594 0.0
C226 C 0.36653 0.20039 0.49739 0.0
C227 C 0.36092 0.23873 0.48782 0.0
C228 C 0.29359 0.26346 0.4681 0.0
C229 C 0.23314 0.2494 0.45778 0.0
C230 C 0.43646 0.1738 0.51974 0.0
C231 C 0.28611 0.30442 0.45679 0.0
C232 C 0.48418 0.29633 0.53443 0.0
C233 C 0.52701 0.2956 0.4999 0.0
C234 C 0.43396 0.2749 0.53277 0.0
C235 C 0.42646 0.25273 0.49556 0.0
C236 C 0.4749 0.24888 0.46255 0.0
C237 C 0.52481 0.27041 0.46515 0.0
C238 C 0.38463 0.27866 0.56913 0.0
C239 C 0.46903 0.22505 0.42258 0.0
H240 H 0.30952 0.1574 0.49272 0.0
H241 H 0.18159 0.26792 0.44235 0.0
H242 H 0.48627 0.17279 0.50282 0.0
H243 H 0.44475 0.18508 0.55254 0.0
H244 H 0.43361 0.14398 0.52195 0.0
H245 H 0.22959 0.3199 0.44201 0.0
H246 H 0.2973 0.32078 0.48583 0.0
H247 H 0.32815 0.3043 0.43409 0.0
H248 H 0.48692 0.31531 0.56166 0.0
H249 H 0.55758 0.26988 0.43828 0.0
H250 H 0.37858 0.25031 0.57626 0.0
H251 H 0.32796 0.29841 0.55991 0.0
H252 H 0.40701 0.29049 0.59863 0.0
H253 H 0.46773 0.19602 0.43082 0.0
H254 H 0.51629 0.22154 0.40233 0.0
H255 H 0.41599 0.23935 0.40349 0.0
C256 C 0.952 0.80223 0.53725 0.0
C257 C 0.93507 0.8418 0.53036 0.0
C258 C 0.89522 0.78491 0.53512 0.0
C259 C 0.82009 0.8079 0.52607 0.0
C260 C 0.8021 0.84838 0.52328 0.0
C261 C 0.86003 0.8649 0.52527 0.0
C262 C 0.91637 0.7416 0.53861 0.0
C263 C 0.72248 0.87383 0.51418 0.0
C264 C 0.7069 0.75673 0.45612 0.0
C265 C 0.66712 0.74564 0.48608 0.0
C266 C 0.75486 0.77831 0.46868 0.0
C267 C 0.76306 0.78895 0.51229 0.0
C268 C 0.72041 0.77938 0.54241 0.0
C269 C 0.67268 0.75772 0.52888 0.0
C270 C 0.79893 0.78841 0.43551 0.0
C271 C 0.72768 0.79049 0.58906 0.0
H272 H 1.00997 0.78449 0.54195 0.0
H273 H 0.84658 0.89551 0.51963 0.0
H274 H 0.87892 0.73362 0.55931 0.0
H275 H 0.90979 0.72865 0.50644 0.0
H276 H 0.9752 0.72874 0.55167 0.0
H277 H 0.70467 0.8705 0.48002 0.0
H278 H 0.68384 0.86532 0.53352 0.0
H279 H 0.71664 0.90476 0.52083 0.0
H280 H 0.70161 0.74776 0.42293 0.0
H281 H 0.64214 0.74886 0.55207 0.0
H282 H 0.85961 0.774 0.44298 0.0
H283 H 0.78979 0.81998 0.43602 0.0
H284 H 0.7833 0.77947 0.40269 0.0
H285 H 0.78345 0.77356 0.60346 0.0
H286 H 0.68412 0.78501 0.60725 0.0
H287 H 0.72369 0.82144 0.59274 0.0
C288 C 0.43156 0.05862 0.17943 0.0
C289 C 0.42926 1.03127 0.14686 0.0
C290 C 0.50077 0.0615 0.19698 0.0
C291 C 0.56677 1.03844 0.17905 0.0
C292 C 0.56448 1.00504 0.15466 0.0
C293 C 0.49509 1.00171 0.13915 0.0
C294 C 0.5021 0.09256 0.22999 0.0
C295 C 0.63384 0.97652 0.13815 0.0
C296 C 0.6641 0.08246 0.10913 0.0
C297 C 0.73615 0.05701 0.11665 0.0
C298 C 0.60746 0.08204 0.13474 0.0
C299 C 0.62477 0.05619 0.16955 0.0
C300 C 0.70082 1.03791 0.18296 0.0
C301 C 0.75594 1.03715 0.15524 0.0
C302 C 0.52814 0.10426 0.11944 0.0
C303 C 0.72369 1.01576 0.22389 0.0
H304 H 0.38022 0.08025 0.18766 0.0
H305 H 0.49359 0.97932 0.11554 0.0
H306 H 0.55989 0.09252 0.24038 0.0
H307 H 0.46908 0.12132 0.21739 0.0
H308 H 0.47467 0.08803 0.25833 0.0
H309 H 0.6222 0.95095 0.12225 0.0
H310 H 0.657 0.9906 0.11458 0.0
H311 H 0.67698 0.96615 0.1648 0.0
H312 H 0.64954 0.09862 0.07976 0.0
H313 H 0.81279 1.01859 0.16195 0.0
H314 H 0.49755 0.12093 0.1461 0.0
H315 H 0.49881 0.08378 0.10616 0.0
H316 H 0.5258 0.12491 0.09399 0.0
H317 H 0.75905 1.02932 0.24504 0.0
H318 H 0.7587 0.9857 0.21727 0.0
H319 H 0.6751 1.01544 0.2413 0.0
C320 C 0.37427 0.05714 0.44076 0.0
C321 C 0.34643 1.02745 0.45697 0.0
C322 C 0.45505 0.0571 0.43955 0.0
C323 C 0.52392 1.02721 0.45669 0.0
C324 C 0.49583 0.9976 0.47413 0.0
C325 C 0.41475 0.99775 0.47307 0.0
C326 C 0.46459 0.09076 0.41735 0.0
C327 C 0.55225 0.96408 0.49657 0.0
C328 C 0.76457 0.99539 0.44267 0.0
C329 C 0.79613 1.02638 0.45663 0.0
C330 C 0.68338 0.99554 0.44141 0.0
C331 C 0.61846 1.02689 0.45658 0.0
C332 C 0.65061 0.0579 0.47178 0.0
C333 C 0.73144 0.05757 0.47053 0.0
C334 C 0.66844 0.96029 0.42118 0.0
C335 C 0.59939 0.09341 0.49178 0.0
H336 H 0.33113 0.08176 0.42709 0.0
H337 H 0.4052 0.97312 0.48678 0.0
H338 H 0.452 0.11626 0.43933 0.0
H339 H 0.52196 0.08472 0.40701 0.0
H340 H 0.42421 0.09849 0.38883 0.0
H341 H 0.5645 0.9385 0.47471 0.0
H342 H 0.60517 0.97022 0.50696 0.0
H343 H 0.52923 0.95642 0.5251 0.0
H344 H 0.80459 0.96953 0.43073 0.0
H345 H 0.74413 0.08335 0.48231 0.0
H346 H 0.60848 0.96553 0.41077 0.0
H347 H 0.68669 0.93655 0.44445 0.0
H348 H 0.70172 0.95041 0.39298 0.0
H349 H 0.58188 0.1168 0.46805 0.0
H350 H 0.62912 0.10369 0.51953 0.0
H351 H 0.54903 0.08826 0.50278 0.0
C352 C 0.78407 0.72006 0.01064 0.0
C353 C 0.77351 0.71359 0.96626 0.0
C354 C 0.85409 0.72149 0.02842 0.0
C355 C 0.91245 0.71511 0.00107 0.0
C356 C 0.8932 0.72243 0.95701 0.0
C357 C 0.82086 0.72412 0.94032 0.0
C358 C 0.86967 0.72159 0.07622 0.0
C359 C 0.9514 0.72179 0.92669 0.0
C360 C 0.12217 0.66817 0.01982 0.0
C361 C 0.12652 0.62905 0.01635 0.0
C362 C 1.05246 0.69712 0.01953 0.0
C363 C 0.98612 0.68648 0.01378 0.0
C364 C 0.99127 0.64663 0.01373 0.0
C365 C 1.06138 0.61868 0.01573 0.0
C366 C 1.05114 0.73868 0.02331 0.0
C367 C 0.92369 0.63261 0.00677 0.0
H368 H 0.7442 0.71744 0.03216 0.0
H369 H 0.80791 0.72568 0.90605 0.0
H370 H 0.91761 0.73256 0.08559 0.0
H371 H 0.81952 0.73966 0.09189 0.0
H372 H 0.88374 0.69175 0.08804 0.0
H373 H 0.9268 0.72812 0.89339 0.0
H374 H 0.97936 0.7436 0.93716 0.0
H375 H 0.99473 0.69305 0.92683 0.0
H376 H 0.17307 0.67615 0.02111 0.0
H377 H 1.06494 0.58843 0.01277 0.0
H378 H 0.99509 0.75874 0.0295 0.0
H379 H 0.06907 0.74704 -0.00655 0.0
H380 H 0.09209 0.74207 0.04957 0.0
H381 H 0.88387 0.64471 0.03149 0.0
H382 H 0.93847 0.60067 0.00767 0.0
H383 H 0.89538 0.6418 0.97501 0.0
C384 C 0.27024 0.49513 0.46811 0.0
C385 C 0.29871 0.52362 0.4497 0.0
C386 C 0.18923 0.49558 0.46951 0.0
C387 C 0.12091 0.52465 0.45057 0.0
C388 C 0.1496 0.55308 0.43114 0.0
C389 C 0.23082 0.55259 0.43184 0.0
C390 C 0.17862 0.46335 0.49387 0.0
C391 C 0.09365 0.58567 0.40705 0.0
C392 C 0.91317 0.49469 0.43784 0.0
C393 C 0.84847 0.52622 0.45117 0.0
C394 C 0.99418 0.49404 0.43665 0.0
C395 C 1.0263 0.52527 0.45087 0.0
C396 C 0.96138 0.55709 0.46522 0.0
C397 C 0.88015 0.55735 0.46437 0.0
C398 C 1.04575 0.4579 0.41791 0.0
C399 C 0.97638 0.59289 0.48378 0.0
H400 H 0.31296 0.4712 0.48337 0.0
H401 H 0.24087 0.57633 0.41649 0.0
H402 H 0.12088 0.47022 0.50394 0.0
H403 H 0.19124 0.43684 0.47342 0.0
H404 H 0.21835 0.45687 0.52277 0.0
H405 H 0.11717 0.59191 0.37797 0.0
H406 H 1.04068 0.57934 0.39729 0.0
H407 H 0.0813 0.61213 0.42756 0.0
H408 H 0.9004 0.46877 0.4267 0.0
H409 H 0.84013 0.5835 0.47569 0.0
H410 H 1.0627 0.43517 0.44242 0.0
H411 H 0.09659 0.4625 0.40687 0.0
H412 H 1.01644 0.44697 0.39046 0.0
H413 H 0.94241 0.60409 0.51146 0.0
H414 H 0.95918 0.61566 0.45931 0.0
H415 H 1.03623 0.58774 0.49444 0.0
C416 C 1.01458 1.01608 0.29856 0.0
C417 C 0.07958 1.01818 0.32258 0.0
C418 C 1.00952 1.01565 0.25321 0.0
C419 C 0.06946 1.01935 0.23091 0.0
C420 C 0.13392 1.02311 0.25531 0.0
C421 C 0.13883 1.02156 0.30046 0.0
C422 C 0.94017 1.01065 0.22936 0.0
C423 C 0.19811 1.02878 0.2337 0.0
C424 C 0.10384 0.98228 0.11535 0.0
C425 C 0.07097 1.01563 0.09113 0.0
C426 C 0.10064 0.98279 0.16024 0.0
C427 C 0.06655 1.0179 0.18235 0.0
C428 C 1.0327 0.05166 0.1579 0.0
C429 C 1.03406 0.04996 0.11275 0.0
C430 C 0.13421 0.94558 0.1841 0.0
C431 C 0.99718 0.08997 0.17954 0.0
H432 H 0.96858 1.01324 0.3152 0.0
H433 H 0.18914 1.02344 0.31863 0.0
H434 H 0.904 0.03895 0.21717 0.0
H435 H 0.95463 0.99063 0.20153 0.0
H436 H 0.90725 0.99944 0.25024 0.0
H437 H 0.2409 1.03492 0.25699 0.0
H438 H 0.22552 1.00251 0.21485 0.0
H439 H 0.17702 0.05303 0.21108 0.0
H440 H 0.13218 0.95556 0.09907 0.0
H441 H 1.00889 0.07599 0.09451 0.0
H442 H 0.09305 0.94118 0.20497 0.0
H443 H 0.18369 0.94706 0.20502 0.0
H444 H 0.1519 0.92018 0.16217 0.0
H445 H 0.94902 0.08857 0.19656 0.0
H446 H 0.97716 0.11396 0.15652 0.0
H447 H 1.03804 0.09663 0.20377 0.0
C448 C 0.08853 0.0491 0.80319 0.0
C449 C 0.07407 1.01746 0.82048 0.0
C450 C 0.08936 0.05264 0.7584 0.0
C451 C 0.07547 1.02392 0.72972 0.0
C452 C 1.06254 0.99155 0.74721 0.0
C453 C 1.06204 0.98876 0.79195 0.0
C454 C 0.10359 0.08764 0.74168 0.0
C455 C 1.04748 0.96008 0.71851 0.0
C456 C 0.99669 0.05013 0.61396 0.0
C457 C 1.05964 1.0348 0.59023 0.0
C458 C 1.00135 0.04717 0.65893 0.0
C459 C 0.07082 1.02838 0.68156 0.0
C460 C 0.13476 1.01287 0.65778 0.0
C461 C 0.12844 1.01619 0.61265 0.0
C462 C 0.93137 0.06405 0.68228 0.0
C463 C 0.21003 0.99256 0.68005 0.0
H464 H 0.09787 0.07152 0.82463 0.0
H465 H 1.051 0.96407 0.80461 0.0
H466 H 0.1504 0.07861 0.72049 0.0
H467 H 1.05332 0.10485 0.72221 0.0
H468 H 0.1173 0.10641 0.76782 0.0
H469 H 1.04167 0.93596 0.73688 0.0
H470 H 0.99523 0.97217 0.69787 0.0
H471 H 0.09349 0.94836 0.69711 0.0
H472 H 0.94314 0.06455 0.59726 0.0
H473 H 0.17756 1.00423 0.5949 0.0
H474 H 0.93991 0.08543 0.70678 0.0
H475 H 0.91906 0.04093 0.69923 0.0
H476 H 0.88193 0.07842 0.6604 0.0
H477 H 0.2257 1.01206 0.70459 0.0
H478 H 0.25476 0.9829 0.65748 0.0
H479 H 0.20711 0.96701 0.69688 0.0
C480 C 0.52173 0.51969 0.2897 0.0
C481 C 0.58358 0.52306 0.31608 0.0
C482 C 0.52014 0.52072 0.24439 0.0
C483 C 0.58049 0.52679 0.22444 0.0
C484 C 0.64159 0.53175 0.25125 0.0
C485 C 0.64306 0.529 0.29622 0.0
C486 C 0.45499 0.51377 0.21776 0.0
C487 C 0.70617 0.5397 0.23241 0.0
C488 C 0.62567 0.4924 0.10884 0.0
C489 C 0.59172 0.52578 0.08474 0.0
C490 C 0.6199 0.49202 0.15353 0.0
C491 C 0.58175 0.52632 0.17585 0.0
C492 C 0.54758 0.56026 0.15161 0.0
C493 C 0.55168 0.55939 0.10655 0.0
C494 C 0.65505 0.45467 0.17692 0.0
C495 C 0.50869 0.59794 0.1735 0.0
H496 H 0.47583 0.51459 0.30442 0.0
H497 H 0.69113 0.53174 0.31607 0.0
H498 H 0.42818 0.53827 0.19613 0.0
H499 H 0.47535 0.48755 0.19734 0.0
H500 H 0.41207 0.50988 0.23771 0.0
H501 H 0.74554 0.54678 0.25736 0.0
H502 H 0.73758 0.51406 0.21389 0.0
H503 H 0.68505 0.56408 0.20998 0.0
H504 H 0.65637 0.46616 0.09253 0.0
H505 H 0.52566 0.58548 0.08855 0.0
H506 H 0.61365 0.44862 0.19636 0.0
H507 H 0.70231 0.4571 0.1992 0.0
H508 H 0.67639 0.42979 0.15476 0.0
H509 H 0.4629 0.59482 0.1915 0.0
H510 H 0.48493 0.62178 0.15054 0.0
H511 H 0.54891 0.60602 0.19701 0.0
C512 C 0.62256 0.53098 0.61159 0.0
C513 C 0.56052 0.52802 0.5851 0.0
C514 C 0.62341 0.53054 0.65692 0.0
C515 C 0.562 0.52555 0.6768 0.0
C516 C 0.50065 0.52102 0.64989 0.0
C517 C 0.50003 0.52312 0.60488 0.0
C518 C 0.689 0.53692 0.68363 0.0
C519 C 0.43491 0.51421 0.66865 0.0
C520 C 0.58805 0.49401 0.795 0.0
C521 C 0.54921 0.52807 0.81651 0.0
C522 C 0.5926 0.49267 0.74996 0.0
C523 C 0.56013 0.52654 0.7254 0.0
C524 C 0.52312 0.56127 0.74739 0.0
C525 C 0.51686 0.5614 0.79209 0.0
C526 C 0.63019 0.45457 0.72845 0.0
C527 C 0.48972 0.59854 0.72363 0.0
H528 H 0.66926 0.53528 0.59693 0.0
H529 H 0.45179 0.52072 0.58495 0.0
H530 H 0.6694 0.56338 0.70378 0.0
H531 H 0.71464 0.5125 0.70553 0.0
H532 H 0.73266 0.54006 0.66376 0.0
H533 H 0.39517 0.50748 0.64369 0.0
H534 H 0.45472 0.48998 0.69133 0.0
H535 H 0.40431 0.54023 0.68689 0.0
H536 H 0.61282 0.46796 0.81324 0.0
H537 H 0.48709 0.58798 0.80815 0.0
H538 H 0.67675 0.45687 0.71056 0.0
H539 H 0.58954 0.44689 0.7049 0.0
H540 H 0.65263 0.43083 0.75164 0.0
H541 H 0.53199 0.60383 0.70427 0.0
H542 H 0.46905 0.62369 0.74554 0.0
H543 H 0.44232 0.59649 0.70123 0.0
loop_
_geom_bond_atom_site_label_1
_geom_bond_atom_site_label_2
_geom_bond_distance
_geom_bond_site_symmetry_2
_ccdc_geom_bond_type
Pr0 C2 2.880 1_565 S
Pr0 O20 2.562 1_566 S
Pr0 O21 2.490 . S
Pr0 O22 2.695 1_655 S
Pr0 O23 2.512 . S
Pr0 O25 2.437 1_565 S
Pr0 O28 2.436 1_566 S
Pr0 O30 2.438 1_655 S
Pr1 C11 2.880 . S
Pr1 O22 2.436 1_544 S
Pr1 O24 2.438 1_455 S
Pr1 O26 2.562 1_544 S
Pr1 O27 2.490 . S
Pr1 O28 2.695 1_455 S
Pr1 O29 2.512 . S
Pr1 O31 2.437 1_545 S
C2 Pr0 2.880 1_545 S
C2 C3 1.491 . S
C2 O20 1.254 1_556 S
C2 O21 1.225 1_545 S
C3 C2 1.491 . S
C3 C4 1.392 . S
C3 C8 1.356 1_556 S
C4 C3 1.392 . S
C4 C5 1.368 . S
C4 H32 0.929 1_545 S
C5 C4 1.368 . S
C5 C6 1.386 . S
C5 H33 0.929 . S
C6 C5 1.386 . S
C6 C7 1.373 1_556 S
C7 C6 1.373 1_554 S
C7 C8 1.409 . S
C7 H34 0.931 . S
C8 C3 1.356 1_554 S
C8 C7 1.409 . S
C8 H35 0.930 . S
C9 O22 1.270 1_655 S
C9 O23 1.248 . S
C10 O24 1.267 1_556 S
C10 O25 1.278 . S
C11 Pr1 2.880 . S
C11 C12 1.491 1_545 S
C11 O26 1.254 1_544 S
C11 O27 1.225 . S
C12 C11 1.491 1_565 S
C12 C13 1.392 . S
C12 C17 1.356 1_554 S
C13 C12 1.392 . S
C13 C14 1.368 . S
C13 H36 0.929 1_565 S
C14 C13 1.368 . S
C14 C15 1.386 . S
C14 H37 0.929 . S
C15 C14 1.386 . S
C15 C16 1.373 1_554 S
C16 C15 1.373 1_556 S
C16 C17 1.409 . S
C16 H38 0.931 . S
C17 C12 1.356 1_556 S
C17 C16 1.409 . S
C17 H39 0.930 . S
C18 O28 1.270 1_455 S
C18 O29 1.248 . S
C19 O30 1.267 1_554 S
C19 O31 1.278 . S
O20 Pr0 2.562 1_544 S
O20 C2 1.254 1_554 S
O21 Pr0 2.490 . S
O21 C2 1.225 1_565 S
O22 Pr0 2.695 1_455 S
O22 Pr1 2.436 1_566 S
O22 C9 1.270 1_455 S
O23 Pr0 2.512 . S
O23 C9 1.248 . S
O24 Pr1 2.438 1_655 S
O24 C10 1.267 1_554 S
O25 Pr0 2.437 1_545 S
O25 C10 1.278 . S
O26 Pr1 2.562 1_566 S
O26 C11 1.254 1_566 S
O27 Pr1 2.490 . S
O27 C11 1.225 . S
O28 Pr0 2.436 1_544 S
O28 Pr1 2.695 1_655 S
O28 C18 1.270 1_655 S
O29 Pr1 2.512 . S
O29 C18 1.248 . S
O30 Pr0 2.438 1_455 S
O30 C19 1.267 1_556 S
O31 Pr1 2.437 1_565 S
O31 C19 1.278 . S
H32 C4 0.929 1_565 S
H33 C5 0.929 . S
H34 C7 0.931 . S
H35 C8 0.930 . S
H36 C13 0.929 1_545 S
H37 C14 0.929 . S
H38 C16 0.931 . S
H39 C17 0.930 . S
Pr40 C42 2.880 1_455 S
Pr40 O60 2.562 1_455 S
Pr40 O61 2.490 1_455 S
Pr40 O62 2.695 1_565 S
Pr40 O63 2.512 . S
Pr40 O65 2.437 1_455 S
Pr40 O68 2.436 1_455 S
Pr40 O70 2.438 . S
Pr41 C51 2.880 1_655 S
Pr41 O62 2.436 1_655 S
Pr41 O64 2.438 . S
Pr41 O66 2.562 1_655 S
Pr41 O67 2.490 1_655 S
Pr41 O68 2.695 1_545 S
Pr41 O69 2.512 . S
Pr41 O71 2.437 1_655 S
C42 Pr40 2.880 1_655 S
C42 C43 1.491 . S
C42 O60 1.254 . S
C42 O61 1.225 . S
C43 C42 1.491 . S
C43 C44 1.392 . S
C43 C48 1.356 . S
C44 C43 1.392 . S
C44 C45 1.368 . S
C44 H72 0.929 . S
C45 C44 1.368 . S
C45 C46 1.386 . S
C45 H73 0.929 . S
C46 C45 1.386 . S
C46 C47 1.373 . S
C47 C46 1.373 . S
C47 C48 1.409 . S
C47 H74 0.931 . S
C48 C43 1.356 . S
C48 C47 1.409 . S
C48 H75 0.930 . S
C49 O62 1.270 1_565 S
C49 O63 1.248 . S
C50 O64 1.267 . S
C50 O65 1.278 1_545 S
C51 Pr41 2.880 1_455 S
C51 C52 1.491 . S
C51 O66 1.254 . S
C51 O67 1.225 . S
C52 C51 1.491 . S
C52 C53 1.392 . S
C52 C57 1.356 . S
C53 C52 1.392 . S
C53 C54 1.368 . S
C53 H76 0.929 . S
C54 C53 1.368 . S
C54 C55 1.386 . S
C54 H77 0.929 . S
C55 C54 1.386 . S
C55 C56 1.373 . S
C56 C55 1.373 . S
C56 C57 1.409 . S
C56 H78 0.931 . S
C57 C52 1.356 . S
C57 C56 1.409 . S
C57 H79 0.930 . S
C58 O68 1.270 1_545 S
C58 O69 1.248 . S
C59 O70 1.267 . S
C59 O71 1.278 1_565 S
O60 Pr40 2.562 1_655 S
O60 C42 1.254 . S
O61 Pr40 2.490 1_655 S
O61 C42 1.225 . S
O62 Pr40 2.695 1_545 S
O62 Pr41 2.436 1_455 S
O62 C49 1.270 1_545 S
O63 Pr40 2.512 . S
O63 C49 1.248 . S
O64 Pr41 2.438 . S
O64 C50 1.267 . S
O65 Pr40 2.437 1_655 S
O65 C50 1.278 1_565 S
O66 Pr41 2.562 1_455 S
O66 C51 1.254 . S
O67 Pr41 2.490 1_455 S
O67 C51 1.225 . S
O68 Pr40 2.436 1_655 S
O68 Pr41 2.695 1_565 S
O68 C58 1.270 1_565 S
O69 Pr41 2.512 . S
O69 C58 1.248 . S
O70 Pr40 2.438 . S
O70 C59 1.267 . S
O71 Pr41 2.437 1_455 S
O71 C59 1.278 1_545 S
H72 C44 0.929 . S
H73 C45 0.929 . S
H74 C47 0.931 . S
H75 C48 0.930 . S
H76 C53 0.929 . S
H77 C54 0.929 . S
H78 C56 0.931 . S
H79 C57 0.930 . S
Pr80 C82 2.880 . S
Pr80 O100 2.562 1_556 S
Pr80 O101 2.490 . S
Pr80 O102 2.695 . S
Pr80 O103 2.512 . S
Pr80 O105 2.437 . S
Pr80 O108 2.436 1_556 S
Pr80 O110 2.438 . S
Pr81 C91 2.880 . S
Pr81 O102 2.436 1_554 S
Pr81 O104 2.438 . S
Pr81 O106 2.562 1_554 S
Pr81 O107 2.490 . S
Pr81 O108 2.695 . S
Pr81 O109 2.512 . S
Pr81 O111 2.437 . S
C82 Pr80 2.880 . S
C82 C83 1.491 . S
C82 O100 1.254 1_556 S
C82 O101 1.225 . S
C83 C82 1.491 . S
C83 C84 1.392 . S
C83 C88 1.356 1_556 S
C84 C83 1.392 . S
C84 C85 1.368 . S
C84 H112 0.929 . S
C85 C84 1.368 . S
C85 C86 1.386 . S
C85 H113 0.929 . S
C86 C85 1.386 . S
C86 C87 1.373 1_556 S
C87 C86 1.373 1_554 S
C87 C88 1.409 . S
C87 H114 0.931 . S
C88 C83 1.356 1_554 S
C88 C87 1.409 . S
C88 H115 0.930 . S
C89 O102 1.270 . S
C89 O103 1.248 . S
C90 O104 1.267 1_556 S
C90 O105 1.278 . S
C91 Pr81 2.880 . S
C91 C92 1.491 . S
C91 O106 1.254 1_554 S
C91 O107 1.225 . S
C92 C91 1.491 . S
C92 C93 1.392 . S
C92 C97 1.356 1_554 S
C93 C92 1.392 . S
C93 C94 1.368 . S
C93 H116 0.929 . S
C94 C93 1.368 . S
C94 C95 1.386 . S
C94 H117 0.929 . S
C95 C94 1.386 . S
C95 C96 1.373 1_554 S
C96 C95 1.373 1_556 S
C96 C97 1.409 . S
C96 H118 0.931 . S
C97 C92 1.356 1_556 S
C97 C96 1.409 . S
C97 H119 0.930 . S
C98 O108 1.270 . S
C98 O109 1.248 . S
C99 O110 1.267 1_554 S
C99 O111 1.278 . S
O100 Pr80 2.562 1_554 S
O100 C82 1.254 1_554 S
O101 Pr80 2.490 . S
O101 C82 1.225 . S
O102 Pr80 2.695 . S
O102 Pr81 2.436 1_556 S
O102 C89 1.270 . S
O103 Pr80 2.512 . S
O103 C89 1.248 . S
O104 Pr81 2.438 . S
O104 C90 1.267 1_554 S
O105 Pr80 2.437 . S
O105 C90 1.278 . S
O106 Pr81 2.562 1_556 S
O106 C91 1.254 1_556 S
O107 Pr81 2.490 . S
O107 C91 1.225 . S
O108 Pr80 2.436 1_554 S
O108 Pr81 2.695 . S
O108 C98 1.270 . S
O109 Pr81 2.512 . S
O109 C98 1.248 . S
O110 Pr80 2.438 . S
O110 C99 1.267 1_556 S
O111 Pr81 2.437 . S
O111 C99 1.278 . S
H112 C84 0.929 . S
H113 C85 0.929 . S
H114 C87 0.931 . S
H115 C88 0.930 . S
H116 C93 0.929 . S
H117 C94 0.929 . S
H118 C96 0.931 . S
H119 C97 0.930 . S
Pr120 C122 2.880 . S
Pr120 O140 2.562 . S
Pr120 O141 2.490 . S
Pr120 O142 2.695 . S
Pr120 O143 2.512 . S
Pr120 O145 2.437 . S
Pr120 O148 2.436 . S
Pr120 O150 2.438 . S
Pr121 C131 2.880 . S
Pr121 O142 2.436 . S
Pr121 O144 2.438 . S
Pr121 O146 2.562 . S
Pr121 O147 2.490 . S
Pr121 O148 2.695 . S
Pr121 O149 2.512 . S
Pr121 O151 2.437 . S
C122 Pr120 2.880 . S
C122 C123 1.491 . S
C122 O140 1.254 . S
C122 O141 1.225 . S
C123 C122 1.491 . S
C123 C124 1.392 . S
C123 C128 1.356 . S
C124 C123 1.392 . S
C124 C125 1.368 . S
C124 H152 0.929 . S
C125 C124 1.368 . S
C125 C126 1.386 . S
C125 H153 0.929 . S
C126 C125 1.386 . S
C126 C127 1.373 . S
C127 C126 1.373 . S
C127 C128 1.409 . S
C127 H154 0.931 . S
C128 C123 1.356 . S
C128 C127 1.409 . S
C128 H155 0.930 . S
C129 O142 1.270 . S
C129 O143 1.248 . S
C130 O144 1.267 . S
C130 O145 1.278 . S
C131 Pr121 2.880 . S
C131 C132 1.491 . S
C131 O146 1.254 . S
C131 O147 1.225 . S
C132 C131 1.491 . S
C132 C133 1.392 . S
C132 C137 1.356 . S
C133 C132 1.392 . S
C133 C134 1.368 . S
C133 H156 0.929 . S
C134 C133 1.368 . S
C134 C135 1.386 . S
C134 H157 0.929 . S
C135 C134 1.386 . S
C135 C136 1.373 . S
C136 C135 1.373 . S
C136 C137 1.409 . S
C136 H158 0.931 . S
C137 C132 1.356 . S
C137 C136 1.409 . S
C137 H159 0.930 . S
C138 O148 1.270 . S
C138 O149 1.248 . S
C139 O150 1.267 . S
C139 O151 1.278 . S
O140 Pr120 2.562 . S
O140 C122 1.254 . S
O141 Pr120 2.490 . S
O141 C122 1.225 . S
O142 Pr120 2.695 . S
O142 Pr121 2.436 . S
O142 C129 1.270 . S
O143 Pr120 2.512 . S
O143 C129 1.248 . S
O144 Pr121 2.438 . S
O144 C130 1.267 . S
O145 Pr120 2.437 . S
O145 C130 1.278 . S
O146 Pr121 2.562 . S
O146 C131 1.254 . S
O147 Pr121 2.490 . S
O147 C131 1.225 . S
O148 Pr120 2.436 . S
O148 Pr121 2.695 . S
O148 C138 1.270 . S
O149 Pr121 2.512 . S
O149 C138 1.248 . S
O150 Pr120 2.438 . S
O150 C139 1.267 . S
O151 Pr121 2.437 . S
O151 C139 1.278 . S
H152 C124 0.929 . S
H153 C125 0.929 . S
H154 C127 0.931 . S
H155 C128 0.930 . S
H156 C133 0.929 . S
H157 C134 0.929 . S
H158 C136 0.931 . S
H159 C137 0.930 . S
C160 C161 1.391 . S
C160 C162 1.394 . S
C160 H176 0.931 . S
C161 C160 1.391 . S
C161 C165 1.376 1_554 S
C162 C160 1.394 . S
C162 C163 1.369 . S
C162 C166 1.531 . S
C163 C162 1.369 . S
C163 C164 1.410 1_554 S
C163 C171 1.503 . S
C164 C163 1.410 1_556 S
C164 C165 1.392 . S
C164 C167 1.511 . S
C165 C161 1.376 1_556 S
C165 C164 1.392 . S
C165 H177 0.929 . S
C166 C162 1.531 . S
C166 H178 0.960 . S
C166 H179 0.962 . S
C166 H180 0.960 . S
C167 C164 1.511 . S
C167 H181 0.961 . S
C167 H182 0.961 . S
C167 H183 0.961 . S
C168 C169 1.374 . S
C168 C170 1.363 . S
C168 H184 0.931 . S
C169 C168 1.374 . S
C169 C173 1.404 1_556 S
C170 C168 1.363 . S
C170 C171 1.370 1_556 S
C170 C174 1.524 . S
C171 C163 1.503 . S
C171 C170 1.370 1_554 S
C171 C172 1.403 . S
C172 C171 1.403 . S
C172 C173 1.404 . S
C172 C175 1.539 . S
C173 C169 1.404 1_554 S
C173 C172 1.404 . S
C173 H185 0.930 . S
C174 C170 1.524 . S
C174 H186 0.956 . S
C174 H187 0.961 . S
C174 H188 0.961 . S
C175 C172 1.539 . S
C175 H189 0.958 . S
C175 H190 0.961 . S
C175 H191 0.960 . S
H176 C160 0.931 . S
H177 C165 0.929 . S
H178 C166 0.960 . S
H179 C166 0.962 . S
H180 C166 0.960 . S
H181 C167 0.961 . S
H182 C167 0.961 . S
H183 C167 0.961 . S
H184 C168 0.931 . S
H185 C173 0.930 . S
H186 C174 0.956 . S
H187 C174 0.961 . S
H188 C174 0.961 . S
H189 C175 0.958 . S
H190 C175 0.961 . S
H191 C175 0.960 . S
C192 C193 1.391 . S
C192 C194 1.394 . S
C192 H208 0.931 . S
C193 C192 1.391 . S
C193 C197 1.376 . S
C194 C192 1.394 . S
C194 C195 1.369 . S
C194 C198 1.531 . S
C195 C194 1.369 . S
C195 C196 1.410 . S
C195 C203 1.503 . S
C196 C195 1.410 . S
C196 C197 1.392 . S
C196 C199 1.511 . S
C197 C193 1.376 . S
C197 C196 1.392 . S
C197 H209 0.929 . S
C198 C194 1.531 . S
C198 H210 0.960 . S
C198 H211 0.962 1_556 S
C198 H212 0.960 . S
C199 C196 1.511 . S
C199 H213 0.961 . S
C199 H214 0.961 . S
C199 H215 0.961 . S
C200 C201 1.362 1_554 S
C200 C202 1.363 . S
C200 H216 0.931 . S
C201 C200 1.362 1_556 S
C201 C205 1.417 . S
C202 C200 1.363 . S
C202 C203 1.370 1_554 S
C202 C206 1.524 . S
C203 C195 1.503 . S
C203 C202 1.370 1_556 S
C203 C204 1.403 . S
C204 C203 1.403 . S
C204 C205 1.404 . S
C204 C207 1.539 . S
C205 C201 1.417 . S
C205 C204 1.404 . S
C205 H217 0.930 . S
C206 C202 1.524 . S
C206 H218 0.956 . S
C206 H219 0.961 . S
C206 H220 0.961 . S
C207 C204 1.539 . S
C207 H221 0.958 . S
C207 H222 0.961 . S
C207 H223 0.960 . S
H208 C192 0.931 . S
H209 C197 0.929 . S
H210 C198 0.960 . S
H211 C198 0.962 1_554 S
H212 C198 0.960 . S
H213 C199 0.961 . S
H214 C199 0.961 . S
H215 C199 0.961 . S
H216 C200 0.931 . S
H217 C205 0.930 . S
H218 C206 0.956 . S
H219 C206 0.961 . S
H220 C206 0.961 . S
H221 C207 0.958 . S
H222 C207 0.961 . S
H223 C207 0.960 . S
C224 C225 1.391 . S
C224 C226 1.394 . S
C224 H240 0.931 . S
C225 C224 1.391 . S
C225 C229 1.376 . S
C226 C224 1.394 . S
C226 C227 1.369 . S
C226 C230 1.531 . S
C227 C226 1.369 . S
C227 C228 1.410 . S
C227 C235 1.503 . S
C228 C227 1.410 . S
C228 C229 1.392 . S
C228 C231 1.511 . S
C229 C225 1.376 . S
C229 C228 1.392 . S
C229 H241 0.929 . S
C230 C226 1.531 . S
C230 H242 0.960 . S
C230 H243 0.962 . S
C230 H244 0.960 . S
C231 C228 1.511 . S
C231 H245 0.961 . S
C231 H246 0.961 . S
C231 H247 0.961 . S
C232 C233 1.370 . S
C232 C234 1.363 . S
C232 H248 0.931 . S
C233 C232 1.370 . S
C233 C237 1.408 . S
C234 C232 1.363 . S
C234 C235 1.370 . S
C234 C238 1.524 . S
C235 C227 1.503 . S
C235 C234 1.370 . S
C235 C236 1.403 . S
C236 C235 1.403 . S
C236 C237 1.404 . S
C236 C239 1.539 . S
C237 C233 1.408 . S
C237 C236 1.404 . S
C237 H249 0.930 . S
C238 C234 1.524 . S
C238 H250 0.956 . S
C238 H251 0.961 . S
C238 H252 0.961 . S
C239 C236 1.539 . S
C239 H253 0.958 . S
C239 H254 0.961 . S
C239 H255 0.960 . S
H240 C224 0.931 . S
H241 C229 0.929 . S
H242 C230 0.960 . S
H243 C230 0.962 . S
H244 C230 0.960 . S
H245 C231 0.961 . S
H246 C231 0.961 . S
H247 C231 0.961 . S
H248 C232 0.931 . S
H249 C237 0.930 . S
H250 C238 0.956 . S
H251 C238 0.961 . S
H252 C238 0.961 . S
H253 C239 0.958 . S
H254 C239 0.961 . S
H255 C239 0.960 . S
C256 C257 1.391 . S
C256 C258 1.394 . S
C256 H272 0.931 . S
C257 C256 1.391 . S
C257 C261 1.376 . S
C258 C256 1.394 . S
C258 C259 1.369 . S
C258 C262 1.531 . S
C259 C258 1.369 . S
C259 C260 1.410 . S
C259 C267 1.503 . S
C260 C259 1.410 . S
C260 C261 1.392 . S
C260 C263 1.511 . S
C261 C257 1.376 . S
C261 C260 1.392 . S
C261 H273 0.929 . S
C262 C258 1.531 . S
C262 H274 0.960 . S
C262 H275 0.962 . S
C262 H276 0.960 . S
C263 C260 1.511 . S
C263 H277 0.961 . S
C263 H278 0.961 . S
C263 H279 0.961 . S
C264 C265 1.370 . S
C264 C266 1.363 . S
C264 H280 0.931 . S
C265 C264 1.370 . S
C265 C269 1.408 . S
C266 C264 1.363 . S
C266 C267 1.370 . S
C266 C270 1.524 . S
C267 C259 1.503 . S
C267 C266 1.370 . S
C267 C268 1.403 . S
C268 C267 1.403 . S
C268 C269 1.404 . S
C268 C271 1.539 . S
C269 C265 1.408 . S
C269 C268 1.404 . S
C269 H281 0.930 . S
C270 C266 1.524 . S
C270 H282 0.956 . S
C270 H283 0.961 . S
C270 H284 0.961 . S
C271 C268 1.539 . S
C271 H285 0.958 . S
C271 H286 0.961 . S
C271 H287 0.960 . S
H272 C256 0.931 . S
H273 C261 0.929 . S
H274 C262 0.960 . S
H275 C262 0.962 . S
H276 C262 0.960 . S
H277 C263 0.961 . S
H278 C263 0.961 . S
H279 C263 0.961 . S
H280 C264 0.931 . S
H281 C269 0.930 . S
H282 C270 0.956 . S
H283 C270 0.961 . S
H284 C270 0.961 . S
H285 C271 0.958 . S
H286 C271 0.961 . S
H287 C271 0.960 . S
C288 C289 1.394 . S
C288 C290 1.394 . S
C288 H304 0.931 . S
C289 C288 1.394 . S
C289 C293 1.372 1_554 S
C290 C288 1.394 . S
C290 C291 1.369 1_554 S
C290 C294 1.531 . S
C291 C290 1.369 1_556 S
C291 C292 1.410 . S
C291 C299 1.503 1_565 S
C292 C291 1.410 . S
C292 C293 1.392 . S
C292 C295 1.511 . S
C293 C289 1.372 1_556 S
C293 C292 1.392 . S
C293 H305 0.929 . S
C294 C290 1.531 . S
C294 H306 0.960 . S
C294 H307 0.962 . S
C294 H308 0.960 . S
C295 C292 1.511 . S
C295 H309 0.961 . S
C295 H310 0.961 1_565 S
C295 H311 0.961 . S
C296 C297 1.370 1_554 S
C296 C298 1.363 . S
C296 H312 0.931 . S
C297 C296 1.370 1_556 S
C297 C301 1.408 . S
C298 C296 1.363 . S
C298 C299 1.370 1_554 S
C298 C302 1.524 . S
C299 C291 1.503 1_545 S
C299 C298 1.370 1_556 S
C299 C300 1.403 1_545 S
C300 C299 1.403 1_565 S
C300 C301 1.404 1_565 S
C300 C303 1.539 . S
C301 C297 1.408 . S
C301 C300 1.404 1_545 S
C301 H313 0.930 . S
C302 C298 1.524 . S
C302 H314 0.956 . S
C302 H315 0.961 1_554 S
C302 H316 0.961 . S
C303 C300 1.539 . S
C303 H317 0.958 . S
C303 H318 0.961 . S
C303 H319 0.960 . S
H304 C288 0.931 . S
H305 C293 0.929 . S
H306 C294 0.960 . S
H307 C294 0.962 . S
H308 C294 0.960 . S
H309 C295 0.961 . S
H310 C295 0.961 1_545 S
H311 C295 0.961 . S
H312 C296 0.931 . S
H313 C301 0.930 . S
H314 C302 0.956 . S
H315 C302 0.961 1_556 S
H316 C302 0.961 . S
H317 C303 0.958 . S
H318 C303 0.961 . S
H319 C303 0.960 . S
C320 C321 1.405 . S
C320 C322 1.394 . S
C320 H336 0.931 . S
C321 C320 1.405 . S
C321 C325 1.368 1_545 S
C322 C320 1.394 . S
C322 C323 1.369 . S
C322 C326 1.531 . S
C323 C322 1.369 . S
C323 C324 1.410 1_545 S
C323 C331 1.503 . S
C324 C323 1.410 1_565 S
C324 C325 1.392 . S
C324 C327 1.511 . S
C325 C321 1.368 1_565 S
C325 C324 1.392 . S
C325 H337 0.929 . S
C326 C322 1.531 . S
C326 H338 0.960 . S
C326 H339 0.962 . S
C326 H340 0.960 . S
C327 C324 1.511 . S
C327 H341 0.961 . S
C327 H342 0.961 . S
C327 H343 0.961 . S
C328 C329 1.370 1_565 S
C328 C330 1.363 . S
C328 H344 0.931 . S
C329 C328 1.370 1_545 S
C329 C333 1.408 . S
C330 C328 1.363 . S
C330 C331 1.370 1_565 S
C330 C334 1.524 . S
C331 C323 1.503 . S
C331 C330 1.370 1_545 S
C331 C332 1.403 . S
C332 C331 1.403 . S
C332 C333 1.404 . S
C332 C335 1.539 . S
C333 C329 1.408 . S
C333 C332 1.404 . S
C333 H345 0.930 . S
C334 C330 1.524 . S
C334 H346 0.956 . S
C334 H347 0.961 . S
C334 H348 0.961 . S
C335 C332 1.539 . S
C335 H349 0.958 . S
C335 H350 0.961 . S
C335 H351 0.960 . S
H336 C320 0.931 . S
H337 C325 0.929 . S
H338 C326 0.960 . S
H339 C326 0.962 . S
H340 C326 0.960 . S
H341 C327 0.961 . S
H342 C327 0.961 . S
H343 C327 0.961 . S
H344 C328 0.931 . S
H345 C333 0.930 . S
H346 C334 0.956 . S
H347 C334 0.961 . S
H348 C334 0.961 . S
H349 C335 0.958 . S
H350 C335 0.961 . S
H351 C335 0.960 . S
C352 C353 1.391 . S
C352 C354 1.394 . S
C352 H368 0.931 . S
C353 C352 1.391 . S
C353 C357 1.380 . S
C354 C352 1.394 . S
C354 C355 1.369 . S
C354 C358 1.531 . S
C355 C354 1.369 . S
C355 C356 1.410 1_655 S
C355 C363 1.503 1_655 S
C356 C355 1.410 1_455 S
C356 C357 1.392 1_455 S
C356 C359 1.511 1_554 S
C357 C353 1.380 . S
C357 C356 1.392 1_655 S
C357 H369 0.925 1_554 S
C358 C354 1.531 . S
C358 H370 0.960 . S
C358 H371 0.962 1_554 S
C358 H372 0.960 . S
C359 C356 1.511 1_556 S
C359 H373 0.961 . S
C359 H374 0.961 . S
C359 H375 0.961 1_556 S
C360 C361 1.364 1_556 S
C360 C362 1.363 . S
C360 H376 0.931 . S
C361 C360 1.364 1_554 S
C361 C365 1.417 . S
C362 C360 1.363 . S
C362 C363 1.370 1_556 S
C362 C366 1.524 1_455 S
C363 C355 1.503 1_455 S
C363 C362 1.370 1_554 S
C363 C364 1.403 . S
C364 C363 1.403 . S
C364 C365 1.404 . S
C364 C367 1.539 . S
C365 C361 1.417 . S
C365 C364 1.404 . S
C365 H377 0.930 . S
C366 C362 1.524 1_655 S
C366 H378 0.956 . S
C366 H379 0.961 1_655 S
C366 H380 0.961 1_655 S
C367 C364 1.539 . S
C367 H381 0.958 . S
C367 H382 0.961 . S
C367 H383 0.960 . S
H368 C352 0.931 . S
H369 C357 0.925 1_556 S
H370 C358 0.960 . S
H371 C358 0.962 1_556 S
H372 C358 0.960 . S
H373 C359 0.961 . S
H374 C359 0.961 . S
H375 C359 0.961 1_554 S
H376 C360 0.931 . S
H377 C365 0.930 . S
H378 C366 0.956 . S
H379 C366 0.961 1_455 S
H380 C366 0.961 1_455 S
H381 C367 0.958 . S
H382 C367 0.961 . S
H383 C367 0.960 . S
C384 C385 1.391 . S
C384 C386 1.394 . S
C384 H400 0.931 . S
C385 C384 1.391 . S
C385 C389 1.376 . S
C386 C384 1.394 . S
C386 C387 1.369 . S
C386 C390 1.531 . S
C387 C386 1.369 . S
C387 C388 1.410 . S
C387 C395 1.503 1_455 S
C388 C387 1.410 . S
C388 C389 1.392 . S
C388 C391 1.511 1_455 S
C389 C385 1.376 . S
C389 C388 1.392 . S
C389 H401 0.929 . S
C390 C386 1.531 . S
C390 H402 0.960 . S
C390 H403 0.962 . S
C390 H404 0.960 . S
C391 C388 1.511 1_655 S
C391 H405 0.961 1_655 S
C391 H406 0.961 . S
C391 H407 0.961 . S
C392 C393 1.370 . S
C392 C394 1.363 . S
C392 H408 0.931 . S
C393 C392 1.370 . S
C393 C397 1.408 . S
C394 C392 1.363 . S
C394 C395 1.370 . S
C394 C398 1.524 . S
C395 C387 1.503 1_655 S
C395 C394 1.370 . S
C395 C396 1.403 . S
C396 C395 1.403 . S
C396 C397 1.404 . S
C396 C399 1.539 . S
C397 C393 1.408 . S
C397 C396 1.404 . S
C397 H409 0.930 . S
C398 C394 1.524 . S
C398 H410 0.956 1_655 S
C398 H411 0.961 . S
C398 H412 0.961 . S
C399 C396 1.539 . S
C399 H413 0.958 . S
C399 H414 0.961 . S
C399 H415 0.960 . S
H400 C384 0.931 . S
H401 C389 0.929 . S
H402 C390 0.960 . S
H403 C390 0.962 . S
H404 C390 0.960 . S
H405 C391 0.961 1_455 S
H406 C391 0.961 . S
H407 C391 0.961 . S
H408 C392 0.931 . S
H409 C397 0.930 . S
H410 C398 0.956 1_455 S
H411 C398 0.961 . S
H412 C398 0.961 . S
H413 C399 0.958 . S
H414 C399 0.961 . S
H415 C399 0.960 . S
C416 C417 1.383 1_655 S
C416 C418 1.394 . S
C416 H432 0.931 . S
C417 C416 1.383 1_455 S
C417 C421 1.386 1_545 S
C418 C416 1.394 . S
C418 C419 1.369 1_655 S
C418 C422 1.531 . S
C419 C418 1.369 1_455 S
C419 C420 1.410 1_545 S
C419 C427 1.503 . S
C420 C419 1.410 1_565 S
C420 C421 1.392 . S
C420 C423 1.511 . S
C421 C417 1.386 1_565 S
C421 C420 1.392 . S
C421 H433 0.929 . S
C422 C418 1.531 . S
C422 H434 0.960 . S
C422 H435 0.962 . S
C422 H436 0.960 . S
C423 C420 1.511 . S
C423 H437 0.961 . S
C423 H438 0.961 . S
C423 H439 0.961 . S
C424 C425 1.367 1_665 S
C424 C426 1.363 . S
C424 H440 0.931 . S
C425 C424 1.367 1_445 S
C425 C429 1.411 . S
C426 C424 1.363 . S
C426 C427 1.370 1_665 S
C426 C430 1.524 . S
C427 C419 1.503 . S
C427 C426 1.370 1_445 S
C427 C428 1.403 . S
C428 C427 1.403 . S
C428 C429 1.404 . S
C428 C431 1.539 . S
C429 C425 1.411 . S
C429 C428 1.404 . S
C429 H441 0.930 . S
C430 C426 1.524 . S
C430 H442 0.956 . S
C430 H443 0.961 . S
C430 H444 0.961 . S
C431 C428 1.539 . S
C431 H445 0.958 . S
C431 H446 0.961 . S
C431 H447 0.960 . S
H432 C416 0.931 . S
H433 C421 0.929 . S
H434 C422 0.960 . S
H435 C422 0.962 . S
H436 C422 0.960 . S
H437 C423 0.961 . S
H438 C423 0.961 . S
H439 C423 0.961 . S
H440 C424 0.931 . S
H441 C429 0.930 . S
H442 C430 0.956 . S
H443 C430 0.961 . S
H444 C430 0.961 . S
H445 C431 0.958 . S
H446 C431 0.961 . S
H447 C431 0.960 . S
C448 C449 1.402 . S
C448 C450 1.394 . S
C448 H464 0.931 . S
C449 C448 1.402 . S
C449 C453 1.365 1_465 S
C450 C448 1.394 . S
C450 C451 1.369 . S
C450 C454 1.531 . S
C451 C450 1.369 . S
C451 C452 1.410 1_465 S
C451 C459 1.503 . S
C452 C451 1.410 1_645 S
C452 C453 1.392 . S
C452 C455 1.511 . S
C453 C449 1.365 1_645 S
C453 C452 1.392 . S
C453 H465 0.929 . S
C454 C450 1.531 . S
C454 H466 0.960 . S
C454 H467 0.962 . S
C454 H468 0.960 . S
C455 C452 1.511 . S
C455 H469 0.961 . S
C455 H470 0.961 . S
C455 H471 0.961 1_545 S
C456 C457 1.370 1_545 S
C456 C458 1.363 . S
C456 H472 0.931 . S
C457 C456 1.370 1_565 S
C457 C461 1.408 1_455 S
C458 C456 1.363 . S
C458 C459 1.370 1_545 S
C458 C462 1.524 . S
C459 C451 1.503 . S
C459 C458 1.370 1_565 S
C459 C460 1.403 1_455 S
C460 C459 1.403 1_655 S
C460 C461 1.404 . S
C460 C463 1.539 . S
C461 C457 1.408 1_655 S
C461 C460 1.404 . S
C461 H473 0.930 . S
C462 C458 1.524 . S
C462 H474 0.956 . S
C462 H475 0.961 1_455 S
C462 H476 0.961 . S
C463 C460 1.539 . S
C463 H477 0.958 1_655 S
C463 H478 0.961 . S
C463 H479 0.960 . S
H464 C448 0.931 . S
H465 C453 0.929 . S
H466 C454 0.960 . S
H467 C454 0.962 . S
H468 C454 0.960 . S
H469 C455 0.961 . S
H470 C455 0.961 . S
H471 C455 0.961 1_565 S
H472 C456 0.931 . S
H473 C461 0.930 . S
H474 C462 0.956 . S
H475 C462 0.961 1_655 S
H476 C462 0.961 . S
H477 C463 0.958 1_455 S
H478 C463 0.961 . S
H479 C463 0.960 . S
C480 C481 1.391 . S
C480 C482 1.394 . S
C480 H496 0.931 . S
C481 C480 1.391 . S
C481 C485 1.376 . S
C482 C480 1.394 . S
C482 C483 1.369 . S
C482 C486 1.531 . S
C483 C482 1.369 . S
C483 C484 1.410 . S
C483 C491 1.503 . S
C484 C483 1.410 . S
C484 C485 1.392 . S
C484 C487 1.511 . S
C485 C481 1.376 . S
C485 C484 1.392 . S
C485 H497 0.929 . S
C486 C482 1.531 . S
C486 H498 0.960 . S
C486 H499 0.962 . S
C486 H500 0.960 . S
C487 C484 1.511 . S
C487 H501 0.961 . S
C487 H502 0.961 . S
C487 H503 0.961 . S
C488 C489 1.370 . S
C488 C490 1.363 . S
C488 H504 0.931 . S
C489 C488 1.370 . S
C489 C493 1.408 . S
C490 C488 1.363 . S
C490 C491 1.370 . S
C490 C494 1.524 . S
C491 C483 1.503 . S
C491 C490 1.370 . S
C491 C492 1.403 . S
C492 C491 1.403 . S
C492 C493 1.404 . S
C492 C495 1.539 . S
C493 C489 1.408 . S
C493 C492 1.404 . S
C493 H505 0.930 . S
C494 C490 1.524 . S
C494 H506 0.956 . S
C494 H507 0.961 . S
C494 H508 0.961 . S
C495 C492 1.539 . S
C495 H509 0.958 . S
C495 H510 0.961 . S
C495 H511 0.960 . S
H496 C480 0.931 . S
H497 C485 0.929 . S
H498 C486 0.960 . S
H499 C486 0.962 . S
H500 C486 0.960 . S
H501 C487 0.961 . S
H502 C487 0.961 . S
H503 C487 0.961 . S
H504 C488 0.931 . S
H505 C493 0.930 . S
H506 C494 0.956 . S
H507 C494 0.961 . S
H508 C494 0.961 . S
H509 C495 0.958 . S
H510 C495 0.961 . S
H511 C495 0.960 . S
C512 C513 1.391 . S
C512 C514 1.394 . S
C512 H528 0.931 . S
C513 C512 1.391 . S
C513 C517 1.376 . S
C514 C512 1.394 . S
C514 C515 1.369 . S
C514 C518 1.531 . S
C515 C514 1.369 . S
C515 C516 1.410 . S
C515 C523 1.503 . S
C516 C515 1.410 . S
C516 C517 1.392 . S
C516 C519 1.511 . S
C517 C513 1.376 . S
C517 C516 1.392 . S
C517 H529 0.929 . S
C518 C514 1.531 . S
C518 H530 0.960 . S
C518 H531 0.962 . S
C518 H532 0.960 . S
C519 C516 1.511 . S
C519 H533 0.961 . S
C519 H534 0.961 . S
C519 H535 0.961 . S
C520 C521 1.370 . S
C520 C522 1.363 . S
C520 H536 0.931 . S
C521 C520 1.370 . S
C521 C525 1.408 . S
C522 C520 1.363 . S
C522 C523 1.370 . S
C522 C526 1.524 . S
C523 C515 1.503 . S
C523 C522 1.370 . S
C523 C524 1.403 . S
C524 C523 1.403 . S
C524 C525 1.404 . S
C524 C527 1.539 . S
C525 C521 1.408 . S
C525 C524 1.404 . S
C525 H537 0.930 . S
C526 C522 1.524 . S
C526 H538 0.956 . S
C526 H539 0.961 . S
C526 H540 0.961 . S
C527 C524 1.539 . S
C527 H541 0.958 . S
C527 H542 0.961 . S
C527 H543 0.960 . S
H528 C512 0.931 . S
H529 C517 0.929 . S
H530 C518 0.960 . S
H531 C518 0.962 . S
H532 C518 0.960 . S
H533 C519 0.961 . S
H534 C519 0.961 . S
H535 C519 0.961 . S
H536 C520 0.931 . S
H537 C525 0.930 . S
H538 C526 0.956 . S
H539 C526 0.961 . S
H540 C526 0.961 . S
H541 C527 0.958 . S
H542 C527 0.961 . S
H543 C527 0.960 . S
C161 C90 3.569 1_554 S
C169 C19 3.582 1_556 S
C193 C99 3.578 1_556 S
C201 C10 3.577 . S
C225 C55 0.259 . S
C233 C126 0.143 . S
C257 C46 0.250 . S
C265 C135 0.159 . S
C289 C15 1.011 . S
C297 C6 0.903 . S
C321 C59 4.858 1_545 S
C329 C50 4.872 . S
C353 C95 0.955 . S
C361 C86 0.922 1_554 S
C385 C130 4.867 . S
C393 C139 4.870 . S
C417 C49 1.467 1_545 S
C425 C18 1.440 . S
C449 C9 1.424 1_455 S
C457 C58 1.463 1_465 S
C481 C129 1.471 . S
C489 C98 1.439 . S
C513 C138 1.436 . S
C521 C89 1.445 . S
