# Generated by pormake.
# Topology uov, (4)-cn, num edge types: 1
# Building blocks:
#     Node 0, Type 0, BuildingBlock: AZAVOO_clean_sbu_0, # of connection points: 4
#     Node 1, Type 0, BuildingBlock: AZAVOO_clean_sbu_0, # of connection points: 4
#     Node 2, Type 0, BuildingBlock: AZAVOO_clean_sbu_0, # of connection points: 4
#     Node 3, Type 0, BuildingBlock: AZAVOO_clean_sbu_0, # of connection points: 4
#     Node 4, Type 0, BuildingBlock: AZAVOO_clean_sbu_0, # of connection points: 4
#     Node 5, Type 0, BuildingBlock: AZAVOO_clean_sbu_0, # of connection points: 4
#     Node 6, Type 0, BuildingBlock: AZAVOO_clean_sbu_0, # of connection points: 4
#     Node 7, Type 0, BuildingBlock: AZAVOO_clean_sbu_0, # of connection points: 4
#     Edge 8, Type (0, 0), BuildingBlock: EZIPEK_clean_linker_0, # of connection points: 2
#     Edge 9, Type (0, 0), BuildingBlock: EZIPEK_clean_linker_0, # of connection points: 2
#     Edge 10, Type (0, 0), BuildingBlock: EZIPEK_clean_linker_0, # of connection points: 2
#     Edge 11, Type (0, 0), BuildingBlock: EZIPEK_clean_linker_0, # of connection points: 2
#     Edge 12, Type (0, 0), BuildingBlock: EZIPEK_clean_linker_0, # of connection points: 2
#     Edge 13, Type (0, 0), BuildingBlock: EZIPEK_clean_linker_0, # of connection points: 2
#     Edge 14, Type (0, 0), BuildingBlock: EZIPEK_clean_linker_0, # of connection points: 2
#     Edge 15, Type (0, 0), BuildingBlock: EZIPEK_clean_linker_0, # of connection points: 2
#     Edge 16, Type (0, 0), BuildingBlock: EZIPEK_clean_linker_0, # of connection points: 2
#     Edge 17, Type (0, 0), BuildingBlock: EZIPEK_clean_linker_0, # of connection points: 2
#     Edge 18, Type (0, 0), BuildingBlock: EZIPEK_clean_linker_0, # of connection points: 2
#     Edge 19, Type (0, 0), BuildingBlock: EZIPEK_clean_linker_0, # of connection points: 2
#     Edge 20, Type (0, 0), BuildingBlock: EZIPEK_clean_linker_0, # of connection points: 2
#     Edge 21, Type (0, 0), BuildingBlock: EZIPEK_clean_linker_0, # of connection points: 2
#     Edge 22, Type (0, 0), BuildingBlock: EZIPEK_clean_linker_0, # of connection points: 2
#     Edge 23, Type (0, 0), BuildingBlock: EZIPEK_clean_linker_0, # of connection points: 2
# Relax obj value: 0.227
# Max RMSD: 0.250
# Mean RMSD: 0.232
data_MOF--net-uov--node1-AZAVOO_clean_sbu_0--edge1-EZIPEK_clean_linker_0
_symmetry_space_group_name_H-M    P1
_symmetry_Int_Tables_number       1
_symmetry_cell_setting            triclinic
loop_
_symmetry_equiv_pos_as_xyz
'x, y, z'
_cell_length_a     22.348102
_cell_length_b     21.698778
_cell_length_c     31.738605
_cell_angle_alpha  90.083095
_cell_angle_beta   90.298419
_cell_angle_gamma 92.20549
loop_
_atom_site_label
_atom_site_type_symbol
_atom_site_fract_x
_atom_site_fract_y
_atom_site_fract_z
_atom_type_partial_charge
Mg0 Mg 0.92023 0.21197 0.64412 0.0
O1 O -0.0043 0.19921 0.59632 0.0
O2 O 0.96254 0.22639 0.5327 0.0
Mg3 Mg 0.86808 0.26162 0.53984 0.0
C4 C 0.00307 0.2055 0.5567 0.0
C5 C 0.98948 0.14507 0.71585 0.0
O6 O 0.94969 0.1011 0.70625 0.0
O7 O 0.94046 0.31548 0.64412 0.0
O8 O 0.9053 0.34226 0.58073 0.0
O9 O 0.88131 0.11833 0.62934 0.0
O10 O 0.8575 0.2022 0.5951 0.0
C11 C 0.92978 0.35593 0.61619 0.0
C12 C 0.85434 0.14301 0.59775 0.0
O13 O 0.98827 0.19647 0.69668 0.0
Mg14 Mg 0.22723 0.05412 0.38742 0.0
O15 O 0.22881 0.97866 0.43833 0.0
O16 O 0.26833 0.01877 0.49734 0.0
Mg17 Mg 0.29791 0.11818 0.48329 0.0
C18 C 0.24617 0.97281 0.47659 0.0
C19 C 0.22561 0.94189 0.31827 0.0
O20 O 0.28219 0.93336 0.32694 0.0
O21 O 0.32588 0.03892 0.37758 0.0
O22 O 0.36571 0.07745 0.43743 0.0
O23 O 0.13955 0.08402 0.41031 0.0
O24 O 0.2266 0.11998 0.43557 0.0
C25 C 0.37058 0.0506 0.40182 0.0
C26 C 0.16895 0.11639 0.43831 0.0
O27 O 0.19786 0.98417 0.33673 0.0
Mg28 Mg 0.02054 0.75836 0.61647 0.0
O29 O 0.95736 0.76831 0.56001 0.0
O30 O 0.99081 0.71078 0.50708 0.0
Mg31 Mg 0.0819 0.67389 0.52749 0.0
C32 C 0.95278 0.74668 0.52265 0.0
C33 C 0.94967 0.78114 0.69956 0.0
O34 O 0.98678 0.73996 0.71301 0.0
O35 O 0.98719 0.65831 0.62696 0.0
O36 O 0.0333 0.61068 0.57434 0.0
O37 O 0.07219 0.84264 0.59608 0.0
O38 O 0.09323 0.74906 0.57466 0.0
C39 C 0.00054 0.60951 0.6071 0.0
C40 C 0.104 0.80791 0.57261 0.0
O41 O 0.9504 0.79691 0.66101 0.0
Mg42 Mg 0.7442 0.94215 0.36405 0.0
O43 O 0.76213 -0.00514 0.42778 0.0
O44 O 0.72112 0.93636 0.47932 0.0
Mg45 Mg 0.67898 0.8499 0.45009 0.0
C46 C 0.75046 0.98443 0.46681 0.0
C47 C 0.7741 0.01483 0.28446 0.0
O48 O 0.75041 0.96275 0.26971 0.0
O49 O 0.6477 0.97032 0.36551 0.0
O50 O 0.61079 0.91192 0.41793 0.0
O51 O 0.82976 0.89584 0.37014 0.0
O52 O 0.74556 0.86136 0.39962 0.0
C53 C 0.60469 0.9526 0.3893 0.0
C54 C 0.80336 0.86055 0.39763 0.0
O55 O 0.77337 0.02473 0.32392 0.0
Mg56 Mg 0.01683 0.22686 0.12132 0.0
O57 O 0.97656 0.20223 0.05568 0.0
O58 O 0.0371 0.24222 0.00682 0.0
Mg59 Mg 0.11938 0.28667 0.04016 0.0
C60 C 0.98874 0.21313 0.01698 0.0
C61 C 0.93971 0.1663 0.18692 0.0
O62 O -0.00478 0.16263 0.20022 0.0
O63 O 0.99221 0.32758 0.11464 0.0
O64 O 0.06112 0.36085 0.06786 0.0
O65 O 0.0713 0.14248 0.12225 0.0
O66 O 0.10269 0.23219 0.09746 0.0
C67 C 0.0182 0.37064 0.09317 0.0
C68 C 0.11429 0.17606 0.10597 0.0
O69 O 0.92969 0.195 0.15288 0.0
Mg70 Mg 0.26309 0.05783 0.91066 0.0
O71 O 0.20287 0.97238 0.93041 0.0
O72 O 0.12381 0.01138 0.96292 0.0
Mg73 Mg 0.12871 0.11611 0.96089 0.0
C74 C 0.15348 0.96564 0.9506 0.0
C75 C 0.37896 0.03111 0.87271 0.0
O76 O 0.38163 0.08837 0.88625 0.0
O77 O 0.20115 0.07519 0.85415 0.0
O78 O 0.12322 0.11172 0.88909 0.0
O79 O 0.30538 0.05991 0.97501 0.0
O80 O 0.22509 0.11039 0.9568 0.0
C81 C 0.14883 0.09722 0.85482 0.0
C82 C 0.26146 0.09367 0.9856 0.0
O83 O 0.329 0.0009 0.87411 0.0
Mg84 Mg 0.97827 0.76954 0.13765 0.0
O85 O 0.02423 0.7932 0.07374 0.0
O86 O 0.96012 0.76649 0.02252 0.0
Mg87 Mg 0.87398 0.72665 0.05186 0.0
C88 C 0.01129 0.78797 0.03448 0.0
C89 C 0.05974 0.81391 0.20808 0.0
O90 O 0.00546 0.82493 0.22102 0.0
O91 O 0.99206 0.66705 0.12758 0.0
O92 O 0.92512 0.64449 0.07643 0.0
O93 O 0.93664 0.86141 0.13922 0.0
O94 O 0.89582 0.77791 0.10961 0.0
C95 C 0.96518 0.62857 0.10269 0.0
C96 C 0.89447 0.83629 0.11622 0.0
O97 O 0.06637 0.78729 0.17283 0.0
Mg98 Mg 0.73608 0.93706 0.9073 0.0
O99 O 0.79741 0.02616 0.91554 0.0
O100 O 0.88445 -0.00734 0.94025 0.0
Mg101 Mg 0.8818 0.88801 0.94492 0.0
C102 C 0.85089 0.03636 0.92948 0.0
C103 C 0.61948 0.94656 0.86106 0.0
O104 O 0.63019 0.88745 0.86162 0.0
O105 O 0.78442 0.91114 0.84646 0.0
O106 O 0.87077 0.87845 0.87297 0.0
O107 O 0.70756 0.94538 0.97455 0.0
O108 O 0.78543 0.8939 0.95309 0.0
C109 C 0.83573 0.88793 0.84193 0.0
C110 C 0.75438 0.91478 0.98361 0.0
O111 O 0.66053 0.9848 0.87343 0.0
C112 C 0.91799 0.52916 0.61725 0.0
C113 C 0.97905 0.54809 0.62193 0.0
C114 C 0.00727 0.4408 0.62981 0.0
C115 C 0.94631 0.42157 0.6244 0.0
N116 N 0.84229 0.44695 0.62546 0.0
N117 N 0.07822 0.52525 0.64543 0.0
C118 C 0.90116 0.46576 0.62229 0.0
C119 C 0.02242 0.5048 0.6327 0.0
N120 N 0.87678 0.57085 0.60547 0.0
N121 N 0.05112 0.39856 0.62915 0.0
H122 H 0.09008 0.57212 0.64808 0.0
H123 H 0.11032 0.49629 0.65735 0.0
H124 H 0.04231 0.3512 0.62647 0.0
H125 H 0.09661 0.41072 0.62794 0.0
H126 H 0.83311 0.55838 0.59642 0.0
H127 H 0.88719 0.61786 0.60232 0.0
H128 H 0.80754 0.47735 0.62797 0.0
H129 H 0.82876 0.40082 0.62976 0.0
C130 C 0.53827 0.04436 0.38796 0.0
C131 C 0.54512 0.97965 0.38419 0.0
C132 C 0.43653 0.96183 0.38833 0.0
C133 C 0.42949 0.02649 0.39085 0.0
N134 N 0.47144 0.12955 0.3825 0.0
N135 N 0.50041 0.87959 0.36767 0.0
C136 C 0.47976 0.06786 0.38718 0.0
C137 C 0.49401 0.93931 0.38009 0.0
N138 N 0.58701 0.08313 0.3948 0.0
N139 N 0.3894 0.92165 0.39657 0.0
H140 H 0.54192 0.86205 0.3603 0.0
H141 H 0.46424 0.84971 0.3603 0.0
H142 H 0.34669 0.93574 0.40406 0.0
H143 H 0.39396 0.87428 0.39978 0.0
H144 H 0.58378 0.12935 0.40308 0.0
H145 H 0.63079 0.06853 0.39529 0.0
H146 H 0.50596 0.16142 0.37545 0.0
H147 H 0.42899 0.14798 0.38158 0.0
C148 C 0.94314 0.45443 0.098 0.0
C149 C 0.00309 0.43568 0.10041 0.0
C150 C 0.03892 0.54366 0.10371 0.0
C151 C 0.97887 0.56234 0.10474 0.0
N152 N 0.87446 0.53362 0.11592 0.0
N153 N 0.10578 0.46211 0.11978 0.0
C154 C 0.93106 0.51713 0.10589 0.0
C155 C 0.05034 0.48021 0.10772 0.0
N156 N 0.89805 0.41355 0.08629 0.0
N157 N 0.085 0.58555 0.09661 0.0
H158 H 0.11525 0.41614 0.12543 0.0
H159 H 0.14007 0.49326 0.12899 0.0
H160 H 0.07879 0.63225 0.09125 0.0
H161 H 0.12884 0.57267 0.09153 0.0
H162 H 0.85461 0.42687 0.07996 0.0
H163 H 0.90508 0.36758 0.0789 0.0
H164 H 0.8393 0.5015 0.12077 0.0
H165 H 0.86428 0.57854 0.12419 0.0
C166 C 0.47135 0.01616 0.82977 0.0
C167 C 0.43603 0.00025 0.86552 0.0
C168 C 0.52151 0.95097 0.89819 0.0
C169 C 0.55631 0.9649 0.86183 0.0
N170 N 0.5631 0.00184 0.79055 0.0
N171 N 0.42348 0.9432 0.93036 0.0
C172 C 0.5308 -0.00515 0.82679 0.0
C173 C 0.45976 0.96424 0.89846 0.0
N174 N 0.44831 0.05281 0.79919 0.0
N175 N 0.54832 0.92818 0.93347 0.0
H176 H 0.37867 0.95404 0.93305 0.0
H177 H 0.43631 0.91076 0.95245 0.0
H178 H 0.59347 0.91792 0.93493 0.0
H179 H 0.52734 0.9243 0.9626 0.0
H180 H 0.47352 0.0722 0.77476 0.0
H181 H 0.40391 0.06609 0.79931 0.0
H182 H 0.54538 0.01768 0.76236 0.0
H183 H 0.60703 0.98771 0.78788 0.0
C184 C 0.10787 0.1001 0.50377 0.0
C185 C 0.13704 0.14133 0.47503 0.0
C186 C 0.09039 0.22867 0.50924 0.0
C187 C 0.0596 0.1868 0.53666 0.0
N188 N 0.05999 0.08777 0.57142 0.0
N189 N 0.16721 0.24549 0.45603 0.0
C190 C 0.07523 0.12418 0.53779 0.0
C191 C 0.13243 0.20602 0.47992 0.0
N192 N 0.10923 0.03776 0.49785 0.0
N193 N 0.07821 0.28988 0.51085 0.0
H194 H 0.19661 0.23038 0.43317 0.0
H195 H 0.17006 0.293 0.4606 0.0
H196 H 0.0517 0.3082 0.53442 0.0
H197 H 0.09295 0.32218 0.48864 0.0
H198 H 0.08263 0.00609 0.51475 0.0
H199 H 0.1331 0.01761 0.47379 0.0
H200 H 0.07494 0.04322 0.57526 0.0
H201 H 0.03905 0.10419 0.59814 0.0
C202 C 0.19712 0.86644 0.47907 0.0
C203 C 0.23067 0.91408 0.4996 0.0
C204 C 0.19931 0.87236 0.56798 0.0
C205 C 0.15376 0.83603 0.5471 0.0
N206 N 0.11061 0.79754 0.48173 0.0
N207 N 0.29034 0.93663 0.56128 0.0
C208 C 0.15402 0.83143 0.50236 0.0
C209 C 0.24005 0.9095 0.54364 0.0
N210 N 0.20877 0.85271 0.43801 0.0
N211 N 0.20261 0.87235 0.611 0.0
H212 H 0.32431 0.95681 0.54287 0.0
H213 H 0.3023 0.9323 0.59282 0.0
H214 H 0.17716 0.84173 0.62959 0.0
H215 H 0.22921 0.90363 0.62839 0.0
H216 H 0.18881 0.81511 0.42219 0.0
H217 H 0.24473 0.87368 0.42195 0.0
H218 H 0.10417 0.79883 0.44921 0.0
H219 H 0.07795 0.77237 0.49772 0.0
C220 C 0.82675 0.76918 0.44362 0.0
C221 C 0.83984 0.83103 0.43082 0.0
C222 C 0.92748 0.83603 0.47792 0.0
C223 C 0.91158 0.7762 0.493 0.0
N224 N 0.84241 0.68869 0.49536 0.0
N225 N 0.8959 0.92779 0.4432 0.0
C226 C 0.85999 0.74361 0.47741 0.0
C227 C 0.88872 0.86551 0.44962 0.0
N228 N 0.785 0.73374 0.42202 0.0
N229 N 0.98029 0.86484 0.49024 0.0
H230 H 0.86654 0.95373 0.42583 0.0
H231 H 0.92667 0.95597 0.45971 0.0
H232 H 0.00787 0.84806 0.51375 0.0
H233 H -0.00103 0.90357 0.47517 0.0
H234 H 0.7777 0.68667 0.42709 0.0
H235 H 0.76128 0.74994 0.39621 0.0
H236 H 0.80183 0.66555 0.48856 0.0
H237 H 0.86641 0.66871 0.51976 0.0
C238 C 0.82335 0.00557 0.52582 0.0
C239 C 0.7765 0.02619 0.4997 0.0
C240 C 0.77469 0.12113 0.54164 0.0
C241 C 0.82772 0.10414 0.56312 0.0
N242 N 0.91265 0.03792 0.56332 0.0
N243 N 0.71176 0.10756 0.47953 0.0
C244 C 0.85503 0.04857 0.55174 0.0
C245 C 0.75393 0.08562 0.50627 0.0
N246 N 0.83743 0.94492 0.52685 0.0
N247 N 0.74182 0.16831 0.5564 0.0
H248 H 0.69344 0.08144 0.45474 0.0
H249 H 0.69834 0.15302 0.48021 0.0
H250 H 0.75252 0.19255 0.58394 0.0
H251 H 0.70013 0.17874 0.54406 0.0
H252 H 0.86796 0.9278 0.54844 0.0
H253 H 0.81487 0.91078 0.50926 0.0
H254 H 0.93555 8e-05 0.55244 0.0
H255 H 0.94004 0.07072 0.57866 0.0
C256 C 0.84751 0.13857 0.96756 0.0
C257 C 0.87542 0.10024 0.9378 0.0
C258 C 0.96715 0.1655 0.94436 0.0
C259 C 0.94607 0.18839 0.9834 0.0
N260 N 0.86003 0.21252 0.02487 0.0
N261 N 0.95923 0.08333 0.89255 0.0
C262 C 0.88396 0.18018 0.99251 0.0
C263 C 0.93429 0.11626 0.92422 0.0
N264 N 0.78666 0.13575 0.97164 0.0
N265 N 0.01583 0.19257 0.92509 0.0
H266 H 0.93459 0.05034 0.87505 0.0
H267 H 0.00445 0.08726 0.88483 0.0
H268 H 0.03685 0.23333 0.93563 0.0
H269 H 0.02883 0.18073 0.8948 0.0
H270 H 0.7631 0.16517 0.99077 0.0
H271 H 0.75877 0.10796 0.95264 0.0
H272 H 0.81783 0.20273 0.03747 0.0
H273 H 0.8831 0.2497 0.03924 0.0
C274 C 0.21558 0.06475 0.05442 0.0
C275 C 0.24812 0.10864 0.02967 0.0
C276 C 0.21705 0.19107 0.07573 0.0
C277 C 0.17158 0.15022 0.09148 0.0
N278 N 0.15158 0.04612 0.11516 0.0
N279 N 0.28921 0.21161 0.02024 0.0
C280 C 0.17819 0.08591 0.08707 0.0
C281 C 0.253 0.17112 0.04218 0.0
N282 N 0.21842 0.00362 0.0451 0.0
N283 N 0.22664 0.24767 0.09391 0.0
H284 H 0.31807 0.19695 -0.00321 0.0
H285 H 0.28924 0.25923 0.02432 0.0
H286 H 0.20367 0.26052 0.1209 0.0
H287 H 0.26153 0.27834 0.08556 0.0
H288 H 0.19045 0.96928 0.05805 0.0
H289 H 0.24941 0.9878 0.02364 0.0
H290 H 0.15633 -0.00138 0.11474 0.0
H291 H 0.13102 0.06169 0.14236 0.0
C292 C 0.03473 0.83824 0.96346 0.0
C293 C 0.05497 0.81357 0.00232 0.0
C294 C 0.15321 0.86455 0.98993 0.0
C295 C 0.12668 0.90334 0.95972 0.0
N296 N 0.04307 0.92307 0.91404 0.0
N297 N 0.14171 0.78541 0.04266 0.0
C298 C 0.06782 0.88847 0.94506 0.0
C299 C 0.11678 0.82119 0.01245 0.0
N300 N 0.98715 0.81125 0.94242 0.0
N301 N 0.21295 0.86811 -0.00166 0.0
H302 H 0.11833 0.7482 0.05652 0.0
H303 H 0.18657 0.79089 0.05175 0.0
H304 H 0.24347 0.89631 0.98182 0.0
H305 H 0.24347 0.89631 0.98182 0.0
H306 H 0.97366 0.82531 0.91259 0.0
H307 H 0.96783 0.76875 0.95104 0.0
H308 H -0.00223 0.91963 0.90602 0.0
H309 H 0.06765 0.95707 0.89761 0.0
C310 C 0.75819 0.85579 0.05095 0.0
C311 C 0.77555 0.90835 0.0273 0.0
C312 C 0.86285 0.92802 0.07239 0.0
C313 C 0.8485 0.87193 0.09407 0.0
N314 N 0.7702 0.79973 0.11619 0.0
N315 N 0.82507 0.00811 0.02747 0.0
C316 C 0.79164 0.84177 0.0875 0.0
C317 C 0.82158 0.94913 0.04212 0.0
N318 N 0.71158 0.81809 0.03754 0.0
N319 N 0.91659 0.95918 0.07797 0.0
H320 H 0.79267 0.02431 0.00697 0.0
H321 H 0.85486 0.04197 0.03944 0.0
H322 H 0.94802 0.94858 0.10073 0.0
H323 H 0.93128 -0.00501 0.05827 0.0
H324 H 0.7013 0.77514 0.05084 0.0
H325 H 0.68485 0.82899 0.01173 0.0
H326 H 0.72731 0.77929 0.11457 0.0
H327 H 0.79328 0.79067 0.14407 0.0
C328 C 0.04554 0.17886 0.78146 0.0
C329 C 0.03523 0.13466 0.749 0.0
C330 C 0.10347 0.06498 0.78442 0.0
C331 C 0.11668 0.11119 0.81511 0.0
N332 N 0.11509 0.21885 0.83417 0.0
N333 N 0.0681 0.04345 0.71344 0.0
C334 C 0.0925 0.17036 0.81074 0.0
C335 C 0.06838 0.07997 0.74856 0.0
N336 N 0.00848 0.22702 0.78621 0.0
N337 N 0.12174 0.00623 0.79025 0.0
H338 H 0.04499 0.05413 0.68594 0.0
H339 H 0.09588 0.00628 0.7101 0.0
H340 H 0.14637 -0.00708 0.81644 0.0
H341 H 0.1083 0.96955 0.77076 0.0
H342 H 0.01093 0.25664 0.8121 0.0
H343 H 0.97119 0.23347 0.7671 0.0
H344 H 0.10242 0.26408 0.82951 0.0
H345 H 0.15112 0.21486 0.85491 0.0
C346 C 0.14405 0.80911 0.26016 0.0
C347 C 0.11148 0.84336 0.23047 0.0
C348 C 0.16858 0.93752 0.25054 0.0
C349 C 0.19373 0.90552 0.28487 0.0
N350 N 0.20478 0.81114 0.3238 0.0
N351 N 0.09045 0.94028 0.19747 0.0
C352 C 0.18224 0.84105 0.28969 0.0
C353 C 0.12352 0.90754 0.22538 0.0
N354 N 0.138 0.7462 0.26022 0.0
N355 N 0.18901 -0.00382 0.24145 0.0
H356 H 0.05956 0.91952 0.17659 0.0
H357 H 0.09104 0.98826 0.19672 0.0
H358 H 0.2231 0.01884 0.25874 0.0
H359 H 0.17663 0.01999 0.21451 0.0
H360 H 0.16455 0.71796 0.27834 0.0
H361 H 0.10957 0.7219 0.23935 0.0
H362 H 0.19217 0.76607 0.33196 0.0
H363 H 0.23365 0.8326 0.34565 0.0
C364 C 0.86007 0.78565 0.74646 0.0
C365 C 0.91318 0.81445 0.73045 0.0
C366 C 0.90289 0.90088 0.77962 0.0
C367 C 0.85534 0.86761 0.79972 0.0
N368 N 0.78836 0.77802 0.80361 0.0
N369 N 0.98674 0.89867 0.73145 0.0
C370 C 0.83312 0.81031 0.78308 0.0
C371 C 0.93458 0.87237 0.74652 0.0
N372 N 0.83533 0.73501 0.72632 0.0
N373 N 0.91719 0.95998 0.79215 0.0
H374 H 0.01037 0.88017 0.70647 0.0
H375 H 0.00855 0.93687 0.74518 0.0
H376 H 0.89418 0.98181 0.81612 0.0
H377 H 0.94778 0.98922 0.77663 0.0
H378 H 0.79362 0.71505 0.73374 0.0
H379 H 0.85444 0.7159 0.69961 0.0
H380 H 0.775 0.73277 0.7963 0.0
H381 H 0.76636 0.79542 0.8297 0.0
C382 C 0.80149 0.11694 0.25059 0.0
C383 C 0.81345 0.05387 0.25712 0.0
C384 C 0.89912 0.0633 0.20947 0.0
C385 C 0.89215 0.12786 0.20747 0.0
N386 N 0.83984 0.21795 0.22836 0.0
N387 N 0.88078 0.96989 0.2493 0.0
C388 C 0.84384 0.15527 0.22834 0.0
C389 C 0.86399 0.02763 0.23813 0.0
N390 N 0.74914 0.13972 0.26486 0.0
N391 N 0.93854 0.0358 0.18325 0.0
H392 H 0.85806 0.94272 0.27156 0.0
H393 H 0.9209 0.95141 0.2398 0.0
H394 H 0.96413 0.06031 0.16103 0.0
H395 H 0.9412 0.98814 0.18043 0.0
H396 H 0.73488 0.18355 0.25747 0.0
H397 H 0.71745 0.11288 0.28138 0.0
H398 H 0.80973 0.24127 0.24688 0.0
H399 H 0.86946 0.24719 0.21183 0.0
loop_
_geom_bond_atom_site_label_1
_geom_bond_atom_site_label_2
_geom_bond_distance
_geom_bond_site_symmetry_2
_ccdc_geom_bond_type
Mg0 O1 2.028 . S
Mg0 O7 1.986 . S
Mg0 O9 2.114 1_455 S
Mg0 O10 2.251 1_455 S
Mg0 O13 2.010 . S
O1 Mg0 2.028 . S
O1 C4 1.250 . S
O2 Mg3 2.028 1_455 S
O2 C4 1.248 . S
Mg3 O2 2.028 1_655 S
Mg3 O8 2.032 1_655 S
Mg3 O10 2.079 . S
C4 O1 1.250 . S
C4 O2 1.248 . S
C5 O6 1.264 . S
C5 O13 1.249 . S
O6 C5 1.264 . S
O7 Mg0 1.986 . S
O7 C11 1.246 . S
O8 Mg3 2.032 1_455 S
O8 C11 1.259 . S
O9 Mg0 2.114 1_655 S
O9 C12 1.252 . S
O10 Mg0 2.251 1_655 S
O10 Mg3 2.079 . S
O10 C12 1.273 . S
C11 O7 1.246 . S
C11 O8 1.259 . S
C12 O9 1.252 . S
C12 O10 1.273 . S
O13 Mg0 2.010 . S
O13 C5 1.249 . S
Mg14 O15 2.028 1_545 S
Mg14 O21 1.986 1_545 S
Mg14 O23 2.114 . S
Mg14 O24 2.251 . S
Mg14 O27 2.010 1_545 S
O15 Mg14 2.028 1_565 S
O15 C18 1.250 . S
O16 Mg17 2.028 1_565 S
O16 C18 1.248 . S
Mg17 O16 2.028 1_545 S
Mg17 O22 2.032 1_545 S
Mg17 O24 2.079 . S
C18 O15 1.250 . S
C18 O16 1.248 . S
C19 O20 1.264 1_565 S
C19 O27 1.249 . S
O20 C19 1.264 1_545 S
O21 Mg14 1.986 1_565 S
O21 C25 1.246 . S
O22 Mg17 2.032 1_565 S
O22 C25 1.259 . S
O23 Mg14 2.114 . S
O23 C26 1.252 . S
O24 Mg14 2.251 . S
O24 Mg17 2.079 . S
O24 C26 1.273 . S
C25 O21 1.246 . S
C25 O22 1.259 . S
C26 O23 1.252 . S
C26 O24 1.273 . S
O27 Mg14 2.010 1_565 S
O27 C19 1.249 . S
Mg28 O29 2.028 . S
Mg28 O35 1.986 . S
Mg28 O37 2.114 1_655 S
Mg28 O38 2.251 1_655 S
Mg28 O41 2.010 . S
O29 Mg28 2.028 . S
O29 C32 1.250 . S
O30 Mg31 2.028 1_655 S
O30 C32 1.248 . S
Mg31 O30 2.028 1_455 S
Mg31 O36 2.032 1_455 S
Mg31 O38 2.079 . S
C32 O29 1.250 . S
C32 O30 1.248 . S
C33 O34 1.264 . S
C33 O41 1.249 . S
O34 C33 1.264 . S
O35 Mg28 1.986 . S
O35 C39 1.246 . S
O36 Mg31 2.032 1_655 S
O36 C39 1.259 . S
O37 Mg28 2.114 1_455 S
O37 C40 1.252 . S
O38 Mg28 2.251 1_455 S
O38 Mg31 2.079 . S
O38 C40 1.273 . S
C39 O35 1.246 . S
C39 O36 1.259 . S
C40 O37 1.252 . S
C40 O38 1.273 . S
O41 Mg28 2.010 . S
O41 C33 1.249 . S
Mg42 O43 2.028 1_565 S
Mg42 O49 1.986 1_565 S
Mg42 O51 2.114 . S
Mg42 O52 2.251 . S
Mg42 O55 2.010 1_565 S
O43 Mg42 2.028 1_545 S
O43 C46 1.250 . S
O44 Mg45 2.028 1_545 S
O44 C46 1.248 . S
Mg45 O44 2.028 1_565 S
Mg45 O50 2.032 1_565 S
Mg45 O52 2.079 . S
C46 O43 1.250 . S
C46 O44 1.248 . S
C47 O48 1.264 1_545 S
C47 O55 1.249 . S
O48 C47 1.264 1_565 S
O49 Mg42 1.986 1_545 S
O49 C53 1.246 . S
O50 Mg45 2.032 1_545 S
O50 C53 1.259 . S
O51 Mg42 2.114 . S
O51 C54 1.252 . S
O52 Mg42 2.251 . S
O52 Mg45 2.079 . S
O52 C54 1.273 . S
C53 O49 1.246 . S
C53 O50 1.259 . S
C54 O51 1.252 . S
C54 O52 1.273 . S
O55 Mg42 2.010 1_545 S
O55 C47 1.249 . S
Mg56 O57 2.028 . S
Mg56 O63 1.986 . S
Mg56 O65 2.114 1_655 S
Mg56 O66 2.251 1_655 S
Mg56 O69 2.010 . S
O57 Mg56 2.028 . S
O57 C60 1.250 . S
O58 Mg59 2.028 . S
O58 C60 1.248 . S
Mg59 O58 2.028 . S
Mg59 O64 2.032 . S
Mg59 O66 2.079 1_655 S
C60 O57 1.250 . S
C60 O58 1.248 . S
C61 O62 1.264 . S
C61 O69 1.249 . S
O62 C61 1.264 . S
O63 Mg56 1.986 . S
O63 C67 1.246 . S
O64 Mg59 2.032 . S
O64 C67 1.259 . S
O65 Mg56 2.114 1_455 S
O65 C68 1.252 . S
O66 Mg56 2.251 1_455 S
O66 Mg59 2.079 1_455 S
O66 C68 1.273 . S
C67 O63 1.246 . S
C67 O64 1.259 . S
C68 O65 1.252 . S
C68 O66 1.273 . S
O69 Mg56 2.010 . S
O69 C61 1.249 . S
Mg70 O71 2.028 1_545 S
Mg70 O77 1.986 . S
Mg70 O79 2.114 . S
Mg70 O80 2.251 . S
Mg70 O83 2.010 . S
O71 Mg70 2.028 1_565 S
O71 C74 1.250 . S
O72 Mg73 2.028 1_565 S
O72 C74 1.248 . S
Mg73 O72 2.028 1_545 S
Mg73 O78 2.032 . S
Mg73 O80 2.079 . S
C74 O71 1.250 . S
C74 O72 1.248 . S
C75 O76 1.264 . S
C75 O83 1.249 . S
O76 C75 1.264 . S
O77 Mg70 1.986 . S
O77 C81 1.246 . S
O78 Mg73 2.032 . S
O78 C81 1.259 . S
O79 Mg70 2.114 . S
O79 C82 1.252 . S
O80 Mg70 2.251 . S
O80 Mg73 2.079 . S
O80 C82 1.273 . S
C81 O77 1.246 . S
C81 O78 1.259 . S
C82 O79 1.252 . S
C82 O80 1.273 . S
O83 Mg70 2.010 . S
O83 C75 1.249 . S
Mg84 O85 2.028 . S
Mg84 O91 1.986 . S
Mg84 O93 2.114 1_455 S
Mg84 O94 2.251 1_455 S
Mg84 O97 2.010 . S
O85 Mg84 2.028 . S
O85 C88 1.250 . S
O86 Mg87 2.028 . S
O86 C88 1.248 . S
Mg87 O86 2.028 . S
Mg87 O92 2.032 . S
Mg87 O94 2.079 1_455 S
C88 O85 1.250 . S
C88 O86 1.248 . S
C89 O90 1.264 . S
C89 O97 1.249 . S
O90 C89 1.264 . S
O91 Mg84 1.986 . S
O91 C95 1.246 . S
O92 Mg87 2.032 . S
O92 C95 1.259 . S
O93 Mg84 2.114 1_655 S
O93 C96 1.252 . S
O94 Mg84 2.251 1_655 S
O94 Mg87 2.079 1_655 S
O94 C96 1.273 . S
C95 O91 1.246 . S
C95 O92 1.259 . S
C96 O93 1.252 . S
C96 O94 1.273 . S
O97 Mg84 2.010 . S
O97 C89 1.249 . S
Mg98 O99 2.028 1_565 S
Mg98 O105 1.986 . S
Mg98 O107 2.114 . S
Mg98 O108 2.251 . S
Mg98 O111 2.010 . S
O99 Mg98 2.028 1_545 S
O99 C102 1.250 . S
O100 Mg101 2.028 1_545 S
O100 C102 1.248 . S
Mg101 O100 2.028 1_565 S
Mg101 O106 2.032 . S
Mg101 O108 2.079 . S
C102 O99 1.250 . S
C102 O100 1.248 . S
C103 O104 1.264 . S
C103 O111 1.249 . S
O104 C103 1.264 . S
O105 Mg98 1.986 . S
O105 C109 1.246 . S
O106 Mg101 2.032 . S
O106 C109 1.259 . S
O107 Mg98 2.114 . S
O107 C110 1.252 . S
O108 Mg98 2.251 . S
O108 Mg101 2.079 . S
O108 C110 1.273 . S
C109 O105 1.246 . S
C109 O106 1.259 . S
C110 O107 1.252 . S
C110 O108 1.273 . S
O111 Mg98 2.010 . S
O111 C103 1.249 . S
C112 C113 1.363 . S
C112 C118 1.379 . S
C112 N120 1.356 . S
C113 C112 1.363 . S
C113 C119 1.363 1_655 S
C114 C115 1.363 . S
C114 C119 1.379 . S
C114 N121 1.356 . S
C115 C114 1.363 . S
C115 C118 1.363 1_455 S
N116 C118 1.356 . S
N116 H128 0.984 . S
N116 H129 0.985 . S
N117 C119 1.356 . S
N117 H122 0.984 . S
N117 H123 0.985 . S
C118 C112 1.379 . S
C118 C115 1.363 1_655 S
C118 N116 1.356 . S
C119 C113 1.363 1_455 S
C119 C114 1.379 . S
C119 N117 1.356 . S
N120 C112 1.356 . S
N120 H126 0.984 . S
N120 H127 0.984 . S
N121 C114 1.356 . S
N121 H124 0.984 . S
N121 H125 0.985 . S
H122 N117 0.984 . S
H123 N117 0.985 . S
H124 N121 0.984 . S
H125 N121 0.985 . S
H126 N120 0.984 . S
H127 N120 0.984 . S
H128 N116 0.984 . S
H129 N116 0.985 . S
C130 C131 1.363 . S
C130 C136 1.379 . S
C130 N138 1.356 . S
C131 C130 1.363 . S
C131 C137 1.363 1_545 S
C132 C133 1.363 . S
C132 C137 1.379 . S
C132 N139 1.356 . S
C133 C132 1.363 . S
C133 C136 1.363 1_565 S
N134 C136 1.356 . S
N134 H146 0.984 . S
N134 H147 0.985 . S
N135 C137 1.356 . S
N135 H140 0.984 . S
N135 H141 0.985 . S
C136 C130 1.379 . S
C136 C133 1.363 1_545 S
C136 N134 1.356 . S
C137 C131 1.363 1_565 S
C137 C132 1.379 . S
C137 N135 1.356 . S
N138 C130 1.356 . S
N138 H144 0.984 . S
N138 H145 0.984 . S
N139 C132 1.356 . S
N139 H142 0.984 . S
N139 H143 0.985 . S
H140 N135 0.984 . S
H141 N135 0.985 . S
H142 N139 0.984 . S
H143 N139 0.985 . S
H144 N138 0.984 . S
H145 N138 0.984 . S
H146 N134 0.984 . S
H147 N134 0.985 . S
C148 C149 1.363 . S
C148 C154 1.379 . S
C148 N156 1.356 . S
C149 C148 1.363 . S
C149 C155 1.363 1_655 S
C150 C151 1.363 . S
C150 C155 1.379 . S
C150 N157 1.356 . S
C151 C150 1.363 . S
C151 C154 1.363 1_455 S
N152 C154 1.356 . S
N152 H164 0.984 . S
N152 H165 0.985 1_655 S
N153 C155 1.356 . S
N153 H158 0.984 1_455 S
N153 H159 0.985 . S
C154 C148 1.379 . S
C154 C151 1.363 1_655 S
C154 N152 1.356 . S
C155 C149 1.363 1_455 S
C155 C150 1.379 . S
C155 N153 1.356 . S
N156 C148 1.356 . S
N156 H162 0.984 . S
N156 H163 0.984 . S
N157 C150 1.356 . S
N157 H160 0.984 . S
N157 H161 0.985 . S
H158 N153 0.984 1_655 S
H159 N153 0.985 . S
H160 N157 0.984 . S
H161 N157 0.985 . S
H162 N156 0.984 . S
H163 N156 0.984 . S
H164 N152 0.984 . S
H165 N152 0.985 1_455 S
C166 C167 1.363 1_565 S
C166 C172 1.379 . S
C166 N174 1.356 . S
C167 C166 1.363 1_545 S
C167 C173 1.363 . S
C168 C169 1.363 1_545 S
C168 C173 1.379 . S
C168 N175 1.356 . S
C169 C168 1.363 1_565 S
C169 C172 1.363 . S
N170 C172 1.356 . S
N170 H182 0.984 . S
N170 H183 0.985 . S
N171 C173 1.356 . S
N171 H176 0.984 . S
N171 H177 0.985 1_556 S
C172 C166 1.379 . S
C172 C169 1.363 . S
C172 N170 1.356 . S
C173 C167 1.363 . S
C173 C168 1.379 . S
C173 N171 1.356 . S
N174 C166 1.356 . S
N174 H180 0.984 . S
N174 H181 0.984 . S
N175 C168 1.356 . S
N175 H178 0.984 . S
N175 H179 0.985 1_556 S
H176 N171 0.984 . S
H177 N171 0.985 1_554 S
H178 N175 0.984 . S
H179 N175 0.985 1_554 S
H180 N174 0.984 . S
H181 N174 0.984 . S
H182 N170 0.984 . S
H183 N170 0.985 . S
C184 C185 1.363 . S
C184 C190 1.379 . S
C184 N192 1.356 . S
C185 C184 1.363 . S
C185 C191 1.363 . S
C186 C187 1.363 . S
C186 C191 1.379 . S
C186 N193 1.356 . S
C187 C186 1.363 . S
C187 C190 1.363 . S
N188 C190 1.356 . S
N188 H200 0.984 . S
N188 H201 0.985 . S
N189 C191 1.356 . S
N189 H194 0.984 . S
N189 H195 0.985 . S
C190 C184 1.379 . S
C190 C187 1.363 . S
C190 N188 1.356 . S
C191 C185 1.363 . S
C191 C186 1.379 . S
C191 N189 1.356 . S
N192 C184 1.356 . S
N192 H198 0.984 . S
N192 H199 0.984 . S
N193 C186 1.356 . S
N193 H196 0.984 . S
N193 H197 0.985 . S
H194 N189 0.984 . S
H195 N189 0.985 . S
H196 N193 0.984 . S
H197 N193 0.985 . S
H198 N192 0.984 . S
H199 N192 0.984 . S
H200 N188 0.984 . S
H201 N188 0.985 . S
C202 C203 1.363 . S
C202 C208 1.379 . S
C202 N210 1.356 . S
C203 C202 1.363 . S
C203 C209 1.363 . S
C204 C205 1.363 . S
C204 C209 1.379 . S
C204 N211 1.356 . S
C205 C204 1.363 . S
C205 C208 1.363 . S
N206 C208 1.356 . S
N206 H218 0.984 . S
N206 H219 0.985 . S
N207 C209 1.356 . S
N207 H212 0.984 . S
N207 H213 0.985 . S
C208 C202 1.379 . S
C208 C205 1.363 . S
C208 N206 1.356 . S
C209 C203 1.363 . S
C209 C204 1.379 . S
C209 N207 1.356 . S
N210 C202 1.356 . S
N210 H216 0.984 . S
N210 H217 0.984 . S
N211 C204 1.356 . S
N211 H214 0.984 . S
N211 H215 0.985 . S
H212 N207 0.984 . S
H213 N207 0.985 . S
H214 N211 0.984 . S
H215 N211 0.985 . S
H216 N210 0.984 . S
H217 N210 0.984 . S
H218 N206 0.984 . S
H219 N206 0.985 . S
C220 C221 1.363 . S
C220 C226 1.379 . S
C220 N228 1.356 . S
C221 C220 1.363 . S
C221 C227 1.363 . S
C222 C223 1.363 . S
C222 C227 1.379 . S
C222 N229 1.356 . S
C223 C222 1.363 . S
C223 C226 1.363 . S
N224 C226 1.356 . S
N224 H236 0.984 . S
N224 H237 0.985 . S
N225 C227 1.356 . S
N225 H230 0.984 . S
N225 H231 0.985 . S
C226 C220 1.379 . S
C226 C223 1.363 . S
C226 N224 1.356 . S
C227 C221 1.363 . S
C227 C222 1.379 . S
C227 N225 1.356 . S
N228 C220 1.356 . S
N228 H234 0.984 . S
N228 H235 0.984 . S
N229 C222 1.356 . S
N229 H232 0.984 . S
N229 H233 0.985 . S
H230 N225 0.984 . S
H231 N225 0.985 . S
H232 N229 0.984 . S
H233 N229 0.985 . S
H234 N228 0.984 . S
H235 N228 0.984 . S
H236 N224 0.984 . S
H237 N224 0.985 . S
C238 C239 1.363 . S
C238 C244 1.379 . S
C238 N246 1.356 . S
C239 C238 1.363 . S
C239 C245 1.363 . S
C240 C241 1.363 . S
C240 C245 1.379 . S
C240 N247 1.356 . S
C241 C240 1.363 . S
C241 C244 1.363 . S
N242 C244 1.356 . S
N242 H254 0.984 . S
N242 H255 0.985 . S
N243 C245 1.356 . S
N243 H248 0.984 . S
N243 H249 0.985 . S
C244 C238 1.379 . S
C244 C241 1.363 . S
C244 N242 1.356 . S
C245 C239 1.363 . S
C245 C240 1.379 . S
C245 N243 1.356 . S
N246 C238 1.356 . S
N246 H252 0.984 1_545 S
N246 H253 0.984 . S
N247 C240 1.356 . S
N247 H250 0.984 . S
N247 H251 0.985 . S
H248 N243 0.984 . S
H249 N243 0.985 . S
H250 N247 0.984 . S
H251 N247 0.985 . S
H252 N246 0.984 1_565 S
H253 N246 0.984 . S
H254 N242 0.984 . S
H255 N242 0.985 . S
C256 C257 1.358 1_554 S
C256 C262 1.383 . S
C256 N264 1.355 1_554 S
C257 C256 1.358 1_556 S
C257 C263 1.363 . S
C258 C259 1.363 1_556 S
C258 C263 1.379 . S
C258 N265 1.356 . S
C259 C258 1.363 1_554 S
C259 C262 1.363 . S
N260 C262 1.356 . S
N260 H272 0.984 . S
N260 H273 0.985 . S
N261 C263 1.356 . S
N261 H266 0.984 . S
N261 H267 0.985 . S
C262 C256 1.383 . S
C262 C259 1.363 . S
C262 N260 1.356 . S
C263 C257 1.363 . S
C263 C258 1.379 . S
C263 N261 1.356 . S
N264 C256 1.355 1_556 S
N264 H270 0.984 1_556 S
N264 H271 0.984 . S
N265 C258 1.356 . S
N265 H268 0.984 1_556 S
N265 H269 0.985 . S
H266 N261 0.984 . S
H267 N261 0.985 . S
H268 N265 0.984 1_554 S
H269 N265 0.985 . S
H270 N264 0.984 1_554 S
H271 N264 0.984 . S
H272 N260 0.984 . S
H273 N260 0.985 . S
C274 C275 1.363 1_554 S
C274 C280 1.379 . S
C274 N282 1.356 . S
C275 C274 1.363 1_556 S
C275 C281 1.364 . S
C276 C277 1.363 . S
C276 C281 1.375 1_554 S
C276 N283 1.356 . S
C277 C276 1.363 . S
C277 C280 1.363 . S
N278 C280 1.356 . S
N278 H290 0.984 . S
N278 H291 0.985 . S
N279 C281 1.360 . S
N279 H284 0.984 . S
N279 H285 0.985 . S
C280 C274 1.379 . S
C280 C277 1.363 . S
C280 N278 1.356 . S
C281 C275 1.364 . S
C281 C276 1.375 1_556 S
C281 N279 1.360 . S
N282 C274 1.356 . S
N282 H288 0.984 1_545 S
N282 H289 0.984 1_554 S
N283 C276 1.356 . S
N283 H286 0.984 . S
N283 H287 0.985 . S
H284 N279 0.984 . S
H285 N279 0.985 . S
H286 N283 0.984 . S
H287 N283 0.985 . S
H288 N282 0.984 1_565 S
H289 N282 0.984 1_556 S
H290 N278 0.984 . S
H291 N278 0.985 . S
C292 C293 1.363 1_556 S
C292 C298 1.379 . S
C292 N300 1.356 1_556 S
C293 C292 1.363 1_554 S
C293 C299 1.363 . S
C294 C295 1.363 . S
C294 C299 1.379 1_556 S
C294 N301 1.356 . S
C295 C294 1.363 . S
C295 C298 1.363 . S
N296 C298 1.356 . S
N296 H308 0.984 . S
N296 H309 0.985 . S
N297 C299 1.356 . S
N297 H302 0.984 . S
N297 H303 0.985 . S
C298 C292 1.379 . S
C298 C295 1.363 . S
C298 N296 1.356 . S
C299 C293 1.363 . S
C299 C294 1.379 1_554 S
C299 N297 1.356 . S
N300 C292 1.356 1_554 S
N300 H306 0.984 1_554 S
N300 H307 0.984 . S
N301 C294 1.356 . S
N301 H304 0.984 . S
N301 H305 0.985 1_566 S
H302 N297 0.984 . S
H303 N297 0.985 . S
H304 N301 0.984 . S
H305 N301 0.985 1_544 S
H306 N300 0.984 1_556 S
H307 N300 0.984 . S
H308 N296 0.984 . S
H309 N296 0.985 . S
C310 C311 1.363 1_554 S
C310 C316 1.379 . S
C310 N318 1.356 . S
C311 C310 1.363 1_556 S
C311 C317 1.363 . S
C312 C313 1.363 . S
C312 C317 1.379 1_554 S
C312 N319 1.356 . S
C313 C312 1.363 . S
C313 C316 1.363 . S
N314 C316 1.356 . S
N314 H326 0.984 . S
N314 H327 0.985 . S
N315 C317 1.356 . S
N315 H320 0.984 . S
N315 H321 0.985 . S
C316 C310 1.379 . S
C316 C313 1.363 . S
C316 N314 1.356 . S
C317 C311 1.363 . S
C317 C312 1.379 1_556 S
C317 N315 1.356 . S
N318 C310 1.356 . S
N318 H324 0.984 . S
N318 H325 0.984 1_554 S
N319 C312 1.356 . S
N319 H322 0.984 . S
N319 H323 0.985 1_655 S
H320 N315 0.984 . S
H321 N315 0.985 . S
H322 N319 0.984 . S
H323 N319 0.985 1_455 S
H324 N318 0.984 . S
H325 N318 0.984 1_556 S
H326 N314 0.984 . S
H327 N314 0.985 . S
C328 C329 1.363 . S
C328 C334 1.379 . S
C328 N336 1.356 . S
C329 C328 1.363 . S
C329 C335 1.363 . S
C330 C331 1.363 . S
C330 C335 1.379 . S
C330 N337 1.356 . S
C331 C330 1.363 . S
C331 C334 1.363 . S
N332 C334 1.356 . S
N332 H344 0.984 . S
N332 H345 0.985 . S
N333 C335 1.356 . S
N333 H338 0.984 . S
N333 H339 0.985 1_455 S
C334 C328 1.379 . S
C334 C331 1.363 . S
C334 N332 1.356 . S
C335 C329 1.363 . S
C335 C330 1.379 . S
C335 N333 1.356 . S
N336 C328 1.356 . S
N336 H342 0.984 . S
N336 H343 0.984 . S
N337 C330 1.356 . S
N337 H340 0.984 1_545 S
N337 H341 0.985 1_545 S
H338 N333 0.984 . S
H339 N333 0.985 1_655 S
H340 N337 0.984 1_565 S
H341 N337 0.985 1_565 S
H342 N336 0.984 . S
H343 N336 0.984 . S
H344 N332 0.984 . S
H345 N332 0.985 . S
C346 C347 1.363 . S
C346 C352 1.379 . S
C346 N354 1.356 . S
C347 C346 1.363 . S
C347 C353 1.363 . S
C348 C349 1.363 . S
C348 C353 1.379 . S
C348 N355 1.356 1_565 S
C349 C348 1.363 . S
C349 C352 1.363 . S
N350 C352 1.356 . S
N350 H362 0.984 . S
N350 H363 0.985 . S
N351 C353 1.356 . S
N351 H356 0.984 . S
N351 H357 0.985 . S
C352 C346 1.379 . S
C352 C349 1.363 . S
C352 N350 1.356 . S
C353 C347 1.363 . S
C353 C348 1.379 . S
C353 N351 1.356 . S
N354 C346 1.356 . S
N354 H360 0.984 . S
N354 H361 0.984 . S
N355 C348 1.356 1_545 S
N355 H358 0.984 . S
N355 H359 0.985 . S
H356 N351 0.984 . S
H357 N351 0.985 . S
H358 N355 0.984 . S
H359 N355 0.985 . S
H360 N354 0.984 . S
H361 N354 0.984 . S
H362 N350 0.984 . S
H363 N350 0.985 . S
C364 C365 1.363 . S
C364 C370 1.379 . S
C364 N372 1.356 . S
C365 C364 1.363 . S
C365 C371 1.363 . S
C366 C367 1.363 . S
C366 C371 1.379 . S
C366 N373 1.356 . S
C367 C366 1.363 . S
C367 C370 1.363 . S
N368 C370 1.356 . S
N368 H380 0.984 . S
N368 H381 0.985 . S
N369 C371 1.356 . S
N369 H374 0.983 1_655 S
N369 H375 0.985 1_655 S
C370 C364 1.379 . S
C370 C367 1.363 . S
C370 N368 1.356 . S
C371 C365 1.363 . S
C371 C366 1.379 . S
C371 N369 1.356 . S
N372 C364 1.356 . S
N372 H378 0.984 . S
N372 H379 0.984 . S
N373 C366 1.356 . S
N373 H376 0.984 . S
N373 H377 0.985 . S
H374 N369 0.983 1_455 S
H375 N369 0.985 1_455 S
H376 N373 0.984 . S
H377 N373 0.985 . S
H378 N372 0.984 . S
H379 N372 0.984 . S
H380 N368 0.984 . S
H381 N368 0.985 . S
C382 C383 1.363 . S
C382 C388 1.379 . S
C382 N390 1.356 . S
C383 C382 1.363 . S
C383 C389 1.363 . S
C384 C385 1.363 . S
C384 C389 1.379 . S
C384 N391 1.356 . S
C385 C384 1.363 . S
C385 C388 1.363 . S
N386 C388 1.356 . S
N386 H398 0.984 . S
N386 H399 0.985 . S
N387 C389 1.356 . S
N387 H392 0.982 1_545 S
N387 H393 0.985 1_545 S
C388 C382 1.379 . S
C388 C385 1.363 . S
C388 N386 1.356 . S
C389 C383 1.363 . S
C389 C384 1.379 . S
C389 N387 1.356 . S
N390 C382 1.356 . S
N390 H396 0.984 . S
N390 H397 0.984 . S
N391 C384 1.356 . S
N391 H394 0.984 . S
N391 H395 0.985 . S
H392 N387 0.982 1_565 S
H393 N387 0.985 1_565 S
H394 N391 0.984 . S
H395 N391 0.985 . S
H396 N390 0.984 . S
H397 N390 0.984 . S
H398 N386 0.984 . S
H399 N386 0.985 . S
C113 C39 1.338 . S
C115 C11 1.338 . S
C131 C53 1.294 . S
C133 C25 1.294 . S
C149 C67 1.332 . S
C151 C95 1.332 . S
C167 C75 1.127 . S
C169 C103 1.127 . S
C185 C26 1.066 . S
C187 C4 1.049 . S
C203 C18 1.090 . S
C205 C40 1.135 . S
C221 C54 1.066 . S
C223 C32 1.049 . S
C239 C46 1.090 . S
C241 C12 1.135 . S
C257 C102 1.129 . S
C259 C60 1.120 . S
C275 C82 1.006 . S
C277 C68 1.007 . S
C293 C88 1.120 . S
C295 C74 1.129 . S
C311 C110 1.006 . S
C313 C96 1.007 . S
C329 C5 1.645 . S
C331 C81 1.648 . S
C347 C89 1.517 . S
C349 C19 1.538 . S
C365 C33 1.645 . S
C367 C109 1.648 . S
C383 C47 1.538 . S
C385 C61 1.517 . S
