# Generated by pormake.
# Topology whw, (6)-cn, num edge types: 1
# Building blocks:
#     Node 0, Type 0, BuildingBlock: BETFAJ_clean_sbu_0, # of connection points: 6
#     Node 1, Type 0, BuildingBlock: BETFAJ_clean_sbu_0, # of connection points: 6
#     Node 2, Type 0, BuildingBlock: BETFAJ_clean_sbu_0, # of connection points: 6
#     Node 3, Type 0, BuildingBlock: BETFAJ_clean_sbu_0, # of connection points: 6
#     Node 4, Type 0, BuildingBlock: BETFAJ_clean_sbu_0, # of connection points: 6
#     Node 5, Type 0, BuildingBlock: BETFAJ_clean_sbu_0, # of connection points: 6
#     Node 6, Type 0, BuildingBlock: BETFAJ_clean_sbu_0, # of connection points: 6
#     Node 7, Type 0, BuildingBlock: BETFAJ_clean_sbu_0, # of connection points: 6
#     Node 8, Type 0, BuildingBlock: BETFAJ_clean_sbu_0, # of connection points: 6
#     Node 9, Type 0, BuildingBlock: BETFAJ_clean_sbu_0, # of connection points: 6
#     Node 10, Type 0, BuildingBlock: BETFAJ_clean_sbu_0, # of connection points: 6
#     Node 11, Type 0, BuildingBlock: BETFAJ_clean_sbu_0, # of connection points: 6
#     Node 12, Type 0, BuildingBlock: BETFAJ_clean_sbu_0, # of connection points: 6
#     Node 13, Type 0, BuildingBlock: BETFAJ_clean_sbu_0, # of connection points: 6
#     Node 14, Type 0, BuildingBlock: BETFAJ_clean_sbu_0, # of connection points: 6
#     Node 15, Type 0, BuildingBlock: BETFAJ_clean_sbu_0, # of connection points: 6
#     Edge 16, Type (0, 0), BuildingBlock: UVAHIK_clean_linker_0, # of connection points: 2
#     Edge 17, Type (0, 0), BuildingBlock: UVAHIK_clean_linker_0, # of connection points: 2
#     Edge 18, Type (0, 0), BuildingBlock: UVAHIK_clean_linker_0, # of connection points: 2
#     Edge 19, Type (0, 0), BuildingBlock: UVAHIK_clean_linker_0, # of connection points: 2
#     Edge 20, Type (0, 0), BuildingBlock: UVAHIK_clean_linker_0, # of connection points: 2
#     Edge 21, Type (0, 0), BuildingBlock: UVAHIK_clean_linker_0, # of connection points: 2
#     Edge 22, Type (0, 0), BuildingBlock: UVAHIK_clean_linker_0, # of connection points: 2
#     Edge 23, Type (0, 0), BuildingBlock: UVAHIK_clean_linker_0, # of connection points: 2
#     Edge 24, Type (0, 0), BuildingBlock: UVAHIK_clean_linker_0, # of connection points: 2
#     Edge 25, Type (0, 0), BuildingBlock: UVAHIK_clean_linker_0, # of connection points: 2
#     Edge 26, Type (0, 0), BuildingBlock: UVAHIK_clean_linker_0, # of connection points: 2
#     Edge 27, Type (0, 0), BuildingBlock: UVAHIK_clean_linker_0, # of connection points: 2
#     Edge 28, Type (0, 0), BuildingBlock: UVAHIK_clean_linker_0, # of connection points: 2
#     Edge 29, Type (0, 0), BuildingBlock: UVAHIK_clean_linker_0, # of connection points: 2
#     Edge 30, Type (0, 0), BuildingBlock: UVAHIK_clean_linker_0, # of connection points: 2
#     Edge 31, Type (0, 0), BuildingBlock: UVAHIK_clean_linker_0, # of connection points: 2
#     Edge 32, Type (0, 0), BuildingBlock: UVAHIK_clean_linker_0, # of connection points: 2
#     Edge 33, Type (0, 0), BuildingBlock: UVAHIK_clean_linker_0, # of connection points: 2
#     Edge 34, Type (0, 0), BuildingBlock: UVAHIK_clean_linker_0, # of connection points: 2
#     Edge 35, Type (0, 0), BuildingBlock: UVAHIK_clean_linker_0, # of connection points: 2
#     Edge 36, Type (0, 0), BuildingBlock: UVAHIK_clean_linker_0, # of connection points: 2
#     Edge 37, Type (0, 0), BuildingBlock: UVAHIK_clean_linker_0, # of connection points: 2
#     Edge 38, Type (0, 0), BuildingBlock: UVAHIK_clean_linker_0, # of connection points: 2
#     Edge 39, Type (0, 0), BuildingBlock: UVAHIK_clean_linker_0, # of connection points: 2
#     Edge 40, Type (0, 0), BuildingBlock: UVAHIK_clean_linker_0, # of connection points: 2
#     Edge 41, Type (0, 0), BuildingBlock: UVAHIK_clean_linker_0, # of connection points: 2
#     Edge 42, Type (0, 0), BuildingBlock: UVAHIK_clean_linker_0, # of connection points: 2
#     Edge 43, Type (0, 0), BuildingBlock: UVAHIK_clean_linker_0, # of connection points: 2
#     Edge 44, Type (0, 0), BuildingBlock: UVAHIK_clean_linker_0, # of connection points: 2
#     Edge 45, Type (0, 0), BuildingBlock: UVAHIK_clean_linker_0, # of connection points: 2
#     Edge 46, Type (0, 0), BuildingBlock: UVAHIK_clean_linker_0, # of connection points: 2
#     Edge 47, Type (0, 0), BuildingBlock: UVAHIK_clean_linker_0, # of connection points: 2
#     Edge 48, Type (0, 0), BuildingBlock: UVAHIK_clean_linker_0, # of connection points: 2
#     Edge 49, Type (0, 0), BuildingBlock: UVAHIK_clean_linker_0, # of connection points: 2
#     Edge 50, Type (0, 0), BuildingBlock: UVAHIK_clean_linker_0, # of connection points: 2
#     Edge 51, Type (0, 0), BuildingBlock: UVAHIK_clean_linker_0, # of connection points: 2
#     Edge 52, Type (0, 0), BuildingBlock: UVAHIK_clean_linker_0, # of connection points: 2
#     Edge 53, Type (0, 0), BuildingBlock: UVAHIK_clean_linker_0, # of connection points: 2
#     Edge 54, Type (0, 0), BuildingBlock: UVAHIK_clean_linker_0, # of connection points: 2
#     Edge 55, Type (0, 0), BuildingBlock: UVAHIK_clean_linker_0, # of connection points: 2
#     Edge 56, Type (0, 0), BuildingBlock: UVAHIK_clean_linker_0, # of connection points: 2
#     Edge 57, Type (0, 0), BuildingBlock: UVAHIK_clean_linker_0, # of connection points: 2
#     Edge 58, Type (0, 0), BuildingBlock: UVAHIK_clean_linker_0, # of connection points: 2
#     Edge 59, Type (0, 0), BuildingBlock: UVAHIK_clean_linker_0, # of connection points: 2
#     Edge 60, Type (0, 0), BuildingBlock: UVAHIK_clean_linker_0, # of connection points: 2
#     Edge 61, Type (0, 0), BuildingBlock: UVAHIK_clean_linker_0, # of connection points: 2
#     Edge 62, Type (0, 0), BuildingBlock: UVAHIK_clean_linker_0, # of connection points: 2
#     Edge 63, Type (0, 0), BuildingBlock: UVAHIK_clean_linker_0, # of connection points: 2
# Relax obj value: 0.323
# Max RMSD: 0.219
# Mean RMSD: 0.198
data_MOF--net-whw--node1-BETFAJ_clean_sbu_0--edge1-UVAHIK_clean_linker_0
_symmetry_space_group_name_H-M    P1
_symmetry_Int_Tables_number       1
_symmetry_cell_setting            triclinic
loop_
_symmetry_equiv_pos_as_xyz
'x, y, z'
_cell_length_a     60.158199
_cell_length_b     59.716172
_cell_length_c     42.719048
_cell_angle_alpha  90.063486
_cell_angle_beta   94.585942
_cell_angle_gamma 93.367454
loop_
_atom_site_label
_atom_site_type_symbol
_atom_site_fract_x
_atom_site_fract_y
_atom_site_fract_z
_atom_type_partial_charge
Sm0 Sm 0.03578 0.15953 0.13619 0.0
Sm1 Sm -0.00584 0.13603 0.15435 0.0
C2 C 0.07672 0.16942 0.1212 0.0
C3 C 0.0868 0.16642 0.09139 0.0
C4 C 0.10577 0.15389 0.09073 0.0
C5 C 0.11315 0.14741 0.06209 0.0
C6 C 0.10169 0.15344 0.03365 0.0
C7 C 0.08328 0.16682 0.03446 0.0
C8 C 0.07579 0.1731 0.06301 0.0
C9 C 0.00383 0.18684 0.15461 0.0
C10 C -0.00342 0.15531 0.08136 0.0
C11 C 0.95317 0.12278 0.16699 0.0
C12 C 0.94156 0.12451 0.1955 0.0
C13 C 0.95335 0.13323 0.22283 0.0
C14 C 0.94311 0.13366 0.2508 0.0
C15 C 0.92085 0.12545 0.25179 0.0
C16 C 0.90876 0.11738 0.22419 0.0
C17 C 0.91916 0.11679 0.19609 0.0
C18 C 0.02323 0.10695 0.13175 0.0
C19 C 0.03261 0.14827 0.21146 0.0
O20 O 0.07091 0.15065 0.13502 0.0
O21 O 0.06171 0.18446 0.12167 0.0
O22 O 0.01002 0.16931 0.16755 0.0
O23 O 0.01575 0.19175 0.13119 0.0
O24 O 0.01846 0.15622 0.08683 0.0
O25 O 0.98356 0.15004 0.10425 0.0
O26 O 0.95798 0.14181 0.15329 0.0
O27 O 0.96987 0.10968 0.16927 0.0
O28 O 0.01901 0.12588 0.12041 0.0
O29 O 0.01279 0.10359 0.15688 0.0
O30 O 0.01089 0.1441 0.20454 0.0
O31 O 0.04596 0.15162 0.18857 0.0
H32 H 0.11427 0.14829 0.11238 0.0
H33 H 0.12729 0.13698 0.06225 0.0
H34 H 0.07438 0.17218 1.01298 0.0
H35 H 0.06093 0.18252 0.06276 0.0
H36 H 0.97062 0.13935 0.22267 0.0
H37 H 0.95261 0.1403 0.27174 0.0
H38 H 0.89155 0.11101 0.22458 0.0
H39 H 0.90989 0.11003 0.17506 0.0
Sm40 Sm 0.14532 0.7849 0.42456 0.0
Sm41 Sm 0.14831 0.73934 0.39073 0.0
C42 C 0.13818 0.81907 0.46139 0.0
C43 C 0.13052 0.82466 0.49211 0.0
C44 C 0.12678 0.80821 0.51484 0.0
C45 C 0.1197 0.81424 0.54402 0.0
C46 C 0.11599 0.83676 0.55061 0.0
C47 C 0.11966 0.85307 0.52758 0.0
C48 C 0.1269 0.84706 0.49866 0.0
C49 C 0.18463 0.7789 0.39785 0.0
C50 C 0.15424 0.7388 0.46531 0.0
C51 C 0.15742 0.70796 0.35073 0.0
C52 C 0.14975 0.70218 0.31793 0.0
C53 C 0.16508 0.69544 0.29724 0.0
C54 C 0.15795 0.68974 0.26611 0.0
C55 C 0.13532 0.69057 0.25526 0.0
C56 C 0.12009 0.69775 0.27592 0.0
C57 C 0.12725 0.70362 0.3069 0.0
C58 C 0.10908 0.74424 0.41697 0.0
C59 C 0.13157 0.78417 0.35023 0.0
O60 O 0.1231 0.8103 0.44042 0.0
O61 O 0.15745 0.80997 0.46134 0.0
O62 O 0.17402 0.76429 0.41297 0.0
O63 O 0.1752 0.79789 0.39779 0.0
O64 O 0.14524 0.75848 0.46371 0.0
O65 O 0.1613 0.7292 0.44029 0.0
O66 O 0.16962 0.72675 0.35506 0.0
O67 O 0.14269 0.70483 0.3715 0.0
O68 O 0.11965 0.75946 0.40281 0.0
O69 O 0.11783 0.72501 0.41463 0.0
O70 O 0.13805 0.76336 0.35014 0.0
O71 O 0.13114 0.79584 0.37636 0.0
H72 H 0.1293 0.79079 0.50998 0.0
H73 H 0.11681 0.8013 0.56122 0.0
H74 H 0.1172 0.87057 0.53208 0.0
H75 H 0.12972 0.85997 0.48137 0.0
H76 H 0.18254 0.69444 0.30523 0.0
H77 H 0.17003 0.68419 0.25075 0.0
H78 H 0.10262 0.69893 0.26807 0.0
H79 H 0.11516 0.70919 0.32225 0.0
Sm80 Sm 0.49685 0.86211 0.68208 0.0
Sm81 Sm 0.51549 0.86757 0.61633 0.0
C82 C 0.48445 0.85134 0.73924 0.0
C83 C 0.47744 0.84521 0.77151 0.0
C84 C 0.47205 0.82279 0.77945 0.0
C85 C 0.46612 0.81689 0.80987 0.0
C86 C 0.46475 0.83323 0.83369 0.0
C87 C 0.46993 0.85581 0.82521 0.0
C88 C 0.47639 0.86159 0.79499 0.0
C89 C 0.50519 0.90581 0.66104 0.0
C90 C 0.54991 0.85951 0.67677 0.0
C91 C 0.53693 0.86759 0.56383 0.0
C92 C 0.53712 0.85812 0.53109 0.0
C93 C 0.53137 0.87098 0.50437 0.0
C94 C 0.53426 0.8631 0.47385 0.0
C95 C 0.54331 0.84217 0.46888 0.0
C96 C 0.54867 0.8292 0.49577 0.0
C97 C 0.5456 0.83698 0.52616 0.0
C98 C 0.49239 0.82737 0.62555 0.0
C99 C 0.4633 0.87456 0.6223 0.0
O100 O 0.47741 0.83978 0.71384 0.0
O101 O 0.49797 0.86875 0.73409 0.0
O102 O 0.51722 0.88955 0.65883 0.0
O103 O 0.48792 0.89953 0.67596 0.0
O104 O 0.53271 0.8516 0.69143 0.0
O105 O 0.54738 0.87035 0.65001 0.0
O106 O 0.5231 0.88303 0.56993 0.0
O107 O 0.54035 0.85378 0.58726 0.0
O108 O 0.50663 0.83672 0.64553 0.0
O109 O 0.4884 0.84086 0.60259 0.0
O110 O 0.48112 0.88272 0.60861 0.0
O111 O 0.46516 0.86249 0.64835 0.0
H112 H 0.47283 0.8096 0.76221 0.0
H113 H 0.46299 0.79926 0.81445 0.0
H114 H 0.46884 0.86938 0.84164 0.0
H115 H 0.4803 0.87908 0.78987 0.0
H116 H 0.52502 0.88742 0.50704 0.0
H117 H 0.52942 0.87362 0.45416 0.0
H118 H 0.55602 0.81321 0.49366 0.0
H119 H 0.5506 0.82658 0.54595 0.0
Sm120 Sm 0.35912 0.20705 0.90371 0.0
Sm121 Sm 0.36418 0.25021 0.86268 0.0
C122 C 0.36168 0.17472 0.94587 0.0
C123 C 0.3699 0.17038 0.97861 0.0
C124 C 0.38969 0.18109 0.99244 0.0
C125 C 0.39772 0.17561 0.023 0.0
C126 C 0.38608 0.15933 0.04028 0.0
C127 C 0.366 0.14907 0.02648 0.0
C128 C 0.35804 0.15453 0.99597 0.0
C129 C 0.32234 0.2149 0.86404 0.0
C130 C 0.35975 0.25704 0.93799 0.0
C131 C 0.36187 0.28572 0.82573 0.0
C132 C 0.37032 0.2924 0.79531 0.0
C133 C 0.35597 0.30203 0.77228 0.0
C134 C 0.36342 0.30799 0.74304 0.0
C135 C 0.38548 0.30452 0.73617 0.0
C136 C 0.39982 0.29481 0.75937 0.0
C137 C 0.3923 0.28872 0.78854 0.0
C138 C 0.4028 0.23173 0.88553 0.0
C139 C 0.37135 0.20222 0.83137 0.0
O140 O 0.37675 0.17886 0.92571 0.0
O141 O 0.34433 0.18699 0.94153 0.0
O142 O 0.33436 0.23 0.87913 0.0
O143 O 0.32868 0.19509 0.87135 0.0
O144 O 0.35967 0.23498 0.94095 0.0
O145 O 0.35997 0.26706 0.91036 0.0
O146 O 0.34642 0.26929 0.82467 0.0
O147 O 0.37663 0.28446 0.84986 0.0
O148 O 0.3858 0.23397 0.8999 0.0
O149 O 0.40059 0.24046 0.85769 0.0
O150 O 0.36266 0.22183 0.82661 0.0
O151 O 0.37477 0.19382 0.85994 0.0
H152 H 0.39912 0.19339 0.97949 0.0
H153 H 0.41333 0.18371 0.03275 0.0
H154 H 0.35638 0.13678 0.03925 0.0
H155 H 0.34269 0.14614 0.98577 0.0
H156 H 0.33888 0.3048 0.77685 0.0
H157 H 0.35176 0.31503 0.72566 0.0
H158 H 0.41698 0.29212 0.75517 0.0
H159 H 0.4037 0.28113 0.80576 0.0
Sm160 Sm 0.02693 0.89776 0.90926 0.0
Sm161 Sm 0.98196 0.8923 0.86845 0.0
C162 C 0.0585 0.90715 0.95493 0.0
C163 C 0.06367 0.89881 0.98726 0.0
C164 C 0.05319 0.907 1.01289 0.0
C165 C 0.05781 0.89844 0.04308 0.0
C166 C 0.07296 0.88151 0.04827 0.0
C167 C 0.0836 0.87355 0.02269 0.0
C168 C 0.07909 0.88216 0.99263 0.0
C169 C 0.02065 0.85858 0.87647 0.0
C170 C 0.9806 0.87787 0.94074 0.0
C171 C 0.94873 0.88365 0.8247 0.0
C172 C 0.94418 0.87576 0.79187 0.0
C173 C 0.9538 0.8567 0.78072 0.0
C174 C 0.94779 0.84865 0.75019 0.0
C175 C 0.93215 0.85954 0.73017 0.0
C176 C 0.92303 0.87893 0.74124 0.0
C177 C 0.92896 0.88689 0.77175 0.0
C178 C 0.98993 0.93178 0.90191 0.0
C179 C 0.02924 0.90451 0.83587 0.0
O180 O 0.04092 0.91901 0.94984 0.0
O181 O 0.06068 0.89304 0.93211 0.0
O182 O 0.00559 0.86778 0.88989 0.0
O183 O 0.04016 0.86858 0.88319 0.0
O184 O 0.00134 0.88669 0.94484 0.0
O185 O 0.96973 0.87586 0.91271 0.0
O186 O 0.95551 0.869 0.84561 0.0
O187 O 0.95863 0.90363 0.82927 0.0
O188 O 0.00391 0.92225 0.88693 0.0
O189 O 0.9705 0.92098 0.89851 0.0
O190 O 0.00901 0.89441 0.83309 0.0
O191 O 0.0388 0.9118 0.86324 0.0
H192 H 0.04128 0.91988 1.00965 0.0
H193 H 0.04924 0.90483 0.06227 0.0
H194 H 0.09564 0.8608 0.02596 0.0
H195 H 0.08763 0.87564 0.9735 0.0
H196 H 0.9657 0.84784 0.79569 0.0
H197 H 0.95538 0.83387 0.74229 0.0
H198 H 0.91076 0.8876 0.72665 0.0
H199 H 0.92126 0.90155 0.77989 0.0
Sm200 Sm 0.4122 0.76978 0.2299 0.0
Sm201 Sm 0.41381 0.72186 0.20508 0.0
C202 C 0.3984 0.80526 0.25777 0.0
C203 C 0.38759 0.80919 0.28659 0.0
C204 C 0.37609 0.82864 0.2897 0.0
C205 C 0.36758 0.83358 0.31821 0.0
C206 C 0.37063 0.81915 0.34402 0.0
C207 C 0.38095 0.79892 0.34005 0.0
C208 C 0.3893 0.79395 0.31149 0.0
C209 C 0.45242 0.76302 0.2074 0.0
C210 C 0.42665 0.72862 0.27944 0.0
C211 C 0.41476 0.68246 0.17696 0.0
C212 C 0.41451 0.67588 0.14404 0.0
C213 C 0.4209 0.69182 0.12201 0.0
C214 C 0.41635 0.68759 0.09011 0.0
C215 C 0.40476 0.66751 0.07976 0.0
C216 C 0.39934 0.65102 0.10181 0.0
C217 C 0.40419 0.65523 0.13388 0.0
C218 C 0.37502 0.7319 0.23063 0.0
C219 C 0.41108 0.76369 0.1529 0.0
O220 O 0.38619 0.79393 0.23578 0.0
O221 O 0.41898 0.79912 0.26159 0.0
O222 O 0.44066 0.74826 0.22119 0.0
O223 O 0.44462 0.78267 0.21064 0.0
O224 O 0.41787 0.74848 0.2758 0.0
O225 O 0.42978 0.71606 0.25484 0.0
O226 O 0.43277 0.69359 0.18917 0.0
O227 O 0.39641 0.6912 0.18399 0.0
O228 O 0.38545 0.74424 0.21211 0.0
O229 O 0.3851 0.71364 0.23639 0.0
O230 O 0.41378 0.74213 0.15843 0.0
O231 O 0.40825 0.77779 0.17618 0.0
H232 H 0.37432 0.84037 0.27044 0.0
H233 H 0.35936 0.84909 0.32043 0.0
H234 H 0.38377 0.78753 0.3595 0.0
H235 H 0.39787 0.77865 0.30928 0.0
H236 H 0.42822 0.70804 0.12952 0.0
H237 H 0.4211 0.70042 0.0736 0.0
H238 H 0.3903 0.63545 0.09442 0.0
H239 H 0.39876 0.64293 0.15072 0.0
Sm240 Sm 0.49181 0.10138 0.41438 0.0
Sm241 Sm 0.53684 0.10544 0.3824 0.0
C242 C 0.46006 0.09321 0.45323 0.0
C243 C 0.45491 0.10067 0.48489 0.0
C244 C 0.46248 0.08915 0.51204 0.0
C245 C 0.45724 0.09609 0.54177 0.0
C246 C 0.44423 0.11465 0.54505 0.0
C247 C 0.43662 0.12609 0.51785 0.0
C248 C 0.44184 0.11916 0.48819 0.0
C249 C 0.5001 0.14067 0.38397 0.0
C250 C 0.53932 0.11915 0.45565 0.0
C251 C 0.56897 0.1143 0.34438 0.0
C252 C 0.57245 0.12295 0.31241 0.0
C253 C 0.57453 0.14613 0.30662 0.0
C254 C 0.57977 0.15414 0.27714 0.0
C255 C 0.58304 0.13919 0.25261 0.0
C256 C 0.58044 0.116 0.25828 0.0
C257 C 0.57533 0.108 0.28781 0.0
C258 C 0.52881 0.0661 0.41395 0.0
C259 C 0.48865 0.09526 0.34009 0.0
O260 O 0.47702 0.08062 0.45156 0.0
O261 O 0.45872 0.10801 0.43072 0.0
O262 O 0.51442 0.13027 0.40032 0.0
O263 O 0.48011 0.13167 0.38585 0.0
O264 O 0.51818 0.11145 0.45523 0.0
O265 O 0.55013 0.12062 0.42993 0.0
O266 O 0.56346 0.12854 0.36538 0.0
O267 O 0.55879 0.09441 0.34655 0.0
O268 O 0.5143 0.07612 0.39712 0.0
O269 O 0.54856 0.07584 0.41232 0.0
O270 O 0.50919 0.10459 0.34194 0.0
O271 O 0.47899 0.08812 0.36534 0.0
H272 H 0.47245 0.07473 0.51036 0.0
H273 H 0.46354 0.087 0.56221 0.0
H274 H 0.42622 0.14018 0.51937 0.0
H275 H 0.43547 0.12826 0.4678 0.0
H276 H 0.57261 0.15817 0.32505 0.0
H277 H 0.58192 0.1721 0.27396 0.0
H278 H 0.58243 0.10394 0.23992 0.0
H279 H 0.57399 0.09005 0.29151 0.0
Sm280 Sm 0.10627 0.21985 0.60154 0.0
Sm281 Sm 0.12151 0.26871 0.57808 0.0
C282 C 0.10499 0.17806 0.62084 0.0
C283 C 0.10779 0.16907 0.65269 0.0
C284 C 0.11999 0.15005 0.65867 0.0
C285 C 0.12528 0.14335 0.68959 0.0
C286 C 0.11847 0.15571 0.71482 0.0
C287 C 0.10568 0.17437 0.70855 0.0
C288 C 0.10053 0.18108 0.67781 0.0
C289 C 0.074 0.24691 0.57863 0.0
C290 C 0.10652 0.26099 0.65125 0.0
C291 C 0.12162 0.30925 0.55409 0.0
C292 C 0.11756 0.31725 0.52206 0.0
C293 C 0.10788 0.30236 0.49875 0.0
C294 C 0.10968 0.30736 0.46719 0.0
C295 C 0.12109 0.32733 0.45861 0.0
C296 C 0.12931 0.34294 0.48196 0.0
C297 C 0.12767 0.33783 0.51359 0.0
C298 C 0.15704 0.25028 0.61155 0.0
C299 C 0.11481 0.22655 0.5257 0.0
O300 O 0.12305 0.18824 0.61109 0.0
O301 O 0.08692 0.18896 0.6142 0.0
O302 O 0.09239 0.24467 0.56789 0.0
O303 O 0.07102 0.23362 0.60231 0.0
O304 O 0.10921 0.23928 0.64813 0.0
O305 O 0.10769 0.27501 0.62707 0.0
O306 O 0.10437 0.30012 0.56742 0.0
O307 O 0.13949 0.29774 0.55804 0.0
O308 O 0.13776 0.24131 0.60545 0.0
O309 O 0.15841 0.26955 0.59781 0.0
O310 O 0.11949 0.24842 0.53083 0.0
O311 O 0.11062 0.21259 0.54899 0.0
H312 H 0.12602 0.14083 0.63951 0.0
H313 H 0.13527 0.12899 0.69377 0.0
H314 H 0.09981 0.18398 0.72745 0.0
H315 H 0.09135 0.19602 0.67377 0.0
H316 H 0.10022 0.28628 0.50498 0.0
H317 H 0.1029 0.29523 0.44953 0.0
H318 H 0.1382 0.35842 0.47586 0.0
H319 H 0.13554 0.34928 0.53141 0.0
Sm320 Sm 0.90462 0.2652 0.71659 0.0
Sm321 Sm 0.90986 0.21716 0.69232 0.0
C322 C 0.88936 0.3008 0.74236 0.0
C323 C 0.87865 0.30632 0.77064 0.0
C324 C 0.86735 0.28972 0.78757 0.0
C325 C 0.85963 0.29497 0.81655 0.0
C326 C 0.86338 0.31681 0.82904 0.0
C327 C 0.87402 0.33347 0.81122 0.0
C328 C 0.88151 0.32825 0.78226 0.0
C329 C 0.94612 0.26076 0.69672 0.0
C330 C 0.92003 0.22557 0.76688 0.0
C331 C 0.91541 0.17819 0.66553 0.0
C332 C 0.91458 0.17099 0.63276 0.0
C333 C 0.91971 0.18652 0.60945 0.0
C334 C 0.91497 0.18099 0.5779 0.0
C335 C 0.90482 0.1599 0.56919 0.0
C336 C 0.9004 0.14407 0.59255 0.0
C337 C 0.90521 0.14963 0.62419 0.0
C338 C 0.86971 0.22495 0.71525 0.0
C339 C 0.90396 0.25825 0.63997 0.0
O340 O 0.87749 0.28817 0.72141 0.0
O341 O 0.9101 0.29532 0.74705 0.0
O342 O 0.9346 0.24521 0.70928 0.0
O343 O 0.93705 0.27978 0.69945 0.0
O344 O 0.90947 0.24437 0.7626 0.0
O345 O 0.9252 0.21352 0.7428 0.0
O346 O 0.93218 0.19191 0.67576 0.0
O347 O 0.89627 0.18406 0.67422 0.0
O348 O 0.88018 0.23791 0.69757 0.0
O349 O 0.8804 0.2071 0.72141 0.0
O350 O 0.90703 0.23679 0.64553 0.0
O351 O 0.90102 0.27248 0.66297 0.0
H352 H 0.86519 0.2726 0.77893 0.0
H353 H 0.85138 0.28181 0.82957 0.0
H354 H 0.87771 0.35031 0.82035 0.0
H355 H 0.89041 0.34115 0.76954 0.0
H356 H 0.92653 0.20321 0.6156 0.0
H357 H 0.91886 0.19339 0.56033 0.0
H358 H 0.89242 0.12775 0.58641 0.0
H359 H 0.90073 0.13763 0.64198 0.0
Sm360 Sm 0.60473 0.72165 0.10856 0.0
Sm361 Sm 0.60985 0.76958 0.08797 0.0
C362 C 0.60916 0.68278 0.1367 0.0
C363 C 0.61785 0.67653 0.16811 0.0
C364 C 0.63389 0.69073 0.18502 0.0
C365 C 0.64051 0.6861 0.21614 0.0
C366 C 0.63062 0.66757 0.23114 0.0
C367 C 0.61498 0.65302 0.21377 0.0
C368 C 0.60871 0.65745 0.18237 0.0
C369 C 0.56858 0.73504 0.07257 0.0
C370 C 0.59352 0.76247 0.15766 0.0
C371 C 0.61376 0.80922 0.06099 0.0
C372 C 0.61425 0.81774 0.02896 0.0
C373 C 0.60174 0.80673 1.00379 0.0
C374 C 0.60468 0.81339 0.97302 0.0
C375 C 0.62041 0.83095 0.96697 0.0
C376 C 0.63257 0.84214 0.99241 0.0
C377 C 0.62945 0.8356 0.02313 0.0
C378 C 0.64516 0.75591 0.12654 0.0
C379 C 0.60867 0.72878 0.03406 0.0
O380 O 0.62395 0.69174 0.11881 0.0
O381 O 0.59063 0.69331 0.13558 0.0
O382 O 0.57962 0.74688 0.09353 0.0
O383 O 0.57453 0.71452 0.07309 0.0
O384 O 0.59986 0.74167 0.15462 0.0
O385 O 0.59293 0.77627 0.1334 0.0
O386 O 0.59469 0.80044 0.06944 0.0
O387 O 0.63079 0.79764 0.07029 0.0
O388 O 0.63559 0.74428 0.10394 0.0
O389 O 0.63637 0.77502 0.12866 0.0
O390 O 0.60698 0.75038 0.03995 0.0
O391 O 0.61171 0.71441 0.05732 0.0
H392 H 0.64075 0.7058 0.1745 0.0
H393 H 0.65283 0.69745 0.2287 0.0
H394 H 0.60676 0.63883 0.22477 0.0
H395 H 0.59609 0.64652 0.16962 0.0
H396 H 0.5901 0.79268 1.00785 0.0
H397 H 0.59478 0.80467 0.954 0.0
H398 H 0.64502 0.85549 0.9886 0.0
H399 H 0.6395 0.844 0.04235 0.0
Sm400 Sm 0.65645 0.29066 0.93117 0.0
Sm401 Sm 0.6541 0.24728 0.89182 0.0
C402 C 0.65439 0.32298 0.97293 0.0
C403 C 0.64537 0.32654 1.00368 0.0
C404 C 0.62234 0.32788 1.00629 0.0
C405 C 0.6143 0.3325 0.0353 0.0
C406 C 0.62908 0.33579 0.0624 0.0
C407 C 0.65206 0.33396 0.05978 0.0
C408 C 0.6601 0.32953 0.03075 0.0
C409 C 0.69501 0.28147 0.90435 0.0
C410 C 0.65258 0.24163 0.96738 0.0
C411 C 0.65864 0.21166 0.85661 0.0
C412 C 0.65008 0.20441 0.82446 0.0
C413 C 0.66514 0.19933 0.80238 0.0
C414 C 0.65738 0.1929 0.77171 0.0
C415 C 0.63435 0.19132 0.76247 0.0
C416 C 0.61931 0.19653 0.78462 0.0
C417 C 0.62706 0.20304 0.81522 0.0
C418 C 0.61322 0.26405 0.90054 0.0
C419 C 0.64746 0.29489 0.85661 0.0
O420 O 0.64005 0.32011 0.94822 0.0
O421 O 0.67132 0.31012 0.97269 0.0
O422 O 0.68249 0.26736 0.91741 0.0
O423 O 0.68778 0.30139 0.90611 0.0
O424 O 0.65105 0.2636 0.96838 0.0
O425 O 0.65631 0.23111 0.94117 0.0
O426 O 0.67323 0.22889 0.85858 0.0
O427 O 0.64409 0.21212 0.87783 0.0
O428 O 0.62962 0.26351 0.92051 0.0
O429 O 0.61822 0.25532 0.87434 0.0
O430 O 0.65679 0.27544 0.85537 0.0
O431 O 0.64183 0.30307 0.88343 0.0
H432 H 0.6105 0.32573 0.98589 0.0
H433 H 0.59653 0.33408 0.03624 0.0
H434 H 0.66392 0.33598 0.08017 0.0
H435 H 0.67794 0.32863 0.02943 0.0
H436 H 0.68295 0.20036 0.80886 0.0
H437 H 0.66943 0.18881 0.75539 0.0
H438 H 0.60149 0.19585 0.77821 0.0
H439 H 0.615 0.20713 0.83153 0.0
Sm440 Sm 0.86661 0.71181 0.39253 0.0
Sm441 Sm 0.86519 0.757 0.35731 0.0
C442 C 0.87281 0.67928 0.43388 0.0
C443 C 0.88066 0.67596 0.46728 0.0
C444 C 0.90358 0.67594 0.47682 0.0
C445 C 0.91077 0.67094 0.50784 0.0
C446 C 0.89523 0.66589 0.53018 0.0
C447 C 0.87232 0.66647 0.52072 0.0
C448 C 0.86514 0.67131 0.48964 0.0
C449 C 0.82813 0.71737 0.35502 0.0
C450 C 0.85868 0.75882 0.4304 0.0
C451 C 0.85845 0.78812 0.31402 0.0
C452 C 0.8675 0.79384 0.28355 0.0
C453 C 0.85331 0.79294 0.25577 0.0
C454 C 0.8616 0.79859 0.22689 0.0
C455 C 0.88427 0.80538 0.22521 0.0
C456 C 0.8985 0.80597 0.25303 0.0
C457 C 0.89024 0.80028 0.28182 0.0
C458 C 0.90381 0.75141 0.39362 0.0
C459 C 0.88183 0.71134 0.32207 0.0
O460 O 0.88771 0.68603 0.41466 0.0
O461 O 0.85362 0.68838 0.42807 0.0
O462 O 0.83835 0.73249 0.37231 0.0
O463 O 0.83727 0.69832 0.35891 0.0
O464 O 0.86679 0.73873 0.43114 0.0
O465 O 0.85237 0.76855 0.40358 0.0
O466 O 0.84579 0.76957 0.31494 0.0
O467 O 0.87202 0.7913 0.33932 0.0
O468 O 0.89308 0.73636 0.37696 0.0
O469 O 0.89559 0.77084 0.38885 0.0
O470 O 0.87594 0.73235 0.32021 0.0
O471 O 0.88138 0.69975 0.34832 0.0
H472 H 0.91603 0.67929 0.46019 0.0
H473 H 0.92853 0.67036 0.514 0.0
H474 H 0.85985 0.66307 0.5373 0.0
H475 H 0.84736 0.67107 0.48302 0.0
H476 H 0.83573 0.78801 0.25642 0.0
H477 H 0.85013 0.7981 0.206 0.0
H478 H 0.91613 0.81071 0.25257 0.0
H479 H 0.90173 0.80097 0.30269 0.0
Sm480 Sm 0.53305 0.64394 0.64945 0.0
Sm481 Sm 0.48205 0.63131 0.66545 0.0
C482 C 0.57548 0.64093 0.64017 0.0
C483 C 0.58697 0.6392 0.61153 0.0
C484 C 0.57522 0.63055 0.58407 0.0
C485 C 0.58547 0.6304 0.55607 0.0
C486 C 0.60748 0.63934 0.555 0.0
C487 C 0.61929 0.64795 0.58251 0.0
C488 C 0.60909 0.64777 0.61074 0.0
C489 C 0.50703 0.67969 0.65132 0.0
C490 C 0.49393 0.64271 0.59111 0.0
C491 C 0.44021 0.62778 0.68013 0.0
C492 C 0.42601 0.63569 0.70335 0.0
C493 C 0.43288 0.65433 0.7224 0.0
C494 C 0.42109 0.65912 0.74819 0.0
C495 C 0.40257 0.64511 0.75527 0.0
C496 C 0.39515 0.62717 0.73515 0.0
C497 C 0.4068 0.62253 0.70926 0.0
C498 C 0.50287 0.59364 0.64721 0.0
C499 C 0.52159 0.64447 0.724 0.0
O500 O 0.56229 0.62352 0.6464 0.0
O501 O 0.56662 0.66014 0.64415 0.0
O502 O 0.50512 0.66242 0.66838 0.0
O503 O 0.52467 0.67928 0.63551 0.0
O504 O 0.51567 0.64177 0.59919 0.0
O505 O 0.47857 0.63992 0.61184 0.0
O506 O 0.44732 0.64235 0.65977 0.0
O507 O 0.45552 0.61454 0.69121 0.0
O508 O 0.51082 0.61339 0.65062 0.0
O509 O 0.48279 0.59298 0.65585 0.0
O510 O 0.49986 0.64064 0.7154 0.0
O511 O 0.53687 0.64458 0.70337 0.0
H512 H 0.55791 0.62451 0.58403 0.0
H513 H 0.57588 0.62417 0.53497 0.0
H514 H 0.63624 0.65508 0.58201 0.0
H515 H 0.61821 0.65481 0.63171 0.0
H516 H 0.44791 0.66443 0.71828 0.0
H517 H 0.42728 0.67285 0.7637 0.0
H518 H 0.38092 0.61619 0.74023 0.0
H519 H 0.40149 0.60796 0.6948 0.0
Sm520 Sm 0.99334 0.35696 0.17627 0.0
Sm521 Sm 0.01432 0.35021 0.10857 0.0
C522 C 0.98138 0.34787 0.23386 0.0
C523 C 0.97508 0.342 0.26628 0.0
C524 C 0.98233 0.32232 0.28097 0.0
C525 C 0.97617 0.31632 0.31104 0.0
C526 C 0.96257 0.32982 0.32761 0.0
C527 C 0.95547 0.34965 0.31296 0.0
C528 C 0.96156 0.3556 0.28273 0.0
C529 C 0.0048 0.39554 0.14527 0.0
C530 C 0.04774 0.35458 0.17402 0.0
C531 C 0.03678 0.34964 0.05718 0.0
C532 C 0.03873 0.34146 0.02433 0.0
C533 C 0.03085 0.35374 0.99801 0.0
C534 C 0.03529 0.3475 0.96741 0.0
C535 C 0.04794 0.32887 0.96208 0.0
C536 C 0.05553 0.31645 0.98849 0.0
C537 C 0.05103 0.32265 1.01901 0.0
C538 C 0.98634 0.31561 0.12777 0.0
C539 C 0.96274 0.36258 0.1113 0.0
O540 O -0.00407 0.33666 0.22002 0.0
O541 O 0.97326 0.36436 0.21713 0.0
O542 O 0.01489 0.37759 0.14516 0.0
O543 O 0.98956 0.3945 0.16543 0.0
O544 O 0.03091 0.35971 0.19029 0.0
O545 O 0.04544 0.34912 0.14385 0.0
O546 O 0.02269 0.36497 0.06245 0.0
O547 O 0.03924 0.33533 0.08031 0.0
O548 O -0.00025 0.32804 0.14517 0.0
O549 O 0.98966 0.3194 0.09857 0.0
O550 O 0.98119 0.36686 0.09669 0.0
O551 O 0.9628 0.35445 0.1402 0.0
H552 H 0.99275 0.31138 0.26913 0.0
H553 H 0.98232 0.30112 0.32144 0.0
H554 H 0.94481 0.36042 0.32461 0.0
H555 H 0.95559 0.37083 0.27219 0.0
H556 H 0.02162 0.36852 1.00107 0.0
H557 H 0.02883 0.35741 0.94791 0.0
H558 H 0.06565 0.30228 0.98583 0.0
H559 H 0.05784 0.31301 0.03859 0.0
Sm560 Sm 0.52505 0.39227 0.41878 0.0
Sm561 Sm 0.47997 0.39055 0.37646 0.0
C562 C 0.56095 0.40182 0.45718 0.0
C563 C 0.56876 0.39449 0.48908 0.0
C564 C 0.57283 0.4104 0.51338 0.0
C565 C 0.57933 0.40374 0.54397 0.0
C566 C 0.58201 0.38098 0.55091 0.0
C567 C 0.57799 0.36506 0.52651 0.0
C568 C 0.57138 0.37172 0.49596 0.0
C569 C 0.50843 0.35005 0.39996 0.0
C570 C 0.47839 0.37781 0.44953 0.0
C571 C 0.44697 0.38502 0.33185 0.0
C572 C 0.44265 0.37589 0.2995 0.0
C573 C 0.44529 0.3532 0.29266 0.0
C574 C 0.43991 0.34471 0.26228 0.0
C575 C 0.43165 0.35865 0.23801 0.0
C576 C 0.42945 0.38144 0.2448 0.0
C577 C 0.43486 0.38993 0.27519 0.0
C578 C 0.49021 0.42907 0.41147 0.0
C579 C 0.5283 0.39485 0.34331 0.0
O580 O 0.54354 0.4141 0.4554 0.0
O581 O 0.56041 0.387 0.4344 0.0
O582 O 0.5078 0.3676 0.38405 0.0
O583 O 0.51947 0.35407 0.42699 0.0
O584 O 0.49802 0.38904 0.45391 0.0
O585 O 0.46917 0.37274 0.42104 0.0
O586 O 0.45048 0.37065 0.35473 0.0
O587 O 0.45967 0.40362 0.33542 0.0
O588 O 0.5037 0.41853 0.39692 0.0
O589 O 0.47016 0.41991 0.40662 0.0
O590 O 0.50641 0.39046 0.34047 0.0
O591 O 0.53949 0.39873 0.37093 0.0
H592 H 0.57084 0.42804 0.50872 0.0
H593 H 0.58251 0.41645 0.56213 0.0
H594 H 0.5796 0.34738 0.53112 0.0
H595 H 0.56813 0.35897 0.47785 0.0
H596 H 0.4512 0.34187 0.31081 0.0
H597 H 0.44216 0.32716 0.25784 0.0
H598 H 0.4229 0.39262 0.22685 0.0
H599 H 0.43255 0.40744 0.27984 0.0
Sm600 Sm -0.00358 0.60275 0.90958 0.0
Sm601 Sm 0.04069 0.60285 0.87584 0.0
C602 C 0.96064 0.59539 0.94104 0.0
C603 C 0.95401 0.60277 0.97202 0.0
C604 C 0.96355 0.59399 1.00023 0.0
C605 C 0.95773 0.60168 0.02928 0.0
C606 C 0.94229 0.61836 0.03084 0.0
C607 C 0.93259 0.62694 1.00263 0.0
C608 C 0.93833 0.61918 0.9736 0.0
C609 C 0.01471 0.64416 0.89422 0.0
C610 C 0.04372 0.61569 0.94932 0.0
C611 C 0.07365 0.60822 0.8388 0.0
C612 C 0.07814 0.61767 0.80772 0.0
C613 C 0.08776 0.63958 0.80552 0.0
C614 C 0.09343 0.64813 0.7766 0.0
C615 C 0.08966 0.63498 0.74913 0.0
C616 C 0.07971 0.61318 0.75127 0.0
C617 C 0.07409 0.6046 0.78023 0.0
C618 C 0.03141 0.56538 0.91064 0.0
C619 C 0.99194 0.59985 0.83306 0.0
O620 O 0.97671 0.58145 0.94115 0.0
O621 O 0.96207 0.61086 0.91944 0.0
O622 O 0.01381 0.62666 0.878 0.0
O623 O 0.00451 0.64072 0.91963 0.0
O624 O 0.02393 0.60493 0.95 0.0
O625 O 0.05244 0.62069 0.92255 0.0
O626 O 0.07034 0.62254 0.86108 0.0
O627 O 0.06074 0.58973 0.83931 0.0
O628 O 0.01717 0.57541 0.89346 0.0
O629 O 0.05136 0.57413 0.90796 0.0
O630 O 0.01397 0.60262 0.83441 0.0
O631 O 0.98096 0.59713 0.85859 0.0
H632 H 0.97571 0.58132 0.99998 0.0
H633 H 0.96568 0.59487 0.05053 0.0
H634 H 0.9204 0.63957 1.00296 0.0
H635 H 0.93057 0.62617 0.95232 0.0
H636 H 0.09133 0.65002 0.82627 0.0
H637 H 0.10138 0.66485 0.77601 0.0
H638 H 0.07628 0.60269 0.73055 0.0
H639 H 0.06681 0.58761 0.78109 0.0
C640 C 0.09217 0.1391 0.97894 0.0
C641 C 0.10848 0.14553 1.00316 0.0
C642 C 0.09832 0.13361 0.94929 0.0
C643 C 0.1443 0.14569 0.89939 0.0
H644 H 0.10558 0.10837 0.8412 0.0
C645 C 0.13117 0.16648 0.77007 0.0
C646 C 0.12482 0.14958 0.74771 0.0
C647 C 0.13477 0.1612 0.8017 0.0
C648 C 0.11698 0.11846 0.85714 0.0
H649 H 0.14413 0.14984 1.0158 0.0
H650 H 0.15494 0.13939 0.96424 0.0
H651 H 0.1013 0.10569 0.89711 0.0
H652 H 0.11867 0.11373 0.74063 0.0
H653 H 0.12566 0.10435 0.79603 0.0
H654 H 0.16004 0.15838 0.85945 0.0
C655 C 0.13734 0.13922 0.96797 0.0
C656 C 0.11428 0.11717 0.88922 0.0
C657 C 0.13115 0.145 0.99761 0.0
C658 C 0.12352 0.1271 0.75738 0.0
C659 C 0.12732 0.12177 0.78912 0.0
C660 C 0.14725 0.14669 0.86739 0.0
C661 C 0.12098 0.13405 0.94324 0.0
C662 C 0.12716 0.13157 0.91053 0.0
C663 C 0.13242 0.13883 0.81172 0.0
C664 C 0.13289 0.13391 0.84577 0.0
H665 H 0.07455 0.13878 0.98267 0.0
H666 H 0.08521 0.13001 0.93081 0.0
H667 H 0.15452 0.15709 0.91503 0.0
H668 H 0.13279 0.18393 0.76323 0.0
H669 H 0.13835 0.17485 0.81838 0.0
C670 C 0.12137 0.81782 0.31827 0.0
C671 C 0.12465 0.79471 0.31992 0.0
C672 C 0.11558 0.82788 0.28945 0.0
C673 C 0.11693 0.81887 0.20386 0.0
H674 H 0.07371 0.86466 0.1971 0.0
C675 C 0.07981 0.84895 0.08415 0.0
C676 C 0.07782 0.87214 0.08016 0.0
C677 C 0.0853 0.84015 0.11385 0.0
C678 C 0.08597 0.85206 0.19868 0.0
H679 H 0.12391 0.76397 0.29263 0.0
H680 H 0.11337 0.78138 0.24261 0.0
H681 H 0.08367 0.84807 0.24815 0.0
H682 H 0.07982 0.90421 0.10437 0.0
H683 H 0.08938 0.88878 0.15635 0.0
H684 H 0.11911 0.8227 0.15442 0.0
C685 C 0.11578 0.79187 0.26345 0.0
C686 C 0.09171 0.84256 0.22793 0.0
C687 C 0.12169 0.78184 0.2922 0.0
C688 C 0.08101 0.88625 0.1067 0.0
C689 C 0.0865 0.87742 0.13647 0.0
C690 C 0.11114 0.82829 0.17466 0.0
C691 C 0.11283 0.81504 0.26165 0.0
C692 C 0.10712 0.8257 0.23082 0.0
C693 C 0.08892 0.85429 0.14031 0.0
C694 C 0.09546 0.84485 0.17166 0.0
H695 H 0.12363 0.82826 0.33917 0.0
H696 H 0.11369 0.8458 0.28889 0.0
H697 H 0.12924 0.80631 0.20532 0.0
H698 H 0.07704 0.83756 0.06429 0.0
H699 H 0.08658 0.82219 0.11611 0.0
C700 C 0.37251 0.84855 0.3857 0.0
C701 C 0.36605 0.82651 0.37587 0.0
C702 C 0.37228 0.85473 0.41708 0.0
C703 C 0.38017 0.82888 0.49365 0.0
H704 H 0.37687 0.89045 0.52121 0.0
C705 C 0.42471 0.85776 0.60982 0.0
C706 C 0.44136 0.87448 0.60425 0.0
C707 C 0.40653 0.85352 0.58781 0.0
C708 C 0.37752 0.87311 0.51401 0.0
H709 H 0.35256 0.79414 0.39077 0.0
H710 H 0.35212 0.805 0.44594 0.0
H711 H 0.35969 0.87864 0.4696 0.0
H712 H 0.45072 0.90159 0.57335 0.0
H713 H 0.41889 0.89431 0.53504 0.0
H714 H 0.39893 0.82362 0.53732 0.0
C715 C 0.35764 0.81739 0.42931 0.0
C716 C 0.36779 0.86636 0.48448 0.0
C717 C 0.35791 0.81117 0.39778 0.0
C718 C 0.43825 0.88846 0.57808 0.0
C719 C 0.41993 0.88438 0.55625 0.0
C720 C 0.38968 0.83558 0.52327 0.0
C721 C 0.36554 0.83904 0.43946 0.0
C722 C 0.37004 0.84449 0.47335 0.0
C723 C 0.40455 0.86613 0.56015 0.0
C724 C 0.38936 0.85801 0.53307 0.0
H725 H 0.37927 0.86067 0.36961 0.0
H726 H 0.37893 0.87139 0.42407 0.0
H727 H 0.38246 0.81199 0.48578 0.0
H728 H 0.42658 0.84671 0.62984 0.0
H729 H 0.3948 0.83947 0.59144 0.0
C730 C 0.38355 0.20367 0.77718 0.0
C731 C 0.37912 0.19087 0.80379 0.0
C732 C 0.39079 0.19369 0.75067 0.0
C733 C 0.41553 0.14311 0.72138 0.0
H734 H 0.39336 0.16678 0.64105 0.0
C735 C 0.43234 0.10612 0.59929 0.0
C736 C 0.43823 0.12195 0.57652 0.0
C737 C 0.42548 0.11308 0.62815 0.0
C738 C 0.39981 0.16008 0.66329 0.0
H739 H 0.37938 0.15755 0.82374 0.0
H740 H 0.39145 0.13974 0.77658 0.0
H741 H 0.37998 0.18079 0.68908 0.0
H742 H 0.44252 0.15756 0.56702 0.0
H743 H 0.43025 0.16962 0.617 0.0
H744 H 0.43513 0.12209 0.69502 0.0
C745 C 0.38955 0.15766 0.77655 0.0
C746 C 0.39219 0.16814 0.6909 0.0
C747 C 0.38253 0.1678 0.80348 0.0
C748 C 0.43763 0.14489 0.58366 0.0
C749 C 0.43065 0.15182 0.61234 0.0
C750 C 0.423 0.13483 0.69357 0.0
C751 C 0.39351 0.1705 0.74966 0.0
C752 C 0.40031 0.16017 0.72038 0.0
C753 C 0.42422 0.13601 0.63473 0.0
C754 C 0.41553 0.14359 0.6643 0.0
H755 H 0.38167 0.22161 0.77685 0.0
H756 H 0.39439 0.2043 0.73094 0.0
H757 H 0.42222 0.13665 0.74363 0.0
H758 H 0.43237 0.08831 0.59449 0.0
H759 H 0.42048 0.10053 0.64489 0.0
C760 C 0.90872 0.83061 0.19363 0.0
C761 C 0.89307 0.81224 0.19478 0.0
C762 C 0.91737 0.83694 0.16536 0.0
C763 C 0.90669 0.83371 0.07959 0.0
H764 H 0.97063 0.84679 0.08056 0.0
C765 C 0.95104 0.85436 0.96609 0.0
C766 C 0.96943 0.87007 0.96874 0.0
C767 C 0.94109 0.84664 0.99293 0.0
C768 C 0.95269 0.84355 0.07985 0.0
H769 H 0.8742 0.78619 0.16681 0.0
H770 H 0.88918 0.79749 0.11724 0.0
H771 H 0.95437 0.8348 0.1285 0.0
H772 H 0.99122 0.89071 1.00145 0.0
H773 H 0.9735 0.87798 0.04786 0.0
H774 H 0.90492 0.84298 0.03107 0.0
C775 C 0.89462 0.80701 0.13835 0.0
C776 C 0.9434 0.83657 0.10738 0.0
C777 C 0.88603 0.80057 0.16674 0.0
C778 C 0.9773 0.87831 0.99864 0.0
C779 C 0.96719 0.87088 0.02533 0.0
C780 C 0.91597 0.84096 0.05202 0.0
C781 C 0.91053 0.82515 0.13743 0.0
C782 C 0.92029 0.83174 0.10766 0.0
C783 C 0.94915 0.85469 0.02297 0.0
C784 C 0.93911 0.8462 0.05187 0.0
H785 H 0.91416 0.84031 0.21458 0.0
H786 H 0.92931 0.85124 0.1653 0.0
H787 H 0.88879 0.83023 0.07914 0.0
H788 H 0.94463 0.84766 0.94335 0.0
H789 H 0.92739 0.83402 0.99015 0.0
C790 C 0.92302 0.23065 0.82595 0.0
C791 C 0.92616 0.21757 0.79942 0.0
C792 C 0.92924 0.22311 0.8564 0.0
C793 C 0.9649 0.18146 0.89875 0.0
H794 H 0.93287 0.19748 0.96992 0.0
C795 C 0.00128 0.16662 0.02556 0.0
C796 C 0.98693 0.16092 0.04915 0.0
C797 C 0.99282 0.17278 0.99554 0.0
C798 C 0.9419 0.19259 0.95033 0.0
H799 H 0.93787 0.18588 0.78451 0.0
H800 H 0.94808 0.17259 0.83707 0.0
H801 H 0.91976 0.20911 0.91727 0.0
H802 H 0.95218 0.15735 0.05926 0.0
H803 H 0.93729 0.16761 1.00648 0.0
H804 H 0.98656 0.16431 0.93143 0.0
C805 C 0.94139 0.18899 0.8346 0.0
C806 C 0.93454 0.19959 0.92002 0.0
C807 C 0.93536 0.19659 0.80424 0.0
C808 C 0.96375 0.16151 0.0417 0.0
C809 C 0.95522 0.16761 1.01142 0.0
C810 C 0.97211 0.17432 0.92892 0.0
C811 C 0.93866 0.20218 0.86125 0.0
C812 C 0.94603 0.19429 0.89371 0.0
C813 C 0.96966 0.17333 0.98781 0.0
C814 C 0.96094 0.17998 0.95533 0.0
H815 H 0.91599 0.24689 0.82325 0.0
H816 H 0.92707 0.23397 0.87608 0.0
H817 H 0.97449 0.17718 0.87944 0.0
H818 H 0.01924 0.1666 0.03028 0.0
H819 H 0.00462 0.17753 0.97852 0.0
C820 C 0.63714 0.19137 0.70384 0.0
C821 C 0.62601 0.18398 0.73003 0.0
C822 C 0.62933 0.18426 0.67346 0.0
C823 C 0.59314 0.13959 0.63116 0.0
H824 H 0.59271 0.18131 0.56163 0.0
C825 C 0.54114 0.12123 0.51428 0.0
C826 C 0.55095 0.12644 0.48619 0.0
C827 C 0.55186 0.12795 0.54323 0.0
C828 C 0.59299 0.1694 0.58074 0.0
H829 H 0.59797 0.16315 0.74464 0.0
H830 H 0.58408 0.15125 0.69186 0.0
H831 H 0.60828 0.1938 0.61376 0.0
H832 H 0.57976 0.14292 0.46658 0.0
H833 H 0.59845 0.15483 0.51741 0.0
H834 H 0.57744 0.11534 0.5983 0.0
C835 C 0.59904 0.1623 0.69474 0.0
C836 C 0.60192 0.17653 0.61062 0.0
C837 C 0.60685 0.16938 0.72504 0.0
C838 C 0.57176 0.13861 0.48777 0.0
C839 C 0.58242 0.14553 0.51684 0.0
C840 C 0.58412 0.13252 0.60139 0.0
C841 C 0.61022 0.16956 0.66854 0.0
C842 C 0.60183 0.16178 0.63632 0.0
C843 C 0.5726 0.14018 0.54489 0.0
C844 C 0.58366 0.1474 0.57593 0.0
H845 H 0.6518 0.20282 0.70676 0.0
H846 H 0.63845 0.19008 0.65389 0.0
H847 H 0.59326 0.12761 0.65017 0.0
H848 H 0.52515 0.11186 0.51401 0.0
H849 H 0.54371 0.12382 0.56437 0.0
C850 C 0.55274 0.84937 0.41216 0.0
C851 C 0.54768 0.83412 0.4362 0.0
C852 C 0.55722 0.8419 0.38208 0.0
C853 C 0.55287 0.79001 0.32984 0.0
H854 H 0.59262 0.82609 0.28052 0.0
C855 C 0.58602 0.75601 0.2148 0.0
C856 C 0.58774 0.77073 0.18921 0.0
C857 C 0.58089 0.76381 0.2444 0.0
C858 C 0.58131 0.81582 0.29376 0.0
H859 H 0.54321 0.79851 0.4459 0.0
H860 H 0.55204 0.78569 0.39479 0.0
H861 H 0.58454 0.83922 0.33216 0.0
H862 H 0.58547 0.80551 0.17544 0.0
H863 H 0.5767 0.81904 0.22678 0.0
H864 H 0.55011 0.76641 0.29154 0.0
C865 C 0.55206 0.80358 0.39877 0.0
C866 C 0.57654 0.82344 0.32364 0.0
C867 C 0.54732 0.81105 0.4287 0.0
C868 C 0.58426 0.79356 0.19436 0.0
C869 C 0.57936 0.8014 0.22404 0.0
C870 C 0.55785 0.7823 0.30014 0.0
C871 C 0.55709 0.81882 0.37471 0.0
C872 C 0.5622 0.81071 0.34239 0.0
C873 C 0.57752 0.78667 0.24963 0.0
C874 C 0.57216 0.79504 0.28151 0.0
H875 H 0.55363 0.86726 0.41655 0.0
H876 H 0.56062 0.85442 0.36453 0.0
H877 H 0.54136 0.77973 0.3427 0.0
H878 H 0.58864 0.73836 0.21203 0.0
H879 H 0.57993 0.7519 0.2634 0.0
C880 C 0.63661 0.68358 0.28532 0.0
C881 C 0.63489 0.66471 0.2654 0.0
C882 C 0.63816 0.68099 0.31774 0.0
C883 C 0.64777 0.63991 0.38153 0.0
H884 H 0.61056 0.67843 0.42526 0.0
C885 C 0.61572 0.62304 0.50381 0.0
C886 C 0.6171 0.64141 0.52453 0.0
C887 C 0.62183 0.62586 0.47323 0.0
C888 C 0.62126 0.66779 0.41338 0.0
H889 H 0.63456 0.62838 0.26387 0.0
H890 H 0.63618 0.62379 0.32061 0.0
H891 H 0.61371 0.68341 0.36931 0.0
H892 H 0.6264 0.67688 0.53023 0.0
H893 H 0.63697 0.68186 0.47648 0.0
H894 H 0.65435 0.62367 0.42576 0.0
C895 C 0.63678 0.64061 0.31112 0.0
C896 C 0.62315 0.67067 0.38141 0.0
C897 C 0.63555 0.64321 0.27862 0.0
C898 C 0.62548 0.66244 0.51471 0.0
C899 C 0.63133 0.66532 0.48403 0.0
C900 C 0.64564 0.63686 0.41354 0.0
C901 C 0.63762 0.65948 0.33095 0.0
C902 C 0.63643 0.65678 0.36514 0.0
C903 C 0.62911 0.64715 0.46295 0.0
C904 C 0.63239 0.65082 0.42961 0.0
H905 H 0.63585 0.70039 0.27598 0.0
H906 H 0.63921 0.69586 0.33244 0.0
H907 H 0.65827 0.62909 0.36965 0.0
H908 H 0.60926 0.60669 0.51101 0.0
H909 H 0.61982 0.61168 0.45719 0.0
C910 C 0.62843 0.32505 0.82559 0.0
C911 C 0.64249 0.30703 0.82693 0.0
C912 C 0.62258 0.33531 0.79688 0.0
C913 C 0.63944 0.34178 0.71566 0.0
H914 H 0.57713 0.35276 0.69476 0.0
C915 C 0.60477 0.35749 0.58861 0.0
C916 C 0.58906 0.37389 0.58341 0.0
C917 C 0.61155 0.35091 0.6191 0.0
C918 C 0.59465 0.35009 0.70037 0.0
H919 H 0.66193 0.28608 0.79932 0.0
H920 H 0.6517 0.30383 0.74954 0.0
H921 H 0.58898 0.33923 0.747 0.0
H922 H 0.56792 0.39596 0.6063 0.0
H923 H 0.58004 0.38472 0.65959 0.0
H924 H 0.64511 0.35238 0.66902 0.0
C925 C 0.64528 0.31018 0.77059 0.0
C926 C 0.60144 0.34236 0.73033 0.0
C927 C 0.65102 0.29988 0.79915 0.0
C928 C 0.58024 0.38347 0.60949 0.0
C929 C 0.587 0.37686 0.64002 0.0
C930 C 0.63267 0.34951 0.68577 0.0
C931 C 0.63081 0.32785 0.76902 0.0
C932 C 0.62387 0.33782 0.73816 0.0
C933 C 0.60281 0.36055 0.64519 0.0
C934 C 0.61014 0.35346 0.67759 0.0
H935 H 0.62156 0.33094 0.84657 0.0
H936 H 0.61156 0.34903 0.79648 0.0
H937 H 0.65691 0.33881 0.72114 0.0
H938 H 0.61205 0.3499 0.5691 0.0
H939 H 0.62352 0.33807 0.6222 0.0
C940 C 0.93753 0.38209 0.07306 0.0
C941 C 0.94142 0.36369 0.09255 0.0
C942 C 0.91976 0.38094 0.04994 0.0
C943 C 0.8734 0.34153 1.01302 0.0
H944 H 0.89356 0.36871 0.93713 0.0
C945 C 0.86454 0.30665 0.88599 0.0
C946 C 0.85896 0.32187 0.8619 0.0
C947 C 0.86589 0.31349 0.91738 0.0
C948 C 0.88743 0.36136 0.95822 0.0
H949 H 0.92924 0.33042 0.10522 0.0
H950 H 0.89959 0.3274 0.06335 0.0
H951 H 0.91288 0.37904 0.98714 0.0
H952 H 0.84775 0.35522 0.85205 0.0
H953 H 0.85116 0.36738 0.9069 0.0
H954 H 0.84939 0.32204 0.98265 0.0
C955 C 0.9093 0.3432 0.0663 0.0
C956 C 0.89841 0.3674 0.98715 0.0
C957 C 0.92649 0.34477 0.09027 0.0
C958 C 0.85262 0.34328 0.87003 0.0
C959 C 0.85434 0.35021 0.90135 0.0
C960 C 0.8628 0.33501 0.98381 0.0
C961 C 0.90634 0.3609 0.04484 0.0
C962 C 0.89193 0.35722 1.015 0.0
C963 C 0.86189 0.33565 0.92507 0.0
C964 C 0.87003 0.34466 0.95624 0.0
H965 H 0.94879 0.39697 0.07485 0.0
H966 H 0.91745 0.39533 0.03491 0.0
H967 H 0.86753 0.33364 0.03386 0.0
H968 H 0.86971 0.29011 0.88061 0.0
H969 H 0.87201 0.30209 0.93536 0.0
C970 C 0.89265 0.71371 0.2668 0.0
C971 C 0.88908 0.70069 0.29352 0.0
C972 C 0.89853 0.70378 0.2393 0.0
C973 C 0.92143 0.65301 0.20763 0.0
H974 H 0.89446 0.67473 0.12878 0.0
C975 C 0.93305 0.61218 0.08682 0.0
C976 C 0.93641 0.62691 0.06172 0.0
C977 C 0.9272 0.62026 0.11564 0.0
C978 C 0.90232 0.66861 0.15056 0.0
H979 H 0.88918 0.66697 0.31235 0.0
H980 H 0.89917 0.64953 0.26402 0.0
H981 H 0.88441 0.69021 0.17804 0.0
H982 H 0.93694 0.66182 0.04769 0.0
H983 H 0.92676 0.67588 0.09783 0.0
H984 H 0.93932 0.63135 0.17991 0.0
C985 C 0.89768 0.66751 0.26455 0.0
C986 C 0.89656 0.67751 0.17884 0.0
C987 C 0.89188 0.6775 0.29222 0.0
C988 C 0.93404 0.64994 0.06629 0.0
C989 C 0.92821 0.65801 0.09505 0.0
C990 C 0.92717 0.64405 0.17924 0.0
C991 C 0.90084 0.68052 0.23764 0.0
C992 C 0.90627 0.67007 0.20773 0.0
C993 C 0.92457 0.64327 0.12003 0.0
C994 C 0.91788 0.65197 0.15036 0.0
H995 H 0.89087 0.73166 0.267 0.0
H996 H 0.90132 0.7144 0.21929 0.0
H997 H 0.92934 0.64701 0.22943 0.0
H998 H 0.9345 0.59431 0.084 0.0
H999 H 0.92429 0.60843 0.13428 0.0
C1000 C 0.4461 0.35841 0.47491 0.0
C1001 C 0.46696 0.37049 0.47765 0.0
C1002 C 0.43603 0.35087 0.5018 0.0
C1003 C 0.45041 0.33714 0.58499 0.0
H1004 H 0.38726 0.34162 0.59443 0.0
C1005 C 0.40834 0.29787 0.69038 0.0
C1006 C 0.3935 0.31107 0.70506 0.0
C1007 C 0.41625 0.30428 0.6616 0.0
C1008 C 0.40494 0.34032 0.59217 0.0
H1009 H 0.49329 0.38456 0.51097 0.0
H1010 H 0.4758 0.37157 0.55739 0.0
H1011 H 0.40295 0.35487 0.54619 0.0
H1012 H 0.37545 0.34147 0.70061 0.0
H1013 H 0.38909 0.35248 0.65034 0.0
H1014 H 0.45259 0.32303 0.63104 0.0
C1015 C 0.46732 0.3676 0.53456 0.0
C1016 C 0.41388 0.34771 0.56441 0.0
C1017 C 0.4773 0.37518 0.50784 0.0
C1018 C 0.38657 0.33068 0.68987 0.0
C1019 C 0.3944 0.33703 0.661 0.0
C1020 C 0.44148 0.32968 0.61259 0.0
C1021 C 0.44671 0.35515 0.53192 0.0
C1022 C 0.43678 0.34642 0.56066 0.0
C1023 C 0.40948 0.324 0.64662 0.0
C1024 C 0.41868 0.3313 0.61665 0.0
H1025 H 0.43765 0.35454 0.45204 0.0
H1026 H 0.42017 0.34125 0.49897 0.0
H1027 H 0.46806 0.33563 0.5827 0.0
H1028 H 0.41373 0.28243 0.70097 0.0
H1029 H 0.42759 0.29367 0.65095 0.0
C1030 C 0.50178 0.66111 0.53947 0.0
C1031 C 0.48665 0.64952 0.55814 0.0
C1032 C 0.49468 0.66963 0.50987 0.0
C1033 C 0.44994 0.66359 0.44449 0.0
H1034 H 0.47214 0.72303 0.42124 0.0
C1035 C 0.43775 0.69725 0.31629 0.0
C1036 C 0.43276 0.71987 0.31182 0.0
C1037 C 0.44345 0.68884 0.34644 0.0
C1038 C 0.46563 0.70645 0.42731 0.0
H1039 H 0.45199 0.63775 0.55954 0.0
H1040 H 0.43972 0.65215 0.50769 0.0
H1041 H 0.4835 0.70807 0.47293 0.0
H1042 H 0.42994 0.75126 0.33627 0.0
H1043 H 0.44017 0.73669 0.38872 0.0
H1044 H 0.43219 0.66189 0.39879 0.0
C1045 C 0.45716 0.65466 0.51604 0.0
C1046 C 0.47235 0.69774 0.45698 0.0
C1047 C 0.46422 0.64636 0.54587 0.0
C1048 C 0.43369 0.73379 0.3386 0.0
C1049 C 0.43968 0.72542 0.36877 0.0
C1050 C 0.44346 0.67217 0.41465 0.0
C1051 C 0.47223 0.66667 0.49767 0.0
C1052 C 0.46467 0.67613 0.46608 0.0
C1053 C 0.44464 0.70278 0.37324 0.0
C1054 C 0.45122 0.69375 0.40548 0.0
H1055 H 0.51911 0.66423 0.5481 0.0
H1056 H 0.50687 0.67859 0.49647 0.0
H1057 H 0.44372 0.64687 0.45043 0.0
H1058 H 0.43717 0.6859 0.29642 0.0
H1059 H 0.44732 0.6714 0.34865 0.0
C1060 C 0.10783 0.66952 0.21736 0.0
C1061 C 0.12741 0.68342 0.22278 0.0
C1062 C 0.10013 0.66283 0.18692 0.0
C1063 C 0.11743 0.65689 0.10633 0.0
H1064 H 0.05348 0.65454 0.08487 0.0
C1065 C 0.07503 0.63741 0.9807 0.0
C1066 C 0.05574 0.62284 0.97956 0.0
C1067 C 0.08518 0.64526 1.00962 0.0
C1068 C 0.07137 0.65495 0.09057 0.0
H1069 H 0.15433 0.70119 0.20054 0.0
H1070 H 0.14069 0.6897 0.1471 0.0
H1071 H 0.06836 0.66777 0.13661 0.0
H1072 H 0.03264 0.60426 1.00793 0.0
H1073 H 0.05034 0.61779 0.05793 0.0
H1074 H 0.12027 0.64405 0.05996 0.0
C1075 C 0.13148 0.68371 0.16651 0.0
C1076 C 0.07991 0.6625 0.12025 0.0
C1077 C 0.13927 0.69033 0.19707 0.0
C1078 C 0.04729 0.61571 1.00786 0.0
C1079 C 0.05738 0.62353 0.03658 0.0
C1080 C 0.10885 0.64939 0.07646 0.0
C1081 C 0.11173 0.66999 0.16109 0.0
C1082 C 0.103 0.66321 0.12872 0.0
C1083 C 0.07617 0.6387 0.0378 0.0
C1084 C 0.08569 0.64799 0.06852 0.0
H1085 H 0.09856 0.66357 0.23674 0.0
H1086 H 0.08514 0.65184 0.18369 0.0
H1087 H 0.13529 0.65711 0.11218 0.0
H1088 H 0.08196 0.64319 0.95931 0.0
H1089 H 0.09965 0.65697 1.00989 0.0
C1090 C 0.09868 0.25419 0.70774 0.0
C1091 C 0.10125 0.26937 0.68287 0.0
C1092 C 0.09325 0.26146 0.73728 0.0
C1093 C 0.07038 0.30949 0.77892 0.0
H1094 H 0.09389 0.27855 0.85297 0.0
C1095 C 0.05768 0.33927 0.9067 0.0
C1096 C 0.05368 0.32269 0.92945 0.0
C1097 C 0.06356 0.3335 0.8766 0.0
C1098 C 0.08692 0.28727 0.8326 0.0
H1099 H 0.09998 0.30441 0.67018 0.0
H1100 H 0.09097 0.31724 0.7219 0.0
H1101 H 0.10429 0.26774 0.80149 0.0
H1102 H 0.05236 0.28673 0.93714 0.0
H1103 H 0.06276 0.27682 0.88523 0.0
H1104 H 0.0532 0.32919 0.81036 0.0
C1105 C 0.09284 0.29951 0.71838 0.0
C1106 C 0.09289 0.28102 0.80282 0.0
C1107 C 0.09821 0.29218 0.68863 0.0
C1108 C 0.05567 0.30013 0.92081 0.0
C1109 C 0.06166 0.29439 0.89081 0.0
C1110 C 0.0645 0.31584 0.80881 0.0
C1111 C 0.09031 0.28427 0.7433 0.0
C1112 C 0.08456 0.29181 0.77533 0.0
C1113 C 0.06579 0.31096 0.86817 0.0
C1114 C 0.0725 0.30469 0.83616 0.0
H1115 H 0.10066 0.23645 0.70444 0.0
H1116 H 0.09101 0.24898 0.75529 0.0
H1117 H 0.06332 0.31813 0.75855 0.0
H1118 H 0.05677 0.35685 0.9123 0.0
H1119 H 0.06685 0.34682 0.86013 0.0
C1120 C 0.95734 0.30876 0.16625 0.0
C1121 C 0.96557 0.30419 0.13728 0.0
C1122 C 0.93735 0.29822 0.17463 0.0
C1123 C 0.91667 0.2563 0.19776 0.0
H1124 H 0.89916 0.21576 0.12865 0.0
C1125 C 0.97014 0.20665 0.1348 0.0
C1126 C 0.98151 0.19468 0.15852 0.0
C1127 C 0.94852 0.21297 0.13844 0.0
C1128 C 0.90326 0.22657 0.14892 0.0
H1129 H 0.9586 0.28626 0.09326 0.0
H1130 H 0.92509 0.26652 0.10819 0.0
H1131 H 0.89024 0.25485 0.12479 0.0
H1132 H 0.97905 0.17889 0.20391 0.0
H1133 H 0.94141 0.19033 0.21056 0.0
H1134 H 0.9315 0.22878 0.22111 0.0
C1135 C 0.93324 0.27875 0.12464 0.0
C1136 C 0.89824 0.24913 0.14671 0.0
C1137 C 0.95292 0.2897 0.11613 0.0
C1138 C 0.97065 0.18838 0.1854 0.0
C1139 C 0.94901 0.19461 0.18904 0.0
C1140 C 0.92136 0.23376 0.20048 0.0
C1141 C 0.92562 0.282 0.15472 0.0
C1142 C 0.91005 0.26457 0.16778 0.0
C1143 C 0.93786 0.20747 0.16596 0.0
C1144 C 0.91845 0.22007 0.17351 0.0
H1145 H 0.96625 0.32054 0.18239 0.0
H1146 H 0.93187 0.30186 0.19751 0.0
H1147 H 0.92336 0.26743 0.21665 0.0
H1148 H 0.97799 0.21132 0.11361 0.0
H1149 H 0.94075 0.22338 0.12046 0.0
C1150 C 0.92599 0.76249 0.44326 0.0
C1151 C 0.92156 0.74735 0.4181 0.0
C1152 C 0.9446 0.76041 0.46449 0.0
C1153 C -0.00509 0.72623 0.48 0.0
H1154 H 0.02548 0.78523 0.48235 0.0
C1155 C 0.08643 0.73283 0.46096 0.0
C1156 C 0.09085 0.74795 0.43681 0.0
C1157 C 0.06761 0.73465 0.47763 0.0
C1158 C 0.01724 0.7686 0.48209 0.0
H1159 H 0.93138 0.71693 0.39693 0.0
H1160 H 0.96466 0.71399 0.43237 0.0
H1161 H 0.98518 0.78191 0.47679 0.0
H1162 H 0.08055 0.77793 0.41281 0.0
H1163 H 0.04693 0.78044 0.4402 0.0
H1164 H 0.02698 0.71292 0.4811 0.0
C1165 C 0.9537 0.7272 0.43666 0.0
C1166 C -0.00605 0.76664 0.4794 0.0
C1167 C 0.93478 0.729 0.41592 0.0
C1168 C 0.07723 0.76592 0.4311 0.0
C1169 C 0.05811 0.76748 0.44724 0.0
C1170 C 0.0182 0.72819 0.48188 0.0
C1171 C 0.95945 0.74352 0.46032 0.0
C1172 C 0.98257 0.74539 0.47566 0.0
C1173 C 0.05255 0.75128 0.46983 0.0
C1174 C 0.02953 0.74943 0.48029 0.0
H1175 H 0.91548 0.77638 0.44595 0.0
H1176 H 0.94803 0.77282 0.48301 0.0
H1177 H 0.98666 0.7096 0.47873 0.0
H1178 H 0.09721 0.7192 0.4664 0.0
H1179 H 0.06426 0.72231 0.49546 0.0
C1180 C 0.49867 0.71668 0.63437 0.0
C1181 C 0.48985 0.69537 0.64189 0.0
C1182 C 0.49385 0.72495 0.60438 0.0
C1183 C 0.45985 0.72958 0.53669 0.0
H1184 H 0.51966 0.75422 0.5278 0.0
C1185 C 0.47331 0.79289 0.60649 0.0
C1186 C 0.49372 0.80456 0.61442 0.0
C1187 C 0.47041 0.7796 0.57957 0.0
C1188 C 0.50262 0.74753 0.52876 0.0
H1189 H 0.46163 0.67205 0.63104 0.0
H1190 H 0.45281 0.68626 0.57811 0.0
H1191 H 0.51378 0.7157 0.54374 0.0
H1192 H 0.52793 0.80984 0.60257 0.0
H1193 H 0.52329 0.78633 0.5559 0.0
H1194 H 0.44919 0.76154 0.5215 0.0
C1195 C 0.46574 0.69484 0.59353 0.0
C1196 C 0.49923 0.72516 0.53767 0.0
C1197 C 0.47067 0.68683 0.62392 0.0
C1198 C 0.51205 0.80056 0.59718 0.0
C1199 C 0.50911 0.78765 0.5697 0.0
C1200 C 0.46348 0.75138 0.52535 0.0
C1201 C 0.47917 0.7125 0.58255 0.0
C1202 C 0.47851 0.71855 0.54902 0.0
C1203 C 0.48799 0.77745 0.55973 0.0
C1204 C 0.48503 0.76169 0.53206 0.0
H1205 H 0.51262 0.72458 0.64879 0.0
H1206 H 0.50318 0.73994 0.5975 0.0
H1207 H 0.44315 0.7239 0.54203 0.0
H1208 H 0.45885 0.79603 0.6191 0.0
H1209 H 0.45401 0.77144 0.57437 0.0
C1210 C 0.57322 0.25244 0.88954 0.0
C1211 C 0.59049 0.26146 0.91054 0.0
C1212 C 0.55368 0.24332 0.90086 0.0
C1213 C 0.51607 0.24328 0.96018 0.0
H1214 H 0.49842 0.18524 0.92203 0.0
C1215 C 0.42563 0.22055 0.9331 0.0
C1216 C 0.42307 0.22265 0.90026 0.0
C1217 C 0.44614 0.2154 0.94796 0.0
C1218 C 0.50333 0.20101 0.93391 0.0
H1219 H 0.60002 0.2707 0.95921 0.0
H1220 H 0.56523 0.2551 0.97887 0.0
H1221 H 0.53718 0.19986 0.92251 0.0
H1222 H 0.43865 0.21867 0.85685 0.0
H1223 H 0.47462 0.20975 0.88266 0.0
H1224 H 0.4818 0.24552 0.96866 0.0
C1225 C 0.56727 0.25447 0.95392 0.0
C1226 C 0.52537 0.20945 0.93396 0.0
C1227 C 0.58696 0.26354 0.94259 0.0
C1228 C 0.44045 0.21743 0.88222 0.0
C1229 C 0.46086 0.21197 0.89703 0.0
C1230 C 0.49399 0.23479 0.96025 0.0
C1231 C 0.55109 0.24329 0.93325 0.0
C1232 C 0.53129 0.23141 0.94459 0.0
C1233 C 0.46416 0.21204 0.93004 0.0
C1234 C 0.48718 0.21457 0.94443 0.0
H1235 H 0.57541 0.25094 0.86471 0.0
H1236 H 0.54088 0.23551 0.88441 0.0
H1237 H 0.52046 0.26016 0.96883 0.0
H1238 H 0.41229 0.22444 0.94743 0.0
H1239 H 0.44839 0.21568 0.97338 0.0
C1240 C 0.03341 0.83478 0.83486 0.0
C1241 C 0.01701 0.83931 0.85518 0.0
C1242 C 0.03258 0.81427 0.8192 0.0
C1243 C 0.00105 0.75839 0.81243 0.0
H1244 H 0.05806 0.73784 0.84637 0.0
C1245 C 0.01456 0.68579 0.8956 0.0
C1246 C 0.02003 0.66618 0.88076 0.0
C1247 C 0.01631 0.70624 0.88005 0.0
C1248 C 0.0423 0.74331 0.83592 0.0
H1249 H 0.98533 0.82778 0.87188 0.0
H1250 H 0.98433 0.7914 0.84595 0.0
H1251 H 0.0547 0.77733 0.83473 0.0
H1252 H 0.03295 0.65248 0.83912 0.0
H1253 H 0.03612 0.68856 0.81212 0.0
H1254 H 0.98835 0.72436 0.81704 0.0
C1255 C -0.00229 0.80362 0.84151 0.0
C1256 C 0.0403 0.7659 0.82899 0.0
C1257 C -0.00163 0.82433 0.85677 0.0
C1258 C 0.0285 0.66744 0.85097 0.0
C1259 C 0.03027 0.68791 0.83546 0.0
C1260 C 0.00307 0.73578 0.81952 0.0
C1261 C 0.0156 0.79785 0.8243 0.0
C1262 C 0.01928 0.77389 0.81926 0.0
C1263 C 0.02362 0.70722 0.84968 0.0
C1264 C 0.02339 0.72851 0.83293 0.0
H1265 H 0.04759 0.84654 0.83251 0.0
H1266 H 0.04626 0.8105 0.80541 0.0
H1267 H 0.98478 0.76402 0.80443 0.0
H1268 H 0.00807 0.68521 0.91854 0.0
H1269 H 0.01135 0.72123 0.89132 0.0
C1270 C 0.54623 0.76558 0.04958 0.0
C1271 C 0.55291 0.74361 0.04805 0.0
C1272 C 0.52716 0.77151 0.0316 0.0
C1273 C 0.4832 0.73166 0.03578 0.0
H1274 H 0.46755 0.78762 0.07017 0.0
C1275 C 0.47185 0.77748 0.16224 0.0
C1276 C 0.46447 0.75893 0.1795 0.0
C1277 C 0.47549 0.77511 0.13072 0.0
C1278 C 0.47208 0.77168 0.06145 0.0
H1279 H 0.54926 0.71281 0.02062 0.0
H1280 H 0.51523 0.72293 0.99057 0.0
H1281 H 0.48235 0.78702 1.01943 0.0
H1282 H 0.46012 0.72299 0.17974 0.0
H1283 H 0.46578 0.71838 0.1248 0.0
H1284 H 0.47453 0.71599 0.0778 0.0
C1285 C 0.52416 0.73543 1.00595 0.0
C1286 C 0.47973 0.77125 0.03147 0.0
C1287 C 0.54332 0.72938 0.0238 0.0
C1288 C 0.46428 0.73758 0.16618 0.0
C1289 C 0.46748 0.73516 0.13433 0.0
C1290 C 0.47562 0.73183 0.06576 0.0
C1291 C 0.5137 0.75474 1.01449 0.0
C1292 C 0.48983 0.75212 0.02185 0.0
C1293 C 0.4715 0.75415 0.11544 0.0
C1294 C 0.47254 0.75238 0.08056 0.0
H1295 H 0.55427 0.77739 0.06676 0.0
H1296 H 0.52092 0.78768 0.03647 0.0
H1297 H 0.48822 0.71581 0.02719 0.0
H1298 H 0.47324 0.79418 0.17241 0.0
H1299 H 0.48082 0.79007 0.11853 0.0
C1300 C 0.52517 0.17224 0.36772 0.0
C1301 C 0.50547 0.15872 0.36225 0.0
C1302 C 0.52821 0.19185 0.35059 0.0
C1303 C 0.48969 0.23191 0.31897 0.0
H1304 H 0.54476 0.26909 0.32988 0.0
C1305 C 0.4944 0.32574 0.35483 0.0
C1306 C 0.50644 0.32811 0.38435 0.0
C1307 C 0.49518 0.30621 0.33715 0.0
C1308 C 0.52925 0.25894 0.32598 0.0
H1309 H 0.47536 0.15248 0.33139 0.0
H1310 H 0.48096 0.18643 0.30064 0.0
H1311 H 0.54616 0.22922 0.31804 0.0
H1312 H 0.52848 0.31204 0.41887 0.0
H1313 H 0.52987 0.27775 0.3879 0.0
H1314 H 0.47297 0.2615 0.32841 0.0
C1315 C 0.49357 0.18263 0.31908 0.0
C1316 C 0.53001 0.23614 0.31932 0.0
C1317 C 0.49029 0.16329 0.33676 0.0
C1318 C 0.51893 0.31052 0.3963 0.0
C1319 C 0.52004 0.29116 0.37838 0.0
C1320 C 0.48893 0.25476 0.32492 0.0
C1321 C 0.51166 0.19804 0.32745 0.0
C1322 C 0.51042 0.22204 0.31888 0.0
C1323 C 0.50843 0.28903 0.34854 0.0
C1324 C 0.50881 0.26792 0.33101 0.0
H1325 H 0.53734 0.16864 0.38687 0.0
H1326 H 0.54245 0.20311 0.35785 0.0
H1327 H 0.47414 0.2218 0.31848 0.0
H1328 H 0.48486 0.33927 0.34511 0.0
H1329 H 0.48581 0.30467 0.31443 0.0
C1330 C 0.05401 0.26248 0.5314 0.0
C1331 C 0.05781 0.26177 0.56425 0.0
C1332 C 0.0359 0.27353 0.51767 0.0
C1333 C 0.98777 0.26212 0.5274 0.0
H1334 H 0.96696 0.30814 0.57909 0.0
C1335 C 0.97282 0.27791 0.66255 0.0
C1336 C 0.96039 0.25854 0.67073 0.0
C1337 C 0.97673 0.28189 0.63138 0.0
C1338 C 0.97264 0.29491 0.56489 0.0
H1339 H 0.0492 0.27528 0.60828 0.0
H1340 H 0.01834 0.29536 0.58481 0.0
H1341 H 0.99123 0.31833 0.53792 0.0
H1342 H 0.94699 0.22611 0.65451 0.0
H1343 H 0.95317 0.23287 0.59961 0.0
H1344 H 0.97307 0.23805 0.55753 0.0
C1345 C 0.02845 0.28686 0.56921 0.0
C1346 C 0.98583 0.30084 0.54036 0.0
C1347 C 0.04582 0.27497 0.58297 0.0
C1348 C 0.9557 0.24145 0.64839 0.0
C1349 C 0.95907 0.24556 0.61684 0.0
C1350 C 0.97564 0.25576 0.5528 0.0
C1351 C 0.02188 0.28435 0.53678 0.0
C1352 C -0.00233 0.28405 0.52734 0.0
C1353 C 0.96824 0.26655 0.60772 0.0
C1354 C 0.97064 0.27224 0.57425 0.0
H1355 H 0.06374 0.25281 0.51658 0.0
H1356 H 0.0313 0.27134 0.49277 0.0
H1357 H -0.00548 0.24891 0.51429 0.0
H1358 H 0.97738 0.29113 0.67968 0.0
H1359 H 0.98561 0.2975 0.62587 0.0
C1360 C 0.0362 0.09162 0.08214 0.0
C1361 C 0.02704 0.08789 0.11104 0.0
C1362 C 0.03596 0.07421 0.06006 0.0
C1363 C 0.02283 0.01197 0.04946 0.0
H1364 H 0.01221 0.02842 0.96198 0.0
C1365 C 0.98272 0.95254 0.95043 0.0
C1366 C -0.00409 0.94982 0.92517 0.0
C1367 C 0.98885 0.969 0.97329 0.0
C1368 C 0.01533 0.02366 0.98633 0.0
H1369 H 0.01112 0.0628 0.13986 0.0
H1370 H 0.00974 0.033 0.10131 0.0
H1371 H 0.0193 0.05774 1.00189 0.0
H1372 H 0.02568 0.9621 0.90375 0.0
H1373 H 0.03589 0.99166 0.94323 0.0
H1374 H 0.01736 0.97782 0.03358 0.0
C1375 C 0.01783 0.04899 0.09569 0.0
C1376 C 0.01961 0.04043 1.00929 0.0
C1377 C 0.01852 0.06621 0.11794 0.0
C1378 C 0.01519 0.96398 0.92295 0.0
C1379 C 0.02103 0.98082 0.94544 0.0
C1380 C 0.01801 0.99526 0.02655 0.0
C1381 C 0.02613 0.05278 0.06612 0.0
C1382 C 0.02326 0.03487 0.0413 0.0
C1383 C 0.00797 0.98334 0.97088 0.0
C1384 C 0.01411 0.00098 0.99486 0.0
H1385 H 0.04289 0.10818 0.07621 0.0
H1386 H 0.04307 0.07777 0.03799 0.0
H1387 H 0.02608 0.00683 0.07359 0.0
H1388 H 0.96789 0.94168 0.95282 0.0
H1389 H 0.97851 0.97072 0.99269 0.0
C1390 C 0.21165 0.79067 0.35878 0.0
C1391 C 0.20367 0.77442 0.3795 0.0
C1392 C 0.22927 0.78635 0.34065 0.0
C1393 C 0.26019 0.73982 0.31084 0.0
H1394 H 0.30591 0.78698 0.29927 0.0
C1395 C 0.34543 0.72247 0.26671 0.0
C1396 C 0.35439 0.73729 0.24485 0.0
C1397 C 0.32612 0.72724 0.28084 0.0
C1398 C 0.29311 0.77374 0.30191 0.0
H1399 H 0.20791 0.74101 0.39782 0.0
H1400 H 0.23896 0.73352 0.36657 0.0
H1401 H 0.27421 0.79474 0.32896 0.0
H1402 H 0.34978 0.76842 0.21988 0.0
H1403 H 0.31611 0.77712 0.24521 0.0
H1404 H 0.2794 0.7187 0.28434 0.0
C1405 C 0.23138 0.74947 0.36384 0.0
C1406 C 0.27492 0.77816 0.31894 0.0
C1407 C 0.21371 0.7538 0.38193 0.0
C1408 C 0.34348 0.75693 0.23711 0.0
C1409 C 0.3242 0.76185 0.25152 0.0
C1410 C 0.27842 0.73537 0.29397 0.0
C1411 C 0.23938 0.7657 0.34294 0.0
C1412 C 0.25833 0.7612 0.32388 0.0
C1413 C 0.31533 0.74702 0.27356 0.0
C1414 C 0.2952 0.75222 0.28958 0.0
H1415 H 0.20411 0.80667 0.35628 0.0
H1416 H 0.23476 0.7991 0.32451 0.0
H1417 H 0.24751 0.72649 0.31359 0.0
H1418 H 0.35345 0.70717 0.27314 0.0
H1419 H 0.31988 0.71562 0.29798 0.0
C1420 C 0.54179 0.04012 0.4561 0.0
C1421 C 0.52411 0.04799 0.43648 0.0
C1422 C 0.53774 0.02412 0.47903 0.0
C1423 C 0.49675 0.00325 0.53091 0.0
H1424 H 0.53246 0.95125 0.53793 0.0
C1425 C 0.48667 0.93506 0.62744 0.0
C1426 C 0.50608 0.92476 0.63884 0.0
C1427 C 0.48728 0.95011 0.60226 0.0
C1428 C 0.52255 0.96583 0.5367 0.0
H1429 H 0.4884 0.04453 0.42451 0.0
H1430 H 0.48113 0.01707 0.4659 0.0
H1431 H 0.5362 0.97685 0.49417 0.0
H1432 H 0.54148 0.92288 0.63406 0.0
H1433 H 0.54288 0.94982 0.5916 0.0
H1434 H 0.48374 0.99279 0.57416 0.0
C1435 C 0.49812 0.02342 0.46335 0.0
C1436 C 0.52458 0.98038 0.5114 0.0
C1437 C 0.50227 0.03913 0.4398 0.0
C1438 C 0.52625 0.93058 0.62571 0.0
C1439 C 0.52695 0.94579 0.601 0.0
C1440 C 0.49494 0.98883 0.5566 0.0
C1441 C 0.51587 0.01581 0.48318 0.0
C1442 C 0.51194 -0.00062 0.50845 0.0
C1443 C 0.50739 0.95532 0.58827 0.0
C1444 C 0.50812 0.97012 0.56013 0.0
H1445 H 0.55883 0.04656 0.45406 0.0
H1446 H 0.55171 0.01862 0.49408 0.0
H1447 H 0.48693 0.0179 0.52925 0.0
H1448 H 0.47081 0.9306 0.63683 0.0
H1449 H 0.47184 0.95694 0.59301 0.0
C1450 C 0.2989 0.2401 0.82988 0.0
C1451 C 0.30365 0.21855 0.84051 0.0
C1452 C 0.28244 0.24279 0.80532 0.0
C1453 C 0.23129 0.21884 0.76615 0.0
H1454 H 0.25184 0.24335 0.6889 0.0
C1455 C 0.17135 0.22377 0.65335 0.0
C1456 C 0.17442 0.243 0.63498 0.0
C1457 C 0.18733 0.21904 0.67785 0.0
C1458 C 0.24563 0.23682 0.71038 0.0
H1459 H 0.29408 0.18304 0.8353 0.0
H1460 H 0.26478 0.1879 0.79342 0.0
H1461 H 0.27812 0.24084 0.73494 0.0
H1462 H 0.19654 0.27216 0.62743 0.0
H1463 H 0.22348 0.26465 0.67029 0.0
H1464 H 0.19861 0.21564 0.74231 0.0
C1465 C 0.2741 0.20259 0.80354 0.0
C1466 C 0.26077 0.23535 0.73667 0.0
C1467 C 0.29089 0.19987 0.82742 0.0
C1468 C 0.19379 0.25708 0.64102 0.0
C1469 C 0.20943 0.25263 0.6656 0.0
C1470 C 0.21596 0.22081 0.74005 0.0
C1471 C 0.27005 0.224 0.79191 0.0
C1472 C 0.2537 0.22642 0.76473 0.0
C1473 C 0.20645 0.23365 0.68456 0.0
C1474 C 0.2229 0.22997 0.71181 0.0
H1475 H 0.3081 0.25478 0.84013 0.0
H1476 H 0.27941 0.25949 0.79671 0.0
H1477 H 0.22559 0.21175 0.78764 0.0
H1478 H 0.15646 0.21274 0.64929 0.0
H1479 H 0.18458 0.2041 0.69166 0.0
C1480 C 0.71996 0.25398 0.88352 0.0
C1481 C 0.71219 0.27566 0.8836 0.0
C1482 C 0.73579 0.24849 0.863 0.0
C1483 C 0.77852 0.27468 0.81449 0.0
H1484 H 0.77595 0.21553 0.77632 0.0
C1485 C 0.83841 0.24981 0.7226 0.0
C1486 C 0.84956 0.23035 0.73043 0.0
C1487 C 0.82027 0.25547 0.7389 0.0
C1488 C 0.77682 0.23211 0.78685 0.0
H1489 H 0.71445 0.30852 0.86218 0.0
H1490 H 0.7417 0.29889 0.82602 0.0
H1491 H 0.74686 0.22527 0.80978 0.0
H1492 H 0.8499 0.20092 0.76014 0.0
H1493 H 0.81794 0.21054 0.78804 0.0
H1494 H 0.80845 0.28148 0.79127 0.0
C1495 C 0.73605 0.28622 0.84218 0.0
C1496 C 0.76028 0.23765 0.80616 0.0
C1497 C 0.72039 0.29173 0.86283 0.0
C1498 C 0.84167 0.21611 0.75374 0.0
C1499 C 0.82336 0.22156 0.76964 0.0
C1500 C 0.79491 0.26921 0.79491 0.0
C1501 C 0.74402 0.26457 0.84207 0.0
C1502 C 0.76108 0.25891 0.82052 0.0
C1503 C 0.81271 0.24144 0.7627 0.0
C1504 C 0.79434 0.2478 0.78124 0.0
H1505 H 0.71385 0.24131 0.89935 0.0
H1506 H 0.74179 0.23174 0.86386 0.0
H1507 H 0.77988 0.29108 0.82554 0.0
H1508 H 0.84381 0.26073 0.70412 0.0
H1509 H 0.81214 0.27079 0.73292 0.0
C1510 C 0.79979 0.74162 0.32791 0.0
C1511 C 0.80924 0.72075 0.33151 0.0
C1512 C 0.78241 0.74458 0.30467 0.0
C1513 C 0.73894 0.71288 0.2524 0.0
H1514 H 0.73836 0.76859 0.206 0.0
C1515 C 0.6746 0.72938 0.14586 0.0
C1516 C 0.66477 0.75008 0.14746 0.0
C1517 C 0.69284 0.7246 0.167 0.0
C1518 C 0.73826 0.75294 0.21881 0.0
H1519 H 0.80784 0.68659 0.31388 0.0
H1520 H 0.77782 0.69176 0.2734 0.0
H1521 H 0.76848 0.763 0.24631 0.0
H1522 H 0.6665 0.78202 0.17216 0.0
H1523 H 0.69808 0.77387 0.20815 0.0
H1524 H 0.70857 0.70294 0.22475 0.0
C1525 C 0.78352 0.7058 0.28861 0.0
C1526 C 0.75546 0.7498 0.24207 0.0
C1527 C 0.80084 0.70288 0.31175 0.0
C1528 C 0.67368 0.76591 0.17015 0.0
C1529 C 0.69191 0.7613 0.19079 0.0
C1530 C 0.72174 0.71601 0.22899 0.0
C1531 C 0.77411 0.7267 0.28463 0.0
C1532 C 0.75592 0.72983 0.25945 0.0
C1533 C 0.70175 0.74065 0.18955 0.0
C1534 C 0.72105 0.73621 0.21223 0.0
H1535 H 0.80586 0.75566 0.34293 0.0
H1536 H 0.77537 0.76084 0.30258 0.0
H1537 H 0.73862 0.69737 0.26551 0.0
H1538 H 0.66806 0.71687 0.12863 0.0
H1539 H 0.70012 0.70851 0.16551 0.0
C1540 C 0.52749 0.57945 0.60759 0.0
C1541 C 0.51133 0.57538 0.62915 0.0
C1542 C 0.53156 0.56278 0.58592 0.0
C1543 C 0.51826 0.50187 0.56644 0.0
H1544 H 0.52041 0.52171 0.48027 0.0
C1545 C 0.48256 0.44929 0.45996 0.0
C1546 C 0.49682 0.4459 0.43619 0.0
C1547 C 0.48895 0.46451 0.48426 0.0
C1548 C 0.52016 0.51598 0.5043 0.0
H1549 H 0.48753 0.55056 0.6461 0.0
H1550 H 0.49417 0.52191 0.60856 0.0
H1551 H 0.52449 0.54938 0.5229 0.0
H1552 H 0.52876 0.45582 0.41875 0.0
H1553 H 0.53965 0.48326 0.46105 0.0
H1554 H 0.51229 0.46863 0.54747 0.0
C1555 C 0.50417 0.53757 0.60835 0.0
C1556 C 0.52262 0.53177 0.52877 0.0
C1557 C 0.50024 0.5541 0.62988 0.0
C1558 C 0.51748 0.45822 0.43685 0.0
C1559 C 0.5237 0.47385 0.46092 0.0
C1560 C 0.5154 0.4862 0.54199 0.0
C1561 C 0.51949 0.5418 0.58555 0.0
C1562 C 0.52102 0.52496 0.56012 0.0
C1563 C 0.50953 0.47693 0.48494 0.0
C1564 C 0.51577 0.49318 0.51071 0.0
H1565 H 0.53599 0.59582 0.60633 0.0
H1566 H 0.54363 0.56657 0.56891 0.0
H1567 H 0.51751 0.49591 0.59029 0.0
H1568 H 0.46661 0.4399 0.4601 0.0
H1569 H 0.47768 0.46675 0.50243 0.0
C1570 C 0.04239 0.54679 0.96068 0.0
C1571 C 0.02643 0.54913 0.93532 0.0
C1572 C 0.03881 0.53092 0.9838 0.0
C1573 C -0.00418 0.49218 1.01611 0.0
H1574 H 0.04859 0.4634 0.04991 0.0
C1575 C 0.99356 0.43179 0.1216 0.0
C1576 C 0.00741 0.41368 0.1223 0.0
C1577 C -0.0047 0.44838 0.09873 0.0
C1578 C 0.03357 0.47094 0.0405 0.0
H1579 H 0.99385 0.53737 0.91455 0.0
H1580 H 0.98783 0.50865 0.95451 0.0
H1581 H 0.05189 0.49134 1.00947 0.0
H1582 H 0.03422 0.39884 0.10027 0.0
H1583 H 0.03649 0.4269 0.05931 0.0
H1584 H 0.97733 0.47078 0.04607 0.0
C1585 C 0.00299 0.51941 0.95685 0.0
C1586 C 0.03554 0.48738 1.0176 0.0
C1587 C 0.00644 0.53572 0.93386 0.0
C1588 C 0.02316 0.41251 0.09998 0.0
C1589 C 0.02463 0.42881 0.07675 0.0
C1590 C 0.99377 0.47539 0.0387 0.0
C1591 C 0.01936 0.51658 0.98183 0.0
C1592 C 0.01677 0.49845 1.00537 0.0
C1593 C 0.01075 0.44703 0.07582 0.0
C1594 C 0.01267 0.46466 0.05136 0.0
H1595 H 0.05776 0.55729 0.96274 0.0
H1596 H 0.05144 0.52985 1.00319 0.0
H1597 H 0.98102 0.50043 1.00742 0.0
H1598 H 0.98129 0.43311 0.13865 0.0
H1599 H 0.98465 0.46235 0.09924 0.0
C1600 C 0.06431 0.16025 0.25141 0.0
C1601 C 0.04158 0.15358 0.24459 0.0
C1602 C 0.07247 0.16774 0.28158 0.0
C1603 C 0.05863 0.16874 0.36573 0.0
H1604 H 0.10565 0.21613 0.37288 0.0
C1605 C 0.10326 0.19518 0.48697 0.0
C1606 C 0.10968 0.218 0.49268 0.0
C1607 C 0.09536 0.18744 0.45682 0.0
C1608 C 0.09239 0.20303 0.3715 0.0
H1609 H 0.00971 0.14947 0.26487 0.0
H1610 H 0.02385 0.16252 0.31733 0.0
H1611 H 0.09061 0.20278 0.32121 0.0
H1612 H 0.11287 0.25046 0.4703 0.0
H1613 H 0.09915 0.23707 0.41789 0.0
H1614 H 0.05993 0.16946 0.416 0.0
C1615 C 0.03552 0.16173 0.29942 0.0
C1616 C 0.08391 0.19507 0.34164 0.0
C1617 C 0.02735 0.15421 0.26916 0.0
C1618 C 0.10842 0.23274 0.46695 0.0
C1619 C 0.10048 0.22499 0.43672 0.0
C1620 C 0.06706 0.17673 0.39559 0.0
C1621 C 0.05821 0.16889 0.30608 0.0
C1622 C 0.06697 0.17767 0.33818 0.0
C1623 C 0.09352 0.20223 0.43118 0.0
C1624 C 0.08421 0.19394 0.39906 0.0
H1625 H 0.07586 0.16012 0.23323 0.0
H1626 H 0.09008 0.17262 0.28562 0.0
H1627 H 0.04575 0.15525 0.36436 0.0
H1628 H 0.10383 0.18322 0.50602 0.0
H1629 H 0.09066 0.16976 0.45371 0.0
C1630 C 0.11849 0.8359 0.60971 0.0
C1631 C 0.10828 0.8435 0.58126 0.0
C1632 C 0.11211 0.8436 0.63848 0.0
C1633 C 0.08231 0.89 0.67214 0.0
H1634 H 0.08014 0.85113 0.74462 0.0
C1635 C 0.032 0.90646 0.77823 0.0
C1636 C 0.04245 0.90355 0.80838 0.0
C1637 C 0.04269 0.90104 0.75163 0.0
C1638 C 0.08098 0.86225 0.72466 0.0
H1639 H 0.08267 0.86424 0.56064 0.0
H1640 H 0.07108 0.87711 0.61048 0.0
H1641 H 0.09276 0.83683 0.69583 0.0
H1642 H 0.07218 0.89264 0.83455 0.0
H1643 H 0.09082 0.88271 0.78778 0.0
H1644 H 0.06956 0.91504 0.70069 0.0
C1645 C 0.08459 0.86588 0.61083 0.0
C1646 C 0.08822 0.85408 0.69668 0.0
C1647 C 0.09112 0.85839 0.58218 0.0
C1648 C 0.06404 0.89559 0.81151 0.0
C1649 C 0.07454 0.88963 0.78484 0.0
C1650 C 0.07479 0.89801 0.69991 0.0
C1651 C 0.09522 0.85891 0.63942 0.0
C1652 C 0.08869 0.86777 0.66988 0.0
C1653 C 0.06381 0.89205 0.75467 0.0
C1654 C 0.07382 0.88416 0.72633 0.0
H1655 H 0.13188 0.82454 0.6097 0.0
H1656 H 0.12083 0.83797 0.65993 0.0
H1657 H 0.083 0.90127 0.65237 0.0
H1658 H 0.0152 0.91218 0.77528 0.0
H1659 H 0.03395 0.90287 0.72869 0.0
C1660 C 0.41262 0.7571 0.09423 0.0
C1661 C 0.41312 0.77221 0.11974 0.0
C1662 C 0.41626 0.76454 0.06361 0.0
C1663 C 0.4421 0.81311 0.01993 0.0
H1664 H 0.41365 0.78158 0.94694 0.0
C1665 C 0.46232 0.84158 0.8928 0.0
C1666 C 0.45806 0.82682 0.86673 0.0
C1667 C 0.45592 0.83575 0.92304 0.0
C1668 C 0.42233 0.7905 0.96673 0.0
H1669 H 0.41799 0.80742 0.13209 0.0
H1670 H 0.42429 0.82044 0.07898 0.0
H1671 H 0.40398 0.7705 0.99881 0.0
H1672 H 0.44302 0.7936 0.85438 0.0
H1673 H 0.43387 0.78305 0.90616 0.0
H1674 H 0.46116 0.83252 0.98835 0.0
C1675 C 0.42105 0.80265 0.0826 0.0
C1676 C 0.41651 0.7841 0.99699 0.0
C1677 C 0.4172 0.79518 0.11326 0.0
C1678 C 0.44729 0.80575 0.87295 0.0
C1679 C 0.44141 0.79971 0.90333 0.0
C1680 C 0.44828 0.81924 0.9897 0.0
C1681 C 0.4208 0.78748 0.05708 0.0
C1682 C 0.42631 0.79517 0.02434 0.0
C1683 C 0.44537 0.81459 0.92925 0.0
C1684 C 0.4386 0.80808 0.96217 0.0
H1685 H 0.4097 0.73928 0.09793 0.0
H1686 H 0.41634 0.75206 0.04524 0.0
H1687 H 0.45048 0.822 0.04003 0.0
H1688 H 0.47085 0.85784 0.89034 0.0
H1689 H 0.45922 0.84823 0.94142 0.0
C1690 C 0.48711 0.0998 0.28211 0.0
C1691 C 0.47561 0.09664 0.3093 0.0
C1692 C 0.47591 0.10581 0.25381 0.0
C1693 C 0.4207 0.10828 0.21016 0.0
H1694 H 0.45168 0.15478 0.16402 0.0
C1695 C 0.39355 0.12997 0.08136 0.0
C1696 C 0.39502 0.15262 0.07224 0.0
C1697 C 0.40201 0.12352 0.11121 0.0
C1698 C 0.44266 0.14196 0.1767 0.0
H1699 H 0.44307 0.09649 0.32773 0.0
H1700 H 0.4233 0.10685 0.27785 0.0
H1701 H 0.4684 0.14229 0.21424 0.0
H1702 H 0.40633 0.18626 0.08776 0.0
H1703 H 0.42119 0.17498 0.13983 0.0
H1704 H 0.39484 0.10815 0.1726 0.0
C1705 C 0.44106 0.10455 0.27858 0.0
C1706 C 0.45238 0.13458 0.20535 0.0
C1707 C 0.45235 0.09848 0.3071 0.0
C1708 C 0.40517 0.16865 0.09382 0.0
C1709 C 0.41367 0.16217 0.1237 0.0
C1710 C 0.41096 0.11565 0.18138 0.0
C1711 C 0.45288 0.10891 0.25186 0.0
C1712 C 0.4417 0.11743 0.22223 0.0
C1713 C 0.41222 0.13951 0.13276 0.0
C1714 C 0.42194 0.13243 0.16414 0.0
H1715 H 0.50503 0.09845 0.28292 0.0
H1716 H 0.48544 0.10848 0.23354 0.0
H1717 H 0.41204 0.09505 0.22255 0.0
H1718 H 0.38624 0.1171 0.06518 0.0
H1719 H 0.401 0.10588 0.11713 0.0
C1720 C 0.86242 0.75955 0.48881 0.0
C1721 C 0.86067 0.77149 0.46047 0.0
C1722 C 0.86918 0.77049 0.51713 0.0
C1723 C 0.87684 0.82523 0.55786 0.0
H1724 H 0.92116 0.79464 0.61007 0.0
C1725 C 0.92117 0.86476 0.6725 0.0
C1726 C 0.92476 0.85038 0.69827 0.0
C1727 C 0.91352 0.85614 0.64281 0.0
C1728 C 0.90861 0.80332 0.59603 0.0
H1729 H 0.86379 0.80457 0.4399 0.0
H1730 H 0.87546 0.8239 0.48982 0.0
H1731 H 0.90658 0.77832 0.55988 0.0
H1732 H 0.92274 0.81562 0.71292 0.0
H1733 H 0.90938 0.80062 0.66137 0.0
H1734 H 0.87876 0.85014 0.5943 0.0
C1735 C 0.87147 0.80597 0.48995 0.0
C1736 C 0.90025 0.79396 0.56717 0.0
C1737 C 0.86465 0.79494 0.46139 0.0
C1738 C 0.92057 0.82716 0.69353 0.0
C1739 C 0.91288 0.81856 0.66389 0.0
C1740 C 0.88517 0.83459 0.5869 0.0
C1741 C 0.87447 0.79372 0.51798 0.0
C1742 C 0.88403 0.8046 0.5479 0.0
C1743 C 0.90924 0.83292 0.6381 0.0
C1744 C 0.90098 0.8236 0.60654 0.0
H1745 H 0.85942 0.74148 0.48898 0.0
H1746 H 0.8708 0.76061 0.53835 0.0
H1747 H 0.86431 0.83381 0.54362 0.0
H1748 H 0.92447 0.88271 0.67521 0.0
H1749 H 0.91123 0.86769 0.62345 0.0
C1750 C 0.90306 0.13402 0.52307 0.0
C1751 C 0.89843 0.15471 0.53584 0.0
C1752 C 0.89826 0.12969 0.49113 0.0
C1753 C 0.89212 0.15986 0.41684 0.0
H1754 H 0.87801 0.09982 0.38336 0.0
C1755 C 0.92202 0.11581 0.30836 0.0
C1756 C 0.91068 0.12512 0.28195 0.0
C1757 C 0.9139 0.11763 0.33778 0.0
C1758 C 0.88152 0.1167 0.39247 0.0
H1759 H 0.88396 0.18661 0.52585 0.0
H1760 H 0.8754 0.17899 0.46998 0.0
H1761 H 0.87503 0.10714 0.43924 0.0
H1762 H 0.88178 0.14289 0.26499 0.0
H1763 H 0.86784 0.14668 0.31724 0.0
H1764 H 0.89909 0.16917 0.37007 0.0
C1765 C 0.88315 0.16629 0.48449 0.0
C1766 C 0.88006 0.12088 0.42434 0.0
C1767 C 0.8881 0.17067 0.5164 0.0
C1768 C 0.89065 0.13551 0.28512 0.0
C1769 C 0.88273 0.13769 0.31476 0.0
C1770 C 0.89322 0.15574 0.38494 0.0
C1771 C 0.88858 0.14592 0.47141 0.0
C1772 C 0.88613 0.14232 0.43703 0.0
C1773 C 0.89453 0.12899 0.34119 0.0
C1774 C 0.88856 0.13403 0.37285 0.0
H1775 H 0.91116 0.12151 0.53755 0.0
H1776 H 0.90303 0.11399 0.48171 0.0
H1777 H 0.89728 0.17646 0.42591 0.0
H1778 H 0.93747 0.10766 0.30634 0.0
H1779 H 0.92333 0.11111 0.35811 0.0
C1780 C 0.63369 0.2391 1.01703 0.0
C1781 C 0.64652 0.22886 0.99557 0.0
C1782 C 0.62724 0.2278 0.0436 0.0
C1783 C 0.62128 0.17169 0.08065 0.0
H1784 H 0.61913 0.20832 0.1553 0.0
C1785 C 0.60505 0.1364 0.20489 0.0
C1786 C 0.58984 0.14776 0.22167 0.0
C1787 C 0.61209 0.1449 0.17653 0.0
C1788 C 0.61948 0.19788 0.13462 0.0
H1789 H 0.66197 0.19822 0.98479 0.0
H1790 H 0.65138 0.17851 0.03238 0.0
H1791 H 0.63216 0.22523 0.10796 0.0
H1792 H 0.56961 0.17672 0.22077 0.0
H1793 H 0.58235 0.19177 0.17187 0.0
H1794 H 0.60902 0.14418 0.10813 0.0
C1795 C 0.64612 0.19535 0.02824 0.0
C1796 C 0.62689 0.20757 0.10733 0.0
C1797 C 0.65235 0.20667 1.0011 0.0
C1798 C 0.58167 0.16771 0.209 0.0
C1799 C 0.5889 0.17632 0.18086 0.0
C1800 C 0.61411 0.16188 0.10825 0.0
C1801 C 0.6337 0.20595 0.05007 0.0
C1802 C 0.62747 0.19477 0.07971 0.0
C1803 C 0.60432 0.16511 0.16442 0.0
C1804 C 0.61277 0.175 0.13535 0.0
H1805 H 0.62823 0.25592 1.01315 0.0
H1806 H 0.61698 0.23628 0.05902 0.0
H1807 H 0.62136 0.1613 0.05988 0.0
H1808 H 0.61204 0.12121 0.21404 0.0
H1809 H 0.62415 0.13601 0.16457 0.0
C1810 C 0.58495 0.87882 0.70016 0.0
C1811 C 0.57201 0.85882 0.69359 0.0
C1812 C 0.6021 0.87945 0.7243 0.0
C1813 C 0.63295 0.84496 0.78366 0.0
H1814 H 0.60945 0.88456 0.84326 0.0
C1815 C 0.62427 0.82078 0.91084 0.0
C1816 C 0.62441 0.83732 0.93427 0.0
C1817 C 0.62692 0.82678 0.87978 0.0
C1818 C 0.61687 0.87383 0.82703 0.0
H1819 H 0.56809 0.82342 0.70384 0.0
H1820 H 0.59833 0.82428 0.74529 0.0
H1821 H 0.60028 0.8895 0.78762 0.0
H1822 H 0.62834 0.87313 0.94361 0.0
H1823 H 0.63368 0.88355 0.88956 0.0
H1824 H 0.64858 0.82852 0.82334 0.0
C1825 C 0.59536 0.8395 0.73222 0.0
C1826 C 0.61163 0.87674 0.79499 0.0
C1827 C 0.57797 0.83899 0.70865 0.0
C1828 C 0.62823 0.85995 0.92616 0.0
C1829 C 0.63113 0.86594 0.89512 0.0
C1830 C 0.63841 0.84219 0.81576 0.0
C1831 C 0.60664 0.85999 0.74158 0.0
C1832 C 0.61859 0.86156 0.77315 0.0
C1833 C 0.63003 0.84946 0.87145 0.0
C1834 C 0.62937 0.85582 0.83783 0.0
H1835 H 0.58041 0.89433 0.68889 0.0
H1836 H 0.61057 0.89543 0.73113 0.0
H1837 H 0.63864 0.83315 0.76722 0.0
H1838 H 0.62183 0.80316 0.91639 0.0
H1839 H 0.62561 0.81363 0.86215 0.0
C1840 C 0.51525 0.65239 0.78146 0.0
C1841 C 0.52966 0.65136 0.75712 0.0
C1842 C 0.5233 0.66043 0.81166 0.0
C1843 C 0.57077 0.69567 0.85239 0.0
H1844 H 0.55147 0.66836 0.9286 0.0
C1845 C 0.59747 0.73453 0.97623 0.0
C1846 C 0.60214 0.71989 1.00144 0.0
C1847 C 0.58841 0.7263 0.94673 0.0
C1848 C 0.55719 0.67616 0.9076 0.0
H1849 H 0.56415 0.65801 0.74634 0.0
H1850 H 0.57781 0.67171 0.79802 0.0
H1851 H 0.53588 0.6537 0.87746 0.0
H1852 H 0.60058 0.68482 1.01478 0.0
H1853 H 0.58517 0.67056 0.96356 0.0
H1854 H 0.5923 0.71788 0.88229 0.0
C1855 C 0.56025 0.66656 0.79398 0.0
C1856 C 0.548 0.66787 0.87814 0.0
C1857 C 0.55233 0.6584 0.76414 0.0
C1858 C 0.59761 0.6967 0.996 0.0
C1859 C 0.5884 0.68849 0.96657 0.0
C1860 C 0.57984 0.70402 0.88176 0.0
C1861 C 0.54592 0.66794 0.81827 0.0
C1862 C 0.55479 0.67735 0.84999 0.0
C1863 C 0.58349 0.70314 0.94143 0.0
C1864 C 0.57336 0.69434 0.90994 0.0
H1865 H 0.4977 0.64727 0.7771 0.0
H1866 H 0.51165 0.66128 0.82962 0.0
H1867 H 0.57629 0.70371 0.83143 0.0
H1868 H 0.60031 0.75249 0.97944 0.0
H1869 H 0.58468 0.73825 0.92828 0.0
C1870 C 0.52926 0.37991 0.28912 0.0
C1871 C 0.54046 0.39148 0.31498 0.0
C1872 C 0.5404 0.37489 0.26294 0.0
C1873 C 0.5966 0.36995 0.23462 0.0
H1874 H 0.56224 0.36977 0.15376 0.0
C1875 C 0.63291 0.35728 0.11355 0.0
C1876 C 0.62063 0.3418 0.093 0.0
C1877 C 0.62457 0.36363 0.14167 0.0
C1878 C 0.572 0.36963 0.17619 0.0
H1879 H 0.57241 0.40662 0.33364 0.0
H1880 H 0.59186 0.39867 0.28686 0.0
H1881 H 0.54551 0.38194 0.20029 0.0
H1882 H 0.59019 0.32032 0.08674 0.0
H1883 H 0.57538 0.33198 0.1353 0.0
H1884 H 0.62334 0.35814 0.20976 0.0
C1885 C 0.57442 0.39317 0.28727 0.0
C1886 C 0.56242 0.37653 0.20296 0.0
C1887 C 0.56325 0.39793 0.31394 0.0
C1888 C 0.59992 0.33261 0.10157 0.0
C1889 C 0.59147 0.33919 0.12947 0.0
C1890 C 0.60635 0.36337 0.20759 0.0
C1891 C 0.56304 0.38163 0.26136 0.0
C1892 C 0.57436 0.37631 0.23268 0.0
C1893 C 0.60362 0.35489 0.14965 0.0
C1894 C 0.59395 0.36275 0.17824 0.0
H1895 H 0.51187 0.37409 0.28926 0.0
H1896 H 0.53121 0.36531 0.24408 0.0
H1897 H 0.60626 0.36939 0.25707 0.0
H1898 H 0.64874 0.36501 0.10757 0.0
H1899 H 0.63416 0.37592 0.15668 0.0
C1900 C 0.95079 0.3004 0.36699 0.0
C1901 C 0.95578 0.32308 0.35976 0.0
C1902 C 0.94458 0.29399 0.39691 0.0
C1903 C 0.92479 0.31694 0.47173 0.0
H1904 H 0.9399 0.25869 0.50373 0.0
C1905 C 0.9109 0.28953 0.60095 0.0
C1906 C 0.90631 0.26663 0.60713 0.0
C1907 C 0.91593 0.29682 0.57078 0.0
C1908 C 0.9353 0.27498 0.4953 0.0
H1909 H 0.95828 0.35671 0.37935 0.0
H1910 H 0.94787 0.34562 0.43138 0.0
H1911 H 0.95152 0.27065 0.4531 0.0
H1912 H 0.90289 0.23361 0.58553 0.0
H1913 H 0.91113 0.24616 0.53342 0.0
H1914 H 0.90901 0.32138 0.51445 0.0
C1915 C 0.94825 0.33269 0.41369 0.0
C1916 C 0.94195 0.28188 0.46582 0.0
C1917 C 0.95431 0.33912 0.38364 0.0
C1918 C 0.90633 0.25138 0.58193 0.0
C1919 C 0.91132 0.25863 0.55186 0.0
C1920 C 0.91839 0.31013 0.50146 0.0
C1921 C 0.94326 0.30997 0.42097 0.0
C1922 C 0.93666 0.30292 0.45323 0.0
C1923 C 0.91659 0.28146 0.54573 0.0
C1924 C 0.92342 0.28895 0.51381 0.0
H1925 H 0.95128 0.28749 0.34929 0.0
H1926 H 0.94045 0.2764 0.40087 0.0
H1927 H 0.91995 0.33311 0.46304 0.0
H1928 H 0.91144 0.3018 0.61973 0.0
H1929 H 0.92018 0.31448 0.56751 0.0
C1930 C 0.99095 0.61728 0.78032 0.0
C1931 C 0.97978 0.60432 0.80235 0.0
C1932 C 0.98005 0.6231 0.75185 0.0
C1933 C 0.92426 0.62701 0.70883 0.0
H1934 H 0.96062 0.63163 0.6378 0.0
C1935 C 0.8908 0.64256 0.57878 0.0
C1936 C 0.9029 0.65927 0.56279 0.0
C1937 C 0.89857 0.63558 0.60875 0.0
C1938 C 0.95029 0.63053 0.65745 0.0
H1939 H 0.94805 0.5878 0.81191 0.0
H1940 H 0.92901 0.59709 0.76088 0.0
H1941 H 0.97667 0.61844 0.68785 0.0
H1942 H 0.93233 0.68228 0.56671 0.0
H1943 H 0.94617 0.66954 0.61847 0.0
H1944 H 0.89764 0.63855 0.67747 0.0
C1945 C 0.94626 0.60303 0.76611 0.0
C1946 C 0.95949 0.62305 0.68627 0.0
C1947 C 0.95718 0.5975 0.79521 0.0
C1948 C 0.92278 0.66905 0.57788 0.0
C1949 C 0.93068 0.66186 0.60763 0.0
C1950 C 0.91491 0.63415 0.67966 0.0
C1951 C 0.95769 0.61578 0.74395 0.0
C1952 C 0.94682 0.62169 0.71263 0.0
C1953 C 0.91876 0.64492 0.62323 0.0
C1954 C 0.92801 0.6364 0.65388 0.0
H1955 H 0.00814 0.62355 0.78531 0.0
H1956 H 0.98923 0.63369 0.73618 0.0
H1957 H 0.91401 0.62632 0.72855 0.0
H1958 H 0.87564 0.63434 0.5678 0.0
H1959 H 0.88918 0.62235 0.62015 0.0
C1960 C 0.41319 0.32806 0.20274 0.0
C1961 C 0.42459 0.34928 0.20612 0.0
C1962 C 0.40611 0.31936 0.17298 0.0
C1963 C 0.39302 0.33563 0.09023 0.0
H1964 H 0.39828 0.27227 0.07473 0.0
C1965 C 0.37302 0.29252 0.96741 0.0
C1966 C 0.36303 0.27061 0.96728 0.0
C1967 C 0.37997 0.30352 0.99589 0.0
C1968 C 0.39641 0.28995 0.07874 0.0
H1969 H 0.43765 0.37785 0.18053 0.0
H1970 H 0.42523 0.36263 0.12853 0.0
H1971 H 0.41216 0.28844 0.1253 0.0
H1972 H 0.35126 0.2437 0.99694 0.0
H1973 H 0.36275 0.26297 0.04619 0.0
H1974 H 0.3772 0.33702 0.04348 0.0
C1975 C 0.42156 0.35286 0.14902 0.0
C1976 C 0.40442 0.29924 0.10778 0.0
C1977 C 0.42869 0.36157 0.17886 0.0
C1978 C 0.35904 0.2605 0.99614 0.0
C1979 C 0.36585 0.27148 0.02445 0.0
C1980 C 0.38496 0.3263 0.06107 0.0
C1981 C 0.4102 0.33161 0.14572 0.0
C1982 C 0.40259 0.32213 0.11409 0.0
C1983 C 0.377 0.29284 0.02475 0.0
C1984 C 0.38627 0.30326 0.05514 0.0
H1985 H 0.40931 0.3183 0.22316 0.0
H1986 H 0.39704 0.30313 0.17138 0.0
H1987 H 0.3912 0.3533 0.09437 0.0
H1988 H 0.37657 0.30071 0.9456 0.0
H1989 H 0.38857 0.31995 0.99525 0.0
C1990 C 0.38812 0.68268 0.02951 0.0
C1991 C 0.39711 0.66464 0.04627 0.0
C1992 C 0.38211 0.6807 0.99748 0.0
C1993 C 0.36982 0.6411 0.93194 0.0
H1994 H 0.39931 0.68752 0.88399 0.0
C1995 C 0.39167 0.62877 0.80556 0.0
C1996 C 0.39304 0.6474 0.78567 0.0
C1997 C 0.38604 0.63132 0.83627 0.0
C1998 C 0.39041 0.67473 0.89686 0.0
H1999 H 0.40588 0.63005 0.04313 0.0
H2000 H 0.39533 0.62657 0.98677 0.0
H2001 H 0.40069 0.69083 0.94069 0.0
H2002 H 0.38828 0.68292 0.7812 0.0
H2003 H 0.37769 0.68739 0.83483 0.0
H2004 H 0.3599 0.62476 0.88803 0.0
C2005 C 0.39286 0.64218 0.99861 0.0
C2006 C 0.39132 0.67658 0.92938 0.0
C2007 C 0.39897 0.64419 0.03073 0.0
C2008 C 0.38744 0.66839 0.7963 0.0
C2009 C 0.3815 0.6709 0.82694 0.0
C2010 C 0.3687 0.63934 0.89928 0.0
C2011 C 0.38485 0.66059 0.98167 0.0
C2012 C 0.38146 0.65957 0.9472 0.0
C2013 C 0.38148 0.65254 0.84755 0.0
C2014 C 0.37945 0.65589 0.88148 0.0
H2015 H 0.38594 0.69846 0.0411 0.0
H2016 H 0.37572 0.69502 0.98492 0.0
H2017 H 0.36195 0.62788 0.9453 0.0
H2018 H 0.39626 0.61246 0.79797 0.0
H2019 H 0.38659 0.61692 0.85163 0.0
C2020 C 0.15438 0.70292 0.49639 0.0
C2021 C 0.15315 0.72635 0.49516 0.0
C2022 C 0.14985 0.69121 0.52386 0.0
C2023 C 0.14352 0.70036 0.60917 0.0
H2024 H 0.10655 0.64489 0.60221 0.0
C2025 C 0.09482 0.66649 0.71088 0.0
C2026 C 0.0968 0.64378 0.71866 0.0
C2027 C 0.10277 0.67508 0.68322 0.0
C2028 C 0.11704 0.66028 0.60446 0.0
H2029 H 0.14689 0.75583 0.5221 0.0
H2030 H 0.13855 0.73568 0.56903 0.0
H2031 H 0.11983 0.66239 0.55484 0.0
H2032 H 0.10849 0.61225 0.70297 0.0
H2033 H 0.12184 0.62724 0.65425 0.0
H2034 H 0.14001 0.6987 0.65857 0.0
C2035 C 0.1434 0.7262 0.54931 0.0
C2036 C 0.12477 0.67024 0.57738 0.0
C2037 C 0.14802 0.73781 0.52215 0.0
C2038 C 0.10638 0.62974 0.69757 0.0
C2039 C 0.11412 0.63831 0.66971 0.0
C2040 C 0.13557 0.69059 0.63605 0.0
C2041 C 0.14404 0.70273 0.55055 0.0
C2042 C 0.13778 0.69065 0.57937 0.0
C2043 C 0.11268 0.66113 0.66251 0.0
C2044 C 0.12197 0.67065 0.63395 0.0
H2045 H 0.15804 0.69357 0.47588 0.0
H2046 H 0.15067 0.67314 0.52407 0.0
H2047 H 0.15397 0.71575 0.61176 0.0
H2048 H 0.08713 0.6777 0.72618 0.0
H2049 H 0.10111 0.69268 0.67798 0.0
C2050 C 0.08463 0.33855 0.18743 0.0
C2051 C 0.07 0.35567 0.19075 0.0
C2052 C 0.10303 0.33673 0.20927 0.0
C2053 C 0.1171 0.32514 0.27633 0.0
H2054 H 0.14641 0.37366 0.32738 0.0
C2055 C 0.12181 0.35176 0.41125 0.0
C2056 C 0.12569 0.33111 0.42559 0.0
C2057 C 0.1252 0.35483 0.37958 0.0
C2058 C 0.13853 0.35987 0.31328 0.0
H2059 H 0.06443 0.38598 0.21612 0.0
H2060 H 0.0963 0.38294 0.25398 0.0
H2061 H 0.13589 0.37994 0.27179 0.0
H2062 H 0.13764 0.298 0.41905 0.0
H2063 H 0.14366 0.30336 0.36368 0.0
H2064 H 0.11791 0.30562 0.31806 0.0
C2065 C 0.09383 0.3708 0.23498 0.0
C2066 C 0.13268 0.36341 0.28146 0.0
C2067 C 0.07537 0.37241 0.21355 0.0
C2068 C 0.13404 0.31392 0.40824 0.0
C2069 C 0.13761 0.31704 0.37667 0.0
C2070 C 0.12291 0.32161 0.30807 0.0
C2071 C 0.10703 0.35219 0.23428 0.0
C2072 C 0.12066 0.34648 0.26321 0.0
C2073 C 0.13273 0.33734 0.3618 0.0
C2074 C 0.13249 0.33934 0.32724 0.0
H2075 H 0.08079 0.32555 0.16979 0.0
H2076 H 0.11307 0.32232 0.20807 0.0
H2077 H 0.10767 0.31179 0.26306 0.0
H2078 H 0.11536 0.36523 0.42419 0.0
H2079 H 0.12085 0.37052 0.36871 0.0
loop_
_geom_bond_atom_site_label_1
_geom_bond_atom_site_label_2
_geom_bond_distance
_geom_bond_site_symmetry_2
_ccdc_geom_bond_type
Sm0 C2 2.846 . S
Sm0 O20 2.543 . S
Sm0 O21 2.450 . S
Sm0 O22 2.681 . S
Sm0 O23 2.464 . S
Sm0 O24 2.396 . S
Sm0 O28 2.386 . S
Sm0 O31 2.408 . S
Sm1 C11 2.846 . S
Sm1 O22 2.386 1_655 S
Sm1 O25 2.408 . S
Sm1 O26 2.543 . S
Sm1 O27 2.450 . S
Sm1 O28 2.681 1_655 S
Sm1 O29 2.464 . S
Sm1 O30 2.396 1_655 S
C2 Sm0 2.846 . S
C2 C3 1.506 . S
C2 O20 1.261 . S
C2 O21 1.242 . S
C3 C2 1.506 . S
C3 C4 1.358 1_554 S
C3 C8 1.382 1_554 S
C4 C3 1.358 1_556 S
C4 C5 1.385 . S
C4 H32 0.930 . S
C5 C4 1.385 . S
C5 C6 1.395 . S
C5 H33 0.929 . S
C6 C5 1.395 . S
C6 C7 1.335 . S
C7 C6 1.335 . S
C7 C8 1.398 . S
C7 H34 0.930 . S
C8 C3 1.382 1_556 S
C8 C7 1.398 . S
C8 H35 0.929 1_556 S
C9 O22 1.271 . S
C9 O23 1.251 . S
C10 O24 1.252 1_655 S
C10 O25 1.272 . S
C11 Sm1 2.846 . S
C11 C12 1.506 . S
C11 O26 1.261 . S
C11 O27 1.242 . S
C12 C11 1.506 . S
C12 C13 1.358 . S
C12 C17 1.382 . S
C13 C12 1.358 . S
C13 C14 1.385 . S
C13 H36 0.930 . S
C14 C13 1.385 . S
C14 C15 1.395 . S
C14 H37 0.929 . S
C15 C14 1.395 . S
C15 C16 1.335 . S
C16 C15 1.335 . S
C16 C17 1.398 . S
C16 H38 0.930 . S
C17 C12 1.382 . S
C17 C16 1.398 . S
C17 H39 0.929 . S
C18 O28 1.271 . S
C18 O29 1.251 1_455 S
C19 O30 1.252 . S
C19 O31 1.272 . S
O20 Sm0 2.543 . S
O20 C2 1.261 . S
O21 Sm0 2.450 . S
O21 C2 1.242 . S
O22 Sm0 2.681 . S
O22 Sm1 2.386 1_455 S
O22 C9 1.271 . S
O23 Sm0 2.464 . S
O23 C9 1.251 . S
O24 Sm0 2.396 . S
O24 C10 1.252 1_455 S
O25 Sm1 2.408 . S
O25 C10 1.272 . S
O26 Sm1 2.543 . S
O26 C11 1.261 . S
O27 Sm1 2.450 . S
O27 C11 1.242 . S
O28 Sm0 2.386 . S
O28 Sm1 2.681 1_455 S
O28 C18 1.271 . S
O29 Sm1 2.464 . S
O29 C18 1.251 1_655 S
O30 Sm1 2.396 1_455 S
O30 C19 1.252 . S
O31 Sm0 2.408 . S
O31 C19 1.272 . S
H32 C4 0.930 . S
H33 C5 0.929 . S
H34 C7 0.930 . S
H35 C8 0.929 1_554 S
H36 C13 0.930 . S
H37 C14 0.929 . S
H38 C16 0.930 . S
H39 C17 0.929 . S
Sm40 C42 2.846 . S
Sm40 O60 2.543 . S
Sm40 O61 2.450 . S
Sm40 O62 2.681 . S
Sm40 O63 2.464 . S
Sm40 O64 2.396 . S
Sm40 O68 2.386 . S
Sm40 O71 2.408 . S
Sm41 C51 2.846 . S
Sm41 O62 2.386 . S
Sm41 O65 2.408 . S
Sm41 O66 2.543 . S
Sm41 O67 2.450 . S
Sm41 O68 2.681 . S
Sm41 O69 2.464 . S
Sm41 O70 2.396 . S
C42 Sm40 2.846 . S
C42 C43 1.506 . S
C42 O60 1.261 . S
C42 O61 1.242 . S
C43 C42 1.506 . S
C43 C44 1.358 . S
C43 C48 1.382 . S
C44 C43 1.358 . S
C44 C45 1.385 . S
C44 H72 0.930 . S
C45 C44 1.385 . S
C45 C46 1.395 . S
C45 H73 0.929 . S
C46 C45 1.395 . S
C46 C47 1.335 . S
C47 C46 1.335 . S
C47 C48 1.398 . S
C47 H74 0.930 . S
C48 C43 1.382 . S
C48 C47 1.398 . S
C48 H75 0.929 . S
C49 O62 1.271 . S
C49 O63 1.251 . S
C50 O64 1.252 . S
C50 O65 1.272 . S
C51 Sm41 2.846 . S
C51 C52 1.506 . S
C51 O66 1.261 . S
C51 O67 1.242 . S
C52 C51 1.506 . S
C52 C53 1.358 . S
C52 C57 1.382 . S
C53 C52 1.358 . S
C53 C54 1.385 . S
C53 H76 0.930 . S
C54 C53 1.385 . S
C54 C55 1.395 . S
C54 H77 0.929 . S
C55 C54 1.395 . S
C55 C56 1.335 . S
C56 C55 1.335 . S
C56 C57 1.398 . S
C56 H78 0.930 . S
C57 C52 1.382 . S
C57 C56 1.398 . S
C57 H79 0.929 . S
C58 O68 1.271 . S
C58 O69 1.251 . S
C59 O70 1.252 . S
C59 O71 1.272 . S
O60 Sm40 2.543 . S
O60 C42 1.261 . S
O61 Sm40 2.450 . S
O61 C42 1.242 . S
O62 Sm40 2.681 . S
O62 Sm41 2.386 . S
O62 C49 1.271 . S
O63 Sm40 2.464 . S
O63 C49 1.251 . S
O64 Sm40 2.396 . S
O64 C50 1.252 . S
O65 Sm41 2.408 . S
O65 C50 1.272 . S
O66 Sm41 2.543 . S
O66 C51 1.261 . S
O67 Sm41 2.450 . S
O67 C51 1.242 . S
O68 Sm40 2.386 . S
O68 Sm41 2.681 . S
O68 C58 1.271 . S
O69 Sm41 2.464 . S
O69 C58 1.251 . S
O70 Sm41 2.396 . S
O70 C59 1.252 . S
O71 Sm40 2.408 . S
O71 C59 1.272 . S
H72 C44 0.930 . S
H73 C45 0.929 . S
H74 C47 0.930 . S
H75 C48 0.929 . S
H76 C53 0.930 . S
H77 C54 0.929 . S
H78 C56 0.930 . S
H79 C57 0.929 . S
Sm80 C82 2.846 . S
Sm80 O100 2.543 . S
Sm80 O101 2.450 . S
Sm80 O102 2.681 . S
Sm80 O103 2.464 . S
Sm80 O104 2.396 . S
Sm80 O108 2.386 . S
Sm80 O111 2.408 . S
Sm81 C91 2.846 . S
Sm81 O102 2.386 . S
Sm81 O105 2.408 . S
Sm81 O106 2.543 . S
Sm81 O107 2.450 . S
Sm81 O108 2.681 . S
Sm81 O109 2.464 . S
Sm81 O110 2.396 . S
C82 Sm80 2.846 . S
C82 C83 1.506 . S
C82 O100 1.261 . S
C82 O101 1.242 . S
C83 C82 1.506 . S
C83 C84 1.358 . S
C83 C88 1.382 . S
C84 C83 1.358 . S
C84 C85 1.385 . S
C84 H112 0.930 . S
C85 C84 1.385 . S
C85 C86 1.395 . S
C85 H113 0.929 . S
C86 C85 1.395 . S
C86 C87 1.335 . S
C87 C86 1.335 . S
C87 C88 1.398 . S
C87 H114 0.930 . S
C88 C83 1.382 . S
C88 C87 1.398 . S
C88 H115 0.929 . S
C89 O102 1.271 . S
C89 O103 1.251 . S
C90 O104 1.252 . S
C90 O105 1.272 . S
C91 Sm81 2.846 . S
C91 C92 1.506 . S
C91 O106 1.261 . S
C91 O107 1.242 . S
C92 C91 1.506 . S
C92 C93 1.358 . S
C92 C97 1.382 . S
C93 C92 1.358 . S
C93 C94 1.385 . S
C93 H116 0.930 . S
C94 C93 1.385 . S
C94 C95 1.395 . S
C94 H117 0.929 . S
C95 C94 1.395 . S
C95 C96 1.335 . S
C96 C95 1.335 . S
C96 C97 1.398 . S
C96 H118 0.930 . S
C97 C92 1.382 . S
C97 C96 1.398 . S
C97 H119 0.929 . S
C98 O108 1.271 . S
C98 O109 1.251 . S
C99 O110 1.252 . S
C99 O111 1.272 . S
O100 Sm80 2.543 . S
O100 C82 1.261 . S
O101 Sm80 2.450 . S
O101 C82 1.242 . S
O102 Sm80 2.681 . S
O102 Sm81 2.386 . S
O102 C89 1.271 . S
O103 Sm80 2.464 . S
O103 C89 1.251 . S
O104 Sm80 2.396 . S
O104 C90 1.252 . S
O105 Sm81 2.408 . S
O105 C90 1.272 . S
O106 Sm81 2.543 . S
O106 C91 1.261 . S
O107 Sm81 2.450 . S
O107 C91 1.242 . S
O108 Sm80 2.386 . S
O108 Sm81 2.681 . S
O108 C98 1.271 . S
O109 Sm81 2.464 . S
O109 C98 1.251 . S
O110 Sm81 2.396 . S
O110 C99 1.252 . S
O111 Sm80 2.408 . S
O111 C99 1.272 . S
H112 C84 0.930 . S
H113 C85 0.929 . S
H114 C87 0.930 . S
H115 C88 0.929 . S
H116 C93 0.930 . S
H117 C94 0.929 . S
H118 C96 0.930 . S
H119 C97 0.929 . S
Sm120 C122 2.846 . S
Sm120 O140 2.543 . S
Sm120 O141 2.450 . S
Sm120 O142 2.681 . S
Sm120 O143 2.464 . S
Sm120 O144 2.396 . S
Sm120 O148 2.386 . S
Sm120 O151 2.408 . S
Sm121 C131 2.846 . S
Sm121 O142 2.386 . S
Sm121 O145 2.408 . S
Sm121 O146 2.543 . S
Sm121 O147 2.450 . S
Sm121 O148 2.681 . S
Sm121 O149 2.464 . S
Sm121 O150 2.396 . S
C122 Sm120 2.846 . S
C122 C123 1.506 . S
C122 O140 1.261 . S
C122 O141 1.242 . S
C123 C122 1.506 . S
C123 C124 1.358 . S
C123 C128 1.382 . S
C124 C123 1.358 . S
C124 C125 1.385 1_556 S
C124 H152 0.930 . S
C125 C124 1.385 1_554 S
C125 C126 1.395 . S
C125 H153 0.929 . S
C126 C125 1.395 . S
C126 C127 1.335 . S
C127 C126 1.335 . S
C127 C128 1.398 1_554 S
C127 H154 0.930 . S
C128 C123 1.382 . S
C128 C127 1.398 1_556 S
C128 H155 0.929 . S
C129 O142 1.271 . S
C129 O143 1.251 . S
C130 O144 1.252 . S
C130 O145 1.272 . S
C131 Sm121 2.846 . S
C131 C132 1.506 . S
C131 O146 1.261 . S
C131 O147 1.242 . S
C132 C131 1.506 . S
C132 C133 1.358 . S
C132 C137 1.382 . S
C133 C132 1.358 . S
C133 C134 1.385 . S
C133 H156 0.930 . S
C134 C133 1.385 . S
C134 C135 1.395 . S
C134 H157 0.929 . S
C135 C134 1.395 . S
C135 C136 1.335 . S
C136 C135 1.335 . S
C136 C137 1.398 . S
C136 H158 0.930 . S
C137 C132 1.382 . S
C137 C136 1.398 . S
C137 H159 0.929 . S
C138 O148 1.271 . S
C138 O149 1.251 . S
C139 O150 1.252 . S
C139 O151 1.272 . S
O140 Sm120 2.543 . S
O140 C122 1.261 . S
O141 Sm120 2.450 . S
O141 C122 1.242 . S
O142 Sm120 2.681 . S
O142 Sm121 2.386 . S
O142 C129 1.271 . S
O143 Sm120 2.464 . S
O143 C129 1.251 . S
O144 Sm120 2.396 . S
O144 C130 1.252 . S
O145 Sm121 2.408 . S
O145 C130 1.272 . S
O146 Sm121 2.543 . S
O146 C131 1.261 . S
O147 Sm121 2.450 . S
O147 C131 1.242 . S
O148 Sm120 2.386 . S
O148 Sm121 2.681 . S
O148 C138 1.271 . S
O149 Sm121 2.464 . S
O149 C138 1.251 . S
O150 Sm121 2.396 . S
O150 C139 1.252 . S
O151 Sm120 2.408 . S
O151 C139 1.272 . S
H152 C124 0.930 . S
H153 C125 0.929 . S
H154 C127 0.930 . S
H155 C128 0.929 . S
H156 C133 0.930 . S
H157 C134 0.929 . S
H158 C136 0.930 . S
H159 C137 0.929 . S
Sm160 C162 2.846 . S
Sm160 O180 2.543 . S
Sm160 O181 2.450 . S
Sm160 O182 2.681 . S
Sm160 O183 2.464 . S
Sm160 O184 2.396 . S
Sm160 O188 2.386 . S
Sm160 O191 2.408 . S
Sm161 C171 2.846 . S
Sm161 O182 2.386 1_655 S
Sm161 O185 2.408 . S
Sm161 O186 2.543 . S
Sm161 O187 2.450 . S
Sm161 O188 2.681 1_655 S
Sm161 O189 2.464 . S
Sm161 O190 2.396 1_655 S
C162 Sm160 2.846 . S
C162 C163 1.506 1_556 S
C162 O180 1.261 . S
C162 O181 1.242 . S
C163 C162 1.506 1_554 S
C163 C164 1.358 . S
C163 C168 1.382 . S
C164 C163 1.358 . S
C164 C165 1.385 . S
C164 H192 0.930 . S
C165 C164 1.385 . S
C165 C166 1.395 . S
C165 H193 0.929 . S
C166 C165 1.395 . S
C166 C167 1.335 . S
C167 C166 1.335 . S
C167 C168 1.398 . S
C167 H194 0.930 . S
C168 C163 1.382 . S
C168 C167 1.398 . S
C168 H195 0.929 . S
C169 O182 1.271 . S
C169 O183 1.251 . S
C170 O184 1.252 1_655 S
C170 O185 1.272 . S
C171 Sm161 2.846 . S
C171 C172 1.506 . S
C171 O186 1.261 . S
C171 O187 1.242 . S
C172 C171 1.506 . S
C172 C173 1.358 . S
C172 C177 1.382 . S
C173 C172 1.358 . S
C173 C174 1.385 . S
C173 H196 0.930 . S
C174 C173 1.385 . S
C174 C175 1.395 . S
C174 H197 0.929 . S
C175 C174 1.395 . S
C175 C176 1.335 . S
C176 C175 1.335 . S
C176 C177 1.398 . S
C176 H198 0.930 . S
C177 C172 1.382 . S
C177 C176 1.398 . S
C177 H199 0.929 . S
C178 O188 1.271 . S
C178 O189 1.251 1_455 S
C179 O190 1.252 . S
C179 O191 1.272 . S
O180 Sm160 2.543 . S
O180 C162 1.261 . S
O181 Sm160 2.450 . S
O181 C162 1.242 . S
O182 Sm160 2.681 . S
O182 Sm161 2.386 1_455 S
O182 C169 1.271 . S
O183 Sm160 2.464 . S
O183 C169 1.251 . S
O184 Sm160 2.396 . S
O184 C170 1.252 1_455 S
O185 Sm161 2.408 . S
O185 C170 1.272 . S
O186 Sm161 2.543 . S
O186 C171 1.261 . S
O187 Sm161 2.450 . S
O187 C171 1.242 . S
O188 Sm160 2.386 . S
O188 Sm161 2.681 1_455 S
O188 C178 1.271 . S
O189 Sm161 2.464 . S
O189 C178 1.251 1_655 S
O190 Sm161 2.396 1_455 S
O190 C179 1.252 . S
O191 Sm160 2.408 . S
O191 C179 1.272 . S
H192 C164 0.930 . S
H193 C165 0.929 . S
H194 C167 0.930 . S
H195 C168 0.929 . S
H196 C173 0.930 . S
H197 C174 0.929 . S
H198 C176 0.930 . S
H199 C177 0.929 . S
Sm200 C202 2.846 . S
Sm200 O220 2.543 . S
Sm200 O221 2.450 . S
Sm200 O222 2.681 . S
Sm200 O223 2.464 . S
Sm200 O224 2.396 . S
Sm200 O228 2.386 . S
Sm200 O231 2.408 . S
Sm201 C211 2.846 . S
Sm201 O222 2.386 . S
Sm201 O225 2.408 . S
Sm201 O226 2.543 . S
Sm201 O227 2.450 . S
Sm201 O228 2.681 . S
Sm201 O229 2.464 . S
Sm201 O230 2.396 . S
C202 Sm200 2.846 . S
C202 C203 1.506 . S
C202 O220 1.261 . S
C202 O221 1.242 . S
C203 C202 1.506 . S
C203 C204 1.358 . S
C203 C208 1.382 . S
C204 C203 1.358 . S
C204 C205 1.385 . S
C204 H232 0.930 . S
C205 C204 1.385 . S
C205 C206 1.395 . S
C205 H233 0.929 . S
C206 C205 1.395 . S
C206 C207 1.335 . S
C207 C206 1.335 . S
C207 C208 1.398 . S
C207 H234 0.930 . S
C208 C203 1.382 . S
C208 C207 1.398 . S
C208 H235 0.929 . S
C209 O222 1.271 . S
C209 O223 1.251 . S
C210 O224 1.252 . S
C210 O225 1.272 . S
C211 Sm201 2.846 . S
C211 C212 1.506 . S
C211 O226 1.261 . S
C211 O227 1.242 . S
C212 C211 1.506 . S
C212 C213 1.358 . S
C212 C217 1.382 . S
C213 C212 1.358 . S
C213 C214 1.385 . S
C213 H236 0.930 . S
C214 C213 1.385 . S
C214 C215 1.395 . S
C214 H237 0.929 1_554 S
C215 C214 1.395 . S
C215 C216 1.335 . S
C216 C215 1.335 . S
C216 C217 1.398 . S
C216 H238 0.930 . S
C217 C212 1.382 . S
C217 C216 1.398 . S
C217 H239 0.929 . S
C218 O228 1.271 . S
C218 O229 1.251 . S
C219 O230 1.252 . S
C219 O231 1.272 . S
O220 Sm200 2.543 . S
O220 C202 1.261 . S
O221 Sm200 2.450 . S
O221 C202 1.242 . S
O222 Sm200 2.681 . S
O222 Sm201 2.386 . S
O222 C209 1.271 . S
O223 Sm200 2.464 . S
O223 C209 1.251 . S
O224 Sm200 2.396 . S
O224 C210 1.252 . S
O225 Sm201 2.408 . S
O225 C210 1.272 . S
O226 Sm201 2.543 . S
O226 C211 1.261 . S
O227 Sm201 2.450 . S
O227 C211 1.242 . S
O228 Sm200 2.386 . S
O228 Sm201 2.681 . S
O228 C218 1.271 . S
O229 Sm201 2.464 . S
O229 C218 1.251 . S
O230 Sm201 2.396 . S
O230 C219 1.252 . S
O231 Sm200 2.408 . S
O231 C219 1.272 . S
H232 C204 0.930 . S
H233 C205 0.929 . S
H234 C207 0.930 . S
H235 C208 0.929 . S
H236 C213 0.930 . S
H237 C214 0.929 1_556 S
H238 C216 0.930 . S
H239 C217 0.929 . S
Sm240 C242 2.846 . S
Sm240 O260 2.543 . S
Sm240 O261 2.450 . S
Sm240 O262 2.681 . S
Sm240 O263 2.464 . S
Sm240 O264 2.396 . S
Sm240 O268 2.386 . S
Sm240 O271 2.408 . S
Sm241 C251 2.846 . S
Sm241 O262 2.386 . S
Sm241 O265 2.408 . S
Sm241 O266 2.543 . S
Sm241 O267 2.450 . S
Sm241 O268 2.681 . S
Sm241 O269 2.464 . S
Sm241 O270 2.396 . S
C242 Sm240 2.846 . S
C242 C243 1.506 . S
C242 O260 1.261 . S
C242 O261 1.242 . S
C243 C242 1.506 . S
C243 C244 1.358 . S
C243 C248 1.382 . S
C244 C243 1.358 . S
C244 C245 1.385 . S
C244 H272 0.930 . S
C245 C244 1.385 . S
C245 C246 1.395 . S
C245 H273 0.929 . S
C246 C245 1.395 . S
C246 C247 1.335 . S
C247 C246 1.335 . S
C247 C248 1.398 . S
C247 H274 0.930 . S
C248 C243 1.382 . S
C248 C247 1.398 . S
C248 H275 0.929 . S
C249 O262 1.271 . S
C249 O263 1.251 . S
C250 O264 1.252 . S
C250 O265 1.272 . S
C251 Sm241 2.846 . S
C251 C252 1.506 . S
C251 O266 1.261 . S
C251 O267 1.242 . S
C252 C251 1.506 . S
C252 C253 1.358 . S
C252 C257 1.382 . S
C253 C252 1.358 . S
C253 C254 1.385 . S
C253 H276 0.930 . S
C254 C253 1.385 . S
C254 C255 1.395 . S
C254 H277 0.929 . S
C255 C254 1.395 . S
C255 C256 1.335 . S
C256 C255 1.335 . S
C256 C257 1.398 . S
C256 H278 0.930 . S
C257 C252 1.382 . S
C257 C256 1.398 . S
C257 H279 0.929 . S
C258 O268 1.271 . S
C258 O269 1.251 . S
C259 O270 1.252 . S
C259 O271 1.272 . S
O260 Sm240 2.543 . S
O260 C242 1.261 . S
O261 Sm240 2.450 . S
O261 C242 1.242 . S
O262 Sm240 2.681 . S
O262 Sm241 2.386 . S
O262 C249 1.271 . S
O263 Sm240 2.464 . S
O263 C249 1.251 . S
O264 Sm240 2.396 . S
O264 C250 1.252 . S
O265 Sm241 2.408 . S
O265 C250 1.272 . S
O266 Sm241 2.543 . S
O266 C251 1.261 . S
O267 Sm241 2.450 . S
O267 C251 1.242 . S
O268 Sm240 2.386 . S
O268 Sm241 2.681 . S
O268 C258 1.271 . S
O269 Sm241 2.464 . S
O269 C258 1.251 . S
O270 Sm241 2.396 . S
O270 C259 1.252 . S
O271 Sm240 2.408 . S
O271 C259 1.272 . S
H272 C244 0.930 . S
H273 C245 0.929 . S
H274 C247 0.930 . S
H275 C248 0.929 . S
H276 C253 0.930 . S
H277 C254 0.929 . S
H278 C256 0.930 . S
H279 C257 0.929 . S
Sm280 C282 2.846 . S
Sm280 O300 2.543 . S
Sm280 O301 2.450 . S
Sm280 O302 2.681 . S
Sm280 O303 2.464 . S
Sm280 O304 2.396 . S
Sm280 O308 2.386 . S
Sm280 O311 2.408 . S
Sm281 C291 2.846 . S
Sm281 O302 2.386 . S
Sm281 O305 2.408 . S
Sm281 O306 2.543 . S
Sm281 O307 2.450 . S
Sm281 O308 2.681 . S
Sm281 O309 2.464 . S
Sm281 O310 2.396 . S
C282 Sm280 2.846 . S
C282 C283 1.506 . S
C282 O300 1.261 . S
C282 O301 1.242 . S
C283 C282 1.506 . S
C283 C284 1.358 . S
C283 C288 1.382 . S
C284 C283 1.358 . S
C284 C285 1.385 . S
C284 H312 0.930 . S
C285 C284 1.385 . S
C285 C286 1.395 . S
C285 H313 0.929 . S
C286 C285 1.395 . S
C286 C287 1.335 . S
C287 C286 1.335 . S
C287 C288 1.398 . S
C287 H314 0.930 . S
C288 C283 1.382 . S
C288 C287 1.398 . S
C288 H315 0.929 . S
C289 O302 1.271 . S
C289 O303 1.251 . S
C290 O304 1.252 . S
C290 O305 1.272 . S
C291 Sm281 2.846 . S
C291 C292 1.506 . S
C291 O306 1.261 . S
C291 O307 1.242 . S
C292 C291 1.506 . S
C292 C293 1.358 . S
C292 C297 1.382 . S
C293 C292 1.358 . S
C293 C294 1.385 . S
C293 H316 0.930 . S
C294 C293 1.385 . S
C294 C295 1.395 . S
C294 H317 0.929 . S
C295 C294 1.395 . S
C295 C296 1.335 . S
C296 C295 1.335 . S
C296 C297 1.398 . S
C296 H318 0.930 . S
C297 C292 1.382 . S
C297 C296 1.398 . S
C297 H319 0.929 . S
C298 O308 1.271 . S
C298 O309 1.251 . S
C299 O310 1.252 . S
C299 O311 1.272 . S
O300 Sm280 2.543 . S
O300 C282 1.261 . S
O301 Sm280 2.450 . S
O301 C282 1.242 . S
O302 Sm280 2.681 . S
O302 Sm281 2.386 . S
O302 C289 1.271 . S
O303 Sm280 2.464 . S
O303 C289 1.251 . S
O304 Sm280 2.396 . S
O304 C290 1.252 . S
O305 Sm281 2.408 . S
O305 C290 1.272 . S
O306 Sm281 2.543 . S
O306 C291 1.261 . S
O307 Sm281 2.450 . S
O307 C291 1.242 . S
O308 Sm280 2.386 . S
O308 Sm281 2.681 . S
O308 C298 1.271 . S
O309 Sm281 2.464 . S
O309 C298 1.251 . S
O310 Sm281 2.396 . S
O310 C299 1.252 . S
O311 Sm280 2.408 . S
O311 C299 1.272 . S
H312 C284 0.930 . S
H313 C285 0.929 . S
H314 C287 0.930 . S
H315 C288 0.929 . S
H316 C293 0.930 . S
H317 C294 0.929 . S
H318 C296 0.930 . S
H319 C297 0.929 . S
Sm320 C322 2.846 . S
Sm320 O340 2.543 . S
Sm320 O341 2.450 . S
Sm320 O342 2.681 . S
Sm320 O343 2.464 . S
Sm320 O344 2.396 . S
Sm320 O348 2.386 . S
Sm320 O351 2.408 . S
Sm321 C331 2.846 . S
Sm321 O342 2.386 . S
Sm321 O345 2.408 . S
Sm321 O346 2.543 . S
Sm321 O347 2.450 . S
Sm321 O348 2.681 . S
Sm321 O349 2.464 . S
Sm321 O350 2.396 . S
C322 Sm320 2.846 . S
C322 C323 1.506 . S
C322 O340 1.261 . S
C322 O341 1.242 . S
C323 C322 1.506 . S
C323 C324 1.358 . S
C323 C328 1.382 . S
C324 C323 1.358 . S
C324 C325 1.385 . S
C324 H352 0.930 . S
C325 C324 1.385 . S
C325 C326 1.395 . S
C325 H353 0.929 . S
C326 C325 1.395 . S
C326 C327 1.335 . S
C327 C326 1.335 . S
C327 C328 1.398 . S
C327 H354 0.930 . S
C328 C323 1.382 . S
C328 C327 1.398 . S
C328 H355 0.929 . S
C329 O342 1.271 . S
C329 O343 1.251 . S
C330 O344 1.252 . S
C330 O345 1.272 . S
C331 Sm321 2.846 . S
C331 C332 1.506 . S
C331 O346 1.261 . S
C331 O347 1.242 . S
C332 C331 1.506 . S
C332 C333 1.358 . S
C332 C337 1.382 . S
C333 C332 1.358 . S
C333 C334 1.385 . S
C333 H356 0.930 . S
C334 C333 1.385 . S
C334 C335 1.395 . S
C334 H357 0.929 . S
C335 C334 1.395 . S
C335 C336 1.335 . S
C336 C335 1.335 . S
C336 C337 1.398 . S
C336 H358 0.930 . S
C337 C332 1.382 . S
C337 C336 1.398 . S
C337 H359 0.929 . S
C338 O348 1.271 . S
C338 O349 1.251 . S
C339 O350 1.252 . S
C339 O351 1.272 . S
O340 Sm320 2.543 . S
O340 C322 1.261 . S
O341 Sm320 2.450 . S
O341 C322 1.242 . S
O342 Sm320 2.681 . S
O342 Sm321 2.386 . S
O342 C329 1.271 . S
O343 Sm320 2.464 . S
O343 C329 1.251 . S
O344 Sm320 2.396 . S
O344 C330 1.252 . S
O345 Sm321 2.408 . S
O345 C330 1.272 . S
O346 Sm321 2.543 . S
O346 C331 1.261 . S
O347 Sm321 2.450 . S
O347 C331 1.242 . S
O348 Sm320 2.386 . S
O348 Sm321 2.681 . S
O348 C338 1.271 . S
O349 Sm321 2.464 . S
O349 C338 1.251 . S
O350 Sm321 2.396 . S
O350 C339 1.252 . S
O351 Sm320 2.408 . S
O351 C339 1.272 . S
H352 C324 0.930 . S
H353 C325 0.929 . S
H354 C327 0.930 . S
H355 C328 0.929 . S
H356 C333 0.930 . S
H357 C334 0.929 . S
H358 C336 0.930 . S
H359 C337 0.929 . S
Sm360 C362 2.846 . S
Sm360 O380 2.543 . S
Sm360 O381 2.450 . S
Sm360 O382 2.681 . S
Sm360 O383 2.464 . S
Sm360 O384 2.396 . S
Sm360 O388 2.386 . S
Sm360 O391 2.408 . S
Sm361 C371 2.846 . S
Sm361 O382 2.386 . S
Sm361 O385 2.408 . S
Sm361 O386 2.543 . S
Sm361 O387 2.450 . S
Sm361 O388 2.681 . S
Sm361 O389 2.464 . S
Sm361 O390 2.396 . S
C362 Sm360 2.846 . S
C362 C363 1.506 . S
C362 O380 1.261 . S
C362 O381 1.242 . S
C363 C362 1.506 . S
C363 C364 1.358 . S
C363 C368 1.382 . S
C364 C363 1.358 . S
C364 C365 1.385 . S
C364 H392 0.930 . S
C365 C364 1.385 . S
C365 C366 1.395 . S
C365 H393 0.929 . S
C366 C365 1.395 . S
C366 C367 1.335 . S
C367 C366 1.335 . S
C367 C368 1.398 . S
C367 H394 0.930 . S
C368 C363 1.382 . S
C368 C367 1.398 . S
C368 H395 0.929 . S
C369 O382 1.271 . S
C369 O383 1.251 . S
C370 O384 1.252 . S
C370 O385 1.272 . S
C371 Sm361 2.846 . S
C371 C372 1.506 1_554 S
C371 O386 1.261 . S
C371 O387 1.242 . S
C372 C371 1.506 1_556 S
C372 C373 1.358 . S
C372 C377 1.382 . S
C373 C372 1.358 . S
C373 C374 1.385 . S
C373 H396 0.930 . S
C374 C373 1.385 . S
C374 C375 1.395 . S
C374 H397 0.929 . S
C375 C374 1.395 . S
C375 C376 1.335 . S
C376 C375 1.335 . S
C376 C377 1.398 . S
C376 H398 0.930 . S
C377 C372 1.382 . S
C377 C376 1.398 . S
C377 H399 0.929 . S
C378 O388 1.271 . S
C378 O389 1.251 . S
C379 O390 1.252 . S
C379 O391 1.272 . S
O380 Sm360 2.543 . S
O380 C362 1.261 . S
O381 Sm360 2.450 . S
O381 C362 1.242 . S
O382 Sm360 2.681 . S
O382 Sm361 2.386 . S
O382 C369 1.271 . S
O383 Sm360 2.464 . S
O383 C369 1.251 . S
O384 Sm360 2.396 . S
O384 C370 1.252 . S
O385 Sm361 2.408 . S
O385 C370 1.272 . S
O386 Sm361 2.543 . S
O386 C371 1.261 . S
O387 Sm361 2.450 . S
O387 C371 1.242 . S
O388 Sm360 2.386 . S
O388 Sm361 2.681 . S
O388 C378 1.271 . S
O389 Sm361 2.464 . S
O389 C378 1.251 . S
O390 Sm361 2.396 . S
O390 C379 1.252 . S
O391 Sm360 2.408 . S
O391 C379 1.272 . S
H392 C364 0.930 . S
H393 C365 0.929 . S
H394 C367 0.930 . S
H395 C368 0.929 . S
H396 C373 0.930 . S
H397 C374 0.929 . S
H398 C376 0.930 . S
H399 C377 0.929 . S
Sm400 C402 2.846 . S
Sm400 O420 2.543 . S
Sm400 O421 2.450 . S
Sm400 O422 2.681 . S
Sm400 O423 2.464 . S
Sm400 O424 2.396 . S
Sm400 O428 2.386 . S
Sm400 O431 2.408 . S
Sm401 C411 2.846 . S
Sm401 O422 2.386 . S
Sm401 O425 2.408 . S
Sm401 O426 2.543 . S
Sm401 O427 2.450 . S
Sm401 O428 2.681 . S
Sm401 O429 2.464 . S
Sm401 O430 2.396 . S
C402 Sm400 2.846 . S
C402 C403 1.506 . S
C402 O420 1.261 . S
C402 O421 1.242 . S
C403 C402 1.506 . S
C403 C404 1.358 1_556 S
C403 C408 1.382 1_556 S
C404 C403 1.358 1_554 S
C404 C405 1.385 . S
C404 H432 0.930 . S
C405 C404 1.385 . S
C405 C406 1.395 . S
C405 H433 0.929 . S
C406 C405 1.395 . S
C406 C407 1.335 . S
C407 C406 1.335 . S
C407 C408 1.398 . S
C407 H434 0.930 . S
C408 C403 1.382 1_554 S
C408 C407 1.398 . S
C408 H435 0.929 1_554 S
C409 O422 1.271 . S
C409 O423 1.251 . S
C410 O424 1.252 . S
C410 O425 1.272 . S
C411 Sm401 2.846 . S
C411 C412 1.506 . S
C411 O426 1.261 . S
C411 O427 1.242 . S
C412 C411 1.506 . S
C412 C413 1.358 . S
C412 C417 1.382 . S
C413 C412 1.358 . S
C413 C414 1.385 . S
C413 H436 0.930 . S
C414 C413 1.385 . S
C414 C415 1.395 . S
C414 H437 0.929 . S
C415 C414 1.395 . S
C415 C416 1.335 . S
C416 C415 1.335 . S
C416 C417 1.398 . S
C416 H438 0.930 . S
C417 C412 1.382 . S
C417 C416 1.398 . S
C417 H439 0.929 . S
C418 O428 1.271 . S
C418 O429 1.251 . S
C419 O430 1.252 . S
C419 O431 1.272 . S
O420 Sm400 2.543 . S
O420 C402 1.261 . S
O421 Sm400 2.450 . S
O421 C402 1.242 . S
O422 Sm400 2.681 . S
O422 Sm401 2.386 . S
O422 C409 1.271 . S
O423 Sm400 2.464 . S
O423 C409 1.251 . S
O424 Sm400 2.396 . S
O424 C410 1.252 . S
O425 Sm401 2.408 . S
O425 C410 1.272 . S
O426 Sm401 2.543 . S
O426 C411 1.261 . S
O427 Sm401 2.450 . S
O427 C411 1.242 . S
O428 Sm400 2.386 . S
O428 Sm401 2.681 . S
O428 C418 1.271 . S
O429 Sm401 2.464 . S
O429 C418 1.251 . S
O430 Sm401 2.396 . S
O430 C419 1.252 . S
O431 Sm400 2.408 . S
O431 C419 1.272 . S
H432 C404 0.930 . S
H433 C405 0.929 . S
H434 C407 0.930 . S
H435 C408 0.929 1_556 S
H436 C413 0.930 . S
H437 C414 0.929 . S
H438 C416 0.930 . S
H439 C417 0.929 . S
Sm440 C442 2.846 . S
Sm440 O460 2.543 . S
Sm440 O461 2.450 . S
Sm440 O462 2.681 . S
Sm440 O463 2.464 . S
Sm440 O464 2.396 . S
Sm440 O468 2.386 . S
Sm440 O471 2.408 . S
Sm441 C451 2.846 . S
Sm441 O462 2.386 . S
Sm441 O465 2.408 . S
Sm441 O466 2.543 . S
Sm441 O467 2.450 . S
Sm441 O468 2.681 . S
Sm441 O469 2.464 . S
Sm441 O470 2.396 . S
C442 Sm440 2.846 . S
C442 C443 1.506 . S
C442 O460 1.261 . S
C442 O461 1.242 . S
C443 C442 1.506 . S
C443 C444 1.358 . S
C443 C448 1.382 . S
C444 C443 1.358 . S
C444 C445 1.385 . S
C444 H472 0.930 . S
C445 C444 1.385 . S
C445 C446 1.395 . S
C445 H473 0.929 . S
C446 C445 1.395 . S
C446 C447 1.335 . S
C447 C446 1.335 . S
C447 C448 1.398 . S
C447 H474 0.930 . S
C448 C443 1.382 . S
C448 C447 1.398 . S
C448 H475 0.929 . S
C449 O462 1.271 . S
C449 O463 1.251 . S
C450 O464 1.252 . S
C450 O465 1.272 . S
C451 Sm441 2.846 . S
C451 C452 1.506 . S
C451 O466 1.261 . S
C451 O467 1.242 . S
C452 C451 1.506 . S
C452 C453 1.358 . S
C452 C457 1.382 . S
C453 C452 1.358 . S
C453 C454 1.385 . S
C453 H476 0.930 . S
C454 C453 1.385 . S
C454 C455 1.395 . S
C454 H477 0.929 . S
C455 C454 1.395 . S
C455 C456 1.335 . S
C456 C455 1.335 . S
C456 C457 1.398 . S
C456 H478 0.930 . S
C457 C452 1.382 . S
C457 C456 1.398 . S
C457 H479 0.929 . S
C458 O468 1.271 . S
C458 O469 1.251 . S
C459 O470 1.252 . S
C459 O471 1.272 . S
O460 Sm440 2.543 . S
O460 C442 1.261 . S
O461 Sm440 2.450 . S
O461 C442 1.242 . S
O462 Sm440 2.681 . S
O462 Sm441 2.386 . S
O462 C449 1.271 . S
O463 Sm440 2.464 . S
O463 C449 1.251 . S
O464 Sm440 2.396 . S
O464 C450 1.252 . S
O465 Sm441 2.408 . S
O465 C450 1.272 . S
O466 Sm441 2.543 . S
O466 C451 1.261 . S
O467 Sm441 2.450 . S
O467 C451 1.242 . S
O468 Sm440 2.386 . S
O468 Sm441 2.681 . S
O468 C458 1.271 . S
O469 Sm441 2.464 . S
O469 C458 1.251 . S
O470 Sm441 2.396 . S
O470 C459 1.252 . S
O471 Sm440 2.408 . S
O471 C459 1.272 . S
H472 C444 0.930 . S
H473 C445 0.929 . S
H474 C447 0.930 . S
H475 C448 0.929 . S
H476 C453 0.930 . S
H477 C454 0.929 . S
H478 C456 0.930 . S
H479 C457 0.929 . S
Sm480 C482 2.846 . S
Sm480 O500 2.543 . S
Sm480 O501 2.450 . S
Sm480 O502 2.681 . S
Sm480 O503 2.464 . S
Sm480 O504 2.396 . S
Sm480 O508 2.386 . S
Sm480 O511 2.408 . S
Sm481 C491 2.846 . S
Sm481 O502 2.386 . S
Sm481 O505 2.408 . S
Sm481 O506 2.543 . S
Sm481 O507 2.450 . S
Sm481 O508 2.681 . S
Sm481 O509 2.464 . S
Sm481 O510 2.396 . S
C482 Sm480 2.846 . S
C482 C483 1.506 . S
C482 O500 1.261 . S
C482 O501 1.242 . S
C483 C482 1.506 . S
C483 C484 1.358 . S
C483 C488 1.382 . S
C484 C483 1.358 . S
C484 C485 1.385 . S
C484 H512 0.930 . S
C485 C484 1.385 . S
C485 C486 1.395 . S
C485 H513 0.929 . S
C486 C485 1.395 . S
C486 C487 1.335 . S
C487 C486 1.335 . S
C487 C488 1.398 . S
C487 H514 0.930 . S
C488 C483 1.382 . S
C488 C487 1.398 . S
C488 H515 0.929 . S
C489 O502 1.271 . S
C489 O503 1.251 . S
C490 O504 1.252 . S
C490 O505 1.272 . S
C491 Sm481 2.846 . S
C491 C492 1.506 . S
C491 O506 1.261 . S
C491 O507 1.242 . S
C492 C491 1.506 . S
C492 C493 1.358 . S
C492 C497 1.382 . S
C493 C492 1.358 . S
C493 C494 1.385 . S
C493 H516 0.930 . S
C494 C493 1.385 . S
C494 C495 1.395 . S
C494 H517 0.929 . S
C495 C494 1.395 . S
C495 C496 1.335 . S
C496 C495 1.335 . S
C496 C497 1.398 . S
C496 H518 0.930 . S
C497 C492 1.382 . S
C497 C496 1.398 . S
C497 H519 0.929 . S
C498 O508 1.271 . S
C498 O509 1.251 . S
C499 O510 1.252 . S
C499 O511 1.272 . S
O500 Sm480 2.543 . S
O500 C482 1.261 . S
O501 Sm480 2.450 . S
O501 C482 1.242 . S
O502 Sm480 2.681 . S
O502 Sm481 2.386 . S
O502 C489 1.271 . S
O503 Sm480 2.464 . S
O503 C489 1.251 . S
O504 Sm480 2.396 . S
O504 C490 1.252 . S
O505 Sm481 2.408 . S
O505 C490 1.272 . S
O506 Sm481 2.543 . S
O506 C491 1.261 . S
O507 Sm481 2.450 . S
O507 C491 1.242 . S
O508 Sm480 2.386 . S
O508 Sm481 2.681 . S
O508 C498 1.271 . S
O509 Sm481 2.464 . S
O509 C498 1.251 . S
O510 Sm481 2.396 . S
O510 C499 1.252 . S
O511 Sm480 2.408 . S
O511 C499 1.272 . S
H512 C484 0.930 . S
H513 C485 0.929 . S
H514 C487 0.930 . S
H515 C488 0.929 . S
H516 C493 0.930 . S
H517 C494 0.929 . S
H518 C496 0.930 . S
H519 C497 0.929 . S
Sm520 C522 2.846 . S
Sm520 O540 2.543 . S
Sm520 O541 2.450 . S
Sm520 O542 2.681 1_655 S
Sm520 O543 2.464 . S
Sm520 O544 2.396 1_655 S
Sm520 O548 2.386 1_655 S
Sm520 O551 2.408 . S
Sm521 C531 2.846 . S
Sm521 O542 2.386 . S
Sm521 O545 2.408 . S
Sm521 O546 2.543 . S
Sm521 O547 2.450 . S
Sm521 O548 2.681 . S
Sm521 O549 2.464 . S
Sm521 O550 2.396 . S
C522 Sm520 2.846 . S
C522 C523 1.506 . S
C522 O540 1.261 . S
C522 O541 1.242 . S
C523 C522 1.506 . S
C523 C524 1.358 . S
C523 C528 1.382 . S
C524 C523 1.358 . S
C524 C525 1.385 . S
C524 H552 0.930 . S
C525 C524 1.385 . S
C525 C526 1.395 . S
C525 H553 0.929 . S
C526 C525 1.395 . S
C526 C527 1.335 . S
C527 C526 1.335 . S
C527 C528 1.398 . S
C527 H554 0.930 . S
C528 C523 1.382 . S
C528 C527 1.398 . S
C528 H555 0.929 . S
C529 O542 1.271 . S
C529 O543 1.251 1_455 S
C530 O544 1.252 . S
C530 O545 1.272 . S
C531 Sm521 2.846 . S
C531 C532 1.506 . S
C531 O546 1.261 . S
C531 O547 1.242 . S
C532 C531 1.506 . S
C532 C533 1.358 1_554 S
C532 C537 1.382 1_554 S
C533 C532 1.358 1_556 S
C533 C534 1.385 . S
C533 H556 0.930 . S
C534 C533 1.385 . S
C534 C535 1.395 . S
C534 H557 0.929 . S
C535 C534 1.395 . S
C535 C536 1.335 . S
C536 C535 1.335 . S
C536 C537 1.398 . S
C536 H558 0.930 . S
C537 C532 1.382 1_556 S
C537 C536 1.398 . S
C537 H559 0.929 1_556 S
C538 O548 1.271 . S
C538 O549 1.251 . S
C539 O550 1.252 1_655 S
C539 O551 1.272 . S
O540 Sm520 2.543 . S
O540 C522 1.261 . S
O541 Sm520 2.450 . S
O541 C522 1.242 . S
O542 Sm520 2.681 1_455 S
O542 Sm521 2.386 . S
O542 C529 1.271 . S
O543 Sm520 2.464 . S
O543 C529 1.251 1_655 S
O544 Sm520 2.396 1_455 S
O544 C530 1.252 . S
O545 Sm521 2.408 . S
O545 C530 1.272 . S
O546 Sm521 2.543 . S
O546 C531 1.261 . S
O547 Sm521 2.450 . S
O547 C531 1.242 . S
O548 Sm520 2.386 1_455 S
O548 Sm521 2.681 . S
O548 C538 1.271 . S
O549 Sm521 2.464 . S
O549 C538 1.251 . S
O550 Sm521 2.396 . S
O550 C539 1.252 1_455 S
O551 Sm520 2.408 . S
O551 C539 1.272 . S
H552 C524 0.930 . S
H553 C525 0.929 . S
H554 C527 0.930 . S
H555 C528 0.929 . S
H556 C533 0.930 . S
H557 C534 0.929 . S
H558 C536 0.930 . S
H559 C537 0.929 1_554 S
Sm560 C562 2.846 . S
Sm560 O580 2.543 . S
Sm560 O581 2.450 . S
Sm560 O582 2.681 . S
Sm560 O583 2.464 . S
Sm560 O584 2.396 . S
Sm560 O588 2.386 . S
Sm560 O591 2.408 . S
Sm561 C571 2.846 . S
Sm561 O582 2.386 . S
Sm561 O585 2.408 . S
Sm561 O586 2.543 . S
Sm561 O587 2.450 . S
Sm561 O588 2.681 . S
Sm561 O589 2.464 . S
Sm561 O590 2.396 . S
C562 Sm560 2.846 . S
C562 C563 1.506 . S
C562 O580 1.261 . S
C562 O581 1.242 . S
C563 C562 1.506 . S
C563 C564 1.358 . S
C563 C568 1.382 . S
C564 C563 1.358 . S
C564 C565 1.385 . S
C564 H592 0.930 . S
C565 C564 1.385 . S
C565 C566 1.395 . S
C565 H593 0.929 . S
C566 C565 1.395 . S
C566 C567 1.335 . S
C567 C566 1.335 . S
C567 C568 1.398 . S
C567 H594 0.930 . S
C568 C563 1.382 . S
C568 C567 1.398 . S
C568 H595 0.929 . S
C569 O582 1.271 . S
C569 O583 1.251 . S
C570 O584 1.252 . S
C570 O585 1.272 . S
C571 Sm561 2.846 . S
C571 C572 1.506 . S
C571 O586 1.261 . S
C571 O587 1.242 . S
C572 C571 1.506 . S
C572 C573 1.358 . S
C572 C577 1.382 . S
C573 C572 1.358 . S
C573 C574 1.385 . S
C573 H596 0.930 . S
C574 C573 1.385 . S
C574 C575 1.395 . S
C574 H597 0.929 . S
C575 C574 1.395 . S
C575 C576 1.335 . S
C576 C575 1.335 . S
C576 C577 1.398 . S
C576 H598 0.930 . S
C577 C572 1.382 . S
C577 C576 1.398 . S
C577 H599 0.929 . S
C578 O588 1.271 . S
C578 O589 1.251 . S
C579 O590 1.252 . S
C579 O591 1.272 . S
O580 Sm560 2.543 . S
O580 C562 1.261 . S
O581 Sm560 2.450 . S
O581 C562 1.242 . S
O582 Sm560 2.681 . S
O582 Sm561 2.386 . S
O582 C569 1.271 . S
O583 Sm560 2.464 . S
O583 C569 1.251 . S
O584 Sm560 2.396 . S
O584 C570 1.252 . S
O585 Sm561 2.408 . S
O585 C570 1.272 . S
O586 Sm561 2.543 . S
O586 C571 1.261 . S
O587 Sm561 2.450 . S
O587 C571 1.242 . S
O588 Sm560 2.386 . S
O588 Sm561 2.681 . S
O588 C578 1.271 . S
O589 Sm561 2.464 . S
O589 C578 1.251 . S
O590 Sm561 2.396 . S
O590 C579 1.252 . S
O591 Sm560 2.408 . S
O591 C579 1.272 . S
H592 C564 0.930 . S
H593 C565 0.929 . S
H594 C567 0.930 . S
H595 C568 0.929 . S
H596 C573 0.930 . S
H597 C574 0.929 . S
H598 C576 0.930 . S
H599 C577 0.929 . S
Sm600 C602 2.846 . S
Sm600 O620 2.543 . S
Sm600 O621 2.450 . S
Sm600 O622 2.681 1_655 S
Sm600 O623 2.464 . S
Sm600 O624 2.396 1_655 S
Sm600 O628 2.386 1_655 S
Sm600 O631 2.408 . S
Sm601 C611 2.846 . S
Sm601 O622 2.386 . S
Sm601 O625 2.408 . S
Sm601 O626 2.543 . S
Sm601 O627 2.450 . S
Sm601 O628 2.681 . S
Sm601 O629 2.464 . S
Sm601 O630 2.396 . S
C602 Sm600 2.846 . S
C602 C603 1.506 . S
C602 O620 1.261 . S
C602 O621 1.242 . S
C603 C602 1.506 . S
C603 C604 1.358 1_556 S
C603 C608 1.382 1_556 S
C604 C603 1.358 1_554 S
C604 C605 1.385 . S
C604 H632 0.930 . S
C605 C604 1.385 . S
C605 C606 1.395 . S
C605 H633 0.929 . S
C606 C605 1.395 . S
C606 C607 1.335 . S
C607 C606 1.335 . S
C607 C608 1.398 . S
C607 H634 0.930 . S
C608 C603 1.382 1_554 S
C608 C607 1.398 . S
C608 H635 0.929 1_554 S
C609 O622 1.271 . S
C609 O623 1.251 1_455 S
C610 O624 1.252 . S
C610 O625 1.272 . S
C611 Sm601 2.846 . S
C611 C612 1.506 . S
C611 O626 1.261 . S
C611 O627 1.242 . S
C612 C611 1.506 . S
C612 C613 1.358 . S
C612 C617 1.382 . S
C613 C612 1.358 . S
C613 C614 1.385 . S
C613 H636 0.930 . S
C614 C613 1.385 . S
C614 C615 1.395 . S
C614 H637 0.929 . S
C615 C614 1.395 . S
C615 C616 1.335 . S
C616 C615 1.335 . S
C616 C617 1.398 . S
C616 H638 0.930 . S
C617 C612 1.382 . S
C617 C616 1.398 . S
C617 H639 0.929 . S
C618 O628 1.271 . S
C618 O629 1.251 . S
C619 O630 1.252 1_655 S
C619 O631 1.272 . S
O620 Sm600 2.543 . S
O620 C602 1.261 . S
O621 Sm600 2.450 . S
O621 C602 1.242 . S
O622 Sm600 2.681 1_455 S
O622 Sm601 2.386 . S
O622 C609 1.271 . S
O623 Sm600 2.464 . S
O623 C609 1.251 1_655 S
O624 Sm600 2.396 1_455 S
O624 C610 1.252 . S
O625 Sm601 2.408 . S
O625 C610 1.272 . S
O626 Sm601 2.543 . S
O626 C611 1.261 . S
O627 Sm601 2.450 . S
O627 C611 1.242 . S
O628 Sm600 2.386 1_455 S
O628 Sm601 2.681 . S
O628 C618 1.271 . S
O629 Sm601 2.464 . S
O629 C618 1.251 . S
O630 Sm601 2.396 . S
O630 C619 1.252 1_455 S
O631 Sm600 2.408 . S
O631 C619 1.272 . S
H632 C604 0.930 . S
H633 C605 0.929 . S
H634 C607 0.930 . S
H635 C608 0.929 1_556 S
H636 C613 0.930 . S
H637 C614 0.929 . S
H638 C616 0.930 . S
H639 C617 0.929 . S
C640 C641 1.349 . S
C640 C642 1.327 . S
C640 H665 0.950 . S
C641 C640 1.349 . S
C641 C657 1.349 . S
C642 C640 1.327 . S
C642 C661 1.429 . S
C642 H666 0.950 . S
C643 C660 1.574 . S
C643 C662 1.368 . S
C643 H667 0.949 . S
H644 C648 0.949 . S
C645 C646 1.349 . S
C645 C647 1.327 . S
C645 H668 0.950 . S
C646 C645 1.349 . S
C646 C658 1.349 . S
C647 C645 1.327 . S
C647 C663 1.429 . S
C647 H669 0.950 . S
C648 H644 0.949 . S
C648 C656 1.574 . S
C648 C664 1.368 . S
H649 C657 0.950 . S
H650 C655 0.950 . S
H651 C656 0.949 . S
H652 C658 0.950 . S
H653 C659 0.950 . S
H654 C660 0.949 . S
C655 H650 0.950 . S
C655 C657 1.327 . S
C655 C661 1.429 . S
C656 C648 1.574 . S
C656 H651 0.949 . S
C656 C662 1.368 . S
C657 C641 1.349 . S
C657 H649 0.950 . S
C657 C655 1.327 . S
C658 C646 1.349 . S
C658 H652 0.950 . S
C658 C659 1.327 . S
C659 H653 0.950 . S
C659 C658 1.327 . S
C659 C663 1.429 . S
C660 C643 1.574 . S
C660 H654 0.949 . S
C660 C664 1.368 . S
C661 C642 1.429 . S
C661 C655 1.429 . S
C661 C662 1.523 . S
C662 C643 1.368 . S
C662 C656 1.368 . S
C662 C661 1.523 . S
C663 C647 1.429 . S
C663 C659 1.429 . S
C663 C664 1.523 . S
C664 C648 1.368 . S
C664 C660 1.368 . S
C664 C663 1.523 . S
H665 C640 0.950 . S
H666 C642 0.950 . S
H667 C643 0.949 . S
H668 C645 0.950 . S
H669 C647 0.950 . S
C670 C671 1.349 . S
C670 C672 1.327 . S
C670 H695 0.950 . S
C671 C670 1.349 . S
C671 C687 1.349 . S
C672 C670 1.327 . S
C672 C691 1.429 . S
C672 H696 0.950 . S
C673 C690 1.574 . S
C673 C692 1.368 . S
C673 H697 0.949 . S
H674 C678 0.949 . S
C675 C676 1.349 . S
C675 C677 1.327 . S
C675 H698 0.950 . S
C676 C675 1.349 . S
C676 C688 1.349 . S
C677 C675 1.327 . S
C677 C693 1.429 . S
C677 H699 0.950 . S
C678 H674 0.949 . S
C678 C686 1.574 . S
C678 C694 1.368 . S
H679 C687 0.950 . S
H680 C685 0.950 . S
H681 C686 0.949 . S
H682 C688 0.950 . S
H683 C689 0.950 . S
H684 C690 0.949 . S
C685 H680 0.950 . S
C685 C687 1.327 . S
C685 C691 1.429 . S
C686 C678 1.574 . S
C686 H681 0.949 . S
C686 C692 1.368 . S
C687 C671 1.349 . S
C687 H679 0.950 . S
C687 C685 1.327 . S
C688 C676 1.349 . S
C688 H682 0.950 . S
C688 C689 1.327 . S
C689 H683 0.950 . S
C689 C688 1.327 . S
C689 C693 1.429 . S
C690 C673 1.574 . S
C690 H684 0.949 . S
C690 C694 1.368 . S
C691 C672 1.429 . S
C691 C685 1.429 . S
C691 C692 1.523 . S
C692 C673 1.368 . S
C692 C686 1.368 . S
C692 C691 1.523 . S
C693 C677 1.429 . S
C693 C689 1.429 . S
C693 C694 1.523 . S
C694 C678 1.368 . S
C694 C690 1.368 . S
C694 C693 1.523 . S
H695 C670 0.950 . S
H696 C672 0.950 . S
H697 C673 0.949 . S
H698 C675 0.950 . S
H699 C677 0.950 . S
C700 C701 1.349 . S
C700 C702 1.327 . S
C700 H725 0.950 . S
C701 C700 1.349 . S
C701 C717 1.349 . S
C702 C700 1.327 . S
C702 C721 1.429 . S
C702 H726 0.950 . S
C703 C720 1.574 . S
C703 C722 1.368 . S
C703 H727 0.949 . S
H704 C708 0.949 . S
C705 C706 1.349 . S
C705 C707 1.327 . S
C705 H728 0.950 . S
C706 C705 1.349 . S
C706 C718 1.349 . S
C707 C705 1.327 . S
C707 C723 1.429 . S
C707 H729 0.950 . S
C708 H704 0.949 . S
C708 C716 1.574 . S
C708 C724 1.368 . S
H709 C717 0.950 . S
H710 C715 0.950 . S
H711 C716 0.949 . S
H712 C718 0.950 . S
H713 C719 0.950 . S
H714 C720 0.949 . S
C715 H710 0.950 . S
C715 C717 1.327 . S
C715 C721 1.429 . S
C716 C708 1.574 . S
C716 H711 0.949 . S
C716 C722 1.368 . S
C717 C701 1.349 . S
C717 H709 0.950 . S
C717 C715 1.327 . S
C718 C706 1.349 . S
C718 H712 0.950 . S
C718 C719 1.327 . S
C719 H713 0.950 . S
C719 C718 1.327 . S
C719 C723 1.429 . S
C720 C703 1.574 . S
C720 H714 0.949 . S
C720 C724 1.368 . S
C721 C702 1.429 . S
C721 C715 1.429 . S
C721 C722 1.523 . S
C722 C703 1.368 . S
C722 C716 1.368 . S
C722 C721 1.523 . S
C723 C707 1.429 . S
C723 C719 1.429 . S
C723 C724 1.523 . S
C724 C708 1.368 . S
C724 C720 1.368 . S
C724 C723 1.523 . S
H725 C700 0.950 . S
H726 C702 0.950 . S
H727 C703 0.949 . S
H728 C705 0.950 . S
H729 C707 0.950 . S
C730 C731 1.349 . S
C730 C732 1.327 . S
C730 H755 0.950 . S
C731 C730 1.349 . S
C731 C747 1.349 . S
C732 C730 1.327 . S
C732 C751 1.429 . S
C732 H756 0.950 . S
C733 C750 1.574 . S
C733 C752 1.368 . S
C733 H757 0.949 . S
H734 C738 0.949 . S
C735 C736 1.349 . S
C735 C737 1.327 . S
C735 H758 0.950 . S
C736 C735 1.349 . S
C736 C748 1.349 . S
C737 C735 1.327 . S
C737 C753 1.429 . S
C737 H759 0.950 . S
C738 H734 0.949 . S
C738 C746 1.574 . S
C738 C754 1.368 . S
H739 C747 0.950 . S
H740 C745 0.950 . S
H741 C746 0.949 . S
H742 C748 0.950 . S
H743 C749 0.950 . S
H744 C750 0.949 . S
C745 H740 0.950 . S
C745 C747 1.327 . S
C745 C751 1.429 . S
C746 C738 1.574 . S
C746 H741 0.949 . S
C746 C752 1.368 . S
C747 C731 1.349 . S
C747 H739 0.950 . S
C747 C745 1.327 . S
C748 C736 1.349 . S
C748 H742 0.950 . S
C748 C749 1.327 . S
C749 H743 0.950 . S
C749 C748 1.327 . S
C749 C753 1.429 . S
C750 C733 1.574 . S
C750 H744 0.949 . S
C750 C754 1.368 . S
C751 C732 1.429 . S
C751 C745 1.429 . S
C751 C752 1.523 . S
C752 C733 1.368 . S
C752 C746 1.368 . S
C752 C751 1.523 . S
C753 C737 1.429 . S
C753 C749 1.429 . S
C753 C754 1.523 . S
C754 C738 1.368 . S
C754 C750 1.368 . S
C754 C753 1.523 . S
H755 C730 0.950 . S
H756 C732 0.950 . S
H757 C733 0.949 . S
H758 C735 0.950 . S
H759 C737 0.950 . S
C760 C761 1.349 . S
C760 C762 1.327 . S
C760 H785 0.950 . S
C761 C760 1.349 . S
C761 C777 1.349 . S
C762 C760 1.327 . S
C762 C781 1.429 . S
C762 H786 0.950 . S
C763 C780 1.574 . S
C763 C782 1.368 . S
C763 H787 0.949 . S
H764 C768 0.949 . S
C765 C766 1.349 . S
C765 C767 1.327 . S
C765 H788 0.950 . S
C766 C765 1.349 . S
C766 C778 1.349 . S
C767 C765 1.327 . S
C767 C783 1.429 1_556 S
C767 H789 0.950 . S
C768 H764 0.949 . S
C768 C776 1.574 . S
C768 C784 1.368 . S
H769 C777 0.950 . S
H770 C775 0.950 . S
H771 C776 0.949 . S
H772 C778 0.950 . S
H773 C779 0.950 1_554 S
H774 C780 0.949 . S
C775 H770 0.950 . S
C775 C777 1.327 . S
C775 C781 1.429 . S
C776 C768 1.574 . S
C776 H771 0.949 . S
C776 C782 1.368 . S
C777 C761 1.349 . S
C777 H769 0.950 . S
C777 C775 1.327 . S
C778 C766 1.349 . S
C778 H772 0.950 . S
C778 C779 1.327 . S
C779 H773 0.950 1_556 S
C779 C778 1.327 . S
C779 C783 1.429 1_556 S
C780 C763 1.574 . S
C780 H774 0.949 . S
C780 C784 1.368 . S
C781 C762 1.429 . S
C781 C775 1.429 . S
C781 C782 1.523 . S
C782 C763 1.368 . S
C782 C776 1.368 . S
C782 C781 1.523 . S
C783 C767 1.429 1_554 S
C783 C779 1.429 1_554 S
C783 C784 1.523 . S
C784 C768 1.368 . S
C784 C780 1.368 . S
C784 C783 1.523 . S
H785 C760 0.950 . S
H786 C762 0.950 . S
H787 C763 0.949 . S
H788 C765 0.950 . S
H789 C767 0.950 . S
C790 C791 1.349 . S
C790 C792 1.327 . S
C790 H815 0.950 . S
C791 C790 1.349 . S
C791 C807 1.349 . S
C792 C790 1.327 . S
C792 C811 1.429 . S
C792 H816 0.950 . S
C793 C810 1.574 . S
C793 C812 1.368 . S
C793 H817 0.949 . S
H794 C798 0.949 . S
C795 C796 1.349 1_556 S
C795 C797 1.327 . S
C795 H818 0.950 . S
C796 C795 1.349 1_554 S
C796 C808 1.349 . S
C797 C795 1.327 . S
C797 C813 1.429 . S
C797 H819 0.950 . S
C798 H794 0.949 . S
C798 C806 1.574 . S
C798 C814 1.368 . S
H799 C807 0.950 . S
H800 C805 0.950 . S
H801 C806 0.949 . S
H802 C808 0.950 . S
H803 C809 0.950 . S
H804 C810 0.949 . S
C805 H800 0.950 . S
C805 C807 1.327 . S
C805 C811 1.429 . S
C806 C798 1.574 . S
C806 H801 0.949 . S
C806 C812 1.368 . S
C807 C791 1.349 . S
C807 H799 0.950 . S
C807 C805 1.327 . S
C808 C796 1.349 . S
C808 H802 0.950 . S
C808 C809 1.327 1_554 S
C809 H803 0.950 . S
C809 C808 1.327 1_556 S
C809 C813 1.429 . S
C810 C793 1.574 . S
C810 H804 0.949 . S
C810 C814 1.368 . S
C811 C792 1.429 . S
C811 C805 1.429 . S
C811 C812 1.523 . S
C812 C793 1.368 . S
C812 C806 1.368 . S
C812 C811 1.523 . S
C813 C797 1.429 . S
C813 C809 1.429 . S
C813 C814 1.523 . S
C814 C798 1.368 . S
C814 C810 1.368 . S
C814 C813 1.523 . S
H815 C790 0.950 . S
H816 C792 0.950 . S
H817 C793 0.949 . S
H818 C795 0.950 . S
H819 C797 0.950 . S
C820 C821 1.349 . S
C820 C822 1.327 . S
C820 H845 0.950 . S
C821 C820 1.349 . S
C821 C837 1.349 . S
C822 C820 1.327 . S
C822 C841 1.429 . S
C822 H846 0.950 . S
C823 C840 1.574 . S
C823 C842 1.368 . S
C823 H847 0.949 . S
H824 C828 0.949 . S
C825 C826 1.349 . S
C825 C827 1.327 . S
C825 H848 0.950 . S
C826 C825 1.349 . S
C826 C838 1.349 . S
C827 C825 1.327 . S
C827 C843 1.429 . S
C827 H849 0.950 . S
C828 H824 0.949 . S
C828 C836 1.574 . S
C828 C844 1.368 . S
H829 C837 0.950 . S
H830 C835 0.950 . S
H831 C836 0.949 . S
H832 C838 0.950 . S
H833 C839 0.950 . S
H834 C840 0.949 . S
C835 H830 0.950 . S
C835 C837 1.327 . S
C835 C841 1.429 . S
C836 C828 1.574 . S
C836 H831 0.949 . S
C836 C842 1.368 . S
C837 C821 1.349 . S
C837 H829 0.950 . S
C837 C835 1.327 . S
C838 C826 1.349 . S
C838 H832 0.950 . S
C838 C839 1.327 . S
C839 H833 0.950 . S
C839 C838 1.327 . S
C839 C843 1.429 . S
C840 C823 1.574 . S
C840 H834 0.949 . S
C840 C844 1.368 . S
C841 C822 1.429 . S
C841 C835 1.429 . S
C841 C842 1.523 . S
C842 C823 1.368 . S
C842 C836 1.368 . S
C842 C841 1.523 . S
C843 C827 1.429 . S
C843 C839 1.429 . S
C843 C844 1.523 . S
C844 C828 1.368 . S
C844 C840 1.368 . S
C844 C843 1.523 . S
H845 C820 0.950 . S
H846 C822 0.950 . S
H847 C823 0.949 . S
H848 C825 0.950 . S
H849 C827 0.950 . S
C850 C851 1.349 . S
C850 C852 1.327 . S
C850 H875 0.950 . S
C851 C850 1.349 . S
C851 C867 1.349 . S
C852 C850 1.327 . S
C852 C871 1.429 . S
C852 H876 0.950 . S
C853 C870 1.574 . S
C853 C872 1.368 . S
C853 H877 0.949 . S
H854 C858 0.949 . S
C855 C856 1.349 . S
C855 C857 1.327 . S
C855 H878 0.950 . S
C856 C855 1.349 . S
C856 C868 1.349 . S
C857 C855 1.327 . S
C857 C873 1.429 . S
C857 H879 0.950 . S
C858 H854 0.949 . S
C858 C866 1.574 . S
C858 C874 1.368 . S
H859 C867 0.950 . S
H860 C865 0.950 . S
H861 C866 0.949 . S
H862 C868 0.950 . S
H863 C869 0.950 . S
H864 C870 0.949 . S
C865 H860 0.950 . S
C865 C867 1.327 . S
C865 C871 1.429 . S
C866 C858 1.574 . S
C866 H861 0.949 . S
C866 C872 1.368 . S
C867 C851 1.349 . S
C867 H859 0.950 . S
C867 C865 1.327 . S
C868 C856 1.349 . S
C868 H862 0.950 . S
C868 C869 1.327 . S
C869 H863 0.950 . S
C869 C868 1.327 . S
C869 C873 1.429 . S
C870 C853 1.574 . S
C870 H864 0.949 . S
C870 C874 1.368 . S
C871 C852 1.429 . S
C871 C865 1.429 . S
C871 C872 1.523 . S
C872 C853 1.368 . S
C872 C866 1.368 . S
C872 C871 1.523 . S
C873 C857 1.429 . S
C873 C869 1.429 . S
C873 C874 1.523 . S
C874 C858 1.368 . S
C874 C870 1.368 . S
C874 C873 1.523 . S
H875 C850 0.950 . S
H876 C852 0.950 . S
H877 C853 0.949 . S
H878 C855 0.950 . S
H879 C857 0.950 . S
C880 C881 1.349 . S
C880 C882 1.327 . S
C880 H905 0.950 . S
C881 C880 1.349 . S
C881 C897 1.349 . S
C882 C880 1.327 . S
C882 C901 1.429 . S
C882 H906 0.950 . S
C883 C900 1.574 . S
C883 C902 1.368 . S
C883 H907 0.949 . S
H884 C888 0.949 . S
C885 C886 1.349 . S
C885 C887 1.327 . S
C885 H908 0.950 . S
C886 C885 1.349 . S
C886 C898 1.349 . S
C887 C885 1.327 . S
C887 C903 1.429 . S
C887 H909 0.950 . S
C888 H884 0.949 . S
C888 C896 1.574 . S
C888 C904 1.368 . S
H889 C897 0.950 . S
H890 C895 0.950 . S
H891 C896 0.949 . S
H892 C898 0.950 . S
H893 C899 0.950 . S
H894 C900 0.949 . S
C895 H890 0.950 . S
C895 C897 1.327 . S
C895 C901 1.429 . S
C896 C888 1.574 . S
C896 H891 0.949 . S
C896 C902 1.368 . S
C897 C881 1.349 . S
C897 H889 0.950 . S
C897 C895 1.327 . S
C898 C886 1.349 . S
C898 H892 0.950 . S
C898 C899 1.327 . S
C899 H893 0.950 . S
C899 C898 1.327 . S
C899 C903 1.429 . S
C900 C883 1.574 . S
C900 H894 0.949 . S
C900 C904 1.368 . S
C901 C882 1.429 . S
C901 C895 1.429 . S
C901 C902 1.523 . S
C902 C883 1.368 . S
C902 C896 1.368 . S
C902 C901 1.523 . S
C903 C887 1.429 . S
C903 C899 1.429 . S
C903 C904 1.523 . S
C904 C888 1.368 . S
C904 C900 1.368 . S
C904 C903 1.523 . S
H905 C880 0.950 . S
H906 C882 0.950 . S
H907 C883 0.949 . S
H908 C885 0.950 . S
H909 C887 0.950 . S
C910 C911 1.349 . S
C910 C912 1.327 . S
C910 H935 0.950 . S
C911 C910 1.349 . S
C911 C927 1.349 . S
C912 C910 1.327 . S
C912 C931 1.429 . S
C912 H936 0.950 . S
C913 C930 1.574 . S
C913 C932 1.368 . S
C913 H937 0.949 . S
H914 C918 0.949 . S
C915 C916 1.349 . S
C915 C917 1.327 . S
C915 H938 0.950 . S
C916 C915 1.349 . S
C916 C928 1.349 . S
C917 C915 1.327 . S
C917 C933 1.429 . S
C917 H939 0.950 . S
C918 H914 0.949 . S
C918 C926 1.574 . S
C918 C934 1.368 . S
H919 C927 0.950 . S
H920 C925 0.950 . S
H921 C926 0.949 . S
H922 C928 0.950 . S
H923 C929 0.950 . S
H924 C930 0.949 . S
C925 H920 0.950 . S
C925 C927 1.327 . S
C925 C931 1.429 . S
C926 C918 1.574 . S
C926 H921 0.949 . S
C926 C932 1.368 . S
C927 C911 1.349 . S
C927 H919 0.950 . S
C927 C925 1.327 . S
C928 C916 1.349 . S
C928 H922 0.950 . S
C928 C929 1.327 . S
C929 H923 0.950 . S
C929 C928 1.327 . S
C929 C933 1.429 . S
C930 C913 1.574 . S
C930 H924 0.949 . S
C930 C934 1.368 . S
C931 C912 1.429 . S
C931 C925 1.429 . S
C931 C932 1.523 . S
C932 C913 1.368 . S
C932 C926 1.368 . S
C932 C931 1.523 . S
C933 C917 1.429 . S
C933 C929 1.429 . S
C933 C934 1.523 . S
C934 C918 1.368 . S
C934 C930 1.368 . S
C934 C933 1.523 . S
H935 C910 0.950 . S
H936 C912 0.950 . S
H937 C913 0.949 . S
H938 C915 0.950 . S
H939 C917 0.950 . S
C940 C941 1.349 . S
C940 C942 1.327 . S
C940 H965 0.950 . S
C941 C940 1.349 . S
C941 C957 1.349 . S
C942 C940 1.327 . S
C942 C961 1.429 . S
C942 H966 0.947 1_554 S
C943 C960 1.574 . S
C943 C962 1.368 . S
C943 H967 0.949 . S
H944 C948 0.949 . S
C945 C946 1.349 . S
C945 C947 1.327 . S
C945 H968 0.950 . S
C946 C945 1.349 . S
C946 C958 1.349 . S
C947 C945 1.327 . S
C947 C963 1.429 . S
C947 H969 0.950 . S
C948 H944 0.949 . S
C948 C956 1.574 . S
C948 C964 1.368 . S
H949 C957 0.950 . S
H950 C955 0.950 . S
H951 C956 0.949 . S
H952 C958 0.950 . S
H953 C959 0.950 . S
H954 C960 0.949 . S
C955 H950 0.950 . S
C955 C957 1.327 . S
C955 C961 1.429 . S
C956 C948 1.574 . S
C956 H951 0.949 . S
C956 C962 1.368 . S
C957 C941 1.349 . S
C957 H949 0.950 . S
C957 C955 1.327 . S
C958 C946 1.349 . S
C958 H952 0.950 . S
C958 C959 1.327 . S
C959 H953 0.950 . S
C959 C958 1.327 . S
C959 C963 1.429 . S
C960 C943 1.574 . S
C960 H954 0.949 . S
C960 C964 1.368 . S
C961 C942 1.429 . S
C961 C955 1.429 . S
C961 C962 1.523 1_554 S
C962 C943 1.368 . S
C962 C956 1.368 . S
C962 C961 1.523 1_556 S
C963 C947 1.429 . S
C963 C959 1.429 . S
C963 C964 1.523 . S
C964 C948 1.368 . S
C964 C960 1.368 . S
C964 C963 1.523 . S
H965 C940 0.950 . S
H966 C942 0.947 1_556 S
H967 C943 0.949 . S
H968 C945 0.950 . S
H969 C947 0.950 . S
C970 C971 1.349 . S
C970 C972 1.327 . S
C970 H995 0.950 . S
C971 C970 1.349 . S
C971 C987 1.349 . S
C972 C970 1.327 . S
C972 C991 1.429 . S
C972 H996 0.950 . S
C973 C990 1.574 . S
C973 C992 1.368 . S
C973 H997 0.949 . S
H974 C978 0.949 . S
C975 C976 1.349 . S
C975 C977 1.327 . S
C975 H998 0.950 . S
C976 C975 1.349 . S
C976 C988 1.349 . S
C977 C975 1.327 . S
C977 C993 1.429 . S
C977 H999 0.950 . S
C978 H974 0.949 . S
C978 C986 1.574 . S
C978 C994 1.368 . S
H979 C987 0.950 . S
H980 C985 0.950 . S
H981 C986 0.949 . S
H982 C988 0.950 . S
H983 C989 0.950 . S
H984 C990 0.949 . S
C985 H980 0.950 . S
C985 C987 1.327 . S
C985 C991 1.429 . S
C986 C978 1.574 . S
C986 H981 0.949 . S
C986 C992 1.368 . S
C987 C971 1.349 . S
C987 H979 0.950 . S
C987 C985 1.327 . S
C988 C976 1.349 . S
C988 H982 0.950 . S
C988 C989 1.327 . S
C989 H983 0.950 . S
C989 C988 1.327 . S
C989 C993 1.429 . S
C990 C973 1.574 . S
C990 H984 0.949 . S
C990 C994 1.368 . S
C991 C972 1.429 . S
C991 C985 1.429 . S
C991 C992 1.523 . S
C992 C973 1.368 . S
C992 C986 1.368 . S
C992 C991 1.523 . S
C993 C977 1.429 . S
C993 C989 1.429 . S
C993 C994 1.523 . S
C994 C978 1.368 . S
C994 C990 1.368 . S
C994 C993 1.523 . S
H995 C970 0.950 . S
H996 C972 0.950 . S
H997 C973 0.949 . S
H998 C975 0.950 . S
H999 C977 0.950 . S
C1000 C1001 1.349 . S
C1000 C1002 1.327 . S
C1000 H1025 0.950 . S
C1001 C1000 1.349 . S
C1001 C1017 1.349 . S
C1002 C1000 1.327 . S
C1002 C1021 1.429 . S
C1002 H1026 0.950 . S
C1003 C1020 1.574 . S
C1003 C1022 1.368 . S
C1003 H1027 0.949 . S
H1004 C1008 0.949 . S
C1005 C1006 1.349 . S
C1005 C1007 1.327 . S
C1005 H1028 0.950 . S
C1006 C1005 1.349 . S
C1006 C1018 1.349 . S
C1007 C1005 1.327 . S
C1007 C1023 1.429 . S
C1007 H1029 0.950 . S
C1008 H1004 0.949 . S
C1008 C1016 1.574 . S
C1008 C1024 1.368 . S
H1009 C1017 0.950 . S
H1010 C1015 0.950 . S
H1011 C1016 0.949 . S
H1012 C1018 0.950 . S
H1013 C1019 0.950 . S
H1014 C1020 0.949 . S
C1015 H1010 0.950 . S
C1015 C1017 1.327 . S
C1015 C1021 1.429 . S
C1016 C1008 1.574 . S
C1016 H1011 0.949 . S
C1016 C1022 1.368 . S
C1017 C1001 1.349 . S
C1017 H1009 0.950 . S
C1017 C1015 1.327 . S
C1018 C1006 1.349 . S
C1018 H1012 0.950 . S
C1018 C1019 1.327 . S
C1019 H1013 0.950 . S
C1019 C1018 1.327 . S
C1019 C1023 1.429 . S
C1020 C1003 1.574 . S
C1020 H1014 0.949 . S
C1020 C1024 1.368 . S
C1021 C1002 1.429 . S
C1021 C1015 1.429 . S
C1021 C1022 1.523 . S
C1022 C1003 1.368 . S
C1022 C1016 1.368 . S
C1022 C1021 1.523 . S
C1023 C1007 1.429 . S
C1023 C1019 1.429 . S
C1023 C1024 1.523 . S
C1024 C1008 1.368 . S
C1024 C1020 1.368 . S
C1024 C1023 1.523 . S
H1025 C1000 0.950 . S
H1026 C1002 0.950 . S
H1027 C1003 0.949 . S
H1028 C1005 0.950 . S
H1029 C1007 0.950 . S
C1030 C1031 1.349 . S
C1030 C1032 1.327 . S
C1030 H1055 0.950 . S
C1031 C1030 1.349 . S
C1031 C1047 1.349 . S
C1032 C1030 1.327 . S
C1032 C1051 1.429 . S
C1032 H1056 0.950 . S
C1033 C1050 1.574 . S
C1033 C1052 1.368 . S
C1033 H1057 0.949 . S
H1034 C1038 0.949 . S
C1035 C1036 1.349 . S
C1035 C1037 1.327 . S
C1035 H1058 0.950 . S
C1036 C1035 1.349 . S
C1036 C1048 1.349 . S
C1037 C1035 1.327 . S
C1037 C1053 1.429 . S
C1037 H1059 0.950 . S
C1038 H1034 0.949 . S
C1038 C1046 1.574 . S
C1038 C1054 1.368 . S
H1039 C1047 0.950 . S
H1040 C1045 0.950 . S
H1041 C1046 0.949 . S
H1042 C1048 0.950 . S
H1043 C1049 0.950 . S
H1044 C1050 0.949 . S
C1045 H1040 0.950 . S
C1045 C1047 1.327 . S
C1045 C1051 1.429 . S
C1046 C1038 1.574 . S
C1046 H1041 0.949 . S
C1046 C1052 1.368 . S
C1047 C1031 1.349 . S
C1047 H1039 0.950 . S
C1047 C1045 1.327 . S
C1048 C1036 1.349 . S
C1048 H1042 0.950 . S
C1048 C1049 1.327 . S
C1049 H1043 0.950 . S
C1049 C1048 1.327 . S
C1049 C1053 1.429 . S
C1050 C1033 1.574 . S
C1050 H1044 0.949 . S
C1050 C1054 1.368 . S
C1051 C1032 1.429 . S
C1051 C1045 1.429 . S
C1051 C1052 1.523 . S
C1052 C1033 1.368 . S
C1052 C1046 1.368 . S
C1052 C1051 1.523 . S
C1053 C1037 1.429 . S
C1053 C1049 1.429 . S
C1053 C1054 1.523 . S
C1054 C1038 1.368 . S
C1054 C1050 1.368 . S
C1054 C1053 1.523 . S
H1055 C1030 0.950 . S
H1056 C1032 0.950 . S
H1057 C1033 0.949 . S
H1058 C1035 0.950 . S
H1059 C1037 0.950 . S
C1060 C1061 1.349 . S
C1060 C1062 1.327 . S
C1060 H1085 0.950 . S
C1061 C1060 1.349 . S
C1061 C1077 1.349 . S
C1062 C1060 1.327 . S
C1062 C1081 1.429 . S
C1062 H1086 0.950 . S
C1063 C1080 1.574 . S
C1063 C1082 1.368 . S
C1063 H1087 0.949 . S
H1064 C1068 0.949 . S
C1065 C1066 1.349 . S
C1065 C1067 1.327 . S
C1065 H1088 0.950 . S
C1066 C1065 1.349 . S
C1066 C1078 1.349 . S
C1067 C1065 1.327 . S
C1067 C1083 1.429 1_556 S
C1067 H1089 0.950 . S
C1068 H1064 0.949 . S
C1068 C1076 1.574 . S
C1068 C1084 1.368 . S
H1069 C1077 0.950 . S
H1070 C1075 0.950 . S
H1071 C1076 0.949 . S
H1072 C1078 0.950 . S
H1073 C1079 0.950 . S
H1074 C1080 0.949 . S
C1075 H1070 0.950 . S
C1075 C1077 1.327 . S
C1075 C1081 1.429 . S
C1076 C1068 1.574 . S
C1076 H1071 0.949 . S
C1076 C1082 1.368 . S
C1077 C1061 1.349 . S
C1077 H1069 0.950 . S
C1077 C1075 1.327 . S
C1078 C1066 1.349 . S
C1078 H1072 0.950 . S
C1078 C1079 1.327 1_556 S
C1079 H1073 0.950 . S
C1079 C1078 1.327 1_554 S
C1079 C1083 1.429 . S
C1080 C1063 1.574 . S
C1080 H1074 0.949 . S
C1080 C1084 1.368 . S
C1081 C1062 1.429 . S
C1081 C1075 1.429 . S
C1081 C1082 1.523 . S
C1082 C1063 1.368 . S
C1082 C1076 1.368 . S
C1082 C1081 1.523 . S
C1083 C1067 1.429 1_554 S
C1083 C1079 1.429 . S
C1083 C1084 1.523 . S
C1084 C1068 1.368 . S
C1084 C1080 1.368 . S
C1084 C1083 1.523 . S
H1085 C1060 0.950 . S
H1086 C1062 0.950 . S
H1087 C1063 0.949 . S
H1088 C1065 0.950 . S
H1089 C1067 0.950 . S
C1090 C1091 1.349 . S
C1090 C1092 1.327 . S
C1090 H1115 0.950 . S
C1091 C1090 1.349 . S
C1091 C1107 1.349 . S
C1092 C1090 1.327 . S
C1092 C1111 1.429 . S
C1092 H1116 0.950 . S
C1093 C1110 1.574 . S
C1093 C1112 1.368 . S
C1093 H1117 0.949 . S
H1094 C1098 0.949 . S
C1095 C1096 1.349 . S
C1095 C1097 1.327 . S
C1095 H1118 0.950 . S
C1096 C1095 1.349 . S
C1096 C1108 1.349 . S
C1097 C1095 1.327 . S
C1097 C1113 1.429 . S
C1097 H1119 0.950 . S
C1098 H1094 0.949 . S
C1098 C1106 1.574 . S
C1098 C1114 1.368 . S
H1099 C1107 0.950 . S
H1100 C1105 0.950 . S
H1101 C1106 0.949 . S
H1102 C1108 0.950 . S
H1103 C1109 0.950 . S
H1104 C1110 0.949 . S
C1105 H1100 0.950 . S
C1105 C1107 1.327 . S
C1105 C1111 1.429 . S
C1106 C1098 1.574 . S
C1106 H1101 0.949 . S
C1106 C1112 1.368 . S
C1107 C1091 1.349 . S
C1107 H1099 0.950 . S
C1107 C1105 1.327 . S
C1108 C1096 1.349 . S
C1108 H1102 0.950 . S
C1108 C1109 1.327 . S
C1109 H1103 0.950 . S
C1109 C1108 1.327 . S
C1109 C1113 1.429 . S
C1110 C1093 1.574 . S
C1110 H1104 0.949 . S
C1110 C1114 1.368 . S
C1111 C1092 1.429 . S
C1111 C1105 1.429 . S
C1111 C1112 1.523 . S
C1112 C1093 1.368 . S
C1112 C1106 1.368 . S
C1112 C1111 1.523 . S
C1113 C1097 1.429 . S
C1113 C1109 1.429 . S
C1113 C1114 1.523 . S
C1114 C1098 1.368 . S
C1114 C1110 1.368 . S
C1114 C1113 1.523 . S
H1115 C1090 0.950 . S
H1116 C1092 0.950 . S
H1117 C1093 0.949 . S
H1118 C1095 0.950 . S
H1119 C1097 0.950 . S
C1120 C1121 1.349 1_655 S
C1120 C1122 1.327 . S
C1120 H1145 0.950 . S
C1121 C1120 1.349 1_455 S
C1121 C1137 1.349 . S
C1122 C1120 1.327 . S
C1122 C1141 1.429 1_655 S
C1122 H1146 0.950 . S
C1123 C1140 1.574 . S
C1123 C1142 1.368 . S
C1123 H1147 0.949 . S
H1124 C1128 0.949 . S
C1125 C1126 1.349 . S
C1125 C1127 1.327 . S
C1125 H1148 0.950 . S
C1126 C1125 1.349 . S
C1126 C1138 1.349 1_455 S
C1127 C1125 1.327 . S
C1127 C1143 1.429 . S
C1127 H1149 0.950 . S
C1128 H1124 0.949 . S
C1128 C1136 1.574 . S
C1128 C1144 1.368 1_655 S
H1129 C1137 0.950 . S
H1130 C1135 0.950 . S
H1131 C1136 0.949 . S
H1132 C1138 0.950 . S
H1133 C1139 0.950 . S
H1134 C1140 0.949 . S
C1135 H1130 0.950 . S
C1135 C1137 1.327 . S
C1135 C1141 1.429 . S
C1136 C1128 1.574 . S
C1136 H1131 0.949 . S
C1136 C1142 1.368 1_655 S
C1137 C1121 1.349 . S
C1137 H1129 0.950 . S
C1137 C1135 1.327 . S
C1138 C1126 1.349 1_655 S
C1138 H1132 0.950 . S
C1138 C1139 1.327 . S
C1139 H1133 0.950 . S
C1139 C1138 1.327 . S
C1139 C1143 1.429 1_655 S
C1140 C1123 1.574 . S
C1140 H1134 0.949 . S
C1140 C1144 1.368 . S
C1141 C1122 1.429 1_455 S
C1141 C1135 1.429 . S
C1141 C1142 1.523 . S
C1142 C1123 1.368 . S
C1142 C1136 1.368 1_455 S
C1142 C1141 1.523 . S
C1143 C1127 1.429 . S
C1143 C1139 1.429 1_455 S
C1143 C1144 1.523 . S
C1144 C1128 1.368 1_455 S
C1144 C1140 1.368 . S
C1144 C1143 1.523 . S
H1145 C1120 0.950 . S
H1146 C1122 0.950 . S
H1147 C1123 0.949 . S
H1148 C1125 0.950 . S
H1149 C1127 0.950 . S
C1150 C1151 1.349 . S
C1150 C1152 1.327 . S
C1150 H1175 0.950 . S
C1151 C1150 1.349 . S
C1151 C1167 1.349 . S
C1152 C1150 1.327 . S
C1152 C1171 1.429 . S
C1152 H1176 0.950 . S
C1153 C1170 1.574 . S
C1153 C1172 1.368 1_455 S
C1153 H1177 0.949 1_455 S
H1154 C1158 0.949 . S
C1155 C1156 1.349 . S
C1155 C1157 1.327 . S
C1155 H1178 0.950 . S
C1156 C1155 1.349 . S
C1156 C1168 1.349 . S
C1157 C1155 1.327 . S
C1157 C1173 1.429 . S
C1157 H1179 0.950 . S
C1158 H1154 0.949 . S
C1158 C1166 1.574 . S
C1158 C1174 1.368 . S
H1159 C1167 0.950 . S
H1160 C1165 0.950 . S
H1161 C1166 0.949 1_655 S
H1162 C1168 0.950 . S
H1163 C1169 0.950 . S
H1164 C1170 0.949 . S
C1165 H1160 0.950 . S
C1165 C1167 1.327 . S
C1165 C1171 1.429 . S
C1166 C1158 1.574 . S
C1166 H1161 0.949 1_455 S
C1166 C1172 1.368 1_455 S
C1167 C1151 1.349 . S
C1167 H1159 0.950 . S
C1167 C1165 1.327 . S
C1168 C1156 1.349 . S
C1168 H1162 0.950 . S
C1168 C1169 1.327 . S
C1169 H1163 0.950 . S
C1169 C1168 1.327 . S
C1169 C1173 1.429 . S
C1170 C1153 1.574 . S
C1170 H1164 0.949 . S
C1170 C1174 1.368 . S
C1171 C1152 1.429 . S
C1171 C1165 1.429 . S
C1171 C1172 1.523 . S
C1172 C1153 1.368 1_655 S
C1172 C1166 1.368 1_655 S
C1172 C1171 1.523 . S
C1173 C1157 1.429 . S
C1173 C1169 1.429 . S
C1173 C1174 1.523 . S
C1174 C1158 1.368 . S
C1174 C1170 1.368 . S
C1174 C1173 1.523 . S
H1175 C1150 0.950 . S
H1176 C1152 0.950 . S
H1177 C1153 0.949 1_655 S
H1178 C1155 0.950 . S
H1179 C1157 0.950 . S
C1180 C1181 1.349 . S
C1180 C1182 1.327 . S
C1180 H1205 0.950 . S
C1181 C1180 1.349 . S
C1181 C1197 1.349 . S
C1182 C1180 1.327 . S
C1182 C1201 1.429 . S
C1182 H1206 0.950 . S
C1183 C1200 1.574 . S
C1183 C1202 1.368 . S
C1183 H1207 0.949 . S
H1184 C1188 0.949 . S
C1185 C1186 1.349 . S
C1185 C1187 1.327 . S
C1185 H1208 0.950 . S
C1186 C1185 1.349 . S
C1186 C1198 1.349 . S
C1187 C1185 1.327 . S
C1187 C1203 1.429 . S
C1187 H1209 0.950 . S
C1188 H1184 0.949 . S
C1188 C1196 1.574 . S
C1188 C1204 1.368 . S
H1189 C1197 0.950 . S
H1190 C1195 0.950 . S
H1191 C1196 0.949 . S
H1192 C1198 0.950 . S
H1193 C1199 0.950 . S
H1194 C1200 0.949 . S
C1195 H1190 0.950 . S
C1195 C1197 1.327 . S
C1195 C1201 1.429 . S
C1196 C1188 1.574 . S
C1196 H1191 0.949 . S
C1196 C1202 1.368 . S
C1197 C1181 1.349 . S
C1197 H1189 0.950 . S
C1197 C1195 1.327 . S
C1198 C1186 1.349 . S
C1198 H1192 0.950 . S
C1198 C1199 1.327 . S
C1199 H1193 0.950 . S
C1199 C1198 1.327 . S
C1199 C1203 1.429 . S
C1200 C1183 1.574 . S
C1200 H1194 0.949 . S
C1200 C1204 1.368 . S
C1201 C1182 1.429 . S
C1201 C1195 1.429 . S
C1201 C1202 1.523 . S
C1202 C1183 1.368 . S
C1202 C1196 1.368 . S
C1202 C1201 1.523 . S
C1203 C1187 1.429 . S
C1203 C1199 1.429 . S
C1203 C1204 1.523 . S
C1204 C1188 1.368 . S
C1204 C1200 1.368 . S
C1204 C1203 1.523 . S
H1205 C1180 0.950 . S
H1206 C1182 0.950 . S
H1207 C1183 0.949 . S
H1208 C1185 0.950 . S
H1209 C1187 0.950 . S
C1210 C1211 1.349 . S
C1210 C1212 1.327 . S
C1210 H1235 0.950 . S
C1211 C1210 1.349 . S
C1211 C1227 1.349 . S
C1212 C1210 1.327 . S
C1212 C1231 1.429 . S
C1212 H1236 0.950 . S
C1213 C1230 1.574 . S
C1213 C1232 1.368 . S
C1213 H1237 0.949 . S
H1214 C1218 0.949 . S
C1215 C1216 1.349 . S
C1215 C1217 1.327 . S
C1215 H1238 0.950 . S
C1216 C1215 1.349 . S
C1216 C1228 1.349 . S
C1217 C1215 1.327 . S
C1217 C1233 1.429 . S
C1217 H1239 0.950 . S
C1218 H1214 0.949 . S
C1218 C1226 1.574 . S
C1218 C1234 1.368 . S
H1219 C1227 0.950 . S
H1220 C1225 0.950 . S
H1221 C1226 0.949 . S
H1222 C1228 0.950 . S
H1223 C1229 0.950 . S
H1224 C1230 0.949 . S
C1225 H1220 0.950 . S
C1225 C1227 1.327 . S
C1225 C1231 1.429 . S
C1226 C1218 1.574 . S
C1226 H1221 0.949 . S
C1226 C1232 1.368 . S
C1227 C1211 1.349 . S
C1227 H1219 0.950 . S
C1227 C1225 1.327 . S
C1228 C1216 1.349 . S
C1228 H1222 0.950 . S
C1228 C1229 1.327 . S
C1229 H1223 0.950 . S
C1229 C1228 1.327 . S
C1229 C1233 1.429 . S
C1230 C1213 1.574 . S
C1230 H1224 0.949 . S
C1230 C1234 1.368 . S
C1231 C1212 1.429 . S
C1231 C1225 1.429 . S
C1231 C1232 1.523 . S
C1232 C1213 1.368 . S
C1232 C1226 1.368 . S
C1232 C1231 1.523 . S
C1233 C1217 1.429 . S
C1233 C1229 1.429 . S
C1233 C1234 1.523 . S
C1234 C1218 1.368 . S
C1234 C1230 1.368 . S
C1234 C1233 1.523 . S
H1235 C1210 0.950 . S
H1236 C1212 0.950 . S
H1237 C1213 0.949 . S
H1238 C1215 0.950 . S
H1239 C1217 0.950 . S
C1240 C1241 1.349 . S
C1240 C1242 1.327 . S
C1240 H1265 0.950 . S
C1241 C1240 1.349 . S
C1241 C1257 1.372 . S
C1242 C1240 1.327 . S
C1242 C1261 1.429 . S
C1242 H1266 0.950 . S
C1243 C1260 1.574 . S
C1243 C1262 1.368 . S
C1243 H1267 0.949 1_455 S
H1244 C1248 0.949 . S
C1245 C1246 1.349 . S
C1245 C1247 1.327 . S
C1245 H1268 0.950 . S
C1246 C1245 1.349 . S
C1246 C1258 1.349 . S
C1247 C1245 1.327 . S
C1247 C1263 1.429 . S
C1247 H1269 0.950 . S
C1248 H1244 0.949 . S
C1248 C1256 1.574 . S
C1248 C1264 1.368 . S
H1249 C1257 0.923 1_655 S
H1250 C1255 0.950 1_655 S
H1251 C1256 0.949 . S
H1252 C1258 0.950 . S
H1253 C1259 0.950 . S
H1254 C1260 0.936 1_655 S
C1255 H1250 0.950 1_455 S
C1255 C1257 1.333 . S
C1255 C1261 1.429 . S
C1256 C1248 1.574 . S
C1256 H1251 0.949 . S
C1256 C1262 1.368 . S
C1257 C1241 1.372 . S
C1257 H1249 0.923 1_455 S
C1257 C1255 1.333 . S
C1258 C1246 1.349 . S
C1258 H1252 0.950 . S
C1258 C1259 1.327 . S
C1259 H1253 0.950 . S
C1259 C1258 1.327 . S
C1259 C1263 1.429 . S
C1260 C1243 1.574 . S
C1260 H1254 0.936 1_455 S
C1260 C1264 1.368 . S
C1261 C1242 1.429 . S
C1261 C1255 1.429 . S
C1261 C1262 1.523 . S
C1262 C1243 1.368 . S
C1262 C1256 1.368 . S
C1262 C1261 1.523 . S
C1263 C1247 1.429 . S
C1263 C1259 1.429 . S
C1263 C1264 1.523 . S
C1264 C1248 1.368 . S
C1264 C1260 1.368 . S
C1264 C1263 1.523 . S
H1265 C1240 0.950 . S
H1266 C1242 0.950 . S
H1267 C1243 0.949 1_655 S
H1268 C1245 0.950 . S
H1269 C1247 0.950 . S
C1270 C1271 1.349 . S
C1270 C1272 1.327 . S
C1270 H1295 0.950 . S
C1271 C1270 1.349 . S
C1271 C1287 1.349 . S
C1272 C1270 1.327 . S
C1272 C1291 1.429 . S
C1272 H1296 0.950 . S
C1273 C1290 1.574 . S
C1273 C1292 1.368 . S
C1273 H1297 0.949 . S
H1274 C1278 0.949 . S
C1275 C1276 1.349 . S
C1275 C1277 1.327 . S
C1275 H1298 0.950 . S
C1276 C1275 1.349 . S
C1276 C1288 1.349 . S
C1277 C1275 1.327 . S
C1277 C1293 1.429 . S
C1277 H1299 0.950 . S
C1278 H1274 0.949 . S
C1278 C1286 1.574 . S
C1278 C1294 1.368 . S
H1279 C1287 0.950 . S
H1280 C1285 0.950 . S
H1281 C1286 0.949 . S
H1282 C1288 0.950 . S
H1283 C1289 0.950 . S
H1284 C1290 0.949 . S
C1285 H1280 0.950 . S
C1285 C1287 1.327 . S
C1285 C1291 1.429 . S
C1286 C1278 1.574 . S
C1286 H1281 0.949 . S
C1286 C1292 1.368 . S
C1287 C1271 1.349 . S
C1287 H1279 0.950 . S
C1287 C1285 1.327 . S
C1288 C1276 1.349 . S
C1288 H1282 0.950 . S
C1288 C1289 1.327 . S
C1289 H1283 0.950 . S
C1289 C1288 1.327 . S
C1289 C1293 1.429 . S
C1290 C1273 1.574 . S
C1290 H1284 0.949 . S
C1290 C1294 1.368 . S
C1291 C1272 1.429 . S
C1291 C1285 1.429 . S
C1291 C1292 1.523 . S
C1292 C1273 1.368 . S
C1292 C1286 1.368 . S
C1292 C1291 1.523 . S
C1293 C1277 1.429 . S
C1293 C1289 1.429 . S
C1293 C1294 1.523 . S
C1294 C1278 1.368 . S
C1294 C1290 1.368 . S
C1294 C1293 1.523 . S
H1295 C1270 0.950 . S
H1296 C1272 0.950 . S
H1297 C1273 0.949 . S
H1298 C1275 0.950 . S
H1299 C1277 0.950 . S
C1300 C1301 1.349 . S
C1300 C1302 1.327 . S
C1300 H1325 0.950 . S
C1301 C1300 1.349 . S
C1301 C1317 1.349 . S
C1302 C1300 1.327 . S
C1302 C1321 1.429 . S
C1302 H1326 0.950 . S
C1303 C1320 1.574 . S
C1303 C1322 1.368 . S
C1303 H1327 0.949 . S
H1304 C1308 0.949 . S
C1305 C1306 1.349 . S
C1305 C1307 1.327 . S
C1305 H1328 0.950 . S
C1306 C1305 1.349 . S
C1306 C1318 1.349 . S
C1307 C1305 1.327 . S
C1307 C1323 1.429 . S
C1307 H1329 0.950 . S
C1308 H1304 0.949 . S
C1308 C1316 1.574 . S
C1308 C1324 1.368 . S
H1309 C1317 0.950 . S
H1310 C1315 0.950 . S
H1311 C1316 0.949 . S
H1312 C1318 0.950 . S
H1313 C1319 0.950 . S
H1314 C1320 0.949 . S
C1315 H1310 0.950 . S
C1315 C1317 1.327 . S
C1315 C1321 1.429 . S
C1316 C1308 1.574 . S
C1316 H1311 0.949 . S
C1316 C1322 1.368 . S
C1317 C1301 1.349 . S
C1317 H1309 0.950 . S
C1317 C1315 1.327 . S
C1318 C1306 1.349 . S
C1318 H1312 0.950 . S
C1318 C1319 1.327 . S
C1319 H1313 0.950 . S
C1319 C1318 1.327 . S
C1319 C1323 1.429 . S
C1320 C1303 1.574 . S
C1320 H1314 0.949 . S
C1320 C1324 1.368 . S
C1321 C1302 1.429 . S
C1321 C1315 1.429 . S
C1321 C1322 1.523 . S
C1322 C1303 1.368 . S
C1322 C1316 1.368 . S
C1322 C1321 1.523 . S
C1323 C1307 1.429 . S
C1323 C1319 1.429 . S
C1323 C1324 1.523 . S
C1324 C1308 1.368 . S
C1324 C1320 1.368 . S
C1324 C1323 1.523 . S
H1325 C1300 0.950 . S
H1326 C1302 0.950 . S
H1327 C1303 0.949 . S
H1328 C1305 0.950 . S
H1329 C1307 0.950 . S
C1330 C1331 1.349 . S
C1330 C1332 1.327 . S
C1330 H1355 0.950 . S
C1331 C1330 1.349 . S
C1331 C1347 1.349 . S
C1332 C1330 1.327 . S
C1332 C1351 1.429 . S
C1332 H1356 0.950 . S
C1333 C1350 1.574 . S
C1333 C1352 1.368 . S
C1333 H1357 0.949 . S
H1334 C1338 0.949 . S
C1335 C1336 1.349 . S
C1335 C1337 1.327 . S
C1335 H1358 0.950 . S
C1336 C1335 1.349 . S
C1336 C1348 1.349 . S
C1337 C1335 1.327 . S
C1337 C1353 1.429 . S
C1337 H1359 0.950 . S
C1338 H1334 0.949 . S
C1338 C1346 1.574 1_655 S
C1338 C1354 1.368 . S
H1339 C1347 0.950 . S
H1340 C1345 0.950 . S
H1341 C1346 0.949 . S
H1342 C1348 0.950 . S
H1343 C1349 0.950 . S
H1344 C1350 0.949 . S
C1345 H1340 0.950 . S
C1345 C1347 1.327 . S
C1345 C1351 1.429 . S
C1346 C1338 1.574 1_455 S
C1346 H1341 0.949 . S
C1346 C1352 1.368 . S
C1347 C1331 1.349 . S
C1347 H1339 0.950 . S
C1347 C1345 1.327 . S
C1348 C1336 1.349 . S
C1348 H1342 0.950 . S
C1348 C1349 1.327 . S
C1349 H1343 0.950 . S
C1349 C1348 1.327 . S
C1349 C1353 1.429 . S
C1350 C1333 1.574 . S
C1350 H1344 0.949 . S
C1350 C1354 1.368 1_455 S
C1351 C1332 1.429 . S
C1351 C1345 1.429 . S
C1351 C1352 1.523 . S
C1352 C1333 1.368 . S
C1352 C1346 1.368 . S
C1352 C1351 1.523 . S
C1353 C1337 1.429 . S
C1353 C1349 1.429 . S
C1353 C1354 1.523 . S
C1354 C1338 1.368 . S
C1354 C1350 1.368 1_655 S
C1354 C1353 1.523 . S
H1355 C1330 0.950 . S
H1356 C1332 0.950 . S
H1357 C1333 0.949 . S
H1358 C1335 0.950 . S
H1359 C1337 0.950 . S
C1360 C1361 1.349 . S
C1360 C1362 1.327 . S
C1360 H1385 0.950 . S
C1361 C1360 1.349 . S
C1361 C1377 1.349 1_455 S
C1362 C1360 1.327 . S
C1362 C1381 1.429 . S
C1362 H1386 0.950 . S
C1363 C1380 1.574 1_554 S
C1363 C1382 1.368 1_665 S
C1363 H1387 0.949 . S
H1364 C1368 0.949 . S
C1365 C1366 1.349 1_655 S
C1365 C1367 1.327 . S
C1365 H1388 0.950 . S
C1366 C1365 1.349 1_455 S
C1366 C1378 1.349 . S
C1367 C1365 1.327 . S
C1367 C1383 1.429 1_655 S
C1367 H1389 0.950 . S
C1368 H1364 0.949 . S
C1368 C1376 1.570 . S
C1368 C1384 1.368 1_545 S
H1369 C1377 0.950 . S
H1370 C1375 0.950 . S
H1371 C1376 0.950 1_554 S
H1372 C1378 0.950 . S
H1373 C1379 0.950 . S
H1374 C1380 0.949 . S
C1375 H1370 0.950 . S
C1375 C1377 1.327 . S
C1375 C1381 1.429 1_655 S
C1376 C1368 1.570 . S
C1376 H1371 0.950 1_556 S
C1376 C1382 1.371 1_556 S
C1377 C1361 1.349 1_655 S
C1377 H1369 0.950 . S
C1377 C1375 1.327 . S
C1378 C1366 1.349 . S
C1378 H1372 0.950 . S
C1378 C1379 1.327 . S
C1379 H1373 0.950 . S
C1379 C1378 1.327 . S
C1379 C1383 1.429 . S
C1380 C1363 1.574 1_556 S
C1380 H1374 0.949 . S
C1380 C1384 1.368 1_655 S
C1381 C1362 1.429 . S
C1381 C1375 1.429 1_455 S
C1381 C1382 1.523 . S
C1382 C1363 1.368 1_445 S
C1382 C1376 1.371 1_554 S
C1382 C1381 1.523 . S
C1383 C1367 1.429 1_455 S
C1383 C1379 1.429 . S
C1383 C1384 1.523 . S
C1384 C1368 1.368 1_565 S
C1384 C1380 1.368 1_455 S
C1384 C1383 1.523 . S
H1385 C1360 0.950 . S
H1386 C1362 0.950 . S
H1387 C1363 0.949 . S
H1388 C1365 0.950 . S
H1389 C1367 0.950 . S
C1390 C1391 1.349 . S
C1390 C1392 1.327 . S
C1390 H1415 0.950 . S
C1391 C1390 1.349 . S
C1391 C1407 1.349 . S
C1392 C1390 1.327 . S
C1392 C1411 1.429 . S
C1392 H1416 0.950 . S
C1393 C1410 1.574 . S
C1393 C1412 1.368 . S
C1393 H1417 0.949 . S
H1394 C1398 0.949 . S
C1395 C1396 1.349 . S
C1395 C1397 1.327 . S
C1395 H1418 0.950 . S
C1396 C1395 1.349 . S
C1396 C1408 1.349 . S
C1397 C1395 1.327 . S
C1397 C1413 1.429 . S
C1397 H1419 0.950 . S
C1398 H1394 0.949 . S
C1398 C1406 1.574 . S
C1398 C1414 1.368 . S
H1399 C1407 0.950 . S
H1400 C1405 0.950 . S
H1401 C1406 0.949 . S
H1402 C1408 0.950 . S
H1403 C1409 0.950 . S
H1404 C1410 0.949 . S
C1405 H1400 0.950 . S
C1405 C1407 1.327 . S
C1405 C1411 1.429 . S
C1406 C1398 1.574 . S
C1406 H1401 0.949 . S
C1406 C1412 1.368 . S
C1407 C1391 1.349 . S
C1407 H1399 0.950 . S
C1407 C1405 1.327 . S
C1408 C1396 1.349 . S
C1408 H1402 0.950 . S
C1408 C1409 1.327 . S
C1409 H1403 0.950 . S
C1409 C1408 1.327 . S
C1409 C1413 1.429 . S
C1410 C1393 1.574 . S
C1410 H1404 0.949 . S
C1410 C1414 1.368 . S
C1411 C1392 1.429 . S
C1411 C1405 1.429 . S
C1411 C1412 1.523 . S
C1412 C1393 1.368 . S
C1412 C1406 1.368 . S
C1412 C1411 1.523 . S
C1413 C1397 1.429 . S
C1413 C1409 1.429 . S
C1413 C1414 1.523 . S
C1414 C1398 1.368 . S
C1414 C1410 1.368 . S
C1414 C1413 1.523 . S
H1415 C1390 0.950 . S
H1416 C1392 0.950 . S
H1417 C1393 0.949 . S
H1418 C1395 0.950 . S
H1419 C1397 0.950 . S
C1420 C1421 1.349 . S
C1420 C1422 1.327 . S
C1420 H1445 0.950 . S
C1421 C1420 1.349 . S
C1421 C1437 1.349 . S
C1422 C1420 1.327 . S
C1422 C1441 1.429 . S
C1422 H1446 0.950 . S
C1423 C1440 1.574 . S
C1423 C1442 1.368 . S
C1423 H1447 0.949 . S
H1424 C1428 0.949 . S
C1425 C1426 1.349 . S
C1425 C1427 1.327 . S
C1425 H1448 0.950 . S
C1426 C1425 1.349 . S
C1426 C1438 1.349 . S
C1427 C1425 1.327 . S
C1427 C1443 1.429 . S
C1427 H1449 0.950 . S
C1428 H1424 0.949 . S
C1428 C1436 1.574 . S
C1428 C1444 1.368 . S
H1429 C1437 0.950 . S
H1430 C1435 0.950 . S
H1431 C1436 0.949 . S
H1432 C1438 0.950 . S
H1433 C1439 0.950 . S
H1434 C1440 0.949 . S
C1435 H1430 0.950 . S
C1435 C1437 1.327 . S
C1435 C1441 1.429 . S
C1436 C1428 1.574 . S
C1436 H1431 0.949 . S
C1436 C1442 1.368 1_565 S
C1437 C1421 1.349 . S
C1437 H1429 0.950 . S
C1437 C1435 1.327 . S
C1438 C1426 1.349 . S
C1438 H1432 0.950 . S
C1438 C1439 1.327 . S
C1439 H1433 0.950 . S
C1439 C1438 1.327 . S
C1439 C1443 1.429 . S
C1440 C1423 1.574 . S
C1440 H1434 0.949 . S
C1440 C1444 1.368 1_545 S
C1441 C1422 1.429 . S
C1441 C1435 1.429 . S
C1441 C1442 1.523 . S
C1442 C1423 1.368 . S
C1442 C1436 1.368 1_545 S
C1442 C1441 1.523 . S
C1443 C1427 1.429 . S
C1443 C1439 1.429 . S
C1443 C1444 1.523 . S
C1444 C1428 1.368 . S
C1444 C1440 1.368 1_565 S
C1444 C1443 1.523 . S
H1445 C1420 0.950 . S
H1446 C1422 0.950 . S
H1447 C1423 0.949 . S
H1448 C1425 0.950 . S
H1449 C1427 0.950 . S
C1450 C1451 1.349 . S
C1450 C1452 1.327 . S
C1450 H1475 0.950 . S
C1451 C1450 1.349 . S
C1451 C1467 1.349 . S
C1452 C1450 1.327 . S
C1452 C1471 1.429 . S
C1452 H1476 0.950 . S
C1453 C1470 1.574 . S
C1453 C1472 1.368 . S
C1453 H1477 0.949 . S
H1454 C1458 0.949 . S
C1455 C1456 1.349 . S
C1455 C1457 1.327 . S
C1455 H1478 0.950 . S
C1456 C1455 1.349 . S
C1456 C1468 1.349 . S
C1457 C1455 1.327 . S
C1457 C1473 1.429 . S
C1457 H1479 0.950 . S
C1458 H1454 0.949 . S
C1458 C1466 1.574 . S
C1458 C1474 1.368 . S
H1459 C1467 0.950 . S
H1460 C1465 0.950 . S
H1461 C1466 0.949 . S
H1462 C1468 0.950 . S
H1463 C1469 0.950 . S
H1464 C1470 0.949 . S
C1465 H1460 0.950 . S
C1465 C1467 1.327 . S
C1465 C1471 1.429 . S
C1466 C1458 1.574 . S
C1466 H1461 0.949 . S
C1466 C1472 1.368 . S
C1467 C1451 1.349 . S
C1467 H1459 0.950 . S
C1467 C1465 1.327 . S
C1468 C1456 1.349 . S
C1468 H1462 0.950 . S
C1468 C1469 1.327 . S
C1469 H1463 0.950 . S
C1469 C1468 1.327 . S
C1469 C1473 1.429 . S
C1470 C1453 1.574 . S
C1470 H1464 0.949 . S
C1470 C1474 1.368 . S
C1471 C1452 1.429 . S
C1471 C1465 1.429 . S
C1471 C1472 1.523 . S
C1472 C1453 1.368 . S
C1472 C1466 1.368 . S
C1472 C1471 1.523 . S
C1473 C1457 1.429 . S
C1473 C1469 1.429 . S
C1473 C1474 1.523 . S
C1474 C1458 1.368 . S
C1474 C1470 1.368 . S
C1474 C1473 1.523 . S
H1475 C1450 0.950 . S
H1476 C1452 0.950 . S
H1477 C1453 0.949 . S
H1478 C1455 0.950 . S
H1479 C1457 0.950 . S
C1480 C1481 1.349 . S
C1480 C1482 1.327 . S
C1480 H1505 0.950 . S
C1481 C1480 1.349 . S
C1481 C1497 1.349 . S
C1482 C1480 1.327 . S
C1482 C1501 1.429 . S
C1482 H1506 0.950 . S
C1483 C1500 1.574 . S
C1483 C1502 1.368 . S
C1483 H1507 0.949 . S
H1484 C1488 0.949 . S
C1485 C1486 1.349 . S
C1485 C1487 1.327 . S
C1485 H1508 0.950 . S
C1486 C1485 1.349 . S
C1486 C1498 1.349 . S
C1487 C1485 1.327 . S
C1487 C1503 1.429 . S
C1487 H1509 0.950 . S
C1488 H1484 0.949 . S
C1488 C1496 1.574 . S
C1488 C1504 1.368 . S
H1489 C1497 0.950 . S
H1490 C1495 0.950 . S
H1491 C1496 0.949 . S
H1492 C1498 0.950 . S
H1493 C1499 0.950 . S
H1494 C1500 0.949 . S
C1495 H1490 0.950 . S
C1495 C1497 1.327 . S
C1495 C1501 1.429 . S
C1496 C1488 1.574 . S
C1496 H1491 0.949 . S
C1496 C1502 1.368 . S
C1497 C1481 1.349 . S
C1497 H1489 0.950 . S
C1497 C1495 1.327 . S
C1498 C1486 1.349 . S
C1498 H1492 0.950 . S
C1498 C1499 1.327 . S
C1499 H1493 0.950 . S
C1499 C1498 1.327 . S
C1499 C1503 1.429 . S
C1500 C1483 1.574 . S
C1500 H1494 0.949 . S
C1500 C1504 1.368 . S
C1501 C1482 1.429 . S
C1501 C1495 1.429 . S
C1501 C1502 1.523 . S
C1502 C1483 1.368 . S
C1502 C1496 1.368 . S
C1502 C1501 1.523 . S
C1503 C1487 1.429 . S
C1503 C1499 1.429 . S
C1503 C1504 1.523 . S
C1504 C1488 1.368 . S
C1504 C1500 1.368 . S
C1504 C1503 1.523 . S
H1505 C1480 0.950 . S
H1506 C1482 0.950 . S
H1507 C1483 0.949 . S
H1508 C1485 0.950 . S
H1509 C1487 0.950 . S
C1510 C1511 1.349 . S
C1510 C1512 1.327 . S
C1510 H1535 0.950 . S
C1511 C1510 1.349 . S
C1511 C1527 1.349 . S
C1512 C1510 1.327 . S
C1512 C1531 1.429 . S
C1512 H1536 0.950 . S
C1513 C1530 1.574 . S
C1513 C1532 1.368 . S
C1513 H1537 0.949 . S
H1514 C1518 0.949 . S
C1515 C1516 1.349 . S
C1515 C1517 1.327 . S
C1515 H1538 0.950 . S
C1516 C1515 1.349 . S
C1516 C1528 1.349 . S
C1517 C1515 1.327 . S
C1517 C1533 1.429 . S
C1517 H1539 0.950 . S
C1518 H1514 0.949 . S
C1518 C1526 1.574 . S
C1518 C1534 1.368 . S
H1519 C1527 0.950 . S
H1520 C1525 0.950 . S
H1521 C1526 0.949 . S
H1522 C1528 0.950 . S
H1523 C1529 0.950 . S
H1524 C1530 0.949 . S
C1525 H1520 0.950 . S
C1525 C1527 1.327 . S
C1525 C1531 1.429 . S
C1526 C1518 1.574 . S
C1526 H1521 0.949 . S
C1526 C1532 1.368 . S
C1527 C1511 1.349 . S
C1527 H1519 0.950 . S
C1527 C1525 1.327 . S
C1528 C1516 1.349 . S
C1528 H1522 0.950 . S
C1528 C1529 1.327 . S
C1529 H1523 0.950 . S
C1529 C1528 1.327 . S
C1529 C1533 1.429 . S
C1530 C1513 1.574 . S
C1530 H1524 0.949 . S
C1530 C1534 1.368 . S
C1531 C1512 1.429 . S
C1531 C1525 1.429 . S
C1531 C1532 1.523 . S
C1532 C1513 1.368 . S
C1532 C1526 1.368 . S
C1532 C1531 1.523 . S
C1533 C1517 1.429 . S
C1533 C1529 1.429 . S
C1533 C1534 1.523 . S
C1534 C1518 1.368 . S
C1534 C1530 1.368 . S
C1534 C1533 1.523 . S
H1535 C1510 0.950 . S
H1536 C1512 0.950 . S
H1537 C1513 0.949 . S
H1538 C1515 0.950 . S
H1539 C1517 0.950 . S
C1540 C1541 1.349 . S
C1540 C1542 1.327 . S
C1540 H1565 0.950 . S
C1541 C1540 1.349 . S
C1541 C1557 1.349 . S
C1542 C1540 1.327 . S
C1542 C1561 1.429 . S
C1542 H1566 0.950 . S
C1543 C1560 1.574 . S
C1543 C1562 1.368 . S
C1543 H1567 0.949 . S
H1544 C1548 0.949 . S
C1545 C1546 1.349 . S
C1545 C1547 1.327 . S
C1545 H1568 0.950 . S
C1546 C1545 1.349 . S
C1546 C1558 1.349 . S
C1547 C1545 1.327 . S
C1547 C1563 1.429 . S
C1547 H1569 0.950 . S
C1548 H1544 0.949 . S
C1548 C1556 1.574 . S
C1548 C1564 1.368 . S
H1549 C1557 0.950 . S
H1550 C1555 0.950 . S
H1551 C1556 0.949 . S
H1552 C1558 0.950 . S
H1553 C1559 0.950 . S
H1554 C1560 0.949 . S
C1555 H1550 0.950 . S
C1555 C1557 1.327 . S
C1555 C1561 1.429 . S
C1556 C1548 1.574 . S
C1556 H1551 0.949 . S
C1556 C1562 1.368 . S
C1557 C1541 1.349 . S
C1557 H1549 0.950 . S
C1557 C1555 1.327 . S
C1558 C1546 1.349 . S
C1558 H1552 0.950 . S
C1558 C1559 1.327 . S
C1559 H1553 0.950 . S
C1559 C1558 1.327 . S
C1559 C1563 1.429 . S
C1560 C1543 1.574 . S
C1560 H1554 0.949 . S
C1560 C1564 1.368 . S
C1561 C1542 1.429 . S
C1561 C1555 1.429 . S
C1561 C1562 1.523 . S
C1562 C1543 1.368 . S
C1562 C1556 1.368 . S
C1562 C1561 1.523 . S
C1563 C1547 1.429 . S
C1563 C1559 1.429 . S
C1563 C1564 1.523 . S
C1564 C1548 1.368 . S
C1564 C1560 1.368 . S
C1564 C1563 1.523 . S
H1565 C1540 0.950 . S
H1566 C1542 0.950 . S
H1567 C1543 0.949 . S
H1568 C1545 0.950 . S
H1569 C1547 0.950 . S
C1570 C1571 1.349 . S
C1570 C1572 1.327 . S
C1570 H1595 0.950 . S
C1571 C1570 1.349 . S
C1571 C1587 1.361 . S
C1572 C1570 1.327 . S
C1572 C1591 1.429 . S
C1572 H1596 0.950 . S
C1573 C1590 1.574 1_556 S
C1573 C1592 1.368 1_655 S
C1573 H1597 0.949 . S
H1574 C1578 0.949 . S
C1575 C1576 1.349 1_655 S
C1575 C1577 1.327 . S
C1575 H1598 0.950 . S
C1576 C1575 1.349 1_455 S
C1576 C1588 1.349 . S
C1577 C1575 1.327 . S
C1577 C1593 1.429 1_655 S
C1577 H1599 0.950 . S
C1578 H1574 0.949 . S
C1578 C1586 1.574 1_554 S
C1578 C1594 1.368 . S
H1579 C1587 0.939 1_655 S
H1580 C1585 0.950 . S
H1581 C1586 0.949 . S
H1582 C1588 0.950 . S
H1583 C1589 0.950 . S
H1584 C1590 0.949 . S
C1585 H1580 0.950 . S
C1585 C1587 1.326 1_655 S
C1585 C1591 1.429 1_655 S
C1586 C1578 1.574 1_556 S
C1586 H1581 0.949 . S
C1586 C1592 1.368 . S
C1587 C1571 1.361 . S
C1587 H1579 0.939 1_455 S
C1587 C1585 1.326 1_455 S
C1588 C1576 1.349 . S
C1588 H1582 0.950 . S
C1588 C1589 1.327 . S
C1589 H1583 0.950 . S
C1589 C1588 1.327 . S
C1589 C1593 1.429 . S
C1590 C1573 1.574 1_554 S
C1590 H1584 0.949 . S
C1590 C1594 1.368 1_655 S
C1591 C1572 1.429 . S
C1591 C1585 1.429 1_455 S
C1591 C1592 1.523 . S
C1592 C1573 1.368 1_455 S
C1592 C1586 1.368 . S
C1592 C1591 1.523 . S
C1593 C1577 1.429 1_455 S
C1593 C1589 1.429 . S
C1593 C1594 1.523 . S
C1594 C1578 1.368 . S
C1594 C1590 1.368 1_455 S
C1594 C1593 1.523 . S
H1595 C1570 0.950 . S
H1596 C1572 0.950 . S
H1597 C1573 0.949 . S
H1598 C1575 0.950 . S
H1599 C1577 0.950 . S
C1600 C1601 1.349 . S
C1600 C1602 1.327 . S
C1600 H1625 0.950 . S
C1601 C1600 1.349 . S
C1601 C1617 1.349 . S
C1602 C1600 1.327 . S
C1602 C1621 1.429 . S
C1602 H1626 0.950 . S
C1603 C1620 1.574 . S
C1603 C1622 1.368 . S
C1603 H1627 0.949 . S
H1604 C1608 0.949 . S
C1605 C1606 1.349 . S
C1605 C1607 1.327 . S
C1605 H1628 0.950 . S
C1606 C1605 1.349 . S
C1606 C1618 1.349 . S
C1607 C1605 1.327 . S
C1607 C1623 1.429 . S
C1607 H1629 0.950 . S
C1608 H1604 0.949 . S
C1608 C1616 1.574 . S
C1608 C1624 1.368 . S
H1609 C1617 0.950 . S
H1610 C1615 0.950 . S
H1611 C1616 0.949 . S
H1612 C1618 0.950 . S
H1613 C1619 0.950 . S
H1614 C1620 0.949 . S
C1615 H1610 0.950 . S
C1615 C1617 1.327 . S
C1615 C1621 1.429 . S
C1616 C1608 1.574 . S
C1616 H1611 0.949 . S
C1616 C1622 1.368 . S
C1617 C1601 1.349 . S
C1617 H1609 0.950 . S
C1617 C1615 1.327 . S
C1618 C1606 1.349 . S
C1618 H1612 0.950 . S
C1618 C1619 1.327 . S
C1619 H1613 0.950 . S
C1619 C1618 1.327 . S
C1619 C1623 1.429 . S
C1620 C1603 1.574 . S
C1620 H1614 0.949 . S
C1620 C1624 1.368 . S
C1621 C1602 1.429 . S
C1621 C1615 1.429 . S
C1621 C1622 1.523 . S
C1622 C1603 1.368 . S
C1622 C1616 1.368 . S
C1622 C1621 1.523 . S
C1623 C1607 1.429 . S
C1623 C1619 1.429 . S
C1623 C1624 1.523 . S
C1624 C1608 1.368 . S
C1624 C1620 1.368 . S
C1624 C1623 1.523 . S
H1625 C1600 0.950 . S
H1626 C1602 0.950 . S
H1627 C1603 0.949 . S
H1628 C1605 0.950 . S
H1629 C1607 0.950 . S
C1630 C1631 1.349 . S
C1630 C1632 1.327 . S
C1630 H1655 0.950 . S
C1631 C1630 1.349 . S
C1631 C1647 1.349 . S
C1632 C1630 1.327 . S
C1632 C1651 1.429 . S
C1632 H1656 0.950 . S
C1633 C1650 1.574 . S
C1633 C1652 1.368 . S
C1633 H1657 0.949 . S
H1634 C1638 0.949 . S
C1635 C1636 1.349 . S
C1635 C1637 1.327 . S
C1635 H1658 0.950 . S
C1636 C1635 1.349 . S
C1636 C1648 1.349 . S
C1637 C1635 1.327 . S
C1637 C1653 1.429 . S
C1637 H1659 0.950 . S
C1638 H1634 0.949 . S
C1638 C1646 1.574 . S
C1638 C1654 1.368 . S
H1639 C1647 0.950 . S
H1640 C1645 0.950 . S
H1641 C1646 0.949 . S
H1642 C1648 0.950 . S
H1643 C1649 0.950 . S
H1644 C1650 0.949 . S
C1645 H1640 0.950 . S
C1645 C1647 1.327 . S
C1645 C1651 1.429 . S
C1646 C1638 1.574 . S
C1646 H1641 0.949 . S
C1646 C1652 1.368 . S
C1647 C1631 1.349 . S
C1647 H1639 0.950 . S
C1647 C1645 1.327 . S
C1648 C1636 1.349 . S
C1648 H1642 0.950 . S
C1648 C1649 1.327 . S
C1649 H1643 0.950 . S
C1649 C1648 1.327 . S
C1649 C1653 1.429 . S
C1650 C1633 1.574 . S
C1650 H1644 0.949 . S
C1650 C1654 1.368 . S
C1651 C1632 1.429 . S
C1651 C1645 1.429 . S
C1651 C1652 1.523 . S
C1652 C1633 1.368 . S
C1652 C1646 1.368 . S
C1652 C1651 1.523 . S
C1653 C1637 1.429 . S
C1653 C1649 1.429 . S
C1653 C1654 1.523 . S
C1654 C1638 1.368 . S
C1654 C1650 1.368 . S
C1654 C1653 1.523 . S
H1655 C1630 0.950 . S
H1656 C1632 0.950 . S
H1657 C1633 0.949 . S
H1658 C1635 0.950 . S
H1659 C1637 0.950 . S
C1660 C1661 1.349 . S
C1660 C1662 1.327 . S
C1660 H1685 0.950 . S
C1661 C1660 1.349 . S
C1661 C1677 1.349 . S
C1662 C1660 1.327 . S
C1662 C1681 1.429 . S
C1662 H1686 0.950 1_554 S
C1663 C1680 1.574 . S
C1663 C1682 1.368 . S
C1663 H1687 0.931 1_556 S
H1664 C1668 0.949 . S
C1665 C1666 1.349 . S
C1665 C1667 1.327 . S
C1665 H1688 0.950 . S
C1666 C1665 1.349 . S
C1666 C1678 1.349 . S
C1667 C1665 1.327 . S
C1667 C1683 1.429 . S
C1667 H1689 0.950 . S
C1668 H1664 0.949 . S
C1668 C1676 1.574 . S
C1668 C1684 1.368 . S
H1669 C1677 0.950 . S
H1670 C1675 0.950 . S
H1671 C1676 0.949 . S
H1672 C1678 0.950 . S
H1673 C1679 0.950 . S
H1674 C1680 0.949 . S
C1675 H1670 0.950 . S
C1675 C1677 1.327 . S
C1675 C1681 1.429 . S
C1676 C1668 1.574 . S
C1676 H1671 0.949 . S
C1676 C1682 1.368 . S
C1677 C1661 1.349 . S
C1677 H1669 0.950 . S
C1677 C1675 1.327 . S
C1678 C1666 1.349 . S
C1678 H1672 0.950 . S
C1678 C1679 1.327 . S
C1679 H1673 0.950 . S
C1679 C1678 1.327 . S
C1679 C1683 1.429 . S
C1680 C1663 1.574 . S
C1680 H1674 0.949 . S
C1680 C1684 1.368 . S
C1681 C1662 1.429 . S
C1681 C1675 1.429 . S
C1681 C1682 1.523 1_554 S
C1682 C1663 1.368 . S
C1682 C1676 1.368 . S
C1682 C1681 1.523 1_556 S
C1683 C1667 1.429 . S
C1683 C1679 1.429 . S
C1683 C1684 1.523 . S
C1684 C1668 1.368 . S
C1684 C1680 1.368 . S
C1684 C1683 1.523 . S
H1685 C1660 0.950 . S
H1686 C1662 0.950 1_556 S
H1687 C1663 0.931 1_554 S
H1688 C1665 0.950 . S
H1689 C1667 0.950 . S
C1690 C1691 1.349 . S
C1690 C1692 1.327 . S
C1690 H1715 0.950 . S
C1691 C1690 1.349 . S
C1691 C1707 1.349 . S
C1692 C1690 1.327 . S
C1692 C1711 1.429 . S
C1692 H1716 0.950 . S
C1693 C1710 1.574 . S
C1693 C1712 1.368 . S
C1693 H1717 0.949 . S
H1694 C1698 0.949 . S
C1695 C1696 1.349 . S
C1695 C1697 1.327 . S
C1695 H1718 0.950 . S
C1696 C1695 1.349 . S
C1696 C1708 1.349 . S
C1697 C1695 1.327 . S
C1697 C1713 1.429 . S
C1697 H1719 0.950 . S
C1698 H1694 0.949 . S
C1698 C1706 1.574 . S
C1698 C1714 1.368 . S
H1699 C1707 0.950 . S
H1700 C1705 0.950 . S
H1701 C1706 0.949 . S
H1702 C1708 0.950 . S
H1703 C1709 0.950 . S
H1704 C1710 0.949 . S
C1705 H1700 0.950 . S
C1705 C1707 1.327 . S
C1705 C1711 1.429 . S
C1706 C1698 1.574 . S
C1706 H1701 0.949 . S
C1706 C1712 1.368 . S
C1707 C1691 1.349 . S
C1707 H1699 0.950 . S
C1707 C1705 1.327 . S
C1708 C1696 1.349 . S
C1708 H1702 0.950 . S
C1708 C1709 1.327 . S
C1709 H1703 0.950 . S
C1709 C1708 1.327 . S
C1709 C1713 1.429 . S
C1710 C1693 1.574 . S
C1710 H1704 0.949 . S
C1710 C1714 1.368 . S
C1711 C1692 1.429 . S
C1711 C1705 1.429 . S
C1711 C1712 1.523 . S
C1712 C1693 1.368 . S
C1712 C1706 1.368 . S
C1712 C1711 1.523 . S
C1713 C1697 1.429 . S
C1713 C1709 1.429 . S
C1713 C1714 1.523 . S
C1714 C1698 1.368 . S
C1714 C1710 1.368 . S
C1714 C1713 1.523 . S
H1715 C1690 0.950 . S
H1716 C1692 0.950 . S
H1717 C1693 0.949 . S
H1718 C1695 0.950 . S
H1719 C1697 0.950 . S
C1720 C1721 1.349 . S
C1720 C1722 1.327 . S
C1720 H1745 0.950 . S
C1721 C1720 1.349 . S
C1721 C1737 1.349 . S
C1722 C1720 1.327 . S
C1722 C1741 1.429 . S
C1722 H1746 0.950 . S
C1723 C1740 1.574 . S
C1723 C1742 1.368 . S
C1723 H1747 0.949 . S
H1724 C1728 0.949 . S
C1725 C1726 1.349 . S
C1725 C1727 1.327 . S
C1725 H1748 0.950 . S
C1726 C1725 1.349 . S
C1726 C1738 1.349 . S
C1727 C1725 1.327 . S
C1727 C1743 1.429 . S
C1727 H1749 0.950 . S
C1728 H1724 0.949 . S
C1728 C1736 1.574 . S
C1728 C1744 1.368 . S
H1729 C1737 0.950 . S
H1730 C1735 0.950 . S
H1731 C1736 0.949 . S
H1732 C1738 0.950 . S
H1733 C1739 0.950 . S
H1734 C1740 0.949 . S
C1735 H1730 0.950 . S
C1735 C1737 1.327 . S
C1735 C1741 1.429 . S
C1736 C1728 1.574 . S
C1736 H1731 0.949 . S
C1736 C1742 1.368 . S
C1737 C1721 1.349 . S
C1737 H1729 0.950 . S
C1737 C1735 1.327 . S
C1738 C1726 1.349 . S
C1738 H1732 0.950 . S
C1738 C1739 1.327 . S
C1739 H1733 0.950 . S
C1739 C1738 1.327 . S
C1739 C1743 1.429 . S
C1740 C1723 1.574 . S
C1740 H1734 0.949 . S
C1740 C1744 1.368 . S
C1741 C1722 1.429 . S
C1741 C1735 1.429 . S
C1741 C1742 1.523 . S
C1742 C1723 1.368 . S
C1742 C1736 1.368 . S
C1742 C1741 1.523 . S
C1743 C1727 1.429 . S
C1743 C1739 1.429 . S
C1743 C1744 1.523 . S
C1744 C1728 1.368 . S
C1744 C1740 1.368 . S
C1744 C1743 1.523 . S
H1745 C1720 0.950 . S
H1746 C1722 0.950 . S
H1747 C1723 0.949 . S
H1748 C1725 0.950 . S
H1749 C1727 0.950 . S
C1750 C1751 1.349 . S
C1750 C1752 1.327 . S
C1750 H1775 0.950 . S
C1751 C1750 1.349 . S
C1751 C1767 1.349 . S
C1752 C1750 1.327 . S
C1752 C1771 1.429 . S
C1752 H1776 0.950 . S
C1753 C1770 1.574 . S
C1753 C1772 1.368 . S
C1753 H1777 0.949 . S
H1754 C1758 0.949 . S
C1755 C1756 1.349 . S
C1755 C1757 1.327 . S
C1755 H1778 0.950 . S
C1756 C1755 1.349 . S
C1756 C1768 1.349 . S
C1757 C1755 1.327 . S
C1757 C1773 1.429 . S
C1757 H1779 0.950 . S
C1758 H1754 0.949 . S
C1758 C1766 1.574 . S
C1758 C1774 1.368 . S
H1759 C1767 0.950 . S
H1760 C1765 0.950 . S
H1761 C1766 0.949 . S
H1762 C1768 0.950 . S
H1763 C1769 0.950 . S
H1764 C1770 0.949 . S
C1765 H1760 0.950 . S
C1765 C1767 1.327 . S
C1765 C1771 1.429 . S
C1766 C1758 1.574 . S
C1766 H1761 0.949 . S
C1766 C1772 1.368 . S
C1767 C1751 1.349 . S
C1767 H1759 0.950 . S
C1767 C1765 1.327 . S
C1768 C1756 1.349 . S
C1768 H1762 0.950 . S
C1768 C1769 1.327 . S
C1769 H1763 0.950 . S
C1769 C1768 1.327 . S
C1769 C1773 1.429 . S
C1770 C1753 1.574 . S
C1770 H1764 0.949 . S
C1770 C1774 1.368 . S
C1771 C1752 1.429 . S
C1771 C1765 1.429 . S
C1771 C1772 1.523 . S
C1772 C1753 1.368 . S
C1772 C1766 1.368 . S
C1772 C1771 1.523 . S
C1773 C1757 1.429 . S
C1773 C1769 1.429 . S
C1773 C1774 1.523 . S
C1774 C1758 1.368 . S
C1774 C1770 1.368 . S
C1774 C1773 1.523 . S
H1775 C1750 0.950 . S
H1776 C1752 0.950 . S
H1777 C1753 0.949 . S
H1778 C1755 0.950 . S
H1779 C1757 0.950 . S
C1780 C1781 1.349 . S
C1780 C1782 1.327 1_556 S
C1780 H1805 0.950 . S
C1781 C1780 1.349 . S
C1781 C1797 1.349 . S
C1782 C1780 1.327 1_554 S
C1782 C1801 1.429 . S
C1782 H1806 0.950 . S
C1783 C1800 1.574 . S
C1783 C1802 1.368 . S
C1783 H1807 0.949 . S
H1784 C1788 0.949 . S
C1785 C1786 1.349 . S
C1785 C1787 1.327 . S
C1785 H1808 0.950 . S
C1786 C1785 1.349 . S
C1786 C1798 1.349 . S
C1787 C1785 1.327 . S
C1787 C1803 1.429 . S
C1787 H1809 0.950 . S
C1788 H1784 0.949 . S
C1788 C1796 1.574 . S
C1788 C1804 1.368 . S
H1789 C1797 0.950 . S
H1790 C1795 0.950 . S
H1791 C1796 0.949 . S
H1792 C1798 0.950 . S
H1793 C1799 0.950 . S
H1794 C1800 0.949 . S
C1795 H1790 0.950 . S
C1795 C1797 1.327 1_554 S
C1795 C1801 1.429 . S
C1796 C1788 1.574 . S
C1796 H1791 0.949 . S
C1796 C1802 1.368 . S
C1797 C1781 1.349 . S
C1797 H1789 0.950 . S
C1797 C1795 1.327 1_556 S
C1798 C1786 1.349 . S
C1798 H1792 0.950 . S
C1798 C1799 1.327 . S
C1799 H1793 0.950 . S
C1799 C1798 1.327 . S
C1799 C1803 1.429 . S
C1800 C1783 1.574 . S
C1800 H1794 0.949 . S
C1800 C1804 1.368 . S
C1801 C1782 1.429 . S
C1801 C1795 1.429 . S
C1801 C1802 1.523 . S
C1802 C1783 1.368 . S
C1802 C1796 1.368 . S
C1802 C1801 1.523 . S
C1803 C1787 1.429 . S
C1803 C1799 1.429 . S
C1803 C1804 1.523 . S
C1804 C1788 1.368 . S
C1804 C1800 1.368 . S
C1804 C1803 1.523 . S
H1805 C1780 0.950 . S
H1806 C1782 0.950 . S
H1807 C1783 0.949 . S
H1808 C1785 0.950 . S
H1809 C1787 0.950 . S
C1810 C1811 1.349 . S
C1810 C1812 1.327 . S
C1810 H1835 0.950 . S
C1811 C1810 1.349 . S
C1811 C1827 1.349 . S
C1812 C1810 1.327 . S
C1812 C1831 1.429 . S
C1812 H1836 0.950 . S
C1813 C1830 1.574 . S
C1813 C1832 1.368 . S
C1813 H1837 0.949 . S
H1814 C1818 0.949 . S
C1815 C1816 1.349 . S
C1815 C1817 1.327 . S
C1815 H1838 0.950 . S
C1816 C1815 1.349 . S
C1816 C1828 1.349 . S
C1817 C1815 1.327 . S
C1817 C1833 1.429 . S
C1817 H1839 0.950 . S
C1818 H1814 0.949 . S
C1818 C1826 1.574 . S
C1818 C1834 1.368 . S
H1819 C1827 0.950 . S
H1820 C1825 0.950 . S
H1821 C1826 0.949 . S
H1822 C1828 0.950 . S
H1823 C1829 0.950 . S
H1824 C1830 0.949 . S
C1825 H1820 0.950 . S
C1825 C1827 1.327 . S
C1825 C1831 1.429 . S
C1826 C1818 1.574 . S
C1826 H1821 0.949 . S
C1826 C1832 1.368 . S
C1827 C1811 1.349 . S
C1827 H1819 0.950 . S
C1827 C1825 1.327 . S
C1828 C1816 1.349 . S
C1828 H1822 0.950 . S
C1828 C1829 1.327 . S
C1829 H1823 0.950 . S
C1829 C1828 1.327 . S
C1829 C1833 1.429 . S
C1830 C1813 1.574 . S
C1830 H1824 0.949 . S
C1830 C1834 1.368 . S
C1831 C1812 1.429 . S
C1831 C1825 1.429 . S
C1831 C1832 1.523 . S
C1832 C1813 1.368 . S
C1832 C1826 1.368 . S
C1832 C1831 1.523 . S
C1833 C1817 1.429 . S
C1833 C1829 1.429 . S
C1833 C1834 1.523 . S
C1834 C1818 1.368 . S
C1834 C1830 1.368 . S
C1834 C1833 1.523 . S
H1835 C1810 0.950 . S
H1836 C1812 0.950 . S
H1837 C1813 0.949 . S
H1838 C1815 0.950 . S
H1839 C1817 0.950 . S
C1840 C1841 1.349 . S
C1840 C1842 1.327 . S
C1840 H1865 0.950 . S
C1841 C1840 1.349 . S
C1841 C1857 1.349 . S
C1842 C1840 1.327 . S
C1842 C1861 1.429 . S
C1842 H1866 0.950 . S
C1843 C1860 1.574 . S
C1843 C1862 1.368 . S
C1843 H1867 0.949 . S
H1844 C1848 0.949 . S
C1845 C1846 1.349 . S
C1845 C1847 1.327 . S
C1845 H1868 0.950 . S
C1846 C1845 1.349 . S
C1846 C1858 1.349 . S
C1847 C1845 1.327 . S
C1847 C1863 1.429 . S
C1847 H1869 0.950 . S
C1848 H1844 0.949 . S
C1848 C1856 1.574 . S
C1848 C1864 1.368 . S
H1849 C1857 0.950 . S
H1850 C1855 0.950 . S
H1851 C1856 0.949 . S
H1852 C1858 0.950 . S
H1853 C1859 0.950 . S
H1854 C1860 0.949 . S
C1855 H1850 0.950 . S
C1855 C1857 1.327 . S
C1855 C1861 1.429 . S
C1856 C1848 1.574 . S
C1856 H1851 0.949 . S
C1856 C1862 1.368 . S
C1857 C1841 1.349 . S
C1857 H1849 0.950 . S
C1857 C1855 1.327 . S
C1858 C1846 1.349 . S
C1858 H1852 0.950 . S
C1858 C1859 1.327 . S
C1859 H1853 0.950 . S
C1859 C1858 1.327 . S
C1859 C1863 1.429 . S
C1860 C1843 1.574 . S
C1860 H1854 0.949 . S
C1860 C1864 1.368 . S
C1861 C1842 1.429 . S
C1861 C1855 1.429 . S
C1861 C1862 1.523 . S
C1862 C1843 1.368 . S
C1862 C1856 1.368 . S
C1862 C1861 1.523 . S
C1863 C1847 1.429 . S
C1863 C1859 1.429 . S
C1863 C1864 1.523 . S
C1864 C1848 1.368 . S
C1864 C1860 1.368 . S
C1864 C1863 1.523 . S
H1865 C1840 0.950 . S
H1866 C1842 0.950 . S
H1867 C1843 0.949 . S
H1868 C1845 0.950 . S
H1869 C1847 0.950 . S
C1870 C1871 1.349 . S
C1870 C1872 1.327 . S
C1870 H1895 0.950 . S
C1871 C1870 1.349 . S
C1871 C1887 1.349 . S
C1872 C1870 1.327 . S
C1872 C1891 1.429 . S
C1872 H1896 0.950 . S
C1873 C1890 1.574 . S
C1873 C1892 1.368 . S
C1873 H1897 0.949 . S
H1874 C1878 0.949 . S
C1875 C1876 1.349 . S
C1875 C1877 1.327 . S
C1875 H1898 0.950 . S
C1876 C1875 1.349 . S
C1876 C1888 1.349 . S
C1877 C1875 1.327 . S
C1877 C1893 1.429 . S
C1877 H1899 0.950 . S
C1878 H1874 0.949 . S
C1878 C1886 1.574 . S
C1878 C1894 1.368 . S
H1879 C1887 0.950 . S
H1880 C1885 0.950 . S
H1881 C1886 0.949 . S
H1882 C1888 0.950 . S
H1883 C1889 0.950 . S
H1884 C1890 0.949 . S
C1885 H1880 0.950 . S
C1885 C1887 1.327 . S
C1885 C1891 1.429 . S
C1886 C1878 1.574 . S
C1886 H1881 0.949 . S
C1886 C1892 1.368 . S
C1887 C1871 1.349 . S
C1887 H1879 0.950 . S
C1887 C1885 1.327 . S
C1888 C1876 1.349 . S
C1888 H1882 0.950 . S
C1888 C1889 1.327 . S
C1889 H1883 0.950 . S
C1889 C1888 1.327 . S
C1889 C1893 1.429 . S
C1890 C1873 1.574 . S
C1890 H1884 0.949 . S
C1890 C1894 1.368 . S
C1891 C1872 1.429 . S
C1891 C1885 1.429 . S
C1891 C1892 1.523 . S
C1892 C1873 1.368 . S
C1892 C1886 1.368 . S
C1892 C1891 1.523 . S
C1893 C1877 1.429 . S
C1893 C1889 1.429 . S
C1893 C1894 1.523 . S
C1894 C1878 1.368 . S
C1894 C1890 1.368 . S
C1894 C1893 1.523 . S
H1895 C1870 0.950 . S
H1896 C1872 0.950 . S
H1897 C1873 0.949 . S
H1898 C1875 0.950 . S
H1899 C1877 0.950 . S
C1900 C1901 1.349 . S
C1900 C1902 1.327 . S
C1900 H1925 0.950 . S
C1901 C1900 1.349 . S
C1901 C1917 1.349 . S
C1902 C1900 1.327 . S
C1902 C1921 1.429 . S
C1902 H1926 0.950 . S
C1903 C1920 1.574 . S
C1903 C1922 1.368 . S
C1903 H1927 0.949 . S
H1904 C1908 0.949 . S
C1905 C1906 1.349 . S
C1905 C1907 1.327 . S
C1905 H1928 0.950 . S
C1906 C1905 1.349 . S
C1906 C1918 1.349 . S
C1907 C1905 1.327 . S
C1907 C1923 1.429 . S
C1907 H1929 0.950 . S
C1908 H1904 0.949 . S
C1908 C1916 1.574 . S
C1908 C1924 1.368 . S
H1909 C1917 0.950 . S
H1910 C1915 0.950 . S
H1911 C1916 0.949 . S
H1912 C1918 0.950 . S
H1913 C1919 0.950 . S
H1914 C1920 0.949 . S
C1915 H1910 0.950 . S
C1915 C1917 1.327 . S
C1915 C1921 1.429 . S
C1916 C1908 1.574 . S
C1916 H1911 0.949 . S
C1916 C1922 1.368 . S
C1917 C1901 1.349 . S
C1917 H1909 0.950 . S
C1917 C1915 1.327 . S
C1918 C1906 1.349 . S
C1918 H1912 0.950 . S
C1918 C1919 1.327 . S
C1919 H1913 0.950 . S
C1919 C1918 1.327 . S
C1919 C1923 1.429 . S
C1920 C1903 1.574 . S
C1920 H1914 0.949 . S
C1920 C1924 1.368 . S
C1921 C1902 1.429 . S
C1921 C1915 1.429 . S
C1921 C1922 1.523 . S
C1922 C1903 1.368 . S
C1922 C1916 1.368 . S
C1922 C1921 1.523 . S
C1923 C1907 1.429 . S
C1923 C1919 1.429 . S
C1923 C1924 1.523 . S
C1924 C1908 1.368 . S
C1924 C1920 1.368 . S
C1924 C1923 1.523 . S
H1925 C1900 0.950 . S
H1926 C1902 0.950 . S
H1927 C1903 0.949 . S
H1928 C1905 0.950 . S
H1929 C1907 0.950 . S
C1930 C1931 1.349 . S
C1930 C1932 1.327 . S
C1930 H1955 0.952 1_655 S
C1931 C1930 1.349 . S
C1931 C1947 1.349 . S
C1932 C1930 1.327 . S
C1932 C1951 1.429 . S
C1932 H1956 0.950 . S
C1933 C1950 1.574 . S
C1933 C1952 1.368 . S
C1933 H1957 0.949 . S
H1934 C1938 0.949 . S
C1935 C1936 1.349 . S
C1935 C1937 1.327 . S
C1935 H1958 0.950 . S
C1936 C1935 1.349 . S
C1936 C1948 1.349 . S
C1937 C1935 1.327 . S
C1937 C1953 1.429 . S
C1937 H1959 0.950 . S
C1938 H1934 0.949 . S
C1938 C1946 1.574 . S
C1938 C1954 1.368 . S
H1939 C1947 0.950 . S
H1940 C1945 0.950 . S
H1941 C1946 0.949 . S
H1942 C1948 0.950 . S
H1943 C1949 0.950 . S
H1944 C1950 0.949 . S
C1945 H1940 0.950 . S
C1945 C1947 1.327 . S
C1945 C1951 1.429 . S
C1946 C1938 1.574 . S
C1946 H1941 0.949 . S
C1946 C1952 1.368 . S
C1947 C1931 1.349 . S
C1947 H1939 0.950 . S
C1947 C1945 1.327 . S
C1948 C1936 1.349 . S
C1948 H1942 0.950 . S
C1948 C1949 1.327 . S
C1949 H1943 0.950 . S
C1949 C1948 1.327 . S
C1949 C1953 1.429 . S
C1950 C1933 1.574 . S
C1950 H1944 0.949 . S
C1950 C1954 1.368 . S
C1951 C1932 1.429 . S
C1951 C1945 1.429 . S
C1951 C1952 1.523 . S
C1952 C1933 1.368 . S
C1952 C1946 1.368 . S
C1952 C1951 1.523 . S
C1953 C1937 1.429 . S
C1953 C1949 1.429 . S
C1953 C1954 1.523 . S
C1954 C1938 1.368 . S
C1954 C1950 1.368 . S
C1954 C1953 1.523 . S
H1955 C1930 0.952 1_455 S
H1956 C1932 0.950 . S
H1957 C1933 0.949 . S
H1958 C1935 0.950 . S
H1959 C1937 0.950 . S
C1960 C1961 1.349 . S
C1960 C1962 1.327 . S
C1960 H1985 0.950 . S
C1961 C1960 1.349 . S
C1961 C1977 1.349 . S
C1962 C1960 1.327 . S
C1962 C1981 1.429 . S
C1962 H1986 0.950 . S
C1963 C1980 1.574 . S
C1963 C1982 1.368 . S
C1963 H1987 0.949 . S
H1964 C1968 0.949 . S
C1965 C1966 1.349 . S
C1965 C1967 1.327 . S
C1965 H1988 0.950 . S
C1966 C1965 1.349 . S
C1966 C1978 1.349 . S
C1967 C1965 1.327 . S
C1967 C1983 1.429 . S
C1967 H1989 0.950 . S
C1968 H1964 0.949 . S
C1968 C1976 1.574 . S
C1968 C1984 1.368 . S
H1969 C1977 0.950 . S
H1970 C1975 0.950 . S
H1971 C1976 0.949 . S
H1972 C1978 0.950 . S
H1973 C1979 0.950 1_554 S
H1974 C1980 0.949 . S
C1975 H1970 0.950 . S
C1975 C1977 1.327 . S
C1975 C1981 1.429 . S
C1976 C1968 1.574 . S
C1976 H1971 0.949 . S
C1976 C1982 1.368 . S
C1977 C1961 1.349 . S
C1977 H1969 0.950 . S
C1977 C1975 1.327 . S
C1978 C1966 1.349 . S
C1978 H1972 0.950 . S
C1978 C1979 1.327 . S
C1979 H1973 0.950 1_556 S
C1979 C1978 1.327 . S
C1979 C1983 1.429 . S
C1980 C1963 1.574 . S
C1980 H1974 0.949 . S
C1980 C1984 1.368 . S
C1981 C1962 1.429 . S
C1981 C1975 1.429 . S
C1981 C1982 1.523 . S
C1982 C1963 1.368 . S
C1982 C1976 1.368 . S
C1982 C1981 1.523 . S
C1983 C1967 1.429 . S
C1983 C1979 1.429 . S
C1983 C1984 1.523 1_556 S
C1984 C1968 1.368 . S
C1984 C1980 1.368 . S
C1984 C1983 1.523 1_554 S
H1985 C1960 0.950 . S
H1986 C1962 0.950 . S
H1987 C1963 0.949 . S
H1988 C1965 0.950 . S
H1989 C1967 0.950 . S
C1990 C1991 1.349 . S
C1990 C1992 1.327 . S
C1990 H2015 0.950 . S
C1991 C1990 1.349 . S
C1991 C2007 1.349 . S
C1992 C1990 1.327 . S
C1992 C2011 1.429 . S
C1992 H2016 0.950 . S
C1993 C2010 1.574 . S
C1993 C2012 1.368 . S
C1993 H2017 0.949 . S
H1994 C1998 0.949 . S
C1995 C1996 1.349 . S
C1995 C1997 1.327 . S
C1995 H2018 0.950 . S
C1996 C1995 1.349 . S
C1996 C2008 1.349 . S
C1997 C1995 1.327 . S
C1997 C2013 1.429 . S
C1997 H2019 0.950 . S
C1998 H1994 0.949 . S
C1998 C2006 1.574 . S
C1998 C2014 1.368 . S
H1999 C2007 0.924 1_554 S
H2000 C2005 0.950 . S
H2001 C2006 0.949 . S
H2002 C2008 0.950 . S
H2003 C2009 0.950 . S
H2004 C2010 0.949 . S
C2005 H2000 0.950 . S
C2005 C2007 1.327 . S
C2005 C2011 1.429 . S
C2006 C1998 1.574 . S
C2006 H2001 0.949 . S
C2006 C2012 1.368 . S
C2007 C1991 1.349 . S
C2007 H1999 0.924 1_556 S
C2007 C2005 1.327 . S
C2008 C1996 1.349 . S
C2008 H2002 0.950 . S
C2008 C2009 1.327 . S
C2009 H2003 0.950 . S
C2009 C2008 1.327 . S
C2009 C2013 1.429 . S
C2010 C1993 1.574 . S
C2010 H2004 0.949 . S
C2010 C2014 1.368 . S
C2011 C1992 1.429 . S
C2011 C2005 1.429 . S
C2011 C2012 1.523 . S
C2012 C1993 1.368 . S
C2012 C2006 1.368 . S
C2012 C2011 1.523 . S
C2013 C1997 1.429 . S
C2013 C2009 1.429 . S
C2013 C2014 1.523 . S
C2014 C1998 1.368 . S
C2014 C2010 1.368 . S
C2014 C2013 1.523 . S
H2015 C1990 0.950 . S
H2016 C1992 0.950 . S
H2017 C1993 0.949 . S
H2018 C1995 0.950 . S
H2019 C1997 0.950 . S
C2020 C2021 1.349 . S
C2020 C2022 1.327 . S
C2020 H2045 0.950 . S
C2021 C2020 1.349 . S
C2021 C2037 1.349 . S
C2022 C2020 1.327 . S
C2022 C2041 1.429 . S
C2022 H2046 0.950 . S
C2023 C2040 1.574 . S
C2023 C2042 1.368 . S
C2023 H2047 0.949 . S
H2024 C2028 0.949 . S
C2025 C2026 1.349 . S
C2025 C2027 1.327 . S
C2025 H2048 0.950 . S
C2026 C2025 1.349 . S
C2026 C2038 1.349 . S
C2027 C2025 1.327 . S
C2027 C2043 1.429 . S
C2027 H2049 0.950 . S
C2028 H2024 0.949 . S
C2028 C2036 1.574 . S
C2028 C2044 1.368 . S
H2029 C2037 0.950 . S
H2030 C2035 0.950 . S
H2031 C2036 0.949 . S
H2032 C2038 0.950 . S
H2033 C2039 0.950 . S
H2034 C2040 0.949 . S
C2035 H2030 0.950 . S
C2035 C2037 1.327 . S
C2035 C2041 1.429 . S
C2036 C2028 1.574 . S
C2036 H2031 0.949 . S
C2036 C2042 1.368 . S
C2037 C2021 1.349 . S
C2037 H2029 0.950 . S
C2037 C2035 1.327 . S
C2038 C2026 1.349 . S
C2038 H2032 0.950 . S
C2038 C2039 1.327 . S
C2039 H2033 0.950 . S
C2039 C2038 1.327 . S
C2039 C2043 1.429 . S
C2040 C2023 1.574 . S
C2040 H2034 0.949 . S
C2040 C2044 1.368 . S
C2041 C2022 1.429 . S
C2041 C2035 1.429 . S
C2041 C2042 1.523 . S
C2042 C2023 1.368 . S
C2042 C2036 1.368 . S
C2042 C2041 1.523 . S
C2043 C2027 1.429 . S
C2043 C2039 1.429 . S
C2043 C2044 1.523 . S
C2044 C2028 1.368 . S
C2044 C2040 1.368 . S
C2044 C2043 1.523 . S
H2045 C2020 0.950 . S
H2046 C2022 0.950 . S
H2047 C2023 0.949 . S
H2048 C2025 0.950 . S
H2049 C2027 0.950 . S
C2050 C2051 1.349 . S
C2050 C2052 1.327 . S
C2050 H2075 0.950 . S
C2051 C2050 1.349 . S
C2051 C2067 1.349 . S
C2052 C2050 1.327 . S
C2052 C2071 1.429 . S
C2052 H2076 0.950 . S
C2053 C2070 1.574 . S
C2053 C2072 1.368 . S
C2053 H2077 0.949 . S
H2054 C2058 0.949 . S
C2055 C2056 1.349 . S
C2055 C2057 1.327 . S
C2055 H2078 0.950 . S
C2056 C2055 1.349 . S
C2056 C2068 1.349 . S
C2057 C2055 1.327 . S
C2057 C2073 1.429 . S
C2057 H2079 0.950 . S
C2058 H2054 0.949 . S
C2058 C2066 1.574 . S
C2058 C2074 1.368 . S
H2059 C2067 0.950 . S
H2060 C2065 0.950 . S
H2061 C2066 0.949 . S
H2062 C2068 0.950 . S
H2063 C2069 0.950 . S
H2064 C2070 0.949 . S
C2065 H2060 0.950 . S
C2065 C2067 1.327 . S
C2065 C2071 1.429 . S
C2066 C2058 1.574 . S
C2066 H2061 0.949 . S
C2066 C2072 1.368 . S
C2067 C2051 1.349 . S
C2067 H2059 0.950 . S
C2067 C2065 1.327 . S
C2068 C2056 1.349 . S
C2068 H2062 0.950 . S
C2068 C2069 1.327 . S
C2069 H2063 0.950 . S
C2069 C2068 1.327 . S
C2069 C2073 1.429 . S
C2070 C2053 1.574 . S
C2070 H2064 0.949 . S
C2070 C2074 1.368 . S
C2071 C2052 1.429 . S
C2071 C2065 1.429 . S
C2071 C2072 1.523 . S
C2072 C2053 1.368 . S
C2072 C2066 1.368 . S
C2072 C2071 1.523 . S
C2073 C2057 1.429 . S
C2073 C2069 1.429 . S
C2073 C2074 1.523 . S
C2074 C2058 1.368 . S
C2074 C2070 1.368 . S
C2074 C2073 1.523 . S
H2075 C2050 0.950 . S
H2076 C2052 0.950 . S
H2077 C2053 0.949 . S
H2078 C2055 0.950 . S
H2079 C2057 0.950 . S
C641 C6 0.932 . S
C646 C286 0.985 . S
C671 C59 0.863 . S
C676 C166 0.862 . S
C701 C206 0.524 . S
C706 C99 0.556 . S
C731 C139 0.819 . S
C736 C246 0.818 . S
C761 C455 0.834 . S
C766 C170 0.835 . S
C791 C330 2.604 . S
C796 C10 2.571 . S
C821 C415 0.857 . S
C826 C250 0.858 . S
C851 C95 1.893 . S
C856 C370 1.869 . S
C881 C366 0.985 . S
C886 C486 0.932 . S
C911 C419 0.863 . S
C916 C566 0.862 . S
C941 C539 0.556 . S
C946 C326 0.524 . S
C971 C459 0.819 . S
C976 C606 0.818 . S
C1001 C570 0.835 . S
C1006 C135 0.834 . S
C1031 C490 2.571 . S
C1036 C210 2.604 . S
C1061 C55 0.857 . S
C1066 C610 0.858 . S
C1091 C290 1.869 . S
C1096 C535 1.893 . S
C1121 C538 0.854 . S
C1126 C9 0.835 . S
C1151 C458 0.992 . S
C1156 C58 0.986 . S
C1181 C489 0.835 . S
C1186 C98 0.854 . S
C1211 C418 0.987 . S
C1216 C138 0.992 . S
C1241 C169 0.962 . S
C1246 C609 0.971 . S
C1271 C369 0.829 . S
C1276 C209 0.476 . S
C1301 C249 0.971 . S
C1306 C569 0.961 . S
C1331 C289 0.830 . S
C1336 C329 0.476 . S
C1361 C18 1.285 . S
C1366 C178 1.283 . S
C1391 C49 1.205 . S
C1396 C218 1.208 . S
C1421 C258 1.352 . S
C1426 C89 1.350 . S
C1451 C129 1.528 . S
C1456 C298 1.514 . S
C1481 C409 1.205 . S
C1486 C338 1.208 . S
C1511 C449 1.528 . S
C1516 C378 1.514 . S
C1541 C498 1.285 . S
C1546 C578 1.283 . S
C1571 C618 1.352 . S
C1576 C529 1.351 . S
C1601 C19 3.595 . S
C1606 C299 3.606 . S
C1631 C46 1.939 . S
C1636 C179 2.001 . S
C1661 C219 2.874 . S
C1666 C86 2.824 . S
C1691 C259 1.971 . S
C1696 C126 1.907 . S
C1721 C450 1.980 . S
C1726 C175 1.920 . S
C1751 C335 0.475 . S
C1756 C15 0.464 . S
C1781 C410 1.985 . S
C1786 C255 1.926 . S
C1811 C90 0.949 . S
C1816 C375 0.930 . S
C1841 C499 3.595 . S
C1846 C379 3.606 1_556 S
C1871 C579 2.001 . S
C1876 C406 1.939 . S
C1901 C526 2.824 . S
C1906 C339 2.874 . S
C1931 C619 1.971 . S
C1936 C446 1.907 . S
C1961 C575 1.920 . S
C1966 C130 1.980 . S
C1991 C215 0.476 1_556 S
C1996 C495 0.464 . S
C2021 C50 1.985 . S
C2026 C615 1.926 . S
C2051 C530 0.949 . S
C2056 C295 0.930 . S
