# Generated by pormake.
# Topology wmi, (6)-cn, num edge types: 1
# Building blocks:
#     Node 0, Type 0, BuildingBlock: BETGAK_clean_sbu_0, # of connection points: 6
#     Node 1, Type 0, BuildingBlock: BETGAK_clean_sbu_0, # of connection points: 6
#     Node 2, Type 0, BuildingBlock: BETGAK_clean_sbu_0, # of connection points: 6
#     Node 3, Type 0, BuildingBlock: BETGAK_clean_sbu_0, # of connection points: 6
#     Node 4, Type 0, BuildingBlock: BETGAK_clean_sbu_0, # of connection points: 6
#     Node 5, Type 0, BuildingBlock: BETGAK_clean_sbu_0, # of connection points: 6
#     Node 6, Type 0, BuildingBlock: BETGAK_clean_sbu_0, # of connection points: 6
#     Node 7, Type 0, BuildingBlock: BETGAK_clean_sbu_0, # of connection points: 6
#     Node 8, Type 0, BuildingBlock: BETGAK_clean_sbu_0, # of connection points: 6
#     Node 9, Type 0, BuildingBlock: BETGAK_clean_sbu_0, # of connection points: 6
#     Node 10, Type 0, BuildingBlock: BETGAK_clean_sbu_0, # of connection points: 6
#     Node 11, Type 0, BuildingBlock: BETGAK_clean_sbu_0, # of connection points: 6
#     Node 12, Type 0, BuildingBlock: BETGAK_clean_sbu_0, # of connection points: 6
#     Node 13, Type 0, BuildingBlock: BETGAK_clean_sbu_0, # of connection points: 6
#     Node 14, Type 0, BuildingBlock: BETGAK_clean_sbu_0, # of connection points: 6
#     Node 15, Type 0, BuildingBlock: BETGAK_clean_sbu_0, # of connection points: 6
#     Node 16, Type 0, BuildingBlock: BETGAK_clean_sbu_0, # of connection points: 6
#     Node 17, Type 0, BuildingBlock: BETGAK_clean_sbu_0, # of connection points: 6
#     Edge 18, Type (0, 0), BuildingBlock: UVAHIK_clean_linker_0, # of connection points: 2
#     Edge 19, Type (0, 0), BuildingBlock: UVAHIK_clean_linker_0, # of connection points: 2
#     Edge 20, Type (0, 0), BuildingBlock: UVAHIK_clean_linker_0, # of connection points: 2
#     Edge 21, Type (0, 0), BuildingBlock: UVAHIK_clean_linker_0, # of connection points: 2
#     Edge 22, Type (0, 0), BuildingBlock: UVAHIK_clean_linker_0, # of connection points: 2
#     Edge 23, Type (0, 0), BuildingBlock: UVAHIK_clean_linker_0, # of connection points: 2
#     Edge 24, Type (0, 0), BuildingBlock: UVAHIK_clean_linker_0, # of connection points: 2
#     Edge 25, Type (0, 0), BuildingBlock: UVAHIK_clean_linker_0, # of connection points: 2
#     Edge 26, Type (0, 0), BuildingBlock: UVAHIK_clean_linker_0, # of connection points: 2
#     Edge 27, Type (0, 0), BuildingBlock: UVAHIK_clean_linker_0, # of connection points: 2
#     Edge 28, Type (0, 0), BuildingBlock: UVAHIK_clean_linker_0, # of connection points: 2
#     Edge 29, Type (0, 0), BuildingBlock: UVAHIK_clean_linker_0, # of connection points: 2
#     Edge 30, Type (0, 0), BuildingBlock: UVAHIK_clean_linker_0, # of connection points: 2
#     Edge 31, Type (0, 0), BuildingBlock: UVAHIK_clean_linker_0, # of connection points: 2
#     Edge 32, Type (0, 0), BuildingBlock: UVAHIK_clean_linker_0, # of connection points: 2
#     Edge 33, Type (0, 0), BuildingBlock: UVAHIK_clean_linker_0, # of connection points: 2
#     Edge 34, Type (0, 0), BuildingBlock: UVAHIK_clean_linker_0, # of connection points: 2
#     Edge 35, Type (0, 0), BuildingBlock: UVAHIK_clean_linker_0, # of connection points: 2
#     Edge 36, Type (0, 0), BuildingBlock: UVAHIK_clean_linker_0, # of connection points: 2
#     Edge 37, Type (0, 0), BuildingBlock: UVAHIK_clean_linker_0, # of connection points: 2
#     Edge 38, Type (0, 0), BuildingBlock: UVAHIK_clean_linker_0, # of connection points: 2
#     Edge 39, Type (0, 0), BuildingBlock: UVAHIK_clean_linker_0, # of connection points: 2
#     Edge 40, Type (0, 0), BuildingBlock: UVAHIK_clean_linker_0, # of connection points: 2
#     Edge 41, Type (0, 0), BuildingBlock: UVAHIK_clean_linker_0, # of connection points: 2
#     Edge 42, Type (0, 0), BuildingBlock: UVAHIK_clean_linker_0, # of connection points: 2
#     Edge 43, Type (0, 0), BuildingBlock: UVAHIK_clean_linker_0, # of connection points: 2
#     Edge 44, Type (0, 0), BuildingBlock: UVAHIK_clean_linker_0, # of connection points: 2
#     Edge 45, Type (0, 0), BuildingBlock: UVAHIK_clean_linker_0, # of connection points: 2
#     Edge 46, Type (0, 0), BuildingBlock: UVAHIK_clean_linker_0, # of connection points: 2
#     Edge 47, Type (0, 0), BuildingBlock: UVAHIK_clean_linker_0, # of connection points: 2
#     Edge 48, Type (0, 0), BuildingBlock: UVAHIK_clean_linker_0, # of connection points: 2
#     Edge 49, Type (0, 0), BuildingBlock: UVAHIK_clean_linker_0, # of connection points: 2
#     Edge 50, Type (0, 0), BuildingBlock: UVAHIK_clean_linker_0, # of connection points: 2
#     Edge 51, Type (0, 0), BuildingBlock: UVAHIK_clean_linker_0, # of connection points: 2
#     Edge 52, Type (0, 0), BuildingBlock: UVAHIK_clean_linker_0, # of connection points: 2
#     Edge 53, Type (0, 0), BuildingBlock: UVAHIK_clean_linker_0, # of connection points: 2
#     Edge 54, Type (0, 0), BuildingBlock: UVAHIK_clean_linker_0, # of connection points: 2
#     Edge 55, Type (0, 0), BuildingBlock: UVAHIK_clean_linker_0, # of connection points: 2
#     Edge 56, Type (0, 0), BuildingBlock: UVAHIK_clean_linker_0, # of connection points: 2
#     Edge 57, Type (0, 0), BuildingBlock: UVAHIK_clean_linker_0, # of connection points: 2
#     Edge 58, Type (0, 0), BuildingBlock: UVAHIK_clean_linker_0, # of connection points: 2
#     Edge 59, Type (0, 0), BuildingBlock: UVAHIK_clean_linker_0, # of connection points: 2
#     Edge 60, Type (0, 0), BuildingBlock: UVAHIK_clean_linker_0, # of connection points: 2
#     Edge 61, Type (0, 0), BuildingBlock: UVAHIK_clean_linker_0, # of connection points: 2
#     Edge 62, Type (0, 0), BuildingBlock: UVAHIK_clean_linker_0, # of connection points: 2
#     Edge 63, Type (0, 0), BuildingBlock: UVAHIK_clean_linker_0, # of connection points: 2
#     Edge 64, Type (0, 0), BuildingBlock: UVAHIK_clean_linker_0, # of connection points: 2
#     Edge 65, Type (0, 0), BuildingBlock: UVAHIK_clean_linker_0, # of connection points: 2
#     Edge 66, Type (0, 0), BuildingBlock: UVAHIK_clean_linker_0, # of connection points: 2
#     Edge 67, Type (0, 0), BuildingBlock: UVAHIK_clean_linker_0, # of connection points: 2
#     Edge 68, Type (0, 0), BuildingBlock: UVAHIK_clean_linker_0, # of connection points: 2
#     Edge 69, Type (0, 0), BuildingBlock: UVAHIK_clean_linker_0, # of connection points: 2
#     Edge 70, Type (0, 0), BuildingBlock: UVAHIK_clean_linker_0, # of connection points: 2
#     Edge 71, Type (0, 0), BuildingBlock: UVAHIK_clean_linker_0, # of connection points: 2
# Relax obj value: 0.096
# Max RMSD: 0.204
# Mean RMSD: 0.204
data_MOF--net-wmi--node1-BETGAK_clean_sbu_0--edge1-UVAHIK_clean_linker_0
_symmetry_space_group_name_H-M    P1
_symmetry_Int_Tables_number       1
_symmetry_cell_setting            triclinic
loop_
_symmetry_equiv_pos_as_xyz
'x, y, z'
_cell_length_a     49.091355
_cell_length_b     49.126355
_cell_length_c     101.83693
_cell_angle_alpha  89.985953
_cell_angle_beta   90.036331
_cell_angle_gamma 120.03739
loop_
_atom_site_label
_atom_site_type_symbol
_atom_site_fract_x
_atom_site_fract_y
_atom_site_fract_z
_atom_type_partial_charge
La0 La 0.53313 0.04851 0.12587 0.0
La1 La 0.46152 1.00721 0.11932 0.0
C2 C 0.59137 0.08561 0.12837 0.0
C3 C 0.62007 0.11576 0.12545 0.0
C4 C 0.64055 0.13166 0.1359 0.0
C5 C 0.67038 0.15739 0.13357 0.0
C6 C 0.68044 0.16794 0.12071 0.0
C7 C 0.65934 0.15306 0.11024 0.0
C8 C 0.6294 0.12697 0.11258 0.0
C9 C 0.49264 0.02576 0.14574 0.0
C10 C 0.49462 0.08108 0.11647 0.0
C11 C 0.40386 0.97146 0.12354 0.0
C12 C 0.38123 0.93824 0.12095 0.0
C13 C 0.39053 0.91913 0.11436 0.0
C14 C 0.36985 0.88671 0.11332 0.0
C15 C 0.33957 0.87291 0.11889 0.0
C16 C 0.3303 0.89243 0.12525 0.0
C17 C 0.35096 0.92477 0.12627 0.0
C18 C 0.49533 1.01613 0.09784 0.0
C19 C 0.50469 0.97588 0.12345 0.0
O20 O 0.57021 0.08585 0.13613 0.0
O21 O 0.579 0.06426 0.11909 0.0
O22 O 0.5202 0.02832 0.14587 0.0
O23 O 0.48926 0.03621 0.13501 0.0
O24 O 0.52234 0.08262 0.11721 0.0
O25 O 0.46756 0.05454 0.11846 0.0
O26 O 0.41476 0.99023 0.11331 0.0
O27 O 0.42605 0.97607 0.13192 0.0
O28 O 0.46488 0.99934 0.09828 0.0
O29 O 0.50489 0.02645 0.10923 0.0
O30 O 0.47591 0.97214 0.12371 0.0
O31 O 0.53034 1.00383 0.12285 0.0
H32 H 0.63394 0.12335 0.14589 0.0
H33 H 0.68591 0.16865 0.14184 0.0
H34 H 0.66651 0.16071 0.10023 0.0
H35 H 0.61407 0.11499 0.10434 0.0
H36 H 0.41402 0.92917 0.11031 0.0
H37 H 0.37764 0.87245 0.10825 0.0
H38 H 0.30741 0.88259 0.12986 0.0
H39 H 0.34362 0.93914 0.13157 0.0
La40 La 0.02758 0.50446 0.12386 0.0
La41 La 0.06797 0.47259 0.11964 0.0
C42 C 0.9905 0.52602 0.12451 0.0
C43 C 0.96157 0.5251 0.11961 0.0
C44 C 0.93179 0.50363 0.12473 0.0
C45 C 0.90572 0.50726 0.12219 0.0
C46 C 0.90889 0.5326 0.11457 0.0
C47 C 0.93834 0.55308 0.10892 0.0
C48 C 0.96435 0.54942 0.11144 0.0
C49 C 0.04786 0.48777 0.14496 0.0
C50 C 0.99472 0.43277 0.11554 0.0
C51 C 0.10344 0.45123 0.12541 0.0
C52 C 0.13686 0.4625 0.12286 0.0
C53 C 0.15544 0.49128 0.11642 0.0
C54 C 0.18786 0.50355 0.11511 0.0
C55 C 0.20223 0.48717 0.12017 0.0
C56 C 0.18333 0.458 0.12638 0.0
C57 C 0.15092 0.44584 0.12776 0.0
C58 C 0.06198 0.49555 0.09696 0.0
C59 C 0.10027 0.54749 0.12231 0.0
O60 O 0.98776 0.5032 0.1321 0.0
O61 O 1.01492 0.5367 0.11667 0.0
O62 O 0.04633 0.51328 0.14422 0.0
O63 O 0.03792 0.47314 0.13438 0.0
O64 O 0.99418 0.45948 0.11498 0.0
O65 O 1.02043 0.43178 0.11882 0.0
O66 O 0.08466 0.44174 0.11516 0.0
O67 O 0.09833 0.46951 0.13317 0.0
O68 O 0.0774 0.48075 0.09861 0.0
O69 O 0.0507 0.49662 0.10796 0.0
O70 O 0.1033 0.52221 0.12362 0.0
O71 O 0.0727 0.54559 0.12075 0.0
H72 H 0.92886 0.48488 0.13122 0.0
H73 H 0.88347 0.49116 0.12678 0.0
H74 H 0.94153 0.57254 0.10283 0.0
H75 H 0.98701 0.5666 0.10747 0.0
H76 H 0.14495 0.50453 0.11262 0.0
H77 H 0.20168 0.52586 0.11014 0.0
H78 H 0.19374 0.44498 0.1305 0.0
H79 H 0.13695 0.42377 0.13288 0.0
La80 La 0.56777 0.54101 0.12597 0.0
La81 La 0.6016 0.61313 0.11958 0.0
C82 C 0.54426 0.48238 0.12829 0.0
C83 C 0.54549 0.45339 0.12578 0.0
C84 C 0.53735 0.43181 0.1361 0.0
C85 C 0.53352 0.40204 0.13392 0.0
C86 C 0.53782 0.3931 0.12134 0.0
C87 C 0.5474 0.41524 0.11107 0.0
C88 C 0.551 0.44513 0.11325 0.0
C89 C 0.58489 0.58127 0.14585 0.0
C90 C 0.64006 0.57746 0.11755 0.0
C91 C 0.62465 0.67084 0.12413 0.0
C92 C 0.61468 0.69407 0.12173 0.0
C93 C 0.58728 0.68607 0.11453 0.0
C94 C 0.57603 0.70719 0.11362 0.0
C95 C 0.59193 0.73661 0.11996 0.0
C96 C 0.61967 0.74456 0.12698 0.0
C97 C 0.63089 0.72348 0.12785 0.0
C98 C 0.57719 0.57981 0.09794 0.0
C99 C 0.52644 0.57225 0.12212 0.0
O100 O 0.56429 0.50278 0.1367 0.0
O101 O 0.53794 0.49573 0.1185 0.0
O102 O 0.55905 0.55437 0.1456 0.0
O103 O 0.59976 0.58423 0.13544 0.0
O104 O 0.61321 0.55033 0.11844 0.0
O105 O 0.64175 0.60521 0.11902 0.0
O106 O 0.63222 0.65991 0.11382 0.0
O107 O 0.60678 0.64857 0.13241 0.0
O108 O 0.59188 0.6103 0.09837 0.0
O109 O 0.57682 0.57008 0.10941 0.0
O110 O 0.55216 0.60047 0.12292 0.0
O111 O 0.52748 0.5459 0.1218 0.0
H112 H 0.53284 0.43759 0.14583 0.0
H113 H 0.52665 0.38575 0.14208 0.0
H114 H 0.55086 0.40901 0.10126 0.0
H115 H 0.55716 0.46133 0.10509 0.0
H116 H 0.57424 0.66324 0.10987 0.0
H117 H 0.55481 0.70039 0.10803 0.0
H118 H 0.63224 0.76669 0.13219 0.0
H119 H 0.65177 0.72981 0.13364 0.0
La120 La 0.05901 0.52396 0.93665 0.0
La121 La 1.01798 0.45191 0.94127 0.0
C122 C 0.09635 0.58251 0.93589 0.0
C123 C 0.1245 0.61049 0.94128 0.0
C124 C 0.15503 0.61822 0.93738 0.0
C125 C 0.18081 0.64786 0.94027 0.0
C126 C 0.1766 0.67049 0.94702 0.0
C127 C 0.1463 0.66209 0.95149 0.0
C128 C 0.12058 0.6325 0.94862 0.0
C129 C 0.03943 0.48652 0.91568 0.0
C130 C 0.09098 0.48516 0.94609 0.0
C131 C 0.98225 0.39482 0.93612 0.0
C132 C 0.94848 0.37284 0.93842 0.0
C133 C 0.9383 0.34221 0.94284 0.0
C134 C 0.90619 0.321 0.94464 0.0
C135 C 0.88364 0.33003 0.94198 0.0
C136 C 0.89405 0.36094 0.93775 0.0
C137 C 0.92607 0.3821 0.93603 0.0
C138 C 1.02351 0.48186 0.96364 0.0
C139 C 0.98628 0.49482 0.9375 0.0
O140 O 0.10009 0.56211 0.92895 0.0
O141 O 0.07078 0.56914 0.9431 0.0
O142 O 0.04163 0.51388 0.91612 0.0
O143 O 0.04863 0.48181 0.92646 0.0
O144 O 0.09152 0.51242 0.94637 0.0
O145 O 0.06545 0.45843 0.94267 0.0
O146 O 1.00047 0.40453 0.94654 0.0
O147 O 0.98865 0.41768 0.92782 0.0
O148 O 1.00779 0.4516 0.96219 0.0
O149 O 0.03517 0.49368 0.95262 0.0
O150 O 0.98304 0.46634 0.93663 0.0
O151 O 1.0139 0.52043 0.9391 0.0
H152 H 0.15886 0.602 0.93155 0.0
H153 H 0.20378 0.6536 0.9366 0.0
H154 H 0.14229 0.67876 0.95689 0.0
H155 H 0.09733 0.62742 0.95163 0.0
H156 H 0.95518 0.33463 0.94481 0.0
H157 H 0.89906 0.29754 0.94811 0.0
H158 H 0.87744 0.36863 0.93541 0.0
H159 H 0.9332 0.40559 0.93262 0.0
La160 La 0.55229 0.56141 0.9367 0.0
La161 La 0.62473 0.59307 0.9417 0.0
C162 C 0.49367 0.53936 0.93537 0.0
C163 C 0.46522 0.54133 0.93833 0.0
C164 C 0.44512 0.53789 0.92787 0.0
C165 C 0.41545 0.5342 0.93021 0.0
C166 C 0.4051 0.53391 0.9431 0.0
C167 C 0.4258 0.53888 0.95359 0.0
C168 C 0.45558 0.54235 0.95124 0.0
C169 C 0.59046 0.57797 0.91606 0.0
C170 C 0.59126 0.63342 0.94495 0.0
C171 C 0.68189 0.61514 0.93625 0.0
C172 C 0.70505 0.605 0.9384 0.0
C173 C 0.69744 0.57812 0.94588 0.0
C174 C 0.71847 0.56675 0.94668 0.0
C175 C 0.74739 0.58201 0.93994 0.0
C176 C 0.75495 0.60922 0.93262 0.0
C177 C 0.73397 0.62057 0.93186 0.0
C178 C 0.59376 0.5693 0.96391 0.0
C179 C 0.58183 0.5182 0.93865 0.0
O180 O 0.51363 0.55896 0.92672 0.0
O181 O 0.50747 0.53262 0.94484 0.0
O182 O 0.56327 0.55252 0.9166 0.0
O183 O 0.59481 0.59268 0.92661 0.0
O184 O 0.56359 0.60707 0.94469 0.0
O185 O 0.61825 0.63409 0.94259 0.0
O186 O 0.67211 0.62356 0.94667 0.0
O187 O 0.65876 0.59689 0.92836 0.0
O188 O 0.62414 0.58343 0.96278 0.0
O189 O 0.58269 0.56912 0.95273 0.0
O190 O 0.61037 0.54343 0.93769 0.0
O191 O 0.55609 0.52016 0.93988 0.0
H192 H 0.45189 0.53679 0.91784 0.0
H193 H 0.40029 0.53094 0.92191 0.0
H194 H 0.41845 0.53873 0.96363 0.0
H195 H 0.47052 0.54473 0.9595 0.0
H196 H 0.67498 0.56559 0.95088 0.0
H197 H 0.712 0.54595 0.95251 0.0
H198 H 0.77669 0.62127 0.92711 0.0
H199 H 0.73997 0.64104 0.92586 0.0
La200 La 0.51531 0.01866 0.93615 0.0
La201 La 0.48331 0.05849 0.94247 0.0
C202 C 0.53758 0.98251 0.93381 0.0
C203 C 0.53684 0.95263 0.93658 0.0
C204 C 0.54315 0.93799 0.92614 0.0
C205 C 0.54753 0.91241 0.92839 0.0
C206 C 0.54557 0.90071 0.94115 0.0
C207 C 0.53778 0.91442 0.95158 0.0
C208 C 0.53367 0.94039 0.94932 0.0
C209 C 0.4972 0.04067 0.91614 0.0
C210 C 0.44408 0.9847 0.94557 0.0
C211 C 0.46081 0.09362 0.93798 0.0
C212 C 0.471 0.12681 0.94048 0.0
C213 C 0.49851 0.14595 0.94766 0.0
C214 C 0.51008 0.17837 0.94861 0.0
C215 C 0.49437 0.19217 0.94234 0.0
C216 C 0.46649 0.17261 0.93535 0.0
C217 C 0.45496 0.14028 0.93444 0.0
C218 C 0.50871 0.05082 0.96409 0.0
C219 C 0.55804 0.09135 0.93839 0.0
O220 O 0.5163 0.98202 0.92588 0.0
O221 O 0.54568 1.00346 0.94321 0.0
O222 O 0.52259 0.03882 0.91618 0.0
O223 O 0.48313 0.02992 0.92682 0.0
O224 O 0.4707 0.98404 0.94476 0.0
O225 O 0.44264 1.01072 0.94354 0.0
O226 O 0.45292 0.0749 0.94823 0.0
O227 O 0.47877 0.08927 0.92974 0.0
O228 O 0.49414 0.06671 0.96349 0.0
O229 O 0.50845 0.04049 0.95273 0.0
O230 O 0.53262 0.09442 0.93835 0.0
O231 O 0.5566 0.06382 0.93895 0.0
H232 H 0.54586 0.9471 0.91624 0.0
H233 H 0.553 0.90208 0.92013 0.0
H234 H 0.53615 0.9059 0.96152 0.0
H235 H 0.52898 0.95139 0.95756 0.0
H236 H 0.51142 0.13594 0.95226 0.0
H237 H 0.53141 0.19262 0.95416 0.0
H238 H 0.45407 0.18241 0.9302 0.0
H239 H 0.43401 0.12592 0.92866 0.0
La240 La 0.19914 0.383 0.45894 0.0
La241 La 0.12715 0.34141 0.45292 0.0
C242 C 0.25759 0.42066 0.46035 0.0
C243 C 0.28553 0.44916 0.45513 0.0
C244 C 0.29429 0.47918 0.46006 0.0
C245 C 0.32388 0.50503 0.45715 0.0
C246 C 0.34548 0.50138 0.44934 0.0
C247 C 0.33606 0.47165 0.44389 0.0
C248 C 0.30651 0.44587 0.44678 0.0
C249 C 0.15964 0.36144 0.47918 0.0
C250 C 0.16035 0.41488 0.44916 0.0
C251 C 0.06958 0.30535 0.45723 0.0
C252 C 0.04781 0.27197 0.45445 0.0
C253 C 0.05879 0.25343 0.44857 0.0
C254 C 0.03883 0.221 0.44717 0.0
C255 C 1.0075 0.20658 0.45158 0.0
C256 C 0.99648 0.22545 0.45722 0.0
C257 C 1.01652 0.25785 0.45867 0.0
C258 C 0.16037 0.34927 0.43132 0.0
C259 C 0.17033 0.31024 0.45722 0.0
O260 O 0.23665 0.42392 0.46712 0.0
O261 O 0.24479 0.39526 0.45304 0.0
O262 O 0.18752 0.36476 0.47927 0.0
O263 O 0.15564 0.37105 0.46835 0.0
O264 O 0.18786 0.41589 0.44943 0.0
O265 O 0.13334 0.38879 0.45179 0.0
O266 O 0.08027 0.32429 0.44705 0.0
O267 O 0.09186 0.31043 0.46565 0.0
O268 O 0.12995 0.33249 0.43193 0.0
O269 O 0.17017 0.36012 0.44261 0.0
O270 O 0.14163 0.30663 0.45765 0.0
O271 O 0.196 0.33808 0.45623 0.0
H272 H 0.27894 0.4825 0.46669 0.0
H273 H 0.33043 0.52751 0.4616 0.0
H274 H 0.3519 0.4681 0.43767 0.0
H275 H 0.3007 0.42302 0.44294 0.0
H276 H 0.08299 0.26397 0.44531 0.0
H277 H 0.04793 0.20722 0.44265 0.0
H278 H 0.97261 0.21503 0.46086 0.0
H279 H 1.0078 0.27178 0.46337 0.0
La280 La 0.69517 0.84148 0.45851 0.0
La281 La 0.73339 0.80769 0.45235 0.0
C282 C 0.65982 0.86481 0.46068 0.0
C283 C 0.62937 0.86313 0.45805 0.0
C284 C 0.61457 0.86921 0.4685 0.0
C285 C 0.58834 0.87259 0.46632 0.0
C286 C 0.57614 0.86994 0.4536 0.0
C287 C 0.59012 0.86248 0.44316 0.0
C288 C 0.61667 0.8593 0.44536 0.0
C289 C 0.71746 0.82366 0.47851 0.0
C290 C 0.65932 0.76936 0.44999 0.0
C291 C 0.76787 0.78457 0.45712 0.0
C292 C 0.80107 0.79451 0.45474 0.0
C293 C 0.82033 0.82162 0.44738 0.0
C294 C 0.85275 0.83301 0.44651 0.0
C295 C 0.86644 0.81754 0.45305 0.0
C296 C 0.84677 0.79005 0.46023 0.0
C297 C 0.81443 0.77869 0.46106 0.0
C298 C 0.72527 0.83206 0.43053 0.0
C299 C 0.76785 0.8828 0.45498 0.0
O300 O 0.66033 0.84498 0.46915 0.0
O301 O 0.67965 0.87118 0.45096 0.0
O302 O 0.71682 0.8497 0.47828 0.0
O303 O 0.70578 0.80915 0.46802 0.0
O304 O 0.65911 0.79623 0.45079 0.0
O305 O 0.6853 0.76762 0.45164 0.0
O306 O 0.74934 0.77681 0.4468 0.0
O307 O 0.76354 0.80265 0.4653 0.0
O308 O 0.74075 0.81707 0.43121 0.0
O309 O 0.71557 0.83272 0.44192 0.0
O310 O 0.77025 0.85705 0.45579 0.0
O311 O 0.74049 0.88183 0.45458 0.0
H312 H 0.62401 0.87243 0.47837 0.0
H313 H 0.57784 0.87777 0.4746 0.0
H314 H 0.58131 0.86034 0.43324 0.0
H315 H 0.62774 0.85479 0.4371 0.0
H316 H 0.81041 0.83436 0.44256 0.0
H317 H 0.86708 0.85402 0.4408 0.0
H318 H 0.85648 0.77782 0.46559 0.0
H319 H 0.79997 0.75805 0.46698 0.0
La320 La 0.23644 0.87602 0.45892 0.0
La321 La 0.26756 0.94805 0.45299 0.0
C322 C 0.21544 0.81757 0.46047 0.0
C323 C 0.21684 0.78966 0.45579 0.0
C324 C 0.23706 0.78082 0.46179 0.0
C325 C 0.23382 0.75129 0.4593 0.0
C326 C 0.21016 0.72977 0.45082 0.0
C327 C 0.19095 0.73925 0.44435 0.0
C328 C 0.19417 0.76875 0.44684 0.0
C329 C 0.25404 0.91558 0.47915 0.0
C330 C 0.3075 0.91439 0.4495 0.0
C331 C 0.28996 1.00558 0.45768 0.0
C332 C 0.27983 0.02867 0.45531 0.0
C333 C 0.25247 0.02059 0.44808 0.0
C334 C 0.24112 0.04161 0.44717 0.0
C335 C 0.25689 0.071 0.45353 0.0
C336 C 0.2846 0.07901 0.46059 0.0
C337 C 0.29592 0.05804 0.46146 0.0
C338 C 0.24265 0.91524 0.43126 0.0
C339 C 0.19288 0.9052 0.45683 0.0
O340 O 0.23857 0.83847 0.46774 0.0
O341 O 0.20395 0.83039 0.45255 0.0
O342 O 0.22907 0.88798 0.47911 0.0
O343 O 0.26801 0.91932 0.46844 0.0
O344 O 0.2809 0.88696 0.44973 0.0
O345 O 0.30856 0.94146 0.45208 0.0
O346 O 0.29782 0.99498 0.44736 0.0
O347 O 0.27203 0.9831 0.46588 0.0
O348 O 0.25648 0.94565 0.43195 0.0
O349 O 0.24329 0.90519 0.44256 0.0
O350 O 0.21809 0.93384 0.45735 0.0
O351 O 0.1949 0.87945 0.45591 0.0
H352 H 0.25456 0.79614 0.46884 0.0
H353 H 0.24937 0.745 0.4643 0.0
H354 H 0.17227 0.72325 0.43786 0.0
H355 H 0.17782 0.77453 0.44223 0.0
H356 H 0.23953 0.99777 0.4434 0.0
H357 H 0.21992 0.03477 0.44155 0.0
H358 H 0.29705 0.10112 0.46582 0.0
H359 H 0.31678 0.06442 0.46727 0.0
La360 La 0.7249 0.85742 0.26866 0.0
La361 La 0.68511 0.7858 0.27575 0.0
C362 C 0.761 0.91578 0.266 0.0
C363 C 0.79104 0.94479 0.26879 0.0
C364 C 0.8053 0.9663 0.2585 0.0
C365 C 0.8311 0.99609 0.26085 0.0
C366 C 0.84338 1.00511 0.27359 0.0
C367 C 0.83002 0.98304 0.28385 0.0
C368 C 0.80386 0.95312 0.28149 0.0
C369 C 0.70207 0.81616 0.24911 0.0
C370 C 0.75911 0.82048 0.27837 0.0
C371 C 0.6498 0.72789 0.2719 0.0
C372 C 0.61651 0.70542 0.27459 0.0
C373 C 0.59724 0.71544 0.28053 0.0
C374 C 0.56486 0.69477 0.28176 0.0
C375 C 0.5512 0.6637 0.27709 0.0
C376 C 0.57082 0.65367 0.27138 0.0
C377 C 0.60316 0.67439 0.27012 0.0
C378 C 0.69376 0.82044 0.29693 0.0
C379 C 0.65212 0.82734 0.27122 0.0
O380 O 0.7614 0.89479 0.25818 0.0
O381 O 0.74008 0.90318 0.27542 0.0
O382 O 0.70417 0.8435 0.24882 0.0
O383 O 0.71317 0.81342 0.25981 0.0
O384 O 0.75993 0.84779 0.27716 0.0
O385 O 0.73285 0.79293 0.27681 0.0
O386 O 0.66855 0.73938 0.28212 0.0
O387 O 0.65445 0.74961 0.26327 0.0
O388 O 0.67764 0.78996 0.29677 0.0
O389 O 0.70363 0.82955 0.28545 0.0
O390 O 0.64902 0.79887 0.27155 0.0
O391 O 0.67969 0.85352 0.27144 0.0
H392 H 0.79575 0.96043 0.24864 0.0
H393 H 0.84115 1.01233 0.25271 0.0
H394 H 0.83898 0.98935 0.29377 0.0
H395 H 0.79315 0.93696 0.28961 0.0
H396 H 0.60717 0.73943 0.28396 0.0
H397 H 0.5505 0.70315 0.28633 0.0
H398 H 0.56104 0.63006 0.26753 0.0
H399 H 0.61764 0.66641 0.26535 0.0
La400 La 0.21915 0.89563 0.26954 0.0
La401 La 0.29104 0.92642 0.27563 0.0
C402 C 0.16064 0.8744 0.2682 0.0
C403 C 0.13262 0.87468 0.27348 0.0
C404 C 0.12365 0.89587 0.26864 0.0
C405 C 0.09399 0.89186 0.27161 0.0
C406 C 0.07252 0.8664 0.27938 0.0
C407 C 0.08214 0.84616 0.28472 0.0
C408 C 0.11176 0.8502 0.28178 0.0
C409 C 0.25866 0.91386 0.2493 0.0
C410 C 0.25746 0.96624 0.27947 0.0
C411 C 0.34866 0.94809 0.27149 0.0
C412 C 0.37062 0.93645 0.27406 0.0
C413 C 0.40224 0.95767 0.27693 0.0
C414 C 0.42362 0.94695 0.27851 0.0
C415 C 0.41379 0.91476 0.27716 0.0
C416 C 0.38183 0.89351 0.27462 0.0
C417 C 0.36048 0.90422 0.27314 0.0
C418 C 0.25804 0.90083 0.29727 0.0
C419 C 0.24834 0.85206 0.27102 0.0
O420 O 0.1814 0.89868 0.26141 0.0
O421 O 0.17365 0.86197 0.27549 0.0
O422 O 0.23081 0.88926 0.2492 0.0
O423 O 0.26262 0.92746 0.26013 0.0
O424 O 0.23006 0.93964 0.27905 0.0
O425 O 0.28462 0.96742 0.27695 0.0
O426 O 0.33788 0.95584 0.28178 0.0
O427 O 0.32659 0.93186 0.26283 0.0
O428 O 0.28847 0.91493 0.29658 0.0
O429 O 0.24795 0.9016 0.28597 0.0
O430 O 0.27699 0.87722 0.27106 0.0
O431 O 0.22247 0.85387 0.27179 0.0
H432 H 0.13891 0.9147 0.26206 0.0
H433 H 0.08728 0.90775 0.26725 0.0
H434 H 0.0664 0.82661 0.29091 0.0
H435 H 0.11773 0.83322 0.28555 0.0
H436 H 0.41049 0.9826 0.27775 0.0
H437 H 0.44791 0.96393 0.28072 0.0
H438 H 0.3734 0.86866 0.27334 0.0
H439 H 0.33618 0.8873 0.27095 0.0
La440 La 0.18191 0.35089 0.26989 0.0
La441 La 0.15085 0.39178 0.27567 0.0
C442 C 0.20302 0.31354 0.26838 0.0
C443 C 0.20307 0.28538 0.27364 0.0
C444 C 0.18135 0.25502 0.26914 0.0
C445 C 0.1855 0.22943 0.27207 0.0
C446 C 0.21163 0.2337 0.27944 0.0
C447 C 0.23245 0.26379 0.28444 0.0
C448 C 0.22827 0.2893 0.28155 0.0
C449 C 0.16474 0.373 0.24956 0.0
C450 C 0.11079 0.31828 0.27915 0.0
C451 C 0.1292 0.42758 0.27117 0.0
C452 C 0.14061 0.46122 0.27354 0.0
C453 C 0.11927 0.47132 0.27661 0.0
C454 C 0.1297 0.50341 0.27801 0.0
C455 C 0.1617 0.52605 0.27627 0.0
C456 C 0.18309 0.51567 0.27351 0.0
C457 C 0.17268 0.48364 0.27222 0.0
C458 C 0.17479 0.38327 0.29759 0.0
C459 C 0.2256 0.42353 0.27263 0.0
O460 O 0.17842 0.30987 0.26178 0.0
O461 O 0.21579 0.33913 0.27557 0.0
O462 O 0.18964 0.37029 0.24968 0.0
O463 O 0.15062 0.36274 0.26022 0.0
O464 O 0.13741 0.31747 0.27912 0.0
O465 O 0.10984 0.3443 0.27647 0.0
O466 O 0.12136 0.40929 0.28155 0.0
O467 O 0.14559 0.42163 0.26265 0.0
O468 O 0.16091 0.39978 0.29677 0.0
O469 O 0.1747 0.37287 0.28627 0.0
O470 O 0.2005 0.42702 0.27167 0.0
O471 O 0.22338 0.39567 0.27349 0.0
H472 H 0.16194 0.25121 0.26286 0.0
H473 H 0.16912 0.20663 0.26798 0.0
H474 H 0.25255 0.26783 0.29031 0.0
H475 H 0.24567 0.31241 0.28504 0.0
H476 H 0.09446 0.4544 0.27774 0.0
H477 H 0.11263 0.51047 0.28038 0.0
H478 H 0.2078 0.5323 0.27193 0.0
H479 H 0.18966 0.47647 0.26987 0.0
La480 La 0.86438 0.71281 0.79233 0.0
La481 La 0.79685 0.67992 0.78428 0.0
C482 C 0.92349 0.74645 0.79461 0.0
C483 C 0.95225 0.7763 0.791 0.0
C484 C 0.95915 0.80535 0.7965 0.0
C485 C 0.98876 0.8322 0.79458 0.0
C486 C 1.01219 0.83054 0.78722 0.0
C487 C 1.00471 0.80173 0.78134 0.0
C488 C 0.9752 0.775 0.78323 0.0
C489 C 0.82283 0.6906 0.81177 0.0
C490 C 0.83188 0.75271 0.78515 0.0
C491 C 0.73805 0.64312 0.7838 0.0
C492 C 0.7171 0.60874 0.78351 0.0
C493 C 0.72749 0.58871 0.77868 0.0
C494 C 0.70742 0.55605 0.77877 0.0
C495 C 0.67655 0.54283 0.78367 0.0
C496 C 0.66641 0.56309 0.78857 0.0
C497 C 0.68651 0.59568 0.78849 0.0
C498 C 0.83647 0.702 0.76445 0.0
C499 C 0.83183 0.64046 0.79015 0.0
O500 O 0.9034 0.7473 0.80282 0.0
O501 O 0.90947 0.72547 0.78535 0.0
O502 O 0.84939 0.691 0.81192 0.0
O503 O 0.82136 0.70375 0.80144 0.0
O504 O 0.85799 0.75109 0.78499 0.0
O505 O 0.80395 0.72718 0.78671 0.0
O506 O 0.7551 0.65604 0.77331 0.0
O507 O 0.75432 0.65443 0.79459 0.0
O508 O 0.80966 0.70117 0.76494 0.0
O509 O 0.83966 0.68912 0.77466 0.0
O510 O 0.80516 0.64018 0.78771 0.0
O511 O 0.85883 0.66674 0.79146 0.0
H512 H 0.94214 0.80714 0.80266 0.0
H513 H 0.99373 0.85393 0.79934 0.0
H514 H 1.02191 0.79965 0.77542 0.0
H515 H 0.97072 0.75292 0.77897 0.0
H516 H 0.75107 0.5983 0.7748 0.0
H517 H 0.7159 0.5412 0.77482 0.0
H518 H 0.64299 0.55374 0.7926 0.0
H519 H 0.67818 0.61073 0.79239 0.0
La520 La 0.3603 0.17757 0.79264 0.0
La521 La 0.39861 0.14377 0.78712 0.0
C522 C 0.32499 0.20107 0.79419 0.0
C523 C 0.29421 0.19869 0.79166 0.0
C524 C 0.27981 0.20551 0.80204 0.0
C525 C 0.25329 0.20839 0.79985 0.0
C526 C 0.24043 0.20449 0.78719 0.0
C527 C 0.25399 0.19625 0.77686 0.0
C528 C 0.28082 0.19357 0.77905 0.0
C529 C 0.38244 0.16074 0.81303 0.0
C530 C 0.32428 0.10469 0.78531 0.0
C531 C 0.43394 0.12167 0.792 0.0
C532 C 0.46699 0.13194 0.789 0.0
C533 C 0.4859 0.16045 0.78242 0.0
C534 C 0.51818 0.17194 0.78092 0.0
C535 C 0.5321 0.15507 0.78593 0.0
C536 C 0.51282 0.12613 0.79225 0.0
C537 C 0.48057 0.11474 0.7938 0.0
C538 C 0.39084 0.16714 0.76491 0.0
C539 C 0.43297 0.21907 0.78938 0.0
O540 O 0.3264 0.18279 0.8032 0.0
O541 O 0.34394 0.20585 0.78428 0.0
O542 O 0.38164 0.18669 0.81249 0.0
O543 O 0.37095 0.14578 0.80261 0.0
O544 O 0.32394 0.13153 0.7857 0.0
O545 O 0.35051 0.10336 0.78695 0.0
O546 O 0.41427 0.11236 0.78203 0.0
O547 O 0.43011 0.14052 0.79991 0.0
O548 O 0.40591 0.15183 0.76596 0.0
O549 O 0.38095 0.16843 0.7762 0.0
O550 O 0.43533 0.19334 0.79042 0.0
O551 O 0.40559 0.21798 0.78872 0.0
H552 H 0.28979 0.20974 0.81183 0.0
H553 H 0.24312 0.21421 0.80806 0.0
H554 H 0.24465 0.19315 0.76699 0.0
H555 H 0.29157 0.18847 0.77084 0.0
H556 H 0.47582 0.17415 0.77872 0.0
H557 H 0.53226 0.1941 0.77587 0.0
H558 H 0.52281 0.11273 0.79637 0.0
H559 H 0.46638 0.0929 0.79905 0.0
La560 La 0.90105 0.21142 0.79247 0.0
La561 La 0.93231 0.28263 0.78531 0.0
C562 C 0.88031 0.15325 0.79502 0.0
C563 C 0.88163 0.12545 0.7902 0.0
C564 C 0.90362 0.11789 0.79533 0.0
C565 C 0.90094 0.08867 0.79269 0.0
C566 C 0.87606 0.06626 0.78493 0.0
C567 C 0.85497 0.07444 0.77931 0.0
C568 C 0.85766 0.10362 0.78194 0.0
C569 C 0.91898 0.25263 0.8121 0.0
C570 C 0.9717 0.2484 0.78261 0.0
C571 C 0.955 0.34065 0.78859 0.0
C572 C 0.94435 0.36297 0.78538 0.0
C573 C 0.96526 0.3953 0.78648 0.0
C574 C 0.95441 0.41657 0.78503 0.0
C575 C 0.92233 0.4058 0.7826 0.0
C576 C 0.90172 0.37333 0.78097 0.0
C577 C 0.91268 0.35213 0.7823 0.0
C578 C 0.90727 0.24788 0.76403 0.0
C579 C 0.85762 0.24042 0.78899 0.0
O580 O 0.90444 0.1749 0.8016 0.0
O581 O 0.86745 0.16519 0.78736 0.0
O582 O 0.89407 0.22502 0.81237 0.0
O583 O 0.93289 0.25551 0.80143 0.0
O584 O 0.94495 0.22116 0.7831 0.0
O585 O 0.97309 0.27574 0.78484 0.0
O586 O 0.96263 0.32873 0.77867 0.0
O587 O 0.93764 0.31935 0.79733 0.0
O588 O 0.92119 0.27832 0.76422 0.0
O589 O 0.90785 0.23887 0.77554 0.0
O590 O 0.8829 0.26901 0.78943 0.0
O591 O 0.85956 0.21457 0.78871 0.0
H592 H 0.9221 0.13393 0.80189 0.0
H593 H 0.91743 0.08307 0.79728 0.0
H594 H 0.83583 0.05794 0.77313 0.0
H595 H 0.8401 0.10853 0.77795 0.0
H596 H 0.9898 0.40406 0.78882 0.0
H597 H 0.97109 0.44144 0.78605 0.0
H598 H 0.87686 0.36412 0.77921 0.0
H599 H 0.89618 0.32719 0.78138 0.0
La600 La 0.38681 0.18595 0.60428 0.0
La601 La 0.35023 0.11362 0.60861 0.0
C602 C 0.42127 0.24502 0.60322 0.0
C603 C 0.45232 0.27364 0.60519 0.0
C604 C 0.46623 0.29377 0.59442 0.0
C605 C 0.4927 0.3235 0.59609 0.0
C606 C 0.50603 0.33393 0.60859 0.0
C607 C 0.49305 0.31323 0.61931 0.0
C608 C 0.46626 0.28339 0.61765 0.0
C609 C 0.36571 0.14859 0.58336 0.0
C610 C 0.42438 0.15011 0.61072 0.0
C611 C 0.31601 0.05677 0.60242 0.0
C612 C 0.28289 0.03309 0.60475 0.0
C613 C 0.2635 0.04037 0.61232 0.0
C614 C 0.23116 0.01906 0.61321 0.0
C615 C 0.21766 0.99012 0.6065 0.0
C616 C 0.23743 0.98281 0.59913 0.0
C617 C 0.26972 1.00413 0.59826 0.0
C618 C 0.35685 0.14173 0.6315 0.0
C619 C 0.31438 0.1533 0.60798 0.0
O620 O 0.41841 0.22608 0.5936 0.0
O621 O 0.40416 0.22996 0.61346 0.0
O622 O 0.3647 0.17435 0.58452 0.0
O623 O 0.37777 0.14497 0.59357 0.0
O624 O 0.42403 0.17695 0.6106 0.0
O625 O 0.39861 0.12232 0.60882 0.0
O626 O 0.33485 0.06608 0.61266 0.0
O627 O 0.32001 0.08031 0.59502 0.0
O628 O 0.34292 0.11154 0.62978 0.0
O629 O 0.36665 0.15465 0.62042 0.0
O630 O 0.31264 0.12564 0.60618 0.0
O631 O 0.34145 0.17982 0.60891 0.0
H632 H 0.45584 0.28697 0.58473 0.0
H633 H 0.50239 0.33863 0.58759 0.0
H634 H 0.50274 0.32063 0.62907 0.0
H635 H 0.45591 0.26849 0.62616 0.0
H636 H 0.27327 0.06282 0.6173 0.0
H637 H 0.21673 0.02533 0.61907 0.0
H638 H 0.22783 0.96102 0.59367 0.0
H639 H 0.28427 0.99836 0.5922 0.0
La640 La 0.88623 0.22569 0.60292 0.0
La641 La 0.9582 0.25635 0.60892 0.0
C642 C 0.82774 0.20466 0.60157 0.0
C643 C 0.79962 0.20528 0.60651 0.0
C644 C 0.79123 0.22674 0.60147 0.0
C645 C 0.76149 0.22297 0.60405 0.0
C646 C 0.73936 0.19749 0.61163 0.0
C647 C 0.74839 0.17699 0.61719 0.0
C648 C 0.77809 0.18079 0.61463 0.0
C649 C 0.92573 0.24414 0.58268 0.0
C650 C 0.92481 0.29639 0.61277 0.0
C651 C 1.01574 0.27767 0.60457 0.0
C652 C 0.03724 0.26572 0.60737 0.0
C653 C 1.02579 0.23593 0.61307 0.0
C654 C 0.04542 0.22309 0.61446 0.0
C655 C 0.07693 0.23993 0.61026 0.0
C656 C 0.08847 0.27013 0.60486 0.0
C657 C 0.06872 0.28284 0.60338 0.0
C658 C 0.92533 0.23079 0.63058 0.0
C659 C 0.91526 0.18197 0.60423 0.0
O660 O 0.84853 0.22839 0.59454 0.0
O661 O 0.8407 0.19272 0.60918 0.0
O662 O 0.89792 0.21949 0.58255 0.0
O663 O 0.92967 0.25759 0.59355 0.0
O664 O 0.89737 0.26983 0.61238 0.0
O665 O 0.95193 0.29747 0.61021 0.0
O666 O 1.00515 0.28602 0.61475 0.0
O667 O 0.99341 0.26065 0.59614 0.0
O668 O 0.95577 0.24491 0.62987 0.0
O669 O 0.91518 0.23155 0.6193 0.0
O670 O 0.94395 0.20709 0.60429 0.0
O671 O 0.88942 0.18385 0.60502 0.0
H672 H 0.80702 0.2456 0.59501 0.0
H673 H 0.75527 0.23908 0.59953 0.0
H674 H 0.73215 0.15743 0.62325 0.0
H675 H 0.78362 0.16361 0.61854 0.0
H676 H 1.00149 0.22235 0.61619 0.0
H677 H 0.03594 0.19996 0.6188 0.0
H678 H 0.11253 0.28356 0.60143 0.0
H679 H 0.07784 0.30573 0.59884 0.0
La680 La 0.84595 0.67908 0.60267 0.0
La681 La 0.81551 0.72061 0.60772 0.0
C682 C 0.86687 0.64152 0.60158 0.0
C683 C 0.8672 0.61355 0.6069 0.0
C684 C 0.84562 0.58307 0.60248 0.0
C685 C 0.85015 0.55771 0.60539 0.0
C686 C 0.87654 0.56233 0.61265 0.0
C687 C 0.89722 0.59253 0.61759 0.0
C688 C 0.89265 0.6178 0.61473 0.0
C689 C 0.82912 0.70043 0.58195 0.0
C690 C 0.77482 0.6473 0.61173 0.0
C691 C 0.79459 0.75683 0.60272 0.0
C692 C 0.80632 0.7906 0.60495 0.0
C693 C 0.78537 0.80091 0.60845 0.0
C694 C 0.79607 0.83307 0.60987 0.0
C695 C 0.82796 0.85557 0.60773 0.0
C696 C 0.84896 0.845 0.60449 0.0
C697 C 0.83829 0.81292 0.60317 0.0
C698 C 0.83906 0.71327 0.62999 0.0
C699 C 0.89023 0.75165 0.60447 0.0
O700 O 0.84227 0.63765 0.59493 0.0
O701 O 0.87958 0.66725 0.60867 0.0
O702 O 0.85401 0.69773 0.58231 0.0
O703 O 0.81491 0.69068 0.59262 0.0
O704 O 0.80134 0.64631 0.61199 0.0
O705 O 0.77416 0.67331 0.6087 0.0
O706 O 0.78618 0.73867 0.61315 0.0
O707 O 0.811 0.75041 0.59441 0.0
O708 O 0.8252 0.7297 0.62874 0.0
O709 O 0.83915 0.70207 0.61886 0.0
O710 O 0.86526 0.75535 0.60348 0.0
O711 O 0.88771 0.72378 0.60583 0.0
H712 H 0.82603 0.57901 0.59626 0.0
H713 H 0.83387 0.53481 0.60135 0.0
H714 H 0.91751 0.59684 0.62338 0.0
H715 H 0.90996 0.64102 0.61815 0.0
H716 H 0.76066 0.78411 0.60994 0.0
H717 H 0.77931 0.84027 0.6126 0.0
H718 H 0.87355 0.86152 0.60259 0.0
H719 H 0.855 0.80564 0.60046 0.0
C720 C 0.53991 0.95285 0.12352 0.0
C721 C 0.50917 0.94811 0.12367 0.0
C722 C 0.54514 0.9275 0.12363 0.0
C723 C 0.50949 0.84324 0.11622 0.0
H724 H 0.58027 0.85264 0.13678 0.0
C725 C 0.54677 0.74745 0.12066 0.0
C726 C 0.57932 0.75866 0.11966 0.0
C727 C 0.5353 0.76844 0.12128 0.0
C728 C 0.56054 0.8497 0.13093 0.0
H729 H 0.45969 0.91256 0.12391 0.0
H730 H 0.46897 0.86781 0.12421 0.0
H731 H 0.56458 0.89229 0.13827 0.0
H732 H 0.62504 0.80081 0.11784 0.0
H733 H 0.60512 0.83721 0.11912 0.0
H734 H 0.50572 0.80046 0.10889 0.0
C735 C 0.48897 0.89146 0.12395 0.0
C736 C 0.55151 0.87243 0.13178 0.0
C737 C 0.48366 0.91707 0.12385 0.0
C738 C 0.59994 0.7913 0.11892 0.0
C739 C 0.58852 0.8122 0.11964 0.0
C740 C 0.51846 0.82027 0.11543 0.0
C741 C 0.51986 0.89648 0.12395 0.0
C742 C 0.52644 0.86998 0.12418 0.0
C743 C 0.55613 0.80107 0.12102 0.0
C744 C 0.5446 0.82372 0.12254 0.0
H745 H 0.56026 0.97629 0.12327 0.0
H746 H 0.5692 0.93231 0.1233 0.0
H747 H 0.49016 0.84069 0.11021 0.0
H748 H 0.5302 0.72249 0.12139 0.0
H749 H 0.51024 0.75917 0.1224 0.0
C750 C 0.2855 0.82577 0.11675 0.0
C751 C 0.318 0.83824 0.11854 0.0
C752 C 0.26481 0.79343 0.11754 0.0
C753 C 0.25795 0.71563 0.11548 0.0
H754 H 0.18289 0.69065 0.13623 0.0
C755 C 0.15906 0.5846 0.12405 0.0
C756 C 0.12835 0.57948 0.12248 0.0
C757 C 0.18496 0.61536 0.12426 0.0
C758 C 0.20367 0.6972 0.13036 0.0
H759 H 0.35426 0.82617 0.12218 0.0
H760 H 0.31794 0.76942 0.12333 0.0
H761 H 0.22275 0.74595 0.13473 0.0
H762 H 0.10109 0.60287 0.11961 0.0
H763 H 0.1456 0.65551 0.11989 0.0
H764 H 0.23818 0.66664 0.11085 0.0
C765 C 0.30863 0.78487 0.12133 0.0
C766 C 0.22647 0.7289 0.12949 0.0
C767 C 0.3294 0.81736 0.12063 0.0
C768 C 0.12424 0.60567 0.12098 0.0
C769 C 0.14985 0.63606 0.12122 0.0
C770 C 0.23491 0.68372 0.1163 0.0
C771 C 0.27606 0.77266 0.12006 0.0
C772 C 0.25348 0.73858 0.12178 0.0
C773 C 0.18048 0.6414 0.123 0.0
C774 C 0.20712 0.67431 0.12347 0.0
H775 H 0.27596 0.84105 0.11483 0.0
H776 H 0.23987 0.78464 0.11623 0.0
H777 H 0.27861 0.72246 0.10949 0.0
H778 H 0.16307 0.56496 0.12516 0.0
H779 H 0.20835 0.61879 0.12563 0.0
C780 C 0.24934 0.48135 0.11575 0.0
C781 C 0.23683 0.50061 0.11914 0.0
C782 C 0.28185 0.49379 0.11498 0.0
C783 C 0.35725 0.55852 0.12696 0.0
H784 H 0.39121 0.52998 0.09929 0.0
C785 C 0.49029 0.59507 0.12294 0.0
C786 C 0.49495 0.56933 0.12101 0.0
C787 C 0.46003 0.59125 0.12181 0.0
C788 C 0.3821 0.53821 0.10708 0.0
H789 H 0.24873 0.54805 0.12448 0.0
H790 H 0.30566 0.56984 0.12305 0.0
H791 H 0.33566 0.51441 0.09899 0.0
H792 H 0.47138 0.5195 0.11623 0.0
H793 H 0.41947 0.51308 0.11431 0.0
H794 H 0.40376 0.58166 0.13521 0.0
C795 C 0.29023 0.54509 0.12101 0.0
C796 C 0.35027 0.52921 0.10693 0.0
C797 C 0.25764 0.53266 0.12171 0.0
C798 C 0.46886 0.53993 0.11783 0.0
C799 C 0.43898 0.53623 0.1166 0.0
C800 C 0.38923 0.56755 0.12712 0.0
C801 C 0.30269 0.52578 0.11762 0.0
C802 C 0.33726 0.5385 0.11705 0.0
C803 C 0.43413 0.56175 0.11854 0.0
C804 C 0.40174 0.55669 0.11738 0.0
H805 H 0.23396 0.45664 0.11361 0.0
H806 H 0.29068 0.47817 0.11251 0.0
H807 H 0.34791 0.56599 0.13493 0.0
H808 H 0.5099 0.61804 0.12537 0.0
H809 H 0.45694 0.61135 0.12335 0.0
C810 C 0.92742 0.47342 0.93672 0.0
C811 C 0.95839 0.49904 0.93678 0.0
C812 C 0.90168 0.4785 0.93634 0.0
C813 C 0.88188 0.53997 0.92762 0.0
H814 H 0.8113 0.49627 0.95138 0.0
C815 C 0.80203 0.5898 0.9405 0.0
C816 C 0.7693 0.56927 0.94016 0.0
C817 C 0.82275 0.57817 0.93973 0.0
C818 C 0.83069 0.50839 0.94459 0.0
H819 H 0.98637 0.55011 0.93647 0.0
H820 H 0.94215 0.5587 0.93595 0.0
H821 H 0.85146 0.48061 0.95012 0.0
H822 H 0.73282 0.52017 0.93907 0.0
H823 H 0.76922 0.49987 0.93797 0.0
H824 H 0.86179 0.56829 0.92234 0.0
C825 C 0.93749 0.53469 0.93599 0.0
C826 C 0.85361 0.49936 0.94383 0.0
C827 C 0.96297 0.52968 0.9364 0.0
C828 C 0.75786 0.53667 0.93949 0.0
C829 C 0.77868 0.525 0.93881 0.0
C830 C 0.8592 0.54906 0.92844 0.0
C831 C 0.90653 0.50928 0.9359 0.0
C832 C 0.87989 0.51562 0.93556 0.0
C833 C 0.81134 0.5457 0.93868 0.0
C834 C 0.83375 0.53391 0.93714 0.0
H835 H 0.92304 0.44954 0.93708 0.0
H836 H 0.87806 0.45842 0.93627 0.0
H837 H 0.9014 0.55248 0.92091 0.0
H838 H 0.81171 0.61496 0.94132 0.0
H839 H 0.84782 0.59468 0.93994 0.0
C840 C 0.48704 0.23919 0.94351 0.0
C841 C 0.50736 0.22685 0.94263 0.0
C842 C 0.49876 0.27155 0.94272 0.0
C843 C 0.56932 0.34941 0.9464 0.0
H844 H 0.52266 0.37517 0.92382 0.0
C845 C 0.60336 0.48088 0.93781 0.0
C846 C 0.57769 0.4861 0.93844 0.0
C847 C 0.59833 0.45006 0.93766 0.0
C848 C 0.53592 0.36841 0.93021 0.0
H849 H 0.55625 0.23923 0.94059 0.0
H850 H 0.57675 0.29597 0.93944 0.0
H851 H 0.5069 0.31981 0.92536 0.0
H852 H 0.52663 0.46278 0.93957 0.0
H853 H 0.51818 0.41005 0.93941 0.0
H854 H 0.59787 0.39822 0.95149 0.0
C855 C 0.5517 0.2804 0.94072 0.0
C856 C 0.52684 0.33666 0.93111 0.0
C857 C 0.53992 0.2479 0.94143 0.0
C858 C 0.54709 0.45992 0.93898 0.0
C859 C 0.54214 0.42947 0.9388 0.0
C860 C 0.57836 0.38135 0.94556 0.0
C861 C 0.53114 0.29249 0.94111 0.0
C862 C 0.54291 0.32667 0.93944 0.0
C863 C 0.56756 0.42404 0.93803 0.0
C864 C 0.56119 0.39106 0.93771 0.0
H865 H 0.46194 0.2238 0.94475 0.0
H866 H 0.48238 0.28021 0.94334 0.0
H867 H 0.58218 0.34237 0.9529 0.0
H868 H 0.62724 0.50049 0.93743 0.0
H869 H 0.61841 0.4466 0.93706 0.0
C870 C 0.61557 0.11596 0.93462 0.0
C871 C 0.58986 0.11946 0.93821 0.0
C872 C 0.6462 0.14092 0.93578 0.0
C873 C 0.69579 0.22646 0.93872 0.0
H874 H 0.75484 0.20373 0.95322 0.0
C875 C 0.8283 0.31656 0.94772 0.0
C876 C 0.84935 0.30709 0.94313 0.0
C877 C 0.79593 0.29523 0.94819 0.0
C878 C 0.73869 0.21044 0.94912 0.0
H879 H 0.57609 0.15248 0.94524 0.0
H880 H 0.63031 0.19662 0.94732 0.0
H881 H 0.69928 0.16437 0.95183 0.0
H882 H 0.85259 0.26769 0.93534 0.0
H883 H 0.7964 0.23052 0.93639 0.0
H884 H 0.7356 0.27261 0.9359 0.0
C885 C 0.62643 0.17429 0.94362 0.0
C886 C 0.70686 0.18791 0.94831 0.0
C887 C 0.59546 0.1491 0.94241 0.0
C888 C 0.83725 0.2757 0.93919 0.0
C889 C 0.80498 0.25438 0.93974 0.0
C890 C 0.72779 0.24915 0.93957 0.0
C891 C 0.65211 0.17011 0.94062 0.0
C892 C 0.68516 0.19539 0.94278 0.0
C893 C 0.78395 0.26392 0.9442 0.0
C894 C 0.74965 0.2411 0.94449 0.0
H895 H 0.61213 0.09364 0.9311 0.0
H896 H 0.6654 0.13719 0.93301 0.0
H897 H 0.67962 0.23289 0.93441 0.0
H898 H 0.83683 0.34043 0.95102 0.0
H899 H 0.78031 0.30316 0.95179 0.0
C900 C 0.2116 0.08157 0.45428 0.0
C901 C 0.24416 0.09291 0.45325 0.0
C902 C 0.20003 0.10246 0.45499 0.0
C903 C 0.22495 0.18327 0.46499 0.0
H904 H 0.15526 0.17518 0.44404 0.0
C905 C 0.20528 0.28696 0.45765 0.0
C906 C 0.17462 0.2824 0.45763 0.0
C907 C 0.2103 0.26148 0.45783 0.0
C908 C 0.17438 0.17744 0.45013 0.0
H909 H 0.28981 0.13515 0.45142 0.0
H910 H 0.26971 0.17139 0.45286 0.0
H911 H 0.17069 0.13487 0.44258 0.0
H912 H 0.12504 0.24708 0.4577 0.0
H913 H 0.13395 0.20212 0.45811 0.0
H914 H 0.22894 0.22567 0.47253 0.0
C915 C 0.25318 0.14636 0.45334 0.0
C916 C 0.18328 0.15444 0.44925 0.0
C917 C 0.2647 0.12557 0.45253 0.0
C918 C 0.14897 0.25144 0.45776 0.0
C919 C 0.15405 0.22571 0.45793 0.0
C920 C 0.21599 0.20602 0.46593 0.0
C921 C 0.2208 0.13509 0.45477 0.0
C922 C 0.2092 0.15762 0.45643 0.0
C923 C 0.18486 0.23054 0.45805 0.0
C924 C 0.19119 0.2039 0.45825 0.0
H925 H 0.1951 0.05659 0.455 0.0
H926 H 0.17496 0.09311 0.45614 0.0
H927 H 0.24453 0.18595 0.47089 0.0
H928 H 0.22573 0.31034 0.45746 0.0
H929 H 0.23431 0.26613 0.45761 0.0
C930 C 0.95496 0.15925 0.44669 0.0
C931 C 0.9865 0.17194 0.45055 0.0
C932 C 0.93492 0.12673 0.44608 0.0
C933 C 0.92371 0.052 0.45925 0.0
H934 H 0.86161 1.0166 0.43142 0.0
C935 C 0.8269 0.91883 0.45591 0.0
C936 C 0.79652 0.91423 0.45387 0.0
C937 C 0.85345 0.94898 0.45468 0.0
C938 C 0.87886 0.02612 0.43925 0.0
H939 H 1.0217 0.16032 0.45682 0.0
H940 H 0.98667 0.10338 0.45563 0.0
H941 H 0.90183 0.07201 0.43068 0.0
H942 H 0.77043 0.93781 0.44882 0.0
H943 H 0.81615 0.98954 0.44669 0.0
H944 H 0.90004 1.00599 0.46794 0.0
C945 C 0.97747 0.11868 0.45313 0.0
C946 C 0.90182 0.05788 0.43885 0.0
C947 C 0.9976 0.15129 0.45369 0.0
C948 C 0.79335 0.94028 0.45051 0.0
C949 C 0.81965 0.97005 0.44916 0.0
C950 C 0.90066 0.02007 0.45963 0.0
C951 C 0.94588 0.10602 0.44933 0.0
C952 C 0.92397 0.07144 0.44903 0.0
C953 C 0.85 0.97483 0.45118 0.0
C954 C 0.87745 1.00706 0.44983 0.0
H955 H 0.94574 0.17448 0.44411 0.0
H956 H 0.91061 0.1178 0.44329 0.0
H957 H 0.94037 0.06174 0.46727 0.0
H958 H 0.83016 0.89925 0.45849 0.0
H959 H 0.87662 0.95204 0.45629 0.0
C960 C 0.13458 0.87031 0.45708 0.0
C961 C 0.16072 0.90096 0.45712 0.0
C962 C 0.10407 0.86528 0.45725 0.0
C963 C 0.05566 0.90083 0.44962 0.0
H964 H 0.9944 0.8309 0.47056 0.0
C965 C 0.92229 0.86298 0.4537 0.0
C966 C 0.90114 0.83038 0.45282 0.0
C967 C 0.95481 0.8747 0.45442 0.0
C968 C 1.01117 0.85041 0.46461 0.0
H969 H 0.17499 0.95049 0.45726 0.0
H970 H 0.12102 0.94154 0.45764 0.0
H971 H 0.04983 0.84677 0.47214 0.0
H972 H 0.89794 0.78481 0.45132 0.0
H973 H 0.95437 0.80519 0.45276 0.0
H974 H 1.01653 0.90414 0.44206 0.0
C975 C 0.12454 0.92147 0.45743 0.0
C976 C 0.04296 0.85954 0.46552 0.0
C977 C 0.15541 0.92658 0.45728 0.0
C978 C 0.9134 0.80995 0.4523 0.0
C979 C 0.94577 0.82163 0.45311 0.0
C980 C 1.02368 0.89175 0.44877 0.0
C981 C 0.09854 0.89067 0.45752 0.0
C982 C 0.06552 0.88426 0.45777 0.0
C983 C 0.96682 0.85408 0.45438 0.0
C984 C 1.00104 0.86589 0.45601 0.0
H985 H 0.1375 0.84987 0.45687 0.0
H986 H 0.08468 0.84127 0.45701 0.0
H987 H 0.07242 0.91989 0.44349 0.0
H988 H 0.9137 0.8794 0.45427 0.0
H989 H 0.97046 0.8998 0.45544 0.0
C990 C 0.42876 0.87423 0.28343 0.0
C991 C 0.4369 0.90355 0.2778 0.0
C992 C 0.45018 0.86329 0.28348 0.0
C993 C 0.53486 0.89111 0.28132 0.0
H994 H 0.50983 0.80661 0.2696 0.0
C995 C 0.62701 0.8594 0.26655 0.0
C996 C 0.62397 0.83097 0.27104 0.0
C997 C 0.60223 0.86533 0.26775 0.0
C998 C 0.51704 0.8301 0.27307 0.0
H999 H 0.47399 0.944 0.26765 0.0
H1000 H 0.51138 0.92527 0.26802 0.0
H1001 H 0.47029 0.82298 0.27152 0.0
H1002 H 0.59192 0.78571 0.27971 0.0
H1003 H 0.54818 0.79627 0.28191 0.0
H1004 H 0.58145 0.8985 0.28283 0.0
C1005 C 0.48851 0.91088 0.2725 0.0
C1006 C 0.49445 0.83948 0.27417 0.0
C1007 C 0.46707 0.92169 0.27234 0.0
C1008 C 0.59491 0.80784 0.27617 0.0
C1009 C 0.56994 0.8139 0.27744 0.0
C1010 C 0.55729 0.88175 0.28028 0.0
C1011 C 0.4803 0.88156 0.27804 0.0
C1012 C 0.50332 0.87033 0.27802 0.0
C1013 C 0.57372 0.84312 0.27355 0.0
C1014 C 0.54885 0.85143 0.27583 0.0
H1015 H 0.40589 0.85979 0.28788 0.0
H1016 H 0.44332 0.84073 0.28793 0.0
H1017 H 0.54228 0.91479 0.28459 0.0
H1018 H 0.64887 0.8775 0.26232 0.0
H1019 H 0.60561 0.88767 0.26428 0.0
C1020 C 0.21529 0.79491 0.26638 0.0
C1021 C 0.24424 0.82012 0.27057 0.0
C1022 C 0.20915 0.76408 0.2673 0.0
C1023 C 0.24462 0.71383 0.27147 0.0
H1024 H 0.16054 0.654 0.2836 0.0
C1025 C 0.2022 0.58196 0.28205 0.0
C1026 C 0.17258 0.56033 0.27677 0.0
C1027 C 0.2128 0.61425 0.28197 0.0
C1028 C 0.18405 0.67036 0.28013 0.0
H1029 H 0.29009 0.83282 0.27849 0.0
H1030 H 0.27919 0.77841 0.28022 0.0
H1031 H 0.17654 0.7094 0.28196 0.0
H1032 H 0.13118 0.55606 0.26711 0.0
H1033 H 0.14934 0.61208 0.26727 0.0
H1034 H 0.25191 0.67439 0.26967 0.0
C1035 C 0.26132 0.78273 0.27616 0.0
C1036 C 0.19323 0.70213 0.27916 0.0
C1037 C 0.26758 0.81386 0.27516 0.0
C1038 C 0.15377 0.57183 0.27153 0.0
C1039 C 0.16425 0.60401 0.27156 0.0
C1040 C 0.23543 0.68191 0.27251 0.0
C1041 C 0.23168 0.75747 0.27254 0.0
C1042 C 0.22336 0.72418 0.27454 0.0
C1043 C 0.1939 0.62559 0.27674 0.0
C1044 C 0.20481 0.65978 0.2766 0.0
H1045 H 0.19697 0.79892 0.26258 0.0
H1046 H 0.18644 0.74529 0.26405 0.0
H1047 H 0.26796 0.7302 0.26785 0.0
H1048 H 0.21716 0.57397 0.28633 0.0
H1049 H 0.23561 0.63031 0.28616 0.0
C1050 C 0.49541 0.65256 0.27489 0.0
C1051 C 0.51658 0.64198 0.27786 0.0
C1052 C 0.46288 0.63178 0.27514 0.0
C1053 C 0.40271 0.55423 0.28821 0.0
H1054 H 0.35082 0.55491 0.25961 0.0
C1055 C 0.28332 0.44736 0.27646 0.0
C1056 C 0.25767 0.45151 0.2734 0.0
C1057 C 0.31358 0.47307 0.27766 0.0
C1058 C 0.3649 0.55476 0.26777 0.0
H1059 H 0.52002 0.60136 0.28369 0.0
H1060 H 0.4635 0.56511 0.28394 0.0
H1061 H 0.4065 0.59532 0.26063 0.0
H1062 H 0.2441 0.48629 0.26902 0.0
H1063 H 0.29753 0.5316 0.27105 0.0
H1064 H 0.36145 0.51332 0.29519 0.0
C1065 C 0.47196 0.58952 0.28152 0.0
C1066 C 0.3968 0.57788 0.26836 0.0
C1067 C 0.50442 0.61024 0.28124 0.0
C1068 C 0.26325 0.48224 0.27142 0.0
C1069 C 0.29384 0.50815 0.27254 0.0
C1070 C 0.37096 0.53118 0.28761 0.0
C1071 C 0.45076 0.59998 0.27844 0.0
C1072 C 0.41624 0.57744 0.27843 0.0
C1073 C 0.31926 0.50378 0.27581 0.0
C1074 C 0.35186 0.5307 0.27722 0.0
H1075 H 0.504 0.6768 0.27211 0.0
H1076 H 0.44721 0.64064 0.2728 0.0
H1077 H 0.41679 0.55363 0.29628 0.0
H1078 H 0.28014 0.42415 0.27806 0.0
H1079 H 0.33269 0.46881 0.27994 0.0
C1080 C 0.85563 0.60987 0.79859 0.0
C1081 C 0.83275 0.61095 0.79071 0.0
C1082 C 0.86134 0.58493 0.79757 0.0
C1083 C 0.83265 0.50483 0.78483 0.0
H1084 H 0.92212 0.53387 0.7838 0.0
C1085 C 0.88597 0.42414 0.77395 0.0
C1086 C 0.91017 0.42814 0.78257 0.0
C1087 C 0.87424 0.44492 0.77428 0.0
C1088 C 0.89706 0.52535 0.78413 0.0
H1089 H 0.79639 0.58587 0.77618 0.0
H1090 H 0.80669 0.54194 0.77423 0.0
H1091 H 0.9044 0.57179 0.78601 0.0
H1092 H 0.94017 0.45664 0.79856 0.0
H1093 H 0.92032 0.49305 0.79888 0.0
H1094 H 0.82561 0.45818 0.78293 0.0
C1095 C 0.82007 0.56045 0.78126 0.0
C1096 C 0.88688 0.54705 0.78544 0.0
C1097 C 0.81412 0.5855 0.78239 0.0
C1098 C 0.92218 0.45328 0.79153 0.0
C1099 C 0.91067 0.47409 0.79178 0.0
C1100 C 0.84292 0.48298 0.78347 0.0
C1101 C 0.84459 0.5606 0.7885 0.0
C1102 C 0.8546 0.53706 0.78613 0.0
C1103 C 0.88668 0.47024 0.78314 0.0
C1104 C 0.87527 0.49306 0.78339 0.0
H1105 H 0.86999 0.62896 0.80525 0.0
H1106 H 0.8797 0.58525 0.80359 0.0
H1107 H 0.80764 0.49645 0.7853 0.0
H1108 H 0.87632 0.40519 0.76686 0.0
H1109 H 0.85589 0.44155 0.76745 0.0
C1110 C 0.62298 0.49579 0.78003 0.0
C1111 C 0.65474 0.50815 0.7835 0.0
C1112 C 0.60227 0.46336 0.77994 0.0
C1113 C 0.59006 0.3883 0.79344 0.0
H1114 H 0.52626 0.3532 0.76626 0.0
C1115 C 0.49211 0.25513 0.79031 0.0
C1116 C 0.46169 0.25059 0.78841 0.0
C1117 C 0.51868 0.28533 0.78916 0.0
C1118 C 0.54393 0.36262 0.77392 0.0
H1119 H 0.68952 0.49586 0.78966 0.0
H1120 H 0.65328 0.43901 0.78936 0.0
H1121 H 0.56707 0.4083 0.76517 0.0
H1122 H 0.43563 0.27445 0.7838 0.0
H1123 H 0.48139 0.32622 0.7818 0.0
H1124 H 0.5663 0.3424 0.80227 0.0
C1125 C 0.64444 0.45457 0.78678 0.0
C1126 C 0.56727 0.39425 0.77333 0.0
C1127 C 0.66527 0.48713 0.78683 0.0
C1128 C 0.45855 0.27682 0.78534 0.0
C1129 C 0.48489 0.30664 0.78408 0.0
C1130 C 0.56664 0.35647 0.79402 0.0
C1131 C 0.61268 0.44229 0.7833 0.0
C1132 C 0.59013 0.40775 0.78326 0.0
C1133 C 0.51527 0.31133 0.7859 0.0
C1134 C 0.54282 0.34356 0.78444 0.0
H1135 H 0.61411 0.51121 0.77726 0.0
H1136 H 0.57788 0.45481 0.77739 0.0
H1137 H 0.60724 0.39796 0.80128 0.0
H1138 H 0.49538 0.23546 0.79267 0.0
H1139 H 0.54187 0.28827 0.79061 0.0
C1140 C 0.58797 0.19995 0.78724 0.0
C1141 C 0.56668 0.1679 0.7849 0.0
C1142 C 0.62049 0.21171 0.78674 0.0
C1143 C 0.68 0.19307 0.77397 0.0
H1144 H 0.73347 0.24874 0.80153 0.0
C1145 C 0.79974 0.20647 0.78566 0.0
C1146 C 0.82564 0.23651 0.78815 0.0
C1147 C 0.76951 0.20198 0.78446 0.0
C1148 C 0.71895 0.23364 0.79364 0.0
H1149 H 0.56297 0.12326 0.77992 0.0
H1150 H 0.61949 0.14358 0.77923 0.0
H1151 H 0.67772 0.23332 0.80082 0.0
H1152 H 0.83976 0.28544 0.79147 0.0
H1153 H 0.7863 0.27739 0.78948 0.0
H1154 H 0.72089 0.1927 0.76698 0.0
C1155 C 0.61113 0.15975 0.78135 0.0
C1156 C 0.687 0.22477 0.79323 0.0
C1157 C 0.57868 0.148 0.78189 0.0
C1158 C 0.82037 0.26201 0.78954 0.0
C1159 C 0.78979 0.2574 0.78844 0.0
C1160 C 0.71179 0.20186 0.77439 0.0
C1161 C 0.63247 0.19173 0.78381 0.0
C1162 C 0.667 0.20377 0.78356 0.0
C1163 C 0.7641 0.22732 0.78575 0.0
C1164 C 0.73147 0.22161 0.78442 0.0
H1165 H 0.57952 0.21587 0.78972 0.0
H1166 H 0.63625 0.23649 0.7886 0.0
H1167 H 0.66548 0.17749 0.7662 0.0
H1168 H 0.80268 0.18618 0.78452 0.0
H1169 H 0.7502 0.17842 0.78263 0.0
C1170 C 0.08633 0.19435 0.60764 0.0
C1171 C 0.09752 0.22584 0.61128 0.0
C1172 C 0.10602 0.18139 0.60826 0.0
C1173 C 0.1789 0.19276 0.62389 0.0
H1174 H 0.18469 0.14712 0.59394 0.0
C1175 C 0.28807 0.18351 0.61422 0.0
C1176 C 0.28543 0.15543 0.60944 0.0
C1177 C 0.26169 0.18687 0.61546 0.0
C1178 C 0.1829 0.15924 0.60249 0.0
H1179 H 0.13797 0.26818 0.61864 0.0
H1180 H 0.17233 0.24567 0.61969 0.0
H1181 H 0.14495 0.16333 0.59416 0.0
H1182 H 0.25263 0.10855 0.60238 0.0
H1183 H 0.20599 0.11462 0.60448 0.0
H1184 H 0.21719 0.18939 0.63211 0.0
C1185 C 0.14829 0.23093 0.6164 0.0
C1186 C 0.16021 0.16861 0.6026 0.0
C1187 C 0.12871 0.24394 0.61568 0.0
C1188 C 0.25545 0.1305 0.60607 0.0
C1189 C 0.22882 0.13401 0.60723 0.0
C1190 C 0.20142 0.18334 0.6238 0.0
C1191 C 0.13723 0.19954 0.61267 0.0
C1192 C 0.1586 0.18627 0.61315 0.0
C1193 C 0.23175 0.1623 0.61197 0.0
C1194 C 0.20435 0.16734 0.61292 0.0
H1195 H 0.06248 0.17988 0.60408 0.0
H1196 H 0.09679 0.15712 0.60536 0.0
H1197 H 0.17779 0.20569 0.63229 0.0
H1198 H 0.31067 0.20323 0.617 0.0
H1199 H 0.26494 0.20916 0.61892 0.0
C1200 C 0.8691 0.91136 0.61336 0.0
C1201 C 0.83908 0.8899 0.60836 0.0
C1202 C 0.87985 0.94369 0.61347 0.0
C1203 C 0.85126 1.00007 0.61277 0.0
H1204 H 0.93453 0.06001 0.59988 0.0
C1205 C 0.88189 0.12478 0.5997 0.0
C1206 C 0.91108 0.14998 0.60367 0.0
C1207 C 0.87579 0.09394 0.60048 0.0
C1208 C 0.91139 0.04361 0.60368 0.0
H1209 H 0.79715 0.88597 0.59939 0.0
H1210 H 0.8156 0.94205 0.59984 0.0
H1211 H 0.91843 1.00413 0.60132 0.0
H1212 H 0.95738 0.16265 0.61104 0.0
H1213 H 0.94653 0.10819 0.61254 0.0
H1214 H 0.844 0.03914 0.61514 0.0
C1215 C 0.8307 0.93383 0.60379 0.0
C1216 C 0.90217 1.01164 0.60449 0.0
C1217 C 0.82007 0.90161 0.60358 0.0
C1218 C 0.93466 0.14369 0.60791 0.0
C1219 C 0.92843 0.11255 0.60876 0.0
C1220 C 0.86048 0.03188 0.61201 0.0
C1221 C 0.86072 0.95524 0.60871 0.0
C1222 C 0.87174 0.98947 0.6088 0.0
C1223 C 0.89859 0.0873 0.60536 0.0
C1224 C 0.89037 0.05397 0.60717 0.0
H1225 H 0.88425 0.9032 0.61729 0.0
H1226 H 0.90295 0.95959 0.61744 0.0
H1227 H 0.82794 0.98368 0.6164 0.0
H1228 H 0.86338 0.12879 0.59615 0.0
H1229 H 0.85291 0.07518 0.59738 0.0
C1230 C 0.17106 0.93535 0.60739 0.0
C1231 C 0.18302 0.96798 0.6068 0.0
C1232 C 0.13869 0.9144 0.60681 0.0
C1233 C 0.06063 0.9068 0.61141 0.0
H1234 H 0.03359 0.83342 0.58931 0.0
C1235 C 0.92848 0.81036 0.60341 0.0
C1236 C 0.92263 0.77927 0.60414 0.0
C1237 C 0.95953 0.83579 0.60315 0.0
C1238 C 0.04072 0.8537 0.59558 0.0
H1239 H 0.17001 1.0041 0.60539 0.0
H1240 H 0.11334 0.96737 0.60452 0.0
H1241 H 0.08911 0.87295 0.5904 0.0
H1242 H 0.94515 0.75084 0.60535 0.0
H1243 H 0.99832 0.79454 0.60501 0.0
H1244 H 1.012 0.88698 0.61674 0.0
C1245 C 0.12915 0.9581 0.60548 0.0
C1246 C 0.07258 0.87634 0.59622 0.0
C1247 C 0.16164 0.97913 0.60601 0.0
C1248 C 0.94847 0.77431 0.60469 0.0
C1249 C 0.97918 0.79948 0.6044 0.0
C1250 C 0.02858 0.88397 0.61079 0.0
C1251 C 0.11735 0.92548 0.60566 0.0
C1252 C 0.08304 0.90281 0.60436 0.0
C1253 C 0.98521 0.83052 0.60353 0.0
C1254 C 1.0184 0.85679 0.60309 0.0
H1255 H 0.18675 0.92592 0.60828 0.0
H1256 H 0.13034 0.88941 0.60727 0.0
H1257 H 0.06797 0.92695 0.61777 0.0
H1258 H 0.90919 0.81507 0.60303 0.0
H1259 H 0.96344 0.85948 0.60247 0.0
C1260 C 0.53144 0.04963 0.07995 0.0
C1261 C 0.51369 0.02004 0.08584 0.0
C1262 C 0.54034 0.05197 0.06669 0.0
C1263 C 0.51244 1.00293 0.03645 0.0
H1264 H 0.582 0.07606 1.02028 0.0
C1265 C 0.51982 0.01834 0.98003 0.0
C1266 C 0.52282 0.04721 0.9763 0.0
C1267 C 0.52645 1.01376 0.99303 0.0
C1268 C 0.56254 0.05536 1.02465 0.0
H1269 H 0.49332 0.96997 0.08301 0.0
H1270 H 0.51044 0.97394 0.0603 0.0
H1271 H 0.57993 0.07061 0.04417 0.0
H1272 H 0.5371 0.09446 0.98278 0.0
H1273 H 0.54935 0.08689 1.00513 0.0
H1274 H 0.49469 0.98808 1.01698 0.0
C1275 C 0.51658 0.9954 0.06557 0.0
C1276 C 0.56124 0.05231 0.03837 0.0
C1277 C 0.5072 0.99309 0.07867 0.0
C1278 C 0.53471 0.07199 0.98541 0.0
C1279 C 0.54184 0.06766 0.99823 0.0
C1280 C 0.5139 1.00586 1.02276 0.0
C1281 C 0.53187 0.02472 0.05916 0.0
C1282 C 0.53574 0.02641 0.04451 0.0
C1283 C 0.53672 0.0382 1.00238 0.0
C1284 C 0.53851 0.0325 1.01668 0.0
H1285 H 0.5361 0.0707 0.08522 0.0
H1286 H 0.55188 0.07499 0.06216 0.0
H1287 H 0.49205 0.9829 0.04069 0.0
H1288 H 0.51035 0.99878 0.97321 0.0
H1289 H 0.52242 0.99081 0.99591 0.0
C1290 C 1.00438 0.47969 0.98623 0.0
C1291 C 1.02601 0.49749 0.97637 0.0
C1292 C 1.00794 0.49097 0.99901 0.0
C1293 C 0.0699 0.5441 1.02179 0.0
H1294 H 0.99862 0.51071 0.04556 0.0
C1295 C 0.07911 0.50871 0.07391 0.0
C1296 C 0.05975 0.50844 0.0841 0.0
C1297 C 0.07639 0.51771 0.06124 0.0
C1298 C 1.01891 0.52093 0.03913 0.0
H1299 H 0.0676 0.54199 0.97201 0.0
H1300 H 0.07398 0.56227 0.99462 0.0
H1301 H 0.98998 0.50927 1.02199 0.0
H1302 H 1.02291 0.51855 0.08913 0.0
H1303 H 1.018 0.53466 0.06671 0.0
H1304 H 0.09884 0.5559 0.03893 0.0
C1305 C 0.05428 0.53923 0.9924 0.0
C1306 C 1.01393 0.51969 1.02554 0.0
C1307 C 0.05057 0.52781 0.97943 0.0
C1308 C 0.03813 0.51855 0.08144 0.0
C1309 C 0.03528 0.52759 0.06859 0.0
C1310 C 0.07491 0.54579 0.03538 0.0
C1311 C 0.03331 0.52057 1.00244 0.0
C1312 C 0.03921 0.52961 1.01665 0.0
C1313 C 0.05419 0.52689 0.05827 0.0
C1314 C 0.04938 0.53258 0.04423 0.0
H1315 H 0.98511 0.45623 0.98417 0.0
H1316 H 0.99159 0.47548 1.00636 0.0
H1317 H 0.09004 0.55218 1.01536 0.0
H1318 H 0.09607 0.50111 0.07561 0.0
H1319 H 0.09089 0.51602 0.05364 0.0
C1320 C 0.55062 0.55751 0.98023 0.0
C1321 C 0.57703 0.55558 0.97635 0.0
C1322 C 0.53979 0.55059 0.99327 0.0
C1323 C 0.54681 0.51451 1.02453 0.0
H1324 H 0.54362 0.58359 0.04128 0.0
C1325 C 0.57406 0.54439 0.07972 0.0
C1326 C 0.56209 0.56159 0.08599 0.0
C1327 C 0.56686 0.53572 0.06648 0.0
C1328 C 0.54358 0.56356 0.03684 0.0
H1329 H 0.61142 0.54296 0.98262 0.0
H1330 H 0.59222 0.53018 1.00503 0.0
H1331 H 0.54571 0.58175 1.01752 0.0
H1332 H 0.53166 0.58133 0.08383 0.0
H1333 H 0.51746 0.56462 0.0611 0.0
H1334 H 0.54543 0.49666 0.04387 0.0
C1335 C 0.57984 0.53711 0.99822 0.0
C1336 C 0.54481 0.56258 1.02313 0.0
C1337 C 0.59095 0.54457 0.98537 0.0
C1338 C 0.54096 0.56782 0.0792 0.0
C1339 C 0.53328 0.55868 0.06609 0.0
C1340 C 0.54528 0.51531 0.03827 0.0
C1341 C 0.55482 0.54102 1.00249 0.0
C1342 C 0.54736 0.53856 1.0168 0.0
C1343 C 0.54735 0.54391 0.05931 0.0
C1344 C 0.54452 0.54033 0.04466 0.0
H1345 H 0.5397 0.56623 0.97348 0.0
H1346 H 0.52036 0.55371 0.99626 0.0
H1347 H 0.54845 0.49548 1.01995 0.0
H1348 H 0.59098 0.53997 0.08469 0.0
H1349 H 0.57843 0.52461 0.06166 0.0
C1350 C 0.17141 0.32551 0.41216 0.0
C1351 C 0.17847 0.35267 0.4193 0.0
C1352 C 0.1809 0.32756 0.3991 0.0
C1353 C 0.22664 0.38404 0.37192 0.0
H1354 H 0.15966 0.32043 0.35048 0.0
C1355 C 0.20032 0.40418 0.31901 0.0
C1356 C 0.18849 0.37947 0.30988 0.0
C1357 C 0.20737 0.39975 0.33183 0.0
C1358 C 0.17898 0.33801 0.35628 0.0
H1359 H 0.202 0.4034 0.41866 0.0
H1360 H 0.21787 0.40725 0.39563 0.0
H1361 H 0.15676 0.31529 0.37419 0.0
H1362 H 0.17604 0.33107 0.30672 0.0
H1363 H 0.18787 0.32289 0.32943 0.0
H1364 H 0.24772 0.40762 0.35383 0.0
C1365 C 0.20582 0.38425 0.40017 0.0
C1366 C 0.17739 0.33511 0.36997 0.0
C1367 C 0.19685 0.38217 0.41341 0.0
C1368 C 0.18543 0.35056 0.31357 0.0
C1369 C 0.19195 0.34587 0.32657 0.0
C1370 C 0.22806 0.38708 0.3582 0.0
C1371 C 0.19684 0.35684 0.39267 0.0
C1372 C 0.20085 0.35839 0.37804 0.0
C1373 C 0.2022 0.37025 0.33594 0.0
C1374 C 0.20387 0.36444 0.35023 0.0
H1375 H 0.15709 0.30248 0.41652 0.0
H1376 H 0.17437 0.30596 0.39386 0.0
H1377 H 0.24547 0.40217 0.37772 0.0
H1378 H 0.20279 0.4267 0.3164 0.0
H1379 H 0.21486 0.41893 0.33876 0.0
C1380 C 0.69368 0.84431 0.41453 0.0
C1381 C 0.72217 0.84641 0.41829 0.0
C1382 C 0.68949 0.85131 0.40153 0.0
C1383 C 0.73195 0.88725 0.37008 0.0
H1384 H 0.65888 0.81812 0.35369 0.0
C1385 C 0.72709 0.85639 0.31485 0.0
C1386 C 0.69762 0.83924 0.30878 0.0
C1387 C 0.72918 0.86534 0.32809 0.0
C1388 C 0.6791 0.83816 0.35803 0.0
H1389 H 0.7692 0.85948 0.41188 0.0
H1390 H 0.76232 0.87239 0.38954 0.0
H1391 H 0.66356 0.82025 0.37742 0.0
H1392 H 0.64756 0.81991 0.31127 0.0
H1393 H 0.65114 0.83712 0.33396 0.0
H1394 H 0.7479 0.90477 0.35065 0.0
C1395 C 0.74309 0.86529 0.39641 0.0
C1396 C 0.68175 0.83932 0.37173 0.0
C1397 C 0.74701 0.85777 0.40922 0.0
C1398 C 0.67059 0.83339 0.31574 0.0
C1399 C 0.67267 0.84281 0.32884 0.0
C1400 C 0.7292 0.88625 0.35635 0.0
C1401 C 0.71396 0.8611 0.39223 0.0
C1402 C 0.70859 0.86337 0.37793 0.0
C1403 C 0.7018 0.85748 0.33543 0.0
C1404 C 0.7031 0.86122 0.35008 0.0
H1405 H 0.67408 0.83527 0.42132 0.0
H1406 H 0.6668 0.84799 0.39863 0.0
H1407 H 0.75283 0.90631 0.37455 0.0
H1408 H 0.74818 0.8605 0.30975 0.0
H1409 H 0.75205 0.87638 0.33277 0.0
C1410 C 0.21531 0.89088 0.31348 0.0
C1411 C 0.24041 0.88682 0.3095 0.0
C1412 C 0.20458 0.88452 0.32654 0.0
C1413 C 0.20999 0.84776 0.35798 0.0
H1414 H 0.21167 0.91982 0.37423 0.0
C1415 C 0.23836 0.87882 0.41317 0.0
C1416 C 0.22764 0.89737 0.41921 0.0
C1417 C 0.23113 0.87 0.39994 0.0
C1418 C 0.21029 0.89901 0.36994 0.0
H1419 H 0.27237 0.87091 0.31559 0.0
H1420 H 0.25333 0.85912 0.33805 0.0
H1421 H 0.21293 0.91677 0.3505 0.0
H1422 H 0.19922 0.91926 0.41666 0.0
H1423 H 0.18491 0.90231 0.39399 0.0
H1424 H 0.20811 0.83034 0.37747 0.0
C1425 C 0.24186 0.86725 0.3313 0.0
C1426 C 0.21103 0.89732 0.35624 0.0
C1427 C 0.25287 0.8741 0.31841 0.0
C1428 C 0.20763 0.9048 0.4122 0.0
C1429 C 0.19988 0.89549 0.39913 0.0
C1430 C 0.20898 0.8493 0.37172 0.0
C1431 C 0.21843 0.87348 0.33571 0.0
C1432 C 0.21172 0.87211 0.35007 0.0
C1433 C 0.21278 0.87933 0.39257 0.0
C1434 C 0.20988 0.87535 0.37793 0.0
H1435 H 0.20559 0.90101 0.30681 0.0
H1436 H 0.18634 0.8894 0.32962 0.0
H1437 H 0.21021 0.82784 0.35354 0.0
H1438 H 0.25438 0.87339 0.41832 0.0
H1439 H 0.24174 0.85775 0.39529 0.0
C1440 C 0.8563 0.72864 0.74305 0.0
C1441 C 0.8518 0.70451 0.75169 0.0
C1442 C 0.865 0.7284 0.73001 0.0
C1443 C 0.85263 0.67456 0.70367 0.0
H1444 H 0.91358 0.74977 0.68535 0.0
C1445 C 0.85285 0.68367 0.6466 0.0
C1446 C 0.85323 0.71115 0.64248 0.0
C1447 C 0.86073 0.68093 0.65966 0.0
C1448 C 0.89647 0.72847 0.69028 0.0
H1449 H 0.85322 0.66135 0.75361 0.0
H1450 H 0.86767 0.6604 0.73052 0.0
H1451 H 0.91247 0.74912 0.7093 0.0
H1452 H 0.86382 0.75777 0.64841 0.0
H1453 H 0.87765 0.7533 0.67076 0.0
H1454 H 0.83507 0.65466 0.68466 0.0
C1455 C 0.86506 0.67983 0.73397 0.0
C1456 C 0.89596 0.72811 0.70402 0.0
C1457 C 0.85711 0.68052 0.74717 0.0
C1458 C 0.86337 0.73631 0.65131 0.0
C1459 C 0.87154 0.73379 0.66416 0.0
C1460 C 0.85286 0.67504 0.68988 0.0
C1461 C 0.86862 0.70356 0.7252 0.0
C1462 C 0.87333 0.70156 0.71086 0.0
C1463 C 0.8696 0.70584 0.66868 0.0
C1464 C 0.87397 0.70249 0.68301 0.0
H1465 H 0.85193 0.74713 0.74628 0.0
H1466 H 0.86722 0.74682 0.72348 0.0
H1467 H 0.83481 0.6538 0.70869 0.0
H1468 H 0.8448 0.66382 0.63999 0.0
H1469 H 0.8591 0.6591 0.66279 0.0
C1470 C 0.37714 0.18846 0.64709 0.0
C1471 C 0.35867 0.15611 0.64451 0.0
C1472 C 0.37904 0.19996 0.65997 0.0
C1473 C 0.33993 0.17518 0.69309 0.0
H1474 H 0.42313 0.23127 0.70688 0.0
C1475 C 0.36229 0.18416 0.74911 0.0
C1476 C 0.38837 0.18103 0.75239 0.0
C1477 C 0.35836 0.19152 0.73612 0.0
C1478 C 0.39964 0.21562 0.70321 0.0
H1479 H 0.32722 0.11071 0.65329 0.0
H1480 H 0.3308 0.13023 0.67525 0.0
H1481 H 0.41561 0.22326 0.68324 0.0
H1482 H 0.43176 0.18535 0.74505 0.0
H1483 H 0.42509 0.19784 0.72279 0.0
H1484 H 0.32438 0.1654 0.71304 0.0
C1485 C 0.34344 0.14711 0.66756 0.0
C1486 C 0.39528 0.21135 0.68959 0.0
C1487 C 0.34169 0.1358 0.65488 0.0
C1488 C 0.41132 0.18748 0.74279 0.0
C1489 C 0.4076 0.19499 0.72998 0.0
C1490 C 0.34435 0.17915 0.7067 0.0
C1491 C 0.36223 0.17928 0.67038 0.0
C1492 C 0.36563 0.18986 0.68438 0.0
C1493 C 0.38063 0.19617 0.72628 0.0
C1494 C 0.37456 0.19826 0.71199 0.0
H1495 H 0.39051 0.20465 0.63929 0.0
H1496 H 0.39377 0.22491 0.66178 0.0
H1497 H 0.31653 0.15912 0.68944 0.0
H1498 H 0.34419 0.17918 0.75633 0.0
H1499 H 0.33741 0.19251 0.73368 0.0
C1500 C 0.92069 0.20527 0.65199 0.0
C1501 C 0.90775 0.21703 0.64285 0.0
C1502 C 0.90935 0.1984 0.66483 0.0
C1503 C 0.8757 0.22677 0.68927 0.0
H1504 H 0.87502 0.16137 0.71086 0.0
C1505 C 0.87124 0.23493 0.74516 0.0
C1506 C 0.89222 0.22896 0.75222 0.0
C1507 C 0.86364 0.22507 0.73213 0.0
C1508 C 0.87523 0.17988 0.70501 0.0
H1509 H 0.8718 0.22952 0.63971 0.0
H1510 H 0.85195 0.21788 0.66243 0.0
H1511 H 0.87788 0.15874 0.68698 0.0
H1512 H 0.92086 0.20698 0.7515 0.0
H1513 H 0.90838 0.19031 0.72857 0.0
H1514 H 0.87489 0.24897 0.70714 0.0
C1515 C 0.87083 0.21377 0.65958 0.0
C1516 C 0.87668 0.17826 0.6913 0.0
C1517 C 0.88193 0.22016 0.64656 0.0
C1518 C 0.90405 0.21123 0.74631 0.0
C1519 C 0.89692 0.20182 0.73314 0.0
C1520 C 0.87448 0.22852 0.70295 0.0
C1521 C 0.88505 0.20363 0.66896 0.0
C1522 C 0.8777 0.20209 0.68326 0.0
C1523 C 0.87762 0.20978 0.72569 0.0
C1524 C 0.87492 0.20548 0.71107 0.0
H1525 H 0.94073 0.20278 0.64938 0.0
H1526 H 0.92113 0.191 0.67176 0.0
H1527 H 0.87699 0.24582 0.68343 0.0
H1528 H 0.86202 0.2488 0.74952 0.0
H1529 H 0.84797 0.23086 0.72692 0.0
C1530 C 0.27775 0.90508 0.22763 0.0
C1531 C 0.28213 0.92452 0.23848 0.0
C1532 C 0.30038 0.91509 0.21759 0.0
C1533 C 0.38468 0.97139 0.21072 0.0
H1534 H 0.35884 0.95694 0.17421 0.0
C1535 C 0.44207 1.01657 0.15577 0.0
C1536 C 0.46906 1.01357 0.15653 0.0
C1537 C 0.41934 1.00469 0.16573 0.0
C1538 C 0.3665 0.96126 0.18436 0.0
H1539 H 0.31318 0.9701 0.24711 0.0
H1540 H 0.35272 0.98743 0.22974 0.0
H1541 H 0.31903 0.93835 0.1915 0.0
H1542 H 0.49374 0.9965 0.16854 0.0
H1543 H 0.45418 0.97603 0.18608 0.0
H1544 H 0.43216 0.99457 0.20357 0.0
C1545 C 0.33208 0.96426 0.22903 0.0
C1546 C 0.34362 0.95032 0.19428 0.0
C1547 C 0.30934 0.95437 0.23897 0.0
C1548 C 0.47315 0.99905 0.16765 0.0
C1549 C 0.45051 0.98741 0.17771 0.0
C1550 C 0.40755 0.98207 0.20079 0.0
C1551 C 0.328 0.94475 0.21821 0.0
C1552 C 0.35238 0.95546 0.20761 0.0
C1553 C 0.42316 0.98989 0.17684 0.0
C1554 C 0.3988 0.97741 0.18746 0.0
H1555 H 0.25698 0.88199 0.22695 0.0
H1556 H 0.2965 0.89936 0.20946 0.0
H1557 H 0.39232 0.9755 0.22086 0.0
H1558 H 0.43844 0.02806 0.14742 0.0
H1559 H 0.39892 1.00753 0.1648 0.0
C1560 C 0.07795 0.49783 0.16624 0.0
C1561 C 0.06004 0.47729 0.15607 0.0
C1562 C 0.09 0.48749 0.17641 0.0
C1563 C 0.07774 0.41448 0.19282 0.0
H1564 H 0.16248 0.46721 0.20603 0.0
C1565 C 0.12281 0.37999 0.23879 0.0
C1566 C 0.15377 0.38543 0.23871 0.0
C1567 C 0.11207 0.39188 0.2288 0.0
C1568 C 0.13883 0.45209 0.2024 0.0
H1569 H 0.04037 0.42975 0.14869 0.0
H1570 H 0.06124 0.41182 0.16626 0.0
H1571 H 0.14241 0.48682 0.1886 0.0
H1572 H 0.19771 0.40739 0.22798 0.0
H1573 H 0.17891 0.42811 0.21039 0.0
H1574 H 0.07415 0.37961 0.20642 0.0
C1575 C 0.06595 0.43583 0.16652 0.0
C1576 C 0.12718 0.46349 0.1925 0.0
C1577 C 0.05409 0.44617 0.15638 0.0
C1578 C 0.17374 0.40287 0.22832 0.0
C1579 C 0.16301 0.41493 0.21831 0.0
C1580 C 0.08929 0.40318 0.20273 0.0
C1581 C 0.0841 0.45628 0.1767 0.0
C1582 C 0.09648 0.44477 0.18753 0.0
C1583 C 0.13195 0.40952 0.2184 0.0
C1584 C 0.12 0.42176 0.20768 0.0
H1585 H 0.0829 0.52193 0.16626 0.0
H1586 H 0.10362 0.50383 0.18413 0.0
H1587 H 0.0539 0.39945 0.18938 0.0
H1588 H 0.1068 0.36657 0.24664 0.0
H1589 H 0.08818 0.38753 0.22935 0.0
C1590 C 0.67198 0.79433 0.22805 0.0
C1591 C 0.68934 0.79207 0.23855 0.0
C1592 C 0.65988 0.77128 0.21817 0.0
C1593 C 0.6711 0.70867 0.20306 0.0
H1594 H 0.58785 0.67912 0.18861 0.0
C1595 C 0.62729 0.62948 0.15691 0.0
C1596 C 0.59591 0.60478 0.15664 0.0
C1597 C 0.63804 0.65202 0.16693 0.0
C1598 C 0.61106 0.68693 0.19259 0.0
H1599 H 0.70797 0.76411 0.24682 0.0
H1600 H 0.68684 0.72394 0.22972 0.0
H1601 H 0.6076 0.71877 0.206 0.0
H1602 H 0.55123 0.58414 0.16679 0.0
H1603 H 0.57 0.62345 0.18443 0.0
H1604 H 0.67451 0.67667 0.18981 0.0
C1605 C 0.68263 0.74352 0.22901 0.0
C1606 C 0.62256 0.70997 0.20248 0.0
C1607 C 0.69459 0.76646 0.23888 0.0
C1608 C 0.57552 0.60297 0.16672 0.0
C1609 C 0.58625 0.62564 0.17676 0.0
C1610 C 0.6597 0.68579 0.19316 0.0
C1611 C 0.66511 0.74557 0.21849 0.0
C1612 C 0.65275 0.72115 0.20787 0.0
C1613 C 0.61772 0.65047 0.17702 0.0
C1614 C 0.62953 0.67459 0.18775 0.0
H1615 H 0.66763 0.81385 0.22751 0.0
H1616 H 0.64684 0.77389 0.21016 0.0
H1617 H 0.69457 0.71686 0.20684 0.0
H1618 H 0.64362 0.63148 0.1493 0.0
H1619 H 0.66227 0.67094 0.16666 0.0
C1620 C 0.03066 0.437 0.90481 0.0
C1621 C 1.02721 0.46374 0.9046 0.0
C1622 C 1.01802 0.41451 0.89478 0.0
C1623 C 0.99165 0.40264 0.8602 0.0
H1624 H 0.94825 0.31424 0.86957 0.0
C1625 C 0.96019 0.30368 0.82192 0.0
C1626 C 0.93029 0.27658 0.82275 0.0
C1627 C 0.9709 0.32667 0.83178 0.0
C1628 C 0.96011 0.3388 0.86677 0.0
H1629 H 1.00883 0.48845 0.8934 0.0
H1630 H 0.98711 0.44934 0.87568 0.0
H1631 H 0.96889 0.35418 0.88682 0.0
H1632 H 0.88852 0.25198 0.83477 0.0
H1633 H 0.90739 0.29193 0.85213 0.0
H1634 H 0.98302 0.38723 0.84014 0.0
C1635 C 0.99936 0.44563 0.88372 0.0
C1636 C 0.97222 0.36174 0.87667 0.0
C1637 C 1.01174 0.46802 0.89387 0.0
C1638 C 0.91161 0.27265 0.83382 0.0
C1639 C 0.92248 0.29552 0.84378 0.0
C1640 C 0.97984 0.37969 0.85029 0.0
C1641 C 1.00202 0.41837 0.88412 0.0
C1642 C 0.9883 0.39399 0.87353 0.0
C1643 C 0.95222 0.32296 0.84286 0.0
C1644 C 0.964 0.34743 0.85344 0.0
H1645 H 0.04287 0.43323 0.91285 0.0
H1646 H 1.02106 0.39417 0.89532 0.0
H1647 H 1.00403 0.42721 0.8574 0.0
H1648 H 0.97538 0.30718 0.81362 0.0
H1649 H 0.9941 0.34717 0.83082 0.0
C1650 C 0.63869 0.61943 0.9047 0.0
C1651 C 0.61323 0.58845 0.90499 0.0
C1652 C 0.66073 0.62966 0.89449 0.0
C1653 C 0.69269 0.60121 0.86816 0.0
H1654 H 0.72548 0.68562 0.85453 0.0
C1655 C 0.79994 0.65977 0.83256 0.0
C1656 C 0.79867 0.67829 0.82232 0.0
C1657 C 0.77688 0.64802 0.84244 0.0
C1658 C 0.71647 0.66189 0.85813 0.0
H1659 H 0.5907 0.54396 0.89468 0.0
H1660 H 0.62912 0.56184 0.87671 0.0
H1661 H 0.68567 0.66639 0.87171 0.0
H1662 H 0.77242 0.69929 0.81449 0.0
H1663 H 0.73217 0.67871 0.83157 0.0
H1664 H 0.72334 0.59668 0.85443 0.0
C1665 C 0.63229 0.57817 0.8845 0.0
C1666 C 0.69381 0.65095 0.86812 0.0
C1667 C 0.61012 0.56795 0.89474 0.0
C1668 C 0.77398 0.68496 0.82222 0.0
C1669 C 0.75101 0.67333 0.83209 0.0
C1670 C 0.71551 0.61224 0.85819 0.0
C1671 C 0.65791 0.60922 0.88422 0.0
C1672 C 0.68161 0.62048 0.87332 0.0
C1673 C 0.75211 0.65471 0.84237 0.0
C1674 C 0.72775 0.64276 0.85302 0.0
H1675 H 0.64172 0.63583 0.91245 0.0
H1676 H 0.68028 0.65356 0.89476 0.0
H1677 H 0.68411 0.57773 0.87198 0.0
H1678 H 0.81872 0.65427 0.83291 0.0
H1679 H 0.77877 0.63411 0.85025 0.0
C1680 C 0.41081 0.16947 0.83467 0.0
C1681 C 0.39471 0.14985 0.82398 0.0
C1682 C 0.4228 0.15889 0.84477 0.0
C1683 C 0.44808 0.10079 0.85165 0.0
H1684 H 0.43581 0.11352 0.88825 0.0
C1685 C 0.50595 0.06937 0.89467 0.0
C1686 C 0.48641 0.05362 0.90542 0.0
C1687 C 0.49577 0.08205 0.88473 0.0
C1688 C 0.43941 0.10974 0.87807 0.0
H1689 H 0.37764 0.10341 0.81574 0.0
H1690 H 0.39896 0.08527 0.83312 0.0
H1691 H 0.41622 0.13415 0.87105 0.0
H1692 H 0.44047 0.03791 0.91393 0.0
H1693 H 0.42296 0.06047 0.89677 0.0
H1694 H 0.47114 0.07627 0.85865 0.0
C1695 C 0.40269 0.10892 0.83368 0.0
C1696 C 0.42841 0.12181 0.86821 0.0
C1697 C 0.39037 0.1193 0.82373 0.0
C1698 C 0.45629 0.05036 0.90589 0.0
C1699 C 0.44629 0.06338 0.89607 0.0
C1700 C 0.45944 0.08909 0.8615 0.0
C1701 C 0.41917 0.12857 0.84432 0.0
C1702 C 0.43228 0.11718 0.85486 0.0
C1703 C 0.46589 0.07946 0.88536 0.0
C1704 C 0.45497 0.0931 0.87485 0.0
H1705 H 0.41439 0.19306 0.83517 0.0
H1706 H 0.43543 0.17465 0.8528 0.0
H1707 H 0.45173 0.09703 0.84147 0.0
H1708 H 0.52923 0.07214 0.894 0.0
H1709 H 0.51152 0.09435 0.87665 0.0
C1710 C 0.94486 0.23622 0.56085 0.0
C1711 C 0.94922 0.25516 0.57188 0.0
C1712 C 0.96753 0.24669 0.55082 0.0
C1713 C 0.05183 0.30362 0.54414 0.0
H1714 H 1.02606 0.29061 0.50762 0.0
C1715 C 0.14063 0.33432 0.50102 0.0
C1716 C 0.13621 0.3489 0.49 0.0
C1717 C 0.118 0.32207 0.51106 0.0
C1718 C 0.0337 0.29455 0.51777 0.0
H1719 H 0.98029 0.30032 0.58085 0.0
H1720 H 1.01982 0.31846 0.56348 0.0
H1721 H 0.98621 0.27094 0.5249 0.0
H1722 H 0.10506 0.36293 0.48107 0.0
H1723 H 0.0656 0.34146 0.49846 0.0
H1724 H 0.09931 0.32757 0.53701 0.0
C1725 C 0.9992 0.29531 0.56262 0.0
C1726 C 1.0108 0.28297 0.52769 0.0
C1727 C 0.97645 0.28496 0.57256 0.0
C1728 C 0.10895 0.35141 0.48935 0.0
C1729 C 0.08624 0.33898 0.4993 0.0
C1730 C 0.07472 0.31497 0.53422 0.0
C1731 C 0.99514 0.27631 0.55162 0.0
C1732 C 1.01953 0.28759 0.54102 0.0
C1733 C 0.09036 0.32404 0.51029 0.0
C1734 C 0.06599 0.31086 0.52089 0.0
H1735 H 0.92407 0.21317 0.56003 0.0
H1736 H 0.96367 0.23134 0.54254 0.0
H1737 H 0.05946 0.30733 0.55429 0.0
H1738 H 0.16145 0.33211 0.50182 0.0
H1739 H 0.12191 0.31059 0.51934 0.0
C1740 C 0.72257 0.78062 0.4893 0.0
C1741 C 0.72958 0.81209 0.48927 0.0
C1742 C 0.73408 0.76927 0.49919 0.0
C1743 C 0.79541 0.79433 0.52515 0.0
H1744 H 0.74068 0.71014 0.53842 0.0
C1745 C 0.83921 0.73086 0.56078 0.0
C1746 C 0.81874 0.71321 0.57101 0.0
C1747 C 0.82911 0.74351 0.55077 0.0
C1748 C 0.7563 0.73378 0.53491 0.0
H1749 H 0.75395 0.85629 0.49975 0.0
H1750 H 0.77396 0.83643 0.51719 0.0
H1751 H 0.7215 0.73152 0.52159 0.0
H1752 H 0.77151 0.69454 0.57863 0.0
H1753 H 0.75399 0.71652 0.56133 0.0
H1754 H 0.83007 0.79662 0.53869 0.0
C1755 C 0.75986 0.82058 0.50942 0.0
C1756 C 0.74537 0.74596 0.52511 0.0
C1757 C 0.74821 0.83195 0.49948 0.0
C1758 C 0.78789 0.70809 0.57089 0.0
C1759 C 0.77778 0.72058 0.56091 0.0
C1760 C 0.80643 0.78205 0.53495 0.0
C1761 C 0.75288 0.78902 0.50943 0.0
C1762 C 0.76471 0.77641 0.52006 0.0
C1763 C 0.79819 0.73851 0.55068 0.0
C1764 C 0.78697 0.7516 0.54001 0.0
H1765 H 0.70822 0.76469 0.48158 0.0
H1766 H 0.72852 0.745 0.49871 0.0
H1767 H 0.81112 0.81774 0.52144 0.0
H1768 H 0.86311 0.73516 0.5606 0.0
H1769 H 0.84541 0.75689 0.543 0.0
C1770 C 0.2953 0.96545 0.48965 0.0
C1771 C 0.26468 0.93934 0.48986 0.0
C1772 C 0.30558 0.98845 0.49948 0.0
C1773 C 0.27731 0.02059 0.52601 0.0
H1774 H 0.36339 0.0573 0.53822 0.0
C1775 C 0.33443 0.12714 0.56239 0.0
C1776 C 0.35406 0.12606 0.57218 0.0
C1777 C 0.32303 0.10485 0.55216 0.0
C1778 C 0.33921 0.04724 0.53502 0.0
H1779 H 0.22094 0.91666 0.50072 0.0
H1780 H 0.23898 0.95662 0.51808 0.0
H1781 H 0.34413 1.01695 0.52133 0.0
H1782 H 0.37744 0.10105 0.57881 0.0
H1783 H 0.35758 0.06237 0.56122 0.0
H1784 H 0.27235 0.05059 0.53998 0.0
C1785 C 0.25494 0.95964 0.51014 0.0
C1786 C 0.32821 0.02424 0.52517 0.0
C1787 C 0.24464 0.93656 0.50026 0.0
C1788 C 0.36236 0.10256 0.57142 0.0
C1789 C 0.35107 0.08042 0.56125 0.0
C1790 C 0.28837 0.04373 0.53588 0.0
C1791 C 0.28562 0.98595 0.5099 0.0
C1792 C 0.29708 1.01049 0.5205 0.0
C1793 C 0.33124 0.08116 0.55145 0.0
C1794 C 0.31947 0.05728 0.54058 0.0
H1795 H 0.31137 0.96826 0.48178 0.0
H1796 H 0.32916 1.00846 0.49879 0.0
H1797 H 0.25331 1.01086 0.52261 0.0
H1798 H 0.32766 0.145 0.5627 0.0
H1799 H 0.30807 0.10641 0.54474 0.0
C1800 C 0.55172 0.3541 0.11188 0.0
C1801 C 0.53092 0.36031 0.119 0.0
C1802 C 0.54564 0.32315 0.11039 0.0
C1803 C 0.49854 0.24344 0.12533 0.0
H1804 H 0.52276 0.21634 0.0939 0.0
C1805 C 0.46923 0.11458 0.11824 0.0
C1806 C 0.4947 0.11103 0.11428 0.0
C1807 C 0.4713 0.1441 0.11765 0.0
C1808 C 0.51592 0.22359 0.10276 0.0
H1809 H 0.48663 0.33879 0.12953 0.0
H1810 H 0.47565 0.28508 0.12669 0.0
H1811 H 0.5311 0.26963 0.09511 0.0
H1812 H 0.54172 0.13543 0.10598 0.0
H1813 H 0.54511 0.18654 0.10482 0.0
H1814 H 0.4833 0.19736 0.13293 0.0
C1815 C 0.49723 0.30399 0.12262 0.0
C1816 C 0.52085 0.25423 0.10349 0.0
C1817 C 0.50346 0.33485 0.12422 0.0
C1818 C 0.52167 0.13731 0.10917 0.0
C1819 C 0.52358 0.16664 0.10843 0.0
C1820 C 0.49337 0.21277 0.12454 0.0
C1821 C 0.51843 0.29765 0.11586 0.0
C1822 C 0.51244 0.2647 0.11483 0.0
C1823 C 0.49871 0.17057 0.11291 0.0
C1824 C 0.50222 0.20253 0.1133 0.0
H1825 H 0.57314 0.37323 0.1078 0.0
H1826 H 0.56274 0.31935 0.10524 0.0
H1827 H 0.4923 0.25068 0.13434 0.0
H1828 H 0.44817 0.09487 0.12227 0.0
H1829 H 0.4516 0.1463 0.12106 0.0
C1830 C 0.73831 0.19192 0.12458 0.0
C1831 C 0.71345 0.19324 0.11835 0.0
C1832 C 0.76938 0.21609 0.12297 0.0
C1833 C 0.82124 0.28621 0.10244 0.0
H1834 H 0.87555 0.30951 0.133 0.0
C1835 C 0.93909 0.40372 0.1074 0.0
C1836 C 0.96458 0.40308 0.11342 0.0
C1837 C 0.90949 0.37658 0.10671 0.0
C1838 C 0.86085 0.30303 0.12432 0.0
H1839 H 0.70173 0.22071 0.10534 0.0
H1840 H 0.75605 0.26356 0.10277 0.0
H1841 H 0.8218 0.26594 0.13443 0.0
H1842 H 0.97908 0.37304 0.12306 0.0
H1843 H 0.92719 0.32559 0.12195 0.0
H1844 H 0.8603 0.32425 0.09251 0.0
C1845 C 0.75162 0.2435 0.10872 0.0
C1846 C 0.82994 0.27795 0.12512 0.0
C1847 C 0.72045 0.21903 0.11022 0.0
C1848 C 0.96 0.37434 0.11833 0.0
C1849 C 0.93023 0.34722 0.11778 0.0
C1850 C 0.85212 0.31155 0.10169 0.0
C1851 C 0.77651 0.24252 0.1152 0.0
C1852 C 0.80963 0.26915 0.1142 0.0
C1853 C 0.90452 0.34817 0.11215 0.0
C1854 C 0.87226 0.32026 0.11263 0.0
H1855 H 0.73371 0.17203 0.13071 0.0
H1856 H 0.78784 0.21396 0.12784 0.0
H1857 H 0.80656 0.2799 0.09376 0.0
H1858 H 0.94179 0.42543 0.10347 0.0
H1859 H 0.89016 0.37817 0.10239 0.0
C1860 C 0.66704 0.54672 0.11275 0.0
C1861 C 0.66922 0.5759 0.11535 0.0
C1862 C 0.69403 0.54425 0.11146 0.0
C1863 C 0.77806 0.58397 0.12063 0.0
H1864 H 0.78004 0.52514 0.09579 0.0
C1865 C 0.88764 0.5698 0.1143 0.0
C1866 C 0.88225 0.53891 0.11325 0.0
C1867 C 0.86265 0.57581 0.1137 0.0
C1868 C 0.77978 0.54148 0.10286 0.0
H1869 H 0.70189 0.62556 0.11836 0.0
H1870 H 0.74925 0.62128 0.11598 0.0
H1871 H 0.73531 0.53381 0.09594 0.0
H1872 H 0.8462 0.49018 0.11053 0.0
H1873 H 0.80253 0.50061 0.1096 0.0
H1874 H 0.82248 0.59144 0.1276 0.0
C1875 C 0.72644 0.60022 0.11509 0.0
C1876 C 0.75411 0.54649 0.10294 0.0
C1877 C 0.69929 0.60272 0.11636 0.0
C1878 C 0.8512 0.51422 0.11145 0.0
C1879 C 0.82619 0.52025 0.11079 0.0
C1880 C 0.80379 0.57901 0.12052 0.0
C1881 C 0.72413 0.57087 0.11271 0.0
C1882 C 0.75269 0.56749 0.11195 0.0
C1883 C 0.83157 0.55111 0.112 0.0
C1884 C 0.80482 0.55742 0.11173 0.0
H1885 H 0.64436 0.52546 0.11188 0.0
H1886 H 0.69121 0.52119 0.10984 0.0
H1887 H 0.77762 0.59998 0.12782 0.0
H1888 H 0.91117 0.58937 0.11588 0.0
H1889 H 0.86771 0.59987 0.11455 0.0
C1890 C 0.36576 0.54506 0.95419 0.0
C1891 C 0.37227 0.52693 0.94544 0.0
C1892 C 0.33486 0.53905 0.95582 0.0
C1893 C 0.25127 0.47811 0.95111 0.0
H1894 H 0.23722 0.54891 0.94921 0.0
C1895 C 0.12717 0.46312 0.94332 0.0
C1896 C 0.12101 0.48579 0.94874 0.0
C1897 C 0.15726 0.46659 0.94431 0.0
C1898 C 0.2406 0.52882 0.95003 0.0
H1899 H 0.3513 0.48748 0.93196 0.0
H1900 H 0.29758 0.477 0.93483 0.0
H1901 H 0.29068 0.55801 0.94868 0.0
H1902 H 0.14103 0.52878 0.96017 0.0
H1903 H 0.1928 0.53417 0.96233 0.0
H1904 H 0.20121 0.44887 0.95251 0.0
C1905 C 0.31627 0.49591 0.9404 0.0
C1906 C 0.27137 0.53411 0.94968 0.0
C1907 C 0.34712 0.50213 0.93865 0.0
C1908 C 0.14508 0.51106 0.95574 0.0
C1909 C 0.17493 0.51431 0.95688 0.0
C1910 C 0.22045 0.47281 0.95159 0.0
C1911 C 0.30978 0.51448 0.94889 0.0
C1912 C 0.27709 0.50883 0.95009 0.0
C1913 C 0.18178 0.49262 0.95087 0.0
C1914 C 0.21463 0.49808 0.95095 0.0
H1915 H 0.38464 0.56434 0.95953 0.0
H1916 H 0.33059 0.55363 0.96252 0.0
H1917 H 0.25491 0.45813 0.95159 0.0
H1918 H 0.10921 0.44351 0.93778 0.0
H1919 H 0.16158 0.44951 0.93945 0.0
C1920 C 0.57989 0.87706 0.93761 0.0
C1921 C 0.55309 0.87525 0.94345 0.0
C1922 C 0.58652 0.85268 0.93909 0.0
C1923 C 0.56562 0.78042 0.95865 0.0
H1924 H 0.59972 0.75978 0.92838 0.0
C1925 C 0.56459 0.66263 0.95269 0.0
C1926 C 0.59111 0.66326 0.9471 0.0
C1927 C 0.56259 0.68998 0.95351 0.0
C1928 C 0.59063 0.7655 0.93699 0.0
H1929 H 0.51252 0.84662 0.95563 0.0
H1930 H 0.52354 0.80349 0.95798 0.0
H1931 H 0.59033 0.80387 0.92725 0.0
H1932 H 0.63675 0.69347 0.93831 0.0
H1933 H 0.63313 0.74136 0.93964 0.0
H1934 H 0.565 0.74116 0.96818 0.0
C1935 C 0.53985 0.82407 0.95244 0.0
C1936 C 0.58525 0.79088 0.93637 0.0
C1937 C 0.53341 0.84873 0.95107 0.0
C1938 C 0.61605 0.69217 0.94271 0.0
C1939 C 0.61387 0.71954 0.94338 0.0
C1940 C 0.57073 0.75481 0.95922 0.0
C1941 C 0.56635 0.82555 0.94633 0.0
C1942 C 0.57258 0.79872 0.94718 0.0
C1943 C 0.5869 0.71866 0.94863 0.0
C1944 C 0.5832 0.74698 0.94838 0.0
H1945 H 0.59586 0.89747 0.93188 0.0
H1946 H 0.60758 0.85519 0.93453 0.0
H1947 H 0.55636 0.78594 0.96726 0.0
H1948 H 0.54498 0.64079 0.95623 0.0
H1949 H 0.54142 0.6884 0.95752 0.0
C1950 C 0.38491 0.9499 0.94539 0.0
C1951 C 0.41494 0.95423 0.94807 0.0
C1952 C 0.35809 0.91987 0.94633 0.0
C1953 C 0.33608 0.83619 0.94471 0.0
H1954 H 0.25625 0.81967 0.9592 0.0
C1955 C 0.23361 0.70942 0.9517 0.0
C1956 C 0.20318 0.70334 0.94856 0.0
C1957 C 0.25878 0.74034 0.95241 0.0
C1958 C 0.27829 0.82392 0.955 0.0
H1959 H 0.43999 0.93066 0.95462 0.0
H1960 H 0.39362 0.87896 0.95634 0.0
H1961 H 0.30091 0.87342 0.95903 0.0
H1962 H 0.17549 0.72518 0.94366 0.0
H1963 H 0.21929 0.77894 0.94482 0.0
H1964 H 0.31366 0.78703 0.94052 0.0
C1965 C 0.39071 0.89844 0.95321 0.0
C1966 C 0.30388 0.85474 0.95491 0.0
C1967 C 0.41734 0.92823 0.95228 0.0
C1968 C 0.19849 0.72898 0.94633 0.0
C1969 C 0.22366 0.75988 0.947 0.0
C1970 C 0.31057 0.8055 0.94476 0.0
C1971 C 0.36084 0.89367 0.94995 0.0
C1972 C 0.33316 0.8612 0.94985 0.0
C1973 C 0.25422 0.76599 0.94992 0.0
C1974 C 0.28136 0.79886 0.94997 0.0
H1975 H 0.38223 0.9694 0.94211 0.0
H1976 H 0.33539 0.91698 0.94373 0.0
H1977 H 0.35808 0.8404 0.94048 0.0
H1978 H 0.23797 0.69025 0.95363 0.0
H1979 H 0.28186 0.74413 0.95493 0.0
C1980 C 0.19565 0.68131 0.43725 0.0
C1981 C 0.20407 0.69691 0.44944 0.0
C1982 C 0.18847 0.64996 0.43617 0.0
C1983 C 0.16413 0.57799 0.45611 0.0
H1984 H 0.1949 0.55167 0.42648 0.0
C1985 C 0.13509 0.44873 0.44998 0.0
C1986 C 0.16085 0.44498 0.44671 0.0
C1987 C 0.13747 0.47838 0.44911 0.0
C1988 C 0.18612 0.55861 0.43483 0.0
H1989 H 0.21123 0.69138 0.47007 0.0
H1990 H 0.19944 0.63716 0.46814 0.0
H1991 H 0.20571 0.60577 0.4277 0.0
H1992 H 0.20884 0.46931 0.4394 0.0
H1993 H 0.21291 0.52051 0.43792 0.0
H1994 H 0.1454 0.53111 0.46346 0.0
C1995 C 0.19805 0.64903 0.45942 0.0
C1996 C 0.19208 0.5896 0.43547 0.0
C1997 C 0.20529 0.68035 0.46049 0.0
C1998 C 0.1885 0.47125 0.44204 0.0
C1999 C 0.19081 0.5007 0.44111 0.0
C2000 C 0.1581 0.54698 0.45546 0.0
C2001 C 0.18938 0.63333 0.44727 0.0
C2002 C 0.18156 0.59985 0.44621 0.0
C2003 C 0.16556 0.50484 0.44484 0.0
C2004 C 0.16941 0.53699 0.44491 0.0
H2005 H 0.19464 0.69335 0.42852 0.0
H2006 H 0.18171 0.63859 0.42667 0.0
H2007 H 0.15523 0.58489 0.46444 0.0
H2008 H 0.11347 0.42905 0.45363 0.0
H2009 H 0.11743 0.48065 0.45192 0.0
C2010 C 0.60158 0.74238 0.44512 0.0
C2011 C 0.62858 0.74023 0.44779 0.0
C2012 C 0.57207 0.71538 0.44395 0.0
C2013 C 0.52794 0.63191 0.45377 0.0
H2014 H 0.46632 0.6288 0.42903 0.0
C2015 C 0.40386 0.52236 0.44855 0.0
C2016 C 0.37837 0.52781 0.44763 0.0
C2017 C 0.43487 0.54722 0.44762 0.0
C2018 C 0.48317 0.62939 0.43607 0.0
H2019 H 0.64558 0.70766 0.45102 0.0
H2020 H 0.59387 0.6603 0.44884 0.0
H2021 H 0.51984 0.67344 0.42875 0.0
H2022 H 0.36567 0.56377 0.44476 0.0
H2023 H 0.41983 0.60725 0.44325 0.0
H2024 H 0.49114 0.58794 0.46115 0.0
C2025 C 0.59564 0.68307 0.44781 0.0
C2026 C 0.5139 0.65499 0.43591 0.0
C2027 C 0.62533 0.71022 0.44896 0.0
C2028 C 0.38472 0.55876 0.44559 0.0
C2029 C 0.41578 0.58364 0.4446 0.0
C2030 C 0.49721 0.60625 0.45391 0.0
C2031 C 0.56858 0.68535 0.4454 0.0
C2032 C 0.5366 0.65682 0.44487 0.0
C2033 C 0.44126 0.57821 0.44571 0.0
C2034 C 0.47433 0.60484 0.44516 0.0
H2035 H 0.60303 0.76502 0.44414 0.0
H2036 H 0.5518 0.71816 0.44229 0.0
H2037 H 0.54461 0.6327 0.46094 0.0
H2038 H 0.3999 0.49891 0.4503 0.0
H2039 H 0.45389 0.54214 0.4484 0.0
C2040 C 0.54993 0.90199 0.4574 0.0
C2041 C 0.54974 0.87618 0.45131 0.0
C2042 C 0.52484 0.90755 0.45572 0.0
C2043 C 0.44044 0.86704 0.44794 0.0
H2044 H 0.4543 0.95132 0.44294 0.0
C2045 C 0.33577 0.88757 0.44091 0.0
C2046 C 0.33701 0.91371 0.44715 0.0
C2047 C 0.36253 0.88452 0.44006 0.0
C2048 C 0.44995 0.92766 0.44448 0.0
H2049 H 0.52309 0.83621 0.43852 0.0
H2050 H 0.47905 0.84582 0.43562 0.0
H2051 H 0.49922 0.94287 0.44401 0.0
H2052 H 0.36774 0.95766 0.45704 0.0
H2053 H 0.41443 0.95206 0.45585 0.0
H2054 H 0.39139 0.85179 0.44881 0.0
C2055 C 0.49868 0.86171 0.44174 0.0
C2056 C 0.47575 0.92281 0.44505 0.0
C2057 C 0.524 0.85632 0.44331 0.0
C2058 C 0.36604 0.93735 0.45209 0.0
C2059 C 0.39284 0.93411 0.45138 0.0
C2060 C 0.41469 0.8719 0.44748 0.0
C2061 C 0.49873 0.88732 0.44798 0.0
C2062 C 0.47131 0.89244 0.44682 0.0
C2063 C 0.3913 0.90729 0.44558 0.0
C2064 C 0.41901 0.90229 0.44576 0.0
H2065 H 0.56957 0.91798 0.4635 0.0
H2066 H 0.52557 0.92732 0.46076 0.0
H2067 H 0.43618 0.84343 0.44954 0.0
H2068 H 0.31387 0.86907 0.43685 0.0
H2069 H 0.36048 0.86399 0.43519 0.0
C2070 C 0.79255 0.79478 0.27964 0.0
C2071 C 0.78951 0.82164 0.28088 0.0
C2072 C 0.82211 0.79707 0.28094 0.0
C2073 C 0.90368 0.85007 0.29323 0.0
H2074 H 0.92682 0.80686 0.26762 0.0
C2075 C 0.03301 0.88407 0.28335 0.0
C2076 C 0.03956 0.85967 0.28114 0.0
C2077 C 1.0019 0.87764 0.28441 0.0
C2078 C 0.92064 0.81878 0.27496 0.0
H2079 H 0.81519 0.87182 0.28491 0.0
H2080 H 0.86616 0.87575 0.28701 0.0
H2081 H 0.87331 0.79801 0.26786 0.0
H2082 H 1.01834 0.80933 0.27824 0.0
H2083 H 0.96422 0.79814 0.28024 0.0
H2084 H 0.95121 0.87133 0.30015 0.0
C2085 C 0.84586 0.85283 0.28516 0.0
C2086 C 0.88988 0.81363 0.27512 0.0
C2087 C 0.8165 0.85057 0.28384 0.0
C2088 C 1.01421 0.82867 0.28012 0.0
C2089 C 0.98313 0.82227 0.28111 0.0
C2090 C 0.93443 0.85529 0.29304 0.0
C2091 C 0.8492 0.82623 0.28358 0.0
C2092 C 0.8811 0.82953 0.28415 0.0
C2093 C 0.97655 0.84668 0.2832 0.0
C2094 C 0.94341 0.83999 0.28381 0.0
H2095 H 0.77229 0.77213 0.27736 0.0
H2096 H 0.82376 0.77603 0.2798 0.0
H2097 H 0.89764 0.86229 0.30048 0.0
H2098 H 0.05196 0.90817 0.28425 0.0
H2099 H 0.99768 0.89706 0.28589 0.0
C2100 C 0.28324 0.02548 0.28004 0.0
C2101 C 0.25666 0.99565 0.28204 0.0
C2102 C 0.28099 0.05278 0.28119 0.0
C2103 C 0.22913 0.08222 0.29407 0.0
H2104 H 0.26941 0.14616 0.26725 0.0
C2105 C 0.19411 0.1767 0.28386 0.0
C2106 C 0.21837 0.20748 0.28115 0.0
C2107 C 0.20054 0.15203 0.28497 0.0
C2108 C 0.25831 0.12873 0.27491 0.0
H2109 H 0.20711 0.97139 0.28729 0.0
H2110 H 0.20322 0.01844 0.28911 0.0
H2111 H 0.27841 0.10165 0.26778 0.0
H2112 H 0.26842 0.23627 0.27737 0.0
H2113 H 0.27962 0.19339 0.27944 0.0
H2114 H 0.2085 0.10899 0.30101 0.0
C2115 C 0.22592 0.02102 0.2868 0.0
C2116 C 0.26356 0.10322 0.27525 0.0
C2117 C 0.22814 0.99388 0.28564 0.0
C2118 C 0.24922 0.21295 0.27964 0.0
C2119 C 0.2556 0.18829 0.28067 0.0
C2120 C 0.22378 0.10764 0.29369 0.0
C2121 C 0.25215 0.05084 0.28441 0.0
C2122 C 0.24874 0.0794 0.28473 0.0
C2123 C 0.23135 0.15749 0.2833 0.0
C2124 C 0.23804 0.13107 0.28403 0.0
H2125 H 0.30556 0.02774 0.27724 0.0
H2126 H 0.30179 0.07538 0.27944 0.0
H2127 H 0.21776 0.06466 0.30167 0.0
H2128 H 0.17013 0.17168 0.28514 0.0
H2129 H 0.18124 0.12854 0.28687 0.0
C2130 C 0.89574 0.04429 0.28349 0.0
C2131 C 0.86907 0.03794 0.27606 0.0
C2132 C 0.92053 0.07529 0.28506 0.0
C2133 C 0.95375 0.15473 0.26981 0.0
H2134 H 1.0037 0.1826 0.30164 0.0
C2135 C 0.05202 0.28403 0.27701 0.0
C2136 C 0.08107 0.28812 0.2813 0.0
C2137 C 1.02477 0.25433 0.27755 0.0
C2138 C 0.99 0.17513 0.29267 0.0
H2139 H 0.84676 0.05923 0.26505 0.0
H2140 H 0.88931 0.11302 0.26803 0.0
H2141 H 0.95894 0.12914 0.30033 0.0
H2142 H 0.10387 0.26444 0.2901 0.0
H2143 H 0.05644 0.21297 0.29115 0.0
H2144 H 0.98475 0.20076 0.26219 0.0
C2145 C 0.89181 0.09419 0.27229 0.0
C2146 C 0.9644 0.14439 0.29189 0.0
C2147 C 0.86728 0.06329 0.27061 0.0
C2148 C 0.08193 0.26216 0.28667 0.0
C2149 C 0.05468 0.23262 0.28734 0.0
C2150 C 0.97912 0.18549 0.27065 0.0
C2151 C 0.91906 0.10068 0.27935 0.0
C2152 C 0.94599 0.13367 0.28041 0.0
C2153 C 1.02589 0.22817 0.28253 0.0
C2154 C 0.9977 0.19602 0.28205 0.0
H2155 H 0.89784 0.02522 0.28776 0.0
H2156 H 0.94121 0.07921 0.29045 0.0
H2157 H 0.94068 0.1473 0.2607 0.0
H2158 H 0.05052 0.30347 0.27278 0.0
H2159 H 1.00288 0.25174 0.27389 0.0
C2160 C 0.86451 0.81087 0.7819 0.0
C2161 C 0.83474 0.78416 0.7839 0.0
C2162 C 0.86804 0.84085 0.78137 0.0
C2163 C 0.82509 0.88392 0.77619 0.0
H2164 H 0.89676 0.95079 0.79443 0.0
C2165 C 0.84032 1.0076 0.78436 0.0
C2166 C 0.87086 0.0338 0.78348 0.0
C2167 C 0.83542 0.97702 0.78381 0.0
C2168 C 0.87686 0.93253 0.78913 0.0
H2169 H 0.78518 0.76813 0.78665 0.0
H2170 H 0.79139 0.82076 0.78577 0.0
H2171 H 0.88862 0.8977 0.79472 0.0
H2172 H 0.9201 0.04823 0.78091 0.0
H2173 H 0.91157 0.99488 0.77988 0.0
H2174 H 0.81335 0.91888 0.77062 0.0
C2175 C 0.81198 0.81832 0.78453 0.0
C2176 C 0.87215 0.90202 0.78931 0.0
C2177 C 0.80843 0.78817 0.78508 0.0
C2178 C 0.89633 0.02861 0.7818 0.0
C2179 C 0.89142 0.99801 0.78123 0.0
C2180 C 0.82983 0.91451 0.77599 0.0
C2181 C 0.84193 0.84506 0.78283 0.0
C2182 C 0.8463 0.87734 0.7828 0.0
C2183 C 0.86093 0.97181 0.78237 0.0
C2184 C 0.85586 0.93923 0.78243 0.0
H2185 H 0.88534 0.80877 0.78085 0.0
H2186 H 0.89134 0.86081 0.77978 0.0
H2187 H 0.80514 0.86554 0.77096 0.0
H2188 H 0.8202 1.01068 0.7859 0.0
H2189 H 0.81169 0.95746 0.78491 0.0
C2190 C 0.29049 0.04535 0.78521 0.0
C2191 C 0.29341 0.07518 0.78378 0.0
C2192 C 0.26079 1.01797 0.78468 0.0
C2193 C 0.17763 0.98838 0.77414 0.0
H2194 H 0.15831 0.92211 0.79939 0.0
C2195 C 0.04985 0.88879 0.78438 0.0
C2196 C 0.04474 0.85819 0.78618 0.0
C2197 C 0.08049 0.91458 0.78352 0.0
C2198 C 0.16338 0.94021 0.79217 0.0
H2199 H 0.26708 0.09928 0.78037 0.0
H2200 H 0.21591 0.05207 0.77961 0.0
H2201 H 0.21129 0.96762 0.79852 0.0
H2202 H 0.06814 0.831 0.78873 0.0
H2203 H 0.12133 0.87575 0.78708 0.0
H2204 H 0.1296 0.96116 0.76791 0.0
C2205 C 0.23643 0.04959 0.78099 0.0
C2206 C 0.19385 0.96633 0.79164 0.0
C2207 C 0.26596 0.07682 0.78152 0.0
C2208 C 0.0711 0.85413 0.78716 0.0
C2209 C 0.10169 0.87989 0.78637 0.0
C2210 C 0.14716 0.96233 0.77469 0.0
C2211 C 0.23331 0.01975 0.78267 0.0
C2212 C 0.20136 0.99094 0.7827 0.0
C2213 C 0.10684 0.91049 0.78454 0.0
C2214 C 0.13953 0.93798 0.78377 0.0
H2215 H 0.31106 0.04313 0.78697 0.0
H2216 H 0.25937 0.99539 0.78587 0.0
H2217 H 0.18259 1.00653 0.76695 0.0
H2218 H 0.03016 0.89281 0.78351 0.0
H2219 H 0.08353 0.93783 0.78225 0.0
C2220 C 0.21429 0.23673 0.79048 0.0
C2221 C 0.21384 0.21036 0.78484 0.0
C2222 C 0.18908 0.24204 0.78872 0.0
C2223 C 0.10435 0.20069 0.78176 0.0
H2224 H 0.11782 0.28429 0.77514 0.0
C2225 C 0.99932 0.22051 0.77452 0.0
C2226 C 1.00099 0.24729 0.7803 0.0
C2227 C 1.026 0.21731 0.77368 0.0
C2228 C 0.11359 0.26084 0.77713 0.0
H2229 H 0.18662 0.16911 0.77278 0.0
H2230 H 0.14233 0.17828 0.76974 0.0
H2231 H 0.16282 0.27599 0.7763 0.0
H2232 H 0.03232 0.29221 0.78938 0.0
H2233 H 0.07886 0.28639 0.78822 0.0
H2234 H 0.05536 0.18554 0.783 0.0
C2235 C 0.16227 0.1948 0.77557 0.0
C2236 C 0.13942 0.25607 0.77775 0.0
C2237 C 0.18771 0.18966 0.77722 0.0
C2238 C 0.03029 0.27138 0.7848 0.0
C2239 C 0.05701 0.26801 0.7841 0.0
C2240 C 0.07857 0.20547 0.78125 0.0
C2241 C 0.16261 0.221 0.78135 0.0
C2242 C 0.13512 0.22594 0.78011 0.0
C2243 C 0.05509 0.24062 0.77875 0.0
C2244 C 0.08277 0.23563 0.77895 0.0
H2245 H 0.23424 0.25336 0.79628 0.0
H2246 H 0.19001 0.26229 0.79341 0.0
H2247 H 0.10023 0.17729 0.78381 0.0
H2248 H 0.97719 0.20164 0.77081 0.0
H2249 H 1.02365 0.19629 0.76917 0.0
C2250 C 0.45902 0.12558 0.61103 0.0
C2251 C 0.45545 0.15211 0.61243 0.0
C2252 C 0.48889 0.12845 0.61197 0.0
C2253 C 0.57049 0.18246 0.62394 0.0
H2254 H 0.59386 0.13862 0.59874 0.0
C2255 C 0.69998 0.21564 0.61496 0.0
C2256 C 0.70638 0.19105 0.61299 0.0
C2257 C 0.6689 0.20948 0.61569 0.0
C2258 C 0.58762 0.15075 0.60596 0.0
H2259 H 0.48073 0.20244 0.61615 0.0
H2260 H 0.53223 0.20735 0.61762 0.0
H2261 H 0.5403 0.1297 0.5988 0.0
H2262 H 0.6849 0.14067 0.61015 0.0
H2263 H 0.63086 0.12994 0.61161 0.0
H2264 H 0.61794 0.20388 0.63095 0.0
C2265 C 0.51207 0.18423 0.61597 0.0
C2266 C 0.55684 0.14557 0.60601 0.0
C2267 C 0.48238 0.18139 0.61502 0.0
C2268 C 0.68089 0.16015 0.61185 0.0
C2269 C 0.64985 0.15402 0.61252 0.0
C2270 C 0.60125 0.1877 0.62386 0.0
C2271 C 0.51584 0.15789 0.61439 0.0
C2272 C 0.54794 0.16162 0.61491 0.0
C2273 C 0.64342 0.1786 0.6144 0.0
C2274 C 0.61032 0.17215 0.61479 0.0
H2275 H 0.43884 0.10267 0.60903 0.0
H2276 H 0.49087 0.10759 0.61082 0.0
H2277 H 0.56437 0.1948 0.6311 0.0
H2278 H 0.71901 0.23967 0.61594 0.0
H2279 H 0.66483 0.22903 0.61702 0.0
C2280 C 0.95047 0.35565 0.6131 0.0
C2281 C 0.92405 0.32583 0.61532 0.0
C2282 C 0.94813 0.38292 0.61422 0.0
C2283 C 0.89643 0.41231 0.62739 0.0
H2284 H 0.93531 0.47563 0.60024 0.0
C2285 C 0.85974 0.50553 0.61716 0.0
C2286 C 0.88369 0.53637 0.61433 0.0
C2287 C 0.86655 0.48112 0.61826 0.0
C2288 C 0.9246 0.45837 0.608 0.0
H2289 H 0.87473 0.30156 0.62094 0.0
H2290 H 0.87069 0.34852 0.62272 0.0
H2291 H 0.94479 0.43142 0.6008 0.0
H2292 H 0.93358 0.56552 0.61029 0.0
H2293 H 0.94543 0.52308 0.61233 0.0
H2294 H 0.87567 0.43892 0.63438 0.0
C2295 C 0.89334 0.35114 0.62025 0.0
C2296 C 0.93013 0.43303 0.60835 0.0
C2297 C 0.89564 0.32405 0.61912 0.0
C2298 C 0.91461 0.54216 0.61266 0.0
C2299 C 0.92137 0.51774 0.61368 0.0
C2300 C 0.89078 0.43754 0.62699 0.0
C2301 C 0.91938 0.38095 0.61765 0.0
C2302 C 0.9158 0.40942 0.61795 0.0
C2303 C 0.89743 0.48688 0.61645 0.0
C2304 C 0.90451 0.46072 0.61721 0.0
H2305 H 0.9727 0.35792 0.61015 0.0
H2306 H 0.9688 0.40552 0.6123 0.0
H2307 H 0.88544 0.39494 0.63508 0.0
H2308 H 0.83572 0.50027 0.61855 0.0
H2309 H 0.84748 0.45757 0.62028 0.0
C2310 C 0.53091 0.39184 0.60428 0.0
C2311 C 0.53229 0.36686 0.61037 0.0
C2312 C 0.55566 0.42279 0.60554 0.0
C2313 C 0.62777 0.4742 0.62521 0.0
H2314 H 0.64911 0.52875 0.59483 0.0
C2315 C 0.74551 0.59159 0.61975 0.0
C2316 C 0.74494 0.61729 0.61392 0.0
C2317 C 0.71822 0.5621 0.62047 0.0
C2318 C 0.6432 0.51399 0.60347 0.0
H2319 H 0.56073 0.35496 0.62271 0.0
H2320 H 0.60444 0.40895 0.62469 0.0
H2321 H 0.60502 0.4752 0.59365 0.0
H2322 H 0.71484 0.63221 0.60463 0.0
H2323 H 0.66709 0.58053 0.60584 0.0
H2324 H 0.66676 0.51298 0.63484 0.0
C2325 C 0.5839 0.40472 0.61912 0.0
C2326 C 0.61783 0.48318 0.60281 0.0
C2327 C 0.55889 0.37369 0.61795 0.0
C2328 C 0.71611 0.61298 0.60922 0.0
C2329 C 0.68881 0.58331 0.60981 0.0
C2330 C 0.65336 0.50497 0.62581 0.0
C2331 C 0.58274 0.42972 0.61284 0.0
C2332 C 0.60972 0.46276 0.61366 0.0
C2333 C 0.68966 0.5574 0.61527 0.0
C2334 C 0.66144 0.52523 0.61494 0.0
H2335 H 0.51046 0.38748 0.59858 0.0
H2336 H 0.55341 0.44132 0.60083 0.0
H2337 H 0.62202 0.45949 0.63385 0.0
H2338 H 0.76728 0.59404 0.6235 0.0
H2339 H 0.7198 0.54266 0.62465 0.0
loop_
_geom_bond_atom_site_label_1
_geom_bond_atom_site_label_2
_geom_bond_distance
_geom_bond_site_symmetry_2
_ccdc_geom_bond_type
La0 C2 2.928 . S
La0 O20 2.521 . S
La0 O21 2.628 . S
La0 O22 2.554 . S
La0 O23 2.757 1_545 S
La0 O24 2.470 . S
La0 O29 2.482 . S
La0 O31 2.503 1_545 S
La1 C11 2.928 . S
La1 O23 2.482 . S
La1 O25 2.503 1_565 S
La1 O26 2.521 . S
La1 O27 2.628 . S
La1 O28 2.554 . S
La1 O29 2.757 1_565 S
La1 O30 2.470 . S
C2 La0 2.928 . S
C2 C3 1.503 . S
C2 O20 1.261 . S
C2 O21 1.243 . S
C3 C2 1.503 . S
C3 C4 1.394 . S
C3 C8 1.373 . S
C4 C3 1.394 . S
C4 C5 1.380 . S
C4 H32 0.930 . S
C5 C4 1.380 . S
C5 C6 1.376 . S
C5 H33 0.930 . S
C6 C5 1.376 . S
C6 C7 1.370 . S
C7 C6 1.370 . S
C7 C8 1.396 . S
C7 H34 0.929 . S
C8 C3 1.373 . S
C8 C7 1.396 . S
C8 H35 0.929 . S
C9 O22 1.240 . S
C9 O23 1.289 1_545 S
C10 O24 1.258 . S
C10 O25 1.256 . S
C11 La1 2.928 . S
C11 C12 1.503 . S
C11 O26 1.261 . S
C11 O27 1.243 . S
C12 C11 1.503 . S
C12 C13 1.394 . S
C12 C17 1.373 . S
C13 C12 1.394 . S
C13 C14 1.380 . S
C13 H36 0.930 . S
C14 C13 1.380 . S
C14 C15 1.376 . S
C14 H37 0.930 . S
C15 C14 1.376 . S
C15 C16 1.370 . S
C16 C15 1.370 . S
C16 C17 1.396 . S
C16 H38 0.929 . S
C17 C12 1.373 . S
C17 C16 1.396 . S
C17 H39 0.929 . S
C18 O28 1.240 1_545 S
C18 O29 1.289 . S
C19 O30 1.258 . S
C19 O31 1.256 . S
O20 La0 2.521 . S
O20 C2 1.261 . S
O21 La0 2.628 . S
O21 C2 1.243 . S
O22 La0 2.554 . S
O22 C9 1.240 . S
O23 La0 2.757 1_565 S
O23 La1 2.482 . S
O23 C9 1.289 1_565 S
O24 La0 2.470 . S
O24 C10 1.258 . S
O25 La1 2.503 1_545 S
O25 C10 1.256 . S
O26 La1 2.521 . S
O26 C11 1.261 . S
O27 La1 2.628 . S
O27 C11 1.243 . S
O28 La1 2.554 . S
O28 C18 1.240 1_565 S
O29 La0 2.482 . S
O29 La1 2.757 1_545 S
O29 C18 1.289 . S
O30 La1 2.470 . S
O30 C19 1.258 . S
O31 La0 2.503 1_565 S
O31 C19 1.256 . S
H32 C4 0.930 . S
H33 C5 0.930 . S
H34 C7 0.929 . S
H35 C8 0.929 . S
H36 C13 0.930 . S
H37 C14 0.930 . S
H38 C16 0.929 . S
H39 C17 0.929 . S
La40 C42 2.928 1_455 S
La40 O60 2.521 1_455 S
La40 O61 2.628 1_455 S
La40 O62 2.554 . S
La40 O63 2.757 . S
La40 O64 2.470 1_455 S
La40 O69 2.482 . S
La40 O71 2.503 . S
La41 C51 2.928 . S
La41 O63 2.482 . S
La41 O65 2.503 1_455 S
La41 O66 2.521 . S
La41 O67 2.628 . S
La41 O68 2.554 . S
La41 O69 2.757 . S
La41 O70 2.470 . S
C42 La40 2.928 1_655 S
C42 C43 1.503 . S
C42 O60 1.261 . S
C42 O61 1.243 . S
C43 C42 1.503 . S
C43 C44 1.394 . S
C43 C48 1.373 . S
C44 C43 1.394 . S
C44 C45 1.380 . S
C44 H72 0.930 . S
C45 C44 1.380 . S
C45 C46 1.376 . S
C45 H73 0.930 . S
C46 C45 1.376 . S
C46 C47 1.370 . S
C47 C46 1.370 . S
C47 C48 1.396 . S
C47 H74 0.929 . S
C48 C43 1.373 . S
C48 C47 1.396 . S
C48 H75 0.929 . S
C49 O62 1.240 . S
C49 O63 1.289 . S
C50 O64 1.258 . S
C50 O65 1.256 . S
C51 La41 2.928 . S
C51 C52 1.503 . S
C51 O66 1.261 . S
C51 O67 1.243 . S
C52 C51 1.503 . S
C52 C53 1.394 . S
C52 C57 1.373 . S
C53 C52 1.394 . S
C53 C54 1.380 . S
C53 H76 0.930 . S
C54 C53 1.380 . S
C54 C55 1.376 . S
C54 H77 0.930 . S
C55 C54 1.376 . S
C55 C56 1.370 . S
C56 C55 1.370 . S
C56 C57 1.396 . S
C56 H78 0.929 . S
C57 C52 1.373 . S
C57 C56 1.396 . S
C57 H79 0.929 . S
C58 O68 1.240 . S
C58 O69 1.289 . S
C59 O70 1.258 . S
C59 O71 1.256 . S
O60 La40 2.521 1_655 S
O60 C42 1.261 . S
O61 La40 2.628 1_655 S
O61 C42 1.243 . S
O62 La40 2.554 . S
O62 C49 1.240 . S
O63 La40 2.757 . S
O63 La41 2.482 . S
O63 C49 1.289 . S
O64 La40 2.470 1_655 S
O64 C50 1.258 . S
O65 La41 2.503 1_655 S
O65 C50 1.256 . S
O66 La41 2.521 . S
O66 C51 1.261 . S
O67 La41 2.628 . S
O67 C51 1.243 . S
O68 La41 2.554 . S
O68 C58 1.240 . S
O69 La40 2.482 . S
O69 La41 2.757 . S
O69 C58 1.289 . S
O70 La41 2.470 . S
O70 C59 1.258 . S
O71 La40 2.503 . S
O71 C59 1.256 . S
H72 C44 0.930 . S
H73 C45 0.930 . S
H74 C47 0.929 . S
H75 C48 0.929 . S
H76 C53 0.930 . S
H77 C54 0.930 . S
H78 C56 0.929 . S
H79 C57 0.929 . S
La80 C82 2.928 . S
La80 O100 2.521 . S
La80 O101 2.628 . S
La80 O102 2.554 . S
La80 O103 2.757 . S
La80 O104 2.470 . S
La80 O109 2.482 . S
La80 O111 2.503 . S
La81 C91 2.928 . S
La81 O103 2.482 . S
La81 O105 2.503 . S
La81 O106 2.521 . S
La81 O107 2.628 . S
La81 O108 2.554 . S
La81 O109 2.757 . S
La81 O110 2.470 . S
C82 La80 2.928 . S
C82 C83 1.503 . S
C82 O100 1.261 . S
C82 O101 1.243 . S
C83 C82 1.503 . S
C83 C84 1.394 . S
C83 C88 1.373 . S
C84 C83 1.394 . S
C84 C85 1.380 . S
C84 H112 0.930 . S
C85 C84 1.380 . S
C85 C86 1.376 . S
C85 H113 0.930 . S
C86 C85 1.376 . S
C86 C87 1.370 . S
C87 C86 1.370 . S
C87 C88 1.396 . S
C87 H114 0.929 . S
C88 C83 1.373 . S
C88 C87 1.396 . S
C88 H115 0.929 . S
C89 O102 1.240 . S
C89 O103 1.289 . S
C90 O104 1.258 . S
C90 O105 1.256 . S
C91 La81 2.928 . S
C91 C92 1.503 . S
C91 O106 1.261 . S
C91 O107 1.243 . S
C92 C91 1.503 . S
C92 C93 1.394 . S
C92 C97 1.373 . S
C93 C92 1.394 . S
C93 C94 1.380 . S
C93 H116 0.930 . S
C94 C93 1.380 . S
C94 C95 1.376 . S
C94 H117 0.930 . S
C95 C94 1.376 . S
C95 C96 1.370 . S
C96 C95 1.370 . S
C96 C97 1.396 . S
C96 H118 0.929 . S
C97 C92 1.373 . S
C97 C96 1.396 . S
C97 H119 0.929 . S
C98 O108 1.240 . S
C98 O109 1.289 . S
C99 O110 1.258 . S
C99 O111 1.256 . S
O100 La80 2.521 . S
O100 C82 1.261 . S
O101 La80 2.628 . S
O101 C82 1.243 . S
O102 La80 2.554 . S
O102 C89 1.240 . S
O103 La80 2.757 . S
O103 La81 2.482 . S
O103 C89 1.289 . S
O104 La80 2.470 . S
O104 C90 1.258 . S
O105 La81 2.503 . S
O105 C90 1.256 . S
O106 La81 2.521 . S
O106 C91 1.261 . S
O107 La81 2.628 . S
O107 C91 1.243 . S
O108 La81 2.554 . S
O108 C98 1.240 . S
O109 La80 2.482 . S
O109 La81 2.757 . S
O109 C98 1.289 . S
O110 La81 2.470 . S
O110 C99 1.258 . S
O111 La80 2.503 . S
O111 C99 1.256 . S
H112 C84 0.930 . S
H113 C85 0.930 . S
H114 C87 0.929 . S
H115 C88 0.929 . S
H116 C93 0.930 . S
H117 C94 0.930 . S
H118 C96 0.929 . S
H119 C97 0.929 . S
La120 C122 2.928 . S
La120 O140 2.521 . S
La120 O141 2.628 . S
La120 O142 2.554 . S
La120 O143 2.757 1_455 S
La120 O144 2.470 . S
La120 O149 2.482 . S
La120 O151 2.503 1_455 S
La121 C131 2.928 . S
La121 O143 2.482 . S
La121 O145 2.503 1_655 S
La121 O146 2.521 . S
La121 O147 2.628 . S
La121 O148 2.554 . S
La121 O149 2.757 1_655 S
La121 O150 2.470 . S
C122 La120 2.928 . S
C122 C123 1.503 . S
C122 O140 1.261 . S
C122 O141 1.243 . S
C123 C122 1.503 . S
C123 C124 1.394 . S
C123 C128 1.373 . S
C124 C123 1.394 . S
C124 C125 1.380 . S
C124 H152 0.930 . S
C125 C124 1.380 . S
C125 C126 1.376 . S
C125 H153 0.930 . S
C126 C125 1.376 . S
C126 C127 1.370 . S
C127 C126 1.370 . S
C127 C128 1.396 . S
C127 H154 0.929 . S
C128 C123 1.373 . S
C128 C127 1.396 . S
C128 H155 0.929 . S
C129 O142 1.240 . S
C129 O143 1.289 1_455 S
C130 O144 1.258 . S
C130 O145 1.256 . S
C131 La121 2.928 . S
C131 C132 1.503 . S
C131 O146 1.261 . S
C131 O147 1.243 . S
C132 C131 1.503 . S
C132 C133 1.394 . S
C132 C137 1.373 . S
C133 C132 1.394 . S
C133 C134 1.380 . S
C133 H156 0.930 . S
C134 C133 1.380 . S
C134 C135 1.376 . S
C134 H157 0.930 . S
C135 C134 1.376 . S
C135 C136 1.370 . S
C136 C135 1.370 . S
C136 C137 1.396 . S
C136 H158 0.929 . S
C137 C132 1.373 . S
C137 C136 1.396 . S
C137 H159 0.929 . S
C138 O148 1.240 1_455 S
C138 O149 1.289 . S
C139 O150 1.258 . S
C139 O151 1.256 . S
O140 La120 2.521 . S
O140 C122 1.261 . S
O141 La120 2.628 . S
O141 C122 1.243 . S
O142 La120 2.554 . S
O142 C129 1.240 . S
O143 La120 2.757 1_655 S
O143 La121 2.482 . S
O143 C129 1.289 1_655 S
O144 La120 2.470 . S
O144 C130 1.258 . S
O145 La121 2.503 1_455 S
O145 C130 1.256 . S
O146 La121 2.521 . S
O146 C131 1.261 . S
O147 La121 2.628 . S
O147 C131 1.243 . S
O148 La121 2.554 . S
O148 C138 1.240 1_655 S
O149 La120 2.482 . S
O149 La121 2.757 1_455 S
O149 C138 1.289 . S
O150 La121 2.470 . S
O150 C139 1.258 . S
O151 La120 2.503 1_655 S
O151 C139 1.256 . S
H152 C124 0.930 . S
H153 C125 0.930 . S
H154 C127 0.929 . S
H155 C128 0.929 . S
H156 C133 0.930 . S
H157 C134 0.930 . S
H158 C136 0.929 . S
H159 C137 0.929 . S
La160 C162 2.928 . S
La160 O180 2.521 . S
La160 O181 2.628 . S
La160 O182 2.554 . S
La160 O183 2.757 . S
La160 O184 2.470 . S
La160 O189 2.482 . S
La160 O191 2.503 . S
La161 C171 2.928 . S
La161 O183 2.482 . S
La161 O185 2.503 . S
La161 O186 2.521 . S
La161 O187 2.628 . S
La161 O188 2.554 . S
La161 O189 2.757 . S
La161 O190 2.470 . S
C162 La160 2.928 . S
C162 C163 1.503 . S
C162 O180 1.261 . S
C162 O181 1.243 . S
C163 C162 1.503 . S
C163 C164 1.394 . S
C163 C168 1.373 . S
C164 C163 1.394 . S
C164 C165 1.380 . S
C164 H192 0.930 . S
C165 C164 1.380 . S
C165 C166 1.376 . S
C165 H193 0.930 . S
C166 C165 1.376 . S
C166 C167 1.370 . S
C167 C166 1.370 . S
C167 C168 1.396 . S
C167 H194 0.929 . S
C168 C163 1.373 . S
C168 C167 1.396 . S
C168 H195 0.929 . S
C169 O182 1.240 . S
C169 O183 1.289 . S
C170 O184 1.258 . S
C170 O185 1.256 . S
C171 La161 2.928 . S
C171 C172 1.503 . S
C171 O186 1.261 . S
C171 O187 1.243 . S
C172 C171 1.503 . S
C172 C173 1.394 . S
C172 C177 1.373 . S
C173 C172 1.394 . S
C173 C174 1.380 . S
C173 H196 0.930 . S
C174 C173 1.380 . S
C174 C175 1.376 . S
C174 H197 0.930 . S
C175 C174 1.376 . S
C175 C176 1.370 . S
C176 C175 1.370 . S
C176 C177 1.396 . S
C176 H198 0.929 . S
C177 C172 1.373 . S
C177 C176 1.396 . S
C177 H199 0.929 . S
C178 O188 1.240 . S
C178 O189 1.289 . S
C179 O190 1.258 . S
C179 O191 1.256 . S
O180 La160 2.521 . S
O180 C162 1.261 . S
O181 La160 2.628 . S
O181 C162 1.243 . S
O182 La160 2.554 . S
O182 C169 1.240 . S
O183 La160 2.757 . S
O183 La161 2.482 . S
O183 C169 1.289 . S
O184 La160 2.470 . S
O184 C170 1.258 . S
O185 La161 2.503 . S
O185 C170 1.256 . S
O186 La161 2.521 . S
O186 C171 1.261 . S
O187 La161 2.628 . S
O187 C171 1.243 . S
O188 La161 2.554 . S
O188 C178 1.240 . S
O189 La160 2.482 . S
O189 La161 2.757 . S
O189 C178 1.289 . S
O190 La161 2.470 . S
O190 C179 1.258 . S
O191 La160 2.503 . S
O191 C179 1.256 . S
H192 C164 0.930 . S
H193 C165 0.930 . S
H194 C167 0.929 . S
H195 C168 0.929 . S
H196 C173 0.930 . S
H197 C174 0.930 . S
H198 C176 0.929 . S
H199 C177 0.929 . S
La200 C202 2.928 1_545 S
La200 O220 2.521 1_545 S
La200 O221 2.628 1_545 S
La200 O222 2.554 . S
La200 O223 2.757 . S
La200 O224 2.470 1_545 S
La200 O229 2.482 . S
La200 O231 2.503 . S
La201 C211 2.928 . S
La201 O223 2.482 . S
La201 O225 2.503 1_545 S
La201 O226 2.521 . S
La201 O227 2.628 . S
La201 O228 2.554 . S
La201 O229 2.757 . S
La201 O230 2.470 . S
C202 La200 2.928 1_565 S
C202 C203 1.503 . S
C202 O220 1.261 . S
C202 O221 1.243 . S
C203 C202 1.503 . S
C203 C204 1.394 . S
C203 C208 1.373 . S
C204 C203 1.394 . S
C204 C205 1.380 . S
C204 H232 0.930 . S
C205 C204 1.380 . S
C205 C206 1.376 . S
C205 H233 0.930 . S
C206 C205 1.376 . S
C206 C207 1.370 . S
C207 C206 1.370 . S
C207 C208 1.396 . S
C207 H234 0.929 . S
C208 C203 1.373 . S
C208 C207 1.396 . S
C208 H235 0.929 . S
C209 O222 1.240 . S
C209 O223 1.289 . S
C210 O224 1.258 . S
C210 O225 1.256 . S
C211 La201 2.928 . S
C211 C212 1.503 . S
C211 O226 1.261 . S
C211 O227 1.243 . S
C212 C211 1.503 . S
C212 C213 1.394 . S
C212 C217 1.373 . S
C213 C212 1.394 . S
C213 C214 1.380 . S
C213 H236 0.930 . S
C214 C213 1.380 . S
C214 C215 1.376 . S
C214 H237 0.930 . S
C215 C214 1.376 . S
C215 C216 1.370 . S
C216 C215 1.370 . S
C216 C217 1.396 . S
C216 H238 0.929 . S
C217 C212 1.373 . S
C217 C216 1.396 . S
C217 H239 0.929 . S
C218 O228 1.240 . S
C218 O229 1.289 . S
C219 O230 1.258 . S
C219 O231 1.256 . S
O220 La200 2.521 1_565 S
O220 C202 1.261 . S
O221 La200 2.628 1_565 S
O221 C202 1.243 . S
O222 La200 2.554 . S
O222 C209 1.240 . S
O223 La200 2.757 . S
O223 La201 2.482 . S
O223 C209 1.289 . S
O224 La200 2.470 1_565 S
O224 C210 1.258 . S
O225 La201 2.503 1_565 S
O225 C210 1.256 . S
O226 La201 2.521 . S
O226 C211 1.261 . S
O227 La201 2.628 . S
O227 C211 1.243 . S
O228 La201 2.554 . S
O228 C218 1.240 . S
O229 La200 2.482 . S
O229 La201 2.757 . S
O229 C218 1.289 . S
O230 La201 2.470 . S
O230 C219 1.258 . S
O231 La200 2.503 . S
O231 C219 1.256 . S
H232 C204 0.930 . S
H233 C205 0.930 . S
H234 C207 0.929 . S
H235 C208 0.929 . S
H236 C213 0.930 . S
H237 C214 0.930 . S
H238 C216 0.929 . S
H239 C217 0.929 . S
La240 C242 2.928 . S
La240 O260 2.521 . S
La240 O261 2.628 . S
La240 O262 2.554 . S
La240 O263 2.757 . S
La240 O264 2.470 . S
La240 O269 2.482 . S
La240 O271 2.503 . S
La241 C251 2.928 . S
La241 O263 2.482 . S
La241 O265 2.503 . S
La241 O266 2.521 . S
La241 O267 2.628 . S
La241 O268 2.554 . S
La241 O269 2.757 . S
La241 O270 2.470 . S
C242 La240 2.928 . S
C242 C243 1.503 . S
C242 O260 1.261 . S
C242 O261 1.243 . S
C243 C242 1.503 . S
C243 C244 1.394 . S
C243 C248 1.373 . S
C244 C243 1.394 . S
C244 C245 1.380 . S
C244 H272 0.930 . S
C245 C244 1.380 . S
C245 C246 1.376 . S
C245 H273 0.930 . S
C246 C245 1.376 . S
C246 C247 1.370 . S
C247 C246 1.370 . S
C247 C248 1.396 . S
C247 H274 0.929 . S
C248 C243 1.373 . S
C248 C247 1.396 . S
C248 H275 0.929 . S
C249 O262 1.240 . S
C249 O263 1.289 . S
C250 O264 1.258 . S
C250 O265 1.256 . S
C251 La241 2.928 . S
C251 C252 1.503 . S
C251 O266 1.261 . S
C251 O267 1.243 . S
C252 C251 1.503 . S
C252 C253 1.394 . S
C252 C257 1.373 . S
C253 C252 1.394 . S
C253 C254 1.380 1_455 S
C253 H276 0.930 . S
C254 C253 1.380 1_655 S
C254 C255 1.376 . S
C254 H277 0.930 . S
C255 C254 1.376 . S
C255 C256 1.370 . S
C256 C255 1.370 . S
C256 C257 1.396 1_655 S
C256 H278 0.929 . S
C257 C252 1.373 . S
C257 C256 1.396 1_455 S
C257 H279 0.929 . S
C258 O268 1.240 . S
C258 O269 1.289 . S
C259 O270 1.258 . S
C259 O271 1.256 . S
O260 La240 2.521 . S
O260 C242 1.261 . S
O261 La240 2.628 . S
O261 C242 1.243 . S
O262 La240 2.554 . S
O262 C249 1.240 . S
O263 La240 2.757 . S
O263 La241 2.482 . S
O263 C249 1.289 . S
O264 La240 2.470 . S
O264 C250 1.258 . S
O265 La241 2.503 . S
O265 C250 1.256 . S
O266 La241 2.521 . S
O266 C251 1.261 . S
O267 La241 2.628 . S
O267 C251 1.243 . S
O268 La241 2.554 . S
O268 C258 1.240 . S
O269 La240 2.482 . S
O269 La241 2.757 . S
O269 C258 1.289 . S
O270 La241 2.470 . S
O270 C259 1.258 . S
O271 La240 2.503 . S
O271 C259 1.256 . S
H272 C244 0.930 . S
H273 C245 0.930 . S
H274 C247 0.929 . S
H275 C248 0.929 . S
H276 C253 0.930 . S
H277 C254 0.930 . S
H278 C256 0.929 . S
H279 C257 0.929 . S
La280 C282 2.928 . S
La280 O300 2.521 . S
La280 O301 2.628 . S
La280 O302 2.554 . S
La280 O303 2.757 . S
La280 O304 2.470 . S
La280 O309 2.482 . S
La280 O311 2.503 . S
La281 C291 2.928 . S
La281 O303 2.482 . S
La281 O305 2.503 . S
La281 O306 2.521 . S
La281 O307 2.628 . S
La281 O308 2.554 . S
La281 O309 2.757 . S
La281 O310 2.470 . S
C282 La280 2.928 . S
C282 C283 1.503 . S
C282 O300 1.261 . S
C282 O301 1.243 . S
C283 C282 1.503 . S
C283 C284 1.394 . S
C283 C288 1.373 . S
C284 C283 1.394 . S
C284 C285 1.380 . S
C284 H312 0.930 . S
C285 C284 1.380 . S
C285 C286 1.376 . S
C285 H313 0.930 . S
C286 C285 1.376 . S
C286 C287 1.370 . S
C287 C286 1.370 . S
C287 C288 1.396 . S
C287 H314 0.929 . S
C288 C283 1.373 . S
C288 C287 1.396 . S
C288 H315 0.929 . S
C289 O302 1.240 . S
C289 O303 1.289 . S
C290 O304 1.258 . S
C290 O305 1.256 . S
C291 La281 2.928 . S
C291 C292 1.503 . S
C291 O306 1.261 . S
C291 O307 1.243 . S
C292 C291 1.503 . S
C292 C293 1.394 . S
C292 C297 1.373 . S
C293 C292 1.394 . S
C293 C294 1.380 . S
C293 H316 0.930 . S
C294 C293 1.380 . S
C294 C295 1.376 . S
C294 H317 0.930 . S
C295 C294 1.376 . S
C295 C296 1.370 . S
C296 C295 1.370 . S
C296 C297 1.396 . S
C296 H318 0.929 . S
C297 C292 1.373 . S
C297 C296 1.396 . S
C297 H319 0.929 . S
C298 O308 1.240 . S
C298 O309 1.289 . S
C299 O310 1.258 . S
C299 O311 1.256 . S
O300 La280 2.521 . S
O300 C282 1.261 . S
O301 La280 2.628 . S
O301 C282 1.243 . S
O302 La280 2.554 . S
O302 C289 1.240 . S
O303 La280 2.757 . S
O303 La281 2.482 . S
O303 C289 1.289 . S
O304 La280 2.470 . S
O304 C290 1.258 . S
O305 La281 2.503 . S
O305 C290 1.256 . S
O306 La281 2.521 . S
O306 C291 1.261 . S
O307 La281 2.628 . S
O307 C291 1.243 . S
O308 La281 2.554 . S
O308 C298 1.240 . S
O309 La280 2.482 . S
O309 La281 2.757 . S
O309 C298 1.289 . S
O310 La281 2.470 . S
O310 C299 1.258 . S
O311 La280 2.503 . S
O311 C299 1.256 . S
H312 C284 0.930 . S
H313 C285 0.930 . S
H314 C287 0.929 . S
H315 C288 0.929 . S
H316 C293 0.930 . S
H317 C294 0.930 . S
H318 C296 0.929 . S
H319 C297 0.929 . S
La320 C322 2.928 . S
La320 O340 2.521 . S
La320 O341 2.628 . S
La320 O342 2.554 . S
La320 O343 2.757 . S
La320 O344 2.470 . S
La320 O349 2.482 . S
La320 O351 2.503 . S
La321 C331 2.928 . S
La321 O343 2.482 . S
La321 O345 2.503 . S
La321 O346 2.521 . S
La321 O347 2.628 . S
La321 O348 2.554 . S
La321 O349 2.757 . S
La321 O350 2.470 . S
C322 La320 2.928 . S
C322 C323 1.503 . S
C322 O340 1.261 . S
C322 O341 1.243 . S
C323 C322 1.503 . S
C323 C324 1.394 . S
C323 C328 1.373 . S
C324 C323 1.394 . S
C324 C325 1.380 . S
C324 H352 0.930 . S
C325 C324 1.380 . S
C325 C326 1.376 . S
C325 H353 0.930 . S
C326 C325 1.376 . S
C326 C327 1.370 . S
C327 C326 1.370 . S
C327 C328 1.396 . S
C327 H354 0.929 . S
C328 C323 1.373 . S
C328 C327 1.396 . S
C328 H355 0.929 . S
C329 O342 1.240 . S
C329 O343 1.289 . S
C330 O344 1.258 . S
C330 O345 1.256 . S
C331 La321 2.928 . S
C331 C332 1.508 . S
C331 O346 1.261 . S
C331 O347 1.243 . S
C332 C331 1.508 . S
C332 C333 1.391 1_565 S
C332 C337 1.370 1_565 S
C333 C332 1.391 1_545 S
C333 C334 1.380 . S
C333 H356 0.930 . S
C334 C333 1.380 . S
C334 C335 1.376 . S
C334 H357 0.930 . S
C335 C334 1.376 . S
C335 C336 1.370 . S
C336 C335 1.370 . S
C336 C337 1.396 . S
C336 H358 0.929 . S
C337 C332 1.370 1_545 S
C337 C336 1.396 . S
C337 H359 0.929 1_545 S
C338 O348 1.240 . S
C338 O349 1.289 . S
C339 O350 1.258 . S
C339 O351 1.256 . S
O340 La320 2.521 . S
O340 C322 1.261 . S
O341 La320 2.628 . S
O341 C322 1.243 . S
O342 La320 2.554 . S
O342 C329 1.240 . S
O343 La320 2.757 . S
O343 La321 2.482 . S
O343 C329 1.289 . S
O344 La320 2.470 . S
O344 C330 1.258 . S
O345 La321 2.503 . S
O345 C330 1.256 . S
O346 La321 2.521 . S
O346 C331 1.261 . S
O347 La321 2.628 . S
O347 C331 1.243 . S
O348 La321 2.554 . S
O348 C338 1.240 . S
O349 La320 2.482 . S
O349 La321 2.757 . S
O349 C338 1.289 . S
O350 La321 2.470 . S
O350 C339 1.258 . S
O351 La320 2.503 . S
O351 C339 1.256 . S
H352 C324 0.930 . S
H353 C325 0.930 . S
H354 C327 0.929 . S
H355 C328 0.929 . S
H356 C333 0.930 . S
H357 C334 0.930 . S
H358 C336 0.929 . S
H359 C337 0.929 1_565 S
La360 C362 2.928 . S
La360 O380 2.521 . S
La360 O381 2.628 . S
La360 O382 2.554 . S
La360 O383 2.757 . S
La360 O384 2.470 . S
La360 O389 2.482 . S
La360 O391 2.503 . S
La361 C371 2.928 . S
La361 O383 2.482 . S
La361 O385 2.503 . S
La361 O386 2.521 . S
La361 O387 2.628 . S
La361 O388 2.554 . S
La361 O389 2.757 . S
La361 O390 2.470 . S
C362 La360 2.928 . S
C362 C363 1.503 . S
C362 O380 1.261 . S
C362 O381 1.243 . S
C363 C362 1.503 . S
C363 C364 1.394 . S
C363 C368 1.373 . S
C364 C363 1.394 . S
C364 C365 1.380 . S
C364 H392 0.930 . S
C365 C364 1.380 . S
C365 C366 1.376 . S
C365 H393 0.930 . S
C366 C365 1.376 . S
C366 C367 1.370 . S
C367 C366 1.370 . S
C367 C368 1.396 . S
C367 H394 0.929 . S
C368 C363 1.373 . S
C368 C367 1.396 . S
C368 H395 0.929 . S
C369 O382 1.240 . S
C369 O383 1.289 . S
C370 O384 1.258 . S
C370 O385 1.256 . S
C371 La361 2.928 . S
C371 C372 1.503 . S
C371 O386 1.261 . S
C371 O387 1.243 . S
C372 C371 1.503 . S
C372 C373 1.394 . S
C372 C377 1.373 . S
C373 C372 1.394 . S
C373 C374 1.380 . S
C373 H396 0.930 . S
C374 C373 1.380 . S
C374 C375 1.376 . S
C374 H397 0.930 . S
C375 C374 1.376 . S
C375 C376 1.370 . S
C376 C375 1.370 . S
C376 C377 1.396 . S
C376 H398 0.929 . S
C377 C372 1.373 . S
C377 C376 1.396 . S
C377 H399 0.929 . S
C378 O388 1.240 . S
C378 O389 1.289 . S
C379 O390 1.258 . S
C379 O391 1.256 . S
O380 La360 2.521 . S
O380 C362 1.261 . S
O381 La360 2.628 . S
O381 C362 1.243 . S
O382 La360 2.554 . S
O382 C369 1.240 . S
O383 La360 2.757 . S
O383 La361 2.482 . S
O383 C369 1.289 . S
O384 La360 2.470 . S
O384 C370 1.258 . S
O385 La361 2.503 . S
O385 C370 1.256 . S
O386 La361 2.521 . S
O386 C371 1.261 . S
O387 La361 2.628 . S
O387 C371 1.243 . S
O388 La361 2.554 . S
O388 C378 1.240 . S
O389 La360 2.482 . S
O389 La361 2.757 . S
O389 C378 1.289 . S
O390 La361 2.470 . S
O390 C379 1.258 . S
O391 La360 2.503 . S
O391 C379 1.256 . S
H392 C364 0.930 . S
H393 C365 0.930 . S
H394 C367 0.929 . S
H395 C368 0.929 . S
H396 C373 0.930 . S
H397 C374 0.930 . S
H398 C376 0.929 . S
H399 C377 0.929 . S
La400 C402 2.928 . S
La400 O420 2.521 . S
La400 O421 2.628 . S
La400 O422 2.554 . S
La400 O423 2.757 . S
La400 O424 2.470 . S
La400 O429 2.482 . S
La400 O431 2.503 . S
La401 C411 2.928 . S
La401 O423 2.482 . S
La401 O425 2.503 . S
La401 O426 2.521 . S
La401 O427 2.628 . S
La401 O428 2.554 . S
La401 O429 2.757 . S
La401 O430 2.470 . S
C402 La400 2.928 . S
C402 C403 1.503 . S
C402 O420 1.261 . S
C402 O421 1.243 . S
C403 C402 1.503 . S
C403 C404 1.394 . S
C403 C408 1.373 . S
C404 C403 1.394 . S
C404 C405 1.380 . S
C404 H432 0.930 . S
C405 C404 1.380 . S
C405 C406 1.376 . S
C405 H433 0.930 . S
C406 C405 1.376 . S
C406 C407 1.370 . S
C407 C406 1.370 . S
C407 C408 1.396 . S
C407 H434 0.929 . S
C408 C403 1.373 . S
C408 C407 1.396 . S
C408 H435 0.929 . S
C409 O422 1.240 . S
C409 O423 1.289 . S
C410 O424 1.258 . S
C410 O425 1.256 . S
C411 La401 2.928 . S
C411 C412 1.503 . S
C411 O426 1.261 . S
C411 O427 1.243 . S
C412 C411 1.503 . S
C412 C413 1.394 . S
C412 C417 1.373 . S
C413 C412 1.394 . S
C413 C414 1.380 . S
C413 H436 0.930 . S
C414 C413 1.380 . S
C414 C415 1.376 . S
C414 H437 0.930 . S
C415 C414 1.376 . S
C415 C416 1.370 . S
C416 C415 1.370 . S
C416 C417 1.396 . S
C416 H438 0.929 . S
C417 C412 1.373 . S
C417 C416 1.396 . S
C417 H439 0.929 . S
C418 O428 1.240 . S
C418 O429 1.289 . S
C419 O430 1.258 . S
C419 O431 1.256 . S
O420 La400 2.521 . S
O420 C402 1.261 . S
O421 La400 2.628 . S
O421 C402 1.243 . S
O422 La400 2.554 . S
O422 C409 1.240 . S
O423 La400 2.757 . S
O423 La401 2.482 . S
O423 C409 1.289 . S
O424 La400 2.470 . S
O424 C410 1.258 . S
O425 La401 2.503 . S
O425 C410 1.256 . S
O426 La401 2.521 . S
O426 C411 1.261 . S
O427 La401 2.628 . S
O427 C411 1.243 . S
O428 La401 2.554 . S
O428 C418 1.240 . S
O429 La400 2.482 . S
O429 La401 2.757 . S
O429 C418 1.289 . S
O430 La401 2.470 . S
O430 C419 1.258 . S
O431 La400 2.503 . S
O431 C419 1.256 . S
H432 C404 0.930 . S
H433 C405 0.930 . S
H434 C407 0.929 . S
H435 C408 0.929 . S
H436 C413 0.930 . S
H437 C414 0.930 . S
H438 C416 0.929 . S
H439 C417 0.929 . S
La440 C442 2.928 . S
La440 O460 2.521 . S
La440 O461 2.628 . S
La440 O462 2.554 . S
La440 O463 2.757 . S
La440 O464 2.470 . S
La440 O469 2.482 . S
La440 O471 2.503 . S
La441 C451 2.928 . S
La441 O463 2.482 . S
La441 O465 2.503 . S
La441 O466 2.521 . S
La441 O467 2.628 . S
La441 O468 2.554 . S
La441 O469 2.757 . S
La441 O470 2.470 . S
C442 La440 2.928 . S
C442 C443 1.503 . S
C442 O460 1.261 . S
C442 O461 1.243 . S
C443 C442 1.503 . S
C443 C444 1.394 . S
C443 C448 1.373 . S
C444 C443 1.394 . S
C444 C445 1.380 . S
C444 H472 0.930 . S
C445 C444 1.380 . S
C445 C446 1.376 . S
C445 H473 0.930 . S
C446 C445 1.376 . S
C446 C447 1.370 . S
C447 C446 1.370 . S
C447 C448 1.396 . S
C447 H474 0.929 . S
C448 C443 1.373 . S
C448 C447 1.396 . S
C448 H475 0.929 . S
C449 O462 1.240 . S
C449 O463 1.289 . S
C450 O464 1.258 . S
C450 O465 1.256 . S
C451 La441 2.928 . S
C451 C452 1.503 . S
C451 O466 1.261 . S
C451 O467 1.243 . S
C452 C451 1.503 . S
C452 C453 1.394 . S
C452 C457 1.373 . S
C453 C452 1.394 . S
C453 C454 1.380 . S
C453 H476 0.930 . S
C454 C453 1.380 . S
C454 C455 1.376 . S
C454 H477 0.930 . S
C455 C454 1.376 . S
C455 C456 1.370 . S
C456 C455 1.370 . S
C456 C457 1.396 . S
C456 H478 0.929 . S
C457 C452 1.373 . S
C457 C456 1.396 . S
C457 H479 0.929 . S
C458 O468 1.240 . S
C458 O469 1.289 . S
C459 O470 1.258 . S
C459 O471 1.256 . S
O460 La440 2.521 . S
O460 C442 1.261 . S
O461 La440 2.628 . S
O461 C442 1.243 . S
O462 La440 2.554 . S
O462 C449 1.240 . S
O463 La440 2.757 . S
O463 La441 2.482 . S
O463 C449 1.289 . S
O464 La440 2.470 . S
O464 C450 1.258 . S
O465 La441 2.503 . S
O465 C450 1.256 . S
O466 La441 2.521 . S
O466 C451 1.261 . S
O467 La441 2.628 . S
O467 C451 1.243 . S
O468 La441 2.554 . S
O468 C458 1.240 . S
O469 La440 2.482 . S
O469 La441 2.757 . S
O469 C458 1.289 . S
O470 La441 2.470 . S
O470 C459 1.258 . S
O471 La440 2.503 . S
O471 C459 1.256 . S
H472 C444 0.930 . S
H473 C445 0.930 . S
H474 C447 0.929 . S
H475 C448 0.929 . S
H476 C453 0.930 . S
H477 C454 0.930 . S
H478 C456 0.929 . S
H479 C457 0.929 . S
La480 C482 2.928 . S
La480 O500 2.521 . S
La480 O501 2.628 . S
La480 O502 2.554 . S
La480 O503 2.757 . S
La480 O504 2.470 . S
La480 O509 2.482 . S
La480 O511 2.503 . S
La481 C491 2.928 . S
La481 O503 2.482 . S
La481 O505 2.503 . S
La481 O506 2.521 . S
La481 O507 2.628 . S
La481 O508 2.554 . S
La481 O509 2.757 . S
La481 O510 2.470 . S
C482 La480 2.928 . S
C482 C483 1.503 . S
C482 O500 1.261 . S
C482 O501 1.243 . S
C483 C482 1.503 . S
C483 C484 1.394 . S
C483 C488 1.373 . S
C484 C483 1.394 . S
C484 C485 1.380 . S
C484 H512 0.930 . S
C485 C484 1.380 . S
C485 C486 1.376 . S
C485 H513 0.930 . S
C486 C485 1.376 . S
C486 C487 1.370 . S
C487 C486 1.370 . S
C487 C488 1.396 . S
C487 H514 0.929 . S
C488 C483 1.373 . S
C488 C487 1.396 . S
C488 H515 0.929 . S
C489 O502 1.240 . S
C489 O503 1.289 . S
C490 O504 1.258 . S
C490 O505 1.256 . S
C491 La481 2.928 . S
C491 C492 1.503 . S
C491 O506 1.261 . S
C491 O507 1.243 . S
C492 C491 1.503 . S
C492 C493 1.394 . S
C492 C497 1.373 . S
C493 C492 1.394 . S
C493 C494 1.380 . S
C493 H516 0.930 . S
C494 C493 1.380 . S
C494 C495 1.376 . S
C494 H517 0.930 . S
C495 C494 1.376 . S
C495 C496 1.370 . S
C496 C495 1.370 . S
C496 C497 1.396 . S
C496 H518 0.929 . S
C497 C492 1.373 . S
C497 C496 1.396 . S
C497 H519 0.929 . S
C498 O508 1.240 . S
C498 O509 1.289 . S
C499 O510 1.258 . S
C499 O511 1.256 . S
O500 La480 2.521 . S
O500 C482 1.261 . S
O501 La480 2.628 . S
O501 C482 1.243 . S
O502 La480 2.554 . S
O502 C489 1.240 . S
O503 La480 2.757 . S
O503 La481 2.482 . S
O503 C489 1.289 . S
O504 La480 2.470 . S
O504 C490 1.258 . S
O505 La481 2.503 . S
O505 C490 1.256 . S
O506 La481 2.521 . S
O506 C491 1.261 . S
O507 La481 2.628 . S
O507 C491 1.243 . S
O508 La481 2.554 . S
O508 C498 1.240 . S
O509 La480 2.482 . S
O509 La481 2.757 . S
O509 C498 1.289 . S
O510 La481 2.470 . S
O510 C499 1.258 . S
O511 La480 2.503 . S
O511 C499 1.256 . S
H512 C484 0.930 . S
H513 C485 0.930 . S
H514 C487 0.929 . S
H515 C488 0.929 . S
H516 C493 0.930 . S
H517 C494 0.930 . S
H518 C496 0.929 . S
H519 C497 0.929 . S
La520 C522 2.928 . S
La520 O540 2.521 . S
La520 O541 2.628 . S
La520 O542 2.554 . S
La520 O543 2.757 . S
La520 O544 2.470 . S
La520 O549 2.482 . S
La520 O551 2.503 . S
La521 C531 2.928 . S
La521 O543 2.482 . S
La521 O545 2.503 . S
La521 O546 2.521 . S
La521 O547 2.628 . S
La521 O548 2.554 . S
La521 O549 2.757 . S
La521 O550 2.470 . S
C522 La520 2.928 . S
C522 C523 1.503 . S
C522 O540 1.261 . S
C522 O541 1.243 . S
C523 C522 1.503 . S
C523 C524 1.394 . S
C523 C528 1.373 . S
C524 C523 1.394 . S
C524 C525 1.380 . S
C524 H552 0.930 . S
C525 C524 1.380 . S
C525 C526 1.376 . S
C525 H553 0.930 . S
C526 C525 1.376 . S
C526 C527 1.370 . S
C527 C526 1.370 . S
C527 C528 1.396 . S
C527 H554 0.929 . S
C528 C523 1.373 . S
C528 C527 1.396 . S
C528 H555 0.929 . S
C529 O542 1.240 . S
C529 O543 1.289 . S
C530 O544 1.258 . S
C530 O545 1.256 . S
C531 La521 2.928 . S
C531 C532 1.503 . S
C531 O546 1.261 . S
C531 O547 1.243 . S
C532 C531 1.503 . S
C532 C533 1.394 . S
C532 C537 1.373 . S
C533 C532 1.394 . S
C533 C534 1.380 . S
C533 H556 0.930 . S
C534 C533 1.380 . S
C534 C535 1.376 . S
C534 H557 0.930 . S
C535 C534 1.376 . S
C535 C536 1.370 . S
C536 C535 1.370 . S
C536 C537 1.396 . S
C536 H558 0.929 . S
C537 C532 1.373 . S
C537 C536 1.396 . S
C537 H559 0.929 . S
C538 O548 1.240 . S
C538 O549 1.289 . S
C539 O550 1.258 . S
C539 O551 1.256 . S
O540 La520 2.521 . S
O540 C522 1.261 . S
O541 La520 2.628 . S
O541 C522 1.243 . S
O542 La520 2.554 . S
O542 C529 1.240 . S
O543 La520 2.757 . S
O543 La521 2.482 . S
O543 C529 1.289 . S
O544 La520 2.470 . S
O544 C530 1.258 . S
O545 La521 2.503 . S
O545 C530 1.256 . S
O546 La521 2.521 . S
O546 C531 1.261 . S
O547 La521 2.628 . S
O547 C531 1.243 . S
O548 La521 2.554 . S
O548 C538 1.240 . S
O549 La520 2.482 . S
O549 La521 2.757 . S
O549 C538 1.289 . S
O550 La521 2.470 . S
O550 C539 1.258 . S
O551 La520 2.503 . S
O551 C539 1.256 . S
H552 C524 0.930 . S
H553 C525 0.930 . S
H554 C527 0.929 . S
H555 C528 0.929 . S
H556 C533 0.930 . S
H557 C534 0.930 . S
H558 C536 0.929 . S
H559 C537 0.929 . S
La560 C562 2.928 . S
La560 O580 2.521 . S
La560 O581 2.628 . S
La560 O582 2.554 . S
La560 O583 2.757 . S
La560 O584 2.470 . S
La560 O589 2.482 . S
La560 O591 2.503 . S
La561 C571 2.928 . S
La561 O583 2.482 . S
La561 O585 2.503 . S
La561 O586 2.521 . S
La561 O587 2.628 . S
La561 O588 2.554 . S
La561 O589 2.757 . S
La561 O590 2.470 . S
C562 La560 2.928 . S
C562 C563 1.503 . S
C562 O580 1.261 . S
C562 O581 1.243 . S
C563 C562 1.503 . S
C563 C564 1.394 . S
C563 C568 1.373 . S
C564 C563 1.394 . S
C564 C565 1.380 . S
C564 H592 0.930 . S
C565 C564 1.380 . S
C565 C566 1.376 . S
C565 H593 0.930 . S
C566 C565 1.376 . S
C566 C567 1.370 . S
C567 C566 1.370 . S
C567 C568 1.396 . S
C567 H594 0.929 . S
C568 C563 1.373 . S
C568 C567 1.396 . S
C568 H595 0.929 . S
C569 O582 1.240 . S
C569 O583 1.289 . S
C570 O584 1.258 . S
C570 O585 1.256 . S
C571 La561 2.928 . S
C571 C572 1.503 . S
C571 O586 1.261 . S
C571 O587 1.243 . S
C572 C571 1.503 . S
C572 C573 1.394 . S
C572 C577 1.373 . S
C573 C572 1.394 . S
C573 C574 1.380 . S
C573 H596 0.930 . S
C574 C573 1.380 . S
C574 C575 1.376 . S
C574 H597 0.930 . S
C575 C574 1.376 . S
C575 C576 1.370 . S
C576 C575 1.370 . S
C576 C577 1.396 . S
C576 H598 0.929 . S
C577 C572 1.373 . S
C577 C576 1.396 . S
C577 H599 0.929 . S
C578 O588 1.240 . S
C578 O589 1.289 . S
C579 O590 1.258 . S
C579 O591 1.256 . S
O580 La560 2.521 . S
O580 C562 1.261 . S
O581 La560 2.628 . S
O581 C562 1.243 . S
O582 La560 2.554 . S
O582 C569 1.240 . S
O583 La560 2.757 . S
O583 La561 2.482 . S
O583 C569 1.289 . S
O584 La560 2.470 . S
O584 C570 1.258 . S
O585 La561 2.503 . S
O585 C570 1.256 . S
O586 La561 2.521 . S
O586 C571 1.261 . S
O587 La561 2.628 . S
O587 C571 1.243 . S
O588 La561 2.554 . S
O588 C578 1.240 . S
O589 La560 2.482 . S
O589 La561 2.757 . S
O589 C578 1.289 . S
O590 La561 2.470 . S
O590 C579 1.258 . S
O591 La560 2.503 . S
O591 C579 1.256 . S
H592 C564 0.930 . S
H593 C565 0.930 . S
H594 C567 0.929 . S
H595 C568 0.929 . S
H596 C573 0.930 . S
H597 C574 0.930 . S
H598 C576 0.929 . S
H599 C577 0.929 . S
La600 C602 2.928 . S
La600 O620 2.521 . S
La600 O621 2.628 . S
La600 O622 2.554 . S
La600 O623 2.757 . S
La600 O624 2.470 . S
La600 O629 2.482 . S
La600 O631 2.503 . S
La601 C611 2.928 . S
La601 O623 2.482 . S
La601 O625 2.503 . S
La601 O626 2.521 . S
La601 O627 2.628 . S
La601 O628 2.554 . S
La601 O629 2.757 . S
La601 O630 2.470 . S
C602 La600 2.928 . S
C602 C603 1.503 . S
C602 O620 1.261 . S
C602 O621 1.243 . S
C603 C602 1.503 . S
C603 C604 1.394 . S
C603 C608 1.373 . S
C604 C603 1.394 . S
C604 C605 1.380 . S
C604 H632 0.930 . S
C605 C604 1.380 . S
C605 C606 1.376 . S
C605 H633 0.930 . S
C606 C605 1.376 . S
C606 C607 1.370 . S
C607 C606 1.370 . S
C607 C608 1.396 . S
C607 H634 0.929 . S
C608 C603 1.373 . S
C608 C607 1.396 . S
C608 H635 0.929 . S
C609 O622 1.240 . S
C609 O623 1.289 . S
C610 O624 1.258 . S
C610 O625 1.256 . S
C611 La601 2.928 . S
C611 C612 1.503 . S
C611 O626 1.261 . S
C611 O627 1.243 . S
C612 C611 1.503 . S
C612 C613 1.394 . S
C612 C617 1.373 . S
C613 C612 1.394 . S
C613 C614 1.380 1_545 S
C613 H636 0.930 . S
C614 C613 1.380 1_565 S
C614 C615 1.376 . S
C614 H637 0.930 . S
C615 C614 1.376 . S
C615 C616 1.370 . S
C616 C615 1.370 . S
C616 C617 1.396 1_565 S
C616 H638 0.929 . S
C617 C612 1.373 . S
C617 C616 1.396 1_545 S
C617 H639 0.929 . S
C618 O628 1.240 . S
C618 O629 1.289 . S
C619 O630 1.258 . S
C619 O631 1.256 . S
O620 La600 2.521 . S
O620 C602 1.261 . S
O621 La600 2.628 . S
O621 C602 1.243 . S
O622 La600 2.554 . S
O622 C609 1.240 . S
O623 La600 2.757 . S
O623 La601 2.482 . S
O623 C609 1.289 . S
O624 La600 2.470 . S
O624 C610 1.258 . S
O625 La601 2.503 . S
O625 C610 1.256 . S
O626 La601 2.521 . S
O626 C611 1.261 . S
O627 La601 2.628 . S
O627 C611 1.243 . S
O628 La601 2.554 . S
O628 C618 1.240 . S
O629 La600 2.482 . S
O629 La601 2.757 . S
O629 C618 1.289 . S
O630 La601 2.470 . S
O630 C619 1.258 . S
O631 La600 2.503 . S
O631 C619 1.256 . S
H632 C604 0.930 . S
H633 C605 0.930 . S
H634 C607 0.929 . S
H635 C608 0.929 . S
H636 C613 0.930 . S
H637 C614 0.930 . S
H638 C616 0.929 . S
H639 C617 0.929 . S
La640 C642 2.928 . S
La640 O660 2.521 . S
La640 O661 2.628 . S
La640 O662 2.554 . S
La640 O663 2.757 . S
La640 O664 2.470 . S
La640 O669 2.482 . S
La640 O671 2.503 . S
La641 C651 2.928 . S
La641 O663 2.482 . S
La641 O665 2.503 . S
La641 O666 2.521 . S
La641 O667 2.628 . S
La641 O668 2.554 . S
La641 O669 2.757 . S
La641 O670 2.470 . S
C642 La640 2.928 . S
C642 C643 1.503 . S
C642 O660 1.261 . S
C642 O661 1.243 . S
C643 C642 1.503 . S
C643 C644 1.394 . S
C643 C648 1.373 . S
C644 C643 1.394 . S
C644 C645 1.380 . S
C644 H672 0.930 . S
C645 C644 1.380 . S
C645 C646 1.376 . S
C645 H673 0.930 . S
C646 C645 1.376 . S
C646 C647 1.370 . S
C647 C646 1.370 . S
C647 C648 1.396 . S
C647 H674 0.929 . S
C648 C643 1.373 . S
C648 C647 1.396 . S
C648 H675 0.929 . S
C649 O662 1.240 . S
C649 O663 1.289 . S
C650 O664 1.258 . S
C650 O665 1.256 . S
C651 La641 2.928 . S
C651 C652 1.508 . S
C651 O666 1.261 . S
C651 O667 1.243 . S
C652 C651 1.508 . S
C652 C653 1.391 1_655 S
C652 C657 1.370 1_655 S
C653 C652 1.391 1_455 S
C653 C654 1.380 . S
C653 H676 0.930 . S
C654 C653 1.380 . S
C654 C655 1.376 . S
C654 H677 0.930 . S
C655 C654 1.376 . S
C655 C656 1.370 . S
C656 C655 1.370 . S
C656 C657 1.396 . S
C656 H678 0.929 . S
C657 C652 1.370 1_455 S
C657 C656 1.396 . S
C657 H679 0.929 1_455 S
C658 O668 1.240 . S
C658 O669 1.289 . S
C659 O670 1.258 . S
C659 O671 1.256 . S
O660 La640 2.521 . S
O660 C642 1.261 . S
O661 La640 2.628 . S
O661 C642 1.243 . S
O662 La640 2.554 . S
O662 C649 1.240 . S
O663 La640 2.757 . S
O663 La641 2.482 . S
O663 C649 1.289 . S
O664 La640 2.470 . S
O664 C650 1.258 . S
O665 La641 2.503 . S
O665 C650 1.256 . S
O666 La641 2.521 . S
O666 C651 1.261 . S
O667 La641 2.628 . S
O667 C651 1.243 . S
O668 La641 2.554 . S
O668 C658 1.240 . S
O669 La640 2.482 . S
O669 La641 2.757 . S
O669 C658 1.289 . S
O670 La641 2.470 . S
O670 C659 1.258 . S
O671 La640 2.503 . S
O671 C659 1.256 . S
H672 C644 0.930 . S
H673 C645 0.930 . S
H674 C647 0.929 . S
H675 C648 0.929 . S
H676 C653 0.930 . S
H677 C654 0.930 . S
H678 C656 0.929 . S
H679 C657 0.929 1_655 S
La680 C682 2.928 . S
La680 O700 2.521 . S
La680 O701 2.628 . S
La680 O702 2.554 . S
La680 O703 2.757 . S
La680 O704 2.470 . S
La680 O709 2.482 . S
La680 O711 2.503 . S
La681 C691 2.928 . S
La681 O703 2.482 . S
La681 O705 2.503 . S
La681 O706 2.521 . S
La681 O707 2.628 . S
La681 O708 2.554 . S
La681 O709 2.757 . S
La681 O710 2.470 . S
C682 La680 2.928 . S
C682 C683 1.503 . S
C682 O700 1.261 . S
C682 O701 1.243 . S
C683 C682 1.503 . S
C683 C684 1.394 . S
C683 C688 1.373 . S
C684 C683 1.394 . S
C684 C685 1.380 . S
C684 H712 0.930 . S
C685 C684 1.380 . S
C685 C686 1.376 . S
C685 H713 0.930 . S
C686 C685 1.376 . S
C686 C687 1.370 . S
C687 C686 1.370 . S
C687 C688 1.396 . S
C687 H714 0.929 . S
C688 C683 1.373 . S
C688 C687 1.396 . S
C688 H715 0.929 . S
C689 O702 1.240 . S
C689 O703 1.289 . S
C690 O704 1.258 . S
C690 O705 1.256 . S
C691 La681 2.928 . S
C691 C692 1.503 . S
C691 O706 1.261 . S
C691 O707 1.243 . S
C692 C691 1.503 . S
C692 C693 1.394 . S
C692 C697 1.373 . S
C693 C692 1.394 . S
C693 C694 1.380 . S
C693 H716 0.930 . S
C694 C693 1.380 . S
C694 C695 1.376 . S
C694 H717 0.930 . S
C695 C694 1.376 . S
C695 C696 1.370 . S
C696 C695 1.370 . S
C696 C697 1.396 . S
C696 H718 0.929 . S
C697 C692 1.373 . S
C697 C696 1.396 . S
C697 H719 0.929 . S
C698 O708 1.240 . S
C698 O709 1.289 . S
C699 O710 1.258 . S
C699 O711 1.256 . S
O700 La680 2.521 . S
O700 C682 1.261 . S
O701 La680 2.628 . S
O701 C682 1.243 . S
O702 La680 2.554 . S
O702 C689 1.240 . S
O703 La680 2.757 . S
O703 La681 2.482 . S
O703 C689 1.289 . S
O704 La680 2.470 . S
O704 C690 1.258 . S
O705 La681 2.503 . S
O705 C690 1.256 . S
O706 La681 2.521 . S
O706 C691 1.261 . S
O707 La681 2.628 . S
O707 C691 1.243 . S
O708 La681 2.554 . S
O708 C698 1.240 . S
O709 La680 2.482 . S
O709 La681 2.757 . S
O709 C698 1.289 . S
O710 La681 2.470 . S
O710 C699 1.258 . S
O711 La680 2.503 . S
O711 C699 1.256 . S
H712 C684 0.930 . S
H713 C685 0.930 . S
H714 C687 0.929 . S
H715 C688 0.929 . S
H716 C693 0.930 . S
H717 C694 0.930 . S
H718 C696 0.929 . S
H719 C697 0.929 . S
C720 C721 1.349 . S
C720 C722 1.327 . S
C720 H745 0.950 . S
C721 C720 1.349 . S
C721 C737 1.349 . S
C722 C720 1.327 . S
C722 C741 1.429 . S
C722 H746 0.950 . S
C723 C740 1.574 . S
C723 C742 1.368 . S
C723 H747 0.949 . S
H724 C728 0.949 . S
C725 C726 1.349 . S
C725 C727 1.327 . S
C725 H748 0.950 . S
C726 C725 1.349 . S
C726 C738 1.349 . S
C727 C725 1.327 . S
C727 C743 1.429 . S
C727 H749 0.950 . S
C728 H724 0.949 . S
C728 C736 1.574 . S
C728 C744 1.368 . S
H729 C737 0.950 . S
H730 C735 0.950 . S
H731 C736 0.949 . S
H732 C738 0.950 . S
H733 C739 0.950 . S
H734 C740 0.949 . S
C735 H730 0.950 . S
C735 C737 1.327 . S
C735 C741 1.429 . S
C736 C728 1.574 . S
C736 H731 0.949 . S
C736 C742 1.368 . S
C737 C721 1.349 . S
C737 H729 0.950 . S
C737 C735 1.327 . S
C738 C726 1.349 . S
C738 H732 0.950 . S
C738 C739 1.327 . S
C739 H733 0.950 . S
C739 C738 1.327 . S
C739 C743 1.429 . S
C740 C723 1.574 . S
C740 H734 0.949 . S
C740 C744 1.368 . S
C741 C722 1.429 . S
C741 C735 1.429 . S
C741 C742 1.523 . S
C742 C723 1.368 . S
C742 C736 1.368 . S
C742 C741 1.523 . S
C743 C727 1.429 . S
C743 C739 1.429 . S
C743 C744 1.523 . S
C744 C728 1.368 . S
C744 C740 1.368 . S
C744 C743 1.523 . S
H745 C720 0.950 . S
H746 C722 0.950 . S
H747 C723 0.949 . S
H748 C725 0.950 . S
H749 C727 0.950 . S
C750 C751 1.349 . S
C750 C752 1.327 . S
C750 H775 0.950 . S
C751 C750 1.349 . S
C751 C767 1.349 . S
C752 C750 1.327 . S
C752 C771 1.429 . S
C752 H776 0.950 . S
C753 C770 1.574 . S
C753 C772 1.368 . S
C753 H777 0.949 . S
H754 C758 0.949 . S
C755 C756 1.349 . S
C755 C757 1.327 . S
C755 H778 0.950 . S
C756 C755 1.349 . S
C756 C768 1.349 . S
C757 C755 1.327 . S
C757 C773 1.429 . S
C757 H779 0.950 . S
C758 H754 0.949 . S
C758 C766 1.574 . S
C758 C774 1.368 . S
H759 C767 0.950 . S
H760 C765 0.950 . S
H761 C766 0.949 . S
H762 C768 0.950 . S
H763 C769 0.950 . S
H764 C770 0.949 . S
C765 H760 0.950 . S
C765 C767 1.327 . S
C765 C771 1.429 . S
C766 C758 1.574 . S
C766 H761 0.949 . S
C766 C772 1.368 . S
C767 C751 1.349 . S
C767 H759 0.950 . S
C767 C765 1.327 . S
C768 C756 1.349 . S
C768 H762 0.950 . S
C768 C769 1.327 . S
C769 H763 0.950 . S
C769 C768 1.327 . S
C769 C773 1.429 . S
C770 C753 1.574 . S
C770 H764 0.949 . S
C770 C774 1.368 . S
C771 C752 1.429 . S
C771 C765 1.429 . S
C771 C772 1.523 . S
C772 C753 1.368 . S
C772 C766 1.368 . S
C772 C771 1.523 . S
C773 C757 1.429 . S
C773 C769 1.429 . S
C773 C774 1.523 . S
C774 C758 1.368 . S
C774 C770 1.368 . S
C774 C773 1.523 . S
H775 C750 0.950 . S
H776 C752 0.950 . S
H777 C753 0.949 . S
H778 C755 0.950 . S
H779 C757 0.950 . S
C780 C781 1.349 . S
C780 C782 1.327 . S
C780 H805 0.950 . S
C781 C780 1.349 . S
C781 C797 1.349 . S
C782 C780 1.327 . S
C782 C801 1.429 . S
C782 H806 0.950 . S
C783 C800 1.574 . S
C783 C802 1.368 . S
C783 H807 0.949 . S
H784 C788 0.949 . S
C785 C786 1.349 . S
C785 C787 1.327 . S
C785 H808 0.950 . S
C786 C785 1.349 . S
C786 C798 1.349 . S
C787 C785 1.327 . S
C787 C803 1.429 . S
C787 H809 0.950 . S
C788 H784 0.949 . S
C788 C796 1.574 . S
C788 C804 1.368 . S
H789 C797 0.950 . S
H790 C795 0.950 . S
H791 C796 0.949 . S
H792 C798 0.950 . S
H793 C799 0.950 . S
H794 C800 0.949 . S
C795 H790 0.950 . S
C795 C797 1.327 . S
C795 C801 1.429 . S
C796 C788 1.574 . S
C796 H791 0.949 . S
C796 C802 1.368 . S
C797 C781 1.349 . S
C797 H789 0.950 . S
C797 C795 1.327 . S
C798 C786 1.349 . S
C798 H792 0.950 . S
C798 C799 1.327 . S
C799 H793 0.950 . S
C799 C798 1.327 . S
C799 C803 1.429 . S
C800 C783 1.574 . S
C800 H794 0.949 . S
C800 C804 1.368 . S
C801 C782 1.429 . S
C801 C795 1.429 . S
C801 C802 1.523 . S
C802 C783 1.368 . S
C802 C796 1.368 . S
C802 C801 1.523 . S
C803 C787 1.429 . S
C803 C799 1.429 . S
C803 C804 1.523 . S
C804 C788 1.368 . S
C804 C800 1.368 . S
C804 C803 1.523 . S
H805 C780 0.950 . S
H806 C782 0.950 . S
H807 C783 0.949 . S
H808 C785 0.950 . S
H809 C787 0.950 . S
C810 C811 1.349 . S
C810 C812 1.327 . S
C810 H835 0.950 . S
C811 C810 1.349 . S
C811 C827 1.349 . S
C812 C810 1.327 . S
C812 C831 1.429 . S
C812 H836 0.950 . S
C813 C830 1.574 . S
C813 C832 1.368 . S
C813 H837 0.949 . S
H814 C818 0.949 . S
C815 C816 1.349 . S
C815 C817 1.327 . S
C815 H838 0.950 . S
C816 C815 1.349 . S
C816 C828 1.349 . S
C817 C815 1.327 . S
C817 C833 1.429 . S
C817 H839 0.950 . S
C818 H814 0.949 . S
C818 C826 1.574 . S
C818 C834 1.368 . S
H819 C827 0.950 . S
H820 C825 0.950 . S
H821 C826 0.949 . S
H822 C828 0.950 . S
H823 C829 0.950 . S
H824 C830 0.949 . S
C825 H820 0.950 . S
C825 C827 1.327 . S
C825 C831 1.429 . S
C826 C818 1.574 . S
C826 H821 0.949 . S
C826 C832 1.368 . S
C827 C811 1.349 . S
C827 H819 0.950 . S
C827 C825 1.327 . S
C828 C816 1.349 . S
C828 H822 0.950 . S
C828 C829 1.327 . S
C829 H823 0.950 . S
C829 C828 1.327 . S
C829 C833 1.429 . S
C830 C813 1.574 . S
C830 H824 0.949 . S
C830 C834 1.368 . S
C831 C812 1.429 . S
C831 C825 1.429 . S
C831 C832 1.523 . S
C832 C813 1.368 . S
C832 C826 1.368 . S
C832 C831 1.523 . S
C833 C817 1.429 . S
C833 C829 1.429 . S
C833 C834 1.523 . S
C834 C818 1.368 . S
C834 C830 1.368 . S
C834 C833 1.523 . S
H835 C810 0.950 . S
H836 C812 0.950 . S
H837 C813 0.949 . S
H838 C815 0.950 . S
H839 C817 0.950 . S
C840 C841 1.349 . S
C840 C842 1.327 . S
C840 H865 0.950 . S
C841 C840 1.349 . S
C841 C857 1.349 . S
C842 C840 1.327 . S
C842 C861 1.429 . S
C842 H866 0.950 . S
C843 C860 1.574 . S
C843 C862 1.368 . S
C843 H867 0.949 . S
H844 C848 0.949 . S
C845 C846 1.349 . S
C845 C847 1.327 . S
C845 H868 0.950 . S
C846 C845 1.349 . S
C846 C858 1.349 . S
C847 C845 1.327 . S
C847 C863 1.429 . S
C847 H869 0.950 . S
C848 H844 0.949 . S
C848 C856 1.574 . S
C848 C864 1.368 . S
H849 C857 0.950 . S
H850 C855 0.950 . S
H851 C856 0.949 . S
H852 C858 0.950 . S
H853 C859 0.950 . S
H854 C860 0.949 . S
C855 H850 0.950 . S
C855 C857 1.327 . S
C855 C861 1.429 . S
C856 C848 1.574 . S
C856 H851 0.949 . S
C856 C862 1.368 . S
C857 C841 1.349 . S
C857 H849 0.950 . S
C857 C855 1.327 . S
C858 C846 1.349 . S
C858 H852 0.950 . S
C858 C859 1.327 . S
C859 H853 0.950 . S
C859 C858 1.327 . S
C859 C863 1.429 . S
C860 C843 1.574 . S
C860 H854 0.949 . S
C860 C864 1.368 . S
C861 C842 1.429 . S
C861 C855 1.429 . S
C861 C862 1.523 . S
C862 C843 1.368 . S
C862 C856 1.368 . S
C862 C861 1.523 . S
C863 C847 1.429 . S
C863 C859 1.429 . S
C863 C864 1.523 . S
C864 C848 1.368 . S
C864 C860 1.368 . S
C864 C863 1.523 . S
H865 C840 0.950 . S
H866 C842 0.950 . S
H867 C843 0.949 . S
H868 C845 0.950 . S
H869 C847 0.950 . S
C870 C871 1.349 . S
C870 C872 1.327 . S
C870 H895 0.950 . S
C871 C870 1.349 . S
C871 C887 1.349 . S
C872 C870 1.327 . S
C872 C891 1.429 . S
C872 H896 0.950 . S
C873 C890 1.574 . S
C873 C892 1.368 . S
C873 H897 0.949 . S
H874 C878 0.949 . S
C875 C876 1.349 . S
C875 C877 1.327 . S
C875 H898 0.950 . S
C876 C875 1.349 . S
C876 C888 1.349 . S
C877 C875 1.327 . S
C877 C893 1.429 . S
C877 H899 0.950 . S
C878 H874 0.949 . S
C878 C886 1.574 . S
C878 C894 1.368 . S
H879 C887 0.950 . S
H880 C885 0.950 . S
H881 C886 0.949 . S
H882 C888 0.950 . S
H883 C889 0.950 . S
H884 C890 0.949 . S
C885 H880 0.950 . S
C885 C887 1.327 . S
C885 C891 1.429 . S
C886 C878 1.574 . S
C886 H881 0.949 . S
C886 C892 1.368 . S
C887 C871 1.349 . S
C887 H879 0.950 . S
C887 C885 1.327 . S
C888 C876 1.349 . S
C888 H882 0.950 . S
C888 C889 1.327 . S
C889 H883 0.950 . S
C889 C888 1.327 . S
C889 C893 1.429 . S
C890 C873 1.574 . S
C890 H884 0.949 . S
C890 C894 1.368 . S
C891 C872 1.429 . S
C891 C885 1.429 . S
C891 C892 1.523 . S
C892 C873 1.368 . S
C892 C886 1.368 . S
C892 C891 1.523 . S
C893 C877 1.429 . S
C893 C889 1.429 . S
C893 C894 1.523 . S
C894 C878 1.368 . S
C894 C890 1.368 . S
C894 C893 1.523 . S
H895 C870 0.950 . S
H896 C872 0.950 . S
H897 C873 0.949 . S
H898 C875 0.950 . S
H899 C877 0.950 . S
C900 C901 1.349 . S
C900 C902 1.327 . S
C900 H925 0.950 . S
C901 C900 1.349 . S
C901 C917 1.349 . S
C902 C900 1.327 . S
C902 C921 1.429 . S
C902 H926 0.950 . S
C903 C920 1.574 . S
C903 C922 1.368 . S
C903 H927 0.949 . S
H904 C908 0.949 . S
C905 C906 1.349 . S
C905 C907 1.327 . S
C905 H928 0.950 . S
C906 C905 1.349 . S
C906 C918 1.349 . S
C907 C905 1.327 . S
C907 C923 1.429 . S
C907 H929 0.950 . S
C908 H904 0.949 . S
C908 C916 1.574 . S
C908 C924 1.368 . S
H909 C917 0.950 . S
H910 C915 0.950 . S
H911 C916 0.949 . S
H912 C918 0.950 . S
H913 C919 0.950 . S
H914 C920 0.949 . S
C915 H910 0.950 . S
C915 C917 1.327 . S
C915 C921 1.429 . S
C916 C908 1.574 . S
C916 H911 0.949 . S
C916 C922 1.368 . S
C917 C901 1.349 . S
C917 H909 0.950 . S
C917 C915 1.327 . S
C918 C906 1.349 . S
C918 H912 0.950 . S
C918 C919 1.327 . S
C919 H913 0.950 . S
C919 C918 1.327 . S
C919 C923 1.429 . S
C920 C903 1.574 . S
C920 H914 0.949 . S
C920 C924 1.368 . S
C921 C902 1.429 . S
C921 C915 1.429 . S
C921 C922 1.523 . S
C922 C903 1.368 . S
C922 C916 1.368 . S
C922 C921 1.523 . S
C923 C907 1.429 . S
C923 C919 1.429 . S
C923 C924 1.523 . S
C924 C908 1.368 . S
C924 C920 1.368 . S
C924 C923 1.523 . S
H925 C900 0.950 . S
H926 C902 0.950 . S
H927 C903 0.949 . S
H928 C905 0.950 . S
H929 C907 0.950 . S
C930 C931 1.349 . S
C930 C932 1.327 . S
C930 H955 0.950 . S
C931 C930 1.349 . S
C931 C947 1.349 . S
C932 C930 1.327 . S
C932 C951 1.429 . S
C932 H956 0.950 . S
C933 C950 1.574 1_545 S
C933 C952 1.368 . S
C933 H957 0.949 . S
H934 C938 0.949 . S
C935 C936 1.349 . S
C935 C937 1.327 . S
C935 H958 0.950 . S
C936 C935 1.349 . S
C936 C948 1.349 . S
C937 C935 1.327 . S
C937 C953 1.429 . S
C937 H959 0.950 . S
C938 H934 0.949 . S
C938 C946 1.574 . S
C938 C954 1.368 1_545 S
H939 C947 0.950 . S
H940 C945 0.950 . S
H941 C946 0.949 . S
H942 C948 0.950 . S
H943 C949 0.950 . S
H944 C950 0.949 . S
C945 H940 0.950 . S
C945 C947 1.327 . S
C945 C951 1.429 . S
C946 C938 1.574 . S
C946 H941 0.949 . S
C946 C952 1.368 . S
C947 C931 1.349 . S
C947 H939 0.950 . S
C947 C945 1.327 . S
C948 C936 1.349 . S
C948 H942 0.950 . S
C948 C949 1.327 . S
C949 H943 0.950 . S
C949 C948 1.327 . S
C949 C953 1.429 . S
C950 C933 1.574 1_565 S
C950 H944 0.949 . S
C950 C954 1.368 . S
C951 C932 1.429 . S
C951 C945 1.429 . S
C951 C952 1.523 . S
C952 C933 1.368 . S
C952 C946 1.368 . S
C952 C951 1.523 . S
C953 C937 1.429 . S
C953 C949 1.429 . S
C953 C954 1.523 . S
C954 C938 1.368 1_565 S
C954 C950 1.368 . S
C954 C953 1.523 . S
H955 C930 0.950 . S
H956 C932 0.950 . S
H957 C933 0.949 . S
H958 C935 0.950 . S
H959 C937 0.950 . S
C960 C961 1.349 . S
C960 C962 1.327 . S
C960 H985 0.950 . S
C961 C960 1.349 . S
C961 C977 1.349 . S
C962 C960 1.327 . S
C962 C981 1.429 . S
C962 H986 0.950 . S
C963 C980 1.574 1_455 S
C963 C982 1.368 . S
C963 H987 0.949 . S
H964 C968 0.949 . S
C965 C966 1.349 . S
C965 C967 1.327 . S
C965 H988 0.950 . S
C966 C965 1.349 . S
C966 C978 1.349 . S
C967 C965 1.327 . S
C967 C983 1.429 . S
C967 H989 0.950 . S
C968 H964 0.949 . S
C968 C976 1.574 1_655 S
C968 C984 1.368 . S
H969 C977 0.950 . S
H970 C975 0.950 . S
H971 C976 0.949 . S
H972 C978 0.950 . S
H973 C979 0.950 . S
H974 C980 0.949 . S
C975 H970 0.950 . S
C975 C977 1.327 . S
C975 C981 1.429 . S
C976 C968 1.574 1_455 S
C976 H971 0.949 . S
C976 C982 1.368 . S
C977 C961 1.349 . S
C977 H969 0.950 . S
C977 C975 1.327 . S
C978 C966 1.349 . S
C978 H972 0.950 . S
C978 C979 1.327 . S
C979 H973 0.950 . S
C979 C978 1.327 . S
C979 C983 1.429 . S
C980 C963 1.574 1_655 S
C980 H974 0.949 . S
C980 C984 1.368 . S
C981 C962 1.429 . S
C981 C975 1.429 . S
C981 C982 1.523 . S
C982 C963 1.368 . S
C982 C976 1.368 . S
C982 C981 1.523 . S
C983 C967 1.429 . S
C983 C979 1.429 . S
C983 C984 1.523 . S
C984 C968 1.368 . S
C984 C980 1.368 . S
C984 C983 1.523 . S
H985 C960 0.950 . S
H986 C962 0.950 . S
H987 C963 0.949 . S
H988 C965 0.950 . S
H989 C967 0.950 . S
C990 C991 1.349 . S
C990 C992 1.327 . S
C990 H1015 0.950 . S
C991 C990 1.349 . S
C991 C1007 1.349 . S
C992 C990 1.327 . S
C992 C1011 1.429 . S
C992 H1016 0.950 . S
C993 C1010 1.574 . S
C993 C1012 1.368 . S
C993 H1017 0.949 . S
H994 C998 0.949 . S
C995 C996 1.349 . S
C995 C997 1.327 . S
C995 H1018 0.950 . S
C996 C995 1.349 . S
C996 C1008 1.349 . S
C997 C995 1.327 . S
C997 C1013 1.429 . S
C997 H1019 0.950 . S
C998 H994 0.949 . S
C998 C1006 1.574 . S
C998 C1014 1.368 . S
H999 C1007 0.950 . S
H1000 C1005 0.950 . S
H1001 C1006 0.949 . S
H1002 C1008 0.950 . S
H1003 C1009 0.950 . S
H1004 C1010 0.949 . S
C1005 H1000 0.950 . S
C1005 C1007 1.327 . S
C1005 C1011 1.429 . S
C1006 C998 1.574 . S
C1006 H1001 0.949 . S
C1006 C1012 1.368 . S
C1007 C991 1.349 . S
C1007 H999 0.950 . S
C1007 C1005 1.327 . S
C1008 C996 1.349 . S
C1008 H1002 0.950 . S
C1008 C1009 1.327 . S
C1009 H1003 0.950 . S
C1009 C1008 1.327 . S
C1009 C1013 1.429 . S
C1010 C993 1.574 . S
C1010 H1004 0.949 . S
C1010 C1014 1.368 . S
C1011 C992 1.429 . S
C1011 C1005 1.429 . S
C1011 C1012 1.523 . S
C1012 C993 1.368 . S
C1012 C1006 1.368 . S
C1012 C1011 1.523 . S
C1013 C997 1.429 . S
C1013 C1009 1.429 . S
C1013 C1014 1.523 . S
C1014 C998 1.368 . S
C1014 C1010 1.368 . S
C1014 C1013 1.523 . S
H1015 C990 0.950 . S
H1016 C992 0.950 . S
H1017 C993 0.949 . S
H1018 C995 0.950 . S
H1019 C997 0.950 . S
C1020 C1021 1.349 . S
C1020 C1022 1.327 . S
C1020 H1045 0.950 . S
C1021 C1020 1.349 . S
C1021 C1037 1.349 . S
C1022 C1020 1.327 . S
C1022 C1041 1.429 . S
C1022 H1046 0.950 . S
C1023 C1040 1.574 . S
C1023 C1042 1.368 . S
C1023 H1047 0.949 . S
H1024 C1028 0.949 . S
C1025 C1026 1.349 . S
C1025 C1027 1.327 . S
C1025 H1048 0.950 . S
C1026 C1025 1.349 . S
C1026 C1038 1.349 . S
C1027 C1025 1.327 . S
C1027 C1043 1.429 . S
C1027 H1049 0.950 . S
C1028 H1024 0.949 . S
C1028 C1036 1.574 . S
C1028 C1044 1.368 . S
H1029 C1037 0.950 . S
H1030 C1035 0.950 . S
H1031 C1036 0.949 . S
H1032 C1038 0.950 . S
H1033 C1039 0.950 . S
H1034 C1040 0.949 . S
C1035 H1030 0.950 . S
C1035 C1037 1.327 . S
C1035 C1041 1.429 . S
C1036 C1028 1.574 . S
C1036 H1031 0.949 . S
C1036 C1042 1.368 . S
C1037 C1021 1.349 . S
C1037 H1029 0.950 . S
C1037 C1035 1.327 . S
C1038 C1026 1.349 . S
C1038 H1032 0.950 . S
C1038 C1039 1.327 . S
C1039 H1033 0.950 . S
C1039 C1038 1.327 . S
C1039 C1043 1.429 . S
C1040 C1023 1.574 . S
C1040 H1034 0.949 . S
C1040 C1044 1.368 . S
C1041 C1022 1.429 . S
C1041 C1035 1.429 . S
C1041 C1042 1.523 . S
C1042 C1023 1.368 . S
C1042 C1036 1.368 . S
C1042 C1041 1.523 . S
C1043 C1027 1.429 . S
C1043 C1039 1.429 . S
C1043 C1044 1.523 . S
C1044 C1028 1.368 . S
C1044 C1040 1.368 . S
C1044 C1043 1.523 . S
H1045 C1020 0.950 . S
H1046 C1022 0.950 . S
H1047 C1023 0.949 . S
H1048 C1025 0.950 . S
H1049 C1027 0.950 . S
C1050 C1051 1.349 . S
C1050 C1052 1.327 . S
C1050 H1075 0.950 . S
C1051 C1050 1.349 . S
C1051 C1067 1.349 . S
C1052 C1050 1.327 . S
C1052 C1071 1.429 . S
C1052 H1076 0.950 . S
C1053 C1070 1.574 . S
C1053 C1072 1.368 . S
C1053 H1077 0.949 . S
H1054 C1058 0.949 . S
C1055 C1056 1.349 . S
C1055 C1057 1.327 . S
C1055 H1078 0.950 . S
C1056 C1055 1.349 . S
C1056 C1068 1.349 . S
C1057 C1055 1.327 . S
C1057 C1073 1.429 . S
C1057 H1079 0.950 . S
C1058 H1054 0.949 . S
C1058 C1066 1.574 . S
C1058 C1074 1.368 . S
H1059 C1067 0.950 . S
H1060 C1065 0.950 . S
H1061 C1066 0.949 . S
H1062 C1068 0.950 . S
H1063 C1069 0.950 . S
H1064 C1070 0.949 . S
C1065 H1060 0.950 . S
C1065 C1067 1.327 . S
C1065 C1071 1.429 . S
C1066 C1058 1.574 . S
C1066 H1061 0.949 . S
C1066 C1072 1.368 . S
C1067 C1051 1.349 . S
C1067 H1059 0.950 . S
C1067 C1065 1.327 . S
C1068 C1056 1.349 . S
C1068 H1062 0.950 . S
C1068 C1069 1.327 . S
C1069 H1063 0.950 . S
C1069 C1068 1.327 . S
C1069 C1073 1.429 . S
C1070 C1053 1.574 . S
C1070 H1064 0.949 . S
C1070 C1074 1.368 . S
C1071 C1052 1.429 . S
C1071 C1065 1.429 . S
C1071 C1072 1.523 . S
C1072 C1053 1.368 . S
C1072 C1066 1.368 . S
C1072 C1071 1.523 . S
C1073 C1057 1.429 . S
C1073 C1069 1.429 . S
C1073 C1074 1.523 . S
C1074 C1058 1.368 . S
C1074 C1070 1.368 . S
C1074 C1073 1.523 . S
H1075 C1050 0.950 . S
H1076 C1052 0.950 . S
H1077 C1053 0.949 . S
H1078 C1055 0.950 . S
H1079 C1057 0.950 . S
C1080 C1081 1.349 . S
C1080 C1082 1.327 . S
C1080 H1105 0.950 . S
C1081 C1080 1.349 . S
C1081 C1097 1.349 . S
C1082 C1080 1.327 . S
C1082 C1101 1.429 . S
C1082 H1106 0.950 . S
C1083 C1100 1.574 . S
C1083 C1102 1.368 . S
C1083 H1107 0.949 . S
H1084 C1088 0.949 . S
C1085 C1086 1.349 . S
C1085 C1087 1.327 . S
C1085 H1108 0.950 . S
C1086 C1085 1.349 . S
C1086 C1098 1.349 . S
C1087 C1085 1.327 . S
C1087 C1103 1.429 . S
C1087 H1109 0.950 . S
C1088 H1084 0.949 . S
C1088 C1096 1.574 . S
C1088 C1104 1.368 . S
H1089 C1097 0.950 . S
H1090 C1095 0.950 . S
H1091 C1096 0.949 . S
H1092 C1098 0.950 . S
H1093 C1099 0.950 . S
H1094 C1100 0.949 . S
C1095 H1090 0.950 . S
C1095 C1097 1.327 . S
C1095 C1101 1.429 . S
C1096 C1088 1.574 . S
C1096 H1091 0.949 . S
C1096 C1102 1.368 . S
C1097 C1081 1.349 . S
C1097 H1089 0.950 . S
C1097 C1095 1.327 . S
C1098 C1086 1.349 . S
C1098 H1092 0.950 . S
C1098 C1099 1.327 . S
C1099 H1093 0.950 . S
C1099 C1098 1.327 . S
C1099 C1103 1.429 . S
C1100 C1083 1.574 . S
C1100 H1094 0.949 . S
C1100 C1104 1.368 . S
C1101 C1082 1.429 . S
C1101 C1095 1.429 . S
C1101 C1102 1.523 . S
C1102 C1083 1.368 . S
C1102 C1096 1.368 . S
C1102 C1101 1.523 . S
C1103 C1087 1.429 . S
C1103 C1099 1.429 . S
C1103 C1104 1.523 . S
C1104 C1088 1.368 . S
C1104 C1100 1.368 . S
C1104 C1103 1.523 . S
H1105 C1080 0.950 . S
H1106 C1082 0.950 . S
H1107 C1083 0.949 . S
H1108 C1085 0.950 . S
H1109 C1087 0.950 . S
C1110 C1111 1.349 . S
C1110 C1112 1.327 . S
C1110 H1135 0.950 . S
C1111 C1110 1.349 . S
C1111 C1127 1.349 . S
C1112 C1110 1.327 . S
C1112 C1131 1.429 . S
C1112 H1136 0.950 . S
C1113 C1130 1.574 . S
C1113 C1132 1.368 . S
C1113 H1137 0.949 . S
H1114 C1118 0.949 . S
C1115 C1116 1.349 . S
C1115 C1117 1.327 . S
C1115 H1138 0.950 . S
C1116 C1115 1.349 . S
C1116 C1128 1.349 . S
C1117 C1115 1.327 . S
C1117 C1133 1.429 . S
C1117 H1139 0.950 . S
C1118 H1114 0.949 . S
C1118 C1126 1.574 . S
C1118 C1134 1.368 . S
H1119 C1127 0.950 . S
H1120 C1125 0.950 . S
H1121 C1126 0.949 . S
H1122 C1128 0.950 . S
H1123 C1129 0.950 . S
H1124 C1130 0.949 . S
C1125 H1120 0.950 . S
C1125 C1127 1.327 . S
C1125 C1131 1.429 . S
C1126 C1118 1.574 . S
C1126 H1121 0.949 . S
C1126 C1132 1.368 . S
C1127 C1111 1.349 . S
C1127 H1119 0.950 . S
C1127 C1125 1.327 . S
C1128 C1116 1.349 . S
C1128 H1122 0.950 . S
C1128 C1129 1.327 . S
C1129 H1123 0.950 . S
C1129 C1128 1.327 . S
C1129 C1133 1.429 . S
C1130 C1113 1.574 . S
C1130 H1124 0.949 . S
C1130 C1134 1.368 . S
C1131 C1112 1.429 . S
C1131 C1125 1.429 . S
C1131 C1132 1.523 . S
C1132 C1113 1.368 . S
C1132 C1126 1.368 . S
C1132 C1131 1.523 . S
C1133 C1117 1.429 . S
C1133 C1129 1.429 . S
C1133 C1134 1.523 . S
C1134 C1118 1.368 . S
C1134 C1130 1.368 . S
C1134 C1133 1.523 . S
H1135 C1110 0.950 . S
H1136 C1112 0.950 . S
H1137 C1113 0.949 . S
H1138 C1115 0.950 . S
H1139 C1117 0.950 . S
C1140 C1141 1.349 . S
C1140 C1142 1.327 . S
C1140 H1165 0.950 . S
C1141 C1140 1.349 . S
C1141 C1157 1.349 . S
C1142 C1140 1.327 . S
C1142 C1161 1.429 . S
C1142 H1166 0.950 . S
C1143 C1160 1.574 . S
C1143 C1162 1.368 . S
C1143 H1167 0.949 . S
H1144 C1148 0.949 . S
C1145 C1146 1.349 . S
C1145 C1147 1.327 . S
C1145 H1168 0.950 . S
C1146 C1145 1.349 . S
C1146 C1158 1.349 . S
C1147 C1145 1.327 . S
C1147 C1163 1.429 . S
C1147 H1169 0.950 . S
C1148 H1144 0.949 . S
C1148 C1156 1.574 . S
C1148 C1164 1.368 . S
H1149 C1157 0.950 . S
H1150 C1155 0.950 . S
H1151 C1156 0.949 . S
H1152 C1158 0.950 . S
H1153 C1159 0.950 . S
H1154 C1160 0.949 . S
C1155 H1150 0.950 . S
C1155 C1157 1.327 . S
C1155 C1161 1.429 . S
C1156 C1148 1.574 . S
C1156 H1151 0.949 . S
C1156 C1162 1.368 . S
C1157 C1141 1.349 . S
C1157 H1149 0.950 . S
C1157 C1155 1.327 . S
C1158 C1146 1.349 . S
C1158 H1152 0.950 . S
C1158 C1159 1.327 . S
C1159 H1153 0.950 . S
C1159 C1158 1.327 . S
C1159 C1163 1.429 . S
C1160 C1143 1.574 . S
C1160 H1154 0.949 . S
C1160 C1164 1.368 . S
C1161 C1142 1.429 . S
C1161 C1155 1.429 . S
C1161 C1162 1.523 . S
C1162 C1143 1.368 . S
C1162 C1156 1.368 . S
C1162 C1161 1.523 . S
C1163 C1147 1.429 . S
C1163 C1159 1.429 . S
C1163 C1164 1.523 . S
C1164 C1148 1.368 . S
C1164 C1160 1.368 . S
C1164 C1163 1.523 . S
H1165 C1140 0.950 . S
H1166 C1142 0.950 . S
H1167 C1143 0.949 . S
H1168 C1145 0.950 . S
H1169 C1147 0.950 . S
C1170 C1171 1.349 . S
C1170 C1172 1.327 . S
C1170 H1195 0.950 . S
C1171 C1170 1.349 . S
C1171 C1187 1.349 . S
C1172 C1170 1.327 . S
C1172 C1191 1.429 . S
C1172 H1196 0.950 . S
C1173 C1190 1.574 . S
C1173 C1192 1.368 . S
C1173 H1197 0.949 . S
H1174 C1178 0.949 . S
C1175 C1176 1.349 . S
C1175 C1177 1.327 . S
C1175 H1198 0.950 . S
C1176 C1175 1.349 . S
C1176 C1188 1.349 . S
C1177 C1175 1.327 . S
C1177 C1193 1.429 . S
C1177 H1199 0.950 . S
C1178 H1174 0.949 . S
C1178 C1186 1.574 . S
C1178 C1194 1.368 . S
H1179 C1187 0.950 . S
H1180 C1185 0.950 . S
H1181 C1186 0.949 . S
H1182 C1188 0.950 . S
H1183 C1189 0.950 . S
H1184 C1190 0.949 . S
C1185 H1180 0.950 . S
C1185 C1187 1.327 . S
C1185 C1191 1.429 . S
C1186 C1178 1.574 . S
C1186 H1181 0.949 . S
C1186 C1192 1.368 . S
C1187 C1171 1.349 . S
C1187 H1179 0.950 . S
C1187 C1185 1.327 . S
C1188 C1176 1.349 . S
C1188 H1182 0.950 . S
C1188 C1189 1.327 . S
C1189 H1183 0.950 . S
C1189 C1188 1.327 . S
C1189 C1193 1.429 . S
C1190 C1173 1.574 . S
C1190 H1184 0.949 . S
C1190 C1194 1.368 . S
C1191 C1172 1.429 . S
C1191 C1185 1.429 . S
C1191 C1192 1.523 . S
C1192 C1173 1.368 . S
C1192 C1186 1.368 . S
C1192 C1191 1.523 . S
C1193 C1177 1.429 . S
C1193 C1189 1.429 . S
C1193 C1194 1.523 . S
C1194 C1178 1.368 . S
C1194 C1190 1.368 . S
C1194 C1193 1.523 . S
H1195 C1170 0.950 . S
H1196 C1172 0.950 . S
H1197 C1173 0.949 . S
H1198 C1175 0.950 . S
H1199 C1177 0.950 . S
C1200 C1201 1.349 . S
C1200 C1202 1.327 . S
C1200 H1225 0.950 . S
C1201 C1200 1.349 . S
C1201 C1217 1.349 . S
C1202 C1200 1.327 . S
C1202 C1221 1.429 . S
C1202 H1226 0.950 . S
C1203 C1220 1.574 1_565 S
C1203 C1222 1.368 . S
C1203 H1227 0.949 . S
H1204 C1208 0.949 . S
C1205 C1206 1.349 . S
C1205 C1207 1.327 . S
C1205 H1228 0.950 . S
C1206 C1205 1.349 . S
C1206 C1218 1.349 . S
C1207 C1205 1.327 . S
C1207 C1223 1.429 . S
C1207 H1229 0.950 . S
C1208 H1204 0.949 . S
C1208 C1216 1.574 . S
C1208 C1224 1.368 . S
H1209 C1217 0.950 . S
H1210 C1215 0.950 . S
H1211 C1216 0.949 1_565 S
H1212 C1218 0.950 . S
H1213 C1219 0.950 . S
H1214 C1220 0.949 . S
C1215 H1210 0.950 . S
C1215 C1217 1.327 . S
C1215 C1221 1.429 . S
C1216 C1208 1.574 . S
C1216 H1211 0.949 1_545 S
C1216 C1222 1.368 1_545 S
C1217 C1201 1.349 . S
C1217 H1209 0.950 . S
C1217 C1215 1.327 . S
C1218 C1206 1.349 . S
C1218 H1212 0.950 . S
C1218 C1219 1.327 . S
C1219 H1213 0.950 . S
C1219 C1218 1.327 . S
C1219 C1223 1.429 . S
C1220 C1203 1.574 1_545 S
C1220 H1214 0.949 . S
C1220 C1224 1.368 . S
C1221 C1202 1.429 . S
C1221 C1215 1.429 . S
C1221 C1222 1.523 . S
C1222 C1203 1.368 . S
C1222 C1216 1.368 1_565 S
C1222 C1221 1.523 . S
C1223 C1207 1.429 . S
C1223 C1219 1.429 . S
C1223 C1224 1.523 . S
C1224 C1208 1.368 . S
C1224 C1220 1.368 . S
C1224 C1223 1.523 . S
H1225 C1200 0.950 . S
H1226 C1202 0.950 . S
H1227 C1203 0.949 . S
H1228 C1205 0.950 . S
H1229 C1207 0.950 . S
C1230 C1231 1.349 . S
C1230 C1232 1.327 . S
C1230 H1255 0.950 . S
C1231 C1230 1.349 . S
C1231 C1247 1.349 . S
C1232 C1230 1.327 . S
C1232 C1251 1.429 . S
C1232 H1256 0.950 . S
C1233 C1250 1.574 1_455 S
C1233 C1252 1.368 . S
C1233 H1257 0.949 . S
H1234 C1238 0.949 . S
C1235 C1236 1.349 . S
C1235 C1237 1.327 . S
C1235 H1258 0.950 . S
C1236 C1235 1.349 . S
C1236 C1248 1.349 . S
C1237 C1235 1.327 . S
C1237 C1253 1.429 . S
C1237 H1259 0.950 . S
C1238 H1234 0.949 . S
C1238 C1246 1.574 . S
C1238 C1254 1.368 1_455 S
H1239 C1247 0.950 . S
H1240 C1245 0.950 . S
H1241 C1246 0.949 . S
H1242 C1248 0.950 . S
H1243 C1249 0.950 . S
H1244 C1250 0.949 . S
C1245 H1240 0.950 . S
C1245 C1247 1.327 . S
C1245 C1251 1.429 . S
C1246 C1238 1.574 . S
C1246 H1241 0.949 . S
C1246 C1252 1.368 . S
C1247 C1231 1.349 . S
C1247 H1239 0.950 . S
C1247 C1245 1.327 . S
C1248 C1236 1.349 . S
C1248 H1242 0.950 . S
C1248 C1249 1.327 . S
C1249 H1243 0.950 . S
C1249 C1248 1.327 . S
C1249 C1253 1.429 . S
C1250 C1233 1.574 1_655 S
C1250 H1244 0.949 . S
C1250 C1254 1.368 . S
C1251 C1232 1.429 . S
C1251 C1245 1.429 . S
C1251 C1252 1.523 . S
C1252 C1233 1.368 . S
C1252 C1246 1.368 . S
C1252 C1251 1.523 . S
C1253 C1237 1.429 . S
C1253 C1249 1.429 . S
C1253 C1254 1.523 . S
C1254 C1238 1.368 1_655 S
C1254 C1250 1.368 . S
C1254 C1253 1.523 . S
H1255 C1230 0.950 . S
H1256 C1232 0.950 . S
H1257 C1233 0.949 . S
H1258 C1235 0.950 . S
H1259 C1237 0.950 . S
C1260 C1261 1.349 . S
C1260 C1262 1.327 . S
C1260 H1285 0.950 . S
C1261 C1260 1.349 . S
C1261 C1277 1.349 1_545 S
C1262 C1260 1.327 . S
C1262 C1281 1.429 . S
C1262 H1286 0.950 . S
C1263 C1280 1.574 1_554 S
C1263 C1282 1.368 1_565 S
C1263 H1287 0.949 . S
H1264 C1268 0.949 . S
C1265 C1266 1.349 1_565 S
C1265 C1267 1.327 . S
C1265 H1288 0.950 . S
C1266 C1265 1.349 1_545 S
C1266 C1278 1.349 . S
C1267 C1265 1.327 . S
C1267 C1283 1.429 1_565 S
C1267 H1289 0.950 . S
C1268 H1264 0.949 . S
C1268 C1276 1.574 1_556 S
C1268 C1284 1.368 . S
H1269 C1277 0.950 . S
H1270 C1275 0.950 . S
H1271 C1276 0.949 . S
H1272 C1278 0.950 . S
H1273 C1279 0.950 . S
H1274 C1280 0.949 . S
C1275 H1270 0.950 . S
C1275 C1277 1.327 . S
C1275 C1281 1.429 1_565 S
C1276 C1268 1.574 1_554 S
C1276 H1271 0.949 . S
C1276 C1282 1.368 . S
C1277 C1261 1.349 1_565 S
C1277 H1269 0.950 . S
C1277 C1275 1.327 . S
C1278 C1266 1.349 . S
C1278 H1272 0.950 . S
C1278 C1279 1.327 . S
C1279 H1273 0.950 . S
C1279 C1278 1.327 . S
C1279 C1283 1.429 . S
C1280 C1263 1.574 1_556 S
C1280 H1274 0.949 . S
C1280 C1284 1.368 1_565 S
C1281 C1262 1.429 . S
C1281 C1275 1.429 1_545 S
C1281 C1282 1.523 . S
C1282 C1263 1.368 1_545 S
C1282 C1276 1.368 . S
C1282 C1281 1.523 . S
C1283 C1267 1.429 1_545 S
C1283 C1279 1.429 . S
C1283 C1284 1.523 . S
C1284 C1268 1.368 . S
C1284 C1280 1.368 1_545 S
C1284 C1283 1.523 . S
H1285 C1260 0.950 . S
H1286 C1262 0.950 . S
H1287 C1263 0.949 . S
H1288 C1265 0.950 . S
H1289 C1267 0.950 . S
C1290 C1291 1.349 . S
C1290 C1292 1.327 . S
C1290 H1315 0.950 . S
C1291 C1290 1.349 . S
C1291 C1307 1.349 . S
C1292 C1290 1.327 . S
C1292 C1311 1.429 . S
C1292 H1316 0.950 . S
C1293 C1310 1.574 1_556 S
C1293 C1312 1.368 . S
C1293 H1317 0.949 . S
H1294 C1298 0.949 . S
C1295 C1296 1.349 . S
C1295 C1297 1.327 . S
C1295 H1318 0.950 . S
C1296 C1295 1.349 . S
C1296 C1308 1.349 . S
C1297 C1295 1.327 . S
C1297 C1313 1.429 . S
C1297 H1319 0.950 . S
C1298 H1294 0.949 . S
C1298 C1306 1.574 1_554 S
C1298 C1314 1.368 . S
H1299 C1307 0.950 . S
H1300 C1305 0.950 . S
H1301 C1306 0.949 . S
H1302 C1308 0.950 . S
H1303 C1309 0.950 . S
H1304 C1310 0.949 . S
C1305 H1300 0.950 . S
C1305 C1307 1.327 . S
C1305 C1311 1.429 . S
C1306 C1298 1.574 1_556 S
C1306 H1301 0.949 . S
C1306 C1312 1.368 . S
C1307 C1291 1.349 . S
C1307 H1299 0.950 . S
C1307 C1305 1.327 . S
C1308 C1296 1.349 . S
C1308 H1302 0.950 . S
C1308 C1309 1.327 . S
C1309 H1303 0.950 . S
C1309 C1308 1.327 . S
C1309 C1313 1.429 . S
C1310 C1293 1.574 1_554 S
C1310 H1304 0.949 . S
C1310 C1314 1.368 . S
C1311 C1292 1.429 . S
C1311 C1305 1.429 . S
C1311 C1312 1.523 . S
C1312 C1293 1.368 . S
C1312 C1306 1.368 . S
C1312 C1311 1.523 . S
C1313 C1297 1.429 . S
C1313 C1309 1.429 . S
C1313 C1314 1.523 . S
C1314 C1298 1.368 . S
C1314 C1310 1.368 . S
C1314 C1313 1.523 . S
H1315 C1290 0.950 . S
H1316 C1292 0.950 . S
H1317 C1293 0.949 . S
H1318 C1295 0.950 . S
H1319 C1297 0.950 . S
C1320 C1321 1.349 . S
C1320 C1322 1.327 . S
C1320 H1345 0.950 . S
C1321 C1320 1.349 . S
C1321 C1337 1.349 . S
C1322 C1320 1.327 . S
C1322 C1341 1.429 . S
C1322 H1346 0.950 . S
C1323 C1340 1.574 1_556 S
C1323 C1342 1.368 . S
C1323 H1347 0.949 . S
H1324 C1328 0.949 . S
C1325 C1326 1.349 . S
C1325 C1327 1.327 . S
C1325 H1348 0.950 . S
C1326 C1325 1.349 . S
C1326 C1338 1.349 . S
C1327 C1325 1.327 . S
C1327 C1343 1.429 . S
C1327 H1349 0.950 . S
C1328 H1324 0.949 . S
C1328 C1336 1.574 1_554 S
C1328 C1344 1.368 . S
H1329 C1337 0.950 . S
H1330 C1335 0.950 . S
H1331 C1336 0.949 . S
H1332 C1338 0.950 . S
H1333 C1339 0.950 . S
H1334 C1340 0.949 . S
C1335 H1330 0.950 . S
C1335 C1337 1.327 . S
C1335 C1341 1.429 . S
C1336 C1328 1.574 1_556 S
C1336 H1331 0.949 . S
C1336 C1342 1.368 . S
C1337 C1321 1.349 . S
C1337 H1329 0.950 . S
C1337 C1335 1.327 . S
C1338 C1326 1.349 . S
C1338 H1332 0.950 . S
C1338 C1339 1.327 . S
C1339 H1333 0.950 . S
C1339 C1338 1.327 . S
C1339 C1343 1.429 . S
C1340 C1323 1.574 1_554 S
C1340 H1334 0.949 . S
C1340 C1344 1.368 . S
C1341 C1322 1.429 . S
C1341 C1335 1.429 . S
C1341 C1342 1.523 . S
C1342 C1323 1.368 . S
C1342 C1336 1.368 . S
C1342 C1341 1.523 . S
C1343 C1327 1.429 . S
C1343 C1339 1.429 . S
C1343 C1344 1.523 . S
C1344 C1328 1.368 . S
C1344 C1340 1.368 . S
C1344 C1343 1.523 . S
H1345 C1320 0.950 . S
H1346 C1322 0.950 . S
H1347 C1323 0.949 . S
H1348 C1325 0.950 . S
H1349 C1327 0.950 . S
C1350 C1351 1.349 . S
C1350 C1352 1.327 . S
C1350 H1375 0.950 . S
C1351 C1350 1.349 . S
C1351 C1367 1.349 . S
C1352 C1350 1.327 . S
C1352 C1371 1.429 . S
C1352 H1376 0.950 . S
C1353 C1370 1.574 . S
C1353 C1372 1.368 . S
C1353 H1377 0.949 . S
H1354 C1358 0.949 . S
C1355 C1356 1.349 . S
C1355 C1357 1.327 . S
C1355 H1378 0.950 . S
C1356 C1355 1.349 . S
C1356 C1368 1.349 . S
C1357 C1355 1.327 . S
C1357 C1373 1.429 . S
C1357 H1379 0.950 . S
C1358 H1354 0.949 . S
C1358 C1366 1.574 . S
C1358 C1374 1.368 . S
H1359 C1367 0.950 . S
H1360 C1365 0.950 . S
H1361 C1366 0.949 . S
H1362 C1368 0.950 . S
H1363 C1369 0.950 . S
H1364 C1370 0.949 . S
C1365 H1360 0.950 . S
C1365 C1367 1.327 . S
C1365 C1371 1.429 . S
C1366 C1358 1.574 . S
C1366 H1361 0.949 . S
C1366 C1372 1.368 . S
C1367 C1351 1.349 . S
C1367 H1359 0.950 . S
C1367 C1365 1.327 . S
C1368 C1356 1.349 . S
C1368 H1362 0.950 . S
C1368 C1369 1.327 . S
C1369 H1363 0.950 . S
C1369 C1368 1.327 . S
C1369 C1373 1.429 . S
C1370 C1353 1.574 . S
C1370 H1364 0.949 . S
C1370 C1374 1.368 . S
C1371 C1352 1.429 . S
C1371 C1365 1.429 . S
C1371 C1372 1.523 . S
C1372 C1353 1.368 . S
C1372 C1366 1.368 . S
C1372 C1371 1.523 . S
C1373 C1357 1.429 . S
C1373 C1369 1.429 . S
C1373 C1374 1.523 . S
C1374 C1358 1.368 . S
C1374 C1370 1.368 . S
C1374 C1373 1.523 . S
H1375 C1350 0.950 . S
H1376 C1352 0.950 . S
H1377 C1353 0.949 . S
H1378 C1355 0.950 . S
H1379 C1357 0.950 . S
C1380 C1381 1.349 . S
C1380 C1382 1.327 . S
C1380 H1405 0.950 . S
C1381 C1380 1.349 . S
C1381 C1397 1.349 . S
C1382 C1380 1.327 . S
C1382 C1401 1.429 . S
C1382 H1406 0.950 . S
C1383 C1400 1.574 . S
C1383 C1402 1.368 . S
C1383 H1407 0.949 . S
H1384 C1388 0.949 . S
C1385 C1386 1.349 . S
C1385 C1387 1.327 . S
C1385 H1408 0.950 . S
C1386 C1385 1.349 . S
C1386 C1398 1.349 . S
C1387 C1385 1.327 . S
C1387 C1403 1.429 . S
C1387 H1409 0.950 . S
C1388 H1384 0.949 . S
C1388 C1396 1.574 . S
C1388 C1404 1.368 . S
H1389 C1397 0.950 . S
H1390 C1395 0.950 . S
H1391 C1396 0.949 . S
H1392 C1398 0.950 . S
H1393 C1399 0.950 . S
H1394 C1400 0.949 . S
C1395 H1390 0.950 . S
C1395 C1397 1.327 . S
C1395 C1401 1.429 . S
C1396 C1388 1.574 . S
C1396 H1391 0.949 . S
C1396 C1402 1.368 . S
C1397 C1381 1.349 . S
C1397 H1389 0.950 . S
C1397 C1395 1.327 . S
C1398 C1386 1.349 . S
C1398 H1392 0.950 . S
C1398 C1399 1.327 . S
C1399 H1393 0.950 . S
C1399 C1398 1.327 . S
C1399 C1403 1.429 . S
C1400 C1383 1.574 . S
C1400 H1394 0.949 . S
C1400 C1404 1.368 . S
C1401 C1382 1.429 . S
C1401 C1395 1.429 . S
C1401 C1402 1.523 . S
C1402 C1383 1.368 . S
C1402 C1396 1.368 . S
C1402 C1401 1.523 . S
C1403 C1387 1.429 . S
C1403 C1399 1.429 . S
C1403 C1404 1.523 . S
C1404 C1388 1.368 . S
C1404 C1400 1.368 . S
C1404 C1403 1.523 . S
H1405 C1380 0.950 . S
H1406 C1382 0.950 . S
H1407 C1383 0.949 . S
H1408 C1385 0.950 . S
H1409 C1387 0.950 . S
C1410 C1411 1.349 . S
C1410 C1412 1.327 . S
C1410 H1435 0.950 . S
C1411 C1410 1.349 . S
C1411 C1427 1.349 . S
C1412 C1410 1.327 . S
C1412 C1431 1.429 . S
C1412 H1436 0.950 . S
C1413 C1430 1.574 . S
C1413 C1432 1.368 . S
C1413 H1437 0.949 . S
H1414 C1418 0.949 . S
C1415 C1416 1.349 . S
C1415 C1417 1.327 . S
C1415 H1438 0.950 . S
C1416 C1415 1.349 . S
C1416 C1428 1.349 . S
C1417 C1415 1.327 . S
C1417 C1433 1.429 . S
C1417 H1439 0.950 . S
C1418 H1414 0.949 . S
C1418 C1426 1.574 . S
C1418 C1434 1.368 . S
H1419 C1427 0.950 . S
H1420 C1425 0.950 . S
H1421 C1426 0.949 . S
H1422 C1428 0.950 . S
H1423 C1429 0.950 . S
H1424 C1430 0.949 . S
C1425 H1420 0.950 . S
C1425 C1427 1.327 . S
C1425 C1431 1.429 . S
C1426 C1418 1.574 . S
C1426 H1421 0.949 . S
C1426 C1432 1.368 . S
C1427 C1411 1.349 . S
C1427 H1419 0.950 . S
C1427 C1425 1.327 . S
C1428 C1416 1.349 . S
C1428 H1422 0.950 . S
C1428 C1429 1.327 . S
C1429 H1423 0.950 . S
C1429 C1428 1.327 . S
C1429 C1433 1.429 . S
C1430 C1413 1.574 . S
C1430 H1424 0.949 . S
C1430 C1434 1.368 . S
C1431 C1412 1.429 . S
C1431 C1425 1.429 . S
C1431 C1432 1.523 . S
C1432 C1413 1.368 . S
C1432 C1426 1.368 . S
C1432 C1431 1.523 . S
C1433 C1417 1.429 . S
C1433 C1429 1.429 . S
C1433 C1434 1.523 . S
C1434 C1418 1.368 . S
C1434 C1430 1.368 . S
C1434 C1433 1.523 . S
H1435 C1410 0.950 . S
H1436 C1412 0.950 . S
H1437 C1413 0.949 . S
H1438 C1415 0.950 . S
H1439 C1417 0.950 . S
C1440 C1441 1.349 . S
C1440 C1442 1.327 . S
C1440 H1465 0.950 . S
C1441 C1440 1.349 . S
C1441 C1457 1.349 . S
C1442 C1440 1.327 . S
C1442 C1461 1.429 . S
C1442 H1466 0.950 . S
C1443 C1460 1.574 . S
C1443 C1462 1.368 . S
C1443 H1467 0.949 . S
H1444 C1448 0.949 . S
C1445 C1446 1.349 . S
C1445 C1447 1.327 . S
C1445 H1468 0.950 . S
C1446 C1445 1.349 . S
C1446 C1458 1.349 . S
C1447 C1445 1.327 . S
C1447 C1463 1.429 . S
C1447 H1469 0.950 . S
C1448 H1444 0.949 . S
C1448 C1456 1.574 . S
C1448 C1464 1.368 . S
H1449 C1457 0.950 . S
H1450 C1455 0.950 . S
H1451 C1456 0.949 . S
H1452 C1458 0.950 . S
H1453 C1459 0.950 . S
H1454 C1460 0.949 . S
C1455 H1450 0.950 . S
C1455 C1457 1.327 . S
C1455 C1461 1.429 . S
C1456 C1448 1.574 . S
C1456 H1451 0.949 . S
C1456 C1462 1.368 . S
C1457 C1441 1.349 . S
C1457 H1449 0.950 . S
C1457 C1455 1.327 . S
C1458 C1446 1.349 . S
C1458 H1452 0.950 . S
C1458 C1459 1.327 . S
C1459 H1453 0.950 . S
C1459 C1458 1.327 . S
C1459 C1463 1.429 . S
C1460 C1443 1.574 . S
C1460 H1454 0.949 . S
C1460 C1464 1.368 . S
C1461 C1442 1.429 . S
C1461 C1455 1.429 . S
C1461 C1462 1.523 . S
C1462 C1443 1.368 . S
C1462 C1456 1.368 . S
C1462 C1461 1.523 . S
C1463 C1447 1.429 . S
C1463 C1459 1.429 . S
C1463 C1464 1.523 . S
C1464 C1448 1.368 . S
C1464 C1460 1.368 . S
C1464 C1463 1.523 . S
H1465 C1440 0.950 . S
H1466 C1442 0.950 . S
H1467 C1443 0.949 . S
H1468 C1445 0.950 . S
H1469 C1447 0.950 . S
C1470 C1471 1.349 . S
C1470 C1472 1.327 . S
C1470 H1495 0.950 . S
C1471 C1470 1.349 . S
C1471 C1487 1.349 . S
C1472 C1470 1.327 . S
C1472 C1491 1.429 . S
C1472 H1496 0.950 . S
C1473 C1490 1.574 . S
C1473 C1492 1.368 . S
C1473 H1497 0.949 . S
H1474 C1478 0.949 . S
C1475 C1476 1.349 . S
C1475 C1477 1.327 . S
C1475 H1498 0.950 . S
C1476 C1475 1.349 . S
C1476 C1488 1.349 . S
C1477 C1475 1.327 . S
C1477 C1493 1.429 . S
C1477 H1499 0.950 . S
C1478 H1474 0.949 . S
C1478 C1486 1.574 . S
C1478 C1494 1.368 . S
H1479 C1487 0.950 . S
H1480 C1485 0.950 . S
H1481 C1486 0.949 . S
H1482 C1488 0.950 . S
H1483 C1489 0.950 . S
H1484 C1490 0.949 . S
C1485 H1480 0.950 . S
C1485 C1487 1.327 . S
C1485 C1491 1.429 . S
C1486 C1478 1.574 . S
C1486 H1481 0.949 . S
C1486 C1492 1.368 . S
C1487 C1471 1.349 . S
C1487 H1479 0.950 . S
C1487 C1485 1.327 . S
C1488 C1476 1.349 . S
C1488 H1482 0.950 . S
C1488 C1489 1.327 . S
C1489 H1483 0.950 . S
C1489 C1488 1.327 . S
C1489 C1493 1.429 . S
C1490 C1473 1.574 . S
C1490 H1484 0.949 . S
C1490 C1494 1.368 . S
C1491 C1472 1.429 . S
C1491 C1485 1.429 . S
C1491 C1492 1.523 . S
C1492 C1473 1.368 . S
C1492 C1486 1.368 . S
C1492 C1491 1.523 . S
C1493 C1477 1.429 . S
C1493 C1489 1.429 . S
C1493 C1494 1.523 . S
C1494 C1478 1.368 . S
C1494 C1490 1.368 . S
C1494 C1493 1.523 . S
H1495 C1470 0.950 . S
H1496 C1472 0.950 . S
H1497 C1473 0.949 . S
H1498 C1475 0.950 . S
H1499 C1477 0.950 . S
C1500 C1501 1.349 . S
C1500 C1502 1.327 . S
C1500 H1525 0.950 . S
C1501 C1500 1.349 . S
C1501 C1517 1.349 . S
C1502 C1500 1.327 . S
C1502 C1521 1.429 . S
C1502 H1526 0.950 . S
C1503 C1520 1.574 . S
C1503 C1522 1.368 . S
C1503 H1527 0.949 . S
H1504 C1508 0.949 . S
C1505 C1506 1.349 . S
C1505 C1507 1.327 . S
C1505 H1528 0.950 . S
C1506 C1505 1.349 . S
C1506 C1518 1.349 . S
C1507 C1505 1.327 . S
C1507 C1523 1.429 . S
C1507 H1529 0.950 . S
C1508 H1504 0.949 . S
C1508 C1516 1.574 . S
C1508 C1524 1.368 . S
H1509 C1517 0.950 . S
H1510 C1515 0.950 . S
H1511 C1516 0.949 . S
H1512 C1518 0.950 . S
H1513 C1519 0.950 . S
H1514 C1520 0.949 . S
C1515 H1510 0.950 . S
C1515 C1517 1.327 . S
C1515 C1521 1.429 . S
C1516 C1508 1.574 . S
C1516 H1511 0.949 . S
C1516 C1522 1.368 . S
C1517 C1501 1.349 . S
C1517 H1509 0.950 . S
C1517 C1515 1.327 . S
C1518 C1506 1.349 . S
C1518 H1512 0.950 . S
C1518 C1519 1.327 . S
C1519 H1513 0.950 . S
C1519 C1518 1.327 . S
C1519 C1523 1.429 . S
C1520 C1503 1.574 . S
C1520 H1514 0.949 . S
C1520 C1524 1.368 . S
C1521 C1502 1.429 . S
C1521 C1515 1.429 . S
C1521 C1522 1.523 . S
C1522 C1503 1.368 . S
C1522 C1516 1.368 . S
C1522 C1521 1.523 . S
C1523 C1507 1.429 . S
C1523 C1519 1.429 . S
C1523 C1524 1.523 . S
C1524 C1508 1.368 . S
C1524 C1520 1.368 . S
C1524 C1523 1.523 . S
H1525 C1500 0.950 . S
H1526 C1502 0.950 . S
H1527 C1503 0.949 . S
H1528 C1505 0.950 . S
H1529 C1507 0.950 . S
C1530 C1531 1.349 . S
C1530 C1532 1.327 . S
C1530 H1555 0.950 . S
C1531 C1530 1.349 . S
C1531 C1547 1.349 . S
C1532 C1530 1.327 . S
C1532 C1551 1.429 . S
C1532 H1556 0.950 . S
C1533 C1550 1.574 . S
C1533 C1552 1.368 . S
C1533 H1557 0.949 . S
H1534 C1538 0.949 . S
C1535 C1536 1.340 1_545 S
C1535 C1537 1.327 1_545 S
C1535 H1558 0.958 . S
C1536 C1535 1.340 1_565 S
C1536 C1548 1.349 . S
C1537 C1535 1.327 1_565 S
C1537 C1553 1.429 . S
C1537 H1559 0.950 1_565 S
C1538 H1534 0.949 . S
C1538 C1546 1.574 . S
C1538 C1554 1.368 . S
H1539 C1547 0.950 . S
H1540 C1545 0.950 . S
H1541 C1546 0.949 . S
H1542 C1548 0.950 . S
H1543 C1549 0.950 . S
H1544 C1550 0.949 . S
C1545 H1540 0.950 . S
C1545 C1547 1.327 . S
C1545 C1551 1.429 . S
C1546 C1538 1.574 . S
C1546 H1541 0.949 . S
C1546 C1552 1.368 . S
C1547 C1531 1.349 . S
C1547 H1539 0.950 . S
C1547 C1545 1.327 . S
C1548 C1536 1.349 . S
C1548 H1542 0.950 . S
C1548 C1549 1.327 . S
C1549 H1543 0.950 . S
C1549 C1548 1.327 . S
C1549 C1553 1.429 . S
C1550 C1533 1.574 . S
C1550 H1544 0.949 . S
C1550 C1554 1.368 . S
C1551 C1532 1.429 . S
C1551 C1545 1.429 . S
C1551 C1552 1.523 . S
C1552 C1533 1.368 . S
C1552 C1546 1.368 . S
C1552 C1551 1.523 . S
C1553 C1537 1.429 . S
C1553 C1549 1.429 . S
C1553 C1554 1.523 . S
C1554 C1538 1.368 . S
C1554 C1550 1.368 . S
C1554 C1553 1.523 . S
H1555 C1530 0.950 . S
H1556 C1532 0.950 . S
H1557 C1533 0.949 . S
H1558 C1535 0.958 . S
H1559 C1537 0.950 1_545 S
C1560 C1561 1.349 . S
C1560 C1562 1.327 . S
C1560 H1585 0.950 . S
C1561 C1560 1.349 . S
C1561 C1577 1.349 . S
C1562 C1560 1.327 . S
C1562 C1581 1.429 . S
C1562 H1586 0.950 . S
C1563 C1580 1.574 . S
C1563 C1582 1.368 . S
C1563 H1587 0.949 . S
H1564 C1568 0.949 . S
C1565 C1566 1.349 . S
C1565 C1567 1.327 . S
C1565 H1588 0.950 . S
C1566 C1565 1.349 . S
C1566 C1578 1.349 . S
C1567 C1565 1.327 . S
C1567 C1583 1.429 . S
C1567 H1589 0.950 . S
C1568 H1564 0.949 . S
C1568 C1576 1.574 . S
C1568 C1584 1.368 . S
H1569 C1577 0.950 . S
H1570 C1575 0.950 . S
H1571 C1576 0.949 . S
H1572 C1578 0.950 . S
H1573 C1579 0.950 . S
H1574 C1580 0.949 . S
C1575 H1570 0.950 . S
C1575 C1577 1.327 . S
C1575 C1581 1.429 . S
C1576 C1568 1.574 . S
C1576 H1571 0.949 . S
C1576 C1582 1.368 . S
C1577 C1561 1.349 . S
C1577 H1569 0.950 . S
C1577 C1575 1.327 . S
C1578 C1566 1.349 . S
C1578 H1572 0.950 . S
C1578 C1579 1.327 . S
C1579 H1573 0.950 . S
C1579 C1578 1.327 . S
C1579 C1583 1.429 . S
C1580 C1563 1.574 . S
C1580 H1574 0.949 . S
C1580 C1584 1.368 . S
C1581 C1562 1.429 . S
C1581 C1575 1.429 . S
C1581 C1582 1.523 . S
C1582 C1563 1.368 . S
C1582 C1576 1.368 . S
C1582 C1581 1.523 . S
C1583 C1567 1.429 . S
C1583 C1579 1.429 . S
C1583 C1584 1.523 . S
C1584 C1568 1.368 . S
C1584 C1580 1.368 . S
C1584 C1583 1.523 . S
H1585 C1560 0.950 . S
H1586 C1562 0.950 . S
H1587 C1563 0.949 . S
H1588 C1565 0.950 . S
H1589 C1567 0.950 . S
C1590 C1591 1.349 . S
C1590 C1592 1.327 . S
C1590 H1615 0.950 . S
C1591 C1590 1.349 . S
C1591 C1607 1.349 . S
C1592 C1590 1.327 . S
C1592 C1611 1.429 . S
C1592 H1616 0.950 . S
C1593 C1610 1.574 . S
C1593 C1612 1.368 . S
C1593 H1617 0.949 . S
H1594 C1598 0.949 . S
C1595 C1596 1.349 . S
C1595 C1597 1.327 . S
C1595 H1618 0.950 . S
C1596 C1595 1.349 . S
C1596 C1608 1.349 . S
C1597 C1595 1.327 . S
C1597 C1613 1.429 . S
C1597 H1619 0.950 . S
C1598 H1594 0.949 . S
C1598 C1606 1.574 . S
C1598 C1614 1.368 . S
H1599 C1607 0.950 . S
H1600 C1605 0.950 . S
H1601 C1606 0.949 . S
H1602 C1608 0.950 . S
H1603 C1609 0.950 . S
H1604 C1610 0.949 . S
C1605 H1600 0.950 . S
C1605 C1607 1.327 . S
C1605 C1611 1.429 . S
C1606 C1598 1.574 . S
C1606 H1601 0.949 . S
C1606 C1612 1.368 . S
C1607 C1591 1.349 . S
C1607 H1599 0.950 . S
C1607 C1605 1.327 . S
C1608 C1596 1.349 . S
C1608 H1602 0.950 . S
C1608 C1609 1.327 . S
C1609 H1603 0.950 . S
C1609 C1608 1.327 . S
C1609 C1613 1.429 . S
C1610 C1593 1.574 . S
C1610 H1604 0.949 . S
C1610 C1614 1.368 . S
C1611 C1592 1.429 . S
C1611 C1605 1.429 . S
C1611 C1612 1.523 . S
C1612 C1593 1.368 . S
C1612 C1606 1.368 . S
C1612 C1611 1.523 . S
C1613 C1597 1.429 . S
C1613 C1609 1.429 . S
C1613 C1614 1.523 . S
C1614 C1598 1.368 . S
C1614 C1610 1.368 . S
C1614 C1613 1.523 . S
H1615 C1590 0.950 . S
H1616 C1592 0.950 . S
H1617 C1593 0.949 . S
H1618 C1595 0.950 . S
H1619 C1597 0.950 . S
C1620 C1621 1.349 . S
C1620 C1622 1.327 . S
C1620 H1645 0.950 . S
C1621 C1620 1.349 . S
C1621 C1637 1.349 . S
C1622 C1620 1.327 . S
C1622 C1641 1.429 . S
C1622 H1646 0.950 . S
C1623 C1640 1.574 . S
C1623 C1642 1.368 . S
C1623 H1647 0.949 . S
H1624 C1628 0.949 . S
C1625 C1626 1.349 . S
C1625 C1627 1.327 . S
C1625 H1648 0.950 . S
C1626 C1625 1.349 . S
C1626 C1638 1.349 . S
C1627 C1625 1.327 . S
C1627 C1643 1.429 . S
C1627 H1649 0.950 . S
C1628 H1624 0.949 . S
C1628 C1636 1.574 . S
C1628 C1644 1.368 . S
H1629 C1637 0.950 1_455 S
H1630 C1635 0.950 . S
H1631 C1636 0.949 . S
H1632 C1638 0.950 . S
H1633 C1639 0.950 . S
H1634 C1640 0.949 . S
C1635 H1630 0.950 . S
C1635 C1637 1.327 . S
C1635 C1641 1.429 . S
C1636 C1628 1.574 . S
C1636 H1631 0.949 . S
C1636 C1642 1.368 . S
C1637 C1621 1.349 . S
C1637 H1629 0.950 1_655 S
C1637 C1635 1.327 . S
C1638 C1626 1.349 . S
C1638 H1632 0.950 . S
C1638 C1639 1.327 . S
C1639 H1633 0.950 . S
C1639 C1638 1.327 . S
C1639 C1643 1.429 . S
C1640 C1623 1.574 . S
C1640 H1634 0.949 . S
C1640 C1644 1.368 . S
C1641 C1622 1.429 . S
C1641 C1635 1.429 . S
C1641 C1642 1.523 . S
C1642 C1623 1.368 . S
C1642 C1636 1.368 . S
C1642 C1641 1.523 . S
C1643 C1627 1.429 . S
C1643 C1639 1.429 . S
C1643 C1644 1.523 . S
C1644 C1628 1.368 . S
C1644 C1640 1.368 . S
C1644 C1643 1.523 . S
H1645 C1620 0.950 . S
H1646 C1622 0.950 . S
H1647 C1623 0.949 . S
H1648 C1625 0.950 . S
H1649 C1627 0.950 . S
C1650 C1651 1.349 . S
C1650 C1652 1.327 . S
C1650 H1675 0.950 . S
C1651 C1650 1.349 . S
C1651 C1667 1.349 . S
C1652 C1650 1.327 . S
C1652 C1671 1.429 . S
C1652 H1676 0.950 . S
C1653 C1670 1.574 . S
C1653 C1672 1.368 . S
C1653 H1677 0.949 . S
H1654 C1658 0.949 . S
C1655 C1656 1.349 . S
C1655 C1657 1.327 . S
C1655 H1678 0.950 . S
C1656 C1655 1.349 . S
C1656 C1668 1.349 . S
C1657 C1655 1.327 . S
C1657 C1673 1.429 . S
C1657 H1679 0.950 . S
C1658 H1654 0.949 . S
C1658 C1666 1.574 . S
C1658 C1674 1.368 . S
H1659 C1667 0.950 . S
H1660 C1665 0.950 . S
H1661 C1666 0.949 . S
H1662 C1668 0.950 . S
H1663 C1669 0.950 . S
H1664 C1670 0.949 . S
C1665 H1660 0.950 . S
C1665 C1667 1.327 . S
C1665 C1671 1.429 . S
C1666 C1658 1.574 . S
C1666 H1661 0.949 . S
C1666 C1672 1.368 . S
C1667 C1651 1.349 . S
C1667 H1659 0.950 . S
C1667 C1665 1.327 . S
C1668 C1656 1.349 . S
C1668 H1662 0.950 . S
C1668 C1669 1.327 . S
C1669 H1663 0.950 . S
C1669 C1668 1.327 . S
C1669 C1673 1.429 . S
C1670 C1653 1.574 . S
C1670 H1664 0.949 . S
C1670 C1674 1.368 . S
C1671 C1652 1.429 . S
C1671 C1665 1.429 . S
C1671 C1672 1.523 . S
C1672 C1653 1.368 . S
C1672 C1666 1.368 . S
C1672 C1671 1.523 . S
C1673 C1657 1.429 . S
C1673 C1669 1.429 . S
C1673 C1674 1.523 . S
C1674 C1658 1.368 . S
C1674 C1670 1.368 . S
C1674 C1673 1.523 . S
H1675 C1650 0.950 . S
H1676 C1652 0.950 . S
H1677 C1653 0.949 . S
H1678 C1655 0.950 . S
H1679 C1657 0.950 . S
C1680 C1681 1.349 . S
C1680 C1682 1.327 . S
C1680 H1705 0.950 . S
C1681 C1680 1.349 . S
C1681 C1697 1.349 . S
C1682 C1680 1.327 . S
C1682 C1701 1.429 . S
C1682 H1706 0.950 . S
C1683 C1700 1.574 . S
C1683 C1702 1.368 . S
C1683 H1707 0.949 . S
H1684 C1688 0.949 . S
C1685 C1686 1.349 . S
C1685 C1687 1.327 . S
C1685 H1708 0.950 . S
C1686 C1685 1.349 . S
C1686 C1698 1.349 . S
C1687 C1685 1.327 . S
C1687 C1703 1.429 . S
C1687 H1709 0.950 . S
C1688 H1684 0.949 . S
C1688 C1696 1.574 . S
C1688 C1704 1.368 . S
H1689 C1697 0.950 . S
H1690 C1695 0.950 . S
H1691 C1696 0.949 . S
H1692 C1698 0.950 . S
H1693 C1699 0.950 . S
H1694 C1700 0.949 . S
C1695 H1690 0.950 . S
C1695 C1697 1.327 . S
C1695 C1701 1.429 . S
C1696 C1688 1.574 . S
C1696 H1691 0.949 . S
C1696 C1702 1.368 . S
C1697 C1681 1.349 . S
C1697 H1689 0.950 . S
C1697 C1695 1.327 . S
C1698 C1686 1.349 . S
C1698 H1692 0.950 . S
C1698 C1699 1.327 . S
C1699 H1693 0.950 . S
C1699 C1698 1.327 . S
C1699 C1703 1.429 . S
C1700 C1683 1.574 . S
C1700 H1694 0.949 . S
C1700 C1704 1.368 . S
C1701 C1682 1.429 . S
C1701 C1695 1.429 . S
C1701 C1702 1.523 . S
C1702 C1683 1.368 . S
C1702 C1696 1.368 . S
C1702 C1701 1.523 . S
C1703 C1687 1.429 . S
C1703 C1699 1.429 . S
C1703 C1704 1.523 . S
C1704 C1688 1.368 . S
C1704 C1700 1.368 . S
C1704 C1703 1.523 . S
H1705 C1680 0.950 . S
H1706 C1682 0.950 . S
H1707 C1683 0.949 . S
H1708 C1685 0.950 . S
H1709 C1687 0.950 . S
C1710 C1711 1.349 . S
C1710 C1712 1.327 . S
C1710 H1735 0.950 . S
C1711 C1710 1.349 . S
C1711 C1727 1.349 . S
C1712 C1710 1.327 . S
C1712 C1731 1.429 . S
C1712 H1736 0.950 . S
C1713 C1730 1.574 . S
C1713 C1732 1.368 1_455 S
C1713 H1737 0.949 . S
H1714 C1718 0.949 . S
C1715 C1716 1.349 . S
C1715 C1717 1.327 . S
C1715 H1738 0.950 . S
C1716 C1715 1.349 . S
C1716 C1728 1.349 . S
C1717 C1715 1.327 . S
C1717 C1733 1.429 . S
C1717 H1739 0.950 . S
C1718 H1714 0.949 . S
C1718 C1726 1.574 1_455 S
C1718 C1734 1.368 . S
H1719 C1727 0.950 . S
H1720 C1725 0.950 . S
H1721 C1726 0.949 . S
H1722 C1728 0.950 . S
H1723 C1729 0.950 . S
H1724 C1730 0.949 . S
C1725 H1720 0.950 . S
C1725 C1727 1.327 . S
C1725 C1731 1.429 . S
C1726 C1718 1.574 1_655 S
C1726 H1721 0.949 . S
C1726 C1732 1.368 . S
C1727 C1711 1.349 . S
C1727 H1719 0.950 . S
C1727 C1725 1.327 . S
C1728 C1716 1.349 . S
C1728 H1722 0.950 . S
C1728 C1729 1.327 . S
C1729 H1723 0.950 . S
C1729 C1728 1.327 . S
C1729 C1733 1.429 . S
C1730 C1713 1.574 . S
C1730 H1724 0.949 . S
C1730 C1734 1.368 . S
C1731 C1712 1.429 . S
C1731 C1725 1.429 . S
C1731 C1732 1.523 . S
C1732 C1713 1.368 1_655 S
C1732 C1726 1.368 . S
C1732 C1731 1.523 . S
C1733 C1717 1.429 . S
C1733 C1729 1.429 . S
C1733 C1734 1.523 . S
C1734 C1718 1.368 . S
C1734 C1730 1.368 . S
C1734 C1733 1.523 . S
H1735 C1710 0.950 . S
H1736 C1712 0.950 . S
H1737 C1713 0.949 . S
H1738 C1715 0.950 . S
H1739 C1717 0.950 . S
C1740 C1741 1.349 . S
C1740 C1742 1.327 . S
C1740 H1765 0.950 . S
C1741 C1740 1.349 . S
C1741 C1757 1.349 . S
C1742 C1740 1.327 . S
C1742 C1761 1.429 . S
C1742 H1766 0.950 . S
C1743 C1760 1.574 . S
C1743 C1762 1.368 . S
C1743 H1767 0.949 . S
H1744 C1748 0.949 . S
C1745 C1746 1.349 . S
C1745 C1747 1.327 . S
C1745 H1768 0.950 . S
C1746 C1745 1.349 . S
C1746 C1758 1.349 . S
C1747 C1745 1.327 . S
C1747 C1763 1.429 . S
C1747 H1769 0.950 . S
C1748 H1744 0.949 . S
C1748 C1756 1.574 . S
C1748 C1764 1.368 . S
H1749 C1757 0.950 . S
H1750 C1755 0.950 . S
H1751 C1756 0.949 . S
H1752 C1758 0.950 . S
H1753 C1759 0.950 . S
H1754 C1760 0.949 . S
C1755 H1750 0.950 . S
C1755 C1757 1.327 . S
C1755 C1761 1.429 . S
C1756 C1748 1.574 . S
C1756 H1751 0.949 . S
C1756 C1762 1.368 . S
C1757 C1741 1.349 . S
C1757 H1749 0.950 . S
C1757 C1755 1.327 . S
C1758 C1746 1.349 . S
C1758 H1752 0.950 . S
C1758 C1759 1.327 . S
C1759 H1753 0.950 . S
C1759 C1758 1.327 . S
C1759 C1763 1.429 . S
C1760 C1743 1.574 . S
C1760 H1754 0.949 . S
C1760 C1764 1.368 . S
C1761 C1742 1.429 . S
C1761 C1755 1.429 . S
C1761 C1762 1.523 . S
C1762 C1743 1.368 . S
C1762 C1756 1.368 . S
C1762 C1761 1.523 . S
C1763 C1747 1.429 . S
C1763 C1759 1.429 . S
C1763 C1764 1.523 . S
C1764 C1748 1.368 . S
C1764 C1760 1.368 . S
C1764 C1763 1.523 . S
H1765 C1740 0.950 . S
H1766 C1742 0.950 . S
H1767 C1743 0.949 . S
H1768 C1745 0.950 . S
H1769 C1747 0.950 . S
C1770 C1771 1.349 . S
C1770 C1772 1.327 . S
C1770 H1795 0.950 . S
C1771 C1770 1.349 . S
C1771 C1787 1.349 . S
C1772 C1770 1.327 . S
C1772 C1791 1.429 . S
C1772 H1796 0.950 . S
C1773 C1790 1.574 . S
C1773 C1792 1.368 1_545 S
C1773 H1797 0.949 . S
H1774 C1778 0.949 . S
C1775 C1776 1.349 . S
C1775 C1777 1.327 . S
C1775 H1798 0.950 . S
C1776 C1775 1.349 . S
C1776 C1788 1.349 . S
C1777 C1775 1.327 . S
C1777 C1793 1.429 . S
C1777 H1799 0.950 . S
C1778 H1774 0.949 . S
C1778 C1786 1.574 1_545 S
C1778 C1794 1.368 . S
H1779 C1787 0.950 . S
H1780 C1785 0.950 . S
H1781 C1786 0.949 . S
H1782 C1788 0.950 . S
H1783 C1789 0.950 . S
H1784 C1790 0.949 . S
C1785 H1780 0.950 . S
C1785 C1787 1.327 . S
C1785 C1791 1.429 . S
C1786 C1778 1.574 1_565 S
C1786 H1781 0.949 . S
C1786 C1792 1.368 . S
C1787 C1771 1.349 . S
C1787 H1779 0.950 . S
C1787 C1785 1.327 . S
C1788 C1776 1.349 . S
C1788 H1782 0.950 . S
C1788 C1789 1.327 . S
C1789 H1783 0.950 . S
C1789 C1788 1.327 . S
C1789 C1793 1.429 . S
C1790 C1773 1.574 . S
C1790 H1784 0.949 . S
C1790 C1794 1.368 . S
C1791 C1772 1.429 . S
C1791 C1785 1.429 . S
C1791 C1792 1.523 . S
C1792 C1773 1.368 1_565 S
C1792 C1786 1.368 . S
C1792 C1791 1.523 . S
C1793 C1777 1.429 . S
C1793 C1789 1.429 . S
C1793 C1794 1.523 . S
C1794 C1778 1.368 . S
C1794 C1790 1.368 . S
C1794 C1793 1.523 . S
H1795 C1770 0.950 . S
H1796 C1772 0.950 . S
H1797 C1773 0.949 . S
H1798 C1775 0.950 . S
H1799 C1777 0.950 . S
C1800 C1801 1.349 . S
C1800 C1802 1.327 . S
C1800 H1825 0.950 . S
C1801 C1800 1.349 . S
C1801 C1817 1.349 . S
C1802 C1800 1.327 . S
C1802 C1821 1.429 . S
C1802 H1826 0.950 . S
C1803 C1820 1.574 . S
C1803 C1822 1.368 . S
C1803 H1827 0.949 . S
H1804 C1808 0.949 . S
C1805 C1806 1.349 . S
C1805 C1807 1.327 . S
C1805 H1828 0.950 . S
C1806 C1805 1.349 . S
C1806 C1818 1.349 . S
C1807 C1805 1.327 . S
C1807 C1823 1.429 . S
C1807 H1829 0.950 . S
C1808 H1804 0.949 . S
C1808 C1816 1.574 . S
C1808 C1824 1.368 . S
H1809 C1817 0.950 . S
H1810 C1815 0.950 . S
H1811 C1816 0.949 . S
H1812 C1818 0.950 . S
H1813 C1819 0.950 . S
H1814 C1820 0.949 . S
C1815 H1810 0.950 . S
C1815 C1817 1.327 . S
C1815 C1821 1.429 . S
C1816 C1808 1.574 . S
C1816 H1811 0.949 . S
C1816 C1822 1.368 . S
C1817 C1801 1.349 . S
C1817 H1809 0.950 . S
C1817 C1815 1.327 . S
C1818 C1806 1.349 . S
C1818 H1812 0.950 . S
C1818 C1819 1.327 . S
C1819 H1813 0.950 . S
C1819 C1818 1.327 . S
C1819 C1823 1.429 . S
C1820 C1803 1.574 . S
C1820 H1814 0.949 . S
C1820 C1824 1.368 . S
C1821 C1802 1.429 . S
C1821 C1815 1.429 . S
C1821 C1822 1.523 . S
C1822 C1803 1.368 . S
C1822 C1816 1.368 . S
C1822 C1821 1.523 . S
C1823 C1807 1.429 . S
C1823 C1819 1.429 . S
C1823 C1824 1.523 . S
C1824 C1808 1.368 . S
C1824 C1820 1.368 . S
C1824 C1823 1.523 . S
H1825 C1800 0.950 . S
H1826 C1802 0.950 . S
H1827 C1803 0.949 . S
H1828 C1805 0.950 . S
H1829 C1807 0.950 . S
C1830 C1831 1.349 . S
C1830 C1832 1.327 . S
C1830 H1855 0.950 . S
C1831 C1830 1.349 . S
C1831 C1847 1.349 . S
C1832 C1830 1.327 . S
C1832 C1851 1.429 . S
C1832 H1856 0.950 . S
C1833 C1850 1.574 . S
C1833 C1852 1.368 . S
C1833 H1857 0.949 . S
H1834 C1838 0.949 . S
C1835 C1836 1.349 . S
C1835 C1837 1.327 . S
C1835 H1858 0.950 . S
C1836 C1835 1.349 . S
C1836 C1848 1.349 . S
C1837 C1835 1.327 . S
C1837 C1853 1.429 . S
C1837 H1859 0.950 . S
C1838 H1834 0.949 . S
C1838 C1846 1.574 . S
C1838 C1854 1.368 . S
H1839 C1847 0.950 . S
H1840 C1845 0.950 . S
H1841 C1846 0.949 . S
H1842 C1848 0.950 . S
H1843 C1849 0.950 . S
H1844 C1850 0.949 . S
C1845 H1840 0.950 . S
C1845 C1847 1.327 . S
C1845 C1851 1.429 . S
C1846 C1838 1.574 . S
C1846 H1841 0.949 . S
C1846 C1852 1.368 . S
C1847 C1831 1.349 . S
C1847 H1839 0.950 . S
C1847 C1845 1.327 . S
C1848 C1836 1.349 . S
C1848 H1842 0.950 . S
C1848 C1849 1.327 . S
C1849 H1843 0.950 . S
C1849 C1848 1.327 . S
C1849 C1853 1.429 . S
C1850 C1833 1.574 . S
C1850 H1844 0.949 . S
C1850 C1854 1.368 . S
C1851 C1832 1.429 . S
C1851 C1845 1.429 . S
C1851 C1852 1.523 . S
C1852 C1833 1.368 . S
C1852 C1846 1.368 . S
C1852 C1851 1.523 . S
C1853 C1837 1.429 . S
C1853 C1849 1.429 . S
C1853 C1854 1.523 . S
C1854 C1838 1.368 . S
C1854 C1850 1.368 . S
C1854 C1853 1.523 . S
H1855 C1830 0.950 . S
H1856 C1832 0.950 . S
H1857 C1833 0.949 . S
H1858 C1835 0.950 . S
H1859 C1837 0.950 . S
C1860 C1861 1.349 . S
C1860 C1862 1.327 . S
C1860 H1885 0.950 . S
C1861 C1860 1.349 . S
C1861 C1877 1.349 . S
C1862 C1860 1.327 . S
C1862 C1881 1.429 . S
C1862 H1886 0.950 . S
C1863 C1880 1.574 . S
C1863 C1882 1.368 . S
C1863 H1887 0.949 . S
H1864 C1868 0.949 . S
C1865 C1866 1.349 . S
C1865 C1867 1.327 . S
C1865 H1888 0.950 . S
C1866 C1865 1.349 . S
C1866 C1878 1.349 . S
C1867 C1865 1.327 . S
C1867 C1883 1.429 . S
C1867 H1889 0.950 . S
C1868 H1864 0.949 . S
C1868 C1876 1.574 . S
C1868 C1884 1.368 . S
H1869 C1877 0.950 . S
H1870 C1875 0.950 . S
H1871 C1876 0.949 . S
H1872 C1878 0.950 . S
H1873 C1879 0.950 . S
H1874 C1880 0.949 . S
C1875 H1870 0.950 . S
C1875 C1877 1.327 . S
C1875 C1881 1.429 . S
C1876 C1868 1.574 . S
C1876 H1871 0.949 . S
C1876 C1882 1.368 . S
C1877 C1861 1.349 . S
C1877 H1869 0.950 . S
C1877 C1875 1.327 . S
C1878 C1866 1.349 . S
C1878 H1872 0.950 . S
C1878 C1879 1.327 . S
C1879 H1873 0.950 . S
C1879 C1878 1.327 . S
C1879 C1883 1.429 . S
C1880 C1863 1.574 . S
C1880 H1874 0.949 . S
C1880 C1884 1.368 . S
C1881 C1862 1.429 . S
C1881 C1875 1.429 . S
C1881 C1882 1.523 . S
C1882 C1863 1.368 . S
C1882 C1876 1.368 . S
C1882 C1881 1.523 . S
C1883 C1867 1.429 . S
C1883 C1879 1.429 . S
C1883 C1884 1.523 . S
C1884 C1868 1.368 . S
C1884 C1880 1.368 . S
C1884 C1883 1.523 . S
H1885 C1860 0.950 . S
H1886 C1862 0.950 . S
H1887 C1863 0.949 . S
H1888 C1865 0.950 . S
H1889 C1867 0.950 . S
C1890 C1891 1.349 . S
C1890 C1892 1.327 . S
C1890 H1915 0.950 . S
C1891 C1890 1.349 . S
C1891 C1907 1.349 . S
C1892 C1890 1.327 . S
C1892 C1911 1.429 . S
C1892 H1916 0.950 . S
C1893 C1910 1.574 . S
C1893 C1912 1.368 . S
C1893 H1917 0.949 . S
H1894 C1898 0.949 . S
C1895 C1896 1.349 . S
C1895 C1897 1.327 . S
C1895 H1918 0.950 . S
C1896 C1895 1.349 . S
C1896 C1908 1.349 . S
C1897 C1895 1.327 . S
C1897 C1913 1.429 . S
C1897 H1919 0.950 . S
C1898 H1894 0.949 . S
C1898 C1906 1.574 . S
C1898 C1914 1.368 . S
H1899 C1907 0.950 . S
H1900 C1905 0.950 . S
H1901 C1906 0.949 . S
H1902 C1908 0.950 . S
H1903 C1909 0.950 . S
H1904 C1910 0.949 . S
C1905 H1900 0.950 . S
C1905 C1907 1.327 . S
C1905 C1911 1.429 . S
C1906 C1898 1.574 . S
C1906 H1901 0.949 . S
C1906 C1912 1.368 . S
C1907 C1891 1.349 . S
C1907 H1899 0.950 . S
C1907 C1905 1.327 . S
C1908 C1896 1.349 . S
C1908 H1902 0.950 . S
C1908 C1909 1.327 . S
C1909 H1903 0.950 . S
C1909 C1908 1.327 . S
C1909 C1913 1.429 . S
C1910 C1893 1.574 . S
C1910 H1904 0.949 . S
C1910 C1914 1.368 . S
C1911 C1892 1.429 . S
C1911 C1905 1.429 . S
C1911 C1912 1.523 . S
C1912 C1893 1.368 . S
C1912 C1906 1.368 . S
C1912 C1911 1.523 . S
C1913 C1897 1.429 . S
C1913 C1909 1.429 . S
C1913 C1914 1.523 . S
C1914 C1898 1.368 . S
C1914 C1910 1.368 . S
C1914 C1913 1.523 . S
H1915 C1890 0.950 . S
H1916 C1892 0.950 . S
H1917 C1893 0.949 . S
H1918 C1895 0.950 . S
H1919 C1897 0.950 . S
C1920 C1921 1.349 . S
C1920 C1922 1.327 . S
C1920 H1945 0.950 . S
C1921 C1920 1.349 . S
C1921 C1937 1.349 . S
C1922 C1920 1.327 . S
C1922 C1941 1.429 . S
C1922 H1946 0.950 . S
C1923 C1940 1.574 . S
C1923 C1942 1.368 . S
C1923 H1947 0.949 . S
H1924 C1928 0.949 . S
C1925 C1926 1.349 . S
C1925 C1927 1.327 . S
C1925 H1948 0.950 . S
C1926 C1925 1.349 . S
C1926 C1938 1.349 . S
C1927 C1925 1.327 . S
C1927 C1943 1.429 . S
C1927 H1949 0.950 . S
C1928 H1924 0.949 . S
C1928 C1936 1.574 . S
C1928 C1944 1.368 . S
H1929 C1937 0.950 . S
H1930 C1935 0.950 . S
H1931 C1936 0.949 . S
H1932 C1938 0.950 . S
H1933 C1939 0.950 . S
H1934 C1940 0.949 . S
C1935 H1930 0.950 . S
C1935 C1937 1.327 . S
C1935 C1941 1.429 . S
C1936 C1928 1.574 . S
C1936 H1931 0.949 . S
C1936 C1942 1.368 . S
C1937 C1921 1.349 . S
C1937 H1929 0.950 . S
C1937 C1935 1.327 . S
C1938 C1926 1.349 . S
C1938 H1932 0.950 . S
C1938 C1939 1.327 . S
C1939 H1933 0.950 . S
C1939 C1938 1.327 . S
C1939 C1943 1.429 . S
C1940 C1923 1.574 . S
C1940 H1934 0.949 . S
C1940 C1944 1.368 . S
C1941 C1922 1.429 . S
C1941 C1935 1.429 . S
C1941 C1942 1.523 . S
C1942 C1923 1.368 . S
C1942 C1936 1.368 . S
C1942 C1941 1.523 . S
C1943 C1927 1.429 . S
C1943 C1939 1.429 . S
C1943 C1944 1.523 . S
C1944 C1928 1.368 . S
C1944 C1940 1.368 . S
C1944 C1943 1.523 . S
H1945 C1920 0.950 . S
H1946 C1922 0.950 . S
H1947 C1923 0.949 . S
H1948 C1925 0.950 . S
H1949 C1927 0.950 . S
C1950 C1951 1.349 . S
C1950 C1952 1.327 . S
C1950 H1975 0.950 . S
C1951 C1950 1.349 . S
C1951 C1967 1.349 . S
C1952 C1950 1.327 . S
C1952 C1971 1.429 . S
C1952 H1976 0.950 . S
C1953 C1970 1.574 . S
C1953 C1972 1.368 . S
C1953 H1977 0.949 . S
H1954 C1958 0.949 . S
C1955 C1956 1.349 . S
C1955 C1957 1.327 . S
C1955 H1978 0.950 . S
C1956 C1955 1.349 . S
C1956 C1968 1.349 . S
C1957 C1955 1.327 . S
C1957 C1973 1.429 . S
C1957 H1979 0.950 . S
C1958 H1954 0.949 . S
C1958 C1966 1.574 . S
C1958 C1974 1.368 . S
H1959 C1967 0.950 . S
H1960 C1965 0.950 . S
H1961 C1966 0.949 . S
H1962 C1968 0.950 . S
H1963 C1969 0.950 . S
H1964 C1970 0.949 . S
C1965 H1960 0.950 . S
C1965 C1967 1.327 . S
C1965 C1971 1.429 . S
C1966 C1958 1.574 . S
C1966 H1961 0.949 . S
C1966 C1972 1.368 . S
C1967 C1951 1.349 . S
C1967 H1959 0.950 . S
C1967 C1965 1.327 . S
C1968 C1956 1.349 . S
C1968 H1962 0.950 . S
C1968 C1969 1.327 . S
C1969 H1963 0.950 . S
C1969 C1968 1.327 . S
C1969 C1973 1.429 . S
C1970 C1953 1.574 . S
C1970 H1964 0.949 . S
C1970 C1974 1.368 . S
C1971 C1952 1.429 . S
C1971 C1965 1.429 . S
C1971 C1972 1.523 . S
C1972 C1953 1.368 . S
C1972 C1966 1.368 . S
C1972 C1971 1.523 . S
C1973 C1957 1.429 . S
C1973 C1969 1.429 . S
C1973 C1974 1.523 . S
C1974 C1958 1.368 . S
C1974 C1970 1.368 . S
C1974 C1973 1.523 . S
H1975 C1950 0.950 . S
H1976 C1952 0.950 . S
H1977 C1953 0.949 . S
H1978 C1955 0.950 . S
H1979 C1957 0.950 . S
C1980 C1981 1.349 . S
C1980 C1982 1.327 . S
C1980 H2005 0.950 . S
C1981 C1980 1.349 . S
C1981 C1997 1.349 . S
C1982 C1980 1.327 . S
C1982 C2001 1.429 . S
C1982 H2006 0.950 . S
C1983 C2000 1.574 . S
C1983 C2002 1.368 . S
C1983 H2007 0.949 . S
H1984 C1988 0.949 . S
C1985 C1986 1.349 . S
C1985 C1987 1.327 . S
C1985 H2008 0.950 . S
C1986 C1985 1.349 . S
C1986 C1998 1.349 . S
C1987 C1985 1.327 . S
C1987 C2003 1.429 . S
C1987 H2009 0.950 . S
C1988 H1984 0.949 . S
C1988 C1996 1.574 . S
C1988 C2004 1.368 . S
H1989 C1997 0.950 . S
H1990 C1995 0.950 . S
H1991 C1996 0.949 . S
H1992 C1998 0.950 . S
H1993 C1999 0.950 . S
H1994 C2000 0.949 . S
C1995 H1990 0.950 . S
C1995 C1997 1.327 . S
C1995 C2001 1.429 . S
C1996 C1988 1.574 . S
C1996 H1991 0.949 . S
C1996 C2002 1.368 . S
C1997 C1981 1.349 . S
C1997 H1989 0.950 . S
C1997 C1995 1.327 . S
C1998 C1986 1.349 . S
C1998 H1992 0.950 . S
C1998 C1999 1.327 . S
C1999 H1993 0.950 . S
C1999 C1998 1.327 . S
C1999 C2003 1.429 . S
C2000 C1983 1.574 . S
C2000 H1994 0.949 . S
C2000 C2004 1.368 . S
C2001 C1982 1.429 . S
C2001 C1995 1.429 . S
C2001 C2002 1.523 . S
C2002 C1983 1.368 . S
C2002 C1996 1.368 . S
C2002 C2001 1.523 . S
C2003 C1987 1.429 . S
C2003 C1999 1.429 . S
C2003 C2004 1.523 . S
C2004 C1988 1.368 . S
C2004 C2000 1.368 . S
C2004 C2003 1.523 . S
H2005 C1980 0.950 . S
H2006 C1982 0.950 . S
H2007 C1983 0.949 . S
H2008 C1985 0.950 . S
H2009 C1987 0.950 . S
C2010 C2011 1.349 . S
C2010 C2012 1.327 . S
C2010 H2035 0.950 . S
C2011 C2010 1.349 . S
C2011 C2027 1.349 . S
C2012 C2010 1.327 . S
C2012 C2031 1.429 . S
C2012 H2036 0.950 . S
C2013 C2030 1.574 . S
C2013 C2032 1.368 . S
C2013 H2037 0.949 . S
H2014 C2018 0.949 . S
C2015 C2016 1.349 . S
C2015 C2017 1.327 . S
C2015 H2038 0.950 . S
C2016 C2015 1.349 . S
C2016 C2028 1.349 . S
C2017 C2015 1.327 . S
C2017 C2033 1.429 . S
C2017 H2039 0.950 . S
C2018 H2014 0.949 . S
C2018 C2026 1.574 . S
C2018 C2034 1.368 . S
H2019 C2027 0.950 . S
H2020 C2025 0.950 . S
H2021 C2026 0.949 . S
H2022 C2028 0.950 . S
H2023 C2029 0.950 . S
H2024 C2030 0.949 . S
C2025 H2020 0.950 . S
C2025 C2027 1.327 . S
C2025 C2031 1.429 . S
C2026 C2018 1.574 . S
C2026 H2021 0.949 . S
C2026 C2032 1.368 . S
C2027 C2011 1.349 . S
C2027 H2019 0.950 . S
C2027 C2025 1.327 . S
C2028 C2016 1.349 . S
C2028 H2022 0.950 . S
C2028 C2029 1.327 . S
C2029 H2023 0.950 . S
C2029 C2028 1.327 . S
C2029 C2033 1.429 . S
C2030 C2013 1.574 . S
C2030 H2024 0.949 . S
C2030 C2034 1.368 . S
C2031 C2012 1.429 . S
C2031 C2025 1.429 . S
C2031 C2032 1.523 . S
C2032 C2013 1.368 . S
C2032 C2026 1.368 . S
C2032 C2031 1.523 . S
C2033 C2017 1.429 . S
C2033 C2029 1.429 . S
C2033 C2034 1.523 . S
C2034 C2018 1.368 . S
C2034 C2030 1.368 . S
C2034 C2033 1.523 . S
H2035 C2010 0.950 . S
H2036 C2012 0.950 . S
H2037 C2013 0.949 . S
H2038 C2015 0.950 . S
H2039 C2017 0.950 . S
C2040 C2041 1.349 . S
C2040 C2042 1.327 . S
C2040 H2065 0.950 . S
C2041 C2040 1.349 . S
C2041 C2057 1.349 . S
C2042 C2040 1.327 . S
C2042 C2061 1.429 . S
C2042 H2066 0.950 . S
C2043 C2060 1.574 . S
C2043 C2062 1.368 . S
C2043 H2067 0.949 . S
H2044 C2048 0.949 . S
C2045 C2046 1.349 . S
C2045 C2047 1.327 . S
C2045 H2068 0.950 . S
C2046 C2045 1.349 . S
C2046 C2058 1.349 . S
C2047 C2045 1.327 . S
C2047 C2063 1.429 . S
C2047 H2069 0.950 . S
C2048 H2044 0.949 . S
C2048 C2056 1.574 . S
C2048 C2064 1.368 . S
H2049 C2057 0.950 . S
H2050 C2055 0.950 . S
H2051 C2056 0.949 . S
H2052 C2058 0.950 . S
H2053 C2059 0.950 . S
H2054 C2060 0.949 . S
C2055 H2050 0.950 . S
C2055 C2057 1.327 . S
C2055 C2061 1.429 . S
C2056 C2048 1.574 . S
C2056 H2051 0.949 . S
C2056 C2062 1.368 . S
C2057 C2041 1.349 . S
C2057 H2049 0.950 . S
C2057 C2055 1.327 . S
C2058 C2046 1.349 . S
C2058 H2052 0.950 . S
C2058 C2059 1.327 . S
C2059 H2053 0.950 . S
C2059 C2058 1.327 . S
C2059 C2063 1.429 . S
C2060 C2043 1.574 . S
C2060 H2054 0.949 . S
C2060 C2064 1.368 . S
C2061 C2042 1.429 . S
C2061 C2055 1.429 . S
C2061 C2062 1.523 . S
C2062 C2043 1.368 . S
C2062 C2056 1.368 . S
C2062 C2061 1.523 . S
C2063 C2047 1.429 . S
C2063 C2059 1.429 . S
C2063 C2064 1.523 . S
C2064 C2048 1.368 . S
C2064 C2060 1.368 . S
C2064 C2063 1.523 . S
H2065 C2040 0.950 . S
H2066 C2042 0.950 . S
H2067 C2043 0.949 . S
H2068 C2045 0.950 . S
H2069 C2047 0.950 . S
C2070 C2071 1.349 . S
C2070 C2072 1.327 . S
C2070 H2095 0.950 . S
C2071 C2070 1.349 . S
C2071 C2087 1.349 . S
C2072 C2070 1.327 . S
C2072 C2091 1.429 . S
C2072 H2096 0.950 . S
C2073 C2090 1.574 . S
C2073 C2092 1.368 . S
C2073 H2097 0.949 . S
H2074 C2078 0.949 . S
C2075 C2076 1.369 . S
C2075 C2077 1.299 1_455 S
C2075 H2098 0.959 . S
C2076 C2075 1.369 . S
C2076 C2088 1.349 1_455 S
C2077 C2075 1.299 1_655 S
C2077 C2093 1.429 . S
C2077 H2099 0.950 . S
C2078 H2074 0.949 . S
C2078 C2086 1.574 . S
C2078 C2094 1.368 . S
H2079 C2087 0.950 . S
H2080 C2085 0.950 . S
H2081 C2086 0.949 . S
H2082 C2088 0.950 . S
H2083 C2089 0.950 . S
H2084 C2090 0.949 . S
C2085 H2080 0.950 . S
C2085 C2087 1.327 . S
C2085 C2091 1.429 . S
C2086 C2078 1.574 . S
C2086 H2081 0.949 . S
C2086 C2092 1.368 . S
C2087 C2071 1.349 . S
C2087 H2079 0.950 . S
C2087 C2085 1.327 . S
C2088 C2076 1.349 1_655 S
C2088 H2082 0.950 . S
C2088 C2089 1.327 . S
C2089 H2083 0.950 . S
C2089 C2088 1.327 . S
C2089 C2093 1.429 . S
C2090 C2073 1.574 . S
C2090 H2084 0.949 . S
C2090 C2094 1.368 . S
C2091 C2072 1.429 . S
C2091 C2085 1.429 . S
C2091 C2092 1.523 . S
C2092 C2073 1.368 . S
C2092 C2086 1.368 . S
C2092 C2091 1.523 . S
C2093 C2077 1.429 . S
C2093 C2089 1.429 . S
C2093 C2094 1.523 . S
C2094 C2078 1.368 . S
C2094 C2090 1.368 . S
C2094 C2093 1.523 . S
H2095 C2070 0.950 . S
H2096 C2072 0.950 . S
H2097 C2073 0.949 . S
H2098 C2075 0.959 . S
H2099 C2077 0.950 . S
C2100 C2101 1.349 . S
C2100 C2102 1.327 1_565 S
C2100 H2125 0.950 . S
C2101 C2100 1.349 . S
C2101 C2117 1.349 . S
C2102 C2100 1.327 1_545 S
C2102 C2121 1.429 . S
C2102 H2126 0.950 . S
C2103 C2120 1.574 . S
C2103 C2122 1.368 . S
C2103 H2127 0.949 . S
H2104 C2108 0.949 . S
C2105 C2106 1.349 . S
C2105 C2107 1.327 . S
C2105 H2128 0.950 . S
C2106 C2105 1.349 . S
C2106 C2118 1.349 . S
C2107 C2105 1.327 . S
C2107 C2123 1.429 . S
C2107 H2129 0.950 . S
C2108 H2104 0.949 . S
C2108 C2116 1.574 . S
C2108 C2124 1.368 . S
H2109 C2117 0.950 . S
H2110 C2115 0.950 . S
H2111 C2116 0.949 . S
H2112 C2118 0.950 . S
H2113 C2119 0.950 . S
H2114 C2120 0.949 . S
C2115 H2110 0.950 . S
C2115 C2117 1.327 . S
C2115 C2121 1.429 1_565 S
C2116 C2108 1.574 . S
C2116 H2111 0.949 . S
C2116 C2122 1.368 . S
C2117 C2101 1.349 . S
C2117 H2109 0.950 . S
C2117 C2115 1.327 . S
C2118 C2106 1.349 . S
C2118 H2112 0.950 . S
C2118 C2119 1.327 . S
C2119 H2113 0.950 . S
C2119 C2118 1.327 . S
C2119 C2123 1.429 . S
C2120 C2103 1.574 . S
C2120 H2114 0.949 . S
C2120 C2124 1.368 . S
C2121 C2102 1.429 . S
C2121 C2115 1.429 1_545 S
C2121 C2122 1.523 . S
C2122 C2103 1.368 . S
C2122 C2116 1.368 . S
C2122 C2121 1.523 . S
C2123 C2107 1.429 . S
C2123 C2119 1.429 . S
C2123 C2124 1.523 . S
C2124 C2108 1.368 . S
C2124 C2120 1.368 . S
C2124 C2123 1.523 . S
H2125 C2100 0.950 . S
H2126 C2102 0.950 . S
H2127 C2103 0.949 . S
H2128 C2105 0.950 . S
H2129 C2107 0.950 . S
C2130 C2131 1.349 . S
C2130 C2132 1.327 . S
C2130 H2155 0.950 . S
C2131 C2130 1.349 . S
C2131 C2147 1.349 . S
C2132 C2130 1.327 . S
C2132 C2151 1.429 . S
C2132 H2156 0.950 . S
C2133 C2150 1.574 . S
C2133 C2152 1.368 . S
C2133 H2157 0.949 . S
H2134 C2138 0.949 1_455 S
C2135 C2136 1.349 . S
C2135 C2137 1.327 . S
C2135 H2158 0.950 . S
C2136 C2135 1.349 . S
C2136 C2148 1.349 . S
C2137 C2135 1.327 . S
C2137 C2153 1.429 . S
C2137 H2159 0.950 . S
C2138 H2134 0.949 1_655 S
C2138 C2146 1.574 . S
C2138 C2154 1.372 1_655 S
H2139 C2147 0.950 . S
H2140 C2145 0.950 . S
H2141 C2146 0.949 . S
H2142 C2148 0.950 . S
H2143 C2149 0.950 . S
H2144 C2150 0.949 . S
C2145 H2140 0.950 . S
C2145 C2147 1.327 . S
C2145 C2151 1.429 . S
C2146 C2138 1.574 . S
C2146 H2141 0.949 . S
C2146 C2152 1.368 . S
C2147 C2131 1.349 . S
C2147 H2139 0.950 . S
C2147 C2145 1.327 . S
C2148 C2136 1.349 . S
C2148 H2142 0.950 . S
C2148 C2149 1.327 . S
C2149 H2143 0.950 . S
C2149 C2148 1.327 . S
C2149 C2153 1.429 . S
C2150 C2133 1.574 . S
C2150 H2144 0.949 . S
C2150 C2154 1.361 1_655 S
C2151 C2132 1.429 . S
C2151 C2145 1.429 . S
C2151 C2152 1.523 . S
C2152 C2133 1.368 . S
C2152 C2146 1.368 . S
C2152 C2151 1.523 . S
C2153 C2137 1.429 . S
C2153 C2149 1.429 . S
C2153 C2154 1.528 . S
C2154 C2138 1.372 1_455 S
C2154 C2150 1.361 1_455 S
C2154 C2153 1.528 . S
H2155 C2130 0.950 . S
H2156 C2132 0.950 . S
H2157 C2133 0.949 . S
H2158 C2135 0.950 . S
H2159 C2137 0.950 . S
C2160 C2161 1.349 . S
C2160 C2162 1.327 . S
C2160 H2185 0.950 . S
C2161 C2160 1.349 . S
C2161 C2177 1.349 . S
C2162 C2160 1.327 . S
C2162 C2181 1.429 . S
C2162 H2186 0.950 . S
C2163 C2180 1.574 . S
C2163 C2182 1.368 . S
C2163 H2187 0.949 . S
H2164 C2168 0.949 . S
C2165 C2166 1.349 1_565 S
C2165 C2167 1.327 . S
C2165 H2188 0.950 . S
C2166 C2165 1.349 1_545 S
C2166 C2178 1.349 . S
C2167 C2165 1.327 . S
C2167 C2183 1.429 . S
C2167 H2189 0.950 . S
C2168 H2164 0.949 . S
C2168 C2176 1.574 . S
C2168 C2184 1.368 . S
H2169 C2177 0.950 . S
H2170 C2175 0.950 . S
H2171 C2176 0.949 . S
H2172 C2178 0.950 . S
H2173 C2179 0.950 . S
H2174 C2180 0.949 . S
C2175 H2170 0.950 . S
C2175 C2177 1.327 . S
C2175 C2181 1.429 . S
C2176 C2168 1.574 . S
C2176 H2171 0.949 . S
C2176 C2182 1.368 . S
C2177 C2161 1.349 . S
C2177 H2169 0.950 . S
C2177 C2175 1.327 . S
C2178 C2166 1.349 . S
C2178 H2172 0.950 . S
C2178 C2179 1.327 1_545 S
C2179 H2173 0.950 . S
C2179 C2178 1.327 1_565 S
C2179 C2183 1.429 . S
C2180 C2163 1.574 . S
C2180 H2174 0.949 . S
C2180 C2184 1.368 . S
C2181 C2162 1.429 . S
C2181 C2175 1.429 . S
C2181 C2182 1.523 . S
C2182 C2163 1.368 . S
C2182 C2176 1.368 . S
C2182 C2181 1.523 . S
C2183 C2167 1.429 . S
C2183 C2179 1.429 . S
C2183 C2184 1.523 . S
C2184 C2168 1.368 . S
C2184 C2180 1.368 . S
C2184 C2183 1.523 . S
H2185 C2160 0.950 . S
H2186 C2162 0.950 . S
H2187 C2163 0.949 . S
H2188 C2165 0.950 . S
H2189 C2167 0.950 . S
C2190 C2191 1.349 . S
C2190 C2192 1.327 . S
C2190 H2215 0.950 . S
C2191 C2190 1.349 . S
C2191 C2207 1.349 . S
C2192 C2190 1.327 . S
C2192 C2211 1.429 . S
C2192 H2216 0.950 . S
C2193 C2210 1.574 1_545 S
C2193 C2212 1.377 . S
C2193 H2217 0.949 . S
H2194 C2198 0.949 . S
C2195 C2196 1.349 . S
C2195 C2197 1.327 . S
C2195 H2218 0.950 . S
C2196 C2195 1.349 . S
C2196 C2208 1.349 . S
C2197 C2195 1.327 . S
C2197 C2213 1.429 . S
C2197 H2219 0.950 . S
C2198 H2194 0.949 . S
C2198 C2206 1.574 . S
C2198 C2214 1.368 . S
H2199 C2207 0.950 . S
H2200 C2205 0.950 . S
H2201 C2206 0.949 . S
H2202 C2208 0.950 . S
H2203 C2209 0.950 . S
H2204 C2210 0.949 . S
C2205 H2200 0.950 . S
C2205 C2207 1.327 . S
C2205 C2211 1.429 . S
C2206 C2198 1.574 . S
C2206 H2201 0.949 . S
C2206 C2212 1.356 1_565 S
C2207 C2191 1.349 . S
C2207 H2199 0.950 . S
C2207 C2205 1.327 . S
C2208 C2196 1.349 . S
C2208 H2202 0.950 . S
C2208 C2209 1.327 . S
C2209 H2203 0.950 . S
C2209 C2208 1.327 . S
C2209 C2213 1.429 . S
C2210 C2193 1.574 1_565 S
C2210 H2204 0.949 . S
C2210 C2214 1.368 . S
C2211 C2192 1.429 . S
C2211 C2205 1.429 . S
C2211 C2212 1.528 . S
C2212 C2193 1.377 . S
C2212 C2206 1.356 1_545 S
C2212 C2211 1.528 . S
C2213 C2197 1.429 . S
C2213 C2209 1.429 . S
C2213 C2214 1.523 . S
C2214 C2198 1.368 . S
C2214 C2210 1.368 . S
C2214 C2213 1.523 . S
H2215 C2190 0.950 . S
H2216 C2192 0.950 . S
H2217 C2193 0.949 . S
H2218 C2195 0.950 . S
H2219 C2197 0.950 . S
C2220 C2221 1.349 . S
C2220 C2222 1.327 . S
C2220 H2245 0.950 . S
C2221 C2220 1.349 . S
C2221 C2237 1.349 . S
C2222 C2220 1.327 . S
C2222 C2241 1.429 . S
C2222 H2246 0.950 . S
C2223 C2240 1.574 . S
C2223 C2242 1.368 . S
C2223 H2247 0.949 . S
H2224 C2228 0.949 . S
C2225 C2226 1.349 . S
C2225 C2227 1.327 . S
C2225 H2248 0.950 . S
C2226 C2225 1.349 . S
C2226 C2238 1.349 . S
C2227 C2225 1.327 . S
C2227 C2243 1.429 1_655 S
C2227 H2249 0.950 . S
C2228 H2224 0.949 . S
C2228 C2236 1.574 . S
C2228 C2244 1.368 . S
H2229 C2237 0.950 . S
H2230 C2235 0.950 . S
H2231 C2236 0.949 . S
H2232 C2238 0.950 . S
H2233 C2239 0.950 . S
H2234 C2240 0.949 . S
C2235 H2230 0.950 . S
C2235 C2237 1.327 . S
C2235 C2241 1.429 . S
C2236 C2228 1.574 . S
C2236 H2231 0.949 . S
C2236 C2242 1.368 . S
C2237 C2221 1.349 . S
C2237 H2229 0.950 . S
C2237 C2235 1.327 . S
C2238 C2226 1.349 . S
C2238 H2232 0.950 . S
C2238 C2239 1.327 1_655 S
C2239 H2233 0.950 . S
C2239 C2238 1.327 1_455 S
C2239 C2243 1.429 . S
C2240 C2223 1.574 . S
C2240 H2234 0.949 . S
C2240 C2244 1.368 . S
C2241 C2222 1.429 . S
C2241 C2235 1.429 . S
C2241 C2242 1.523 . S
C2242 C2223 1.368 . S
C2242 C2236 1.368 . S
C2242 C2241 1.523 . S
C2243 C2227 1.429 1_455 S
C2243 C2239 1.429 . S
C2243 C2244 1.523 . S
C2244 C2228 1.368 . S
C2244 C2240 1.368 . S
C2244 C2243 1.523 . S
H2245 C2220 0.950 . S
H2246 C2222 0.950 . S
H2247 C2223 0.949 . S
H2248 C2225 0.950 . S
H2249 C2227 0.950 . S
C2250 C2251 1.349 . S
C2250 C2252 1.327 . S
C2250 H2275 0.950 . S
C2251 C2250 1.349 . S
C2251 C2267 1.349 . S
C2252 C2250 1.327 . S
C2252 C2271 1.429 . S
C2252 H2276 0.950 . S
C2253 C2270 1.574 . S
C2253 C2272 1.368 . S
C2253 H2277 0.949 . S
H2254 C2258 0.949 . S
C2255 C2256 1.349 . S
C2255 C2257 1.327 . S
C2255 H2278 0.950 . S
C2256 C2255 1.349 . S
C2256 C2268 1.349 . S
C2257 C2255 1.327 . S
C2257 C2273 1.429 . S
C2257 H2279 0.950 . S
C2258 H2254 0.949 . S
C2258 C2266 1.574 . S
C2258 C2274 1.368 . S
H2259 C2267 0.950 . S
H2260 C2265 0.950 . S
H2261 C2266 0.949 . S
H2262 C2268 0.950 . S
H2263 C2269 0.950 . S
H2264 C2270 0.949 . S
C2265 H2260 0.950 . S
C2265 C2267 1.327 . S
C2265 C2271 1.429 . S
C2266 C2258 1.574 . S
C2266 H2261 0.949 . S
C2266 C2272 1.368 . S
C2267 C2251 1.349 . S
C2267 H2259 0.950 . S
C2267 C2265 1.327 . S
C2268 C2256 1.349 . S
C2268 H2262 0.950 . S
C2268 C2269 1.327 . S
C2269 H2263 0.950 . S
C2269 C2268 1.327 . S
C2269 C2273 1.429 . S
C2270 C2253 1.574 . S
C2270 H2264 0.949 . S
C2270 C2274 1.368 . S
C2271 C2252 1.429 . S
C2271 C2265 1.429 . S
C2271 C2272 1.523 . S
C2272 C2253 1.368 . S
C2272 C2266 1.368 . S
C2272 C2271 1.523 . S
C2273 C2257 1.429 . S
C2273 C2269 1.429 . S
C2273 C2274 1.523 . S
C2274 C2258 1.368 . S
C2274 C2270 1.368 . S
C2274 C2273 1.523 . S
H2275 C2250 0.950 . S
H2276 C2252 0.950 . S
H2277 C2253 0.949 . S
H2278 C2255 0.950 . S
H2279 C2257 0.950 . S
C2280 C2281 1.349 . S
C2280 C2282 1.327 . S
C2280 H2305 0.950 . S
C2281 C2280 1.349 . S
C2281 C2297 1.349 . S
C2282 C2280 1.327 . S
C2282 C2301 1.429 . S
C2282 H2306 0.950 . S
C2283 C2300 1.574 . S
C2283 C2302 1.368 . S
C2283 H2307 0.949 . S
H2284 C2288 0.949 . S
C2285 C2286 1.349 . S
C2285 C2287 1.327 . S
C2285 H2308 0.950 . S
C2286 C2285 1.349 . S
C2286 C2298 1.349 . S
C2287 C2285 1.327 . S
C2287 C2303 1.429 . S
C2287 H2309 0.950 . S
C2288 H2284 0.949 . S
C2288 C2296 1.574 . S
C2288 C2304 1.368 . S
H2289 C2297 0.950 . S
H2290 C2295 0.950 . S
H2291 C2296 0.949 . S
H2292 C2298 0.950 . S
H2293 C2299 0.950 . S
H2294 C2300 0.949 . S
C2295 H2290 0.950 . S
C2295 C2297 1.327 . S
C2295 C2301 1.429 . S
C2296 C2288 1.574 . S
C2296 H2291 0.949 . S
C2296 C2302 1.368 . S
C2297 C2281 1.349 . S
C2297 H2289 0.950 . S
C2297 C2295 1.327 . S
C2298 C2286 1.349 . S
C2298 H2292 0.950 . S
C2298 C2299 1.327 . S
C2299 H2293 0.950 . S
C2299 C2298 1.327 . S
C2299 C2303 1.429 . S
C2300 C2283 1.574 . S
C2300 H2294 0.949 . S
C2300 C2304 1.368 . S
C2301 C2282 1.429 . S
C2301 C2295 1.429 . S
C2301 C2302 1.523 . S
C2302 C2283 1.368 . S
C2302 C2296 1.368 . S
C2302 C2301 1.523 . S
C2303 C2287 1.429 . S
C2303 C2299 1.429 . S
C2303 C2304 1.523 . S
C2304 C2288 1.368 . S
C2304 C2300 1.368 . S
C2304 C2303 1.523 . S
H2305 C2280 0.950 . S
H2306 C2282 0.950 . S
H2307 C2283 0.949 . S
H2308 C2285 0.950 . S
H2309 C2287 0.950 . S
C2310 C2311 1.349 . S
C2310 C2312 1.327 . S
C2310 H2335 0.950 . S
C2311 C2310 1.349 . S
C2311 C2327 1.349 . S
C2312 C2310 1.327 . S
C2312 C2331 1.429 . S
C2312 H2336 0.950 . S
C2313 C2330 1.574 . S
C2313 C2332 1.368 . S
C2313 H2337 0.949 . S
H2314 C2318 0.949 . S
C2315 C2316 1.349 . S
C2315 C2317 1.327 . S
C2315 H2338 0.950 . S
C2316 C2315 1.349 . S
C2316 C2328 1.349 . S
C2317 C2315 1.327 . S
C2317 C2333 1.429 . S
C2317 H2339 0.950 . S
C2318 H2314 0.949 . S
C2318 C2326 1.574 . S
C2318 C2334 1.368 . S
H2319 C2327 0.950 . S
H2320 C2325 0.950 . S
H2321 C2326 0.949 . S
H2322 C2328 0.950 . S
H2323 C2329 0.950 . S
H2324 C2330 0.949 . S
C2325 H2320 0.950 . S
C2325 C2327 1.327 . S
C2325 C2331 1.429 . S
C2326 C2318 1.574 . S
C2326 H2321 0.949 . S
C2326 C2332 1.368 . S
C2327 C2311 1.349 . S
C2327 H2319 0.950 . S
C2327 C2325 1.327 . S
C2328 C2316 1.349 . S
C2328 H2322 0.950 . S
C2328 C2329 1.327 . S
C2329 H2323 0.950 . S
C2329 C2328 1.327 . S
C2329 C2333 1.429 . S
C2330 C2313 1.574 . S
C2330 H2324 0.949 . S
C2330 C2334 1.368 . S
C2331 C2312 1.429 . S
C2331 C2325 1.429 . S
C2331 C2332 1.523 . S
C2332 C2313 1.368 . S
C2332 C2326 1.368 . S
C2332 C2331 1.523 . S
C2333 C2317 1.429 . S
C2333 C2329 1.429 . S
C2333 C2334 1.523 . S
C2334 C2318 1.368 . S
C2334 C2330 1.368 . S
C2334 C2333 1.523 . S
H2335 C2310 0.950 . S
H2336 C2312 0.950 . S
H2337 C2313 0.949 . S
H2338 C2315 0.950 . S
H2339 C2317 0.950 . S
C721 C19 1.085 . S
C726 C95 1.117 . S
C751 C15 1.117 . S
C756 C59 1.085 . S
C781 C55 1.117 . S
C786 C99 1.085 . S
C811 C139 1.085 . S
C816 C175 1.117 . S
C841 C215 1.117 . S
C846 C179 1.085 . S
C871 C219 1.085 . S
C876 C135 1.117 . S
C901 C335 1.117 . S
C906 C259 1.085 . S
C931 C255 1.117 . S
C936 C299 1.085 . S
C961 C339 1.085 . S
C966 C295 1.117 . S
C991 C415 1.117 . S
C996 C379 1.085 . S
C1021 C419 1.085 . S
C1026 C455 1.117 . S
C1051 C375 1.117 . S
C1056 C459 1.085 . S
C1081 C499 1.085 . S
C1086 C575 1.117 . S
C1111 C495 1.117 . S
C1116 C539 1.085 . S
C1141 C535 1.117 . S
C1146 C579 1.085 . S
C1171 C655 1.117 . S
C1176 C619 1.085 . S
C1201 C695 1.117 . S
C1206 C659 1.085 . S
C1231 C615 1.117 . S
C1236 C699 1.085 . S
C1261 C18 1.706 . S
C1266 C218 1.706 . S
C1291 C138 1.706 . S
C1296 C58 1.706 . S
C1321 C178 1.706 . S
C1326 C98 1.706 . S
C1351 C258 1.706 . S
C1356 C458 1.706 . S
C1381 C298 1.706 . S
C1386 C378 1.706 . S
C1411 C418 1.706 . S
C1416 C338 1.706 . S
C1441 C498 1.706 . S
C1446 C698 1.706 . S
C1471 C618 1.706 . S
C1476 C538 1.706 . S
C1501 C658 1.706 . S
C1506 C578 1.706 . S
C1531 C409 2.258 . S
C1536 C9 2.258 1_565 S
C1561 C49 2.258 . S
C1566 C449 2.258 . S
C1591 C369 2.258 . S
C1596 C89 2.258 . S
C1621 C129 2.258 1_655 S
C1626 C569 2.258 . S
C1651 C169 2.258 . S
C1656 C489 2.258 . S
C1681 C529 2.258 . S
C1686 C209 2.258 . S
C1711 C649 2.258 . S
C1716 C249 2.258 . S
C1741 C289 2.258 . S
C1746 C689 2.258 . S
C1771 C329 2.258 . S
C1776 C609 2.258 . S
C1801 C86 1.838 . S
C1806 C10 1.837 . S
C1831 C6 1.838 . S
C1836 C50 1.837 . S
C1861 C90 1.837 . S
C1866 C46 1.838 . S
C1891 C166 1.838 . S
C1896 C130 1.837 . S
C1921 C206 1.838 . S
C1926 C170 1.837 . S
C1951 C210 1.837 . S
C1956 C126 1.838 . S
C1981 C326 1.838 . S
C1986 C250 1.837 . S
C2011 C290 1.837 . S
C2016 C246 1.838 . S
C2041 C286 1.838 . S
C2046 C330 1.837 . S
C2071 C370 1.837 . S
C2076 C406 1.838 . S
C2101 C410 1.837 . S
C2106 C446 1.838 . S
C2131 C366 1.838 1_545 S
C2136 C450 1.837 . S
C2161 C490 1.837 . S
C2166 C566 1.838 . S
C2191 C530 1.837 . S
C2196 C486 1.838 1_455 S
C2221 C526 1.838 . S
C2226 C570 1.837 . S
C2251 C610 1.837 . S
C2256 C646 1.838 . S
C2281 C650 1.837 . S
C2286 C686 1.838 . S
C2311 C606 1.838 . S
C2316 C690 1.837 . S
