# Generated by pormake.
# Topology uol, (4)-cn, num edge types: 1
# Building blocks:
#     Node 0, Type 0, BuildingBlock: KUFVIS_clean_sbu_0, # of connection points: 4
#     Node 1, Type 0, BuildingBlock: KUFVIS_clean_sbu_0, # of connection points: 4
#     Node 2, Type 0, BuildingBlock: KUFVIS_clean_sbu_0, # of connection points: 4
#     Node 3, Type 0, BuildingBlock: KUFVIS_clean_sbu_0, # of connection points: 4
#     Node 4, Type 0, BuildingBlock: KUFVIS_clean_sbu_0, # of connection points: 4
#     Node 5, Type 0, BuildingBlock: KUFVIS_clean_sbu_0, # of connection points: 4
#     Node 6, Type 0, BuildingBlock: KUFVIS_clean_sbu_0, # of connection points: 4
#     Node 7, Type 0, BuildingBlock: KUFVIS_clean_sbu_0, # of connection points: 4
#     Node 8, Type 0, BuildingBlock: KUFVIS_clean_sbu_0, # of connection points: 4
#     Node 9, Type 0, BuildingBlock: KUFVIS_clean_sbu_0, # of connection points: 4
#     Node 10, Type 0, BuildingBlock: KUFVIS_clean_sbu_0, # of connection points: 4
#     Node 11, Type 0, BuildingBlock: KUFVIS_clean_sbu_0, # of connection points: 4
#     Edge 12, Type (0, 0), BuildingBlock: XUDNAN_clean_linker_2, # of connection points: 2
#     Edge 13, Type (0, 0), BuildingBlock: XUDNAN_clean_linker_2, # of connection points: 2
#     Edge 14, Type (0, 0), BuildingBlock: XUDNAN_clean_linker_2, # of connection points: 2
#     Edge 15, Type (0, 0), BuildingBlock: XUDNAN_clean_linker_2, # of connection points: 2
#     Edge 16, Type (0, 0), BuildingBlock: XUDNAN_clean_linker_2, # of connection points: 2
#     Edge 17, Type (0, 0), BuildingBlock: XUDNAN_clean_linker_2, # of connection points: 2
#     Edge 18, Type (0, 0), BuildingBlock: XUDNAN_clean_linker_2, # of connection points: 2
#     Edge 19, Type (0, 0), BuildingBlock: XUDNAN_clean_linker_2, # of connection points: 2
#     Edge 20, Type (0, 0), BuildingBlock: XUDNAN_clean_linker_2, # of connection points: 2
#     Edge 21, Type (0, 0), BuildingBlock: XUDNAN_clean_linker_2, # of connection points: 2
#     Edge 22, Type (0, 0), BuildingBlock: XUDNAN_clean_linker_2, # of connection points: 2
#     Edge 23, Type (0, 0), BuildingBlock: XUDNAN_clean_linker_2, # of connection points: 2
#     Edge 24, Type (0, 0), BuildingBlock: XUDNAN_clean_linker_2, # of connection points: 2
#     Edge 25, Type (0, 0), BuildingBlock: XUDNAN_clean_linker_2, # of connection points: 2
#     Edge 26, Type (0, 0), BuildingBlock: XUDNAN_clean_linker_2, # of connection points: 2
#     Edge 27, Type (0, 0), BuildingBlock: XUDNAN_clean_linker_2, # of connection points: 2
#     Edge 28, Type (0, 0), BuildingBlock: XUDNAN_clean_linker_2, # of connection points: 2
#     Edge 29, Type (0, 0), BuildingBlock: XUDNAN_clean_linker_2, # of connection points: 2
#     Edge 30, Type (0, 0), BuildingBlock: XUDNAN_clean_linker_2, # of connection points: 2
#     Edge 31, Type (0, 0), BuildingBlock: XUDNAN_clean_linker_2, # of connection points: 2
#     Edge 32, Type (0, 0), BuildingBlock: XUDNAN_clean_linker_2, # of connection points: 2
#     Edge 33, Type (0, 0), BuildingBlock: XUDNAN_clean_linker_2, # of connection points: 2
#     Edge 34, Type (0, 0), BuildingBlock: XUDNAN_clean_linker_2, # of connection points: 2
#     Edge 35, Type (0, 0), BuildingBlock: XUDNAN_clean_linker_2, # of connection points: 2
# Relax obj value: 0.141
# Max RMSD: 0.196
# Mean RMSD: 0.196
data_MOF--net-uol--node1-KUFVIS_clean_sbu_0--edge1-XUDNAN_clean_linker_2
_symmetry_space_group_name_H-M    P1
_symmetry_Int_Tables_number       1
_symmetry_cell_setting            triclinic
loop_
_symmetry_equiv_pos_as_xyz
'x, y, z'
_cell_length_a     31.941055
_cell_length_b     31.934587
_cell_length_c     68.121271
_cell_angle_alpha  90.007246
_cell_angle_beta   90.035848
_cell_angle_gamma 119.99659
loop_
_atom_site_label
_atom_site_type_symbol
_atom_site_fract_x
_atom_site_fract_y
_atom_site_fract_z
_atom_type_partial_charge
Mn0 Mn 0.13772 0.33372 0.10282 0.0
Mn1 Mn 0.15892 0.39613 0.14497 0.0
C2 C 0.17676 0.31874 0.12783 0.0
C3 C 0.16234 0.335 0.07062 0.0
C4 C 0.06091 0.31115 0.13363 0.0
O5 O 0.12401 0.3874 0.09637 0.0
O6 O 0.1524 0.43444 0.12319 0.0
C7 C 0.25552 0.47955 0.13623 0.0
N8 N 0.22632 0.44129 0.14788 0.0
C9 C 0.29212 0.45857 0.16981 0.0
C10 C 0.32283 0.49839 0.15813 0.0
C11 C 0.30445 0.50886 0.14124 0.0
C12 C 0.24363 0.43082 0.16413 0.0
H13 H 0.24157 0.48756 0.12318 0.0
C14 C 0.13614 0.42653 0.10556 0.0
O15 O 0.11764 0.30652 0.07576 0.0
O16 O 0.19239 0.36159 0.08416 0.0
N17 N 0.16646 0.36398 0.16728 0.0
C18 C 0.13262 0.3231 0.17652 0.0
C19 C 0.1455 0.30694 0.19341 0.0
C20 C 0.19287 0.33314 0.20074 0.0
C21 C 0.22685 0.37554 0.1912 0.0
C22 C 0.21182 0.39012 0.17451 0.0
H23 H 0.09612 0.30275 0.17103 0.0
O24 O 0.15829 0.28875 0.11327 0.0
O25 O 0.17424 0.35818 0.12671 0.0
O26 O 0.07428 0.29801 0.11826 0.0
O27 O 0.0889 0.34924 0.14345 0.0
C28 C 0.2753 0.40339 0.19736 0.0
C29 C 0.30793 0.44481 0.18666 0.0
H30 H 0.36065 0.52093 0.16188 0.0
H31 H 0.32798 0.53937 0.13209 0.0
H32 H 0.119 0.27427 0.20072 0.0
H33 H 0.2028 0.32024 0.21364 0.0
H34 H 0.28801 0.39288 0.21016 0.0
H35 H 0.34524 0.46556 0.19139 0.0
Mn36 Mn 0.79832 0.1129 0.26684 0.0
Mn37 Mn 0.75781 0.13469 0.30927 0.0
C38 C 0.85059 0.14368 0.29298 0.0
C39 C 0.82779 0.13787 0.23518 0.0
C40 C 0.73917 0.0353 0.29729 0.0
O41 O 0.73437 0.10674 0.25937 0.0
O42 O 0.71373 0.12887 0.28732 0.0
C43 C 0.77427 0.23213 0.29961 0.0
N44 N 0.78175 0.2025 0.31169 0.0
C45 C 0.8252 0.26685 0.33484 0.0
C46 C 0.81788 0.29807 0.3227 0.0
C47 C 0.7926 0.28071 0.30493 0.0
C48 C 0.80704 0.21911 0.32855 0.0
H49 H 0.75428 0.2187 0.28608 0.0
C50 C 0.70654 0.11646 0.26922 0.0
O51 O 0.80487 0.09238 0.23991 0.0
O52 O 0.83291 0.16856 0.24877 0.0
N53 N 0.79546 0.14154 0.33216 0.0
C54 C 0.7991 0.10667 0.3423 0.0
C55 C 0.82436 0.11846 0.36018 0.0
C56 C 0.84396 0.16539 0.36784 0.0
C57 C 0.83827 0.20019 0.3575 0.0
C58 C 0.81389 0.18672 0.33949 0.0
H59 H 0.78308 0.0702 0.33674 0.0
O60 O 0.86037 0.12519 0.27794 0.0
O61 O 0.81177 0.14752 0.29164 0.0
O62 O 0.76355 0.04771 0.28134 0.0
O63 O 0.73301 0.06454 0.30808 0.0
C64 C 0.85536 0.24756 0.36446 0.0
C65 C 0.8493 0.28103 0.35304 0.0
H66 H 0.83143 0.33541 0.32688 0.0
H67 H 0.78682 0.30458 0.29547 0.0
H68 H 0.82812 0.09123 0.36817 0.0
H69 H 0.86293 0.1742 0.38175 0.0
H70 H 0.87396 0.2589 0.37843 0.0
H71 H 0.86333 0.31758 0.3584 0.0
Mn72 Mn 0.67274 0.79127 0.43524 0.0
Mn73 Mn 0.60706 0.75686 0.47687 0.0
C74 C 0.68727 0.84872 0.45876 0.0
C75 C 0.67842 0.81445 0.40247 0.0
C76 C 0.69021 0.73853 0.46864 0.0
O77 O 0.61695 0.72474 0.42901 0.0
O78 O 0.56994 0.70894 0.45571 0.0
C79 C 0.52475 0.76926 0.46503 0.0
N80 N 0.56215 0.77981 0.47747 0.0
C81 C 0.54317 0.83063 0.49719 0.0
C82 C 0.50423 0.82003 0.48467 0.0
C83 C 0.49505 0.78929 0.4685 0.0
C84 C 0.57127 0.80927 0.49309 0.0
H85 H 0.5177 0.74578 0.45255 0.0
C86 C 0.57776 0.69879 0.43835 0.0
O87 O 0.70272 0.79473 0.40908 0.0
O88 O 0.65071 0.81995 0.41483 0.0
N89 N 0.63804 0.79984 0.49846 0.0
C90 C 0.67918 0.80937 0.50821 0.0
C91 C 0.69473 0.84125 0.52425 0.0
C92 C 0.66767 0.86268 0.53023 0.0
C93 C 0.6252 0.85193 0.52011 0.0
C94 C 0.61135 0.81971 0.50427 0.0
H95 H 0.70021 0.79312 0.50369 0.0
O96 O 0.71905 0.85678 0.44525 0.0
O97 O 0.64694 0.80744 0.45776 0.0
O98 O 0.70421 0.76184 0.4525 0.0
O99 O 0.65298 0.73253 0.47804 0.0
C100 C 0.59684 0.87303 0.52476 0.0
C101 C 0.55587 0.8624 0.5133 0.0
H102 H 0.48145 0.83569 0.48721 0.0
H103 H 0.46523 0.78116 0.45871 0.0
H104 H 0.72761 0.84944 0.53195 0.0
H105 H 0.68011 0.88769 0.54247 0.0
H106 H 0.60674 0.89819 0.53688 0.0
H107 H 0.53482 0.87947 0.51683 0.0
Mn108 Mn 0.87396 0.66432 0.60392 0.0
Mn109 Mn 0.84655 0.6199 0.65006 0.0
C110 C 0.84622 0.69928 0.62621 0.0
C111 C 0.85049 0.66226 0.57128 0.0
C112 C 0.94879 0.6891 0.63679 0.0
O113 O 0.87227 0.6001 0.60132 0.0
O114 O 0.85301 0.57401 0.63238 0.0
C115 C 0.74886 0.53763 0.64184 0.0
N116 N 0.77835 0.5783 0.65227 0.0
C117 C 0.71435 0.56359 0.6747 0.0
C118 C 0.68318 0.52153 0.66421 0.0
C119 C 0.7004 0.50878 0.64758 0.0
C120 C 0.76176 0.59177 0.66786 0.0
H121 H 0.76241 0.52708 0.62939 0.0
C122 C 0.86314 0.56889 0.6147 0.0
O123 O 0.89582 0.68135 0.57604 0.0
O124 O 0.81925 0.64276 0.58532 0.0
N125 N 0.83906 0.65897 0.66942 0.0
C126 C 0.87368 0.70091 0.67776 0.0
C127 C 0.86194 0.71963 0.69417 0.0
C128 C 0.81543 0.69393 0.70237 0.0
C129 C 0.78085 0.6501 0.69388 0.0
C130 C 0.79405 0.63427 0.67707 0.0
H131 H 0.90998 0.71984 0.67195 0.0
O132 O 0.86877 0.72171 0.6104 0.0
O133 O 0.83777 0.65502 0.62824 0.0
O134 O 0.93914 0.69396 0.61895 0.0
O135 O 0.91679 0.66243 0.64931 0.0
C136 C 0.73397 0.62115 0.70158 0.0
C137 C 0.70056 0.57821 0.69186 0.0
H138 H 0.64606 0.49866 0.66884 0.0
H139 H 0.67661 0.47632 0.63944 0.0
H140 H 0.88897 0.75323 0.70075 0.0
H141 H 0.80678 0.70798 0.71526 0.0
H142 H 0.72291 0.63212 0.71472 0.0
H143 H 0.66434 0.55679 0.69769 0.0
Mn144 Mn 0.2077 0.87428 0.77037 0.0
Mn145 Mn 0.22865 0.84981 0.81655 0.0
C146 C 0.14744 0.8492 0.79376 0.0
C147 C 0.18458 0.84952 0.73793 0.0
C148 C 0.26123 0.95108 0.80208 0.0
O149 O 0.26997 0.87215 0.76715 0.0
O150 O 0.27805 0.85328 0.7981 0.0
C151 C 0.20982 0.75053 0.8093 0.0
N152 N 0.20101 0.78169 0.81972 0.0
C153 C 0.15446 0.7206 0.84365 0.0
C154 C 0.16291 0.68771 0.83318 0.0
C155 C 0.19028 0.70261 0.81581 0.0
C156 C 0.17334 0.7673 0.83603 0.0
H157 H 0.23203 0.76236 0.79627 0.0
C158 C 0.29232 0.86267 0.78031 0.0
O159 O 0.21108 0.89496 0.74242 0.0
O160 O 0.17297 0.8187 0.75216 0.0
N161 N 0.18515 0.84534 0.83677 0.0
C162 C 0.18035 0.88153 0.8451 0.0
C163 C 0.15276 0.87222 0.86226 0.0
C164 C 0.13241 0.82656 0.87122 0.0
C165 C 0.13926 0.7904 0.86275 0.0
C166 C 0.16539 0.80117 0.8452 0.0
H167 H 0.19755 0.91726 0.83871 0.0
O168 O 0.14577 0.86996 0.77767 0.0
O169 O 0.18293 0.84019 0.79532 0.0
O170 O 0.24452 0.94017 0.78459 0.0
O171 O 0.25749 0.92005 0.81479 0.0
C172 C 0.12185 0.74431 0.87119 0.0
C173 C 0.12892 0.70923 0.86152 0.0
H174 H 0.14878 0.65103 0.8384 0.0
H175 H 0.19707 0.6775 0.80768 0.0
H176 H 0.14814 0.9005 0.86883 0.0
H177 H 0.11199 0.8198 0.88468 0.0
H178 H 0.10204 0.73512 0.8849 0.0
H179 H 0.1145 0.67363 0.86795 0.0
Mn180 Mn 0.32289 0.20713 0.936 0.0
Mn181 Mn 0.38294 0.24472 0.97906 0.0
C182 C 0.29596 0.15544 0.96236 0.0
C183 C 0.3184 0.17689 0.9045 0.0
C184 C 0.31116 0.27357 0.9646 0.0
O185 O 0.38497 0.26738 0.92892 0.0
O186 O 0.42626 0.28478 0.9573 0.0
C187 C 0.45818 0.21782 0.9729 0.0
N188 N 0.42096 0.21486 0.98372 0.0
C189 C 0.43524 0.17214 0.00953 0.0
C190 C 0.4738 0.17477 0.99869 0.0
C191 C 0.48502 0.19731 0.98021 0.0
C192 C 0.40902 0.19209 0.00126 0.0
H193 H 0.46755 0.23608 0.95888 0.0
C194 C 0.42316 0.29178 0.93899 0.0
O195 O 0.29875 0.20289 0.90869 0.0
O196 O 0.34031 0.16829 0.91865 0.0
N197 N 0.34671 0.20989 0.00167 0.0
C198 C 0.3074 0.20894 0.00994 0.0
C199 C 0.28982 0.18538 0.02799 0.0
C200 C 0.31382 0.16458 0.03768 0.0
C201 C 0.35487 0.167 0.0291 0.0
C202 C 0.36978 0.18957 0.01079 0.0
H203 H 0.28954 0.2259 0.00282 0.0
O204 O 0.26874 0.14783 0.94708 0.0
O205 O 0.34025 0.19167 0.96126 0.0
O206 O 0.29688 0.24717 0.94926 0.0
O207 O 0.34439 0.27689 0.976 0.0
C208 C 0.38187 0.14835 0.03807 0.0
C209 C 0.42204 0.15091 0.02829 0.0
H210 H 0.49503 0.15962 0.00442 0.0
H211 H 0.51472 0.1995 0.97176 0.0
H212 H 0.25827 0.18389 0.03457 0.0
H213 H 0.30058 0.14707 0.05174 0.0
H214 H 0.37162 0.13127 0.05235 0.0
H215 H 0.44203 0.13572 0.0352 0.0
Mn216 Mn 0.67864 0.87396 0.73193 0.0
Mn217 Mn 0.62288 0.86224 0.68859 0.0
C218 C 0.70025 0.84361 0.70578 0.0
C219 C 0.67332 0.84304 0.76326 0.0
C220 C 0.70448 0.95737 0.70414 0.0
O221 O 0.62358 0.8853 0.73824 0.0
O222 O 0.58112 0.86347 0.71018 0.0
C223 C 0.53899 0.76386 0.69368 0.0
N224 N 0.57872 0.7956 0.68328 0.0
C225 C 0.56201 0.73647 0.6581 0.0
C226 C 0.52079 0.70316 0.66849 0.0
C227 C 0.50942 0.71683 0.68643 0.0
C228 C 0.59058 0.7825 0.66624 0.0
H229 H 0.52983 0.77442 0.70736 0.0
C230 C 0.58606 0.87546 0.72833 0.0
O231 O 0.70141 0.88876 0.75965 0.0
O232 O 0.64909 0.81537 0.74867 0.0
N233 N 0.65776 0.86 0.66614 0.0
C234 C 0.69879 0.89633 0.6579 0.0
C235 C 0.71599 0.888 0.64022 0.0
C236 C 0.68995 0.84301 0.6308 0.0
C237 C 0.64698 0.8067 0.6392 0.0
C238 C 0.63224 0.81669 0.65709 0.0
H239 H 0.71839 0.93133 0.6648 0.0
O240 O 0.72621 0.85741 0.72164 0.0
O241 O 0.65942 0.84376 0.70635 0.0
O242 O 0.71578 0.94085 0.71905 0.0
O243 O 0.66879 0.93178 0.69276 0.0
C244 C 0.61796 0.76113 0.63042 0.0
C245 C 0.57566 0.72593 0.63992 0.0
H246 H 0.49763 0.66701 0.66284 0.0
H247 H 0.47772 0.69132 0.69455 0.0
H248 H 0.74895 0.91638 0.63373 0.0
H249 H 0.70307 0.83687 0.61706 0.0
H250 H 0.62819 0.75253 0.61649 0.0
H251 H 0.55404 0.69078 0.63316 0.0
Mn252 Mn 0.79485 0.67115 0.89693 0.0
Mn253 Mn 0.7736 0.62906 0.85024 0.0
C254 C 0.85406 0.70933 0.87326 0.0
C255 C 0.8194 0.66926 0.92906 0.0
C256 C 0.73572 0.69124 0.86719 0.0
O257 O 0.73498 0.60469 0.89978 0.0
O258 O 0.72772 0.57918 0.86858 0.0
C259 C 0.79867 0.55186 0.85371 0.0
N260 N 0.80464 0.59257 0.84474 0.0
C261 C 0.84863 0.58308 0.81813 0.0
C262 C 0.8432 0.54113 0.82711 0.0
C263 C 0.81862 0.52579 0.84511 0.0
C264 C 0.82972 0.6086 0.82781 0.0
H265 H 0.77818 0.53903 0.86716 0.0
C266 C 0.71436 0.57255 0.88654 0.0
O267 O 0.79097 0.68623 0.92505 0.0
O268 O 0.83245 0.65221 0.91446 0.0
N269 N 0.81454 0.67245 0.83037 0.0
C270 C 0.81776 0.7144 0.82398 0.0
C271 C 0.84362 0.7362 0.80674 0.0
C272 C 0.86395 0.71348 0.7958 0.0
C273 C 0.85906 0.66967 0.80241 0.0
C274 C 0.83487 0.65089 0.82017 0.0
H275 H 0.80057 0.73095 0.83194 0.0
O276 O 0.85499 0.73092 0.88953 0.0
O277 O 0.81961 0.66448 0.87151 0.0
O278 O 0.75468 0.69792 0.88419 0.0
O279 O 0.74019 0.66591 0.85382 0.0
C280 C 0.87644 0.6434 0.79193 0.0
C281 C 0.87136 0.60019 0.79981 0.0
H282 H 0.85756 0.52031 0.82028 0.0
H283 H 0.81409 0.49334 0.85209 0.0
H284 H 0.84688 0.7698 0.80165 0.0
H285 H 0.88287 0.72979 0.78226 0.0
H286 H 0.89458 0.65657 0.77798 0.0
H287 H 0.88569 0.58082 0.7918 0.0
Mn288 Mn 0.12954 0.79969 0.0632 0.0
Mn289 Mn 0.15783 0.7831 0.01711 0.0
C290 C 0.15748 0.86265 0.04103 0.0
C291 C 0.15234 0.81901 0.09592 0.0
C292 C 0.05519 0.7488 0.03042 0.0
O293 O 0.13044 0.73674 0.06552 0.0
O294 O 0.15368 0.73197 0.0349 0.0
C295 C 0.25686 0.80179 0.02483 0.0
N296 N 0.22615 0.81147 0.01452 0.0
C297 C 0.28839 0.86044 0.99138 0.0
C298 C 0.32083 0.85114 0.00175 0.0
C299 C 0.30512 0.8221 0.01867 0.0
C300 C 0.24129 0.84066 0.99864 0.0
H301 H 0.24441 0.77829 0.03748 0.0
C302 C 0.14201 0.71596 0.05241 0.0
O303 O 0.10706 0.7944 0.09096 0.0
O304 O 0.18411 0.83131 0.08205 0.0
N305 N 0.16318 0.82856 0.99762 0.0
C306 C 0.12747 0.83445 0.98948 0.0
C307 C 0.13763 0.86386 0.97282 0.0
C308 C 0.18369 0.88504 0.96418 0.0
C309 C 0.21942 0.87729 0.97249 0.0
C310 C 0.20779 0.84933 0.98956 0.0
H311 H 0.09149 0.81669 0.99563 0.0
O312 O 0.1355 0.86272 0.05699 0.0
O313 O 0.16586 0.82682 0.03891 0.0
O314 O 0.06464 0.76492 0.04804 0.0
O315 O 0.08738 0.75338 0.01816 0.0
C316 C 0.26596 0.89568 0.96437 0.0
C317 C 0.3006 0.88773 0.97393 0.0
H318 H 0.35779 0.86589 0.9968 0.0
H319 H 0.32988 0.81463 0.02672 0.0
H320 H 0.10972 0.86928 0.96638 0.0
H321 H 0.1911 0.90689 0.95108 0.0
H322 H 0.27582 0.91691 0.95101 0.0
H323 H 0.33654 0.90289 0.96777 0.0
Mn324 Mn 0.3281 0.12079 0.23267 0.0
Mn325 Mn 0.37475 0.1525 0.18695 0.0
C326 C 0.30242 0.16103 0.21198 0.0
C327 C 0.33048 0.13873 0.26605 0.0
C328 C 0.29939 0.05041 0.19812 0.0
O329 O 0.38895 0.11542 0.23438 0.0
O330 O 0.41793 0.1397 0.20378 0.0
C331 C 0.46115 0.24634 0.19667 0.0
N332 N 0.41976 0.22034 0.18613 0.0
C333 C 0.43281 0.2913 0.1686 0.0
C334 C 0.47576 0.31882 0.17918 0.0
C335 C 0.48991 0.29625 0.19331 0.0
C336 C 0.40571 0.24171 0.17255 0.0
H337 H 0.47207 0.2291 0.20755 0.0
C338 C 0.4206 0.12524 0.22104 0.0
O339 O 0.30764 0.09433 0.25981 0.0
O340 O 0.3533 0.17211 0.25302 0.0
N341 N 0.33703 0.16602 0.16897 0.0
C342 C 0.29368 0.13465 0.16062 0.0
C343 C 0.27404 0.15152 0.14633 0.0
C344 C 0.29909 0.20043 0.14078 0.0
C345 C 0.34394 0.2319 0.14939 0.0
C346 C 0.36208 0.21282 0.16333 0.0
H347 H 0.27431 0.09701 0.16478 0.0
O348 O 0.27563 0.1356 0.22654 0.0
O349 O 0.34342 0.16212 0.2099 0.0
O350 O 0.29451 0.05857 0.21608 0.0
O351 O 0.32834 0.08262 0.18617 0.0
C352 C 0.37104 0.28156 0.14491 0.0
C353 C 0.41538 0.31127 0.15455 0.0
H354 H 0.49795 0.35735 0.17669 0.0
H355 H 0.52288 0.31729 0.2016 0.0
H356 H 0.23965 0.12683 0.13961 0.0
H357 H 0.28351 0.21345 0.12993 0.0
H358 H 0.35778 0.2974 0.13428 0.0
H359 H 0.43554 0.34952 0.15119 0.0
Mn360 Mn 0.1994 0.31887 0.39808 0.0
Mn361 Mn 0.21994 0.36184 0.35161 0.0
C362 C 0.13788 0.28424 0.37514 0.0
C363 C 0.1766 0.3213 0.43045 0.0
C364 C 0.25064 0.29208 0.36655 0.0
O365 O 0.26241 0.38275 0.4009 0.0
O366 O 0.27132 0.40778 0.3696 0.0
C367 C 0.20584 0.44558 0.35807 0.0
N368 N 0.1947 0.4043 0.34812 0.0
C369 C 0.14926 0.42001 0.32403 0.0
C370 C 0.16011 0.46269 0.33401 0.0
C371 C 0.18809 0.47524 0.35123 0.0
C372 C 0.16647 0.39104 0.33195 0.0
H373 H 0.22859 0.45601 0.37096 0.0
C374 C 0.28558 0.41336 0.38745 0.0
O375 O 0.2028 0.30198 0.42605 0.0
O376 O 0.16571 0.34106 0.41619 0.0
N377 N 0.17452 0.32254 0.33195 0.0
C378 C 0.16674 0.27981 0.32429 0.0
C379 C 0.13793 0.26113 0.30742 0.0
C380 C 0.11932 0.28763 0.29811 0.0
C381 C 0.12896 0.33218 0.30597 0.0
C382 C 0.15614 0.34793 0.32327 0.0
H383 H 0.18256 0.26027 0.33097 0.0
O384 O 0.13675 0.26196 0.3912 0.0
O385 O 0.17431 0.32818 0.37317 0.0
O386 O 0.23488 0.28798 0.38411 0.0
O387 O 0.2467 0.31857 0.35352 0.0
C388 C 0.11322 0.3619 0.29719 0.0
C389 C 0.12291 0.40554 0.30632 0.0
H390 H 0.14736 0.48619 0.32854 0.0
H391 H 0.19675 0.50819 0.35899 0.0
H392 H 0.13102 0.22694 0.30135 0.0
H393 H 0.09797 0.2736 0.28487 0.0
H394 H 0.09269 0.351 0.28364 0.0
H395 H 0.10975 0.42756 0.29965 0.0
Mn396 Mn 0.87048 0.19054 0.56734 0.0
Mn397 Mn 0.83698 0.22283 0.52577 0.0
C398 C 0.82545 0.13146 0.54467 0.0
C399 C 0.85474 0.17182 0.60045 0.0
C400 C 0.93873 0.24085 0.53331 0.0
O401 O 0.88358 0.25828 0.57264 0.0
O402 O 0.84809 0.27137 0.54669 0.0
C403 C 0.74242 0.2102 0.53792 0.0
N404 N 0.76904 0.19948 0.52545 0.0
C405 C 0.69879 0.14783 0.50608 0.0
C406 C 0.67066 0.1586 0.51864 0.0
C407 C 0.69257 0.18984 0.53464 0.0
C408 C 0.74837 0.1695 0.50999 0.0
H409 H 0.75911 0.23408 0.55027 0.0
C410 C 0.86844 0.28304 0.56361 0.0
O411 O 0.89808 0.18846 0.59347 0.0
O412 O 0.82102 0.16574 0.58826 0.0
N413 N 0.82458 0.17915 0.5044 0.0
C414 C 0.85606 0.16964 0.49457 0.0
C415 C 0.83944 0.13739 0.47865 0.0
C416 C 0.79078 0.11557 0.47288 0.0
C417 C 0.75918 0.12633 0.48307 0.0
C418 C 0.77784 0.15894 0.49877 0.0
H419 H 0.8935 0.18623 0.4989 0.0
O420 O 0.84904 0.12373 0.55836 0.0
O421 O 0.8273 0.17322 0.54517 0.0
O422 O 0.93001 0.21719 0.54936 0.0
O423 O 0.90728 0.24747 0.52437 0.0
C424 C 0.70958 0.1049 0.47861 0.0
C425 C 0.67941 0.11562 0.49012 0.0
H426 H 0.63214 0.14271 0.51624 0.0
H427 H 0.67104 0.19811 0.54446 0.0
H428 H 0.86407 0.12926 0.47088 0.0
H429 H 0.77799 0.09028 0.46074 0.0
H430 H 0.69409 0.07943 0.46659 0.0
H431 H 0.64119 0.09831 0.48674 0.0
H432 H 0.14632 0.68035 0.08889 0.0
H433 H 0.13327 0.64713 0.02656 0.0
H434 H 0.12847 0.56943 0.03377 0.0
H435 H 0.22216 0.62922 0.10003 0.0
H436 H 0.19492 0.60583 0.12362 0.0
H437 H 0.19609 0.65878 0.1138 0.0
H438 H 0.10303 0.61701 0.11738 0.0
H439 H 0.10155 0.56387 0.12717 0.0
H440 H 0.06544 0.55897 0.10601 0.0
H441 H 0.1236 0.49551 0.0472 0.0
H442 H 0.12422 0.43043 0.06611 0.0
H443 H 0.14353 0.51104 0.12004 0.0
C444 C 0.14231 0.65661 0.07679 0.0
C445 C 0.14008 0.66983 0.05715 0.0
C446 C 0.13532 0.638 0.04171 0.0
C447 C 0.13234 0.59363 0.04564 0.0
C448 C 0.13459 0.58168 0.06509 0.0
C449 C 0.13991 0.61224 0.08043 0.0
C450 C 0.14288 0.59082 0.09993 0.0
C451 C 0.19193 0.62309 0.10993 0.0
C452 C 0.1007 0.58215 0.11341 0.0
C453 C 0.13818 0.54345 0.09306 0.0
C454 C 0.13306 0.53897 0.07291 0.0
C455 C 0.12767 0.49852 0.063 0.0
C456 C 0.12789 0.46163 0.07393 0.0
C457 C 0.13383 0.46543 0.09462 0.0
C458 C 0.13897 0.50701 0.10427 0.0
H459 H 0.6339 0.12976 0.28468 0.0
H460 H 0.68347 0.09738 0.23036 0.0
H461 H 0.6146 0.09389 0.21283 0.0
H462 H 0.50553 0.05159 0.27551 0.0
H463 H 0.4888 0.09283 0.28616 0.0
H464 H 0.54178 0.09218 0.29484 0.0
H465 H 0.59404 0.18382 0.28757 0.0
H466 H 0.54124 0.18476 0.2789 0.0
H467 H 0.59346 0.20589 0.26327 0.0
H468 H 0.54333 0.09696 0.20071 0.0
H469 H 0.47144 0.10457 0.19471 0.0
H470 H 0.465 0.13255 0.25671 0.0
C471 C 0.6302 0.12175 0.26912 0.0
C472 C 0.6643 0.11382 0.25896 0.0
C473 C 0.658 0.10352 0.23856 0.0
C474 C 0.61892 0.10143 0.22842 0.0
C475 C 0.58617 0.10948 0.23884 0.0
C476 C 0.59111 0.11927 0.25872 0.0
C477 C 0.55075 0.12701 0.26623 0.0
C478 C 0.51989 0.0886 0.28159 0.0
C479 C 0.5711 0.17843 0.27448 0.0
C480 C 0.52262 0.12025 0.24741 0.0
C481 C 0.54396 0.11034 0.23182 0.0
C482 C 0.52604 0.1044 0.2128 0.0
C483 C 0.48529 0.10897 0.20954 0.0
C484 C 0.46256 0.11901 0.22524 0.0
C485 C 0.48129 0.12427 0.24447 0.0
H486 H 0.49064 0.6261 0.45319 0.0
H487 H 0.57627 0.67524 0.39975 0.0
H488 H 0.51131 0.60753 0.38163 0.0
H489 H 0.43908 0.49719 0.44344 0.0
H490 H 0.38077 0.48103 0.45354 0.0
H491 H 0.43435 0.53321 0.46276 0.0
H492 H 0.39658 0.58677 0.4552 0.0
H493 H 0.34296 0.5348 0.4459 0.0
H494 H 0.37571 0.58758 0.43068 0.0
H495 H 0.4371 0.53814 0.36869 0.0
H496 H 0.35821 0.46654 0.36184 0.0
H497 H 0.3196 0.45827 0.42345 0.0
C498 C 0.49584 0.62245 0.43771 0.0
C499 C 0.53881 0.65621 0.42797 0.0
C500 C 0.544 0.64998 0.40766 0.0
C501 C 0.5072 0.61161 0.39717 0.0
C502 C 0.46538 0.57935 0.40713 0.0
C503 C 0.45946 0.58389 0.42695 0.0
C504 C 0.41056 0.54371 0.43393 0.0
C505 C 0.41657 0.5119 0.44933 0.0
C506 C 0.37963 0.56447 0.4419 0.0
C507 C 0.39 0.51634 0.41487 0.0
C508 C 0.42234 0.53791 0.39964 0.0
C509 C 0.41152 0.52064 0.3805 0.0
C510 C 0.36643 0.48003 0.37676 0.0
C511 C 0.33265 0.45668 0.3921 0.0
C512 C 0.34479 0.47508 0.41145 0.0
H513 H 0.85238 0.5243 0.57872 0.0
H514 H 0.88139 0.51495 0.6404 0.0
H515 H 0.88818 0.443 0.63352 0.0
H516 H 0.77836 0.39548 0.57133 0.0
H517 H 0.80003 0.39638 0.54682 0.0
H518 H 0.79908 0.4486 0.55624 0.0
H519 H 0.89051 0.50174 0.54884 0.0
H520 H 0.89177 0.44964 0.53943 0.0
H521 H 0.93234 0.48503 0.5589 0.0
H522 H 0.89296 0.37361 0.62046 0.0
H523 H 0.89009 0.30599 0.60224 0.0
H524 H 0.85453 0.35614 0.54881 0.0
C525 C 0.86035 0.50716 0.59073 0.0
C526 C 0.86645 0.52534 0.61011 0.0
C527 C 0.8763 0.50159 0.62547 0.0
C528 C 0.88048 0.46081 0.62171 0.0
C529 C 0.87424 0.44378 0.60253 0.0
C530 C 0.86394 0.46572 0.58728 0.0
C531 C 0.85715 0.4385 0.56817 0.0
C532 C 0.80558 0.41855 0.56017 0.0
C533 C 0.89522 0.47065 0.55294 0.0
C534 C 0.86541 0.39803 0.57514 0.0
C535 C 0.87564 0.40227 0.59498 0.0
C536 C 0.88494 0.36977 0.60491 0.0
C537 C 0.88337 0.3315 0.59435 0.0
C538 C 0.87217 0.3256 0.57402 0.0
C539 C 0.86318 0.35955 0.56431 0.0
H540 H 0.50133 0.8668 0.71319 0.0
H541 H 0.57923 0.8843 0.76779 0.0
H542 H 0.51264 0.88256 0.78623 0.0
H543 H 0.45088 0.94224 0.7273 0.0
H544 H 0.39356 0.90462 0.71542 0.0
H545 H 0.44748 0.90716 0.706 0.0
H546 H 0.40677 0.81402 0.7089 0.0
H547 H 0.35277 0.81121 0.71838 0.0
H548 H 0.3825 0.78542 0.73221 0.0
H549 H 0.43865 0.87663 0.79918 0.0
H550 H 0.36081 0.87105 0.80617 0.0
H551 H 0.32889 0.85971 0.74368 0.0
C552 C 0.5044 0.87042 0.72901 0.0
C553 C 0.54576 0.87578 0.73896 0.0
C554 C 0.54826 0.88042 0.75971 0.0
C555 C 0.51049 0.87933 0.7704 0.0
C556 C 0.47039 0.87384 0.76021 0.0
C557 C 0.46694 0.86979 0.74002 0.0
C558 C 0.41947 0.86464 0.73293 0.0
C559 C 0.4284 0.90721 0.71963 0.0
C560 C 0.38855 0.81592 0.72249 0.0
C561 C 0.39704 0.86636 0.75235 0.0
C562 C 0.42717 0.87136 0.76782 0.0
C563 C 0.41469 0.87289 0.78722 0.0
C564 C 0.37017 0.86947 0.79102 0.0
C565 C 0.33857 0.86491 0.77549 0.0
C566 C 0.35233 0.86341 0.75586 0.0
H567 H 0.50012 0.37545 0.95369 0.0
H568 H 0.44371 0.29035 0.90046 0.0
H569 H 0.51457 0.35086 0.88213 0.0
H570 H 0.54412 0.48994 0.93048 0.0
H571 H 0.59742 0.52116 0.94557 0.0
H572 H 0.5441 0.46946 0.95515 0.0
H573 H 0.59409 0.42795 0.96306 0.0
H574 H 0.64761 0.47958 0.95349 0.0
H575 H 0.62833 0.4201 0.94384 0.0
H576 H 0.58886 0.4198 0.86928 0.0
H577 H 0.66172 0.49682 0.86181 0.0
H578 H 0.67055 0.54082 0.92283 0.0
C579 C 0.50308 0.36945 0.93823 0.0
C580 C 0.46651 0.32824 0.92848 0.0
C581 C 0.47117 0.32183 0.90819 0.0
C582 C 0.5114 0.35581 0.89766 0.0
C583 C 0.54654 0.3962 0.9076 0.0
C584 C 0.54286 0.40352 0.92736 0.0
C585 C 0.58469 0.4517 0.93406 0.0
C586 C 0.56648 0.48503 0.94176 0.0
C587 C 0.6155 0.44437 0.94953 0.0
C588 C 0.61199 0.4703 0.91489 0.0
C589 C 0.58946 0.43727 0.89994 0.0
C590 C 0.60698 0.44604 0.88084 0.0
C591 C 0.64849 0.49009 0.87677 0.0
C592 C 0.67198 0.52523 0.8917 0.0
C593 C 0.65356 0.51483 0.91108 0.0
H594 H 0.21563 0.14102 0.19636 0.0
H595 H 0.3621 0.25714 0.20625 0.0
H596 H 0.34469 0.3133 0.18761 0.0
H597 H 0.19529 0.16991 0.14793 0.0
H598 H 0.13425 0.15412 0.15355 0.0
H599 H 0.16255 0.12644 0.167 0.0
H600 H 0.13889 0.157 0.19864 0.0
H601 H 0.11632 0.18893 0.18427 0.0
H602 H 0.16339 0.221 0.20214 0.0
H603 H 0.31507 0.35177 0.16297 0.0
H604 H 0.27055 0.37443 0.13937 0.0
H605 H 0.14094 0.23667 0.14908 0.0
C606 C 0.24387 0.1783 0.19453 0.0
C607 C 0.29097 0.19446 0.20162 0.0
C608 C 0.32656 0.2438 0.1999 0.0
C609 C 0.31683 0.27596 0.18957 0.0
C610 C 0.27077 0.25835 0.18171 0.0
C611 C 0.23445 0.21103 0.18454 0.0
C612 C 0.18757 0.20181 0.1752 0.0
C613 C 0.1689 0.1606 0.16005 0.0
C614 C 0.14928 0.19159 0.191 0.0
C615 C 0.20421 0.25017 0.16545 0.0
C616 C 0.25229 0.28243 0.16943 0.0
C617 C 0.27693 0.32759 0.16036 0.0
C618 C 0.25147 0.34029 0.14709 0.0
C619 C 0.20192 0.30828 0.1434 0.0
C620 C 0.17831 0.26253 0.15246 0.0
H621 H 0.90389 0.23133 0.31208 0.0
H622 H 0.87146 0.08237 0.31101 0.0
H623 H 0.94214 0.10365 0.33189 0.0
H624 H 0.02336 0.28492 0.30802 0.0
H625 H 0.0411 0.33398 0.32547 0.0
H626 H 0.98305 0.30727 0.31372 0.0
H627 H 0.94371 0.2914 0.3469 0.0
H628 H 0.00019 0.3156 0.35973 0.0
H629 H 0.95262 0.25487 0.3649 0.0
H630 H 0.0217 0.14159 0.34731 0.0
H631 H 0.09989 0.19233 0.36366 0.0
H632 H 0.08254 0.31787 0.3569 0.0
C633 C 0.91037 0.20297 0.31721 0.0
C634 C 0.88193 0.15504 0.31029 0.0
C635 C 0.89253 0.11908 0.31646 0.0
C636 C 0.93267 0.13085 0.32824 0.0
C637 C 0.96161 0.17874 0.33396 0.0
C638 C 0.95011 0.21402 0.32946 0.0
C639 C 0.98941 0.2631 0.33682 0.0
C640 C 0.0106 0.2995 0.31995 0.0
C641 C 0.97023 0.28223 0.3531 0.0
C642 C 0.02582 0.25016 0.34499 0.0
C643 C 0.00856 0.20112 0.34318 0.0
C644 C 0.03529 0.17992 0.34917 0.0
C645 C 0.07983 0.20909 0.35825 0.0
C646 C 0.09745 0.25897 0.36126 0.0
C647 C 0.07044 0.28006 0.35429 0.0
H648 H 0.85322 0.076 0.52524 0.0
H649 H 0.7295 0.09377 0.53588 0.0
H650 H 0.67935 0.02348 0.51424 0.0
H651 H 0.82888 0.03409 0.47515 0.0
H652 H 0.84825 0.99055 0.47901 0.0
H653 H 0.87384 0.04495 0.49353 0.0
H654 H 0.82103 0.9376 0.5106 0.0
H655 H 0.7856 0.94741 0.52866 0.0
H656 H 0.84829 0.99211 0.52508 0.0
H657 H 0.64584 0.95471 0.4887 0.0
H658 H 0.62758 0.88487 0.46712 0.0
H659 H 0.76992 0.90544 0.47849 0.0
C660 C 0.81578 0.06559 0.52266 0.0
C661 C 0.79576 0.09199 0.53099 0.0
C662 C 0.74603 0.07575 0.52842 0.0
C663 C 0.71729 0.0356 0.51641 0.0
C664 C 0.73867 0.01125 0.50778 0.0
C665 C 0.78653 0.02505 0.51121 0.0
C666 C 0.8 0.99055 0.50185 0.0
C667 C 0.84012 0.0166 0.48648 0.0
C668 C 0.81458 0.96543 0.51748 0.0
C669 C 0.75252 0.95543 0.49231 0.0
C670 C 0.71772 0.96834 0.49553 0.0
C671 C 0.67226 0.9433 0.48671 0.0
C672 C 0.66192 0.9034 0.47472 0.0
C673 C 0.69619 0.88806 0.47237 0.0
C674 C 0.74231 0.91514 0.4809 0.0
H675 H 0.75563 0.66824 0.64225 0.0
H676 H 0.90197 0.78964 0.63913 0.0
H677 H 0.87568 0.84199 0.6549 0.0
H678 H 0.69599 0.73741 0.63251 0.0
H679 H 0.64682 0.70152 0.64919 0.0
H680 H 0.67847 0.67527 0.63734 0.0
H681 H 0.69487 0.65231 0.67185 0.0
H682 H 0.66329 0.6797 0.68283 0.0
H683 H 0.72438 0.69931 0.69027 0.0
H684 H 0.83512 0.88193 0.66955 0.0
H685 H 0.78543 0.90429 0.68968 0.0
H686 H 0.66444 0.75818 0.68505 0.0
C687 C 0.78219 0.70543 0.64552 0.0
C688 C 0.83101 0.72493 0.63981 0.0
C689 C 0.86457 0.7741 0.64364 0.0
C690 C 0.84989 0.80419 0.65237 0.0
C691 C 0.80134 0.78463 0.65713 0.0
C692 C 0.76811 0.73622 0.65443 0.0
C693 C 0.71831 0.72504 0.66133 0.0
C694 C 0.68282 0.70896 0.64403 0.0
C695 C 0.69917 0.68676 0.67758 0.0
C696 C 0.72948 0.77415 0.66916 0.0
C697 C 0.77738 0.80819 0.66583 0.0
C698 C 0.79754 0.85572 0.67225 0.0
C699 C 0.769 0.86815 0.68357 0.0
C700 C 0.72105 0.83319 0.68854 0.0
C701 C 0.70046 0.78589 0.68082 0.0
H702 H 0.90883 0.67653 0.85484 0.0
H703 H 0.89037 0.80134 0.86136 0.0
H704 H 0.96636 0.85143 0.84329 0.0
H705 H 0.0325 0.73706 0.86265 0.0
H706 H 0.04637 0.70387 0.84462 0.0
H707 H 0.988 0.67615 0.85611 0.0
H708 H 0.94827 0.65946 0.82237 0.0
H709 H 0.0066 0.68602 0.81091 0.0
H710 H 0.96658 0.70849 0.80488 0.0
H711 H 0.04474 0.88857 0.82597 0.0
H712 H 0.11853 0.90964 0.80709 0.0
H713 H 0.08911 0.76207 0.8121 0.0
C714 C 0.92003 0.71394 0.85176 0.0
C715 C 0.89352 0.73508 0.85909 0.0
C716 C 0.9101 0.78458 0.85561 0.0
C717 C 0.9532 0.81327 0.84543 0.0
C718 C 0.97947 0.79191 0.83896 0.0
C719 C 0.96318 0.74324 0.84154 0.0
C720 C -0.00017 0.73029 0.83381 0.0
C721 C 0.01788 0.71079 0.85033 0.0
C722 C 0.97892 0.69386 0.81694 0.0
C723 C 0.03906 0.77914 0.82647 0.0
C724 C 0.02638 0.81411 0.82969 0.0
C725 C 0.05516 0.86158 0.8234 0.0
C726 C 0.09698 0.87322 0.81275 0.0
C727 C 0.10981 0.8377 0.80859 0.0
C728 C 0.08089 0.79019 0.81574 0.0
H729 H 0.24629 0.92239 0.02364 0.0
H730 H 0.09939 0.89502 0.02874 0.0
H731 H 0.12313 0.97284 0.01274 0.0
H732 H 0.30514 0.04994 0.03286 0.0
H733 H 0.3528 0.06345 0.01529 0.0
H734 H 0.32258 0.00563 0.02719 0.0
H735 H 0.30454 0.96754 0.99266 0.0
H736 H 0.33347 0.02625 0.98145 0.0
H737 H 0.27192 0.98333 0.97507 0.0
H738 H 0.16199 0.05395 0.99845 0.0
H739 H 0.21043 0.12785 0.97909 0.0
H740 H 0.33252 0.10394 0.98114 0.0
C741 C 0.21897 0.93219 0.02068 0.0
C742 C 0.17083 0.90256 0.02711 0.0
C743 C 0.1363 0.91715 0.02371 0.0
C744 C 0.14952 0.96142 0.01481 0.0
C745 C 0.19753 0.99082 0.00938 0.0
C746 C 0.23151 0.97642 0.01153 0.0
C747 C 0.28052 0.01547 0.00413 0.0
C748 C 0.31741 0.03486 0.02092 0.0
C749 C 0.29857 0.9969 0.98727 0.0
C750 C 0.26825 0.05316 0.997 0.0
C751 C 0.22036 0.03846 0.0008 0.0
C752 C 0.19949 0.06584 0.99529 0.0
C753 C 0.22732 0.10784 0.9844 0.0
C754 C 0.27523 0.12176 0.97893 0.0
C755 C 0.29651 0.09488 0.98574 0.0
H756 H 0.13249 0.2617 0.04372 0.0
H757 H 0.2323 0.41452 0.0524 0.0
H758 H 0.26975 0.4186 0.02032 0.0
H759 H 0.21664 0.23622 0.02661 0.0
H760 H 0.17906 0.19094 0.00891 0.0
H761 H 0.15198 0.20217 0.02984 0.0
H762 H 0.0973 0.21897 0.00684 0.0
H763 H 0.12444 0.20786 0.98574 0.0
H764 H 0.12441 0.26411 0.98788 0.0
H765 H 0.30732 0.40349 0.9919 0.0
H766 H 0.34375 0.36911 0.96982 0.0
H767 H 0.2199 0.2265 0.9781 0.0
C768 C 0.16092 0.29628 0.03841 0.0
C769 C 0.17924 0.33793 0.0503 0.0
C770 C 0.21771 0.38229 0.04338 0.0
C771 C 0.23891 0.38503 0.02511 0.0
C772 C 0.22128 0.34304 0.01393 0.0
C773 C 0.18306 0.29941 0.02027 0.0
C774 C 0.1764 0.25827 0.00707 0.0
C775 C 0.18134 0.21967 0.0188 0.0
C776 C 0.12773 0.23599 0.99624 0.0
C777 C 0.21826 0.28522 0.99299 0.0
C778 C 0.24307 0.33429 0.99696 0.0
C779 C 0.2873 0.36552 0.9881 0.0
C780 C 0.30768 0.34586 0.97551 0.0
C781 C 0.28352 0.29569 0.97178 0.0
C782 C 0.23754 0.26535 0.97998 0.0
H783 H 0.88171 0.23102 0.22267 0.0
H784 H 0.8248 0.08262 0.20369 0.0
H785 H 0.8691 0.1118 0.17231 0.0
H786 H 0.8842 0.28368 0.17359 0.0
H787 H 0.9402 0.33802 0.17914 0.0
H788 H 0.89784 0.30542 0.19851 0.0
H789 H 0.96487 0.29927 0.21766 0.0
H790 H 0.00724 0.33194 0.19844 0.0
H791 H 0.99698 0.2733 0.20572 0.0
H792 H 0.92849 0.15756 0.145 0.0
H793 H 0.99907 0.21492 0.1253 0.0
H794 H 0.01544 0.33267 0.16241 0.0
C795 C 0.87751 0.20458 0.21173 0.0
C796 C 0.84962 0.15457 0.21556 0.0
C797 C 0.84578 0.12116 0.201 0.0
C798 C 0.87066 0.1374 0.18311 0.0
C799 C 0.89882 0.18711 0.17998 0.0
C800 C 0.90209 0.22014 0.1939 0.0
C801 C 0.93849 0.27133 0.18803 0.0
C802 C 0.91368 0.30138 0.18461 0.0
C803 C 0.97928 0.29532 0.20337 0.0
C804 C 0.95662 0.26194 0.16899 0.0
C805 C 0.93286 0.2133 0.16434 0.0
C806 C 0.94668 0.19583 0.14829 0.0
C807 C 0.98675 0.22872 0.13713 0.0
C808 C 0.01278 0.27837 0.14224 0.0
C809 C 0.99617 0.29507 0.15797 0.0
H810 H 0.66696 0.98751 0.32369 0.0
H811 H 0.77663 0.97558 0.29076 0.0
H812 H 0.76353 0.90659 0.31156 0.0
H813 H 0.70365 0.9751 0.36794 0.0
H814 H 0.64493 0.94108 0.37919 0.0
H815 H 0.65341 0.98034 0.35889 0.0
H816 H 0.58523 0.90917 0.33942 0.0
H817 H 0.57563 0.86953 0.35987 0.0
H818 H 0.58768 0.85451 0.33581 0.0
H819 H 0.75063 0.85103 0.34033 0.0
H820 H 0.73556 0.81136 0.37286 0.0
H821 H 0.63471 0.86075 0.38651 0.0
C822 C 0.68681 0.9691 0.3203 0.0
C823 C 0.72255 0.98666 0.30554 0.0
C824 C 0.74843 0.96219 0.30178 0.0
C825 C 0.74138 0.9231 0.3136 0.0
C826 C 0.70779 0.90855 0.32885 0.0
C827 C 0.68025 0.93033 0.33193 0.0
C828 C 0.65114 0.91269 0.35064 0.0
C829 C 0.6641 0.95479 0.365 0.0
C830 C 0.59669 0.8848 0.34616 0.0
C831 C 0.66827 0.87931 0.35816 0.0
C832 C 0.7004 0.8767 0.34533 0.0
C833 C 0.72457 0.85184 0.35023 0.0
C834 C 0.71595 0.82958 0.36876 0.0
C835 C 0.68376 0.83274 0.38216 0.0
C836 C 0.65902 0.85707 0.37651 0.0
H837 H 0.75834 0.63072 0.55908 0.0
H838 H 0.90695 0.70684 0.53886 0.0
H839 H 0.88015 0.72523 0.50751 0.0
H840 H 0.69962 0.58271 0.51058 0.0
H841 H 0.65013 0.59232 0.51664 0.0
H842 H 0.68017 0.57811 0.53572 0.0
H843 H 0.69708 0.65563 0.55457 0.0
H844 H 0.66736 0.67011 0.53558 0.0
H845 H 0.72868 0.71333 0.54232 0.0
H846 H 0.83762 0.74443 0.48022 0.0
H847 H 0.78451 0.76372 0.46037 0.0
H848 H 0.66477 0.67535 0.49927 0.0
C849 C 0.78521 0.65003 0.54786 0.0
C850 C 0.83471 0.66702 0.55136 0.0
C851 C 0.86875 0.69305 0.53642 0.0
C852 C 0.85383 0.70362 0.51856 0.0
C853 C 0.80476 0.68761 0.51586 0.0
C854 C 0.77099 0.66105 0.53012 0.0
C855 C 0.72133 0.65235 0.52474 0.0
C856 C 0.68571 0.59815 0.52174 0.0
C857 C 0.70256 0.67417 0.54021 0.0
C858 C 0.73256 0.67956 0.50554 0.0
C859 C 0.78061 0.69905 0.50042 0.0
C860 C 0.79977 0.72861 0.48394 0.0
C861 C 0.76928 0.73931 0.47272 0.0
C862 C 0.72036 0.72098 0.47819 0.0
C863 C 0.70184 0.68976 0.49455 0.0
H864 H 0.12564 0.75699 0.72558 0.0
H865 H 0.1964 0.9056 0.7054 0.0
H866 H 0.15307 0.87828 0.67369 0.0
H867 H 0.11866 0.69907 0.67697 0.0
H868 H 0.0598 0.64871 0.68267 0.0
H869 H 0.10308 0.67918 0.70203 0.0
H870 H 0.04083 0.69447 0.72042 0.0
H871 H 0.99754 0.664 0.70122 0.0
H872 H 0.01398 0.72497 0.70785 0.0
H873 H 0.09213 0.8352 0.64613 0.0
H874 H 0.01853 0.78178 0.62678 0.0
H875 H 0.98938 0.66244 0.66539 0.0
C876 C 0.1332 0.78374 0.7143 0.0
C877 C 0.16464 0.83339 0.71793 0.0
C878 C 0.17275 0.86728 0.70289 0.0
C879 C 0.14838 0.85206 0.6848 0.0
C880 C 0.11641 0.8028 0.68192 0.0
C881 C 0.10916 0.76919 0.69628 0.0
C882 C 0.06913 0.71923 0.6907 0.0
C883 C 0.08886 0.6845 0.68793 0.0
C884 C 0.02796 0.69957 0.70594 0.0
C885 C 0.05345 0.73014 0.67135 0.0
C886 C 0.08158 0.77827 0.66623 0.0
C887 C 0.07058 0.79725 0.64979 0.0
C888 C 0.0289 0.76664 0.63879 0.0
C889 C 0.99857 0.71795 0.64451 0.0
C890 C 0.01225 0.69939 0.66054 0.0
H891 H 0.35703 0.12233 0.89213 0.0
H892 H 0.27163 0.18525 0.87215 0.0
H893 H 0.26096 0.14551 0.83989 0.0
H894 H 0.41453 0.12545 0.84397 0.0
H895 H 0.41052 0.06803 0.84873 0.0
H896 H 0.41834 0.10812 0.8688 0.0
H897 H 0.34156 0.04 0.88572 0.0
H898 H 0.33408 -0.00015 0.86588 0.0
H899 H 0.28543 0.0105 0.87225 0.0
H900 H 0.24949 0.08881 0.81176 0.0
H901 H 0.23442 0.01761 0.79189 0.0
H902 H 0.32926 0.99444 0.83021 0.0
C903 C 0.33703 0.12874 0.88083 0.0
C904 C 0.31527 0.15695 0.88462 0.0
C905 C 0.2888 0.16389 0.86953 0.0
C906 C 0.28281 0.1417 0.85112 0.0
C907 C 0.30403 0.11325 0.84798 0.0
C908 C 0.33081 0.10699 0.86246 0.0
C909 C 0.34529 0.07049 0.85642 0.0
C910 C 0.40045 0.09448 0.85435 0.0
C911 C 0.32537 0.02771 0.87092 0.0
C912 C 0.32063 0.05541 0.83666 0.0
C913 C 0.29778 0.08105 0.83177 0.0
C914 C 0.26821 0.06933 0.81519 0.0
C915 C 0.2601 0.02907 0.80388 0.0
C916 C 0.28105 0.00091 0.80945 0.0
C917 C 0.31338 0.01582 0.82546 0.0
H918 H 0.74326 0.87312 0.79148 0.0
H919 H 0.59435 0.76596 0.77905 0.0
H920 H 0.58905 0.72618 0.81074 0.0
H921 H 0.77455 0.79246 0.8082 0.0
H922 H 0.81636 0.83063 0.82682 0.0
H923 H 0.80469 0.85736 0.80589 0.0
H924 H 0.78021 0.90604 0.82907 0.0
H925 H 0.79134 0.87876 0.85014 0.0
H926 H 0.73328 0.87451 0.84703 0.0
H927 H 0.60382 0.68939 0.83967 0.0
H928 H 0.63982 0.65463 0.86178 0.0
H929 H 0.77912 0.78443 0.85624 0.0
C930 C 0.70911 0.84233 0.79585 0.0
C931 C 0.669 0.82284 0.78307 0.0
C932 C 0.62537 0.78147 0.78877 0.0
C933 C 0.62191 0.75897 0.80682 0.0
C934 C 0.66248 0.7782 0.81896 0.0
C935 C 0.70541 0.81887 0.81368 0.0
C936 C 0.74592 0.82722 0.82758 0.0
C937 C 0.78779 0.82685 0.81646 0.0
C938 C 0.76373 0.87445 0.83914 0.0
C939 C 0.7197 0.78357 0.84086 0.0
C940 C 0.67122 0.75649 0.83598 0.0
C941 C 0.64122 0.711 0.84414 0.0
C942 C 0.66176 0.69162 0.85679 0.0
C943 C 0.7116 0.71784 0.86119 0.0
C944 C 0.7404 0.76505 0.85384 0.0
H945 H 0.88094 0.63835 0.941 0.0
H946 H 0.80488 0.71033 0.96191 0.0
H947 H 0.84781 0.72645 0.99368 0.0
H948 H 0.88896 0.58654 0.98936 0.0
H949 H 0.94873 0.59744 0.98375 0.0
H950 H 0.90551 0.5839 0.96429 0.0
H951 H 0.96626 0.66304 0.94641 0.0
H952 H 0.00948 0.67657 0.96571 0.0
H953 H 0.99109 0.71979 0.95934 0.0
H954 H 0.90901 0.74599 0.02112 0.0
H955 H 0.98311 0.76844 0.0405 0.0
H956 H 0.01671 0.68199 0.00154 0.0
C957 C 0.87219 0.65624 0.95245 0.0
C958 C 0.83941 0.67286 0.94901 0.0
C959 C 0.82964 0.69693 0.96427 0.0
C960 C 0.85376 0.70612 0.98239 0.0
C961 C 0.88706 0.69048 0.98511 0.0
C962 C 0.89586 0.66563 0.97055 0.0
C963 C 0.93694 0.6573 0.97608 0.0
C964 C 0.91894 0.60306 0.97852 0.0
C965 C 0.97836 0.68058 0.961 0.0
C966 C 0.95144 0.68323 0.99561 0.0
C967 C 0.92187 0.70146 0.00085 0.0
C968 C 0.9317 0.73091 0.01739 0.0
C969 C 0.97369 0.7433 0.02839 0.0
C970 C 0.00542 0.7267 0.02258 0.0
C971 C 0.99286 0.69484 0.00645 0.0
H972 H 0.12516 0.8721 0.118 0.0
H973 H 0.21781 0.80926 0.11794 0.0
H974 H 0.25461 0.85081 0.14925 0.0
H975 H 0.21447 0.98465 0.1309 0.0
H976 H 0.178 0.00077 0.14576 0.0
H977 H 0.15038 0.95692 0.12648 0.0
H978 H 0.09046 0.89465 0.15149 0.0
H979 H 0.118 0.93854 0.17091 0.0
H980 H 0.11344 0.88013 0.17306 0.0
H981 H 0.28986 0.90824 0.17721 0.0
H982 H 0.32538 0.98185 0.1979 0.0
H983 H 0.21366 0.01166 0.17886 0.0
C984 C 0.15164 0.86551 0.12514 0.0
C985 C 0.16779 0.83646 0.11606 0.0
C986 C 0.20438 0.83058 0.12505 0.0
C987 C 0.2253 0.85391 0.14282 0.0
C988 C 0.20965 0.88357 0.15122 0.0
C989 C 0.17379 0.88968 0.14261 0.0
C990 C 0.16937 0.92971 0.15263 0.0
C991 C 0.17863 0.97039 0.13808 0.0
C992 C 0.11987 0.90954 0.16262 0.0
C993 C 0.20953 0.94641 0.16769 0.0
C994 C 0.23142 0.91842 0.16701 0.0
C995 C 0.27226 0.92963 0.17824 0.0
C996 C 0.2921 0.97128 0.19 0.0
C997 C 0.27123 0.00119 0.19029 0.0
C998 C 0.22899 0.98813 0.17935 0.0
H999 H 0.37142 0.22909 0.28162 0.0
H1000 H 0.27789 0.07807 0.29637 0.0
H1001 H 0.25982 0.10216 0.32838 0.0
H1002 H 0.41431 0.27527 0.33302 0.0
H1003 H 0.41246 0.32972 0.32793 0.0
H1004 H 0.42673 0.30034 0.30859 0.0
H1005 H 0.35695 0.29578 0.28747 0.0
H1006 H 0.34266 0.32506 0.30664 0.0
H1007 H 0.29665 0.26716 0.29749 0.0
H1008 H 0.24067 0.14344 0.35599 0.0
H1009 H 0.22 0.19696 0.37496 0.0
H1010 H 0.3254 0.32001 0.34154 0.0
C1011 C 0.34848 0.20095 0.29185 0.0
C1012 C 0.32634 0.15171 0.28655 0.0
C1013 C 0.29568 0.11605 0.3002 0.0
C1014 C 0.28531 0.12944 0.31845 0.0
C1015 C 0.30629 0.17857 0.3229 0.0
C1016 C 0.33761 0.21371 0.30996 0.0
C1017 C 0.35019 0.26378 0.31668 0.0
C1018 C 0.40413 0.29406 0.32187 0.0
C1019 C 0.33571 0.28938 0.30116 0.0
C1020 C 0.31909 0.25135 0.33485 0.0
C1021 C 0.29492 0.2022 0.33859 0.0
C1022 C 0.26033 0.18208 0.35349 0.0
C1023 C 0.24897 0.2127 0.36428 0.0
C1024 C 0.27156 0.26256 0.3598 0.0
C1025 C 0.30823 0.2821 0.34545 0.0
H1026 H 0.11197 0.34865 0.44181 0.0
H1027 H 0.19079 0.28001 0.46336 0.0
H1028 H 0.14512 0.26072 0.49455 0.0
H1029 H 0.09825 0.39687 0.48967 0.0
H1030 H 0.03807 0.38394 0.48347 0.0
H1031 H 0.08252 0.39911 0.46442 0.0
H1032 H 0.02443 0.31945 0.44622 0.0
H1033 H 0.98005 0.30399 0.46521 0.0
H1034 H 0.00097 0.26266 0.45902 0.0
H1035 H 0.08292 0.23988 0.52171 0.0
H1036 H 0.01036 0.21906 0.5417 0.0
H1037 H 0.97323 0.30136 0.50171 0.0
C1038 C 0.12074 0.33083 0.45329 0.0
C1039 C 0.15524 0.31619 0.45021 0.0
C1040 C 0.16479 0.29196 0.46546 0.0
C1041 C 0.13905 0.28089 0.48324 0.0
C1042 C 0.1041 0.29454 0.48555 0.0
C1043 C 0.09526 0.31932 0.47099 0.0
C1044 C 0.0528 0.32581 0.47612 0.0
C1045 C 0.06889 0.37964 0.47857 0.0
C1046 C 0.01219 0.30152 0.46073 0.0
C1047 C 0.03807 0.29955 0.49556 0.0
C1048 C 0.06834 0.28227 0.50097 0.0
C1049 C 0.05949 0.25396 0.51776 0.0
C1050 C 0.01819 0.24235 0.52905 0.0
C1051 C 0.98602 0.25862 0.52336 0.0
C1052 C 0.99707 0.2885 0.50662 0.0
H1053 H 0.79223 0.99188 0.6877 0.0
H1054 H 0.68539 0.03095 0.7039 0.0
H1055 H 0.72727 0.10468 0.6836 0.0
H1056 H 0.90009 0.12096 0.67926 0.0
H1057 H 0.91846 0.10014 0.65812 0.0
H1058 H 0.89072 0.06041 0.67878 0.0
H1059 H 0.82607 0.99648 0.65558 0.0
H1060 H 0.85294 0.03598 0.63497 0.0
H1061 H 0.79003 0.01298 0.6406 0.0
H1062 H 0.76532 0.15931 0.65582 0.0
H1063 H 0.79837 0.19276 0.62315 0.0
H1064 H 0.8813 0.11926 0.62366 0.0
C1065 C 0.7798 0.01783 0.6879 0.0
C1066 C 0.7369 0.00719 0.69782 0.0
C1067 C 0.71922 0.03973 0.69686 0.0
C1068 C 0.74276 0.08153 0.68533 0.0
C1069 C 0.78358 0.08982 0.67473 0.0
C1070 C 0.80237 0.05913 0.67605 0.0
C1071 C 0.84036 0.0706 0.66038 0.0
C1072 C 0.89039 0.08915 0.6697 0.0
C1073 C 0.82648 0.02641 0.64711 0.0
C1074 C 0.83796 0.11055 0.64934 0.0
C1075 C 0.80569 0.12173 0.65814 0.0
C1076 C 0.79189 0.15219 0.64917 0.0
C1077 C 0.81061 0.17082 0.63059 0.0
C1078 C 0.84299 0.15924 0.62124 0.0
C1079 C 0.85797 0.12996 0.63094 0.0
loop_
_geom_bond_atom_site_label_1
_geom_bond_atom_site_label_2
_geom_bond_distance
_geom_bond_site_symmetry_2
_ccdc_geom_bond_type
Mn0 O5 2.095 . S
Mn0 O15 2.162 . S
Mn0 O16 2.297 . S
Mn0 O24 2.385 . S
Mn0 O25 2.209 . S
Mn0 O26 2.094 . S
Mn1 O6 2.121 . S
Mn1 N8 2.257 . S
Mn1 N17 2.282 . S
Mn1 O25 2.215 . S
Mn1 O27 2.117 . S
C2 O24 1.234 . S
C2 O25 1.283 . S
C3 O15 1.281 . S
C3 O16 1.236 . S
C4 O26 1.240 . S
C4 O27 1.264 . S
O5 Mn0 2.095 . S
O5 C14 1.250 . S
O6 Mn1 2.121 . S
O6 C14 1.258 . S
C7 N8 1.326 . S
C7 C11 1.460 . S
C7 H13 0.929 . S
N8 Mn1 2.257 . S
N8 C7 1.326 . S
N8 C12 1.362 . S
C9 C10 1.258 . S
C9 C12 1.431 . S
C9 C29 1.449 . S
C10 C9 1.258 . S
C10 C11 1.477 . S
C10 H30 0.931 . S
C11 C7 1.460 . S
C11 C10 1.477 . S
C11 H31 0.930 . S
C12 N8 1.362 . S
C12 C9 1.431 . S
C12 C22 1.476 . S
H13 C7 0.929 . S
C14 O5 1.250 . S
C14 O6 1.258 . S
O15 Mn0 2.162 . S
O15 C3 1.281 . S
O16 Mn0 2.297 . S
O16 C3 1.236 . S
N17 Mn1 2.282 . S
N17 C18 1.328 . S
N17 C22 1.318 . S
C18 N17 1.328 . S
C18 C19 1.457 . S
C18 H23 0.929 . S
C19 C18 1.457 . S
C19 C20 1.291 . S
C19 H32 0.931 . S
C20 C19 1.291 . S
C20 C21 1.373 . S
C20 H33 0.929 . S
C21 C20 1.373 . S
C21 C22 1.396 . S
C21 C28 1.403 . S
C22 C12 1.476 . S
C22 N17 1.318 . S
C22 C21 1.396 . S
H23 C18 0.929 . S
O24 Mn0 2.385 . S
O24 C2 1.234 . S
O25 Mn0 2.209 . S
O25 Mn1 2.215 . S
O25 C2 1.283 . S
O26 Mn0 2.094 . S
O26 C4 1.240 . S
O27 Mn1 2.117 . S
O27 C4 1.264 . S
C28 C21 1.403 . S
C28 C29 1.399 . S
C28 H34 0.929 . S
C29 C9 1.449 . S
C29 C28 1.399 . S
C29 H35 0.930 . S
H30 C10 0.931 . S
H31 C11 0.930 . S
H32 C19 0.931 . S
H33 C20 0.929 . S
H34 C28 0.929 . S
H35 C29 0.930 . S
Mn36 O41 2.095 . S
Mn36 O51 2.162 . S
Mn36 O52 2.297 . S
Mn36 O60 2.385 . S
Mn36 O61 2.209 . S
Mn36 O62 2.094 . S
Mn37 O42 2.121 . S
Mn37 N44 2.257 . S
Mn37 N53 2.282 . S
Mn37 O61 2.215 . S
Mn37 O63 2.117 . S
C38 O60 1.234 . S
C38 O61 1.283 . S
C39 O51 1.281 . S
C39 O52 1.236 . S
C40 O62 1.240 . S
C40 O63 1.264 . S
O41 Mn36 2.095 . S
O41 C50 1.250 . S
O42 Mn37 2.121 . S
O42 C50 1.258 . S
C43 N44 1.326 . S
C43 C47 1.460 . S
C43 H49 0.929 . S
N44 Mn37 2.257 . S
N44 C43 1.326 . S
N44 C48 1.362 . S
C45 C46 1.258 . S
C45 C48 1.431 . S
C45 C65 1.449 . S
C46 C45 1.258 . S
C46 C47 1.477 . S
C46 H66 0.931 . S
C47 C43 1.460 . S
C47 C46 1.477 . S
C47 H67 0.930 . S
C48 N44 1.362 . S
C48 C45 1.431 . S
C48 C58 1.476 . S
H49 C43 0.929 . S
C50 O41 1.250 . S
C50 O42 1.258 . S
O51 Mn36 2.162 . S
O51 C39 1.281 . S
O52 Mn36 2.297 . S
O52 C39 1.236 . S
N53 Mn37 2.282 . S
N53 C54 1.328 . S
N53 C58 1.318 . S
C54 N53 1.328 . S
C54 C55 1.457 . S
C54 H59 0.929 . S
C55 C54 1.457 . S
C55 C56 1.291 . S
C55 H68 0.931 . S
C56 C55 1.291 . S
C56 C57 1.373 . S
C56 H69 0.929 . S
C57 C56 1.373 . S
C57 C58 1.396 . S
C57 C64 1.403 . S
C58 C48 1.476 . S
C58 N53 1.318 . S
C58 C57 1.396 . S
H59 C54 0.929 . S
O60 Mn36 2.385 . S
O60 C38 1.234 . S
O61 Mn36 2.209 . S
O61 Mn37 2.215 . S
O61 C38 1.283 . S
O62 Mn36 2.094 . S
O62 C40 1.240 . S
O63 Mn37 2.117 . S
O63 C40 1.264 . S
C64 C57 1.403 . S
C64 C65 1.399 . S
C64 H70 0.929 . S
C65 C45 1.449 . S
C65 C64 1.399 . S
C65 H71 0.930 . S
H66 C46 0.931 . S
H67 C47 0.930 . S
H68 C55 0.931 . S
H69 C56 0.929 . S
H70 C64 0.929 . S
H71 C65 0.930 . S
Mn72 O77 2.095 . S
Mn72 O87 2.162 . S
Mn72 O88 2.297 . S
Mn72 O96 2.385 . S
Mn72 O97 2.209 . S
Mn72 O98 2.094 . S
Mn73 O78 2.121 . S
Mn73 N80 2.257 . S
Mn73 N89 2.282 . S
Mn73 O97 2.215 . S
Mn73 O99 2.117 . S
C74 O96 1.234 . S
C74 O97 1.283 . S
C75 O87 1.281 . S
C75 O88 1.236 . S
C76 O98 1.240 . S
C76 O99 1.264 . S
O77 Mn72 2.095 . S
O77 C86 1.250 . S
O78 Mn73 2.121 . S
O78 C86 1.258 . S
C79 N80 1.326 . S
C79 C83 1.460 . S
C79 H85 0.929 . S
N80 Mn73 2.257 . S
N80 C79 1.326 . S
N80 C84 1.362 . S
C81 C82 1.258 . S
C81 C84 1.431 . S
C81 C101 1.449 . S
C82 C81 1.258 . S
C82 C83 1.477 . S
C82 H102 0.931 . S
C83 C79 1.460 . S
C83 C82 1.477 . S
C83 H103 0.930 . S
C84 N80 1.362 . S
C84 C81 1.431 . S
C84 C94 1.476 . S
H85 C79 0.929 . S
C86 O77 1.250 . S
C86 O78 1.258 . S
O87 Mn72 2.162 . S
O87 C75 1.281 . S
O88 Mn72 2.297 . S
O88 C75 1.236 . S
N89 Mn73 2.282 . S
N89 C90 1.328 . S
N89 C94 1.318 . S
C90 N89 1.328 . S
C90 C91 1.457 . S
C90 H95 0.929 . S
C91 C90 1.457 . S
C91 C92 1.291 . S
C91 H104 0.931 . S
C92 C91 1.291 . S
C92 C93 1.373 . S
C92 H105 0.929 . S
C93 C92 1.373 . S
C93 C94 1.396 . S
C93 C100 1.403 . S
C94 C84 1.476 . S
C94 N89 1.318 . S
C94 C93 1.396 . S
H95 C90 0.929 . S
O96 Mn72 2.385 . S
O96 C74 1.234 . S
O97 Mn72 2.209 . S
O97 Mn73 2.215 . S
O97 C74 1.283 . S
O98 Mn72 2.094 . S
O98 C76 1.240 . S
O99 Mn73 2.117 . S
O99 C76 1.264 . S
C100 C93 1.403 . S
C100 C101 1.399 . S
C100 H106 0.929 . S
C101 C81 1.449 . S
C101 C100 1.399 . S
C101 H107 0.930 . S
H102 C82 0.931 . S
H103 C83 0.930 . S
H104 C91 0.931 . S
H105 C92 0.929 . S
H106 C100 0.929 . S
H107 C101 0.930 . S
Mn108 O113 2.095 . S
Mn108 O123 2.162 . S
Mn108 O124 2.297 . S
Mn108 O132 2.385 . S
Mn108 O133 2.209 . S
Mn108 O134 2.094 . S
Mn109 O114 2.121 . S
Mn109 N116 2.257 . S
Mn109 N125 2.282 . S
Mn109 O133 2.215 . S
Mn109 O135 2.117 . S
C110 O132 1.234 . S
C110 O133 1.283 . S
C111 O123 1.281 . S
C111 O124 1.236 . S
C112 O134 1.240 . S
C112 O135 1.264 . S
O113 Mn108 2.095 . S
O113 C122 1.250 . S
O114 Mn109 2.121 . S
O114 C122 1.258 . S
C115 N116 1.326 . S
C115 C119 1.460 . S
C115 H121 0.929 . S
N116 Mn109 2.257 . S
N116 C115 1.326 . S
N116 C120 1.362 . S
C117 C118 1.258 . S
C117 C120 1.431 . S
C117 C137 1.449 . S
C118 C117 1.258 . S
C118 C119 1.477 . S
C118 H138 0.931 . S
C119 C115 1.460 . S
C119 C118 1.477 . S
C119 H139 0.930 . S
C120 N116 1.362 . S
C120 C117 1.431 . S
C120 C130 1.476 . S
H121 C115 0.929 . S
C122 O113 1.250 . S
C122 O114 1.258 . S
O123 Mn108 2.162 . S
O123 C111 1.281 . S
O124 Mn108 2.297 . S
O124 C111 1.236 . S
N125 Mn109 2.282 . S
N125 C126 1.328 . S
N125 C130 1.318 . S
C126 N125 1.328 . S
C126 C127 1.457 . S
C126 H131 0.929 . S
C127 C126 1.457 . S
C127 C128 1.291 . S
C127 H140 0.931 . S
C128 C127 1.291 . S
C128 C129 1.373 . S
C128 H141 0.929 . S
C129 C128 1.373 . S
C129 C130 1.396 . S
C129 C136 1.403 . S
C130 C120 1.476 . S
C130 N125 1.318 . S
C130 C129 1.396 . S
H131 C126 0.929 . S
O132 Mn108 2.385 . S
O132 C110 1.234 . S
O133 Mn108 2.209 . S
O133 Mn109 2.215 . S
O133 C110 1.283 . S
O134 Mn108 2.094 . S
O134 C112 1.240 . S
O135 Mn109 2.117 . S
O135 C112 1.264 . S
C136 C129 1.403 . S
C136 C137 1.399 . S
C136 H142 0.929 . S
C137 C117 1.449 . S
C137 C136 1.399 . S
C137 H143 0.930 . S
H138 C118 0.931 . S
H139 C119 0.930 . S
H140 C127 0.931 . S
H141 C128 0.929 . S
H142 C136 0.929 . S
H143 C137 0.930 . S
Mn144 O149 2.095 . S
Mn144 O159 2.162 . S
Mn144 O160 2.297 . S
Mn144 O168 2.385 . S
Mn144 O169 2.209 . S
Mn144 O170 2.094 . S
Mn145 O150 2.121 . S
Mn145 N152 2.257 . S
Mn145 N161 2.282 . S
Mn145 O169 2.215 . S
Mn145 O171 2.117 . S
C146 O168 1.234 . S
C146 O169 1.283 . S
C147 O159 1.281 . S
C147 O160 1.236 . S
C148 O170 1.240 . S
C148 O171 1.264 . S
O149 Mn144 2.095 . S
O149 C158 1.250 . S
O150 Mn145 2.121 . S
O150 C158 1.258 . S
C151 N152 1.326 . S
C151 C155 1.460 . S
C151 H157 0.929 . S
N152 Mn145 2.257 . S
N152 C151 1.326 . S
N152 C156 1.362 . S
C153 C154 1.258 . S
C153 C156 1.431 . S
C153 C173 1.449 . S
C154 C153 1.258 . S
C154 C155 1.477 . S
C154 H174 0.931 . S
C155 C151 1.460 . S
C155 C154 1.477 . S
C155 H175 0.930 . S
C156 N152 1.362 . S
C156 C153 1.431 . S
C156 C166 1.476 . S
H157 C151 0.929 . S
C158 O149 1.250 . S
C158 O150 1.258 . S
O159 Mn144 2.162 . S
O159 C147 1.281 . S
O160 Mn144 2.297 . S
O160 C147 1.236 . S
N161 Mn145 2.282 . S
N161 C162 1.328 . S
N161 C166 1.318 . S
C162 N161 1.328 . S
C162 C163 1.457 . S
C162 H167 0.929 . S
C163 C162 1.457 . S
C163 C164 1.291 . S
C163 H176 0.931 . S
C164 C163 1.291 . S
C164 C165 1.373 . S
C164 H177 0.929 . S
C165 C164 1.373 . S
C165 C166 1.396 . S
C165 C172 1.403 . S
C166 C156 1.476 . S
C166 N161 1.318 . S
C166 C165 1.396 . S
H167 C162 0.929 . S
O168 Mn144 2.385 . S
O168 C146 1.234 . S
O169 Mn144 2.209 . S
O169 Mn145 2.215 . S
O169 C146 1.283 . S
O170 Mn144 2.094 . S
O170 C148 1.240 . S
O171 Mn145 2.117 . S
O171 C148 1.264 . S
C172 C165 1.403 . S
C172 C173 1.399 . S
C172 H178 0.929 . S
C173 C153 1.449 . S
C173 C172 1.399 . S
C173 H179 0.930 . S
H174 C154 0.931 . S
H175 C155 0.930 . S
H176 C163 0.931 . S
H177 C164 0.929 . S
H178 C172 0.929 . S
H179 C173 0.930 . S
Mn180 O185 2.095 . S
Mn180 O195 2.162 . S
Mn180 O196 2.297 . S
Mn180 O204 2.385 . S
Mn180 O205 2.209 . S
Mn180 O206 2.094 . S
Mn181 O186 2.121 . S
Mn181 N188 2.257 . S
Mn181 N197 2.282 1_556 S
Mn181 O205 2.215 . S
Mn181 O207 2.117 . S
C182 O204 1.234 . S
C182 O205 1.283 . S
C183 O195 1.281 . S
C183 O196 1.236 . S
C184 O206 1.240 . S
C184 O207 1.264 . S
O185 Mn180 2.095 . S
O185 C194 1.250 . S
O186 Mn181 2.121 . S
O186 C194 1.258 . S
C187 N188 1.326 . S
C187 C191 1.460 . S
C187 H193 0.929 . S
N188 Mn181 2.257 . S
N188 C187 1.326 . S
N188 C192 1.362 1_556 S
C189 C190 1.258 . S
C189 C192 1.431 . S
C189 C209 1.449 . S
C190 C189 1.258 . S
C190 C191 1.477 1_554 S
C190 H210 0.931 . S
C191 C187 1.460 . S
C191 C190 1.477 1_556 S
C191 H211 0.930 . S
C192 N188 1.362 1_554 S
C192 C189 1.431 . S
C192 C202 1.476 . S
H193 C187 0.929 . S
C194 O185 1.250 . S
C194 O186 1.258 . S
O195 Mn180 2.162 . S
O195 C183 1.281 . S
O196 Mn180 2.297 . S
O196 C183 1.236 . S
N197 Mn181 2.282 1_554 S
N197 C198 1.328 . S
N197 C202 1.318 . S
C198 N197 1.328 . S
C198 C199 1.457 . S
C198 H203 0.929 . S
C199 C198 1.457 . S
C199 C200 1.291 . S
C199 H212 0.931 . S
C200 C199 1.291 . S
C200 C201 1.373 . S
C200 H213 0.929 . S
C201 C200 1.373 . S
C201 C202 1.396 . S
C201 C208 1.403 . S
C202 C192 1.476 . S
C202 N197 1.318 . S
C202 C201 1.396 . S
H203 C198 0.929 . S
O204 Mn180 2.385 . S
O204 C182 1.234 . S
O205 Mn180 2.209 . S
O205 Mn181 2.215 . S
O205 C182 1.283 . S
O206 Mn180 2.094 . S
O206 C184 1.240 . S
O207 Mn181 2.117 . S
O207 C184 1.264 . S
C208 C201 1.403 . S
C208 C209 1.399 . S
C208 H214 0.929 . S
C209 C189 1.449 . S
C209 C208 1.399 . S
C209 H215 0.930 . S
H210 C190 0.931 . S
H211 C191 0.930 . S
H212 C199 0.931 . S
H213 C200 0.929 . S
H214 C208 0.929 . S
H215 C209 0.930 . S
Mn216 O221 2.095 . S
Mn216 O231 2.162 . S
Mn216 O232 2.297 . S
Mn216 O240 2.385 . S
Mn216 O241 2.209 . S
Mn216 O242 2.094 . S
Mn217 O222 2.121 . S
Mn217 N224 2.257 . S
Mn217 N233 2.282 . S
Mn217 O241 2.215 . S
Mn217 O243 2.117 . S
C218 O240 1.234 . S
C218 O241 1.283 . S
C219 O231 1.281 . S
C219 O232 1.236 . S
C220 O242 1.240 . S
C220 O243 1.264 . S
O221 Mn216 2.095 . S
O221 C230 1.250 . S
O222 Mn217 2.121 . S
O222 C230 1.258 . S
C223 N224 1.326 . S
C223 C227 1.460 . S
C223 H229 0.929 . S
N224 Mn217 2.257 . S
N224 C223 1.326 . S
N224 C228 1.362 . S
C225 C226 1.258 . S
C225 C228 1.431 . S
C225 C245 1.449 . S
C226 C225 1.258 . S
C226 C227 1.477 . S
C226 H246 0.931 . S
C227 C223 1.460 . S
C227 C226 1.477 . S
C227 H247 0.930 . S
C228 N224 1.362 . S
C228 C225 1.431 . S
C228 C238 1.476 . S
H229 C223 0.929 . S
C230 O221 1.250 . S
C230 O222 1.258 . S
O231 Mn216 2.162 . S
O231 C219 1.281 . S
O232 Mn216 2.297 . S
O232 C219 1.236 . S
N233 Mn217 2.282 . S
N233 C234 1.328 . S
N233 C238 1.318 . S
C234 N233 1.328 . S
C234 C235 1.457 . S
C234 H239 0.929 . S
C235 C234 1.457 . S
C235 C236 1.291 . S
C235 H248 0.931 . S
C236 C235 1.291 . S
C236 C237 1.373 . S
C236 H249 0.929 . S
C237 C236 1.373 . S
C237 C238 1.396 . S
C237 C244 1.403 . S
C238 C228 1.476 . S
C238 N233 1.318 . S
C238 C237 1.396 . S
H239 C234 0.929 . S
O240 Mn216 2.385 . S
O240 C218 1.234 . S
O241 Mn216 2.209 . S
O241 Mn217 2.215 . S
O241 C218 1.283 . S
O242 Mn216 2.094 . S
O242 C220 1.240 . S
O243 Mn217 2.117 . S
O243 C220 1.264 . S
C244 C237 1.403 . S
C244 C245 1.399 . S
C244 H250 0.929 . S
C245 C225 1.449 . S
C245 C244 1.399 . S
C245 H251 0.930 . S
H246 C226 0.931 . S
H247 C227 0.930 . S
H248 C235 0.931 . S
H249 C236 0.929 . S
H250 C244 0.929 . S
H251 C245 0.930 . S
Mn252 O257 2.095 . S
Mn252 O267 2.162 . S
Mn252 O268 2.297 . S
Mn252 O276 2.385 . S
Mn252 O277 2.209 . S
Mn252 O278 2.094 . S
Mn253 O258 2.121 . S
Mn253 N260 2.257 . S
Mn253 N269 2.282 . S
Mn253 O277 2.215 . S
Mn253 O279 2.117 . S
C254 O276 1.234 . S
C254 O277 1.283 . S
C255 O267 1.281 . S
C255 O268 1.236 . S
C256 O278 1.240 . S
C256 O279 1.264 . S
O257 Mn252 2.095 . S
O257 C266 1.250 . S
O258 Mn253 2.121 . S
O258 C266 1.258 . S
C259 N260 1.326 . S
C259 C263 1.460 . S
C259 H265 0.929 . S
N260 Mn253 2.257 . S
N260 C259 1.326 . S
N260 C264 1.362 . S
C261 C262 1.258 . S
C261 C264 1.431 . S
C261 C281 1.449 . S
C262 C261 1.258 . S
C262 C263 1.477 . S
C262 H282 0.931 . S
C263 C259 1.460 . S
C263 C262 1.477 . S
C263 H283 0.930 . S
C264 N260 1.362 . S
C264 C261 1.431 . S
C264 C274 1.476 . S
H265 C259 0.929 . S
C266 O257 1.250 . S
C266 O258 1.258 . S
O267 Mn252 2.162 . S
O267 C255 1.281 . S
O268 Mn252 2.297 . S
O268 C255 1.236 . S
N269 Mn253 2.282 . S
N269 C270 1.328 . S
N269 C274 1.318 . S
C270 N269 1.328 . S
C270 C271 1.457 . S
C270 H275 0.929 . S
C271 C270 1.457 . S
C271 C272 1.291 . S
C271 H284 0.931 . S
C272 C271 1.291 . S
C272 C273 1.373 . S
C272 H285 0.929 . S
C273 C272 1.373 . S
C273 C274 1.396 . S
C273 C280 1.403 . S
C274 C264 1.476 . S
C274 N269 1.318 . S
C274 C273 1.396 . S
H275 C270 0.929 . S
O276 Mn252 2.385 . S
O276 C254 1.234 . S
O277 Mn252 2.209 . S
O277 Mn253 2.215 . S
O277 C254 1.283 . S
O278 Mn252 2.094 . S
O278 C256 1.240 . S
O279 Mn253 2.117 . S
O279 C256 1.264 . S
C280 C273 1.403 . S
C280 C281 1.399 . S
C280 H286 0.929 . S
C281 C261 1.449 . S
C281 C280 1.399 . S
C281 H287 0.930 . S
H282 C262 0.931 . S
H283 C263 0.930 . S
H284 C271 0.931 . S
H285 C272 0.929 . S
H286 C280 0.929 . S
H287 C281 0.930 . S
Mn288 O293 2.095 . S
Mn288 O303 2.162 . S
Mn288 O304 2.297 . S
Mn288 O312 2.385 . S
Mn288 O313 2.209 . S
Mn288 O314 2.094 . S
Mn289 O294 2.121 . S
Mn289 N296 2.257 . S
Mn289 N305 2.282 1_554 S
Mn289 O313 2.215 . S
Mn289 O315 2.117 . S
C290 O312 1.234 . S
C290 O313 1.283 . S
C291 O303 1.281 . S
C291 O304 1.236 . S
C292 O314 1.240 . S
C292 O315 1.264 . S
O293 Mn288 2.095 . S
O293 C302 1.250 . S
O294 Mn289 2.121 . S
O294 C302 1.258 . S
C295 N296 1.326 . S
C295 C299 1.460 . S
C295 H301 0.929 . S
N296 Mn289 2.257 . S
N296 C295 1.326 . S
N296 C300 1.362 1_554 S
C297 C298 1.258 . S
C297 C300 1.431 . S
C297 C317 1.449 . S
C298 C297 1.258 . S
C298 C299 1.477 1_556 S
C298 H318 0.931 . S
C299 C295 1.460 . S
C299 C298 1.477 1_554 S
C299 H319 0.930 . S
C300 N296 1.362 1_556 S
C300 C297 1.431 . S
C300 C310 1.476 . S
H301 C295 0.929 . S
C302 O293 1.250 . S
C302 O294 1.258 . S
O303 Mn288 2.162 . S
O303 C291 1.281 . S
O304 Mn288 2.297 . S
O304 C291 1.236 . S
N305 Mn289 2.282 1_556 S
N305 C306 1.328 . S
N305 C310 1.318 . S
C306 N305 1.328 . S
C306 C307 1.457 . S
C306 H311 0.929 . S
C307 C306 1.457 . S
C307 C308 1.291 . S
C307 H320 0.931 . S
C308 C307 1.291 . S
C308 C309 1.373 . S
C308 H321 0.929 . S
C309 C308 1.373 . S
C309 C310 1.396 . S
C309 C316 1.403 . S
C310 C300 1.476 . S
C310 N305 1.318 . S
C310 C309 1.396 . S
H311 C306 0.929 . S
O312 Mn288 2.385 . S
O312 C290 1.234 . S
O313 Mn288 2.209 . S
O313 Mn289 2.215 . S
O313 C290 1.283 . S
O314 Mn288 2.094 . S
O314 C292 1.240 . S
O315 Mn289 2.117 . S
O315 C292 1.264 . S
C316 C309 1.403 . S
C316 C317 1.399 . S
C316 H322 0.929 . S
C317 C297 1.449 . S
C317 C316 1.399 . S
C317 H323 0.930 . S
H318 C298 0.931 . S
H319 C299 0.930 . S
H320 C307 0.931 . S
H321 C308 0.929 . S
H322 C316 0.929 . S
H323 C317 0.930 . S
Mn324 O329 2.095 . S
Mn324 O339 2.162 . S
Mn324 O340 2.297 . S
Mn324 O348 2.385 . S
Mn324 O349 2.209 . S
Mn324 O350 2.094 . S
Mn325 O330 2.121 . S
Mn325 N332 2.257 . S
Mn325 N341 2.282 . S
Mn325 O349 2.215 . S
Mn325 O351 2.117 . S
C326 O348 1.234 . S
C326 O349 1.283 . S
C327 O339 1.281 . S
C327 O340 1.236 . S
C328 O350 1.240 . S
C328 O351 1.264 . S
O329 Mn324 2.095 . S
O329 C338 1.250 . S
O330 Mn325 2.121 . S
O330 C338 1.258 . S
C331 N332 1.326 . S
C331 C335 1.460 . S
C331 H337 0.929 . S
N332 Mn325 2.257 . S
N332 C331 1.326 . S
N332 C336 1.362 . S
C333 C334 1.258 . S
C333 C336 1.431 . S
C333 C353 1.449 . S
C334 C333 1.258 . S
C334 C335 1.477 . S
C334 H354 0.931 . S
C335 C331 1.460 . S
C335 C334 1.477 . S
C335 H355 0.930 . S
C336 N332 1.362 . S
C336 C333 1.431 . S
C336 C346 1.476 . S
H337 C331 0.929 . S
C338 O329 1.250 . S
C338 O330 1.258 . S
O339 Mn324 2.162 . S
O339 C327 1.281 . S
O340 Mn324 2.297 . S
O340 C327 1.236 . S
N341 Mn325 2.282 . S
N341 C342 1.328 . S
N341 C346 1.318 . S
C342 N341 1.328 . S
C342 C343 1.457 . S
C342 H347 0.929 . S
C343 C342 1.457 . S
C343 C344 1.291 . S
C343 H356 0.931 . S
C344 C343 1.291 . S
C344 C345 1.373 . S
C344 H357 0.929 . S
C345 C344 1.373 . S
C345 C346 1.396 . S
C345 C352 1.403 . S
C346 C336 1.476 . S
C346 N341 1.318 . S
C346 C345 1.396 . S
H347 C342 0.929 . S
O348 Mn324 2.385 . S
O348 C326 1.234 . S
O349 Mn324 2.209 . S
O349 Mn325 2.215 . S
O349 C326 1.283 . S
O350 Mn324 2.094 . S
O350 C328 1.240 . S
O351 Mn325 2.117 . S
O351 C328 1.264 . S
C352 C345 1.403 . S
C352 C353 1.399 . S
C352 H358 0.929 . S
C353 C333 1.449 . S
C353 C352 1.399 . S
C353 H359 0.930 . S
H354 C334 0.931 . S
H355 C335 0.930 . S
H356 C343 0.931 . S
H357 C344 0.929 . S
H358 C352 0.929 . S
H359 C353 0.930 . S
Mn360 O365 2.095 . S
Mn360 O375 2.162 . S
Mn360 O376 2.297 . S
Mn360 O384 2.385 . S
Mn360 O385 2.209 . S
Mn360 O386 2.094 . S
Mn361 O366 2.121 . S
Mn361 N368 2.257 . S
Mn361 N377 2.282 . S
Mn361 O385 2.215 . S
Mn361 O387 2.117 . S
C362 O384 1.234 . S
C362 O385 1.283 . S
C363 O375 1.281 . S
C363 O376 1.236 . S
C364 O386 1.240 . S
C364 O387 1.264 . S
O365 Mn360 2.095 . S
O365 C374 1.250 . S
O366 Mn361 2.121 . S
O366 C374 1.258 . S
C367 N368 1.326 . S
C367 C371 1.460 . S
C367 H373 0.929 . S
N368 Mn361 2.257 . S
N368 C367 1.326 . S
N368 C372 1.362 . S
C369 C370 1.258 . S
C369 C372 1.431 . S
C369 C389 1.449 . S
C370 C369 1.258 . S
C370 C371 1.477 . S
C370 H390 0.931 . S
C371 C367 1.460 . S
C371 C370 1.477 . S
C371 H391 0.930 . S
C372 N368 1.362 . S
C372 C369 1.431 . S
C372 C382 1.476 . S
H373 C367 0.929 . S
C374 O365 1.250 . S
C374 O366 1.258 . S
O375 Mn360 2.162 . S
O375 C363 1.281 . S
O376 Mn360 2.297 . S
O376 C363 1.236 . S
N377 Mn361 2.282 . S
N377 C378 1.328 . S
N377 C382 1.318 . S
C378 N377 1.328 . S
C378 C379 1.457 . S
C378 H383 0.929 . S
C379 C378 1.457 . S
C379 C380 1.291 . S
C379 H392 0.931 . S
C380 C379 1.291 . S
C380 C381 1.373 . S
C380 H393 0.929 . S
C381 C380 1.373 . S
C381 C382 1.396 . S
C381 C388 1.403 . S
C382 C372 1.476 . S
C382 N377 1.318 . S
C382 C381 1.396 . S
H383 C378 0.929 . S
O384 Mn360 2.385 . S
O384 C362 1.234 . S
O385 Mn360 2.209 . S
O385 Mn361 2.215 . S
O385 C362 1.283 . S
O386 Mn360 2.094 . S
O386 C364 1.240 . S
O387 Mn361 2.117 . S
O387 C364 1.264 . S
C388 C381 1.403 . S
C388 C389 1.399 . S
C388 H394 0.929 . S
C389 C369 1.449 . S
C389 C388 1.399 . S
C389 H395 0.930 . S
H390 C370 0.931 . S
H391 C371 0.930 . S
H392 C379 0.931 . S
H393 C380 0.929 . S
H394 C388 0.929 . S
H395 C389 0.930 . S
Mn396 O401 2.095 . S
Mn396 O411 2.162 . S
Mn396 O412 2.297 . S
Mn396 O420 2.385 . S
Mn396 O421 2.209 . S
Mn396 O422 2.094 . S
Mn397 O402 2.121 . S
Mn397 N404 2.257 . S
Mn397 N413 2.282 . S
Mn397 O421 2.215 . S
Mn397 O423 2.117 . S
C398 O420 1.234 . S
C398 O421 1.283 . S
C399 O411 1.281 . S
C399 O412 1.236 . S
C400 O422 1.240 . S
C400 O423 1.264 . S
O401 Mn396 2.095 . S
O401 C410 1.250 . S
O402 Mn397 2.121 . S
O402 C410 1.258 . S
C403 N404 1.326 . S
C403 C407 1.460 . S
C403 H409 0.929 . S
N404 Mn397 2.257 . S
N404 C403 1.326 . S
N404 C408 1.362 . S
C405 C406 1.258 . S
C405 C408 1.431 . S
C405 C425 1.449 . S
C406 C405 1.258 . S
C406 C407 1.477 . S
C406 H426 0.931 . S
C407 C403 1.460 . S
C407 C406 1.477 . S
C407 H427 0.930 . S
C408 N404 1.362 . S
C408 C405 1.431 . S
C408 C418 1.476 . S
H409 C403 0.929 . S
C410 O401 1.250 . S
C410 O402 1.258 . S
O411 Mn396 2.162 . S
O411 C399 1.281 . S
O412 Mn396 2.297 . S
O412 C399 1.236 . S
N413 Mn397 2.282 . S
N413 C414 1.328 . S
N413 C418 1.318 . S
C414 N413 1.328 . S
C414 C415 1.457 . S
C414 H419 0.929 . S
C415 C414 1.457 . S
C415 C416 1.291 . S
C415 H428 0.931 . S
C416 C415 1.291 . S
C416 C417 1.373 . S
C416 H429 0.929 . S
C417 C416 1.373 . S
C417 C418 1.396 . S
C417 C424 1.403 . S
C418 C408 1.476 . S
C418 N413 1.318 . S
C418 C417 1.396 . S
H419 C414 0.929 . S
O420 Mn396 2.385 . S
O420 C398 1.234 . S
O421 Mn396 2.209 . S
O421 Mn397 2.215 . S
O421 C398 1.283 . S
O422 Mn396 2.094 . S
O422 C400 1.240 . S
O423 Mn397 2.117 . S
O423 C400 1.264 . S
C424 C417 1.403 . S
C424 C425 1.399 . S
C424 H430 0.929 . S
C425 C405 1.449 . S
C425 C424 1.399 . S
C425 H431 0.930 . S
H426 C406 0.931 . S
H427 C407 0.930 . S
H428 C415 0.931 . S
H429 C416 0.929 . S
H430 C424 0.929 . S
H431 C425 0.930 . S
H432 C444 0.930 . S
H433 C446 0.930 . S
H434 C447 0.930 . S
H435 C451 0.959 . S
H436 C451 0.959 . S
H437 C451 0.961 . S
H438 C452 0.960 . S
H439 C452 0.961 . S
H440 C452 0.959 . S
H441 C455 0.929 . S
H442 C456 0.931 . S
H443 C458 0.930 . S
C444 H432 0.930 . S
C444 C445 1.399 . S
C444 C449 1.399 . S
C445 C444 1.399 . S
C445 C446 1.376 . S
C446 H433 0.930 . S
C446 C445 1.376 . S
C446 C447 1.388 . S
C447 H434 0.930 . S
C447 C446 1.388 . S
C447 C448 1.390 . S
C448 C447 1.390 . S
C448 C449 1.394 . S
C448 C454 1.465 . S
C449 C444 1.399 . S
C449 C448 1.394 . S
C449 C450 1.516 . S
C450 C449 1.516 . S
C450 C451 1.502 . S
C450 C452 1.561 . S
C450 C453 1.526 . S
C451 H435 0.959 . S
C451 H436 0.959 . S
C451 H437 0.961 . S
C451 C450 1.502 . S
C452 H438 0.960 . S
C452 H439 0.961 . S
C452 H440 0.959 . S
C452 C450 1.561 . S
C453 C450 1.526 . S
C453 C454 1.396 . S
C453 C458 1.390 . S
C454 C448 1.465 . S
C454 C453 1.396 . S
C454 C455 1.399 . S
C455 H441 0.929 . S
C455 C454 1.399 . S
C455 C456 1.385 . S
C456 H442 0.931 . S
C456 C455 1.385 . S
C456 C457 1.389 . S
C457 C456 1.389 . S
C457 C458 1.387 . S
C458 H443 0.930 . S
C458 C453 1.390 . S
C458 C457 1.387 . S
H459 C471 0.930 . S
H460 C473 0.930 . S
H461 C474 0.930 . S
H462 C478 0.959 . S
H463 C478 0.959 . S
H464 C478 0.961 . S
H465 C479 0.960 . S
H466 C479 0.961 . S
H467 C479 0.959 . S
H468 C482 0.929 . S
H469 C483 0.931 . S
H470 C485 0.930 . S
C471 H459 0.930 . S
C471 C472 1.399 . S
C471 C476 1.399 . S
C472 C471 1.399 . S
C472 C473 1.376 . S
C473 H460 0.930 . S
C473 C472 1.376 . S
C473 C474 1.388 . S
C474 H461 0.930 . S
C474 C473 1.388 . S
C474 C475 1.390 . S
C475 C474 1.390 . S
C475 C476 1.394 . S
C475 C481 1.465 . S
C476 C471 1.399 . S
C476 C475 1.394 . S
C476 C477 1.516 . S
C477 C476 1.516 . S
C477 C478 1.502 . S
C477 C479 1.561 . S
C477 C480 1.526 . S
C478 H462 0.959 . S
C478 H463 0.959 . S
C478 H464 0.961 . S
C478 C477 1.502 . S
C479 H465 0.960 . S
C479 H466 0.961 . S
C479 H467 0.959 . S
C479 C477 1.561 . S
C480 C477 1.526 . S
C480 C481 1.396 . S
C480 C485 1.390 . S
C481 C475 1.465 . S
C481 C480 1.396 . S
C481 C482 1.399 . S
C482 H468 0.929 . S
C482 C481 1.399 . S
C482 C483 1.385 . S
C483 H469 0.931 . S
C483 C482 1.385 . S
C483 C484 1.389 . S
C484 C483 1.389 . S
C484 C485 1.387 . S
C485 H470 0.930 . S
C485 C480 1.390 . S
C485 C484 1.387 . S
H486 C498 0.930 . S
H487 C500 0.930 . S
H488 C501 0.930 . S
H489 C505 0.959 . S
H490 C505 0.959 . S
H491 C505 0.961 . S
H492 C506 0.960 . S
H493 C506 0.961 . S
H494 C506 0.959 . S
H495 C509 0.929 . S
H496 C510 0.931 . S
H497 C512 0.930 . S
C498 H486 0.930 . S
C498 C499 1.399 . S
C498 C503 1.399 . S
C499 C498 1.399 . S
C499 C500 1.376 . S
C500 H487 0.930 . S
C500 C499 1.376 . S
C500 C501 1.388 . S
C501 H488 0.930 . S
C501 C500 1.388 . S
C501 C502 1.390 . S
C502 C501 1.390 . S
C502 C503 1.394 . S
C502 C508 1.465 . S
C503 C498 1.399 . S
C503 C502 1.394 . S
C503 C504 1.516 . S
C504 C503 1.516 . S
C504 C505 1.502 . S
C504 C506 1.561 . S
C504 C507 1.526 . S
C505 H489 0.959 . S
C505 H490 0.959 . S
C505 H491 0.961 . S
C505 C504 1.502 . S
C506 H492 0.960 . S
C506 H493 0.961 . S
C506 H494 0.959 . S
C506 C504 1.561 . S
C507 C504 1.526 . S
C507 C508 1.396 . S
C507 C512 1.390 . S
C508 C502 1.465 . S
C508 C507 1.396 . S
C508 C509 1.399 . S
C509 H495 0.929 . S
C509 C508 1.399 . S
C509 C510 1.385 . S
C510 H496 0.931 . S
C510 C509 1.385 . S
C510 C511 1.389 . S
C511 C510 1.389 . S
C511 C512 1.387 . S
C512 H497 0.930 . S
C512 C507 1.390 . S
C512 C511 1.387 . S
H513 C525 0.930 . S
H514 C527 0.930 . S
H515 C528 0.930 . S
H516 C532 0.959 . S
H517 C532 0.959 . S
H518 C532 0.961 . S
H519 C533 0.960 . S
H520 C533 0.961 . S
H521 C533 0.959 . S
H522 C536 0.929 . S
H523 C537 0.931 . S
H524 C539 0.930 . S
C525 H513 0.930 . S
C525 C526 1.399 . S
C525 C530 1.399 . S
C526 C525 1.399 . S
C526 C527 1.376 . S
C527 H514 0.930 . S
C527 C526 1.376 . S
C527 C528 1.388 . S
C528 H515 0.930 . S
C528 C527 1.388 . S
C528 C529 1.390 . S
C529 C528 1.390 . S
C529 C530 1.394 . S
C529 C535 1.465 . S
C530 C525 1.399 . S
C530 C529 1.394 . S
C530 C531 1.516 . S
C531 C530 1.516 . S
C531 C532 1.502 . S
C531 C533 1.561 . S
C531 C534 1.526 . S
C532 H516 0.959 . S
C532 H517 0.959 . S
C532 H518 0.961 . S
C532 C531 1.502 . S
C533 H519 0.960 . S
C533 H520 0.961 . S
C533 H521 0.959 . S
C533 C531 1.561 . S
C534 C531 1.526 . S
C534 C535 1.396 . S
C534 C539 1.390 . S
C535 C529 1.465 . S
C535 C534 1.396 . S
C535 C536 1.399 . S
C536 H522 0.929 . S
C536 C535 1.399 . S
C536 C537 1.385 . S
C537 H523 0.931 . S
C537 C536 1.385 . S
C537 C538 1.389 . S
C538 C537 1.389 . S
C538 C539 1.387 . S
C539 H524 0.930 . S
C539 C534 1.390 . S
C539 C538 1.387 . S
H540 C552 0.930 . S
H541 C554 0.930 . S
H542 C555 0.930 . S
H543 C559 0.959 . S
H544 C559 0.959 . S
H545 C559 0.961 . S
H546 C560 0.960 . S
H547 C560 0.961 . S
H548 C560 0.959 . S
H549 C563 0.929 . S
H550 C564 0.931 . S
H551 C566 0.930 . S
C552 H540 0.930 . S
C552 C553 1.399 . S
C552 C557 1.399 . S
C553 C552 1.399 . S
C553 C554 1.376 . S
C554 H541 0.930 . S
C554 C553 1.376 . S
C554 C555 1.388 . S
C555 H542 0.930 . S
C555 C554 1.388 . S
C555 C556 1.390 . S
C556 C555 1.390 . S
C556 C557 1.394 . S
C556 C562 1.465 . S
C557 C552 1.399 . S
C557 C556 1.394 . S
C557 C558 1.516 . S
C558 C557 1.516 . S
C558 C559 1.502 . S
C558 C560 1.561 . S
C558 C561 1.526 . S
C559 H543 0.959 . S
C559 H544 0.959 . S
C559 H545 0.961 . S
C559 C558 1.502 . S
C560 H546 0.960 . S
C560 H547 0.961 . S
C560 H548 0.959 . S
C560 C558 1.561 . S
C561 C558 1.526 . S
C561 C562 1.396 . S
C561 C566 1.390 . S
C562 C556 1.465 . S
C562 C561 1.396 . S
C562 C563 1.399 . S
C563 H549 0.929 . S
C563 C562 1.399 . S
C563 C564 1.385 . S
C564 H550 0.931 . S
C564 C563 1.385 . S
C564 C565 1.389 . S
C565 C564 1.389 . S
C565 C566 1.387 . S
C566 H551 0.930 . S
C566 C561 1.390 . S
C566 C565 1.387 . S
H567 C579 0.930 . S
H568 C581 0.930 . S
H569 C582 0.930 . S
H570 C586 0.959 . S
H571 C586 0.959 . S
H572 C586 0.961 . S
H573 C587 0.960 . S
H574 C587 0.961 . S
H575 C587 0.959 . S
H576 C590 0.929 . S
H577 C591 0.931 . S
H578 C593 0.930 . S
C579 H567 0.930 . S
C579 C580 1.399 . S
C579 C584 1.399 . S
C580 C579 1.399 . S
C580 C581 1.376 . S
C581 H568 0.930 . S
C581 C580 1.376 . S
C581 C582 1.388 . S
C582 H569 0.930 . S
C582 C581 1.388 . S
C582 C583 1.390 . S
C583 C582 1.390 . S
C583 C584 1.394 . S
C583 C589 1.465 . S
C584 C579 1.399 . S
C584 C583 1.394 . S
C584 C585 1.516 . S
C585 C584 1.516 . S
C585 C586 1.502 . S
C585 C587 1.561 . S
C585 C588 1.526 . S
C586 H570 0.959 . S
C586 H571 0.959 . S
C586 H572 0.961 . S
C586 C585 1.502 . S
C587 H573 0.960 . S
C587 H574 0.961 . S
C587 H575 0.959 . S
C587 C585 1.561 . S
C588 C585 1.526 . S
C588 C589 1.396 . S
C588 C593 1.390 . S
C589 C583 1.465 . S
C589 C588 1.396 . S
C589 C590 1.399 . S
C590 H576 0.929 . S
C590 C589 1.399 . S
C590 C591 1.385 . S
C591 H577 0.931 . S
C591 C590 1.385 . S
C591 C592 1.389 . S
C592 C591 1.389 . S
C592 C593 1.387 . S
C593 H578 0.930 . S
C593 C588 1.390 . S
C593 C592 1.387 . S
H594 C606 0.930 . S
H595 C608 0.930 . S
H596 C609 0.930 . S
H597 C613 0.959 . S
H598 C613 0.959 . S
H599 C613 0.961 . S
H600 C614 0.960 . S
H601 C614 0.961 . S
H602 C614 0.959 . S
H603 C617 0.929 . S
H604 C618 0.931 . S
H605 C620 0.930 . S
C606 H594 0.930 . S
C606 C607 1.399 . S
C606 C611 1.399 . S
C607 C606 1.399 . S
C607 C608 1.376 . S
C608 H595 0.930 . S
C608 C607 1.376 . S
C608 C609 1.388 . S
C609 H596 0.930 . S
C609 C608 1.388 . S
C609 C610 1.390 . S
C610 C609 1.390 . S
C610 C611 1.394 . S
C610 C616 1.465 . S
C611 C606 1.399 . S
C611 C610 1.394 . S
C611 C612 1.516 . S
C612 C611 1.516 . S
C612 C613 1.502 . S
C612 C614 1.561 . S
C612 C615 1.526 . S
C613 H597 0.959 . S
C613 H598 0.959 . S
C613 H599 0.961 . S
C613 C612 1.502 . S
C614 H600 0.960 . S
C614 H601 0.961 . S
C614 H602 0.959 . S
C614 C612 1.561 . S
C615 C612 1.526 . S
C615 C616 1.396 . S
C615 C620 1.390 . S
C616 C610 1.465 . S
C616 C615 1.396 . S
C616 C617 1.399 . S
C617 H603 0.929 . S
C617 C616 1.399 . S
C617 C618 1.385 . S
C618 H604 0.931 . S
C618 C617 1.385 . S
C618 C619 1.389 . S
C619 C618 1.389 . S
C619 C620 1.387 . S
C620 H605 0.930 . S
C620 C615 1.390 . S
C620 C619 1.387 . S
H621 C633 0.930 . S
H622 C635 0.930 . S
H623 C636 0.930 . S
H624 C640 0.959 . S
H625 C640 0.959 . S
H626 C640 0.961 . S
H627 C641 0.960 . S
H628 C641 0.961 . S
H629 C641 0.959 . S
H630 C644 0.929 . S
H631 C645 0.931 . S
H632 C647 0.930 . S
C633 H621 0.930 . S
C633 C634 1.399 . S
C633 C638 1.399 . S
C634 C633 1.399 . S
C634 C635 1.376 . S
C635 H622 0.930 . S
C635 C634 1.376 . S
C635 C636 1.388 . S
C636 H623 0.930 . S
C636 C635 1.388 . S
C636 C637 1.390 . S
C637 C636 1.390 . S
C637 C638 1.394 . S
C637 C643 1.465 1_655 S
C638 C633 1.399 . S
C638 C637 1.394 . S
C638 C639 1.520 . S
C639 C638 1.520 . S
C639 C640 1.501 1_655 S
C639 C641 1.571 . S
C639 C642 1.513 1_655 S
C640 H624 0.959 . S
C640 H625 0.959 . S
C640 H626 0.961 . S
C640 C639 1.501 1_455 S
C641 H627 0.960 . S
C641 H628 0.961 . S
C641 H629 0.959 . S
C641 C639 1.571 . S
C642 C639 1.513 1_455 S
C642 C643 1.396 . S
C642 C647 1.390 . S
C643 C637 1.465 1_455 S
C643 C642 1.396 . S
C643 C644 1.399 . S
C644 H630 0.929 . S
C644 C643 1.399 . S
C644 C645 1.385 . S
C645 H631 0.931 . S
C645 C644 1.385 . S
C645 C646 1.389 . S
C646 C645 1.389 . S
C646 C647 1.387 . S
C647 H632 0.930 . S
C647 C642 1.390 . S
C647 C646 1.387 . S
H648 C660 0.930 . S
H649 C662 0.930 . S
H650 C663 0.930 . S
H651 C667 0.959 . S
H652 C667 0.959 . S
H653 C667 0.961 . S
H654 C668 0.960 . S
H655 C668 0.961 . S
H656 C668 0.959 . S
H657 C671 0.929 1_545 S
H658 C672 0.931 . S
H659 C674 0.930 . S
C660 H648 0.930 . S
C660 C661 1.399 . S
C660 C665 1.399 . S
C661 C660 1.399 . S
C661 C662 1.376 . S
C662 H649 0.930 . S
C662 C661 1.376 . S
C662 C663 1.388 . S
C663 H650 0.930 . S
C663 C662 1.388 . S
C663 C664 1.390 . S
C664 C663 1.390 . S
C664 C665 1.394 . S
C664 C670 1.465 1_545 S
C665 C660 1.399 . S
C665 C664 1.394 . S
C665 C666 1.516 1_545 S
C666 C665 1.516 1_565 S
C666 C667 1.502 . S
C666 C668 1.561 . S
C666 C669 1.526 . S
C667 H651 0.959 . S
C667 H652 0.959 . S
C667 H653 0.961 . S
C667 C666 1.502 . S
C668 H654 0.960 . S
C668 H655 0.961 . S
C668 H656 0.959 . S
C668 C666 1.561 . S
C669 C666 1.526 . S
C669 C670 1.396 . S
C669 C674 1.390 . S
C670 C664 1.465 1_565 S
C670 C669 1.396 . S
C670 C671 1.399 . S
C671 H657 0.929 1_565 S
C671 C670 1.399 . S
C671 C672 1.385 . S
C672 H658 0.931 . S
C672 C671 1.385 . S
C672 C673 1.389 . S
C673 C672 1.389 . S
C673 C674 1.387 . S
C674 H659 0.930 . S
C674 C669 1.390 . S
C674 C673 1.387 . S
H675 C687 0.930 . S
H676 C689 0.930 . S
H677 C690 0.930 . S
H678 C694 0.959 . S
H679 C694 0.959 . S
H680 C694 0.961 . S
H681 C695 0.960 . S
H682 C695 0.961 . S
H683 C695 0.959 . S
H684 C698 0.929 . S
H685 C699 0.931 . S
H686 C701 0.930 . S
C687 H675 0.930 . S
C687 C688 1.399 . S
C687 C692 1.399 . S
C688 C687 1.399 . S
C688 C689 1.376 . S
C689 H676 0.930 . S
C689 C688 1.376 . S
C689 C690 1.388 . S
C690 H677 0.930 . S
C690 C689 1.388 . S
C690 C691 1.390 . S
C691 C690 1.390 . S
C691 C692 1.394 . S
C691 C697 1.465 . S
C692 C687 1.399 . S
C692 C691 1.394 . S
C692 C693 1.516 . S
C693 C692 1.516 . S
C693 C694 1.502 . S
C693 C695 1.561 . S
C693 C696 1.526 . S
C694 H678 0.959 . S
C694 H679 0.959 . S
C694 H680 0.961 . S
C694 C693 1.502 . S
C695 H681 0.960 . S
C695 H682 0.961 . S
C695 H683 0.959 . S
C695 C693 1.561 . S
C696 C693 1.526 . S
C696 C697 1.396 . S
C696 C701 1.390 . S
C697 C691 1.465 . S
C697 C696 1.396 . S
C697 C698 1.399 . S
C698 H684 0.929 . S
C698 C697 1.399 . S
C698 C699 1.385 . S
C699 H685 0.931 . S
C699 C698 1.385 . S
C699 C700 1.389 . S
C700 C699 1.389 . S
C700 C701 1.387 . S
C701 H686 0.930 . S
C701 C696 1.390 . S
C701 C700 1.387 . S
H702 C714 0.930 . S
H703 C716 0.930 . S
H704 C717 0.930 . S
H705 C721 0.953 1_455 S
H706 C721 0.959 . S
H707 C721 0.961 . S
H708 C722 0.960 . S
H709 C722 0.961 . S
H710 C722 0.959 . S
H711 C725 0.929 . S
H712 C726 0.931 . S
H713 C728 0.930 . S
C714 H702 0.930 . S
C714 C715 1.399 . S
C714 C719 1.399 . S
C715 C714 1.399 . S
C715 C716 1.376 . S
C716 H703 0.930 . S
C716 C715 1.376 . S
C716 C717 1.388 . S
C717 H704 0.930 . S
C717 C716 1.388 . S
C717 C718 1.390 . S
C718 C717 1.390 . S
C718 C719 1.394 . S
C718 C724 1.465 1_655 S
C719 C714 1.399 . S
C719 C718 1.394 . S
C719 C720 1.516 . S
C720 C719 1.516 . S
C720 C721 1.502 . S
C720 C722 1.561 . S
C720 C723 1.526 1_655 S
C721 H705 0.953 1_655 S
C721 H706 0.959 . S
C721 H707 0.961 . S
C721 C720 1.502 . S
C722 H708 0.960 . S
C722 H709 0.961 . S
C722 H710 0.959 . S
C722 C720 1.561 . S
C723 C720 1.526 1_455 S
C723 C724 1.396 . S
C723 C728 1.390 . S
C724 C718 1.465 1_455 S
C724 C723 1.396 . S
C724 C725 1.399 . S
C725 H711 0.929 . S
C725 C724 1.399 . S
C725 C726 1.385 . S
C726 H712 0.931 . S
C726 C725 1.385 . S
C726 C727 1.389 . S
C727 C726 1.389 . S
C727 C728 1.387 . S
C728 H713 0.930 . S
C728 C723 1.390 . S
C728 C727 1.387 . S
H729 C741 0.930 . S
H730 C743 0.930 . S
H731 C744 0.930 . S
H732 C748 0.959 1_544 S
H733 C748 0.959 1_545 S
H734 C748 0.973 . S
H735 C749 0.960 . S
H736 C749 0.961 . S
H737 C749 0.959 . S
H738 C752 0.902 1_554 S
H739 C753 0.931 . S
H740 C755 0.930 . S
C741 H729 0.930 . S
C741 C742 1.399 . S
C741 C746 1.399 . S
C742 C741 1.399 . S
C742 C743 1.376 . S
C743 H730 0.930 . S
C743 C742 1.376 . S
C743 C744 1.388 . S
C744 H731 0.930 . S
C744 C743 1.388 . S
C744 C745 1.390 . S
C745 C744 1.390 . S
C745 C746 1.394 . S
C745 C751 1.465 1_564 S
C746 C741 1.399 . S
C746 C745 1.394 . S
C746 C747 1.516 1_554 S
C747 C746 1.516 1_556 S
C747 C748 1.502 . S
C747 C749 1.561 . S
C747 C750 1.526 1_565 S
C748 H732 0.959 1_566 S
C748 H733 0.959 1_565 S
C748 H734 0.973 . S
C748 C747 1.502 . S
C749 H735 0.960 . S
C749 H736 0.961 . S
C749 H737 0.959 . S
C749 C747 1.561 . S
C750 C747 1.526 1_545 S
C750 C751 1.396 . S
C750 C755 1.390 . S
C751 C745 1.465 1_546 S
C751 C750 1.396 . S
C751 C752 1.399 . S
C752 H738 0.902 1_556 S
C752 C751 1.399 . S
C752 C753 1.385 . S
C753 H739 0.931 . S
C753 C752 1.385 . S
C753 C754 1.389 . S
C754 C753 1.389 . S
C754 C755 1.387 . S
C755 H740 0.930 . S
C755 C750 1.390 . S
C755 C754 1.387 . S
H756 C768 0.930 . S
H757 C770 0.930 . S
H758 C771 0.930 . S
H759 C775 0.959 . S
H760 C775 0.959 . S
H761 C775 0.961 . S
H762 C776 0.960 . S
H763 C776 0.961 1_556 S
H764 C776 0.959 . S
H765 C779 0.929 . S
H766 C780 0.931 . S
H767 C782 0.930 . S
C768 H756 0.930 . S
C768 C769 1.399 . S
C768 C773 1.399 . S
C769 C768 1.399 . S
C769 C770 1.376 . S
C770 H757 0.930 . S
C770 C769 1.376 . S
C770 C771 1.388 . S
C771 H758 0.930 . S
C771 C770 1.388 . S
C771 C772 1.390 . S
C772 C771 1.390 . S
C772 C773 1.394 . S
C772 C778 1.465 . S
C773 C768 1.399 . S
C773 C772 1.394 . S
C773 C774 1.516 . S
C774 C773 1.516 . S
C774 C775 1.502 1_554 S
C774 C776 1.561 . S
C774 C777 1.526 1_554 S
C775 H759 0.959 . S
C775 H760 0.959 . S
C775 H761 0.961 . S
C775 C774 1.502 1_556 S
C776 H762 0.960 . S
C776 H763 0.961 1_554 S
C776 H764 0.959 . S
C776 C774 1.561 . S
C777 C774 1.526 1_556 S
C777 C778 1.396 1_556 S
C777 C782 1.390 . S
C778 C772 1.465 . S
C778 C777 1.396 1_554 S
C778 C779 1.399 . S
C779 H765 0.929 . S
C779 C778 1.399 . S
C779 C780 1.385 1_554 S
C780 H766 0.931 . S
C780 C779 1.385 1_556 S
C780 C781 1.389 . S
C781 C780 1.389 . S
C781 C782 1.387 . S
C782 H767 0.930 . S
C782 C777 1.390 . S
C782 C781 1.387 . S
H783 C795 0.930 . S
H784 C797 0.930 . S
H785 C798 0.930 . S
H786 C802 0.959 . S
H787 C802 0.959 . S
H788 C802 0.961 . S
H789 C803 0.960 1_655 S
H790 C803 0.961 . S
H791 C803 0.959 . S
H792 C806 0.929 . S
H793 C807 0.931 . S
H794 C809 0.930 . S
C795 H783 0.930 . S
C795 C796 1.399 . S
C795 C800 1.399 . S
C796 C795 1.399 . S
C796 C797 1.376 . S
C797 H784 0.930 . S
C797 C796 1.376 . S
C797 C798 1.388 . S
C798 H785 0.930 . S
C798 C797 1.388 . S
C798 C799 1.390 . S
C799 C798 1.390 . S
C799 C800 1.394 . S
C799 C805 1.465 . S
C800 C795 1.399 . S
C800 C799 1.394 . S
C800 C801 1.516 . S
C801 C800 1.516 . S
C801 C802 1.502 . S
C801 C803 1.561 1_655 S
C801 C804 1.525 . S
C802 H786 0.959 . S
C802 H787 0.959 . S
C802 H788 0.961 . S
C802 C801 1.502 . S
C803 H789 0.960 1_455 S
C803 H790 0.961 . S
C803 H791 0.959 . S
C803 C801 1.561 1_455 S
C804 C801 1.525 . S
C804 C805 1.397 . S
C804 C809 1.390 1_655 S
C805 C799 1.465 . S
C805 C804 1.397 . S
C805 C806 1.399 1_655 S
C806 H792 0.929 . S
C806 C805 1.399 1_455 S
C806 C807 1.385 . S
C807 H793 0.931 . S
C807 C806 1.385 . S
C807 C808 1.389 . S
C808 C807 1.389 . S
C808 C809 1.387 . S
C809 H794 0.930 . S
C809 C804 1.390 1_455 S
C809 C808 1.387 . S
H810 C822 0.930 1_565 S
H811 C824 0.930 . S
H812 C825 0.930 . S
H813 C829 0.959 . S
H814 C829 0.959 . S
H815 C829 0.961 . S
H816 C830 0.960 . S
H817 C830 0.961 . S
H818 C830 0.959 . S
H819 C833 0.930 1_545 S
H820 C834 0.931 . S
H821 C836 0.930 . S
C822 H810 0.930 1_545 S
C822 C823 1.399 . S
C822 C827 1.399 1_545 S
C823 C822 1.399 . S
C823 C824 1.376 . S
C824 H811 0.930 . S
C824 C823 1.376 . S
C824 C825 1.388 . S
C825 H812 0.930 . S
C825 C824 1.388 . S
C825 C826 1.390 . S
C826 C825 1.390 . S
C826 C827 1.394 1_545 S
C826 C832 1.465 1_545 S
C827 C822 1.399 1_565 S
C827 C826 1.394 1_565 S
C827 C828 1.516 . S
C828 C827 1.516 . S
C828 C829 1.502 . S
C828 C830 1.561 . S
C828 C831 1.526 . S
C829 H813 0.959 . S
C829 H814 0.959 . S
C829 H815 0.961 . S
C829 C828 1.502 . S
C830 H816 0.960 . S
C830 H817 0.961 . S
C830 H818 0.959 . S
C830 C828 1.561 . S
C831 C828 1.526 . S
C831 C832 1.396 . S
C831 C836 1.390 . S
C832 C826 1.465 1_565 S
C832 C831 1.396 . S
C832 C833 1.399 . S
C833 H819 0.930 1_565 S
C833 C832 1.399 . S
C833 C834 1.385 . S
C834 H820 0.931 . S
C834 C833 1.385 . S
C834 C835 1.389 . S
C835 C834 1.389 . S
C835 C836 1.387 . S
C836 H821 0.930 . S
C836 C831 1.390 . S
C836 C835 1.387 . S
H837 C849 0.930 . S
H838 C851 0.930 . S
H839 C852 0.930 . S
H840 C856 0.959 . S
H841 C856 0.959 . S
H842 C856 0.961 . S
H843 C857 0.960 . S
H844 C857 0.961 . S
H845 C857 0.959 . S
H846 C860 0.929 . S
H847 C861 0.931 . S
H848 C863 0.930 . S
C849 H837 0.930 . S
C849 C850 1.399 . S
C849 C854 1.399 . S
C850 C849 1.399 . S
C850 C851 1.376 . S
C851 H838 0.930 . S
C851 C850 1.376 . S
C851 C852 1.388 . S
C852 H839 0.930 . S
C852 C851 1.388 . S
C852 C853 1.390 . S
C853 C852 1.390 . S
C853 C854 1.394 . S
C853 C859 1.465 . S
C854 C849 1.399 . S
C854 C853 1.394 . S
C854 C855 1.516 . S
C855 C854 1.516 . S
C855 C856 1.502 . S
C855 C857 1.561 . S
C855 C858 1.526 . S
C856 H840 0.959 . S
C856 H841 0.959 . S
C856 H842 0.961 . S
C856 C855 1.502 . S
C857 H843 0.960 . S
C857 H844 0.961 . S
C857 H845 0.959 . S
C857 C855 1.561 . S
C858 C855 1.526 . S
C858 C859 1.396 . S
C858 C863 1.390 . S
C859 C853 1.465 . S
C859 C858 1.396 . S
C859 C860 1.399 . S
C860 H846 0.929 . S
C860 C859 1.399 . S
C860 C861 1.385 . S
C861 H847 0.931 . S
C861 C860 1.385 . S
C861 C862 1.389 . S
C862 C861 1.389 . S
C862 C863 1.387 . S
C863 H848 0.930 . S
C863 C858 1.390 . S
C863 C862 1.387 . S
H864 C876 0.930 . S
H865 C878 0.930 . S
H866 C879 0.930 . S
H867 C883 0.959 . S
H868 C883 0.959 . S
H869 C883 0.961 . S
H870 C884 0.960 1_455 S
H871 C884 0.961 . S
H872 C884 0.959 . S
H873 C887 0.929 . S
H874 C888 0.931 . S
H875 C890 0.930 . S
C876 H864 0.930 . S
C876 C877 1.399 . S
C876 C881 1.399 . S
C877 C876 1.399 . S
C877 C878 1.376 . S
C878 H865 0.930 . S
C878 C877 1.376 . S
C878 C879 1.388 . S
C879 H866 0.930 . S
C879 C878 1.388 . S
C879 C880 1.390 . S
C880 C879 1.390 . S
C880 C881 1.394 . S
C880 C886 1.465 . S
C881 C876 1.399 . S
C881 C880 1.394 . S
C881 C882 1.516 . S
C882 C881 1.516 . S
C882 C883 1.502 . S
C882 C884 1.561 1_455 S
C882 C885 1.522 1_455 S
C883 H867 0.959 . S
C883 H868 0.959 . S
C883 H869 0.961 . S
C883 C882 1.502 . S
C884 H870 0.960 1_655 S
C884 H871 0.961 . S
C884 H872 0.959 . S
C884 C882 1.561 1_655 S
C885 C882 1.522 1_655 S
C885 C886 1.398 1_655 S
C885 C890 1.391 . S
C886 C880 1.465 . S
C886 C885 1.398 1_455 S
C886 C887 1.399 1_455 S
C887 H873 0.929 . S
C887 C886 1.399 1_655 S
C887 C888 1.385 . S
C888 H874 0.931 . S
C888 C887 1.385 . S
C888 C889 1.389 . S
C889 C888 1.389 . S
C889 C890 1.387 . S
C890 H875 0.930 . S
C890 C885 1.391 . S
C890 C889 1.387 . S
H891 C903 0.930 . S
H892 C905 0.930 . S
H893 C906 0.930 . S
H894 C910 0.959 1_545 S
H895 C910 0.959 . S
H896 C910 0.961 . S
H897 C911 0.960 . S
H898 C911 0.961 . S
H899 C911 0.959 . S
H900 C914 0.929 . S
H901 C915 0.931 . S
H902 C917 0.930 . S
C903 H891 0.930 . S
C903 C904 1.399 . S
C903 C908 1.399 . S
C904 C903 1.399 . S
C904 C905 1.376 . S
C905 H892 0.930 . S
C905 C904 1.376 . S
C905 C906 1.388 . S
C906 H893 0.930 . S
C906 C905 1.388 . S
C906 C907 1.390 . S
C907 C906 1.390 . S
C907 C908 1.394 . S
C907 C913 1.465 . S
C908 C903 1.399 . S
C908 C907 1.394 . S
C908 C909 1.516 1_545 S
C909 C908 1.516 1_565 S
C909 C910 1.502 . S
C909 C911 1.561 . S
C909 C912 1.526 . S
C910 H894 0.959 1_565 S
C910 H895 0.959 . S
C910 H896 0.961 . S
C910 C909 1.502 . S
C911 H897 0.960 . S
C911 H898 0.961 . S
C911 H899 0.959 . S
C911 C909 1.561 . S
C912 C909 1.526 . S
C912 C913 1.396 1_565 S
C912 C917 1.390 . S
C913 C907 1.465 . S
C913 C912 1.396 1_545 S
C913 C914 1.399 . S
C914 H900 0.929 . S
C914 C913 1.399 . S
C914 C915 1.385 1_545 S
C915 H901 0.931 . S
C915 C914 1.385 1_565 S
C915 C916 1.389 . S
C916 C915 1.389 . S
C916 C917 1.387 . S
C917 H902 0.930 . S
C917 C912 1.390 . S
C917 C916 1.387 . S
H918 C930 0.930 . S
H919 C932 0.930 . S
H920 C933 0.930 . S
H921 C937 0.959 . S
H922 C937 0.959 . S
H923 C937 0.961 . S
H924 C938 0.960 . S
H925 C938 0.961 . S
H926 C938 0.959 . S
H927 C941 0.929 . S
H928 C942 0.931 . S
H929 C944 0.930 . S
C930 H918 0.930 . S
C930 C931 1.399 . S
C930 C935 1.399 . S
C931 C930 1.399 . S
C931 C932 1.376 . S
C932 H919 0.930 . S
C932 C931 1.376 . S
C932 C933 1.388 . S
C933 H920 0.930 . S
C933 C932 1.388 . S
C933 C934 1.390 . S
C934 C933 1.390 . S
C934 C935 1.394 . S
C934 C940 1.465 . S
C935 C930 1.399 . S
C935 C934 1.394 . S
C935 C936 1.516 . S
C936 C935 1.516 . S
C936 C937 1.502 . S
C936 C938 1.561 . S
C936 C939 1.526 . S
C937 H921 0.959 . S
C937 H922 0.959 . S
C937 H923 0.961 . S
C937 C936 1.502 . S
C938 H924 0.960 . S
C938 H925 0.961 . S
C938 H926 0.959 . S
C938 C936 1.561 . S
C939 C936 1.526 . S
C939 C940 1.396 . S
C939 C944 1.390 . S
C940 C934 1.465 . S
C940 C939 1.396 . S
C940 C941 1.399 . S
C941 H927 0.929 . S
C941 C940 1.399 . S
C941 C942 1.385 . S
C942 H928 0.931 . S
C942 C941 1.385 . S
C942 C943 1.389 . S
C943 C942 1.389 . S
C943 C944 1.387 . S
C944 H929 0.930 . S
C944 C939 1.390 . S
C944 C943 1.387 . S
H945 C957 0.930 . S
H946 C959 0.930 . S
H947 C960 0.930 . S
H948 C964 0.959 . S
H949 C964 0.959 . S
H950 C964 0.961 . S
H951 C965 0.960 . S
H952 C965 0.961 . S
H953 C965 0.959 . S
H954 C968 0.929 . S
H955 C969 0.931 1_655 S
H956 C971 0.930 1_556 S
C957 H945 0.930 . S
C957 C958 1.399 . S
C957 C962 1.399 . S
C958 C957 1.399 . S
C958 C959 1.376 . S
C959 H946 0.930 . S
C959 C958 1.376 . S
C959 C960 1.388 . S
C960 H947 0.930 . S
C960 C959 1.388 . S
C960 C961 1.390 . S
C961 C960 1.390 . S
C961 C962 1.394 . S
C961 C967 1.465 . S
C962 C957 1.399 . S
C962 C961 1.394 . S
C962 C963 1.516 1_655 S
C963 C962 1.516 1_455 S
C963 C964 1.502 . S
C963 C965 1.561 . S
C963 C966 1.526 . S
C964 H948 0.959 . S
C964 H949 0.959 . S
C964 H950 0.961 . S
C964 C963 1.502 . S
C965 H951 0.960 . S
C965 H952 0.961 . S
C965 H953 0.959 . S
C965 C963 1.561 . S
C966 C963 1.526 . S
C966 C967 1.396 1_455 S
C966 C971 1.390 1_556 S
C967 C961 1.465 . S
C967 C966 1.396 1_655 S
C967 C968 1.399 1_556 S
C968 H954 0.929 . S
C968 C967 1.399 1_554 S
C968 C969 1.385 1_655 S
C969 H955 0.931 1_455 S
C969 C968 1.385 1_455 S
C969 C970 1.389 . S
C970 C969 1.389 . S
C970 C971 1.387 . S
C971 H956 0.930 1_554 S
C971 C966 1.390 1_554 S
C971 C970 1.387 . S
H972 C984 0.930 . S
H973 C986 0.930 . S
H974 C987 0.930 . S
H975 C991 0.959 . S
H976 C991 0.959 . S
H977 C991 0.961 . S
H978 C992 0.960 . S
H979 C992 0.961 . S
H980 C992 0.959 . S
H981 C995 0.929 . S
H982 C996 0.931 . S
H983 C998 0.930 . S
C984 H972 0.930 . S
C984 C985 1.399 . S
C984 C989 1.399 . S
C985 C984 1.399 . S
C985 C986 1.376 . S
C986 H973 0.930 . S
C986 C985 1.376 . S
C986 C987 1.388 . S
C987 H974 0.930 . S
C987 C986 1.388 . S
C987 C988 1.390 . S
C988 C987 1.390 . S
C988 C989 1.394 . S
C988 C994 1.465 . S
C989 C984 1.399 . S
C989 C988 1.394 . S
C989 C990 1.516 . S
C990 C989 1.516 . S
C990 C991 1.502 . S
C990 C992 1.561 . S
C990 C993 1.526 . S
C991 H975 0.959 . S
C991 H976 0.959 . S
C991 H977 0.961 . S
C991 C990 1.502 . S
C992 H978 0.960 . S
C992 H979 0.961 . S
C992 H980 0.959 . S
C992 C990 1.561 . S
C993 C990 1.526 . S
C993 C994 1.396 . S
C993 C998 1.390 1_565 S
C994 C988 1.465 . S
C994 C993 1.396 . S
C994 C995 1.399 1_565 S
C995 H981 0.929 . S
C995 C994 1.399 1_545 S
C995 C996 1.385 . S
C996 H982 0.931 . S
C996 C995 1.385 . S
C996 C997 1.389 . S
C997 C996 1.389 . S
C997 C998 1.387 . S
C998 H983 0.930 . S
C998 C993 1.390 1_545 S
C998 C997 1.387 . S
H999 C1011 0.930 . S
H1000 C1013 0.930 . S
H1001 C1014 0.930 . S
H1002 C1018 0.959 . S
H1003 C1018 0.959 . S
H1004 C1018 0.961 . S
H1005 C1019 0.960 . S
H1006 C1019 0.961 . S
H1007 C1019 0.959 . S
H1008 C1022 0.929 . S
H1009 C1023 0.931 . S
H1010 C1025 0.930 . S
C1011 H999 0.930 . S
C1011 C1012 1.399 . S
C1011 C1016 1.399 . S
C1012 C1011 1.399 . S
C1012 C1013 1.376 . S
C1013 H1000 0.930 . S
C1013 C1012 1.376 . S
C1013 C1014 1.388 . S
C1014 H1001 0.930 . S
C1014 C1013 1.388 . S
C1014 C1015 1.390 . S
C1015 C1014 1.390 . S
C1015 C1016 1.394 . S
C1015 C1021 1.465 . S
C1016 C1011 1.399 . S
C1016 C1015 1.394 . S
C1016 C1017 1.516 . S
C1017 C1016 1.516 . S
C1017 C1018 1.502 . S
C1017 C1019 1.561 . S
C1017 C1020 1.526 . S
C1018 H1002 0.959 . S
C1018 H1003 0.959 . S
C1018 H1004 0.961 . S
C1018 C1017 1.502 . S
C1019 H1005 0.960 . S
C1019 H1006 0.961 . S
C1019 H1007 0.959 . S
C1019 C1017 1.561 . S
C1020 C1017 1.526 . S
C1020 C1021 1.396 . S
C1020 C1025 1.390 . S
C1021 C1015 1.465 . S
C1021 C1020 1.396 . S
C1021 C1022 1.399 . S
C1022 H1008 0.929 . S
C1022 C1021 1.399 . S
C1022 C1023 1.385 . S
C1023 H1009 0.931 . S
C1023 C1022 1.385 . S
C1023 C1024 1.389 . S
C1024 C1023 1.389 . S
C1024 C1025 1.387 . S
C1025 H1010 0.930 . S
C1025 C1020 1.390 . S
C1025 C1024 1.387 . S
H1026 C1038 0.930 . S
H1027 C1040 0.930 . S
H1028 C1041 0.930 . S
H1029 C1045 0.959 . S
H1030 C1045 0.959 . S
H1031 C1045 0.961 . S
H1032 C1046 0.960 . S
H1033 C1046 0.961 . S
H1034 C1046 0.959 . S
H1035 C1049 0.929 . S
H1036 C1050 0.931 . S
H1037 C1052 0.930 . S
C1038 H1026 0.930 . S
C1038 C1039 1.399 . S
C1038 C1043 1.399 . S
C1039 C1038 1.399 . S
C1039 C1040 1.376 . S
C1040 H1027 0.930 . S
C1040 C1039 1.376 . S
C1040 C1041 1.388 . S
C1041 H1028 0.930 . S
C1041 C1040 1.388 . S
C1041 C1042 1.390 . S
C1042 C1041 1.390 . S
C1042 C1043 1.394 . S
C1042 C1048 1.465 . S
C1043 C1038 1.399 . S
C1043 C1042 1.394 . S
C1043 C1044 1.516 1_455 S
C1044 C1043 1.516 1_655 S
C1044 C1045 1.502 . S
C1044 C1046 1.561 . S
C1044 C1047 1.526 . S
C1045 H1029 0.959 . S
C1045 H1030 0.959 . S
C1045 H1031 0.961 . S
C1045 C1044 1.502 . S
C1046 H1032 0.960 . S
C1046 H1033 0.961 . S
C1046 H1034 0.959 . S
C1046 C1044 1.561 . S
C1047 C1044 1.526 . S
C1047 C1048 1.396 1_655 S
C1047 C1052 1.390 . S
C1048 C1042 1.465 . S
C1048 C1047 1.396 1_455 S
C1048 C1049 1.399 . S
C1049 H1035 0.929 . S
C1049 C1048 1.399 . S
C1049 C1050 1.385 1_455 S
C1050 H1036 0.931 . S
C1050 C1049 1.385 1_655 S
C1050 C1051 1.389 . S
C1051 C1050 1.389 . S
C1051 C1052 1.387 . S
C1052 H1037 0.930 . S
C1052 C1047 1.390 . S
C1052 C1051 1.387 . S
H1053 C1065 0.930 . S
H1054 C1067 0.930 . S
H1055 C1068 0.930 . S
H1056 C1072 0.959 . S
H1057 C1072 0.959 . S
H1058 C1072 0.961 . S
H1059 C1073 0.960 . S
H1060 C1073 0.961 . S
H1061 C1073 0.959 . S
H1062 C1076 0.929 . S
H1063 C1077 0.931 . S
H1064 C1079 0.930 . S
C1065 H1053 0.930 . S
C1065 C1066 1.399 . S
C1065 C1070 1.399 1_565 S
C1066 C1065 1.399 . S
C1066 C1067 1.376 . S
C1067 H1054 0.930 . S
C1067 C1066 1.376 . S
C1067 C1068 1.388 . S
C1068 H1055 0.930 . S
C1068 C1067 1.388 . S
C1068 C1069 1.390 . S
C1069 C1068 1.390 . S
C1069 C1070 1.394 1_565 S
C1069 C1075 1.465 1_565 S
C1070 C1065 1.399 1_545 S
C1070 C1069 1.394 1_545 S
C1070 C1071 1.516 . S
C1071 C1070 1.516 . S
C1071 C1072 1.502 . S
C1071 C1073 1.561 . S
C1071 C1074 1.526 . S
C1072 H1056 0.959 . S
C1072 H1057 0.959 . S
C1072 H1058 0.961 . S
C1072 C1071 1.502 . S
C1073 H1059 0.960 . S
C1073 H1060 0.961 . S
C1073 H1061 0.959 . S
C1073 C1071 1.561 . S
C1074 C1071 1.526 . S
C1074 C1075 1.396 . S
C1074 C1079 1.390 . S
C1075 C1069 1.465 1_545 S
C1075 C1074 1.396 . S
C1075 C1076 1.399 . S
C1076 H1062 0.929 . S
C1076 C1075 1.399 . S
C1076 C1077 1.385 . S
C1077 H1063 0.931 . S
C1077 C1076 1.385 . S
C1077 C1078 1.389 . S
C1078 C1077 1.389 . S
C1078 C1079 1.387 . S
C1079 H1064 0.930 . S
C1079 C1074 1.390 . S
C1079 C1078 1.387 . S
C445 C302 1.127 . S
C457 C14 1.159 . S
C472 C50 1.170 . S
C484 C338 1.119 . S
C499 C86 1.198 . S
C511 C374 1.120 . S
C526 C122 1.123 . S
C538 C410 1.164 . S
C553 C230 1.181 . S
C565 C158 1.112 . S
C580 C194 1.164 . S
C592 C266 1.165 . S
C607 C326 0.857 . S
C619 C2 0.901 . S
C634 C38 0.819 . S
C646 C362 0.801 . S
C661 C398 0.904 . S
C673 C74 0.860 . S
C688 C110 0.811 . S
C700 C218 0.852 . S
C715 C254 0.800 . S
C727 C146 0.822 . S
C742 C290 0.801 . S
C754 C182 0.812 . S
C769 C3 1.430 . S
C781 C184 1.374 . S
C796 C39 1.446 . S
C808 C4 1.397 . S
C823 C40 1.387 . S
C835 C75 1.442 . S
C850 C111 1.435 . S
C862 C76 1.378 . S
C877 C147 1.446 . S
C889 C112 1.397 . S
C904 C183 1.456 . S
C916 C148 1.433 . S
C931 C219 1.430 . S
C943 C256 1.396 . S
C958 C255 1.454 . S
C970 C292 1.443 . S
C985 C291 1.429 . S
C997 C328 1.393 . S
C1012 C327 1.451 . S
C1024 C364 1.410 . S
C1039 C363 1.456 . S
C1051 C400 1.438 . S
C1066 C220 1.381 . S
C1078 C399 1.428 . S
