# Generated by pormake.
# Topology umb, (4)-cn, num edge types: 1
# Building blocks:
#     Node 0, Type 0, BuildingBlock: ICAMEG_clean_sbu_1, # of connection points: 4
#     Node 1, Type 0, BuildingBlock: ICAMEG_clean_sbu_1, # of connection points: 4
#     Node 2, Type 0, BuildingBlock: ICAMEG_clean_sbu_1, # of connection points: 4
#     Node 3, Type 0, BuildingBlock: ICAMEG_clean_sbu_1, # of connection points: 4
#     Node 4, Type 0, BuildingBlock: ICAMEG_clean_sbu_1, # of connection points: 4
#     Node 5, Type 0, BuildingBlock: ICAMEG_clean_sbu_1, # of connection points: 4
#     Node 6, Type 0, BuildingBlock: ICAMEG_clean_sbu_1, # of connection points: 4
#     Node 7, Type 0, BuildingBlock: ICAMEG_clean_sbu_1, # of connection points: 4
#     Node 8, Type 0, BuildingBlock: ICAMEG_clean_sbu_1, # of connection points: 4
#     Node 9, Type 0, BuildingBlock: ICAMEG_clean_sbu_1, # of connection points: 4
#     Node 10, Type 0, BuildingBlock: ICAMEG_clean_sbu_1, # of connection points: 4
#     Node 11, Type 0, BuildingBlock: ICAMEG_clean_sbu_1, # of connection points: 4
#     Edge 12, Type (0, 0), BuildingBlock: XIVTED_clean_linker_0, # of connection points: 2
#     Edge 13, Type (0, 0), BuildingBlock: XIVTED_clean_linker_0, # of connection points: 2
#     Edge 14, Type (0, 0), BuildingBlock: XIVTED_clean_linker_0, # of connection points: 2
#     Edge 15, Type (0, 0), BuildingBlock: XIVTED_clean_linker_0, # of connection points: 2
#     Edge 16, Type (0, 0), BuildingBlock: XIVTED_clean_linker_0, # of connection points: 2
#     Edge 17, Type (0, 0), BuildingBlock: XIVTED_clean_linker_0, # of connection points: 2
#     Edge 18, Type (0, 0), BuildingBlock: XIVTED_clean_linker_0, # of connection points: 2
#     Edge 19, Type (0, 0), BuildingBlock: XIVTED_clean_linker_0, # of connection points: 2
#     Edge 20, Type (0, 0), BuildingBlock: XIVTED_clean_linker_0, # of connection points: 2
#     Edge 21, Type (0, 0), BuildingBlock: XIVTED_clean_linker_0, # of connection points: 2
#     Edge 22, Type (0, 0), BuildingBlock: XIVTED_clean_linker_0, # of connection points: 2
#     Edge 23, Type (0, 0), BuildingBlock: XIVTED_clean_linker_0, # of connection points: 2
#     Edge 24, Type (0, 0), BuildingBlock: XIVTED_clean_linker_0, # of connection points: 2
#     Edge 25, Type (0, 0), BuildingBlock: XIVTED_clean_linker_0, # of connection points: 2
#     Edge 26, Type (0, 0), BuildingBlock: XIVTED_clean_linker_0, # of connection points: 2
#     Edge 27, Type (0, 0), BuildingBlock: XIVTED_clean_linker_0, # of connection points: 2
#     Edge 28, Type (0, 0), BuildingBlock: XIVTED_clean_linker_0, # of connection points: 2
#     Edge 29, Type (0, 0), BuildingBlock: XIVTED_clean_linker_0, # of connection points: 2
#     Edge 30, Type (0, 0), BuildingBlock: XIVTED_clean_linker_0, # of connection points: 2
#     Edge 31, Type (0, 0), BuildingBlock: XIVTED_clean_linker_0, # of connection points: 2
#     Edge 32, Type (0, 0), BuildingBlock: XIVTED_clean_linker_0, # of connection points: 2
#     Edge 33, Type (0, 0), BuildingBlock: XIVTED_clean_linker_0, # of connection points: 2
#     Edge 34, Type (0, 0), BuildingBlock: XIVTED_clean_linker_0, # of connection points: 2
#     Edge 35, Type (0, 0), BuildingBlock: XIVTED_clean_linker_0, # of connection points: 2
# Relax obj value: 0.161
# Max RMSD: 0.174
# Mean RMSD: 0.174
data_MOF--net-umb--node1-ICAMEG_clean_sbu_1--edge1-XIVTED_clean_linker_0
_symmetry_space_group_name_H-M    P1
_symmetry_Int_Tables_number       1
_symmetry_cell_setting            triclinic
loop_
_symmetry_equiv_pos_as_xyz
'x, y, z'
_cell_length_a     51.307486
_cell_length_b     51.207261
_cell_length_c     40.499024
_cell_angle_alpha  89.998926
_cell_angle_beta   89.982976
_cell_angle_gamma 120.06063
loop_
_atom_site_label
_atom_site_type_symbol
_atom_site_fract_x
_atom_site_fract_y
_atom_site_fract_z
_atom_type_partial_charge
Co0 Co 0.48646 0.18516 0.37101 0.0
Co1 Co 0.51896 0.14453 0.34193 0.0
O2 O 0.48487 0.15093 0.34759 0.0
C3 C 0.4734 0.19106 0.3017 0.0
O4 O 0.4925 0.18189 0.29518 0.0
C5 C 0.47693 0.08792 0.37716 0.0
O6 O 0.47504 0.10339 0.40192 0.0
O7 O 0.52916 0.15265 0.38955 0.0
O8 O 0.50731 0.17825 0.40961 0.0
H9 H 0.62591 0.16849 0.35725 0.0
H10 H 0.42839 0.13786 0.34323 0.0
O11 O 0.46712 0.19349 0.33172 0.0
H12 H 0.41186 0.13612 0.46336 0.0
H13 H 0.44385 0.25001 0.40788 0.0
H14 H 0.53169 0.23528 0.41231 0.0
H15 H 0.46111 0.17224 0.43907 0.0
H16 H 0.44305 0.20719 0.37895 0.0
O17 O 0.49235 0.10099 0.35158 0.0
H18 H 0.58292 0.17707 0.36304 0.0
H19 H 0.52679 0.09625 0.3103 0.0
H20 H 0.5334 0.27825 0.44183 0.0
H21 H 0.37869 0.10152 0.36641 0.0
H22 H 0.48924 0.28583 0.4397 0.0
H23 H 0.37021 0.10049 0.42691 0.0
O24 O 0.52617 0.21425 0.35224 0.0
H25 H 0.44938 0.09631 0.24554 0.0
H26 H 0.55417 0.16627 0.27933 0.0
H27 H 0.5417 0.15732 0.22009 0.0
H28 H 0.48898 0.1221 0.20287 0.0
H29 H 0.46277 0.10615 0.30452 0.0
H30 H 0.56909 0.08665 0.30424 0.0
H31 H 0.61912 0.12299 0.32769 0.0
O32 O 0.54647 0.18776 0.33194 0.0
C33 C 0.52357 0.16587 0.41292 0.0
C34 C 0.60425 0.15255 0.34681 0.0
C35 C 0.57235 0.1066 0.31709 0.0
N36 N 0.55247 0.13737 0.33671 0.0
C37 C 0.57985 0.15734 0.3499 0.0
C38 C 0.54847 0.11214 0.32065 0.0
C39 C 0.60042 0.127 0.33025 0.0
C40 C 0.42477 0.13766 0.36954 0.0
N41 N 0.44751 0.15722 0.38976 0.0
C42 C 0.39663 0.11698 0.38254 0.0
C43 C 0.3919 0.1164 0.41649 0.0
C44 C 0.41527 0.13637 0.43696 0.0
C45 C 0.44311 0.15671 0.42309 0.0
C46 C 0.4632 0.2469 0.40907 0.0
C47 C 0.5123 0.23829 0.41152 0.0
C48 C 0.46288 0.22273 0.39271 0.0
N49 N 0.48718 0.2186 0.39425 0.0
C50 C 0.51344 0.26273 0.42817 0.0
C51 C 0.48867 0.26698 0.42693 0.0
C52 C 0.54716 0.2125 0.33767 0.0
C53 C 0.47245 0.11164 0.25274 0.0
C54 C 0.53116 0.15097 0.27204 0.0
C55 C 0.52425 0.14594 0.23846 0.0
C56 C 0.49467 0.12616 0.22881 0.0
N57 N 0.50923 0.13667 0.29537 0.0
C58 C 0.48018 0.11719 0.2861 0.0
Co59 Co 0.30927 0.51111 0.69835 0.0
Co60 Co 0.38379 0.5575 0.67626 0.0
O61 O 0.34546 0.51998 0.67348 0.0
C62 C 0.29343 0.5081 0.62831 0.0
O63 O 0.31959 0.53286 0.62558 0.0
C64 C 0.40059 0.51225 0.69361 0.0
O65 O 0.37885 0.50151 0.71558 0.0
O66 O 0.38272 0.55547 0.72524 0.0
O67 O 0.33377 0.52793 0.74007 0.0
H68 H 0.45624 0.66062 0.72057 0.0
H69 H 0.30989 0.46309 0.65801 0.0
O70 O 0.28462 0.49536 0.65647 0.0
H71 H 0.29223 0.42509 0.77245 0.0
H72 H 0.19992 0.44701 0.72871 0.0
H73 H 0.29397 0.54266 0.74964 0.0
H74 H 0.29785 0.47476 0.75958 0.0
H75 H 0.24649 0.45928 0.69853 0.0
O76 O 0.40518 0.53418 0.67508 0.0
H77 H 0.40742 0.61342 0.71617 0.0
H78 H 0.44327 0.58064 0.64313 0.0
H79 H 0.24801 0.53123 0.78055 0.0
H80 H 0.30417 0.41319 0.66971 0.0
H81 H 0.20055 0.48309 0.77014 0.0
H82 H 0.29532 0.39392 0.7273 0.0
O83 O 0.31428 0.55132 0.68902 0.0
H84 H 0.37526 0.51619 0.56173 0.0
H85 H 0.39474 0.6054 0.62719 0.0
H86 H 0.39504 0.60811 0.56637 0.0
H87 H 0.3853 0.56329 0.53323 0.0
H88 H 0.37477 0.51434 0.62261 0.0
H89 H 0.49256 0.62739 0.64694 0.0
H90 H 0.49924 0.66783 0.68577 0.0
O91 O 0.36335 0.58165 0.67793 0.0
C92 C 0.36184 0.54437 0.74688 0.0
C93 C 0.45357 0.64322 0.70344 0.0
C94 C 0.47397 0.62456 0.66214 0.0
N95 N 0.42238 0.59448 0.6791 0.0
C96 C 0.42595 0.61649 0.70075 0.0
C97 C 0.44601 0.59813 0.66012 0.0
C98 C 0.4777 0.64724 0.68394 0.0
C99 C 0.3058 0.45473 0.68308 0.0
N100 N 0.30401 0.47169 0.70805 0.0
C101 C 0.30269 0.42652 0.68958 0.0
C102 C 0.29776 0.41574 0.7219 0.0
C103 C 0.29604 0.43323 0.74725 0.0
C104 C 0.2993 0.46135 0.73984 0.0
C105 C 0.22048 0.46801 0.73353 0.0
C106 C 0.27346 0.52157 0.74518 0.0
C107 C 0.24689 0.47509 0.71649 0.0
N108 N 0.27296 0.50151 0.72258 0.0
C109 C 0.24748 0.51526 0.76266 0.0
C110 C 0.22085 0.48827 0.75678 0.0
C111 C 0.33689 0.57711 0.68284 0.0
C112 C 0.37964 0.5359 0.5759 0.0
C113 C 0.39037 0.58577 0.61294 0.0
C114 C 0.39065 0.58746 0.57851 0.0
C115 C 0.38522 0.56232 0.55993 0.0
N116 N 0.38486 0.55977 0.62842 0.0
C117 C 0.37953 0.53503 0.61037 0.0
Co118 Co 0.79423 0.31022 1.01724 0.0
Co119 Co 0.81931 0.38394 0.99347 0.0
O120 O 0.82079 0.34674 0.99219 0.0
C121 C 0.78297 0.2938 0.94723 0.0
O122 O 0.78262 0.3191 0.94423 0.0
C123 C 0.88176 0.40521 1.01388 0.0
O124 O 0.87153 0.38352 0.03595 0.0
O125 O 0.81893 0.38335 0.04251 0.0
O126 O 0.80062 0.33496 0.05852 0.0
H127 H 0.78177 0.45223 0.03305 0.0
H128 H 0.84446 0.31309 0.978 0.0
O129 O 0.78692 0.28547 0.97566 0.0
H130 H 0.86471 0.29767 0.09327 0.0
H131 H 0.75288 0.2015 0.04896 0.0
H132 H 0.74676 0.29338 0.06809 0.0
H133 H 0.8196 0.30087 0.07925 0.0
H134 H 0.78593 0.2484 1.0184 0.0
O135 O 0.86396 0.40764 0.99397 0.0
H136 H 0.78317 0.40484 0.03038 0.0
H137 H 0.85425 0.44374 0.96027 0.0
H138 H 0.71346 0.24709 0.09937 0.0
H139 H 0.88972 0.30978 0.99085 0.0
H140 H 0.71641 0.20071 0.08987 0.0
H141 H 0.90009 0.30205 0.04886 0.0
O142 O 0.75784 0.31307 1.00719 0.0
H143 H 0.85727 0.37703 0.8813 0.0
H144 H 0.78237 0.39199 0.94191 0.0
H145 H 0.782 0.39188 0.881 0.0
H146 H 0.8197 0.38443 0.8503 0.0
H147 H 0.85657 0.37688 0.94221 0.0
H148 H 0.85379 0.49164 0.96242 0.0
H149 H 0.81726 0.49606 0.9989 0.0
O150 O 0.77476 0.36134 0.99342 0.0
C151 C 0.81046 0.36295 0.06465 0.0
C152 C 0.7977 0.45054 1.01695 0.0
C153 C 0.83815 0.47267 0.97734 0.0
N154 N 0.81852 0.4214 0.99491 0.0
C155 C 0.79853 0.42373 1.01525 0.0
C156 C 0.83832 0.4455 0.97626 0.0
C157 C 0.81765 0.47514 0.99781 0.0
C158 C 0.84871 0.3095 1.00325 0.0
N159 N 0.82934 0.30698 0.02782 0.0
C160 C 0.87443 0.30774 1.0104 0.0
C161 C 0.88025 0.30345 0.04296 0.0
C162 C 0.86042 0.301 0.06789 0.0
C163 C 0.83495 0.3029 0.05983 0.0
C164 C 0.75144 0.22158 0.05337 0.0
C165 C 0.74833 0.27336 0.06402 0.0
C166 C 0.77005 0.24817 0.03611 0.0
N167 N 0.76844 0.27364 0.0417 0.0
C168 C 0.72934 0.24718 0.08171 0.0
C169 C 0.73098 0.22116 0.07633 0.0
C170 C 0.75355 0.33466 0.99926 0.0
C171 C 0.8408 0.38041 0.8944 0.0
C172 C 0.79876 0.3886 0.92872 0.0
C173 C 0.7985 0.38865 0.89424 0.0
C174 C 0.81968 0.3845 0.87702 0.0
N175 N 0.81955 0.38456 0.94558 0.0
C176 C 0.84038 0.38047 0.92888 0.0
Co177 Co 0.47687 0.80253 0.36848 0.0
Co178 Co 0.4334 0.83341 0.34421 0.0
O179 O 0.47071 0.83219 0.34439 0.0
C180 C 0.48311 0.79292 0.29815 0.0
O181 O 0.45973 0.79647 0.29436 0.0
C182 C 0.47458 0.89456 0.37031 0.0
O183 O 0.48346 0.88294 0.39359 0.0
O184 O 0.43085 0.83001 0.39311 0.0
O185 O 0.45853 0.80919 0.40954 0.0
H186 H 0.32696 0.80001 0.37803 0.0
H187 H 0.52786 0.85192 0.33199 0.0
O188 O 0.49398 0.79459 0.327 0.0
H189 H 0.55967 0.86586 0.44862 0.0
H190 H 0.53601 0.7522 0.39992 0.0
H191 H 0.44161 0.75377 0.41681 0.0
H192 H 0.51004 0.82368 0.43207 0.0
H193 H 0.52695 0.7891 0.37044 0.0
O194 O 0.4566 0.87803 0.34782 0.0
H195 H 0.37402 0.79806 0.37709 0.0
H196 H 0.41387 0.87326 0.31209 0.0
H197 H 0.44981 0.71664 0.44699 0.0
H198 H 0.5778 0.89427 0.34737 0.0
H199 H 0.4973 0.71571 0.43861 0.0
H200 H 0.59396 0.90146 0.40608 0.0
O201 O 0.43671 0.76851 0.35622 0.0
H202 H 0.4856 0.87578 0.23603 0.0
H203 H 0.3903 0.80172 0.28909 0.0
H204 H 0.39348 0.80484 0.22831 0.0
H205 H 0.44139 0.8421 0.20141 0.0
H206 H 0.48153 0.87167 0.29674 0.0
H207 H 0.36734 0.8762 0.3126 0.0
H208 H 0.32342 0.8393 0.34562 0.0
O209 O 0.40898 0.78901 0.34076 0.0
C210 C 0.44101 0.8198 0.41533 0.0
C211 C 0.3459 0.81614 0.36343 0.0
C212 C 0.36858 0.85892 0.32674 0.0
N213 N 0.39655 0.8353 0.34426 0.0
C214 C 0.37257 0.81508 0.36271 0.0
C215 C 0.39488 0.85716 0.32659 0.0
C216 C 0.34394 0.83821 0.34527 0.0
C217 C 0.53485 0.8548 0.35753 0.0
N218 N 0.51618 0.83529 0.38108 0.0
C219 C 0.5631 0.87886 0.36612 0.0
C220 C 0.57213 0.8829 0.39907 0.0
C221 C 0.5529 0.86295 0.42296 0.0
C222 C 0.52481 0.83916 0.41346 0.0
C223 C 0.51526 0.75243 0.40384 0.0
C224 C 0.46243 0.75365 0.41325 0.0
C225 C 0.50999 0.77323 0.38718 0.0
N226 N 0.48391 0.77374 0.39215 0.0
C227 C 0.4669 0.73251 0.4303 0.0
C228 C 0.49353 0.73197 0.42555 0.0
C229 C 0.41219 0.76638 0.34644 0.0
C230 C 0.46457 0.85952 0.24747 0.0
C231 C 0.41125 0.81793 0.27756 0.0
C232 C 0.41289 0.81964 0.24314 0.0
C233 C 0.43977 0.84058 0.22806 0.0
N234 N 0.43568 0.83657 0.29643 0.0
C235 C 0.4621 0.85718 0.28182 0.0
Co236 Co 0.65713 0.46509 0.69451 0.0
Co237 Co 0.58062 0.41714 0.68461 0.0
O238 O 0.61853 0.45288 0.67334 0.0
C239 C 0.66463 0.45418 0.62522 0.0
O240 O 0.63903 0.4292 0.63012 0.0
C241 C 0.56637 0.46551 0.69333 0.0
O242 O 0.58998 0.47923 0.71269 0.0
O243 O 0.58716 0.42771 0.73215 0.0
O244 O 0.63753 0.45591 0.73965 0.0
H245 H 0.51247 0.3244 0.75053 0.0
H246 H 0.6524 0.5059 0.64595 0.0
O247 O 0.67657 0.47286 0.64909 0.0
H248 H 0.68314 0.56284 0.75053 0.0
H249 H 0.76919 0.5315 0.70717 0.0
H250 H 0.67805 0.44251 0.75022 0.0
H251 H 0.67564 0.51139 0.74734 0.0
H252 H 0.71953 0.51501 0.68197 0.0
O253 O 0.55978 0.44074 0.67934 0.0
H254 H 0.56082 0.36919 0.73551 0.0
H255 H 0.51812 0.38996 0.65832 0.0
H256 H 0.72718 0.45832 0.77632 0.0
H257 H 0.65987 0.55738 0.64793 0.0
H258 H 0.77319 0.50312 0.75477 0.0
H259 H 0.67531 0.58618 0.70053 0.0
O260 O 0.65064 0.42354 0.69342 0.0
H261 H 0.57857 0.43814 0.56371 0.0
H262 H 0.56363 0.36108 0.64633 0.0
H263 H 0.55741 0.34784 0.58717 0.0
H264 H 0.5649 0.38654 0.54541 0.0
H265 H 0.58482 0.45049 0.6231 0.0
H266 H 0.46925 0.34552 0.67268 0.0
H267 H 0.46625 0.31231 0.71899 0.0
O268 O 0.60056 0.39283 0.69055 0.0
C269 C 0.61038 0.4415 0.75049 0.0
C270 C 0.51352 0.33862 0.7302 0.0
C271 C 0.48925 0.35049 0.68653 0.0
N272 N 0.54236 0.38194 0.6958 0.0
C273 C 0.54085 0.36395 0.7215 0.0
C274 C 0.51698 0.37563 0.67854 0.0
C275 C 0.48758 0.33187 0.71252 0.0
C276 C 0.65936 0.51841 0.66885 0.0
N277 N 0.66378 0.50579 0.69644 0.0
C278 C 0.66345 0.54749 0.66985 0.0
C279 C 0.67207 0.56362 0.69939 0.0
C280 C 0.67645 0.55054 0.72745 0.0
C281 C 0.67212 0.52139 0.72553 0.0
C282 C 0.74929 0.51199 0.71683 0.0
C283 C 0.69793 0.46216 0.74087 0.0
C284 C 0.72114 0.50253 0.70263 0.0
N285 N 0.69591 0.478 0.71482 0.0
C286 C 0.72571 0.47094 0.75567 0.0
C287 C 0.75152 0.49606 0.74355 0.0
C288 C 0.62723 0.39746 0.69362 0.0
C289 C 0.57515 0.42106 0.58168 0.0
C290 C 0.56693 0.37804 0.6283 0.0
C291 C 0.56333 0.3704 0.59484 0.0
C292 C 0.56752 0.39211 0.57143 0.0
N293 N 0.57442 0.40649 0.63816 0.0
C294 C 0.5785 0.42788 0.61535 0.0
Co295 Co 0.1793 0.6762 0.03086 0.0
Co296 Co 0.1484 0.60142 1.00807 0.0
O297 O 0.15039 0.64032 1.00642 0.0
C298 C 0.19038 0.69187 0.96065 0.0
O299 O 0.18835 0.66544 0.95764 0.0
C300 C 0.08655 0.58435 0.02806 0.0
O301 O 0.09752 0.60435 0.05193 0.0
O302 O 0.14878 0.6023 0.05709 0.0
O303 O 0.17198 0.65135 0.07228 0.0
H304 H 0.17771 0.52687 0.04842 0.0
H305 H 0.13039 0.67723 0.99289 0.0
O306 O 0.18766 0.70104 0.98912 0.0
H307 H 0.11451 0.69574 0.10868 0.0
H308 H 0.22862 0.78597 0.06167 0.0
H309 H 0.22714 0.69007 0.0804 0.0
H310 H 0.15708 0.68853 0.09353 0.0
H311 H 0.19245 0.73977 0.03196 0.0
O312 O 0.10381 0.58101 1.00817 0.0
H313 H 0.18074 0.57642 0.04537 0.0
H314 H 0.10966 0.5421 0.97522 0.0
H315 H 0.26352 0.73564 0.11082 0.0
H316 H 0.08766 0.68455 1.00688 0.0
H317 H 0.26441 0.78403 0.10152 0.0
H318 H 0.0795 0.69383 0.06516 0.0
O319 O 0.21348 0.67002 1.01974 0.0
H320 H 0.11337 0.61158 0.89542 0.0
H321 H 0.18288 0.58926 0.95692 0.0
H322 H 0.18348 0.58904 0.89603 0.0
H323 H 0.14849 0.60019 0.86487 0.0
H324 H 0.11384 0.61202 0.95632 0.0
H325 H 0.10569 0.4921 0.97774 0.0
H326 H 0.13997 0.48428 1.01444 0.0
O327 O 0.19282 0.62078 1.00809 0.0
C328 C 0.15966 0.62311 0.07886 0.0
C329 C 0.16273 0.53002 0.03224 0.0
C330 C 0.12228 0.5105 0.9926 0.0
N331 N 0.14562 0.56224 1.00988 0.0
C332 C 0.1644 0.55806 0.03033 0.0
C333 C 0.12461 0.53885 0.99132 0.0
C334 C 0.14153 0.50613 1.01319 0.0
C335 C 0.1271 0.6815 1.01826 0.0
N336 N 0.14628 0.68265 0.04234 0.0
C337 C 0.10281 0.68551 0.02605 0.0
C338 C 0.09823 0.69069 0.05876 0.0
C339 C 0.11786 0.69174 0.0832 0.0
C340 C 0.14187 0.68759 0.07449 0.0
C341 C 0.2284 0.765 0.06599 0.0
C342 C 0.22724 0.71099 0.07642 0.0
C343 C 0.20801 0.7388 0.04921 0.0
N344 N 0.20752 0.71223 0.05469 0.0
C345 C 0.24796 0.73675 0.09363 0.0
C346 C 0.24847 0.7639 0.08836 0.0
C347 C 0.21548 0.6469 1.0126 0.0
C348 C 0.12864 0.60658 0.90872 0.0
C349 C 0.16769 0.59427 0.94355 0.0
C350 C 0.16806 0.59403 0.90907 0.0
C351 C 0.1484 0.60025 0.8916 0.0
N352 N 0.14826 0.60053 0.96016 0.0
C353 C 0.12892 0.60666 0.9432 0.0
Co354 Co 0.7875 0.46286 0.34587 0.0
Co355 Co 0.81215 0.41228 0.36063 0.0
O356 O 0.8113 0.44908 0.36996 0.0
C357 C 0.76426 0.45266 0.41347 0.0
O358 O 0.76404 0.42707 0.41047 0.0
C359 C 0.87549 0.45893 0.35384 0.0
O360 O 0.86662 0.47337 0.33422 0.0
O361 O 0.81833 0.42206 0.31284 0.0
O362 O 0.79947 0.45273 0.30221 0.0
H363 H 0.78617 0.31759 0.29789 0.0
H364 H 0.8311 0.50259 0.39655 0.0
O365 O 0.77408 0.47163 0.38966 0.0
H366 H 0.86541 0.5591 0.29191 0.0
H367 H 0.74761 0.53339 0.32578 0.0
H368 H 0.74683 0.44155 0.28766 0.0
H369 H 0.81988 0.50864 0.29348 0.0
H370 H 0.77755 0.51488 0.35471 0.0
O371 O 0.85645 0.43439 0.36764 0.0
H372 H 0.78434 0.36381 0.31024 0.0
H373 H 0.84421 0.38319 0.39089 0.0
H374 H 0.71674 0.45935 0.25786 0.0
H375 H 0.87661 0.55309 0.39618 0.0
H376 H 0.71701 0.5056 0.27691 0.0
H377 H 0.89406 0.58166 0.34356 0.0
O378 O 0.75126 0.42206 0.34575 0.0
H379 H 0.8315 0.43451 0.48183 0.0
H380 H 0.76995 0.35745 0.39899 0.0
H381 H 0.76051 0.34511 0.45825 0.0
H382 H 0.79144 0.38379 0.50012 0.0
H383 H 0.84 0.44597 0.42232 0.0
H384 H 0.84687 0.3373 0.37926 0.0
H385 H 0.8176 0.30407 0.33255 0.0
O386 O 0.76809 0.3895 0.35279 0.0
C387 C 0.81109 0.43679 0.29311 0.0
C388 C 0.79891 0.33181 0.31842 0.0
C389 C 0.83301 0.34289 0.36406 0.0
N390 N 0.81381 0.37595 0.35154 0.0
C391 C 0.79787 0.35795 0.32561 0.0
C392 C 0.83142 0.36885 0.37051 0.0
C393 C 0.81658 0.32425 0.33785 0.0
C394 C 0.83843 0.51501 0.37362 0.0
N395 N 0.82279 0.50282 0.34511 0.0
C396 C 0.86427 0.54354 0.37354 0.0
C397 C 0.87407 0.55954 0.34399 0.0
C398 C 0.85802 0.54689 0.315 0.0
C399 C 0.8323 0.5183 0.31602 0.0
C400 C 0.74737 0.51326 0.31719 0.0
C401 C 0.74725 0.46182 0.29593 0.0
C402 C 0.76424 0.50266 0.33349 0.0
N403 N 0.76417 0.47735 0.32266 0.0
C404 C 0.73008 0.47173 0.27904 0.0
C405 C 0.73021 0.49766 0.28977 0.0
C406 C 0.74719 0.39544 0.34715 0.0
C407 C 0.81794 0.41743 0.46382 0.0
C408 C 0.78347 0.37441 0.41707 0.0
C409 C 0.77806 0.36727 0.45058 0.0
C410 C 0.79543 0.38898 0.47407 0.0
N411 N 0.80562 0.40235 0.40723 0.0
C412 C 0.82274 0.42375 0.4301 0.0
Co413 Co 0.30349 0.80245 0.68506 0.0
Co414 Co 0.37763 0.8335 0.71019 0.0
O415 O 0.33926 0.83259 0.70884 0.0
C416 C 0.2876 0.79437 0.75542 0.0
O417 O 0.31465 0.79835 0.75959 0.0
C418 C 0.39757 0.89364 0.68122 0.0
O419 O 0.37657 0.88122 0.65856 0.0
O420 O 0.37682 0.82832 0.6615 0.0
O421 O 0.32864 0.80845 0.64429 0.0
H422 H 0.44991 0.79787 0.68097 0.0
H423 H 0.30172 0.85244 0.71999 0.0
O424 O 0.27831 0.79519 0.72634 0.0
H425 H 0.28419 0.86431 0.60262 0.0
H426 H 0.19413 0.75155 0.65305 0.0
H427 H 0.29017 0.75288 0.63797 0.0
H428 H 0.29164 0.82246 0.62061 0.0
H429 H 0.23996 0.78892 0.68234 0.0
O430 O 0.39936 0.87793 0.70447 0.0
H431 H 0.40115 0.79644 0.68044 0.0
H432 H 0.43712 0.87423 0.7416 0.0
H433 H 0.24498 0.71529 0.60798 0.0
H434 H 0.29412 0.89448 0.70316 0.0
H435 H 0.19652 0.71447 0.61546 0.0
H436 H 0.28533 0.90062 0.64407 0.0
O437 O 0.30958 0.76864 0.69848 0.0
H438 H 0.3679 0.88005 0.81529 0.0
H439 H 0.38878 0.80379 0.76758 0.0
H440 H 0.38859 0.80916 0.82809 0.0
H441 H 0.3781 0.84753 0.85231 0.0
H442 H 0.368 0.8737 0.7549 0.0
H443 H 0.48635 0.87667 0.74251 0.0
H444 H 0.49295 0.83821 0.71216 0.0
O445 O 0.35732 0.78925 0.71579 0.0
C446 C 0.3567 0.81828 0.63897 0.0
C447 C 0.44729 0.81468 0.6944 0.0
C448 C 0.46775 0.85893 0.72891 0.0
N449 N 0.41618 0.83502 0.71126 0.0
C450 C 0.4197 0.81393 0.69428 0.0
C451 C 0.43982 0.85745 0.72825 0.0
C452 C 0.47143 0.83734 0.71188 0.0
C453 C 0.29767 0.85486 0.69429 0.0
N454 N 0.29694 0.83496 0.67133 0.0
C455 C 0.29349 0.87875 0.68488 0.0
C456 C 0.2886 0.88221 0.65172 0.0
C457 C 0.28797 0.86185 0.62844 0.0
C458 C 0.29227 0.83825 0.63875 0.0
C459 C 0.21513 0.75173 0.64953 0.0
C460 C 0.26922 0.75282 0.64113 0.0
C461 C 0.24112 0.77279 0.66608 0.0
N462 N 0.26774 0.77323 0.66161 0.0
C463 C 0.24368 0.73141 0.62419 0.0
C464 C 0.21649 0.73094 0.62843 0.0
C465 C 0.3316 0.76659 0.70977 0.0
C466 C 0.37259 0.86331 0.80503 0.0
C467 C 0.38413 0.82049 0.77794 0.0
C468 C 0.38412 0.82347 0.81221 0.0
C469 C 0.37826 0.84502 0.82579 0.0
N470 N 0.3785 0.83849 0.75774 0.0
C471 C 0.3728 0.85971 0.77086 0.0
Co472 Co 0.5036 0.31848 0.02798 0.0
Co473 Co 0.55366 0.39164 0.0523 0.0
O474 O 0.51443 0.35509 0.05323 0.0
C475 C 0.49717 0.3014 0.09791 0.0
O476 O 0.52323 0.32618 0.10134 0.0
C477 C 0.51336 0.41391 0.03195 0.0
O478 O 0.5017 0.3922 1.00994 0.0
O479 O 0.55384 0.39132 1.00325 0.0
O480 O 0.52286 0.34323 0.98694 0.0
H481 H 0.66035 0.45773 1.01401 0.0
H482 H 0.45683 0.32287 0.06671 0.0
O483 O 0.48516 0.29365 0.06931 0.0
H484 H 0.42238 0.30909 0.95105 0.0
H485 H 0.43398 0.21046 0.99532 0.0
H486 H 0.53363 0.30059 0.97748 0.0
H487 H 0.46977 0.31053 0.96558 0.0
H488 H 0.44889 0.25749 0.0261 0.0
O489 O 0.53371 0.41632 0.05167 0.0
H490 H 0.61078 0.41118 1.01608 0.0
H491 H 0.57968 0.45142 0.08573 0.0
H492 H 0.51957 0.25415 0.94597 0.0
H493 H 0.40917 0.32133 0.05333 0.0
H494 H 0.46942 0.20866 0.95483 0.0
H495 H 0.39169 0.31444 0.99513 0.0
O496 O 0.54213 0.31997 0.03852 0.0
H497 H 0.50834 0.38518 0.16411 0.0
H498 H 0.59778 0.39816 0.10424 0.0
H499 H 0.59752 0.39757 0.16514 0.0
H500 H 0.55257 0.39111 0.19547 0.0
H501 H 0.50941 0.38551 0.10321 0.0
H502 H 0.62882 0.49851 0.08419 0.0
H503 H 0.66961 0.50183 0.04824 0.0
O504 O 0.57452 0.36795 0.05252 0.0
C505 C 0.54165 0.3711 0.98097 0.0
C506 C 0.64279 0.45653 0.02987 0.0
C507 C 0.62509 0.47943 0.06923 0.0
N508 N 0.59248 0.42847 0.05127 0.0
C509 C 0.61472 0.43019 0.03123 0.0
C510 C 0.5973 0.45272 0.06996 0.0
C511 C 0.64797 0.48127 0.04906 0.0
C512 C 0.44924 0.31963 0.04137 0.0
N513 N 0.46594 0.3166 1.01698 0.0
C514 C 0.4223 0.31888 0.03392 0.0
C515 C 0.41252 0.31505 1.00125 0.0
C516 C 0.42973 0.31207 0.97651 0.0
C517 C 0.45658 0.31296 0.98487 0.0
C518 C 0.45587 0.23016 0.99119 0.0
C519 C 0.51168 0.28096 0.98126 0.0
C520 C 0.46444 0.25681 1.00858 0.0
N521 N 0.49198 0.2818 1.00335 0.0
C522 C 0.50389 0.2547 0.96344 0.0
C523 C 0.47576 0.22916 0.96846 0.0
C524 C 0.56823 0.34099 0.04673 0.0
C525 C 0.52809 0.38812 0.15117 0.0
C526 C 0.5781 0.39522 0.11726 0.0
C527 C 0.57811 0.39499 0.15175 0.0
C528 C 0.5529 0.3914 0.16875 0.0
N529 N 0.55368 0.39199 0.1002 0.0
C530 C 0.52887 0.38845 0.1167 0.0
Co531 Co 0.18067 0.51067 0.35259 0.0
Co532 Co 0.1496 0.55424 0.3758 0.0
O533 O 0.15187 0.51745 0.37735 0.0
C534 C 0.19245 0.50632 0.42268 0.0
O535 O 0.18954 0.53017 0.42611 0.0
C536 C 0.08868 0.50788 0.35601 0.0
O537 O 0.10092 0.49863 0.33383 0.0
O538 O 0.15015 0.55402 0.32675 0.0
O539 O 0.17294 0.52796 0.31128 0.0
H540 H 0.17824 0.65816 0.33586 0.0
H541 H 0.13234 0.46049 0.39105 0.0
O542 O 0.18968 0.49454 0.39413 0.0
H543 H 0.11549 0.42576 0.27537 0.0
H544 H 0.23019 0.4508 0.32084 0.0
H545 H 0.22826 0.54506 0.30286 0.0
H546 H 0.15805 0.47583 0.2901 0.0
H547 H 0.19407 0.46047 0.35102 0.0
O548 O 0.10496 0.52954 0.37537 0.0
H549 H 0.18164 0.61184 0.33867 0.0
H550 H 0.1105 0.57414 0.40876 0.0
H551 H 0.26458 0.53624 0.27195 0.0
H552 H 0.08963 0.41015 0.37748 0.0
H553 H 0.26569 0.48881 0.28088 0.0
H554 H 0.08098 0.39253 0.31926 0.0
O555 O 0.21464 0.55121 0.36346 0.0
H556 H 0.11462 0.50827 0.48822 0.0
H557 H 0.18377 0.60083 0.42714 0.0
H558 H 0.18434 0.60134 0.48804 0.0
H559 H 0.14955 0.55482 0.51898 0.0
H560 H 0.11505 0.50864 0.42732 0.0
H561 H 0.10616 0.61996 0.4065 0.0
H562 H 0.14029 0.66243 0.36995 0.0
O563 O 0.19411 0.57972 0.37588 0.0
C564 C 0.16084 0.54405 0.30484 0.0
C565 C 0.16333 0.63986 0.35198 0.0
C566 C 0.12285 0.61841 0.3916 0.0
N567 N 0.14654 0.59047 0.37415 0.0
C568 C 0.16522 0.61362 0.35377 0.0
C569 C 0.12539 0.59251 0.39275 0.0
C570 C 0.14201 0.64223 0.37109 0.0
C571 C 0.12884 0.45285 0.36571 0.0
N572 N 0.14773 0.47095 0.34142 0.0
C573 C 0.10457 0.42439 0.35815 0.0
C574 C 0.0997 0.41453 0.32547 0.0
C575 C 0.11905 0.43317 0.30083 0.0
C576 C 0.14306 0.46151 0.3093 0.0
C577 C 0.22986 0.47151 0.31667 0.0
C578 C 0.22844 0.52426 0.30665 0.0
C579 C 0.2095 0.47712 0.33371 0.0
N580 N 0.20886 0.50315 0.32842 0.0
C581 C 0.24913 0.51944 0.28919 0.0
C582 C 0.24977 0.49284 0.29424 0.0
C583 C 0.21672 0.57631 0.37092 0.0
C584 C 0.12981 0.5287 0.47502 0.0
C585 C 0.16864 0.58047 0.44043 0.0
C586 C 0.16901 0.58092 0.47491 0.0
C587 C 0.14946 0.55482 0.49226 0.0
N588 N 0.14931 0.55476 0.42369 0.0
C589 C 0.13005 0.52909 0.44053 0.0
Co590 Co 0.67649 0.18439 0.67122 0.0
Co591 Co 0.60273 0.14542 0.69861 0.0
O592 O 0.64293 0.15083 0.69435 0.0
C593 C 0.69419 0.18998 0.74089 0.0
O594 O 0.66621 0.18251 0.7467 0.0
C595 C 0.58716 0.08773 0.66515 0.0
O596 O 0.60413 0.10238 0.63979 0.0
O597 O 0.60166 0.15283 0.65062 0.0
O598 O 0.64961 0.17829 0.63197 0.0
H599 H 0.52149 0.17117 0.6789 0.0
H600 H 0.68486 0.13586 0.69998 0.0
O601 O 0.70328 0.19182 0.7111 0.0
H602 H 0.70133 0.13348 0.5803 0.0
H603 H 0.78486 0.2465 0.63631 0.0
H604 H 0.68372 0.23514 0.62929 0.0
H605 H 0.68935 0.17074 0.60372 0.0
H606 H 0.74162 0.20446 0.66473 0.0
O607 O 0.58522 0.1016 0.69022 0.0
H608 H 0.57273 0.17858 0.6748 0.0
H609 H 0.54572 0.0985 0.73003 0.0
H610 H 0.72623 0.27735 0.60027 0.0
H611 H 0.69702 0.09837 0.67769 0.0
H612 H 0.77725 0.28324 0.6037 0.0
H613 H 0.70531 0.09701 0.61743 0.0
O614 O 0.66675 0.2144 0.68921 0.0
H615 H 0.62113 0.09802 0.79794 0.0
H616 H 0.589 0.16897 0.75964 0.0
H617 H 0.59129 0.16097 0.81938 0.0
H618 H 0.60743 0.12526 0.83887 0.0
H619 H 0.61885 0.10694 0.73843 0.0
H620 H 0.49413 0.09008 0.73444 0.0
H621 H 0.48177 0.12665 0.70889 0.0
O622 O 0.6191 0.18896 0.70728 0.0
C623 C 0.62106 0.16603 0.62777 0.0
C624 C 0.52663 0.15514 0.69025 0.0
C625 C 0.51126 0.10961 0.72139 0.0
N626 N 0.5623 0.13918 0.70246 0.0
C627 C 0.55563 0.15927 0.68811 0.0
C628 C 0.54051 0.11448 0.71877 0.0
C629 C 0.50434 0.13014 0.70705 0.0
C630 C 0.68865 0.13552 0.67377 0.0
N631 N 0.68658 0.15553 0.65318 0.0
C632 C 0.69543 0.11419 0.66127 0.0
C633 C 0.70004 0.11342 0.62745 0.0
C634 C 0.69779 0.13386 0.60661 0.0
C635 C 0.69094 0.15485 0.61998 0.0
C636 C 0.76272 0.24413 0.63455 0.0
C637 C 0.7058 0.2374 0.63064 0.0
C638 C 0.73819 0.22041 0.65062 0.0
N639 N 0.71016 0.21721 0.64836 0.0
C640 C 0.72981 0.26142 0.61428 0.0
C641 C 0.75843 0.26473 0.61625 0.0
C642 C 0.64373 0.21333 0.70228 0.0
C643 C 0.61398 0.11357 0.78975 0.0
C644 C 0.59612 0.15345 0.76793 0.0
C645 C 0.59731 0.14897 0.80178 0.0
C646 C 0.60634 0.1289 0.8127 0.0
N647 N 0.60368 0.13835 0.74556 0.0
C648 C 0.61251 0.1186 0.75608 0.0
Co649 Co 0.47355 0.67614 0.02146 0.0
Co650 Co 0.42905 0.60142 0.04429 0.0
O651 O 0.46617 0.64017 0.04599 0.0
C652 C 0.47831 0.69206 0.09164 0.0
O653 O 0.45394 0.66564 0.09488 0.0
C654 C 0.47419 0.58506 0.0244 0.0
O655 O 0.48368 0.60607 1.0016 0.0
O656 O 0.42948 0.60234 0.99527 0.0
O657 O 0.45591 0.65133 0.98005 0.0
H658 H 0.32497 0.52753 1.00399 0.0
H659 H 0.52317 0.67666 0.05956 0.0
O660 O 0.49015 0.70102 0.06311 0.0
H661 H 0.55766 0.6946 0.9438 0.0
H662 H 0.53495 0.78575 0.99027 0.0
H663 H 0.43988 0.69043 0.97196 0.0
H664 H 0.50812 0.68805 0.95883 0.0
H665 H 0.52445 0.73946 0.02014 0.0
O666 O 0.45299 0.58071 0.04393 0.0
H667 H 0.37174 0.57688 1.00704 0.0
H668 H 0.40807 0.542 0.07705 0.0
H669 H 0.44953 0.73608 0.94137 0.0
H670 H 0.57298 0.68332 0.0457 0.0
H671 H 0.49737 0.78419 0.95046 0.0
H672 H 0.59048 0.69231 0.98743 0.0
O673 O 0.43336 0.67035 0.03251 0.0
H674 H 0.47427 0.61114 0.15684 0.0
H675 H 0.3826 0.58963 0.09551 0.0
H676 H 0.38186 0.58942 0.1564 0.0
H677 H 0.42793 0.60018 0.18747 0.0
H678 H 0.47415 0.61153 0.09594 0.0
H679 H 0.36179 0.4922 0.07456 0.0
H680 H 0.31978 0.48477 0.03793 0.0
O681 O 0.40432 0.62118 0.04437 0.0
C682 C 0.43966 0.62313 0.97347 0.0
C683 C 0.34307 0.53052 0.02015 0.0
C684 C 0.36375 0.51068 0.05972 0.0
N685 N 0.39246 0.56241 0.04248 0.0
C686 C 0.36956 0.55844 0.02206 0.0
C687 C 0.38991 0.53892 0.061 0.0
C688 C 0.34018 0.50653 0.03917 0.0
C689 C 0.53075 0.68082 0.03421 0.0
N690 N 0.51288 0.68217 1.01006 0.0
C691 C 0.55892 0.68446 0.02648 0.0
C692 C 0.56871 0.68946 0.99378 0.0
C693 C 0.5503 0.69073 0.96928 0.0
C694 C 0.52226 0.68695 0.97792 0.0
C695 C 0.51406 0.76491 0.98603 0.0
C696 C 0.46085 0.71122 0.97583 0.0
C697 C 0.50798 0.73866 1.0029 0.0
N698 N 0.48172 0.71224 0.99752 0.0
C699 C 0.46614 0.73702 0.95854 0.0
C700 C 0.49297 0.76401 0.96369 0.0
C701 C 0.40811 0.64744 0.03974 0.0
C702 C 0.45403 0.60632 0.14358 0.0
C703 C 0.40277 0.59446 0.10885 0.0
C704 C 0.40219 0.59422 0.14333 0.0
C705 C 0.42803 0.60022 0.16075 0.0
N706 N 0.42836 0.60048 0.09218 0.0
C707 C 0.45378 0.60637 0.10909 0.0
H708 H 0.52684 0.1196 0.44131 0.0
H709 H 0.6424 0.21259 0.58283 0.0
H710 H 0.55061 0.21209 0.45813 0.0
H711 H 0.57148 0.12075 0.59819 0.0
H712 H 0.6179 0.21359 0.53072 0.0
H713 H 0.55158 0.12016 0.49318 0.0
C714 C 0.53712 0.13999 0.45607 0.0
C715 C 0.53639 0.16575 0.44563 0.0
C716 C 0.60792 0.19326 0.54555 0.0
C717 C 0.56568 0.16681 0.50437 0.0
C718 C 0.62201 0.19255 0.57497 0.0
C719 C 0.609 0.16649 0.59469 0.0
C720 C 0.58122 0.16746 0.53551 0.0
C721 C 0.58229 0.14127 0.58369 0.0
C722 C 0.55127 0.14028 0.48557 0.0
C723 C 0.55033 0.19165 0.46558 0.0
N724 N 0.56946 0.14228 0.55473 0.0
N725 N 0.56479 0.19168 0.49389 0.0
H726 H 0.40673 0.54128 0.77906 0.0
H727 H 0.42049 0.64832 0.92662 0.0
H728 H 0.33971 0.56758 0.79253 0.0
H729 H 0.43766 0.57502 0.94238 0.0
H730 H 0.39979 0.62744 0.87173 0.0
H731 H 0.42669 0.56097 0.83434 0.0
C732 C 0.39602 0.55087 0.7939 0.0
C733 C 0.37129 0.55244 0.78158 0.0
C734 C 0.40832 0.61614 0.88722 0.0
C735 C 0.39477 0.57612 0.84389 0.0
C736 C 0.42042 0.6282 0.91826 0.0
C737 C 0.4309 0.61342 0.93889 0.0
C738 C 0.4075 0.58964 0.87652 0.0
C739 C 0.42983 0.58709 0.92714 0.0
C740 C 0.40746 0.56217 0.82526 0.0
C741 C 0.35847 0.56549 0.80148 0.0
N742 N 0.41857 0.57617 0.89663 0.0
N743 N 0.37063 0.57726 0.83154 0.0
H744 H 0.86038 0.44426 0.25945 0.0
H745 H 0.76776 0.33647 0.113 0.0
H746 H 0.76633 0.4154 0.24742 0.0
H747 H 0.85588 0.41275 0.09414 0.0
H748 H 0.76838 0.35734 0.16802 0.0
H749 H 0.86107 0.42644 0.20316 0.0
C750 C 0.84009 0.43478 0.24461 0.0
C751 C 0.81343 0.43188 0.25762 0.0
C752 C 0.78761 0.36931 0.15181 0.0
C753 C 0.81365 0.41003 0.1944 0.0
C754 C 0.78741 0.35728 0.1207 0.0
C755 C 0.81185 0.37289 0.09919 0.0
C756 C 0.81275 0.39664 0.16168 0.0
C757 C 0.83661 0.40006 0.11009 0.0
C758 C 0.84044 0.42445 0.21274 0.0
C759 C 0.78749 0.41869 0.23787 0.0
N760 N 0.83657 0.41096 0.14072 0.0
N761 N 0.78809 0.40777 0.20739 0.0
H762 H 0.44249 0.86714 0.44726 0.0
H763 H 0.33183 0.77377 0.59192 0.0
H764 H 0.41611 0.77354 0.46017 0.0
H765 H 0.40637 0.86337 0.60925 0.0
H766 H 0.35373 0.77359 0.53769 0.0
H767 H 0.42135 0.86678 0.50174 0.0
C768 C 0.43252 0.84661 0.46179 0.0
C769 C 0.43142 0.82045 0.44956 0.0
C770 C 0.36508 0.79327 0.55342 0.0
C771 C 0.4061 0.81956 0.51102 0.0
C772 C 0.35248 0.79353 0.58407 0.0
C773 C 0.36728 0.81867 0.60492 0.0
C774 C 0.39212 0.81867 0.54335 0.0
C775 C 0.39425 0.84356 0.59385 0.0
C776 C 0.4204 0.8464 0.49271 0.0
C777 C 0.41784 0.79429 0.46908 0.0
N778 N 0.40565 0.84306 0.56371 0.0
N779 N 0.40528 0.79435 0.49875 0.0
H780 H 0.55414 0.3425 0.93145 0.0
H781 H 0.57377 0.45423 0.78742 0.0
H782 H 0.55009 0.42294 0.95251 0.0
H783 H 0.6322 0.41659 0.79373 0.0
H784 H 0.55699 0.43756 0.8444 0.0
H785 H 0.57392 0.36265 0.87608 0.0
C786 C 0.55699 0.36415 0.92422 0.0
C787 C 0.55044 0.38108 0.94645 0.0
C788 C 0.57383 0.4334 0.83344 0.0
C789 C 0.57276 0.40402 0.88351 0.0
C790 C 0.58355 0.44308 0.80116 0.0
C791 C 0.60488 0.43736 0.78633 0.0
C792 C 0.58463 0.41683 0.8504 0.0
C793 C 0.61627 0.42205 0.8047 0.0
C794 C 0.56855 0.37574 0.89288 0.0
C795 C 0.55492 0.40922 0.93606 0.0
N796 N 0.60564 0.41185 0.83565 0.0
N797 N 0.56552 0.4197 0.90522 0.0
H798 H 0.20526 0.56371 0.25801 0.0
H799 H 0.11188 0.57769 0.11096 0.0
H800 H 0.1147 0.54592 0.27386 0.0
H801 H 0.20521 0.64506 0.12436 0.0
H802 H 0.11172 0.55745 0.166 0.0
H803 H 0.20511 0.58467 0.20327 0.0
C804 C 0.18519 0.5637 0.2497 0.0
C805 C 0.15989 0.55296 0.27031 0.0
C806 C 0.13213 0.57681 0.15696 0.0
C807 C 0.15957 0.57667 0.2081 0.0
C808 C 0.13223 0.5884 0.12571 0.0
C809 C 0.15849 0.61331 0.11341 0.0
C810 C 0.15878 0.58952 0.17554 0.0
C811 C 0.18439 0.62614 0.13326 0.0
C812 C 0.18526 0.57595 0.21874 0.0
C813 C 0.13463 0.55394 0.25863 0.0
N814 N 0.18403 0.61383 0.16323 0.0
N815 N 0.13499 0.56535 0.22819 0.0
H816 H 0.69401 0.39595 0.34359 0.0
H817 H 0.59846 0.21899 0.30936 0.0
H818 H 0.73121 0.33681 0.33615 0.0
H819 H 0.55908 0.27045 0.34719 0.0
H820 H 0.64679 0.26535 0.30523 0.0
H821 H 0.6439 0.35267 0.33299 0.0
C822 C 0.69169 0.37395 0.33968 0.0
C823 C 0.71677 0.36991 0.34113 0.0
C824 C 0.62746 0.26649 0.3141 0.0
C825 C 0.65993 0.3208 0.32845 0.0
C826 C 0.59982 0.24005 0.31638 0.0
C827 C 0.57485 0.24075 0.3294 0.0
C828 C 0.63011 0.29373 0.3249 0.0
C829 C 0.5779 0.26881 0.33757 0.0
C830 C 0.66316 0.34937 0.33353 0.0
C831 C 0.71252 0.34098 0.33563 0.0
N832 N 0.60523 0.29423 0.3356 0.0
N833 N 0.68462 0.31754 0.32958 0.0
H834 H 0.37329 0.75303 0.73298 0.0
H835 H 0.28438 0.57868 0.69028 0.0
H836 H 0.28318 0.71161 0.69273 0.0
H837 H 0.38081 0.63624 0.6806 0.0
H838 H 0.28018 0.62362 0.701 0.0
H839 H 0.37221 0.70532 0.7271 0.0
C840 C 0.35307 0.73383 0.72335 0.0
C841 C 0.32851 0.73651 0.71268 0.0
C842 C 0.30212 0.62616 0.69633 0.0
C843 C 0.32735 0.68194 0.7058 0.0
C844 C 0.30459 0.60068 0.69009 0.0
C845 C 0.33304 0.60368 0.68476 0.0
C846 C 0.32832 0.6545 0.69783 0.0
C847 C 0.35843 0.63271 0.68477 0.0
C848 C 0.3526 0.70667 0.71982 0.0
C849 C 0.30276 0.71062 0.70088 0.0
N850 N 0.35548 0.65694 0.69159 0.0
N851 N 0.30293 0.68431 0.69743 0.0
H852 H 0.62682 0.37997 0.06246 0.0
H853 H 0.70115 0.28352 1.01818 0.0
H854 H 0.56772 0.28896 0.02794 0.0
H855 H 0.73584 0.37544 0.98519 0.0
H856 H 0.65331 0.28106 0.03226 0.0
H857 H 0.66988 0.37441 0.04899 0.0
C858 C 0.62278 0.35861 0.05255 0.0
C859 C 0.59356 0.33511 0.04563 0.0
C860 C 0.67144 0.30148 0.0215 0.0
C861 C 0.64291 0.32881 0.03026 0.0
C862 C 0.69861 0.30293 1.01331 0.0
C863 C 0.72277 0.32994 1.00103 0.0
C864 C 0.66898 0.32735 1.01789 0.0
C865 C 0.71815 0.35432 0.99513 0.0
C866 C 0.64742 0.35559 0.0447 0.0
C867 C 0.58989 0.30778 0.03328 0.0
N868 N 0.692 0.35261 1.00422 0.0
N869 N 0.61445 0.3054 0.02566 0.0
H870 H 0.4067 0.71136 0.36107 0.0
H871 H 0.23022 0.63467 0.37867 0.0
H872 H 0.35545 0.75292 0.32926 0.0
H873 H 0.27167 0.58013 0.36227 0.0
H874 H 0.27879 0.67972 0.37024 0.0
H875 H 0.35941 0.66352 0.36805 0.0
C876 C 0.38565 0.71038 0.35507 0.0
C877 C 0.38502 0.73632 0.34502 0.0
C878 C 0.27722 0.65787 0.36855 0.0
C879 C 0.33135 0.68221 0.35367 0.0
C880 C 0.24955 0.6321 0.37363 0.0
C881 C 0.24676 0.60352 0.37076 0.0
C882 C 0.30239 0.65513 0.36095 0.0
C883 C 0.27278 0.60174 0.36445 0.0
C884 C 0.35878 0.68315 0.3592 0.0
C885 C 0.35711 0.7337 0.3375 0.0
N886 N 0.29965 0.62731 0.35965 0.0
N887 N 0.33138 0.70723 0.34245 0.0
H888 H 0.58312 0.33937 0.70474 0.0
H889 H 0.6907 0.27085 0.69272 0.0
H890 H 0.67965 0.39537 0.69443 0.0
H891 H 0.59883 0.22113 0.72788 0.0
H892 H 0.6884 0.31725 0.69555 0.0
H893 H 0.58925 0.29599 0.71402 0.0
C894 C 0.60565 0.34258 0.70437 0.0
C895 C 0.63091 0.37104 0.69853 0.0
C896 C 0.66894 0.29622 0.70309 0.0
C897 C 0.63805 0.3213 0.7093 0.0
C898 C 0.67021 0.26971 0.70152 0.0
C899 C 0.64469 0.24197 0.70944 0.0
C900 C 0.64192 0.29481 0.71236 0.0
C901 C 0.61889 0.24191 0.721 0.0
C902 C 0.60914 0.31778 0.70995 0.0
C903 C 0.65954 0.37379 0.69863 0.0
N904 N 0.61804 0.2679 0.72165 0.0
N905 N 0.66233 0.3491 0.70367 0.0
H906 H 0.22863 0.60257 0.99957 0.0
H907 H 0.40441 0.69851 0.02849 0.0
H908 H 0.27053 0.69704 0.02555 0.0
H909 H 0.35003 0.60324 0.05008 0.0
H910 H 0.35811 0.70055 1.02008 0.0
H911 H 0.27652 0.60481 1.00757 0.0
C912 C 0.24794 0.62391 1.00664 0.0
C913 C 0.24542 0.64957 1.01237 0.0
C914 C 0.35656 0.67938 0.02696 0.0
C915 C 0.30032 0.65209 0.02171 0.0
C916 C 0.38285 0.67816 0.03188 0.0
C917 C 0.38111 0.65057 0.03964 0.0
C918 C 0.32862 0.65277 0.02936 0.0
C919 C 0.35258 0.62495 0.04378 0.0
C920 C 0.27523 0.62507 1.01142 0.0
C921 C 0.27143 0.67666 0.02112 0.0
N922 N 0.32749 0.62662 0.03818 0.0
N923 N 0.29794 0.67721 0.0257 0.0
H924 H 0.45262 0.04517 0.33015 0.0
H925 H 0.48578 0.92873 0.42643 0.0
H926 H 0.48233 0.05937 0.43149 0.0
H927 H 0.4721 0.92901 0.32129 0.0
H928 H 0.48141 0.97423 0.43148 0.0
H929 H 0.45216 -0.00254 0.33017 0.0
C930 C 0.45821 0.03768 0.35273 0.0
C931 C 0.46754 0.05601 0.38082 0.0
C932 C 0.47967 0.9644 0.40733 0.0
C933 C 0.46845 0.00222 0.38071 0.0
C934 C 0.4826 0.93878 0.40438 0.0
C935 C 0.47923 0.92516 0.3734 0.0
C936 C 0.47322 0.97611 0.37912 0.0
C937 C 0.47467 0.93872 0.34566 0.0
C938 C 0.45841 0.0107 0.35263 0.0
C939 C 0.47477 0.04557 0.40944 0.0
N940 N 0.47156 0.96327 0.34924 0.0
N941 N 0.47557 0.01943 0.40854 0.0
H942 H 0.41938 0.49157 0.74516 0.0
H943 H 0.53112 0.46035 0.64109 0.0
H944 H 0.43264 0.51126 0.64087 0.0
H945 H 0.55116 0.4926 0.74149 0.0
H946 H 0.48942 0.47073 0.64066 0.0
H947 H 0.46166 0.48186 0.74466 0.0
C948 C 0.43084 0.49327 0.7221 0.0
C949 C 0.42268 0.50212 0.69299 0.0
C950 C 0.50317 0.4758 0.66262 0.0
C951 C 0.47062 0.49132 0.69233 0.0
C952 C 0.52692 0.47001 0.66285 0.0
C953 C 0.54453 0.47588 0.69129 0.0
C954 C 0.49664 0.48672 0.69132 0.0
C955 C 0.53821 0.48815 0.71898 0.0
C956 C 0.45508 0.48814 0.72193 0.0
C957 C 0.43841 0.50449 0.66381 0.0
N958 N 0.51439 0.49281 0.7185 0.0
N959 N 0.46164 0.49899 0.66416 0.0
H960 H 0.91405 0.44224 0.96366 0.0
H961 H 0.04687 0.55978 0.07935 0.0
H962 H 0.91953 0.42549 0.06718 0.0
H963 H 0.05409 0.55729 0.97338 0.0
H964 H -0.00376 0.51512 0.07624 0.0
H965 H 0.9628 0.48834 0.96755 0.0
C966 C 0.92579 0.44813 0.98712 0.0
C967 C 0.91298 0.43008 1.01512 0.0
C968 C 0.00888 0.52462 0.05371 0.0
C969 C 0.96827 0.48303 1.01992 0.0
C970 C 0.03745 0.55026 0.05544 0.0
C971 C 0.05443 0.56201 0.02656 0.0
C972 C -0.00262 0.5112 0.02289 0.0
C973 C 0.04161 0.54872 0.99619 0.0
C974 C 0.95349 0.47447 0.98936 0.0
C975 C 0.92893 0.4387 0.04497 0.0
N976 N 0.01385 0.52393 0.99514 0.0
N977 N 0.95577 0.46484 0.0467 0.0
H978 H 0.05039 0.48808 0.30343 0.0
H979 H 0.90401 0.45016 0.40545 0.0
H980 H 0.0538 0.50277 0.40865 0.0
H981 H 0.91886 0.48726 0.30703 0.0
H982 H 0.9559 0.45994 0.40635 0.0
H983 H -0.00221 0.47653 0.30333 0.0
C984 C 0.03983 0.48824 0.32654 0.0
C985 C 0.05619 0.49633 0.35609 0.0
C986 C 0.94778 0.4661 0.38471 0.0
C987 C -0.00325 0.4834 0.35611 0.0
C988 C 0.91836 0.46066 0.38421 0.0
C989 C 0.90744 0.46818 0.35622 0.0
C990 C 0.96596 0.47838 0.3567 0.0
C991 C 0.92669 0.48153 0.3292 0.0
C992 C 0.0101 0.48205 0.3264 0.0
C993 C 0.0418 0.49668 0.38537 0.0
N994 N 0.95506 0.48591 0.32993 0.0
N995 N 0.01276 0.49023 0.38468 0.0
H996 H 0.57043 0.04668 0.71382 0.0
H997 H 0.41891 0.92602 0.6237 0.0
H998 H 0.55199 0.05711 0.61231 0.0
H999 H 0.43598 0.92957 0.72845 0.0
H1000 H 0.46844 0.97156 0.6164 0.0
H1001 H 0.52365 -0.00141 0.71605 0.0
C1002 C 0.5568 0.03828 0.6917 0.0
C1003 C 0.56484 0.05565 0.66289 0.0
C1004 C 0.46111 0.96242 0.64095 0.0
C1005 C 0.51066 0.00142 0.66554 0.0
C1006 C 0.43276 0.93677 0.64519 0.0
C1007 C 0.42348 0.92409 0.67672 0.0
C1008 C 0.48003 0.9751 0.66845 0.0
C1009 C 0.44236 0.93854 0.70368 0.0
C1010 C 0.5299 0.01108 0.69306 0.0
C1011 C 0.5465 0.04407 0.63488 0.0
N1012 N 0.46979 0.9631 0.69888 0.0
N1013 N 0.51982 0.01773 0.63703 0.0
H1014 H 0.49385 0.56495 0.9729 0.0
H1015 H 0.51765 0.45 0.08308 0.0
H1016 H 0.47759 0.55535 0.07795 0.0
H1017 H 0.49368 0.43346 0.97995 0.0
H1018 H 0.51113 0.49403 0.08105 0.0
H1019 H 0.50351 0.52254 0.97444 0.0
C1020 C 0.49295 0.5543 0.99632 0.0
C1021 C 0.48493 0.56344 0.02535 0.0
C1022 C 0.50712 0.48065 0.05893 0.0
C1023 C 0.49559 0.51532 0.02722 0.0
C1024 C 0.51074 0.45554 0.06009 0.0
C1025 C 0.506 0.43811 0.03167 0.0
C1026 C 0.49923 0.48864 0.02902 0.0
C1027 C 0.49719 0.44622 1.00246 0.0
C1028 C 0.49806 0.52999 0.99711 0.0
C1029 C 0.48362 0.54879 0.05504 0.0
N1030 N 0.49432 0.47118 1.00177 0.0
N1031 N 0.48889 0.5254 0.05522 0.0
H1032 H 0.46614 0.24061 0.29984 0.0
H1033 H 0.4603 0.23978 0.10183 0.0
H1034 H 0.45963 0.16807 0.23977 0.0
H1035 H 0.50234 0.32042 0.16137 0.0
H1036 H 0.44419 0.20939 0.15273 0.0
H1037 H 0.46293 0.26575 0.24951 0.0
C1038 C 0.46299 0.22951 0.2762 0.0
C1039 C 0.46334 0.20239 0.27382 0.0
C1040 C 0.45649 0.23377 0.15452 0.0
C1041 C 0.4599 0.23092 0.21643 0.0
C1042 C 0.46556 0.25107 0.12555 0.0
C1043 C 0.48302 0.28259 0.12747 0.0
C1044 C 0.46449 0.24821 0.18546 0.0
C1045 C 0.4893 0.29613 0.15882 0.0
C1046 C 0.46146 0.24396 0.2475 0.0
C1047 C 0.45964 0.18912 0.24255 0.0
N1048 N 0.4802 0.2789 0.18655 0.0
N1049 N 0.45835 0.20362 0.21504 0.0
H1050 H 0.23132 0.48421 0.42616 0.0
H1051 H 0.23195 0.48221 0.62423 0.0
H1052 H 0.17407 0.50442 0.48587 0.0
H1053 H 0.31131 0.50936 0.565 0.0
H1054 H 0.20239 0.47281 0.57322 0.0
H1055 H 0.25249 0.47582 0.47699 0.0
C1056 C 0.22265 0.48606 0.44991 0.0
C1057 C 0.20115 0.49524 0.45196 0.0
C1058 C 0.22617 0.48023 0.57152 0.0
C1059 C 0.2249 0.4855 0.50978 0.0
C1060 C 0.24295 0.48542 0.60053 0.0
C1061 C 0.27409 0.49682 0.5987 0.0
C1062 C 0.24061 0.48589 0.54066 0.0
C1063 C 0.28737 0.50086 0.5674 0.0
C1064 C 0.23482 0.48147 0.47882 0.0
C1065 C 0.19084 0.49762 0.48332 0.0
N1066 N 0.2706 0.49551 0.53961 0.0
N1067 N 0.20288 0.49292 0.51101 0.0
H1068 H 0.75463 0.23194 0.94215 0.0
H1069 H 0.75267 0.23651 0.74413 0.0
H1070 H 0.79889 0.31354 0.88432 0.0
H1071 H 0.68216 0.16625 0.80256 0.0
H1072 H 0.78117 0.25931 0.79511 0.0
H1073 H 0.73912 0.20244 0.89061 0.0
C1074 C 0.76164 0.24357 0.91867 0.0
C1075 C 0.77768 0.27518 0.91739 0.0
C1076 C 0.75977 0.23849 0.79661 0.0
C1077 C 0.76044 0.24181 0.85871 0.0
C1078 C 0.74368 0.22537 0.76755 0.0
C1079 C 0.715 0.19966 0.76929 0.0
C1080 C 0.74718 0.22549 0.82738 0.0
C1081 C 0.70415 0.18627 0.80028 0.0
C1082 C 0.75273 0.22679 0.88934 0.0
C1083 C 0.78615 0.28919 0.88634 0.0
N1084 N 0.72011 0.19946 0.82814 0.0
N1085 N 0.7773 0.27246 0.85826 0.0
H1086 H 0.50474 0.75374 0.09595 0.0
H1087 H 0.50381 0.75287 0.29412 0.0
H1088 H 0.47804 0.67403 0.15469 0.0
H1089 H 0.48676 0.81296 0.23542 0.0
H1090 H 0.51173 0.73176 0.24295 0.0
H1091 H 0.51534 0.78336 0.14715 0.0
C1092 C 0.50185 0.74267 0.11957 0.0
C1093 C 0.49022 0.71141 0.12122 0.0
C1094 C 0.5069 0.75004 0.24141 0.0
C1095 C 0.50249 0.74495 0.17948 0.0
C1096 C 0.50261 0.76219 0.27053 0.0
C1097 C 0.4944 0.78446 0.26886 0.0
C1098 C 0.50349 0.7607 0.21061 0.0
C1099 C 0.4928 0.79559 0.23768 0.0
C1100 C 0.50773 0.75948 0.14869 0.0
C1101 C 0.48667 0.69806 0.15241 0.0
N1102 N 0.49712 0.7835 0.20978 0.0
N1103 N 0.49263 0.71485 0.18031 0.0
H1104 H 0.64094 0.41956 0.57069 0.0
H1105 H 0.77636 0.50604 0.44449 0.0
H1106 H 0.72131 0.49926 0.60431 0.0
H1107 H 0.72036 0.40925 0.45065 0.0
H1108 H 0.75267 0.51053 0.49596 0.0
H1109 H 0.66535 0.42293 0.51838 0.0
C1110 C 0.66375 0.43796 0.56711 0.0
C1111 C 0.67925 0.45886 0.59237 0.0
C1112 C 0.74574 0.48844 0.48581 0.0
C1113 C 0.7074 0.46285 0.53175 0.0
C1114 C 0.75904 0.48587 0.45648 0.0
C1115 C 0.75034 0.45722 0.44336 0.0
C1116 C 0.72313 0.46222 0.50125 0.0
C1117 C 0.72794 0.43178 0.45991 0.0
C1118 C 0.67767 0.43981 0.53709 0.0
C1119 C 0.70864 0.48249 0.58567 0.0
N1120 N 0.71505 0.4349 0.48768 0.0
N1121 N 0.72193 0.48378 0.55595 0.0
H1122 H 0.17182 0.67296 0.89808 0.0
H1123 H 0.30381 0.81631 0.81748 0.0
H1124 H 0.22547 0.75356 0.95517 0.0
H1125 H 0.22718 0.75311 0.76017 0.0
H1126 H 0.27457 0.79549 0.86803 0.0
H1127 H 0.19005 0.70257 0.8474 0.0
C1128 C 0.18709 0.69706 0.89991 0.0
C1129 C 0.19735 0.71084 0.93081 0.0
C1130 C 0.26386 0.78659 0.84443 0.0
C1131 C 0.21883 0.7448 0.87282 0.0
C1132 C 0.28053 0.79845 0.81557 0.0
C1133 C 0.26787 0.78629 0.78468 0.0
C1134 C 0.23454 0.76178 0.84249 0.0
C1135 C 0.23769 0.76316 0.78352 0.0
C1136 C 0.19741 0.71396 0.87096 0.0
C1137 C 0.21702 0.74212 0.93181 0.0
N1138 N 0.22223 0.75117 0.81211 0.0
N1139 N 0.22766 0.75798 0.90316 0.0
loop_
_geom_bond_atom_site_label_1
_geom_bond_atom_site_label_2
_geom_bond_distance
_geom_bond_site_symmetry_2
_ccdc_geom_bond_type
Co0 O2 2.143 . S
Co0 O8 2.074 . S
Co0 O11 2.093 . S
Co0 O24 2.097 . S
Co0 N41 2.151 . S
Co0 N49 2.214 . S
Co1 O2 2.160 . S
Co1 O7 2.058 . S
Co1 O17 2.057 . S
Co1 O32 2.037 . S
Co1 N36 2.145 . S
Co1 N57 2.257 . S
O2 Co0 2.143 . S
O2 Co1 2.160 . S
C3 O4 1.278 . S
C3 O11 1.224 . S
O4 C3 1.278 . S
C5 O6 1.245 . S
C5 O17 1.232 . S
O6 C5 1.245 . S
O7 Co1 2.058 . S
O7 C33 1.269 . S
O8 Co0 2.074 . S
O8 C33 1.257 . S
H9 C34 0.930 . S
H10 C40 0.930 . S
O11 Co0 2.093 . S
O11 C3 1.224 . S
H12 C44 0.929 . S
H13 C46 0.930 . S
H14 C47 0.930 . S
H15 C45 0.929 . S
H16 C48 0.928 . S
O17 Co1 2.057 . S
O17 C5 1.232 . S
H18 C37 0.929 . S
H19 C38 0.929 . S
H20 C50 0.931 . S
H21 C42 0.929 . S
H22 C51 0.930 . S
H23 C43 0.931 . S
O24 Co0 2.097 . S
O24 C52 1.214 . S
H25 C53 0.929 . S
H26 C54 0.929 . S
H27 C55 0.930 . S
H28 C56 0.929 . S
H29 C58 0.930 . S
H30 C35 0.930 . S
H31 C39 0.930 . S
O32 Co1 2.037 . S
O32 C52 1.234 . S
C33 O7 1.269 . S
C33 O8 1.257 . S
C34 H9 0.930 . S
C34 C37 1.388 . S
C34 C39 1.418 . S
C35 H30 0.930 . S
C35 C38 1.404 . S
C35 C39 1.353 . S
N36 Co1 2.145 . S
N36 C37 1.397 . S
N36 C38 1.334 . S
C37 H18 0.929 . S
C37 C34 1.388 . S
C37 N36 1.397 . S
C38 H19 0.929 . S
C38 C35 1.404 . S
C38 N36 1.334 . S
C39 H31 0.930 . S
C39 C34 1.418 . S
C39 C35 1.353 . S
C40 H10 0.930 . S
C40 N41 1.330 . S
C40 C42 1.446 . S
N41 Co0 2.151 . S
N41 C40 1.330 . S
N41 C45 1.418 . S
C42 H21 0.929 . S
C42 C40 1.446 . S
C42 C43 1.332 . S
C43 H23 0.931 . S
C43 C42 1.332 . S
C43 C44 1.267 . S
C44 H12 0.929 . S
C44 C43 1.267 . S
C44 C45 1.251 . S
C45 H15 0.929 . S
C45 N41 1.418 . S
C45 C44 1.251 . S
C46 H13 0.930 . S
C46 C48 1.406 . S
C46 C51 1.261 . S
C47 H14 0.930 . S
C47 N49 1.325 . S
C47 C50 1.357 . S
C48 H16 0.928 . S
C48 C46 1.406 . S
C48 N49 1.261 . S
N49 Co0 2.214 . S
N49 C47 1.325 . S
N49 C48 1.261 . S
C50 H20 0.931 . S
C50 C47 1.357 . S
C50 C51 1.312 . S
C51 H22 0.930 . S
C51 C46 1.261 . S
C51 C50 1.312 . S
C52 O24 1.214 . S
C52 O32 1.234 . S
C53 H25 0.929 . S
C53 C56 1.391 . S
C53 C58 1.391 . S
C54 H26 0.929 . S
C54 C55 1.390 . S
C54 N57 1.391 . S
C55 H27 0.930 . S
C55 C54 1.390 . S
C55 C56 1.392 . S
C56 H28 0.929 . S
C56 C53 1.391 . S
C56 C55 1.392 . S
N57 Co1 2.257 . S
N57 C54 1.391 . S
N57 C58 1.388 . S
C58 H29 0.930 . S
C58 C53 1.391 . S
C58 N57 1.388 . S
Co59 O61 2.143 . S
Co59 O67 2.074 . S
Co59 O70 2.093 . S
Co59 O83 2.097 . S
Co59 N100 2.151 . S
Co59 N108 2.214 . S
Co60 O61 2.160 . S
Co60 O66 2.058 . S
Co60 O76 2.057 . S
Co60 O91 2.037 . S
Co60 N95 2.145 . S
Co60 N116 2.257 . S
O61 Co59 2.143 . S
O61 Co60 2.160 . S
C62 O63 1.278 . S
C62 O70 1.224 . S
O63 C62 1.278 . S
C64 O65 1.245 . S
C64 O76 1.232 . S
O65 C64 1.245 . S
O66 Co60 2.058 . S
O66 C92 1.269 . S
O67 Co59 2.074 . S
O67 C92 1.257 . S
H68 C93 0.930 . S
H69 C99 0.930 . S
O70 Co59 2.093 . S
O70 C62 1.224 . S
H71 C103 0.929 . S
H72 C105 0.930 . S
H73 C106 0.930 . S
H74 C104 0.929 . S
H75 C107 0.928 . S
O76 Co60 2.057 . S
O76 C64 1.232 . S
H77 C96 0.929 . S
H78 C97 0.929 . S
H79 C109 0.931 . S
H80 C101 0.929 . S
H81 C110 0.930 . S
H82 C102 0.931 . S
O83 Co59 2.097 . S
O83 C111 1.214 . S
H84 C112 0.929 . S
H85 C113 0.929 . S
H86 C114 0.930 . S
H87 C115 0.929 . S
H88 C117 0.930 . S
H89 C94 0.930 . S
H90 C98 0.930 . S
O91 Co60 2.037 . S
O91 C111 1.234 . S
C92 O66 1.269 . S
C92 O67 1.257 . S
C93 H68 0.930 . S
C93 C96 1.388 . S
C93 C98 1.418 . S
C94 H89 0.930 . S
C94 C97 1.404 . S
C94 C98 1.353 . S
N95 Co60 2.145 . S
N95 C96 1.397 . S
N95 C97 1.334 . S
C96 H77 0.929 . S
C96 C93 1.388 . S
C96 N95 1.397 . S
C97 H78 0.929 . S
C97 C94 1.404 . S
C97 N95 1.334 . S
C98 H90 0.930 . S
C98 C93 1.418 . S
C98 C94 1.353 . S
C99 H69 0.930 . S
C99 N100 1.330 . S
C99 C101 1.446 . S
N100 Co59 2.151 . S
N100 C99 1.330 . S
N100 C104 1.418 . S
C101 H80 0.929 . S
C101 C99 1.446 . S
C101 C102 1.332 . S
C102 H82 0.931 . S
C102 C101 1.332 . S
C102 C103 1.267 . S
C103 H71 0.929 . S
C103 C102 1.267 . S
C103 C104 1.251 . S
C104 H74 0.929 . S
C104 N100 1.418 . S
C104 C103 1.251 . S
C105 H72 0.930 . S
C105 C107 1.406 . S
C105 C110 1.261 . S
C106 H73 0.930 . S
C106 N108 1.325 . S
C106 C109 1.357 . S
C107 H75 0.928 . S
C107 C105 1.406 . S
C107 N108 1.261 . S
N108 Co59 2.214 . S
N108 C106 1.325 . S
N108 C107 1.261 . S
C109 H79 0.931 . S
C109 C106 1.357 . S
C109 C110 1.312 . S
C110 H81 0.930 . S
C110 C105 1.261 . S
C110 C109 1.312 . S
C111 O83 1.214 . S
C111 O91 1.234 . S
C112 H84 0.929 . S
C112 C115 1.391 . S
C112 C117 1.391 . S
C113 H85 0.929 . S
C113 C114 1.390 . S
C113 N116 1.391 . S
C114 H86 0.930 . S
C114 C113 1.390 . S
C114 C115 1.392 . S
C115 H87 0.929 . S
C115 C112 1.391 . S
C115 C114 1.392 . S
N116 Co60 2.257 . S
N116 C113 1.391 . S
N116 C117 1.388 . S
C117 H88 0.930 . S
C117 C112 1.391 . S
C117 N116 1.388 . S
Co118 O120 2.131 1_554 S
Co118 O126 2.103 . S
Co118 O129 2.063 1_554 S
Co118 O142 2.091 1_554 S
Co118 N159 2.158 . S
Co118 N167 2.226 . S
Co119 O120 2.160 1_554 S
Co119 O125 2.058 . S
Co119 O135 2.057 1_554 S
Co119 O150 2.037 . S
Co119 N154 2.145 . S
Co119 N175 2.257 1_554 S
O120 Co118 2.131 1_556 S
O120 Co119 2.160 1_556 S
C121 O122 1.278 . S
C121 O129 1.224 . S
O122 C121 1.278 . S
C123 O124 1.245 . S
C123 O135 1.232 . S
O124 C123 1.245 . S
O125 Co119 2.058 . S
O125 C151 1.269 . S
O126 Co118 2.103 . S
O126 C151 1.257 . S
H127 C152 0.930 . S
H128 C158 0.930 . S
O129 Co118 2.063 1_556 S
O129 C121 1.224 . S
H130 C162 0.929 . S
H131 C164 0.930 . S
H132 C165 0.930 . S
H133 C163 0.929 . S
H134 C166 0.953 . S
O135 Co119 2.057 1_556 S
O135 C123 1.232 . S
H136 C155 0.929 . S
H137 C156 0.914 1_556 S
H138 C168 0.931 . S
H139 C160 0.929 . S
H140 C169 0.930 . S
H141 C161 0.931 . S
O142 Co118 2.091 1_556 S
O142 C170 1.225 . S
H143 C171 0.929 . S
H144 C172 0.929 . S
H145 C173 0.930 . S
H146 C174 0.929 . S
H147 C176 0.930 . S
H148 C153 0.930 . S
H149 C157 0.930 . S
O150 Co119 2.037 . S
O150 C170 1.228 1_554 S
C151 O125 1.269 . S
C151 O126 1.257 . S
C152 H127 0.930 . S
C152 C155 1.388 . S
C152 C157 1.418 . S
C153 H148 0.930 . S
C153 C156 1.404 . S
C153 C157 1.353 . S
N154 Co119 2.145 . S
N154 C155 1.397 . S
N154 C156 1.334 . S
C155 H136 0.929 . S
C155 C152 1.388 . S
C155 N154 1.397 . S
C156 H137 0.914 1_554 S
C156 C153 1.404 . S
C156 N154 1.334 . S
C157 H149 0.930 . S
C157 C152 1.418 . S
C157 C153 1.353 . S
C158 H128 0.930 . S
C158 N159 1.330 1_556 S
C158 C160 1.446 . S
N159 Co118 2.158 . S
N159 C158 1.330 1_554 S
N159 C163 1.418 . S
C160 H139 0.929 . S
C160 C158 1.446 . S
C160 C161 1.332 1_556 S
C161 H141 0.931 . S
C161 C160 1.332 1_554 S
C161 C162 1.267 . S
C162 H130 0.929 . S
C162 C161 1.267 . S
C162 C163 1.251 . S
C163 H133 0.929 . S
C163 N159 1.418 . S
C163 C162 1.251 . S
C164 H131 0.930 . S
C164 C166 1.406 . S
C164 C169 1.261 . S
C165 H132 0.930 . S
C165 N167 1.325 . S
C165 C168 1.357 . S
C166 H134 0.953 . S
C166 C164 1.406 . S
C166 N167 1.261 . S
N167 Co118 2.226 . S
N167 C165 1.325 . S
N167 C166 1.261 . S
C168 H138 0.931 . S
C168 C165 1.357 . S
C168 C169 1.312 . S
C169 H140 0.930 . S
C169 C164 1.261 . S
C169 C168 1.312 . S
C170 O142 1.225 . S
C170 O150 1.228 1_556 S
C171 H143 0.929 . S
C171 C174 1.391 . S
C171 C176 1.391 . S
C172 H144 0.929 . S
C172 C173 1.390 . S
C172 N175 1.391 . S
C173 H145 0.930 . S
C173 C172 1.390 . S
C173 C174 1.392 . S
C174 H146 0.929 . S
C174 C171 1.391 . S
C174 C173 1.392 . S
N175 Co119 2.257 1_556 S
N175 C172 1.391 . S
N175 C176 1.388 . S
C176 H147 0.930 . S
C176 C171 1.391 . S
C176 N175 1.388 . S
Co177 O179 2.143 . S
Co177 O185 2.074 . S
Co177 O188 2.093 . S
Co177 O201 2.097 . S
Co177 N218 2.151 . S
Co177 N226 2.214 . S
Co178 O179 2.160 . S
Co178 O184 2.058 . S
Co178 O194 2.057 . S
Co178 O209 2.037 . S
Co178 N213 2.145 . S
Co178 N234 2.257 . S
O179 Co177 2.143 . S
O179 Co178 2.160 . S
C180 O181 1.278 . S
C180 O188 1.224 . S
O181 C180 1.278 . S
C182 O183 1.245 . S
C182 O194 1.232 . S
O183 C182 1.245 . S
O184 Co178 2.058 . S
O184 C210 1.269 . S
O185 Co177 2.074 . S
O185 C210 1.257 . S
H186 C211 0.930 . S
H187 C217 0.930 . S
O188 Co177 2.093 . S
O188 C180 1.224 . S
H189 C221 0.929 . S
H190 C223 0.930 . S
H191 C224 0.930 . S
H192 C222 0.929 . S
H193 C225 0.928 . S
O194 Co178 2.057 . S
O194 C182 1.232 . S
H195 C214 0.929 . S
H196 C215 0.929 . S
H197 C227 0.931 . S
H198 C219 0.929 . S
H199 C228 0.930 . S
H200 C220 0.931 . S
O201 Co177 2.097 . S
O201 C229 1.214 . S
H202 C230 0.929 . S
H203 C231 0.929 . S
H204 C232 0.930 . S
H205 C233 0.929 . S
H206 C235 0.930 . S
H207 C212 0.930 . S
H208 C216 0.930 . S
O209 Co178 2.037 . S
O209 C229 1.234 . S
C210 O184 1.269 . S
C210 O185 1.257 . S
C211 H186 0.930 . S
C211 C214 1.388 . S
C211 C216 1.418 . S
C212 H207 0.930 . S
C212 C215 1.404 . S
C212 C216 1.353 . S
N213 Co178 2.145 . S
N213 C214 1.397 . S
N213 C215 1.334 . S
C214 H195 0.929 . S
C214 C211 1.388 . S
C214 N213 1.397 . S
C215 H196 0.929 . S
C215 C212 1.404 . S
C215 N213 1.334 . S
C216 H208 0.930 . S
C216 C211 1.418 . S
C216 C212 1.353 . S
C217 H187 0.930 . S
C217 N218 1.330 . S
C217 C219 1.446 . S
N218 Co177 2.151 . S
N218 C217 1.330 . S
N218 C222 1.418 . S
C219 H198 0.929 . S
C219 C217 1.446 . S
C219 C220 1.332 . S
C220 H200 0.931 . S
C220 C219 1.332 . S
C220 C221 1.267 . S
C221 H189 0.929 . S
C221 C220 1.267 . S
C221 C222 1.251 . S
C222 H192 0.929 . S
C222 N218 1.418 . S
C222 C221 1.251 . S
C223 H190 0.930 . S
C223 C225 1.406 . S
C223 C228 1.261 . S
C224 H191 0.930 . S
C224 N226 1.325 . S
C224 C227 1.357 . S
C225 H193 0.928 . S
C225 C223 1.406 . S
C225 N226 1.261 . S
N226 Co177 2.214 . S
N226 C224 1.325 . S
N226 C225 1.261 . S
C227 H197 0.931 . S
C227 C224 1.357 . S
C227 C228 1.312 . S
C228 H199 0.930 . S
C228 C223 1.261 . S
C228 C227 1.312 . S
C229 O201 1.214 . S
C229 O209 1.234 . S
C230 H202 0.929 . S
C230 C233 1.391 . S
C230 C235 1.391 . S
C231 H203 0.929 . S
C231 C232 1.390 . S
C231 N234 1.391 . S
C232 H204 0.930 . S
C232 C231 1.390 . S
C232 C233 1.392 . S
C233 H205 0.929 . S
C233 C230 1.391 . S
C233 C232 1.392 . S
N234 Co178 2.257 . S
N234 C231 1.391 . S
N234 C235 1.388 . S
C235 H206 0.930 . S
C235 C230 1.391 . S
C235 N234 1.388 . S
Co236 O238 2.143 . S
Co236 O244 2.074 . S
Co236 O247 2.093 . S
Co236 O260 2.097 . S
Co236 N277 2.151 . S
Co236 N285 2.214 . S
Co237 O238 2.160 . S
Co237 O243 2.058 . S
Co237 O253 2.057 . S
Co237 O268 2.037 . S
Co237 N272 2.145 . S
Co237 N293 2.257 . S
O238 Co236 2.143 . S
O238 Co237 2.160 . S
C239 O240 1.278 . S
C239 O247 1.224 . S
O240 C239 1.278 . S
C241 O242 1.245 . S
C241 O253 1.232 . S
O242 C241 1.245 . S
O243 Co237 2.058 . S
O243 C269 1.269 . S
O244 Co236 2.074 . S
O244 C269 1.257 . S
H245 C270 0.930 . S
H246 C276 0.930 . S
O247 Co236 2.093 . S
O247 C239 1.224 . S
H248 C280 0.929 . S
H249 C282 0.930 . S
H250 C283 0.930 . S
H251 C281 0.929 . S
H252 C284 0.928 . S
O253 Co237 2.057 . S
O253 C241 1.232 . S
H254 C273 0.929 . S
H255 C274 0.929 . S
H256 C286 0.931 . S
H257 C278 0.929 . S
H258 C287 0.930 . S
H259 C279 0.931 . S
O260 Co236 2.097 . S
O260 C288 1.214 . S
H261 C289 0.929 . S
H262 C290 0.929 . S
H263 C291 0.930 . S
H264 C292 0.929 . S
H265 C294 0.930 . S
H266 C271 0.930 . S
H267 C275 0.930 . S
O268 Co237 2.037 . S
O268 C288 1.234 . S
C269 O243 1.269 . S
C269 O244 1.257 . S
C270 H245 0.930 . S
C270 C273 1.388 . S
C270 C275 1.418 . S
C271 H266 0.930 . S
C271 C274 1.404 . S
C271 C275 1.353 . S
N272 Co237 2.145 . S
N272 C273 1.397 . S
N272 C274 1.334 . S
C273 H254 0.929 . S
C273 C270 1.388 . S
C273 N272 1.397 . S
C274 H255 0.929 . S
C274 C271 1.404 . S
C274 N272 1.334 . S
C275 H267 0.930 . S
C275 C270 1.418 . S
C275 C271 1.353 . S
C276 H246 0.930 . S
C276 N277 1.330 . S
C276 C278 1.446 . S
N277 Co236 2.151 . S
N277 C276 1.330 . S
N277 C281 1.418 . S
C278 H257 0.929 . S
C278 C276 1.446 . S
C278 C279 1.332 . S
C279 H259 0.931 . S
C279 C278 1.332 . S
C279 C280 1.267 . S
C280 H248 0.929 . S
C280 C279 1.267 . S
C280 C281 1.251 . S
C281 H251 0.929 . S
C281 N277 1.418 . S
C281 C280 1.251 . S
C282 H249 0.930 . S
C282 C284 1.406 . S
C282 C287 1.261 . S
C283 H250 0.930 . S
C283 N285 1.325 . S
C283 C286 1.357 . S
C284 H252 0.928 . S
C284 C282 1.406 . S
C284 N285 1.261 . S
N285 Co236 2.214 . S
N285 C283 1.325 . S
N285 C284 1.261 . S
C286 H256 0.931 . S
C286 C283 1.357 . S
C286 C287 1.312 . S
C287 H258 0.930 . S
C287 C282 1.261 . S
C287 C286 1.312 . S
C288 O260 1.214 . S
C288 O268 1.234 . S
C289 H261 0.929 . S
C289 C292 1.391 . S
C289 C294 1.391 . S
C290 H262 0.929 . S
C290 C291 1.390 . S
C290 N293 1.391 . S
C291 H263 0.930 . S
C291 C290 1.390 . S
C291 C292 1.392 . S
C292 H264 0.929 . S
C292 C289 1.391 . S
C292 C291 1.392 . S
N293 Co237 2.257 . S
N293 C290 1.391 . S
N293 C294 1.388 . S
C294 H265 0.930 . S
C294 C289 1.391 . S
C294 N293 1.388 . S
Co295 O297 2.131 1_554 S
Co295 O303 2.103 . S
Co295 O306 2.063 1_554 S
Co295 O319 2.091 1_554 S
Co295 N336 2.158 . S
Co295 N344 2.226 . S
Co296 O297 2.160 1_554 S
Co296 O302 2.058 . S
Co296 O312 2.057 1_554 S
Co296 O327 2.037 . S
Co296 N331 2.145 . S
Co296 N352 2.257 1_554 S
O297 Co295 2.131 1_556 S
O297 Co296 2.160 1_556 S
C298 O299 1.278 . S
C298 O306 1.224 . S
O299 C298 1.278 . S
C300 O301 1.245 . S
C300 O312 1.232 . S
O301 C300 1.245 . S
O302 Co296 2.058 . S
O302 C328 1.269 . S
O303 Co295 2.103 . S
O303 C328 1.257 . S
H304 C329 0.930 . S
H305 C335 0.930 . S
O306 Co295 2.063 1_556 S
O306 C298 1.224 . S
H307 C339 0.929 . S
H308 C341 0.930 . S
H309 C342 0.930 . S
H310 C340 0.929 . S
H311 C343 0.953 . S
O312 Co296 2.057 1_556 S
O312 C300 1.232 . S
H313 C332 0.929 . S
H314 C333 0.914 1_556 S
H315 C345 0.931 . S
H316 C337 0.929 . S
H317 C346 0.930 . S
H318 C338 0.931 . S
O319 Co295 2.091 1_556 S
O319 C347 1.225 . S
H320 C348 0.929 . S
H321 C349 0.929 . S
H322 C350 0.930 . S
H323 C351 0.929 . S
H324 C353 0.930 . S
H325 C330 0.930 . S
H326 C334 0.930 . S
O327 Co296 2.037 . S
O327 C347 1.228 1_554 S
C328 O302 1.269 . S
C328 O303 1.257 . S
C329 H304 0.930 . S
C329 C332 1.388 . S
C329 C334 1.418 . S
C330 H325 0.930 . S
C330 C333 1.404 . S
C330 C334 1.353 . S
N331 Co296 2.145 . S
N331 C332 1.397 . S
N331 C333 1.334 . S
C332 H313 0.929 . S
C332 C329 1.388 . S
C332 N331 1.397 . S
C333 H314 0.914 1_554 S
C333 C330 1.404 . S
C333 N331 1.334 . S
C334 H326 0.930 . S
C334 C329 1.418 . S
C334 C330 1.353 . S
C335 H305 0.930 . S
C335 N336 1.330 1_556 S
C335 C337 1.446 . S
N336 Co295 2.158 . S
N336 C335 1.330 1_554 S
N336 C340 1.418 . S
C337 H316 0.929 . S
C337 C335 1.446 . S
C337 C338 1.332 1_556 S
C338 H318 0.931 . S
C338 C337 1.332 1_554 S
C338 C339 1.267 . S
C339 H307 0.929 . S
C339 C338 1.267 . S
C339 C340 1.251 . S
C340 H310 0.929 . S
C340 N336 1.418 . S
C340 C339 1.251 . S
C341 H308 0.930 . S
C341 C343 1.406 . S
C341 C346 1.261 . S
C342 H309 0.930 . S
C342 N344 1.325 . S
C342 C345 1.357 . S
C343 H311 0.953 . S
C343 C341 1.406 . S
C343 N344 1.261 . S
N344 Co295 2.226 . S
N344 C342 1.325 . S
N344 C343 1.261 . S
C345 H315 0.931 . S
C345 C342 1.357 . S
C345 C346 1.312 . S
C346 H317 0.930 . S
C346 C341 1.261 . S
C346 C345 1.312 . S
C347 O319 1.225 . S
C347 O327 1.228 1_556 S
C348 H320 0.929 . S
C348 C351 1.391 . S
C348 C353 1.391 . S
C349 H321 0.929 . S
C349 C350 1.390 . S
C349 N352 1.391 . S
C350 H322 0.930 . S
C350 C349 1.390 . S
C350 C351 1.392 . S
C351 H323 0.929 . S
C351 C348 1.391 . S
C351 C350 1.392 . S
N352 Co296 2.257 1_556 S
N352 C349 1.391 . S
N352 C353 1.388 . S
C353 H324 0.930 . S
C353 C348 1.391 . S
C353 N352 1.388 . S
Co354 O356 2.143 . S
Co354 O362 2.074 . S
Co354 O365 2.093 . S
Co354 O378 2.097 . S
Co354 N395 2.151 . S
Co354 N403 2.214 . S
Co355 O356 2.160 . S
Co355 O361 2.058 . S
Co355 O371 2.057 . S
Co355 O386 2.037 . S
Co355 N390 2.145 . S
Co355 N411 2.257 . S
O356 Co354 2.143 . S
O356 Co355 2.160 . S
C357 O358 1.278 . S
C357 O365 1.224 . S
O358 C357 1.278 . S
C359 O360 1.245 . S
C359 O371 1.232 . S
O360 C359 1.245 . S
O361 Co355 2.058 . S
O361 C387 1.269 . S
O362 Co354 2.074 . S
O362 C387 1.257 . S
H363 C388 0.930 . S
H364 C394 0.930 . S
O365 Co354 2.093 . S
O365 C357 1.224 . S
H366 C398 0.929 . S
H367 C400 0.930 . S
H368 C401 0.930 . S
H369 C399 0.929 . S
H370 C402 0.928 . S
O371 Co355 2.057 . S
O371 C359 1.232 . S
H372 C391 0.929 . S
H373 C392 0.929 . S
H374 C404 0.931 . S
H375 C396 0.929 . S
H376 C405 0.930 . S
H377 C397 0.931 . S
O378 Co354 2.097 . S
O378 C406 1.214 . S
H379 C407 0.929 . S
H380 C408 0.929 . S
H381 C409 0.930 . S
H382 C410 0.929 . S
H383 C412 0.930 . S
H384 C389 0.930 . S
H385 C393 0.930 . S
O386 Co355 2.037 . S
O386 C406 1.234 . S
C387 O361 1.269 . S
C387 O362 1.257 . S
C388 H363 0.930 . S
C388 C391 1.388 . S
C388 C393 1.418 . S
C389 H384 0.930 . S
C389 C392 1.404 . S
C389 C393 1.353 . S
N390 Co355 2.145 . S
N390 C391 1.397 . S
N390 C392 1.334 . S
C391 H372 0.929 . S
C391 C388 1.388 . S
C391 N390 1.397 . S
C392 H373 0.929 . S
C392 C389 1.404 . S
C392 N390 1.334 . S
C393 H385 0.930 . S
C393 C388 1.418 . S
C393 C389 1.353 . S
C394 H364 0.930 . S
C394 N395 1.330 . S
C394 C396 1.446 . S
N395 Co354 2.151 . S
N395 C394 1.330 . S
N395 C399 1.418 . S
C396 H375 0.929 . S
C396 C394 1.446 . S
C396 C397 1.332 . S
C397 H377 0.931 . S
C397 C396 1.332 . S
C397 C398 1.267 . S
C398 H366 0.929 . S
C398 C397 1.267 . S
C398 C399 1.251 . S
C399 H369 0.929 . S
C399 N395 1.418 . S
C399 C398 1.251 . S
C400 H367 0.930 . S
C400 C402 1.406 . S
C400 C405 1.261 . S
C401 H368 0.930 . S
C401 N403 1.325 . S
C401 C404 1.357 . S
C402 H370 0.928 . S
C402 C400 1.406 . S
C402 N403 1.261 . S
N403 Co354 2.214 . S
N403 C401 1.325 . S
N403 C402 1.261 . S
C404 H374 0.931 . S
C404 C401 1.357 . S
C404 C405 1.312 . S
C405 H376 0.930 . S
C405 C400 1.261 . S
C405 C404 1.312 . S
C406 O378 1.214 . S
C406 O386 1.234 . S
C407 H379 0.929 . S
C407 C410 1.391 . S
C407 C412 1.391 . S
C408 H380 0.929 . S
C408 C409 1.390 . S
C408 N411 1.391 . S
C409 H381 0.930 . S
C409 C408 1.390 . S
C409 C410 1.392 . S
C410 H382 0.929 . S
C410 C407 1.391 . S
C410 C409 1.392 . S
N411 Co355 2.257 . S
N411 C408 1.391 . S
N411 C412 1.388 . S
C412 H383 0.930 . S
C412 C407 1.391 . S
C412 N411 1.388 . S
Co413 O415 2.143 . S
Co413 O421 2.074 . S
Co413 O424 2.093 . S
Co413 O437 2.097 . S
Co413 N454 2.151 . S
Co413 N462 2.214 . S
Co414 O415 2.160 . S
Co414 O420 2.058 . S
Co414 O430 2.057 . S
Co414 O445 2.037 . S
Co414 N449 2.145 . S
Co414 N470 2.257 . S
O415 Co413 2.143 . S
O415 Co414 2.160 . S
C416 O417 1.278 . S
C416 O424 1.224 . S
O417 C416 1.278 . S
C418 O419 1.245 . S
C418 O430 1.232 . S
O419 C418 1.245 . S
O420 Co414 2.058 . S
O420 C446 1.269 . S
O421 Co413 2.074 . S
O421 C446 1.257 . S
H422 C447 0.930 . S
H423 C453 0.930 . S
O424 Co413 2.093 . S
O424 C416 1.224 . S
H425 C457 0.929 . S
H426 C459 0.930 . S
H427 C460 0.930 . S
H428 C458 0.929 . S
H429 C461 0.928 . S
O430 Co414 2.057 . S
O430 C418 1.232 . S
H431 C450 0.929 . S
H432 C451 0.929 . S
H433 C463 0.931 . S
H434 C455 0.929 . S
H435 C464 0.930 . S
H436 C456 0.931 . S
O437 Co413 2.097 . S
O437 C465 1.214 . S
H438 C466 0.929 . S
H439 C467 0.929 . S
H440 C468 0.930 . S
H441 C469 0.929 . S
H442 C471 0.930 . S
H443 C448 0.930 . S
H444 C452 0.930 . S
O445 Co414 2.037 . S
O445 C465 1.234 . S
C446 O420 1.269 . S
C446 O421 1.257 . S
C447 H422 0.930 . S
C447 C450 1.388 . S
C447 C452 1.418 . S
C448 H443 0.930 . S
C448 C451 1.404 . S
C448 C452 1.353 . S
N449 Co414 2.145 . S
N449 C450 1.397 . S
N449 C451 1.334 . S
C450 H431 0.929 . S
C450 C447 1.388 . S
C450 N449 1.397 . S
C451 H432 0.929 . S
C451 C448 1.404 . S
C451 N449 1.334 . S
C452 H444 0.930 . S
C452 C447 1.418 . S
C452 C448 1.353 . S
C453 H423 0.930 . S
C453 N454 1.330 . S
C453 C455 1.446 . S
N454 Co413 2.151 . S
N454 C453 1.330 . S
N454 C458 1.418 . S
C455 H434 0.929 . S
C455 C453 1.446 . S
C455 C456 1.332 . S
C456 H436 0.931 . S
C456 C455 1.332 . S
C456 C457 1.267 . S
C457 H425 0.929 . S
C457 C456 1.267 . S
C457 C458 1.251 . S
C458 H428 0.929 . S
C458 N454 1.418 . S
C458 C457 1.251 . S
C459 H426 0.930 . S
C459 C461 1.406 . S
C459 C464 1.261 . S
C460 H427 0.930 . S
C460 N462 1.325 . S
C460 C463 1.357 . S
C461 H429 0.928 . S
C461 C459 1.406 . S
C461 N462 1.261 . S
N462 Co413 2.214 . S
N462 C460 1.325 . S
N462 C461 1.261 . S
C463 H433 0.931 . S
C463 C460 1.357 . S
C463 C464 1.312 . S
C464 H435 0.930 . S
C464 C459 1.261 . S
C464 C463 1.312 . S
C465 O437 1.214 . S
C465 O445 1.234 . S
C466 H438 0.929 . S
C466 C469 1.391 . S
C466 C471 1.391 . S
C467 H439 0.929 . S
C467 C468 1.390 . S
C467 N470 1.391 . S
C468 H440 0.930 . S
C468 C467 1.390 . S
C468 C469 1.392 . S
C469 H441 0.929 . S
C469 C466 1.391 . S
C469 C468 1.392 . S
N470 Co414 2.257 . S
N470 C467 1.391 . S
N470 C471 1.388 . S
C471 H442 0.930 . S
C471 C466 1.391 . S
C471 N470 1.388 . S
Co472 O474 2.143 . S
Co472 O480 2.074 1_554 S
Co472 O483 2.093 . S
Co472 O496 2.097 . S
Co472 N513 2.151 1_554 S
Co472 N521 2.214 1_554 S
Co473 O474 2.160 . S
Co473 O479 2.058 1_554 S
Co473 O489 2.057 . S
Co473 O504 2.037 . S
Co473 N508 2.145 1_554 S
Co473 N529 2.257 . S
O474 Co472 2.143 . S
O474 Co473 2.160 . S
C475 O476 1.278 . S
C475 O483 1.224 . S
O476 C475 1.278 . S
C477 O478 1.245 . S
C477 O489 1.232 . S
O478 C477 1.245 . S
O479 Co473 2.058 1_556 S
O479 C505 1.269 . S
O480 Co472 2.074 1_556 S
O480 C505 1.257 . S
H481 C506 0.930 . S
H482 C512 0.930 . S
O483 Co472 2.093 . S
O483 C475 1.224 . S
H484 C516 0.929 . S
H485 C518 0.930 . S
H486 C519 0.930 . S
H487 C517 0.929 . S
H488 C520 0.928 1_554 S
O489 Co473 2.057 . S
O489 C477 1.232 . S
H490 C509 0.929 . S
H491 C510 0.929 1_554 S
H492 C522 0.931 . S
H493 C514 0.929 . S
H494 C523 0.930 . S
H495 C515 0.931 . S
O496 Co472 2.097 . S
O496 C524 1.214 . S
H497 C525 0.929 . S
H498 C526 0.929 . S
H499 C527 0.930 . S
H500 C528 0.929 . S
H501 C530 0.930 . S
H502 C507 0.930 . S
H503 C511 0.930 . S
O504 Co473 2.037 . S
O504 C524 1.234 . S
C505 O479 1.269 . S
C505 O480 1.257 . S
C506 H481 0.930 . S
C506 C509 1.388 . S
C506 C511 1.418 . S
C507 H502 0.930 . S
C507 C510 1.404 . S
C507 C511 1.353 . S
N508 Co473 2.145 1_556 S
N508 C509 1.397 . S
N508 C510 1.334 . S
C509 H490 0.929 . S
C509 C506 1.388 . S
C509 N508 1.397 . S
C510 H491 0.929 1_556 S
C510 C507 1.404 . S
C510 N508 1.334 . S
C511 H503 0.930 . S
C511 C506 1.418 . S
C511 C507 1.353 . S
C512 H482 0.930 . S
C512 N513 1.330 1_554 S
C512 C514 1.446 . S
N513 Co472 2.151 1_556 S
N513 C512 1.330 1_556 S
N513 C517 1.418 . S
C514 H493 0.929 . S
C514 C512 1.446 . S
C514 C515 1.332 1_554 S
C515 H495 0.931 . S
C515 C514 1.332 1_556 S
C515 C516 1.267 . S
C516 H484 0.929 . S
C516 C515 1.267 . S
C516 C517 1.251 . S
C517 H487 0.929 . S
C517 N513 1.418 . S
C517 C516 1.251 . S
C518 H485 0.930 . S
C518 C520 1.406 . S
C518 C523 1.261 . S
C519 H486 0.930 . S
C519 N521 1.325 . S
C519 C522 1.357 . S
C520 H488 0.928 1_556 S
C520 C518 1.406 . S
C520 N521 1.261 . S
N521 Co472 2.214 1_556 S
N521 C519 1.325 . S
N521 C520 1.261 . S
C522 H492 0.931 . S
C522 C519 1.357 . S
C522 C523 1.312 . S
C523 H494 0.930 . S
C523 C518 1.261 . S
C523 C522 1.312 . S
C524 O496 1.214 . S
C524 O504 1.234 . S
C525 H497 0.929 . S
C525 C528 1.391 . S
C525 C530 1.391 . S
C526 H498 0.929 . S
C526 C527 1.390 . S
C526 N529 1.391 . S
C527 H499 0.930 . S
C527 C526 1.390 . S
C527 C528 1.392 . S
C528 H500 0.929 . S
C528 C525 1.391 . S
C528 C527 1.392 . S
N529 Co473 2.257 . S
N529 C526 1.391 . S
N529 C530 1.388 . S
C530 H501 0.930 . S
C530 C525 1.391 . S
C530 N529 1.388 . S
Co531 O533 2.143 . S
Co531 O539 2.074 . S
Co531 O542 2.093 . S
Co531 O555 2.097 . S
Co531 N572 2.151 . S
Co531 N580 2.214 . S
Co532 O533 2.160 . S
Co532 O538 2.058 . S
Co532 O548 2.057 . S
Co532 O563 2.037 . S
Co532 N567 2.145 . S
Co532 N588 2.257 . S
O533 Co531 2.143 . S
O533 Co532 2.160 . S
C534 O535 1.278 . S
C534 O542 1.224 . S
O535 C534 1.278 . S
C536 O537 1.245 . S
C536 O548 1.232 . S
O537 C536 1.245 . S
O538 Co532 2.058 . S
O538 C564 1.269 . S
O539 Co531 2.074 . S
O539 C564 1.257 . S
H540 C565 0.930 . S
H541 C571 0.930 . S
O542 Co531 2.093 . S
O542 C534 1.224 . S
H543 C575 0.929 . S
H544 C577 0.930 . S
H545 C578 0.930 . S
H546 C576 0.929 . S
H547 C579 0.928 . S
O548 Co532 2.057 . S
O548 C536 1.232 . S
H549 C568 0.929 . S
H550 C569 0.929 . S
H551 C581 0.931 . S
H552 C573 0.929 . S
H553 C582 0.930 . S
H554 C574 0.931 . S
O555 Co531 2.097 . S
O555 C583 1.214 . S
H556 C584 0.929 . S
H557 C585 0.929 . S
H558 C586 0.930 . S
H559 C587 0.929 . S
H560 C589 0.930 . S
H561 C566 0.930 . S
H562 C570 0.930 . S
O563 Co532 2.037 . S
O563 C583 1.234 . S
C564 O538 1.269 . S
C564 O539 1.257 . S
C565 H540 0.930 . S
C565 C568 1.388 . S
C565 C570 1.418 . S
C566 H561 0.930 . S
C566 C569 1.404 . S
C566 C570 1.353 . S
N567 Co532 2.145 . S
N567 C568 1.397 . S
N567 C569 1.334 . S
C568 H549 0.929 . S
C568 C565 1.388 . S
C568 N567 1.397 . S
C569 H550 0.929 . S
C569 C566 1.404 . S
C569 N567 1.334 . S
C570 H562 0.930 . S
C570 C565 1.418 . S
C570 C566 1.353 . S
C571 H541 0.930 . S
C571 N572 1.330 . S
C571 C573 1.446 . S
N572 Co531 2.151 . S
N572 C571 1.330 . S
N572 C576 1.418 . S
C573 H552 0.929 . S
C573 C571 1.446 . S
C573 C574 1.332 . S
C574 H554 0.931 . S
C574 C573 1.332 . S
C574 C575 1.267 . S
C575 H543 0.929 . S
C575 C574 1.267 . S
C575 C576 1.251 . S
C576 H546 0.929 . S
C576 N572 1.418 . S
C576 C575 1.251 . S
C577 H544 0.930 . S
C577 C579 1.406 . S
C577 C582 1.261 . S
C578 H545 0.930 . S
C578 N580 1.325 . S
C578 C581 1.357 . S
C579 H547 0.928 . S
C579 C577 1.406 . S
C579 N580 1.261 . S
N580 Co531 2.214 . S
N580 C578 1.325 . S
N580 C579 1.261 . S
C581 H551 0.931 . S
C581 C578 1.357 . S
C581 C582 1.312 . S
C582 H553 0.930 . S
C582 C577 1.261 . S
C582 C581 1.312 . S
C583 O555 1.214 . S
C583 O563 1.234 . S
C584 H556 0.929 . S
C584 C587 1.391 . S
C584 C589 1.391 . S
C585 H557 0.929 . S
C585 C586 1.390 . S
C585 N588 1.391 . S
C586 H558 0.930 . S
C586 C585 1.390 . S
C586 C587 1.392 . S
C587 H559 0.929 . S
C587 C584 1.391 . S
C587 C586 1.392 . S
N588 Co532 2.257 . S
N588 C585 1.391 . S
N588 C589 1.388 . S
C589 H560 0.930 . S
C589 C584 1.391 . S
C589 N588 1.388 . S
Co590 O592 2.143 . S
Co590 O598 2.074 . S
Co590 O601 2.093 . S
Co590 O614 2.097 . S
Co590 N631 2.151 . S
Co590 N639 2.214 . S
Co591 O592 2.160 . S
Co591 O597 2.058 . S
Co591 O607 2.057 . S
Co591 O622 2.037 . S
Co591 N626 2.145 . S
Co591 N647 2.257 . S
O592 Co590 2.143 . S
O592 Co591 2.160 . S
C593 O594 1.278 . S
C593 O601 1.224 . S
O594 C593 1.278 . S
C595 O596 1.245 . S
C595 O607 1.232 . S
O596 C595 1.245 . S
O597 Co591 2.058 . S
O597 C623 1.269 . S
O598 Co590 2.074 . S
O598 C623 1.257 . S
H599 C624 0.930 . S
H600 C630 0.930 . S
O601 Co590 2.093 . S
O601 C593 1.224 . S
H602 C634 0.929 . S
H603 C636 0.930 . S
H604 C637 0.930 . S
H605 C635 0.929 . S
H606 C638 0.928 . S
O607 Co591 2.057 . S
O607 C595 1.232 . S
H608 C627 0.929 . S
H609 C628 0.929 . S
H610 C640 0.931 . S
H611 C632 0.929 . S
H612 C641 0.930 . S
H613 C633 0.931 . S
O614 Co590 2.097 . S
O614 C642 1.214 . S
H615 C643 0.929 . S
H616 C644 0.929 . S
H617 C645 0.930 . S
H618 C646 0.929 . S
H619 C648 0.930 . S
H620 C625 0.930 . S
H621 C629 0.930 . S
O622 Co591 2.037 . S
O622 C642 1.234 . S
C623 O597 1.269 . S
C623 O598 1.257 . S
C624 H599 0.930 . S
C624 C627 1.388 . S
C624 C629 1.418 . S
C625 H620 0.930 . S
C625 C628 1.404 . S
C625 C629 1.353 . S
N626 Co591 2.145 . S
N626 C627 1.397 . S
N626 C628 1.334 . S
C627 H608 0.929 . S
C627 C624 1.388 . S
C627 N626 1.397 . S
C628 H609 0.929 . S
C628 C625 1.404 . S
C628 N626 1.334 . S
C629 H621 0.930 . S
C629 C624 1.418 . S
C629 C625 1.353 . S
C630 H600 0.930 . S
C630 N631 1.330 . S
C630 C632 1.446 . S
N631 Co590 2.151 . S
N631 C630 1.330 . S
N631 C635 1.418 . S
C632 H611 0.929 . S
C632 C630 1.446 . S
C632 C633 1.332 . S
C633 H613 0.931 . S
C633 C632 1.332 . S
C633 C634 1.267 . S
C634 H602 0.929 . S
C634 C633 1.267 . S
C634 C635 1.251 . S
C635 H605 0.929 . S
C635 N631 1.418 . S
C635 C634 1.251 . S
C636 H603 0.930 . S
C636 C638 1.406 . S
C636 C641 1.261 . S
C637 H604 0.930 . S
C637 N639 1.325 . S
C637 C640 1.357 . S
C638 H606 0.928 . S
C638 C636 1.406 . S
C638 N639 1.261 . S
N639 Co590 2.214 . S
N639 C637 1.325 . S
N639 C638 1.261 . S
C640 H610 0.931 . S
C640 C637 1.357 . S
C640 C641 1.312 . S
C641 H612 0.930 . S
C641 C636 1.261 . S
C641 C640 1.312 . S
C642 O614 1.214 . S
C642 O622 1.234 . S
C643 H615 0.929 . S
C643 C646 1.391 . S
C643 C648 1.391 . S
C644 H616 0.929 . S
C644 C645 1.390 . S
C644 N647 1.391 . S
C645 H617 0.930 . S
C645 C644 1.390 . S
C645 C646 1.392 . S
C646 H618 0.929 . S
C646 C643 1.391 . S
C646 C645 1.392 . S
N647 Co591 2.257 . S
N647 C644 1.391 . S
N647 C648 1.388 . S
C648 H619 0.930 . S
C648 C643 1.391 . S
C648 N647 1.388 . S
Co649 O651 2.143 . S
Co649 O657 2.074 1_554 S
Co649 O660 2.093 . S
Co649 O673 2.097 . S
Co649 N690 2.151 1_554 S
Co649 N698 2.214 1_554 S
Co650 O651 2.160 . S
Co650 O656 2.058 1_554 S
Co650 O666 2.057 . S
Co650 O681 2.037 . S
Co650 N685 2.145 1_554 S
Co650 N706 2.257 . S
O651 Co649 2.143 . S
O651 Co650 2.160 . S
C652 O653 1.278 . S
C652 O660 1.224 . S
O653 C652 1.278 . S
C654 O655 1.245 . S
C654 O666 1.232 . S
O655 C654 1.245 . S
O656 Co650 2.058 1_556 S
O656 C682 1.269 . S
O657 Co649 2.074 1_556 S
O657 C682 1.257 . S
H658 C683 0.930 . S
H659 C689 0.930 . S
O660 Co649 2.093 . S
O660 C652 1.224 . S
H661 C693 0.929 . S
H662 C695 0.930 . S
H663 C696 0.930 . S
H664 C694 0.929 . S
H665 C697 0.928 1_554 S
O666 Co650 2.057 . S
O666 C654 1.232 . S
H667 C686 0.929 . S
H668 C687 0.929 1_554 S
H669 C699 0.931 . S
H670 C691 0.929 . S
H671 C700 0.930 . S
H672 C692 0.931 . S
O673 Co649 2.097 . S
O673 C701 1.214 . S
H674 C702 0.929 . S
H675 C703 0.929 . S
H676 C704 0.930 . S
H677 C705 0.929 . S
H678 C707 0.930 . S
H679 C684 0.930 . S
H680 C688 0.930 . S
O681 Co650 2.037 . S
O681 C701 1.234 . S
C682 O656 1.269 . S
C682 O657 1.257 . S
C683 H658 0.930 . S
C683 C686 1.388 . S
C683 C688 1.418 . S
C684 H679 0.930 . S
C684 C687 1.404 . S
C684 C688 1.353 . S
N685 Co650 2.145 1_556 S
N685 C686 1.397 . S
N685 C687 1.334 . S
C686 H667 0.929 . S
C686 C683 1.388 . S
C686 N685 1.397 . S
C687 H668 0.929 1_556 S
C687 C684 1.404 . S
C687 N685 1.334 . S
C688 H680 0.930 . S
C688 C683 1.418 . S
C688 C684 1.353 . S
C689 H659 0.930 . S
C689 N690 1.330 1_554 S
C689 C691 1.446 . S
N690 Co649 2.151 1_556 S
N690 C689 1.330 1_556 S
N690 C694 1.418 . S
C691 H670 0.929 . S
C691 C689 1.446 . S
C691 C692 1.332 1_554 S
C692 H672 0.931 . S
C692 C691 1.332 1_556 S
C692 C693 1.267 . S
C693 H661 0.929 . S
C693 C692 1.267 . S
C693 C694 1.251 . S
C694 H664 0.929 . S
C694 N690 1.418 . S
C694 C693 1.251 . S
C695 H662 0.930 . S
C695 C697 1.406 . S
C695 C700 1.261 . S
C696 H663 0.930 . S
C696 N698 1.325 . S
C696 C699 1.357 . S
C697 H665 0.928 1_556 S
C697 C695 1.406 . S
C697 N698 1.261 . S
N698 Co649 2.214 1_556 S
N698 C696 1.325 . S
N698 C697 1.261 . S
C699 H669 0.931 . S
C699 C696 1.357 . S
C699 C700 1.312 . S
C700 H671 0.930 . S
C700 C695 1.261 . S
C700 C699 1.312 . S
C701 O673 1.214 . S
C701 O681 1.234 . S
C702 H674 0.929 . S
C702 C705 1.391 . S
C702 C707 1.391 . S
C703 H675 0.929 . S
C703 C704 1.390 . S
C703 N706 1.391 . S
C704 H676 0.930 . S
C704 C703 1.390 . S
C704 C705 1.392 . S
C705 H677 0.929 . S
C705 C702 1.391 . S
C705 C704 1.392 . S
N706 Co650 2.257 . S
N706 C703 1.391 . S
N706 C707 1.388 . S
C707 H678 0.930 . S
C707 C702 1.391 . S
C707 N706 1.388 . S
H708 C714 0.930 . S
H709 C718 0.930 . S
H710 C723 0.929 . S
H711 C721 0.929 . S
H712 C716 0.929 . S
H713 C722 0.929 . S
C714 H708 0.930 . S
C714 C715 1.367 . S
C714 C722 1.378 . S
C715 C714 1.367 . S
C715 C723 1.433 . S
C716 H712 0.929 . S
C716 C718 1.378 . S
C716 C720 1.350 . S
C717 C720 1.463 . S
C717 C722 1.350 . S
C717 N725 1.427 . S
C718 H709 0.930 . S
C718 C716 1.378 . S
C718 C719 1.367 . S
C719 C718 1.367 . S
C719 C721 1.433 . S
C720 C716 1.350 . S
C720 C717 1.463 . S
C720 N724 1.427 . S
C721 H711 0.929 . S
C721 C719 1.433 . S
C721 N724 1.384 . S
C722 H713 0.929 . S
C722 C714 1.378 . S
C722 C717 1.350 . S
C723 H710 0.929 . S
C723 C715 1.433 . S
C723 N725 1.384 . S
N724 C720 1.427 . S
N724 C721 1.384 . S
N725 C717 1.427 . S
N725 C723 1.384 . S
H726 C732 0.930 . S
H727 C736 0.930 . S
H728 C741 0.929 . S
H729 C739 0.929 . S
H730 C734 0.929 . S
H731 C740 0.929 . S
C732 H726 0.930 . S
C732 C733 1.367 . S
C732 C740 1.378 . S
C733 C732 1.367 . S
C733 C741 1.433 . S
C734 H730 0.929 . S
C734 C736 1.378 . S
C734 C738 1.350 . S
C735 C738 1.463 . S
C735 C740 1.350 . S
C735 N743 1.427 . S
C736 H727 0.930 . S
C736 C734 1.378 . S
C736 C737 1.367 . S
C737 C736 1.367 . S
C737 C739 1.433 . S
C738 C734 1.350 . S
C738 C735 1.463 . S
C738 N742 1.427 . S
C739 H729 0.929 . S
C739 C737 1.433 . S
C739 N742 1.384 . S
C740 H731 0.929 . S
C740 C732 1.378 . S
C740 C735 1.350 . S
C741 H728 0.929 . S
C741 C733 1.433 . S
C741 N743 1.384 . S
N742 C738 1.427 . S
N742 C739 1.384 . S
N743 C735 1.427 . S
N743 C741 1.384 . S
H744 C750 0.930 . S
H745 C754 0.930 . S
H746 C759 0.929 . S
H747 C757 0.929 . S
H748 C752 0.929 . S
H749 C758 0.929 . S
C750 H744 0.930 . S
C750 C751 1.367 . S
C750 C758 1.378 . S
C751 C750 1.367 . S
C751 C759 1.433 . S
C752 H748 0.929 . S
C752 C754 1.378 . S
C752 C756 1.350 . S
C753 C756 1.463 . S
C753 C758 1.350 . S
C753 N761 1.427 . S
C754 H745 0.930 . S
C754 C752 1.378 . S
C754 C755 1.367 . S
C755 C754 1.367 . S
C755 C757 1.433 . S
C756 C752 1.350 . S
C756 C753 1.463 . S
C756 N760 1.427 . S
C757 H747 0.929 . S
C757 C755 1.433 . S
C757 N760 1.384 . S
C758 H749 0.929 . S
C758 C750 1.378 . S
C758 C753 1.350 . S
C759 H746 0.929 . S
C759 C751 1.433 . S
C759 N761 1.384 . S
N760 C756 1.427 . S
N760 C757 1.384 . S
N761 C753 1.427 . S
N761 C759 1.384 . S
H762 C768 0.930 . S
H763 C772 0.930 . S
H764 C777 0.929 . S
H765 C775 0.929 . S
H766 C770 0.929 . S
H767 C776 0.929 . S
C768 H762 0.930 . S
C768 C769 1.367 . S
C768 C776 1.378 . S
C769 C768 1.367 . S
C769 C777 1.433 . S
C770 H766 0.929 . S
C770 C772 1.378 . S
C770 C774 1.350 . S
C771 C774 1.463 . S
C771 C776 1.350 . S
C771 N779 1.427 . S
C772 H763 0.930 . S
C772 C770 1.378 . S
C772 C773 1.367 . S
C773 C772 1.367 . S
C773 C775 1.433 . S
C774 C770 1.350 . S
C774 C771 1.463 . S
C774 N778 1.427 . S
C775 H765 0.929 . S
C775 C773 1.433 . S
C775 N778 1.384 . S
C776 H767 0.929 . S
C776 C768 1.378 . S
C776 C771 1.350 . S
C777 H764 0.929 . S
C777 C769 1.433 . S
C777 N779 1.384 . S
N778 C774 1.427 . S
N778 C775 1.384 . S
N779 C771 1.427 . S
N779 C777 1.384 . S
H780 C786 0.930 . S
H781 C790 0.930 . S
H782 C795 0.929 . S
H783 C793 0.929 . S
H784 C788 0.929 . S
H785 C794 0.929 . S
C786 H780 0.930 . S
C786 C787 1.367 . S
C786 C794 1.378 . S
C787 C786 1.367 . S
C787 C795 1.433 . S
C788 H784 0.929 . S
C788 C790 1.378 . S
C788 C792 1.350 . S
C789 C792 1.463 . S
C789 C794 1.350 . S
C789 N797 1.427 . S
C790 H781 0.930 . S
C790 C788 1.378 . S
C790 C791 1.367 . S
C791 C790 1.367 . S
C791 C793 1.433 . S
C792 C788 1.350 . S
C792 C789 1.463 . S
C792 N796 1.427 . S
C793 H783 0.929 . S
C793 C791 1.433 . S
C793 N796 1.384 . S
C794 H785 0.929 . S
C794 C786 1.378 . S
C794 C789 1.350 . S
C795 H782 0.929 . S
C795 C787 1.433 . S
C795 N797 1.384 . S
N796 C792 1.427 . S
N796 C793 1.384 . S
N797 C789 1.427 . S
N797 C795 1.384 . S
H798 C804 0.930 . S
H799 C808 0.930 . S
H800 C813 0.929 . S
H801 C811 0.929 . S
H802 C806 0.929 . S
H803 C812 0.929 . S
C804 H798 0.930 . S
C804 C805 1.367 . S
C804 C812 1.378 . S
C805 C804 1.367 . S
C805 C813 1.433 . S
C806 H802 0.929 . S
C806 C808 1.378 . S
C806 C810 1.350 . S
C807 C810 1.463 . S
C807 C812 1.350 . S
C807 N815 1.427 . S
C808 H799 0.930 . S
C808 C806 1.378 . S
C808 C809 1.367 . S
C809 C808 1.367 . S
C809 C811 1.433 . S
C810 C806 1.350 . S
C810 C807 1.463 . S
C810 N814 1.427 . S
C811 H801 0.929 . S
C811 C809 1.433 . S
C811 N814 1.384 . S
C812 H803 0.929 . S
C812 C804 1.378 . S
C812 C807 1.350 . S
C813 H800 0.929 . S
C813 C805 1.433 . S
C813 N815 1.384 . S
N814 C810 1.427 . S
N814 C811 1.384 . S
N815 C807 1.427 . S
N815 C813 1.384 . S
H816 C822 0.930 . S
H817 C826 0.930 . S
H818 C831 0.929 . S
H819 C829 0.929 . S
H820 C824 0.929 . S
H821 C830 0.929 . S
C822 H816 0.930 . S
C822 C823 1.367 . S
C822 C830 1.378 . S
C823 C822 1.367 . S
C823 C831 1.433 . S
C824 H820 0.929 . S
C824 C826 1.378 . S
C824 C828 1.350 . S
C825 C828 1.463 . S
C825 C830 1.350 . S
C825 N833 1.427 . S
C826 H817 0.930 . S
C826 C824 1.378 . S
C826 C827 1.367 . S
C827 C826 1.367 . S
C827 C829 1.433 . S
C828 C824 1.350 . S
C828 C825 1.463 . S
C828 N832 1.427 . S
C829 H819 0.929 . S
C829 C827 1.433 . S
C829 N832 1.384 . S
C830 H821 0.929 . S
C830 C822 1.378 . S
C830 C825 1.350 . S
C831 H818 0.929 . S
C831 C823 1.433 . S
C831 N833 1.384 . S
N832 C828 1.427 . S
N832 C829 1.384 . S
N833 C825 1.427 . S
N833 C831 1.384 . S
H834 C840 0.930 . S
H835 C844 0.930 . S
H836 C849 0.929 . S
H837 C847 0.929 . S
H838 C842 0.929 . S
H839 C848 0.929 . S
C840 H834 0.930 . S
C840 C841 1.367 . S
C840 C848 1.378 . S
C841 C840 1.367 . S
C841 C849 1.433 . S
C842 H838 0.929 . S
C842 C844 1.378 . S
C842 C846 1.350 . S
C843 C846 1.463 . S
C843 C848 1.350 . S
C843 N851 1.427 . S
C844 H835 0.930 . S
C844 C842 1.378 . S
C844 C845 1.367 . S
C845 C844 1.367 . S
C845 C847 1.433 . S
C846 C842 1.350 . S
C846 C843 1.463 . S
C846 N850 1.427 . S
C847 H837 0.929 . S
C847 C845 1.433 . S
C847 N850 1.384 . S
C848 H839 0.929 . S
C848 C840 1.378 . S
C848 C843 1.350 . S
C849 H836 0.929 . S
C849 C841 1.433 . S
C849 N851 1.384 . S
N850 C846 1.427 . S
N850 C847 1.384 . S
N851 C843 1.427 . S
N851 C849 1.384 . S
H852 C858 0.930 . S
H853 C862 0.930 . S
H854 C867 0.929 . S
H855 C865 0.929 . S
H856 C860 0.929 . S
H857 C866 0.929 . S
C858 H852 0.930 . S
C858 C859 1.367 . S
C858 C866 1.378 . S
C859 C858 1.367 . S
C859 C867 1.433 1_554 S
C860 H856 0.929 . S
C860 C862 1.378 . S
C860 C864 1.350 1_556 S
C861 C864 1.463 . S
C861 C866 1.350 . S
C861 N869 1.427 1_554 S
C862 H853 0.930 . S
C862 C860 1.378 . S
C862 C863 1.350 1_556 S
C863 C862 1.350 1_554 S
C863 C865 1.452 . S
C864 C860 1.350 1_554 S
C864 C861 1.463 . S
C864 N868 1.427 . S
C865 H855 0.929 . S
C865 C863 1.452 . S
C865 N868 1.384 . S
C866 H857 0.929 . S
C866 C858 1.378 . S
C866 C861 1.350 . S
C867 H854 0.929 . S
C867 C859 1.433 1_556 S
C867 N869 1.384 . S
N868 C864 1.427 . S
N868 C865 1.384 . S
N869 C861 1.427 1_556 S
N869 C867 1.384 . S
H870 C876 0.930 . S
H871 C880 0.930 . S
H872 C885 0.929 . S
H873 C883 0.929 . S
H874 C878 0.929 . S
H875 C884 0.929 . S
C876 H870 0.930 . S
C876 C877 1.367 . S
C876 C884 1.378 . S
C877 C876 1.367 . S
C877 C885 1.433 . S
C878 H874 0.929 . S
C878 C880 1.378 . S
C878 C882 1.350 . S
C879 C882 1.463 . S
C879 C884 1.350 . S
C879 N887 1.427 . S
C880 H871 0.930 . S
C880 C878 1.378 . S
C880 C881 1.367 . S
C881 C880 1.367 . S
C881 C883 1.433 . S
C882 C878 1.350 . S
C882 C879 1.463 . S
C882 N886 1.427 . S
C883 H873 0.929 . S
C883 C881 1.433 . S
C883 N886 1.384 . S
C884 H875 0.929 . S
C884 C876 1.378 . S
C884 C879 1.350 . S
C885 H872 0.929 . S
C885 C877 1.433 . S
C885 N887 1.384 . S
N886 C882 1.427 . S
N886 C883 1.384 . S
N887 C879 1.427 . S
N887 C885 1.384 . S
H888 C894 0.930 . S
H889 C898 0.930 . S
H890 C903 0.929 . S
H891 C901 0.929 . S
H892 C896 0.929 . S
H893 C902 0.929 . S
C894 H888 0.930 . S
C894 C895 1.367 . S
C894 C902 1.378 . S
C895 C894 1.367 . S
C895 C903 1.433 . S
C896 H892 0.929 . S
C896 C898 1.378 . S
C896 C900 1.350 . S
C897 C900 1.463 . S
C897 C902 1.350 . S
C897 N905 1.427 . S
C898 H889 0.930 . S
C898 C896 1.378 . S
C898 C899 1.367 . S
C899 C898 1.367 . S
C899 C901 1.433 . S
C900 C896 1.350 . S
C900 C897 1.463 . S
C900 N904 1.427 . S
C901 H891 0.929 . S
C901 C899 1.433 . S
C901 N904 1.384 . S
C902 H893 0.929 . S
C902 C894 1.378 . S
C902 C897 1.350 . S
C903 H890 0.929 . S
C903 C895 1.433 . S
C903 N905 1.384 . S
N904 C900 1.427 . S
N904 C901 1.384 . S
N905 C897 1.427 . S
N905 C903 1.384 . S
H906 C912 0.930 . S
H907 C916 0.930 . S
H908 C921 0.929 . S
H909 C919 0.929 . S
H910 C914 0.929 . S
H911 C920 0.929 . S
C912 H906 0.930 . S
C912 C913 1.350 1_556 S
C912 C920 1.378 . S
C913 C912 1.350 1_554 S
C913 C921 1.451 . S
C914 H910 0.929 . S
C914 C916 1.378 . S
C914 C918 1.350 . S
C915 C918 1.463 . S
C915 C920 1.350 1_554 S
C915 N923 1.427 . S
C916 H907 0.930 . S
C916 C914 1.378 . S
C916 C917 1.367 . S
C917 C916 1.367 . S
C917 C919 1.433 1_554 S
C918 C914 1.350 . S
C918 C915 1.463 . S
C918 N922 1.427 1_554 S
C919 H909 0.929 . S
C919 C917 1.433 1_556 S
C919 N922 1.384 . S
C920 H911 0.929 . S
C920 C912 1.378 . S
C920 C915 1.350 1_556 S
C921 H908 0.929 . S
C921 C913 1.451 . S
C921 N923 1.384 . S
N922 C918 1.427 1_556 S
N922 C919 1.384 . S
N923 C915 1.427 . S
N923 C921 1.384 . S
H924 C930 0.930 . S
H925 C934 0.930 . S
H926 C939 0.929 . S
H927 C937 0.929 . S
H928 C932 0.929 . S
H929 C938 0.929 . S
C930 H924 0.930 . S
C930 C931 1.367 . S
C930 C938 1.378 . S
C931 C930 1.367 . S
C931 C939 1.433 . S
C932 H928 0.929 . S
C932 C934 1.378 . S
C932 C936 1.350 . S
C933 C936 1.463 1_545 S
C933 C938 1.350 . S
C933 N941 1.427 . S
C934 H925 0.930 . S
C934 C932 1.378 . S
C934 C935 1.367 . S
C935 C934 1.367 . S
C935 C937 1.433 . S
C936 C932 1.350 . S
C936 C933 1.463 1_565 S
C936 N940 1.427 . S
C937 H927 0.929 . S
C937 C935 1.433 . S
C937 N940 1.384 . S
C938 H929 0.929 . S
C938 C930 1.378 . S
C938 C933 1.350 . S
C939 H926 0.929 . S
C939 C931 1.433 . S
C939 N941 1.384 . S
N940 C936 1.427 . S
N940 C937 1.384 . S
N941 C933 1.427 . S
N941 C939 1.384 . S
H942 C948 0.930 . S
H943 C952 0.930 . S
H944 C957 0.929 . S
H945 C955 0.929 . S
H946 C950 0.929 . S
H947 C956 0.929 . S
C948 H942 0.930 . S
C948 C949 1.367 . S
C948 C956 1.378 . S
C949 C948 1.367 . S
C949 C957 1.433 . S
C950 H946 0.929 . S
C950 C952 1.378 . S
C950 C954 1.350 . S
C951 C954 1.463 . S
C951 C956 1.350 . S
C951 N959 1.427 . S
C952 H943 0.930 . S
C952 C950 1.378 . S
C952 C953 1.367 . S
C953 C952 1.367 . S
C953 C955 1.433 . S
C954 C950 1.350 . S
C954 C951 1.463 . S
C954 N958 1.427 . S
C955 H945 0.929 . S
C955 C953 1.433 . S
C955 N958 1.384 . S
C956 H947 0.929 . S
C956 C948 1.378 . S
C956 C951 1.350 . S
C957 H944 0.929 . S
C957 C949 1.433 . S
C957 N959 1.384 . S
N958 C954 1.427 . S
N958 C955 1.384 . S
N959 C951 1.427 . S
N959 C957 1.384 . S
H960 C966 0.930 . S
H961 C970 0.930 . S
H962 C975 0.929 . S
H963 C973 0.929 . S
H964 C968 0.929 . S
H965 C974 0.929 . S
C966 H960 0.930 . S
C966 C967 1.367 . S
C966 C974 1.378 . S
C967 C966 1.367 . S
C967 C975 1.433 1_556 S
C968 H964 0.929 . S
C968 C970 1.378 . S
C968 C972 1.350 1_554 S
C969 C972 1.463 1_655 S
C969 C974 1.350 . S
C969 N977 1.427 1_556 S
C970 H961 0.930 . S
C970 C968 1.378 . S
C970 C971 1.367 1_554 S
C971 C970 1.367 1_556 S
C971 C973 1.433 . S
C972 C968 1.350 1_556 S
C972 C969 1.463 1_455 S
C972 N976 1.427 . S
C973 H963 0.929 . S
C973 C971 1.433 . S
C973 N976 1.384 . S
C974 H965 0.929 . S
C974 C966 1.378 . S
C974 C969 1.350 . S
C975 H962 0.929 . S
C975 C967 1.433 1_554 S
C975 N977 1.384 . S
N976 C972 1.427 . S
N976 C973 1.384 . S
N977 C969 1.427 1_554 S
N977 C975 1.384 . S
H978 C984 0.930 . S
H979 C988 0.930 . S
H980 C993 0.929 . S
H981 C991 0.929 . S
H982 C986 0.929 . S
H983 C992 0.929 . S
C984 H978 0.930 . S
C984 C985 1.367 . S
C984 C992 1.378 . S
C985 C984 1.367 . S
C985 C993 1.433 . S
C986 H982 0.929 . S
C986 C988 1.378 . S
C986 C990 1.350 . S
C987 C990 1.463 1_455 S
C987 C992 1.350 . S
C987 N995 1.427 . S
C988 H979 0.930 . S
C988 C986 1.378 . S
C988 C989 1.367 . S
C989 C988 1.367 . S
C989 C991 1.433 . S
C990 C986 1.350 . S
C990 C987 1.463 1_655 S
C990 N994 1.427 . S
C991 H981 0.929 . S
C991 C989 1.433 . S
C991 N994 1.384 . S
C992 H983 0.929 . S
C992 C984 1.378 . S
C992 C987 1.350 . S
C993 H980 0.929 . S
C993 C985 1.433 . S
C993 N995 1.384 . S
N994 C990 1.427 . S
N994 C991 1.384 . S
N995 C987 1.427 . S
N995 C993 1.384 . S
H996 C1002 0.930 . S
H997 C1006 0.930 . S
H998 C1011 0.929 . S
H999 C1009 0.929 . S
H1000 C1004 0.929 . S
H1001 C1010 0.929 . S
C1002 H996 0.930 . S
C1002 C1003 1.367 . S
C1002 C1010 1.378 . S
C1003 C1002 1.367 . S
C1003 C1011 1.433 . S
C1004 H1000 0.929 . S
C1004 C1006 1.378 . S
C1004 C1008 1.350 . S
C1005 C1008 1.463 1_545 S
C1005 C1010 1.350 . S
C1005 N1013 1.427 . S
C1006 H997 0.930 . S
C1006 C1004 1.378 . S
C1006 C1007 1.367 . S
C1007 C1006 1.367 . S
C1007 C1009 1.433 . S
C1008 C1004 1.350 . S
C1008 C1005 1.463 1_565 S
C1008 N1012 1.427 . S
C1009 H999 0.929 . S
C1009 C1007 1.433 . S
C1009 N1012 1.384 . S
C1010 H1001 0.929 . S
C1010 C1002 1.378 . S
C1010 C1005 1.350 . S
C1011 H998 0.929 . S
C1011 C1003 1.433 . S
C1011 N1013 1.384 . S
N1012 C1008 1.427 . S
N1012 C1009 1.384 . S
N1013 C1005 1.427 . S
N1013 C1011 1.384 . S
H1014 C1020 0.960 . S
H1015 C1024 0.930 . S
H1016 C1029 0.929 . S
H1017 C1027 0.929 . S
H1018 C1022 0.929 . S
H1019 C1028 0.959 . S
C1020 H1014 0.960 . S
C1020 C1021 1.337 1_556 S
C1020 C1028 1.378 . S
C1021 C1020 1.337 1_554 S
C1021 C1029 1.433 . S
C1022 H1018 0.929 . S
C1022 C1024 1.378 . S
C1022 C1026 1.350 . S
C1023 C1026 1.463 . S
C1023 C1028 1.320 1_554 S
C1023 N1031 1.427 . S
C1024 H1015 0.930 . S
C1024 C1022 1.378 . S
C1024 C1025 1.367 . S
C1025 C1024 1.367 . S
C1025 C1027 1.433 1_554 S
C1026 C1022 1.350 . S
C1026 C1023 1.463 . S
C1026 N1030 1.427 1_554 S
C1027 H1017 0.929 . S
C1027 C1025 1.433 1_556 S
C1027 N1030 1.384 . S
C1028 H1019 0.959 . S
C1028 C1020 1.378 . S
C1028 C1023 1.320 1_556 S
C1029 H1016 0.929 . S
C1029 C1021 1.433 . S
C1029 N1031 1.384 . S
N1030 C1026 1.427 1_556 S
N1030 C1027 1.384 . S
N1031 C1023 1.427 . S
N1031 C1029 1.384 . S
H1032 C1038 0.930 . S
H1033 C1042 0.930 . S
H1034 C1047 0.929 . S
H1035 C1045 0.929 . S
H1036 C1040 0.929 . S
H1037 C1046 0.929 . S
C1038 H1032 0.930 . S
C1038 C1039 1.367 . S
C1038 C1046 1.378 . S
C1039 C1038 1.367 . S
C1039 C1047 1.433 . S
C1040 H1036 0.929 . S
C1040 C1042 1.378 . S
C1040 C1044 1.350 . S
C1041 C1044 1.463 . S
C1041 C1046 1.350 . S
C1041 N1049 1.427 . S
C1042 H1033 0.930 . S
C1042 C1040 1.378 . S
C1042 C1043 1.367 . S
C1043 C1042 1.367 . S
C1043 C1045 1.433 . S
C1044 C1040 1.350 . S
C1044 C1041 1.463 . S
C1044 N1048 1.427 . S
C1045 H1035 0.929 . S
C1045 C1043 1.433 . S
C1045 N1048 1.384 . S
C1046 H1037 0.929 . S
C1046 C1038 1.378 . S
C1046 C1041 1.350 . S
C1047 H1034 0.929 . S
C1047 C1039 1.433 . S
C1047 N1049 1.384 . S
N1048 C1044 1.427 . S
N1048 C1045 1.384 . S
N1049 C1041 1.427 . S
N1049 C1047 1.384 . S
H1050 C1056 0.930 . S
H1051 C1060 0.930 . S
H1052 C1065 0.929 . S
H1053 C1063 0.929 . S
H1054 C1058 0.929 . S
H1055 C1064 0.929 . S
C1056 H1050 0.930 . S
C1056 C1057 1.367 . S
C1056 C1064 1.378 . S
C1057 C1056 1.367 . S
C1057 C1065 1.433 . S
C1058 H1054 0.929 . S
C1058 C1060 1.378 . S
C1058 C1062 1.350 . S
C1059 C1062 1.463 . S
C1059 C1064 1.350 . S
C1059 N1067 1.427 . S
C1060 H1051 0.930 . S
C1060 C1058 1.378 . S
C1060 C1061 1.367 . S
C1061 C1060 1.367 . S
C1061 C1063 1.433 . S
C1062 C1058 1.350 . S
C1062 C1059 1.463 . S
C1062 N1066 1.427 . S
C1063 H1053 0.929 . S
C1063 C1061 1.433 . S
C1063 N1066 1.384 . S
C1064 H1055 0.929 . S
C1064 C1056 1.378 . S
C1064 C1059 1.350 . S
C1065 H1052 0.929 . S
C1065 C1057 1.433 . S
C1065 N1067 1.384 . S
N1066 C1062 1.427 . S
N1066 C1063 1.384 . S
N1067 C1059 1.427 . S
N1067 C1065 1.384 . S
H1068 C1074 0.930 . S
H1069 C1078 0.930 . S
H1070 C1083 0.929 . S
H1071 C1081 0.929 . S
H1072 C1076 0.929 . S
H1073 C1082 0.929 . S
C1074 H1068 0.930 . S
C1074 C1075 1.367 . S
C1074 C1082 1.378 . S
C1075 C1074 1.367 . S
C1075 C1083 1.433 . S
C1076 H1072 0.929 . S
C1076 C1078 1.378 . S
C1076 C1080 1.350 . S
C1077 C1080 1.463 . S
C1077 C1082 1.350 . S
C1077 N1085 1.427 . S
C1078 H1069 0.930 . S
C1078 C1076 1.378 . S
C1078 C1079 1.367 . S
C1079 C1078 1.367 . S
C1079 C1081 1.433 . S
C1080 C1076 1.350 . S
C1080 C1077 1.463 . S
C1080 N1084 1.427 . S
C1081 H1071 0.929 . S
C1081 C1079 1.433 . S
C1081 N1084 1.384 . S
C1082 H1073 0.929 . S
C1082 C1074 1.378 . S
C1082 C1077 1.350 . S
C1083 H1070 0.929 . S
C1083 C1075 1.433 . S
C1083 N1085 1.384 . S
N1084 C1080 1.427 . S
N1084 C1081 1.384 . S
N1085 C1077 1.427 . S
N1085 C1083 1.384 . S
H1086 C1092 0.930 . S
H1087 C1096 0.930 . S
H1088 C1101 0.929 . S
H1089 C1099 0.929 . S
H1090 C1094 0.929 . S
H1091 C1100 0.929 . S
C1092 H1086 0.930 . S
C1092 C1093 1.367 . S
C1092 C1100 1.378 . S
C1093 C1092 1.367 . S
C1093 C1101 1.433 . S
C1094 H1090 0.929 . S
C1094 C1096 1.378 . S
C1094 C1098 1.350 . S
C1095 C1098 1.463 . S
C1095 C1100 1.350 . S
C1095 N1103 1.427 . S
C1096 H1087 0.930 . S
C1096 C1094 1.378 . S
C1096 C1097 1.367 . S
C1097 C1096 1.367 . S
C1097 C1099 1.433 . S
C1098 C1094 1.350 . S
C1098 C1095 1.463 . S
C1098 N1102 1.427 . S
C1099 H1089 0.929 . S
C1099 C1097 1.433 . S
C1099 N1102 1.384 . S
C1100 H1091 0.929 . S
C1100 C1092 1.378 . S
C1100 C1095 1.350 . S
C1101 H1088 0.929 . S
C1101 C1093 1.433 . S
C1101 N1103 1.384 . S
N1102 C1098 1.427 . S
N1102 C1099 1.384 . S
N1103 C1095 1.427 . S
N1103 C1101 1.384 . S
H1104 C1110 0.930 . S
H1105 C1114 0.930 . S
H1106 C1119 0.929 . S
H1107 C1117 0.929 . S
H1108 C1112 0.929 . S
H1109 C1118 0.929 . S
C1110 H1104 0.930 . S
C1110 C1111 1.367 . S
C1110 C1118 1.378 . S
C1111 C1110 1.367 . S
C1111 C1119 1.433 . S
C1112 H1108 0.929 . S
C1112 C1114 1.378 . S
C1112 C1116 1.350 . S
C1113 C1116 1.463 . S
C1113 C1118 1.350 . S
C1113 N1121 1.427 . S
C1114 H1105 0.930 . S
C1114 C1112 1.378 . S
C1114 C1115 1.367 . S
C1115 C1114 1.367 . S
C1115 C1117 1.433 . S
C1116 C1112 1.350 . S
C1116 C1113 1.463 . S
C1116 N1120 1.427 . S
C1117 H1107 0.929 . S
C1117 C1115 1.433 . S
C1117 N1120 1.384 . S
C1118 H1109 0.929 . S
C1118 C1110 1.378 . S
C1118 C1113 1.350 . S
C1119 H1106 0.929 . S
C1119 C1111 1.433 . S
C1119 N1121 1.384 . S
N1120 C1116 1.427 . S
N1120 C1117 1.384 . S
N1121 C1113 1.427 . S
N1121 C1119 1.384 . S
H1122 C1128 0.930 . S
H1123 C1132 0.930 . S
H1124 C1137 0.929 . S
H1125 C1135 0.929 . S
H1126 C1130 0.929 . S
H1127 C1136 0.929 . S
C1128 H1122 0.930 . S
C1128 C1129 1.367 . S
C1128 C1136 1.378 . S
C1129 C1128 1.367 . S
C1129 C1137 1.433 . S
C1130 H1126 0.929 . S
C1130 C1132 1.378 . S
C1130 C1134 1.350 . S
C1131 C1134 1.463 . S
C1131 C1136 1.350 . S
C1131 N1139 1.427 . S
C1132 H1123 0.930 . S
C1132 C1130 1.378 . S
C1132 C1133 1.367 . S
C1133 C1132 1.367 . S
C1133 C1135 1.433 . S
C1134 C1130 1.350 . S
C1134 C1131 1.463 . S
C1134 N1138 1.427 . S
C1135 H1125 0.929 . S
C1135 C1133 1.433 . S
C1135 N1138 1.384 . S
C1136 H1127 0.929 . S
C1136 C1128 1.378 . S
C1136 C1131 1.350 . S
C1137 H1124 0.929 . S
C1137 C1129 1.433 . S
C1137 N1139 1.384 . S
N1138 C1134 1.427 . S
N1138 C1135 1.384 . S
N1139 C1131 1.427 . S
N1139 C1137 1.384 . S
C715 C33 1.795 . S
C719 C623 1.794 . S
C733 C92 1.803 . S
C737 C682 1.802 . S
C751 C387 1.802 . S
C755 C151 1.801 . S
C769 C210 1.791 . S
C773 C446 1.791 . S
C787 C505 1.795 . S
C791 C269 1.796 . S
C805 C564 1.795 . S
C809 C328 1.796 . S
C823 C406 0.611 . S
C827 C52 0.613 . S
C841 C465 0.615 . S
C845 C111 0.615 . S
C859 C524 0.610 . S
C863 C170 0.604 1_554 S
C877 C229 0.608 . S
C881 C583 0.609 . S
C895 C288 0.612 . S
C899 C642 0.610 . S
C913 C347 0.605 1_554 S
C917 C701 0.608 . S
C931 C5 1.526 . S
C935 C182 1.524 . S
C949 C64 1.524 . S
C953 C241 1.530 . S
C967 C123 1.531 . S
C971 C300 1.525 . S
C985 C536 1.524 . S
C989 C359 1.529 . S
C1003 C595 1.532 . S
C1007 C418 1.528 . S
C1021 C654 1.526 . S
C1025 C477 1.532 . S
C1039 C3 1.352 . S
C1043 C475 1.368 . S
C1057 C534 1.369 . S
C1061 C62 1.353 . S
C1075 C121 1.361 . S
C1079 C593 1.357 . S
C1093 C652 1.369 . S
C1097 C180 1.352 . S
C1111 C239 1.353 . S
C1115 C357 1.370 . S
C1129 C298 1.360 . S
C1133 C416 1.366 . S
