# Generated by pormake.
# Topology und, (4)-cn, num edge types: 1
# Building blocks:
#     Node 0, Type 0, BuildingBlock: UXUYUI_clean_sbu_0, # of connection points: 4
#     Node 1, Type 0, BuildingBlock: UXUYUI_clean_sbu_0, # of connection points: 4
#     Node 2, Type 0, BuildingBlock: UXUYUI_clean_sbu_0, # of connection points: 4
#     Node 3, Type 0, BuildingBlock: UXUYUI_clean_sbu_0, # of connection points: 4
#     Node 4, Type 0, BuildingBlock: UXUYUI_clean_sbu_0, # of connection points: 4
#     Node 5, Type 0, BuildingBlock: UXUYUI_clean_sbu_0, # of connection points: 4
#     Node 6, Type 0, BuildingBlock: UXUYUI_clean_sbu_0, # of connection points: 4
#     Node 7, Type 0, BuildingBlock: UXUYUI_clean_sbu_0, # of connection points: 4
#     Node 8, Type 0, BuildingBlock: UXUYUI_clean_sbu_0, # of connection points: 4
#     Node 9, Type 0, BuildingBlock: UXUYUI_clean_sbu_0, # of connection points: 4
#     Node 10, Type 0, BuildingBlock: UXUYUI_clean_sbu_0, # of connection points: 4
#     Node 11, Type 0, BuildingBlock: UXUYUI_clean_sbu_0, # of connection points: 4
#     Node 12, Type 0, BuildingBlock: UXUYUI_clean_sbu_0, # of connection points: 4
#     Node 13, Type 0, BuildingBlock: UXUYUI_clean_sbu_0, # of connection points: 4
#     Node 14, Type 0, BuildingBlock: UXUYUI_clean_sbu_0, # of connection points: 4
#     Node 15, Type 0, BuildingBlock: UXUYUI_clean_sbu_0, # of connection points: 4
#     Edge 16, Type (0, 0), BuildingBlock: AJUNOK_clean_linker_0, # of connection points: 2
#     Edge 17, Type (0, 0), BuildingBlock: AJUNOK_clean_linker_0, # of connection points: 2
#     Edge 18, Type (0, 0), BuildingBlock: AJUNOK_clean_linker_0, # of connection points: 2
#     Edge 19, Type (0, 0), BuildingBlock: AJUNOK_clean_linker_0, # of connection points: 2
#     Edge 20, Type (0, 0), BuildingBlock: AJUNOK_clean_linker_0, # of connection points: 2
#     Edge 21, Type (0, 0), BuildingBlock: AJUNOK_clean_linker_0, # of connection points: 2
#     Edge 22, Type (0, 0), BuildingBlock: AJUNOK_clean_linker_0, # of connection points: 2
#     Edge 23, Type (0, 0), BuildingBlock: AJUNOK_clean_linker_0, # of connection points: 2
#     Edge 24, Type (0, 0), BuildingBlock: AJUNOK_clean_linker_0, # of connection points: 2
#     Edge 25, Type (0, 0), BuildingBlock: AJUNOK_clean_linker_0, # of connection points: 2
#     Edge 26, Type (0, 0), BuildingBlock: AJUNOK_clean_linker_0, # of connection points: 2
#     Edge 27, Type (0, 0), BuildingBlock: AJUNOK_clean_linker_0, # of connection points: 2
#     Edge 28, Type (0, 0), BuildingBlock: AJUNOK_clean_linker_0, # of connection points: 2
#     Edge 29, Type (0, 0), BuildingBlock: AJUNOK_clean_linker_0, # of connection points: 2
#     Edge 30, Type (0, 0), BuildingBlock: AJUNOK_clean_linker_0, # of connection points: 2
#     Edge 31, Type (0, 0), BuildingBlock: AJUNOK_clean_linker_0, # of connection points: 2
#     Edge 32, Type (0, 0), BuildingBlock: AJUNOK_clean_linker_0, # of connection points: 2
#     Edge 33, Type (0, 0), BuildingBlock: AJUNOK_clean_linker_0, # of connection points: 2
#     Edge 34, Type (0, 0), BuildingBlock: AJUNOK_clean_linker_0, # of connection points: 2
#     Edge 35, Type (0, 0), BuildingBlock: AJUNOK_clean_linker_0, # of connection points: 2
#     Edge 36, Type (0, 0), BuildingBlock: AJUNOK_clean_linker_0, # of connection points: 2
#     Edge 37, Type (0, 0), BuildingBlock: AJUNOK_clean_linker_0, # of connection points: 2
#     Edge 38, Type (0, 0), BuildingBlock: AJUNOK_clean_linker_0, # of connection points: 2
#     Edge 39, Type (0, 0), BuildingBlock: AJUNOK_clean_linker_0, # of connection points: 2
#     Edge 40, Type (0, 0), BuildingBlock: AJUNOK_clean_linker_0, # of connection points: 2
#     Edge 41, Type (0, 0), BuildingBlock: AJUNOK_clean_linker_0, # of connection points: 2
#     Edge 42, Type (0, 0), BuildingBlock: AJUNOK_clean_linker_0, # of connection points: 2
#     Edge 43, Type (0, 0), BuildingBlock: AJUNOK_clean_linker_0, # of connection points: 2
#     Edge 44, Type (0, 0), BuildingBlock: AJUNOK_clean_linker_0, # of connection points: 2
#     Edge 45, Type (0, 0), BuildingBlock: AJUNOK_clean_linker_0, # of connection points: 2
#     Edge 46, Type (0, 0), BuildingBlock: AJUNOK_clean_linker_0, # of connection points: 2
#     Edge 47, Type (0, 0), BuildingBlock: AJUNOK_clean_linker_0, # of connection points: 2
# Relax obj value: 0.184
# Max RMSD: 0.213
# Mean RMSD: 0.213
data_MOF--net-und--node1-UXUYUI_clean_sbu_0--edge1-AJUNOK_clean_linker_0
_symmetry_space_group_name_H-M    P1
_symmetry_Int_Tables_number       1
_symmetry_cell_setting            triclinic
loop_
_symmetry_equiv_pos_as_xyz
'x, y, z'
_cell_length_a     71.12391
_cell_length_b     71.124272
_cell_length_c     26.912888
_cell_angle_alpha  90.013978
_cell_angle_beta   90.020094
_cell_angle_gamma 90.007359
loop_
_atom_site_label
_atom_site_type_symbol
_atom_site_fract_x
_atom_site_fract_y
_atom_site_fract_z
_atom_type_partial_charge
Li0 Li 0.23387 0.34488 0.01454 0.0
Li1 Li 0.26731 0.34542 0.99403 0.0
Li2 Li 0.24624 0.32 0.96171 0.0
Li3 Li 0.25526 0.32006 0.04878 0.0
C4 C 0.2358 0.3613 0.92433 0.0
N5 N 0.21586 0.38967 0.87802 0.0
C6 C 0.24244 0.37979 0.92557 0.0
C7 C 0.21918 0.3572 0.89885 0.0
C8 C 0.23212 0.39395 0.90213 0.0
C9 C 0.20925 0.37174 0.87586 0.0
C10 C 0.26648 0.35665 0.09571 0.0
C11 C 0.29239 0.35645 0.15363 0.0
N12 N 0.28827 0.37446 0.16665 0.0
C13 C 0.26234 0.37506 0.11028 0.0
C14 C 0.28148 0.34719 0.11808 0.0
C15 C 0.27359 0.38386 0.14593 0.0
C16 C 0.19677 0.35366 0.04737 0.0
N17 N 0.21346 0.36092 0.0319 0.0
C18 C 0.20342 0.392 0.05257 0.0
C19 C 0.21694 0.37968 0.03393 0.0
C20 C 0.18608 0.38496 0.06914 0.0
C21 C 0.18276 0.36552 0.06605 0.0
H22 H 0.19453 0.33864 0.04673 0.0
H23 H 0.23052 0.38502 0.02285 0.0
C24 C 0.29746 0.35528 0.93377 0.0
N25 N 0.28747 0.36129 0.97379 0.0
C26 C 0.31062 0.36709 0.91125 0.0
C27 C 0.3033 0.39092 0.9723 0.0
C28 C 0.29029 0.37863 0.9937 0.0
C29 C 0.31331 0.38533 0.92979 0.0
H30 H 0.29467 0.34153 0.91821 0.0
H31 H 0.28187 0.38328 0.02467 0.0
C32 C 0.21637 0.30471 0.00547 0.0
N33 N 0.19011 0.27878 0.97331 0.0
C34 C 0.21696 0.28622 0.02292 0.0
C35 C 0.20226 0.31009 0.97226 0.0
C36 C 0.2036 0.27329 0.00606 0.0
C37 C 0.18916 0.29676 0.95628 0.0
C38 C 0.28889 0.30951 0.99935 0.0
C39 C 0.29219 0.291 0.98413 0.0
C40 C 0.30328 0.3196 0.02261 0.0
C41 C 0.30963 0.28273 0.99378 0.0
C42 C 0.32053 0.31085 0.03156 0.0
N43 N 0.32332 0.29274 0.01716 0.0
C44 C 0.24147 0.30942 0.86031 0.0
C45 C 0.24506 0.28452 0.91813 0.0
C46 C 0.24221 0.29672 0.82066 0.0
N47 N 0.24306 0.30311 0.90781 0.0
C48 C 0.24589 0.27139 0.87976 0.0
C49 C 0.24476 0.27747 0.83027 0.0
H50 H 0.24046 0.32434 0.85312 0.0
H51 H 0.24681 0.27998 0.95616 0.0
C52 C 0.25366 0.30908 0.1496 0.0
N53 N 0.25869 0.30345 0.10319 0.0
C54 C 0.25296 0.29608 0.18847 0.0
C55 C 0.26275 0.27184 0.13106 0.0
C56 C 0.26331 0.28529 0.09341 0.0
C57 C 0.25731 0.27713 0.17921 0.0
H58 H 0.24946 0.32349 0.15597 0.0
H59 H 0.26631 0.28101 0.05576 0.0
O60 O 0.24568 0.34725 0.94727 0.0
O61 O 0.25546 0.34778 0.06114 0.0
O62 O 0.22949 0.31751 0.02096 0.0
O63 O 0.27192 0.31786 0.98972 0.0
H64 H 0.25532 0.38322 0.94485 0.0
H65 H 0.21404 0.34292 0.89653 0.0
H66 H 0.23703 0.40834 0.90314 0.0
H67 H 0.19633 0.36877 0.85618 0.0
H68 H 0.30407 0.34929 0.17107 0.0
H69 H 0.25063 0.38255 0.09407 0.0
H70 H 0.28455 0.33275 0.10863 0.0
H71 H 0.27062 0.39816 0.15719 0.0
H72 H 0.20682 0.4068 0.05572 0.0
H73 H 0.16961 0.35952 0.0787 0.0
H74 H 0.31802 0.3623 0.87843 0.0
H75 H 0.30518 0.4048 0.98808 0.0
H76 H 0.22766 0.28184 0.04896 0.0
H77 H 0.20141 0.32441 0.95912 0.0
H78 H 0.20397 0.2589 0.019 0.0
H79 H 0.17821 0.30072 0.93041 0.0
H80 H 0.28138 0.28304 0.96529 0.0
H81 H 0.30127 0.33409 0.03325 0.0
H82 H 0.3123 0.26837 0.98258 0.0
H83 H 0.33174 0.3185 0.04974 0.0
H84 H 0.24166 0.30199 0.78294 0.0
H85 H 0.24787 0.25666 0.88863 0.0
H86 H 0.24861 0.30068 0.22507 0.0
H87 H 0.26563 0.25728 0.12198 0.0
Li88 Li 0.92724 0.99684 0.20411 0.0
Li89 Li 0.92753 0.00645 0.29159 0.0
Li90 Li 0.90226 0.98484 0.26032 0.0
Li91 Li 0.9024 0.01809 0.23858 0.0
C92 C 0.93857 0.96367 0.2594 0.0
N93 N 0.95599 0.92905 0.25161 0.0
C94 C 0.95662 0.96102 0.27874 0.0
C95 C 0.92926 0.9486 0.23687 0.0
C96 C 0.96523 0.94344 0.27419 0.0
C97 C 0.93833 0.93124 0.23309 0.0
C98 C 0.94346 0.03534 0.24232 0.0
C99 C 0.95437 0.06266 0.2869 0.0
N100 N 0.97151 0.06082 0.265 0.0
C101 C 0.96113 0.03381 0.21991 0.0
C102 C 0.93999 0.04996 0.27576 0.0
C103 C 0.97514 0.0468 0.23199 0.0
C104 C 0.93923 0.00469 0.10853 0.0
N105 N 0.94332 0.99377 0.14852 0.0
C106 C 0.97278 0.98496 0.11288 0.0
C107 C 0.95957 0.98375 0.1511 0.0
C108 C 0.9693 0.99683 0.07224 0.0
C109 C 0.95209 0.00641 0.06964 0.0
H110 H 0.92633 0.01275 0.10801 0.0
H111 H 0.96275 0.97558 0.18378 0.0
C112 C 0.9383 0.0109 0.39276 0.0
N113 N 0.94454 0.01019 0.34505 0.0
C114 C 0.95115 0.0106 0.43212 0.0
C115 C 0.97648 0.00934 0.37233 0.0
C116 C 0.96319 0.00953 0.33428 0.0
C117 C 0.9705 0.00962 0.42197 0.0
H118 H 0.92336 0.01096 0.40025 0.0
H119 H 0.96773 0.00819 0.29615 0.0
C120 C 0.89145 0.98484 0.15798 0.0
N121 N 0.87531 0.9622 0.08618 0.0
C122 C 0.87315 0.98838 0.14147 0.0
C123 C 0.90166 0.97001 0.1372 0.0
C124 C 0.8652 0.97671 0.10538 0.0
C125 C 0.89323 0.95866 0.10117 0.0
C126 C 0.88622 0.01701 0.32778 0.0
C127 C 0.86776 0.01029 0.32773 0.0
C128 C 0.89029 0.03427 0.3501 0.0
C129 C 0.85357 0.02114 0.34931 0.0
C130 C 0.87571 0.04472 0.37129 0.0
N131 N 0.85781 0.038 0.3704 0.0
C132 C 0.89269 0.95483 0.32171 0.0
C133 C 0.86965 0.96115 0.26027 0.0
C134 C 0.88106 0.94143 0.34388 0.0
N135 N 0.88675 0.96449 0.28103 0.0
C136 C 0.85756 0.94785 0.28123 0.0
C137 C 0.86307 0.93813 0.32429 0.0
H138 H 0.90623 0.95804 0.33795 0.0
H139 H 0.86505 0.9693 0.22874 0.0
C140 C 0.89358 0.05484 0.20394 0.0
N141 N 0.88627 0.03823 0.21988 0.0
C142 C 0.88192 0.06838 0.18221 0.0
C143 C 0.85543 0.04764 0.19497 0.0
C144 C 0.86757 0.03455 0.21641 0.0
C145 C 0.86267 0.0646 0.17634 0.0
H146 H 0.90856 0.05726 0.20608 0.0
H147 H 0.86218 0.02109 0.22843 0.0
O148 O 0.92989 0.98076 0.264 0.0
O149 O 0.92961 0.02267 0.23128 0.0
O150 O 0.8995 0.99629 0.19291 0.0
O151 O 0.90027 0.00666 0.30651 0.0
H152 H 0.96398 0.97242 0.29681 0.0
H153 H 0.91511 0.95017 0.22296 0.0
H154 H 0.97924 0.94125 0.28869 0.0
H155 H 0.93129 0.91948 0.21564 0.0
H156 H 0.95191 0.07399 0.3129 0.0
H157 H 0.96405 0.02264 0.19378 0.0
H158 H 0.92634 0.05148 0.29292 0.0
H159 H 0.9889 0.04572 0.21515 0.0
H160 H 0.98597 0.97745 0.11621 0.0
H161 H 0.94884 0.0155 0.03852 0.0
H162 H 0.94604 0.01072 0.47003 0.0
H163 H 0.99125 0.00809 0.36302 0.0
H164 H 0.86512 0.99995 0.15655 0.0
H165 H 0.91601 0.96737 0.14834 0.0
H166 H 0.851 0.97921 0.09257 0.0
H167 H 0.90096 0.94709 0.08494 0.0
H168 H 0.86438 0.99691 0.31082 0.0
H169 H 0.90455 0.03952 0.35119 0.0
H170 H 0.8392 0.01617 0.34923 0.0
H171 H 0.87864 0.05815 0.38852 0.0
H172 H 0.88577 0.93429 0.37717 0.0
H173 H 0.8439 0.94549 0.26458 0.0
H174 H 0.88801 0.08129 0.16819 0.0
H175 H 0.84061 0.04435 0.19191 0.0
Li176 Li 0.25231 0.67729 0.45198 0.0
Li177 Li 0.2438 0.67803 0.54051 0.0
Li178 Li 0.26477 0.65228 0.50731 0.0
Li179 Li 0.23131 0.6526 0.48782 0.0
C180 C 0.28475 0.69074 0.50369 0.0
N181 N 0.31647 0.71275 0.49176 0.0
C182 C 0.28483 0.70939 0.52011 0.0
C183 C 0.30095 0.68319 0.48209 0.0
C184 C 0.30095 0.72032 0.51347 0.0
C185 C 0.3168 0.69456 0.47615 0.0
C186 C 0.21211 0.69148 0.49252 0.0
C187 C 0.18405 0.69814 0.53958 0.0
N188 N 0.18228 0.71481 0.51524 0.0
C189 C 0.20994 0.7086 0.46768 0.0
C190 C 0.19901 0.68614 0.52851 0.0
C191 C 0.19479 0.72022 0.4798 0.0
C192 C 0.25141 0.6875 0.35027 0.0
N193 N 0.25522 0.69375 0.39696 0.0
C194 C 0.25726 0.72545 0.36809 0.0
C195 C 0.25823 0.71228 0.4064 0.0
C196 C 0.25283 0.7195 0.31977 0.0
C197 C 0.25028 0.70021 0.31078 0.0
H198 H 0.24853 0.67276 0.34403 0.0
H199 H 0.26033 0.71699 0.44411 0.0
C200 C 0.24683 0.68939 0.64033 0.0
N201 N 0.24133 0.69509 0.59436 0.0
C202 C 0.24898 0.70251 0.67861 0.0
C203 C 0.23908 0.72693 0.6219 0.0
C204 C 0.23723 0.71339 0.58474 0.0
C205 C 0.24561 0.72164 0.6691 0.0
H206 H 0.25046 0.67481 0.64656 0.0
H207 H 0.23358 0.7177 0.54752 0.0
C208 C 0.26481 0.64095 0.40823 0.0
N209 N 0.2892 0.6237 0.34259 0.0
C210 C 0.2617 0.62238 0.39337 0.0
C211 C 0.28017 0.65083 0.3891 0.0
C212 C 0.27424 0.61387 0.36034 0.0
C213 C 0.29238 0.64185 0.35612 0.0
C214 C 0.23311 0.63808 0.58182 0.0
C215 C 0.23737 0.61891 0.57967 0.0
C216 C 0.2186 0.64432 0.61267 0.0
C217 C 0.22668 0.60623 0.60743 0.0
C218 C 0.20824 0.6312 0.63992 0.0
N219 N 0.21244 0.61258 0.63669 0.0
C220 C 0.29766 0.64357 0.55997 0.0
C221 C 0.28553 0.61815 0.51286 0.0
C222 C 0.31119 0.63188 0.58143 0.0
N223 N 0.28512 0.63653 0.52667 0.0
C224 C 0.29877 0.60594 0.53356 0.0
C225 C 0.31154 0.61271 0.56912 0.0
H226 H 0.29668 0.65812 0.57137 0.0
H227 H 0.27505 0.61276 0.48754 0.0
C228 C 0.19417 0.64364 0.45522 0.0
N229 N 0.21085 0.63644 0.47097 0.0
C230 C 0.18023 0.63177 0.43625 0.0
C231 C 0.20087 0.60531 0.45014 0.0
C232 C 0.21439 0.61767 0.46881 0.0
C233 C 0.18357 0.61234 0.4332 0.0
H234 H 0.1919 0.65865 0.45555 0.0
H235 H 0.22802 0.61238 0.47964 0.0
O236 O 0.26915 0.67976 0.51055 0.0
O237 O 0.22699 0.68002 0.48153 0.0
O238 O 0.25267 0.64947 0.4406 0.0
O239 O 0.24343 0.6507 0.55492 0.0
H240 H 0.27253 0.71541 0.53751 0.0
H241 H 0.30139 0.66863 0.47057 0.0
H242 H 0.30114 0.73481 0.52568 0.0
H243 H 0.32941 0.6889 0.45937 0.0
H244 H 0.17383 0.6942 0.56743 0.0
H245 H 0.21987 0.7129 0.43946 0.0
H246 H 0.20033 0.67281 0.5474 0.0
H247 H 0.19298 0.73355 0.46104 0.0
H248 H 0.25906 0.74023 0.37659 0.0
H249 H 0.24702 0.69508 0.27388 0.0
H250 H 0.25409 0.69789 0.7145 0.0
H251 H 0.236 0.74149 0.61333 0.0
H252 H 0.24978 0.61457 0.4074 0.0
H253 H 0.28253 0.66534 0.39918 0.0
H254 H 0.27206 0.59947 0.34879 0.0
H255 H 0.30434 0.64933 0.34113 0.0
H256 H 0.24872 0.61387 0.55651 0.0
H257 H 0.21548 0.65915 0.6159 0.0
H258 H 0.22971 0.59134 0.60577 0.0
H259 H 0.19692 0.63583 0.66379 0.0
H260 H 0.32073 0.63757 0.60898 0.0
H261 H 0.29873 0.59126 0.52279 0.0
H262 H 0.16712 0.63774 0.42319 0.0
H263 H 0.20424 0.59051 0.44709 0.0
Li264 Li 0.5964 0.98573 0.72934 0.0
Li265 Li 0.59609 0.01838 0.75265 0.0
Li266 Li 0.57265 0.99801 0.79122 0.0
Li267 Li 0.57053 0.00683 0.70405 0.0
C268 C 0.61759 0.00022 0.81825 0.0
N269 N 0.65175 0.0101 0.85976 0.0
C270 C 0.63435 0.99628 0.79319 0.0
C271 C 0.61822 0.00916 0.8645 0.0
C272 C 0.65147 0.00136 0.81483 0.0
C273 C 0.63563 0.01409 0.88478 0.0
C274 C 0.61018 0.01813 0.65935 0.0
C275 C 0.61937 0.04701 0.61924 0.0
N276 N 0.63648 0.03941 0.60897 0.0
C277 C 0.62782 0.01055 0.64815 0.0
C278 C 0.60586 0.03644 0.64452 0.0
C279 C 0.64094 0.02156 0.62272 0.0
C280 C 0.61018 0.96227 0.65607 0.0
N281 N 0.61032 0.96471 0.70613 0.0
C282 C 0.63128 0.93873 0.71616 0.0
C283 C 0.62029 0.95312 0.73647 0.0
C284 C 0.63181 0.93623 0.66434 0.0
C285 C 0.62095 0.94813 0.63425 0.0
H286 H 0.60207 0.97172 0.63297 0.0
H287 H 0.62002 0.95532 0.77624 0.0
C288 C 0.60438 0.05152 0.80439 0.0
N289 N 0.6118 0.0393 0.7708 0.0
C290 C 0.61579 0.06493 0.82748 0.0
C291 C 0.6421 0.0535 0.7795 0.0
C292 C 0.63023 0.04028 0.75751 0.0
C293 C 0.63503 0.06564 0.81612 0.0
H294 H 0.5898 0.05021 0.81522 0.0
H295 H 0.63606 0.03013 0.73209 0.0
C296 C 0.56548 0.96286 0.74418 0.0
N297 N 0.55975 0.92534 0.76586 0.0
C298 C 0.55448 0.95174 0.71277 0.0
C299 C 0.57362 0.95492 0.78654 0.0
C300 C 0.55173 0.93279 0.72441 0.0
C301 C 0.57055 0.93592 0.79687 0.0
C302 C 0.55483 0.03492 0.75087 0.0
C303 C 0.53638 0.0301 0.76339 0.0
C304 C 0.55833 0.05158 0.72498 0.0
C305 C 0.52167 0.04193 0.74905 0.0
C306 C 0.54324 0.06304 0.71133 0.0
N307 N 0.52537 0.058 0.72349 0.0
C308 C 0.56052 0.00608 0.88745 0.0
C309 C 0.54135 0.98389 0.8455 0.0
C310 C 0.54766 0.00712 0.92653 0.0
N311 N 0.55713 0.99465 0.84797 0.0
C312 C 0.52809 0.98453 0.88374 0.0
C313 C 0.53107 0.99646 0.92457 0.0
H314 H 0.57267 0.01517 0.88726 0.0
H315 H 0.53854 0.97555 0.81276 0.0
C316 C 0.55609 0.01722 0.60833 0.0
N317 N 0.55216 0.00971 0.65359 0.0
C318 C 0.54272 0.01643 0.57028 0.0
C319 C 0.52152 0.00054 0.62656 0.0
C320 C 0.53526 0.00161 0.66337 0.0
C321 C 0.52526 0.00776 0.5791 0.0
H322 H 0.56983 0.02312 0.60118 0.0
H323 H 0.5327 0.99543 0.69946 0.0
O324 O 0.60067 0.9957 0.79713 0.0
O325 O 0.59712 0.00752 0.6839 0.0
O326 O 0.56851 0.98135 0.73281 0.0
O327 O 0.56938 0.02336 0.76373 0.0
H328 H 0.63415 0.98975 0.75694 0.0
H329 H 0.60544 0.0124 0.88436 0.0
H330 H 0.66453 0.99849 0.79568 0.0
H331 H 0.63632 0.02112 0.92038 0.0
H332 H 0.61624 0.06124 0.60775 0.0
H333 H 0.63144 0.99641 0.65941 0.0
H334 H 0.59224 0.04245 0.65256 0.0
H335 H 0.65468 0.01593 0.61404 0.0
H336 H 0.63945 0.9298 0.74059 0.0
H337 H 0.62127 0.94697 0.59414 0.0
H338 H 0.60983 0.07402 0.85566 0.0
H339 H 0.65681 0.0538 0.76914 0.0
H340 H 0.54817 0.95769 0.67971 0.0
H341 H 0.58224 0.9633 0.81116 0.0
H342 H 0.54324 0.92401 0.70046 0.0
H343 H 0.57675 0.92958 0.82951 0.0
H344 H 0.53343 0.01726 0.78347 0.0
H345 H 0.57256 0.05562 0.71566 0.0
H346 H 0.50731 0.03831 0.75816 0.0
H347 H 0.54574 0.07594 0.69111 0.0
H348 H 0.55022 0.01688 0.9567 0.0
H349 H 0.51538 0.97621 0.88076 0.0
H350 H 0.54628 0.02181 0.53385 0.0
H351 H 0.50823 0.99378 0.63481 0.0
Li352 Li 0.75525 0.67865 0.04646 0.0
Li353 Li 0.73328 0.65469 0.01566 0.0
Li354 Li 0.76697 0.65499 0.98664 0.0
Li355 Li 0.74509 0.67868 0.95678 0.0
C356 C 0.76481 0.64541 0.09836 0.0
N357 N 0.78109 0.63451 0.18702 0.0
C358 C 0.75372 0.6379 0.13635 0.0
C359 C 0.78422 0.6471 0.10517 0.0
C360 C 0.7622 0.63255 0.18099 0.0
C361 C 0.79217 0.64158 0.15033 0.0
C362 C 0.71205 0.68844 0.02662 0.0
C363 C 0.68056 0.69511 0.99848 0.0
N364 N 0.67594 0.70095 0.04504 0.0
C365 C 0.70708 0.69476 0.07401 0.0
C366 C 0.69877 0.68884 0.98837 0.0
C367 C 0.68871 0.70092 0.08266 0.0
C368 C 0.7639 0.71319 0.08982 0.0
N369 N 0.75927 0.69513 0.10085 0.0
C370 C 0.75449 0.70313 0.18611 0.0
C371 C 0.7547 0.68988 0.14789 0.0
C372 C 0.75873 0.72198 0.17554 0.0
C373 C 0.76371 0.72695 0.12684 0.0
H374 H 0.76696 0.71705 0.05179 0.0
H375 H 0.7502 0.67568 0.15533 0.0
C376 C 0.70984 0.62231 0.01591 0.0
N377 N 0.71323 0.63914 0.0381 0.0
C378 C 0.69648 0.61001 0.03579 0.0
C379 C 0.69032 0.63265 0.10074 0.0
C380 C 0.70387 0.64442 0.07986 0.0
C381 C 0.68654 0.61514 0.07888 0.0
H382 H 0.71793 0.61819 0.98367 0.0
H383 H 0.70741 0.65746 0.09807 0.0
C384 C 0.78895 0.68733 0.98114 0.0
N385 N 0.82647 0.69679 0.97198 0.0
C386 C 0.79635 0.69207 0.9347 0.0
C387 C 0.80053 0.68781 0.02307 0.0
C388 C 0.81539 0.69668 0.93078 0.0
C389 C 0.81948 0.69253 0.01764 0.0
C390 C 0.73373 0.64697 0.90499 0.0
C391 C 0.7432 0.64125 0.86208 0.0
C392 C 0.71414 0.64835 0.90455 0.0
C393 C 0.73291 0.63741 0.81903 0.0
C394 C 0.70434 0.64436 0.86079 0.0
N395 N 0.71386 0.63906 0.81926 0.0
C396 C 0.79318 0.62439 0.98809 0.0
C397 C 0.794 0.6443 0.9175 0.0
C398 C 0.80679 0.61265 0.96698 0.0
N399 N 0.78716 0.63989 0.96318 0.0
C400 C 0.80763 0.63303 0.89516 0.0
C401 C 0.81414 0.61693 0.91987 0.0
H402 H 0.78708 0.62085 0.02365 0.0
H403 H 0.78836 0.65622 0.8976 0.0
C404 C 0.73268 0.71192 0.90975 0.0
N405 N 0.74106 0.69498 0.90221 0.0
C406 C 0.7328 0.7255 0.87227 0.0
C407 C 0.7499 0.70382 0.81987 0.0
C408 C 0.74953 0.69071 0.85838 0.0
C409 C 0.7417 0.72157 0.82689 0.0
H410 H 0.72668 0.7152 0.94563 0.0
H411 H 0.75695 0.67756 0.85431 0.0
O412 O 0.75671 0.65072 0.05445 0.0
O413 O 0.73001 0.68248 0.01747 0.0
O414 O 0.77033 0.68282 0.98569 0.0
O415 O 0.74359 0.65081 0.94746 0.0
H416 H 0.7387 0.63633 0.13154 0.0
H417 H 0.79307 0.6524 0.07571 0.0
H418 H 0.75377 0.62684 0.21083 0.0
H419 H 0.80717 0.64284 0.15613 0.0
H420 H 0.67012 0.69544 0.96925 0.0
H421 H 0.71724 0.69476 0.10391 0.0
H422 H 0.70252 0.68457 0.95112 0.0
H423 H 0.68463 0.7057 0.11926 0.0
H424 H 0.75013 0.69888 0.223 0.0
H425 H 0.76696 0.74139 0.11735 0.0
H426 H 0.69441 0.5964 0.01858 0.0
H427 H 0.68307 0.63709 0.13414 0.0
H428 H 0.78752 0.69208 0.90198 0.0
H429 H 0.79491 0.68475 0.0595 0.0
H430 H 0.82134 0.70021 0.89499 0.0
H431 H 0.82862 0.69287 0.04977 0.0
H432 H 0.75835 0.63989 0.86194 0.0
H433 H 0.70655 0.65228 0.93773 0.0
H434 H 0.74007 0.63311 0.78544 0.0
H435 H 0.68918 0.64543 0.8599 0.0
H436 H 0.81135 0.60023 0.98693 0.0
H437 H 0.81253 0.6365 0.85818 0.0
H438 H 0.72646 0.73911 0.87911 0.0
H439 H 0.75737 0.70047 0.78594 0.0
Li440 Li 0.09444 0.98364 0.76204 0.0
Li441 Li 0.07101 0.00524 0.79435 0.0
Li442 Li 0.07046 0.99656 0.70407 0.0
Li443 Li 0.0946 0.01789 0.73695 0.0
C444 C 0.06093 0.96204 0.76011 0.0
N445 N 0.04892 0.92517 0.75348 0.0
C446 C 0.05373 0.95289 0.80195 0.0
C447 C 0.06166 0.95255 0.71469 0.0
C448 C 0.04784 0.93421 0.79792 0.0
C449 C 0.05562 0.93389 0.71214 0.0
C450 C 0.10147 0.01324 0.85035 0.0
C451 C 0.10247 0.03917 0.908 0.0
N452 N 0.1065 0.02698 0.94544 0.0
C453 C 0.10585 0.00099 0.88924 0.0
C454 C 0.09996 0.03251 0.85962 0.0
C455 C 0.10824 0.00819 0.93712 0.0
C456 C 0.12735 0.96101 0.76262 0.0
N457 N 0.10987 0.96316 0.78228 0.0
C458 C 0.11562 0.93861 0.841 0.0
C459 C 0.10389 0.95235 0.82079 0.0
C460 C 0.13379 0.93611 0.82177 0.0
C461 C 0.1396 0.94746 0.78184 0.0
H462 H 0.132 0.97024 0.73316 0.0
H463 H 0.09027 0.95489 0.83716 0.0
C464 C 0.03989 0.02009 0.84749 0.0
N465 N 0.05503 0.00846 0.84996 0.0
C466 C 0.02629 0.01972 0.88496 0.0
C467 C 0.04436 0.99575 0.92707 0.0
C468 C 0.05752 0.9965 0.88875 0.0
C469 C 0.02832 0.00722 0.92504 0.0
H470 H 0.03788 0.02893 0.81527 0.0
H471 H 0.06926 0.98686 0.8887 0.0
C472 C 0.1047 0.98683 0.65263 0.0
N473 N 0.1181 0.97015 0.56691 0.0
C474 C 0.11176 0.99791 0.61399 0.0
C475 C 0.10475 0.96726 0.64798 0.0
C476 C 0.11838 0.98921 0.57086 0.0
C477 C 0.1115 0.95909 0.60428 0.0
C478 C 0.06258 0.03954 0.72341 0.0
C479 C 0.05682 0.04385 0.67506 0.0
C480 C 0.06362 0.0538 0.75902 0.0
C481 C 0.05255 0.06246 0.6629 0.0
C482 C 0.05923 0.07224 0.74541 0.0
N483 N 0.05386 0.07616 0.69802 0.0
C484 C 0.03501 0.99392 0.66269 0.0
C485 C 0.05905 0.99429 0.60173 0.0
C486 C 0.0212 0.9956 0.6261 0.0
N487 N 0.0535 0.99365 0.65003 0.0
C488 C 0.0457 0.99592 0.56391 0.0
C489 C 0.02654 0.99716 0.57608 0.0
H490 H 0.03105 0.99375 0.70151 0.0
H491 H 0.07379 0.9944 0.59249 0.0
C492 C 0.12609 0.04246 0.74313 0.0
N493 N 0.11031 0.0382 0.71689 0.0
C494 C 0.13884 0.05573 0.72484 0.0
C495 C 0.11863 0.06027 0.65362 0.0
C496 C 0.10639 0.04682 0.67299 0.0
C497 C 0.13526 0.06459 0.67916 0.0
H498 H 0.12908 0.0351 0.7774 0.0
H499 H 0.09419 0.04264 0.65185 0.0
O500 O 0.06662 0.98038 0.7634 0.0
O501 O 0.09895 0.00644 0.80329 0.0
O502 O 0.0983 0.99513 0.69525 0.0
O503 O 0.06678 0.02139 0.73601 0.0
H504 H 0.0528 0.96011 0.83726 0.0
H505 H 0.06667 0.95954 0.68163 0.0
H506 H 0.04239 0.92692 0.8301 0.0
H507 H 0.05619 0.92636 0.67724 0.0
H508 H 0.10127 0.05405 0.91575 0.0
H509 H 0.10724 0.98605 0.8826 0.0
H510 H 0.09699 0.04221 0.82973 0.0
H511 H 0.1115 0.99886 0.96766 0.0
H512 H 0.11066 0.93025 0.87197 0.0
H513 H 0.15368 0.94638 0.76685 0.0
H514 H 0.01389 0.02845 0.88133 0.0
H515 H 0.04642 0.98588 0.95724 0.0
H516 H 0.11201 0.01306 0.61712 0.0
H517 H 0.09984 0.95843 0.67797 0.0
H518 H 0.12375 0.99762 0.54053 0.0
H519 H 0.11158 0.94396 0.60016 0.0
H520 H 0.05582 0.03299 0.64706 0.0
H521 H 0.06764 0.05065 0.79685 0.0
H522 H 0.04821 0.06602 0.62554 0.0
H523 H 0.06004 0.08342 0.77257 0.0
H524 H 0.00656 0.99654 0.63697 0.0
H525 H 0.05035 0.99671 0.52564 0.0
H526 H 0.15151 0.05879 0.74565 0.0
H527 H 0.11554 0.06664 0.61798 0.0
Li528 Li 0.76534 0.34678 0.51412 0.0
Li529 Li 0.74493 0.32228 0.54481 0.0
Li530 Li 0.75498 0.32194 0.45672 0.0
Li531 Li 0.73262 0.34566 0.48611 0.0
C532 C 0.78276 0.31397 0.55429 0.0
N533 N 0.80604 0.30238 0.63056 0.0
C534 C 0.78378 0.32435 0.59834 0.0
C535 C 0.79355 0.29768 0.54907 0.0
C536 C 0.79565 0.31827 0.63644 0.0
C537 C 0.80525 0.29206 0.58805 0.0
C538 C 0.72949 0.35387 0.59118 0.0
C539 C 0.69784 0.35273 0.62307 0.0
N540 N 0.70366 0.36168 0.665 0.0
C541 C 0.73516 0.36315 0.63445 0.0
C542 C 0.71068 0.34867 0.58531 0.0
C543 C 0.72189 0.36694 0.6714 0.0
C544 C 0.77928 0.37972 0.55563 0.0
N545 N 0.78491 0.36341 0.534 0.0
C546 C 0.81706 0.37029 0.55249 0.0
C547 C 0.8034 0.35863 0.5313 0.0
C548 C 0.81157 0.38692 0.5767 0.0
C549 C 0.79243 0.39176 0.57724 0.0
H550 H 0.76447 0.38309 0.55742 0.0
H551 H 0.80748 0.34551 0.51409 0.0
C552 C 0.73907 0.28698 0.58651 0.0
N553 N 0.74108 0.30543 0.59861 0.0
C554 C 0.74022 0.27316 0.62321 0.0
C555 C 0.74506 0.29763 0.68428 0.0
C556 C 0.74365 0.31099 0.64647 0.0
C557 C 0.74382 0.27844 0.67252 0.0
H558 H 0.73755 0.28295 0.54794 0.0
H559 H 0.74577 0.32567 0.65498 0.0
C560 C 0.77015 0.35448 0.41416 0.0
N561 N 0.79964 0.36436 0.35269 0.0
C562 C 0.76864 0.37017 0.38319 0.0
C563 C 0.78665 0.34381 0.41389 0.0
C564 C 0.7837 0.37493 0.35236 0.0
C565 C 0.8014 0.34904 0.38255 0.0
C566 C 0.7135 0.30904 0.47424 0.0
C567 C 0.7096 0.3036 0.42539 0.0
C568 C 0.70079 0.30455 0.51206 0.0
C569 C 0.69285 0.29413 0.415 0.0
C570 C 0.6842 0.29505 0.50017 0.0
N571 N 0.68059 0.29009 0.45229 0.0
C572 C 0.76092 0.28679 0.41413 0.0
C573 C 0.75721 0.31137 0.35536 0.0
C574 C 0.76024 0.27333 0.37643 0.0
N575 N 0.75917 0.30534 0.40301 0.0
C576 C 0.75655 0.29839 0.31647 0.0
C577 C 0.75773 0.27908 0.32697 0.0
H578 H 0.76195 0.28243 0.45256 0.0
H579 H 0.75514 0.32615 0.34779 0.0
C580 C 0.70855 0.37758 0.48356 0.0
N581 N 0.71208 0.36048 0.46295 0.0
C582 C 0.69493 0.3894 0.46285 0.0
C583 C 0.6888 0.36576 0.40037 0.0
C584 C 0.70261 0.35448 0.42204 0.0
C585 C 0.68493 0.38352 0.4206 0.0
H586 H 0.71667 0.38225 0.51523 0.0
H587 H 0.70625 0.34123 0.40506 0.0
O588 O 0.77086 0.31934 0.51695 0.0
O589 O 0.74237 0.34998 0.55491 0.0
O590 O 0.75551 0.34974 0.44465 0.0
O591 O 0.73001 0.31801 0.48527 0.0
H592 H 0.77532 0.33685 0.60335 0.0
H593 H 0.79281 0.28943 0.51531 0.0
H594 H 0.79652 0.32613 0.67077 0.0
H595 H 0.81367 0.27946 0.58454 0.0
H596 H 0.68323 0.34878 0.61899 0.0
H597 H 0.74969 0.36726 0.63955 0.0
H598 H 0.70601 0.34174 0.55181 0.0
H599 H 0.7261 0.37404 0.70517 0.0
H600 H 0.83172 0.36624 0.55047 0.0
H601 H 0.78762 0.40442 0.59565 0.0
H602 H 0.7393 0.25847 0.61281 0.0
H603 H 0.74769 0.3022 0.72204 0.0
H604 H 0.75594 0.37857 0.38302 0.0
H605 H 0.7881 0.3316 0.43752 0.0
H606 H 0.78273 0.38704 0.32818 0.0
H607 H 0.81426 0.34091 0.38197 0.0
H608 H 0.71933 0.30679 0.39571 0.0
H609 H 0.70377 0.30821 0.55028 0.0
H610 H 0.68961 0.28995 0.37731 0.0
H611 H 0.67423 0.29154 0.52905 0.0
H612 H 0.76116 0.25855 0.38591 0.0
H613 H 0.75418 0.30334 0.27893 0.0
H614 H 0.69241 0.40308 0.47923 0.0
H615 H 0.68174 0.36095 0.36705 0.0
Li616 Li 0.405 0.01627 0.25786 0.0
Li617 Li 0.42894 0.99551 0.28719 0.0
Li618 Li 0.42939 0.00457 0.20167 0.0
Li619 Li 0.40493 0.98251 0.2333 0.0
C620 C 0.43647 0.03402 0.29634 0.0
N621 N 0.44504 0.0593 0.37104 0.0
C622 C 0.42789 0.03248 0.34287 0.0
C623 C 0.44942 0.04845 0.28782 0.0
C624 C 0.4324 0.04538 0.38015 0.0
C625 C 0.45356 0.06109 0.32605 0.0
C626 C 0.39589 0.9842 0.34087 0.0
C627 C 0.39038 0.95509 0.3844 0.0
N628 N 0.38433 0.96495 0.42463 0.0
C629 C 0.38939 0.99405 0.38242 0.0
C630 C 0.3962 0.96456 0.34162 0.0
C631 C 0.3837 0.98406 0.4245 0.0
C632 C 0.37131 0.02998 0.29376 0.0
N633 N 0.38837 0.0359 0.27739 0.0
C634 C 0.38188 0.06726 0.30443 0.0
C635 C 0.39362 0.05425 0.28081 0.0
C636 C 0.36461 0.06127 0.32433 0.0
C637 C 0.3591 0.0425 0.31714 0.0
H638 H 0.36749 0.01531 0.29032 0.0
H639 H 0.40722 0.05865 0.2672 0.0
C640 C 0.46346 0.9995 0.33172 0.0
N641 N 0.44622 0.99206 0.34126 0.0
C642 C 0.47671 0.00133 0.3695 0.0
C643 C 0.45469 0.98687 0.42616 0.0
C644 C 0.44178 0.98535 0.38713 0.0
C645 C 0.47217 0.99549 0.41774 0.0
H646 H 0.46662 0.00485 0.29504 0.0
H647 H 0.42806 0.97952 0.3942 0.0
C648 C 0.39691 0.01932 0.15738 0.0
N649 N 0.38724 0.04751 0.0916 0.0
C650 C 0.38199 0.01673 0.1243 0.0
C651 C 0.40692 0.03624 0.15707 0.0
C652 C 0.37732 0.03116 0.0913 0.0
C653 C 0.40181 0.05032 0.12351 0.0
C654 C 0.44765 0.96846 0.24297 0.0
C655 C 0.46564 0.97327 0.22632 0.0
C656 C 0.44541 0.95322 0.27521 0.0
C657 C 0.48111 0.9629 0.24276 0.0
C658 C 0.46123 0.94321 0.29086 0.0
N659 N 0.47861 0.94823 0.27448 0.0
C660 C 0.4606 0.01967 0.15003 0.0
C661 C 0.44225 0.99736 0.10594 0.0
C662 C 0.47435 0.0193 0.113 0.0
N663 N 0.44517 0.00849 0.14623 0.0
C664 C 0.45562 0.99656 0.06806 0.0
C665 C 0.47219 0.00718 0.07214 0.0
H666 H 0.4627 0.02808 0.18302 0.0
H667 H 0.42999 0.98836 0.10459 0.0
C668 C 0.37057 0.96671 0.20608 0.0
N669 N 0.38902 0.96255 0.21306 0.0
C670 C 0.35844 0.95337 0.18558 0.0
C671 C 0.38444 0.93155 0.18094 0.0
C672 C 0.39612 0.94536 0.20139 0.0
C673 C 0.3654 0.93563 0.17192 0.0
H674 H 0.36543 0.98062 0.21511 0.0
H675 H 0.41091 0.94252 0.20693 0.0
O676 O 0.43261 0.0213 0.2595 0.0
O677 O 0.40137 0.99376 0.29923 0.0
O678 O 0.40155 0.00533 0.19001 0.0
O679 O 0.43235 0.97868 0.22799 0.0
H680 H 0.41794 0.02138 0.35023 0.0
H681 H 0.45622 0.04986 0.25207 0.0
H682 H 0.42588 0.04429 0.41633 0.0
H683 H 0.46356 0.07231 0.31996 0.0
H684 H 0.39063 0.93988 0.38556 0.0
H685 H 0.38872 0.00925 0.38224 0.0
H686 H 0.40081 0.95671 0.30953 0.0
H687 H 0.37873 0.99151 0.457 0.0
H688 H 0.38658 0.08165 0.30888 0.0
H689 H 0.34565 0.03744 0.33045 0.0
H690 H 0.4902 0.00768 0.36134 0.0
H691 H 0.45076 0.98212 0.46295 0.0
H692 H 0.3741 0.00371 0.12418 0.0
H693 H 0.4185 0.03852 0.18239 0.0
H694 H 0.3658 0.02936 0.06547 0.0
H695 H 0.40942 0.06349 0.12286 0.0
H696 H 0.46769 0.98497 0.20135 0.0
H697 H 0.43162 0.94921 0.28828 0.0
H698 H 0.49512 0.96654 0.23039 0.0
H699 H 0.4597 0.93147 0.31605 0.0
H700 H 0.48681 0.02793 0.11701 0.0
H701 H 0.45348 0.98701 0.03721 0.0
H702 H 0.34388 0.95711 0.17905 0.0
H703 H 0.39028 0.91791 0.1719 0.0
Li704 Li 0.73296 0.84627 0.51188 0.0
Li705 Li 0.76619 0.84715 0.49113 0.0
Li706 Li 0.74527 0.82123 0.45902 0.0
Li707 Li 0.75443 0.82203 0.54734 0.0
C708 C 0.73391 0.86196 0.42149 0.0
N709 N 0.7123 0.88919 0.3758 0.0
C710 C 0.73916 0.88086 0.4243 0.0
C711 C 0.71785 0.85686 0.3948 0.0
C712 C 0.728 0.89444 0.40114 0.0
C713 C 0.70706 0.87085 0.37212 0.0
C714 C 0.76669 0.85738 0.59236 0.0
C715 C 0.79425 0.85483 0.64415 0.0
N716 N 0.79109 0.87249 0.66161 0.0
C717 C 0.76358 0.87542 0.61126 0.0
C718 C 0.78203 0.84692 0.6093 0.0
C719 C 0.77613 0.88285 0.64605 0.0
C720 C 0.69545 0.85453 0.54223 0.0
N721 N 0.71236 0.86201 0.5293 0.0
C722 C 0.70222 0.89264 0.55404 0.0
C723 C 0.71592 0.88068 0.53464 0.0
C724 C 0.68475 0.8853 0.56862 0.0
C725 C 0.68135 0.866 0.56199 0.0
H726 H 0.69317 0.83957 0.5392 0.0
H727 H 0.72966 0.88616 0.52548 0.0
C728 C 0.79666 0.8569 0.43138 0.0
N729 N 0.78631 0.86296 0.47072 0.0
C730 C 0.80995 0.86871 0.40942 0.0
C731 C 0.80194 0.8927 0.46942 0.0
C732 C 0.78879 0.88042 0.49023 0.0
C733 C 0.8124 0.88702 0.42775 0.0
H734 H 0.79409 0.84309 0.41595 0.0
H735 H 0.78005 0.88511 0.52058 0.0
C736 C 0.71544 0.80576 0.50955 0.0
N737 N 0.68832 0.7789 0.4903 0.0
C738 C 0.71534 0.78885 0.53605 0.0
C739 C 0.70165 0.80908 0.47363 0.0
C740 C 0.70153 0.77543 0.52568 0.0
C741 C 0.68809 0.79531 0.46433 0.0
C742 C 0.78737 0.81001 0.48999 0.0
C743 C 0.78848 0.79181 0.47058 0.0
C744 C 0.80349 0.81847 0.50958 0.0
C745 C 0.80561 0.78222 0.4721 0.0
C746 C 0.82037 0.80843 0.51038 0.0
N747 N 0.82107 0.79066 0.49183 0.0
C748 C 0.74613 0.81026 0.35843 0.0
C749 C 0.74003 0.78561 0.41547 0.0
C750 C 0.74799 0.79734 0.31959 0.0
N751 N 0.74253 0.80416 0.40534 0.0
C752 C 0.74161 0.77226 0.37781 0.0
C753 C 0.74627 0.77802 0.32948 0.0
H754 H 0.74848 0.82507 0.35169 0.0
H755 H 0.73787 0.78104 0.45328 0.0
C756 C 0.74919 0.81071 0.64581 0.0
N757 N 0.75764 0.80577 0.60244 0.0
C758 C 0.74739 0.79761 0.68417 0.0
C759 C 0.76369 0.77487 0.63314 0.0
C760 C 0.76513 0.78838 0.59577 0.0
C761 C 0.75418 0.77926 0.67735 0.0
H762 H 0.74295 0.82452 0.64952 0.0
H763 H 0.77125 0.78461 0.56051 0.0
O764 O 0.74459 0.84849 0.44421 0.0
O765 O 0.75448 0.8499 0.55839 0.0
O766 O 0.72894 0.81899 0.51891 0.0
O767 O 0.77074 0.8197 0.48807 0.0
H768 H 0.75163 0.88502 0.44455 0.0
H769 H 0.71383 0.84225 0.3914 0.0
H770 H 0.73181 0.90914 0.40334 0.0
H771 H 0.69455 0.86712 0.3515 0.0
H772 H 0.80621 0.8469 0.65745 0.0
H773 H 0.75166 0.88364 0.59895 0.0
H774 H 0.7844 0.83278 0.59606 0.0
H775 H 0.77396 0.89684 0.66073 0.0
H776 H 0.7054 0.90744 0.5586 0.0
H777 H 0.66824 0.85969 0.57389 0.0
H778 H 0.81766 0.86386 0.37718 0.0
H779 H 0.80361 0.90663 0.48506 0.0
H780 H 0.72583 0.78608 0.56419 0.0
H781 H 0.70142 0.82215 0.45319 0.0
H782 H 0.70133 0.76226 0.54575 0.0
H783 H 0.67737 0.79767 0.4365 0.0
H784 H 0.77623 0.78508 0.45485 0.0
H785 H 0.80308 0.83272 0.52351 0.0
H786 H 0.80663 0.76809 0.45751 0.0
H787 H 0.83293 0.81481 0.52553 0.0
H788 H 0.75162 0.80232 0.28279 0.0
H789 H 0.73982 0.75752 0.38675 0.0
H790 H 0.73992 0.80149 0.71772 0.0
H791 H 0.76938 0.76095 0.62686 0.0
Li792 Li 0.40332 0.51677 0.73723 0.0
Li793 Li 0.40261 0.48346 0.76265 0.0
Li794 Li 0.4276 0.50429 0.7962 0.0
Li795 Li 0.4276 0.49542 0.70946 0.0
C796 C 0.39555 0.51951 0.84048 0.0
N797 N 0.38749 0.5466 0.91089 0.0
C798 C 0.3823 0.5159 0.87759 0.0
C799 C 0.40477 0.53687 0.83927 0.0
C800 C 0.3784 0.52979 0.91282 0.0
C801 C 0.40047 0.55039 0.87518 0.0
C802 C 0.39491 0.48088 0.66117 0.0
C803 C 0.39997 0.45115 0.62027 0.0
N804 N 0.38378 0.45364 0.59415 0.0
C805 C 0.37839 0.48322 0.63374 0.0
C806 C 0.40584 0.46478 0.65427 0.0
C807 C 0.37298 0.46926 0.60011 0.0
C808 C 0.39099 0.54268 0.66766 0.0
N809 N 0.38766 0.53676 0.71487 0.0
C810 C 0.36045 0.55641 0.72016 0.0
C811 C 0.37275 0.54333 0.74135 0.0
C812 C 0.36347 0.56258 0.67122 0.0
C813 C 0.37914 0.5558 0.64518 0.0
H814 H 0.4025 0.53666 0.6468 0.0
H815 H 0.37002 0.53802 0.77824 0.0
C816 C 0.39284 0.45359 0.8236 0.0
N817 N 0.38695 0.46334 0.78305 0.0
C818 C 0.38121 0.44012 0.84536 0.0
C819 C 0.35774 0.44674 0.78273 0.0
C820 C 0.36985 0.46012 0.76212 0.0
C821 C 0.36325 0.43684 0.82553 0.0
H822 H 0.40636 0.45676 0.84002 0.0
H823 H 0.36537 0.46833 0.73047 0.0
C824 C 0.44674 0.5279 0.71581 0.0
N825 N 0.47866 0.54026 0.66715 0.0
C826 C 0.46426 0.52004 0.72686 0.0
C827 C 0.44551 0.54225 0.6805 0.0
C828 C 0.48022 0.52641 0.70174 0.0
C829 C 0.4618 0.54826 0.65619 0.0
C830 C 0.4419 0.46431 0.77269 0.0
C831 C 0.46001 0.46725 0.79148 0.0
C832 C 0.43619 0.4461 0.76015 0.0
C833 C 0.4722 0.45197 0.79653 0.0
C834 C 0.44881 0.4312 0.76574 0.0
N835 N 0.4664 0.43442 0.78362 0.0
C836 C 0.44153 0.4935 0.88756 0.0
C837 C 0.45608 0.52109 0.85638 0.0
C838 C 0.45467 0.49233 0.92589 0.0
N839 N 0.44281 0.5074 0.85313 0.0
C840 C 0.46956 0.52044 0.89411 0.0
C841 C 0.46926 0.50557 0.92848 0.0
H842 H 0.4309 0.48272 0.88356 0.0
H843 H 0.4567 0.53202 0.82851 0.0
C844 C 0.43972 0.50174 0.61272 0.0
N845 N 0.44386 0.49154 0.65401 0.0
C846 C 0.4528 0.50331 0.57429 0.0
C847 C 0.4737 0.48294 0.62032 0.0
C848 C 0.46022 0.48177 0.65786 0.0
C849 C 0.47027 0.49432 0.5787 0.0
H850 H 0.4267 0.50959 0.61106 0.0
H851 H 0.46333 0.47392 0.69108 0.0
O852 O 0.39956 0.50598 0.80599 0.0
O853 O 0.40029 0.4944 0.69437 0.0
O854 O 0.43087 0.52139 0.73892 0.0
O855 O 0.42962 0.47904 0.76822 0.0
H856 H 0.37511 0.50249 0.87909 0.0
H857 H 0.41509 0.53993 0.81093 0.0
H858 H 0.36815 0.5272 0.94173 0.0
H859 H 0.40747 0.5639 0.87466 0.0
H860 H 0.4083 0.43861 0.61458 0.0
H861 H 0.36981 0.49566 0.6386 0.0
H862 H 0.41878 0.46289 0.67461 0.0
H863 H 0.36019 0.47084 0.57875 0.0
H864 H 0.34855 0.56142 0.74148 0.0
H865 H 0.38177 0.56005 0.60717 0.0
H866 H 0.3859 0.43287 0.87851 0.0
H867 H 0.3441 0.44441 0.76595 0.0
H868 H 0.46547 0.50888 0.75389 0.0
H869 H 0.43215 0.54869 0.67188 0.0
H870 H 0.49382 0.52029 0.70957 0.0
H871 H 0.46102 0.55928 0.62857 0.0
H872 H 0.46467 0.48115 0.80193 0.0
H873 H 0.42213 0.44346 0.74653 0.0
H874 H 0.48627 0.45408 0.8108 0.0
H875 H 0.44458 0.41706 0.75603 0.0
H876 H 0.454 0.48066 0.95169 0.0
H877 H 0.48041 0.53112 0.8956 0.0
H878 H 0.44968 0.51223 0.54274 0.0
H879 H 0.4869 0.47553 0.62453 0.0
Li880 Li 0.75314 0.17927 0.95558 0.0
Li881 Li 0.74374 0.18026 0.04261 0.0
Li882 Li 0.76472 0.1553 0.01328 0.0
Li883 Li 0.73186 0.15504 0.98934 0.0
C884 C 0.78755 0.18652 0.00053 0.0
N885 N 0.82423 0.19373 0.97272 0.0
C886 C 0.79858 0.19891 0.02834 0.0
C887 C 0.79515 0.1778 0.95852 0.0
C888 C 0.8171 0.20238 0.01367 0.0
C889 C 0.81373 0.18163 0.94511 0.0
C890 C 0.71197 0.19298 0.98936 0.0
C891 C 0.67965 0.19629 0.01503 0.0
N892 N 0.68012 0.21473 0.00169 0.0
C893 C 0.71204 0.21188 0.97515 0.0
C894 C 0.69558 0.18504 0.0088 0.0
C895 C 0.69584 0.22267 0.982 0.0
C896 C 0.7528 0.18946 0.85411 0.0
N897 N 0.75702 0.19538 0.90079 0.0
C898 C 0.76105 0.22694 0.87248 0.0
C899 C 0.76138 0.21361 0.91052 0.0
C900 C 0.75623 0.22139 0.82401 0.0
C901 C 0.75238 0.20231 0.81485 0.0
H902 H 0.74899 0.17493 0.84782 0.0
H903 H 0.76416 0.21796 0.94835 0.0
C904 C 0.74268 0.19169 0.14345 0.0
N905 N 0.74068 0.19756 0.09565 0.0
C906 C 0.74436 0.20482 0.18182 0.0
C907 C 0.74162 0.22972 0.12113 0.0
C908 C 0.74005 0.21613 0.08397 0.0
C909 C 0.74433 0.22411 0.17062 0.0
H910 H 0.74398 0.17686 0.15154 0.0
H911 H 0.73934 0.22042 0.04553 0.0
C912 C 0.75558 0.13303 0.93102 0.0
N913 N 0.75759 0.09578 0.90243 0.0
C914 C 0.75288 0.11875 0.96594 0.0
C915 C 0.75931 0.12838 0.88157 0.0
C916 C 0.75394 0.1 0.95076 0.0
C917 C 0.76028 0.10946 0.86784 0.0
C918 C 0.73112 0.14451 0.09099 0.0
C919 C 0.73566 0.12671 0.10942 0.0
C920 C 0.71487 0.15357 0.10763 0.0
C921 C 0.72363 0.11809 0.14352 0.0
C922 C 0.7032 0.14449 0.14178 0.0
N923 N 0.70777 0.12707 0.15882 0.0
C924 C 0.78698 0.13943 0.08583 0.0
C925 C 0.79679 0.13054 0.00497 0.0
C926 C 0.80055 0.12786 0.10733 0.0
N927 N 0.78517 0.14033 0.03563 0.0
C928 C 0.81058 0.11872 0.02496 0.0
C929 C 0.81235 0.11708 0.07683 0.0
H930 H 0.77755 0.14743 0.10921 0.0
H931 H 0.79515 0.13164 0.96513 0.0
C932 C 0.70364 0.14462 0.92439 0.0
N933 N 0.71133 0.13962 0.96869 0.0
C934 C 0.6903 0.1331 0.90152 0.0
C935 C 0.6926 0.11172 0.97103 0.0
C936 C 0.70595 0.12364 0.99251 0.0
C937 C 0.68494 0.11619 0.92435 0.0
H938 H 0.70841 0.15726 0.90595 0.0
H939 H 0.71246 0.11972 0.02718 0.0
O940 O 0.76941 0.18302 0.01461 0.0
O941 O 0.72765 0.18216 0.98236 0.0
O942 O 0.75438 0.15151 0.94477 0.0
O943 O 0.74277 0.15311 0.05755 0.0
H944 H 0.79286 0.20578 0.06092 0.0
H945 H 0.78684 0.1682 0.93645 0.0
H946 H 0.8258 0.21194 0.03485 0.0
H947 H 0.8198 0.17497 0.91273 0.0
H948 H 0.6669 0.19034 0.03025 0.0
H949 H 0.7245 0.21816 0.95918 0.0
H950 H 0.69507 0.1703 0.01858 0.0
H951 H 0.69574 0.23736 0.97155 0.0
H952 H 0.76363 0.24155 0.88142 0.0
H953 H 0.74859 0.1975 0.778 0.0
H954 H 0.74661 0.19995 0.21949 0.0
H955 H 0.74129 0.24446 0.11106 0.0
H956 H 0.74997 0.12208 0.00431 0.0
H957 H 0.76142 0.13929 0.85407 0.0
H958 H 0.75186 0.08881 0.97741 0.0
H959 H 0.76316 0.10565 0.82967 0.0
H960 H 0.7483 0.11958 0.09731 0.0
H961 H 0.71144 0.16755 0.09486 0.0
H962 H 0.7269 0.10426 0.15785 0.0
H963 H 0.69056 0.15132 0.15492 0.0
H964 H 0.80144 0.12694 0.14744 0.0
H965 H 0.81966 0.11087 0.00022 0.0
H966 H 0.68481 0.137 0.86543 0.0
H967 H 0.68859 0.09896 0.99025 0.0
Li968 Li 0.09404 0.51486 0.26288 0.0
Li969 Li 0.09546 0.48219 0.23748 0.0
Li970 Li 0.07035 0.50158 0.205 0.0
Li971 Li 0.07102 0.49294 0.29104 0.0
C972 C 0.10147 0.51857 0.16064 0.0
N973 N 0.10867 0.54674 0.09262 0.0
C974 C 0.11517 0.51602 0.12408 0.0
C975 C 0.09139 0.53543 0.16259 0.0
C976 C 0.11862 0.53044 0.09004 0.0
C977 C 0.09525 0.5495 0.12786 0.0
C978 C 0.11669 0.49204 0.32011 0.0
C979 C 0.14034 0.48768 0.38332 0.0
N980 N 0.15392 0.4919 0.34955 0.0
C981 C 0.13089 0.49636 0.28602 0.0
C982 C 0.12144 0.4877 0.36916 0.0
C983 C 0.14962 0.4962 0.30163 0.0
C984 C 0.1044 0.54102 0.33305 0.0
N985 N 0.10845 0.53575 0.28573 0.0
C986 C 0.13478 0.55664 0.28371 0.0
C987 C 0.12322 0.54333 0.26062 0.0
C988 C 0.1312 0.56193 0.33313 0.0
C989 C 0.11553 0.55426 0.35744 0.0
H990 H 0.0929 0.53436 0.35254 0.0
H991 H 0.12654 0.53849 0.22359 0.0
C992 C 0.1081 0.45827 0.16593 0.0
N993 N 0.11099 0.46219 0.21472 0.0
C994 C 0.11917 0.44498 0.14164 0.0
C995 C 0.13586 0.43962 0.21857 0.0
C996 C 0.12422 0.45287 0.24169 0.0
C997 C 0.13366 0.43587 0.16756 0.0
H998 H 0.09732 0.46575 0.14567 0.0
H999 H 0.12604 0.45596 0.28071 0.0
C1000 C 0.04971 0.52398 0.28164 0.0
N1001 N 0.01575 0.53444 0.32312 0.0
C1002 C 0.03306 0.51524 0.26649 0.0
C1003 C 0.04907 0.53813 0.31765 0.0
C1004 C 0.01604 0.5207 0.28797 0.0
C1005 C 0.03176 0.5432 0.33821 0.0
C1006 C 0.06538 0.45792 0.24805 0.0
C1007 C 0.0532 0.44638 0.22105 0.0
C1008 C 0.07462 0.45076 0.28983 0.0
C1009 C 0.05041 0.42782 0.23637 0.0
C1010 C 0.07146 0.43212 0.30393 0.0
N1011 N 0.05952 0.42114 0.27715 0.0
C1012 C 0.05516 0.48942 0.11671 0.0
C1013 C 0.04302 0.51907 0.14132 0.0
C1014 C 0.04265 0.4886 0.0769 0.0
N1015 N 0.0549 0.50433 0.14827 0.0
C1016 C 0.0301 0.51873 0.10213 0.0
C1017 C 0.02964 0.50316 0.07 0.0
H1018 H 0.06469 0.47786 0.12355 0.0
H1019 H 0.04315 0.53074 0.16706 0.0
C1020 C 0.05937 0.49843 0.38829 0.0
N1021 N 0.05498 0.4888 0.34627 0.0
C1022 C 0.0462 0.50016 0.42639 0.0
C1023 C 0.02466 0.48107 0.37845 0.0
C1024 C 0.03824 0.47975 0.34113 0.0
C1025 C 0.02838 0.49194 0.42089 0.0
H1026 H 0.07267 0.50574 0.39081 0.0
H1027 H 0.03492 0.47264 0.30673 0.0
O1028 O 0.09802 0.5045 0.19406 0.0
O1029 O 0.09817 0.49256 0.30637 0.0
O1030 O 0.06657 0.51851 0.26188 0.0
O1031 O 0.06823 0.47609 0.23316 0.0
H1032 H 0.12307 0.50303 0.12211 0.0
H1033 H 0.08075 0.5377 0.19058 0.0
H1034 H 0.12921 0.52867 0.06157 0.0
H1035 H 0.08757 0.56262 0.12894 0.0
H1036 H 0.1442 0.48436 0.42119 0.0
H1037 H 0.12755 0.4998 0.24793 0.0
H1038 H 0.11059 0.48446 0.39606 0.0
H1039 H 0.16074 0.49951 0.27565 0.0
H1040 H 0.14683 0.56216 0.26389 0.0
H1041 H 0.11215 0.55817 0.39529 0.0
H1042 H 0.11651 0.44203 0.10279 0.0
H1043 H 0.14679 0.43279 0.24001 0.0
H1044 H 0.03333 0.50408 0.23918 0.0
H1045 H 0.06179 0.54511 0.32967 0.0
H1046 H 0.00307 0.51393 0.27691 0.0
H1047 H 0.03106 0.55408 0.36623 0.0
H1048 H 0.04597 0.45173 0.18857 0.0
H1049 H 0.08411 0.45943 0.31122 0.0
H1050 H 0.04101 0.41873 0.21583 0.0
H1051 H 0.0785 0.42639 0.33618 0.0
H1052 H 0.04266 0.47637 0.05289 0.0
H1053 H 0.02041 0.53034 0.09741 0.0
H1054 H 0.04965 0.5084 0.45899 0.0
H1055 H 0.01103 0.47461 0.37289 0.0
Li1056 Li 0.25699 0.17875 0.54518 0.0
Li1057 Li 0.23525 0.15381 0.51804 0.0
Li1058 Li 0.26862 0.15276 0.48976 0.0
Li1059 Li 0.24736 0.17622 0.45789 0.0
C1060 C 0.27269 0.1466 0.59151 0.0
N1061 N 0.30172 0.13741 0.65524 0.0
C1062 C 0.27044 0.13212 0.62607 0.0
C1063 C 0.28972 0.15639 0.58924 0.0
C1064 C 0.28528 0.1277 0.65802 0.0
C1065 C 0.30423 0.15153 0.62181 0.0
C1066 C 0.21416 0.188 0.52252 0.0
C1067 C 0.18329 0.19487 0.49033 0.0
N1068 N 0.17824 0.2019 0.53541 0.0
C1069 C 0.20875 0.19548 0.56837 0.0
C1070 C 0.20142 0.18785 0.48302 0.0
C1071 C 0.19049 0.20236 0.57421 0.0
C1072 C 0.25797 0.21468 0.58452 0.0
N1073 N 0.26019 0.19634 0.59736 0.0
C1074 C 0.25986 0.2043 0.6836 0.0
C1075 C 0.26127 0.19093 0.64573 0.0
C1076 C 0.25696 0.22328 0.67141 0.0
C1077 C 0.25647 0.22848 0.62113 0.0
H1078 H 0.25642 0.21846 0.54583 0.0
H1079 H 0.26229 0.1762 0.65509 0.0
C1080 C 0.21189 0.12162 0.52092 0.0
N1081 N 0.215 0.1388 0.5415 0.0
C1082 C 0.19857 0.10949 0.54161 0.0
C1083 C 0.19168 0.13309 0.60365 0.0
C1084 C 0.20525 0.14468 0.58209 0.0
C1085 C 0.18847 0.11513 0.58389 0.0
H1086 H 0.22015 0.11713 0.48934 0.0
H1087 H 0.20848 0.1581 0.59881 0.0
C1088 C 0.28231 0.18998 0.44874 0.0
N1089 N 0.29937 0.21013 0.37343 0.0
C1090 C 0.28738 0.18105 0.40445 0.0
C1091 C 0.28598 0.20915 0.45478 0.0
C1092 C 0.29599 0.19148 0.36682 0.0
C1093 C 0.29457 0.2191 0.41622 0.0
C1094 C 0.23706 0.14292 0.40812 0.0
C1095 C 0.24787 0.13531 0.3697 0.0
C1096 C 0.21759 0.14444 0.40258 0.0
C1097 C 0.23901 0.12967 0.32582 0.0
C1098 C 0.20926 0.13864 0.35814 0.0
N1099 N 0.22005 0.13146 0.32098 0.0
C1100 C 0.28357 0.11807 0.4628 0.0
C1101 C 0.30623 0.14254 0.46396 0.0
C1102 C 0.2967 0.10558 0.44297 0.0
N1103 N 0.28845 0.13621 0.47206 0.0
C1104 C 0.31977 0.13056 0.44355 0.0
C1105 C 0.31496 0.11189 0.43235 0.0
H1106 H 0.26925 0.11353 0.46914 0.0
H1107 H 0.30971 0.15705 0.47166 0.0
C1108 C 0.23909 0.21055 0.41387 0.0
N1109 N 0.24274 0.19229 0.40246 0.0
C1110 C 0.23994 0.22437 0.37712 0.0
C1111 C 0.24742 0.20022 0.31712 0.0
C1112 C 0.24641 0.18686 0.35499 0.0
C1113 C 0.24478 0.2193 0.32842 0.0
H1114 H 0.23671 0.21454 0.45214 0.0
H1115 H 0.24988 0.17244 0.34694 0.0
O1116 O 0.25831 0.15095 0.55979 0.0
O1117 O 0.23206 0.18142 0.51603 0.0
O1118 O 0.27352 0.18008 0.48562 0.0
O1119 O 0.2455 0.14837 0.45141 0.0
H1120 H 0.25735 0.12439 0.62815 0.0
H1121 H 0.29174 0.16763 0.56276 0.0
H1122 H 0.28373 0.11653 0.68499 0.0
H1123 H 0.31747 0.15899 0.62051 0.0
H1124 H 0.17326 0.19481 0.46011 0.0
H1125 H 0.21852 0.19586 0.5992 0.0
H1126 H 0.20554 0.18257 0.44695 0.0
H1127 H 0.18607 0.20809 0.60956 0.0
H1128 H 0.26014 0.19974 0.722 0.0
H1129 H 0.25446 0.24301 0.61026 0.0
H1130 H 0.19636 0.09575 0.52521 0.0
H1131 H 0.18428 0.13781 0.63654 0.0
H1132 H 0.28435 0.16629 0.39878 0.0
H1133 H 0.28221 0.21629 0.48882 0.0
H1134 H 0.29986 0.18478 0.33221 0.0
H1135 H 0.29743 0.23396 0.42031 0.0
H1136 H 0.26296 0.13394 0.37358 0.0
H1137 H 0.209 0.14988 0.43243 0.0
H1138 H 0.2472 0.12388 0.29562 0.0
H1139 H 0.19421 0.13978 0.35327 0.0
H1140 H 0.29242 0.09134 0.4342 0.0
H1141 H 0.33375 0.13587 0.43592 0.0
H1142 H 0.2379 0.23897 0.38723 0.0
H1143 H 0.25099 0.19577 0.27981 0.0
Li1144 Li 0.5705 0.50458 0.29743 0.0
Li1145 Li 0.59408 0.48296 0.26469 0.0
Li1146 Li 0.59453 0.51739 0.23951 0.0
Li1147 Li 0.57058 0.49608 0.20761 0.0
C1148 C 0.60469 0.5127 0.35033 0.0
N1149 N 0.61821 0.52657 0.43942 0.0
C1150 C 0.60835 0.5005 0.38987 0.0
C1151 C 0.60838 0.5319 0.35573 0.0
C1152 C 0.61503 0.50779 0.43473 0.0
C1153 C 0.61508 0.53865 0.40115 0.0
C1154 C 0.56218 0.46108 0.26991 0.0
C1155 C 0.56261 0.42968 0.23614 0.0
N1156 N 0.55447 0.42315 0.27848 0.0
C1157 C 0.55368 0.4541 0.31293 0.0
C1158 C 0.56657 0.44882 0.23106 0.0
C1159 C 0.54995 0.43486 0.31662 0.0
C1160 C 0.53771 0.51691 0.34771 0.0
N1161 N 0.55437 0.50775 0.35312 0.0
C1162 C 0.54556 0.49728 0.4342 0.0
C1163 C 0.55849 0.49807 0.39527 0.0
C1164 C 0.52816 0.50641 0.42945 0.0
C1165 C 0.52437 0.51651 0.38577 0.0
H1166 H 0.53441 0.52383 0.31306 0.0
H1167 H 0.57132 0.49003 0.39752 0.0
C1168 C 0.62588 0.45867 0.26196 0.0
N1169 N 0.60926 0.4623 0.28497 0.0
C1170 C 0.63798 0.44491 0.28086 0.0
C1171 C 0.61545 0.43871 0.34605 0.0
C1172 C 0.6039 0.45265 0.3262 0.0
C1173 C 0.63281 0.43482 0.3236 0.0
H1174 H 0.62999 0.46685 0.22987 0.0
H1175 H 0.59098 0.45632 0.34495 0.0
C1176 C 0.56121 0.53936 0.2453 0.0
N1177 N 0.54989 0.57616 0.25901 0.0
C1178 C 0.55078 0.54854 0.20856 0.0
C1179 C 0.56564 0.54881 0.28927 0.0
C1180 C 0.54527 0.56718 0.2161 0.0
C1181 C 0.55985 0.56743 0.29546 0.0
C1182 C 0.60155 0.48974 0.14978 0.0
C1183 C 0.60342 0.50383 0.11394 0.0
C1184 C 0.60334 0.4709 0.13585 0.0
C1185 C 0.60654 0.49881 0.06445 0.0
C1186 C 0.60649 0.46644 0.08598 0.0
N1187 N 0.60798 0.48037 0.05159 0.0
C1188 C 0.62889 0.537 0.23031 0.0
C1189 C 0.60318 0.55091 0.18802 0.0
C1190 C 0.64128 0.55003 0.20929 0.0
N1191 N 0.61027 0.53757 0.21896 0.0
C1192 C 0.61501 0.56427 0.16653 0.0
C1193 C 0.6344 0.56363 0.17606 0.0
H1194 H 0.63419 0.52599 0.25423 0.0
H1195 H 0.58848 0.55073 0.17821 0.0
C1196 C 0.54076 0.48031 0.14919 0.0
N1197 N 0.55462 0.49345 0.15154 0.0
C1198 C 0.52749 0.48093 0.11088 0.0
C1199 C 0.54312 0.50845 0.07818 0.0
C1200 C 0.55602 0.50732 0.11703 0.0
C1201 C 0.5285 0.49526 0.07506 0.0
H1202 H 0.5395 0.46984 0.17806 0.0
H1203 H 0.56664 0.51807 0.1211 0.0
O1204 O 0.59841 0.50576 0.30584 0.0
O1205 O 0.56621 0.47983 0.26597 0.0
O1206 O 0.56679 0.52113 0.23833 0.0
O1207 O 0.5985 0.49439 0.19844 0.0
H1208 H 0.60598 0.48556 0.38611 0.0
H1209 H 0.60623 0.5415 0.32509 0.0
H1210 H 0.61775 0.49852 0.46576 0.0
H1211 H 0.61788 0.55349 0.40589 0.0
H1212 H 0.56597 0.42003 0.20638 0.0
H1213 H 0.55009 0.46341 0.34326 0.0
H1214 H 0.57284 0.45406 0.19726 0.0
H1215 H 0.54347 0.42924 0.3498 0.0
H1216 H 0.54878 0.48883 0.46657 0.0
H1217 H 0.51104 0.5236 0.38059 0.0
H1218 H 0.65135 0.44237 0.26279 0.0
H1219 H 0.6112 0.43158 0.37979 0.0
H1220 H 0.54707 0.54139 0.17446 0.0
H1221 H 0.57316 0.54174 0.31865 0.0
H1222 H 0.53729 0.57449 0.18785 0.0
H1223 H 0.56319 0.5749 0.32935 0.0
H1224 H 0.60234 0.5185 0.12415 0.0
H1225 H 0.60248 0.45983 0.16328 0.0
H1226 H 0.60785 0.50958 0.03627 0.0
H1227 H 0.60782 0.45191 0.07465 0.0
H1228 H 0.65616 0.54903 0.21747 0.0
H1229 H 0.60908 0.57474 0.14191 0.0
H1230 H 0.5163 0.47059 0.10987 0.0
H1231 H 0.54406 0.52004 0.05219 0.0
Li1232 Li 0.24527 0.82071 0.03994 0.0
Li1233 Li 0.26625 0.84501 0.0103 0.0
Li1234 Li 0.23266 0.84511 0.98232 0.0
Li1235 Li 0.25521 0.82173 0.94986 0.0
C1236 C 0.23065 0.8525 0.0885 0.0
N1237 N 0.2056 0.86089 0.16377 0.0
C1238 C 0.23704 0.86067 0.13262 0.0
C1239 C 0.21149 0.84883 0.08243 0.0
C1240 C 0.22417 0.86474 0.17032 0.0
C1241 C 0.19906 0.85311 0.12095 0.0
C1242 C 0.28902 0.8151 0.02153 0.0
C1243 C 0.32152 0.81324 0.99662 0.0
N1244 N 0.32661 0.81106 0.04501 0.0
C1245 C 0.29453 0.81259 0.07093 0.0
C1246 C 0.30257 0.81521 0.98397 0.0
C1247 C 0.31362 0.81068 0.08208 0.0
C1248 C 0.23771 0.78546 0.08128 0.0
N1249 N 0.2415 0.80365 0.09306 0.0
C1250 C 0.2459 0.79552 0.17837 0.0
C1251 C 0.24546 0.80892 0.14047 0.0
C1252 C 0.24236 0.77656 0.16719 0.0
C1253 C 0.23797 0.77161 0.11803 0.0
H1254 H 0.23529 0.78158 0.04294 0.0
H1255 H 0.24918 0.82332 0.14847 0.0
C1256 C 0.2958 0.8727 0.00485 0.0
N1257 N 0.28636 0.86027 0.034 0.0
C1258 C 0.30957 0.88438 0.02556 0.0
C1259 C 0.30368 0.87011 0.10554 0.0
C1260 C 0.29 0.85883 0.08342 0.0
C1261 C 0.31361 0.88318 0.07663 0.0
H1262 H 0.29233 0.8739 0.96589 0.0
H1263 H 0.28204 0.84905 0.10585 0.0
C1264 C 0.21357 0.80799 0.97185 0.0
N1265 N 0.1805 0.78829 0.95747 0.0
C1266 C 0.20905 0.80093 0.92485 0.0
C1267 C 0.20136 0.8048 0.01168 0.0
C1268 C 0.19224 0.79109 0.91828 0.0
C1269 C 0.18469 0.79487 0.00362 0.0
C1270 C 0.26157 0.85448 0.89628 0.0
C1271 C 0.24879 0.86246 0.8629 0.0
C1272 C 0.28016 0.85145 0.88153 0.0
C1273 C 0.2548 0.86705 0.81499 0.0
C1274 C 0.28561 0.85621 0.83329 0.0
N1275 N 0.27292 0.86384 0.80129 0.0
C1276 C 0.2117 0.87877 0.97461 0.0
C1277 C 0.1997 0.85331 0.92746 0.0
C1278 C 0.19843 0.89095 0.9537 0.0
N1279 N 0.2122 0.8604 0.96078 0.0
C1280 C 0.18617 0.86493 0.90587 0.0
C1281 C 0.18572 0.88412 0.91801 0.0
H1282 H 0.22202 0.8841 0.00058 0.0
H1283 H 0.20063 0.8388 0.91617 0.0
C1284 C 0.26575 0.788 0.90464 0.0
N1285 N 0.25942 0.80563 0.89459 0.0
C1286 C 0.26561 0.7742 0.86769 0.0
C1287 C 0.25309 0.79716 0.8103 0.0
C1288 C 0.25329 0.81045 0.84844 0.0
C1289 C 0.25896 0.77869 0.82004 0.0
H1290 H 0.27004 0.78443 0.94203 0.0
H1291 H 0.24746 0.82422 0.84187 0.0
O1292 O 0.24311 0.84843 0.0513 0.0
O1293 O 0.27043 0.81721 0.00994 0.0
O1294 O 0.23012 0.81745 0.97904 0.0
O1295 O 0.25591 0.84984 0.94324 0.0
H1296 H 0.25181 0.86376 0.13779 0.0
H1297 H 0.20624 0.84285 0.04825 0.0
H1298 H 0.22894 0.87097 0.20476 0.0
H1299 H 0.18419 0.8503 0.11676 0.0
H1300 H 0.33217 0.81339 0.96795 0.0
H1301 H 0.28418 0.81229 0.10038 0.0
H1302 H 0.29848 0.81671 0.94547 0.0
H1303 H 0.3181 0.80889 0.12019 0.0
H1304 H 0.24944 0.79986 0.21581 0.0
H1305 H 0.23564 0.75708 0.10766 0.0
H1306 H 0.31655 0.89461 0.00218 0.0
H1307 H 0.30635 0.86874 0.145 0.0
H1308 H 0.21834 0.80316 0.89365 0.0
H1309 H 0.20479 0.80972 0.0486 0.0
H1310 H 0.18853 0.78566 0.88203 0.0
H1311 H 0.17512 0.79232 0.03412 0.0
H1312 H 0.23438 0.86501 0.87376 0.0
H1313 H 0.29026 0.84549 0.90706 0.0
H1314 H 0.24504 0.87316 0.7887 0.0
H1315 H 0.29994 0.85388 0.82132 0.0
H1316 H 0.19856 0.90568 0.96397 0.0
H1317 H 0.17639 0.85902 0.87928 0.0
H1318 H 0.27015 0.76006 0.87655 0.0
H1319 H 0.24743 0.80101 0.77435 0.0
Li1320 Li 0.92899 0.49752 0.78599 0.0
Li1321 Li 0.90454 0.51811 0.75971 0.0
Li1322 Li 0.90408 0.48294 0.73837 0.0
Li1323 Li 0.92802 0.50482 0.70083 0.0
C1324 C 0.90058 0.49121 0.85221 0.0
N1325 N 0.89829 0.48202 0.95168 0.0
C1326 C 0.90442 0.50477 0.8884 0.0
C1327 C 0.89538 0.47305 0.86647 0.0
C1328 C 0.90326 0.49981 0.93855 0.0
C1329 C 0.89434 0.46867 0.91701 0.0
C1330 C 0.93488 0.54075 0.73982 0.0
C1331 C 0.9303 0.56496 0.67823 0.0
N1332 N 0.94026 0.57717 0.7069 0.0
C1333 C 0.94509 0.55353 0.76863 0.0
C1334 C 0.92743 0.5465 0.69426 0.0
C1335 C 0.94764 0.57188 0.75137 0.0
C1336 C 0.96201 0.50658 0.83432 0.0
N1337 N 0.94713 0.49468 0.83842 0.0
C1338 C 0.95907 0.48285 0.91541 0.0
C1339 C 0.94572 0.4825 0.87725 0.0
C1340 C 0.97411 0.4956 0.91288 0.0
C1341 C 0.97574 0.50726 0.87121 0.0
H1342 H 0.96317 0.51574 0.80246 0.0
H1343 H 0.93423 0.47263 0.87897 0.0
C1344 C 0.87057 0.53889 0.76531 0.0
N1345 N 0.8889 0.53835 0.77957 0.0
C1346 C 0.85847 0.55242 0.7852 0.0
C1347 C 0.88439 0.56466 0.83352 0.0
C1348 C 0.89596 0.55089 0.81282 0.0
C1349 C 0.86534 0.56543 0.82006 0.0
H1350 H 0.86524 0.52844 0.73971 0.0
H1351 H 0.91042 0.54973 0.82479 0.0
C1352 C 0.94509 0.46838 0.74884 0.0
N1353 N 0.97304 0.44663 0.79084 0.0
C1354 C 0.96398 0.47267 0.74019 0.0
C1355 C 0.94038 0.45299 0.77862 0.0
C1356 C 0.97791 0.46152 0.76185 0.0
C1357 C 0.95473 0.44216 0.79954 0.0
C1358 C 0.89136 0.5075 0.6499 0.0
C1359 C 0.88902 0.49189 0.61896 0.0
C1360 C 0.88427 0.52496 0.63514 0.0
C1361 C 0.87991 0.49406 0.57334 0.0
C1362 C 0.87524 0.52657 0.58922 0.0
N1363 N 0.87328 0.51122 0.55951 0.0
C1364 C 0.86907 0.4658 0.72411 0.0
C1365 C 0.89511 0.44683 0.70138 0.0
C1366 C 0.8566 0.45274 0.70376 0.0
N1367 N 0.8879 0.46274 0.72191 0.0
C1368 C 0.88313 0.43335 0.68072 0.0
C1369 C 0.86362 0.43641 0.68101 0.0
H1370 H 0.86381 0.47881 0.73968 0.0
H1371 H 0.91018 0.44505 0.69881 0.0
C1372 C 0.96002 0.51692 0.64733 0.0
N1373 N 0.94348 0.50742 0.64348 0.0
C1374 C 0.97326 0.516 0.60912 0.0
C1375 C 0.95219 0.49565 0.56356 0.0
C1376 C 0.93937 0.49696 0.60264 0.0
C1377 C 0.96951 0.50503 0.56688 0.0
H1378 H 0.96339 0.52438 0.68116 0.0
H1379 H 0.92659 0.48881 0.60145 0.0
O1380 O 0.90157 0.49574 0.80299 0.0
O1381 O 0.93205 0.52283 0.75685 0.0
O1382 O 0.93127 0.47942 0.7291 0.0
O1383 O 0.89988 0.50559 0.69525 0.0
H1384 H 0.90844 0.51888 0.87787 0.0
H1385 H 0.89229 0.46244 0.83877 0.0
H1386 H 0.90634 0.51011 0.96702 0.0
H1387 H 0.89042 0.45465 0.92866 0.0
H1388 H 0.92464 0.56956 0.64297 0.0
H1389 H 0.95086 0.54936 0.80419 0.0
H1390 H 0.9197 0.5368 0.67124 0.0
H1391 H 0.95547 0.58193 0.77338 0.0
H1392 H 0.95765 0.47331 0.94656 0.0
H1393 H 0.98725 0.51716 0.86781 0.0
H1394 H 0.84382 0.55253 0.77412 0.0
H1395 H 0.89011 0.57411 0.86123 0.0
H1396 H 0.96782 0.48461 0.71742 0.0
H1397 H 0.92581 0.44962 0.78603 0.0
H1398 H 0.99259 0.46473 0.75573 0.0
H1399 H 0.95132 0.43027 0.8229 0.0
H1400 H 0.89432 0.47825 0.62981 0.0
H1401 H 0.88565 0.53715 0.65894 0.0
H1402 H 0.8781 0.48211 0.54894 0.0
H1403 H 0.86975 0.54001 0.57726 0.0
H1404 H 0.84164 0.45558 0.70467 0.0
H1405 H 0.88911 0.42114 0.6626 0.0
H1406 H 0.98667 0.523 0.61375 0.0
H1407 H 0.94886 0.48693 0.53174 0.0
C1408 C 0.23805 0.26221 0.24639 0.0
C1409 C 0.25479 0.2627 0.21847 0.0
C1410 C 0.23488 0.24813 0.28188 0.0
C1411 C 0.24828 0.23397 0.29046 0.0
H1412 H 0.22714 0.27257 0.24007 0.0
H1413 H 0.22174 0.24816 0.30222 0.0
S1414 S 0.29512 0.22997 0.23079 0.0
N1415 N 0.28543 0.24854 0.20434 0.0
N1416 N 0.2794 0.22199 0.27068 0.0
C1417 C 0.26521 0.23451 0.26356 0.0
C1418 C 0.26848 0.24888 0.22764 0.0
C1419 C 0.98203 0.99324 0.49844 0.0
C1420 C 0.9844 0.00746 0.46265 0.0
C1421 C 0.99569 0.99001 0.53506 0.0
C1422 C 0.01221 0.00086 0.53716 0.0
H1423 H 0.96975 0.98424 0.49737 0.0
H1424 H 0.99346 0.9787 0.56136 0.0
S1425 S 0.02411 0.04112 0.45529 0.0
N1426 N 0.00383 0.03331 0.43363 0.0
N1427 N 0.02943 0.02737 0.50267 0.0
C1428 C 0.01448 0.01547 0.50242 0.0
C1429 C 0.0006 0.01874 0.46513 0.0
C1430 C 0.24314 0.73374 0.7564 0.0
C1431 C 0.2497 0.73608 0.70747 0.0
C1432 C 0.24658 0.7474 0.79289 0.0
C1433 C 0.25669 0.76388 0.78174 0.0
H1434 H 0.23498 0.72145 0.7663 0.0
H1435 H 0.24089 0.74527 0.82979 0.0
S1436 S 0.27863 0.77579 0.66092 0.0
N1437 N 0.26809 0.75545 0.65097 0.0
N1438 N 0.27428 0.7812 0.71947 0.0
C1439 C 0.26373 0.76617 0.7334 0.0
C1440 C 0.26031 0.75225 0.69631 0.0
C1441 C 0.48348 0.00537 0.9841 0.0
C1442 C 0.4875 0.00476 0.03524 0.0
C1443 C 0.49762 0.0025 0.94863 0.0
C1444 C 0.5163 0.99886 0.96299 0.0
H1445 H 0.46931 0.00824 0.9714 0.0
H1446 H 0.49395 0.00339 0.90963 0.0
S1447 S 0.53385 0.99426 0.09216 0.0
N1448 N 0.5113 0.9992 0.09847 0.0
N1449 N 0.53788 0.99389 0.03174 0.0
C1450 C 0.52047 0.99799 0.01398 0.0
C1451 C 0.50608 0.00091 0.0501 0.0
C1452 C 0.26083 0.76163 0.23578 0.0
C1453 C 0.24458 0.76188 0.20592 0.0
C1454 C 0.26349 0.74776 0.27207 0.0
C1455 C 0.25003 0.73357 0.27975 0.0
H1456 H 0.2717 0.77213 0.23068 0.0
H1457 H 0.27624 0.74807 0.29411 0.0
S1458 S 0.20447 0.7287 0.2138 0.0
N1459 N 0.21447 0.74722 0.18792 0.0
N1460 N 0.21946 0.72112 0.25618 0.0
C1461 C 0.23366 0.73372 0.25042 0.0
C1462 C 0.23094 0.74787 0.21349 0.0
C1463 C 0.49057 0.98431 0.49133 0.0
C1464 C 0.4854 0.99901 0.45927 0.0
C1465 C 0.50339 0.98732 0.53011 0.0
C1466 C 0.51143 0.00516 0.53836 0.0
H1467 H 0.48493 0.97031 0.48584 0.0
H1468 H 0.50728 0.9755 0.55332 0.0
S1469 S 0.501 0.04869 0.46778 0.0
N1470 N 0.48828 0.03231 0.4402 0.0
N1471 N 0.51235 0.03795 0.51318 0.0
C1472 C 0.50605 0.02006 0.50719 0.0
C1473 C 0.49302 0.01699 0.46768 0.0
C1474 C 0.26593 0.23844 0.75194 0.0
C1475 C 0.25368 0.23741 0.71103 0.0
C1476 C 0.26291 0.25144 0.79023 0.0
C1477 C 0.24751 0.26387 0.78911 0.0
H1478 H 0.27803 0.22922 0.75415 0.0
H1479 H 0.27284 0.2519 0.82076 0.0
S1480 S 0.21052 0.26585 0.69218 0.0
N1481 N 0.22502 0.24925 0.67289 0.0
N1482 N 0.21942 0.27375 0.74489 0.0
C1483 C 0.23506 0.26288 0.74866 0.0
C1484 C 0.23812 0.24963 0.70965 0.0
C1485 C 0.0069 0.98694 0.97574 0.0
C1486 C 0.01321 0.00505 0.96267 0.0
C1487 C 0.99261 0.9844 0.01093 0.0
C1488 C 0.98401 0.99986 0.03409 0.0
H1489 H 0.01292 0.97462 0.95826 0.0
H1490 H 0.98816 0.97022 0.01982 0.0
S1491 S 0.99619 0.05009 0.0156 0.0
N1492 N 0.01032 0.03865 0.97744 0.0
N1493 N 0.98333 0.03386 0.04334 0.0
C1494 C 0.99022 0.01804 0.02165 0.0
C1495 C 0.00484 0.02063 0.98597 0.0
C1496 C 0.75114 0.75407 0.80159 0.0
C1497 C 0.74381 0.73637 0.78852 0.0
C1498 C 0.75441 0.76791 0.7655 0.0
C1499 C 0.75048 0.76451 0.71508 0.0
H1500 H 0.7548 0.7571 0.83984 0.0
H1501 H 0.76036 0.78124 0.77701 0.0
S1502 S 0.72925 0.72119 0.66248 0.0
N1503 N 0.73152 0.71665 0.72235 0.0
N1504 N 0.7375 0.74268 0.65451 0.0
C1505 C 0.74266 0.74705 0.70176 0.0
C1506 C 0.73938 0.73297 0.73847 0.0
C1507 C 0.74166 0.25051 0.2932 0.0
C1508 C 0.75497 0.26497 0.28705 0.0
C1509 C 0.73827 0.23737 0.2554 0.0
C1510 C 0.74805 0.23823 0.21005 0.0
H1511 H 0.73356 0.24954 0.32718 0.0
H1512 H 0.72774 0.22661 0.26145 0.0
S1513 S 0.78555 0.27235 0.17727 0.0
N1514 N 0.77871 0.27875 0.23341 0.0
N1515 N 0.77249 0.25399 0.16244 0.0
C1516 C 0.76166 0.25242 0.20383 0.0
C1517 C 0.76507 0.2658 0.24228 0.0
C1518 C 0.73745 0.23553 0.75467 0.0
C1519 C 0.75381 0.23565 0.78418 0.0
C1520 C 0.73431 0.24938 0.71855 0.0
C1521 C 0.74735 0.26394 0.7109 0.0
H1522 H 0.72679 0.22485 0.7602 0.0
H1523 H 0.72145 0.24888 0.69698 0.0
S1524 S 0.79322 0.26965 0.77469 0.0
N1525 N 0.7838 0.25085 0.80073 0.0
N1526 N 0.77778 0.27699 0.73316 0.0
C1527 C 0.76393 0.26403 0.73934 0.0
C1528 C 0.76718 0.24988 0.77591 0.0
C1529 C 0.7451 0.75233 0.20563 0.0
C1530 C 0.75659 0.73657 0.21441 0.0
C1531 C 0.74191 0.76575 0.24287 0.0
C1532 C 0.75013 0.76389 0.29016 0.0
H1533 H 0.73815 0.75406 0.17009 0.0
H1534 H 0.73266 0.77747 0.23489 0.0
S1535 S 0.78301 0.72625 0.3299 0.0
N1536 N 0.7772 0.72051 0.27246 0.0
N1537 N 0.77149 0.74585 0.34229 0.0
C1538 C 0.76211 0.74848 0.29884 0.0
C1539 C 0.76526 0.73479 0.26102 0.0
C1540 C 0.49459 0.49713 0.0507 0.0
C1541 C 0.51366 0.49733 0.03673 0.0
C1542 C 0.48031 0.49997 0.01558 0.0
C1543 C 0.48459 0.50318 0.96528 0.0
H1544 H 0.49068 0.4951 0.08923 0.0
H1545 H 0.46582 0.49984 0.02796 0.0
S1546 S 0.53218 0.50337 0.90894 0.0
N1547 N 0.536 0.49988 0.96876 0.0
N1548 N 0.50915 0.50522 0.90272 0.0
C1549 C 0.50357 0.5031 0.95069 0.0
C1550 C 0.5181 0.50018 0.98641 0.0
C1551 C 0.00303 0.48059 0.47801 0.0
C1552 C 0.01335 0.49559 0.45778 0.0
C1553 C 0.98872 0.4838 0.51281 0.0
C1554 C 0.98416 0.50215 0.52841 0.0
H1555 H 0.00622 0.46624 0.4674 0.0
H1556 H 0.98141 0.4718 0.52831 0.0
S1557 S 0.00574 0.54633 0.48269 0.0
N1558 N 0.01724 0.52951 0.45328 0.0
N1559 N 0.99029 0.53555 0.51852 0.0
C1560 C 0.9941 0.51729 0.5076 0.0
C1561 C 0.0087 0.51401 0.47231 0.0
C1562 C 0.02073 0.49795 0.98117 0.0
C1563 C 0.01526 0.50162 0.03043 0.0
C1564 C 0.00733 0.4959 0.94336 0.0
C1565 C 0.98798 0.49713 0.95371 0.0
H1566 H 0.0355 0.49679 0.97176 0.0
H1567 H 0.01211 0.49323 0.9058 0.0
S1568 S 0.96638 0.50622 0.07672 0.0
N1569 N 0.98923 0.50617 0.08767 0.0
N1570 N 0.96401 0.50229 0.01656 0.0
C1571 C 0.98232 0.50064 0.00284 0.0
C1572 C 0.99597 0.50294 0.04121 0.0
C1573 C 0.48127 0.49546 0.4904 0.0
C1574 C 0.48519 0.49762 0.54127 0.0
C1575 C 0.49518 0.49861 0.45447 0.0
C1576 C 0.51348 0.50411 0.46813 0.0
H1577 H 0.46742 0.49104 0.47834 0.0
H1578 H 0.49167 0.49636 0.41575 0.0
S1579 S 0.53031 0.51356 0.59617 0.0
N1580 N 0.50826 0.50682 0.60336 0.0
N1581 N 0.53441 0.51276 0.5358 0.0
C1582 C 0.51745 0.50673 0.51882 0.0
C1583 C 0.5033 0.50349 0.55538 0.0
C1584 C 0.15135 0.40536 0.16216 0.0
C1585 C 0.14667 0.42287 0.14118 0.0
C1586 C 0.16374 0.39301 0.13808 0.0
C1587 C 0.17201 0.39773 0.09221 0.0
H1588 H 0.14534 0.40114 0.19742 0.0
H1589 H 0.16719 0.37984 0.15609 0.0
S1590 S 0.16428 0.44177 0.02125 0.0
N1591 N 0.15147 0.44435 0.07192 0.0
N1592 N 0.17419 0.42086 0.02601 0.0
C1593 C 0.16728 0.41508 0.07054 0.0
C1594 C 0.15475 0.42769 0.09512 0.0
C1595 C 0.84362 0.89489 0.38968 0.0
C1596 C 0.82517 0.90034 0.40192 0.0
C1597 C 0.85579 0.90716 0.36453 0.0
C1598 C 0.84987 0.92524 0.35014 0.0
H1599 H 0.84872 0.88108 0.39997 0.0
H1600 H 0.86988 0.9024 0.35591 0.0
S1601 S 0.80291 0.94623 0.373 0.0
N1602 N 0.8015 0.92494 0.39709 0.0
N1603 N 0.82444 0.94808 0.35068 0.0
C1604 C 0.83146 0.93084 0.3621 0.0
C1605 C 0.81911 0.91839 0.38783 0.0
C1606 C 0.34389 0.60385 0.59784 0.0
C1607 C 0.32457 0.59974 0.59518 0.0
C1608 C 0.35639 0.5918 0.62262 0.0
C1609 C 0.34996 0.57539 0.64634 0.0
H1610 H 0.34941 0.61638 0.58016 0.0
H1611 H 0.37119 0.59541 0.62352 0.0
S1612 S 0.30066 0.55847 0.65095 0.0
N1613 N 0.29956 0.57826 0.61904 0.0
N1614 N 0.32305 0.55559 0.66535 0.0
C1615 C 0.33066 0.5712 0.64427 0.0
C1616 C 0.31797 0.58336 0.61871 0.0
C1617 C 0.65533 0.10956 0.87661 0.0
C1618 C 0.67211 0.10296 0.89824 0.0
C1619 C 0.64335 0.09741 0.85036 0.0
C1620 C 0.64782 0.07828 0.84425 0.0
H1621 H 0.65141 0.12421 0.88015 0.0
H1622 H 0.63061 0.10309 0.83416 0.0
S1623 S 0.68999 0.05397 0.89392 0.0
N1624 N 0.6926 0.07605 0.91154 0.0
N1625 N 0.66992 0.0532 0.86317 0.0
C1626 C 0.66448 0.07149 0.86597 0.0
C1627 C 0.67665 0.08382 0.89277 0.0
C1628 C 0.1496 0.59196 0.33824 0.0
C1629 C 0.14418 0.5748 0.35987 0.0
C1630 C 0.16201 0.6042 0.36271 0.0
C1631 C 0.16962 0.59963 0.40949 0.0
H1632 H 0.14415 0.59599 0.30218 0.0
H1633 H 0.16598 0.61716 0.34437 0.0
S1634 S 0.15996 0.55635 0.48197 0.0
N1635 N 0.14751 0.55378 0.43061 0.0
N1636 N 0.17058 0.5769 0.47685 0.0
C1637 C 0.16424 0.58256 0.43161 0.0
C1638 C 0.15158 0.57013 0.40679 0.0
C1639 C 0.66361 0.92157 0.65589 0.0
C1640 C 0.64462 0.92219 0.64141 0.0
C1641 C 0.6764 0.90955 0.63226 0.0
C1642 C 0.67069 0.8976 0.59339 0.0
H1643 H 0.66876 0.93081 0.68489 0.0
H1644 H 0.6909 0.90963 0.64458 0.0
S1645 S 0.62236 0.89328 0.5428 0.0
N1646 N 0.62055 0.90927 0.58705 0.0
N1647 N 0.64468 0.88689 0.54202 0.0
C1648 C 0.65167 0.89779 0.57916 0.0
C1649 C 0.63863 0.91006 0.60322 0.0
C1650 C 0.3562 0.40567 0.86487 0.0
C1651 C 0.35014 0.42376 0.85098 0.0
C1652 C 0.34422 0.39331 0.8903 0.0
C1653 C 0.32584 0.39868 0.90336 0.0
H1654 H 0.37028 0.40101 0.85577 0.0
H1655 H 0.34944 0.37951 0.90028 0.0
S1656 S 0.30319 0.44449 0.87564 0.0
N1657 N 0.3246 0.44647 0.85252 0.0
N1658 N 0.30201 0.42315 0.89962 0.0
C1659 C 0.3196 0.41671 0.88961 0.0
C1660 C 0.33175 0.42925 0.86353 0.0
C1661 C 0.83784 0.10969 0.13827 0.0
C1662 C 0.8259 0.10372 0.0996 0.0
C1663 C 0.84992 0.09705 0.16241 0.0
C1664 C 0.85031 0.07792 0.14921 0.0
H1665 H 0.83777 0.12426 0.15009 0.0
H1666 H 0.85873 0.10219 0.19231 0.0
S1667 S 0.8222 0.05525 0.04964 0.0
N1668 N 0.81542 0.07745 0.04886 0.0
N1669 N 0.83827 0.05375 0.09374 0.0
C1670 C 0.83866 0.07183 0.11011 0.0
C1671 C 0.82645 0.08471 0.08538 0.0
C1672 C 0.82353 0.5848 0.89132 0.0
C1673 C 0.82766 0.60409 0.89519 0.0
C1674 C 0.83566 0.57248 0.86632 0.0
C1675 C 0.85246 0.57895 0.84469 0.0
H1676 H 0.81067 0.57924 0.9071 0.0
H1677 H 0.83197 0.55772 0.86447 0.0
S1678 S 0.86985 0.62812 0.84491 0.0
N1679 N 0.84981 0.62906 0.87583 0.0
N1680 N 0.87257 0.60591 0.82855 0.0
C1681 C 0.85681 0.59819 0.84849 0.0
C1682 C 0.84441 0.61075 0.87371 0.0
C1683 C 0.15651 0.10773 0.61771 0.0
C1684 C 0.17515 0.10211 0.60858 0.0
C1685 C 0.14369 0.09556 0.64088 0.0
C1686 C 0.14919 0.07751 0.65658 0.0
H1687 H 0.15174 0.12153 0.60622 0.0
H1688 H 0.12938 0.10031 0.64671 0.0
S1689 S 0.1965 0.05629 0.64231 0.0
N1690 N 0.19855 0.07746 0.61767 0.0
N1691 N 0.17449 0.05463 0.66137 0.0
C1692 C 0.16784 0.07183 0.6482 0.0
C1693 C 0.18081 0.08411 0.6241 0.0
C1694 C 0.67682 0.41463 0.38292 0.0
C1695 C 0.67132 0.39629 0.39598 0.0
C1696 C 0.66441 0.42684 0.35849 0.0
C1697 C 0.64597 0.42123 0.3468 0.0
H1698 H 0.69091 0.41952 0.3912 0.0
H1699 H 0.66917 0.4409 0.34949 0.0
S1700 S 0.62466 0.37468 0.37297 0.0
N1701 N 0.64622 0.37309 0.39539 0.0
N1702 N 0.62286 0.39608 0.34957 0.0
C1703 C 0.64028 0.40293 0.35962 0.0
C1704 C 0.65298 0.39044 0.3841 0.0
C1705 C 0.33485 0.91816 0.16757 0.0
C1706 C 0.35279 0.92168 0.14766 0.0
C1707 C 0.32241 0.9056 0.14456 0.0
C1708 C 0.32735 0.89612 0.10053 0.0
H1709 H 0.33038 0.92516 0.20131 0.0
H1710 H 0.30866 0.90354 0.16102 0.0
S1711 S 0.3727 0.9003 0.03337 0.0
N1712 N 0.37485 0.91474 0.08107 0.0
N1713 N 0.35159 0.89081 0.03845 0.0
C1714 C 0.34529 0.8994 0.08036 0.0
C1715 C 0.35799 0.9122 0.10383 0.0
C1716 C 0.82515 0.41866 0.59507 0.0
C1717 C 0.8255 0.39908 0.60243 0.0
C1718 C 0.83751 0.43056 0.62067 0.0
C1719 C 0.85071 0.42336 0.65466 0.0
H1720 H 0.81526 0.42483 0.56916 0.0
H1721 H 0.83683 0.44553 0.61345 0.0
S1722 S 0.8567 0.37328 0.68943 0.0
N1723 N 0.83971 0.37309 0.64758 0.0
N1724 N 0.86303 0.3955 0.69548 0.0
C1725 C 0.85124 0.40383 0.66241 0.0
C1726 C 0.83862 0.39168 0.63637 0.0
C1727 C 0.33693 0.1048 0.36215 0.0
C1728 C 0.32853 0.09927 0.40715 0.0
C1729 C 0.34875 0.09253 0.33579 0.0
C1730 C 0.35261 0.07433 0.3536 0.0
H1731 H 0.33394 0.11851 0.34654 0.0
H1732 H 0.35454 0.09718 0.30066 0.0
S1733 S 0.33583 0.05406 0.47275 0.0
N1734 N 0.32593 0.07503 0.47025 0.0
N1735 N 0.3484 0.05209 0.42143 0.0
C1736 C 0.34481 0.06893 0.39953 0.0
C1737 C 0.3327 0.08137 0.42611 0.0
C1738 C 0.66134 0.58635 0.1776 0.0
C1739 C 0.64748 0.57672 0.15038 0.0
C1740 C 0.67381 0.59878 0.15419 0.0
C1741 C 0.67298 0.60199 0.10259 0.0
H1742 H 0.66246 0.5844 0.21741 0.0
H1743 H 0.68434 0.60577 0.17666 0.0
S1744 S 0.63948 0.57998 0.01431 0.0
N1745 N 0.63397 0.57084 0.06877 0.0
N1746 N 0.65706 0.5946 0.02506 0.0
C1747 C 0.65922 0.5924 0.0749 0.0
C1748 C 0.64654 0.57972 0.09872 0.0
C1749 C 0.16159 0.9098 0.9205 0.0
C1750 C 0.17243 0.89707 0.8926 0.0
C1751 C 0.14903 0.92221 0.8973 0.0
C1752 C 0.14692 0.92248 0.84526 0.0
H1753 H 0.16273 0.91009 0.96063 0.0
H1754 H 0.14111 0.93188 0.92031 0.0
S1755 S 0.1722 0.89213 0.75527 0.0
N1756 N 0.1805 0.88574 0.81002 0.0
N1757 N 0.15659 0.90877 0.76659 0.0
C1758 C 0.15768 0.90983 0.81693 0.0
C1759 C 0.17046 0.89719 0.84054 0.0
loop_
_geom_bond_atom_site_label_1
_geom_bond_atom_site_label_2
_geom_bond_distance
_geom_bond_site_symmetry_2
_ccdc_geom_bond_type
Li0 N17 1.990 . S
Li0 O60 1.956 1_554 S
Li0 O61 1.970 . S
Li0 O62 1.961 . S
Li1 N25 1.990 . S
Li1 O60 1.970 . S
Li1 O61 1.956 1_556 S
Li1 O63 1.961 . S
Li2 N47 1.990 . S
Li2 O60 1.961 . S
Li2 O62 1.956 1_556 S
Li2 O63 1.970 . S
Li3 N53 1.990 . S
Li3 O61 1.961 . S
Li3 O62 1.970 . S
Li3 O63 1.956 1_554 S
C4 C6 1.348 . S
C4 C7 1.356 . S
C4 O60 1.325 . S
N5 C8 1.314 . S
N5 C9 1.279 . S
C6 C4 1.348 . S
C6 C8 1.353 . S
C6 H64 0.929 . S
C7 C4 1.356 . S
C7 C9 1.358 . S
C7 H65 0.930 . S
C8 N5 1.314 . S
C8 C6 1.353 . S
C8 H66 0.930 . S
C9 N5 1.279 . S
C9 C7 1.358 . S
C9 H67 0.930 . S
C10 C13 1.348 . S
C10 C14 1.356 . S
C10 O61 1.325 . S
C11 N12 1.279 . S
C11 C14 1.358 . S
C11 H68 0.930 . S
N12 C11 1.279 . S
N12 C15 1.314 . S
C13 C10 1.348 . S
C13 C15 1.353 . S
C13 H69 0.929 . S
C14 C10 1.356 . S
C14 C11 1.358 . S
C14 H70 0.930 . S
C15 N12 1.314 . S
C15 C13 1.353 . S
C15 H71 0.930 . S
C16 N17 1.314 . S
C16 C21 1.353 . S
C16 H22 0.930 . S
N17 Li0 1.990 . S
N17 C16 1.314 . S
N17 C19 1.279 1_554 S
C18 C19 1.358 1_554 S
C18 C20 1.356 . S
C18 H72 0.930 1_554 S
C19 N17 1.279 1_556 S
C19 C18 1.358 1_556 S
C19 H23 0.930 . S
C20 C18 1.356 . S
C20 C21 1.348 . S
C21 C16 1.353 . S
C21 C20 1.348 . S
C21 H73 0.929 . S
H22 C16 0.930 . S
H23 C19 0.930 . S
C24 N25 1.314 . S
C24 C26 1.353 . S
C24 H30 0.930 . S
N25 Li1 1.990 . S
N25 C24 1.314 . S
N25 C28 1.279 1_556 S
C26 C24 1.353 . S
C26 C29 1.348 . S
C26 H74 0.929 . S
C27 C28 1.358 1_556 S
C27 C29 1.356 . S
C27 H75 0.930 1_556 S
C28 N25 1.279 1_554 S
C28 C27 1.358 1_554 S
C28 H31 0.930 . S
C29 C26 1.348 . S
C29 C27 1.356 . S
H30 C24 0.930 . S
H31 C28 0.930 . S
C32 C34 1.348 . S
C32 C35 1.356 . S
C32 O62 1.325 . S
N33 C36 1.314 . S
N33 C37 1.279 . S
C34 C32 1.348 . S
C34 C36 1.353 . S
C34 H76 0.929 . S
C35 C32 1.356 . S
C35 C37 1.358 . S
C35 H77 0.930 1_554 S
C36 N33 1.314 . S
C36 C34 1.353 . S
C36 H78 0.930 . S
C37 N33 1.279 . S
C37 C35 1.358 . S
C37 H79 0.930 1_554 S
C38 C39 1.348 . S
C38 C40 1.356 . S
C38 O63 1.325 . S
C39 C38 1.348 . S
C39 C41 1.353 . S
C39 H80 0.929 . S
C40 C38 1.356 . S
C40 C42 1.358 . S
C40 H81 0.930 1_556 S
C41 C39 1.353 . S
C41 N43 1.314 . S
C41 H82 0.930 . S
C42 C40 1.358 . S
C42 N43 1.279 . S
C42 H83 0.930 1_556 S
N43 C41 1.314 . S
N43 C42 1.279 . S
C44 C46 1.353 . S
C44 N47 1.314 . S
C44 H50 0.930 . S
C45 N47 1.279 . S
C45 C48 1.358 . S
C45 H51 0.930 . S
C46 C44 1.353 . S
C46 C49 1.348 . S
C46 H84 0.929 . S
N47 Li2 1.990 . S
N47 C44 1.314 . S
N47 C45 1.279 . S
C48 C45 1.358 . S
C48 C49 1.356 . S
C48 H85 0.930 . S
C49 C46 1.348 . S
C49 C48 1.356 . S
H50 C44 0.930 . S
H51 C45 0.930 . S
C52 N53 1.314 . S
C52 C54 1.353 . S
C52 H58 0.930 . S
N53 Li3 1.990 . S
N53 C52 1.314 . S
N53 C56 1.279 . S
C54 C52 1.353 . S
C54 C57 1.348 . S
C54 H86 0.929 . S
C55 C56 1.358 . S
C55 C57 1.356 . S
C55 H87 0.930 . S
C56 N53 1.279 . S
C56 C55 1.358 . S
C56 H59 0.930 . S
C57 C54 1.348 . S
C57 C55 1.356 . S
H58 C52 0.930 . S
H59 C56 0.930 . S
O60 Li0 1.956 1_556 S
O60 Li1 1.970 . S
O60 Li2 1.961 . S
O60 C4 1.325 . S
O61 Li0 1.970 . S
O61 Li1 1.956 1_554 S
O61 Li3 1.961 . S
O61 C10 1.325 . S
O62 Li0 1.961 . S
O62 Li2 1.956 1_554 S
O62 Li3 1.970 . S
O62 C32 1.325 . S
O63 Li1 1.961 . S
O63 Li2 1.970 . S
O63 Li3 1.956 1_556 S
O63 C38 1.325 . S
H64 C6 0.929 . S
H65 C7 0.930 . S
H66 C8 0.930 . S
H67 C9 0.930 . S
H68 C11 0.930 . S
H69 C13 0.929 . S
H70 C14 0.930 . S
H71 C15 0.930 . S
H72 C18 0.930 1_556 S
H73 C21 0.929 . S
H74 C26 0.929 . S
H75 C27 0.930 1_554 S
H76 C34 0.929 . S
H77 C35 0.930 1_556 S
H78 C36 0.930 . S
H79 C37 0.930 1_556 S
H80 C39 0.929 . S
H81 C40 0.930 1_554 S
H82 C41 0.930 . S
H83 C42 0.930 1_554 S
H84 C46 0.929 . S
H85 C48 0.930 . S
H86 C54 0.929 . S
H87 C55 0.930 . S
Li88 N105 1.990 . S
Li88 O148 1.956 . S
Li88 O149 1.970 1_565 S
Li88 O150 1.961 . S
Li89 N113 1.990 . S
Li89 O148 1.970 1_545 S
Li89 O149 1.956 . S
Li89 O151 1.961 . S
Li90 N135 1.990 . S
Li90 O148 1.961 . S
Li90 O150 1.956 . S
Li90 O151 1.970 1_565 S
Li91 N141 1.990 . S
Li91 O149 1.961 . S
Li91 O150 1.970 1_545 S
Li91 O151 1.956 . S
C92 C94 1.348 . S
C92 C95 1.356 . S
C92 O148 1.325 . S
N93 C96 1.314 . S
N93 C97 1.279 . S
C94 C92 1.348 . S
C94 C96 1.353 . S
C94 H152 0.929 . S
C95 C92 1.356 . S
C95 C97 1.358 . S
C95 H153 0.930 . S
C96 N93 1.314 . S
C96 C94 1.353 . S
C96 H154 0.930 . S
C97 N93 1.279 . S
C97 C95 1.358 . S
C97 H155 0.930 . S
C98 C101 1.348 . S
C98 C102 1.356 . S
C98 O149 1.325 . S
C99 N100 1.279 . S
C99 C102 1.358 . S
C99 H156 0.930 . S
N100 C99 1.279 . S
N100 C103 1.314 . S
C101 C98 1.348 . S
C101 C103 1.353 . S
C101 H157 0.929 . S
C102 C98 1.356 . S
C102 C99 1.358 . S
C102 H158 0.930 . S
C103 N100 1.314 . S
C103 C101 1.353 . S
C103 H159 0.930 . S
C104 N105 1.314 . S
C104 C109 1.353 . S
C104 H110 0.930 1_565 S
N105 Li88 1.990 . S
N105 C104 1.314 . S
N105 C107 1.279 . S
C106 C107 1.358 . S
C106 C108 1.356 . S
C106 H160 0.930 . S
C107 N105 1.279 . S
C107 C106 1.358 . S
C107 H111 0.930 . S
C108 C106 1.356 . S
C108 C109 1.348 . S
C109 C104 1.353 . S
C109 C108 1.348 . S
C109 H161 0.929 . S
H110 C104 0.930 1_545 S
H111 C107 0.930 . S
C112 N113 1.314 . S
C112 C114 1.353 . S
C112 H118 0.930 1_545 S
N113 Li89 1.990 . S
N113 C112 1.314 . S
N113 C116 1.279 . S
C114 C112 1.353 . S
C114 C117 1.348 . S
C114 H162 0.929 . S
C115 C116 1.358 . S
C115 C117 1.356 . S
C115 H163 0.930 . S
C116 N113 1.279 . S
C116 C115 1.358 . S
C116 H119 0.930 . S
C117 C114 1.348 . S
C117 C115 1.356 . S
H118 C112 0.930 1_565 S
H119 C116 0.930 . S
C120 C122 1.332 1_565 S
C120 C123 1.356 . S
C120 O150 1.325 . S
N121 C124 1.314 . S
N121 C125 1.279 . S
C122 C120 1.332 1_545 S
C122 C124 1.344 1_545 S
C122 H164 0.955 . S
C123 C120 1.356 . S
C123 C125 1.358 . S
C123 H165 0.930 . S
C124 N121 1.314 . S
C124 C122 1.344 1_565 S
C124 H166 0.930 1_565 S
C125 N121 1.279 . S
C125 C123 1.358 . S
C125 H167 0.930 . S
C126 C127 1.339 1_545 S
C126 C128 1.356 . S
C126 O151 1.325 . S
C127 C126 1.339 1_565 S
C127 C129 1.348 1_565 S
C127 H168 0.944 . S
C128 C126 1.356 . S
C128 C130 1.358 . S
C128 H169 0.930 . S
C129 C127 1.348 1_545 S
C129 N131 1.314 . S
C129 H170 0.930 1_545 S
C130 C128 1.358 . S
C130 N131 1.279 . S
C130 H171 0.930 . S
N131 C129 1.314 . S
N131 C130 1.279 . S
C132 C134 1.353 . S
C132 N135 1.314 . S
C132 H138 0.930 . S
C133 N135 1.279 . S
C133 C136 1.358 . S
C133 H139 0.930 . S
C134 C132 1.353 . S
C134 C137 1.348 . S
C134 H172 0.929 . S
N135 Li90 1.990 . S
N135 C132 1.314 . S
N135 C133 1.279 . S
C136 C133 1.358 . S
C136 C137 1.356 . S
C136 H173 0.930 . S
C137 C134 1.348 . S
C137 C136 1.356 . S
H138 C132 0.930 . S
H139 C133 0.930 . S
C140 N141 1.314 . S
C140 C142 1.353 . S
C140 H146 0.930 . S
N141 Li91 1.990 . S
N141 C140 1.314 . S
N141 C144 1.279 . S
C142 C140 1.353 . S
C142 C145 1.348 . S
C142 H174 0.929 . S
C143 C144 1.358 . S
C143 C145 1.356 . S
C143 H175 0.930 . S
C144 N141 1.279 . S
C144 C143 1.358 . S
C144 H147 0.930 . S
C145 C142 1.348 . S
C145 C143 1.356 . S
H146 C140 0.930 . S
H147 C144 0.930 . S
O148 Li88 1.956 . S
O148 Li89 1.970 1_565 S
O148 Li90 1.961 . S
O148 C92 1.325 . S
O149 Li88 1.970 1_545 S
O149 Li89 1.956 . S
O149 Li91 1.961 . S
O149 C98 1.325 . S
O150 Li88 1.961 . S
O150 Li90 1.956 . S
O150 Li91 1.970 1_565 S
O150 C120 1.325 . S
O151 Li89 1.961 . S
O151 Li90 1.970 1_545 S
O151 Li91 1.956 . S
O151 C126 1.325 . S
H152 C94 0.929 . S
H153 C95 0.930 . S
H154 C96 0.930 . S
H155 C97 0.930 . S
H156 C99 0.930 . S
H157 C101 0.929 . S
H158 C102 0.930 . S
H159 C103 0.930 . S
H160 C106 0.930 . S
H161 C109 0.929 . S
H162 C114 0.929 . S
H163 C115 0.930 . S
H164 C122 0.955 . S
H165 C123 0.930 . S
H166 C124 0.930 1_545 S
H167 C125 0.930 . S
H168 C127 0.944 . S
H169 C128 0.930 . S
H170 C129 0.930 1_565 S
H171 C130 0.930 . S
H172 C134 0.929 . S
H173 C136 0.930 . S
H174 C142 0.929 . S
H175 C143 0.930 . S
Li176 N193 1.990 . S
Li176 O236 1.956 . S
Li176 O237 1.970 . S
Li176 O238 1.961 . S
Li177 N201 1.990 . S
Li177 O236 1.970 . S
Li177 O237 1.956 . S
Li177 O239 1.961 . S
Li178 N223 1.990 . S
Li178 O236 1.961 . S
Li178 O238 1.956 . S
Li178 O239 1.970 . S
Li179 N229 1.990 . S
Li179 O237 1.961 . S
Li179 O238 1.970 . S
Li179 O239 1.956 . S
C180 C182 1.348 . S
C180 C183 1.356 . S
C180 O236 1.325 . S
N181 C184 1.314 . S
N181 C185 1.279 . S
C182 C180 1.348 . S
C182 C184 1.353 . S
C182 H240 0.929 . S
C183 C180 1.356 . S
C183 C185 1.358 . S
C183 H241 0.930 . S
C184 N181 1.314 . S
C184 C182 1.353 . S
C184 H242 0.930 . S
C185 N181 1.279 . S
C185 C183 1.358 . S
C185 H243 0.930 . S
C186 C189 1.348 . S
C186 C190 1.356 . S
C186 O237 1.325 . S
C187 N188 1.279 . S
C187 C190 1.358 . S
C187 H244 0.930 . S
N188 C187 1.279 . S
N188 C191 1.314 . S
C189 C186 1.348 . S
C189 C191 1.353 . S
C189 H245 0.929 . S
C190 C186 1.356 . S
C190 C187 1.358 . S
C190 H246 0.930 . S
C191 N188 1.314 . S
C191 C189 1.353 . S
C191 H247 0.930 . S
C192 N193 1.314 . S
C192 C197 1.353 . S
C192 H198 0.930 . S
N193 Li176 1.990 . S
N193 C192 1.314 . S
N193 C195 1.279 . S
C194 C195 1.358 . S
C194 C196 1.356 . S
C194 H248 0.930 . S
C195 N193 1.279 . S
C195 C194 1.358 . S
C195 H199 0.930 . S
C196 C194 1.356 . S
C196 C197 1.348 . S
C197 C192 1.353 . S
C197 C196 1.348 . S
C197 H249 0.929 . S
H198 C192 0.930 . S
H199 C195 0.930 . S
C200 N201 1.314 . S
C200 C202 1.353 . S
C200 H206 0.930 . S
N201 Li177 1.990 . S
N201 C200 1.314 . S
N201 C204 1.279 . S
C202 C200 1.353 . S
C202 C205 1.348 . S
C202 H250 0.929 . S
C203 C204 1.358 . S
C203 C205 1.356 . S
C203 H251 0.930 . S
C204 N201 1.279 . S
C204 C203 1.358 . S
C204 H207 0.930 . S
C205 C202 1.348 . S
C205 C203 1.356 . S
H206 C200 0.930 . S
H207 C204 0.930 . S
C208 C210 1.348 . S
C208 C211 1.356 . S
C208 O238 1.325 . S
N209 C212 1.314 . S
N209 C213 1.279 . S
C210 C208 1.348 . S
C210 C212 1.353 . S
C210 H252 0.929 . S
C211 C208 1.356 . S
C211 C213 1.358 . S
C211 H253 0.930 . S
C212 N209 1.314 . S
C212 C210 1.353 . S
C212 H254 0.930 . S
C213 N209 1.279 . S
C213 C211 1.358 . S
C213 H255 0.930 . S
C214 C215 1.348 . S
C214 C216 1.356 . S
C214 O239 1.325 . S
C215 C214 1.348 . S
C215 C217 1.353 . S
C215 H256 0.929 . S
C216 C214 1.356 . S
C216 C218 1.358 . S
C216 H257 0.930 . S
C217 C215 1.353 . S
C217 N219 1.314 . S
C217 H258 0.930 . S
C218 C216 1.358 . S
C218 N219 1.279 . S
C218 H259 0.930 . S
N219 C217 1.314 . S
N219 C218 1.279 . S
C220 C222 1.353 . S
C220 N223 1.314 . S
C220 H226 0.930 . S
C221 N223 1.279 . S
C221 C224 1.358 . S
C221 H227 0.930 . S
C222 C220 1.353 . S
C222 C225 1.348 . S
C222 H260 0.929 . S
N223 Li178 1.990 . S
N223 C220 1.314 . S
N223 C221 1.279 . S
C224 C221 1.358 . S
C224 C225 1.356 . S
C224 H261 0.930 . S
C225 C222 1.348 . S
C225 C224 1.356 . S
H226 C220 0.930 . S
H227 C221 0.930 . S
C228 N229 1.314 . S
C228 C230 1.353 . S
C228 H234 0.930 . S
N229 Li179 1.990 . S
N229 C228 1.314 . S
N229 C232 1.279 . S
C230 C228 1.353 . S
C230 C233 1.348 . S
C230 H262 0.929 . S
C231 C232 1.358 . S
C231 C233 1.356 . S
C231 H263 0.930 . S
C232 N229 1.279 . S
C232 C231 1.358 . S
C232 H235 0.930 . S
C233 C230 1.348 . S
C233 C231 1.356 . S
H234 C228 0.930 . S
H235 C232 0.930 . S
O236 Li176 1.956 . S
O236 Li177 1.970 . S
O236 Li178 1.961 . S
O236 C180 1.325 . S
O237 Li176 1.970 . S
O237 Li177 1.956 . S
O237 Li179 1.961 . S
O237 C186 1.325 . S
O238 Li176 1.961 . S
O238 Li178 1.956 . S
O238 Li179 1.970 . S
O238 C208 1.325 . S
O239 Li177 1.961 . S
O239 Li178 1.970 . S
O239 Li179 1.956 . S
O239 C214 1.325 . S
H240 C182 0.929 . S
H241 C183 0.930 . S
H242 C184 0.930 . S
H243 C185 0.930 . S
H244 C187 0.930 . S
H245 C189 0.929 . S
H246 C190 0.930 . S
H247 C191 0.930 . S
H248 C194 0.930 . S
H249 C197 0.929 . S
H250 C202 0.929 . S
H251 C203 0.930 . S
H252 C210 0.929 . S
H253 C211 0.930 . S
H254 C212 0.930 . S
H255 C213 0.930 . S
H256 C215 0.929 . S
H257 C216 0.930 . S
H258 C217 0.930 . S
H259 C218 0.930 . S
H260 C222 0.929 . S
H261 C224 0.930 . S
H262 C230 0.929 . S
H263 C231 0.930 . S
Li264 N281 1.990 . S
Li264 O324 1.956 . S
Li264 O325 1.970 1_565 S
Li264 O326 1.961 . S
Li265 N289 1.990 . S
Li265 O324 1.970 1_545 S
Li265 O325 1.956 . S
Li265 O327 1.961 . S
Li266 N311 1.990 . S
Li266 O324 1.961 . S
Li266 O326 1.956 . S
Li266 O327 1.970 1_565 S
Li267 N317 1.990 . S
Li267 O325 1.961 . S
Li267 O326 1.970 1_545 S
Li267 O327 1.956 . S
C268 C270 1.332 1_565 S
C268 C271 1.356 . S
C268 O324 1.325 . S
N269 C272 1.314 . S
N269 C273 1.279 . S
C270 C268 1.332 1_545 S
C270 C272 1.344 1_545 S
C270 H328 0.955 . S
C271 C268 1.356 . S
C271 C273 1.358 . S
C271 H329 0.930 . S
C272 N269 1.314 . S
C272 C270 1.344 1_565 S
C272 H330 0.930 1_565 S
C273 N269 1.279 . S
C273 C271 1.358 . S
C273 H331 0.930 . S
C274 C277 1.339 1_545 S
C274 C278 1.356 . S
C274 O325 1.325 . S
C275 N276 1.279 . S
C275 C278 1.358 . S
C275 H332 0.930 . S
N276 C275 1.279 . S
N276 C279 1.314 . S
C277 C274 1.339 1_565 S
C277 C279 1.348 1_565 S
C277 H333 0.944 . S
C278 C274 1.356 . S
C278 C275 1.358 . S
C278 H334 0.930 . S
C279 N276 1.314 . S
C279 C277 1.348 1_545 S
C279 H335 0.930 1_545 S
C280 N281 1.314 . S
C280 C285 1.353 . S
C280 H286 0.930 . S
N281 Li264 1.990 . S
N281 C280 1.314 . S
N281 C283 1.279 . S
C282 C283 1.358 . S
C282 C284 1.356 . S
C282 H336 0.930 . S
C283 N281 1.279 . S
C283 C282 1.358 . S
C283 H287 0.930 . S
C284 C282 1.356 . S
C284 C285 1.348 . S
C285 C280 1.353 . S
C285 C284 1.348 . S
C285 H337 0.929 . S
H286 C280 0.930 . S
H287 C283 0.930 . S
C288 N289 1.314 . S
C288 C290 1.353 . S
C288 H294 0.930 . S
N289 Li265 1.990 . S
N289 C288 1.314 . S
N289 C292 1.279 . S
C290 C288 1.353 . S
C290 C293 1.348 . S
C290 H338 0.929 . S
C291 C292 1.358 . S
C291 C293 1.356 . S
C291 H339 0.930 . S
C292 N289 1.279 . S
C292 C291 1.358 . S
C292 H295 0.930 . S
C293 C290 1.348 . S
C293 C291 1.356 . S
H294 C288 0.930 . S
H295 C292 0.930 . S
C296 C298 1.348 . S
C296 C299 1.356 . S
C296 O326 1.325 . S
N297 C300 1.314 . S
N297 C301 1.279 . S
C298 C296 1.348 . S
C298 C300 1.353 . S
C298 H340 0.929 . S
C299 C296 1.356 . S
C299 C301 1.358 . S
C299 H341 0.930 . S
C300 N297 1.314 . S
C300 C298 1.353 . S
C300 H342 0.930 . S
C301 N297 1.279 . S
C301 C299 1.358 . S
C301 H343 0.930 . S
C302 C303 1.348 . S
C302 C304 1.356 . S
C302 O327 1.325 . S
C303 C302 1.348 . S
C303 C305 1.353 . S
C303 H344 0.929 . S
C304 C302 1.356 . S
C304 C306 1.358 . S
C304 H345 0.930 . S
C305 C303 1.353 . S
C305 N307 1.314 . S
C305 H346 0.930 . S
C306 C304 1.358 . S
C306 N307 1.279 . S
C306 H347 0.930 . S
N307 C305 1.314 . S
N307 C306 1.279 . S
C308 C310 1.353 . S
C308 N311 1.314 . S
C308 H314 0.930 1_565 S
C309 N311 1.279 . S
C309 C312 1.358 . S
C309 H315 0.930 . S
C310 C308 1.353 . S
C310 C313 1.348 . S
C310 H348 0.929 . S
N311 Li266 1.990 . S
N311 C308 1.314 . S
N311 C309 1.279 . S
C312 C309 1.358 . S
C312 C313 1.356 . S
C312 H349 0.930 . S
C313 C310 1.348 . S
C313 C312 1.356 . S
H314 C308 0.930 1_545 S
H315 C309 0.930 . S
C316 N317 1.314 . S
C316 C318 1.353 . S
C316 H322 0.930 1_545 S
N317 Li267 1.990 . S
N317 C316 1.314 . S
N317 C320 1.279 . S
C318 C316 1.353 . S
C318 C321 1.348 . S
C318 H350 0.929 . S
C319 C320 1.358 . S
C319 C321 1.356 . S
C319 H351 0.930 . S
C320 N317 1.279 . S
C320 C319 1.358 . S
C320 H323 0.930 . S
C321 C318 1.348 . S
C321 C319 1.356 . S
H322 C316 0.930 1_565 S
H323 C320 0.930 . S
O324 Li264 1.956 . S
O324 Li265 1.970 1_565 S
O324 Li266 1.961 . S
O324 C268 1.325 . S
O325 Li264 1.970 1_545 S
O325 Li265 1.956 . S
O325 Li267 1.961 . S
O325 C274 1.325 . S
O326 Li264 1.961 . S
O326 Li266 1.956 . S
O326 Li267 1.970 1_565 S
O326 C296 1.325 . S
O327 Li265 1.961 . S
O327 Li266 1.970 1_545 S
O327 Li267 1.956 . S
O327 C302 1.325 . S
H328 C270 0.955 . S
H329 C271 0.930 . S
H330 C272 0.930 1_545 S
H331 C273 0.930 . S
H332 C275 0.930 . S
H333 C277 0.944 . S
H334 C278 0.930 . S
H335 C279 0.930 1_565 S
H336 C282 0.930 . S
H337 C285 0.929 . S
H338 C290 0.929 . S
H339 C291 0.930 . S
H340 C298 0.929 . S
H341 C299 0.930 . S
H342 C300 0.930 . S
H343 C301 0.930 . S
H344 C303 0.929 . S
H345 C304 0.930 . S
H346 C305 0.930 . S
H347 C306 0.930 . S
H348 C310 0.929 . S
H349 C312 0.930 . S
H350 C318 0.929 . S
H351 C319 0.930 . S
Li352 N369 1.990 . S
Li352 O412 1.956 . S
Li352 O413 1.970 . S
Li352 O414 1.961 1_554 S
Li353 N377 1.990 . S
Li353 O412 1.970 . S
Li353 O413 1.956 . S
Li353 O415 1.961 1_554 S
Li354 N399 1.990 . S
Li354 O412 1.961 1_556 S
Li354 O414 1.956 . S
Li354 O415 1.970 . S
Li355 N405 1.990 . S
Li355 O413 1.961 1_556 S
Li355 O414 1.970 . S
Li355 O415 1.956 . S
C356 C358 1.348 . S
C356 C359 1.356 . S
C356 O412 1.325 . S
N357 C360 1.314 . S
N357 C361 1.279 . S
C358 C356 1.348 . S
C358 C360 1.353 . S
C358 H416 0.929 . S
C359 C356 1.356 . S
C359 C361 1.358 . S
C359 H417 0.930 . S
C360 N357 1.314 . S
C360 C358 1.353 . S
C360 H418 0.930 . S
C361 N357 1.279 . S
C361 C359 1.358 . S
C361 H419 0.930 . S
C362 C365 1.348 . S
C362 C366 1.356 1_554 S
C362 O413 1.325 . S
C363 N364 1.279 . S
C363 C366 1.358 1_554 S
C363 H420 0.930 1_554 S
N364 C363 1.279 . S
N364 C367 1.314 . S
C365 C362 1.348 . S
C365 C367 1.353 . S
C365 H421 0.929 . S
C366 C362 1.356 1_556 S
C366 C363 1.358 1_556 S
C366 H422 0.930 . S
C367 N364 1.314 . S
C367 C365 1.353 . S
C367 H423 0.930 . S
C368 N369 1.314 . S
C368 C373 1.353 . S
C368 H374 0.930 . S
N369 Li352 1.990 . S
N369 C368 1.314 . S
N369 C371 1.279 . S
C370 C371 1.358 . S
C370 C372 1.356 . S
C370 H424 0.930 . S
C371 N369 1.279 . S
C371 C370 1.358 . S
C371 H375 0.930 . S
C372 C370 1.356 . S
C372 C373 1.348 . S
C373 C368 1.353 . S
C373 C372 1.348 . S
C373 H425 0.929 . S
H374 C368 0.930 . S
H375 C371 0.930 . S
C376 N377 1.314 . S
C376 C378 1.353 . S
C376 H382 0.930 1_554 S
N377 Li353 1.990 . S
N377 C376 1.314 . S
N377 C380 1.279 . S
C378 C376 1.353 . S
C378 C381 1.348 . S
C378 H426 0.929 . S
C379 C380 1.358 . S
C379 C381 1.356 . S
C379 H427 0.930 . S
C380 N377 1.279 . S
C380 C379 1.358 . S
C380 H383 0.930 . S
C381 C378 1.348 . S
C381 C379 1.356 . S
H382 C376 0.930 1_556 S
H383 C380 0.930 . S
C384 C386 1.348 . S
C384 C387 1.356 1_556 S
C384 O414 1.325 . S
N385 C388 1.314 . S
N385 C389 1.279 . S
C386 C384 1.348 . S
C386 C388 1.353 . S
C386 H428 0.929 . S
C387 C384 1.356 1_554 S
C387 C389 1.358 1_554 S
C387 H429 0.930 . S
C388 N385 1.314 . S
C388 C386 1.353 . S
C388 H430 0.930 . S
C389 N385 1.279 . S
C389 C387 1.358 1_556 S
C389 H431 0.930 1_556 S
C390 C391 1.348 . S
C390 C392 1.356 . S
C390 O415 1.325 . S
C391 C390 1.348 . S
C391 C393 1.353 . S
C391 H432 0.929 . S
C392 C390 1.356 . S
C392 C394 1.358 . S
C392 H433 0.930 . S
C393 C391 1.353 . S
C393 N395 1.314 . S
C393 H434 0.930 . S
C394 C392 1.358 . S
C394 N395 1.279 . S
C394 H435 0.930 . S
N395 C393 1.314 . S
N395 C394 1.279 . S
C396 C398 1.353 . S
C396 N399 1.314 . S
C396 H402 0.930 1_556 S
C397 N399 1.279 . S
C397 C400 1.358 . S
C397 H403 0.930 . S
C398 C396 1.353 . S
C398 C401 1.348 . S
C398 H436 0.929 . S
N399 Li354 1.990 . S
N399 C396 1.314 . S
N399 C397 1.279 . S
C400 C397 1.358 . S
C400 C401 1.356 . S
C400 H437 0.930 . S
C401 C398 1.348 . S
C401 C400 1.356 . S
H402 C396 0.930 1_554 S
H403 C397 0.930 . S
C404 N405 1.314 . S
C404 C406 1.353 . S
C404 H410 0.930 . S
N405 Li355 1.990 . S
N405 C404 1.314 . S
N405 C408 1.279 . S
C406 C404 1.353 . S
C406 C409 1.348 . S
C406 H438 0.929 . S
C407 C408 1.358 . S
C407 C409 1.356 . S
C407 H439 0.930 . S
C408 N405 1.279 . S
C408 C407 1.358 . S
C408 H411 0.930 . S
C409 C406 1.348 . S
C409 C407 1.356 . S
H410 C404 0.930 . S
H411 C408 0.930 . S
O412 Li352 1.956 . S
O412 Li353 1.970 . S
O412 Li354 1.961 1_554 S
O412 C356 1.325 . S
O413 Li352 1.970 . S
O413 Li353 1.956 . S
O413 Li355 1.961 1_554 S
O413 C362 1.325 . S
O414 Li352 1.961 1_556 S
O414 Li354 1.956 . S
O414 Li355 1.970 . S
O414 C384 1.325 . S
O415 Li353 1.961 1_556 S
O415 Li354 1.970 . S
O415 Li355 1.956 . S
O415 C390 1.325 . S
H416 C358 0.929 . S
H417 C359 0.930 . S
H418 C360 0.930 . S
H419 C361 0.930 . S
H420 C363 0.930 1_556 S
H421 C365 0.929 . S
H422 C366 0.930 . S
H423 C367 0.930 . S
H424 C370 0.930 . S
H425 C373 0.929 . S
H426 C378 0.929 . S
H427 C379 0.930 . S
H428 C386 0.929 . S
H429 C387 0.930 . S
H430 C388 0.930 . S
H431 C389 0.930 1_554 S
H432 C391 0.929 . S
H433 C392 0.930 . S
H434 C393 0.930 . S
H435 C394 0.930 . S
H436 C398 0.929 . S
H437 C400 0.930 . S
H438 C406 0.929 . S
H439 C407 0.930 . S
Li440 N457 1.990 . S
Li440 O500 1.956 . S
Li440 O501 1.970 1_565 S
Li440 O502 1.961 . S
Li441 N465 1.990 . S
Li441 O500 1.970 1_545 S
Li441 O501 1.956 . S
Li441 O503 1.961 . S
Li442 N487 1.990 . S
Li442 O500 1.961 . S
Li442 O502 1.956 . S
Li442 O503 1.970 1_565 S
Li443 N493 1.990 . S
Li443 O501 1.961 . S
Li443 O502 1.970 1_545 S
Li443 O503 1.956 . S
C444 C446 1.348 . S
C444 C447 1.356 . S
C444 O500 1.325 . S
N445 C448 1.314 . S
N445 C449 1.279 . S
C446 C444 1.348 . S
C446 C448 1.353 . S
C446 H504 0.929 . S
C447 C444 1.356 . S
C447 C449 1.358 . S
C447 H505 0.930 . S
C448 N445 1.314 . S
C448 C446 1.353 . S
C448 H506 0.930 . S
C449 N445 1.279 . S
C449 C447 1.358 . S
C449 H507 0.930 . S
C450 C453 1.348 1_545 S
C450 C454 1.356 . S
C450 O501 1.325 . S
C451 N452 1.279 . S
C451 C454 1.358 . S
C451 H508 0.930 . S
N452 C451 1.279 . S
N452 C455 1.314 . S
C453 C450 1.348 1_565 S
C453 C455 1.353 1_565 S
C453 H509 0.929 . S
C454 C450 1.356 . S
C454 C451 1.358 . S
C454 H510 0.930 . S
C455 N452 1.314 . S
C455 C453 1.353 1_545 S
C455 H511 0.930 1_545 S
C456 N457 1.314 . S
C456 C461 1.353 . S
C456 H462 0.930 . S
N457 Li440 1.990 . S
N457 C456 1.314 . S
N457 C459 1.279 . S
C458 C459 1.358 . S
C458 C460 1.356 . S
C458 H512 0.930 . S
C459 N457 1.279 . S
C459 C458 1.358 . S
C459 H463 0.930 . S
C460 C458 1.356 . S
C460 C461 1.348 . S
C461 C456 1.353 . S
C461 C460 1.348 . S
C461 H513 0.929 . S
H462 C456 0.930 . S
H463 C459 0.930 . S
C464 N465 1.314 . S
C464 C466 1.353 . S
C464 H470 0.930 . S
N465 Li441 1.990 . S
N465 C464 1.314 . S
N465 C468 1.279 . S
C466 C464 1.353 . S
C466 C469 1.348 . S
C466 H514 0.929 . S
C467 C468 1.358 . S
C467 C469 1.356 . S
C467 H515 0.930 . S
C468 N465 1.279 . S
C468 C467 1.358 . S
C468 H471 0.930 . S
C469 C466 1.348 . S
C469 C467 1.356 . S
H470 C464 0.930 . S
H471 C468 0.930 . S
C472 C474 1.348 1_565 S
C472 C475 1.356 . S
C472 O502 1.325 . S
N473 C476 1.364 . S
N473 C477 1.279 . S
C474 C472 1.348 1_545 S
C474 C476 1.339 1_545 S
C474 H516 0.929 . S
C475 C472 1.356 . S
C475 C477 1.358 . S
C475 H517 0.930 . S
C476 N473 1.364 . S
C476 C474 1.339 1_565 S
C476 H518 0.891 1_565 S
C477 N473 1.279 . S
C477 C475 1.358 . S
C477 H519 0.930 . S
C478 C479 1.348 . S
C478 C480 1.356 . S
C478 O503 1.325 . S
C479 C478 1.348 . S
C479 C481 1.353 . S
C479 H520 0.929 . S
C480 C478 1.356 . S
C480 C482 1.358 . S
C480 H521 0.930 . S
C481 C479 1.353 . S
C481 N483 1.314 . S
C481 H522 0.930 . S
C482 C480 1.358 . S
C482 N483 1.279 . S
C482 H523 0.930 . S
N483 C481 1.314 . S
N483 C482 1.279 . S
C484 C486 1.353 . S
C484 N487 1.314 . S
C484 H490 0.930 . S
C485 N487 1.279 . S
C485 C488 1.358 . S
C485 H491 0.930 . S
C486 C484 1.353 . S
C486 C489 1.348 . S
C486 H524 0.929 . S
N487 Li442 1.990 . S
N487 C484 1.314 . S
N487 C485 1.279 . S
C488 C485 1.358 . S
C488 C489 1.356 . S
C488 H525 0.930 . S
C489 C486 1.348 . S
C489 C488 1.356 . S
H490 C484 0.930 . S
H491 C485 0.930 . S
C492 N493 1.314 . S
C492 C494 1.353 . S
C492 H498 0.930 . S
N493 Li443 1.990 . S
N493 C492 1.314 . S
N493 C496 1.279 . S
C494 C492 1.353 . S
C494 C497 1.348 . S
C494 H526 0.929 . S
C495 C496 1.358 . S
C495 C497 1.356 . S
C495 H527 0.930 . S
C496 N493 1.279 . S
C496 C495 1.358 . S
C496 H499 0.930 . S
C497 C494 1.348 . S
C497 C495 1.356 . S
H498 C492 0.930 . S
H499 C496 0.930 . S
O500 Li440 1.956 . S
O500 Li441 1.970 1_565 S
O500 Li442 1.961 . S
O500 C444 1.325 . S
O501 Li440 1.970 1_545 S
O501 Li441 1.956 . S
O501 Li443 1.961 . S
O501 C450 1.325 . S
O502 Li440 1.961 . S
O502 Li442 1.956 . S
O502 Li443 1.970 1_565 S
O502 C472 1.325 . S
O503 Li441 1.961 . S
O503 Li442 1.970 1_545 S
O503 Li443 1.956 . S
O503 C478 1.325 . S
H504 C446 0.929 . S
H505 C447 0.930 . S
H506 C448 0.930 . S
H507 C449 0.930 . S
H508 C451 0.930 . S
H509 C453 0.929 . S
H510 C454 0.930 . S
H511 C455 0.930 1_565 S
H512 C458 0.930 . S
H513 C461 0.929 . S
H514 C466 0.929 . S
H515 C467 0.930 . S
H516 C474 0.929 . S
H517 C475 0.930 . S
H518 C476 0.891 1_545 S
H519 C477 0.930 . S
H520 C479 0.929 . S
H521 C480 0.930 . S
H522 C481 0.930 . S
H523 C482 0.930 . S
H524 C486 0.929 . S
H525 C488 0.930 . S
H526 C494 0.929 . S
H527 C495 0.930 . S
Li528 N545 1.990 . S
Li528 O588 1.956 . S
Li528 O589 1.970 . S
Li528 O590 1.961 . S
Li529 N553 1.990 . S
Li529 O588 1.970 . S
Li529 O589 1.956 . S
Li529 O591 1.961 . S
Li530 N575 1.990 . S
Li530 O588 1.961 . S
Li530 O590 1.956 . S
Li530 O591 1.970 . S
Li531 N581 1.990 . S
Li531 O589 1.961 . S
Li531 O590 1.970 . S
Li531 O591 1.956 . S
C532 C534 1.348 . S
C532 C535 1.356 . S
C532 O588 1.325 . S
N533 C536 1.314 . S
N533 C537 1.279 . S
C534 C532 1.348 . S
C534 C536 1.353 . S
C534 H592 0.929 . S
C535 C532 1.356 . S
C535 C537 1.358 . S
C535 H593 0.930 . S
C536 N533 1.314 . S
C536 C534 1.353 . S
C536 H594 0.930 . S
C537 N533 1.279 . S
C537 C535 1.358 . S
C537 H595 0.930 . S
C538 C541 1.348 . S
C538 C542 1.356 . S
C538 O589 1.325 . S
C539 N540 1.279 . S
C539 C542 1.358 . S
C539 H596 0.930 . S
N540 C539 1.279 . S
N540 C543 1.314 . S
C541 C538 1.348 . S
C541 C543 1.353 . S
C541 H597 0.929 . S
C542 C538 1.356 . S
C542 C539 1.358 . S
C542 H598 0.930 . S
C543 N540 1.314 . S
C543 C541 1.353 . S
C543 H599 0.930 . S
C544 N545 1.314 . S
C544 C549 1.353 . S
C544 H550 0.930 . S
N545 Li528 1.990 . S
N545 C544 1.314 . S
N545 C547 1.279 . S
C546 C547 1.358 . S
C546 C548 1.356 . S
C546 H600 0.930 . S
C547 N545 1.279 . S
C547 C546 1.358 . S
C547 H551 0.930 . S
C548 C546 1.356 . S
C548 C549 1.348 . S
C549 C544 1.353 . S
C549 C548 1.348 . S
C549 H601 0.929 . S
H550 C544 0.930 . S
H551 C547 0.930 . S
C552 N553 1.314 . S
C552 C554 1.353 . S
C552 H558 0.930 . S
N553 Li529 1.990 . S
N553 C552 1.314 . S
N553 C556 1.279 . S
C554 C552 1.353 . S
C554 C557 1.348 . S
C554 H602 0.929 . S
C555 C556 1.358 . S
C555 C557 1.356 . S
C555 H603 0.930 . S
C556 N553 1.279 . S
C556 C555 1.358 . S
C556 H559 0.930 . S
C557 C554 1.348 . S
C557 C555 1.356 . S
H558 C552 0.930 . S
H559 C556 0.930 . S
C560 C562 1.348 . S
C560 C563 1.356 . S
C560 O590 1.325 . S
N561 C564 1.314 . S
N561 C565 1.279 . S
C562 C560 1.348 . S
C562 C564 1.353 . S
C562 H604 0.929 . S
C563 C560 1.356 . S
C563 C565 1.358 . S
C563 H605 0.930 . S
C564 N561 1.314 . S
C564 C562 1.353 . S
C564 H606 0.930 . S
C565 N561 1.279 . S
C565 C563 1.358 . S
C565 H607 0.930 . S
C566 C567 1.348 . S
C566 C568 1.356 . S
C566 O591 1.325 . S
C567 C566 1.348 . S
C567 C569 1.353 . S
C567 H608 0.929 . S
C568 C566 1.356 . S
C568 C570 1.358 . S
C568 H609 0.930 . S
C569 C567 1.353 . S
C569 N571 1.314 . S
C569 H610 0.930 . S
C570 C568 1.358 . S
C570 N571 1.279 . S
C570 H611 0.930 . S
N571 C569 1.314 . S
N571 C570 1.279 . S
C572 C574 1.353 . S
C572 N575 1.314 . S
C572 H578 0.930 . S
C573 N575 1.279 . S
C573 C576 1.358 . S
C573 H579 0.930 . S
C574 C572 1.353 . S
C574 C577 1.348 . S
C574 H612 0.929 . S
N575 Li530 1.990 . S
N575 C572 1.314 . S
N575 C573 1.279 . S
C576 C573 1.358 . S
C576 C577 1.356 . S
C576 H613 0.930 . S
C577 C574 1.348 . S
C577 C576 1.356 . S
H578 C572 0.930 . S
H579 C573 0.930 . S
C580 N581 1.314 . S
C580 C582 1.353 . S
C580 H586 0.930 . S
N581 Li531 1.990 . S
N581 C580 1.314 . S
N581 C584 1.279 . S
C582 C580 1.353 . S
C582 C585 1.348 . S
C582 H614 0.929 . S
C583 C584 1.358 . S
C583 C585 1.356 . S
C583 H615 0.930 . S
C584 N581 1.279 . S
C584 C583 1.358 . S
C584 H587 0.930 . S
C585 C582 1.348 . S
C585 C583 1.356 . S
H586 C580 0.930 . S
H587 C584 0.930 . S
O588 Li528 1.956 . S
O588 Li529 1.970 . S
O588 Li530 1.961 . S
O588 C532 1.325 . S
O589 Li528 1.970 . S
O589 Li529 1.956 . S
O589 Li531 1.961 . S
O589 C538 1.325 . S
O590 Li528 1.961 . S
O590 Li530 1.956 . S
O590 Li531 1.970 . S
O590 C560 1.325 . S
O591 Li529 1.961 . S
O591 Li530 1.970 . S
O591 Li531 1.956 . S
O591 C566 1.325 . S
H592 C534 0.929 . S
H593 C535 0.930 . S
H594 C536 0.930 . S
H595 C537 0.930 . S
H596 C539 0.930 . S
H597 C541 0.929 . S
H598 C542 0.930 . S
H599 C543 0.930 . S
H600 C546 0.930 . S
H601 C549 0.929 . S
H602 C554 0.929 . S
H603 C555 0.930 . S
H604 C562 0.929 . S
H605 C563 0.930 . S
H606 C564 0.930 . S
H607 C565 0.930 . S
H608 C567 0.929 . S
H609 C568 0.930 . S
H610 C569 0.930 . S
H611 C570 0.930 . S
H612 C574 0.929 . S
H613 C576 0.930 . S
H614 C582 0.929 . S
H615 C583 0.930 . S
Li616 N633 1.990 . S
Li616 O676 1.956 . S
Li616 O677 1.970 1_545 S
Li616 O678 1.961 . S
Li617 N641 1.990 . S
Li617 O676 1.970 1_565 S
Li617 O677 1.956 . S
Li617 O679 1.961 . S
Li618 N663 1.990 . S
Li618 O676 1.961 . S
Li618 O678 1.956 . S
Li618 O679 1.970 1_545 S
Li619 N669 1.990 . S
Li619 O677 1.961 . S
Li619 O678 1.970 1_565 S
Li619 O679 1.956 . S
C620 C622 1.348 . S
C620 C623 1.356 . S
C620 O676 1.325 . S
N621 C624 1.314 . S
N621 C625 1.279 . S
C622 C620 1.348 . S
C622 C624 1.353 . S
C622 H680 0.929 . S
C623 C620 1.356 . S
C623 C625 1.358 . S
C623 H681 0.930 . S
C624 N621 1.314 . S
C624 C622 1.353 . S
C624 H682 0.930 . S
C625 N621 1.279 . S
C625 C623 1.358 . S
C625 H683 0.930 . S
C626 C629 1.348 1_565 S
C626 C630 1.356 . S
C626 O677 1.325 . S
C627 N628 1.279 . S
C627 C630 1.358 . S
C627 H684 0.930 . S
N628 C627 1.279 . S
N628 C631 1.364 . S
C629 C626 1.348 1_545 S
C629 C631 1.339 1_545 S
C629 H685 0.929 . S
C630 C626 1.356 . S
C630 C627 1.358 . S
C630 H686 0.930 . S
C631 N628 1.364 . S
C631 C629 1.339 1_565 S
C631 H687 0.891 1_565 S
C632 N633 1.314 . S
C632 C637 1.353 . S
C632 H638 0.930 . S
N633 Li616 1.990 . S
N633 C632 1.314 . S
N633 C635 1.279 . S
C634 C635 1.358 . S
C634 C636 1.356 . S
C634 H688 0.930 . S
C635 N633 1.279 . S
C635 C634 1.358 . S
C635 H639 0.930 . S
C636 C634 1.356 . S
C636 C637 1.348 . S
C637 C632 1.353 . S
C637 C636 1.348 . S
C637 H689 0.929 . S
H638 C632 0.930 . S
H639 C635 0.930 . S
C640 N641 1.314 . S
C640 C642 1.353 . S
C640 H646 0.930 . S
N641 Li617 1.990 . S
N641 C640 1.314 . S
N641 C644 1.279 . S
C642 C640 1.353 . S
C642 C645 1.348 . S
C642 H690 0.929 . S
C643 C644 1.358 . S
C643 C645 1.356 . S
C643 H691 0.930 . S
C644 N641 1.279 . S
C644 C643 1.358 . S
C644 H647 0.930 . S
C645 C642 1.348 . S
C645 C643 1.356 . S
H646 C640 0.930 . S
H647 C644 0.930 . S
C648 C650 1.348 1_545 S
C648 C651 1.356 . S
C648 O678 1.325 . S
N649 C652 1.314 . S
N649 C653 1.279 . S
C650 C648 1.348 1_565 S
C650 C652 1.353 1_565 S
C650 H692 0.929 . S
C651 C648 1.356 . S
C651 C653 1.358 . S
C651 H693 0.930 . S
C652 N649 1.314 . S
C652 C650 1.353 1_545 S
C652 H694 0.930 1_545 S
C653 N649 1.279 . S
C653 C651 1.358 . S
C653 H695 0.930 . S
C654 C655 1.348 . S
C654 C656 1.356 . S
C654 O679 1.325 . S
C655 C654 1.348 . S
C655 C657 1.353 . S
C655 H696 0.929 . S
C656 C654 1.356 . S
C656 C658 1.358 . S
C656 H697 0.930 . S
C657 C655 1.353 . S
C657 N659 1.314 . S
C657 H698 0.930 . S
C658 C656 1.358 . S
C658 N659 1.279 . S
C658 H699 0.930 . S
N659 C657 1.314 . S
N659 C658 1.279 . S
C660 C662 1.353 . S
C660 N663 1.314 . S
C660 H666 0.930 . S
C661 N663 1.279 . S
C661 C664 1.358 . S
C661 H667 0.930 . S
C662 C660 1.353 . S
C662 C665 1.348 . S
C662 H700 0.929 . S
N663 Li618 1.990 . S
N663 C660 1.314 . S
N663 C661 1.279 . S
C664 C661 1.358 . S
C664 C665 1.356 . S
C664 H701 0.930 . S
C665 C662 1.348 . S
C665 C664 1.356 . S
H666 C660 0.930 . S
H667 C661 0.930 . S
C668 N669 1.314 . S
C668 C670 1.353 . S
C668 H674 0.930 . S
N669 Li619 1.990 . S
N669 C668 1.314 . S
N669 C672 1.279 . S
C670 C668 1.353 . S
C670 C673 1.348 . S
C670 H702 0.929 . S
C671 C672 1.358 . S
C671 C673 1.356 . S
C671 H703 0.930 . S
C672 N669 1.279 . S
C672 C671 1.358 . S
C672 H675 0.930 . S
C673 C670 1.348 . S
C673 C671 1.356 . S
H674 C668 0.930 . S
H675 C672 0.930 . S
O676 Li616 1.956 . S
O676 Li617 1.970 1_545 S
O676 Li618 1.961 . S
O676 C620 1.325 . S
O677 Li616 1.970 1_565 S
O677 Li617 1.956 . S
O677 Li619 1.961 . S
O677 C626 1.325 . S
O678 Li616 1.961 . S
O678 Li618 1.956 . S
O678 Li619 1.970 1_545 S
O678 C648 1.325 . S
O679 Li617 1.961 . S
O679 Li618 1.970 1_565 S
O679 Li619 1.956 . S
O679 C654 1.325 . S
H680 C622 0.929 . S
H681 C623 0.930 . S
H682 C624 0.930 . S
H683 C625 0.930 . S
H684 C627 0.930 . S
H685 C629 0.929 . S
H686 C630 0.930 . S
H687 C631 0.891 1_545 S
H688 C634 0.930 . S
H689 C637 0.929 . S
H690 C642 0.929 . S
H691 C643 0.930 . S
H692 C650 0.929 . S
H693 C651 0.930 . S
H694 C652 0.930 1_565 S
H695 C653 0.930 . S
H696 C655 0.929 . S
H697 C656 0.930 . S
H698 C657 0.930 . S
H699 C658 0.930 . S
H700 C662 0.929 . S
H701 C664 0.930 . S
H702 C670 0.929 . S
H703 C671 0.930 . S
Li704 N721 1.990 . S
Li704 O764 1.956 . S
Li704 O765 1.970 . S
Li704 O766 1.961 . S
Li705 N729 1.990 . S
Li705 O764 1.970 . S
Li705 O765 1.956 . S
Li705 O767 1.961 . S
Li706 N751 1.990 . S
Li706 O764 1.961 . S
Li706 O766 1.956 . S
Li706 O767 1.970 . S
Li707 N757 1.990 . S
Li707 O765 1.961 . S
Li707 O766 1.970 . S
Li707 O767 1.956 . S
C708 C710 1.348 . S
C708 C711 1.356 . S
C708 O764 1.325 . S
N709 C712 1.314 . S
N709 C713 1.279 . S
C710 C708 1.348 . S
C710 C712 1.353 . S
C710 H768 0.929 . S
C711 C708 1.356 . S
C711 C713 1.358 . S
C711 H769 0.930 . S
C712 N709 1.314 . S
C712 C710 1.353 . S
C712 H770 0.930 . S
C713 N709 1.279 . S
C713 C711 1.358 . S
C713 H771 0.930 . S
C714 C717 1.348 . S
C714 C718 1.356 . S
C714 O765 1.325 . S
C715 N716 1.279 . S
C715 C718 1.358 . S
C715 H772 0.930 . S
N716 C715 1.279 . S
N716 C719 1.314 . S
C717 C714 1.348 . S
C717 C719 1.353 . S
C717 H773 0.929 . S
C718 C714 1.356 . S
C718 C715 1.358 . S
C718 H774 0.930 . S
C719 N716 1.314 . S
C719 C717 1.353 . S
C719 H775 0.930 . S
C720 N721 1.314 . S
C720 C725 1.353 . S
C720 H726 0.930 . S
N721 Li704 1.990 . S
N721 C720 1.314 . S
N721 C723 1.279 . S
C722 C723 1.358 . S
C722 C724 1.356 . S
C722 H776 0.930 . S
C723 N721 1.279 . S
C723 C722 1.358 . S
C723 H727 0.930 . S
C724 C722 1.356 . S
C724 C725 1.348 . S
C725 C720 1.353 . S
C725 C724 1.348 . S
C725 H777 0.929 . S
H726 C720 0.930 . S
H727 C723 0.930 . S
C728 N729 1.314 . S
C728 C730 1.353 . S
C728 H734 0.930 . S
N729 Li705 1.990 . S
N729 C728 1.314 . S
N729 C732 1.279 . S
C730 C728 1.353 . S
C730 C733 1.348 . S
C730 H778 0.929 . S
C731 C732 1.358 . S
C731 C733 1.356 . S
C731 H779 0.930 . S
C732 N729 1.279 . S
C732 C731 1.358 . S
C732 H735 0.930 . S
C733 C730 1.348 . S
C733 C731 1.356 . S
H734 C728 0.930 . S
H735 C732 0.930 . S
C736 C738 1.348 . S
C736 C739 1.356 . S
C736 O766 1.325 . S
N737 C740 1.314 . S
N737 C741 1.279 . S
C738 C736 1.348 . S
C738 C740 1.353 . S
C738 H780 0.929 . S
C739 C736 1.356 . S
C739 C741 1.358 . S
C739 H781 0.930 . S
C740 N737 1.314 . S
C740 C738 1.353 . S
C740 H782 0.930 . S
C741 N737 1.279 . S
C741 C739 1.358 . S
C741 H783 0.930 . S
C742 C743 1.348 . S
C742 C744 1.356 . S
C742 O767 1.325 . S
C743 C742 1.348 . S
C743 C745 1.353 . S
C743 H784 0.929 . S
C744 C742 1.356 . S
C744 C746 1.358 . S
C744 H785 0.930 . S
C745 C743 1.353 . S
C745 N747 1.314 . S
C745 H786 0.930 . S
C746 C744 1.358 . S
C746 N747 1.279 . S
C746 H787 0.930 . S
N747 C745 1.314 . S
N747 C746 1.279 . S
C748 C750 1.353 . S
C748 N751 1.314 . S
C748 H754 0.930 . S
C749 N751 1.279 . S
C749 C752 1.358 . S
C749 H755 0.930 . S
C750 C748 1.353 . S
C750 C753 1.348 . S
C750 H788 0.929 . S
N751 Li706 1.990 . S
N751 C748 1.314 . S
N751 C749 1.279 . S
C752 C749 1.358 . S
C752 C753 1.356 . S
C752 H789 0.930 . S
C753 C750 1.348 . S
C753 C752 1.356 . S
H754 C748 0.930 . S
H755 C749 0.930 . S
C756 N757 1.314 . S
C756 C758 1.353 . S
C756 H762 0.930 . S
N757 Li707 1.990 . S
N757 C756 1.314 . S
N757 C760 1.279 . S
C758 C756 1.353 . S
C758 C761 1.348 . S
C758 H790 0.929 . S
C759 C760 1.358 . S
C759 C761 1.356 . S
C759 H791 0.930 . S
C760 N757 1.279 . S
C760 C759 1.358 . S
C760 H763 0.930 . S
C761 C758 1.348 . S
C761 C759 1.356 . S
H762 C756 0.930 . S
H763 C760 0.930 . S
O764 Li704 1.956 . S
O764 Li705 1.970 . S
O764 Li706 1.961 . S
O764 C708 1.325 . S
O765 Li704 1.970 . S
O765 Li705 1.956 . S
O765 Li707 1.961 . S
O765 C714 1.325 . S
O766 Li704 1.961 . S
O766 Li706 1.956 . S
O766 Li707 1.970 . S
O766 C736 1.325 . S
O767 Li705 1.961 . S
O767 Li706 1.970 . S
O767 Li707 1.956 . S
O767 C742 1.325 . S
H768 C710 0.929 . S
H769 C711 0.930 . S
H770 C712 0.930 . S
H771 C713 0.930 . S
H772 C715 0.930 . S
H773 C717 0.929 . S
H774 C718 0.930 . S
H775 C719 0.930 . S
H776 C722 0.930 . S
H777 C725 0.929 . S
H778 C730 0.929 . S
H779 C731 0.930 . S
H780 C738 0.929 . S
H781 C739 0.930 . S
H782 C740 0.930 . S
H783 C741 0.930 . S
H784 C743 0.929 . S
H785 C744 0.930 . S
H786 C745 0.930 . S
H787 C746 0.930 . S
H788 C750 0.929 . S
H789 C752 0.930 . S
H790 C758 0.929 . S
H791 C759 0.930 . S
Li792 N809 1.990 . S
Li792 O852 1.956 . S
Li792 O853 1.970 . S
Li792 O854 1.961 . S
Li793 N817 1.990 . S
Li793 O852 1.970 . S
Li793 O853 1.956 . S
Li793 O855 1.961 . S
Li794 N839 1.990 . S
Li794 O852 1.961 . S
Li794 O854 1.956 . S
Li794 O855 1.970 . S
Li795 N845 1.990 . S
Li795 O853 1.961 . S
Li795 O854 1.970 . S
Li795 O855 1.956 . S
C796 C798 1.348 . S
C796 C799 1.356 . S
C796 O852 1.325 . S
N797 C800 1.314 . S
N797 C801 1.279 . S
C798 C796 1.348 . S
C798 C800 1.353 . S
C798 H856 0.929 . S
C799 C796 1.356 . S
C799 C801 1.358 . S
C799 H857 0.930 . S
C800 N797 1.314 . S
C800 C798 1.353 . S
C800 H858 0.930 . S
C801 N797 1.279 . S
C801 C799 1.358 . S
C801 H859 0.930 . S
C802 C805 1.348 . S
C802 C806 1.356 . S
C802 O853 1.325 . S
C803 N804 1.279 . S
C803 C806 1.358 . S
C803 H860 0.930 . S
N804 C803 1.279 . S
N804 C807 1.314 . S
C805 C802 1.348 . S
C805 C807 1.353 . S
C805 H861 0.929 . S
C806 C802 1.356 . S
C806 C803 1.358 . S
C806 H862 0.930 . S
C807 N804 1.314 . S
C807 C805 1.353 . S
C807 H863 0.930 . S
C808 N809 1.314 . S
C808 C813 1.353 . S
C808 H814 0.930 . S
N809 Li792 1.990 . S
N809 C808 1.314 . S
N809 C811 1.279 . S
C810 C811 1.358 . S
C810 C812 1.356 . S
C810 H864 0.930 . S
C811 N809 1.279 . S
C811 C810 1.358 . S
C811 H815 0.930 . S
C812 C810 1.356 . S
C812 C813 1.348 . S
C813 C808 1.353 . S
C813 C812 1.348 . S
C813 H865 0.929 . S
H814 C808 0.930 . S
H815 C811 0.930 . S
C816 N817 1.314 . S
C816 C818 1.353 . S
C816 H822 0.930 . S
N817 Li793 1.990 . S
N817 C816 1.314 . S
N817 C820 1.279 . S
C818 C816 1.353 . S
C818 C821 1.348 . S
C818 H866 0.929 . S
C819 C820 1.358 . S
C819 C821 1.356 . S
C819 H867 0.930 . S
C820 N817 1.279 . S
C820 C819 1.358 . S
C820 H823 0.930 . S
C821 C818 1.348 . S
C821 C819 1.356 . S
H822 C816 0.930 . S
H823 C820 0.930 . S
C824 C826 1.348 . S
C824 C827 1.356 . S
C824 O854 1.325 . S
N825 C828 1.314 . S
N825 C829 1.279 . S
C826 C824 1.348 . S
C826 C828 1.353 . S
C826 H868 0.929 . S
C827 C824 1.356 . S
C827 C829 1.358 . S
C827 H869 0.930 . S
C828 N825 1.314 . S
C828 C826 1.353 . S
C828 H870 0.930 . S
C829 N825 1.279 . S
C829 C827 1.358 . S
C829 H871 0.930 . S
C830 C831 1.348 . S
C830 C832 1.356 . S
C830 O855 1.325 . S
C831 C830 1.348 . S
C831 C833 1.353 . S
C831 H872 0.929 . S
C832 C830 1.356 . S
C832 C834 1.358 . S
C832 H873 0.930 . S
C833 C831 1.353 . S
C833 N835 1.314 . S
C833 H874 0.930 . S
C834 C832 1.358 . S
C834 N835 1.279 . S
C834 H875 0.930 . S
N835 C833 1.314 . S
N835 C834 1.279 . S
C836 C838 1.353 . S
C836 N839 1.314 . S
C836 H842 0.930 . S
C837 N839 1.279 . S
C837 C840 1.358 . S
C837 H843 0.930 . S
C838 C836 1.353 . S
C838 C841 1.348 . S
C838 H876 0.929 . S
N839 Li794 1.990 . S
N839 C836 1.314 . S
N839 C837 1.279 . S
C840 C837 1.358 . S
C840 C841 1.356 . S
C840 H877 0.930 . S
C841 C838 1.348 . S
C841 C840 1.356 . S
H842 C836 0.930 . S
H843 C837 0.930 . S
C844 N845 1.314 . S
C844 C846 1.353 . S
C844 H850 0.930 . S
N845 Li795 1.990 . S
N845 C844 1.314 . S
N845 C848 1.279 . S
C846 C844 1.353 . S
C846 C849 1.348 . S
C846 H878 0.929 . S
C847 C848 1.358 . S
C847 C849 1.356 . S
C847 H879 0.930 . S
C848 N845 1.279 . S
C848 C847 1.358 . S
C848 H851 0.930 . S
C849 C846 1.348 . S
C849 C847 1.356 . S
H850 C844 0.930 . S
H851 C848 0.930 . S
O852 Li792 1.956 . S
O852 Li793 1.970 . S
O852 Li794 1.961 . S
O852 C796 1.325 . S
O853 Li792 1.970 . S
O853 Li793 1.956 . S
O853 Li795 1.961 . S
O853 C802 1.325 . S
O854 Li792 1.961 . S
O854 Li794 1.956 . S
O854 Li795 1.970 . S
O854 C824 1.325 . S
O855 Li793 1.961 . S
O855 Li794 1.970 . S
O855 Li795 1.956 . S
O855 C830 1.325 . S
H856 C798 0.929 . S
H857 C799 0.930 . S
H858 C800 0.930 . S
H859 C801 0.930 . S
H860 C803 0.930 . S
H861 C805 0.929 . S
H862 C806 0.930 . S
H863 C807 0.930 . S
H864 C810 0.930 . S
H865 C813 0.929 . S
H866 C818 0.929 . S
H867 C819 0.930 . S
H868 C826 0.929 . S
H869 C827 0.930 . S
H870 C828 0.930 . S
H871 C829 0.930 . S
H872 C831 0.929 . S
H873 C832 0.930 . S
H874 C833 0.930 . S
H875 C834 0.930 . S
H876 C838 0.929 . S
H877 C840 0.930 . S
H878 C846 0.929 . S
H879 C847 0.930 . S
Li880 N897 1.990 . S
Li880 O940 1.956 1_556 S
Li880 O941 1.970 . S
Li880 O942 1.961 . S
Li881 N905 1.990 . S
Li881 O940 1.970 . S
Li881 O941 1.956 1_554 S
Li881 O943 1.961 . S
Li882 N927 1.990 . S
Li882 O940 1.961 . S
Li882 O942 1.956 1_554 S
Li882 O943 1.970 . S
Li883 N933 1.990 . S
Li883 O941 1.961 . S
Li883 O942 1.970 . S
Li883 O943 1.956 1_556 S
C884 C886 1.348 . S
C884 C887 1.356 . S
C884 O940 1.325 . S
N885 C888 1.314 . S
N885 C889 1.279 . S
C886 C884 1.348 . S
C886 C888 1.353 . S
C886 H944 0.929 . S
C887 C884 1.356 . S
C887 C889 1.358 . S
C887 H945 0.930 1_554 S
C888 N885 1.314 . S
C888 C886 1.353 . S
C888 H946 0.930 . S
C889 N885 1.279 . S
C889 C887 1.358 . S
C889 H947 0.930 1_554 S
C890 C893 1.348 . S
C890 C894 1.356 . S
C890 O941 1.325 . S
C891 N892 1.279 . S
C891 C894 1.358 . S
C891 H948 0.930 1_556 S
N892 C891 1.279 . S
N892 C895 1.314 . S
C893 C890 1.348 . S
C893 C895 1.353 . S
C893 H949 0.929 . S
C894 C890 1.356 . S
C894 C891 1.358 . S
C894 H950 0.930 1_556 S
C895 N892 1.314 . S
C895 C893 1.353 . S
C895 H951 0.930 . S
C896 N897 1.314 . S
C896 C901 1.353 . S
C896 H902 0.930 . S
N897 Li880 1.990 . S
N897 C896 1.314 . S
N897 C899 1.279 . S
C898 C899 1.358 . S
C898 C900 1.356 . S
C898 H952 0.930 . S
C899 N897 1.279 . S
C899 C898 1.358 . S
C899 H903 0.930 . S
C900 C898 1.356 . S
C900 C901 1.348 . S
C901 C896 1.353 . S
C901 C900 1.348 . S
C901 H953 0.929 . S
H902 C896 0.930 . S
H903 C899 0.930 . S
C904 N905 1.314 . S
C904 C906 1.353 . S
C904 H910 0.930 . S
N905 Li881 1.990 . S
N905 C904 1.314 . S
N905 C908 1.279 . S
C906 C904 1.353 . S
C906 C909 1.348 . S
C906 H954 0.929 . S
C907 C908 1.358 . S
C907 C909 1.356 . S
C907 H955 0.930 . S
C908 N905 1.279 . S
C908 C907 1.358 . S
C908 H911 0.930 . S
C909 C906 1.348 . S
C909 C907 1.356 . S
H910 C904 0.930 . S
H911 C908 0.930 . S
C912 C914 1.348 . S
C912 C915 1.356 . S
C912 O942 1.325 . S
N913 C916 1.314 . S
N913 C917 1.279 . S
C914 C912 1.348 . S
C914 C916 1.353 . S
C914 H956 0.929 . S
C915 C912 1.356 . S
C915 C917 1.358 . S
C915 H957 0.930 . S
C916 N913 1.314 . S
C916 C914 1.353 . S
C916 H958 0.930 . S
C917 N913 1.279 . S
C917 C915 1.358 . S
C917 H959 0.930 . S
C918 C919 1.348 . S
C918 C920 1.356 . S
C918 O943 1.325 . S
C919 C918 1.348 . S
C919 C921 1.353 . S
C919 H960 0.929 . S
C920 C918 1.356 . S
C920 C922 1.358 . S
C920 H961 0.930 . S
C921 C919 1.353 . S
C921 N923 1.314 . S
C921 H962 0.930 . S
C922 C920 1.358 . S
C922 N923 1.279 . S
C922 H963 0.930 . S
N923 C921 1.314 . S
N923 C922 1.279 . S
C924 C926 1.353 . S
C924 N927 1.314 . S
C924 H930 0.930 . S
C925 N927 1.279 1_556 S
C925 C928 1.358 1_556 S
C925 H931 0.930 . S
C926 C924 1.353 . S
C926 C929 1.348 . S
C926 H964 0.929 . S
N927 Li882 1.990 . S
N927 C924 1.314 . S
N927 C925 1.279 1_554 S
C928 C925 1.358 1_554 S
C928 C929 1.356 . S
C928 H965 0.930 1_554 S
C929 C926 1.348 . S
C929 C928 1.356 . S
H930 C924 0.930 . S
H931 C925 0.930 . S
C932 N933 1.314 . S
C932 C934 1.353 . S
C932 H938 0.930 . S
N933 Li883 1.990 . S
N933 C932 1.314 . S
N933 C936 1.279 1_556 S
C934 C932 1.353 . S
C934 C937 1.348 . S
C934 H966 0.929 . S
C935 C936 1.358 1_556 S
C935 C937 1.356 . S
C935 H967 0.930 1_556 S
C936 N933 1.279 1_554 S
C936 C935 1.358 1_554 S
C936 H939 0.930 . S
C937 C934 1.348 . S
C937 C935 1.356 . S
H938 C932 0.930 . S
H939 C936 0.930 . S
O940 Li880 1.956 1_554 S
O940 Li881 1.970 . S
O940 Li882 1.961 . S
O940 C884 1.325 . S
O941 Li880 1.970 . S
O941 Li881 1.956 1_556 S
O941 Li883 1.961 . S
O941 C890 1.325 . S
O942 Li880 1.961 . S
O942 Li882 1.956 1_556 S
O942 Li883 1.970 . S
O942 C912 1.325 . S
O943 Li881 1.961 . S
O943 Li882 1.970 . S
O943 Li883 1.956 1_554 S
O943 C918 1.325 . S
H944 C886 0.929 . S
H945 C887 0.930 1_556 S
H946 C888 0.930 . S
H947 C889 0.930 1_556 S
H948 C891 0.930 1_554 S
H949 C893 0.929 . S
H950 C894 0.930 1_554 S
H951 C895 0.930 . S
H952 C898 0.930 . S
H953 C901 0.929 . S
H954 C906 0.929 . S
H955 C907 0.930 . S
H956 C914 0.929 . S
H957 C915 0.930 . S
H958 C916 0.930 . S
H959 C917 0.930 . S
H960 C919 0.929 . S
H961 C920 0.930 . S
H962 C921 0.930 . S
H963 C922 0.930 . S
H964 C926 0.929 . S
H965 C928 0.930 1_556 S
H966 C934 0.929 . S
H967 C935 0.930 1_554 S
Li968 N985 1.990 . S
Li968 O1028 1.956 . S
Li968 O1029 1.970 . S
Li968 O1030 1.961 . S
Li969 N993 1.990 . S
Li969 O1028 1.970 . S
Li969 O1029 1.956 . S
Li969 O1031 1.961 . S
Li970 N1015 1.990 . S
Li970 O1028 1.961 . S
Li970 O1030 1.956 . S
Li970 O1031 1.970 . S
Li971 N1021 1.990 . S
Li971 O1029 1.961 . S
Li971 O1030 1.970 . S
Li971 O1031 1.956 . S
C972 C974 1.348 . S
C972 C975 1.356 . S
C972 O1028 1.325 . S
N973 C976 1.314 . S
N973 C977 1.279 . S
C974 C972 1.348 . S
C974 C976 1.353 . S
C974 H1032 0.929 . S
C975 C972 1.356 . S
C975 C977 1.358 . S
C975 H1033 0.930 . S
C976 N973 1.314 . S
C976 C974 1.353 . S
C976 H1034 0.930 . S
C977 N973 1.279 . S
C977 C975 1.358 . S
C977 H1035 0.930 . S
C978 C981 1.348 . S
C978 C982 1.356 . S
C978 O1029 1.325 . S
C979 N980 1.279 . S
C979 C982 1.358 . S
C979 H1036 0.930 . S
N980 C979 1.279 . S
N980 C983 1.314 . S
C981 C978 1.348 . S
C981 C983 1.353 . S
C981 H1037 0.929 . S
C982 C978 1.356 . S
C982 C979 1.358 . S
C982 H1038 0.930 . S
C983 N980 1.314 . S
C983 C981 1.353 . S
C983 H1039 0.930 . S
C984 N985 1.314 . S
C984 C989 1.353 . S
C984 H990 0.930 . S
N985 Li968 1.990 . S
N985 C984 1.314 . S
N985 C987 1.279 . S
C986 C987 1.358 . S
C986 C988 1.356 . S
C986 H1040 0.930 . S
C987 N985 1.279 . S
C987 C986 1.358 . S
C987 H991 0.930 . S
C988 C986 1.356 . S
C988 C989 1.348 . S
C989 C984 1.353 . S
C989 C988 1.348 . S
C989 H1041 0.929 . S
H990 C984 0.930 . S
H991 C987 0.930 . S
C992 N993 1.314 . S
C992 C994 1.353 . S
C992 H998 0.930 . S
N993 Li969 1.990 . S
N993 C992 1.314 . S
N993 C996 1.279 . S
C994 C992 1.353 . S
C994 C997 1.348 . S
C994 H1042 0.929 . S
C995 C996 1.358 . S
C995 C997 1.356 . S
C995 H1043 0.930 . S
C996 N993 1.279 . S
C996 C995 1.358 . S
C996 H999 0.930 . S
C997 C994 1.348 . S
C997 C995 1.356 . S
H998 C992 0.930 . S
H999 C996 0.930 . S
C1000 C1002 1.348 . S
C1000 C1003 1.356 . S
C1000 O1030 1.325 . S
N1001 C1004 1.314 . S
N1001 C1005 1.279 . S
C1002 C1000 1.348 . S
C1002 C1004 1.353 . S
C1002 H1044 0.929 . S
C1003 C1000 1.356 . S
C1003 C1005 1.358 . S
C1003 H1045 0.930 . S
C1004 N1001 1.314 . S
C1004 C1002 1.353 . S
C1004 H1046 0.930 . S
C1005 N1001 1.279 . S
C1005 C1003 1.358 . S
C1005 H1047 0.930 . S
C1006 C1007 1.348 . S
C1006 C1008 1.356 . S
C1006 O1031 1.325 . S
C1007 C1006 1.348 . S
C1007 C1009 1.353 . S
C1007 H1048 0.929 . S
C1008 C1006 1.356 . S
C1008 C1010 1.358 . S
C1008 H1049 0.930 . S
C1009 C1007 1.353 . S
C1009 N1011 1.314 . S
C1009 H1050 0.930 . S
C1010 C1008 1.358 . S
C1010 N1011 1.279 . S
C1010 H1051 0.930 . S
N1011 C1009 1.314 . S
N1011 C1010 1.279 . S
C1012 C1014 1.353 . S
C1012 N1015 1.314 . S
C1012 H1018 0.930 . S
C1013 N1015 1.279 . S
C1013 C1016 1.358 . S
C1013 H1019 0.930 . S
C1014 C1012 1.353 . S
C1014 C1017 1.348 . S
C1014 H1052 0.929 . S
N1015 Li970 1.990 . S
N1015 C1012 1.314 . S
N1015 C1013 1.279 . S
C1016 C1013 1.358 . S
C1016 C1017 1.356 . S
C1016 H1053 0.930 . S
C1017 C1014 1.348 . S
C1017 C1016 1.356 . S
H1018 C1012 0.930 . S
H1019 C1013 0.930 . S
C1020 N1021 1.314 . S
C1020 C1022 1.353 . S
C1020 H1026 0.930 . S
N1021 Li971 1.990 . S
N1021 C1020 1.314 . S
N1021 C1024 1.279 . S
C1022 C1020 1.353 . S
C1022 C1025 1.348 . S
C1022 H1054 0.929 . S
C1023 C1024 1.358 . S
C1023 C1025 1.356 . S
C1023 H1055 0.930 . S
C1024 N1021 1.279 . S
C1024 C1023 1.358 . S
C1024 H1027 0.930 . S
C1025 C1022 1.348 . S
C1025 C1023 1.356 . S
H1026 C1020 0.930 . S
H1027 C1024 0.930 . S
O1028 Li968 1.956 . S
O1028 Li969 1.970 . S
O1028 Li970 1.961 . S
O1028 C972 1.325 . S
O1029 Li968 1.970 . S
O1029 Li969 1.956 . S
O1029 Li971 1.961 . S
O1029 C978 1.325 . S
O1030 Li968 1.961 . S
O1030 Li970 1.956 . S
O1030 Li971 1.970 . S
O1030 C1000 1.325 . S
O1031 Li969 1.961 . S
O1031 Li970 1.970 . S
O1031 Li971 1.956 . S
O1031 C1006 1.325 . S
H1032 C974 0.929 . S
H1033 C975 0.930 . S
H1034 C976 0.930 . S
H1035 C977 0.930 . S
H1036 C979 0.930 . S
H1037 C981 0.929 . S
H1038 C982 0.930 . S
H1039 C983 0.930 . S
H1040 C986 0.930 . S
H1041 C989 0.929 . S
H1042 C994 0.929 . S
H1043 C995 0.930 . S
H1044 C1002 0.929 . S
H1045 C1003 0.930 . S
H1046 C1004 0.930 . S
H1047 C1005 0.930 . S
H1048 C1007 0.929 . S
H1049 C1008 0.930 . S
H1050 C1009 0.930 . S
H1051 C1010 0.930 . S
H1052 C1014 0.929 . S
H1053 C1016 0.930 . S
H1054 C1022 0.929 . S
H1055 C1023 0.930 . S
Li1056 N1073 1.990 . S
Li1056 O1116 1.956 . S
Li1056 O1117 1.970 . S
Li1056 O1118 1.961 . S
Li1057 N1081 1.990 . S
Li1057 O1116 1.970 . S
Li1057 O1117 1.956 . S
Li1057 O1119 1.961 . S
Li1058 N1103 1.990 . S
Li1058 O1116 1.961 . S
Li1058 O1118 1.956 . S
Li1058 O1119 1.970 . S
Li1059 N1109 1.990 . S
Li1059 O1117 1.961 . S
Li1059 O1118 1.970 . S
Li1059 O1119 1.956 . S
C1060 C1062 1.348 . S
C1060 C1063 1.356 . S
C1060 O1116 1.325 . S
N1061 C1064 1.314 . S
N1061 C1065 1.279 . S
C1062 C1060 1.348 . S
C1062 C1064 1.353 . S
C1062 H1120 0.929 . S
C1063 C1060 1.356 . S
C1063 C1065 1.358 . S
C1063 H1121 0.930 . S
C1064 N1061 1.314 . S
C1064 C1062 1.353 . S
C1064 H1122 0.930 . S
C1065 N1061 1.279 . S
C1065 C1063 1.358 . S
C1065 H1123 0.930 . S
C1066 C1069 1.348 . S
C1066 C1070 1.356 . S
C1066 O1117 1.325 . S
C1067 N1068 1.279 . S
C1067 C1070 1.358 . S
C1067 H1124 0.930 . S
N1068 C1067 1.279 . S
N1068 C1071 1.314 . S
C1069 C1066 1.348 . S
C1069 C1071 1.353 . S
C1069 H1125 0.929 . S
C1070 C1066 1.356 . S
C1070 C1067 1.358 . S
C1070 H1126 0.930 . S
C1071 N1068 1.314 . S
C1071 C1069 1.353 . S
C1071 H1127 0.930 . S
C1072 N1073 1.314 . S
C1072 C1077 1.353 . S
C1072 H1078 0.930 . S
N1073 Li1056 1.990 . S
N1073 C1072 1.314 . S
N1073 C1075 1.279 . S
C1074 C1075 1.358 . S
C1074 C1076 1.356 . S
C1074 H1128 0.930 . S
C1075 N1073 1.279 . S
C1075 C1074 1.358 . S
C1075 H1079 0.930 . S
C1076 C1074 1.356 . S
C1076 C1077 1.348 . S
C1077 C1072 1.353 . S
C1077 C1076 1.348 . S
C1077 H1129 0.929 . S
H1078 C1072 0.930 . S
H1079 C1075 0.930 . S
C1080 N1081 1.314 . S
C1080 C1082 1.353 . S
C1080 H1086 0.930 . S
N1081 Li1057 1.990 . S
N1081 C1080 1.314 . S
N1081 C1084 1.279 . S
C1082 C1080 1.353 . S
C1082 C1085 1.348 . S
C1082 H1130 0.929 . S
C1083 C1084 1.358 . S
C1083 C1085 1.356 . S
C1083 H1131 0.930 . S
C1084 N1081 1.279 . S
C1084 C1083 1.358 . S
C1084 H1087 0.930 . S
C1085 C1082 1.348 . S
C1085 C1083 1.356 . S
H1086 C1080 0.930 . S
H1087 C1084 0.930 . S
C1088 C1090 1.348 . S
C1088 C1091 1.356 . S
C1088 O1118 1.325 . S
N1089 C1092 1.314 . S
N1089 C1093 1.279 . S
C1090 C1088 1.348 . S
C1090 C1092 1.353 . S
C1090 H1132 0.929 . S
C1091 C1088 1.356 . S
C1091 C1093 1.358 . S
C1091 H1133 0.930 . S
C1092 N1089 1.314 . S
C1092 C1090 1.353 . S
C1092 H1134 0.930 . S
C1093 N1089 1.279 . S
C1093 C1091 1.358 . S
C1093 H1135 0.930 . S
C1094 C1095 1.348 . S
C1094 C1096 1.356 . S
C1094 O1119 1.325 . S
C1095 C1094 1.348 . S
C1095 C1097 1.353 . S
C1095 H1136 0.929 . S
C1096 C1094 1.356 . S
C1096 C1098 1.358 . S
C1096 H1137 0.930 . S
C1097 C1095 1.353 . S
C1097 N1099 1.314 . S
C1097 H1138 0.930 . S
C1098 C1096 1.358 . S
C1098 N1099 1.279 . S
C1098 H1139 0.930 . S
N1099 C1097 1.314 . S
N1099 C1098 1.279 . S
C1100 C1102 1.353 . S
C1100 N1103 1.314 . S
C1100 H1106 0.930 . S
C1101 N1103 1.279 . S
C1101 C1104 1.358 . S
C1101 H1107 0.930 . S
C1102 C1100 1.353 . S
C1102 C1105 1.348 . S
C1102 H1140 0.929 . S
N1103 Li1058 1.990 . S
N1103 C1100 1.314 . S
N1103 C1101 1.279 . S
C1104 C1101 1.358 . S
C1104 C1105 1.356 . S
C1104 H1141 0.930 . S
C1105 C1102 1.348 . S
C1105 C1104 1.356 . S
H1106 C1100 0.930 . S
H1107 C1101 0.930 . S
C1108 N1109 1.314 . S
C1108 C1110 1.353 . S
C1108 H1114 0.930 . S
N1109 Li1059 1.990 . S
N1109 C1108 1.314 . S
N1109 C1112 1.279 . S
C1110 C1108 1.353 . S
C1110 C1113 1.348 . S
C1110 H1142 0.929 . S
C1111 C1112 1.358 . S
C1111 C1113 1.356 . S
C1111 H1143 0.930 . S
C1112 N1109 1.279 . S
C1112 C1111 1.358 . S
C1112 H1115 0.930 . S
C1113 C1110 1.348 . S
C1113 C1111 1.356 . S
H1114 C1108 0.930 . S
H1115 C1112 0.930 . S
O1116 Li1056 1.956 . S
O1116 Li1057 1.970 . S
O1116 Li1058 1.961 . S
O1116 C1060 1.325 . S
O1117 Li1056 1.970 . S
O1117 Li1057 1.956 . S
O1117 Li1059 1.961 . S
O1117 C1066 1.325 . S
O1118 Li1056 1.961 . S
O1118 Li1058 1.956 . S
O1118 Li1059 1.970 . S
O1118 C1088 1.325 . S
O1119 Li1057 1.961 . S
O1119 Li1058 1.970 . S
O1119 Li1059 1.956 . S
O1119 C1094 1.325 . S
H1120 C1062 0.929 . S
H1121 C1063 0.930 . S
H1122 C1064 0.930 . S
H1123 C1065 0.930 . S
H1124 C1067 0.930 . S
H1125 C1069 0.929 . S
H1126 C1070 0.930 . S
H1127 C1071 0.930 . S
H1128 C1074 0.930 . S
H1129 C1077 0.929 . S
H1130 C1082 0.929 . S
H1131 C1083 0.930 . S
H1132 C1090 0.929 . S
H1133 C1091 0.930 . S
H1134 C1092 0.930 . S
H1135 C1093 0.930 . S
H1136 C1095 0.929 . S
H1137 C1096 0.930 . S
H1138 C1097 0.930 . S
H1139 C1098 0.930 . S
H1140 C1102 0.929 . S
H1141 C1104 0.930 . S
H1142 C1110 0.929 . S
H1143 C1111 0.930 . S
Li1144 N1161 1.990 . S
Li1144 O1204 1.956 . S
Li1144 O1205 1.970 . S
Li1144 O1206 1.961 . S
Li1145 N1169 1.990 . S
Li1145 O1204 1.970 . S
Li1145 O1205 1.956 . S
Li1145 O1207 1.961 . S
Li1146 N1191 1.990 . S
Li1146 O1204 1.961 . S
Li1146 O1206 1.956 . S
Li1146 O1207 1.970 . S
Li1147 N1197 1.990 . S
Li1147 O1205 1.961 . S
Li1147 O1206 1.970 . S
Li1147 O1207 1.956 . S
C1148 C1150 1.348 . S
C1148 C1151 1.356 . S
C1148 O1204 1.325 . S
N1149 C1152 1.314 . S
N1149 C1153 1.279 . S
C1150 C1148 1.348 . S
C1150 C1152 1.353 . S
C1150 H1208 0.929 . S
C1151 C1148 1.356 . S
C1151 C1153 1.358 . S
C1151 H1209 0.930 . S
C1152 N1149 1.314 . S
C1152 C1150 1.353 . S
C1152 H1210 0.930 . S
C1153 N1149 1.279 . S
C1153 C1151 1.358 . S
C1153 H1211 0.930 . S
C1154 C1157 1.348 . S
C1154 C1158 1.356 . S
C1154 O1205 1.325 . S
C1155 N1156 1.279 . S
C1155 C1158 1.358 . S
C1155 H1212 0.930 . S
N1156 C1155 1.279 . S
N1156 C1159 1.314 . S
C1157 C1154 1.348 . S
C1157 C1159 1.353 . S
C1157 H1213 0.929 . S
C1158 C1154 1.356 . S
C1158 C1155 1.358 . S
C1158 H1214 0.930 . S
C1159 N1156 1.314 . S
C1159 C1157 1.353 . S
C1159 H1215 0.930 . S
C1160 N1161 1.314 . S
C1160 C1165 1.353 . S
C1160 H1166 0.930 . S
N1161 Li1144 1.990 . S
N1161 C1160 1.314 . S
N1161 C1163 1.279 . S
C1162 C1163 1.358 . S
C1162 C1164 1.356 . S
C1162 H1216 0.930 . S
C1163 N1161 1.279 . S
C1163 C1162 1.358 . S
C1163 H1167 0.930 . S
C1164 C1162 1.356 . S
C1164 C1165 1.348 . S
C1165 C1160 1.353 . S
C1165 C1164 1.348 . S
C1165 H1217 0.929 . S
H1166 C1160 0.930 . S
H1167 C1163 0.930 . S
C1168 N1169 1.314 . S
C1168 C1170 1.353 . S
C1168 H1174 0.930 . S
N1169 Li1145 1.990 . S
N1169 C1168 1.314 . S
N1169 C1172 1.279 . S
C1170 C1168 1.353 . S
C1170 C1173 1.348 . S
C1170 H1218 0.929 . S
C1171 C1172 1.358 . S
C1171 C1173 1.356 . S
C1171 H1219 0.930 . S
C1172 N1169 1.279 . S
C1172 C1171 1.358 . S
C1172 H1175 0.930 . S
C1173 C1170 1.348 . S
C1173 C1171 1.356 . S
H1174 C1168 0.930 . S
H1175 C1172 0.930 . S
C1176 C1178 1.348 . S
C1176 C1179 1.356 . S
C1176 O1206 1.325 . S
N1177 C1180 1.314 . S
N1177 C1181 1.279 . S
C1178 C1176 1.348 . S
C1178 C1180 1.353 . S
C1178 H1220 0.929 . S
C1179 C1176 1.356 . S
C1179 C1181 1.358 . S
C1179 H1221 0.930 . S
C1180 N1177 1.314 . S
C1180 C1178 1.353 . S
C1180 H1222 0.930 . S
C1181 N1177 1.279 . S
C1181 C1179 1.358 . S
C1181 H1223 0.930 . S
C1182 C1183 1.348 . S
C1182 C1184 1.356 . S
C1182 O1207 1.325 . S
C1183 C1182 1.348 . S
C1183 C1185 1.353 . S
C1183 H1224 0.929 . S
C1184 C1182 1.356 . S
C1184 C1186 1.358 . S
C1184 H1225 0.930 . S
C1185 C1183 1.353 . S
C1185 N1187 1.314 . S
C1185 H1226 0.930 . S
C1186 C1184 1.358 . S
C1186 N1187 1.279 . S
C1186 H1227 0.930 . S
N1187 C1185 1.314 . S
N1187 C1186 1.279 . S
C1188 C1190 1.353 . S
C1188 N1191 1.314 . S
C1188 H1194 0.930 . S
C1189 N1191 1.279 . S
C1189 C1192 1.358 . S
C1189 H1195 0.930 . S
C1190 C1188 1.353 . S
C1190 C1193 1.348 . S
C1190 H1228 0.929 . S
N1191 Li1146 1.990 . S
N1191 C1188 1.314 . S
N1191 C1189 1.279 . S
C1192 C1189 1.358 . S
C1192 C1193 1.356 . S
C1192 H1229 0.930 . S
C1193 C1190 1.348 . S
C1193 C1192 1.356 . S
H1194 C1188 0.930 . S
H1195 C1189 0.930 . S
C1196 N1197 1.314 . S
C1196 C1198 1.353 . S
C1196 H1202 0.930 . S
N1197 Li1147 1.990 . S
N1197 C1196 1.314 . S
N1197 C1200 1.279 . S
C1198 C1196 1.353 . S
C1198 C1201 1.348 . S
C1198 H1230 0.929 . S
C1199 C1200 1.358 . S
C1199 C1201 1.356 . S
C1199 H1231 0.930 . S
C1200 N1197 1.279 . S
C1200 C1199 1.358 . S
C1200 H1203 0.930 . S
C1201 C1198 1.348 . S
C1201 C1199 1.356 . S
H1202 C1196 0.930 . S
H1203 C1200 0.930 . S
O1204 Li1144 1.956 . S
O1204 Li1145 1.970 . S
O1204 Li1146 1.961 . S
O1204 C1148 1.325 . S
O1205 Li1144 1.970 . S
O1205 Li1145 1.956 . S
O1205 Li1147 1.961 . S
O1205 C1154 1.325 . S
O1206 Li1144 1.961 . S
O1206 Li1146 1.956 . S
O1206 Li1147 1.970 . S
O1206 C1176 1.325 . S
O1207 Li1145 1.961 . S
O1207 Li1146 1.970 . S
O1207 Li1147 1.956 . S
O1207 C1182 1.325 . S
H1208 C1150 0.929 . S
H1209 C1151 0.930 . S
H1210 C1152 0.930 . S
H1211 C1153 0.930 . S
H1212 C1155 0.930 . S
H1213 C1157 0.929 . S
H1214 C1158 0.930 . S
H1215 C1159 0.930 . S
H1216 C1162 0.930 . S
H1217 C1165 0.929 . S
H1218 C1170 0.929 . S
H1219 C1171 0.930 . S
H1220 C1178 0.929 . S
H1221 C1179 0.930 . S
H1222 C1180 0.930 . S
H1223 C1181 0.930 . S
H1224 C1183 0.929 . S
H1225 C1184 0.930 . S
H1226 C1185 0.930 . S
H1227 C1186 0.930 . S
H1228 C1190 0.929 . S
H1229 C1192 0.930 . S
H1230 C1198 0.929 . S
H1231 C1199 0.930 . S
Li1232 N1249 1.990 . S
Li1232 O1292 1.956 . S
Li1232 O1293 1.970 . S
Li1232 O1294 1.961 1_554 S
Li1233 N1257 1.990 . S
Li1233 O1292 1.970 . S
Li1233 O1293 1.956 . S
Li1233 O1295 1.961 1_554 S
Li1234 N1279 1.990 . S
Li1234 O1292 1.961 1_556 S
Li1234 O1294 1.956 . S
Li1234 O1295 1.970 . S
Li1235 N1285 1.990 . S
Li1235 O1293 1.961 1_556 S
Li1235 O1294 1.970 . S
Li1235 O1295 1.956 . S
C1236 C1238 1.348 . S
C1236 C1239 1.356 . S
C1236 O1292 1.325 . S
N1237 C1240 1.314 . S
N1237 C1241 1.279 . S
C1238 C1236 1.348 . S
C1238 C1240 1.353 . S
C1238 H1296 0.929 . S
C1239 C1236 1.356 . S
C1239 C1241 1.358 . S
C1239 H1297 0.930 . S
C1240 N1237 1.314 . S
C1240 C1238 1.353 . S
C1240 H1298 0.930 . S
C1241 N1237 1.279 . S
C1241 C1239 1.358 . S
C1241 H1299 0.930 . S
C1242 C1245 1.348 . S
C1242 C1246 1.356 1_554 S
C1242 O1293 1.325 . S
C1243 N1244 1.279 . S
C1243 C1246 1.358 1_554 S
C1243 H1300 0.930 1_554 S
N1244 C1243 1.279 . S
N1244 C1247 1.314 . S
C1245 C1242 1.348 . S
C1245 C1247 1.353 . S
C1245 H1301 0.929 . S
C1246 C1242 1.356 1_556 S
C1246 C1243 1.358 1_556 S
C1246 H1302 0.930 . S
C1247 N1244 1.314 . S
C1247 C1245 1.353 . S
C1247 H1303 0.930 . S
C1248 N1249 1.314 . S
C1248 C1253 1.353 . S
C1248 H1254 0.930 . S
N1249 Li1232 1.990 . S
N1249 C1248 1.314 . S
N1249 C1251 1.279 . S
C1250 C1251 1.358 . S
C1250 C1252 1.356 . S
C1250 H1304 0.930 . S
C1251 N1249 1.279 . S
C1251 C1250 1.358 . S
C1251 H1255 0.930 . S
C1252 C1250 1.356 . S
C1252 C1253 1.348 . S
C1253 C1248 1.353 . S
C1253 C1252 1.348 . S
C1253 H1305 0.929 . S
H1254 C1248 0.930 . S
H1255 C1251 0.930 . S
C1256 N1257 1.314 . S
C1256 C1258 1.353 . S
C1256 H1262 0.930 1_554 S
N1257 Li1233 1.990 . S
N1257 C1256 1.314 . S
N1257 C1260 1.279 . S
C1258 C1256 1.353 . S
C1258 C1261 1.348 . S
C1258 H1306 0.929 . S
C1259 C1260 1.358 . S
C1259 C1261 1.356 . S
C1259 H1307 0.930 . S
C1260 N1257 1.279 . S
C1260 C1259 1.358 . S
C1260 H1263 0.930 . S
C1261 C1258 1.348 . S
C1261 C1259 1.356 . S
H1262 C1256 0.930 1_556 S
H1263 C1260 0.930 . S
C1264 C1266 1.348 . S
C1264 C1267 1.356 1_556 S
C1264 O1294 1.325 . S
N1265 C1268 1.314 . S
N1265 C1269 1.279 . S
C1266 C1264 1.348 . S
C1266 C1268 1.353 . S
C1266 H1308 0.929 . S
C1267 C1264 1.356 1_554 S
C1267 C1269 1.358 1_554 S
C1267 H1309 0.930 . S
C1268 N1265 1.314 . S
C1268 C1266 1.353 . S
C1268 H1310 0.930 . S
C1269 N1265 1.279 . S
C1269 C1267 1.358 1_556 S
C1269 H1311 0.930 1_556 S
C1270 C1271 1.348 . S
C1270 C1272 1.356 . S
C1270 O1295 1.325 . S
C1271 C1270 1.348 . S
C1271 C1273 1.353 . S
C1271 H1312 0.929 . S
C1272 C1270 1.356 . S
C1272 C1274 1.358 . S
C1272 H1313 0.930 . S
C1273 C1271 1.353 . S
C1273 N1275 1.314 . S
C1273 H1314 0.930 . S
C1274 C1272 1.358 . S
C1274 N1275 1.279 . S
C1274 H1315 0.930 . S
N1275 C1273 1.314 . S
N1275 C1274 1.279 . S
C1276 C1278 1.353 . S
C1276 N1279 1.314 . S
C1276 H1282 0.930 1_556 S
C1277 N1279 1.279 . S
C1277 C1280 1.358 . S
C1277 H1283 0.930 . S
C1278 C1276 1.353 . S
C1278 C1281 1.348 . S
C1278 H1316 0.929 . S
N1279 Li1234 1.990 . S
N1279 C1276 1.314 . S
N1279 C1277 1.279 . S
C1280 C1277 1.358 . S
C1280 C1281 1.356 . S
C1280 H1317 0.930 . S
C1281 C1278 1.348 . S
C1281 C1280 1.356 . S
H1282 C1276 0.930 1_554 S
H1283 C1277 0.930 . S
C1284 N1285 1.314 . S
C1284 C1286 1.353 . S
C1284 H1290 0.930 . S
N1285 Li1235 1.990 . S
N1285 C1284 1.314 . S
N1285 C1288 1.279 . S
C1286 C1284 1.353 . S
C1286 C1289 1.348 . S
C1286 H1318 0.929 . S
C1287 C1288 1.358 . S
C1287 C1289 1.356 . S
C1287 H1319 0.930 . S
C1288 N1285 1.279 . S
C1288 C1287 1.358 . S
C1288 H1291 0.930 . S
C1289 C1286 1.348 . S
C1289 C1287 1.356 . S
H1290 C1284 0.930 . S
H1291 C1288 0.930 . S
O1292 Li1232 1.956 . S
O1292 Li1233 1.970 . S
O1292 Li1234 1.961 1_554 S
O1292 C1236 1.325 . S
O1293 Li1232 1.970 . S
O1293 Li1233 1.956 . S
O1293 Li1235 1.961 1_554 S
O1293 C1242 1.325 . S
O1294 Li1232 1.961 1_556 S
O1294 Li1234 1.956 . S
O1294 Li1235 1.970 . S
O1294 C1264 1.325 . S
O1295 Li1233 1.961 1_556 S
O1295 Li1234 1.970 . S
O1295 Li1235 1.956 . S
O1295 C1270 1.325 . S
H1296 C1238 0.929 . S
H1297 C1239 0.930 . S
H1298 C1240 0.930 . S
H1299 C1241 0.930 . S
H1300 C1243 0.930 1_556 S
H1301 C1245 0.929 . S
H1302 C1246 0.930 . S
H1303 C1247 0.930 . S
H1304 C1250 0.930 . S
H1305 C1253 0.929 . S
H1306 C1258 0.929 . S
H1307 C1259 0.930 . S
H1308 C1266 0.929 . S
H1309 C1267 0.930 . S
H1310 C1268 0.930 . S
H1311 C1269 0.930 1_554 S
H1312 C1271 0.929 . S
H1313 C1272 0.930 . S
H1314 C1273 0.930 . S
H1315 C1274 0.930 . S
H1316 C1278 0.929 . S
H1317 C1280 0.930 . S
H1318 C1286 0.929 . S
H1319 C1287 0.930 . S
Li1320 N1337 1.990 . S
Li1320 O1380 1.956 . S
Li1320 O1381 1.970 . S
Li1320 O1382 1.961 . S
Li1321 N1345 1.990 . S
Li1321 O1380 1.970 . S
Li1321 O1381 1.956 . S
Li1321 O1383 1.961 . S
Li1322 N1367 1.990 . S
Li1322 O1380 1.961 . S
Li1322 O1382 1.956 . S
Li1322 O1383 1.970 . S
Li1323 N1373 1.990 . S
Li1323 O1381 1.961 . S
Li1323 O1382 1.970 . S
Li1323 O1383 1.956 . S
C1324 C1326 1.348 . S
C1324 C1327 1.356 . S
C1324 O1380 1.325 . S
N1325 C1328 1.314 . S
N1325 C1329 1.279 . S
C1326 C1324 1.348 . S
C1326 C1328 1.353 . S
C1326 H1384 0.929 . S
C1327 C1324 1.356 . S
C1327 C1329 1.358 . S
C1327 H1385 0.930 . S
C1328 N1325 1.314 . S
C1328 C1326 1.353 . S
C1328 H1386 0.930 . S
C1329 N1325 1.279 . S
C1329 C1327 1.358 . S
C1329 H1387 0.930 . S
C1330 C1333 1.348 . S
C1330 C1334 1.356 . S
C1330 O1381 1.325 . S
C1331 N1332 1.279 . S
C1331 C1334 1.358 . S
C1331 H1388 0.930 . S
N1332 C1331 1.279 . S
N1332 C1335 1.314 . S
C1333 C1330 1.348 . S
C1333 C1335 1.353 . S
C1333 H1389 0.929 . S
C1334 C1330 1.356 . S
C1334 C1331 1.358 . S
C1334 H1390 0.930 . S
C1335 N1332 1.314 . S
C1335 C1333 1.353 . S
C1335 H1391 0.930 . S
C1336 N1337 1.314 . S
C1336 C1341 1.353 . S
C1336 H1342 0.930 . S
N1337 Li1320 1.990 . S
N1337 C1336 1.314 . S
N1337 C1339 1.279 . S
C1338 C1339 1.358 . S
C1338 C1340 1.356 . S
C1338 H1392 0.930 . S
C1339 N1337 1.279 . S
C1339 C1338 1.358 . S
C1339 H1343 0.930 . S
C1340 C1338 1.356 . S
C1340 C1341 1.348 . S
C1341 C1336 1.353 . S
C1341 C1340 1.348 . S
C1341 H1393 0.929 . S
H1342 C1336 0.930 . S
H1343 C1339 0.930 . S
C1344 N1345 1.314 . S
C1344 C1346 1.353 . S
C1344 H1350 0.930 . S
N1345 Li1321 1.990 . S
N1345 C1344 1.314 . S
N1345 C1348 1.279 . S
C1346 C1344 1.353 . S
C1346 C1349 1.348 . S
C1346 H1394 0.929 . S
C1347 C1348 1.358 . S
C1347 C1349 1.356 . S
C1347 H1395 0.930 . S
C1348 N1345 1.279 . S
C1348 C1347 1.358 . S
C1348 H1351 0.930 . S
C1349 C1346 1.348 . S
C1349 C1347 1.356 . S
H1350 C1344 0.930 . S
H1351 C1348 0.930 . S
C1352 C1354 1.348 . S
C1352 C1355 1.356 . S
C1352 O1382 1.325 . S
N1353 C1356 1.314 . S
N1353 C1357 1.279 . S
C1354 C1352 1.348 . S
C1354 C1356 1.353 . S
C1354 H1396 0.929 . S
C1355 C1352 1.356 . S
C1355 C1357 1.358 . S
C1355 H1397 0.930 . S
C1356 N1353 1.314 . S
C1356 C1354 1.353 . S
C1356 H1398 0.930 . S
C1357 N1353 1.279 . S
C1357 C1355 1.358 . S
C1357 H1399 0.930 . S
C1358 C1359 1.348 . S
C1358 C1360 1.356 . S
C1358 O1383 1.325 . S
C1359 C1358 1.348 . S
C1359 C1361 1.353 . S
C1359 H1400 0.929 . S
C1360 C1358 1.356 . S
C1360 C1362 1.358 . S
C1360 H1401 0.930 . S
C1361 C1359 1.353 . S
C1361 N1363 1.314 . S
C1361 H1402 0.930 . S
C1362 C1360 1.358 . S
C1362 N1363 1.279 . S
C1362 H1403 0.930 . S
N1363 C1361 1.314 . S
N1363 C1362 1.279 . S
C1364 C1366 1.353 . S
C1364 N1367 1.314 . S
C1364 H1370 0.930 . S
C1365 N1367 1.279 . S
C1365 C1368 1.358 . S
C1365 H1371 0.930 . S
C1366 C1364 1.353 . S
C1366 C1369 1.348 . S
C1366 H1404 0.929 . S
N1367 Li1322 1.990 . S
N1367 C1364 1.314 . S
N1367 C1365 1.279 . S
C1368 C1365 1.358 . S
C1368 C1369 1.356 . S
C1368 H1405 0.930 . S
C1369 C1366 1.348 . S
C1369 C1368 1.356 . S
H1370 C1364 0.930 . S
H1371 C1365 0.930 . S
C1372 N1373 1.314 . S
C1372 C1374 1.353 . S
C1372 H1378 0.930 . S
N1373 Li1323 1.990 . S
N1373 C1372 1.314 . S
N1373 C1376 1.279 . S
C1374 C1372 1.353 . S
C1374 C1377 1.348 . S
C1374 H1406 0.929 . S
C1375 C1376 1.358 . S
C1375 C1377 1.356 . S
C1375 H1407 0.930 . S
C1376 N1373 1.279 . S
C1376 C1375 1.358 . S
C1376 H1379 0.930 . S
C1377 C1374 1.348 . S
C1377 C1375 1.356 . S
H1378 C1372 0.930 . S
H1379 C1376 0.930 . S
O1380 Li1320 1.956 . S
O1380 Li1321 1.970 . S
O1380 Li1322 1.961 . S
O1380 C1324 1.325 . S
O1381 Li1320 1.970 . S
O1381 Li1321 1.956 . S
O1381 Li1323 1.961 . S
O1381 C1330 1.325 . S
O1382 Li1320 1.961 . S
O1382 Li1322 1.956 . S
O1382 Li1323 1.970 . S
O1382 C1352 1.325 . S
O1383 Li1321 1.961 . S
O1383 Li1322 1.970 . S
O1383 Li1323 1.956 . S
O1383 C1358 1.325 . S
H1384 C1326 0.929 . S
H1385 C1327 0.930 . S
H1386 C1328 0.930 . S
H1387 C1329 0.930 . S
H1388 C1331 0.930 . S
H1389 C1333 0.929 . S
H1390 C1334 0.930 . S
H1391 C1335 0.930 . S
H1392 C1338 0.930 . S
H1393 C1341 0.929 . S
H1394 C1346 0.929 . S
H1395 C1347 0.930 . S
H1396 C1354 0.929 . S
H1397 C1355 0.930 . S
H1398 C1356 0.930 . S
H1399 C1357 0.930 . S
H1400 C1359 0.929 . S
H1401 C1360 0.930 . S
H1402 C1361 0.930 . S
H1403 C1362 0.930 . S
H1404 C1366 0.929 . S
H1405 C1368 0.930 . S
H1406 C1374 0.929 . S
H1407 C1375 0.930 . S
C1408 C1409 1.369 . S
C1408 C1410 1.419 . S
C1408 H1412 0.930 . S
C1409 C1408 1.369 . S
C1409 C1418 1.429 . S
C1410 C1408 1.419 . S
C1410 C1411 1.363 . S
C1410 H1413 0.929 . S
C1411 C1410 1.363 . S
C1411 C1417 1.428 . S
H1412 C1408 0.930 . S
H1413 C1410 0.929 . S
S1414 N1415 1.613 . S
S1414 N1416 1.610 . S
N1415 S1414 1.613 . S
N1415 C1418 1.350 . S
N1416 S1414 1.610 . S
N1416 C1417 1.351 . S
C1417 C1411 1.428 . S
C1417 N1416 1.351 . S
C1417 C1418 1.434 . S
C1418 C1409 1.429 . S
C1418 N1415 1.350 . S
C1418 C1417 1.434 . S
C1419 C1420 1.369 1_565 S
C1419 C1421 1.419 . S
C1419 H1423 0.930 . S
C1420 C1419 1.369 1_545 S
C1420 C1429 1.429 1_655 S
C1421 C1419 1.419 . S
C1421 C1422 1.363 1_655 S
C1421 H1424 0.929 . S
C1422 C1421 1.363 1_455 S
C1422 C1428 1.428 1_565 S
H1423 C1419 0.930 . S
H1424 C1421 0.929 . S
S1425 N1426 1.613 . S
S1425 N1427 1.610 . S
N1426 S1425 1.613 . S
N1426 C1429 1.350 . S
N1427 S1425 1.610 . S
N1427 C1428 1.351 . S
C1428 C1422 1.428 1_545 S
C1428 N1427 1.351 . S
C1428 C1429 1.434 . S
C1429 C1420 1.429 1_455 S
C1429 N1426 1.350 . S
C1429 C1428 1.434 . S
C1430 C1431 1.369 . S
C1430 C1432 1.419 . S
C1430 H1434 0.930 . S
C1431 C1430 1.369 . S
C1431 C1440 1.429 . S
C1432 C1430 1.419 . S
C1432 C1433 1.363 . S
C1432 H1435 0.929 . S
C1433 C1432 1.363 . S
C1433 C1439 1.428 . S
H1434 C1430 0.930 . S
H1435 C1432 0.929 . S
S1436 N1437 1.613 . S
S1436 N1438 1.610 . S
N1437 S1436 1.613 . S
N1437 C1440 1.350 . S
N1438 S1436 1.610 . S
N1438 C1439 1.351 . S
C1439 C1433 1.428 . S
C1439 N1438 1.351 . S
C1439 C1440 1.434 . S
C1440 C1431 1.429 . S
C1440 N1437 1.350 . S
C1440 C1439 1.434 . S
C1441 C1442 1.369 1_556 S
C1441 C1443 1.419 1_545 S
C1441 H1445 0.930 . S
C1442 C1441 1.369 1_554 S
C1442 C1451 1.429 . S
C1443 C1441 1.419 1_565 S
C1443 C1444 1.363 . S
C1443 H1446 0.929 . S
C1444 C1443 1.363 . S
C1444 C1450 1.428 1_556 S
H1445 C1441 0.930 . S
H1446 C1443 0.929 . S
S1447 N1448 1.613 . S
S1447 N1449 1.610 1_545 S
N1448 S1447 1.613 . S
N1448 C1451 1.350 . S
N1449 S1447 1.610 1_565 S
N1449 C1450 1.351 . S
C1450 C1444 1.428 1_554 S
C1450 N1449 1.351 . S
C1450 C1451 1.434 1_565 S
C1451 C1442 1.429 . S
C1451 N1448 1.350 . S
C1451 C1450 1.434 1_545 S
C1452 C1453 1.369 . S
C1452 C1454 1.419 . S
C1452 H1456 0.930 . S
C1453 C1452 1.369 . S
C1453 C1462 1.429 . S
C1454 C1452 1.419 . S
C1454 C1455 1.363 . S
C1454 H1457 0.929 . S
C1455 C1454 1.363 . S
C1455 C1461 1.428 . S
H1456 C1452 0.930 . S
H1457 C1454 0.929 . S
S1458 N1459 1.613 . S
S1458 N1460 1.610 . S
N1459 S1458 1.613 . S
N1459 C1462 1.350 . S
N1460 S1458 1.610 . S
N1460 C1461 1.351 . S
C1461 C1455 1.428 . S
C1461 N1460 1.351 . S
C1461 C1462 1.434 . S
C1462 C1453 1.429 . S
C1462 N1459 1.350 . S
C1462 C1461 1.434 . S
C1463 C1464 1.369 . S
C1463 C1465 1.419 . S
C1463 H1467 0.930 . S
C1464 C1463 1.369 . S
C1464 C1473 1.429 1_565 S
C1465 C1463 1.419 . S
C1465 C1466 1.363 1_565 S
C1465 H1468 0.929 . S
C1466 C1465 1.363 1_545 S
C1466 C1472 1.428 . S
H1467 C1463 0.930 . S
H1468 C1465 0.929 . S
S1469 N1470 1.613 . S
S1469 N1471 1.610 . S
N1470 S1469 1.613 . S
N1470 C1473 1.350 . S
N1471 S1469 1.610 . S
N1471 C1472 1.351 . S
C1472 C1466 1.428 . S
C1472 N1471 1.351 . S
C1472 C1473 1.434 . S
C1473 C1464 1.429 1_545 S
C1473 N1470 1.350 . S
C1473 C1472 1.434 . S
C1474 C1475 1.369 . S
C1474 C1476 1.419 . S
C1474 H1478 0.930 . S
C1475 C1474 1.369 . S
C1475 C1484 1.429 . S
C1476 C1474 1.419 . S
C1476 C1477 1.363 . S
C1476 H1479 0.929 . S
C1477 C1476 1.363 . S
C1477 C1483 1.428 . S
H1478 C1474 0.930 . S
H1479 C1476 0.929 . S
S1480 N1481 1.613 . S
S1480 N1482 1.610 . S
N1481 S1480 1.613 . S
N1481 C1484 1.350 . S
N1482 S1480 1.610 . S
N1482 C1483 1.351 . S
C1483 C1477 1.428 . S
C1483 N1482 1.351 . S
C1483 C1484 1.434 . S
C1484 C1475 1.429 . S
C1484 N1481 1.350 . S
C1484 C1483 1.434 . S
C1485 C1486 1.369 1_565 S
C1485 C1487 1.419 1_556 S
C1485 H1489 0.930 . S
C1486 C1485 1.369 1_545 S
C1486 C1495 1.429 1_455 S
C1487 C1485 1.419 1_554 S
C1487 C1488 1.363 1_455 S
C1487 H1490 0.929 . S
C1488 C1487 1.363 1_655 S
C1488 C1494 1.428 1_565 S
H1489 C1485 0.930 . S
H1490 C1487 0.929 . S
S1491 N1492 1.613 1_554 S
S1491 N1493 1.610 . S
N1492 S1491 1.613 1_556 S
N1492 C1495 1.350 . S
N1493 S1491 1.610 . S
N1493 C1494 1.351 . S
C1494 C1488 1.428 1_545 S
C1494 N1493 1.351 . S
C1494 C1495 1.434 1_554 S
C1495 C1486 1.429 1_655 S
C1495 N1492 1.350 . S
C1495 C1494 1.434 1_556 S
C1496 C1497 1.369 . S
C1496 C1498 1.419 . S
C1496 H1500 0.930 . S
C1497 C1496 1.369 . S
C1497 C1506 1.429 . S
C1498 C1496 1.419 . S
C1498 C1499 1.363 . S
C1498 H1501 0.929 . S
C1499 C1498 1.363 . S
C1499 C1505 1.428 . S
H1500 C1496 0.930 . S
H1501 C1498 0.929 . S
S1502 N1503 1.613 . S
S1502 N1504 1.610 . S
N1503 S1502 1.613 . S
N1503 C1506 1.350 . S
N1504 S1502 1.610 . S
N1504 C1505 1.351 . S
C1505 C1499 1.428 . S
C1505 N1504 1.351 . S
C1505 C1506 1.434 . S
C1506 C1497 1.429 . S
C1506 N1503 1.350 . S
C1506 C1505 1.434 . S
C1507 C1508 1.369 . S
C1507 C1509 1.419 . S
C1507 H1511 0.930 . S
C1508 C1507 1.369 . S
C1508 C1517 1.429 . S
C1509 C1507 1.419 . S
C1509 C1510 1.363 . S
C1509 H1512 0.929 . S
C1510 C1509 1.363 . S
C1510 C1516 1.428 . S
H1511 C1507 0.930 . S
H1512 C1509 0.929 . S
S1513 N1514 1.613 . S
S1513 N1515 1.610 . S
N1514 S1513 1.613 . S
N1514 C1517 1.350 . S
N1515 S1513 1.610 . S
N1515 C1516 1.351 . S
C1516 C1510 1.428 . S
C1516 N1515 1.351 . S
C1516 C1517 1.434 . S
C1517 C1508 1.429 . S
C1517 N1514 1.350 . S
C1517 C1516 1.434 . S
C1518 C1519 1.369 . S
C1518 C1520 1.419 . S
C1518 H1522 0.930 . S
C1519 C1518 1.369 . S
C1519 C1528 1.429 . S
C1520 C1518 1.419 . S
C1520 C1521 1.363 . S
C1520 H1523 0.929 . S
C1521 C1520 1.363 . S
C1521 C1527 1.428 . S
H1522 C1518 0.930 . S
H1523 C1520 0.929 . S
S1524 N1525 1.613 . S
S1524 N1526 1.610 . S
N1525 S1524 1.613 . S
N1525 C1528 1.350 . S
N1526 S1524 1.610 . S
N1526 C1527 1.351 . S
C1527 C1521 1.428 . S
C1527 N1526 1.351 . S
C1527 C1528 1.434 . S
C1528 C1519 1.429 . S
C1528 N1525 1.350 . S
C1528 C1527 1.434 . S
C1529 C1530 1.369 . S
C1529 C1531 1.419 . S
C1529 H1533 0.930 . S
C1530 C1529 1.369 . S
C1530 C1539 1.429 . S
C1531 C1529 1.419 . S
C1531 C1532 1.363 . S
C1531 H1534 0.929 . S
C1532 C1531 1.363 . S
C1532 C1538 1.428 . S
H1533 C1529 0.930 . S
H1534 C1531 0.929 . S
S1535 N1536 1.613 . S
S1535 N1537 1.610 . S
N1536 S1535 1.613 . S
N1536 C1539 1.350 . S
N1537 S1535 1.610 . S
N1537 C1538 1.351 . S
C1538 C1532 1.428 . S
C1538 N1537 1.351 . S
C1538 C1539 1.434 . S
C1539 C1530 1.429 . S
C1539 N1536 1.350 . S
C1539 C1538 1.434 . S
C1540 C1541 1.369 . S
C1540 C1542 1.419 . S
C1540 H1544 0.930 . S
C1541 C1540 1.369 . S
C1541 C1550 1.429 1_554 S
C1542 C1540 1.419 . S
C1542 C1543 1.363 1_554 S
C1542 H1545 0.929 . S
C1543 C1542 1.363 1_556 S
C1543 C1549 1.428 . S
H1544 C1540 0.930 . S
H1545 C1542 0.929 . S
S1546 N1547 1.613 . S
S1546 N1548 1.610 . S
N1547 S1546 1.613 . S
N1547 C1550 1.350 . S
N1548 S1546 1.610 . S
N1548 C1549 1.351 . S
C1549 C1543 1.428 . S
C1549 N1548 1.351 . S
C1549 C1550 1.434 . S
C1550 C1541 1.429 1_556 S
C1550 N1547 1.350 . S
C1550 C1549 1.434 . S
C1551 C1552 1.400 . S
C1551 C1553 1.390 1_455 S
C1551 H1555 0.930 . S
C1552 C1551 1.400 . S
C1552 C1561 1.429 . S
C1553 C1551 1.390 1_655 S
C1553 C1554 1.363 . S
C1553 H1556 0.929 . S
C1554 C1553 1.363 . S
C1554 C1560 1.429 1_655 S
H1555 C1551 0.930 . S
H1556 C1553 0.929 . S
S1557 N1558 1.613 . S
S1557 N1559 1.610 . S
N1558 S1557 1.613 . S
N1558 C1561 1.350 . S
N1559 S1557 1.610 . S
N1559 C1560 1.351 . S
C1560 C1554 1.429 1_455 S
C1560 N1559 1.351 . S
C1560 C1561 1.434 . S
C1561 C1552 1.429 . S
C1561 N1558 1.350 . S
C1561 C1560 1.434 . S
C1562 C1563 1.369 1_556 S
C1562 C1564 1.419 . S
C1562 H1566 0.930 . S
C1563 C1562 1.369 1_554 S
C1563 C1572 1.429 1_455 S
C1564 C1562 1.419 . S
C1564 C1565 1.363 1_455 S
C1564 H1567 0.929 . S
C1565 C1564 1.363 1_655 S
C1565 C1571 1.428 1_556 S
H1566 C1562 0.930 . S
H1567 C1564 0.929 . S
S1568 N1569 1.613 . S
S1568 N1570 1.610 . S
N1569 S1568 1.613 . S
N1569 C1572 1.350 . S
N1570 S1568 1.610 . S
N1570 C1571 1.351 . S
C1571 C1565 1.428 1_554 S
C1571 N1570 1.351 . S
C1571 C1572 1.434 . S
C1572 C1563 1.429 1_655 S
C1572 N1569 1.350 . S
C1572 C1571 1.434 . S
C1573 C1574 1.369 . S
C1573 C1575 1.419 . S
C1573 H1577 0.930 . S
C1574 C1573 1.369 . S
C1574 C1583 1.429 . S
C1575 C1573 1.419 . S
C1575 C1576 1.363 . S
C1575 H1578 0.929 . S
C1576 C1575 1.363 . S
C1576 C1582 1.428 . S
H1577 C1573 0.930 . S
H1578 C1575 0.929 . S
S1579 N1580 1.613 . S
S1579 N1581 1.610 . S
N1580 S1579 1.613 . S
N1580 C1583 1.350 . S
N1581 S1579 1.610 . S
N1581 C1582 1.351 . S
C1582 C1576 1.428 . S
C1582 N1581 1.351 . S
C1582 C1583 1.434 . S
C1583 C1574 1.429 . S
C1583 N1580 1.350 . S
C1583 C1582 1.434 . S
C1584 C1585 1.369 . S
C1584 C1586 1.419 . S
C1584 H1588 0.930 . S
C1585 C1584 1.369 . S
C1585 C1594 1.429 . S
C1586 C1584 1.419 . S
C1586 C1587 1.363 . S
C1586 H1589 0.929 . S
C1587 C1586 1.363 . S
C1587 C1593 1.428 . S
H1588 C1584 0.930 . S
H1589 C1586 0.929 . S
S1590 N1591 1.613 . S
S1590 N1592 1.610 . S
N1591 S1590 1.613 . S
N1591 C1594 1.350 . S
N1592 S1590 1.610 . S
N1592 C1593 1.351 . S
C1593 C1587 1.428 . S
C1593 N1592 1.351 . S
C1593 C1594 1.434 . S
C1594 C1585 1.429 . S
C1594 N1591 1.350 . S
C1594 C1593 1.434 . S
C1595 C1596 1.369 . S
C1595 C1597 1.419 . S
C1595 H1599 0.930 . S
C1596 C1595 1.369 . S
C1596 C1605 1.429 . S
C1597 C1595 1.419 . S
C1597 C1598 1.363 . S
C1597 H1600 0.929 . S
C1598 C1597 1.363 . S
C1598 C1604 1.428 . S
H1599 C1595 0.930 . S
H1600 C1597 0.929 . S
S1601 N1602 1.613 . S
S1601 N1603 1.610 . S
N1602 S1601 1.613 . S
N1602 C1605 1.350 . S
N1603 S1601 1.610 . S
N1603 C1604 1.351 . S
C1604 C1598 1.428 . S
C1604 N1603 1.351 . S
C1604 C1605 1.434 . S
C1605 C1596 1.429 . S
C1605 N1602 1.350 . S
C1605 C1604 1.434 . S
C1606 C1607 1.369 . S
C1606 C1608 1.419 . S
C1606 H1610 0.930 . S
C1607 C1606 1.369 . S
C1607 C1616 1.429 . S
C1608 C1606 1.419 . S
C1608 C1609 1.363 . S
C1608 H1611 0.929 . S
C1609 C1608 1.363 . S
C1609 C1615 1.428 . S
H1610 C1606 0.930 . S
H1611 C1608 0.929 . S
S1612 N1613 1.613 . S
S1612 N1614 1.610 . S
N1613 S1612 1.613 . S
N1613 C1616 1.350 . S
N1614 S1612 1.610 . S
N1614 C1615 1.351 . S
C1615 C1609 1.428 . S
C1615 N1614 1.351 . S
C1615 C1616 1.434 . S
C1616 C1607 1.429 . S
C1616 N1613 1.350 . S
C1616 C1615 1.434 . S
C1617 C1618 1.369 . S
C1617 C1619 1.419 . S
C1617 H1621 0.930 . S
C1618 C1617 1.369 . S
C1618 C1627 1.429 . S
C1619 C1617 1.419 . S
C1619 C1620 1.363 . S
C1619 H1622 0.929 . S
C1620 C1619 1.363 . S
C1620 C1626 1.428 . S
H1621 C1617 0.930 . S
H1622 C1619 0.929 . S
S1623 N1624 1.613 . S
S1623 N1625 1.610 . S
N1624 S1623 1.613 . S
N1624 C1627 1.350 . S
N1625 S1623 1.610 . S
N1625 C1626 1.351 . S
C1626 C1620 1.428 . S
C1626 N1625 1.351 . S
C1626 C1627 1.434 . S
C1627 C1618 1.429 . S
C1627 N1624 1.350 . S
C1627 C1626 1.434 . S
C1628 C1629 1.369 . S
C1628 C1630 1.419 . S
C1628 H1632 0.930 . S
C1629 C1628 1.369 . S
C1629 C1638 1.429 . S
C1630 C1628 1.419 . S
C1630 C1631 1.363 . S
C1630 H1633 0.929 . S
C1631 C1630 1.363 . S
C1631 C1637 1.428 . S
H1632 C1628 0.930 . S
H1633 C1630 0.929 . S
S1634 N1635 1.613 . S
S1634 N1636 1.610 . S
N1635 S1634 1.613 . S
N1635 C1638 1.350 . S
N1636 S1634 1.610 . S
N1636 C1637 1.351 . S
C1637 C1631 1.428 . S
C1637 N1636 1.351 . S
C1637 C1638 1.434 . S
C1638 C1629 1.429 . S
C1638 N1635 1.350 . S
C1638 C1637 1.434 . S
C1639 C1640 1.369 . S
C1639 C1641 1.419 . S
C1639 H1643 0.930 . S
C1640 C1639 1.369 . S
C1640 C1649 1.429 . S
C1641 C1639 1.419 . S
C1641 C1642 1.363 . S
C1641 H1644 0.929 . S
C1642 C1641 1.363 . S
C1642 C1648 1.428 . S
H1643 C1639 0.930 . S
H1644 C1641 0.929 . S
S1645 N1646 1.613 . S
S1645 N1647 1.610 . S
N1646 S1645 1.613 . S
N1646 C1649 1.350 . S
N1647 S1645 1.610 . S
N1647 C1648 1.351 . S
C1648 C1642 1.428 . S
C1648 N1647 1.351 . S
C1648 C1649 1.434 . S
C1649 C1640 1.429 . S
C1649 N1646 1.350 . S
C1649 C1648 1.434 . S
C1650 C1651 1.369 . S
C1650 C1652 1.419 . S
C1650 H1654 0.930 . S
C1651 C1650 1.369 . S
C1651 C1660 1.429 . S
C1652 C1650 1.419 . S
C1652 C1653 1.363 . S
C1652 H1655 0.929 . S
C1653 C1652 1.363 . S
C1653 C1659 1.428 . S
H1654 C1650 0.930 . S
H1655 C1652 0.929 . S
S1656 N1657 1.613 . S
S1656 N1658 1.610 . S
N1657 S1656 1.613 . S
N1657 C1660 1.350 . S
N1658 S1656 1.610 . S
N1658 C1659 1.351 . S
C1659 C1653 1.428 . S
C1659 N1658 1.351 . S
C1659 C1660 1.434 . S
C1660 C1651 1.429 . S
C1660 N1657 1.350 . S
C1660 C1659 1.434 . S
C1661 C1662 1.369 . S
C1661 C1663 1.419 . S
C1661 H1665 0.930 . S
C1662 C1661 1.369 . S
C1662 C1671 1.429 . S
C1663 C1661 1.419 . S
C1663 C1664 1.363 . S
C1663 H1666 0.929 . S
C1664 C1663 1.363 . S
C1664 C1670 1.428 . S
H1665 C1661 0.930 . S
H1666 C1663 0.929 . S
S1667 N1668 1.613 . S
S1667 N1669 1.610 . S
N1668 S1667 1.613 . S
N1668 C1671 1.350 . S
N1669 S1667 1.610 . S
N1669 C1670 1.351 . S
C1670 C1664 1.428 . S
C1670 N1669 1.351 . S
C1670 C1671 1.434 . S
C1671 C1662 1.429 . S
C1671 N1668 1.350 . S
C1671 C1670 1.434 . S
C1672 C1673 1.369 . S
C1672 C1674 1.419 . S
C1672 H1676 0.930 . S
C1673 C1672 1.369 . S
C1673 C1682 1.429 . S
C1674 C1672 1.419 . S
C1674 C1675 1.363 . S
C1674 H1677 0.929 . S
C1675 C1674 1.363 . S
C1675 C1681 1.428 . S
H1676 C1672 0.930 . S
H1677 C1674 0.929 . S
S1678 N1679 1.613 . S
S1678 N1680 1.610 . S
N1679 S1678 1.613 . S
N1679 C1682 1.350 . S
N1680 S1678 1.610 . S
N1680 C1681 1.351 . S
C1681 C1675 1.428 . S
C1681 N1680 1.351 . S
C1681 C1682 1.434 . S
C1682 C1673 1.429 . S
C1682 N1679 1.350 . S
C1682 C1681 1.434 . S
C1683 C1684 1.369 . S
C1683 C1685 1.419 . S
C1683 H1687 0.930 . S
C1684 C1683 1.369 . S
C1684 C1693 1.429 . S
C1685 C1683 1.419 . S
C1685 C1686 1.363 . S
C1685 H1688 0.929 . S
C1686 C1685 1.363 . S
C1686 C1692 1.428 . S
H1687 C1683 0.930 . S
H1688 C1685 0.929 . S
S1689 N1690 1.613 . S
S1689 N1691 1.610 . S
N1690 S1689 1.613 . S
N1690 C1693 1.350 . S
N1691 S1689 1.610 . S
N1691 C1692 1.351 . S
C1692 C1686 1.428 . S
C1692 N1691 1.351 . S
C1692 C1693 1.434 . S
C1693 C1684 1.429 . S
C1693 N1690 1.350 . S
C1693 C1692 1.434 . S
C1694 C1695 1.369 . S
C1694 C1696 1.419 . S
C1694 H1698 0.930 . S
C1695 C1694 1.369 . S
C1695 C1704 1.429 . S
C1696 C1694 1.419 . S
C1696 C1697 1.363 . S
C1696 H1699 0.929 . S
C1697 C1696 1.363 . S
C1697 C1703 1.428 . S
H1698 C1694 0.930 . S
H1699 C1696 0.929 . S
S1700 N1701 1.613 . S
S1700 N1702 1.610 . S
N1701 S1700 1.613 . S
N1701 C1704 1.350 . S
N1702 S1700 1.610 . S
N1702 C1703 1.351 . S
C1703 C1697 1.428 . S
C1703 N1702 1.351 . S
C1703 C1704 1.434 . S
C1704 C1695 1.429 . S
C1704 N1701 1.350 . S
C1704 C1703 1.434 . S
C1705 C1706 1.369 . S
C1705 C1707 1.419 . S
C1705 H1709 0.930 . S
C1706 C1705 1.369 . S
C1706 C1715 1.429 . S
C1707 C1705 1.419 . S
C1707 C1708 1.363 . S
C1707 H1710 0.929 . S
C1708 C1707 1.363 . S
C1708 C1714 1.428 . S
H1709 C1705 0.930 . S
H1710 C1707 0.929 . S
S1711 N1712 1.613 . S
S1711 N1713 1.610 . S
N1712 S1711 1.613 . S
N1712 C1715 1.350 . S
N1713 S1711 1.610 . S
N1713 C1714 1.351 . S
C1714 C1708 1.428 . S
C1714 N1713 1.351 . S
C1714 C1715 1.434 . S
C1715 C1706 1.429 . S
C1715 N1712 1.350 . S
C1715 C1714 1.434 . S
C1716 C1717 1.369 . S
C1716 C1718 1.419 . S
C1716 H1720 0.930 . S
C1717 C1716 1.369 . S
C1717 C1726 1.429 . S
C1718 C1716 1.419 . S
C1718 C1719 1.363 . S
C1718 H1721 0.929 . S
C1719 C1718 1.363 . S
C1719 C1725 1.428 . S
H1720 C1716 0.930 . S
H1721 C1718 0.929 . S
S1722 N1723 1.613 . S
S1722 N1724 1.610 . S
N1723 S1722 1.613 . S
N1723 C1726 1.350 . S
N1724 S1722 1.610 . S
N1724 C1725 1.351 . S
C1725 C1719 1.428 . S
C1725 N1724 1.351 . S
C1725 C1726 1.434 . S
C1726 C1717 1.429 . S
C1726 N1723 1.350 . S
C1726 C1725 1.434 . S
C1727 C1728 1.369 . S
C1727 C1729 1.419 . S
C1727 H1731 0.930 . S
C1728 C1727 1.369 . S
C1728 C1737 1.429 . S
C1729 C1727 1.419 . S
C1729 C1730 1.363 . S
C1729 H1732 0.929 . S
C1730 C1729 1.363 . S
C1730 C1736 1.428 . S
H1731 C1727 0.930 . S
H1732 C1729 0.929 . S
S1733 N1734 1.613 . S
S1733 N1735 1.610 . S
N1734 S1733 1.613 . S
N1734 C1737 1.350 . S
N1735 S1733 1.610 . S
N1735 C1736 1.351 . S
C1736 C1730 1.428 . S
C1736 N1735 1.351 . S
C1736 C1737 1.434 . S
C1737 C1728 1.429 . S
C1737 N1734 1.350 . S
C1737 C1736 1.434 . S
C1738 C1739 1.369 . S
C1738 C1740 1.419 . S
C1738 H1742 0.930 . S
C1739 C1738 1.369 . S
C1739 C1748 1.429 . S
C1740 C1738 1.419 . S
C1740 C1741 1.363 . S
C1740 H1743 0.929 . S
C1741 C1740 1.363 . S
C1741 C1747 1.428 . S
H1742 C1738 0.930 . S
H1743 C1740 0.929 . S
S1744 N1745 1.613 . S
S1744 N1746 1.610 . S
N1745 S1744 1.613 . S
N1745 C1748 1.350 . S
N1746 S1744 1.610 . S
N1746 C1747 1.351 . S
C1747 C1741 1.428 . S
C1747 N1746 1.351 . S
C1747 C1748 1.434 . S
C1748 C1739 1.429 . S
C1748 N1745 1.350 . S
C1748 C1747 1.434 . S
C1749 C1750 1.369 . S
C1749 C1751 1.419 . S
C1749 H1753 0.930 . S
C1750 C1749 1.369 . S
C1750 C1759 1.429 . S
C1751 C1749 1.419 . S
C1751 C1752 1.363 . S
C1751 H1754 0.929 . S
C1752 C1751 1.363 . S
C1752 C1758 1.428 . S
H1753 C1749 0.930 . S
H1754 C1751 0.929 . S
S1755 N1756 1.613 . S
S1755 N1757 1.610 . S
N1756 S1755 1.613 . S
N1756 C1759 1.350 . S
N1757 S1755 1.610 . S
N1757 C1758 1.351 . S
C1758 C1752 1.428 . S
C1758 N1757 1.351 . S
C1758 C1759 1.434 . S
C1759 C1750 1.429 . S
C1759 N1756 1.350 . S
C1759 C1758 1.434 . S
C1409 C57 1.408 . S
C1411 C1113 1.394 . S
C1420 C117 1.403 . S
C1422 C489 1.399 . S
C1431 C205 1.394 . S
C1433 C1289 1.408 . S
C1442 C665 1.402 . S
C1444 C313 1.401 . S
C1453 C1252 1.408 . S
C1455 C196 1.394 . S
C1464 C645 1.394 . S
C1466 C321 1.407 . S
C1475 C1076 1.397 . S
C1477 C49 1.407 . S
C1486 C469 1.408 . S
C1488 C108 1.397 . S
C1497 C409 1.404 . S
C1499 C761 1.401 . S
C1508 C577 1.405 . S
C1510 C909 1.396 . S
C1519 C900 1.404 . S
C1521 C557 1.400 . S
C1530 C372 1.403 . S
C1532 C753 1.398 . S
C1541 C1201 1.399 . S
C1543 C841 1.403 . S
C1552 C1025 1.395 . S
C1554 C1377 1.406 . S
C1563 C1017 1.400 . S
C1565 C1340 1.401 . S
C1574 C849 1.397 . S
C1576 C1164 1.404 . S
C1585 C997 1.742 . S
C1587 C20 1.746 . S
C1596 C733 1.742 . S
C1598 C137 1.750 . S
C1607 C225 1.742 . S
C1609 C812 1.744 . S
C1618 C937 1.742 . S
C1620 C293 1.742 . S
C1629 C988 1.741 . S
C1631 C233 1.748 . S
C1640 C284 1.745 . S
C1642 C724 1.750 . S
C1651 C821 1.742 . S
C1653 C29 1.746 . S
C1662 C929 1.745 . S
C1664 C145 1.736 . S
C1673 C401 1.748 . S
C1675 C1349 1.749 . S
C1684 C1085 1.746 . S
C1686 C497 1.742 . S
C1695 C585 1.744 . S
C1697 C1173 1.749 . S
C1706 C673 1.742 . S
C1708 C1261 1.753 . S
C1717 C548 1.743 . S
C1719 C1369 1.750 . S
C1728 C1105 1.750 . S
C1730 C636 1.739 . S
C1739 C1193 1.743 . S
C1741 C381 1.748 . S
C1750 C1281 1.743 . S
C1752 C460 1.756 . S
