# Generated by pormake.
# Topology xfa, (7)-cn, num edge types: 1
# Building blocks:
#     Node 0, Type 0, BuildingBlock: HICVOG_clean_sbu_0, # of connection points: 7
#     Node 1, Type 0, BuildingBlock: HICVOG_clean_sbu_0, # of connection points: 7
#     Node 2, Type 0, BuildingBlock: HICVOG_clean_sbu_0, # of connection points: 7
#     Node 3, Type 0, BuildingBlock: HICVOG_clean_sbu_0, # of connection points: 7
#     Node 4, Type 0, BuildingBlock: HICVOG_clean_sbu_0, # of connection points: 7
#     Node 5, Type 0, BuildingBlock: HICVOG_clean_sbu_0, # of connection points: 7
#     Node 6, Type 0, BuildingBlock: HICVOG_clean_sbu_0, # of connection points: 7
#     Node 7, Type 0, BuildingBlock: HICVOG_clean_sbu_0, # of connection points: 7
#     Edge 8, Type (0, 0), BuildingBlock: AJUNOK_clean_linker_0, # of connection points: 2
#     Edge 9, Type (0, 0), BuildingBlock: AJUNOK_clean_linker_0, # of connection points: 2
#     Edge 10, Type (0, 0), BuildingBlock: AJUNOK_clean_linker_0, # of connection points: 2
#     Edge 11, Type (0, 0), BuildingBlock: AJUNOK_clean_linker_0, # of connection points: 2
#     Edge 12, Type (0, 0), BuildingBlock: AJUNOK_clean_linker_0, # of connection points: 2
#     Edge 13, Type (0, 0), BuildingBlock: AJUNOK_clean_linker_0, # of connection points: 2
#     Edge 14, Type (0, 0), BuildingBlock: AJUNOK_clean_linker_0, # of connection points: 2
#     Edge 15, Type (0, 0), BuildingBlock: AJUNOK_clean_linker_0, # of connection points: 2
#     Edge 16, Type (0, 0), BuildingBlock: AJUNOK_clean_linker_0, # of connection points: 2
#     Edge 17, Type (0, 0), BuildingBlock: AJUNOK_clean_linker_0, # of connection points: 2
#     Edge 18, Type (0, 0), BuildingBlock: AJUNOK_clean_linker_0, # of connection points: 2
#     Edge 19, Type (0, 0), BuildingBlock: AJUNOK_clean_linker_0, # of connection points: 2
#     Edge 20, Type (0, 0), BuildingBlock: AJUNOK_clean_linker_0, # of connection points: 2
#     Edge 21, Type (0, 0), BuildingBlock: AJUNOK_clean_linker_0, # of connection points: 2
#     Edge 22, Type (0, 0), BuildingBlock: AJUNOK_clean_linker_0, # of connection points: 2
#     Edge 23, Type (0, 0), BuildingBlock: AJUNOK_clean_linker_0, # of connection points: 2
#     Edge 24, Type (0, 0), BuildingBlock: AJUNOK_clean_linker_0, # of connection points: 2
#     Edge 25, Type (0, 0), BuildingBlock: AJUNOK_clean_linker_0, # of connection points: 2
#     Edge 26, Type (0, 0), BuildingBlock: AJUNOK_clean_linker_0, # of connection points: 2
#     Edge 27, Type (0, 0), BuildingBlock: AJUNOK_clean_linker_0, # of connection points: 2
#     Edge 28, Type (0, 0), BuildingBlock: AJUNOK_clean_linker_0, # of connection points: 2
#     Edge 29, Type (0, 0), BuildingBlock: AJUNOK_clean_linker_0, # of connection points: 2
#     Edge 30, Type (0, 0), BuildingBlock: AJUNOK_clean_linker_0, # of connection points: 2
#     Edge 31, Type (0, 0), BuildingBlock: AJUNOK_clean_linker_0, # of connection points: 2
#     Edge 32, Type (0, 0), BuildingBlock: AJUNOK_clean_linker_0, # of connection points: 2
#     Edge 33, Type (0, 0), BuildingBlock: AJUNOK_clean_linker_0, # of connection points: 2
#     Edge 34, Type (0, 0), BuildingBlock: AJUNOK_clean_linker_0, # of connection points: 2
#     Edge 35, Type (0, 0), BuildingBlock: AJUNOK_clean_linker_0, # of connection points: 2
# Relax obj value: 0.177
# Max RMSD: 0.225
# Mean RMSD: 0.216
data_MOF--net-xfa--node1-HICVOG_clean_sbu_0--edge1-AJUNOK_clean_linker_0
_symmetry_space_group_name_H-M    P1
_symmetry_Int_Tables_number       1
_symmetry_cell_setting            triclinic
loop_
_symmetry_equiv_pos_as_xyz
'x, y, z'
_cell_length_a     33.990693
_cell_length_b     34.156105
_cell_length_c     13.973115
_cell_angle_alpha  90.112217
_cell_angle_beta   89.587293
_cell_angle_gamma 89.845205
loop_
_atom_site_label
_atom_site_type_symbol
_atom_site_fract_x
_atom_site_fract_y
_atom_site_fract_z
_atom_type_partial_charge
Zn0 Zn 0.14434 0.30794 0.37114 0.0
C1 C 0.18112 0.21985 0.1982 0.0
N2 N 0.20721 0.21403 0.26801 0.0
C3 C 0.19434 0.23803 0.3371 0.0
N4 N 0.16161 0.25795 0.31233 0.0
N5 N 0.1531 0.24585 0.22487 0.0
C6 C 0.12632 0.26724 0.97547 0.0
O7 O 0.14646 0.29364 0.02284 0.0
O8 O 0.14411 0.30265 0.51596 0.0
Zn9 Zn 0.1028 0.2518 0.16551 0.0
N10 N 0.18441 0.34653 0.33602 0.0
C11 C 0.23415 0.36242 0.22204 0.0
C12 C 0.20498 0.33746 0.25519 0.0
C13 C 0.19133 0.3807 0.38438 0.0
N14 N 0.24095 0.39629 0.26938 0.0
C15 C 0.22041 0.4067 0.34958 0.0
O16 O 0.07878 0.30493 0.18171 0.0
C17 C 0.07242 0.33028 0.24675 0.0
O18 O 0.09146 0.3309 0.32521 0.0
H19 H 0.19841 0.31123 0.21564 0.0
H20 H 0.1736 0.38797 0.44653 0.0
C21 C 0.04757 0.1846 0.19747 0.0
C22 C 1.01927 0.16581 0.25584 0.0
C23 C 1.03049 0.21236 0.37858 0.0
C24 C 0.05826 0.23085 0.32106 0.0
N25 N 0.06601 0.21722 0.23156 0.0
N26 N 1.01157 0.18047 0.34459 0.0
H27 H 0.0541 0.17404 0.12601 0.0
C28 C 0.11539 0.28817 0.56269 0.0
O29 O 0.08333 0.27852 0.51672 0.0
O30 O 0.10551 0.24297 0.02266 0.0
H31 H 0.07338 0.25642 0.34669 0.0
H32 H 0.25082 0.35534 0.15803 0.0
H33 H 1.02387 0.22331 0.4496 0.0
Zn34 Zn 0.33816 0.61499 0.39999 0.0
C35 C 0.31056 0.70631 0.56364 0.0
N36 N 0.32168 0.7278 0.48817 0.0
C37 C 0.32684 0.70086 0.41941 0.0
N38 N 0.31952 0.66427 0.45094 0.0
N39 N 0.30832 0.66788 0.54132 0.0
C40 C 0.30731 0.62105 0.78941 0.0
O41 O 0.33347 0.6025 0.73642 0.0
O42 O 0.34343 0.61559 0.25516 0.0
Zn43 Zn 0.26968 0.63475 0.60568 0.0
N44 N 0.38782 0.60299 0.46398 0.0
C45 C 0.43461 0.62424 0.57895 0.0
C46 C 0.40278 0.63192 0.51991 0.0
C47 C 0.40516 0.56691 0.46099 0.0
N48 N 0.45173 0.58841 0.57647 0.0
C49 C 0.43835 0.55938 0.51847 0.0
O50 O 0.26322 0.57767 0.5577 0.0
C51 C 0.27478 0.55841 0.48425 0.0
O52 O 0.30045 0.57195 0.42678 0.0
H53 H 0.38972 0.6607 0.52023 0.0
H54 H 0.39293 0.54429 0.41581 0.0
C55 C 0.19561 0.67936 0.63598 0.0
C56 C 0.16237 0.69878 0.59911 0.0
C57 C 0.17956 0.67701 0.44287 0.0
C58 C 0.21244 0.65803 0.47915 0.0
N59 N 0.22004 0.65966 0.57441 0.0
N60 N 0.15551 0.69703 0.50338 0.0
H61 H 0.20247 0.68079 0.71142 0.0
C62 C 0.31434 0.62753 0.20625 0.0
O63 O 0.2827 0.64008 0.25152 0.0
O64 O 0.2778 0.6367 0.74891 0.0
H65 H 0.23236 0.64255 0.43155 0.0
H66 H 0.44583 0.64667 0.62609 0.0
H67 H 0.17337 0.67618 0.36707 0.0
Zn68 Zn 0.9476 0.76861 0.8621 0.0
C69 C 0.88082 0.82273 0.67495 0.0
N70 N 0.85372 0.8174 0.74376 0.0
C71 C 0.87542 0.80693 0.81902 0.0
N72 N 0.91403 0.8055 0.79664 0.0
N73 N 0.91773 0.81619 0.7063 0.0
C74 C 0.95187 0.81062 0.46303 0.0
O75 O 0.9391 0.77967 0.50936 0.0
O76 O 0.94251 0.77676 0.0047 0.0
Zn77 Zn 0.96682 0.83594 0.65558 0.0
N78 N 0.92602 0.71812 0.82791 0.0
C79 C 0.91374 0.67634 0.69521 0.0
C80 C 0.93006 0.71021 0.73303 0.0
C81 C 0.90648 0.69312 0.88767 0.0
N82 N 0.89389 0.65166 0.75387 0.0
C83 C 0.88983 0.6588 0.84932 0.0
O84 O 1.01312 0.80232 0.68891 0.0
C85 C 1.02654 0.7782 0.74983 0.0
O86 O 1.00534 0.76547 0.81875 0.0
H87 H 0.9454 0.73059 0.68691 0.0
H88 H 0.90303 0.70033 0.96273 0.0
C89 C 1.01091 0.90445 0.71651 0.0
C90 C 1.01588 0.9393 0.76931 0.0
C91 C 0.94855 0.9372 0.81489 0.0
C92 C 0.94355 0.9034 0.76081 0.0
N93 N 0.97484 0.88712 0.71419 0.0
N94 N 0.98438 0.95441 0.81751 0.0
H95 H 1.03542 0.8909 0.6792 0.0
C96 C 0.95463 0.80734 0.04722 0.0
O97 O 0.97263 0.83463 -0.00256 0.0
O98 O 0.96594 0.8391 0.51046 0.0
H99 H 0.91495 0.88991 0.75776 0.0
H100 H 0.91646 0.66986 0.61963 0.0
H101 H 0.92417 0.94966 0.85464 0.0
Zn102 Zn 0.8165 0.44583 0.11528 0.0
C103 C 0.75516 0.3813 0.93287 0.0
N104 N 0.76056 0.35407 6e-05 0.0
C105 C 0.77375 0.37466 0.07458 0.0
N106 N 0.77742 0.41299 0.05243 0.0
N107 N 0.76461 0.41747 0.96385 0.0
C108 C 0.77321 0.45115 0.71801 0.0
O109 O 0.80453 0.43878 0.76362 0.0
O110 O 0.80969 0.44278 0.25915 0.0
Zn111 Zn 0.74787 0.46732 0.91137 0.0
N112 N 0.86707 0.42364 0.07807 0.0
C113 C 0.90572 0.40598 0.94214 0.0
C114 C 0.87064 0.4195 0.9817 0.0
C115 C 0.89757 0.4147 0.13749 0.0
N116 N 0.93611 0.39729 0.00059 0.0
C117 C 0.9334 0.4011 0.09747 0.0
O118 O 0.78459 0.51097 0.94099 0.0
C119 C 0.80949 0.52382 0.00065 0.0
O120 O 0.82103 0.50305 0.07096 0.0
H121 H 0.8464 0.42729 0.93581 0.0
H122 H 0.89426 0.41911 0.21382 0.0
C123 C 0.67583 0.51338 0.94635 0.0
C124 C 0.64214 0.52316 0.00111 0.0
C125 C 0.65343 0.46803 0.10009 0.0
C126 C 0.68657 0.45856 0.04616 0.0
N127 N 0.69745 0.48121 0.97075 0.0
N128 N 0.63214 0.50008 0.07663 0.0
H129 H 0.68546 0.53167 0.8876 0.0
C130 C 0.77674 0.44916 0.30017 0.0
O131 O 0.74616 0.458 0.24742 0.0
O132 O 0.74451 0.46493 0.76653 0.0
H133 H 0.70408 0.43384 0.06605 0.0
H134 H 0.90895 0.40268 0.86547 0.0
H135 H 0.64482 0.45023 0.16059 0.0
Zn136 Zn 0.64183 0.26705 0.37888 0.0
C137 C 0.69968 0.33286 0.56586 0.0
N138 N 0.72853 0.33003 0.50079 0.0
C139 C 0.70996 0.31567 0.42448 0.0
N140 N 0.67132 0.30914 0.44271 0.0
N141 N 0.66477 0.32093 0.53173 0.0
C142 C 0.62619 0.3097 0.77312 0.0
O143 O 0.63694 0.27837 0.72476 0.0
O144 O 0.6432 0.27342 0.23351 0.0
Zn145 Zn 0.61398 0.33651 0.58089 0.0
N146 N 0.66972 0.21943 0.4159 0.0
C147 C 0.69579 0.18706 0.55211 0.0
C148 C 0.6762 0.21857 0.51173 0.0
C149 C 0.68192 0.18934 0.35794 0.0
N150 N 0.70765 0.15709 0.49529 0.0
C151 C 0.70141 0.15687 0.3991 0.0
O152 O 0.57188 0.29838 0.54784 0.0
C153 C 0.56144 0.27117 0.49131 0.0
O154 O 0.58446 0.25846 0.42544 0.0
H155 H 0.66594 0.24227 0.55671 0.0
H156 H 0.67567 0.19028 0.28218 0.0
C157 C 0.56565 0.40551 0.53701 0.0
C158 C 0.5562 0.43893 0.48231 0.0
C159 C 0.61643 0.43196 0.39711 0.0
C160 C 0.62602 0.39958 0.45232 0.0
N161 N 0.6004 0.38641 0.52026 0.0
N162 N 0.58196 0.45081 0.41337 0.0
H163 H 0.54533 0.3942 0.59005 0.0
C164 C 0.62257 0.29919 0.19095 0.0
O165 O 0.59943 0.322 0.24228 0.0
O166 O 0.61485 0.33971 0.72672 0.0
H167 H 0.65355 0.38479 0.43921 0.0
H168 H 0.7012 0.18617 0.62828 0.0
H169 H 0.63633 0.44217 0.34188 0.0
Zn170 Zn 0.24464 0.10638 0.83686 0.0
C171 C 0.26909 0.20373 0.68922 0.0
N172 N 0.25563 0.2214 0.76887 0.0
C173 C 0.25068 0.19161 0.82962 0.0
N174 N 0.26121 0.15708 0.79083 0.0
N175 N 0.27417 0.16486 0.70348 0.0
C176 C 0.2739 0.13084 0.44452 0.0
O177 O 0.24174 0.12328 0.49375 0.0
O178 O 0.24133 0.10793 0.98295 0.0
Zn179 Zn 0.31361 0.13415 0.63331 0.0
N180 N 0.19435 0.09432 0.77665 0.0
C181 C 0.14923 0.11147 0.65371 0.0
C182 C 0.18261 0.11947 0.70702 0.0
C183 C 0.17344 0.06114 0.79558 0.0
N184 N 0.12873 0.07834 0.67157 0.0
C185 C 0.13969 0.05284 0.74116 0.0
O186 O 0.32036 0.07695 0.67617 0.0
C187 C 0.30809 0.0534 0.74061 0.0
O188 O 0.28185 0.06334 0.80131 0.0
H189 H 0.1994 0.14525 0.69128 0.0
H190 H 0.18354 0.04106 0.85004 0.0
C191 C 0.3899 0.1753 0.60369 0.0
C192 C 0.42375 0.19345 0.64108 0.0
C193 C 0.40342 0.17573 0.79806 0.0
C194 C 0.36997 0.1581 0.76124 0.0
N195 N 0.36355 0.15843 0.66541 0.0
N196 N 0.42923 0.19317 0.73748 0.0
H197 H 0.38415 0.1755 0.52761 0.0
C198 C 0.27179 0.12026 0.02611 0.0
O199 O 0.30279 0.12953 0.97436 0.0
O200 O 0.30591 0.1365 0.48918 0.0
H201 H 0.34885 0.14447 0.80875 0.0
H202 H 0.13989 0.13124 0.59784 0.0
H203 H 0.40868 0.17591 0.87432 0.0
Zn204 Zn 0.44793 0.80789 0.86267 0.0
C205 C 0.38092 0.75338 0.05057 0.0
N206 N 0.35376 0.75884 0.98284 0.0
C207 C 0.37533 0.76914 0.90648 0.0
N208 N 0.41402 0.7705 0.92735 0.0
N209 N 0.41777 0.75967 0.01756 0.0
C210 C 0.4547 0.7656 0.26087 0.0
O211 O 0.4431 0.79735 0.2161 0.0
O212 O 0.44483 0.80055 0.71954 0.0
Zn213 Zn 0.46687 0.73974 0.0669 0.0
N214 N 0.42624 0.85852 0.89725 0.0
C215 C 0.41644 0.90242 0.02768 0.0
C216 C 0.43137 0.86748 0.99112 0.0
C217 C 0.40662 0.8833 0.83758 0.0
N218 N 0.39681 0.92708 0.96886 0.0
C219 C 0.3915 0.91866 0.87465 0.0
O220 O 0.51301 0.77334 0.034 0.0
C221 C 0.52655 0.79789 0.97411 0.0
O222 O 0.50552 0.81111 0.90608 0.0
H223 H 0.44679 0.8473 0.03728 0.0
H224 H 0.40243 0.87541 0.76329 0.0
C225 C 0.5119 0.67126 0.00832 0.0
C226 C 0.51796 0.6364 0.95592 0.0
C227 C 0.45162 0.63896 0.90453 0.0
C228 C 0.44546 0.67262 0.95886 0.0
N229 N 0.47581 0.68874 0.00788 0.0
N230 N 0.4875 0.62154 0.90478 0.0
H231 H 0.5356 0.68464 0.04789 0.0
C232 C 0.45648 0.76935 0.67827 0.0
O233 O 0.47094 0.74089 0.73058 0.0
O234 O 0.46621 0.73634 0.21157 0.0
H235 H 0.41675 0.68612 0.96054 0.0
H236 H 0.4202 0.90984 0.10235 0.0
H237 H 0.42805 0.62665 0.86271 0.0
Zn238 Zn 0.76891 0.93916 0.12155 0.0
C239 C 0.82714 0.87551 0.30841 0.0
N240 N 0.82277 0.84817 0.24056 0.0
C241 C 0.81135 0.86913 0.16494 0.0
N242 N 0.80828 0.90757 0.18611 0.0
N243 N 0.81913 0.91186 0.2761 0.0
C244 C 0.81213 0.94861 0.51996 0.0
O245 O 0.78085 0.93528 0.47594 0.0
O246 O 0.77739 0.93713 0.97848 0.0
Zn247 Zn 0.83628 0.96172 0.32554 0.0
N248 N 0.7198 0.91322 0.1535 0.0
C249 C 0.67988 0.89351 0.28526 0.0
C250 C 0.7125 0.91318 0.24923 0.0
C251 C 0.69525 0.89461 0.09125 0.0
N252 N 0.65573 0.87454 0.22402 0.0
C253 C 0.66225 0.87451 0.12781 0.0
O254 O 0.79772 1.00466 0.29833 0.0
C255 C 0.77206 1.01661 0.23938 0.0
O256 O 0.76091 0.99578 0.16878 0.0
H257 H 0.7324 0.92796 0.29729 0.0
H258 H 0.70181 0.8946 0.01534 0.0
C259 C 0.9022 1.01037 0.26492 0.0
C260 C 0.93711 1.0183 0.21273 0.0
C261 C 0.93959 0.95153 0.16459 0.0
C262 C 0.90508 0.94409 0.21545 0.0
N263 N 0.88671 0.9736 0.26378 0.0
N264 N 0.95469 0.98825 0.16442 0.0
H265 H 0.88765 1.03259 0.30745 0.0
C266 C 0.80635 0.95356 0.93696 0.0
O267 O 0.83191 0.97282 0.98897 0.0
O268 O 0.84082 0.96126 0.47005 0.0
H269 H 0.89302 0.91487 0.2159 0.0
H270 H 0.67392 0.89301 0.3614 0.0
H271 H 0.95432 0.92831 0.12551 0.0
C272 C 0.23754 0.47662 0.32694 0.0
C273 C 0.22839 0.44617 0.39094 0.0
C274 C 0.2511 0.51285 0.35903 0.0
C275 C 0.25603 0.52075 0.45701 0.0
H276 H 0.23517 0.47214 0.25039 0.0
H277 H 0.2585 0.53476 0.3059 0.0
S278 S 0.23454 0.45213 0.6558 0.0
N279 N 0.22399 0.42687 0.55831 0.0
N280 N 0.24886 0.49583 0.61892 0.0
C281 C 0.24521 0.49146 0.5228 0.0
C282 C 0.23156 0.45399 0.48977 0.0
C283 C 0.07501 0.72239 0.75853 0.0
C284 C 0.06634 0.76126 0.73171 0.0
C285 C 0.10859 0.7029 0.72243 0.0
C286 C 0.1346 0.72176 0.65896 0.0
H287 H 0.05432 0.70597 0.80189 0.0
H288 H 0.11261 0.67215 0.73859 0.0
S289 S 0.12942 0.82518 0.58072 0.0
N290 N 0.08993 0.81931 0.64864 0.0
N291 N 0.15236 0.7825 0.58054 0.0
C292 C 0.12808 0.76141 0.63832 0.0
C293 C 0.09416 0.78124 0.67492 0.0
C294 C 0.80985 0.58714 0.9114 0.0
C295 C 0.82746 0.56279 0.98044 0.0
C296 C 0.82926 0.62001 0.87493 0.0
C297 C 0.86684 0.63048 0.90686 0.0
H298 H 0.78154 0.57971 0.88128 0.0
H299 H 0.8155 0.63636 0.81775 0.0
S300 S 0.9245 0.57978 0.09364 0.0
N301 N 0.88376 0.55374 0.08509 0.0
N302 N 0.91994 0.61613 0.01663 0.0
C303 C 0.88373 0.60842 0.98079 0.0
C304 C 0.86407 0.57449 0.01773 0.0
C305 C 1.04045 0.38274 0.15329 0.0
C306 C 1.03885 0.35687 0.23102 0.0
C307 C 1.00614 0.39956 0.11632 0.0
C308 C 0.96873 0.39074 0.15466 0.0
H309 H 0.06818 0.38803 0.11685 0.0
H310 H 1.00877 0.41783 0.05329 0.0
S311 S 0.94914 0.32565 0.36183 0.0
N312 N 0.99749 0.32457 0.34879 0.0
N313 N 0.93264 0.35565 0.2785 0.0
C314 C 0.96697 0.3667 0.23636 0.0
C315 C 1.00216 0.34979 0.27453 0.0
C316 C 0.71032 0.08477 0.39027 0.0
C317 C 0.71421 0.12136 0.3449 0.0
C318 C 0.72771 0.05094 0.35232 0.0
C319 C 0.7495 0.05199 0.26674 0.0
H320 H 0.69477 0.08241 0.45799 0.0
H321 H 0.72512 1.02383 0.39206 0.0
S322 S 0.76795 0.13949 0.11706 0.0
N323 N 0.74104 0.15621 0.20741 0.0
N324 N 0.77323 0.09195 0.13518 0.0
C325 C 0.75237 0.08776 0.21773 0.0
C326 C 0.73475 0.12261 0.2569 0.0
C327 C 0.46157 0.2536 0.6057 0.0
C328 C 0.45306 0.21463 0.58174 0.0
C329 C 0.49518 0.27231 0.57005 0.0
C330 C 0.52231 0.25268 0.50983 0.0
H331 H 0.44304 0.2692 0.65651 0.0
H332 H 0.50088 0.30191 0.59411 0.0
S333 S 0.51145 0.15108 0.41876 0.0
N334 N 0.47244 0.15773 0.48826 0.0
N335 N 0.5362 0.19266 0.42137 0.0
C336 C 0.51273 0.2144 0.48003 0.0
C337 C 0.47804 0.1954 0.51615 0.0
C338 C 0.36793 1.01005 0.73473 0.0
C339 C 0.32736 1.01465 0.75318 0.0
C340 C 0.38843 0.97675 0.76684 0.0
C341 C 0.36886 0.9468 0.81682 0.0
H342 H 0.38451 1.03354 0.70175 0.0
H343 H 0.42011 0.97567 0.75819 0.0
S344 S 0.26217 0.94159 0.86991 0.0
N345 N 0.26781 0.98395 0.81472 0.0
N346 N 0.30647 0.92171 0.87449 0.0
C347 C 0.328 0.94957 0.82889 0.0
C348 C 0.30718 0.98338 0.79696 0.0
C349 C 0.60851 0.87244 0.00573 0.0
C350 C 0.6344 0.85258 0.06706 0.0
C351 C 0.57499 0.85363 0.96877 0.0
C352 C 0.56629 0.81445 -0.00747 0.0
H353 H 0.61258 0.90337 -0.00804 0.0
H354 H 0.55438 0.87072 0.92725 0.0
S355 S 0.62901 0.74817 0.13697 0.0
N356 N 0.65195 0.79071 0.14012 0.0
N357 N 0.5897 0.75518 0.07038 0.0
C358 C 0.59399 0.79357 0.04711 0.0
C359 C 0.62781 0.81271 0.08461 0.0
C360 C 0.19664 0.17925 0.94871 0.0
C361 C 0.23218 0.19765 0.92299 0.0
C362 C 0.1785 0.18731 0.03738 0.0
C363 C 0.1949 0.21501 0.0996 0.0
H364 H 0.18314 0.15841 0.90077 0.0
H365 H 0.15215 0.17156 0.05787 0.0
S366 S 0.28636 0.27216 0.06158 0.0
N367 N 0.28227 0.24498 0.96445 0.0
N368 N 0.24782 0.26124 0.12868 0.0
C369 C 0.22964 0.23434 0.07245 0.0
C370 C 0.24826 0.22559 0.98421 0.0
C371 C 0.38659 0.70752 0.18994 0.0
C372 C 0.36947 0.74042 0.14654 0.0
C373 C 0.37316 0.6945 0.2797 0.0
C374 C 0.34039 0.71221 0.32385 0.0
H375 H 0.4103 0.69185 0.15458 0.0
H376 H 0.38837 0.67061 0.31449 0.0
S377 S 0.28445 0.79813 0.2367 0.0
N378 N 0.31874 0.79057 0.1545 0.0
N379 N 0.29123 0.76386 0.31803 0.0
C380 C 0.32271 0.74454 0.27989 0.0
C381 C 0.33742 0.75882 0.19162 0.0
C382 C 0.88605 0.86921 0.53676 0.0
C383 C 0.86923 0.83606 0.57992 0.0
C384 C 0.87257 0.88246 0.44774 0.0
C385 C 0.84011 0.86462 0.40415 0.0
H386 H 0.90974 0.88473 0.57137 0.0
H387 H 0.8876 0.90648 0.41291 0.0
S388 S 0.78514 0.77799 0.49093 0.0
N389 N 0.81917 0.78559 0.57246 0.0
N390 N 0.79154 0.81263 0.41024 0.0
C391 C 0.82265 0.83212 0.44809 0.0
C392 C 0.83741 0.81766 0.53559 0.0
C393 C 0.69304 0.3768 0.70875 0.0
C394 C 0.70871 0.34322 0.66436 0.0
C395 C 0.7077 0.38948 0.79735 0.0
C396 C 0.73994 0.37032 0.83913 0.0
H397 H 0.67001 0.3935 0.67433 0.0
H398 H 0.69416 0.4144 0.83262 0.0
S399 S 0.79018 0.28068 0.75057 0.0
N400 N 0.75597 0.28992 0.67056 0.0
N401 N 0.78584 0.31566 0.83153 0.0
C402 C 0.75529 0.3366 0.79522 0.0
C403 C 0.73934 0.32282 0.70849 0.0
C404 C 0.14822 0.29927 0.72039 0.0
C405 C 0.119 0.28032 0.66682 0.0
C406 C 0.15116 0.29373 0.8195 0.0
C407 C 0.12525 0.26871 0.86917 0.0
H408 H 0.16848 0.31934 0.68598 0.0
H409 H 0.17356 0.30984 0.85764 0.0
S410 S 0.04685 0.20808 0.76008 0.0
N411 N 0.0659 0.23267 0.66944 0.0
N412 N 0.07158 0.22208 0.85538 0.0
C413 C 0.09721 0.24795 0.81567 0.0
C414 C 0.09399 0.25387 0.71473 0.0
C415 C 0.28798 0.64968 0.04873 0.0
C416 C 0.31548 0.62726 0.09994 0.0
C417 C 0.28619 0.64802 0.94861 0.0
C418 C 0.31166 0.62366 0.89519 0.0
H419 H 0.26732 0.66853 0.08626 0.0
H420 H 0.26423 0.66572 0.91304 0.0
S421 S 0.38985 0.55967 -0.00518 0.0
N422 N 0.36974 0.58087 0.08957 0.0
N423 N 0.36593 0.57708 0.90163 0.0
C424 C 0.33999 0.60174 0.94537 0.0
C425 C 0.34203 0.60373 0.04755 0.0
C426 C 0.97596 0.83569 0.30476 0.0
C427 C 0.94952 0.81231 0.35722 0.0
C428 C 0.97653 0.83499 0.20429 0.0
C429 C 0.95064 0.81091 0.15265 0.0
H430 H 0.99732 0.85366 0.34151 0.0
H431 H 0.99837 0.85241 0.16706 0.0
S432 S 0.87025 0.7506 0.25587 0.0
N433 N 0.8931 0.76877 0.34984 0.0
N434 N 0.89404 0.76762 0.16136 0.0
C435 C 0.92228 0.78949 0.20419 0.0
C436 C 0.92177 0.79013 0.30637 0.0
C437 C 0.80431 0.43157 0.46024 0.0
C438 C 0.77351 0.44784 0.40639 0.0
C439 C 0.80346 0.43208 0.56057 0.0
C440 C 0.77181 0.44897 0.61167 0.0
H441 H 0.82963 0.41862 0.42471 0.0
H442 H 0.82822 0.41956 0.59817 0.0
S443 S 0.68281 0.49408 0.50518 0.0
N444 N 0.7096 0.48015 0.4121 0.0
N445 N 0.70799 0.48098 0.60045 0.0
C446 C 0.74017 0.46426 0.55885 0.0
C447 C 0.74101 0.4637 0.45643 0.0
C448 C 0.6399 0.27301 0.02811 0.0
C449 C 0.62506 0.30376 0.08504 0.0
C450 C 0.64067 0.2756 0.92787 0.0
C451 C 0.62693 0.30919 0.87987 0.0
H452 H 0.65024 0.24624 0.06104 0.0
H453 H 0.65174 0.25068 0.88779 0.0
S454 S 0.58907 0.39975 -0.00398 0.0
N455 N 0.59896 0.3702 0.08612 0.0
N456 N 0.60067 0.37513 0.89802 0.0
C457 C 0.61349 0.34084 0.93607 0.0
C458 C 0.61245 0.3381 0.03837 0.0
C459 C 0.2393 0.11892 0.28836 0.0
C460 C 0.27337 0.1306 0.33769 0.0
C461 C 0.23883 0.11607 0.18793 0.0
C462 C 0.27236 0.12494 0.13235 0.0
H463 H 0.21283 0.11125 0.32756 0.0
H464 H 0.21201 0.10648 0.15381 0.0
S465 S 0.36819 0.1602 0.22569 0.0
N466 N 0.34096 0.15311 0.32223 0.0
N467 N 0.33995 0.14843 0.13458 0.0
C468 C 0.3062 0.13803 0.18062 0.0
C469 C 0.30674 0.14066 0.28279 0.0
C470 C 0.43396 0.79361 0.41896 0.0
C471 C 0.45381 0.76412 0.36715 0.0
C472 C 0.43434 0.79448 0.51922 0.0
C473 C 0.45471 0.76597 0.57222 0.0
H474 H 0.41817 0.81654 0.3819 0.0
H475 H 0.41883 0.81806 0.55531 0.0
S476 S 0.51054 0.68165 0.47107 0.0
N477 N 0.49334 0.70478 0.37655 0.0
N478 N 0.49465 0.70675 0.56481 0.0
C479 C 0.47391 0.73569 0.52142 0.0
C480 C 0.4733 0.73468 0.41907 0.0
C481 C 0.78583 0.92626 0.77858 0.0
C482 C 0.81048 0.95136 0.83101 0.0
C483 C 0.78725 0.92503 0.67836 0.0
C484 C 0.81355 0.94864 0.62612 0.0
H485 H 0.7648 0.90764 0.81505 0.0
H486 H 0.76727 0.90556 0.64158 0.0
S487 S 0.88545 1.01851 0.7283 0.0
N488 N 0.86265 0.99995 0.82249 0.0
N489 N 0.86587 0.99692 0.6343 0.0
C490 C 0.83932 0.97292 0.67743 0.0
C491 C 0.83762 0.97449 0.77971 0.0
C492 C 0.21084 0.21931 0.59469 0.0
C493 C 0.25217 0.21764 0.5998 0.0
C494 C 0.19208 0.22901 0.51002 0.0
C495 C 0.21393 0.23925 0.42915 0.0
H496 H 0.1927 0.21141 0.6557 0.0
H497 H 0.16047 0.22569 0.506 0.0
S498 S 0.32268 0.24358 0.40821 0.0
N499 N 0.31448 0.22929 0.51954 0.0
N500 N 0.27892 0.24923 0.3591 0.0
C501 C 0.2553 0.23974 0.43432 0.0
C502 C 0.27455 0.2288 0.52045 0.0
C503 C 0.37378 0.7211 0.77666 0.0
C504 C 0.36092 0.75734 0.81261 0.0
C505 C 0.35413 0.70268 0.70206 0.0
C506 C 0.3216 0.7204 0.65854 0.0
H507 H 0.39856 0.70618 0.80821 0.0
H508 H 0.36561 0.67509 0.67586 0.0
S509 S 0.27659 0.81555 0.72539 0.0
N510 N 0.31295 0.80986 0.80216 0.0
N511 N 0.27776 0.77665 0.65474 0.0
C512 C 0.30865 0.75693 0.69278 0.0
C513 C 0.32789 0.77507 0.77159 0.0
C514 C 0.87422 0.85463 0.94926 0.0
C515 C 0.8613 0.81851 0.91357 0.0
C516 C 0.85497 0.87271 0.02568 0.0
C517 C 0.8226 0.85489 0.0703 0.0
H518 H 0.89875 0.86964 0.91623 0.0
H519 H 0.86659 0.90009 0.05241 0.0
S520 S 0.77824 0.75963 0.00604 0.0
N521 N 0.81407 0.76562 0.9268 0.0
N522 N 0.77933 0.79847 0.07679 0.0
C523 C 0.80978 0.81839 0.03673 0.0
C524 C 0.82875 0.80048 0.95659 0.0
C525 C 0.70293 0.34494 0.26574 0.0
C526 C 0.72637 0.32415 0.32985 0.0
C527 C 0.71935 0.36252 0.1854 0.0
C528 C 0.76015 0.36161 0.16833 0.0
H529 H 0.67196 0.34948 0.28007 0.0
H530 H 0.69961 0.37627 0.13532 0.0
S531 S 0.83476 0.31162 0.31539 0.0
N532 N 0.79267 0.30349 0.37189 0.0
N533 N 0.82376 0.33776 0.21976 0.0
C534 C 0.78419 0.34099 0.23133 0.0
C535 C 0.76727 0.32223 0.31283 0.0
C536 C 1.0184 0.09494 0.2119 0.0
C537 C 0.99794 0.13018 0.22639 0.0
C538 C 0.99819 0.05923 0.20524 0.0
C539 C 0.95674 0.05741 0.2127 0.0
H540 H 0.05028 0.09467 0.21098 0.0
H541 H 1.01542 1.03266 0.19803 0.0
S542 S 0.88969 0.14324 0.23359 0.0
N543 N 0.93431 0.16215 0.23824 0.0
N544 N 0.89605 0.09557 0.22074 0.0
C545 C 0.93595 0.09308 0.22043 0.0
C546 C 0.95665 0.12929 0.22862 0.0
C547 C 0.50004 0.47685 0.41563 0.0
C548 C 0.51978 0.46238 0.49658 0.0
C549 C 0.47105 0.50601 0.42379 0.0
C550 C 0.46111 0.52224 0.51327 0.0
H551 H 0.50846 0.46691 0.34467 0.0
H552 H 0.45851 0.51781 0.35886 0.0
S553 S 0.50083 0.49167 0.74848 0.0
N554 N 0.52482 0.46417 0.66998 0.0
N555 N 0.47047 0.51909 0.68548 0.0
C556 C 0.47879 0.50628 0.5954 0.0
C557 C 0.50804 0.47627 0.58713 0.0
C558 C 0.10426 0.99512 0.67661 0.0
C559 C 0.11514 1.01774 0.75636 0.0
C560 C 0.07415 0.96725 0.68304 0.0
C561 C 0.05332 0.96157 0.7692 0.0
H562 H 0.11783 1.00041 0.60744 0.0
H563 H 0.06535 0.95221 0.61837 0.0
S564 S 0.07268 1.01123 0.00069 0.0
N565 N 0.10483 1.03073 0.92556 0.0
N566 N 0.04787 0.97867 0.93795 0.0
C567 C 0.06548 0.98247 0.85083 0.0
C568 C 0.09654 1.01045 0.84443 0.0
C569 C 0.60409 0.58075 0.05934 0.0
C570 C 0.61706 0.55769 0.98164 0.0
C571 C 0.57398 0.60845 0.04892 0.0
C572 C 0.55523 0.61375 0.96051 0.0
H573 H 0.61612 0.57604 0.13002 0.0
H574 H 0.56361 0.6238 0.11218 0.0
S575 S 0.58098 0.56361 0.73237 0.0
N576 N 0.61112 0.5442 0.81157 0.0
N577 N 0.55422 0.59616 0.79169 0.0
C578 C 0.56949 0.5925 0.88087 0.0
C579 C 0.60054 0.56455 0.89138 0.0
loop_
_geom_bond_atom_site_label_1
_geom_bond_atom_site_label_2
_geom_bond_distance
_geom_bond_site_symmetry_2
_ccdc_geom_bond_type
Zn0 N4 2.020 . S
Zn0 O8 2.019 . S
Zn0 N10 2.119 . S
Zn0 O18 1.975 . S
C1 N2 1.334 . S
C1 N5 1.336 . S
N2 C1 1.334 . S
N2 C3 1.334 . S
C3 N2 1.334 . S
C3 N4 1.336 . S
N4 Zn0 2.020 . S
N4 C3 1.336 . S
N4 N5 1.354 . S
N5 C1 1.336 . S
N5 N4 1.354 . S
N5 Zn9 2.020 . S
C6 O7 1.244 . S
C6 O30 1.257 . S
O7 C6 1.244 . S
O8 Zn0 2.019 . S
O8 C28 1.257 . S
Zn9 N5 2.020 . S
Zn9 O16 1.975 . S
Zn9 N25 2.119 . S
Zn9 O30 2.019 . S
N10 Zn0 2.119 . S
N10 C12 1.334 . S
N10 C13 1.328 . S
C11 C12 1.391 . S
C11 N14 1.329 . S
C11 H32 0.930 . S
C12 N10 1.334 . S
C12 C11 1.391 . S
C12 H19 0.930 . S
C13 N10 1.328 . S
C13 C15 1.392 . S
C13 H20 0.930 . S
N14 C11 1.329 . S
N14 C15 1.331 . S
C15 C13 1.392 . S
C15 N14 1.331 . S
O16 Zn9 1.975 . S
O16 C17 1.252 . S
C17 O16 1.252 . S
C17 O18 1.252 . S
O18 Zn0 1.975 . S
O18 C17 1.252 . S
H19 C12 0.930 . S
H20 C13 0.930 . S
C21 C22 1.392 . S
C21 N25 1.328 1_655 S
C21 H27 0.930 . S
C22 C21 1.392 . S
C22 N26 1.331 . S
C23 C24 1.391 . S
C23 N26 1.329 . S
C23 H33 0.930 . S
C24 C23 1.391 . S
C24 N25 1.334 1_655 S
C24 H31 0.930 1_655 S
N25 Zn9 2.119 . S
N25 C21 1.328 1_455 S
N25 C24 1.334 1_455 S
N26 C22 1.331 . S
N26 C23 1.329 . S
H27 C21 0.930 . S
C28 O8 1.257 . S
C28 O29 1.244 . S
O29 C28 1.244 . S
O30 C6 1.257 . S
O30 Zn9 2.019 . S
H31 C24 0.930 1_455 S
H32 C11 0.930 . S
H33 C23 0.930 . S
Zn34 N38 2.020 . S
Zn34 O42 2.019 . S
Zn34 N44 2.119 . S
Zn34 O52 1.975 . S
C35 N36 1.334 . S
C35 N39 1.336 . S
N36 C35 1.334 . S
N36 C37 1.334 . S
C37 N36 1.334 . S
C37 N38 1.336 . S
N38 Zn34 2.020 . S
N38 C37 1.336 . S
N38 N39 1.354 . S
N39 C35 1.336 . S
N39 N38 1.354 . S
N39 Zn43 2.020 . S
C40 O41 1.244 . S
C40 O64 1.257 . S
O41 C40 1.244 . S
O42 Zn34 2.019 . S
O42 C62 1.257 . S
Zn43 N39 2.020 . S
Zn43 O50 1.975 . S
Zn43 N59 2.119 . S
Zn43 O64 2.019 . S
N44 Zn34 2.119 . S
N44 C46 1.334 . S
N44 C47 1.328 . S
C45 C46 1.391 . S
C45 N48 1.329 . S
C45 H66 0.930 . S
C46 N44 1.334 . S
C46 C45 1.391 . S
C46 H53 0.930 . S
C47 N44 1.328 . S
C47 C49 1.392 . S
C47 H54 0.930 . S
N48 C45 1.329 . S
N48 C49 1.331 . S
C49 C47 1.392 . S
C49 N48 1.331 . S
O50 Zn43 1.975 . S
O50 C51 1.252 . S
C51 O50 1.252 . S
C51 O52 1.252 . S
O52 Zn34 1.975 . S
O52 C51 1.252 . S
H53 C46 0.930 . S
H54 C47 0.930 . S
C55 C56 1.392 . S
C55 N59 1.328 . S
C55 H61 0.930 . S
C56 C55 1.392 . S
C56 N60 1.331 . S
C57 C58 1.391 . S
C57 N60 1.329 . S
C57 H67 0.930 . S
C58 C57 1.391 . S
C58 N59 1.334 . S
C58 H65 0.930 . S
N59 Zn43 2.119 . S
N59 C55 1.328 . S
N59 C58 1.334 . S
N60 C56 1.331 . S
N60 C57 1.329 . S
H61 C55 0.930 . S
C62 O42 1.257 . S
C62 O63 1.244 . S
O63 C62 1.244 . S
O64 C40 1.257 . S
O64 Zn43 2.019 . S
H65 C58 0.930 . S
H66 C45 0.930 . S
H67 C57 0.930 . S
Zn68 N72 2.020 . S
Zn68 O76 2.019 1_556 S
Zn68 N78 2.119 . S
Zn68 O86 1.975 . S
C69 N70 1.334 . S
C69 N73 1.336 . S
N70 C69 1.334 . S
N70 C71 1.334 . S
C71 N70 1.334 . S
C71 N72 1.336 . S
N72 Zn68 2.020 . S
N72 C71 1.336 . S
N72 N73 1.354 . S
N73 C69 1.336 . S
N73 N72 1.354 . S
N73 Zn77 2.020 . S
C74 O75 1.244 . S
C74 O98 1.257 . S
O75 C74 1.244 . S
O76 Zn68 2.019 1_554 S
O76 C96 1.257 . S
Zn77 N73 2.020 . S
Zn77 O84 1.975 . S
Zn77 N93 2.119 . S
Zn77 O98 2.019 . S
N78 Zn68 2.119 . S
N78 C80 1.334 . S
N78 C81 1.328 . S
C79 C80 1.391 . S
C79 N82 1.329 . S
C79 H100 0.930 . S
C80 N78 1.334 . S
C80 C79 1.391 . S
C80 H87 0.930 . S
C81 N78 1.328 . S
C81 C83 1.392 . S
C81 H88 0.930 1_556 S
N82 C79 1.329 . S
N82 C83 1.331 . S
C83 C81 1.392 . S
C83 N82 1.331 . S
O84 Zn77 1.975 . S
O84 C85 1.252 . S
C85 O84 1.252 . S
C85 O86 1.252 . S
O86 Zn68 1.975 . S
O86 C85 1.252 . S
H87 C80 0.930 . S
H88 C81 0.930 1_554 S
C89 C90 1.392 . S
C89 N93 1.328 1_455 S
C89 H95 0.930 . S
C90 C89 1.392 . S
C90 N94 1.331 . S
C91 C92 1.391 . S
C91 N94 1.329 . S
C91 H101 0.930 . S
C92 C91 1.391 . S
C92 N93 1.334 1_455 S
C92 H99 0.930 1_455 S
N93 Zn77 2.119 . S
N93 C89 1.328 1_655 S
N93 C92 1.334 1_655 S
N94 C90 1.331 . S
N94 C91 1.329 . S
H95 C89 0.930 . S
C96 O76 1.257 . S
C96 O97 1.244 . S
O97 C96 1.244 . S
O98 C74 1.257 . S
O98 Zn77 2.019 . S
H99 C92 0.930 1_655 S
H100 C79 0.930 . S
H101 C91 0.930 . S
Zn102 N106 2.020 . S
Zn102 O110 2.019 . S
Zn102 N112 2.119 . S
Zn102 O120 1.975 . S
C103 N104 1.334 . S
C103 N107 1.336 . S
N104 C103 1.334 . S
N104 C105 1.334 1_556 S
C105 N104 1.334 1_554 S
C105 N106 1.336 . S
N106 Zn102 2.020 . S
N106 C105 1.336 . S
N106 N107 1.354 1_554 S
N107 C103 1.336 . S
N107 N106 1.354 1_556 S
N107 Zn111 2.020 . S
C108 O109 1.244 . S
C108 O132 1.257 . S
O109 C108 1.244 . S
O110 Zn102 2.019 . S
O110 C130 1.257 . S
Zn111 N107 2.020 . S
Zn111 O118 1.975 . S
Zn111 N127 2.119 . S
Zn111 O132 2.019 . S
N112 Zn102 2.119 . S
N112 C114 1.334 1_554 S
N112 C115 1.328 . S
C113 C114 1.391 . S
C113 N116 1.329 1_556 S
C113 H134 0.930 . S
C114 N112 1.334 1_556 S
C114 C113 1.391 . S
C114 H121 0.930 . S
C115 N112 1.328 . S
C115 C117 1.392 . S
C115 H122 0.930 . S
N116 C113 1.329 1_554 S
N116 C117 1.331 . S
C117 C115 1.392 . S
C117 N116 1.331 . S
O118 Zn111 1.975 . S
O118 C119 1.242 1_556 S
C119 O118 1.242 1_554 S
C119 O120 1.262 . S
O120 Zn102 1.975 . S
O120 C119 1.262 . S
H121 C114 0.930 . S
H122 C115 0.930 . S
C123 C124 1.392 . S
C123 N127 1.328 . S
C123 H129 0.930 . S
C124 C123 1.392 . S
C124 N128 1.331 . S
C125 C126 1.391 . S
C125 N128 1.329 1_554 S
C125 H135 0.930 . S
C126 C125 1.391 . S
C126 N127 1.334 1_554 S
C126 H133 0.930 . S
N127 Zn111 2.119 . S
N127 C123 1.328 . S
N127 C126 1.334 1_556 S
N128 C124 1.331 . S
N128 C125 1.329 1_556 S
H129 C123 0.930 . S
C130 O110 1.257 . S
C130 O131 1.244 . S
O131 C130 1.244 . S
O132 C108 1.257 . S
O132 Zn111 2.019 . S
H133 C126 0.930 . S
H134 C113 0.930 . S
H135 C125 0.930 . S
Zn136 N140 2.020 . S
Zn136 O144 2.019 . S
Zn136 N146 2.119 . S
Zn136 O154 1.975 . S
C137 N138 1.334 . S
C137 N141 1.336 . S
N138 C137 1.334 . S
N138 C139 1.334 . S
C139 N138 1.334 . S
C139 N140 1.336 . S
N140 Zn136 2.020 . S
N140 C139 1.336 . S
N140 N141 1.354 . S
N141 C137 1.336 . S
N141 N140 1.354 . S
N141 Zn145 2.020 . S
C142 O143 1.244 . S
C142 O166 1.257 . S
O143 C142 1.244 . S
O144 Zn136 2.019 . S
O144 C164 1.257 . S
Zn145 N141 2.020 . S
Zn145 O152 1.975 . S
Zn145 N161 2.119 . S
Zn145 O166 2.019 . S
N146 Zn136 2.119 . S
N146 C148 1.334 . S
N146 C149 1.328 . S
C147 C148 1.391 . S
C147 N150 1.329 . S
C147 H168 0.930 . S
C148 N146 1.334 . S
C148 C147 1.391 . S
C148 H155 0.930 . S
C149 N146 1.328 . S
C149 C151 1.392 . S
C149 H156 0.930 . S
N150 C147 1.329 . S
N150 C151 1.331 . S
C151 C149 1.392 . S
C151 N150 1.331 . S
O152 Zn145 1.975 . S
O152 C153 1.252 . S
C153 O152 1.252 . S
C153 O154 1.252 . S
O154 Zn136 1.975 . S
O154 C153 1.252 . S
H155 C148 0.930 . S
H156 C149 0.930 . S
C157 C158 1.392 . S
C157 N161 1.328 . S
C157 H163 0.930 . S
C158 C157 1.392 . S
C158 N162 1.331 . S
C159 C160 1.391 . S
C159 N162 1.329 . S
C159 H169 0.930 . S
C160 C159 1.391 . S
C160 N161 1.334 . S
C160 H167 0.930 . S
N161 Zn145 2.119 . S
N161 C157 1.328 . S
N161 C160 1.334 . S
N162 C158 1.331 . S
N162 C159 1.329 . S
H163 C157 0.930 . S
C164 O144 1.257 . S
C164 O165 1.244 . S
O165 C164 1.244 . S
O166 C142 1.257 . S
O166 Zn145 2.019 . S
H167 C160 0.930 . S
H168 C147 0.930 . S
H169 C159 0.930 . S
Zn170 N174 2.020 . S
Zn170 O178 2.019 . S
Zn170 N180 2.119 . S
Zn170 O188 1.975 . S
C171 N172 1.334 . S
C171 N175 1.336 . S
N172 C171 1.334 . S
N172 C173 1.334 . S
C173 N172 1.334 . S
C173 N174 1.336 . S
N174 Zn170 2.020 . S
N174 C173 1.336 . S
N174 N175 1.354 . S
N175 C171 1.336 . S
N175 N174 1.354 . S
N175 Zn179 2.020 . S
C176 O177 1.244 . S
C176 O200 1.257 . S
O177 C176 1.244 . S
O178 Zn170 2.019 . S
O178 C198 1.257 . S
Zn179 N175 2.020 . S
Zn179 O186 1.975 . S
Zn179 N195 2.119 . S
Zn179 O200 2.019 . S
N180 Zn170 2.119 . S
N180 C182 1.334 1_545 S
N180 C183 1.328 1_545 S
C181 C182 1.391 . S
C181 N184 1.329 . S
C181 H202 0.930 . S
C182 N180 1.334 1_565 S
C182 C181 1.391 . S
C182 H189 0.930 1_565 S
C183 N180 1.328 1_565 S
C183 C185 1.392 . S
C183 H190 0.930 . S
N184 C181 1.329 . S
N184 C185 1.331 . S
C185 C183 1.392 . S
C185 N184 1.331 . S
O186 Zn179 1.975 . S
O186 C187 1.252 . S
C187 O186 1.252 . S
C187 O188 1.252 . S
O188 Zn170 1.975 . S
O188 C187 1.252 . S
H189 C182 0.930 1_545 S
H190 C183 0.930 . S
C191 C192 1.392 . S
C191 N195 1.328 . S
C191 H197 0.930 . S
C192 C191 1.392 . S
C192 N196 1.331 . S
C193 C194 1.391 . S
C193 N196 1.329 . S
C193 H203 0.930 . S
C194 C193 1.391 . S
C194 N195 1.334 . S
C194 H201 0.930 . S
N195 Zn179 2.119 . S
N195 C191 1.328 . S
N195 C194 1.334 . S
N196 C192 1.331 . S
N196 C193 1.329 . S
H197 C191 0.930 . S
C198 O178 1.257 . S
C198 O199 1.244 . S
O199 C198 1.244 . S
O200 C176 1.257 . S
O200 Zn179 2.019 . S
H201 C194 0.930 . S
H202 C181 0.930 . S
H203 C193 0.930 . S
Zn204 N208 2.020 . S
Zn204 O212 2.019 . S
Zn204 N214 2.119 . S
Zn204 O222 1.975 . S
C205 N206 1.334 . S
C205 N209 1.336 . S
N206 C205 1.334 . S
N206 C207 1.334 1_554 S
C207 N206 1.334 1_556 S
C207 N208 1.336 . S
N208 Zn204 2.020 . S
N208 C207 1.336 . S
N208 N209 1.354 1_556 S
N209 C205 1.336 . S
N209 N208 1.354 1_554 S
N209 Zn213 2.020 . S
C210 O211 1.244 . S
C210 O234 1.257 . S
O211 C210 1.244 . S
O212 Zn204 2.019 . S
O212 C232 1.257 . S
Zn213 N209 2.020 . S
Zn213 O220 1.975 . S
Zn213 N229 2.119 . S
Zn213 O234 2.019 . S
N214 Zn204 2.119 . S
N214 C216 1.334 1_556 S
N214 C217 1.328 . S
C215 C216 1.391 . S
C215 N218 1.329 1_554 S
C215 H236 0.930 . S
C216 N214 1.334 1_554 S
C216 C215 1.391 . S
C216 H223 0.930 . S
C217 N214 1.328 . S
C217 C219 1.392 . S
C217 H224 0.930 . S
N218 C215 1.329 1_556 S
N218 C219 1.331 . S
C219 C217 1.392 . S
C219 N218 1.331 . S
O220 Zn213 1.975 . S
O220 C221 1.242 1_554 S
C221 O220 1.242 1_556 S
C221 O222 1.262 . S
O222 Zn204 1.975 . S
O222 C221 1.262 . S
H223 C216 0.930 . S
H224 C217 0.930 . S
C225 C226 1.392 . S
C225 N229 1.328 . S
C225 H231 0.930 . S
C226 C225 1.392 . S
C226 N230 1.331 . S
C227 C228 1.391 . S
C227 N230 1.329 1_556 S
C227 H237 0.930 . S
C228 C227 1.391 . S
C228 N229 1.334 1_556 S
C228 H235 0.930 . S
N229 Zn213 2.119 . S
N229 C225 1.328 . S
N229 C228 1.334 1_554 S
N230 C226 1.331 . S
N230 C227 1.329 1_554 S
H231 C225 0.930 . S
C232 O212 1.257 . S
C232 O233 1.244 . S
O233 C232 1.244 . S
O234 C210 1.257 . S
O234 Zn213 2.019 . S
H235 C228 0.930 . S
H236 C215 0.930 . S
H237 C227 0.930 . S
Zn238 N242 2.020 . S
Zn238 O246 2.019 1_554 S
Zn238 N248 2.119 . S
Zn238 O256 1.975 . S
C239 N240 1.334 . S
C239 N243 1.336 . S
N240 C239 1.334 . S
N240 C241 1.334 . S
C241 N240 1.334 . S
C241 N242 1.336 . S
N242 Zn238 2.020 . S
N242 C241 1.336 . S
N242 N243 1.354 . S
N243 C239 1.336 . S
N243 N242 1.354 . S
N243 Zn247 2.020 . S
C244 O245 1.244 . S
C244 O268 1.257 . S
O245 C244 1.244 . S
O246 Zn238 2.019 1_556 S
O246 C266 1.257 . S
Zn247 N243 2.020 . S
Zn247 O254 1.975 . S
Zn247 N263 2.119 . S
Zn247 O268 2.019 . S
N248 Zn238 2.119 . S
N248 C250 1.334 . S
N248 C251 1.328 . S
C249 C250 1.391 . S
C249 N252 1.329 . S
C249 H270 0.930 . S
C250 N248 1.334 . S
C250 C249 1.391 . S
C250 H257 0.930 . S
C251 N248 1.328 . S
C251 C253 1.392 . S
C251 H258 0.930 1_554 S
N252 C249 1.329 . S
N252 C253 1.331 . S
C253 C251 1.392 . S
C253 N252 1.331 . S
O254 Zn247 1.975 . S
O254 C255 1.252 . S
C255 O254 1.252 . S
C255 O256 1.252 . S
O256 Zn238 1.975 . S
O256 C255 1.252 . S
H257 C250 0.930 . S
H258 C251 0.930 1_556 S
C259 C260 1.392 . S
C259 N263 1.328 1_545 S
C259 H265 0.930 . S
C260 C259 1.392 . S
C260 N264 1.331 . S
C261 C262 1.391 . S
C261 N264 1.329 . S
C261 H271 0.930 . S
C262 C261 1.391 . S
C262 N263 1.334 1_545 S
C262 H269 0.930 1_545 S
N263 Zn247 2.119 . S
N263 C259 1.328 1_565 S
N263 C262 1.334 1_565 S
N264 C260 1.331 . S
N264 C261 1.329 . S
H265 C259 0.930 . S
C266 O246 1.257 . S
C266 O267 1.244 . S
O267 C266 1.244 . S
O268 C244 1.257 . S
O268 Zn247 2.019 . S
H269 C262 0.930 1_565 S
H270 C249 0.930 . S
H271 C261 0.930 . S
C272 C273 1.369 . S
C272 C274 1.419 . S
C272 H276 0.930 . S
C273 C272 1.369 . S
C273 C282 1.429 . S
C274 C272 1.419 . S
C274 C275 1.363 . S
C274 H277 0.929 . S
C275 C274 1.363 . S
C275 C281 1.428 . S
H276 C272 0.930 . S
H277 C274 0.929 . S
S278 N279 1.613 . S
S278 N280 1.610 . S
N279 S278 1.613 . S
N279 C282 1.350 . S
N280 S278 1.610 . S
N280 C281 1.351 . S
C281 C275 1.428 . S
C281 N280 1.351 . S
C281 C282 1.434 . S
C282 C273 1.429 . S
C282 N279 1.350 . S
C282 C281 1.434 . S
C283 C284 1.369 . S
C283 C285 1.419 . S
C283 H287 0.930 . S
C284 C283 1.369 . S
C284 C293 1.429 . S
C285 C283 1.419 . S
C285 C286 1.363 . S
C285 H288 0.929 . S
C286 C285 1.363 . S
C286 C292 1.428 . S
H287 C283 0.930 . S
H288 C285 0.929 . S
S289 N290 1.613 . S
S289 N291 1.610 . S
N290 S289 1.613 . S
N290 C293 1.350 . S
N291 S289 1.610 . S
N291 C292 1.351 . S
C292 C286 1.428 . S
C292 N291 1.351 . S
C292 C293 1.434 . S
C293 C284 1.429 . S
C293 N290 1.350 . S
C293 C292 1.434 . S
C294 C295 1.369 . S
C294 C296 1.419 . S
C294 H298 0.930 . S
C295 C294 1.369 . S
C295 C304 1.429 1_556 S
C296 C294 1.419 . S
C296 C297 1.363 . S
C296 H299 0.929 . S
C297 C296 1.363 . S
C297 C303 1.428 1_556 S
H298 C294 0.930 . S
H299 C296 0.929 . S
S300 N301 1.613 . S
S300 N302 1.610 . S
N301 S300 1.613 . S
N301 C304 1.350 . S
N302 S300 1.610 . S
N302 C303 1.351 . S
C303 C297 1.428 1_554 S
C303 N302 1.351 . S
C303 C304 1.434 . S
C304 C295 1.429 1_554 S
C304 N301 1.350 . S
C304 C303 1.434 . S
C305 C306 1.369 . S
C305 C307 1.419 . S
C305 H309 0.930 . S
C306 C305 1.369 . S
C306 C315 1.429 . S
C307 C305 1.419 . S
C307 C308 1.363 . S
C307 H310 0.929 . S
C308 C307 1.363 . S
C308 C314 1.428 . S
H309 C305 0.930 . S
H310 C307 0.929 . S
S311 N312 1.613 . S
S311 N313 1.610 . S
N312 S311 1.613 . S
N312 C315 1.350 . S
N313 S311 1.610 . S
N313 C314 1.351 . S
C314 C308 1.428 . S
C314 N313 1.351 . S
C314 C315 1.434 . S
C315 C306 1.429 . S
C315 N312 1.350 . S
C315 C314 1.434 . S
C316 C317 1.369 . S
C316 C318 1.419 . S
C316 H320 0.930 . S
C317 C316 1.369 . S
C317 C326 1.429 . S
C318 C316 1.419 . S
C318 C319 1.363 . S
C318 H321 0.929 . S
C319 C318 1.363 . S
C319 C325 1.428 . S
H320 C316 0.930 . S
H321 C318 0.929 . S
S322 N323 1.613 1_556 S
S322 N324 1.610 1_556 S
N323 S322 1.613 1_554 S
N323 C326 1.350 . S
N324 S322 1.610 1_554 S
N324 C325 1.351 . S
C325 C319 1.428 . S
C325 N324 1.351 . S
C325 C326 1.434 . S
C326 C317 1.429 . S
C326 N323 1.350 . S
C326 C325 1.434 . S
C327 C328 1.369 . S
C327 C329 1.419 . S
C327 H331 0.930 . S
C328 C327 1.369 . S
C328 C337 1.429 . S
C329 C327 1.419 . S
C329 C330 1.363 . S
C329 H332 0.929 . S
C330 C329 1.363 . S
C330 C336 1.428 . S
H331 C327 0.930 . S
H332 C329 0.929 . S
S333 N334 1.613 . S
S333 N335 1.610 . S
N334 S333 1.613 . S
N334 C337 1.350 . S
N335 S333 1.610 . S
N335 C336 1.351 . S
C336 C330 1.428 . S
C336 N335 1.351 . S
C336 C337 1.434 . S
C337 C328 1.429 . S
C337 N334 1.350 . S
C337 C336 1.434 . S
C338 C339 1.369 . S
C338 C340 1.419 . S
C338 H342 0.930 . S
C339 C338 1.369 . S
C339 C348 1.429 . S
C340 C338 1.419 . S
C340 C341 1.363 . S
C340 H343 0.929 . S
C341 C340 1.363 . S
C341 C347 1.428 . S
H342 C338 0.930 . S
H343 C340 0.929 . S
S344 N345 1.613 . S
S344 N346 1.610 . S
N345 S344 1.613 . S
N345 C348 1.350 . S
N346 S344 1.610 . S
N346 C347 1.351 . S
C347 C341 1.428 . S
C347 N346 1.351 . S
C347 C348 1.434 . S
C348 C339 1.429 . S
C348 N345 1.350 . S
C348 C347 1.434 . S
C349 C350 1.369 1_556 S
C349 C351 1.419 . S
C349 H353 0.930 . S
C350 C349 1.369 1_554 S
C350 C359 1.429 . S
C351 C349 1.419 . S
C351 C352 1.363 1_556 S
C351 H354 0.929 . S
C352 C351 1.363 1_554 S
C352 C358 1.428 . S
H353 C349 0.930 . S
H354 C351 0.929 . S
S355 N356 1.613 . S
S355 N357 1.610 . S
N356 S355 1.613 . S
N356 C359 1.350 . S
N357 S355 1.610 . S
N357 C358 1.351 . S
C358 C352 1.428 . S
C358 N357 1.351 . S
C358 C359 1.434 . S
C359 C350 1.429 . S
C359 N356 1.350 . S
C359 C358 1.434 . S
C360 C361 1.369 . S
C360 C362 1.419 1_556 S
C360 H364 0.930 . S
C361 C360 1.369 . S
C361 C370 1.429 . S
C362 C360 1.419 1_554 S
C362 C363 1.363 . S
C362 H365 0.929 . S
C363 C362 1.363 . S
C363 C369 1.428 . S
H364 C360 0.930 . S
H365 C362 0.929 . S
S366 N367 1.613 1_554 S
S366 N368 1.610 . S
N367 S366 1.613 1_556 S
N367 C370 1.350 . S
N368 S366 1.610 . S
N368 C369 1.351 . S
C369 C363 1.428 . S
C369 N368 1.351 . S
C369 C370 1.434 1_554 S
C370 C361 1.429 . S
C370 N367 1.350 . S
C370 C369 1.434 1_556 S
C371 C372 1.369 . S
C371 C373 1.419 . S
C371 H375 0.930 . S
C372 C371 1.369 . S
C372 C381 1.429 . S
C373 C371 1.419 . S
C373 C374 1.363 . S
C373 H376 0.929 . S
C374 C373 1.363 . S
C374 C380 1.428 . S
H375 C371 0.930 . S
H376 C373 0.929 . S
S377 N378 1.613 . S
S377 N379 1.610 . S
N378 S377 1.613 . S
N378 C381 1.350 . S
N379 S377 1.610 . S
N379 C380 1.351 . S
C380 C374 1.428 . S
C380 N379 1.351 . S
C380 C381 1.434 . S
C381 C372 1.429 . S
C381 N378 1.350 . S
C381 C380 1.434 . S
C382 C383 1.369 . S
C382 C384 1.419 . S
C382 H386 0.930 . S
C383 C382 1.369 . S
C383 C392 1.429 . S
C384 C382 1.419 . S
C384 C385 1.363 . S
C384 H387 0.929 . S
C385 C384 1.363 . S
C385 C391 1.428 . S
H386 C382 0.930 . S
H387 C384 0.929 . S
S388 N389 1.613 . S
S388 N390 1.610 . S
N389 S388 1.613 . S
N389 C392 1.350 . S
N390 S388 1.610 . S
N390 C391 1.351 . S
C391 C385 1.428 . S
C391 N390 1.351 . S
C391 C392 1.434 . S
C392 C383 1.429 . S
C392 N389 1.350 . S
C392 C391 1.434 . S
C393 C394 1.369 . S
C393 C395 1.419 . S
C393 H397 0.930 . S
C394 C393 1.369 . S
C394 C403 1.429 . S
C395 C393 1.419 . S
C395 C396 1.363 . S
C395 H398 0.929 . S
C396 C395 1.363 . S
C396 C402 1.428 . S
H397 C393 0.930 . S
H398 C395 0.929 . S
S399 N400 1.613 . S
S399 N401 1.610 . S
N400 S399 1.613 . S
N400 C403 1.350 . S
N401 S399 1.610 . S
N401 C402 1.351 . S
C402 C396 1.428 . S
C402 N401 1.351 . S
C402 C403 1.434 . S
C403 C394 1.429 . S
C403 N400 1.350 . S
C403 C402 1.434 . S
C404 C405 1.369 . S
C404 C406 1.419 . S
C404 H408 0.930 . S
C405 C404 1.369 . S
C405 C414 1.429 . S
C406 C404 1.419 . S
C406 C407 1.363 . S
C406 H409 0.929 . S
C407 C406 1.363 . S
C407 C413 1.428 . S
H408 C404 0.930 . S
H409 C406 0.929 . S
S410 N411 1.613 1_655 S
S410 N412 1.610 1_655 S
N411 S410 1.613 1_455 S
N411 C414 1.350 . S
N412 S410 1.610 1_455 S
N412 C413 1.351 . S
C413 C407 1.428 . S
C413 N412 1.351 . S
C413 C414 1.434 . S
C414 C405 1.429 . S
C414 N411 1.350 . S
C414 C413 1.434 . S
C415 C416 1.369 . S
C415 C417 1.419 . S
C415 H419 0.930 . S
C416 C415 1.369 . S
C416 C425 1.429 . S
C417 C415 1.419 . S
C417 C418 1.363 1_554 S
C417 H420 0.929 . S
C418 C417 1.363 1_556 S
C418 C424 1.428 1_556 S
H419 C415 0.930 . S
H420 C417 0.929 . S
S421 N422 1.613 . S
S421 N423 1.610 1_554 S
N422 S421 1.613 . S
N422 C425 1.350 . S
N423 S421 1.610 1_556 S
N423 C424 1.351 1_556 S
C424 C418 1.428 1_554 S
C424 N423 1.351 1_554 S
C424 C425 1.434 . S
C425 C416 1.429 . S
C425 N422 1.350 . S
C425 C424 1.434 . S
C426 C427 1.369 . S
C426 C428 1.419 . S
C426 H430 0.930 1_655 S
C427 C426 1.369 . S
C427 C436 1.429 . S
C428 C426 1.419 . S
C428 C429 1.363 . S
C428 H431 0.929 . S
C429 C428 1.363 . S
C429 C435 1.428 . S
H430 C426 0.930 1_455 S
H431 C428 0.929 . S
S432 N433 1.613 . S
S432 N434 1.610 . S
N433 S432 1.613 . S
N433 C436 1.350 . S
N434 S432 1.610 . S
N434 C435 1.351 . S
C435 C429 1.428 . S
C435 N434 1.351 . S
C435 C436 1.434 . S
C436 C427 1.429 . S
C436 N433 1.350 . S
C436 C435 1.434 . S
C437 C438 1.369 . S
C437 C439 1.419 . S
C437 H441 0.930 . S
C438 C437 1.369 . S
C438 C447 1.429 . S
C439 C437 1.419 . S
C439 C440 1.363 . S
C439 H442 0.929 . S
C440 C439 1.363 . S
C440 C446 1.428 . S
H441 C437 0.930 . S
H442 C439 0.929 . S
S443 N444 1.613 . S
S443 N445 1.610 . S
N444 S443 1.613 . S
N444 C447 1.350 . S
N445 S443 1.610 . S
N445 C446 1.351 . S
C446 C440 1.428 . S
C446 N445 1.351 . S
C446 C447 1.434 . S
C447 C438 1.429 . S
C447 N444 1.350 . S
C447 C446 1.434 . S
C448 C449 1.369 1_556 S
C448 C450 1.419 . S
C448 H452 0.930 . S
C449 C448 1.369 1_554 S
C449 C458 1.429 1_554 S
C450 C448 1.419 . S
C450 C451 1.363 . S
C450 H453 0.929 . S
C451 C450 1.363 . S
C451 C457 1.428 . S
H452 C448 0.930 . S
H453 C450 0.929 . S
S454 N455 1.613 1_556 S
S454 N456 1.610 . S
N455 S454 1.613 1_554 S
N455 C458 1.350 1_554 S
N456 S454 1.610 . S
N456 C457 1.351 . S
C457 C451 1.428 . S
C457 N456 1.351 . S
C457 C458 1.434 . S
C458 C449 1.429 1_556 S
C458 N455 1.350 1_556 S
C458 C457 1.434 . S
C459 C460 1.369 . S
C459 C461 1.419 . S
C459 H463 0.930 . S
C460 C459 1.369 . S
C460 C469 1.429 . S
C461 C459 1.419 . S
C461 C462 1.363 . S
C461 H464 0.929 . S
C462 C461 1.363 . S
C462 C468 1.428 . S
H463 C459 0.930 . S
H464 C461 0.929 . S
S465 N466 1.613 . S
S465 N467 1.610 . S
N466 S465 1.613 . S
N466 C469 1.350 . S
N467 S465 1.610 . S
N467 C468 1.351 . S
C468 C462 1.428 . S
C468 N467 1.351 . S
C468 C469 1.434 . S
C469 C460 1.429 . S
C469 N466 1.350 . S
C469 C468 1.434 . S
C470 C471 1.369 . S
C470 C472 1.419 . S
C470 H474 0.930 . S
C471 C470 1.369 . S
C471 C480 1.429 . S
C472 C470 1.419 . S
C472 C473 1.363 . S
C472 H475 0.929 . S
C473 C472 1.363 . S
C473 C479 1.428 . S
H474 C470 0.930 . S
H475 C472 0.929 . S
S476 N477 1.613 . S
S476 N478 1.610 . S
N477 S476 1.613 . S
N477 C480 1.350 . S
N478 S476 1.610 . S
N478 C479 1.351 . S
C479 C473 1.428 . S
C479 N478 1.351 . S
C479 C480 1.434 . S
C480 C471 1.429 . S
C480 N477 1.350 . S
C480 C479 1.434 . S
C481 C482 1.369 . S
C481 C483 1.419 . S
C481 H485 0.930 . S
C482 C481 1.369 . S
C482 C491 1.429 . S
C483 C481 1.419 . S
C483 C484 1.363 . S
C483 H486 0.929 . S
C484 C483 1.363 . S
C484 C490 1.428 . S
H485 C481 0.930 . S
H486 C483 0.929 . S
S487 N488 1.613 . S
S487 N489 1.610 . S
N488 S487 1.613 . S
N488 C491 1.350 1_545 S
N489 S487 1.610 . S
N489 C490 1.351 1_545 S
C490 C484 1.428 . S
C490 N489 1.351 1_565 S
C490 C491 1.434 . S
C491 C482 1.429 . S
C491 N488 1.350 1_565 S
C491 C490 1.434 . S
C492 C493 1.369 . S
C492 C494 1.419 . S
C492 H496 0.930 . S
C493 C492 1.369 . S
C493 C502 1.429 . S
C494 C492 1.419 . S
C494 C495 1.363 . S
C494 H497 0.929 . S
C495 C494 1.363 . S
C495 C501 1.428 . S
H496 C492 0.930 . S
H497 C494 0.929 . S
S498 N499 1.613 . S
S498 N500 1.610 . S
N499 S498 1.613 . S
N499 C502 1.350 . S
N500 S498 1.610 . S
N500 C501 1.351 . S
C501 C495 1.428 . S
C501 N500 1.351 . S
C501 C502 1.434 . S
C502 C493 1.429 . S
C502 N499 1.350 . S
C502 C501 1.434 . S
C503 C504 1.369 . S
C503 C505 1.419 . S
C503 H507 0.930 . S
C504 C503 1.369 . S
C504 C513 1.429 . S
C505 C503 1.419 . S
C505 C506 1.363 . S
C505 H508 0.929 . S
C506 C505 1.363 . S
C506 C512 1.428 . S
H507 C503 0.930 . S
H508 C505 0.929 . S
S509 N510 1.613 . S
S509 N511 1.610 . S
N510 S509 1.613 . S
N510 C513 1.350 . S
N511 S509 1.610 . S
N511 C512 1.351 . S
C512 C506 1.428 . S
C512 N511 1.351 . S
C512 C513 1.434 . S
C513 C504 1.429 . S
C513 N510 1.350 . S
C513 C512 1.434 . S
C514 C515 1.369 . S
C514 C516 1.419 . S
C514 H518 0.930 . S
C515 C514 1.369 . S
C515 C524 1.426 1_556 S
C516 C514 1.419 . S
C516 C517 1.363 1_556 S
C516 H519 0.929 . S
C517 C516 1.363 1_554 S
C517 C523 1.428 . S
H518 C514 0.930 . S
H519 C516 0.929 . S
S520 N521 1.613 . S
S520 N522 1.610 . S
N521 S520 1.613 . S
N521 C524 1.350 . S
N522 S520 1.610 . S
N522 C523 1.351 . S
C523 C517 1.428 . S
C523 N522 1.351 . S
C523 C524 1.437 . S
C524 C515 1.426 1_554 S
C524 N521 1.350 . S
C524 C523 1.437 . S
C525 C526 1.369 . S
C525 C527 1.419 . S
C525 H529 0.930 . S
C526 C525 1.369 . S
C526 C535 1.429 . S
C527 C525 1.419 . S
C527 C528 1.363 . S
C527 H530 0.929 . S
C528 C527 1.363 . S
C528 C534 1.428 . S
H529 C525 0.930 . S
H530 C527 0.929 . S
S531 N532 1.613 . S
S531 N533 1.610 . S
N532 S531 1.613 . S
N532 C535 1.350 . S
N533 S531 1.610 . S
N533 C534 1.351 . S
C534 C528 1.428 . S
C534 N533 1.351 . S
C534 C535 1.434 . S
C535 C526 1.429 . S
C535 N532 1.350 . S
C535 C534 1.434 . S
C536 C537 1.369 . S
C536 C538 1.419 . S
C536 H540 0.930 . S
C537 C536 1.369 . S
C537 C546 1.429 . S
C538 C536 1.419 . S
C538 C539 1.363 . S
C538 H541 0.929 . S
C539 C538 1.363 . S
C539 C545 1.428 . S
H540 C536 0.930 . S
H541 C538 0.929 . S
S542 N543 1.613 . S
S542 N544 1.610 . S
N543 S542 1.613 . S
N543 C546 1.350 . S
N544 S542 1.610 . S
N544 C545 1.351 . S
C545 C539 1.428 . S
C545 N544 1.351 . S
C545 C546 1.434 . S
C546 C537 1.429 . S
C546 N543 1.350 . S
C546 C545 1.434 . S
C547 C548 1.369 . S
C547 C549 1.419 . S
C547 H551 0.930 . S
C548 C547 1.369 . S
C548 C557 1.429 . S
C549 C547 1.419 . S
C549 C550 1.363 . S
C549 H552 0.929 . S
C550 C549 1.363 . S
C550 C556 1.428 . S
H551 C547 0.930 . S
H552 C549 0.929 . S
S553 N554 1.613 . S
S553 N555 1.610 . S
N554 S553 1.613 . S
N554 C557 1.350 . S
N555 S553 1.610 . S
N555 C556 1.351 . S
C556 C550 1.428 . S
C556 N555 1.351 . S
C556 C557 1.434 . S
C557 C548 1.429 . S
C557 N554 1.350 . S
C557 C556 1.434 . S
C558 C559 1.369 . S
C558 C560 1.419 . S
C558 H562 0.930 . S
C559 C558 1.369 . S
C559 C568 1.429 . S
C560 C558 1.419 . S
C560 C561 1.363 . S
C560 H563 0.929 . S
C561 C560 1.363 . S
C561 C567 1.428 . S
H562 C558 0.930 . S
H563 C560 0.929 . S
S564 N565 1.613 . S
S564 N566 1.610 . S
N565 S564 1.613 . S
N565 C568 1.350 . S
N566 S564 1.610 . S
N566 C567 1.351 . S
C567 C561 1.428 . S
C567 N566 1.351 . S
C567 C568 1.434 . S
C568 C559 1.429 . S
C568 N565 1.350 . S
C568 C567 1.434 . S
C569 C570 1.369 1_554 S
C569 C571 1.419 . S
C569 H573 0.930 . S
C570 C569 1.369 1_556 S
C570 C579 1.429 . S
C571 C569 1.419 . S
C571 C572 1.363 . S
C571 H574 0.929 . S
C572 C571 1.363 . S
C572 C578 1.428 1_554 S
H573 C569 0.930 . S
H574 C571 0.929 . S
S575 N576 1.613 . S
S575 N577 1.610 . S
N576 S575 1.613 . S
N576 C579 1.350 . S
N577 S575 1.610 . S
N577 C578 1.351 . S
C578 C572 1.428 1_556 S
C578 N577 1.351 . S
C578 C579 1.434 . S
C579 C570 1.429 . S
C579 N576 1.350 . S
C579 C578 1.434 . S
C273 C15 1.675 . S
C275 C51 1.697 . S
C284 C85 1.637 1_455 S
C286 C56 1.562 . S
C295 C119 1.631 1_556 S
C297 C83 1.544 . S
C306 C17 1.746 1_655 S
C308 C117 1.773 . S
C317 C151 1.569 . S
C319 C255 1.639 1_545 S
C328 C192 1.667 . S
C330 C153 1.695 . S
C339 C187 1.742 1_565 S
C341 C219 1.771 . S
C350 C253 1.543 . S
C352 C221 1.628 1_554 S
C361 C173 2.594 . S
C363 C1 2.593 . S
C372 C205 2.412 . S
C374 C37 2.412 . S
C383 C69 2.609 . S
C385 C239 2.611 . S
C394 C137 2.416 . S
C396 C103 2.412 . S
C405 C28 1.206 . S
C407 C6 1.208 1_556 S
C416 C62 1.214 . S
C418 C40 1.206 . S
C427 C74 1.217 . S
C429 C96 1.220 . S
C438 C130 1.218 . S
C440 C108 1.217 . S
C449 C164 1.206 . S
C451 C142 1.214 . S
C460 C176 1.203 . S
C462 C198 1.208 1_554 S
C471 C210 1.216 . S
C473 C232 1.216 . S
C482 C266 1.220 . S
C484 C244 1.220 . S
C493 C171 1.441 . S
C495 C3 1.431 . S
C504 C207 1.529 . S
C506 C35 1.531 . S
C515 C71 1.352 . S
C517 C241 1.352 . S
C526 C139 1.523 . S
C528 C105 1.529 . S
C537 C22 1.569 . S
C539 C260 1.594 . S
C548 C158 1.506 . S
C550 C49 1.495 . S
C559 C185 1.585 . S
C561 C90 1.582 . S
C570 C124 1.923 . S
C572 C226 1.916 . S
