# Generated by pormake.
# Topology can, (4)-cn, num edge types: 1
# Building blocks:
#     Node 0, Type 0, BuildingBlock: QUQFOY_clean_sbu_1, # of connection points: 4
#     Node 1, Type 0, BuildingBlock: QUQFOY_clean_sbu_1, # of connection points: 4
#     Node 2, Type 0, BuildingBlock: QUQFOY_clean_sbu_1, # of connection points: 4
#     Node 3, Type 0, BuildingBlock: QUQFOY_clean_sbu_1, # of connection points: 4
#     Node 4, Type 0, BuildingBlock: QUQFOY_clean_sbu_1, # of connection points: 4
#     Node 5, Type 0, BuildingBlock: QUQFOY_clean_sbu_1, # of connection points: 4
#     Node 6, Type 0, BuildingBlock: QUQFOY_clean_sbu_1, # of connection points: 4
#     Node 7, Type 0, BuildingBlock: QUQFOY_clean_sbu_1, # of connection points: 4
#     Node 8, Type 0, BuildingBlock: QUQFOY_clean_sbu_1, # of connection points: 4
#     Node 9, Type 0, BuildingBlock: QUQFOY_clean_sbu_1, # of connection points: 4
#     Node 10, Type 0, BuildingBlock: QUQFOY_clean_sbu_1, # of connection points: 4
#     Node 11, Type 0, BuildingBlock: QUQFOY_clean_sbu_1, # of connection points: 4
#     Edge 12, Type (0, 0), BuildingBlock: AJUNOK_clean_linker_0, # of connection points: 2
#     Edge 13, Type (0, 0), BuildingBlock: AJUNOK_clean_linker_0, # of connection points: 2
#     Edge 14, Type (0, 0), BuildingBlock: AJUNOK_clean_linker_0, # of connection points: 2
#     Edge 15, Type (0, 0), BuildingBlock: AJUNOK_clean_linker_0, # of connection points: 2
#     Edge 16, Type (0, 0), BuildingBlock: AJUNOK_clean_linker_0, # of connection points: 2
#     Edge 17, Type (0, 0), BuildingBlock: AJUNOK_clean_linker_0, # of connection points: 2
#     Edge 18, Type (0, 0), BuildingBlock: AJUNOK_clean_linker_0, # of connection points: 2
#     Edge 19, Type (0, 0), BuildingBlock: AJUNOK_clean_linker_0, # of connection points: 2
#     Edge 20, Type (0, 0), BuildingBlock: AJUNOK_clean_linker_0, # of connection points: 2
#     Edge 21, Type (0, 0), BuildingBlock: AJUNOK_clean_linker_0, # of connection points: 2
#     Edge 22, Type (0, 0), BuildingBlock: AJUNOK_clean_linker_0, # of connection points: 2
#     Edge 23, Type (0, 0), BuildingBlock: AJUNOK_clean_linker_0, # of connection points: 2
#     Edge 24, Type (0, 0), BuildingBlock: AJUNOK_clean_linker_0, # of connection points: 2
#     Edge 25, Type (0, 0), BuildingBlock: AJUNOK_clean_linker_0, # of connection points: 2
#     Edge 26, Type (0, 0), BuildingBlock: AJUNOK_clean_linker_0, # of connection points: 2
#     Edge 27, Type (0, 0), BuildingBlock: AJUNOK_clean_linker_0, # of connection points: 2
#     Edge 28, Type (0, 0), BuildingBlock: AJUNOK_clean_linker_0, # of connection points: 2
#     Edge 29, Type (0, 0), BuildingBlock: AJUNOK_clean_linker_0, # of connection points: 2
#     Edge 30, Type (0, 0), BuildingBlock: AJUNOK_clean_linker_0, # of connection points: 2
#     Edge 31, Type (0, 0), BuildingBlock: AJUNOK_clean_linker_0, # of connection points: 2
#     Edge 32, Type (0, 0), BuildingBlock: AJUNOK_clean_linker_0, # of connection points: 2
#     Edge 33, Type (0, 0), BuildingBlock: AJUNOK_clean_linker_0, # of connection points: 2
#     Edge 34, Type (0, 0), BuildingBlock: AJUNOK_clean_linker_0, # of connection points: 2
#     Edge 35, Type (0, 0), BuildingBlock: AJUNOK_clean_linker_0, # of connection points: 2
# Relax obj value: 0.087
# Max RMSD: 0.097
# Mean RMSD: 0.097
data_MOF--net-can--node1-QUQFOY_clean_sbu_1--edge1-AJUNOK_clean_linker_0
_symmetry_space_group_name_H-M    P1
_symmetry_Int_Tables_number       1
_symmetry_cell_setting            triclinic
loop_
_symmetry_equiv_pos_as_xyz
'x, y, z'
_cell_length_a     43.812157
_cell_length_b     43.76521
_cell_length_c     20.711133
_cell_angle_alpha  89.948321
_cell_angle_beta   89.670884
_cell_angle_gamma 119.87011
loop_
_atom_site_label
_atom_site_type_symbol
_atom_site_fract_x
_atom_site_fract_y
_atom_site_fract_z
_atom_type_partial_charge
O0 O 0.05936 0.38367 0.15814 0.0
Cd1 Cd 0.08856 0.41486 0.23346 0.0
Cd2 Cd 0.02423 0.38314 0.29105 0.0
O3 O 0.00829 0.3533 0.2078 0.0
O4 O 0.13761 0.43004 0.20559 0.0
O5 O 0.1134 0.39903 0.29461 0.0
C6 C 0.14009 0.41402 0.25575 0.0
C7 C 0.01004 0.35783 0.39417 0.0
C8 C 0.02724 0.35967 0.15738 0.0
C9 C 0.05971 0.46166 0.26962 0.0
O10 O 0.03166 0.43356 0.28528 0.0
O11 O 0.0866 0.46028 0.25045 0.0
O12 O 0.98659 0.35836 0.3576 0.0
O13 O 0.0415 0.37037 0.37087 0.0
O14 O 0.67208 0.06153 0.6609 0.0
Cd15 Cd 0.67113 0.09128 0.73675 0.0
Cd16 Cd 0.63899 0.02727 0.79414 0.0
O17 O 0.65273 0.01076 0.71094 0.0
O18 O 0.70478 0.14005 0.70745 0.0
O19 O 0.71248 0.11622 0.79586 0.0
C20 C 0.72382 0.14266 0.75655 0.0
C21 C 0.65055 0.0149 0.89807 0.0
C22 C 0.66446 0.02949 0.66011 0.0
C23 C 0.59606 0.06295 0.77447 0.0
O24 O 0.59603 0.03463 0.78845 0.0
O25 O 0.62432 0.09003 0.75609 0.0
O26 O 0.62671 0.99069 0.86249 0.0
O27 O 0.66934 0.04591 0.87295 0.0
O28 O 0.61079 0.67122 0.16608 0.0
Cd29 Cd 0.58029 0.67082 0.24225 0.0
Cd30 Cd 0.6111 0.63718 0.29856 0.0
O31 O 0.64095 0.65012 0.21481 0.0
O32 O 0.56552 0.70468 0.21258 0.0
O33 O 0.59688 0.71263 0.30084 0.0
C34 C 0.58195 0.72397 0.26141 0.0
C35 C 0.63552 0.64874 0.40181 0.0
C36 C 0.63457 0.66271 0.16462 0.0
C37 C 0.53257 0.59582 0.28061 0.0
O38 O 0.56043 0.59499 0.29406 0.0
O39 O 0.53444 0.6244 0.26211 0.0
O40 O 0.63508 0.62435 0.36617 0.0
O41 O 0.62378 0.66801 0.37709 0.0
O42 O 0.93475 0.60852 0.66304 0.0
Cd43 Cd 0.90535 0.57734 0.73915 0.0
Cd44 Cd 0.96892 0.61144 0.79576 0.0
O45 O 0.98514 0.6413 0.7123 0.0
O46 O 0.85632 0.56092 0.71077 0.0
O47 O 0.87929 0.5927 0.79887 0.0
C48 C 0.85302 0.57706 0.75997 0.0
C49 C 0.98045 0.63578 0.89908 0.0
C50 C 0.9664 0.6336 0.66181 0.0
C51 C 0.93651 0.53312 0.77658 0.0
O52 O 0.96377 0.56204 0.79083 0.0
O53 O 0.9087 0.53283 0.75839 0.0
O54 O 0.0051 0.63675 0.86324 0.0
O55 O 0.94939 0.6227 0.87447 0.0
O56 O 0.32433 0.93038 0.15966 0.0
Cd57 Cd 0.3239 0.90314 0.24099 0.0
Cd58 Cd 0.35516 0.96775 0.29126 0.0
O59 O 0.34006 0.98122 0.20645 0.0
O60 O 0.2924 0.85259 0.22018 0.0
O61 O 0.27985 0.88085 0.29525 0.0
C62 C 0.27103 0.85231 0.26343 0.0
C63 C 0.34225 0.97985 0.3943 0.0
C64 C 0.33006 0.9618 0.15653 0.0
C65 C 0.39895 0.93325 0.28023 0.0
O66 O 0.39926 0.96225 0.28707 0.0
O67 O 0.37037 0.9054 0.26703 0.0
O68 O 0.36541 0.00451 0.35775 0.0
O69 O 0.32471 0.94852 0.37036 0.0
O70 O 0.38516 0.32408 0.66757 0.0
Cd71 Cd 0.41525 0.32443 0.74362 0.0
Cd72 Cd 0.38139 0.35456 0.80199 0.0
O73 O 0.35208 0.34127 0.71829 0.0
O74 O 0.43096 0.29118 0.71438 0.0
O75 O 0.39836 0.28233 0.80208 0.0
C76 C 0.41391 0.27144 0.76283 0.0
C77 C 0.35589 0.34364 0.90502 0.0
C78 C 0.36015 0.33085 0.66704 0.0
C79 C 0.46011 0.39915 0.78285 0.0
O80 O 0.4313 0.398 0.79715 0.0
O81 O 0.46006 0.37149 0.76398 0.0
O82 O 0.35609 0.36729 0.86759 0.0
O83 O 0.36862 0.32473 0.88248 0.0
O84 O 0.60924 0.93378 0.40722 0.0
Cd85 Cd 0.57909 0.90511 0.3306 0.0
Cd86 Cd 0.61056 0.96973 0.27539 0.0
O87 O 0.64016 0.98518 0.35888 0.0
O88 O 0.56424 0.85584 0.35632 0.0
O89 O 0.59624 0.8815 0.26891 0.0
C90 C 0.58092 0.8542 0.30624 0.0
C91 C 0.63561 0.98429 0.17199 0.0
C92 C 0.63334 0.96585 0.40884 0.0
C93 C 0.53205 0.93361 0.29567 0.0
O94 O 0.56013 0.96206 0.28168 0.0
O95 O 0.53354 0.90655 0.31315 0.0
O96 O 0.63523 0.00766 0.20937 0.0
O97 O 0.6232 0.95274 0.1947 0.0
O98 O 0.67121 0.60408 0.91126 0.0
Cd99 Cd 0.66922 0.57381 0.83378 0.0
Cd100 Cd 0.64049 0.60901 0.77839 0.0
O101 O 0.6555 0.63859 0.86197 0.0
O102 O 0.70276 0.55756 0.85739 0.0
O103 O 0.70981 0.59086 0.7717 0.0
C104 C 0.72129 0.57468 0.80774 0.0
C105 C 0.65168 0.63415 0.67513 0.0
C106 C 0.66562 0.62989 0.91266 0.0
C107 C 0.59403 0.53061 0.79795 0.0
O108 O 0.59596 0.55989 0.78471 0.0
O109 O 0.62143 0.52965 0.81458 0.0
O110 O 0.62881 0.63517 0.71318 0.0
O111 O 0.66966 0.62034 0.69713 0.0
O112 O 0.06099 0.66939 0.40614 0.0
Cd113 Cd 0.08868 0.66952 0.32542 0.0
Cd114 Cd 0.02409 0.63792 0.27385 0.0
O115 O 0.01023 0.65265 0.35885 0.0
O116 O 0.13896 0.70085 0.34772 0.0
O117 O 0.11192 0.71346 0.2709 0.0
C118 C 0.14004 0.72222 0.30379 0.0
C119 C 0.00997 0.65011 0.17216 0.0
C120 C 0.02938 0.66307 0.40891 0.0
C121 C 0.05902 0.59441 0.28531 0.0
O122 O 0.03012 0.59405 0.27715 0.0
O123 O 0.08657 0.62294 0.3 0.0
O124 O 0.98626 0.6266 0.20959 0.0
O125 O 0.04165 0.66813 0.19409 0.0
O126 O 0.3842 0.05846 0.90363 0.0
Cd127 Cd 0.41477 0.08882 0.82777 0.0
Cd128 Cd 0.3841 0.02516 0.76936 0.0
O129 O 0.35473 0.00771 0.85348 0.0
O130 O 0.42901 0.13761 0.85541 0.0
O131 O 0.39793 0.11312 0.7674 0.0
C132 C 0.41288 0.13993 0.80547 0.0
C133 C 0.35834 0.01043 0.66725 0.0
C134 C 0.36088 0.02605 0.90435 0.0
C135 C 0.46263 0.06186 0.78855 0.0
O136 O 0.43485 0.03367 0.77305 0.0
O137 O 0.46073 0.08826 0.80885 0.0
O138 O 0.35988 0.98738 0.70378 0.0
O139 O 0.37013 0.0418 0.69003 0.0
O140 O 0.32147 0.38818 0.41383 0.0
Cd141 Cd 0.32338 0.41844 0.33629 0.0
Cd142 Cd 0.35501 0.38589 0.28135 0.0
O143 O 0.34108 0.35645 0.36559 0.0
O144 O 0.28856 0.43329 0.35922 0.0
O145 O 0.28351 0.40084 0.27358 0.0
C146 C 0.27099 0.41633 0.30914 0.0
C147 C 0.34246 0.36093 0.17841 0.0
C148 C 0.32896 0.36366 0.41568 0.0
C149 C 0.39859 0.46445 0.29873 0.0
O150 O 0.3983 0.43596 0.28525 0.0
O151 O 0.3705 0.46365 0.31717 0.0
O152 O 0.36639 0.36051 0.21383 0.0
O153 O 0.3242 0.37385 0.20321 0.0
O154 O 0.93301 0.32195 0.90504 0.0
Cd155 Cd 0.90502 0.32463 0.82815 0.0
Cd156 Cd 0.96882 0.35395 0.77255 0.0
O157 O 0.98361 0.33875 0.85582 0.0
O158 O 0.85538 0.29121 0.85278 0.0
O159 O 0.8814 0.28436 0.76638 0.0
C160 C 0.85384 0.27288 0.80298 0.0
C161 C 0.98048 0.34174 0.66843 0.0
C162 C 0.96441 0.32773 0.9063 0.0
C163 C 0.93655 0.4001 0.79201 0.0
O164 O 0.96402 0.39845 0.77845 0.0
O165 O 0.90846 0.37251 0.8093 0.0
O166 O 0.00521 0.36475 0.70434 0.0
O167 O 0.94931 0.32401 0.69344 0.0
C168 C 0.03204 0.35416 0.03808 0.0
C169 C 0.01114 0.34327 0.09462 0.0
C170 C 0.01682 0.3463 0.97671 0.0
C171 C 0.98007 0.32725 0.96938 0.0
H172 H 0.06034 0.37086 0.04094 0.0
H173 H 0.03396 0.35746 0.93506 0.0
S174 S 0.91407 0.28528 0.10122 0.0
N175 N 0.9521 0.30702 0.1388 0.0
N176 N 0.9235 0.29215 1.02342 0.0
C177 C 0.9591 0.31288 1.02518 0.0
C178 C 0.97462 0.32089 0.0878 0.0
C179 C 0.66636 0.01859 0.47917 0.0
C180 C 0.64927 0.9818 0.47188 0.0
C181 C 0.67379 0.03398 0.54048 0.0
C182 C 0.66445 0.01323 0.59709 0.0
H183 H 0.67192 0.03562 0.43755 0.0
H184 H 0.68498 0.06228 0.54329 0.0
S185 S 0.62692 0.91624 0.60377 0.0
N186 N 0.62896 0.92543 0.52601 0.0
N187 N 0.64278 0.95437 0.64127 0.0
C188 C 0.65083 0.97673 0.59027 0.0
C189 C 0.64326 0.96102 0.52769 0.0
C190 C 0.66628 0.64118 0.09388 0.0
C191 C 0.65066 0.6623 0.10157 0.0
C192 C 0.67372 0.63317 1.03238 0.0
C193 C 0.66588 0.64597 0.97604 0.0
H194 H 0.6706 0.6287 0.13527 0.0
H195 H 0.68368 0.61499 1.02918 0.0
S196 S 0.63262 0.70913 0.97067 0.0
N197 N 0.63339 0.70093 0.04826 0.0
N198 N 0.64727 0.68578 0.93268 0.0
C199 C 0.65379 0.67015 0.98335 0.0
C200 C 0.64619 0.67831 0.0461 0.0
C201 C 0.0346 0.67131 0.52866 0.0
C202 C 0.01386 0.66343 0.47272 0.0
C203 C 0.01938 0.66452 0.59042 0.0
C204 C 0.9828 0.64947 0.5987 0.0
H205 H 0.06259 0.68085 0.52493 0.0
H206 H 0.03618 0.66878 0.63156 0.0
S207 S 0.91785 0.63149 0.46907 0.0
N208 N 0.95557 0.6454 0.43038 0.0
N209 N 0.92702 0.63259 0.54651 0.0
C210 C 0.96226 0.64489 0.54364 0.0
C211 C 0.97777 0.65189 0.48065 0.0
C212 C 0.35465 0.02958 1.02374 0.0
C213 C 0.34504 0.00898 0.96729 0.0
C214 C 0.34725 0.01403 0.08514 0.0
C215 C 0.32998 0.97721 0.09268 0.0
H216 H 0.36987 0.05806 1.02077 0.0
H217 H 0.3572 0.03115 0.12672 0.0
S218 S 0.29228 0.91131 0.96102 0.0
N219 N 0.31219 0.94971 0.92333 0.0
N220 N 0.29823 0.92047 0.03879 0.0
C221 C 0.31709 0.95626 0.03693 0.0
C222 C 0.32459 0.97214 0.97425 0.0
C223 C 0.3482 0.33007 0.48615 0.0
C224 C 0.32879 0.34752 0.47889 0.0
C225 C 0.35581 0.3222 0.54744 0.0
C226 C 0.34431 0.33141 0.60406 0.0
H227 H 0.35968 0.32451 0.44449 0.0
H228 H 0.37268 0.3107 0.55024 0.0
S229 S 0.2857 0.37002 0.61087 0.0
N230 N 0.29305 0.36823 0.53309 0.0
N231 N 0.30747 0.35355 0.64833 0.0
C232 C 0.32176 0.34547 0.5973 0.0
C233 C 0.31401 0.35352 0.53473 0.0
C234 C 0.02204 0.66304 0.99116 0.0
C235 C 0.9872 0.64574 0.96828 0.0
C236 C 0.02926 0.66677 0.05747 0.0
C237 C 0.00192 0.65296 0.10361 0.0
H238 H 0.044 0.67242 0.95767 0.0
H239 H 0.05645 0.67863 0.07245 0.0
S240 S 0.90628 0.61015 0.06935 0.0
N241 N 0.92517 0.61845 0.99736 0.0
N242 N 0.93873 0.6251 0.12189 0.0
C243 C 0.96706 0.63795 0.0815 0.0
C244 C 0.9597 0.63446 1.01388 0.0
C245 C 0.3565 0.02183 0.48627 0.0
C246 C 0.3393 0.98686 0.46364 0.0
C247 C 0.36026 0.02931 0.55257 0.0
C248 C 0.34736 0.0021 0.59887 0.0
H249 H 0.36862 0.0437 0.45257 0.0
H250 H 0.3753 0.05659 0.56738 0.0
S251 S 0.29565 0.90619 0.56553 0.0
N252 N 0.30555 0.92483 0.49336 0.0
N253 N 0.31304 0.9389 0.61775 0.0
C254 C 0.32789 0.9671 0.57709 0.0
C255 C 0.32371 0.95948 0.50955 0.0
C256 C 0.35985 0.32862 1.02002 0.0
C257 C 0.34563 0.34161 0.97403 0.0
C258 C 0.35685 0.33312 0.08636 0.0
C259 C 0.33911 0.35038 0.10944 0.0
H260 H 0.37532 0.3168 1.00475 0.0
H261 H 0.36991 0.32433 0.11963 0.0
S262 S 0.29216 0.38408 1.00907 0.0
N263 N 0.3096 0.36879 0.95631 0.0
N264 N 0.30351 0.3768 0.08087 0.0
C265 C 0.32227 0.3609 0.06411 0.0
C266 C 0.32568 0.35667 0.99646 0.0
C267 C 0.02211 0.35671 0.57498 0.0
C268 C 0.98728 0.33906 0.5988 0.0
C269 C 0.02933 0.36047 0.50845 0.0
C270 C 0.00199 0.3471 0.46302 0.0
H271 H 0.04407 0.36913 0.60791 0.0
H272 H 0.05651 0.3758 0.49274 0.0
S273 S 0.90637 0.29416 0.49971 0.0
N274 N 0.92525 0.30445 0.57123 0.0
N275 N 0.93882 0.31193 0.44635 0.0
C276 C 0.96714 0.32725 0.48602 0.0
C277 C 0.95978 0.32308 0.55384 0.0
C278 C 0.63553 0.97282 0.99065 0.0
C279 C 0.6533 0.00777 0.96741 0.0
C280 C 0.63212 0.96534 0.05706 0.0
C281 C 0.64594 0.99254 0.10298 0.0
H282 H 0.62283 0.95098 0.95738 0.0
H283 H 0.61674 0.93809 0.07238 0.0
S284 S 0.69898 0.08835 0.06772 0.0
N285 N 0.68825 0.06972 0.99592 0.0
N286 N 0.68141 0.05568 0.12057 0.0
C287 C 0.66578 0.02749 0.08046 0.0
C288 C 0.66961 0.0351 1.01276 0.0
C289 C 0.66211 0.633 0.49359 0.0
C290 C 0.64572 0.65159 0.47084 0.0
C291 C 0.66632 0.62968 0.55988 0.0
C292 C 0.65388 0.64443 0.60616 0.0
H293 H 0.67048 0.61957 0.46008 0.0
H294 H 0.6775 0.61363 0.57485 0.0
S295 S 0.6136 0.69991 0.57209 0.0
N296 N 0.6206 0.68834 0.50008 0.0
N297 N 0.62808 0.68171 0.62451 0.0
C298 C 0.63966 0.66513 0.58407 0.0
C299 C 0.63572 0.66885 0.51648 0.0
C300 C 0.0287 0.52857 0.28157 0.0
C301 C 0.0602 0.56118 0.27975 0.0
C302 C 0.02891 0.4967 0.27859 0.0
C303 C 0.06061 0.49602 0.27292 0.0
H304 H 0.00356 0.52753 0.28621 0.0
H305 H 0.00388 0.47238 0.28044 0.0
S306 S 0.15046 0.57416 0.26472 0.0
N307 N 0.12409 0.59085 0.27112 0.0
N308 N 0.12447 0.53098 0.26503 0.0
C309 C 0.09235 0.52845 0.27034 0.0
C310 C 0.09215 0.56097 0.27394 0.0
C311 C 0.4983 0.03179 0.78099 0.0
C312 C 0.49717 0.06332 0.7845 0.0
C313 C 0.53035 0.03203 0.77837 0.0
C314 C 0.56269 0.06384 0.77825 0.0
H315 H 0.4742 0.00654 0.78096 0.0
H316 H 0.52968 0.00698 0.77577 0.0
S317 S 0.57442 0.15383 0.78625 0.0
N318 N 0.53135 0.12738 0.78763 0.0
N319 N 0.59163 0.12784 0.78199 0.0
C320 C 0.56203 0.09564 0.78136 0.0
C321 C 0.5293 0.09538 0.78474 0.0
C322 C 0.49646 0.53013 0.28644 0.0
C323 C 0.49793 0.56299 0.28543 0.0
C324 C 0.46427 0.49858 0.2902 0.0
C325 C 0.43213 0.49849 0.29395 0.0
H326 H 0.52038 0.52864 0.28366 0.0
H327 H 0.46471 0.47405 0.29073 0.0
S328 S 0.42139 0.5775 0.2939 0.0
N329 N 0.46433 0.59356 0.28881 0.0
N330 N 0.40381 0.53426 0.2965 0.0
C331 C 0.43316 0.53118 0.29337 0.0
C332 C 0.46601 0.56338 0.28887 0.0
C333 C 0.90562 0.46719 0.78275 0.0
C334 C 0.93729 0.49965 0.78063 0.0
C335 C 0.90564 0.43522 0.78677 0.0
C336 C 0.93733 0.43436 0.78797 0.0
H337 H 0.88052 0.46641 0.78184 0.0
H338 H 0.88054 0.41098 0.78843 0.0
S339 S 0.02757 0.51205 0.78271 0.0
N340 N 0.0013 0.52893 0.77965 0.0
N341 N 0.00135 0.46897 0.78673 0.0
C342 C 0.96923 0.46664 0.78552 0.0
C343 C 0.9692 0.49921 0.78205 0.0
C344 C 0.46471 0.96398 0.28514 0.0
C345 C 0.43226 0.93228 0.28565 0.0
C346 C 0.49666 0.96404 0.28811 0.0
C347 C 0.49761 0.93242 0.29238 0.0
H348 H 0.46557 0.9891 0.28165 0.0
H349 H 0.52083 0.98922 0.28737 0.0
S350 S 0.42002 0.84209 0.29645 0.0
N351 N 0.40306 0.86826 0.29135 0.0
N352 N 0.4631 0.86839 0.29733 0.0
C353 C 0.46536 0.90047 0.29354 0.0
C354 C 0.43274 0.9004 0.29003 0.0
C355 C 0.55833 0.46487 0.78878 0.0
C356 C 0.55961 0.49753 0.79449 0.0
C357 C 0.52612 0.43327 0.78488 0.0
C358 C 0.49385 0.433 0.78743 0.0
H359 H 0.58241 0.46365 0.78657 0.0
H360 H 0.52659 0.40887 0.78017 0.0
S361 S 0.48272 0.51147 0.80397 0.0
N362 N 0.52573 0.52764 0.80354 0.0
N363 N 0.46532 0.46844 0.79674 0.0
C364 C 0.49477 0.4655 0.7938 0.0
C365 C 0.52757 0.49768 0.79712 0.0
C366 C 0.18438 0.41481 0.33184 0.0
C367 C 0.17278 0.4132 0.26822 0.0
C368 C 0.21631 0.41594 0.34449 0.0
C369 C 0.23723 0.41449 0.29406 0.0
H370 H 0.16912 0.41609 0.37204 0.0
H371 H 0.22457 0.41774 0.39422 0.0
S372 S 0.21751 0.40825 0.11916 0.0
N373 N 0.18414 0.40939 0.15425 0.0
N374 N 0.24361 0.41031 0.17826 0.0
C375 C 0.22544 0.4119 0.23033 0.0
C376 C 0.19335 0.41161 0.21735 0.0
C377 C 0.7996 0.21919 0.84122 0.0
C378 C 0.82145 0.23933 0.78961 0.0
C379 C 0.76845 0.18739 0.83026 0.0
C380 C 0.75761 0.17519 0.76723 0.0
H381 H 0.80675 0.22794 0.89056 0.0
H382 H 0.75234 0.17272 0.87132 0.0
S383 S 0.80566 0.21776 0.6156 0.0
N384 N 0.8306 0.24431 0.67335 0.0
N385 N 0.77139 0.18511 0.65253 0.0
C386 C 0.77923 0.19499 0.71519 0.0
C387 C 0.81138 0.22692 0.72644 0.0
C388 C 0.58222 0.76932 0.33461 0.0
C389 C 0.58329 0.75795 0.2717 0.0
C390 C 0.5814 0.80053 0.34518 0.0
C391 C 0.58263 0.82192 0.29327 0.0
H392 H 0.58107 0.75354 0.37589 0.0
H393 H 0.57997 0.80804 0.39445 0.0
S394 S 0.5876 0.80471 0.1194 0.0
N395 N 0.58647 0.7708 0.15679 0.0
N396 N 0.58611 0.8301 0.17684 0.0
C397 C 0.58475 0.81136 0.23021 0.0
C398 C 0.58473 0.77916 0.21938 0.0
C399 C 0.80728 0.57563 0.83416 0.0
C400 C 0.81998 0.57753 0.77104 0.0
C401 C 0.77513 0.57446 0.8454 0.0
C402 C 0.75512 0.57617 0.79403 0.0
H403 H 0.82187 0.57424 0.87504 0.0
H404 H 0.76604 0.57251 0.8948 0.0
S405 S 0.77791 0.58313 0.61995 0.0
N406 N 0.81063 0.5818 0.65653 0.0
N407 N 0.75078 0.58084 0.6779 0.0
C408 C 0.768 0.57898 0.73079 0.0
C409 C 0.80029 0.57929 0.71924 0.0
C410 C 0.23707 0.78815 0.28655 0.0
C411 C 0.23739 0.81994 0.27541 0.0
C412 C 0.20533 0.75664 0.29601 0.0
C413 C 0.17285 0.75572 0.29222 0.0
H414 H 0.26157 0.78772 0.28864 0.0
H415 H 0.20619 0.73272 0.30544 0.0
S416 S 0.15968 0.83185 0.26212 0.0
N417 N 0.20287 0.8489 0.26102 0.0
N418 N 0.14289 0.78924 0.27591 0.0
C419 C 0.17281 0.78728 0.28002 0.0
C420 C 0.20522 0.81957 0.27242 0.0
C421 C 0.4123 0.22507 0.83532 0.0
C422 C 0.41227 0.23725 0.7726 0.0
C423 C 0.4125 0.19349 0.84538 0.0
C424 C 0.41166 0.17254 0.79312 0.0
H425 H 0.41307 0.24046 0.87686 0.0
H426 H 0.41317 0.18535 0.89453 0.0
S427 S 0.40941 0.19194 0.6195 0.0
N428 N 0.41051 0.22565 0.65746 0.0
N429 N 0.40972 0.1657 0.67653 0.0
C430 C 0.4106 0.18394 0.73022 0.0
C431 C 0.41125 0.2165 0.71993 0.0
loop_
_geom_bond_atom_site_label_1
_geom_bond_atom_site_label_2
_geom_bond_distance
_geom_bond_site_symmetry_2
_ccdc_geom_bond_type
O0 Cd1 2.223 . S
O0 C8 1.315 . S
Cd1 O0 2.223 . S
Cd1 O4 2.297 . S
Cd1 O5 2.439 . S
Cd1 O11 2.240 . S
Cd2 O3 2.240 1_655 S
Cd2 O10 2.206 . S
Cd2 O12 2.297 . S
Cd2 O13 2.439 1_655 S
O3 Cd2 2.240 1_455 S
O3 C8 1.279 . S
O4 Cd1 2.297 . S
O4 C6 1.247 . S
O5 Cd1 2.439 . S
O5 C6 1.208 . S
C6 O4 1.247 . S
C6 O5 1.208 . S
C7 O12 1.247 1_455 S
C7 O13 1.208 . S
C8 O0 1.315 . S
C8 O3 1.279 . S
C9 O10 1.290 1_455 S
C9 O11 1.279 . S
O10 Cd2 2.206 . S
O10 C9 1.290 1_655 S
O11 Cd1 2.240 . S
O11 C9 1.279 . S
O12 Cd2 2.297 . S
O12 C7 1.247 1_655 S
O13 Cd2 2.439 1_455 S
O13 C7 1.208 . S
O14 Cd15 2.223 . S
O14 C22 1.315 . S
Cd15 O14 2.223 . S
Cd15 O18 2.297 . S
Cd15 O19 2.439 . S
Cd15 O25 2.240 . S
Cd16 O17 2.240 1_565 S
Cd16 O24 2.243 . S
Cd16 O26 2.297 . S
Cd16 O27 2.439 1_565 S
O17 Cd16 2.240 1_545 S
O17 C22 1.279 . S
O18 Cd15 2.297 . S
O18 C20 1.247 . S
O19 Cd15 2.439 . S
O19 C20 1.208 . S
C20 O18 1.247 . S
C20 O19 1.208 . S
C21 O26 1.247 1_545 S
C21 O27 1.208 . S
C22 O14 1.315 . S
C22 O17 1.279 . S
C23 O24 1.278 1_545 S
C23 O25 1.279 . S
O24 Cd16 2.243 . S
O24 C23 1.278 1_565 S
O25 Cd15 2.240 . S
O25 C23 1.279 . S
O26 Cd16 2.297 . S
O26 C21 1.247 1_565 S
O27 Cd16 2.439 1_545 S
O27 C21 1.208 . S
O28 Cd29 2.223 . S
O28 C36 1.315 . S
Cd29 O28 2.223 . S
Cd29 O32 2.297 . S
Cd29 O33 2.439 . S
Cd29 O39 2.240 . S
Cd30 O31 2.240 . S
Cd30 O38 2.223 . S
Cd30 O40 2.297 . S
Cd30 O41 2.439 . S
O31 Cd30 2.240 . S
O31 C36 1.279 . S
O32 Cd29 2.297 . S
O32 C34 1.247 . S
O33 Cd29 2.439 . S
O33 C34 1.208 . S
C34 O32 1.247 . S
C34 O33 1.208 . S
C35 O40 1.247 . S
C35 O41 1.208 . S
C36 O28 1.315 . S
C36 O31 1.279 . S
C37 O38 1.315 . S
C37 O39 1.279 . S
O38 Cd30 2.223 . S
O38 C37 1.315 . S
O39 Cd29 2.240 . S
O39 C37 1.279 . S
O40 Cd30 2.297 . S
O40 C35 1.247 . S
O41 Cd30 2.439 . S
O41 C35 1.208 . S
O42 Cd43 2.223 . S
O42 C50 1.315 . S
Cd43 O42 2.223 . S
Cd43 O46 2.297 . S
Cd43 O47 2.439 . S
Cd43 O53 2.240 . S
Cd44 O45 2.240 1_455 S
Cd44 O52 2.206 . S
Cd44 O54 2.297 . S
Cd44 O55 2.439 1_455 S
O45 Cd44 2.240 1_655 S
O45 C50 1.279 . S
O46 Cd43 2.297 . S
O46 C48 1.247 . S
O47 Cd43 2.439 . S
O47 C48 1.208 . S
C48 O46 1.247 . S
C48 O47 1.208 . S
C49 O54 1.247 1_655 S
C49 O55 1.208 . S
C50 O42 1.315 . S
C50 O45 1.279 . S
C51 O52 1.290 1_655 S
C51 O53 1.279 . S
O52 Cd44 2.206 . S
O52 C51 1.290 1_455 S
O53 Cd43 2.240 . S
O53 C51 1.279 . S
O54 Cd44 2.297 . S
O54 C49 1.247 1_455 S
O55 Cd44 2.439 1_655 S
O55 C49 1.208 . S
O56 Cd57 2.223 . S
O56 C64 1.315 . S
Cd57 O56 2.223 . S
Cd57 O60 2.297 . S
Cd57 O61 2.439 . S
Cd57 O67 2.240 . S
Cd58 O59 2.240 1_545 S
Cd58 O66 2.243 . S
Cd58 O68 2.297 . S
Cd58 O69 2.439 1_545 S
O59 Cd58 2.240 1_565 S
O59 C64 1.279 . S
O60 Cd57 2.297 . S
O60 C62 1.247 . S
O61 Cd57 2.439 . S
O61 C62 1.208 . S
C62 O60 1.247 . S
C62 O61 1.208 . S
C63 O68 1.247 1_565 S
C63 O69 1.208 . S
C64 O56 1.315 . S
C64 O59 1.279 . S
C65 O66 1.278 1_565 S
C65 O67 1.279 . S
O66 Cd58 2.243 . S
O66 C65 1.278 1_545 S
O67 Cd57 2.240 . S
O67 C65 1.279 . S
O68 Cd58 2.297 . S
O68 C63 1.247 1_545 S
O69 Cd58 2.439 1_565 S
O69 C63 1.208 . S
O70 Cd71 2.223 . S
O70 C78 1.315 . S
Cd71 O70 2.223 . S
Cd71 O74 2.297 . S
Cd71 O75 2.439 . S
Cd71 O81 2.240 . S
Cd72 O73 2.240 . S
Cd72 O80 2.223 . S
Cd72 O82 2.297 . S
Cd72 O83 2.439 . S
O73 Cd72 2.240 . S
O73 C78 1.279 . S
O74 Cd71 2.297 . S
O74 C76 1.247 . S
O75 Cd71 2.439 . S
O75 C76 1.208 . S
C76 O74 1.247 . S
C76 O75 1.208 . S
C77 O82 1.247 . S
C77 O83 1.208 . S
C78 O70 1.315 . S
C78 O73 1.279 . S
C79 O80 1.315 . S
C79 O81 1.279 . S
O80 Cd72 2.223 . S
O80 C79 1.315 . S
O81 Cd71 2.240 . S
O81 C79 1.279 . S
O82 Cd72 2.297 . S
O82 C77 1.247 . S
O83 Cd72 2.439 . S
O83 C77 1.208 . S
O84 Cd85 2.223 . S
O84 C92 1.315 . S
Cd85 O84 2.223 . S
Cd85 O88 2.297 . S
Cd85 O89 2.439 . S
Cd85 O95 2.240 . S
Cd86 O87 2.240 1_545 S
Cd86 O94 2.206 . S
Cd86 O96 2.297 . S
Cd86 O97 2.439 1_545 S
O87 Cd86 2.240 1_565 S
O87 C92 1.279 . S
O88 Cd85 2.297 . S
O88 C90 1.247 . S
O89 Cd85 2.439 . S
O89 C90 1.208 . S
C90 O88 1.247 . S
C90 O89 1.208 . S
C91 O96 1.247 1_565 S
C91 O97 1.208 . S
C92 O84 1.315 . S
C92 O87 1.279 . S
C93 O94 1.290 1_565 S
C93 O95 1.279 . S
O94 Cd86 2.206 . S
O94 C93 1.290 1_545 S
O95 Cd85 2.240 . S
O95 C93 1.279 . S
O96 Cd86 2.297 . S
O96 C91 1.247 1_545 S
O97 Cd86 2.439 1_565 S
O97 C91 1.208 . S
O98 Cd99 2.223 . S
O98 C106 1.315 . S
Cd99 O98 2.223 . S
Cd99 O102 2.297 . S
Cd99 O103 2.439 . S
Cd99 O109 2.240 . S
Cd100 O101 2.240 . S
Cd100 O108 2.223 . S
Cd100 O110 2.297 . S
Cd100 O111 2.439 . S
O101 Cd100 2.240 . S
O101 C106 1.279 . S
O102 Cd99 2.297 . S
O102 C104 1.247 . S
O103 Cd99 2.439 . S
O103 C104 1.208 . S
C104 O102 1.247 . S
C104 O103 1.208 . S
C105 O110 1.247 . S
C105 O111 1.208 . S
C106 O98 1.315 . S
C106 O101 1.279 . S
C107 O108 1.315 . S
C107 O109 1.279 . S
O108 Cd100 2.223 . S
O108 C107 1.315 . S
O109 Cd99 2.240 . S
O109 C107 1.279 . S
O110 Cd100 2.297 . S
O110 C105 1.247 . S
O111 Cd100 2.439 . S
O111 C105 1.208 . S
O112 Cd113 2.223 . S
O112 C120 1.315 . S
Cd113 O112 2.223 . S
Cd113 O116 2.297 . S
Cd113 O117 2.439 . S
Cd113 O123 2.240 . S
Cd114 O115 2.240 1_655 S
Cd114 O122 2.243 . S
Cd114 O124 2.297 . S
Cd114 O125 2.439 1_655 S
O115 Cd114 2.240 1_455 S
O115 C120 1.279 . S
O116 Cd113 2.297 . S
O116 C118 1.247 . S
O117 Cd113 2.439 . S
O117 C118 1.208 . S
C118 O116 1.247 . S
C118 O117 1.208 . S
C119 O124 1.247 1_455 S
C119 O125 1.208 . S
C120 O112 1.315 . S
C120 O115 1.279 . S
C121 O122 1.278 1_455 S
C121 O123 1.279 . S
O122 Cd114 2.243 . S
O122 C121 1.278 1_655 S
O123 Cd113 2.240 . S
O123 C121 1.279 . S
O124 Cd114 2.297 . S
O124 C119 1.247 1_655 S
O125 Cd114 2.439 1_455 S
O125 C119 1.208 . S
O126 Cd127 2.223 . S
O126 C134 1.315 . S
Cd127 O126 2.223 . S
Cd127 O130 2.297 . S
Cd127 O131 2.439 . S
Cd127 O137 2.240 . S
Cd128 O129 2.240 1_565 S
Cd128 O136 2.206 . S
Cd128 O138 2.297 . S
Cd128 O139 2.439 1_565 S
O129 Cd128 2.240 1_545 S
O129 C134 1.279 . S
O130 Cd127 2.297 . S
O130 C132 1.247 . S
O131 Cd127 2.439 . S
O131 C132 1.208 . S
C132 O130 1.247 . S
C132 O131 1.208 . S
C133 O138 1.247 1_545 S
C133 O139 1.208 . S
C134 O126 1.315 . S
C134 O129 1.279 . S
C135 O136 1.290 1_545 S
C135 O137 1.279 . S
O136 Cd128 2.206 . S
O136 C135 1.290 1_565 S
O137 Cd127 2.240 . S
O137 C135 1.279 . S
O138 Cd128 2.297 . S
O138 C133 1.247 1_565 S
O139 Cd128 2.439 1_545 S
O139 C133 1.208 . S
O140 Cd141 2.223 . S
O140 C148 1.315 . S
Cd141 O140 2.223 . S
Cd141 O144 2.297 . S
Cd141 O145 2.439 . S
Cd141 O151 2.240 . S
Cd142 O143 2.240 . S
Cd142 O150 2.223 . S
Cd142 O152 2.297 . S
Cd142 O153 2.439 . S
O143 Cd142 2.240 . S
O143 C148 1.279 . S
O144 Cd141 2.297 . S
O144 C146 1.247 . S
O145 Cd141 2.439 . S
O145 C146 1.208 . S
C146 O144 1.247 . S
C146 O145 1.208 . S
C147 O152 1.247 . S
C147 O153 1.208 . S
C148 O140 1.315 . S
C148 O143 1.279 . S
C149 O150 1.315 . S
C149 O151 1.279 . S
O150 Cd142 2.223 . S
O150 C149 1.315 . S
O151 Cd141 2.240 . S
O151 C149 1.279 . S
O152 Cd142 2.297 . S
O152 C147 1.247 . S
O153 Cd142 2.439 . S
O153 C147 1.208 . S
O154 Cd155 2.223 . S
O154 C162 1.315 . S
Cd155 O154 2.223 . S
Cd155 O158 2.297 . S
Cd155 O159 2.439 . S
Cd155 O165 2.240 . S
Cd156 O157 2.240 1_455 S
Cd156 O164 2.243 . S
Cd156 O166 2.297 . S
Cd156 O167 2.439 1_455 S
O157 Cd156 2.240 1_655 S
O157 C162 1.279 . S
O158 Cd155 2.297 . S
O158 C160 1.247 . S
O159 Cd155 2.439 . S
O159 C160 1.208 . S
C160 O158 1.247 . S
C160 O159 1.208 . S
C161 O166 1.247 1_655 S
C161 O167 1.208 . S
C162 O154 1.315 . S
C162 O157 1.279 . S
C163 O164 1.278 1_655 S
C163 O165 1.279 . S
O164 Cd156 2.243 . S
O164 C163 1.278 1_455 S
O165 Cd155 2.240 . S
O165 C163 1.279 . S
O166 Cd156 2.297 . S
O166 C161 1.247 1_455 S
O167 Cd156 2.439 1_655 S
O167 C161 1.208 . S
C168 C169 1.369 . S
C168 C170 1.419 1_554 S
C168 H172 0.930 . S
C169 C168 1.369 . S
C169 C178 1.429 1_455 S
C170 C168 1.419 1_556 S
C170 C171 1.363 1_455 S
C170 H173 0.929 . S
C171 C170 1.363 1_655 S
C171 C177 1.428 . S
H172 C168 0.930 . S
H173 C170 0.929 . S
S174 N175 1.613 . S
S174 N176 1.610 1_554 S
N175 S174 1.613 . S
N175 C178 1.350 . S
N176 S174 1.610 1_556 S
N176 C177 1.351 . S
C177 C171 1.428 . S
C177 N176 1.351 . S
C177 C178 1.434 1_556 S
C178 C169 1.429 1_655 S
C178 N175 1.350 . S
C178 C177 1.434 1_554 S
C179 C180 1.369 1_545 S
C179 C181 1.419 . S
C179 H183 0.930 . S
C180 C179 1.369 1_565 S
C180 C189 1.429 . S
C181 C179 1.419 . S
C181 C182 1.363 . S
C181 H184 0.929 . S
C182 C181 1.363 . S
C182 C188 1.428 1_545 S
H183 C179 0.930 . S
H184 C181 0.929 . S
S185 N186 1.613 . S
S185 N187 1.610 . S
N186 S185 1.613 . S
N186 C189 1.350 . S
N187 S185 1.610 . S
N187 C188 1.351 . S
C188 C182 1.428 1_565 S
C188 N187 1.351 . S
C188 C189 1.434 . S
C189 C180 1.429 . S
C189 N186 1.350 . S
C189 C188 1.434 . S
C190 C191 1.369 . S
C190 C192 1.419 1_554 S
C190 H194 0.930 . S
C191 C190 1.369 . S
C191 C200 1.429 . S
C192 C190 1.419 1_556 S
C192 C193 1.363 . S
C192 H195 0.929 . S
C193 C192 1.363 . S
C193 C199 1.428 . S
H194 C190 0.930 . S
H195 C192 0.929 . S
S196 N197 1.613 1_556 S
S196 N198 1.610 . S
N197 S196 1.613 1_554 S
N197 C200 1.350 . S
N198 S196 1.610 . S
N198 C199 1.351 . S
C199 C193 1.428 . S
C199 N198 1.351 . S
C199 C200 1.434 1_556 S
C200 C191 1.429 . S
C200 N197 1.350 . S
C200 C199 1.434 1_554 S
C201 C202 1.369 . S
C201 C203 1.419 . S
C201 H205 0.930 . S
C202 C201 1.369 . S
C202 C211 1.429 1_455 S
C203 C201 1.419 . S
C203 C204 1.363 1_455 S
C203 H206 0.929 . S
C204 C203 1.363 1_655 S
C204 C210 1.428 . S
H205 C201 0.930 . S
H206 C203 0.929 . S
S207 N208 1.613 . S
S207 N209 1.610 . S
N208 S207 1.613 . S
N208 C211 1.350 . S
N209 S207 1.610 . S
N209 C210 1.351 . S
C210 C204 1.428 . S
C210 N209 1.351 . S
C210 C211 1.434 . S
C211 C202 1.429 1_655 S
C211 N208 1.350 . S
C211 C210 1.434 . S
C212 C213 1.369 . S
C212 C214 1.419 1_556 S
C212 H216 0.930 . S
C213 C212 1.369 . S
C213 C222 1.429 1_545 S
C214 C212 1.419 1_554 S
C214 C215 1.363 1_545 S
C214 H217 0.929 . S
C215 C214 1.363 1_565 S
C215 C221 1.428 . S
H216 C212 0.930 . S
H217 C214 0.929 . S
S218 N219 1.613 . S
S218 N220 1.610 1_556 S
N219 S218 1.613 . S
N219 C222 1.350 . S
N220 S218 1.610 1_554 S
N220 C221 1.351 . S
C221 C215 1.428 . S
C221 N220 1.351 . S
C221 C222 1.434 1_554 S
C222 C213 1.429 1_565 S
C222 N219 1.350 . S
C222 C221 1.434 1_556 S
C223 C224 1.369 . S
C223 C225 1.419 . S
C223 H227 0.930 . S
C224 C223 1.369 . S
C224 C233 1.429 . S
C225 C223 1.419 . S
C225 C226 1.363 . S
C225 H228 0.929 . S
C226 C225 1.363 . S
C226 C232 1.428 . S
H227 C223 0.930 . S
H228 C225 0.929 . S
S229 N230 1.613 . S
S229 N231 1.610 . S
N230 S229 1.613 . S
N230 C233 1.350 . S
N231 S229 1.610 . S
N231 C232 1.351 . S
C232 C226 1.428 . S
C232 N231 1.351 . S
C232 C233 1.434 . S
C233 C224 1.429 . S
C233 N230 1.350 . S
C233 C232 1.434 . S
C234 C235 1.369 1_455 S
C234 C236 1.419 1_556 S
C234 H238 0.930 . S
C235 C234 1.369 1_655 S
C235 C244 1.429 . S
C236 C234 1.419 1_554 S
C236 C237 1.363 . S
C236 H239 0.929 . S
C237 C236 1.363 . S
C237 C243 1.428 1_455 S
H238 C234 0.930 . S
H239 C236 0.929 . S
S240 N241 1.613 1_554 S
S240 N242 1.610 . S
N241 S240 1.613 1_556 S
N241 C244 1.350 . S
N242 S240 1.610 . S
N242 C243 1.351 . S
C243 C237 1.428 1_655 S
C243 N242 1.351 . S
C243 C244 1.434 1_554 S
C244 C235 1.429 . S
C244 N241 1.350 . S
C244 C243 1.434 1_556 S
C245 C246 1.369 1_545 S
C245 C247 1.419 . S
C245 H249 0.930 . S
C246 C245 1.369 1_565 S
C246 C255 1.429 . S
C247 C245 1.419 . S
C247 C248 1.363 . S
C247 H250 0.929 . S
C248 C247 1.363 . S
C248 C254 1.428 1_545 S
H249 C245 0.930 . S
H250 C247 0.929 . S
S251 N252 1.613 . S
S251 N253 1.610 . S
N252 S251 1.613 . S
N252 C255 1.350 . S
N253 S251 1.610 . S
N253 C254 1.351 . S
C254 C248 1.428 1_565 S
C254 N253 1.351 . S
C254 C255 1.434 . S
C255 C246 1.429 . S
C255 N252 1.350 . S
C255 C254 1.434 . S
C256 C257 1.369 . S
C256 C258 1.419 1_556 S
C256 H260 0.930 . S
C257 C256 1.369 . S
C257 C266 1.429 . S
C258 C256 1.419 1_554 S
C258 C259 1.363 . S
C258 H261 0.929 . S
C259 C258 1.363 . S
C259 C265 1.428 . S
H260 C256 0.930 . S
H261 C258 0.929 . S
S262 N263 1.613 . S
S262 N264 1.610 1_556 S
N263 S262 1.613 . S
N263 C266 1.350 . S
N264 S262 1.610 1_554 S
N264 C265 1.351 . S
C265 C259 1.428 . S
C265 N264 1.351 . S
C265 C266 1.434 1_554 S
C266 C257 1.429 . S
C266 N263 1.350 . S
C266 C265 1.434 1_556 S
C267 C268 1.369 1_455 S
C267 C269 1.419 . S
C267 H271 0.930 . S
C268 C267 1.369 1_655 S
C268 C277 1.429 . S
C269 C267 1.419 . S
C269 C270 1.363 . S
C269 H272 0.929 . S
C270 C269 1.363 . S
C270 C276 1.428 1_455 S
H271 C267 0.930 . S
H272 C269 0.929 . S
S273 N274 1.613 . S
S273 N275 1.610 . S
N274 S273 1.613 . S
N274 C277 1.350 . S
N275 S273 1.610 . S
N275 C276 1.351 . S
C276 C270 1.428 1_655 S
C276 N275 1.351 . S
C276 C277 1.434 . S
C277 C268 1.429 . S
C277 N274 1.350 . S
C277 C276 1.434 . S
C278 C279 1.369 1_565 S
C278 C280 1.419 1_556 S
C278 H282 0.930 . S
C279 C278 1.369 1_545 S
C279 C288 1.429 . S
C280 C278 1.419 1_554 S
C280 C281 1.363 . S
C280 H283 0.929 . S
C281 C280 1.363 . S
C281 C287 1.428 1_565 S
H282 C278 0.930 . S
H283 C280 0.929 . S
S284 N285 1.613 1_554 S
S284 N286 1.610 . S
N285 S284 1.613 1_556 S
N285 C288 1.350 . S
N286 S284 1.610 . S
N286 C287 1.351 . S
C287 C281 1.428 1_545 S
C287 N286 1.351 . S
C287 C288 1.434 1_554 S
C288 C279 1.429 . S
C288 N285 1.350 . S
C288 C287 1.434 1_556 S
C289 C290 1.369 . S
C289 C291 1.419 . S
C289 H293 0.930 . S
C290 C289 1.369 . S
C290 C299 1.429 . S
C291 C289 1.419 . S
C291 C292 1.363 . S
C291 H294 0.929 . S
C292 C291 1.363 . S
C292 C298 1.428 . S
H293 C289 0.930 . S
H294 C291 0.929 . S
S295 N296 1.613 . S
S295 N297 1.610 . S
N296 S295 1.613 . S
N296 C299 1.350 . S
N297 S295 1.610 . S
N297 C298 1.351 . S
C298 C292 1.428 . S
C298 N297 1.351 . S
C298 C299 1.434 . S
C299 C290 1.429 . S
C299 N296 1.350 . S
C299 C298 1.434 . S
C300 C301 1.369 . S
C300 C302 1.419 . S
C300 H304 0.930 . S
C301 C300 1.369 . S
C301 C310 1.429 . S
C302 C300 1.419 . S
C302 C303 1.363 . S
C302 H305 0.929 . S
C303 C302 1.363 . S
C303 C309 1.428 . S
H304 C300 0.930 . S
H305 C302 0.929 . S
S306 N307 1.613 . S
S306 N308 1.610 . S
N307 S306 1.613 . S
N307 C310 1.350 . S
N308 S306 1.610 . S
N308 C309 1.351 . S
C309 C303 1.428 . S
C309 N308 1.351 . S
C309 C310 1.434 . S
C310 C301 1.429 . S
C310 N307 1.350 . S
C310 C309 1.434 . S
C311 C312 1.369 . S
C311 C313 1.419 . S
C311 H315 0.930 1_545 S
C312 C311 1.369 . S
C312 C321 1.429 . S
C313 C311 1.419 . S
C313 C314 1.363 . S
C313 H316 0.929 1_545 S
C314 C313 1.363 . S
C314 C320 1.428 . S
H315 C311 0.930 1_565 S
H316 C313 0.929 1_565 S
S317 N318 1.613 . S
S317 N319 1.610 . S
N318 S317 1.613 . S
N318 C321 1.350 . S
N319 S317 1.610 . S
N319 C320 1.351 . S
C320 C314 1.428 . S
C320 N319 1.351 . S
C320 C321 1.434 . S
C321 C312 1.429 . S
C321 N318 1.350 . S
C321 C320 1.434 . S
C322 C323 1.369 . S
C322 C324 1.419 . S
C322 H326 0.930 . S
C323 C322 1.369 . S
C323 C332 1.429 . S
C324 C322 1.419 . S
C324 C325 1.363 . S
C324 H327 0.929 . S
C325 C324 1.363 . S
C325 C331 1.428 . S
H326 C322 0.930 . S
H327 C324 0.929 . S
S328 N329 1.613 . S
S328 N330 1.610 . S
N329 S328 1.613 . S
N329 C332 1.350 . S
N330 S328 1.610 . S
N330 C331 1.351 . S
C331 C325 1.428 . S
C331 N330 1.351 . S
C331 C332 1.434 . S
C332 C323 1.429 . S
C332 N329 1.350 . S
C332 C331 1.434 . S
C333 C334 1.369 . S
C333 C335 1.419 . S
C333 H337 0.930 . S
C334 C333 1.369 . S
C334 C343 1.429 . S
C335 C333 1.419 . S
C335 C336 1.363 . S
C335 H338 0.929 . S
C336 C335 1.363 . S
C336 C342 1.428 . S
H337 C333 0.930 . S
H338 C335 0.929 . S
S339 N340 1.613 . S
S339 N341 1.610 . S
N340 S339 1.613 . S
N340 C343 1.350 1_455 S
N341 S339 1.610 . S
N341 C342 1.351 1_455 S
C342 C336 1.428 . S
C342 N341 1.351 1_655 S
C342 C343 1.434 . S
C343 C334 1.429 . S
C343 N340 1.350 1_655 S
C343 C342 1.434 . S
C344 C345 1.369 . S
C344 C346 1.419 . S
C344 H348 0.930 1_565 S
C345 C344 1.369 . S
C345 C354 1.429 . S
C346 C344 1.419 . S
C346 C347 1.363 . S
C346 H349 0.929 1_565 S
C347 C346 1.363 . S
C347 C353 1.428 . S
H348 C344 0.930 1_545 S
H349 C346 0.929 1_545 S
S350 N351 1.613 . S
S350 N352 1.610 . S
N351 S350 1.613 . S
N351 C354 1.350 . S
N352 S350 1.610 . S
N352 C353 1.351 . S
C353 C347 1.428 . S
C353 N352 1.351 . S
C353 C354 1.434 . S
C354 C345 1.429 . S
C354 N351 1.350 . S
C354 C353 1.434 . S
C355 C356 1.369 . S
C355 C357 1.419 . S
C355 H359 0.930 . S
C356 C355 1.369 . S
C356 C365 1.429 . S
C357 C355 1.419 . S
C357 C358 1.363 . S
C357 H360 0.929 . S
C358 C357 1.363 . S
C358 C364 1.428 . S
H359 C355 0.930 . S
H360 C357 0.929 . S
S361 N362 1.613 . S
S361 N363 1.610 . S
N362 S361 1.613 . S
N362 C365 1.350 . S
N363 S361 1.610 . S
N363 C364 1.351 . S
C364 C358 1.428 . S
C364 N363 1.351 . S
C364 C365 1.434 . S
C365 C356 1.429 . S
C365 N362 1.350 . S
C365 C364 1.434 . S
C366 C367 1.369 . S
C366 C368 1.419 . S
C366 H370 0.930 . S
C367 C366 1.369 . S
C367 C376 1.429 . S
C368 C366 1.419 . S
C368 C369 1.363 . S
C368 H371 0.929 . S
C369 C368 1.363 . S
C369 C375 1.428 . S
H370 C366 0.930 . S
H371 C368 0.929 . S
S372 N373 1.613 . S
S372 N374 1.610 . S
N373 S372 1.613 . S
N373 C376 1.350 . S
N374 S372 1.610 . S
N374 C375 1.351 . S
C375 C369 1.428 . S
C375 N374 1.351 . S
C375 C376 1.434 . S
C376 C367 1.429 . S
C376 N373 1.350 . S
C376 C375 1.434 . S
C377 C378 1.369 . S
C377 C379 1.419 . S
C377 H381 0.930 . S
C378 C377 1.369 . S
C378 C387 1.429 . S
C379 C377 1.419 . S
C379 C380 1.363 . S
C379 H382 0.929 . S
C380 C379 1.363 . S
C380 C386 1.428 . S
H381 C377 0.930 . S
H382 C379 0.929 . S
S383 N384 1.613 . S
S383 N385 1.610 . S
N384 S383 1.613 . S
N384 C387 1.350 . S
N385 S383 1.610 . S
N385 C386 1.351 . S
C386 C380 1.428 . S
C386 N385 1.351 . S
C386 C387 1.434 . S
C387 C378 1.429 . S
C387 N384 1.350 . S
C387 C386 1.434 . S
C388 C389 1.369 . S
C388 C390 1.419 . S
C388 H392 0.930 . S
C389 C388 1.369 . S
C389 C398 1.429 . S
C390 C388 1.419 . S
C390 C391 1.363 . S
C390 H393 0.929 . S
C391 C390 1.363 . S
C391 C397 1.428 . S
H392 C388 0.930 . S
H393 C390 0.929 . S
S394 N395 1.613 . S
S394 N396 1.610 . S
N395 S394 1.613 . S
N395 C398 1.350 . S
N396 S394 1.610 . S
N396 C397 1.351 . S
C397 C391 1.428 . S
C397 N396 1.351 . S
C397 C398 1.434 . S
C398 C389 1.429 . S
C398 N395 1.350 . S
C398 C397 1.434 . S
C399 C400 1.369 . S
C399 C401 1.419 . S
C399 H403 0.930 . S
C400 C399 1.369 . S
C400 C409 1.429 . S
C401 C399 1.419 . S
C401 C402 1.363 . S
C401 H404 0.929 . S
C402 C401 1.363 . S
C402 C408 1.428 . S
H403 C399 0.930 . S
H404 C401 0.929 . S
S405 N406 1.613 . S
S405 N407 1.610 . S
N406 S405 1.613 . S
N406 C409 1.350 . S
N407 S405 1.610 . S
N407 C408 1.351 . S
C408 C402 1.428 . S
C408 N407 1.351 . S
C408 C409 1.434 . S
C409 C400 1.429 . S
C409 N406 1.350 . S
C409 C408 1.434 . S
C410 C411 1.369 . S
C410 C412 1.419 . S
C410 H414 0.930 . S
C411 C410 1.369 . S
C411 C420 1.429 . S
C412 C410 1.419 . S
C412 C413 1.363 . S
C412 H415 0.929 . S
C413 C412 1.363 . S
C413 C419 1.428 . S
H414 C410 0.930 . S
H415 C412 0.929 . S
S416 N417 1.613 . S
S416 N418 1.610 . S
N417 S416 1.613 . S
N417 C420 1.350 . S
N418 S416 1.610 . S
N418 C419 1.351 . S
C419 C413 1.428 . S
C419 N418 1.351 . S
C419 C420 1.434 . S
C420 C411 1.429 . S
C420 N417 1.350 . S
C420 C419 1.434 . S
C421 C422 1.369 . S
C421 C423 1.419 . S
C421 H425 0.930 . S
C422 C421 1.369 . S
C422 C431 1.429 . S
C423 C421 1.419 . S
C423 C424 1.363 . S
C423 H426 0.929 . S
C424 C423 1.363 . S
C424 C430 1.428 . S
H425 C421 0.930 . S
H426 C423 0.929 . S
S427 N428 1.613 . S
S427 N429 1.610 . S
N428 S427 1.613 . S
N428 C431 1.350 . S
N429 S427 1.610 . S
N429 C430 1.351 . S
C430 C424 1.428 . S
C430 N429 1.351 . S
C430 C431 1.434 . S
C431 C422 1.429 . S
C431 N428 1.350 . S
C431 C430 1.434 . S
C169 C8 1.830 . S
C171 C162 1.828 . S
C180 C92 1.827 . S
C182 C22 1.830 . S
C191 C36 1.826 . S
C193 C106 1.831 . S
C202 C120 1.831 . S
C204 C50 1.828 . S
C213 C134 1.831 . S
C215 C64 1.827 . S
C224 C148 1.826 . S
C226 C78 1.830 . S
C235 C49 1.101 . S
C237 C119 1.100 . S
C246 C63 1.102 . S
C248 C133 1.101 . S
C257 C77 1.100 . S
C259 C147 1.101 . S
C268 C161 1.103 . S
C270 C7 1.102 . S
C279 C21 1.103 . S
C281 C91 1.102 . S
C290 C35 1.103 . S
C292 C105 1.102 . S
C301 C121 1.728 . S
C303 C9 1.732 . S
C312 C135 1.732 . S
C314 C23 1.731 . S
C323 C37 1.727 . S
C325 C149 1.732 . S
C334 C51 1.730 . S
C336 C163 1.728 . S
C345 C65 1.731 . S
C347 C93 1.731 . S
C356 C107 1.732 . S
C358 C79 1.728 . S
C367 C6 1.712 . S
C369 C146 1.710 . S
C378 C160 1.708 . S
C380 C20 1.710 . S
C389 C34 1.712 . S
C391 C90 1.710 . S
C400 C48 1.713 . S
C402 C104 1.711 . S
C411 C62 1.712 . S
C413 C118 1.711 . S
C422 C76 1.712 . S
C424 C132 1.711 . S
