# Generated by pormake.
# Topology uow, (4)-cn, num edge types: 1
# Building blocks:
#     Node 0, Type 0, BuildingBlock: TATPOV_clean_sbu_0, # of connection points: 4
#     Node 1, Type 0, BuildingBlock: TATPOV_clean_sbu_0, # of connection points: 4
#     Node 2, Type 0, BuildingBlock: TATPOV_clean_sbu_0, # of connection points: 4
#     Node 3, Type 0, BuildingBlock: TATPOV_clean_sbu_0, # of connection points: 4
#     Node 4, Type 0, BuildingBlock: TATPOV_clean_sbu_0, # of connection points: 4
#     Node 5, Type 0, BuildingBlock: TATPOV_clean_sbu_0, # of connection points: 4
#     Node 6, Type 0, BuildingBlock: TATPOV_clean_sbu_0, # of connection points: 4
#     Node 7, Type 0, BuildingBlock: TATPOV_clean_sbu_0, # of connection points: 4
#     Node 8, Type 0, BuildingBlock: TATPOV_clean_sbu_0, # of connection points: 4
#     Node 9, Type 0, BuildingBlock: TATPOV_clean_sbu_0, # of connection points: 4
#     Node 10, Type 0, BuildingBlock: TATPOV_clean_sbu_0, # of connection points: 4
#     Node 11, Type 0, BuildingBlock: TATPOV_clean_sbu_0, # of connection points: 4
#     Node 12, Type 0, BuildingBlock: TATPOV_clean_sbu_0, # of connection points: 4
#     Node 13, Type 0, BuildingBlock: TATPOV_clean_sbu_0, # of connection points: 4
#     Node 14, Type 0, BuildingBlock: TATPOV_clean_sbu_0, # of connection points: 4
#     Node 15, Type 0, BuildingBlock: TATPOV_clean_sbu_0, # of connection points: 4
#     Node 16, Type 0, BuildingBlock: TATPOV_clean_sbu_0, # of connection points: 4
#     Node 17, Type 0, BuildingBlock: TATPOV_clean_sbu_0, # of connection points: 4
#     Node 18, Type 0, BuildingBlock: TATPOV_clean_sbu_0, # of connection points: 4
#     Node 19, Type 0, BuildingBlock: TATPOV_clean_sbu_0, # of connection points: 4
#     Node 20, Type 0, BuildingBlock: TATPOV_clean_sbu_0, # of connection points: 4
#     Node 21, Type 0, BuildingBlock: TATPOV_clean_sbu_0, # of connection points: 4
#     Node 22, Type 0, BuildingBlock: TATPOV_clean_sbu_0, # of connection points: 4
#     Node 23, Type 0, BuildingBlock: TATPOV_clean_sbu_0, # of connection points: 4
#     Node 24, Type 0, BuildingBlock: TATPOV_clean_sbu_0, # of connection points: 4
#     Node 25, Type 0, BuildingBlock: TATPOV_clean_sbu_0, # of connection points: 4
#     Node 26, Type 0, BuildingBlock: TATPOV_clean_sbu_0, # of connection points: 4
#     Node 27, Type 0, BuildingBlock: TATPOV_clean_sbu_0, # of connection points: 4
#     Node 28, Type 0, BuildingBlock: TATPOV_clean_sbu_0, # of connection points: 4
#     Node 29, Type 0, BuildingBlock: TATPOV_clean_sbu_0, # of connection points: 4
#     Node 30, Type 0, BuildingBlock: TATPOV_clean_sbu_0, # of connection points: 4
#     Node 31, Type 0, BuildingBlock: TATPOV_clean_sbu_0, # of connection points: 4
#     Edge 32, Type (0, 0), None
#     Edge 33, Type (0, 0), None
#     Edge 34, Type (0, 0), None
#     Edge 35, Type (0, 0), None
#     Edge 36, Type (0, 0), None
#     Edge 37, Type (0, 0), None
#     Edge 38, Type (0, 0), None
#     Edge 39, Type (0, 0), None
#     Edge 40, Type (0, 0), None
#     Edge 41, Type (0, 0), None
#     Edge 42, Type (0, 0), None
#     Edge 43, Type (0, 0), None
#     Edge 44, Type (0, 0), None
#     Edge 45, Type (0, 0), None
#     Edge 46, Type (0, 0), None
#     Edge 47, Type (0, 0), None
#     Edge 48, Type (0, 0), None
#     Edge 49, Type (0, 0), None
#     Edge 50, Type (0, 0), None
#     Edge 51, Type (0, 0), None
#     Edge 52, Type (0, 0), None
#     Edge 53, Type (0, 0), None
#     Edge 54, Type (0, 0), None
#     Edge 55, Type (0, 0), None
#     Edge 56, Type (0, 0), None
#     Edge 57, Type (0, 0), None
#     Edge 58, Type (0, 0), None
#     Edge 59, Type (0, 0), None
#     Edge 60, Type (0, 0), None
#     Edge 61, Type (0, 0), None
#     Edge 62, Type (0, 0), None
#     Edge 63, Type (0, 0), None
#     Edge 64, Type (0, 0), None
#     Edge 65, Type (0, 0), None
#     Edge 66, Type (0, 0), None
#     Edge 67, Type (0, 0), None
#     Edge 68, Type (0, 0), None
#     Edge 69, Type (0, 0), None
#     Edge 70, Type (0, 0), None
#     Edge 71, Type (0, 0), None
#     Edge 72, Type (0, 0), None
#     Edge 73, Type (0, 0), None
#     Edge 74, Type (0, 0), None
#     Edge 75, Type (0, 0), None
#     Edge 76, Type (0, 0), None
#     Edge 77, Type (0, 0), None
#     Edge 78, Type (0, 0), None
#     Edge 79, Type (0, 0), None
#     Edge 80, Type (0, 0), None
#     Edge 81, Type (0, 0), None
#     Edge 82, Type (0, 0), None
#     Edge 83, Type (0, 0), None
#     Edge 84, Type (0, 0), None
#     Edge 85, Type (0, 0), None
#     Edge 86, Type (0, 0), None
#     Edge 87, Type (0, 0), None
#     Edge 88, Type (0, 0), None
#     Edge 89, Type (0, 0), None
#     Edge 90, Type (0, 0), None
#     Edge 91, Type (0, 0), None
#     Edge 92, Type (0, 0), None
#     Edge 93, Type (0, 0), None
#     Edge 94, Type (0, 0), None
#     Edge 95, Type (0, 0), None
# Relax obj value: 0.159
# Max RMSD: 0.206
# Mean RMSD: 0.206
data_MOF--net-uow--node1-TATPOV_clean_sbu_0--edge1-none
_symmetry_space_group_name_H-M    P1
_symmetry_Int_Tables_number       1
_symmetry_cell_setting            triclinic
loop_
_symmetry_equiv_pos_as_xyz
'x, y, z'
_cell_length_a     27.758013
_cell_length_b     27.757639
_cell_length_c     20.166017
_cell_angle_alpha  90.000148
_cell_angle_beta   89.999965
_cell_angle_gamma 89.99672
loop_
_atom_site_label
_atom_site_type_symbol
_atom_site_fract_x
_atom_site_fract_y
_atom_site_fract_z
_atom_type_partial_charge
Zn0 Zn 0.02288 0.28596 0.2553 0.0
Zn1 Zn 0.97716 0.36141 0.22715 0.0
O2 O 0.91152 0.3386 0.25228 0.0
O3 O 0.95364 0.28051 0.29819 0.0
O4 O 0.97131 0.42864 0.19366 0.0
O5 O 0.03958 0.25624 0.17023 0.0
O6 O 0.00391 0.32452 0.14388 0.0
C7 C 0.91379 0.30278 0.29129 0.0
C8 C 0.04987 0.347 0.33645 0.0
O9 O 0.00795 0.36151 0.32193 0.0
O10 O 0.07482 0.33312 0.28816 0.0
C11 C 0.96818 0.46483 0.23151 0.0
O12 O 0.96792 0.45885 0.2961 0.0
C13 C 0.02637 0.28619 0.12703 0.0
Zn14 Zn 0.94205 0.77289 0.50528 0.0
Zn15 Zn 0.86657 0.72721 0.47714 0.0
O16 O 0.88936 0.66156 0.50226 0.0
O17 O 0.94747 0.70364 0.54816 0.0
O18 O 0.79934 0.72139 0.44365 0.0
O19 O 0.97177 0.78957 0.4202 0.0
O20 O 0.90346 0.75395 0.39386 0.0
C21 C 0.92517 0.6638 0.54127 0.0
C22 C 0.88103 0.79991 0.58644 0.0
O23 O 0.8665 0.75799 0.57191 0.0
O24 O 0.89492 0.82485 0.53814 0.0
C25 C 0.76315 0.71828 0.4815 0.0
O26 O 0.76913 0.71803 0.5461 0.0
C27 C 0.94181 0.77638 0.37701 0.0
Zn28 Zn 0.45512 0.69199 0.75529 0.0
Zn29 Zn 0.50086 0.61655 0.72714 0.0
O30 O 0.56649 0.63938 0.75226 0.0
O31 O 0.52436 0.69747 0.79818 0.0
O32 O 0.50673 0.54932 0.69365 0.0
O33 O 0.43841 0.72171 0.67022 0.0
O34 O 0.4741 0.65343 0.64386 0.0
C35 C 0.56422 0.6752 0.79128 0.0
C36 C 0.42814 0.63096 0.83644 0.0
O37 O 0.47007 0.61646 0.82191 0.0
O38 O 0.40319 0.64483 0.78815 0.0
C39 C 0.5098 0.51314 0.73151 0.0
O40 O 0.50998 0.51911 0.79611 0.0
C41 C 0.45163 0.69177 0.62702 0.0
Zn42 Zn 0.53594 0.20509 0.00529 0.0
Zn43 Zn 0.61142 0.25078 -0.02285 0.0
O44 O 0.58862 0.31643 0.00227 0.0
O45 O 0.53051 0.27433 0.04817 0.0
O46 O 0.67865 0.25662 0.94366 0.0
O47 O 0.50624 0.1884 0.92021 0.0
O48 O 0.57453 0.22404 0.89387 0.0
C49 C 0.5528 0.31418 0.04128 0.0
C50 C 0.59697 0.17808 0.08645 0.0
O51 O 0.6115 0.22 0.07192 0.0
O52 O 0.58309 0.15314 0.03815 0.0
C53 C 0.71484 0.25973 -0.01849 0.0
O54 O 0.70886 0.25998 0.04611 0.0
C55 C 0.53619 0.20159 0.87702 0.0
Zn56 Zn 0.02284 0.69196 0.17915 0.0
Zn57 Zn 0.97704 0.61656 0.20729 0.0
O58 O 0.91143 0.63945 0.18216 0.0
O59 O 0.9536 0.69749 0.13626 0.0
O60 O 0.97111 0.54933 0.24078 0.0
O61 O 0.03956 0.72166 0.26422 0.0
O62 O 0.00382 0.65341 0.29058 0.0
C63 C 0.91373 0.67526 0.14315 0.0
C64 C 0.04977 0.63091 0.098 0.0
O65 O 0.00783 0.61644 0.11252 0.0
O66 O 0.07473 0.64476 0.14629 0.0
C67 C 0.9682 0.51313 0.20291 0.0
O68 O 0.96821 0.5191 0.13831 0.0
C69 C 0.02632 0.69173 0.30742 0.0
Zn70 Zn 0.53596 0.77285 0.42916 0.0
Zn71 Zn 0.61142 0.72711 0.4573 0.0
O72 O 0.58858 0.66148 0.43217 0.0
O73 O 0.5305 0.70361 0.38627 0.0
O74 O 0.67865 0.72121 0.49078 0.0
O75 O 0.50627 0.78955 0.51424 0.0
O76 O 0.57455 0.75387 0.54058 0.0
C77 C 0.55277 0.66375 0.39316 0.0
C78 C 0.597 0.79982 0.348 0.0
O79 O 0.6115 0.7579 0.36253 0.0
O80 O 0.58313 0.82477 0.39629 0.0
C81 C 0.71485 0.7183 0.4529 0.0
O82 O 0.70887 0.71829 0.38831 0.0
C83 C 0.53622 0.77634 0.55743 0.0
Zn84 Zn 0.45514 0.28599 0.67916 0.0
Zn85 Zn 0.50091 0.36141 0.70731 0.0
O86 O 0.56654 0.33854 0.68218 0.0
O87 O 0.52438 0.28048 0.63627 0.0
O88 O 0.50682 0.42864 0.74079 0.0
O89 O 0.43843 0.25629 0.76424 0.0
O90 O 0.47414 0.32455 0.79059 0.0
C91 C 0.56424 0.30273 0.64317 0.0
C92 C 0.42819 0.34704 0.59801 0.0
O93 O 0.47012 0.36152 0.61253 0.0
O94 O 0.40323 0.33318 0.6463 0.0
C95 C 0.50979 0.46483 0.70292 0.0
O96 O 0.50986 0.45885 0.63832 0.0
C97 C 0.45166 0.28622 0.80743 0.0
Zn98 Zn 0.94202 0.20513 0.92917 0.0
Zn99 Zn 0.86657 0.25089 0.95731 0.0
O100 O 0.88943 0.31651 0.93218 0.0
O101 O 0.9475 0.27437 0.88628 0.0
O102 O 0.79934 0.2568 -0.00921 0.0
O103 O 0.97171 0.18842 0.01425 0.0
O104 O 0.90343 0.22412 0.04059 0.0
C105 C 0.92524 0.31423 0.89318 0.0
C106 C 0.88097 0.17817 0.84801 0.0
O107 O 0.86648 0.2201 0.86254 0.0
O108 O 0.89484 0.15322 0.8963 0.0
C109 C 0.76314 0.2597 0.95292 0.0
O110 O 0.76911 0.25971 0.88832 0.0
C111 C 0.94176 0.20164 0.05744 0.0
Zn112 Zn 0.95506 0.69202 0.67914 0.0
Zn113 Zn 0.00077 0.61655 0.70728 0.0
O114 O 0.06641 0.63934 0.68216 0.0
O115 O 0.0243 0.69744 0.63624 0.0
O116 O 0.0066 0.54932 0.74078 0.0
O117 O 0.93839 0.72175 0.76422 0.0
O118 O 0.97403 0.65345 0.79056 0.0
C119 C 0.06415 0.67515 0.64314 0.0
C120 C 0.92804 0.63097 0.59805 0.0
O121 O 0.96997 0.61647 0.61252 0.0
O122 O 0.90306 0.64493 0.64627 0.0
C123 C 0.00973 0.51314 0.70293 0.0
O124 O 0.00999 0.51911 0.63834 0.0
C125 C 0.95159 0.6918 0.80741 0.0
Zn126 Zn 0.03596 0.20507 0.42915 0.0
Zn127 Zn 0.11143 0.2508 0.4573 0.0
O128 O 0.08862 0.31645 0.43219 0.0
O129 O 0.03049 0.27432 0.38631 0.0
O130 O 0.17865 0.25665 0.4908 0.0
O131 O 0.00626 0.18837 0.51424 0.0
O132 O 0.07454 0.22406 0.54057 0.0
C133 C 0.05277 0.31417 0.39323 0.0
C134 C 0.09701 0.1781 0.34799 0.0
O135 O 0.11151 0.22003 0.36253 0.0
O136 O 0.08314 0.15315 0.39628 0.0
C137 C 0.21484 0.25976 0.45294 0.0
O138 O 0.20886 0.26001 0.38835 0.0
C139 C 0.03621 0.2016 0.55743 0.0
Zn140 Zn 0.52292 0.28595 0.17916 0.0
Zn141 Zn 0.47719 0.36141 0.2073 0.0
O142 O 0.41155 0.33861 0.18218 0.0
O143 O 0.45368 0.28052 0.13625 0.0
O144 O 0.47133 0.42864 0.24079 0.0
O145 O 0.53959 0.25623 0.26423 0.0
O146 O 0.50393 0.32452 0.29058 0.0
C147 C 0.41382 0.3028 0.14315 0.0
C148 C 0.54993 0.34701 0.09806 0.0
O149 O 0.50799 0.3615 0.11253 0.0
O150 O 0.57491 0.33306 0.14628 0.0
C151 C 0.46827 0.46483 0.20293 0.0
O152 O 0.46808 0.45885 0.13833 0.0
C153 C 0.52638 0.28618 0.30743 0.0
Zn154 Zn 0.44202 0.77289 0.92914 0.0
Zn155 Zn 0.36656 0.72714 0.95729 0.0
O156 O 0.38939 0.6615 0.93217 0.0
O157 O 0.4475 0.70364 0.8863 0.0
O158 O 0.29933 0.72128 -0.00922 0.0
O159 O 0.47171 0.78959 0.01423 0.0
O160 O 0.40345 0.75388 0.04056 0.0
C161 C 0.42523 0.66378 0.89322 0.0
C162 C 0.38097 0.79984 0.84798 0.0
O163 O 0.36647 0.75791 0.86252 0.0
O164 O 0.39483 0.8248 0.89627 0.0
C165 C 0.26315 0.71816 0.95293 0.0
O166 O 0.26913 0.71791 0.88833 0.0
C167 C 0.44177 0.77636 0.05742 0.0
Zn168 Zn 0.9551 0.28598 0.75529 0.0
Zn169 Zn 0.00089 0.36141 0.72716 0.0
O170 O 0.06651 0.33854 0.75228 0.0
O171 O 0.02434 0.28049 0.7982 0.0
O172 O 0.0068 0.42864 0.69367 0.0
O173 O 0.93842 0.25628 0.67021 0.0
O174 O 0.97412 0.32454 0.64387 0.0
C175 C 0.06421 0.30274 0.7913 0.0
C176 C 0.92813 0.34706 0.83639 0.0
O177 O 0.97008 0.36151 0.82192 0.0
O178 O 0.90314 0.33312 0.78817 0.0
C179 C 0.0097 0.46483 0.73154 0.0
O180 O 0.0097 0.45886 0.79613 0.0
C181 C 0.95165 0.28622 0.62702 0.0
Zn182 Zn 0.442 0.20511 0.50529 0.0
Zn183 Zn 0.36656 0.25091 0.47715 0.0
O184 O 0.38942 0.31653 0.50227 0.0
O185 O 0.44752 0.27435 0.54814 0.0
O186 O 0.29933 0.25682 0.44367 0.0
O187 O 0.47168 0.18839 0.42021 0.0
O188 O 0.40343 0.22413 0.39387 0.0
C189 C 0.42527 0.31422 0.54122 0.0
C190 C 0.38094 0.17819 0.58646 0.0
O191 O 0.36647 0.22012 0.57192 0.0
O192 O 0.39479 0.15322 0.53817 0.0
C193 C 0.26314 0.25974 0.48154 0.0
O194 O 0.26912 0.25975 0.54613 0.0
C195 C 0.44175 0.20164 0.37702 0.0
Zn196 Zn 0.5229 0.69199 0.25528 0.0
Zn197 Zn 0.47713 0.61656 0.22714 0.0
O198 O 0.41151 0.6394 0.25227 0.0
O199 O 0.45366 0.69746 0.29819 0.0
O200 O 0.47124 0.54933 0.19366 0.0
O201 O 0.53958 0.7217 0.1702 0.0
O202 O 0.50389 0.65343 0.14386 0.0
C203 C 0.41379 0.67521 0.29129 0.0
C204 C 0.54988 0.63092 0.33638 0.0
O205 O 0.50794 0.61646 0.32191 0.0
O206 O 0.57487 0.64486 0.28816 0.0
C207 C 0.46828 0.51314 0.23153 0.0
O208 O 0.46821 0.51911 0.29612 0.0
C209 C 0.52636 0.69176 0.12701 0.0
Zn210 Zn 0.036 0.77285 0.00528 0.0
Zn211 Zn 0.11143 0.72703 -0.02286 0.0
O212 O 0.08855 0.66141 0.00226 0.0
O213 O 0.03046 0.7036 0.04813 0.0
O214 O 0.17865 0.7211 0.94365 0.0
O215 O 0.00632 0.78957 0.92019 0.0
O216 O 0.07456 0.7538 0.89386 0.0
C217 C 0.0527 0.66373 0.04121 0.0
C218 C 0.09706 0.79975 0.08644 0.0
O219 O 0.11152 0.75781 0.07191 0.0
O220 O 0.08322 0.82472 0.03816 0.0
C221 C 0.21484 0.71818 -0.01847 0.0
O222 O 0.20887 0.71818 0.04612 0.0
C223 C 0.03625 0.77631 0.877 0.0
Zn224 Zn 0.5229 0.78595 0.75528 0.0
Zn225 Zn 0.47715 0.86141 0.72713 0.0
O226 O 0.41151 0.83859 0.75225 0.0
O227 O 0.45365 0.78047 0.79813 0.0
O228 O 0.47128 0.92864 0.69365 0.0
O229 O 0.53961 0.75626 0.6702 0.0
O230 O 0.5039 0.82452 0.64386 0.0
C231 C 0.4138 0.80274 0.7912 0.0
C232 C 0.54985 0.84699 0.83644 0.0
O233 O 0.50792 0.86148 0.82191 0.0
O234 O 0.57481 0.83313 0.78815 0.0
C235 C 0.46822 0.96483 0.73151 0.0
O236 O 0.46804 0.95885 0.79611 0.0
C237 C 0.52637 0.78619 0.62701 0.0
Zn238 Zn 0.44203 0.27291 0.00528 0.0
Zn239 Zn 0.36657 0.2272 -0.02286 0.0
O240 O 0.38938 0.16155 0.00226 0.0
O241 O 0.44746 0.20367 0.04818 0.0
O242 O 0.29934 0.22136 0.94366 0.0
O243 O 0.47175 0.28958 0.9202 0.0
O244 O 0.40346 0.25393 0.89386 0.0
C245 C 0.42518 0.16381 0.04128 0.0
C246 C 0.38099 0.29993 0.08637 0.0
O247 O 0.36649 0.25799 0.07191 0.0
O248 O 0.39493 0.32491 0.03815 0.0
C249 C 0.26315 0.21825 -0.01849 0.0
O250 O 0.26913 0.218 0.04611 0.0
C251 C 0.4418 0.27638 0.87701 0.0
Zn252 Zn 0.95508 0.19203 0.2553 0.0
Zn253 Zn 0.00081 0.11655 0.22714 0.0
O254 O 0.06646 0.13936 0.25226 0.0
O255 O 0.02433 0.19749 0.29814 0.0
O256 O 0.00665 0.04932 0.19365 0.0
O257 O 0.93837 0.22172 0.17022 0.0
O258 O 0.97407 0.15345 0.14387 0.0
C259 C 0.06418 0.17521 0.29122 0.0
C260 C 0.92812 0.13099 0.33645 0.0
O261 O 0.97004 0.11648 0.32192 0.0
O262 O 0.90316 0.14485 0.28816 0.0
C263 C 0.00978 0.01314 0.23151 0.0
O264 O 0.01004 0.01912 0.2961 0.0
C265 C 0.9516 0.19178 0.12702 0.0
Zn266 Zn 0.03595 0.70504 0.50527 0.0
Zn267 Zn 0.11142 0.75074 0.47713 0.0
O268 O 0.08863 0.81639 0.50225 0.0
O269 O 0.03053 0.77429 0.54817 0.0
O270 O 0.17865 0.75657 0.44365 0.0
O271 O 0.00623 0.68838 0.42019 0.0
O272 O 0.07452 0.72401 0.39384 0.0
C273 C 0.05282 0.81414 0.54127 0.0
C274 C 0.09699 0.67801 0.58636 0.0
O275 O 0.11149 0.71995 0.5719 0.0
O276 O 0.08304 0.65304 0.53814 0.0
C277 C 0.21484 0.75967 0.4815 0.0
O278 O 0.20886 0.75992 0.5461 0.0
C279 C 0.03618 0.70158 0.377 0.0
Zn280 Zn 0.52288 0.192 0.67917 0.0
Zn281 Zn 0.47709 0.11656 0.70731 0.0
O282 O 0.41146 0.13942 0.68219 0.0
O283 O 0.45363 0.19752 0.63632 0.0
O284 O 0.47119 0.04932 0.74079 0.0
O285 O 0.53959 0.22167 0.76425 0.0
O286 O 0.50385 0.15343 0.79059 0.0
C287 C 0.41377 0.17526 0.64324 0.0
C288 C 0.5498 0.13094 0.59801 0.0
O289 O 0.50787 0.11647 0.61254 0.0
O290 O 0.57476 0.14479 0.64629 0.0
C291 C 0.46823 0.01314 0.70292 0.0
O292 O 0.46816 0.01911 0.63832 0.0
C293 C 0.52634 0.19174 0.80744 0.0
Zn294 Zn 0.03598 0.27287 0.92918 0.0
Zn295 Zn 0.11142 0.22709 0.95732 0.0
O296 O 0.08856 0.16147 0.93219 0.0
O297 O 0.0305 0.20363 0.88627 0.0
O298 O 0.17865 0.22118 -0.00921 0.0
O299 O 0.00628 0.28956 0.01426 0.0
O300 O 0.07455 0.25385 0.04061 0.0
C301 C 0.05275 0.16376 0.89317 0.0
C302 C 0.09704 0.29984 0.84808 0.0
O303 O 0.1115 0.25789 0.86255 0.0
O304 O 0.08312 0.32483 0.8963 0.0
C305 C 0.21484 0.21827 0.95292 0.0
O306 O 0.20887 0.21827 0.88832 0.0
C307 C 0.03622 0.27633 0.05746 0.0
Zn308 Zn 0.95512 0.78598 0.17915 0.0
Zn309 Zn 0.00094 0.86141 0.2073 0.0
O310 O 0.06655 0.83852 0.18218 0.0
O311 O 0.02437 0.78044 0.1363 0.0
O312 O 0.00686 0.92864 0.24078 0.0
O313 O 0.9384 0.75631 0.26424 0.0
O314 O 0.97416 0.82454 0.29058 0.0
C315 C 0.06424 0.80268 0.14323 0.0
C316 C 0.92822 0.84704 0.098 0.0
O317 O 0.97015 0.8615 0.11253 0.0
O318 O 0.90325 0.8332 0.14628 0.0
C319 C 0.00975 0.96483 0.20291 0.0
O320 O 0.00974 0.95886 0.13831 0.0
C321 C 0.95166 0.78623 0.30743 0.0
Zn322 Zn 0.44202 0.70508 0.42917 0.0
Zn323 Zn 0.36657 0.75085 0.4573 0.0
O324 O 0.38941 0.81647 0.43218 0.0
O325 O 0.44748 0.77432 0.38626 0.0
O326 O 0.29934 0.75674 0.49078 0.0
O327 O 0.47172 0.6884 0.51425 0.0
O328 O 0.40345 0.72409 0.54059 0.0
C329 C 0.42522 0.81419 0.39316 0.0
C330 C 0.38096 0.6781 0.34807 0.0
O331 O 0.36649 0.72004 0.36254 0.0
O332 O 0.39489 0.65311 0.39629 0.0
C333 C 0.26315 0.75965 0.45291 0.0
O334 O 0.26912 0.75967 0.38831 0.0
C335 C 0.44178 0.70162 0.55744 0.0
Zn336 Zn 0.45504 0.19204 0.17916 0.0
Zn337 Zn 0.50078 0.11656 0.2073 0.0
O338 O 0.56643 0.13935 0.18219 0.0
O339 O 0.5243 0.19747 0.1363 0.0
O340 O 0.50663 0.04932 0.24079 0.0
O341 O 0.43836 0.22173 0.26425 0.0
O342 O 0.47405 0.15345 0.29058 0.0
C343 C 0.56415 0.17519 0.14323 0.0
C344 C 0.42806 0.13098 0.09806 0.0
O345 O 0.47 0.11649 0.11253 0.0
O346 O 0.40307 0.14492 0.14628 0.0
C347 C 0.50968 0.01314 0.20293 0.0
O348 O 0.50988 0.01911 0.13833 0.0
C349 C 0.45159 0.19179 0.30744 0.0
Zn350 Zn 0.53598 0.70504 0.92915 0.0
Zn351 Zn 0.61143 0.75082 0.9573 0.0
O352 O 0.5886 0.81645 0.93218 0.0
O353 O 0.5305 0.7743 0.88629 0.0
O354 O 0.67866 0.75667 -0.00921 0.0
O355 O 0.50628 0.68836 0.01423 0.0
O356 O 0.57454 0.72408 0.04058 0.0
C357 C 0.55276 0.81416 0.89322 0.0
C358 C 0.59705 0.67808 0.84805 0.0
O359 O 0.61152 0.72003 0.86253 0.0
O360 O 0.58313 0.65309 0.89627 0.0
C361 C 0.71484 0.75979 0.95293 0.0
O362 O 0.70886 0.76004 0.88834 0.0
C363 C 0.53621 0.7016 0.05743 0.0
Zn364 Zn 0.02296 0.78592 0.67915 0.0
Zn365 Zn 0.97724 0.86141 0.70729 0.0
O366 O 0.91159 0.83863 0.68218 0.0
O367 O 0.9537 0.7805 0.63629 0.0
O368 O 0.97141 0.92864 0.74079 0.0
O369 O 0.03963 0.75621 0.76423 0.0
O370 O 0.00396 0.8245 0.79057 0.0
C371 C 0.91386 0.80279 0.64322 0.0
C372 C 0.04996 0.84698 0.59805 0.0
O373 O 0.00802 0.86148 0.61252 0.0
O374 O 0.07494 0.83303 0.64626 0.0
C375 C 0.9683 0.96483 0.70294 0.0
O376 O 0.96803 0.95885 0.63834 0.0
C377 C 0.02641 0.78616 0.80742 0.0
Zn378 Zn 0.94202 0.27293 0.42917 0.0
Zn379 Zn 0.86656 0.22717 0.45731 0.0
O380 O 0.88938 0.16153 0.43219 0.0
O381 O 0.94748 0.20367 0.3863 0.0
O382 O 0.79933 0.22133 0.4908 0.0
O383 O 0.97172 0.28961 0.51424 0.0
O384 O 0.90346 0.25391 0.54059 0.0
C385 C 0.92521 0.16382 0.39323 0.0
C386 C 0.88095 0.29991 0.34807 0.0
O387 O 0.86648 0.25796 0.36254 0.0
O388 O 0.89488 0.3249 0.39628 0.0
C389 C 0.76315 0.21822 0.45294 0.0
O390 O 0.76913 0.21797 0.38835 0.0
C391 C 0.94179 0.27637 0.55744 0.0
Zn392 Zn 0.45506 0.78595 0.25528 0.0
Zn393 Zn 0.50084 0.86141 0.22714 0.0
O394 O 0.56647 0.83857 0.25225 0.0
O395 O 0.52432 0.78047 0.29814 0.0
O396 O 0.50672 0.92864 0.19366 0.0
O397 O 0.43838 0.75626 0.17019 0.0
O398 O 0.47409 0.82453 0.14386 0.0
C399 C 0.56418 0.80273 0.29122 0.0
C400 C 0.42811 0.84702 0.33638 0.0
O401 O 0.47005 0.86149 0.32191 0.0
O402 O 0.40311 0.83309 0.28817 0.0
C403 C 0.50968 0.96483 0.23153 0.0
O404 O 0.50975 0.95886 0.29612 0.0
C405 C 0.45162 0.7862 0.127 0.0
Zn406 Zn 0.94198 0.70509 0.00527 0.0
Zn407 Zn 0.86657 0.75093 -0.02287 0.0
O408 O 0.88945 0.81654 0.00225 0.0
O409 O 0.94751 0.77433 0.04814 0.0
O410 O 0.79934 0.75685 0.94365 0.0
O411 O 0.97167 0.68838 0.92019 0.0
O412 O 0.90343 0.72416 0.89384 0.0
C413 C 0.92528 0.81421 0.04122 0.0
C414 C 0.8809 0.67817 0.08637 0.0
O415 O 0.86647 0.72013 0.0719 0.0
O416 O 0.89481 0.65316 0.03816 0.0
C417 C 0.76315 0.75977 -0.01847 0.0
O418 O 0.76912 0.75977 0.04612 0.0
C419 C 0.94174 0.70165 0.87699 0.0
Zn420 Zn 0.02292 0.19201 0.75529 0.0
Zn421 Zn 0.97711 0.11656 0.72715 0.0
O422 O 0.91149 0.13942 0.75227 0.0
O423 O 0.95366 0.1975 0.79815 0.0
O424 O 0.97121 0.04933 0.69367 0.0
O425 O 0.03961 0.22169 0.6702 0.0
O426 O 0.00387 0.15343 0.64387 0.0
C427 C 0.9138 0.17525 0.79123 0.0
C428 C 0.04986 0.13093 0.83639 0.0
O429 O 0.00791 0.11648 0.82192 0.0
O430 O 0.07485 0.14485 0.78818 0.0
C431 C 0.96832 0.01313 0.73154 0.0
O432 O 0.96833 0.0191 0.79613 0.0
C433 C 0.02636 0.19175 0.62701 0.0
Zn434 Zn 0.536 0.27289 0.50528 0.0
Zn435 Zn 0.61142 0.22707 0.47714 0.0
O436 O 0.58856 0.16145 0.50226 0.0
O437 O 0.53048 0.20364 0.54815 0.0
O438 O 0.67865 0.22116 0.44366 0.0
O439 O 0.50631 0.28959 0.4202 0.0
O440 O 0.57455 0.25383 0.39386 0.0
C441 C 0.55272 0.16377 0.54123 0.0
C442 C 0.59708 0.29982 0.58639 0.0
O443 O 0.61152 0.25787 0.57191 0.0
O444 O 0.58316 0.32483 0.53817 0.0
C445 C 0.71484 0.21824 0.48154 0.0
O446 O 0.70887 0.21822 0.54613 0.0
C447 C 0.53623 0.27633 0.37701 0.0
loop_
_geom_bond_atom_site_label_1
_geom_bond_atom_site_label_2
_geom_bond_distance
_geom_bond_site_symmetry_2
_ccdc_geom_bond_type
Zn0 O3 2.031 1_455 S
Zn0 O5 2.049 . S
Zn0 O10 2.067 . S
Zn1 O2 1.962 1_455 S
Zn1 O4 1.986 . S
Zn1 O6 1.996 . S
Zn1 O9 1.943 . S
O2 Zn1 1.962 1_655 S
O2 C7 1.254 . S
O3 Zn0 2.031 1_655 S
O3 C7 1.269 . S
O4 Zn1 1.986 . S
O4 C11 1.262 . S
O5 Zn0 2.049 . S
O5 C13 1.260 . S
O6 Zn1 1.996 . S
O6 C13 1.257 . S
C7 O2 1.254 . S
C7 O3 1.269 . S
C8 O9 1.249 . S
C8 O10 1.270 . S
O9 Zn1 1.943 . S
O9 C8 1.249 . S
O10 Zn0 2.067 . S
O10 C8 1.270 . S
C11 O4 1.262 . S
C11 O12 1.232 . S
O12 C11 1.232 . S
C13 O5 1.260 . S
C13 O6 1.257 . S
Zn14 O17 2.031 . S
Zn14 O19 2.049 . S
Zn14 O24 2.067 . S
Zn15 O16 1.962 . S
Zn15 O18 1.986 . S
Zn15 O20 1.996 . S
Zn15 O23 1.943 . S
O16 Zn15 1.962 . S
O16 C21 1.254 . S
O17 Zn14 2.031 . S
O17 C21 1.269 . S
O18 Zn15 1.986 . S
O18 C25 1.262 . S
O19 Zn14 2.049 . S
O19 C27 1.260 . S
O20 Zn15 1.996 . S
O20 C27 1.257 . S
C21 O16 1.254 . S
C21 O17 1.269 . S
C22 O23 1.249 . S
C22 O24 1.270 . S
O23 Zn15 1.943 . S
O23 C22 1.249 . S
O24 Zn14 2.067 . S
O24 C22 1.270 . S
C25 O18 1.262 . S
C25 O26 1.232 . S
O26 C25 1.232 . S
C27 O19 1.260 . S
C27 O20 1.257 . S
Zn28 O31 2.031 . S
Zn28 O33 2.049 . S
Zn28 O38 2.067 . S
Zn29 O30 1.962 . S
Zn29 O32 1.986 . S
Zn29 O34 1.996 . S
Zn29 O37 1.943 . S
O30 Zn29 1.962 . S
O30 C35 1.254 . S
O31 Zn28 2.031 . S
O31 C35 1.269 . S
O32 Zn29 1.986 . S
O32 C39 1.262 . S
O33 Zn28 2.049 . S
O33 C41 1.260 . S
O34 Zn29 1.996 . S
O34 C41 1.257 . S
C35 O30 1.254 . S
C35 O31 1.269 . S
C36 O37 1.249 . S
C36 O38 1.270 . S
O37 Zn29 1.943 . S
O37 C36 1.249 . S
O38 Zn28 2.067 . S
O38 C36 1.270 . S
C39 O32 1.262 . S
C39 O40 1.232 . S
O40 C39 1.232 . S
C41 O33 1.260 . S
C41 O34 1.257 . S
Zn42 O45 2.031 . S
Zn42 O47 2.049 1_554 S
Zn42 O52 2.067 . S
Zn43 O44 1.962 . S
Zn43 O46 1.986 1_554 S
Zn43 O48 1.996 1_554 S
Zn43 O51 1.943 . S
O44 Zn43 1.962 . S
O44 C49 1.254 . S
O45 Zn42 2.031 . S
O45 C49 1.269 . S
O46 Zn43 1.986 1_556 S
O46 C53 1.262 1_556 S
O47 Zn42 2.049 1_556 S
O47 C55 1.260 . S
O48 Zn43 1.996 1_556 S
O48 C55 1.257 . S
C49 O44 1.254 . S
C49 O45 1.269 . S
C50 O51 1.249 . S
C50 O52 1.270 . S
O51 Zn43 1.943 . S
O51 C50 1.249 . S
O52 Zn42 2.067 . S
O52 C50 1.270 . S
C53 O46 1.262 1_554 S
C53 O54 1.232 . S
O54 C53 1.232 . S
C55 O47 1.260 . S
C55 O48 1.257 . S
Zn56 O59 2.031 1_455 S
Zn56 O61 2.049 . S
Zn56 O66 2.067 . S
Zn57 O58 1.962 1_455 S
Zn57 O60 1.986 . S
Zn57 O62 1.996 . S
Zn57 O65 1.943 . S
O58 Zn57 1.962 1_655 S
O58 C63 1.254 . S
O59 Zn56 2.031 1_655 S
O59 C63 1.269 . S
O60 Zn57 1.986 . S
O60 C67 1.262 . S
O61 Zn56 2.049 . S
O61 C69 1.260 . S
O62 Zn57 1.996 . S
O62 C69 1.257 . S
C63 O58 1.254 . S
C63 O59 1.269 . S
C64 O65 1.249 . S
C64 O66 1.270 . S
O65 Zn57 1.943 . S
O65 C64 1.249 . S
O66 Zn56 2.067 . S
O66 C64 1.270 . S
C67 O60 1.262 . S
C67 O68 1.232 . S
O68 C67 1.232 . S
C69 O61 1.260 . S
C69 O62 1.257 . S
Zn70 O73 2.031 . S
Zn70 O75 2.049 . S
Zn70 O80 2.067 . S
Zn71 O72 1.962 . S
Zn71 O74 1.986 . S
Zn71 O76 1.996 . S
Zn71 O79 1.943 . S
O72 Zn71 1.962 . S
O72 C77 1.254 . S
O73 Zn70 2.031 . S
O73 C77 1.269 . S
O74 Zn71 1.986 . S
O74 C81 1.262 . S
O75 Zn70 2.049 . S
O75 C83 1.260 . S
O76 Zn71 1.996 . S
O76 C83 1.257 . S
C77 O72 1.254 . S
C77 O73 1.269 . S
C78 O79 1.249 . S
C78 O80 1.270 . S
O79 Zn71 1.943 . S
O79 C78 1.249 . S
O80 Zn70 2.067 . S
O80 C78 1.270 . S
C81 O74 1.262 . S
C81 O82 1.232 . S
O82 C81 1.232 . S
C83 O75 1.260 . S
C83 O76 1.257 . S
Zn84 O87 2.031 . S
Zn84 O89 2.049 . S
Zn84 O94 2.067 . S
Zn85 O86 1.962 . S
Zn85 O88 1.986 . S
Zn85 O90 1.996 . S
Zn85 O93 1.943 . S
O86 Zn85 1.962 . S
O86 C91 1.254 . S
O87 Zn84 2.031 . S
O87 C91 1.269 . S
O88 Zn85 1.986 . S
O88 C95 1.262 . S
O89 Zn84 2.049 . S
O89 C97 1.260 . S
O90 Zn85 1.996 . S
O90 C97 1.257 . S
C91 O86 1.254 . S
C91 O87 1.269 . S
C92 O93 1.249 . S
C92 O94 1.270 . S
O93 Zn85 1.943 . S
O93 C92 1.249 . S
O94 Zn84 2.067 . S
O94 C92 1.270 . S
C95 O88 1.262 . S
C95 O96 1.232 . S
O96 C95 1.232 . S
C97 O89 1.260 . S
C97 O90 1.257 . S
Zn98 O101 2.031 . S
Zn98 O103 2.049 1_556 S
Zn98 O108 2.067 . S
Zn99 O100 1.962 . S
Zn99 O102 1.986 1_556 S
Zn99 O104 1.996 1_556 S
Zn99 O107 1.943 . S
O100 Zn99 1.962 . S
O100 C105 1.254 . S
O101 Zn98 2.031 . S
O101 C105 1.269 . S
O102 Zn99 1.986 1_554 S
O102 C109 1.262 1_554 S
O103 Zn98 2.049 1_554 S
O103 C111 1.260 . S
O104 Zn99 1.996 1_554 S
O104 C111 1.257 . S
C105 O100 1.254 . S
C105 O101 1.269 . S
C106 O107 1.249 . S
C106 O108 1.270 . S
O107 Zn99 1.943 . S
O107 C106 1.249 . S
O108 Zn98 2.067 . S
O108 C106 1.270 . S
C109 O102 1.262 1_556 S
C109 O110 1.232 . S
O110 C109 1.232 . S
C111 O103 1.260 . S
C111 O104 1.257 . S
Zn112 O115 2.031 1_655 S
Zn112 O117 2.049 . S
Zn112 O122 2.067 . S
Zn113 O114 1.962 1_655 S
Zn113 O116 1.986 . S
Zn113 O118 1.996 . S
Zn113 O121 1.943 . S
O114 Zn113 1.962 1_455 S
O114 C119 1.254 . S
O115 Zn112 2.031 1_455 S
O115 C119 1.269 . S
O116 Zn113 1.986 . S
O116 C123 1.262 . S
O117 Zn112 2.049 . S
O117 C125 1.260 . S
O118 Zn113 1.996 . S
O118 C125 1.257 . S
C119 O114 1.254 . S
C119 O115 1.269 . S
C120 O121 1.249 . S
C120 O122 1.270 . S
O121 Zn113 1.943 . S
O121 C120 1.249 . S
O122 Zn112 2.067 . S
O122 C120 1.270 . S
C123 O116 1.262 . S
C123 O124 1.232 . S
O124 C123 1.232 . S
C125 O117 1.260 . S
C125 O118 1.257 . S
Zn126 O129 2.031 . S
Zn126 O131 2.049 . S
Zn126 O136 2.067 . S
Zn127 O128 1.962 . S
Zn127 O130 1.986 . S
Zn127 O132 1.996 . S
Zn127 O135 1.943 . S
O128 Zn127 1.962 . S
O128 C133 1.254 . S
O129 Zn126 2.031 . S
O129 C133 1.269 . S
O130 Zn127 1.986 . S
O130 C137 1.262 . S
O131 Zn126 2.049 . S
O131 C139 1.260 . S
O132 Zn127 1.996 . S
O132 C139 1.257 . S
C133 O128 1.254 . S
C133 O129 1.269 . S
C134 O135 1.249 . S
C134 O136 1.270 . S
O135 Zn127 1.943 . S
O135 C134 1.249 . S
O136 Zn126 2.067 . S
O136 C134 1.270 . S
C137 O130 1.262 . S
C137 O138 1.232 . S
O138 C137 1.232 . S
C139 O131 1.260 . S
C139 O132 1.257 . S
Zn140 O143 2.031 . S
Zn140 O145 2.049 . S
Zn140 O150 2.067 . S
Zn141 O142 1.962 . S
Zn141 O144 1.986 . S
Zn141 O146 1.996 . S
Zn141 O149 1.943 . S
O142 Zn141 1.962 . S
O142 C147 1.254 . S
O143 Zn140 2.031 . S
O143 C147 1.269 . S
O144 Zn141 1.986 . S
O144 C151 1.262 . S
O145 Zn140 2.049 . S
O145 C153 1.260 . S
O146 Zn141 1.996 . S
O146 C153 1.257 . S
C147 O142 1.254 . S
C147 O143 1.269 . S
C148 O149 1.249 . S
C148 O150 1.270 . S
O149 Zn141 1.943 . S
O149 C148 1.249 . S
O150 Zn140 2.067 . S
O150 C148 1.270 . S
C151 O144 1.262 . S
C151 O152 1.232 . S
O152 C151 1.232 . S
C153 O145 1.260 . S
C153 O146 1.257 . S
Zn154 O157 2.031 . S
Zn154 O159 2.049 1_556 S
Zn154 O164 2.067 . S
Zn155 O156 1.962 . S
Zn155 O158 1.986 1_556 S
Zn155 O160 1.996 1_556 S
Zn155 O163 1.943 . S
O156 Zn155 1.962 . S
O156 C161 1.254 . S
O157 Zn154 2.031 . S
O157 C161 1.269 . S
O158 Zn155 1.986 1_554 S
O158 C165 1.262 1_554 S
O159 Zn154 2.049 1_554 S
O159 C167 1.260 . S
O160 Zn155 1.996 1_554 S
O160 C167 1.257 . S
C161 O156 1.254 . S
C161 O157 1.269 . S
C162 O163 1.249 . S
C162 O164 1.270 . S
O163 Zn155 1.943 . S
O163 C162 1.249 . S
O164 Zn154 2.067 . S
O164 C162 1.270 . S
C165 O158 1.262 1_556 S
C165 O166 1.232 . S
O166 C165 1.232 . S
C167 O159 1.260 . S
C167 O160 1.257 . S
Zn168 O171 2.031 1_655 S
Zn168 O173 2.049 . S
Zn168 O178 2.067 . S
Zn169 O170 1.962 1_655 S
Zn169 O172 1.986 . S
Zn169 O174 1.996 . S
Zn169 O177 1.943 . S
O170 Zn169 1.962 1_455 S
O170 C175 1.254 . S
O171 Zn168 2.031 1_455 S
O171 C175 1.269 . S
O172 Zn169 1.986 . S
O172 C179 1.262 . S
O173 Zn168 2.049 . S
O173 C181 1.260 . S
O174 Zn169 1.996 . S
O174 C181 1.257 . S
C175 O170 1.254 . S
C175 O171 1.269 . S
C176 O177 1.249 . S
C176 O178 1.270 . S
O177 Zn169 1.943 . S
O177 C176 1.249 . S
O178 Zn168 2.067 . S
O178 C176 1.270 . S
C179 O172 1.262 . S
C179 O180 1.232 . S
O180 C179 1.232 . S
C181 O173 1.260 . S
C181 O174 1.257 . S
Zn182 O185 2.031 . S
Zn182 O187 2.049 . S
Zn182 O192 2.067 . S
Zn183 O184 1.962 . S
Zn183 O186 1.986 . S
Zn183 O188 1.996 . S
Zn183 O191 1.943 . S
O184 Zn183 1.962 . S
O184 C189 1.254 . S
O185 Zn182 2.031 . S
O185 C189 1.269 . S
O186 Zn183 1.986 . S
O186 C193 1.262 . S
O187 Zn182 2.049 . S
O187 C195 1.260 . S
O188 Zn183 1.996 . S
O188 C195 1.257 . S
C189 O184 1.254 . S
C189 O185 1.269 . S
C190 O191 1.249 . S
C190 O192 1.270 . S
O191 Zn183 1.943 . S
O191 C190 1.249 . S
O192 Zn182 2.067 . S
O192 C190 1.270 . S
C193 O186 1.262 . S
C193 O194 1.232 . S
O194 C193 1.232 . S
C195 O187 1.260 . S
C195 O188 1.257 . S
Zn196 O199 2.031 . S
Zn196 O201 2.049 . S
Zn196 O206 2.067 . S
Zn197 O198 1.962 . S
Zn197 O200 1.986 . S
Zn197 O202 1.996 . S
Zn197 O205 1.943 . S
O198 Zn197 1.962 . S
O198 C203 1.254 . S
O199 Zn196 2.031 . S
O199 C203 1.269 . S
O200 Zn197 1.986 . S
O200 C207 1.262 . S
O201 Zn196 2.049 . S
O201 C209 1.260 . S
O202 Zn197 1.996 . S
O202 C209 1.257 . S
C203 O198 1.254 . S
C203 O199 1.269 . S
C204 O205 1.249 . S
C204 O206 1.270 . S
O205 Zn197 1.943 . S
O205 C204 1.249 . S
O206 Zn196 2.067 . S
O206 C204 1.270 . S
C207 O200 1.262 . S
C207 O208 1.232 . S
O208 C207 1.232 . S
C209 O201 1.260 . S
C209 O202 1.257 . S
Zn210 O213 2.031 . S
Zn210 O215 2.049 1_554 S
Zn210 O220 2.067 . S
Zn211 O212 1.962 . S
Zn211 O214 1.986 1_554 S
Zn211 O216 1.996 1_554 S
Zn211 O219 1.943 . S
O212 Zn211 1.962 . S
O212 C217 1.254 . S
O213 Zn210 2.031 . S
O213 C217 1.269 . S
O214 Zn211 1.986 1_556 S
O214 C221 1.262 1_556 S
O215 Zn210 2.049 1_556 S
O215 C223 1.260 . S
O216 Zn211 1.996 1_556 S
O216 C223 1.257 . S
C217 O212 1.254 . S
C217 O213 1.269 . S
C218 O219 1.249 . S
C218 O220 1.270 . S
O219 Zn211 1.943 . S
O219 C218 1.249 . S
O220 Zn210 2.067 . S
O220 C218 1.270 . S
C221 O214 1.262 1_554 S
C221 O222 1.232 . S
O222 C221 1.232 . S
C223 O215 1.260 . S
C223 O216 1.257 . S
Zn224 O227 2.031 . S
Zn224 O229 2.049 . S
Zn224 O234 2.067 . S
Zn225 O226 1.962 . S
Zn225 O228 1.986 . S
Zn225 O230 1.996 . S
Zn225 O233 1.943 . S
O226 Zn225 1.962 . S
O226 C231 1.254 . S
O227 Zn224 2.031 . S
O227 C231 1.269 . S
O228 Zn225 1.986 . S
O228 C235 1.262 . S
O229 Zn224 2.049 . S
O229 C237 1.260 . S
O230 Zn225 1.996 . S
O230 C237 1.257 . S
C231 O226 1.254 . S
C231 O227 1.269 . S
C232 O233 1.249 . S
C232 O234 1.270 . S
O233 Zn225 1.943 . S
O233 C232 1.249 . S
O234 Zn224 2.067 . S
O234 C232 1.270 . S
C235 O228 1.262 . S
C235 O236 1.232 . S
O236 C235 1.232 . S
C237 O229 1.260 . S
C237 O230 1.257 . S
Zn238 O241 2.031 . S
Zn238 O243 2.049 1_554 S
Zn238 O248 2.067 . S
Zn239 O240 1.962 . S
Zn239 O242 1.986 1_554 S
Zn239 O244 1.996 1_554 S
Zn239 O247 1.943 . S
O240 Zn239 1.962 . S
O240 C245 1.254 . S
O241 Zn238 2.031 . S
O241 C245 1.269 . S
O242 Zn239 1.986 1_556 S
O242 C249 1.262 1_556 S
O243 Zn238 2.049 1_556 S
O243 C251 1.260 . S
O244 Zn239 1.996 1_556 S
O244 C251 1.257 . S
C245 O240 1.254 . S
C245 O241 1.269 . S
C246 O247 1.249 . S
C246 O248 1.270 . S
O247 Zn239 1.943 . S
O247 C246 1.249 . S
O248 Zn238 2.067 . S
O248 C246 1.270 . S
C249 O242 1.262 1_554 S
C249 O250 1.232 . S
O250 C249 1.232 . S
C251 O243 1.260 . S
C251 O244 1.257 . S
Zn252 O255 2.031 1_655 S
Zn252 O257 2.049 . S
Zn252 O262 2.067 . S
Zn253 O254 1.962 1_655 S
Zn253 O256 1.986 . S
Zn253 O258 1.996 . S
Zn253 O261 1.943 . S
O254 Zn253 1.962 1_455 S
O254 C259 1.254 . S
O255 Zn252 2.031 1_455 S
O255 C259 1.269 . S
O256 Zn253 1.986 . S
O256 C263 1.262 . S
O257 Zn252 2.049 . S
O257 C265 1.260 . S
O258 Zn253 1.996 . S
O258 C265 1.257 . S
C259 O254 1.254 . S
C259 O255 1.269 . S
C260 O261 1.249 . S
C260 O262 1.270 . S
O261 Zn253 1.943 . S
O261 C260 1.249 . S
O262 Zn252 2.067 . S
O262 C260 1.270 . S
C263 O256 1.262 . S
C263 O264 1.232 . S
O264 C263 1.232 . S
C265 O257 1.260 . S
C265 O258 1.257 . S
Zn266 O269 2.031 . S
Zn266 O271 2.049 . S
Zn266 O276 2.067 . S
Zn267 O268 1.962 . S
Zn267 O270 1.986 . S
Zn267 O272 1.996 . S
Zn267 O275 1.943 . S
O268 Zn267 1.962 . S
O268 C273 1.254 . S
O269 Zn266 2.031 . S
O269 C273 1.269 . S
O270 Zn267 1.986 . S
O270 C277 1.262 . S
O271 Zn266 2.049 . S
O271 C279 1.260 . S
O272 Zn267 1.996 . S
O272 C279 1.257 . S
C273 O268 1.254 . S
C273 O269 1.269 . S
C274 O275 1.249 . S
C274 O276 1.270 . S
O275 Zn267 1.943 . S
O275 C274 1.249 . S
O276 Zn266 2.067 . S
O276 C274 1.270 . S
C277 O270 1.262 . S
C277 O278 1.232 . S
O278 C277 1.232 . S
C279 O271 1.260 . S
C279 O272 1.257 . S
Zn280 O283 2.031 . S
Zn280 O285 2.049 . S
Zn280 O290 2.067 . S
Zn281 O282 1.962 . S
Zn281 O284 1.986 . S
Zn281 O286 1.996 . S
Zn281 O289 1.943 . S
O282 Zn281 1.962 . S
O282 C287 1.254 . S
O283 Zn280 2.031 . S
O283 C287 1.269 . S
O284 Zn281 1.986 . S
O284 C291 1.262 . S
O285 Zn280 2.049 . S
O285 C293 1.260 . S
O286 Zn281 1.996 . S
O286 C293 1.257 . S
C287 O282 1.254 . S
C287 O283 1.269 . S
C288 O289 1.249 . S
C288 O290 1.270 . S
O289 Zn281 1.943 . S
O289 C288 1.249 . S
O290 Zn280 2.067 . S
O290 C288 1.270 . S
C291 O284 1.262 . S
C291 O292 1.232 . S
O292 C291 1.232 . S
C293 O285 1.260 . S
C293 O286 1.257 . S
Zn294 O297 2.031 . S
Zn294 O299 2.049 1_556 S
Zn294 O304 2.067 . S
Zn295 O296 1.962 . S
Zn295 O298 1.986 1_556 S
Zn295 O300 1.996 1_556 S
Zn295 O303 1.943 . S
O296 Zn295 1.962 . S
O296 C301 1.254 . S
O297 Zn294 2.031 . S
O297 C301 1.269 . S
O298 Zn295 1.986 1_554 S
O298 C305 1.262 1_554 S
O299 Zn294 2.049 1_554 S
O299 C307 1.260 . S
O300 Zn295 1.996 1_554 S
O300 C307 1.257 . S
C301 O296 1.254 . S
C301 O297 1.269 . S
C302 O303 1.249 . S
C302 O304 1.270 . S
O303 Zn295 1.943 . S
O303 C302 1.249 . S
O304 Zn294 2.067 . S
O304 C302 1.270 . S
C305 O298 1.262 1_556 S
C305 O306 1.232 . S
O306 C305 1.232 . S
C307 O299 1.260 . S
C307 O300 1.257 . S
Zn308 O311 2.031 1_655 S
Zn308 O313 2.049 . S
Zn308 O318 2.067 . S
Zn309 O310 1.962 1_655 S
Zn309 O312 1.986 . S
Zn309 O314 1.996 . S
Zn309 O317 1.943 . S
O310 Zn309 1.962 1_455 S
O310 C315 1.254 . S
O311 Zn308 2.031 1_455 S
O311 C315 1.269 . S
O312 Zn309 1.986 . S
O312 C319 1.262 . S
O313 Zn308 2.049 . S
O313 C321 1.260 . S
O314 Zn309 1.996 . S
O314 C321 1.257 . S
C315 O310 1.254 . S
C315 O311 1.269 . S
C316 O317 1.249 . S
C316 O318 1.270 . S
O317 Zn309 1.943 . S
O317 C316 1.249 . S
O318 Zn308 2.067 . S
O318 C316 1.270 . S
C319 O312 1.262 . S
C319 O320 1.232 . S
O320 C319 1.232 . S
C321 O313 1.260 . S
C321 O314 1.257 . S
Zn322 O325 2.031 . S
Zn322 O327 2.049 . S
Zn322 O332 2.067 . S
Zn323 O324 1.962 . S
Zn323 O326 1.986 . S
Zn323 O328 1.996 . S
Zn323 O331 1.943 . S
O324 Zn323 1.962 . S
O324 C329 1.254 . S
O325 Zn322 2.031 . S
O325 C329 1.269 . S
O326 Zn323 1.986 . S
O326 C333 1.262 . S
O327 Zn322 2.049 . S
O327 C335 1.260 . S
O328 Zn323 1.996 . S
O328 C335 1.257 . S
C329 O324 1.254 . S
C329 O325 1.269 . S
C330 O331 1.249 . S
C330 O332 1.270 . S
O331 Zn323 1.943 . S
O331 C330 1.249 . S
O332 Zn322 2.067 . S
O332 C330 1.270 . S
C333 O326 1.262 . S
C333 O334 1.232 . S
O334 C333 1.232 . S
C335 O327 1.260 . S
C335 O328 1.257 . S
Zn336 O339 2.031 . S
Zn336 O341 2.049 . S
Zn336 O346 2.067 . S
Zn337 O338 1.962 . S
Zn337 O340 1.986 . S
Zn337 O342 1.996 . S
Zn337 O345 1.943 . S
O338 Zn337 1.962 . S
O338 C343 1.254 . S
O339 Zn336 2.031 . S
O339 C343 1.269 . S
O340 Zn337 1.986 . S
O340 C347 1.262 . S
O341 Zn336 2.049 . S
O341 C349 1.260 . S
O342 Zn337 1.996 . S
O342 C349 1.257 . S
C343 O338 1.254 . S
C343 O339 1.269 . S
C344 O345 1.249 . S
C344 O346 1.270 . S
O345 Zn337 1.943 . S
O345 C344 1.249 . S
O346 Zn336 2.067 . S
O346 C344 1.270 . S
C347 O340 1.262 . S
C347 O348 1.232 . S
O348 C347 1.232 . S
C349 O341 1.260 . S
C349 O342 1.257 . S
Zn350 O353 2.031 . S
Zn350 O355 2.049 1_556 S
Zn350 O360 2.067 . S
Zn351 O352 1.962 . S
Zn351 O354 1.986 1_556 S
Zn351 O356 1.996 1_556 S
Zn351 O359 1.943 . S
O352 Zn351 1.962 . S
O352 C357 1.254 . S
O353 Zn350 2.031 . S
O353 C357 1.269 . S
O354 Zn351 1.986 1_554 S
O354 C361 1.262 1_554 S
O355 Zn350 2.049 1_554 S
O355 C363 1.260 . S
O356 Zn351 1.996 1_554 S
O356 C363 1.257 . S
C357 O352 1.254 . S
C357 O353 1.269 . S
C358 O359 1.249 . S
C358 O360 1.270 . S
O359 Zn351 1.943 . S
O359 C358 1.249 . S
O360 Zn350 2.067 . S
O360 C358 1.270 . S
C361 O354 1.262 1_556 S
C361 O362 1.232 . S
O362 C361 1.232 . S
C363 O355 1.260 . S
C363 O356 1.257 . S
Zn364 O367 2.031 1_455 S
Zn364 O369 2.049 . S
Zn364 O374 2.067 . S
Zn365 O366 1.962 1_455 S
Zn365 O368 1.986 . S
Zn365 O370 1.996 . S
Zn365 O373 1.943 . S
O366 Zn365 1.962 1_655 S
O366 C371 1.254 . S
O367 Zn364 2.031 1_655 S
O367 C371 1.269 . S
O368 Zn365 1.986 . S
O368 C375 1.262 . S
O369 Zn364 2.049 . S
O369 C377 1.260 . S
O370 Zn365 1.996 . S
O370 C377 1.257 . S
C371 O366 1.254 . S
C371 O367 1.269 . S
C372 O373 1.249 . S
C372 O374 1.270 . S
O373 Zn365 1.943 . S
O373 C372 1.249 . S
O374 Zn364 2.067 . S
O374 C372 1.270 . S
C375 O368 1.262 . S
C375 O376 1.232 . S
O376 C375 1.232 . S
C377 O369 1.260 . S
C377 O370 1.257 . S
Zn378 O381 2.031 . S
Zn378 O383 2.049 . S
Zn378 O388 2.067 . S
Zn379 O380 1.962 . S
Zn379 O382 1.986 . S
Zn379 O384 1.996 . S
Zn379 O387 1.943 . S
O380 Zn379 1.962 . S
O380 C385 1.254 . S
O381 Zn378 2.031 . S
O381 C385 1.269 . S
O382 Zn379 1.986 . S
O382 C389 1.262 . S
O383 Zn378 2.049 . S
O383 C391 1.260 . S
O384 Zn379 1.996 . S
O384 C391 1.257 . S
C385 O380 1.254 . S
C385 O381 1.269 . S
C386 O387 1.249 . S
C386 O388 1.270 . S
O387 Zn379 1.943 . S
O387 C386 1.249 . S
O388 Zn378 2.067 . S
O388 C386 1.270 . S
C389 O382 1.262 . S
C389 O390 1.232 . S
O390 C389 1.232 . S
C391 O383 1.260 . S
C391 O384 1.257 . S
Zn392 O395 2.031 . S
Zn392 O397 2.049 . S
Zn392 O402 2.067 . S
Zn393 O394 1.962 . S
Zn393 O396 1.986 . S
Zn393 O398 1.996 . S
Zn393 O401 1.943 . S
O394 Zn393 1.962 . S
O394 C399 1.254 . S
O395 Zn392 2.031 . S
O395 C399 1.269 . S
O396 Zn393 1.986 . S
O396 C403 1.262 . S
O397 Zn392 2.049 . S
O397 C405 1.260 . S
O398 Zn393 1.996 . S
O398 C405 1.257 . S
C399 O394 1.254 . S
C399 O395 1.269 . S
C400 O401 1.249 . S
C400 O402 1.270 . S
O401 Zn393 1.943 . S
O401 C400 1.249 . S
O402 Zn392 2.067 . S
O402 C400 1.270 . S
C403 O396 1.262 . S
C403 O404 1.232 . S
O404 C403 1.232 . S
C405 O397 1.260 . S
C405 O398 1.257 . S
Zn406 O409 2.031 . S
Zn406 O411 2.049 1_554 S
Zn406 O416 2.067 . S
Zn407 O408 1.962 . S
Zn407 O410 1.986 1_554 S
Zn407 O412 1.996 1_554 S
Zn407 O415 1.943 . S
O408 Zn407 1.962 . S
O408 C413 1.254 . S
O409 Zn406 2.031 . S
O409 C413 1.269 . S
O410 Zn407 1.986 1_556 S
O410 C417 1.262 1_556 S
O411 Zn406 2.049 1_556 S
O411 C419 1.260 . S
O412 Zn407 1.996 1_556 S
O412 C419 1.257 . S
C413 O408 1.254 . S
C413 O409 1.269 . S
C414 O415 1.249 . S
C414 O416 1.270 . S
O415 Zn407 1.943 . S
O415 C414 1.249 . S
O416 Zn406 2.067 . S
O416 C414 1.270 . S
C417 O410 1.262 1_554 S
C417 O418 1.232 . S
O418 C417 1.232 . S
C419 O411 1.260 . S
C419 O412 1.257 . S
Zn420 O423 2.031 1_455 S
Zn420 O425 2.049 . S
Zn420 O430 2.067 . S
Zn421 O422 1.962 1_455 S
Zn421 O424 1.986 . S
Zn421 O426 1.996 . S
Zn421 O429 1.943 . S
O422 Zn421 1.962 1_655 S
O422 C427 1.254 . S
O423 Zn420 2.031 1_655 S
O423 C427 1.269 . S
O424 Zn421 1.986 . S
O424 C431 1.262 . S
O425 Zn420 2.049 . S
O425 C433 1.260 . S
O426 Zn421 1.996 . S
O426 C433 1.257 . S
C427 O422 1.254 . S
C427 O423 1.269 . S
C428 O429 1.249 . S
C428 O430 1.270 . S
O429 Zn421 1.943 . S
O429 C428 1.249 . S
O430 Zn420 2.067 . S
O430 C428 1.270 . S
C431 O424 1.262 . S
C431 O432 1.232 . S
O432 C431 1.232 . S
C433 O425 1.260 . S
C433 O426 1.257 . S
Zn434 O437 2.031 . S
Zn434 O439 2.049 . S
Zn434 O444 2.067 . S
Zn435 O436 1.962 . S
Zn435 O438 1.986 . S
Zn435 O440 1.996 . S
Zn435 O443 1.943 . S
O436 Zn435 1.962 . S
O436 C441 1.254 . S
O437 Zn434 2.031 . S
O437 C441 1.269 . S
O438 Zn435 1.986 . S
O438 C445 1.262 . S
O439 Zn434 2.049 . S
O439 C447 1.260 . S
O440 Zn435 1.996 . S
O440 C447 1.257 . S
C441 O436 1.254 . S
C441 O437 1.269 . S
C442 O443 1.249 . S
C442 O444 1.270 . S
O443 Zn435 1.943 . S
O443 C442 1.249 . S
O444 Zn434 2.067 . S
O444 C442 1.270 . S
C445 O438 1.262 . S
C445 O446 1.232 . S
O446 C445 1.232 . S
C447 O439 1.260 . S
C447 O440 1.257 . S
C13 C307 1.150 . S
C321 C27 1.150 . S
C41 C335 1.150 . S
C293 C55 1.150 . S
C69 C279 1.150 . S
C83 C237 1.150 . S
C251 C97 1.150 . S
C111 C265 1.150 . S
C125 C419 1.150 . S
C139 C433 1.150 . S
C447 C153 1.150 . S
C405 C167 1.150 . S
C181 C391 1.150 . S
C349 C195 1.150 . S
C209 C363 1.150 . S
C377 C223 1.150 . S
C8 C133 1.387 . S
C22 C371 1.387 . S
C161 C36 1.387 . S
C50 C343 1.387 . S
C64 C217 1.387 . S
C399 C78 1.387 . S
C189 C92 1.387 . S
C427 C106 1.387 . S
C120 C21 1.387 . S
C259 C134 1.387 . S
C49 C148 1.387 . S
C162 C231 1.387 . S
C105 C176 1.387 . S
C287 C190 1.387 . S
C77 C204 1.387 . S
C218 C315 1.387 . S
C357 C232 1.387 . S
C147 C246 1.387 . S
C385 C260 1.387 . S
C274 C119 1.387 . S
C441 C288 1.387 . S
C175 C302 1.387 . S
C413 C316 1.387 . S
C330 C203 1.387 . S
C344 C245 1.387 . S
C35 C358 1.387 . S
C372 C273 1.387 . S
C386 C7 1.387 . S
C400 C329 1.387 . S
C63 C414 1.387 . S
C301 C428 1.387 . S
C442 C91 1.387 . S
C11 C67 1.443 . S
C25 C81 1.443 . S
C95 C39 1.443 . S
C109 C53 1.443 1_556 S
C179 C123 1.443 . S
C193 C137 1.443 . S
C207 C151 1.443 . S
C221 C165 1.443 1_554 S
C235 C291 1.443 1_565 S
C249 C305 1.443 1_554 S
C263 C319 1.443 1_545 S
C333 C277 1.443 . S
C347 C403 1.443 1_545 S
C417 C361 1.443 1_554 S
C431 C375 1.443 1_545 S
C445 C389 1.443 . S
