# Generated by pormake.
# Topology why, (6)-cn, num edge types: 1
# Building blocks:
#     Node 0, Type 0, BuildingBlock: VOLQOD_clean_sbu_1, # of connection points: 6
#     Node 1, Type 0, BuildingBlock: VOLQOD_clean_sbu_1, # of connection points: 6
#     Node 2, Type 0, BuildingBlock: VOLQOD_clean_sbu_1, # of connection points: 6
#     Node 3, Type 0, BuildingBlock: VOLQOD_clean_sbu_1, # of connection points: 6
#     Node 4, Type 0, BuildingBlock: VOLQOD_clean_sbu_1, # of connection points: 6
#     Node 5, Type 0, BuildingBlock: VOLQOD_clean_sbu_1, # of connection points: 6
#     Node 6, Type 0, BuildingBlock: VOLQOD_clean_sbu_1, # of connection points: 6
#     Node 7, Type 0, BuildingBlock: VOLQOD_clean_sbu_1, # of connection points: 6
#     Node 8, Type 0, BuildingBlock: VOLQOD_clean_sbu_1, # of connection points: 6
#     Node 9, Type 0, BuildingBlock: VOLQOD_clean_sbu_1, # of connection points: 6
#     Node 10, Type 0, BuildingBlock: VOLQOD_clean_sbu_1, # of connection points: 6
#     Node 11, Type 0, BuildingBlock: VOLQOD_clean_sbu_1, # of connection points: 6
#     Node 12, Type 0, BuildingBlock: VOLQOD_clean_sbu_1, # of connection points: 6
#     Node 13, Type 0, BuildingBlock: VOLQOD_clean_sbu_1, # of connection points: 6
#     Node 14, Type 0, BuildingBlock: VOLQOD_clean_sbu_1, # of connection points: 6
#     Node 15, Type 0, BuildingBlock: VOLQOD_clean_sbu_1, # of connection points: 6
#     Edge 16, Type (0, 0), BuildingBlock: XUDNAN_clean_linker_2, # of connection points: 2
#     Edge 17, Type (0, 0), BuildingBlock: XUDNAN_clean_linker_2, # of connection points: 2
#     Edge 18, Type (0, 0), BuildingBlock: XUDNAN_clean_linker_2, # of connection points: 2
#     Edge 19, Type (0, 0), BuildingBlock: XUDNAN_clean_linker_2, # of connection points: 2
#     Edge 20, Type (0, 0), BuildingBlock: XUDNAN_clean_linker_2, # of connection points: 2
#     Edge 21, Type (0, 0), BuildingBlock: XUDNAN_clean_linker_2, # of connection points: 2
#     Edge 22, Type (0, 0), BuildingBlock: XUDNAN_clean_linker_2, # of connection points: 2
#     Edge 23, Type (0, 0), BuildingBlock: XUDNAN_clean_linker_2, # of connection points: 2
#     Edge 24, Type (0, 0), BuildingBlock: XUDNAN_clean_linker_2, # of connection points: 2
#     Edge 25, Type (0, 0), BuildingBlock: XUDNAN_clean_linker_2, # of connection points: 2
#     Edge 26, Type (0, 0), BuildingBlock: XUDNAN_clean_linker_2, # of connection points: 2
#     Edge 27, Type (0, 0), BuildingBlock: XUDNAN_clean_linker_2, # of connection points: 2
#     Edge 28, Type (0, 0), BuildingBlock: XUDNAN_clean_linker_2, # of connection points: 2
#     Edge 29, Type (0, 0), BuildingBlock: XUDNAN_clean_linker_2, # of connection points: 2
#     Edge 30, Type (0, 0), BuildingBlock: XUDNAN_clean_linker_2, # of connection points: 2
#     Edge 31, Type (0, 0), BuildingBlock: XUDNAN_clean_linker_2, # of connection points: 2
#     Edge 32, Type (0, 0), BuildingBlock: XUDNAN_clean_linker_2, # of connection points: 2
#     Edge 33, Type (0, 0), BuildingBlock: XUDNAN_clean_linker_2, # of connection points: 2
#     Edge 34, Type (0, 0), BuildingBlock: XUDNAN_clean_linker_2, # of connection points: 2
#     Edge 35, Type (0, 0), BuildingBlock: XUDNAN_clean_linker_2, # of connection points: 2
#     Edge 36, Type (0, 0), BuildingBlock: XUDNAN_clean_linker_2, # of connection points: 2
#     Edge 37, Type (0, 0), BuildingBlock: XUDNAN_clean_linker_2, # of connection points: 2
#     Edge 38, Type (0, 0), BuildingBlock: XUDNAN_clean_linker_2, # of connection points: 2
#     Edge 39, Type (0, 0), BuildingBlock: XUDNAN_clean_linker_2, # of connection points: 2
#     Edge 40, Type (0, 0), BuildingBlock: XUDNAN_clean_linker_2, # of connection points: 2
#     Edge 41, Type (0, 0), BuildingBlock: XUDNAN_clean_linker_2, # of connection points: 2
#     Edge 42, Type (0, 0), BuildingBlock: XUDNAN_clean_linker_2, # of connection points: 2
#     Edge 43, Type (0, 0), BuildingBlock: XUDNAN_clean_linker_2, # of connection points: 2
#     Edge 44, Type (0, 0), BuildingBlock: XUDNAN_clean_linker_2, # of connection points: 2
#     Edge 45, Type (0, 0), BuildingBlock: XUDNAN_clean_linker_2, # of connection points: 2
#     Edge 46, Type (0, 0), BuildingBlock: XUDNAN_clean_linker_2, # of connection points: 2
#     Edge 47, Type (0, 0), BuildingBlock: XUDNAN_clean_linker_2, # of connection points: 2
#     Edge 48, Type (0, 0), BuildingBlock: XUDNAN_clean_linker_2, # of connection points: 2
#     Edge 49, Type (0, 0), BuildingBlock: XUDNAN_clean_linker_2, # of connection points: 2
#     Edge 50, Type (0, 0), BuildingBlock: XUDNAN_clean_linker_2, # of connection points: 2
#     Edge 51, Type (0, 0), BuildingBlock: XUDNAN_clean_linker_2, # of connection points: 2
#     Edge 52, Type (0, 0), BuildingBlock: XUDNAN_clean_linker_2, # of connection points: 2
#     Edge 53, Type (0, 0), BuildingBlock: XUDNAN_clean_linker_2, # of connection points: 2
#     Edge 54, Type (0, 0), BuildingBlock: XUDNAN_clean_linker_2, # of connection points: 2
#     Edge 55, Type (0, 0), BuildingBlock: XUDNAN_clean_linker_2, # of connection points: 2
#     Edge 56, Type (0, 0), BuildingBlock: XUDNAN_clean_linker_2, # of connection points: 2
#     Edge 57, Type (0, 0), BuildingBlock: XUDNAN_clean_linker_2, # of connection points: 2
#     Edge 58, Type (0, 0), BuildingBlock: XUDNAN_clean_linker_2, # of connection points: 2
#     Edge 59, Type (0, 0), BuildingBlock: XUDNAN_clean_linker_2, # of connection points: 2
#     Edge 60, Type (0, 0), BuildingBlock: XUDNAN_clean_linker_2, # of connection points: 2
#     Edge 61, Type (0, 0), BuildingBlock: XUDNAN_clean_linker_2, # of connection points: 2
#     Edge 62, Type (0, 0), BuildingBlock: XUDNAN_clean_linker_2, # of connection points: 2
#     Edge 63, Type (0, 0), BuildingBlock: XUDNAN_clean_linker_2, # of connection points: 2
# Relax obj value: 0.320
# Max RMSD: 0.187
# Mean RMSD: 0.187
data_MOF--net-why--node1-VOLQOD_clean_sbu_1--edge1-XUDNAN_clean_linker_2
_symmetry_space_group_name_H-M    P1
_symmetry_Int_Tables_number       1
_symmetry_cell_setting            triclinic
loop_
_symmetry_equiv_pos_as_xyz
'x, y, z'
_cell_length_a     49.198055
_cell_length_b     49.154907
_cell_length_c     32.133867
_cell_angle_alpha  89.9853333
_cell_angle_beta   89.927202
_cell_angle_gamma 89.988804
loop_
_atom_site_label
_atom_site_type_symbol
_atom_site_fract_x
_atom_site_fract_y
_atom_site_fract_z
_atom_type_partial_charge
O0 O 0.35125 0.21563 0.96429 0.0
Zn1 Zn 0.3518 0.17699 0.98266 0.0
O2 O 0.35196 0.17306 0.04264 0.0
Zn3 Zn 0.38335 0.15268 0.05963 0.0
Zn4 Zn 0.35304 0.20947 0.06787 0.0
Zn5 Zn 0.32003 0.15278 0.05967 0.0
O6 O 0.37373 0.12463 0.10117 0.0
O7 O 0.32876 0.12209 0.09852 0.0
O8 O 0.38163 0.15504 0.95666 0.0
O9 O 0.39964 0.13292 0.01151 0.0
O10 O 0.41094 0.17684 0.08548 0.0
O11 O 0.38988 0.2164 0.09531 0.0
O12 O 0.32093 0.21418 0.10776 0.0
O13 O 0.31818 0.1609 0.95903 0.0
O14 O 0.29694 0.17723 0.09217 0.0
O15 O 0.29739 0.13928 0.01182 0.0
C16 C 0.34894 0.23812 0.98355 0.0
C17 C 0.35144 0.1141 0.11288 0.0
C18 C 0.41082 0.20121 0.09876 0.0
C19 C 0.39756 0.1374 0.97234 0.0
C20 C 0.29938 0.19981 0.11092 0.0
C21 C 0.29894 0.14642 0.97326 0.0
O22 O 0.34877 0.23805 0.02311 0.0
O23 O 0.52913 0.56436 0.2109 0.0
Zn24 Zn 0.56303 0.57202 0.24176 0.0
O25 O 0.55525 0.57872 0.29956 0.0
Zn26 Zn 0.56564 0.61537 0.31154 0.0
Zn27 Zn 0.51651 0.57361 0.31194 0.0
Zn28 Zn 0.57758 0.55464 0.33281 0.0
O29 O 0.58788 0.6173 0.36216 0.0
O30 O 0.5968 0.57438 0.37849 0.0
O31 O 0.58255 0.60299 0.21408 0.0
O32 O 0.58737 0.63223 0.26603 0.0
O33 O 0.53334 0.63772 0.32316 0.0
O34 O 0.49972 0.60852 0.33484 0.0
O35 O 0.51133 0.54143 0.35126 0.0
O36 O 0.58714 0.54023 0.23596 0.0
O37 O 0.55402 0.52765 0.35976 0.0
O38 O 0.60393 0.53271 0.29888 0.0
C39 C 0.50423 0.56253 0.22109 0.0
C40 C 0.59864 0.59971 0.3858 0.0
C41 C 0.50907 0.63274 0.33436 0.0
C42 C 0.59183 0.62516 0.22863 0.0
C43 C 0.52872 0.52463 0.36578 0.0
C44 C 0.60325 0.52766 0.2601 0.0
O45 O 0.4963 0.56584 0.25853 0.0
O46 O 0.1448 0.77374 0.49133 0.0
Zn47 Zn 0.14342 0.80954 0.52025 0.0
O48 O 0.13235 0.80603 0.57763 0.0
Zn49 Zn 0.09778 0.82426 0.58556 0.0
Zn50 Zn 0.12883 0.76741 0.5906 0.0
Zn51 Zn 0.15944 0.82335 0.61325 0.0
O52 O 0.09988 0.85197 0.63042 0.0
O53 O 0.14315 0.85211 0.64977 0.0
O54 O 0.11883 0.83435 0.48842 0.0
O55 O 0.08688 0.84478 0.5346 0.0
O56 O 0.06872 0.79792 0.6022 0.0
O57 O 0.09162 0.75949 0.61174 0.0
O58 O 0.15484 0.75697 0.63579 0.0
O59 O 0.18017 0.82548 0.51694 0.0
O60 O 0.17572 0.79588 0.65081 0.0
O61 O 0.19019 0.83967 0.58065 0.0
C62 C 0.14077 0.74928 0.50258 0.0
C63 C 0.11899 0.86104 0.65302 0.0
C64 C 0.06967 0.7731 0.61345 0.0
C65 C 0.09736 0.84712 0.49858 0.0
C66 C 0.17207 0.77059 0.65672 0.0
C67 C 0.19599 0.83741 0.54225 0.0
O68 O 0.13433 0.74333 0.53989 0.0
O69 O 0.97819 0.40375 0.71289 0.0
Zn70 Zn 0.94067 0.40409 0.7347 0.0
O71 O 0.94031 0.40206 0.79494 0.0
Zn72 Zn 0.92374 0.36818 0.81207 0.0
Zn73 Zn 0.97749 0.40509 0.81618 0.0
Zn74 Zn 0.91787 0.43126 0.8156 0.0
O75 O 0.89233 0.37394 0.85002 0.0
O76 O 0.88859 0.41874 0.85399 0.0
O77 O 0.92039 0.3731 0.70937 0.0
O78 O 0.90778 0.34829 0.76371 0.0
O79 O 0.95071 0.34518 0.8416 0.0
O80 O 0.98678 0.37181 0.85049 0.0
O81 O 0.98142 0.43937 0.85104 0.0
O82 O 0.92147 0.43682 0.71314 0.0
O83 O 0.94035 0.45801 0.84591 0.0
O84 O 0.89889 0.45009 0.76943 0.0
C85 C 0.00171 0.40447 0.72913 0.0
C86 C 0.88052 0.39507 0.86377 0.0
C87 C 0.97438 0.34933 0.85622 0.0
C88 C 0.90786 0.35287 0.72478 0.0
C89 C 0.96475 0.45864 0.85878 0.0
C90 C 0.90343 0.45134 0.73059 0.0
O91 O 0.00485 0.40549 0.7685 0.0
O92 O 0.66202 0.77706 0.03273 0.0
Zn93 Zn 0.65908 0.8131 0.00525 0.0
O94 O 0.6505 0.81022 0.94669 0.0
Zn95 Zn 0.61844 0.83173 0.93397 0.0
Zn96 Zn 0.64504 0.77179 0.93344 0.0
Zn97 Zn 0.68046 0.82386 0.91365 0.0
O98 O 0.62696 0.86066 0.89183 0.0
O99 O 0.66871 0.85005 0.87106 0.0
O100 O 0.62985 0.8337 0.03594 0.0
O101 O 0.60317 0.84975 0.98494 0.0
O102 O 0.58921 0.80778 0.9105 0.0
O103 O 0.60812 0.76668 0.90708 0.0
O104 O 0.6741 0.75779 0.89399 0.0
O105 O 0.69412 0.83312 0.01299 0.0
O106 O 0.69909 0.7947 0.88294 0.0
O107 O 0.70772 0.84318 0.94837 0.0
C108 C 0.65554 0.75298 0.02227 0.0
C109 C 0.64728 0.86412 0.86787 0.0
C110 C 0.58811 0.78268 0.90087 0.0
C111 C 0.60935 0.84713 0.02334 0.0
C112 C 0.69431 0.76966 0.87705 0.0
C113 C 0.71076 0.84532 0.98745 0.0
O114 O 0.64712 0.74897 0.98572 0.0
O115 O 0.45864 0.40171 0.7558 0.0
Zn116 Zn 0.42123 0.40289 0.73316 0.0
O117 O 0.41991 0.38618 0.67868 0.0
Zn118 Zn 0.39354 0.35699 0.67945 0.0
Zn119 Zn 0.4561 0.37261 0.66301 0.0
Zn120 Zn 0.40728 0.41297 0.63894 0.0
O121 O 0.36534 0.36141 0.63583 0.0
O122 O 0.37624 0.40014 0.60496 0.0
O123 O 0.39691 0.38377 0.77429 0.0
O124 O 0.37514 0.35396 0.73456 0.0
O125 O 0.41139 0.32163 0.66681 0.0
O126 O 0.45423 0.33222 0.65187 0.0
O127 O 0.46983 0.39178 0.61092 0.0
O128 O 0.41 0.44178 0.73053 0.0
O129 O 0.43623 0.42087 0.59884 0.0
O130 O 0.39649 0.44792 0.66529 0.0
C131 C 0.48108 0.39133 0.74429 0.0
C132 C 0.36137 0.37916 0.60778 0.0
C133 C 0.43516 0.31478 0.65533 0.0
C134 C 0.37906 0.36531 0.76958 0.0
C135 C 0.45933 0.41105 0.58975 0.0
C136 C 0.39995 0.45665 0.70205 0.0
O137 O 0.48333 0.37873 0.70977 0.0
O138 O 0.81241 0.22134 0.52511 0.0
Zn139 Zn 0.81123 0.18368 0.50322 0.0
O140 O 0.82798 0.18276 0.44876 0.0
Zn141 Zn 0.85968 0.15977 0.4525 0.0
Zn142 Zn 0.83737 0.21931 0.43037 0.0
Zn143 Zn 0.80351 0.16729 0.40818 0.0
O144 O 0.85231 0.12368 0.42652 0.0
O145 O 0.81551 0.13104 0.38804 0.0
O146 O 0.83199 0.16147 0.54619 0.0
O147 O 0.87002 0.15212 0.51187 0.0
O148 O 0.89087 0.17722 0.42244 0.0
O149 O 0.87606 0.21954 0.41263 0.0
O150 O 0.8163 0.2307 0.37907 0.0
O151 O 0.77218 0.17282 0.49956 0.0
O152 O 0.79792 0.19143 0.35989 0.0
O153 O 0.76715 0.1622 0.43277 0.0
C154 C 0.82207 0.24393 0.51279 0.0
C155 C 0.83463 0.11575 0.40042 0.0
C156 C 0.89443 0.20146 0.4095 0.0
C157 C 0.85618 0.15213 0.5454 0.0
C158 C 0.80277 0.21641 0.35331 0.0
C159 C 0.75751 0.16523 0.46909 0.0
O160 O 0.83301 0.24645 0.47703 0.0
O161 O 0.01409 0.59462 0.25825 0.0
Zn162 Zn 0.05324 0.59071 0.24045 0.0
O163 O 0.05727 0.6023 0.18211 0.0
Zn164 Zn 0.0827 0.63275 0.17811 0.0
Zn165 Zn 0.02223 0.61259 0.15867 0.0
Zn166 Zn 0.07117 0.57247 0.14923 0.0
O167 O 0.1151 0.62356 0.1424 0.0
O168 O 0.10601 0.58152 0.12179 0.0
O169 O 0.07615 0.61435 0.27874 0.0
O170 O 0.0971 0.64203 0.23438 0.0
O171 O 0.06464 0.66624 0.15427 0.0
O172 O 0.02335 0.65102 0.13875 0.0
O173 O 0.01169 0.5899 0.10922 0.0
O174 O 0.0655 0.5514 0.2485 0.0
O175 O 0.04615 0.56114 0.10411 0.0
O176 O 0.07861 0.54065 0.18446 0.0
C177 C -0.00748 0.60247 0.23981 0.0
C178 C 0.12132 0.60227 0.12197 0.0
C179 C 0.04102 0.66991 0.1391 0.0
C180 C 0.09288 0.63355 0.27124 0.0
C181 C 0.02347 0.57009 0.09126 0.0
C182 C 0.07565 0.53458 0.22257 0.0
O183 O -0.00718 0.60978 0.20179 0.0
O184 O 0.81323 0.71563 0.47138 0.0
Zn185 Zn 0.81148 0.6776 0.4916 0.0
O186 O 0.82792 0.6762 0.5459 0.0
Zn187 Zn 0.86058 0.65483 0.54298 0.0
Zn188 Zn 0.83441 0.71254 0.56847 0.0
Zn189 Zn 0.80415 0.65769 0.58297 0.0
O190 O 0.85575 0.61737 0.56609 0.0
O191 O 0.81444 0.61958 0.5929 0.0
O192 O 0.83305 0.65565 0.44926 0.0
O193 O 0.87149 0.64919 0.48413 0.0
O194 O 0.89011 0.67319 0.57441 0.0
O195 O 0.87307 0.71418 0.58825 0.0
O196 O 0.81143 0.71933 0.62104 0.0
O197 O 0.77208 0.66663 0.49427 0.0
O198 O 0.80241 0.67624 0.63658 0.0
O199 O 0.76709 0.65629 0.56116 0.0
C200 C 0.82115 0.73849 0.48536 0.0
C201 C 0.83577 0.60625 0.58448 0.0
C202 C 0.89231 0.69688 0.58998 0.0
C203 C 0.85781 0.64794 0.45061 0.0
C204 C 0.80321 0.70117 0.64666 0.0
C205 C 0.75733 0.65951 0.52505 0.0
O206 O 0.83001 0.74111 0.52252 0.0
O207 O 0.00538 0.08971 0.74439 0.0
Zn208 Zn 0.04488 0.08484 0.75803 0.0
O209 O 0.05277 0.10212 0.81109 0.0
Zn210 Zn 0.07523 0.1336 0.80051 0.0
Zn211 Zn 0.01894 0.11204 0.83986 0.0
Zn212 Zn 0.07351 0.07807 0.84635 0.0
O213 O 0.11344 0.12815 0.81937 0.0
O214 O 0.11147 0.0907 0.85757 0.0
O215 O 0.06522 0.10299 0.71064 0.0
O216 O 0.07853 0.14163 0.73988 0.0
O217 O 0.0608 0.1656 0.8313 0.0
O218 O 0.02176 0.15125 0.85865 0.0
O219 O 0.01325 0.08912 0.89257 0.0
O220 O 0.05504 0.04506 0.75943 0.0
O221 O 0.05501 0.07263 0.90023 0.0
O222 O 0.07668 0.04178 0.81989 0.0
C223 C 0.98492 0.1001 0.76283 0.0
C224 C 0.1247 0.11066 0.84276 0.0
C225 C 0.03967 0.1697 0.85327 0.0
C226 C 0.07594 0.12653 0.70799 0.0
C227 C 0.03107 0.07639 0.91392 0.0
C228 C 0.06833 0.03124 0.78614 0.0
O229 O 0.98678 0.10931 0.7999 0.0
O230 O 0.6569 0.26758 0.95817 0.0
Zn231 Zn 0.658 0.30593 0.9786 0.0
O232 O 0.65076 0.30527 0.03817 0.0
Zn233 Zn 0.61784 0.32556 0.04943 0.0
Zn234 Zn 0.64907 0.26878 0.06206 0.0
Zn235 Zn 0.6801 0.32431 0.0639 0.0
O236 O 0.62435 0.35571 0.09037 0.0
O237 O 0.66793 0.35065 0.10621 0.0
O238 O 0.62937 0.32679 0.94717 0.0
O239 O 0.6032 0.3423 -0.00277 0.0
O240 O 0.58964 0.30078 0.0738 0.0
O241 O 0.61252 0.26324 0.0903 0.0
O242 O 0.68063 0.26162 0.10215 0.0
O243 O 0.69392 0.32371 0.96424 0.0
O244 O 0.7046 0.29936 0.09305 0.0
O245 O 0.70207 0.34452 0.02297 0.0
C246 C 0.65362 0.24468 0.97601 0.0
C247 C 0.64518 0.36215 0.1116 0.0
C248 C 0.59062 0.27719 0.09019 0.0
C249 C 0.60946 0.34144 0.95896 0.0
C250 C 0.70197 0.2758 0.10858 0.0
C251 C 0.70717 0.34137 0.98495 0.0
O252 O 0.65071 0.2413 0.01536 0.0
O253 O 0.45071 0.89659 0.22364 0.0
Zn254 Zn 0.41386 0.89715 0.24864 0.0
O255 O 0.41461 0.88378 0.30525 0.0
Zn256 Zn 0.38841 0.85466 0.31057 0.0
Zn257 Zn 0.45143 0.87101 0.31889 0.0
Zn258 Zn 0.40329 0.91282 0.34255 0.0
O259 O 0.361 0.86211 0.35454 0.0
O260 O 0.37309 0.90204 0.3804 0.0
O261 O 0.38933 0.87494 0.21202 0.0
O262 O 0.36878 0.84782 0.25738 0.0
O263 O 0.4068 0.82017 0.32644 0.0
O264 O 0.45042 0.83088 0.33344 0.0
O265 O 0.46625 0.89223 0.36814 0.0
O266 O 0.40079 0.93535 0.24669 0.0
O267 O 0.43369 0.92275 0.37924 0.0
O268 O 0.39077 0.94599 0.31212 0.0
C269 C 0.47384 0.88758 0.23453 0.0
C270 C 0.35777 0.8813 0.38054 0.0
C271 C 0.43114 0.81353 0.33486 0.0
C272 C 0.37184 0.8567 0.22052 0.0
C273 C 0.45683 0.91275 0.38775 0.0
C274 C 0.39179 0.95193 0.27371 0.0
O275 O 0.47742 0.87632 0.26989 0.0
O276 O 0.14835 0.25772 0.49002 0.0
Zn277 Zn 0.15299 0.2953 0.46711 0.0
O278 O 0.13826 0.29855 0.41173 0.0
Zn279 Zn 0.10479 0.31979 0.41332 0.0
Zn280 Zn 0.13156 0.26218 0.39088 0.0
Zn281 Zn 0.16459 0.31637 0.37616 0.0
O282 O 0.10735 0.35243 0.37577 0.0
O283 O 0.14852 0.34865 0.34792 0.0
O284 O 0.13359 0.32004 0.50647 0.0
O285 O 0.09748 0.33409 0.47117 0.0
O286 O 0.07346 0.29706 0.39274 0.0
O287 O 0.09406 0.2599 0.36909 0.0
O288 O 0.15671 0.2525 0.34439 0.0
O289 O 0.19184 0.30631 0.46821 0.0
O290 O 0.17866 0.29121 0.33253 0.0
O291 O 0.19689 0.32851 0.40847 0.0
C292 C 0.14009 0.23543 0.4744 0.0
C293 C 0.12586 0.36089 0.35129 0.0
C294 C 0.07281 0.27427 0.37379 0.0
C295 C 0.11152 0.33342 0.50447 0.0
C296 C 0.17397 0.26642 0.32397 0.0
C297 C 0.20582 0.32117 0.44382 0.0
O298 O 0.1334 0.23388 0.43623 0.0
O299 O 0.96509 0.914 0.2881 0.0
Zn300 Zn 0.92984 0.90662 0.26106 0.0
O301 O 0.9334 0.90454 0.20137 0.0
Zn302 Zn 0.91593 0.8711 0.18431 0.0
Zn303 Zn 0.97209 0.90437 0.18708 0.0
Zn304 Zn 0.91503 0.93568 0.17529 0.0
O305 O 0.88585 0.87882 0.14515 0.0
O306 O 0.8863 0.92353 0.13517 0.0
O307 O 0.91328 0.87366 0.28737 0.0
O308 O 0.89885 0.85079 0.23235 0.0
O309 O 0.94272 0.84711 0.15541 0.0
O310 O 0.98225 0.86914 0.15848 0.0
O311 O 0.98066 0.93632 0.14973 0.0
O312 O 0.90519 0.93629 0.27619 0.0
O313 O 0.94148 0.95859 0.14328 0.0
O314 O 0.89566 0.95876 0.21817 0.0
C315 C 0.98961 0.91326 0.27585 0.0
C316 C 0.87653 0.9001 0.12785 0.0
C317 C 0.96806 0.84864 0.14764 0.0
C318 C 0.90023 0.85392 0.2716 0.0
C319 C 0.96674 0.95615 0.13553 0.0
C320 C 0.89311 0.95541 0.25728 0.0
O321 O -0.00422 0.90822 0.23815 0.0
O322 O 0.34007 0.70582 0.01678 0.0
Zn323 Zn 0.34368 0.67073 0.99125 0.0
O324 O 0.34989 0.67382 0.93202 0.0
Zn325 Zn 0.3835 0.65642 0.91738 0.0
Zn326 Zn 0.35014 0.71219 0.91429 0.0
Zn327 Zn 0.32143 0.65356 0.90503 0.0
O328 O 0.37901 0.63007 0.87111 0.0
O329 O 0.33465 0.62929 0.85984 0.0
O330 O 0.37289 0.6472 0.01878 0.0
O331 O 0.39885 0.63605 0.9656 0.0
O332 O 0.40986 0.68366 0.89674 0.0
O333 O 0.38685 0.72233 0.88861 0.0
O334 O 0.31809 0.71955 0.87531 0.0
O335 O 0.30901 0.64995 0.00391 0.0
O336 O 0.29712 0.67954 0.87876 0.0
O337 O 0.29824 0.63204 0.944 0.0
C338 C 0.34046 0.72998 0.00266 0.0
C339 C 0.35857 0.62172 0.85073 0.0
C340 C 0.40864 0.70837 0.88523 0.0
C341 C 0.39276 0.63365 0.00405 0.0
C342 C 0.29778 0.70422 0.86736 0.0
C343 C 0.2942 0.63552 0.98267 0.0
O344 O 0.3446 0.73659 0.9643 0.0
O345 O 0.52456 0.05294 0.76758 0.0
Zn346 Zn 0.5594 0.0636 0.74124 0.0
O347 O 0.55406 0.07649 0.68572 0.0
Zn348 Zn 0.56512 0.11403 0.68343 0.0
Zn349 Zn 0.51609 0.07233 0.66904 0.0
Zn350 Zn 0.57722 0.05549 0.64949 0.0
O351 O 0.59016 0.12028 0.63589 0.0
O352 O 0.59511 0.07927 0.60787 0.0
O353 O 0.57663 0.09159 0.77751 0.0
O354 O 0.58286 0.12715 0.73628 0.0
O355 O 0.53316 0.13681 0.67066 0.0
O356 O 0.50087 0.10844 0.64898 0.0
O357 O 0.51222 0.04231 0.62569 0.0
O358 O 0.58509 0.03311 0.74205 0.0
O359 O 0.55518 0.02923 0.61816 0.0
O360 O 0.60502 0.03331 0.6801 0.0
C361 C 0.49995 0.05451 0.75586 0.0
C362 C 0.59904 0.1048 0.6073 0.0
C363 C 0.50988 0.13249 0.65481 0.0
C364 C 0.58546 0.11555 0.77148 0.0
C365 C 0.5301 0.0264 0.6102 0.0
C366 C 0.60345 0.02476 0.71735 0.0
O367 O 0.49366 0.06237 0.71933 0.0
H368 H 0.43186 0.25216 0.08731 0.0
H369 H 0.44849 0.17396 0.14415 0.0
H370 H 0.49555 0.18836 0.15866 0.0
H371 H 0.4906 0.25581 0.03326 0.0
H372 H 0.4962 0.2919 0.0383 0.0
H373 H 0.46229 0.27851 0.04139 0.0
H374 H 0.45569 0.30097 0.11361 0.0
H375 H 0.48959 0.31477 0.11056 0.0
H376 H 0.47977 0.29424 0.15457 0.0
H377 H 0.54217 0.20741 0.15537 0.0
H378 H 0.58496 0.23025 0.13568 0.0
H379 H 0.53864 0.29609 0.08013 0.0
C380 C 0.4451 0.23864 0.10454 0.0
C381 C 0.43654 0.21215 0.11524 0.0
C382 C 0.45468 0.19446 0.13613 0.0
C383 C 0.4814 0.20248 0.14459 0.0
C384 C 0.48969 0.22828 0.13196 0.0
C385 C 0.47203 0.24624 0.11271 0.0
C386 C 0.487 0.27121 0.09716 0.0
C387 C 0.48383 0.27452 0.04973 0.0
C388 C 0.47744 0.29682 0.12038 0.0
C389 C 0.5159 0.26384 0.10888 0.0
C390 C 0.51696 0.23924 0.1296 0.0
C391 C 0.5416 0.227 0.14003 0.0
C392 C 0.56581 0.24006 0.12852 0.0
C393 C 0.56521 0.26505 0.10659 0.0
C394 C 0.53985 0.27726 0.09753 0.0
H395 H 0.52581 0.68445 0.34896 0.0
H396 H 0.45326 0.63433 0.34305 0.0
H397 H 0.42489 0.67561 0.35179 0.0
H398 H 0.49974 0.73602 0.42342 0.0
H399 H 0.51721 0.76306 0.39654 0.0
H400 H 0.53141 0.72926 0.3971 0.0
H401 H 0.53302 0.72944 0.31645 0.0
H402 H 0.51867 0.76304 0.31557 0.0
H403 H 0.50226 0.73585 0.28761 0.0
H404 H 0.4049 0.72288 0.35153 0.0
H405 H 0.3947 0.77163 0.34271 0.0
H406 H 0.48097 0.79008 0.34764 0.0
C407 C 0.50396 0.68194 0.35039 0.0
C408 C 0.4917 0.65617 0.34529 0.0
C409 C 0.46306 0.65387 0.34718 0.0
C410 C 0.44683 0.67719 0.35216 0.0
C411 C 0.45967 0.70242 0.35565 0.0
C412 C 0.48763 0.70483 0.3552 0.0
C413 C 0.49661 0.73423 0.35537 0.0
C414 C 0.51216 0.74104 0.39551 0.0
C415 C 0.51362 0.74102 0.31644 0.0
C416 C 0.4693 0.74818 0.35436 0.0
C417 C 0.44822 0.72955 0.35519 0.0
C418 C 0.42122 0.73764 0.35155 0.0
C419 C 0.41568 0.7654 0.34638 0.0
C420 C 0.43707 0.78473 0.3445 0.0
C421 C 0.46415 0.77591 0.34936 0.0
H422 H 0.01791 0.79319 0.61095 0.0
H423 H 0.06458 0.72127 0.64344 0.0
H424 H 0.02213 0.69579 0.65418 0.0
H425 H 0.95742 0.77854 0.6818 0.0
H426 H 0.93421 0.79146 0.64319 0.0
H427 H 0.96778 0.80586 0.64786 0.0
H428 H 0.97652 0.79612 0.56971 0.0
H429 H 0.94324 0.78154 0.56486 0.0
H430 H 0.97271 0.76189 0.55038 0.0
H431 H 0.97663 0.67584 0.64646 0.0
H432 H 0.93059 0.66321 0.62327 0.0
H433 H 0.91289 0.74802 0.59746 0.0
C434 C 0.0192 0.77236 0.62174 0.0
C435 C 0.04451 0.7592 0.62626 0.0
C436 C 0.04539 0.73177 0.6397 0.0
C437 C 0.02138 0.71716 0.6462 0.0
C438 C -0.00326 0.7304 0.6397 0.0
C439 C -0.00457 0.7575 0.62832 0.0
C440 C 0.96667 0.76592 0.61785 0.0
C441 C 0.95589 0.78667 0.64958 0.0
C442 C 0.96469 0.77699 0.57306 0.0
C443 C 0.95239 0.73886 0.62232 0.0
C444 C 0.96998 0.71876 0.63582 0.0
C445 C 0.96242 0.69148 0.6371 0.0
C446 C 0.93635 0.68448 0.62353 0.0
C447 C 0.91828 0.70472 0.60891 0.0
C448 C 0.92615 0.73228 0.60945 0.0
H449 H 0.9527 0.30055 0.87868 0.0
H450 H 0.0286 0.34545 0.87554 0.0
H451 H 0.0536 0.30324 0.89122 0.0
H452 H 0.97501 0.24641 0.95865 0.0
H453 H 0.95626 0.2208 0.93063 0.0
H454 H 0.94388 0.25532 0.93243 0.0
H455 H 0.94246 0.2563 0.85186 0.0
H456 H 0.95514 0.22216 0.8497 0.0
H457 H 0.973 0.24897 0.82287 0.0
H458 H 0.07064 0.25613 0.88783 0.0
H459 H 0.07829 0.2081 0.86932 0.0
H460 H -0.00852 0.19324 0.87504 0.0
C461 C 0.97449 0.30174 0.883 0.0
C462 C 0.98872 0.32623 0.87573 0.0
C463 C 0.01724 0.32693 0.88119 0.0
C464 C 0.03162 0.30304 0.89023 0.0
C465 C 0.0171 0.27882 0.89443 0.0
C466 C 0.98906 0.27809 0.89182 0.0
C467 C 0.97853 0.24916 0.89071 0.0
C468 C 0.96248 0.24254 0.93049 0.0
C469 C 0.96131 0.24387 0.85146 0.0
C470 C 0.0051 0.23376 0.88946 0.0
C471 C 0.0271 0.25117 0.89281 0.0
C472 C 0.05364 0.24218 0.88654 0.0
C473 C 0.05776 0.21492 0.87567 0.0
C474 C 0.03543 0.19701 0.87098 0.0
C475 C 0.00892 0.20637 0.87938 0.0
H476 H 0.53664 0.80175 0.91389 0.0
H477 H 0.58194 0.73804 0.85123 0.0
H478 H 0.53888 0.71714 0.82829 0.0
H479 H 0.48867 0.75973 0.95585 0.0
H480 H 0.46036 0.78281 0.95123 0.0
H481 H 0.49432 0.79597 0.9551 0.0
H482 H 0.48754 0.82254 0.88622 0.0
H483 H 0.45346 0.80931 0.88208 0.0
H484 H 0.47722 0.80457 0.83996 0.0
H485 H 0.49233 0.69956 0.82124 0.0
H486 H 0.44543 0.68441 0.83473 0.0
H487 H 0.42935 0.75882 0.90279 0.0
C488 C 0.53746 0.78389 0.8942 0.0
C489 C 0.56256 0.77164 0.88386 0.0
C490 C 0.56289 0.74777 0.8593 0.0
C491 C 0.53856 0.73592 0.84584 0.0
C492 C 0.5141 0.74816 0.8573 0.0
C493 C 0.51332 0.77159 0.88104 0.0
C494 C 0.48448 0.77842 0.89412 0.0
C495 C 0.48182 0.77926 0.94189 0.0
C496 C 0.47512 0.80531 0.8744 0.0
C497 C 0.46933 0.75444 0.87572 0.0
C498 C 0.48678 0.73765 0.8537 0.0
C499 C 0.47834 0.7128 0.83756 0.0
C500 C 0.45171 0.70435 0.84543 0.0
C501 C 0.43383 0.72067 0.86929 0.0
C502 C 0.44243 0.74644 0.88337 0.0
H503 H 0.48468 0.2905 0.6447 0.0
H504 H 0.3981 0.27348 0.64767 0.0
H505 H 0.4076 0.22455 0.63863 0.0
H506 H 0.50376 0.23679 0.5692 0.0
H507 H 0.53492 0.22946 0.59644 0.0
H508 H 0.52109 0.26341 0.59719 0.0
H509 H 0.52129 0.26282 0.67791 0.0
H510 H 0.53509 0.22898 0.6774 0.0
H511 H 0.50394 0.23581 0.70506 0.0
H512 H 0.4268 0.17701 0.63645 0.0
H513 H 0.45438 0.13512 0.64427 0.0
H514 H 0.52782 0.18404 0.64301 0.0
C515 C 0.46767 0.27659 0.64252 0.0
C516 C 0.44069 0.28581 0.64675 0.0
C517 C 0.419 0.26686 0.64451 0.0
C518 C 0.42415 0.23904 0.63912 0.0
C519 C 0.45106 0.23056 0.63583 0.0
C520 C 0.47244 0.24882 0.63738 0.0
C521 C 0.49953 0.23442 0.63709 0.0
C522 C 0.51578 0.24144 0.59762 0.0
C523 C 0.5159 0.24089 0.67672 0.0
C524 C 0.49005 0.20521 0.63651 0.0
C525 C 0.46207 0.20328 0.63507 0.0
C526 C 0.44876 0.17823 0.63697 0.0
C527 C 0.46453 0.15457 0.64135 0.0
C528 C 0.49317 0.15639 0.64433 0.0
C529 C 0.50594 0.18199 0.64083 0.0
H530 H 0.91707 0.25175 0.40844 0.0
H531 H 0.93088 0.16827 0.37012 0.0
H532 H 0.976 0.1812 0.34264 0.0
H533 H 0.95681 0.28603 0.32312 0.0
H534 H 0.96981 0.31117 0.35875 0.0
H535 H 0.93646 0.29687 0.36676 0.0
H536 H 0.95012 0.28236 0.44147 0.0
H537 H 0.9833 0.29666 0.43376 0.0
H538 H 0.97989 0.26149 0.44879 0.0
H539 H 0.02091 0.2014 0.32805 0.0
H540 H 0.06436 0.22556 0.33492 0.0
H541 H 0.02202 0.29566 0.38579 0.0
C542 C 0.92929 0.23638 0.39314 0.0
C543 C 0.92057 0.20912 0.39092 0.0
C544 C 0.93732 0.1893 0.37196 0.0
C545 C 0.96277 0.19653 0.35586 0.0
C546 C 0.97101 0.22358 0.35915 0.0
C547 C 0.95483 0.24317 0.37759 0.0
C548 C 0.96997 0.26966 0.38334 0.0
C549 C 0.95752 0.29227 0.35637 0.0
C550 C 0.97088 0.278 0.42956 0.0
C551 C -0.00234 0.26146 0.36735 0.0
C552 C -0.00245 0.23512 0.3522 0.0
C553 C 0.02121 0.22217 0.3392 0.0
C554 C 0.04581 0.23608 0.34338 0.0
C555 C 0.04657 0.26246 0.36122 0.0
C556 C 0.02205 0.27564 0.37174 0.0
H557 H 0.06036 0.71958 0.1637 0.0
H558 H 0.0027 0.68092 0.08062 0.0
H559 H 0.98384 0.72573 0.06234 0.0
H560 H 0.01604 0.76314 0.20672 0.0
H561 H 0.03852 0.79189 0.21198 0.0
H562 H 0.05226 0.75807 0.21058 0.0
H563 H 0.08305 0.77139 0.14836 0.0
H564 H 0.06941 0.80544 0.14968 0.0
H565 H 0.06806 0.78591 0.10226 0.0
H566 H 0.96497 0.77172 0.06454 0.0
H567 H 0.94742 0.81637 0.08699 0.0
H568 H 0.01721 0.8267 0.16759 0.0
C569 C 0.04453 0.72074 0.14039 0.0
C570 C 0.03308 0.6969 0.12332 0.0
C571 C 0.01176 0.699 0.09398 0.0
C572 C 0.00107 0.72438 0.08315 0.0
C573 C 0.01199 0.74748 0.10178 0.0
C574 C 0.03341 0.746 0.12956 0.0
C575 C 0.03862 0.77334 0.14983 0.0
C576 C 0.03619 0.77148 0.19758 0.0
C577 C 0.06644 0.78469 0.13673 0.0
C578 C 0.01569 0.78989 0.13116 0.0
C579 C 0.00099 0.77471 0.10278 0.0
C580 C 0.97676 0.78416 0.08565 0.0
C581 C 0.96688 0.80944 0.09869 0.0
C582 C 0.98127 0.82498 0.12838 0.0
C583 C 0.00639 0.81551 0.14376 0.0
H584 H 0.15043 0.0961 0.91465 0.0
H585 H 0.16381 0.13291 0.79363 0.0
H586 H 0.21203 0.14047 0.81135 0.0
H587 H 0.18891 0.14329 0.96964 0.0
H588 H 0.20232 0.11799 0.00705 0.0
H589 H 0.1701 0.11297 0.98267 0.0
H590 H 0.18767 0.06613 0.95715 0.0
H591 H 0.22003 0.07254 0.9815 0.0
H592 H 0.21849 0.06438 0.92686 0.0
H593 H 0.25711 0.14727 0.84346 0.0
H594 H 0.29568 0.15651 0.88985 0.0
H595 H 0.25272 0.11733 0.99182 0.0
C596 C 0.16373 0.10516 0.89162 0.0
C597 C 0.15366 0.11371 0.85268 0.0
C598 C 0.1713 0.12622 0.82362 0.0
C599 C 0.19869 0.13038 0.83327 0.0
C600 C 0.20797 0.1221 0.87218 0.0
C601 C 0.19103 0.10993 0.90105 0.0
C602 C 0.20536 0.10583 0.94226 0.0
C603 C 0.19081 0.12133 0.97746 0.0
C604 C 0.20805 0.07541 0.95253 0.0
C605 C 0.23274 0.1183 0.93232 0.0
C606 C 0.23394 0.12699 0.89145 0.0
C607 C 0.25656 0.14035 0.87542 0.0
C608 C 0.27835 0.14554 0.90212 0.0
C609 C 0.27721 0.13771 0.94456 0.0
C610 C 0.25429 0.12341 0.95951 0.0
H611 H 0.62037 0.41013 0.09764 0.0
H612 H 0.66799 0.36593 0.18868 0.0
H613 H 0.66702 0.40607 0.23551 0.0
H614 H 0.65405 0.47553 0.11509 0.0
H615 H 0.62325 0.49455 0.10644 0.0
H616 H 0.62847 0.46258 0.0802 0.0
H617 H 0.58304 0.4442 0.11032 0.0
H618 H 0.57753 0.4762 0.13596 0.0
H619 H 0.57746 0.44513 0.16577 0.0
H620 H 0.65672 0.44976 0.27425 0.0
H621 H 0.63832 0.49317 0.30129 0.0
H622 H 0.60181 0.50917 0.18072 0.0
C623 C 0.63044 0.40894 0.12756 0.0
C624 C 0.64382 0.38512 0.14024 0.0
C625 C 0.65743 0.3842 0.17896 0.0
C626 C 0.65713 0.40684 0.20546 0.0
C627 C 0.64385 0.43025 0.1919 0.0
C628 C 0.63104 0.43148 0.15364 0.0
C629 C 0.61803 0.45878 0.14625 0.0
C630 C 0.63178 0.47374 0.10984 0.0
C631 C 0.5872 0.45589 0.1392 0.0
C632 C 0.62431 0.47232 0.18719 0.0
C633 C 0.6394 0.45576 0.21311 0.0
C634 C 0.64537 0.46316 0.25398 0.0
C635 C 0.63487 0.48783 0.26903 0.0
C636 C 0.61869 0.50456 0.24308 0.0
C637 C 0.61432 0.49703 0.2013 0.0
H638 H 0.31446 0.84729 0.37753 0.0
H639 H 0.35121 0.91089 0.45243 0.0
H640 H 0.31396 0.90637 0.5039 0.0
H641 H 0.24585 0.86757 0.39382 0.0
H642 H 0.23324 0.83315 0.3949 0.0
H643 H 0.26315 0.84124 0.36509 0.0
H644 H 0.29026 0.80428 0.40513 0.0
H645 H 0.26042 0.7961 0.43511 0.0
H646 H 0.29148 0.8054 0.46118 0.0
H647 H 0.27259 0.89371 0.54767 0.0
H648 H 0.22951 0.87596 0.57738 0.0
H649 H 0.22092 0.82223 0.47099 0.0
C650 C 0.31482 0.86023 0.40481 0.0
C651 C 0.33571 0.87931 0.4112 0.0
C652 C 0.33527 0.89612 0.44702 0.0
C653 C 0.31431 0.89364 0.47642 0.0
C654 C 0.29403 0.87445 0.46913 0.0
C655 C 0.2941 0.85822 0.43401 0.0
C656 C 0.2698 0.83964 0.43251 0.0
C657 C 0.25196 0.84579 0.39433 0.0
C658 C 0.27852 0.80958 0.43357 0.0
C659 C 0.25595 0.8479 0.47234 0.0
C660 C 0.27019 0.86782 0.49338 0.0
C661 C 0.2612 0.8782 0.53137 0.0
C662 C 0.23683 0.868 0.54801 0.0
C663 C 0.22187 0.84795 0.52623 0.0
C664 C 0.23173 0.83782 0.48812 0.0
H665 H 0.87888 0.57167 0.57513 0.0
H666 H 0.7976 0.57732 0.62745 0.0
H667 H 0.80391 0.53312 0.66171 0.0
H668 H 0.87943 0.49421 0.56397 0.0
H669 H 0.91484 0.49297 0.57815 0.0
H670 H 0.90176 0.52179 0.5498 0.0
H671 H 0.92025 0.55397 0.60698 0.0
H672 H 0.93298 0.5254 0.63578 0.0
H673 H 0.90983 0.54892 0.66026 0.0
H674 H 0.82217 0.49542 0.70258 0.0
H675 H 0.85023 0.46323 0.74278 0.0
H676 H 0.91901 0.48004 0.66225 0.0
C677 C 0.86208 0.56316 0.59264 0.0
C678 C 0.83787 0.57796 0.59888 0.0
C679 C 0.81641 0.56636 0.62234 0.0
C680 C 0.81971 0.54117 0.64174 0.0
C681 C 0.84434 0.5277 0.63666 0.0
C682 C 0.865 0.53796 0.61202 0.0
C683 C 0.89058 0.52106 0.61573 0.0
C684 C 0.89702 0.50664 0.57445 0.0
C685 C 0.91481 0.53838 0.63059 0.0
C686 C 0.88164 0.50099 0.64861 0.0
C687 C 0.85475 0.50492 0.65974 0.0
C688 C 0.84294 0.49145 0.69329 0.0
C689 C 0.85907 0.47352 0.71619 0.0
C690 C 0.88656 0.46923 0.70516 0.0
C691 C 0.89781 0.48265 0.67051 0.0
H692 H 0.73784 0.83293 0.05891 0.0
H693 H 0.73799 0.88758 0.95113 0.0
H694 H 0.77977 0.90998 0.97705 0.0
H695 H 0.76431 0.88113 0.13444 0.0
H696 H 0.78483 0.85575 0.15996 0.0
H697 H 0.75362 0.84605 0.13477 0.0
H698 H 0.77994 0.8107 0.09034 0.0
H699 H 0.81122 0.82039 0.11519 0.0
H700 H 0.80844 0.82171 0.0593 0.0
H701 H 0.82187 0.92461 0.01516 0.0
H702 H 0.86279 0.93053 0.05942 0.0
H703 H 0.83583 0.86396 0.1379 0.0
C704 C 0.74641 0.8496 0.04117 0.0
C705 C 0.73471 0.85809 0.00343 0.0
C706 C 0.74678 0.88095 0.98032 0.0
C707 C 0.77036 0.89231 -0.00517 0.0
C708 C 0.78162 0.88322 0.03207 0.0
C709 C 0.77014 0.86219 0.05468 0.0
C710 C 0.78719 0.85472 0.09191 0.0
C711 C 0.77155 0.85972 0.13267 0.0
C712 C 0.7973 0.82513 0.08897 0.0
C713 C 0.81017 0.8747 0.08663 0.0
C714 C 0.80647 0.89132 0.05242 0.0
C715 C 0.82506 0.91164 0.04193 0.0
C716 C 0.84813 0.91487 0.0671 0.0
C717 C 0.85244 0.89743 0.10148 0.0
C718 C 0.83318 0.87725 0.1113 0.0
H719 H 0.40114 0.58726 0.84271 0.0
H720 H 0.32475 0.61032 0.78531 0.0
H721 H 0.33041 0.57348 0.73354 0.0
H722 H 0.43701 0.56409 0.74722 0.0
H723 H 0.45261 0.53617 0.77465 0.0
H724 H 0.44504 0.56739 0.80171 0.0
H725 H 0.41707 0.54035 0.85628 0.0
H726 H 0.42437 0.50917 0.82937 0.0
H727 H 0.3896 0.51887 0.83904 0.0
H728 H 0.34248 0.53164 0.69252 0.0
H729 H 0.35795 0.4861 0.66945 0.0
H730 H 0.42443 0.48967 0.75777 0.0
C731 C 0.38599 0.58509 0.81851 0.0
C732 C 0.36269 0.60168 0.81754 0.0
C733 C 0.34283 0.59776 0.78629 0.0
C734 C 0.34597 0.57707 0.75667 0.0
C735 C 0.36897 0.56061 0.75909 0.0
C736 C 0.38857 0.56436 0.78937 0.0
C737 C 0.40949 0.54194 0.78899 0.0
C738 C 0.4377 0.55307 0.77744 0.0
C739 C 0.41014 0.52669 0.83089 0.0
C740 C 0.3981 0.52442 0.75473 0.0
C741 C 0.37517 0.53583 0.73701 0.0
C742 C 0.36056 0.52264 0.70584 0.0
C743 C 0.36943 0.49687 0.693 0.0
C744 C 0.39219 0.48458 0.7122 0.0
C745 C 0.40687 0.4987 0.74285 0.0
H746 H 0.63022 0.14997 0.61157 0.0
H747 H 0.60526 0.08514 0.52855 0.0
H748 H 0.63785 0.10143 0.47574 0.0
H749 H 0.64992 0.20218 0.52794 0.0
H750 H 0.67875 0.21269 0.55853 0.0
H751 H 0.64795 0.20168 0.58396 0.0
H752 H 0.67557 0.16591 0.62548 0.0
H753 H 0.70623 0.17649 0.60001 0.0
H754 H 0.69586 0.14135 0.59764 0.0
H755 H 0.67811 0.11829 0.43887 0.0
H756 H 0.72492 0.13249 0.42235 0.0
H757 H 0.72558 0.18442 0.53152 0.0
C758 C 0.63087 0.13997 0.58156 0.0
C759 C 0.6153 0.11654 0.57373 0.0
C760 C 0.61714 0.10322 0.53485 0.0
C761 C 0.63532 0.11251 0.50458 0.0
C762 C 0.65138 0.13502 0.51392 0.0
C763 C 0.64929 0.14864 0.5515 0.0
C764 C 0.67224 0.16867 0.55738 0.0
C765 C 0.66157 0.19805 0.5569 0.0
C766 C 0.68842 0.16271 0.59746 0.0
C767 C 0.68869 0.1626 0.51885 0.0
C768 C 0.67576 0.14402 0.49333 0.0
C769 C 0.68819 0.13331 0.45802 0.0
C770 C 0.71479 0.14135 0.44906 0.0
C771 C 0.72872 0.15934 0.47598 0.0
C772 C 0.71527 0.1706 0.51057 0.0
H773 H 0.09016 0.40262 0.36692 0.0
H774 H 0.15111 0.37452 0.27893 0.0
H775 H 0.14407 0.41571 0.23665 0.0
H776 H 0.04486 0.43366 0.29202 0.0
H777 H 0.03666 0.46222 0.32489 0.0
H778 H 0.04564 0.43001 0.34784 0.0
H779 H 0.08393 0.45345 0.38993 0.0
H780 H 0.07511 0.48573 0.36706 0.0
H781 H 0.10939 0.47305 0.36288 0.0
H782 H 0.13058 0.45874 0.20383 0.0
H783 H 0.1128 0.50328 0.18276 0.0
H784 H 0.06174 0.50553 0.2932 0.0
C785 C 0.10184 0.40509 0.33858 0.0
C786 C 0.12109 0.38539 0.32601 0.0
C787 C 0.13631 0.38943 0.28912 0.0
C788 C 0.13241 0.41269 0.26486 0.0
C789 C 0.11343 0.43178 0.2782 0.0
C790 C 0.09849 0.42844 0.31424 0.0
C791 C 0.0801 0.45267 0.32201 0.0
C792 C 0.05003 0.44412 0.32166 0.0
C793 C 0.08759 0.46708 0.3629 0.0
C794 C 0.08704 0.47007 0.28456 0.0
C795 C 0.10617 0.4574 0.25967 0.0
C796 C 0.11565 0.46896 0.22301 0.0
C797 C 0.10532 0.49424 0.21131 0.0
C798 C 0.08585 0.50787 0.23636 0.0
C799 C 0.0767 0.49565 0.27361 0.0
H800 H 0.62768 0.64603 0.38722 0.0
H801 H 0.60872 0.57417 0.45988 0.0
H802 H 0.64204 0.58853 0.51314 0.0
H803 H 0.69447 0.63977 0.39585 0.0
H804 H 0.70274 0.67547 0.39804 0.0
H805 H 0.67215 0.66463 0.37273 0.0
H806 H 0.64358 0.69604 0.4206 0.0
H807 H 0.67427 0.70727 0.44597 0.0
H808 H 0.6468 0.69322 0.47631 0.0
H809 H 0.68158 0.60626 0.55152 0.0
H810 H 0.72753 0.62271 0.56848 0.0
H811 H 0.72327 0.68049 0.46665 0.0
C812 C 0.62977 0.63393 0.41521 0.0
C813 C 0.61557 0.60929 0.42009 0.0
C814 C 0.61945 0.59325 0.45605 0.0
C815 C 0.63804 0.60141 0.48652 0.0
C816 C 0.65253 0.62544 0.48008 0.0
C817 C 0.64869 0.6414 0.44513 0.0
C818 C 0.6703 0.66306 0.44104 0.0
C819 C 0.68582 0.66054 0.39949 0.0
C820 C 0.65799 0.69159 0.44631 0.0
C821 C 0.68795 0.65566 0.47762 0.0
C822 C 0.67673 0.63472 0.50079 0.0
C823 C 0.69034 0.62297 0.53416 0.0
C824 C 0.71642 0.63237 0.54342 0.0
C825 C 0.72874 0.65272 0.51856 0.0
C826 C 0.71412 0.66493 0.486 0.0
H827 H 0.0492 -0.00135 0.72339 0.0
H828 H 0.10539 4e-05 0.82757 0.0
H829 H 0.12207 0.95461 0.808 0.0
H830 H 0.03407 0.92473 0.72924 0.0
H831 H 0.03228 0.9216 0.67342 0.0
H832 H 0.02276 0.9531 0.69818 0.0
H833 H 0.05744 0.979 0.65205 0.0
H834 H 0.06719 0.94763 0.6274 0.0
H835 H 0.09257 0.96855 0.65208 0.0
H836 H 0.13696 0.91227 0.77196 0.0
H837 H 0.14621 0.87365 0.72463 0.0
H838 H 0.07882 0.89874 0.64649 0.0
C839 C 0.06466 0.9892 0.74251 0.0
C840 C 0.07602 0.00291 0.77689 0.0
C841 C 0.09629 0.98989 0.80112 0.0
C842 C 0.10592 0.96408 0.79031 0.0
C843 C 0.09476 0.9514 0.75564 0.0
C844 C 0.07428 0.9633 0.73248 0.0
C845 C 0.06665 0.94586 0.69558 0.0
C846 C 0.03719 0.93572 0.69935 0.0
C847 C 0.07125 0.96118 0.65436 0.0
C848 C 0.08671 0.92283 0.70084 0.0
C849 C 0.10272 0.92636 0.7357 0.0
C850 C 0.12419 0.90891 0.74504 0.0
C851 C 0.1294 0.88719 0.71795 0.0
C852 C 0.11302 0.88316 0.68234 0.0
C853 C 0.09128 0.90105 0.67403 0.0
H854 H 0.74283 0.32178 0.92729 0.0
H855 H 0.72393 0.39122 0.00219 0.0
H856 H 0.76622 0.41488 0.97833 0.0
H857 H 0.81222 0.32085 0.95058 0.0
H858 H 0.82326 0.30994 0.89975 0.0
H859 H 0.78992 0.30087 0.91824 0.0
H860 H 0.76796 0.32297 0.85316 0.0
H861 H 0.80129 0.33165 0.83404 0.0
H862 H 0.77591 0.35778 0.84032 0.0
H863 H 0.81135 0.42831 0.94908 0.0
H864 H 0.85637 0.43233 0.91525 0.0
H865 H 0.84677 0.35128 0.86356 0.0
C866 C 0.74729 0.34226 0.93768 0.0
C867 C 0.73018 0.35575 0.9661 0.0
C868 C 0.73689 0.3822 0.98017 0.0
C869 C 0.76079 0.39491 0.96685 0.0
C870 C 0.77775 0.38072 0.93985 0.0
C871 C 0.7713 0.35503 0.9253 0.0
C872 C 0.7939 0.34346 0.89881 0.0
C873 C 0.8055 0.31723 0.91802 0.0
C874 C 0.78418 0.3387 0.85392 0.0
C875 C 0.81411 0.36654 0.90113 0.0
C876 C 0.80433 0.38795 0.92457 0.0
C877 C 0.81929 0.41169 0.93063 0.0
C878 C 0.8448 0.41375 0.9115 0.0
C879 C 0.85508 0.39201 0.88726 0.0
C880 C 0.83962 0.36805 0.88252 0.0
H881 H 0.41577 0.98342 0.21581 0.0
H882 H 0.3467 0.97978 0.29946 0.0
H883 H 0.32863 0.02246 0.2687 0.0
H884 H 0.42334 0.05776 0.21923 0.0
H885 H 0.43364 0.05934 0.16543 0.0
H886 H 0.44131 0.02961 0.19604 0.0
H887 H 0.41695 -0.00058 0.14139 0.0
H888 H 0.40891 0.02903 0.1109 0.0
H889 H 0.38211 0.00662 0.12792 0.0
H890 H 0.31602 0.0625 0.22236 0.0
H891 H 0.31285 0.09993 0.17073 0.0
H892 H 0.39215 0.07781 0.12221 0.0
C893 C 0.39702 0.99185 0.22796 0.0
C894 C 0.38241 0.97856 0.25957 0.0
C895 C 0.3581 0.99002 0.27521 0.0
C896 C 0.34771 0.01407 0.25788 0.0
C897 C 0.36235 0.02643 0.22586 0.0
C898 C 0.3868 0.01598 0.21179 0.0
C899 C 0.39867 0.03282 0.17707 0.0
C900 C 0.42584 0.04565 0.19025 0.0
C901 C 0.40182 0.01596 0.13696 0.0
C902 C 0.37671 0.05397 0.17281 0.0
C903 C 0.35581 0.04999 0.20094 0.0
C904 C 0.33249 0.06614 0.20072 0.0
C905 C 0.33077 0.08714 0.17122 0.0
C906 C 0.3524 0.09177 0.14304 0.0
C907 C 0.37554 0.07497 0.14398 0.0
H908 H 0.23446 0.30373 0.51104 0.0
H909 H 0.23626 0.36226 0.40976 0.0
H910 H 0.27776 0.38279 0.43942 0.0
H911 H 0.25296 0.34824 0.58967 0.0
H912 H 0.27367 0.32417 0.61767 0.0
H913 H 0.24585 0.31233 0.58627 0.0
H914 H 0.27855 0.28108 0.54468 0.0
H915 H 0.30647 0.29253 0.57637 0.0
H916 H 0.30834 0.29551 0.52053 0.0
H917 H 0.31628 0.39942 0.48388 0.0
H918 H 0.3512 0.40881 0.53714 0.0
H919 H 0.32338 0.33891 0.60822 0.0
C920 C 0.24376 0.3206 0.49468 0.0
C921 C 0.23216 0.33149 0.45826 0.0
C922 C 0.24494 0.35356 0.43771 0.0
C923 C 0.26844 0.36538 0.45432 0.0
C924 C 0.27887 0.35461 0.49106 0.0
C925 C 0.26715 0.33249 0.51063 0.0
C926 C 0.28158 0.32538 0.55055 0.0
C927 C 0.26237 0.32769 0.58825 0.0
C928 C 0.29451 0.29694 0.54785 0.0
C929 C 0.30287 0.3474 0.55095 0.0
C930 C 0.3011 0.36402 0.51638 0.0
C931 C 0.3181 0.38637 0.51087 0.0
C932 C 0.33771 0.39161 0.54137 0.0
C933 C 0.33999 0.37453 0.57673 0.0
C934 C 0.32225 0.35225 0.58145 0.0
H935 H 0.83655 0.09995 0.31973 0.0
H936 H 0.83731 0.06994 0.44648 0.0
H937 H 0.84343 0.02301 0.42062 0.0
H938 H 0.80569 0.0379 0.26842 0.0
H939 H 0.82806 0.04089 0.22418 0.0
H940 H 0.81702 0.07098 0.25151 0.0
H941 H 0.86726 0.08507 0.2627 0.0
H942 H 0.8784 0.05513 0.23556 0.0
H943 H 0.89023 0.06163 0.28769 0.0
H944 H 0.85534 0.98164 0.38323 0.0
H945 H 0.87712 0.94822 0.33751 0.0
H946 H 0.87214 0.00501 0.23411 0.0
C947 C 0.83714 0.08323 0.34169 0.0
C948 C 0.83609 0.08802 0.38482 0.0
C949 C 0.83791 0.06624 0.41325 0.0
C950 C 0.84109 0.03964 0.39884 0.0
C951 C 0.8427 0.03546 0.35603 0.0
C952 C 0.84103 0.05663 0.32778 0.0
C953 C 0.84804 0.04728 0.28418 0.0
C954 C 0.82322 0.04938 0.25537 0.0
C955 C 0.87243 0.06322 0.26654 0.0
C956 C 0.85527 0.0179 0.29278 0.0
C957 C 0.85112 0.01139 0.33418 0.0
C958 C 0.85833 0.98629 0.35062 0.0
C959 C 0.8709 0.96754 0.32439 0.0
C960 C 0.87651 0.97416 0.2823 0.0
C961 C 0.86785 -0.00065 0.26602 0.0
H962 H 0.16569 0.63533 0.13064 0.0
H963 H 0.13478 0.56661 0.06018 0.0
H964 H 0.17764 0.56467 0.02044 0.0
H965 H 0.1994 0.66793 0.04772 0.0
H966 H 0.22795 0.67891 0.07855 0.0
H967 H 0.19534 0.67389 0.10274 0.0
H968 H 0.21715 0.64035 0.15533 0.0
H969 H 0.24983 0.64513 0.13103 0.0
H970 H 0.2359 0.61139 0.13628 0.0
H971 H 0.22207 0.57407 0.98467 0.0
H972 H 0.26551 0.5911 0.95601 0.0
H973 H 0.2681 0.65142 0.05239 0.0
C974 C 0.16797 0.61984 0.10693 0.0
C975 C 0.14694 0.6012 0.09836 0.0
C976 C 0.15071 0.58108 0.06729 0.0
C977 C 0.17497 0.57975 0.04463 0.0
C978 C 0.19533 0.59843 0.05388 0.0
C979 C 0.19216 0.61798 0.08442 0.0
C980 C 0.21687 0.6361 0.08747 0.0
C981 C 0.20944 0.66596 0.07857 0.0
C982 C 0.23076 0.63304 0.13006 0.0
C983 C 0.23409 0.62413 0.05308 0.0
C984 C 0.22138 0.60236 0.03416 0.0
C985 C 0.23248 0.58931 -0.00039 0.0
C986 C 0.25708 0.60063 0.98354 0.0
C987 C 0.27022 0.62159 0.00229 0.0
C988 C 0.2588 0.63383 0.03796 0.0
H989 H 0.61327 0.01232 0.7974 0.0
H990 H 0.63324 0.9881 0.67124 0.0
H991 H 0.65379 0.94565 0.69829 0.0
H992 H 0.67129 0.97681 0.8529 0.0
H993 H 0.6488 0.96784 0.89505 0.0
H994 H 0.64383 -0.00074 0.86711 0.0
H995 H 0.59408 0.98499 0.85212 0.0
H996 H 0.59901 0.95327 0.87866 0.0
H997 H 0.58758 0.9534 0.82538 0.0
H998 H 0.66424 0.90268 0.73811 0.0
H999 H 0.66392 0.86351 0.78691 0.0
H1000 H 0.63182 0.91541 0.88417 0.0
C1001 C 0.62283 -0.00144 0.7755 0.0
C1002 C 0.62163 0.00326 0.73235 0.0
C1003 C 0.63421 0.98484 0.70454 0.0
C1004 C 0.64588 0.96073 0.71964 0.0
C1005 C 0.64488 0.95578 0.76239 0.0
C1006 C 0.63393 0.97444 0.78993 0.0
C1007 C 0.63093 0.96289 0.83316 0.0
C1008 C 0.64985 0.97757 0.86386 0.0
C1009 C 0.60114 0.96368 0.84814 0.0
C1010 C 0.64029 0.93424 0.82523 0.0
C1011 C 0.64916 0.93065 0.78471 0.0
C1012 C 0.65768 0.90537 0.77 0.0
C1013 C 0.65719 0.8833 0.79762 0.0
C1014 C 0.64735 0.88673 0.83863 0.0
C1015 C 0.63898 0.91242 0.8526 0.0
H1016 H 0.39681 0.13633 0.88715 0.0
H1017 H 0.43035 0.09333 -0.00513 0.0
H1018 H 0.45251 0.0616 0.94858 0.0
H1019 H 0.3866 0.07463 0.82177 0.0
H1020 H 0.39654 0.09232 0.77502 0.0
H1021 H 0.37995 0.11054 0.81661 0.0
H1022 H 0.42006 0.1448 0.81982 0.0
H1023 H 0.43624 0.12707 0.77772 0.0
H1024 H 0.4542 0.13208 0.82598 0.0
H1025 H 0.47539 0.03674 0.89165 0.0
H1026 H 0.50177 0.02593 0.82854 0.0
H1027 H 0.45236 0.08231 0.75757 0.0
C1028 C 0.40857 0.12009 0.90108 0.0
C1029 C 0.41182 0.1182 0.94462 0.0
C1030 C 0.42759 0.09676 0.96156 0.0
C1031 C 0.43997 0.07756 0.93557 0.0
C1032 C 0.43616 0.0799 0.89279 0.0
C1033 C 0.42099 0.10073 0.87564 0.0
C1034 C 0.4226 0.10056 0.82866 0.0
C1035 C 0.39476 0.09412 0.80939 0.0
C1036 C 0.43397 0.12772 0.8121 0.0
C1037 C 0.44231 0.07733 0.82215 0.0
C1038 C 0.44928 0.06517 0.8595 0.0
C1039 C 0.46969 0.04561 0.86209 0.0
C1040 C 0.48452 0.03954 0.8261 0.0
C1041 C 0.47889 0.05316 0.78826 0.0
C1042 C 0.45653 0.07103 0.78581 0.0
H1043 H 0.59048 0.62932 0.14376 0.0
H1044 H 0.63025 0.66138 0.25379 0.0
H1045 H 0.65675 0.69285 0.2099 0.0
H1046 H 0.64904 0.63697 0.07048 0.0
H1047 H 0.62725 0.6475 0.02839 0.0
H1048 H 0.61474 0.62423 0.06735 0.0
H1049 H 0.57434 0.65662 0.08257 0.0
H1050 H 0.58664 0.67984 0.04366 0.0
H1051 H 0.58109 0.69157 0.09614 0.0
H1052 H 0.67496 0.72376 0.15641 0.0
H1053 H 0.68128 0.75488 0.09725 0.0
H1054 H 0.62896 0.70392 0.02139 0.0
C1055 C 0.60525 0.64254 0.1584 0.0
C1056 C 0.60851 0.64288 0.20202 0.0
C1057 C 0.62747 0.66088 0.22036 0.0
C1058 C 0.64279 0.67862 0.19569 0.0
C1059 C 0.63884 0.6781 0.15281 0.0
C1060 C 0.62045 0.66065 0.13425 0.0
C1061 C 0.61768 0.66653 0.08819 0.0
C1062 C 0.62779 0.64236 0.06206 0.0
C1063 C 0.5882 0.6741 0.07701 0.0
C1064 C 0.63657 0.69069 0.08416 0.0
C1065 C 0.64903 0.69657 0.12164 0.0
C1066 C 0.66568 0.71918 0.12672 0.0
C1067 C 0.66905 0.73678 0.09295 0.0
C1068 C 0.65561 0.73179 0.05473 0.0
C1069 C 0.63984 0.708 0.04999 0.0
H1070 H 0.03733 0.88533 0.27964 0.0
H1071 H 0.98826 0.94494 0.34474 0.0
H1072 H 0.01722 0.94011 0.40671 0.0
H1073 H 0.04095 0.84137 0.35669 0.0
H1074 H 0.07542 0.82982 0.34959 0.0
H1075 H 0.05693 0.84347 0.30624 0.0
H1076 H 0.09446 0.87945 0.29362 0.0
H1077 H 0.11355 0.86552 0.33651 0.0
H1078 H 0.10509 0.9012 0.33574 0.0
H1079 H 0.04254 0.92098 0.46509 0.0
H1080 H 0.06601 0.8914 0.51547 0.0
H1081 H 0.09954 0.84395 0.41379 0.0
C1082 C 0.03371 0.89838 0.30622 0.0
C1083 C 0.01088 0.91567 0.30756 0.0
C1084 C 0.00586 0.93171 0.34327 0.0
C1085 C 0.02224 0.92918 0.37851 0.0
C1086 C 0.04359 0.91062 0.37734 0.0
C1087 C 0.04976 0.89582 0.3419 0.0
C1088 C 0.07095 0.87424 0.35091 0.0
C1089 C 0.06041 0.84555 0.34024 0.0
C1090 C 0.0976 0.88049 0.32783 0.0
C1091 C 0.0742 0.878 0.39738 0.0
C1092 C 0.05863 0.89943 0.41181 0.0
C1093 C 0.05551 0.90471 0.45413 0.0
C1094 C 0.06863 0.88762 0.4825 0.0
C1095 C 0.08465 0.86557 0.46835 0.0
C1096 C 0.08785 0.86104 0.42528 0.0
H1097 H 0.85894 0.28556 0.51327 0.0
H1098 H 0.79251 0.25008 0.58382 0.0
H1099 H 0.80559 0.27725 0.64487 0.0
H1100 H 0.90586 0.2823 0.58855 0.0
H1101 H 0.92275 0.31419 0.57864 0.0
H1102 H 0.90516 0.2971 0.53721 0.0
H1103 H 0.87549 0.33971 0.52372 0.0
H1104 H 0.89361 0.35737 0.56427 0.0
H1105 H 0.85707 0.35501 0.56623 0.0
H1106 H 0.8311 0.29985 0.70122 0.0
H1107 H 0.8632 0.32363 0.74748 0.0
H1108 H 0.9126 0.34569 0.64059 0.0
C1109 C 0.84637 0.28451 0.54091 0.0
C1110 C 0.82474 0.26574 0.54388 0.0
C1111 C 0.80917 0.26437 0.58094 0.0
C1112 C 0.81646 0.27968 0.61581 0.0
C1113 C 0.83908 0.29653 0.61283 0.0
C1114 C 0.85339 0.29969 0.57607 0.0
C1115 C 0.87836 0.31724 0.58237 0.0
C1116 C 0.90456 0.30176 0.57102 0.0
C1117 C 0.87598 0.34392 0.55769 0.0
C1118 C 0.87647 0.32227 0.62873 0.0
C1119 C 0.85363 0.31021 0.64562 0.0
C1120 C 0.8487 0.31002 0.68829 0.0
C1121 C 0.86724 0.32323 0.71434 0.0
C1122 C 0.89029 0.33653 0.69752 0.0
C1123 C 0.89497 0.33591 0.65418 0.0
H1124 H 0.60016 0.83272 0.10456 0.0
H1125 H 0.57764 0.89171 0.01021 0.0
H1126 H 0.54467 0.91228 0.05879 0.0
H1127 H 0.53451 0.82046 0.13894 0.0
H1128 H 0.54289 0.81637 0.19318 0.0
H1129 H 0.56792 0.80903 0.15393 0.0
H1130 H 0.60122 0.84307 0.18834 0.0
H1131 H 0.57624 0.85051 0.22784 0.0
H1132 H 0.59056 0.87768 0.19718 0.0
H1133 H 0.51125 0.92327 0.11343 0.0
H1134 H 0.47757 0.92306 0.16999 0.0
H1135 H 0.52032 0.85629 0.2295 0.0
C1136 C 0.58881 0.85045 0.09463 0.0
C1137 C 0.5916 0.86086 0.05384 0.0
C1138 C 0.57584 0.88352 0.04139 0.0
C1139 C 0.5572 0.89542 0.06884 0.0
C1140 C 0.5545 0.88435 0.10853 0.0
C1141 C 0.56979 0.86235 0.1215 0.0
C1142 C 0.56074 0.85258 0.16412 0.0
C1143 C 0.55093 0.82286 0.16241 0.0
C1144 C 0.58355 0.85618 0.19627 0.0
C1145 C 0.53742 0.872 0.17244 0.0
C1146 C 0.53457 0.89043 0.14021 0.0
C1147 C 0.51346 0.90921 0.13913 0.0
C1148 C 0.49436 0.90883 0.17135 0.0
C1149 C 0.49635 0.88968 0.2042 0.0
C1150 C 0.51855 0.87144 0.20519 0.0
H1151 H 0.39801 0.36071 0.84884 0.0
H1152 H 0.32813 0.34403 0.77096 0.0
H1153 H 0.30771 0.31686 0.82729 0.0
H1154 H 0.40614 0.29793 0.88248 0.0
H1155 H 0.41636 0.3051 0.93521 0.0
H1156 H 0.42179 0.33003 0.89528 0.0
H1157 H 0.39445 0.36563 0.93748 0.0
H1158 H 0.3892 0.34081 0.97807 0.0
H1159 H 0.36048 0.35769 0.95472 0.0
H1160 H 0.30061 0.28323 0.88169 0.0
H1161 H 0.30654 0.24606 0.93246 0.0
H1162 H 0.38057 0.28351 0.97721 0.0
C1163 C 0.37779 0.35245 0.84463 0.0
C1164 C 0.36441 0.35462 0.80596 0.0
C1165 C 0.33853 0.34268 0.80059 0.0
C1166 C 0.32673 0.32737 0.8325 0.0
C1167 C 0.34107 0.32427 0.86955 0.0
C1168 C 0.36593 0.33672 0.87608 0.0
C1169 C 0.37927 0.32634 0.91555 0.0
C1170 C 0.40753 0.31412 0.90654 0.0
C1171 C 0.38094 0.34897 0.94841 0.0
C1172 C 0.35905 0.30465 0.92831 0.0
C1173 C 0.33682 0.30436 0.90192 0.0
C1174 C 0.31735 0.28382 0.90349 0.0
C1175 C 0.32094 0.26275 0.93213 0.0
C1176 C 0.34369 0.26251 0.95884 0.0
C1177 C 0.36258 0.28399 0.95783 0.0
H1178 H 0.97781 0.09241 0.67933 0.0
H1179 H 0.93515 0.11878 0.79056 0.0
H1180 H 0.89537 0.13126 0.74744 0.0
H1181 H 0.95723 0.14597 0.61703 0.0
H1182 H 0.95435 0.12624 0.56996 0.0
H1183 H 0.97764 0.11584 0.61001 0.0
H1184 H 0.95464 0.06844 0.61331 0.0
H1185 H 0.93135 0.07863 0.57296 0.0
H1186 H 0.9185 0.06615 0.62193 0.0
H1187 H 0.86165 0.14447 0.6906 0.0
H1188 H 0.83791 0.15797 0.62597 0.0
H1189 H 0.90402 0.12409 0.55294 0.0
C1190 C 0.9599 0.10015 0.69497 0.0
C1191 C 0.95958 0.10435 0.73852 0.0
C1192 C 0.93585 0.11515 0.75734 0.0
C1193 C 0.91314 0.12229 0.73307 0.0
C1194 C 0.91449 0.11852 0.69005 0.0
C1195 C 0.9373 0.10761 0.67128 0.0
C1196 C 0.93478 0.10767 0.62434 0.0
C1197 C 0.95733 0.12496 0.60418 0.0
C1198 C 0.93481 0.07849 0.60713 0.0
C1199 C 0.9072 0.12086 0.61943 0.0
C1200 C 0.89558 0.12666 0.6576 0.0
C1201 C 0.8705 0.13977 0.6606 0.0
C1202 C 0.85714 0.14736 0.62368 0.0
C1203 C 0.86906 0.14211 0.58429 0.0
C1204 C 0.89428 0.12839 0.58245 0.0
H1205 H 0.10693 0.7056 0.49158 0.0
H1206 H 0.1776 0.74624 0.44018 0.0
H1207 H 0.17664 0.71551 0.37958 0.0
H1208 H 0.12196 0.63526 0.44887 0.0
H1209 H 0.08657 0.62921 0.43772 0.0
H1210 H 0.09605 0.65031 0.48125 0.0
H1211 H 0.06632 0.68935 0.45199 0.0
H1212 H 0.05696 0.66853 0.40831 0.0
H1213 H 0.07226 0.70139 0.39975 0.0
H1214 H 0.16425 0.68636 0.32064 0.0
H1215 H 0.14124 0.65997 0.26603 0.0
H1216 H 0.07767 0.63788 0.35354 0.0
C1217 C 0.12278 0.70719 0.46829 0.0
C1218 C 0.14261 0.7279 0.47064 0.0
C1219 C 0.16243 0.73028 0.43894 0.0
C1220 C 0.1621 0.71287 0.40455 0.0
C1221 C 0.14173 0.69326 0.40225 0.0
C1222 C 0.12246 0.69017 0.43328 0.0
C1223 C 0.10079 0.66985 0.42046 0.0
C1224 C 0.10139 0.64466 0.44876 0.0
C1225 C 0.07242 0.68308 0.42009 0.0
C1226 C 0.11031 0.66296 0.37679 0.0
C1227 C 0.13422 0.67639 0.36734 0.0
C1228 C 0.14583 0.6753 0.32787 0.0
C1229 C 0.13249 0.6604 0.29698 0.0
C1230 C 0.10775 0.64679 0.30562 0.0
C1231 C 0.09683 0.64765 0.34632 0.0
H1232 H 0.9075 0.62369 0.44602 0.0
H1233 H 0.83966 0.64984 0.36951 0.0
H1234 H 0.86522 0.63634 0.30637 0.0
H1235 H 0.95856 0.64898 0.383 0.0
H1236 H 0.98193 0.62138 0.39213 0.0
H1237 H 0.95702 0.62996 0.43093 0.0
H1238 H 0.93896 0.5804 0.42989 0.0
H1239 H 0.96392 0.57162 0.39105 0.0
H1240 H 0.92838 0.56548 0.3813 0.0
H1241 H 0.90038 0.62448 0.25171 0.0
H1242 H 0.94167 0.61517 0.21033 0.0
H1243 H 0.98575 0.59659 0.32384 0.0
C1244 C 0.89774 0.62625 0.41609 0.0
C1245 C 0.87157 0.63786 0.4127 0.0
C1246 C 0.85965 0.64087 0.37286 0.0
C1247 C 0.87399 0.63323 0.33687 0.0
C1248 C 0.90002 0.62236 0.34142 0.0
C1249 C 0.91165 0.6187 0.38012 0.0
C1250 C 0.9405 0.60833 0.37682 0.0
C1251 C 0.96068 0.62836 0.39689 0.0
C1252 C 0.94308 0.57976 0.39589 0.0
C1253 C 0.94369 0.60752 0.3301 0.0
C1254 C 0.92008 0.61539 0.31014 0.0
C1255 C 0.91883 0.6179 0.267 0.0
C1256 C 0.94243 0.61262 0.24379 0.0
C1257 C 0.96696 0.60504 0.26382 0.0
C1258 C 0.96729 0.60199 0.30748 0.0
H1259 H 0.10601 0.17228 0.6941 0.0
H1260 H 0.06946 0.10355 0.6304 0.0
H1261 H 0.08644 0.12143 0.56318 0.0
H1262 H 0.08967 0.22156 0.61991 0.0
H1263 H 0.12083 0.24042 0.62603 0.0
H1264 H 0.10763 0.22083 0.66877 0.0
H1265 H 0.15335 0.19475 0.67379 0.0
H1266 H 0.16663 0.21416 0.63075 0.0
H1267 H 0.16652 0.17752 0.62853 0.0
H1268 H 0.10454 0.14914 0.50242 0.0
H1269 H 0.12069 0.18464 0.45384 0.0
H1270 H 0.14604 0.23404 0.55886 0.0
C1271 C 0.10168 0.16079 0.66614 0.0
C1272 C 0.08634 0.13652 0.66753 0.0
C1273 C 0.0812 0.12218 0.63011 0.0
C1274 C 0.09085 0.13212 0.59182 0.0
C1275 C 0.10583 0.15621 0.59166 0.0
C1276 C 0.11125 0.17027 0.62794 0.0
C1277 C 0.12652 0.19636 0.61949 0.0
C1278 C 0.11018 0.22125 0.63441 0.0
C1279 C 0.15494 0.19563 0.63932 0.0
C1280 C 0.12824 0.19525 0.57259 0.0
C1281 C 0.11647 0.17185 0.557 0.0
C1282 C 0.11413 0.16735 0.51432 0.0
C1283 C 0.1234 0.18763 0.48696 0.0
C1284 C 0.13476 0.21212 0.50246 0.0
C1285 C 0.1378 0.21547 0.54586 0.0
H1286 H 0.52464 0.35647 0.75026 0.0
H1287 H 0.48853 0.4284 0.80587 0.0
H1288 H 0.52169 0.42634 0.86295 0.0
H1289 H 0.53343 0.32126 0.84066 0.0
H1290 H 0.56566 0.30589 0.82797 0.0
H1291 H 0.54272 0.31557 0.78706 0.0
H1292 H 0.58014 0.34543 0.7534 0.0
H1293 H 0.60339 0.33556 0.79402 0.0
H1294 H 0.59693 0.37108 0.78414 0.0
H1295 H 0.55242 0.41235 0.91935 0.0
H1296 H 0.5819 0.38887 0.96994 0.0
H1297 H 0.5997 0.32659 0.87817 0.0
C1298 C 0.52441 0.37233 0.77365 0.0
C1299 C 0.50409 0.39263 0.77362 0.0
C1300 C 0.50392 0.41264 0.80533 0.0
C1301 C 0.52274 0.41173 0.83782 0.0
C1302 C 0.54177 0.39081 0.838 0.0
C1303 C 0.54309 0.37166 0.80652 0.0
C1304 C 0.56387 0.34983 0.81647 0.0
C1305 C 0.55061 0.32147 0.81815 0.0
C1306 C 0.58749 0.35053 0.78515 0.0
C1307 C 0.57301 0.35908 0.85921 0.0
C1308 C 0.56016 0.38291 0.87078 0.0
C1309 C 0.56317 0.39406 0.91035 0.0
C1310 C 0.57975 0.38048 0.93894 0.0
C1311 C 0.5932 0.35611 0.92774 0.0
C1312 C 0.59008 0.34552 0.88717 0.0
H1313 H 0.36699 0.77865 0.00806 0.0
H1314 H 0.30285 0.73047 0.06395 0.0
H1315 H 0.29734 0.7648 0.11919 0.0
H1316 H 0.39879 0.79293 0.09809 0.0
H1317 H 0.40929 0.82712 0.08567 0.0
H1318 H 0.40342 0.80309 0.04462 0.0
H1319 H 0.36867 0.83598 0.01086 0.0
H1320 H 0.37449 0.86024 0.05201 0.0
H1321 H 0.34049 0.84855 0.0412 0.0
H1322 H 0.30426 0.79838 0.1741 0.0
H1323 H 0.32475 0.82788 0.22737 0.0
H1324 H 0.3854 0.85454 0.13807 0.0
C1325 C 0.35112 0.77603 0.0311 0.0
C1326 C 0.3351 0.75228 0.03179 0.0
C1327 C 0.31519 0.74873 0.06306 0.0
C1328 C 0.31175 0.76821 0.09426 0.0
C1329 C 0.32847 0.79105 0.09377 0.0
C1330 C 0.3478 0.79512 0.06303 0.0
C1331 C 0.36616 0.81886 0.07362 0.0
C1332 C 0.39617 0.80995 0.07564 0.0
C1333 C 0.3622 0.8423 0.04257 0.0
C1334 C 0.35521 0.8263 0.1162 0.0
C1335 C 0.33295 0.81053 0.12659 0.0
C1336 C 0.32124 0.81134 0.16605 0.0
C1337 C 0.33312 0.82804 0.19616 0.0
C1338 C 0.35656 0.84353 0.1867 0.0
C1339 C 0.36711 0.84337 0.14582 0.0
H1340 H 0.06449 0.36268 0.51353 0.0
H1341 H 0.13664 0.33682 0.58047 0.0
H1342 H 0.11918 0.35871 0.64414 0.0
H1343 H 0.0551 0.42847 0.56869 0.0
H1344 H 0.01862 0.42502 0.5684 0.0
H1345 H 0.03856 0.41065 0.52674 0.0
H1346 H 0.01698 0.36334 0.54048 0.0
H1347 H -0.00304 0.37757 0.58188 0.0
H1348 H 0.01878 0.34887 0.59197 0.0
H1349 H 0.09139 0.37862 0.70246 0.0
H1350 H 0.05476 0.39313 0.75038 0.0
H1351 H 0.00167 0.40658 0.64452 0.0
C1352 C 0.0769 0.36205 0.54132 0.0
C1353 C 0.10193 0.34806 0.54192 0.0
C1354 C 0.11738 0.34745 0.57916 0.0
C1355 C 0.10773 0.35997 0.61548 0.0
C1356 C 0.08275 0.37325 0.61397 0.0
C1357 C 0.06761 0.37444 0.57776 0.0
C1358 C 0.04034 0.38773 0.58512 0.0
C1359 C 0.03803 0.41456 0.56079 0.0
C1360 C 0.0169 0.36821 0.57425 0.0
C1361 C 0.04206 0.39283 0.63143 0.0
C1362 C 0.06681 0.38479 0.6475 0.0
C1363 C 0.07209 0.38546 0.69016 0.0
C1364 C 0.0512 0.39377 0.71714 0.0
C1365 C 0.02536 0.401 0.70123 0.0
C1366 C 0.02122 0.40135 0.65773 0.0
H1367 H 0.90846 0.84361 0.35469 0.0
H1368 H 0.85502 0.82475 0.25122 0.0
H1369 H 0.82526 0.79869 0.29849 0.0
H1370 H 0.90419 0.77796 0.40184 0.0
H1371 H 0.90556 0.79076 0.45436 0.0
H1372 H 0.92139 0.80953 0.41283 0.0
H1373 H 0.89304 0.85197 0.43319 0.0
H1374 H 0.87668 0.83305 0.47424 0.0
H1375 H 0.85649 0.84962 0.43492 0.0
H1376 H 0.8018 0.77436 0.35573 0.0
H1377 H 0.7901 0.74641 0.41674 0.0
H1378 H 0.85933 0.77932 0.48341 0.0
C1379 C 0.89046 0.83402 0.34204 0.0
C1380 C 0.88397 0.83627 0.29931 0.0
C1381 C 0.86046 0.82316 0.28379 0.0
C1382 C 0.84326 0.8086 0.31048 0.0
C1383 C 0.84996 0.80718 0.35254 0.0
C1384 C 0.87326 0.81904 0.36816 0.0
C1385 C 0.87692 0.8124 0.41392 0.0
C1386 C 0.90359 0.79672 0.42114 0.0
C1387 C 0.8757 0.83831 0.44064 0.0
C1388 C 0.85226 0.79455 0.42137 0.0
C1389 C 0.83671 0.79237 0.38569 0.0
C1390 C 0.8137 0.77598 0.38392 0.0
C1391 C 0.80717 0.76027 0.41881 0.0
C1392 C 0.82372 0.76082 0.45485 0.0
C1393 C 0.84595 0.77898 0.45668 0.0
H1394 H 0.39076 0.63121 0.08917 0.0
H1395 H 0.43003 0.59666 0.98133 0.0
H1396 H 0.45658 0.56528 0.02742 0.0
H1397 H 0.44802 0.6356 0.14923 0.0
H1398 H 0.43161 0.62795 0.19805 0.0
H1399 H 0.4124 0.64289 0.15644 0.0
H1400 H 0.37807 0.60291 0.16044 0.0
H1401 H 0.39754 0.58764 0.20184 0.0
H1402 H 0.39013 0.56843 0.15545 0.0
H1403 H 0.48316 0.54444 0.08378 0.0
H1404 H 0.51072 0.53698 0.14674 0.0
H1405 H 0.45403 0.58556 0.21861 0.0
C1406 C 0.40455 0.61666 0.07521 0.0
C1407 C 0.40829 0.61547 0.03169 0.0
C1408 C 0.42687 0.59648 0.01463 0.0
C1409 C 0.44181 0.57918 0.04051 0.0
C1410 C 0.43779 0.58099 0.08331 0.0
C1411 C 0.41969 0.5993 0.1006 0.0
C1412 C 0.42165 0.59957 0.14758 0.0
C1413 C 0.42887 0.62818 0.16374 0.0
C1414 C 0.39528 0.589 0.16749 0.0
C1415 C 0.44476 0.57967 0.15383 0.0
C1416 C 0.45327 0.56865 0.11639 0.0
C1417 C 0.47634 0.55236 0.11343 0.0
C1418 C 0.49186 0.54826 0.14928 0.0
C1419 C 0.48423 0.56049 0.1874 0.0
C1420 C 0.45978 0.57533 0.19008 0.0
H1421 H 0.64628 0.24283 0.89178 0.0
H1422 H 0.65127 0.18992 0.00147 0.0
H1423 H 0.63815 0.1517 0.95901 0.0
H1424 H 0.58778 0.21459 0.8526 0.0
H1425 H 0.5972 0.21697 0.7985 0.0
H1426 H 0.6112 0.24051 0.83554 0.0
H1427 H 0.66003 0.22678 0.81369 0.0
H1428 H 0.64619 0.20339 0.77608 0.0
H1429 H 0.66983 0.19144 0.81481 0.0
H1430 H 0.61944 0.11902 0.90693 0.0
H1431 H 0.59768 0.09514 0.84844 0.0
H1432 H 0.60416 0.16824 0.773 0.0
C1433 C 0.64542 0.22311 0.90674 0.0
C1434 C 0.64996 0.22021 0.94994 0.0
C1435 C 0.648 0.19411 0.9684 0.0
C1436 C 0.64059 0.17143 0.94454 0.0
C1437 C 0.63533 0.17522 0.90233 0.0
C1438 C 0.63787 0.20036 0.8835 0.0
C1439 C 0.62877 0.19951 0.83852 0.0
C1440 C 0.60482 0.21905 0.83088 0.0
C1441 C 0.65263 0.20564 0.80904 0.0
C1442 C 0.61997 0.17012 0.83532 0.0
C1443 C 0.62421 0.1564 0.87231 0.0
C1444 C 0.61637 0.12943 0.87762 0.0
C1445 C 0.60388 0.1161 0.84423 0.0
C1446 C 0.59921 0.12981 0.80605 0.0
C1447 C 0.60759 0.15713 0.80163 0.0
H1448 H 0.29657 0.24351 0.16512 0.0
H1449 H 0.25022 0.17496 0.11731 0.0
H1450 H 0.21292 0.18579 0.16484 0.0
H1451 H 0.27721 0.23589 0.27025 0.0
H1452 H 0.27434 0.27175 0.28108 0.0
H1453 H 0.29731 0.26004 0.24128 0.0
H1454 H 0.27376 0.2913 0.18728 0.0
H1455 H 0.25081 0.30327 0.22702 0.0
H1456 H 0.23754 0.28877 0.17971 0.0
H1457 H 0.18236 0.20077 0.22056 0.0
H1458 H 0.15821 0.22204 0.27943 0.0
H1459 H 0.22265 0.28203 0.29032 0.0
C1460 C 0.27843 0.23104 0.16431 0.0
C1461 C 0.2765 0.20831 0.13763 0.0
C1462 C 0.2524 0.1924 0.1376 0.0
C1463 C 0.23097 0.19837 0.16444 0.0
C1464 C 0.23372 0.22046 0.1909 0.0
C1465 C 0.2566 0.2368 0.19088 0.0
C1466 C 0.25432 0.25893 0.22347 0.0
C1467 C 0.27715 0.25649 0.25594 0.0
C1468 C 0.25408 0.28725 0.20314 0.0
C1469 C 0.22688 0.25199 0.2421 0.0
C1470 C 0.21544 0.22969 0.22281 0.0
C1471 C 0.19085 0.21849 0.2357 0.0
C1472 C 0.17739 0.23058 0.26925 0.0
C1473 C 0.18852 0.2537 0.28913 0.0
C1474 C 0.21353 0.26456 0.27526 0.0
H1475 H 0.48102 0.5187 0.40911 0.0
H1476 H 0.5578 0.47879 0.38228 0.0
H1477 H 0.54706 0.44309 0.43341 0.0
H1478 H 0.48308 0.50935 0.5154 0.0
H1479 H 0.44724 0.50316 0.52218 0.0
H1480 H 0.45892 0.52349 0.47921 0.0
H1481 H 0.43431 0.49152 0.42729 0.0
H1482 H 0.42223 0.47124 0.47023 0.0
H1483 H 0.44115 0.4555 0.42864 0.0
H1484 H 0.53057 0.41474 0.49312 0.0
H1485 H 0.50793 0.39468 0.55481 0.0
H1486 H 0.44245 0.45343 0.54191 0.0
C1487 C 0.49518 0.50204 0.41316 0.0
C1488 C 0.52018 0.50151 0.39183 0.0
C1489 C 0.53851 0.47965 0.39851 0.0
C1490 C 0.5326 0.4592 0.42737 0.0
C1491 C 0.50822 0.46082 0.44907 0.0
C1492 C 0.48966 0.48149 0.44201 0.0
C1493 C 0.46592 0.47967 0.47167 0.0
C1494 C 0.46368 0.50544 0.49871 0.0
C1495 C 0.43933 0.47414 0.44804 0.0
C1496 C 0.47447 0.45529 0.49714 0.0
C1497 C 0.49878 0.4445 0.48352 0.0
C1498 C 0.51129 0.42273 0.50378 0.0
C1499 C 0.4984 0.41158 0.53886 0.0
C1500 C 0.47343 0.4224 0.55315 0.0
C1501 C 0.46144 0.44448 0.53175 0.0
H1502 H 0.22122 0.78561 0.68844 0.0
H1503 H 0.15659 0.72599 0.70106 0.0
H1504 H 0.18031 0.70572 0.76117 0.0
H1505 H 0.27538 0.73965 0.7109 0.0
H1506 H 0.29542 0.76443 0.73857 0.0
H1507 H 0.27252 0.77526 0.69819 0.0
H1508 H 0.24896 0.80794 0.75029 0.0
H1509 H 0.27159 0.79692 0.79101 0.0
H1510 H 0.23532 0.7946 0.79824 0.0
H1511 H 0.21009 0.6923 0.81875 0.0
H1512 H 0.24769 0.68153 0.86581 0.0
H1513 H 0.29476 0.7485 0.81456 0.0
C1514 C 0.21206 0.76834 0.704 0.0
C1515 C 0.18706 0.75736 0.69048 0.0
C1516 C 0.1758 0.73454 0.71099 0.0
C1517 C 0.18896 0.72312 0.74532 0.0
C1518 C 0.21336 0.73467 0.75824 0.0
C1519 C 0.22509 0.75645 0.73792 0.0
C1520 C 0.25243 0.76369 0.7565 0.0
C1521 C 0.27528 0.76055 0.72411 0.0
C1522 C 0.25203 0.7925 0.77512 0.0
C1523 C 0.25436 0.74229 0.79019 0.0
C1524 C 0.2313 0.72619 0.79097 0.0
C1525 C 0.22829 0.70466 0.81845 0.0
C1526 C 0.24985 0.69872 0.84496 0.0
C1527 C 0.27428 0.71404 0.84345 0.0
C1528 C 0.27629 0.73659 0.8165 0.0
H1529 H 0.04059 0.5245 0.05022 0.0
H1530 H 0.97927 0.5881 0.04718 0.0
H1531 H 0.96035 0.56973 0.98286 0.0
H1532 H 0.05114 0.5211 0.93857 0.0
H1533 H 0.0551 0.48465 0.93965 0.0
H1534 H 0.06481 0.5047 0.98416 0.0
H1535 H 0.03301 0.47449 0.03128 0.0
H1536 H 0.02344 0.45572 0.98706 0.0
H1537 H -0.00234 0.47103 0.01756 0.0
H1538 H 0.94726 0.54224 0.92096 0.0
H1539 H 0.93843 0.50705 0.86823 0.0
H1540 H 0.00835 0.46127 0.91185 0.0
C1541 C 0.02326 0.53439 0.03598 0.0
C1542 C 0.01143 0.5579 0.05364 0.0
C1543 C 0.98863 0.57005 0.03422 0.0
C1544 C 0.97788 0.55903 -0.00244 0.0
C1545 C 0.99021 0.53747 0.98085 0.0
C1546 C 0.01227 0.52367 -0.00045 0.0
C1547 C 0.02084 0.49972 0.97657 0.0
C1548 C 0.04969 0.50274 0.95867 0.0
C1549 C 0.01859 0.473 0.0048 0.0
C1550 C -0.00022 0.49929 0.94239 0.0
C1551 C 0.98254 0.52145 0.94516 0.0
C1552 C 0.9607 0.5249 0.91828 0.0
C1553 C 0.95587 0.50476 0.88848 0.0
C1554 C 0.97273 0.48141 0.88598 0.0
C1555 C -0.00465 0.47904 0.91266 0.0
H1556 H 0.7216 0.79038 0.81081 0.0
H1557 H 0.70718 0.71546 0.87881 0.0
H1558 H 0.73835 0.69117 0.83097 0.0
H1559 H 0.72045 0.76043 0.71121 0.0
H1560 H 0.74616 0.78242 0.68954 0.0
H1561 H 0.72511 0.79428 0.73161 0.0
H1562 H 0.76819 0.80517 0.77485 0.0
H1563 H 0.78941 0.7931 0.73298 0.0
H1564 H 0.79285 0.77876 0.78433 0.0
H1565 H 0.76971 0.67524 0.77569 0.0
H1566 H 0.79459 0.66641 0.71097 0.0
H1567 H 0.7867 0.75145 0.67593 0.0
C1568 C 0.72532 0.76892 0.81596 0.0
C1569 C 0.71236 0.75473 0.84868 0.0
C1570 C 0.71704 0.72658 0.85391 0.0
C1571 C 0.73483 0.71276 0.82718 0.0
C1572 C 0.74741 0.72743 0.79534 0.0
C1573 C 0.74258 0.75478 0.78923 0.0
C1574 C 0.75663 0.76523 0.75041 0.0
C1575 C 0.73585 0.77622 0.71883 0.0
C1576 C 0.77805 0.78684 0.76131 0.0
C1577 C 0.76983 0.7393 0.73515 0.0
C1578 C 0.76467 0.71794 0.76211 0.0
C1579 C 0.77389 0.69176 0.75435 0.0
C1580 C 0.78798 0.68701 0.71736 0.0
C1581 C 0.79239 0.70824 0.68813 0.0
C1582 C 0.78383 0.7349 0.69775 0.0
H1583 H 0.70034 0.23275 0.16366 0.0
H1584 H 0.75157 0.29905 0.12054 0.0
H1585 H 0.78381 0.28998 0.17706 0.0
H1586 H 0.70777 0.24461 0.26909 0.0
H1587 H 0.70936 0.20945 0.28485 0.0
H1588 H 0.69147 0.21874 0.23816 0.0
H1589 H 0.72105 0.18541 0.19505 0.0
H1590 H 0.73875 0.17561 0.2418 0.0
H1591 H 0.75758 0.18793 0.19748 0.0
H1592 H 0.80717 0.27829 0.24333 0.0
H1593 H 0.82354 0.25993 0.31055 0.0
H1594 H 0.75868 0.20009 0.30888 0.0
C1595 C 0.7187 0.24484 0.16543 0.0
C1596 C 0.72326 0.2667 0.13782 0.0
C1597 C 0.74746 0.28227 0.14147 0.0
C1598 C 0.76598 0.27732 0.17349 0.0
C1599 C 0.7603 0.25645 0.20128 0.0
C1600 C 0.73761 0.24004 0.19712 0.0
C1601 C 0.73588 0.21963 0.23227 0.0
C1602 C 0.70956 0.22335 0.25757 0.0
C1603 C 0.73848 0.19041 0.21565 0.0
C1604 C 0.76064 0.22776 0.25727 0.0
C1605 C 0.77441 0.24908 0.23894 0.0
C1606 C 0.79691 0.26122 0.25768 0.0
C1607 C 0.8059 0.25088 0.29593 0.0
C1608 C 0.7925 0.22853 0.31455 0.0
C1609 C 0.76956 0.21696 0.29495 0.0
H1610 H 0.98107 0.05972 0.94392 0.0
H1611 H 0.06663 0.06527 0.97586 0.0
H1612 H 0.05837 0.03731 0.03944 0.0
H1613 H 0.95495 0.06054 0.05415 0.0
H1614 H 0.9284 0.03633 0.04313 0.0
H1615 H 0.94006 0.05914 0.00295 0.0
H1616 H 0.95011 0.01937 0.95524 0.0
H1617 H 0.93882 -0.00505 -0.00465 0.0
H1618 H 0.97238 0.9928 0.97349 0.0
H1619 H 0.04304 0.00486 0.09287 0.0
H1620 H 0.02003 0.97112 0.13758 0.0
H1621 H 0.9439 0.98726 0.07405 0.0
C1622 C -0.00218 0.05608 0.96502 0.0
C1623 C 0.02447 0.06451 0.95492 0.0
C1624 C 0.04605 0.05888 0.98285 0.0
C1625 C 0.04158 0.04243 0.01917 0.0
C1626 C 0.01537 0.03344 0.02746 0.0
C1627 C -0.00629 0.03957 0.00168 0.0
C1628 C 0.96798 0.02563 0.01661 0.0
C1629 C 0.94659 0.04667 0.03002 0.0
C1630 C 0.95668 0.00779 0.98318 0.0
C1631 C 0.9789 0.01003 0.05373 0.0
C1632 C 0.00627 0.01496 0.05945 0.0
C1633 C 0.02147 0.00123 0.0894 0.0
C1634 C 0.0083 0.98198 0.11441 0.0
C1635 C 0.98021 0.97683 0.10947 0.0
C1636 C 0.96531 0.99123 0.07898 0.0
H1637 H 0.48195 0.02035 0.56801 0.0
H1638 H 0.56111 0.98313 0.58654 0.0
H1639 H 0.5504 0.94862 0.53362 0.0
H1640 H 0.44452 0.95678 0.54913 0.0
H1641 H 0.42331 0.97211 0.50989 0.0
H1642 H 0.43633 -0.00751 0.55198 0.0
H1643 H 0.4576 0.02585 0.49857 0.0
H1644 H 0.44487 0.00548 0.45637 0.0
H1645 H 0.48067 0.01298 0.45962 0.0
H1646 H 0.53245 0.91995 0.47533 0.0
H1647 H 0.50758 0.89862 0.41691 0.0
H1648 H 0.44076 0.95502 0.43675 0.0
C1649 C 0.4968 0.00465 0.56149 0.0
C1650 C 0.52231 0.00446 0.58134 0.0
C1651 C 0.54141 0.98377 0.57155 0.0
C1652 C 0.53554 0.964 0.54163 0.0
C1653 C 0.51047 0.96514 0.52187 0.0
C1654 C 0.49134 0.9848 0.53154 0.0
C1655 C 0.4665 0.98229 0.50427 0.0
C1656 C 0.44117 0.9755 0.53038 0.0
C1657 C 0.46218 0.00819 0.47816 0.0
C1658 C 0.47492 0.9585 0.47739 0.0
C1659 C 0.50024 0.94873 0.48812 0.0
C1660 C 0.51247 0.92725 0.46678 0.0
C1661 C 0.49827 0.91533 0.43361 0.0
C1662 C 0.47227 0.92512 0.42221 0.0
C1663 C 0.4606 0.94697 0.44458 0.0
loop_
_geom_bond_atom_site_label_1
_geom_bond_atom_site_label_2
_geom_bond_distance
_geom_bond_site_symmetry_2
_ccdc_geom_bond_type
O0 Zn1 1.953 . S
O0 C16 1.225 . S
Zn1 O0 1.953 . S
Zn1 O2 1.949 1_556 S
Zn1 O8 1.919 . S
Zn1 O13 1.924 . S
O2 Zn1 1.949 1_554 S
O2 Zn3 1.923 . S
O2 Zn4 1.950 . S
O2 Zn5 1.945 . S
Zn3 O2 1.923 . S
Zn3 O6 1.933 . S
Zn3 O9 1.941 . S
Zn3 O10 1.965 . S
Zn4 O2 1.950 . S
Zn4 O11 1.938 . S
Zn4 O12 1.906 . S
Zn4 O22 1.953 . S
Zn5 O2 1.945 . S
Zn5 O7 1.932 . S
Zn5 O14 1.977 . S
Zn5 O15 1.910 . S
O6 Zn3 1.933 . S
O6 C17 1.226 . S
O7 Zn5 1.932 . S
O7 C17 1.307 . S
O8 Zn1 1.919 . S
O8 C19 1.253 . S
O9 Zn3 1.941 . S
O9 C19 1.283 1_554 S
O10 Zn3 1.965 . S
O10 C18 1.303 . S
O11 Zn4 1.938 . S
O11 C18 1.247 . S
O12 Zn4 1.906 . S
O12 C20 1.304 . S
O13 Zn1 1.924 . S
O13 C21 1.311 . S
O14 Zn5 1.977 . S
O14 C20 1.272 . S
O15 Zn5 1.910 . S
O15 C21 1.231 1_554 S
C16 O0 1.225 . S
C16 O22 1.298 1_556 S
C17 O6 1.226 . S
C17 O7 1.307 . S
C18 O10 1.303 . S
C18 O11 1.247 . S
C19 O8 1.253 . S
C19 O9 1.283 1_556 S
C20 O12 1.304 . S
C20 O14 1.272 . S
C21 O13 1.311 . S
C21 O15 1.231 1_556 S
O22 Zn4 1.953 . S
O22 C16 1.298 1_554 S
O23 Zn24 1.953 . S
O23 C39 1.225 . S
Zn24 O23 1.953 . S
Zn24 O25 1.949 . S
Zn24 O31 1.919 . S
Zn24 O36 1.924 . S
O25 Zn24 1.949 . S
O25 Zn26 1.923 . S
O25 Zn27 1.950 . S
O25 Zn28 1.945 . S
Zn26 O25 1.923 . S
Zn26 O29 1.933 . S
Zn26 O32 1.941 . S
Zn26 O33 1.965 . S
Zn27 O25 1.950 . S
Zn27 O34 1.938 . S
Zn27 O35 1.906 . S
Zn27 O45 1.953 . S
Zn28 O25 1.945 . S
Zn28 O30 1.932 . S
Zn28 O37 1.977 . S
Zn28 O38 1.910 . S
O29 Zn26 1.933 . S
O29 C40 1.226 . S
O30 Zn28 1.932 . S
O30 C40 1.307 . S
O31 Zn24 1.919 . S
O31 C42 1.253 . S
O32 Zn26 1.941 . S
O32 C42 1.283 . S
O33 Zn26 1.965 . S
O33 C41 1.303 . S
O34 Zn27 1.938 . S
O34 C41 1.247 . S
O35 Zn27 1.906 . S
O35 C43 1.304 . S
O36 Zn24 1.924 . S
O36 C44 1.311 . S
O37 Zn28 1.977 . S
O37 C43 1.272 . S
O38 Zn28 1.910 . S
O38 C44 1.231 . S
C39 O23 1.225 . S
C39 O45 1.298 . S
C40 O29 1.226 . S
C40 O30 1.307 . S
C41 O33 1.303 . S
C41 O34 1.247 . S
C42 O31 1.253 . S
C42 O32 1.283 . S
C43 O35 1.304 . S
C43 O37 1.272 . S
C44 O36 1.311 . S
C44 O38 1.231 . S
O45 Zn27 1.953 . S
O45 C39 1.298 . S
O46 Zn47 1.953 . S
O46 C62 1.225 . S
Zn47 O46 1.953 . S
Zn47 O48 1.949 . S
Zn47 O54 1.919 . S
Zn47 O59 1.924 . S
O48 Zn47 1.949 . S
O48 Zn49 1.923 . S
O48 Zn50 1.950 . S
O48 Zn51 1.945 . S
Zn49 O48 1.923 . S
Zn49 O52 1.933 . S
Zn49 O55 1.941 . S
Zn49 O56 1.965 . S
Zn50 O48 1.950 . S
Zn50 O57 1.938 . S
Zn50 O58 1.906 . S
Zn50 O68 1.953 . S
Zn51 O48 1.945 . S
Zn51 O53 1.932 . S
Zn51 O60 1.977 . S
Zn51 O61 1.910 . S
O52 Zn49 1.933 . S
O52 C63 1.226 . S
O53 Zn51 1.932 . S
O53 C63 1.307 . S
O54 Zn47 1.919 . S
O54 C65 1.253 . S
O55 Zn49 1.941 . S
O55 C65 1.283 . S
O56 Zn49 1.965 . S
O56 C64 1.303 . S
O57 Zn50 1.938 . S
O57 C64 1.247 . S
O58 Zn50 1.906 . S
O58 C66 1.304 . S
O59 Zn47 1.924 . S
O59 C67 1.311 . S
O60 Zn51 1.977 . S
O60 C66 1.272 . S
O61 Zn51 1.910 . S
O61 C67 1.231 . S
C62 O46 1.225 . S
C62 O68 1.298 . S
C63 O52 1.226 . S
C63 O53 1.307 . S
C64 O56 1.303 . S
C64 O57 1.247 . S
C65 O54 1.253 . S
C65 O55 1.283 . S
C66 O58 1.304 . S
C66 O60 1.272 . S
C67 O59 1.311 . S
C67 O61 1.231 . S
O68 Zn50 1.953 . S
O68 C62 1.298 . S
O69 Zn70 1.953 . S
O69 C85 1.225 . S
Zn70 O69 1.953 . S
Zn70 O71 1.949 . S
Zn70 O77 1.919 . S
Zn70 O82 1.924 . S
O71 Zn70 1.949 . S
O71 Zn72 1.923 . S
O71 Zn73 1.950 . S
O71 Zn74 1.945 . S
Zn72 O71 1.923 . S
Zn72 O75 1.933 . S
Zn72 O78 1.941 . S
Zn72 O79 1.965 . S
Zn73 O71 1.950 . S
Zn73 O80 1.938 . S
Zn73 O81 1.906 . S
Zn73 O91 1.953 . S
Zn74 O71 1.945 . S
Zn74 O76 1.932 . S
Zn74 O83 1.977 . S
Zn74 O84 1.910 . S
O75 Zn72 1.933 . S
O75 C86 1.226 . S
O76 Zn74 1.932 . S
O76 C86 1.307 . S
O77 Zn70 1.919 . S
O77 C88 1.253 . S
O78 Zn72 1.941 . S
O78 C88 1.283 . S
O79 Zn72 1.965 . S
O79 C87 1.303 . S
O80 Zn73 1.938 . S
O80 C87 1.247 . S
O81 Zn73 1.906 . S
O81 C89 1.304 . S
O82 Zn70 1.924 . S
O82 C90 1.311 . S
O83 Zn74 1.977 . S
O83 C89 1.272 . S
O84 Zn74 1.910 . S
O84 C90 1.231 . S
C85 O69 1.225 . S
C85 O91 1.298 . S
C86 O75 1.226 . S
C86 O76 1.307 . S
C87 O79 1.303 . S
C87 O80 1.247 . S
C88 O77 1.253 . S
C88 O78 1.283 . S
C89 O81 1.304 . S
C89 O83 1.272 . S
C90 O82 1.311 . S
C90 O84 1.231 . S
O91 Zn73 1.953 . S
O91 C85 1.298 . S
O92 Zn93 1.953 . S
O92 C108 1.225 . S
Zn93 O92 1.953 . S
Zn93 O94 1.949 1_554 S
Zn93 O100 1.919 . S
Zn93 O105 1.924 . S
O94 Zn93 1.949 1_556 S
O94 Zn95 1.923 . S
O94 Zn96 1.950 . S
O94 Zn97 1.945 . S
Zn95 O94 1.923 . S
Zn95 O98 1.933 . S
Zn95 O101 1.941 . S
Zn95 O102 1.965 . S
Zn96 O94 1.950 . S
Zn96 O103 1.938 . S
Zn96 O104 1.906 . S
Zn96 O114 1.953 . S
Zn97 O94 1.945 . S
Zn97 O99 1.932 . S
Zn97 O106 1.977 . S
Zn97 O107 1.910 . S
O98 Zn95 1.933 . S
O98 C109 1.226 . S
O99 Zn97 1.932 . S
O99 C109 1.307 . S
O100 Zn93 1.919 . S
O100 C111 1.253 . S
O101 Zn95 1.941 . S
O101 C111 1.283 1_556 S
O102 Zn95 1.965 . S
O102 C110 1.303 . S
O103 Zn96 1.938 . S
O103 C110 1.247 . S
O104 Zn96 1.906 . S
O104 C112 1.304 . S
O105 Zn93 1.924 . S
O105 C113 1.311 . S
O106 Zn97 1.977 . S
O106 C112 1.272 . S
O107 Zn97 1.910 . S
O107 C113 1.231 1_556 S
C108 O92 1.225 . S
C108 O114 1.298 1_554 S
C109 O98 1.226 . S
C109 O99 1.307 . S
C110 O102 1.303 . S
C110 O103 1.247 . S
C111 O100 1.253 . S
C111 O101 1.283 1_554 S
C112 O104 1.304 . S
C112 O106 1.272 . S
C113 O105 1.311 . S
C113 O107 1.231 1_554 S
O114 Zn96 1.953 . S
O114 C108 1.298 1_556 S
O115 Zn116 1.953 . S
O115 C131 1.225 . S
Zn116 O115 1.953 . S
Zn116 O117 1.949 . S
Zn116 O123 1.919 . S
Zn116 O128 1.924 . S
O117 Zn116 1.949 . S
O117 Zn118 1.923 . S
O117 Zn119 1.950 . S
O117 Zn120 1.945 . S
Zn118 O117 1.923 . S
Zn118 O121 1.933 . S
Zn118 O124 1.941 . S
Zn118 O125 1.965 . S
Zn119 O117 1.950 . S
Zn119 O126 1.938 . S
Zn119 O127 1.906 . S
Zn119 O137 1.953 . S
Zn120 O117 1.945 . S
Zn120 O122 1.932 . S
Zn120 O129 1.977 . S
Zn120 O130 1.910 . S
O121 Zn118 1.933 . S
O121 C132 1.226 . S
O122 Zn120 1.932 . S
O122 C132 1.307 . S
O123 Zn116 1.919 . S
O123 C134 1.253 . S
O124 Zn118 1.941 . S
O124 C134 1.283 . S
O125 Zn118 1.965 . S
O125 C133 1.303 . S
O126 Zn119 1.938 . S
O126 C133 1.247 . S
O127 Zn119 1.906 . S
O127 C135 1.304 . S
O128 Zn116 1.924 . S
O128 C136 1.311 . S
O129 Zn120 1.977 . S
O129 C135 1.272 . S
O130 Zn120 1.910 . S
O130 C136 1.231 . S
C131 O115 1.225 . S
C131 O137 1.298 . S
C132 O121 1.226 . S
C132 O122 1.307 . S
C133 O125 1.303 . S
C133 O126 1.247 . S
C134 O123 1.253 . S
C134 O124 1.283 . S
C135 O127 1.304 . S
C135 O129 1.272 . S
C136 O128 1.311 . S
C136 O130 1.231 . S
O137 Zn119 1.953 . S
O137 C131 1.298 . S
O138 Zn139 1.953 . S
O138 C154 1.225 . S
Zn139 O138 1.953 . S
Zn139 O140 1.949 . S
Zn139 O146 1.919 . S
Zn139 O151 1.924 . S
O140 Zn139 1.949 . S
O140 Zn141 1.923 . S
O140 Zn142 1.950 . S
O140 Zn143 1.945 . S
Zn141 O140 1.923 . S
Zn141 O144 1.933 . S
Zn141 O147 1.941 . S
Zn141 O148 1.965 . S
Zn142 O140 1.950 . S
Zn142 O149 1.938 . S
Zn142 O150 1.906 . S
Zn142 O160 1.953 . S
Zn143 O140 1.945 . S
Zn143 O145 1.932 . S
Zn143 O152 1.977 . S
Zn143 O153 1.910 . S
O144 Zn141 1.933 . S
O144 C155 1.226 . S
O145 Zn143 1.932 . S
O145 C155 1.307 . S
O146 Zn139 1.919 . S
O146 C157 1.253 . S
O147 Zn141 1.941 . S
O147 C157 1.283 . S
O148 Zn141 1.965 . S
O148 C156 1.303 . S
O149 Zn142 1.938 . S
O149 C156 1.247 . S
O150 Zn142 1.906 . S
O150 C158 1.304 . S
O151 Zn139 1.924 . S
O151 C159 1.311 . S
O152 Zn143 1.977 . S
O152 C158 1.272 . S
O153 Zn143 1.910 . S
O153 C159 1.231 . S
C154 O138 1.225 . S
C154 O160 1.298 . S
C155 O144 1.226 . S
C155 O145 1.307 . S
C156 O148 1.303 . S
C156 O149 1.247 . S
C157 O146 1.253 . S
C157 O147 1.283 . S
C158 O150 1.304 . S
C158 O152 1.272 . S
C159 O151 1.311 . S
C159 O153 1.231 . S
O160 Zn142 1.953 . S
O160 C154 1.298 . S
O161 Zn162 1.953 . S
O161 C177 1.225 . S
Zn162 O161 1.953 . S
Zn162 O163 1.949 . S
Zn162 O169 1.919 . S
Zn162 O174 1.924 . S
O163 Zn162 1.949 . S
O163 Zn164 1.923 . S
O163 Zn165 1.950 . S
O163 Zn166 1.945 . S
Zn164 O163 1.923 . S
Zn164 O167 1.933 . S
Zn164 O170 1.941 . S
Zn164 O171 1.965 . S
Zn165 O163 1.950 . S
Zn165 O172 1.938 . S
Zn165 O173 1.906 . S
Zn165 O183 1.953 . S
Zn166 O163 1.945 . S
Zn166 O168 1.932 . S
Zn166 O175 1.977 . S
Zn166 O176 1.910 . S
O167 Zn164 1.933 . S
O167 C178 1.226 . S
O168 Zn166 1.932 . S
O168 C178 1.307 . S
O169 Zn162 1.919 . S
O169 C180 1.253 . S
O170 Zn164 1.941 . S
O170 C180 1.283 . S
O171 Zn164 1.965 . S
O171 C179 1.303 . S
O172 Zn165 1.938 . S
O172 C179 1.247 . S
O173 Zn165 1.906 . S
O173 C181 1.304 . S
O174 Zn162 1.924 . S
O174 C182 1.311 . S
O175 Zn166 1.977 . S
O175 C181 1.272 . S
O176 Zn166 1.910 . S
O176 C182 1.231 . S
C177 O161 1.225 . S
C177 O183 1.298 . S
C178 O167 1.226 . S
C178 O168 1.307 . S
C179 O171 1.303 . S
C179 O172 1.247 . S
C180 O169 1.253 . S
C180 O170 1.283 . S
C181 O173 1.304 . S
C181 O175 1.272 . S
C182 O174 1.311 . S
C182 O176 1.231 . S
O183 Zn165 1.953 . S
O183 C177 1.298 . S
O184 Zn185 1.953 . S
O184 C200 1.225 . S
Zn185 O184 1.953 . S
Zn185 O186 1.949 . S
Zn185 O192 1.919 . S
Zn185 O197 1.924 . S
O186 Zn185 1.949 . S
O186 Zn187 1.923 . S
O186 Zn188 1.950 . S
O186 Zn189 1.945 . S
Zn187 O186 1.923 . S
Zn187 O190 1.933 . S
Zn187 O193 1.941 . S
Zn187 O194 1.965 . S
Zn188 O186 1.950 . S
Zn188 O195 1.938 . S
Zn188 O196 1.906 . S
Zn188 O206 1.953 . S
Zn189 O186 1.945 . S
Zn189 O191 1.932 . S
Zn189 O198 1.977 . S
Zn189 O199 1.910 . S
O190 Zn187 1.933 . S
O190 C201 1.226 . S
O191 Zn189 1.932 . S
O191 C201 1.307 . S
O192 Zn185 1.919 . S
O192 C203 1.253 . S
O193 Zn187 1.941 . S
O193 C203 1.283 . S
O194 Zn187 1.965 . S
O194 C202 1.303 . S
O195 Zn188 1.938 . S
O195 C202 1.247 . S
O196 Zn188 1.906 . S
O196 C204 1.304 . S
O197 Zn185 1.924 . S
O197 C205 1.311 . S
O198 Zn189 1.977 . S
O198 C204 1.272 . S
O199 Zn189 1.910 . S
O199 C205 1.231 . S
C200 O184 1.225 . S
C200 O206 1.298 . S
C201 O190 1.226 . S
C201 O191 1.307 . S
C202 O194 1.303 . S
C202 O195 1.247 . S
C203 O192 1.253 . S
C203 O193 1.283 . S
C204 O196 1.304 . S
C204 O198 1.272 . S
C205 O197 1.311 . S
C205 O199 1.231 . S
O206 Zn188 1.953 . S
O206 C200 1.298 . S
O207 Zn208 1.953 . S
O207 C223 1.225 . S
Zn208 O207 1.953 . S
Zn208 O209 1.949 . S
Zn208 O215 1.919 . S
Zn208 O220 1.924 . S
O209 Zn208 1.949 . S
O209 Zn210 1.923 . S
O209 Zn211 1.950 . S
O209 Zn212 1.945 . S
Zn210 O209 1.923 . S
Zn210 O213 1.933 . S
Zn210 O216 1.941 . S
Zn210 O217 1.965 . S
Zn211 O209 1.950 . S
Zn211 O218 1.938 . S
Zn211 O219 1.906 . S
Zn211 O229 1.953 . S
Zn212 O209 1.945 . S
Zn212 O214 1.932 . S
Zn212 O221 1.977 . S
Zn212 O222 1.910 . S
O213 Zn210 1.933 . S
O213 C224 1.226 . S
O214 Zn212 1.932 . S
O214 C224 1.307 . S
O215 Zn208 1.919 . S
O215 C226 1.253 . S
O216 Zn210 1.941 . S
O216 C226 1.283 . S
O217 Zn210 1.965 . S
O217 C225 1.303 . S
O218 Zn211 1.938 . S
O218 C225 1.247 . S
O219 Zn211 1.906 . S
O219 C227 1.304 . S
O220 Zn208 1.924 . S
O220 C228 1.311 . S
O221 Zn212 1.977 . S
O221 C227 1.272 . S
O222 Zn212 1.910 . S
O222 C228 1.231 . S
C223 O207 1.225 . S
C223 O229 1.298 . S
C224 O213 1.226 . S
C224 O214 1.307 . S
C225 O217 1.303 . S
C225 O218 1.247 . S
C226 O215 1.253 . S
C226 O216 1.283 . S
C227 O219 1.304 . S
C227 O221 1.272 . S
C228 O220 1.311 . S
C228 O222 1.231 . S
O229 Zn211 1.953 . S
O229 C223 1.298 . S
O230 Zn231 1.953 . S
O230 C246 1.225 . S
Zn231 O230 1.953 . S
Zn231 O232 1.949 1_556 S
Zn231 O238 1.919 . S
Zn231 O243 1.924 . S
O232 Zn231 1.949 1_554 S
O232 Zn233 1.923 . S
O232 Zn234 1.950 . S
O232 Zn235 1.945 . S
Zn233 O232 1.923 . S
Zn233 O236 1.933 . S
Zn233 O239 1.941 . S
Zn233 O240 1.965 . S
Zn234 O232 1.950 . S
Zn234 O241 1.938 . S
Zn234 O242 1.906 . S
Zn234 O252 1.953 . S
Zn235 O232 1.945 . S
Zn235 O237 1.932 . S
Zn235 O244 1.977 . S
Zn235 O245 1.910 . S
O236 Zn233 1.933 . S
O236 C247 1.226 . S
O237 Zn235 1.932 . S
O237 C247 1.307 . S
O238 Zn231 1.919 . S
O238 C249 1.253 . S
O239 Zn233 1.941 . S
O239 C249 1.283 1_554 S
O240 Zn233 1.965 . S
O240 C248 1.303 . S
O241 Zn234 1.938 . S
O241 C248 1.247 . S
O242 Zn234 1.906 . S
O242 C250 1.304 . S
O243 Zn231 1.924 . S
O243 C251 1.311 . S
O244 Zn235 1.977 . S
O244 C250 1.272 . S
O245 Zn235 1.910 . S
O245 C251 1.231 1_554 S
C246 O230 1.225 . S
C246 O252 1.298 1_556 S
C247 O236 1.226 . S
C247 O237 1.307 . S
C248 O240 1.303 . S
C248 O241 1.247 . S
C249 O238 1.253 . S
C249 O239 1.283 1_556 S
C250 O242 1.304 . S
C250 O244 1.272 . S
C251 O243 1.311 . S
C251 O245 1.231 1_556 S
O252 Zn234 1.953 . S
O252 C246 1.298 1_554 S
O253 Zn254 1.953 . S
O253 C269 1.225 . S
Zn254 O253 1.953 . S
Zn254 O255 1.949 . S
Zn254 O261 1.919 . S
Zn254 O266 1.924 . S
O255 Zn254 1.949 . S
O255 Zn256 1.923 . S
O255 Zn257 1.950 . S
O255 Zn258 1.945 . S
Zn256 O255 1.923 . S
Zn256 O259 1.933 . S
Zn256 O262 1.941 . S
Zn256 O263 1.965 . S
Zn257 O255 1.950 . S
Zn257 O264 1.938 . S
Zn257 O265 1.906 . S
Zn257 O275 1.953 . S
Zn258 O255 1.945 . S
Zn258 O260 1.932 . S
Zn258 O267 1.977 . S
Zn258 O268 1.910 . S
O259 Zn256 1.933 . S
O259 C270 1.226 . S
O260 Zn258 1.932 . S
O260 C270 1.307 . S
O261 Zn254 1.919 . S
O261 C272 1.253 . S
O262 Zn256 1.941 . S
O262 C272 1.283 . S
O263 Zn256 1.965 . S
O263 C271 1.303 . S
O264 Zn257 1.938 . S
O264 C271 1.247 . S
O265 Zn257 1.906 . S
O265 C273 1.304 . S
O266 Zn254 1.924 . S
O266 C274 1.311 . S
O267 Zn258 1.977 . S
O267 C273 1.272 . S
O268 Zn258 1.910 . S
O268 C274 1.231 . S
C269 O253 1.225 . S
C269 O275 1.298 . S
C270 O259 1.226 . S
C270 O260 1.307 . S
C271 O263 1.303 . S
C271 O264 1.247 . S
C272 O261 1.253 . S
C272 O262 1.283 . S
C273 O265 1.304 . S
C273 O267 1.272 . S
C274 O266 1.311 . S
C274 O268 1.231 . S
O275 Zn257 1.953 . S
O275 C269 1.298 . S
O276 Zn277 1.953 . S
O276 C292 1.225 . S
Zn277 O276 1.953 . S
Zn277 O278 1.949 . S
Zn277 O284 1.919 . S
Zn277 O289 1.924 . S
O278 Zn277 1.949 . S
O278 Zn279 1.923 . S
O278 Zn280 1.950 . S
O278 Zn281 1.945 . S
Zn279 O278 1.923 . S
Zn279 O282 1.933 . S
Zn279 O285 1.941 . S
Zn279 O286 1.965 . S
Zn280 O278 1.950 . S
Zn280 O287 1.938 . S
Zn280 O288 1.906 . S
Zn280 O298 1.953 . S
Zn281 O278 1.945 . S
Zn281 O283 1.932 . S
Zn281 O290 1.977 . S
Zn281 O291 1.910 . S
O282 Zn279 1.933 . S
O282 C293 1.226 . S
O283 Zn281 1.932 . S
O283 C293 1.307 . S
O284 Zn277 1.919 . S
O284 C295 1.253 . S
O285 Zn279 1.941 . S
O285 C295 1.283 . S
O286 Zn279 1.965 . S
O286 C294 1.303 . S
O287 Zn280 1.938 . S
O287 C294 1.247 . S
O288 Zn280 1.906 . S
O288 C296 1.304 . S
O289 Zn277 1.924 . S
O289 C297 1.311 . S
O290 Zn281 1.977 . S
O290 C296 1.272 . S
O291 Zn281 1.910 . S
O291 C297 1.231 . S
C292 O276 1.225 . S
C292 O298 1.298 . S
C293 O282 1.226 . S
C293 O283 1.307 . S
C294 O286 1.303 . S
C294 O287 1.247 . S
C295 O284 1.253 . S
C295 O285 1.283 . S
C296 O288 1.304 . S
C296 O290 1.272 . S
C297 O289 1.311 . S
C297 O291 1.231 . S
O298 Zn280 1.953 . S
O298 C292 1.298 . S
O299 Zn300 1.953 . S
O299 C315 1.225 . S
Zn300 O299 1.953 . S
Zn300 O301 1.949 . S
Zn300 O307 1.919 . S
Zn300 O312 1.924 . S
O301 Zn300 1.949 . S
O301 Zn302 1.923 . S
O301 Zn303 1.950 . S
O301 Zn304 1.945 . S
Zn302 O301 1.923 . S
Zn302 O305 1.933 . S
Zn302 O308 1.941 . S
Zn302 O309 1.965 . S
Zn303 O301 1.950 . S
Zn303 O310 1.938 . S
Zn303 O311 1.906 . S
Zn303 O321 1.953 . S
Zn304 O301 1.945 . S
Zn304 O306 1.932 . S
Zn304 O313 1.977 . S
Zn304 O314 1.910 . S
O305 Zn302 1.933 . S
O305 C316 1.226 . S
O306 Zn304 1.932 . S
O306 C316 1.307 . S
O307 Zn300 1.919 . S
O307 C318 1.253 . S
O308 Zn302 1.941 . S
O308 C318 1.283 . S
O309 Zn302 1.965 . S
O309 C317 1.303 . S
O310 Zn303 1.938 . S
O310 C317 1.247 . S
O311 Zn303 1.906 . S
O311 C319 1.304 . S
O312 Zn300 1.924 . S
O312 C320 1.311 . S
O313 Zn304 1.977 . S
O313 C319 1.272 . S
O314 Zn304 1.910 . S
O314 C320 1.231 . S
C315 O299 1.225 . S
C315 O321 1.298 . S
C316 O305 1.226 . S
C316 O306 1.307 . S
C317 O309 1.303 . S
C317 O310 1.247 . S
C318 O307 1.253 . S
C318 O308 1.283 . S
C319 O311 1.304 . S
C319 O313 1.272 . S
C320 O312 1.311 . S
C320 O314 1.231 . S
O321 Zn303 1.953 . S
O321 C315 1.298 . S
O322 Zn323 1.953 . S
O322 C338 1.225 . S
Zn323 O322 1.953 . S
Zn323 O324 1.949 1_554 S
Zn323 O330 1.919 . S
Zn323 O335 1.924 . S
O324 Zn323 1.949 1_556 S
O324 Zn325 1.923 . S
O324 Zn326 1.950 . S
O324 Zn327 1.945 . S
Zn325 O324 1.923 . S
Zn325 O328 1.933 . S
Zn325 O331 1.941 . S
Zn325 O332 1.965 . S
Zn326 O324 1.950 . S
Zn326 O333 1.938 . S
Zn326 O334 1.906 . S
Zn326 O344 1.953 . S
Zn327 O324 1.945 . S
Zn327 O329 1.932 . S
Zn327 O336 1.977 . S
Zn327 O337 1.910 . S
O328 Zn325 1.933 . S
O328 C339 1.226 . S
O329 Zn327 1.932 . S
O329 C339 1.307 . S
O330 Zn323 1.919 . S
O330 C341 1.253 . S
O331 Zn325 1.941 . S
O331 C341 1.283 1_556 S
O332 Zn325 1.965 . S
O332 C340 1.303 . S
O333 Zn326 1.938 . S
O333 C340 1.247 . S
O334 Zn326 1.906 . S
O334 C342 1.304 . S
O335 Zn323 1.924 . S
O335 C343 1.311 . S
O336 Zn327 1.977 . S
O336 C342 1.272 . S
O337 Zn327 1.910 . S
O337 C343 1.231 1_556 S
C338 O322 1.225 . S
C338 O344 1.298 1_554 S
C339 O328 1.226 . S
C339 O329 1.307 . S
C340 O332 1.303 . S
C340 O333 1.247 . S
C341 O330 1.253 . S
C341 O331 1.283 1_554 S
C342 O334 1.304 . S
C342 O336 1.272 . S
C343 O335 1.311 . S
C343 O337 1.231 1_554 S
O344 Zn326 1.953 . S
O344 C338 1.298 1_556 S
O345 Zn346 1.953 . S
O345 C361 1.225 . S
Zn346 O345 1.953 . S
Zn346 O347 1.949 . S
Zn346 O353 1.919 . S
Zn346 O358 1.924 . S
O347 Zn346 1.949 . S
O347 Zn348 1.923 . S
O347 Zn349 1.950 . S
O347 Zn350 1.945 . S
Zn348 O347 1.923 . S
Zn348 O351 1.933 . S
Zn348 O354 1.941 . S
Zn348 O355 1.965 . S
Zn349 O347 1.950 . S
Zn349 O356 1.938 . S
Zn349 O357 1.906 . S
Zn349 O367 1.953 . S
Zn350 O347 1.945 . S
Zn350 O352 1.932 . S
Zn350 O359 1.977 . S
Zn350 O360 1.910 . S
O351 Zn348 1.933 . S
O351 C362 1.226 . S
O352 Zn350 1.932 . S
O352 C362 1.307 . S
O353 Zn346 1.919 . S
O353 C364 1.253 . S
O354 Zn348 1.941 . S
O354 C364 1.283 . S
O355 Zn348 1.965 . S
O355 C363 1.303 . S
O356 Zn349 1.938 . S
O356 C363 1.247 . S
O357 Zn349 1.906 . S
O357 C365 1.304 . S
O358 Zn346 1.924 . S
O358 C366 1.311 . S
O359 Zn350 1.977 . S
O359 C365 1.272 . S
O360 Zn350 1.910 . S
O360 C366 1.231 . S
C361 O345 1.225 . S
C361 O367 1.298 . S
C362 O351 1.226 . S
C362 O352 1.307 . S
C363 O355 1.303 . S
C363 O356 1.247 . S
C364 O353 1.253 . S
C364 O354 1.283 . S
C365 O357 1.304 . S
C365 O359 1.272 . S
C366 O358 1.311 . S
C366 O360 1.231 . S
O367 Zn349 1.953 . S
O367 C361 1.298 . S
H368 C380 0.930 . S
H369 C382 0.930 . S
H370 C383 0.930 1_556 S
H371 C387 0.959 . S
H372 C387 0.959 . S
H373 C387 0.961 . S
H374 C388 0.960 . S
H375 C388 0.961 . S
H376 C388 0.959 . S
H377 C391 0.929 1_556 S
H378 C392 0.931 . S
H379 C394 0.930 . S
C380 H368 0.930 . S
C380 C381 1.399 . S
C380 C385 1.399 . S
C381 C380 1.399 . S
C381 C382 1.376 . S
C382 H369 0.930 . S
C382 C381 1.376 . S
C382 C383 1.388 . S
C383 H370 0.930 1_554 S
C383 C382 1.388 . S
C383 C384 1.390 . S
C384 C383 1.390 . S
C384 C385 1.394 . S
C384 C390 1.465 . S
C385 C380 1.399 . S
C385 C384 1.394 . S
C385 C386 1.516 . S
C386 C385 1.516 . S
C386 C387 1.502 . S
C386 C388 1.561 . S
C386 C389 1.526 . S
C387 H371 0.959 . S
C387 H372 0.959 . S
C387 H373 0.961 . S
C387 C386 1.502 . S
C388 H374 0.960 . S
C388 H375 0.961 . S
C388 H376 0.959 . S
C388 C386 1.561 . S
C389 C386 1.526 . S
C389 C390 1.396 . S
C389 C394 1.390 . S
C390 C384 1.465 . S
C390 C389 1.396 . S
C390 C391 1.399 . S
C391 H377 0.929 1_554 S
C391 C390 1.399 . S
C391 C392 1.385 . S
C392 H378 0.931 . S
C392 C391 1.385 . S
C392 C393 1.389 . S
C393 C392 1.389 . S
C393 C394 1.387 . S
C394 H379 0.930 . S
C394 C389 1.390 . S
C394 C393 1.387 . S
H395 C407 0.930 . S
H396 C409 0.930 . S
H397 C410 0.930 . S
H398 C414 0.959 . S
H399 C414 0.959 . S
H400 C414 0.961 . S
H401 C415 0.960 . S
H402 C415 0.961 . S
H403 C415 0.959 . S
H404 C418 0.929 . S
H405 C419 0.931 . S
H406 C421 0.930 . S
C407 H395 0.930 . S
C407 C408 1.399 . S
C407 C412 1.399 . S
C408 C407 1.399 . S
C408 C409 1.376 . S
C409 H396 0.930 . S
C409 C408 1.376 . S
C409 C410 1.388 . S
C410 H397 0.930 . S
C410 C409 1.388 . S
C410 C411 1.390 . S
C411 C410 1.390 . S
C411 C412 1.394 . S
C411 C417 1.465 . S
C412 C407 1.399 . S
C412 C411 1.394 . S
C412 C413 1.516 . S
C413 C412 1.516 . S
C413 C414 1.502 . S
C413 C415 1.561 . S
C413 C416 1.526 . S
C414 H398 0.959 . S
C414 H399 0.959 . S
C414 H400 0.961 . S
C414 C413 1.502 . S
C415 H401 0.960 . S
C415 H402 0.961 . S
C415 H403 0.959 . S
C415 C413 1.561 . S
C416 C413 1.526 . S
C416 C417 1.396 . S
C416 C421 1.390 . S
C417 C411 1.465 . S
C417 C416 1.396 . S
C417 C418 1.399 . S
C418 H404 0.929 . S
C418 C417 1.399 . S
C418 C419 1.385 . S
C419 H405 0.931 . S
C419 C418 1.385 . S
C419 C420 1.389 . S
C420 C419 1.389 . S
C420 C421 1.387 . S
C421 H406 0.930 . S
C421 C416 1.390 . S
C421 C420 1.387 . S
H422 C434 0.930 . S
H423 C436 0.930 . S
H424 C437 0.930 . S
H425 C441 0.959 . S
H426 C441 0.959 . S
H427 C441 0.961 1_455 S
H428 C442 0.960 . S
H429 C442 0.961 1_655 S
H430 C442 0.959 . S
H431 C445 0.929 . S
H432 C446 0.931 . S
H433 C448 0.930 . S
C434 H422 0.930 . S
C434 C435 1.399 . S
C434 C439 1.399 . S
C435 C434 1.399 . S
C435 C436 1.376 . S
C436 H423 0.930 . S
C436 C435 1.376 . S
C436 C437 1.388 . S
C437 H424 0.930 . S
C437 C436 1.388 . S
C437 C438 1.390 . S
C438 C437 1.390 . S
C438 C439 1.394 . S
C438 C444 1.465 1_455 S
C439 C434 1.399 . S
C439 C438 1.394 . S
C439 C440 1.516 1_455 S
C440 C439 1.516 1_655 S
C440 C441 1.502 . S
C440 C442 1.561 1_655 S
C440 C443 1.526 . S
C441 H425 0.959 . S
C441 H426 0.959 . S
C441 H427 0.961 1_655 S
C441 C440 1.502 . S
C442 H428 0.960 . S
C442 H429 0.961 1_455 S
C442 H430 0.959 . S
C442 C440 1.561 1_455 S
C443 C440 1.526 . S
C443 C444 1.396 . S
C443 C448 1.390 . S
C444 C438 1.465 1_655 S
C444 C443 1.396 . S
C444 C445 1.399 . S
C445 H431 0.929 . S
C445 C444 1.399 . S
C445 C446 1.385 . S
C446 H432 0.931 . S
C446 C445 1.385 . S
C446 C447 1.389 . S
C447 C446 1.389 . S
C447 C448 1.387 . S
C448 H433 0.930 . S
C448 C443 1.390 . S
C448 C447 1.387 . S
H449 C461 0.930 . S
H450 C463 0.930 . S
H451 C464 0.930 1_455 S
H452 C468 0.959 . S
H453 C468 0.959 . S
H454 C468 0.961 . S
H455 C469 0.960 . S
H456 C469 0.961 . S
H457 C469 0.959 . S
H458 C472 0.929 . S
H459 C473 0.931 . S
H460 C475 0.930 . S
C461 H449 0.930 . S
C461 C462 1.399 . S
C461 C466 1.399 . S
C462 C461 1.399 . S
C462 C463 1.376 . S
C463 H450 0.930 . S
C463 C462 1.376 . S
C463 C464 1.388 . S
C464 H451 0.930 1_655 S
C464 C463 1.388 . S
C464 C465 1.389 1_655 S
C465 C464 1.389 1_455 S
C465 C466 1.392 1_455 S
C465 C471 1.467 . S
C466 C461 1.399 . S
C466 C465 1.392 1_655 S
C466 C467 1.516 . S
C467 C466 1.516 . S
C467 C468 1.502 . S
C467 C469 1.561 1_655 S
C467 C470 1.526 1_655 S
C468 H452 0.959 . S
C468 H453 0.959 . S
C468 H454 0.961 . S
C468 C467 1.502 . S
C469 H455 0.960 . S
C469 H456 0.961 . S
C469 H457 0.959 . S
C469 C467 1.561 1_455 S
C470 C467 1.526 1_455 S
C470 C471 1.396 . S
C470 C475 1.390 . S
C471 C465 1.467 . S
C471 C470 1.396 . S
C471 C472 1.399 . S
C472 H458 0.929 . S
C472 C471 1.399 . S
C472 C473 1.385 . S
C473 H459 0.931 . S
C473 C472 1.385 . S
C473 C474 1.389 . S
C474 C473 1.389 . S
C474 C475 1.387 . S
C475 H460 0.930 . S
C475 C470 1.390 . S
C475 C474 1.387 . S
H476 C488 0.930 . S
H477 C490 0.930 . S
H478 C491 0.930 . S
H479 C495 0.959 . S
H480 C495 0.959 . S
H481 C495 0.961 . S
H482 C496 0.960 . S
H483 C496 0.961 . S
H484 C496 0.959 . S
H485 C499 0.929 . S
H486 C500 0.931 . S
H487 C502 0.930 . S
C488 H476 0.930 . S
C488 C489 1.399 . S
C488 C493 1.399 . S
C489 C488 1.399 . S
C489 C490 1.376 . S
C490 H477 0.930 . S
C490 C489 1.376 . S
C490 C491 1.388 . S
C491 H478 0.930 . S
C491 C490 1.388 . S
C491 C492 1.390 . S
C492 C491 1.390 . S
C492 C493 1.394 . S
C492 C498 1.465 . S
C493 C488 1.399 . S
C493 C492 1.394 . S
C493 C494 1.516 . S
C494 C493 1.516 . S
C494 C495 1.502 . S
C494 C496 1.561 . S
C494 C497 1.526 . S
C495 H479 0.959 . S
C495 H480 0.959 . S
C495 H481 0.961 . S
C495 C494 1.502 . S
C496 H482 0.960 . S
C496 H483 0.961 . S
C496 H484 0.959 . S
C496 C494 1.561 . S
C497 C494 1.526 . S
C497 C498 1.396 . S
C497 C502 1.390 . S
C498 C492 1.465 . S
C498 C497 1.396 . S
C498 C499 1.399 . S
C499 H485 0.929 . S
C499 C498 1.399 . S
C499 C500 1.385 . S
C500 H486 0.931 . S
C500 C499 1.385 . S
C500 C501 1.389 . S
C501 C500 1.389 . S
C501 C502 1.387 . S
C502 H487 0.930 . S
C502 C497 1.390 . S
C502 C501 1.387 . S
H503 C515 0.930 . S
H504 C517 0.930 . S
H505 C518 0.930 . S
H506 C522 0.959 . S
H507 C522 0.959 . S
H508 C522 0.961 . S
H509 C523 0.960 . S
H510 C523 0.961 . S
H511 C523 0.959 . S
H512 C526 0.929 . S
H513 C527 0.931 . S
H514 C529 0.930 . S
C515 H503 0.930 . S
C515 C516 1.399 . S
C515 C520 1.399 . S
C516 C515 1.399 . S
C516 C517 1.376 . S
C517 H504 0.930 . S
C517 C516 1.376 . S
C517 C518 1.388 . S
C518 H505 0.930 . S
C518 C517 1.388 . S
C518 C519 1.390 . S
C519 C518 1.390 . S
C519 C520 1.394 . S
C519 C525 1.465 . S
C520 C515 1.399 . S
C520 C519 1.394 . S
C520 C521 1.516 . S
C521 C520 1.516 . S
C521 C522 1.502 . S
C521 C523 1.561 . S
C521 C524 1.526 . S
C522 H506 0.959 . S
C522 H507 0.959 . S
C522 H508 0.961 . S
C522 C521 1.502 . S
C523 H509 0.960 . S
C523 H510 0.961 . S
C523 H511 0.959 . S
C523 C521 1.561 . S
C524 C521 1.526 . S
C524 C525 1.396 . S
C524 C529 1.390 . S
C525 C519 1.465 . S
C525 C524 1.396 . S
C525 C526 1.399 . S
C526 H512 0.929 . S
C526 C525 1.399 . S
C526 C527 1.385 . S
C527 H513 0.931 . S
C527 C526 1.385 . S
C527 C528 1.389 . S
C528 C527 1.389 . S
C528 C529 1.387 . S
C529 H514 0.930 . S
C529 C524 1.390 . S
C529 C528 1.387 . S
H530 C542 0.930 . S
H531 C544 0.930 . S
H532 C545 0.930 . S
H533 C549 0.959 . S
H534 C549 0.959 . S
H535 C549 0.961 . S
H536 C550 0.960 . S
H537 C550 0.961 1_455 S
H538 C550 0.959 1_455 S
H539 C553 0.929 . S
H540 C554 0.931 . S
H541 C556 0.930 . S
C542 H530 0.930 . S
C542 C543 1.399 . S
C542 C547 1.399 . S
C543 C542 1.399 . S
C543 C544 1.376 . S
C544 H531 0.930 . S
C544 C543 1.376 . S
C544 C545 1.388 . S
C545 H532 0.930 . S
C545 C544 1.388 . S
C545 C546 1.390 . S
C546 C545 1.390 . S
C546 C547 1.394 . S
C546 C552 1.465 1_655 S
C547 C542 1.399 . S
C547 C546 1.394 . S
C547 C548 1.516 . S
C548 C547 1.516 . S
C548 C549 1.502 . S
C548 C550 1.561 . S
C548 C551 1.526 1_655 S
C549 H533 0.959 . S
C549 H534 0.959 . S
C549 H535 0.961 . S
C549 C548 1.502 . S
C550 H536 0.960 . S
C550 H537 0.961 1_655 S
C550 H538 0.959 1_655 S
C550 C548 1.561 . S
C551 C548 1.526 1_455 S
C551 C552 1.396 . S
C551 C556 1.390 . S
C552 C546 1.465 1_455 S
C552 C551 1.396 . S
C552 C553 1.399 . S
C553 H539 0.929 . S
C553 C552 1.399 . S
C553 C554 1.385 . S
C554 H540 0.931 . S
C554 C553 1.385 . S
C554 C555 1.389 . S
C555 C554 1.389 . S
C555 C556 1.387 . S
C556 H541 0.930 . S
C556 C551 1.390 . S
C556 C555 1.387 . S
H557 C569 0.930 . S
H558 C571 0.930 . S
H559 C572 0.935 . S
H560 C576 0.959 . S
H561 C576 0.959 . S
H562 C576 0.961 . S
H563 C577 0.960 . S
H564 C577 0.961 . S
H565 C577 0.959 . S
H566 C580 0.929 . S
H567 C581 0.931 . S
H568 C583 0.930 . S
C569 H557 0.930 . S
C569 C570 1.399 . S
C569 C574 1.399 . S
C570 C569 1.399 . S
C570 C571 1.376 . S
C571 H558 0.930 . S
C571 C570 1.376 . S
C571 C572 1.383 1_455 S
C572 H559 0.935 . S
C572 C571 1.383 1_655 S
C572 C573 1.390 . S
C573 C572 1.390 . S
C573 C574 1.394 1_655 S
C573 C579 1.465 . S
C574 C569 1.399 . S
C574 C573 1.394 1_455 S
C574 C575 1.516 . S
C575 C574 1.516 . S
C575 C576 1.502 . S
C575 C577 1.561 1_455 S
C575 C578 1.526 1_455 S
C576 H560 0.959 . S
C576 H561 0.959 . S
C576 H562 0.961 . S
C576 C575 1.502 . S
C577 H563 0.960 . S
C577 H564 0.961 . S
C577 H565 0.959 . S
C577 C575 1.561 1_655 S
C578 C575 1.526 1_655 S
C578 C579 1.396 . S
C578 C583 1.390 . S
C579 C573 1.465 . S
C579 C578 1.396 . S
C579 C580 1.399 . S
C580 H566 0.929 . S
C580 C579 1.399 . S
C580 C581 1.385 . S
C581 H567 0.931 . S
C581 C580 1.385 . S
C581 C582 1.389 . S
C582 C581 1.389 . S
C582 C583 1.387 . S
C583 H568 0.930 . S
C583 C578 1.390 . S
C583 C582 1.387 . S
H584 C596 0.930 . S
H585 C598 0.930 . S
H586 C599 0.930 . S
H587 C603 0.959 . S
H588 C603 0.959 . S
H589 C603 0.961 . S
H590 C604 0.960 . S
H591 C604 0.961 . S
H592 C604 0.959 . S
H593 C607 0.929 . S
H594 C608 0.931 . S
H595 C610 0.930 . S
C596 H584 0.930 . S
C596 C597 1.399 . S
C596 C601 1.399 . S
C597 C596 1.399 . S
C597 C598 1.376 . S
C598 H585 0.930 . S
C598 C597 1.376 . S
C598 C599 1.388 . S
C599 H586 0.930 . S
C599 C598 1.388 . S
C599 C600 1.390 . S
C600 C599 1.390 . S
C600 C601 1.394 . S
C600 C606 1.465 . S
C601 C596 1.399 . S
C601 C600 1.394 . S
C601 C602 1.516 . S
C602 C601 1.516 . S
C602 C603 1.502 . S
C602 C604 1.561 . S
C602 C605 1.526 . S
C603 H587 0.959 . S
C603 H588 0.959 . S
C603 H589 0.961 . S
C603 C602 1.502 . S
C604 H590 0.960 . S
C604 H591 0.961 . S
C604 H592 0.959 . S
C604 C602 1.561 . S
C605 C602 1.526 . S
C605 C606 1.396 . S
C605 C610 1.390 . S
C606 C600 1.465 . S
C606 C605 1.396 . S
C606 C607 1.399 . S
C607 H593 0.929 . S
C607 C606 1.399 . S
C607 C608 1.385 . S
C608 H594 0.931 . S
C608 C607 1.385 . S
C608 C609 1.389 . S
C609 C608 1.389 . S
C609 C610 1.387 . S
C610 H595 0.930 . S
C610 C605 1.390 . S
C610 C609 1.387 . S
H611 C623 0.930 . S
H612 C625 0.930 . S
H613 C626 0.930 . S
H614 C630 0.959 . S
H615 C630 0.959 . S
H616 C630 0.961 . S
H617 C631 0.960 . S
H618 C631 0.961 . S
H619 C631 0.959 . S
H620 C634 0.929 . S
H621 C635 0.931 . S
H622 C637 0.930 . S
C623 H611 0.930 . S
C623 C624 1.399 . S
C623 C628 1.399 . S
C624 C623 1.399 . S
C624 C625 1.376 . S
C625 H612 0.930 . S
C625 C624 1.376 . S
C625 C626 1.388 . S
C626 H613 0.930 . S
C626 C625 1.388 . S
C626 C627 1.390 . S
C627 C626 1.390 . S
C627 C628 1.394 . S
C627 C633 1.465 . S
C628 C623 1.399 . S
C628 C627 1.394 . S
C628 C629 1.516 . S
C629 C628 1.516 . S
C629 C630 1.502 . S
C629 C631 1.561 . S
C629 C632 1.526 . S
C630 H614 0.959 . S
C630 H615 0.959 . S
C630 H616 0.961 . S
C630 C629 1.502 . S
C631 H617 0.960 . S
C631 H618 0.961 . S
C631 H619 0.959 . S
C631 C629 1.561 . S
C632 C629 1.526 . S
C632 C633 1.396 . S
C632 C637 1.390 . S
C633 C627 1.465 . S
C633 C632 1.396 . S
C633 C634 1.399 . S
C634 H620 0.929 . S
C634 C633 1.399 . S
C634 C635 1.385 . S
C635 H621 0.931 . S
C635 C634 1.385 . S
C635 C636 1.389 . S
C636 C635 1.389 . S
C636 C637 1.387 . S
C637 H622 0.930 . S
C637 C632 1.390 . S
C637 C636 1.387 . S
H638 C650 0.930 . S
H639 C652 0.930 . S
H640 C653 0.930 . S
H641 C657 0.959 . S
H642 C657 0.959 . S
H643 C657 0.961 . S
H644 C658 0.960 . S
H645 C658 0.961 . S
H646 C658 0.959 . S
H647 C661 0.929 . S
H648 C662 0.931 . S
H649 C664 0.930 . S
C650 H638 0.930 . S
C650 C651 1.399 . S
C650 C655 1.399 . S
C651 C650 1.399 . S
C651 C652 1.376 . S
C652 H639 0.930 . S
C652 C651 1.376 . S
C652 C653 1.388 . S
C653 H640 0.930 . S
C653 C652 1.388 . S
C653 C654 1.390 . S
C654 C653 1.390 . S
C654 C655 1.394 . S
C654 C660 1.465 . S
C655 C650 1.399 . S
C655 C654 1.394 . S
C655 C656 1.516 . S
C656 C655 1.516 . S
C656 C657 1.502 . S
C656 C658 1.561 . S
C656 C659 1.526 . S
C657 H641 0.959 . S
C657 H642 0.959 . S
C657 H643 0.961 . S
C657 C656 1.502 . S
C658 H644 0.960 . S
C658 H645 0.961 . S
C658 H646 0.959 . S
C658 C656 1.561 . S
C659 C656 1.526 . S
C659 C660 1.396 . S
C659 C664 1.390 . S
C660 C654 1.465 . S
C660 C659 1.396 . S
C660 C661 1.399 . S
C661 H647 0.929 . S
C661 C660 1.399 . S
C661 C662 1.385 . S
C662 H648 0.931 . S
C662 C661 1.385 . S
C662 C663 1.389 . S
C663 C662 1.389 . S
C663 C664 1.387 . S
C664 H649 0.930 . S
C664 C659 1.390 . S
C664 C663 1.387 . S
H665 C677 0.930 . S
H666 C679 0.930 . S
H667 C680 0.930 . S
H668 C684 0.959 . S
H669 C684 0.959 . S
H670 C684 0.961 . S
H671 C685 0.960 . S
H672 C685 0.961 . S
H673 C685 0.959 . S
H674 C688 0.929 . S
H675 C689 0.931 . S
H676 C691 0.930 . S
C677 H665 0.930 . S
C677 C678 1.399 . S
C677 C682 1.399 . S
C678 C677 1.399 . S
C678 C679 1.376 . S
C679 H666 0.930 . S
C679 C678 1.376 . S
C679 C680 1.388 . S
C680 H667 0.930 . S
C680 C679 1.388 . S
C680 C681 1.390 . S
C681 C680 1.390 . S
C681 C682 1.394 . S
C681 C687 1.465 . S
C682 C677 1.399 . S
C682 C681 1.394 . S
C682 C683 1.516 . S
C683 C682 1.516 . S
C683 C684 1.502 . S
C683 C685 1.561 . S
C683 C686 1.526 . S
C684 H668 0.959 . S
C684 H669 0.959 . S
C684 H670 0.961 . S
C684 C683 1.502 . S
C685 H671 0.960 . S
C685 H672 0.961 . S
C685 H673 0.959 . S
C685 C683 1.561 . S
C686 C683 1.526 . S
C686 C687 1.396 . S
C686 C691 1.390 . S
C687 C681 1.465 . S
C687 C686 1.396 . S
C687 C688 1.399 . S
C688 H674 0.929 . S
C688 C687 1.399 . S
C688 C689 1.385 . S
C689 H675 0.931 . S
C689 C688 1.385 . S
C689 C690 1.389 . S
C690 C689 1.389 . S
C690 C691 1.387 . S
C691 H676 0.930 . S
C691 C686 1.390 . S
C691 C690 1.387 . S
H692 C704 0.930 . S
H693 C706 0.930 . S
H694 C707 0.930 1_556 S
H695 C711 0.959 . S
H696 C711 0.959 . S
H697 C711 0.961 . S
H698 C712 0.960 . S
H699 C712 0.961 . S
H700 C712 0.959 . S
H701 C715 0.929 . S
H702 C716 0.931 . S
H703 C718 0.930 . S
C704 H692 0.930 . S
C704 C705 1.399 . S
C704 C709 1.399 . S
C705 C704 1.399 . S
C705 C706 1.376 1_554 S
C706 H693 0.930 . S
C706 C705 1.376 1_556 S
C706 C707 1.388 1_556 S
C707 H694 0.930 1_554 S
C707 C706 1.388 1_554 S
C707 C708 1.390 . S
C708 C707 1.390 . S
C708 C709 1.394 . S
C708 C714 1.465 . S
C709 C704 1.399 . S
C709 C708 1.394 . S
C709 C710 1.516 . S
C710 C709 1.516 . S
C710 C711 1.502 . S
C710 C712 1.561 . S
C710 C713 1.526 . S
C711 H695 0.959 . S
C711 H696 0.959 . S
C711 H697 0.961 . S
C711 C710 1.502 . S
C712 H698 0.960 . S
C712 H699 0.961 . S
C712 H700 0.959 . S
C712 C710 1.561 . S
C713 C710 1.526 . S
C713 C714 1.396 . S
C713 C718 1.390 . S
C714 C708 1.465 . S
C714 C713 1.396 . S
C714 C715 1.399 . S
C715 H701 0.929 . S
C715 C714 1.399 . S
C715 C716 1.385 . S
C716 H702 0.931 . S
C716 C715 1.385 . S
C716 C717 1.389 . S
C717 C716 1.389 . S
C717 C718 1.387 . S
C718 H703 0.930 . S
C718 C713 1.390 . S
C718 C717 1.387 . S
H719 C731 0.930 . S
H720 C733 0.930 . S
H721 C734 0.930 . S
H722 C738 0.959 . S
H723 C738 0.959 . S
H724 C738 0.961 . S
H725 C739 0.960 . S
H726 C739 0.961 . S
H727 C739 0.959 . S
H728 C742 0.929 . S
H729 C743 0.931 . S
H730 C745 0.930 . S
C731 H719 0.930 . S
C731 C732 1.399 . S
C731 C736 1.399 . S
C732 C731 1.399 . S
C732 C733 1.376 . S
C733 H720 0.930 . S
C733 C732 1.376 . S
C733 C734 1.388 . S
C734 H721 0.930 . S
C734 C733 1.388 . S
C734 C735 1.390 . S
C735 C734 1.390 . S
C735 C736 1.394 . S
C735 C741 1.465 . S
C736 C731 1.399 . S
C736 C735 1.394 . S
C736 C737 1.516 . S
C737 C736 1.516 . S
C737 C738 1.502 . S
C737 C739 1.561 . S
C737 C740 1.526 . S
C738 H722 0.959 . S
C738 H723 0.959 . S
C738 H724 0.961 . S
C738 C737 1.502 . S
C739 H725 0.960 . S
C739 H726 0.961 . S
C739 H727 0.959 . S
C739 C737 1.561 . S
C740 C737 1.526 . S
C740 C741 1.396 . S
C740 C745 1.390 . S
C741 C735 1.465 . S
C741 C740 1.396 . S
C741 C742 1.399 . S
C742 H728 0.929 . S
C742 C741 1.399 . S
C742 C743 1.385 . S
C743 H729 0.931 . S
C743 C742 1.385 . S
C743 C744 1.389 . S
C744 C743 1.389 . S
C744 C745 1.387 . S
C745 H730 0.930 . S
C745 C740 1.390 . S
C745 C744 1.387 . S
H746 C758 0.930 . S
H747 C760 0.930 . S
H748 C761 0.930 . S
H749 C765 0.959 . S
H750 C765 0.959 . S
H751 C765 0.961 . S
H752 C766 0.960 . S
H753 C766 0.961 . S
H754 C766 0.959 . S
H755 C769 0.929 . S
H756 C770 0.931 . S
H757 C772 0.930 . S
C758 H746 0.930 . S
C758 C759 1.399 . S
C758 C763 1.399 . S
C759 C758 1.399 . S
C759 C760 1.376 . S
C760 H747 0.930 . S
C760 C759 1.376 . S
C760 C761 1.388 . S
C761 H748 0.930 . S
C761 C760 1.388 . S
C761 C762 1.390 . S
C762 C761 1.390 . S
C762 C763 1.394 . S
C762 C768 1.465 . S
C763 C758 1.399 . S
C763 C762 1.394 . S
C763 C764 1.516 . S
C764 C763 1.516 . S
C764 C765 1.502 . S
C764 C766 1.561 . S
C764 C767 1.526 . S
C765 H749 0.959 . S
C765 H750 0.959 . S
C765 H751 0.961 . S
C765 C764 1.502 . S
C766 H752 0.960 . S
C766 H753 0.961 . S
C766 H754 0.959 . S
C766 C764 1.561 . S
C767 C764 1.526 . S
C767 C768 1.396 . S
C767 C772 1.390 . S
C768 C762 1.465 . S
C768 C767 1.396 . S
C768 C769 1.399 . S
C769 H755 0.929 . S
C769 C768 1.399 . S
C769 C770 1.385 . S
C770 H756 0.931 . S
C770 C769 1.385 . S
C770 C771 1.389 . S
C771 C770 1.389 . S
C771 C772 1.387 . S
C772 H757 0.930 . S
C772 C767 1.390 . S
C772 C771 1.387 . S
H773 C785 0.930 . S
H774 C787 0.930 . S
H775 C788 0.930 . S
H776 C792 0.959 . S
H777 C792 0.959 . S
H778 C792 0.961 . S
H779 C793 0.960 . S
H780 C793 0.961 . S
H781 C793 0.959 . S
H782 C796 0.929 . S
H783 C797 0.931 . S
H784 C799 0.930 . S
C785 H773 0.930 . S
C785 C786 1.399 . S
C785 C790 1.399 . S
C786 C785 1.399 . S
C786 C787 1.376 . S
C787 H774 0.930 . S
C787 C786 1.376 . S
C787 C788 1.388 . S
C788 H775 0.930 . S
C788 C787 1.388 . S
C788 C789 1.390 . S
C789 C788 1.390 . S
C789 C790 1.394 . S
C789 C795 1.465 . S
C790 C785 1.399 . S
C790 C789 1.394 . S
C790 C791 1.516 . S
C791 C790 1.516 . S
C791 C792 1.502 . S
C791 C793 1.561 . S
C791 C794 1.526 . S
C792 H776 0.959 . S
C792 H777 0.959 . S
C792 H778 0.961 . S
C792 C791 1.502 . S
C793 H779 0.960 . S
C793 H780 0.961 . S
C793 H781 0.959 . S
C793 C791 1.561 . S
C794 C791 1.526 . S
C794 C795 1.396 . S
C794 C799 1.390 . S
C795 C789 1.465 . S
C795 C794 1.396 . S
C795 C796 1.399 . S
C796 H782 0.929 . S
C796 C795 1.399 . S
C796 C797 1.385 . S
C797 H783 0.931 . S
C797 C796 1.385 . S
C797 C798 1.389 . S
C798 C797 1.389 . S
C798 C799 1.387 . S
C799 H784 0.930 . S
C799 C794 1.390 . S
C799 C798 1.387 . S
H800 C812 0.930 . S
H801 C814 0.930 . S
H802 C815 0.930 . S
H803 C819 0.959 . S
H804 C819 0.959 . S
H805 C819 0.961 . S
H806 C820 0.960 . S
H807 C820 0.961 . S
H808 C820 0.959 . S
H809 C823 0.929 . S
H810 C824 0.931 . S
H811 C826 0.930 . S
C812 H800 0.930 . S
C812 C813 1.399 . S
C812 C817 1.399 . S
C813 C812 1.399 . S
C813 C814 1.376 . S
C814 H801 0.930 . S
C814 C813 1.376 . S
C814 C815 1.388 . S
C815 H802 0.930 . S
C815 C814 1.388 . S
C815 C816 1.390 . S
C816 C815 1.390 . S
C816 C817 1.394 . S
C816 C822 1.465 . S
C817 C812 1.399 . S
C817 C816 1.394 . S
C817 C818 1.516 . S
C818 C817 1.516 . S
C818 C819 1.502 . S
C818 C820 1.561 . S
C818 C821 1.526 . S
C819 H803 0.959 . S
C819 H804 0.959 . S
C819 H805 0.961 . S
C819 C818 1.502 . S
C820 H806 0.960 . S
C820 H807 0.961 . S
C820 H808 0.959 . S
C820 C818 1.561 . S
C821 C818 1.526 . S
C821 C822 1.396 . S
C821 C826 1.390 . S
C822 C816 1.465 . S
C822 C821 1.396 . S
C822 C823 1.399 . S
C823 H809 0.929 . S
C823 C822 1.399 . S
C823 C824 1.385 . S
C824 H810 0.931 . S
C824 C823 1.385 . S
C824 C825 1.389 . S
C825 C824 1.389 . S
C825 C826 1.387 . S
C826 H811 0.930 . S
C826 C821 1.390 . S
C826 C825 1.387 . S
H827 C839 0.930 . S
H828 C841 0.930 . S
H829 C842 0.930 . S
H830 C846 0.959 . S
H831 C846 0.959 . S
H832 C846 0.961 . S
H833 C847 0.960 . S
H834 C847 0.961 . S
H835 C847 0.959 . S
H836 C850 0.929 . S
H837 C851 0.931 . S
H838 C853 0.930 . S
C839 H827 0.930 . S
C839 C840 1.399 1_565 S
C839 C844 1.399 . S
C840 C839 1.399 1_545 S
C840 C841 1.376 . S
C841 H828 0.930 . S
C841 C840 1.376 . S
C841 C842 1.388 . S
C842 H829 0.930 . S
C842 C841 1.388 . S
C842 C843 1.390 1_545 S
C843 C842 1.390 1_565 S
C843 C844 1.394 . S
C843 C849 1.465 . S
C844 C839 1.399 . S
C844 C843 1.394 . S
C844 C845 1.516 . S
C845 C844 1.516 . S
C845 C846 1.502 . S
C845 C847 1.561 . S
C845 C848 1.526 . S
C846 H830 0.959 . S
C846 H831 0.959 . S
C846 H832 0.961 . S
C846 C845 1.502 . S
C847 H833 0.960 . S
C847 H834 0.961 . S
C847 H835 0.959 . S
C847 C845 1.561 . S
C848 C845 1.526 . S
C848 C849 1.396 . S
C848 C853 1.390 . S
C849 C843 1.465 . S
C849 C848 1.396 . S
C849 C850 1.399 . S
C850 H836 0.929 . S
C850 C849 1.399 . S
C850 C851 1.385 . S
C851 H837 0.931 . S
C851 C850 1.385 . S
C851 C852 1.389 . S
C852 C851 1.389 . S
C852 C853 1.387 . S
C853 H838 0.930 . S
C853 C848 1.390 . S
C853 C852 1.387 . S
H854 C866 0.930 . S
H855 C868 0.930 1_554 S
H856 C869 0.930 . S
H857 C873 0.959 . S
H858 C873 0.959 . S
H859 C873 0.961 . S
H860 C874 0.960 . S
H861 C874 0.961 . S
H862 C874 0.959 . S
H863 C877 0.929 . S
H864 C878 0.931 . S
H865 C880 0.930 . S
C866 H854 0.930 . S
C866 C867 1.399 . S
C866 C871 1.399 . S
C867 C866 1.399 . S
C867 C868 1.376 . S
C868 H855 0.930 1_556 S
C868 C867 1.376 . S
C868 C869 1.388 . S
C869 H856 0.930 . S
C869 C868 1.388 . S
C869 C870 1.390 . S
C870 C869 1.390 . S
C870 C871 1.394 . S
C870 C876 1.465 . S
C871 C866 1.399 . S
C871 C870 1.394 . S
C871 C872 1.516 . S
C872 C871 1.516 . S
C872 C873 1.502 . S
C872 C874 1.561 . S
C872 C875 1.526 . S
C873 H857 0.959 . S
C873 H858 0.959 . S
C873 H859 0.961 . S
C873 C872 1.502 . S
C874 H860 0.960 . S
C874 H861 0.961 . S
C874 H862 0.959 . S
C874 C872 1.561 . S
C875 C872 1.526 . S
C875 C876 1.396 . S
C875 C880 1.390 . S
C876 C870 1.465 . S
C876 C875 1.396 . S
C876 C877 1.399 . S
C877 H863 0.929 . S
C877 C876 1.399 . S
C877 C878 1.385 . S
C878 H864 0.931 . S
C878 C877 1.385 . S
C878 C879 1.389 . S
C879 C878 1.389 . S
C879 C880 1.387 . S
C880 H865 0.930 . S
C880 C875 1.390 . S
C880 C879 1.387 . S
H881 C893 0.930 . S
H882 C895 0.930 . S
H883 C896 0.930 . S
H884 C900 0.959 . S
H885 C900 0.959 . S
H886 C900 0.961 . S
H887 C901 0.960 . S
H888 C901 0.961 . S
H889 C901 0.959 . S
H890 C904 0.929 . S
H891 C905 0.931 . S
H892 C907 0.930 . S
C893 H881 0.930 . S
C893 C894 1.421 . S
C893 C898 1.377 1_565 S
C894 C893 1.421 . S
C894 C895 1.376 . S
C895 H882 0.930 . S
C895 C894 1.376 . S
C895 C896 1.385 1_565 S
C896 H883 0.930 . S
C896 C895 1.385 1_545 S
C896 C897 1.393 . S
C897 C896 1.393 . S
C897 C898 1.394 . S
C897 C903 1.465 . S
C898 C893 1.377 1_545 S
C898 C897 1.394 . S
C898 C899 1.516 . S
C899 C898 1.516 . S
C899 C900 1.502 . S
C899 C901 1.561 . S
C899 C902 1.526 . S
C900 H884 0.959 . S
C900 H885 0.959 . S
C900 H886 0.961 . S
C900 C899 1.502 . S
C901 H887 0.960 . S
C901 H888 0.961 . S
C901 H889 0.959 . S
C901 C899 1.561 . S
C902 C899 1.526 . S
C902 C903 1.396 . S
C902 C907 1.390 . S
C903 C897 1.465 . S
C903 C902 1.396 . S
C903 C904 1.399 . S
C904 H890 0.929 . S
C904 C903 1.399 . S
C904 C905 1.385 . S
C905 H891 0.931 . S
C905 C904 1.385 . S
C905 C906 1.389 . S
C906 C905 1.389 . S
C906 C907 1.387 . S
C907 H892 0.930 . S
C907 C902 1.390 . S
C907 C906 1.387 . S
H908 C920 0.930 . S
H909 C922 0.930 . S
H910 C923 0.930 . S
H911 C927 0.959 . S
H912 C927 0.959 . S
H913 C927 0.961 . S
H914 C928 0.960 . S
H915 C928 0.961 . S
H916 C928 0.959 . S
H917 C931 0.929 . S
H918 C932 0.931 . S
H919 C934 0.930 . S
C920 H908 0.930 . S
C920 C921 1.399 . S
C920 C925 1.399 . S
C921 C920 1.399 . S
C921 C922 1.376 . S
C922 H909 0.930 . S
C922 C921 1.376 . S
C922 C923 1.388 . S
C923 H910 0.930 . S
C923 C922 1.388 . S
C923 C924 1.390 . S
C924 C923 1.390 . S
C924 C925 1.394 . S
C924 C930 1.465 . S
C925 C920 1.399 . S
C925 C924 1.394 . S
C925 C926 1.516 . S
C926 C925 1.516 . S
C926 C927 1.502 . S
C926 C928 1.561 . S
C926 C929 1.526 . S
C927 H911 0.959 . S
C927 H912 0.959 . S
C927 H913 0.961 . S
C927 C926 1.502 . S
C928 H914 0.960 . S
C928 H915 0.961 . S
C928 H916 0.959 . S
C928 C926 1.561 . S
C929 C926 1.526 . S
C929 C930 1.396 . S
C929 C934 1.390 . S
C930 C924 1.465 . S
C930 C929 1.396 . S
C930 C931 1.399 . S
C931 H917 0.929 . S
C931 C930 1.399 . S
C931 C932 1.385 . S
C932 H918 0.931 . S
C932 C931 1.385 . S
C932 C933 1.389 . S
C933 C932 1.389 . S
C933 C934 1.387 . S
C934 H919 0.930 . S
C934 C929 1.390 . S
C934 C933 1.387 . S
H935 C947 0.930 . S
H936 C949 0.930 . S
H937 C950 0.930 . S
H938 C954 0.959 . S
H939 C954 0.959 . S
H940 C954 0.961 . S
H941 C955 0.960 . S
H942 C955 0.961 . S
H943 C955 0.959 . S
H944 C958 0.929 . S
H945 C959 0.931 . S
H946 C961 0.930 . S
C947 H935 0.930 . S
C947 C948 1.399 . S
C947 C952 1.399 . S
C948 C947 1.399 . S
C948 C949 1.376 . S
C949 H936 0.930 . S
C949 C948 1.376 . S
C949 C950 1.388 . S
C950 H937 0.930 . S
C950 C949 1.388 . S
C950 C951 1.390 . S
C951 C950 1.390 . S
C951 C952 1.394 . S
C951 C957 1.465 . S
C952 C947 1.399 . S
C952 C951 1.394 . S
C952 C953 1.516 . S
C953 C952 1.516 . S
C953 C954 1.502 . S
C953 C955 1.561 . S
C953 C956 1.526 . S
C954 H938 0.959 . S
C954 H939 0.959 . S
C954 H940 0.961 . S
C954 C953 1.502 . S
C955 H941 0.960 . S
C955 H942 0.961 . S
C955 H943 0.959 . S
C955 C953 1.561 . S
C956 C953 1.526 . S
C956 C957 1.396 . S
C956 C961 1.390 . S
C957 C951 1.465 . S
C957 C956 1.396 . S
C957 C958 1.399 . S
C958 H944 0.929 . S
C958 C957 1.399 . S
C958 C959 1.385 1_545 S
C959 H945 0.931 . S
C959 C958 1.385 1_565 S
C959 C960 1.389 . S
C960 C959 1.389 . S
C960 C961 1.387 1_565 S
C961 H946 0.930 . S
C961 C956 1.390 . S
C961 C960 1.387 1_545 S
H962 C974 0.930 . S
H963 C976 0.930 . S
H964 C977 0.930 . S
H965 C981 0.959 . S
H966 C981 0.959 . S
H967 C981 0.961 . S
H968 C982 0.960 . S
H969 C982 0.961 . S
H970 C982 0.959 . S
H971 C985 0.929 . S
H972 C986 0.931 . S
H973 C988 0.930 . S
C974 H962 0.930 . S
C974 C975 1.399 . S
C974 C979 1.399 . S
C975 C974 1.399 . S
C975 C976 1.376 . S
C976 H963 0.930 . S
C976 C975 1.376 . S
C976 C977 1.388 . S
C977 H964 0.930 . S
C977 C976 1.388 . S
C977 C978 1.390 . S
C978 C977 1.390 . S
C978 C979 1.394 . S
C978 C984 1.465 . S
C979 C974 1.399 . S
C979 C978 1.394 . S
C979 C980 1.516 . S
C980 C979 1.516 . S
C980 C981 1.502 . S
C980 C982 1.561 . S
C980 C983 1.526 . S
C981 H965 0.959 . S
C981 H966 0.959 . S
C981 H967 0.961 . S
C981 C980 1.502 . S
C982 H968 0.960 . S
C982 H969 0.961 . S
C982 H970 0.959 . S
C982 C980 1.561 . S
C983 C980 1.526 . S
C983 C984 1.396 . S
C983 C988 1.390 . S
C984 C978 1.465 . S
C984 C983 1.396 . S
C984 C985 1.399 . S
C985 H971 0.929 . S
C985 C984 1.399 . S
C985 C986 1.385 . S
C986 H972 0.931 . S
C986 C985 1.385 . S
C986 C987 1.389 . S
C987 C986 1.389 . S
C987 C988 1.387 . S
C988 H973 0.930 . S
C988 C983 1.390 . S
C988 C987 1.387 . S
H989 C1001 0.930 . S
H990 C1003 0.930 . S
H991 C1004 0.930 . S
H992 C1008 0.959 . S
H993 C1008 0.959 . S
H994 C1008 0.961 . S
H995 C1009 0.960 . S
H996 C1009 0.961 . S
H997 C1009 0.959 . S
H998 C1012 0.929 . S
H999 C1013 0.931 . S
H1000 C1015 0.930 . S
C1001 H989 0.930 . S
C1001 C1002 1.399 1_565 S
C1001 C1006 1.399 . S
C1002 C1001 1.399 1_545 S
C1002 C1003 1.376 . S
C1003 H990 0.930 . S
C1003 C1002 1.376 . S
C1003 C1004 1.388 1_545 S
C1004 H991 0.930 . S
C1004 C1003 1.388 1_565 S
C1004 C1005 1.390 . S
C1005 C1004 1.390 . S
C1005 C1006 1.394 . S
C1005 C1011 1.465 . S
C1006 C1001 1.399 . S
C1006 C1005 1.394 . S
C1006 C1007 1.516 . S
C1007 C1006 1.516 . S
C1007 C1008 1.502 . S
C1007 C1009 1.561 . S
C1007 C1010 1.526 . S
C1008 H992 0.959 . S
C1008 H993 0.959 . S
C1008 H994 0.961 . S
C1008 C1007 1.502 . S
C1009 H995 0.960 . S
C1009 H996 0.961 . S
C1009 H997 0.959 . S
C1009 C1007 1.561 . S
C1010 C1007 1.526 . S
C1010 C1011 1.396 . S
C1010 C1015 1.390 . S
C1011 C1005 1.465 . S
C1011 C1010 1.396 . S
C1011 C1012 1.399 . S
C1012 H998 0.929 . S
C1012 C1011 1.399 . S
C1012 C1013 1.385 . S
C1013 H999 0.931 . S
C1013 C1012 1.385 . S
C1013 C1014 1.389 . S
C1014 C1013 1.389 . S
C1014 C1015 1.387 . S
C1015 H1000 0.930 . S
C1015 C1010 1.390 . S
C1015 C1014 1.387 . S
H1016 C1028 0.930 . S
H1017 C1030 0.930 . S
H1018 C1031 0.930 . S
H1019 C1035 0.959 . S
H1020 C1035 0.959 . S
H1021 C1035 0.961 . S
H1022 C1036 0.960 . S
H1023 C1036 0.961 . S
H1024 C1036 0.959 . S
H1025 C1039 0.929 . S
H1026 C1040 0.931 . S
H1027 C1042 0.930 . S
C1028 H1016 0.930 . S
C1028 C1029 1.399 . S
C1028 C1033 1.399 . S
C1029 C1028 1.399 . S
C1029 C1030 1.376 . S
C1030 H1017 0.930 . S
C1030 C1029 1.376 . S
C1030 C1031 1.388 . S
C1031 H1018 0.930 . S
C1031 C1030 1.388 . S
C1031 C1032 1.390 . S
C1032 C1031 1.390 . S
C1032 C1033 1.394 . S
C1032 C1038 1.465 . S
C1033 C1028 1.399 . S
C1033 C1032 1.394 . S
C1033 C1034 1.516 . S
C1034 C1033 1.516 . S
C1034 C1035 1.502 . S
C1034 C1036 1.561 . S
C1034 C1037 1.526 . S
C1035 H1019 0.959 . S
C1035 H1020 0.959 . S
C1035 H1021 0.961 . S
C1035 C1034 1.502 . S
C1036 H1022 0.960 . S
C1036 H1023 0.961 . S
C1036 H1024 0.959 . S
C1036 C1034 1.561 . S
C1037 C1034 1.526 . S
C1037 C1038 1.396 . S
C1037 C1042 1.390 . S
C1038 C1032 1.465 . S
C1038 C1037 1.396 . S
C1038 C1039 1.399 . S
C1039 H1025 0.929 . S
C1039 C1038 1.399 . S
C1039 C1040 1.385 . S
C1040 H1026 0.931 . S
C1040 C1039 1.385 . S
C1040 C1041 1.389 . S
C1041 C1040 1.389 . S
C1041 C1042 1.387 . S
C1042 H1027 0.930 . S
C1042 C1037 1.390 . S
C1042 C1041 1.387 . S
H1043 C1055 0.930 . S
H1044 C1057 0.930 . S
H1045 C1058 0.930 . S
H1046 C1062 0.959 . S
H1047 C1062 0.959 . S
H1048 C1062 0.961 . S
H1049 C1063 0.960 . S
H1050 C1063 0.961 . S
H1051 C1063 0.959 . S
H1052 C1066 0.929 . S
H1053 C1067 0.931 . S
H1054 C1069 0.930 . S
C1055 H1043 0.930 . S
C1055 C1056 1.399 . S
C1055 C1060 1.399 . S
C1056 C1055 1.399 . S
C1056 C1057 1.376 . S
C1057 H1044 0.930 . S
C1057 C1056 1.376 . S
C1057 C1058 1.388 . S
C1058 H1045 0.930 . S
C1058 C1057 1.388 . S
C1058 C1059 1.390 . S
C1059 C1058 1.390 . S
C1059 C1060 1.394 . S
C1059 C1065 1.465 . S
C1060 C1055 1.399 . S
C1060 C1059 1.394 . S
C1060 C1061 1.516 . S
C1061 C1060 1.516 . S
C1061 C1062 1.502 . S
C1061 C1063 1.561 . S
C1061 C1064 1.526 . S
C1062 H1046 0.959 . S
C1062 H1047 0.959 . S
C1062 H1048 0.961 . S
C1062 C1061 1.502 . S
C1063 H1049 0.960 . S
C1063 H1050 0.961 . S
C1063 H1051 0.959 . S
C1063 C1061 1.561 . S
C1064 C1061 1.526 . S
C1064 C1065 1.396 . S
C1064 C1069 1.390 . S
C1065 C1059 1.465 . S
C1065 C1064 1.396 . S
C1065 C1066 1.399 . S
C1066 H1052 0.929 . S
C1066 C1065 1.399 . S
C1066 C1067 1.385 . S
C1067 H1053 0.931 . S
C1067 C1066 1.385 . S
C1067 C1068 1.389 . S
C1068 C1067 1.389 . S
C1068 C1069 1.387 . S
C1069 H1054 0.930 . S
C1069 C1064 1.390 . S
C1069 C1068 1.387 . S
H1070 C1082 0.930 . S
H1071 C1084 0.930 . S
H1072 C1085 0.930 . S
H1073 C1089 0.959 . S
H1074 C1089 0.959 . S
H1075 C1089 0.961 . S
H1076 C1090 0.960 . S
H1077 C1090 0.961 . S
H1078 C1090 0.959 . S
H1079 C1093 0.929 . S
H1080 C1094 0.931 . S
H1081 C1096 0.930 . S
C1082 H1070 0.930 . S
C1082 C1083 1.399 . S
C1082 C1087 1.399 . S
C1083 C1082 1.399 . S
C1083 C1084 1.376 . S
C1084 H1071 0.930 . S
C1084 C1083 1.376 . S
C1084 C1085 1.388 . S
C1085 H1072 0.930 . S
C1085 C1084 1.388 . S
C1085 C1086 1.390 . S
C1086 C1085 1.390 . S
C1086 C1087 1.394 . S
C1086 C1092 1.465 . S
C1087 C1082 1.399 . S
C1087 C1086 1.394 . S
C1087 C1088 1.516 . S
C1088 C1087 1.516 . S
C1088 C1089 1.502 . S
C1088 C1090 1.561 . S
C1088 C1091 1.526 . S
C1089 H1073 0.959 . S
C1089 H1074 0.959 . S
C1089 H1075 0.961 . S
C1089 C1088 1.502 . S
C1090 H1076 0.960 . S
C1090 H1077 0.961 . S
C1090 H1078 0.959 . S
C1090 C1088 1.561 . S
C1091 C1088 1.526 . S
C1091 C1092 1.396 . S
C1091 C1096 1.390 . S
C1092 C1086 1.465 . S
C1092 C1091 1.396 . S
C1092 C1093 1.399 . S
C1093 H1079 0.929 . S
C1093 C1092 1.399 . S
C1093 C1094 1.385 . S
C1094 H1080 0.931 . S
C1094 C1093 1.385 . S
C1094 C1095 1.389 . S
C1095 C1094 1.389 . S
C1095 C1096 1.387 . S
C1096 H1081 0.930 . S
C1096 C1091 1.390 . S
C1096 C1095 1.387 . S
H1097 C1109 0.930 . S
H1098 C1111 0.930 . S
H1099 C1112 0.930 . S
H1100 C1116 0.959 . S
H1101 C1116 0.959 . S
H1102 C1116 0.961 . S
H1103 C1117 0.960 . S
H1104 C1117 0.961 . S
H1105 C1117 0.959 . S
H1106 C1120 0.929 . S
H1107 C1121 0.931 . S
H1108 C1123 0.930 . S
C1109 H1097 0.930 . S
C1109 C1110 1.399 . S
C1109 C1114 1.399 . S
C1110 C1109 1.399 . S
C1110 C1111 1.376 . S
C1111 H1098 0.930 . S
C1111 C1110 1.376 . S
C1111 C1112 1.388 . S
C1112 H1099 0.930 . S
C1112 C1111 1.388 . S
C1112 C1113 1.390 . S
C1113 C1112 1.390 . S
C1113 C1114 1.394 . S
C1113 C1119 1.465 . S
C1114 C1109 1.399 . S
C1114 C1113 1.394 . S
C1114 C1115 1.516 . S
C1115 C1114 1.516 . S
C1115 C1116 1.502 . S
C1115 C1117 1.561 . S
C1115 C1118 1.526 . S
C1116 H1100 0.959 . S
C1116 H1101 0.959 . S
C1116 H1102 0.961 . S
C1116 C1115 1.502 . S
C1117 H1103 0.960 . S
C1117 H1104 0.961 . S
C1117 H1105 0.959 . S
C1117 C1115 1.561 . S
C1118 C1115 1.526 . S
C1118 C1119 1.396 . S
C1118 C1123 1.390 . S
C1119 C1113 1.465 . S
C1119 C1118 1.396 . S
C1119 C1120 1.399 . S
C1120 H1106 0.929 . S
C1120 C1119 1.399 . S
C1120 C1121 1.385 . S
C1121 H1107 0.931 . S
C1121 C1120 1.385 . S
C1121 C1122 1.389 . S
C1122 C1121 1.389 . S
C1122 C1123 1.387 . S
C1123 H1108 0.930 . S
C1123 C1118 1.390 . S
C1123 C1122 1.387 . S
H1124 C1136 0.930 . S
H1125 C1138 0.930 1_556 S
H1126 C1139 0.930 . S
H1127 C1143 0.959 . S
H1128 C1143 0.959 . S
H1129 C1143 0.961 . S
H1130 C1144 0.960 . S
H1131 C1144 0.961 . S
H1132 C1144 0.959 . S
H1133 C1147 0.929 . S
H1134 C1148 0.931 . S
H1135 C1150 0.930 . S
C1136 H1124 0.930 . S
C1136 C1137 1.399 . S
C1136 C1141 1.399 . S
C1137 C1136 1.399 . S
C1137 C1138 1.376 . S
C1138 H1125 0.930 1_554 S
C1138 C1137 1.376 . S
C1138 C1139 1.388 . S
C1139 H1126 0.930 . S
C1139 C1138 1.388 . S
C1139 C1140 1.390 . S
C1140 C1139 1.390 . S
C1140 C1141 1.394 . S
C1140 C1146 1.465 . S
C1141 C1136 1.399 . S
C1141 C1140 1.394 . S
C1141 C1142 1.516 . S
C1142 C1141 1.516 . S
C1142 C1143 1.502 . S
C1142 C1144 1.561 . S
C1142 C1145 1.526 . S
C1143 H1127 0.959 . S
C1143 H1128 0.959 . S
C1143 H1129 0.961 . S
C1143 C1142 1.502 . S
C1144 H1130 0.960 . S
C1144 H1131 0.961 . S
C1144 H1132 0.959 . S
C1144 C1142 1.561 . S
C1145 C1142 1.526 . S
C1145 C1146 1.396 . S
C1145 C1150 1.390 . S
C1146 C1140 1.465 . S
C1146 C1145 1.396 . S
C1146 C1147 1.399 . S
C1147 H1133 0.929 . S
C1147 C1146 1.399 . S
C1147 C1148 1.385 . S
C1148 H1134 0.931 . S
C1148 C1147 1.385 . S
C1148 C1149 1.389 . S
C1149 C1148 1.389 . S
C1149 C1150 1.387 . S
C1150 H1135 0.930 . S
C1150 C1145 1.390 . S
C1150 C1149 1.387 . S
H1151 C1163 0.930 . S
H1152 C1165 0.930 . S
H1153 C1166 0.930 . S
H1154 C1170 0.959 . S
H1155 C1170 0.959 . S
H1156 C1170 0.961 . S
H1157 C1171 0.960 . S
H1158 C1171 0.961 . S
H1159 C1171 0.959 . S
H1160 C1174 0.929 . S
H1161 C1175 0.931 . S
H1162 C1177 0.930 . S
C1163 H1151 0.930 . S
C1163 C1164 1.399 . S
C1163 C1168 1.399 . S
C1164 C1163 1.399 . S
C1164 C1165 1.376 . S
C1165 H1152 0.930 . S
C1165 C1164 1.376 . S
C1165 C1166 1.388 . S
C1166 H1153 0.930 . S
C1166 C1165 1.388 . S
C1166 C1167 1.390 . S
C1167 C1166 1.390 . S
C1167 C1168 1.394 . S
C1167 C1173 1.465 . S
C1168 C1163 1.399 . S
C1168 C1167 1.394 . S
C1168 C1169 1.516 . S
C1169 C1168 1.516 . S
C1169 C1170 1.502 . S
C1169 C1171 1.561 . S
C1169 C1172 1.526 . S
C1170 H1154 0.959 . S
C1170 H1155 0.959 . S
C1170 H1156 0.961 . S
C1170 C1169 1.502 . S
C1171 H1157 0.960 . S
C1171 H1158 0.961 . S
C1171 H1159 0.959 . S
C1171 C1169 1.561 . S
C1172 C1169 1.526 . S
C1172 C1173 1.396 . S
C1172 C1177 1.390 . S
C1173 C1167 1.465 . S
C1173 C1172 1.396 . S
C1173 C1174 1.399 . S
C1174 H1160 0.929 . S
C1174 C1173 1.399 . S
C1174 C1175 1.385 . S
C1175 H1161 0.931 . S
C1175 C1174 1.385 . S
C1175 C1176 1.389 . S
C1176 C1175 1.389 . S
C1176 C1177 1.387 . S
C1177 H1162 0.930 . S
C1177 C1172 1.390 . S
C1177 C1176 1.387 . S
H1178 C1190 0.907 1_455 S
H1179 C1192 0.930 . S
H1180 C1193 0.930 . S
H1181 C1197 0.959 . S
H1182 C1197 0.959 . S
H1183 C1197 0.961 1_455 S
H1184 C1198 0.960 1_455 S
H1185 C1198 0.961 . S
H1186 C1198 0.959 . S
H1187 C1201 0.929 . S
H1188 C1202 0.931 . S
H1189 C1204 0.930 . S
C1190 H1178 0.907 1_655 S
C1190 C1191 1.403 . S
C1190 C1195 1.419 . S
C1191 C1190 1.403 . S
C1191 C1192 1.376 . S
C1192 H1179 0.930 . S
C1192 C1191 1.376 . S
C1192 C1193 1.388 . S
C1193 H1180 0.930 . S
C1193 C1192 1.388 . S
C1193 C1194 1.390 . S
C1194 C1193 1.390 . S
C1194 C1195 1.394 . S
C1194 C1200 1.465 . S
C1195 C1190 1.419 . S
C1195 C1194 1.394 . S
C1195 C1196 1.516 . S
C1196 C1195 1.516 . S
C1196 C1197 1.502 . S
C1196 C1198 1.561 . S
C1196 C1199 1.526 . S
C1197 H1181 0.959 . S
C1197 H1182 0.959 . S
C1197 H1183 0.961 1_655 S
C1197 C1196 1.502 . S
C1198 H1184 0.960 1_655 S
C1198 H1185 0.961 . S
C1198 H1186 0.959 . S
C1198 C1196 1.561 . S
C1199 C1196 1.526 . S
C1199 C1200 1.396 . S
C1199 C1204 1.390 . S
C1200 C1194 1.465 . S
C1200 C1199 1.396 . S
C1200 C1201 1.399 . S
C1201 H1187 0.929 . S
C1201 C1200 1.399 . S
C1201 C1202 1.385 . S
C1202 H1188 0.931 . S
C1202 C1201 1.385 . S
C1202 C1203 1.389 . S
C1203 C1202 1.389 . S
C1203 C1204 1.387 . S
C1204 H1189 0.930 . S
C1204 C1199 1.390 . S
C1204 C1203 1.387 . S
H1205 C1217 0.930 . S
H1206 C1219 0.930 . S
H1207 C1220 0.930 . S
H1208 C1224 0.959 . S
H1209 C1224 0.959 . S
H1210 C1224 0.961 . S
H1211 C1225 0.960 . S
H1212 C1225 0.961 . S
H1213 C1225 0.959 . S
H1214 C1228 0.929 . S
H1215 C1229 0.931 . S
H1216 C1231 0.930 . S
C1217 H1205 0.930 . S
C1217 C1218 1.399 . S
C1217 C1222 1.399 . S
C1218 C1217 1.399 . S
C1218 C1219 1.376 . S
C1219 H1206 0.930 . S
C1219 C1218 1.376 . S
C1219 C1220 1.388 . S
C1220 H1207 0.930 . S
C1220 C1219 1.388 . S
C1220 C1221 1.390 . S
C1221 C1220 1.390 . S
C1221 C1222 1.394 . S
C1221 C1227 1.465 . S
C1222 C1217 1.399 . S
C1222 C1221 1.394 . S
C1222 C1223 1.516 . S
C1223 C1222 1.516 . S
C1223 C1224 1.502 . S
C1223 C1225 1.561 . S
C1223 C1226 1.526 . S
C1224 H1208 0.959 . S
C1224 H1209 0.959 . S
C1224 H1210 0.961 . S
C1224 C1223 1.502 . S
C1225 H1211 0.960 . S
C1225 H1212 0.961 . S
C1225 H1213 0.959 . S
C1225 C1223 1.561 . S
C1226 C1223 1.526 . S
C1226 C1227 1.396 . S
C1226 C1231 1.390 . S
C1227 C1221 1.465 . S
C1227 C1226 1.396 . S
C1227 C1228 1.399 . S
C1228 H1214 0.929 . S
C1228 C1227 1.399 . S
C1228 C1229 1.385 . S
C1229 H1215 0.931 . S
C1229 C1228 1.385 . S
C1229 C1230 1.389 . S
C1230 C1229 1.389 . S
C1230 C1231 1.387 . S
C1231 H1216 0.930 . S
C1231 C1226 1.390 . S
C1231 C1230 1.387 . S
H1232 C1244 0.930 . S
H1233 C1246 0.930 . S
H1234 C1247 0.930 . S
H1235 C1251 0.959 . S
H1236 C1251 0.959 . S
H1237 C1251 0.961 . S
H1238 C1252 0.960 . S
H1239 C1252 0.961 . S
H1240 C1252 0.959 . S
H1241 C1255 0.929 . S
H1242 C1256 0.931 . S
H1243 C1258 0.930 . S
C1244 H1232 0.930 . S
C1244 C1245 1.399 . S
C1244 C1249 1.399 . S
C1245 C1244 1.399 . S
C1245 C1246 1.376 . S
C1246 H1233 0.930 . S
C1246 C1245 1.376 . S
C1246 C1247 1.388 . S
C1247 H1234 0.930 . S
C1247 C1246 1.388 . S
C1247 C1248 1.390 . S
C1248 C1247 1.390 . S
C1248 C1249 1.394 . S
C1248 C1254 1.465 . S
C1249 C1244 1.399 . S
C1249 C1248 1.394 . S
C1249 C1250 1.516 . S
C1250 C1249 1.516 . S
C1250 C1251 1.502 . S
C1250 C1252 1.561 . S
C1250 C1253 1.526 . S
C1251 H1235 0.959 . S
C1251 H1236 0.959 . S
C1251 H1237 0.961 . S
C1251 C1250 1.502 . S
C1252 H1238 0.960 . S
C1252 H1239 0.961 . S
C1252 H1240 0.959 . S
C1252 C1250 1.561 . S
C1253 C1250 1.526 . S
C1253 C1254 1.396 . S
C1253 C1258 1.390 . S
C1254 C1248 1.465 . S
C1254 C1253 1.396 . S
C1254 C1255 1.399 . S
C1255 H1241 0.929 . S
C1255 C1254 1.399 . S
C1255 C1256 1.385 . S
C1256 H1242 0.931 . S
C1256 C1255 1.385 . S
C1256 C1257 1.389 . S
C1257 C1256 1.389 . S
C1257 C1258 1.387 . S
C1258 H1243 0.930 . S
C1258 C1253 1.390 . S
C1258 C1257 1.387 . S
H1259 C1271 0.930 . S
H1260 C1273 0.930 . S
H1261 C1274 0.930 . S
H1262 C1278 0.959 . S
H1263 C1278 0.959 . S
H1264 C1278 0.961 . S
H1265 C1279 0.960 . S
H1266 C1279 0.961 . S
H1267 C1279 0.959 . S
H1268 C1282 0.929 . S
H1269 C1283 0.931 . S
H1270 C1285 0.930 . S
C1271 H1259 0.930 . S
C1271 C1272 1.399 . S
C1271 C1276 1.399 . S
C1272 C1271 1.399 . S
C1272 C1273 1.376 . S
C1273 H1260 0.930 . S
C1273 C1272 1.376 . S
C1273 C1274 1.388 . S
C1274 H1261 0.930 . S
C1274 C1273 1.388 . S
C1274 C1275 1.390 . S
C1275 C1274 1.390 . S
C1275 C1276 1.394 . S
C1275 C1281 1.465 . S
C1276 C1271 1.399 . S
C1276 C1275 1.394 . S
C1276 C1277 1.516 . S
C1277 C1276 1.516 . S
C1277 C1278 1.502 . S
C1277 C1279 1.561 . S
C1277 C1280 1.526 . S
C1278 H1262 0.959 . S
C1278 H1263 0.959 . S
C1278 H1264 0.961 . S
C1278 C1277 1.502 . S
C1279 H1265 0.960 . S
C1279 H1266 0.961 . S
C1279 H1267 0.959 . S
C1279 C1277 1.561 . S
C1280 C1277 1.526 . S
C1280 C1281 1.396 . S
C1280 C1285 1.390 . S
C1281 C1275 1.465 . S
C1281 C1280 1.396 . S
C1281 C1282 1.399 . S
C1282 H1268 0.929 . S
C1282 C1281 1.399 . S
C1282 C1283 1.385 . S
C1283 H1269 0.931 . S
C1283 C1282 1.385 . S
C1283 C1284 1.389 . S
C1284 C1283 1.389 . S
C1284 C1285 1.387 . S
C1285 H1270 0.930 . S
C1285 C1280 1.390 . S
C1285 C1284 1.387 . S
H1286 C1298 0.930 . S
H1287 C1300 0.930 . S
H1288 C1301 0.930 . S
H1289 C1305 0.959 . S
H1290 C1305 0.959 . S
H1291 C1305 0.961 . S
H1292 C1306 0.960 . S
H1293 C1306 0.961 . S
H1294 C1306 0.959 . S
H1295 C1309 0.929 . S
H1296 C1310 0.931 . S
H1297 C1312 0.930 . S
C1298 H1286 0.930 . S
C1298 C1299 1.399 . S
C1298 C1303 1.399 . S
C1299 C1298 1.399 . S
C1299 C1300 1.376 . S
C1300 H1287 0.930 . S
C1300 C1299 1.376 . S
C1300 C1301 1.388 . S
C1301 H1288 0.930 . S
C1301 C1300 1.388 . S
C1301 C1302 1.390 . S
C1302 C1301 1.390 . S
C1302 C1303 1.394 . S
C1302 C1308 1.465 . S
C1303 C1298 1.399 . S
C1303 C1302 1.394 . S
C1303 C1304 1.516 . S
C1304 C1303 1.516 . S
C1304 C1305 1.502 . S
C1304 C1306 1.561 . S
C1304 C1307 1.526 . S
C1305 H1289 0.959 . S
C1305 H1290 0.959 . S
C1305 H1291 0.961 . S
C1305 C1304 1.502 . S
C1306 H1292 0.960 . S
C1306 H1293 0.961 . S
C1306 H1294 0.959 . S
C1306 C1304 1.561 . S
C1307 C1304 1.526 . S
C1307 C1308 1.396 . S
C1307 C1312 1.390 . S
C1308 C1302 1.465 . S
C1308 C1307 1.396 . S
C1308 C1309 1.399 . S
C1309 H1295 0.929 . S
C1309 C1308 1.399 . S
C1309 C1310 1.385 . S
C1310 H1296 0.931 . S
C1310 C1309 1.385 . S
C1310 C1311 1.389 . S
C1311 C1310 1.389 . S
C1311 C1312 1.387 . S
C1312 H1297 0.930 . S
C1312 C1307 1.390 . S
C1312 C1311 1.387 . S
H1313 C1325 0.930 . S
H1314 C1327 0.930 . S
H1315 C1328 0.930 . S
H1316 C1332 0.959 . S
H1317 C1332 0.959 . S
H1318 C1332 0.961 . S
H1319 C1333 0.960 . S
H1320 C1333 0.961 . S
H1321 C1333 0.959 . S
H1322 C1336 0.929 . S
H1323 C1337 0.931 . S
H1324 C1339 0.930 . S
C1325 H1313 0.930 . S
C1325 C1326 1.399 . S
C1325 C1330 1.399 . S
C1326 C1325 1.399 . S
C1326 C1327 1.376 . S
C1327 H1314 0.930 . S
C1327 C1326 1.376 . S
C1327 C1328 1.388 . S
C1328 H1315 0.930 . S
C1328 C1327 1.388 . S
C1328 C1329 1.390 . S
C1329 C1328 1.390 . S
C1329 C1330 1.394 . S
C1329 C1335 1.465 . S
C1330 C1325 1.399 . S
C1330 C1329 1.394 . S
C1330 C1331 1.516 . S
C1331 C1330 1.516 . S
C1331 C1332 1.502 . S
C1331 C1333 1.561 . S
C1331 C1334 1.526 . S
C1332 H1316 0.959 . S
C1332 H1317 0.959 . S
C1332 H1318 0.961 . S
C1332 C1331 1.502 . S
C1333 H1319 0.960 . S
C1333 H1320 0.961 . S
C1333 H1321 0.959 . S
C1333 C1331 1.561 . S
C1334 C1331 1.526 . S
C1334 C1335 1.396 . S
C1334 C1339 1.390 . S
C1335 C1329 1.465 . S
C1335 C1334 1.396 . S
C1335 C1336 1.399 . S
C1336 H1322 0.929 . S
C1336 C1335 1.399 . S
C1336 C1337 1.385 . S
C1337 H1323 0.931 . S
C1337 C1336 1.385 . S
C1337 C1338 1.389 . S
C1338 C1337 1.389 . S
C1338 C1339 1.387 . S
C1339 H1324 0.930 . S
C1339 C1334 1.390 . S
C1339 C1338 1.387 . S
H1340 C1352 0.930 . S
H1341 C1354 0.930 . S
H1342 C1355 0.930 . S
H1343 C1359 0.959 . S
H1344 C1359 0.959 . S
H1345 C1359 0.961 . S
H1346 C1360 0.960 . S
H1347 C1360 0.961 . S
H1348 C1360 0.959 . S
H1349 C1363 0.929 . S
H1350 C1364 0.909 1_655 S
H1351 C1366 0.930 . S
C1352 H1340 0.930 . S
C1352 C1353 1.399 . S
C1352 C1357 1.399 . S
C1353 C1352 1.399 . S
C1353 C1354 1.376 . S
C1354 H1341 0.930 . S
C1354 C1353 1.376 . S
C1354 C1355 1.388 . S
C1355 H1342 0.930 . S
C1355 C1354 1.388 . S
C1355 C1356 1.390 . S
C1356 C1355 1.390 . S
C1356 C1357 1.394 . S
C1356 C1362 1.465 . S
C1357 C1352 1.399 . S
C1357 C1356 1.394 . S
C1357 C1358 1.516 . S
C1358 C1357 1.516 . S
C1358 C1359 1.502 . S
C1358 C1360 1.561 . S
C1358 C1361 1.526 . S
C1359 H1343 0.959 . S
C1359 H1344 0.959 . S
C1359 H1345 0.961 . S
C1359 C1358 1.502 . S
C1360 H1346 0.960 . S
C1360 H1347 0.961 . S
C1360 H1348 0.959 . S
C1360 C1358 1.561 . S
C1361 C1358 1.526 . S
C1361 C1362 1.396 . S
C1361 C1366 1.390 . S
C1362 C1356 1.465 . S
C1362 C1361 1.396 . S
C1362 C1363 1.399 . S
C1363 H1349 0.929 . S
C1363 C1362 1.399 . S
C1363 C1364 1.407 . S
C1364 H1350 0.909 1_455 S
C1364 C1363 1.407 . S
C1364 C1365 1.391 . S
C1365 C1364 1.391 . S
C1365 C1366 1.387 . S
C1366 H1351 0.930 . S
C1366 C1361 1.390 . S
C1366 C1365 1.387 . S
H1367 C1379 0.930 . S
H1368 C1381 0.930 . S
H1369 C1382 0.930 . S
H1370 C1386 0.959 . S
H1371 C1386 0.959 . S
H1372 C1386 0.961 . S
H1373 C1387 0.960 . S
H1374 C1387 0.961 . S
H1375 C1387 0.959 . S
H1376 C1390 0.929 . S
H1377 C1391 0.931 . S
H1378 C1393 0.930 . S
C1379 H1367 0.930 . S
C1379 C1380 1.399 . S
C1379 C1384 1.399 . S
C1380 C1379 1.399 . S
C1380 C1381 1.376 . S
C1381 H1368 0.930 . S
C1381 C1380 1.376 . S
C1381 C1382 1.388 . S
C1382 H1369 0.930 . S
C1382 C1381 1.388 . S
C1382 C1383 1.390 . S
C1383 C1382 1.390 . S
C1383 C1384 1.394 . S
C1383 C1389 1.465 . S
C1384 C1379 1.399 . S
C1384 C1383 1.394 . S
C1384 C1385 1.516 . S
C1385 C1384 1.516 . S
C1385 C1386 1.502 . S
C1385 C1387 1.561 . S
C1385 C1388 1.526 . S
C1386 H1370 0.959 . S
C1386 H1371 0.959 . S
C1386 H1372 0.961 . S
C1386 C1385 1.502 . S
C1387 H1373 0.960 . S
C1387 H1374 0.961 . S
C1387 H1375 0.959 . S
C1387 C1385 1.561 . S
C1388 C1385 1.526 . S
C1388 C1389 1.396 . S
C1388 C1393 1.390 . S
C1389 C1383 1.465 . S
C1389 C1388 1.396 . S
C1389 C1390 1.399 . S
C1390 H1376 0.929 . S
C1390 C1389 1.399 . S
C1390 C1391 1.385 . S
C1391 H1377 0.931 . S
C1391 C1390 1.385 . S
C1391 C1392 1.389 . S
C1392 C1391 1.389 . S
C1392 C1393 1.387 . S
C1393 H1378 0.930 . S
C1393 C1388 1.390 . S
C1393 C1392 1.387 . S
H1394 C1406 0.930 . S
H1395 C1408 0.930 . S
H1396 C1409 0.930 . S
H1397 C1413 0.959 . S
H1398 C1413 0.959 . S
H1399 C1413 0.961 . S
H1400 C1414 0.960 . S
H1401 C1414 0.961 . S
H1402 C1414 0.959 . S
H1403 C1417 0.929 . S
H1404 C1418 0.931 . S
H1405 C1420 0.930 . S
C1406 H1394 0.930 . S
C1406 C1407 1.399 . S
C1406 C1411 1.399 . S
C1407 C1406 1.399 . S
C1407 C1408 1.376 . S
C1408 H1395 0.930 . S
C1408 C1407 1.376 . S
C1408 C1409 1.388 . S
C1409 H1396 0.930 . S
C1409 C1408 1.388 . S
C1409 C1410 1.390 . S
C1410 C1409 1.390 . S
C1410 C1411 1.394 . S
C1410 C1416 1.465 . S
C1411 C1406 1.399 . S
C1411 C1410 1.394 . S
C1411 C1412 1.516 . S
C1412 C1411 1.516 . S
C1412 C1413 1.502 . S
C1412 C1414 1.561 . S
C1412 C1415 1.526 . S
C1413 H1397 0.959 . S
C1413 H1398 0.959 . S
C1413 H1399 0.961 . S
C1413 C1412 1.502 . S
C1414 H1400 0.960 . S
C1414 H1401 0.961 . S
C1414 H1402 0.959 . S
C1414 C1412 1.561 . S
C1415 C1412 1.526 . S
C1415 C1416 1.396 . S
C1415 C1420 1.390 . S
C1416 C1410 1.465 . S
C1416 C1415 1.396 . S
C1416 C1417 1.399 . S
C1417 H1403 0.929 . S
C1417 C1416 1.399 . S
C1417 C1418 1.385 . S
C1418 H1404 0.931 . S
C1418 C1417 1.385 . S
C1418 C1419 1.389 . S
C1419 C1418 1.389 . S
C1419 C1420 1.387 . S
C1420 H1405 0.930 . S
C1420 C1415 1.390 . S
C1420 C1419 1.387 . S
H1421 C1433 0.930 . S
H1422 C1435 0.930 . S
H1423 C1436 0.930 . S
H1424 C1440 0.959 . S
H1425 C1440 0.959 . S
H1426 C1440 0.961 . S
H1427 C1441 0.960 . S
H1428 C1441 0.961 . S
H1429 C1441 0.959 . S
H1430 C1444 0.929 . S
H1431 C1445 0.931 . S
H1432 C1447 0.930 . S
C1433 H1421 0.930 . S
C1433 C1434 1.399 . S
C1433 C1438 1.399 . S
C1434 C1433 1.399 . S
C1434 C1435 1.376 . S
C1435 H1422 0.930 . S
C1435 C1434 1.376 . S
C1435 C1436 1.388 . S
C1436 H1423 0.930 . S
C1436 C1435 1.388 . S
C1436 C1437 1.390 . S
C1437 C1436 1.390 . S
C1437 C1438 1.394 . S
C1437 C1443 1.465 . S
C1438 C1433 1.399 . S
C1438 C1437 1.394 . S
C1438 C1439 1.516 . S
C1439 C1438 1.516 . S
C1439 C1440 1.502 . S
C1439 C1441 1.561 . S
C1439 C1442 1.526 . S
C1440 H1424 0.959 . S
C1440 H1425 0.959 . S
C1440 H1426 0.961 . S
C1440 C1439 1.502 . S
C1441 H1427 0.960 . S
C1441 H1428 0.961 . S
C1441 H1429 0.959 . S
C1441 C1439 1.561 . S
C1442 C1439 1.526 . S
C1442 C1443 1.396 . S
C1442 C1447 1.390 . S
C1443 C1437 1.465 . S
C1443 C1442 1.396 . S
C1443 C1444 1.399 . S
C1444 H1430 0.929 . S
C1444 C1443 1.399 . S
C1444 C1445 1.385 . S
C1445 H1431 0.931 . S
C1445 C1444 1.385 . S
C1445 C1446 1.389 . S
C1446 C1445 1.389 . S
C1446 C1447 1.387 . S
C1447 H1432 0.930 . S
C1447 C1442 1.390 . S
C1447 C1446 1.387 . S
H1448 C1460 0.930 . S
H1449 C1462 0.930 . S
H1450 C1463 0.930 . S
H1451 C1467 0.959 . S
H1452 C1467 0.959 . S
H1453 C1467 0.961 . S
H1454 C1468 0.960 . S
H1455 C1468 0.961 . S
H1456 C1468 0.959 . S
H1457 C1471 0.929 . S
H1458 C1472 0.931 . S
H1459 C1474 0.930 . S
C1460 H1448 0.930 . S
C1460 C1461 1.399 . S
C1460 C1465 1.399 . S
C1461 C1460 1.399 . S
C1461 C1462 1.376 . S
C1462 H1449 0.930 . S
C1462 C1461 1.376 . S
C1462 C1463 1.388 . S
C1463 H1450 0.930 . S
C1463 C1462 1.388 . S
C1463 C1464 1.390 . S
C1464 C1463 1.390 . S
C1464 C1465 1.394 . S
C1464 C1470 1.465 . S
C1465 C1460 1.399 . S
C1465 C1464 1.394 . S
C1465 C1466 1.516 . S
C1466 C1465 1.516 . S
C1466 C1467 1.502 . S
C1466 C1468 1.561 . S
C1466 C1469 1.526 . S
C1467 H1451 0.959 . S
C1467 H1452 0.959 . S
C1467 H1453 0.961 . S
C1467 C1466 1.502 . S
C1468 H1454 0.960 . S
C1468 H1455 0.961 . S
C1468 H1456 0.959 . S
C1468 C1466 1.561 . S
C1469 C1466 1.526 . S
C1469 C1470 1.396 . S
C1469 C1474 1.390 . S
C1470 C1464 1.465 . S
C1470 C1469 1.396 . S
C1470 C1471 1.399 . S
C1471 H1457 0.929 . S
C1471 C1470 1.399 . S
C1471 C1472 1.385 . S
C1472 H1458 0.931 . S
C1472 C1471 1.385 . S
C1472 C1473 1.389 . S
C1473 C1472 1.389 . S
C1473 C1474 1.387 . S
C1474 H1459 0.930 . S
C1474 C1469 1.390 . S
C1474 C1473 1.387 . S
H1475 C1487 0.930 . S
H1476 C1489 0.930 . S
H1477 C1490 0.930 . S
H1478 C1494 0.959 . S
H1479 C1494 0.959 . S
H1480 C1494 0.961 . S
H1481 C1495 0.960 . S
H1482 C1495 0.961 . S
H1483 C1495 0.959 . S
H1484 C1498 0.929 . S
H1485 C1499 0.931 . S
H1486 C1501 0.930 . S
C1487 H1475 0.930 . S
C1487 C1488 1.399 . S
C1487 C1492 1.399 . S
C1488 C1487 1.399 . S
C1488 C1489 1.376 . S
C1489 H1476 0.930 . S
C1489 C1488 1.376 . S
C1489 C1490 1.388 . S
C1490 H1477 0.930 . S
C1490 C1489 1.388 . S
C1490 C1491 1.390 . S
C1491 C1490 1.390 . S
C1491 C1492 1.394 . S
C1491 C1497 1.465 . S
C1492 C1487 1.399 . S
C1492 C1491 1.394 . S
C1492 C1493 1.516 . S
C1493 C1492 1.516 . S
C1493 C1494 1.502 . S
C1493 C1495 1.561 . S
C1493 C1496 1.526 . S
C1494 H1478 0.959 . S
C1494 H1479 0.959 . S
C1494 H1480 0.961 . S
C1494 C1493 1.502 . S
C1495 H1481 0.960 . S
C1495 H1482 0.961 . S
C1495 H1483 0.959 . S
C1495 C1493 1.561 . S
C1496 C1493 1.526 . S
C1496 C1497 1.396 . S
C1496 C1501 1.390 . S
C1497 C1491 1.465 . S
C1497 C1496 1.396 . S
C1497 C1498 1.399 . S
C1498 H1484 0.929 . S
C1498 C1497 1.399 . S
C1498 C1499 1.385 . S
C1499 H1485 0.931 . S
C1499 C1498 1.385 . S
C1499 C1500 1.389 . S
C1500 C1499 1.389 . S
C1500 C1501 1.387 . S
C1501 H1486 0.930 . S
C1501 C1496 1.390 . S
C1501 C1500 1.387 . S
H1502 C1514 0.930 . S
H1503 C1516 0.930 . S
H1504 C1517 0.930 . S
H1505 C1521 0.959 . S
H1506 C1521 0.959 . S
H1507 C1521 0.961 . S
H1508 C1522 0.960 . S
H1509 C1522 0.961 . S
H1510 C1522 0.959 . S
H1511 C1525 0.929 . S
H1512 C1526 0.931 . S
H1513 C1528 0.930 . S
C1514 H1502 0.930 . S
C1514 C1515 1.399 . S
C1514 C1519 1.399 . S
C1515 C1514 1.399 . S
C1515 C1516 1.376 . S
C1516 H1503 0.930 . S
C1516 C1515 1.376 . S
C1516 C1517 1.388 . S
C1517 H1504 0.930 . S
C1517 C1516 1.388 . S
C1517 C1518 1.390 . S
C1518 C1517 1.390 . S
C1518 C1519 1.394 . S
C1518 C1524 1.465 . S
C1519 C1514 1.399 . S
C1519 C1518 1.394 . S
C1519 C1520 1.516 . S
C1520 C1519 1.516 . S
C1520 C1521 1.502 . S
C1520 C1522 1.561 . S
C1520 C1523 1.526 . S
C1521 H1505 0.959 . S
C1521 H1506 0.959 . S
C1521 H1507 0.961 . S
C1521 C1520 1.502 . S
C1522 H1508 0.960 . S
C1522 H1509 0.961 . S
C1522 H1510 0.959 . S
C1522 C1520 1.561 . S
C1523 C1520 1.526 . S
C1523 C1524 1.396 . S
C1523 C1528 1.390 . S
C1524 C1518 1.465 . S
C1524 C1523 1.396 . S
C1524 C1525 1.399 . S
C1525 H1511 0.929 . S
C1525 C1524 1.399 . S
C1525 C1526 1.385 . S
C1526 H1512 0.931 . S
C1526 C1525 1.385 . S
C1526 C1527 1.389 . S
C1527 C1526 1.389 . S
C1527 C1528 1.387 . S
C1528 H1513 0.930 . S
C1528 C1523 1.390 . S
C1528 C1527 1.387 . S
H1529 C1541 0.930 . S
H1530 C1543 0.930 . S
H1531 C1544 0.930 . S
H1532 C1548 0.959 1_556 S
H1533 C1548 0.959 1_556 S
H1534 C1548 0.961 . S
H1535 C1549 0.960 . S
H1536 C1549 0.962 . S
H1537 C1549 0.959 1_655 S
H1538 C1552 0.929 . S
H1539 C1553 0.931 . S
H1540 C1555 0.930 . S
C1541 H1529 0.930 . S
C1541 C1542 1.399 . S
C1541 C1546 1.399 . S
C1542 C1541 1.399 . S
C1542 C1543 1.376 . S
C1543 H1530 0.930 . S
C1543 C1542 1.376 . S
C1543 C1544 1.388 1_455 S
C1544 H1531 0.930 . S
C1544 C1543 1.388 1_655 S
C1544 C1545 1.390 . S
C1545 C1544 1.390 . S
C1545 C1546 1.394 1_655 S
C1545 C1551 1.465 1_554 S
C1546 C1541 1.399 . S
C1546 C1545 1.394 1_455 S
C1546 C1547 1.516 . S
C1547 C1546 1.516 . S
C1547 C1548 1.502 . S
C1547 C1549 1.561 . S
C1547 C1550 1.526 1_454 S
C1548 H1532 0.959 1_554 S
C1548 H1533 0.959 1_554 S
C1548 H1534 0.961 . S
C1548 C1547 1.502 . S
C1549 H1535 0.960 . S
C1549 H1536 0.962 . S
C1549 H1537 0.959 1_455 S
C1549 C1547 1.561 . S
C1550 C1547 1.526 1_656 S
C1550 C1551 1.396 . S
C1550 C1555 1.390 . S
C1551 C1545 1.465 1_556 S
C1551 C1550 1.396 . S
C1551 C1552 1.399 . S
C1552 H1538 0.929 . S
C1552 C1551 1.399 . S
C1552 C1553 1.385 . S
C1553 H1539 0.931 . S
C1553 C1552 1.385 . S
C1553 C1554 1.389 . S
C1554 C1553 1.389 . S
C1554 C1555 1.387 . S
C1555 H1540 0.930 . S
C1555 C1550 1.390 . S
C1555 C1554 1.387 . S
H1556 C1568 0.930 . S
H1557 C1570 0.930 . S
H1558 C1571 0.930 . S
H1559 C1575 0.959 . S
H1560 C1575 0.959 . S
H1561 C1575 0.961 . S
H1562 C1576 0.960 . S
H1563 C1576 0.961 . S
H1564 C1576 0.959 . S
H1565 C1579 0.929 . S
H1566 C1580 0.931 . S
H1567 C1582 0.930 . S
C1568 H1556 0.930 . S
C1568 C1569 1.399 . S
C1568 C1573 1.399 . S
C1569 C1568 1.399 . S
C1569 C1570 1.376 . S
C1570 H1557 0.930 . S
C1570 C1569 1.376 . S
C1570 C1571 1.388 . S
C1571 H1558 0.930 . S
C1571 C1570 1.388 . S
C1571 C1572 1.390 . S
C1572 C1571 1.390 . S
C1572 C1573 1.394 . S
C1572 C1578 1.465 . S
C1573 C1568 1.399 . S
C1573 C1572 1.394 . S
C1573 C1574 1.516 . S
C1574 C1573 1.516 . S
C1574 C1575 1.502 . S
C1574 C1576 1.561 . S
C1574 C1577 1.526 . S
C1575 H1559 0.959 . S
C1575 H1560 0.959 . S
C1575 H1561 0.961 . S
C1575 C1574 1.502 . S
C1576 H1562 0.960 . S
C1576 H1563 0.961 . S
C1576 H1564 0.959 . S
C1576 C1574 1.561 . S
C1577 C1574 1.526 . S
C1577 C1578 1.396 . S
C1577 C1582 1.390 . S
C1578 C1572 1.465 . S
C1578 C1577 1.396 . S
C1578 C1579 1.399 . S
C1579 H1565 0.929 . S
C1579 C1578 1.399 . S
C1579 C1580 1.385 . S
C1580 H1566 0.931 . S
C1580 C1579 1.385 . S
C1580 C1581 1.389 . S
C1581 C1580 1.389 . S
C1581 C1582 1.387 . S
C1582 H1567 0.930 . S
C1582 C1577 1.390 . S
C1582 C1581 1.387 . S
H1583 C1595 0.930 . S
H1584 C1597 0.930 . S
H1585 C1598 0.930 . S
H1586 C1602 0.959 . S
H1587 C1602 0.959 . S
H1588 C1602 0.961 . S
H1589 C1603 0.960 . S
H1590 C1603 0.961 . S
H1591 C1603 0.959 . S
H1592 C1606 0.929 . S
H1593 C1607 0.931 . S
H1594 C1609 0.930 . S
C1595 H1583 0.930 . S
C1595 C1596 1.399 . S
C1595 C1600 1.399 . S
C1596 C1595 1.399 . S
C1596 C1597 1.376 . S
C1597 H1584 0.930 . S
C1597 C1596 1.376 . S
C1597 C1598 1.388 . S
C1598 H1585 0.930 . S
C1598 C1597 1.388 . S
C1598 C1599 1.390 . S
C1599 C1598 1.390 . S
C1599 C1600 1.394 . S
C1599 C1605 1.465 . S
C1600 C1595 1.399 . S
C1600 C1599 1.394 . S
C1600 C1601 1.516 . S
C1601 C1600 1.516 . S
C1601 C1602 1.502 . S
C1601 C1603 1.561 . S
C1601 C1604 1.526 . S
C1602 H1586 0.959 . S
C1602 H1587 0.959 . S
C1602 H1588 0.961 . S
C1602 C1601 1.502 . S
C1603 H1589 0.960 . S
C1603 H1590 0.961 . S
C1603 H1591 0.959 . S
C1603 C1601 1.561 . S
C1604 C1601 1.526 . S
C1604 C1605 1.396 . S
C1604 C1609 1.390 . S
C1605 C1599 1.465 . S
C1605 C1604 1.396 . S
C1605 C1606 1.399 . S
C1606 H1592 0.929 . S
C1606 C1605 1.399 . S
C1606 C1607 1.385 . S
C1607 H1593 0.931 . S
C1607 C1606 1.385 . S
C1607 C1608 1.389 . S
C1608 C1607 1.389 . S
C1608 C1609 1.387 . S
C1609 H1594 0.930 . S
C1609 C1604 1.390 . S
C1609 C1608 1.387 . S
H1610 C1622 0.930 . S
H1611 C1624 0.930 . S
H1612 C1625 0.930 1_655 S
H1613 C1629 0.959 . S
H1614 C1629 0.959 . S
H1615 C1629 0.961 . S
H1616 C1630 0.960 . S
H1617 C1630 0.961 . S
H1618 C1630 0.959 . S
H1619 C1633 0.929 . S
H1620 C1634 0.931 . S
H1621 C1636 0.930 . S
C1622 H1610 0.930 . S
C1622 C1623 1.399 . S
C1622 C1627 1.399 . S
C1623 C1622 1.399 . S
C1623 C1624 1.376 . S
C1624 H1611 0.930 . S
C1624 C1623 1.376 . S
C1624 C1625 1.388 1_545 S
C1625 H1612 0.930 1_455 S
C1625 C1624 1.388 1_565 S
C1625 C1626 1.387 1_565 S
C1626 C1625 1.387 1_545 S
C1626 C1627 1.415 . S
C1626 C1632 1.453 1_445 S
C1627 C1622 1.399 . S
C1627 C1626 1.415 . S
C1627 C1628 1.516 1_556 S
C1628 C1627 1.516 1_554 S
C1628 C1629 1.502 . S
C1628 C1630 1.561 1_455 S
C1628 C1631 1.526 1_445 S
C1629 H1613 0.959 . S
C1629 H1614 0.959 . S
C1629 H1615 0.961 . S
C1629 C1628 1.502 . S
C1630 H1616 0.960 . S
C1630 H1617 0.961 . S
C1630 H1618 0.959 . S
C1630 C1628 1.561 1_655 S
C1631 C1628 1.526 1_665 S
C1631 C1632 1.393 1_554 S
C1631 C1636 1.390 . S
C1632 C1626 1.453 1_665 S
C1632 C1631 1.393 1_556 S
C1632 C1633 1.399 . S
C1633 H1619 0.929 . S
C1633 C1632 1.399 . S
C1633 C1634 1.385 1_556 S
C1634 H1620 0.931 . S
C1634 C1633 1.385 1_554 S
C1634 C1635 1.389 . S
C1635 C1634 1.389 . S
C1635 C1636 1.387 . S
C1636 H1621 0.930 . S
C1636 C1631 1.390 . S
C1636 C1635 1.387 . S
H1637 C1649 0.930 . S
H1638 C1651 0.930 . S
H1639 C1652 0.930 . S
H1640 C1656 0.959 . S
H1641 C1656 0.959 . S
H1642 C1656 0.961 . S
H1643 C1657 0.960 . S
H1644 C1657 0.961 . S
H1645 C1657 0.959 . S
H1646 C1660 0.929 . S
H1647 C1661 0.931 . S
H1648 C1663 0.930 . S
C1649 H1637 0.930 . S
C1649 C1650 1.399 . S
C1649 C1654 1.399 . S
C1650 C1649 1.399 . S
C1650 C1651 1.376 . S
C1651 H1638 0.930 . S
C1651 C1650 1.376 . S
C1651 C1652 1.388 1_545 S
C1652 H1639 0.930 . S
C1652 C1651 1.388 1_565 S
C1652 C1653 1.390 . S
C1653 C1652 1.390 . S
C1653 C1654 1.394 1_565 S
C1653 C1659 1.465 . S
C1654 C1649 1.399 . S
C1654 C1653 1.394 1_545 S
C1654 C1655 1.516 . S
C1655 C1654 1.516 . S
C1655 C1656 1.502 . S
C1655 C1657 1.561 . S
C1655 C1658 1.526 1_545 S
C1656 H1640 0.959 . S
C1656 H1641 0.959 . S
C1656 H1642 0.961 . S
C1656 C1655 1.502 . S
C1657 H1643 0.960 . S
C1657 H1644 0.961 . S
C1657 H1645 0.959 . S
C1657 C1655 1.561 . S
C1658 C1655 1.526 1_565 S
C1658 C1659 1.396 . S
C1658 C1663 1.390 . S
C1659 C1653 1.465 . S
C1659 C1658 1.396 . S
C1659 C1660 1.399 . S
C1660 H1646 0.929 . S
C1660 C1659 1.399 . S
C1660 C1661 1.385 . S
C1661 H1647 0.931 . S
C1661 C1660 1.385 . S
C1661 C1662 1.389 . S
C1662 C1661 1.389 . S
C1662 C1663 1.387 . S
C1663 H1648 0.930 . S
C1663 C1658 1.390 . S
C1663 C1662 1.387 . S
C381 C18 1.312 . S
C393 C248 1.329 . S
C408 C41 1.315 . S
C420 C271 1.305 . S
C435 C64 1.317 . S
C447 C202 1.304 . S
C462 C87 1.316 . S
C474 C225 1.304 . S
C489 C110 1.330 . S
C501 C340 1.310 . S
C516 C133 1.301 . S
C528 C363 1.316 . S
C543 C156 1.302 . S
C555 C294 1.322 . S
C570 C179 1.330 . S
C582 C317 1.319 . S
C597 C224 1.047 . S
C609 C21 1.095 . S
C624 C247 1.045 . S
C636 C44 1.094 . S
C651 C270 1.069 . S
C663 C67 1.059 . S
C678 C201 1.076 . S
C690 C90 1.049 . S
C705 C113 1.059 . S
C717 C316 1.084 . S
C732 C339 1.048 . S
C744 C136 1.078 . S
C759 C362 1.095 . S
C771 C159 1.034 . S
C786 C293 1.086 . S
C798 C182 1.027 . S
C813 C40 1.096 . S
C825 C205 1.024 . S
C840 C228 1.066 . S
C852 C63 1.070 . S
C867 C251 1.024 . S
C879 C86 1.094 . S
C894 C274 1.025 . S
C906 C17 1.095 . S
C921 C297 1.057 . S
C933 C132 1.085 . S
C948 C155 1.046 . S
C960 C320 1.083 . S
C975 C178 1.089 . S
C987 C343 1.025 . S
C1002 C366 1.026 . S
C1014 C109 1.096 . S
C1029 C19 1.041 . S
C1041 C361 1.042 . S
C1056 C42 1.012 . S
C1068 C108 1.021 . S
C1083 C315 1.060 1_455 S
C1095 C65 1.055 . S
C1110 C154 1.044 . S
C1122 C88 1.043 . S
C1137 C111 1.037 . S
C1149 C269 1.013 . S
C1164 C134 0.996 . S
C1176 C16 0.989 . S
C1191 C223 1.059 1_655 S
C1203 C157 1.005 . S
C1218 C62 0.994 . S
C1230 C180 0.911 . S
C1245 C203 0.941 . S
C1257 C177 1.008 1_655 S
C1272 C226 1.007 . S
C1284 C292 1.045 . S
C1299 C131 0.977 . S
C1311 C249 0.915 . S
C1326 C338 1.024 . S
C1338 C272 1.016 . S
C1353 C295 0.921 . S
C1365 C85 0.981 1_455 S
C1380 C318 1.033 . S
C1392 C200 1.010 . S
C1407 C341 1.045 . S
C1419 C39 1.058 . S
C1434 C246 1.045 . S
C1446 C364 1.055 . S
C1461 C20 2.011 . S
C1473 C296 2.033 . S
C1488 C43 2.002 . S
C1500 C135 2.048 . S
C1515 C66 2.013 . S
C1527 C342 2.043 . S
C1542 C181 2.024 . S
C1554 C89 2.020 . S
C1569 C112 2.048 . S
C1581 C204 2.003 . S
C1596 C250 2.012 . S
C1608 C158 2.032 . S
C1623 C227 2.002 . S
C1635 C319 2.048 . S
C1650 C365 2.017 . S
C1662 C273 2.039 . S
