# Generated by pormake.
# Topology una, (4)-cn, num edge types: 1
# Building blocks:
#     Node 0, Type 0, BuildingBlock: KUFVIS_clean_sbu_0, # of connection points: 4
#     Node 1, Type 0, BuildingBlock: KUFVIS_clean_sbu_0, # of connection points: 4
#     Node 2, Type 0, BuildingBlock: KUFVIS_clean_sbu_0, # of connection points: 4
#     Node 3, Type 0, BuildingBlock: KUFVIS_clean_sbu_0, # of connection points: 4
#     Node 4, Type 0, BuildingBlock: KUFVIS_clean_sbu_0, # of connection points: 4
#     Node 5, Type 0, BuildingBlock: KUFVIS_clean_sbu_0, # of connection points: 4
#     Node 6, Type 0, BuildingBlock: KUFVIS_clean_sbu_0, # of connection points: 4
#     Node 7, Type 0, BuildingBlock: KUFVIS_clean_sbu_0, # of connection points: 4
#     Node 8, Type 0, BuildingBlock: KUFVIS_clean_sbu_0, # of connection points: 4
#     Node 9, Type 0, BuildingBlock: KUFVIS_clean_sbu_0, # of connection points: 4
#     Node 10, Type 0, BuildingBlock: KUFVIS_clean_sbu_0, # of connection points: 4
#     Node 11, Type 0, BuildingBlock: KUFVIS_clean_sbu_0, # of connection points: 4
#     Edge 12, Type (0, 0), BuildingBlock: KIFKEQ_clean_linker_1, # of connection points: 2
#     Edge 13, Type (0, 0), BuildingBlock: KIFKEQ_clean_linker_1, # of connection points: 2
#     Edge 14, Type (0, 0), BuildingBlock: KIFKEQ_clean_linker_1, # of connection points: 2
#     Edge 15, Type (0, 0), BuildingBlock: KIFKEQ_clean_linker_1, # of connection points: 2
#     Edge 16, Type (0, 0), BuildingBlock: KIFKEQ_clean_linker_1, # of connection points: 2
#     Edge 17, Type (0, 0), BuildingBlock: KIFKEQ_clean_linker_1, # of connection points: 2
#     Edge 18, Type (0, 0), BuildingBlock: KIFKEQ_clean_linker_1, # of connection points: 2
#     Edge 19, Type (0, 0), BuildingBlock: KIFKEQ_clean_linker_1, # of connection points: 2
#     Edge 20, Type (0, 0), BuildingBlock: KIFKEQ_clean_linker_1, # of connection points: 2
#     Edge 21, Type (0, 0), BuildingBlock: KIFKEQ_clean_linker_1, # of connection points: 2
#     Edge 22, Type (0, 0), BuildingBlock: KIFKEQ_clean_linker_1, # of connection points: 2
#     Edge 23, Type (0, 0), BuildingBlock: KIFKEQ_clean_linker_1, # of connection points: 2
#     Edge 24, Type (0, 0), BuildingBlock: KIFKEQ_clean_linker_1, # of connection points: 2
#     Edge 25, Type (0, 0), BuildingBlock: KIFKEQ_clean_linker_1, # of connection points: 2
#     Edge 26, Type (0, 0), BuildingBlock: KIFKEQ_clean_linker_1, # of connection points: 2
#     Edge 27, Type (0, 0), BuildingBlock: KIFKEQ_clean_linker_1, # of connection points: 2
#     Edge 28, Type (0, 0), BuildingBlock: KIFKEQ_clean_linker_1, # of connection points: 2
#     Edge 29, Type (0, 0), BuildingBlock: KIFKEQ_clean_linker_1, # of connection points: 2
#     Edge 30, Type (0, 0), BuildingBlock: KIFKEQ_clean_linker_1, # of connection points: 2
#     Edge 31, Type (0, 0), BuildingBlock: KIFKEQ_clean_linker_1, # of connection points: 2
#     Edge 32, Type (0, 0), BuildingBlock: KIFKEQ_clean_linker_1, # of connection points: 2
#     Edge 33, Type (0, 0), BuildingBlock: KIFKEQ_clean_linker_1, # of connection points: 2
#     Edge 34, Type (0, 0), BuildingBlock: KIFKEQ_clean_linker_1, # of connection points: 2
#     Edge 35, Type (0, 0), BuildingBlock: KIFKEQ_clean_linker_1, # of connection points: 2
# Relax obj value: 0.032
# Max RMSD: 0.075
# Mean RMSD: 0.075
data_MOF--net-una--node1-KUFVIS_clean_sbu_0--edge1-KIFKEQ_clean_linker_1
_symmetry_space_group_name_H-M    P1
_symmetry_Int_Tables_number       1
_symmetry_cell_setting            triclinic
loop_
_symmetry_equiv_pos_as_xyz
'x, y, z'
_cell_length_a     58.546184
_cell_length_b     58.572074
_cell_length_c     22.46309
_cell_angle_alpha  90.012233
_cell_angle_beta   89.986009
_cell_angle_gamma 119.9661
loop_
_atom_site_label
_atom_site_type_symbol
_atom_site_fract_x
_atom_site_fract_y
_atom_site_fract_z
_atom_type_partial_charge
Mn0 Mn 0.14713 0.44402 0.04484 0.0
Mn1 Mn 0.14621 0.47315 0.91544 0.0
C2 C 0.16258 0.4354 0.95796 0.0
C3 C 0.17068 0.44498 0.1309 0.0
C4 C 0.0977 0.42643 0.9682 0.0
O5 O 0.14177 0.47433 0.07286 0.0
O6 O 0.14348 0.49296 0.98391 0.0
C7 C 0.19718 0.52272 0.92927 0.0
N8 N 0.18103 0.50081 0.89698 0.0
C9 C 0.21265 0.5143 0.81735 0.0
C10 C 0.22958 0.53708 0.84959 0.0
C11 C 0.22186 0.54124 0.90591 0.0
C12 C 0.18839 0.49646 0.84307 0.0
H13 H 0.1913 0.526 0.97253 0.0
C14 C 0.14164 0.49232 0.04075 0.0
O15 O 0.14511 0.43052 0.12859 0.0
O16 O 0.18202 0.45967 0.08509 0.0
N17 N 0.1491 0.45634 0.84508 0.0
C18 C 0.13137 0.43248 0.82171 0.0
C19 C 0.13662 0.42479 0.76652 0.0
C20 C 0.1598 0.44187 0.73548 0.0
C21 C 0.17759 0.46646 0.76007 0.0
C22 C 0.1714 0.47298 0.81539 0.0
H23 H 0.1134 0.41941 0.84504 0.0
O24 O 0.15552 0.41908 1.00223 0.0
O25 O 0.1605 0.45621 0.96598 0.0
O26 O 0.1085 0.42321 0.01466 0.0
O27 O 0.1099 0.44463 0.92985 0.0
C28 C 0.20137 0.48463 0.73219 0.0
C29 C 0.21903 0.50842 0.76105 0.0
H30 H 0.24864 0.5514 0.83173 0.0
H31 H 0.23487 0.55871 0.9312 0.0
H32 H 0.12277 0.40579 0.74783 0.0
H33 H 0.1638 0.43586 0.69296 0.0
H34 H 0.20659 0.48022 0.68913 0.0
H35 H 0.23759 0.5219 0.73986 0.0
Mn36 Mn 0.70809 0.14586 0.19587 0.0
Mn37 Mn 0.6803 0.14971 0.06717 0.0
C38 C 0.73334 0.1627 0.11134 0.0
C39 C 0.73036 0.16733 0.28426 0.0
C40 C 0.67695 0.09906 0.11032 0.0
O41 O 0.67289 0.14126 0.224 0.0
O42 O 0.6564 0.14378 0.13525 0.0
C43 C 0.68118 0.19971 0.09326 0.0
N44 N 0.68749 0.18508 0.05689 0.0
C45 C 0.7062 0.21979 0.98402 0.0
C46 C 0.6998 0.2352 0.02055 0.0
C47 C 0.68735 0.22516 0.07554 0.0
C48 C 0.69977 0.19467 0.00428 0.0
H49 H 0.6715 0.19201 0.13542 0.0
C50 C 0.65471 0.14088 0.19183 0.0
O51 O 0.71868 0.14178 0.27952 0.0
O52 O 0.72776 0.17971 0.23966 0.0
N53 N 0.70093 0.15563 0.99674 0.0
C54 C 0.70739 0.139 0.9687 0.0
C55 C 0.72069 0.14645 0.9139 0.0
C56 C 0.72677 0.17067 0.888 0.0
C57 C 0.71964 0.18731 0.91736 0.0
C58 C 0.70662 0.17894 0.97209 0.0
H59 H 0.70262 0.1203 0.98822 0.0
O60 O 0.74142 0.15383 0.15447 0.0
O61 O 0.71089 0.16171 0.11911 0.0
O62 O 0.68916 0.10783 0.16008 0.0
O63 O 0.67278 0.11326 0.07369 0.0
C64 C 0.72519 0.212 0.89481 0.0
C65 C 0.71884 0.2284 0.92849 0.0
H66 H 0.70447 0.25481 0.00696 0.0
H67 H 0.68243 0.23697 0.10408 0.0
H68 H 0.72617 0.13351 0.89157 0.0
H69 H 0.73706 0.17636 0.84576 0.0
H70 H 0.73488 0.21882 0.85214 0.0
H71 H 0.72387 0.24765 0.91138 0.0
Mn72 Mn 0.56777 0.70616 0.37322 0.0
Mn73 Mn 0.53796 0.67491 0.24534 0.0
C74 C 0.57418 0.72959 0.28649 0.0
C75 C 0.56638 0.72821 0.45994 0.0
C76 C 0.58761 0.67726 0.29186 0.0
O77 O 0.5391 0.67037 0.40325 0.0
O78 O 0.52172 0.65136 0.31499 0.0
C79 C 0.48625 0.67062 0.27034 0.0
N80 N 0.50752 0.67851 0.234 0.0
C81 C 0.48897 0.6946 0.16086 0.0
C82 C 0.46681 0.68651 0.19734 0.0
C83 C 0.4655 0.67457 0.25242 0.0
C84 C 0.50911 0.69029 0.18124 0.0
H85 H 0.48511 0.6614 0.31269 0.0
C86 C 0.52261 0.65086 0.3719 0.0
O87 O 0.58229 0.71878 0.45604 0.0
O88 O 0.55099 0.72392 0.41503 0.0
N89 N 0.55091 0.69502 0.17357 0.0
C90 C 0.57407 0.70265 0.14464 0.0
C91 C 0.57876 0.71545 0.0894 0.0
C92 C 0.55937 0.7198 0.06386 0.0
C93 C 0.53545 0.71128 0.09383 0.0
C94 C 0.53195 0.69875 0.1489 0.0
H95 H 0.58886 0.69909 0.16369 0.0
O96 O 0.59105 0.73954 0.3296 0.0
O97 O 0.55396 0.70635 0.29543 0.0
O98 O 0.58941 0.68939 0.34083 0.0
O99 O 0.56944 0.67123 0.25329 0.0
C100 C 0.51504 0.71495 0.07146 0.0
C101 C 0.49195 0.70691 0.10526 0.0
H102 H 0.45075 0.6895 0.18364 0.0
H103 H 0.44851 0.66837 0.28095 0.0
H104 H 0.59724 0.72186 0.06647 0.0
H105 H 0.56308 0.72974 0.02131 0.0
H106 H 0.51707 0.72432 0.0287 0.0
H107 H 0.47664 0.71038 0.08816 0.0
Mn108 Mn 0.86286 0.56042 0.53486 0.0
Mn109 Mn 0.8574 0.52804 0.40625 0.0
C110 C 0.84408 0.5677 0.45218 0.0
C111 C 0.84235 0.56052 0.62554 0.0
C112 C 0.9083 0.57634 0.44504 0.0
O113 O 0.8692 0.53081 0.56207 0.0
O114 O 0.86499 0.51104 0.47358 0.0
C115 C 0.80846 0.47863 0.43676 0.0
N116 N 0.82218 0.49924 0.39897 0.0
C117 C 0.78662 0.48143 0.32813 0.0
C118 C 0.77214 0.45993 0.36613 0.0
C119 C 0.78306 0.45862 0.42084 0.0
C120 C 0.81171 0.50091 0.34669 0.0
H121 H 0.81688 0.47746 0.47864 0.0
C122 C 0.86919 0.51288 0.5297 0.0
O123 O 0.86767 0.57564 0.61826 0.0
O124 O 0.82969 0.54515 0.58173 0.0
N125 N 0.84985 0.54168 0.3362 0.0
C126 C 0.86553 0.56465 0.30679 0.0
C127 C 0.85713 0.56947 0.25205 0.0
C128 C 0.83294 0.55041 0.22759 0.0
C129 C 0.81725 0.52681 0.25841 0.0
C130 C 0.82653 0.52323 0.31304 0.0
H131 H 0.88416 0.5793 0.3253 0.0
O132 O 0.85315 0.58479 0.49496 0.0
O133 O 0.84575 0.54658 0.45936 0.0
O134 O 0.90029 0.58019 0.49549 0.0
O135 O 0.89365 0.55751 0.40982 0.0
C136 C 0.79262 0.50682 0.23745 0.0
C137 C 0.77712 0.48434 0.27268 0.0
H138 H 0.75258 0.44441 0.35388 0.0
H139 H 0.77197 0.44214 0.45051 0.0
H140 H 0.8693 0.58778 0.22867 0.0
H141 H 0.82651 0.55421 0.18539 0.0
H142 H 0.78514 0.50881 0.19482 0.0
H143 H 0.75789 0.46948 0.25681 0.0
Mn144 Mn 0.30421 0.86365 0.70916 0.0
Mn145 Mn 0.33345 0.86339 0.5796 0.0
C146 C 0.27959 0.84685 0.62391 0.0
C147 C 0.28229 0.84099 0.7967 0.0
C148 C 0.33263 0.91152 0.62499 0.0
O149 O 0.33984 0.86968 0.73733 0.0
O150 O 0.35806 0.87184 0.64779 0.0
C151 C 0.33804 0.81638 0.60746 0.0
N152 N 0.3297 0.8292 0.57056 0.0
C153 C 0.31283 0.79351 0.50003 0.0
C154 C 0.32138 0.78001 0.53711 0.0
C155 C 0.33394 0.79145 0.59118 0.0
C156 C 0.3173 0.81821 0.5188 0.0
H157 H 0.34775 0.82507 0.649 0.0
C158 C 0.35918 0.87317 0.7047 0.0
O159 O 0.29303 0.86649 0.79295 0.0
O160 O 0.28554 0.82931 0.75147 0.0
N161 N 0.31246 0.85512 0.50893 0.0
C162 C 0.30447 0.87018 0.47923 0.0
C163 C 0.29106 0.86126 0.42485 0.0
C164 C 0.28649 0.83719 0.40089 0.0
C165 C 0.29537 0.82226 0.43158 0.0
C166 C 0.30848 0.8321 0.48578 0.0
H167 H 0.30817 0.88876 0.4971 0.0
O168 O 0.27069 0.85465 0.66755 0.0
O169 O 0.30255 0.8489 0.63143 0.0
O170 O 0.3219 0.90198 0.67571 0.0
O171 O 0.33717 0.89859 0.58544 0.0
C172 C 0.29151 0.79789 0.4108 0.0
C173 C 0.29993 0.78336 0.44534 0.0
H174 H 0.3183 0.7608 0.52465 0.0
H175 H 0.34051 0.78112 0.62016 0.0
H176 H 0.28434 0.87294 0.40138 0.0
H177 H 0.27607 0.83032 0.35901 0.0
H178 H 0.28172 0.78994 0.3687 0.0
H179 H 0.29634 0.76438 0.42946 0.0
Mn180 Mn 0.4458 0.30119 0.8617 0.0
Mn181 Mn 0.47702 0.32943 0.73296 0.0
C182 C 0.43608 0.27647 0.77559 0.0
C183 C 0.4455 0.27831 0.94866 0.0
C184 C 0.43288 0.3364 0.78454 0.0
O185 O 0.47741 0.33604 0.88909 0.0
O186 O 0.49819 0.35101 0.8011 0.0
C187 C 0.5237 0.32278 0.74562 0.0
N188 N 0.50221 0.31889 0.71398 0.0
C189 C 0.5131 0.29907 0.63319 0.0
C190 C 0.53539 0.30288 0.66482 0.0
C191 C 0.54063 0.31467 0.72142 0.0
C192 C 0.49681 0.30729 0.65983 0.0
H193 H 0.52787 0.33202 0.78893 0.0
C194 C 0.49676 0.35287 0.8576 0.0
O195 O 0.43209 0.29055 0.94592 0.0
O196 O 0.45972 0.28057 0.90271 0.0
N197 N 0.45875 0.31044 0.66306 0.0
C198 C 0.43534 0.30626 0.64065 0.0
C199 C 0.42652 0.2935 0.58553 0.0
C200 C 0.44205 0.2856 0.55364 0.0
C201 C 0.46618 0.29035 0.5774 0.0
C202 C 0.47382 0.30289 0.63277 0.0
H203 H 0.42349 0.31257 0.66469 0.0
O204 O 0.41952 0.26826 0.81955 0.0
O205 O 0.45767 0.29867 0.78365 0.0
O206 O 0.42724 0.32117 0.82989 0.0
O207 O 0.45136 0.34101 0.74789 0.0
C208 C 0.48286 0.28295 0.54857 0.0
C209 C 0.50624 0.28717 0.57658 0.0
H210 H 0.5485 0.29668 0.64626 0.0
H211 H 0.55774 0.31761 0.74618 0.0
H212 H 0.40786 0.2899 0.56751 0.0
H213 H 0.43519 0.2758 0.51111 0.0
H214 H 0.47759 0.27341 0.50543 0.0
H215 H 0.51855 0.28076 0.55463 0.0
Mn216 Mn 0.56279 0.86443 0.88233 0.0
Mn217 Mn 0.53068 0.86049 0.01047 0.0
C218 C 0.56925 0.84543 0.96559 0.0
C219 C 0.56277 0.84378 0.79204 0.0
C220 C 0.57988 0.91039 0.9711 0.0
O221 O 0.53389 0.87175 0.85439 0.0
O222 O 0.51406 0.8683 0.94249 0.0
C223 C 0.48065 0.81207 0.98073 0.0
N224 N 0.50144 0.82553 0.01823 0.0
C225 C 0.48377 0.78962 0.08815 0.0
C226 C 0.46208 0.77542 0.05045 0.0
C227 C 0.46059 0.78665 0.99637 0.0
C228 C 0.50325 0.81478 0.06996 0.0
H229 H 0.47938 0.82068 0.93923 0.0
C230 C 0.51611 0.87232 0.88625 0.0
O231 O 0.57825 0.86902 0.79949 0.0
O232 O 0.54699 0.83126 0.83545 0.0
N233 N 0.54406 0.85284 0.08083 0.0
C234 C 0.56689 0.86858 0.11075 0.0
C235 C 0.57174 0.85996 0.16515 0.0
C236 C 0.55288 0.8355 0.18877 0.0
C237 C 0.52934 0.81984 0.15767 0.0
C238 C 0.52566 0.82939 0.10351 0.0
H239 H 0.58137 0.88747 0.09301 0.0
O240 O 0.58638 0.85389 0.92285 0.0
O241 O 0.54853 0.84779 0.958 0.0
O242 O 0.58338 0.90173 0.92124 0.0
O243 O 0.56076 0.89648 0.00635 0.0
C244 C 0.50949 0.79502 0.17798 0.0
C245 C 0.48689 0.77976 0.1429 0.0
H246 H 0.44654 0.75583 0.06244 0.0
H247 H 0.44396 0.77578 0.96693 0.0
H248 H 0.58995 0.87217 0.18889 0.0
H249 H 0.55672 0.82888 0.23066 0.0
H250 H 0.51162 0.78728 0.22012 0.0
H251 H 0.47206 0.76044 0.15838 0.0
Mn252 Mn 0.70289 0.56199 0.0451 0.0
Mn253 Mn 0.67336 0.531 0.17318 0.0
C254 C 0.72713 0.57059 0.13171 0.0
C255 C 0.7253 0.56121 0.95819 0.0
C256 C 0.66905 0.57681 0.12229 0.0
O257 O 0.66741 0.53136 0.01679 0.0
O258 O 0.65198 0.51048 0.10442 0.0
C259 C 0.67842 0.4834 0.16043 0.0
N260 N 0.68269 0.50494 0.19239 0.0
C261 C 0.70141 0.49296 0.27355 0.0
C262 C 0.69715 0.47059 0.24162 0.0
C263 C 0.68574 0.46587 0.18468 0.0
C264 C 0.69397 0.50985 0.24685 0.0
H265 H 0.66951 0.47964 0.1168 0.0
C266 C 0.65034 0.512 0.04792 0.0
O267 O 0.71458 0.57603 0.96141 0.0
O268 O 0.72203 0.5465 0.00383 0.0
N269 N 0.69218 0.54864 0.24379 0.0
C270 C 0.69677 0.57211 0.2667 0.0
C271 C 0.70914 0.58037 0.32236 0.0
C272 C 0.71623 0.56422 0.35429 0.0
C273 C 0.71103 0.54002 0.33008 0.0
C274 C 0.69887 0.53294 0.27421 0.0
H275 H 0.69108 0.58445 0.24267 0.0
O276 O 0.73619 0.58709 0.08775 0.0
O277 O 0.70452 0.54955 0.12322 0.0
O278 O 0.68452 0.58209 0.07746 0.0
O279 O 0.66313 0.55768 0.158 0.0
C280 C 0.71763 0.52275 0.35893 0.0
C281 C 0.713 0.49932 0.33051 0.0
H282 H 0.70274 0.45701 0.26022 0.0
H283 H 0.68248 0.44871 0.15966 0.0
H284 H 0.71308 0.59906 0.34076 0.0
H285 H 0.72576 0.57065 0.39723 0.0
H286 H 0.72686 0.5276 0.40241 0.0
H287 H 0.7188 0.48654 0.3525 0.0
Mn288 Mn 0.14493 0.70232 0.22038 0.0
Mn289 Mn 0.14465 0.67373 0.3515 0.0
C290 C 0.15991 0.72713 0.30625 0.0
C291 C 0.16817 0.72449 0.1337 0.0
C292 C 0.09566 0.67052 0.29773 0.0
O293 O 0.14044 0.66683 0.19428 0.0
O294 O 0.14205 0.65061 0.28425 0.0
C295 C 0.19602 0.67587 0.33795 0.0
N296 N 0.17976 0.68169 0.36972 0.0
C297 C 0.21185 0.70145 0.448 0.0
C298 C 0.22888 0.69554 0.4163 0.0
C299 C 0.22097 0.68281 0.3609 0.0
C300 C 0.18731 0.69425 0.42267 0.0
H301 H 0.19 0.66605 0.29541 0.0
C302 C 0.14035 0.64901 0.22738 0.0
O303 O 0.14257 0.71288 0.13595 0.0
O304 O 0.17977 0.72189 0.18 0.0
N305 N 0.14746 0.69403 0.42075 0.0
C306 C 0.12937 0.6997 0.44405 0.0
C307 C 0.13465 0.71321 0.49847 0.0
C308 C 0.15824 0.72034 0.52888 0.0
C309 C 0.17637 0.71394 0.50447 0.0
C310 C 0.17012 0.70061 0.44992 0.0
H311 H 0.11109 0.69401 0.42124 0.0
O312 O 0.15252 0.73575 0.26131 0.0
O313 O 0.15839 0.70444 0.29947 0.0
O314 O 0.10629 0.6839 0.25041 0.0
O315 O 0.10807 0.6653 0.33718 0.0
C316 C 0.2005 0.72044 0.53191 0.0
C317 C 0.21834 0.71442 0.50346 0.0
H318 H 0.24814 0.70084 0.43388 0.0
H319 H 0.23405 0.67829 0.33603 0.0
H320 H 0.12052 0.71803 0.51706 0.0
H321 H 0.16226 0.73078 0.57083 0.0
H322 H 0.20578 0.73059 0.57434 0.0
H323 H 0.23711 0.7201 0.52434 0.0
Mn324 Mn 0.44643 0.14119 0.37406 0.0
Mn325 Mn 0.47799 0.14378 0.50215 0.0
C326 C 0.43739 0.15659 0.46024 0.0
C327 C 0.44588 0.16357 0.28698 0.0
C328 C 0.43231 0.09318 0.45371 0.0
O329 O 0.47752 0.13734 0.3454 0.0
O330 O 0.49769 0.14118 0.43337 0.0
C331 C 0.5257 0.19591 0.48421 0.0
N332 N 0.50451 0.17937 0.518 0.0
C333 C 0.51747 0.21166 0.596 0.0
C334 C 0.5395 0.22905 0.56215 0.0
C335 C 0.54356 0.22117 0.50589 0.0
C336 C 0.50025 0.18684 0.57187 0.0
H337 H 0.52893 0.18986 0.44108 0.0
C338 C 0.49619 0.13825 0.37678 0.0
O339 O 0.43219 0.13797 0.29031 0.0
O340 O 0.4605 0.17557 0.33238 0.0
N341 N 0.46128 0.14643 0.57291 0.0
C342 C 0.43802 0.12812 0.59777 0.0
C343 C 0.43046 0.13335 0.65314 0.0
C344 C 0.44708 0.1571 0.68281 0.0
C345 C 0.47105 0.17549 0.65662 0.0
C346 C 0.47744 0.1693 0.60117 0.0
H347 H 0.42532 0.10971 0.57544 0.0
O348 O 0.42068 0.14837 0.41662 0.0
O349 O 0.45891 0.15579 0.45182 0.0
O350 O 0.42742 0.10278 0.40716 0.0
O351 O 0.45091 0.10687 0.49022 0.0
C352 C 0.48872 0.19985 0.68304 0.0
C353 C 0.51176 0.21807 0.65245 0.0
H354 H 0.55332 0.24853 0.57874 0.0
H355 H 0.56046 0.23451 0.4794 0.0
H356 H 0.41192 0.11905 0.67306 0.0
H357 H 0.44117 0.16107 0.7255 0.0
H358 H 0.48446 0.20505 0.72626 0.0
H359 H 0.5248 0.23706 0.67249 0.0
Mn360 Mn 0.30985 0.44844 0.55555 0.0
Mn361 Mn 0.33746 0.48117 0.68319 0.0
C362 C 0.28466 0.43989 0.64041 0.0
C363 C 0.28728 0.44716 0.4673 0.0
C364 C 0.34303 0.43509 0.63978 0.0
O365 O 0.34487 0.47927 0.52685 0.0
O366 O 0.36062 0.49976 0.61463 0.0
C367 C 0.33361 0.52876 0.65818 0.0
N368 N 0.32851 0.50809 0.69433 0.0
C369 C 0.30868 0.52249 0.76815 0.0
C370 C 0.3138 0.54402 0.73185 0.0
C371 C 0.32621 0.54708 0.67649 0.0
C372 C 0.31628 0.50475 0.74728 0.0
H373 H 0.34326 0.53123 0.61576 0.0
C374 C 0.36257 0.49788 0.55833 0.0
O375 O 0.29927 0.43356 0.47201 0.0
O376 O 0.2897 0.46209 0.51185 0.0
N377 N 0.31749 0.46572 0.75399 0.0
C378 C 0.31248 0.44302 0.78186 0.0
C379 C 0.29939 0.43654 0.83697 0.0
C380 C 0.29209 0.45371 0.86336 0.0
C381 C 0.29784 0.47716 0.83424 0.0
C382 C 0.31068 0.48244 0.77917 0.0
H383 H 0.31838 0.42995 0.76211 0.0
O384 O 0.27671 0.42284 0.59751 0.0
O385 O 0.30687 0.4615 0.63205 0.0
O386 O 0.32947 0.43007 0.59158 0.0
O387 O 0.34693 0.45364 0.67557 0.0
C388 C 0.29112 0.49538 0.8574 0.0
C389 C 0.29618 0.51784 0.82403 0.0
H390 H 0.30818 0.55822 0.74589 0.0
H391 H 0.33015 0.56359 0.64813 0.0
H392 H 0.29506 0.41843 0.85921 0.0
H393 H 0.282 0.44865 0.90586 0.0
H394 H 0.2815 0.492 0.9003 0.0
H395 H 0.29024 0.53132 0.8416 0.0
Mn396 Mn 0.86995 0.30457 0.7074 0.0
Mn397 Mn 0.86963 0.33469 0.83569 0.0
C398 C 0.855 0.28079 0.79454 0.0
C399 C 0.84666 0.28143 0.62148 0.0
C400 C 0.9191 0.33834 0.78368 0.0
O401 O 0.87417 0.33964 0.67859 0.0
O402 O 0.87179 0.35672 0.76689 0.0
C403 C 0.81775 0.33129 0.82136 0.0
N404 N 0.83441 0.32631 0.85386 0.0
C405 C 0.80285 0.30744 0.93342 0.0
C406 C 0.78536 0.31244 0.90093 0.0
C407 C 0.79281 0.32431 0.84454 0.0
C408 C 0.82734 0.31464 0.90784 0.0
H409 H 0.82347 0.34051 0.77812 0.0
C410 C 0.87405 0.35778 0.71015 0.0
O411 O 0.87227 0.29303 0.62376 0.0
O412 O 0.83511 0.28448 0.66729 0.0
N413 N 0.8675 0.31548 0.90632 0.0
C414 C 0.88585 0.31027 0.92988 0.0
C415 C 0.88102 0.29751 0.98521 0.0
C416 C 0.85759 0.29063 0.01611 0.0
C417 C 0.83913 0.29648 0.99124 0.0
C418 C 0.84495 0.30906 0.93581 0.0
H419 H 0.90401 0.31575 0.90656 0.0
O420 O 0.86249 0.27169 0.75068 0.0
O421 O 0.85638 0.30334 0.78587 0.0
O422 O 0.90866 0.32352 0.73804 0.0
O423 O 0.90629 0.34391 0.8213 0.0
C424 C 0.81508 0.29006 0.01895 0.0
C425 C 0.79684 0.29533 0.98985 0.0
H426 H 0.76611 0.30708 0.91865 0.0
H427 H 0.77938 0.32814 0.81909 0.0
H428 H 0.89536 0.29308 0.00411 0.0
H429 H 0.85391 0.28077 0.05874 0.0
H430 H 0.81013 0.2805 0.06207 0.0
H431 H 0.7781 0.28966 0.01094 0.0
H432 H 0.22329 0.46215 0.13006 0.0
H433 H 0.15475 0.42449 0.24373 0.0
H434 H 0.25047 0.45999 0.20964 0.0
H435 H 0.18227 0.42275 0.32416 0.0
H436 H 0.24924 0.46063 0.46745 0.0
H437 H 0.22017 0.45774 0.38692 0.0
H438 H 0.25612 0.42576 0.27133 0.0
H439 H 0.28529 0.42822 0.35316 0.0
C440 C 0.21399 0.45345 0.17217 0.0
C441 C 0.18681 0.44368 0.18064 0.0
C442 C 0.22959 0.452 0.21758 0.0
C443 C 0.21857 0.44113 0.27316 0.0
C444 C 0.19137 0.43131 0.28182 0.0
C445 C 0.1756 0.43231 0.23584 0.0
C446 C 0.25102 0.4529 0.42496 0.0
C447 C 0.26978 0.4448 0.41671 0.0
C448 C 0.23413 0.45105 0.37892 0.0
C449 C 0.23572 0.44145 0.32277 0.0
C450 C 0.25447 0.43331 0.31416 0.0
C451 C 0.27113 0.43467 0.36092 0.0
H452 H 0.86256 0.27789 0.50774 0.0
H453 H 0.79441 0.24493 0.6229 0.0
H454 H 0.83512 0.24883 0.42691 0.0
H455 H 0.76734 0.21582 0.54298 0.0
H456 H 0.73315 0.15017 0.39758 0.0
H457 H 0.76233 0.17679 0.47939 0.0
H458 H 0.7965 0.24532 0.36571 0.0
H459 H 0.76739 0.2192 0.28517 0.0
C460 C 0.84183 0.26443 0.51589 0.0
C461 C 0.83069 0.26394 0.57163 0.0
C462 C 0.82609 0.24779 0.46968 0.0
C463 C 0.79903 0.22991 0.47863 0.0
C464 C 0.78812 0.22911 0.53476 0.0
C465 C 0.80366 0.24602 0.5804 0.0
C466 C 0.7469 0.1709 0.39023 0.0
C467 C 0.74775 0.18254 0.33495 0.0
C468 C 0.76359 0.18616 0.43699 0.0
C469 C 0.78186 0.21318 0.42891 0.0
C470 C 0.78293 0.22457 0.37329 0.0
C471 C 0.766 0.20955 0.32724 0.0
H472 H 0.60465 0.75456 0.54561 0.0
H473 H 0.52802 0.73948 0.48789 0.0
H474 H 0.60482 0.78423 0.62349 0.0
H475 H 0.52817 0.76873 0.5649 0.0
H476 H 0.5241 0.79616 0.75387 0.0
H477 H 0.52596 0.76854 0.67541 0.0
H478 H 0.60547 0.82888 0.63317 0.0
H479 H 0.60355 0.85693 0.71251 0.0
C480 C 0.58778 0.75734 0.54988 0.0
C481 C 0.56626 0.7445 0.51073 0.0
C482 C 0.588 0.77456 0.59398 0.0
C483 C 0.56652 0.77892 0.60035 0.0
C484 C 0.54495 0.76574 0.56161 0.0
C485 C 0.54488 0.74892 0.51736 0.0
C486 C 0.54193 0.80377 0.72751 0.0
C487 C 0.56362 0.82887 0.73926 0.0
C488 C 0.54299 0.78787 0.68244 0.0
C489 C 0.56588 0.79641 0.64804 0.0
C490 C 0.58762 0.82164 0.65925 0.0
C491 C 0.58641 0.83782 0.70412 0.0
H492 H 0.79541 0.52121 0.66485 0.0
H493 H 0.85481 0.60134 0.70473 0.0
H494 H 0.76751 0.52244 0.7435 0.0
H495 H 0.82645 0.60265 0.78425 0.0
H496 H 0.75048 0.59937 0.87152 0.0
H497 H 0.7807 0.60043 0.79381 0.0
H498 H 0.76815 0.5251 0.85434 0.0
H499 H 0.73841 0.52409 0.93121 0.0
C500 C 0.80267 0.53907 0.69095 0.0
C501 C 0.82747 0.56111 0.67873 0.0
C502 C 0.78661 0.53976 0.73612 0.0
C503 C 0.79464 0.56266 0.77015 0.0
C504 C 0.81958 0.58477 0.75849 0.0
C505 C 0.83597 0.58393 0.71353 0.0
C506 C 0.75403 0.58297 0.86771 0.0
C507 C 0.74185 0.56157 0.90737 0.0
C508 C 0.77157 0.58372 0.82372 0.0
C509 C 0.77691 0.56287 0.81792 0.0
C510 C 0.76441 0.54141 0.85719 0.0
C511 C 0.7473 0.54084 0.90135 0.0
H512 H 0.24674 0.78863 0.79658 0.0
H513 H 0.27899 0.85709 0.91064 0.0
H514 H 0.21823 0.7615 0.87702 0.0
H515 H 0.25051 0.8295 0.99224 0.0
H516 H 0.2204 0.76111 0.13438 0.0
H517 H 0.24705 0.79051 0.05436 0.0
H518 H 0.17902 0.75682 0.9391 0.0
H519 H 0.15199 0.72752 0.02002 0.0
C520 C 0.24783 0.79793 0.83899 0.0
C521 C 0.26532 0.82508 0.84722 0.0
C522 C 0.23127 0.78234 0.88496 0.0
C523 C 0.232 0.7933 0.94095 0.0
C524 C 0.24954 0.82046 0.94955 0.0
C525 C 0.26583 0.83627 0.90291 0.0
C526 C 0.21103 0.75989 0.092 0.0
C527 C 0.18403 0.74177 0.08352 0.0
C528 C 0.22632 0.77697 0.04633 0.0
C529 C 0.21518 0.7761 0.99046 0.0
C530 C 0.18819 0.75792 0.98169 0.0
C531 C 0.17271 0.74113 0.02794 0.0
H532 H 0.46122 0.21566 0.28684 0.0
H533 H 0.42612 0.14694 0.17351 0.0
H534 H 0.45873 0.24219 0.2064 0.0
H535 H 0.42401 0.17388 0.09202 0.0
H536 H 0.46028 0.24111 0.94827 0.0
H537 H 0.45797 0.2122 0.02877 0.0
H538 H 0.42463 0.24685 0.14432 0.0
H539 H 0.42656 0.27579 0.06278 0.0
C540 C 0.45298 0.20616 0.24461 0.0
C541 C 0.44401 0.17912 0.23658 0.0
C542 C 0.45135 0.22141 0.19863 0.0
C543 C 0.4411 0.2102 0.14281 0.0
C544 C 0.4321 0.18313 0.13452 0.0
C545 C 0.43327 0.16769 0.18113 0.0
C546 C 0.45239 0.24263 0.99076 0.0
C547 C 0.44375 0.26097 0.9991 0.0
C548 C 0.45086 0.22582 0.03679 0.0
C549 C 0.44105 0.2271 0.09295 0.0
C550 C 0.43237 0.24542 0.10155 0.0
C551 C 0.43345 0.26199 0.05492 0.0
H552 H 0.12679 0.49568 0.1555 0.0
H553 H 0.15316 0.53917 0.99048 0.0
H554 H 0.12419 0.53238 0.20018 0.0
H555 H 0.15155 0.57586 0.03533 0.0
H556 H 0.12548 0.63016 0.11337 0.0
H557 H 0.12348 0.59104 0.06961 0.0
H558 H 0.15125 0.5759 0.23507 0.0
H559 H 0.15224 0.61412 0.27917 0.0
C560 C 0.13215 0.51306 0.12889 0.0
C561 C 0.14008 0.51436 0.06938 0.0
C562 C 0.13077 0.53418 0.1545 0.0
C563 C 0.13757 0.55717 0.12134 0.0
C564 C 0.14557 0.55836 0.06195 0.0
C565 C 0.14668 0.53726 0.03631 0.0
C566 C 0.13106 0.6184 0.14036 0.0
C567 C 0.13899 0.62533 0.19975 0.0
C568 C 0.13003 0.59601 0.11526 0.0
C569 C 0.13723 0.5802 0.14875 0.0
C570 C 0.14506 0.58718 0.20817 0.0
C571 C 0.14581 0.60932 0.23337 0.0
H572 H 0.60701 0.12441 0.13961 0.0
H573 H 0.64766 0.15068 0.30789 0.0
H574 H 0.56786 0.12189 0.18321 0.0
H575 H 0.60871 0.14916 0.3512 0.0
H576 H 0.52804 0.12232 0.42741 0.0
H577 H 0.56511 0.12092 0.38319 0.0
H578 H 0.55113 0.14895 0.21671 0.0
H579 H 0.51315 0.14933 0.26074 0.0
C580 C 0.60761 0.12972 0.18602 0.0
C581 C 0.6305 0.13779 0.22031 0.0
C582 C 0.58516 0.12846 0.21091 0.0
C583 C 0.58507 0.13551 0.27064 0.0
C584 C 0.60787 0.14321 0.30525 0.0
C585 C 0.63028 0.14417 0.28045 0.0
C586 C 0.53277 0.12809 0.38122 0.0
C587 C 0.5177 0.13607 0.34761 0.0
C588 C 0.55421 0.12746 0.35596 0.0
C589 C 0.56141 0.13509 0.29652 0.0
C590 C 0.54602 0.14263 0.26246 0.0
C591 C 0.52428 0.14294 0.28764 0.0
H592 H 0.37106 0.51271 0.44051 0.0
H593 H 0.40959 0.52989 0.61196 0.0
H594 H 0.41098 0.54886 0.39661 0.0
H595 H 0.44952 0.5651 0.56809 0.0
H596 H 0.50467 0.64595 0.48648 0.0
H597 H 0.46648 0.60813 0.53045 0.0
H598 H 0.45539 0.56365 0.36887 0.0
H599 H 0.49296 0.60174 0.32432 0.0
C600 C 0.38812 0.52396 0.46861 0.0
C601 C 0.38702 0.51857 0.52977 0.0
C602 C 0.41108 0.54462 0.44349 0.0
C603 C 0.43351 0.5601 0.47889 0.0
C604 C 0.43252 0.55409 0.53967 0.0
C605 C 0.40958 0.53374 0.56479 0.0
C606 C 0.49431 0.62797 0.4607 0.0
C607 C 0.50183 0.62692 0.40187 0.0
C608 C 0.47237 0.60622 0.48589 0.0
C609 C 0.45763 0.5828 0.45307 0.0
C610 C 0.46585 0.58149 0.39502 0.0
C611 C 0.48758 0.6033 0.36967 0.0
H612 H 0.88527 0.48183 0.47513 0.0
H613 H 0.8618 0.49687 0.64637 0.0
H614 H 0.88864 0.44546 0.51737 0.0
H615 H 0.86425 0.45975 0.68842 0.0
H616 H 0.89205 0.40603 0.75986 0.0
H617 H 0.89326 0.44454 0.71654 0.0
H618 H 0.86151 0.40173 0.5523 0.0
H619 H 0.86122 0.36327 0.59538 0.0
C620 C 0.88081 0.47735 0.52193 0.0
C621 C 0.87321 0.49223 0.55743 0.0
C622 C 0.88255 0.45632 0.54603 0.0
C623 C 0.87649 0.44943 0.60617 0.0
C624 C 0.8694 0.46467 0.64205 0.0
C625 C 0.86793 0.48595 0.61802 0.0
C626 C 0.88544 0.40483 0.71433 0.0
C627 C 0.87638 0.38152 0.68109 0.0
C628 C 0.88598 0.42692 0.68962 0.0
C629 C 0.8772 0.42624 0.63115 0.0
C630 C 0.86869 0.40309 0.59731 0.0
C631 C 0.86845 0.38099 0.62193 0.0
H632 H 0.36653 0.86279 0.81998 0.0
H633 H 0.40759 0.89243 0.65311 0.0
H634 H 0.40584 0.86496 0.8625 0.0
H635 H 0.44711 0.89545 0.6961 0.0
H636 H 0.50044 0.86483 0.76922 0.0
H637 H 0.46354 0.86745 0.72612 0.0
H638 H 0.44948 0.89305 0.89585 0.0
H639 H 0.4856 0.88952 0.93911 0.0
C640 C 0.38409 0.87025 0.79272 0.0
C641 C 0.38383 0.8773 0.73308 0.0
C642 C 0.40671 0.87158 0.81712 0.0
C643 C 0.42971 0.88025 0.78264 0.0
C644 C 0.42966 0.88816 0.72363 0.0
C645 C 0.407 0.88661 0.69911 0.0
C646 C 0.48964 0.87129 0.79704 0.0
C647 C 0.49583 0.87675 0.85765 0.0
C648 C 0.4685 0.87288 0.77237 0.0
C649 C 0.4533 0.88024 0.80764 0.0
C650 C 0.46028 0.88671 0.86765 0.0
C651 C 0.48116 0.88486 0.89237 0.0
H652 H 0.49896 0.37217 0.97041 0.0
H653 H 0.54484 0.38667 0.80965 0.0
H654 H 0.53522 0.41176 0.01488 0.0
H655 H 0.58107 0.42558 0.85445 0.0
H656 H 0.63306 0.50766 0.93188 0.0
H657 H 0.59502 0.46984 0.88624 0.0
H658 H 0.57865 0.42727 0.05235 0.0
H659 H 0.61575 0.46482 0.09799 0.0
C660 C 0.5168 0.38364 0.94476 0.0
C661 C 0.51891 0.3762 0.8865 0.0
C662 C 0.53762 0.40633 0.97021 0.0
C663 C 0.56108 0.42196 0.93812 0.0
C664 C 0.56316 0.41438 0.88003 0.0
C665 C 0.54237 0.39186 0.85454 0.0
C666 C 0.62126 0.49025 0.95857 0.0
C667 C 0.62749 0.48943 0.01863 0.0
C668 C 0.59952 0.46853 0.93243 0.0
C669 C 0.58366 0.44551 0.96575 0.0
C670 C 0.59001 0.44479 0.02566 0.0
C671 C 0.61152 0.46641 0.05172 0.0
H672 H 0.27139 0.47625 0.66784 0.0
H673 H 0.25484 0.39788 0.71256 0.0
H674 H 0.24134 0.47401 0.74469 0.0
H675 H 0.22384 0.39513 0.78977 0.0
H676 H 0.15289 0.39368 0.88657 0.0
H677 H 0.1818 0.39323 0.80769 0.0
H678 H 0.23867 0.47429 0.84862 0.0
H679 H 0.21046 0.47428 0.92726 0.0
C680 C 0.26131 0.45858 0.69474 0.0
C681 C 0.26606 0.43767 0.68649 0.0
C682 C 0.24382 0.45712 0.73832 0.0
C683 C 0.23011 0.43439 0.7735 0.0
C684 C 0.23398 0.41286 0.76318 0.0
C685 C 0.25177 0.41445 0.71953 0.0
C686 C 0.17172 0.41123 0.87836 0.0
C687 C 0.17925 0.43433 0.91092 0.0
C688 C 0.18828 0.41098 0.83369 0.0
C689 C 0.2126 0.43378 0.82181 0.0
C690 C 0.22019 0.45646 0.85625 0.0
C691 C 0.20389 0.45658 0.9009 0.0
H692 H 0.76463 0.15143 0.04187 0.0
H693 H 0.74511 0.21167 0.08173 0.0
H694 H 0.79558 0.1798 0.96477 0.0
H695 H 0.77502 0.23952 0.00484 0.0
H696 H 0.80633 0.27017 0.82266 0.0
H697 H 0.77808 0.24161 0.90076 0.0
H698 H 0.83696 0.2207 0.94699 0.0
H699 H 0.86576 0.25021 0.86823 0.0
C700 C 0.76704 0.17075 0.03385 0.0
C701 C 0.75194 0.17918 0.06544 0.0
C702 C 0.78479 0.18701 0.99027 0.0
C703 C 0.78777 0.21195 0.97856 0.0
C704 C 0.77324 0.2205 0.01234 0.0
C705 C 0.75582 0.20444 0.0559 0.0
C706 C 0.8133 0.25966 0.85001 0.0
C707 C 0.83842 0.26297 0.84147 0.0
C708 C 0.79702 0.24307 0.89441 0.0
C709 C 0.8052 0.22886 0.93027 0.0
C710 C 0.83005 0.23131 0.91989 0.0
C711 C 0.84654 0.24821 0.87532 0.0
H712 H 0.61518 0.76098 0.21363 0.0
H713 H 0.53462 0.73778 0.25579 0.0
H714 H 0.61506 0.78949 0.13376 0.0
H715 H 0.53421 0.76577 0.17676 0.0
H716 H 0.61113 0.85705 0.03679 0.0
H717 H 0.61352 0.82913 0.11495 0.0
H718 H 0.53392 0.76848 0.07259 0.0
H719 H 0.53183 0.79634 0.99523 0.0
C720 C 0.59752 0.76209 0.20554 0.0
C721 C 0.5746 0.74669 0.23877 0.0
C722 C 0.59744 0.77844 0.16033 0.0
C723 C 0.57456 0.77986 0.14875 0.0
C724 C 0.55204 0.76502 0.18395 0.0
C725 C 0.55217 0.74883 0.22892 0.0
C726 C 0.59428 0.83767 0.04463 0.0
C727 C 0.57094 0.82902 0.01225 0.0
C728 C 0.59567 0.82163 0.08881 0.0
C729 C 0.57386 0.79656 0.10017 0.0
C730 C 0.55096 0.7877 0.06555 0.0
C731 C 0.54963 0.80369 0.02161 0.0
H732 H 0.85504 0.61039 0.38389 0.0
H733 H 0.7953 0.53024 0.42151 0.0
H734 H 0.82688 0.6129 0.30617 0.0
H735 H 0.76774 0.5322 0.3437 0.0
H736 H 0.73841 0.53306 0.16013 0.0
H737 H 0.76659 0.53362 0.23952 0.0
H738 H 0.78577 0.61277 0.28653 0.0
H739 H 0.75672 0.61186 0.20635 0.0
C740 C 0.83585 0.59338 0.37528 0.0
C741 C 0.82755 0.56976 0.40634 0.0
C742 C 0.81972 0.59482 0.33132 0.0
C743 C 0.79502 0.57272 0.31865 0.0
C744 C 0.78653 0.54957 0.35203 0.0
C745 C 0.80245 0.54826 0.39606 0.0
C746 C 0.74849 0.55047 0.18788 0.0
C747 C 0.74483 0.57203 0.17912 0.0
C748 C 0.76482 0.5509 0.23305 0.0
C749 C 0.7784 0.57316 0.26957 0.0
C750 C 0.77563 0.59534 0.25897 0.0
C751 C 0.75901 0.59483 0.21357 0.0
H752 H 0.14873 0.75777 0.37862 0.0
H753 H 0.20892 0.73872 0.33418 0.0
H754 H 0.17723 0.78773 0.45699 0.0
H755 H 0.23728 0.76838 0.41088 0.0
H756 H 0.26999 0.79879 0.59192 0.0
H757 H 0.24084 0.7708 0.51417 0.0
H758 H 0.21734 0.82859 0.47678 0.0
H759 H 0.24737 0.857 0.55504 0.0
C760 C 0.16811 0.76017 0.38573 0.0
C761 C 0.17649 0.74548 0.35243 0.0
C762 C 0.18446 0.77735 0.43006 0.0
C763 C 0.20952 0.78033 0.44052 0.0
C764 C 0.21806 0.76635 0.40483 0.0
C765 C 0.20179 0.74925 0.36105 0.0
C766 C 0.25876 0.80555 0.56655 0.0
C767 C 0.26152 0.8303 0.5773 0.0
C768 C 0.2418 0.78942 0.52239 0.0
C769 C 0.22668 0.79738 0.48906 0.0
C770 C 0.22859 0.8218 0.50187 0.0
C771 C 0.24581 0.8381 0.54615 0.0
H772 H 0.39432 0.24581 0.70271 0.0
H773 H 0.4732 0.26434 0.74915 0.0
H774 H 0.39283 0.21527 0.6255 0.0
H775 H 0.47224 0.23504 0.67224 0.0
H776 H 0.39506 0.14512 0.53124 0.0
H777 H 0.39281 0.17357 0.60889 0.0
H778 H 0.47299 0.233 0.56789 0.0
H779 H 0.47462 0.20535 0.49009 0.0
C780 C 0.41125 0.24328 0.69615 0.0
C781 C 0.43425 0.25795 0.72975 0.0
C782 C 0.4104 0.2258 0.65249 0.0
C783 C 0.43247 0.22274 0.64267 0.0
C784 C 0.45495 0.23686 0.67831 0.0
C785 C 0.45566 0.25394 0.72193 0.0
C786 C 0.41201 0.1644 0.53918 0.0
C787 C 0.43539 0.17285 0.50693 0.0
C788 C 0.41073 0.18069 0.5831 0.0
C789 C 0.43276 0.20561 0.59459 0.0
C790 C 0.45569 0.21406 0.56045 0.0
C791 C 0.45681 0.19807 0.51641 0.0
H792 H 0.05538 0.43171 0.99349 0.0
H793 H 0.07844 0.38096 0.90574 0.0
H794 H 0.01229 0.40836 0.94516 0.0
H795 H 0.03574 0.35808 0.85507 0.0
H796 H 0.94566 0.31196 0.80692 0.0
H797 H 0.98821 0.33014 0.85847 0.0
H798 H 0.99763 0.40805 0.84647 0.0
H799 H 0.95502 0.38965 0.79722 0.0
C800 C 0.05083 0.41497 0.96523 0.0
C801 C 0.06991 0.40775 0.95419 0.0
C802 C 0.02638 0.40191 0.93645 0.0
C803 C 0.02069 0.38169 0.89489 0.0
C804 C 0.03932 0.37346 0.88673 0.0
C805 C 0.06372 0.38643 0.91604 0.0
C806 C 0.95737 0.33306 0.81364 0.0
C807 C 0.94733 0.3495 0.7974 0.0
C808 C 0.98159 0.34348 0.84376 0.0
C809 C 0.99612 0.37052 0.85812 0.0
C810 C 0.98668 0.38704 0.83803 0.0
C811 C 0.96251 0.37663 0.80864 0.0
H812 H 0.62001 0.95188 0.90856 0.0
H813 H 0.58243 0.93107 0.08129 0.0
H814 H 0.64824 0.99722 0.94358 0.0
H815 H 0.60999 0.97579 0.11524 0.0
H816 H 0.67245 0.05676 0.1758 0.0
H817 H 0.65378 0.01097 0.14206 0.0
H818 H 0.64075 0.03324 0.96753 0.0
H819 H 0.65934 0.07823 1.00019 0.0
C820 C 0.61786 0.95682 0.95389 0.0
C821 C 0.59864 0.93774 0.99155 0.0
C822 C 0.63398 0.98281 0.97402 0.0
C823 C 0.63137 0.99022 0.03236 0.0
C824 C 0.61289 0.97085 0.07046 0.0
C825 C 0.59679 0.9451 0.05042 0.0
C826 C 0.66584 0.05187 0.13015 0.0
C827 C 0.66723 0.0713 0.09122 0.0
C828 C 0.65509 0.02564 0.11075 0.0
C829 C 0.64574 0.01837 0.05189 0.0
C830 C 0.64806 0.03803 0.01273 0.0
C831 C 0.65854 0.06398 0.03203 0.0
H832 H 0.62152 0.5617 0.17165 0.0
H833 H 0.69257 0.6309 0.11308 0.0
H834 H 0.60639 0.58923 0.2178 0.0
H835 H 0.67752 0.65888 0.1606 0.0
H836 H 0.62324 0.69531 0.20182 0.0
H837 H 0.64463 0.67273 0.15774 0.0
H838 H 0.61655 0.61721 0.30359 0.0
H839 H 0.59425 0.6394 0.3461 0.0
C840 C 0.63381 0.58291 0.16806 0.0
C841 C 0.65824 0.59411 0.13857 0.0
C842 C 0.6253 0.59874 0.1954 0.0
C843 C 0.64103 0.62633 0.19453 0.0
C844 C 0.66494 0.63769 0.16242 0.0
C845 C 0.67348 0.62171 0.13466 0.0
C846 C 0.6221 0.67858 0.22496 0.0
C847 C 0.60698 0.66898 0.27714 0.0
C848 C 0.63447 0.66568 0.19982 0.0
C849 C 0.63186 0.64276 0.22625 0.0
C850 C 0.61844 0.63444 0.28118 0.0
C851 C 0.60605 0.64738 0.30626 0.0
H852 H 0.05445 0.62376 0.2637 0.0
H853 H 0.07438 0.69395 0.3641 0.0
H854 H 0.00926 0.6032 0.30086 0.0
H855 H 0.02893 0.67363 0.40128 0.0
H856 H 0.95302 0.61228 0.50785 0.0
H857 H 0.99831 0.63761 0.46901 0.0
H858 H 0.97003 0.60617 0.29343 0.0
H859 H 0.92589 0.58081 0.33145 0.0
C860 C 0.04883 0.63504 0.29229 0.0
C861 C 0.06755 0.66058 0.30989 0.0
C862 C 0.02301 0.62329 0.31399 0.0
C863 C 0.01537 0.63678 0.35415 0.0
C864 C 0.03415 0.6626 0.37092 0.0
C865 C 0.06002 0.67437 0.349 0.0
C866 C 0.95654 0.61101 0.46096 0.0
C867 C 0.93569 0.59416 0.42326 0.0
C868 C 0.98246 0.62556 0.43859 0.0
C869 C 0.9879 0.62358 0.37814 0.0
C870 C 0.9668 0.60771 0.34039 0.0
C871 C 0.94126 0.59321 0.3625 0.0
H872 H 0.44781 0.06194 0.50748 0.0
H873 H 0.37841 0.06159 0.44151 0.0
H874 H 0.42048 0.01939 0.55405 0.0
H875 H 0.35061 0.01864 0.48939 0.0
H876 H 0.31575 0.92852 0.53172 0.0
H877 H 0.33811 0.97238 0.48772 0.0
H878 H 0.39128 1.00095 0.63791 0.0
H879 H 0.36927 0.9565 0.68059 0.0
C880 C 0.4266 0.05256 0.5024 0.0
C881 C 0.41528 0.06513 0.47065 0.0
C882 C 0.41088 0.0283 0.52998 0.0
C883 C 0.38327 0.01581 0.52703 0.0
C884 C 0.37183 0.02774 0.49283 0.0
C885 C 0.38771 0.0522 0.46486 0.0
C886 C 0.33193 0.94428 0.55576 0.0
C887 C 0.34096 0.93908 0.60925 0.0
C888 C 0.34468 0.96952 0.53068 0.0
C889 C 0.3669 0.99016 0.55846 0.0
C890 C 0.3746 0.98536 0.61452 0.0
C891 C 0.36177 0.96004 0.63962 0.0
H892 H 0.32887 0.38352 0.60986 0.0
H893 H 0.38483 0.45064 0.71296 0.0
H894 H 0.34855 0.35784 0.64924 0.0
H895 H 0.40358 0.4253 0.75222 0.0
H896 H 0.45321 0.38613 0.7455 0.0
H897 H 0.43011 0.40777 0.70762 0.0
H898 H 0.35549 0.33937 0.75191 0.0
H899 H 0.37907 0.31723 0.78992 0.0
C900 C 0.34537 0.39282 0.64033 0.0
C901 C 0.3553 0.41919 0.65788 0.0
C902 C 0.35636 0.37805 0.6635 0.0
C903 C 0.37761 0.38956 0.70392 0.0
C904 C 0.38741 0.41587 0.72089 0.0
C905 C 0.37654 0.43041 0.69824 0.0
C906 C 0.43187 0.37575 0.748 0.0
C907 C 0.41797 0.3501 0.77135 0.0
C908 C 0.41861 0.38815 0.7261 0.0
C909 C 0.39095 0.37529 0.72659 0.0
C910 C 0.37682 0.34966 0.75054 0.0
C911 C 0.39027 0.3372 0.77319 0.0
loop_
_geom_bond_atom_site_label_1
_geom_bond_atom_site_label_2
_geom_bond_distance
_geom_bond_site_symmetry_2
_ccdc_geom_bond_type
Mn0 O5 2.095 . S
Mn0 O15 2.162 . S
Mn0 O16 2.297 . S
Mn0 O24 2.385 1_554 S
Mn0 O25 2.209 1_554 S
Mn0 O26 2.094 . S
Mn1 O6 2.121 . S
Mn1 N8 2.257 . S
Mn1 N17 2.282 . S
Mn1 O25 2.215 . S
Mn1 O27 2.117 . S
C2 O24 1.234 . S
C2 O25 1.283 . S
C3 O15 1.281 . S
C3 O16 1.236 . S
C4 O26 1.240 1_556 S
C4 O27 1.264 . S
O5 Mn0 2.095 . S
O5 C14 1.250 . S
O6 Mn1 2.121 . S
O6 C14 1.258 1_556 S
C7 N8 1.326 . S
C7 C11 1.460 . S
C7 H13 0.929 . S
N8 Mn1 2.257 . S
N8 C7 1.326 . S
N8 C12 1.362 . S
C9 C10 1.258 . S
C9 C12 1.431 . S
C9 C29 1.449 . S
C10 C9 1.258 . S
C10 C11 1.477 . S
C10 H30 0.931 . S
C11 C7 1.460 . S
C11 C10 1.477 . S
C11 H31 0.930 . S
C12 N8 1.362 . S
C12 C9 1.431 . S
C12 C22 1.476 . S
H13 C7 0.929 . S
C14 O5 1.250 . S
C14 O6 1.258 1_554 S
O15 Mn0 2.162 . S
O15 C3 1.281 . S
O16 Mn0 2.297 . S
O16 C3 1.236 . S
N17 Mn1 2.282 . S
N17 C18 1.328 . S
N17 C22 1.318 . S
C18 N17 1.328 . S
C18 C19 1.457 . S
C18 H23 0.929 . S
C19 C18 1.457 . S
C19 C20 1.291 . S
C19 H32 0.931 . S
C20 C19 1.291 . S
C20 C21 1.373 . S
C20 H33 0.929 . S
C21 C20 1.373 . S
C21 C22 1.396 . S
C21 C28 1.403 . S
C22 C12 1.476 . S
C22 N17 1.318 . S
C22 C21 1.396 . S
H23 C18 0.929 . S
O24 Mn0 2.385 1_556 S
O24 C2 1.234 . S
O25 Mn0 2.209 1_556 S
O25 Mn1 2.215 . S
O25 C2 1.283 . S
O26 Mn0 2.094 . S
O26 C4 1.240 1_554 S
O27 Mn1 2.117 . S
O27 C4 1.264 . S
C28 C21 1.403 . S
C28 C29 1.399 . S
C28 H34 0.929 . S
C29 C9 1.449 . S
C29 C28 1.399 . S
C29 H35 0.930 . S
H30 C10 0.931 . S
H31 C11 0.930 . S
H32 C19 0.931 . S
H33 C20 0.929 . S
H34 C28 0.929 . S
H35 C29 0.930 . S
Mn36 O41 2.095 . S
Mn36 O51 2.162 . S
Mn36 O52 2.297 . S
Mn36 O60 2.385 . S
Mn36 O61 2.209 . S
Mn36 O62 2.094 . S
Mn37 O42 2.121 . S
Mn37 N44 2.257 . S
Mn37 N53 2.282 . S
Mn37 O61 2.215 . S
Mn37 O63 2.117 . S
C38 O60 1.234 . S
C38 O61 1.283 . S
C39 O51 1.281 . S
C39 O52 1.236 . S
C40 O62 1.240 . S
C40 O63 1.264 . S
O41 Mn36 2.095 . S
O41 C50 1.250 . S
O42 Mn37 2.121 . S
O42 C50 1.258 . S
C43 N44 1.326 . S
C43 C47 1.460 . S
C43 H49 0.929 . S
N44 Mn37 2.257 . S
N44 C43 1.326 . S
N44 C48 1.362 1_554 S
C45 C46 1.258 . S
C45 C48 1.431 . S
C45 C65 1.449 . S
C46 C45 1.258 . S
C46 C47 1.477 1_556 S
C46 H66 0.931 . S
C47 C43 1.460 . S
C47 C46 1.477 1_554 S
C47 H67 0.930 . S
C48 N44 1.362 1_556 S
C48 C45 1.431 . S
C48 C58 1.476 . S
H49 C43 0.929 . S
C50 O41 1.250 . S
C50 O42 1.258 . S
O51 Mn36 2.162 . S
O51 C39 1.281 . S
O52 Mn36 2.297 . S
O52 C39 1.236 . S
N53 Mn37 2.282 . S
N53 C54 1.328 1_554 S
N53 C58 1.318 1_554 S
C54 N53 1.328 1_556 S
C54 C55 1.457 . S
C54 H59 0.929 1_556 S
C55 C54 1.457 . S
C55 C56 1.291 . S
C55 H68 0.931 . S
C56 C55 1.291 . S
C56 C57 1.373 . S
C56 H69 0.929 . S
C57 C56 1.373 . S
C57 C58 1.396 . S
C57 C64 1.403 . S
C58 C48 1.476 . S
C58 N53 1.318 1_556 S
C58 C57 1.396 . S
H59 C54 0.929 1_554 S
O60 Mn36 2.385 . S
O60 C38 1.234 . S
O61 Mn36 2.209 . S
O61 Mn37 2.215 . S
O61 C38 1.283 . S
O62 Mn36 2.094 . S
O62 C40 1.240 . S
O63 Mn37 2.117 . S
O63 C40 1.264 . S
C64 C57 1.403 . S
C64 C65 1.399 . S
C64 H70 0.929 . S
C65 C45 1.449 . S
C65 C64 1.399 . S
C65 H71 0.930 . S
H66 C46 0.931 . S
H67 C47 0.930 . S
H68 C55 0.931 . S
H69 C56 0.929 . S
H70 C64 0.929 . S
H71 C65 0.930 . S
Mn72 O77 2.095 . S
Mn72 O87 2.162 . S
Mn72 O88 2.297 . S
Mn72 O96 2.385 . S
Mn72 O97 2.209 . S
Mn72 O98 2.094 . S
Mn73 O78 2.121 . S
Mn73 N80 2.257 . S
Mn73 N89 2.282 . S
Mn73 O97 2.215 . S
Mn73 O99 2.117 . S
C74 O96 1.234 . S
C74 O97 1.283 . S
C75 O87 1.281 . S
C75 O88 1.236 . S
C76 O98 1.240 . S
C76 O99 1.264 . S
O77 Mn72 2.095 . S
O77 C86 1.250 . S
O78 Mn73 2.121 . S
O78 C86 1.258 . S
C79 N80 1.326 . S
C79 C83 1.460 . S
C79 H85 0.929 . S
N80 Mn73 2.257 . S
N80 C79 1.326 . S
N80 C84 1.362 . S
C81 C82 1.258 . S
C81 C84 1.431 . S
C81 C101 1.449 . S
C82 C81 1.258 . S
C82 C83 1.477 . S
C82 H102 0.931 . S
C83 C79 1.460 . S
C83 C82 1.477 . S
C83 H103 0.930 . S
C84 N80 1.362 . S
C84 C81 1.431 . S
C84 C94 1.476 . S
H85 C79 0.929 . S
C86 O77 1.250 . S
C86 O78 1.258 . S
O87 Mn72 2.162 . S
O87 C75 1.281 . S
O88 Mn72 2.297 . S
O88 C75 1.236 . S
N89 Mn73 2.282 . S
N89 C90 1.328 . S
N89 C94 1.318 . S
C90 N89 1.328 . S
C90 C91 1.457 . S
C90 H95 0.929 . S
C91 C90 1.457 . S
C91 C92 1.291 . S
C91 H104 0.931 . S
C92 C91 1.291 . S
C92 C93 1.373 . S
C92 H105 0.929 . S
C93 C92 1.373 . S
C93 C94 1.396 . S
C93 C100 1.403 . S
C94 C84 1.476 . S
C94 N89 1.318 . S
C94 C93 1.396 . S
H95 C90 0.929 . S
O96 Mn72 2.385 . S
O96 C74 1.234 . S
O97 Mn72 2.209 . S
O97 Mn73 2.215 . S
O97 C74 1.283 . S
O98 Mn72 2.094 . S
O98 C76 1.240 . S
O99 Mn73 2.117 . S
O99 C76 1.264 . S
C100 C93 1.403 . S
C100 C101 1.399 . S
C100 H106 0.931 1_554 S
C101 C81 1.449 . S
C101 C100 1.399 . S
C101 H107 0.930 . S
H102 C82 0.931 . S
H103 C83 0.930 . S
H104 C91 0.931 . S
H105 C92 0.929 . S
H106 C100 0.931 1_556 S
H107 C101 0.930 . S
Mn108 O113 2.095 . S
Mn108 O123 2.162 . S
Mn108 O124 2.297 . S
Mn108 O132 2.385 . S
Mn108 O133 2.209 . S
Mn108 O134 2.094 . S
Mn109 O114 2.121 . S
Mn109 N116 2.257 . S
Mn109 N125 2.282 . S
Mn109 O133 2.215 . S
Mn109 O135 2.117 . S
C110 O132 1.234 . S
C110 O133 1.283 . S
C111 O123 1.281 . S
C111 O124 1.236 . S
C112 O134 1.240 . S
C112 O135 1.264 . S
O113 Mn108 2.095 . S
O113 C122 1.250 . S
O114 Mn109 2.121 . S
O114 C122 1.258 . S
C115 N116 1.326 . S
C115 C119 1.460 . S
C115 H121 0.929 . S
N116 Mn109 2.257 . S
N116 C115 1.326 . S
N116 C120 1.362 . S
C117 C118 1.258 . S
C117 C120 1.431 . S
C117 C137 1.449 . S
C118 C117 1.258 . S
C118 C119 1.477 . S
C118 H138 0.931 . S
C119 C115 1.460 . S
C119 C118 1.477 . S
C119 H139 0.930 . S
C120 N116 1.362 . S
C120 C117 1.431 . S
C120 C130 1.476 . S
H121 C115 0.929 . S
C122 O113 1.250 . S
C122 O114 1.258 . S
O123 Mn108 2.162 . S
O123 C111 1.281 . S
O124 Mn108 2.297 . S
O124 C111 1.236 . S
N125 Mn109 2.282 . S
N125 C126 1.328 . S
N125 C130 1.318 . S
C126 N125 1.328 . S
C126 C127 1.457 . S
C126 H131 0.929 . S
C127 C126 1.457 . S
C127 C128 1.291 . S
C127 H140 0.931 . S
C128 C127 1.291 . S
C128 C129 1.373 . S
C128 H141 0.929 . S
C129 C128 1.373 . S
C129 C130 1.396 . S
C129 C136 1.403 . S
C130 C120 1.476 . S
C130 N125 1.318 . S
C130 C129 1.396 . S
H131 C126 0.929 . S
O132 Mn108 2.385 . S
O132 C110 1.234 . S
O133 Mn108 2.209 . S
O133 Mn109 2.215 . S
O133 C110 1.283 . S
O134 Mn108 2.094 . S
O134 C112 1.240 . S
O135 Mn109 2.117 . S
O135 C112 1.264 . S
C136 C129 1.403 . S
C136 C137 1.399 . S
C136 H142 0.929 . S
C137 C117 1.449 . S
C137 C136 1.399 . S
C137 H143 0.930 . S
H138 C118 0.931 . S
H139 C119 0.930 . S
H140 C127 0.931 . S
H141 C128 0.929 . S
H142 C136 0.929 . S
H143 C137 0.930 . S
Mn144 O149 2.095 . S
Mn144 O159 2.162 . S
Mn144 O160 2.297 . S
Mn144 O168 2.385 . S
Mn144 O169 2.209 . S
Mn144 O170 2.094 . S
Mn145 O150 2.121 . S
Mn145 N152 2.257 . S
Mn145 N161 2.282 . S
Mn145 O169 2.215 . S
Mn145 O171 2.117 . S
C146 O168 1.234 . S
C146 O169 1.283 . S
C147 O159 1.281 . S
C147 O160 1.236 . S
C148 O170 1.240 . S
C148 O171 1.264 . S
O149 Mn144 2.095 . S
O149 C158 1.250 . S
O150 Mn145 2.121 . S
O150 C158 1.258 . S
C151 N152 1.326 . S
C151 C155 1.460 . S
C151 H157 0.929 . S
N152 Mn145 2.257 . S
N152 C151 1.326 . S
N152 C156 1.362 . S
C153 C154 1.258 . S
C153 C156 1.431 . S
C153 C173 1.449 . S
C154 C153 1.258 . S
C154 C155 1.477 . S
C154 H174 0.931 . S
C155 C151 1.460 . S
C155 C154 1.477 . S
C155 H175 0.930 . S
C156 N152 1.362 . S
C156 C153 1.431 . S
C156 C166 1.476 . S
H157 C151 0.929 . S
C158 O149 1.250 . S
C158 O150 1.258 . S
O159 Mn144 2.162 . S
O159 C147 1.281 . S
O160 Mn144 2.297 . S
O160 C147 1.236 . S
N161 Mn145 2.282 . S
N161 C162 1.328 . S
N161 C166 1.318 . S
C162 N161 1.328 . S
C162 C163 1.457 . S
C162 H167 0.929 . S
C163 C162 1.457 . S
C163 C164 1.291 . S
C163 H176 0.931 . S
C164 C163 1.291 . S
C164 C165 1.373 . S
C164 H177 0.929 . S
C165 C164 1.373 . S
C165 C166 1.396 . S
C165 C172 1.403 . S
C166 C156 1.476 . S
C166 N161 1.318 . S
C166 C165 1.396 . S
H167 C162 0.929 . S
O168 Mn144 2.385 . S
O168 C146 1.234 . S
O169 Mn144 2.209 . S
O169 Mn145 2.215 . S
O169 C146 1.283 . S
O170 Mn144 2.094 . S
O170 C148 1.240 . S
O171 Mn145 2.117 . S
O171 C148 1.264 . S
C172 C165 1.403 . S
C172 C173 1.399 . S
C172 H178 0.929 . S
C173 C153 1.449 . S
C173 C172 1.399 . S
C173 H179 0.930 . S
H174 C154 0.931 . S
H175 C155 0.930 . S
H176 C163 0.931 . S
H177 C164 0.929 . S
H178 C172 0.929 . S
H179 C173 0.930 . S
Mn180 O185 2.095 . S
Mn180 O195 2.162 . S
Mn180 O196 2.297 . S
Mn180 O204 2.385 . S
Mn180 O205 2.209 . S
Mn180 O206 2.094 . S
Mn181 O186 2.121 . S
Mn181 N188 2.257 . S
Mn181 N197 2.282 . S
Mn181 O205 2.215 . S
Mn181 O207 2.117 . S
C182 O204 1.234 . S
C182 O205 1.283 . S
C183 O195 1.281 . S
C183 O196 1.236 . S
C184 O206 1.240 . S
C184 O207 1.264 . S
O185 Mn180 2.095 . S
O185 C194 1.250 . S
O186 Mn181 2.121 . S
O186 C194 1.258 . S
C187 N188 1.326 . S
C187 C191 1.460 . S
C187 H193 0.929 . S
N188 Mn181 2.257 . S
N188 C187 1.326 . S
N188 C192 1.362 . S
C189 C190 1.258 . S
C189 C192 1.431 . S
C189 C209 1.449 . S
C190 C189 1.258 . S
C190 C191 1.477 . S
C190 H210 0.931 . S
C191 C187 1.460 . S
C191 C190 1.477 . S
C191 H211 0.930 . S
C192 N188 1.362 . S
C192 C189 1.431 . S
C192 C202 1.476 . S
H193 C187 0.929 . S
C194 O185 1.250 . S
C194 O186 1.258 . S
O195 Mn180 2.162 . S
O195 C183 1.281 . S
O196 Mn180 2.297 . S
O196 C183 1.236 . S
N197 Mn181 2.282 . S
N197 C198 1.328 . S
N197 C202 1.318 . S
C198 N197 1.328 . S
C198 C199 1.457 . S
C198 H203 0.929 . S
C199 C198 1.457 . S
C199 C200 1.291 . S
C199 H212 0.931 . S
C200 C199 1.291 . S
C200 C201 1.373 . S
C200 H213 0.929 . S
C201 C200 1.373 . S
C201 C202 1.396 . S
C201 C208 1.403 . S
C202 C192 1.476 . S
C202 N197 1.318 . S
C202 C201 1.396 . S
H203 C198 0.929 . S
O204 Mn180 2.385 . S
O204 C182 1.234 . S
O205 Mn180 2.209 . S
O205 Mn181 2.215 . S
O205 C182 1.283 . S
O206 Mn180 2.094 . S
O206 C184 1.240 . S
O207 Mn181 2.117 . S
O207 C184 1.264 . S
C208 C201 1.403 . S
C208 C209 1.399 . S
C208 H214 0.929 . S
C209 C189 1.449 . S
C209 C208 1.399 . S
C209 H215 0.930 . S
H210 C190 0.931 . S
H211 C191 0.930 . S
H212 C199 0.931 . S
H213 C200 0.929 . S
H214 C208 0.929 . S
H215 C209 0.930 . S
Mn216 O221 2.095 . S
Mn216 O231 2.162 . S
Mn216 O232 2.297 . S
Mn216 O240 2.385 . S
Mn216 O241 2.209 . S
Mn216 O242 2.094 . S
Mn217 O222 2.121 . S
Mn217 N224 2.257 1_556 S
Mn217 N233 2.282 1_556 S
Mn217 O241 2.215 . S
Mn217 O243 2.117 . S
C218 O240 1.234 . S
C218 O241 1.283 . S
C219 O231 1.281 . S
C219 O232 1.236 . S
C220 O242 1.240 . S
C220 O243 1.264 . S
O221 Mn216 2.095 . S
O221 C230 1.250 . S
O222 Mn217 2.121 . S
O222 C230 1.258 . S
C223 N224 1.326 . S
C223 C227 1.460 . S
C223 H229 0.929 1_554 S
N224 Mn217 2.257 1_554 S
N224 C223 1.326 . S
N224 C228 1.362 . S
C225 C226 1.258 . S
C225 C228 1.431 . S
C225 C245 1.449 . S
C226 C225 1.258 . S
C226 C227 1.477 . S
C226 H246 0.931 . S
C227 C223 1.460 . S
C227 C226 1.477 . S
C227 H247 0.930 . S
C228 N224 1.362 . S
C228 C225 1.431 . S
C228 C238 1.476 . S
H229 C223 0.929 1_556 S
C230 O221 1.250 . S
C230 O222 1.258 . S
O231 Mn216 2.162 . S
O231 C219 1.281 . S
O232 Mn216 2.297 . S
O232 C219 1.236 . S
N233 Mn217 2.282 1_554 S
N233 C234 1.328 . S
N233 C238 1.318 . S
C234 N233 1.328 . S
C234 C235 1.457 . S
C234 H239 0.929 . S
C235 C234 1.457 . S
C235 C236 1.291 . S
C235 H248 0.931 . S
C236 C235 1.291 . S
C236 C237 1.373 . S
C236 H249 0.929 . S
C237 C236 1.373 . S
C237 C238 1.396 . S
C237 C244 1.403 . S
C238 C228 1.476 . S
C238 N233 1.318 . S
C238 C237 1.396 . S
H239 C234 0.929 . S
O240 Mn216 2.385 . S
O240 C218 1.234 . S
O241 Mn216 2.209 . S
O241 Mn217 2.215 . S
O241 C218 1.283 . S
O242 Mn216 2.094 . S
O242 C220 1.240 . S
O243 Mn217 2.117 . S
O243 C220 1.264 . S
C244 C237 1.403 . S
C244 C245 1.399 . S
C244 H250 0.929 . S
C245 C225 1.449 . S
C245 C244 1.399 . S
C245 H251 0.930 . S
H246 C226 0.931 . S
H247 C227 0.930 . S
H248 C235 0.931 . S
H249 C236 0.929 . S
H250 C244 0.929 . S
H251 C245 0.930 . S
Mn252 O257 2.095 . S
Mn252 O267 2.162 1_554 S
Mn252 O268 2.297 1_554 S
Mn252 O276 2.385 . S
Mn252 O277 2.209 . S
Mn252 O278 2.094 . S
Mn253 O258 2.121 . S
Mn253 N260 2.257 . S
Mn253 N269 2.282 . S
Mn253 O277 2.215 . S
Mn253 O279 2.117 . S
C254 O276 1.234 . S
C254 O277 1.283 . S
C255 O267 1.281 . S
C255 O268 1.236 . S
C256 O278 1.240 . S
C256 O279 1.264 . S
O257 Mn252 2.095 . S
O257 C266 1.250 . S
O258 Mn253 2.121 . S
O258 C266 1.258 . S
C259 N260 1.326 . S
C259 C263 1.460 . S
C259 H265 0.929 . S
N260 Mn253 2.257 . S
N260 C259 1.326 . S
N260 C264 1.362 . S
C261 C262 1.258 . S
C261 C264 1.431 . S
C261 C281 1.449 . S
C262 C261 1.258 . S
C262 C263 1.477 . S
C262 H282 0.931 . S
C263 C259 1.460 . S
C263 C262 1.477 . S
C263 H283 0.930 . S
C264 N260 1.362 . S
C264 C261 1.431 . S
C264 C274 1.476 . S
H265 C259 0.929 . S
C266 O257 1.250 . S
C266 O258 1.258 . S
O267 Mn252 2.162 1_556 S
O267 C255 1.281 . S
O268 Mn252 2.297 1_556 S
O268 C255 1.236 . S
N269 Mn253 2.282 . S
N269 C270 1.328 . S
N269 C274 1.318 . S
C270 N269 1.328 . S
C270 C271 1.457 . S
C270 H275 0.929 . S
C271 C270 1.457 . S
C271 C272 1.291 . S
C271 H284 0.931 . S
C272 C271 1.291 . S
C272 C273 1.373 . S
C272 H285 0.929 . S
C273 C272 1.373 . S
C273 C274 1.396 . S
C273 C280 1.403 . S
C274 C264 1.476 . S
C274 N269 1.318 . S
C274 C273 1.396 . S
H275 C270 0.929 . S
O276 Mn252 2.385 . S
O276 C254 1.234 . S
O277 Mn252 2.209 . S
O277 Mn253 2.215 . S
O277 C254 1.283 . S
O278 Mn252 2.094 . S
O278 C256 1.240 . S
O279 Mn253 2.117 . S
O279 C256 1.264 . S
C280 C273 1.403 . S
C280 C281 1.399 . S
C280 H286 0.929 . S
C281 C261 1.449 . S
C281 C280 1.399 . S
C281 H287 0.930 . S
H282 C262 0.931 . S
H283 C263 0.930 . S
H284 C271 0.931 . S
H285 C272 0.929 . S
H286 C280 0.929 . S
H287 C281 0.930 . S
Mn288 O293 2.095 . S
Mn288 O303 2.162 . S
Mn288 O304 2.297 . S
Mn288 O312 2.385 . S
Mn288 O313 2.209 . S
Mn288 O314 2.094 . S
Mn289 O294 2.121 . S
Mn289 N296 2.257 . S
Mn289 N305 2.282 . S
Mn289 O313 2.215 . S
Mn289 O315 2.117 . S
C290 O312 1.234 . S
C290 O313 1.283 . S
C291 O303 1.281 . S
C291 O304 1.236 . S
C292 O314 1.240 . S
C292 O315 1.264 . S
O293 Mn288 2.095 . S
O293 C302 1.250 . S
O294 Mn289 2.121 . S
O294 C302 1.258 . S
C295 N296 1.326 . S
C295 C299 1.460 . S
C295 H301 0.929 . S
N296 Mn289 2.257 . S
N296 C295 1.326 . S
N296 C300 1.362 . S
C297 C298 1.258 . S
C297 C300 1.431 . S
C297 C317 1.449 . S
C298 C297 1.258 . S
C298 C299 1.477 . S
C298 H318 0.931 . S
C299 C295 1.460 . S
C299 C298 1.477 . S
C299 H319 0.930 . S
C300 N296 1.362 . S
C300 C297 1.431 . S
C300 C310 1.476 . S
H301 C295 0.929 . S
C302 O293 1.250 . S
C302 O294 1.258 . S
O303 Mn288 2.162 . S
O303 C291 1.281 . S
O304 Mn288 2.297 . S
O304 C291 1.236 . S
N305 Mn289 2.282 . S
N305 C306 1.328 . S
N305 C310 1.318 . S
C306 N305 1.328 . S
C306 C307 1.457 . S
C306 H311 0.929 . S
C307 C306 1.457 . S
C307 C308 1.291 . S
C307 H320 0.931 . S
C308 C307 1.291 . S
C308 C309 1.373 . S
C308 H321 0.929 . S
C309 C308 1.373 . S
C309 C310 1.396 . S
C309 C316 1.403 . S
C310 C300 1.476 . S
C310 N305 1.318 . S
C310 C309 1.396 . S
H311 C306 0.929 . S
O312 Mn288 2.385 . S
O312 C290 1.234 . S
O313 Mn288 2.209 . S
O313 Mn289 2.215 . S
O313 C290 1.283 . S
O314 Mn288 2.094 . S
O314 C292 1.240 . S
O315 Mn289 2.117 . S
O315 C292 1.264 . S
C316 C309 1.403 . S
C316 C317 1.399 . S
C316 H322 0.929 . S
C317 C297 1.449 . S
C317 C316 1.399 . S
C317 H323 0.930 . S
H318 C298 0.931 . S
H319 C299 0.930 . S
H320 C307 0.931 . S
H321 C308 0.929 . S
H322 C316 0.929 . S
H323 C317 0.930 . S
Mn324 O329 2.095 . S
Mn324 O339 2.162 . S
Mn324 O340 2.297 . S
Mn324 O348 2.385 . S
Mn324 O349 2.209 . S
Mn324 O350 2.094 . S
Mn325 O330 2.121 . S
Mn325 N332 2.257 . S
Mn325 N341 2.282 . S
Mn325 O349 2.215 . S
Mn325 O351 2.117 . S
C326 O348 1.234 . S
C326 O349 1.283 . S
C327 O339 1.281 . S
C327 O340 1.236 . S
C328 O350 1.240 . S
C328 O351 1.264 . S
O329 Mn324 2.095 . S
O329 C338 1.250 . S
O330 Mn325 2.121 . S
O330 C338 1.258 . S
C331 N332 1.326 . S
C331 C335 1.460 . S
C331 H337 0.929 . S
N332 Mn325 2.257 . S
N332 C331 1.326 . S
N332 C336 1.362 . S
C333 C334 1.258 . S
C333 C336 1.431 . S
C333 C353 1.449 . S
C334 C333 1.258 . S
C334 C335 1.477 . S
C334 H354 0.931 . S
C335 C331 1.460 . S
C335 C334 1.477 . S
C335 H355 0.930 . S
C336 N332 1.362 . S
C336 C333 1.431 . S
C336 C346 1.476 . S
H337 C331 0.929 . S
C338 O329 1.250 . S
C338 O330 1.258 . S
O339 Mn324 2.162 . S
O339 C327 1.281 . S
O340 Mn324 2.297 . S
O340 C327 1.236 . S
N341 Mn325 2.282 . S
N341 C342 1.328 . S
N341 C346 1.318 . S
C342 N341 1.328 . S
C342 C343 1.457 . S
C342 H347 0.929 . S
C343 C342 1.457 . S
C343 C344 1.291 . S
C343 H356 0.931 . S
C344 C343 1.291 . S
C344 C345 1.373 . S
C344 H357 0.929 . S
C345 C344 1.373 . S
C345 C346 1.396 . S
C345 C352 1.403 . S
C346 C336 1.476 . S
C346 N341 1.318 . S
C346 C345 1.396 . S
H347 C342 0.929 . S
O348 Mn324 2.385 . S
O348 C326 1.234 . S
O349 Mn324 2.209 . S
O349 Mn325 2.215 . S
O349 C326 1.283 . S
O350 Mn324 2.094 . S
O350 C328 1.240 . S
O351 Mn325 2.117 . S
O351 C328 1.264 . S
C352 C345 1.403 . S
C352 C353 1.399 . S
C352 H358 0.929 . S
C353 C333 1.449 . S
C353 C352 1.399 . S
C353 H359 0.930 . S
H354 C334 0.931 . S
H355 C335 0.930 . S
H356 C343 0.931 . S
H357 C344 0.929 . S
H358 C352 0.929 . S
H359 C353 0.930 . S
Mn360 O365 2.095 . S
Mn360 O375 2.162 . S
Mn360 O376 2.297 . S
Mn360 O384 2.385 . S
Mn360 O385 2.209 . S
Mn360 O386 2.094 . S
Mn361 O366 2.121 . S
Mn361 N368 2.257 . S
Mn361 N377 2.282 . S
Mn361 O385 2.215 . S
Mn361 O387 2.117 . S
C362 O384 1.234 . S
C362 O385 1.283 . S
C363 O375 1.281 . S
C363 O376 1.236 . S
C364 O386 1.240 . S
C364 O387 1.264 . S
O365 Mn360 2.095 . S
O365 C374 1.250 . S
O366 Mn361 2.121 . S
O366 C374 1.258 . S
C367 N368 1.326 . S
C367 C371 1.460 . S
C367 H373 0.929 . S
N368 Mn361 2.257 . S
N368 C367 1.326 . S
N368 C372 1.362 . S
C369 C370 1.258 . S
C369 C372 1.431 . S
C369 C389 1.449 . S
C370 C369 1.258 . S
C370 C371 1.477 . S
C370 H390 0.931 . S
C371 C367 1.460 . S
C371 C370 1.477 . S
C371 H391 0.930 . S
C372 N368 1.362 . S
C372 C369 1.431 . S
C372 C382 1.476 . S
H373 C367 0.929 . S
C374 O365 1.250 . S
C374 O366 1.258 . S
O375 Mn360 2.162 . S
O375 C363 1.281 . S
O376 Mn360 2.297 . S
O376 C363 1.236 . S
N377 Mn361 2.282 . S
N377 C378 1.328 . S
N377 C382 1.318 . S
C378 N377 1.328 . S
C378 C379 1.457 . S
C378 H383 0.929 . S
C379 C378 1.457 . S
C379 C380 1.291 . S
C379 H392 0.931 . S
C380 C379 1.291 . S
C380 C381 1.373 . S
C380 H393 0.929 . S
C381 C380 1.373 . S
C381 C382 1.396 . S
C381 C388 1.403 . S
C382 C372 1.476 . S
C382 N377 1.318 . S
C382 C381 1.396 . S
H383 C378 0.929 . S
O384 Mn360 2.385 . S
O384 C362 1.234 . S
O385 Mn360 2.209 . S
O385 Mn361 2.215 . S
O385 C362 1.283 . S
O386 Mn360 2.094 . S
O386 C364 1.240 . S
O387 Mn361 2.117 . S
O387 C364 1.264 . S
C388 C381 1.403 . S
C388 C389 1.399 . S
C388 H394 0.929 . S
C389 C369 1.449 . S
C389 C388 1.399 . S
C389 H395 0.930 . S
H390 C370 0.931 . S
H391 C371 0.930 . S
H392 C379 0.931 . S
H393 C380 0.929 . S
H394 C388 0.929 . S
H395 C389 0.930 . S
Mn396 O401 2.095 . S
Mn396 O411 2.162 . S
Mn396 O412 2.297 . S
Mn396 O420 2.385 . S
Mn396 O421 2.209 . S
Mn396 O422 2.094 . S
Mn397 O402 2.121 . S
Mn397 N404 2.257 . S
Mn397 N413 2.282 . S
Mn397 O421 2.215 . S
Mn397 O423 2.117 . S
C398 O420 1.234 . S
C398 O421 1.283 . S
C399 O411 1.281 . S
C399 O412 1.236 . S
C400 O422 1.240 . S
C400 O423 1.264 . S
O401 Mn396 2.095 . S
O401 C410 1.250 . S
O402 Mn397 2.121 . S
O402 C410 1.258 . S
C403 N404 1.326 . S
C403 C407 1.460 . S
C403 H409 0.929 . S
N404 Mn397 2.257 . S
N404 C403 1.326 . S
N404 C408 1.362 . S
C405 C406 1.258 . S
C405 C408 1.431 . S
C405 C425 1.449 1_556 S
C406 C405 1.258 . S
C406 C407 1.477 . S
C406 H426 0.931 . S
C407 C403 1.460 . S
C407 C406 1.477 . S
C407 H427 0.930 . S
C408 N404 1.362 . S
C408 C405 1.431 . S
C408 C418 1.476 . S
H409 C403 0.929 . S
C410 O401 1.250 . S
C410 O402 1.258 . S
O411 Mn396 2.162 . S
O411 C399 1.281 . S
O412 Mn396 2.297 . S
O412 C399 1.236 . S
N413 Mn397 2.282 . S
N413 C414 1.328 . S
N413 C418 1.318 . S
C414 N413 1.328 . S
C414 C415 1.457 . S
C414 H419 0.929 . S
C415 C414 1.457 . S
C415 C416 1.291 1_556 S
C415 H428 0.931 . S
C416 C415 1.291 1_554 S
C416 C417 1.373 . S
C416 H429 0.929 . S
C417 C416 1.373 . S
C417 C418 1.396 1_554 S
C417 C424 1.403 . S
C418 C408 1.476 . S
C418 N413 1.318 . S
C418 C417 1.396 1_556 S
H419 C414 0.929 . S
O420 Mn396 2.385 . S
O420 C398 1.234 . S
O421 Mn396 2.209 . S
O421 Mn397 2.215 . S
O421 C398 1.283 . S
O422 Mn396 2.094 . S
O422 C400 1.240 . S
O423 Mn397 2.117 . S
O423 C400 1.264 . S
C424 C417 1.403 . S
C424 C425 1.399 . S
C424 H430 0.929 . S
C425 C405 1.449 1_554 S
C425 C424 1.399 . S
C425 H431 0.930 . S
H426 C406 0.931 . S
H427 C407 0.930 . S
H428 C415 0.931 . S
H429 C416 0.929 . S
H430 C424 0.929 . S
H431 C425 0.930 . S
H432 C440 0.950 . S
H433 C445 0.950 . S
H434 C442 0.950 . S
H435 C444 0.950 . S
H436 C446 0.950 . S
H437 C448 0.950 . S
H438 C450 0.950 . S
H439 C451 0.950 . S
C440 H432 0.950 . S
C440 C441 1.386 . S
C440 C442 1.391 . S
C441 C440 1.386 . S
C441 C445 1.393 . S
C442 H434 0.950 . S
C442 C440 1.391 . S
C442 C443 1.400 . S
C443 C442 1.400 . S
C443 C444 1.398 . S
C443 C449 1.491 . S
C444 H435 0.950 . S
C444 C443 1.398 . S
C444 C445 1.391 . S
C445 H433 0.950 . S
C445 C441 1.393 . S
C445 C444 1.391 . S
C446 H436 0.950 . S
C446 C447 1.386 . S
C446 C448 1.391 . S
C447 C446 1.386 . S
C447 C451 1.393 . S
C448 H437 0.950 . S
C448 C446 1.391 . S
C448 C449 1.400 . S
C449 C443 1.491 . S
C449 C448 1.400 . S
C449 C450 1.398 . S
C450 H438 0.950 . S
C450 C449 1.398 . S
C450 C451 1.391 . S
C451 H439 0.950 . S
C451 C447 1.393 . S
C451 C450 1.391 . S
H452 C460 0.950 . S
H453 C465 0.950 . S
H454 C462 0.950 . S
H455 C464 0.950 . S
H456 C466 0.950 . S
H457 C468 0.950 . S
H458 C470 0.950 . S
H459 C471 0.950 . S
C460 H452 0.950 . S
C460 C461 1.386 . S
C460 C462 1.391 . S
C461 C460 1.386 . S
C461 C465 1.393 . S
C462 H454 0.950 . S
C462 C460 1.391 . S
C462 C463 1.400 . S
C463 C462 1.400 . S
C463 C464 1.398 . S
C463 C469 1.491 . S
C464 H455 0.950 . S
C464 C463 1.398 . S
C464 C465 1.391 . S
C465 H453 0.950 . S
C465 C461 1.393 . S
C465 C464 1.391 . S
C466 H456 0.950 . S
C466 C467 1.386 . S
C466 C468 1.391 . S
C467 C466 1.386 . S
C467 C471 1.393 . S
C468 H457 0.950 . S
C468 C466 1.391 . S
C468 C469 1.400 . S
C469 C463 1.491 . S
C469 C468 1.400 . S
C469 C470 1.398 . S
C470 H458 0.950 . S
C470 C469 1.398 . S
C470 C471 1.391 . S
C471 H459 0.950 . S
C471 C467 1.393 . S
C471 C470 1.391 . S
H472 C480 0.950 . S
H473 C485 0.950 . S
H474 C482 0.950 . S
H475 C484 0.950 . S
H476 C486 0.950 . S
H477 C488 0.950 . S
H478 C490 0.950 . S
H479 C491 0.950 . S
C480 H472 0.950 . S
C480 C481 1.386 . S
C480 C482 1.391 . S
C481 C480 1.386 . S
C481 C485 1.393 . S
C482 H474 0.950 . S
C482 C480 1.391 . S
C482 C483 1.400 . S
C483 C482 1.400 . S
C483 C484 1.398 . S
C483 C489 1.491 . S
C484 H475 0.950 . S
C484 C483 1.398 . S
C484 C485 1.391 . S
C485 H473 0.950 . S
C485 C481 1.393 . S
C485 C484 1.391 . S
C486 H476 0.950 . S
C486 C487 1.386 . S
C486 C488 1.391 . S
C487 C486 1.386 . S
C487 C491 1.393 . S
C488 H477 0.950 . S
C488 C486 1.391 . S
C488 C489 1.400 . S
C489 C483 1.491 . S
C489 C488 1.400 . S
C489 C490 1.398 . S
C490 H478 0.950 . S
C490 C489 1.398 . S
C490 C491 1.391 . S
C491 H479 0.950 . S
C491 C487 1.393 . S
C491 C490 1.391 . S
H492 C500 0.950 . S
H493 C505 0.950 . S
H494 C502 0.950 . S
H495 C504 0.950 . S
H496 C506 0.950 . S
H497 C508 0.950 . S
H498 C510 0.950 . S
H499 C511 0.950 . S
C500 H492 0.950 . S
C500 C501 1.386 . S
C500 C502 1.391 . S
C501 C500 1.386 . S
C501 C505 1.393 . S
C502 H494 0.950 . S
C502 C500 1.391 . S
C502 C503 1.400 . S
C503 C502 1.400 . S
C503 C504 1.398 . S
C503 C509 1.491 . S
C504 H495 0.950 . S
C504 C503 1.398 . S
C504 C505 1.391 . S
C505 H493 0.950 . S
C505 C501 1.393 . S
C505 C504 1.391 . S
C506 H496 0.950 . S
C506 C507 1.386 . S
C506 C508 1.391 . S
C507 C506 1.386 . S
C507 C511 1.393 . S
C508 H497 0.950 . S
C508 C506 1.391 . S
C508 C509 1.400 . S
C509 C503 1.491 . S
C509 C508 1.400 . S
C509 C510 1.398 . S
C510 H498 0.950 . S
C510 C509 1.398 . S
C510 C511 1.391 . S
C511 H499 0.950 . S
C511 C507 1.393 . S
C511 C510 1.391 . S
H512 C520 0.950 . S
H513 C525 0.950 . S
H514 C522 0.950 . S
H515 C524 0.950 . S
H516 C526 0.950 . S
H517 C528 0.950 . S
H518 C530 0.950 . S
H519 C531 0.950 . S
C520 H512 0.950 . S
C520 C521 1.386 . S
C520 C522 1.391 . S
C521 C520 1.386 . S
C521 C525 1.393 . S
C522 H514 0.950 . S
C522 C520 1.391 . S
C522 C523 1.400 . S
C523 C522 1.400 . S
C523 C524 1.398 . S
C523 C529 1.491 . S
C524 H515 0.950 . S
C524 C523 1.398 . S
C524 C525 1.391 . S
C525 H513 0.950 . S
C525 C521 1.393 . S
C525 C524 1.391 . S
C526 H516 0.950 . S
C526 C527 1.386 . S
C526 C528 1.391 . S
C527 C526 1.386 . S
C527 C531 1.393 . S
C528 H517 0.950 . S
C528 C526 1.391 . S
C528 C529 1.400 1_554 S
C529 C523 1.491 . S
C529 C528 1.400 1_556 S
C529 C530 1.398 . S
C530 H518 0.950 . S
C530 C529 1.398 . S
C530 C531 1.391 1_556 S
C531 H519 0.950 . S
C531 C527 1.393 . S
C531 C530 1.391 1_554 S
H532 C540 0.950 . S
H533 C545 0.950 . S
H534 C542 0.950 . S
H535 C544 0.950 . S
H536 C546 0.950 . S
H537 C548 0.950 . S
H538 C550 0.950 . S
H539 C551 0.950 . S
C540 H532 0.950 . S
C540 C541 1.386 . S
C540 C542 1.391 . S
C541 C540 1.386 . S
C541 C545 1.393 . S
C542 H534 0.950 . S
C542 C540 1.391 . S
C542 C543 1.400 . S
C543 C542 1.400 . S
C543 C544 1.398 . S
C543 C549 1.491 . S
C544 H535 0.950 . S
C544 C543 1.398 . S
C544 C545 1.391 . S
C545 H533 0.950 . S
C545 C541 1.393 . S
C545 C544 1.391 . S
C546 H536 0.950 . S
C546 C547 1.386 1_556 S
C546 C548 1.391 1_556 S
C547 C546 1.386 1_554 S
C547 C551 1.393 . S
C548 H537 0.950 . S
C548 C546 1.391 1_554 S
C548 C549 1.400 . S
C549 C543 1.491 . S
C549 C548 1.400 . S
C549 C550 1.398 . S
C550 H538 0.950 . S
C550 C549 1.398 . S
C550 C551 1.391 . S
C551 H539 0.950 . S
C551 C547 1.393 . S
C551 C550 1.391 . S
H552 C560 0.950 . S
H553 C565 0.950 . S
H554 C562 0.950 . S
H555 C564 0.950 . S
H556 C566 0.950 . S
H557 C568 0.950 . S
H558 C570 0.950 . S
H559 C571 0.950 . S
C560 H552 0.950 . S
C560 C561 1.386 . S
C560 C562 1.391 . S
C561 C560 1.386 . S
C561 C565 1.393 . S
C562 H554 0.950 . S
C562 C560 1.391 . S
C562 C563 1.400 . S
C563 C562 1.400 . S
C563 C564 1.398 . S
C563 C569 1.491 . S
C564 H555 0.950 . S
C564 C563 1.398 . S
C564 C565 1.391 . S
C565 H553 0.950 . S
C565 C561 1.393 . S
C565 C564 1.391 . S
C566 H556 0.950 . S
C566 C567 1.386 . S
C566 C568 1.391 . S
C567 C566 1.386 . S
C567 C571 1.393 . S
C568 H557 0.950 . S
C568 C566 1.391 . S
C568 C569 1.400 . S
C569 C563 1.491 . S
C569 C568 1.400 . S
C569 C570 1.398 . S
C570 H558 0.950 . S
C570 C569 1.398 . S
C570 C571 1.391 . S
C571 H559 0.950 . S
C571 C567 1.393 . S
C571 C570 1.391 . S
H572 C580 0.950 . S
H573 C585 0.950 . S
H574 C582 0.950 . S
H575 C584 0.950 . S
H576 C586 0.950 . S
H577 C588 0.950 . S
H578 C590 0.950 . S
H579 C591 0.950 . S
C580 H572 0.950 . S
C580 C581 1.386 . S
C580 C582 1.391 . S
C581 C580 1.386 . S
C581 C585 1.393 . S
C582 H574 0.950 . S
C582 C580 1.391 . S
C582 C583 1.400 . S
C583 C582 1.400 . S
C583 C584 1.398 . S
C583 C589 1.491 . S
C584 H575 0.950 . S
C584 C583 1.398 . S
C584 C585 1.391 . S
C585 H573 0.950 . S
C585 C581 1.393 . S
C585 C584 1.391 . S
C586 H576 0.950 . S
C586 C587 1.386 . S
C586 C588 1.391 . S
C587 C586 1.386 . S
C587 C591 1.393 . S
C588 H577 0.950 . S
C588 C586 1.391 . S
C588 C589 1.400 . S
C589 C583 1.491 . S
C589 C588 1.400 . S
C589 C590 1.398 . S
C590 H578 0.950 . S
C590 C589 1.398 . S
C590 C591 1.391 . S
C591 H579 0.950 . S
C591 C587 1.393 . S
C591 C590 1.391 . S
H592 C600 0.950 . S
H593 C605 0.950 . S
H594 C602 0.950 . S
H595 C604 0.950 . S
H596 C606 0.950 . S
H597 C608 0.950 . S
H598 C610 0.950 . S
H599 C611 0.950 . S
C600 H592 0.950 . S
C600 C601 1.386 . S
C600 C602 1.391 . S
C601 C600 1.386 . S
C601 C605 1.393 . S
C602 H594 0.950 . S
C602 C600 1.391 . S
C602 C603 1.400 . S
C603 C602 1.400 . S
C603 C604 1.398 . S
C603 C609 1.491 . S
C604 H595 0.950 . S
C604 C603 1.398 . S
C604 C605 1.391 . S
C605 H593 0.950 . S
C605 C601 1.393 . S
C605 C604 1.391 . S
C606 H596 0.950 . S
C606 C607 1.386 . S
C606 C608 1.391 . S
C607 C606 1.386 . S
C607 C611 1.393 . S
C608 H597 0.950 . S
C608 C606 1.391 . S
C608 C609 1.400 . S
C609 C603 1.491 . S
C609 C608 1.400 . S
C609 C610 1.398 . S
C610 H598 0.950 . S
C610 C609 1.398 . S
C610 C611 1.391 . S
C611 H599 0.950 . S
C611 C607 1.393 . S
C611 C610 1.391 . S
H612 C620 0.950 . S
H613 C625 0.950 . S
H614 C622 0.950 . S
H615 C624 0.950 . S
H616 C626 0.950 . S
H617 C628 0.950 . S
H618 C630 0.950 . S
H619 C631 0.950 . S
C620 H612 0.950 . S
C620 C621 1.386 . S
C620 C622 1.391 . S
C621 C620 1.386 . S
C621 C625 1.393 . S
C622 H614 0.950 . S
C622 C620 1.391 . S
C622 C623 1.400 . S
C623 C622 1.400 . S
C623 C624 1.398 . S
C623 C629 1.491 . S
C624 H615 0.950 . S
C624 C623 1.398 . S
C624 C625 1.391 . S
C625 H613 0.950 . S
C625 C621 1.393 . S
C625 C624 1.391 . S
C626 H616 0.950 . S
C626 C627 1.386 . S
C626 C628 1.391 . S
C627 C626 1.386 . S
C627 C631 1.393 . S
C628 H617 0.950 . S
C628 C626 1.391 . S
C628 C629 1.400 . S
C629 C623 1.491 . S
C629 C628 1.400 . S
C629 C630 1.398 . S
C630 H618 0.950 . S
C630 C629 1.398 . S
C630 C631 1.391 . S
C631 H619 0.950 . S
C631 C627 1.393 . S
C631 C630 1.391 . S
H632 C640 0.950 . S
H633 C645 0.950 . S
H634 C642 0.950 . S
H635 C644 0.950 . S
H636 C646 0.950 . S
H637 C648 0.950 . S
H638 C650 0.950 . S
H639 C651 0.950 . S
C640 H632 0.950 . S
C640 C641 1.386 . S
C640 C642 1.391 . S
C641 C640 1.386 . S
C641 C645 1.393 . S
C642 H634 0.950 . S
C642 C640 1.391 . S
C642 C643 1.400 . S
C643 C642 1.400 . S
C643 C644 1.398 . S
C643 C649 1.491 . S
C644 H635 0.950 . S
C644 C643 1.398 . S
C644 C645 1.391 . S
C645 H633 0.950 . S
C645 C641 1.393 . S
C645 C644 1.391 . S
C646 H636 0.950 . S
C646 C647 1.386 . S
C646 C648 1.391 . S
C647 C646 1.386 . S
C647 C651 1.393 . S
C648 H637 0.950 . S
C648 C646 1.391 . S
C648 C649 1.400 . S
C649 C643 1.491 . S
C649 C648 1.400 . S
C649 C650 1.398 . S
C650 H638 0.950 . S
C650 C649 1.398 . S
C650 C651 1.391 . S
C651 H639 0.950 . S
C651 C647 1.393 . S
C651 C650 1.391 . S
H652 C660 0.950 . S
H653 C665 0.950 . S
H654 C662 0.950 1_554 S
H655 C664 0.950 . S
H656 C666 0.950 . S
H657 C668 0.950 . S
H658 C670 0.950 . S
H659 C671 0.950 . S
C660 H652 0.950 . S
C660 C661 1.386 . S
C660 C662 1.391 . S
C661 C660 1.386 . S
C661 C665 1.393 . S
C662 H654 0.950 1_556 S
C662 C660 1.391 . S
C662 C663 1.400 . S
C663 C662 1.400 . S
C663 C664 1.398 . S
C663 C669 1.491 . S
C664 H655 0.950 . S
C664 C663 1.398 . S
C664 C665 1.391 . S
C665 H653 0.950 . S
C665 C661 1.393 . S
C665 C664 1.391 . S
C666 H656 0.950 . S
C666 C667 1.397 . S
C666 C668 1.391 . S
C667 C666 1.397 . S
C667 C671 1.386 1_556 S
C668 H657 0.950 . S
C668 C666 1.391 . S
C668 C669 1.400 . S
C669 C663 1.491 . S
C669 C668 1.400 . S
C669 C670 1.398 1_556 S
C670 H658 0.950 . S
C670 C669 1.398 1_554 S
C670 C671 1.391 . S
C671 H659 0.950 . S
C671 C667 1.386 1_554 S
C671 C670 1.391 . S
H672 C680 0.950 . S
H673 C685 0.950 . S
H674 C682 0.950 . S
H675 C684 0.950 . S
H676 C686 0.950 . S
H677 C688 0.950 . S
H678 C690 0.950 . S
H679 C691 0.950 . S
C680 H672 0.950 . S
C680 C681 1.386 . S
C680 C682 1.391 . S
C681 C680 1.386 . S
C681 C685 1.393 . S
C682 H674 0.950 . S
C682 C680 1.391 . S
C682 C683 1.400 . S
C683 C682 1.400 . S
C683 C684 1.398 . S
C683 C689 1.491 . S
C684 H675 0.950 . S
C684 C683 1.398 . S
C684 C685 1.391 . S
C685 H673 0.950 . S
C685 C681 1.393 . S
C685 C684 1.391 . S
C686 H676 0.950 . S
C686 C687 1.386 . S
C686 C688 1.391 . S
C687 C686 1.386 . S
C687 C691 1.393 . S
C688 H677 0.950 . S
C688 C686 1.391 . S
C688 C689 1.400 . S
C689 C683 1.491 . S
C689 C688 1.400 . S
C689 C690 1.398 . S
C690 H678 0.950 . S
C690 C689 1.398 . S
C690 C691 1.391 . S
C691 H679 0.950 . S
C691 C687 1.393 . S
C691 C690 1.391 . S
H692 C700 0.950 . S
H693 C705 0.950 . S
H694 C702 0.948 1_556 S
H695 C704 0.950 . S
H696 C706 0.950 . S
H697 C708 0.950 . S
H698 C710 0.950 . S
H699 C711 0.950 . S
C700 H692 0.950 . S
C700 C701 1.386 . S
C700 C702 1.391 . S
C701 C700 1.386 . S
C701 C705 1.393 . S
C702 H694 0.948 1_554 S
C702 C700 1.391 . S
C702 C703 1.400 1_554 S
C703 C702 1.400 1_556 S
C703 C704 1.398 . S
C703 C709 1.491 . S
C704 H695 0.950 . S
C704 C703 1.398 . S
C704 C705 1.391 1_556 S
C705 H693 0.950 . S
C705 C701 1.393 . S
C705 C704 1.391 1_554 S
C706 H696 0.950 . S
C706 C707 1.386 . S
C706 C708 1.391 . S
C707 C706 1.386 . S
C707 C711 1.393 . S
C708 H697 0.950 . S
C708 C706 1.391 . S
C708 C709 1.400 . S
C709 C703 1.491 . S
C709 C708 1.400 . S
C709 C710 1.398 . S
C710 H698 0.950 . S
C710 C709 1.398 . S
C710 C711 1.391 . S
C711 H699 0.950 . S
C711 C707 1.393 . S
C711 C710 1.391 . S
H712 C720 0.950 . S
H713 C725 0.950 . S
H714 C722 0.950 . S
H715 C724 0.950 . S
H716 C726 0.950 . S
H717 C728 0.950 . S
H718 C730 0.950 . S
H719 C731 0.950 . S
C720 H712 0.950 . S
C720 C721 1.386 . S
C720 C722 1.391 . S
C721 C720 1.386 . S
C721 C725 1.393 . S
C722 H714 0.950 . S
C722 C720 1.391 . S
C722 C723 1.400 . S
C723 C722 1.400 . S
C723 C724 1.398 . S
C723 C729 1.491 . S
C724 H715 0.950 . S
C724 C723 1.398 . S
C724 C725 1.391 . S
C725 H713 0.950 . S
C725 C721 1.393 . S
C725 C724 1.391 . S
C726 H716 0.950 . S
C726 C727 1.386 . S
C726 C728 1.391 . S
C727 C726 1.386 . S
C727 C731 1.393 1_554 S
C728 H717 0.950 . S
C728 C726 1.391 . S
C728 C729 1.400 . S
C729 C723 1.491 . S
C729 C728 1.400 . S
C729 C730 1.398 . S
C730 H718 0.950 . S
C730 C729 1.398 . S
C730 C731 1.391 1_554 S
C731 H719 0.950 . S
C731 C727 1.393 1_556 S
C731 C730 1.391 1_556 S
H732 C740 0.950 . S
H733 C745 0.950 . S
H734 C742 0.950 . S
H735 C744 0.950 . S
H736 C746 0.950 . S
H737 C748 0.950 . S
H738 C750 0.950 . S
H739 C751 0.950 . S
C740 H732 0.950 . S
C740 C741 1.386 . S
C740 C742 1.391 . S
C741 C740 1.386 . S
C741 C745 1.393 . S
C742 H734 0.950 . S
C742 C740 1.391 . S
C742 C743 1.400 . S
C743 C742 1.400 . S
C743 C744 1.398 . S
C743 C749 1.491 . S
C744 H735 0.950 . S
C744 C743 1.398 . S
C744 C745 1.391 . S
C745 H733 0.950 . S
C745 C741 1.393 . S
C745 C744 1.391 . S
C746 H736 0.950 . S
C746 C747 1.386 . S
C746 C748 1.391 . S
C747 C746 1.386 . S
C747 C751 1.393 . S
C748 H737 0.950 . S
C748 C746 1.391 . S
C748 C749 1.400 . S
C749 C743 1.491 . S
C749 C748 1.400 . S
C749 C750 1.398 . S
C750 H738 0.950 . S
C750 C749 1.398 . S
C750 C751 1.391 . S
C751 H739 0.950 . S
C751 C747 1.393 . S
C751 C750 1.391 . S
H752 C760 0.950 . S
H753 C765 0.950 . S
H754 C762 0.950 . S
H755 C764 0.950 . S
H756 C766 0.950 . S
H757 C768 0.950 . S
H758 C770 0.950 . S
H759 C771 0.950 . S
C760 H752 0.950 . S
C760 C761 1.386 . S
C760 C762 1.391 . S
C761 C760 1.386 . S
C761 C765 1.393 . S
C762 H754 0.950 . S
C762 C760 1.391 . S
C762 C763 1.400 . S
C763 C762 1.400 . S
C763 C764 1.398 . S
C763 C769 1.491 . S
C764 H755 0.950 . S
C764 C763 1.398 . S
C764 C765 1.391 . S
C765 H753 0.950 . S
C765 C761 1.393 . S
C765 C764 1.391 . S
C766 H756 0.950 . S
C766 C767 1.386 . S
C766 C768 1.391 . S
C767 C766 1.386 . S
C767 C771 1.393 . S
C768 H757 0.950 . S
C768 C766 1.391 . S
C768 C769 1.400 . S
C769 C763 1.491 . S
C769 C768 1.400 . S
C769 C770 1.398 . S
C770 H758 0.950 . S
C770 C769 1.398 . S
C770 C771 1.391 . S
C771 H759 0.950 . S
C771 C767 1.393 . S
C771 C770 1.391 . S
H772 C780 0.950 . S
H773 C785 0.950 . S
H774 C782 0.950 . S
H775 C784 0.950 . S
H776 C786 0.950 . S
H777 C788 0.950 . S
H778 C790 0.950 . S
H779 C791 0.950 . S
C780 H772 0.950 . S
C780 C781 1.386 . S
C780 C782 1.391 . S
C781 C780 1.386 . S
C781 C785 1.393 . S
C782 H774 0.950 . S
C782 C780 1.391 . S
C782 C783 1.400 . S
C783 C782 1.400 . S
C783 C784 1.398 . S
C783 C789 1.491 . S
C784 H775 0.950 . S
C784 C783 1.398 . S
C784 C785 1.391 . S
C785 H773 0.950 . S
C785 C781 1.393 . S
C785 C784 1.391 . S
C786 H776 0.950 . S
C786 C787 1.386 . S
C786 C788 1.391 . S
C787 C786 1.386 . S
C787 C791 1.393 . S
C788 H777 0.950 . S
C788 C786 1.391 . S
C788 C789 1.400 . S
C789 C783 1.491 . S
C789 C788 1.400 . S
C789 C790 1.398 . S
C790 H778 0.950 . S
C790 C789 1.398 . S
C790 C791 1.391 . S
C791 H779 0.950 . S
C791 C787 1.393 . S
C791 C790 1.391 . S
H792 C800 0.950 . S
H793 C805 0.950 . S
H794 C802 0.950 . S
H795 C804 0.950 . S
H796 C806 0.950 . S
H797 C808 0.950 . S
H798 C810 0.950 . S
H799 C811 0.950 . S
C800 H792 0.950 . S
C800 C801 1.386 . S
C800 C802 1.391 . S
C801 C800 1.386 . S
C801 C805 1.393 . S
C802 H794 0.950 . S
C802 C800 1.391 . S
C802 C803 1.400 . S
C803 C802 1.400 . S
C803 C804 1.398 . S
C803 C809 1.491 1_455 S
C804 H795 0.950 . S
C804 C803 1.398 . S
C804 C805 1.391 . S
C805 H793 0.950 . S
C805 C801 1.393 . S
C805 C804 1.391 . S
C806 H796 0.950 . S
C806 C807 1.386 . S
C806 C808 1.391 . S
C807 C806 1.386 . S
C807 C811 1.393 . S
C808 H797 0.950 . S
C808 C806 1.391 . S
C808 C809 1.400 . S
C809 C803 1.491 1_655 S
C809 C808 1.400 . S
C809 C810 1.398 . S
C810 H798 0.950 . S
C810 C809 1.398 . S
C810 C811 1.391 . S
C811 H799 0.950 . S
C811 C807 1.393 . S
C811 C810 1.391 . S
H812 C820 0.950 . S
H813 C825 0.950 . S
H814 C822 0.950 1_545 S
H815 C824 0.950 . S
H816 C826 0.950 . S
H817 C828 0.950 1_565 S
H818 C830 0.950 1_556 S
H819 C831 0.950 . S
C820 H812 0.950 . S
C820 C821 1.386 . S
C820 C822 1.391 . S
C821 C820 1.386 . S
C821 C825 1.393 1_556 S
C822 H814 0.950 1_565 S
C822 C820 1.391 . S
C822 C823 1.400 1_556 S
C823 C822 1.400 1_554 S
C823 C824 1.398 . S
C823 C829 1.491 1_565 S
C824 H815 0.950 . S
C824 C823 1.398 . S
C824 C825 1.391 . S
C825 H813 0.950 . S
C825 C821 1.393 1_554 S
C825 C824 1.391 . S
C826 H816 0.950 . S
C826 C827 1.386 . S
C826 C828 1.391 . S
C827 C826 1.386 . S
C827 C831 1.393 . S
C828 H817 0.950 1_545 S
C828 C826 1.391 . S
C828 C829 1.400 . S
C829 C823 1.491 1_545 S
C829 C828 1.400 . S
C829 C830 1.398 . S
C830 H818 0.950 1_554 S
C830 C829 1.398 . S
C830 C831 1.391 . S
C831 H819 0.950 . S
C831 C827 1.393 . S
C831 C830 1.391 . S
H832 C840 0.950 . S
H833 C845 0.950 . S
H834 C842 0.950 . S
H835 C844 0.950 . S
H836 C846 0.950 . S
H837 C848 0.950 . S
H838 C850 0.950 . S
H839 C851 0.950 . S
C840 H832 0.950 . S
C840 C841 1.386 . S
C840 C842 1.391 . S
C841 C840 1.386 . S
C841 C845 1.393 . S
C842 H834 0.950 . S
C842 C840 1.391 . S
C842 C843 1.400 . S
C843 C842 1.400 . S
C843 C844 1.398 . S
C843 C849 1.491 . S
C844 H835 0.950 . S
C844 C843 1.398 . S
C844 C845 1.391 . S
C845 H833 0.950 . S
C845 C841 1.393 . S
C845 C844 1.391 . S
C846 H836 0.950 . S
C846 C847 1.386 . S
C846 C848 1.391 . S
C847 C846 1.386 . S
C847 C851 1.393 . S
C848 H837 0.950 . S
C848 C846 1.391 . S
C848 C849 1.400 . S
C849 C843 1.491 . S
C849 C848 1.400 . S
C849 C850 1.398 . S
C850 H838 0.950 . S
C850 C849 1.398 . S
C850 C851 1.391 . S
C851 H839 0.950 . S
C851 C847 1.393 . S
C851 C850 1.391 . S
H852 C860 0.950 . S
H853 C865 0.950 . S
H854 C862 0.950 1_655 S
H855 C864 0.950 . S
H856 C866 0.950 . S
H857 C868 0.950 1_455 S
H858 C870 0.950 . S
H859 C871 0.950 . S
C860 H852 0.950 . S
C860 C861 1.386 . S
C860 C862 1.391 . S
C861 C860 1.386 . S
C861 C865 1.393 . S
C862 H854 0.950 1_455 S
C862 C860 1.391 . S
C862 C863 1.400 . S
C863 C862 1.400 . S
C863 C864 1.398 . S
C863 C869 1.491 1_455 S
C864 H855 0.950 . S
C864 C863 1.398 . S
C864 C865 1.391 . S
C865 H853 0.950 . S
C865 C861 1.393 . S
C865 C864 1.391 . S
C866 H856 0.950 . S
C866 C867 1.386 . S
C866 C868 1.391 . S
C867 C866 1.386 . S
C867 C871 1.393 . S
C868 H857 0.950 1_655 S
C868 C866 1.391 . S
C868 C869 1.400 . S
C869 C863 1.491 1_655 S
C869 C868 1.400 . S
C869 C870 1.398 . S
C870 H858 0.950 . S
C870 C869 1.398 . S
C870 C871 1.391 . S
C871 H859 0.950 . S
C871 C867 1.393 . S
C871 C870 1.391 . S
H872 C880 0.950 . S
H873 C885 0.950 . S
H874 C882 0.950 . S
H875 C884 0.950 . S
H876 C886 0.950 . S
H877 C888 0.950 . S
H878 C890 0.950 . S
H879 C891 0.950 . S
C880 H872 0.950 . S
C880 C881 1.386 . S
C880 C882 1.391 . S
C881 C880 1.386 . S
C881 C885 1.393 . S
C882 H874 0.950 . S
C882 C880 1.391 . S
C882 C883 1.400 . S
C883 C882 1.400 . S
C883 C884 1.398 . S
C883 C889 1.491 1_545 S
C884 H875 0.950 . S
C884 C883 1.398 . S
C884 C885 1.391 . S
C885 H873 0.950 . S
C885 C881 1.393 . S
C885 C884 1.391 . S
C886 H876 0.950 . S
C886 C887 1.386 . S
C886 C888 1.391 . S
C887 C886 1.386 . S
C887 C891 1.393 . S
C888 H877 0.950 . S
C888 C886 1.391 . S
C888 C889 1.400 . S
C889 C883 1.491 1_565 S
C889 C888 1.400 . S
C889 C890 1.398 . S
C890 H878 0.950 . S
C890 C889 1.398 . S
C890 C891 1.391 . S
C891 H879 0.950 . S
C891 C887 1.393 . S
C891 C890 1.391 . S
H892 C900 0.950 . S
H893 C905 0.950 . S
H894 C902 0.950 . S
H895 C904 0.950 . S
H896 C906 0.950 . S
H897 C908 0.950 . S
H898 C910 0.950 . S
H899 C911 0.950 . S
C900 H892 0.950 . S
C900 C901 1.386 . S
C900 C902 1.391 . S
C901 C900 1.386 . S
C901 C905 1.393 . S
C902 H894 0.950 . S
C902 C900 1.391 . S
C902 C903 1.400 . S
C903 C902 1.400 . S
C903 C904 1.398 . S
C903 C909 1.491 . S
C904 H895 0.950 . S
C904 C903 1.398 . S
C904 C905 1.391 . S
C905 H893 0.950 . S
C905 C901 1.393 . S
C905 C904 1.391 . S
C906 H896 0.950 . S
C906 C907 1.386 . S
C906 C908 1.391 . S
C907 C906 1.386 . S
C907 C911 1.393 . S
C908 H897 0.950 . S
C908 C906 1.391 . S
C908 C909 1.400 . S
C909 C903 1.491 . S
C909 C908 1.400 . S
C909 C910 1.398 . S
C910 H898 0.950 . S
C910 C909 1.398 . S
C910 C911 1.391 . S
C911 H899 0.950 . S
C911 C907 1.393 . S
C911 C910 1.391 . S
C441 C3 1.289 . S
C447 C363 1.298 . S
C461 C399 1.297 . S
C467 C39 1.290 . S
C481 C75 1.292 . S
C487 C219 1.292 . S
C501 C111 1.294 . S
C507 C255 1.294 . S
C521 C147 1.291 . S
C527 C291 1.296 . S
C541 C327 1.289 . S
C547 C183 1.298 1_554 S
C561 C14 1.563 . S
C567 C302 1.557 . S
C581 C50 1.547 . S
C587 C338 1.555 . S
C601 C374 1.554 . S
C607 C86 1.546 . S
C621 C122 1.564 . S
C627 C410 1.564 . S
C641 C158 1.551 . S
C647 C230 1.544 . S
C661 C194 1.562 . S
C667 C266 1.549 1_556 S
C681 C362 1.430 . S
C687 C2 1.430 . S
C701 C38 1.432 . S
C707 C398 1.433 . S
C721 C74 1.436 . S
C727 C218 1.426 1_554 S
C741 C110 1.428 . S
C747 C254 1.436 . S
C761 C290 1.436 . S
C767 C146 1.426 . S
C781 C182 1.436 . S
C787 C326 1.426 . S
C801 C4 1.346 . S
C807 C400 1.348 . S
C821 C220 1.350 . S
C827 C40 1.360 . S
C841 C256 1.353 . S
C847 C76 1.346 . S
C861 C292 1.347 . S
C867 C112 1.356 . S
C881 C328 1.353 . S
C887 C148 1.346 . S
C901 C364 1.354 . S
C907 C184 1.364 . S
