# Generated by pormake.
# Topology ulj, (4)-cn, num edge types: 1
# Building blocks:
#     Node 0, Type 0, BuildingBlock: QUQFOY_clean_sbu_1, # of connection points: 4
#     Node 1, Type 0, BuildingBlock: QUQFOY_clean_sbu_1, # of connection points: 4
#     Node 2, Type 0, BuildingBlock: QUQFOY_clean_sbu_1, # of connection points: 4
#     Node 3, Type 0, BuildingBlock: QUQFOY_clean_sbu_1, # of connection points: 4
#     Node 4, Type 0, BuildingBlock: QUQFOY_clean_sbu_1, # of connection points: 4
#     Node 5, Type 0, BuildingBlock: QUQFOY_clean_sbu_1, # of connection points: 4
#     Node 6, Type 0, BuildingBlock: QUQFOY_clean_sbu_1, # of connection points: 4
#     Node 7, Type 0, BuildingBlock: QUQFOY_clean_sbu_1, # of connection points: 4
#     Node 8, Type 0, BuildingBlock: QUQFOY_clean_sbu_1, # of connection points: 4
#     Node 9, Type 0, BuildingBlock: QUQFOY_clean_sbu_1, # of connection points: 4
#     Node 10, Type 0, BuildingBlock: QUQFOY_clean_sbu_1, # of connection points: 4
#     Node 11, Type 0, BuildingBlock: QUQFOY_clean_sbu_1, # of connection points: 4
#     Node 12, Type 0, BuildingBlock: QUQFOY_clean_sbu_1, # of connection points: 4
#     Node 13, Type 0, BuildingBlock: QUQFOY_clean_sbu_1, # of connection points: 4
#     Node 14, Type 0, BuildingBlock: QUQFOY_clean_sbu_1, # of connection points: 4
#     Node 15, Type 0, BuildingBlock: QUQFOY_clean_sbu_1, # of connection points: 4
#     Node 16, Type 0, BuildingBlock: QUQFOY_clean_sbu_1, # of connection points: 4
#     Node 17, Type 0, BuildingBlock: QUQFOY_clean_sbu_1, # of connection points: 4
#     Node 18, Type 0, BuildingBlock: QUQFOY_clean_sbu_1, # of connection points: 4
#     Node 19, Type 0, BuildingBlock: QUQFOY_clean_sbu_1, # of connection points: 4
#     Node 20, Type 0, BuildingBlock: QUQFOY_clean_sbu_1, # of connection points: 4
#     Node 21, Type 0, BuildingBlock: QUQFOY_clean_sbu_1, # of connection points: 4
#     Node 22, Type 0, BuildingBlock: QUQFOY_clean_sbu_1, # of connection points: 4
#     Node 23, Type 0, BuildingBlock: QUQFOY_clean_sbu_1, # of connection points: 4
#     Node 24, Type 0, BuildingBlock: QUQFOY_clean_sbu_1, # of connection points: 4
#     Node 25, Type 0, BuildingBlock: QUQFOY_clean_sbu_1, # of connection points: 4
#     Node 26, Type 0, BuildingBlock: QUQFOY_clean_sbu_1, # of connection points: 4
#     Node 27, Type 0, BuildingBlock: QUQFOY_clean_sbu_1, # of connection points: 4
#     Node 28, Type 0, BuildingBlock: QUQFOY_clean_sbu_1, # of connection points: 4
#     Node 29, Type 0, BuildingBlock: QUQFOY_clean_sbu_1, # of connection points: 4
#     Node 30, Type 0, BuildingBlock: QUQFOY_clean_sbu_1, # of connection points: 4
#     Node 31, Type 0, BuildingBlock: QUQFOY_clean_sbu_1, # of connection points: 4
#     Node 32, Type 0, BuildingBlock: QUQFOY_clean_sbu_1, # of connection points: 4
#     Node 33, Type 0, BuildingBlock: QUQFOY_clean_sbu_1, # of connection points: 4
#     Node 34, Type 0, BuildingBlock: QUQFOY_clean_sbu_1, # of connection points: 4
#     Node 35, Type 0, BuildingBlock: QUQFOY_clean_sbu_1, # of connection points: 4
#     Node 36, Type 0, BuildingBlock: QUQFOY_clean_sbu_1, # of connection points: 4
#     Node 37, Type 0, BuildingBlock: QUQFOY_clean_sbu_1, # of connection points: 4
#     Node 38, Type 0, BuildingBlock: QUQFOY_clean_sbu_1, # of connection points: 4
#     Node 39, Type 0, BuildingBlock: QUQFOY_clean_sbu_1, # of connection points: 4
#     Node 40, Type 0, BuildingBlock: QUQFOY_clean_sbu_1, # of connection points: 4
#     Node 41, Type 0, BuildingBlock: QUQFOY_clean_sbu_1, # of connection points: 4
#     Node 42, Type 0, BuildingBlock: QUQFOY_clean_sbu_1, # of connection points: 4
#     Node 43, Type 0, BuildingBlock: QUQFOY_clean_sbu_1, # of connection points: 4
#     Node 44, Type 0, BuildingBlock: QUQFOY_clean_sbu_1, # of connection points: 4
#     Node 45, Type 0, BuildingBlock: QUQFOY_clean_sbu_1, # of connection points: 4
#     Node 46, Type 0, BuildingBlock: QUQFOY_clean_sbu_1, # of connection points: 4
#     Node 47, Type 0, BuildingBlock: QUQFOY_clean_sbu_1, # of connection points: 4
#     Edge 48, Type (0, 0), BuildingBlock: CIFDUS_clean_linker_0, # of connection points: 2
#     Edge 49, Type (0, 0), BuildingBlock: CIFDUS_clean_linker_0, # of connection points: 2
#     Edge 50, Type (0, 0), BuildingBlock: CIFDUS_clean_linker_0, # of connection points: 2
#     Edge 51, Type (0, 0), BuildingBlock: CIFDUS_clean_linker_0, # of connection points: 2
#     Edge 52, Type (0, 0), BuildingBlock: CIFDUS_clean_linker_0, # of connection points: 2
#     Edge 53, Type (0, 0), BuildingBlock: CIFDUS_clean_linker_0, # of connection points: 2
#     Edge 54, Type (0, 0), BuildingBlock: CIFDUS_clean_linker_0, # of connection points: 2
#     Edge 55, Type (0, 0), BuildingBlock: CIFDUS_clean_linker_0, # of connection points: 2
#     Edge 56, Type (0, 0), BuildingBlock: CIFDUS_clean_linker_0, # of connection points: 2
#     Edge 57, Type (0, 0), BuildingBlock: CIFDUS_clean_linker_0, # of connection points: 2
#     Edge 58, Type (0, 0), BuildingBlock: CIFDUS_clean_linker_0, # of connection points: 2
#     Edge 59, Type (0, 0), BuildingBlock: CIFDUS_clean_linker_0, # of connection points: 2
#     Edge 60, Type (0, 0), BuildingBlock: CIFDUS_clean_linker_0, # of connection points: 2
#     Edge 61, Type (0, 0), BuildingBlock: CIFDUS_clean_linker_0, # of connection points: 2
#     Edge 62, Type (0, 0), BuildingBlock: CIFDUS_clean_linker_0, # of connection points: 2
#     Edge 63, Type (0, 0), BuildingBlock: CIFDUS_clean_linker_0, # of connection points: 2
#     Edge 64, Type (0, 0), BuildingBlock: CIFDUS_clean_linker_0, # of connection points: 2
#     Edge 65, Type (0, 0), BuildingBlock: CIFDUS_clean_linker_0, # of connection points: 2
#     Edge 66, Type (0, 0), BuildingBlock: CIFDUS_clean_linker_0, # of connection points: 2
#     Edge 67, Type (0, 0), BuildingBlock: CIFDUS_clean_linker_0, # of connection points: 2
#     Edge 68, Type (0, 0), BuildingBlock: CIFDUS_clean_linker_0, # of connection points: 2
#     Edge 69, Type (0, 0), BuildingBlock: CIFDUS_clean_linker_0, # of connection points: 2
#     Edge 70, Type (0, 0), BuildingBlock: CIFDUS_clean_linker_0, # of connection points: 2
#     Edge 71, Type (0, 0), BuildingBlock: CIFDUS_clean_linker_0, # of connection points: 2
#     Edge 72, Type (0, 0), BuildingBlock: CIFDUS_clean_linker_0, # of connection points: 2
#     Edge 73, Type (0, 0), BuildingBlock: CIFDUS_clean_linker_0, # of connection points: 2
#     Edge 74, Type (0, 0), BuildingBlock: CIFDUS_clean_linker_0, # of connection points: 2
#     Edge 75, Type (0, 0), BuildingBlock: CIFDUS_clean_linker_0, # of connection points: 2
#     Edge 76, Type (0, 0), BuildingBlock: CIFDUS_clean_linker_0, # of connection points: 2
#     Edge 77, Type (0, 0), BuildingBlock: CIFDUS_clean_linker_0, # of connection points: 2
#     Edge 78, Type (0, 0), BuildingBlock: CIFDUS_clean_linker_0, # of connection points: 2
#     Edge 79, Type (0, 0), BuildingBlock: CIFDUS_clean_linker_0, # of connection points: 2
#     Edge 80, Type (0, 0), BuildingBlock: CIFDUS_clean_linker_0, # of connection points: 2
#     Edge 81, Type (0, 0), BuildingBlock: CIFDUS_clean_linker_0, # of connection points: 2
#     Edge 82, Type (0, 0), BuildingBlock: CIFDUS_clean_linker_0, # of connection points: 2
#     Edge 83, Type (0, 0), BuildingBlock: CIFDUS_clean_linker_0, # of connection points: 2
#     Edge 84, Type (0, 0), BuildingBlock: CIFDUS_clean_linker_0, # of connection points: 2
#     Edge 85, Type (0, 0), BuildingBlock: CIFDUS_clean_linker_0, # of connection points: 2
#     Edge 86, Type (0, 0), BuildingBlock: CIFDUS_clean_linker_0, # of connection points: 2
#     Edge 87, Type (0, 0), BuildingBlock: CIFDUS_clean_linker_0, # of connection points: 2
#     Edge 88, Type (0, 0), BuildingBlock: CIFDUS_clean_linker_0, # of connection points: 2
#     Edge 89, Type (0, 0), BuildingBlock: CIFDUS_clean_linker_0, # of connection points: 2
#     Edge 90, Type (0, 0), BuildingBlock: CIFDUS_clean_linker_0, # of connection points: 2
#     Edge 91, Type (0, 0), BuildingBlock: CIFDUS_clean_linker_0, # of connection points: 2
#     Edge 92, Type (0, 0), BuildingBlock: CIFDUS_clean_linker_0, # of connection points: 2
#     Edge 93, Type (0, 0), BuildingBlock: CIFDUS_clean_linker_0, # of connection points: 2
#     Edge 94, Type (0, 0), BuildingBlock: CIFDUS_clean_linker_0, # of connection points: 2
#     Edge 95, Type (0, 0), BuildingBlock: CIFDUS_clean_linker_0, # of connection points: 2
#     Edge 96, Type (0, 0), BuildingBlock: CIFDUS_clean_linker_0, # of connection points: 2
#     Edge 97, Type (0, 0), BuildingBlock: CIFDUS_clean_linker_0, # of connection points: 2
#     Edge 98, Type (0, 0), BuildingBlock: CIFDUS_clean_linker_0, # of connection points: 2
#     Edge 99, Type (0, 0), BuildingBlock: CIFDUS_clean_linker_0, # of connection points: 2
#     Edge 100, Type (0, 0), BuildingBlock: CIFDUS_clean_linker_0, # of connection points: 2
#     Edge 101, Type (0, 0), BuildingBlock: CIFDUS_clean_linker_0, # of connection points: 2
#     Edge 102, Type (0, 0), BuildingBlock: CIFDUS_clean_linker_0, # of connection points: 2
#     Edge 103, Type (0, 0), BuildingBlock: CIFDUS_clean_linker_0, # of connection points: 2
#     Edge 104, Type (0, 0), BuildingBlock: CIFDUS_clean_linker_0, # of connection points: 2
#     Edge 105, Type (0, 0), BuildingBlock: CIFDUS_clean_linker_0, # of connection points: 2
#     Edge 106, Type (0, 0), BuildingBlock: CIFDUS_clean_linker_0, # of connection points: 2
#     Edge 107, Type (0, 0), BuildingBlock: CIFDUS_clean_linker_0, # of connection points: 2
#     Edge 108, Type (0, 0), BuildingBlock: CIFDUS_clean_linker_0, # of connection points: 2
#     Edge 109, Type (0, 0), BuildingBlock: CIFDUS_clean_linker_0, # of connection points: 2
#     Edge 110, Type (0, 0), BuildingBlock: CIFDUS_clean_linker_0, # of connection points: 2
#     Edge 111, Type (0, 0), BuildingBlock: CIFDUS_clean_linker_0, # of connection points: 2
#     Edge 112, Type (0, 0), BuildingBlock: CIFDUS_clean_linker_0, # of connection points: 2
#     Edge 113, Type (0, 0), BuildingBlock: CIFDUS_clean_linker_0, # of connection points: 2
#     Edge 114, Type (0, 0), BuildingBlock: CIFDUS_clean_linker_0, # of connection points: 2
#     Edge 115, Type (0, 0), BuildingBlock: CIFDUS_clean_linker_0, # of connection points: 2
#     Edge 116, Type (0, 0), BuildingBlock: CIFDUS_clean_linker_0, # of connection points: 2
#     Edge 117, Type (0, 0), BuildingBlock: CIFDUS_clean_linker_0, # of connection points: 2
#     Edge 118, Type (0, 0), BuildingBlock: CIFDUS_clean_linker_0, # of connection points: 2
#     Edge 119, Type (0, 0), BuildingBlock: CIFDUS_clean_linker_0, # of connection points: 2
#     Edge 120, Type (0, 0), BuildingBlock: CIFDUS_clean_linker_0, # of connection points: 2
#     Edge 121, Type (0, 0), BuildingBlock: CIFDUS_clean_linker_0, # of connection points: 2
#     Edge 122, Type (0, 0), BuildingBlock: CIFDUS_clean_linker_0, # of connection points: 2
#     Edge 123, Type (0, 0), BuildingBlock: CIFDUS_clean_linker_0, # of connection points: 2
#     Edge 124, Type (0, 0), BuildingBlock: CIFDUS_clean_linker_0, # of connection points: 2
#     Edge 125, Type (0, 0), BuildingBlock: CIFDUS_clean_linker_0, # of connection points: 2
#     Edge 126, Type (0, 0), BuildingBlock: CIFDUS_clean_linker_0, # of connection points: 2
#     Edge 127, Type (0, 0), BuildingBlock: CIFDUS_clean_linker_0, # of connection points: 2
#     Edge 128, Type (0, 0), BuildingBlock: CIFDUS_clean_linker_0, # of connection points: 2
#     Edge 129, Type (0, 0), BuildingBlock: CIFDUS_clean_linker_0, # of connection points: 2
#     Edge 130, Type (0, 0), BuildingBlock: CIFDUS_clean_linker_0, # of connection points: 2
#     Edge 131, Type (0, 0), BuildingBlock: CIFDUS_clean_linker_0, # of connection points: 2
#     Edge 132, Type (0, 0), BuildingBlock: CIFDUS_clean_linker_0, # of connection points: 2
#     Edge 133, Type (0, 0), BuildingBlock: CIFDUS_clean_linker_0, # of connection points: 2
#     Edge 134, Type (0, 0), BuildingBlock: CIFDUS_clean_linker_0, # of connection points: 2
#     Edge 135, Type (0, 0), BuildingBlock: CIFDUS_clean_linker_0, # of connection points: 2
#     Edge 136, Type (0, 0), BuildingBlock: CIFDUS_clean_linker_0, # of connection points: 2
#     Edge 137, Type (0, 0), BuildingBlock: CIFDUS_clean_linker_0, # of connection points: 2
#     Edge 138, Type (0, 0), BuildingBlock: CIFDUS_clean_linker_0, # of connection points: 2
#     Edge 139, Type (0, 0), BuildingBlock: CIFDUS_clean_linker_0, # of connection points: 2
#     Edge 140, Type (0, 0), BuildingBlock: CIFDUS_clean_linker_0, # of connection points: 2
#     Edge 141, Type (0, 0), BuildingBlock: CIFDUS_clean_linker_0, # of connection points: 2
#     Edge 142, Type (0, 0), BuildingBlock: CIFDUS_clean_linker_0, # of connection points: 2
#     Edge 143, Type (0, 0), BuildingBlock: CIFDUS_clean_linker_0, # of connection points: 2
# Relax obj value: 0.220
# Max RMSD: 0.291
# Mean RMSD: 0.263
data_MOF--net-ulj--node1-QUQFOY_clean_sbu_1--edge1-CIFDUS_clean_linker_0
_symmetry_space_group_name_H-M    P1
_symmetry_Int_Tables_number       1
_symmetry_cell_setting            triclinic
loop_
_symmetry_equiv_pos_as_xyz
'x, y, z'
_cell_length_a     52.695186
_cell_length_b     56.878928
_cell_length_c     59.279956
_cell_angle_alpha  90.09196
_cell_angle_beta   89.903559
_cell_angle_gamma 90.107335
loop_
_atom_site_label
_atom_site_type_symbol
_atom_site_fract_x
_atom_site_fract_y
_atom_site_fract_z
_atom_type_partial_charge
O0 O 0.0928 0.17517 0.3383 0.0
Cd1 Cd 0.12472 0.19423 0.32987 0.0
Cd2 Cd 0.10568 0.18728 0.28756 0.0
O3 O 0.07445 0.1745 0.30484 0.0
O4 O 0.13453 0.21347 0.35697 0.0
O5 O 0.12091 0.22868 0.32488 0.0
C6 C 0.12839 0.2318 0.34537 0.0
C7 C 0.10391 0.21808 0.26153 0.0
C8 C 0.07408 0.16972 0.32581 0.0
C9 C 0.15588 0.16501 0.29819 0.0
O10 O 0.13705 0.16577 0.28483 0.0
O11 O 0.15555 0.1765 0.31665 0.0
O12 O 0.09606 0.19726 0.25627 0.0
O13 O 0.11152 0.22158 0.28192 0.0
O14 O 0.39265 0.63268 0.90812 0.0
Cd15 Cd 0.41942 0.60648 0.91073 0.0
Cd16 Cd 0.41691 0.61788 0.9542 0.0
O17 O 0.39994 0.64772 0.94175 0.0
O18 O 0.4384 0.60563 0.88159 0.0
O19 O 0.45497 0.61794 0.91388 0.0
C20 C 0.45725 0.61485 0.89237 0.0
C21 C 0.44898 0.62017 0.98124 0.0
C22 C 0.38964 0.64911 0.92244 0.0
C23 C 0.39806 0.57015 0.94047 0.0
O24 O 0.3968 0.58679 0.95477 0.0
O25 O 0.40905 0.57333 0.92161 0.0
O26 O 0.4256 0.62433 0.98632 0.0
O27 O 0.45436 0.61566 0.96043 0.0
O28 O 0.90045 0.32035 0.34713 0.0
Cd29 Cd 0.86707 0.30203 0.34227 0.0
Cd30 Cd 0.88621 0.30185 0.29803 0.0
O31 O 0.91801 0.3157 0.31347 0.0
O32 O 0.85754 0.28417 0.37049 0.0
O33 O 0.86951 0.26765 0.3384 0.0
C34 C 0.86246 0.26535 0.35906 0.0
C35 C 0.88545 0.26781 0.27582 0.0
C36 C 0.91904 0.32328 0.33367 0.0
C37 C 0.83692 0.32735 0.30735 0.0
O38 O 0.85542 0.32368 0.29399 0.0
O39 O 0.83694 0.31896 0.32725 0.0
O40 O 0.89391 0.28737 0.26766 0.0
O41 O 0.87908 0.26747 0.29677 0.0
O42 O 0.59657 0.88803 0.88093 0.0
Cd43 Cd 0.5688 0.91231 0.8883 0.0
Cd44 Cd 0.57848 0.89917 0.93057 0.0
O45 O 0.59496 0.87096 0.91423 0.0
O46 O 0.54512 0.91288 0.86219 0.0
O47 O 0.53526 0.89826 0.89577 0.0
C48 C 0.52911 0.90193 0.87497 0.0
C49 C 0.55195 0.89379 0.96184 0.0
C50 C 0.60237 0.87102 0.8938 0.0
C51 C 0.59134 0.94872 0.91707 0.0
O52 O 0.59611 0.93155 0.93009 0.0
O53 O 0.57795 0.94561 0.89952 0.0
O54 O 0.57618 0.89101 0.96324 0.0
O55 O 0.54254 0.89854 0.94229 0.0
O56 O 0.0915 0.82295 0.16609 0.0
Cd57 Cd 0.1244 0.80456 0.17229 0.0
Cd58 Cd 0.10234 0.80256 0.21488 0.0
O59 O 0.07183 0.81751 0.19867 0.0
O60 O 0.13568 0.7882 0.14369 0.0
O61 O 0.12219 0.76985 0.17432 0.0
C62 C 0.13017 0.76873 0.15381 0.0
C63 C 0.10051 0.76796 0.23602 0.0
C64 C 0.07219 0.82575 0.17871 0.0
C65 C 0.15167 0.82936 0.20961 0.0
O66 O 0.13263 0.82429 0.22189 0.0
O67 O 0.15306 0.82198 0.18933 0.0
O68 O 0.0919 0.78746 0.24415 0.0
O69 O 0.10866 0.76801 0.21553 0.0
O70 O 0.10188 0.63814 0.09086 0.0
Cd71 Cd 0.07823 0.60988 0.08518 0.0
Cd72 Cd 0.08089 0.62578 0.0425 0.0
O73 O 0.09363 0.65592 0.05869 0.0
O74 O 0.05683 0.60591 0.11288 0.0
O75 O 0.04229 0.61862 0.08002 0.0
C76 C 0.03832 0.61427 0.10109 0.0
C77 C 0.04868 0.62652 0.0153 0.0
C78 C 0.10311 0.65631 0.07842 0.0
C79 C 0.10399 0.57858 0.05284 0.0
O80 O 0.10415 0.59666 0.04022 0.0
O81 O 0.09219 0.57894 0.07157 0.0
O82 O 0.07132 0.63377 0.01069 0.0
O83 O 0.04403 0.61994 0.03569 0.0
O84 O 0.90702 0.67654 0.15824 0.0
Cd85 Cd 0.87492 0.69593 0.16508 0.0
Cd86 Cd 0.89401 0.69363 0.20728 0.0
O87 O 0.92575 0.6802 0.19131 0.0
O88 O 0.86483 0.71162 0.13623 0.0
O89 O 0.87791 0.73087 0.16658 0.0
C90 C 0.87044 0.73133 0.14586 0.0
C91 C 0.89451 0.72568 0.23193 0.0
C92 C 0.92602 0.67302 0.17098 0.0
C93 C 0.84437 0.66934 0.19889 0.0
O94 O 0.86341 0.6715 0.21186 0.0
O95 O 0.84427 0.6792 0.17963 0.0
O96 O 0.90336 0.70549 0.23794 0.0
O97 O 0.88687 0.72802 0.21138 0.0
O98 O 0.89748 0.87824 0.10946 0.0
Cd99 Cd 0.92356 0.90347 0.1009 0.0
Cd100 Cd 0.91427 0.88781 0.05936 0.0
O101 O 0.90159 0.85879 0.07754 0.0
O102 O 0.94749 0.90577 0.1268 0.0
O103 O 0.95766 0.89103 0.09329 0.0
C104 C 0.96378 0.89526 0.11397 0.0
C105 C 0.94287 0.88474 0.02919 0.0
C106 C 0.89396 0.8597 0.09792 0.0
C107 C 0.89775 0.93687 0.07127 0.0
O108 O 0.89368 0.91879 0.05911 0.0
O109 O 0.91194 0.93542 0.08853 0.0
O110 O 0.91932 0.8789 0.02693 0.0
O111 O 0.95045 0.89115 0.04894 0.0
O112 O 0.34 0.08049 0.23637 0.0
Cd113 Cd 0.31179 0.07995 0.21187 0.0
Cd114 Cd 0.31827 0.12366 0.21599 0.0
O115 O 0.35321 0.11646 0.22905 0.0
O116 O 0.31352 0.0497 0.19484 0.0
O117 O 0.32492 0.08413 0.18044 0.0
C118 C 0.32313 0.06156 0.17832 0.0
C119 C 0.30809 0.15222 0.18966 0.0
C120 C 0.356 0.09704 0.23928 0.0
C121 C 0.2716 0.10483 0.23565 0.0
O122 O 0.28931 0.11962 0.23851 0.0
O123 O 0.27471 0.0879 0.22187 0.0
O124 O 0.31671 0.15768 0.20934 0.0
O125 O 0.30775 0.13028 0.18402 0.0
O126 O 0.36897 0.37492 0.04968 0.0
Cd127 Cd 0.39862 0.38763 0.03036 0.0
Cd128 Cd 0.37268 0.42753 0.03674 0.0
O129 O 0.34435 0.40619 0.04861 0.0
O130 O 0.41031 0.36023 0.01204 0.0
O131 O 0.39177 0.39171 0.99749 0.0
C132 C 0.4009 0.37083 0.99473 0.0
C133 C 0.36404 0.45791 0.01166 0.0
C134 C 0.34792 0.38488 0.05399 0.0
C135 C 0.42469 0.42389 0.05742 0.0
O136 O 0.4032 0.43398 0.05736 0.0
O137 O 0.42824 0.40534 0.04582 0.0
O138 O 0.35705 0.45894 0.03249 0.0
O139 O 0.37499 0.43893 0.00471 0.0
O140 O 0.66623 0.42258 0.2385 0.0
Cd141 Cd 0.69317 0.41909 0.21315 0.0
Cd142 Cd 0.67833 0.37743 0.21742 0.0
O143 O 0.64463 0.39093 0.22907 0.0
O144 O 0.69771 0.44909 0.19629 0.0
O145 O 0.68032 0.41704 0.18152 0.0
C146 C 0.68705 0.43876 0.17933 0.0
C147 C 0.68446 0.34862 0.19033 0.0
C148 C 0.64656 0.40973 0.24052 0.0
C149 C 0.72776 0.38908 0.23715 0.0
O150 O 0.70756 0.37738 0.24035 0.0
O151 O 0.72789 0.40572 0.2229 0.0
O152 O 0.67426 0.34376 0.20959 0.0
O153 O 0.68869 0.37043 0.18558 0.0
O154 O 0.62958 0.1264 0.05581 0.0
Cd155 Cd 0.59714 0.12579 0.03618 0.0
Cd156 Cd 0.61714 0.08536 0.02229 0.0
O157 O 0.64948 0.10251 0.03256 0.0
O158 O 0.58998 0.15821 0.02522 0.0
O159 O 0.60234 0.12883 0.00304 0.0
C160 C 0.59676 0.15084 0.00547 0.0
C161 C 0.62292 0.05742 0.99376 0.0
C162 C 0.64995 0.11693 0.04886 0.0
C163 C 0.57019 0.08541 0.05255 0.0
O164 O 0.59022 0.07505 0.04587 0.0
O165 O 0.56656 0.10692 0.04788 0.0
O166 O 0.63175 0.0545 0.01375 0.0
O167 O 0.61099 0.07672 0.98956 0.0
O168 O 0.34813 0.91069 0.25821 0.0
Cd169 Cd 0.31863 0.9061 0.28113 0.0
Cd170 Cd 0.32912 0.86387 0.27174 0.0
O171 O 0.36413 0.87506 0.26136 0.0
O172 O 0.31596 0.93536 0.29959 0.0
O173 O 0.33008 0.90148 0.31302 0.0
C174 C 0.32584 0.92363 0.31601 0.0
C175 C 0.31832 0.83391 0.29646 0.0
C176 C 0.3657 0.89597 0.25398 0.0
C177 C 0.28232 0.88141 0.25243 0.0
O178 O 0.30149 0.86875 0.24822 0.0
O179 O 0.28312 0.89613 0.2686 0.0
O180 O 0.32858 0.82949 0.27711 0.0
O181 O 0.31672 0.85561 0.30279 0.0
O182 O 0.12778 0.38414 0.93729 0.0
Cd183 Cd 0.09848 0.38617 0.96031 0.0
Cd184 Cd 0.12076 0.42684 0.96799 0.0
O185 O 0.15195 0.41044 0.95413 0.0
O186 O 0.09107 0.35342 0.97028 0.0
O187 O 0.1065 0.38118 0.99284 0.0
C188 C 0.09987 0.35949 0.98977 0.0
C189 C 0.12545 0.45434 0.99713 0.0
C190 C 0.14906 0.39443 0.93941 0.0
C191 C 0.07069 0.42547 0.94287 0.0
O192 O 0.09175 0.43582 0.94623 0.0
O193 O 0.06707 0.40481 0.95034 0.0
O194 O 0.1338 0.4583 0.97707 0.0
O195 O 0.11557 0.43397 0.00114 0.0
O196 O 0.66829 0.58041 0.26333 0.0
Cd197 Cd 0.69198 0.586 0.29066 0.0
Cd198 Cd 0.67936 0.62696 0.28122 0.0
O199 O 0.64603 0.61242 0.26964 0.0
O200 O 0.69169 0.55853 0.31161 0.0
O201 O 0.67358 0.5928 0.3194 0.0
C202 C 0.6781 0.57129 0.32505 0.0
C203 C 0.68566 0.65847 0.30523 0.0
C204 C 0.64882 0.59296 0.25939 0.0
C205 C 0.72962 0.61245 0.26648 0.0
O206 O 0.70986 0.62322 0.26006 0.0
O207 O 0.72814 0.59822 0.28297 0.0
O208 O 0.67589 0.66143 0.28547 0.0
O209 O 0.68927 0.63725 0.31224 0.0
O210 O 0.86616 0.12629 0.95284 0.0
Cd211 Cd 0.89669 0.11462 0.97132 0.0
Cd212 Cd 0.86995 0.07465 0.96882 0.0
O213 O 0.84115 0.09554 0.95752 0.0
O214 O 0.90891 0.14304 0.98774 0.0
O215 O 0.89121 0.11218 0.00449 0.0
C216 C 0.90001 0.13337 0.00581 0.0
C217 C 0.86238 0.04531 0.99535 0.0
C218 C 0.84471 0.11635 0.95054 0.0
C219 C 0.92037 0.07709 0.94464 0.0
O220 O 0.89885 0.06721 0.94669 0.0
O221 O 0.92519 0.09608 0.95517 0.0
O222 O 0.85426 0.04351 0.97492 0.0
O223 O 0.87394 0.06445 0.00107 0.0
O224 O 0.22472 0.30641 0.10494 0.0
Cd225 Cd 0.19632 0.28316 0.11205 0.0
Cd226 Cd 0.19924 0.30624 0.14939 0.0
O227 O 0.21405 0.33337 0.12998 0.0
O228 O 0.17686 0.27758 0.0835 0.0
O229 O 0.16238 0.29822 0.11253 0.0
C230 C 0.1598 0.29145 0.09187 0.0
C231 C 0.16711 0.3051 0.17636 0.0
C232 C 0.22722 0.327 0.11298 0.0
C233 C 0.22367 0.25874 0.14639 0.0
O234 O 0.22434 0.27939 0.15456 0.0
O235 O 0.20896 0.25413 0.12991 0.0
O236 O 0.18827 0.3158 0.18049 0.0
O237 O 0.16327 0.29761 0.15609 0.0
O238 O 0.23194 0.67195 0.37622 0.0
Cd239 Cd 0.20607 0.6975 0.36866 0.0
Cd240 Cd 0.21101 0.67601 0.3289 0.0
O241 O 0.22744 0.64876 0.34648 0.0
O242 O 0.18768 0.70433 0.39769 0.0
O243 O 0.17059 0.68537 0.36884 0.0
C244 C 0.16915 0.69201 0.3896 0.0
C245 C 0.17599 0.67687 0.30521 0.0
C246 C 0.23667 0.65282 0.36593 0.0
C247 C 0.23481 0.72381 0.33454 0.0
O248 O 0.2345 0.70417 0.3243 0.0
O249 O 0.22131 0.72679 0.35221 0.0
O250 O 0.19712 0.66774 0.29838 0.0
O251 O 0.17433 0.68314 0.32606 0.0
O252 O 0.89836 0.56751 0.87713 0.0
Cd253 Cd 0.90845 0.54848 0.90519 0.0
Cd254 Cd 0.95365 0.55175 0.88456 0.0
O255 O 0.9318 0.55851 0.85652 0.0
O256 O 0.87639 0.53154 0.91359 0.0
O257 O 0.91034 0.51409 0.89925 0.0
C258 C 0.88684 0.51291 0.90524 0.0
C259 C 0.98177 0.52045 0.88655 0.0
C260 C 0.90933 0.5664 0.85805 0.0
C261 C 0.94794 0.57661 0.9285 0.0
O262 O 0.95878 0.57673 0.90931 0.0
O263 O 0.92815 0.56411 0.93166 0.0
O264 O 0.98792 0.53955 0.87608 0.0
O265 O 0.95921 0.51887 0.89484 0.0
O266 O 0.77473 0.80594 0.39342 0.0
Cd267 Cd 0.80565 0.7865 0.38413 0.0
Cd268 Cd 0.79335 0.80523 0.34688 0.0
O269 O 0.77766 0.832 0.36609 0.0
O270 O 0.82727 0.7834 0.41163 0.0
O271 O 0.83761 0.8053 0.3821 0.0
C272 C 0.84216 0.79884 0.40257 0.0
C273 C 0.82328 0.80593 0.31808 0.0
C274 C 0.76801 0.82535 0.38473 0.0
C275 C 0.7776 0.75564 0.35531 0.0
O276 O 0.77175 0.77515 0.34629 0.0
O277 O 0.79588 0.75474 0.36931 0.0
O278 O 0.80048 0.8135 0.31469 0.0
O279 O 0.82959 0.80032 0.33841 0.0
O280 O 0.59312 0.42584 0.37985 0.0
Cd281 Cd 0.58529 0.44773 0.4066 0.0
Cd282 Cd 0.54013 0.44755 0.38714 0.0
O283 O 0.56098 0.43761 0.35916 0.0
O284 O 0.61902 0.46163 0.41433 0.0
O285 O 0.58769 0.48174 0.39869 0.0
C286 C 0.61115 0.48073 0.40489 0.0
C287 C 0.51396 0.48031 0.38707 0.0
C288 C 0.58232 0.42741 0.36076 0.0
C289 C 0.54397 0.42488 0.43228 0.0
O290 O 0.5326 0.42466 0.41337 0.0
O291 O 0.56509 0.4356 0.43426 0.0
O292 O 0.50681 0.46081 0.37786 0.0
O293 O 0.53663 0.48149 0.3952 0.0
O294 O 0.28126 0.69504 0.60163 0.0
Cd295 Cd 0.30767 0.7202 0.60909 0.0
Cd296 Cd 0.30112 0.70014 0.64736 0.0
O297 O 0.28958 0.67069 0.62947 0.0
O298 O 0.3256 0.72667 0.57993 0.0
O299 O 0.34326 0.70831 0.60882 0.0
C300 C 0.34436 0.71471 0.58796 0.0
C301 C 0.33401 0.70548 0.67289 0.0
C302 C 0.27843 0.67509 0.61093 0.0
C303 C 0.27545 0.7461 0.6394 0.0
O304 O 0.27421 0.72618 0.64905 0.0
O305 O 0.29219 0.74977 0.62425 0.0
O306 O 0.31363 0.69431 0.67874 0.0
O307 O 0.33644 0.71153 0.65203 0.0
O308 O 0.90719 0.43867 0.62449 0.0
Cd309 Cd 0.91786 0.45791 0.5967 0.0
Cd310 Cd 0.96253 0.45418 0.61738 0.0
O311 O 0.94067 0.44653 0.6454 0.0
O312 O 0.88547 0.47347 0.58759 0.0
O313 O 0.91822 0.4925 0.60232 0.0
C314 C 0.89481 0.49259 0.59597 0.0
C315 C 0.99057 0.4857 0.6157 0.0
C316 C 0.91806 0.43898 0.64361 0.0
C317 C 0.95715 0.42982 0.57312 0.0
O318 O 0.9681 0.42961 0.59223 0.0
O319 O 0.93737 0.44229 0.5702 0.0
O320 O 0.9966 0.46656 0.6261 0.0
O321 O 0.96801 0.48729 0.60742 0.0
O322 O 0.10276 0.06671 0.62627 0.0
Cd323 Cd 0.09319 0.04816 0.59766 0.0
Cd324 Cd 0.04787 0.04836 0.61832 0.0
O325 O 0.06917 0.05683 0.64637 0.0
O326 O 0.12523 0.03198 0.58843 0.0
O327 O 0.09165 0.01369 0.60262 0.0
C328 C 0.11506 0.01296 0.59625 0.0
C329 C 0.01969 0.01678 0.6178 0.0
C330 C 0.09137 0.0655 0.64516 0.0
C331 C 0.05254 0.0745 0.57467 0.0
O332 O 0.04111 0.07293 0.59353 0.0
O333 O 0.07343 0.06377 0.57155 0.0
O334 O 0.01394 0.0362 0.62786 0.0
O335 O 0.04203 0.01495 0.60905 0.0
O336 O 0.60042 0.6854 0.85551 0.0
Cd337 Cd 0.63198 0.70364 0.84462 0.0
Cd338 Cd 0.60742 0.69741 0.80374 0.0
O339 O 0.5784 0.68459 0.82378 0.0
O340 O 0.645 0.72288 0.87073 0.0
O341 O 0.6283 0.73798 0.83978 0.0
C342 C 0.63788 0.74117 0.85952 0.0
C343 C 0.60436 0.72933 0.77913 0.0
C344 C 0.58035 0.68005 0.84474 0.0
C345 C 0.65848 0.67461 0.80953 0.0
O346 O 0.63816 0.6759 0.79806 0.0
O347 O 0.66058 0.68558 0.82818 0.0
O348 O 0.59527 0.70901 0.77357 0.0
O349 O 0.61358 0.73167 0.79911 0.0
O350 O 0.89843 0.13303 0.41225 0.0
Cd351 Cd 0.92403 0.10599 0.41617 0.0
Cd352 Cd 0.91932 0.11804 0.4596 0.0
O353 O 0.90392 0.14819 0.44611 0.0
O354 O 0.94472 0.10465 0.38793 0.0
O355 O 0.95977 0.1161 0.42108 0.0
C356 C 0.96327 0.11303 0.39971 0.0
C357 C 0.95062 0.11989 0.48737 0.0
C358 C 0.89501 0.14968 0.42626 0.0
C359 C 0.9003 0.07037 0.44546 0.0
O360 O 0.89871 0.08717 0.45958 0.0
O361 O 0.9121 0.07323 0.42694 0.0
O362 O 0.9272 0.1245 0.49194 0.0
O363 O 0.95646 0.11518 0.4667 0.0
O364 O 0.38721 0.82303 0.85402 0.0
Cd365 Cd 0.35519 0.80389 0.8462 0.0
Cd366 Cd 0.37681 0.80734 0.80298 0.0
O367 O 0.40621 0.82279 0.82065 0.0
O368 O 0.34495 0.78398 0.87277 0.0
O369 O 0.35947 0.76997 0.84037 0.0
C370 C 0.35142 0.76613 0.86054 0.0
C371 C 0.3806 0.77499 0.7788 0.0
C372 C 0.40594 0.82841 0.84146 0.0
C373 C 0.32514 0.82901 0.81106 0.0
O374 O 0.34433 0.82669 0.79822 0.0
O375 O 0.32506 0.82035 0.83084 0.0
O376 O 0.38771 0.79566 0.77233 0.0
O377 O 0.37314 0.77263 0.79936 0.0
O378 O 0.09924 0.36481 0.40382 0.0
Cd379 Cd 0.0748 0.39215 0.41037 0.0
Cd380 Cd 0.08328 0.3791 0.45318 0.0
O381 O 0.09581 0.34864 0.43744 0.0
O382 O 0.05145 0.39417 0.3839 0.0
O383 O 0.03965 0.38224 0.41793 0.0
C384 C 0.03413 0.3856 0.39699 0.0
C385 C 0.05346 0.37889 0.48247 0.0
C386 C 0.1029 0.34749 0.41693 0.0
C387 C 0.10202 0.42664 0.43869 0.0
O388 O 0.10494 0.4094 0.45208 0.0
O389 O 0.08826 0.42439 0.42121 0.0
O390 O 0.0767 0.37276 0.48592 0.0
O391 O 0.04688 0.38394 0.4621 0.0
O392 O 0.60159 0.31478 0.65329 0.0
Cd393 Cd 0.63251 0.29326 0.65854 0.0
Cd394 Cd 0.61369 0.29233 0.70057 0.0
O395 O 0.58304 0.30861 0.68615 0.0
O396 O 0.64075 0.27684 0.62955 0.0
O397 O 0.62669 0.25869 0.66019 0.0
C398 C 0.63367 0.25762 0.63931 0.0
C399 C 0.60915 0.26105 0.72572 0.0
C400 C 0.58302 0.31792 0.66668 0.0
C401 C 0.66406 0.31628 0.69344 0.0
O402 O 0.64507 0.31304 0.70631 0.0
O403 O 0.66414 0.30804 0.67348 0.0
O404 O 0.60249 0.28211 0.73118 0.0
O405 O 0.61723 0.25749 0.70545 0.0
O406 O 0.59173 0.11363 0.60254 0.0
Cd407 Cd 0.56395 0.09024 0.59312 0.0
Cd408 Cd 0.57776 0.104 0.55229 0.0
O409 O 0.59197 0.13258 0.57021 0.0
O410 O 0.53944 0.08985 0.61874 0.0
O411 O 0.53088 0.1049 0.5851 0.0
C412 C 0.52419 0.10135 0.60578 0.0
C413 C 0.55121 0.1077 0.52091 0.0
C414 C 0.598 0.13151 0.59097 0.0
C415 C 0.58909 0.05424 0.56569 0.0
O416 O 0.59576 0.07173 0.55369 0.0
O417 O 0.57357 0.05709 0.5819 0.0
O418 O 0.57528 0.11171 0.51944 0.0
O419 O 0.54199 0.10299 0.54058 0.0
O420 O 0.40113 0.18063 0.65917 0.0
Cd421 Cd 0.3705 0.20196 0.66641 0.0
Cd422 Cd 0.3909 0.19969 0.708 0.0
O423 O 0.42124 0.1845 0.69161 0.0
O424 O 0.3608 0.21855 0.63789 0.0
O425 O 0.37622 0.2366 0.66804 0.0
C426 C 0.36823 0.23776 0.6475 0.0
C427 C 0.3936 0.23134 0.73298 0.0
C428 C 0.42032 0.17655 0.67155 0.0
C429 C 0.34001 0.17712 0.7013 0.0
O430 O 0.35974 0.17868 0.7135 0.0
O431 O 0.33932 0.18694 0.68203 0.0
O432 O 0.40159 0.21072 0.7386 0.0
O433 O 0.38579 0.23429 0.71255 0.0
O434 O 0.407 0.38243 0.61076 0.0
Cd435 Cd 0.43412 0.40627 0.60091 0.0
Cd436 Cd 0.41973 0.39192 0.55974 0.0
O437 O 0.40615 0.36352 0.57831 0.0
O438 O 0.46028 0.40677 0.62523 0.0
O439 O 0.46656 0.39195 0.59105 0.0
C440 C 0.47474 0.39561 0.61123 0.0
C441 C 0.44695 0.38796 0.52868 0.0
C442 C 0.40067 0.36452 0.59923 0.0
C443 C 0.40861 0.4418 0.5732 0.0
O444 O 0.40187 0.42423 0.56128 0.0
O445 O 0.42409 0.4391 0.5894 0.0
O446 O 0.42297 0.38364 0.52687 0.0
O447 O 0.45556 0.39329 0.54837 0.0
O448 O 0.82488 0.57713 0.73619 0.0
Cd449 Cd 0.79878 0.58245 0.71058 0.0
Cd450 Cd 0.81448 0.62298 0.71763 0.0
O451 O 0.848 0.60815 0.72784 0.0
O452 O 0.79519 0.55358 0.69175 0.0
O453 O 0.81367 0.58636 0.67976 0.0
C454 C 0.80742 0.56471 0.67612 0.0
C455 C 0.80769 0.65425 0.69362 0.0
C456 C 0.8451 0.58913 0.73875 0.0
C457 C 0.76479 0.61113 0.73641 0.0
O458 O 0.78559 0.62139 0.74082 0.0
O459 O 0.76401 0.59607 0.72055 0.0
O460 O 0.81856 0.65721 0.71293 0.0
O461 O 0.80358 0.633 0.6868 0.0
O462 O 0.86688 0.87802 0.55874 0.0
Cd463 Cd 0.89695 0.88843 0.53863 0.0
Cd464 Cd 0.87224 0.92966 0.54362 0.0
O465 O 0.84329 0.90992 0.55681 0.0
O466 O 0.90901 0.85825 0.52533 0.0
O467 O 0.89151 0.88665 0.50516 0.0
C468 C 0.90038 0.8655 0.50622 0.0
C469 C 0.86422 0.95944 0.51769 0.0
C470 C 0.84629 0.88878 0.56298 0.0
C471 C 0.92429 0.92548 0.56397 0.0
O472 O 0.90309 0.93608 0.56383 0.0
O473 O 0.92716 0.90647 0.55292 0.0
O474 O 0.85757 0.96129 0.53854 0.0
O475 O 0.87448 0.93996 0.51116 0.0
O476 O 0.14796 0.90356 0.73498 0.0
Cd477 Cd 0.17325 0.89699 0.70903 0.0
Cd478 Cd 0.16115 0.85633 0.72106 0.0
O479 O 0.12714 0.87015 0.73184 0.0
O480 O 0.17632 0.92537 0.6895 0.0
O481 O 0.15792 0.89221 0.67846 0.0
C482 C 0.16416 0.91371 0.67423 0.0
C483 C 0.17077 0.8273 0.69524 0.0
C484 C 0.12911 0.89064 0.74024 0.0
C485 C 0.2103 0.87304 0.73633 0.0
O486 O 0.19079 0.86175 0.74273 0.0
O487 O 0.209 0.88618 0.71903 0.0
O488 O 0.16054 0.82205 0.71444 0.0
O489 O 0.17272 0.84922 0.68982 0.0
O490 O 0.14144 0.62066 0.54686 0.0
Cd491 Cd 0.11119 0.60923 0.52781 0.0
Cd492 Cd 0.13655 0.56857 0.53483 0.0
O493 O 0.16599 0.58936 0.54566 0.0
O494 O 0.0992 0.63932 0.51439 0.0
O495 O 0.11606 0.61041 0.49426 0.0
C496 C 0.10774 0.63176 0.49531 0.0
C497 C 0.14271 0.53791 0.50936 0.0
C498 C 0.16255 0.61076 0.55082 0.0
C499 C 0.08484 0.5738 0.5558 0.0
O500 O 0.10629 0.56365 0.55626 0.0
O501 O 0.08142 0.59172 0.54334 0.0
O502 O 0.15055 0.53659 0.52992 0.0
O503 O 0.13239 0.55734 0.50284 0.0
O504 O 0.83095 0.41957 0.7632 0.0
Cd505 Cd 0.80423 0.41387 0.78835 0.0
Cd506 Cd 0.82081 0.37333 0.78141 0.0
O507 O 0.85422 0.38854 0.77095 0.0
O508 O 0.79818 0.44366 0.80538 0.0
O509 O 0.8177 0.41271 0.8199 0.0
C510 C 0.81003 0.43414 0.8221 0.0
C511 C 0.81271 0.34456 0.80784 0.0
C512 C 0.85125 0.40779 0.76043 0.0
C513 C 0.77123 0.3834 0.76257 0.0
O514 O 0.79225 0.37365 0.75802 0.0
O515 O 0.77022 0.39869 0.77822 0.0
O516 O 0.82418 0.3396 0.78914 0.0
O517 O 0.80889 0.36642 0.81269 0.0
O518 O 0.62465 0.85938 0.45256 0.0
Cd519 Cd 0.59395 0.86883 0.47232 0.0
Cd520 Cd 0.61794 0.91033 0.47001 0.0
O521 O 0.64782 0.89126 0.45768 0.0
O522 O 0.58355 0.83923 0.48762 0.0
O523 O 0.59994 0.87003 0.50551 0.0
C524 C 0.59211 0.84847 0.50601 0.0
C525 C 0.62466 0.94097 0.49555 0.0
C526 C 0.64538 0.87055 0.45002 0.0
C527 C 0.56707 0.90521 0.44715 0.0
O528 O 0.58811 0.91605 0.44853 0.0
O529 O 0.56361 0.88605 0.45772 0.0
O530 O 0.63204 0.94235 0.47487 0.0
O531 O 0.61434 0.92155 0.50217 0.0
O532 O 0.17076 0.08067 0.76913 0.0
Cd533 Cd 0.19557 0.08538 0.79583 0.0
Cd534 Cd 0.17965 0.12617 0.78976 0.0
O535 O 0.14698 0.11132 0.77715 0.0
O536 O 0.19926 0.0553 0.81273 0.0
O537 O 0.17972 0.08671 0.82653 0.0
C538 C 0.18634 0.06497 0.82879 0.0
C539 C 0.18482 0.15602 0.81592 0.0
C540 C 0.15066 0.09258 0.76593 0.0
C541 C 0.23036 0.11552 0.77227 0.0
O542 O 0.20978 0.12604 0.76779 0.0
O543 O 0.23054 0.09969 0.7874 0.0
O544 O 0.17493 0.16004 0.79638 0.0
O545 O 0.18889 0.13442 0.82158 0.0
O546 O 0.36894 0.61932 0.43534 0.0
Cd547 Cd 0.40101 0.62048 0.45529 0.0
Cd548 Cd 0.38168 0.5796 0.46974 0.0
O549 O 0.34907 0.59579 0.45894 0.0
O550 O 0.40754 0.65384 0.46375 0.0
O551 O 0.39599 0.62618 0.48818 0.0
C552 C 0.40112 0.64801 0.48405 0.0
C553 C 0.376 0.55119 0.49786 0.0
C554 C 0.34866 0.60958 0.44218 0.0
C555 C 0.42893 0.58047 0.43975 0.0
O556 O 0.40907 0.56976 0.44639 0.0
O557 O 0.43211 0.60209 0.4443 0.0
O558 O 0.36755 0.54833 0.47772 0.0
O559 O 0.38742 0.57071 0.50247 0.0
O560 O 0.72369 0.81621 0.62284 0.0
Cd561 Cd 0.69595 0.79347 0.63301 0.0
Cd562 Cd 0.70501 0.81594 0.67008 0.0
O563 O 0.71893 0.8427 0.6497 0.0
O564 O 0.67573 0.7853 0.60551 0.0
O565 O 0.66124 0.80741 0.63346 0.0
C566 C 0.65819 0.79882 0.61351 0.0
C567 C 0.67259 0.81508 0.69667 0.0
C568 C 0.72877 0.83633 0.63102 0.0
C569 C 0.72663 0.76773 0.66484 0.0
O570 O 0.72927 0.78802 0.67356 0.0
O571 O 0.71005 0.76433 0.64956 0.0
O572 O 0.69399 0.8252 0.70125 0.0
O573 O 0.66897 0.80781 0.67631 0.0
O574 O 0.72365 0.19135 0.89155 0.0
Cd575 Cd 0.69645 0.21405 0.88041 0.0
Cd576 Cd 0.70346 0.18841 0.84472 0.0
O577 O 0.71693 0.16319 0.86668 0.0
O578 O 0.67574 0.22292 0.9074 0.0
O579 O 0.66173 0.20029 0.8796 0.0
C580 C 0.6584 0.20908 0.89948 0.0
C581 C 0.6729 0.18462 0.81675 0.0
C582 C 0.72745 0.17049 0.88468 0.0
C583 C 0.72655 0.23693 0.84633 0.0
O584 O 0.72785 0.21603 0.83876 0.0
O585 O 0.71098 0.24187 0.8621 0.0
O586 O 0.69512 0.17539 0.81424 0.0
O587 O 0.66747 0.19392 0.83603 0.0
O588 O 0.41889 0.06975 0.36511 0.0
Cd589 Cd 0.41538 0.05156 0.39507 0.0
Cd590 Cd 0.46047 0.03543 0.38411 0.0
O591 O 0.44558 0.04303 0.3528 0.0
O592 O 0.3791 0.04184 0.39786 0.0
O593 O 0.41059 0.01716 0.39045 0.0
C594 C 0.3865 0.02095 0.39229 0.0
C595 C 0.48357 0.00084 0.38784 0.0
C596 C 0.4302 0.05964 0.34885 0.0
C597 C 0.45653 0.06817 0.42388 0.0
O598 O 0.4702 0.06108 0.40752 0.0
O599 O 0.43284 0.06384 0.42398 0.0
O600 O 0.49282 0.01896 0.37768 0.0
O601 O 0.46064 0.00211 0.39545 0.0
O602 O 0.27416 0.32161 0.89309 0.0
Cd603 Cd 0.29691 0.29422 0.88321 0.0
Cd604 Cd 0.29017 0.31479 0.84424 0.0
O605 O 0.27774 0.34344 0.86245 0.0
O606 O 0.31503 0.2844 0.91116 0.0
O607 O 0.33373 0.30279 0.88269 0.0
C608 C 0.33477 0.29494 0.90309 0.0
C609 C 0.32249 0.31303 0.81756 0.0
C610 C 0.27034 0.34079 0.88271 0.0
C611 C 0.26353 0.26896 0.85173 0.0
O612 O 0.26404 0.28829 0.84103 0.0
O613 O 0.27836 0.2658 0.8684 0.0
O614 O 0.30115 0.32309 0.81296 0.0
O615 O 0.32611 0.30587 0.83797 0.0
O616 O 0.08475 0.93158 0.87736 0.0
Cd617 Cd 0.07592 0.95176 0.90522 0.0
Cd618 Cd 0.02951 0.94681 0.88622 0.0
O619 O 0.04927 0.93582 0.85814 0.0
O620 O 0.10907 0.96729 0.91284 0.0
O621 O 0.0759 0.9863 0.89918 0.0
C622 C 0.09951 0.98643 0.90485 0.0
C623 C 0.00394 0.97995 0.88645 0.0
C624 C 0.07227 0.92931 0.85914 0.0
C625 C 0.03654 0.92577 0.93183 0.0
O626 O 0.02424 0.92486 0.9134 0.0
O627 O 0.05716 0.93748 0.933 0.0
O628 O 0.99586 0.96038 0.87799 0.0
O629 O 0.027 0.98083 0.89365 0.0
O630 O 0.76825 0.18414 0.10939 0.0
Cd631 Cd 0.7925 0.21138 0.11652 0.0
Cd632 Cd 0.78833 0.19109 0.15653 0.0
O633 O 0.77329 0.16243 0.13996 0.0
O634 O 0.80832 0.22034 0.08693 0.0
O635 O 0.82917 0.20275 0.11449 0.0
C636 C 0.82871 0.21015 0.09397 0.0
C637 C 0.82447 0.19505 0.17851 0.0
C638 C 0.76407 0.16531 0.12033 0.0
C639 C 0.76186 0.23701 0.14988 0.0
O640 O 0.76298 0.21781 0.16074 0.0
O641 O 0.77556 0.24005 0.13237 0.0
O642 O 0.80445 0.18482 0.18653 0.0
O643 O 0.82446 0.20085 0.15749 0.0
O644 O 0.4213 0.91417 0.12064 0.0
Cd645 Cd 0.41835 0.93734 0.09401 0.0
Cd646 Cd 0.46394 0.94916 0.10709 0.0
O647 O 0.44957 0.9367 0.13729 0.0
O648 O 0.38213 0.94737 0.09258 0.0
O649 O 0.41364 0.9708 0.10326 0.0
C650 C 0.38956 0.96733 0.10072 0.0
C651 C 0.4887 0.98314 0.10633 0.0
C652 C 0.4334 0.92015 0.13825 0.0
C653 C 0.45834 0.92331 0.06308 0.0
O654 O 0.4721 0.9268 0.08039 0.0
O655 O 0.43506 0.92911 0.06348 0.0
O656 O 0.49735 0.9636 0.11417 0.0
O657 O 0.46528 0.98374 0.09997 0.0
O658 O 0.60044 0.56708 0.12003 0.0
Cd659 Cd 0.59114 0.54804 0.09168 0.0
Cd660 Cd 0.54562 0.54881 0.11202 0.0
O661 O 0.56689 0.5571 0.14012 0.0
O662 O 0.62339 0.53164 0.08348 0.0
O663 O 0.58937 0.51369 0.09729 0.0
C664 C 0.61299 0.51286 0.09159 0.0
C665 C 0.51766 0.51708 0.11135 0.0
C666 C 0.58908 0.56577 0.13892 0.0
C667 C 0.55097 0.57438 0.0681 0.0
O668 O 0.53948 0.57323 0.08696 0.0
O669 O 0.57169 0.5633 0.06514 0.0
O670 O 0.51161 0.53651 0.12127 0.0
O671 O 0.54008 0.51542 0.10275 0.0
H672 H 0.12717 0.27504 0.17369 0.0
H673 H 0.17008 0.31675 0.22114 0.0
H674 H 0.15071 0.29536 0.25248 0.0
H675 H 0.12757 0.26044 0.2658 0.0
H676 H 0.08737 0.21699 0.2179 0.0
H677 H 0.09953 0.24353 0.18742 0.0
C678 C 0.13181 0.27993 0.19089 0.0
C679 C 0.15035 0.29727 0.19502 0.0
C680 C 0.12142 0.2669 0.20878 0.0
C681 C 0.15601 0.30338 0.21744 0.0
C682 C 0.14508 0.29101 0.23539 0.0
C683 C 0.121 0.25704 0.24878 0.0
C684 C 0.1069 0.23654 0.2441 0.0
C685 C 0.1287 0.27202 0.23119 0.0
C686 C 0.09847 0.23248 0.22195 0.0
C687 C 0.10546 0.24764 0.20448 0.0
H688 H 0.51022 0.60328 0.0702 0.0
H689 H 0.56309 0.57238 0.02308 0.0
H690 H 0.5375 0.58654 0.99153 0.0
H691 H 0.49727 0.60328 0.97764 0.0
H692 H 0.444 0.63269 0.02533 0.0
H693 H 0.47272 0.6237 0.05628 0.0
C694 C 0.5164 0.59989 0.05303 0.0
C695 C 0.53835 0.58646 0.04904 0.0
C696 C 0.50137 0.60766 0.03504 0.0
C697 C 0.54621 0.58256 0.02667 0.0
C698 C 0.5315 0.59056 0.0086 0.0
C699 C 0.49217 0.60812 0.99476 0.0
C700 C 0.46836 0.61837 0.99919 0.0
C701 C 0.50861 0.60246 0.01262 0.0
C702 C 0.46208 0.62458 0.02146 0.0
C703 C 0.47848 0.6194 0.0392 0.0
H704 H 0.89646 0.26232 0.23113 0.0
H705 H 0.86086 0.22748 0.2876 0.0
H706 H 0.84196 0.19865 0.26227 0.0
H707 H 0.8294 0.18785 0.22373 0.0
H708 H 0.86482 0.22275 0.16722 0.0
H709 H 0.89028 0.2465 0.19288 0.0
C710 C 0.88507 0.24809 0.23794 0.0
C711 C 0.8796 0.24743 0.26114 0.0
C712 C 0.87396 0.23164 0.22323 0.0
C713 C 0.86512 0.22865 0.26975 0.0
C714 C 0.85418 0.21215 0.25526 0.0
C715 C 0.84319 0.20018 0.21702 0.0
C716 C 0.84472 0.20389 0.19361 0.0
C717 C 0.85752 0.21413 0.23189 0.0
C718 C 0.86297 0.21972 0.18518 0.0
C719 C 0.87747 0.23346 0.19986 0.0
H720 H 0.50134 0.90369 0.96548 0.0
H721 H 0.56687 0.88392 0.00473 0.0
H722 H 0.5428 0.88926 0.03945 0.0
H723 H 0.50472 0.90321 0.0588 0.0
H724 H 0.43907 0.9236 0.02011 0.0
H725 H 0.46151 0.91405 0.98511 0.0
C726 C 0.51023 0.9002 0.98162 0.0
C727 C 0.53599 0.89365 0.98246 0.0
C728 C 0.49632 0.90358 0.00166 0.0
C729 C 0.54716 0.88913 0.00353 0.0
C730 C 0.53342 0.89223 0.02345 0.0
C731 C 0.49516 0.90534 0.04273 0.0
C732 C 0.47034 0.91439 0.0421 0.0
C733 C 0.50823 0.90005 0.02272 0.0
C734 C 0.45819 0.91674 0.02112 0.0
C735 C 0.47106 0.91138 0.00108 0.0
H736 H 0.13355 0.70208 0.31425 0.0
H737 H 0.17483 0.66963 0.25952 0.0
H738 H 0.15052 0.69253 0.23229 0.0
H739 H 0.12436 0.72728 0.22485 0.0
H740 H 0.08621 0.76213 0.28002 0.0
H741 H 0.10219 0.73258 0.3062 0.0
C742 C 0.13677 0.69949 0.29634 0.0
C743 C 0.15638 0.68453 0.28896 0.0
C744 C 0.12358 0.71352 0.28086 0.0
C745 C 0.16006 0.68121 0.26568 0.0
C746 C 0.14629 0.69446 0.2501 0.0
C747 C 0.119 0.72811 0.24251 0.0
C748 C 0.10455 0.74718 0.25056 0.0
C749 C 0.12906 0.71158 0.25759 0.0
C750 C 0.09758 0.74782 0.27344 0.0
C751 C 0.1068 0.73097 0.28844 0.0
H752 H 0.00152 0.607 0.01882 0.0
H753 H 0.05285 0.63921 0.97111 0.0
H754 H 0.02437 0.62896 0.94023 0.0
H755 H 0.9876 0.60706 0.92638 0.0
H756 H 0.93675 0.57355 0.97365 0.0
H757 H 0.96213 0.58845 0.00509 0.0
C758 C 0.00628 0.61212 0.00171 0.0
C759 C 0.02946 0.62363 0.99728 0.0
C760 C 0.98999 0.60579 0.98392 0.0
C761 C 0.03525 0.63021 0.97501 0.0
C762 C 0.01899 0.62429 0.95731 0.0
C763 C 0.9818 0.60325 0.94356 0.0
C764 C 0.96045 0.58892 0.94759 0.0
C765 C 0.99672 0.61148 0.9615 0.0
C766 C 0.95313 0.58444 0.97 0.0
C767 C 0.96773 0.59286 0.98801 0.0
H768 H 0.86485 0.76454 0.22772 0.0
H769 H 0.91371 0.7284 0.27456 0.0
H770 H 0.89914 0.75388 0.30508 0.0
H771 H 0.86745 0.78151 0.3195 0.0
H772 H 0.8161 0.81548 0.27328 0.0
H773 H 0.8371 0.79623 0.24148 0.0
C774 C 0.87279 0.76262 0.24448 0.0
C775 C 0.89008 0.74437 0.24891 0.0
C776 C 0.86366 0.77683 0.26215 0.0
C777 C 0.90018 0.74214 0.27073 0.0
C778 C 0.89179 0.75667 0.28823 0.0
C779 C 0.86125 0.78523 0.30244 0.0
C780 C 0.83998 0.79967 0.29883 0.0
C781 C 0.87275 0.77336 0.28432 0.0
C782 C 0.83229 0.80431 0.27658 0.0
C783 C 0.8442 0.79316 0.25837 0.0
H784 H 0.99433 0.89835 0.93438 0.0
H785 H 0.05267 0.92981 0.97569 0.0
H786 H 0.02998 0.9176 0.00973 0.0
H787 H 0.9913 0.90175 0.02762 0.0
H788 H 0.93257 0.87151 0.98591 0.0
H789 H 0.95783 0.87933 0.95224 0.0
C790 C 0.00232 0.90231 0.95081 0.0
C791 C 0.02507 0.91525 0.9524 0.0
C792 C 0.98898 0.8956 0.97029 0.0
C793 C 0.03517 0.91997 0.97389 0.0
C794 C 0.02213 0.91308 0.9934 0.0
C795 C 0.9842 0.89652 0.0112 0.0
C796 C 0.95993 0.88625 0.00932 0.0
C797 C 0.99867 0.90145 0.99179 0.0
C798 C 0.95107 0.87957 0.98789 0.0
C799 C 0.96549 0.88409 0.96858 0.0
H800 H 0.2648 0.12712 0.27522 0.0
H801 H 0.22374 0.09274 0.22161 0.0
H802 H 0.18355 0.1071 0.23735 0.0
H803 H 0.1609 0.1331 0.26402 0.0
H804 H 0.20275 0.16728 0.31745 0.0
H805 H 0.24189 0.14922 0.3041 0.0
C806 C 0.24701 0.12247 0.26715 0.0
C807 C 0.24718 0.10915 0.24715 0.0
C808 C 0.2242 0.13098 0.27611 0.0
C809 C 0.22404 0.10295 0.23705 0.0
C810 C 0.20112 0.11133 0.24594 0.0
C811 C 0.17854 0.13642 0.27287 0.0
C812 C 0.17892 0.15183 0.29152 0.0
C813 C 0.20107 0.12596 0.26508 0.0
C814 C 0.20189 0.15564 0.30299 0.0
C815 C 0.22432 0.14535 0.29534 0.0
H816 H 0.36393 0.56002 0.97308 0.0
H817 H 0.41166 0.52742 0.92284 0.0
H818 H 0.40235 0.48867 0.93877 0.0
H819 H 0.38546 0.46497 0.97027 0.0
H820 H 0.33866 0.49837 0.02083 0.0
H821 H 0.34251 0.53581 0.00126 0.0
C822 C 0.372 0.5444 0.96539 0.0
C823 C 0.3888 0.5466 0.94708 0.0
C824 C 0.36688 0.52232 0.9748 0.0
C825 C 0.39876 0.5262 0.93703 0.0
C826 C 0.39355 0.50405 0.94621 0.0
C827 C 0.37566 0.48033 0.97672 0.0
C828 C 0.36215 0.47896 0.99718 0.0
C829 C 0.37835 0.502 0.96559 0.0
C830 C 0.34944 0.49899 0.00526 0.0
C831 C 0.35168 0.52045 0.99412 0.0
H832 H 0.83503 0.35719 0.27175 0.0
H833 H 0.78868 0.32647 0.32414 0.0
H834 H 0.75085 0.34419 0.30763 0.0
H835 H 0.73067 0.36575 0.27672 0.0
H836 H 0.77693 0.39727 0.22477 0.0
H837 H 0.81522 0.38202 0.24285 0.0
C838 C 0.81667 0.35453 0.27966 0.0
C839 C 0.8146 0.3403 0.29897 0.0
C840 C 0.79504 0.3648 0.27012 0.0
C841 C 0.79077 0.33731 0.30924 0.0
C842 C 0.76912 0.34735 0.29976 0.0
C843 C 0.74916 0.36942 0.26945 0.0
C844 C 0.75102 0.38233 0.24931 0.0
C845 C 0.77099 0.3607 0.27995 0.0
C846 C 0.77506 0.38733 0.24026 0.0
C847 C 0.79692 0.37853 0.25053 0.0
H848 H 0.62935 0.96004 0.94548 0.0
H849 H 0.57033 0.99087 0.90489 0.0
H850 H 0.57735 0.02897 0.92316 0.0
H851 H 0.59595 0.05168 0.95475 0.0
H852 H 0.65403 0.01963 0.99572 0.0
H853 H 0.65187 0.984 0.97307 0.0
C854 C 0.61831 0.9752 0.94035 0.0
C855 C 0.59907 0.97258 0.92418 0.0
C856 C 0.62211 0.9968 0.95118 0.0
C857 C 0.58521 0.99243 0.91739 0.0
C858 C 0.58909 0.01418 0.92795 0.0
C859 C 0.6085 0.03708 0.95837 0.0
C860 C 0.62478 0.03813 0.97714 0.0
C861 C 0.60684 0.01633 0.94549 0.0
C862 C 0.64103 0.01913 0.98158 0.0
C863 C 0.63981 0.99871 0.96866 0.0
H864 H 0.19737 0.83967 0.19051 0.0
H865 H 0.15308 0.85068 0.25095 0.0
H866 H 0.1887 0.87103 0.26851 0.0
H867 H 0.23388 0.88226 0.26813 0.0
H868 H 0.27861 0.86898 0.20852 0.0
H869 H 0.24135 0.85348 0.1891 0.0
C870 C 0.19539 0.84672 0.20743 0.0
C871 C 0.17266 0.84338 0.21943 0.0
C872 C 0.21608 0.8581 0.21761 0.0
C873 C 0.17044 0.85275 0.24135 0.0
C874 C 0.19081 0.86445 0.25144 0.0
C875 C 0.23523 0.87652 0.25071 0.0
C876 C 0.25884 0.87674 0.23973 0.0
C877 C 0.21391 0.8668 0.23992 0.0
C878 C 0.26055 0.86891 0.21728 0.0
C879 C 0.23931 0.85994 0.20622 0.0
H880 H 0.14808 0.49689 0.99387 0.0
H881 H 0.10036 0.45547 0.03774 0.0
H882 H 0.09211 0.49017 0.06109 0.0
H883 H 0.09376 0.53339 0.06573 0.0
H884 H 0.13997 0.57447 0.02023 0.0
H885 H 0.15364 0.53879 0.00101 0.0
C886 C 0.13621 0.49531 0.00876 0.0
C887 C 0.12458 0.47369 0.01386 0.0
C888 C 0.13105 0.51539 0.02171 0.0
C889 C 0.10949 0.47193 0.03337 0.0
C890 C 0.10463 0.49182 0.04665 0.0
C891 C 0.10725 0.53446 0.05193 0.0
C892 C 0.11558 0.5566 0.04425 0.0
C893 C 0.11459 0.51383 0.04051 0.0
C894 C 0.13302 0.55769 0.02631 0.0
C895 C 0.14084 0.53729 0.01527 0.0
H896 H 0.83966 0.64259 0.23678 0.0
H897 H 0.79772 0.66756 0.17905 0.0
H898 H 0.75892 0.65034 0.19423 0.0
H899 H 0.73632 0.63119 0.22516 0.0
H900 H 0.77766 0.60604 0.28303 0.0
H901 H 0.81745 0.62011 0.26634 0.0
C902 C 0.82209 0.64409 0.22741 0.0
C903 C 0.82157 0.65662 0.20693 0.0
C904 C 0.79976 0.63421 0.23628 0.0
C905 C 0.79868 0.65813 0.19489 0.0
C906 C 0.77644 0.64834 0.20358 0.0
C907 C 0.75407 0.6286 0.23406 0.0
C908 C 0.75405 0.61787 0.25541 0.0
C909 C 0.77669 0.63681 0.22446 0.0
C910 C 0.7772 0.61428 0.26658 0.0
C911 C 0.79991 0.62243 0.25709 0.0
H912 H 0.88488 0.04027 0.03644 0.0
H913 H 0.83676 0.00434 0.98857 0.0
H914 H 0.84086 0.96797 0.00987 0.0
H915 H 0.8627 0.94525 0.03886 0.0
H916 H 0.91192 0.98053 0.08625 0.0
H917 H 0.90243 0.01829 0.0686 0.0
C918 C 0.87487 0.0246 0.03094 0.0
C919 C 0.86088 0.02493 0.01075 0.0
C920 C 0.87771 0.00355 0.04304 0.0
C921 C 0.84791 0.00452 0.00391 0.0
C922 C 0.85029 0.98366 0.01605 0.0
C923 C 0.87107 0.96123 0.04558 0.0
C924 C 0.88834 0.96 0.06358 0.0
C925 C 0.86589 0.98278 0.03513 0.0
C926 C 0.89868 0.98094 0.0723 0.0
C927 C 0.89337 0.00254 0.06214 0.0
H928 H 0.23417 0.21408 0.13082 0.0
H929 H 0.25306 0.26381 0.18346 0.0
H930 H 0.28316 0.23641 0.19932 0.0
H931 H 0.30283 0.19809 0.19974 0.0
H932 H 0.28354 0.14662 0.14905 0.0
H933 H 0.25557 0.17513 0.13065 0.0
C934 C 0.24483 0.21883 0.14579 0.0
C935 C 0.24115 0.24098 0.15592 0.0
C936 C 0.26233 0.20282 0.15507 0.0
C937 C 0.25532 0.24692 0.17524 0.0
C938 C 0.2727 0.23128 0.18436 0.0
C939 C 0.29285 0.19312 0.18446 0.0
C940 C 0.29525 0.17025 0.17583 0.0
C941 C 0.27625 0.2092 0.17453 0.0
C942 C 0.28211 0.16418 0.15601 0.0
C943 C 0.26591 0.1804 0.14561 0.0
H944 H 0.31256 0.7888 0.28346 0.0
H945 H 0.29381 0.8367 0.33742 0.0
H946 H 0.26625 0.80682 0.35448 0.0
H947 H 0.2453 0.76761 0.35251 0.0
H948 H 0.26362 0.72155 0.29672 0.0
H949 H 0.29309 0.75029 0.28194 0.0
C950 C 0.3028 0.79268 0.29915 0.0
C951 C 0.30531 0.81495 0.30913 0.0
C952 C 0.28644 0.77581 0.30839 0.0
C953 C 0.29232 0.81963 0.32941 0.0
C954 C 0.27638 0.80261 0.33907 0.0
C955 C 0.2557 0.76393 0.33711 0.0
C956 C 0.25201 0.74239 0.32579 0.0
C957 C 0.27284 0.78076 0.32842 0.0
C958 C 0.26584 0.73791 0.30588 0.0
C959 C 0.28288 0.75434 0.29736 0.0
H960 H 0.97409 0.47837 0.90722 0.0
H961 H 0.03224 0.52134 0.87645 0.0
H962 H 0.0648 0.49436 0.88982 0.0
H963 H 0.077 0.46118 0.91354 0.0
H964 H 0.01933 0.41804 0.9446 0.0
H965 H 0.98622 0.44244 0.92763 0.0
C966 C 0.99386 0.48164 0.90314 0.0
C967 C 0.00077 0.50202 0.89112 0.0
C968 C 0.01254 0.4662 0.91111 0.0
C969 C 0.02642 0.50587 0.88577 0.0
C970 C 0.04507 0.49052 0.8935 0.0
C971 C 0.05717 0.457 0.91647 0.0
C972 C 0.05057 0.43812 0.9306 0.0
C973 C 0.03838 0.47107 0.90675 0.0
C974 C 0.02485 0.43258 0.93387 0.0
C975 C 0.00595 0.44657 0.92424 0.0
H976 H 0.73275 0.75496 0.33338 0.0
H977 H 0.78683 0.70933 0.3659 0.0
H978 H 0.76082 0.67508 0.35591 0.0
H979 H 0.72444 0.65814 0.33528 0.0
H980 H 0.67177 0.70431 0.30168 0.0
H981 H 0.69529 0.7385 0.3153 0.0
C982 C 0.73895 0.73755 0.33834 0.0
C983 C 0.76195 0.73468 0.35007 0.0
C984 C 0.724 0.7181 0.33255 0.0
C985 C 0.76935 0.712 0.35668 0.0
C986 C 0.75445 0.69245 0.35102 0.0
C987 C 0.71775 0.67571 0.33144 0.0
C988 C 0.69636 0.67874 0.31753 0.0
C989 C 0.73191 0.69528 0.33868 0.0
C990 C 0.68814 0.70156 0.31238 0.0
C991 C 0.70169 0.72109 0.32002 0.0
H992 H 0.42099 0.5434 0.41241 0.0
H993 H 0.48032 0.58757 0.43923 0.0
H994 H 0.51251 0.5615 0.4229 0.0
H995 H 0.52335 0.52376 0.40471 0.0
H996 H 0.46341 0.48016 0.37774 0.0
H997 H 0.43187 0.50867 0.3901 0.0
C998 C 0.44099 0.54745 0.41446 0.0
C999 C 0.44836 0.56707 0.42729 0.0
C1000 C 0.45923 0.53247 0.40506 0.0
C1001 C 0.47425 0.57246 0.42948 0.0
C1002 C 0.49262 0.55751 0.42023 0.0
C1003 C 0.50342 0.5207 0.40119 0.0
C1004 C 0.49572 0.49968 0.39063 0.0
C1005 C 0.48529 0.53711 0.40853 0.0
C1006 C 0.46986 0.4961 0.38597 0.0
C1007 C 0.45177 0.51234 0.39313 0.0
H1008 H 0.23193 0.73949 0.66268 0.0
H1009 H 0.27595 0.79328 0.6293 0.0
H1010 H 0.24496 0.82298 0.64106 0.0
H1011 H 0.20742 0.83387 0.6636 0.0
H1012 H 0.16465 0.77981 0.69786 0.0
H1013 H 0.19288 0.74982 0.68243 0.0
C1014 C 0.23482 0.75771 0.65791 0.0
C1015 C 0.25648 0.76423 0.64545 0.0
C1016 C 0.21702 0.77456 0.66472 0.0
C1017 C 0.25958 0.78783 0.63906 0.0
C1018 C 0.24184 0.80479 0.64575 0.0
C1019 C 0.20389 0.81547 0.66724 0.0
C1020 C 0.18398 0.80907 0.68191 0.0
C1021 C 0.22071 0.79839 0.6589 0.0
C1022 C 0.17983 0.78518 0.68664 0.0
C1023 C 0.19608 0.76805 0.67797 0.0
H1024 H 0.08812 0.5428 0.59022 0.0
H1025 H 0.03381 0.58116 0.55025 0.0
H1026 H -0.00091 0.55902 0.56769 0.0
H1027 H 0.98489 0.52552 0.59078 0.0
H1028 H 0.03976 0.48673 0.62985 0.0
H1029 H 0.07351 0.51257 0.61646 0.0
C1030 C 0.06867 0.54654 0.58548 0.0
C1031 C 0.06358 0.56332 0.56868 0.0
C1032 C 0.04892 0.53358 0.59533 0.0
C1033 C 0.03825 0.56824 0.56305 0.0
C1034 C 0.01841 0.55551 0.57294 0.0
C1035 C 0.00416 0.52298 0.5967 0.0
C1036 C 0.00984 0.504 0.61105 0.0
C1037 C 0.0236 0.53765 0.58859 0.0
C1038 C 0.03487 0.50107 0.61867 0.0
C1039 C 0.05423 0.51578 0.61095 0.0
H1040 H 0.92176 0.95824 0.59693 0.0
H1041 H 0.97518 0.91782 0.55765 0.0
H1042 H 0.01027 0.94099 0.57321 0.0
H1043 H 0.02491 0.97578 0.59439 0.0
H1044 H 0.97082 0.01642 0.63287 0.0
H1045 H 0.93687 0.98986 0.62139 0.0
C1046 C 0.94111 0.95429 0.59195 0.0
C1047 C 0.94584 0.93661 0.57588 0.0
C1048 C 0.96104 0.96781 0.60072 0.0
C1049 C 0.97103 0.93142 0.56992 0.0
C1050 C 0.99108 0.94474 0.57872 0.0
C1051 C 0.00578 0.97859 0.60059 0.0
C1052 C 0.00036 0.99827 0.61421 0.0
C1053 C 0.9862 0.96344 0.59361 0.0
C1054 C 0.9755 0.00155 0.62223 0.0
C1055 C 0.95603 0.98641 0.6156 0.0
H1056 H 0.63109 0.78704 0.69284 0.0
H1057 H 0.67504 0.82605 0.74163 0.0
H1058 H 0.65373 0.80522 0.77231 0.0
H1059 H 0.6288 0.77107 0.78464 0.0
H1060 H 0.58763 0.72999 0.73548 0.0
H1061 H 0.60141 0.75669 0.70564 0.0
C1062 C 0.63557 0.79148 0.71019 0.0
C1063 C 0.65498 0.80782 0.7149 0.0
C1064 C 0.62401 0.77873 0.72769 0.0
C1065 C 0.66036 0.81341 0.7375 0.0
C1066 C 0.64829 0.80137 0.75506 0.0
C1067 C 0.62234 0.76823 0.76749 0.0
C1068 C 0.60756 0.74829 0.76224 0.0
C1069 C 0.63104 0.7832 0.75029 0.0
C1070 C 0.59922 0.74503 0.73995 0.0
C1071 C 0.60718 0.76025 0.72285 0.0
H1072 H -0.0006 0.10424 0.48421 0.0
H1073 H 0.94423 0.13075 0.53177 0.0
H1074 H 0.97261 0.1216 0.56294 0.0
H1075 H 0.01059 0.10195 0.57691 0.0
H1076 H 0.06539 0.07404 0.5298 0.0
H1077 H 0.03984 0.08825 0.49826 0.0
C1078 C 0.99377 0.10839 0.50137 0.0
C1079 C 0.96957 0.11789 0.50566 0.0
C1080 C 0.01003 0.10268 0.51932 0.0
C1081 C 0.96263 0.12324 0.52798 0.0
C1082 C 0.97883 0.11797 0.54585 0.0
C1083 C 0.01719 0.09923 0.55976 0.0
C1084 C 0.03971 0.08663 0.55575 0.0
C1085 C 0.0022 0.10702 0.54175 0.0
C1086 C 0.04808 0.08357 0.5334 0.0
C1087 C 0.0334 0.09159 0.51534 0.0
H1088 H 0.39567 0.77333 0.73478 0.0
H1089 H 0.35766 0.73273 0.78623 0.0
H1090 H 0.34296 0.70484 0.75787 0.0
H1091 H 0.33481 0.69599 0.71795 0.0
H1092 H 0.37283 0.73654 0.66647 0.0
H1093 H 0.39396 0.75997 0.69532 0.0
C1094 C 0.38468 0.75808 0.73985 0.0
C1095 C 0.37732 0.75545 0.76251 0.0
C1096 C 0.37602 0.74216 0.7234 0.0
C1097 C 0.36338 0.73538 0.76886 0.0
C1098 C 0.35483 0.71943 0.75262 0.0
C1099 C 0.34823 0.70954 0.71304 0.0
C1100 C 0.35177 0.7148 0.69008 0.0
C1101 C 0.36009 0.72324 0.72974 0.0
C1102 C 0.3695 0.73223 0.68402 0.0
C1103 C 0.38151 0.74579 0.70052 0.0
H1104 H 0.00558 0.39691 0.4811 0.0
H1105 H 0.06154 0.36898 0.52689 0.0
H1106 H 0.03516 0.38014 0.559 0.0
H1107 H 0.99858 0.40143 0.57412 0.0
H1108 H 0.94314 0.43064 0.52858 0.0
H1109 H 0.96681 0.41509 0.49638 0.0
C1110 C 0.01183 0.39291 0.49809 0.0
C1111 C 0.03565 0.38232 0.50157 0.0
C1112 C 0.99675 0.39977 0.51655 0.0
C1113 C 0.04339 0.37724 0.5237 0.0
C1114 C 0.02834 0.38368 0.54211 0.0
C1115 C 0.99144 0.40417 0.55719 0.0
C1116 C 0.96923 0.41746 0.55382 0.0
C1117 C 0.00535 0.39554 0.53874 0.0
C1118 C 0.96022 0.4206 0.53171 0.0
C1119 C 0.97381 0.41178 0.51326 0.0
H1120 H 0.63572 0.22017 0.72368 0.0
H1121 H 0.58687 0.26087 0.76721 0.0
H1122 H 0.59842 0.23625 0.79921 0.0
H1123 H 0.62868 0.20888 0.81593 0.0
H1124 H 0.68035 0.17047 0.77306 0.0
H1125 H 0.6609 0.1879 0.7397 0.0
C1126 C 0.62704 0.22321 0.74003 0.0
C1127 C 0.61086 0.2426 0.74318 0.0
C1128 C 0.63453 0.20953 0.75857 0.0
C1129 C 0.59969 0.24627 0.76443 0.0
C1130 C 0.60634 0.23224 0.78277 0.0
C1131 C 0.63524 0.20377 0.79928 0.0
C1132 C 0.65633 0.18882 0.79703 0.0
C1133 C 0.62474 0.21465 0.78025 0.0
C1134 C 0.66435 0.18217 0.77531 0.0
C1135 C 0.65335 0.19229 0.7562 0.0
H1136 H 0.5037 0.08739 0.42565 0.0
H1137 H 0.43731 0.0742 0.46646 0.0
H1138 H 0.4601 0.08754 0.50005 0.0
H1139 H 0.50028 0.09905 0.51832 0.0
H1140 H 0.56649 0.11209 0.47716 0.0
H1141 H 0.54226 0.10298 0.44326 0.0
C1142 C 0.49408 0.08768 0.44184 0.0
C1143 C 0.46892 0.07951 0.44356 0.0
C1144 C 0.50733 0.09524 0.46108 0.0
C1145 C 0.45668 0.08033 0.46464 0.0
C1146 C 0.46975 0.08786 0.48389 0.0
C1147 C 0.50931 0.10026 0.50191 0.0
C1148 C 0.53528 0.106 0.50036 0.0
C1149 C 0.49529 0.09478 0.4824 0.0
C1150 C 0.54659 0.10763 0.47892 0.0
C1151 C 0.53277 0.10232 0.45948 0.0
H1152 H 0.36819 0.27266 0.7285 0.0
H1153 H 0.41003 0.23118 0.77663 0.0
H1154 H 0.39507 0.25632 0.80725 0.0
H1155 H 0.36426 0.28531 0.82086 0.0
H1156 H 0.32017 0.32503 0.77296 0.0
H1157 H 0.34224 0.30574 0.74181 0.0
C1158 C 0.37458 0.26947 0.74561 0.0
C1159 C 0.38986 0.24981 0.75031 0.0
C1160 C 0.36522 0.28355 0.76326 0.0
C1161 C 0.39804 0.24603 0.77256 0.0
C1162 C 0.3894 0.26035 0.79012 0.0
C1163 C 0.35992 0.29022 0.80362 0.0
C1164 C 0.34026 0.3063 0.79927 0.0
C1165 C 0.37206 0.27846 0.78578 0.0
C1166 C 0.33503 0.31254 0.77681 0.0
C1167 C 0.34756 0.3014 0.75896 0.0
H1168 H 0.49836 0.40236 0.43385 0.0
H1169 H 0.5606 0.42478 0.47606 0.0
H1170 H 0.53689 0.41298 0.50964 0.0
H1171 H 0.49694 0.4 0.52712 0.0
H1172 H 0.43428 0.37884 0.48484 0.0
H1173 H 0.45986 0.38623 0.45121 0.0
C1174 C 0.50693 0.40441 0.45035 0.0
C1175 C 0.53118 0.4147 0.45237 0.0
C1176 C 0.49304 0.39795 0.46962 0.0
C1177 C 0.54196 0.41704 0.47395 0.0
C1178 C 0.52837 0.41036 0.49319 0.0
C1179 C 0.48897 0.39667 0.51056 0.0
C1180 C 0.46362 0.38906 0.50853 0.0
C1181 C 0.50365 0.40135 0.49126 0.0
C1182 C 0.45367 0.38478 0.48693 0.0
C1183 C 0.46827 0.38908 0.46766 0.0
H1184 H 0.65887 0.64502 0.77335 0.0
H1185 H 0.70727 0.67441 0.82499 0.0
H1186 H 0.74411 0.65577 0.80766 0.0
H1187 H 0.76296 0.63374 0.77646 0.0
H1188 H 0.71503 0.60418 0.72467 0.0
H1189 H 0.67748 0.62011 0.74366 0.0
C1190 C 0.67744 0.64722 0.78092 0.0
C1191 C 0.68031 0.66134 0.80031 0.0
C1192 C 0.6986 0.6365 0.77083 0.0
C1193 C 0.70449 0.66374 0.81004 0.0
C1194 C 0.72559 0.65313 0.80011 0.0
C1195 C 0.74428 0.63061 0.76938 0.0
C1196 C 0.74178 0.61804 0.74905 0.0
C1197 C 0.72292 0.63988 0.78029 0.0
C1198 C 0.71744 0.61383 0.74029 0.0
C1199 C 0.696 0.62303 0.75108 0.0
H1200 H 0.88677 0.96568 0.47659 0.0
H1201 H 0.83842 -5e-05 0.52542 0.0
H1202 H 0.84273 0.037 0.50528 0.0
H1203 H 0.86497 0.06075 0.47724 0.0
H1204 H 0.91427 0.02734 0.42872 0.0
H1205 H 0.9045 0.98886 0.44503 0.0
C1206 C 0.87672 0.98113 0.4825 0.0
C1207 C 0.86264 0.98014 0.50269 0.0
C1208 C 0.87967 0.00262 0.47105 0.0
C1209 C 0.84965 0.00029 0.5101 0.0
C1210 C 0.85214 0.02154 0.49862 0.0
C1211 C 0.87327 0.04501 0.46998 0.0
C1212 C 0.89065 0.04693 0.45207 0.0
C1213 C 0.86789 0.02308 0.47963 0.0
C1214 C 0.90091 0.02635 0.4426 0.0
C1215 C 0.89545 0.00435 0.452 0.0
H1216 H 0.21599 0.85736 0.77896 0.0
H1217 H 0.25848 0.8817 0.72122 0.0
H1218 H 0.29825 0.8721 0.74033 0.0
H1219 H 0.32046 0.85354 0.772 0.0
H1220 H 0.27766 0.82917 0.82964 0.0
H1221 H 0.23839 0.84239 0.81205 0.0
C1222 C 0.23397 0.86072 0.77061 0.0
C1223 C 0.23435 0.86988 0.7486 0.0
C1224 C 0.25663 0.85513 0.78164 0.0
C1225 C 0.25774 0.87457 0.73814 0.0
C1226 C 0.28044 0.86901 0.74902 0.0
C1227 C 0.30258 0.85134 0.78084 0.0
C1228 C 0.30197 0.84008 0.80197 0.0
C1229 C 0.28006 0.85879 0.77056 0.0
C1230 C 0.27868 0.83767 0.81333 0.0
C1231 C 0.25619 0.84513 0.80324 0.0
H1232 H 0.11896 0.53142 0.4689 0.0
H1233 H 0.16703 0.49664 0.51736 0.0
H1234 H 0.16118 0.45939 0.49774 0.0
H1235 H 0.13798 0.43583 0.47013 0.0
H1236 H 0.08889 0.46989 0.42208 0.0
H1237 H 0.09993 0.50826 0.43797 0.0
C1238 C 0.12859 0.51579 0.47487 0.0
C1239 C 0.1431 0.51677 0.49477 0.0
C1240 C 0.12475 0.49422 0.46372 0.0
C1241 C 0.15551 0.49636 0.50224 0.0
C1242 C 0.15213 0.475 0.49107 0.0
C1243 C 0.12998 0.45166 0.46288 0.0
C1244 C 0.11232 0.44994 0.44519 0.0
C1245 C 0.13607 0.47357 0.47231 0.0
C1246 C 0.10244 0.47067 0.43578 0.0
C1247 C 0.10864 0.49263 0.44494 0.0
H1248 H 0.76896 0.35933 0.72322 0.0
H1249 H 0.72175 0.38931 0.77538 0.0
H1250 H 0.68415 0.37179 0.75793 0.0
H1251 H 0.66528 0.34581 0.72937 0.0
H1252 H 0.71251 0.31636 0.67692 0.0
H1253 H 0.74964 0.33594 0.69302 0.0
C1254 C 0.75041 0.3622 0.73069 0.0
C1255 C 0.74815 0.3754 0.75069 0.0
C1256 C 0.72898 0.35205 0.72063 0.0
C1257 C 0.72398 0.37922 0.75999 0.0
C1258 C 0.70251 0.36911 0.7501 0.0
C1259 C 0.68369 0.34373 0.72141 0.0
C1260 C 0.68621 0.32942 0.70214 0.0
C1261 C 0.70488 0.35512 0.73067 0.0
C1262 C 0.71009 0.32722 0.6918 0.0
C1263 C 0.73132 0.33837 0.70102 0.0
H1264 H 0.59915 0.94872 0.53498 0.0
H1265 H 0.65224 0.9807 0.48868 0.0
H1266 H 0.64818 0.01815 0.50832 0.0
H1267 H 0.62558 0.0429 0.53531 0.0
H1268 H 0.57119 0.01181 0.58094 0.0
H1269 H 0.58003 0.97293 0.56513 0.0
C1270 C 0.61024 0.96376 0.52951 0.0
C1271 C 0.62573 0.96199 0.51023 0.0
C1272 C 0.60737 0.98549 0.5406 0.0
C1273 C 0.63997 0.98164 0.50333 0.0
C1274 C 0.63762 0.00311 0.51452 0.0
C1275 C 0.61588 0.0276 0.54205 0.0
C1276 C 0.59746 0.03035 0.55904 0.0
C1277 C 0.62071 0.00542 0.53264 0.0
C1278 C 0.58536 0.01025 0.56776 0.0
C1279 C 0.59032 0.988 0.55866 0.0
H1280 H 0.33787 0.14773 0.73735 0.0
H1281 H 0.29144 0.17869 0.68535 0.0
H1282 H 0.2536 0.16112 0.70219 0.0
H1283 H 0.2335 0.13921 0.7329 0.0
H1284 H 0.27966 0.10779 0.78478 0.0
H1285 H 0.31798 0.12319 0.76658 0.0
C1286 C 0.31949 0.15053 0.72961 0.0
C1287 C 0.31745 0.16473 0.71025 0.0
C1288 C 0.29782 0.14037 0.73937 0.0
C1289 C 0.29354 0.1679 0.70027 0.0
C1290 C 0.27189 0.15792 0.70993 0.0
C1291 C 0.25196 0.1356 0.74019 0.0
C1292 C 0.25376 0.12261 0.7603 0.0
C1293 C 0.27378 0.14448 0.72967 0.0
C1294 C 0.2778 0.11777 0.76933 0.0
C1295 C 0.29968 0.12665 0.75898 0.0
H1296 H 0.37047 0.45308 0.54473 0.0
H1297 H 0.42945 0.4841 0.58554 0.0
H1298 H 0.42208 0.52226 0.56778 0.0
H1299 H 0.40312 0.54518 0.53668 0.0
H1300 H 0.34526 0.51304 0.49533 0.0
H1301 H 0.34778 0.47712 0.51743 0.0
C1302 C 0.38145 0.46826 0.55003 0.0
C1303 C 0.40077 0.46564 0.56613 0.0
C1304 C 0.37748 0.48995 0.53947 0.0
C1305 C 0.41453 0.48559 0.57308 0.0
C1306 C 0.41044 0.5074 0.56282 0.0
C1307 C 0.39069 0.53049 0.53287 0.0
C1308 C 0.37434 0.53163 0.51417 0.0
C1309 C 0.39261 0.50958 0.5454 0.0
C1310 C 0.35829 0.51249 0.50943 0.0
C1311 C 0.35972 0.4919 0.52204 0.0
H1312 H 0.80622 0.6992 0.70819 0.0
H1313 H 0.78156 0.65441 0.65362 0.0
H1314 H 0.75415 0.6858 0.63954 0.0
H1315 H 0.73446 0.72489 0.64481 0.0
H1316 H 0.75852 0.76831 0.70072 0.0
H1317 H 0.78849 0.73833 0.71237 0.0
C1318 C 0.79526 0.69638 0.69295 0.0
C1319 C 0.79591 0.67446 0.68203 0.0
C1320 C 0.77892 0.7141 0.68548 0.0
C1321 C 0.78148 0.67116 0.66233 0.0
C1322 C 0.76559 0.68902 0.65441 0.0
C1323 C 0.7462 0.72772 0.65957 0.0
C1324 C 0.74402 0.74876 0.67196 0.0
C1325 C 0.76359 0.71033 0.66625 0.0
C1326 C 0.75964 0.75227 0.6909 0.0
C1327 C 0.77692 0.73517 0.69756 0.0
H1328 H 0.80777 0.29893 0.79601 0.0
H1329 H 0.78773 0.34837 0.84833 0.0
H1330 H 0.75906 0.31935 0.86516 0.0
H1331 H 0.73722 0.28082 0.86316 0.0
H1332 H 0.75665 0.23272 0.80937 0.0
H1333 H 0.7876 0.26051 0.79483 0.0
C1334 C 0.79756 0.30327 0.81137 0.0
C1335 C 0.79994 0.32579 0.8209 0.0
C1336 C 0.78048 0.28689 0.82042 0.0
C1337 C 0.78635 0.33111 0.8407 0.0
C1338 C 0.76974 0.3146 0.85019 0.0
C1339 C 0.74815 0.2765 0.84821 0.0
C1340 C 0.74441 0.25475 0.83732 0.0
C1341 C 0.76613 0.29264 0.83983 0.0
C1342 C 0.75898 0.24933 0.8181 0.0
C1343 C 0.77683 0.26518 0.80977 0.0
H1344 H 0.57241 0.93251 0.41062 0.0
H1345 H 0.51581 0.90302 0.45493 0.0
H1346 H 0.48338 0.92841 0.43809 0.0
H1347 H 0.47301 0.963 0.41461 0.0
H1348 H 0.53074 0.99254 0.37122 0.0
H1349 H 0.5608 0.96291 0.38369 0.0
C1350 C 0.55287 0.93137 0.41632 0.0
C1351 C 0.5465 0.91631 0.43419 0.0
C1352 C 0.53463 0.94618 0.40688 0.0
C1353 C 0.5211 0.91459 0.4412 0.0
C1354 C 0.50265 0.92922 0.4317 0.0
C1355 C 0.49201 0.96265 0.40757 0.0
C1356 C 0.49977 0.98023 0.39234 0.0
C1357 C 0.50943 0.94571 0.4151 0.0
C1358 C 0.52438 0.97943 0.38321 0.0
C1359 C 0.54163 0.96251 0.39034 0.0
H1360 H 0.25603 0.22492 0.86964 0.0
H1361 H 0.22912 0.27202 0.81781 0.0
H1362 H 0.19951 0.24235 0.80466 0.0
H1363 H 0.18367 0.20224 0.80552 0.0
H1364 H 0.21127 0.15381 0.85572 0.0
H1365 H 0.23746 0.18496 0.87222 0.0
C1366 C 0.24362 0.2287 0.85554 0.0
C1367 C 0.24515 0.25062 0.8446 0.0
C1368 C 0.22653 0.21138 0.84783 0.0
C1369 C 0.22868 0.25527 0.82646 0.0
C1370 C 0.21158 0.23832 0.81893 0.0
C1371 C 0.19499 0.19854 0.82036 0.0
C1372 C 0.19561 0.17567 0.82925 0.0
C1373 C 0.21065 0.21622 0.82921 0.0
C1374 C 0.21041 0.17128 0.84852 0.0
C1375 C 0.22561 0.18903 0.85783 0.0
H1376 H 0.01423 0.02127 0.90779 0.0
H1377 H 0.95424 0.98312 0.87416 0.0
H1378 H 0.92339 0.01207 0.88707 0.0
H1379 H 0.91272 0.04477 0.91202 0.0
H1380 H 0.97206 0.08238 0.94692 0.0
H1381 H 0.00403 0.05724 0.92909 0.0
C1382 C 0.99449 0.01952 0.90291 0.0
C1383 C 0.98648 -0.00016 0.89033 0.0
C1384 C 0.97673 0.03597 0.91082 0.0
C1385 C 0.96088 0.99796 0.884 0.0
C1386 C 0.94319 0.01446 0.89146 0.0
C1387 C 0.93268 0.04768 0.91552 0.0
C1388 C 0.94001 0.06509 0.93108 0.0
C1389 C 0.95079 0.03298 0.90555 0.0
C1390 C 0.96594 0.06899 0.9351 0.0
C1391 C 0.98419 0.05454 0.925 0.0
H1392 H 0.75493 0.2818 0.13363 0.0
H1393 H 0.7274 0.23273 0.18366 0.0
H1394 H 0.69811 0.26194 0.198 0.0
H1395 H 0.68276 0.30207 0.19877 0.0
H1396 H 0.71108 0.35257 0.15065 0.0
H1397 H 0.73687 0.32201 0.13275 0.0
C1398 C 0.74245 0.27751 0.14759 0.0
C1399 C 0.74373 0.25517 0.1577 0.0
C1400 C 0.72557 0.29458 0.15604 0.0
C1401 C 0.7272 0.24985 0.17568 0.0
C1402 C 0.71026 0.26652 0.18389 0.0
C1403 C 0.69417 0.30637 0.18409 0.0
C1404 C 0.69513 0.3296 0.1762 0.0
C1405 C 0.70961 0.28902 0.17449 0.0
C1406 C 0.71 0.33479 0.1571 0.0
C1407 C 0.72495 0.31737 0.14699 0.0
H1408 H 0.57919 0.04937 0.08065 0.0
H1409 H 0.51851 0.09069 0.05257 0.0
H1410 H 0.48715 0.06373 0.069 0.0
H1411 H 0.47759 0.02586 0.0877 0.0
H1412 H 0.53906 0.98531 0.1159 0.0
H1413 H 0.56947 0.01475 0.10336 0.0
C1414 C 0.55907 0.05262 0.07836 0.0
C1415 C 0.55111 0.07169 0.06516 0.0
C1416 C 0.54133 0.03714 0.08781 0.0
C1417 C 0.52504 0.07603 0.06264 0.0
C1418 C 0.50715 0.06057 0.07193 0.0
C1419 C 0.49758 0.02369 0.09145 0.0
C1420 C 0.50605 0.0032 0.10241 0.0
C1421 C 0.51513 0.04068 0.08402 0.0
C1422 C 0.532 0.00077 0.10732 0.0
C1423 C 0.54947 0.01756 0.10009 0.0
H1424 H 0.5239 0.47586 0.08861 0.0
H1425 H 0.46855 0.5163 0.12584 0.0
H1426 H 0.43524 0.489 0.11441 0.0
H1427 H 0.42107 0.45678 0.09022 0.0
H1428 H 0.4758 0.41676 0.05198 0.0
H1429 H 0.51022 0.44059 0.06774 0.0
C1430 C 0.50462 0.47848 0.09454 0.0
C1431 C 0.49865 0.4983 0.10779 0.0
C1432 C 0.48544 0.46293 0.08757 0.0
C1433 C 0.47364 0.50132 0.11548 0.0
C1434 C 0.45454 0.48576 0.10889 0.0
C1435 C 0.44056 0.45305 0.08552 0.0
C1436 C 0.44584 0.43529 0.06966 0.0
C1437 C 0.4601 0.467 0.09435 0.0
C1438 C 0.47122 0.43041 0.06407 0.0
C1439 C 0.49088 0.44411 0.07298 0.0
H1440 H 0.13043 0.24328 0.38998 0.0
H1441 H 0.12546 0.27369 0.32346 0.0
H1442 H 0.11994 0.31266 0.33996 0.0
H1443 H 0.11258 0.33744 0.37298 0.0
H1444 H 0.11507 0.30707 0.43964 0.0
H1445 H 0.12581 0.26883 0.42337 0.0
C1446 C 0.12853 0.25849 0.37911 0.0
C1447 C 0.1282 0.25556 0.35553 0.0
C1448 C 0.12475 0.28084 0.38872 0.0
C1449 C 0.1256 0.27543 0.34167 0.0
C1450 C 0.12242 0.29773 0.35108 0.0
C1451 C 0.11582 0.32257 0.38404 0.0
C1452 C 0.11284 0.32514 0.40752 0.0
C1453 C 0.12136 0.30055 0.37456 0.0
C1454 C 0.11711 0.30561 0.42151 0.0
C1455 C 0.12319 0.2837 0.41221 0.0
H1456 H 0.54023 0.65633 0.82662 0.0
H1457 H 0.57358 0.67675 0.8902 0.0
H1458 H 0.5393 0.65717 0.91051 0.0
H1459 H 0.49924 0.6353 0.91032 0.0
H1460 H 0.46587 0.61445 0.84689 0.0
H1461 H 0.50095 0.63285 0.82649 0.0
C1462 C 0.53996 0.65654 0.84491 0.0
C1463 C 0.55936 0.66815 0.85684 0.0
C1464 C 0.52028 0.64503 0.85655 0.0
C1465 C 0.55888 0.66799 0.88057 0.0
C1466 C 0.53929 0.65677 0.89223 0.0
C1467 C 0.49974 0.63456 0.89204 0.0
C1468 C 0.47991 0.62356 0.88017 0.0
C1469 C 0.51985 0.64533 0.8804 0.0
C1470 C 0.48091 0.62277 0.85648 0.0
C1471 C 0.5009 0.6334 0.84477 0.0
H1472 H 0.86536 0.25413 0.40368 0.0
H1473 H 0.85881 0.2236 0.33723 0.0
H1474 H 0.86497 0.18444 0.35286 0.0
H1475 H 0.87739 0.15958 0.38438 0.0
H1476 H 0.88652 0.18988 0.4507 0.0
H1477 H 0.8738 0.22828 0.43621 0.0
C1478 C 0.86477 0.23883 0.39274 0.0
C1479 C 0.8619 0.24175 0.36934 0.0
C1480 C 0.86904 0.21634 0.40176 0.0
C1481 C 0.86126 0.22182 0.3553 0.0
C1482 C 0.86482 0.19941 0.3642 0.0
C1483 C 0.87624 0.17446 0.3958 0.0
C1484 C 0.88325 0.17188 0.41852 0.0
C1485 C 0.86955 0.19656 0.38727 0.0
C1486 C 0.88143 0.19138 0.43307 0.0
C1487 C 0.87424 0.21339 0.42478 0.0
H1488 H 0.49179 0.87888 0.89758 0.0
H1489 H 0.51374 0.90202 0.83101 0.0
H1490 H 0.4776 0.88118 0.81472 0.0
H1491 H 0.44094 0.85482 0.81917 0.0
H1492 H 0.41865 0.83231 0.88584 0.0
H1493 H 0.45387 0.85435 0.90225 0.0
C1494 C 0.48853 0.87958 0.87953 0.0
C1495 C 0.5055 0.8919 0.86554 0.0
C1496 C 0.46783 0.86743 0.87025 0.0
C1497 C 0.50095 0.89269 0.84219 0.0
C1498 C 0.48037 0.88066 0.83283 0.0
C1499 C 0.44385 0.85469 0.83728 0.0
C1500 C 0.42736 0.84176 0.85123 0.0
C1501 C 0.46394 0.86765 0.84665 0.0
C1502 C 0.43112 0.84207 0.87471 0.0
C1503 C 0.45124 0.85468 0.88412 0.0
H1504 H 0.12806 0.76027 0.10854 0.0
H1505 H 0.13364 0.72565 0.17307 0.0
H1506 H 0.12875 0.68745 0.15487 0.0
H1507 H 0.11838 0.66429 0.12147 0.0
H1508 H 0.10994 0.69862 0.05702 0.0
H1509 H 0.12073 0.7364 0.07428 0.0
C1510 C 0.12869 0.74431 0.11852 0.0
C1511 C 0.13109 0.74578 0.14211 0.0
C1512 C 0.1251 0.72235 0.108 0.0
C1513 C 0.13166 0.72499 0.15488 0.0
C1514 C 0.12881 0.70313 0.1445 0.0
C1515 C 0.11925 0.67994 0.11106 0.0
C1516 C 0.11313 0.67859 0.088 0.0
C1517 C 0.12481 0.70165 0.12118 0.0
C1518 C 0.11441 0.69913 0.07485 0.0
C1519 C 0.12052 0.72078 0.08472 0.0
H1520 H 0.93261 0.65636 0.12843 0.0
H1521 H 0.96971 0.66096 0.19319 0.0
H1522 H 0.00681 0.64077 0.17779 0.0
H1523 H 0.02964 0.62386 0.14532 0.0
H1524 H 0.99295 0.62107 0.08035 0.0
H1525 H 0.95456 0.63814 0.09659 0.0
C1526 C 0.94874 0.65291 0.13926 0.0
C1527 C 0.94839 0.66035 0.16191 0.0
C1528 C 0.97005 0.64148 0.13028 0.0
C1529 C 0.96949 0.65559 0.17566 0.0
C1530 C 0.99071 0.64398 0.16688 0.0
C1531 C 0.01306 0.62658 0.13484 0.0
C1532 C 0.01408 0.62116 0.11169 0.0
C1533 C 0.9913 0.63706 0.14415 0.0
C1534 C 0.99261 0.6251 0.09822 0.0
C1535 C 0.9707 0.63496 0.10746 0.0
H1536 H 0.86961 0.77551 0.163 0.0
H1537 H 0.87052 0.7372 0.10015 0.0
H1538 H 0.87554 0.77398 0.0793 0.0
H1539 H 0.88386 0.81665 0.07933 0.0
H1540 H 0.88219 0.85467 0.14246 0.0
H1541 H 0.87293 0.81847 0.16266 0.0
C1542 C 0.87063 0.77524 0.14472 0.0
C1543 C 0.87003 0.75367 0.13316 0.0
C1544 C 0.87347 0.79642 0.13286 0.0
C1545 C 0.871 0.7536 0.10946 0.0
C1546 C 0.87398 0.77462 0.09753 0.0
C1547 C 0.88108 0.81708 0.09745 0.0
C1548 C 0.88409 0.83836 0.10932 0.0
C1549 C 0.87585 0.79609 0.1091 0.0
C1550 C 0.88018 0.83858 0.13282 0.0
C1551 C 0.87496 0.81783 0.14447 0.0
H1552 H 0.97314 0.88378 0.15739 0.0
H1553 H 0.007 0.88429 0.09108 0.0
H1554 H 0.04393 0.86317 0.1055 0.0
H1555 H 0.06526 0.84264 0.13635 0.0
H1556 H 0.0303 0.84022 0.20226 0.0
H1557 H 0.99492 0.8638 0.18849 0.0
C1558 C 0.98884 0.87965 0.14621 0.0
C1559 C 0.98751 0.88571 0.12327 0.0
C1560 C 0.00955 0.86681 0.15444 0.0
C1561 C 0.0077 0.87987 0.10884 0.0
C1562 C 0.02872 0.86769 0.11704 0.0
C1563 C 0.04994 0.84727 0.14775 0.0
C1564 C 0.05042 0.83956 0.17029 0.0
C1565 C 0.0296 0.86069 0.1397 0.0
C1566 C 0.03036 0.84575 0.18479 0.0
C1567 C 0.01017 0.85934 0.17696 0.0
H1568 H 0.38104 0.0579 0.25268 0.0
H1569 H 0.3727 0.13185 0.26691 0.0
H1570 H 0.39674 0.12735 0.30184 0.0
H1571 H 0.41559 0.10129 0.33053 0.0
H1572 H 0.42634 0.02788 0.315 0.0
H1573 H 0.40617 0.03326 0.27834 0.0
C1574 C 0.38499 0.07308 0.26322 0.0
C1575 C 0.37495 0.09508 0.25743 0.0
C1576 C 0.39903 0.07041 0.28315 0.0
C1577 C 0.38034 0.11472 0.27104 0.0
C1578 C 0.3939 0.11213 0.2911 0.0
C1579 C 0.41389 0.08663 0.31891 0.0
C1580 C 0.42212 0.06421 0.32548 0.0
C1581 C 0.40263 0.08991 0.29768 0.0
C1582 C 0.42014 0.04534 0.31025 0.0
C1583 C 0.40849 0.04835 0.28934 0.0
H1584 H 0.39508 0.324 0.98891 0.0
H1585 H 0.39721 0.38958 0.95254 0.0
H1586 H 0.382 0.3697 0.91851 0.0
H1587 H 0.36112 0.33549 0.90147 0.0
H1588 H 0.35303 0.27157 0.93979 0.0
H1589 H 0.37806 0.28866 0.97049 0.0
C1590 C 0.3929 0.33379 0.97334 0.0
C1591 C 0.3972 0.35821 0.97319 0.0
C1592 C 0.38284 0.32249 0.95425 0.0
C1593 C 0.39393 0.37077 0.95304 0.0
C1594 C 0.38515 0.35942 0.93362 0.0
C1595 C 0.3656 0.32503 0.91622 0.0
C1596 C 0.35537 0.30228 0.91839 0.0
C1597 C 0.37854 0.33552 0.93432 0.0
C1598 C 0.36081 0.28908 0.93777 0.0
C1599 C 0.37493 0.29893 0.95537 0.0
H1600 H 0.66168 0.41118 0.28315 0.0
H1601 H 0.59469 0.41435 0.24182 0.0
H1602 H 0.56817 0.41911 0.27578 0.0
H1603 H 0.56474 0.42346 0.31739 0.0
H1604 H 0.63246 0.41695 0.35793 0.0
H1605 H 0.65796 0.4119 0.32413 0.0
C1606 C 0.64126 0.41308 0.28164 0.0
C1607 C 0.63005 0.41306 0.26023 0.0
C1608 C 0.62632 0.4149 0.30108 0.0
C1609 C 0.6036 0.41474 0.25827 0.0
C1610 C 0.58853 0.41734 0.27764 0.0
C1611 C 0.58502 0.42063 0.3188 0.0
C1612 C 0.59663 0.42073 0.34022 0.0
C1613 C 0.59973 0.41754 0.29917 0.0
C1614 C 0.62293 0.41689 0.34175 0.0
C1615 C 0.63764 0.41418 0.3224 0.0
H1616 H 0.59514 0.14195 0.96047 0.0
H1617 H 0.60909 0.19714 0.00886 0.0
H1618 H 0.62614 0.22227 0.97907 0.0
H1619 H 0.64349 0.22576 0.94059 0.0
H1620 H 0.62833 0.17087 0.89205 0.0
H1621 H 0.60478 0.14879 0.92037 0.0
C1622 C 0.60137 0.15968 0.96436 0.0
C1623 C 0.60129 0.16754 0.98684 0.0
C1624 C 0.6111 0.17407 0.94714 0.0
C1625 C 0.60905 0.19066 0.99166 0.0
C1626 C 0.61895 0.205 0.97465 0.0
C1627 C 0.63443 0.20929 0.93604 0.0
C1628 C 0.63816 0.19978 0.91437 0.0
C1629 C 0.62102 0.19651 0.9525 0.0
C1630 C 0.62597 0.17856 0.90865 0.0
C1631 C 0.61264 0.16577 0.92491 0.0
H1632 H 0.38262 0.86847 0.22018 0.0
H1633 H 0.39079 0.93756 0.24926 0.0
H1634 H 0.41647 0.95003 0.21692 0.0
H1635 H 0.43148 0.94278 0.17827 0.0
H1636 H 0.4178 0.87543 0.14708 0.0
H1637 H 0.39958 0.86058 0.18232 0.0
C1638 C 0.39065 0.88604 0.21968 0.0
C1639 C 0.38513 0.90205 0.23707 0.0
C1640 C 0.40409 0.89343 0.20048 0.0
C1641 C 0.395 0.92496 0.23605 0.0
C1642 C 0.40952 0.9321 0.21753 0.0
C1643 C 0.42502 0.9247 0.17939 0.0
C1644 C 0.42602 0.91014 0.16023 0.0
C1645 C 0.41345 0.91672 0.19932 0.0
C1646 C 0.41716 0.8869 0.16168 0.0
C1647 C 0.40672 0.87846 0.18178 0.0
H1648 H 0.14578 0.27908 0.04909 0.0
H1649 H 0.13167 0.33024 0.10148 0.0
H1650 H 0.10952 0.35526 0.07471 0.0
H1651 H 0.09992 0.36534 0.03526 0.0
H1652 H 0.11203 0.31363 0.98312 0.0
H1653 H 0.12893 0.28611 0.01089 0.0
C1654 C 0.13729 0.29541 0.05477 0.0
C1655 C 0.14081 0.30292 0.07717 0.0
C1656 C 0.12452 0.30984 0.03924 0.0
C1657 C 0.12941 0.32402 0.08432 0.0
C1658 C 0.11688 0.3385 0.06896 0.0
C1659 C 0.10579 0.34786 0.03011 0.0
C1660 C 0.10511 0.34162 0.00719 0.0
C1661 C 0.11525 0.33203 0.0462 0.0
C1662 C 0.11242 0.31884 0.0007 0.0
C1663 C 0.12222 0.30313 0.01655 0.0
H1664 H 0.66545 0.57783 0.2194 0.0
H1665 H 0.59725 0.59751 0.25481 0.0
H1666 H 0.5722 0.5907 0.22042 0.0
H1667 H 0.57023 0.57942 0.17994 0.0
H1668 H 0.63991 0.56381 0.14457 0.0
H1669 H 0.66395 0.56905 0.17921 0.0
C1670 C 0.64504 0.58033 0.21964 0.0
C1671 C 0.63302 0.58761 0.23959 0.0
C1672 C 0.63115 0.57744 0.19974 0.0
C1673 C 0.60674 0.59158 0.23961 0.0
C1674 C 0.59252 0.5878 0.21997 0.0
C1675 C 0.59068 0.57736 0.17987 0.0
C1676 C 0.60327 0.5713 0.15972 0.0
C1677 C 0.60457 0.58084 0.19987 0.0
C1678 C 0.62979 0.56875 0.15978 0.0
C1679 C 0.64356 0.57155 0.17962 0.0
H1680 H 0.85938 0.17247 0.09725 0.0
H1681 H 0.84189 0.23131 0.05424 0.0
H1682 H 0.86776 0.21422 0.02405 0.0
H1683 H 0.88882 0.17951 0.00802 0.0
H1684 H 0.9003 0.1182 0.0494 0.0
H1685 H 0.88371 0.13932 0.08226 0.0
C1686 C 0.86184 0.1819 0.0815 0.0
C1687 C 0.84878 0.20312 0.07793 0.0
C1688 C 0.87544 0.17129 0.06386 0.0
C1689 C 0.85178 0.21495 0.05733 0.0
C1690 C 0.86644 0.20511 0.04006 0.0
C1691 C 0.88841 0.17105 0.02441 0.0
C1692 C 0.89583 0.1474 0.0264 0.0
C1693 C 0.87743 0.18283 0.04282 0.0
C1694 C 0.89472 0.13642 0.04756 0.0
C1695 C 0.88511 0.14845 0.06627 0.0
H1696 H 0.30622 0.4016 0.07621 0.0
H1697 H 0.34341 0.33743 0.05553 0.0
H1698 H 0.30907 0.31433 0.07177 0.0
H1699 H 0.26876 0.31217 0.0913 0.0
H1700 H 0.23148 0.37536 0.11412 0.0
H1701 H 0.26577 0.39919 0.09759 0.0
C1702 C 0.30675 0.38256 0.07529 0.0
C1703 C 0.32728 0.37123 0.0646 0.0
C1704 C 0.28702 0.36929 0.08497 0.0
C1705 C 0.3279 0.34657 0.06372 0.0
C1706 C 0.30824 0.33334 0.07294 0.0
C1707 C 0.26797 0.33119 0.09258 0.0
C1708 C 0.24747 0.34205 0.10361 0.0
C1709 C 0.28774 0.34452 0.08348 0.0
C1710 C 0.24705 0.36664 0.10559 0.0
C1711 C 0.2666 0.38021 0.09614 0.0
H1712 H 0.24091 0.64095 0.40954 0.0
H1713 H 0.27605 0.63143 0.34449 0.0
H1714 H 0.31444 0.61625 0.36259 0.0
H1715 H 0.33971 0.61079 0.39731 0.0
H1716 H 0.30358 0.61866 0.46217 0.0
H1717 H 0.26375 0.6296 0.44384 0.0
C1718 C 0.25674 0.63488 0.39936 0.0
C1719 C 0.25589 0.63734 0.37583 0.0
C1720 C 0.27867 0.62648 0.40988 0.0
C1721 C 0.27632 0.62943 0.36266 0.0
C1722 C 0.29836 0.6211 0.37302 0.0
C1723 C 0.323 0.61478 0.40731 0.0
C1724 C 0.32448 0.6145 0.43095 0.0
C1725 C 0.30006 0.62044 0.39664 0.0
C1726 C 0.30274 0.61906 0.44391 0.0
C1727 C 0.28004 0.62525 0.43346 0.0
H1728 H 0.83844 0.51376 0.89069 0.0
H1729 H 0.90155 0.46713 0.90188 0.0
H1730 H 0.88056 0.43647 0.87967 0.0
H1731 H 0.84803 0.42576 0.85182 0.0
H1732 H 0.78776 0.47454 0.83699 0.0
H1733 H 0.80366 0.50144 0.8659 0.0
C1734 C 0.84715 0.49658 0.88894 0.0
C1735 C 0.87141 0.49261 0.89797 0.0
C1736 C 0.83568 0.47962 0.87502 0.0
C1737 C 0.88279 0.47049 0.89515 0.0
C1738 C 0.8709 0.45306 0.88228 0.0
C1739 C 0.83804 0.44203 0.8553 0.0
C1740 C 0.81687 0.44825 0.84218 0.0
C1741 C 0.84791 0.45783 0.87129 0.0
C1742 C 0.80422 0.46946 0.84674 0.0
C1743 C 0.81332 0.48485 0.86325 0.0
H1744 H 0.6837 0.89141 0.42647 0.0
H1745 H 0.655 0.82387 0.44789 0.0
H1746 H 0.69082 0.80431 0.42986 0.0
H1747 H 0.73003 0.80627 0.40838 0.0
H1748 H 0.75815 0.87289 0.38422 0.0
H1749 H 0.72263 0.89311 0.40291 0.0
C1750 C 0.68539 0.87242 0.42717 0.0
C1751 C 0.66687 0.85906 0.43858 0.0
C1752 C 0.7058 0.86122 0.41632 0.0
C1753 C 0.66899 0.83448 0.43915 0.0
C1754 C 0.68948 0.8233 0.42891 0.0
C1755 C 0.72851 0.82526 0.40729 0.0
C1756 C 0.7468 0.83817 0.39527 0.0
C1757 C 0.70796 0.8365 0.41754 0.0
C1758 C 0.74428 0.86265 0.3935 0.0
C1759 C 0.72405 0.87415 0.40419 0.0
H1760 H 0.60094 0.52575 0.39242 0.0
H1761 H 0.66215 0.47603 0.39935 0.0
H1762 H 0.68975 0.50122 0.3768 0.0
H1763 H 0.69411 0.53412 0.35004 0.0
H1764 H 0.63351 0.58459 0.3442 0.0
H1765 H 0.60821 0.56255 0.37152 0.0
C1766 C 0.62053 0.52076 0.38952 0.0
C1767 C 0.62933 0.49889 0.39725 0.0
C1768 C 0.63631 0.53529 0.3764 0.0
C1769 C 0.65485 0.49276 0.39357 0.0
C1770 C 0.67062 0.50705 0.38047 0.0
C1771 C 0.67558 0.54052 0.35514 0.0
C1772 C 0.6655 0.56069 0.34487 0.0
C1773 C 0.66119 0.52784 0.37099 0.0
C1774 C 0.64165 0.56904 0.35183 0.0
C1775 C 0.6271 0.55638 0.36736 0.0
H1776 H 0.20195 0.59633 0.57748 0.0
H1777 H 0.16974 0.6572 0.54489 0.0
H1778 H 0.20357 0.68179 0.55979 0.0
H1779 H 0.24121 0.68641 0.58238 0.0
H1780 H 0.2731 0.62725 0.6178 0.0
H1781 H 0.24039 0.60144 0.60147 0.0
C1782 C 0.20249 0.61496 0.57366 0.0
C1783 C 0.18341 0.62499 0.56015 0.0
C1784 C 0.22181 0.62923 0.58275 0.0
C1785 C 0.1841 0.64915 0.55541 0.0
C1786 C 0.20346 0.66321 0.56384 0.0
C1787 C 0.24127 0.66782 0.58645 0.0
C1788 C 0.2597 0.65868 0.60109 0.0
C1789 C 0.22227 0.65347 0.57756 0.0
C1790 C 0.25913 0.63465 0.60649 0.0
C1791 C 0.24045 0.61995 0.59717 0.0
H1792 H 0.84778 0.57593 0.64979 0.0
H1793 H 0.78781 0.52482 0.65746 0.0
H1794 H 0.80745 0.49996 0.62869 0.0
H1795 H 0.84507 0.48984 0.60644 0.0
H1796 H 0.90763 0.53863 0.60251 0.0
H1797 H 0.88339 0.56758 0.62418 0.0
C1798 C 0.83868 0.55963 0.64473 0.0
C1799 C 0.81648 0.55212 0.65582 0.0
C1800 C 0.85069 0.54495 0.62891 0.0
C1801 C 0.80502 0.53088 0.64927 0.0
C1802 C 0.81627 0.51664 0.63286 0.0
C1803 C 0.85306 0.50712 0.60965 0.0
C1804 C 0.87808 0.51213 0.60289 0.0
C1805 C 0.83961 0.52306 0.62324 0.0
C1806 C 0.88837 0.53442 0.60752 0.0
C1807 C 0.8746 0.55087 0.62008 0.0
H1808 H 0.18689 0.94949 0.65171 0.0
H1809 H 0.12086 0.90462 0.65105 0.0
H1810 H 0.10093 0.92974 0.62278 0.0
H1811 H 0.09946 0.96815 0.60377 0.0
H1812 H 0.16598 0.01248 0.60369 0.0
H1813 H 0.18885 0.98352 0.62609 0.0
C1814 C 0.1684 0.94496 0.64494 0.0
C1815 C 0.1551 0.92559 0.65371 0.0
C1816 C 0.15712 0.95941 0.62863 0.0
C1817 C 0.13137 0.91956 0.6446 0.0
C1818 C 0.11991 0.93398 0.62853 0.0
C1819 C 0.11923 0.97109 0.60804 0.0
C1820 C 0.13085 0.99258 0.60248 0.0
C1821 C 0.13218 0.95449 0.62118 0.0
C1822 C 0.15656 0.99609 0.60783 0.0
C1823 C 0.16958 0.97966 0.62088 0.0
H1824 H 0.63456 0.78261 0.83745 0.0
H1825 H 0.64169 0.75302 0.90409 0.0
H1826 H 0.63413 0.79172 0.92084 0.0
H1827 H 0.62005 0.83269 0.91641 0.0
H1828 H 0.61276 0.8619 0.84952 0.0
H1829 H 0.62618 0.82468 0.83305 0.0
C1830 C 0.63486 0.7847 0.85564 0.0
C1831 C 0.63828 0.76496 0.86953 0.0
C1832 C 0.63027 0.80689 0.86512 0.0
C1833 C 0.63901 0.76796 0.89305 0.0
C1834 C 0.63454 0.79005 0.90263 0.0
C1835 C 0.62179 0.83104 0.89825 0.0
C1836 C 0.61496 0.84997 0.88424 0.0
C1837 C 0.6293 0.80947 0.88882 0.0
C1838 C 0.61768 0.84761 0.86074 0.0
C1839 C 0.62526 0.82627 0.85126 0.0
H1840 H 0.97174 0.12017 0.355 0.0
H1841 H 0.00799 0.12419 0.42014 0.0
H1842 H 0.04572 0.14147 0.40283 0.0
H1843 H 0.06744 0.15732 0.36968 0.0
H1844 H 0.03084 0.15456 0.30459 0.0
H1845 H 0.99416 0.13498 0.32147 0.0
C1846 C 0.98803 0.12452 0.36536 0.0
C1847 C 0.98707 0.12088 0.38882 0.0
C1848 C 0.00947 0.13493 0.35537 0.0
C1849 C 0.00824 0.12683 0.40205 0.0
C1850 C 0.02979 0.13679 0.39218 0.0
C1851 C 0.05149 0.15241 0.35911 0.0
C1852 C 0.05189 0.15756 0.33589 0.0
C1853 C 0.03043 0.14127 0.36893 0.0
C1854 C 0.03103 0.15095 0.32252 0.0
C1855 C 0.01005 0.1397 0.33216 0.0
H1856 H 0.37171 0.66009 0.88093 0.0
H1857 H 0.37855 0.68747 0.94863 0.0
H1858 H 0.36356 0.72581 0.93584 0.0
H1859 H 0.35395 0.75276 0.9045 0.0
H1860 H 0.35015 0.72551 0.83661 0.0
H1861 H 0.35818 0.68589 0.85045 0.0
C1862 C 0.36954 0.6743 0.89301 0.0
C1863 C 0.37659 0.67098 0.91564 0.0
C1864 C 0.36162 0.69642 0.88545 0.0
C1865 C 0.3735 0.6896 0.93105 0.0
C1866 C 0.36498 0.71156 0.92375 0.0
C1867 C 0.35433 0.73804 0.89285 0.0
C1868 C 0.3517 0.74202 0.86959 0.0
C1869 C 0.35979 0.71537 0.90085 0.0
C1870 C 0.35237 0.72287 0.8546 0.0
C1871 C 0.35701 0.70022 0.86248 0.0
H1872 H 0.02297 0.37481 0.35354 0.0
H1873 H 0.99055 0.37729 0.4204 0.0
H1874 H 0.95173 0.35882 0.40646 0.0
H1875 H 0.92814 0.33989 0.3759 0.0
H1876 H 0.96119 0.33571 0.3093 0.0
H1877 H 0.99873 0.35678 0.3226 0.0
C1878 C 0.00723 0.37167 0.36497 0.0
C1879 C 0.00955 0.37748 0.38794 0.0
C1880 C 0.98526 0.36042 0.35697 0.0
C1881 C 0.98918 0.373 0.40263 0.0
C1882 C 0.96703 0.36234 0.3947 0.0
C1883 C 0.9435 0.3436 0.36423 0.0
C1884 C 0.94185 0.33608 0.34165 0.0
C1885 C 0.96507 0.35558 0.372 0.0
C1886 C 0.96198 0.34113 0.32681 0.0
C1887 C 0.98344 0.35326 0.33438 0.0
H1888 H 0.6292 0.21364 0.65648 0.0
H1889 H 0.63398 0.25147 0.59359 0.0
H1890 H 0.62557 0.21519 0.5727 0.0
H1891 H 0.61288 0.17344 0.57258 0.0
H1892 H 0.60867 0.13589 0.63577 0.0
H1893 H 0.62113 0.17123 0.65611 0.0
C1894 C 0.62867 0.2139 0.63818 0.0
C1895 C 0.6319 0.23525 0.62663 0.0
C1896 C 0.62382 0.19302 0.62629 0.0
C1897 C 0.63149 0.23526 0.60291 0.0
C1898 C 0.62658 0.21453 0.59094 0.0
C1899 C 0.61505 0.17289 0.59076 0.0
C1900 C 0.60949 0.15205 0.60258 0.0
C1901 C 0.62213 0.1934 0.60249 0.0
C1902 C 0.61263 0.15166 0.62616 0.0
C1903 C 0.61969 0.17192 0.63788 0.0
H1904 H 0.42673 0.16057 0.62863 0.0
H1905 H 0.46062 0.15874 0.69489 0.0
H1906 H 0.49434 0.13332 0.68072 0.0
H1907 H 0.51499 0.1127 0.64933 0.0
H1908 H 0.48253 0.11629 0.58267 0.0
H1909 H 0.44714 0.13959 0.5973 0.0
C1910 C 0.44147 0.15462 0.64 0.0
C1911 C 0.44115 0.16165 0.66278 0.0
C1912 C 0.46092 0.14013 0.63172 0.0
C1913 C 0.46046 0.15376 0.67725 0.0
C1914 C 0.4797 0.13911 0.66919 0.0
C1915 C 0.49993 0.11824 0.63808 0.0
C1916 C 0.50121 0.11264 0.615 0.0
C1917 C 0.48016 0.13226 0.64646 0.0
C1918 C 0.48186 0.12031 0.60053 0.0
C1919 C 0.46172 0.13373 0.60886 0.0
H1920 H 0.38564 0.32254 0.58092 0.0
H1921 H 0.39153 0.35977 0.64428 0.0
H1922 H 0.38021 0.32418 0.66467 0.0
H1923 H 0.37272 0.28167 0.6649 0.0
H1924 H 0.36622 0.24417 0.60187 0.0
H1925 H 0.37346 0.28066 0.58105 0.0
C1926 C 0.38408 0.32297 0.59916 0.0
C1927 C 0.38979 0.3438 0.61099 0.0
C1928 C 0.37766 0.30231 0.61091 0.0
C1929 C 0.38744 0.34401 0.63466 0.0
C1930 C 0.38104 0.32361 0.6464 0.0
C1931 C 0.37261 0.28152 0.6466 0.0
C1932 C 0.36925 0.26021 0.63496 0.0
C1933 C 0.37678 0.30253 0.63476 0.0
C1934 C 0.36883 0.26035 0.61125 0.0
C1935 C 0.37307 0.2812 0.59932 0.0
H1936 H 0.48682 0.3822 0.65352 0.0
H1937 H 0.51539 0.38357 0.58531 0.0
H1938 H 0.55203 0.36006 0.59664 0.0
H1939 H 0.57434 0.33708 0.62539 0.0
H1940 H 0.54415 0.33377 0.6931 0.0
H1941 H 0.50956 0.35987 0.68242 0.0
C1942 C 0.50134 0.37773 0.64126 0.0
C1943 C 0.4986 0.38471 0.61869 0.0
C1944 C 0.52178 0.36351 0.6477 0.0
C1945 C 0.51723 0.37843 0.60282 0.0
C1946 C 0.53806 0.3649 0.60926 0.0
C1947 C 0.56023 0.34208 0.63783 0.0
C1948 C 0.56179 0.33336 0.65998 0.0
C1949 C 0.54024 0.35693 0.63155 0.0
C1950 C 0.54331 0.34004 0.67588 0.0
C1951 C 0.52358 0.35507 0.66983 0.0
H1952 H 0.92671 0.57842 0.81605 0.0
H1953 H 0.8583 0.56415 0.85392 0.0
H1954 H 0.83305 0.5679 0.81985 0.0
H1955 H 0.83007 0.57512 0.77954 0.0
H1956 H 0.89693 0.59344 0.74146 0.0
H1957 H 0.92326 0.58793 0.77527 0.0
C1958 C 0.90626 0.57632 0.81679 0.0
C1959 C 0.89441 0.57109 0.83749 0.0
C1960 C 0.89166 0.57891 0.79709 0.0
C1961 C 0.86789 0.56847 0.83828 0.0
C1962 C 0.85341 0.5704 0.81876 0.0
C1963 C 0.85048 0.57756 0.77857 0.0
C1964 C 0.86173 0.58411 0.75806 0.0
C1965 C 0.8651 0.57547 0.79812 0.0
C1966 C 0.88801 0.58804 0.7571 0.0
C1967 C 0.90297 0.58503 0.77641 0.0
H1968 H 0.89453 0.87581 0.4616 0.0
H1969 H 0.89859 0.81783 0.50829 0.0
H1970 H 0.88398 0.79085 0.47905 0.0
H1971 H 0.86378 0.78496 0.44204 0.0
H1972 H 0.86131 0.84252 0.3948 0.0
H1973 H 0.88204 0.86819 0.42216 0.0
C1974 C 0.89276 0.85718 0.46519 0.0
C1975 C 0.89722 0.84892 0.48716 0.0
C1976 C 0.88444 0.84167 0.44823 0.0
C1977 C 0.89519 0.82469 0.49153 0.0
C1978 C 0.88667 0.80923 0.47484 0.0
C1979 C 0.8684 0.80295 0.43754 0.0
C1980 C 0.86065 0.81189 0.41658 0.0
C1981 C 0.88031 0.81768 0.45339 0.0
C1982 C 0.86702 0.83517 0.41086 0.0
C1983 C 0.87869 0.84996 0.42658 0.0
H1984 H 0.14595 0.91139 0.77763 0.0
H1985 H 0.07801 0.88342 0.74736 0.0
H1986 H 0.05384 0.89305 0.78173 0.0
H1987 H 0.05264 0.9094 0.82073 0.0
H1988 H 0.12252 0.93345 0.85108 0.0
H1989 H 0.14543 0.92511 0.8164 0.0
C1990 C 0.12576 0.90767 0.77844 0.0
C1991 C 0.11356 0.89726 0.75992 0.0
C1992 C 0.11248 0.91227 0.79838 0.0
C1993 C 0.08764 0.89176 0.76139 0.0
C1994 C 0.07392 0.89716 0.78103 0.0
C1995 C 0.0729 0.91263 0.81972 0.0
C1996 C 0.08585 0.92201 0.83847 0.0
C1997 C 0.0862 0.90736 0.79971 0.0
C1998 C 0.11212 0.92602 0.83701 0.0
C1999 C 0.12525 0.92143 0.81712 0.0
H2000 H 0.10833 0.62217 0.45026 0.0
H2001 H 0.11781 0.67837 0.49842 0.0
H2002 H 0.13512 0.70377 0.46903 0.0
H2003 H 0.15364 0.70771 0.43095 0.0
H2004 H 0.14161 0.65239 0.38223 0.0
H2005 H 0.11879 0.62928 0.41027 0.0
C2006 C 0.11359 0.64017 0.45414 0.0
C2007 C 0.11213 0.64828 0.47648 0.0
C2008 C 0.12329 0.65483 0.43708 0.0
C2009 C 0.11874 0.67171 0.48131 0.0
C2010 C 0.12883 0.68623 0.46454 0.0
C2011 C 0.14541 0.6909 0.42633 0.0
C2012 C 0.14971 0.68165 0.40467 0.0
C2013 C 0.1321 0.67766 0.44254 0.0
C2014 C 0.13867 0.65993 0.39882 0.0
C2015 C 0.12576 0.64656 0.41491 0.0
H2016 H 0.83765 0.42662 0.72101 0.0
H2017 H 0.90288 0.40147 0.75739 0.0
H2018 H 0.92996 0.40934 0.7244 0.0
H2019 H 0.93448 0.42272 0.68462 0.0
H2020 H 0.86741 0.44387 0.64818 0.0
H2021 H 0.8416 0.43801 0.68171 0.0
C2022 C 0.85788 0.42317 0.72185 0.0
C2023 C 0.86842 0.41394 0.74166 0.0
C2024 C 0.87289 0.42672 0.70267 0.0
C2025 C 0.89447 0.40884 0.74232 0.0
C2026 C 0.90987 0.41324 0.72346 0.0
C2027 C 0.9142 0.4259 0.68409 0.0
C2028 C 0.90287 0.43361 0.66392 0.0
C2029 C 0.89922 0.42201 0.70344 0.0
C2030 C 0.87657 0.43762 0.66338 0.0
C2031 C 0.86178 0.43446 0.6826 0.0
H2032 H 0.59446 0.86243 0.54983 0.0
H2033 H 0.60077 0.80147 0.50686 0.0
H2034 H 0.61894 0.77894 0.53786 0.0
H2035 H 0.63959 0.77886 0.57513 0.0
H2036 H 0.63155 0.8393 0.61861 0.0
H2037 H 0.60703 0.85948 0.58972 0.0
C2038 C 0.59921 0.84404 0.54747 0.0
C2039 C 0.59671 0.83374 0.52605 0.0
C2040 C 0.60957 0.83114 0.5654 0.0
C2041 C 0.60259 0.80982 0.52321 0.0
C2042 C 0.61317 0.79695 0.54089 0.0
C2043 C 0.63187 0.79618 0.57848 0.0
C2044 C 0.63779 0.80773 0.59877 0.0
C2045 C 0.61774 0.80774 0.56177 0.0
C2046 C 0.62737 0.83005 0.60306 0.0
C2047 C 0.6135 0.84172 0.58647 0.0
H2048 H 0.07219 0.0778 0.6865 0.0
H2049 H 0.14234 0.06584 0.65052 0.0
H2050 H 0.16633 0.07165 0.68508 0.0
H2051 H 0.16767 0.07958 0.7254 0.0
H2052 H 0.09884 0.09544 0.7616 0.0
H2053 H 0.0739 0.08845 0.72716 0.0
C2054 C 0.09272 0.07665 0.68627 0.0
C2055 C 0.10544 0.0714 0.66596 0.0
C2056 C 0.10657 0.08042 0.70625 0.0
C2057 C 0.13208 0.07008 0.66584 0.0
C2058 C 0.14584 0.07321 0.68564 0.0
C2059 C 0.14716 0.08125 0.72581 0.0
C2060 C 0.13495 0.08746 0.74599 0.0
C2061 C 0.13329 0.0782 0.70592 0.0
C2062 C 0.10851 0.09035 0.74622 0.0
C2063 C 0.09434 0.08645 0.72656 0.0
H2064 H 0.4055 0.64349 0.52948 0.0
H2065 H 0.38631 0.69317 0.4774 0.0
H2066 H 0.37013 0.72055 0.50575 0.0
H2067 H 0.35541 0.72742 0.54469 0.0
H2068 H 0.3762 0.67829 0.59688 0.0
H2069 H 0.39837 0.65407 0.56929 0.0
C2070 C 0.39828 0.66054 0.52443 0.0
C2071 C 0.39668 0.66617 0.50142 0.0
C2072 C 0.38918 0.67627 0.54083 0.0
C2073 C 0.38766 0.68842 0.49504 0.0
C2074 C 0.37827 0.70404 0.51124 0.0
C2075 C 0.3654 0.71176 0.55012 0.0
C2076 C 0.36369 0.70447 0.57272 0.0
C2077 C 0.37805 0.69776 0.53411 0.0
C2078 C 0.37703 0.68429 0.57956 0.0
C2079 C 0.38956 0.67026 0.56374 0.0
H2080 H 0.8081 0.90738 0.58856 0.0
H2081 H 0.83811 0.84183 0.56323 0.0
H2082 H 0.80383 0.82032 0.58153 0.0
H2083 H 0.76592 0.81991 0.60462 0.0
H2084 H 0.73638 0.88434 0.63263 0.0
H2085 H 0.77005 0.90667 0.61338 0.0
C2086 C 0.80702 0.8884 0.58706 0.0
C2087 C 0.82553 0.87619 0.57451 0.0
C2088 C 0.78746 0.87603 0.59805 0.0
C2089 C 0.82417 0.85159 0.57288 0.0
C2090 C 0.80455 0.83929 0.58327 0.0
C2091 C 0.76664 0.83889 0.60642 0.0
C2092 C 0.74851 0.85054 0.61975 0.0
C2093 C 0.78617 0.85132 0.59585 0.0
C2094 C 0.7501 0.87504 0.62235 0.0
C2095 C 0.7693 0.88775 0.61135 0.0
H2096 H 0.80473 0.09838 0.9272 0.0
H2097 H 0.838 0.16349 0.95037 0.0
H2098 H 0.80364 0.18561 0.93301 0.0
H2099 H 0.76516 0.18661 0.91072 0.0
H2100 H 0.73276 0.12237 0.88467 0.0
H2101 H 0.76588 0.09956 0.90379 0.0
C2102 C 0.80431 0.1174 0.92848 0.0
C2103 C 0.82376 0.12935 0.94003 0.0
C2104 C 0.78479 0.13006 0.918 0.0
C2105 C 0.82328 0.15397 0.94143 0.0
C2106 C 0.80363 0.16661 0.93158 0.0
C2107 C 0.76512 0.16758 0.90936 0.0
C2108 C 0.74644 0.15612 0.89652 0.0
C2109 C 0.78442 0.15484 0.91977 0.0
C2110 C 0.74696 0.13153 0.89454 0.0
C2111 C 0.76586 0.11854 0.90544 0.0
H2112 H 0.30907 0.965 0.3335 0.0
H2113 H 0.3643 0.91018 0.34365 0.0
H2114 H 0.38652 0.93461 0.37121 0.0
H2115 H 0.39394 0.97385 0.38761 0.0
H2116 H 0.33801 0.02826 0.37824 0.0
H2117 H 0.31214 0.00156 0.35566 0.0
C2118 C 0.32563 0.95822 0.34216 0.0
C2119 C 0.33528 0.93601 0.33629 0.0
C2120 C 0.33832 0.97236 0.35801 0.0
C2121 C 0.35653 0.92726 0.34783 0.0
C2122 C 0.36937 0.94129 0.36349 0.0
C2123 C 0.37576 0.97965 0.38112 0.0
C2124 C 0.36812 0.00311 0.38429 0.0
C2125 C 0.361 0.96422 0.36802 0.0
C2126 C 0.34439 0.01031 0.37601 0.0
C2127 C 0.32966 0.9951 0.36291 0.0
H2128 H 0.22477 0.35351 0.86753 0.0
H2129 H 0.27726 0.36416 0.92217 0.0
H2130 H 0.24445 0.38475 0.94394 0.0
H2131 H 0.19937 0.3949 0.94915 0.0
H2132 H 0.1459 0.37895 0.89626 0.0
H2133 H 0.18033 0.3652 0.87202 0.0
C2134 C 0.22912 0.36107 0.8839 0.0
C2135 C 0.2533 0.35792 0.89318 0.0
C2136 C 0.20979 0.37141 0.89677 0.0
C2137 C 0.25875 0.3669 0.91469 0.0
C2138 C 0.23997 0.37839 0.92716 0.0
C2139 C 0.19539 0.38869 0.93221 0.0
C2140 C 0.17023 0.38776 0.92449 0.0
C2141 C 0.21518 0.38 0.91868 0.0
C2142 C 0.16516 0.37953 0.90261 0.0
C2143 C 0.18482 0.37177 0.88872 0.0
H2144 H 0.14909 0.98481 0.89326 0.0
H2145 H 0.08598 0.03242 0.90021 0.0
H2146 H 0.10969 0.06291 0.88009 0.0
H2147 H 0.14535 0.07353 0.85531 0.0
H2148 H 0.20615 0.02402 0.84476 0.0
H2149 H 0.18659 0.99689 0.8716 0.0
C2150 C 0.14086 0.00211 0.891 0.0
C2151 C 0.11585 0.00641 0.89823 0.0
C2152 C 0.15407 0.01908 0.87837 0.0
C2153 C 0.10522 0.02875 0.89482 0.0
C2154 C 0.11871 0.04611 0.88317 0.0
C2155 C 0.15462 0.05705 0.85931 0.0
C2156 C 0.17708 0.05072 0.84798 0.0
C2157 C 0.1427 0.04112 0.87405 0.0
C2158 C 0.18876 0.02921 0.85316 0.0
C2159 C 0.17755 0.01367 0.86847 0.0
H2160 H 0.66103 0.11929 0.09339 0.0
H2161 H 0.69348 0.12766 0.02709 0.0
H2162 H 0.73373 0.14035 0.04369 0.0
H2163 H 0.75793 0.15284 0.07692 0.0
H2164 H 0.7266 0.14274 0.14341 0.0
H2165 H 0.6879 0.12609 0.127 0.0
C2166 C 0.67704 0.1238 0.0827 0.0
C2167 C 0.67437 0.12312 0.05915 0.0
C2168 C 0.70028 0.13044 0.09237 0.0
C2169 C 0.69522 0.12835 0.04529 0.0
C2170 C 0.71817 0.13554 0.05475 0.0
C2171 C 0.74288 0.14634 0.08779 0.0
C2172 C 0.74491 0.14907 0.11125 0.0
C2173 C 0.72073 0.13708 0.07824 0.0
C2174 C 0.72547 0.14058 0.12528 0.0
C2175 C 0.70322 0.1314 0.11589 0.0
H2176 H 0.39639 0.01413 0.10843 0.0
H2177 H 0.3414 0.95822 0.1147 0.0
H2178 H 0.3144 0.98339 0.13786 0.0
H2179 H 0.30927 0.01944 0.1605 0.0
H2180 H 0.36308 0.07608 0.15282 0.0
H2181 H 0.38747 0.05265 0.12586 0.0
C2182 C 0.37822 0.00766 0.11446 0.0
C2183 C 0.37106 0.98426 0.1101 0.0
C2184 C 0.36269 0.02228 0.12772 0.0
C2185 C 0.34737 0.97617 0.11781 0.0
C2186 C 0.33198 0.9905 0.13121 0.0
C2187 C 0.32606 0.02679 0.15255 0.0
C2188 C 0.33457 0.04929 0.15883 0.0
C2189 C 0.33987 0.01329 0.13692 0.0
C2190 C 0.35615 0.05877 0.14825 0.0
C2191 C 0.37021 0.04533 0.13294 0.0
H2192 H 0.6509 0.4284 0.14835 0.0
H2193 H 0.70902 0.47923 0.16438 0.0
H2194 H 0.69427 0.50461 0.13392 0.0
H2195 H 0.66071 0.51516 0.10735 0.0
H2196 H 0.59924 0.46676 0.09497 0.0
H2197 H 0.61978 0.43728 0.11875 0.0
C2198 C 0.66067 0.44479 0.14483 0.0
C2199 C 0.68084 0.45207 0.15871 0.0
C2200 C 0.65141 0.45973 0.1279 0.0
C2201 C 0.69327 0.47339 0.15407 0.0
C2202 C 0.68485 0.4879 0.13665 0.0
C2203 C 0.65232 0.49783 0.10918 0.0
C2204 C 0.6286 0.49303 0.09939 0.0
C2205 C 0.66336 0.48165 0.12405 0.0
C2206 C 0.61759 0.47073 0.10228 0.0
C2207 C 0.62919 0.454 0.11607 0.0
loop_
_geom_bond_atom_site_label_1
_geom_bond_atom_site_label_2
_geom_bond_distance
_geom_bond_site_symmetry_2
_ccdc_geom_bond_type
O0 Cd1 2.223 . S
O0 C8 1.315 . S
Cd1 O0 2.223 . S
Cd1 O4 2.297 . S
Cd1 O5 2.439 . S
Cd1 O11 2.240 . S
Cd2 O3 2.240 . S
Cd2 O10 2.223 . S
Cd2 O12 2.297 . S
Cd2 O13 2.439 . S
O3 Cd2 2.240 . S
O3 C8 1.279 . S
O4 Cd1 2.297 . S
O4 C6 1.247 . S
O5 Cd1 2.439 . S
O5 C6 1.208 . S
C6 O4 1.247 . S
C6 O5 1.208 . S
C7 O12 1.247 . S
C7 O13 1.208 . S
C8 O0 1.315 . S
C8 O3 1.279 . S
C9 O10 1.315 . S
C9 O11 1.279 . S
O10 Cd2 2.223 . S
O10 C9 1.315 . S
O11 Cd1 2.240 . S
O11 C9 1.279 . S
O12 Cd2 2.297 . S
O12 C7 1.247 . S
O13 Cd2 2.439 . S
O13 C7 1.208 . S
O14 Cd15 2.223 . S
O14 C22 1.315 . S
Cd15 O14 2.223 . S
Cd15 O18 2.297 . S
Cd15 O19 2.439 . S
Cd15 O25 2.240 . S
Cd16 O17 2.240 . S
Cd16 O24 2.223 . S
Cd16 O26 2.297 . S
Cd16 O27 2.439 . S
O17 Cd16 2.240 . S
O17 C22 1.279 . S
O18 Cd15 2.297 . S
O18 C20 1.247 . S
O19 Cd15 2.439 . S
O19 C20 1.208 . S
C20 O18 1.247 . S
C20 O19 1.208 . S
C21 O26 1.247 . S
C21 O27 1.208 . S
C22 O14 1.315 . S
C22 O17 1.279 . S
C23 O24 1.315 . S
C23 O25 1.279 . S
O24 Cd16 2.223 . S
O24 C23 1.315 . S
O25 Cd15 2.240 . S
O25 C23 1.279 . S
O26 Cd16 2.297 . S
O26 C21 1.247 . S
O27 Cd16 2.439 . S
O27 C21 1.208 . S
O28 Cd29 2.223 . S
O28 C36 1.315 . S
Cd29 O28 2.223 . S
Cd29 O32 2.297 . S
Cd29 O33 2.439 . S
Cd29 O39 2.240 . S
Cd30 O31 2.240 . S
Cd30 O38 2.223 . S
Cd30 O40 2.297 . S
Cd30 O41 2.439 . S
O31 Cd30 2.240 . S
O31 C36 1.279 . S
O32 Cd29 2.297 . S
O32 C34 1.247 . S
O33 Cd29 2.439 . S
O33 C34 1.208 . S
C34 O32 1.247 . S
C34 O33 1.208 . S
C35 O40 1.247 . S
C35 O41 1.208 . S
C36 O28 1.315 . S
C36 O31 1.279 . S
C37 O38 1.315 . S
C37 O39 1.279 . S
O38 Cd30 2.223 . S
O38 C37 1.315 . S
O39 Cd29 2.240 . S
O39 C37 1.279 . S
O40 Cd30 2.297 . S
O40 C35 1.247 . S
O41 Cd30 2.439 . S
O41 C35 1.208 . S
O42 Cd43 2.223 . S
O42 C50 1.315 . S
Cd43 O42 2.223 . S
Cd43 O46 2.297 . S
Cd43 O47 2.439 . S
Cd43 O53 2.240 . S
Cd44 O45 2.240 . S
Cd44 O52 2.223 . S
Cd44 O54 2.297 . S
Cd44 O55 2.439 . S
O45 Cd44 2.240 . S
O45 C50 1.279 . S
O46 Cd43 2.297 . S
O46 C48 1.247 . S
O47 Cd43 2.439 . S
O47 C48 1.208 . S
C48 O46 1.247 . S
C48 O47 1.208 . S
C49 O54 1.247 . S
C49 O55 1.208 . S
C50 O42 1.315 . S
C50 O45 1.279 . S
C51 O52 1.315 . S
C51 O53 1.279 . S
O52 Cd44 2.223 . S
O52 C51 1.315 . S
O53 Cd43 2.240 . S
O53 C51 1.279 . S
O54 Cd44 2.297 . S
O54 C49 1.247 . S
O55 Cd44 2.439 . S
O55 C49 1.208 . S
O56 Cd57 2.223 . S
O56 C64 1.315 . S
Cd57 O56 2.223 . S
Cd57 O60 2.297 . S
Cd57 O61 2.439 . S
Cd57 O67 2.240 . S
Cd58 O59 2.240 . S
Cd58 O66 2.223 . S
Cd58 O68 2.297 . S
Cd58 O69 2.439 . S
O59 Cd58 2.240 . S
O59 C64 1.279 . S
O60 Cd57 2.297 . S
O60 C62 1.247 . S
O61 Cd57 2.439 . S
O61 C62 1.208 . S
C62 O60 1.247 . S
C62 O61 1.208 . S
C63 O68 1.247 . S
C63 O69 1.208 . S
C64 O56 1.315 . S
C64 O59 1.279 . S
C65 O66 1.315 . S
C65 O67 1.279 . S
O66 Cd58 2.223 . S
O66 C65 1.315 . S
O67 Cd57 2.240 . S
O67 C65 1.279 . S
O68 Cd58 2.297 . S
O68 C63 1.247 . S
O69 Cd58 2.439 . S
O69 C63 1.208 . S
O70 Cd71 2.223 1_455 S
O70 C78 1.315 . S
Cd71 O70 2.223 1_655 S
Cd71 O74 2.297 . S
Cd71 O75 2.439 . S
Cd71 O81 2.240 1_655 S
Cd72 O73 2.240 . S
Cd72 O80 2.223 . S
Cd72 O82 2.281 1_455 S
Cd72 O83 2.439 1_455 S
O73 Cd72 2.240 . S
O73 C78 1.279 . S
O74 Cd71 2.297 . S
O74 C76 1.247 . S
O75 Cd71 2.439 . S
O75 C76 1.208 . S
C76 O74 1.247 . S
C76 O75 1.208 . S
C77 O82 1.288 . S
C77 O83 1.208 . S
C78 O70 1.315 . S
C78 O73 1.279 . S
C79 O80 1.315 . S
C79 O81 1.279 . S
O80 Cd72 2.223 . S
O80 C79 1.315 . S
O81 Cd71 2.240 1_455 S
O81 C79 1.279 . S
O82 Cd72 2.281 1_655 S
O82 C77 1.288 . S
O83 Cd72 2.439 1_655 S
O83 C77 1.208 . S
O84 Cd85 2.223 . S
O84 C92 1.315 . S
Cd85 O84 2.223 . S
Cd85 O88 2.297 . S
Cd85 O89 2.439 . S
Cd85 O95 2.240 . S
Cd86 O87 2.240 . S
Cd86 O94 2.223 . S
Cd86 O96 2.297 . S
Cd86 O97 2.439 . S
O87 Cd86 2.240 . S
O87 C92 1.279 . S
O88 Cd85 2.297 . S
O88 C90 1.247 . S
O89 Cd85 2.439 . S
O89 C90 1.208 . S
C90 O88 1.247 . S
C90 O89 1.208 . S
C91 O96 1.247 . S
C91 O97 1.208 . S
C92 O84 1.315 . S
C92 O87 1.279 . S
C93 O94 1.315 . S
C93 O95 1.279 . S
O94 Cd86 2.223 . S
O94 C93 1.315 . S
O95 Cd85 2.240 . S
O95 C93 1.279 . S
O96 Cd86 2.297 . S
O96 C91 1.247 . S
O97 Cd86 2.439 . S
O97 C91 1.208 . S
O98 Cd99 2.223 1_655 S
O98 C106 1.315 . S
Cd99 O98 2.223 1_455 S
Cd99 O102 2.297 . S
Cd99 O103 2.439 . S
Cd99 O109 2.240 1_455 S
Cd100 O101 2.240 . S
Cd100 O108 2.223 . S
Cd100 O110 2.297 1_655 S
Cd100 O111 2.439 1_655 S
O101 Cd100 2.240 . S
O101 C106 1.279 . S
O102 Cd99 2.297 . S
O102 C104 1.247 . S
O103 Cd99 2.439 . S
O103 C104 1.208 . S
C104 O102 1.247 . S
C104 O103 1.208 . S
C105 O110 1.247 . S
C105 O111 1.208 . S
C106 O98 1.315 . S
C106 O101 1.279 . S
C107 O108 1.315 . S
C107 O109 1.279 . S
O108 Cd100 2.223 . S
O108 C107 1.315 . S
O109 Cd99 2.240 1_655 S
O109 C107 1.279 . S
O110 Cd100 2.297 1_455 S
O110 C105 1.247 . S
O111 Cd100 2.439 1_455 S
O111 C105 1.208 . S
O112 Cd113 2.223 . S
O112 C120 1.315 . S
Cd113 O112 2.223 . S
Cd113 O116 2.297 . S
Cd113 O117 2.439 . S
Cd113 O123 2.240 . S
Cd114 O115 2.240 . S
Cd114 O122 2.223 . S
Cd114 O124 2.297 . S
Cd114 O125 2.439 . S
O115 Cd114 2.240 . S
O115 C120 1.279 . S
O116 Cd113 2.297 . S
O116 C118 1.247 . S
O117 Cd113 2.439 . S
O117 C118 1.208 . S
C118 O116 1.247 . S
C118 O117 1.208 . S
C119 O124 1.247 . S
C119 O125 1.208 . S
C120 O112 1.315 . S
C120 O115 1.279 . S
C121 O122 1.315 . S
C121 O123 1.279 . S
O122 Cd114 2.223 . S
O122 C121 1.315 . S
O123 Cd113 2.240 . S
O123 C121 1.279 . S
O124 Cd114 2.297 . S
O124 C119 1.247 . S
O125 Cd114 2.439 . S
O125 C119 1.208 . S
O126 Cd127 2.223 1_554 S
O126 C134 1.315 . S
Cd127 O126 2.223 1_556 S
Cd127 O130 2.297 . S
Cd127 O131 2.439 . S
Cd127 O137 2.240 1_556 S
Cd128 O129 2.240 . S
Cd128 O136 2.223 . S
Cd128 O138 2.308 . S
Cd128 O139 2.439 1_554 S
O129 Cd128 2.240 . S
O129 C134 1.279 . S
O130 Cd127 2.297 . S
O130 C132 1.247 . S
O131 Cd127 2.439 . S
O131 C132 1.208 . S
C132 O130 1.247 . S
C132 O131 1.208 . S
C133 O138 1.220 1_556 S
C133 O139 1.208 . S
C134 O126 1.315 . S
C134 O129 1.279 . S
C135 O136 1.315 . S
C135 O137 1.279 . S
O136 Cd128 2.223 . S
O136 C135 1.315 . S
O137 Cd127 2.240 1_554 S
O137 C135 1.279 . S
O138 Cd128 2.308 . S
O138 C133 1.220 1_554 S
O139 Cd128 2.439 1_556 S
O139 C133 1.208 . S
O140 Cd141 2.223 . S
O140 C148 1.315 . S
Cd141 O140 2.223 . S
Cd141 O144 2.297 . S
Cd141 O145 2.439 . S
Cd141 O151 2.240 . S
Cd142 O143 2.240 . S
Cd142 O150 2.223 . S
Cd142 O152 2.297 . S
Cd142 O153 2.439 . S
O143 Cd142 2.240 . S
O143 C148 1.279 . S
O144 Cd141 2.297 . S
O144 C146 1.247 . S
O145 Cd141 2.439 . S
O145 C146 1.208 . S
C146 O144 1.247 . S
C146 O145 1.208 . S
C147 O152 1.247 . S
C147 O153 1.208 . S
C148 O140 1.315 . S
C148 O143 1.279 . S
C149 O150 1.315 . S
C149 O151 1.279 . S
O150 Cd142 2.223 . S
O150 C149 1.315 . S
O151 Cd141 2.240 . S
O151 C149 1.279 . S
O152 Cd142 2.297 . S
O152 C147 1.247 . S
O153 Cd142 2.439 . S
O153 C147 1.208 . S
O154 Cd155 2.223 1_554 S
O154 C162 1.315 . S
Cd155 O154 2.223 1_556 S
Cd155 O158 2.297 . S
Cd155 O159 2.439 . S
Cd155 O165 2.240 1_556 S
Cd156 O157 2.240 . S
Cd156 O164 2.223 . S
Cd156 O166 2.307 . S
Cd156 O167 2.439 1_554 S
O157 Cd156 2.240 . S
O157 C162 1.279 . S
O158 Cd155 2.297 . S
O158 C160 1.247 . S
O159 Cd155 2.439 . S
O159 C160 1.208 . S
C160 O158 1.247 . S
C160 O159 1.208 . S
C161 O166 1.224 1_556 S
C161 O167 1.208 . S
C162 O154 1.315 . S
C162 O157 1.279 . S
C163 O164 1.315 . S
C163 O165 1.279 . S
O164 Cd156 2.223 . S
O164 C163 1.315 . S
O165 Cd155 2.240 1_554 S
O165 C163 1.279 . S
O166 Cd156 2.307 . S
O166 C161 1.224 1_554 S
O167 Cd156 2.439 1_556 S
O167 C161 1.208 . S
O168 Cd169 2.223 . S
O168 C176 1.315 . S
Cd169 O168 2.223 . S
Cd169 O172 2.297 . S
Cd169 O173 2.439 . S
Cd169 O179 2.240 . S
Cd170 O171 2.240 . S
Cd170 O178 2.223 . S
Cd170 O180 2.297 . S
Cd170 O181 2.439 . S
O171 Cd170 2.240 . S
O171 C176 1.279 . S
O172 Cd169 2.297 . S
O172 C174 1.247 . S
O173 Cd169 2.439 . S
O173 C174 1.208 . S
C174 O172 1.247 . S
C174 O173 1.208 . S
C175 O180 1.247 . S
C175 O181 1.208 . S
C176 O168 1.315 . S
C176 O171 1.279 . S
C177 O178 1.315 . S
C177 O179 1.279 . S
O178 Cd170 2.223 . S
O178 C177 1.315 . S
O179 Cd169 2.240 . S
O179 C177 1.279 . S
O180 Cd170 2.297 . S
O180 C175 1.247 . S
O181 Cd170 2.439 . S
O181 C175 1.208 . S
O182 Cd183 2.223 1_556 S
O182 C190 1.315 . S
Cd183 O182 2.223 1_554 S
Cd183 O186 2.297 . S
Cd183 O187 2.439 . S
Cd183 O193 2.240 1_554 S
Cd184 O185 2.240 . S
Cd184 O192 2.223 . S
Cd184 O194 2.297 . S
Cd184 O195 2.439 1_556 S
O185 Cd184 2.240 . S
O185 C190 1.279 . S
O186 Cd183 2.297 . S
O186 C188 1.247 . S
O187 Cd183 2.439 . S
O187 C188 1.208 . S
C188 O186 1.247 . S
C188 O187 1.208 . S
C189 O194 1.247 1_554 S
C189 O195 1.208 . S
C190 O182 1.315 . S
C190 O185 1.279 . S
C191 O192 1.315 . S
C191 O193 1.279 . S
O192 Cd184 2.223 . S
O192 C191 1.315 . S
O193 Cd183 2.240 1_556 S
O193 C191 1.279 . S
O194 Cd184 2.297 . S
O194 C189 1.247 1_556 S
O195 Cd184 2.439 1_554 S
O195 C189 1.208 . S
O196 Cd197 2.223 . S
O196 C204 1.315 . S
Cd197 O196 2.223 . S
Cd197 O200 2.297 . S
Cd197 O201 2.439 . S
Cd197 O207 2.240 . S
Cd198 O199 2.240 . S
Cd198 O206 2.223 . S
Cd198 O208 2.297 . S
Cd198 O209 2.439 . S
O199 Cd198 2.240 . S
O199 C204 1.279 . S
O200 Cd197 2.297 . S
O200 C202 1.247 . S
O201 Cd197 2.439 . S
O201 C202 1.208 . S
C202 O200 1.247 . S
C202 O201 1.208 . S
C203 O208 1.247 . S
C203 O209 1.208 . S
C204 O196 1.315 . S
C204 O199 1.279 . S
C205 O206 1.315 . S
C205 O207 1.279 . S
O206 Cd198 2.223 . S
O206 C205 1.315 . S
O207 Cd197 2.240 . S
O207 C205 1.279 . S
O208 Cd198 2.297 . S
O208 C203 1.247 . S
O209 Cd198 2.439 . S
O209 C203 1.208 . S
O210 Cd211 2.223 1_556 S
O210 C218 1.315 . S
Cd211 O210 2.223 1_554 S
Cd211 O214 2.297 . S
Cd211 O215 2.439 . S
Cd211 O221 2.240 1_554 S
Cd212 O213 2.240 . S
Cd212 O220 2.223 . S
Cd212 O222 2.297 . S
Cd212 O223 2.439 1_556 S
O213 Cd212 2.240 . S
O213 C218 1.279 . S
O214 Cd211 2.297 . S
O214 C216 1.247 . S
O215 Cd211 2.439 . S
O215 C216 1.208 . S
C216 O214 1.247 . S
C216 O215 1.208 . S
C217 O222 1.247 1_554 S
C217 O223 1.208 . S
C218 O210 1.315 . S
C218 O213 1.279 . S
C219 O220 1.315 . S
C219 O221 1.279 . S
O220 Cd212 2.223 . S
O220 C219 1.315 . S
O221 Cd211 2.240 1_556 S
O221 C219 1.279 . S
O222 Cd212 2.297 . S
O222 C217 1.247 1_556 S
O223 Cd212 2.439 1_554 S
O223 C217 1.208 . S
O224 Cd225 2.223 . S
O224 C232 1.315 . S
Cd225 O224 2.223 . S
Cd225 O228 2.297 . S
Cd225 O229 2.439 . S
Cd225 O235 2.240 . S
Cd226 O227 2.240 . S
Cd226 O234 2.223 . S
Cd226 O236 2.297 . S
Cd226 O237 2.439 . S
O227 Cd226 2.240 . S
O227 C232 1.279 . S
O228 Cd225 2.297 . S
O228 C230 1.247 . S
O229 Cd225 2.439 . S
O229 C230 1.208 . S
C230 O228 1.247 . S
C230 O229 1.208 . S
C231 O236 1.247 . S
C231 O237 1.208 . S
C232 O224 1.315 . S
C232 O227 1.279 . S
C233 O234 1.315 . S
C233 O235 1.279 . S
O234 Cd226 2.223 . S
O234 C233 1.315 . S
O235 Cd225 2.240 . S
O235 C233 1.279 . S
O236 Cd226 2.297 . S
O236 C231 1.247 . S
O237 Cd226 2.439 . S
O237 C231 1.208 . S
O238 Cd239 2.223 . S
O238 C246 1.315 . S
Cd239 O238 2.223 . S
Cd239 O242 2.297 . S
Cd239 O243 2.439 . S
Cd239 O249 2.240 . S
Cd240 O241 2.240 . S
Cd240 O248 2.223 . S
Cd240 O250 2.297 . S
Cd240 O251 2.439 . S
O241 Cd240 2.240 . S
O241 C246 1.279 . S
O242 Cd239 2.297 . S
O242 C244 1.247 . S
O243 Cd239 2.439 . S
O243 C244 1.208 . S
C244 O242 1.247 . S
C244 O243 1.208 . S
C245 O250 1.247 . S
C245 O251 1.208 . S
C246 O238 1.315 . S
C246 O241 1.279 . S
C247 O248 1.315 . S
C247 O249 1.279 . S
O248 Cd240 2.223 . S
O248 C247 1.315 . S
O249 Cd239 2.240 . S
O249 C247 1.279 . S
O250 Cd240 2.297 . S
O250 C245 1.247 . S
O251 Cd240 2.439 . S
O251 C245 1.208 . S
O252 Cd253 2.223 . S
O252 C260 1.315 . S
Cd253 O252 2.223 . S
Cd253 O256 2.297 . S
Cd253 O257 2.439 . S
Cd253 O263 2.240 . S
Cd254 O255 2.240 . S
Cd254 O262 2.223 . S
Cd254 O264 2.297 . S
Cd254 O265 2.439 . S
O255 Cd254 2.240 . S
O255 C260 1.279 . S
O256 Cd253 2.297 . S
O256 C258 1.247 . S
O257 Cd253 2.439 . S
O257 C258 1.208 . S
C258 O256 1.247 . S
C258 O257 1.208 . S
C259 O264 1.247 . S
C259 O265 1.208 . S
C260 O252 1.315 . S
C260 O255 1.279 . S
C261 O262 1.315 . S
C261 O263 1.279 . S
O262 Cd254 2.223 . S
O262 C261 1.315 . S
O263 Cd253 2.240 . S
O263 C261 1.279 . S
O264 Cd254 2.297 . S
O264 C259 1.247 . S
O265 Cd254 2.439 . S
O265 C259 1.208 . S
O266 Cd267 2.223 . S
O266 C274 1.315 . S
Cd267 O266 2.223 . S
Cd267 O270 2.297 . S
Cd267 O271 2.439 . S
Cd267 O277 2.240 . S
Cd268 O269 2.240 . S
Cd268 O276 2.223 . S
Cd268 O278 2.297 . S
Cd268 O279 2.439 . S
O269 Cd268 2.240 . S
O269 C274 1.279 . S
O270 Cd267 2.297 . S
O270 C272 1.247 . S
O271 Cd267 2.439 . S
O271 C272 1.208 . S
C272 O270 1.247 . S
C272 O271 1.208 . S
C273 O278 1.247 . S
C273 O279 1.208 . S
C274 O266 1.315 . S
C274 O269 1.279 . S
C275 O276 1.315 . S
C275 O277 1.279 . S
O276 Cd268 2.223 . S
O276 C275 1.315 . S
O277 Cd267 2.240 . S
O277 C275 1.279 . S
O278 Cd268 2.297 . S
O278 C273 1.247 . S
O279 Cd268 2.439 . S
O279 C273 1.208 . S
O280 Cd281 2.223 . S
O280 C288 1.315 . S
Cd281 O280 2.223 . S
Cd281 O284 2.297 . S
Cd281 O285 2.439 . S
Cd281 O291 2.240 . S
Cd282 O283 2.240 . S
Cd282 O290 2.223 . S
Cd282 O292 2.297 . S
Cd282 O293 2.439 . S
O283 Cd282 2.240 . S
O283 C288 1.279 . S
O284 Cd281 2.297 . S
O284 C286 1.247 . S
O285 Cd281 2.439 . S
O285 C286 1.208 . S
C286 O284 1.247 . S
C286 O285 1.208 . S
C287 O292 1.247 . S
C287 O293 1.208 . S
C288 O280 1.315 . S
C288 O283 1.279 . S
C289 O290 1.315 . S
C289 O291 1.279 . S
O290 Cd282 2.223 . S
O290 C289 1.315 . S
O291 Cd281 2.240 . S
O291 C289 1.279 . S
O292 Cd282 2.297 . S
O292 C287 1.247 . S
O293 Cd282 2.439 . S
O293 C287 1.208 . S
O294 Cd295 2.223 . S
O294 C302 1.315 . S
Cd295 O294 2.223 . S
Cd295 O298 2.297 . S
Cd295 O299 2.439 . S
Cd295 O305 2.240 . S
Cd296 O297 2.240 . S
Cd296 O304 2.223 . S
Cd296 O306 2.297 . S
Cd296 O307 2.439 . S
O297 Cd296 2.240 . S
O297 C302 1.279 . S
O298 Cd295 2.297 . S
O298 C300 1.247 . S
O299 Cd295 2.439 . S
O299 C300 1.208 . S
C300 O298 1.247 . S
C300 O299 1.208 . S
C301 O306 1.247 . S
C301 O307 1.208 . S
C302 O294 1.315 . S
C302 O297 1.279 . S
C303 O304 1.315 . S
C303 O305 1.279 . S
O304 Cd296 2.223 . S
O304 C303 1.315 . S
O305 Cd295 2.240 . S
O305 C303 1.279 . S
O306 Cd296 2.297 . S
O306 C301 1.247 . S
O307 Cd296 2.439 . S
O307 C301 1.208 . S
O308 Cd309 2.223 . S
O308 C316 1.315 . S
Cd309 O308 2.223 . S
Cd309 O312 2.297 . S
Cd309 O313 2.439 . S
Cd309 O319 2.240 . S
Cd310 O311 2.240 . S
Cd310 O318 2.223 . S
Cd310 O320 2.297 . S
Cd310 O321 2.439 . S
O311 Cd310 2.240 . S
O311 C316 1.279 . S
O312 Cd309 2.297 . S
O312 C314 1.247 . S
O313 Cd309 2.439 . S
O313 C314 1.208 . S
C314 O312 1.247 . S
C314 O313 1.208 . S
C315 O320 1.247 . S
C315 O321 1.208 . S
C316 O308 1.315 . S
C316 O311 1.279 . S
C317 O318 1.315 . S
C317 O319 1.279 . S
O318 Cd310 2.223 . S
O318 C317 1.315 . S
O319 Cd309 2.240 . S
O319 C317 1.279 . S
O320 Cd310 2.297 . S
O320 C315 1.247 . S
O321 Cd310 2.439 . S
O321 C315 1.208 . S
O322 Cd323 2.223 1_545 S
O322 C330 1.315 . S
Cd323 O322 2.223 1_565 S
Cd323 O326 2.297 . S
Cd323 O327 2.439 . S
Cd323 O333 2.240 1_565 S
Cd324 O325 2.240 . S
Cd324 O332 2.223 . S
Cd324 O334 2.297 1_545 S
Cd324 O335 2.439 1_545 S
O325 Cd324 2.240 . S
O325 C330 1.279 . S
O326 Cd323 2.297 . S
O326 C328 1.247 . S
O327 Cd323 2.439 . S
O327 C328 1.208 . S
C328 O326 1.247 . S
C328 O327 1.208 . S
C329 O334 1.247 . S
C329 O335 1.208 . S
C330 O322 1.315 . S
C330 O325 1.279 . S
C331 O332 1.315 . S
C331 O333 1.279 . S
O332 Cd324 2.223 . S
O332 C331 1.315 . S
O333 Cd323 2.240 1_545 S
O333 C331 1.279 . S
O334 Cd324 2.297 1_565 S
O334 C329 1.247 . S
O335 Cd324 2.439 1_565 S
O335 C329 1.208 . S
O336 Cd337 2.223 . S
O336 C344 1.315 . S
Cd337 O336 2.223 . S
Cd337 O340 2.297 . S
Cd337 O341 2.439 . S
Cd337 O347 2.240 . S
Cd338 O339 2.240 . S
Cd338 O346 2.223 . S
Cd338 O348 2.297 . S
Cd338 O349 2.439 . S
O339 Cd338 2.240 . S
O339 C344 1.279 . S
O340 Cd337 2.297 . S
O340 C342 1.247 . S
O341 Cd337 2.439 . S
O341 C342 1.208 . S
C342 O340 1.247 . S
C342 O341 1.208 . S
C343 O348 1.247 . S
C343 O349 1.208 . S
C344 O336 1.315 . S
C344 O339 1.279 . S
C345 O346 1.315 . S
C345 O347 1.279 . S
O346 Cd338 2.223 . S
O346 C345 1.315 . S
O347 Cd337 2.240 . S
O347 C345 1.279 . S
O348 Cd338 2.297 . S
O348 C343 1.247 . S
O349 Cd338 2.439 . S
O349 C343 1.208 . S
O350 Cd351 2.223 1_655 S
O350 C358 1.315 . S
Cd351 O350 2.223 1_455 S
Cd351 O354 2.297 . S
Cd351 O355 2.439 . S
Cd351 O361 2.240 1_455 S
Cd352 O353 2.240 . S
Cd352 O360 2.223 . S
Cd352 O362 2.279 1_655 S
Cd352 O363 2.439 1_655 S
O353 Cd352 2.240 . S
O353 C358 1.279 . S
O354 Cd351 2.297 . S
O354 C356 1.247 . S
O355 Cd351 2.439 . S
O355 C356 1.208 . S
C356 O354 1.247 . S
C356 O355 1.208 . S
C357 O362 1.291 . S
C357 O363 1.208 . S
C358 O350 1.315 . S
C358 O353 1.279 . S
C359 O360 1.315 . S
C359 O361 1.279 . S
O360 Cd352 2.223 . S
O360 C359 1.315 . S
O361 Cd351 2.240 1_655 S
O361 C359 1.279 . S
O362 Cd352 2.279 1_455 S
O362 C357 1.291 . S
O363 Cd352 2.439 1_455 S
O363 C357 1.208 . S
O364 Cd365 2.223 . S
O364 C372 1.315 . S
Cd365 O364 2.223 . S
Cd365 O368 2.297 . S
Cd365 O369 2.439 . S
Cd365 O375 2.240 . S
Cd366 O367 2.240 . S
Cd366 O374 2.223 . S
Cd366 O376 2.297 . S
Cd366 O377 2.439 . S
O367 Cd366 2.240 . S
O367 C372 1.279 . S
O368 Cd365 2.297 . S
O368 C370 1.247 . S
O369 Cd365 2.439 . S
O369 C370 1.208 . S
C370 O368 1.247 . S
C370 O369 1.208 . S
C371 O376 1.247 . S
C371 O377 1.208 . S
C372 O364 1.315 . S
C372 O367 1.279 . S
C373 O374 1.315 . S
C373 O375 1.279 . S
O374 Cd366 2.223 . S
O374 C373 1.315 . S
O375 Cd365 2.240 . S
O375 C373 1.279 . S
O376 Cd366 2.297 . S
O376 C371 1.247 . S
O377 Cd366 2.439 . S
O377 C371 1.208 . S
O378 Cd379 2.223 1_455 S
O378 C386 1.315 . S
Cd379 O378 2.223 1_655 S
Cd379 O382 2.297 . S
Cd379 O383 2.439 . S
Cd379 O389 2.240 1_655 S
Cd380 O381 2.240 . S
Cd380 O388 2.223 . S
Cd380 O390 2.280 1_455 S
Cd380 O391 2.439 1_455 S
O381 Cd380 2.240 . S
O381 C386 1.279 . S
O382 Cd379 2.297 . S
O382 C384 1.247 . S
O383 Cd379 2.439 . S
O383 C384 1.208 . S
C384 O382 1.247 . S
C384 O383 1.208 . S
C385 O390 1.289 . S
C385 O391 1.208 . S
C386 O378 1.315 . S
C386 O381 1.279 . S
C387 O388 1.315 . S
C387 O389 1.279 . S
O388 Cd380 2.223 . S
O388 C387 1.315 . S
O389 Cd379 2.240 1_455 S
O389 C387 1.279 . S
O390 Cd380 2.280 1_655 S
O390 C385 1.289 . S
O391 Cd380 2.439 1_655 S
O391 C385 1.208 . S
O392 Cd393 2.223 . S
O392 C400 1.315 . S
Cd393 O392 2.223 . S
Cd393 O396 2.297 . S
Cd393 O397 2.439 . S
Cd393 O403 2.240 . S
Cd394 O395 2.240 . S
Cd394 O402 2.223 . S
Cd394 O404 2.297 . S
Cd394 O405 2.439 . S
O395 Cd394 2.240 . S
O395 C400 1.279 . S
O396 Cd393 2.297 . S
O396 C398 1.247 . S
O397 Cd393 2.439 . S
O397 C398 1.208 . S
C398 O396 1.247 . S
C398 O397 1.208 . S
C399 O404 1.247 . S
C399 O405 1.208 . S
C400 O392 1.315 . S
C400 O395 1.279 . S
C401 O402 1.315 . S
C401 O403 1.279 . S
O402 Cd394 2.223 . S
O402 C401 1.315 . S
O403 Cd393 2.240 . S
O403 C401 1.279 . S
O404 Cd394 2.297 . S
O404 C399 1.247 . S
O405 Cd394 2.439 . S
O405 C399 1.208 . S
O406 Cd407 2.223 . S
O406 C414 1.315 . S
Cd407 O406 2.223 . S
Cd407 O410 2.297 . S
Cd407 O411 2.439 . S
Cd407 O417 2.240 . S
Cd408 O409 2.240 . S
Cd408 O416 2.223 . S
Cd408 O418 2.297 . S
Cd408 O419 2.439 . S
O409 Cd408 2.240 . S
O409 C414 1.279 . S
O410 Cd407 2.297 . S
O410 C412 1.247 . S
O411 Cd407 2.439 . S
O411 C412 1.208 . S
C412 O410 1.247 . S
C412 O411 1.208 . S
C413 O418 1.247 . S
C413 O419 1.208 . S
C414 O406 1.315 . S
C414 O409 1.279 . S
C415 O416 1.315 . S
C415 O417 1.279 . S
O416 Cd408 2.223 . S
O416 C415 1.315 . S
O417 Cd407 2.240 . S
O417 C415 1.279 . S
O418 Cd408 2.297 . S
O418 C413 1.247 . S
O419 Cd408 2.439 . S
O419 C413 1.208 . S
O420 Cd421 2.223 . S
O420 C428 1.315 . S
Cd421 O420 2.223 . S
Cd421 O424 2.297 . S
Cd421 O425 2.439 . S
Cd421 O431 2.240 . S
Cd422 O423 2.240 . S
Cd422 O430 2.223 . S
Cd422 O432 2.297 . S
Cd422 O433 2.439 . S
O423 Cd422 2.240 . S
O423 C428 1.279 . S
O424 Cd421 2.297 . S
O424 C426 1.247 . S
O425 Cd421 2.439 . S
O425 C426 1.208 . S
C426 O424 1.247 . S
C426 O425 1.208 . S
C427 O432 1.247 . S
C427 O433 1.208 . S
C428 O420 1.315 . S
C428 O423 1.279 . S
C429 O430 1.315 . S
C429 O431 1.279 . S
O430 Cd422 2.223 . S
O430 C429 1.315 . S
O431 Cd421 2.240 . S
O431 C429 1.279 . S
O432 Cd422 2.297 . S
O432 C427 1.247 . S
O433 Cd422 2.439 . S
O433 C427 1.208 . S
O434 Cd435 2.223 . S
O434 C442 1.315 . S
Cd435 O434 2.223 . S
Cd435 O438 2.297 . S
Cd435 O439 2.439 . S
Cd435 O445 2.240 . S
Cd436 O437 2.240 . S
Cd436 O444 2.223 . S
Cd436 O446 2.297 . S
Cd436 O447 2.439 . S
O437 Cd436 2.240 . S
O437 C442 1.279 . S
O438 Cd435 2.297 . S
O438 C440 1.247 . S
O439 Cd435 2.439 . S
O439 C440 1.208 . S
C440 O438 1.247 . S
C440 O439 1.208 . S
C441 O446 1.247 . S
C441 O447 1.208 . S
C442 O434 1.315 . S
C442 O437 1.279 . S
C443 O444 1.315 . S
C443 O445 1.279 . S
O444 Cd436 2.223 . S
O444 C443 1.315 . S
O445 Cd435 2.240 . S
O445 C443 1.279 . S
O446 Cd436 2.297 . S
O446 C441 1.247 . S
O447 Cd436 2.439 . S
O447 C441 1.208 . S
O448 Cd449 2.223 . S
O448 C456 1.315 . S
Cd449 O448 2.223 . S
Cd449 O452 2.297 . S
Cd449 O453 2.439 . S
Cd449 O459 2.240 . S
Cd450 O451 2.240 . S
Cd450 O458 2.223 . S
Cd450 O460 2.297 . S
Cd450 O461 2.439 . S
O451 Cd450 2.240 . S
O451 C456 1.279 . S
O452 Cd449 2.297 . S
O452 C454 1.247 . S
O453 Cd449 2.439 . S
O453 C454 1.208 . S
C454 O452 1.247 . S
C454 O453 1.208 . S
C455 O460 1.247 . S
C455 O461 1.208 . S
C456 O448 1.315 . S
C456 O451 1.279 . S
C457 O458 1.315 . S
C457 O459 1.279 . S
O458 Cd450 2.223 . S
O458 C457 1.315 . S
O459 Cd449 2.240 . S
O459 C457 1.279 . S
O460 Cd450 2.297 . S
O460 C455 1.247 . S
O461 Cd450 2.439 . S
O461 C455 1.208 . S
O462 Cd463 2.223 . S
O462 C470 1.315 . S
Cd463 O462 2.223 . S
Cd463 O466 2.297 . S
Cd463 O467 2.439 . S
Cd463 O473 2.240 . S
Cd464 O465 2.240 . S
Cd464 O472 2.223 . S
Cd464 O474 2.297 . S
Cd464 O475 2.439 . S
O465 Cd464 2.240 . S
O465 C470 1.279 . S
O466 Cd463 2.297 . S
O466 C468 1.247 . S
O467 Cd463 2.439 . S
O467 C468 1.208 . S
C468 O466 1.247 . S
C468 O467 1.208 . S
C469 O474 1.247 . S
C469 O475 1.208 . S
C470 O462 1.315 . S
C470 O465 1.279 . S
C471 O472 1.315 . S
C471 O473 1.279 . S
O472 Cd464 2.223 . S
O472 C471 1.315 . S
O473 Cd463 2.240 . S
O473 C471 1.279 . S
O474 Cd464 2.297 . S
O474 C469 1.247 . S
O475 Cd464 2.439 . S
O475 C469 1.208 . S
O476 Cd477 2.223 . S
O476 C484 1.315 . S
Cd477 O476 2.223 . S
Cd477 O480 2.297 . S
Cd477 O481 2.439 . S
Cd477 O487 2.240 . S
Cd478 O479 2.240 . S
Cd478 O486 2.223 . S
Cd478 O488 2.297 . S
Cd478 O489 2.439 . S
O479 Cd478 2.240 . S
O479 C484 1.279 . S
O480 Cd477 2.297 . S
O480 C482 1.247 . S
O481 Cd477 2.439 . S
O481 C482 1.208 . S
C482 O480 1.247 . S
C482 O481 1.208 . S
C483 O488 1.247 . S
C483 O489 1.208 . S
C484 O476 1.315 . S
C484 O479 1.279 . S
C485 O486 1.315 . S
C485 O487 1.279 . S
O486 Cd478 2.223 . S
O486 C485 1.315 . S
O487 Cd477 2.240 . S
O487 C485 1.279 . S
O488 Cd478 2.297 . S
O488 C483 1.247 . S
O489 Cd478 2.439 . S
O489 C483 1.208 . S
O490 Cd491 2.223 . S
O490 C498 1.315 . S
Cd491 O490 2.223 . S
Cd491 O494 2.297 . S
Cd491 O495 2.439 . S
Cd491 O501 2.240 . S
Cd492 O493 2.240 . S
Cd492 O500 2.223 . S
Cd492 O502 2.297 . S
Cd492 O503 2.439 . S
O493 Cd492 2.240 . S
O493 C498 1.279 . S
O494 Cd491 2.297 . S
O494 C496 1.247 . S
O495 Cd491 2.439 . S
O495 C496 1.208 . S
C496 O494 1.247 . S
C496 O495 1.208 . S
C497 O502 1.247 . S
C497 O503 1.208 . S
C498 O490 1.315 . S
C498 O493 1.279 . S
C499 O500 1.315 . S
C499 O501 1.279 . S
O500 Cd492 2.223 . S
O500 C499 1.315 . S
O501 Cd491 2.240 . S
O501 C499 1.279 . S
O502 Cd492 2.297 . S
O502 C497 1.247 . S
O503 Cd492 2.439 . S
O503 C497 1.208 . S
O504 Cd505 2.223 . S
O504 C512 1.315 . S
Cd505 O504 2.223 . S
Cd505 O508 2.297 . S
Cd505 O509 2.439 . S
Cd505 O515 2.240 . S
Cd506 O507 2.240 . S
Cd506 O514 2.223 . S
Cd506 O516 2.297 . S
Cd506 O517 2.439 . S
O507 Cd506 2.240 . S
O507 C512 1.279 . S
O508 Cd505 2.297 . S
O508 C510 1.247 . S
O509 Cd505 2.439 . S
O509 C510 1.208 . S
C510 O508 1.247 . S
C510 O509 1.208 . S
C511 O516 1.247 . S
C511 O517 1.208 . S
C512 O504 1.315 . S
C512 O507 1.279 . S
C513 O514 1.315 . S
C513 O515 1.279 . S
O514 Cd506 2.223 . S
O514 C513 1.315 . S
O515 Cd505 2.240 . S
O515 C513 1.279 . S
O516 Cd506 2.297 . S
O516 C511 1.247 . S
O517 Cd506 2.439 . S
O517 C511 1.208 . S
O518 Cd519 2.223 . S
O518 C526 1.315 . S
Cd519 O518 2.223 . S
Cd519 O522 2.297 . S
Cd519 O523 2.439 . S
Cd519 O529 2.240 . S
Cd520 O521 2.240 . S
Cd520 O528 2.223 . S
Cd520 O530 2.297 . S
Cd520 O531 2.439 . S
O521 Cd520 2.240 . S
O521 C526 1.279 . S
O522 Cd519 2.297 . S
O522 C524 1.247 . S
O523 Cd519 2.439 . S
O523 C524 1.208 . S
C524 O522 1.247 . S
C524 O523 1.208 . S
C525 O530 1.247 . S
C525 O531 1.208 . S
C526 O518 1.315 . S
C526 O521 1.279 . S
C527 O528 1.315 . S
C527 O529 1.279 . S
O528 Cd520 2.223 . S
O528 C527 1.315 . S
O529 Cd519 2.240 . S
O529 C527 1.279 . S
O530 Cd520 2.297 . S
O530 C525 1.247 . S
O531 Cd520 2.439 . S
O531 C525 1.208 . S
O532 Cd533 2.223 . S
O532 C540 1.315 . S
Cd533 O532 2.223 . S
Cd533 O536 2.297 . S
Cd533 O537 2.439 . S
Cd533 O543 2.240 . S
Cd534 O535 2.240 . S
Cd534 O542 2.223 . S
Cd534 O544 2.297 . S
Cd534 O545 2.439 . S
O535 Cd534 2.240 . S
O535 C540 1.279 . S
O536 Cd533 2.297 . S
O536 C538 1.247 . S
O537 Cd533 2.439 . S
O537 C538 1.208 . S
C538 O536 1.247 . S
C538 O537 1.208 . S
C539 O544 1.247 . S
C539 O545 1.208 . S
C540 O532 1.315 . S
C540 O535 1.279 . S
C541 O542 1.315 . S
C541 O543 1.279 . S
O542 Cd534 2.223 . S
O542 C541 1.315 . S
O543 Cd533 2.240 . S
O543 C541 1.279 . S
O544 Cd534 2.297 . S
O544 C539 1.247 . S
O545 Cd534 2.439 . S
O545 C539 1.208 . S
O546 Cd547 2.223 . S
O546 C554 1.315 . S
Cd547 O546 2.223 . S
Cd547 O550 2.297 . S
Cd547 O551 2.439 . S
Cd547 O557 2.240 . S
Cd548 O549 2.240 . S
Cd548 O556 2.223 . S
Cd548 O558 2.297 . S
Cd548 O559 2.439 . S
O549 Cd548 2.240 . S
O549 C554 1.279 . S
O550 Cd547 2.297 . S
O550 C552 1.247 . S
O551 Cd547 2.439 . S
O551 C552 1.208 . S
C552 O550 1.247 . S
C552 O551 1.208 . S
C553 O558 1.247 . S
C553 O559 1.208 . S
C554 O546 1.315 . S
C554 O549 1.279 . S
C555 O556 1.315 . S
C555 O557 1.279 . S
O556 Cd548 2.223 . S
O556 C555 1.315 . S
O557 Cd547 2.240 . S
O557 C555 1.279 . S
O558 Cd548 2.297 . S
O558 C553 1.247 . S
O559 Cd548 2.439 . S
O559 C553 1.208 . S
O560 Cd561 2.223 . S
O560 C568 1.315 . S
Cd561 O560 2.223 . S
Cd561 O564 2.297 . S
Cd561 O565 2.439 . S
Cd561 O571 2.240 . S
Cd562 O563 2.240 . S
Cd562 O570 2.223 . S
Cd562 O572 2.297 . S
Cd562 O573 2.439 . S
O563 Cd562 2.240 . S
O563 C568 1.279 . S
O564 Cd561 2.297 . S
O564 C566 1.247 . S
O565 Cd561 2.439 . S
O565 C566 1.208 . S
C566 O564 1.247 . S
C566 O565 1.208 . S
C567 O572 1.247 . S
C567 O573 1.208 . S
C568 O560 1.315 . S
C568 O563 1.279 . S
C569 O570 1.315 . S
C569 O571 1.279 . S
O570 Cd562 2.223 . S
O570 C569 1.315 . S
O571 Cd561 2.240 . S
O571 C569 1.279 . S
O572 Cd562 2.297 . S
O572 C567 1.247 . S
O573 Cd562 2.439 . S
O573 C567 1.208 . S
O574 Cd575 2.223 . S
O574 C582 1.315 . S
Cd575 O574 2.223 . S
Cd575 O578 2.297 . S
Cd575 O579 2.439 . S
Cd575 O585 2.240 . S
Cd576 O577 2.240 . S
Cd576 O584 2.223 . S
Cd576 O586 2.297 . S
Cd576 O587 2.439 . S
O577 Cd576 2.240 . S
O577 C582 1.279 . S
O578 Cd575 2.297 . S
O578 C580 1.247 . S
O579 Cd575 2.439 . S
O579 C580 1.208 . S
C580 O578 1.247 . S
C580 O579 1.208 . S
C581 O586 1.247 . S
C581 O587 1.208 . S
C582 O574 1.315 . S
C582 O577 1.279 . S
C583 O584 1.315 . S
C583 O585 1.279 . S
O584 Cd576 2.223 . S
O584 C583 1.315 . S
O585 Cd575 2.240 . S
O585 C583 1.279 . S
O586 Cd576 2.297 . S
O586 C581 1.247 . S
O587 Cd576 2.439 . S
O587 C581 1.208 . S
O588 Cd589 2.223 1_545 S
O588 C596 1.315 . S
Cd589 O588 2.223 1_565 S
Cd589 O592 2.297 . S
Cd589 O593 2.439 . S
Cd589 O599 2.240 1_565 S
Cd590 O591 2.240 . S
Cd590 O598 2.223 . S
Cd590 O600 2.279 1_545 S
Cd590 O601 2.439 1_545 S
O591 Cd590 2.240 . S
O591 C596 1.279 . S
O592 Cd589 2.297 . S
O592 C594 1.247 . S
O593 Cd589 2.439 . S
O593 C594 1.208 . S
C594 O592 1.247 . S
C594 O593 1.208 . S
C595 O600 1.293 . S
C595 O601 1.208 . S
C596 O588 1.315 . S
C596 O591 1.279 . S
C597 O598 1.315 . S
C597 O599 1.279 . S
O598 Cd590 2.223 . S
O598 C597 1.315 . S
O599 Cd589 2.240 1_545 S
O599 C597 1.279 . S
O600 Cd590 2.279 1_565 S
O600 C595 1.293 . S
O601 Cd590 2.439 1_565 S
O601 C595 1.208 . S
O602 Cd603 2.223 . S
O602 C610 1.315 . S
Cd603 O602 2.223 . S
Cd603 O606 2.297 . S
Cd603 O607 2.439 . S
Cd603 O613 2.240 . S
Cd604 O605 2.240 . S
Cd604 O612 2.223 . S
Cd604 O614 2.297 . S
Cd604 O615 2.439 . S
O605 Cd604 2.240 . S
O605 C610 1.279 . S
O606 Cd603 2.297 . S
O606 C608 1.247 . S
O607 Cd603 2.439 . S
O607 C608 1.208 . S
C608 O606 1.247 . S
C608 O607 1.208 . S
C609 O614 1.247 . S
C609 O615 1.208 . S
C610 O602 1.315 . S
C610 O605 1.279 . S
C611 O612 1.315 . S
C611 O613 1.279 . S
O612 Cd604 2.223 . S
O612 C611 1.315 . S
O613 Cd603 2.240 . S
O613 C611 1.279 . S
O614 Cd604 2.297 . S
O614 C609 1.247 . S
O615 Cd604 2.439 . S
O615 C609 1.208 . S
O616 Cd617 2.223 1_565 S
O616 C624 1.315 . S
Cd617 O616 2.223 1_545 S
Cd617 O620 2.297 . S
Cd617 O621 2.439 . S
Cd617 O627 2.240 1_545 S
Cd618 O619 2.240 . S
Cd618 O626 2.223 . S
Cd618 O628 2.297 1_565 S
Cd618 O629 2.439 1_565 S
O619 Cd618 2.240 . S
O619 C624 1.279 . S
O620 Cd617 2.297 . S
O620 C622 1.247 . S
O621 Cd617 2.439 . S
O621 C622 1.208 . S
C622 O620 1.247 . S
C622 O621 1.208 . S
C623 O628 1.247 . S
C623 O629 1.208 . S
C624 O616 1.315 . S
C624 O619 1.279 . S
C625 O626 1.315 . S
C625 O627 1.279 . S
O626 Cd618 2.223 . S
O626 C625 1.315 . S
O627 Cd617 2.240 1_565 S
O627 C625 1.279 . S
O628 Cd618 2.297 1_545 S
O628 C623 1.247 . S
O629 Cd618 2.439 1_545 S
O629 C623 1.208 . S
O630 Cd631 2.223 . S
O630 C638 1.315 . S
Cd631 O630 2.223 . S
Cd631 O634 2.297 . S
Cd631 O635 2.439 . S
Cd631 O641 2.240 . S
Cd632 O633 2.240 . S
Cd632 O640 2.223 . S
Cd632 O642 2.297 . S
Cd632 O643 2.439 . S
O633 Cd632 2.240 . S
O633 C638 1.279 . S
O634 Cd631 2.297 . S
O634 C636 1.247 . S
O635 Cd631 2.439 . S
O635 C636 1.208 . S
C636 O634 1.247 . S
C636 O635 1.208 . S
C637 O642 1.247 . S
C637 O643 1.208 . S
C638 O630 1.315 . S
C638 O633 1.279 . S
C639 O640 1.315 . S
C639 O641 1.279 . S
O640 Cd632 2.223 . S
O640 C639 1.315 . S
O641 Cd631 2.240 . S
O641 C639 1.279 . S
O642 Cd632 2.297 . S
O642 C637 1.247 . S
O643 Cd632 2.439 . S
O643 C637 1.208 . S
O644 Cd645 2.223 1_565 S
O644 C652 1.315 . S
Cd645 O644 2.223 1_545 S
Cd645 O648 2.297 . S
Cd645 O649 2.439 . S
Cd645 O655 2.240 1_545 S
Cd646 O647 2.240 . S
Cd646 O654 2.223 . S
Cd646 O656 2.279 1_565 S
Cd646 O657 2.439 1_565 S
O647 Cd646 2.240 . S
O647 C652 1.279 . S
O648 Cd645 2.297 . S
O648 C650 1.247 . S
O649 Cd645 2.439 . S
O649 C650 1.208 . S
C650 O648 1.247 . S
C650 O649 1.208 . S
C651 O656 1.292 . S
C651 O657 1.208 . S
C652 O644 1.315 . S
C652 O647 1.279 . S
C653 O654 1.315 . S
C653 O655 1.279 . S
O654 Cd646 2.223 . S
O654 C653 1.315 . S
O655 Cd645 2.240 1_565 S
O655 C653 1.279 . S
O656 Cd646 2.279 1_545 S
O656 C651 1.292 . S
O657 Cd646 2.439 1_545 S
O657 C651 1.208 . S
O658 Cd659 2.223 . S
O658 C666 1.315 . S
Cd659 O658 2.223 . S
Cd659 O662 2.297 . S
Cd659 O663 2.439 . S
Cd659 O669 2.240 . S
Cd660 O661 2.240 . S
Cd660 O668 2.223 . S
Cd660 O670 2.297 . S
Cd660 O671 2.439 . S
O661 Cd660 2.240 . S
O661 C666 1.279 . S
O662 Cd659 2.297 . S
O662 C664 1.247 . S
O663 Cd659 2.439 . S
O663 C664 1.208 . S
C664 O662 1.247 . S
C664 O663 1.208 . S
C665 O670 1.247 . S
C665 O671 1.208 . S
C666 O658 1.315 . S
C666 O661 1.279 . S
C667 O668 1.315 . S
C667 O669 1.279 . S
O668 Cd660 2.223 . S
O668 C667 1.315 . S
O669 Cd659 2.240 . S
O669 C667 1.279 . S
O670 Cd660 2.297 . S
O670 C665 1.247 . S
O671 Cd660 2.439 . S
O671 C665 1.208 . S
H672 C678 0.930 . S
H673 C681 0.930 . S
H674 C682 0.930 . S
H675 C683 0.930 . S
H676 C686 0.930 . S
H677 C687 0.930 . S
C678 H672 0.930 . S
C678 C679 1.355 . S
C678 C680 1.415 . S
C679 C678 1.355 . S
C679 C681 1.419 . S
C680 C678 1.415 . S
C680 C685 1.425 . S
C680 C687 1.409 . S
C681 H673 0.930 . S
C681 C679 1.419 . S
C681 C682 1.362 . S
C682 H674 0.930 . S
C682 C681 1.362 . S
C682 C685 1.409 . S
C683 H675 0.930 . S
C683 C684 1.355 . S
C683 C685 1.415 . S
C684 C683 1.355 . S
C684 C686 1.419 . S
C685 C680 1.425 . S
C685 C682 1.409 . S
C685 C683 1.415 . S
C686 H676 0.930 . S
C686 C684 1.419 . S
C686 C687 1.362 . S
C687 H677 0.930 . S
C687 C680 1.409 . S
C687 C686 1.362 . S
H688 C694 0.930 . S
H689 C697 0.930 . S
H690 C698 0.930 1_556 S
H691 C699 0.930 . S
H692 C702 0.930 . S
H693 C703 0.930 . S
C694 H688 0.930 . S
C694 C695 1.355 . S
C694 C696 1.415 . S
C695 C694 1.355 . S
C695 C697 1.419 . S
C696 C694 1.415 . S
C696 C701 1.425 . S
C696 C703 1.409 . S
C697 H689 0.930 . S
C697 C695 1.419 . S
C697 C698 1.362 . S
C698 H690 0.930 1_554 S
C698 C697 1.362 . S
C698 C701 1.409 . S
C699 H691 0.930 . S
C699 C700 1.355 . S
C699 C701 1.415 1_556 S
C700 C699 1.355 . S
C700 C702 1.419 1_556 S
C701 C696 1.425 . S
C701 C698 1.409 . S
C701 C699 1.415 1_554 S
C702 H692 0.930 . S
C702 C700 1.419 1_554 S
C702 C703 1.362 . S
C703 H693 0.930 . S
C703 C696 1.409 . S
C703 C702 1.362 . S
H704 C710 0.930 . S
H705 C713 0.930 . S
H706 C714 0.930 . S
H707 C715 0.930 . S
H708 C718 0.930 . S
H709 C719 0.930 . S
C710 H704 0.930 . S
C710 C711 1.355 . S
C710 C712 1.415 . S
C711 C710 1.355 . S
C711 C713 1.419 . S
C712 C710 1.415 . S
C712 C717 1.425 . S
C712 C719 1.409 . S
C713 H705 0.930 . S
C713 C711 1.419 . S
C713 C714 1.362 . S
C714 H706 0.930 . S
C714 C713 1.362 . S
C714 C717 1.409 . S
C715 H707 0.930 . S
C715 C716 1.355 . S
C715 C717 1.415 . S
C716 C715 1.355 . S
C716 C718 1.419 . S
C717 C712 1.425 . S
C717 C714 1.409 . S
C717 C715 1.415 . S
C718 H708 0.930 . S
C718 C716 1.419 . S
C718 C719 1.362 . S
C719 H709 0.930 . S
C719 C712 1.409 . S
C719 C718 1.362 . S
H720 C726 0.930 . S
H721 C729 0.930 . S
H722 C730 0.930 . S
H723 C731 0.930 . S
H724 C734 0.930 . S
H725 C735 0.930 1_556 S
C726 H720 0.930 . S
C726 C727 1.355 . S
C726 C728 1.415 1_556 S
C727 C726 1.355 . S
C727 C729 1.419 1_556 S
C728 C726 1.415 1_554 S
C728 C733 1.425 . S
C728 C735 1.409 . S
C729 H721 0.930 . S
C729 C727 1.419 1_554 S
C729 C730 1.362 . S
C730 H722 0.930 . S
C730 C729 1.362 . S
C730 C733 1.409 . S
C731 H723 0.930 . S
C731 C732 1.355 . S
C731 C733 1.415 . S
C732 C731 1.355 . S
C732 C734 1.419 . S
C733 C728 1.425 . S
C733 C730 1.409 . S
C733 C731 1.415 . S
C734 H724 0.930 . S
C734 C732 1.419 . S
C734 C735 1.362 . S
C735 H725 0.930 1_554 S
C735 C728 1.409 . S
C735 C734 1.362 . S
H736 C742 0.930 . S
H737 C745 0.930 . S
H738 C746 0.930 . S
H739 C747 0.930 . S
H740 C750 0.930 . S
H741 C751 0.930 . S
C742 H736 0.930 . S
C742 C743 1.355 . S
C742 C744 1.415 . S
C743 C742 1.355 . S
C743 C745 1.419 . S
C744 C742 1.415 . S
C744 C749 1.425 . S
C744 C751 1.409 . S
C745 H737 0.930 . S
C745 C743 1.419 . S
C745 C746 1.362 . S
C746 H738 0.930 . S
C746 C745 1.362 . S
C746 C749 1.409 . S
C747 H739 0.930 . S
C747 C748 1.355 . S
C747 C749 1.415 . S
C748 C747 1.355 . S
C748 C750 1.419 . S
C749 C744 1.425 . S
C749 C746 1.409 . S
C749 C747 1.415 . S
C750 H740 0.930 . S
C750 C748 1.419 . S
C750 C751 1.362 . S
C751 H741 0.930 . S
C751 C744 1.409 . S
C751 C750 1.362 . S
H752 C758 0.930 . S
H753 C761 0.951 . S
H754 C762 0.930 . S
H755 C763 0.930 . S
H756 C766 0.930 . S
H757 C767 0.930 . S
C758 H752 0.930 . S
C758 C759 1.379 . S
C758 C760 1.415 . S
C759 C758 1.379 . S
C759 C761 1.416 1_556 S
C760 C758 1.415 . S
C760 C765 1.425 . S
C760 C767 1.409 . S
C761 H753 0.951 . S
C761 C759 1.416 1_554 S
C761 C762 1.344 1_554 S
C762 H754 0.930 . S
C762 C761 1.344 1_556 S
C762 C765 1.409 . S
C763 H755 0.930 . S
C763 C764 1.355 . S
C763 C765 1.415 . S
C764 C763 1.355 . S
C764 C766 1.419 . S
C765 C760 1.425 . S
C765 C762 1.409 . S
C765 C763 1.415 . S
C766 H756 0.930 . S
C766 C764 1.419 . S
C766 C767 1.362 . S
C767 H757 0.930 . S
C767 C760 1.409 . S
C767 C766 1.362 . S
H768 C774 0.930 . S
H769 C777 0.930 . S
H770 C778 0.930 . S
H771 C779 0.930 . S
H772 C782 0.930 . S
H773 C783 0.930 . S
C774 H768 0.930 . S
C774 C775 1.355 . S
C774 C776 1.415 . S
C775 C774 1.355 . S
C775 C777 1.419 . S
C776 C774 1.415 . S
C776 C781 1.425 . S
C776 C783 1.409 . S
C777 H769 0.930 . S
C777 C775 1.419 . S
C777 C778 1.362 . S
C778 H770 0.930 . S
C778 C777 1.362 . S
C778 C781 1.409 . S
C779 H771 0.930 . S
C779 C780 1.355 . S
C779 C781 1.415 . S
C780 C779 1.355 . S
C780 C782 1.419 . S
C781 C776 1.425 . S
C781 C778 1.409 . S
C781 C779 1.415 . S
C782 H772 0.930 . S
C782 C780 1.419 . S
C782 C783 1.362 . S
C783 H773 0.930 . S
C783 C776 1.409 . S
C783 C782 1.362 . S
H784 C790 0.930 . S
H785 C793 0.930 . S
H786 C794 0.930 . S
H787 C795 0.930 . S
H788 C798 0.930 . S
H789 C799 0.930 . S
C790 H784 0.930 . S
C790 C791 1.355 . S
C790 C792 1.415 . S
C791 C790 1.355 . S
C791 C793 1.419 . S
C792 C790 1.415 . S
C792 C797 1.425 . S
C792 C799 1.409 . S
C793 H785 0.930 . S
C793 C791 1.419 . S
C793 C794 1.362 . S
C794 H786 0.930 . S
C794 C793 1.362 . S
C794 C797 1.409 . S
C795 H787 0.930 . S
C795 C796 1.372 . S
C795 C797 1.415 . S
C796 C795 1.372 . S
C796 C798 1.414 1_556 S
C797 C792 1.425 . S
C797 C794 1.409 . S
C797 C795 1.415 . S
C798 H788 0.930 . S
C798 C796 1.414 1_554 S
C798 C799 1.362 1_554 S
C799 H789 0.930 . S
C799 C792 1.409 . S
C799 C798 1.362 1_556 S
H800 C806 0.930 . S
H801 C809 0.930 . S
H802 C810 0.930 . S
H803 C811 0.930 . S
H804 C814 0.930 . S
H805 C815 0.930 . S
C806 H800 0.930 . S
C806 C807 1.355 . S
C806 C808 1.415 . S
C807 C806 1.355 . S
C807 C809 1.419 . S
C808 C806 1.415 . S
C808 C813 1.425 . S
C808 C815 1.409 . S
C809 H801 0.930 . S
C809 C807 1.419 . S
C809 C810 1.362 . S
C810 H802 0.930 . S
C810 C809 1.362 . S
C810 C813 1.409 . S
C811 H803 0.930 . S
C811 C812 1.355 . S
C811 C813 1.415 . S
C812 C811 1.355 . S
C812 C814 1.419 . S
C813 C808 1.425 . S
C813 C810 1.409 . S
C813 C811 1.415 . S
C814 H804 0.930 . S
C814 C812 1.419 . S
C814 C815 1.362 . S
C815 H805 0.930 . S
C815 C808 1.409 . S
C815 C814 1.362 . S
H816 C822 0.930 . S
H817 C825 0.930 . S
H818 C826 0.930 . S
H819 C827 0.930 . S
H820 C830 0.930 . S
H821 C831 0.930 . S
C822 H816 0.930 . S
C822 C823 1.355 . S
C822 C824 1.415 . S
C823 C822 1.355 . S
C823 C825 1.419 . S
C824 C822 1.415 . S
C824 C829 1.425 . S
C824 C831 1.409 . S
C825 H817 0.930 . S
C825 C823 1.419 . S
C825 C826 1.362 . S
C826 H818 0.930 . S
C826 C825 1.362 . S
C826 C829 1.409 . S
C827 H819 0.930 . S
C827 C828 1.355 . S
C827 C829 1.415 . S
C828 C827 1.355 . S
C828 C830 1.419 . S
C829 C824 1.425 . S
C829 C826 1.409 . S
C829 C827 1.415 . S
C830 H820 0.930 . S
C830 C828 1.419 . S
C830 C831 1.362 . S
C831 H821 0.930 . S
C831 C824 1.409 . S
C831 C830 1.362 . S
H832 C838 0.930 . S
H833 C841 0.930 . S
H834 C842 0.930 . S
H835 C843 0.930 . S
H836 C846 0.930 . S
H837 C847 0.930 . S
C838 H832 0.930 . S
C838 C839 1.355 . S
C838 C840 1.415 . S
C839 C838 1.355 . S
C839 C841 1.419 . S
C840 C838 1.415 . S
C840 C845 1.425 . S
C840 C847 1.409 . S
C841 H833 0.930 . S
C841 C839 1.419 . S
C841 C842 1.362 . S
C842 H834 0.930 . S
C842 C841 1.362 . S
C842 C845 1.409 . S
C843 H835 0.930 . S
C843 C844 1.355 . S
C843 C845 1.415 . S
C844 C843 1.355 . S
C844 C846 1.419 . S
C845 C840 1.425 . S
C845 C842 1.409 . S
C845 C843 1.415 . S
C846 H836 0.930 . S
C846 C844 1.419 . S
C846 C847 1.362 . S
C847 H837 0.930 . S
C847 C840 1.409 . S
C847 C846 1.362 . S
H848 C854 0.930 . S
H849 C857 0.930 . S
H850 C858 0.930 . S
H851 C859 0.930 . S
H852 C862 0.930 . S
H853 C863 0.930 . S
C854 H848 0.930 . S
C854 C855 1.355 . S
C854 C856 1.415 . S
C855 C854 1.355 . S
C855 C857 1.419 . S
C856 C854 1.415 . S
C856 C861 1.384 1_565 S
C856 C863 1.409 . S
C857 H849 0.930 . S
C857 C855 1.419 . S
C857 C858 1.362 1_565 S
C858 H850 0.930 . S
C858 C857 1.362 1_545 S
C858 C861 1.412 . S
C859 H851 0.930 . S
C859 C860 1.355 . S
C859 C861 1.453 . S
C860 C859 1.355 . S
C860 C862 1.419 1_545 S
C861 C856 1.384 1_545 S
C861 C858 1.412 . S
C861 C859 1.453 . S
C862 H852 0.930 . S
C862 C860 1.419 1_565 S
C862 C863 1.362 . S
C863 H853 0.930 . S
C863 C856 1.409 . S
C863 C862 1.362 . S
H864 C870 0.930 . S
H865 C873 0.930 . S
H866 C874 0.930 . S
H867 C875 0.930 . S
H868 C878 0.930 . S
H869 C879 0.930 . S
C870 H864 0.930 . S
C870 C871 1.355 . S
C870 C872 1.415 . S
C871 C870 1.355 . S
C871 C873 1.419 . S
C872 C870 1.415 . S
C872 C877 1.425 . S
C872 C879 1.409 . S
C873 H865 0.930 . S
C873 C871 1.419 . S
C873 C874 1.362 . S
C874 H866 0.930 . S
C874 C873 1.362 . S
C874 C877 1.409 . S
C875 H867 0.930 . S
C875 C876 1.355 . S
C875 C877 1.415 . S
C876 C875 1.355 . S
C876 C878 1.419 . S
C877 C872 1.425 . S
C877 C874 1.409 . S
C877 C875 1.415 . S
C878 H868 0.930 . S
C878 C876 1.419 . S
C878 C879 1.362 . S
C879 H869 0.930 . S
C879 C872 1.409 . S
C879 C878 1.362 . S
H880 C886 0.930 . S
H881 C889 0.930 . S
H882 C890 0.930 . S
H883 C891 0.930 . S
H884 C894 0.930 . S
H885 C895 0.930 . S
C886 H880 0.930 . S
C886 C887 1.355 . S
C886 C888 1.415 . S
C887 C886 1.355 . S
C887 C889 1.419 . S
C888 C886 1.415 . S
C888 C893 1.425 . S
C888 C895 1.409 . S
C889 H881 0.930 . S
C889 C887 1.419 . S
C889 C890 1.362 . S
C890 H882 0.930 . S
C890 C889 1.362 . S
C890 C893 1.409 . S
C891 H883 0.930 . S
C891 C892 1.355 . S
C891 C893 1.415 . S
C892 C891 1.355 . S
C892 C894 1.419 . S
C893 C888 1.425 . S
C893 C890 1.409 . S
C893 C891 1.415 . S
C894 H884 0.930 . S
C894 C892 1.419 . S
C894 C895 1.362 . S
C895 H885 0.930 . S
C895 C888 1.409 . S
C895 C894 1.362 . S
H896 C902 0.930 . S
H897 C905 0.930 . S
H898 C906 0.930 . S
H899 C907 0.930 . S
H900 C910 0.930 . S
H901 C911 0.930 . S
C902 H896 0.930 . S
C902 C903 1.355 . S
C902 C904 1.415 . S
C903 C902 1.355 . S
C903 C905 1.419 . S
C904 C902 1.415 . S
C904 C909 1.425 . S
C904 C911 1.409 . S
C905 H897 0.930 . S
C905 C903 1.419 . S
C905 C906 1.362 . S
C906 H898 0.930 . S
C906 C905 1.362 . S
C906 C909 1.409 . S
C907 H899 0.930 . S
C907 C908 1.355 . S
C907 C909 1.415 . S
C908 C907 1.355 . S
C908 C910 1.419 . S
C909 C904 1.425 . S
C909 C906 1.409 . S
C909 C907 1.415 . S
C910 H900 0.930 . S
C910 C908 1.419 . S
C910 C911 1.362 . S
C911 H901 0.930 . S
C911 C904 1.409 . S
C911 C910 1.362 . S
H912 C918 0.930 . S
H913 C921 0.930 . S
H914 C922 0.930 . S
H915 C923 0.930 . S
H916 C926 0.930 1_455 S
H917 C927 0.930 1_455 S
C918 H912 0.930 . S
C918 C919 1.355 . S
C918 C920 1.415 1_545 S
C919 C918 1.355 . S
C919 C921 1.419 . S
C920 C918 1.415 1_565 S
C920 C925 1.425 . S
C920 C927 1.409 . S
C921 H913 0.930 . S
C921 C919 1.419 . S
C921 C922 1.362 1_545 S
C922 H914 0.930 . S
C922 C921 1.362 1_565 S
C922 C925 1.409 . S
C923 H915 0.930 . S
C923 C924 1.355 . S
C923 C925 1.415 . S
C924 C923 1.355 . S
C924 C926 1.419 . S
C925 C920 1.425 . S
C925 C922 1.409 . S
C925 C923 1.415 . S
C926 H916 0.930 1_655 S
C926 C924 1.419 . S
C926 C927 1.362 . S
C927 H917 0.930 1_655 S
C927 C920 1.409 . S
C927 C926 1.362 . S
H928 C934 0.930 . S
H929 C937 0.930 . S
H930 C938 0.930 . S
H931 C939 0.930 . S
H932 C942 0.930 . S
H933 C943 0.930 . S
C934 H928 0.930 . S
C934 C935 1.355 . S
C934 C936 1.415 . S
C935 C934 1.355 . S
C935 C937 1.419 . S
C936 C934 1.415 . S
C936 C941 1.425 . S
C936 C943 1.409 . S
C937 H929 0.930 . S
C937 C935 1.419 . S
C937 C938 1.362 . S
C938 H930 0.930 . S
C938 C937 1.362 . S
C938 C941 1.409 . S
C939 H931 0.930 . S
C939 C940 1.355 . S
C939 C941 1.415 . S
C940 C939 1.355 . S
C940 C942 1.419 . S
C941 C936 1.425 . S
C941 C938 1.409 . S
C941 C939 1.415 . S
C942 H932 0.930 . S
C942 C940 1.419 . S
C942 C943 1.362 . S
C943 H933 0.930 . S
C943 C936 1.409 . S
C943 C942 1.362 . S
H944 C950 0.930 . S
H945 C953 0.930 . S
H946 C954 0.930 . S
H947 C955 0.930 . S
H948 C958 0.930 . S
H949 C959 0.930 . S
C950 H944 0.930 . S
C950 C951 1.355 . S
C950 C952 1.415 . S
C951 C950 1.355 . S
C951 C953 1.419 . S
C952 C950 1.415 . S
C952 C957 1.425 . S
C952 C959 1.409 . S
C953 H945 0.930 . S
C953 C951 1.419 . S
C953 C954 1.362 . S
C954 H946 0.930 . S
C954 C953 1.362 . S
C954 C957 1.409 . S
C955 H947 0.930 . S
C955 C956 1.355 . S
C955 C957 1.415 . S
C956 C955 1.355 . S
C956 C958 1.419 . S
C957 C952 1.425 . S
C957 C954 1.409 . S
C957 C955 1.415 . S
C958 H948 0.930 . S
C958 C956 1.419 . S
C958 C959 1.362 . S
C959 H949 0.930 . S
C959 C952 1.409 . S
C959 C958 1.362 . S
H960 C966 0.930 . S
H961 C969 0.930 . S
H962 C970 0.915 1_455 S
H963 C971 0.930 . S
H964 C974 0.930 . S
H965 C975 0.930 . S
C966 H960 0.930 . S
C966 C967 1.355 . S
C966 C968 1.415 . S
C967 C966 1.355 . S
C967 C969 1.419 . S
C968 C966 1.415 . S
C968 C973 1.425 1_655 S
C968 C975 1.409 . S
C969 H961 0.930 . S
C969 C967 1.419 . S
C969 C970 1.384 . S
C970 H962 0.915 1_655 S
C970 C969 1.384 . S
C970 C973 1.402 1_655 S
C971 H963 0.930 . S
C971 C972 1.355 . S
C971 C973 1.415 . S
C972 C971 1.355 . S
C972 C974 1.419 . S
C973 C968 1.425 1_455 S
C973 C970 1.402 1_455 S
C973 C971 1.415 . S
C974 H964 0.930 . S
C974 C972 1.419 . S
C974 C975 1.362 1_455 S
C975 H965 0.930 . S
C975 C968 1.409 . S
C975 C974 1.362 1_655 S
H976 C982 0.930 . S
H977 C985 0.930 . S
H978 C986 0.930 . S
H979 C987 0.930 . S
H980 C990 0.930 . S
H981 C991 0.930 . S
C982 H976 0.930 . S
C982 C983 1.355 . S
C982 C984 1.415 . S
C983 C982 1.355 . S
C983 C985 1.419 . S
C984 C982 1.415 . S
C984 C989 1.425 . S
C984 C991 1.409 . S
C985 H977 0.930 . S
C985 C983 1.419 . S
C985 C986 1.362 . S
C986 H978 0.930 . S
C986 C985 1.362 . S
C986 C989 1.409 . S
C987 H979 0.930 . S
C987 C988 1.355 . S
C987 C989 1.415 . S
C988 C987 1.355 . S
C988 C990 1.419 . S
C989 C984 1.425 . S
C989 C986 1.409 . S
C989 C987 1.415 . S
C990 H980 0.930 . S
C990 C988 1.419 . S
C990 C991 1.362 . S
C991 H981 0.930 . S
C991 C984 1.409 . S
C991 C990 1.362 . S
H992 C998 0.930 . S
H993 C1001 0.930 . S
H994 C1002 0.930 . S
H995 C1003 0.930 . S
H996 C1006 0.930 . S
H997 C1007 0.930 . S
C998 H992 0.930 . S
C998 C999 1.355 . S
C998 C1000 1.415 . S
C999 C998 1.355 . S
C999 C1001 1.419 . S
C1000 C998 1.415 . S
C1000 C1005 1.425 . S
C1000 C1007 1.409 . S
C1001 H993 0.930 . S
C1001 C999 1.419 . S
C1001 C1002 1.362 . S
C1002 H994 0.930 . S
C1002 C1001 1.362 . S
C1002 C1005 1.409 . S
C1003 H995 0.930 . S
C1003 C1004 1.355 . S
C1003 C1005 1.415 . S
C1004 C1003 1.355 . S
C1004 C1006 1.419 . S
C1005 C1000 1.425 . S
C1005 C1002 1.409 . S
C1005 C1003 1.415 . S
C1006 H996 0.930 . S
C1006 C1004 1.419 . S
C1006 C1007 1.362 . S
C1007 H997 0.930 . S
C1007 C1000 1.409 . S
C1007 C1006 1.362 . S
H1008 C1014 0.930 . S
H1009 C1017 0.930 . S
H1010 C1018 0.930 . S
H1011 C1019 0.930 . S
H1012 C1022 0.930 . S
H1013 C1023 0.930 . S
C1014 H1008 0.930 . S
C1014 C1015 1.355 . S
C1014 C1016 1.415 . S
C1015 C1014 1.355 . S
C1015 C1017 1.419 . S
C1016 C1014 1.415 . S
C1016 C1021 1.425 . S
C1016 C1023 1.409 . S
C1017 H1009 0.930 . S
C1017 C1015 1.419 . S
C1017 C1018 1.362 . S
C1018 H1010 0.930 . S
C1018 C1017 1.362 . S
C1018 C1021 1.409 . S
C1019 H1011 0.930 . S
C1019 C1020 1.355 . S
C1019 C1021 1.415 . S
C1020 C1019 1.355 . S
C1020 C1022 1.419 . S
C1021 C1016 1.425 . S
C1021 C1018 1.409 . S
C1021 C1019 1.415 . S
C1022 H1012 0.930 . S
C1022 C1020 1.419 . S
C1022 C1023 1.362 . S
C1023 H1013 0.930 . S
C1023 C1016 1.409 . S
C1023 C1022 1.362 . S
H1024 C1030 0.930 . S
H1025 C1033 0.930 . S
H1026 C1034 0.930 . S
H1027 C1035 0.930 . S
H1028 C1038 0.930 . S
H1029 C1039 0.930 . S
C1030 H1024 0.930 . S
C1030 C1031 1.355 . S
C1030 C1032 1.415 . S
C1031 C1030 1.355 . S
C1031 C1033 1.419 . S
C1032 C1030 1.415 . S
C1032 C1037 1.425 1_455 S
C1032 C1039 1.409 . S
C1033 H1025 0.930 . S
C1033 C1031 1.419 . S
C1033 C1034 1.362 1_455 S
C1034 H1026 0.930 . S
C1034 C1033 1.362 1_655 S
C1034 C1037 1.409 . S
C1035 H1027 0.930 . S
C1035 C1036 1.355 . S
C1035 C1037 1.415 . S
C1036 C1035 1.355 . S
C1036 C1038 1.419 . S
C1037 C1032 1.425 1_655 S
C1037 C1034 1.409 . S
C1037 C1035 1.415 . S
C1038 H1028 0.930 . S
C1038 C1036 1.419 . S
C1038 C1039 1.362 1_655 S
C1039 H1029 0.930 . S
C1039 C1032 1.409 . S
C1039 C1038 1.362 1_455 S
H1040 C1046 0.930 . S
H1041 C1049 0.930 . S
H1042 C1050 0.930 . S
H1043 C1051 0.930 . S
H1044 C1054 0.930 . S
H1045 C1055 0.930 . S
C1046 H1040 0.930 . S
C1046 C1047 1.355 . S
C1046 C1048 1.415 1_655 S
C1047 C1046 1.355 . S
C1047 C1049 1.419 . S
C1048 C1046 1.415 1_455 S
C1048 C1053 1.430 . S
C1048 C1055 1.409 . S
C1049 H1041 0.930 . S
C1049 C1047 1.419 . S
C1049 C1050 1.362 . S
C1050 H1042 0.930 . S
C1050 C1049 1.362 . S
C1050 C1053 1.393 1_655 S
C1051 H1043 0.930 . S
C1051 C1052 1.355 . S
C1051 C1053 1.427 . S
C1052 C1051 1.355 . S
C1052 C1054 1.419 . S
C1053 C1048 1.430 . S
C1053 C1050 1.393 1_455 S
C1053 C1051 1.427 . S
C1054 H1044 0.930 . S
C1054 C1052 1.419 . S
C1054 C1055 1.362 . S
C1055 H1045 0.930 . S
C1055 C1048 1.409 . S
C1055 C1054 1.362 . S
H1056 C1062 0.930 . S
H1057 C1065 0.930 . S
H1058 C1066 0.930 . S
H1059 C1067 0.930 . S
H1060 C1070 0.930 . S
H1061 C1071 0.930 . S
C1062 H1056 0.930 . S
C1062 C1063 1.355 . S
C1062 C1064 1.415 . S
C1063 C1062 1.355 . S
C1063 C1065 1.419 . S
C1064 C1062 1.415 . S
C1064 C1069 1.425 . S
C1064 C1071 1.409 . S
C1065 H1057 0.930 . S
C1065 C1063 1.419 . S
C1065 C1066 1.362 . S
C1066 H1058 0.930 . S
C1066 C1065 1.362 . S
C1066 C1069 1.409 . S
C1067 H1059 0.930 . S
C1067 C1068 1.355 . S
C1067 C1069 1.415 . S
C1068 C1067 1.355 . S
C1068 C1070 1.419 . S
C1069 C1064 1.425 . S
C1069 C1066 1.409 . S
C1069 C1067 1.415 . S
C1070 H1060 0.930 . S
C1070 C1068 1.419 . S
C1070 C1071 1.362 . S
C1071 H1061 0.930 . S
C1071 C1064 1.409 . S
C1071 C1070 1.362 . S
H1072 C1078 0.930 . S
H1073 C1081 0.930 . S
H1074 C1082 0.930 . S
H1075 C1083 0.930 . S
H1076 C1086 0.930 . S
H1077 C1087 0.930 . S
C1078 H1072 0.930 . S
C1078 C1079 1.355 . S
C1078 C1080 1.415 . S
C1079 C1078 1.355 . S
C1079 C1081 1.419 . S
C1080 C1078 1.415 . S
C1080 C1085 1.425 . S
C1080 C1087 1.409 . S
C1081 H1073 0.930 . S
C1081 C1079 1.419 . S
C1081 C1082 1.362 . S
C1082 H1074 0.930 . S
C1082 C1081 1.362 . S
C1082 C1085 1.409 . S
C1083 H1075 0.930 . S
C1083 C1084 1.355 . S
C1083 C1085 1.415 . S
C1084 C1083 1.355 . S
C1084 C1086 1.419 . S
C1085 C1080 1.425 . S
C1085 C1082 1.409 . S
C1085 C1083 1.415 . S
C1086 H1076 0.930 . S
C1086 C1084 1.419 . S
C1086 C1087 1.362 . S
C1087 H1077 0.930 . S
C1087 C1080 1.409 . S
C1087 C1086 1.362 . S
H1088 C1094 0.930 . S
H1089 C1097 0.930 . S
H1090 C1098 0.930 . S
H1091 C1099 0.930 . S
H1092 C1102 0.930 . S
H1093 C1103 0.930 . S
C1094 H1088 0.930 . S
C1094 C1095 1.355 . S
C1094 C1096 1.415 . S
C1095 C1094 1.355 . S
C1095 C1097 1.419 . S
C1096 C1094 1.415 . S
C1096 C1101 1.425 . S
C1096 C1103 1.409 . S
C1097 H1089 0.930 . S
C1097 C1095 1.419 . S
C1097 C1098 1.362 . S
C1098 H1090 0.930 . S
C1098 C1097 1.362 . S
C1098 C1101 1.409 . S
C1099 H1091 0.930 . S
C1099 C1100 1.355 . S
C1099 C1101 1.415 . S
C1100 C1099 1.355 . S
C1100 C1102 1.419 . S
C1101 C1096 1.425 . S
C1101 C1098 1.409 . S
C1101 C1099 1.415 . S
C1102 H1092 0.930 . S
C1102 C1100 1.419 . S
C1102 C1103 1.362 . S
C1103 H1093 0.930 . S
C1103 C1096 1.409 . S
C1103 C1102 1.362 . S
H1104 C1110 0.930 . S
H1105 C1113 0.930 . S
H1106 C1114 0.930 . S
H1107 C1115 0.930 . S
H1108 C1118 0.930 . S
H1109 C1119 0.930 . S
C1110 H1104 0.930 . S
C1110 C1111 1.355 . S
C1110 C1112 1.415 . S
C1111 C1110 1.355 . S
C1111 C1113 1.419 . S
C1112 C1110 1.415 . S
C1112 C1117 1.425 . S
C1112 C1119 1.409 . S
C1113 H1105 0.930 . S
C1113 C1111 1.419 . S
C1113 C1114 1.362 . S
C1114 H1106 0.930 . S
C1114 C1113 1.362 . S
C1114 C1117 1.409 . S
C1115 H1107 0.930 . S
C1115 C1116 1.355 . S
C1115 C1117 1.415 . S
C1116 C1115 1.355 . S
C1116 C1118 1.419 . S
C1117 C1112 1.425 . S
C1117 C1114 1.409 . S
C1117 C1115 1.415 . S
C1118 H1108 0.930 . S
C1118 C1116 1.419 . S
C1118 C1119 1.362 . S
C1119 H1109 0.930 . S
C1119 C1112 1.409 . S
C1119 C1118 1.362 . S
H1120 C1126 0.930 . S
H1121 C1129 0.930 . S
H1122 C1130 0.930 . S
H1123 C1131 0.930 . S
H1124 C1134 0.930 . S
H1125 C1135 0.930 . S
C1126 H1120 0.930 . S
C1126 C1127 1.355 . S
C1126 C1128 1.415 . S
C1127 C1126 1.355 . S
C1127 C1129 1.419 . S
C1128 C1126 1.415 . S
C1128 C1133 1.425 . S
C1128 C1135 1.409 . S
C1129 H1121 0.930 . S
C1129 C1127 1.419 . S
C1129 C1130 1.362 . S
C1130 H1122 0.930 . S
C1130 C1129 1.362 . S
C1130 C1133 1.409 . S
C1131 H1123 0.930 . S
C1131 C1132 1.355 . S
C1131 C1133 1.415 . S
C1132 C1131 1.355 . S
C1132 C1134 1.419 . S
C1133 C1128 1.425 . S
C1133 C1130 1.409 . S
C1133 C1131 1.415 . S
C1134 H1124 0.930 . S
C1134 C1132 1.419 . S
C1134 C1135 1.362 . S
C1135 H1125 0.930 . S
C1135 C1128 1.409 . S
C1135 C1134 1.362 . S
H1136 C1142 0.930 . S
H1137 C1145 0.930 . S
H1138 C1146 0.930 . S
H1139 C1147 0.930 . S
H1140 C1150 0.930 . S
H1141 C1151 0.930 . S
C1142 H1136 0.930 . S
C1142 C1143 1.355 . S
C1142 C1144 1.415 . S
C1143 C1142 1.355 . S
C1143 C1145 1.419 . S
C1144 C1142 1.415 . S
C1144 C1149 1.425 . S
C1144 C1151 1.409 . S
C1145 H1137 0.930 . S
C1145 C1143 1.419 . S
C1145 C1146 1.362 . S
C1146 H1138 0.930 . S
C1146 C1145 1.362 . S
C1146 C1149 1.409 . S
C1147 H1139 0.930 . S
C1147 C1148 1.355 . S
C1147 C1149 1.415 . S
C1148 C1147 1.355 . S
C1148 C1150 1.419 . S
C1149 C1144 1.425 . S
C1149 C1146 1.409 . S
C1149 C1147 1.415 . S
C1150 H1140 0.930 . S
C1150 C1148 1.419 . S
C1150 C1151 1.362 . S
C1151 H1141 0.930 . S
C1151 C1144 1.409 . S
C1151 C1150 1.362 . S
H1152 C1158 0.930 . S
H1153 C1161 0.930 . S
H1154 C1162 0.930 . S
H1155 C1163 0.930 . S
H1156 C1166 0.930 . S
H1157 C1167 0.930 . S
C1158 H1152 0.930 . S
C1158 C1159 1.355 . S
C1158 C1160 1.415 . S
C1159 C1158 1.355 . S
C1159 C1161 1.419 . S
C1160 C1158 1.415 . S
C1160 C1165 1.425 . S
C1160 C1167 1.409 . S
C1161 H1153 0.930 . S
C1161 C1159 1.419 . S
C1161 C1162 1.362 . S
C1162 H1154 0.930 . S
C1162 C1161 1.362 . S
C1162 C1165 1.409 . S
C1163 H1155 0.930 . S
C1163 C1164 1.355 . S
C1163 C1165 1.415 . S
C1164 C1163 1.355 . S
C1164 C1166 1.419 . S
C1165 C1160 1.425 . S
C1165 C1162 1.409 . S
C1165 C1163 1.415 . S
C1166 H1156 0.930 . S
C1166 C1164 1.419 . S
C1166 C1167 1.362 . S
C1167 H1157 0.930 . S
C1167 C1160 1.409 . S
C1167 C1166 1.362 . S
H1168 C1174 0.930 . S
H1169 C1177 0.930 . S
H1170 C1178 0.930 . S
H1171 C1179 0.930 . S
H1172 C1182 0.930 . S
H1173 C1183 0.930 . S
C1174 H1168 0.930 . S
C1174 C1175 1.355 . S
C1174 C1176 1.415 . S
C1175 C1174 1.355 . S
C1175 C1177 1.419 . S
C1176 C1174 1.415 . S
C1176 C1181 1.425 . S
C1176 C1183 1.409 . S
C1177 H1169 0.930 . S
C1177 C1175 1.419 . S
C1177 C1178 1.362 . S
C1178 H1170 0.930 . S
C1178 C1177 1.362 . S
C1178 C1181 1.409 . S
C1179 H1171 0.930 . S
C1179 C1180 1.355 . S
C1179 C1181 1.415 . S
C1180 C1179 1.355 . S
C1180 C1182 1.419 . S
C1181 C1176 1.425 . S
C1181 C1178 1.409 . S
C1181 C1179 1.415 . S
C1182 H1172 0.930 . S
C1182 C1180 1.419 . S
C1182 C1183 1.362 . S
C1183 H1173 0.930 . S
C1183 C1176 1.409 . S
C1183 C1182 1.362 . S
H1184 C1190 0.930 . S
H1185 C1193 0.930 . S
H1186 C1194 0.930 . S
H1187 C1195 0.930 . S
H1188 C1198 0.930 . S
H1189 C1199 0.930 . S
C1190 H1184 0.930 . S
C1190 C1191 1.355 . S
C1190 C1192 1.415 . S
C1191 C1190 1.355 . S
C1191 C1193 1.419 . S
C1192 C1190 1.415 . S
C1192 C1197 1.425 . S
C1192 C1199 1.409 . S
C1193 H1185 0.930 . S
C1193 C1191 1.419 . S
C1193 C1194 1.362 . S
C1194 H1186 0.930 . S
C1194 C1193 1.362 . S
C1194 C1197 1.409 . S
C1195 H1187 0.930 . S
C1195 C1196 1.355 . S
C1195 C1197 1.415 . S
C1196 C1195 1.355 . S
C1196 C1198 1.419 . S
C1197 C1192 1.425 . S
C1197 C1194 1.409 . S
C1197 C1195 1.415 . S
C1198 H1188 0.930 . S
C1198 C1196 1.419 . S
C1198 C1199 1.362 . S
C1199 H1189 0.930 . S
C1199 C1192 1.409 . S
C1199 C1198 1.362 . S
H1200 C1206 0.930 . S
H1201 C1209 0.928 1_565 S
H1202 C1210 0.930 . S
H1203 C1211 0.930 . S
H1204 C1214 0.930 . S
H1205 C1215 0.947 . S
C1206 H1200 0.930 . S
C1206 C1207 1.355 . S
C1206 C1208 1.415 1_565 S
C1207 C1206 1.355 . S
C1207 C1209 1.419 1_565 S
C1208 C1206 1.415 1_545 S
C1208 C1213 1.425 . S
C1208 C1215 1.409 . S
C1209 H1201 0.928 1_545 S
C1209 C1207 1.419 1_545 S
C1209 C1210 1.362 . S
C1210 H1202 0.930 . S
C1210 C1209 1.362 . S
C1210 C1213 1.409 . S
C1211 H1203 0.930 . S
C1211 C1212 1.355 . S
C1211 C1213 1.415 . S
C1212 C1211 1.355 . S
C1212 C1214 1.419 . S
C1213 C1208 1.425 . S
C1213 C1210 1.409 . S
C1213 C1211 1.415 . S
C1214 H1204 0.930 . S
C1214 C1212 1.419 . S
C1214 C1215 1.362 . S
C1215 H1205 0.947 . S
C1215 C1208 1.409 . S
C1215 C1214 1.362 . S
H1216 C1222 0.930 . S
H1217 C1225 0.930 . S
H1218 C1226 0.930 . S
H1219 C1227 0.930 . S
H1220 C1230 0.930 . S
H1221 C1231 0.930 . S
C1222 H1216 0.930 . S
C1222 C1223 1.355 . S
C1222 C1224 1.415 . S
C1223 C1222 1.355 . S
C1223 C1225 1.419 . S
C1224 C1222 1.415 . S
C1224 C1229 1.425 . S
C1224 C1231 1.409 . S
C1225 H1217 0.930 . S
C1225 C1223 1.419 . S
C1225 C1226 1.362 . S
C1226 H1218 0.930 . S
C1226 C1225 1.362 . S
C1226 C1229 1.409 . S
C1227 H1219 0.930 . S
C1227 C1228 1.355 . S
C1227 C1229 1.415 . S
C1228 C1227 1.355 . S
C1228 C1230 1.419 . S
C1229 C1224 1.425 . S
C1229 C1226 1.409 . S
C1229 C1227 1.415 . S
C1230 H1220 0.930 . S
C1230 C1228 1.419 . S
C1230 C1231 1.362 . S
C1231 H1221 0.930 . S
C1231 C1224 1.409 . S
C1231 C1230 1.362 . S
H1232 C1238 0.930 . S
H1233 C1241 0.930 . S
H1234 C1242 0.930 . S
H1235 C1243 0.930 . S
H1236 C1246 0.930 . S
H1237 C1247 0.930 . S
C1238 H1232 0.930 . S
C1238 C1239 1.355 . S
C1238 C1240 1.415 . S
C1239 C1238 1.355 . S
C1239 C1241 1.419 . S
C1240 C1238 1.415 . S
C1240 C1245 1.425 . S
C1240 C1247 1.409 . S
C1241 H1233 0.930 . S
C1241 C1239 1.419 . S
C1241 C1242 1.362 . S
C1242 H1234 0.930 . S
C1242 C1241 1.362 . S
C1242 C1245 1.409 . S
C1243 H1235 0.930 . S
C1243 C1244 1.355 . S
C1243 C1245 1.415 . S
C1244 C1243 1.355 . S
C1244 C1246 1.419 . S
C1245 C1240 1.425 . S
C1245 C1242 1.409 . S
C1245 C1243 1.415 . S
C1246 H1236 0.930 . S
C1246 C1244 1.419 . S
C1246 C1247 1.362 . S
C1247 H1237 0.930 . S
C1247 C1240 1.409 . S
C1247 C1246 1.362 . S
H1248 C1254 0.930 . S
H1249 C1257 0.930 . S
H1250 C1258 0.930 . S
H1251 C1259 0.930 . S
H1252 C1262 0.930 . S
H1253 C1263 0.930 . S
C1254 H1248 0.930 . S
C1254 C1255 1.355 . S
C1254 C1256 1.415 . S
C1255 C1254 1.355 . S
C1255 C1257 1.419 . S
C1256 C1254 1.415 . S
C1256 C1261 1.425 . S
C1256 C1263 1.409 . S
C1257 H1249 0.930 . S
C1257 C1255 1.419 . S
C1257 C1258 1.362 . S
C1258 H1250 0.930 . S
C1258 C1257 1.362 . S
C1258 C1261 1.409 . S
C1259 H1251 0.930 . S
C1259 C1260 1.355 . S
C1259 C1261 1.415 . S
C1260 C1259 1.355 . S
C1260 C1262 1.419 . S
C1261 C1256 1.425 . S
C1261 C1258 1.409 . S
C1261 C1259 1.415 . S
C1262 H1252 0.930 . S
C1262 C1260 1.419 . S
C1262 C1263 1.362 . S
C1263 H1253 0.930 . S
C1263 C1256 1.409 . S
C1263 C1262 1.362 . S
H1264 C1270 0.930 . S
H1265 C1273 0.930 . S
H1266 C1274 0.930 . S
H1267 C1275 0.930 . S
H1268 C1278 0.930 . S
H1269 C1279 0.930 . S
C1270 H1264 0.930 . S
C1270 C1271 1.355 . S
C1270 C1272 1.415 1_565 S
C1271 C1270 1.355 . S
C1271 C1273 1.419 . S
C1272 C1270 1.415 1_545 S
C1272 C1277 1.425 . S
C1272 C1279 1.409 . S
C1273 H1265 0.930 . S
C1273 C1271 1.419 . S
C1273 C1274 1.362 1_565 S
C1274 H1266 0.930 . S
C1274 C1273 1.362 1_545 S
C1274 C1277 1.409 . S
C1275 H1267 0.930 . S
C1275 C1276 1.355 . S
C1275 C1277 1.415 . S
C1276 C1275 1.355 . S
C1276 C1278 1.419 . S
C1277 C1272 1.425 . S
C1277 C1274 1.409 . S
C1277 C1275 1.415 . S
C1278 H1268 0.930 . S
C1278 C1276 1.419 . S
C1278 C1279 1.362 . S
C1279 H1269 0.930 . S
C1279 C1272 1.409 . S
C1279 C1278 1.362 . S
H1280 C1286 0.930 . S
H1281 C1289 0.930 . S
H1282 C1290 0.930 . S
H1283 C1291 0.930 . S
H1284 C1294 0.930 . S
H1285 C1295 0.930 . S
C1286 H1280 0.930 . S
C1286 C1287 1.355 . S
C1286 C1288 1.415 . S
C1287 C1286 1.355 . S
C1287 C1289 1.419 . S
C1288 C1286 1.415 . S
C1288 C1293 1.425 . S
C1288 C1295 1.409 . S
C1289 H1281 0.930 . S
C1289 C1287 1.419 . S
C1289 C1290 1.362 . S
C1290 H1282 0.930 . S
C1290 C1289 1.362 . S
C1290 C1293 1.409 . S
C1291 H1283 0.930 . S
C1291 C1292 1.355 . S
C1291 C1293 1.415 . S
C1292 C1291 1.355 . S
C1292 C1294 1.419 . S
C1293 C1288 1.425 . S
C1293 C1290 1.409 . S
C1293 C1291 1.415 . S
C1294 H1284 0.930 . S
C1294 C1292 1.419 . S
C1294 C1295 1.362 . S
C1295 H1285 0.930 . S
C1295 C1288 1.409 . S
C1295 C1294 1.362 . S
H1296 C1302 0.930 . S
H1297 C1305 0.930 . S
H1298 C1306 0.930 . S
H1299 C1307 0.930 . S
H1300 C1310 0.930 . S
H1301 C1311 0.930 . S
C1302 H1296 0.930 . S
C1302 C1303 1.355 . S
C1302 C1304 1.415 . S
C1303 C1302 1.355 . S
C1303 C1305 1.419 . S
C1304 C1302 1.415 . S
C1304 C1309 1.425 . S
C1304 C1311 1.409 . S
C1305 H1297 0.930 . S
C1305 C1303 1.419 . S
C1305 C1306 1.362 . S
C1306 H1298 0.930 . S
C1306 C1305 1.362 . S
C1306 C1309 1.409 . S
C1307 H1299 0.930 . S
C1307 C1308 1.355 . S
C1307 C1309 1.415 . S
C1308 C1307 1.355 . S
C1308 C1310 1.419 . S
C1309 C1304 1.425 . S
C1309 C1306 1.409 . S
C1309 C1307 1.415 . S
C1310 H1300 0.930 . S
C1310 C1308 1.419 . S
C1310 C1311 1.362 . S
C1311 H1301 0.930 . S
C1311 C1304 1.409 . S
C1311 C1310 1.362 . S
H1312 C1318 0.930 . S
H1313 C1321 0.930 . S
H1314 C1322 0.930 . S
H1315 C1323 0.930 . S
H1316 C1326 0.930 . S
H1317 C1327 0.930 . S
C1318 H1312 0.930 . S
C1318 C1319 1.355 . S
C1318 C1320 1.415 . S
C1319 C1318 1.355 . S
C1319 C1321 1.419 . S
C1320 C1318 1.415 . S
C1320 C1325 1.425 . S
C1320 C1327 1.409 . S
C1321 H1313 0.930 . S
C1321 C1319 1.419 . S
C1321 C1322 1.362 . S
C1322 H1314 0.930 . S
C1322 C1321 1.362 . S
C1322 C1325 1.409 . S
C1323 H1315 0.930 . S
C1323 C1324 1.355 . S
C1323 C1325 1.415 . S
C1324 C1323 1.355 . S
C1324 C1326 1.419 . S
C1325 C1320 1.425 . S
C1325 C1322 1.409 . S
C1325 C1323 1.415 . S
C1326 H1316 0.930 . S
C1326 C1324 1.419 . S
C1326 C1327 1.362 . S
C1327 H1317 0.930 . S
C1327 C1320 1.409 . S
C1327 C1326 1.362 . S
H1328 C1334 0.930 . S
H1329 C1337 0.930 . S
H1330 C1338 0.930 . S
H1331 C1339 0.930 . S
H1332 C1342 0.930 . S
H1333 C1343 0.930 . S
C1334 H1328 0.930 . S
C1334 C1335 1.355 . S
C1334 C1336 1.415 . S
C1335 C1334 1.355 . S
C1335 C1337 1.419 . S
C1336 C1334 1.415 . S
C1336 C1341 1.425 . S
C1336 C1343 1.409 . S
C1337 H1329 0.930 . S
C1337 C1335 1.419 . S
C1337 C1338 1.362 . S
C1338 H1330 0.930 . S
C1338 C1337 1.362 . S
C1338 C1341 1.409 . S
C1339 H1331 0.930 . S
C1339 C1340 1.355 . S
C1339 C1341 1.415 . S
C1340 C1339 1.355 . S
C1340 C1342 1.419 . S
C1341 C1336 1.425 . S
C1341 C1338 1.409 . S
C1341 C1339 1.415 . S
C1342 H1332 0.930 . S
C1342 C1340 1.419 . S
C1342 C1343 1.362 . S
C1343 H1333 0.930 . S
C1343 C1336 1.409 . S
C1343 C1342 1.362 . S
H1344 C1350 0.930 . S
H1345 C1353 0.930 . S
H1346 C1354 0.930 . S
H1347 C1355 0.930 . S
H1348 C1358 0.930 . S
H1349 C1359 0.930 . S
C1350 H1344 0.930 . S
C1350 C1351 1.355 . S
C1350 C1352 1.415 . S
C1351 C1350 1.355 . S
C1351 C1353 1.419 . S
C1352 C1350 1.415 . S
C1352 C1357 1.425 . S
C1352 C1359 1.409 . S
C1353 H1345 0.930 . S
C1353 C1351 1.419 . S
C1353 C1354 1.362 . S
C1354 H1346 0.930 . S
C1354 C1353 1.362 . S
C1354 C1357 1.409 . S
C1355 H1347 0.930 . S
C1355 C1356 1.355 . S
C1355 C1357 1.415 . S
C1356 C1355 1.355 . S
C1356 C1358 1.419 . S
C1357 C1352 1.425 . S
C1357 C1354 1.409 . S
C1357 C1355 1.415 . S
C1358 H1348 0.930 . S
C1358 C1356 1.419 . S
C1358 C1359 1.362 . S
C1359 H1349 0.930 . S
C1359 C1352 1.409 . S
C1359 C1358 1.362 . S
H1360 C1366 0.930 . S
H1361 C1369 0.930 . S
H1362 C1370 0.930 . S
H1363 C1371 0.930 . S
H1364 C1374 0.930 . S
H1365 C1375 0.930 . S
C1366 H1360 0.930 . S
C1366 C1367 1.355 . S
C1366 C1368 1.415 . S
C1367 C1366 1.355 . S
C1367 C1369 1.419 . S
C1368 C1366 1.415 . S
C1368 C1373 1.425 . S
C1368 C1375 1.409 . S
C1369 H1361 0.930 . S
C1369 C1367 1.419 . S
C1369 C1370 1.362 . S
C1370 H1362 0.930 . S
C1370 C1369 1.362 . S
C1370 C1373 1.409 . S
C1371 H1363 0.930 . S
C1371 C1372 1.355 . S
C1371 C1373 1.415 . S
C1372 C1371 1.355 . S
C1372 C1374 1.419 . S
C1373 C1368 1.425 . S
C1373 C1370 1.409 . S
C1373 C1371 1.415 . S
C1374 H1364 0.930 . S
C1374 C1372 1.419 . S
C1374 C1375 1.362 . S
C1375 H1365 0.930 . S
C1375 C1368 1.409 . S
C1375 C1374 1.362 . S
H1376 C1382 0.930 . S
H1377 C1385 0.930 . S
H1378 C1386 0.930 . S
H1379 C1387 0.930 . S
H1380 C1390 0.930 . S
H1381 C1391 0.930 . S
C1382 H1376 0.930 . S
C1382 C1383 1.355 . S
C1382 C1384 1.415 . S
C1383 C1382 1.355 . S
C1383 C1385 1.419 . S
C1384 C1382 1.415 . S
C1384 C1389 1.425 1_455 S
C1384 C1391 1.409 . S
C1385 H1377 0.930 . S
C1385 C1383 1.419 . S
C1385 C1386 1.362 1_455 S
C1386 H1378 0.930 . S
C1386 C1385 1.362 1_655 S
C1386 C1389 1.409 . S
C1387 H1379 0.930 . S
C1387 C1388 1.355 . S
C1387 C1389 1.415 . S
C1388 C1387 1.355 . S
C1388 C1390 1.419 . S
C1389 C1384 1.425 1_655 S
C1389 C1386 1.409 . S
C1389 C1387 1.415 . S
C1390 H1380 0.930 . S
C1390 C1388 1.419 . S
C1390 C1391 1.362 1_655 S
C1391 H1381 0.930 . S
C1391 C1384 1.409 . S
C1391 C1390 1.362 1_455 S
H1392 C1398 0.930 . S
H1393 C1401 0.930 . S
H1394 C1402 0.930 . S
H1395 C1403 0.930 . S
H1396 C1406 0.930 . S
H1397 C1407 0.930 . S
C1398 H1392 0.930 . S
C1398 C1399 1.355 . S
C1398 C1400 1.415 . S
C1399 C1398 1.355 . S
C1399 C1401 1.419 . S
C1400 C1398 1.415 . S
C1400 C1405 1.425 . S
C1400 C1407 1.409 . S
C1401 H1393 0.930 . S
C1401 C1399 1.419 . S
C1401 C1402 1.362 . S
C1402 H1394 0.930 . S
C1402 C1401 1.362 . S
C1402 C1405 1.409 . S
C1403 H1395 0.930 . S
C1403 C1404 1.355 . S
C1403 C1405 1.415 . S
C1404 C1403 1.355 . S
C1404 C1406 1.419 . S
C1405 C1400 1.425 . S
C1405 C1402 1.409 . S
C1405 C1403 1.415 . S
C1406 H1396 0.930 . S
C1406 C1404 1.419 . S
C1406 C1407 1.362 . S
C1407 H1397 0.930 . S
C1407 C1400 1.409 . S
C1407 C1406 1.362 . S
H1408 C1414 0.930 . S
H1409 C1417 0.930 . S
H1410 C1418 0.930 . S
H1411 C1419 0.930 . S
H1412 C1422 0.930 . S
H1413 C1423 0.930 . S
C1414 H1408 0.930 . S
C1414 C1415 1.355 . S
C1414 C1416 1.415 . S
C1415 C1414 1.355 . S
C1415 C1417 1.419 . S
C1416 C1414 1.415 . S
C1416 C1421 1.425 . S
C1416 C1423 1.409 . S
C1417 H1409 0.930 . S
C1417 C1415 1.419 . S
C1417 C1418 1.362 . S
C1418 H1410 0.930 . S
C1418 C1417 1.362 . S
C1418 C1421 1.409 . S
C1419 H1411 0.930 . S
C1419 C1420 1.355 . S
C1419 C1421 1.415 . S
C1420 C1419 1.355 . S
C1420 C1422 1.419 . S
C1421 C1416 1.425 . S
C1421 C1418 1.409 . S
C1421 C1419 1.415 . S
C1422 H1412 0.930 . S
C1422 C1420 1.419 . S
C1422 C1423 1.362 . S
C1423 H1413 0.930 . S
C1423 C1416 1.409 . S
C1423 C1422 1.362 . S
H1424 C1430 0.930 . S
H1425 C1433 0.930 . S
H1426 C1434 0.930 . S
H1427 C1435 0.930 . S
H1428 C1438 0.930 . S
H1429 C1439 0.930 . S
C1430 H1424 0.930 . S
C1430 C1431 1.355 . S
C1430 C1432 1.415 . S
C1431 C1430 1.355 . S
C1431 C1433 1.419 . S
C1432 C1430 1.415 . S
C1432 C1437 1.425 . S
C1432 C1439 1.409 . S
C1433 H1425 0.930 . S
C1433 C1431 1.419 . S
C1433 C1434 1.362 . S
C1434 H1426 0.930 . S
C1434 C1433 1.362 . S
C1434 C1437 1.409 . S
C1435 H1427 0.930 . S
C1435 C1436 1.355 . S
C1435 C1437 1.415 . S
C1436 C1435 1.355 . S
C1436 C1438 1.419 . S
C1437 C1432 1.425 . S
C1437 C1434 1.409 . S
C1437 C1435 1.415 . S
C1438 H1428 0.930 . S
C1438 C1436 1.419 . S
C1438 C1439 1.362 . S
C1439 H1429 0.930 . S
C1439 C1432 1.409 . S
C1439 C1438 1.362 . S
H1440 C1446 0.930 . S
H1441 C1449 0.930 . S
H1442 C1450 0.930 . S
H1443 C1451 0.930 . S
H1444 C1454 0.930 . S
H1445 C1455 0.930 . S
C1446 H1440 0.930 . S
C1446 C1447 1.355 . S
C1446 C1448 1.415 . S
C1447 C1446 1.355 . S
C1447 C1449 1.419 . S
C1448 C1446 1.415 . S
C1448 C1453 1.425 . S
C1448 C1455 1.409 . S
C1449 H1441 0.930 . S
C1449 C1447 1.419 . S
C1449 C1450 1.362 . S
C1450 H1442 0.930 . S
C1450 C1449 1.362 . S
C1450 C1453 1.409 . S
C1451 H1443 0.930 . S
C1451 C1452 1.355 . S
C1451 C1453 1.415 . S
C1452 C1451 1.355 . S
C1452 C1454 1.419 . S
C1453 C1448 1.425 . S
C1453 C1450 1.409 . S
C1453 C1451 1.415 . S
C1454 H1444 0.930 . S
C1454 C1452 1.419 . S
C1454 C1455 1.362 . S
C1455 H1445 0.930 . S
C1455 C1448 1.409 . S
C1455 C1454 1.362 . S
H1456 C1462 0.930 . S
H1457 C1465 0.930 . S
H1458 C1466 0.930 . S
H1459 C1467 0.930 . S
H1460 C1470 0.930 . S
H1461 C1471 0.930 . S
C1462 H1456 0.930 . S
C1462 C1463 1.355 . S
C1462 C1464 1.415 . S
C1463 C1462 1.355 . S
C1463 C1465 1.419 . S
C1464 C1462 1.415 . S
C1464 C1469 1.425 . S
C1464 C1471 1.409 . S
C1465 H1457 0.930 . S
C1465 C1463 1.419 . S
C1465 C1466 1.362 . S
C1466 H1458 0.930 . S
C1466 C1465 1.362 . S
C1466 C1469 1.409 . S
C1467 H1459 0.930 . S
C1467 C1468 1.355 . S
C1467 C1469 1.415 . S
C1468 C1467 1.355 . S
C1468 C1470 1.419 . S
C1469 C1464 1.425 . S
C1469 C1466 1.409 . S
C1469 C1467 1.415 . S
C1470 H1460 0.930 . S
C1470 C1468 1.419 . S
C1470 C1471 1.362 . S
C1471 H1461 0.930 . S
C1471 C1464 1.409 . S
C1471 C1470 1.362 . S
H1472 C1478 0.930 . S
H1473 C1481 0.930 . S
H1474 C1482 0.930 . S
H1475 C1483 0.930 . S
H1476 C1486 0.930 . S
H1477 C1487 0.930 . S
C1478 H1472 0.930 . S
C1478 C1479 1.355 . S
C1478 C1480 1.415 . S
C1479 C1478 1.355 . S
C1479 C1481 1.419 . S
C1480 C1478 1.415 . S
C1480 C1485 1.425 . S
C1480 C1487 1.409 . S
C1481 H1473 0.930 . S
C1481 C1479 1.419 . S
C1481 C1482 1.362 . S
C1482 H1474 0.930 . S
C1482 C1481 1.362 . S
C1482 C1485 1.409 . S
C1483 H1475 0.930 . S
C1483 C1484 1.355 . S
C1483 C1485 1.415 . S
C1484 C1483 1.355 . S
C1484 C1486 1.419 . S
C1485 C1480 1.425 . S
C1485 C1482 1.409 . S
C1485 C1483 1.415 . S
C1486 H1476 0.930 . S
C1486 C1484 1.419 . S
C1486 C1487 1.362 . S
C1487 H1477 0.930 . S
C1487 C1480 1.409 . S
C1487 C1486 1.362 . S
H1488 C1494 0.930 . S
H1489 C1497 0.930 . S
H1490 C1498 0.930 . S
H1491 C1499 0.930 . S
H1492 C1502 0.930 . S
H1493 C1503 0.930 . S
C1494 H1488 0.930 . S
C1494 C1495 1.355 . S
C1494 C1496 1.415 . S
C1495 C1494 1.355 . S
C1495 C1497 1.419 . S
C1496 C1494 1.415 . S
C1496 C1501 1.425 . S
C1496 C1503 1.409 . S
C1497 H1489 0.930 . S
C1497 C1495 1.419 . S
C1497 C1498 1.362 . S
C1498 H1490 0.930 . S
C1498 C1497 1.362 . S
C1498 C1501 1.409 . S
C1499 H1491 0.930 . S
C1499 C1500 1.355 . S
C1499 C1501 1.415 . S
C1500 C1499 1.355 . S
C1500 C1502 1.419 . S
C1501 C1496 1.425 . S
C1501 C1498 1.409 . S
C1501 C1499 1.415 . S
C1502 H1492 0.930 . S
C1502 C1500 1.419 . S
C1502 C1503 1.362 . S
C1503 H1493 0.930 . S
C1503 C1496 1.409 . S
C1503 C1502 1.362 . S
H1504 C1510 0.930 . S
H1505 C1513 0.930 . S
H1506 C1514 0.930 . S
H1507 C1515 0.930 . S
H1508 C1518 0.930 . S
H1509 C1519 0.930 . S
C1510 H1504 0.930 . S
C1510 C1511 1.355 . S
C1510 C1512 1.415 . S
C1511 C1510 1.355 . S
C1511 C1513 1.419 . S
C1512 C1510 1.415 . S
C1512 C1517 1.425 . S
C1512 C1519 1.409 . S
C1513 H1505 0.930 . S
C1513 C1511 1.419 . S
C1513 C1514 1.362 . S
C1514 H1506 0.930 . S
C1514 C1513 1.362 . S
C1514 C1517 1.409 . S
C1515 H1507 0.930 . S
C1515 C1516 1.355 . S
C1515 C1517 1.415 . S
C1516 C1515 1.355 . S
C1516 C1518 1.419 . S
C1517 C1512 1.425 . S
C1517 C1514 1.409 . S
C1517 C1515 1.415 . S
C1518 H1508 0.930 . S
C1518 C1516 1.419 . S
C1518 C1519 1.362 . S
C1519 H1509 0.930 . S
C1519 C1512 1.409 . S
C1519 C1518 1.362 . S
H1520 C1526 0.930 . S
H1521 C1529 0.930 . S
H1522 C1530 0.930 . S
H1523 C1531 0.930 . S
H1524 C1534 0.930 . S
H1525 C1535 0.930 . S
C1526 H1520 0.930 . S
C1526 C1527 1.355 . S
C1526 C1528 1.415 . S
C1527 C1526 1.355 . S
C1527 C1529 1.419 . S
C1528 C1526 1.415 . S
C1528 C1533 1.425 . S
C1528 C1535 1.409 . S
C1529 H1521 0.930 . S
C1529 C1527 1.419 . S
C1529 C1530 1.362 . S
C1530 H1522 0.930 . S
C1530 C1529 1.362 . S
C1530 C1533 1.409 . S
C1531 H1523 0.930 . S
C1531 C1532 1.355 . S
C1531 C1533 1.415 . S
C1532 C1531 1.355 . S
C1532 C1534 1.419 . S
C1533 C1528 1.425 . S
C1533 C1530 1.409 . S
C1533 C1531 1.415 . S
C1534 H1524 0.930 . S
C1534 C1532 1.419 . S
C1534 C1535 1.362 . S
C1535 H1525 0.930 . S
C1535 C1528 1.409 . S
C1535 C1534 1.362 . S
H1536 C1542 0.930 . S
H1537 C1545 0.930 . S
H1538 C1546 0.930 . S
H1539 C1547 0.930 . S
H1540 C1550 0.930 . S
H1541 C1551 0.930 . S
C1542 H1536 0.930 . S
C1542 C1543 1.355 . S
C1542 C1544 1.415 . S
C1543 C1542 1.355 . S
C1543 C1545 1.419 . S
C1544 C1542 1.415 . S
C1544 C1549 1.425 . S
C1544 C1551 1.409 . S
C1545 H1537 0.930 . S
C1545 C1543 1.419 . S
C1545 C1546 1.362 . S
C1546 H1538 0.930 . S
C1546 C1545 1.362 . S
C1546 C1549 1.409 . S
C1547 H1539 0.930 . S
C1547 C1548 1.355 . S
C1547 C1549 1.415 . S
C1548 C1547 1.355 . S
C1548 C1550 1.419 . S
C1549 C1544 1.425 . S
C1549 C1546 1.409 . S
C1549 C1547 1.415 . S
C1550 H1540 0.930 . S
C1550 C1548 1.419 . S
C1550 C1551 1.362 . S
C1551 H1541 0.930 . S
C1551 C1544 1.409 . S
C1551 C1550 1.362 . S
H1552 C1558 0.930 . S
H1553 C1561 0.930 . S
H1554 C1562 0.930 . S
H1555 C1563 0.930 . S
H1556 C1566 0.930 . S
H1557 C1567 0.930 . S
C1558 H1552 0.930 . S
C1558 C1559 1.355 . S
C1558 C1560 1.415 . S
C1559 C1558 1.355 . S
C1559 C1561 1.419 . S
C1560 C1558 1.415 . S
C1560 C1565 1.425 . S
C1560 C1567 1.409 . S
C1561 H1553 0.930 . S
C1561 C1559 1.419 . S
C1561 C1562 1.362 . S
C1562 H1554 0.930 . S
C1562 C1561 1.362 . S
C1562 C1565 1.409 . S
C1563 H1555 0.930 . S
C1563 C1564 1.355 . S
C1563 C1565 1.415 . S
C1564 C1563 1.355 . S
C1564 C1566 1.419 . S
C1565 C1560 1.425 . S
C1565 C1562 1.409 . S
C1565 C1563 1.415 . S
C1566 H1556 0.930 . S
C1566 C1564 1.419 . S
C1566 C1567 1.362 . S
C1567 H1557 0.930 . S
C1567 C1560 1.409 . S
C1567 C1566 1.362 . S
H1568 C1574 0.930 . S
H1569 C1577 0.930 . S
H1570 C1578 0.930 . S
H1571 C1579 0.930 . S
H1572 C1582 0.930 . S
H1573 C1583 0.930 . S
C1574 H1568 0.930 . S
C1574 C1575 1.355 . S
C1574 C1576 1.415 . S
C1575 C1574 1.355 . S
C1575 C1577 1.419 . S
C1576 C1574 1.415 . S
C1576 C1581 1.425 . S
C1576 C1583 1.409 . S
C1577 H1569 0.930 . S
C1577 C1575 1.419 . S
C1577 C1578 1.362 . S
C1578 H1570 0.930 . S
C1578 C1577 1.362 . S
C1578 C1581 1.409 . S
C1579 H1571 0.930 . S
C1579 C1580 1.355 . S
C1579 C1581 1.415 . S
C1580 C1579 1.355 . S
C1580 C1582 1.419 . S
C1581 C1576 1.425 . S
C1581 C1578 1.409 . S
C1581 C1579 1.415 . S
C1582 H1572 0.930 . S
C1582 C1580 1.419 . S
C1582 C1583 1.362 . S
C1583 H1573 0.930 . S
C1583 C1576 1.409 . S
C1583 C1582 1.362 . S
H1584 C1590 0.930 . S
H1585 C1593 0.930 . S
H1586 C1594 0.930 . S
H1587 C1595 0.930 . S
H1588 C1598 0.930 . S
H1589 C1599 0.930 . S
C1590 H1584 0.930 . S
C1590 C1591 1.355 . S
C1590 C1592 1.415 . S
C1591 C1590 1.355 . S
C1591 C1593 1.419 . S
C1592 C1590 1.415 . S
C1592 C1597 1.425 . S
C1592 C1599 1.409 . S
C1593 H1585 0.930 . S
C1593 C1591 1.419 . S
C1593 C1594 1.362 . S
C1594 H1586 0.930 . S
C1594 C1593 1.362 . S
C1594 C1597 1.409 . S
C1595 H1587 0.930 . S
C1595 C1596 1.355 . S
C1595 C1597 1.415 . S
C1596 C1595 1.355 . S
C1596 C1598 1.419 . S
C1597 C1592 1.425 . S
C1597 C1594 1.409 . S
C1597 C1595 1.415 . S
C1598 H1588 0.930 . S
C1598 C1596 1.419 . S
C1598 C1599 1.362 . S
C1599 H1589 0.930 . S
C1599 C1592 1.409 . S
C1599 C1598 1.362 . S
H1600 C1606 0.930 . S
H1601 C1609 0.930 . S
H1602 C1610 0.930 . S
H1603 C1611 0.930 . S
H1604 C1614 0.930 . S
H1605 C1615 0.930 . S
C1606 H1600 0.930 . S
C1606 C1607 1.355 . S
C1606 C1608 1.415 . S
C1607 C1606 1.355 . S
C1607 C1609 1.419 . S
C1608 C1606 1.415 . S
C1608 C1613 1.425 . S
C1608 C1615 1.409 . S
C1609 H1601 0.930 . S
C1609 C1607 1.419 . S
C1609 C1610 1.362 . S
C1610 H1602 0.930 . S
C1610 C1609 1.362 . S
C1610 C1613 1.409 . S
C1611 H1603 0.930 . S
C1611 C1612 1.355 . S
C1611 C1613 1.415 . S
C1612 C1611 1.355 . S
C1612 C1614 1.419 . S
C1613 C1608 1.425 . S
C1613 C1610 1.409 . S
C1613 C1611 1.415 . S
C1614 H1604 0.930 . S
C1614 C1612 1.419 . S
C1614 C1615 1.362 . S
C1615 H1605 0.930 . S
C1615 C1608 1.409 . S
C1615 C1614 1.362 . S
H1616 C1622 0.930 . S
H1617 C1625 0.930 . S
H1618 C1626 0.930 . S
H1619 C1627 0.930 . S
H1620 C1630 0.930 . S
H1621 C1631 0.930 . S
C1622 H1616 0.930 . S
C1622 C1623 1.355 . S
C1622 C1624 1.415 . S
C1623 C1622 1.355 . S
C1623 C1625 1.419 . S
C1624 C1622 1.415 . S
C1624 C1629 1.425 . S
C1624 C1631 1.409 . S
C1625 H1617 0.930 . S
C1625 C1623 1.419 . S
C1625 C1626 1.362 . S
C1626 H1618 0.930 . S
C1626 C1625 1.362 . S
C1626 C1629 1.409 . S
C1627 H1619 0.930 . S
C1627 C1628 1.355 . S
C1627 C1629 1.415 . S
C1628 C1627 1.355 . S
C1628 C1630 1.419 . S
C1629 C1624 1.425 . S
C1629 C1626 1.409 . S
C1629 C1627 1.415 . S
C1630 H1620 0.930 . S
C1630 C1628 1.419 . S
C1630 C1631 1.362 . S
C1631 H1621 0.930 . S
C1631 C1624 1.409 . S
C1631 C1630 1.362 . S
H1632 C1638 0.930 . S
H1633 C1641 0.930 . S
H1634 C1642 0.930 . S
H1635 C1643 0.930 . S
H1636 C1646 0.930 . S
H1637 C1647 0.930 . S
C1638 H1632 0.930 . S
C1638 C1639 1.355 . S
C1638 C1640 1.415 . S
C1639 C1638 1.355 . S
C1639 C1641 1.419 . S
C1640 C1638 1.415 . S
C1640 C1645 1.425 . S
C1640 C1647 1.409 . S
C1641 H1633 0.930 . S
C1641 C1639 1.419 . S
C1641 C1642 1.362 . S
C1642 H1634 0.930 . S
C1642 C1641 1.362 . S
C1642 C1645 1.409 . S
C1643 H1635 0.930 . S
C1643 C1644 1.355 . S
C1643 C1645 1.415 . S
C1644 C1643 1.355 . S
C1644 C1646 1.419 . S
C1645 C1640 1.425 . S
C1645 C1642 1.409 . S
C1645 C1643 1.415 . S
C1646 H1636 0.930 . S
C1646 C1644 1.419 . S
C1646 C1647 1.362 . S
C1647 H1637 0.930 . S
C1647 C1640 1.409 . S
C1647 C1646 1.362 . S
H1648 C1654 0.930 . S
H1649 C1657 0.930 . S
H1650 C1658 0.930 . S
H1651 C1659 0.930 . S
H1652 C1662 0.930 . S
H1653 C1663 0.930 . S
C1654 H1648 0.930 . S
C1654 C1655 1.355 . S
C1654 C1656 1.415 . S
C1655 C1654 1.355 . S
C1655 C1657 1.419 . S
C1656 C1654 1.415 . S
C1656 C1661 1.425 . S
C1656 C1663 1.409 . S
C1657 H1649 0.930 . S
C1657 C1655 1.419 . S
C1657 C1658 1.362 . S
C1658 H1650 0.930 . S
C1658 C1657 1.362 . S
C1658 C1661 1.409 . S
C1659 H1651 0.930 . S
C1659 C1660 1.355 . S
C1659 C1661 1.415 . S
C1660 C1659 1.355 . S
C1660 C1662 1.419 . S
C1661 C1656 1.425 . S
C1661 C1658 1.409 . S
C1661 C1659 1.415 . S
C1662 H1652 0.930 . S
C1662 C1660 1.419 . S
C1662 C1663 1.362 . S
C1663 H1653 0.930 . S
C1663 C1656 1.409 . S
C1663 C1662 1.362 . S
H1664 C1670 0.930 . S
H1665 C1673 0.930 . S
H1666 C1674 0.930 . S
H1667 C1675 0.930 . S
H1668 C1678 0.930 . S
H1669 C1679 0.930 . S
C1670 H1664 0.930 . S
C1670 C1671 1.355 . S
C1670 C1672 1.415 . S
C1671 C1670 1.355 . S
C1671 C1673 1.419 . S
C1672 C1670 1.415 . S
C1672 C1677 1.425 . S
C1672 C1679 1.409 . S
C1673 H1665 0.930 . S
C1673 C1671 1.419 . S
C1673 C1674 1.362 . S
C1674 H1666 0.930 . S
C1674 C1673 1.362 . S
C1674 C1677 1.409 . S
C1675 H1667 0.930 . S
C1675 C1676 1.355 . S
C1675 C1677 1.415 . S
C1676 C1675 1.355 . S
C1676 C1678 1.419 . S
C1677 C1672 1.425 . S
C1677 C1674 1.409 . S
C1677 C1675 1.415 . S
C1678 H1668 0.930 . S
C1678 C1676 1.419 . S
C1678 C1679 1.362 . S
C1679 H1669 0.930 . S
C1679 C1672 1.409 . S
C1679 C1678 1.362 . S
H1680 C1686 0.930 . S
H1681 C1689 0.930 . S
H1682 C1690 0.930 . S
H1683 C1691 0.930 . S
H1684 C1694 0.930 . S
H1685 C1695 0.930 . S
C1686 H1680 0.930 . S
C1686 C1687 1.355 . S
C1686 C1688 1.415 . S
C1687 C1686 1.355 . S
C1687 C1689 1.419 . S
C1688 C1686 1.415 . S
C1688 C1693 1.425 . S
C1688 C1695 1.409 . S
C1689 H1681 0.930 . S
C1689 C1687 1.419 . S
C1689 C1690 1.362 . S
C1690 H1682 0.930 . S
C1690 C1689 1.362 . S
C1690 C1693 1.409 . S
C1691 H1683 0.930 . S
C1691 C1692 1.355 . S
C1691 C1693 1.415 . S
C1692 C1691 1.355 . S
C1692 C1694 1.419 . S
C1693 C1688 1.425 . S
C1693 C1690 1.409 . S
C1693 C1691 1.415 . S
C1694 H1684 0.930 . S
C1694 C1692 1.419 . S
C1694 C1695 1.362 . S
C1695 H1685 0.930 . S
C1695 C1688 1.409 . S
C1695 C1694 1.362 . S
H1696 C1702 0.930 . S
H1697 C1705 0.930 . S
H1698 C1706 0.930 . S
H1699 C1707 0.930 . S
H1700 C1710 0.930 . S
H1701 C1711 0.930 . S
C1702 H1696 0.930 . S
C1702 C1703 1.355 . S
C1702 C1704 1.415 . S
C1703 C1702 1.355 . S
C1703 C1705 1.419 . S
C1704 C1702 1.415 . S
C1704 C1709 1.425 . S
C1704 C1711 1.409 . S
C1705 H1697 0.930 . S
C1705 C1703 1.419 . S
C1705 C1706 1.362 . S
C1706 H1698 0.930 . S
C1706 C1705 1.362 . S
C1706 C1709 1.409 . S
C1707 H1699 0.930 . S
C1707 C1708 1.355 . S
C1707 C1709 1.415 . S
C1708 C1707 1.355 . S
C1708 C1710 1.419 . S
C1709 C1704 1.425 . S
C1709 C1706 1.409 . S
C1709 C1707 1.415 . S
C1710 H1700 0.930 . S
C1710 C1708 1.419 . S
C1710 C1711 1.362 . S
C1711 H1701 0.930 . S
C1711 C1704 1.409 . S
C1711 C1710 1.362 . S
H1712 C1718 0.930 . S
H1713 C1721 0.930 . S
H1714 C1722 0.930 . S
H1715 C1723 0.930 . S
H1716 C1726 0.930 . S
H1717 C1727 0.930 . S
C1718 H1712 0.930 . S
C1718 C1719 1.355 . S
C1718 C1720 1.415 . S
C1719 C1718 1.355 . S
C1719 C1721 1.419 . S
C1720 C1718 1.415 . S
C1720 C1725 1.425 . S
C1720 C1727 1.409 . S
C1721 H1713 0.930 . S
C1721 C1719 1.419 . S
C1721 C1722 1.362 . S
C1722 H1714 0.930 . S
C1722 C1721 1.362 . S
C1722 C1725 1.409 . S
C1723 H1715 0.930 . S
C1723 C1724 1.355 . S
C1723 C1725 1.415 . S
C1724 C1723 1.355 . S
C1724 C1726 1.419 . S
C1725 C1720 1.425 . S
C1725 C1722 1.409 . S
C1725 C1723 1.415 . S
C1726 H1716 0.930 . S
C1726 C1724 1.419 . S
C1726 C1727 1.362 . S
C1727 H1717 0.930 . S
C1727 C1720 1.409 . S
C1727 C1726 1.362 . S
H1728 C1734 0.930 . S
H1729 C1737 0.930 . S
H1730 C1738 0.930 . S
H1731 C1739 0.930 . S
H1732 C1742 0.930 . S
H1733 C1743 0.930 . S
C1734 H1728 0.930 . S
C1734 C1735 1.355 . S
C1734 C1736 1.415 . S
C1735 C1734 1.355 . S
C1735 C1737 1.419 . S
C1736 C1734 1.415 . S
C1736 C1741 1.425 . S
C1736 C1743 1.409 . S
C1737 H1729 0.930 . S
C1737 C1735 1.419 . S
C1737 C1738 1.362 . S
C1738 H1730 0.930 . S
C1738 C1737 1.362 . S
C1738 C1741 1.409 . S
C1739 H1731 0.930 . S
C1739 C1740 1.355 . S
C1739 C1741 1.415 . S
C1740 C1739 1.355 . S
C1740 C1742 1.419 . S
C1741 C1736 1.425 . S
C1741 C1738 1.409 . S
C1741 C1739 1.415 . S
C1742 H1732 0.930 . S
C1742 C1740 1.419 . S
C1742 C1743 1.362 . S
C1743 H1733 0.930 . S
C1743 C1736 1.409 . S
C1743 C1742 1.362 . S
H1744 C1750 0.930 . S
H1745 C1753 0.930 . S
H1746 C1754 0.930 . S
H1747 C1755 0.930 . S
H1748 C1758 0.930 . S
H1749 C1759 0.930 . S
C1750 H1744 0.930 . S
C1750 C1751 1.355 . S
C1750 C1752 1.415 . S
C1751 C1750 1.355 . S
C1751 C1753 1.419 . S
C1752 C1750 1.415 . S
C1752 C1757 1.425 . S
C1752 C1759 1.409 . S
C1753 H1745 0.930 . S
C1753 C1751 1.419 . S
C1753 C1754 1.362 . S
C1754 H1746 0.930 . S
C1754 C1753 1.362 . S
C1754 C1757 1.409 . S
C1755 H1747 0.930 . S
C1755 C1756 1.355 . S
C1755 C1757 1.415 . S
C1756 C1755 1.355 . S
C1756 C1758 1.419 . S
C1757 C1752 1.425 . S
C1757 C1754 1.409 . S
C1757 C1755 1.415 . S
C1758 H1748 0.930 . S
C1758 C1756 1.419 . S
C1758 C1759 1.362 . S
C1759 H1749 0.930 . S
C1759 C1752 1.409 . S
C1759 C1758 1.362 . S
H1760 C1766 0.930 . S
H1761 C1769 0.930 . S
H1762 C1770 0.930 . S
H1763 C1771 0.930 . S
H1764 C1774 0.930 . S
H1765 C1775 0.930 . S
C1766 H1760 0.930 . S
C1766 C1767 1.355 . S
C1766 C1768 1.415 . S
C1767 C1766 1.355 . S
C1767 C1769 1.419 . S
C1768 C1766 1.415 . S
C1768 C1773 1.425 . S
C1768 C1775 1.409 . S
C1769 H1761 0.930 . S
C1769 C1767 1.419 . S
C1769 C1770 1.362 . S
C1770 H1762 0.930 . S
C1770 C1769 1.362 . S
C1770 C1773 1.409 . S
C1771 H1763 0.930 . S
C1771 C1772 1.355 . S
C1771 C1773 1.415 . S
C1772 C1771 1.355 . S
C1772 C1774 1.419 . S
C1773 C1768 1.425 . S
C1773 C1770 1.409 . S
C1773 C1771 1.415 . S
C1774 H1764 0.930 . S
C1774 C1772 1.419 . S
C1774 C1775 1.362 . S
C1775 H1765 0.930 . S
C1775 C1768 1.409 . S
C1775 C1774 1.362 . S
H1776 C1782 0.930 . S
H1777 C1785 0.930 . S
H1778 C1786 0.930 . S
H1779 C1787 0.930 . S
H1780 C1790 0.930 . S
H1781 C1791 0.930 . S
C1782 H1776 0.930 . S
C1782 C1783 1.355 . S
C1782 C1784 1.415 . S
C1783 C1782 1.355 . S
C1783 C1785 1.419 . S
C1784 C1782 1.415 . S
C1784 C1789 1.425 . S
C1784 C1791 1.409 . S
C1785 H1777 0.930 . S
C1785 C1783 1.419 . S
C1785 C1786 1.362 . S
C1786 H1778 0.930 . S
C1786 C1785 1.362 . S
C1786 C1789 1.409 . S
C1787 H1779 0.930 . S
C1787 C1788 1.355 . S
C1787 C1789 1.415 . S
C1788 C1787 1.355 . S
C1788 C1790 1.419 . S
C1789 C1784 1.425 . S
C1789 C1786 1.409 . S
C1789 C1787 1.415 . S
C1790 H1780 0.930 . S
C1790 C1788 1.419 . S
C1790 C1791 1.362 . S
C1791 H1781 0.930 . S
C1791 C1784 1.409 . S
C1791 C1790 1.362 . S
H1792 C1798 0.930 . S
H1793 C1801 0.930 . S
H1794 C1802 0.930 . S
H1795 C1803 0.930 . S
H1796 C1806 0.930 . S
H1797 C1807 0.930 . S
C1798 H1792 0.930 . S
C1798 C1799 1.355 . S
C1798 C1800 1.415 . S
C1799 C1798 1.355 . S
C1799 C1801 1.419 . S
C1800 C1798 1.415 . S
C1800 C1805 1.425 . S
C1800 C1807 1.409 . S
C1801 H1793 0.930 . S
C1801 C1799 1.419 . S
C1801 C1802 1.362 . S
C1802 H1794 0.930 . S
C1802 C1801 1.362 . S
C1802 C1805 1.409 . S
C1803 H1795 0.930 . S
C1803 C1804 1.355 . S
C1803 C1805 1.415 . S
C1804 C1803 1.355 . S
C1804 C1806 1.419 . S
C1805 C1800 1.425 . S
C1805 C1802 1.409 . S
C1805 C1803 1.415 . S
C1806 H1796 0.930 . S
C1806 C1804 1.419 . S
C1806 C1807 1.362 . S
C1807 H1797 0.930 . S
C1807 C1800 1.409 . S
C1807 C1806 1.362 . S
H1808 C1814 0.930 . S
H1809 C1817 0.930 . S
H1810 C1818 0.930 . S
H1811 C1819 0.930 . S
H1812 C1822 0.930 . S
H1813 C1823 0.930 . S
C1814 H1808 0.930 . S
C1814 C1815 1.355 . S
C1814 C1816 1.415 . S
C1815 C1814 1.355 . S
C1815 C1817 1.419 . S
C1816 C1814 1.415 . S
C1816 C1821 1.425 . S
C1816 C1823 1.409 . S
C1817 H1809 0.930 . S
C1817 C1815 1.419 . S
C1817 C1818 1.362 . S
C1818 H1810 0.930 . S
C1818 C1817 1.362 . S
C1818 C1821 1.409 . S
C1819 H1811 0.930 . S
C1819 C1820 1.355 . S
C1819 C1821 1.415 . S
C1820 C1819 1.355 . S
C1820 C1822 1.419 . S
C1821 C1816 1.425 . S
C1821 C1818 1.409 . S
C1821 C1819 1.415 . S
C1822 H1812 0.930 . S
C1822 C1820 1.419 . S
C1822 C1823 1.362 . S
C1823 H1813 0.930 . S
C1823 C1816 1.409 . S
C1823 C1822 1.362 . S
H1824 C1830 0.930 . S
H1825 C1833 0.930 . S
H1826 C1834 0.930 . S
H1827 C1835 0.930 . S
H1828 C1838 0.930 . S
H1829 C1839 0.930 . S
C1830 H1824 0.930 . S
C1830 C1831 1.355 . S
C1830 C1832 1.415 . S
C1831 C1830 1.355 . S
C1831 C1833 1.419 . S
C1832 C1830 1.415 . S
C1832 C1837 1.425 . S
C1832 C1839 1.409 . S
C1833 H1825 0.930 . S
C1833 C1831 1.419 . S
C1833 C1834 1.362 . S
C1834 H1826 0.930 . S
C1834 C1833 1.362 . S
C1834 C1837 1.409 . S
C1835 H1827 0.930 . S
C1835 C1836 1.355 . S
C1835 C1837 1.415 . S
C1836 C1835 1.355 . S
C1836 C1838 1.419 . S
C1837 C1832 1.425 . S
C1837 C1834 1.409 . S
C1837 C1835 1.415 . S
C1838 H1828 0.930 . S
C1838 C1836 1.419 . S
C1838 C1839 1.362 . S
C1839 H1829 0.930 . S
C1839 C1832 1.409 . S
C1839 C1838 1.362 . S
H1840 C1846 0.930 . S
H1841 C1849 0.930 . S
H1842 C1850 0.930 . S
H1843 C1851 0.930 . S
H1844 C1854 0.930 . S
H1845 C1855 0.930 . S
C1846 H1840 0.930 . S
C1846 C1847 1.355 . S
C1846 C1848 1.415 . S
C1847 C1846 1.355 . S
C1847 C1849 1.419 . S
C1848 C1846 1.415 . S
C1848 C1853 1.425 . S
C1848 C1855 1.409 . S
C1849 H1841 0.930 . S
C1849 C1847 1.419 . S
C1849 C1850 1.362 . S
C1850 H1842 0.930 . S
C1850 C1849 1.362 . S
C1850 C1853 1.409 . S
C1851 H1843 0.930 . S
C1851 C1852 1.355 . S
C1851 C1853 1.415 . S
C1852 C1851 1.355 . S
C1852 C1854 1.419 . S
C1853 C1848 1.425 . S
C1853 C1850 1.409 . S
C1853 C1851 1.415 . S
C1854 H1844 0.930 . S
C1854 C1852 1.419 . S
C1854 C1855 1.362 . S
C1855 H1845 0.930 . S
C1855 C1848 1.409 . S
C1855 C1854 1.362 . S
H1856 C1862 0.930 . S
H1857 C1865 0.930 . S
H1858 C1866 0.930 . S
H1859 C1867 0.930 . S
H1860 C1870 0.930 . S
H1861 C1871 0.930 . S
C1862 H1856 0.930 . S
C1862 C1863 1.355 . S
C1862 C1864 1.415 . S
C1863 C1862 1.355 . S
C1863 C1865 1.419 . S
C1864 C1862 1.415 . S
C1864 C1869 1.425 . S
C1864 C1871 1.409 . S
C1865 H1857 0.930 . S
C1865 C1863 1.419 . S
C1865 C1866 1.362 . S
C1866 H1858 0.930 . S
C1866 C1865 1.362 . S
C1866 C1869 1.409 . S
C1867 H1859 0.930 . S
C1867 C1868 1.355 . S
C1867 C1869 1.415 . S
C1868 C1867 1.355 . S
C1868 C1870 1.419 . S
C1869 C1864 1.425 . S
C1869 C1866 1.409 . S
C1869 C1867 1.415 . S
C1870 H1860 0.930 . S
C1870 C1868 1.419 . S
C1870 C1871 1.362 . S
C1871 H1861 0.930 . S
C1871 C1864 1.409 . S
C1871 C1870 1.362 . S
H1872 C1878 0.930 . S
H1873 C1881 0.930 . S
H1874 C1882 0.930 . S
H1875 C1883 0.930 . S
H1876 C1886 0.930 . S
H1877 C1887 0.930 . S
C1878 H1872 0.930 . S
C1878 C1879 1.355 . S
C1878 C1880 1.415 . S
C1879 C1878 1.355 . S
C1879 C1881 1.419 . S
C1880 C1878 1.415 . S
C1880 C1885 1.425 . S
C1880 C1887 1.409 . S
C1881 H1873 0.930 . S
C1881 C1879 1.419 . S
C1881 C1882 1.362 . S
C1882 H1874 0.930 . S
C1882 C1881 1.362 . S
C1882 C1885 1.409 . S
C1883 H1875 0.930 . S
C1883 C1884 1.355 . S
C1883 C1885 1.415 . S
C1884 C1883 1.355 . S
C1884 C1886 1.419 . S
C1885 C1880 1.425 . S
C1885 C1882 1.409 . S
C1885 C1883 1.415 . S
C1886 H1876 0.930 . S
C1886 C1884 1.419 . S
C1886 C1887 1.362 . S
C1887 H1877 0.930 . S
C1887 C1880 1.409 . S
C1887 C1886 1.362 . S
H1888 C1894 0.930 . S
H1889 C1897 0.930 . S
H1890 C1898 0.930 . S
H1891 C1899 0.930 . S
H1892 C1902 0.930 . S
H1893 C1903 0.930 . S
C1894 H1888 0.930 . S
C1894 C1895 1.355 . S
C1894 C1896 1.415 . S
C1895 C1894 1.355 . S
C1895 C1897 1.419 . S
C1896 C1894 1.415 . S
C1896 C1901 1.425 . S
C1896 C1903 1.409 . S
C1897 H1889 0.930 . S
C1897 C1895 1.419 . S
C1897 C1898 1.362 . S
C1898 H1890 0.930 . S
C1898 C1897 1.362 . S
C1898 C1901 1.409 . S
C1899 H1891 0.930 . S
C1899 C1900 1.355 . S
C1899 C1901 1.415 . S
C1900 C1899 1.355 . S
C1900 C1902 1.419 . S
C1901 C1896 1.425 . S
C1901 C1898 1.409 . S
C1901 C1899 1.415 . S
C1902 H1892 0.930 . S
C1902 C1900 1.419 . S
C1902 C1903 1.362 . S
C1903 H1893 0.930 . S
C1903 C1896 1.409 . S
C1903 C1902 1.362 . S
H1904 C1910 0.930 . S
H1905 C1913 0.930 . S
H1906 C1914 0.930 . S
H1907 C1915 0.930 . S
H1908 C1918 0.930 . S
H1909 C1919 0.930 . S
C1910 H1904 0.930 . S
C1910 C1911 1.355 . S
C1910 C1912 1.415 . S
C1911 C1910 1.355 . S
C1911 C1913 1.419 . S
C1912 C1910 1.415 . S
C1912 C1917 1.425 . S
C1912 C1919 1.409 . S
C1913 H1905 0.930 . S
C1913 C1911 1.419 . S
C1913 C1914 1.362 . S
C1914 H1906 0.930 . S
C1914 C1913 1.362 . S
C1914 C1917 1.409 . S
C1915 H1907 0.930 . S
C1915 C1916 1.355 . S
C1915 C1917 1.415 . S
C1916 C1915 1.355 . S
C1916 C1918 1.419 . S
C1917 C1912 1.425 . S
C1917 C1914 1.409 . S
C1917 C1915 1.415 . S
C1918 H1908 0.930 . S
C1918 C1916 1.419 . S
C1918 C1919 1.362 . S
C1919 H1909 0.930 . S
C1919 C1912 1.409 . S
C1919 C1918 1.362 . S
H1920 C1926 0.930 . S
H1921 C1929 0.930 . S
H1922 C1930 0.930 . S
H1923 C1931 0.930 . S
H1924 C1934 0.930 . S
H1925 C1935 0.930 . S
C1926 H1920 0.930 . S
C1926 C1927 1.355 . S
C1926 C1928 1.415 . S
C1927 C1926 1.355 . S
C1927 C1929 1.419 . S
C1928 C1926 1.415 . S
C1928 C1933 1.425 . S
C1928 C1935 1.409 . S
C1929 H1921 0.930 . S
C1929 C1927 1.419 . S
C1929 C1930 1.362 . S
C1930 H1922 0.930 . S
C1930 C1929 1.362 . S
C1930 C1933 1.409 . S
C1931 H1923 0.930 . S
C1931 C1932 1.355 . S
C1931 C1933 1.415 . S
C1932 C1931 1.355 . S
C1932 C1934 1.419 . S
C1933 C1928 1.425 . S
C1933 C1930 1.409 . S
C1933 C1931 1.415 . S
C1934 H1924 0.930 . S
C1934 C1932 1.419 . S
C1934 C1935 1.362 . S
C1935 H1925 0.930 . S
C1935 C1928 1.409 . S
C1935 C1934 1.362 . S
H1936 C1942 0.930 . S
H1937 C1945 0.930 . S
H1938 C1946 0.930 . S
H1939 C1947 0.930 . S
H1940 C1950 0.930 . S
H1941 C1951 0.930 . S
C1942 H1936 0.930 . S
C1942 C1943 1.355 . S
C1942 C1944 1.415 . S
C1943 C1942 1.355 . S
C1943 C1945 1.419 . S
C1944 C1942 1.415 . S
C1944 C1949 1.425 . S
C1944 C1951 1.409 . S
C1945 H1937 0.930 . S
C1945 C1943 1.419 . S
C1945 C1946 1.362 . S
C1946 H1938 0.930 . S
C1946 C1945 1.362 . S
C1946 C1949 1.409 . S
C1947 H1939 0.930 . S
C1947 C1948 1.355 . S
C1947 C1949 1.415 . S
C1948 C1947 1.355 . S
C1948 C1950 1.419 . S
C1949 C1944 1.425 . S
C1949 C1946 1.409 . S
C1949 C1947 1.415 . S
C1950 H1940 0.930 . S
C1950 C1948 1.419 . S
C1950 C1951 1.362 . S
C1951 H1941 0.930 . S
C1951 C1944 1.409 . S
C1951 C1950 1.362 . S
H1952 C1958 0.930 . S
H1953 C1961 0.930 . S
H1954 C1962 0.930 . S
H1955 C1963 0.930 . S
H1956 C1966 0.930 . S
H1957 C1967 0.930 . S
C1958 H1952 0.930 . S
C1958 C1959 1.355 . S
C1958 C1960 1.415 . S
C1959 C1958 1.355 . S
C1959 C1961 1.419 . S
C1960 C1958 1.415 . S
C1960 C1965 1.425 . S
C1960 C1967 1.409 . S
C1961 H1953 0.930 . S
C1961 C1959 1.419 . S
C1961 C1962 1.362 . S
C1962 H1954 0.930 . S
C1962 C1961 1.362 . S
C1962 C1965 1.409 . S
C1963 H1955 0.930 . S
C1963 C1964 1.355 . S
C1963 C1965 1.415 . S
C1964 C1963 1.355 . S
C1964 C1966 1.419 . S
C1965 C1960 1.425 . S
C1965 C1962 1.409 . S
C1965 C1963 1.415 . S
C1966 H1956 0.930 . S
C1966 C1964 1.419 . S
C1966 C1967 1.362 . S
C1967 H1957 0.930 . S
C1967 C1960 1.409 . S
C1967 C1966 1.362 . S
H1968 C1974 0.930 . S
H1969 C1977 0.930 . S
H1970 C1978 0.930 . S
H1971 C1979 0.930 . S
H1972 C1982 0.930 . S
H1973 C1983 0.930 . S
C1974 H1968 0.930 . S
C1974 C1975 1.355 . S
C1974 C1976 1.415 . S
C1975 C1974 1.355 . S
C1975 C1977 1.419 . S
C1976 C1974 1.415 . S
C1976 C1981 1.425 . S
C1976 C1983 1.409 . S
C1977 H1969 0.930 . S
C1977 C1975 1.419 . S
C1977 C1978 1.362 . S
C1978 H1970 0.930 . S
C1978 C1977 1.362 . S
C1978 C1981 1.409 . S
C1979 H1971 0.930 . S
C1979 C1980 1.355 . S
C1979 C1981 1.415 . S
C1980 C1979 1.355 . S
C1980 C1982 1.419 . S
C1981 C1976 1.425 . S
C1981 C1978 1.409 . S
C1981 C1979 1.415 . S
C1982 H1972 0.930 . S
C1982 C1980 1.419 . S
C1982 C1983 1.362 . S
C1983 H1973 0.930 . S
C1983 C1976 1.409 . S
C1983 C1982 1.362 . S
H1984 C1990 0.930 . S
H1985 C1993 0.930 . S
H1986 C1994 0.930 . S
H1987 C1995 0.930 . S
H1988 C1998 0.930 . S
H1989 C1999 0.930 . S
C1990 H1984 0.930 . S
C1990 C1991 1.355 . S
C1990 C1992 1.415 . S
C1991 C1990 1.355 . S
C1991 C1993 1.419 . S
C1992 C1990 1.415 . S
C1992 C1997 1.425 . S
C1992 C1999 1.409 . S
C1993 H1985 0.930 . S
C1993 C1991 1.419 . S
C1993 C1994 1.362 . S
C1994 H1986 0.930 . S
C1994 C1993 1.362 . S
C1994 C1997 1.409 . S
C1995 H1987 0.930 . S
C1995 C1996 1.355 . S
C1995 C1997 1.415 . S
C1996 C1995 1.355 . S
C1996 C1998 1.419 . S
C1997 C1992 1.425 . S
C1997 C1994 1.409 . S
C1997 C1995 1.415 . S
C1998 H1988 0.930 . S
C1998 C1996 1.419 . S
C1998 C1999 1.362 . S
C1999 H1989 0.930 . S
C1999 C1992 1.409 . S
C1999 C1998 1.362 . S
H2000 C2006 0.930 . S
H2001 C2009 0.930 . S
H2002 C2010 0.930 . S
H2003 C2011 0.930 . S
H2004 C2014 0.930 . S
H2005 C2015 0.930 . S
C2006 H2000 0.930 . S
C2006 C2007 1.355 . S
C2006 C2008 1.415 . S
C2007 C2006 1.355 . S
C2007 C2009 1.419 . S
C2008 C2006 1.415 . S
C2008 C2013 1.425 . S
C2008 C2015 1.409 . S
C2009 H2001 0.930 . S
C2009 C2007 1.419 . S
C2009 C2010 1.362 . S
C2010 H2002 0.930 . S
C2010 C2009 1.362 . S
C2010 C2013 1.409 . S
C2011 H2003 0.930 . S
C2011 C2012 1.355 . S
C2011 C2013 1.415 . S
C2012 C2011 1.355 . S
C2012 C2014 1.419 . S
C2013 C2008 1.425 . S
C2013 C2010 1.409 . S
C2013 C2011 1.415 . S
C2014 H2004 0.930 . S
C2014 C2012 1.419 . S
C2014 C2015 1.362 . S
C2015 H2005 0.930 . S
C2015 C2008 1.409 . S
C2015 C2014 1.362 . S
H2016 C2022 0.930 . S
H2017 C2025 0.930 . S
H2018 C2026 0.930 . S
H2019 C2027 0.930 . S
H2020 C2030 0.930 . S
H2021 C2031 0.930 . S
C2022 H2016 0.930 . S
C2022 C2023 1.355 . S
C2022 C2024 1.415 . S
C2023 C2022 1.355 . S
C2023 C2025 1.419 . S
C2024 C2022 1.415 . S
C2024 C2029 1.425 . S
C2024 C2031 1.409 . S
C2025 H2017 0.930 . S
C2025 C2023 1.419 . S
C2025 C2026 1.362 . S
C2026 H2018 0.930 . S
C2026 C2025 1.362 . S
C2026 C2029 1.409 . S
C2027 H2019 0.930 . S
C2027 C2028 1.355 . S
C2027 C2029 1.415 . S
C2028 C2027 1.355 . S
C2028 C2030 1.419 . S
C2029 C2024 1.425 . S
C2029 C2026 1.409 . S
C2029 C2027 1.415 . S
C2030 H2020 0.930 . S
C2030 C2028 1.419 . S
C2030 C2031 1.362 . S
C2031 H2021 0.930 . S
C2031 C2024 1.409 . S
C2031 C2030 1.362 . S
H2032 C2038 0.930 . S
H2033 C2041 0.930 . S
H2034 C2042 0.930 . S
H2035 C2043 0.930 . S
H2036 C2046 0.930 . S
H2037 C2047 0.930 . S
C2038 H2032 0.930 . S
C2038 C2039 1.355 . S
C2038 C2040 1.415 . S
C2039 C2038 1.355 . S
C2039 C2041 1.419 . S
C2040 C2038 1.415 . S
C2040 C2045 1.425 . S
C2040 C2047 1.409 . S
C2041 H2033 0.930 . S
C2041 C2039 1.419 . S
C2041 C2042 1.362 . S
C2042 H2034 0.930 . S
C2042 C2041 1.362 . S
C2042 C2045 1.409 . S
C2043 H2035 0.930 . S
C2043 C2044 1.355 . S
C2043 C2045 1.415 . S
C2044 C2043 1.355 . S
C2044 C2046 1.419 . S
C2045 C2040 1.425 . S
C2045 C2042 1.409 . S
C2045 C2043 1.415 . S
C2046 H2036 0.930 . S
C2046 C2044 1.419 . S
C2046 C2047 1.362 . S
C2047 H2037 0.930 . S
C2047 C2040 1.409 . S
C2047 C2046 1.362 . S
H2048 C2054 0.930 . S
H2049 C2057 0.930 . S
H2050 C2058 0.930 . S
H2051 C2059 0.930 . S
H2052 C2062 0.930 . S
H2053 C2063 0.930 . S
C2054 H2048 0.930 . S
C2054 C2055 1.355 . S
C2054 C2056 1.415 . S
C2055 C2054 1.355 . S
C2055 C2057 1.419 . S
C2056 C2054 1.415 . S
C2056 C2061 1.425 . S
C2056 C2063 1.409 . S
C2057 H2049 0.930 . S
C2057 C2055 1.419 . S
C2057 C2058 1.362 . S
C2058 H2050 0.930 . S
C2058 C2057 1.362 . S
C2058 C2061 1.409 . S
C2059 H2051 0.930 . S
C2059 C2060 1.355 . S
C2059 C2061 1.415 . S
C2060 C2059 1.355 . S
C2060 C2062 1.419 . S
C2061 C2056 1.425 . S
C2061 C2058 1.409 . S
C2061 C2059 1.415 . S
C2062 H2052 0.930 . S
C2062 C2060 1.419 . S
C2062 C2063 1.362 . S
C2063 H2053 0.930 . S
C2063 C2056 1.409 . S
C2063 C2062 1.362 . S
H2064 C2070 0.930 . S
H2065 C2073 0.930 . S
H2066 C2074 0.930 . S
H2067 C2075 0.930 . S
H2068 C2078 0.930 . S
H2069 C2079 0.930 . S
C2070 H2064 0.930 . S
C2070 C2071 1.355 . S
C2070 C2072 1.415 . S
C2071 C2070 1.355 . S
C2071 C2073 1.419 . S
C2072 C2070 1.415 . S
C2072 C2077 1.425 . S
C2072 C2079 1.409 . S
C2073 H2065 0.930 . S
C2073 C2071 1.419 . S
C2073 C2074 1.362 . S
C2074 H2066 0.930 . S
C2074 C2073 1.362 . S
C2074 C2077 1.409 . S
C2075 H2067 0.930 . S
C2075 C2076 1.355 . S
C2075 C2077 1.415 . S
C2076 C2075 1.355 . S
C2076 C2078 1.419 . S
C2077 C2072 1.425 . S
C2077 C2074 1.409 . S
C2077 C2075 1.415 . S
C2078 H2068 0.930 . S
C2078 C2076 1.419 . S
C2078 C2079 1.362 . S
C2079 H2069 0.930 . S
C2079 C2072 1.409 . S
C2079 C2078 1.362 . S
H2080 C2086 0.930 . S
H2081 C2089 0.930 . S
H2082 C2090 0.930 . S
H2083 C2091 0.930 . S
H2084 C2094 0.930 . S
H2085 C2095 0.930 . S
C2086 H2080 0.930 . S
C2086 C2087 1.355 . S
C2086 C2088 1.415 . S
C2087 C2086 1.355 . S
C2087 C2089 1.419 . S
C2088 C2086 1.415 . S
C2088 C2093 1.425 . S
C2088 C2095 1.409 . S
C2089 H2081 0.930 . S
C2089 C2087 1.419 . S
C2089 C2090 1.362 . S
C2090 H2082 0.930 . S
C2090 C2089 1.362 . S
C2090 C2093 1.409 . S
C2091 H2083 0.930 . S
C2091 C2092 1.355 . S
C2091 C2093 1.415 . S
C2092 C2091 1.355 . S
C2092 C2094 1.419 . S
C2093 C2088 1.425 . S
C2093 C2090 1.409 . S
C2093 C2091 1.415 . S
C2094 H2084 0.930 . S
C2094 C2092 1.419 . S
C2094 C2095 1.362 . S
C2095 H2085 0.930 . S
C2095 C2088 1.409 . S
C2095 C2094 1.362 . S
H2096 C2102 0.930 . S
H2097 C2105 0.930 . S
H2098 C2106 0.930 . S
H2099 C2107 0.930 . S
H2100 C2110 0.930 . S
H2101 C2111 0.930 . S
C2102 H2096 0.930 . S
C2102 C2103 1.355 . S
C2102 C2104 1.415 . S
C2103 C2102 1.355 . S
C2103 C2105 1.419 . S
C2104 C2102 1.415 . S
C2104 C2109 1.425 . S
C2104 C2111 1.409 . S
C2105 H2097 0.930 . S
C2105 C2103 1.419 . S
C2105 C2106 1.362 . S
C2106 H2098 0.930 . S
C2106 C2105 1.362 . S
C2106 C2109 1.409 . S
C2107 H2099 0.930 . S
C2107 C2108 1.355 . S
C2107 C2109 1.415 . S
C2108 C2107 1.355 . S
C2108 C2110 1.419 . S
C2109 C2104 1.425 . S
C2109 C2106 1.409 . S
C2109 C2107 1.415 . S
C2110 H2100 0.930 . S
C2110 C2108 1.419 . S
C2110 C2111 1.362 . S
C2111 H2101 0.930 . S
C2111 C2104 1.409 . S
C2111 C2110 1.362 . S
H2112 C2118 0.930 . S
H2113 C2121 0.930 . S
H2114 C2122 0.930 . S
H2115 C2123 0.930 . S
H2116 C2126 0.930 . S
H2117 C2127 0.930 . S
C2118 H2112 0.930 . S
C2118 C2119 1.355 . S
C2118 C2120 1.415 . S
C2119 C2118 1.355 . S
C2119 C2121 1.419 . S
C2120 C2118 1.415 . S
C2120 C2125 1.425 . S
C2120 C2127 1.409 . S
C2121 H2113 0.930 . S
C2121 C2119 1.419 . S
C2121 C2122 1.362 . S
C2122 H2114 0.930 . S
C2122 C2121 1.362 . S
C2122 C2125 1.409 . S
C2123 H2115 0.930 . S
C2123 C2124 1.355 . S
C2123 C2125 1.415 . S
C2124 C2123 1.355 . S
C2124 C2126 1.419 . S
C2125 C2120 1.425 . S
C2125 C2122 1.409 . S
C2125 C2123 1.415 . S
C2126 H2116 0.930 . S
C2126 C2124 1.419 . S
C2126 C2127 1.362 . S
C2127 H2117 0.930 . S
C2127 C2120 1.409 . S
C2127 C2126 1.362 . S
H2128 C2134 0.930 . S
H2129 C2137 0.930 . S
H2130 C2138 0.930 . S
H2131 C2139 0.930 . S
H2132 C2142 0.930 . S
H2133 C2143 0.930 . S
C2134 H2128 0.930 . S
C2134 C2135 1.355 . S
C2134 C2136 1.415 . S
C2135 C2134 1.355 . S
C2135 C2137 1.419 . S
C2136 C2134 1.415 . S
C2136 C2141 1.425 . S
C2136 C2143 1.409 . S
C2137 H2129 0.930 . S
C2137 C2135 1.419 . S
C2137 C2138 1.362 . S
C2138 H2130 0.930 . S
C2138 C2137 1.362 . S
C2138 C2141 1.409 . S
C2139 H2131 0.930 . S
C2139 C2140 1.355 . S
C2139 C2141 1.415 . S
C2140 C2139 1.355 . S
C2140 C2142 1.419 . S
C2141 C2136 1.425 . S
C2141 C2138 1.409 . S
C2141 C2139 1.415 . S
C2142 H2132 0.930 . S
C2142 C2140 1.419 . S
C2142 C2143 1.362 . S
C2143 H2133 0.930 . S
C2143 C2136 1.409 . S
C2143 C2142 1.362 . S
H2144 C2150 0.930 . S
H2145 C2153 0.930 . S
H2146 C2154 0.930 . S
H2147 C2155 0.930 . S
H2148 C2158 0.930 . S
H2149 C2159 0.930 . S
C2150 H2144 0.930 . S
C2150 C2151 1.355 . S
C2150 C2152 1.415 . S
C2151 C2150 1.355 . S
C2151 C2153 1.419 . S
C2152 C2150 1.415 . S
C2152 C2157 1.425 . S
C2152 C2159 1.409 . S
C2153 H2145 0.930 . S
C2153 C2151 1.419 . S
C2153 C2154 1.362 . S
C2154 H2146 0.930 . S
C2154 C2153 1.362 . S
C2154 C2157 1.409 . S
C2155 H2147 0.930 . S
C2155 C2156 1.355 . S
C2155 C2157 1.415 . S
C2156 C2155 1.355 . S
C2156 C2158 1.419 . S
C2157 C2152 1.425 . S
C2157 C2154 1.409 . S
C2157 C2155 1.415 . S
C2158 H2148 0.930 . S
C2158 C2156 1.419 . S
C2158 C2159 1.362 . S
C2159 H2149 0.930 . S
C2159 C2152 1.409 . S
C2159 C2158 1.362 . S
H2160 C2166 0.930 . S
H2161 C2169 0.930 . S
H2162 C2170 0.930 . S
H2163 C2171 0.930 . S
H2164 C2174 0.930 . S
H2165 C2175 0.930 . S
C2166 H2160 0.930 . S
C2166 C2167 1.355 . S
C2166 C2168 1.415 . S
C2167 C2166 1.355 . S
C2167 C2169 1.419 . S
C2168 C2166 1.415 . S
C2168 C2173 1.425 . S
C2168 C2175 1.409 . S
C2169 H2161 0.930 . S
C2169 C2167 1.419 . S
C2169 C2170 1.362 . S
C2170 H2162 0.930 . S
C2170 C2169 1.362 . S
C2170 C2173 1.409 . S
C2171 H2163 0.930 . S
C2171 C2172 1.355 . S
C2171 C2173 1.415 . S
C2172 C2171 1.355 . S
C2172 C2174 1.419 . S
C2173 C2168 1.425 . S
C2173 C2170 1.409 . S
C2173 C2171 1.415 . S
C2174 H2164 0.930 . S
C2174 C2172 1.419 . S
C2174 C2175 1.362 . S
C2175 H2165 0.930 . S
C2175 C2168 1.409 . S
C2175 C2174 1.362 . S
H2176 C2182 0.930 . S
H2177 C2185 0.930 . S
H2178 C2186 0.930 . S
H2179 C2187 0.930 . S
H2180 C2190 0.930 . S
H2181 C2191 0.930 . S
C2182 H2176 0.930 . S
C2182 C2183 1.355 . S
C2182 C2184 1.415 . S
C2183 C2182 1.355 . S
C2183 C2185 1.419 . S
C2184 C2182 1.415 . S
C2184 C2189 1.425 . S
C2184 C2191 1.409 . S
C2185 H2177 0.930 . S
C2185 C2183 1.419 . S
C2185 C2186 1.362 . S
C2186 H2178 0.930 . S
C2186 C2185 1.362 . S
C2186 C2189 1.409 . S
C2187 H2179 0.930 . S
C2187 C2188 1.355 . S
C2187 C2189 1.415 . S
C2188 C2187 1.355 . S
C2188 C2190 1.419 . S
C2189 C2184 1.425 . S
C2189 C2186 1.409 . S
C2189 C2187 1.415 . S
C2190 H2180 0.930 . S
C2190 C2188 1.419 . S
C2190 C2191 1.362 . S
C2191 H2181 0.930 . S
C2191 C2184 1.409 . S
C2191 C2190 1.362 . S
H2192 C2198 0.930 . S
H2193 C2201 0.930 . S
H2194 C2202 0.930 . S
H2195 C2203 0.930 . S
H2196 C2206 0.930 . S
H2197 C2207 0.930 . S
C2198 H2192 0.930 . S
C2198 C2199 1.355 . S
C2198 C2200 1.415 . S
C2199 C2198 1.355 . S
C2199 C2201 1.419 . S
C2200 C2198 1.415 . S
C2200 C2205 1.425 . S
C2200 C2207 1.409 . S
C2201 H2193 0.930 . S
C2201 C2199 1.419 . S
C2201 C2202 1.362 . S
C2202 H2194 0.930 . S
C2202 C2201 1.362 . S
C2202 C2205 1.409 . S
C2203 H2195 0.930 . S
C2203 C2204 1.355 . S
C2203 C2205 1.415 . S
C2204 C2203 1.355 . S
C2204 C2206 1.419 . S
C2205 C2200 1.425 . S
C2205 C2202 1.409 . S
C2205 C2203 1.415 . S
C2206 H2196 0.930 . S
C2206 C2204 1.419 . S
C2206 C2207 1.362 . S
C2207 H2197 0.930 . S
C2207 C2200 1.409 . S
C2207 C2206 1.362 . S
C679 C231 1.197 . S
C684 C7 1.304 . S
C695 C667 1.024 . S
C700 C21 1.097 . S
C711 C35 1.288 . S
C716 C637 1.282 . S
C727 C49 1.060 . S
C732 C653 1.009 . S
C743 C245 1.312 . S
C748 C63 1.324 . S
C759 C77 1.331 1_556 S
C764 C261 1.115 . S
C775 C91 1.331 . S
C780 C273 1.271 . S
C791 C625 1.007 . S
C796 C105 1.345 1_556 S
C807 C121 1.399 . S
C812 C9 1.238 . S
C823 C23 1.125 . S
C828 C133 1.288 . S
C839 C37 1.267 . S
C844 C149 1.381 . S
C855 C51 1.169 . S
C860 C161 1.285 . S
C871 C65 1.144 . S
C876 C177 1.374 . S
C887 C189 1.025 . S
C892 C79 0.878 . S
C903 C93 1.197 . S
C908 C205 1.407 . S
C919 C217 0.991 . S
C924 C107 0.943 . S
C935 C233 1.338 . S
C940 C119 1.364 . S
C951 C175 1.345 . S
C956 C247 1.343 . S
C967 C259 1.222 . S
C972 C191 1.111 . S
C983 C275 1.386 . S
C988 C203 1.392 . S
C999 C555 1.133 . S
C1004 C287 1.266 . S
C1015 C303 1.370 . S
C1020 C483 1.453 . S
C1031 C499 1.090 . S
C1036 C315 1.269 . S
C1047 C471 1.124 . S
C1052 C329 1.285 . S
C1063 C567 1.159 . S
C1068 C343 1.169 . S
C1079 C357 1.356 . S
C1084 C331 1.178 . S
C1095 C371 1.164 . S
C1100 C301 1.158 . S
C1111 C385 1.358 . S
C1116 C317 1.167 . S
C1127 C399 1.137 . S
C1132 C581 1.110 . S
C1143 C597 0.992 . S
C1148 C413 1.061 . S
C1159 C427 1.136 . S
C1164 C609 1.080 . S
C1175 C289 0.881 . S
C1180 C441 1.120 . S
C1191 C345 1.514 . S
C1196 C457 1.656 . S
C1207 C469 0.942 . S
C1212 C359 0.986 . S
C1223 C485 1.637 . S
C1228 C373 1.504 . S
C1239 C497 0.939 . S
C1244 C387 0.980 . S
C1255 C513 1.662 . S
C1260 C401 1.424 . S
C1271 C525 1.260 . S
C1276 C415 1.106 . S
C1287 C429 1.519 . S
C1292 C541 1.667 . S
C1303 C443 1.122 . S
C1308 C553 1.255 . S
C1319 C455 1.452 . S
C1324 C569 1.340 . S
C1335 C511 1.432 . S
C1340 C583 1.427 . S
C1351 C527 0.982 . S
C1356 C595 1.310 . S
C1367 C611 1.379 . S
C1372 C539 1.420 . S
C1383 C623 1.240 . S
C1388 C219 1.125 . S
C1399 C639 1.322 . S
C1404 C147 1.412 . S
C1415 C163 1.118 . S
C1420 C651 1.261 . S
C1431 C665 1.240 . S
C1436 C135 0.972 . S
C1447 C6 0.971 . S
C1452 C386 1.032 . S
C1463 C344 1.511 . S
C1468 C20 1.491 . S
C1479 C34 0.983 . S
C1484 C358 1.025 . S
C1495 C48 1.481 . S
C1500 C372 1.499 . S
C1511 C62 1.069 . S
C1516 C78 1.066 . S
C1527 C92 1.880 . S
C1532 C76 1.898 . S
C1543 C90 1.007 . S
C1548 C106 1.047 . S
C1559 C104 1.896 . S
C1564 C64 1.885 . S
C1575 C120 1.377 . S
C1580 C596 1.579 . S
C1591 C132 1.638 . S
C1596 C608 1.564 . S
C1607 C148 1.449 . S
C1612 C288 1.672 . S
C1623 C160 1.669 . S
C1628 C580 1.625 . S
C1639 C176 1.355 . S
C1644 C652 1.552 . S
C1655 C230 1.557 . S
C1660 C188 1.624 . S
C1671 C204 1.511 . S
C1676 C666 1.629 . S
C1687 C636 1.496 . S
C1692 C216 1.607 . S
C1703 C134 1.769 . S
C1708 C232 1.590 . S
C1719 C246 1.719 . S
C1724 C554 1.879 . S
C1735 C258 1.485 . S
C1740 C510 1.439 . S
C1751 C526 1.878 . S
C1756 C274 1.737 . S
C1767 C286 1.356 . S
C1772 C202 1.317 . S
C1783 C498 1.706 . S
C1788 C302 1.510 . S
C1799 C454 1.454 . S
C1804 C314 1.512 . S
C1815 C482 1.528 . S
C1820 C328 1.562 . S
C1831 C342 1.882 . S
C1836 C50 1.901 . S
C1847 C356 1.861 . S
C1852 C8 1.851 . S
C1863 C22 1.920 . S
C1868 C370 1.856 . S
C1879 C384 1.858 . S
C1884 C36 1.814 . S
C1895 C398 1.835 . S
C1900 C414 1.871 . S
C1911 C428 1.469 . S
C1916 C412 1.446 . S
C1927 C442 1.890 . S
C1932 C426 1.872 . S
C1943 C440 1.452 . S
C1948 C400 1.482 . S
C1959 C260 1.791 . S
C1964 C456 1.675 . S
C1975 C468 1.597 . S
C1980 C272 1.518 . S
C1991 C484 1.643 . S
C1996 C624 1.754 . S
C2007 C496 1.582 . S
C2012 C244 1.506 . S
C2023 C512 1.699 . S
C2028 C316 1.816 . S
C2039 C524 1.615 . S
C2044 C566 1.551 . S
C2055 C330 1.791 . S
C2060 C540 1.584 . S
C2071 C552 1.607 . S
C2076 C300 1.548 . S
C2087 C470 1.719 . S
C2092 C568 1.528 . S
C2103 C218 1.600 . S
C2108 C582 1.478 . S
C2119 C174 1.337 . S
C2124 C594 1.383 . S
C2135 C610 1.416 . S
C2140 C190 1.588 . S
C2151 C622 1.506 . S
C2156 C538 1.473 . S
C2167 C162 1.780 . S
C2172 C638 1.680 . S
C2183 C650 1.369 . S
C2188 C118 1.352 . S
C2199 C146 1.268 . S
C2204 C664 1.304 . S
