# Generated by pormake.
# Topology wjt, (5)-cn, num edge types: 1
# Building blocks:
#     Node 0, Type 0, BuildingBlock: XOMCOT_clean_sbu_1, # of connection points: 5
#     Node 1, Type 0, BuildingBlock: XOMCOT_clean_sbu_1, # of connection points: 5
#     Node 2, Type 0, BuildingBlock: XOMCOT_clean_sbu_1, # of connection points: 5
#     Node 3, Type 0, BuildingBlock: XOMCOT_clean_sbu_1, # of connection points: 5
#     Node 4, Type 0, BuildingBlock: XOMCOT_clean_sbu_1, # of connection points: 5
#     Node 5, Type 0, BuildingBlock: XOMCOT_clean_sbu_1, # of connection points: 5
#     Node 6, Type 0, BuildingBlock: XOMCOT_clean_sbu_1, # of connection points: 5
#     Node 7, Type 0, BuildingBlock: XOMCOT_clean_sbu_1, # of connection points: 5
#     Node 8, Type 0, BuildingBlock: XOMCOT_clean_sbu_1, # of connection points: 5
#     Node 9, Type 0, BuildingBlock: XOMCOT_clean_sbu_1, # of connection points: 5
#     Node 10, Type 0, BuildingBlock: XOMCOT_clean_sbu_1, # of connection points: 5
#     Node 11, Type 0, BuildingBlock: XOMCOT_clean_sbu_1, # of connection points: 5
#     Edge 12, Type (0, 0), BuildingBlock: KIFKEQ_clean_linker_1, # of connection points: 2
#     Edge 13, Type (0, 0), BuildingBlock: KIFKEQ_clean_linker_1, # of connection points: 2
#     Edge 14, Type (0, 0), BuildingBlock: KIFKEQ_clean_linker_1, # of connection points: 2
#     Edge 15, Type (0, 0), BuildingBlock: KIFKEQ_clean_linker_1, # of connection points: 2
#     Edge 16, Type (0, 0), BuildingBlock: KIFKEQ_clean_linker_1, # of connection points: 2
#     Edge 17, Type (0, 0), BuildingBlock: KIFKEQ_clean_linker_1, # of connection points: 2
#     Edge 18, Type (0, 0), BuildingBlock: KIFKEQ_clean_linker_1, # of connection points: 2
#     Edge 19, Type (0, 0), BuildingBlock: KIFKEQ_clean_linker_1, # of connection points: 2
#     Edge 20, Type (0, 0), BuildingBlock: KIFKEQ_clean_linker_1, # of connection points: 2
#     Edge 21, Type (0, 0), BuildingBlock: KIFKEQ_clean_linker_1, # of connection points: 2
#     Edge 22, Type (0, 0), BuildingBlock: KIFKEQ_clean_linker_1, # of connection points: 2
#     Edge 23, Type (0, 0), BuildingBlock: KIFKEQ_clean_linker_1, # of connection points: 2
#     Edge 24, Type (0, 0), BuildingBlock: KIFKEQ_clean_linker_1, # of connection points: 2
#     Edge 25, Type (0, 0), BuildingBlock: KIFKEQ_clean_linker_1, # of connection points: 2
#     Edge 26, Type (0, 0), BuildingBlock: KIFKEQ_clean_linker_1, # of connection points: 2
#     Edge 27, Type (0, 0), BuildingBlock: KIFKEQ_clean_linker_1, # of connection points: 2
#     Edge 28, Type (0, 0), BuildingBlock: KIFKEQ_clean_linker_1, # of connection points: 2
#     Edge 29, Type (0, 0), BuildingBlock: KIFKEQ_clean_linker_1, # of connection points: 2
#     Edge 30, Type (0, 0), BuildingBlock: KIFKEQ_clean_linker_1, # of connection points: 2
#     Edge 31, Type (0, 0), BuildingBlock: KIFKEQ_clean_linker_1, # of connection points: 2
#     Edge 32, Type (0, 0), BuildingBlock: KIFKEQ_clean_linker_1, # of connection points: 2
#     Edge 33, Type (0, 0), BuildingBlock: KIFKEQ_clean_linker_1, # of connection points: 2
#     Edge 34, Type (0, 0), BuildingBlock: KIFKEQ_clean_linker_1, # of connection points: 2
#     Edge 35, Type (0, 0), BuildingBlock: KIFKEQ_clean_linker_1, # of connection points: 2
#     Edge 36, Type (0, 0), BuildingBlock: KIFKEQ_clean_linker_1, # of connection points: 2
#     Edge 37, Type (0, 0), BuildingBlock: KIFKEQ_clean_linker_1, # of connection points: 2
#     Edge 38, Type (0, 0), BuildingBlock: KIFKEQ_clean_linker_1, # of connection points: 2
#     Edge 39, Type (0, 0), BuildingBlock: KIFKEQ_clean_linker_1, # of connection points: 2
#     Edge 40, Type (0, 0), BuildingBlock: KIFKEQ_clean_linker_1, # of connection points: 2
#     Edge 41, Type (0, 0), BuildingBlock: KIFKEQ_clean_linker_1, # of connection points: 2
# Relax obj value: 0.215
# Max RMSD: 0.163
# Mean RMSD: 0.163
data_MOF--net-wjt--node1-XOMCOT_clean_sbu_1--edge1-KIFKEQ_clean_linker_1
_symmetry_space_group_name_H-M    P1
_symmetry_Int_Tables_number       1
_symmetry_cell_setting            triclinic
loop_
_symmetry_equiv_pos_as_xyz
'x, y, z'
_cell_length_a     69.651695
_cell_length_b     69.694047
_cell_length_c     17.50171
_cell_angle_alpha  89.958701
_cell_angle_beta   90.027795
_cell_angle_gamma 120.02219
loop_
_atom_site_label
_atom_site_type_symbol
_atom_site_fract_x
_atom_site_fract_y
_atom_site_fract_z
_atom_type_partial_charge
C0 C 0.30435 0.45292 0.27712 0.0
C1 C 0.30058 0.45252 0.35434 0.0
N2 N 0.29762 0.43324 0.38266 0.0
N3 N 0.30363 0.43393 0.2566 0.0
C4 C 0.29924 0.42217 0.32198 0.0
H5 H 0.30878 0.46676 0.23913 0.0
Co6 Co 0.31238 0.42923 0.16129 0.0
C7 C 0.31243 0.38641 0.18301 0.0
O8 O 0.30247 0.37802 0.11766 0.0
N9 N 0.32135 0.42512 0.06582 0.0
C10 C 0.33904 0.41996 0.96975 0.0
C11 C 0.33829 0.42181 0.0478 0.0
C12 C 0.31232 0.42562 0.99825 0.0
N13 N 0.32263 0.42234 0.9386 0.0
O14 O 0.28182 0.40859 0.13422 0.0
H15 H 0.34937 0.42079 0.0888 0.0
H16 H 0.29871 0.42883 0.99302 0.0
O17 O 0.31643 0.40564 0.20347 0.0
C18 C 0.27005 0.41764 0.12205 0.0
O19 O 0.27905 0.4391 0.1322 0.0
N20 N 0.34178 0.45042 0.1855 0.0
C21 C 0.38368 0.48596 0.2218 0.0
C22 C 0.3747 0.46593 0.2626 0.0
C23 C 0.35365 0.4484 0.24394 0.0
C24 C 0.35023 0.46962 0.14481 0.0
C25 C 0.37117 0.48755 0.16172 0.0
H26 H 0.34675 0.43351 0.27813 0.0
H27 H 0.34038 0.47118 0.10004 0.0
H28 H 0.29829 0.40625 0.3259 0.0
H29 H 0.30168 0.46608 0.38785 0.0
H30 H 0.35067 0.41691 0.93867 0.0
H31 H 0.38374 0.46385 0.30917 0.0
H32 H 0.37713 0.50277 0.12958 0.0
C33 C 0.86202 0.28929 0.59429 0.0
C34 C 0.86046 0.28557 0.67195 0.0
N35 N 0.88001 0.30013 0.70424 0.0
N36 N 0.88249 0.30604 0.57759 0.0
C37 C 0.893 0.31229 0.64558 0.0
H38 H 0.84894 0.28055 0.553 0.0
Co39 Co 0.89359 0.31897 0.48288 0.0
C40 C 0.93542 0.31674 0.48296 0.0
O41 O 0.93053 0.30558 0.41867 0.0
N42 N 0.9049 0.3323 0.38556 0.0
C43 C 0.91441 0.35487 0.28464 0.0
C44 C 0.9104 0.35294 0.36192 0.0
C45 C 0.90604 0.32224 0.32078 0.0
N46 N 0.91136 0.33541 0.25863 0.0
O47 O 0.88302 0.2897 0.44035 0.0
H48 H 0.91025 0.36563 0.39679 0.0
H49 H 0.90217 0.3052 0.31796 0.0
O50 O 0.92206 0.32231 0.51117 0.0
C51 C 0.86516 0.28344 0.40245 0.0
O52 O 0.85755 0.29723 0.39557 0.0
N53 N 0.90138 0.34666 0.52489 0.0
C54 C 0.90593 0.38593 0.58443 0.0
C55 C 0.92436 0.38285 0.57875 0.0
C56 C 0.92176 0.36302 0.54867 0.0
C57 C 0.88339 0.34937 0.52987 0.0
C58 C 0.88528 0.36883 0.55902 0.0
H59 H 0.93611 0.36101 0.54416 0.0
H60 H 0.86744 0.33629 0.51021 0.0
H61 H 0.90964 0.32612 0.65205 0.0
H62 H 0.84596 0.27317 0.70203 0.0
H63 H 0.91764 0.36897 0.24955 0.0
H64 H 0.94059 0.39552 0.59796 0.0
H65 H 0.87067 0.37054 0.56044 0.0
C66 C 0.55678 0.85442 0.96027 0.0
C67 C 0.55702 0.85146 0.03793 0.0
N68 N 0.57445 0.86967 0.06772 0.0
N69 N 0.57403 0.87435 0.94116 0.0
C70 C 0.58469 0.88308 0.00762 0.0
H71 H 0.54394 0.84347 0.92111 0.0
Co72 Co 0.57753 0.88769 0.84638 0.0
C73 C 0.62166 0.92877 0.85904 0.0
O74 O 0.62859 0.92462 0.79468 0.0
N75 N 0.58058 0.90082 0.75076 0.0
C76 C 0.58526 0.92428 0.65681 0.0
C77 C 0.58388 0.92122 0.7348 0.0
C78 C 0.57971 0.89175 0.6819 0.0
N79 N 0.58275 0.90571 0.62379 0.0
O80 O 0.59696 0.87669 0.81554 0.0
H81 H 0.58533 0.93315 0.77723 0.0
H82 H 0.5765 0.87505 0.67408 0.0
O83 O 0.60231 0.91517 0.88403 0.0
C84 C 0.58641 0.85673 0.79157 0.0
O85 O 0.56467 0.84656 0.78806 0.0
N86 N 0.55736 0.89678 0.87655 0.0
C87 C 0.52274 0.90274 0.92954 0.0
C88 C 0.54353 0.91317 0.96575 0.0
C89 C 0.5606 0.91004 0.93833 0.0
C90 C 0.53751 0.88688 0.83942 0.0
C91 C 0.52008 0.88983 0.86433 0.0
H92 H 0.57601 0.91744 0.96947 0.0
H93 H 0.535 0.87611 0.79138 0.0
H94 H 0.59891 0.89952 0.0128 0.0
H95 H 0.54434 0.83776 0.07047 0.0
H96 H 0.58823 0.93912 0.62694 0.0
H97 H 0.54641 0.92292 0.01703 0.0
H98 H 0.50455 0.88172 0.83335 0.0
C99 C 0.71213 0.56147 0.30462 0.0
C100 C 0.71451 0.56014 0.38211 0.0
N101 N 0.71077 0.57523 0.41665 0.0
N102 N 0.70704 0.5774 0.29019 0.0
C103 C 0.70652 0.5856 0.35958 0.0
H104 H 0.71265 0.55049 0.26214 0.0
Co105 Co 0.69748 0.5818 0.19607 0.0
C106 C 0.69998 0.62572 0.21112 0.0
O107 O 0.70818 0.63198 0.14213 0.0
N108 N 0.68752 0.58547 0.10075 0.0
C109 C 0.66818 0.58915 0.00633 0.0
C110 C 0.67042 0.58876 0.08451 0.0
C111 C 0.69507 0.58355 0.0319 0.0
N112 N 0.68373 0.58578 0.97344 0.0
O113 O 0.72807 0.6009 0.16558 0.0
H114 H 0.66005 0.59046 0.12682 0.0
H115 H 0.70859 0.58042 0.02433 0.0
O116 O 0.69574 0.60687 0.23676 0.0
C117 C 0.73702 0.59034 0.13767 0.0
O118 O 0.72501 0.56873 0.1304 0.0
N119 N 0.66812 0.562 0.22536 0.0
C120 C 0.6272 0.52762 0.27486 0.0
C121 C 0.63671 0.54858 0.30911 0.0
C122 C 0.65715 0.56564 0.28321 0.0
C123 C 0.65889 0.54188 0.19022 0.0
C124 C 0.63829 0.52449 0.21352 0.0
H125 H 0.6644 0.58142 0.31206 0.0
H126 H 0.66794 0.53914 0.1454 0.0
H127 H 0.7013 0.59761 0.36892 0.0
H128 H 0.71774 0.54829 0.41086 0.0
H129 H 0.65571 0.59116 0.97629 0.0
H130 H 0.62857 0.55165 0.35641 0.0
H131 H 0.63157 0.50847 0.18608 0.0
C132 C 0.15232 0.69747 0.5818 0.0
C133 C 0.15692 0.69967 0.65887 0.0
N134 N 0.14001 0.69985 0.69562 0.0
N135 N 0.13257 0.69614 0.57025 0.0
C136 C 0.12564 0.69796 0.64041 0.0
H137 H 0.16229 0.69606 0.53719 0.0
Co138 Co 0.11822 0.6901 0.47683 0.0
C139 C 0.07079 0.67048 0.51507 0.0
O140 O 0.06712 0.6553 0.46348 0.0
N141 N 0.10456 0.68508 0.37964 0.0
C142 C 0.08777 0.69064 0.28053 0.0
C143 C 0.08992 0.69151 0.35849 0.0
C144 C 0.11181 0.68144 0.31239 0.0
N145 N 0.10173 0.68451 0.25147 0.0
O146 O 0.12984 0.7214 0.46115 0.0
H147 H 0.08275 0.69846 0.39639 0.0
H148 H 0.12569 0.67874 0.30722 0.0
O149 O 0.09072 0.68627 0.52657 0.0
C150 C 0.14682 0.72876 0.41781 0.0
O151 O 0.15327 0.71495 0.39464 0.0
N152 N 0.10905 0.65958 0.49184 0.0
C153 C 0.10453 0.61806 0.52557 0.0
C154 C 0.09551 0.62759 0.57386 0.0
C155 C 0.09817 0.64835 0.55658 0.0
C156 C 0.11832 0.65075 0.44525 0.0
C157 C 0.11577 0.62987 0.45976 0.0
H158 H 0.09247 0.65582 0.59808 0.0
H159 H 0.12909 0.66041 0.39945 0.0
H160 H 0.10971 0.69653 0.65154 0.0
H161 H 0.17131 0.70049 0.68576 0.0
H162 H 0.07828 0.69618 0.24757 0.0
H163 H 0.08749 0.6197 0.62701 0.0
H164 H 0.12328 0.62347 0.42082 0.0
C165 C 0.46123 0.15212 0.90825 0.0
C166 C 0.4644 0.15622 0.98552 0.0
N167 N 0.44744 0.13928 0.02266 0.0
N168 N 0.44247 0.13265 0.89693 0.0
C169 C 0.43428 0.12539 0.96754 0.0
H170 H 0.4724 0.16213 0.86322 0.0
Co171 Co 0.43386 0.11864 0.80309 0.0
C172 C 0.40105 0.07149 0.83563 0.0
O173 O 0.41046 0.06588 0.78183 0.0
N174 N 0.42525 0.10542 0.70566 0.0
C175 C 0.40336 0.09107 0.60401 0.0
C176 C 0.40396 0.09392 0.68154 0.0
C177 C 0.43726 0.11019 0.64047 0.0
N178 N 0.42432 0.10151 0.57804 0.0
O179 O 0.41599 0.13232 0.78557 0.0
H180 H 0.38963 0.08941 0.71712 0.0
H181 H 0.45491 0.12138 0.63745 0.0
O182 O 0.4085 0.09205 0.85094 0.0
C183 C 0.42563 0.14861 0.73931 0.0
O184 O 0.4453 0.15372 0.71303 0.0
N185 N 0.45332 0.10731 0.82043 0.0
C186 C 0.48899 0.10191 0.86684 0.0
C187 C 0.4685 0.09083 0.90448 0.0
C188 C 0.45111 0.09402 0.88143 0.0
C189 C 0.47312 0.11814 0.78291 0.0
C190 C 0.491 0.1154 0.8042 0.0
H191 H 0.43668 0.08723 0.91753 0.0
H192 H 0.47581 0.13044 0.7404 0.0
H193 H 0.41972 0.10956 0.97883 0.0
H194 H 0.47841 0.17023 0.01223 0.0
H195 H 0.38862 0.08375 0.56867 0.0
H196 H 0.46632 0.08099 0.95509 0.0
H197 H 0.50655 0.12458 0.77381 0.0
C198 C 0.58097 0.72406 0.38304 0.0
C199 C 0.58413 0.72799 0.30584 0.0
N200 N 0.58668 0.7118 0.27377 0.0
N201 N 0.5817 0.70559 0.40002 0.0
C202 C 0.58529 0.69855 0.33251 0.0
H203 H 0.57779 0.7338 0.4237 0.0
Co204 Co 0.57669 0.69192 0.49491 0.0
C205 C 0.61202 0.67877 0.50989 0.0
O206 O 0.60451 0.66905 0.5761 0.0
N207 N 0.57113 0.67829 0.59226 0.0
C208 C 0.55365 0.65741 0.69354 0.0
C209 C 0.5527 0.65972 0.61582 0.0
C210 C 0.58284 0.687 0.65731 0.0
N211 N 0.57257 0.67471 0.71956 0.0
O212 O 0.59515 0.72074 0.54147 0.0
H213 H 0.53871 0.64911 0.5801 0.0
H214 H 0.5985 0.70237 0.65939 0.0
O215 O 0.60255 0.68809 0.47588 0.0
C216 C 0.58357 0.72737 0.57742 0.0
O217 O 0.56193 0.71437 0.5796 0.0
N218 N 0.55708 0.66446 0.44897 0.0
C219 C 0.52283 0.62521 0.387 0.0
C220 C 0.54281 0.62664 0.41027 0.0
C221 C 0.55978 0.64644 0.44108 0.0
C222 C 0.53786 0.6634 0.42612 0.0
C223 C 0.5206 0.64403 0.39469 0.0
H224 H 0.57466 0.64687 0.46014 0.0
H225 H 0.53581 0.67767 0.43377 0.0
H226 H 0.58586 0.6834 0.32648 0.0
H227 H 0.58414 0.74157 0.27591 0.0
H228 H 0.5407 0.6448 0.72874 0.0
H229 H 0.54527 0.61253 0.40509 0.0
H230 H 0.50537 0.64362 0.37876 0.0
C231 C 0.86057 0.57453 0.75037 0.0
C232 C 0.8587 0.57636 0.67272 0.0
N233 N 0.87851 0.58249 0.6403 0.0
N234 N 0.88149 0.5796 0.76688 0.0
C235 C 0.89194 0.58429 0.69876 0.0
H236 H 0.84739 0.56948 0.79173 0.0
Co237 Co 0.89325 0.5789 0.86144 0.0
C238 C 0.93917 0.61937 0.85994 0.0
O239 O 0.94098 0.62132 0.93454 0.0
N240 N 0.90507 0.57782 0.95891 0.0
C241 C 0.91726 0.56696 0.05885 0.0
C242 C 0.91356 0.56496 0.98138 0.0
C243 C 0.90428 0.58773 0.02453 0.0
N244 N 0.91116 0.58115 0.08605 0.0
O245 O 0.88283 0.59797 0.9015 0.0
H246 H 0.91602 0.55382 0.94539 0.0
H247 H 0.89857 0.59951 0.02809 0.0
O248 O 0.92143 0.60405 0.82954 0.0
C249 C 0.86449 0.58654 0.93697 0.0
O250 O 0.85653 0.56509 0.9441 0.0
N251 N 0.90093 0.55866 0.82142 0.0
C252 C 0.90526 0.52351 0.76476 0.0
C253 C 0.92312 0.5454 0.76155 0.0
C254 C 0.92064 0.56282 0.79021 0.0
C255 C 0.88348 0.5376 0.8251 0.0
C256 C 0.88529 0.51981 0.79761 0.0
H257 H 0.93455 0.57947 0.78705 0.0
H258 H 0.86803 0.53464 0.85008 0.0
H259 H 0.90892 0.58813 0.69197 0.0
H260 H 0.84383 0.57327 0.64271 0.0
H261 H 0.92268 0.5576 0.093 0.0
H262 H 0.93878 0.54909 0.73618 0.0
H263 H 0.87117 0.50325 0.80295 0.0
C264 C 0.32044 0.86256 0.10248 0.0
C265 C 0.31922 0.85868 0.02505 0.0
N266 N 0.31377 0.87257 0.99014 0.0
N267 N 0.31593 0.8789 0.11625 0.0
C268 C 0.31138 0.88425 0.04726 0.0
H269 H 0.32571 0.85502 0.1455 0.0
Co270 Co 0.32024 0.89321 0.20908 0.0
C271 C 0.3351 0.93995 0.16999 0.0
O272 O 0.35024 0.94585 0.22362 0.0
N273 N 0.32355 0.90667 0.30534 0.0
C274 C 0.31445 0.92125 0.40221 0.0
C275 C 0.31476 0.91946 0.32453 0.0
C276 C 0.32742 0.90002 0.37349 0.0
N277 N 0.32202 0.90865 0.43335 0.0
O278 O 0.28855 0.87903 0.22286 0.0
H279 H 0.30696 0.92545 0.2853 0.0
H280 H 0.33142 0.88699 0.37939 0.0
O281 O 0.32147 0.91933 0.15757 0.0
C282 C 0.28185 0.86218 0.26644 0.0
O283 O 0.29642 0.85689 0.29118 0.0
N284 N 0.35142 0.90533 0.19535 0.0
C285 C 0.39253 0.91069 0.15122 0.0
C286 C 0.38197 0.91937 0.10679 0.0
C287 C 0.36144 0.91632 0.12919 0.0
C288 C 0.3619 0.89743 0.2407 0.0
C289 C 0.38264 0.90026 0.22036 0.0
H290 H 0.35285 0.92107 0.08896 0.0
H291 H 0.35343 0.8871 0.28905 0.0
H292 H 0.30741 0.89723 0.03892 0.0
H293 H 0.32347 0.84752 0.99669 0.0
H294 H 0.30763 0.92993 0.43299 0.0
H295 H 0.38892 0.92733 0.05255 0.0
H296 H 0.39 0.8928 0.25533 0.0
C297 C 0.45799 0.31053 0.41869 0.0
C298 C 0.46016 0.3079 0.34184 0.0
N299 N 0.44317 0.3079 0.30488 0.0
N300 N 0.43983 0.31231 0.42999 0.0
C301 C 0.43092 0.31024 0.35989 0.0
H302 H 0.4694 0.31198 0.46327 0.0
Co303 Co 0.43218 0.3191 0.52335 0.0
C304 C 0.40588 0.34018 0.48541 0.0
O305 O 0.41841 0.35526 0.53592 0.0
N306 N 0.42419 0.32476 0.6207 0.0
C307 C 0.40226 0.32013 0.72016 0.0
C308 C 0.40338 0.31922 0.6422 0.0
C309 C 0.43505 0.32783 0.68781 0.0
N310 N 0.42217 0.32534 0.74895 0.0
O311 O 0.4121 0.28794 0.54097 0.0
H312 H 0.38919 0.31279 0.6046 0.0
H313 H 0.45134 0.32968 0.69255 0.0
O314 O 0.40862 0.32347 0.47423 0.0
C315 C 0.42192 0.28055 0.58326 0.0
O316 O 0.44245 0.29425 0.60428 0.0
N317 N 0.45399 0.34954 0.50621 0.0
C318 C 0.49043 0.39129 0.47 0.0
C319 C 0.47217 0.38076 0.42074 0.0
C320 C 0.45436 0.35997 0.43936 0.0
C321 C 0.47187 0.35931 0.55388 0.0
C322 C 0.48995 0.3803 0.53791 0.0
H323 H 0.44126 0.35197 0.39786 0.0
H324 H 0.47292 0.35046 0.60246 0.0
H325 H 0.41659 0.31197 0.34866 0.0
H326 H 0.47355 0.30673 0.3152 0.0
H327 H 0.38738 0.31518 0.75327 0.0
H328 H 0.47196 0.38796 0.36614 0.0
H329 H 0.50368 0.38751 0.57771 0.0
C330 C 0.15761 0.45161 0.6542 0.0
C331 C 0.16121 0.45321 0.57676 0.0
N332 N 0.14487 0.43482 0.54373 0.0
N333 N 0.13911 0.43228 0.67032 0.0
C334 C 0.13184 0.42225 0.60173 0.0
H335 H 0.16685 0.46455 0.6955 0.0
Co336 Co 0.12509 0.42681 0.76522 0.0
C337 C 0.08422 0.38302 0.74468 0.0
O338 O 0.0877 0.37547 0.80894 0.0
N339 N 0.11148 0.42203 0.86063 0.0
C340 C 0.0883 0.41749 0.95519 0.0
C341 C 0.09115 0.41883 0.87715 0.0
C342 C 0.12066 0.4226 0.92919 0.0
N343 N 0.10687 0.4198 0.98769 0.0
O344 O 0.13615 0.40714 0.7931 0.0
H345 H 0.07932 0.41792 0.83517 0.0
H346 H 0.13744 0.42583 0.93633 0.0
O347 O 0.09809 0.40256 0.72231 0.0
C348 C 0.15684 0.41693 0.80852 0.0
O349 O 0.16856 0.43857 0.80176 0.0
N350 N 0.1157 0.44704 0.73981 0.0
C351 C 0.10833 0.48144 0.69741 0.0
C352 C 0.09904 0.4617 0.65524 0.0
C353 C 0.10287 0.44466 0.67746 0.0
C354 C 0.12461 0.46597 0.78219 0.0
C355 C 0.1209 0.48331 0.76253 0.0
H356 H 0.09624 0.42998 0.64239 0.0
H357 H 0.13517 0.46787 0.83029 0.0
H358 H 0.11621 0.40712 0.59339 0.0
H359 H 0.17403 0.46743 0.54662 0.0
H360 H 0.07374 0.41511 0.98566 0.0
H361 H 0.08922 0.45962 0.60463 0.0
H362 H 0.1286 0.4984 0.796 0.0
C363 C 0.697 0.15243 0.04811 0.0
C364 C 0.69824 0.15632 0.97071 0.0
N365 N 0.70268 0.14174 0.93569 0.0
N366 N 0.70051 0.13541 0.06164 0.0
C367 C 0.70447 0.12962 0.99259 0.0
H368 H 0.69244 0.16049 0.09138 0.0
Co369 Co 0.696 0.12131 0.15464 0.0
C370 C 0.67975 0.07435 0.11916 0.0
O371 O 0.66438 0.06971 0.17105 0.0
N372 N 0.69253 0.10806 0.25146 0.0
C373 C 0.70109 0.09306 0.34856 0.0
C374 C 0.70093 0.09493 0.27093 0.0
C375 C 0.68878 0.11485 0.31944 0.0
N376 N 0.69386 0.10596 0.37945 0.0
O377 O 0.72767 0.13505 0.16835 0.0
H378 H 0.70855 0.08869 0.23197 0.0
H379 H 0.68508 0.12808 0.32513 0.0
O380 O 0.69423 0.09463 0.10494 0.0
C381 C 0.73474 0.15193 0.2119 0.0
O382 O 0.72054 0.15759 0.23748 0.0
N383 N 0.66486 0.10967 0.14081 0.0
C384 C 0.62273 0.1027 0.10088 0.0
C385 C 0.63359 0.09464 0.05495 0.0
C386 C 0.65462 0.09855 0.07511 0.0
C387 C 0.65444 0.11748 0.18666 0.0
C388 C 0.6333 0.11394 0.16838 0.0
H389 H 0.66319 0.09393 0.03432 0.0
H390 H 0.66306 0.12794 0.23459 0.0
H391 H 0.70756 0.11605 0.98404 0.0
H392 H 0.69469 0.16801 0.94243 0.0
H393 H 0.70756 0.08407 0.37947 0.0
H394 H 0.62662 0.08664 0.00085 0.0
H395 H 0.62573 0.12074 0.20535 0.0
H396 H 0.25774 0.39123 0.99515 0.0
H397 H 0.2335 0.41915 0.16313 0.0
H398 H 0.22552 0.38215 0.91386 0.0
H399 H 0.20118 0.40964 0.08365 0.0
H400 H 0.19583 0.42038 0.76837 0.0
H401 H 0.219 0.41116 0.84702 0.0
H402 H 0.16636 0.38063 0.01336 0.0
H403 H 0.14289 0.38946 0.93288 0.0
C404 C 0.245 0.39446 0.0162 0.0
C405 C 0.24801 0.40581 0.08542 0.0
C406 C 0.22666 0.38943 0.96952 0.0
C407 C 0.21081 0.39523 0.9922 0.0
C408 C 0.21289 0.4047 0.06478 0.0
C409 C 0.23142 0.41018 0.11037 0.0
C410 C 0.18888 0.41083 0.82011 0.0
C411 C 0.16756 0.40549 0.84435 0.0
C412 C 0.20213 0.40551 0.86521 0.0
C413 C 0.19457 0.39523 0.93664 0.0
C414 C 0.17263 0.38854 0.95856 0.0
C415 C 0.15914 0.39343 0.91233 0.0
H416 H 0.74931 0.1635 0.35626 0.0
H417 H 0.77231 0.17095 0.12363 0.0
H418 H 0.78602 0.19231 0.3973 0.0
H419 H 0.80927 0.20032 0.16444 0.0
H420 H 0.84582 0.27455 0.26352 0.0
H421 H 0.81853 0.23856 0.2126 0.0
H422 H 0.82759 0.20652 0.40936 0.0
H423 H 0.85553 0.2429 0.45973 0.0
C424 C 0.7625 0.17089 0.31431 0.0
C425 C 0.75806 0.16506 0.23688 0.0
C426 C 0.78357 0.18733 0.33784 0.0
C427 C 0.80056 0.19869 0.28414 0.0
C428 C 0.79649 0.19186 0.20712 0.0
C429 C 0.77543 0.175 0.18377 0.0
C430 C 0.84254 0.25977 0.29467 0.0
C431 C 0.85275 0.26147 0.36553 0.0
C432 C 0.82696 0.23911 0.2653 0.0
C433 C 0.82082 0.21965 0.30699 0.0
C434 C 0.83199 0.22124 0.37596 0.0
C435 C 0.84804 0.242 0.40461 0.0
H436 H 0.61537 0.76825 0.52529 0.0
H437 H 0.57285 0.73501 0.71749 0.0
H438 H 0.62451 0.80428 0.58083 0.0
H439 H 0.58209 0.77058 0.77335 0.0
H440 H 0.60351 0.83588 0.8748 0.0
H441 H 0.61074 0.80693 0.82777 0.0
H442 H 0.59933 0.82058 0.59666 0.0
H443 H 0.59196 0.84919 0.64414 0.0
C444 C 0.60864 0.7687 0.5806 0.0
C445 C 0.59341 0.74893 0.61719 0.0
C446 C 0.61372 0.78927 0.61214 0.0
C447 C 0.604 0.79033 0.68152 0.0
C448 C 0.59009 0.77047 0.72045 0.0
C449 C 0.5847 0.75004 0.68828 0.0
C450 C 0.60355 0.8333 0.81377 0.0
C451 C 0.59758 0.84497 0.76284 0.0
C452 C 0.60747 0.8166 0.78684 0.0
C453 C 0.60551 0.81135 0.70843 0.0
C454 C 0.60129 0.82435 0.65715 0.0
C455 C 0.59711 0.84081 0.68425 0.0
H456 H 0.84514 0.57662 0.07566 0.0
H457 H 0.8553 0.61763 0.87805 0.0
H458 H 0.81866 0.58636 0.12678 0.0
H459 H 0.82805 0.62708 0.92857 0.0
H460 H 0.74988 0.59381 0.99045 0.0
H461 H 0.78603 0.60102 0.94477 0.0
H462 H 0.81154 0.61656 0.17499 0.0
H463 H 0.77523 0.60955 0.22029 0.0
C464 C 0.84212 0.58825 0.04419 0.0
C465 C 0.8523 0.59644 0.9731 0.0
C466 C 0.82699 0.59392 0.07363 0.0
C467 C 0.82122 0.60751 0.03181 0.0
C468 C 0.83221 0.6166 0.96215 0.0
C469 C 0.84786 0.61132 0.93344 0.0
C470 C 0.76353 0.59977 0.03059 0.0
C471 C 0.75994 0.60143 0.10862 0.0
C472 C 0.78425 0.6039 0.00448 0.0
C473 C 0.80164 0.60924 0.05629 0.0
C474 C 0.79845 0.61243 0.13374 0.0
C475 C 0.77777 0.60863 0.15963 0.0
H476 H 0.16122 0.76651 0.50358 0.0
H477 H 0.16268 0.74333 0.2765 0.0
H478 H 0.19078 0.80386 0.46757 0.0
H479 H 0.19183 0.7803 0.2403 0.0
H480 H 0.24365 0.8496 0.18423 0.0
H481 H 0.20594 0.82084 0.22067 0.0
H482 H 0.23036 0.8152 0.44155 0.0
H483 H 0.26763 0.84351 0.40501 0.0
C484 C 0.16727 0.76962 0.4453 0.0
C485 C 0.15981 0.7521 0.39289 0.0
C486 C 0.18427 0.79091 0.42475 0.0
C487 C 0.19379 0.79504 0.35114 0.0
C488 C 0.18481 0.77784 0.29711 0.0
C489 C 0.16817 0.7566 0.31797 0.0
C490 C 0.24073 0.8426 0.24119 0.0
C491 C 0.25853 0.84856 0.29152 0.0
C492 C 0.21921 0.8261 0.262 0.0
C493 C 0.21514 0.81565 0.334 0.0
C494 C 0.23278 0.82299 0.38609 0.0
C495 C 0.25421 0.8391 0.36487 0.0
H496 H 0.39888 0.24254 0.49853 0.0
H497 H 0.4231 0.26646 0.72544 0.0
H498 H 0.39169 0.2055 0.53583 0.0
H499 H 0.41588 0.22978 0.76294 0.0
H500 H 0.39973 0.16095 0.82098 0.0
H501 H 0.39023 0.18922 0.78359 0.0
H502 H 0.42027 0.19483 0.56279 0.0
H503 H 0.42976 0.16699 0.6002 0.0
C504 C 0.4018 0.23964 0.55709 0.0
C505 C 0.41157 0.25729 0.60911 0.0
C506 C 0.39789 0.21853 0.57836 0.0
C507 C 0.40338 0.21471 0.65228 0.0
C508 C 0.41126 0.232 0.70591 0.0
C509 C 0.41548 0.25307 0.68433 0.0
C510 C 0.4037 0.16783 0.76384 0.0
C511 C 0.41567 0.16197 0.71377 0.0
C512 C 0.39838 0.18407 0.74249 0.0
C513 C 0.40456 0.19437 0.67021 0.0
C514 C 0.41502 0.18714 0.61845 0.0
C515 C 0.42065 0.1713 0.64019 0.0
H516 H 0.5077 0.5832 0.4417 0.0
H517 H 0.49523 0.61935 0.26675 0.0
H518 H 0.47543 0.54884 0.39893 0.0
H519 H 0.46264 0.58512 0.22537 0.0
H520 H 0.41634 0.51636 0.12769 0.0
H521 H 0.45098 0.54926 0.16432 0.0
H522 H 0.43502 0.53254 0.40232 0.0
H523 H 0.40034 0.49982 0.36596 0.0
C524 C 0.49822 0.58379 0.3936 0.0
C525 C 0.50403 0.60405 0.35779 0.0
C526 C 0.47958 0.56412 0.36963 0.0
C527 C 0.46637 0.56422 0.30897 0.0
C528 C 0.47253 0.5844 0.27186 0.0
C529 C 0.49109 0.60407 0.29608 0.0
C530 C 0.42017 0.51972 0.18786 0.0
C531 C 0.40545 0.50539 0.24379 0.0
C532 C 0.44005 0.53859 0.20884 0.0
C533 C 0.44578 0.54357 0.28627 0.0
C534 C 0.4313 0.52903 0.34214 0.0
C535 C 0.41138 0.51022 0.32121 0.0
H536 H 0.87385 0.48715 0.68752 0.0
H537 H 0.94098 0.51674 0.77262 0.0
H538 H 0.87553 0.45466 0.64699 0.0
H539 H 0.94276 0.48422 0.72984 0.0
H540 H 0.9399 0.42892 0.56423 0.0
H541 H 0.94128 0.46301 0.60747 0.0
H542 H 0.87768 0.42418 0.71692 0.0
H543 H 0.87648 0.39027 0.6759 0.0
C544 C 0.88896 0.48674 0.69792 0.0
C545 C 0.90715 0.5045 0.73453 0.0
C546 C 0.88992 0.4681 0.67441 0.0
C547 C 0.90917 0.46677 0.68609 0.0
C548 C 0.92772 0.48482 0.71993 0.0
C549 C 0.9267 0.50347 0.7442 0.0
C550 C 0.92639 0.42764 0.59864 0.0
C551 C 0.90792 0.40678 0.61558 0.0
C552 C 0.92717 0.44718 0.62316 0.0
C553 C 0.90943 0.44626 0.66455 0.0
C554 C 0.89138 0.42544 0.68365 0.0
C555 C 0.89068 0.40599 0.65989 0.0
H556 H 0.47857 0.87087 0.93134 0.0
H557 H 0.52361 0.93825 0.00267 0.0
H558 H 0.44769 0.87331 0.98549 0.0
H559 H 0.49262 0.94015 0.05973 0.0
H560 H 0.43203 0.92241 0.22285 0.0
H561 H 0.46397 0.92096 0.16976 0.0
H562 H 0.4286 0.89573 0.95746 0.0
H563 H 0.39696 0.89726 0.00999 0.0
C564 C 0.48196 0.8863 0.95775 0.0
C565 C 0.50374 0.90441 0.96185 0.0
C566 C 0.46421 0.88759 0.98939 0.0
C567 C 0.46776 0.9069 0.02699 0.0
C568 C 0.48945 0.92496 0.03188 0.0
C569 C 0.5072 0.92381 -0.00078 0.0
C570 C 0.43118 0.9166 0.16488 0.0
C571 C 0.41211 0.91013 0.12036 0.0
C572 C 0.44944 0.91588 0.13439 0.0
C573 C 0.44874 0.90823 0.05947 0.0
C574 C 0.42958 0.90158 0.01545 0.0
C575 C 0.41155 0.90264 0.04535 0.0
H576 H 0.59003 0.4983 0.19624 0.0
H577 H 0.61792 0.51429 0.42323 0.0
H578 H 0.55653 0.4663 0.24747 0.0
H579 H 0.58458 0.48217 0.47423 0.0
H580 H 0.53442 0.40547 0.49887 0.0
H581 H 0.56686 0.43942 0.45538 0.0
H582 H 0.5245 0.45926 0.34248 0.0
H583 H 0.49186 0.42588 0.38897 0.0
C584 C 0.58894 0.49498 0.25703 0.0
C585 C 0.6065 0.50878 0.30583 0.0
C586 C 0.56977 0.47679 0.28636 0.0
C587 C 0.56801 0.4718 0.36478 0.0
C588 C 0.58556 0.48561 0.41355 0.0
C589 C 0.60454 0.50404 0.38446 0.0
C590 C 0.53186 0.41723 0.46649 0.0
C591 C 0.51034 0.41273 0.44755 0.0
C592 C 0.55053 0.43665 0.44112 0.0
C593 C 0.54817 0.45187 0.39521 0.0
C594 C 0.52677 0.44764 0.37703 0.0
C595 C 0.50809 0.42843 0.40348 0.0
H596 H 0.0969 0.50737 0.78127 0.0
H597 H 0.11503 0.49855 0.55358 0.0
H598 H 0.09471 0.53965 0.73733 0.0
H599 H 0.11295 0.5308 0.50991 0.0
H600 H 0.13633 0.60633 0.50136 0.0
H601 H 0.1357 0.57252 0.54022 0.0
H602 H 0.07127 0.54839 0.64214 0.0
H603 H 0.07124 0.58182 0.60025 0.0
C604 C 0.10034 0.51231 0.72189 0.0
C605 C 0.10608 0.50045 0.6708 0.0
C606 C 0.09895 0.53066 0.69667 0.0
C607 C 0.10368 0.53771 0.62025 0.0
C608 C 0.10933 0.52578 0.56918 0.0
C609 C 0.11036 0.50726 0.59405 0.0
C610 C 0.12172 0.59369 0.53033 0.0
C611 C 0.10376 0.59692 0.54706 0.0
C612 C 0.12148 0.57434 0.55311 0.0
C613 C 0.10346 0.55787 0.59426 0.0
C614 C 0.08548 0.56095 0.6111 0.0
C615 C 0.08553 0.58016 0.58725 0.0
H616 H 0.58778 0.06814 0.02666 0.0
H617 H 0.61014 0.13417 0.11198 0.0
H618 H 0.55581 0.06765 0.96823 0.0
H619 H 0.57755 0.13319 0.05717 0.0
H620 H 0.53213 0.13579 0.87691 0.0
H621 H 0.5635 0.13513 0.93499 0.0
H622 H 0.52132 0.06595 0.99136 0.0
H623 H 0.49018 0.06631 0.92941 0.0
C624 C 0.58578 0.08248 0.0337 0.0
C625 C 0.60169 0.10124 0.07382 0.0
C626 C 0.56728 0.08211 0.00072 0.0
C627 C 0.56411 0.10046 0.00722 0.0
C628 C 0.57962 0.11891 0.04963 0.0
C629 C 0.59817 0.11932 0.08232 0.0
C630 C 0.52959 0.12029 0.90017 0.0
C631 C 0.50854 0.10108 0.89802 0.0
C632 C 0.54756 0.12001 0.93486 0.0
C633 C 0.54499 0.10055 0.96879 0.0
C634 C 0.52403 0.08123 0.96549 0.0
C635 C 0.50607 0.08148 0.93049 0.0
H636 H 0.32278 0.39197 0.33416 0.0
H637 H 0.32382 0.35573 0.13593 0.0
H638 H 0.34222 0.37748 0.40743 0.0
H639 H 0.34457 0.34197 0.20863 0.0
H640 H 0.40373 0.37783 0.4811 0.0
H641 H 0.37921 0.38585 0.40877 0.0
H642 H 0.34727 0.31991 0.31269 0.0
H643 H 0.37291 0.31198 0.38465 0.0
C644 C 0.32705 0.38078 0.30625 0.0
C645 C 0.32186 0.37518 0.22902 0.0
C646 C 0.33844 0.37258 0.34815 0.0
C647 C 0.34554 0.35895 0.31362 0.0
C648 C 0.33937 0.35238 0.23726 0.0
C649 C 0.32753 0.36032 0.19549 0.0
C650 C 0.39145 0.36484 0.44508 0.0
C651 C 0.39018 0.34411 0.43962 0.0
C652 C 0.37717 0.36944 0.40372 0.0
C653 C 0.36081 0.3534 0.35593 0.0
C654 C 0.35964 0.33266 0.34908 0.0
C655 C 0.37424 0.32807 0.3905 0.0
H656 H 0.07467 0.38898 0.59798 0.0
H657 H 0.04512 0.34871 0.79862 0.0
H658 H 0.03863 0.37081 0.53451 0.0
H659 H 0.00896 0.33067 0.73507 0.0
H660 H 0.94691 0.33094 0.6303 0.0
H661 H 0.98283 0.3445 0.6921 0.0
H662 H 0.00892 0.33281 0.48479 0.0
H663 H 0.97283 0.31895 0.42286 0.0
C664 C 0.06055 0.37609 0.6283 0.0
C665 C 0.06281 0.37033 0.70348 0.0
C666 C 0.0399 0.36561 0.59174 0.0
C667 C 0.02094 0.34937 0.62988 0.0
C668 C 0.02326 0.34324 0.70444 0.0
C669 C 0.044 0.35347 0.7406 0.0
C670 C 0.96022 0.33109 0.59795 0.0
C671 C 0.95697 0.32389 0.52151 0.0
C672 C 0.98078 0.33874 0.63358 0.0
C673 C 0.99871 0.33973 0.59332 0.0
C674 C 0.99544 0.33234 0.51713 0.0
C675 C 0.97474 0.32432 0.48182 0.0
H676 H 0.68183 0.06862 0.96491 0.0
H677 H 0.67582 0.03753 0.18343 0.0
H678 H 0.67148 0.03343 0.90065 0.0
H679 H 0.66652 1.00285 0.12024 0.0
H680 H 0.61461 0.94038 0.0005 0.0
H681 H 0.63324 0.9765 0.06004 0.0
H682 H 0.67788 1.00291 0.86759 0.0
H683 H 0.65852 0.96642 0.80622 0.0
C684 C 0.67913 0.05448 -0.00115 0.0
C685 C 0.67945 0.05563 0.07893 0.0
C686 C 0.67316 0.0343 0.96224 0.0
C687 C 0.66764 0.0151 0.00535 0.0
C688 C 0.66998 0.01705 0.08524 0.0
C689 C 0.67554 0.03697 0.12153 0.0
C690 C 0.62844 0.95377 0.97072 0.0
C691 C 0.63491 0.95044 0.89823 0.0
C692 C 0.63936 0.97456 0.00539 0.0
C693 C 0.65722 0.99273 0.96896 0.0
C694 C 0.6641 0.98935 0.89708 0.0
C695 C 0.65312 0.96839 0.8622 0.0
H696 H 0.63429 0.69783 0.3759 0.0
H697 H 0.62649 0.65037 0.54943 0.0
H698 H 0.65917 0.68903 0.3052 0.0
H699 H 0.6499 0.6406 0.47763 0.0
H700 H 0.67921 0.64713 0.15526 0.0
H701 H 0.66029 0.66259 0.22814 0.0
H702 H 0.68442 0.64923 0.43796 0.0
H703 H 0.70192 0.63251 0.36467 0.0
C704 C 0.63794 0.68559 0.3991 0.0
C705 C 0.62845 0.67491 0.4686 0.0
C706 C 0.65206 0.68035 0.35819 0.0
C707 C 0.65675 0.66404 0.38519 0.0
C708 C 0.64735 0.65364 0.45528 0.0
C709 C 0.63364 0.65914 0.49657 0.0
C710 C 0.68067 0.64783 0.21696 0.0
C711 C 0.69184 0.63844 0.25442 0.0
C712 C 0.66986 0.65677 0.25902 0.0
C713 C 0.67037 0.65694 0.3396 0.0
C714 C 0.68287 0.64878 0.37637 0.0
C715 C 0.69315 0.63935 0.33439 0.0
H716 H 0.02722 0.64069 0.49378 0.0
H717 H 0.07141 0.69324 0.64548 0.0
H718 H 0.99631 0.63232 0.57671 0.0
H719 H 0.03991 0.68519 0.72867 0.0
H720 H 0.98301 0.64096 0.9014 0.0
H721 H 0.01519 0.65701 0.81688 0.0
H722 H 0.97202 0.6439 0.62261 0.0
H723 H 0.93994 0.62723 0.70686 0.0
C724 C 0.03033 0.65075 0.54445 0.0
C725 C 0.05191 0.66758 0.56303 0.0
C726 C 0.01244 0.64604 0.59195 0.0
C727 C 0.01545 0.65809 0.6596 0.0
C728 C 0.03697 0.67541 0.6774 0.0
C729 C 0.05502 0.68015 0.62949 0.0
C730 C 0.98044 0.64185 0.84076 0.0
C731 C 0.95887 0.63247 0.81071 0.0
C732 C 0.99894 0.65115 0.7922 0.0
C733 C 0.99628 0.65146 0.71253 0.0
C734 C 0.97474 0.64342 0.68334 0.0
C735 C 0.95629 0.63392 0.7317 0.0
H736 H 0.36646 0.03207 0.7911 0.0
H737 H 0.39948 0.07032 0.99143 0.0
H738 H 0.34394 0.99975 0.87067 0.0
H739 H 0.37849 0.0379 0.071 0.0
H740 H 0.33849 0.9789 0.21188 0.0
H741 H 0.34815 0.01091 0.13094 0.0
H742 H 0.34715 0.97299 0.93346 0.0
H743 H 0.3357 0.94071 0.01452 0.0
C744 C 0.36862 0.03359 0.85254 0.0
C745 C 0.3846 0.0537 0.88519 0.0
C746 C 0.35596 0.01496 0.89831 0.0
C747 C 0.3595 0.01577 0.97782 0.0
C748 C 0.3748 0.03639 0.01053 0.0
C749 C 0.387 0.05516 0.96482 0.0
C750 C 0.33967 0.97735 0.15069 0.0
C751 C 0.33627 0.95739 0.11921 0.0
C752 C 0.34556 0.9958 0.10417 0.0
C753 C 0.34905 0.99501 0.02519 0.0
C754 C 0.34442 0.97448 0.99347 0.0
C755 C 0.33786 0.95583 0.03992 0.0
H756 H 0.28114 0.44563 0.50055 0.0
H757 H 0.31477 0.40953 0.44575 0.0
H758 H 0.28569 0.44111 0.63663 0.0
H759 H 0.31877 0.40447 0.58123 0.0
H760 H 0.35015 0.43025 0.81818 0.0
H761 H 0.3416 0.43008 0.6835 0.0
H762 H 0.27476 0.41349 0.74131 0.0
H763 H 0.28318 0.41336 0.87642 0.0
C764 C 0.28922 0.43647 0.51758 0.0
C765 C 0.29765 0.42803 0.46232 0.0
C766 C 0.29168 0.43373 0.59543 0.0
C767 C 0.30276 0.42259 0.61958 0.0
C768 C 0.31041 0.41338 0.56434 0.0
C769 C 0.30785 0.41603 0.48661 0.0
C770 C 0.33353 0.42625 0.80246 0.0
C771 C 0.3174 0.42186 0.85855 0.0
C772 C 0.32863 0.42614 0.72508 0.0
C773 C 0.30749 0.42171 0.70178 0.0
C774 C 0.29127 0.41718 0.7576 0.0
C775 C 0.29615 0.41719 0.8351 0.0
H776 H 0.8844 0.2945 0.19973 0.0
H777 H 0.93366 0.36136 0.13803 0.0
H778 H 0.87808 0.28438 0.06517 0.0
H779 H 0.92703 0.35131 0.00292 0.0
H780 H 0.92121 0.3203 0.76774 0.0
H781 H 0.93047 0.32769 0.90276 0.0
H782 H 0.86081 0.29417 0.95911 0.0
H783 H 0.85145 0.2871 0.82437 0.0
C784 C 0.89417 0.30696 0.15759 0.0
C785 C 0.9095 0.3288 0.17967 0.0
C786 C 0.89036 0.3012 0.08038 0.0
C787 C 0.90192 0.31709 0.02345 0.0
C788 C 0.91794 0.33867 0.04548 0.0
C789 C 0.92163 0.34447 0.12276 0.0
C790 C 0.90782 0.31459 0.80864 0.0
C791 C 0.88553 0.30324 0.78459 0.0
C792 C 0.91317 0.31878 0.88614 0.0
C793 C 0.89638 0.31154 0.94152 0.0
C794 C 0.87413 0.2997 0.91785 0.0
C795 C 0.86877 0.29564 0.84038 0.0
H796 H 0.59249 0.91082 0.12945 0.0
H797 H 0.56477 0.84167 0.18724 0.0
H798 H 0.59635 0.92026 0.26445 0.0
H799 H 0.56795 0.85106 0.32278 0.0
H800 H 0.59561 0.87867 0.55927 0.0
H801 H 0.59532 0.87034 0.42401 0.0
H802 H 0.57123 0.91511 0.37037 0.0
H803 H 0.57141 0.92332 0.50598 0.0
C804 C 0.58751 0.89764 0.17087 0.0
C805 C 0.57837 0.87545 0.1475 0.0
C806 C 0.58944 0.90304 0.24835 0.0
C807 C 0.58231 0.8864 0.3043 0.0
C808 C 0.57373 0.86428 0.28105 0.0
C809 C 0.57175 0.85887 0.20348 0.0
C810 C 0.59004 0.88656 0.51874 0.0
C811 C 0.5833 0.90147 0.54349 0.0
C812 C 0.58994 0.88184 0.4412 0.0
C813 C 0.58318 0.892 0.3865 0.0
C814 C 0.57681 0.90722 0.41105 0.0
C815 C 0.57688 0.91191 0.48872 0.0
H816 H 0.7027 0.56396 0.9086 0.0
H817 H 0.67311 0.60404 0.8552 0.0
H818 H 0.71032 0.56252 0.77439 0.0
H819 H 0.67981 0.60165 0.7195 0.0
H820 H 0.71677 0.61179 0.49196 0.0
H821 H 0.71004 0.61461 0.62732 0.0
H822 H 0.69078 0.54576 0.65842 0.0
H823 H 0.69766 0.54305 0.52394 0.0
C824 C 0.69783 0.57253 0.86837 0.0
C825 C 0.68741 0.58427 0.89309 0.0
C826 C 0.70196 0.57145 0.79103 0.0
C827 C 0.69564 0.58193 0.73609 0.0
C828 C 0.68511 0.59359 0.76049 0.0
C829 C 0.68102 0.59473 0.83817 0.0
C830 C 0.71111 0.59729 0.52783 0.0
C831 C 0.70791 0.57725 0.49722 0.0
C832 C 0.70716 0.59887 0.60527 0.0
C833 C 0.69988 0.58042 0.65373 0.0
C834 C 0.69676 0.56041 0.62306 0.0
C835 C 0.70077 0.55887 0.54585 0.0
H836 H 0.07461 0.67535 0.13033 0.0
H837 H 0.14229 0.69643 0.19274 0.0
H838 H 0.08485 0.67965 0.99555 0.0
H839 H 0.15258 0.70078 0.05809 0.0
H840 H 0.15591 0.68373 0.80459 0.0
H841 H 0.14701 0.67959 0.94042 0.0
H842 H 0.10659 0.70986 0.90679 0.0
H843 H 0.1155 0.714 0.7711 0.0
C844 C 0.09166 0.68088 0.11514 0.0
C845 C 0.10759 0.68549 0.17211 0.0
C846 C 0.09756 0.68343 0.03806 0.0
C847 C 0.11957 0.69073 0.01617 0.0
C848 C 0.13544 0.69491 0.07308 0.0
C849 C 0.12952 0.69232 0.15028 0.0
C850 C 0.14543 0.68983 0.82633 0.0
C851 C 0.13632 0.69909 0.77685 0.0
C852 C 0.14027 0.6874 0.90419 0.0
C853 C 0.12591 0.69418 0.93423 0.0
C854 C 0.11732 0.70402 0.88512 0.0
C855 C 0.12247 0.70644 0.80739 0.0
H856 H 0.4055 0.07412 0.45866 0.0
H857 H 0.45678 0.14017 0.51881 0.0
H858 H 0.4123 0.08365 0.32343 0.0
H859 H 0.46344 0.14996 0.38356 0.0
H860 H 0.48048 0.15307 0.12745 0.0
H861 H 0.47662 0.1436 0.26295 0.0
H862 H 0.40538 0.10641 0.23691 0.0
H863 H 0.4093 0.11573 0.10165 0.0
C864 C 0.41835 0.09063 0.44269 0.0
C865 C 0.43057 0.10639 0.49905 0.0
C866 C 0.42216 0.09617 0.3654 0.0
C867 C 0.43818 0.11768 0.34267 0.0
C868 C 0.45108 0.1332 0.39907 0.0
C869 C 0.44734 0.12759 0.47656 0.0
C870 C 0.46399 0.14313 0.15091 0.0
C871 C 0.44518 0.13509 0.10372 0.0
C872 C 0.46179 0.13764 0.22854 0.0
C873 C 0.44071 0.12404 0.26064 0.0
C874 C 0.4219 0.11647 0.21369 0.0
C875 C 0.42412 0.12189 0.1362 0.0
H876 H 0.57603 0.72974 0.15429 0.0
H877 H 0.60047 0.6852 0.20873 0.0
H878 H 0.57608 0.72165 0.01978 0.0
H879 H 0.59992 0.67675 0.07333 0.0
H880 H 0.56329 0.64693 0.83944 0.0
H881 H 0.56977 0.65707 0.97459 0.0
H882 H 0.60183 0.72631 0.91289 0.0
H883 H 0.59505 0.71618 0.77831 0.0
C884 C 0.58173 0.71848 0.13801 0.0
C885 C 0.58812 0.70806 0.19326 0.0
C886 C 0.58173 0.71383 0.06049 0.0
C887 C 0.58797 0.69855 0.03609 0.0
C888 C 0.5948 0.68843 0.09071 0.0
C889 C 0.59501 0.69324 0.16839 0.0
C890 C 0.57186 0.66429 0.85488 0.0
C891 C 0.57854 0.68072 0.7983 0.0
C892 C 0.57575 0.67011 0.93208 0.0
C893 C 0.58621 0.69248 0.95419 0.0
C894 C 0.59357 0.70893 0.89749 0.0
C895 C 0.58986 0.70312 0.82036 0.0
H896 H 0.93492 0.57976 0.20654 0.0
H897 H 0.88151 0.59145 0.14574 0.0
H898 H 0.92776 0.58235 0.34166 0.0
H899 H 0.87477 0.59459 0.28011 0.0
H900 H 0.85004 0.56484 0.52081 0.0
H901 H 0.85947 0.56751 0.38606 0.0
H902 H 0.92887 0.60838 0.44156 0.0
H903 H 0.91949 0.60606 0.57657 0.0
C904 C 0.92183 0.58311 0.2219 0.0
C905 C 0.90871 0.58524 0.16521 0.0
C906 C 0.91785 0.58479 0.29922 0.0
C907 C 0.90059 0.58851 0.32142 0.0
C908 C 0.88801 0.59144 0.26474 0.0
C909 C 0.89206 0.58988 0.18757 0.0
C910 C 0.86728 0.57471 0.50454 0.0
C911 C 0.88397 0.5851 0.56001 0.0
C912 C 0.87269 0.57623 0.42712 0.0
C913 C 0.89492 0.58811 0.40328 0.0
C914 C 0.91161 0.59885 0.45837 0.0
C915 C 0.9062 0.59745 0.53582 0.0
H916 H 0.29478 0.91026 0.54111 0.0
H917 H 0.3452 0.89221 0.50628 0.0
H918 H 0.29255 0.9005 0.6748 0.0
H919 H 0.3424 0.88181 0.64127 0.0
H920 H 0.31094 0.84535 0.87349 0.0
H921 H 0.31326 0.85332 0.73677 0.0
H922 H 0.31939 0.91682 0.78558 0.0
H923 H 0.3177 0.9094 0.92095 0.0
C924 C 0.3056 0.90444 0.56177 0.0
C925 C 0.32049 0.90241 0.5127 0.0
C926 C 0.30415 0.89868 0.63857 0.0
C927 C 0.31739 0.89055 0.66831 0.0
C928 C 0.3319 0.88793 0.61943 0.0
C929 C 0.33351 0.89391 0.5423 0.0
C930 C 0.31292 0.86107 0.85531 0.0
C931 C 0.31401 0.87663 0.90908 0.0
C932 C 0.31426 0.8656 0.77697 0.0
C933 C 0.31644 0.88564 0.75087 0.0
C934 C 0.31741 0.9011 0.80421 0.0
C935 C 0.3163 0.89671 0.88219 0.0
H936 H 0.44954 0.31174 0.80745 0.0
H937 H 0.40506 0.33539 0.87028 0.0
H938 H 0.45492 0.30666 0.94211 0.0
H939 H 0.4104 0.33031 0.00491 0.0
H940 H 0.40478 0.29485 0.22851 0.0
H941 H 0.40047 0.29937 0.09265 0.0
H942 H 0.47102 0.32758 0.06053 0.0
H943 H 0.47534 0.32314 0.19639 0.0
C944 C 0.44123 0.31624 0.84999 0.0
C945 C 0.42687 0.324 0.82827 0.0
C946 C 0.44423 0.31322 0.92716 0.0
C947 C 0.43292 0.31788 0.98411 0.0
C948 C 0.41899 0.32613 0.96234 0.0
C949 C 0.416 0.32913 0.88534 0.0
C950 C 0.41937 0.30203 0.19253 0.0
C951 C 0.4404 0.30874 0.22354 0.0
C952 C 0.41691 0.30466 0.1147 0.0
C953 C 0.43545 0.31405 0.066 0.0
C954 C 0.4564 0.32013 0.09646 0.0
C955 C 0.45885 0.31752 0.17438 0.0
H956 H 0.12741 0.39652 0.46359 0.0
H957 H 0.15 0.46632 0.44296 0.0
H958 H 0.1177 0.39157 0.32691 0.0
H959 H 0.14015 0.4614 0.30776 0.0
H960 H 0.0932 0.43689 0.09942 0.0
H961 H 0.10217 0.43942 0.23544 0.0
H962 H 0.1401 0.40691 0.19462 0.0
H963 H 0.13126 0.40455 0.05789 0.0
C964 C 0.13032 0.41074 0.42974 0.0
C965 C 0.13964 0.43181 0.46349 0.0
C966 C 0.12487 0.40795 0.35185 0.0
C967 C 0.12816 0.42611 0.3071 0.0
C968 C 0.13737 0.44712 0.34108 0.0
C969 C 0.14319 0.44996 0.41823 0.0
C970 C 0.10327 0.43011 0.11957 0.0
C971 C 0.11157 0.42056 0.06814 0.0
C972 C 0.1085 0.43167 0.19722 0.0
C973 C 0.12183 0.42337 0.22531 0.0
C974 C 0.12971 0.41333 0.17435 0.0
C975 C 0.1248 0.41213 0.09627 0.0
H976 H 0.67161 0.12355 0.45144 0.0
H977 H 0.72014 0.10302 0.48826 0.0
H978 H 0.67443 0.13386 0.5865 0.0
H979 H 0.72224 0.11258 0.622 0.0
H980 H 0.69551 0.10372 0.86679 0.0
H981 H 0.6937 0.09637 0.73117 0.0
H982 H 0.70515 0.16197 0.68255 0.0
H983 H 0.7078 0.16991 0.81943 0.0
C984 C 0.68288 0.12128 0.48787 0.0
C985 C 0.69537 0.11213 0.45879 0.0
C986 C 0.68448 0.12719 0.565 0.0
C987 C 0.69841 0.12381 0.61433 0.0
C988 C 0.71111 0.11501 0.58522 0.0
C989 C 0.70972 0.10936 0.50842 0.0
C990 C 0.69811 0.11686 0.82794 0.0
C991 C 0.70208 0.13757 0.85474 0.0
C992 C 0.69687 0.11251 0.74996 0.0
C993 C 0.69931 0.12862 0.69675 0.0
C994 C 0.70303 0.14924 0.72278 0.0
C995 C 0.70455 0.15373 0.80111 0.0
loop_
_geom_bond_atom_site_label_1
_geom_bond_atom_site_label_2
_geom_bond_distance
_geom_bond_site_symmetry_2
_ccdc_geom_bond_type
C0 C1 1.351 . S
C0 N3 1.368 . S
C0 H5 0.931 . S
C1 C0 1.351 . S
C1 N2 1.373 . S
C1 H29 0.930 . S
N2 C1 1.373 . S
N2 C4 1.340 . S
N3 C0 1.368 . S
N3 C4 1.321 . S
N3 Co6 2.135 . S
C4 N2 1.340 . S
C4 N3 1.321 . S
C4 H28 0.930 . S
H5 C0 0.931 . S
Co6 N3 2.135 . S
Co6 N9 2.121 . S
Co6 O14 2.055 . S
Co6 O17 2.039 . S
Co6 N20 2.140 . S
C7 O8 1.227 . S
C7 O17 1.265 . S
O8 C7 1.227 . S
N9 Co6 2.121 . S
N9 C11 1.375 . S
N9 C12 1.313 . S
C10 C11 1.338 . S
C10 N13 1.377 1_554 S
C10 H30 0.930 1_554 S
C11 N9 1.375 . S
C11 C10 1.338 . S
C11 H15 0.931 . S
C12 N9 1.313 . S
C12 N13 1.344 1_554 S
C12 H16 0.930 . S
N13 C10 1.377 1_556 S
N13 C12 1.344 1_556 S
O14 Co6 2.055 . S
O14 C18 1.253 . S
H15 C11 0.931 . S
H16 C12 0.930 . S
O17 Co6 2.039 . S
O17 C7 1.265 . S
C18 O14 1.253 . S
C18 O19 1.227 . S
O19 C18 1.227 . S
N20 Co6 2.140 . S
N20 C23 1.346 . S
N20 C24 1.345 . S
C21 C22 1.387 . S
C21 C25 1.391 . S
C22 C21 1.387 . S
C22 C23 1.369 . S
C22 H31 0.929 . S
C23 N20 1.346 . S
C23 C22 1.369 . S
C23 H26 0.928 . S
C24 N20 1.345 . S
C24 C25 1.371 . S
C24 H27 0.931 . S
C25 C21 1.391 . S
C25 C24 1.371 . S
C25 H32 0.930 . S
H26 C23 0.928 . S
H27 C24 0.931 . S
H28 C4 0.930 . S
H29 C1 0.930 . S
H30 C10 0.930 1_556 S
H31 C22 0.929 . S
H32 C25 0.930 . S
C33 C34 1.351 . S
C33 N36 1.368 . S
C33 H38 0.931 . S
C34 C33 1.351 . S
C34 N35 1.373 . S
C34 H62 0.930 . S
N35 C34 1.373 . S
N35 C37 1.340 . S
N36 C33 1.368 . S
N36 C37 1.321 . S
N36 Co39 2.135 . S
C37 N35 1.340 . S
C37 N36 1.321 . S
C37 H61 0.930 . S
H38 C33 0.931 . S
Co39 N36 2.135 . S
Co39 N42 2.121 . S
Co39 O47 2.055 . S
Co39 O50 2.039 . S
Co39 N53 2.140 . S
C40 O41 1.227 . S
C40 O50 1.265 . S
O41 C40 1.227 . S
N42 Co39 2.121 . S
N42 C44 1.375 . S
N42 C45 1.313 . S
C43 C44 1.338 . S
C43 N46 1.377 . S
C43 H63 0.930 . S
C44 N42 1.375 . S
C44 C43 1.338 . S
C44 H48 0.931 . S
C45 N42 1.313 . S
C45 N46 1.344 . S
C45 H49 0.930 . S
N46 C43 1.377 . S
N46 C45 1.344 . S
O47 Co39 2.055 . S
O47 C51 1.253 . S
H48 C44 0.931 . S
H49 C45 0.930 . S
O50 Co39 2.039 . S
O50 C40 1.265 . S
C51 O47 1.253 . S
C51 O52 1.227 . S
O52 C51 1.227 . S
N53 Co39 2.140 . S
N53 C56 1.346 . S
N53 C57 1.345 . S
C54 C55 1.387 . S
C54 C58 1.391 . S
C55 C54 1.387 . S
C55 C56 1.369 . S
C55 H64 0.929 . S
C56 N53 1.346 . S
C56 C55 1.369 . S
C56 H59 0.928 . S
C57 N53 1.345 . S
C57 C58 1.371 . S
C57 H60 0.931 . S
C58 C54 1.391 . S
C58 C57 1.371 . S
C58 H65 0.930 . S
H59 C56 0.928 . S
H60 C57 0.931 . S
H61 C37 0.930 . S
H62 C34 0.930 . S
H63 C43 0.930 . S
H64 C55 0.929 . S
H65 C58 0.930 . S
C66 C67 1.351 . S
C66 N69 1.368 . S
C66 H71 0.931 . S
C67 C66 1.351 . S
C67 N68 1.373 . S
C67 H95 0.930 . S
N68 C67 1.373 . S
N68 C70 1.340 . S
N69 C66 1.368 . S
N69 C70 1.321 . S
N69 Co72 2.135 1_554 S
C70 N68 1.340 . S
C70 N69 1.321 . S
C70 H94 0.930 . S
H71 C66 0.931 . S
Co72 N69 2.135 1_556 S
Co72 N75 2.121 . S
Co72 O80 2.055 . S
Co72 O83 2.039 . S
Co72 N86 2.140 . S
C73 O74 1.227 . S
C73 O83 1.265 . S
O74 C73 1.227 . S
N75 Co72 2.121 . S
N75 C77 1.375 . S
N75 C78 1.313 . S
C76 C77 1.338 . S
C76 N79 1.377 . S
C76 H96 0.930 . S
C77 N75 1.375 . S
C77 C76 1.338 . S
C77 H81 0.931 . S
C78 N75 1.313 . S
C78 N79 1.344 . S
C78 H82 0.930 . S
N79 C76 1.377 . S
N79 C78 1.344 . S
O80 Co72 2.055 . S
O80 C84 1.253 . S
H81 C77 0.931 . S
H82 C78 0.930 . S
O83 Co72 2.039 . S
O83 C73 1.265 . S
C84 O80 1.253 . S
C84 O85 1.227 . S
O85 C84 1.227 . S
N86 Co72 2.140 . S
N86 C89 1.346 . S
N86 C90 1.345 . S
C87 C88 1.387 . S
C87 C91 1.391 . S
C88 C87 1.387 . S
C88 C89 1.369 . S
C88 H97 0.929 1_556 S
C89 N86 1.346 . S
C89 C88 1.369 . S
C89 H92 0.928 1_556 S
C90 N86 1.345 . S
C90 C91 1.371 . S
C90 H93 0.931 . S
C91 C87 1.391 . S
C91 C90 1.371 . S
C91 H98 0.930 . S
H92 C89 0.928 1_554 S
H93 C90 0.931 . S
H94 C70 0.930 . S
H95 C67 0.930 . S
H96 C76 0.930 . S
H97 C88 0.929 1_554 S
H98 C91 0.930 . S
C99 C100 1.351 . S
C99 N102 1.368 . S
C99 H104 0.931 . S
C100 C99 1.351 . S
C100 N101 1.373 . S
C100 H128 0.930 . S
N101 C100 1.373 . S
N101 C103 1.340 . S
N102 C99 1.368 . S
N102 C103 1.321 . S
N102 Co105 2.135 . S
C103 N101 1.340 . S
C103 N102 1.321 . S
C103 H127 0.930 . S
H104 C99 0.931 . S
Co105 N102 2.135 . S
Co105 N108 2.121 . S
Co105 O113 2.055 . S
Co105 O116 2.039 . S
Co105 N119 2.140 . S
C106 O107 1.227 . S
C106 O116 1.265 . S
O107 C106 1.227 . S
N108 Co105 2.121 . S
N108 C110 1.375 . S
N108 C111 1.313 . S
C109 C110 1.338 . S
C109 N112 1.377 1_554 S
C109 H129 0.930 1_554 S
C110 N108 1.375 . S
C110 C109 1.338 . S
C110 H114 0.931 . S
C111 N108 1.313 . S
C111 N112 1.344 1_554 S
C111 H115 0.930 . S
N112 C109 1.377 1_556 S
N112 C111 1.344 1_556 S
O113 Co105 2.055 . S
O113 C117 1.253 . S
H114 C110 0.931 . S
H115 C111 0.930 . S
O116 Co105 2.039 . S
O116 C106 1.265 . S
C117 O113 1.253 . S
C117 O118 1.227 . S
O118 C117 1.227 . S
N119 Co105 2.140 . S
N119 C122 1.346 . S
N119 C123 1.345 . S
C120 C121 1.387 . S
C120 C124 1.391 . S
C121 C120 1.387 . S
C121 C122 1.369 . S
C121 H130 0.929 . S
C122 N119 1.346 . S
C122 C121 1.369 . S
C122 H125 0.928 . S
C123 N119 1.345 . S
C123 C124 1.371 . S
C123 H126 0.931 . S
C124 C120 1.391 . S
C124 C123 1.371 . S
C124 H131 0.930 . S
H125 C122 0.928 . S
H126 C123 0.931 . S
H127 C103 0.930 . S
H128 C100 0.930 . S
H129 C109 0.930 1_556 S
H130 C121 0.929 . S
H131 C124 0.930 . S
C132 C133 1.351 . S
C132 N135 1.368 . S
C132 H137 0.931 . S
C133 C132 1.351 . S
C133 N134 1.373 . S
C133 H161 0.930 . S
N134 C133 1.373 . S
N134 C136 1.340 . S
N135 C132 1.368 . S
N135 C136 1.321 . S
N135 Co138 2.135 . S
C136 N134 1.340 . S
C136 N135 1.321 . S
C136 H160 0.930 . S
H137 C132 0.931 . S
Co138 N135 2.135 . S
Co138 N141 2.121 . S
Co138 O146 2.055 . S
Co138 O149 2.039 . S
Co138 N152 2.140 . S
C139 O140 1.227 . S
C139 O149 1.265 . S
O140 C139 1.227 . S
N141 Co138 2.121 . S
N141 C143 1.375 . S
N141 C144 1.313 . S
C142 C143 1.338 . S
C142 N145 1.377 . S
C142 H162 0.930 . S
C143 N141 1.375 . S
C143 C142 1.338 . S
C143 H147 0.931 . S
C144 N141 1.313 . S
C144 N145 1.344 . S
C144 H148 0.930 . S
N145 C142 1.377 . S
N145 C144 1.344 . S
O146 Co138 2.055 . S
O146 C150 1.253 . S
H147 C143 0.931 . S
H148 C144 0.930 . S
O149 Co138 2.039 . S
O149 C139 1.265 . S
C150 O146 1.253 . S
C150 O151 1.227 . S
O151 C150 1.227 . S
N152 Co138 2.140 . S
N152 C155 1.346 . S
N152 C156 1.345 . S
C153 C154 1.387 . S
C153 C157 1.391 . S
C154 C153 1.387 . S
C154 C155 1.369 . S
C154 H163 0.929 . S
C155 N152 1.346 . S
C155 C154 1.369 . S
C155 H158 0.928 . S
C156 N152 1.345 . S
C156 C157 1.371 . S
C156 H159 0.931 . S
C157 C153 1.391 . S
C157 C156 1.371 . S
C157 H164 0.930 . S
H158 C155 0.928 . S
H159 C156 0.931 . S
H160 C136 0.930 . S
H161 C133 0.930 . S
H162 C142 0.930 . S
H163 C154 0.929 . S
H164 C157 0.930 . S
C165 C166 1.351 . S
C165 N168 1.368 . S
C165 H170 0.931 . S
C166 C165 1.351 . S
C166 N167 1.373 . S
C166 H194 0.930 . S
N167 C166 1.373 . S
N167 C169 1.340 . S
N168 C165 1.368 . S
N168 C169 1.321 . S
N168 Co171 2.135 1_554 S
C169 N167 1.340 . S
C169 N168 1.321 . S
C169 H193 0.930 . S
H170 C165 0.931 . S
Co171 N168 2.135 1_556 S
Co171 N174 2.121 . S
Co171 O179 2.055 . S
Co171 O182 2.039 . S
Co171 N185 2.140 . S
C172 O173 1.227 . S
C172 O182 1.265 . S
O173 C172 1.227 . S
N174 Co171 2.121 . S
N174 C176 1.375 . S
N174 C177 1.313 . S
C175 C176 1.338 . S
C175 N178 1.377 . S
C175 H195 0.930 . S
C176 N174 1.375 . S
C176 C175 1.338 . S
C176 H180 0.931 . S
C177 N174 1.313 . S
C177 N178 1.344 . S
C177 H181 0.930 . S
N178 C175 1.377 . S
N178 C177 1.344 . S
O179 Co171 2.055 . S
O179 C183 1.253 . S
H180 C176 0.931 . S
H181 C177 0.930 . S
O182 Co171 2.039 . S
O182 C172 1.265 . S
C183 O179 1.253 . S
C183 O184 1.227 . S
O184 C183 1.227 . S
N185 Co171 2.140 . S
N185 C188 1.346 . S
N185 C189 1.345 . S
C186 C187 1.387 . S
C186 C190 1.391 . S
C187 C186 1.387 . S
C187 C188 1.369 . S
C187 H196 0.929 1_556 S
C188 N185 1.346 . S
C188 C187 1.369 . S
C188 H191 0.928 1_556 S
C189 N185 1.345 . S
C189 C190 1.371 . S
C189 H192 0.931 . S
C190 C186 1.391 . S
C190 C189 1.371 . S
C190 H197 0.930 . S
H191 C188 0.928 1_554 S
H192 C189 0.931 . S
H193 C169 0.930 . S
H194 C166 0.930 . S
H195 C175 0.930 . S
H196 C187 0.929 1_554 S
H197 C190 0.930 . S
C198 C199 1.351 . S
C198 N201 1.368 . S
C198 H203 0.931 . S
C199 C198 1.351 . S
C199 N200 1.373 . S
C199 H227 0.930 . S
N200 C199 1.373 . S
N200 C202 1.340 . S
N201 C198 1.368 . S
N201 C202 1.321 . S
N201 Co204 2.135 . S
C202 N200 1.340 . S
C202 N201 1.321 . S
C202 H226 0.930 . S
H203 C198 0.931 . S
Co204 N201 2.135 . S
Co204 N207 2.121 . S
Co204 O212 2.055 . S
Co204 O215 2.039 . S
Co204 N218 2.140 . S
C205 O206 1.227 . S
C205 O215 1.265 . S
O206 C205 1.227 . S
N207 Co204 2.121 . S
N207 C209 1.375 . S
N207 C210 1.313 . S
C208 C209 1.338 . S
C208 N211 1.377 . S
C208 H228 0.930 . S
C209 N207 1.375 . S
C209 C208 1.338 . S
C209 H213 0.931 . S
C210 N207 1.313 . S
C210 N211 1.344 . S
C210 H214 0.930 . S
N211 C208 1.377 . S
N211 C210 1.344 . S
O212 Co204 2.055 . S
O212 C216 1.253 . S
H213 C209 0.931 . S
H214 C210 0.930 . S
O215 Co204 2.039 . S
O215 C205 1.265 . S
C216 O212 1.253 . S
C216 O217 1.227 . S
O217 C216 1.227 . S
N218 Co204 2.140 . S
N218 C221 1.346 . S
N218 C222 1.345 . S
C219 C220 1.387 . S
C219 C223 1.391 . S
C220 C219 1.387 . S
C220 C221 1.369 . S
C220 H229 0.929 . S
C221 N218 1.346 . S
C221 C220 1.369 . S
C221 H224 0.928 . S
C222 N218 1.345 . S
C222 C223 1.371 . S
C222 H225 0.931 . S
C223 C219 1.391 . S
C223 C222 1.371 . S
C223 H230 0.930 . S
H224 C221 0.928 . S
H225 C222 0.931 . S
H226 C202 0.930 . S
H227 C199 0.930 . S
H228 C208 0.930 . S
H229 C220 0.929 . S
H230 C223 0.930 . S
C231 C232 1.351 . S
C231 N234 1.368 . S
C231 H236 0.931 . S
C232 C231 1.351 . S
C232 N233 1.373 . S
C232 H260 0.930 . S
N233 C232 1.373 . S
N233 C235 1.340 . S
N234 C231 1.368 . S
N234 C235 1.321 . S
N234 Co237 2.135 . S
C235 N233 1.340 . S
C235 N234 1.321 . S
C235 H259 0.930 . S
H236 C231 0.931 . S
Co237 N234 2.135 . S
Co237 N240 2.121 . S
Co237 O245 2.055 . S
Co237 O248 2.039 . S
Co237 N251 2.140 . S
C238 O239 1.227 . S
C238 O248 1.265 . S
O239 C238 1.227 . S
N240 Co237 2.121 . S
N240 C242 1.375 . S
N240 C243 1.313 . S
C241 C242 1.338 . S
C241 N244 1.377 1_556 S
C241 H261 0.930 1_556 S
C242 N240 1.375 . S
C242 C241 1.338 . S
C242 H246 0.931 . S
C243 N240 1.313 . S
C243 N244 1.344 1_556 S
C243 H247 0.930 . S
N244 C241 1.377 1_554 S
N244 C243 1.344 1_554 S
O245 Co237 2.055 . S
O245 C249 1.253 . S
H246 C242 0.931 . S
H247 C243 0.930 . S
O248 Co237 2.039 . S
O248 C238 1.265 . S
C249 O245 1.253 . S
C249 O250 1.227 . S
O250 C249 1.227 . S
N251 Co237 2.140 . S
N251 C254 1.346 . S
N251 C255 1.345 . S
C252 C253 1.387 . S
C252 C256 1.391 . S
C253 C252 1.387 . S
C253 C254 1.369 . S
C253 H262 0.929 . S
C254 N251 1.346 . S
C254 C253 1.369 . S
C254 H257 0.928 . S
C255 N251 1.345 . S
C255 C256 1.371 . S
C255 H258 0.931 . S
C256 C252 1.391 . S
C256 C255 1.371 . S
C256 H263 0.930 . S
H257 C254 0.928 . S
H258 C255 0.931 . S
H259 C235 0.930 . S
H260 C232 0.930 . S
H261 C241 0.930 1_554 S
H262 C253 0.929 . S
H263 C256 0.930 . S
C264 C265 1.351 . S
C264 N267 1.368 . S
C264 H269 0.931 . S
C265 C264 1.351 . S
C265 N266 1.373 . S
C265 H293 0.930 . S
N266 C265 1.373 . S
N266 C268 1.340 . S
N267 C264 1.368 . S
N267 C268 1.321 . S
N267 Co270 2.135 1_556 S
C268 N266 1.340 . S
C268 N267 1.321 . S
C268 H292 0.930 . S
H269 C264 0.931 . S
Co270 N267 2.135 1_554 S
Co270 N273 2.121 . S
Co270 O278 2.055 . S
Co270 O281 2.039 . S
Co270 N284 2.140 . S
C271 O272 1.227 . S
C271 O281 1.265 . S
O272 C271 1.227 . S
N273 Co270 2.121 . S
N273 C275 1.375 . S
N273 C276 1.313 . S
C274 C275 1.338 . S
C274 N277 1.377 . S
C274 H294 0.930 . S
C275 N273 1.375 . S
C275 C274 1.338 . S
C275 H279 0.931 . S
C276 N273 1.313 . S
C276 N277 1.344 . S
C276 H280 0.930 . S
N277 C274 1.377 . S
N277 C276 1.344 . S
O278 Co270 2.055 . S
O278 C282 1.253 . S
H279 C275 0.931 . S
H280 C276 0.930 . S
O281 Co270 2.039 . S
O281 C271 1.265 . S
C282 O278 1.253 . S
C282 O283 1.227 . S
O283 C282 1.227 . S
N284 Co270 2.140 . S
N284 C287 1.346 . S
N284 C288 1.345 . S
C285 C286 1.387 . S
C285 C289 1.391 . S
C286 C285 1.387 . S
C286 C287 1.369 . S
C286 H295 0.929 1_554 S
C287 N284 1.346 . S
C287 C286 1.369 . S
C287 H290 0.928 1_554 S
C288 N284 1.345 . S
C288 C289 1.371 . S
C288 H291 0.931 . S
C289 C285 1.391 . S
C289 C288 1.371 . S
C289 H296 0.930 . S
H290 C287 0.928 1_556 S
H291 C288 0.931 . S
H292 C268 0.930 . S
H293 C265 0.930 . S
H294 C274 0.930 . S
H295 C286 0.929 1_556 S
H296 C289 0.930 . S
C297 C298 1.351 . S
C297 N300 1.368 . S
C297 H302 0.931 . S
C298 C297 1.351 . S
C298 N299 1.373 . S
C298 H326 0.930 . S
N299 C298 1.373 . S
N299 C301 1.340 . S
N300 C297 1.368 . S
N300 C301 1.321 . S
N300 Co303 2.135 . S
C301 N299 1.340 . S
C301 N300 1.321 . S
C301 H325 0.930 . S
H302 C297 0.931 . S
Co303 N300 2.135 . S
Co303 N306 2.121 . S
Co303 O311 2.055 . S
Co303 O314 2.039 . S
Co303 N317 2.140 . S
C304 O305 1.227 . S
C304 O314 1.265 . S
O305 C304 1.227 . S
N306 Co303 2.121 . S
N306 C308 1.375 . S
N306 C309 1.313 . S
C307 C308 1.338 . S
C307 N310 1.377 . S
C307 H327 0.930 . S
C308 N306 1.375 . S
C308 C307 1.338 . S
C308 H312 0.931 . S
C309 N306 1.313 . S
C309 N310 1.344 . S
C309 H313 0.930 . S
N310 C307 1.377 . S
N310 C309 1.344 . S
O311 Co303 2.055 . S
O311 C315 1.253 . S
H312 C308 0.931 . S
H313 C309 0.930 . S
O314 Co303 2.039 . S
O314 C304 1.265 . S
C315 O311 1.253 . S
C315 O316 1.227 . S
O316 C315 1.227 . S
N317 Co303 2.140 . S
N317 C320 1.346 . S
N317 C321 1.345 . S
C318 C319 1.387 . S
C318 C322 1.391 . S
C319 C318 1.387 . S
C319 C320 1.369 . S
C319 H328 0.929 . S
C320 N317 1.346 . S
C320 C319 1.369 . S
C320 H323 0.928 . S
C321 N317 1.345 . S
C321 C322 1.371 . S
C321 H324 0.931 . S
C322 C318 1.391 . S
C322 C321 1.371 . S
C322 H329 0.930 . S
H323 C320 0.928 . S
H324 C321 0.931 . S
H325 C301 0.930 . S
H326 C298 0.930 . S
H327 C307 0.930 . S
H328 C319 0.929 . S
H329 C322 0.930 . S
C330 C331 1.351 . S
C330 N333 1.368 . S
C330 H335 0.931 . S
C331 C330 1.351 . S
C331 N332 1.373 . S
C331 H359 0.930 . S
N332 C331 1.373 . S
N332 C334 1.340 . S
N333 C330 1.368 . S
N333 C334 1.321 . S
N333 Co336 2.135 . S
C334 N332 1.340 . S
C334 N333 1.321 . S
C334 H358 0.930 . S
H335 C330 0.931 . S
Co336 N333 2.135 . S
Co336 N339 2.121 . S
Co336 O344 2.055 . S
Co336 O347 2.039 . S
Co336 N350 2.140 . S
C337 O338 1.227 . S
C337 O347 1.265 . S
O338 C337 1.227 . S
N339 Co336 2.121 . S
N339 C341 1.375 . S
N339 C342 1.313 . S
C340 C341 1.338 . S
C340 N343 1.377 1_556 S
C340 H360 0.930 1_556 S
C341 N339 1.375 . S
C341 C340 1.338 . S
C341 H345 0.931 . S
C342 N339 1.313 . S
C342 N343 1.344 1_556 S
C342 H346 0.930 . S
N343 C340 1.377 1_554 S
N343 C342 1.344 1_554 S
O344 Co336 2.055 . S
O344 C348 1.253 . S
H345 C341 0.931 . S
H346 C342 0.930 . S
O347 Co336 2.039 . S
O347 C337 1.265 . S
C348 O344 1.253 . S
C348 O349 1.227 . S
O349 C348 1.227 . S
N350 Co336 2.140 . S
N350 C353 1.346 . S
N350 C354 1.345 . S
C351 C352 1.387 . S
C351 C355 1.391 . S
C352 C351 1.387 . S
C352 C353 1.369 . S
C352 H361 0.929 . S
C353 N350 1.346 . S
C353 C352 1.369 . S
C353 H356 0.928 . S
C354 N350 1.345 . S
C354 C355 1.371 . S
C354 H357 0.931 . S
C355 C351 1.391 . S
C355 C354 1.371 . S
C355 H362 0.930 . S
H356 C353 0.928 . S
H357 C354 0.931 . S
H358 C334 0.930 . S
H359 C331 0.930 . S
H360 C340 0.930 1_554 S
H361 C352 0.929 . S
H362 C355 0.930 . S
C363 C364 1.351 . S
C363 N366 1.368 . S
C363 H368 0.931 . S
C364 C363 1.351 . S
C364 N365 1.373 . S
C364 H392 0.930 . S
N365 C364 1.373 . S
N365 C367 1.340 . S
N366 C363 1.368 . S
N366 C367 1.321 . S
N366 Co369 2.135 1_556 S
C367 N365 1.340 . S
C367 N366 1.321 . S
C367 H391 0.930 . S
H368 C363 0.931 . S
Co369 N366 2.135 1_554 S
Co369 N372 2.121 . S
Co369 O377 2.055 . S
Co369 O380 2.039 . S
Co369 N383 2.140 . S
C370 O371 1.227 . S
C370 O380 1.265 . S
O371 C370 1.227 . S
N372 Co369 2.121 . S
N372 C374 1.375 . S
N372 C375 1.313 . S
C373 C374 1.338 . S
C373 N376 1.377 . S
C373 H393 0.930 . S
C374 N372 1.375 . S
C374 C373 1.338 . S
C374 H378 0.931 . S
C375 N372 1.313 . S
C375 N376 1.344 . S
C375 H379 0.930 . S
N376 C373 1.377 . S
N376 C375 1.344 . S
O377 Co369 2.055 . S
O377 C381 1.253 . S
H378 C374 0.931 . S
H379 C375 0.930 . S
O380 Co369 2.039 . S
O380 C370 1.265 . S
C381 O377 1.253 . S
C381 O382 1.227 . S
O382 C381 1.227 . S
N383 Co369 2.140 . S
N383 C386 1.346 . S
N383 C387 1.345 . S
C384 C385 1.387 . S
C384 C388 1.391 . S
C385 C384 1.387 . S
C385 C386 1.369 . S
C385 H394 0.929 1_554 S
C386 N383 1.346 . S
C386 C385 1.369 . S
C386 H389 0.928 1_554 S
C387 N383 1.345 . S
C387 C388 1.371 . S
C387 H390 0.931 . S
C388 C384 1.391 . S
C388 C387 1.371 . S
C388 H395 0.930 . S
H389 C386 0.928 1_556 S
H390 C387 0.931 . S
H391 C367 0.930 . S
H392 C364 0.930 . S
H393 C373 0.930 . S
H394 C385 0.929 1_556 S
H395 C388 0.930 . S
H396 C404 0.950 . S
H397 C409 0.950 . S
H398 C406 0.950 . S
H399 C408 0.950 . S
H400 C410 0.950 . S
H401 C412 0.950 . S
H402 C414 0.950 . S
H403 C415 0.950 . S
C404 H396 0.950 . S
C404 C405 1.386 . S
C404 C406 1.391 . S
C405 C404 1.386 . S
C405 C409 1.393 . S
C406 H398 0.950 . S
C406 C404 1.391 . S
C406 C407 1.400 . S
C407 C406 1.400 . S
C407 C408 1.398 . S
C407 C413 1.491 1_554 S
C408 H399 0.950 . S
C408 C407 1.398 . S
C408 C409 1.391 . S
C409 H397 0.950 . S
C409 C405 1.393 . S
C409 C408 1.391 . S
C410 H400 0.950 . S
C410 C411 1.386 . S
C410 C412 1.391 . S
C411 C410 1.386 . S
C411 C415 1.393 . S
C412 H401 0.950 . S
C412 C410 1.391 . S
C412 C413 1.400 . S
C413 C407 1.491 1_556 S
C413 C412 1.400 . S
C413 C414 1.398 . S
C414 H402 0.950 . S
C414 C413 1.398 . S
C414 C415 1.391 . S
C415 H403 0.950 . S
C415 C411 1.393 . S
C415 C414 1.391 . S
H416 C424 0.950 . S
H417 C429 0.950 . S
H418 C426 0.950 . S
H419 C428 0.950 . S
H420 C430 0.950 . S
H421 C432 0.950 . S
H422 C434 0.950 . S
H423 C435 0.950 . S
C424 H416 0.950 . S
C424 C425 1.386 . S
C424 C426 1.391 . S
C425 C424 1.386 . S
C425 C429 1.393 . S
C426 H418 0.950 . S
C426 C424 1.391 . S
C426 C427 1.400 . S
C427 C426 1.400 . S
C427 C428 1.398 . S
C427 C433 1.491 . S
C428 H419 0.950 . S
C428 C427 1.398 . S
C428 C429 1.391 . S
C429 H417 0.950 . S
C429 C425 1.393 . S
C429 C428 1.391 . S
C430 H420 0.950 . S
C430 C431 1.386 . S
C430 C432 1.391 . S
C431 C430 1.386 . S
C431 C435 1.393 . S
C432 H421 0.950 . S
C432 C430 1.391 . S
C432 C433 1.400 . S
C433 C427 1.491 . S
C433 C432 1.400 . S
C433 C434 1.398 . S
C434 H422 0.950 . S
C434 C433 1.398 . S
C434 C435 1.391 . S
C435 H423 0.950 . S
C435 C431 1.393 . S
C435 C434 1.391 . S
H436 C444 0.950 . S
H437 C449 0.950 . S
H438 C446 0.950 . S
H439 C448 0.950 . S
H440 C450 0.950 . S
H441 C452 0.950 . S
H442 C454 0.950 . S
H443 C455 0.950 . S
C444 H436 0.950 . S
C444 C445 1.386 . S
C444 C446 1.391 . S
C445 C444 1.386 . S
C445 C449 1.393 . S
C446 H438 0.950 . S
C446 C444 1.391 . S
C446 C447 1.400 . S
C447 C446 1.400 . S
C447 C448 1.398 . S
C447 C453 1.491 . S
C448 H439 0.950 . S
C448 C447 1.398 . S
C448 C449 1.391 . S
C449 H437 0.950 . S
C449 C445 1.393 . S
C449 C448 1.391 . S
C450 H440 0.950 . S
C450 C451 1.386 . S
C450 C452 1.391 . S
C451 C450 1.386 . S
C451 C455 1.393 . S
C452 H441 0.950 . S
C452 C450 1.391 . S
C452 C453 1.400 . S
C453 C447 1.491 . S
C453 C452 1.400 . S
C453 C454 1.398 . S
C454 H442 0.950 . S
C454 C453 1.398 . S
C454 C455 1.391 . S
C455 H443 0.950 . S
C455 C451 1.393 . S
C455 C454 1.391 . S
H456 C464 0.950 . S
H457 C469 0.950 . S
H458 C466 0.950 1_554 S
H459 C468 0.950 . S
H460 C470 0.950 . S
H461 C472 0.950 1_556 S
H462 C474 0.950 . S
H463 C475 0.950 . S
C464 H456 0.950 . S
C464 C465 1.386 . S
C464 C466 1.391 . S
C465 C464 1.386 . S
C465 C469 1.393 . S
C466 H458 0.950 1_556 S
C466 C464 1.391 . S
C466 C467 1.400 . S
C467 C466 1.400 . S
C467 C468 1.398 . S
C467 C473 1.491 1_556 S
C468 H459 0.950 . S
C468 C467 1.398 . S
C468 C469 1.391 . S
C469 H457 0.950 . S
C469 C465 1.393 . S
C469 C468 1.391 . S
C470 H460 0.950 . S
C470 C471 1.386 . S
C470 C472 1.391 . S
C471 C470 1.386 . S
C471 C475 1.393 . S
C472 H461 0.950 1_554 S
C472 C470 1.391 . S
C472 C473 1.400 . S
C473 C467 1.491 1_554 S
C473 C472 1.400 . S
C473 C474 1.398 . S
C474 H462 0.950 . S
C474 C473 1.398 . S
C474 C475 1.391 . S
C475 H463 0.950 . S
C475 C471 1.393 . S
C475 C474 1.391 . S
H476 C484 0.950 . S
H477 C489 0.950 . S
H478 C486 0.950 . S
H479 C488 0.950 . S
H480 C490 0.950 . S
H481 C492 0.950 . S
H482 C494 0.950 . S
H483 C495 0.950 . S
C484 H476 0.950 . S
C484 C485 1.386 . S
C484 C486 1.391 . S
C485 C484 1.386 . S
C485 C489 1.393 . S
C486 H478 0.950 . S
C486 C484 1.391 . S
C486 C487 1.400 . S
C487 C486 1.400 . S
C487 C488 1.398 . S
C487 C493 1.491 . S
C488 H479 0.950 . S
C488 C487 1.398 . S
C488 C489 1.391 . S
C489 H477 0.950 . S
C489 C485 1.393 . S
C489 C488 1.391 . S
C490 H480 0.950 . S
C490 C491 1.386 . S
C490 C492 1.391 . S
C491 C490 1.386 . S
C491 C495 1.393 . S
C492 H481 0.950 . S
C492 C490 1.391 . S
C492 C493 1.400 . S
C493 C487 1.491 . S
C493 C492 1.400 . S
C493 C494 1.398 . S
C494 H482 0.950 . S
C494 C493 1.398 . S
C494 C495 1.391 . S
C495 H483 0.950 . S
C495 C491 1.393 . S
C495 C494 1.391 . S
H496 C504 0.950 . S
H497 C509 0.950 . S
H498 C506 0.950 . S
H499 C508 0.950 . S
H500 C510 0.950 . S
H501 C512 0.950 . S
H502 C514 0.950 . S
H503 C515 0.950 . S
C504 H496 0.950 . S
C504 C505 1.386 . S
C504 C506 1.391 . S
C505 C504 1.386 . S
C505 C509 1.393 . S
C506 H498 0.950 . S
C506 C504 1.391 . S
C506 C507 1.400 . S
C507 C506 1.400 . S
C507 C508 1.398 . S
C507 C513 1.491 . S
C508 H499 0.950 . S
C508 C507 1.398 . S
C508 C509 1.391 . S
C509 H497 0.950 . S
C509 C505 1.393 . S
C509 C508 1.391 . S
C510 H500 0.950 . S
C510 C511 1.386 . S
C510 C512 1.391 . S
C511 C510 1.386 . S
C511 C515 1.393 . S
C512 H501 0.950 . S
C512 C510 1.391 . S
C512 C513 1.400 . S
C513 C507 1.491 . S
C513 C512 1.400 . S
C513 C514 1.398 . S
C514 H502 0.950 . S
C514 C513 1.398 . S
C514 C515 1.391 . S
C515 H503 0.950 . S
C515 C511 1.393 . S
C515 C514 1.391 . S
H516 C524 0.950 . S
H517 C529 0.950 . S
H518 C526 0.950 . S
H519 C528 0.950 . S
H520 C530 0.950 . S
H521 C532 0.950 . S
H522 C534 0.950 . S
H523 C535 0.950 . S
C524 H516 0.950 . S
C524 C525 1.386 . S
C524 C526 1.391 . S
C525 C524 1.386 . S
C525 C529 1.393 . S
C526 H518 0.950 . S
C526 C524 1.391 . S
C526 C527 1.400 . S
C527 C526 1.400 . S
C527 C528 1.398 . S
C527 C533 1.491 . S
C528 H519 0.950 . S
C528 C527 1.398 . S
C528 C529 1.391 . S
C529 H517 0.950 . S
C529 C525 1.393 . S
C529 C528 1.391 . S
C530 H520 0.950 . S
C530 C531 1.386 . S
C530 C532 1.391 . S
C531 C530 1.386 . S
C531 C535 1.393 . S
C532 H521 0.950 . S
C532 C530 1.391 . S
C532 C533 1.400 . S
C533 C527 1.491 . S
C533 C532 1.400 . S
C533 C534 1.398 . S
C534 H522 0.950 . S
C534 C533 1.398 . S
C534 C535 1.391 . S
C535 H523 0.950 . S
C535 C531 1.393 . S
C535 C534 1.391 . S
H536 C544 0.950 . S
H537 C549 0.950 . S
H538 C546 0.950 . S
H539 C548 0.950 . S
H540 C550 0.950 . S
H541 C552 0.950 . S
H542 C554 0.950 . S
H543 C555 0.950 . S
C544 H536 0.950 . S
C544 C545 1.386 . S
C544 C546 1.391 . S
C545 C544 1.386 . S
C545 C549 1.393 . S
C546 H538 0.950 . S
C546 C544 1.391 . S
C546 C547 1.400 . S
C547 C546 1.400 . S
C547 C548 1.398 . S
C547 C553 1.491 . S
C548 H539 0.950 . S
C548 C547 1.398 . S
C548 C549 1.391 . S
C549 H537 0.950 . S
C549 C545 1.393 . S
C549 C548 1.391 . S
C550 H540 0.950 . S
C550 C551 1.386 . S
C550 C552 1.391 . S
C551 C550 1.386 . S
C551 C555 1.393 . S
C552 H541 0.950 . S
C552 C550 1.391 . S
C552 C553 1.400 . S
C553 C547 1.491 . S
C553 C552 1.400 . S
C553 C554 1.398 . S
C554 H542 0.950 . S
C554 C553 1.398 . S
C554 C555 1.391 . S
C555 H543 0.950 . S
C555 C551 1.393 . S
C555 C554 1.391 . S
H556 C564 0.950 . S
H557 C569 0.950 . S
H558 C566 0.950 . S
H559 C568 0.950 . S
H560 C570 0.950 . S
H561 C572 0.950 . S
H562 C574 0.950 . S
H563 C575 0.950 . S
C564 H556 0.950 . S
C564 C565 1.386 . S
C564 C566 1.391 . S
C565 C564 1.386 . S
C565 C569 1.393 . S
C566 H558 0.950 . S
C566 C564 1.391 . S
C566 C567 1.400 . S
C567 C566 1.400 . S
C567 C568 1.398 1_556 S
C567 C573 1.491 1_556 S
C568 H559 0.950 . S
C568 C567 1.398 1_554 S
C568 C569 1.391 1_554 S
C569 H557 0.950 . S
C569 C565 1.393 . S
C569 C568 1.391 1_556 S
C570 H560 0.950 . S
C570 C571 1.386 . S
C570 C572 1.391 . S
C571 C570 1.386 . S
C571 C575 1.393 . S
C572 H561 0.950 . S
C572 C570 1.391 . S
C572 C573 1.400 . S
C573 C567 1.491 1_554 S
C573 C572 1.400 . S
C573 C574 1.398 1_554 S
C574 H562 0.950 . S
C574 C573 1.398 1_556 S
C574 C575 1.391 1_556 S
C575 H563 0.950 . S
C575 C571 1.393 . S
C575 C574 1.391 1_554 S
H576 C584 0.950 . S
H577 C589 0.950 . S
H578 C586 0.950 . S
H579 C588 0.950 . S
H580 C590 0.950 . S
H581 C592 0.950 . S
H582 C594 0.950 . S
H583 C595 0.950 . S
C584 H576 0.950 . S
C584 C585 1.386 . S
C584 C586 1.391 . S
C585 C584 1.386 . S
C585 C589 1.393 . S
C586 H578 0.950 . S
C586 C584 1.391 . S
C586 C587 1.400 . S
C587 C586 1.400 . S
C587 C588 1.398 . S
C587 C593 1.491 . S
C588 H579 0.950 . S
C588 C587 1.398 . S
C588 C589 1.391 . S
C589 H577 0.950 . S
C589 C585 1.393 . S
C589 C588 1.391 . S
C590 H580 0.950 . S
C590 C591 1.386 . S
C590 C592 1.391 . S
C591 C590 1.386 . S
C591 C595 1.393 . S
C592 H581 0.950 . S
C592 C590 1.391 . S
C592 C593 1.400 . S
C593 C587 1.491 . S
C593 C592 1.400 . S
C593 C594 1.398 . S
C594 H582 0.950 . S
C594 C593 1.398 . S
C594 C595 1.391 . S
C595 H583 0.950 . S
C595 C591 1.393 . S
C595 C594 1.391 . S
H596 C604 0.950 . S
H597 C609 0.950 . S
H598 C606 0.950 . S
H599 C608 0.950 . S
H600 C610 0.950 . S
H601 C612 0.950 . S
H602 C614 0.950 . S
H603 C615 0.950 . S
C604 H596 0.950 . S
C604 C605 1.386 . S
C604 C606 1.391 . S
C605 C604 1.386 . S
C605 C609 1.393 . S
C606 H598 0.950 . S
C606 C604 1.391 . S
C606 C607 1.400 . S
C607 C606 1.400 . S
C607 C608 1.398 . S
C607 C613 1.491 . S
C608 H599 0.950 . S
C608 C607 1.398 . S
C608 C609 1.391 . S
C609 H597 0.950 . S
C609 C605 1.393 . S
C609 C608 1.391 . S
C610 H600 0.950 . S
C610 C611 1.386 . S
C610 C612 1.391 . S
C611 C610 1.386 . S
C611 C615 1.393 . S
C612 H601 0.950 . S
C612 C610 1.391 . S
C612 C613 1.400 . S
C613 C607 1.491 . S
C613 C612 1.400 . S
C613 C614 1.398 . S
C614 H602 0.950 . S
C614 C613 1.398 . S
C614 C615 1.391 . S
C615 H603 0.950 . S
C615 C611 1.393 . S
C615 C614 1.391 . S
H616 C624 0.950 . S
H617 C629 0.950 . S
H618 C626 0.950 1_556 S
H619 C628 0.950 . S
H620 C630 0.950 . S
H621 C632 0.950 1_554 S
H622 C634 0.950 . S
H623 C635 0.950 . S
C624 H616 0.950 . S
C624 C625 1.386 . S
C624 C626 1.391 . S
C625 C624 1.386 . S
C625 C629 1.393 . S
C626 H618 0.950 1_554 S
C626 C624 1.391 . S
C626 C627 1.400 . S
C627 C626 1.400 . S
C627 C628 1.398 . S
C627 C633 1.491 1_554 S
C628 H619 0.950 . S
C628 C627 1.398 . S
C628 C629 1.391 . S
C629 H617 0.950 . S
C629 C625 1.393 . S
C629 C628 1.391 . S
C630 H620 0.950 . S
C630 C631 1.386 . S
C630 C632 1.391 . S
C631 C630 1.386 . S
C631 C635 1.393 . S
C632 H621 0.950 1_556 S
C632 C630 1.391 . S
C632 C633 1.400 . S
C633 C627 1.491 1_556 S
C633 C632 1.400 . S
C633 C634 1.398 . S
C634 H622 0.950 . S
C634 C633 1.398 . S
C634 C635 1.391 . S
C635 H623 0.950 . S
C635 C631 1.393 . S
C635 C634 1.391 . S
H636 C644 0.950 . S
H637 C649 0.950 . S
H638 C646 0.950 . S
H639 C648 0.950 . S
H640 C650 0.950 . S
H641 C652 0.950 . S
H642 C654 0.950 . S
H643 C655 0.950 . S
C644 H636 0.950 . S
C644 C645 1.386 . S
C644 C646 1.391 . S
C645 C644 1.386 . S
C645 C649 1.393 . S
C646 H638 0.950 . S
C646 C644 1.391 . S
C646 C647 1.400 . S
C647 C646 1.400 . S
C647 C648 1.398 . S
C647 C653 1.491 . S
C648 H639 0.950 . S
C648 C647 1.398 . S
C648 C649 1.391 . S
C649 H637 0.950 . S
C649 C645 1.393 . S
C649 C648 1.391 . S
C650 H640 0.950 . S
C650 C651 1.386 . S
C650 C652 1.391 . S
C651 C650 1.386 . S
C651 C655 1.393 . S
C652 H641 0.950 . S
C652 C650 1.391 . S
C652 C653 1.400 . S
C653 C647 1.491 . S
C653 C652 1.400 . S
C653 C654 1.398 . S
C654 H642 0.950 . S
C654 C653 1.398 . S
C654 C655 1.391 . S
C655 H643 0.950 . S
C655 C651 1.393 . S
C655 C654 1.391 . S
H656 C664 0.950 . S
H657 C669 0.950 . S
H658 C666 0.950 . S
H659 C668 0.950 . S
H660 C670 0.950 . S
H661 C672 0.950 . S
H662 C674 0.950 . S
H663 C675 0.950 . S
C664 H656 0.950 . S
C664 C665 1.386 . S
C664 C666 1.391 . S
C665 C664 1.386 . S
C665 C669 1.393 . S
C666 H658 0.950 . S
C666 C664 1.391 . S
C666 C667 1.400 . S
C667 C666 1.400 . S
C667 C668 1.398 . S
C667 C673 1.491 1_455 S
C668 H659 0.950 . S
C668 C667 1.398 . S
C668 C669 1.391 . S
C669 H657 0.950 . S
C669 C665 1.393 . S
C669 C668 1.391 . S
C670 H660 0.950 . S
C670 C671 1.386 . S
C670 C672 1.391 . S
C671 C670 1.386 . S
C671 C675 1.393 . S
C672 H661 0.950 . S
C672 C670 1.391 . S
C672 C673 1.400 . S
C673 C667 1.491 1_655 S
C673 C672 1.400 . S
C673 C674 1.398 . S
C674 H662 0.950 . S
C674 C673 1.398 . S
C674 C675 1.391 . S
C675 H663 0.950 . S
C675 C671 1.393 . S
C675 C674 1.391 . S
H676 C684 0.950 1_556 S
H677 C689 0.950 . S
H678 C686 0.950 . S
H679 C688 0.950 . S
H680 C690 0.950 1_554 S
H681 C692 0.950 . S
H682 C694 0.950 . S
H683 C695 0.950 . S
C684 H676 0.950 1_554 S
C684 C685 1.386 . S
C684 C686 1.391 1_554 S
C685 C684 1.386 . S
C685 C689 1.393 . S
C686 H678 0.950 . S
C686 C684 1.391 1_556 S
C686 C687 1.400 1_556 S
C687 C686 1.400 1_554 S
C687 C688 1.398 . S
C687 C693 1.491 1_544 S
C688 H679 0.950 . S
C688 C687 1.398 . S
C688 C689 1.391 . S
C689 H677 0.950 . S
C689 C685 1.393 . S
C689 C688 1.391 . S
C690 H680 0.950 1_556 S
C690 C691 1.386 . S
C690 C692 1.391 1_556 S
C691 C690 1.386 . S
C691 C695 1.393 . S
C692 H681 0.950 . S
C692 C690 1.391 1_554 S
C692 C693 1.400 1_554 S
C693 C687 1.491 1_566 S
C693 C692 1.400 1_556 S
C693 C694 1.398 . S
C694 H682 0.950 . S
C694 C693 1.398 . S
C694 C695 1.391 . S
C695 H683 0.950 . S
C695 C691 1.393 . S
C695 C694 1.391 . S
H696 C704 0.950 . S
H697 C709 0.950 . S
H698 C706 0.950 . S
H699 C708 0.950 . S
H700 C710 0.950 . S
H701 C712 0.950 . S
H702 C714 0.950 . S
H703 C715 0.950 . S
C704 H696 0.950 . S
C704 C705 1.386 . S
C704 C706 1.391 . S
C705 C704 1.386 . S
C705 C709 1.393 . S
C706 H698 0.950 . S
C706 C704 1.391 . S
C706 C707 1.400 . S
C707 C706 1.400 . S
C707 C708 1.398 . S
C707 C713 1.491 . S
C708 H699 0.950 . S
C708 C707 1.398 . S
C708 C709 1.391 . S
C709 H697 0.950 . S
C709 C705 1.393 . S
C709 C708 1.391 . S
C710 H700 0.950 . S
C710 C711 1.386 . S
C710 C712 1.391 . S
C711 C710 1.386 . S
C711 C715 1.393 . S
C712 H701 0.950 . S
C712 C710 1.391 . S
C712 C713 1.400 . S
C713 C707 1.491 . S
C713 C712 1.400 . S
C713 C714 1.398 . S
C714 H702 0.950 . S
C714 C713 1.398 . S
C714 C715 1.391 . S
C715 H703 0.950 . S
C715 C711 1.393 . S
C715 C714 1.391 . S
H716 C724 0.950 . S
H717 C729 0.950 . S
H718 C726 0.950 . S
H719 C728 0.950 . S
H720 C730 0.950 . S
H721 C732 0.950 . S
H722 C734 0.950 . S
H723 C735 0.950 . S
C724 H716 0.950 . S
C724 C725 1.386 . S
C724 C726 1.391 . S
C725 C724 1.386 . S
C725 C729 1.393 . S
C726 H718 0.950 . S
C726 C724 1.391 . S
C726 C727 1.400 . S
C727 C726 1.400 . S
C727 C728 1.398 . S
C727 C733 1.491 1_455 S
C728 H719 0.950 . S
C728 C727 1.398 . S
C728 C729 1.391 . S
C729 H717 0.950 . S
C729 C725 1.393 . S
C729 C728 1.391 . S
C730 H720 0.950 . S
C730 C731 1.386 . S
C730 C732 1.391 . S
C731 C730 1.386 . S
C731 C735 1.393 . S
C732 H721 0.950 . S
C732 C730 1.391 . S
C732 C733 1.400 . S
C733 C727 1.491 1_655 S
C733 C732 1.400 . S
C733 C734 1.398 . S
C734 H722 0.950 . S
C734 C733 1.398 . S
C734 C735 1.391 . S
C735 H723 0.950 . S
C735 C731 1.393 . S
C735 C734 1.391 . S
H736 C744 0.950 . S
H737 C749 0.950 . S
H738 C746 0.950 . S
H739 C748 0.950 1_554 S
H740 C750 0.950 . S
H741 C752 0.950 . S
H742 C754 0.950 1_556 S
H743 C755 0.950 . S
C744 H736 0.950 . S
C744 C745 1.386 . S
C744 C746 1.391 . S
C745 C744 1.386 . S
C745 C749 1.393 . S
C746 H738 0.950 . S
C746 C744 1.391 . S
C746 C747 1.400 . S
C747 C746 1.400 . S
C747 C748 1.398 . S
C747 C753 1.491 1_546 S
C748 H739 0.950 1_556 S
C748 C747 1.398 . S
C748 C749 1.391 . S
C749 H737 0.950 . S
C749 C745 1.393 . S
C749 C748 1.391 . S
C750 H740 0.950 . S
C750 C751 1.386 . S
C750 C752 1.391 . S
C751 C750 1.386 . S
C751 C755 1.393 . S
C752 H741 0.950 . S
C752 C750 1.391 . S
C752 C753 1.400 . S
C753 C747 1.491 1_564 S
C753 C752 1.400 . S
C753 C754 1.398 . S
C754 H742 0.950 1_554 S
C754 C753 1.398 . S
C754 C755 1.391 . S
C755 H743 0.950 . S
C755 C751 1.393 . S
C755 C754 1.391 . S
H756 C764 0.950 . S
H757 C769 0.950 . S
H758 C766 0.950 . S
H759 C768 0.950 . S
H760 C770 0.950 . S
H761 C772 0.950 . S
H762 C774 0.950 . S
H763 C775 0.950 . S
C764 H756 0.950 . S
C764 C765 1.386 . S
C764 C766 1.391 . S
C765 C764 1.386 . S
C765 C769 1.393 . S
C766 H758 0.950 . S
C766 C764 1.391 . S
C766 C767 1.400 . S
C767 C766 1.400 . S
C767 C768 1.398 . S
C767 C773 1.491 . S
C768 H759 0.950 . S
C768 C767 1.398 . S
C768 C769 1.391 . S
C769 H757 0.950 . S
C769 C765 1.393 . S
C769 C768 1.391 . S
C770 H760 0.950 . S
C770 C771 1.386 . S
C770 C772 1.391 . S
C771 C770 1.386 . S
C771 C775 1.393 . S
C772 H761 0.950 . S
C772 C770 1.391 . S
C772 C773 1.400 . S
C773 C767 1.491 . S
C773 C772 1.400 . S
C773 C774 1.398 . S
C774 H762 0.950 . S
C774 C773 1.398 . S
C774 C775 1.391 . S
C775 H763 0.950 . S
C775 C771 1.393 . S
C775 C774 1.391 . S
H776 C784 0.950 . S
H777 C789 0.950 . S
H778 C786 0.950 . S
H779 C788 0.950 . S
H780 C790 0.950 . S
H781 C792 0.950 1_554 S
H782 C794 0.950 1_554 S
H783 C795 0.950 . S
C784 H776 0.950 . S
C784 C785 1.386 . S
C784 C786 1.391 . S
C785 C784 1.386 . S
C785 C789 1.393 . S
C786 H778 0.950 . S
C786 C784 1.391 . S
C786 C787 1.400 . S
C787 C786 1.400 . S
C787 C788 1.398 . S
C787 C793 1.491 . S
C788 H779 0.950 . S
C788 C787 1.398 . S
C788 C789 1.391 . S
C789 H777 0.950 . S
C789 C785 1.393 . S
C789 C788 1.391 . S
C790 H780 0.950 . S
C790 C791 1.386 . S
C790 C792 1.391 . S
C791 C790 1.386 . S
C791 C795 1.393 . S
C792 H781 0.950 1_556 S
C792 C790 1.391 . S
C792 C793 1.400 1_556 S
C793 C787 1.491 . S
C793 C792 1.400 1_554 S
C793 C794 1.398 1_554 S
C794 H782 0.950 1_556 S
C794 C793 1.398 1_556 S
C794 C795 1.391 . S
C795 H783 0.950 . S
C795 C791 1.393 . S
C795 C794 1.391 . S
H796 C804 0.950 . S
H797 C809 0.950 . S
H798 C806 0.950 . S
H799 C808 0.950 . S
H800 C810 0.950 . S
H801 C812 0.950 . S
H802 C814 0.950 . S
H803 C815 0.950 . S
C804 H796 0.950 . S
C804 C805 1.386 . S
C804 C806 1.391 . S
C805 C804 1.386 . S
C805 C809 1.393 . S
C806 H798 0.950 . S
C806 C804 1.391 . S
C806 C807 1.400 . S
C807 C806 1.400 . S
C807 C808 1.398 . S
C807 C813 1.491 . S
C808 H799 0.950 . S
C808 C807 1.398 . S
C808 C809 1.391 . S
C809 H797 0.950 . S
C809 C805 1.393 . S
C809 C808 1.391 . S
C810 H800 0.950 . S
C810 C811 1.386 . S
C810 C812 1.391 . S
C811 C810 1.386 . S
C811 C815 1.393 . S
C812 H801 0.950 . S
C812 C810 1.391 . S
C812 C813 1.400 . S
C813 C807 1.491 . S
C813 C812 1.400 . S
C813 C814 1.398 . S
C814 H802 0.950 . S
C814 C813 1.398 . S
C814 C815 1.391 . S
C815 H803 0.950 . S
C815 C811 1.393 . S
C815 C814 1.391 . S
H816 C824 0.950 . S
H817 C829 0.950 . S
H818 C826 0.950 . S
H819 C828 0.950 . S
H820 C830 0.950 . S
H821 C832 0.950 . S
H822 C834 0.950 . S
H823 C835 0.950 . S
C824 H816 0.950 . S
C824 C825 1.386 . S
C824 C826 1.391 . S
C825 C824 1.386 . S
C825 C829 1.393 . S
C826 H818 0.950 . S
C826 C824 1.391 . S
C826 C827 1.400 . S
C827 C826 1.400 . S
C827 C828 1.398 . S
C827 C833 1.491 . S
C828 H819 0.950 . S
C828 C827 1.398 . S
C828 C829 1.391 . S
C829 H817 0.950 . S
C829 C825 1.393 . S
C829 C828 1.391 . S
C830 H820 0.950 . S
C830 C831 1.386 . S
C830 C832 1.391 . S
C831 C830 1.386 . S
C831 C835 1.393 . S
C832 H821 0.950 . S
C832 C830 1.391 . S
C832 C833 1.400 . S
C833 C827 1.491 . S
C833 C832 1.400 . S
C833 C834 1.398 . S
C834 H822 0.950 . S
C834 C833 1.398 . S
C834 C835 1.391 . S
C835 H823 0.950 . S
C835 C831 1.393 . S
C835 C834 1.391 . S
H836 C844 0.950 . S
H837 C849 0.950 . S
H838 C846 0.950 . S
H839 C848 0.950 . S
H840 C850 0.950 . S
H841 C852 0.950 1_554 S
H842 C854 0.950 1_554 S
H843 C855 0.950 . S
C844 H836 0.950 . S
C844 C845 1.386 . S
C844 C846 1.391 . S
C845 C844 1.386 . S
C845 C849 1.393 . S
C846 H838 0.950 . S
C846 C844 1.391 . S
C846 C847 1.400 . S
C847 C846 1.400 . S
C847 C848 1.398 . S
C847 C853 1.491 . S
C848 H839 0.950 . S
C848 C847 1.398 . S
C848 C849 1.391 . S
C849 H837 0.950 . S
C849 C845 1.393 . S
C849 C848 1.391 . S
C850 H840 0.950 . S
C850 C851 1.386 . S
C850 C852 1.391 . S
C851 C850 1.386 . S
C851 C855 1.393 . S
C852 H841 0.950 1_556 S
C852 C850 1.391 . S
C852 C853 1.400 1_556 S
C853 C847 1.491 . S
C853 C852 1.400 1_554 S
C853 C854 1.398 1_554 S
C854 H842 0.950 1_556 S
C854 C853 1.398 1_556 S
C854 C855 1.391 . S
C855 H843 0.950 . S
C855 C851 1.393 . S
C855 C854 1.391 . S
H856 C864 0.950 . S
H857 C869 0.950 . S
H858 C866 0.950 . S
H859 C868 0.950 . S
H860 C870 0.950 . S
H861 C872 0.950 . S
H862 C874 0.950 . S
H863 C875 0.950 . S
C864 H856 0.950 . S
C864 C865 1.386 . S
C864 C866 1.391 . S
C865 C864 1.386 . S
C865 C869 1.393 . S
C866 H858 0.950 . S
C866 C864 1.391 . S
C866 C867 1.400 . S
C867 C866 1.400 . S
C867 C868 1.398 . S
C867 C873 1.491 . S
C868 H859 0.950 . S
C868 C867 1.398 . S
C868 C869 1.391 . S
C869 H857 0.950 . S
C869 C865 1.393 . S
C869 C868 1.391 . S
C870 H860 0.950 . S
C870 C871 1.386 . S
C870 C872 1.391 . S
C871 C870 1.386 . S
C871 C875 1.393 . S
C872 H861 0.950 . S
C872 C870 1.391 . S
C872 C873 1.400 . S
C873 C867 1.491 . S
C873 C872 1.400 . S
C873 C874 1.398 . S
C874 H862 0.950 . S
C874 C873 1.398 . S
C874 C875 1.391 . S
C875 H863 0.950 . S
C875 C871 1.393 . S
C875 C874 1.391 . S
H876 C884 0.950 . S
H877 C889 0.950 . S
H878 C886 0.950 1_556 S
H879 C888 0.950 1_556 S
H880 C890 0.950 . S
H881 C892 0.950 . S
H882 C894 0.950 . S
H883 C895 0.950 . S
C884 H876 0.950 . S
C884 C885 1.386 . S
C884 C886 1.391 . S
C885 C884 1.386 . S
C885 C889 1.393 . S
C886 H878 0.950 1_554 S
C886 C884 1.391 . S
C886 C887 1.400 1_554 S
C887 C886 1.400 1_556 S
C887 C888 1.398 1_556 S
C887 C893 1.491 . S
C888 H879 0.950 1_554 S
C888 C887 1.398 1_554 S
C888 C889 1.391 . S
C889 H877 0.950 . S
C889 C885 1.393 . S
C889 C888 1.391 . S
C890 H880 0.950 . S
C890 C891 1.386 . S
C890 C892 1.391 . S
C891 C890 1.386 . S
C891 C895 1.393 . S
C892 H881 0.950 . S
C892 C890 1.391 . S
C892 C893 1.400 . S
C893 C887 1.491 . S
C893 C892 1.400 . S
C893 C894 1.398 . S
C894 H882 0.950 . S
C894 C893 1.398 . S
C894 C895 1.391 . S
C895 H883 0.950 . S
C895 C891 1.393 . S
C895 C894 1.391 . S
H896 C904 0.950 . S
H897 C909 0.950 . S
H898 C906 0.950 . S
H899 C908 0.950 . S
H900 C910 0.950 . S
H901 C912 0.950 . S
H902 C914 0.950 . S
H903 C915 0.950 . S
C904 H896 0.950 . S
C904 C905 1.386 . S
C904 C906 1.391 . S
C905 C904 1.386 . S
C905 C909 1.393 . S
C906 H898 0.950 . S
C906 C904 1.391 . S
C906 C907 1.400 . S
C907 C906 1.400 . S
C907 C908 1.398 . S
C907 C913 1.491 . S
C908 H899 0.950 . S
C908 C907 1.398 . S
C908 C909 1.391 . S
C909 H897 0.950 . S
C909 C905 1.393 . S
C909 C908 1.391 . S
C910 H900 0.950 . S
C910 C911 1.386 . S
C910 C912 1.391 . S
C911 C910 1.386 . S
C911 C915 1.393 . S
C912 H901 0.950 . S
C912 C910 1.391 . S
C912 C913 1.400 . S
C913 C907 1.491 . S
C913 C912 1.400 . S
C913 C914 1.398 . S
C914 H902 0.950 . S
C914 C913 1.398 . S
C914 C915 1.391 . S
C915 H903 0.950 . S
C915 C911 1.393 . S
C915 C914 1.391 . S
H916 C924 0.950 . S
H917 C929 0.950 . S
H918 C926 0.950 . S
H919 C928 0.950 . S
H920 C930 0.950 . S
H921 C932 0.950 . S
H922 C934 0.950 . S
H923 C935 0.950 . S
C924 H916 0.950 . S
C924 C925 1.386 . S
C924 C926 1.391 . S
C925 C924 1.386 . S
C925 C929 1.393 . S
C926 H918 0.950 . S
C926 C924 1.391 . S
C926 C927 1.400 . S
C927 C926 1.400 . S
C927 C928 1.398 . S
C927 C933 1.491 . S
C928 H919 0.950 . S
C928 C927 1.398 . S
C928 C929 1.391 . S
C929 H917 0.950 . S
C929 C925 1.393 . S
C929 C928 1.391 . S
C930 H920 0.950 . S
C930 C931 1.386 . S
C930 C932 1.391 . S
C931 C930 1.386 . S
C931 C935 1.393 . S
C932 H921 0.950 . S
C932 C930 1.391 . S
C932 C933 1.400 . S
C933 C927 1.491 . S
C933 C932 1.400 . S
C933 C934 1.398 . S
C934 H922 0.950 . S
C934 C933 1.398 . S
C934 C935 1.391 . S
C935 H923 0.950 . S
C935 C931 1.393 . S
C935 C934 1.391 . S
H936 C944 0.950 . S
H937 C949 0.950 . S
H938 C946 0.950 . S
H939 C948 0.950 . S
H940 C950 0.950 . S
H941 C952 0.950 1_556 S
H942 C954 0.950 1_556 S
H943 C955 0.950 . S
C944 H936 0.950 . S
C944 C945 1.386 . S
C944 C946 1.391 . S
C945 C944 1.386 . S
C945 C949 1.393 . S
C946 H938 0.950 . S
C946 C944 1.391 . S
C946 C947 1.400 . S
C947 C946 1.400 . S
C947 C948 1.398 . S
C947 C953 1.491 . S
C948 H939 0.950 . S
C948 C947 1.398 . S
C948 C949 1.391 . S
C949 H937 0.950 . S
C949 C945 1.393 . S
C949 C948 1.391 . S
C950 H940 0.950 . S
C950 C951 1.386 . S
C950 C952 1.391 . S
C951 C950 1.386 . S
C951 C955 1.393 . S
C952 H941 0.950 1_554 S
C952 C950 1.391 . S
C952 C953 1.400 1_554 S
C953 C947 1.491 . S
C953 C952 1.400 1_556 S
C953 C954 1.398 1_556 S
C954 H942 0.950 1_554 S
C954 C953 1.398 1_554 S
C954 C955 1.391 . S
C955 H943 0.950 . S
C955 C951 1.393 . S
C955 C954 1.391 . S
H956 C964 0.950 . S
H957 C969 0.950 . S
H958 C966 0.950 . S
H959 C968 0.950 . S
H960 C970 0.950 . S
H961 C972 0.950 . S
H962 C974 0.950 . S
H963 C975 0.950 . S
C964 H956 0.950 . S
C964 C965 1.386 . S
C964 C966 1.391 . S
C965 C964 1.386 . S
C965 C969 1.393 . S
C966 H958 0.950 . S
C966 C964 1.391 . S
C966 C967 1.400 . S
C967 C966 1.400 . S
C967 C968 1.398 . S
C967 C973 1.491 . S
C968 H959 0.950 . S
C968 C967 1.398 . S
C968 C969 1.391 . S
C969 H957 0.950 . S
C969 C965 1.393 . S
C969 C968 1.391 . S
C970 H960 0.950 . S
C970 C971 1.386 . S
C970 C972 1.391 . S
C971 C970 1.386 . S
C971 C975 1.393 . S
C972 H961 0.950 . S
C972 C970 1.391 . S
C972 C973 1.400 . S
C973 C967 1.491 . S
C973 C972 1.400 . S
C973 C974 1.398 . S
C974 H962 0.950 . S
C974 C973 1.398 . S
C974 C975 1.391 . S
C975 H963 0.950 . S
C975 C971 1.393 . S
C975 C974 1.391 . S
H976 C984 0.950 . S
H977 C989 0.950 . S
H978 C986 0.950 . S
H979 C988 0.950 . S
H980 C990 0.950 . S
H981 C992 0.950 . S
H982 C994 0.950 . S
H983 C995 0.950 . S
C984 H976 0.950 . S
C984 C985 1.386 . S
C984 C986 1.391 . S
C985 C984 1.386 . S
C985 C989 1.393 . S
C986 H978 0.950 . S
C986 C984 1.391 . S
C986 C987 1.400 . S
C987 C986 1.400 . S
C987 C988 1.398 . S
C987 C993 1.491 . S
C988 H979 0.950 . S
C988 C987 1.398 . S
C988 C989 1.391 . S
C989 H977 0.950 . S
C989 C985 1.393 . S
C989 C988 1.391 . S
C990 H980 0.950 . S
C990 C991 1.386 . S
C990 C992 1.391 . S
C991 C990 1.386 . S
C991 C995 1.393 . S
C992 H981 0.950 . S
C992 C990 1.391 . S
C992 C993 1.400 . S
C993 C987 1.491 . S
C993 C992 1.400 . S
C993 C994 1.398 . S
C994 H982 0.950 . S
C994 C993 1.398 . S
C994 C995 1.391 . S
C995 H983 0.950 . S
C995 C991 1.393 . S
C995 C994 1.391 . S
C405 C18 1.407 . S
C411 C348 1.406 . S
C425 C381 1.405 . S
C431 C51 1.398 . S
C445 C216 1.393 . S
C451 C84 1.401 . S
C465 C249 1.386 . S
C471 C117 1.379 . S
C485 C150 1.395 . S
C491 C282 1.403 . S
C505 C315 1.389 . S
C511 C183 1.398 . S
C525 C219 1.594 . S
C531 C21 1.587 . S
C545 C252 1.590 . S
C551 C54 1.588 . S
C565 C87 1.590 . S
C571 C285 1.588 . S
C585 C120 1.596 . S
C591 C318 1.590 . S
C605 C351 1.596 . S
C611 C153 1.590 . S
C625 C384 1.594 . S
C631 C186 1.595 . S
C645 C7 1.339 . S
C651 C304 1.344 . S
C665 C337 1.346 . S
C671 C40 1.336 . S
C685 C370 1.338 . S
C691 C73 1.327 . S
C705 C205 1.338 . S
C711 C106 1.344 . S
C725 C139 1.326 . S
C731 C238 1.347 . S
C745 C172 1.337 . S
C751 C271 1.345 . S
C765 N2 1.037 . S
C771 N13 1.037 . S
C785 N46 1.025 . S
C791 N35 1.024 . S
C805 N68 1.021 . S
C811 N79 1.022 . S
C825 N112 1.026 . S
C831 N101 1.025 . S
C845 N145 1.033 . S
C851 N134 1.033 . S
C865 N178 1.032 . S
C871 N167 1.032 . S
C885 N200 1.028 . S
C891 N211 1.029 . S
C905 N244 1.022 . S
C911 N233 1.021 . S
C925 N277 1.027 . S
C931 N266 1.027 . S
C945 N310 1.025 . S
C951 N299 1.024 . S
C965 N332 1.037 . S
C971 N343 1.037 . S
C985 N376 1.032 . S
C991 N365 1.031 . S
