# Generated by pormake.
# Topology yfh, (5)-cn, num edge types: 1
# Building blocks:
#     Node 0, Type 0, BuildingBlock: XOMCOT_clean_sbu_1, # of connection points: 5
#     Node 1, Type 0, BuildingBlock: XOMCOT_clean_sbu_1, # of connection points: 5
#     Node 2, Type 0, BuildingBlock: XOMCOT_clean_sbu_1, # of connection points: 5
#     Node 3, Type 0, BuildingBlock: XOMCOT_clean_sbu_1, # of connection points: 5
#     Node 4, Type 0, BuildingBlock: XOMCOT_clean_sbu_1, # of connection points: 5
#     Node 5, Type 0, BuildingBlock: XOMCOT_clean_sbu_1, # of connection points: 5
#     Node 6, Type 0, BuildingBlock: XOMCOT_clean_sbu_1, # of connection points: 5
#     Node 7, Type 0, BuildingBlock: XOMCOT_clean_sbu_1, # of connection points: 5
#     Edge 8, Type (0, 0), BuildingBlock: KIFKEQ_clean_linker_1, # of connection points: 2
#     Edge 9, Type (0, 0), BuildingBlock: KIFKEQ_clean_linker_1, # of connection points: 2
#     Edge 10, Type (0, 0), BuildingBlock: KIFKEQ_clean_linker_1, # of connection points: 2
#     Edge 11, Type (0, 0), BuildingBlock: KIFKEQ_clean_linker_1, # of connection points: 2
#     Edge 12, Type (0, 0), BuildingBlock: KIFKEQ_clean_linker_1, # of connection points: 2
#     Edge 13, Type (0, 0), BuildingBlock: KIFKEQ_clean_linker_1, # of connection points: 2
#     Edge 14, Type (0, 0), BuildingBlock: KIFKEQ_clean_linker_1, # of connection points: 2
#     Edge 15, Type (0, 0), BuildingBlock: KIFKEQ_clean_linker_1, # of connection points: 2
#     Edge 16, Type (0, 0), BuildingBlock: KIFKEQ_clean_linker_1, # of connection points: 2
#     Edge 17, Type (0, 0), BuildingBlock: KIFKEQ_clean_linker_1, # of connection points: 2
#     Edge 18, Type (0, 0), BuildingBlock: KIFKEQ_clean_linker_1, # of connection points: 2
#     Edge 19, Type (0, 0), BuildingBlock: KIFKEQ_clean_linker_1, # of connection points: 2
#     Edge 20, Type (0, 0), BuildingBlock: KIFKEQ_clean_linker_1, # of connection points: 2
#     Edge 21, Type (0, 0), BuildingBlock: KIFKEQ_clean_linker_1, # of connection points: 2
#     Edge 22, Type (0, 0), BuildingBlock: KIFKEQ_clean_linker_1, # of connection points: 2
#     Edge 23, Type (0, 0), BuildingBlock: KIFKEQ_clean_linker_1, # of connection points: 2
#     Edge 24, Type (0, 0), BuildingBlock: KIFKEQ_clean_linker_1, # of connection points: 2
#     Edge 25, Type (0, 0), BuildingBlock: KIFKEQ_clean_linker_1, # of connection points: 2
#     Edge 26, Type (0, 0), BuildingBlock: KIFKEQ_clean_linker_1, # of connection points: 2
#     Edge 27, Type (0, 0), BuildingBlock: KIFKEQ_clean_linker_1, # of connection points: 2
# Relax obj value: 0.389
# Max RMSD: 0.272
# Mean RMSD: 0.272
data_MOF--net-yfh--node1-XOMCOT_clean_sbu_1--edge1-KIFKEQ_clean_linker_1
_symmetry_space_group_name_H-M    P1
_symmetry_Int_Tables_number       1
_symmetry_cell_setting            triclinic
loop_
_symmetry_equiv_pos_as_xyz
'x, y, z'
_cell_length_a     27.958502
_cell_length_b     28.033492
_cell_length_c     60.596279
_cell_angle_alpha  89.786697
_cell_angle_beta   90.049664
_cell_angle_gamma 89.922382
loop_
_atom_site_label
_atom_site_type_symbol
_atom_site_fract_x
_atom_site_fract_y
_atom_site_fract_z
_atom_type_partial_charge
C0 C 0.38301 0.10964 0.06519 0.0
C1 C 0.3605 0.11654 0.04523 0.0
N2 N 0.32874 0.15238 0.04752 0.0
N3 N 0.36582 0.14124 0.07989 0.0
C4 C 0.33248 0.16642 0.06873 0.0
H5 H 0.41089 0.08392 0.0687 0.0
Co6 Co 0.38854 0.14723 0.10842 0.0
C7 C 0.35832 0.24309 0.12466 0.0
O8 O 0.39751 0.24425 0.13659 0.0
N9 N 0.4121 0.15127 0.13768 0.0
C10 C 0.45795 0.1534 0.16772 0.0
C11 C 0.4574 0.15677 0.14513 0.0
C12 C 0.38587 0.14515 0.15628 0.0
N13 N 0.41296 0.14578 0.1747 0.0
O14 O 0.3384 0.10476 0.11804 0.0
H15 H 0.48871 0.16236 0.13513 0.0
H16 H 0.34777 0.13852 0.15628 0.0
O17 O 0.34898 0.20587 0.11308 0.0
C18 C 0.35557 0.06281 0.12079 0.0
O19 O 0.40208 0.05692 0.11918 0.0
N20 N 0.43958 0.18297 0.0971 0.0
C21 C 0.51158 0.21244 0.06829 0.0
C22 C 0.47248 0.24226 0.0728 0.0
C23 C 0.43631 0.22649 0.08694 0.0
C24 C 0.4782 0.15441 0.09345 0.0
C25 C 0.51499 0.16874 0.07948 0.0
H26 H 0.40409 0.24746 0.08772 0.0
H27 H 0.47873 0.11867 0.10025 0.0
H28 H 0.31236 0.19546 0.07573 0.0
H29 H 0.36725 0.09695 0.03019 0.0
H30 H 0.48928 0.15559 0.17818 0.0
H31 H 0.46803 0.27588 0.06417 0.0
H32 H 0.54355 0.14377 0.07596 0.0
C33 C 0.41489 0.89348 0.31567 0.0
C34 C 0.41127 0.8724 0.29524 0.0
N35 N 0.38336 0.83341 0.2972 0.0
N36 N 0.38892 0.86816 0.33031 0.0
C37 C 0.37071 0.83155 0.31867 0.0
H38 H 0.43432 0.92572 0.31956 0.0
Co39 Co 0.37973 0.88254 0.35985 0.0
C40 C 0.28053 0.85331 0.36973 0.0
O41 O 0.27641 0.89393 0.38022 0.0
N42 N 0.37161 0.89627 0.39058 0.0
C43 C 0.35629 0.92702 0.42388 0.0
C44 C 0.35454 0.93497 0.40147 0.0
C45 C 0.38321 0.86551 0.40704 0.0
N46 N 0.37463 0.88339 0.42721 0.0
O47 O 0.42235 0.83022 0.36695 0.0
H48 H 0.34041 0.96695 0.39397 0.0
H49 H 0.39798 0.83031 0.40456 0.0
O50 O 0.32067 0.84235 0.36072 0.0
C51 C 0.46394 0.84901 0.3686 0.0
O52 O 0.46701 0.89572 0.36717 0.0
N53 N 0.34499 0.93676 0.35098 0.0
C54 C 0.33097 1.01441 0.32259 0.0
C55 C 0.30289 0.97297 0.32068 0.0
C56 C 0.31012 0.9347 0.33518 0.0
C57 C 0.36974 0.97798 0.35415 0.0
C58 C 0.36142 1.01792 0.34098 0.0
H59 H 0.29269 0.90134 0.33145 0.0
H60 H 0.39938 0.97864 0.36563 0.0
H61 H 0.3473 0.8048 0.32563 0.0
H62 H 0.42761 0.88502 0.28013 0.0
H63 H 0.34644 0.95191 0.43672 0.0
H64 H 0.27927 0.96753 0.30678 0.0
H65 H 0.38254 0.04953 0.34399 0.0
C66 C 0.67852 0.9358 0.56506 0.0
C67 C 0.70096 0.92598 0.54539 0.0
N68 N 0.72183 0.88276 0.54711 0.0
N69 N 0.68544 0.89907 0.57909 0.0
C70 C 0.71185 0.86726 0.5677 0.0
H71 H 0.65813 0.96752 0.56887 0.0
Co72 Co 0.66164 0.89616 0.60751 0.0
C73 C 0.68659 0.80005 0.62463 0.0
O74 O 0.64506 0.80031 0.63476 0.0
N75 N 0.63788 0.89473 0.63656 0.0
C76 C 0.59513 0.89993 0.66738 0.0
C77 C 0.59304 0.89803 0.64471 0.0
C78 C 0.6663 0.89468 0.6546 0.0
N79 N 0.64139 0.89803 0.67358 0.0
O80 O 0.71229 0.93876 0.61681 0.0
H81 H 0.56073 0.90058 0.63504 0.0
H82 H 0.70488 0.89281 0.65368 0.0
O83 O 0.69961 0.83709 0.61361 0.0
C84 C 0.69344 0.98034 0.61806 0.0
O85 O 0.64708 0.98412 0.61483 0.0
N86 N 0.60954 0.8613 0.59662 0.0
C87 C 0.5339 0.83303 0.56931 0.0
C88 C 0.57097 0.80112 0.57481 0.0
C89 C 0.60933 0.81651 0.58776 0.0
C90 C 0.57299 0.89196 0.59221 0.0
C91 C 0.53496 0.8787 0.57877 0.0
H92 H 0.64006 0.79348 0.5889 0.0
H93 H 0.57524 0.92845 0.59783 0.0
H94 H 0.72378 0.83344 0.57434 0.0
H95 H 0.70105 0.94847 0.53083 0.0
H96 H 0.56496 0.9048 0.67832 0.0
H97 H 0.57223 0.7655 0.56804 0.0
H98 H 0.50885 0.90574 0.57456 0.0
C99 C 0.6148 0.15455 0.81515 0.0
C100 C 0.621 0.17634 0.79496 0.0
N101 N 0.65435 0.21063 0.79724 0.0
N102 N 0.6445 0.17468 0.82993 0.0
C103 C 0.66772 0.20904 0.81862 0.0
H104 H 0.59077 0.12537 0.81878 0.0
Co105 Co 0.65079 0.15561 0.85898 0.0
C106 C 0.74791 0.18518 0.8737 0.0
O107 O 0.74962 0.14566 0.88539 0.0
N108 N 0.65536 0.13646 0.88873 0.0
C109 C 0.65461 0.09804 0.92089 0.0
C110 C 0.65521 0.0929 0.89833 0.0
C111 C 0.65507 0.16725 0.90584 0.0
N112 N 0.65428 0.14497 0.9256 0.0
O113 O 0.60875 0.20731 0.86724 0.0
H114 H 0.6541 0.05923 0.88982 0.0
H115 H 0.65477 0.20557 0.90371 0.0
O116 O 0.71 0.19496 0.86249 0.0
C117 C 0.56671 0.19119 0.87098 0.0
O118 O 0.56028 0.14476 0.87098 0.0
N119 N 0.68598 0.10282 0.84912 0.0
C120 C 0.71099 0.03042 0.8198 0.0
C121 C 0.74223 0.06858 0.82378 0.0
C122 C 0.7285 0.10511 0.83802 0.0
C123 C 0.65698 0.06418 0.84668 0.0
C124 C 0.66898 0.02734 0.83233 0.0
H125 H 0.74973 0.13711 0.83787 0.0
H126 H 0.62175 0.06443 0.85404 0.0
H127 H 0.69486 0.23164 0.82571 0.0
H128 H 0.60254 0.16752 0.77981 0.0
H129 H 0.65205 0.0693 0.9328 0.0
H130 H 0.77495 0.07254 0.81439 0.0
H131 H 0.64297 0.99947 0.82942 0.0
C132 C 0.88527 0.43299 0.66305 0.0
C133 C 0.86317 0.42639 0.68311 0.0
N134 N 0.83041 0.39153 0.68086 0.0
N135 N 0.86679 0.40213 0.64836 0.0
C136 C 0.8332 0.37768 0.65961 0.0
H137 H 0.91356 0.45808 0.65942 0.0
Co138 Co 0.88723 0.39621 0.61956 0.0
C139 C 0.85667 0.30047 0.60396 0.0
O140 O 0.89687 0.29863 0.59281 0.0
N141 N 0.90801 0.39205 0.58999 0.0
C142 C 0.94889 0.387 0.55857 0.0
C143 C 0.95222 0.3872 0.5812 0.0
C144 C 0.87868 0.39501 0.57226 0.0
N145 N 0.90258 0.39205 0.55302 0.0
O146 O 0.83662 0.43932 0.61087 0.0
H147 H 0.9852 0.3842 0.59031 0.0
H148 H 0.84027 0.39906 0.57343 0.0
O149 O 0.84676 0.33804 0.61523 0.0
C150 C 0.85294 0.48117 0.60708 0.0
O151 O 0.89952 0.48736 0.60682 0.0
N152 N 0.93883 0.35958 0.63002 0.0
C153 C 1.01131 0.32942 0.65858 0.0
C154 C 0.97121 0.30063 0.65474 0.0
C155 C 0.9348 0.31684 0.64083 0.0
C156 C 0.97865 0.38688 0.63281 0.0
C157 C 1.01565 0.37218 0.64669 0.0
H158 H 0.90179 0.29713 0.64086 0.0
H159 H 0.97984 0.42229 0.62567 0.0
H160 H 0.81216 0.34926 0.65262 0.0
H161 H 0.87079 0.44558 0.69818 0.0
H162 H 0.97847 0.38497 0.5471 0.0
H163 H 0.96606 0.26772 0.66385 0.0
H164 H 0.0451 0.39639 0.64966 0.0
C165 C 0.11165 0.38605 0.91155 0.0
C166 C 0.1178 0.36466 0.93185 0.0
N167 N 0.15154 0.33056 0.92985 0.0
N168 N 0.1417 0.36581 0.89695 0.0
C169 C 0.16515 0.33182 0.9085 0.0
H170 H 0.08769 0.41528 0.90775 0.0
Co171 Co 0.14943 0.38495 0.86788 0.0
C172 C 0.24923 0.36271 0.8566 0.0
O173 O 0.24995 0.40482 0.84703 0.0
N174 N 0.15619 0.40358 0.83783 0.0
C175 C 0.16058 0.44017 0.8052 0.0
C176 C 0.15961 0.4465 0.82765 0.0
C177 C 0.15603 0.37195 0.82101 0.0
N178 N 0.15802 0.39315 0.80098 0.0
O179 O 0.1091 0.3323 0.85912 0.0
H180 H 0.16082 0.48081 0.83553 0.0
H181 H 0.15391 0.33381 0.82346 0.0
O182 O 0.21018 0.34775 0.86542 0.0
C183 C 0.06728 0.3504 0.85687 0.0
O184 O 0.06297 0.39693 0.85866 0.0
N185 N 0.1817 0.4391 0.87831 0.0
C186 C 0.19976 0.51633 0.90614 0.0
C187 C 0.22961 0.47596 0.90644 0.0
C188 C 0.21978 0.43754 0.8925 0.0
C189 C 0.15337 0.47861 0.87746 0.0
C190 C 0.16306 0.51832 0.89037 0.0
H191 H 0.2394 0.40483 0.89511 0.0
H192 H 0.12054 0.47791 0.86803 0.0
H193 H 0.19306 0.30963 0.90165 0.0
H194 H 0.09925 0.37381 0.94692 0.0
H195 H 0.16089 0.46839 0.79297 0.0
H196 H 0.25739 0.47187 0.91876 0.0
H197 H 0.1392 0.54868 0.88929 0.0
C198 C 0.16689 0.60434 0.16129 0.0
C199 C 0.18914 0.61002 0.1814 0.0
N200 N 0.2214 0.64551 0.17948 0.0
N201 N 0.1848 0.63636 0.14688 0.0
C202 C 0.21819 0.66055 0.15836 0.0
H203 H 0.13871 0.57928 0.15749 0.0
Co204 Co 0.16445 0.64545 0.11807 0.0
C205 C 0.18476 0.74623 0.10807 0.0
O206 O 0.14187 0.74763 0.09927 0.0
N207 N 0.14462 0.65403 0.08817 0.0
C208 C 0.10626 0.66661 0.05638 0.0
C209 C 0.10156 0.66384 0.07888 0.0
C210 C 0.17472 0.6515 0.0707 0.0
N211 N 0.1523 0.65864 0.05126 0.0
O212 O 0.21752 0.60636 0.1086 0.0
H213 H 0.06841 0.66967 0.08748 0.0
H214 H 0.21267 0.6447 0.07212 0.0
O215 O 0.2007 0.70663 0.11593 0.0
C216 C 0.19932 0.56479 0.10617 0.0
O217 O 0.15266 0.56059 0.10799 0.0
N218 N 0.10989 0.67592 0.12923 0.0
C219 C 0.03093 0.6917 0.1565 0.0
C220 C 0.07117 0.72162 0.15756 0.0
C221 C 0.11052 0.71289 0.1439 0.0
C222 C 0.07079 0.64719 0.12784 0.0
C223 C 0.03027 0.65574 0.14048 0.0
H224 H 0.14296 0.73271 0.14685 0.0
H225 H 0.07205 0.61557 0.11768 0.0
H226 H 0.23851 0.69 0.15167 0.0
H227 H 0.18174 0.58995 0.1963 0.0
H228 H 0.07762 0.67257 0.04465 0.0
H229 H 0.07419 0.74879 0.17013 0.0
H230 H 1.00005 0.63193 0.13879 0.0
C231 C 0.92499 0.65005 0.40671 0.0
C232 C 0.92099 0.67072 0.42721 0.0
N233 N 0.88546 0.70326 0.42638 0.0
N234 N 0.89195 0.66926 0.39314 0.0
C235 C 0.86874 0.70177 0.4055 0.0
H236 H 0.94974 0.62216 0.40206 0.0
Co237 Co 0.88137 0.65102 0.36422 0.0
C238 C 0.78143 0.67714 0.35385 0.0
O239 O 0.77846 0.63556 0.34406 0.0
N240 N 0.87188 0.63298 0.33429 0.0
C241 C 0.8602 0.59606 0.30222 0.0
C242 C 0.86192 0.59053 0.32473 0.0
C243 C 0.8754 0.6636 0.31704 0.0
N244 N 0.86901 0.64205 0.29742 0.0
O245 O 0.9221 0.70309 0.35496 0.0
H246 H 0.8559 0.55719 0.33316 0.0
H247 H 0.88289 0.70123 0.31876 0.0
O248 O 0.82124 0.6897 0.36275 0.0
C249 C 0.96361 0.68484 0.35197 0.0
O250 O 0.9677 0.6382 0.35329 0.0
N251 N 0.8489 0.59745 0.37506 0.0
C252 C 0.83593 0.52278 0.40503 0.0
C253 C 0.80502 0.56235 0.40506 0.0
C254 C 0.8122 0.59952 0.38995 0.0
C255 C 0.87728 0.558 0.37407 0.0
C256 C 0.87014 0.51952 0.3882 0.0
H257 H 0.79226 0.63209 0.39227 0.0
H258 H 0.90854 0.55811 0.36357 0.0
H259 H 0.83898 0.7228 0.39957 0.0
H260 H 0.94241 0.66223 0.44158 0.0
H261 H 0.85491 0.56791 0.29029 0.0
H262 H 0.77884 0.56709 0.41803 0.0
H263 H 0.89444 0.48949 0.38727 0.0
H264 H 0.2434 0.19676 0.05269 0.0
H265 H 0.34859 0.15756 0.00386 0.0
H266 H 0.19642 0.23706 0.02425 0.0
H267 H 0.30216 0.19826 0.9755 0.0
H268 H 0.18963 0.24225 0.92587 0.0
H269 H 0.2293 0.19557 0.95458 0.0
H270 H 0.20079 0.30753 0.00165 0.0
H271 H 0.16062 0.3537 0.97299 0.0
C272 C 0.25653 0.19686 0.03589 0.0
C273 C 0.29975 0.17401 0.03054 0.0
C274 C 0.22967 0.22 0.01959 0.0
C275 C 0.24553 0.22103 -0.00242 0.0
C276 C 0.28841 0.1975 -0.0078 0.0
C277 C 0.31511 0.17416 0.00847 0.0
C278 C 0.19182 0.25679 0.94236 0.0
C279 C 0.17216 0.30173 0.94714 0.0
C280 C 0.21462 0.23011 0.95881 0.0
C281 C 0.2185 0.24788 0.98041 0.0
C282 C 0.19786 0.2924 0.98528 0.0
C283 C 0.17483 0.31894 0.96885 0.0
H284 H 0.20164 0.64763 0.22326 0.0
H285 H 0.30577 0.69186 0.17474 0.0
H286 H 0.24597 0.68983 0.25174 0.0
H287 H 0.35012 0.73416 0.20322 0.0
H288 H 0.37238 0.85566 0.25392 0.0
H289 H 0.33748 0.80574 0.22535 0.0
H290 H 0.32082 0.69115 0.27257 0.0
H291 H 0.35585 0.7411 0.30116 0.0
C292 C 0.23443 0.6656 0.21873 0.0
C293 C 0.24991 0.66667 0.19667 0.0
C294 C 0.25988 0.68984 0.23506 0.0
C295 C 0.30142 0.71562 0.22971 0.0
C296 C 0.31778 0.71534 0.2078 0.0
C297 C 0.29235 0.69111 0.19148 0.0
C298 C 0.36211 0.81956 0.25813 0.0
C299 C 0.3666 0.80254 0.27988 0.0
C300 C 0.34207 0.79091 0.24175 0.0
C301 C 0.32613 0.74455 0.24673 0.0
C302 C 0.33199 0.72699 0.2683 0.0
C303 C 0.35204 0.75564 0.28468 0.0
H304 H 0.88961 0.68275 0.47016 0.0
H305 H 0.83794 0.78735 0.42329 0.0
H306 H 0.8536 0.72793 0.50014 0.0
H307 H 0.80016 0.83127 0.45309 0.0
H308 H 0.77339 0.92181 0.51385 0.0
H309 H 0.81711 0.8796 0.4851 0.0
H310 H 0.77372 0.74489 0.51355 0.0
H311 H 0.73036 0.7871 0.54232 0.0
C312 C 0.87093 0.71552 0.46624 0.0
C313 C 0.8665 0.73124 0.44427 0.0
C314 C 0.84977 0.74113 0.48341 0.0
C315 C 0.82374 0.78304 0.479 0.0
C316 C 0.82029 0.79935 0.4571 0.0
C317 C 0.84148 0.77381 0.43996 0.0
C318 C 0.77304 0.88321 0.51389 0.0
C319 C 0.74834 0.85783 0.53035 0.0
C320 C 0.79811 0.85901 0.49743 0.0
C321 C 0.79891 0.80887 0.49702 0.0
C322 C 0.77454 0.78352 0.5136 0.0
C323 C 0.7496 0.80772 0.53009 0.0
H324 H 0.85083 0.38504 0.72444 0.0
H325 H 0.74385 0.34994 0.67572 0.0
H326 H 0.80422 0.34418 0.75265 0.0
H327 H 0.69687 0.30936 0.70396 0.0
H328 H 0.66319 0.1894 0.75391 0.0
H329 H 0.7027 0.23704 0.72565 0.0
H330 H 0.73089 0.34701 0.77372 0.0
H331 H 0.69168 0.29901 0.80202 0.0
C332 C 0.81694 0.36933 0.71983 0.0
C333 C 0.80115 0.3705 0.69783 0.0
C334 C 0.79017 0.34591 0.736 0.0
C335 C 0.74689 0.32333 0.73054 0.0
C336 C 0.73047 0.32566 0.70863 0.0
C337 C 0.75734 0.34893 0.69246 0.0
C338 C 0.67714 0.22405 0.75836 0.0
C339 C 0.67453 0.24033 0.78022 0.0
C340 C 0.69978 0.25141 0.74216 0.0
C341 C 0.72012 0.29578 0.74745 0.0
C342 C 0.71634 0.31262 0.76919 0.0
C343 C 0.69385 0.28516 0.7854 0.0
H344 H 0.67464 0.10613 0.96559 0.0
H345 H 0.6174 0.23283 0.93435 0.0
H346 H 0.64972 0.13612 0.00133 0.0
H347 H 0.59496 0.26391 0.97018 0.0
H348 H 0.4853 0.24527 0.02776 0.0
H349 H 0.53094 0.24037 -0.00602 0.0
H350 H 0.65483 0.19345 0.03089 0.0
H351 H 0.60853 0.19815 0.06503 0.0
C352 C 0.65753 0.14072 0.96634 0.0
C353 C 0.64712 0.1664 0.94696 0.0
C354 C 0.64392 0.15836 0.98692 0.0
C355 C 0.61985 0.20227 -0.01139 0.0
C356 C 0.61276 0.22962 0.96941 0.0
C357 C 0.62607 0.21185 0.94882 0.0
C358 C 0.52279 0.23576 0.02888 0.0
C359 C 0.54314 0.22163 0.04908 0.0
C360 C 0.54909 0.23285 0.0094 0.0
C361 C 0.59641 0.21582 0.00967 0.0
C362 C 0.61813 0.20578 0.03011 0.0
C363 C 0.59172 0.20863 0.04964 0.0
H364 H 0.26499 0.03782 0.28981 0.0
H365 H 0.40979 0.06814 0.31116 0.0
H366 H 0.28246 0.07532 0.25443 0.0
H367 H 0.42462 0.10948 0.27725 0.0
H368 H 0.46493 0.09954 0.20546 0.0
H369 H 0.44048 0.07725 0.24232 0.0
H370 H 0.30257 0.14333 0.23148 0.0
H371 H 0.32727 0.16481 0.19389 0.0
C372 C 0.30009 0.05312 0.28735 0.0
C373 C 0.33612 0.04827 0.30352 0.0
C374 C 0.30983 0.07537 0.26708 0.0
C375 C 0.35549 0.09413 0.26273 0.0
C376 C 0.38958 0.09394 0.27973 0.0
C377 C 0.3804 0.07081 0.29962 0.0
C378 C 0.42969 0.11005 0.21101 0.0
C379 C 0.39824 0.13437 0.19685 0.0
C380 C 0.41559 0.0974 0.23224 0.0
C381 C 0.36976 0.10922 0.2401 0.0
C382 C 0.33806 0.13357 0.22594 0.0
C383 C 0.35216 0.14591 0.20446 0.0
H384 H 0.32354 0.87725 0.46486 0.0
H385 H 0.46035 0.84528 0.4359 0.0
H386 H 0.35214 0.8484 0.50066 0.0
H387 H 0.49085 0.82036 0.47148 0.0
H388 H 0.54566 0.77347 0.53344 0.0
H389 H 0.49771 0.77077 0.50051 0.0
H390 H 0.39807 0.87082 0.52943 0.0
H391 H 0.44218 0.86786 0.5636 0.0
C392 C 0.35979 0.86393 0.46631 0.0
C393 C 0.3899 0.86337 0.44784 0.0
C394 C 0.37646 0.84769 0.48679 0.0
C395 C 0.42418 0.83214 0.48932 0.0
C396 C 0.45361 0.83065 0.47044 0.0
C397 C 0.43643 0.84544 0.44995 0.0
C398 C 0.51248 0.79333 0.53335 0.0
C399 C 0.49913 0.82243 0.55121 0.0
C400 C 0.48532 0.79268 0.51402 0.0
C401 C 0.44512 0.82254 0.51161 0.0
C402 C 0.42902 0.8477 0.53025 0.0
C403 C 0.45515 0.84683 0.5499 0.0
H404 H 0.74228 0.05847 0.7792 0.0
H405 H 0.68986 0.93508 0.81468 0.0
H406 H 0.73443 1.0161 0.7448 0.0
H407 H 0.68134 0.89247 0.77973 0.0
H408 H 0.72979 0.93071 0.68456 0.0
H409 H 0.75834 0.95103 0.72113 0.0
H410 H 0.62443 0.90376 0.74912 0.0
H411 H 0.59654 0.88118 0.71255 0.0
C412 C 0.7308 0.02161 0.77982 0.0
C413 C 0.71653 1.00031 0.79981 0.0
C414 C 0.7261 0.99726 0.75995 0.0
C415 C 0.70684 0.95103 0.75949 0.0
C416 C 0.69562 0.92837 0.77956 0.0
C417 C 0.70057 0.95273 0.79954 0.0
C418 C 0.70678 0.92329 0.69848 0.0
C419 C 0.66044 0.90484 0.69548 0.0
C420 C 0.72312 0.93537 0.71949 0.0
C421 C 0.69349 0.92954 0.738 0.0
C422 C 0.64831 0.90843 0.73522 0.0
C423 C 0.632 0.89616 0.71419 0.0
H424 H 0.18199 0.42949 0.7609 0.0
H425 H 0.11789 0.30664 0.79241 0.0
H426 H 0.15563 0.40056 0.72524 0.0
H427 H 0.09416 0.27631 0.75661 0.0
H428 H 0.98484 0.29939 0.69952 0.0
H429 H 0.0314 0.30269 0.73304 0.0
H430 H 0.15609 0.34426 0.69551 0.0
H431 H 0.10875 0.34129 0.66158 0.0
C432 C 0.16309 0.39588 0.76024 0.0
C433 C 0.15098 0.37124 0.7797 0.0
C434 C 0.14863 0.37881 0.73967 0.0
C435 C 0.12208 0.3364 0.73805 0.0
C436 C 0.1137 0.30961 0.75731 0.0
C437 C 0.12778 0.3269 0.7779 0.0
C438 C 0.02261 0.30744 0.69819 0.0
C439 C 0.04297 0.3204 0.67784 0.0
C440 C 0.04948 0.30939 0.71754 0.0
C441 C 0.09746 0.32427 0.71705 0.0
C442 C 0.11895 0.33353 0.69649 0.0
C443 C 0.09193 0.33169 0.67707 0.0
H444 H 0.12351 0.56012 0.92567 0.0
H445 H 0.27784 0.55038 0.92937 0.0
H446 H 0.12243 0.60738 0.95865 0.0
H447 H 0.27617 0.59704 0.96349 0.0
H448 H 0.22344 0.59875 0.03899 0.0
H449 H 0.24435 0.57687 0.00131 0.0
H450 H 0.1456 0.68278 0.97637 0.0
H451 H 0.12447 0.70436 0.01412 0.0
C452 C 0.15756 0.56933 0.93299 0.0
C453 C 0.20088 0.55139 0.92456 0.0
C454 C 0.15681 0.5965 0.95213 0.0
C455 C 0.19921 0.60612 0.96365 0.0
C456 C 0.2429 0.58997 0.95494 0.0
C457 C 0.24377 0.56311 0.93548 0.0
C458 C 0.20733 0.61838 0.02548 0.0
C459 C 0.17157 0.65257 0.02945 0.0
C460 C 0.21944 0.60596 0.00387 0.0
C461 C 0.19607 0.62765 0.9859 0.0
C462 C 0.16355 0.66489 -0.01007 0.0
C463 C 0.15132 0.67711 0.01149 0.0
H464 H 0.98551 0.61522 0.17497 0.0
H465 H 0.99396 0.76909 0.17903 0.0
H466 H 0.93355 0.61363 0.20656 0.0
H467 H 0.94246 0.76693 0.21173 0.0
H468 H 0.93051 0.71318 0.28689 0.0
H469 H 0.95749 0.73457 0.24998 0.0
H470 H 0.85516 0.63663 0.22197 0.0
H471 H 0.82822 0.61509 0.259 0.0
C472 C 0.97512 0.64905 0.18207 0.0
C473 C 0.99395 0.69241 0.17417 0.0
C474 C 0.94521 0.64801 0.20037 0.0
C475 C 0.93367 0.69016 0.21157 0.0
C476 C 0.95092 0.73386 0.2034 0.0
C477 C 0.98057 0.73502 0.18477 0.0
C478 C 0.91265 0.69736 0.27286 0.0
C479 C 0.87788 0.6617 0.27584 0.0
C480 C 0.92804 0.70976 0.25168 0.0
C481 C 0.9089 0.68675 0.23312 0.0
C482 C 0.8711 0.65433 0.23603 0.0
C483 C 0.85582 0.64185 0.25719 0.0
H484 H 0.76306 0.48787 0.43139 0.0
H485 H 0.91692 0.48692 0.42387 0.0
H486 H 0.7717 0.44527 0.46658 0.0
H487 H 0.92508 0.44422 0.45815 0.0
H488 H 0.82785 0.44766 0.5408 0.0
H489 H 0.80428 0.46804 0.50316 0.0
H490 H 0.91067 0.37045 0.47801 0.0
H491 H 0.93465 0.3508 0.5157 0.0
C492 C 0.79852 0.47793 0.43696 0.0
C493 C 0.83917 0.4906 0.42458 0.0
C494 C 0.80343 0.45352 0.45708 0.0
C495 C 0.84905 0.44109 0.46508 0.0
C496 C 0.88933 0.45211 0.45226 0.0
C497 C 0.88451 0.47663 0.4324 0.0
C498 C 0.84533 0.42971 0.52723 0.0
C499 C 0.88366 0.39828 0.53112 0.0
C500 C 0.83171 0.44123 0.50565 0.0
C501 C 0.85604 0.42131 0.4876 0.0
C502 C 0.89188 0.3871 0.49158 0.0
C503 C 0.90571 0.37591 0.51312 0.0
H504 H 0.28092 0.76313 0.11527 0.0
H505 H 0.14424 0.83397 0.10997 0.0
H506 H 0.31988 0.8406 0.11997 0.0
H507 H 0.18203 0.91035 0.11591 0.0
H508 H 0.26807 0.04558 0.10209 0.0
H509 H 0.2273 0.9689 0.09972 0.0
H510 H 0.33457 0.90583 0.14231 0.0
H511 H 0.37635 0.9819 0.14348 0.0
C512 C 0.2592 0.79515 0.11532 0.0
C513 C 0.20965 0.79232 0.1119 0.0
C514 C 0.28138 0.83972 0.1182 0.0
C515 C 0.25433 0.88243 0.11819 0.0
C516 C 0.20454 0.87894 0.11541 0.0
C517 C 0.1827 0.83476 0.11212 0.0
C518 C 0.28221 1.0155 0.1113 0.0
C519 C 0.32523 0.01977 0.12302 0.0
C520 C 0.25894 0.97126 0.10995 0.0
C521 C 0.27767 0.93038 0.12065 0.0
C522 C 0.31952 0.93571 0.13332 0.0
C523 C 0.34317 0.97962 0.13429 0.0
H524 H 0.76095 0.74811 0.38404 0.0
H525 H 0.69908 0.66784 0.3305 0.0
H526 H 0.68343 0.78617 0.39058 0.0
H527 H 0.62254 0.70645 0.33654 0.0
H528 H 0.47835 0.75225 0.36229 0.0
H529 H 0.55534 0.71042 0.36053 0.0
H530 H 0.62861 0.84194 0.37566 0.0
H531 H 0.55246 0.88274 0.37813 0.0
C532 C 0.7311 0.73908 0.37347 0.0
C533 C 0.73641 0.70487 0.35676 0.0
C534 C 0.68647 0.76081 0.37723 0.0
C535 C 0.64616 0.74909 0.36426 0.0
C536 C 0.65208 0.7156 0.34728 0.0
C537 C 0.69637 0.69381 0.34364 0.0
C538 C 0.51089 0.77186 0.36564 0.0
C539 C 0.50907 0.8209 0.3702 0.0
C540 C 0.55517 0.74809 0.3644 0.0
C541 C 0.59862 0.77282 0.3677 0.0
C542 C 0.5963 0.82139 0.3732 0.0
C543 C 0.55231 0.84496 0.37445 0.0
H544 H 0.78934 0.99664 0.60978 0.0
H545 H 0.65982 0.06598 0.63147 0.0
H546 H 0.82927 0.07447 0.60806 0.0
H547 H 0.69862 0.14304 0.62912 0.0
H548 H 0.79102 0.276 0.63618 0.0
H549 H 0.75602 0.19749 0.64288 0.0
H550 H 0.82644 0.14349 0.58464 0.0
H551 H 0.86217 0.22125 0.57835 0.0
C552 C 0.7697 0.02828 0.61456 0.0
C553 C 0.72137 0.02506 0.62063 0.0
C554 C 0.79228 0.07303 0.6133 0.0
C555 C 0.76702 0.11543 0.61815 0.0
C556 C 0.71949 0.11153 0.62539 0.0
C557 C 0.69709 0.0671 0.62661 0.0
C558 C 0.79862 0.24756 0.6247 0.0
C559 C 0.82951 0.25516 0.60675 0.0
C560 C 0.77866 0.20232 0.62856 0.0
C561 C 0.78885 0.16361 0.61448 0.0
C562 C 0.81871 0.1718 0.59621 0.0
C563 C 0.83874 0.21678 0.59244 0.0
H564 H 0.54868 0.275 0.84909 0.0
H565 H 0.48711 0.17558 0.89543 0.0
H566 H 0.47189 0.31593 0.84604 0.0
H567 H 0.41104 0.21773 0.89355 0.0
H568 H 0.26633 0.268 0.86686 0.0
H569 H 0.3441 0.22911 0.87168 0.0
H570 H 0.41456 0.36449 0.86094 0.0
H571 H 0.33777 0.40199 0.8549 0.0
C572 C 0.51909 0.26295 0.8592 0.0
C573 C 0.52395 0.22228 0.87255 0.0
C574 C 0.47477 0.28631 0.85746 0.0
C575 C 0.43443 0.27009 0.86937 0.0
C576 C 0.44043 0.23073 0.88361 0.0
C577 C 0.48438 0.20692 0.88498 0.0
C578 C 0.29856 0.28918 0.86543 0.0
C579 C 0.29571 0.3379 0.86018 0.0
C580 C 0.34334 0.26707 0.86839 0.0
C581 C 0.38631 0.29341 0.86662 0.0
C582 C 0.3829 0.34242 0.86188 0.0
C583 C 0.33847 0.36413 0.85852 0.0
H584 H 0.77389 0.5003 0.63202 0.0
H585 H 0.86461 0.55993 0.58156 0.0
H586 H 0.73474 0.57734 0.63647 0.0
H587 H 0.82365 0.63632 0.58471 0.0
H588 H 0.77922 0.78172 0.61113 0.0
H589 H 0.81679 0.70377 0.60585 0.0
H590 H 0.68413 0.63496 0.62419 0.0
H591 H 0.64843 0.71198 0.63083 0.0
C592 C 0.78417 0.52954 0.62129 0.0
C593 C 0.82198 0.52404 0.60634 0.0
C594 C 0.76182 0.57404 0.62383 0.0
C595 C 0.77603 0.61398 0.61111 0.0
C596 C 0.81234 0.60732 0.59531 0.0
C597 C 0.83537 0.56318 0.59319 0.0
C598 C 0.75848 0.7498 0.61426 0.0
C599 C 0.71109 0.75329 0.62172 0.0
C600 C 0.77975 0.70488 0.61098 0.0
C601 C 0.75376 0.66227 0.61458 0.0
C602 C 0.7061 0.66628 0.62175 0.0
C603 C 0.68537 0.71089 0.62548 0.0
H604 H 0.77207 0.24811 0.84035 0.0
H605 H 0.82785 0.18123 0.89928 0.0
H606 H 0.85042 0.28319 0.83315 0.0
H607 H 0.90553 0.21716 0.89251 0.0
H608 H 0.05233 0.25532 0.86718 0.0
H609 H 0.97493 0.21446 0.86959 0.0
H610 H 0.90417 0.3418 0.84578 0.0
H611 H 0.98079 0.3814 0.84272 0.0
C612 C 0.80072 0.24151 0.85197 0.0
C613 C 0.79341 0.21188 0.87042 0.0
C614 C 0.84588 0.26152 0.84783 0.0
C615 C 0.88485 0.2527 0.86211 0.0
C616 C 0.87702 0.22389 0.8808 0.0
C617 C 0.8321 0.20374 0.88484 0.0
C618 C 1.02031 0.274 0.86197 0.0
C619 C 0.02281 0.32167 0.85488 0.0
C620 C 0.97578 0.25089 0.86362 0.0
C621 C 0.93287 0.27495 0.85817 0.0
C622 C 0.93606 0.32178 0.84999 0.0
C623 C 0.98026 0.34468 0.84835 0.0
H624 H 0.29327 0.54805 0.11837 0.0
H625 H 0.16896 0.48005 0.09038 0.0
H626 H 0.33265 0.46999 0.12137 0.0
H627 H 0.20688 0.40277 0.09407 0.0
H628 H 0.29836 0.26934 0.09045 0.0
H629 H 0.26554 0.34823 0.08286 0.0
H630 H 0.3265 0.40015 0.14376 0.0
H631 H 0.36053 0.32172 0.15088 0.0
C632 C 0.27477 0.51667 0.11246 0.0
C633 C 0.22796 0.52031 0.10421 0.0
C634 C 0.29695 0.47176 0.11448 0.0
C635 C 0.27277 0.42961 0.10827 0.0
C636 C 0.227 0.43401 0.0989 0.0
C637 C 0.20505 0.47859 0.09687 0.0
C638 C 0.30431 0.29732 0.10234 0.0
C639 C 0.33208 0.28886 0.1213 0.0
C640 C 0.28556 0.34287 0.09797 0.0
C641 C 0.29368 0.38115 0.11256 0.0
C642 C 0.32042 0.37218 0.1318 0.0
C643 C 0.33942 0.32684 0.13606 0.0
H644 H 0.20036 0.85487 0.39476 0.0
H645 H 0.25926 0.78978 0.33632 0.0
H646 H 0.12366 0.81772 0.38754 0.0
H647 H 0.18148 0.75306 0.32867 0.0
H648 H 0.0504 0.65383 0.33809 0.0
H649 H 0.12695 0.69379 0.34105 0.0
H650 H 0.05552 0.82107 0.36398 0.0
H651 H 0.97836 0.77999 0.36169 0.0
C652 C 0.19694 0.83243 0.38032 0.0
C653 C 0.23613 0.82521 0.36615 0.0
C654 C 0.15257 0.81156 0.37602 0.0
C655 C 0.14571 0.78295 0.35729 0.0
C656 C 0.18529 0.77472 0.34332 0.0
C657 C 0.23005 0.79553 0.34773 0.0
C658 C 0.05078 0.69061 0.34351 0.0
C659 C 1.00812 0.71354 0.34988 0.0
C660 C 0.09494 0.71369 0.34508 0.0
C661 C 0.0979 0.76057 0.35305 0.0
C662 C 0.05486 0.78456 0.35822 0.0
C663 C 1.01045 0.76131 0.35665 0.0
loop_
_geom_bond_atom_site_label_1
_geom_bond_atom_site_label_2
_geom_bond_distance
_geom_bond_site_symmetry_2
_ccdc_geom_bond_type
C0 C1 1.351 . S
C0 N3 1.368 . S
C0 H5 0.931 . S
C1 C0 1.351 . S
C1 N2 1.373 . S
C1 H29 0.930 . S
N2 C1 1.373 . S
N2 C4 1.340 . S
N3 C0 1.368 . S
N3 C4 1.321 . S
N3 Co6 2.135 . S
C4 N2 1.340 . S
C4 N3 1.321 . S
C4 H28 0.930 . S
H5 C0 0.931 . S
Co6 N3 2.135 . S
Co6 N9 2.121 . S
Co6 O14 2.055 . S
Co6 O17 2.039 . S
Co6 N20 2.140 . S
C7 O8 1.227 . S
C7 O17 1.265 . S
O8 C7 1.227 . S
N9 Co6 2.121 . S
N9 C11 1.375 . S
N9 C12 1.313 . S
C10 C11 1.338 . S
C10 N13 1.377 . S
C10 H30 0.930 . S
C11 N9 1.375 . S
C11 C10 1.338 . S
C11 H15 0.931 . S
C12 N9 1.313 . S
C12 N13 1.344 . S
C12 H16 0.930 . S
N13 C10 1.377 . S
N13 C12 1.344 . S
O14 Co6 2.055 . S
O14 C18 1.253 . S
H15 C11 0.931 . S
H16 C12 0.930 . S
O17 Co6 2.039 . S
O17 C7 1.265 . S
C18 O14 1.253 . S
C18 O19 1.227 . S
O19 C18 1.227 . S
N20 Co6 2.140 . S
N20 C23 1.346 . S
N20 C24 1.345 . S
C21 C22 1.387 . S
C21 C25 1.391 . S
C22 C21 1.387 . S
C22 C23 1.369 . S
C22 H31 0.929 . S
C23 N20 1.346 . S
C23 C22 1.369 . S
C23 H26 0.928 . S
C24 N20 1.345 . S
C24 C25 1.371 . S
C24 H27 0.931 . S
C25 C21 1.391 . S
C25 C24 1.371 . S
C25 H32 0.930 . S
H26 C23 0.928 . S
H27 C24 0.931 . S
H28 C4 0.930 . S
H29 C1 0.930 . S
H30 C10 0.930 . S
H31 C22 0.929 . S
H32 C25 0.930 . S
C33 C34 1.351 . S
C33 N36 1.368 . S
C33 H38 0.931 . S
C34 C33 1.351 . S
C34 N35 1.373 . S
C34 H62 0.930 . S
N35 C34 1.373 . S
N35 C37 1.340 . S
N36 C33 1.368 . S
N36 C37 1.321 . S
N36 Co39 2.135 . S
C37 N35 1.340 . S
C37 N36 1.321 . S
C37 H61 0.930 . S
H38 C33 0.931 . S
Co39 N36 2.135 . S
Co39 N42 2.121 . S
Co39 O47 2.055 . S
Co39 O50 2.039 . S
Co39 N53 2.140 . S
C40 O41 1.227 . S
C40 O50 1.265 . S
O41 C40 1.227 . S
N42 Co39 2.121 . S
N42 C44 1.375 . S
N42 C45 1.313 . S
C43 C44 1.338 . S
C43 N46 1.377 . S
C43 H63 0.930 . S
C44 N42 1.375 . S
C44 C43 1.338 . S
C44 H48 0.931 . S
C45 N42 1.313 . S
C45 N46 1.344 . S
C45 H49 0.930 . S
N46 C43 1.377 . S
N46 C45 1.344 . S
O47 Co39 2.055 . S
O47 C51 1.253 . S
H48 C44 0.931 . S
H49 C45 0.930 . S
O50 Co39 2.039 . S
O50 C40 1.265 . S
C51 O47 1.253 . S
C51 O52 1.227 . S
O52 C51 1.227 . S
N53 Co39 2.140 . S
N53 C56 1.346 . S
N53 C57 1.345 . S
C54 C55 1.387 1_545 S
C54 C58 1.391 1_545 S
C55 C54 1.387 1_565 S
C55 C56 1.369 . S
C55 H64 0.929 . S
C56 N53 1.346 . S
C56 C55 1.369 . S
C56 H59 0.928 . S
C57 N53 1.345 . S
C57 C58 1.371 . S
C57 H60 0.931 . S
C58 C54 1.391 1_565 S
C58 C57 1.371 . S
C58 H65 0.930 1_565 S
H59 C56 0.928 . S
H60 C57 0.931 . S
H61 C37 0.930 . S
H62 C34 0.930 . S
H63 C43 0.930 . S
H64 C55 0.929 . S
H65 C58 0.930 1_545 S
C66 C67 1.351 . S
C66 N69 1.368 . S
C66 H71 0.931 . S
C67 C66 1.351 . S
C67 N68 1.373 . S
C67 H95 0.930 . S
N68 C67 1.373 . S
N68 C70 1.340 . S
N69 C66 1.368 . S
N69 C70 1.321 . S
N69 Co72 2.135 . S
C70 N68 1.340 . S
C70 N69 1.321 . S
C70 H94 0.930 . S
H71 C66 0.931 . S
Co72 N69 2.135 . S
Co72 N75 2.121 . S
Co72 O80 2.055 . S
Co72 O83 2.039 . S
Co72 N86 2.140 . S
C73 O74 1.227 . S
C73 O83 1.265 . S
O74 C73 1.227 . S
N75 Co72 2.121 . S
N75 C77 1.375 . S
N75 C78 1.313 . S
C76 C77 1.338 . S
C76 N79 1.377 . S
C76 H96 0.930 . S
C77 N75 1.375 . S
C77 C76 1.338 . S
C77 H81 0.931 . S
C78 N75 1.313 . S
C78 N79 1.344 . S
C78 H82 0.930 . S
N79 C76 1.377 . S
N79 C78 1.344 . S
O80 Co72 2.055 . S
O80 C84 1.253 . S
H81 C77 0.931 . S
H82 C78 0.930 . S
O83 Co72 2.039 . S
O83 C73 1.265 . S
C84 O80 1.253 . S
C84 O85 1.227 . S
O85 C84 1.227 . S
N86 Co72 2.140 . S
N86 C89 1.346 . S
N86 C90 1.345 . S
C87 C88 1.387 . S
C87 C91 1.391 . S
C88 C87 1.387 . S
C88 C89 1.369 . S
C88 H97 0.929 . S
C89 N86 1.346 . S
C89 C88 1.369 . S
C89 H92 0.928 . S
C90 N86 1.345 . S
C90 C91 1.371 . S
C90 H93 0.931 . S
C91 C87 1.391 . S
C91 C90 1.371 . S
C91 H98 0.930 . S
H92 C89 0.928 . S
H93 C90 0.931 . S
H94 C70 0.930 . S
H95 C67 0.930 . S
H96 C76 0.930 . S
H97 C88 0.929 . S
H98 C91 0.930 . S
C99 C100 1.351 . S
C99 N102 1.368 . S
C99 H104 0.931 . S
C100 C99 1.351 . S
C100 N101 1.373 . S
C100 H128 0.930 . S
N101 C100 1.373 . S
N101 C103 1.340 . S
N102 C99 1.368 . S
N102 C103 1.321 . S
N102 Co105 2.135 . S
C103 N101 1.340 . S
C103 N102 1.321 . S
C103 H127 0.930 . S
H104 C99 0.931 . S
Co105 N102 2.135 . S
Co105 N108 2.121 . S
Co105 O113 2.055 . S
Co105 O116 2.039 . S
Co105 N119 2.140 . S
C106 O107 1.227 . S
C106 O116 1.265 . S
O107 C106 1.227 . S
N108 Co105 2.121 . S
N108 C110 1.375 . S
N108 C111 1.313 . S
C109 C110 1.338 . S
C109 N112 1.377 . S
C109 H129 0.930 . S
C110 N108 1.375 . S
C110 C109 1.338 . S
C110 H114 0.931 . S
C111 N108 1.313 . S
C111 N112 1.344 . S
C111 H115 0.930 . S
N112 C109 1.377 . S
N112 C111 1.344 . S
O113 Co105 2.055 . S
O113 C117 1.253 . S
H114 C110 0.931 . S
H115 C111 0.930 . S
O116 Co105 2.039 . S
O116 C106 1.265 . S
C117 O113 1.253 . S
C117 O118 1.227 . S
O118 C117 1.227 . S
N119 Co105 2.140 . S
N119 C122 1.346 . S
N119 C123 1.345 . S
C120 C121 1.387 1_565 S
C120 C124 1.391 1_565 S
C121 C120 1.387 1_545 S
C121 C122 1.369 . S
C121 H130 0.929 . S
C122 N119 1.346 . S
C122 C121 1.369 . S
C122 H125 0.928 . S
C123 N119 1.345 . S
C123 C124 1.371 . S
C123 H126 0.931 . S
C124 C120 1.391 1_545 S
C124 C123 1.371 . S
C124 H131 0.930 1_545 S
H125 C122 0.928 . S
H126 C123 0.931 . S
H127 C103 0.930 . S
H128 C100 0.930 . S
H129 C109 0.930 . S
H130 C121 0.929 . S
H131 C124 0.930 1_565 S
C132 C133 1.351 . S
C132 N135 1.368 . S
C132 H137 0.931 . S
C133 C132 1.351 . S
C133 N134 1.373 . S
C133 H161 0.930 . S
N134 C133 1.373 . S
N134 C136 1.340 . S
N135 C132 1.368 . S
N135 C136 1.321 . S
N135 Co138 2.135 . S
C136 N134 1.340 . S
C136 N135 1.321 . S
C136 H160 0.930 . S
H137 C132 0.931 . S
Co138 N135 2.135 . S
Co138 N141 2.121 . S
Co138 O146 2.055 . S
Co138 O149 2.039 . S
Co138 N152 2.140 . S
C139 O140 1.227 . S
C139 O149 1.265 . S
O140 C139 1.227 . S
N141 Co138 2.121 . S
N141 C143 1.375 . S
N141 C144 1.313 . S
C142 C143 1.338 . S
C142 N145 1.377 . S
C142 H162 0.930 . S
C143 N141 1.375 . S
C143 C142 1.338 . S
C143 H147 0.931 . S
C144 N141 1.313 . S
C144 N145 1.344 . S
C144 H148 0.930 . S
N145 C142 1.377 . S
N145 C144 1.344 . S
O146 Co138 2.055 . S
O146 C150 1.253 . S
H147 C143 0.931 . S
H148 C144 0.930 . S
O149 Co138 2.039 . S
O149 C139 1.265 . S
C150 O146 1.253 . S
C150 O151 1.227 . S
O151 C150 1.227 . S
N152 Co138 2.140 . S
N152 C155 1.346 . S
N152 C156 1.345 . S
C153 C154 1.387 1_455 S
C153 C157 1.391 1_455 S
C154 C153 1.387 1_655 S
C154 C155 1.369 . S
C154 H163 0.929 . S
C155 N152 1.346 . S
C155 C154 1.369 . S
C155 H158 0.928 . S
C156 N152 1.345 . S
C156 C157 1.371 . S
C156 H159 0.931 . S
C157 C153 1.391 1_655 S
C157 C156 1.371 . S
C157 H164 0.930 1_655 S
H158 C155 0.928 . S
H159 C156 0.931 . S
H160 C136 0.930 . S
H161 C133 0.930 . S
H162 C142 0.930 . S
H163 C154 0.929 . S
H164 C157 0.930 1_455 S
C165 C166 1.351 . S
C165 N168 1.368 . S
C165 H170 0.931 . S
C166 C165 1.351 . S
C166 N167 1.373 . S
C166 H194 0.930 . S
N167 C166 1.373 . S
N167 C169 1.340 . S
N168 C165 1.368 . S
N168 C169 1.321 . S
N168 Co171 2.135 . S
C169 N167 1.340 . S
C169 N168 1.321 . S
C169 H193 0.930 . S
H170 C165 0.931 . S
Co171 N168 2.135 . S
Co171 N174 2.121 . S
Co171 O179 2.055 . S
Co171 O182 2.039 . S
Co171 N185 2.140 . S
C172 O173 1.227 . S
C172 O182 1.265 . S
O173 C172 1.227 . S
N174 Co171 2.121 . S
N174 C176 1.375 . S
N174 C177 1.313 . S
C175 C176 1.338 . S
C175 N178 1.377 . S
C175 H195 0.930 . S
C176 N174 1.375 . S
C176 C175 1.338 . S
C176 H180 0.931 . S
C177 N174 1.313 . S
C177 N178 1.344 . S
C177 H181 0.930 . S
N178 C175 1.377 . S
N178 C177 1.344 . S
O179 Co171 2.055 . S
O179 C183 1.253 . S
H180 C176 0.931 . S
H181 C177 0.930 . S
O182 Co171 2.039 . S
O182 C172 1.265 . S
C183 O179 1.253 . S
C183 O184 1.227 . S
O184 C183 1.227 . S
N185 Co171 2.140 . S
N185 C188 1.346 . S
N185 C189 1.345 . S
C186 C187 1.387 . S
C186 C190 1.391 . S
C187 C186 1.387 . S
C187 C188 1.369 . S
C187 H196 0.929 . S
C188 N185 1.346 . S
C188 C187 1.369 . S
C188 H191 0.928 . S
C189 N185 1.345 . S
C189 C190 1.371 . S
C189 H192 0.931 . S
C190 C186 1.391 . S
C190 C189 1.371 . S
C190 H197 0.930 . S
H191 C188 0.928 . S
H192 C189 0.931 . S
H193 C169 0.930 . S
H194 C166 0.930 . S
H195 C175 0.930 . S
H196 C187 0.929 . S
H197 C190 0.930 . S
C198 C199 1.351 . S
C198 N201 1.368 . S
C198 H203 0.931 . S
C199 C198 1.351 . S
C199 N200 1.373 . S
C199 H227 0.930 . S
N200 C199 1.373 . S
N200 C202 1.340 . S
N201 C198 1.368 . S
N201 C202 1.321 . S
N201 Co204 2.135 . S
C202 N200 1.340 . S
C202 N201 1.321 . S
C202 H226 0.930 . S
H203 C198 0.931 . S
Co204 N201 2.135 . S
Co204 N207 2.121 . S
Co204 O212 2.055 . S
Co204 O215 2.039 . S
Co204 N218 2.140 . S
C205 O206 1.227 . S
C205 O215 1.265 . S
O206 C205 1.227 . S
N207 Co204 2.121 . S
N207 C209 1.375 . S
N207 C210 1.313 . S
C208 C209 1.338 . S
C208 N211 1.377 . S
C208 H228 0.930 . S
C209 N207 1.375 . S
C209 C208 1.338 . S
C209 H213 0.931 . S
C210 N207 1.313 . S
C210 N211 1.344 . S
C210 H214 0.930 . S
N211 C208 1.377 . S
N211 C210 1.344 . S
O212 Co204 2.055 . S
O212 C216 1.253 . S
H213 C209 0.931 . S
H214 C210 0.930 . S
O215 Co204 2.039 . S
O215 C205 1.265 . S
C216 O212 1.253 . S
C216 O217 1.227 . S
O217 C216 1.227 . S
N218 Co204 2.140 . S
N218 C221 1.346 . S
N218 C222 1.345 . S
C219 C220 1.387 1_655 S
C219 C223 1.391 1_655 S
C220 C219 1.387 1_455 S
C220 C221 1.369 . S
C220 H229 0.929 . S
C221 N218 1.346 . S
C221 C220 1.369 . S
C221 H224 0.928 . S
C222 N218 1.345 . S
C222 C223 1.371 . S
C222 H225 0.931 . S
C223 C219 1.391 1_455 S
C223 C222 1.371 . S
C223 H230 0.930 1_455 S
H224 C221 0.928 . S
H225 C222 0.931 . S
H226 C202 0.930 . S
H227 C199 0.930 . S
H228 C208 0.930 . S
H229 C220 0.929 . S
H230 C223 0.930 1_655 S
C231 C232 1.351 . S
C231 N234 1.368 . S
C231 H236 0.931 . S
C232 C231 1.351 . S
C232 N233 1.373 . S
C232 H260 0.930 . S
N233 C232 1.373 . S
N233 C235 1.340 . S
N234 C231 1.368 . S
N234 C235 1.321 . S
N234 Co237 2.135 . S
C235 N233 1.340 . S
C235 N234 1.321 . S
C235 H259 0.930 . S
H236 C231 0.931 . S
Co237 N234 2.135 . S
Co237 N240 2.121 . S
Co237 O245 2.055 . S
Co237 O248 2.039 . S
Co237 N251 2.140 . S
C238 O239 1.227 . S
C238 O248 1.265 . S
O239 C238 1.227 . S
N240 Co237 2.121 . S
N240 C242 1.375 . S
N240 C243 1.313 . S
C241 C242 1.338 . S
C241 N244 1.377 . S
C241 H261 0.930 . S
C242 N240 1.375 . S
C242 C241 1.338 . S
C242 H246 0.931 . S
C243 N240 1.313 . S
C243 N244 1.344 . S
C243 H247 0.930 . S
N244 C241 1.377 . S
N244 C243 1.344 . S
O245 Co237 2.055 . S
O245 C249 1.253 . S
H246 C242 0.931 . S
H247 C243 0.930 . S
O248 Co237 2.039 . S
O248 C238 1.265 . S
C249 O245 1.253 . S
C249 O250 1.227 . S
O250 C249 1.227 . S
N251 Co237 2.140 . S
N251 C254 1.346 . S
N251 C255 1.345 . S
C252 C253 1.387 . S
C252 C256 1.391 . S
C253 C252 1.387 . S
C253 C254 1.369 . S
C253 H262 0.929 . S
C254 N251 1.346 . S
C254 C253 1.369 . S
C254 H257 0.928 . S
C255 N251 1.345 . S
C255 C256 1.371 . S
C255 H258 0.931 . S
C256 C252 1.391 . S
C256 C255 1.371 . S
C256 H263 0.930 . S
H257 C254 0.928 . S
H258 C255 0.931 . S
H259 C235 0.930 . S
H260 C232 0.930 . S
H261 C241 0.930 . S
H262 C253 0.929 . S
H263 C256 0.930 . S
H264 C272 0.950 . S
H265 C277 0.950 . S
H266 C274 0.950 . S
H267 C276 0.950 1_556 S
H268 C278 0.950 . S
H269 C280 0.950 . S
H270 C282 0.950 1_554 S
H271 C283 0.950 . S
C272 H264 0.950 . S
C272 C273 1.386 . S
C272 C274 1.391 . S
C273 C272 1.386 . S
C273 C277 1.393 . S
C274 H266 0.950 . S
C274 C272 1.391 . S
C274 C275 1.400 . S
C275 C274 1.400 . S
C275 C276 1.398 . S
C275 C281 1.491 1_554 S
C276 H267 0.950 1_554 S
C276 C275 1.398 . S
C276 C277 1.391 . S
C277 H265 0.950 . S
C277 C273 1.393 . S
C277 C276 1.391 . S
C278 H268 0.950 . S
C278 C279 1.386 . S
C278 C280 1.391 . S
C279 C278 1.386 . S
C279 C283 1.393 . S
C280 H269 0.950 . S
C280 C278 1.391 . S
C280 C281 1.400 . S
C281 C275 1.491 1_556 S
C281 C280 1.400 . S
C281 C282 1.398 . S
C282 H270 0.950 1_556 S
C282 C281 1.398 . S
C282 C283 1.391 . S
C283 H271 0.950 . S
C283 C279 1.393 . S
C283 C282 1.391 . S
H284 C292 0.950 . S
H285 C297 0.950 . S
H286 C294 0.950 . S
H287 C296 0.950 . S
H288 C298 0.950 . S
H289 C300 0.950 . S
H290 C302 0.950 . S
H291 C303 0.950 . S
C292 H284 0.950 . S
C292 C293 1.386 . S
C292 C294 1.391 . S
C293 C292 1.386 . S
C293 C297 1.393 . S
C294 H286 0.950 . S
C294 C292 1.391 . S
C294 C295 1.400 . S
C295 C294 1.400 . S
C295 C296 1.398 . S
C295 C301 1.491 . S
C296 H287 0.950 . S
C296 C295 1.398 . S
C296 C297 1.391 . S
C297 H285 0.950 . S
C297 C293 1.393 . S
C297 C296 1.391 . S
C298 H288 0.950 . S
C298 C299 1.386 . S
C298 C300 1.391 . S
C299 C298 1.386 . S
C299 C303 1.393 . S
C300 H289 0.950 . S
C300 C298 1.391 . S
C300 C301 1.400 . S
C301 C295 1.491 . S
C301 C300 1.400 . S
C301 C302 1.398 . S
C302 H290 0.950 . S
C302 C301 1.398 . S
C302 C303 1.391 . S
C303 H291 0.950 . S
C303 C299 1.393 . S
C303 C302 1.391 . S
H304 C312 0.950 . S
H305 C317 0.950 . S
H306 C314 0.950 . S
H307 C316 0.950 . S
H308 C318 0.950 . S
H309 C320 0.950 . S
H310 C322 0.950 . S
H311 C323 0.950 . S
C312 H304 0.950 . S
C312 C313 1.386 . S
C312 C314 1.391 . S
C313 C312 1.386 . S
C313 C317 1.393 . S
C314 H306 0.950 . S
C314 C312 1.391 . S
C314 C315 1.400 . S
C315 C314 1.400 . S
C315 C316 1.398 . S
C315 C321 1.491 . S
C316 H307 0.950 . S
C316 C315 1.398 . S
C316 C317 1.391 . S
C317 H305 0.950 . S
C317 C313 1.393 . S
C317 C316 1.391 . S
C318 H308 0.950 . S
C318 C319 1.386 . S
C318 C320 1.391 . S
C319 C318 1.386 . S
C319 C323 1.393 . S
C320 H309 0.950 . S
C320 C318 1.391 . S
C320 C321 1.400 . S
C321 C315 1.491 . S
C321 C320 1.400 . S
C321 C322 1.398 . S
C322 H310 0.950 . S
C322 C321 1.398 . S
C322 C323 1.391 . S
C323 H311 0.950 . S
C323 C319 1.393 . S
C323 C322 1.391 . S
H324 C332 0.950 . S
H325 C337 0.950 . S
H326 C334 0.950 . S
H327 C336 0.950 . S
H328 C338 0.950 . S
H329 C340 0.950 . S
H330 C342 0.950 . S
H331 C343 0.950 . S
C332 H324 0.950 . S
C332 C333 1.386 . S
C332 C334 1.391 . S
C333 C332 1.386 . S
C333 C337 1.393 . S
C334 H326 0.950 . S
C334 C332 1.391 . S
C334 C335 1.400 . S
C335 C334 1.400 . S
C335 C336 1.398 . S
C335 C341 1.491 . S
C336 H327 0.950 . S
C336 C335 1.398 . S
C336 C337 1.391 . S
C337 H325 0.950 . S
C337 C333 1.393 . S
C337 C336 1.391 . S
C338 H328 0.950 . S
C338 C339 1.386 . S
C338 C340 1.391 . S
C339 C338 1.386 . S
C339 C343 1.393 . S
C340 H329 0.950 . S
C340 C338 1.391 . S
C340 C341 1.400 . S
C341 C335 1.491 . S
C341 C340 1.400 . S
C341 C342 1.398 . S
C342 H330 0.950 . S
C342 C341 1.398 . S
C342 C343 1.391 . S
C343 H331 0.950 . S
C343 C339 1.393 . S
C343 C342 1.391 . S
H344 C352 0.950 . S
H345 C357 0.950 . S
H346 C354 0.950 . S
H347 C356 0.950 . S
H348 C358 0.950 . S
H349 C360 0.950 . S
H350 C362 0.950 . S
H351 C363 0.950 . S
C352 H344 0.950 . S
C352 C353 1.386 . S
C352 C354 1.391 . S
C353 C352 1.386 . S
C353 C357 1.393 . S
C354 H346 0.950 . S
C354 C352 1.391 . S
C354 C355 1.400 . S
C355 C354 1.400 . S
C355 C356 1.398 . S
C355 C361 1.491 1_556 S
C356 H347 0.950 . S
C356 C355 1.398 . S
C356 C357 1.391 . S
C357 H345 0.950 . S
C357 C353 1.393 . S
C357 C356 1.391 . S
C358 H348 0.950 . S
C358 C359 1.386 . S
C358 C360 1.391 . S
C359 C358 1.386 . S
C359 C363 1.393 . S
C360 H349 0.950 . S
C360 C358 1.391 . S
C360 C361 1.400 . S
C361 C355 1.491 1_554 S
C361 C360 1.400 . S
C361 C362 1.398 . S
C362 H350 0.950 . S
C362 C361 1.398 . S
C362 C363 1.391 . S
C363 H351 0.950 . S
C363 C359 1.393 . S
C363 C362 1.391 . S
H364 C372 0.950 . S
H365 C377 0.950 1_565 S
H366 C374 0.950 . S
H367 C376 0.950 . S
H368 C378 0.950 . S
H369 C380 0.950 . S
H370 C382 0.950 . S
H371 C383 0.950 . S
C372 H364 0.950 . S
C372 C373 1.386 . S
C372 C374 1.391 . S
C373 C372 1.386 . S
C373 C377 1.393 . S
C374 H366 0.950 . S
C374 C372 1.391 . S
C374 C375 1.400 . S
C375 C374 1.400 . S
C375 C376 1.398 . S
C375 C381 1.491 . S
C376 H367 0.950 . S
C376 C375 1.398 . S
C376 C377 1.391 . S
C377 H365 0.950 1_545 S
C377 C373 1.393 . S
C377 C376 1.391 . S
C378 H368 0.950 . S
C378 C379 1.386 . S
C378 C380 1.391 . S
C379 C378 1.386 . S
C379 C383 1.393 . S
C380 H369 0.950 . S
C380 C378 1.391 . S
C380 C381 1.400 . S
C381 C375 1.491 . S
C381 C380 1.400 . S
C381 C382 1.398 . S
C382 H370 0.950 . S
C382 C381 1.398 . S
C382 C383 1.391 . S
C383 H371 0.950 . S
C383 C379 1.393 . S
C383 C382 1.391 . S
H384 C392 0.950 . S
H385 C397 0.950 . S
H386 C394 0.950 . S
H387 C396 0.950 . S
H388 C398 0.950 . S
H389 C400 0.950 . S
H390 C402 0.950 . S
H391 C403 0.950 . S
C392 H384 0.950 . S
C392 C393 1.386 . S
C392 C394 1.391 . S
C393 C392 1.386 . S
C393 C397 1.393 . S
C394 H386 0.950 . S
C394 C392 1.391 . S
C394 C395 1.400 . S
C395 C394 1.400 . S
C395 C396 1.398 . S
C395 C401 1.491 . S
C396 H387 0.950 . S
C396 C395 1.398 . S
C396 C397 1.391 . S
C397 H385 0.950 . S
C397 C393 1.393 . S
C397 C396 1.391 . S
C398 H388 0.950 . S
C398 C399 1.386 . S
C398 C400 1.391 . S
C399 C398 1.386 . S
C399 C403 1.393 . S
C400 H389 0.950 . S
C400 C398 1.391 . S
C400 C401 1.400 . S
C401 C395 1.491 . S
C401 C400 1.400 . S
C401 C402 1.398 . S
C402 H390 0.950 . S
C402 C401 1.398 . S
C402 C403 1.391 . S
C403 H391 0.950 . S
C403 C399 1.393 . S
C403 C402 1.391 . S
H404 C412 0.927 1_545 S
H405 C417 0.950 . S
H406 C414 0.950 1_545 S
H407 C416 0.950 . S
H408 C418 0.950 . S
H409 C420 0.950 . S
H410 C422 0.928 1_545 S
H411 C423 0.950 . S
C412 H404 0.927 1_565 S
C412 C413 1.403 . S
C412 C414 1.396 . S
C413 C412 1.403 . S
C413 C417 1.393 . S
C414 H406 0.950 1_565 S
C414 C412 1.396 . S
C414 C415 1.400 . S
C415 C414 1.400 . S
C415 C416 1.398 . S
C415 C421 1.491 . S
C416 H407 0.950 . S
C416 C415 1.398 . S
C416 C417 1.391 . S
C417 H405 0.950 . S
C417 C413 1.393 . S
C417 C416 1.391 . S
C418 H408 0.950 . S
C418 C419 1.386 . S
C418 C420 1.391 . S
C419 C418 1.386 . S
C419 C423 1.393 . S
C420 H409 0.950 . S
C420 C418 1.391 . S
C420 C421 1.400 . S
C421 C415 1.491 . S
C421 C420 1.400 . S
C421 C422 1.398 . S
C422 H410 0.928 1_565 S
C422 C421 1.398 . S
C422 C423 1.391 . S
C423 H411 0.950 . S
C423 C419 1.393 . S
C423 C422 1.391 . S
H424 C432 0.950 . S
H425 C437 0.950 . S
H426 C434 0.950 . S
H427 C436 0.950 1_655 S
H428 C438 0.950 . S
H429 C440 0.950 1_655 S
H430 C442 0.950 . S
H431 C443 0.950 . S
C432 H424 0.950 . S
C432 C433 1.386 . S
C432 C434 1.391 . S
C433 C432 1.386 . S
C433 C437 1.393 . S
C434 H426 0.950 . S
C434 C432 1.391 . S
C434 C435 1.400 . S
C435 C434 1.400 . S
C435 C436 1.398 . S
C435 C441 1.491 . S
C436 H427 0.950 1_455 S
C436 C435 1.398 . S
C436 C437 1.391 . S
C437 H425 0.950 . S
C437 C433 1.393 . S
C437 C436 1.391 . S
C438 H428 0.950 . S
C438 C439 1.386 1_655 S
C438 C440 1.391 1_655 S
C439 C438 1.386 1_455 S
C439 C443 1.393 . S
C440 H429 0.950 1_455 S
C440 C438 1.391 1_455 S
C440 C441 1.400 . S
C441 C435 1.491 . S
C441 C440 1.400 . S
C441 C442 1.398 . S
C442 H430 0.950 . S
C442 C441 1.398 . S
C442 C443 1.391 . S
C443 H431 0.950 . S
C443 C439 1.393 . S
C443 C442 1.391 . S
H444 C452 0.950 . S
H445 C457 0.950 . S
H446 C454 0.950 . S
H447 C456 0.950 . S
H448 C458 0.950 . S
H449 C460 0.950 . S
H450 C462 0.950 . S
H451 C463 0.950 . S
C452 H444 0.950 . S
C452 C453 1.386 . S
C452 C454 1.391 . S
C453 C452 1.386 . S
C453 C457 1.393 . S
C454 H446 0.950 . S
C454 C452 1.391 . S
C454 C455 1.400 . S
C455 C454 1.400 . S
C455 C456 1.398 . S
C455 C461 1.491 1_556 S
C456 H447 0.950 . S
C456 C455 1.398 . S
C456 C457 1.391 . S
C457 H445 0.950 . S
C457 C453 1.393 . S
C457 C456 1.391 . S
C458 H448 0.950 . S
C458 C459 1.386 . S
C458 C460 1.391 . S
C459 C458 1.386 . S
C459 C463 1.393 . S
C460 H449 0.950 . S
C460 C458 1.391 . S
C460 C461 1.400 . S
C461 C455 1.491 1_554 S
C461 C460 1.400 . S
C461 C462 1.398 . S
C462 H450 0.950 . S
C462 C461 1.398 . S
C462 C463 1.391 . S
C463 H451 0.950 . S
C463 C459 1.393 . S
C463 C462 1.391 . S
H464 C472 0.950 . S
H465 C477 0.950 . S
H466 C474 0.950 . S
H467 C476 0.950 . S
H468 C478 0.950 . S
H469 C480 0.950 . S
H470 C482 0.950 . S
H471 C483 0.950 . S
C472 H464 0.950 . S
C472 C473 1.386 . S
C472 C474 1.391 . S
C473 C472 1.386 . S
C473 C477 1.393 . S
C474 H466 0.950 . S
C474 C472 1.391 . S
C474 C475 1.400 . S
C475 C474 1.400 . S
C475 C476 1.398 . S
C475 C481 1.491 . S
C476 H467 0.950 . S
C476 C475 1.398 . S
C476 C477 1.391 . S
C477 H465 0.950 . S
C477 C473 1.393 . S
C477 C476 1.391 . S
C478 H468 0.950 . S
C478 C479 1.386 . S
C478 C480 1.391 . S
C479 C478 1.386 . S
C479 C483 1.393 . S
C480 H469 0.950 . S
C480 C478 1.391 . S
C480 C481 1.400 . S
C481 C475 1.491 . S
C481 C480 1.400 . S
C481 C482 1.398 . S
C482 H470 0.950 . S
C482 C481 1.398 . S
C482 C483 1.391 . S
C483 H471 0.950 . S
C483 C479 1.393 . S
C483 C482 1.391 . S
H484 C492 0.950 . S
H485 C497 0.950 . S
H486 C494 0.950 . S
H487 C496 0.950 . S
H488 C498 0.950 . S
H489 C500 0.950 . S
H490 C502 0.950 . S
H491 C503 0.950 . S
C492 H484 0.950 . S
C492 C493 1.386 . S
C492 C494 1.391 . S
C493 C492 1.386 . S
C493 C497 1.393 . S
C494 H486 0.950 . S
C494 C492 1.391 . S
C494 C495 1.400 . S
C495 C494 1.400 . S
C495 C496 1.398 . S
C495 C501 1.491 . S
C496 H487 0.950 . S
C496 C495 1.398 . S
C496 C497 1.391 . S
C497 H485 0.950 . S
C497 C493 1.393 . S
C497 C496 1.391 . S
C498 H488 0.950 . S
C498 C499 1.386 . S
C498 C500 1.391 . S
C499 C498 1.386 . S
C499 C503 1.393 . S
C500 H489 0.950 . S
C500 C498 1.391 . S
C500 C501 1.400 . S
C501 C495 1.491 . S
C501 C500 1.400 . S
C501 C502 1.398 . S
C502 H490 0.950 . S
C502 C501 1.398 . S
C502 C503 1.391 . S
C503 H491 0.950 . S
C503 C499 1.393 . S
C503 C502 1.391 . S
H504 C512 0.950 . S
H505 C517 0.950 . S
H506 C514 0.950 . S
H507 C516 0.950 . S
H508 C518 0.950 . S
H509 C520 0.950 . S
H510 C522 0.950 . S
H511 C523 0.950 . S
C512 H504 0.950 . S
C512 C513 1.386 . S
C512 C514 1.391 . S
C513 C512 1.386 . S
C513 C517 1.393 . S
C514 H506 0.950 . S
C514 C512 1.391 . S
C514 C515 1.400 . S
C515 C514 1.400 . S
C515 C516 1.398 . S
C515 C521 1.491 . S
C516 H507 0.950 . S
C516 C515 1.398 . S
C516 C517 1.391 . S
C517 H505 0.950 . S
C517 C513 1.393 . S
C517 C516 1.391 . S
C518 H508 0.950 . S
C518 C519 1.386 . S
C518 C520 1.391 1_545 S
C519 C518 1.386 . S
C519 C523 1.393 1_545 S
C520 H509 0.950 . S
C520 C518 1.391 1_565 S
C520 C521 1.400 . S
C521 C515 1.491 . S
C521 C520 1.400 . S
C521 C522 1.398 . S
C522 H510 0.950 . S
C522 C521 1.398 . S
C522 C523 1.391 . S
C523 H511 0.950 . S
C523 C519 1.393 1_565 S
C523 C522 1.391 . S
H524 C532 0.950 . S
H525 C537 0.950 . S
H526 C534 0.950 . S
H527 C536 0.950 . S
H528 C538 0.950 . S
H529 C540 0.950 . S
H530 C542 0.950 . S
H531 C543 0.950 . S
C532 H524 0.950 . S
C532 C533 1.386 . S
C532 C534 1.391 . S
C533 C532 1.386 . S
C533 C537 1.393 . S
C534 H526 0.950 . S
C534 C532 1.391 . S
C534 C535 1.400 . S
C535 C534 1.400 . S
C535 C536 1.398 . S
C535 C541 1.491 . S
C536 H527 0.950 . S
C536 C535 1.398 . S
C536 C537 1.391 . S
C537 H525 0.950 . S
C537 C533 1.393 . S
C537 C536 1.391 . S
C538 H528 0.950 . S
C538 C539 1.386 . S
C538 C540 1.391 . S
C539 C538 1.386 . S
C539 C543 1.393 . S
C540 H529 0.950 . S
C540 C538 1.391 . S
C540 C541 1.400 . S
C541 C535 1.491 . S
C541 C540 1.400 . S
C541 C542 1.398 . S
C542 H530 0.950 . S
C542 C541 1.398 . S
C542 C543 1.391 . S
C543 H531 0.950 . S
C543 C539 1.393 . S
C543 C542 1.391 . S
H544 C552 0.950 1_565 S
H545 C557 0.950 . S
H546 C554 0.950 . S
H547 C556 0.950 . S
H548 C558 0.950 . S
H549 C560 0.950 . S
H550 C562 0.950 . S
H551 C563 0.950 . S
C552 H544 0.950 1_545 S
C552 C553 1.386 1_545 S
C552 C554 1.391 . S
C553 C552 1.386 1_565 S
C553 C557 1.393 1_565 S
C554 H546 0.950 . S
C554 C552 1.391 . S
C554 C555 1.400 . S
C555 C554 1.400 . S
C555 C556 1.398 . S
C555 C561 1.491 . S
C556 H547 0.950 . S
C556 C555 1.398 . S
C556 C557 1.391 . S
C557 H545 0.950 . S
C557 C553 1.393 1_545 S
C557 C556 1.391 . S
C558 H548 0.950 . S
C558 C559 1.386 . S
C558 C560 1.391 . S
C559 C558 1.386 . S
C559 C563 1.393 . S
C560 H549 0.950 . S
C560 C558 1.391 . S
C560 C561 1.400 . S
C561 C555 1.491 . S
C561 C560 1.400 . S
C561 C562 1.398 . S
C562 H550 0.950 . S
C562 C561 1.398 . S
C562 C563 1.391 . S
C563 H551 0.950 . S
C563 C559 1.393 . S
C563 C562 1.391 . S
H564 C572 0.950 . S
H565 C577 0.950 . S
H566 C574 0.950 . S
H567 C576 0.950 . S
H568 C578 0.950 . S
H569 C580 0.950 . S
H570 C582 0.950 . S
H571 C583 0.950 . S
C572 H564 0.950 . S
C572 C573 1.386 . S
C572 C574 1.391 . S
C573 C572 1.386 . S
C573 C577 1.393 . S
C574 H566 0.950 . S
C574 C572 1.391 . S
C574 C575 1.400 . S
C575 C574 1.400 . S
C575 C576 1.398 . S
C575 C581 1.491 . S
C576 H567 0.950 . S
C576 C575 1.398 . S
C576 C577 1.391 . S
C577 H565 0.950 . S
C577 C573 1.393 . S
C577 C576 1.391 . S
C578 H568 0.950 . S
C578 C579 1.386 . S
C578 C580 1.391 . S
C579 C578 1.386 . S
C579 C583 1.393 . S
C580 H569 0.950 . S
C580 C578 1.391 . S
C580 C581 1.400 . S
C581 C575 1.491 . S
C581 C580 1.400 . S
C581 C582 1.398 . S
C582 H570 0.950 . S
C582 C581 1.398 . S
C582 C583 1.391 . S
C583 H571 0.950 . S
C583 C579 1.393 . S
C583 C582 1.391 . S
H584 C592 0.950 . S
H585 C597 0.950 . S
H586 C594 0.950 . S
H587 C596 0.950 . S
H588 C598 0.950 . S
H589 C600 0.950 . S
H590 C602 0.950 . S
H591 C603 0.950 . S
C592 H584 0.950 . S
C592 C593 1.386 . S
C592 C594 1.391 . S
C593 C592 1.386 . S
C593 C597 1.393 . S
C594 H586 0.950 . S
C594 C592 1.391 . S
C594 C595 1.400 . S
C595 C594 1.400 . S
C595 C596 1.398 . S
C595 C601 1.491 . S
C596 H587 0.950 . S
C596 C595 1.398 . S
C596 C597 1.391 . S
C597 H585 0.950 . S
C597 C593 1.393 . S
C597 C596 1.391 . S
C598 H588 0.950 . S
C598 C599 1.386 . S
C598 C600 1.391 . S
C599 C598 1.386 . S
C599 C603 1.393 . S
C600 H589 0.950 . S
C600 C598 1.391 . S
C600 C601 1.400 . S
C601 C595 1.491 . S
C601 C600 1.400 . S
C601 C602 1.398 . S
C602 H590 0.950 . S
C602 C601 1.398 . S
C602 C603 1.391 . S
C603 H591 0.950 . S
C603 C599 1.393 . S
C603 C602 1.391 . S
H604 C612 0.950 . S
H605 C617 0.950 . S
H606 C614 0.950 . S
H607 C616 0.950 . S
H608 C618 0.950 1_455 S
H609 C620 0.950 . S
H610 C622 0.950 . S
H611 C623 0.950 . S
C612 H604 0.950 . S
C612 C613 1.386 . S
C612 C614 1.391 . S
C613 C612 1.386 . S
C613 C617 1.393 . S
C614 H606 0.950 . S
C614 C612 1.391 . S
C614 C615 1.400 . S
C615 C614 1.400 . S
C615 C616 1.398 . S
C615 C621 1.491 . S
C616 H607 0.950 . S
C616 C615 1.398 . S
C616 C617 1.391 . S
C617 H605 0.950 . S
C617 C613 1.393 . S
C617 C616 1.391 . S
C618 H608 0.950 1_655 S
C618 C619 1.386 1_655 S
C618 C620 1.391 . S
C619 C618 1.386 1_455 S
C619 C623 1.393 1_455 S
C620 H609 0.950 . S
C620 C618 1.391 . S
C620 C621 1.400 . S
C621 C615 1.491 . S
C621 C620 1.400 . S
C621 C622 1.398 . S
C622 H610 0.950 . S
C622 C621 1.398 . S
C622 C623 1.391 . S
C623 H611 0.950 . S
C623 C619 1.393 1_655 S
C623 C622 1.391 . S
H624 C632 0.950 . S
H625 C637 0.950 . S
H626 C634 0.950 . S
H627 C636 0.950 . S
H628 C638 0.950 . S
H629 C640 0.950 . S
H630 C642 0.950 . S
H631 C643 0.950 . S
C632 H624 0.950 . S
C632 C633 1.386 . S
C632 C634 1.391 . S
C633 C632 1.386 . S
C633 C637 1.393 . S
C634 H626 0.950 . S
C634 C632 1.391 . S
C634 C635 1.400 . S
C635 C634 1.400 . S
C635 C636 1.398 . S
C635 C641 1.491 . S
C636 H627 0.950 . S
C636 C635 1.398 . S
C636 C637 1.391 . S
C637 H625 0.950 . S
C637 C633 1.393 . S
C637 C636 1.391 . S
C638 H628 0.950 . S
C638 C639 1.386 . S
C638 C640 1.391 . S
C639 C638 1.386 . S
C639 C643 1.393 . S
C640 H629 0.950 . S
C640 C638 1.391 . S
C640 C641 1.400 . S
C641 C635 1.491 . S
C641 C640 1.400 . S
C641 C642 1.398 . S
C642 H630 0.950 . S
C642 C641 1.398 . S
C642 C643 1.391 . S
C643 H631 0.950 . S
C643 C639 1.393 . S
C643 C642 1.391 . S
H644 C652 0.950 . S
H645 C657 0.950 . S
H646 C654 0.950 . S
H647 C656 0.950 . S
H648 C658 0.950 . S
H649 C660 0.950 . S
H650 C662 0.950 . S
H651 C663 0.950 . S
C652 H644 0.950 . S
C652 C653 1.386 . S
C652 C654 1.391 . S
C653 C652 1.386 . S
C653 C657 1.393 . S
C654 H646 0.950 . S
C654 C652 1.391 . S
C654 C655 1.400 . S
C655 C654 1.400 . S
C655 C656 1.398 . S
C655 C661 1.491 . S
C656 H647 0.950 . S
C656 C655 1.398 . S
C656 C657 1.391 . S
C657 H645 0.950 . S
C657 C653 1.393 . S
C657 C656 1.391 . S
C658 H648 0.950 . S
C658 C659 1.386 1_455 S
C658 C660 1.391 . S
C659 C658 1.386 1_655 S
C659 C663 1.393 . S
C660 H649 0.950 . S
C660 C658 1.391 . S
C660 C661 1.400 . S
C661 C655 1.491 . S
C661 C660 1.400 . S
C661 C662 1.398 . S
C662 H650 0.950 . S
C662 C661 1.398 . S
C662 C663 1.391 1_455 S
C663 H651 0.950 . S
C663 C659 1.393 . S
C663 C662 1.391 1_655 S
C273 N2 0.362 . S
C279 N167 0.297 . S
C293 N200 0.298 . S
C299 N35 0.366 . S
C313 N233 0.304 . S
C319 N68 0.342 . S
C333 N134 0.300 . S
C339 N101 0.371 . S
C353 N112 1.231 . S
C359 C21 1.221 . S
C373 C54 1.238 . S
C379 N13 1.247 . S
C393 N46 1.224 . S
C399 C87 1.208 . S
C413 C120 1.239 . S
C419 N79 1.264 . S
C433 N178 1.237 . S
C439 C153 1.228 . S
C453 C186 1.205 . S
C459 N211 1.234 . S
C473 C219 1.207 . S
C479 N244 1.237 . S
C493 C252 1.233 . S
C499 N145 1.242 . S
C513 C205 1.795 . S
C519 C18 1.849 . S
C533 C238 1.796 . S
C539 C51 1.849 . S
C553 C84 1.848 . S
C559 C139 1.776 . S
C573 C117 1.845 . S
C579 C172 1.782 . S
C593 C150 1.845 . S
C599 C73 1.787 . S
C613 C106 1.794 . S
C619 C183 1.847 . S
C633 C216 1.847 . S
C639 C7 1.775 . S
C653 C40 1.775 . S
C659 C249 1.847 . S
