# Generated by pormake.
# Topology wjd, (6)-cn, num edge types: 1
# Building blocks:
#     Node 0, Type 0, BuildingBlock: PAMTUU_clean_sbu_0, # of connection points: 6
#     Node 1, Type 0, BuildingBlock: PAMTUU_clean_sbu_0, # of connection points: 6
#     Node 2, Type 0, BuildingBlock: PAMTUU_clean_sbu_0, # of connection points: 6
#     Node 3, Type 0, BuildingBlock: PAMTUU_clean_sbu_0, # of connection points: 6
#     Node 4, Type 0, BuildingBlock: PAMTUU_clean_sbu_0, # of connection points: 6
#     Node 5, Type 0, BuildingBlock: PAMTUU_clean_sbu_0, # of connection points: 6
#     Node 6, Type 0, BuildingBlock: PAMTUU_clean_sbu_0, # of connection points: 6
#     Node 7, Type 0, BuildingBlock: PAMTUU_clean_sbu_0, # of connection points: 6
#     Node 8, Type 0, BuildingBlock: PAMTUU_clean_sbu_0, # of connection points: 6
#     Node 9, Type 0, BuildingBlock: PAMTUU_clean_sbu_0, # of connection points: 6
#     Node 10, Type 0, BuildingBlock: PAMTUU_clean_sbu_0, # of connection points: 6
#     Node 11, Type 0, BuildingBlock: PAMTUU_clean_sbu_0, # of connection points: 6
#     Edge 12, Type (0, 0), BuildingBlock: AJUNOK_clean_linker_0, # of connection points: 2
#     Edge 13, Type (0, 0), BuildingBlock: AJUNOK_clean_linker_0, # of connection points: 2
#     Edge 14, Type (0, 0), BuildingBlock: AJUNOK_clean_linker_0, # of connection points: 2
#     Edge 15, Type (0, 0), BuildingBlock: AJUNOK_clean_linker_0, # of connection points: 2
#     Edge 16, Type (0, 0), BuildingBlock: AJUNOK_clean_linker_0, # of connection points: 2
#     Edge 17, Type (0, 0), BuildingBlock: AJUNOK_clean_linker_0, # of connection points: 2
#     Edge 18, Type (0, 0), BuildingBlock: AJUNOK_clean_linker_0, # of connection points: 2
#     Edge 19, Type (0, 0), BuildingBlock: AJUNOK_clean_linker_0, # of connection points: 2
#     Edge 20, Type (0, 0), BuildingBlock: AJUNOK_clean_linker_0, # of connection points: 2
#     Edge 21, Type (0, 0), BuildingBlock: AJUNOK_clean_linker_0, # of connection points: 2
#     Edge 22, Type (0, 0), BuildingBlock: AJUNOK_clean_linker_0, # of connection points: 2
#     Edge 23, Type (0, 0), BuildingBlock: AJUNOK_clean_linker_0, # of connection points: 2
#     Edge 24, Type (0, 0), BuildingBlock: AJUNOK_clean_linker_0, # of connection points: 2
#     Edge 25, Type (0, 0), BuildingBlock: AJUNOK_clean_linker_0, # of connection points: 2
#     Edge 26, Type (0, 0), BuildingBlock: AJUNOK_clean_linker_0, # of connection points: 2
#     Edge 27, Type (0, 0), BuildingBlock: AJUNOK_clean_linker_0, # of connection points: 2
#     Edge 28, Type (0, 0), BuildingBlock: AJUNOK_clean_linker_0, # of connection points: 2
#     Edge 29, Type (0, 0), BuildingBlock: AJUNOK_clean_linker_0, # of connection points: 2
#     Edge 30, Type (0, 0), BuildingBlock: AJUNOK_clean_linker_0, # of connection points: 2
#     Edge 31, Type (0, 0), BuildingBlock: AJUNOK_clean_linker_0, # of connection points: 2
#     Edge 32, Type (0, 0), BuildingBlock: AJUNOK_clean_linker_0, # of connection points: 2
#     Edge 33, Type (0, 0), BuildingBlock: AJUNOK_clean_linker_0, # of connection points: 2
#     Edge 34, Type (0, 0), BuildingBlock: AJUNOK_clean_linker_0, # of connection points: 2
#     Edge 35, Type (0, 0), BuildingBlock: AJUNOK_clean_linker_0, # of connection points: 2
#     Edge 36, Type (0, 0), BuildingBlock: AJUNOK_clean_linker_0, # of connection points: 2
#     Edge 37, Type (0, 0), BuildingBlock: AJUNOK_clean_linker_0, # of connection points: 2
#     Edge 38, Type (0, 0), BuildingBlock: AJUNOK_clean_linker_0, # of connection points: 2
#     Edge 39, Type (0, 0), BuildingBlock: AJUNOK_clean_linker_0, # of connection points: 2
#     Edge 40, Type (0, 0), BuildingBlock: AJUNOK_clean_linker_0, # of connection points: 2
#     Edge 41, Type (0, 0), BuildingBlock: AJUNOK_clean_linker_0, # of connection points: 2
#     Edge 42, Type (0, 0), BuildingBlock: AJUNOK_clean_linker_0, # of connection points: 2
#     Edge 43, Type (0, 0), BuildingBlock: AJUNOK_clean_linker_0, # of connection points: 2
#     Edge 44, Type (0, 0), BuildingBlock: AJUNOK_clean_linker_0, # of connection points: 2
#     Edge 45, Type (0, 0), BuildingBlock: AJUNOK_clean_linker_0, # of connection points: 2
#     Edge 46, Type (0, 0), BuildingBlock: AJUNOK_clean_linker_0, # of connection points: 2
#     Edge 47, Type (0, 0), BuildingBlock: AJUNOK_clean_linker_0, # of connection points: 2
# Relax obj value: 0.095
# Max RMSD: 0.231
# Mean RMSD: 0.231
data_MOF--net-wjd--node1-PAMTUU_clean_sbu_0--edge1-AJUNOK_clean_linker_0
_symmetry_space_group_name_H-M    P1
_symmetry_Int_Tables_number       1
_symmetry_cell_setting            triclinic
loop_
_symmetry_equiv_pos_as_xyz
'x, y, z'
_cell_length_a     31.468989
_cell_length_b     31.405623
_cell_length_c     38.844573
_cell_angle_alpha  90.312508
_cell_angle_beta   89.698535
_cell_angle_gamma 120.06754
loop_
_atom_site_label
_atom_site_type_symbol
_atom_site_fract_x
_atom_site_fract_y
_atom_site_fract_z
_atom_type_partial_charge
Tb0 Tb 0.34532 0.10262 0.14168 0.0
Tb1 Tb 0.40397 0.21174 0.10562 0.0
C2 C 0.41313 0.19421 0.18497 0.0
C3 C 0.23753 0.98535 0.16431 0.0
C4 C 0.13547 0.9222 0.15644 0.0
C5 C 0.16597 0.90327 0.16565 0.0
C6 C 0.21661 0.93466 0.1697 0.0
C7 C 0.20715 1.00433 0.1551 0.0
C8 C 0.15653 0.97309 0.15141 0.0
C9 C 0.29111 1.01816 0.16656 0.0
O10 O 0.30557 0.142 0.15257 0.0
O11 O 0.32638 0.18683 0.10336 0.0
O12 O 0.38364 0.15548 0.06485 0.0
O13 O 0.31504 0.09539 0.09093 0.0
O14 O 0.41 0.28111 0.10084 0.0
O15 O 0.45679 0.26286 0.07124 0.0
O16 O 0.46121 0.19647 0.11952 0.0
O17 O 0.41592 0.11173 0.12301 0.0
O18 O 0.40054 0.14848 0.17831 0.0
O19 O 0.4079 0.22214 0.16205 0.0
C20 C 0.29799 0.16896 0.1304 0.0
O21 O 0.31499 1.02599 0.13758 0.0
O22 O 0.30561 0.05891 0.18379 0.0
C23 C 0.34286 0.11225 0.06365 0.0
C24 C 0.48954 0.34637 0.08771 0.0
C25 C 0.56905 0.44167 0.10216 0.0
C26 C 0.54799 0.42966 0.06914 0.0
C27 C 0.50857 0.38256 0.06205 0.0
C28 C 0.51051 0.35795 0.12068 0.0
C29 C 0.54991 0.40513 0.12782 0.0
C30 C 0.44719 0.29738 0.07975 0.0
C31 C 0.4583 0.15328 0.11928 0.0
H32 H 0.1506 0.86413 0.16957 0.0
H33 H 0.23949 0.91929 0.17654 0.0
H34 H 0.22271 0.04326 0.15019 0.0
H35 H 0.13406 0.98854 0.14365 0.0
H36 H 0.56261 0.45635 0.04852 0.0
H37 H 0.493 0.37432 0.03642 0.0
H38 H 0.49635 0.33057 0.14088 0.0
H39 H 0.56536 0.41311 0.15348 0.0
Tb40 Tb 0.86669 0.67484 0.40807 0.0
Tb41 Tb 0.81983 0.73783 0.37439 0.0
C42 C 0.83272 0.73726 0.4516 0.0
C43 C 0.91938 0.59096 0.42064 0.0
C44 C 0.94428 0.51861 0.40224 0.0
C45 C 0.9752 0.55854 0.42355 0.0
C46 C 0.96289 0.59422 0.43259 0.0
C47 C 0.88883 0.55189 0.3986 0.0
C48 C 0.90112 0.51596 0.38956 0.0
C49 C 0.9073 0.62888 0.43177 0.0
O50 O 0.79465 0.62012 0.3905 0.0
O51 O 0.75746 0.66721 0.39217 0.0
O52 O 0.81124 0.6853 0.3353 0.0
O53 O 0.87548 0.6747 0.35179 0.0
O54 O 0.77397 0.76807 0.38074 0.0
O55 O 0.81781 0.78216 0.33481 0.0
O56 O 0.89849 0.77605 0.36283 0.0
O57 O 0.92208 0.75209 0.41074 0.0
O58 O 0.83059 0.69426 0.44946 0.0
O59 O 0.84675 0.76636 0.42505 0.0
C60 C 0.75497 0.62384 0.3923 0.0
O61 O 0.86124 0.61548 0.43674 0.0
O62 O 0.93068 0.67094 0.41599 0.0
C63 C 0.84411 0.67244 0.32843 0.0
C64 C 0.8112 0.84804 0.35783 0.0
C65 C 0.84971 0.95012 0.36773 0.0
C66 C 0.80974 0.92305 0.34546 0.0
C67 C 0.79071 0.87248 0.34054 0.0
C68 C 0.8513 0.87489 0.37988 0.0
C69 C 0.87028 0.92542 0.38488 0.0
C70 C 0.79084 0.79471 0.35299 0.0
C71 C 0.93301 0.78145 0.38426 0.0
H72 H 1.00873 0.56182 0.43368 0.0
H73 H 0.98722 0.6242 0.44938 0.0
H74 H 0.85516 0.54872 0.38886 0.0
H75 H 0.876 0.48524 0.37364 0.0
H76 H 0.79323 0.94107 0.33178 0.0
H77 H 0.7599 0.85244 0.32333 0.0
H78 H 0.86765 0.85664 0.39347 0.0
H79 H 0.90039 0.94491 0.4027 0.0
Tb80 Tb 0.98483 0.27542 0.14437 0.0
Tb81 Tb 0.87829 0.22911 0.10552 0.0
C82 C 0.89107 0.24752 0.18625 0.0
C83 C 0.09997 0.28089 0.16818 0.0
C84 C 0.16226 0.24089 0.15902 0.0
C85 C 0.18197 0.29158 0.16506 0.0
C86 C 0.15109 0.31135 0.16971 0.0
C87 C 0.08014 0.23018 0.16228 0.0
C88 C 0.11098 0.21036 0.1579 0.0
C89 C 0.06767 0.30241 0.17071 0.0
O90 O 0.94403 0.19568 0.15202 0.0
O91 O 0.90143 0.1749 0.10174 0.0
O92 O 0.93669 0.26647 0.06641 0.0
O93 O 0.9938 0.25392 0.09317 0.0
O94 O 0.80901 0.16691 0.09738 0.0
O95 O 0.8293 0.23524 0.07172 0.0
O96 O 0.89375 0.3002 0.12434 0.0
O97 O 0.97801 0.3385 0.12678 0.0
O98 O 0.93702 0.28164 0.18162 0.0
O99 O 0.86495 0.21694 0.16132 0.0
C100 C 0.91853 0.16281 0.1283 0.0
O101 O 0.06172 0.32065 0.14225 0.0
O102 O 1.02611 0.27609 0.18688 0.0
C103 C 0.97838 0.26599 0.06582 0.0
C104 C 0.74472 0.1833 0.08532 0.0
C105 C 0.64855 0.16639 0.09737 0.0
C106 C 0.66799 0.17399 0.06381 0.0
C107 C 0.71542 0.18218 0.05787 0.0
C108 C 0.7256 0.17584 0.11899 0.0
C109 C 0.67789 0.16736 0.12494 0.0
C110 C 0.79412 0.19048 0.0779 0.0
C111 C 0.93698 0.34037 0.12472 0.0
H112 H 0.22137 0.31596 0.166 0.0
H113 H 0.16716 0.35055 0.17395 0.0
H114 H 1.04079 0.20598 0.16046 0.0
H115 H 0.09477 0.17137 0.15264 0.0
H116 H 0.64635 0.17349 0.04205 0.0
H117 H 0.72923 0.18754 0.03171 0.0
H118 H 0.74752 0.17663 0.14066 0.0
H119 H 0.66436 0.16261 0.15114 0.0
Tb120 Tb 0.41265 0.20358 0.41024 0.0
Tb121 Tb 0.35312 0.09516 0.37286 0.0
C122 C 0.35274 0.10368 0.45136 0.0
C123 C 0.49882 0.338 0.42878 0.0
C124 C 0.57667 0.43376 0.41322 0.0
C125 C 0.55491 0.4227 0.44613 0.0
C126 C 0.51633 0.37536 0.45375 0.0
C127 C 0.52036 0.34866 0.3959 0.0
C128 C 0.55895 0.39606 0.38822 0.0
C129 C 0.45748 0.28867 0.43733 0.0
O130 O 0.46888 0.18947 0.39092 0.0
O131 O 0.4247 0.10475 0.38907 0.0
O132 O 0.40479 0.14272 0.33464 0.0
O133 O 0.41254 0.21551 0.35432 0.0
O134 O 0.3244 1.01868 0.37483 0.0
O135 O 0.31009 0.05204 0.33139 0.0
O136 O 0.31247 0.13404 0.36518 0.0
O137 O 0.33513 0.17871 0.41469 0.0
O138 O 0.39379 0.14667 0.44998 0.0
O139 O 0.3244 0.08706 0.42441 0.0
C140 C 0.46699 0.14677 0.39004 0.0
O141 O 0.41854 0.27254 0.41815 0.0
O142 O 0.46809 0.25424 0.44333 0.0
C143 C 0.41634 0.18855 0.32961 0.0
C144 C 0.24429 0.978 0.35196 0.0
C145 C 0.14173 0.917 0.36009 0.0
C146 C 0.16635 0.90989 0.33224 0.0
C147 C 0.21728 0.9402 0.32822 0.0
C148 C 0.21965 0.98541 0.37955 0.0
C149 C 0.16899 0.95504 0.3837 0.0
C150 C 0.29761 1.01107 0.34744 0.0
C151 C 0.30547 0.1605 0.3884 0.0
H152 H 0.56843 0.45032 0.46628 0.0
H153 H 0.50027 0.36786 0.47931 0.0
H154 H 0.50733 0.32035 0.37621 0.0
H155 H 0.57494 0.40327 0.36266 0.0
H156 H 0.14637 0.88043 0.31391 0.0
H157 H 0.23554 0.93414 0.30661 0.0
H158 H 0.23958 1.01484 0.39788 0.0
H159 H 0.151 0.96153 0.40529 0.0
Tb160 Tb 0.81505 0.74301 0.14251 0.0
Tb161 Tb 0.85987 0.6811 0.10327 0.0
C162 C 0.84071 0.67535 0.18387 0.0
C163 C 0.80935 0.85321 0.16301 0.0
C164 C 0.84948 0.95506 0.1522 0.0
C165 C 0.81132 0.92992 0.17621 0.0
C166 C 0.79123 0.87926 0.18145 0.0
C167 C 0.84836 0.87853 0.13976 0.0
C168 C 0.86813 0.92893 0.13431 0.0
C169 C 0.78782 0.79975 0.16756 0.0
O170 O 0.89403 0.78069 0.1521 0.0
O171 O 0.91672 0.75784 0.10266 0.0
O172 O 0.82387 0.70405 0.06468 0.0
O173 O 0.84151 0.77454 0.09256 0.0
O174 O 0.85213 0.62388 0.07051 0.0
O175 O 0.92204 0.67485 0.09283 0.0
O176 O 0.78846 0.62614 0.12192 0.0
O177 O 0.75196 0.67383 0.12369 0.0
O178 O 0.80801 0.68905 0.17948 0.0
O179 O 0.87065 0.67798 0.15898 0.0
C180 C 0.92799 0.78649 0.12975 0.0
O181 O 0.76891 0.77331 0.13986 0.0
O182 O 0.81514 0.78629 0.18404 0.0
C183 C 0.82694 0.74751 0.06487 0.0
C184 C 0.90568 0.59384 0.08439 0.0
C185 C 0.9244 0.51754 0.10231 0.0
C186 C 0.93956 0.54116 0.07024 0.0
C187 C 0.93037 0.57901 0.06143 0.0
C188 C 0.89063 0.57061 0.1165 0.0
C189 C 0.89979 0.53273 0.12534 0.0
C190 C 0.89749 0.63462 0.07496 0.0
C191 C 0.74902 0.63034 0.12192 0.0
H192 H 0.79635 0.94927 0.19034 0.0
H193 H 0.76135 0.8604 0.19964 0.0
H194 H 0.86337 0.85922 0.12564 0.0
H195 H 0.89807 0.94752 0.11613 0.0
H196 H 0.9575 0.52962 0.05159 0.0
H197 H 0.94237 0.59658 0.03655 0.0
H198 H 0.87183 0.58179 0.1347 0.0
H199 H 0.88759 0.51523 0.15021 0.0
Tb200 Tb 0.8903 0.2383 0.41094 0.0
Tb201 Tb 0.99032 0.26524 0.36673 0.0
C202 C 0.99258 0.2713 0.44788 0.0
C203 C 0.75928 0.20277 0.43189 0.0
C204 C 0.66151 0.17506 0.41368 0.0
C205 C 0.67865 0.14165 0.40973 0.0
C206 C 0.72723 0.15545 0.41859 0.0
C207 C 0.74138 0.23533 0.43675 0.0
C208 C 0.6933 0.22176 0.42771 0.0
C209 C 0.81119 0.21967 0.44115 0.0
O210 O 0.94217 0.31612 0.415 0.0
O211 O 0.97702 0.32758 0.36179 0.0
O212 O 0.93102 0.23235 0.33025 0.0
O213 O 0.87538 0.24844 0.3572 0.0
O214 O 0.06571 0.311 0.35643 0.0
O215 O 1.02275 0.24378 0.32813 0.0
O216 O 0.96219 0.19304 0.39031 0.0
O217 O 0.88136 0.17061 0.38924 0.0
O218 O 0.94407 0.24358 0.44988 0.0
O219 O 1.01551 0.28817 0.41857 0.0
C220 C 0.96323 0.34428 0.38832 0.0
O221 O 0.84358 0.26283 0.42956 0.0
O222 O 0.82716 0.18853 0.43907 0.0
C223 C 0.89163 0.23631 0.32967 0.0
C224 C 0.10174 0.26245 0.34415 0.0
C225 C 0.16556 0.22652 0.35989 0.0
C226 C 0.1707 0.2516 0.32884 0.0
C227 C 0.13902 0.26944 0.32104 0.0
C228 C 0.09625 0.23713 0.37503 0.0
C229 C 0.12774 0.2192 0.38278 0.0
C230 C 0.06682 0.27899 0.3355 0.0
C231 C 0.91571 0.15865 0.38889 0.0
H232 H 0.65484 0.10535 0.39912 0.0
H233 H 0.73973 0.12931 0.41474 0.0
H234 H 0.76486 0.27173 0.44737 0.0
H235 H 0.68089 0.24797 0.43168 0.0
H236 H 0.19953 0.25778 0.31073 0.0
H237 H 0.14347 0.28845 0.29693 0.0
H238 H 0.0672 0.23077 0.393 0.0
H239 H 0.12209 0.19906 0.40651 0.0
Tb240 Tb 0.22518 0.38832 0.60734 0.0
Tb241 Tb 0.11524 0.33045 0.6429 0.0
C242 C 0.1268 0.32603 0.56502 0.0
C243 C 0.36073 0.47288 0.59143 0.0
C244 C 0.45607 0.55134 0.60732 0.0
C245 C 0.44267 0.53565 0.57309 0.0
C246 C 0.39551 0.4969 0.56526 0.0
C247 C 0.37406 0.48797 0.62572 0.0
C248 C 0.42128 0.52663 0.63359 0.0
C249 C 0.3116 0.43128 0.58251 0.0
O250 O 0.20905 0.44577 0.62007 0.0
O251 O 0.12436 0.40029 0.62307 0.0
O252 O 0.16068 0.38601 0.67976 0.0
O253 O 0.23404 0.39227 0.66377 0.0
O254 O 1.03944 0.3041 0.64015 0.0
O255 O 0.07033 0.28642 0.68349 0.0
O256 O 0.15493 0.29178 0.65501 0.0
O257 O 0.20013 0.31035 0.60593 0.0
O258 O 0.17 0.36683 0.56607 0.0
O259 O 0.10931 0.29887 0.59249 0.0
C260 C 0.1658 0.44248 0.61883 0.0
O261 O 0.27796 0.44192 0.57406 0.0
O262 O 0.29394 0.39312 0.60267 0.0
C263 C 0.20589 0.3975 0.68674 0.0
C264 C 0.99593 0.22218 0.66115 0.0
C265 C 0.93585 0.11951 0.65073 0.0
C266 C 0.94667 0.13937 0.68423 0.0
C267 C 0.97648 0.19022 0.68937 0.0
C268 C 0.98473 0.2023 0.62769 0.0
C269 C 0.95499 0.15165 0.62256 0.0
C270 C 1.03032 0.27542 0.6667 0.0
C271 C 0.18175 0.28294 0.63333 0.0
H272 H 0.46837 0.55404 0.55225 0.0
H273 H 0.38615 0.48572 0.53865 0.0
H274 H 0.34801 0.46976 0.64642 0.0
H275 H 0.43061 0.53715 0.66028 0.0
H276 H 0.93169 0.11566 0.70645 0.0
H277 H 0.98471 0.20457 0.7154 0.0
H278 H 0.99936 0.2258 0.60537 0.0
H279 H 0.94743 0.1375 0.59646 0.0
Tb280 Tb 0.28157 0.97139 0.8647 0.0
Tb281 Tb 0.25711 0.87317 0.91042 0.0
C282 C 0.25616 0.87136 0.82898 0.0
C283 C 0.27614 0.08162 0.83863 0.0
C284 C 0.24427 0.1495 0.85361 0.0
C285 C 0.29396 0.16601 0.84627 0.0
C286 C 0.3097 0.13239 0.83881 0.0
C287 C 0.22627 0.06517 0.84543 0.0
C288 C 0.2105 0.09879 0.85263 0.0
C289 C 0.29365 0.04632 0.83234 0.0
O290 O 0.20879 0.94198 0.88794 0.0
O291 O 0.1899 0.86204 0.88735 0.0
O292 O 0.26298 0.92857 0.94863 0.0
O293 O 0.30489 0.99899 0.91606 0.0
O294 O 0.27899 0.82385 0.92737 0.0
O295 O 0.20849 0.81411 0.94214 0.0
O296 O 0.3347 0.92545 0.91359 0.0
O297 O 0.34488 0.9596 0.86022 0.0
O298 O 0.2525 0.91108 0.82853 0.0
O299 O 0.26676 0.85538 0.85711 0.0
C300 C 0.17589 0.89485 0.88743 0.0
O301 O 0.32538 0.04726 0.85421 0.0
O302 O 0.26028 1.00136 0.82476 0.0
C303 C 0.28957 0.97714 0.94583 0.0
C304 C 0.21413 0.74206 0.93314 0.0
C305 C 0.18135 0.64217 0.91719 0.0
C306 C 0.18232 0.65728 0.95149 0.0
C307 C 0.19863 0.70676 0.95936 0.0
C308 C 0.21124 0.72678 0.89875 0.0
C309 C 0.19523 0.6774 0.89087 0.0
C310 C 0.2369 0.79489 0.94211 0.0
C311 C 0.36223 0.94676 0.88664 0.0
H312 H 0.32067 0.20498 0.84637 0.0
H313 H 0.34824 0.14602 0.83355 0.0
H314 H 0.19943 1.02627 0.8456 0.0
H315 H 0.17205 0.08507 0.85827 0.0
H316 H 0.17277 0.63133 0.9724 0.0
H317 H 0.20078 0.71776 0.98607 0.0
H318 H 0.22292 0.75332 0.87805 0.0
H319 H 0.19489 0.66692 0.86422 0.0
Tb320 Tb 0.69518 0.84086 0.60559 0.0
Tb321 Tb 0.76027 0.79686 0.64024 0.0
C322 C 0.75781 0.80666 0.56259 0.0
C323 C 0.60596 0.88656 0.59347 0.0
C324 C 0.53284 0.91053 0.6115 0.0
C325 C 0.52943 0.88484 0.58084 0.0
C326 C 0.56555 0.87315 0.57193 0.0
C327 C 0.60893 0.91109 0.62464 0.0
C328 C 0.57281 0.92303 0.63351 0.0
C329 C 0.64586 0.87763 0.58176 0.0
O330 O 0.64204 0.7698 0.62563 0.0
O331 O 0.68931 0.73283 0.62451 0.0
O332 O 0.70943 0.79057 0.67995 0.0
O333 O 0.6965 0.85274 0.66154 0.0
O334 O 0.79177 0.75188 0.635 0.0
O335 O 0.80509 0.79701 0.68021 0.0
O336 O 0.79869 0.87642 0.64902 0.0
O337 O 0.77162 0.89736 0.60128 0.0
O338 O 0.71463 0.80387 0.56489 0.0
O339 O 0.78733 0.82113 0.58889 0.0
C340 C 0.64594 0.73015 0.62526 0.0
O341 O 0.68823 0.90291 0.59689 0.0
O342 O 0.63471 0.83213 0.57649 0.0
C343 C 0.69531 0.82282 0.6857 0.0
C344 C 0.87147 0.79044 0.65838 0.0
C345 C 0.97353 0.82907 0.64928 0.0
C346 C 0.94576 0.78765 0.67026 0.0
C347 C 0.89523 0.76857 0.67477 0.0
C348 C 0.89897 0.83203 0.63765 0.0
C349 C 0.94951 0.8511 0.63307 0.0
C350 C 0.81812 0.76979 0.66277 0.0
C351 C 0.80251 0.90972 0.62693 0.0
H352 H 0.49885 0.87407 0.56347 0.0
H353 H 0.56234 0.85433 0.54778 0.0
H354 H 0.6397 0.92204 0.64184 0.0
H355 H 0.57699 0.94333 0.65707 0.0
H356 H 0.9632 0.76999 0.68323 0.0
H357 H 0.87468 0.73658 0.69095 0.0
H358 H 0.88123 0.84945 0.62476 0.0
H359 H 0.96954 0.8824 0.61623 0.0
Tb360 Tb 0.11205 0.3356 0.87667 0.0
Tb361 Tb 0.22025 0.39651 0.91272 0.0
C362 C 0.2036 0.40014 0.83247 0.0
C363 C 0.99477 0.22661 0.85512 0.0
C364 C 0.9329 0.12475 0.86591 0.0
C365 C 0.91348 0.15649 0.86528 0.0
C366 C 0.94417 0.20699 0.85991 0.0
C367 C 1.01413 0.19477 0.85513 0.0
C368 C 0.98336 0.14422 0.86019 0.0
C369 C 1.02743 0.28039 0.85271 0.0
O370 O 0.15145 0.29585 0.86619 0.0
O371 O 0.19804 0.31924 0.91469 0.0
O372 O 0.16318 0.37599 0.95298 0.0
O373 O 0.107 0.30502 0.92709 0.0
O374 O 0.28938 0.40284 0.91981 0.0
O375 O 0.27077 0.45216 0.94574 0.0
O376 O 0.20467 0.45215 0.89463 0.0
O377 O 0.12035 0.40596 0.89543 0.0
O378 O 0.15805 0.38848 0.8386 0.0
O379 O 0.23152 0.3973 0.85656 0.0
C380 C 0.18019 0.29022 0.88787 0.0
O381 O 1.03556 0.30452 0.88164 0.0
O382 O 0.06772 0.29544 0.83492 0.0
C383 C 0.12197 0.33322 0.95427 0.0
C384 C 0.35513 0.48382 0.92991 0.0
C385 C 0.45138 0.56208 0.91557 0.0
C386 C 0.44143 0.51319 0.91676 0.0
C387 C 0.39395 0.47461 0.92402 0.0
C388 C 0.36491 0.53264 0.92846 0.0
C389 C 0.41243 0.57124 0.92137 0.0
C390 C 0.30555 0.44232 0.93869 0.0
C391 C 0.16152 0.44903 0.89595 0.0
H392 H 0.87456 0.14223 0.86926 0.0
H393 H 0.92855 0.23087 0.86018 0.0
H394 H 1.05317 0.20905 0.85193 0.0
H395 H 0.99921 0.12054 0.8607 0.0
H396 H 0.4702 0.50462 0.91174 0.0
H397 H 0.38757 0.43738 0.92508 0.0
H398 H 0.33601 0.54119 0.93303 0.0
H399 H 0.41883 0.60848 0.92087 0.0
Tb400 Tb 0.26019 0.86747 0.60674 0.0
Tb401 Tb 0.28857 0.96834 0.65123 0.0
C402 C 0.29612 0.97111 0.57011 0.0
C403 C 0.21612 0.73506 0.58309 0.0
C404 C 0.18505 0.63445 0.59412 0.0
C405 C 0.18028 0.65108 0.56157 0.0
C406 C 0.19581 0.70085 0.55611 0.0
C407 C 0.21826 0.71816 0.61615 0.0
C408 C 0.20277 0.66829 0.62161 0.0
C409 C 0.23913 0.7883 0.57542 0.0
O410 O 0.33823 0.91805 0.60291 0.0
O411 O 0.35018 0.95414 0.65591 0.0
O412 O 0.25774 0.90945 0.68812 0.0
O413 O 0.26824 0.85033 0.66035 0.0
O414 O 0.33414 0.044 0.66136 0.0
O415 O 0.26785 1.00064 0.69041 0.0
O416 O 0.21633 0.94057 0.62801 0.0
O417 O 0.19327 0.8594 0.62901 0.0
O418 O 0.26799 0.92257 0.56795 0.0
O419 O 0.31229 0.99387 0.59958 0.0
C420 C 0.3664 0.93964 0.62949 0.0
O421 O 0.28102 0.81688 0.59041 0.0
O422 O 0.21098 0.80781 0.57545 0.0
C423 C 0.25915 0.86852 0.68823 0.0
C424 C 0.28616 0.08016 0.67565 0.0
C425 C 0.24888 0.14388 0.66309 0.0
C426 C 0.27554 0.14866 0.69328 0.0
C427 C 0.29383 0.1169 0.69956 0.0
C428 C 0.26005 0.07557 0.64534 0.0
C429 C 0.24165 0.10714 0.6391 0.0
C430 C 0.30281 0.04488 0.68304 0.0
C431 C 0.18174 0.89411 0.62946 0.0
H432 H 0.16591 0.62579 0.54001 0.0
H433 H 0.19361 0.71294 0.53045 0.0
H434 H 0.23368 0.74381 0.63744 0.0
H435 H 0.20693 0.65666 0.64696 0.0
H436 H 0.28266 0.17724 0.71191 0.0
H437 H 0.31372 0.12087 0.72315 0.0
H438 H 0.25342 0.04714 0.62667 0.0
H439 H 0.22116 0.10239 0.61569 0.0
Tb440 Tb 0.75639 0.80362 0.87716 0.0
Tb441 Tb 0.69053 0.84884 0.90966 0.0
C442 C 0.69172 0.82682 0.83044 0.0
C443 C 0.8666 0.79426 0.85933 0.0
C444 C 0.96765 0.82894 0.86895 0.0
C445 C 0.93987 0.79008 0.84589 0.0
C446 C 0.88977 0.77283 0.84122 0.0
C447 C 0.89434 0.83384 0.88175 0.0
C448 C 0.94449 0.8511 0.88647 0.0
C449 C 0.81362 0.77519 0.85484 0.0
O450 O 0.79543 0.88329 0.86861 0.0
O451 O 0.76705 0.90318 0.91632 0.0
O452 O 0.70889 0.81365 0.95178 0.0
O453 O 0.78161 0.82709 0.92884 0.0
O454 O 0.68597 0.91275 0.91706 0.0
O455 O 0.62969 0.84292 0.93692 0.0
O456 O 0.63754 0.7762 0.89166 0.0
O457 O 0.686 0.74054 0.89445 0.0
O458 O 0.70466 0.79424 0.83774 0.0
O459 O 0.69396 0.85888 0.85347 0.0
C460 C 0.7989 0.91619 0.8912 0.0
O461 O 0.78673 0.75777 0.88249 0.0
O462 O 0.80194 0.80329 0.83753 0.0
C463 C 0.75141 0.8151 0.95482 0.0
C464 C 0.60593 0.90127 0.91993 0.0
C465 C 0.53483 0.92668 0.90027 0.0
C466 C 0.52942 0.88079 0.8909 0.0
C467 C 0.56471 0.86822 0.90057 0.0
C468 C 0.61189 0.9474 0.92851 0.0
C469 C 0.57682 0.95996 0.91885 0.0
C470 C 0.64318 0.88907 0.93194 0.0
C471 C 0.64235 0.73715 0.89378 0.0
H472 H 0.95694 0.77299 0.83146 0.0
H473 H 0.86906 0.74259 0.82356 0.0
H474 H 0.87708 0.85106 0.89582 0.0
H475 H 0.96494 0.88108 0.90436 0.0
H476 H 0.49706 0.85392 0.87719 0.0
H477 H 0.55934 0.83246 0.89345 0.0
H478 H 0.64351 0.97362 0.94322 0.0
H479 H 0.58217 0.99557 0.92641 0.0
C480 C 0.23213 0.24259 0.12675 0.0
C481 C 0.19531 0.22063 0.152 0.0
C482 C 0.26404 0.2247 0.11948 0.0
C483 C 0.26102 0.18437 0.13746 0.0
H484 H 0.23617 0.27383 0.1123 0.0
H485 H 0.29196 0.24345 0.09996 0.0
S486 S 0.17064 0.11357 0.20611 0.0
N487 N 0.15711 0.15606 0.19489 0.0
N488 N 0.21749 0.12267 0.1816 0.0
C489 C 0.22411 0.16183 0.16272 0.0
C490 C 0.19115 0.17981 0.16985 0.0
C491 C 0.07064 0.86169 0.39778 0.0
C492 C 0.08806 0.8839 0.36551 0.0
C493 C 1.02048 0.82954 0.40367 0.0
C494 C 0.98541 0.81857 0.37765 0.0
H495 H 0.09616 0.86847 0.41854 0.0
H496 H 1.00925 0.81287 0.42886 0.0
S497 S 1.01195 0.86933 0.28891 0.0
N498 N 0.06636 0.89425 0.30747 0.0
N499 N 0.97195 0.83395 0.3184 0.0
C500 C 1.00227 0.84143 0.34538 0.0
C501 C 1.05357 0.87391 0.33933 0.0
C502 C 0.90335 0.0926 0.16672 0.0
C503 C 0.90435 0.11045 0.13334 0.0
C504 C 0.88564 0.04238 0.17264 0.0
C505 C 0.86914 1.00823 0.14535 0.0
H506 H 0.91504 0.11734 0.18863 0.0
H507 H 0.88484 1.03015 0.19879 0.0
S508 S 0.86586 1.03593 0.05301 0.0
N509 N 0.88841 0.0898 0.0725 0.0
N510 N 0.85568 0.99572 0.0837 0.0
C511 C 0.87104 1.02567 0.1118 0.0
C512 C 0.88848 0.07665 0.10578 0.0
C513 C 0.2424 0.16421 0.35113 0.0
C514 C 0.26719 0.17446 0.38288 0.0
C515 C 0.20949 0.18089 0.34398 0.0
C516 C 0.19965 0.20814 0.36837 0.0
H517 H 0.24918 0.14403 0.33123 0.0
H518 H 0.1916 0.17239 0.31911 0.0
S519 S 0.2539 0.24442 0.45562 0.0
N520 N 0.27848 0.21306 0.43926 0.0
N521 N 0.2171 0.24457 0.42556 0.0
C522 C 0.2234 0.21795 0.40041 0.0
C523 C 0.25701 0.2011 0.40771 0.0
C524 C 0.06717 0.84896 0.12718 0.0
C525 C 0.08225 0.88856 0.15022 0.0
C526 C 1.01733 0.81701 0.12023 0.0
C527 C 0.98042 0.82294 0.13638 0.0
H528 H 0.0942 0.84286 0.11414 0.0
H529 H 1.00776 0.78688 0.10243 0.0
S530 S 1.0008 0.92108 0.19903 0.0
N531 N 0.0566 0.93227 0.18921 0.0
N532 N 0.96275 0.87196 0.17645 0.0
C533 C 0.99505 0.86249 0.15955 0.0
C534 C 1.04596 0.89539 0.16633 0.0
C535 C 0.83489 1.01976 0.38098 0.0
C536 C 0.86833 1.00351 0.37395 0.0
C537 C 0.85082 0.06967 0.38644 0.0
C538 C 0.901 0.10577 0.38508 0.0
H539 H 0.79589 0.99358 0.38243 0.0
H540 H 0.82324 0.0799 0.39155 0.0
S541 S 1.00373 0.08262 0.3669 0.0
N542 N 0.95409 1.02753 0.36548 0.0
N543 N 0.98422 0.1214 0.37597 0.0
C544 C 0.93503 0.09001 0.37837 0.0
C545 C 0.91869 0.03896 0.37278 0.0
C546 C 0.23764 0.20045 0.62365 0.0
C547 C 0.22964 0.17776 0.65602 0.0
C548 C 0.22114 0.23347 0.61643 0.0
C549 C 0.19559 0.24507 0.6412 0.0
H550 H 0.25777 0.19342 0.60387 0.0
H551 H 0.22904 0.25041 0.59124 0.0
S552 S 0.1629 0.19348 0.72959 0.0
N553 N 0.19266 0.16751 0.71269 0.0
N554 N 0.16193 0.22978 0.69938 0.0
C555 C 0.18645 0.22182 0.67354 0.0
C556 C 0.20348 0.18827 0.68091 0.0
C557 C 0.10639 0.91165 0.87808 0.0
C558 C 0.12249 0.87793 0.88471 0.0
C559 C 0.0563 0.89576 0.87344 0.0
C560 C 1.02039 0.84553 0.87514 0.0
H561 H 0.13266 0.95056 0.87588 0.0
H562 H 1.04571 0.92289 0.86777 0.0
S563 S 1.04211 0.74269 0.89531 0.0
N564 N 0.09738 0.79195 0.89505 0.0
N565 N 1.00386 0.76266 0.8865 0.0
C566 C 1.03574 0.81166 0.88277 0.0
C567 C 0.08654 0.82768 0.88753 0.0
C568 C 0.83314 0.99873 0.61507 0.0
C569 C 0.83893 0.9627 0.63247 0.0
C570 C 0.86465 0.04903 0.62113 0.0
C571 C 0.90345 0.06568 0.64482 0.0
H572 H 0.80333 0.98814 0.59703 0.0
H573 H 0.85799 0.07515 0.60753 0.0
S574 S 0.93755 0.98705 0.69498 0.0
N575 N 0.8884 0.94757 0.67316 0.0
N576 N 0.94792 0.04229 0.68425 0.0
C577 C 0.91047 1.03026 0.6619 0.0
C578 C 0.87824 0.97883 0.65577 0.0
C579 C 0.17291 0.21818 0.8541 0.0
C580 C 0.19551 0.2531 0.88068 0.0
C581 C 0.18851 0.18455 0.84566 0.0
C582 C 0.22778 0.18495 0.86312 0.0
H583 H 0.14305 0.21688 0.83949 0.0
H584 H 0.17024 0.15857 0.82491 0.0
S585 S 0.29867 0.26743 0.93532 0.0
N586 N 0.25884 0.28478 0.92494 0.0
N587 N 0.28787 0.22185 0.90883 0.0
C588 C 0.25041 0.21919 0.88989 0.0
C589 C 0.23433 0.2531 0.89875 0.0
C590 C 0.09262 0.82976 0.63033 0.0
C591 C 0.12902 0.87978 0.63302 0.0
C592 C 1.04279 0.81406 0.63537 0.0
C593 C 1.02688 0.84758 0.64335 0.0
H594 H 0.10256 0.80211 0.62442 0.0
H595 H 1.0164 0.77518 0.63285 0.0
S596 S 0.1069 0.98262 0.65411 0.0
N597 N 0.14533 0.96293 0.64444 0.0
N598 N 1.0516 0.93325 0.6542 0.0
C599 C 0.06265 0.89781 0.64587 0.0
C600 C 0.11364 0.91392 0.64068 0.0
C601 C 0.89851 1.03548 0.85107 0.0
C602 C 0.90076 0.07169 0.87368 0.0
C603 C 0.86656 0.98519 0.85739 0.0
C604 C 0.83601 0.96923 0.88675 0.0
H605 H 0.92068 0.04618 0.82787 0.0
H606 H 0.86511 0.95878 0.8387 0.0
S607 S 0.83279 0.05007 0.95592 0.0
N608 N 0.87296 0.08848 0.92774 0.0
N609 N 0.81335 0.99448 0.94004 0.0
C610 C 0.83964 1.00534 0.91028 0.0
C611 C 0.87183 0.05639 0.90362 0.0
C612 C 0.40272 0.22593 0.27704 0.0
C613 C 0.42915 0.20701 0.29399 0.0
C614 C 0.40217 0.22773 0.24079 0.0
C615 C 0.42817 0.21081 0.22076 0.0
H616 H 0.37865 0.23474 0.29159 0.0
H617 H 0.37753 0.23765 0.22851 0.0
S618 S 0.51086 0.16793 0.25314 0.0
N619 N 0.4877 0.17851 0.28824 0.0
N620 N 0.48706 0.18235 0.22053 0.0
C621 C 0.45896 0.19728 0.23763 0.0
C622 C 0.45932 0.19522 0.27421 0.0
C623 C 0.80356 0.63156 0.27409 0.0
C624 C 0.84748 0.66004 0.29228 0.0
C625 C 0.8027 0.63227 0.23814 0.0
C626 C 0.84573 0.66146 0.21912 0.0
H627 H 0.76898 0.61177 0.28783 0.0
H628 H 0.76748 0.61302 0.22526 0.0
S629 S 0.97104 0.738 0.25435 0.0
N630 N 0.93584 0.71416 0.2887 0.0
N631 N 0.9342 0.71548 0.22074 0.0
C632 C 0.89065 0.68621 0.23675 0.0
C633 C 0.89153 0.68549 0.27356 0.0
C634 C 0.88184 0.2799 0.24275 0.0
C635 C 0.87266 0.23923 0.22205 0.0
C636 C 0.88022 0.27663 0.27884 0.0
C637 C 0.87068 0.23299 0.29527 0.0
H638 H 0.89413 0.31546 0.23104 0.0
H639 H 0.89179 0.3098 0.2938 0.0
S640 S 0.8389 0.11478 0.25281 0.0
N641 N 0.84803 0.1526 0.2206 0.0
N642 N 0.84708 0.14708 0.28837 0.0
C643 C 0.85718 0.19103 0.27487 0.0
C644 C 0.85766 0.194 0.23819 0.0
C645 C 0.20645 0.43925 0.74112 0.0
C646 C 0.22145 0.41018 0.72296 0.0
C647 C 0.20592 0.43993 0.77714 0.0
C648 C 0.22037 0.41156 0.79637 0.0
H649 H 0.19154 0.45878 0.7274 0.0
H650 H 0.19061 0.45994 0.79001 0.0
S651 S 0.26693 0.33265 0.76121 0.0
N652 N 0.25496 0.35548 0.72677 0.0
N653 N 0.25393 0.35675 0.79476 0.0
C654 C 0.23955 0.38572 0.77865 0.0
C655 C 0.2401 0.38503 0.74178 0.0
C656 C 0.29103 0.85212 0.7775 0.0
C657 C 0.24962 0.84666 0.79541 0.0
C658 C 0.29176 0.85123 0.74122 0.0
C659 C 0.25104 0.84466 0.7221 0.0
H660 H 0.32476 0.86291 0.79125 0.0
H661 H 0.32611 0.86155 0.72828 0.0
S662 S 0.13084 0.8188 0.75721 0.0
N663 N 0.16467 0.82658 0.7916 0.0
N664 N 0.16599 0.82472 0.72375 0.0
C665 C 0.20757 0.83268 0.73992 0.0
C666 C 0.20687 0.83373 0.77659 0.0
C667 C 0.70513 0.87141 0.7392 0.0
C668 C 0.68097 0.82639 0.72126 0.0
C669 C 0.70406 0.8725 0.77544 0.0
C670 C 0.67868 0.8286 0.79435 0.0
H671 H 0.72867 0.90521 0.72547 0.0
H672 H 0.72693 0.90707 0.78862 0.0
S673 S 0.60117 0.70307 0.75891 0.0
N674 N 0.62489 0.73833 0.7247 0.0
N675 N 0.62241 0.74042 0.79245 0.0
C676 C 0.65002 0.78436 0.77642 0.0
C677 C 0.65131 0.78323 0.73987 0.0
C678 C 0.27372 0.9989 1.0055 0.0
C679 C 0.30447 1.01028 0.9766 0.0
C680 C 0.28595 1.03258 0.03296 0.0
C681 C 0.32965 0.07902 0.03287 0.0
H682 H 0.23943 0.96426 1.0066 0.0
H683 H 0.26075 1.02184 0.05454 0.0
S684 S 0.42473 0.1249 0.96424 0.0
N685 N 0.38203 0.07033 0.95037 0.0
N686 N 0.40468 0.13302 1.00166 0.0
C687 C 0.3611 0.09031 1.00434 0.0
C688 C 0.34865 0.05615 0.9764 0.0
C689 C 0.83879 0.80208 0.49197 0.0
C690 C 0.81396 0.75232 0.48173 0.0
C691 C 0.81924 0.81972 0.51716 0.0
C692 C 0.77306 0.78887 0.53215 0.0
H693 H 0.87383 0.82768 0.48041 0.0
H694 H 0.84056 0.85789 0.52511 0.0
S695 S 0.69252 0.65583 0.51411 0.0
N696 N 0.74051 0.67236 0.48864 0.0
N697 N 0.70316 0.70596 0.53538 0.0
C698 C 0.74747 0.73916 0.52196 0.0
C699 C 0.76804 0.72079 0.49691 0.0
C700 C 0.05943 0.26756 0.99257 0.0
C701 C 0.08788 0.31792 0.98431 0.0
C702 C 1.02286 0.25078 0.0182 0.0
C703 C 1.01182 0.28338 0.03564 0.0
H704 H 0.06568 0.24082 0.97917 0.0
H705 H 1.0031 0.21197 0.02449 0.0
S706 S 0.07459 0.41851 0.02364 0.0
N707 N 0.10229 0.4002 0.99598 0.0
N708 N 1.03254 0.36837 0.04336 0.0
C709 C 1.03955 0.33369 0.02754 0.0
C710 C 0.07777 0.35102 1.00207 0.0
C711 C 0.29383 1.0258 0.48292 0.0
C712 C 0.33903 0.07084 0.48221 0.0
C713 C 0.28063 0.99263 0.51061 0.0
C714 C 0.31191 1.00316 0.53894 0.0
H715 H 0.26809 1.01585 0.46188 0.0
H716 H 0.24519 0.95919 0.5102 0.0
S717 S 0.43592 0.11363 0.54898 0.0
N718 N 0.416 0.12234 0.51194 0.0
N719 N 0.39151 0.06059 0.56369 0.0
C720 C 0.35759 0.0475 0.53829 0.0
C721 C 0.37102 0.08115 0.51012 0.0
C722 C 0.76775 0.73142 0.01636 0.0
C723 C 0.80828 0.76487 0.0362 0.0
C724 C 0.74665 0.74808 0.99174 0.0
C725 C 0.76532 0.79867 0.98615 0.0
H726 H 0.75187 0.69218 0.02013 0.0
H727 H 0.71664 0.72123 0.97613 0.0
S728 S 0.87134 0.90126 0.03048 0.0
N729 N 0.86622 0.85119 0.04819 0.0
N730 N 0.82709 0.88181 1.00159 0.0
C731 C 0.80571 0.83231 1.00566 0.0
C732 C 0.82695 0.8156 0.03081 0.0
C733 C 1.05127 0.26534 0.53215 0.0
C734 C 0.09397 0.31239 0.53426 0.0
C735 C 1.01715 0.25259 0.50516 0.0
C736 C 1.02452 0.28625 0.47897 0.0
H737 H 1.04412 0.23781 0.55147 0.0
H738 H 0.98565 0.21574 0.50427 0.0
S739 S 0.12804 0.41512 0.47323 0.0
N740 N 0.13984 0.39331 0.50821 0.0
N741 N 0.07652 0.36946 0.45758 0.0
C742 C 0.06663 0.33354 0.48095 0.0
C743 C 0.10116 0.34654 0.50843 0.0
C744 C 0.58796 0.19474 0.08863 0.0
C745 C 0.59903 0.16068 0.10337 0.0
C746 C 0.54226 0.19128 0.09379 0.0
C747 C 0.5051 0.15323 0.11358 0.0
H748 H 0.61523 0.22495 0.07335 0.0
H749 H 0.53602 0.21886 0.08198 0.0
S750 S 0.51483 0.05388 0.15736 0.0
N751 N 0.56876 0.08709 0.1384 0.0
N752 N 0.48239 0.08039 0.14784 0.0
C753 C 0.51523 0.11839 0.12813 0.0
C754 C 0.5623 0.12228 0.12322 0.0
C755 C 0.70434 0.53255 0.38479 0.0
C756 C 0.70701 0.57703 0.39495 0.0
C757 C 0.66176 0.48691 0.38992 0.0
C758 C 0.61981 0.4834 0.40569 0.0
H759 H 0.73582 0.53274 0.37319 0.0
H760 H 0.66237 0.45393 0.38245 0.0
S761 S 0.60598 0.5886 0.43507 0.0
N762 N 0.66276 0.61462 0.42011 0.0
N763 N 0.58252 0.52874 0.42965 0.0
C764 C 0.62126 0.52758 0.41508 0.0
C765 C 0.66475 0.57432 0.40964 0.0
C766 C 0.89381 0.38883 0.12853 0.0
C767 C 0.93765 0.38809 0.12224 0.0
C768 C 0.89053 0.43112 0.12299 0.0
C769 C 0.93085 0.47476 0.11071 0.0
H770 H 0.86107 0.35604 0.13725 0.0
H771 H 0.85548 0.42902 0.12727 0.0
S772 S 0.05549 0.49439 0.09307 0.0
N773 N 1.0234 0.43626 0.10513 0.0
N774 N 1.01722 0.51596 0.09474 0.0
C775 C 0.97552 0.47536 0.10547 0.0
C776 C 0.97898 0.43213 0.11135 0.0
C777 C 0.52154 0.1144 0.41061 0.0
C778 C 0.51484 0.14791 0.39066 0.0
C779 C 0.56898 0.12169 0.41664 0.0
C780 C 0.61111 0.16262 0.40286 0.0
H781 H 0.49037 0.0841 0.42325 0.0
H782 H 0.57289 0.09662 0.43361 0.0
S783 S 0.6125 0.25598 0.34409 0.0
N784 N 0.55398 0.22002 0.35385 0.0
N785 N 0.64222 0.23315 0.36484 0.0
C786 C 0.60434 0.19414 0.38092 0.0
C787 C 0.55648 0.18692 0.37491 0.0
C788 C 0.6539 0.49423 0.12579 0.0
C789 C 0.61274 0.49108 0.10928 0.0
C790 C 0.69694 0.53959 0.13065 0.0
C791 C 0.70075 0.58403 0.11954 0.0
H792 H 0.65351 0.46115 0.13406 0.0
H793 H 0.72787 0.53963 0.14281 0.0
S794 S 0.60252 0.59659 0.07671 0.0
N795 N 0.57767 0.53684 0.08327 0.0
N796 N 0.65878 0.62214 0.09234 0.0
C797 C 0.65937 0.58175 0.10403 0.0
C798 C 0.61546 0.53533 0.09881 0.0
C799 C 0.96672 0.45789 0.42468 0.0
C800 C 0.95492 0.47772 0.39636 0.0
C801 C 0.97261 0.41673 0.42109 0.0
C802 C 0.96745 0.39361 0.38897 0.0
H803 H 0.96935 0.47295 0.45024 0.0
H804 H 0.97956 0.40177 0.44406 0.0
S805 S 0.94176 0.43386 0.30597 0.0
N806 N 0.94197 0.47326 0.33445 0.0
N807 N 0.95337 0.3958 0.32778 0.0
C808 C 0.95837 0.41454 0.36004 0.0
C809 C 0.95178 0.4564 0.36374 0.0
C810 C 0.14697 0.5532 0.62595 0.0
C811 C 0.1761 0.58331 0.59861 0.0
C812 C 0.14123 0.5062 0.63157 0.0
C813 C 0.1653 0.48827 0.61046 0.0
H814 H 0.12895 0.56632 0.64331 0.0
H815 H 0.11958 0.48473 0.65333 0.0
S816 S 0.2447 0.55163 0.53519 0.0
N817 N 0.22823 0.59067 0.54992 0.0
N818 N 0.21778 0.50323 0.56065 0.0
C819 C 0.19359 0.51752 0.58276 0.0
C820 C 0.19891 0.56477 0.57678 0.0
C821 C 0.43701 0.96126 0.91788 0.0
C822 C 0.41158 0.9515 0.8865 0.0
C823 C 0.47785 0.95505 0.92149 0.0
C824 C 0.49479 0.93813 0.89397 0.0
H825 H 0.42394 0.97188 0.94038 0.0
H826 H 0.49479 0.96127 0.94661 0.0
S827 S 0.44383 0.91139 0.80544 0.0
N828 N 0.40836 0.9275 0.82664 0.0
N829 N 0.48511 0.91534 0.83337 0.0
C830 C 0.47115 0.9304 0.86192 0.0
C831 C 0.42973 0.93742 0.85815 0.0
C832 C 0.59474 0.64192 0.60558 0.0
C833 C 0.59924 0.68199 0.62492 0.0
C834 C 0.54857 0.5993 0.60058 0.0
C835 C 0.50533 0.59484 0.6152 0.0
H836 H 0.62663 0.64436 0.59292 0.0
H837 H 0.54659 0.56991 0.5847 0.0
S838 S 0.49794 0.68822 0.66989 0.0
N839 N 0.55675 0.71331 0.66021 0.0
N840 N 0.47076 0.63387 0.65083 0.0
C841 C 0.50985 0.63392 0.63571 0.0
C842 C 0.55653 0.67725 0.64054 0.0
C843 C 0.20556 0.58545 0.88923 0.0
C844 C 0.17147 0.59141 0.90919 0.0
C845 C 0.20063 0.53897 0.88408 0.0
C846 C 0.16104 0.49614 0.89824 0.0
H847 H 0.23753 0.61726 0.8786 0.0
H848 H 0.22886 0.53679 0.86939 0.0
S849 S 0.05936 0.49098 0.95021 0.0
N850 N 0.09507 0.55008 0.94163 0.0
N851 N 0.08552 0.46245 0.93155 0.0
C852 C 0.12539 0.50114 0.91696 0.0
C853 C 0.13078 0.5488 0.92263 0.0
C854 C 0.44085 0.95369 0.59761 0.0
C855 C 0.41523 0.94326 0.62906 0.0
C856 C 0.48018 0.94523 0.59289 0.0
C857 C 0.49538 0.92533 0.61928 0.0
H858 H 0.42891 0.96648 0.57585 0.0
H859 H 0.4978 0.95282 0.56786 0.0
S860 S 0.44201 0.89401 0.70729 0.0
N861 N 0.40951 0.91477 0.68773 0.0
N862 N 0.48299 0.8978 0.67883 0.0
C863 C 0.47179 0.91721 0.65155 0.0
C864 C 0.43184 0.92641 0.65644 0.0
C865 C 0.55416 0.68229 0.87907 0.0
C866 C 0.59637 0.68884 0.89619 0.0
C867 C 0.50803 0.64058 0.8847 0.0
C868 C 0.50187 0.6037 0.90798 0.0
H869 H 0.55657 0.71026 0.86166 0.0
H870 H 0.47671 0.63763 0.87107 0.0
S871 S 0.60087 0.60329 0.95946 0.0
N872 N 0.6294 0.65457 0.93686 0.0
N873 N 0.5425 0.57652 0.94816 0.0
C874 C 0.54409 0.60909 0.92459 0.0
C875 C 0.59134 0.65153 0.91852 0.0
loop_
_geom_bond_atom_site_label_1
_geom_bond_atom_site_label_2
_geom_bond_distance
_geom_bond_site_symmetry_2
_ccdc_geom_bond_type
Tb0 C9 2.755 1_545 S
Tb0 O10 2.325 . S
Tb0 O13 2.303 . S
Tb0 O17 2.322 . S
Tb0 O18 2.349 . S
Tb0 O21 2.415 . S
Tb0 O22 2.399 . S
Tb1 O11 2.322 . S
Tb1 O12 2.349 . S
Tb1 O14 2.415 . S
Tb1 O15 2.399 . S
Tb1 O16 2.325 . S
Tb1 O19 2.303 . S
Tb1 C30 2.764 . S
C2 O18 1.261 . S
C2 O19 1.257 . S
C3 C6 1.358 . S
C3 C7 1.332 . S
C3 C9 1.514 . S
C4 C5 1.373 . S
C4 C8 1.308 . S
C5 C4 1.373 . S
C5 C6 1.429 . S
C5 H32 0.932 . S
C6 C3 1.358 . S
C6 C5 1.429 . S
C6 H33 0.930 . S
C7 C3 1.332 . S
C7 C8 1.394 . S
C7 H34 0.932 . S
C8 C4 1.308 . S
C8 C7 1.394 . S
C8 H35 0.929 . S
C9 Tb0 2.755 1_565 S
C9 C3 1.514 . S
C9 O21 1.235 1_565 S
C9 O22 1.258 1_565 S
O10 Tb0 2.325 . S
O10 C20 1.236 . S
O11 Tb1 2.322 . S
O11 C20 1.257 . S
O12 Tb1 2.349 . S
O12 C23 1.261 . S
O13 Tb0 2.303 . S
O13 C23 1.257 . S
O14 Tb1 2.415 . S
O14 C30 1.239 . S
O15 Tb1 2.399 . S
O15 C30 1.263 . S
O16 Tb1 2.325 . S
O16 C31 1.236 . S
O17 Tb0 2.322 . S
O17 C31 1.257 . S
O18 Tb0 2.349 . S
O18 C2 1.261 . S
O19 Tb1 2.303 . S
O19 C2 1.257 . S
C20 O10 1.236 . S
C20 O11 1.257 . S
O21 Tb0 2.415 . S
O21 C9 1.235 1_545 S
O22 Tb0 2.399 . S
O22 C9 1.258 1_545 S
C23 O12 1.261 . S
C23 O13 1.257 . S
C24 C27 1.358 . S
C24 C28 1.332 . S
C24 C30 1.504 . S
C25 C26 1.373 . S
C25 C29 1.308 . S
C26 C25 1.373 . S
C26 C27 1.429 . S
C26 H36 0.932 . S
C27 C24 1.358 . S
C27 C26 1.429 . S
C27 H37 0.930 . S
C28 C24 1.332 . S
C28 C29 1.394 . S
C28 H38 0.932 . S
C29 C25 1.308 . S
C29 C28 1.394 . S
C29 H39 0.929 . S
C30 Tb1 2.764 . S
C30 O14 1.239 . S
C30 O15 1.263 . S
C30 C24 1.504 . S
C31 O16 1.236 . S
C31 O17 1.257 . S
H32 C5 0.932 . S
H33 C6 0.930 . S
H34 C7 0.932 . S
H35 C8 0.929 . S
H36 C26 0.932 . S
H37 C27 0.930 . S
H38 C28 0.932 . S
H39 C29 0.929 . S
Tb40 C49 2.764 . S
Tb40 O50 2.325 . S
Tb40 O53 2.303 . S
Tb40 O57 2.322 . S
Tb40 O58 2.349 . S
Tb40 O61 2.415 . S
Tb40 O62 2.399 . S
Tb41 O51 2.322 . S
Tb41 O52 2.349 . S
Tb41 O54 2.415 . S
Tb41 O55 2.399 . S
Tb41 O56 2.325 . S
Tb41 O59 2.303 . S
Tb41 C70 2.764 . S
C42 O58 1.261 . S
C42 O59 1.257 . S
C43 C46 1.358 . S
C43 C47 1.332 . S
C43 C49 1.504 . S
C44 C45 1.373 . S
C44 C48 1.308 . S
C45 C44 1.373 . S
C45 C46 1.429 . S
C45 H72 0.932 . S
C46 C43 1.358 . S
C46 C45 1.429 . S
C46 H73 0.930 . S
C47 C43 1.332 . S
C47 C48 1.394 . S
C47 H74 0.932 . S
C48 C44 1.308 . S
C48 C47 1.394 . S
C48 H75 0.929 . S
C49 Tb40 2.764 . S
C49 C43 1.504 . S
C49 O61 1.239 . S
C49 O62 1.263 . S
O50 Tb40 2.325 . S
O50 C60 1.236 . S
O51 Tb41 2.322 . S
O51 C60 1.257 . S
O52 Tb41 2.349 . S
O52 C63 1.261 . S
O53 Tb40 2.303 . S
O53 C63 1.257 . S
O54 Tb41 2.415 . S
O54 C70 1.239 . S
O55 Tb41 2.399 . S
O55 C70 1.263 . S
O56 Tb41 2.325 . S
O56 C71 1.236 . S
O57 Tb40 2.322 . S
O57 C71 1.257 . S
O58 Tb40 2.349 . S
O58 C42 1.261 . S
O59 Tb41 2.303 . S
O59 C42 1.257 . S
C60 O50 1.236 . S
C60 O51 1.257 . S
O61 Tb40 2.415 . S
O61 C49 1.239 . S
O62 Tb40 2.399 . S
O62 C49 1.263 . S
C63 O52 1.261 . S
C63 O53 1.257 . S
C64 C67 1.358 . S
C64 C68 1.332 . S
C64 C70 1.504 . S
C65 C66 1.373 . S
C65 C69 1.308 . S
C66 C65 1.373 . S
C66 C67 1.429 . S
C66 H76 0.932 . S
C67 C64 1.358 . S
C67 C66 1.429 . S
C67 H77 0.930 . S
C68 C64 1.332 . S
C68 C69 1.394 . S
C68 H78 0.932 . S
C69 C65 1.308 . S
C69 C68 1.394 . S
C69 H79 0.929 . S
C70 Tb41 2.764 . S
C70 O54 1.239 . S
C70 O55 1.263 . S
C70 C64 1.504 . S
C71 O56 1.236 . S
C71 O57 1.257 . S
H72 C45 0.932 . S
H73 C46 0.930 . S
H74 C47 0.932 . S
H75 C48 0.929 . S
H76 C66 0.932 . S
H77 C67 0.930 . S
H78 C68 0.932 . S
H79 C69 0.929 . S
Tb80 C89 2.739 1_655 S
Tb80 O90 2.325 . S
Tb80 O93 2.303 . S
Tb80 O97 2.322 . S
Tb80 O98 2.349 . S
Tb80 O101 2.415 . S
Tb80 O102 2.399 . S
Tb81 O91 2.322 . S
Tb81 O92 2.349 . S
Tb81 O94 2.415 . S
Tb81 O95 2.399 . S
Tb81 O96 2.325 . S
Tb81 O99 2.303 . S
Tb81 C110 2.764 . S
C82 O98 1.261 . S
C82 O99 1.257 . S
C83 C86 1.358 . S
C83 C87 1.332 . S
C83 C89 1.529 . S
C84 C85 1.373 . S
C84 C88 1.308 . S
C85 C84 1.373 . S
C85 C86 1.429 . S
C85 H112 0.932 . S
C86 C83 1.358 . S
C86 C85 1.429 . S
C86 H113 0.930 . S
C87 C83 1.332 . S
C87 C88 1.394 . S
C87 H114 0.932 . S
C88 C84 1.308 . S
C88 C87 1.394 . S
C88 H115 0.929 . S
C89 Tb80 2.739 1_455 S
C89 C83 1.529 . S
C89 O101 1.227 1_455 S
C89 O102 1.250 1_455 S
O90 Tb80 2.325 . S
O90 C100 1.236 . S
O91 Tb81 2.322 . S
O91 C100 1.257 . S
O92 Tb81 2.349 . S
O92 C103 1.261 . S
O93 Tb80 2.303 . S
O93 C103 1.257 . S
O94 Tb81 2.415 . S
O94 C110 1.239 . S
O95 Tb81 2.399 . S
O95 C110 1.263 . S
O96 Tb81 2.325 . S
O96 C111 1.236 . S
O97 Tb80 2.322 . S
O97 C111 1.257 . S
O98 Tb80 2.349 . S
O98 C82 1.261 . S
O99 Tb81 2.303 . S
O99 C82 1.257 . S
C100 O90 1.236 . S
C100 O91 1.257 . S
O101 Tb80 2.415 . S
O101 C89 1.227 1_655 S
O102 Tb80 2.399 . S
O102 C89 1.250 1_655 S
C103 O92 1.261 . S
C103 O93 1.257 . S
C104 C107 1.358 . S
C104 C108 1.332 . S
C104 C110 1.504 . S
C105 C106 1.373 . S
C105 C109 1.308 . S
C106 C105 1.373 . S
C106 C107 1.429 . S
C106 H116 0.932 . S
C107 C104 1.358 . S
C107 C106 1.429 . S
C107 H117 0.930 . S
C108 C104 1.332 . S
C108 C109 1.394 . S
C108 H118 0.932 . S
C109 C105 1.308 . S
C109 C108 1.394 . S
C109 H119 0.929 . S
C110 Tb81 2.764 . S
C110 O94 1.239 . S
C110 O95 1.263 . S
C110 C104 1.504 . S
C111 O96 1.236 . S
C111 O97 1.257 . S
H112 C85 0.932 . S
H113 C86 0.930 . S
H114 C87 0.932 . S
H115 C88 0.929 . S
H116 C106 0.932 . S
H117 C107 0.930 . S
H118 C108 0.932 . S
H119 C109 0.929 . S
Tb120 C129 2.764 . S
Tb120 O130 2.325 . S
Tb120 O133 2.303 . S
Tb120 O137 2.322 . S
Tb120 O138 2.349 . S
Tb120 O141 2.415 . S
Tb120 O142 2.399 . S
Tb121 O131 2.322 . S
Tb121 O132 2.349 . S
Tb121 O134 2.415 . S
Tb121 O135 2.399 . S
Tb121 O136 2.325 . S
Tb121 O139 2.303 . S
Tb121 C150 2.755 1_545 S
C122 O138 1.261 . S
C122 O139 1.257 . S
C123 C126 1.358 . S
C123 C127 1.332 . S
C123 C129 1.504 . S
C124 C125 1.373 . S
C124 C128 1.308 . S
C125 C124 1.373 . S
C125 C126 1.429 . S
C125 H152 0.932 . S
C126 C123 1.358 . S
C126 C125 1.429 . S
C126 H153 0.930 . S
C127 C123 1.332 . S
C127 C128 1.394 . S
C127 H154 0.932 . S
C128 C124 1.308 . S
C128 C127 1.394 . S
C128 H155 0.929 . S
C129 Tb120 2.764 . S
C129 C123 1.504 . S
C129 O141 1.239 . S
C129 O142 1.263 . S
O130 Tb120 2.325 . S
O130 C140 1.236 . S
O131 Tb121 2.322 . S
O131 C140 1.257 . S
O132 Tb121 2.349 . S
O132 C143 1.261 . S
O133 Tb120 2.303 . S
O133 C143 1.257 . S
O134 Tb121 2.415 . S
O134 C150 1.235 1_545 S
O135 Tb121 2.399 . S
O135 C150 1.258 1_545 S
O136 Tb121 2.325 . S
O136 C151 1.236 . S
O137 Tb120 2.322 . S
O137 C151 1.257 . S
O138 Tb120 2.349 . S
O138 C122 1.261 . S
O139 Tb121 2.303 . S
O139 C122 1.257 . S
C140 O130 1.236 . S
C140 O131 1.257 . S
O141 Tb120 2.415 . S
O141 C129 1.239 . S
O142 Tb120 2.399 . S
O142 C129 1.263 . S
C143 O132 1.261 . S
C143 O133 1.257 . S
C144 C147 1.358 . S
C144 C148 1.332 . S
C144 C150 1.514 . S
C145 C146 1.373 . S
C145 C149 1.308 . S
C146 C145 1.373 . S
C146 C147 1.429 . S
C146 H156 0.932 . S
C147 C144 1.358 . S
C147 C146 1.429 . S
C147 H157 0.930 . S
C148 C144 1.332 . S
C148 C149 1.394 . S
C148 H158 0.932 . S
C149 C145 1.308 . S
C149 C148 1.394 . S
C149 H159 0.929 . S
C150 Tb121 2.755 1_565 S
C150 O134 1.235 1_565 S
C150 O135 1.258 1_565 S
C150 C144 1.514 . S
C151 O136 1.236 . S
C151 O137 1.257 . S
H152 C125 0.932 . S
H153 C126 0.930 . S
H154 C127 0.932 . S
H155 C128 0.929 . S
H156 C146 0.932 . S
H157 C147 0.930 . S
H158 C148 0.932 . S
H159 C149 0.929 . S
Tb160 C169 2.764 . S
Tb160 O170 2.325 . S
Tb160 O173 2.303 . S
Tb160 O177 2.322 . S
Tb160 O178 2.349 . S
Tb160 O181 2.415 . S
Tb160 O182 2.399 . S
Tb161 O171 2.322 . S
Tb161 O172 2.349 . S
Tb161 O174 2.415 . S
Tb161 O175 2.399 . S
Tb161 O176 2.325 . S
Tb161 O179 2.303 . S
Tb161 C190 2.764 . S
C162 O178 1.261 . S
C162 O179 1.257 . S
C163 C166 1.358 . S
C163 C167 1.332 . S
C163 C169 1.504 . S
C164 C165 1.373 . S
C164 C168 1.308 . S
C165 C164 1.373 . S
C165 C166 1.429 . S
C165 H192 0.932 . S
C166 C163 1.358 . S
C166 C165 1.429 . S
C166 H193 0.930 . S
C167 C163 1.332 . S
C167 C168 1.394 . S
C167 H194 0.932 . S
C168 C164 1.308 . S
C168 C167 1.394 . S
C168 H195 0.929 . S
C169 Tb160 2.764 . S
C169 C163 1.504 . S
C169 O181 1.239 . S
C169 O182 1.263 . S
O170 Tb160 2.325 . S
O170 C180 1.236 . S
O171 Tb161 2.322 . S
O171 C180 1.257 . S
O172 Tb161 2.349 . S
O172 C183 1.261 . S
O173 Tb160 2.303 . S
O173 C183 1.257 . S
O174 Tb161 2.415 . S
O174 C190 1.239 . S
O175 Tb161 2.399 . S
O175 C190 1.263 . S
O176 Tb161 2.325 . S
O176 C191 1.236 . S
O177 Tb160 2.322 . S
O177 C191 1.257 . S
O178 Tb160 2.349 . S
O178 C162 1.261 . S
O179 Tb161 2.303 . S
O179 C162 1.257 . S
C180 O170 1.236 . S
C180 O171 1.257 . S
O181 Tb160 2.415 . S
O181 C169 1.239 . S
O182 Tb160 2.399 . S
O182 C169 1.263 . S
C183 O172 1.261 . S
C183 O173 1.257 . S
C184 C187 1.358 . S
C184 C188 1.332 . S
C184 C190 1.504 . S
C185 C186 1.373 . S
C185 C189 1.308 . S
C186 C185 1.373 . S
C186 C187 1.429 . S
C186 H196 0.932 . S
C187 C184 1.358 . S
C187 C186 1.429 . S
C187 H197 0.930 . S
C188 C184 1.332 . S
C188 C189 1.394 . S
C188 H198 0.932 . S
C189 C185 1.308 . S
C189 C188 1.394 . S
C189 H199 0.929 . S
C190 Tb161 2.764 . S
C190 O174 1.239 . S
C190 O175 1.263 . S
C190 C184 1.504 . S
C191 O176 1.236 . S
C191 O177 1.257 . S
H192 C165 0.932 . S
H193 C166 0.930 . S
H194 C167 0.932 . S
H195 C168 0.929 . S
H196 C186 0.932 . S
H197 C187 0.930 . S
H198 C188 0.932 . S
H199 C189 0.929 . S
Tb200 C209 2.764 . S
Tb200 O210 2.325 . S
Tb200 O213 2.303 . S
Tb200 O217 2.322 . S
Tb200 O218 2.349 . S
Tb200 O221 2.415 . S
Tb200 O222 2.399 . S
Tb201 O211 2.322 . S
Tb201 O212 2.349 . S
Tb201 O214 2.415 . S
Tb201 O215 2.399 . S
Tb201 O216 2.325 . S
Tb201 O219 2.303 . S
Tb201 C230 2.739 1_655 S
C202 O218 1.261 . S
C202 O219 1.257 . S
C203 C206 1.358 . S
C203 C207 1.332 . S
C203 C209 1.504 . S
C204 C205 1.373 . S
C204 C208 1.308 . S
C205 C204 1.373 . S
C205 C206 1.429 . S
C205 H232 0.932 . S
C206 C203 1.358 . S
C206 C205 1.429 . S
C206 H233 0.930 . S
C207 C203 1.332 . S
C207 C208 1.394 . S
C207 H234 0.932 . S
C208 C204 1.308 . S
C208 C207 1.394 . S
C208 H235 0.929 . S
C209 Tb200 2.764 . S
C209 C203 1.504 . S
C209 O221 1.239 . S
C209 O222 1.263 . S
O210 Tb200 2.325 . S
O210 C220 1.236 . S
O211 Tb201 2.322 . S
O211 C220 1.257 . S
O212 Tb201 2.349 . S
O212 C223 1.261 . S
O213 Tb200 2.303 . S
O213 C223 1.257 . S
O214 Tb201 2.415 . S
O214 C230 1.227 1_655 S
O215 Tb201 2.399 . S
O215 C230 1.250 1_655 S
O216 Tb201 2.325 . S
O216 C231 1.236 . S
O217 Tb200 2.322 . S
O217 C231 1.257 . S
O218 Tb200 2.349 . S
O218 C202 1.261 . S
O219 Tb201 2.303 . S
O219 C202 1.257 . S
C220 O210 1.236 . S
C220 O211 1.257 . S
O221 Tb200 2.415 . S
O221 C209 1.239 . S
O222 Tb200 2.399 . S
O222 C209 1.263 . S
C223 O212 1.261 . S
C223 O213 1.257 . S
C224 C227 1.358 . S
C224 C228 1.332 . S
C224 C230 1.529 . S
C225 C226 1.373 . S
C225 C229 1.308 . S
C226 C225 1.373 . S
C226 C227 1.429 . S
C226 H236 0.932 . S
C227 C224 1.358 . S
C227 C226 1.429 . S
C227 H237 0.930 . S
C228 C224 1.332 . S
C228 C229 1.394 . S
C228 H238 0.932 . S
C229 C225 1.308 . S
C229 C228 1.394 . S
C229 H239 0.929 . S
C230 Tb201 2.739 1_455 S
C230 O214 1.227 1_455 S
C230 O215 1.250 1_455 S
C230 C224 1.529 . S
C231 O216 1.236 . S
C231 O217 1.257 . S
H232 C205 0.932 . S
H233 C206 0.930 . S
H234 C207 0.932 . S
H235 C208 0.929 . S
H236 C226 0.932 . S
H237 C227 0.930 . S
H238 C228 0.932 . S
H239 C229 0.929 . S
Tb240 C249 2.764 . S
Tb240 O250 2.325 . S
Tb240 O253 2.303 . S
Tb240 O257 2.322 . S
Tb240 O258 2.349 . S
Tb240 O261 2.415 . S
Tb240 O262 2.399 . S
Tb241 O251 2.322 . S
Tb241 O252 2.349 . S
Tb241 O254 2.415 . S
Tb241 O255 2.399 . S
Tb241 O256 2.325 . S
Tb241 O259 2.303 . S
Tb241 C270 2.755 1_455 S
C242 O258 1.261 . S
C242 O259 1.257 . S
C243 C246 1.358 . S
C243 C247 1.332 . S
C243 C249 1.504 . S
C244 C245 1.373 . S
C244 C248 1.308 . S
C245 C244 1.373 . S
C245 C246 1.429 . S
C245 H272 0.932 . S
C246 C243 1.358 . S
C246 C245 1.429 . S
C246 H273 0.930 . S
C247 C243 1.332 . S
C247 C248 1.394 . S
C247 H274 0.932 . S
C248 C244 1.308 . S
C248 C247 1.394 . S
C248 H275 0.929 . S
C249 Tb240 2.764 . S
C249 C243 1.504 . S
C249 O261 1.239 . S
C249 O262 1.263 . S
O250 Tb240 2.325 . S
O250 C260 1.236 . S
O251 Tb241 2.322 . S
O251 C260 1.257 . S
O252 Tb241 2.349 . S
O252 C263 1.261 . S
O253 Tb240 2.303 . S
O253 C263 1.257 . S
O254 Tb241 2.415 . S
O254 C270 1.235 1_455 S
O255 Tb241 2.399 . S
O255 C270 1.258 1_455 S
O256 Tb241 2.325 . S
O256 C271 1.236 . S
O257 Tb240 2.322 . S
O257 C271 1.257 . S
O258 Tb240 2.349 . S
O258 C242 1.261 . S
O259 Tb241 2.303 . S
O259 C242 1.257 . S
C260 O250 1.236 . S
C260 O251 1.257 . S
O261 Tb240 2.415 . S
O261 C249 1.239 . S
O262 Tb240 2.399 . S
O262 C249 1.263 . S
C263 O252 1.261 . S
C263 O253 1.257 . S
C264 C267 1.358 . S
C264 C268 1.332 . S
C264 C270 1.514 . S
C265 C266 1.373 . S
C265 C269 1.308 . S
C266 C265 1.373 . S
C266 C267 1.429 . S
C266 H276 0.932 . S
C267 C264 1.358 . S
C267 C266 1.429 . S
C267 H277 0.930 . S
C268 C264 1.332 . S
C268 C269 1.394 . S
C268 H278 0.932 . S
C269 C265 1.308 . S
C269 C268 1.394 . S
C269 H279 0.929 . S
C270 Tb241 2.755 1_655 S
C270 O254 1.235 1_655 S
C270 O255 1.258 1_655 S
C270 C264 1.514 . S
C271 O256 1.236 . S
C271 O257 1.257 . S
H272 C245 0.932 . S
H273 C246 0.930 . S
H274 C247 0.932 . S
H275 C248 0.929 . S
H276 C266 0.932 . S
H277 C267 0.930 . S
H278 C268 0.932 . S
H279 C269 0.929 . S
Tb280 C289 2.739 1_565 S
Tb280 O290 2.325 . S
Tb280 O293 2.303 . S
Tb280 O297 2.322 . S
Tb280 O298 2.349 . S
Tb280 O301 2.415 . S
Tb280 O302 2.399 . S
Tb281 O291 2.322 . S
Tb281 O292 2.349 . S
Tb281 O294 2.415 . S
Tb281 O295 2.399 . S
Tb281 O296 2.325 . S
Tb281 O299 2.303 . S
Tb281 C310 2.764 . S
C282 O298 1.261 . S
C282 O299 1.257 . S
C283 C286 1.358 . S
C283 C287 1.332 . S
C283 C289 1.529 . S
C284 C285 1.373 . S
C284 C288 1.308 . S
C285 C284 1.373 . S
C285 C286 1.429 . S
C285 H312 0.932 . S
C286 C283 1.358 . S
C286 C285 1.429 . S
C286 H313 0.930 . S
C287 C283 1.332 . S
C287 C288 1.394 . S
C287 H314 0.932 . S
C288 C284 1.308 . S
C288 C287 1.394 . S
C288 H315 0.929 . S
C289 Tb280 2.739 1_545 S
C289 C283 1.529 . S
C289 O301 1.227 1_545 S
C289 O302 1.250 1_545 S
O290 Tb280 2.325 . S
O290 C300 1.236 . S
O291 Tb281 2.322 . S
O291 C300 1.257 . S
O292 Tb281 2.349 . S
O292 C303 1.261 . S
O293 Tb280 2.303 . S
O293 C303 1.257 . S
O294 Tb281 2.415 . S
O294 C310 1.239 . S
O295 Tb281 2.399 . S
O295 C310 1.263 . S
O296 Tb281 2.325 . S
O296 C311 1.236 . S
O297 Tb280 2.322 . S
O297 C311 1.257 . S
O298 Tb280 2.349 . S
O298 C282 1.261 . S
O299 Tb281 2.303 . S
O299 C282 1.257 . S
C300 O290 1.236 . S
C300 O291 1.257 . S
O301 Tb280 2.415 . S
O301 C289 1.227 1_565 S
O302 Tb280 2.399 . S
O302 C289 1.250 1_565 S
C303 O292 1.261 . S
C303 O293 1.257 . S
C304 C307 1.358 . S
C304 C308 1.332 . S
C304 C310 1.504 . S
C305 C306 1.373 . S
C305 C309 1.308 . S
C306 C305 1.373 . S
C306 C307 1.429 . S
C306 H316 0.932 . S
C307 C304 1.358 . S
C307 C306 1.429 . S
C307 H317 0.930 . S
C308 C304 1.332 . S
C308 C309 1.394 . S
C308 H318 0.932 . S
C309 C305 1.308 . S
C309 C308 1.394 . S
C309 H319 0.929 . S
C310 Tb281 2.764 . S
C310 O294 1.239 . S
C310 O295 1.263 . S
C310 C304 1.504 . S
C311 O296 1.236 . S
C311 O297 1.257 . S
H312 C285 0.932 . S
H313 C286 0.930 . S
H314 C287 0.932 . S
H315 C288 0.929 . S
H316 C306 0.932 . S
H317 C307 0.930 . S
H318 C308 0.932 . S
H319 C309 0.929 . S
Tb320 C329 2.764 . S
Tb320 O330 2.325 . S
Tb320 O333 2.303 . S
Tb320 O337 2.322 . S
Tb320 O338 2.349 . S
Tb320 O341 2.415 . S
Tb320 O342 2.399 . S
Tb321 O331 2.322 . S
Tb321 O332 2.349 . S
Tb321 O334 2.415 . S
Tb321 O335 2.399 . S
Tb321 O336 2.325 . S
Tb321 O339 2.303 . S
Tb321 C350 2.764 . S
C322 O338 1.261 . S
C322 O339 1.257 . S
C323 C326 1.358 . S
C323 C327 1.332 . S
C323 C329 1.504 . S
C324 C325 1.373 . S
C324 C328 1.308 . S
C325 C324 1.373 . S
C325 C326 1.429 . S
C325 H352 0.932 . S
C326 C323 1.358 . S
C326 C325 1.429 . S
C326 H353 0.930 . S
C327 C323 1.332 . S
C327 C328 1.394 . S
C327 H354 0.932 . S
C328 C324 1.308 . S
C328 C327 1.394 . S
C328 H355 0.929 . S
C329 Tb320 2.764 . S
C329 C323 1.504 . S
C329 O341 1.239 . S
C329 O342 1.263 . S
O330 Tb320 2.325 . S
O330 C340 1.236 . S
O331 Tb321 2.322 . S
O331 C340 1.257 . S
O332 Tb321 2.349 . S
O332 C343 1.261 . S
O333 Tb320 2.303 . S
O333 C343 1.257 . S
O334 Tb321 2.415 . S
O334 C350 1.239 . S
O335 Tb321 2.399 . S
O335 C350 1.263 . S
O336 Tb321 2.325 . S
O336 C351 1.236 . S
O337 Tb320 2.322 . S
O337 C351 1.257 . S
O338 Tb320 2.349 . S
O338 C322 1.261 . S
O339 Tb321 2.303 . S
O339 C322 1.257 . S
C340 O330 1.236 . S
C340 O331 1.257 . S
O341 Tb320 2.415 . S
O341 C329 1.239 . S
O342 Tb320 2.399 . S
O342 C329 1.263 . S
C343 O332 1.261 . S
C343 O333 1.257 . S
C344 C347 1.358 . S
C344 C348 1.332 . S
C344 C350 1.504 . S
C345 C346 1.373 . S
C345 C349 1.308 . S
C346 C345 1.373 . S
C346 C347 1.429 . S
C346 H356 0.932 . S
C347 C344 1.358 . S
C347 C346 1.429 . S
C347 H357 0.930 . S
C348 C344 1.332 . S
C348 C349 1.394 . S
C348 H358 0.932 . S
C349 C345 1.308 . S
C349 C348 1.394 . S
C349 H359 0.929 . S
C350 Tb321 2.764 . S
C350 O334 1.239 . S
C350 O335 1.263 . S
C350 C344 1.504 . S
C351 O336 1.236 . S
C351 O337 1.257 . S
H352 C325 0.932 . S
H353 C326 0.930 . S
H354 C327 0.932 . S
H355 C328 0.929 . S
H356 C346 0.932 . S
H357 C347 0.930 . S
H358 C348 0.932 . S
H359 C349 0.929 . S
Tb360 C369 2.755 1_455 S
Tb360 O370 2.325 . S
Tb360 O373 2.303 . S
Tb360 O377 2.322 . S
Tb360 O378 2.349 . S
Tb360 O381 2.415 . S
Tb360 O382 2.399 . S
Tb361 O371 2.322 . S
Tb361 O372 2.349 . S
Tb361 O374 2.415 . S
Tb361 O375 2.399 . S
Tb361 O376 2.325 . S
Tb361 O379 2.303 . S
Tb361 C390 2.764 . S
C362 O378 1.261 . S
C362 O379 1.257 . S
C363 C366 1.358 . S
C363 C367 1.332 . S
C363 C369 1.514 . S
C364 C365 1.373 . S
C364 C368 1.308 . S
C365 C364 1.373 . S
C365 C366 1.429 . S
C365 H392 0.932 . S
C366 C363 1.358 . S
C366 C365 1.429 . S
C366 H393 0.930 . S
C367 C363 1.332 . S
C367 C368 1.394 . S
C367 H394 0.932 . S
C368 C364 1.308 . S
C368 C367 1.394 . S
C368 H395 0.929 . S
C369 Tb360 2.755 1_655 S
C369 C363 1.514 . S
C369 O381 1.235 1_655 S
C369 O382 1.258 1_655 S
O370 Tb360 2.325 . S
O370 C380 1.236 . S
O371 Tb361 2.322 . S
O371 C380 1.257 . S
O372 Tb361 2.349 . S
O372 C383 1.261 . S
O373 Tb360 2.303 . S
O373 C383 1.257 . S
O374 Tb361 2.415 . S
O374 C390 1.239 . S
O375 Tb361 2.399 . S
O375 C390 1.263 . S
O376 Tb361 2.325 . S
O376 C391 1.236 . S
O377 Tb360 2.322 . S
O377 C391 1.257 . S
O378 Tb360 2.349 . S
O378 C362 1.261 . S
O379 Tb361 2.303 . S
O379 C362 1.257 . S
C380 O370 1.236 . S
C380 O371 1.257 . S
O381 Tb360 2.415 . S
O381 C369 1.235 1_455 S
O382 Tb360 2.399 . S
O382 C369 1.258 1_455 S
C383 O372 1.261 . S
C383 O373 1.257 . S
C384 C387 1.358 . S
C384 C388 1.332 . S
C384 C390 1.504 . S
C385 C386 1.373 . S
C385 C389 1.308 . S
C386 C385 1.373 . S
C386 C387 1.429 . S
C386 H396 0.932 . S
C387 C384 1.358 . S
C387 C386 1.429 . S
C387 H397 0.930 . S
C388 C384 1.332 . S
C388 C389 1.394 . S
C388 H398 0.932 . S
C389 C385 1.308 . S
C389 C388 1.394 . S
C389 H399 0.929 . S
C390 Tb361 2.764 . S
C390 O374 1.239 . S
C390 O375 1.263 . S
C390 C384 1.504 . S
C391 O376 1.236 . S
C391 O377 1.257 . S
H392 C365 0.932 . S
H393 C366 0.930 . S
H394 C367 0.932 . S
H395 C368 0.929 . S
H396 C386 0.932 . S
H397 C387 0.930 . S
H398 C388 0.932 . S
H399 C389 0.929 . S
Tb400 C409 2.764 . S
Tb400 O410 2.325 . S
Tb400 O413 2.303 . S
Tb400 O417 2.322 . S
Tb400 O418 2.349 . S
Tb400 O421 2.415 . S
Tb400 O422 2.399 . S
Tb401 O411 2.322 . S
Tb401 O412 2.349 . S
Tb401 O414 2.415 . S
Tb401 O415 2.399 . S
Tb401 O416 2.325 . S
Tb401 O419 2.303 . S
Tb401 C430 2.739 1_565 S
C402 O418 1.261 . S
C402 O419 1.257 . S
C403 C406 1.358 . S
C403 C407 1.332 . S
C403 C409 1.504 . S
C404 C405 1.373 . S
C404 C408 1.308 . S
C405 C404 1.373 . S
C405 C406 1.429 . S
C405 H432 0.932 . S
C406 C403 1.358 . S
C406 C405 1.429 . S
C406 H433 0.930 . S
C407 C403 1.332 . S
C407 C408 1.394 . S
C407 H434 0.932 . S
C408 C404 1.308 . S
C408 C407 1.394 . S
C408 H435 0.929 . S
C409 Tb400 2.764 . S
C409 C403 1.504 . S
C409 O421 1.239 . S
C409 O422 1.263 . S
O410 Tb400 2.325 . S
O410 C420 1.236 . S
O411 Tb401 2.322 . S
O411 C420 1.257 . S
O412 Tb401 2.349 . S
O412 C423 1.261 . S
O413 Tb400 2.303 . S
O413 C423 1.257 . S
O414 Tb401 2.415 . S
O414 C430 1.227 1_565 S
O415 Tb401 2.399 . S
O415 C430 1.250 1_565 S
O416 Tb401 2.325 . S
O416 C431 1.236 . S
O417 Tb400 2.322 . S
O417 C431 1.257 . S
O418 Tb400 2.349 . S
O418 C402 1.261 . S
O419 Tb401 2.303 . S
O419 C402 1.257 . S
C420 O410 1.236 . S
C420 O411 1.257 . S
O421 Tb400 2.415 . S
O421 C409 1.239 . S
O422 Tb400 2.399 . S
O422 C409 1.263 . S
C423 O412 1.261 . S
C423 O413 1.257 . S
C424 C427 1.358 . S
C424 C428 1.332 . S
C424 C430 1.529 . S
C425 C426 1.373 . S
C425 C429 1.308 . S
C426 C425 1.373 . S
C426 C427 1.429 . S
C426 H436 0.932 . S
C427 C424 1.358 . S
C427 C426 1.429 . S
C427 H437 0.930 . S
C428 C424 1.332 . S
C428 C429 1.394 . S
C428 H438 0.932 . S
C429 C425 1.308 . S
C429 C428 1.394 . S
C429 H439 0.929 . S
C430 Tb401 2.739 1_545 S
C430 O414 1.227 1_545 S
C430 O415 1.250 1_545 S
C430 C424 1.529 . S
C431 O416 1.236 . S
C431 O417 1.257 . S
H432 C405 0.932 . S
H433 C406 0.930 . S
H434 C407 0.932 . S
H435 C408 0.929 . S
H436 C426 0.932 . S
H437 C427 0.930 . S
H438 C428 0.932 . S
H439 C429 0.929 . S
Tb440 C449 2.764 . S
Tb440 O450 2.325 . S
Tb440 O453 2.303 . S
Tb440 O457 2.322 . S
Tb440 O458 2.349 . S
Tb440 O461 2.415 . S
Tb440 O462 2.399 . S
Tb441 O451 2.322 . S
Tb441 O452 2.349 . S
Tb441 O454 2.415 . S
Tb441 O455 2.399 . S
Tb441 O456 2.325 . S
Tb441 O459 2.303 . S
Tb441 C470 2.764 . S
C442 O458 1.261 . S
C442 O459 1.257 . S
C443 C446 1.358 . S
C443 C447 1.332 . S
C443 C449 1.504 . S
C444 C445 1.373 . S
C444 C448 1.308 . S
C445 C444 1.373 . S
C445 C446 1.429 . S
C445 H472 0.932 . S
C446 C443 1.358 . S
C446 C445 1.429 . S
C446 H473 0.930 . S
C447 C443 1.332 . S
C447 C448 1.394 . S
C447 H474 0.932 . S
C448 C444 1.308 . S
C448 C447 1.394 . S
C448 H475 0.929 . S
C449 Tb440 2.764 . S
C449 C443 1.504 . S
C449 O461 1.239 . S
C449 O462 1.263 . S
O450 Tb440 2.325 . S
O450 C460 1.236 . S
O451 Tb441 2.322 . S
O451 C460 1.257 . S
O452 Tb441 2.349 . S
O452 C463 1.261 . S
O453 Tb440 2.303 . S
O453 C463 1.257 . S
O454 Tb441 2.415 . S
O454 C470 1.239 . S
O455 Tb441 2.399 . S
O455 C470 1.263 . S
O456 Tb441 2.325 . S
O456 C471 1.236 . S
O457 Tb440 2.322 . S
O457 C471 1.257 . S
O458 Tb440 2.349 . S
O458 C442 1.261 . S
O459 Tb441 2.303 . S
O459 C442 1.257 . S
C460 O450 1.236 . S
C460 O451 1.257 . S
O461 Tb440 2.415 . S
O461 C449 1.239 . S
O462 Tb440 2.399 . S
O462 C449 1.263 . S
C463 O452 1.261 . S
C463 O453 1.257 . S
C464 C467 1.358 . S
C464 C468 1.332 . S
C464 C470 1.504 . S
C465 C466 1.373 . S
C465 C469 1.308 . S
C466 C465 1.373 . S
C466 C467 1.429 . S
C466 H476 0.932 . S
C467 C464 1.358 . S
C467 C466 1.429 . S
C467 H477 0.930 . S
C468 C464 1.332 . S
C468 C469 1.394 . S
C468 H478 0.932 . S
C469 C465 1.308 . S
C469 C468 1.394 . S
C469 H479 0.929 . S
C470 Tb441 2.764 . S
C470 O454 1.239 . S
C470 O455 1.263 . S
C470 C464 1.504 . S
C471 O456 1.236 . S
C471 O457 1.257 . S
H472 C445 0.932 . S
H473 C446 0.930 . S
H474 C447 0.932 . S
H475 C448 0.929 . S
H476 C466 0.932 . S
H477 C467 0.930 . S
H478 C468 0.932 . S
H479 C469 0.929 . S
C480 C481 1.369 . S
C480 C482 1.419 . S
C480 H484 0.930 . S
C481 C480 1.369 . S
C481 C490 1.429 . S
C482 C480 1.419 . S
C482 C483 1.363 . S
C482 H485 0.929 . S
C483 C482 1.363 . S
C483 C489 1.428 . S
H484 C480 0.930 . S
H485 C482 0.929 . S
S486 N487 1.613 . S
S486 N488 1.610 . S
N487 S486 1.613 . S
N487 C490 1.350 . S
N488 S486 1.610 . S
N488 C489 1.351 . S
C489 C483 1.428 . S
C489 N488 1.351 . S
C489 C490 1.434 . S
C490 C481 1.429 . S
C490 N487 1.350 . S
C490 C489 1.434 . S
C491 C492 1.369 . S
C491 C493 1.419 1_455 S
C491 H495 0.930 . S
C492 C491 1.369 . S
C492 C501 1.429 1_455 S
C493 C491 1.419 1_655 S
C493 C494 1.363 . S
C493 H496 0.929 . S
C494 C493 1.363 . S
C494 C500 1.428 . S
H495 C491 0.930 . S
H496 C493 0.929 . S
S497 N498 1.613 . S
S497 N499 1.610 . S
N498 S497 1.613 . S
N498 C501 1.350 . S
N499 S497 1.610 . S
N499 C500 1.351 . S
C500 C494 1.428 . S
C500 N499 1.351 . S
C500 C501 1.434 . S
C501 C492 1.429 1_655 S
C501 N498 1.350 . S
C501 C500 1.434 . S
C502 C503 1.369 . S
C502 C504 1.419 . S
C502 H506 0.930 . S
C503 C502 1.369 . S
C503 C512 1.429 . S
C504 C502 1.419 . S
C504 C505 1.363 1_545 S
C504 H507 0.929 . S
C505 C504 1.363 1_565 S
C505 C511 1.428 . S
H506 C502 0.930 . S
H507 C504 0.929 . S
S508 N509 1.613 1_565 S
S508 N510 1.610 . S
N509 S508 1.613 1_545 S
N509 C512 1.350 . S
N510 S508 1.610 . S
N510 C511 1.351 . S
C511 C505 1.428 . S
C511 N510 1.351 . S
C511 C512 1.434 1_565 S
C512 C503 1.429 . S
C512 N509 1.350 . S
C512 C511 1.434 1_545 S
C513 C514 1.369 . S
C513 C515 1.419 . S
C513 H517 0.930 . S
C514 C513 1.369 . S
C514 C523 1.429 . S
C515 C513 1.419 . S
C515 C516 1.363 . S
C515 H518 0.929 . S
C516 C515 1.363 . S
C516 C522 1.428 . S
H517 C513 0.930 . S
H518 C515 0.929 . S
S519 N520 1.613 . S
S519 N521 1.610 . S
N520 S519 1.613 . S
N520 C523 1.350 . S
N521 S519 1.610 . S
N521 C522 1.351 . S
C522 C516 1.428 . S
C522 N521 1.351 . S
C522 C523 1.434 . S
C523 C514 1.429 . S
C523 N520 1.350 . S
C523 C522 1.434 . S
C524 C525 1.370 . S
C524 C526 1.409 1_455 S
C524 H528 0.939 . S
C525 C524 1.370 . S
C525 C534 1.429 . S
C526 C524 1.409 1_655 S
C526 C527 1.363 . S
C526 H529 0.929 . S
C527 C526 1.363 . S
C527 C533 1.428 . S
H528 C524 0.939 . S
H529 C526 0.929 . S
S530 N531 1.613 1_655 S
S530 N532 1.610 . S
N531 S530 1.613 1_455 S
N531 C534 1.350 . S
N532 S530 1.610 . S
N532 C533 1.351 . S
C533 C527 1.428 . S
C533 N532 1.351 . S
C533 C534 1.434 1_655 S
C534 C525 1.429 . S
C534 N531 1.350 . S
C534 C533 1.434 1_455 S
C535 C536 1.369 . S
C535 C537 1.419 1_565 S
C535 H539 0.930 . S
C536 C535 1.369 . S
C536 C545 1.429 . S
C537 C535 1.419 1_545 S
C537 C538 1.363 . S
C537 H540 0.929 . S
C538 C537 1.363 . S
C538 C544 1.428 . S
H539 C535 0.930 . S
H540 C537 0.929 . S
S541 N542 1.613 1_545 S
S541 N543 1.610 . S
N542 S541 1.613 1_565 S
N542 C545 1.350 . S
N543 S541 1.610 . S
N543 C544 1.351 . S
C544 C538 1.428 . S
C544 N543 1.351 . S
C544 C545 1.434 1_545 S
C545 C536 1.429 . S
C545 N542 1.350 . S
C545 C544 1.434 1_565 S
C546 C547 1.369 . S
C546 C548 1.419 . S
C546 H550 0.930 . S
C547 C546 1.369 . S
C547 C556 1.429 . S
C548 C546 1.419 . S
C548 C549 1.363 . S
C548 H551 0.929 . S
C549 C548 1.363 . S
C549 C555 1.428 . S
H550 C546 0.930 . S
H551 C548 0.929 . S
S552 N553 1.613 . S
S552 N554 1.610 . S
N553 S552 1.613 . S
N553 C556 1.350 . S
N554 S552 1.610 . S
N554 C555 1.351 . S
C555 C549 1.428 . S
C555 N554 1.351 . S
C555 C556 1.434 . S
C556 C547 1.429 . S
C556 N553 1.350 . S
C556 C555 1.434 . S
C557 C558 1.369 . S
C557 C559 1.419 1_455 S
C557 H561 0.930 . S
C558 C557 1.369 . S
C558 C567 1.429 . S
C559 C557 1.419 1_655 S
C559 C560 1.363 . S
C559 H562 0.929 . S
C560 C559 1.363 . S
C560 C566 1.428 . S
H561 C557 0.930 . S
H562 C559 0.929 . S
S563 N564 1.613 . S
S563 N565 1.610 1_455 S
N564 S563 1.613 . S
N564 C567 1.350 . S
N565 S563 1.610 1_655 S
N565 C566 1.351 . S
C566 C560 1.428 . S
C566 N565 1.351 . S
C566 C567 1.434 1_655 S
C567 C558 1.429 . S
C567 N564 1.350 . S
C567 C566 1.434 1_455 S
C568 C569 1.369 . S
C568 C570 1.419 1_565 S
C568 H572 0.930 . S
C569 C568 1.369 . S
C569 C578 1.429 . S
C570 C568 1.419 1_545 S
C570 C571 1.363 . S
C570 H573 0.929 . S
C571 C570 1.363 . S
C571 C577 1.428 1_545 S
H572 C568 0.930 . S
H573 C570 0.929 . S
S574 N575 1.613 . S
S574 N576 1.610 . S
N575 S574 1.613 . S
N575 C578 1.350 . S
N576 S574 1.610 . S
N576 C577 1.351 . S
C577 C571 1.428 1_565 S
C577 N576 1.351 . S
C577 C578 1.434 . S
C578 C569 1.429 . S
C578 N575 1.350 . S
C578 C577 1.434 . S
C579 C580 1.369 . S
C579 C581 1.419 . S
C579 H583 0.930 . S
C580 C579 1.369 . S
C580 C589 1.429 . S
C581 C579 1.419 . S
C581 C582 1.363 . S
C581 H584 0.929 . S
C582 C581 1.363 . S
C582 C588 1.428 . S
H583 C579 0.930 . S
H584 C581 0.929 . S
S585 N586 1.613 . S
S585 N587 1.610 . S
N586 S585 1.613 . S
N586 C589 1.350 . S
N587 S585 1.610 . S
N587 C588 1.351 . S
C588 C582 1.428 . S
C588 N587 1.351 . S
C588 C589 1.434 . S
C589 C580 1.429 . S
C589 N586 1.350 . S
C589 C588 1.434 . S
C590 C591 1.369 . S
C590 C592 1.419 1_455 S
C590 H594 0.930 . S
C591 C590 1.369 . S
C591 C600 1.429 . S
C592 C590 1.419 1_655 S
C592 C593 1.363 . S
C592 H595 0.929 . S
C593 C592 1.363 . S
C593 C599 1.428 1_655 S
H594 C590 0.930 . S
H595 C592 0.929 . S
S596 N597 1.613 . S
S596 N598 1.610 1_455 S
N597 S596 1.613 . S
N597 C600 1.350 . S
N598 S596 1.610 1_655 S
N598 C599 1.351 1_655 S
C599 C593 1.428 1_455 S
C599 N598 1.351 1_455 S
C599 C600 1.434 . S
C600 C591 1.429 . S
C600 N597 1.350 . S
C600 C599 1.434 . S
C601 C602 1.369 1_565 S
C601 C603 1.419 . S
C601 H605 0.930 1_565 S
C602 C601 1.369 1_545 S
C602 C611 1.429 . S
C603 C601 1.419 . S
C603 C604 1.363 . S
C603 H606 0.929 . S
C604 C603 1.363 . S
C604 C610 1.428 . S
H605 C601 0.930 1_545 S
H606 C603 0.929 . S
S607 N608 1.613 1_565 S
S607 N609 1.610 . S
N608 S607 1.613 1_545 S
N608 C611 1.350 . S
N609 S607 1.610 . S
N609 C610 1.351 . S
C610 C604 1.428 . S
C610 N609 1.351 . S
C610 C611 1.434 1_565 S
C611 C602 1.429 . S
C611 N608 1.350 . S
C611 C610 1.434 1_545 S
C612 C613 1.369 . S
C612 C614 1.419 . S
C612 H616 0.930 . S
C613 C612 1.369 . S
C613 C622 1.429 . S
C614 C612 1.419 . S
C614 C615 1.363 . S
C614 H617 0.929 . S
C615 C614 1.363 . S
C615 C621 1.428 . S
H616 C612 0.930 . S
H617 C614 0.929 . S
S618 N619 1.613 . S
S618 N620 1.610 . S
N619 S618 1.613 . S
N619 C622 1.350 . S
N620 S618 1.610 . S
N620 C621 1.351 . S
C621 C615 1.428 . S
C621 N620 1.351 . S
C621 C622 1.434 . S
C622 C613 1.429 . S
C622 N619 1.350 . S
C622 C621 1.434 . S
C623 C624 1.369 . S
C623 C625 1.419 . S
C623 H627 0.930 . S
C624 C623 1.369 . S
C624 C633 1.429 . S
C625 C623 1.419 . S
C625 C626 1.363 . S
C625 H628 0.929 . S
C626 C625 1.363 . S
C626 C632 1.428 . S
H627 C623 0.930 . S
H628 C625 0.929 . S
S629 N630 1.613 . S
S629 N631 1.610 . S
N630 S629 1.613 . S
N630 C633 1.350 . S
N631 S629 1.610 . S
N631 C632 1.351 . S
C632 C626 1.428 . S
C632 N631 1.351 . S
C632 C633 1.434 . S
C633 C624 1.429 . S
C633 N630 1.350 . S
C633 C632 1.434 . S
C634 C635 1.369 . S
C634 C636 1.419 . S
C634 H638 0.930 . S
C635 C634 1.369 . S
C635 C644 1.429 . S
C636 C634 1.419 . S
C636 C637 1.363 . S
C636 H639 0.929 . S
C637 C636 1.363 . S
C637 C643 1.428 . S
H638 C634 0.930 . S
H639 C636 0.929 . S
S640 N641 1.613 . S
S640 N642 1.610 . S
N641 S640 1.613 . S
N641 C644 1.350 . S
N642 S640 1.610 . S
N642 C643 1.351 . S
C643 C637 1.428 . S
C643 N642 1.351 . S
C643 C644 1.434 . S
C644 C635 1.429 . S
C644 N641 1.350 . S
C644 C643 1.434 . S
C645 C646 1.369 . S
C645 C647 1.419 . S
C645 H649 0.930 . S
C646 C645 1.369 . S
C646 C655 1.429 . S
C647 C645 1.419 . S
C647 C648 1.363 . S
C647 H650 0.929 . S
C648 C647 1.363 . S
C648 C654 1.428 . S
H649 C645 0.930 . S
H650 C647 0.929 . S
S651 N652 1.613 . S
S651 N653 1.610 . S
N652 S651 1.613 . S
N652 C655 1.350 . S
N653 S651 1.610 . S
N653 C654 1.351 . S
C654 C648 1.428 . S
C654 N653 1.351 . S
C654 C655 1.434 . S
C655 C646 1.429 . S
C655 N652 1.350 . S
C655 C654 1.434 . S
C656 C657 1.369 . S
C656 C658 1.419 . S
C656 H660 0.930 . S
C657 C656 1.369 . S
C657 C666 1.429 . S
C658 C656 1.419 . S
C658 C659 1.363 . S
C658 H661 0.929 . S
C659 C658 1.363 . S
C659 C665 1.428 . S
H660 C656 0.930 . S
H661 C658 0.929 . S
S662 N663 1.613 . S
S662 N664 1.610 . S
N663 S662 1.613 . S
N663 C666 1.350 . S
N664 S662 1.610 . S
N664 C665 1.351 . S
C665 C659 1.428 . S
C665 N664 1.351 . S
C665 C666 1.434 . S
C666 C657 1.429 . S
C666 N663 1.350 . S
C666 C665 1.434 . S
C667 C668 1.369 . S
C667 C669 1.419 . S
C667 H671 0.930 . S
C668 C667 1.369 . S
C668 C677 1.429 . S
C669 C667 1.419 . S
C669 C670 1.363 . S
C669 H672 0.929 . S
C670 C669 1.363 . S
C670 C676 1.428 . S
H671 C667 0.930 . S
H672 C669 0.929 . S
S673 N674 1.613 . S
S673 N675 1.610 . S
N674 S673 1.613 . S
N674 C677 1.350 . S
N675 S673 1.610 . S
N675 C676 1.351 . S
C676 C670 1.428 . S
C676 N675 1.351 . S
C676 C677 1.434 . S
C677 C668 1.429 . S
C677 N674 1.350 . S
C677 C676 1.434 . S
C678 C679 1.369 1_554 S
C678 C680 1.419 1_565 S
C678 H682 0.930 . S
C679 C678 1.369 1_556 S
C679 C688 1.429 . S
C680 C678 1.419 1_545 S
C680 C681 1.363 . S
C680 H683 0.929 . S
C681 C680 1.363 . S
C681 C687 1.428 1_554 S
H682 C678 0.930 . S
H683 C680 0.929 . S
S684 N685 1.613 1_545 S
S684 N686 1.610 . S
N685 S684 1.613 1_565 S
N685 C688 1.350 . S
N686 S684 1.610 . S
N686 C687 1.351 . S
C687 C681 1.428 1_556 S
C687 N686 1.351 . S
C687 C688 1.434 1_545 S
C688 C679 1.429 . S
C688 N685 1.350 . S
C688 C687 1.434 1_565 S
C689 C690 1.369 . S
C689 C691 1.419 . S
C689 H693 0.930 . S
C690 C689 1.369 . S
C690 C699 1.429 . S
C691 C689 1.419 . S
C691 C692 1.363 . S
C691 H694 0.929 . S
C692 C691 1.363 . S
C692 C698 1.428 . S
H693 C689 0.930 . S
H694 C691 0.929 . S
S695 N696 1.613 . S
S695 N697 1.610 . S
N696 S695 1.613 . S
N696 C699 1.350 . S
N697 S695 1.610 . S
N697 C698 1.351 . S
C698 C692 1.428 . S
C698 N697 1.351 . S
C698 C699 1.434 . S
C699 C690 1.429 . S
C699 N696 1.350 . S
C699 C698 1.434 . S
C700 C701 1.369 . S
C700 C702 1.419 1_455 S
C700 H704 0.930 . S
C701 C700 1.369 . S
C701 C710 1.429 1_556 S
C702 C700 1.419 1_655 S
C702 C703 1.363 1_556 S
C702 H705 0.929 . S
C703 C702 1.363 1_554 S
C703 C709 1.428 . S
H704 C700 0.930 . S
H705 C702 0.929 . S
S706 N707 1.613 . S
S706 N708 1.610 1_455 S
N707 S706 1.613 . S
N707 C710 1.350 . S
N708 S706 1.610 1_655 S
N708 C709 1.351 . S
C709 C703 1.428 . S
C709 N708 1.351 . S
C709 C710 1.434 1_655 S
C710 C701 1.429 1_554 S
C710 N707 1.350 . S
C710 C709 1.434 1_455 S
C711 C712 1.369 . S
C711 C713 1.419 1_545 S
C711 H715 0.930 . S
C712 C711 1.369 . S
C712 C721 1.429 . S
C713 C711 1.419 1_565 S
C713 C714 1.363 . S
C713 H716 0.929 . S
C714 C713 1.363 . S
C714 C720 1.428 . S
H715 C711 0.930 . S
H716 C713 0.929 . S
S717 N718 1.613 1_565 S
S717 N719 1.610 . S
N718 S717 1.613 1_545 S
N718 C721 1.350 . S
N719 S717 1.610 . S
N719 C720 1.351 . S
C720 C714 1.428 . S
C720 N719 1.351 . S
C720 C721 1.434 1_565 S
C721 C712 1.429 . S
C721 N718 1.350 . S
C721 C720 1.434 1_545 S
C722 C723 1.369 . S
C722 C724 1.419 . S
C722 H726 0.930 . S
C723 C722 1.369 . S
C723 C732 1.429 1_554 S
C724 C722 1.419 . S
C724 C725 1.363 1_554 S
C724 H727 0.929 . S
C725 C724 1.363 1_556 S
C725 C731 1.428 . S
H726 C722 0.930 . S
H727 C724 0.929 . S
S728 N729 1.613 . S
S728 N730 1.610 . S
N729 S728 1.613 . S
N729 C732 1.350 . S
N730 S728 1.610 . S
N730 C731 1.351 . S
C731 C725 1.428 . S
C731 N730 1.351 . S
C731 C732 1.434 . S
C732 C723 1.429 1_556 S
C732 N729 1.350 . S
C732 C731 1.434 . S
C733 C734 1.369 . S
C733 C735 1.419 1_455 S
C733 H737 0.930 . S
C734 C733 1.369 . S
C734 C743 1.429 . S
C735 C733 1.419 1_655 S
C735 C736 1.363 . S
C735 H738 0.929 . S
C736 C735 1.363 . S
C736 C742 1.428 . S
H737 C733 0.930 . S
H738 C735 0.929 . S
S739 N740 1.613 . S
S739 N741 1.610 1_455 S
N740 S739 1.613 . S
N740 C743 1.350 . S
N741 S739 1.610 1_655 S
N741 C742 1.351 . S
C742 C736 1.428 . S
C742 N741 1.351 . S
C742 C743 1.434 1_655 S
C743 C734 1.429 . S
C743 N740 1.350 . S
C743 C742 1.434 1_455 S
C744 C745 1.369 . S
C744 C746 1.419 . S
C744 H748 0.930 . S
C745 C744 1.369 . S
C745 C754 1.429 . S
C746 C744 1.419 . S
C746 C747 1.363 . S
C746 H749 0.929 . S
C747 C746 1.363 . S
C747 C753 1.428 . S
H748 C744 0.930 . S
H749 C746 0.929 . S
S750 N751 1.613 . S
S750 N752 1.610 . S
N751 S750 1.613 . S
N751 C754 1.350 . S
N752 S750 1.610 . S
N752 C753 1.351 . S
C753 C747 1.428 . S
C753 N752 1.351 . S
C753 C754 1.434 . S
C754 C745 1.429 . S
C754 N751 1.350 . S
C754 C753 1.434 . S
C755 C756 1.369 . S
C755 C757 1.419 . S
C755 H759 0.930 . S
C756 C755 1.369 . S
C756 C765 1.429 . S
C757 C755 1.419 . S
C757 C758 1.363 . S
C757 H760 0.929 . S
C758 C757 1.363 . S
C758 C764 1.428 . S
H759 C755 0.930 . S
H760 C757 0.929 . S
S761 N762 1.613 . S
S761 N763 1.610 . S
N762 S761 1.613 . S
N762 C765 1.350 . S
N763 S761 1.610 . S
N763 C764 1.351 . S
C764 C758 1.428 . S
C764 N763 1.351 . S
C764 C765 1.434 . S
C765 C756 1.429 . S
C765 N762 1.350 . S
C765 C764 1.434 . S
C766 C767 1.369 . S
C766 C768 1.419 . S
C766 H770 0.930 . S
C767 C766 1.369 . S
C767 C776 1.429 . S
C768 C766 1.419 . S
C768 C769 1.363 . S
C768 H771 0.929 . S
C769 C768 1.363 . S
C769 C775 1.428 . S
H770 C766 0.930 . S
H771 C768 0.929 . S
S772 N773 1.613 . S
S772 N774 1.610 . S
N773 S772 1.613 . S
N773 C776 1.350 . S
N774 S772 1.610 . S
N774 C775 1.351 . S
C775 C769 1.428 . S
C775 N774 1.351 . S
C775 C776 1.434 . S
C776 C767 1.429 . S
C776 N773 1.350 . S
C776 C775 1.434 . S
C777 C778 1.369 . S
C777 C779 1.419 . S
C777 H781 0.930 . S
C778 C777 1.369 . S
C778 C787 1.429 . S
C779 C777 1.419 . S
C779 C780 1.363 . S
C779 H782 0.929 . S
C780 C779 1.363 . S
C780 C786 1.428 . S
H781 C777 0.930 . S
H782 C779 0.929 . S
S783 N784 1.613 . S
S783 N785 1.610 . S
N784 S783 1.613 . S
N784 C787 1.350 . S
N785 S783 1.610 . S
N785 C786 1.351 . S
C786 C780 1.428 . S
C786 N785 1.351 . S
C786 C787 1.434 . S
C787 C778 1.429 . S
C787 N784 1.350 . S
C787 C786 1.434 . S
C788 C789 1.369 . S
C788 C790 1.419 . S
C788 H792 0.930 . S
C789 C788 1.369 . S
C789 C798 1.429 . S
C790 C788 1.419 . S
C790 C791 1.363 . S
C790 H793 0.929 . S
C791 C790 1.363 . S
C791 C797 1.428 . S
H792 C788 0.930 . S
H793 C790 0.929 . S
S794 N795 1.613 . S
S794 N796 1.610 . S
N795 S794 1.613 . S
N795 C798 1.350 . S
N796 S794 1.610 . S
N796 C797 1.351 . S
C797 C791 1.428 . S
C797 N796 1.351 . S
C797 C798 1.434 . S
C798 C789 1.429 . S
C798 N795 1.350 . S
C798 C797 1.434 . S
C799 C800 1.369 . S
C799 C801 1.419 . S
C799 H803 0.930 . S
C800 C799 1.369 . S
C800 C809 1.429 . S
C801 C799 1.419 . S
C801 C802 1.363 . S
C801 H804 0.929 . S
C802 C801 1.363 . S
C802 C808 1.428 . S
H803 C799 0.930 . S
H804 C801 0.929 . S
S805 N806 1.613 . S
S805 N807 1.610 . S
N806 S805 1.613 . S
N806 C809 1.350 . S
N807 S805 1.610 . S
N807 C808 1.351 . S
C808 C802 1.428 . S
C808 N807 1.351 . S
C808 C809 1.434 . S
C809 C800 1.429 . S
C809 N806 1.350 . S
C809 C808 1.434 . S
C810 C811 1.369 . S
C810 C812 1.419 . S
C810 H814 0.930 . S
C811 C810 1.369 . S
C811 C820 1.429 . S
C812 C810 1.419 . S
C812 C813 1.363 . S
C812 H815 0.929 . S
C813 C812 1.363 . S
C813 C819 1.428 . S
H814 C810 0.930 . S
H815 C812 0.929 . S
S816 N817 1.613 . S
S816 N818 1.610 . S
N817 S816 1.613 . S
N817 C820 1.350 . S
N818 S816 1.610 . S
N818 C819 1.351 . S
C819 C813 1.428 . S
C819 N818 1.351 . S
C819 C820 1.434 . S
C820 C811 1.429 . S
C820 N817 1.350 . S
C820 C819 1.434 . S
C821 C822 1.369 . S
C821 C823 1.419 . S
C821 H825 0.930 . S
C822 C821 1.369 . S
C822 C831 1.429 . S
C823 C821 1.419 . S
C823 C824 1.363 . S
C823 H826 0.929 . S
C824 C823 1.363 . S
C824 C830 1.428 . S
H825 C821 0.930 . S
H826 C823 0.929 . S
S827 N828 1.613 . S
S827 N829 1.610 . S
N828 S827 1.613 . S
N828 C831 1.350 . S
N829 S827 1.610 . S
N829 C830 1.351 . S
C830 C824 1.428 . S
C830 N829 1.351 . S
C830 C831 1.434 . S
C831 C822 1.429 . S
C831 N828 1.350 . S
C831 C830 1.434 . S
C832 C833 1.369 . S
C832 C834 1.419 . S
C832 H836 0.930 . S
C833 C832 1.369 . S
C833 C842 1.429 . S
C834 C832 1.419 . S
C834 C835 1.363 . S
C834 H837 0.929 . S
C835 C834 1.363 . S
C835 C841 1.428 . S
H836 C832 0.930 . S
H837 C834 0.929 . S
S838 N839 1.613 . S
S838 N840 1.610 . S
N839 S838 1.613 . S
N839 C842 1.350 . S
N840 S838 1.610 . S
N840 C841 1.351 . S
C841 C835 1.428 . S
C841 N840 1.351 . S
C841 C842 1.434 . S
C842 C833 1.429 . S
C842 N839 1.350 . S
C842 C841 1.434 . S
C843 C844 1.369 . S
C843 C845 1.419 . S
C843 H847 0.930 . S
C844 C843 1.369 . S
C844 C853 1.429 . S
C845 C843 1.419 . S
C845 C846 1.363 . S
C845 H848 0.929 . S
C846 C845 1.363 . S
C846 C852 1.428 . S
H847 C843 0.930 . S
H848 C845 0.929 . S
S849 N850 1.613 . S
S849 N851 1.610 . S
N850 S849 1.613 . S
N850 C853 1.350 . S
N851 S849 1.610 . S
N851 C852 1.351 . S
C852 C846 1.428 . S
C852 N851 1.351 . S
C852 C853 1.434 . S
C853 C844 1.429 . S
C853 N850 1.350 . S
C853 C852 1.434 . S
C854 C855 1.369 . S
C854 C856 1.419 . S
C854 H858 0.930 . S
C855 C854 1.369 . S
C855 C864 1.429 . S
C856 C854 1.419 . S
C856 C857 1.363 . S
C856 H859 0.929 . S
C857 C856 1.363 . S
C857 C863 1.428 . S
H858 C854 0.930 . S
H859 C856 0.929 . S
S860 N861 1.613 . S
S860 N862 1.610 . S
N861 S860 1.613 . S
N861 C864 1.350 . S
N862 S860 1.610 . S
N862 C863 1.351 . S
C863 C857 1.428 . S
C863 N862 1.351 . S
C863 C864 1.434 . S
C864 C855 1.429 . S
C864 N861 1.350 . S
C864 C863 1.434 . S
C865 C866 1.369 . S
C865 C867 1.419 . S
C865 H869 0.930 . S
C866 C865 1.369 . S
C866 C875 1.429 . S
C867 C865 1.419 . S
C867 C868 1.363 . S
C867 H870 0.929 . S
C868 C867 1.363 . S
C868 C874 1.428 . S
H869 C865 0.930 . S
H870 C867 0.929 . S
S871 N872 1.613 . S
S871 N873 1.610 . S
N872 S871 1.613 . S
N872 C875 1.350 . S
N873 S871 1.610 . S
N873 C874 1.351 . S
C874 C868 1.428 . S
C874 N873 1.351 . S
C874 C875 1.434 . S
C875 C866 1.429 . S
C875 N872 1.350 . S
C875 C874 1.434 . S
C481 C84 1.347 . S
C483 C20 1.345 . S
C492 C145 1.352 . S
C494 C71 1.340 . S
C503 C100 1.341 . S
C505 C164 1.352 . S
C514 C151 1.345 . S
C516 C225 1.350 . S
C525 C4 1.348 . S
C527 C180 1.345 . S
C536 C65 1.347 . S
C538 C231 1.345 . S
C547 C425 1.349 . S
C549 C271 1.343 . S
C558 C300 1.335 . S
C560 C444 1.357 . S
C569 C351 1.340 . S
C571 C265 1.353 . S
C580 C380 1.335 . S
C582 C284 1.357 . S
C591 C431 1.342 . S
C593 C345 1.351 . S
C602 C364 1.355 . S
C604 C460 1.338 . S
C613 C143 1.716 . S
C615 C2 1.716 . S
C624 C63 1.714 . S
C626 C162 1.715 . S
C635 C82 1.715 . S
C637 C223 1.715 . S
C646 C263 1.716 . S
C648 C362 1.717 . S
C657 C282 1.715 . S
C659 C423 1.716 . S
C668 C343 1.718 . S
C670 C442 1.718 . S
C679 C303 2.508 . S
C681 C23 2.513 . S
C690 C42 2.512 . S
C692 C322 2.509 . S
C701 C383 2.514 . S
C703 C103 2.509 . S
C712 C122 2.508 . S
C714 C402 2.513 . S
C723 C183 2.513 . S
C725 C463 2.510 . S
C734 C242 2.514 . S
C736 C202 2.509 . S
C745 C105 1.626 . S
C747 C31 1.626 . S
C756 C60 1.620 . S
C758 C124 1.631 . S
C767 C111 1.622 . S
C769 C185 1.630 . S
C778 C140 1.627 . S
C780 C204 1.627 . S
C789 C25 1.629 . S
C791 C191 1.623 . S
C800 C44 1.626 . S
C802 C220 1.626 . S
C811 C404 1.634 . S
C813 C260 1.619 . S
C822 C311 1.618 . S
C824 C465 1.633 . S
C833 C340 1.626 . S
C835 C244 1.628 . S
C844 C305 1.630 . S
C846 C391 1.623 . S
C855 C420 1.625 . S
C857 C324 1.629 . S
C866 C471 1.620 . S
C868 C385 1.632 . S
