# Generated by pormake.
# Topology ske, (6)-cn, num edge types: 1
# Building blocks:
#     Node 0, Type 0, BuildingBlock: BETDAH_clean_sbu_0, # of connection points: 6
#     Node 1, Type 0, BuildingBlock: BETDAH_clean_sbu_0, # of connection points: 6
#     Node 2, Type 0, BuildingBlock: BETDAH_clean_sbu_0, # of connection points: 6
#     Node 3, Type 0, BuildingBlock: BETDAH_clean_sbu_0, # of connection points: 6
#     Node 4, Type 0, BuildingBlock: BETDAH_clean_sbu_0, # of connection points: 6
#     Node 5, Type 0, BuildingBlock: BETDAH_clean_sbu_0, # of connection points: 6
#     Node 6, Type 0, BuildingBlock: BETDAH_clean_sbu_0, # of connection points: 6
#     Node 7, Type 0, BuildingBlock: BETDAH_clean_sbu_0, # of connection points: 6
#     Edge 8, Type (0, 0), BuildingBlock: UVAHIK_clean_linker_0, # of connection points: 2
#     Edge 9, Type (0, 0), BuildingBlock: UVAHIK_clean_linker_0, # of connection points: 2
#     Edge 10, Type (0, 0), BuildingBlock: UVAHIK_clean_linker_0, # of connection points: 2
#     Edge 11, Type (0, 0), BuildingBlock: UVAHIK_clean_linker_0, # of connection points: 2
#     Edge 12, Type (0, 0), BuildingBlock: UVAHIK_clean_linker_0, # of connection points: 2
#     Edge 13, Type (0, 0), BuildingBlock: UVAHIK_clean_linker_0, # of connection points: 2
#     Edge 14, Type (0, 0), BuildingBlock: UVAHIK_clean_linker_0, # of connection points: 2
#     Edge 15, Type (0, 0), BuildingBlock: UVAHIK_clean_linker_0, # of connection points: 2
#     Edge 16, Type (0, 0), BuildingBlock: UVAHIK_clean_linker_0, # of connection points: 2
#     Edge 17, Type (0, 0), BuildingBlock: UVAHIK_clean_linker_0, # of connection points: 2
#     Edge 18, Type (0, 0), BuildingBlock: UVAHIK_clean_linker_0, # of connection points: 2
#     Edge 19, Type (0, 0), BuildingBlock: UVAHIK_clean_linker_0, # of connection points: 2
#     Edge 20, Type (0, 0), BuildingBlock: UVAHIK_clean_linker_0, # of connection points: 2
#     Edge 21, Type (0, 0), BuildingBlock: UVAHIK_clean_linker_0, # of connection points: 2
#     Edge 22, Type (0, 0), BuildingBlock: UVAHIK_clean_linker_0, # of connection points: 2
#     Edge 23, Type (0, 0), BuildingBlock: UVAHIK_clean_linker_0, # of connection points: 2
#     Edge 24, Type (0, 0), BuildingBlock: UVAHIK_clean_linker_0, # of connection points: 2
#     Edge 25, Type (0, 0), BuildingBlock: UVAHIK_clean_linker_0, # of connection points: 2
#     Edge 26, Type (0, 0), BuildingBlock: UVAHIK_clean_linker_0, # of connection points: 2
#     Edge 27, Type (0, 0), BuildingBlock: UVAHIK_clean_linker_0, # of connection points: 2
#     Edge 28, Type (0, 0), BuildingBlock: UVAHIK_clean_linker_0, # of connection points: 2
#     Edge 29, Type (0, 0), BuildingBlock: UVAHIK_clean_linker_0, # of connection points: 2
#     Edge 30, Type (0, 0), BuildingBlock: UVAHIK_clean_linker_0, # of connection points: 2
#     Edge 31, Type (0, 0), BuildingBlock: UVAHIK_clean_linker_0, # of connection points: 2
# Relax obj value: 0.203
# Max RMSD: 0.206
# Mean RMSD: 0.200
data_MOF--net-ske--node1-BETDAH_clean_sbu_0--edge1-UVAHIK_clean_linker_0
_symmetry_space_group_name_H-M    P1
_symmetry_Int_Tables_number       1
_symmetry_cell_setting            triclinic
loop_
_symmetry_equiv_pos_as_xyz
'x, y, z'
_cell_length_a     120.03006
_cell_length_b     37.753936
_cell_length_c     20.071959
_cell_angle_alpha  89.897847
_cell_angle_beta   90.025505
_cell_angle_gamma 83.771822
loop_
_atom_site_label
_atom_site_type_symbol
_atom_site_fract_x
_atom_site_fract_y
_atom_site_fract_z
_atom_type_partial_charge
Ho0 Ho 0.15166 0.25918 0.54248 0.0
Ho1 Ho 0.12679 0.24745 0.54836 0.0
C2 C 0.13999 0.24934 0.68557 0.0
C3 C 0.17124 0.2821 0.5517 0.0
C4 C 0.18196 0.27695 0.58888 0.0
C5 C 0.18717 0.30698 0.60724 0.0
C6 C 0.19789 0.3032 0.63567 0.0
C7 C 0.20368 0.2692 0.64624 0.0
C8 C 0.1983 0.23906 0.62954 0.0
C9 C 0.18754 0.24288 0.60122 0.0
C10 C 0.14751 0.1901 0.53388 0.0
C11 C 0.13871 0.25559 0.40522 0.0
C12 C 0.10728 0.22379 0.54371 0.0
C13 C 0.09564 0.23037 0.51911 0.0
C14 C 0.08942 0.20126 0.51208 0.0
C15 C 0.0779 0.20652 0.49924 0.0
C16 C 0.07231 0.24113 0.49299 0.0
C17 C 0.07869 0.2703 0.49735 0.0
C18 C 0.09024 0.26498 0.51044 0.0
C19 C 0.13091 0.31706 0.55144 0.0
O20 O 0.1479 0.26382 0.65269 0.0
O21 O 0.13201 0.23473 0.65374 0.0
O22 O 0.16897 0.25645 0.51192 0.0
O23 O 0.16238 0.29674 0.58327 0.0
O24 O 0.15593 0.20293 0.50602 0.0
O25 O 0.1424 0.21352 0.57062 0.0
O26 O 0.13085 0.2409 0.43852 0.0
O27 O 0.14657 0.27112 0.43667 0.0
O28 O 0.11029 0.24546 0.58935 0.0
O29 O 0.11528 0.21432 0.50102 0.0
O30 O 0.12227 0.30511 0.57842 0.0
O31 O 0.13608 0.29244 0.51808 0.0
H32 H 0.18307 0.33351 0.59773 0.0
H33 H 0.20179 0.32702 0.6471 0.0
H34 H 0.20243 0.21248 0.63786 0.0
H35 H 0.18372 0.21921 0.58769 0.0
H36 H 0.09339 0.17436 0.51935 0.0
H37 H 0.07331 0.18339 0.49725 0.0
H38 H 0.07473 0.29731 0.49178 0.0
H39 H 0.09487 0.28789 0.51584 0.0
Ho40 Ho 0.87116 0.25278 0.54419 0.0
Ho41 Ho 0.89618 0.26372 0.54827 0.0
C42 C 0.88324 0.26105 0.68639 0.0
C43 C 0.85161 0.22975 0.55414 0.0
C44 C 0.84084 0.23499 0.59075 0.0
C45 C 0.83627 0.20509 0.61626 0.0
C46 C 0.82549 0.20836 0.64377 0.0
C47 C 0.81897 0.24166 0.64619 0.0
C48 C 0.82372 0.27183 0.62264 0.0
C49 C 0.83453 0.26854 0.59517 0.0
C50 C 0.87542 0.32188 0.53796 0.0
C51 C 0.88384 0.25757 0.40608 0.0
C52 C 0.91576 0.28683 0.54256 0.0
C53 C 0.92746 0.28036 0.51863 0.0
C54 C 0.93292 0.30969 0.49895 0.0
C55 C 0.94448 0.30595 0.48743 0.0
C56 C 0.95088 0.27271 0.49539 0.0
C57 C 0.9453 0.24291 0.51176 0.0
C58 C 0.9337 0.24671 0.5235 0.0
C59 C 0.89185 0.19429 0.5502 0.0
O60 O 0.87522 0.24694 0.65384 0.0
O61 O 0.89119 0.27572 0.65426 0.0
O62 O 0.85388 0.25496 0.51317 0.0
O63 O 0.86047 0.21554 0.58648 0.0
O64 O 0.86668 0.3099 0.51232 0.0
O65 O 0.88071 0.2977 0.57243 0.0
O66 O 0.89182 0.27173 0.43916 0.0
O67 O 0.87599 0.24203 0.43764 0.0
O68 O 0.91269 0.26575 0.58918 0.0
O69 O 0.90778 0.29607 0.49948 0.0
O70 O 0.90065 0.20571 0.57635 0.0
O71 O 0.88663 0.21937 0.51794 0.0
H72 H 0.84094 0.17892 0.6133 0.0
H73 H 0.82222 0.18464 0.6625 0.0
H74 H 0.81894 0.29786 0.62314 0.0
H75 H 0.8378 0.29211 0.57572 0.0
H76 H 0.9283 0.33592 0.49517 0.0
H77 H 0.94845 0.32933 0.47376 0.0
H78 H 0.94996 0.21696 0.51862 0.0
H79 H 0.92971 0.22365 0.53898 0.0
Ho80 Ho 0.12675 0.74758 0.47734 0.0
Ho81 Ho 0.15167 0.75884 0.48283 0.0
C82 C 0.13882 0.75445 0.62037 0.0
C83 C 0.10713 0.72461 0.48211 0.0
C84 C 0.09546 0.73137 0.50605 0.0
C85 C 0.08924 0.70228 0.51385 0.0
C86 C 0.07772 0.70757 0.52626 0.0
C87 C 0.0721 0.7422 0.53133 0.0
C88 C 0.07848 0.77137 0.52614 0.0
C89 C 0.09004 0.76601 0.51345 0.0
C90 C 0.13105 0.81699 0.47462 0.0
C91 C 0.13988 0.74948 0.34003 0.0
C92 C 0.17121 0.78202 0.47359 0.0
C93 C 0.1819 0.77701 0.4362 0.0
C94 C 0.18708 0.80711 0.41763 0.0
C95 C 0.19779 0.80343 0.38918 0.0
C96 C 0.20362 0.76948 0.37882 0.0
C97 C 0.19826 0.73928 0.39568 0.0
C98 C 0.18751 0.74299 0.42399 0.0
C99 C 0.14749 0.6897 0.49032 0.0
O100 O 0.13087 0.74027 0.58701 0.0
O101 O 0.14672 0.76983 0.58905 0.0
O102 O 0.11023 0.746 0.43613 0.0
O103 O 0.11508 0.7152 0.5253 0.0
O104 O 0.12248 0.80526 0.44645 0.0
O105 O 0.13615 0.79222 0.50814 0.0
O106 O 0.1478 0.764 0.37275 0.0
O107 O 0.13194 0.73471 0.37207 0.0
O108 O 0.16899 0.7562 0.51328 0.0
O109 O 0.16231 0.79676 0.44231 0.0
O110 O 0.15612 0.70207 0.51663 0.0
O111 O 0.14229 0.71354 0.4547 0.0
H112 H 0.09323 0.67534 0.50756 0.0
H113 H 0.07314 0.68442 0.52889 0.0
H114 H 0.0745 0.7984 0.53079 0.0
H115 H 0.09466 0.78891 0.50743 0.0
H116 H 0.18296 0.83361 0.42704 0.0
H117 H 0.20167 0.8273 0.37761 0.0
H118 H 0.20241 0.71272 0.3875 0.0
H119 H 0.18371 0.71927 0.43768 0.0
Ho120 Ho 0.89597 0.76424 0.47724 0.0
Ho121 Ho 0.87104 0.75239 0.48119 0.0
C122 C 0.88367 0.75747 0.6193 0.0
C123 C 0.91545 0.78803 0.48321 0.0
C124 C 0.9272 0.78146 0.50641 0.0
C125 C 0.9327 0.81072 0.52571 0.0
C126 C 0.94428 0.80689 0.53674 0.0
C127 C 0.95064 0.77362 0.52868 0.0
C128 C 0.94502 0.74389 0.51265 0.0
C129 C 0.9334 0.74779 0.50136 0.0
C130 C 0.89194 0.69455 0.47527 0.0
C131 C 0.88305 0.76139 0.33905 0.0
C132 C 0.85156 0.72887 0.47114 0.0
C133 C 0.8408 0.73431 0.4345 0.0
C134 C 0.83563 0.70441 0.41485 0.0
C135 C 0.82489 0.70836 0.38679 0.0
C136 C 0.81902 0.7424 0.37786 0.0
C137 C 0.82436 0.77243 0.39589 0.0
C138 C 0.83514 0.76844 0.42385 0.0
C139 C 0.87507 0.82173 0.48787 0.0
O140 O 0.89154 0.77217 0.58618 0.0
O141 O 0.87592 0.74147 0.58772 0.0
O142 O 0.91237 0.7676 0.43571 0.0
O143 O 0.90753 0.79627 0.52705 0.0
O144 O 0.90068 0.70643 0.4493 0.0
O145 O 0.88659 0.71932 0.50748 0.0
O146 O 0.87511 0.74686 0.37158 0.0
O147 O 0.89093 0.77635 0.37123 0.0
O148 O 0.85379 0.75392 0.51239 0.0
O149 O 0.86042 0.71508 0.43851 0.0
O150 O 0.86639 0.80931 0.51342 0.0
O151 O 0.88039 0.79781 0.45316 0.0
H152 H 0.9281 0.83697 0.52962 0.0
H153 H 0.94829 0.83022 0.55017 0.0
H154 H 0.94966 0.71792 0.50573 0.0
H155 H 0.92937 0.72479 0.48617 0.0
H156 H 0.83978 0.67782 0.42305 0.0
H157 H 0.82102 0.68461 0.37431 0.0
H158 H 0.82017 0.79905 0.38886 0.0
H159 H 0.83893 0.79201 0.43841 0.0
Ho160 Ho 0.65164 0.75775 0.04682 0.0
Ho161 Ho 0.6268 0.7467 0.05392 0.0
C162 C 0.64018 0.74724 0.19039 0.0
C163 C 0.67129 0.78011 0.05573 0.0
C164 C 0.6819 0.77511 0.09408 0.0
C165 C 0.68703 0.80519 0.11316 0.0
C166 C 0.69769 0.80149 0.1424 0.0
C167 C 0.70352 0.76754 0.15301 0.0
C168 C 0.6982 0.73735 0.13572 0.0
C169 C 0.68751 0.74108 0.10665 0.0
C170 C 0.64734 0.68891 0.03689 0.0
C171 C 0.63854 0.75477 0.91003 0.0
C172 C 0.60712 0.72423 0.05016 0.0
C173 C 0.59545 0.73101 0.0259 0.0
C174 C 0.58926 0.70193 0.01766 0.0
C175 C 0.57772 0.70722 1.00536 0.0
C176 C 0.57209 0.74185 1.00088 0.0
C177 C 0.57844 0.77103 1.00643 0.0
C178 C 0.59001 0.76567 0.01897 0.0
C179 C 0.63121 0.81609 0.05743 0.0
O180 O 0.64806 0.76184 0.15741 0.0
O181 O 0.63216 0.73288 0.15857 0.0
O182 O 0.66901 0.7539 0.01736 0.0
O183 O 0.6624 0.79575 0.08559 0.0
O184 O 0.65569 0.70185 1.00855 0.0
O185 O 0.64234 0.71208 0.0747 0.0
O186 O 0.63063 0.74047 0.94363 0.0
O187 O 0.64651 0.76988 0.9412 0.0
O188 O 0.61026 0.74603 0.09514 0.0
O189 O 0.61506 0.71404 1.00752 0.0
O190 O 0.62275 0.80422 0.08659 0.0
O191 O 0.63612 0.79148 0.02298 0.0
H192 H 0.68293 0.8317 0.10352 0.0
H193 H 0.70154 0.82535 0.15435 0.0
H194 H 0.70235 0.71079 0.14407 0.0
H195 H 0.68375 0.71735 0.09262 0.0
H196 H 0.59326 0.67497 0.02361 0.0
H197 H 0.57316 0.68406 1.0024 0.0
H198 H 0.57445 0.79807 1.00223 0.0
H199 H 0.59461 0.78857 0.02535 0.0
Ho200 Ho 0.37091 0.75452 0.04654 0.0
Ho201 Ho 0.39577 0.76524 0.05376 0.0
C202 C 0.38238 0.7648 0.19015 0.0
C203 C 0.35121 0.73241 0.05539 0.0
C204 C 0.34062 0.73734 0.09381 0.0
C205 C 0.33544 0.70724 0.1124 0.0
C206 C 0.32479 0.71091 0.14167 0.0
C207 C 0.31902 0.74487 0.15283 0.0
C208 C 0.32438 0.77506 0.13601 0.0
C209 C 0.33507 0.77136 0.1069 0.0
C210 C 0.3753 0.82326 0.03631 0.0
C211 C 0.38402 0.75734 0.90979 0.0
C212 C 0.41549 0.7874 0.04999 0.0
C213 C 0.42719 0.78111 0.02582 0.0
C214 C 0.43269 0.81062 1.0078 0.0
C215 C 0.44426 0.80692 0.99657 0.0
C216 C 0.45062 0.77353 1.00318 0.0
C217 C 0.445 0.74359 0.01781 0.0
C218 C 0.43339 0.74735 0.02927 0.0
C219 C 0.39127 0.69595 0.05758 0.0
O220 O 0.37447 0.75035 0.15717 0.0
O221 O 0.39044 0.77903 0.15834 0.0
O222 O 0.35351 0.75876 0.01727 0.0
O223 O 0.36011 0.71653 0.08508 0.0
O224 O 0.36694 0.81045 1.0079 0.0
O225 O 0.38027 0.80002 0.07429 0.0
O226 O 0.39197 0.77145 0.94337 0.0
O227 O 0.37601 0.74242 0.94099 0.0
O228 O 0.41235 0.76538 0.09472 0.0
O229 O 0.40752 0.79807 1.00771 0.0
O230 O 0.39974 0.70769 0.0868 0.0
O231 O 0.38639 0.72063 0.02295 0.0
H232 H 0.3395 0.68074 0.10234 0.0
H233 H 0.32091 0.68706 0.15323 0.0
H234 H 0.32028 0.80162 0.14478 0.0
H235 H 0.33886 0.7951 0.09324 0.0
H236 H 0.4281 0.83695 1.00518 0.0
H237 H 0.44827 0.83043 0.98424 0.0
H238 H 0.44963 0.71752 0.0236 0.0
H239 H 0.42937 0.72414 0.04349 0.0
Ho240 Ho 0.62675 0.24682 0.97158 0.0
Ho241 Ho 0.65158 0.2579 0.9786 0.0
C242 C 0.63851 0.25478 0.11541 0.0
C243 C 0.60709 0.22414 0.97545 0.0
C244 C 0.59542 0.2309 0.9996 0.0
C245 C 0.58922 0.20181 1.00779 0.0
C246 C 0.57769 0.2071 0.02002 0.0
C247 C 0.57206 0.24173 0.02445 0.0
C248 C 0.57842 0.27091 0.01895 0.0
C249 C 0.58998 0.26555 1.00649 0.0
C250 C 0.63108 0.31623 0.96804 0.0
C251 C 0.6401 0.24761 0.83507 0.0
C252 C 0.67125 0.28016 0.96975 0.0
C253 C 0.68187 0.27556 0.93136 0.0
C254 C 0.68628 0.30581 0.90613 0.0
C255 C 0.69695 0.30303 0.87724 0.0
C256 C 0.70354 0.26988 0.87317 0.0
C257 C 0.69893 0.23938 0.89639 0.0
C258 C 0.68823 0.24217 0.92518 0.0
C259 C 0.64723 0.18905 0.98881 0.0
O260 O 0.6306 0.24047 0.08187 0.0
O261 O 0.64647 0.26992 0.08418 0.0
O262 O 0.61022 0.24592 0.93025 0.0
O263 O 0.61504 0.21408 0.01824 0.0
O264 O 0.6226 0.30436 0.9391 0.0
O265 O 0.63607 0.29162 1.00238 0.0
O266 O 0.64799 0.26214 0.868 0.0
O267 O 0.63207 0.23322 0.86692 0.0
O268 O 0.66898 0.25373 1.00777 0.0
O269 O 0.66233 0.29606 0.94031 0.0
O270 O 0.65558 0.20193 0.0173 0.0
O271 O 0.64229 0.2123 0.95082 0.0
H272 H 0.59322 0.17486 1.00188 0.0
H273 H 0.57312 0.18395 0.02294 0.0
H274 H 0.57443 0.29795 0.02312 0.0
H275 H 0.59459 0.28846 1.00015 0.0
H276 H 0.68157 0.33187 0.91043 0.0
H277 H 0.7001 0.32701 0.85882 0.0
H278 H 0.70376 0.21345 0.8947 0.0
H279 H 0.6851 0.21832 0.94437 0.0
Ho280 Ho 0.39578 0.26554 0.97156 0.0
Ho281 Ho 0.37096 0.25428 0.97857 0.0
C282 C 0.38403 0.25741 0.11539 0.0
C283 C 0.41543 0.28824 0.97554 0.0
C284 C 0.42714 0.28185 0.99945 0.0
C285 C 0.43267 0.3113 0.01727 0.0
C286 C 0.44425 0.30749 0.02838 0.0
C287 C 0.45059 0.27406 0.02186 0.0
C288 C 0.44493 0.24419 1.00739 0.0
C289 C 0.43332 0.24805 0.99606 0.0
C290 C 0.39149 0.19609 0.96822 0.0
C291 C 0.38242 0.26479 0.83502 0.0
C292 C 0.35131 0.23187 0.96973 0.0
C293 C 0.34071 0.23677 0.93129 0.0
C294 C 0.33551 0.20667 0.91328 0.0
C295 C 0.32486 0.21034 0.88395 0.0
C296 C 0.31912 0.2443 0.87217 0.0
C297 C 0.32451 0.27449 0.8884 0.0
C298 C 0.33519 0.27079 0.91757 0.0
C299 C 0.37526 0.32317 0.98852 0.0
O300 O 0.39192 0.27181 0.0818 0.0
O301 O 0.37609 0.24219 0.0842 0.0
O302 O 0.41229 0.26659 0.93024 0.0
O303 O 0.40748 0.29829 0.01824 0.0
O304 O 0.39995 0.20807 0.93924 0.0
O305 O 0.38649 0.22063 1.0025 0.0
O306 O 0.37455 0.25015 0.868 0.0
O307 O 0.39043 0.27923 0.86685 0.0
O308 O 0.35358 0.25819 1.00787 0.0
O309 O 0.36022 0.21619 0.94002 0.0
O310 O 0.36692 0.3102 0.01699 0.0
O311 O 0.38021 0.29998 0.95065 0.0
H312 H 0.42811 0.33764 0.01985 0.0
H313 H 0.44829 0.33095 0.04058 0.0
H314 H 0.44954 0.21809 1.00167 0.0
H315 H 0.42927 0.2249 0.98199 0.0
H316 H 0.33955 0.18017 0.92382 0.0
H317 H 0.32095 0.18649 0.87285 0.0
H318 H 0.32042 0.30105 0.87914 0.0
H319 H 0.33901 0.29453 0.93077 0.0
C320 C 0.21877 0.28826 0.7218 0.0
C321 C 0.21545 0.2654 0.67197 0.0
C322 C 0.22992 0.28584 0.74347 0.0
C323 C 0.25657 0.22546 0.74553 0.0
H324 H 0.26997 0.31263 0.77926 0.0
C325 C 0.30412 0.22501 0.79622 0.0
C326 C 0.30739 0.24806 0.84585 0.0
C327 C 0.29299 0.22744 0.77404 0.0
C328 C 0.26634 0.28799 0.7708 0.0
H329 H 0.2214 0.22203 0.60591 0.0
H330 H 0.2408 0.21777 0.64368 0.0
H331 H 0.25045 0.31574 0.74413 0.0
H332 H 0.30139 0.29175 0.91107 0.0
H333 H 0.28204 0.29598 0.87254 0.0
H334 H 0.27246 0.19771 0.77229 0.0
C335 C 0.23474 0.23729 0.66677 0.0
C336 C 0.25512 0.28977 0.75066 0.0
C337 C 0.22358 0.23971 0.64511 0.0
C338 C 0.29924 0.27393 0.87202 0.0
C339 C 0.28811 0.27633 0.84991 0.0
C340 C 0.2678 0.22368 0.76571 0.0
C341 C 0.23809 0.26049 0.71593 0.0
C342 C 0.25006 0.25853 0.73777 0.0
C343 C 0.2848 0.25297 0.80091 0.0
C344 C 0.27285 0.25492 0.77867 0.0
H345 H 0.21272 0.30801 0.7444 0.0
H346 H 0.23213 0.30372 0.78227 0.0
H347 H 0.25294 0.20082 0.73706 0.0
H348 H 0.31018 0.20511 0.77419 0.0
H349 H 0.29082 0.20942 0.73539 0.0
C350 C 0.72229 0.29385 0.86351 0.0
C351 C 0.7153 0.26742 0.84759 0.0
C352 C 0.73341 0.29123 0.84137 0.0
C353 C 0.75285 0.24634 0.71594 0.0
H354 H 0.77583 0.27371 0.83532 0.0
C355 C 0.80012 0.21823 0.65467 0.0
C356 C 0.80713 0.24458 0.67065 0.0
C357 C 0.78897 0.22111 0.67624 0.0
C358 C 0.76951 0.26634 0.80099 0.0
H359 H 0.71464 0.21763 0.79474 0.0
H360 H 0.73408 0.21273 0.75718 0.0
H361 H 0.75638 0.27843 0.87224 0.0
H362 H 0.80779 0.29458 0.72277 0.0
H363 H 0.7883 0.29991 0.75944 0.0
H364 H 0.76599 0.2342 0.64473 0.0
C365 C 0.7309 0.23574 0.78632 0.0
C366 C 0.75833 0.26905 0.8222 0.0
C367 C 0.71977 0.23836 0.80852 0.0
C368 C 0.80265 0.2739 0.70901 0.0
C369 C 0.79148 0.27676 0.73068 0.0
C370 C 0.76403 0.24361 0.69475 0.0
C371 C 0.7379 0.26208 0.80269 0.0
C372 C 0.74983 0.2591 0.77999 0.0
C373 C 0.78447 0.25045 0.71443 0.0
C374 C 0.77253 0.25356 0.73698 0.0
H375 H 0.71923 0.31638 0.89421 0.0
H376 H 0.73847 0.31226 0.85434 0.0
H377 H 0.74654 0.23896 0.68162 0.0
H378 H 0.8032 0.19551 0.62449 0.0
H379 H 0.78389 0.20011 0.66335 0.0
C380 C 0.29913 0.77436 0.15256 0.0
C381 C 0.30729 0.74862 0.17911 0.0
C382 C 0.288 0.77675 0.17468 0.0
C383 C 0.26773 0.72419 0.25982 0.0
H384 H 0.25034 0.81621 0.28008 0.0
C385 C 0.22354 0.74015 0.38026 0.0
C386 C 0.21539 0.76577 0.35316 0.0
C387 C 0.23469 0.73778 0.35862 0.0
C388 C 0.25502 0.79025 0.27392 0.0
H389 H 0.31013 0.70587 0.25147 0.0
H390 H 0.29077 0.71015 0.29027 0.0
H391 H 0.26985 0.81314 0.24487 0.0
H392 H 0.21262 0.80832 0.28036 0.0
H393 H 0.23202 0.80411 0.24247 0.0
H394 H 0.2529 0.70131 0.28889 0.0
C395 C 0.29292 0.72808 0.25132 0.0
C396 C 0.26624 0.78848 0.25374 0.0
C397 C 0.30405 0.72567 0.22913 0.0
C398 C 0.21868 0.78863 0.30313 0.0
C399 C 0.22983 0.78624 0.28146 0.0
C400 C 0.25651 0.72596 0.28003 0.0
C401 C 0.28471 0.75349 0.22407 0.0
C402 C 0.27277 0.75543 0.24635 0.0
C403 C 0.23802 0.76095 0.30921 0.0
C404 C 0.24999 0.75901 0.28732 0.0
H405 H 0.30125 0.7921 0.11322 0.0
H406 H 0.28191 0.79631 0.15176 0.0
H407 H 0.27241 0.69822 0.25363 0.0
H408 H 0.22137 0.72248 0.41963 0.0
H409 H 0.24077 0.7183 0.38189 0.0
C410 C 0.72345 0.7384 0.15209 0.0
C411 C 0.71525 0.7638 0.1792 0.0
C412 C 0.73458 0.73601 0.17416 0.0
C413 C 0.75479 0.78816 0.26065 0.0
H414 H 0.77232 0.69617 0.27836 0.0
C415 C 0.79907 0.77151 0.38044 0.0
C416 C 0.80723 0.74631 0.35239 0.0
C417 C 0.7879 0.77399 0.35896 0.0
C418 C 0.7676 0.72213 0.27293 0.0
H419 H 0.71238 0.80594 0.25243 0.0
H420 H 0.73175 0.80165 0.2912 0.0
H421 H 0.75279 0.69928 0.24337 0.0
H422 H 0.81 0.70469 0.27803 0.0
H423 H 0.79057 0.70908 0.24049 0.0
H424 H 0.7696 0.81099 0.2903 0.0
C425 C 0.72961 0.78399 0.25185 0.0
C426 C 0.75637 0.72392 0.25286 0.0
C427 C 0.71848 0.78641 0.22969 0.0
C428 C 0.80393 0.72403 0.30156 0.0
C429 C 0.79277 0.72651 0.28007 0.0
C430 C 0.76602 0.78636 0.28078 0.0
C431 C 0.73785 0.75891 0.22407 0.0
C432 C 0.7498 0.75696 0.24635 0.0
C433 C 0.78457 0.75135 0.30879 0.0
C434 C 0.77259 0.75332 0.28712 0.0
H435 H 0.72133 0.72093 0.11236 0.0
H436 H 0.74069 0.71673 0.15081 0.0
H437 H 0.75007 0.81412 0.25516 0.0
H438 H 0.80124 0.78873 0.42041 0.0
H439 H 0.78182 0.7931 0.38294 0.0
C440 C 0.14143 0.8657 0.52097 0.0
C441 C 0.13279 0.85517 0.48083 0.0
C442 C 0.14285 0.90186 0.52845 0.0
C443 C 0.12789 0.99314 0.50799 0.0
H444 H 0.1579 0.0218 0.51541 0.0
C445 C 0.15217 0.12872 0.48877 0.0
C446 C 0.14535 0.15223 0.5295 0.0
C447 C 0.15043 0.09276 0.48444 0.0
C448 C 0.14945 0.01438 0.51299 0.0
H449 H 0.11894 0.87421 0.41634 0.0
H450 H 0.12149 0.93721 0.42843 0.0
H451 H 0.15536 0.9591 0.5029 0.0
H452 H 0.13121 0.15659 0.59708 0.0
H453 H 0.1282 0.09347 0.59021 0.0
H454 H 0.122 0.04864 0.51638 0.0
C455 C 0.12707 0.91768 0.45523 0.0
C456 C 0.14799 0.97823 0.50664 0.0
C457 C 0.12566 0.88152 0.44783 0.0
C458 C 0.13662 0.13906 0.56539 0.0
C459 C 0.13487 0.10293 0.56109 0.0
C460 C 0.12936 0.02935 0.51436 0.0
C461 C 0.13567 0.92842 0.49584 0.0
C462 C 0.13719 0.96705 0.50372 0.0
C463 C 0.14181 0.07921 0.52083 0.0
C464 C 0.14016 0.04052 0.51648 0.0
H465 H 0.14705 0.84601 0.54715 0.0
H466 H 0.14948 0.90899 0.56074 0.0
H467 H 0.11945 0.98559 0.50682 0.0
H468 H 0.15891 0.1381 0.46003 0.0
H469 H 0.1558 0.07564 0.45187 0.0
C470 C 0.88813 0.37023 0.55231 0.0
C471 C 0.87755 0.35984 0.53635 0.0
C472 C 0.89011 0.40616 0.54765 0.0
C473 C 0.8772 0.49647 0.56209 0.0
H474 H 0.89827 0.5246 0.43116 0.0
C475 C 0.88021 0.64567 0.50484 0.0
C476 C 0.89043 0.65625 0.48264 0.0
C477 C 0.87882 0.60945 0.51212 0.0
C478 C 0.89252 0.51745 0.46913 0.0
H479 H 0.8607 0.37897 0.50469 0.0
H480 H 0.86403 0.44174 0.49949 0.0
H481 H 0.89597 0.46173 0.44628 0.0
H482 H 0.9073 0.63724 0.45196 0.0
H483 H 0.90519 0.57449 0.46825 0.0
H484 H 0.87398 0.55153 0.58746 0.0
C485 C 0.87083 0.42205 0.51433 0.0
C486 C 0.89117 0.48126 0.47733 0.0
C487 C 0.86894 0.38613 0.51719 0.0
C488 C 0.89928 0.62989 0.46858 0.0
C489 C 0.898 0.59372 0.47746 0.0
C490 C 0.87873 0.53258 0.55519 0.0
C491 C 0.88144 0.43239 0.52887 0.0
C492 C 0.88342 0.47048 0.52336 0.0
C493 C 0.88773 0.58275 0.4991 0.0
C494 C 0.88632 0.54385 0.50797 0.0
H495 H 0.89491 0.35055 0.56729 0.0
H496 H 0.89836 0.41353 0.55924 0.0
H497 H 0.87119 0.48877 0.59818 0.0
H498 H 0.87323 0.66541 0.51602 0.0
H499 H 0.87068 0.60257 0.52734 0.0
C500 C 0.88756 0.87085 0.47578 0.0
C501 C 0.877 0.85986 0.48952 0.0
C502 C 0.88934 0.90691 0.48143 0.0
C503 C 0.87577 0.99409 0.55121 0.0
H504 H 0.89863 0.03365 0.44698 0.0
C505 C 0.87987 0.14608 0.5202 0.0
C506 C 0.89016 0.15614 0.5428 0.0
C507 C 0.87832 0.10996 0.5134 0.0
C508 C 0.89223 0.02286 0.47639 0.0
H509 H 0.85991 0.87808 0.51714 0.0
H510 H 0.86271 0.94062 0.52253 0.0
H511 H 0.89572 0.97106 0.43341 0.0
H512 H 0.90694 0.1363 0.57471 0.0
H513 H 0.90433 0.07323 0.56021 0.0
H514 H 0.87201 0.04668 0.59157 0.0
C515 C 0.86987 0.92171 0.51083 0.0
C516 C 0.89059 0.98681 0.46919 0.0
C517 C 0.86819 0.88568 0.50697 0.0
C518 C 0.8989 0.12937 0.55744 0.0
C519 C 0.89744 0.09332 0.54892 0.0
C520 C 0.87723 0.03027 0.55702 0.0
C521 C 0.88052 0.93303 0.49933 0.0
C522 C 0.88234 0.97169 0.50662 0.0
C523 C 0.88712 0.08326 0.52724 0.0
C524 C 0.88549 0.04497 0.51993 0.0
H525 H 0.89451 0.85148 0.46228 0.0
H526 H 0.89772 0.91401 0.473 0.0
H527 H 0.86955 0.98375 0.58263 0.0
H528 H 0.87301 0.16611 0.50819 0.0
H529 H 0.87028 0.10287 0.49645 0.0
C530 C 0.15425 0.6258 0.5111 0.0
C531 C 0.14552 0.65162 0.49214 0.0
C532 C 0.15254 0.58981 0.5151 0.0
C533 C 0.132 0.52471 0.47093 0.0
H534 H 0.15003 0.46515 0.59684 0.0
C535 C 0.12378 0.38183 0.56113 0.0
C536 C 0.13249 0.35532 0.54463 0.0
C537 C 0.12515 0.41799 0.55299 0.0
C538 C 0.14497 0.4815 0.56137 0.0
H539 H 0.12813 0.66002 0.46228 0.0
H540 H 0.12484 0.59754 0.4732 0.0
H541 H 0.15248 0.52812 0.58795 0.0
H542 H 0.14946 0.34592 0.50707 0.0
H543 H 0.15204 0.40931 0.49602 0.0
H544 H 0.12411 0.47772 0.44763 0.0
C545 C 0.13318 0.60464 0.48276 0.0
C546 C 0.14642 0.51768 0.55557 0.0
C547 C 0.13501 0.64066 0.477 0.0
C548 C 0.14264 0.36574 0.52056 0.0
C549 C 0.14411 0.40193 0.5141 0.0
C550 C 0.13036 0.48865 0.47808 0.0
C551 C 0.14193 0.57854 0.50221 0.0
C552 C 0.14006 0.53993 0.50963 0.0
C553 C 0.13535 0.42836 0.5298 0.0
C554 C 0.13691 0.46668 0.52289 0.0
H555 H 0.1625 0.63338 0.52235 0.0
H556 H 0.15963 0.57089 0.528 0.0
H557 H 0.12703 0.54036 0.43417 0.0
H558 H 0.11585 0.37462 0.57953 0.0
H559 H 0.1183 0.43792 0.56566 0.0
C560 C 0.63647 0.63765 0.06755 0.0
C561 C 0.64512 0.65113 0.03149 0.0
C562 C 0.63468 0.60157 0.06214 0.0
C563 C 0.64919 0.5136 1.01065 0.0
H564 H 0.61921 0.48459 1.00425 0.0
C565 C 0.62558 0.38087 0.94221 0.0
C566 C 0.63274 0.35444 0.9748 0.0
C567 C 0.62692 0.41704 0.95047 0.0
C568 C 0.62765 0.49222 1.00548 0.0
H569 H 0.6585 0.63766 0.96051 0.0
H570 H 0.65534 0.57535 0.9505 0.0
H571 H 0.62173 0.54762 0.0158 0.0
H572 H 0.64699 0.34515 0.04125 0.0
H573 H 0.6493 0.40808 0.05619 0.0
H574 H 0.65514 0.45847 0.99874 0.0
C575 C 0.65006 0.59215 0.98403 0.0
C576 C 0.62909 0.52839 0.01297 0.0
C577 C 0.65183 0.62803 0.98943 0.0
C578 C 0.64134 0.3649 0.01535 0.0
C579 C 0.6427 0.40103 0.02363 0.0
C580 C 0.64775 0.47751 1.00322 0.0
C581 C 0.64152 0.57827 0.0206 0.0
C582 C 0.63989 0.53962 0.01518 0.0
C583 C 0.63549 0.42766 0.99146 0.0
C584 C 0.63697 0.46626 1.00023 0.0
H585 H 0.63114 0.65488 0.10022 0.0
H586 H 0.62807 0.59182 0.09138 0.0
H587 H 0.65764 0.52107 0.01307 0.0
H588 H 0.61889 0.37361 0.91047 0.0
H589 H 0.62132 0.43666 0.92405 0.0
C590 C 0.37086 0.88423 0.98877 0.0
C591 C 0.37755 0.86102 0.03092 0.0
C592 C 0.37264 0.92011 0.98345 0.0
C593 C 0.39359 0.9838 0.01288 0.0
H594 H 0.36752 0.05372 0.99877 0.0
C595 C 0.38128 0.14727 0.01562 0.0
C596 C 0.38986 0.15786 0.97502 0.0
C597 C 0.37995 0.11111 0.02388 0.0
C598 C 0.37491 0.03468 1.00322 0.0
H599 H 0.3915 0.85708 0.09989 0.0
H600 H 0.39459 0.92015 0.09119 0.0
H601 H 0.36504 0.99107 0.01286 0.0
H602 H 0.4037 0.13889 0.91063 0.0
H603 H 0.40131 0.07579 0.92419 0.0
H604 H 0.40345 0.02766 1.00436 0.0
C605 C 0.38799 0.91047 0.06181 0.0
C606 C 0.37348 0.99857 1.01051 0.0
C607 C 0.38619 0.8744 0.06714 0.0
C608 C 0.39703 0.13153 0.9424 0.0
C609 C 0.39571 0.09534 0.95065 0.0
C610 C 0.39502 0.02 1.00553 0.0
C611 C 0.38116 0.93389 0.02022 0.0
C612 C 0.38279 0.97255 0.01498 0.0
C613 C 0.38716 0.08458 0.99165 0.0
C614 C 0.38569 0.04596 1.00032 0.0
H615 H 0.36419 0.87468 0.95972 0.0
H616 H 0.36736 0.93701 0.94988 0.0
H617 H 0.40095 0.96457 0.01569 0.0
H618 H 0.37564 0.16693 0.04154 0.0
H619 H 0.37336 0.10395 0.05646 0.0
C620 C 0.37066 0.38417 0.03518 0.0
C621 C 0.37743 0.36099 0.99358 0.0
C622 C 0.37239 0.42009 0.04029 0.0
C623 C 0.37324 0.4986 0.01301 0.0
H624 H 0.40318 0.52772 0.02139 0.0
C625 C 0.38107 0.64736 1.00931 0.0
C626 C 0.38959 0.65777 0.05055 0.0
C627 C 0.37973 0.61124 1.00075 0.0
C628 C 0.39475 0.52006 0.01958 0.0
H629 H 0.39148 0.35716 0.92534 0.0
H630 H 0.39448 0.42029 0.93374 0.0
H631 H 0.40072 0.46466 1.0097 0.0
H632 H 0.4033 0.63853 0.11586 0.0
H633 H 0.40089 0.57551 0.10179 0.0
H634 H 0.36724 0.55372 0.02448 0.0
C635 C 0.38785 0.41056 0.96282 0.0
C636 C 0.39334 0.48387 1.01201 0.0
C637 C 0.3861 0.37445 0.95766 0.0
C638 C 0.39668 0.63131 0.08357 0.0
C639 C 0.39535 0.59516 0.07504 0.0
C640 C 0.37464 0.5347 0.02049 0.0
C641 C 0.38095 0.43394 1.0039 0.0
C642 C 0.38255 0.4726 1.00915 0.0
C643 C 0.38687 0.58457 0.03332 0.0
C644 C 0.38542 0.54599 0.02425 0.0
H645 H 0.36397 0.37456 0.06397 0.0
H646 H 0.36705 0.43695 0.07347 0.0
H647 H 0.3648 0.49108 1.01007 0.0
H648 H 0.37549 0.66714 0.98308 0.0
H649 H 0.37319 0.60421 0.96765 0.0
C650 C 0.6518 0.12796 0.03562 0.0
C651 C 0.64504 0.15122 0.9939 0.0
C652 C 0.65006 0.09204 0.04072 0.0
C653 C 0.64922 0.01359 0.0134 0.0
H654 H 0.61927 0.98444 0.02119 0.0
C655 C 0.6414 0.86482 1.00935 0.0
C656 C 0.63287 0.85429 0.05042 0.0
C657 C 0.64273 0.90097 1.00086 0.0
C658 C 0.6277 0.99211 0.01955 0.0
H659 H 0.63101 0.1552 0.92545 0.0
H660 H 0.62799 0.09206 0.93383 0.0
H661 H 0.62174 0.04753 1.00963 0.0
H662 H 0.61913 0.87337 0.11545 0.0
H663 H 0.62153 0.93643 0.10149 0.0
H664 H 0.6552 0.95843 0.02491 0.0
C665 C 0.63461 0.10172 0.96301 0.0
C666 C 0.62911 0.02831 1.01206 0.0
C667 C 0.63637 0.13784 0.95786 0.0
C668 C 0.62576 0.88067 0.0833 0.0
C669 C 0.62709 0.91685 0.07483 0.0
C670 C 0.64781 0.97746 0.02081 0.0
C671 C 0.64151 0.07827 1.0042 0.0
C672 C 0.6399 0.03959 1.0094 0.0
C673 C 0.63558 0.92755 0.03332 0.0
C674 C 0.63703 0.96616 0.02434 0.0
H675 H 0.65848 0.13751 0.06451 0.0
H676 H 0.65539 0.07511 0.07398 0.0
H677 H 0.65766 0.02111 1.01062 0.0
H678 H 0.647 0.84511 0.98323 0.0
H679 H 0.64928 0.90808 0.96791 0.0
C680 C 0.14692 0.27079 0.29527 0.0
C681 C 0.13859 0.25553 0.33129 0.0
C682 C 0.14701 0.2701 0.22565 0.0
C683 C 0.13659 0.22238 0.08151 0.0
H684 H 0.14408 0.3048 0.98238 0.0
C685 C 0.1318 0.23349 0.79527 0.0
C686 C 0.14016 0.24875 0.75951 0.0
C687 C 0.13171 0.23391 0.86492 0.0
C688 C 0.14211 0.28139 1.00929 0.0
H689 H 0.12376 0.22777 0.32197 0.0
H690 H 0.12386 0.22692 0.20042 0.0
H691 H 0.1435 0.3068 0.10371 0.0
H692 H 0.15507 0.27611 0.76933 0.0
H693 H 0.15496 0.27652 0.89086 0.0
H694 H 0.13518 0.19699 0.98704 0.0
C695 C 0.13041 0.23903 0.22615 0.0
C696 C 0.14176 0.28255 0.07891 0.0
C697 C 0.13032 0.23972 0.29589 0.0
C698 C 0.14849 0.26417 0.79518 0.0
C699 C 0.14838 0.26462 0.86492 0.0
C700 C 0.13693 0.22123 1.01187 0.0
C701 C 0.13878 0.25414 0.19015 0.0
C702 C 0.13901 0.25305 0.11594 0.0
C703 C 0.13996 0.24963 0.90066 0.0
C704 C 0.1397 0.25071 0.97486 0.0
H705 H 0.15346 0.28307 0.3208 0.0
H706 H 0.15368 0.28156 0.19965 0.0
H707 H 0.13462 0.19897 0.10842 0.0
H708 H 0.12522 0.2215 0.76952 0.0
H709 H 0.12502 0.22253 0.89076 0.0
C710 C 0.89228 0.2732 0.29674 0.0
C711 C 0.88391 0.25787 0.33216 0.0
C712 C 0.89224 0.27369 0.22701 0.0
C713 C 0.88093 0.22982 0.08051 0.0
H714 H 0.88808 0.31424 0.98649 0.0
C715 C 0.87469 0.24665 0.79608 0.0
C716 C 0.88312 0.26157 0.76031 0.0
C717 C 0.87474 0.24651 0.8658 0.0
C718 C 0.88618 0.29031 1.01194 0.0
H719 H 0.86888 0.2311 0.32172 0.0
H720 H 0.86876 0.23228 0.20051 0.0
H721 H 0.88839 0.31317 0.10795 0.0
H722 H 0.8982 0.2881 0.77012 0.0
H723 H 0.89831 0.28758 0.89144 0.0
H724 H 0.87871 0.20696 0.98453 0.0
C725 C 0.87546 0.24349 0.22653 0.0
C726 C 0.88636 0.28968 0.08162 0.0
C727 C 0.8755 0.24301 0.29617 0.0
C728 C 0.89155 0.2765 0.79596 0.0
C729 C 0.89159 0.27638 0.86563 0.0
C730 C 0.88074 0.23045 1.01085 0.0
C731 C 0.88383 0.25884 0.19103 0.0
C732 C 0.88373 0.25944 0.11681 0.0
C733 C 0.88321 0.26128 0.90145 0.0
C734 C 0.88335 0.26071 0.97566 0.0
H735 H 0.8989 0.28484 0.3228 0.0
H736 H 0.89889 0.28534 0.20128 0.0
H737 H 0.87903 0.20586 0.10593 0.0
H738 H 0.86806 0.23498 0.77031 0.0
H739 H 0.86807 0.23508 0.89179 0.0
C740 C 0.14837 0.76413 0.23027 0.0
C741 C 0.14003 0.74887 0.26611 0.0
C742 C 0.14828 0.76442 0.16054 0.0
C743 C 0.1368 0.72076 0.01421 0.0
H744 H 0.14355 0.8059 0.92103 0.0
C745 C 0.13038 0.73864 0.72968 0.0
C746 C 0.13871 0.75424 0.69429 0.0
C747 C 0.13044 0.73804 0.79943 0.0
C748 C 0.14176 0.78176 0.94621 0.0
H749 H 0.12505 0.7218 0.25641 0.0
H750 H 0.12485 0.72258 0.13516 0.0
H751 H 0.14406 0.80429 0.04239 0.0
H752 H 0.15365 0.78143 0.70481 0.0
H753 H 0.1538 0.78007 0.82595 0.0
H754 H 0.13451 0.69823 0.91799 0.0
C755 C 0.13155 0.73394 0.16087 0.0
C756 C 0.14207 0.78083 0.01585 0.0
C757 C 0.13164 0.73366 0.23053 0.0
C758 C 0.14707 0.76931 0.73031 0.0
C759 C 0.14713 0.76872 0.79994 0.0
C760 C 0.13651 0.72169 0.94454 0.0
C761 C 0.13984 0.74945 0.12496 0.0
C762 C 0.1396 0.75031 0.05076 0.0
C763 C 0.13883 0.75304 0.83543 0.0
C764 C 0.13899 0.75219 0.90964 0.0
H765 H 0.15497 0.77602 0.25599 0.0
H766 H 0.15487 0.77617 0.13447 0.0
H767 H 0.13501 0.69664 0.03942 0.0
H768 H 0.1238 0.72684 0.70359 0.0
H769 H 0.12384 0.72614 0.82517 0.0
C770 C 0.87544 0.74238 0.72934 0.0
C771 C 0.88372 0.75782 0.69323 0.0
C772 C 0.87537 0.74307 0.79898 0.0
C773 C 0.89348 0.7539 0.94509 0.0
H774 H 0.8652 0.77332 0.03835 0.0
C775 C 0.89125 0.77749 0.22947 0.0
C776 C 0.88293 0.76197 0.26511 0.0
C777 C 0.8913 0.77737 0.15979 0.0
C778 C 0.87316 0.76747 0.01314 0.0
H779 H 0.89845 0.7861 0.70237 0.0
H780 H 0.89828 0.78747 0.82385 0.0
H781 H 0.86544 0.77226 0.91691 0.0
H782 H 0.86811 0.73422 0.25509 0.0
H783 H 0.86825 0.73378 0.13365 0.0
H784 H 0.9012 0.74903 0.04131 0.0
C785 C 0.89191 0.77448 0.79824 0.0
C786 C 0.8733 0.76686 0.94346 0.0
C787 C 0.89197 0.77385 0.72852 0.0
C788 C 0.87462 0.74652 0.22933 0.0
C789 C 0.87467 0.74643 0.15961 0.0
C790 C 0.89334 0.75449 0.01478 0.0
C791 C 0.88359 0.75918 0.83435 0.0
C792 C 0.88346 0.76003 0.90855 0.0
C793 C 0.88303 0.76175 0.12394 0.0
C794 C 0.88318 0.76126 0.04971 0.0
H795 H 0.86897 0.72973 0.70388 0.0
H796 H 0.86894 0.73059 0.82517 0.0
H797 H 0.90144 0.74802 0.91986 0.0
H798 H 0.89777 0.7897 0.25531 0.0
H799 H 0.89777 0.78985 0.13398 0.0
C800 C 0.64865 0.76199 0.3002 0.0
C801 C 0.64038 0.74644 0.26434 0.0
C802 C 0.64851 0.76243 0.36996 0.0
C803 C 0.62948 0.7556 0.5136 0.0
H804 H 0.65711 0.7387 0.61433 0.0
C805 C 0.63018 0.73856 0.80074 0.0
C806 C 0.63841 0.75462 0.83609 0.0
C807 C 0.63034 0.73756 0.731 0.0
C808 C 0.64932 0.74386 0.58696 0.0
H809 H 0.62554 0.71867 0.27406 0.0
H810 H 0.62538 0.7191 0.39528 0.0
H811 H 0.65768 0.73662 0.49297 0.0
H812 H 0.65319 0.7826 0.82547 0.0
H813 H 0.65338 0.78115 0.70433 0.0
H814 H 0.62111 0.76286 0.60762 0.0
C815 C 0.63189 0.73144 0.36957 0.0
C816 C 0.64965 0.74267 0.51732 0.0
C817 C 0.63204 0.73098 0.29993 0.0
C818 C 0.64673 0.7699 0.80002 0.0
C819 C 0.64689 0.76886 0.73042 0.0
C820 C 0.62914 0.75678 0.58324 0.0
C821 C 0.64008 0.74737 0.40552 0.0
C822 C 0.63974 0.74854 0.47972 0.0
C823 C 0.63874 0.75253 0.69499 0.0
C824 C 0.63906 0.75098 0.62082 0.0
H825 H 0.65518 0.77425 0.27447 0.0
H826 H 0.65488 0.77525 0.396 0.0
H827 H 0.62169 0.76082 0.48624 0.0
H828 H 0.62367 0.72642 0.82688 0.0
H829 H 0.62399 0.72445 0.70533 0.0
C830 C 0.39249 0.77309 0.80045 0.0
C831 C 0.38418 0.75741 0.83586 0.0
C832 C 0.39236 0.77394 0.73069 0.0
C833 C 0.3808 0.73115 0.58346 0.0
H834 H 0.38741 0.81685 0.49169 0.0
C835 C 0.37383 0.75029 0.2999 0.0
C836 C 0.38217 0.76558 0.26408 0.0
C837 C 0.37396 0.7498 0.36965 0.0
C838 C 0.38565 0.79257 0.51648 0.0
H839 H 0.36923 0.73024 0.82536 0.0
H840 H 0.36898 0.73203 0.70429 0.0
H841 H 0.38815 0.81442 0.61305 0.0
H842 H 0.39716 0.79262 0.27386 0.0
H843 H 0.39742 0.7915 0.39506 0.0
H844 H 0.3783 0.70929 0.48694 0.0
C845 C 0.37568 0.74326 0.73024 0.0
C846 C 0.38609 0.79116 0.58611 0.0
C847 C 0.3758 0.74241 0.79985 0.0
C848 C 0.39057 0.78072 0.29971 0.0
C849 C 0.39069 0.78025 0.36936 0.0
C850 C 0.38036 0.73256 0.51385 0.0
C851 C 0.38394 0.75912 0.69471 0.0
C852 C 0.38366 0.76044 0.62051 0.0
C853 C 0.38243 0.7646 0.40526 0.0
C854 C 0.38277 0.76329 0.47945 0.0
H855 H 0.39907 0.78486 0.82654 0.0
H856 H 0.39893 0.78598 0.70492 0.0
H857 H 0.37904 0.70685 0.60822 0.0
H858 H 0.36723 0.73844 0.27414 0.0
H859 H 0.36739 0.73796 0.39571 0.0
C860 C 0.63015 0.23858 0.22476 0.0
C861 C 0.63838 0.25462 0.18935 0.0
C862 C 0.6303 0.23762 0.29452 0.0
C863 C 0.64926 0.24402 0.43865 0.0
H864 H 0.62162 0.26116 0.53894 0.0
C865 C 0.64856 0.26239 0.72521 0.0
C866 C 0.64028 0.24684 0.76113 0.0
C867 C 0.64842 0.2628 0.65545 0.0
C868 C 0.62941 0.25589 0.51171 0.0
H869 H 0.65316 0.28259 0.19983 0.0
H870 H 0.65334 0.28121 0.32098 0.0
H871 H 0.62106 0.26308 0.41754 0.0
H872 H 0.62544 0.21909 0.75152 0.0
H873 H 0.62529 0.21948 0.6303 0.0
H874 H 0.65761 0.23685 0.53279 0.0
C875 C 0.64686 0.26891 0.29494 0.0
C876 C 0.62908 0.257 0.44205 0.0
C877 C 0.6467 0.26991 0.22534 0.0
C878 C 0.63194 0.23139 0.7256 0.0
C879 C 0.6318 0.23183 0.65596 0.0
C880 C 0.64959 0.24291 0.5083 0.0
C881 C 0.6387 0.25261 0.33046 0.0
C882 C 0.63901 0.25113 0.40463 0.0
C883 C 0.63999 0.24773 0.61995 0.0
C884 C 0.63966 0.24884 0.54574 0.0
H885 H 0.62364 0.22644 0.19868 0.0
H886 H 0.62395 0.22454 0.32025 0.0
H887 H 0.65705 0.23881 0.4114 0.0
H888 H 0.65509 0.27464 0.7509 0.0
H889 H 0.6548 0.2756 0.62936 0.0
C890 C 0.37585 0.24222 0.2254 0.0
C891 C 0.38416 0.25758 0.18933 0.0
C892 C 0.37569 0.24326 0.295 0.0
C893 C 0.39344 0.25546 0.44213 0.0
H894 H 0.3649 0.27537 0.53252 0.0
C895 C 0.39055 0.28112 0.72549 0.0
C896 C 0.38223 0.26559 0.76108 0.0
C897 C 0.3907 0.28068 0.65585 0.0
C898 C 0.37293 0.26938 0.50813 0.0
H899 H 0.39887 0.28593 0.19853 0.0
H900 H 0.39855 0.2879 0.32008 0.0
H901 H 0.36547 0.27334 0.41116 0.0
H902 H 0.36745 0.23766 0.75095 0.0
H903 H 0.36774 0.2367 0.62942 0.0
H904 H 0.4009 0.25144 0.5391 0.0
C905 C 0.39221 0.27473 0.29441 0.0
C906 C 0.37326 0.26822 0.43849 0.0
C907 C 0.39237 0.27373 0.22467 0.0
C908 C 0.37396 0.24998 0.72521 0.0
C909 C 0.3741 0.24956 0.65546 0.0
C910 C 0.39311 0.25661 0.51178 0.0
C911 C 0.38383 0.25967 0.33043 0.0
C912 C 0.38351 0.26119 0.40459 0.0
C913 C 0.38252 0.26471 0.6199 0.0
C914 C 0.38285 0.26357 0.54569 0.0
H915 H 0.36941 0.22946 0.19995 0.0
H916 H 0.36922 0.23092 0.3211 0.0
H917 H 0.40147 0.24945 0.41772 0.0
H918 H 0.39704 0.29347 0.75136 0.0
H919 H 0.3972 0.29309 0.63014 0.0
C920 C 0.05347 0.27451 0.51978 0.0
C921 C 0.05982 0.24656 0.48603 0.0
C922 C 0.04174 0.27801 0.51755 0.0
C923 C 0.01738 0.24808 0.42541 0.0
H924 H 1.00138 0.27671 0.58765 0.0
C925 C 0.96948 0.24068 0.45902 0.0
C926 C 0.96336 0.26979 0.49078 0.0
C927 C 0.98122 0.23794 0.45631 0.0
C928 C 1.0057 0.269 0.5417 0.0
H929 H 0.05864 0.20114 0.4213 0.0
H930 H 0.03825 0.20662 0.41901 0.0
H931 H 0.02176 0.27231 0.58606 0.0
H932 H 0.9649 0.31852 0.54552 0.0
H933 H 0.98527 0.31388 0.54034 0.0
H934 H 1.00124 0.24431 0.38155 0.0
C935 C 0.04233 0.22614 0.44673 0.0
C936 C 0.01742 0.26658 0.54067 0.0
C937 C 0.05407 0.22273 0.44871 0.0
C938 C 0.9693 0.29599 0.51984 0.0
C939 C 0.98101 0.29312 0.51757 0.0
C940 C 1.00564 0.2503 0.42659 0.0
C941 C 0.03598 0.25359 0.48178 0.0
C942 C 0.02344 0.25623 0.48245 0.0
C943 C 0.98714 0.26404 0.48594 0.0
C944 C 0.99965 0.26095 0.48468 0.0
H945 H 0.05754 0.29319 0.54966 0.0
H946 H 0.03718 0.29987 0.54428 0.0
H947 H 0.02168 0.24048 0.37937 0.0
H948 H 0.96518 0.22011 0.4359 0.0
H949 H 0.98568 0.21506 0.43199 0.0
C950 C 0.96926 0.74149 0.56491 0.0
C951 C 0.96314 0.7706 0.53298 0.0
C952 C 0.981 0.73873 0.56753 0.0
C953 C 1.00547 0.76968 0.4818 0.0
H954 H 0.02146 0.74157 0.64457 0.0
C955 C 0.05325 0.77535 0.50361 0.0
C956 C 0.05961 0.74759 0.53805 0.0
C957 C 0.04152 0.7788 0.5057 0.0
C958 C 0.01716 0.74905 0.5984 0.0
H959 H 0.96466 0.81929 0.47779 0.0
H960 H 0.98504 0.81459 0.48275 0.0
H961 H 1.00103 0.7453 0.64228 0.0
H962 H 0.05844 0.70248 0.60386 0.0
H963 H 0.03805 0.70785 0.60586 0.0
H964 H 0.02152 0.77295 0.43741 0.0
C965 C 0.98078 0.79385 0.50576 0.0
C966 C 1.00542 0.75121 0.59716 0.0
C967 C 0.96907 0.79675 0.5036 0.0
C968 C 0.05386 0.72391 0.5759 0.0
C969 C 0.04213 0.72726 0.57772 0.0
C970 C 0.01719 0.7673 0.48288 0.0
C971 C 0.98692 0.76479 0.53762 0.0
C972 C 0.99943 0.76172 0.53891 0.0
C973 C 0.03577 0.75451 0.54201 0.0
C974 C 0.02323 0.75711 0.54126 0.0
H975 H 0.96496 0.72095 0.58828 0.0
H976 H 0.98547 0.71585 0.59204 0.0
H977 H 1.00115 0.77728 0.43574 0.0
H978 H 0.05732 0.79391 0.47332 0.0
H979 H 0.03695 0.80053 0.47846 0.0
C980 C 0.55383 0.72385 0.9561 0.0
C981 C 0.55959 0.74723 0.99445 0.0
C982 C 0.54209 0.72721 0.95438 0.0
C983 C 0.51719 0.76637 0.05003 0.0
H984 H 0.501 0.74626 0.88968 0.0
C985 C 0.46906 0.79626 0.02954 0.0
C986 C 0.46312 0.77054 0.99897 0.0
C987 C 0.48078 0.79332 0.02756 0.0
C988 C 0.5054 0.75163 0.93505 0.0
H989 H 0.55733 0.79296 0.06032 0.0
H990 H 0.53696 0.79957 0.05543 0.0
H991 H 0.52143 0.74241 0.8876 0.0
H992 H 0.46492 0.72162 0.94176 0.0
H993 H 0.48542 0.71644 0.93834 0.0
H994 H 0.50115 0.77591 0.09724 0.0
C995 C 0.54151 0.77811 0.02765 0.0
C996 C 0.51714 0.74939 0.93394 0.0
C997 C 0.55325 0.77465 0.02961 0.0
C998 C 0.46922 0.74182 0.96605 0.0
C999 C 0.48097 0.73902 0.96363 0.0
C1000 C 0.50547 0.7688 0.05101 0.0
C1001 C 0.53575 0.75415 0.99073 0.0
C1002 C 0.52321 0.75678 0.99142 0.0
C1003 C 0.4869 0.76465 0.9947 0.0
C1004 C 0.49941 0.76152 0.99354 0.0
H1005 H 0.55839 0.70268 0.92763 0.0
H1006 H 0.538 0.70806 0.92577 0.0
H1007 H 0.52153 0.77149 0.09572 0.0
H1008 H 0.46466 0.81847 0.05616 0.0
H1009 H 0.48504 0.81372 0.05148 0.0
C1010 C 0.46904 0.29666 0.99536 0.0
C1011 C 0.46308 0.27095 0.02602 0.0
C1012 C 0.48076 0.29362 0.99735 0.0
C1013 C 0.50537 0.25165 0.09 0.0
H1014 H 0.5215 0.27166 0.92934 0.0
C1015 C 0.5538 0.2237 0.06913 0.0
C1016 C 0.55956 0.24713 0.0308 0.0
C1017 C 0.54206 0.22709 0.07079 0.0
C1018 C 0.51716 0.26649 0.97502 0.0
H1019 H 0.46486 0.22197 0.08337 0.0
H1020 H 0.48537 0.21662 0.08679 0.0
H1021 H 0.50111 0.27618 0.92776 0.0
H1022 H 0.55731 0.29297 0.9649 0.0
H1023 H 0.53694 0.29964 0.96967 0.0
H1024 H 0.52141 0.24227 0.1375 0.0
C1025 C 0.48092 0.23926 0.06144 0.0
C1026 C 0.50543 0.26898 0.97401 0.0
C1027 C 0.46918 0.24216 0.05902 0.0
C1028 C 0.55322 0.27463 0.9956 0.0
C1029 C 0.54149 0.27811 0.99749 0.0
C1030 C 0.51711 0.24935 0.09114 0.0
C1031 C 0.48687 0.26488 0.03029 0.0
C1032 C 0.49938 0.26166 0.03148 0.0
C1033 C 0.53572 0.25411 0.0344 0.0
C1034 C 0.52318 0.25679 0.03367 0.0
H1035 H 0.46465 0.31892 0.96869 0.0
H1036 H 0.48504 0.31402 0.97337 0.0
H1037 H 0.50097 0.24624 0.13537 0.0
H1038 H 0.55835 0.20246 0.09763 0.0
H1039 H 0.53796 0.2079 0.0994 0.0
loop_
_geom_bond_atom_site_label_1
_geom_bond_atom_site_label_2
_geom_bond_distance
_geom_bond_site_symmetry_2
_ccdc_geom_bond_type
Ho0 C3 2.811 . S
Ho0 O20 2.322 . S
Ho0 O22 2.378 . S
Ho0 O23 2.524 . S
Ho0 O24 2.381 . S
Ho0 O25 2.669 . S
Ho0 O27 2.346 . S
Ho0 O31 2.305 . S
Ho1 C12 2.811 . S
Ho1 O21 2.346 . S
Ho1 O25 2.305 . S
Ho1 O26 2.322 . S
Ho1 O28 2.378 . S
Ho1 O29 2.524 . S
Ho1 O30 2.381 . S
Ho1 O31 2.669 . S
C2 O20 1.259 . S
C2 O21 1.268 . S
C3 Ho0 2.811 . S
C3 C4 1.488 . S
C3 O22 1.215 . S
C3 O23 1.289 . S
C4 C3 1.488 . S
C4 C5 1.348 . S
C4 C9 1.413 . S
C5 C4 1.348 . S
C5 C6 1.442 . S
C5 H32 0.930 . S
C6 C5 1.442 . S
C6 C7 1.381 . S
C6 H33 0.931 . S
C7 C6 1.381 . S
C7 C8 1.321 . S
C8 C7 1.321 . S
C8 C9 1.403 . S
C8 H34 0.934 . S
C9 C4 1.413 . S
C9 C8 1.403 . S
C9 H35 0.930 . S
C10 O24 1.275 . S
C10 O25 1.256 . S
C11 O26 1.259 . S
C11 O27 1.268 . S
C12 Ho1 2.811 . S
C12 C13 1.488 . S
C12 O28 1.215 . S
C12 O29 1.289 . S
C13 C12 1.488 . S
C13 C14 1.348 . S
C13 C18 1.413 . S
C14 C13 1.348 . S
C14 C15 1.442 . S
C14 H36 0.930 . S
C15 C14 1.442 . S
C15 C16 1.381 . S
C15 H37 0.931 . S
C16 C15 1.381 . S
C16 C17 1.321 . S
C17 C16 1.321 . S
C17 C18 1.403 . S
C17 H38 0.934 . S
C18 C13 1.413 . S
C18 C17 1.403 . S
C18 H39 0.930 . S
C19 O30 1.275 . S
C19 O31 1.256 . S
O20 Ho0 2.322 . S
O20 C2 1.259 . S
O21 Ho1 2.346 . S
O21 C2 1.268 . S
O22 Ho0 2.378 . S
O22 C3 1.215 . S
O23 Ho0 2.524 . S
O23 C3 1.289 . S
O24 Ho0 2.381 . S
O24 C10 1.275 . S
O25 Ho0 2.669 . S
O25 Ho1 2.305 . S
O25 C10 1.256 . S
O26 Ho1 2.322 . S
O26 C11 1.259 . S
O27 Ho0 2.346 . S
O27 C11 1.268 . S
O28 Ho1 2.378 . S
O28 C12 1.215 . S
O29 Ho1 2.524 . S
O29 C12 1.289 . S
O30 Ho1 2.381 . S
O30 C19 1.275 . S
O31 Ho0 2.305 . S
O31 Ho1 2.669 . S
O31 C19 1.256 . S
H32 C5 0.930 . S
H33 C6 0.931 . S
H34 C8 0.934 . S
H35 C9 0.930 . S
H36 C14 0.930 . S
H37 C15 0.931 . S
H38 C17 0.934 . S
H39 C18 0.930 . S
Ho40 C43 2.811 . S
Ho40 O60 2.322 . S
Ho40 O62 2.378 . S
Ho40 O63 2.524 . S
Ho40 O64 2.381 . S
Ho40 O65 2.669 . S
Ho40 O67 2.346 . S
Ho40 O71 2.305 . S
Ho41 C52 2.811 . S
Ho41 O61 2.346 . S
Ho41 O65 2.305 . S
Ho41 O66 2.322 . S
Ho41 O68 2.378 . S
Ho41 O69 2.524 . S
Ho41 O70 2.381 . S
Ho41 O71 2.669 . S
C42 O60 1.259 . S
C42 O61 1.268 . S
C43 Ho40 2.811 . S
C43 C44 1.488 . S
C43 O62 1.215 . S
C43 O63 1.289 . S
C44 C43 1.488 . S
C44 C45 1.348 . S
C44 C49 1.413 . S
C45 C44 1.348 . S
C45 C46 1.442 . S
C45 H72 0.930 . S
C46 C45 1.442 . S
C46 C47 1.381 . S
C46 H73 0.931 . S
C47 C46 1.381 . S
C47 C48 1.321 . S
C48 C47 1.321 . S
C48 C49 1.403 . S
C48 H74 0.934 . S
C49 C44 1.413 . S
C49 C48 1.403 . S
C49 H75 0.930 . S
C50 O64 1.275 . S
C50 O65 1.256 . S
C51 O66 1.259 . S
C51 O67 1.268 . S
C52 Ho41 2.811 . S
C52 C53 1.488 . S
C52 O68 1.215 . S
C52 O69 1.289 . S
C53 C52 1.488 . S
C53 C54 1.348 . S
C53 C58 1.413 . S
C54 C53 1.348 . S
C54 C55 1.442 . S
C54 H76 0.930 . S
C55 C54 1.442 . S
C55 C56 1.381 . S
C55 H77 0.931 . S
C56 C55 1.381 . S
C56 C57 1.321 . S
C57 C56 1.321 . S
C57 C58 1.403 . S
C57 H78 0.934 . S
C58 C53 1.413 . S
C58 C57 1.403 . S
C58 H79 0.930 . S
C59 O70 1.275 . S
C59 O71 1.256 . S
O60 Ho40 2.322 . S
O60 C42 1.259 . S
O61 Ho41 2.346 . S
O61 C42 1.268 . S
O62 Ho40 2.378 . S
O62 C43 1.215 . S
O63 Ho40 2.524 . S
O63 C43 1.289 . S
O64 Ho40 2.381 . S
O64 C50 1.275 . S
O65 Ho40 2.669 . S
O65 Ho41 2.305 . S
O65 C50 1.256 . S
O66 Ho41 2.322 . S
O66 C51 1.259 . S
O67 Ho40 2.346 . S
O67 C51 1.268 . S
O68 Ho41 2.378 . S
O68 C52 1.215 . S
O69 Ho41 2.524 . S
O69 C52 1.289 . S
O70 Ho41 2.381 . S
O70 C59 1.275 . S
O71 Ho40 2.305 . S
O71 Ho41 2.669 . S
O71 C59 1.256 . S
H72 C45 0.930 . S
H73 C46 0.931 . S
H74 C48 0.934 . S
H75 C49 0.930 . S
H76 C54 0.930 . S
H77 C55 0.931 . S
H78 C57 0.934 . S
H79 C58 0.930 . S
Ho80 C83 2.811 . S
Ho80 O100 2.322 . S
Ho80 O102 2.378 . S
Ho80 O103 2.524 . S
Ho80 O104 2.381 . S
Ho80 O105 2.669 . S
Ho80 O107 2.346 . S
Ho80 O111 2.305 . S
Ho81 C92 2.811 . S
Ho81 O101 2.346 . S
Ho81 O105 2.305 . S
Ho81 O106 2.322 . S
Ho81 O108 2.378 . S
Ho81 O109 2.524 . S
Ho81 O110 2.381 . S
Ho81 O111 2.669 . S
C82 O100 1.259 . S
C82 O101 1.268 . S
C83 Ho80 2.811 . S
C83 C84 1.488 . S
C83 O102 1.215 . S
C83 O103 1.289 . S
C84 C83 1.488 . S
C84 C85 1.348 . S
C84 C89 1.413 . S
C85 C84 1.348 . S
C85 C86 1.442 . S
C85 H112 0.930 . S
C86 C85 1.442 . S
C86 C87 1.381 . S
C86 H113 0.931 . S
C87 C86 1.381 . S
C87 C88 1.321 . S
C88 C87 1.321 . S
C88 C89 1.403 . S
C88 H114 0.934 . S
C89 C84 1.413 . S
C89 C88 1.403 . S
C89 H115 0.930 . S
C90 O104 1.275 . S
C90 O105 1.256 . S
C91 O106 1.259 . S
C91 O107 1.268 . S
C92 Ho81 2.811 . S
C92 C93 1.488 . S
C92 O108 1.215 . S
C92 O109 1.289 . S
C93 C92 1.488 . S
C93 C94 1.348 . S
C93 C98 1.413 . S
C94 C93 1.348 . S
C94 C95 1.442 . S
C94 H116 0.930 . S
C95 C94 1.442 . S
C95 C96 1.381 . S
C95 H117 0.931 . S
C96 C95 1.381 . S
C96 C97 1.321 . S
C97 C96 1.321 . S
C97 C98 1.403 . S
C97 H118 0.934 . S
C98 C93 1.413 . S
C98 C97 1.403 . S
C98 H119 0.930 . S
C99 O110 1.275 . S
C99 O111 1.256 . S
O100 Ho80 2.322 . S
O100 C82 1.259 . S
O101 Ho81 2.346 . S
O101 C82 1.268 . S
O102 Ho80 2.378 . S
O102 C83 1.215 . S
O103 Ho80 2.524 . S
O103 C83 1.289 . S
O104 Ho80 2.381 . S
O104 C90 1.275 . S
O105 Ho80 2.669 . S
O105 Ho81 2.305 . S
O105 C90 1.256 . S
O106 Ho81 2.322 . S
O106 C91 1.259 . S
O107 Ho80 2.346 . S
O107 C91 1.268 . S
O108 Ho81 2.378 . S
O108 C92 1.215 . S
O109 Ho81 2.524 . S
O109 C92 1.289 . S
O110 Ho81 2.381 . S
O110 C99 1.275 . S
O111 Ho80 2.305 . S
O111 Ho81 2.669 . S
O111 C99 1.256 . S
H112 C85 0.930 . S
H113 C86 0.931 . S
H114 C88 0.934 . S
H115 C89 0.930 . S
H116 C94 0.930 . S
H117 C95 0.931 . S
H118 C97 0.934 . S
H119 C98 0.930 . S
Ho120 C123 2.811 . S
Ho120 O140 2.322 . S
Ho120 O142 2.378 . S
Ho120 O143 2.524 . S
Ho120 O144 2.381 . S
Ho120 O145 2.669 . S
Ho120 O147 2.346 . S
Ho120 O151 2.305 . S
Ho121 C132 2.811 . S
Ho121 O141 2.346 . S
Ho121 O145 2.305 . S
Ho121 O146 2.322 . S
Ho121 O148 2.378 . S
Ho121 O149 2.524 . S
Ho121 O150 2.381 . S
Ho121 O151 2.669 . S
C122 O140 1.259 . S
C122 O141 1.268 . S
C123 Ho120 2.811 . S
C123 C124 1.488 . S
C123 O142 1.215 . S
C123 O143 1.289 . S
C124 C123 1.488 . S
C124 C125 1.348 . S
C124 C129 1.413 . S
C125 C124 1.348 . S
C125 C126 1.442 . S
C125 H152 0.930 . S
C126 C125 1.442 . S
C126 C127 1.381 . S
C126 H153 0.931 . S
C127 C126 1.381 . S
C127 C128 1.321 . S
C128 C127 1.321 . S
C128 C129 1.403 . S
C128 H154 0.934 . S
C129 C124 1.413 . S
C129 C128 1.403 . S
C129 H155 0.930 . S
C130 O144 1.275 . S
C130 O145 1.256 . S
C131 O146 1.259 . S
C131 O147 1.268 . S
C132 Ho121 2.811 . S
C132 C133 1.488 . S
C132 O148 1.215 . S
C132 O149 1.289 . S
C133 C132 1.488 . S
C133 C134 1.348 . S
C133 C138 1.413 . S
C134 C133 1.348 . S
C134 C135 1.442 . S
C134 H156 0.930 . S
C135 C134 1.442 . S
C135 C136 1.381 . S
C135 H157 0.931 . S
C136 C135 1.381 . S
C136 C137 1.321 . S
C137 C136 1.321 . S
C137 C138 1.403 . S
C137 H158 0.934 . S
C138 C133 1.413 . S
C138 C137 1.403 . S
C138 H159 0.930 . S
C139 O150 1.275 . S
C139 O151 1.256 . S
O140 Ho120 2.322 . S
O140 C122 1.259 . S
O141 Ho121 2.346 . S
O141 C122 1.268 . S
O142 Ho120 2.378 . S
O142 C123 1.215 . S
O143 Ho120 2.524 . S
O143 C123 1.289 . S
O144 Ho120 2.381 . S
O144 C130 1.275 . S
O145 Ho120 2.669 . S
O145 Ho121 2.305 . S
O145 C130 1.256 . S
O146 Ho121 2.322 . S
O146 C131 1.259 . S
O147 Ho120 2.346 . S
O147 C131 1.268 . S
O148 Ho121 2.378 . S
O148 C132 1.215 . S
O149 Ho121 2.524 . S
O149 C132 1.289 . S
O150 Ho121 2.381 . S
O150 C139 1.275 . S
O151 Ho120 2.305 . S
O151 Ho121 2.669 . S
O151 C139 1.256 . S
H152 C125 0.930 . S
H153 C126 0.931 . S
H154 C128 0.934 . S
H155 C129 0.930 . S
H156 C134 0.930 . S
H157 C135 0.931 . S
H158 C137 0.934 . S
H159 C138 0.930 . S
Ho160 C163 2.811 1_556 S
Ho160 O180 2.322 1_556 S
Ho160 O182 2.378 1_556 S
Ho160 O183 2.524 1_556 S
Ho160 O184 2.381 . S
Ho160 O185 2.669 . S
Ho160 O187 2.346 . S
Ho160 O191 2.305 1_556 S
Ho161 C172 2.811 1_554 S
Ho161 O181 2.346 . S
Ho161 O185 2.305 1_554 S
Ho161 O186 2.322 1_554 S
Ho161 O188 2.378 1_554 S
Ho161 O189 2.524 1_554 S
Ho161 O190 2.381 . S
Ho161 O191 2.669 . S
C162 O180 1.259 . S
C162 O181 1.268 . S
C163 Ho160 2.811 1_554 S
C163 C164 1.488 . S
C163 O182 1.215 . S
C163 O183 1.289 . S
C164 C163 1.488 . S
C164 C165 1.348 . S
C164 C169 1.413 . S
C165 C164 1.348 . S
C165 C166 1.442 . S
C165 H192 0.930 . S
C166 C165 1.442 . S
C166 C167 1.381 . S
C166 H193 0.931 . S
C167 C166 1.381 . S
C167 C168 1.321 . S
C168 C167 1.321 . S
C168 C169 1.403 . S
C168 H194 0.934 . S
C169 C164 1.413 . S
C169 C168 1.403 . S
C169 H195 0.930 . S
C170 O184 1.275 . S
C170 O185 1.256 . S
C171 O186 1.259 . S
C171 O187 1.268 . S
C172 Ho161 2.811 1_556 S
C172 C173 1.488 . S
C172 O188 1.215 . S
C172 O189 1.289 . S
C173 C172 1.488 . S
C173 C174 1.348 . S
C173 C178 1.413 . S
C174 C173 1.348 . S
C174 C175 1.442 . S
C174 H196 0.930 . S
C175 C174 1.442 . S
C175 C176 1.381 . S
C175 H197 0.931 . S
C176 C175 1.381 . S
C176 C177 1.321 . S
C177 C176 1.321 . S
C177 C178 1.403 . S
C177 H198 0.934 . S
C178 C173 1.413 . S
C178 C177 1.403 . S
C178 H199 0.930 . S
C179 O190 1.275 . S
C179 O191 1.256 . S
O180 Ho160 2.322 1_554 S
O180 C162 1.259 . S
O181 Ho161 2.346 . S
O181 C162 1.268 . S
O182 Ho160 2.378 1_554 S
O182 C163 1.215 . S
O183 Ho160 2.524 1_554 S
O183 C163 1.289 . S
O184 Ho160 2.381 . S
O184 C170 1.275 . S
O185 Ho160 2.669 . S
O185 Ho161 2.305 1_556 S
O185 C170 1.256 . S
O186 Ho161 2.322 1_556 S
O186 C171 1.259 . S
O187 Ho160 2.346 . S
O187 C171 1.268 . S
O188 Ho161 2.378 1_556 S
O188 C172 1.215 . S
O189 Ho161 2.524 1_556 S
O189 C172 1.289 . S
O190 Ho161 2.381 . S
O190 C179 1.275 . S
O191 Ho160 2.305 1_554 S
O191 Ho161 2.669 . S
O191 C179 1.256 . S
H192 C165 0.930 . S
H193 C166 0.931 . S
H194 C168 0.934 . S
H195 C169 0.930 . S
H196 C174 0.930 . S
H197 C175 0.931 . S
H198 C177 0.934 . S
H199 C178 0.930 . S
Ho200 C203 2.811 1_556 S
Ho200 O220 2.322 1_556 S
Ho200 O222 2.378 1_556 S
Ho200 O223 2.524 1_556 S
Ho200 O224 2.381 . S
Ho200 O225 2.669 . S
Ho200 O227 2.346 . S
Ho200 O231 2.305 1_556 S
Ho201 C212 2.811 1_554 S
Ho201 O221 2.346 . S
Ho201 O225 2.305 1_554 S
Ho201 O226 2.322 1_554 S
Ho201 O228 2.378 1_554 S
Ho201 O229 2.524 1_554 S
Ho201 O230 2.381 . S
Ho201 O231 2.669 . S
C202 O220 1.259 . S
C202 O221 1.268 . S
C203 Ho200 2.811 1_554 S
C203 C204 1.488 . S
C203 O222 1.215 . S
C203 O223 1.289 . S
C204 C203 1.488 . S
C204 C205 1.348 . S
C204 C209 1.413 . S
C205 C204 1.348 . S
C205 C206 1.442 . S
C205 H232 0.930 . S
C206 C205 1.442 . S
C206 C207 1.381 . S
C206 H233 0.931 . S
C207 C206 1.381 . S
C207 C208 1.321 . S
C208 C207 1.321 . S
C208 C209 1.403 . S
C208 H234 0.934 . S
C209 C204 1.413 . S
C209 C208 1.403 . S
C209 H235 0.930 . S
C210 O224 1.275 . S
C210 O225 1.256 . S
C211 O226 1.259 . S
C211 O227 1.268 . S
C212 Ho201 2.811 1_556 S
C212 C213 1.488 . S
C212 O228 1.215 . S
C212 O229 1.289 . S
C213 C212 1.488 . S
C213 C214 1.348 . S
C213 C218 1.413 . S
C214 C213 1.348 . S
C214 C215 1.442 . S
C214 H236 0.930 . S
C215 C214 1.442 . S
C215 C216 1.381 . S
C215 H237 0.931 . S
C216 C215 1.381 . S
C216 C217 1.321 . S
C217 C216 1.321 . S
C217 C218 1.403 . S
C217 H238 0.934 . S
C218 C213 1.413 . S
C218 C217 1.403 . S
C218 H239 0.930 . S
C219 O230 1.275 . S
C219 O231 1.256 . S
O220 Ho200 2.322 1_554 S
O220 C202 1.259 . S
O221 Ho201 2.346 . S
O221 C202 1.268 . S
O222 Ho200 2.378 1_554 S
O222 C203 1.215 . S
O223 Ho200 2.524 1_554 S
O223 C203 1.289 . S
O224 Ho200 2.381 . S
O224 C210 1.275 . S
O225 Ho200 2.669 . S
O225 Ho201 2.305 1_556 S
O225 C210 1.256 . S
O226 Ho201 2.322 1_556 S
O226 C211 1.259 . S
O227 Ho200 2.346 . S
O227 C211 1.268 . S
O228 Ho201 2.378 1_556 S
O228 C212 1.215 . S
O229 Ho201 2.524 1_556 S
O229 C212 1.289 . S
O230 Ho201 2.381 . S
O230 C219 1.275 . S
O231 Ho200 2.305 1_554 S
O231 Ho201 2.669 . S
O231 C219 1.256 . S
H232 C205 0.930 . S
H233 C206 0.931 . S
H234 C208 0.934 . S
H235 C209 0.930 . S
H236 C214 0.930 . S
H237 C215 0.931 . S
H238 C217 0.934 . S
H239 C218 0.930 . S
Ho240 C243 2.811 1_556 S
Ho240 O260 2.322 1_556 S
Ho240 O262 2.378 1_556 S
Ho240 O263 2.524 1_556 S
Ho240 O264 2.381 . S
Ho240 O265 2.669 . S
Ho240 O267 2.346 . S
Ho240 O271 2.305 1_556 S
Ho241 C252 2.811 1_554 S
Ho241 O261 2.346 . S
Ho241 O265 2.305 1_554 S
Ho241 O266 2.322 1_554 S
Ho241 O268 2.378 1_554 S
Ho241 O269 2.524 1_554 S
Ho241 O270 2.381 . S
Ho241 O271 2.669 . S
C242 O260 1.259 . S
C242 O261 1.268 . S
C243 Ho240 2.811 1_554 S
C243 C244 1.488 . S
C243 O262 1.215 . S
C243 O263 1.289 . S
C244 C243 1.488 . S
C244 C245 1.348 . S
C244 C249 1.413 . S
C245 C244 1.348 . S
C245 C246 1.442 . S
C245 H272 0.930 . S
C246 C245 1.442 . S
C246 C247 1.381 . S
C246 H273 0.931 . S
C247 C246 1.381 . S
C247 C248 1.321 . S
C248 C247 1.321 . S
C248 C249 1.403 . S
C248 H274 0.934 . S
C249 C244 1.413 . S
C249 C248 1.403 . S
C249 H275 0.930 . S
C250 O264 1.275 . S
C250 O265 1.256 . S
C251 O266 1.259 . S
C251 O267 1.268 . S
C252 Ho241 2.811 1_556 S
C252 C253 1.488 . S
C252 O268 1.215 . S
C252 O269 1.289 . S
C253 C252 1.488 . S
C253 C254 1.348 . S
C253 C258 1.413 . S
C254 C253 1.348 . S
C254 C255 1.442 . S
C254 H276 0.930 . S
C255 C254 1.442 . S
C255 C256 1.381 . S
C255 H277 0.931 . S
C256 C255 1.381 . S
C256 C257 1.321 . S
C257 C256 1.321 . S
C257 C258 1.403 . S
C257 H278 0.934 . S
C258 C253 1.413 . S
C258 C257 1.403 . S
C258 H279 0.930 . S
C259 O270 1.275 . S
C259 O271 1.256 . S
O260 Ho240 2.322 1_554 S
O260 C242 1.259 . S
O261 Ho241 2.346 . S
O261 C242 1.268 . S
O262 Ho240 2.378 1_554 S
O262 C243 1.215 . S
O263 Ho240 2.524 1_554 S
O263 C243 1.289 . S
O264 Ho240 2.381 . S
O264 C250 1.275 . S
O265 Ho240 2.669 . S
O265 Ho241 2.305 1_556 S
O265 C250 1.256 . S
O266 Ho241 2.322 1_556 S
O266 C251 1.259 . S
O267 Ho240 2.346 . S
O267 C251 1.268 . S
O268 Ho241 2.378 1_556 S
O268 C252 1.215 . S
O269 Ho241 2.524 1_556 S
O269 C252 1.289 . S
O270 Ho241 2.381 . S
O270 C259 1.275 . S
O271 Ho240 2.305 1_554 S
O271 Ho241 2.669 . S
O271 C259 1.256 . S
H272 C245 0.930 . S
H273 C246 0.931 . S
H274 C248 0.934 . S
H275 C249 0.930 . S
H276 C254 0.930 . S
H277 C255 0.931 . S
H278 C257 0.934 . S
H279 C258 0.930 . S
Ho280 C283 2.811 1_556 S
Ho280 O300 2.322 1_556 S
Ho280 O302 2.378 1_556 S
Ho280 O303 2.524 1_556 S
Ho280 O304 2.381 . S
Ho280 O305 2.669 . S
Ho280 O307 2.346 . S
Ho280 O311 2.305 1_556 S
Ho281 C292 2.811 1_554 S
Ho281 O301 2.346 . S
Ho281 O305 2.305 1_554 S
Ho281 O306 2.322 1_554 S
Ho281 O308 2.378 1_554 S
Ho281 O309 2.524 1_554 S
Ho281 O310 2.381 . S
Ho281 O311 2.669 . S
C282 O300 1.259 . S
C282 O301 1.268 . S
C283 Ho280 2.811 1_554 S
C283 C284 1.488 . S
C283 O302 1.215 . S
C283 O303 1.289 . S
C284 C283 1.488 . S
C284 C285 1.348 . S
C284 C289 1.413 . S
C285 C284 1.348 . S
C285 C286 1.442 . S
C285 H312 0.930 . S
C286 C285 1.442 . S
C286 C287 1.381 . S
C286 H313 0.931 . S
C287 C286 1.381 . S
C287 C288 1.321 . S
C288 C287 1.321 . S
C288 C289 1.403 . S
C288 H314 0.934 . S
C289 C284 1.413 . S
C289 C288 1.403 . S
C289 H315 0.930 . S
C290 O304 1.275 . S
C290 O305 1.256 . S
C291 O306 1.259 . S
C291 O307 1.268 . S
C292 Ho281 2.811 1_556 S
C292 C293 1.488 . S
C292 O308 1.215 . S
C292 O309 1.289 . S
C293 C292 1.488 . S
C293 C294 1.348 . S
C293 C298 1.413 . S
C294 C293 1.348 . S
C294 C295 1.442 . S
C294 H316 0.930 . S
C295 C294 1.442 . S
C295 C296 1.381 . S
C295 H317 0.931 . S
C296 C295 1.381 . S
C296 C297 1.321 . S
C297 C296 1.321 . S
C297 C298 1.403 . S
C297 H318 0.934 . S
C298 C293 1.413 . S
C298 C297 1.403 . S
C298 H319 0.930 . S
C299 O310 1.275 . S
C299 O311 1.256 . S
O300 Ho280 2.322 1_554 S
O300 C282 1.259 . S
O301 Ho281 2.346 . S
O301 C282 1.268 . S
O302 Ho280 2.378 1_554 S
O302 C283 1.215 . S
O303 Ho280 2.524 1_554 S
O303 C283 1.289 . S
O304 Ho280 2.381 . S
O304 C290 1.275 . S
O305 Ho280 2.669 . S
O305 Ho281 2.305 1_556 S
O305 C290 1.256 . S
O306 Ho281 2.322 1_556 S
O306 C291 1.259 . S
O307 Ho280 2.346 . S
O307 C291 1.268 . S
O308 Ho281 2.378 1_556 S
O308 C292 1.215 . S
O309 Ho281 2.524 1_556 S
O309 C292 1.289 . S
O310 Ho281 2.381 . S
O310 C299 1.275 . S
O311 Ho280 2.305 1_554 S
O311 Ho281 2.669 . S
O311 C299 1.256 . S
H312 C285 0.930 . S
H313 C286 0.931 . S
H314 C288 0.934 . S
H315 C289 0.930 . S
H316 C294 0.930 . S
H317 C295 0.931 . S
H318 C297 0.934 . S
H319 C298 0.930 . S
C320 C321 1.349 . S
C320 C322 1.327 . S
C320 H345 0.950 . S
C321 C320 1.349 . S
C321 C337 1.349 . S
C322 C320 1.327 . S
C322 C341 1.429 . S
C322 H346 0.950 . S
C323 C340 1.574 . S
C323 C342 1.368 . S
C323 H347 0.949 . S
H324 C328 0.949 . S
C325 C326 1.349 . S
C325 C327 1.327 . S
C325 H348 0.950 . S
C326 C325 1.349 . S
C326 C338 1.349 . S
C327 C325 1.327 . S
C327 C343 1.429 . S
C327 H349 0.950 . S
C328 H324 0.949 . S
C328 C336 1.574 . S
C328 C344 1.368 . S
H329 C337 0.950 . S
H330 C335 0.950 . S
H331 C336 0.949 . S
H332 C338 0.950 . S
H333 C339 0.950 . S
H334 C340 0.949 . S
C335 H330 0.950 . S
C335 C337 1.327 . S
C335 C341 1.429 . S
C336 C328 1.574 . S
C336 H331 0.949 . S
C336 C342 1.368 . S
C337 C321 1.349 . S
C337 H329 0.950 . S
C337 C335 1.327 . S
C338 C326 1.349 . S
C338 H332 0.950 . S
C338 C339 1.327 . S
C339 H333 0.950 . S
C339 C338 1.327 . S
C339 C343 1.429 . S
C340 C323 1.574 . S
C340 H334 0.949 . S
C340 C344 1.368 . S
C341 C322 1.429 . S
C341 C335 1.429 . S
C341 C342 1.523 . S
C342 C323 1.368 . S
C342 C336 1.368 . S
C342 C341 1.523 . S
C343 C327 1.429 . S
C343 C339 1.429 . S
C343 C344 1.523 . S
C344 C328 1.368 . S
C344 C340 1.368 . S
C344 C343 1.523 . S
H345 C320 0.950 . S
H346 C322 0.950 . S
H347 C323 0.949 . S
H348 C325 0.950 . S
H349 C327 0.950 . S
C350 C351 1.349 . S
C350 C352 1.327 . S
C350 H375 0.950 . S
C351 C350 1.349 . S
C351 C367 1.349 . S
C352 C350 1.327 . S
C352 C371 1.429 . S
C352 H376 0.950 . S
C353 C370 1.574 . S
C353 C372 1.368 . S
C353 H377 0.949 . S
H354 C358 0.949 . S
C355 C356 1.349 . S
C355 C357 1.327 . S
C355 H378 0.950 . S
C356 C355 1.349 . S
C356 C368 1.349 . S
C357 C355 1.327 . S
C357 C373 1.429 . S
C357 H379 0.950 . S
C358 H354 0.949 . S
C358 C366 1.574 . S
C358 C374 1.368 . S
H359 C367 0.950 . S
H360 C365 0.950 . S
H361 C366 0.949 . S
H362 C368 0.950 . S
H363 C369 0.950 . S
H364 C370 0.949 . S
C365 H360 0.950 . S
C365 C367 1.327 . S
C365 C371 1.429 . S
C366 C358 1.574 . S
C366 H361 0.949 . S
C366 C372 1.368 . S
C367 C351 1.349 . S
C367 H359 0.950 . S
C367 C365 1.327 . S
C368 C356 1.349 . S
C368 H362 0.950 . S
C368 C369 1.327 . S
C369 H363 0.950 . S
C369 C368 1.327 . S
C369 C373 1.429 . S
C370 C353 1.574 . S
C370 H364 0.949 . S
C370 C374 1.368 . S
C371 C352 1.429 . S
C371 C365 1.429 . S
C371 C372 1.523 . S
C372 C353 1.368 . S
C372 C366 1.368 . S
C372 C371 1.523 . S
C373 C357 1.429 . S
C373 C369 1.429 . S
C373 C374 1.523 . S
C374 C358 1.368 . S
C374 C370 1.368 . S
C374 C373 1.523 . S
H375 C350 0.950 . S
H376 C352 0.950 . S
H377 C353 0.949 . S
H378 C355 0.950 . S
H379 C357 0.950 . S
C380 C381 1.349 . S
C380 C382 1.327 . S
C380 H405 0.950 . S
C381 C380 1.349 . S
C381 C397 1.349 . S
C382 C380 1.327 . S
C382 C401 1.429 . S
C382 H406 0.950 . S
C383 C400 1.574 . S
C383 C402 1.368 . S
C383 H407 0.949 . S
H384 C388 0.949 . S
C385 C386 1.349 . S
C385 C387 1.327 . S
C385 H408 0.950 . S
C386 C385 1.349 . S
C386 C398 1.349 . S
C387 C385 1.327 . S
C387 C403 1.429 . S
C387 H409 0.950 . S
C388 H384 0.949 . S
C388 C396 1.574 . S
C388 C404 1.368 . S
H389 C397 0.950 . S
H390 C395 0.950 . S
H391 C396 0.949 . S
H392 C398 0.950 . S
H393 C399 0.950 . S
H394 C400 0.949 . S
C395 H390 0.950 . S
C395 C397 1.327 . S
C395 C401 1.429 . S
C396 C388 1.574 . S
C396 H391 0.949 . S
C396 C402 1.368 . S
C397 C381 1.349 . S
C397 H389 0.950 . S
C397 C395 1.327 . S
C398 C386 1.349 . S
C398 H392 0.950 . S
C398 C399 1.327 . S
C399 H393 0.950 . S
C399 C398 1.327 . S
C399 C403 1.429 . S
C400 C383 1.574 . S
C400 H394 0.949 . S
C400 C404 1.368 . S
C401 C382 1.429 . S
C401 C395 1.429 . S
C401 C402 1.523 . S
C402 C383 1.368 . S
C402 C396 1.368 . S
C402 C401 1.523 . S
C403 C387 1.429 . S
C403 C399 1.429 . S
C403 C404 1.523 . S
C404 C388 1.368 . S
C404 C400 1.368 . S
C404 C403 1.523 . S
H405 C380 0.950 . S
H406 C382 0.950 . S
H407 C383 0.949 . S
H408 C385 0.950 . S
H409 C387 0.950 . S
C410 C411 1.349 . S
C410 C412 1.327 . S
C410 H435 0.950 . S
C411 C410 1.349 . S
C411 C427 1.349 . S
C412 C410 1.327 . S
C412 C431 1.429 . S
C412 H436 0.950 . S
C413 C430 1.574 . S
C413 C432 1.368 . S
C413 H437 0.949 . S
H414 C418 0.949 . S
C415 C416 1.349 . S
C415 C417 1.327 . S
C415 H438 0.950 . S
C416 C415 1.349 . S
C416 C428 1.349 . S
C417 C415 1.327 . S
C417 C433 1.429 . S
C417 H439 0.950 . S
C418 H414 0.949 . S
C418 C426 1.574 . S
C418 C434 1.368 . S
H419 C427 0.950 . S
H420 C425 0.950 . S
H421 C426 0.949 . S
H422 C428 0.950 . S
H423 C429 0.950 . S
H424 C430 0.949 . S
C425 H420 0.950 . S
C425 C427 1.327 . S
C425 C431 1.429 . S
C426 C418 1.574 . S
C426 H421 0.949 . S
C426 C432 1.368 . S
C427 C411 1.349 . S
C427 H419 0.950 . S
C427 C425 1.327 . S
C428 C416 1.349 . S
C428 H422 0.950 . S
C428 C429 1.327 . S
C429 H423 0.950 . S
C429 C428 1.327 . S
C429 C433 1.429 . S
C430 C413 1.574 . S
C430 H424 0.949 . S
C430 C434 1.368 . S
C431 C412 1.429 . S
C431 C425 1.429 . S
C431 C432 1.523 . S
C432 C413 1.368 . S
C432 C426 1.368 . S
C432 C431 1.523 . S
C433 C417 1.429 . S
C433 C429 1.429 . S
C433 C434 1.523 . S
C434 C418 1.368 . S
C434 C430 1.368 . S
C434 C433 1.523 . S
H435 C410 0.950 . S
H436 C412 0.950 . S
H437 C413 0.949 . S
H438 C415 0.950 . S
H439 C417 0.950 . S
C440 C441 1.349 . S
C440 C442 1.327 . S
C440 H465 0.950 . S
C441 C440 1.349 . S
C441 C457 1.349 . S
C442 C440 1.327 . S
C442 C461 1.429 . S
C442 H466 0.950 . S
C443 C460 1.574 1_565 S
C443 C462 1.368 . S
C443 H467 0.949 . S
H444 C448 0.949 . S
C445 C446 1.349 . S
C445 C447 1.327 . S
C445 H468 0.950 . S
C446 C445 1.349 . S
C446 C458 1.349 . S
C447 C445 1.327 . S
C447 C463 1.429 . S
C447 H469 0.950 . S
C448 H444 0.949 . S
C448 C456 1.574 1_545 S
C448 C464 1.368 . S
H449 C457 0.950 . S
H450 C455 0.950 . S
H451 C456 0.949 . S
H452 C458 0.950 . S
H453 C459 0.950 . S
H454 C460 0.949 . S
C455 H450 0.950 . S
C455 C457 1.327 . S
C455 C461 1.429 . S
C456 C448 1.574 1_565 S
C456 H451 0.949 . S
C456 C462 1.368 . S
C457 C441 1.349 . S
C457 H449 0.950 . S
C457 C455 1.327 . S
C458 C446 1.349 . S
C458 H452 0.950 . S
C458 C459 1.327 . S
C459 H453 0.950 . S
C459 C458 1.327 . S
C459 C463 1.429 . S
C460 C443 1.574 1_545 S
C460 H454 0.949 . S
C460 C464 1.368 . S
C461 C442 1.429 . S
C461 C455 1.429 . S
C461 C462 1.523 . S
C462 C443 1.368 . S
C462 C456 1.368 . S
C462 C461 1.523 . S
C463 C447 1.429 . S
C463 C459 1.429 . S
C463 C464 1.523 . S
C464 C448 1.368 . S
C464 C460 1.368 . S
C464 C463 1.523 . S
H465 C440 0.950 . S
H466 C442 0.950 . S
H467 C443 0.949 . S
H468 C445 0.950 . S
H469 C447 0.950 . S
C470 C471 1.349 . S
C470 C472 1.327 . S
C470 H495 0.950 . S
C471 C470 1.349 . S
C471 C487 1.349 . S
C472 C470 1.327 . S
C472 C491 1.429 . S
C472 H496 0.950 . S
C473 C490 1.574 . S
C473 C492 1.368 . S
C473 H497 0.949 . S
H474 C478 0.949 . S
C475 C476 1.349 . S
C475 C477 1.327 . S
C475 H498 0.950 . S
C476 C475 1.349 . S
C476 C488 1.349 . S
C477 C475 1.327 . S
C477 C493 1.429 . S
C477 H499 0.950 . S
C478 H474 0.949 . S
C478 C486 1.574 . S
C478 C494 1.368 . S
H479 C487 0.950 . S
H480 C485 0.950 . S
H481 C486 0.949 . S
H482 C488 0.950 . S
H483 C489 0.950 . S
H484 C490 0.949 . S
C485 H480 0.950 . S
C485 C487 1.327 . S
C485 C491 1.429 . S
C486 C478 1.574 . S
C486 H481 0.949 . S
C486 C492 1.368 . S
C487 C471 1.349 . S
C487 H479 0.950 . S
C487 C485 1.327 . S
C488 C476 1.349 . S
C488 H482 0.950 . S
C488 C489 1.327 . S
C489 H483 0.950 . S
C489 C488 1.327 . S
C489 C493 1.429 . S
C490 C473 1.574 . S
C490 H484 0.949 . S
C490 C494 1.368 . S
C491 C472 1.429 . S
C491 C485 1.429 . S
C491 C492 1.523 . S
C492 C473 1.368 . S
C492 C486 1.368 . S
C492 C491 1.523 . S
C493 C477 1.429 . S
C493 C489 1.429 . S
C493 C494 1.523 . S
C494 C478 1.368 . S
C494 C490 1.368 . S
C494 C493 1.523 . S
H495 C470 0.950 . S
H496 C472 0.950 . S
H497 C473 0.949 . S
H498 C475 0.950 . S
H499 C477 0.950 . S
C500 C501 1.349 . S
C500 C502 1.327 . S
C500 H525 0.950 . S
C501 C500 1.349 . S
C501 C517 1.349 . S
C502 C500 1.327 . S
C502 C521 1.429 . S
C502 H526 0.950 . S
C503 C520 1.574 1_565 S
C503 C522 1.368 . S
C503 H527 0.949 . S
H504 C508 0.949 . S
C505 C506 1.349 . S
C505 C507 1.327 . S
C505 H528 0.950 . S
C506 C505 1.349 . S
C506 C518 1.349 . S
C507 C505 1.327 . S
C507 C523 1.429 . S
C507 H529 0.950 . S
C508 H504 0.949 . S
C508 C516 1.574 1_545 S
C508 C524 1.368 . S
H509 C517 0.950 . S
H510 C515 0.950 . S
H511 C516 0.949 . S
H512 C518 0.950 . S
H513 C519 0.950 . S
H514 C520 0.949 . S
C515 H510 0.950 . S
C515 C517 1.327 . S
C515 C521 1.429 . S
C516 C508 1.574 1_565 S
C516 H511 0.949 . S
C516 C522 1.368 . S
C517 C501 1.349 . S
C517 H509 0.950 . S
C517 C515 1.327 . S
C518 C506 1.349 . S
C518 H512 0.950 . S
C518 C519 1.327 . S
C519 H513 0.950 . S
C519 C518 1.327 . S
C519 C523 1.429 . S
C520 C503 1.574 1_545 S
C520 H514 0.949 . S
C520 C524 1.368 . S
C521 C502 1.429 . S
C521 C515 1.429 . S
C521 C522 1.523 . S
C522 C503 1.368 . S
C522 C516 1.368 . S
C522 C521 1.523 . S
C523 C507 1.429 . S
C523 C519 1.429 . S
C523 C524 1.523 . S
C524 C508 1.368 . S
C524 C520 1.368 . S
C524 C523 1.523 . S
H525 C500 0.950 . S
H526 C502 0.950 . S
H527 C503 0.949 . S
H528 C505 0.950 . S
H529 C507 0.950 . S
C530 C531 1.349 . S
C530 C532 1.327 . S
C530 H555 0.950 . S
C531 C530 1.349 . S
C531 C547 1.349 . S
C532 C530 1.327 . S
C532 C551 1.429 . S
C532 H556 0.950 . S
C533 C550 1.574 . S
C533 C552 1.368 . S
C533 H557 0.949 . S
H534 C538 0.949 . S
C535 C536 1.349 . S
C535 C537 1.327 . S
C535 H558 0.950 . S
C536 C535 1.349 . S
C536 C548 1.349 . S
C537 C535 1.327 . S
C537 C553 1.429 . S
C537 H559 0.950 . S
C538 H534 0.949 . S
C538 C546 1.574 . S
C538 C554 1.368 . S
H539 C547 0.950 . S
H540 C545 0.950 . S
H541 C546 0.949 . S
H542 C548 0.950 . S
H543 C549 0.950 . S
H544 C550 0.949 . S
C545 H540 0.950 . S
C545 C547 1.327 . S
C545 C551 1.429 . S
C546 C538 1.574 . S
C546 H541 0.949 . S
C546 C552 1.368 . S
C547 C531 1.349 . S
C547 H539 0.950 . S
C547 C545 1.327 . S
C548 C536 1.349 . S
C548 H542 0.950 . S
C548 C549 1.327 . S
C549 H543 0.950 . S
C549 C548 1.327 . S
C549 C553 1.429 . S
C550 C533 1.574 . S
C550 H544 0.949 . S
C550 C554 1.368 . S
C551 C532 1.429 . S
C551 C545 1.429 . S
C551 C552 1.523 . S
C552 C533 1.368 . S
C552 C546 1.368 . S
C552 C551 1.523 . S
C553 C537 1.429 . S
C553 C549 1.429 . S
C553 C554 1.523 . S
C554 C538 1.368 . S
C554 C550 1.368 . S
C554 C553 1.523 . S
H555 C530 0.950 . S
H556 C532 0.950 . S
H557 C533 0.949 . S
H558 C535 0.950 . S
H559 C537 0.950 . S
C560 C561 1.349 1_554 S
C560 C562 1.327 . S
C560 H585 0.950 . S
C561 C560 1.349 1_556 S
C561 C577 1.349 . S
C562 C560 1.327 . S
C562 C581 1.429 1_554 S
C562 H586 0.950 . S
C563 C580 1.574 . S
C563 C582 1.368 . S
C563 H587 0.949 . S
H564 C568 0.949 . S
C565 C566 1.349 . S
C565 C567 1.327 . S
C565 H588 0.950 . S
C566 C565 1.349 . S
C566 C578 1.349 1_556 S
C567 C565 1.327 . S
C567 C583 1.429 . S
C567 H589 0.950 . S
C568 H564 0.949 . S
C568 C576 1.574 . S
C568 C584 1.368 1_554 S
H569 C577 0.950 . S
H570 C575 0.950 . S
H571 C576 0.949 . S
H572 C578 0.950 . S
H573 C579 0.950 . S
H574 C580 0.949 . S
C575 H570 0.950 . S
C575 C577 1.327 . S
C575 C581 1.429 . S
C576 C568 1.574 . S
C576 H571 0.949 . S
C576 C582 1.368 1_554 S
C577 C561 1.349 . S
C577 H569 0.950 . S
C577 C575 1.327 . S
C578 C566 1.349 1_554 S
C578 H572 0.950 . S
C578 C579 1.327 . S
C579 H573 0.950 . S
C579 C578 1.327 . S
C579 C583 1.429 1_554 S
C580 C563 1.574 . S
C580 H574 0.949 . S
C580 C584 1.368 . S
C581 C562 1.429 1_556 S
C581 C575 1.429 . S
C581 C582 1.523 . S
C582 C563 1.368 . S
C582 C576 1.368 1_556 S
C582 C581 1.523 . S
C583 C567 1.429 . S
C583 C579 1.429 1_556 S
C583 C584 1.523 . S
C584 C568 1.368 1_556 S
C584 C580 1.368 . S
C584 C583 1.523 . S
H585 C560 0.950 . S
H586 C562 0.950 . S
H587 C563 0.949 . S
H588 C565 0.950 . S
H589 C567 0.950 . S
C590 C591 1.349 . S
C590 C592 1.327 . S
C590 H615 0.950 . S
C591 C590 1.349 . S
C591 C607 1.349 1_556 S
C592 C590 1.327 . S
C592 C611 1.429 . S
C592 H616 0.950 . S
C593 C610 1.574 1_565 S
C593 C612 1.368 1_554 S
C593 H617 0.949 . S
H594 C598 0.949 . S
C595 C596 1.349 1_554 S
C595 C597 1.327 . S
C595 H618 0.950 . S
C596 C595 1.349 1_556 S
C596 C608 1.349 . S
C597 C595 1.327 . S
C597 C613 1.429 1_554 S
C597 H619 0.950 . S
C598 H594 0.949 . S
C598 C606 1.574 1_545 S
C598 C614 1.368 . S
H599 C607 0.950 . S
H600 C605 0.950 . S
H601 C606 0.949 . S
H602 C608 0.950 . S
H603 C609 0.950 . S
H604 C610 0.949 . S
C605 H600 0.950 . S
C605 C607 1.327 . S
C605 C611 1.429 1_554 S
C606 C598 1.574 1_565 S
C606 H601 0.949 . S
C606 C612 1.368 . S
C607 C591 1.349 1_554 S
C607 H599 0.950 . S
C607 C605 1.327 . S
C608 C596 1.349 . S
C608 H602 0.950 . S
C608 C609 1.327 . S
C609 H603 0.950 . S
C609 C608 1.327 . S
C609 C613 1.429 . S
C610 C593 1.574 1_545 S
C610 H604 0.949 . S
C610 C614 1.368 1_554 S
C611 C592 1.429 . S
C611 C605 1.429 1_556 S
C611 C612 1.523 . S
C612 C593 1.368 1_556 S
C612 C606 1.368 . S
C612 C611 1.523 . S
C613 C597 1.429 1_556 S
C613 C609 1.429 . S
C613 C614 1.523 . S
C614 C598 1.368 . S
C614 C610 1.368 1_556 S
C614 C613 1.523 . S
H615 C590 0.950 . S
H616 C592 0.950 . S
H617 C593 0.949 . S
H618 C595 0.950 . S
H619 C597 0.950 . S
C620 C621 1.349 . S
C620 C622 1.327 . S
C620 H645 0.950 . S
C621 C620 1.349 . S
C621 C637 1.349 1_554 S
C622 C620 1.327 . S
C622 C641 1.429 . S
C622 H646 0.950 . S
C623 C640 1.574 . S
C623 C642 1.368 1_556 S
C623 H647 0.949 . S
H624 C628 0.949 . S
C625 C626 1.349 1_556 S
C625 C627 1.327 . S
C625 H648 0.950 . S
C626 C625 1.349 1_554 S
C626 C638 1.349 . S
C627 C625 1.327 . S
C627 C643 1.429 1_556 S
C627 H649 0.950 . S
C628 H624 0.949 . S
C628 C636 1.574 . S
C628 C644 1.368 . S
H629 C637 0.950 . S
H630 C635 0.950 . S
H631 C636 0.949 . S
H632 C638 0.950 . S
H633 C639 0.950 . S
H634 C640 0.949 . S
C635 H630 0.950 . S
C635 C637 1.327 . S
C635 C641 1.429 1_556 S
C636 C628 1.574 . S
C636 H631 0.949 . S
C636 C642 1.368 . S
C637 C621 1.349 1_556 S
C637 H629 0.950 . S
C637 C635 1.327 . S
C638 C626 1.349 . S
C638 H632 0.950 . S
C638 C639 1.327 . S
C639 H633 0.950 . S
C639 C638 1.327 . S
C639 C643 1.429 . S
C640 C623 1.574 . S
C640 H634 0.949 . S
C640 C644 1.368 1_556 S
C641 C622 1.429 . S
C641 C635 1.429 1_554 S
C641 C642 1.523 . S
C642 C623 1.368 1_554 S
C642 C636 1.368 . S
C642 C641 1.523 . S
C643 C627 1.429 1_554 S
C643 C639 1.429 . S
C643 C644 1.523 . S
C644 C628 1.368 . S
C644 C640 1.368 1_554 S
C644 C643 1.523 . S
H645 C620 0.950 . S
H646 C622 0.950 . S
H647 C623 0.949 . S
H648 C625 0.950 . S
H649 C627 0.950 . S
C650 C651 1.349 . S
C650 C652 1.327 . S
C650 H675 0.950 . S
C651 C650 1.349 . S
C651 C667 1.349 1_554 S
C652 C650 1.327 . S
C652 C671 1.429 . S
C652 H676 0.950 . S
C653 C670 1.574 1_545 S
C653 C672 1.368 1_556 S
C653 H677 0.949 . S
H654 C658 0.949 . S
C655 C656 1.349 1_556 S
C655 C657 1.327 . S
C655 H678 0.950 . S
C656 C655 1.349 1_554 S
C656 C668 1.349 . S
C657 C655 1.327 . S
C657 C673 1.429 1_556 S
C657 H679 0.950 . S
C658 H654 0.949 . S
C658 C666 1.574 1_565 S
C658 C674 1.368 . S
H659 C667 0.950 . S
H660 C665 0.950 . S
H661 C666 0.949 . S
H662 C668 0.950 . S
H663 C669 0.950 . S
H664 C670 0.949 . S
C665 H660 0.950 . S
C665 C667 1.327 . S
C665 C671 1.429 1_556 S
C666 C658 1.574 1_545 S
C666 H661 0.949 . S
C666 C672 1.368 . S
C667 C651 1.349 1_556 S
C667 H659 0.950 . S
C667 C665 1.327 . S
C668 C656 1.349 . S
C668 H662 0.950 . S
C668 C669 1.327 . S
C669 H663 0.950 . S
C669 C668 1.327 . S
C669 C673 1.429 . S
C670 C653 1.574 1_565 S
C670 H664 0.949 . S
C670 C674 1.368 1_556 S
C671 C652 1.429 . S
C671 C665 1.429 1_554 S
C671 C672 1.523 . S
C672 C653 1.368 1_554 S
C672 C666 1.368 . S
C672 C671 1.523 . S
C673 C657 1.429 1_554 S
C673 C669 1.429 . S
C673 C674 1.523 . S
C674 C658 1.368 . S
C674 C670 1.368 1_554 S
C674 C673 1.523 . S
H675 C650 0.950 . S
H676 C652 0.950 . S
H677 C653 0.949 . S
H678 C655 0.950 . S
H679 C657 0.950 . S
C680 C681 1.349 . S
C680 C682 1.327 . S
C680 H705 0.950 . S
C681 C680 1.349 . S
C681 C697 1.349 . S
C682 C680 1.327 . S
C682 C701 1.429 . S
C682 H706 0.950 . S
C683 C700 1.574 . S
C683 C702 1.368 1_556 S
C683 H707 0.949 . S
H684 C688 0.949 . S
C685 C686 1.349 . S
C685 C687 1.327 . S
C685 H708 0.950 . S
C686 C685 1.349 . S
C686 C698 1.349 . S
C687 C685 1.327 . S
C687 C703 1.429 . S
C687 H709 0.950 . S
C688 H684 0.949 . S
C688 C696 1.574 . S
C688 C704 1.368 . S
H689 C697 0.950 . S
H690 C695 0.950 . S
H691 C696 0.949 1_554 S
H692 C698 0.950 . S
H693 C699 0.950 . S
H694 C700 0.949 . S
C695 H690 0.950 . S
C695 C697 1.327 . S
C695 C701 1.429 . S
C696 C688 1.574 . S
C696 H691 0.949 1_556 S
C696 C702 1.368 1_556 S
C697 C681 1.349 . S
C697 H689 0.950 . S
C697 C695 1.327 . S
C698 C686 1.349 . S
C698 H692 0.950 . S
C698 C699 1.327 . S
C699 H693 0.950 . S
C699 C698 1.327 . S
C699 C703 1.429 . S
C700 C683 1.574 . S
C700 H694 0.949 . S
C700 C704 1.368 . S
C701 C682 1.429 . S
C701 C695 1.429 . S
C701 C702 1.523 . S
C702 C683 1.368 1_554 S
C702 C696 1.368 1_554 S
C702 C701 1.523 . S
C703 C687 1.429 . S
C703 C699 1.429 . S
C703 C704 1.523 . S
C704 C688 1.368 . S
C704 C700 1.368 . S
C704 C703 1.523 . S
H705 C680 0.950 . S
H706 C682 0.950 . S
H707 C683 0.949 . S
H708 C685 0.950 . S
H709 C687 0.950 . S
C710 C711 1.349 . S
C710 C712 1.327 . S
C710 H735 0.950 . S
C711 C710 1.349 . S
C711 C727 1.349 . S
C712 C710 1.327 . S
C712 C731 1.429 . S
C712 H736 0.950 . S
C713 C730 1.574 . S
C713 C732 1.368 1_556 S
C713 H737 0.949 1_556 S
H714 C718 0.949 . S
C715 C716 1.349 . S
C715 C717 1.327 . S
C715 H738 0.950 . S
C716 C715 1.349 . S
C716 C728 1.349 . S
C717 C715 1.327 . S
C717 C733 1.429 . S
C717 H739 0.950 . S
C718 H714 0.949 . S
C718 C726 1.574 . S
C718 C734 1.368 . S
H719 C727 0.950 . S
H720 C725 0.950 . S
H721 C726 0.949 . S
H722 C728 0.950 . S
H723 C729 0.950 . S
H724 C730 0.949 . S
C725 H720 0.950 . S
C725 C727 1.327 . S
C725 C731 1.429 . S
C726 C718 1.574 . S
C726 H721 0.949 . S
C726 C732 1.368 1_556 S
C727 C711 1.349 . S
C727 H719 0.950 . S
C727 C725 1.327 . S
C728 C716 1.349 . S
C728 H722 0.950 . S
C728 C729 1.327 . S
C729 H723 0.950 . S
C729 C728 1.327 . S
C729 C733 1.429 . S
C730 C713 1.574 . S
C730 H724 0.949 . S
C730 C734 1.368 . S
C731 C712 1.429 . S
C731 C725 1.429 . S
C731 C732 1.523 . S
C732 C713 1.368 1_554 S
C732 C726 1.368 1_554 S
C732 C731 1.523 . S
C733 C717 1.429 . S
C733 C729 1.429 . S
C733 C734 1.523 . S
C734 C718 1.368 . S
C734 C730 1.368 . S
C734 C733 1.523 . S
H735 C710 0.950 . S
H736 C712 0.950 . S
H737 C713 0.949 1_554 S
H738 C715 0.950 . S
H739 C717 0.950 . S
C740 C741 1.349 . S
C740 C742 1.327 . S
C740 H765 0.950 . S
C741 C740 1.349 . S
C741 C757 1.349 . S
C742 C740 1.327 . S
C742 C761 1.429 . S
C742 H766 0.950 . S
C743 C760 1.574 . S
C743 C762 1.368 . S
C743 H767 0.949 . S
H744 C748 0.949 1_556 S
C745 C746 1.349 . S
C745 C747 1.327 . S
C745 H768 0.950 . S
C746 C745 1.349 . S
C746 C758 1.349 . S
C747 C745 1.327 . S
C747 C763 1.429 . S
C747 H769 0.950 . S
C748 H744 0.949 1_554 S
C748 C756 1.574 . S
C748 C764 1.368 1_554 S
H749 C757 0.950 . S
H750 C755 0.950 . S
H751 C756 0.949 . S
H752 C758 0.950 . S
H753 C759 0.950 . S
H754 C760 0.949 . S
C755 H750 0.950 . S
C755 C757 1.327 . S
C755 C761 1.429 . S
C756 C748 1.574 . S
C756 H751 0.949 . S
C756 C762 1.368 . S
C757 C741 1.349 . S
C757 H749 0.950 . S
C757 C755 1.327 . S
C758 C746 1.349 . S
C758 H752 0.950 . S
C758 C759 1.327 . S
C759 H753 0.950 . S
C759 C758 1.327 . S
C759 C763 1.429 . S
C760 C743 1.574 . S
C760 H754 0.949 . S
C760 C764 1.368 1_554 S
C761 C742 1.429 . S
C761 C755 1.429 . S
C761 C762 1.523 . S
C762 C743 1.368 . S
C762 C756 1.368 . S
C762 C761 1.523 . S
C763 C747 1.429 . S
C763 C759 1.429 . S
C763 C764 1.523 . S
C764 C748 1.368 1_556 S
C764 C760 1.368 1_556 S
C764 C763 1.523 . S
H765 C740 0.950 . S
H766 C742 0.950 . S
H767 C743 0.949 . S
H768 C745 0.950 . S
H769 C747 0.950 . S
C770 C771 1.349 . S
C770 C772 1.327 . S
C770 H795 0.950 . S
C771 C770 1.349 . S
C771 C787 1.349 . S
C772 C770 1.327 . S
C772 C791 1.429 . S
C772 H796 0.950 . S
C773 C790 1.574 . S
C773 C792 1.368 1_554 S
C773 H797 0.949 1_554 S
H774 C778 0.949 . S
C775 C776 1.349 . S
C775 C777 1.327 . S
C775 H798 0.950 . S
C776 C775 1.349 . S
C776 C788 1.349 . S
C777 C775 1.327 . S
C777 C793 1.429 . S
C777 H799 0.950 . S
C778 H774 0.949 . S
C778 C786 1.574 . S
C778 C794 1.368 . S
H779 C787 0.950 . S
H780 C785 0.950 . S
H781 C786 0.949 1_556 S
H782 C788 0.950 . S
H783 C789 0.950 . S
H784 C790 0.949 . S
C785 H780 0.950 . S
C785 C787 1.327 . S
C785 C791 1.429 . S
C786 C778 1.574 . S
C786 H781 0.949 1_554 S
C786 C792 1.368 1_554 S
C787 C771 1.349 . S
C787 H779 0.950 . S
C787 C785 1.327 . S
C788 C776 1.349 . S
C788 H782 0.950 . S
C788 C789 1.327 . S
C789 H783 0.950 . S
C789 C788 1.327 . S
C789 C793 1.429 . S
C790 C773 1.574 . S
C790 H784 0.949 . S
C790 C794 1.368 . S
C791 C772 1.429 . S
C791 C785 1.429 . S
C791 C792 1.523 . S
C792 C773 1.368 1_556 S
C792 C786 1.368 1_556 S
C792 C791 1.523 . S
C793 C777 1.429 . S
C793 C789 1.429 . S
C793 C794 1.523 . S
C794 C778 1.368 . S
C794 C790 1.368 . S
C794 C793 1.523 . S
H795 C770 0.950 . S
H796 C772 0.950 . S
H797 C773 0.949 1_556 S
H798 C775 0.950 . S
H799 C777 0.950 . S
C800 C801 1.349 . S
C800 C802 1.327 . S
C800 H825 0.950 . S
C801 C800 1.349 . S
C801 C817 1.349 . S
C802 C800 1.327 . S
C802 C821 1.429 . S
C802 H826 0.950 . S
C803 C820 1.574 . S
C803 C822 1.368 . S
C803 H827 0.949 . S
H804 C808 0.949 . S
C805 C806 1.349 . S
C805 C807 1.327 . S
C805 H828 0.950 . S
C806 C805 1.349 . S
C806 C818 1.349 . S
C807 C805 1.327 . S
C807 C823 1.429 . S
C807 H829 0.950 . S
C808 H804 0.949 . S
C808 C816 1.574 . S
C808 C824 1.368 . S
H809 C817 0.950 . S
H810 C815 0.950 . S
H811 C816 0.949 . S
H812 C818 0.950 . S
H813 C819 0.950 . S
H814 C820 0.949 . S
C815 H810 0.950 . S
C815 C817 1.327 . S
C815 C821 1.429 . S
C816 C808 1.574 . S
C816 H811 0.949 . S
C816 C822 1.368 . S
C817 C801 1.349 . S
C817 H809 0.950 . S
C817 C815 1.327 . S
C818 C806 1.349 . S
C818 H812 0.950 . S
C818 C819 1.327 . S
C819 H813 0.950 . S
C819 C818 1.327 . S
C819 C823 1.429 . S
C820 C803 1.574 . S
C820 H814 0.949 . S
C820 C824 1.368 . S
C821 C802 1.429 . S
C821 C815 1.429 . S
C821 C822 1.523 . S
C822 C803 1.368 . S
C822 C816 1.368 . S
C822 C821 1.523 . S
C823 C807 1.429 . S
C823 C819 1.429 . S
C823 C824 1.523 . S
C824 C808 1.368 . S
C824 C820 1.368 . S
C824 C823 1.523 . S
H825 C800 0.950 . S
H826 C802 0.950 . S
H827 C803 0.949 . S
H828 C805 0.950 . S
H829 C807 0.950 . S
C830 C831 1.349 . S
C830 C832 1.327 . S
C830 H855 0.950 . S
C831 C830 1.349 . S
C831 C847 1.349 . S
C832 C830 1.327 . S
C832 C851 1.429 . S
C832 H856 0.950 . S
C833 C850 1.574 . S
C833 C852 1.368 . S
C833 H857 0.949 . S
H834 C838 0.949 . S
C835 C836 1.349 . S
C835 C837 1.327 . S
C835 H858 0.950 . S
C836 C835 1.349 . S
C836 C848 1.349 . S
C837 C835 1.327 . S
C837 C853 1.429 . S
C837 H859 0.950 . S
C838 H834 0.949 . S
C838 C846 1.574 . S
C838 C854 1.368 . S
H839 C847 0.950 . S
H840 C845 0.950 . S
H841 C846 0.949 . S
H842 C848 0.950 . S
H843 C849 0.950 . S
H844 C850 0.949 . S
C845 H840 0.950 . S
C845 C847 1.327 . S
C845 C851 1.429 . S
C846 C838 1.574 . S
C846 H841 0.949 . S
C846 C852 1.368 . S
C847 C831 1.349 . S
C847 H839 0.950 . S
C847 C845 1.327 . S
C848 C836 1.349 . S
C848 H842 0.950 . S
C848 C849 1.327 . S
C849 H843 0.950 . S
C849 C848 1.327 . S
C849 C853 1.429 . S
C850 C833 1.574 . S
C850 H844 0.949 . S
C850 C854 1.368 . S
C851 C832 1.429 . S
C851 C845 1.429 . S
C851 C852 1.523 . S
C852 C833 1.368 . S
C852 C846 1.368 . S
C852 C851 1.523 . S
C853 C837 1.429 . S
C853 C849 1.429 . S
C853 C854 1.523 . S
C854 C838 1.368 . S
C854 C850 1.368 . S
C854 C853 1.523 . S
H855 C830 0.950 . S
H856 C832 0.950 . S
H857 C833 0.949 . S
H858 C835 0.950 . S
H859 C837 0.950 . S
C860 C861 1.349 . S
C860 C862 1.327 . S
C860 H885 0.950 . S
C861 C860 1.349 . S
C861 C877 1.349 . S
C862 C860 1.327 . S
C862 C881 1.429 . S
C862 H886 0.950 . S
C863 C880 1.574 . S
C863 C882 1.368 . S
C863 H887 0.949 . S
H864 C868 0.949 . S
C865 C866 1.349 . S
C865 C867 1.327 . S
C865 H888 0.950 . S
C866 C865 1.349 . S
C866 C878 1.349 . S
C867 C865 1.327 . S
C867 C883 1.429 . S
C867 H889 0.950 . S
C868 H864 0.949 . S
C868 C876 1.574 . S
C868 C884 1.368 . S
H869 C877 0.950 . S
H870 C875 0.950 . S
H871 C876 0.949 . S
H872 C878 0.950 . S
H873 C879 0.950 . S
H874 C880 0.949 . S
C875 H870 0.950 . S
C875 C877 1.327 . S
C875 C881 1.429 . S
C876 C868 1.574 . S
C876 H871 0.949 . S
C876 C882 1.368 . S
C877 C861 1.349 . S
C877 H869 0.950 . S
C877 C875 1.327 . S
C878 C866 1.349 . S
C878 H872 0.950 . S
C878 C879 1.327 . S
C879 H873 0.950 . S
C879 C878 1.327 . S
C879 C883 1.429 . S
C880 C863 1.574 . S
C880 H874 0.949 . S
C880 C884 1.368 . S
C881 C862 1.429 . S
C881 C875 1.429 . S
C881 C882 1.523 . S
C882 C863 1.368 . S
C882 C876 1.368 . S
C882 C881 1.523 . S
C883 C867 1.429 . S
C883 C879 1.429 . S
C883 C884 1.523 . S
C884 C868 1.368 . S
C884 C880 1.368 . S
C884 C883 1.523 . S
H885 C860 0.950 . S
H886 C862 0.950 . S
H887 C863 0.949 . S
H888 C865 0.950 . S
H889 C867 0.950 . S
C890 C891 1.349 . S
C890 C892 1.327 . S
C890 H915 0.950 . S
C891 C890 1.349 . S
C891 C907 1.349 . S
C892 C890 1.327 . S
C892 C911 1.429 . S
C892 H916 0.950 . S
C893 C910 1.574 . S
C893 C912 1.368 . S
C893 H917 0.949 . S
H894 C898 0.949 . S
C895 C896 1.349 . S
C895 C897 1.327 . S
C895 H918 0.950 . S
C896 C895 1.349 . S
C896 C908 1.349 . S
C897 C895 1.327 . S
C897 C913 1.429 . S
C897 H919 0.950 . S
C898 H894 0.949 . S
C898 C906 1.574 . S
C898 C914 1.368 . S
H899 C907 0.950 . S
H900 C905 0.950 . S
H901 C906 0.949 . S
H902 C908 0.950 . S
H903 C909 0.950 . S
H904 C910 0.949 . S
C905 H900 0.950 . S
C905 C907 1.327 . S
C905 C911 1.429 . S
C906 C898 1.574 . S
C906 H901 0.949 . S
C906 C912 1.368 . S
C907 C891 1.349 . S
C907 H899 0.950 . S
C907 C905 1.327 . S
C908 C896 1.349 . S
C908 H902 0.950 . S
C908 C909 1.327 . S
C909 H903 0.950 . S
C909 C908 1.327 . S
C909 C913 1.429 . S
C910 C893 1.574 . S
C910 H904 0.949 . S
C910 C914 1.368 . S
C911 C892 1.429 . S
C911 C905 1.429 . S
C911 C912 1.523 . S
C912 C893 1.368 . S
C912 C906 1.368 . S
C912 C911 1.523 . S
C913 C897 1.429 . S
C913 C909 1.429 . S
C913 C914 1.523 . S
C914 C898 1.368 . S
C914 C910 1.368 . S
C914 C913 1.523 . S
H915 C890 0.950 . S
H916 C892 0.950 . S
H917 C893 0.949 . S
H918 C895 0.950 . S
H919 C897 0.950 . S
C920 C921 1.349 . S
C920 C922 1.327 . S
C920 H945 0.950 . S
C921 C920 1.349 . S
C921 C937 1.349 . S
C922 C920 1.327 . S
C922 C941 1.429 . S
C922 H946 0.950 . S
C923 C940 1.574 1_455 S
C923 C942 1.368 . S
C923 H947 0.949 . S
H924 C928 0.949 . S
C925 C926 1.349 . S
C925 C927 1.327 . S
C925 H948 0.950 . S
C926 C925 1.349 . S
C926 C938 1.349 . S
C927 C925 1.327 . S
C927 C943 1.429 . S
C927 H949 0.950 . S
C928 H924 0.949 . S
C928 C936 1.574 1_655 S
C928 C944 1.368 . S
H929 C937 0.950 . S
H930 C935 0.950 . S
H931 C936 0.949 . S
H932 C938 0.950 . S
H933 C939 0.950 . S
H934 C940 0.949 . S
C935 H930 0.950 . S
C935 C937 1.327 . S
C935 C941 1.429 . S
C936 C928 1.574 1_455 S
C936 H931 0.949 . S
C936 C942 1.368 . S
C937 C921 1.349 . S
C937 H929 0.950 . S
C937 C935 1.327 . S
C938 C926 1.349 . S
C938 H932 0.950 . S
C938 C939 1.327 . S
C939 H933 0.950 . S
C939 C938 1.327 . S
C939 C943 1.429 . S
C940 C923 1.574 1_655 S
C940 H934 0.949 . S
C940 C944 1.368 . S
C941 C922 1.429 . S
C941 C935 1.429 . S
C941 C942 1.523 . S
C942 C923 1.368 . S
C942 C936 1.368 . S
C942 C941 1.523 . S
C943 C927 1.429 . S
C943 C939 1.429 . S
C943 C944 1.523 . S
C944 C928 1.368 . S
C944 C940 1.368 . S
C944 C943 1.523 . S
H945 C920 0.950 . S
H946 C922 0.950 . S
H947 C923 0.949 . S
H948 C925 0.950 . S
H949 C927 0.950 . S
C950 C951 1.349 . S
C950 C952 1.327 . S
C950 H975 0.950 . S
C951 C950 1.349 . S
C951 C967 1.349 . S
C952 C950 1.327 . S
C952 C971 1.429 . S
C952 H976 0.950 . S
C953 C970 1.574 1_655 S
C953 C972 1.368 . S
C953 H977 0.949 . S
H954 C958 0.949 . S
C955 C956 1.349 . S
C955 C957 1.327 . S
C955 H978 0.950 . S
C956 C955 1.349 . S
C956 C968 1.349 . S
C957 C955 1.327 . S
C957 C973 1.429 . S
C957 H979 0.950 . S
C958 H954 0.949 . S
C958 C966 1.574 1_455 S
C958 C974 1.368 . S
H959 C967 0.950 . S
H960 C965 0.950 . S
H961 C966 0.949 . S
H962 C968 0.950 . S
H963 C969 0.950 . S
H964 C970 0.949 . S
C965 H960 0.950 . S
C965 C967 1.327 . S
C965 C971 1.429 . S
C966 C958 1.574 1_655 S
C966 H961 0.949 . S
C966 C972 1.368 . S
C967 C951 1.349 . S
C967 H959 0.950 . S
C967 C965 1.327 . S
C968 C956 1.349 . S
C968 H962 0.950 . S
C968 C969 1.327 . S
C969 H963 0.950 . S
C969 C968 1.327 . S
C969 C973 1.429 . S
C970 C953 1.574 1_455 S
C970 H964 0.949 . S
C970 C974 1.368 . S
C971 C952 1.429 . S
C971 C965 1.429 . S
C971 C972 1.523 . S
C972 C953 1.368 . S
C972 C966 1.368 . S
C972 C971 1.523 . S
C973 C957 1.429 . S
C973 C969 1.429 . S
C973 C974 1.523 . S
C974 C958 1.368 . S
C974 C970 1.368 . S
C974 C973 1.523 . S
H975 C950 0.950 . S
H976 C952 0.950 . S
H977 C953 0.949 . S
H978 C955 0.950 . S
H979 C957 0.950 . S
C980 C981 1.349 . S
C980 C982 1.327 . S
C980 H1005 0.950 . S
C981 C980 1.349 . S
C981 C997 1.349 . S
C982 C980 1.327 . S
C982 C1001 1.429 . S
C982 H1006 0.950 . S
C983 C1000 1.574 . S
C983 C1002 1.368 . S
C983 H1007 0.949 . S
H984 C988 0.949 . S
C985 C986 1.349 . S
C985 C987 1.327 . S
C985 H1008 0.950 . S
C986 C985 1.349 . S
C986 C998 1.349 . S
C987 C985 1.327 . S
C987 C1003 1.429 . S
C987 H1009 0.950 . S
C988 H984 0.949 . S
C988 C996 1.574 . S
C988 C1004 1.368 . S
H989 C997 0.950 . S
H990 C995 0.950 . S
H991 C996 0.949 . S
H992 C998 0.950 . S
H993 C999 0.950 . S
H994 C1000 0.949 . S
C995 H990 0.950 . S
C995 C997 1.327 . S
C995 C1001 1.429 . S
C996 C988 1.574 . S
C996 H991 0.949 . S
C996 C1002 1.368 . S
C997 C981 1.349 . S
C997 H989 0.950 . S
C997 C995 1.327 . S
C998 C986 1.349 . S
C998 H992 0.950 . S
C998 C999 1.327 . S
C999 H993 0.950 . S
C999 C998 1.327 . S
C999 C1003 1.429 . S
C1000 C983 1.574 . S
C1000 H994 0.949 . S
C1000 C1004 1.368 . S
C1001 C982 1.429 . S
C1001 C995 1.429 . S
C1001 C1002 1.523 . S
C1002 C983 1.368 . S
C1002 C996 1.368 . S
C1002 C1001 1.523 . S
C1003 C987 1.429 . S
C1003 C999 1.429 . S
C1003 C1004 1.523 . S
C1004 C988 1.368 . S
C1004 C1000 1.368 . S
C1004 C1003 1.523 . S
H1005 C980 0.950 . S
H1006 C982 0.950 . S
H1007 C983 0.949 . S
H1008 C985 0.950 . S
H1009 C987 0.950 . S
C1010 C1011 1.349 . S
C1010 C1012 1.327 . S
C1010 H1035 0.950 . S
C1011 C1010 1.349 . S
C1011 C1027 1.349 . S
C1012 C1010 1.327 . S
C1012 C1031 1.429 . S
C1012 H1036 0.950 . S
C1013 C1030 1.574 . S
C1013 C1032 1.368 . S
C1013 H1037 0.949 . S
H1014 C1018 0.949 . S
C1015 C1016 1.349 . S
C1015 C1017 1.327 . S
C1015 H1038 0.950 . S
C1016 C1015 1.349 . S
C1016 C1028 1.349 . S
C1017 C1015 1.327 . S
C1017 C1033 1.429 . S
C1017 H1039 0.950 . S
C1018 H1014 0.949 . S
C1018 C1026 1.574 . S
C1018 C1034 1.368 . S
H1019 C1027 0.950 . S
H1020 C1025 0.950 . S
H1021 C1026 0.949 . S
H1022 C1028 0.950 . S
H1023 C1029 0.950 . S
H1024 C1030 0.949 . S
C1025 H1020 0.950 . S
C1025 C1027 1.327 . S
C1025 C1031 1.429 . S
C1026 C1018 1.574 . S
C1026 H1021 0.949 . S
C1026 C1032 1.368 . S
C1027 C1011 1.349 . S
C1027 H1019 0.950 . S
C1027 C1025 1.327 . S
C1028 C1016 1.349 . S
C1028 H1022 0.950 . S
C1028 C1029 1.327 . S
C1029 H1023 0.950 . S
C1029 C1028 1.327 . S
C1029 C1033 1.429 . S
C1030 C1013 1.574 . S
C1030 H1024 0.949 . S
C1030 C1034 1.368 . S
C1031 C1012 1.429 . S
C1031 C1025 1.429 . S
C1031 C1032 1.523 . S
C1032 C1013 1.368 . S
C1032 C1026 1.368 . S
C1032 C1031 1.523 . S
C1033 C1017 1.429 . S
C1033 C1029 1.429 . S
C1033 C1034 1.523 . S
C1034 C1018 1.368 . S
C1034 C1030 1.368 . S
C1034 C1033 1.523 . S
H1035 C1010 0.950 . S
H1036 C1012 0.950 . S
H1037 C1013 0.949 . S
H1038 C1015 0.950 . S
H1039 C1017 0.950 . S
C321 C7 1.705 . S
C326 C296 1.704 . S
C351 C256 1.705 . S
C356 C47 1.704 . S
C381 C207 1.705 . S
C386 C96 1.704 . S
C411 C167 1.705 . S
C416 C136 1.704 . S
C441 C90 1.547 . S
C446 C10 1.554 . S
C471 C50 1.554 . S
C476 C130 1.547 . S
C501 C139 1.554 . S
C506 C59 1.547 . S
C531 C99 1.554 . S
C536 C19 1.547 . S
C561 C170 1.451 . S
C566 C250 1.451 . S
C591 C210 1.451 . S
C596 C290 1.451 . S
C621 C299 1.451 . S
C626 C219 1.451 . S
C651 C259 1.451 . S
C656 C179 1.451 . S
C681 C11 2.084 . S
C686 C2 2.084 . S
C711 C51 2.084 . S
C716 C42 2.084 . S
C741 C91 2.084 . S
C746 C82 2.084 . S
C771 C122 2.084 . S
C776 C131 2.084 . S
C801 C162 2.083 . S
C806 C171 2.083 . S
C831 C211 2.083 . S
C836 C202 2.083 . S
C861 C242 2.083 . S
C866 C251 2.083 . S
C891 C282 2.083 . S
C896 C291 2.083 . S
C921 C16 2.380 . S
C926 C56 2.380 . S
C951 C127 2.380 . S
C956 C87 2.380 . S
C981 C176 2.382 . S
C986 C216 2.382 . S
C1011 C287 2.382 . S
C1016 C247 2.382 . S
