# Generated by pormake.
# Topology wkf, (6)-cn, num edge types: 1
# Building blocks:
#     Node 0, Type 0, BuildingBlock: HISSIN_clean_sbu_0, # of connection points: 6
#     Node 1, Type 0, BuildingBlock: HISSIN_clean_sbu_0, # of connection points: 6
#     Node 2, Type 0, BuildingBlock: HISSIN_clean_sbu_0, # of connection points: 6
#     Node 3, Type 0, BuildingBlock: HISSIN_clean_sbu_0, # of connection points: 6
#     Node 4, Type 0, BuildingBlock: HISSIN_clean_sbu_0, # of connection points: 6
#     Node 5, Type 0, BuildingBlock: HISSIN_clean_sbu_0, # of connection points: 6
#     Node 6, Type 0, BuildingBlock: HISSIN_clean_sbu_0, # of connection points: 6
#     Node 7, Type 0, BuildingBlock: HISSIN_clean_sbu_0, # of connection points: 6
#     Node 8, Type 0, BuildingBlock: HISSIN_clean_sbu_0, # of connection points: 6
#     Node 9, Type 0, BuildingBlock: HISSIN_clean_sbu_0, # of connection points: 6
#     Node 10, Type 0, BuildingBlock: HISSIN_clean_sbu_0, # of connection points: 6
#     Node 11, Type 0, BuildingBlock: HISSIN_clean_sbu_0, # of connection points: 6
#     Edge 12, Type (0, 0), BuildingBlock: KIFKEQ_clean_linker_1, # of connection points: 2
#     Edge 13, Type (0, 0), BuildingBlock: KIFKEQ_clean_linker_1, # of connection points: 2
#     Edge 14, Type (0, 0), BuildingBlock: KIFKEQ_clean_linker_1, # of connection points: 2
#     Edge 15, Type (0, 0), BuildingBlock: KIFKEQ_clean_linker_1, # of connection points: 2
#     Edge 16, Type (0, 0), BuildingBlock: KIFKEQ_clean_linker_1, # of connection points: 2
#     Edge 17, Type (0, 0), BuildingBlock: KIFKEQ_clean_linker_1, # of connection points: 2
#     Edge 18, Type (0, 0), BuildingBlock: KIFKEQ_clean_linker_1, # of connection points: 2
#     Edge 19, Type (0, 0), BuildingBlock: KIFKEQ_clean_linker_1, # of connection points: 2
#     Edge 20, Type (0, 0), BuildingBlock: KIFKEQ_clean_linker_1, # of connection points: 2
#     Edge 21, Type (0, 0), BuildingBlock: KIFKEQ_clean_linker_1, # of connection points: 2
#     Edge 22, Type (0, 0), BuildingBlock: KIFKEQ_clean_linker_1, # of connection points: 2
#     Edge 23, Type (0, 0), BuildingBlock: KIFKEQ_clean_linker_1, # of connection points: 2
#     Edge 24, Type (0, 0), BuildingBlock: KIFKEQ_clean_linker_1, # of connection points: 2
#     Edge 25, Type (0, 0), BuildingBlock: KIFKEQ_clean_linker_1, # of connection points: 2
#     Edge 26, Type (0, 0), BuildingBlock: KIFKEQ_clean_linker_1, # of connection points: 2
#     Edge 27, Type (0, 0), BuildingBlock: KIFKEQ_clean_linker_1, # of connection points: 2
#     Edge 28, Type (0, 0), BuildingBlock: KIFKEQ_clean_linker_1, # of connection points: 2
#     Edge 29, Type (0, 0), BuildingBlock: KIFKEQ_clean_linker_1, # of connection points: 2
#     Edge 30, Type (0, 0), BuildingBlock: KIFKEQ_clean_linker_1, # of connection points: 2
#     Edge 31, Type (0, 0), BuildingBlock: KIFKEQ_clean_linker_1, # of connection points: 2
#     Edge 32, Type (0, 0), BuildingBlock: KIFKEQ_clean_linker_1, # of connection points: 2
#     Edge 33, Type (0, 0), BuildingBlock: KIFKEQ_clean_linker_1, # of connection points: 2
#     Edge 34, Type (0, 0), BuildingBlock: KIFKEQ_clean_linker_1, # of connection points: 2
#     Edge 35, Type (0, 0), BuildingBlock: KIFKEQ_clean_linker_1, # of connection points: 2
#     Edge 36, Type (0, 0), BuildingBlock: KIFKEQ_clean_linker_1, # of connection points: 2
#     Edge 37, Type (0, 0), BuildingBlock: KIFKEQ_clean_linker_1, # of connection points: 2
#     Edge 38, Type (0, 0), BuildingBlock: KIFKEQ_clean_linker_1, # of connection points: 2
#     Edge 39, Type (0, 0), BuildingBlock: KIFKEQ_clean_linker_1, # of connection points: 2
#     Edge 40, Type (0, 0), BuildingBlock: KIFKEQ_clean_linker_1, # of connection points: 2
#     Edge 41, Type (0, 0), BuildingBlock: KIFKEQ_clean_linker_1, # of connection points: 2
#     Edge 42, Type (0, 0), BuildingBlock: KIFKEQ_clean_linker_1, # of connection points: 2
#     Edge 43, Type (0, 0), BuildingBlock: KIFKEQ_clean_linker_1, # of connection points: 2
#     Edge 44, Type (0, 0), BuildingBlock: KIFKEQ_clean_linker_1, # of connection points: 2
#     Edge 45, Type (0, 0), BuildingBlock: KIFKEQ_clean_linker_1, # of connection points: 2
#     Edge 46, Type (0, 0), BuildingBlock: KIFKEQ_clean_linker_1, # of connection points: 2
#     Edge 47, Type (0, 0), BuildingBlock: KIFKEQ_clean_linker_1, # of connection points: 2
# Relax obj value: 0.289
# Max RMSD: 0.276
# Mean RMSD: 0.268
data_MOF--net-wkf--node1-HISSIN_clean_sbu_0--edge1-KIFKEQ_clean_linker_1
_symmetry_space_group_name_H-M    P1
_symmetry_Int_Tables_number       1
_symmetry_cell_setting            triclinic
loop_
_symmetry_equiv_pos_as_xyz
'x, y, z'
_cell_length_a     28.353867
_cell_length_b     28.314301
_cell_length_c     97.586099
_cell_angle_alpha  90.054055
_cell_angle_beta   90.038675
_cell_angle_gamma 119.28729
loop_
_atom_site_label
_atom_site_type_symbol
_atom_site_fract_x
_atom_site_fract_y
_atom_site_fract_z
_atom_type_partial_charge
Eu0 Eu 0.53877 1.00649 0.40012 0.0
Eu1 Eu 0.4287 0.98416 0.38404 0.0
C2 C 0.53747 0.10082 0.38182 0.0
C3 C 0.63464 1.01986 0.42803 0.0
C4 C 0.68314 1.02403 0.43272 0.0
C5 C 0.61358 1.03552 0.45111 0.0
C6 C 0.69752 1.03529 0.44651 0.0
C7 C 0.59909 1.02388 0.43736 0.0
C8 C 0.66366 1.04291 0.45573 0.0
C9 C 0.62225 1.01447 0.41337 0.0
O10 O 0.45292 0.92092 0.3776 0.0
O11 O 0.54235 0.97762 0.379 0.0
C12 C 0.50252 0.93124 0.37499 0.0
O13 O 0.46977 0.93167 0.4098 0.0
O14 O 0.38904 1.00878 0.36856 0.0
O15 O 0.34483 0.93005 0.37793 0.0
O16 O 0.39636 0.94116 0.40402 0.0
C17 C 0.41903 0.9195 0.41159 0.0
O18 O 0.50085 1.03798 0.41494 0.0
O19 O 0.43392 1.0401 0.40177 0.0
O20 O 0.49659 0.06206 0.37503 0.0
O21 O 0.5814 0.96844 0.40962 0.0
O22 O 0.62094 0.05565 0.4078 0.0
O23 O 0.55795 0.08944 0.39257 0.0
C24 C 0.3204 0.93808 0.35491 0.0
C25 C 0.28154 0.88292 0.35385 0.0
C26 C 0.30741 0.94828 0.33056 0.0
C27 C 0.25605 0.86073 0.34132 0.0
C28 C 0.33289 0.9705 0.3431 0.0
C29 C 0.26842 0.8931 0.3295 0.0
C30 C 0.3446 0.96228 0.36845 0.0
C31 C 0.46426 0.05305 0.41299 0.0
H32 H 0.71081 1.02078 0.42563 0.0
H33 H 0.58677 1.04111 0.45801 0.0
H34 H 0.73674 1.04158 0.44975 0.0
H35 H 0.56112 1.02016 0.43389 0.0
H36 H 0.27035 0.85682 0.36275 0.0
H37 H 0.31753 0.97468 0.32174 0.0
H38 H 0.22683 0.81796 0.3409 0.0
H39 H 0.36187 1.01333 0.34356 0.0
Eu40 Eu 0.59659 0.52319 0.5688 0.0
Eu41 Eu 0.51091 0.41928 0.55114 0.0
C42 C 0.50472 0.53005 0.55082 0.0
C43 C 0.67014 0.61321 0.59827 0.0
C44 C 0.62174 0.60177 0.60484 0.0
C45 C 0.71762 0.64301 0.61996 0.0
C46 C 0.6215 0.61225 0.61877 0.0
C47 C 0.71786 0.63288 0.60594 0.0
C48 C 0.66957 0.63377 0.62649 0.0
C49 C 0.66995 0.60082 0.58367 0.0
O50 O 0.59814 0.44037 0.5458 0.0
O51 O 0.63131 0.53003 0.54785 0.0
C52 C 0.63784 0.48986 0.54367 0.0
O53 O 0.60087 0.44931 0.57639 0.0
O54 O 0.45618 0.38845 0.53355 0.0
O55 O 0.47347 0.33384 0.54515 0.0
O56 O 0.51573 0.38237 0.57098 0.0
C57 C 0.56003 0.40021 0.57825 0.0
O58 O 0.52551 0.48594 0.58286 0.0
O59 O 0.4584 0.42463 0.56844 0.0
O60 O 0.50467 0.49152 0.54323 0.0
O61 O 0.67003 0.55575 0.58114 0.0
O62 O 0.63577 0.60694 0.57593 0.0
O63 O 0.53404 0.54644 0.56205 0.0
C64 C 0.45142 0.31237 0.52149 0.0
C65 C 0.44128 0.25863 0.52199 0.0
C66 C 0.45747 0.30953 0.49655 0.0
C67 C 0.4395 0.23074 0.50997 0.0
C68 C 0.45936 0.33752 0.5086 0.0
C69 C 0.44758 0.25573 0.49706 0.0
C70 C 0.44969 0.33969 0.53437 0.0
C71 C 0.47441 0.45217 0.58012 0.0
H72 H 0.58415 0.58541 0.59916 0.0
H73 H 0.75519 0.65899 0.62562 0.0
H74 H 0.58391 0.60556 0.62333 0.0
H75 H 0.75531 0.64061 0.60107 0.0
H76 H 0.43405 0.2378 0.53172 0.0
H77 H 0.46444 0.33033 0.48683 0.0
H78 H 0.43091 0.18914 0.5108 0.0
H79 H 0.46677 0.37874 0.5078 0.0
Eu80 Eu 0.09653 0.55184 0.73603 0.0
Eu81 Eu 0.15361 0.49231 0.71986 0.0
C82 C 1.03051 0.46485 0.71308 0.0
C83 C 1.00218 0.60796 0.74207 0.0
C84 C 0.99996 0.65587 0.74373 0.0
C85 C 0.91112 0.56404 0.73274 0.0
C86 C 0.95347 0.65787 0.74003 0.0
C87 C 0.95775 0.56211 0.73647 0.0
C88 C 0.90844 0.61196 0.73453 0.0
C89 C 1.05271 0.60788 0.74506 0.0
O90 O 0.18635 0.57698 0.71045 0.0
O91 O 0.18102 0.61415 0.73045 0.0
C92 C 0.20252 0.61998 0.71834 0.0
O93 O 0.15123 0.54859 0.7524 0.0
O94 O 0.14536 0.4329 0.70445 0.0
O95 O 0.22311 0.48219 0.71402 0.0
O96 O 0.20325 0.52311 0.73932 0.0
C97 C 0.1923 0.53936 0.751 0.0
O98 O 1.04961 0.46585 0.74311 0.0
O99 O 0.11266 0.43867 0.73852 0.0
O100 O 1.06461 0.44634 0.71432 0.0
O101 O 1.04886 0.56557 0.75146 0.0
O102 O 0.08658 0.62304 0.73484 0.0
O103 O 1.04474 0.51419 0.71717 0.0
C104 C 0.22314 0.44997 0.69126 0.0
C105 C 0.27299 0.45068 0.69103 0.0
C106 C 0.22201 0.44713 0.66622 0.0
C107 C 0.29707 0.44954 0.67859 0.0
C108 C 0.19798 0.44845 0.67869 0.0
C109 C 0.27181 0.44739 0.66598 0.0
C110 C 0.19627 0.44604 0.70463 0.0
C111 C 1.06859 0.43223 0.74486 0.0
H112 H 1.03423 0.69178 0.74789 0.0
H113 H 0.87716 0.52805 0.72852 0.0
H114 H 0.95232 0.69503 0.74186 0.0
H115 H 0.95925 0.52496 0.73497 0.0
H116 H 0.29293 0.45105 0.70054 0.0
H117 H 0.20167 0.44623 0.65674 0.0
H118 H 0.33503 0.44908 0.67887 0.0
H119 H 0.1594 0.44762 0.67847 0.0
Eu120 Eu 0.61196 0.09475 0.90091 0.0
Eu121 Eu 0.72727 0.13543 0.88555 0.0
C122 C 0.62636 1.01606 0.87934 0.0
C123 C 0.46067 1.01851 0.90767 0.0
C124 C 0.44833 0.98228 0.89668 0.0
C125 C 0.36975 0.96441 0.91632 0.0
C126 C 0.39671 0.9373 0.89549 0.0
C127 C 0.42115 1.0094 0.91745 0.0
C128 C 0.35682 0.92784 0.90532 0.0
C129 C 0.51425 0.06629 0.90899 0.0
O130 O 0.68148 0.17233 0.87443 0.0
O131 O 0.64507 0.18068 0.8941 0.0
C132 C 0.66063 0.19691 0.88162 0.0
O133 O 0.6702 0.14884 0.91713 0.0
O134 O 0.7784 0.1197 0.87159 0.0
O135 O 0.80756 0.20021 0.87975 0.0
O136 O 0.75025 0.18638 0.90485 0.0
C137 C 0.72251 0.18265 0.91604 0.0
O138 O 0.64067 1.04076 0.90989 0.0
O139 O 0.73162 0.09069 0.9047 0.0
O140 O 0.67894 1.04709 0.87991 0.0
O141 O 0.54928 0.06102 0.91664 0.0
O142 O 0.53528 0.09255 0.89762 0.0
O143 O 0.59383 1.0336 0.88377 0.0
C144 C 0.83952 0.19289 0.85752 0.0
C145 C 0.8509 0.24524 0.85365 0.0
C146 C 0.87688 0.18424 0.83574 0.0
C147 C 0.87508 0.26683 0.84098 0.0
C148 C 0.85288 0.16275 0.84842 0.0
C149 C 0.88851 0.23669 0.83184 0.0
C150 C 0.81656 0.17009 0.87119 0.0
C151 C 0.69098 0.05166 0.91159 0.0
H152 H 0.47855 0.98879 0.88901 0.0
H153 H 0.34058 0.95764 0.9243 0.0
H154 H 0.38808 0.91004 0.8869 0.0
H155 H 0.43017 1.0369 0.92601 0.0
H156 H 0.84168 0.26988 0.86045 0.0
H157 H 0.88589 0.15945 0.82894 0.0
H158 H 0.88412 0.30765 0.83847 0.0
H159 H 0.845 0.12246 0.85116 0.0
Eu160 Eu 0.56775 0.58954 0.06924 0.0
Eu161 Eu 0.64883 0.68977 0.04978 0.0
C162 C 0.66141 0.58183 0.05193 0.0
C163 C 0.4948 0.50811 0.10006 0.0
C164 C 0.4519 0.46277 0.10613 0.0
C165 C 0.53619 0.53928 0.1224 0.0
C166 C 0.45191 0.4548 0.12024 0.0
C167 C 0.53591 0.54737 0.1083 0.0
C168 C 0.49514 0.49196 0.12844 0.0
C169 C 0.49876 0.51281 0.08512 0.0
O170 O 0.5608 0.66619 1.04488 0.0
O171 O 0.52877 0.57732 0.04857 0.0
C172 C 0.52119 0.61604 1.04369 0.0
O173 O 0.55985 0.66178 0.07644 0.0
O174 O 0.67881 0.70986 1.02893 0.0
O175 O 0.70516 0.77416 1.04397 0.0
O176 O 0.63617 0.73356 0.06737 0.0
C177 C 0.59517 0.7139 0.07592 0.0
O178 O 0.63664 0.64177 0.08308 0.0
O179 O 0.70314 0.68773 0.06701 0.0
O180 O 0.66244 0.61974 1.04395 0.0
O181 O 0.49012 0.55011 0.07984 0.0
O182 O 0.54098 0.51287 0.07981 0.0
O183 O 0.63085 0.56611 0.06295 0.0
C184 C 0.70461 0.79743 1.02037 0.0
C185 C 0.75189 0.84528 1.01695 0.0
C186 C 0.65896 0.81218 1.00104 0.0
C187 C 0.75302 0.876 1.00558 0.0
C188 C 0.65785 0.78159 1.01245 0.0
C189 C 0.70683 0.85941 0.9973 0.0
C190 C 0.70681 0.76184 1.03115 0.0
C191 C 0.68775 0.67145 0.07975 0.0
H192 H 0.41978 0.43231 0.09988 0.0
H193 H 0.56989 0.56854 0.12847 0.0
H194 H 0.42016 0.41752 0.12455 0.0
H195 H 0.56909 0.58299 0.10375 0.0
H196 H 0.78852 0.85817 1.02288 0.0
H197 H 0.62272 0.79762 0.99488 0.0
H198 H 0.79032 0.91253 1.0032 0.0
H199 H 0.62091 0.74461 1.01481 0.0
Eu200 Eu 1.05787 0.55827 0.23606 0.0
Eu201 Eu 1.00326 0.61821 0.21921 0.0
C202 C 0.12649 0.64511 0.21332 0.0
C203 C 0.15106 0.50166 0.24283 0.0
C204 C 0.15325 0.45377 0.24454 0.0
C205 C 0.24245 0.54564 0.23377 0.0
C206 C 0.19989 0.45181 0.241 0.0
C207 C 0.19569 0.54754 0.23735 0.0
C208 C 0.24509 0.49773 0.2356 0.0
C209 C 0.10035 0.50171 0.24556 0.0
O210 O 0.96999 0.53299 0.21 0.0
O211 O 0.97364 0.49605 0.23017 0.0
C212 C 0.953 0.49009 0.21793 0.0
O213 O 1.00189 0.56234 0.25193 0.0
O214 O 1.01274 0.67352 0.2026 0.0
O215 O 0.93657 0.63305 0.21339 0.0
O216 O 0.95137 0.58787 0.23827 0.0
C217 C 0.96115 0.57188 0.25013 0.0
O218 O 0.10471 0.64388 0.24345 0.0
O219 O 1.04443 0.67345 0.2377 0.0
O220 O 0.09276 0.66411 0.21439 0.0
O221 O 0.10386 0.54403 0.25189 0.0
O222 O 1.06718 0.48664 0.23516 0.0
O223 O 0.11164 0.59575 0.2175 0.0
C224 C 0.93449 0.65916 0.19008 0.0
C225 C 0.88943 0.66721 0.18989 0.0
C226 C 0.92972 0.65207 0.1651 0.0
C227 C 0.86498 0.66806 0.17748 0.0
C228 C 0.95408 0.65102 0.17755 0.0
C229 C 0.8851 0.66112 0.16488 0.0
C230 C 0.96326 0.66487 0.20324 0.0
C231 C 0.0871 0.67886 0.2446 0.0
H232 H 0.11883 0.41784 0.2486 0.0
H233 H 0.27653 0.58163 0.22963 0.0
H234 H 0.20099 0.41466 0.24287 0.0
H235 H 0.19422 0.58467 0.2358 0.0
H236 H 0.87392 0.6743 0.19936 0.0
H237 H 0.94592 0.64587 0.15565 0.0
H238 H 0.83121 0.67585 0.17775 0.0
H239 H 0.98887 0.64484 0.17732 0.0
Eu240 Eu 0.11227 0.58509 0.50716 0.0
Eu241 Eu 0.15536 0.69995 0.52295 0.0
C242 C 1.03506 0.59935 0.52884 0.0
C243 C 1.0348 0.43396 0.49977 0.0
C244 C 0.99953 0.42138 0.51096 0.0
C245 C 0.98065 0.3428 0.49115 0.0
C246 C 0.95499 0.36952 0.51225 0.0
C247 C 1.02515 0.39446 0.48991 0.0
C248 C 0.9451 0.3296 0.50236 0.0
C249 C 0.08239 0.48762 0.4984 0.0
O250 O 0.19234 0.65325 0.53362 0.0
O251 O 0.19826 0.61641 0.51372 0.0
C252 C 0.21575 0.63186 0.52615 0.0
O253 O 0.16436 0.64455 0.49094 0.0
O254 O 0.13979 0.7491 0.53765 0.0
O255 O 0.21934 0.78096 0.52881 0.0
O256 O 0.20869 0.72228 0.50408 0.0
C257 C 0.20168 0.6957 0.49246 0.0
O258 O 1.05868 0.6154 0.49879 0.0
O259 O 0.11183 0.70633 0.50374 0.0
O260 O 1.06632 0.65199 0.52813 0.0
O261 O 0.07632 0.52321 0.49122 0.0
O262 O 0.11005 0.50795 0.50965 0.0
O263 O 1.05275 0.56669 0.52462 0.0
C264 C 0.21345 0.8124 0.55132 0.0
C265 C 0.26642 0.82515 0.55492 0.0
C266 C 0.20599 0.8507 0.57311 0.0
C267 C 0.2889 0.85048 0.56747 0.0
C268 C 0.18361 0.82552 0.56057 0.0
C269 C 0.25907 0.8638 0.57675 0.0
C270 C 0.18953 0.78856 0.53776 0.0
C271 C 1.07148 0.66626 0.49697 0.0
H272 H 1.00655 0.45157 0.5187 0.0
H273 H 0.97346 0.31357 0.48313 0.0
H274 H 0.92847 0.36066 0.52099 0.0
H275 H 1.05194 0.40365 0.4812 0.0
H276 H 0.29082 0.81616 0.54799 0.0
H277 H 0.18138 0.85948 0.58001 0.0
H278 H 0.33013 0.86054 0.56977 0.0
H279 H 0.14286 0.81662 0.55804 0.0
Eu280 Eu 0.57339 0.07793 0.67267 0.0
Eu281 Eu 0.5118 0.13229 0.6893 0.0
C282 C 0.48769 1.01001 0.69614 0.0
C283 C 0.62845 0.98372 0.66584 0.0
C284 C 0.58127 0.93902 0.67078 0.0
C285 C 0.67606 0.93274 0.66784 0.0
C286 C 0.5814 0.89116 0.67416 0.0
C287 C 0.67586 0.98049 0.66449 0.0
C288 C 0.62881 0.88746 0.67268 0.0
C289 C 0.63004 1.0354 0.66336 0.0
O290 O 0.59615 0.16454 0.69893 0.0
O291 O 0.63446 0.16197 0.67889 0.0
C292 C 0.63958 0.18161 0.69121 0.0
O293 O 0.57226 0.13546 0.65676 0.0
O294 O 0.4449 0.12372 0.70224 0.0
O295 O 0.50985 0.20359 0.69724 0.0
O296 O 0.53876 0.18106 0.66975 0.0
C297 C 0.5588 0.17369 0.65825 0.0
O298 O 0.4874 1.02947 0.66582 0.0
O299 O 0.4597 0.09213 0.67025 0.0
O300 O 0.46932 1.04445 0.69578 0.0
O301 O 0.58919 1.03362 0.65668 0.0
O302 O 0.64396 0.06718 0.67404 0.0
O303 O 0.53565 1.02351 0.69113 0.0
C304 C 0.46247 0.19403 0.71827 0.0
C305 C 0.41171 0.18172 0.72355 0.0
C306 C 0.50441 0.24592 0.73903 0.0
C307 C 0.40725 0.20179 0.73631 0.0
C308 C 0.50885 0.22577 0.72621 0.0
C309 C 0.45355 0.23492 0.74416 0.0
C310 C 0.46548 0.1756 0.70422 0.0
C311 C 0.45361 1.04804 0.66394 0.0
H312 H 0.54448 0.94128 0.67205 0.0
H313 H 0.71291 0.93086 0.66626 0.0
H314 H 0.54443 0.85703 0.67787 0.0
H315 H 0.71276 1.01495 0.66087 0.0
H316 H 0.37533 0.15724 0.71765 0.0
H317 H 0.541 0.2716 0.74471 0.0
H318 H 0.36736 0.19162 0.73999 0.0
H319 H 0.54857 0.2359 0.7224 0.0
Eu320 Eu 0.54666 0.57254 0.83795 0.0
Eu321 Eu 0.44529 0.49217 0.85722 0.0
C322 C 0.55343 0.47984 0.85534 0.0
C323 C 0.63209 0.64449 0.80749 0.0
C324 C 0.61663 0.59715 0.79986 0.0
C325 C 0.66334 0.69743 0.78663 0.0
C326 C 0.62662 0.60014 0.78582 0.0
C327 C 0.65398 0.69443 0.80075 0.0
C328 C 0.65153 0.6505 0.77907 0.0
C329 C 0.62433 0.64173 0.8224 0.0
O330 O 0.46771 0.58025 0.8614 0.0
O331 O 0.55662 0.61125 0.85862 0.0
C332 C 0.51767 0.6195 0.86295 0.0
O333 O 0.47521 0.57938 0.82999 0.0
O334 O 0.42713 0.46638 0.87841 0.0
O335 O 0.36205 0.43396 0.86351 0.0
O336 O 0.40154 0.50723 0.83996 0.0
C337 C 0.42267 0.54657 0.8309 0.0
O338 O 0.49571 0.503 0.82407 0.0
O339 O 0.44638 0.43712 0.84009 0.0
O340 O 0.51665 0.48099 0.86334 0.0
O341 O 0.58484 0.6489 0.82671 0.0
O342 O 0.62599 0.60189 0.82869 0.0
O343 O 0.5684 0.50839 0.84402 0.0
C344 C 0.33915 0.43585 0.88716 0.0
C345 C 0.29823 0.38645 0.89229 0.0
C346 C 0.31883 0.4829 0.90516 0.0
C347 C 0.26837 0.38509 0.90387 0.0
C348 C 0.34878 0.48419 0.89358 0.0
C349 C 0.2788 0.43323 0.91062 0.0
C350 C 0.37546 0.43522 0.87637 0.0
C351 C 0.46419 0.45204 0.82741 0.0
H352 H 0.59836 0.55789 0.8048 0.0
H353 H 0.68157 0.73674 0.78174 0.0
H354 H 0.61755 0.56311 0.78049 0.0
H355 H 0.66486 0.73122 0.80645 0.0
H356 H 0.2904 0.34863 0.88758 0.0
H357 H 0.32836 0.52079 0.91012 0.0
H358 H 0.23731 0.34619 0.90759 0.0
H359 H 0.38058 0.52281 0.88991 0.0
Eu360 Eu 1.03012 0.51676 1.00775 0.0
Eu361 Eu 1.01185 0.41038 1.0247 0.0
C362 C 0.12833 0.51839 1.02497 0.0
C363 C 1.04478 0.61224 0.97941 0.0
C364 C 1.04782 0.66027 0.9747 0.0
C365 C 1.0644 0.59316 0.95652 0.0
C366 C 1.06048 0.67545 0.96101 0.0
C367 C 1.05143 0.57792 0.97019 0.0
C368 C 1.07059 0.64285 0.9519 0.0
C369 C 1.03753 0.59917 0.99402 0.0
O370 O 0.94802 0.43338 1.03137 0.0
O371 O 1.00299 0.52296 1.02891 0.0
C372 C 0.95754 0.4832 1.03343 0.0
O373 O 0.95158 0.44625 0.99984 0.0
O374 O 1.03704 0.37782 1.04184 0.0
O375 O 0.96595 0.32466 1.03015 0.0
O376 O 0.96477 0.37491 1.00538 0.0
C377 C 0.94026 0.3956 0.99817 0.0
O378 O 1.05363 0.4731 0.99251 0.0
O379 O 1.06649 0.41505 1.00671 0.0
O380 O 0.09063 0.48025 1.03257 0.0
O381 O 0.99171 0.55727 0.99735 0.0
O382 O 0.07846 0.59914 1.0001 0.0
O383 O 0.11493 0.5358 1.01395 0.0
C384 C 0.96766 0.30293 0.05372 0.0
C385 C 0.91349 0.28878 0.05615 0.0
C386 C 0.97007 0.26453 0.07588 0.0
C387 C 0.88781 0.26248 0.06831 0.0
C388 C 0.99561 0.29057 0.0637 0.0
C389 C 0.91572 0.24996 0.07837 0.0
C390 C 0.9956 0.32938 1.04082 0.0
C391 C 1.07171 0.43898 0.99468 0.0
H392 H 1.04252 0.68701 0.98171 0.0
H393 H 1.07183 0.56727 0.94971 0.0
H394 H 1.06579 0.71436 0.95778 0.0
H395 H 1.04864 0.54034 0.97367 0.0
H396 H 0.89084 0.29773 0.04864 0.0
H397 H 0.99325 0.25647 0.08343 0.0
H398 H 0.84576 0.25132 0.06973 0.0
H399 H 1.03742 0.3011 0.06207 0.0
Eu400 Eu 0.58128 1.03104 0.17183 0.0
Eu401 Eu 0.64418 0.97726 0.18813 0.0
C402 C 0.66905 0.09988 0.19481 0.0
C403 C 0.5187 0.12048 0.16523 0.0
C404 C 0.5413 0.15172 0.17708 0.0
C405 C 0.48535 0.18087 0.15842 0.0
C406 C 0.53586 0.19741 0.17961 0.0
C407 C 0.49088 0.13535 0.15592 0.0
C408 C 0.50744 0.21221 0.17034 0.0
C409 C 0.52174 0.071 0.16281 0.0
O410 O 0.55982 0.94375 0.19776 0.0
O411 O 0.52139 0.94616 0.17775 0.0
C412 C 0.51636 0.92632 0.19002 0.0
O413 O 0.58303 0.97471 0.15567 0.0
O414 O 0.70686 0.98621 0.20258 0.0
O415 O 0.65172 0.90691 0.19451 0.0
O416 O 0.61882 0.93006 0.16821 0.0
C417 C 0.59802 0.93752 0.15684 0.0
O418 O 0.66639 0.07914 0.1643 0.0
O419 O 0.69752 1.01956 0.16955 0.0
O420 O 0.68775 0.06575 0.19419 0.0
O421 O 0.56431 0.07633 0.15629 0.0
O422 O 0.509 1.03856 0.17333 0.0
O423 O 0.62035 0.08576 0.19021 0.0
C424 C 0.6887 0.9103 0.21682 0.0
C425 C 0.67496 0.85554 0.21773 0.0
C426 C 0.70598 0.91896 0.24148 0.0
C427 C 0.67657 0.8327 0.23033 0.0
C428 C 0.70422 0.9418 0.22886 0.0
C429 C 0.69231 0.86409 0.2424 0.0
C430 C 0.69086 0.93456 0.20314 0.0
C431 C 0.70191 0.06235 0.16293 0.0
H432 H 0.56253 0.14037 0.18445 0.0
H433 H 0.46442 0.19199 0.1509 0.0
H434 H 0.55331 0.22073 0.18885 0.0
H435 H 0.47323 0.11163 0.14673 0.0
H436 H 0.66376 0.83045 0.20862 0.0
H437 H 0.71769 0.94427 0.25055 0.0
H438 H 0.66654 0.79057 0.23055 0.0
H439 H 0.71555 0.98427 0.22855 0.0
Eu440 Eu 0.60736 0.54146 0.33927 0.0
Eu441 Eu 0.71435 0.62252 0.35719 0.0
C442 C 0.6059 0.63832 0.35657 0.0
C443 C 0.51945 0.46639 0.30956 0.0
C444 C 0.53423 0.51351 0.30192 0.0
C445 C 0.48844 0.41311 0.2887 0.0
C446 C 0.52426 0.51026 0.28788 0.0
C447 C 0.49786 0.41636 0.30283 0.0
C448 C 0.5 0.45986 0.28112 0.0
C449 C 0.52846 0.46973 0.32443 0.0
O450 O 0.68979 0.53386 0.36162 0.0
O451 O 0.60084 0.50409 0.35988 0.0
C452 C 0.63991 0.49528 0.36369 0.0
O453 O 0.67832 0.53979 0.32893 0.0
O454 O 0.73604 0.65099 0.37811 0.0
O455 O 0.79957 0.67634 0.36289 0.0
O456 O 0.75472 0.60776 0.33924 0.0
C457 C 0.73125 0.57088 0.32965 0.0
O458 O 0.64759 0.61432 0.32583 0.0
O459 O 0.71467 0.67766 0.33997 0.0
O460 O 0.65028 0.64562 0.36278 0.0
O461 O 0.56918 0.464 0.32845 0.0
O462 O 0.52633 0.50926 0.33076 0.0
O463 O 0.58261 0.60153 0.34694 0.0
C464 C 0.82349 0.67512 0.3865 0.0
C465 C 0.87305 0.72137 0.38942 0.0
C466 C 0.83612 0.63111 0.40653 0.0
C467 C 0.90353 0.72291 0.40091 0.0
C468 C 0.80579 0.62958 0.39502 0.0
C469 C 0.88499 0.67818 0.4098 0.0
C470 C 0.78796 0.67792 0.37577 0.0
C471 C 0.68578 0.66396 0.32851 0.0
H472 H 0.55222 0.55284 0.30685 0.0
H473 H 0.47058 0.37377 0.2838 0.0
H474 H 0.53301 0.54713 0.28253 0.0
H475 H 0.48752 0.37975 0.30853 0.0
H476 H 0.8874 0.75712 0.38306 0.0
H477 H 0.82004 0.59602 0.41315 0.0
H478 H 0.94132 0.75948 0.40291 0.0
H479 H 0.76749 0.59346 0.39307 0.0
H480 H 1.04385 0.72741 0.26093 0.0
H481 H 0.19263 0.72689 0.252 0.0
H482 H 0.08724 0.78636 0.28078 0.0
H483 H 0.23548 0.78458 0.27173 0.0
H484 H 0.31255 0.91418 0.30366 0.0
H485 H 0.26874 0.87257 0.28204 0.0
H486 H 0.11844 0.77494 0.3034 0.0
H487 H 0.16174 0.81801 0.32497 0.0
C488 C 0.08611 0.74097 0.263 0.0
C489 C 0.11481 0.72253 0.2549 0.0
C490 C 0.11081 0.77415 0.27447 0.0
C491 C 0.16486 0.79003 0.27795 0.0
C492 C 0.1941 0.77379 0.26935 0.0
C493 C 0.16938 0.74041 0.25804 0.0
C494 C 0.26993 0.88453 0.30375 0.0
C495 C 0.24093 0.86928 0.31614 0.0
C496 C 0.24486 0.86027 0.29133 0.0
C497 C 0.19001 0.82009 0.29093 0.0
C498 C 0.16055 0.80603 0.30326 0.0
C499 C 0.18567 0.83022 0.31569 0.0
H500 H 0.40393 0.25612 0.47176 0.0
H501 H 0.48918 0.18748 0.49334 0.0
H502 H 0.40523 0.20874 0.45084 0.0
H503 H 0.48861 0.13897 0.47277 0.0
H504 H 0.54078 0.11367 0.43162 0.0
H505 H 0.53415 0.16264 0.45112 0.0
H506 H 0.37027 0.1177 0.43975 0.0
H507 H 0.37731 0.06849 0.4197 0.0
C508 C 0.4229 0.23097 0.47207 0.0
C509 C 0.44668 0.22594 0.48428 0.0
C510 C 0.42304 0.20329 0.46011 0.0
C511 C 0.44735 0.17027 0.46005 0.0
C512 C 0.47022 0.16465 0.47233 0.0
C513 C 0.47002 0.19209 0.48423 0.0
C514 C 0.50307 0.11394 0.43318 0.0
C515 C 0.45919 0.08624 0.42415 0.0
C516 C 0.49926 0.14202 0.44447 0.0
C517 C 0.4513 0.14326 0.44724 0.0
C518 C 0.40784 0.1175 0.43793 0.0
C519 C 0.41178 0.08927 0.42646 0.0
H520 H 0.22332 0.38775 0.64267 0.0
H521 H 0.37915 0.50332 0.65915 0.0
H522 H 0.26638 0.38661 0.621 0.0
H523 H 0.422 0.50076 0.63783 0.0
H524 H 0.47985 0.53504 0.59478 0.0
H525 H 0.42754 0.53211 0.61472 0.0
H526 H 0.32903 0.35886 0.61011 0.0
H527 H 0.38183 0.36221 0.5897 0.0
C528 C 0.26669 0.41299 0.64169 0.0
C529 C 0.29764 0.44582 0.65271 0.0
C530 C 0.29142 0.41183 0.6293 0.0
C531 C 0.34768 0.44385 0.62757 0.0
C532 C 0.37849 0.47617 0.63865 0.0
C533 C 0.35392 0.47718 0.65099 0.0
C534 C 0.44667 0.49625 0.59791 0.0
C535 C 0.43534 0.44875 0.59074 0.0
C536 C 0.41684 0.49453 0.60944 0.0
C537 C 0.37479 0.44511 0.61429 0.0
C538 C 0.36122 0.39766 0.60668 0.0
C539 C 0.39126 0.39948 0.59497 0.0
H540 H 0.11516 0.39926 0.76454 0.0
H541 H 0.96108 0.37287 0.74951 0.0
H542 H 1.07101 0.34719 0.7852 0.0
H543 H 0.91657 0.31937 0.76975 0.0
H544 H 0.86783 0.30059 0.81449 0.0
H545 H 0.91122 0.34051 0.79288 0.0
H546 H 1.00977 0.26336 0.79632 0.0
H547 H 0.96814 0.22555 0.81842 0.0
C548 C 1.0716 0.38059 0.76543 0.0
C549 C 1.04152 0.39008 0.75545 0.0
C550 C 1.04621 0.35093 0.7773 0.0
C551 C 0.9902 0.3299 0.77934 0.0
C552 C 0.95989 0.33622 0.76879 0.0
C553 C 0.98528 0.3663 0.75708 0.0
C554 C 0.8991 0.29245 0.81075 0.0
C555 C 0.91441 0.25985 0.81831 0.0
C556 C 0.92353 0.31473 0.79819 0.0
C557 C 0.96383 0.30486 0.79269 0.0
C558 C 0.97914 0.27214 0.80021 0.0
C559 C 0.95475 0.24991 0.81285 0.0
H560 H 0.62023 0.95142 0.92092 0.0
H561 H 0.78251 0.08274 0.92733 0.0
H562 H 0.62762 0.90642 0.94131 0.0
H563 H 0.78988 1.03734 0.94804 0.0
H564 H 0.78997 0.90899 0.97867 0.0
H565 H 0.79107 0.95524 0.95743 0.0
H566 H 0.62924 0.92506 0.96584 0.0
H567 H 0.62827 0.87971 0.98708 0.0
C568 C 0.65784 0.97048 0.92662 0.0
C569 C 0.70065 1.02095 0.92254 0.0
C570 C 0.6619 0.94479 0.9384 0.0
C571 C 0.70886 0.96877 0.94651 0.0
C572 C 0.75307 1.01779 0.94203 0.0
C573 C 0.749 1.0437 0.93014 0.0
C574 C 0.75486 0.91286 0.9761 0.0
C575 C 0.70882 0.89009 0.98462 0.0
C576 C 0.75553 0.93931 0.96388 0.0
C577 C 0.71004 0.94331 0.95982 0.0
C578 C 0.66457 0.92166 0.96848 0.0
C579 C 0.66398 0.89554 0.98069 0.0
H580 H 0.77752 0.61984 0.159 0.0
H581 H 0.93567 0.70953 0.14064 0.0
H582 H 0.73643 0.62885 0.13801 0.0
H583 H 0.89429 0.71871 0.1195 0.0
H584 H 0.7845 0.67023 0.07953 0.0
H585 H 0.83599 0.66961 0.09977 0.0
H586 H 0.72915 0.69826 0.12573 0.0
H587 H 0.67779 0.69767 0.10573 0.0
C588 C 0.80366 0.64187 0.15052 0.0
C589 C 0.86005 0.66437 0.15164 0.0
C590 C 0.78006 0.64717 0.13844 0.0
C591 C 0.81202 0.67534 0.12706 0.0
C592 C 0.86836 0.69662 0.12801 0.0
C593 C 0.89207 0.69126 0.14014 0.0
C594 C 0.77319 0.67789 0.08954 0.0
C595 C 0.72711 0.68388 0.09106 0.0
C596 C 0.8024 0.6772 0.10116 0.0
C597 C 0.786 0.68258 0.11446 0.0
C598 C 0.74211 0.69234 0.11574 0.0
C599 C 0.71298 0.69266 0.10424 0.0
H600 H 0.3965 0.94042 0.65898 0.0
H601 H 0.41947 0.09371 0.64419 0.0
H602 H 0.34435 0.8955 0.63858 0.0
H603 H 0.36849 1.04906 0.62337 0.0
H604 H 0.24688 0.94311 0.59012 0.0
H605 H 0.28509 0.98608 0.61212 0.0
H606 H 0.36615 0.89112 0.6154 0.0
H607 H 0.326 0.84648 0.59387 0.0
C608 C 0.38947 0.96436 0.65143 0.0
C609 C 0.41195 1.02054 0.65319 0.0
C610 C 0.36016 0.93874 0.63962 0.0
C611 C 0.35316 0.96867 0.62908 0.0
C612 C 0.37283 1.02454 0.63124 0.0
C613 C 0.40183 1.0502 0.64321 0.0
C614 C 0.27227 0.93083 0.59562 0.0
C615 C 0.28308 0.891 0.59014 0.0
C616 C 0.29472 0.95601 0.6082 0.0
C617 C 0.32854 0.94201 0.61568 0.0
C618 C 0.33952 0.90242 0.61014 0.0
C619 C 0.31707 0.87725 0.59761 0.0
H620 H 0.50917 0.24954 0.76844 0.0
H621 H 0.38714 0.27751 0.74961 0.0
H622 H 0.50411 0.29517 0.78929 0.0
H623 H 0.38115 0.3215 0.77045 0.0
H624 H 0.44876 0.46539 0.8007 0.0
H625 H 0.44155 0.40794 0.78142 0.0
H626 H 0.44478 0.29083 0.80917 0.0
H627 H 0.45225 0.3493 0.8287 0.0
C628 C 0.48106 0.26508 0.76875 0.0
C629 C 0.44873 0.25989 0.75726 0.0
C630 C 0.47768 0.29065 0.78077 0.0
C631 C 0.44228 0.31215 0.78156 0.0
C632 C 0.40918 0.30585 0.77019 0.0
C633 C 0.41232 0.28012 0.75824 0.0
C634 C 0.44702 0.42695 0.80275 0.0
C635 C 0.45086 0.4118 0.81624 0.0
C636 C 0.4427 0.39384 0.79166 0.0
C637 C 0.44264 0.34468 0.79369 0.0
C638 C 0.44506 0.32862 0.80724 0.0
C639 C 0.44866 0.36169 0.81844 0.0
H640 H 0.15078 0.40828 0.99444 0.0
H641 H 1.0524 0.44655 0.96785 0.0
H642 H 0.20154 0.40485 0.97436 0.0
H643 H 0.10189 0.44259 0.94808 0.0
H644 H 0.24027 0.50149 0.91813 0.0
H645 H 0.19083 0.49874 0.93875 0.0
H646 H 0.19763 0.35742 0.95261 0.0
H647 H 0.24897 0.36128 0.93211 0.0
C648 C 0.13937 0.41495 0.98434 0.0
C649 C 0.09801 0.42835 0.98279 0.0
C650 C 0.16846 0.41314 0.97283 0.0
C651 C 0.15661 0.42462 0.95959 0.0
C652 C 0.11334 0.43513 0.9581 0.0
C653 C 0.08465 0.43705 0.96949 0.0
C654 C 0.2318 0.47011 0.92561 0.0
C655 C 0.24854 0.43149 0.92335 0.0
C656 C 0.20284 0.46813 0.93741 0.0
C657 C 0.18964 0.42747 0.94734 0.0
C658 C 0.20716 0.38937 0.94523 0.0
C659 C 0.23607 0.39125 0.93338 0.0
H660 H 0.74308 1.01899 0.14444 0.0
H661 H 0.75545 0.16991 0.15777 0.0
H662 H 0.7985 0.06458 0.12433 0.0
H663 H 0.81221 0.21593 0.13813 0.0
H664 H 0.84266 0.26488 0.09357 0.0
H665 H 0.79719 0.21957 0.11453 0.0
H666 H 0.88343 0.12911 0.11441 0.0
H667 H 0.92684 0.17243 0.0929 0.0
C668 C 0.75919 0.06224 0.1433 0.0
C669 C 0.74487 0.0909 0.15262 0.0
C670 C 0.7908 0.08844 0.13175 0.0
C671 C 0.80904 0.14389 0.12939 0.0
C672 C 0.79762 0.17296 0.13932 0.0
C673 C 0.76559 0.14673 0.15069 0.0
C674 C 0.85158 0.23488 0.09788 0.0
C675 C 0.8885 0.22243 0.09143 0.0
C676 C 0.82606 0.20939 0.11009 0.0
C677 C 0.83692 0.17091 0.11634 0.0
C678 C 0.87377 0.15827 0.10991 0.0
C679 C 0.8992 0.18368 0.09762 0.0
H680 H 0.77877 0.74198 0.31593 0.0
H681 H 0.60592 0.67639 0.31747 0.0
H682 H 0.78282 0.79484 0.29549 0.0
H683 H 0.60972 0.7295 0.29753 0.0
H684 H 0.62069 0.76344 0.25215 0.0
H685 H 0.6235 0.72195 0.27367 0.0
H686 H 0.76959 0.86736 0.28508 0.0
H687 H 0.76788 0.90847 0.26314 0.0
C688 C 0.74201 0.74018 0.31215 0.0
C689 C 0.69204 0.70501 0.31822 0.0
C690 C 0.74417 0.77021 0.30042 0.0
C691 C 0.69638 0.76556 0.29464 0.0
C692 C 0.64713 0.733 0.30139 0.0
C693 C 0.64499 0.70294 0.31292 0.0
C694 C 0.65377 0.78657 0.25915 0.0
C695 C 0.69403 0.83941 0.25583 0.0
C696 C 0.65504 0.76297 0.27162 0.0
C697 C 0.6965 0.79143 0.28125 0.0
C698 C 0.73715 0.84416 0.27793 0.0
C699 C 0.7358 0.86793 0.2654 0.0
H700 H 0.10744 0.75565 0.48017 0.0
H701 H 0.96908 0.59942 0.48838 0.0
H702 H 1.06362 0.76233 0.45906 0.0
H703 H 0.92563 0.60611 0.46757 0.0
H704 H 0.8994 0.59804 0.42158 0.0
H705 H 0.94343 0.60066 0.44319 0.0
H706 H 0.98441 0.7676 0.44893 0.0
H707 H 0.93938 0.76488 0.42733 0.0
C708 C 1.06718 0.7235 0.47768 0.0
C709 C 1.04191 0.67688 0.4859 0.0
C710 C 1.04219 0.72713 0.46555 0.0
C711 C 0.99158 0.68416 0.46146 0.0
C712 C 0.96518 0.63928 0.47019 0.0
C713 C 0.98996 0.63567 0.4822 0.0
C714 C 0.91732 0.63527 0.42745 0.0
C715 C 0.9152 0.68105 0.42267 0.0
C716 C 0.94269 0.6368 0.43988 0.0
C717 C 0.96696 0.68419 0.44791 0.0
C718 C 0.96638 0.73054 0.44298 0.0
C719 C 0.94064 0.72893 0.43055 0.0
H720 H 0.51916 0.64322 0.34501 0.0
H721 H 0.6456 0.72182 0.37519 0.0
H722 H 0.49208 0.71228 0.34858 0.0
H723 H 0.61843 0.79015 0.37877 0.0
H724 H 0.60163 0.93882 0.37101 0.0
H725 H 0.62273 0.86664 0.36663 0.0
H726 H 0.4524 0.75068 0.36482 0.0
H727 H 0.43106 0.82353 0.36916 0.0
C728 C 0.54076 0.67463 0.35255 0.0
C729 C 0.58472 0.67649 0.3598 0.0
C730 C 0.52516 0.7144 0.3546 0.0
C731 C 0.55336 0.75755 0.36385 0.0
C732 C 0.59628 0.7584 0.37135 0.0
C733 C 0.61162 0.71864 0.36937 0.0
C734 C 0.56842 0.89813 0.36954 0.0
C735 C 0.51449 0.88741 0.37049 0.0
C736 C 0.58063 0.85639 0.36715 0.0
C737 C 0.53941 0.80228 0.36556 0.0
C738 C 0.48535 0.7917 0.36595 0.0
C739 C 0.47307 0.83362 0.36844 0.0
H740 H 0.72379 0.58631 0.53585 0.0
H741 H 0.67978 0.41971 0.54338 0.0
H742 H 0.81748 0.60887 0.53266 0.0
H743 H 0.77448 0.44255 0.54061 0.0
H744 H 0.94785 0.49803 0.52362 0.0
H745 H 0.85168 0.46898 0.52635 0.0
H746 H 0.89349 0.62287 0.54507 0.0
H747 H 0.98888 0.65214 0.54194 0.0
C748 C 0.73401 0.55425 0.53675 0.0
C749 C 0.69375 0.5011 0.53988 0.0
C750 C 0.78826 0.56737 0.53509 0.0
C751 C 0.80468 0.52799 0.53664 0.0
C752 C 0.764 0.47424 0.53927 0.0
C753 C 0.70938 0.46099 0.54085 0.0
C754 C 0.93652 0.52533 0.52853 0.0
C755 C 0.97662 0.5776 0.53255 0.0
C756 C 0.88105 0.50867 0.53008 0.0
C757 C 0.8639 0.5437 0.53573 0.0
C758 C 0.90433 0.595 0.54029 0.0
C759 C 0.95951 0.61171 0.53866 0.0
H760 H 0.38621 0.96931 0.70695 0.0
H761 H 0.50152 0.91957 0.69461 0.0
H762 H 0.31946 0.87567 0.71124 0.0
H763 H 0.43403 0.82479 0.69904 0.0
H764 H 0.27364 0.65437 0.69599 0.0
H765 H 0.34498 0.74764 0.69085 0.0
H766 H 0.30085 0.8046 0.72706 0.0
H767 H 0.2305 0.71367 0.73197 0.0
C768 C 0.39781 0.93854 0.70532 0.0
C769 C 0.44983 0.95271 0.70047 0.0
C770 C 0.35919 0.88438 0.70778 0.0
C771 C 0.37088 0.84202 0.7055 0.0
C772 C 0.4231 0.85599 0.70077 0.0
C773 C 0.4621 0.91057 0.69837 0.0
C774 C 0.27908 0.68696 0.70277 0.0
C775 C 0.24571 0.67594 0.71437 0.0
C776 C 0.32032 0.74045 0.6999 0.0
C777 C 0.32877 0.78422 0.70848 0.0
C778 C 0.29538 0.77266 0.72004 0.0
C779 C 0.25484 0.71986 0.7229 0.0
H780 H 0.62296 0.45729 0.84036 0.0
H781 H 0.53262 0.41641 0.87816 0.0
H782 H 0.65394 0.39229 0.84574 0.0
H783 H 0.56226 0.35124 0.88335 0.0
H784 H 0.6595 0.27572 0.89702 0.0
H785 H 0.63923 0.34608 0.89029 0.0
H786 H 0.62625 0.2955 0.84806 0.0
H787 H 0.64831 0.22472 0.85491 0.0
C788 C 0.60998 0.43486 0.84986 0.0
C789 C 0.57566 0.44291 0.85889 0.0
C790 C 0.62736 0.39706 0.85289 0.0
C791 C 0.61113 0.36636 0.86505 0.0
C792 C 0.57681 0.37463 0.87402 0.0
C793 C 0.55949 0.41216 0.87101 0.0
C794 C 0.65276 0.27955 0.88624 0.0
C795 C 0.65501 0.24385 0.87654 0.0
C796 C 0.64064 0.31996 0.88238 0.0
C797 C 0.62962 0.32614 0.86865 0.0
C798 C 0.63438 0.29215 0.85875 0.0
C799 C 0.64707 0.2515 0.86265 0.0
H800 H 0.219 0.59633 1.0116 0.0
H801 H 0.17146 0.48429 1.04544 0.0
H802 H 0.31366 0.62115 1.01543 0.0
H803 H 0.26578 0.50936 0.04932 0.0
H804 H 0.42865 0.51726 1.04327 0.0
H805 H 0.33612 0.49705 1.03891 0.0
H806 H 0.39219 0.66602 1.03072 0.0
H807 H 0.48548 0.68633 1.03502 0.0
C808 C 0.22862 0.57744 1.01998 0.0
C809 C 0.187 0.53821 1.0282 0.0
C810 C 0.28319 0.59179 1.02219 0.0
C811 C 0.29795 0.56703 1.03262 0.0
C812 C 0.25636 0.52876 1.04103 0.0
C813 C 0.20197 0.51469 1.03888 0.0
C814 C 0.42163 0.55026 1.04042 0.0
C815 C 0.46515 0.60358 1.03952 0.0
C816 C 0.36811 0.53865 1.03804 0.0
C817 C 0.35593 0.57984 1.0346 0.0
C818 C 0.3996 0.63302 1.03328 0.0
C819 C 0.45333 0.64474 1.03575 0.0
H820 H 0.88613 0.45516 0.19472 0.0
H821 H 0.92115 0.39682 0.23212 0.0
H822 H 0.81551 0.36191 0.18925 0.0
H823 H 0.85144 0.30587 0.22688 0.0
H824 H 0.76789 0.13982 0.20721 0.0
H825 H 0.8347 0.23348 0.21174 0.0
H826 H 0.72518 0.28583 0.19625 0.0
H827 H 0.65807 0.19128 0.19145 0.0
C828 C 0.87903 0.42279 0.20175 0.0
C829 C 0.90998 0.4341 0.21384 0.0
C830 C 0.83819 0.36928 0.19869 0.0
C831 C 0.82766 0.32573 0.20756 0.0
C832 C 0.85859 0.33758 0.21961 0.0
C833 C 0.89877 0.39043 0.22267 0.0
C834 C 0.75746 0.171 0.2049 0.0
C835 C 0.70686 0.15729 0.19911 0.0
C836 C 0.79606 0.22513 0.20751 0.0
C837 C 0.78576 0.26789 0.20442 0.0
C838 C 0.73502 0.25434 0.19868 0.0
C839 C 0.69608 0.19985 0.19611 0.0
H840 H 0.29035 0.62607 0.51002 0.0
H841 H 0.24904 0.62383 0.55265 0.0
H842 H 0.36191 0.60698 0.51617 0.0
H843 H 0.32107 0.60292 0.55893 0.0
H844 H 0.48395 0.60181 0.56537 0.0
H845 H 0.4174 0.63089 0.56025 0.0
H846 H 0.37119 0.53312 0.52354 0.0
H847 H 0.43805 0.50541 0.52844 0.0
C848 C 0.29646 0.62143 0.52079 0.0
C849 C 0.2631 0.62597 0.53081 0.0
C850 C 0.33763 0.60998 0.52433 0.0
C851 C 0.34708 0.60197 0.53806 0.0
C852 C 0.31528 0.60875 0.54823 0.0
C853 C 0.27385 0.62074 0.54465 0.0
C854 C 0.46013 0.58715 0.55608 0.0
C855 C 0.46726 0.55167 0.54724 0.0
C856 C 0.42136 0.60341 0.55323 0.0
C857 C 0.3886 0.58484 0.54141 0.0
C858 C 0.39606 0.54947 0.53259 0.0
C859 C 0.43461 0.53329 0.53544 0.0
H860 H 0.67327 0.25784 0.71252 0.0
H861 H 0.7339 0.20074 0.67955 0.0
H862 H 0.76687 0.32828 0.71783 0.0
H863 H 0.82515 0.2701 0.68459 0.0
H864 H 0.98771 0.35894 0.70531 0.0
H865 H 0.89378 0.29215 0.70144 0.0
H866 H 0.8465 0.41369 0.7085 0.0
H867 H 0.9416 0.48129 0.7125 0.0
C868 C 0.70625 0.25991 0.70648 0.0
C869 C 0.69555 0.22317 0.69562 0.0
C870 C 0.75992 0.30064 0.70942 0.0
C871 C 0.80409 0.30505 0.70168 0.0
C872 C 0.79286 0.2679 0.69095 0.0
C873 C 0.73992 0.22796 0.688 0.0
C874 C 0.95768 0.372 0.70591 0.0
C875 C 0.97294 0.42606 0.70917 0.0
C876 C 0.90336 0.33335 0.7037 0.0
C877 C 0.86193 0.34708 0.70463 0.0
C878 C 0.87697 0.40124 0.70784 0.0
C879 C 0.93172 0.44023 0.71 0.0
H880 H 0.52708 0.92796 0.8854 0.0
H881 H 0.67715 0.97161 0.86465 0.0
H882 H 0.4989 0.83207 0.8822 0.0
H883 H 0.64855 0.87646 0.86099 0.0
H884 H 0.61615 0.70682 0.86904 0.0
H885 H 0.63863 0.80054 0.87258 0.0
H886 H 0.47023 0.75538 0.86788 0.0
H887 H 0.44764 0.66087 0.86484 0.0
C888 C 0.55354 0.91722 0.87984 0.0
C889 C 0.60451 0.95791 0.8753 0.0
C890 C 0.53741 0.86194 0.87802 0.0
C891 C 0.57163 0.84563 0.87152 0.0
C892 C 0.62146 0.88666 0.86642 0.0
C893 C 0.63771 0.94167 0.86835 0.0
C894 C 0.58372 0.71664 0.86892 0.0
C895 C 0.53001 0.67586 0.86665 0.0
C896 C 0.59672 0.77087 0.87078 0.0
C897 C 0.55658 0.78662 0.87028 0.0
C898 C 0.5025 0.74544 0.86842 0.0
C899 C 0.48943 0.69092 0.86667 0.0
H900 H 0.67474 0.50388 0.0659 0.0
H901 H 0.73725 0.61306 1.0315 0.0
H902 H 0.74464 0.47778 0.06237 0.0
H903 H 0.80652 0.58717 1.02804 0.0
H904 H 0.96187 0.58181 1.03523 0.0
H905 H 0.88886 0.60138 1.03977 0.0
H906 H 0.77906 0.43141 0.04629 0.0
H907 H 0.85273 0.4115 1.04167 0.0
C908 C 0.70279 0.52186 0.05748 0.0
C909 C 0.69988 0.5607 0.049 0.0
C910 C 0.743 0.50683 0.05545 0.0
C911 C 0.78198 0.53074 1.04501 0.0
C912 C 0.77805 0.56848 1.03635 0.0
C913 C 0.73773 0.58303 1.03828 0.0
C914 C 0.92243 0.54839 1.03777 0.0
C915 C 0.91364 0.4949 1.03803 0.0
C916 C 0.88018 0.55968 1.04026 0.0
C917 C 0.82749 0.51803 1.04323 0.0
C918 C 0.81897 0.46466 1.04406 0.0
C919 C 0.86135 0.45321 1.04142 0.0
H920 H 0.42167 0.90254 0.17764 0.0
H921 H 0.48346 0.85358 0.21206 0.0
H922 H 0.33074 0.83345 0.18306 0.0
H923 H 0.39023 0.78335 0.21769 0.0
H924 H 0.21541 0.62857 0.21342 0.0
H925 H 0.31038 0.69538 0.20895 0.0
H926 H 0.26289 0.81551 0.20007 0.0
H927 H 0.16912 0.74957 0.20445 0.0
C928 C 0.41602 0.87714 0.18647 0.0
C929 C 0.46061 0.88422 0.19441 0.0
C930 C 0.36327 0.83735 0.18963 0.0
C931 C 0.35247 0.80263 0.20088 0.0
C932 C 0.39687 0.80912 0.20889 0.0
C933 C 0.45032 0.8497 0.20574 0.0
C934 C 0.22522 0.66915 0.21044 0.0
C935 C 0.18401 0.6832 0.20926 0.0
C936 C 0.27989 0.70769 0.20799 0.0
C937 C 0.29479 0.76118 0.20413 0.0
C938 C 0.25336 0.77477 0.20285 0.0
C939 C 0.19916 0.73663 0.20537 0.0
H940 H 0.54025 0.40455 0.36574 0.0
H941 H 0.71038 0.45686 0.36977 0.0
H942 H 0.51876 0.3112 0.36956 0.0
H943 H 0.6888 0.36283 0.37348 0.0
H944 H 0.62258 0.19182 0.39312 0.0
H945 H 0.64854 0.28656 0.38918 0.0
H946 H 0.52375 0.23775 0.35842 0.0
H947 H 0.49732 0.14293 0.36249 0.0
C948 C 0.57324 0.39634 0.36754 0.0
C949 C 0.6272 0.43881 0.36745 0.0
C950 C 0.56085 0.34236 0.36959 0.0
C951 C 0.6019 0.32874 0.37169 0.0
C952 C 0.65589 0.37138 0.37197 0.0
C953 C 0.66836 0.42554 0.36984 0.0
C954 C 0.601 0.20115 0.38537 0.0
C955 C 0.55773 0.15914 0.37812 0.0
C956 C 0.61605 0.25582 0.38309 0.0
C957 C 0.5881 0.27042 0.37355 0.0
C958 C 0.54578 0.22844 0.36604 0.0
C959 C 0.53091 0.17379 0.36826 0.0
H960 H 0.29801 0.79063 0.49238 0.0
H961 H 0.18115 0.66854 0.46532 0.0
H962 H 0.35097 0.84173 0.47256 0.0
H963 H 0.23409 0.7199 0.44552 0.0
H964 H 0.30924 0.86657 0.41524 0.0
H965 H 0.25791 0.81012 0.43459 0.0
H966 H 0.40595 0.8332 0.45314 0.0
H967 H 0.45742 0.88947 0.43377 0.0
C968 C 0.28374 0.77454 0.48222 0.0
C969 C 0.23536 0.72541 0.48046 0.0
C970 C 0.31425 0.8037 0.47086 0.0
C971 C 0.2967 0.78487 0.45747 0.0
C972 C 0.24849 0.73563 0.45571 0.0
C973 C 0.21838 0.70604 0.46707 0.0
C974 C 0.33086 0.85931 0.42339 0.0
C975 C 0.38747 0.88249 0.42293 0.0
C976 C 0.30139 0.82675 0.43444 0.0
C977 C 0.32788 0.81726 0.44541 0.0
C978 C 0.38443 0.84008 0.4449 0.0
C979 C 0.41384 0.872 0.43375 0.0
H980 H 0.64978 0.4099 0.59161 0.0
H981 H 0.47581 0.31166 0.58981 0.0
H982 H 0.65202 0.35426 0.61062 0.0
H983 H 0.47825 0.25708 0.60881 0.0
H984 H 0.50328 0.22829 0.65422 0.0
H985 H 0.50593 0.28181 0.63442 0.0
H986 H 0.62515 0.2505 0.61535 0.0
H987 H 0.62205 0.19574 0.63521 0.0
C988 C 0.61215 0.37635 0.5952 0.0
C989 C 0.56263 0.36523 0.58919 0.0
C990 C 0.61349 0.34444 0.60603 0.0
C991 C 0.56528 0.30157 0.6112 0.0
C992 C 0.51597 0.2901 0.60508 0.0
C993 C 0.51468 0.32125 0.59414 0.0
C994 C 0.53037 0.23293 0.64587 0.0
C995 C 0.56255 0.20776 0.64631 0.0
C996 C 0.53158 0.26335 0.63449 0.0
C997 C 0.5656 0.27014 0.62334 0.0
C998 C 0.59869 0.24601 0.62384 0.0
C999 C 0.59673 0.21456 0.63516 0.0
H1000 H 0.45355 0.61492 0.80889 0.0
H1001 H 0.31163 0.48877 0.82881 0.0
H1002 H 0.39761 0.61625 0.79017 0.0
H1003 H 0.25557 0.49028 0.80992 0.0
H1004 H 0.16893 0.54364 0.77811 0.0
H1005 H 0.2234 0.54888 0.79811 0.0
H1006 H 0.34611 0.55165 0.77144 0.0
H1007 H 0.29201 0.54651 0.75149 0.0
C1008 C 0.41033 0.58786 0.8094 0.0
C1009 C 0.38724 0.55154 0.8204 0.0
C1010 C 0.3783 0.58842 0.79858 0.0
C1011 C 0.32223 0.55302 0.79848 0.0
C1012 C 0.29865 0.51824 0.80972 0.0
C1013 C 0.33083 0.51731 0.82054 0.0
C1014 C 0.20775 0.54582 0.77651 0.0
C1015 C 0.22617 0.54487 0.76317 0.0
C1016 C 0.23873 0.54841 0.78798 0.0
C1017 C 0.28915 0.55085 0.78637 0.0
C1018 C 0.30776 0.55049 0.77303 0.0
C1019 C 0.27657 0.54725 0.76159 0.0
H1020 H 0.83071 0.22946 0.92114 0.0
H1021 H 0.68206 0.21049 0.93835 0.0
H1022 H 0.87994 0.2802 0.94138 0.0
H1023 H 0.73199 0.26228 0.95861 0.0
H1024 H 0.86626 0.41326 0.98405 0.0
H1025 H 0.81096 0.36198 0.96434 0.0
H1026 H 0.87718 0.25376 0.96696 0.0
H1027 H 0.93157 0.30398 0.98664 0.0
C1028 C 0.80856 0.23654 0.92917 0.0
C1029 C 0.75238 0.21587 0.92811 0.0
C1030 C 0.83678 0.26535 0.94081 0.0
C1031 C 0.80975 0.27498 0.95159 0.0
C1032 C 0.75382 0.25556 0.95043 0.0
C1033 C 0.72529 0.22578 0.93886 0.0
C1034 C 0.86852 0.37816 0.9805 0.0
C1035 C 0.90327 0.3627 0.98695 0.0
C1036 C 0.83679 0.3488 0.96925 0.0
C1037 C 0.84009 0.30413 0.96408 0.0
C1038 C 0.87418 0.28828 0.97066 0.0
C1039 C 0.90505 0.31691 0.982 0.0
H1040 H 0.66043 0.89137 0.15106 0.0
H1041 H 0.52872 0.9102 0.13491 0.0
H1042 H 0.65779 0.84 0.13068 0.0
H1043 H 0.52541 0.85744 0.11457 0.0
H1044 H 0.50716 0.69894 0.091 0.0
H1045 H 0.50581 0.75461 0.11012 0.0
H1046 H 0.6758 0.86505 0.10421 0.0
H1047 H 0.67716 0.81047 0.08499 0.0
C1048 C 0.63056 0.88411 0.14322 0.0
C1049 C 0.59465 0.90472 0.14463 0.0
C1050 C 0.62934 0.85503 0.13151 0.0
C1051 C 0.5915 0.8449 0.12105 0.0
C1052 C 0.5549 0.86461 0.12251 0.0
C1053 C 0.55692 0.89486 0.13412 0.0
C1054 C 0.54401 0.73559 0.09364 0.0
C1055 C 0.59221 0.75034 0.08643 0.0
C1056 C 0.54317 0.76743 0.10456 0.0
C1057 C 0.59077 0.81391 0.10867 0.0
C1058 C 0.63861 0.82925 0.10129 0.0
C1059 C 0.63922 0.79815 0.09022 0.0
H1060 H 0.84219 0.62173 0.32796 0.0
H1061 H 0.69711 0.50909 0.30634 0.0
H1062 H 0.89698 0.61858 0.30905 0.0
H1063 H 0.75193 0.50582 0.28755 0.0
H1064 H 0.86452 0.57178 0.24996 0.0
H1065 H 0.80951 0.56833 0.26951 0.0
H1066 H 0.92354 0.55779 0.29694 0.0
H1067 H 0.97899 0.56159 0.27736 0.0
C1068 C 0.82193 0.59588 0.31926 0.0
C1069 C 0.76511 0.56578 0.31871 0.0
C1070 C 0.85341 0.59391 0.30844 0.0
C1071 C 0.82886 0.56217 0.29674 0.0
C1072 C 0.77214 0.53123 0.29632 0.0
C1073 C 0.74071 0.53286 0.30717 0.0
C1074 C 0.87785 0.56845 0.26014 0.0
C1075 C 0.92625 0.5669 0.26204 0.0
C1076 C 0.84608 0.56617 0.27136 0.0
C1077 C 0.86205 0.56273 0.28481 0.0
C1078 C 0.91029 0.56087 0.28673 0.0
C1079 C 0.94186 0.56265 0.27548 0.0
H1080 H 0.84241 0.30442 0.51013 0.0
H1081 H 0.93702 0.23185 0.49619 0.0
H1082 H 0.75978 0.21959 0.50592 0.0
H1083 H 0.85509 0.14895 0.49094 0.0
H1084 H 0.71533 1.01354 0.4749 0.0
H1085 H 0.77255 0.07067 0.4935 0.0
H1086 H 0.71982 0.18742 0.48473 0.0
H1087 H 0.66162 0.12955 0.46682 0.0
C1088 C 0.84569 0.27002 0.50647 0.0
C1089 C 0.8962 0.2754 0.50301 0.0
C1090 C 0.79822 0.22144 0.50392 0.0
C1091 C 0.80039 0.1778 0.49762 0.0
C1092 C 0.85126 0.18139 0.49573 0.0
C1093 C 0.89857 0.22951 0.4985 0.0
C1094 C 0.71476 1.05057 0.47735 0.0
C1095 C 0.68506 0.06775 0.46926 0.0
C1096 C 0.74766 0.08346 0.48795 0.0
C1097 C 0.75238 0.13466 0.49036 0.0
C1098 C 0.71751 0.14844 0.4833 0.0
C1099 C 0.68404 0.11519 0.4729 0.0
H1100 H 0.55035 0.78731 0.6647 0.0
H1101 H 0.70604 0.86954 0.68475 0.0
H1102 H 0.56159 0.70896 0.66105 0.0
H1103 H 0.71758 0.79051 0.681 0.0
H1104 H 0.74799 0.72628 0.63835 0.0
H1105 H 0.73632 0.77289 0.65759 0.0
H1106 H 0.58023 0.63434 0.66596 0.0
H1107 H 0.59253 0.58652 0.64665 0.0
C1108 C 0.58596 0.78778 0.66889 0.0
C1109 C 0.62817 0.83525 0.67458 0.0
C1110 C 0.59236 0.74252 0.66686 0.0
C1111 C 0.64121 0.7441 0.67042 0.0
C1112 C 0.68002 0.78865 0.67789 0.0
C1113 C 0.67357 0.83398 0.67994 0.0
C1114 C 0.71233 0.70439 0.64464 0.0
C1115 C 0.67031 0.65339 0.64064 0.0
C1116 C 0.70563 0.73126 0.6558 0.0
C1117 C 0.6566 0.70784 0.66308 0.0
C1118 C 0.61794 0.65379 0.66033 0.0
C1119 C 0.62484 0.62666 0.64921 0.0
H1120 H 0.74683 0.73015 0.76867 0.0
H1121 H 0.60596 0.57914 0.75747 0.0
H1122 H 0.79575 0.72101 0.74968 0.0
H1123 H 0.65646 0.5691 0.7385 0.0
H1124 H 0.89494 0.69283 0.72295 0.0
H1125 H 0.8168 0.7061 0.72614 0.0
H1126 H 0.72869 0.54679 0.74413 0.0
H1127 H 0.80626 0.53384 0.74108 0.0
C1128 C 0.72522 0.69613 0.76181 0.0
C1129 C 0.67301 0.65428 0.76497 0.0
C1130 C 0.75354 0.69089 0.7508 0.0
C1131 C 0.73048 0.64346 0.74282 0.0
C1132 C 0.67561 0.60552 0.74469 0.0
C1133 C 0.64693 0.61109 0.75564 0.0
C1134 C 0.85822 0.66007 0.7272 0.0
C1135 C 0.85731 0.61308 0.73222 0.0
C1136 C 0.81339 0.66752 0.72892 0.0
C1137 C 0.76712 0.6281 0.73569 0.0
C1138 C 0.76364 0.57803 0.73885 0.0
C1139 C 0.80843 0.57064 0.73717 0.0
H1140 H 0.2586 0.9184 0.91147 0.0
H1141 H 0.33309 0.82491 0.89799 0.0
H1142 H 0.1766 0.83588 0.9169 0.0
H1143 H 0.24918 0.74169 0.90237 0.0
H1144 H 0.15922 0.64351 0.94136 0.0
H1145 H 0.21743 0.70258 0.92368 0.0
H1146 H 0.09903 0.75234 0.91422 0.0
H1147 H 1.04138 0.69409 0.93256 0.0
C1148 C 0.2569 0.88007 0.9093 0.0
C1149 C 0.30307 0.87827 0.90485 0.0
C1150 C 0.2093 0.83241 0.91217 0.0
C1151 C 0.20652 0.78176 0.91045 0.0
C1152 C 0.25043 0.78 0.90424 0.0
C1153 C 0.29848 0.82781 0.90159 0.0
C1154 C 0.14461 0.66546 0.93518 0.0
C1155 C 0.0964 0.66524 0.93854 0.0
C1156 C 0.17806 0.69943 0.92491 0.0
C1157 C 0.16376 0.73362 0.9177 0.0
C1158 C 0.11213 0.72792 0.91988 0.0
C1159 C 0.07897 0.69444 0.93033 0.0
H1160 H 0.58548 0.31189 0.1794 0.0
H1161 H 0.41877 0.22409 0.16632 0.0
H1162 H 0.58379 0.39684 0.17741 0.0
H1163 H 0.41782 0.30826 0.16344 0.0
H1164 H 0.42027 0.44776 0.14908 0.0
H1165 H 0.42385 0.39192 0.16766 0.0
H1166 H 0.58936 0.44063 0.15683 0.0
H1167 H 0.58618 0.49736 0.13891 0.0
C1168 C 0.54804 0.3106 0.17644 0.0
C1169 C 0.50282 0.26159 0.17251 0.0
C1170 C 0.54715 0.35935 0.17521 0.0
C1171 C 0.50136 0.3599 0.1698 0.0
C1172 C 0.45409 0.31007 0.16758 0.0
C1173 C 0.45481 0.26151 0.16898 0.0
C1174 C 0.45799 0.44808 0.15112 0.0
C1175 C 0.50237 0.47547 0.14232 0.0
C1176 C 0.46006 0.41596 0.16171 0.0
C1177 C 0.50605 0.40971 0.16338 0.0
C1178 C 0.55296 0.44377 0.15589 0.0
C1179 C 0.55115 0.47648 0.14548 0.0
H1180 H 0.40533 0.37996 0.27045 0.0
H1181 H 0.54654 0.53098 0.2596 0.0
H1182 H 0.35723 0.38883 0.2512 0.0
H1183 H 0.49694 0.54072 0.24035 0.0
H1184 H 0.25897 0.41686 0.22413 0.0
H1185 H 0.33705 0.40365 0.22757 0.0
H1186 H 0.42458 0.56308 0.24565 0.0
H1187 H 0.34708 0.57595 0.24236 0.0
C1188 C 0.42719 0.41391 0.26362 0.0
C1189 C 0.47919 0.45586 0.26693 0.0
C1190 C 0.39937 0.419 0.25246 0.0
C1191 C 0.42277 0.46636 0.24449 0.0
C1192 C 0.47753 0.50435 0.24653 0.0
C1193 C 0.50569 0.49895 0.25763 0.0
C1194 C 0.29556 0.44964 0.22846 0.0
C1195 C 0.29629 0.49663 0.23344 0.0
C1196 C 0.34036 0.44224 0.23032 0.0
C1197 C 0.38641 0.4817 0.23719 0.0
C1198 C 0.38979 0.53179 0.2403 0.0
C1199 C 0.34504 0.53913 0.23848 0.0
loop_
_geom_bond_atom_site_label_1
_geom_bond_atom_site_label_2
_geom_bond_distance
_geom_bond_site_symmetry_2
_ccdc_geom_bond_type
Eu0 C9 2.828 . S
Eu0 O11 2.392 1_545 S
Eu0 O13 2.418 1_545 S
Eu0 O18 2.373 . S
Eu0 O21 2.488 . S
Eu0 O22 2.471 . S
Eu0 O23 2.349 . S
Eu1 O10 2.373 . S
Eu1 O14 2.488 . S
Eu1 O15 2.471 . S
Eu1 O16 2.349 . S
Eu1 O19 2.392 1_565 S
Eu1 O20 2.418 1_565 S
Eu1 C30 2.828 . S
C2 O20 1.244 . S
C2 O23 1.265 . S
C3 C4 1.379 . S
C3 C7 1.373 . S
C3 C9 1.505 . S
C4 C3 1.379 . S
C4 C6 1.369 . S
C4 H32 0.930 . S
C5 C7 1.383 . S
C5 C8 1.382 . S
C5 H33 0.930 . S
C6 C4 1.369 . S
C6 C8 1.392 . S
C6 H34 0.930 . S
C7 C3 1.373 . S
C7 C5 1.383 . S
C7 H35 0.931 . S
C8 C5 1.382 . S
C8 C6 1.392 . S
C9 Eu0 2.828 . S
C9 C3 1.505 . S
C9 O21 1.249 . S
C9 O22 1.244 . S
O10 Eu1 2.373 . S
O10 C12 1.258 . S
O11 Eu0 2.392 1_565 S
O11 C12 1.242 . S
C12 O10 1.258 . S
C12 O11 1.242 . S
O13 Eu0 2.418 1_565 S
O13 C17 1.244 . S
O14 Eu1 2.488 . S
O14 C30 1.249 . S
O15 Eu1 2.471 . S
O15 C30 1.244 . S
O16 Eu1 2.349 . S
O16 C17 1.265 . S
C17 O13 1.244 . S
C17 O16 1.265 . S
O18 Eu0 2.373 . S
O18 C31 1.258 . S
O19 Eu1 2.392 1_545 S
O19 C31 1.242 . S
O20 Eu1 2.418 1_545 S
O20 C2 1.244 . S
O21 Eu0 2.488 . S
O21 C9 1.249 . S
O22 Eu0 2.471 . S
O22 C9 1.244 . S
O23 Eu0 2.349 . S
O23 C2 1.265 . S
C24 C25 1.379 . S
C24 C28 1.373 . S
C24 C30 1.505 . S
C25 C24 1.379 . S
C25 C27 1.369 . S
C25 H36 0.930 . S
C26 C28 1.383 . S
C26 C29 1.382 . S
C26 H37 0.930 . S
C27 C25 1.369 . S
C27 C29 1.392 . S
C27 H38 0.930 . S
C28 C24 1.373 . S
C28 C26 1.383 . S
C28 H39 0.931 . S
C29 C26 1.382 . S
C29 C27 1.392 . S
C30 Eu1 2.828 . S
C30 O14 1.249 . S
C30 O15 1.244 . S
C30 C24 1.505 . S
C31 O18 1.258 . S
C31 O19 1.242 . S
H32 C4 0.930 . S
H33 C5 0.930 . S
H34 C6 0.930 . S
H35 C7 0.931 . S
H36 C25 0.930 . S
H37 C26 0.930 . S
H38 C27 0.930 . S
H39 C28 0.931 . S
Eu40 C49 2.828 . S
Eu40 O51 2.392 . S
Eu40 O53 2.418 . S
Eu40 O58 2.373 . S
Eu40 O61 2.488 . S
Eu40 O62 2.471 . S
Eu40 O63 2.349 . S
Eu41 O50 2.373 . S
Eu41 O54 2.488 . S
Eu41 O55 2.471 . S
Eu41 O56 2.349 . S
Eu41 O59 2.392 . S
Eu41 O60 2.418 . S
Eu41 C70 2.828 . S
C42 O60 1.244 . S
C42 O63 1.265 . S
C43 C44 1.379 . S
C43 C47 1.373 . S
C43 C49 1.505 . S
C44 C43 1.379 . S
C44 C46 1.369 . S
C44 H72 0.930 . S
C45 C47 1.383 . S
C45 C48 1.382 . S
C45 H73 0.930 . S
C46 C44 1.369 . S
C46 C48 1.392 . S
C46 H74 0.930 . S
C47 C43 1.373 . S
C47 C45 1.383 . S
C47 H75 0.931 . S
C48 C45 1.382 . S
C48 C46 1.392 . S
C49 Eu40 2.828 . S
C49 C43 1.505 . S
C49 O61 1.249 . S
C49 O62 1.244 . S
O50 Eu41 2.373 . S
O50 C52 1.258 . S
O51 Eu40 2.392 . S
O51 C52 1.242 . S
C52 O50 1.258 . S
C52 O51 1.242 . S
O53 Eu40 2.418 . S
O53 C57 1.244 . S
O54 Eu41 2.488 . S
O54 C70 1.249 . S
O55 Eu41 2.471 . S
O55 C70 1.244 . S
O56 Eu41 2.349 . S
O56 C57 1.265 . S
C57 O53 1.244 . S
C57 O56 1.265 . S
O58 Eu40 2.373 . S
O58 C71 1.258 . S
O59 Eu41 2.392 . S
O59 C71 1.242 . S
O60 Eu41 2.418 . S
O60 C42 1.244 . S
O61 Eu40 2.488 . S
O61 C49 1.249 . S
O62 Eu40 2.471 . S
O62 C49 1.244 . S
O63 Eu40 2.349 . S
O63 C42 1.265 . S
C64 C65 1.379 . S
C64 C68 1.373 . S
C64 C70 1.505 . S
C65 C64 1.379 . S
C65 C67 1.369 . S
C65 H76 0.930 . S
C66 C68 1.383 . S
C66 C69 1.382 . S
C66 H77 0.930 . S
C67 C65 1.369 . S
C67 C69 1.392 . S
C67 H78 0.930 . S
C68 C64 1.373 . S
C68 C66 1.383 . S
C68 H79 0.931 . S
C69 C66 1.382 . S
C69 C67 1.392 . S
C70 Eu41 2.828 . S
C70 O54 1.249 . S
C70 O55 1.244 . S
C70 C64 1.505 . S
C71 O58 1.258 . S
C71 O59 1.242 . S
H72 C44 0.930 . S
H73 C45 0.930 . S
H74 C46 0.930 . S
H75 C47 0.931 . S
H76 C65 0.930 . S
H77 C66 0.930 . S
H78 C67 0.930 . S
H79 C68 0.931 . S
Eu80 C89 2.828 . S
Eu80 O91 2.392 1_655 S
Eu80 O93 2.418 1_655 S
Eu80 O98 2.373 . S
Eu80 O101 2.488 . S
Eu80 O102 2.471 . S
Eu80 O103 2.349 . S
Eu81 O90 2.373 . S
Eu81 O94 2.488 . S
Eu81 O95 2.471 . S
Eu81 O96 2.349 . S
Eu81 O99 2.392 1_455 S
Eu81 O100 2.418 1_455 S
Eu81 C110 2.828 . S
C82 O100 1.244 . S
C82 O103 1.265 . S
C83 C84 1.379 . S
C83 C87 1.373 . S
C83 C89 1.505 . S
C84 C83 1.379 . S
C84 C86 1.369 . S
C84 H112 0.930 . S
C85 C87 1.383 . S
C85 C88 1.382 . S
C85 H113 0.930 . S
C86 C84 1.369 . S
C86 C88 1.392 . S
C86 H114 0.930 . S
C87 C83 1.373 . S
C87 C85 1.383 . S
C87 H115 0.931 . S
C88 C85 1.382 . S
C88 C86 1.392 . S
C89 Eu80 2.828 . S
C89 C83 1.505 . S
C89 O101 1.249 . S
C89 O102 1.244 . S
O90 Eu81 2.373 . S
O90 C92 1.258 . S
O91 Eu80 2.392 1_455 S
O91 C92 1.242 . S
C92 O90 1.258 . S
C92 O91 1.242 . S
O93 Eu80 2.418 1_455 S
O93 C97 1.244 . S
O94 Eu81 2.488 . S
O94 C110 1.249 . S
O95 Eu81 2.471 . S
O95 C110 1.244 . S
O96 Eu81 2.349 . S
O96 C97 1.265 . S
C97 O93 1.244 . S
C97 O96 1.265 . S
O98 Eu80 2.373 . S
O98 C111 1.258 . S
O99 Eu81 2.392 1_655 S
O99 C111 1.242 . S
O100 Eu81 2.418 1_655 S
O100 C82 1.244 . S
O101 Eu80 2.488 . S
O101 C89 1.249 . S
O102 Eu80 2.471 . S
O102 C89 1.244 . S
O103 Eu80 2.349 . S
O103 C82 1.265 . S
C104 C105 1.379 . S
C104 C108 1.373 . S
C104 C110 1.505 . S
C105 C104 1.379 . S
C105 C107 1.369 . S
C105 H116 0.930 . S
C106 C108 1.383 . S
C106 C109 1.382 . S
C106 H117 0.930 . S
C107 C105 1.369 . S
C107 C109 1.392 . S
C107 H118 0.930 . S
C108 C104 1.373 . S
C108 C106 1.383 . S
C108 H119 0.931 . S
C109 C106 1.382 . S
C109 C107 1.392 . S
C110 Eu81 2.828 . S
C110 O94 1.249 . S
C110 O95 1.244 . S
C110 C104 1.505 . S
C111 O98 1.258 . S
C111 O99 1.242 . S
H112 C84 0.930 . S
H113 C85 0.930 . S
H114 C86 0.930 . S
H115 C87 0.931 . S
H116 C105 0.930 . S
H117 C106 0.930 . S
H118 C107 0.930 . S
H119 C108 0.931 . S
Eu120 C129 2.828 . S
Eu120 O131 2.392 1_565 S
Eu120 O133 2.418 1_565 S
Eu120 O138 2.373 . S
Eu120 O141 2.488 . S
Eu120 O142 2.471 . S
Eu120 O143 2.349 . S
Eu121 O130 2.373 . S
Eu121 O134 2.488 . S
Eu121 O135 2.471 . S
Eu121 O136 2.349 . S
Eu121 O139 2.392 1_545 S
Eu121 O140 2.418 1_545 S
Eu121 C150 2.828 . S
C122 O140 1.244 . S
C122 O143 1.265 . S
C123 C124 1.379 . S
C123 C127 1.373 . S
C123 C129 1.505 . S
C124 C123 1.379 . S
C124 C126 1.369 . S
C124 H152 0.930 . S
C125 C127 1.383 . S
C125 C128 1.382 . S
C125 H153 0.930 . S
C126 C124 1.369 . S
C126 C128 1.392 . S
C126 H154 0.930 . S
C127 C123 1.373 . S
C127 C125 1.383 . S
C127 H155 0.931 . S
C128 C125 1.382 . S
C128 C126 1.392 . S
C129 Eu120 2.828 . S
C129 C123 1.505 . S
C129 O141 1.249 . S
C129 O142 1.244 . S
O130 Eu121 2.373 . S
O130 C132 1.258 . S
O131 Eu120 2.392 1_545 S
O131 C132 1.242 . S
C132 O130 1.258 . S
C132 O131 1.242 . S
O133 Eu120 2.418 1_545 S
O133 C137 1.244 . S
O134 Eu121 2.488 . S
O134 C150 1.249 . S
O135 Eu121 2.471 . S
O135 C150 1.244 . S
O136 Eu121 2.349 . S
O136 C137 1.265 . S
C137 O133 1.244 . S
C137 O136 1.265 . S
O138 Eu120 2.373 . S
O138 C151 1.258 . S
O139 Eu121 2.392 1_565 S
O139 C151 1.242 . S
O140 Eu121 2.418 1_565 S
O140 C122 1.244 . S
O141 Eu120 2.488 . S
O141 C129 1.249 . S
O142 Eu120 2.471 . S
O142 C129 1.244 . S
O143 Eu120 2.349 . S
O143 C122 1.265 . S
C144 C145 1.379 . S
C144 C148 1.373 . S
C144 C150 1.505 . S
C145 C144 1.379 . S
C145 C147 1.369 . S
C145 H156 0.930 . S
C146 C148 1.383 . S
C146 C149 1.382 . S
C146 H157 0.930 . S
C147 C145 1.369 . S
C147 C149 1.392 . S
C147 H158 0.930 . S
C148 C144 1.373 . S
C148 C146 1.383 . S
C148 H159 0.931 . S
C149 C146 1.382 . S
C149 C147 1.392 . S
C150 Eu121 2.828 . S
C150 O134 1.249 . S
C150 O135 1.244 . S
C150 C144 1.505 . S
C151 O138 1.258 . S
C151 O139 1.242 . S
H152 C124 0.930 . S
H153 C125 0.930 . S
H154 C126 0.930 . S
H155 C127 0.931 . S
H156 C145 0.930 . S
H157 C146 0.930 . S
H158 C147 0.930 . S
H159 C148 0.931 . S
Eu160 C169 2.828 . S
Eu160 O171 2.392 . S
Eu160 O173 2.418 . S
Eu160 O178 2.373 . S
Eu160 O181 2.488 . S
Eu160 O182 2.471 . S
Eu160 O183 2.349 . S
Eu161 O170 2.373 . S
Eu161 O174 2.488 1_554 S
Eu161 O175 2.471 . S
Eu161 O176 2.349 . S
Eu161 O179 2.392 . S
Eu161 O180 2.418 . S
Eu161 C190 2.828 1_554 S
C162 O180 1.244 . S
C162 O183 1.265 . S
C163 C164 1.379 . S
C163 C167 1.373 . S
C163 C169 1.505 . S
C164 C163 1.379 . S
C164 C166 1.369 . S
C164 H192 0.930 . S
C165 C167 1.383 . S
C165 C168 1.382 . S
C165 H193 0.930 . S
C166 C164 1.369 . S
C166 C168 1.392 . S
C166 H194 0.930 . S
C167 C163 1.373 . S
C167 C165 1.383 . S
C167 H195 0.931 . S
C168 C165 1.382 . S
C168 C166 1.392 . S
C169 Eu160 2.828 . S
C169 C163 1.505 . S
C169 O181 1.249 . S
C169 O182 1.244 . S
O170 Eu161 2.373 . S
O170 C172 1.258 . S
O171 Eu160 2.392 . S
O171 C172 1.242 . S
C172 O170 1.258 . S
C172 O171 1.242 . S
O173 Eu160 2.418 . S
O173 C177 1.244 . S
O174 Eu161 2.488 1_556 S
O174 C190 1.249 . S
O175 Eu161 2.471 . S
O175 C190 1.244 1_554 S
O176 Eu161 2.349 . S
O176 C177 1.265 . S
C177 O173 1.244 . S
C177 O176 1.265 . S
O178 Eu160 2.373 . S
O178 C191 1.258 . S
O179 Eu161 2.392 . S
O179 C191 1.242 . S
O180 Eu161 2.418 . S
O180 C162 1.244 . S
O181 Eu160 2.488 . S
O181 C169 1.249 . S
O182 Eu160 2.471 . S
O182 C169 1.244 . S
O183 Eu160 2.349 . S
O183 C162 1.265 . S
C184 C185 1.379 . S
C184 C188 1.373 . S
C184 C190 1.505 . S
C185 C184 1.379 . S
C185 C187 1.369 . S
C185 H196 0.930 . S
C186 C188 1.383 . S
C186 C189 1.382 . S
C186 H197 0.930 . S
C187 C185 1.369 . S
C187 C189 1.392 . S
C187 H198 0.930 . S
C188 C184 1.373 . S
C188 C186 1.383 . S
C188 H199 0.931 . S
C189 C186 1.382 . S
C189 C187 1.392 . S
C190 Eu161 2.828 1_556 S
C190 O174 1.249 . S
C190 O175 1.244 1_556 S
C190 C184 1.505 . S
C191 O178 1.258 . S
C191 O179 1.242 . S
H192 C164 0.930 . S
H193 C165 0.930 . S
H194 C166 0.930 . S
H195 C167 0.931 . S
H196 C185 0.930 . S
H197 C186 0.930 . S
H198 C187 0.930 . S
H199 C188 0.931 . S
Eu200 C209 2.828 . S
Eu200 O211 2.392 1_455 S
Eu200 O213 2.418 1_455 S
Eu200 O218 2.373 . S
Eu200 O221 2.488 . S
Eu200 O222 2.471 . S
Eu200 O223 2.349 . S
Eu201 O210 2.373 . S
Eu201 O214 2.488 . S
Eu201 O215 2.471 . S
Eu201 O216 2.349 . S
Eu201 O219 2.392 1_655 S
Eu201 O220 2.418 1_655 S
Eu201 C230 2.828 . S
C202 O220 1.244 . S
C202 O223 1.265 . S
C203 C204 1.379 . S
C203 C207 1.373 . S
C203 C209 1.505 . S
C204 C203 1.379 . S
C204 C206 1.369 . S
C204 H232 0.930 . S
C205 C207 1.383 . S
C205 C208 1.382 . S
C205 H233 0.930 . S
C206 C204 1.369 . S
C206 C208 1.392 . S
C206 H234 0.930 . S
C207 C203 1.373 . S
C207 C205 1.383 . S
C207 H235 0.931 . S
C208 C205 1.382 . S
C208 C206 1.392 . S
C209 Eu200 2.828 . S
C209 C203 1.505 . S
C209 O221 1.249 . S
C209 O222 1.244 . S
O210 Eu201 2.373 . S
O210 C212 1.258 . S
O211 Eu200 2.392 1_655 S
O211 C212 1.242 . S
C212 O210 1.258 . S
C212 O211 1.242 . S
O213 Eu200 2.418 1_655 S
O213 C217 1.244 . S
O214 Eu201 2.488 . S
O214 C230 1.249 . S
O215 Eu201 2.471 . S
O215 C230 1.244 . S
O216 Eu201 2.349 . S
O216 C217 1.265 . S
C217 O213 1.244 . S
C217 O216 1.265 . S
O218 Eu200 2.373 . S
O218 C231 1.258 . S
O219 Eu201 2.392 1_455 S
O219 C231 1.242 . S
O220 Eu201 2.418 1_455 S
O220 C202 1.244 . S
O221 Eu200 2.488 . S
O221 C209 1.249 . S
O222 Eu200 2.471 . S
O222 C209 1.244 . S
O223 Eu200 2.349 . S
O223 C202 1.265 . S
C224 C225 1.379 . S
C224 C228 1.373 . S
C224 C230 1.505 . S
C225 C224 1.379 . S
C225 C227 1.369 . S
C225 H236 0.930 . S
C226 C228 1.383 . S
C226 C229 1.382 . S
C226 H237 0.930 . S
C227 C225 1.369 . S
C227 C229 1.392 . S
C227 H238 0.930 . S
C228 C224 1.373 . S
C228 C226 1.383 . S
C228 H239 0.931 . S
C229 C226 1.382 . S
C229 C227 1.392 . S
C230 Eu201 2.828 . S
C230 O214 1.249 . S
C230 O215 1.244 . S
C230 C224 1.505 . S
C231 O218 1.258 . S
C231 O219 1.242 . S
H232 C204 0.930 . S
H233 C205 0.930 . S
H234 C206 0.930 . S
H235 C207 0.931 . S
H236 C225 0.930 . S
H237 C226 0.930 . S
H238 C227 0.930 . S
H239 C228 0.931 . S
Eu240 C249 2.828 . S
Eu240 O251 2.392 1_655 S
Eu240 O253 2.418 1_655 S
Eu240 O258 2.373 . S
Eu240 O261 2.488 . S
Eu240 O262 2.471 . S
Eu240 O263 2.349 . S
Eu241 O250 2.373 . S
Eu241 O254 2.488 . S
Eu241 O255 2.471 . S
Eu241 O256 2.349 . S
Eu241 O259 2.392 1_455 S
Eu241 O260 2.418 1_455 S
Eu241 C270 2.828 . S
C242 O260 1.244 . S
C242 O263 1.265 . S
C243 C244 1.379 . S
C243 C247 1.373 . S
C243 C249 1.505 . S
C244 C243 1.379 . S
C244 C246 1.369 . S
C244 H272 0.930 . S
C245 C247 1.383 . S
C245 C248 1.382 . S
C245 H273 0.930 . S
C246 C244 1.369 . S
C246 C248 1.392 . S
C246 H274 0.930 . S
C247 C243 1.373 . S
C247 C245 1.383 . S
C247 H275 0.931 . S
C248 C245 1.382 . S
C248 C246 1.392 . S
C249 Eu240 2.828 . S
C249 C243 1.505 . S
C249 O261 1.249 . S
C249 O262 1.244 . S
O250 Eu241 2.373 . S
O250 C252 1.258 . S
O251 Eu240 2.392 1_455 S
O251 C252 1.242 . S
C252 O250 1.258 . S
C252 O251 1.242 . S
O253 Eu240 2.418 1_455 S
O253 C257 1.244 . S
O254 Eu241 2.488 . S
O254 C270 1.249 . S
O255 Eu241 2.471 . S
O255 C270 1.244 . S
O256 Eu241 2.349 . S
O256 C257 1.265 . S
C257 O253 1.244 . S
C257 O256 1.265 . S
O258 Eu240 2.373 . S
O258 C271 1.258 . S
O259 Eu241 2.392 1_655 S
O259 C271 1.242 . S
O260 Eu241 2.418 1_655 S
O260 C242 1.244 . S
O261 Eu240 2.488 . S
O261 C249 1.249 . S
O262 Eu240 2.471 . S
O262 C249 1.244 . S
O263 Eu240 2.349 . S
O263 C242 1.265 . S
C264 C265 1.379 . S
C264 C268 1.373 . S
C264 C270 1.505 . S
C265 C264 1.379 . S
C265 C267 1.369 . S
C265 H276 0.930 . S
C266 C268 1.383 . S
C266 C269 1.382 . S
C266 H277 0.930 . S
C267 C265 1.369 . S
C267 C269 1.392 . S
C267 H278 0.930 . S
C268 C264 1.373 . S
C268 C266 1.383 . S
C268 H279 0.931 . S
C269 C266 1.382 . S
C269 C267 1.392 . S
C270 Eu241 2.828 . S
C270 O254 1.249 . S
C270 O255 1.244 . S
C270 C264 1.505 . S
C271 O258 1.258 . S
C271 O259 1.242 . S
H272 C244 0.930 . S
H273 C245 0.930 . S
H274 C246 0.930 . S
H275 C247 0.931 . S
H276 C265 0.930 . S
H277 C266 0.930 . S
H278 C267 0.930 . S
H279 C268 0.931 . S
Eu280 C289 2.828 . S
Eu280 O291 2.392 1_565 S
Eu280 O293 2.418 1_565 S
Eu280 O298 2.373 . S
Eu280 O301 2.488 . S
Eu280 O302 2.471 . S
Eu280 O303 2.349 . S
Eu281 O290 2.373 . S
Eu281 O294 2.488 . S
Eu281 O295 2.471 . S
Eu281 O296 2.349 . S
Eu281 O299 2.392 1_545 S
Eu281 O300 2.418 1_545 S
Eu281 C310 2.828 . S
C282 O300 1.244 . S
C282 O303 1.265 . S
C283 C284 1.379 . S
C283 C287 1.373 . S
C283 C289 1.505 . S
C284 C283 1.379 . S
C284 C286 1.369 . S
C284 H312 0.930 . S
C285 C287 1.383 . S
C285 C288 1.382 . S
C285 H313 0.930 . S
C286 C284 1.369 . S
C286 C288 1.392 . S
C286 H314 0.930 . S
C287 C283 1.373 . S
C287 C285 1.383 . S
C287 H315 0.931 . S
C288 C285 1.382 . S
C288 C286 1.392 . S
C289 Eu280 2.828 . S
C289 C283 1.505 . S
C289 O301 1.249 . S
C289 O302 1.244 . S
O290 Eu281 2.373 . S
O290 C292 1.258 . S
O291 Eu280 2.392 1_545 S
O291 C292 1.242 . S
C292 O290 1.258 . S
C292 O291 1.242 . S
O293 Eu280 2.418 1_545 S
O293 C297 1.244 . S
O294 Eu281 2.488 . S
O294 C310 1.249 . S
O295 Eu281 2.471 . S
O295 C310 1.244 . S
O296 Eu281 2.349 . S
O296 C297 1.265 . S
C297 O293 1.244 . S
C297 O296 1.265 . S
O298 Eu280 2.373 . S
O298 C311 1.258 . S
O299 Eu281 2.392 1_565 S
O299 C311 1.242 . S
O300 Eu281 2.418 1_565 S
O300 C282 1.244 . S
O301 Eu280 2.488 . S
O301 C289 1.249 . S
O302 Eu280 2.471 . S
O302 C289 1.244 . S
O303 Eu280 2.349 . S
O303 C282 1.265 . S
C304 C305 1.379 . S
C304 C308 1.373 . S
C304 C310 1.505 . S
C305 C304 1.379 . S
C305 C307 1.369 . S
C305 H316 0.930 . S
C306 C308 1.383 . S
C306 C309 1.382 . S
C306 H317 0.930 . S
C307 C305 1.369 . S
C307 C309 1.392 . S
C307 H318 0.930 . S
C308 C304 1.373 . S
C308 C306 1.383 . S
C308 H319 0.931 . S
C309 C306 1.382 . S
C309 C307 1.392 . S
C310 Eu281 2.828 . S
C310 O294 1.249 . S
C310 O295 1.244 . S
C310 C304 1.505 . S
C311 O298 1.258 . S
C311 O299 1.242 . S
H312 C284 0.930 . S
H313 C285 0.930 . S
H314 C286 0.930 . S
H315 C287 0.931 . S
H316 C305 0.930 . S
H317 C306 0.930 . S
H318 C307 0.930 . S
H319 C308 0.931 . S
Eu320 C329 2.828 . S
Eu320 O331 2.392 . S
Eu320 O333 2.418 . S
Eu320 O338 2.373 . S
Eu320 O341 2.488 . S
Eu320 O342 2.471 . S
Eu320 O343 2.349 . S
Eu321 O330 2.373 . S
Eu321 O334 2.488 . S
Eu321 O335 2.471 . S
Eu321 O336 2.349 . S
Eu321 O339 2.392 . S
Eu321 O340 2.418 . S
Eu321 C350 2.828 . S
C322 O340 1.244 . S
C322 O343 1.265 . S
C323 C324 1.379 . S
C323 C327 1.373 . S
C323 C329 1.505 . S
C324 C323 1.379 . S
C324 C326 1.369 . S
C324 H352 0.930 . S
C325 C327 1.383 . S
C325 C328 1.382 . S
C325 H353 0.930 . S
C326 C324 1.369 . S
C326 C328 1.392 . S
C326 H354 0.930 . S
C327 C323 1.373 . S
C327 C325 1.383 . S
C327 H355 0.931 . S
C328 C325 1.382 . S
C328 C326 1.392 . S
C329 Eu320 2.828 . S
C329 C323 1.505 . S
C329 O341 1.249 . S
C329 O342 1.244 . S
O330 Eu321 2.373 . S
O330 C332 1.258 . S
O331 Eu320 2.392 . S
O331 C332 1.242 . S
C332 O330 1.258 . S
C332 O331 1.242 . S
O333 Eu320 2.418 . S
O333 C337 1.244 . S
O334 Eu321 2.488 . S
O334 C350 1.249 . S
O335 Eu321 2.471 . S
O335 C350 1.244 . S
O336 Eu321 2.349 . S
O336 C337 1.265 . S
C337 O333 1.244 . S
C337 O336 1.265 . S
O338 Eu320 2.373 . S
O338 C351 1.258 . S
O339 Eu321 2.392 . S
O339 C351 1.242 . S
O340 Eu321 2.418 . S
O340 C322 1.244 . S
O341 Eu320 2.488 . S
O341 C329 1.249 . S
O342 Eu320 2.471 . S
O342 C329 1.244 . S
O343 Eu320 2.349 . S
O343 C322 1.265 . S
C344 C345 1.379 . S
C344 C348 1.373 . S
C344 C350 1.505 . S
C345 C344 1.379 . S
C345 C347 1.369 . S
C345 H356 0.930 . S
C346 C348 1.383 . S
C346 C349 1.382 . S
C346 H357 0.930 . S
C347 C345 1.369 . S
C347 C349 1.392 . S
C347 H358 0.930 . S
C348 C344 1.373 . S
C348 C346 1.383 . S
C348 H359 0.931 . S
C349 C346 1.382 . S
C349 C347 1.392 . S
C350 Eu321 2.828 . S
C350 O334 1.249 . S
C350 O335 1.244 . S
C350 C344 1.505 . S
C351 O338 1.258 . S
C351 O339 1.242 . S
H352 C324 0.930 . S
H353 C325 0.930 . S
H354 C326 0.930 . S
H355 C327 0.931 . S
H356 C345 0.930 . S
H357 C346 0.930 . S
H358 C347 0.930 . S
H359 C348 0.931 . S
Eu360 C369 2.828 . S
Eu360 O371 2.392 1_455 S
Eu360 O373 2.418 1_455 S
Eu360 O378 2.373 . S
Eu360 O381 2.488 . S
Eu360 O382 2.471 . S
Eu360 O383 2.349 . S
Eu361 O370 2.373 . S
Eu361 O374 2.488 . S
Eu361 O375 2.471 . S
Eu361 O376 2.349 . S
Eu361 O379 2.392 1_655 S
Eu361 O380 2.418 1_655 S
Eu361 C390 2.828 . S
C362 O380 1.244 . S
C362 O383 1.265 . S
C363 C364 1.379 . S
C363 C367 1.373 . S
C363 C369 1.505 . S
C364 C363 1.379 . S
C364 C366 1.369 . S
C364 H392 0.930 . S
C365 C367 1.383 . S
C365 C368 1.382 . S
C365 H393 0.930 . S
C366 C364 1.369 . S
C366 C368 1.392 . S
C366 H394 0.930 . S
C367 C363 1.373 . S
C367 C365 1.383 . S
C367 H395 0.931 . S
C368 C365 1.382 . S
C368 C366 1.392 . S
C369 Eu360 2.828 . S
C369 C363 1.505 . S
C369 O381 1.249 . S
C369 O382 1.244 . S
O370 Eu361 2.373 . S
O370 C372 1.258 . S
O371 Eu360 2.392 1_655 S
O371 C372 1.242 . S
C372 O370 1.258 . S
C372 O371 1.242 . S
O373 Eu360 2.418 1_655 S
O373 C377 1.244 . S
O374 Eu361 2.488 . S
O374 C390 1.249 . S
O375 Eu361 2.471 . S
O375 C390 1.244 . S
O376 Eu361 2.349 . S
O376 C377 1.265 . S
C377 O373 1.244 . S
C377 O376 1.265 . S
O378 Eu360 2.373 . S
O378 C391 1.258 . S
O379 Eu361 2.392 1_455 S
O379 C391 1.242 . S
O380 Eu361 2.418 1_455 S
O380 C362 1.244 . S
O381 Eu360 2.488 . S
O381 C369 1.249 . S
O382 Eu360 2.471 . S
O382 C369 1.244 . S
O383 Eu360 2.349 . S
O383 C362 1.265 . S
C384 C385 1.371 1_554 S
C384 C388 1.373 . S
C384 C390 1.505 1_554 S
C385 C384 1.371 1_556 S
C385 C387 1.335 1_556 S
C385 H396 0.974 . S
C386 C388 1.383 . S
C386 C389 1.382 . S
C386 H397 0.930 . S
C387 C385 1.335 1_554 S
C387 C389 1.392 . S
C387 H398 0.930 . S
C388 C384 1.373 . S
C388 C386 1.383 . S
C388 H399 0.931 . S
C389 C386 1.382 . S
C389 C387 1.392 . S
C390 Eu361 2.828 . S
C390 O374 1.249 . S
C390 O375 1.244 . S
C390 C384 1.505 1_556 S
C391 O378 1.258 . S
C391 O379 1.242 . S
H392 C364 0.930 . S
H393 C365 0.930 . S
H394 C366 0.930 . S
H395 C367 0.931 . S
H396 C385 0.974 . S
H397 C386 0.930 . S
H398 C387 0.930 . S
H399 C388 0.931 . S
Eu400 C409 2.828 . S
Eu400 O411 2.392 1_545 S
Eu400 O413 2.418 1_545 S
Eu400 O418 2.373 . S
Eu400 O421 2.488 . S
Eu400 O422 2.471 . S
Eu400 O423 2.349 . S
Eu401 O410 2.373 . S
Eu401 O414 2.488 . S
Eu401 O415 2.471 . S
Eu401 O416 2.349 . S
Eu401 O419 2.392 1_565 S
Eu401 O420 2.418 1_565 S
Eu401 C430 2.828 . S
C402 O420 1.244 . S
C402 O423 1.265 . S
C403 C404 1.379 . S
C403 C407 1.373 . S
C403 C409 1.505 . S
C404 C403 1.379 . S
C404 C406 1.369 . S
C404 H432 0.930 . S
C405 C407 1.383 . S
C405 C408 1.382 . S
C405 H433 0.930 . S
C406 C404 1.369 . S
C406 C408 1.392 . S
C406 H434 0.930 . S
C407 C403 1.373 . S
C407 C405 1.383 . S
C407 H435 0.931 . S
C408 C405 1.382 . S
C408 C406 1.392 . S
C409 Eu400 2.828 . S
C409 C403 1.505 . S
C409 O421 1.249 . S
C409 O422 1.244 . S
O410 Eu401 2.373 . S
O410 C412 1.258 . S
O411 Eu400 2.392 1_565 S
O411 C412 1.242 . S
C412 O410 1.258 . S
C412 O411 1.242 . S
O413 Eu400 2.418 1_565 S
O413 C417 1.244 . S
O414 Eu401 2.488 . S
O414 C430 1.249 . S
O415 Eu401 2.471 . S
O415 C430 1.244 . S
O416 Eu401 2.349 . S
O416 C417 1.265 . S
C417 O413 1.244 . S
C417 O416 1.265 . S
O418 Eu400 2.373 . S
O418 C431 1.258 . S
O419 Eu401 2.392 1_545 S
O419 C431 1.242 . S
O420 Eu401 2.418 1_545 S
O420 C402 1.244 . S
O421 Eu400 2.488 . S
O421 C409 1.249 . S
O422 Eu400 2.471 . S
O422 C409 1.244 . S
O423 Eu400 2.349 . S
O423 C402 1.265 . S
C424 C425 1.379 . S
C424 C428 1.373 . S
C424 C430 1.505 . S
C425 C424 1.379 . S
C425 C427 1.369 . S
C425 H436 0.930 . S
C426 C428 1.383 . S
C426 C429 1.382 . S
C426 H437 0.930 . S
C427 C425 1.369 . S
C427 C429 1.392 . S
C427 H438 0.930 . S
C428 C424 1.373 . S
C428 C426 1.383 . S
C428 H439 0.931 . S
C429 C426 1.382 . S
C429 C427 1.392 . S
C430 Eu401 2.828 . S
C430 O414 1.249 . S
C430 O415 1.244 . S
C430 C424 1.505 . S
C431 O418 1.258 . S
C431 O419 1.242 . S
H432 C404 0.930 . S
H433 C405 0.930 . S
H434 C406 0.930 . S
H435 C407 0.931 . S
H436 C425 0.930 . S
H437 C426 0.930 . S
H438 C427 0.930 . S
H439 C428 0.931 . S
Eu440 C449 2.828 . S
Eu440 O451 2.392 . S
Eu440 O453 2.418 . S
Eu440 O458 2.373 . S
Eu440 O461 2.488 . S
Eu440 O462 2.471 . S
Eu440 O463 2.349 . S
Eu441 O450 2.373 . S
Eu441 O454 2.488 . S
Eu441 O455 2.471 . S
Eu441 O456 2.349 . S
Eu441 O459 2.392 . S
Eu441 O460 2.418 . S
Eu441 C470 2.828 . S
C442 O460 1.244 . S
C442 O463 1.265 . S
C443 C444 1.379 . S
C443 C447 1.373 . S
C443 C449 1.505 . S
C444 C443 1.379 . S
C444 C446 1.369 . S
C444 H472 0.930 . S
C445 C447 1.383 . S
C445 C448 1.382 . S
C445 H473 0.930 . S
C446 C444 1.369 . S
C446 C448 1.392 . S
C446 H474 0.930 . S
C447 C443 1.373 . S
C447 C445 1.383 . S
C447 H475 0.931 . S
C448 C445 1.382 . S
C448 C446 1.392 . S
C449 Eu440 2.828 . S
C449 C443 1.505 . S
C449 O461 1.249 . S
C449 O462 1.244 . S
O450 Eu441 2.373 . S
O450 C452 1.258 . S
O451 Eu440 2.392 . S
O451 C452 1.242 . S
C452 O450 1.258 . S
C452 O451 1.242 . S
O453 Eu440 2.418 . S
O453 C457 1.244 . S
O454 Eu441 2.488 . S
O454 C470 1.249 . S
O455 Eu441 2.471 . S
O455 C470 1.244 . S
O456 Eu441 2.349 . S
O456 C457 1.265 . S
C457 O453 1.244 . S
C457 O456 1.265 . S
O458 Eu440 2.373 . S
O458 C471 1.258 . S
O459 Eu441 2.392 . S
O459 C471 1.242 . S
O460 Eu441 2.418 . S
O460 C442 1.244 . S
O461 Eu440 2.488 . S
O461 C449 1.249 . S
O462 Eu440 2.471 . S
O462 C449 1.244 . S
O463 Eu440 2.349 . S
O463 C442 1.265 . S
C464 C465 1.379 . S
C464 C468 1.373 . S
C464 C470 1.505 . S
C465 C464 1.379 . S
C465 C467 1.369 . S
C465 H476 0.930 . S
C466 C468 1.383 . S
C466 C469 1.382 . S
C466 H477 0.930 . S
C467 C465 1.369 . S
C467 C469 1.392 . S
C467 H478 0.930 . S
C468 C464 1.373 . S
C468 C466 1.383 . S
C468 H479 0.931 . S
C469 C466 1.382 . S
C469 C467 1.392 . S
C470 Eu441 2.828 . S
C470 O454 1.249 . S
C470 O455 1.244 . S
C470 C464 1.505 . S
C471 O458 1.258 . S
C471 O459 1.242 . S
H472 C444 0.930 . S
H473 C445 0.930 . S
H474 C446 0.930 . S
H475 C447 0.931 . S
H476 C465 0.930 . S
H477 C466 0.930 . S
H478 C467 0.930 . S
H479 C468 0.931 . S
H480 C488 0.950 . S
H481 C493 0.950 . S
H482 C490 0.950 . S
H483 C492 0.950 . S
H484 C494 0.950 . S
H485 C496 0.950 . S
H486 C498 0.950 . S
H487 C499 0.950 . S
C488 H480 0.950 . S
C488 C489 1.386 . S
C488 C490 1.391 . S
C489 C488 1.386 . S
C489 C493 1.393 . S
C490 H482 0.950 . S
C490 C488 1.391 . S
C490 C491 1.400 . S
C491 C490 1.400 . S
C491 C492 1.398 . S
C491 C497 1.491 . S
C492 H483 0.950 . S
C492 C491 1.398 . S
C492 C493 1.391 . S
C493 H481 0.950 . S
C493 C489 1.393 . S
C493 C492 1.391 . S
C494 H484 0.950 . S
C494 C495 1.386 . S
C494 C496 1.391 . S
C495 C494 1.386 . S
C495 C499 1.393 . S
C496 H485 0.950 . S
C496 C494 1.391 . S
C496 C497 1.400 . S
C497 C491 1.491 . S
C497 C496 1.400 . S
C497 C498 1.398 . S
C498 H486 0.950 . S
C498 C497 1.398 . S
C498 C499 1.391 . S
C499 H487 0.950 . S
C499 C495 1.393 . S
C499 C498 1.391 . S
H500 C508 0.950 . S
H501 C513 0.950 . S
H502 C510 0.950 . S
H503 C512 0.950 . S
H504 C514 0.950 . S
H505 C516 0.950 . S
H506 C518 0.950 . S
H507 C519 0.950 . S
C508 H500 0.950 . S
C508 C509 1.386 . S
C508 C510 1.391 . S
C509 C508 1.386 . S
C509 C513 1.393 . S
C510 H502 0.950 . S
C510 C508 1.391 . S
C510 C511 1.400 . S
C511 C510 1.400 . S
C511 C512 1.398 . S
C511 C517 1.491 . S
C512 H503 0.950 . S
C512 C511 1.398 . S
C512 C513 1.391 . S
C513 H501 0.950 . S
C513 C509 1.393 . S
C513 C512 1.391 . S
C514 H504 0.950 . S
C514 C515 1.386 . S
C514 C516 1.391 . S
C515 C514 1.386 . S
C515 C519 1.393 . S
C516 H505 0.950 . S
C516 C514 1.391 . S
C516 C517 1.400 . S
C517 C511 1.491 . S
C517 C516 1.400 . S
C517 C518 1.398 . S
C518 H506 0.950 . S
C518 C517 1.398 . S
C518 C519 1.391 . S
C519 H507 0.950 . S
C519 C515 1.393 . S
C519 C518 1.391 . S
H520 C528 0.950 . S
H521 C533 0.950 . S
H522 C530 0.950 . S
H523 C532 0.950 . S
H524 C534 0.950 . S
H525 C536 0.950 . S
H526 C538 0.950 . S
H527 C539 0.950 . S
C528 H520 0.950 . S
C528 C529 1.386 . S
C528 C530 1.391 . S
C529 C528 1.386 . S
C529 C533 1.393 . S
C530 H522 0.950 . S
C530 C528 1.391 . S
C530 C531 1.400 . S
C531 C530 1.400 . S
C531 C532 1.398 . S
C531 C537 1.491 . S
C532 H523 0.950 . S
C532 C531 1.398 . S
C532 C533 1.391 . S
C533 H521 0.950 . S
C533 C529 1.393 . S
C533 C532 1.391 . S
C534 H524 0.950 . S
C534 C535 1.386 . S
C534 C536 1.391 . S
C535 C534 1.386 . S
C535 C539 1.393 . S
C536 H525 0.950 . S
C536 C534 1.391 . S
C536 C537 1.400 . S
C537 C531 1.491 . S
C537 C536 1.400 . S
C537 C538 1.398 . S
C538 H526 0.950 . S
C538 C537 1.398 . S
C538 C539 1.391 . S
C539 H527 0.950 . S
C539 C535 1.393 . S
C539 C538 1.391 . S
H540 C548 0.950 . S
H541 C553 0.950 . S
H542 C550 0.950 . S
H543 C552 0.950 . S
H544 C554 0.950 . S
H545 C556 0.950 . S
H546 C558 0.950 . S
H547 C559 0.950 . S
C548 H540 0.950 . S
C548 C549 1.386 . S
C548 C550 1.391 . S
C549 C548 1.386 . S
C549 C553 1.393 . S
C550 H542 0.950 . S
C550 C548 1.391 . S
C550 C551 1.400 . S
C551 C550 1.400 . S
C551 C552 1.398 . S
C551 C557 1.491 . S
C552 H543 0.950 . S
C552 C551 1.398 . S
C552 C553 1.391 . S
C553 H541 0.950 . S
C553 C549 1.393 . S
C553 C552 1.391 . S
C554 H544 0.950 . S
C554 C555 1.386 . S
C554 C556 1.391 . S
C555 C554 1.386 . S
C555 C559 1.393 . S
C556 H545 0.950 . S
C556 C554 1.391 . S
C556 C557 1.400 . S
C557 C551 1.491 . S
C557 C556 1.400 . S
C557 C558 1.398 . S
C558 H546 0.950 . S
C558 C557 1.398 . S
C558 C559 1.391 . S
C559 H547 0.950 . S
C559 C555 1.393 . S
C559 C558 1.391 . S
H560 C568 0.950 . S
H561 C573 0.950 . S
H562 C570 0.950 . S
H563 C572 0.950 . S
H564 C574 0.950 . S
H565 C576 0.950 . S
H566 C578 0.950 . S
H567 C579 0.950 . S
C568 H560 0.950 . S
C568 C569 1.386 . S
C568 C570 1.391 . S
C569 C568 1.386 . S
C569 C573 1.393 . S
C570 H562 0.950 . S
C570 C568 1.391 . S
C570 C571 1.400 . S
C571 C570 1.400 . S
C571 C572 1.398 . S
C571 C577 1.491 . S
C572 H563 0.950 . S
C572 C571 1.398 . S
C572 C573 1.391 . S
C573 H561 0.950 . S
C573 C569 1.393 . S
C573 C572 1.391 . S
C574 H564 0.950 . S
C574 C575 1.386 . S
C574 C576 1.391 . S
C575 C574 1.386 . S
C575 C579 1.393 . S
C576 H565 0.950 . S
C576 C574 1.391 . S
C576 C577 1.400 . S
C577 C571 1.491 . S
C577 C576 1.400 . S
C577 C578 1.398 . S
C578 H566 0.950 . S
C578 C577 1.398 . S
C578 C579 1.391 . S
C579 H567 0.950 . S
C579 C575 1.393 . S
C579 C578 1.391 . S
H580 C588 0.950 . S
H581 C593 0.950 . S
H582 C590 0.950 . S
H583 C592 0.950 . S
H584 C594 0.950 . S
H585 C596 0.950 . S
H586 C598 0.950 . S
H587 C599 0.950 . S
C588 H580 0.950 . S
C588 C589 1.386 . S
C588 C590 1.391 . S
C589 C588 1.386 . S
C589 C593 1.393 . S
C590 H582 0.950 . S
C590 C588 1.391 . S
C590 C591 1.400 . S
C591 C590 1.400 . S
C591 C592 1.398 . S
C591 C597 1.491 . S
C592 H583 0.950 . S
C592 C591 1.398 . S
C592 C593 1.391 . S
C593 H581 0.950 . S
C593 C589 1.393 . S
C593 C592 1.391 . S
C594 H584 0.950 . S
C594 C595 1.386 . S
C594 C596 1.391 . S
C595 C594 1.386 . S
C595 C599 1.393 . S
C596 H585 0.950 . S
C596 C594 1.391 . S
C596 C597 1.400 . S
C597 C591 1.491 . S
C597 C596 1.400 . S
C597 C598 1.398 . S
C598 H586 0.950 . S
C598 C597 1.398 . S
C598 C599 1.391 . S
C599 H587 0.950 . S
C599 C595 1.393 . S
C599 C598 1.391 . S
H600 C608 0.950 . S
H601 C613 0.950 . S
H602 C610 0.950 . S
H603 C612 0.950 . S
H604 C614 0.950 . S
H605 C616 0.950 . S
H606 C618 0.950 . S
H607 C619 0.950 . S
C608 H600 0.950 . S
C608 C609 1.386 . S
C608 C610 1.391 . S
C609 C608 1.386 . S
C609 C613 1.393 . S
C610 H602 0.950 . S
C610 C608 1.391 . S
C610 C611 1.400 . S
C611 C610 1.400 . S
C611 C612 1.398 . S
C611 C617 1.491 . S
C612 H603 0.950 . S
C612 C611 1.398 . S
C612 C613 1.391 . S
C613 H601 0.950 . S
C613 C609 1.393 . S
C613 C612 1.391 . S
C614 H604 0.950 . S
C614 C615 1.386 . S
C614 C616 1.391 . S
C615 C614 1.386 . S
C615 C619 1.393 . S
C616 H605 0.950 . S
C616 C614 1.391 . S
C616 C617 1.400 . S
C617 C611 1.491 . S
C617 C616 1.400 . S
C617 C618 1.398 . S
C618 H606 0.950 . S
C618 C617 1.398 . S
C618 C619 1.391 . S
C619 H607 0.950 . S
C619 C615 1.393 . S
C619 C618 1.391 . S
H620 C628 0.950 . S
H621 C633 0.950 . S
H622 C630 0.950 . S
H623 C632 0.950 . S
H624 C634 0.950 . S
H625 C636 0.950 . S
H626 C638 0.950 . S
H627 C639 0.950 . S
C628 H620 0.950 . S
C628 C629 1.386 . S
C628 C630 1.391 . S
C629 C628 1.386 . S
C629 C633 1.393 . S
C630 H622 0.950 . S
C630 C628 1.391 . S
C630 C631 1.400 . S
C631 C630 1.400 . S
C631 C632 1.398 . S
C631 C637 1.491 . S
C632 H623 0.950 . S
C632 C631 1.398 . S
C632 C633 1.391 . S
C633 H621 0.950 . S
C633 C629 1.393 . S
C633 C632 1.391 . S
C634 H624 0.950 . S
C634 C635 1.386 . S
C634 C636 1.391 . S
C635 C634 1.386 . S
C635 C639 1.393 . S
C636 H625 0.950 . S
C636 C634 1.391 . S
C636 C637 1.400 . S
C637 C631 1.491 . S
C637 C636 1.400 . S
C637 C638 1.398 . S
C638 H626 0.950 . S
C638 C637 1.398 . S
C638 C639 1.391 . S
C639 H627 0.950 . S
C639 C635 1.393 . S
C639 C638 1.391 . S
H640 C648 0.950 . S
H641 C653 0.950 . S
H642 C650 0.950 . S
H643 C652 0.950 . S
H644 C654 0.950 . S
H645 C656 0.950 . S
H646 C658 0.950 . S
H647 C659 0.950 . S
C648 H640 0.950 . S
C648 C649 1.386 . S
C648 C650 1.391 . S
C649 C648 1.386 . S
C649 C653 1.393 . S
C650 H642 0.950 . S
C650 C648 1.391 . S
C650 C651 1.400 . S
C651 C650 1.400 . S
C651 C652 1.398 . S
C651 C657 1.491 . S
C652 H643 0.950 . S
C652 C651 1.398 . S
C652 C653 1.391 . S
C653 H641 0.950 . S
C653 C649 1.393 . S
C653 C652 1.391 . S
C654 H644 0.950 . S
C654 C655 1.386 . S
C654 C656 1.391 . S
C655 C654 1.386 . S
C655 C659 1.393 . S
C656 H645 0.950 . S
C656 C654 1.391 . S
C656 C657 1.400 . S
C657 C651 1.491 . S
C657 C656 1.400 . S
C657 C658 1.398 . S
C658 H646 0.950 . S
C658 C657 1.398 . S
C658 C659 1.391 . S
C659 H647 0.950 . S
C659 C655 1.393 . S
C659 C658 1.391 . S
H660 C668 0.950 . S
H661 C673 0.950 . S
H662 C670 0.950 . S
H663 C672 0.950 . S
H664 C674 0.950 . S
H665 C676 0.950 . S
H666 C678 0.950 . S
H667 C679 0.950 . S
C668 H660 0.950 . S
C668 C669 1.386 . S
C668 C670 1.391 . S
C669 C668 1.386 . S
C669 C673 1.393 . S
C670 H662 0.950 . S
C670 C668 1.391 . S
C670 C671 1.400 . S
C671 C670 1.400 . S
C671 C672 1.398 . S
C671 C677 1.491 . S
C672 H663 0.950 . S
C672 C671 1.398 . S
C672 C673 1.391 . S
C673 H661 0.950 . S
C673 C669 1.393 . S
C673 C672 1.391 . S
C674 H664 0.950 . S
C674 C675 1.386 . S
C674 C676 1.391 . S
C675 C674 1.386 . S
C675 C679 1.393 . S
C676 H665 0.950 . S
C676 C674 1.391 . S
C676 C677 1.400 . S
C677 C671 1.491 . S
C677 C676 1.400 . S
C677 C678 1.398 . S
C678 H666 0.950 . S
C678 C677 1.398 . S
C678 C679 1.391 . S
C679 H667 0.950 . S
C679 C675 1.393 . S
C679 C678 1.391 . S
H680 C688 0.950 . S
H681 C693 0.950 . S
H682 C690 0.950 . S
H683 C692 0.950 . S
H684 C694 0.950 . S
H685 C696 0.950 . S
H686 C698 0.950 . S
H687 C699 0.950 . S
C688 H680 0.950 . S
C688 C689 1.386 . S
C688 C690 1.391 . S
C689 C688 1.386 . S
C689 C693 1.393 . S
C690 H682 0.950 . S
C690 C688 1.391 . S
C690 C691 1.400 . S
C691 C690 1.400 . S
C691 C692 1.398 . S
C691 C697 1.491 . S
C692 H683 0.950 . S
C692 C691 1.398 . S
C692 C693 1.391 . S
C693 H681 0.950 . S
C693 C689 1.393 . S
C693 C692 1.391 . S
C694 H684 0.950 . S
C694 C695 1.386 . S
C694 C696 1.391 . S
C695 C694 1.386 . S
C695 C699 1.393 . S
C696 H685 0.950 . S
C696 C694 1.391 . S
C696 C697 1.400 . S
C697 C691 1.491 . S
C697 C696 1.400 . S
C697 C698 1.398 . S
C698 H686 0.950 . S
C698 C697 1.398 . S
C698 C699 1.391 . S
C699 H687 0.950 . S
C699 C695 1.393 . S
C699 C698 1.391 . S
H700 C708 0.950 . S
H701 C713 0.950 . S
H702 C710 0.950 . S
H703 C712 0.950 . S
H704 C714 0.950 . S
H705 C716 0.950 . S
H706 C718 0.950 . S
H707 C719 0.950 . S
C708 H700 0.950 . S
C708 C709 1.386 . S
C708 C710 1.391 . S
C709 C708 1.386 . S
C709 C713 1.393 . S
C710 H702 0.950 . S
C710 C708 1.391 . S
C710 C711 1.400 . S
C711 C710 1.400 . S
C711 C712 1.398 . S
C711 C717 1.491 . S
C712 H703 0.950 . S
C712 C711 1.398 . S
C712 C713 1.391 . S
C713 H701 0.950 . S
C713 C709 1.393 . S
C713 C712 1.391 . S
C714 H704 0.950 . S
C714 C715 1.386 . S
C714 C716 1.391 . S
C715 C714 1.386 . S
C715 C719 1.393 . S
C716 H705 0.950 . S
C716 C714 1.391 . S
C716 C717 1.400 . S
C717 C711 1.491 . S
C717 C716 1.400 . S
C717 C718 1.398 . S
C718 H706 0.950 . S
C718 C717 1.398 . S
C718 C719 1.391 . S
C719 H707 0.950 . S
C719 C715 1.393 . S
C719 C718 1.391 . S
H720 C728 0.950 . S
H721 C733 0.950 . S
H722 C730 0.950 . S
H723 C732 0.950 . S
H724 C734 0.950 . S
H725 C736 0.950 . S
H726 C738 0.950 . S
H727 C739 0.950 . S
C728 H720 0.950 . S
C728 C729 1.386 . S
C728 C730 1.391 . S
C729 C728 1.386 . S
C729 C733 1.393 . S
C730 H722 0.950 . S
C730 C728 1.391 . S
C730 C731 1.400 . S
C731 C730 1.400 . S
C731 C732 1.398 . S
C731 C737 1.491 . S
C732 H723 0.950 . S
C732 C731 1.398 . S
C732 C733 1.391 . S
C733 H721 0.950 . S
C733 C729 1.393 . S
C733 C732 1.391 . S
C734 H724 0.950 . S
C734 C735 1.386 . S
C734 C736 1.391 . S
C735 C734 1.386 . S
C735 C739 1.393 . S
C736 H725 0.950 . S
C736 C734 1.391 . S
C736 C737 1.400 . S
C737 C731 1.491 . S
C737 C736 1.400 . S
C737 C738 1.398 . S
C738 H726 0.950 . S
C738 C737 1.398 . S
C738 C739 1.391 . S
C739 H727 0.950 . S
C739 C735 1.393 . S
C739 C738 1.391 . S
H740 C748 0.950 . S
H741 C753 0.950 . S
H742 C750 0.950 . S
H743 C752 0.950 . S
H744 C754 0.950 . S
H745 C756 0.950 . S
H746 C758 0.950 . S
H747 C759 0.950 . S
C748 H740 0.950 . S
C748 C749 1.386 . S
C748 C750 1.391 . S
C749 C748 1.386 . S
C749 C753 1.393 . S
C750 H742 0.950 . S
C750 C748 1.391 . S
C750 C751 1.400 . S
C751 C750 1.400 . S
C751 C752 1.398 . S
C751 C757 1.491 . S
C752 H743 0.950 . S
C752 C751 1.398 . S
C752 C753 1.391 . S
C753 H741 0.950 . S
C753 C749 1.393 . S
C753 C752 1.391 . S
C754 H744 0.950 . S
C754 C755 1.386 . S
C754 C756 1.391 . S
C755 C754 1.386 . S
C755 C759 1.393 . S
C756 H745 0.950 . S
C756 C754 1.391 . S
C756 C757 1.400 . S
C757 C751 1.491 . S
C757 C756 1.400 . S
C757 C758 1.398 . S
C758 H746 0.950 . S
C758 C757 1.398 . S
C758 C759 1.391 . S
C759 H747 0.950 . S
C759 C755 1.393 . S
C759 C758 1.391 . S
H760 C768 0.950 . S
H761 C773 0.950 . S
H762 C770 0.950 . S
H763 C772 0.950 . S
H764 C774 0.950 . S
H765 C776 0.950 . S
H766 C778 0.950 . S
H767 C779 0.950 . S
C768 H760 0.950 . S
C768 C769 1.386 . S
C768 C770 1.391 . S
C769 C768 1.386 . S
C769 C773 1.393 . S
C770 H762 0.950 . S
C770 C768 1.391 . S
C770 C771 1.400 . S
C771 C770 1.400 . S
C771 C772 1.398 . S
C771 C777 1.491 . S
C772 H763 0.950 . S
C772 C771 1.398 . S
C772 C773 1.391 . S
C773 H761 0.950 . S
C773 C769 1.393 . S
C773 C772 1.391 . S
C774 H764 0.950 . S
C774 C775 1.386 . S
C774 C776 1.391 . S
C775 C774 1.386 . S
C775 C779 1.393 . S
C776 H765 0.950 . S
C776 C774 1.391 . S
C776 C777 1.400 . S
C777 C771 1.491 . S
C777 C776 1.400 . S
C777 C778 1.398 . S
C778 H766 0.950 . S
C778 C777 1.398 . S
C778 C779 1.391 . S
C779 H767 0.950 . S
C779 C775 1.393 . S
C779 C778 1.391 . S
H780 C788 0.950 . S
H781 C793 0.950 . S
H782 C790 0.950 . S
H783 C792 0.950 . S
H784 C794 0.950 . S
H785 C796 0.950 . S
H786 C798 0.950 . S
H787 C799 0.950 . S
C788 H780 0.950 . S
C788 C789 1.386 . S
C788 C790 1.391 . S
C789 C788 1.386 . S
C789 C793 1.393 . S
C790 H782 0.950 . S
C790 C788 1.391 . S
C790 C791 1.400 . S
C791 C790 1.400 . S
C791 C792 1.398 . S
C791 C797 1.491 . S
C792 H783 0.950 . S
C792 C791 1.398 . S
C792 C793 1.391 . S
C793 H781 0.950 . S
C793 C789 1.393 . S
C793 C792 1.391 . S
C794 H784 0.950 . S
C794 C795 1.386 . S
C794 C796 1.391 . S
C795 C794 1.386 . S
C795 C799 1.393 . S
C796 H785 0.950 . S
C796 C794 1.391 . S
C796 C797 1.400 . S
C797 C791 1.491 . S
C797 C796 1.400 . S
C797 C798 1.398 . S
C798 H786 0.950 . S
C798 C797 1.398 . S
C798 C799 1.391 . S
C799 H787 0.950 . S
C799 C795 1.393 . S
C799 C798 1.391 . S
H800 C808 0.950 . S
H801 C813 0.950 1_554 S
H802 C810 0.950 . S
H803 C812 0.947 1_554 S
H804 C814 0.950 . S
H805 C816 0.950 . S
H806 C818 0.950 . S
H807 C819 0.950 . S
C808 H800 0.950 . S
C808 C809 1.386 . S
C808 C810 1.391 . S
C809 C808 1.386 . S
C809 C813 1.393 . S
C810 H802 0.950 . S
C810 C808 1.391 . S
C810 C811 1.400 . S
C811 C810 1.400 . S
C811 C812 1.400 . S
C811 C817 1.491 . S
C812 H803 0.947 1_556 S
C812 C811 1.400 . S
C812 C813 1.391 . S
C813 H801 0.950 1_556 S
C813 C809 1.393 . S
C813 C812 1.391 . S
C814 H804 0.950 . S
C814 C815 1.386 1_554 S
C814 C816 1.391 . S
C815 C814 1.386 1_556 S
C815 C819 1.393 . S
C816 H805 0.950 . S
C816 C814 1.391 . S
C816 C817 1.400 1_554 S
C817 C811 1.491 . S
C817 C816 1.400 1_556 S
C817 C818 1.398 . S
C818 H806 0.950 . S
C818 C817 1.398 . S
C818 C819 1.391 . S
C819 H807 0.950 . S
C819 C815 1.393 . S
C819 C818 1.391 . S
H820 C828 0.950 . S
H821 C833 0.950 . S
H822 C830 0.950 . S
H823 C832 0.950 . S
H824 C834 0.950 . S
H825 C836 0.950 . S
H826 C838 0.950 . S
H827 C839 0.950 . S
C828 H820 0.950 . S
C828 C829 1.386 . S
C828 C830 1.391 . S
C829 C828 1.386 . S
C829 C833 1.393 . S
C830 H822 0.950 . S
C830 C828 1.391 . S
C830 C831 1.400 . S
C831 C830 1.400 . S
C831 C832 1.398 . S
C831 C837 1.491 . S
C832 H823 0.950 . S
C832 C831 1.398 . S
C832 C833 1.391 . S
C833 H821 0.950 . S
C833 C829 1.393 . S
C833 C832 1.391 . S
C834 H824 0.950 . S
C834 C835 1.386 . S
C834 C836 1.391 . S
C835 C834 1.386 . S
C835 C839 1.393 . S
C836 H825 0.950 . S
C836 C834 1.391 . S
C836 C837 1.400 . S
C837 C831 1.491 . S
C837 C836 1.400 . S
C837 C838 1.398 . S
C838 H826 0.950 . S
C838 C837 1.398 . S
C838 C839 1.391 . S
C839 H827 0.950 . S
C839 C835 1.393 . S
C839 C838 1.391 . S
H840 C848 0.950 . S
H841 C853 0.950 . S
H842 C850 0.950 . S
H843 C852 0.950 . S
H844 C854 0.950 . S
H845 C856 0.950 . S
H846 C858 0.950 . S
H847 C859 0.950 . S
C848 H840 0.950 . S
C848 C849 1.386 . S
C848 C850 1.391 . S
C849 C848 1.386 . S
C849 C853 1.393 . S
C850 H842 0.950 . S
C850 C848 1.391 . S
C850 C851 1.400 . S
C851 C850 1.400 . S
C851 C852 1.398 . S
C851 C857 1.491 . S
C852 H843 0.950 . S
C852 C851 1.398 . S
C852 C853 1.391 . S
C853 H841 0.950 . S
C853 C849 1.393 . S
C853 C852 1.391 . S
C854 H844 0.950 . S
C854 C855 1.386 . S
C854 C856 1.391 . S
C855 C854 1.386 . S
C855 C859 1.393 . S
C856 H845 0.950 . S
C856 C854 1.391 . S
C856 C857 1.400 . S
C857 C851 1.491 . S
C857 C856 1.400 . S
C857 C858 1.398 . S
C858 H846 0.950 . S
C858 C857 1.398 . S
C858 C859 1.391 . S
C859 H847 0.950 . S
C859 C855 1.393 . S
C859 C858 1.391 . S
H860 C868 0.950 . S
H861 C873 0.950 . S
H862 C870 0.950 . S
H863 C872 0.950 . S
H864 C874 0.950 . S
H865 C876 0.950 . S
H866 C878 0.950 . S
H867 C879 0.950 . S
C868 H860 0.950 . S
C868 C869 1.386 . S
C868 C870 1.391 . S
C869 C868 1.386 . S
C869 C873 1.393 . S
C870 H862 0.950 . S
C870 C868 1.391 . S
C870 C871 1.400 . S
C871 C870 1.400 . S
C871 C872 1.398 . S
C871 C877 1.491 . S
C872 H863 0.950 . S
C872 C871 1.398 . S
C872 C873 1.391 . S
C873 H861 0.950 . S
C873 C869 1.393 . S
C873 C872 1.391 . S
C874 H864 0.950 . S
C874 C875 1.386 . S
C874 C876 1.391 . S
C875 C874 1.386 . S
C875 C879 1.393 . S
C876 H865 0.950 . S
C876 C874 1.391 . S
C876 C877 1.400 . S
C877 C871 1.491 . S
C877 C876 1.400 . S
C877 C878 1.398 . S
C878 H866 0.950 . S
C878 C877 1.398 . S
C878 C879 1.391 . S
C879 H867 0.950 . S
C879 C875 1.393 . S
C879 C878 1.391 . S
H880 C888 0.950 . S
H881 C893 0.950 . S
H882 C890 0.950 . S
H883 C892 0.950 . S
H884 C894 0.950 . S
H885 C896 0.950 . S
H886 C898 0.950 . S
H887 C899 0.950 . S
C888 H880 0.950 . S
C888 C889 1.386 . S
C888 C890 1.391 . S
C889 C888 1.386 . S
C889 C893 1.393 . S
C890 H882 0.950 . S
C890 C888 1.391 . S
C890 C891 1.400 . S
C891 C890 1.400 . S
C891 C892 1.398 . S
C891 C897 1.491 . S
C892 H883 0.950 . S
C892 C891 1.398 . S
C892 C893 1.391 . S
C893 H881 0.950 . S
C893 C889 1.393 . S
C893 C892 1.391 . S
C894 H884 0.950 . S
C894 C895 1.386 . S
C894 C896 1.391 . S
C895 C894 1.386 . S
C895 C899 1.393 . S
C896 H885 0.950 . S
C896 C894 1.391 . S
C896 C897 1.400 . S
C897 C891 1.491 . S
C897 C896 1.400 . S
C897 C898 1.398 . S
C898 H886 0.950 . S
C898 C897 1.398 . S
C898 C899 1.391 . S
C899 H887 0.950 . S
C899 C895 1.393 . S
C899 C898 1.391 . S
H900 C908 0.950 . S
H901 C913 0.950 . S
H902 C910 0.957 . S
H903 C912 0.950 . S
H904 C914 0.950 . S
H905 C916 0.950 . S
H906 C918 0.958 . S
H907 C919 0.950 . S
C908 H900 0.950 . S
C908 C909 1.386 . S
C908 C910 1.400 . S
C909 C908 1.386 . S
C909 C913 1.393 1_554 S
C910 H902 0.957 . S
C910 C908 1.400 . S
C910 C911 1.387 1_554 S
C911 C910 1.387 1_556 S
C911 C912 1.398 . S
C911 C917 1.491 . S
C912 H903 0.950 . S
C912 C911 1.398 . S
C912 C913 1.391 . S
C913 H901 0.950 . S
C913 C909 1.393 1_556 S
C913 C912 1.391 . S
C914 H904 0.950 . S
C914 C915 1.386 . S
C914 C916 1.391 . S
C915 C914 1.386 . S
C915 C919 1.393 . S
C916 H905 0.950 . S
C916 C914 1.391 . S
C916 C917 1.400 . S
C917 C911 1.491 . S
C917 C916 1.400 . S
C917 C918 1.398 . S
C918 H906 0.958 . S
C918 C917 1.398 . S
C918 C919 1.391 . S
C919 H907 0.950 . S
C919 C915 1.393 . S
C919 C918 1.391 . S
H920 C928 0.950 . S
H921 C933 0.950 . S
H922 C930 0.950 . S
H923 C932 0.950 . S
H924 C934 0.950 . S
H925 C936 0.950 . S
H926 C938 0.950 . S
H927 C939 0.950 . S
C928 H920 0.950 . S
C928 C929 1.386 . S
C928 C930 1.391 . S
C929 C928 1.386 . S
C929 C933 1.393 . S
C930 H922 0.950 . S
C930 C928 1.391 . S
C930 C931 1.400 . S
C931 C930 1.400 . S
C931 C932 1.398 . S
C931 C937 1.491 . S
C932 H923 0.950 . S
C932 C931 1.398 . S
C932 C933 1.391 . S
C933 H921 0.950 . S
C933 C929 1.393 . S
C933 C932 1.391 . S
C934 H924 0.950 . S
C934 C935 1.386 . S
C934 C936 1.391 . S
C935 C934 1.386 . S
C935 C939 1.393 . S
C936 H925 0.950 . S
C936 C934 1.391 . S
C936 C937 1.400 . S
C937 C931 1.491 . S
C937 C936 1.400 . S
C937 C938 1.398 . S
C938 H926 0.950 . S
C938 C937 1.398 . S
C938 C939 1.391 . S
C939 H927 0.950 . S
C939 C935 1.393 . S
C939 C938 1.391 . S
H940 C948 0.950 . S
H941 C953 0.950 . S
H942 C950 0.950 . S
H943 C952 0.950 . S
H944 C954 0.950 . S
H945 C956 0.950 . S
H946 C958 0.950 . S
H947 C959 0.950 . S
C948 H940 0.950 . S
C948 C949 1.386 . S
C948 C950 1.391 . S
C949 C948 1.386 . S
C949 C953 1.393 . S
C950 H942 0.950 . S
C950 C948 1.391 . S
C950 C951 1.400 . S
C951 C950 1.400 . S
C951 C952 1.398 . S
C951 C957 1.491 . S
C952 H943 0.950 . S
C952 C951 1.398 . S
C952 C953 1.391 . S
C953 H941 0.950 . S
C953 C949 1.393 . S
C953 C952 1.391 . S
C954 H944 0.950 . S
C954 C955 1.386 . S
C954 C956 1.391 . S
C955 C954 1.386 . S
C955 C959 1.393 . S
C956 H945 0.950 . S
C956 C954 1.391 . S
C956 C957 1.400 . S
C957 C951 1.491 . S
C957 C956 1.400 . S
C957 C958 1.398 . S
C958 H946 0.950 . S
C958 C957 1.398 . S
C958 C959 1.391 . S
C959 H947 0.950 . S
C959 C955 1.393 . S
C959 C958 1.391 . S
H960 C968 0.950 . S
H961 C973 0.950 . S
H962 C970 0.950 . S
H963 C972 0.950 . S
H964 C974 0.950 . S
H965 C976 0.950 . S
H966 C978 0.950 . S
H967 C979 0.950 . S
C968 H960 0.950 . S
C968 C969 1.386 . S
C968 C970 1.391 . S
C969 C968 1.386 . S
C969 C973 1.393 . S
C970 H962 0.950 . S
C970 C968 1.391 . S
C970 C971 1.400 . S
C971 C970 1.400 . S
C971 C972 1.398 . S
C971 C977 1.491 . S
C972 H963 0.950 . S
C972 C971 1.398 . S
C972 C973 1.391 . S
C973 H961 0.950 . S
C973 C969 1.393 . S
C973 C972 1.391 . S
C974 H964 0.950 . S
C974 C975 1.386 . S
C974 C976 1.391 . S
C975 C974 1.386 . S
C975 C979 1.393 . S
C976 H965 0.950 . S
C976 C974 1.391 . S
C976 C977 1.400 . S
C977 C971 1.491 . S
C977 C976 1.400 . S
C977 C978 1.398 . S
C978 H966 0.950 . S
C978 C977 1.398 . S
C978 C979 1.391 . S
C979 H967 0.950 . S
C979 C975 1.393 . S
C979 C978 1.391 . S
H980 C988 0.950 . S
H981 C993 0.950 . S
H982 C990 0.950 . S
H983 C992 0.950 . S
H984 C994 0.950 . S
H985 C996 0.950 . S
H986 C998 0.950 . S
H987 C999 0.950 . S
C988 H980 0.950 . S
C988 C989 1.386 . S
C988 C990 1.391 . S
C989 C988 1.386 . S
C989 C993 1.393 . S
C990 H982 0.950 . S
C990 C988 1.391 . S
C990 C991 1.400 . S
C991 C990 1.400 . S
C991 C992 1.398 . S
C991 C997 1.491 . S
C992 H983 0.950 . S
C992 C991 1.398 . S
C992 C993 1.391 . S
C993 H981 0.950 . S
C993 C989 1.393 . S
C993 C992 1.391 . S
C994 H984 0.950 . S
C994 C995 1.386 . S
C994 C996 1.391 . S
C995 C994 1.386 . S
C995 C999 1.393 . S
C996 H985 0.950 . S
C996 C994 1.391 . S
C996 C997 1.400 . S
C997 C991 1.491 . S
C997 C996 1.400 . S
C997 C998 1.398 . S
C998 H986 0.950 . S
C998 C997 1.398 . S
C998 C999 1.391 . S
C999 H987 0.950 . S
C999 C995 1.393 . S
C999 C998 1.391 . S
H1000 C1008 0.950 . S
H1001 C1013 0.950 . S
H1002 C1010 0.950 . S
H1003 C1012 0.950 . S
H1004 C1014 0.950 . S
H1005 C1016 0.950 . S
H1006 C1018 0.950 . S
H1007 C1019 0.950 . S
C1008 H1000 0.950 . S
C1008 C1009 1.386 . S
C1008 C1010 1.391 . S
C1009 C1008 1.386 . S
C1009 C1013 1.393 . S
C1010 H1002 0.950 . S
C1010 C1008 1.391 . S
C1010 C1011 1.400 . S
C1011 C1010 1.400 . S
C1011 C1012 1.398 . S
C1011 C1017 1.491 . S
C1012 H1003 0.950 . S
C1012 C1011 1.398 . S
C1012 C1013 1.391 . S
C1013 H1001 0.950 . S
C1013 C1009 1.393 . S
C1013 C1012 1.391 . S
C1014 H1004 0.950 . S
C1014 C1015 1.386 . S
C1014 C1016 1.391 . S
C1015 C1014 1.386 . S
C1015 C1019 1.393 . S
C1016 H1005 0.950 . S
C1016 C1014 1.391 . S
C1016 C1017 1.400 . S
C1017 C1011 1.491 . S
C1017 C1016 1.400 . S
C1017 C1018 1.398 . S
C1018 H1006 0.950 . S
C1018 C1017 1.398 . S
C1018 C1019 1.391 . S
C1019 H1007 0.950 . S
C1019 C1015 1.393 . S
C1019 C1018 1.391 . S
H1020 C1028 0.950 . S
H1021 C1033 0.950 . S
H1022 C1030 0.950 . S
H1023 C1032 0.950 . S
H1024 C1034 0.950 . S
H1025 C1036 0.950 . S
H1026 C1038 0.950 . S
H1027 C1039 0.950 . S
C1028 H1020 0.950 . S
C1028 C1029 1.386 . S
C1028 C1030 1.391 . S
C1029 C1028 1.386 . S
C1029 C1033 1.393 . S
C1030 H1022 0.950 . S
C1030 C1028 1.391 . S
C1030 C1031 1.400 . S
C1031 C1030 1.400 . S
C1031 C1032 1.398 . S
C1031 C1037 1.491 . S
C1032 H1023 0.950 . S
C1032 C1031 1.398 . S
C1032 C1033 1.391 . S
C1033 H1021 0.950 . S
C1033 C1029 1.393 . S
C1033 C1032 1.391 . S
C1034 H1024 0.950 . S
C1034 C1035 1.386 . S
C1034 C1036 1.391 . S
C1035 C1034 1.386 . S
C1035 C1039 1.393 . S
C1036 H1025 0.950 . S
C1036 C1034 1.391 . S
C1036 C1037 1.400 . S
C1037 C1031 1.491 . S
C1037 C1036 1.400 . S
C1037 C1038 1.398 . S
C1038 H1026 0.950 . S
C1038 C1037 1.398 . S
C1038 C1039 1.391 . S
C1039 H1027 0.950 . S
C1039 C1035 1.393 . S
C1039 C1038 1.391 . S
H1040 C1048 0.950 . S
H1041 C1053 0.950 . S
H1042 C1050 0.950 . S
H1043 C1052 0.950 . S
H1044 C1054 0.950 . S
H1045 C1056 0.950 . S
H1046 C1058 0.950 . S
H1047 C1059 0.950 . S
C1048 H1040 0.950 . S
C1048 C1049 1.386 . S
C1048 C1050 1.391 . S
C1049 C1048 1.386 . S
C1049 C1053 1.393 . S
C1050 H1042 0.950 . S
C1050 C1048 1.391 . S
C1050 C1051 1.400 . S
C1051 C1050 1.400 . S
C1051 C1052 1.398 . S
C1051 C1057 1.491 . S
C1052 H1043 0.950 . S
C1052 C1051 1.398 . S
C1052 C1053 1.391 . S
C1053 H1041 0.950 . S
C1053 C1049 1.393 . S
C1053 C1052 1.391 . S
C1054 H1044 0.950 . S
C1054 C1055 1.386 . S
C1054 C1056 1.391 . S
C1055 C1054 1.386 . S
C1055 C1059 1.393 . S
C1056 H1045 0.950 . S
C1056 C1054 1.391 . S
C1056 C1057 1.400 . S
C1057 C1051 1.491 . S
C1057 C1056 1.400 . S
C1057 C1058 1.398 . S
C1058 H1046 0.950 . S
C1058 C1057 1.398 . S
C1058 C1059 1.391 . S
C1059 H1047 0.950 . S
C1059 C1055 1.393 . S
C1059 C1058 1.391 . S
H1060 C1068 0.950 . S
H1061 C1073 0.950 . S
H1062 C1070 0.950 . S
H1063 C1072 0.950 . S
H1064 C1074 0.950 . S
H1065 C1076 0.950 . S
H1066 C1078 0.950 . S
H1067 C1079 0.950 . S
C1068 H1060 0.950 . S
C1068 C1069 1.386 . S
C1068 C1070 1.391 . S
C1069 C1068 1.386 . S
C1069 C1073 1.393 . S
C1070 H1062 0.950 . S
C1070 C1068 1.391 . S
C1070 C1071 1.400 . S
C1071 C1070 1.400 . S
C1071 C1072 1.398 . S
C1071 C1077 1.491 . S
C1072 H1063 0.950 . S
C1072 C1071 1.398 . S
C1072 C1073 1.391 . S
C1073 H1061 0.950 . S
C1073 C1069 1.393 . S
C1073 C1072 1.391 . S
C1074 H1064 0.950 . S
C1074 C1075 1.386 . S
C1074 C1076 1.391 . S
C1075 C1074 1.386 . S
C1075 C1079 1.393 . S
C1076 H1065 0.950 . S
C1076 C1074 1.391 . S
C1076 C1077 1.400 . S
C1077 C1071 1.491 . S
C1077 C1076 1.400 . S
C1077 C1078 1.398 . S
C1078 H1066 0.950 . S
C1078 C1077 1.398 . S
C1078 C1079 1.391 . S
C1079 H1067 0.950 . S
C1079 C1075 1.393 . S
C1079 C1078 1.391 . S
H1080 C1088 0.950 . S
H1081 C1093 0.950 . S
H1082 C1090 0.950 . S
H1083 C1092 0.950 . S
H1084 C1094 0.950 . S
H1085 C1096 0.950 . S
H1086 C1098 0.950 . S
H1087 C1099 0.950 . S
C1088 H1080 0.950 . S
C1088 C1089 1.386 . S
C1088 C1090 1.391 . S
C1089 C1088 1.386 . S
C1089 C1093 1.393 . S
C1090 H1082 0.950 . S
C1090 C1088 1.391 . S
C1090 C1091 1.400 . S
C1091 C1090 1.400 . S
C1091 C1092 1.398 . S
C1091 C1097 1.491 . S
C1092 H1083 0.950 . S
C1092 C1091 1.398 . S
C1092 C1093 1.391 . S
C1093 H1081 0.950 . S
C1093 C1089 1.393 . S
C1093 C1092 1.391 . S
C1094 H1084 0.950 . S
C1094 C1095 1.386 . S
C1094 C1096 1.391 . S
C1095 C1094 1.386 . S
C1095 C1099 1.393 . S
C1096 H1085 0.950 . S
C1096 C1094 1.391 . S
C1096 C1097 1.400 . S
C1097 C1091 1.491 . S
C1097 C1096 1.400 . S
C1097 C1098 1.398 . S
C1098 H1086 0.950 . S
C1098 C1097 1.398 . S
C1098 C1099 1.391 . S
C1099 H1087 0.950 . S
C1099 C1095 1.393 . S
C1099 C1098 1.391 . S
H1100 C1108 0.950 . S
H1101 C1113 0.950 . S
H1102 C1110 0.950 . S
H1103 C1112 0.950 . S
H1104 C1114 0.950 . S
H1105 C1116 0.950 . S
H1106 C1118 0.950 . S
H1107 C1119 0.950 . S
C1108 H1100 0.950 . S
C1108 C1109 1.386 . S
C1108 C1110 1.391 . S
C1109 C1108 1.386 . S
C1109 C1113 1.393 . S
C1110 H1102 0.950 . S
C1110 C1108 1.391 . S
C1110 C1111 1.400 . S
C1111 C1110 1.400 . S
C1111 C1112 1.398 . S
C1111 C1117 1.491 . S
C1112 H1103 0.950 . S
C1112 C1111 1.398 . S
C1112 C1113 1.391 . S
C1113 H1101 0.950 . S
C1113 C1109 1.393 . S
C1113 C1112 1.391 . S
C1114 H1104 0.950 . S
C1114 C1115 1.386 . S
C1114 C1116 1.391 . S
C1115 C1114 1.386 . S
C1115 C1119 1.393 . S
C1116 H1105 0.950 . S
C1116 C1114 1.391 . S
C1116 C1117 1.400 . S
C1117 C1111 1.491 . S
C1117 C1116 1.400 . S
C1117 C1118 1.398 . S
C1118 H1106 0.950 . S
C1118 C1117 1.398 . S
C1118 C1119 1.391 . S
C1119 H1107 0.950 . S
C1119 C1115 1.393 . S
C1119 C1118 1.391 . S
H1120 C1128 0.950 . S
H1121 C1133 0.950 . S
H1122 C1130 0.950 . S
H1123 C1132 0.950 . S
H1124 C1134 0.950 . S
H1125 C1136 0.950 . S
H1126 C1138 0.950 . S
H1127 C1139 0.950 . S
C1128 H1120 0.950 . S
C1128 C1129 1.386 . S
C1128 C1130 1.391 . S
C1129 C1128 1.386 . S
C1129 C1133 1.393 . S
C1130 H1122 0.950 . S
C1130 C1128 1.391 . S
C1130 C1131 1.400 . S
C1131 C1130 1.400 . S
C1131 C1132 1.398 . S
C1131 C1137 1.491 . S
C1132 H1123 0.950 . S
C1132 C1131 1.398 . S
C1132 C1133 1.391 . S
C1133 H1121 0.950 . S
C1133 C1129 1.393 . S
C1133 C1132 1.391 . S
C1134 H1124 0.950 . S
C1134 C1135 1.386 . S
C1134 C1136 1.391 . S
C1135 C1134 1.386 . S
C1135 C1139 1.393 . S
C1136 H1125 0.950 . S
C1136 C1134 1.391 . S
C1136 C1137 1.400 . S
C1137 C1131 1.491 . S
C1137 C1136 1.400 . S
C1137 C1138 1.398 . S
C1138 H1126 0.950 . S
C1138 C1137 1.398 . S
C1138 C1139 1.391 . S
C1139 H1127 0.950 . S
C1139 C1135 1.393 . S
C1139 C1138 1.391 . S
H1140 C1148 0.950 . S
H1141 C1153 0.950 . S
H1142 C1150 0.950 . S
H1143 C1152 0.950 . S
H1144 C1154 0.950 . S
H1145 C1156 0.950 . S
H1146 C1158 0.950 . S
H1147 C1159 0.950 . S
C1148 H1140 0.950 . S
C1148 C1149 1.386 . S
C1148 C1150 1.391 . S
C1149 C1148 1.386 . S
C1149 C1153 1.393 . S
C1150 H1142 0.950 . S
C1150 C1148 1.391 . S
C1150 C1151 1.400 . S
C1151 C1150 1.400 . S
C1151 C1152 1.398 . S
C1151 C1157 1.491 . S
C1152 H1143 0.950 . S
C1152 C1151 1.398 . S
C1152 C1153 1.391 . S
C1153 H1141 0.950 . S
C1153 C1149 1.393 . S
C1153 C1152 1.391 . S
C1154 H1144 0.950 . S
C1154 C1155 1.386 . S
C1154 C1156 1.391 . S
C1155 C1154 1.386 . S
C1155 C1159 1.393 . S
C1156 H1145 0.950 . S
C1156 C1154 1.391 . S
C1156 C1157 1.400 . S
C1157 C1151 1.491 . S
C1157 C1156 1.400 . S
C1157 C1158 1.398 . S
C1158 H1146 0.950 . S
C1158 C1157 1.398 . S
C1158 C1159 1.391 . S
C1159 H1147 0.950 . S
C1159 C1155 1.393 . S
C1159 C1158 1.391 . S
H1160 C1168 0.950 . S
H1161 C1173 0.950 . S
H1162 C1170 0.950 . S
H1163 C1172 0.950 . S
H1164 C1174 0.950 . S
H1165 C1176 0.950 . S
H1166 C1178 0.950 . S
H1167 C1179 0.950 . S
C1168 H1160 0.950 . S
C1168 C1169 1.386 . S
C1168 C1170 1.391 . S
C1169 C1168 1.386 . S
C1169 C1173 1.393 . S
C1170 H1162 0.950 . S
C1170 C1168 1.391 . S
C1170 C1171 1.400 . S
C1171 C1170 1.400 . S
C1171 C1172 1.398 . S
C1171 C1177 1.491 . S
C1172 H1163 0.950 . S
C1172 C1171 1.398 . S
C1172 C1173 1.391 . S
C1173 H1161 0.950 . S
C1173 C1169 1.393 . S
C1173 C1172 1.391 . S
C1174 H1164 0.950 . S
C1174 C1175 1.386 . S
C1174 C1176 1.391 . S
C1175 C1174 1.386 . S
C1175 C1179 1.393 . S
C1176 H1165 0.950 . S
C1176 C1174 1.391 . S
C1176 C1177 1.400 . S
C1177 C1171 1.491 . S
C1177 C1176 1.400 . S
C1177 C1178 1.398 . S
C1178 H1166 0.950 . S
C1178 C1177 1.398 . S
C1178 C1179 1.391 . S
C1179 H1167 0.950 . S
C1179 C1175 1.393 . S
C1179 C1178 1.391 . S
H1180 C1188 0.950 . S
H1181 C1193 0.950 . S
H1182 C1190 0.950 . S
H1183 C1192 0.950 . S
H1184 C1194 0.950 . S
H1185 C1196 0.950 . S
H1186 C1198 0.950 . S
H1187 C1199 0.950 . S
C1188 H1180 0.950 . S
C1188 C1189 1.386 . S
C1188 C1190 1.391 . S
C1189 C1188 1.386 . S
C1189 C1193 1.393 . S
C1190 H1182 0.950 . S
C1190 C1188 1.391 . S
C1190 C1191 1.400 . S
C1191 C1190 1.400 . S
C1191 C1192 1.398 . S
C1191 C1197 1.491 . S
C1192 H1183 0.950 . S
C1192 C1191 1.398 . S
C1192 C1193 1.391 . S
C1193 H1181 0.950 . S
C1193 C1189 1.393 . S
C1193 C1192 1.391 . S
C1194 H1184 0.950 . S
C1194 C1195 1.386 . S
C1194 C1196 1.391 . S
C1195 C1194 1.386 . S
C1195 C1199 1.393 . S
C1196 H1185 0.950 . S
C1196 C1194 1.391 . S
C1196 C1197 1.400 . S
C1197 C1191 1.491 . S
C1197 C1196 1.400 . S
C1197 C1198 1.398 . S
C1198 H1186 0.950 . S
C1198 C1197 1.398 . S
C1198 C1199 1.391 . S
C1199 H1187 0.950 . S
C1199 C1195 1.393 . S
C1199 C1198 1.391 . S
C489 C231 1.915 . S
C495 C29 1.912 . S
C509 C69 2.028 . S
C515 C31 2.031 . S
C529 C109 2.066 . S
C535 C71 2.075 . S
C549 C111 1.913 . S
C555 C149 1.910 . S
C569 C151 2.037 . S
C575 C189 2.032 . S
C589 C229 2.063 . S
C595 C191 2.071 . S
C609 C311 1.929 . S
C615 C269 1.927 . S
C629 C309 2.068 . S
C635 C351 2.077 . S
C649 C391 2.037 . S
C655 C349 2.031 . S
C669 C431 1.913 . S
C675 C389 1.911 . S
C689 C471 2.069 . S
C695 C429 2.064 . S
C709 C271 2.045 . S
C715 C469 2.039 . S
C729 C442 3.274 . S
C735 C12 3.330 . S
C749 C52 2.590 . S
C755 C242 2.546 . S
C769 C282 2.890 . S
C775 C92 2.935 . S
C789 C322 3.274 . S
C795 C132 3.329 . S
C809 C362 2.563 . S
C815 C172 2.585 1_556 S
C829 C212 2.947 . S
C835 C402 2.898 . S
C849 C252 3.316 . S
C855 C42 3.278 . S
C869 C292 2.946 . S
C875 C82 2.902 . S
C889 C122 2.550 . S
C895 C332 2.589 . S
C909 C162 3.279 . S
C915 C372 3.330 . S
C929 C412 2.933 . S
C935 C202 2.893 . S
C949 C452 2.590 . S
C955 C2 2.546 . S
C969 C257 2.911 . S
C975 C17 2.913 . S
C989 C57 1.882 . S
C995 C297 1.895 . S
C1009 C337 1.894 . S
C1015 C97 1.908 . S
C1029 C137 2.913 . S
C1035 C377 2.915 . S
C1049 C417 1.911 . S
C1055 C177 1.903 . S
C1069 C457 1.888 . S
C1075 C217 1.899 . S
C1089 C248 0.956 . S
C1095 C8 0.969 . S
C1109 C288 0.614 . S
C1115 C48 0.643 . S
C1129 C328 0.572 . S
C1135 C88 0.554 . S
C1149 C128 0.949 . S
C1155 C368 0.941 . S
C1169 C408 0.635 . S
C1175 C168 0.658 . S
C1189 C448 0.570 . S
C1195 C208 0.554 . S
