# Generated by pormake.
# Topology lcy-e, (6)-cn, num edge types: 1
# Building blocks:
#     Node 0, Type 0, BuildingBlock: PAMTUU_clean_sbu_0, # of connection points: 6
#     Node 1, Type 0, BuildingBlock: PAMTUU_clean_sbu_0, # of connection points: 6
#     Node 2, Type 0, BuildingBlock: PAMTUU_clean_sbu_0, # of connection points: 6
#     Node 3, Type 0, BuildingBlock: PAMTUU_clean_sbu_0, # of connection points: 6
#     Node 4, Type 0, BuildingBlock: PAMTUU_clean_sbu_0, # of connection points: 6
#     Node 5, Type 0, BuildingBlock: PAMTUU_clean_sbu_0, # of connection points: 6
#     Node 6, Type 0, BuildingBlock: PAMTUU_clean_sbu_0, # of connection points: 6
#     Node 7, Type 0, BuildingBlock: PAMTUU_clean_sbu_0, # of connection points: 6
#     Node 8, Type 0, BuildingBlock: PAMTUU_clean_sbu_0, # of connection points: 6
#     Node 9, Type 0, BuildingBlock: PAMTUU_clean_sbu_0, # of connection points: 6
#     Node 10, Type 0, BuildingBlock: PAMTUU_clean_sbu_0, # of connection points: 6
#     Node 11, Type 0, BuildingBlock: PAMTUU_clean_sbu_0, # of connection points: 6
#     Edge 12, Type (0, 0), BuildingBlock: UVAHIK_clean_linker_0, # of connection points: 2
#     Edge 13, Type (0, 0), BuildingBlock: UVAHIK_clean_linker_0, # of connection points: 2
#     Edge 14, Type (0, 0), BuildingBlock: UVAHIK_clean_linker_0, # of connection points: 2
#     Edge 15, Type (0, 0), BuildingBlock: UVAHIK_clean_linker_0, # of connection points: 2
#     Edge 16, Type (0, 0), BuildingBlock: UVAHIK_clean_linker_0, # of connection points: 2
#     Edge 17, Type (0, 0), BuildingBlock: UVAHIK_clean_linker_0, # of connection points: 2
#     Edge 18, Type (0, 0), BuildingBlock: UVAHIK_clean_linker_0, # of connection points: 2
#     Edge 19, Type (0, 0), BuildingBlock: UVAHIK_clean_linker_0, # of connection points: 2
#     Edge 20, Type (0, 0), BuildingBlock: UVAHIK_clean_linker_0, # of connection points: 2
#     Edge 21, Type (0, 0), BuildingBlock: UVAHIK_clean_linker_0, # of connection points: 2
#     Edge 22, Type (0, 0), BuildingBlock: UVAHIK_clean_linker_0, # of connection points: 2
#     Edge 23, Type (0, 0), BuildingBlock: UVAHIK_clean_linker_0, # of connection points: 2
#     Edge 24, Type (0, 0), BuildingBlock: UVAHIK_clean_linker_0, # of connection points: 2
#     Edge 25, Type (0, 0), BuildingBlock: UVAHIK_clean_linker_0, # of connection points: 2
#     Edge 26, Type (0, 0), BuildingBlock: UVAHIK_clean_linker_0, # of connection points: 2
#     Edge 27, Type (0, 0), BuildingBlock: UVAHIK_clean_linker_0, # of connection points: 2
#     Edge 28, Type (0, 0), BuildingBlock: UVAHIK_clean_linker_0, # of connection points: 2
#     Edge 29, Type (0, 0), BuildingBlock: UVAHIK_clean_linker_0, # of connection points: 2
#     Edge 30, Type (0, 0), BuildingBlock: UVAHIK_clean_linker_0, # of connection points: 2
#     Edge 31, Type (0, 0), BuildingBlock: UVAHIK_clean_linker_0, # of connection points: 2
#     Edge 32, Type (0, 0), BuildingBlock: UVAHIK_clean_linker_0, # of connection points: 2
#     Edge 33, Type (0, 0), BuildingBlock: UVAHIK_clean_linker_0, # of connection points: 2
#     Edge 34, Type (0, 0), BuildingBlock: UVAHIK_clean_linker_0, # of connection points: 2
#     Edge 35, Type (0, 0), BuildingBlock: UVAHIK_clean_linker_0, # of connection points: 2
#     Edge 36, Type (0, 0), BuildingBlock: UVAHIK_clean_linker_0, # of connection points: 2
#     Edge 37, Type (0, 0), BuildingBlock: UVAHIK_clean_linker_0, # of connection points: 2
#     Edge 38, Type (0, 0), BuildingBlock: UVAHIK_clean_linker_0, # of connection points: 2
#     Edge 39, Type (0, 0), BuildingBlock: UVAHIK_clean_linker_0, # of connection points: 2
#     Edge 40, Type (0, 0), BuildingBlock: UVAHIK_clean_linker_0, # of connection points: 2
#     Edge 41, Type (0, 0), BuildingBlock: UVAHIK_clean_linker_0, # of connection points: 2
#     Edge 42, Type (0, 0), BuildingBlock: UVAHIK_clean_linker_0, # of connection points: 2
#     Edge 43, Type (0, 0), BuildingBlock: UVAHIK_clean_linker_0, # of connection points: 2
#     Edge 44, Type (0, 0), BuildingBlock: UVAHIK_clean_linker_0, # of connection points: 2
#     Edge 45, Type (0, 0), BuildingBlock: UVAHIK_clean_linker_0, # of connection points: 2
#     Edge 46, Type (0, 0), BuildingBlock: UVAHIK_clean_linker_0, # of connection points: 2
#     Edge 47, Type (0, 0), BuildingBlock: UVAHIK_clean_linker_0, # of connection points: 2
# Relax obj value: 0.153
# Max RMSD: 0.289
# Mean RMSD: 0.277
data_MOF--net-lcy-e--node1-PAMTUU_clean_sbu_0--edge1-UVAHIK_clean_linker_0
_symmetry_space_group_name_H-M    P1
_symmetry_Int_Tables_number       1
_symmetry_cell_setting            triclinic
loop_
_symmetry_equiv_pos_as_xyz
'x, y, z'
_cell_length_a     55.0361
_cell_length_b     54.925471
_cell_length_c     54.977468
_cell_angle_alpha  90.079282
_cell_angle_beta   89.979731
_cell_angle_gamma 89.564696
loop_
_atom_site_label
_atom_site_type_symbol
_atom_site_fract_x
_atom_site_fract_y
_atom_site_fract_z
_atom_type_partial_charge
Tb0 Tb 0.09065 0.2822 0.4648 0.0
Tb1 Tb 0.11383 0.24418 0.50532 0.0
C2 C 0.06546 0.27478 0.51627 0.0
C3 C 0.08768 0.32069 0.4091 0.0
C4 C 0.10949 0.34177 0.36769 0.0
C5 C 0.08676 0.35013 0.37618 0.0
C6 C 0.07599 0.33969 0.39668 0.0
C7 C 0.11021 0.31203 0.40061 0.0
C8 C 0.121 0.32243 0.38005 0.0
C9 C 0.07657 0.31071 0.4313 0.0
O10 O 0.10562 0.30334 0.49416 0.0
O11 O 0.13595 0.27736 0.50607 0.0
O12 O 0.12807 0.23545 0.46964 0.0
O13 O 0.12775 0.27349 0.45359 0.0
O14 O 0.12539 0.23511 0.5407 0.0
O15 O 0.13078 0.21025 0.51077 0.0
O16 O 0.07958 0.22809 0.49441 0.0
O17 O 0.07672 0.24602 0.45687 0.0
O18 O 0.0631 0.28239 0.49357 0.0
O19 O 0.0842 0.26205 0.52416 0.0
C20 C 0.12668 0.29952 0.50456 0.0
O21 O 0.07258 0.28739 0.43145 0.0
O22 O 0.08607 0.31788 0.4517 0.0
C23 C 0.13685 0.25141 0.45446 0.0
C24 C 0.12155 0.19259 0.54855 0.0
C25 C 0.10186 0.15217 0.57331 0.0
C26 C 0.12252 0.14943 0.55849 0.0
C27 C 0.1323 0.16945 0.54634 0.0
C28 C 0.1009 0.19545 0.56339 0.0
C29 C 0.09126 0.17545 0.57578 0.0
C30 C 0.13151 0.21302 0.53427 0.0
C31 C 0.06996 0.22939 0.47261 0.0
H32 H 0.07723 0.36474 0.36691 0.0
H33 H 0.05859 0.3466 0.40296 0.0
H34 H 0.11958 0.29742 0.41003 0.0
H35 H 0.1386 0.31572 0.37418 0.0
H36 H 0.13125 0.13181 0.55643 0.0
H37 H 0.14818 0.16679 0.53495 0.0
H38 H 0.09203 0.21303 0.56522 0.0
H39 H 0.07521 0.17809 0.58691 0.0
Tb40 Tb 0.03933 0.92585 0.77041 0.0
Tb41 Tb 0.99113 0.90425 0.73187 0.0
C42 C 0.99195 0.9443 0.77542 0.0
C43 C 0.09907 0.9253 0.80327 0.0
C44 C 0.13902 0.90356 0.82702 0.0
C45 C 0.13843 0.92879 0.82264 0.0
C46 C 0.11862 0.93953 0.81091 0.0
C47 C 0.09966 0.90005 0.80707 0.0
C48 C 0.11953 0.88924 0.81886 0.0
C49 C 0.07803 0.93734 0.79209 0.0
O50 O 0.0212 0.89595 0.78926 0.0
O51 O 0.98733 0.88407 0.76597 0.0
O52 O 0.02039 0.88059 0.72153 0.0
O53 O 0.05011 0.89246 0.74997 0.0
O54 O 0.95832 0.92123 0.72256 0.0
O55 O 0.96586 0.88356 0.7122 0.0
O56 O 0.01255 0.929 0.70957 0.0
O57 O 0.03407 0.95039 0.7394 0.0
O58 O 0.01137 0.95037 0.78683 0.0
O59 O 0.99814 0.92847 0.75948 0.0
C60 C 1.00112 0.88314 0.78583 0.0
O61 O 0.07615 0.93548 0.76851 0.0
O62 O 0.05724 0.93419 0.80296 0.0
C63 C 0.04189 0.87832 0.73201 0.0
C64 C 0.94165 0.90728 0.68539 0.0
C65 C 0.92062 0.91774 0.63962 0.0
C66 C 0.91302 0.8975 0.65328 0.0
C67 C 0.92337 0.89241 0.67594 0.0
C68 C 0.94989 0.92708 0.67157 0.0
C69 C 0.93943 0.9323 0.64893 0.0
C70 C 0.95113 0.90231 0.70999 0.0
C71 C 0.02582 0.94764 0.71694 0.0
H72 H 0.15333 0.94027 0.82827 0.0
H73 H 0.11845 0.95904 0.808 0.0
H74 H 0.08465 0.88881 0.80123 0.0
H75 H 0.11935 0.8698 0.8221 0.0
H76 H 0.89898 0.88557 0.6465 0.0
H77 H 0.91687 0.87696 0.68624 0.0
H78 H 0.96409 0.93878 0.67844 0.0
H79 H 0.94563 0.94812 0.63906 0.0
Tb80 Tb 0.38518 0.7712 0.96901 0.0
Tb81 Tb 0.36281 0.80333 0.01475 0.0
C82 C 0.4018 0.76318 0.02195 0.0
C83 C 0.389 0.73316 0.91366 0.0
C84 C 0.36576 0.70826 0.87533 0.0
C85 C 0.39075 0.71351 0.87415 0.0
C86 C 0.40223 0.72584 0.89315 0.0
C87 C 0.36414 0.72784 0.91513 0.0
C88 C 0.35262 0.71546 0.89615 0.0
C89 C 0.40087 0.74763 0.93269 0.0
O90 O 0.35982 0.74707 0.98654 0.0
O91 O 0.33764 0.77261 0.01192 0.0
O92 O 0.34945 0.8186 0.98082 0.0
O93 O 0.34911 0.78344 0.9587 0.0
O94 O 0.36674 0.81463 0.0509 0.0
O95 O 0.33715 0.82828 0.02902 0.0
O96 O 0.39794 0.81907 0.00568 0.0
O97 O 0.39917 0.80774 0.9657 0.0
O98 O 0.40999 0.76725 0.99987 0.0
O99 O 0.38041 0.77113 0.02882 0.0
C100 C 0.34159 0.75118 1.00152 0.0
O101 O 0.3957 0.7708 0.93234 0.0
O102 O 0.40012 0.73886 0.9547 0.0
C103 C 0.34081 0.80547 0.96289 0.0
C104 C 0.35442 0.85501 0.05811 0.0
C105 C 0.36733 0.90033 0.07873 0.0
C106 C 0.34572 0.88861 0.08564 0.0
C107 C 0.33939 0.86616 0.07548 0.0
C108 C 0.37556 0.86697 0.05046 0.0
C109 C 0.38196 0.8894 0.06068 0.0
C110 C 0.34885 0.83022 0.04955 0.0
C111 C 0.40651 0.8216 0.98357 0.0
H112 H 0.40136 0.70861 0.85826 0.0
H113 H 0.42138 0.73005 0.89162 0.0
H114 H 0.3536 0.73352 0.93082 0.0
H115 H 0.33345 0.71149 0.8978 0.0
H116 H 0.33376 0.89667 0.09912 0.0
H117 H 0.323 0.85724 0.08159 0.0
H118 H 0.38747 0.85864 0.03709 0.0
H119 H 0.39882 0.89772 0.05504 0.0
Tb120 Tb 0.4431 0.13541 0.26638 0.0
Tb121 Tb 0.48415 0.15186 0.22643 0.0
C122 C 0.49496 0.11013 0.26238 0.0
C123 C 0.39018 0.13734 0.30858 0.0
C124 C 0.34995 0.16047 0.33099 0.0
C125 C 0.3621 0.14096 0.34247 0.0
C126 C 0.38195 0.12949 0.33133 0.0
C127 C 0.37859 0.15718 0.29725 0.0
C128 C 0.35861 0.1686 0.30832 0.0
C129 C 0.4106 0.12444 0.29684 0.0
O130 O 0.45752 0.16976 0.27898 0.0
O131 O 0.49531 0.16574 0.26205 0.0
O132 O 0.45891 0.18203 0.2301 0.0
O133 O 0.42528 0.16057 0.24117 0.0
O134 O 0.52068 0.15628 0.21643 0.0
O135 O 0.49162 0.16786 0.19264 0.0
O136 O 0.45913 0.12763 0.20738 0.0
O137 O 0.44546 0.10599 0.24021 0.0
O138 O 0.47767 0.11828 0.27698 0.0
O139 O 0.49577 0.11654 0.23943 0.0
C140 C 0.48082 0.17448 0.27903 0.0
O141 O 0.40871 0.12087 0.27347 0.0
O142 O 0.43231 0.13154 0.3029 0.0
C143 C 0.43526 0.18011 0.23182 0.0
C144 C 0.52776 0.15426 0.17419 0.0
C145 C 0.55236 0.13488 0.13347 0.0
C146 C 0.55394 0.1598 0.13921 0.0
C147 C 0.54178 0.16935 0.15938 0.0
C148 C 0.52587 0.12941 0.16857 0.0
C149 C 0.53809 0.11978 0.14834 0.0
C150 C 0.51501 0.16496 0.1951 0.0
C151 C 0.44842 0.1084 0.21665 0.0
H152 H 0.35631 0.13454 0.36014 0.0
H153 H 0.3908 0.11436 0.34044 0.0
H154 H 0.38478 0.16363 0.27972 0.0
H155 H 0.34963 0.18341 0.29885 0.0
H156 H 0.56437 0.17203 0.12791 0.0
H157 H 0.54325 0.18861 0.16338 0.0
H158 H 0.51499 0.11753 0.17983 0.0
H159 H 0.53664 0.1005 0.14453 0.0
Tb160 Tb 0.59226 0.26196 0.56027 0.0
Tb161 Tb 0.60838 0.30165 0.51879 0.0
C162 C 0.56853 0.26409 0.50797 0.0
C163 C 0.59321 0.22047 0.61406 0.0
C164 C 0.61483 0.19816 0.65507 0.0
C165 C 0.59877 0.18514 0.64005 0.0
C166 C 0.58802 0.19623 0.61982 0.0
C167 C 0.60968 0.23342 0.62858 0.0
C168 C 0.6203 0.2224 0.64895 0.0
C169 C 0.58098 0.23195 0.59311 0.0
O170 O 0.62699 0.24954 0.54644 0.0
O171 O 0.62452 0.26651 0.50845 0.0
O172 O 0.63833 0.29877 0.54412 0.0
O173 O 0.61661 0.28797 0.57784 0.0
O174 O 0.61273 0.31174 0.48221 0.0
O175 O 0.62315 0.33597 0.5113 0.0
O176 O 0.58354 0.32024 0.54386 0.0
O177 O 0.56205 0.28712 0.55653 0.0
O178 O 0.57712 0.25 0.5254 0.0
O179 O 0.57385 0.28728 0.50693 0.0
C180 C 0.63279 0.24954 0.5233 0.0
O181 O 0.57699 0.25534 0.59455 0.0
O182 O 0.58881 0.22556 0.57164 0.0
C183 C 0.63618 0.29722 0.5678 0.0
C184 C 0.60782 0.35441 0.47553 0.0
C185 C 0.58678 0.39468 0.4512 0.0
C186 C 0.60484 0.39814 0.46891 0.0
C187 C 0.61532 0.37822 0.48083 0.0
C188 C 0.58957 0.35091 0.45799 0.0
C189 C 0.5792 0.37085 0.44592 0.0
C190 C 0.61979 0.33364 0.48794 0.0
C191 C 0.56402 0.31071 0.55372 0.0
H192 H 0.5945 0.16632 0.64385 0.0
H193 H 0.57552 0.18588 0.60872 0.0
H194 H 0.6141 0.25214 0.62439 0.0
H195 H 0.63238 0.23308 0.66017 0.0
H196 H 0.61131 0.41623 0.47314 0.0
H197 H 0.62951 0.38142 0.49409 0.0
H198 H 0.58336 0.3328 0.45345 0.0
H199 H 0.56517 0.36763 0.43251 0.0
Tb200 Tb 0.98235 0.39793 0.78576 0.0
Tb201 Tb 0.93791 0.41947 0.75103 0.0
C202 C 0.96888 0.37272 0.73512 0.0
C203 C 0.02722 0.39144 0.83712 0.0
C204 C 0.04815 0.40537 0.88208 0.0
C205 C 0.06282 0.39765 0.86249 0.0
C206 C 0.05246 0.39071 0.84037 0.0
C207 C 0.01237 0.39925 0.85643 0.0
C208 C 0.02273 0.40607 0.87874 0.0
C209 C 0.01728 0.38518 0.81299 0.0
O210 O 0.99677 0.41218 0.75232 0.0
O211 O 0.96967 0.44312 0.74692 0.0
O212 O 0.93393 0.43561 0.78665 0.0
O213 O 0.97336 0.43421 0.79954 0.0
O214 O 0.92426 0.4319 0.71747 0.0
O215 O 0.90198 0.43245 0.74977 0.0
O216 O 0.92613 0.38472 0.76544 0.0
O217 O 0.94809 0.38544 0.80079 0.0
O218 O 0.97992 0.37089 0.75644 0.0
O219 O 0.95399 0.39068 0.72942 0.0
C220 C 0.99169 0.434 0.74433 0.0
O221 O 0.99654 0.37382 0.81207 0.0
O222 O 0.01852 0.40234 0.79676 0.0
C223 C 0.95149 0.4439 0.80028 0.0
C224 C 0.88215 0.42347 0.71315 0.0
C225 C 0.84185 0.40024 0.69164 0.0
C226 C 0.83913 0.423 0.70311 0.0
C227 C 0.8591 0.43451 0.71369 0.0
C228 C 0.88503 0.40079 0.70161 0.0
C229 C 0.86508 0.38937 0.69079 0.0
C230 C 0.90241 0.43506 0.72624 0.0
C231 C 0.93008 0.37695 0.78768 0.0
H232 H 0.08243 0.39738 0.86403 0.0
H233 H 0.06427 0.38508 0.82558 0.0
H234 H 0.99282 0.40021 0.85423 0.0
H235 H 0.01081 0.4117 0.8934 0.0
H236 H 0.82154 0.43196 0.70384 0.0
H237 H 0.85647 0.45191 0.72267 0.0
H238 H 0.90258 0.39173 0.70129 0.0
H239 H 0.86771 0.37173 0.68231 0.0
Tb240 Tb 0.84712 0.73682 0.00984 0.0
Tb241 Tb 0.87003 0.77541 0.0499 0.0
C242 C 0.82407 0.78898 0.01763 0.0
C243 C 0.84435 0.68692 0.96469 0.0
C244 C 0.86793 0.65085 0.93652 0.0
C245 C 0.84259 0.65031 0.94004 0.0
C246 C 0.83094 0.66819 0.95401 0.0
C247 C 0.86958 0.68776 0.9611 0.0
C248 C 0.88128 0.66988 0.94712 0.0
C249 C 0.83215 0.70449 0.98081 0.0
O250 O 0.86754 0.76303 0.98911 0.0
O251 O 0.8939 0.77794 0.01799 0.0
O252 O 0.88615 0.73971 0.05545 0.0
O253 O 0.88432 0.7251 0.01672 0.0
O254 O 0.88086 0.81036 0.06123 0.0
O255 O 0.88531 0.77924 0.08459 0.0
O256 O 0.83508 0.76433 0.06456 0.0
O257 O 0.83345 0.72735 0.04564 0.0
O258 O 0.82009 0.7661 0.01158 0.0
O259 O 0.84356 0.79604 0.02939 0.0
C260 C 0.88723 0.77498 0.9951 0.0
O261 O 0.83576 0.70094 0.00392 0.0
O262 O 0.83416 0.72739 0.9751 0.0
C263 C 0.89448 0.7254 0.03825 0.0
C264 C 0.87502 0.81622 0.10341 0.0
C265 C 0.85453 0.83981 0.14429 0.0
C266 C 0.87859 0.84458 0.13713 0.0
C267 C 0.88875 0.83282 0.1169 0.0
C268 C 0.85088 0.81171 0.11019 0.0
C269 C 0.84074 0.82333 0.1305 0.0
C270 C 0.88628 0.80286 0.08305 0.0
C271 C 0.82597 0.74243 0.06259 0.0
H272 H 0.8318 0.63574 0.93249 0.0
H273 H 0.81149 0.66714 0.95684 0.0
H274 H 0.88024 0.70206 0.96936 0.0
H275 H 0.90075 0.671 0.94456 0.0
H276 H 0.88975 0.85701 0.14749 0.0
H277 H 0.90745 0.83644 0.11199 0.0
H278 H 0.83996 0.799 0.09994 0.0
H279 H 0.82208 0.8195 0.13533 0.0
Tb280 Tb 0.52592 0.63033 0.25975 0.0
Tb281 Tb 0.48258 0.64776 0.29733 0.0
C282 C 0.47295 0.60853 0.25842 0.0
C283 C 0.58123 0.63037 0.22057 0.0
C284 C 0.62236 0.65296 0.20006 0.0
C285 C 0.62187 0.62758 0.20351 0.0
C286 C 0.60149 0.61642 0.21363 0.0
C287 C 0.58161 0.65573 0.21735 0.0
C288 C 0.60196 0.66692 0.20707 0.0
C289 C 0.56007 0.61816 0.23137 0.0
O290 O 0.51436 0.66603 0.2479 0.0
O291 O 0.47521 0.6644 0.26189 0.0
O292 O 0.50905 0.67671 0.29721 0.0
O293 O 0.54267 0.65417 0.28678 0.0
O294 O 0.44537 0.65165 0.30556 0.0
O295 O 0.47295 0.66382 0.33059 0.0
O296 O 0.50599 0.62237 0.31706 0.0
O297 O 0.52003 0.60031 0.28454 0.0
O298 O 0.49131 0.61673 0.24548 0.0
O299 O 0.4709 0.61356 0.28165 0.0
C300 C 0.49146 0.6725 0.24633 0.0
O301 O 0.56075 0.6151 0.25487 0.0
O302 O 0.53872 0.62556 0.22408 0.0
C303 C 0.53271 0.67377 0.29647 0.0
C304 C 0.43691 0.64851 0.34755 0.0
C305 C 0.41299 0.62884 0.38841 0.0
C306 C 0.40287 0.64866 0.37561 0.0
C307 C 0.41476 0.65841 0.35543 0.0
C308 C 0.44681 0.62829 0.35974 0.0
C309 C 0.43496 0.61855 0.38002 0.0
C310 C 0.44983 0.66009 0.32726 0.0
C311 C 0.51579 0.60246 0.30793 0.0
H312 H 0.63714 0.61628 0.19804 0.0
H313 H 0.60153 0.59684 0.216 0.0
H314 H 0.5662 0.66686 0.22281 0.0
H315 H 0.60186 0.68651 0.20487 0.0
H316 H 0.38574 0.65672 0.38122 0.0
H317 H 0.40679 0.67393 0.34615 0.0
H318 H 0.46391 0.62034 0.35386 0.0
H319 H 0.44336 0.60342 0.38951 0.0
Tb320 Tb 0.23717 0.47993 0.11539 0.0
Tb321 Tb 0.19738 0.52119 0.13336 0.0
C322 C 0.23179 0.53184 0.09066 0.0
C323 C 0.27969 0.42692 0.11537 0.0
C324 C 0.30296 0.38705 0.13813 0.0
C325 C 0.31067 0.39522 0.11515 0.0
C326 C 0.29911 0.41496 0.10388 0.0
C327 C 0.27198 0.41902 0.13837 0.0
C328 C 0.28347 0.3992 0.14963 0.0
C329 C 0.26742 0.4473 0.10301 0.0
O330 O 0.25088 0.49458 0.14933 0.0
O331 O 0.23322 0.53237 0.14655 0.0
O332 O 0.2017 0.49597 0.16326 0.0
O333 O 0.21314 0.4622 0.14156 0.0
O334 O 0.18762 0.55785 0.13848 0.0
O335 O 0.16353 0.52899 0.14937 0.0
O336 O 0.17781 0.49614 0.10952 0.0
O337 O 0.20991 0.4816 0.08701 0.0
O338 O 0.24682 0.51452 0.09799 0.0
O339 O 0.20904 0.53232 0.09767 0.0
C340 C 0.25064 0.51788 0.15455 0.0
O341 O 0.24396 0.44534 0.10056 0.0
O342 O 0.27353 0.46908 0.11002 0.0
C343 C 0.20394 0.47227 0.16127 0.0
C344 C 0.14546 0.56511 0.13496 0.0
C345 C 0.10568 0.58989 0.11376 0.0
C346 C 0.10745 0.58735 0.13918 0.0
C347 C 0.12717 0.57512 0.14964 0.0
C348 C 0.1437 0.56716 0.10957 0.0
C349 C 0.12398 0.5795 0.09905 0.0
C350 C 0.16603 0.55238 0.14646 0.0
C351 C 0.18649 0.48493 0.09016 0.0
H352 H 0.32541 0.38611 0.10567 0.0
H353 H 0.30523 0.42078 0.0861 0.0
H354 H 0.25704 0.42813 0.14756 0.0
H355 H 0.27728 0.39355 0.16743 0.0
H356 H 0.09347 0.59467 0.15104 0.0
H357 H 0.12813 0.57347 0.16926 0.0
H358 H 0.15762 0.55937 0.09792 0.0
H359 H 0.12331 0.58127 0.07944 0.0
Tb360 Tb 0.75107 0.06669 0.90792 0.0
Tb361 Tb 0.71101 0.01849 0.88829 0.0
C362 C 0.75506 0.0197 0.92656 0.0
C363 C 0.78545 0.12571 0.90424 0.0
C364 C 0.80654 0.16718 0.8827 0.0
C365 C 0.81972 0.15288 0.89939 0.0
C366 C 0.80924 0.13245 0.91009 0.0
C367 C 0.77238 0.13946 0.88705 0.0
C368 C 0.78283 0.16004 0.87641 0.0
C369 C 0.77457 0.10492 0.91712 0.0
O370 O 0.76729 0.04797 0.8766 0.0
O371 O 0.74347 0.01406 0.86591 0.0
O372 O 0.69974 0.04758 0.86495 0.0
O373 O 0.7288 0.07715 0.87582 0.0
O374 O 0.70316 0.98661 0.90738 0.0
O375 O 0.69008 0.99227 0.8703 0.0
O376 O 0.68975 0.04149 0.91265 0.0
O377 O 0.71997 0.06382 0.93267 0.0
O378 O 0.7671 0.03869 0.93267 0.0
O379 O 0.73954 0.02662 0.9107 0.0
C380 C 0.76298 0.02799 0.86371 0.0
O381 O 0.75089 0.10365 0.91761 0.0
O382 O 0.78471 0.08369 0.91349 0.0
C383 C 0.71021 0.06905 0.86251 0.0
C384 C 0.66533 0.96965 0.89768 0.0
C385 C 0.62023 0.95231 0.91452 0.0
C386 C 0.62126 0.97291 0.89937 0.0
C387 C 0.64364 0.98161 0.89113 0.0
C388 C 0.6643 0.9491 0.91273 0.0
C389 C 0.642 0.94055 0.92114 0.0
C390 C 0.68927 0.97854 0.88984 0.0
C391 C 0.69733 0.05609 0.93023 0.0
H392 H 0.83819 0.15749 0.90428 0.0
H393 H 0.81968 0.12204 0.92322 0.0
H394 H 0.75399 0.13459 0.88213 0.0
H395 H 0.77209 0.1707 0.86375 0.0
H396 H 0.60478 0.98244 0.89414 0.0
H397 H 0.64397 0.9977 0.87977 0.0
H398 H 0.68083 0.93967 0.91806 0.0
H399 H 0.64177 0.92448 0.93254 0.0
Tb400 Tb 0.7321 0.97599 0.40108 0.0
Tb401 Tb 0.77084 0.01791 0.38314 0.0
C402 C 0.73498 0.02836 0.42511 0.0
C403 C 0.69062 0.92217 0.40337 0.0
C404 C 0.66679 0.88131 0.38356 0.0
C405 C 0.66052 0.89026 0.40675 0.0
C406 C 0.67233 0.91047 0.41652 0.0
C407 C 0.69697 0.91348 0.38017 0.0
C408 C 0.68518 0.89316 0.37037 0.0
C409 C 0.70307 0.94307 0.41439 0.0
O410 O 0.71812 0.98988 0.36705 0.0
O411 O 0.73503 0.02791 0.36852 0.0
O412 O 0.76741 0.99237 0.35344 0.0
O413 O 0.7568 0.95848 0.37509 0.0
O414 O 0.78031 0.05463 0.37881 0.0
O415 O 0.80424 0.0258 0.3665 0.0
O416 O 0.79075 0.99299 0.40704 0.0
O417 O 0.75867 0.97965 0.42981 0.0
O418 O 0.72076 0.01072 0.41746 0.0
O419 O 0.75779 0.02954 0.41837 0.0
C420 C 0.71788 0.01299 0.36107 0.0
O421 O 0.72665 0.94134 0.41604 0.0
O422 O 0.69618 0.96459 0.40705 0.0
C423 C 0.7659 0.96867 0.35548 0.0
C424 C 0.82275 0.06189 0.38013 0.0
C425 C 0.86369 0.08677 0.39837 0.0
C426 C 0.86205 0.08057 0.37357 0.0
C427 C 0.84179 0.06834 0.36458 0.0
C428 C 0.82435 0.06759 0.40499 0.0
C429 C 0.84464 0.07997 0.41403 0.0
C430 C 0.80162 0.04916 0.36986 0.0
C431 C 0.78208 0.98272 0.4268 0.0
H432 H 0.64674 0.8814 0.41757 0.0
H433 H 0.66728 0.91687 0.4345 0.0
H434 H 0.71105 0.92234 0.36973 0.0
H435 H 0.69029 0.8869 0.35238 0.0
H436 H 0.87655 0.085 0.36105 0.0
H437 H 0.84099 0.06389 0.34539 0.0
H438 H 0.80989 0.06262 0.41736 0.0
H439 H 0.84519 0.08457 0.43318 0.0
Tb440 Tb 0.26923 0.52658 0.64947 0.0
Tb441 Tb 0.23238 0.56919 0.62648 0.0
C442 C 0.21598 0.53574 0.67031 0.0
C443 C 0.31909 0.48073 0.65532 0.0
C444 C 0.3581 0.45313 0.63602 0.0
C445 C 0.35226 0.45188 0.66093 0.0
C446 C 0.33297 0.46559 0.67047 0.0
C447 C 0.32439 0.48165 0.63037 0.0
C448 C 0.34372 0.46797 0.62079 0.0
C449 C 0.30022 0.49655 0.66599 0.0
O450 O 0.24591 0.50729 0.6248 0.0
O451 O 0.22898 0.53814 0.6014 0.0
O452 O 0.26868 0.57367 0.61176 0.0
O453 O 0.2828 0.53451 0.61317 0.0
O454 O 0.19868 0.58252 0.61385 0.0
O455 O 0.23046 0.60514 0.61375 0.0
O456 O 0.24292 0.58161 0.66258 0.0
O457 O 0.27958 0.56211 0.66297 0.0
O458 O 0.23828 0.52775 0.67454 0.0
O459 O 0.21008 0.54933 0.65159 0.0
C460 C 0.23361 0.51488 0.60579 0.0
O461 O 0.30392 0.51981 0.66377 0.0
O462 O 0.27774 0.49104 0.66126 0.0
C463 C 0.28308 0.55637 0.60365 0.0
C464 C 0.19321 0.6246 0.6217 0.0
C465 C 0.16926 0.66537 0.64246 0.0
C466 C 0.17091 0.66264 0.61703 0.0
C467 C 0.18277 0.64248 0.60679 0.0
C468 C 0.19148 0.627 0.64708 0.0
C469 C 0.17961 0.6472 0.65737 0.0
C470 C 0.20705 0.60441 0.61057 0.0
C471 C 0.26484 0.57887 0.67149 0.0
H472 H 0.36266 0.44034 0.6731 0.0
H473 H 0.32912 0.46467 0.68978 0.0
H474 H 0.31391 0.49334 0.61841 0.0
H475 H 0.34781 0.46956 0.6016 0.0
H476 H 0.16354 0.67641 0.60497 0.0
H477 H 0.18415 0.64105 0.58718 0.0
H478 H 0.19953 0.61339 0.6589 0.0
H479 H 0.17847 0.64854 0.67699 0.0
C480 C 0.16368 0.31999 0.52263 0.0
C481 C 0.1396 0.32119 0.51418 0.0
C482 C 0.17551 0.34119 0.53054 0.0
C483 C 0.1716 0.40896 0.52611 0.0
H484 H 0.21136 0.40782 0.58419 0.0
C485 C 0.20225 0.49633 0.57802 0.0
C486 C 0.22523 0.49552 0.58908 0.0
C487 C 0.19305 0.47557 0.5663 0.0
C488 C 0.20059 0.40845 0.56772 0.0
H489 H 0.10899 0.3457 0.50802 0.0
H490 H 0.12929 0.38197 0.52192 0.0
H491 H 0.19367 0.37015 0.56926 0.0
H492 H 0.25737 0.47316 0.59483 0.0
H493 H 0.24171 0.43753 0.57408 0.0
H494 H 0.17827 0.44737 0.52483 0.0
C495 C 0.13934 0.36494 0.52199 0.0
C496 C 0.19047 0.38677 0.55915 0.0
C497 C 0.12761 0.34394 0.51416 0.0
C498 C 0.23941 0.47423 0.58678 0.0
C499 C 0.23036 0.4537 0.57504 0.0
C500 C 0.18171 0.43066 0.53472 0.0
C501 C 0.1635 0.36398 0.53009 0.0
C502 C 0.17566 0.38675 0.53835 0.0
C503 C 0.20676 0.45376 0.56537 0.0
C504 C 0.19626 0.43071 0.5557 0.0
H505 H 0.17346 0.30281 0.52284 0.0
H506 H 0.19419 0.3398 0.5366 0.0
H507 H 0.1606 0.40959 0.50979 0.0
H508 H 0.19088 0.51243 0.57965 0.0
H509 H 0.17477 0.47624 0.55904 0.0
C510 C 0.78336 0.99617 0.83751 0.0
C511 C 0.7828 0.01988 0.84719 0.0
C512 C 0.80397 0.9876 0.82509 0.0
C513 C 0.86282 0.00768 0.79774 0.0
H514 H 0.88465 0.94295 0.81598 0.0
C515 C 0.96283 0.97578 0.79075 0.0
C516 C 0.96706 0.95263 0.78078 0.0
C517 C 0.9391 0.98362 0.79574 0.0
C518 C 0.87866 0.96095 0.81048 0.0
H519 H 0.80297 0.05364 0.84995 0.0
H520 H 0.83867 0.03865 0.82902 0.0
H521 H 0.84466 0.9573 0.82888 0.0
H522 H 0.95021 0.91904 0.76927 0.0
H523 H 0.90872 0.93267 0.77802 0.0
H524 H 0.89737 0.01158 0.78023 0.0
C525 C 0.82326 0.02664 0.83068 0.0
C526 C 0.85566 0.96915 0.81775 0.0
C527 C 0.80273 0.0352 0.84296 0.0
C528 C 0.94732 0.93724 0.77633 0.0
C529 C 0.92364 0.94492 0.7816 0.0
C530 C 0.88591 0.99956 0.79072 0.0
C531 C 0.82442 1.00255 0.82209 0.0
C532 C 0.8476 0.99279 0.81183 0.0
C533 C 0.91927 0.96823 0.79127 0.0
C534 C 0.8942 0.97626 0.79733 0.0
H535 H 0.76834 0.98387 0.84035 0.0
H536 H 0.80407 0.96907 0.81833 0.0
H537 H 0.85705 0.02579 0.79241 0.0
H538 H 0.97784 0.98788 0.79448 0.0
H539 H 0.93628 1.00156 0.80351 0.0
C540 C 0.3064 0.73165 0.02373 0.0
C541 C 0.32678 0.72972 0.00836 0.0
C542 C 0.29418 0.71062 0.0314 0.0
C543 C 0.30573 0.64711 0.04486 0.0
H544 H 0.23743 0.63484 0.03359 0.0
C545 C 0.26474 0.55358 0.06769 0.0
C546 C 0.24108 0.55325 0.07721 0.0
C547 C 0.27417 0.57498 0.05767 0.0
C548 C 0.25646 0.63805 0.03727 0.0
H549 H 0.34978 0.704 0.98858 0.0
H550 H 0.32891 0.66793 1.00237 0.0
H551 H 0.25496 0.67356 0.02091 0.0
H552 H 0.20858 0.57518 0.08319 0.0
H553 H 0.22516 0.6123 0.06676 0.0
H554 H 0.30742 0.61225 0.06188 0.0
C555 C 0.32236 0.68559 0.00841 0.0
C556 C 0.26644 0.66026 0.02994 0.0
C557 C 0.33423 0.7064 1.00046 0.0
C558 C 0.22685 0.57461 0.07586 0.0
C559 C 0.23637 0.59604 0.06626 0.0
C560 C 0.29572 0.62514 0.05259 0.0
C561 C 0.30245 0.68742 0.02417 0.0
C562 C 0.2912 0.66485 0.03348 0.0
C563 C 0.2603 0.5967 0.05733 0.0
C564 C 0.27097 0.62014 0.04874 0.0
H565 H 0.30017 0.74927 0.03014 0.0
H566 H 0.2788 0.71242 0.04358 0.0
H567 H 0.32489 0.65033 0.04791 0.0
H568 H 0.27615 0.53743 0.06836 0.0
H569 H 0.29246 0.57451 0.05044 0.0
C570 C 0.51949 0.09412 0.29759 0.0
C571 C 0.51581 0.09605 0.27236 0.0
C572 C 0.541 0.08389 0.30678 0.0
C573 C 0.59451 0.07777 0.32008 0.0
H574 H 0.62584 0.02246 0.28898 0.0
C575 C 0.69248 0.04771 0.34493 0.0
C576 C 0.69646 0.02254 0.34761 0.0
C577 C 0.67078 0.05652 0.33478 0.0
C578 C 0.61731 0.03785 0.29798 0.0
H579 H 0.53154 0.08782 0.23704 0.0
H580 H 0.56884 0.0702 0.25299 0.0
H581 H 0.58627 0.03639 0.2746 0.0
H582 H 0.68096 0.98691 0.34092 0.0
H583 H 0.64334 1.00221 0.32348 0.0
H584 H 0.62534 0.07889 0.3438 0.0
C585 C 0.55512 0.0764 0.26575 0.0
C586 C 0.59467 0.04598 0.28959 0.0
C587 C 0.53369 0.08663 0.25658 0.0
C588 C 0.67859 0.00642 0.33914 0.0
C589 C 0.65698 0.0152 0.329 0.0
C590 C 0.61715 0.06963 0.32849 0.0
C591 C 0.55928 0.07529 0.29095 0.0
C592 C 0.58297 0.06606 0.3005 0.0
C593 C 0.6526 0.04036 0.32701 0.0
C594 C 0.62885 0.04955 0.31755 0.0
H595 H 0.50615 0.10127 0.31026 0.0
H596 H 0.54344 0.08299 0.3263 0.0
H597 H 0.58621 0.0935 0.32872 0.0
H598 H 0.70581 0.06065 0.3513 0.0
H599 H 0.66816 0.07602 0.33318 0.0
C600 C 0.65626 0.21088 0.52971 0.0
C601 C 0.64677 0.22845 0.51365 0.0
C602 C 0.66673 0.18938 0.52088 0.0
C603 C 0.66647 0.14912 0.46707 0.0
H604 H 0.72227 0.11946 0.49864 0.0
C605 C 0.69955 0.05199 0.44223 0.0
C606 C 0.72477 0.04901 0.43933 0.0
C607 C 0.69 0.07329 0.4527 0.0
C608 C 0.70674 0.12752 0.48953 0.0
H609 H 0.64161 0.23746 0.4756 0.0
H610 H 0.66033 0.20004 0.46015 0.0
H611 H 0.70728 0.15889 0.51263 0.0
H612 H 0.75977 0.06571 0.44614 0.0
H613 H 0.7432 0.10262 0.46414 0.0
H614 H 0.66631 0.11799 0.44358 0.0
C615 C 0.65928 0.20278 0.47963 0.0
C616 C 0.69801 0.15006 0.4977 0.0
C617 C 0.64879 0.22436 0.48848 0.0
C618 C 0.74024 0.06734 0.44806 0.0
C619 C 0.73072 0.08853 0.45852 0.0
C620 C 0.67522 0.12656 0.45889 0.0
C621 C 0.66804 0.18485 0.49575 0.0
C622 C 0.67777 0.16117 0.48657 0.0
C623 C 0.70548 0.09201 0.46058 0.0
C624 C 0.6955 0.1155 0.46998 0.0
H625 H 0.655 0.21336 0.54922 0.0
H626 H 0.67304 0.17592 0.53385 0.0
H627 H 0.65064 0.15696 0.45829 0.0
H628 H 0.68711 0.03827 0.43568 0.0
H629 H 0.67047 0.07521 0.45436 0.0
C630 C 0.0129 0.47374 0.736 0.0
C631 C 0.01219 0.44821 0.73449 0.0
C632 C 0.0346 0.48613 0.73101 0.0
C633 C 0.1003 0.47546 0.73339 0.0
H634 H 0.10682 0.52969 0.68901 0.0
C635 C 0.19273 0.50441 0.69345 0.0
C636 C 0.19571 0.52868 0.68628 0.0
C637 C 0.1705 0.49674 0.70312 0.0
C638 C 0.10534 0.5149 0.70191 0.0
H639 H 0.03297 0.41587 0.72472 0.0
H640 H 0.07036 0.43733 0.71618 0.0
H641 H 0.06664 0.51311 0.69725 0.0
H642 H 0.17881 0.56441 0.68543 0.0
H643 H 0.1406 0.5514 0.70336 0.0
H644 H 0.13882 0.47706 0.73817 0.0
C645 C 0.0545 0.44777 0.72168 0.0
C646 C 0.08226 0.50538 0.70651 0.0
C647 C 0.03299 0.43553 0.72644 0.0
C648 C 0.17688 0.54552 0.69071 0.0
C649 C 0.15487 0.53798 0.70069 0.0
C650 C 0.12331 0.48512 0.72904 0.0
C651 C 0.0558 0.47307 0.72464 0.0
C652 C 0.07962 0.48519 0.72183 0.0
C653 C 0.15099 0.51331 0.70608 0.0
C654 C 0.12624 0.50464 0.71282 0.0
H655 H 0.99718 0.48396 0.74226 0.0
H656 H 0.03514 0.50571 0.73325 0.0
H657 H 0.0987 0.46009 0.7456 0.0
H658 H 0.20687 0.49103 0.6899 0.0
H659 H 0.1682 0.47755 0.70687 0.0
C660 C 0.75434 0.97486 0.92014 0.0
C661 C 0.75859 0.99472 0.93559 0.0
C662 C 0.75694 0.95103 0.92867 0.0
C663 C 0.75912 0.91489 0.98533 0.0
H664 H 0.79277 0.86713 0.9454 0.0
C665 C 0.80541 0.82974 0.02404 0.0
C666 C 0.80711 0.80844 0.00995 0.0
C667 C 0.79393 0.8505 0.01493 0.0
C668 C 0.78284 0.88004 0.95658 0.0
H669 H 0.76989 0.00554 0.97166 0.0
H670 H 0.77475 0.9638 0.9867 0.0
H671 H 0.78496 0.90777 0.92937 0.0
H672 H 0.7968 0.7916 0.97589 0.0
H673 H 0.77648 0.82812 0.95981 0.0
H674 H 0.7575 0.88732 0.01276 0.0
C675 C 0.76878 0.9666 0.96814 0.0
C676 C 0.77846 0.90341 0.94743 0.0
C677 C 0.76624 0.99045 0.95953 0.0
C678 C 0.79563 0.80776 0.98717 0.0
C679 C 0.78425 0.82872 0.97789 0.0
C680 C 0.76343 0.89151 0.99446 0.0
C681 C 0.76403 0.94661 0.95283 0.0
C682 C 0.76702 0.92126 0.96189 0.0
C683 C 0.78397 0.85055 0.99141 0.0
C684 C 0.77584 0.87397 0.98041 0.0
H685 H 0.74919 0.97773 0.90135 0.0
H686 H 0.75317 0.93609 0.9164 0.0
H687 H 0.7498 0.92807 0.99673 0.0
H688 H 0.81403 0.83074 0.04173 0.0
H689 H 0.79428 0.86696 0.02578 0.0
C690 C 0.43848 0.57912 0.25901 0.0
C691 C 0.45239 0.59623 0.24631 0.0
C692 C 0.41715 0.56979 0.24888 0.0
C693 C 0.38061 0.56785 0.19088 0.0
H694 H 0.32878 0.55082 0.2354 0.0
C695 C 0.28009 0.55168 0.162 0.0
C696 C 0.27183 0.52816 0.16751 0.0
C697 C 0.30191 0.56021 0.17189 0.0
C698 C 0.34313 0.55551 0.22279 0.0
H699 H 0.45492 0.61705 0.21303 0.0
H700 H 0.41725 0.60183 0.19576 0.0
H701 H 0.36744 0.56493 0.25146 0.0
H702 H 0.27945 0.4955 0.1883 0.0
H703 H 0.317 0.51091 0.20646 0.0
H704 H 0.35545 0.5594 0.16226 0.0
C705 C 0.42309 0.59469 0.21314 0.0
C706 C 0.36549 0.56336 0.23194 0.0
C707 C 0.44478 0.60352 0.22305 0.0
C708 C 0.28533 0.51372 0.1838 0.0
C709 C 0.30679 0.52251 0.19417 0.0
C710 C 0.35802 0.56056 0.18177 0.0
C711 C 0.4087 0.5779 0.22604 0.0
C712 C 0.38473 0.5695 0.21615 0.0
C713 C 0.31552 0.54564 0.18794 0.0
C714 C 0.33914 0.55418 0.19764 0.0
H715 H 0.44396 0.57314 0.27698 0.0
H716 H 0.40721 0.55638 0.25919 0.0
H717 H 0.39488 0.57186 0.17799 0.0
H718 H 0.27023 0.5631 0.14927 0.0
H719 H 0.30825 0.57815 0.16688 0.0
C720 C 0.47688 0.20348 0.31393 0.0
C721 C 0.49108 0.18683 0.30055 0.0
C722 C 0.48526 0.21269 0.3361 0.0
C723 C 0.52035 0.19564 0.38828 0.0
H724 H 0.52684 0.26448 0.40206 0.0
C725 C 0.56248 0.23022 0.47829 0.0
C726 C 0.55572 0.25331 0.48701 0.0
C727 C 0.55362 0.22179 0.45597 0.0
C728 C 0.52464 0.24518 0.39883 0.0
H729 H 0.5252 0.16687 0.29972 0.0
H730 H 0.53954 0.18251 0.33893 0.0
H731 H 0.51389 0.25132 0.36179 0.0
H732 H 0.53337 0.28513 0.48008 0.0
H733 H 0.51657 0.26989 0.44209 0.0
H734 H 0.52992 0.18925 0.42538 0.0
C735 C 0.52214 0.18868 0.33198 0.0
C736 C 0.51748 0.2377 0.3756 0.0
C737 C 0.51403 0.17994 0.3095 0.0
C738 C 0.53893 0.26727 0.4737 0.0
C739 C 0.52959 0.25862 0.4517 0.0
C740 C 0.52697 0.20309 0.41169 0.0
C741 C 0.50769 0.20491 0.34558 0.0
C742 C 0.51546 0.21288 0.37009 0.0
C743 C 0.53736 0.23607 0.44209 0.0
C744 C 0.52938 0.228 0.41733 0.0
H745 H 0.45908 0.20899 0.30749 0.0
H746 H 0.4738 0.22515 0.34632 0.0
H747 H 0.51859 0.17637 0.38449 0.0
H748 H 0.57574 0.21925 0.48799 0.0
H749 H 0.56042 0.20453 0.4492 0.0
C750 C 0.03907 0.30564 0.53725 0.0
C751 C 0.0473 0.28152 0.53486 0.0
C752 C 0.02695 0.3131 0.55848 0.0
C753 C 0.02227 0.29483 0.6233 0.0
H754 H 0.97427 0.34666 0.62623 0.0
C755 C 0.99869 0.34639 0.71247 0.0
C756 C 0.97498 0.35558 0.71523 0.0
C757 C 0.0056 0.3347 0.69083 0.0
C758 C 0.98742 0.3319 0.6258 0.0
H759 H 0.04768 0.24585 0.55159 0.0
H760 H 0.0256 0.25846 0.5879 0.0
H761 H 0.9878 0.33148 0.58684 0.0
H762 H 0.93944 0.35813 0.6984 0.0
H763 H 0.95115 0.337 0.66124 0.0
H764 H 0.02161 0.29495 0.66222 0.0
C765 C 0.02923 0.27194 0.57403 0.0
C766 C 0.99543 0.32342 0.60313 0.0
C767 C 0.0416 0.26462 0.55308 0.0
C768 C 0.95793 0.35141 0.69669 0.0
C769 C 0.96472 0.33953 0.67526 0.0
C770 C 0.01416 0.3032 0.64595 0.0
C771 C 0.02265 0.29648 0.57752 0.0
C772 C 0.01307 0.30486 0.60156 0.0
C773 C 0.98885 0.33177 0.67165 0.0
C774 C 0.99674 0.32196 0.64753 0.0
H775 H 0.04356 0.31907 0.52359 0.0
H776 H 0.02227 0.33218 0.56052 0.0
H777 H 0.03621 0.28082 0.62291 0.0
H778 H 0.01229 0.34962 0.72632 0.0
H779 H 0.02439 0.32912 0.68869 0.0
C780 C 0.00568 0.86851 0.82892 0.0
C781 C 0.99267 0.86829 0.80683 0.0
C782 C 0.99662 0.8569 0.84961 0.0
C783 C 0.95318 0.8104 0.87037 0.0
H784 H 0.95364 0.84663 0.93101 0.0
C785 C 0.89322 0.78283 0.95075 0.0
C786 C 0.90186 0.78513 0.97475 0.0
C787 C 0.90634 0.79195 0.93114 0.0
C788 C 0.95373 0.83606 0.91437 0.0
H789 H 0.96014 0.85479 0.78926 0.0
H790 H 0.94447 0.83433 0.82535 0.0
H791 H 0.97263 0.86386 0.89482 0.0
H792 H 0.93131 0.79907 0.99676 0.0
H793 H 0.95457 0.81495 0.96218 0.0
H794 H 0.93432 0.78263 0.88977 0.0
C795 C 0.96175 0.84356 0.82656 0.0
C796 C 0.96456 0.84597 0.89357 0.0
C797 C 0.97073 0.85534 0.80584 0.0
C798 C 0.92411 0.79698 0.97856 0.0
C799 C 0.93737 0.80615 0.95874 0.0
C800 C 0.94251 0.80044 0.89116 0.0
C801 C 0.97439 0.84456 0.8488 0.0
C802 C 0.96409 0.83341 0.87123 0.0
C803 C 0.92866 0.8036 0.93474 0.0
C804 C 0.94222 0.81332 0.91334 0.0
H805 H 0.02268 0.87818 0.83052 0.0
H806 H 0.00699 0.85772 0.86633 0.0
H807 H 0.9529 0.80005 0.85359 0.0
H808 H 0.87609 0.77404 0.94692 0.0
H809 H 0.89869 0.79014 0.91309 0.0
C810 C 0.5009 0.69689 0.20919 0.0
C811 C 0.4836 0.6856 0.22419 0.0
C812 C 0.49448 0.70526 0.18607 0.0
C813 C 0.45111 0.69204 0.13773 0.0
H814 H 0.46946 0.75448 0.11081 0.0
C815 C 0.40311 0.73424 0.0562 0.0
C816 C 0.41584 0.74904 0.03987 0.0
C817 C 0.41473 0.72416 0.07629 0.0
C818 C 0.46468 0.73675 0.11786 0.0
H819 H 0.44575 0.67531 0.22715 0.0
H820 H 0.43454 0.69003 0.18678 0.0
H821 H 0.48212 0.7436 0.15206 0.0
H822 H 0.45097 0.76401 0.0309 0.0
H823 H 0.47166 0.74618 0.06643 0.0
H824 H 0.43358 0.68512 0.10377 0.0
C825 C 0.45312 0.69218 0.19288 0.0
C826 C 0.47175 0.73062 0.14154 0.0
C827 C 0.45947 0.68402 0.2161 0.0
C828 C 0.44085 0.7525 0.0432 0.0
C829 C 0.45256 0.74253 0.06362 0.0
C830 C 0.44423 0.69805 0.11407 0.0
C831 C 0.4707 0.70229 0.17741 0.0
C832 C 0.46449 0.70846 0.1519 0.0
C833 C 0.43942 0.72872 0.08067 0.0
C834 C 0.45036 0.72073 0.10407 0.0
H835 H 0.51966 0.69839 0.21493 0.0
H836 H 0.5084 0.71298 0.17454 0.0
H837 H 0.44581 0.67455 0.14503 0.0
H838 H 0.38379 0.73124 0.05397 0.0
H839 H 0.40395 0.7139 0.08912 0.0
C840 C 0.12055 0.37904 0.34379 0.0
C841 C 0.12129 0.35359 0.34638 0.0
C842 C 0.13148 0.39029 0.32383 0.0
C843 C 0.15219 0.37914 0.26092 0.0
H844 H 0.18654 0.43973 0.2707 0.0
C845 C 0.19959 0.43151 0.18199 0.0
C846 C 0.19628 0.45694 0.18212 0.0
C847 C 0.19224 0.41744 0.20195 0.0
C848 C 0.17686 0.42291 0.26759 0.0
H849 H 0.1341 0.31999 0.32986 0.0
H850 H 0.15339 0.3397 0.29503 0.0
H851 H 0.17041 0.41798 0.30564 0.0
H852 H 0.18244 0.4874 0.20336 0.0
H853 H 0.16955 0.46306 0.23767 0.0
H854 H 0.15836 0.38435 0.22276 0.0
C855 C 0.14419 0.35092 0.30844 0.0
C856 C 0.1676 0.41044 0.28765 0.0
C857 C 0.13333 0.33965 0.32851 0.0
C858 C 0.18546 0.4679 0.2026 0.0
C859 C 0.17817 0.45393 0.22244 0.0
C860 C 0.16143 0.39168 0.24078 0.0
C861 C 0.14343 0.3764 0.30588 0.0
C862 C 0.15478 0.38861 0.28457 0.0
C863 C 0.18152 0.42854 0.22247 0.0
C864 C 0.1735 0.41396 0.24385 0.0
H865 H 0.1117 0.39037 0.35733 0.0
H866 H 0.13027 0.40992 0.32232 0.0
H867 H 0.14226 0.36246 0.25787 0.0
H868 H 0.20792 0.42246 0.16655 0.0
H869 H 0.19523 0.39794 0.20145 0.0
C870 C 0.92169 0.93303 0.59629 0.0
C871 C 0.90843 0.92395 0.61618 0.0
C872 C 0.91 0.93881 0.57438 0.0
C873 C 0.85435 0.92554 0.53946 0.0
H874 H 0.86728 0.98628 0.50616 0.0
C875 C 0.78921 0.96365 0.46747 0.0
C876 C 0.79868 0.97516 0.44674 0.0
C877 C 0.80437 0.95673 0.48662 0.0
C878 C 0.86373 0.96906 0.51501 0.0
H879 H 0.87226 0.91459 0.62865 0.0
H880 H 0.85209 0.92427 0.59051 0.0
H881 H 0.8906 0.97548 0.54251 0.0
H882 H 0.83171 0.98843 0.42997 0.0
H883 H 0.85835 0.97608 0.46353 0.0
H884 H 0.82746 0.91907 0.51222 0.0
C885 C 0.87159 0.92657 0.59171 0.0
C886 C 0.87707 0.9629 0.53586 0.0
C887 C 0.8832 0.92096 0.6136 0.0
C888 C 0.82381 0.97956 0.44565 0.0
C889 C 0.83905 0.97261 0.46493 0.0
C890 C 0.84113 0.93162 0.51864 0.0
C891 C 0.88483 0.93548 0.5718 0.0
C892 C 0.87218 0.94128 0.54858 0.0
C893 C 0.82948 0.96104 0.48563 0.0
C894 C 0.84528 0.95369 0.50642 0.0
H895 H 0.94117 0.93534 0.59751 0.0
H896 H 0.92073 0.94548 0.55931 0.0
H897 H 0.8505 0.9085 0.54853 0.0
H898 H 0.76996 0.96002 0.46907 0.0
H899 H 0.79626 0.94831 0.50243 0.0
C900 C 0.25869 0.61283 0.70194 0.0
C901 C 0.2736 0.59473 0.69147 0.0
C902 C 0.26727 0.62709 0.72128 0.0
C903 C 0.32468 0.64603 0.75108 0.0
H904 H 0.28422 0.65838 0.80758 0.0
C905 C 0.36538 0.6769 0.842 0.0
C906 C 0.35349 0.69577 0.85469 0.0
C907 C 0.35443 0.66592 0.8219 0.0
C908 C 0.29564 0.65531 0.79181 0.0
H909 H 0.3092 0.57743 0.69326 0.0
H910 H 0.32383 0.60187 0.72675 0.0
H911 H 0.26712 0.63749 0.77222 0.0
H912 H 0.32051 0.71765 0.85624 0.0
H913 H 0.3013 0.6982 0.82127 0.0
H914 H 0.35329 0.66338 0.77071 0.0
C915 C 0.30571 0.60545 0.71988 0.0
C916 C 0.28584 0.64341 0.77153 0.0
C917 C 0.2972 0.59129 0.70069 0.0
C918 C 0.33009 0.70298 0.84709 0.0
C919 C 0.31908 0.69189 0.82701 0.0
C920 C 0.33446 0.65779 0.7713 0.0
C921 C 0.29093 0.62356 0.73043 0.0
C922 C 0.30039 0.63824 0.7511 0.0
C923 C 0.33127 0.67344 0.81401 0.0
C924 C 0.32021 0.66221 0.79207 0.0
H925 H 0.2404 0.61592 0.69529 0.0
H926 H 0.25547 0.64099 0.72893 0.0
H927 H 0.33625 0.64285 0.73544 0.0
H928 H 0.38317 0.67052 0.84763 0.0
H929 H 0.3641 0.6514 0.81259 0.0
C930 C 0.55479 0.10782 0.09644 0.0
C931 C 0.56564 0.12493 0.11204 0.0
C932 C 0.56699 0.0996 0.07559 0.0
C933 C 0.6153 0.11805 0.03322 0.0
H934 H 0.61849 0.04981 0.01522 0.0
C935 C 0.68634 0.08177 0.96624 0.0
C936 C 0.6797 0.06393 0.94916 0.0
C937 C 0.67031 0.08896 0.98455 0.0
C938 C 0.61743 0.06897 0.01979 0.0
H939 H 0.5983 0.14583 0.11854 0.0
H940 H 0.61938 0.13169 0.08224 0.0
H941 H 0.59451 0.06242 0.05065 0.0
H942 H 0.65075 0.03972 0.93803 0.0
H943 H 0.62258 0.05246 0.97018 0.0
H944 H 0.63832 0.12469 1.00267 0.0
C945 C 0.60127 0.125 0.08582 0.0
C946 C 0.60375 0.07618 0.04009 0.0
C947 C 0.58917 0.13311 0.10663 0.0
C948 C 0.65645 0.05355 0.95082 0.0
C949 C 0.64037 0.06072 0.96932 0.0
C950 C 0.62887 0.11089 0.01298 0.0
C951 C 0.59022 0.10841 0.06989 0.0
C952 C 0.60299 0.10074 0.0473 0.0
C953 C 0.64715 0.07855 0.98636 0.0
C954 C 0.63055 0.08622 0.00633 0.0
H955 H 0.53662 0.10129 0.09998 0.0
H956 H 0.55799 0.08688 0.06359 0.0
H957 H 0.6146 0.13719 0.03797 0.0
H958 H 0.70404 0.09022 0.96561 0.0
H959 H 0.67628 0.10243 0.99761 0.0
C960 C 0.64944 0.19137 0.68445 0.0
C961 C 0.6254 0.18662 0.67726 0.0
C962 C 0.65917 0.18062 0.70541 0.0
C963 C 0.64077 0.14932 0.76252 0.0
H964 H 0.7075 0.12614 0.76258 0.0
C965 C 0.67771 0.08076 0.83277 0.0
C966 C 0.70073 0.08506 0.84293 0.0
C967 C 0.66897 0.09513 0.81371 0.0
C968 C 0.68893 0.1328 0.76293 0.0
H969 H 0.59269 0.167 0.68685 0.0
H970 H 0.60986 0.14759 0.72263 0.0
H971 H 0.69146 0.14709 0.72683 0.0
H972 H 0.73257 0.10807 0.84102 0.0
H973 H 0.71732 0.13303 0.8074 0.0
H974 H 0.6381 0.13432 0.79835 0.0
C975 C 0.62113 0.15998 0.71238 0.0
C976 C 0.67971 0.14485 0.74246 0.0
C977 C 0.61138 0.17083 0.69157 0.0
C978 C 0.71473 0.10428 0.83367 0.0
C979 C 0.70609 0.11849 0.81433 0.0
C980 C 0.64992 0.13709 0.78285 0.0
C981 C 0.64513 0.16477 0.71966 0.0
C982 C 0.65541 0.15303 0.74188 0.0
C983 C 0.68312 0.11401 0.80413 0.0
C984 C 0.67401 0.12847 0.78319 0.0
H985 H 0.66089 0.20321 0.67377 0.0
H986 H 0.67763 0.18493 0.71054 0.0
H987 H 0.62216 0.15585 0.763 0.0
H988 H 0.66637 0.06621 0.83949 0.0
H989 H 0.65131 0.09109 0.80608 0.0
C990 C 0.14598 0.48581 0.06868 0.0
C991 C 0.1697 0.47631 0.07088 0.0
C992 C 0.13072 0.47809 0.04976 0.0
C993 C 0.12095 0.42726 0.00712 0.0
H994 H 0.08856 0.47489 0.96624 0.0
C995 C 0.08044 0.4007 0.91428 0.0
C996 C 0.05953 0.4128 0.90564 0.0
C997 C 0.09194 0.40826 0.93564 0.0
C998 C 0.09707 0.46126 0.97769 0.0
H999 H 0.19574 0.45094 0.05517 0.0
H1000 H 0.16908 0.43728 0.02263 0.0
H1001 H 0.11169 0.48838 1.00163 0.0
H1002 H 0.03424 0.44233 0.91325 0.0
H1003 H 0.05374 0.45492 0.951 0.0
H1004 H 0.10629 0.40009 0.98358 0.0
C1005 C 0.16229 0.45073 0.03541 0.0
C1006 C 0.1104 0.46905 0.99796 0.0
C1007 C 0.17762 0.45869 0.05401 0.0
C1008 C 0.05015 0.43239 0.91937 0.0
C1009 C 0.06158 0.43985 0.9409 0.0
C1010 C 0.10742 0.41945 0.98708 0.0
C1011 C 0.13871 0.4604 0.03296 0.0
C1012 C 0.12284 0.45215 0.01265 0.0
C1013 C 0.08277 0.428 0.94927 0.0
C1014 C 0.09564 0.43634 0.97176 0.0
H1015 H 0.13936 0.49949 0.0813 0.0
H1016 H 0.1126 0.4858 0.04838 0.0
H1017 H 0.13002 0.41376 0.01832 0.0
H1018 H 0.08805 0.38529 0.90453 0.0
H1019 H 0.10838 0.39883 0.94115 0.0
C1020 C 0.78651 0.96445 0.31521 0.0
C1021 C 0.77404 0.95351 0.3346 0.0
C1022 C 0.79377 0.95084 0.29503 0.0
C1023 C 0.80624 0.88828 0.27347 0.0
H1024 H 0.80117 0.91898 0.21015 0.0
C1025 C 0.83001 0.83854 0.18292 0.0
C1026 C 0.84393 0.85185 0.16616 0.0
C1027 C 0.82026 0.84986 0.20361 0.0
C1028 C 0.80287 0.91021 0.22771 0.0
H1029 H 0.75967 0.91942 0.34804 0.0
H1030 H 0.77223 0.89551 0.31244 0.0
H1031 H 0.78602 0.94025 0.246 0.0
H1032 H 0.85827 0.88754 0.15789 0.0
H1033 H 0.84138 0.90724 0.19398 0.0
H1034 H 0.82315 0.85819 0.25496 0.0
C1035 C 0.77653 0.91471 0.31307 0.0
C1036 C 0.7942 0.9224 0.24829 0.0
C1037 C 0.76928 0.92841 0.33343 0.0
C1038 C 0.84779 0.87673 0.17052 0.0
C1039 C 0.83791 0.88807 0.19109 0.0
C1040 C 0.81484 0.876 0.25279 0.0
C1041 C 0.78868 0.92585 0.29352 0.0
C1042 C 0.79617 0.91181 0.27151 0.0
C1043 C 0.82403 0.87478 0.20788 0.0
C1044 C 0.81361 0.88702 0.22972 0.0
H1045 H 0.79077 0.98367 0.31554 0.0
H1046 H 0.80358 0.95994 0.28063 0.0
H1047 H 0.80821 0.87966 0.29107 0.0
H1048 H 0.82689 0.81928 0.1802 0.0
H1049 H 0.80953 0.83915 0.21612 0.0
C1050 C 0.31109 0.54337 0.56966 0.0
C1051 C 0.29931 0.56195 0.5829 0.0
C1052 C 0.32449 0.54894 0.5487 0.0
C1053 C 0.32899 0.59714 0.50199 0.0
H1054 H 0.39067 0.5668 0.4855 0.0
C1055 C 0.39015 0.6359 0.42735 0.0
C1056 C 0.40093 0.61954 0.41079 0.0
C1057 C 0.37834 0.62742 0.4481 0.0
C1058 C 0.37333 0.57523 0.48975 0.0
H1059 H 0.29346 0.60102 0.58521 0.0
H1060 H 0.31699 0.61064 0.54926 0.0
H1061 H 0.36933 0.55451 0.52258 0.0
H1062 H 0.40798 0.58132 0.4034 0.0
H1063 H 0.38743 0.56651 0.43992 0.0
H1064 H 0.33297 0.618 0.46946 0.0
C1065 C 0.3154 0.59173 0.55454 0.0
C1066 C 0.36111 0.56819 0.51097 0.0
C1067 C 0.302 0.5862 0.5753 0.0
C1068 C 0.40003 0.59444 0.41584 0.0
C1069 C 0.38826 0.58594 0.43675 0.0
C1070 C 0.34119 0.6042 0.48093 0.0
C1071 C 0.32636 0.57318 0.54064 0.0
C1072 C 0.33896 0.57937 0.51752 0.0
C1073 C 0.37705 0.60235 0.45296 0.0
C1074 C 0.36366 0.59361 0.47473 0.0
H1075 H 0.30936 0.5245 0.57504 0.0
H1076 H 0.33269 0.53422 0.53838 0.0
H1077 H 0.31166 0.60568 0.5061 0.0
H1078 H 0.391 0.65536 0.4244 0.0
H1079 H 0.37034 0.64057 0.4605 0.0
C1080 C 0.17127 0.26133 0.42584 0.0
C1081 C 0.15783 0.24414 0.43906 0.0
C1082 C 0.1923 0.25418 0.41315 0.0
C1083 C 0.23859 0.20487 0.41304 0.0
H1084 H 0.2551 0.22818 0.34863 0.0
C1085 C 0.31115 0.1573 0.35482 0.0
C1086 C 0.32807 0.17183 0.34246 0.0
C1087 C 0.29088 0.16777 0.36609 0.0
C1088 C 0.25084 0.22173 0.36674 0.0
H1089 H 0.15528 0.2058 0.44824 0.0
H1090 H 0.19131 0.19346 0.426 0.0
H1091 H 0.21846 0.24368 0.36896 0.0
H1092 H 0.3366 0.20891 0.3321 0.0
H1093 H 0.30088 0.22716 0.35162 0.0
H1094 H 0.27061 0.18271 0.4108 0.0
C1095 C 0.18615 0.21253 0.4259 0.0
C1096 C 0.22989 0.23062 0.37838 0.0
C1097 C 0.16533 0.21963 0.43855 0.0
C1098 C 0.32385 0.19712 0.34126 0.0
C1099 C 0.30342 0.20761 0.35246 0.0
C1100 C 0.25937 0.19596 0.40142 0.0
C1101 C 0.20022 0.22974 0.41346 0.0
C1102 C 0.2233 0.22192 0.40151 0.0
C1103 C 0.28685 0.19305 0.36523 0.0
C1104 C 0.26554 0.20395 0.37798 0.0
H1105 H 0.16596 0.28035 0.42584 0.0
H1106 H 0.20275 0.2679 0.40374 0.0
H1107 H 0.23444 0.19825 0.43111 0.0
H1108 H 0.31342 0.13771 0.35562 0.0
H1109 H 0.27819 0.15598 0.37536 0.0
C1110 C 0.08845 0.10851 0.57388 0.0
C1111 C 0.09146 0.13079 0.5861 0.0
C1112 C 0.07904 0.08827 0.58601 0.0
C1113 C 0.04552 0.07068 0.64234 0.0
H1114 H 0.07253 0.00662 0.62889 0.0
C1115 C 0.03752 0.99072 0.70879 0.0
C1116 C 0.03096 0.96773 0.69967 0.0
C1117 C 0.04258 0.00994 0.69309 0.0
C1118 C 0.06457 0.02435 0.63258 0.0
H1119 H 0.08717 0.14921 0.6207 0.0
H1120 H 0.07136 0.11389 0.64206 0.0
H1121 H 0.08618 0.04162 0.60532 0.0
H1122 H 0.02453 0.94704 0.66671 0.0
H1123 H 0.03399 0.98083 0.63905 0.0
H1124 H 0.02468 0.05346 0.67028 0.0
C1125 C 0.0756 0.1121 0.62291 0.0
C1126 C 0.07235 0.04445 0.61907 0.0
C1127 C 0.08478 0.13239 0.6107 0.0
C1128 C 0.02954 0.9645 0.67432 0.0
C1129 C 0.03502 0.98377 0.65851 0.0
C1130 C 0.03798 0.05066 0.656 0.0
C1131 C 0.07259 0.08972 0.61075 0.0
C1132 C 0.0632 0.06799 0.62401 0.0
C1133 C 0.0415 0.00672 0.6678 0.0
C1134 C 0.04768 0.02735 0.65152 0.0
H1135 H 0.09315 0.1068 0.55481 0.0
H1136 H 0.07662 0.07154 0.57589 0.0
H1137 H 0.03756 0.08833 0.64631 0.0
H1138 H 0.03865 0.99401 0.72818 0.0
H1139 H 0.04776 0.02731 0.7008 0.0
C1140 C 0.16974 0.90455 0.86064 0.0
C1141 C 0.15975 0.89249 0.84045 0.0
C1142 C 0.18965 0.89467 0.87296 0.0
C1143 C 0.22294 0.83743 0.88411 0.0
H1144 H 0.27484 0.88072 0.90351 0.0
C1145 C 0.31202 0.80205 0.92774 0.0
C1146 C 0.3211 0.81549 0.94749 0.0
C1147 C 0.29287 0.81122 0.91369 0.0
C1148 C 0.2604 0.86842 0.89843 0.0
H1149 H 0.16274 0.86045 0.81752 0.0
H1150 H 0.19754 0.84308 0.83921 0.0
H1151 H 0.24016 0.89686 0.88104 0.0
H1152 H 0.31722 0.84915 0.9679 0.0
H1153 H 0.28372 0.86496 0.9436 0.0
H1154 H 0.24309 0.80902 0.90175 0.0
C1155 C 0.18981 0.86014 0.84554 0.0
C1156 C 0.24053 0.87767 0.88555 0.0
C1157 C 0.16988 0.87007 0.83314 0.0
C1158 C 0.31076 0.83837 0.95275 0.0
C1159 C 0.29161 0.8475 0.93873 0.0
C1160 C 0.24281 0.82817 0.89707 0.0
C1161 C 0.20002 0.87245 0.86546 0.0
C1162 C 0.22149 0.86233 0.87841 0.0
C1163 C 0.28238 0.83401 0.91909 0.0
C1164 C 0.26169 0.84361 0.90454 0.0
H1165 H 0.16205 0.92158 0.86708 0.0
H1166 H 0.19678 0.90434 0.88855 0.0
H1167 H 0.20843 0.8252 0.87909 0.0
H1168 H 0.31963 0.78439 0.92314 0.0
H1169 H 0.2864 0.80051 0.8985 0.0
C1170 C 0.4272 0.06871 0.2104 0.0
C1171 C 0.43985 0.08852 0.20047 0.0
C1172 C 0.41899 0.04983 0.19557 0.0
C1173 C 0.42864 0.01981 0.13618 0.0
H1174 H 0.36562 0.99193 0.15011 0.0
C1175 C 0.38644 0.94206 0.07806 0.0
C1176 C 0.37504 0.92326 0.09107 0.0
C1177 C 0.39396 0.96333 0.08993 0.0
C1178 C 0.38335 0.99936 0.14608 0.0
H1179 H 0.4539 0.1038 0.16699 0.0
H1180 H 0.43937 0.07073 0.14097 0.0
H1181 H 0.37937 0.02708 0.17316 0.0
H1182 H 0.36327 0.91201 0.12698 0.0
H1183 H 0.37613 0.94895 0.1475 0.0
H1184 H 0.43262 0.99183 0.10918 0.0
C1185 C 0.43596 0.06984 0.16035 0.0
C1186 C 0.39124 0.01954 0.15931 0.0
C1187 C 0.44417 0.08887 0.17524 0.0
C1188 C 0.37144 0.92628 0.11623 0.0
C1189 C 0.37888 0.9475 0.12804 0.0
C1190 C 0.4207 0.99956 0.12288 0.0
C1191 C 0.42314 0.05015 0.17035 0.0
C1192 C 0.41415 0.02981 0.15484 0.0
C1193 C 0.3902 0.96633 0.11508 0.0
C1194 C 0.39811 0.98885 0.12795 0.0
H1195 H 0.42358 0.06769 0.22973 0.0
H1196 H 0.4096 0.03477 0.204 0.0
H1197 H 0.44646 0.02712 0.13238 0.0
H1198 H 0.3893 0.9405 0.05863 0.0
H1199 H 0.40242 0.97756 0.07935 0.0
C1200 C 0.79828 0.38691 0.69351 0.0
C1201 C 0.82046 0.38782 0.68084 0.0
C1202 C 0.7781 0.37538 0.68332 0.0
C1203 C 0.76057 0.33196 0.6342 0.0
H1204 H 0.69652 0.36058 0.643 0.0
C1205 C 0.6796 0.30939 0.57232 0.0
C1206 C 0.65679 0.30539 0.58309 0.0
C1207 C 0.69914 0.31759 0.58618 0.0
C1208 C 0.71424 0.35219 0.64066 0.0
H1209 H 0.83874 0.37758 0.64743 0.0
H1210 H 0.80349 0.35798 0.62937 0.0
H1211 H 0.7315 0.37881 0.66311 0.0
H1212 H 0.63672 0.30674 0.61701 0.0
H1213 H 0.67102 0.32158 0.64128 0.0
H1214 H 0.74333 0.30587 0.61106 0.0
C1215 C 0.80176 0.36559 0.64747 0.0
C1216 C 0.73434 0.36261 0.6522 0.0
C1217 C 0.822 0.37692 0.65777 0.0
C1218 C 0.65405 0.30965 0.60818 0.0
C1219 C 0.67362 0.31823 0.62204 0.0
C1220 C 0.74054 0.32173 0.62249 0.0
C1221 C 0.77951 0.36463 0.6601 0.0
C1222 C 0.75785 0.35281 0.64888 0.0
C1223 C 0.69638 0.32226 0.61114 0.0
C1224 C 0.7172 0.3319 0.62534 0.0
H1225 H 0.79662 0.39484 0.71148 0.0
H1226 H 0.76146 0.37468 0.69379 0.0
H1227 H 0.77823 0.32352 0.63164 0.0
H1228 H 0.68244 0.30621 0.55308 0.0
H1229 H 0.71635 0.32078 0.57719 0.0
C1230 C 0.92422 0.47819 0.81268 0.0
C1231 C 0.94631 0.46551 0.81569 0.0
C1232 C 0.9193 0.49927 0.82593 0.0
C1233 C 0.9329 0.53206 0.88167 0.0
H1234 H 0.90534 0.58684 0.84644 0.0
C1235 C 0.90269 0.62148 0.92984 0.0
C1236 C 0.88032 0.63139 0.92218 0.0
C1237 C 0.91379 0.60253 0.91678 0.0
C1238 C 0.91285 0.57167 0.8566 0.0
H1239 H 0.98039 0.46487 0.83549 0.0
H1240 H 0.97147 0.50189 0.85916 0.0
H1241 H 0.91935 0.55101 0.8242 0.0
H1242 H 0.85243 0.6295 0.89439 0.0
H1243 H 0.87137 0.59619 0.87205 0.0
H1244 H 0.92559 0.55239 0.91418 0.0
C1245 C 0.95812 0.49535 0.84628 0.0
C1246 C 0.92097 0.5512 0.84384 0.0
C1247 C 0.96322 0.47424 0.83273 0.0
C1248 C 0.86951 0.62213 0.90098 0.0
C1249 C 0.88056 0.60321 0.88797 0.0
C1250 C 0.9246 0.55254 0.89451 0.0
C1251 C 0.93622 0.50823 0.84271 0.0
C1252 C 0.93056 0.53096 0.85625 0.0
C1253 C 0.9028 0.59309 0.89573 0.0
C1254 C 0.91395 0.57237 0.88214 0.0
H1255 H 0.91071 0.47208 0.79976 0.0
H1256 H 0.90209 0.50856 0.82309 0.0
H1257 H 0.9401 0.51665 0.89169 0.0
H1258 H 0.91141 0.62802 0.94622 0.0
H1259 H 0.931 0.5953 0.92316 0.0
C1260 C 0.79619 0.71119 0.07661 0.0
C1261 C 0.80644 0.73441 0.07937 0.0
C1262 C 0.77723 0.70364 0.09161 0.0
C1263 C 0.72834 0.72679 0.13179 0.0
H1264 H 0.72595 0.65924 0.15198 0.0
C1265 C 0.64134 0.68259 0.17093 0.0
C1266 C 0.64401 0.66464 0.18895 0.0
C1267 C 0.66175 0.69249 0.15951 0.0
C1268 C 0.7264 0.67825 0.1468 0.0
H1269 H 0.80476 0.76785 0.10036 0.0
H1270 H 0.77177 0.75448 0.12688 0.0
H1271 H 0.76085 0.67376 0.12932 0.0
H1272 H 0.67027 0.64386 0.20991 0.0
H1273 H 0.70582 0.66128 0.19028 0.0
H1274 H 0.69396 0.73129 0.14962 0.0
C1275 C 0.77829 0.74224 0.11282 0.0
C1276 C 0.74633 0.68652 0.13349 0.0
C1277 C 0.79732 0.74985 0.09772 0.0
C1278 C 0.66758 0.65733 0.19578 0.0
C1279 C 0.68796 0.66731 0.18448 0.0
C1280 C 0.70838 0.71852 0.14519 0.0
C1281 C 0.76798 0.71903 0.10992 0.0
C1282 C 0.74744 0.71081 0.12552 0.0
C1283 C 0.68534 0.68477 0.16593 0.0
C1284 C 0.70705 0.69406 0.15268 0.0
H1285 H 0.80258 0.69882 0.0626 0.0
H1286 H 0.76949 0.68584 0.08851 0.0
H1287 H 0.72848 0.74557 0.12581 0.0
H1288 H 0.62344 0.68845 0.16509 0.0
H1289 H 0.65898 0.70565 0.1451 0.0
C1290 C 0.57349 0.41484 0.41245 0.0
C1291 C 0.57647 0.41585 0.4378 0.0
C1292 C 0.56492 0.43511 0.39964 0.0
C1293 C 0.55856 0.50216 0.40461 0.0
H1294 H 0.51731 0.49401 0.34806 0.0
C1295 C 0.51905 0.58353 0.34947 0.0
C1296 C 0.52129 0.58152 0.32405 0.0
C1297 C 0.52424 0.56356 0.36447 0.0
C1298 C 0.52891 0.49656 0.36376 0.0
H1299 H 0.57208 0.43869 0.46971 0.0
H1300 H 0.55675 0.474 0.44742 0.0
H1301 H 0.52864 0.45859 0.37232 0.0
H1302 H 0.53057 0.55685 0.29452 0.0
H1303 H 0.5395 0.52221 0.32061 0.0
H1304 H 0.55872 0.5402 0.39594 0.0
C1305 C 0.56155 0.45771 0.43733 0.0
C1306 C 0.53548 0.47625 0.37763 0.0
C1307 C 0.57027 0.43746 0.45013 0.0
C1308 C 0.52867 0.5591 0.314 0.0
C1309 C 0.53363 0.53915 0.32895 0.0
C1310 C 0.55183 0.5225 0.3908 0.0
C1311 C 0.55895 0.45687 0.41189 0.0
C1312 C 0.55068 0.47872 0.39804 0.0
C1313 C 0.5315 0.54113 0.35433 0.0
C1314 C 0.53723 0.51986 0.37003 0.0
H1315 H 0.57844 0.39857 0.40239 0.0
H1316 H 0.56358 0.4339 0.38003 0.0
H1317 H 0.57054 0.50474 0.41999 0.0
H1318 H 0.51335 0.60051 0.3578 0.0
H1319 H 0.5223 0.56557 0.38397 0.0
C1320 C 0.30168 0.34786 0.16181 0.0
C1321 C 0.31524 0.36593 0.14996 0.0
C1322 C 0.31329 0.32773 0.17241 0.0
C1323 C 0.37303 0.30679 0.19546 0.0
H1324 H 0.34755 0.24196 0.18506 0.0
C1325 C 0.43083 0.22134 0.21306 0.0
C1326 C 0.41992 0.20092 0.22378 0.0
C1327 C 0.41683 0.24125 0.20564 0.0
C1328 C 0.35471 0.25996 0.18844 0.0
H1329 H 0.35168 0.37722 0.1404 0.0
H1330 H 0.37186 0.34208 0.1586 0.0
H1331 H 0.32538 0.27731 0.16934 0.0
H1332 H 0.38553 0.18547 0.23497 0.0
H1333 H 0.36098 0.2205 0.22206 0.0
H1334 H 0.40241 0.28956 0.21435 0.0
C1335 C 0.35226 0.3435 0.15985 0.0
C1336 C 0.34201 0.28022 0.17942 0.0
C1337 C 0.34067 0.36352 0.14917 0.0
C1338 C 0.39453 0.20088 0.22675 0.0
C1339 C 0.38045 0.22091 0.21927 0.0
C1340 C 0.38566 0.28659 0.20449 0.0
C1341 C 0.33873 0.32532 0.17154 0.0
C1342 C 0.35124 0.30385 0.18249 0.0
C1343 C 0.39149 0.2414 0.20874 0.0
C1344 C 0.3769 0.26289 0.20075 0.0
H1345 H 0.28204 0.34906 0.16256 0.0
H1346 H 0.30235 0.31414 0.18143 0.0
H1347 H 0.38038 0.32476 0.19859 0.0
H1348 H 0.4503 0.22201 0.2103 0.0
H1349 H 0.42591 0.25648 0.19716 0.0
C1350 C 0.91766 0.34941 0.8218 0.0
C1351 C 0.91473 0.35728 0.79765 0.0
C1352 C 0.90413 0.32993 0.83075 0.0
C1353 C 0.87179 0.27527 0.81056 0.0
H1354 H 0.84406 0.27688 0.87538 0.0
C1355 C 0.8136 0.1963 0.84802 0.0
C1356 C 0.81737 0.18973 0.87246 0.0
C1357 C 0.82404 0.21742 0.83853 0.0
C1358 C 0.8519 0.27601 0.85733 0.0
H1359 H 0.89493 0.35104 0.76409 0.0
H1360 H 0.87138 0.31706 0.77976 0.0
H1361 H 0.86488 0.31261 0.8597 0.0
H1362 H 0.83466 0.20067 0.90618 0.0
H1363 H 0.85342 0.23687 0.88951 0.0
H1364 H 0.8593 0.23853 0.80832 0.0
C1365 C 0.88427 0.32588 0.79169 0.0
C1366 C 0.86379 0.29652 0.84834 0.0
C1367 C 0.89768 0.34546 0.78278 0.0
C1368 C 0.83166 0.20491 0.88718 0.0
C1369 C 0.84215 0.22593 0.8777 0.0
C1370 C 0.86003 0.25469 0.8196 0.0
C1371 C 0.88748 0.31778 0.81572 0.0
C1372 C 0.874 0.29633 0.82492 0.0
C1373 C 0.8385 0.23248 0.85325 0.0
C1374 C 0.85009 0.25473 0.84318 0.0
H1375 H 0.93065 0.35808 0.83375 0.0
H1376 H 0.90718 0.32397 0.84928 0.0
H1377 H 0.87974 0.27444 0.79255 0.0
H1378 H 0.80286 0.18495 0.8361 0.0
H1379 H 0.82063 0.22203 0.81969 0.0
C1380 C 0.07615 0.62494 0.11407 0.0
C1381 C 0.08497 0.60364 0.10282 0.0
C1382 C 0.05643 0.63769 0.1043 0.0
C1383 C 0.0035 0.63087 0.06348 0.0
H1384 H 1.00213 0.70131 0.06817 0.0
C1385 C 0.92444 0.6924 0.02674 0.0
C1386 C 0.91622 0.71016 0.04334 0.0
C1387 C 0.94554 0.67877 0.03161 0.0
C1388 C 0.00223 0.68164 0.06677 0.0
H1389 H 0.0799 0.57915 0.07228 0.0
H1390 H 0.04574 0.60182 0.05485 0.0
H1391 H 0.03845 0.679 0.08052 0.0
H1392 H 0.92367 0.72737 0.07812 0.0
H1393 H 0.96026 0.70385 0.08639 0.0
H1394 H 0.96708 0.63374 0.0497 0.0
C1395 C 0.05395 0.60843 0.07147 0.0
C1396 C 0.02301 0.66882 0.07393 0.0
C1397 C 0.07371 0.59559 0.08132 0.0
C1398 C 0.92942 0.71387 0.0649 0.0
C1399 C 0.95053 0.7005 0.0696 0.0
C1400 C 0.98271 0.64376 0.05611 0.0
C1401 C 0.04504 0.62964 0.08288 0.0
C1402 C 0.02373 0.64324 0.07294 0.0
C1403 C 0.95894 0.68293 0.05298 0.0
C1404 C 0.98169 0.66924 0.05823 0.0
H1405 H 0.08456 0.63189 0.13044 0.0
H1406 H 0.04987 0.65372 0.11382 0.0
H1407 H 0.00334 0.61117 0.06261 0.0
H1408 H 0.91467 0.68909 0.00997 0.0
H1409 H 0.95165 0.66534 0.01847 0.0
C1410 C 0.62902 0.85682 0.37667 0.0
C1411 C 0.65418 0.85962 0.37342 0.0
C1412 C 0.61724 0.836 0.36824 0.0
C1413 C 0.62304 0.78402 0.32557 0.0
H1414 H 0.57333 0.75615 0.3668 0.0
C1415 C 0.57356 0.69352 0.30221 0.0
C1416 C 0.54826 0.69365 0.30589 0.0
C1417 C 0.58782 0.71283 0.31067 0.0
C1418 C 0.58703 0.76379 0.35497 0.0
H1419 H 0.68663 0.84271 0.35844 0.0
H1420 H 0.66603 0.8063 0.34368 0.0
H1421 H 0.59551 0.79174 0.38064 0.0
H1422 H 0.51821 0.71422 0.32149 0.0
H1423 H 0.54289 0.74764 0.33602 0.0
H1424 H 0.61437 0.75602 0.29983 0.0
C1425 C 0.65538 0.82037 0.35259 0.0
C1426 C 0.59974 0.78425 0.36289 0.0
C1427 C 0.66719 0.84126 0.36104 0.0
C1428 C 0.53762 0.71342 0.31834 0.0
C1429 C 0.55183 0.73257 0.32685 0.0
C1430 C 0.61031 0.76348 0.31763 0.0
C1431 C 0.63029 0.81737 0.35633 0.0
C1432 C 0.61767 0.79486 0.34818 0.0
C1433 C 0.57709 0.73258 0.32313 0.0
C1434 C 0.59191 0.75333 0.33211 0.0
H1435 H 0.61834 0.87081 0.38568 0.0
H1436 H 0.59781 0.83458 0.37095 0.0
H1437 H 0.63661 0.79182 0.31369 0.0
H1438 H 0.58234 0.67862 0.29264 0.0
H1439 H 0.60726 0.7122 0.30766 0.0
C1440 C 0.54378 0.35189 0.55734 0.0
C1441 C 0.54334 0.32658 0.56114 0.0
C1442 C 0.52392 0.36653 0.56414 0.0
C1443 C 0.45809 0.36321 0.57849 0.0
H1444 H 0.46853 0.42535 0.61016 0.0
C1445 C 0.37838 0.42798 0.6033 0.0
C1446 C 0.37946 0.43948 0.62615 0.0
C1447 C 0.39849 0.41517 0.59415 0.0
C1448 C 0.46529 0.40798 0.60144 0.0
H1449 H 0.52165 0.29691 0.57528 0.0
H1450 H 0.48742 0.32233 0.58728 0.0
H1451 H 0.50338 0.40109 0.59676 0.0
H1452 H 0.40283 0.44689 0.65702 0.0
H1453 H 0.43759 0.42411 0.64137 0.0
H1454 H 0.42008 0.36972 0.58378 0.0
C1455 C 0.50287 0.33089 0.57871 0.0
C1456 C 0.48528 0.3942 0.59349 0.0
C1457 C 0.52265 0.31631 0.57195 0.0
C1458 C 0.40121 0.43798 0.63952 0.0
C1459 C 0.4213 0.42519 0.63037 0.0
C1460 C 0.43813 0.37698 0.58642 0.0
C1461 C 0.50318 0.35617 0.57483 0.0
C1462 C 0.48194 0.37152 0.58215 0.0
C1463 C 0.4202 0.41357 0.6076 0.0
C1464 C 0.44146 0.39944 0.5982 0.0
H1465 H 0.55938 0.36041 0.54899 0.0
H1466 H 0.52468 0.38592 0.56071 0.0
H1467 H 0.45482 0.34597 0.56953 0.0
H1468 H 0.36188 0.4286 0.59259 0.0
H1469 H 0.39707 0.40664 0.57645 0.0
C1470 C 0.13601 0.69711 0.64253 0.0
C1471 C 0.15713 0.6873 0.65321 0.0
C1472 C 0.12522 0.7183 0.6518 0.0
C1473 C 0.12134 0.75774 0.70637 0.0
H1474 H 0.09714 0.80521 0.66003 0.0
C1475 C 0.07897 0.85102 0.73563 0.0
C1476 C 0.0576 0.8579 0.72325 0.0
C1477 C 0.09293 0.83106 0.7276 0.0
C1478 C 0.10363 0.79208 0.67324 0.0
H1479 H 0.18327 0.69216 0.68232 0.0
H1480 H 0.16429 0.7291 0.69859 0.0
H1481 H 0.11749 0.76851 0.64544 0.0
H1482 H 0.03451 0.84915 0.69243 0.0
H1483 H 0.05855 0.81467 0.67876 0.0
H1484 H 0.10716 0.78133 0.73418 0.0
C1485 C 0.15601 0.72024 0.6831 0.0
C1486 C 0.11528 0.77099 0.66486 0.0
C1487 C 0.16687 0.69901 0.67378 0.0
C1488 C 0.0508 0.84452 0.70252 0.0
C1489 C 0.06473 0.82475 0.6945 0.0
C1490 C 0.10962 0.7789 0.71479 0.0
C1491 C 0.1352 0.7303 0.67205 0.0
C1492 C 0.12396 0.75334 0.68127 0.0
C1493 C 0.08595 0.81767 0.70692 0.0
C1494 C 0.10026 0.79615 0.69829 0.0
H1495 H 0.1277 0.68834 0.627 0.0
H1496 H 0.1089 0.72522 0.64314 0.0
H1497 H 0.12768 0.74447 0.71952 0.0
H1498 H 0.08478 0.86083 0.75168 0.0
H1499 H 0.10927 0.8262 0.7375 0.0
C1500 C 0.42949 0.84724 0.95433 0.0
C1501 C 0.42567 0.83958 0.97837 0.0
C1502 C 0.44906 0.8621 0.94852 0.0
C1503 C 0.49733 0.90148 0.9745 0.0
H1504 H 0.52994 0.88476 0.9141 0.0
C1505 C 0.59346 0.93533 0.94727 0.0
C1506 C 0.59657 0.94269 0.92298 0.0
C1507 C 0.57164 0.92488 0.95486 0.0
C1508 C 0.52088 0.88986 0.93088 0.0
H1509 H 0.4388 0.8423 0.01542 0.0
H1510 H 0.4736 0.86782 0.00517 0.0
H1511 H 0.49383 0.86268 0.92612 0.0
H1512 H 0.57914 0.94522 0.88772 0.0
H1513 H 0.54106 0.9269 0.90096 0.0
H1514 H 0.52511 0.92828 0.97938 0.0
C1515 C 0.46119 0.86262 0.99083 0.0
C1516 C 0.5001 0.87724 0.93778 0.0
C1517 C 0.44131 0.84794 0.99672 0.0
C1518 C 0.57723 0.93986 0.90658 0.0
C1519 C 0.55552 0.9292 0.91411 0.0
C1520 C 0.51834 0.91399 0.96766 0.0
C1521 C 0.46561 0.86941 0.96653 0.0
C1522 C 0.4879 0.88298 0.95957 0.0
C1523 C 0.5526 0.92134 0.93825 0.0
C1524 C 0.53023 0.90838 0.94569 0.0
H1525 H 0.41752 0.84145 0.93983 0.0
H1526 H 0.45141 0.86756 0.92975 0.0
H1527 H 0.48831 0.90654 0.99129 0.0
H1528 H 0.60798 0.93751 0.96037 0.0
H1529 H 0.56995 0.91888 0.97354 0.0
C1530 C 0.89561 0.09502 0.43032 0.0
C1531 C 0.88514 0.10044 0.40759 0.0
C1532 C 0.91626 0.10745 0.4384 0.0
C1533 C 0.96811 0.14292 0.41524 0.0
H1534 H 0.97301 0.16732 0.48125 0.0
C1535 C 0.03957 0.21376 0.44254 0.0
C1536 C 0.05047 0.21218 0.46562 0.0
C1537 C 0.0204 0.19848 0.43621 0.0
C1538 C 0.97212 0.16031 0.46285 0.0
H1539 H 0.88775 0.124 0.37604 0.0
H1540 H 0.92371 0.14534 0.38996 0.0
H1541 H 0.93744 0.14387 0.46911 0.0
H1542 H 0.04983 0.19292 0.50005 0.0
H1543 H 0.01651 0.166 0.48884 0.0
H1544 H 0.00265 0.15929 0.40887 0.0
C1545 C 0.91625 0.13117 0.40136 0.0
C1546 C 0.9517 0.1469 0.4559 0.0
C1547 C 0.89561 0.11889 0.39337 0.0
C1548 C 0.04188 0.19466 0.48212 0.0
C1549 C 0.02265 0.17933 0.47575 0.0
C1550 C 0.98852 0.15619 0.4222 0.0
C1551 C 0.92697 0.12549 0.42387 0.0
C1552 C 0.94928 0.1384 0.43189 0.0
C1553 C 0.01159 0.18112 0.45274 0.0
C1554 C 0.99064 0.16542 0.44598 0.0
H1555 H 0.88821 0.08077 0.44166 0.0
H1556 H 0.92417 0.10255 0.45577 0.0
H1557 H 0.96705 0.13618 0.39675 0.0
H1558 H 0.04557 0.22709 0.42939 0.0
H1559 H 0.0121 0.2007 0.41849 0.0
loop_
_geom_bond_atom_site_label_1
_geom_bond_atom_site_label_2
_geom_bond_distance
_geom_bond_site_symmetry_2
_ccdc_geom_bond_type
Tb0 C9 2.764 . S
Tb0 O10 2.325 . S
Tb0 O13 2.303 . S
Tb0 O17 2.322 . S
Tb0 O18 2.349 . S
Tb0 O21 2.415 . S
Tb0 O22 2.399 . S
Tb1 O11 2.322 . S
Tb1 O12 2.349 . S
Tb1 O14 2.415 . S
Tb1 O15 2.399 . S
Tb1 O16 2.325 . S
Tb1 O19 2.303 . S
Tb1 C30 2.764 . S
C2 O18 1.261 . S
C2 O19 1.257 . S
C3 C6 1.358 . S
C3 C7 1.332 . S
C3 C9 1.504 . S
C4 C5 1.373 . S
C4 C8 1.308 . S
C5 C4 1.373 . S
C5 C6 1.429 . S
C5 H32 0.932 . S
C6 C3 1.358 . S
C6 C5 1.429 . S
C6 H33 0.930 . S
C7 C3 1.332 . S
C7 C8 1.394 . S
C7 H34 0.932 . S
C8 C4 1.308 . S
C8 C7 1.394 . S
C8 H35 0.929 . S
C9 Tb0 2.764 . S
C9 C3 1.504 . S
C9 O21 1.239 . S
C9 O22 1.263 . S
O10 Tb0 2.325 . S
O10 C20 1.236 . S
O11 Tb1 2.322 . S
O11 C20 1.257 . S
O12 Tb1 2.349 . S
O12 C23 1.261 . S
O13 Tb0 2.303 . S
O13 C23 1.257 . S
O14 Tb1 2.415 . S
O14 C30 1.239 . S
O15 Tb1 2.399 . S
O15 C30 1.263 . S
O16 Tb1 2.325 . S
O16 C31 1.236 . S
O17 Tb0 2.322 . S
O17 C31 1.257 . S
O18 Tb0 2.349 . S
O18 C2 1.261 . S
O19 Tb1 2.303 . S
O19 C2 1.257 . S
C20 O10 1.236 . S
C20 O11 1.257 . S
O21 Tb0 2.415 . S
O21 C9 1.239 . S
O22 Tb0 2.399 . S
O22 C9 1.263 . S
C23 O12 1.261 . S
C23 O13 1.257 . S
C24 C27 1.358 . S
C24 C28 1.332 . S
C24 C30 1.504 . S
C25 C26 1.373 . S
C25 C29 1.308 . S
C26 C25 1.373 . S
C26 C27 1.429 . S
C26 H36 0.932 . S
C27 C24 1.358 . S
C27 C26 1.429 . S
C27 H37 0.930 . S
C28 C24 1.332 . S
C28 C29 1.394 . S
C28 H38 0.932 . S
C29 C25 1.308 . S
C29 C28 1.394 . S
C29 H39 0.929 . S
C30 Tb1 2.764 . S
C30 O14 1.239 . S
C30 O15 1.263 . S
C30 C24 1.504 . S
C31 O16 1.236 . S
C31 O17 1.257 . S
H32 C5 0.932 . S
H33 C6 0.930 . S
H34 C7 0.932 . S
H35 C8 0.929 . S
H36 C26 0.932 . S
H37 C27 0.930 . S
H38 C28 0.932 . S
H39 C29 0.929 . S
Tb40 C49 2.764 . S
Tb40 O50 2.325 . S
Tb40 O53 2.303 . S
Tb40 O57 2.322 . S
Tb40 O58 2.349 . S
Tb40 O61 2.415 . S
Tb40 O62 2.399 . S
Tb41 O51 2.326 . S
Tb41 O52 2.349 1_655 S
Tb41 O54 2.415 . S
Tb41 O55 2.399 . S
Tb41 O56 2.325 1_655 S
Tb41 O59 2.303 . S
Tb41 C70 2.764 . S
C42 O58 1.261 1_655 S
C42 O59 1.257 . S
C43 C46 1.358 . S
C43 C47 1.332 . S
C43 C49 1.504 . S
C44 C45 1.373 . S
C44 C48 1.308 . S
C45 C44 1.373 . S
C45 C46 1.429 . S
C45 H72 0.932 . S
C46 C43 1.358 . S
C46 C45 1.429 . S
C46 H73 0.930 . S
C47 C43 1.332 . S
C47 C48 1.394 . S
C47 H74 0.932 . S
C48 C44 1.308 . S
C48 C47 1.394 . S
C48 H75 0.929 . S
C49 Tb40 2.764 . S
C49 C43 1.504 . S
C49 O61 1.239 . S
C49 O62 1.263 . S
O50 Tb40 2.325 . S
O50 C60 1.236 . S
O51 Tb41 2.326 . S
O51 C60 1.241 1_655 S
O52 Tb41 2.349 1_455 S
O52 C63 1.261 . S
O53 Tb40 2.303 . S
O53 C63 1.257 . S
O54 Tb41 2.415 . S
O54 C70 1.239 . S
O55 Tb41 2.399 . S
O55 C70 1.263 . S
O56 Tb41 2.325 1_455 S
O56 C71 1.236 . S
O57 Tb40 2.322 . S
O57 C71 1.257 . S
O58 Tb40 2.349 . S
O58 C42 1.261 1_455 S
O59 Tb41 2.303 . S
O59 C42 1.257 . S
C60 O50 1.236 . S
C60 O51 1.241 1_455 S
O61 Tb40 2.415 . S
O61 C49 1.239 . S
O62 Tb40 2.399 . S
O62 C49 1.263 . S
C63 O52 1.261 . S
C63 O53 1.257 . S
C64 C67 1.358 . S
C64 C68 1.332 . S
C64 C70 1.504 . S
C65 C66 1.373 . S
C65 C69 1.308 . S
C66 C65 1.373 . S
C66 C67 1.429 . S
C66 H76 0.932 . S
C67 C64 1.358 . S
C67 C66 1.429 . S
C67 H77 0.930 . S
C68 C64 1.332 . S
C68 C69 1.394 . S
C68 H78 0.932 . S
C69 C65 1.308 . S
C69 C68 1.394 . S
C69 H79 0.929 . S
C70 Tb41 2.764 . S
C70 O54 1.239 . S
C70 O55 1.263 . S
C70 C64 1.504 . S
C71 O56 1.236 . S
C71 O57 1.257 . S
H72 C45 0.932 . S
H73 C46 0.930 . S
H74 C47 0.932 . S
H75 C48 0.929 . S
H76 C66 0.932 . S
H77 C67 0.930 . S
H78 C68 0.932 . S
H79 C69 0.929 . S
Tb80 C89 2.764 . S
Tb80 O90 2.325 . S
Tb80 O93 2.303 . S
Tb80 O97 2.322 . S
Tb80 O98 2.349 . S
Tb80 O101 2.415 . S
Tb80 O102 2.399 . S
Tb81 O91 2.322 . S
Tb81 O92 2.349 1_554 S
Tb81 O94 2.415 . S
Tb81 O95 2.399 . S
Tb81 O96 2.325 1_554 S
Tb81 O99 2.303 . S
Tb81 C110 2.764 . S
C82 O98 1.261 1_554 S
C82 O99 1.257 . S
C83 C86 1.358 . S
C83 C87 1.332 . S
C83 C89 1.504 . S
C84 C85 1.373 . S
C84 C88 1.308 . S
C85 C84 1.373 . S
C85 C86 1.429 . S
C85 H112 0.932 . S
C86 C83 1.358 . S
C86 C85 1.429 . S
C86 H113 0.930 . S
C87 C83 1.332 . S
C87 C88 1.394 . S
C87 H114 0.932 . S
C88 C84 1.308 . S
C88 C87 1.394 . S
C88 H115 0.929 . S
C89 Tb80 2.764 . S
C89 C83 1.504 . S
C89 O101 1.239 . S
C89 O102 1.263 . S
O90 Tb80 2.325 . S
O90 C100 1.236 1_556 S
O91 Tb81 2.322 . S
O91 C100 1.257 . S
O92 Tb81 2.349 1_556 S
O92 C103 1.261 . S
O93 Tb80 2.303 . S
O93 C103 1.257 . S
O94 Tb81 2.415 . S
O94 C110 1.239 . S
O95 Tb81 2.399 . S
O95 C110 1.263 . S
O96 Tb81 2.325 1_556 S
O96 C111 1.236 . S
O97 Tb80 2.322 . S
O97 C111 1.257 . S
O98 Tb80 2.349 . S
O98 C82 1.261 1_556 S
O99 Tb81 2.303 . S
O99 C82 1.257 . S
C100 O90 1.236 1_554 S
C100 O91 1.257 . S
O101 Tb80 2.415 . S
O101 C89 1.239 . S
O102 Tb80 2.399 . S
O102 C89 1.263 . S
C103 O92 1.261 . S
C103 O93 1.257 . S
C104 C107 1.358 . S
C104 C108 1.332 . S
C104 C110 1.504 . S
C105 C106 1.373 . S
C105 C109 1.308 . S
C106 C105 1.373 . S
C106 C107 1.429 . S
C106 H116 0.932 . S
C107 C104 1.358 . S
C107 C106 1.429 . S
C107 H117 0.930 . S
C108 C104 1.332 . S
C108 C109 1.394 . S
C108 H118 0.932 . S
C109 C105 1.308 . S
C109 C108 1.394 . S
C109 H119 0.929 . S
C110 Tb81 2.764 . S
C110 O94 1.239 . S
C110 O95 1.263 . S
C110 C104 1.504 . S
C111 O96 1.236 . S
C111 O97 1.257 . S
H112 C85 0.932 . S
H113 C86 0.930 . S
H114 C87 0.932 . S
H115 C88 0.929 . S
H116 C106 0.932 . S
H117 C107 0.930 . S
H118 C108 0.932 . S
H119 C109 0.929 . S
Tb120 C129 2.764 . S
Tb120 O130 2.325 . S
Tb120 O133 2.303 . S
Tb120 O137 2.322 . S
Tb120 O138 2.349 . S
Tb120 O141 2.415 . S
Tb120 O142 2.399 . S
Tb121 O131 2.322 . S
Tb121 O132 2.349 . S
Tb121 O134 2.415 . S
Tb121 O135 2.399 . S
Tb121 O136 2.325 . S
Tb121 O139 2.303 . S
Tb121 C150 2.764 . S
C122 O138 1.261 . S
C122 O139 1.257 . S
C123 C126 1.358 . S
C123 C127 1.332 . S
C123 C129 1.504 . S
C124 C125 1.373 . S
C124 C128 1.308 . S
C125 C124 1.373 . S
C125 C126 1.429 . S
C125 H152 0.932 . S
C126 C123 1.358 . S
C126 C125 1.429 . S
C126 H153 0.930 . S
C127 C123 1.332 . S
C127 C128 1.394 . S
C127 H154 0.932 . S
C128 C124 1.308 . S
C128 C127 1.394 . S
C128 H155 0.929 . S
C129 Tb120 2.764 . S
C129 C123 1.504 . S
C129 O141 1.239 . S
C129 O142 1.263 . S
O130 Tb120 2.325 . S
O130 C140 1.236 . S
O131 Tb121 2.322 . S
O131 C140 1.257 . S
O132 Tb121 2.349 . S
O132 C143 1.261 . S
O133 Tb120 2.303 . S
O133 C143 1.257 . S
O134 Tb121 2.415 . S
O134 C150 1.239 . S
O135 Tb121 2.399 . S
O135 C150 1.263 . S
O136 Tb121 2.325 . S
O136 C151 1.236 . S
O137 Tb120 2.322 . S
O137 C151 1.257 . S
O138 Tb120 2.349 . S
O138 C122 1.261 . S
O139 Tb121 2.303 . S
O139 C122 1.257 . S
C140 O130 1.236 . S
C140 O131 1.257 . S
O141 Tb120 2.415 . S
O141 C129 1.239 . S
O142 Tb120 2.399 . S
O142 C129 1.263 . S
C143 O132 1.261 . S
C143 O133 1.257 . S
C144 C147 1.358 . S
C144 C148 1.332 . S
C144 C150 1.504 . S
C145 C146 1.373 . S
C145 C149 1.308 . S
C146 C145 1.373 . S
C146 C147 1.429 . S
C146 H156 0.932 . S
C147 C144 1.358 . S
C147 C146 1.429 . S
C147 H157 0.930 . S
C148 C144 1.332 . S
C148 C149 1.394 . S
C148 H158 0.932 . S
C149 C145 1.308 . S
C149 C148 1.394 . S
C149 H159 0.929 . S
C150 Tb121 2.764 . S
C150 O134 1.239 . S
C150 O135 1.263 . S
C150 C144 1.504 . S
C151 O136 1.236 . S
C151 O137 1.257 . S
H152 C125 0.932 . S
H153 C126 0.930 . S
H154 C127 0.932 . S
H155 C128 0.929 . S
H156 C146 0.932 . S
H157 C147 0.930 . S
H158 C148 0.932 . S
H159 C149 0.929 . S
Tb160 C169 2.764 . S
Tb160 O170 2.325 . S
Tb160 O173 2.303 . S
Tb160 O177 2.322 . S
Tb160 O178 2.349 . S
Tb160 O181 2.415 . S
Tb160 O182 2.399 . S
Tb161 O171 2.322 . S
Tb161 O172 2.349 . S
Tb161 O174 2.415 . S
Tb161 O175 2.399 . S
Tb161 O176 2.325 . S
Tb161 O179 2.303 . S
Tb161 C190 2.764 . S
C162 O178 1.261 . S
C162 O179 1.257 . S
C163 C166 1.358 . S
C163 C167 1.332 . S
C163 C169 1.504 . S
C164 C165 1.373 . S
C164 C168 1.308 . S
C165 C164 1.373 . S
C165 C166 1.429 . S
C165 H192 0.932 . S
C166 C163 1.358 . S
C166 C165 1.429 . S
C166 H193 0.930 . S
C167 C163 1.332 . S
C167 C168 1.394 . S
C167 H194 0.932 . S
C168 C164 1.308 . S
C168 C167 1.394 . S
C168 H195 0.929 . S
C169 Tb160 2.764 . S
C169 C163 1.504 . S
C169 O181 1.239 . S
C169 O182 1.263 . S
O170 Tb160 2.325 . S
O170 C180 1.236 . S
O171 Tb161 2.322 . S
O171 C180 1.257 . S
O172 Tb161 2.349 . S
O172 C183 1.261 . S
O173 Tb160 2.303 . S
O173 C183 1.257 . S
O174 Tb161 2.415 . S
O174 C190 1.239 . S
O175 Tb161 2.399 . S
O175 C190 1.263 . S
O176 Tb161 2.325 . S
O176 C191 1.236 . S
O177 Tb160 2.322 . S
O177 C191 1.257 . S
O178 Tb160 2.349 . S
O178 C162 1.261 . S
O179 Tb161 2.303 . S
O179 C162 1.257 . S
C180 O170 1.236 . S
C180 O171 1.257 . S
O181 Tb160 2.415 . S
O181 C169 1.239 . S
O182 Tb160 2.399 . S
O182 C169 1.263 . S
C183 O172 1.261 . S
C183 O173 1.257 . S
C184 C187 1.358 . S
C184 C188 1.332 . S
C184 C190 1.504 . S
C185 C186 1.373 . S
C185 C189 1.308 . S
C186 C185 1.373 . S
C186 C187 1.429 . S
C186 H196 0.932 . S
C187 C184 1.358 . S
C187 C186 1.429 . S
C187 H197 0.930 . S
C188 C184 1.332 . S
C188 C189 1.394 . S
C188 H198 0.932 . S
C189 C185 1.308 . S
C189 C188 1.394 . S
C189 H199 0.929 . S
C190 Tb161 2.764 . S
C190 O174 1.239 . S
C190 O175 1.263 . S
C190 C184 1.504 . S
C191 O176 1.236 . S
C191 O177 1.257 . S
H192 C165 0.932 . S
H193 C166 0.930 . S
H194 C167 0.932 . S
H195 C168 0.929 . S
H196 C186 0.932 . S
H197 C187 0.930 . S
H198 C188 0.932 . S
H199 C189 0.929 . S
Tb200 C209 2.764 1_655 S
Tb200 O210 2.325 1_655 S
Tb200 O213 2.303 . S
Tb200 O217 2.322 . S
Tb200 O218 2.349 1_655 S
Tb200 O221 2.415 1_655 S
Tb200 O222 2.399 1_655 S
Tb201 O211 2.322 . S
Tb201 O212 2.349 . S
Tb201 O214 2.415 . S
Tb201 O215 2.399 . S
Tb201 O216 2.325 . S
Tb201 O219 2.303 . S
Tb201 C230 2.764 . S
C202 O218 1.261 1_655 S
C202 O219 1.257 . S
C203 C206 1.358 . S
C203 C207 1.332 . S
C203 C209 1.504 . S
C204 C205 1.373 . S
C204 C208 1.308 . S
C205 C204 1.373 . S
C205 C206 1.429 . S
C205 H232 0.932 . S
C206 C203 1.358 . S
C206 C205 1.429 . S
C206 H233 0.930 . S
C207 C203 1.332 . S
C207 C208 1.394 . S
C207 H234 0.932 . S
C208 C204 1.308 . S
C208 C207 1.394 . S
C208 H235 0.929 . S
C209 Tb200 2.764 1_455 S
C209 C203 1.504 . S
C209 O221 1.239 . S
C209 O222 1.263 . S
O210 Tb200 2.325 1_455 S
O210 C220 1.236 1_455 S
O211 Tb201 2.322 . S
O211 C220 1.257 . S
O212 Tb201 2.349 . S
O212 C223 1.261 . S
O213 Tb200 2.303 . S
O213 C223 1.257 . S
O214 Tb201 2.415 . S
O214 C230 1.239 . S
O215 Tb201 2.399 . S
O215 C230 1.263 . S
O216 Tb201 2.325 . S
O216 C231 1.236 . S
O217 Tb200 2.322 . S
O217 C231 1.257 . S
O218 Tb200 2.349 1_455 S
O218 C202 1.261 1_455 S
O219 Tb201 2.303 . S
O219 C202 1.257 . S
C220 O210 1.236 1_655 S
C220 O211 1.257 . S
O221 Tb200 2.415 1_455 S
O221 C209 1.239 . S
O222 Tb200 2.399 1_455 S
O222 C209 1.263 . S
C223 O212 1.261 . S
C223 O213 1.257 . S
C224 C227 1.358 . S
C224 C228 1.332 . S
C224 C230 1.504 . S
C225 C226 1.373 . S
C225 C229 1.308 . S
C226 C225 1.373 . S
C226 C227 1.429 . S
C226 H236 0.932 . S
C227 C224 1.358 . S
C227 C226 1.429 . S
C227 H237 0.930 . S
C228 C224 1.332 . S
C228 C229 1.394 . S
C228 H238 0.932 . S
C229 C225 1.308 . S
C229 C228 1.394 . S
C229 H239 0.929 . S
C230 Tb201 2.764 . S
C230 O214 1.239 . S
C230 O215 1.263 . S
C230 C224 1.504 . S
C231 O216 1.236 . S
C231 O217 1.257 . S
H232 C205 0.932 . S
H233 C206 0.930 . S
H234 C207 0.932 . S
H235 C208 0.929 . S
H236 C226 0.932 . S
H237 C227 0.930 . S
H238 C228 0.932 . S
H239 C229 0.929 . S
Tb240 C249 2.764 . S
Tb240 O250 2.325 . S
Tb240 O253 2.303 1_556 S
Tb240 O257 2.322 1_556 S
Tb240 O258 2.349 . S
Tb240 O261 2.415 . S
Tb240 O262 2.399 . S
Tb241 O251 2.322 . S
Tb241 O252 2.349 . S
Tb241 O254 2.415 . S
Tb241 O255 2.399 . S
Tb241 O256 2.325 . S
Tb241 O259 2.303 . S
Tb241 C270 2.764 . S
C242 O258 1.261 . S
C242 O259 1.257 1_556 S
C243 C246 1.358 . S
C243 C247 1.332 . S
C243 C249 1.504 . S
C244 C245 1.373 . S
C244 C248 1.308 . S
C245 C244 1.373 . S
C245 C246 1.429 . S
C245 H272 0.932 . S
C246 C243 1.358 . S
C246 C245 1.429 . S
C246 H273 0.930 . S
C247 C243 1.332 . S
C247 C248 1.394 . S
C247 H274 0.932 . S
C248 C244 1.308 . S
C248 C247 1.394 . S
C248 H275 0.929 . S
C249 Tb240 2.764 . S
C249 C243 1.504 . S
C249 O261 1.239 . S
C249 O262 1.263 . S
O250 Tb240 2.325 . S
O250 C260 1.236 . S
O251 Tb241 2.322 . S
O251 C260 1.257 1_554 S
O252 Tb241 2.349 . S
O252 C263 1.261 . S
O253 Tb240 2.303 1_554 S
O253 C263 1.257 . S
O254 Tb241 2.415 . S
O254 C270 1.239 . S
O255 Tb241 2.399 . S
O255 C270 1.263 . S
O256 Tb241 2.325 . S
O256 C271 1.236 . S
O257 Tb240 2.322 1_554 S
O257 C271 1.257 . S
O258 Tb240 2.349 . S
O258 C242 1.261 . S
O259 Tb241 2.303 . S
O259 C242 1.257 1_554 S
C260 O250 1.236 . S
C260 O251 1.257 1_556 S
O261 Tb240 2.415 . S
O261 C249 1.239 . S
O262 Tb240 2.399 . S
O262 C249 1.263 . S
C263 O252 1.261 . S
C263 O253 1.257 . S
C264 C267 1.358 . S
C264 C268 1.332 . S
C264 C270 1.504 . S
C265 C266 1.373 . S
C265 C269 1.308 . S
C266 C265 1.373 . S
C266 C267 1.429 . S
C266 H276 0.932 . S
C267 C264 1.358 . S
C267 C266 1.429 . S
C267 H277 0.930 . S
C268 C264 1.332 . S
C268 C269 1.394 . S
C268 H278 0.932 . S
C269 C265 1.308 . S
C269 C268 1.394 . S
C269 H279 0.929 . S
C270 Tb241 2.764 . S
C270 O254 1.239 . S
C270 O255 1.263 . S
C270 C264 1.504 . S
C271 O256 1.236 . S
C271 O257 1.257 . S
H272 C245 0.932 . S
H273 C246 0.930 . S
H274 C247 0.932 . S
H275 C248 0.929 . S
H276 C266 0.932 . S
H277 C267 0.930 . S
H278 C268 0.932 . S
H279 C269 0.929 . S
Tb280 C289 2.764 . S
Tb280 O290 2.325 . S
Tb280 O293 2.303 . S
Tb280 O297 2.322 . S
Tb280 O298 2.349 . S
Tb280 O301 2.415 . S
Tb280 O302 2.399 . S
Tb281 O291 2.322 . S
Tb281 O292 2.349 . S
Tb281 O294 2.415 . S
Tb281 O295 2.399 . S
Tb281 O296 2.325 . S
Tb281 O299 2.303 . S
Tb281 C310 2.764 . S
C282 O298 1.261 . S
C282 O299 1.257 . S
C283 C286 1.358 . S
C283 C287 1.332 . S
C283 C289 1.504 . S
C284 C285 1.373 . S
C284 C288 1.308 . S
C285 C284 1.373 . S
C285 C286 1.429 . S
C285 H312 0.932 . S
C286 C283 1.358 . S
C286 C285 1.429 . S
C286 H313 0.930 . S
C287 C283 1.332 . S
C287 C288 1.394 . S
C287 H314 0.932 . S
C288 C284 1.308 . S
C288 C287 1.394 . S
C288 H315 0.929 . S
C289 Tb280 2.764 . S
C289 C283 1.504 . S
C289 O301 1.239 . S
C289 O302 1.263 . S
O290 Tb280 2.325 . S
O290 C300 1.236 . S
O291 Tb281 2.322 . S
O291 C300 1.257 . S
O292 Tb281 2.349 . S
O292 C303 1.261 . S
O293 Tb280 2.303 . S
O293 C303 1.257 . S
O294 Tb281 2.415 . S
O294 C310 1.239 . S
O295 Tb281 2.399 . S
O295 C310 1.263 . S
O296 Tb281 2.325 . S
O296 C311 1.236 . S
O297 Tb280 2.322 . S
O297 C311 1.257 . S
O298 Tb280 2.349 . S
O298 C282 1.261 . S
O299 Tb281 2.303 . S
O299 C282 1.257 . S
C300 O290 1.236 . S
C300 O291 1.257 . S
O301 Tb280 2.415 . S
O301 C289 1.239 . S
O302 Tb280 2.399 . S
O302 C289 1.263 . S
C303 O292 1.261 . S
C303 O293 1.257 . S
C304 C307 1.358 . S
C304 C308 1.332 . S
C304 C310 1.504 . S
C305 C306 1.373 . S
C305 C309 1.308 . S
C306 C305 1.373 . S
C306 C307 1.429 . S
C306 H316 0.932 . S
C307 C304 1.358 . S
C307 C306 1.429 . S
C307 H317 0.930 . S
C308 C304 1.332 . S
C308 C309 1.394 . S
C308 H318 0.932 . S
C309 C305 1.308 . S
C309 C308 1.394 . S
C309 H319 0.929 . S
C310 Tb281 2.764 . S
C310 O294 1.239 . S
C310 O295 1.263 . S
C310 C304 1.504 . S
C311 O296 1.236 . S
C311 O297 1.257 . S
H312 C285 0.932 . S
H313 C286 0.930 . S
H314 C287 0.932 . S
H315 C288 0.929 . S
H316 C306 0.932 . S
H317 C307 0.930 . S
H318 C308 0.932 . S
H319 C309 0.929 . S
Tb320 C329 2.764 . S
Tb320 O330 2.325 . S
Tb320 O333 2.303 . S
Tb320 O337 2.322 . S
Tb320 O338 2.349 . S
Tb320 O341 2.415 . S
Tb320 O342 2.399 . S
Tb321 O331 2.322 . S
Tb321 O332 2.349 . S
Tb321 O334 2.415 . S
Tb321 O335 2.399 . S
Tb321 O336 2.325 . S
Tb321 O339 2.303 . S
Tb321 C350 2.764 . S
C322 O338 1.261 . S
C322 O339 1.257 . S
C323 C326 1.358 . S
C323 C327 1.332 . S
C323 C329 1.504 . S
C324 C325 1.373 . S
C324 C328 1.308 . S
C325 C324 1.373 . S
C325 C326 1.429 . S
C325 H352 0.932 . S
C326 C323 1.358 . S
C326 C325 1.429 . S
C326 H353 0.930 . S
C327 C323 1.332 . S
C327 C328 1.394 . S
C327 H354 0.932 . S
C328 C324 1.308 . S
C328 C327 1.394 . S
C328 H355 0.929 . S
C329 Tb320 2.764 . S
C329 C323 1.504 . S
C329 O341 1.239 . S
C329 O342 1.263 . S
O330 Tb320 2.325 . S
O330 C340 1.236 . S
O331 Tb321 2.322 . S
O331 C340 1.257 . S
O332 Tb321 2.349 . S
O332 C343 1.261 . S
O333 Tb320 2.303 . S
O333 C343 1.257 . S
O334 Tb321 2.415 . S
O334 C350 1.239 . S
O335 Tb321 2.399 . S
O335 C350 1.263 . S
O336 Tb321 2.325 . S
O336 C351 1.236 . S
O337 Tb320 2.322 . S
O337 C351 1.257 . S
O338 Tb320 2.349 . S
O338 C322 1.261 . S
O339 Tb321 2.303 . S
O339 C322 1.257 . S
C340 O330 1.236 . S
C340 O331 1.257 . S
O341 Tb320 2.415 . S
O341 C329 1.239 . S
O342 Tb320 2.399 . S
O342 C329 1.263 . S
C343 O332 1.261 . S
C343 O333 1.257 . S
C344 C347 1.358 . S
C344 C348 1.332 . S
C344 C350 1.504 . S
C345 C346 1.373 . S
C345 C349 1.308 . S
C346 C345 1.373 . S
C346 C347 1.429 . S
C346 H356 0.932 . S
C347 C344 1.358 . S
C347 C346 1.429 . S
C347 H357 0.930 . S
C348 C344 1.332 . S
C348 C349 1.394 . S
C348 H358 0.932 . S
C349 C345 1.308 . S
C349 C348 1.394 . S
C349 H359 0.929 . S
C350 Tb321 2.764 . S
C350 O334 1.239 . S
C350 O335 1.263 . S
C350 C344 1.504 . S
C351 O336 1.236 . S
C351 O337 1.257 . S
H352 C325 0.932 . S
H353 C326 0.930 . S
H354 C327 0.932 . S
H355 C328 0.929 . S
H356 C346 0.932 . S
H357 C347 0.930 . S
H358 C348 0.932 . S
H359 C349 0.929 . S
Tb360 C369 2.764 . S
Tb360 O370 2.325 . S
Tb360 O373 2.303 . S
Tb360 O377 2.322 . S
Tb360 O378 2.349 . S
Tb360 O381 2.415 . S
Tb360 O382 2.399 . S
Tb361 O371 2.322 . S
Tb361 O372 2.349 . S
Tb361 O374 2.415 1_545 S
Tb361 O375 2.399 1_545 S
Tb361 O376 2.325 . S
Tb361 O379 2.303 . S
Tb361 C390 2.764 1_545 S
C362 O378 1.261 . S
C362 O379 1.257 . S
C363 C366 1.358 . S
C363 C367 1.332 . S
C363 C369 1.504 . S
C364 C365 1.373 . S
C364 C368 1.308 . S
C365 C364 1.373 . S
C365 C366 1.429 . S
C365 H392 0.932 . S
C366 C363 1.358 . S
C366 C365 1.429 . S
C366 H393 0.930 . S
C367 C363 1.332 . S
C367 C368 1.394 . S
C367 H394 0.932 . S
C368 C364 1.308 . S
C368 C367 1.394 . S
C368 H395 0.929 . S
C369 Tb360 2.764 . S
C369 C363 1.504 . S
C369 O381 1.239 . S
C369 O382 1.263 . S
O370 Tb360 2.325 . S
O370 C380 1.236 . S
O371 Tb361 2.322 . S
O371 C380 1.257 . S
O372 Tb361 2.349 . S
O372 C383 1.261 . S
O373 Tb360 2.303 . S
O373 C383 1.257 . S
O374 Tb361 2.415 1_565 S
O374 C390 1.239 . S
O375 Tb361 2.399 1_565 S
O375 C390 1.263 . S
O376 Tb361 2.325 . S
O376 C391 1.236 . S
O377 Tb360 2.322 . S
O377 C391 1.257 . S
O378 Tb360 2.349 . S
O378 C362 1.261 . S
O379 Tb361 2.303 . S
O379 C362 1.257 . S
C380 O370 1.236 . S
C380 O371 1.257 . S
O381 Tb360 2.415 . S
O381 C369 1.239 . S
O382 Tb360 2.399 . S
O382 C369 1.263 . S
C383 O372 1.261 . S
C383 O373 1.257 . S
C384 C387 1.358 . S
C384 C388 1.332 . S
C384 C390 1.504 . S
C385 C386 1.373 . S
C385 C389 1.308 . S
C386 C385 1.373 . S
C386 C387 1.429 . S
C386 H396 0.932 . S
C387 C384 1.358 . S
C387 C386 1.429 . S
C387 H397 0.930 . S
C388 C384 1.332 . S
C388 C389 1.394 . S
C388 H398 0.932 . S
C389 C385 1.308 . S
C389 C388 1.394 . S
C389 H399 0.929 . S
C390 Tb361 2.764 1_565 S
C390 O374 1.239 . S
C390 O375 1.263 . S
C390 C384 1.504 . S
C391 O376 1.236 . S
C391 O377 1.257 . S
H392 C365 0.932 . S
H393 C366 0.930 . S
H394 C367 0.932 . S
H395 C368 0.929 . S
H396 C386 0.932 . S
H397 C387 0.930 . S
H398 C388 0.932 . S
H399 C389 0.929 . S
Tb400 C409 2.764 . S
Tb400 O410 2.325 . S
Tb400 O413 2.303 . S
Tb400 O417 2.322 . S
Tb400 O418 2.349 . S
Tb400 O421 2.415 . S
Tb400 O422 2.399 . S
Tb401 O411 2.322 . S
Tb401 O412 2.349 1_545 S
Tb401 O414 2.415 . S
Tb401 O415 2.399 . S
Tb401 O416 2.325 1_545 S
Tb401 O419 2.303 . S
Tb401 C430 2.764 . S
C402 O418 1.261 1_545 S
C402 O419 1.257 . S
C403 C406 1.358 . S
C403 C407 1.332 . S
C403 C409 1.504 . S
C404 C405 1.373 . S
C404 C408 1.308 . S
C405 C404 1.373 . S
C405 C406 1.429 . S
C405 H432 0.932 . S
C406 C403 1.358 . S
C406 C405 1.429 . S
C406 H433 0.930 . S
C407 C403 1.332 . S
C407 C408 1.394 . S
C407 H434 0.932 . S
C408 C404 1.308 . S
C408 C407 1.394 . S
C408 H435 0.929 . S
C409 Tb400 2.764 . S
C409 C403 1.504 . S
C409 O421 1.239 . S
C409 O422 1.263 . S
O410 Tb400 2.325 . S
O410 C420 1.236 . S
O411 Tb401 2.322 . S
O411 C420 1.257 1_545 S
O412 Tb401 2.349 1_565 S
O412 C423 1.261 . S
O413 Tb400 2.303 . S
O413 C423 1.257 . S
O414 Tb401 2.415 . S
O414 C430 1.239 . S
O415 Tb401 2.399 . S
O415 C430 1.263 . S
O416 Tb401 2.325 1_565 S
O416 C431 1.236 . S
O417 Tb400 2.322 . S
O417 C431 1.257 . S
O418 Tb400 2.349 . S
O418 C402 1.261 1_565 S
O419 Tb401 2.303 . S
O419 C402 1.257 . S
C420 O410 1.236 . S
C420 O411 1.257 1_565 S
O421 Tb400 2.415 . S
O421 C409 1.239 . S
O422 Tb400 2.399 . S
O422 C409 1.263 . S
C423 O412 1.261 . S
C423 O413 1.257 . S
C424 C427 1.358 . S
C424 C428 1.332 . S
C424 C430 1.504 . S
C425 C426 1.373 . S
C425 C429 1.308 . S
C426 C425 1.373 . S
C426 C427 1.429 . S
C426 H436 0.932 . S
C427 C424 1.358 . S
C427 C426 1.429 . S
C427 H437 0.930 . S
C428 C424 1.332 . S
C428 C429 1.394 . S
C428 H438 0.932 . S
C429 C425 1.308 . S
C429 C428 1.394 . S
C429 H439 0.929 . S
C430 Tb401 2.764 . S
C430 O414 1.239 . S
C430 O415 1.263 . S
C430 C424 1.504 . S
C431 O416 1.236 . S
C431 O417 1.257 . S
H432 C405 0.932 . S
H433 C406 0.930 . S
H434 C407 0.932 . S
H435 C408 0.929 . S
H436 C426 0.932 . S
H437 C427 0.930 . S
H438 C428 0.932 . S
H439 C429 0.929 . S
Tb440 C449 2.764 . S
Tb440 O450 2.325 . S
Tb440 O453 2.303 . S
Tb440 O457 2.322 . S
Tb440 O458 2.349 . S
Tb440 O461 2.415 . S
Tb440 O462 2.399 . S
Tb441 O451 2.322 . S
Tb441 O452 2.349 . S
Tb441 O454 2.415 . S
Tb441 O455 2.399 . S
Tb441 O456 2.325 . S
Tb441 O459 2.303 . S
Tb441 C470 2.764 . S
C442 O458 1.261 . S
C442 O459 1.257 . S
C443 C446 1.358 . S
C443 C447 1.332 . S
C443 C449 1.504 . S
C444 C445 1.373 . S
C444 C448 1.308 . S
C445 C444 1.373 . S
C445 C446 1.429 . S
C445 H472 0.932 . S
C446 C443 1.358 . S
C446 C445 1.429 . S
C446 H473 0.930 . S
C447 C443 1.332 . S
C447 C448 1.394 . S
C447 H474 0.932 . S
C448 C444 1.308 . S
C448 C447 1.394 . S
C448 H475 0.929 . S
C449 Tb440 2.764 . S
C449 C443 1.504 . S
C449 O461 1.239 . S
C449 O462 1.263 . S
O450 Tb440 2.325 . S
O450 C460 1.236 . S
O451 Tb441 2.322 . S
O451 C460 1.257 . S
O452 Tb441 2.349 . S
O452 C463 1.261 . S
O453 Tb440 2.303 . S
O453 C463 1.257 . S
O454 Tb441 2.415 . S
O454 C470 1.239 . S
O455 Tb441 2.399 . S
O455 C470 1.263 . S
O456 Tb441 2.325 . S
O456 C471 1.236 . S
O457 Tb440 2.322 . S
O457 C471 1.257 . S
O458 Tb440 2.349 . S
O458 C442 1.261 . S
O459 Tb441 2.303 . S
O459 C442 1.257 . S
C460 O450 1.236 . S
C460 O451 1.257 . S
O461 Tb440 2.415 . S
O461 C449 1.239 . S
O462 Tb440 2.399 . S
O462 C449 1.263 . S
C463 O452 1.261 . S
C463 O453 1.257 . S
C464 C467 1.358 . S
C464 C468 1.332 . S
C464 C470 1.504 . S
C465 C466 1.373 . S
C465 C469 1.308 . S
C466 C465 1.373 . S
C466 C467 1.429 . S
C466 H476 0.932 . S
C467 C464 1.358 . S
C467 C466 1.429 . S
C467 H477 0.930 . S
C468 C464 1.332 . S
C468 C469 1.394 . S
C468 H478 0.932 . S
C469 C465 1.308 . S
C469 C468 1.394 . S
C469 H479 0.929 . S
C470 Tb441 2.764 . S
C470 O454 1.239 . S
C470 O455 1.263 . S
C470 C464 1.504 . S
C471 O456 1.236 . S
C471 O457 1.257 . S
H472 C445 0.932 . S
H473 C446 0.930 . S
H474 C447 0.932 . S
H475 C448 0.929 . S
H476 C466 0.932 . S
H477 C467 0.930 . S
H478 C468 0.932 . S
H479 C469 0.929 . S
C480 C481 1.349 . S
C480 C482 1.327 . S
C480 H505 0.950 . S
C481 C480 1.349 . S
C481 C497 1.349 . S
C482 C480 1.327 . S
C482 C501 1.429 . S
C482 H506 0.950 . S
C483 C500 1.574 . S
C483 C502 1.368 . S
C483 H507 0.949 . S
H484 C488 0.949 . S
C485 C486 1.349 . S
C485 C487 1.327 . S
C485 H508 0.950 . S
C486 C485 1.349 . S
C486 C498 1.349 . S
C487 C485 1.327 . S
C487 C503 1.429 . S
C487 H509 0.950 . S
C488 H484 0.949 . S
C488 C496 1.574 . S
C488 C504 1.368 . S
H489 C497 0.950 . S
H490 C495 0.950 . S
H491 C496 0.949 . S
H492 C498 0.950 . S
H493 C499 0.950 . S
H494 C500 0.949 . S
C495 H490 0.950 . S
C495 C497 1.327 . S
C495 C501 1.429 . S
C496 C488 1.574 . S
C496 H491 0.949 . S
C496 C502 1.368 . S
C497 C481 1.349 . S
C497 H489 0.950 . S
C497 C495 1.327 . S
C498 C486 1.349 . S
C498 H492 0.950 . S
C498 C499 1.327 . S
C499 H493 0.950 . S
C499 C498 1.327 . S
C499 C503 1.429 . S
C500 C483 1.574 . S
C500 H494 0.949 . S
C500 C504 1.368 . S
C501 C482 1.429 . S
C501 C495 1.429 . S
C501 C502 1.523 . S
C502 C483 1.368 . S
C502 C496 1.368 . S
C502 C501 1.523 . S
C503 C487 1.429 . S
C503 C499 1.429 . S
C503 C504 1.523 . S
C504 C488 1.368 . S
C504 C500 1.368 . S
C504 C503 1.523 . S
H505 C480 0.950 . S
H506 C482 0.950 . S
H507 C483 0.949 . S
H508 C485 0.950 . S
H509 C487 0.950 . S
C510 C511 1.349 1_565 S
C510 C512 1.327 . S
C510 H535 0.950 . S
C511 C510 1.349 1_545 S
C511 C527 1.349 . S
C512 C510 1.327 . S
C512 C531 1.429 1_565 S
C512 H536 0.950 . S
C513 C530 1.574 . S
C513 C532 1.368 1_545 S
C513 H537 0.949 . S
H514 C518 0.949 . S
C515 C516 1.349 . S
C515 C517 1.327 . S
C515 H538 0.950 . S
C516 C515 1.349 . S
C516 C528 1.349 . S
C517 C515 1.327 . S
C517 C533 1.429 . S
C517 H539 0.950 1_565 S
C518 H514 0.949 . S
C518 C526 1.574 . S
C518 C534 1.368 . S
H519 C527 0.950 . S
H520 C525 0.950 . S
H521 C526 0.949 . S
H522 C528 0.950 . S
H523 C529 0.950 . S
H524 C530 0.949 . S
C525 H520 0.950 . S
C525 C527 1.327 . S
C525 C531 1.429 . S
C526 C518 1.574 . S
C526 H521 0.949 . S
C526 C532 1.368 . S
C527 C511 1.349 . S
C527 H519 0.950 . S
C527 C525 1.327 . S
C528 C516 1.349 . S
C528 H522 0.950 . S
C528 C529 1.327 . S
C529 H523 0.950 . S
C529 C528 1.327 . S
C529 C533 1.429 . S
C530 C513 1.574 . S
C530 H524 0.949 . S
C530 C534 1.368 1_545 S
C531 C512 1.429 1_545 S
C531 C525 1.429 . S
C531 C532 1.523 1_545 S
C532 C513 1.368 1_565 S
C532 C526 1.368 . S
C532 C531 1.523 1_565 S
C533 C517 1.429 . S
C533 C529 1.429 . S
C533 C534 1.523 . S
C534 C518 1.368 . S
C534 C530 1.368 1_565 S
C534 C533 1.523 . S
H535 C510 0.950 . S
H536 C512 0.950 . S
H537 C513 0.949 . S
H538 C515 0.950 . S
H539 C517 0.950 1_545 S
C540 C541 1.349 . S
C540 C542 1.327 . S
C540 H565 0.950 . S
C541 C540 1.349 . S
C541 C557 1.357 . S
C542 C540 1.327 . S
C542 C561 1.429 . S
C542 H566 0.950 . S
C543 C560 1.574 . S
C543 C562 1.368 . S
C543 H567 0.949 . S
H544 C548 0.949 . S
C545 C546 1.349 . S
C545 C547 1.327 . S
C545 H568 0.950 . S
C546 C545 1.349 . S
C546 C558 1.349 . S
C547 C545 1.327 . S
C547 C563 1.429 . S
C547 H569 0.950 . S
C548 H544 0.949 . S
C548 C556 1.574 . S
C548 C564 1.368 . S
H549 C557 0.934 1_556 S
H550 C555 0.950 . S
H551 C556 0.949 . S
H552 C558 0.950 . S
H553 C559 0.950 . S
H554 C560 0.949 . S
C555 H550 0.950 . S
C555 C557 1.334 . S
C555 C561 1.429 . S
C556 C548 1.574 . S
C556 H551 0.949 . S
C556 C562 1.368 . S
C557 C541 1.357 . S
C557 H549 0.934 1_554 S
C557 C555 1.334 . S
C558 C546 1.349 . S
C558 H552 0.950 . S
C558 C559 1.327 . S
C559 H553 0.950 . S
C559 C558 1.327 . S
C559 C563 1.429 . S
C560 C543 1.574 . S
C560 H554 0.949 . S
C560 C564 1.368 . S
C561 C542 1.429 . S
C561 C555 1.429 . S
C561 C562 1.523 . S
C562 C543 1.368 . S
C562 C556 1.368 . S
C562 C561 1.523 . S
C563 C547 1.429 . S
C563 C559 1.429 . S
C563 C564 1.523 . S
C564 C548 1.368 . S
C564 C560 1.368 . S
C564 C563 1.523 . S
H565 C540 0.950 . S
H566 C542 0.950 . S
H567 C543 0.949 . S
H568 C545 0.950 . S
H569 C547 0.950 . S
C570 C571 1.349 . S
C570 C572 1.327 . S
C570 H595 0.950 . S
C571 C570 1.349 . S
C571 C587 1.349 . S
C572 C570 1.327 . S
C572 C591 1.429 . S
C572 H596 0.950 . S
C573 C590 1.574 . S
C573 C592 1.368 . S
C573 H597 0.949 . S
H574 C578 0.966 . S
C575 C576 1.349 . S
C575 C577 1.327 . S
C575 H598 0.950 . S
C576 C575 1.349 . S
C576 C588 1.349 1_545 S
C577 C575 1.327 . S
C577 C593 1.429 . S
C577 H599 0.950 . S
C578 H574 0.966 . S
C578 C586 1.574 . S
C578 C594 1.368 . S
H579 C587 0.950 . S
H580 C585 0.950 . S
H581 C586 0.949 . S
H582 C588 0.950 . S
H583 C589 0.950 . S
H584 C590 0.949 . S
C585 H580 0.950 . S
C585 C587 1.327 . S
C585 C591 1.429 . S
C586 C578 1.574 . S
C586 H581 0.949 . S
C586 C592 1.368 . S
C587 C571 1.349 . S
C587 H579 0.950 . S
C587 C585 1.327 . S
C588 C576 1.349 1_565 S
C588 H582 0.950 . S
C588 C589 1.327 . S
C589 H583 0.950 . S
C589 C588 1.327 . S
C589 C593 1.429 1_565 S
C590 C573 1.574 . S
C590 H584 0.949 . S
C590 C594 1.368 . S
C591 C572 1.429 . S
C591 C585 1.429 . S
C591 C592 1.523 . S
C592 C573 1.368 . S
C592 C586 1.368 . S
C592 C591 1.523 . S
C593 C577 1.429 . S
C593 C589 1.429 1_545 S
C593 C594 1.523 . S
C594 C578 1.368 . S
C594 C590 1.368 . S
C594 C593 1.523 . S
H595 C570 0.950 . S
H596 C572 0.950 . S
H597 C573 0.949 . S
H598 C575 0.950 . S
H599 C577 0.950 . S
C600 C601 1.349 . S
C600 C602 1.327 . S
C600 H625 0.950 . S
C601 C600 1.349 . S
C601 C617 1.349 . S
C602 C600 1.327 . S
C602 C621 1.429 . S
C602 H626 0.950 . S
C603 C620 1.574 . S
C603 C622 1.368 . S
C603 H627 0.949 . S
H604 C608 0.949 . S
C605 C606 1.349 . S
C605 C607 1.327 . S
C605 H628 0.950 . S
C606 C605 1.349 . S
C606 C618 1.349 . S
C607 C605 1.327 . S
C607 C623 1.429 . S
C607 H629 0.950 . S
C608 H604 0.949 . S
C608 C616 1.574 . S
C608 C624 1.368 . S
H609 C617 0.950 . S
H610 C615 0.950 . S
H611 C616 0.949 . S
H612 C618 0.950 . S
H613 C619 0.950 . S
H614 C620 0.949 . S
C615 H610 0.950 . S
C615 C617 1.327 . S
C615 C621 1.429 . S
C616 C608 1.574 . S
C616 H611 0.949 . S
C616 C622 1.368 . S
C617 C601 1.349 . S
C617 H609 0.950 . S
C617 C615 1.327 . S
C618 C606 1.349 . S
C618 H612 0.950 . S
C618 C619 1.327 . S
C619 H613 0.950 . S
C619 C618 1.327 . S
C619 C623 1.429 . S
C620 C603 1.574 . S
C620 H614 0.949 . S
C620 C624 1.368 . S
C621 C602 1.429 . S
C621 C615 1.429 . S
C621 C622 1.523 . S
C622 C603 1.368 . S
C622 C616 1.368 . S
C622 C621 1.523 . S
C623 C607 1.429 . S
C623 C619 1.429 . S
C623 C624 1.523 . S
C624 C608 1.368 . S
C624 C620 1.368 . S
C624 C623 1.523 . S
H625 C600 0.950 . S
H626 C602 0.950 . S
H627 C603 0.949 . S
H628 C605 0.950 . S
H629 C607 0.950 . S
C630 C631 1.349 . S
C630 C632 1.327 . S
C630 H655 0.950 . S
C631 C630 1.349 . S
C631 C647 1.349 . S
C632 C630 1.327 . S
C632 C651 1.429 . S
C632 H656 0.950 . S
C633 C650 1.574 . S
C633 C652 1.368 . S
C633 H657 0.949 . S
H634 C638 0.949 . S
C635 C636 1.349 . S
C635 C637 1.327 . S
C635 H658 0.950 . S
C636 C635 1.349 . S
C636 C648 1.349 . S
C637 C635 1.327 . S
C637 C653 1.429 . S
C637 H659 0.950 . S
C638 H634 0.949 . S
C638 C646 1.574 . S
C638 C654 1.368 . S
H639 C647 0.950 . S
H640 C645 0.950 . S
H641 C646 0.949 . S
H642 C648 0.950 . S
H643 C649 0.950 . S
H644 C650 0.949 . S
C645 H640 0.950 . S
C645 C647 1.327 . S
C645 C651 1.429 . S
C646 C638 1.574 . S
C646 H641 0.949 . S
C646 C652 1.368 . S
C647 C631 1.349 . S
C647 H639 0.950 . S
C647 C645 1.327 . S
C648 C636 1.349 . S
C648 H642 0.950 . S
C648 C649 1.327 . S
C649 H643 0.950 . S
C649 C648 1.327 . S
C649 C653 1.429 . S
C650 C633 1.574 . S
C650 H644 0.949 . S
C650 C654 1.368 . S
C651 C632 1.429 . S
C651 C645 1.429 . S
C651 C652 1.523 . S
C652 C633 1.368 . S
C652 C646 1.368 . S
C652 C651 1.523 . S
C653 C637 1.429 . S
C653 C649 1.429 . S
C653 C654 1.523 . S
C654 C638 1.368 . S
C654 C650 1.368 . S
C654 C653 1.523 . S
H655 C630 0.950 . S
H656 C632 0.950 . S
H657 C633 0.949 . S
H658 C635 0.950 . S
H659 C637 0.950 . S
C660 C661 1.349 . S
C660 C662 1.327 . S
C660 H685 0.950 . S
C661 C660 1.349 . S
C661 C677 1.349 . S
C662 C660 1.327 . S
C662 C681 1.429 . S
C662 H686 0.950 . S
C663 C680 1.574 . S
C663 C682 1.368 . S
C663 H687 0.949 . S
H664 C668 0.949 . S
C665 C666 1.349 1_554 S
C665 C667 1.327 . S
C665 H688 0.950 . S
C666 C665 1.349 1_556 S
C666 C678 1.349 . S
C667 C665 1.327 . S
C667 C683 1.429 1_554 S
C667 H689 0.950 . S
C668 H664 0.949 . S
C668 C676 1.574 . S
C668 C684 1.368 . S
H669 C677 0.950 . S
H670 C675 0.950 . S
H671 C676 0.949 . S
H672 C678 0.950 . S
H673 C679 0.950 . S
H674 C680 0.949 1_554 S
C675 H670 0.950 . S
C675 C677 1.327 . S
C675 C681 1.429 . S
C676 C668 1.574 . S
C676 H671 0.949 . S
C676 C682 1.368 . S
C677 C661 1.349 . S
C677 H669 0.950 . S
C677 C675 1.327 . S
C678 C666 1.349 . S
C678 H672 0.950 . S
C678 C679 1.327 . S
C679 H673 0.950 . S
C679 C678 1.327 . S
C679 C683 1.429 . S
C680 C663 1.574 . S
C680 H674 0.949 1_556 S
C680 C684 1.368 . S
C681 C662 1.429 . S
C681 C675 1.429 . S
C681 C682 1.523 . S
C682 C663 1.368 . S
C682 C676 1.368 . S
C682 C681 1.523 . S
C683 C667 1.429 1_556 S
C683 C679 1.429 . S
C683 C684 1.523 . S
C684 C668 1.368 . S
C684 C680 1.368 . S
C684 C683 1.523 . S
H685 C660 0.950 . S
H686 C662 0.950 . S
H687 C663 0.949 . S
H688 C665 0.950 . S
H689 C667 0.950 . S
C690 C691 1.349 . S
C690 C692 1.327 . S
C690 H715 0.950 . S
C691 C690 1.349 . S
C691 C707 1.349 . S
C692 C690 1.327 . S
C692 C711 1.429 . S
C692 H716 0.950 . S
C693 C710 1.574 . S
C693 C712 1.368 . S
C693 H717 0.949 . S
H694 C698 0.949 . S
C695 C696 1.349 . S
C695 C697 1.327 . S
C695 H718 0.950 . S
C696 C695 1.349 . S
C696 C708 1.349 . S
C697 C695 1.327 . S
C697 C713 1.429 . S
C697 H719 0.950 . S
C698 H694 0.949 . S
C698 C706 1.574 . S
C698 C714 1.368 . S
H699 C707 0.950 . S
H700 C705 0.950 . S
H701 C706 0.949 . S
H702 C708 0.950 . S
H703 C709 0.950 . S
H704 C710 0.949 . S
C705 H700 0.950 . S
C705 C707 1.327 . S
C705 C711 1.429 . S
C706 C698 1.574 . S
C706 H701 0.949 . S
C706 C712 1.368 . S
C707 C691 1.349 . S
C707 H699 0.950 . S
C707 C705 1.327 . S
C708 C696 1.349 . S
C708 H702 0.950 . S
C708 C709 1.327 . S
C709 H703 0.950 . S
C709 C708 1.327 . S
C709 C713 1.429 . S
C710 C693 1.574 . S
C710 H704 0.949 . S
C710 C714 1.368 . S
C711 C692 1.429 . S
C711 C705 1.429 . S
C711 C712 1.523 . S
C712 C693 1.368 . S
C712 C706 1.368 . S
C712 C711 1.523 . S
C713 C697 1.429 . S
C713 C709 1.429 . S
C713 C714 1.523 . S
C714 C698 1.368 . S
C714 C710 1.368 . S
C714 C713 1.523 . S
H715 C690 0.950 . S
H716 C692 0.950 . S
H717 C693 0.949 . S
H718 C695 0.950 . S
H719 C697 0.950 . S
C720 C721 1.349 . S
C720 C722 1.327 . S
C720 H745 0.950 . S
C721 C720 1.349 . S
C721 C737 1.349 . S
C722 C720 1.327 . S
C722 C741 1.429 . S
C722 H746 0.950 . S
C723 C740 1.574 . S
C723 C742 1.368 . S
C723 H747 0.949 . S
H724 C728 0.949 . S
C725 C726 1.349 . S
C725 C727 1.327 . S
C725 H748 0.950 . S
C726 C725 1.349 . S
C726 C738 1.349 . S
C727 C725 1.327 . S
C727 C743 1.429 . S
C727 H749 0.950 . S
C728 H724 0.949 . S
C728 C736 1.574 . S
C728 C744 1.368 . S
H729 C737 0.950 . S
H730 C735 0.950 . S
H731 C736 0.949 . S
H732 C738 0.950 . S
H733 C739 0.950 . S
H734 C740 0.949 . S
C735 H730 0.950 . S
C735 C737 1.327 . S
C735 C741 1.429 . S
C736 C728 1.574 . S
C736 H731 0.949 . S
C736 C742 1.368 . S
C737 C721 1.349 . S
C737 H729 0.950 . S
C737 C735 1.327 . S
C738 C726 1.349 . S
C738 H732 0.950 . S
C738 C739 1.327 . S
C739 H733 0.950 . S
C739 C738 1.327 . S
C739 C743 1.429 . S
C740 C723 1.574 . S
C740 H734 0.949 . S
C740 C744 1.368 . S
C741 C722 1.429 . S
C741 C735 1.429 . S
C741 C742 1.523 . S
C742 C723 1.368 . S
C742 C736 1.368 . S
C742 C741 1.523 . S
C743 C727 1.429 . S
C743 C739 1.429 . S
C743 C744 1.523 . S
C744 C728 1.368 . S
C744 C740 1.368 . S
C744 C743 1.523 . S
H745 C720 0.950 . S
H746 C722 0.950 . S
H747 C723 0.949 . S
H748 C725 0.950 . S
H749 C727 0.950 . S
C750 C751 1.349 . S
C750 C752 1.327 . S
C750 H775 0.950 . S
C751 C750 1.349 . S
C751 C767 1.349 . S
C752 C750 1.327 . S
C752 C771 1.429 . S
C752 H776 0.950 . S
C753 C770 1.574 . S
C753 C772 1.368 . S
C753 H777 0.949 . S
H754 C758 0.949 . S
C755 C756 1.349 1_455 S
C755 C757 1.327 . S
C755 H778 0.950 . S
C756 C755 1.349 1_655 S
C756 C768 1.349 . S
C757 C755 1.327 . S
C757 C773 1.429 . S
C757 H779 0.950 . S
C758 H754 0.949 . S
C758 C766 1.574 . S
C758 C774 1.368 . S
H759 C767 0.950 . S
H760 C765 0.950 . S
H761 C766 0.949 . S
H762 C768 0.950 . S
H763 C769 0.950 . S
H764 C770 0.949 . S
C765 H760 0.950 . S
C765 C767 1.327 . S
C765 C771 1.429 . S
C766 C758 1.574 . S
C766 H761 0.949 . S
C766 C772 1.368 . S
C767 C751 1.349 . S
C767 H759 0.950 . S
C767 C765 1.327 . S
C768 C756 1.349 . S
C768 H762 0.950 . S
C768 C769 1.327 . S
C769 H763 0.950 . S
C769 C768 1.327 . S
C769 C773 1.429 1_655 S
C770 C753 1.574 . S
C770 H764 0.949 . S
C770 C774 1.368 . S
C771 C752 1.429 . S
C771 C765 1.429 . S
C771 C772 1.523 . S
C772 C753 1.368 . S
C772 C766 1.368 . S
C772 C771 1.523 . S
C773 C757 1.429 . S
C773 C769 1.429 1_455 S
C773 C774 1.523 . S
C774 C758 1.368 . S
C774 C770 1.368 . S
C774 C773 1.523 . S
H775 C750 0.950 . S
H776 C752 0.950 . S
H777 C753 0.949 . S
H778 C755 0.950 . S
H779 C757 0.950 . S
C780 C781 1.338 1_655 S
C780 C782 1.327 . S
C780 H805 0.950 . S
C781 C780 1.338 1_455 S
C781 C797 1.347 1_455 S
C782 C780 1.327 . S
C782 C801 1.429 . S
C782 H806 0.950 . S
C783 C800 1.574 . S
C783 C802 1.368 . S
C783 H807 0.949 . S
H784 C788 0.949 . S
C785 C786 1.349 . S
C785 C787 1.327 . S
C785 H808 0.950 . S
C786 C785 1.349 . S
C786 C798 1.349 . S
C787 C785 1.327 . S
C787 C803 1.429 . S
C787 H809 0.950 . S
C788 H784 0.949 . S
C788 C796 1.574 . S
C788 C804 1.368 . S
H789 C797 0.943 1_455 S
H790 C795 0.950 . S
H791 C796 0.949 . S
H792 C798 0.950 . S
H793 C799 0.950 . S
H794 C800 0.949 . S
C795 H790 0.950 . S
C795 C797 1.335 . S
C795 C801 1.429 . S
C796 C788 1.574 . S
C796 H791 0.949 . S
C796 C802 1.368 . S
C797 C781 1.347 1_655 S
C797 H789 0.943 1_655 S
C797 C795 1.335 . S
C798 C786 1.349 . S
C798 H792 0.950 . S
C798 C799 1.327 . S
C799 H793 0.950 . S
C799 C798 1.327 . S
C799 C803 1.429 . S
C800 C783 1.574 . S
C800 H794 0.949 . S
C800 C804 1.368 . S
C801 C782 1.429 . S
C801 C795 1.429 . S
C801 C802 1.523 . S
C802 C783 1.368 . S
C802 C796 1.368 . S
C802 C801 1.523 . S
C803 C787 1.429 . S
C803 C799 1.429 . S
C803 C804 1.523 . S
C804 C788 1.368 . S
C804 C800 1.368 . S
C804 C803 1.523 . S
H805 C780 0.950 . S
H806 C782 0.950 . S
H807 C783 0.949 . S
H808 C785 0.950 . S
H809 C787 0.950 . S
C810 C811 1.349 . S
C810 C812 1.327 . S
C810 H835 0.950 . S
C811 C810 1.349 . S
C811 C827 1.349 . S
C812 C810 1.327 . S
C812 C831 1.429 . S
C812 H836 0.950 . S
C813 C830 1.574 . S
C813 C832 1.368 . S
C813 H837 0.949 . S
H814 C818 0.949 . S
C815 C816 1.349 . S
C815 C817 1.327 . S
C815 H838 0.950 . S
C816 C815 1.349 . S
C816 C828 1.349 . S
C817 C815 1.327 . S
C817 C833 1.429 . S
C817 H839 0.950 . S
C818 H814 0.949 . S
C818 C826 1.574 . S
C818 C834 1.368 . S
H819 C827 0.950 . S
H820 C825 0.950 . S
H821 C826 0.949 . S
H822 C828 0.950 . S
H823 C829 0.950 . S
H824 C830 0.949 . S
C825 H820 0.950 . S
C825 C827 1.327 . S
C825 C831 1.429 . S
C826 C818 1.574 . S
C826 H821 0.949 . S
C826 C832 1.368 . S
C827 C811 1.349 . S
C827 H819 0.950 . S
C827 C825 1.327 . S
C828 C816 1.349 . S
C828 H822 0.950 . S
C828 C829 1.327 . S
C829 H823 0.950 . S
C829 C828 1.327 . S
C829 C833 1.429 . S
C830 C813 1.574 . S
C830 H824 0.949 . S
C830 C834 1.368 . S
C831 C812 1.429 . S
C831 C825 1.429 . S
C831 C832 1.523 . S
C832 C813 1.368 . S
C832 C826 1.368 . S
C832 C831 1.523 . S
C833 C817 1.429 . S
C833 C829 1.429 . S
C833 C834 1.523 . S
C834 C818 1.368 . S
C834 C830 1.368 . S
C834 C833 1.523 . S
H835 C810 0.950 . S
H836 C812 0.950 . S
H837 C813 0.949 . S
H838 C815 0.950 . S
H839 C817 0.950 . S
C840 C841 1.349 . S
C840 C842 1.327 . S
C840 H865 0.950 . S
C841 C840 1.349 . S
C841 C857 1.349 . S
C842 C840 1.327 . S
C842 C861 1.429 . S
C842 H866 0.950 . S
C843 C860 1.574 . S
C843 C862 1.368 . S
C843 H867 0.949 . S
H844 C848 0.949 . S
C845 C846 1.349 . S
C845 C847 1.327 . S
C845 H868 0.950 . S
C846 C845 1.349 . S
C846 C858 1.349 . S
C847 C845 1.327 . S
C847 C863 1.429 . S
C847 H869 0.950 . S
C848 H844 0.949 . S
C848 C856 1.574 . S
C848 C864 1.368 . S
H849 C857 0.950 . S
H850 C855 0.950 . S
H851 C856 0.949 . S
H852 C858 0.950 . S
H853 C859 0.950 . S
H854 C860 0.949 . S
C855 H850 0.950 . S
C855 C857 1.327 . S
C855 C861 1.429 . S
C856 C848 1.574 . S
C856 H851 0.949 . S
C856 C862 1.368 . S
C857 C841 1.349 . S
C857 H849 0.950 . S
C857 C855 1.327 . S
C858 C846 1.349 . S
C858 H852 0.950 . S
C858 C859 1.327 . S
C859 H853 0.950 . S
C859 C858 1.327 . S
C859 C863 1.429 . S
C860 C843 1.574 . S
C860 H854 0.949 . S
C860 C864 1.368 . S
C861 C842 1.429 . S
C861 C855 1.429 . S
C861 C862 1.523 . S
C862 C843 1.368 . S
C862 C856 1.368 . S
C862 C861 1.523 . S
C863 C847 1.429 . S
C863 C859 1.429 . S
C863 C864 1.523 . S
C864 C848 1.368 . S
C864 C860 1.368 . S
C864 C863 1.523 . S
H865 C840 0.950 . S
H866 C842 0.950 . S
H867 C843 0.949 . S
H868 C845 0.950 . S
H869 C847 0.950 . S
C870 C871 1.349 . S
C870 C872 1.327 . S
C870 H895 0.950 . S
C871 C870 1.349 . S
C871 C887 1.349 . S
C872 C870 1.327 . S
C872 C891 1.429 . S
C872 H896 0.950 . S
C873 C890 1.574 . S
C873 C892 1.368 . S
C873 H897 0.949 . S
H874 C878 0.949 . S
C875 C876 1.349 . S
C875 C877 1.327 . S
C875 H898 0.950 . S
C876 C875 1.349 . S
C876 C888 1.349 . S
C877 C875 1.327 . S
C877 C893 1.429 . S
C877 H899 0.950 . S
C878 H874 0.949 . S
C878 C886 1.574 . S
C878 C894 1.368 . S
H879 C887 0.950 . S
H880 C885 0.950 . S
H881 C886 0.949 . S
H882 C888 0.950 . S
H883 C889 0.950 . S
H884 C890 0.949 . S
C885 H880 0.950 . S
C885 C887 1.327 . S
C885 C891 1.429 . S
C886 C878 1.574 . S
C886 H881 0.949 . S
C886 C892 1.368 . S
C887 C871 1.349 . S
C887 H879 0.950 . S
C887 C885 1.327 . S
C888 C876 1.349 . S
C888 H882 0.950 . S
C888 C889 1.327 . S
C889 H883 0.950 . S
C889 C888 1.327 . S
C889 C893 1.429 . S
C890 C873 1.574 . S
C890 H884 0.949 . S
C890 C894 1.368 . S
C891 C872 1.429 . S
C891 C885 1.429 . S
C891 C892 1.523 . S
C892 C873 1.368 . S
C892 C886 1.368 . S
C892 C891 1.523 . S
C893 C877 1.429 . S
C893 C889 1.429 . S
C893 C894 1.523 . S
C894 C878 1.368 . S
C894 C890 1.368 . S
C894 C893 1.523 . S
H895 C870 0.950 . S
H896 C872 0.950 . S
H897 C873 0.949 . S
H898 C875 0.950 . S
H899 C877 0.950 . S
C900 C901 1.349 . S
C900 C902 1.327 . S
C900 H925 0.950 . S
C901 C900 1.349 . S
C901 C917 1.349 . S
C902 C900 1.327 . S
C902 C921 1.429 . S
C902 H926 0.950 . S
C903 C920 1.574 . S
C903 C922 1.368 . S
C903 H927 0.949 . S
H904 C908 0.949 . S
C905 C906 1.349 . S
C905 C907 1.327 . S
C905 H928 0.950 . S
C906 C905 1.349 . S
C906 C918 1.349 . S
C907 C905 1.327 . S
C907 C923 1.429 . S
C907 H929 0.950 . S
C908 H904 0.949 . S
C908 C916 1.574 . S
C908 C924 1.368 . S
H909 C917 0.950 . S
H910 C915 0.950 . S
H911 C916 0.949 . S
H912 C918 0.950 . S
H913 C919 0.950 . S
H914 C920 0.949 . S
C915 H910 0.950 . S
C915 C917 1.327 . S
C915 C921 1.429 . S
C916 C908 1.574 . S
C916 H911 0.949 . S
C916 C922 1.368 . S
C917 C901 1.349 . S
C917 H909 0.950 . S
C917 C915 1.327 . S
C918 C906 1.349 . S
C918 H912 0.950 . S
C918 C919 1.327 . S
C919 H913 0.950 . S
C919 C918 1.327 . S
C919 C923 1.429 . S
C920 C903 1.574 . S
C920 H914 0.949 . S
C920 C924 1.368 . S
C921 C902 1.429 . S
C921 C915 1.429 . S
C921 C922 1.523 . S
C922 C903 1.368 . S
C922 C916 1.368 . S
C922 C921 1.523 . S
C923 C907 1.429 . S
C923 C919 1.429 . S
C923 C924 1.523 . S
C924 C908 1.368 . S
C924 C920 1.368 . S
C924 C923 1.523 . S
H925 C900 0.950 . S
H926 C902 0.950 . S
H927 C903 0.949 . S
H928 C905 0.950 . S
H929 C907 0.950 . S
C930 C931 1.349 . S
C930 C932 1.327 . S
C930 H955 0.950 . S
C931 C930 1.349 . S
C931 C947 1.349 . S
C932 C930 1.327 . S
C932 C951 1.429 . S
C932 H956 0.950 . S
C933 C950 1.574 . S
C933 C952 1.368 . S
C933 H957 0.949 . S
H934 C938 0.949 . S
C935 C936 1.349 . S
C935 C937 1.327 . S
C935 H958 0.950 . S
C936 C935 1.349 . S
C936 C948 1.349 . S
C937 C935 1.327 . S
C937 C953 1.429 . S
C937 H959 0.950 . S
C938 H934 0.949 . S
C938 C946 1.574 . S
C938 C954 1.368 . S
H939 C947 0.950 . S
H940 C945 0.950 . S
H941 C946 0.949 . S
H942 C948 0.950 . S
H943 C949 0.950 . S
H944 C950 0.949 . S
C945 H940 0.950 . S
C945 C947 1.327 . S
C945 C951 1.429 . S
C946 C938 1.574 . S
C946 H941 0.949 . S
C946 C952 1.368 . S
C947 C931 1.349 . S
C947 H939 0.950 . S
C947 C945 1.327 . S
C948 C936 1.349 . S
C948 H942 0.950 . S
C948 C949 1.327 . S
C949 H943 0.950 . S
C949 C948 1.327 . S
C949 C953 1.429 . S
C950 C933 1.574 . S
C950 H944 0.949 . S
C950 C954 1.368 . S
C951 C932 1.429 . S
C951 C945 1.429 . S
C951 C952 1.523 . S
C952 C933 1.368 . S
C952 C946 1.368 . S
C952 C951 1.523 . S
C953 C937 1.429 . S
C953 C949 1.429 . S
C953 C954 1.523 1_556 S
C954 C938 1.368 . S
C954 C950 1.368 . S
C954 C953 1.523 1_554 S
H955 C930 0.950 . S
H956 C932 0.950 . S
H957 C933 0.949 . S
H958 C935 0.950 . S
H959 C937 0.950 . S
C960 C961 1.349 . S
C960 C962 1.327 . S
C960 H985 0.950 . S
C961 C960 1.349 . S
C961 C977 1.349 . S
C962 C960 1.327 . S
C962 C981 1.429 . S
C962 H986 0.950 . S
C963 C980 1.574 . S
C963 C982 1.368 . S
C963 H987 0.949 . S
H964 C968 0.949 . S
C965 C966 1.349 . S
C965 C967 1.327 . S
C965 H988 0.950 . S
C966 C965 1.349 . S
C966 C978 1.349 . S
C967 C965 1.327 . S
C967 C983 1.429 . S
C967 H989 0.950 . S
C968 H964 0.949 . S
C968 C976 1.574 . S
C968 C984 1.368 . S
H969 C977 0.950 . S
H970 C975 0.950 . S
H971 C976 0.949 . S
H972 C978 0.950 . S
H973 C979 0.950 . S
H974 C980 0.949 . S
C975 H970 0.950 . S
C975 C977 1.327 . S
C975 C981 1.429 . S
C976 C968 1.574 . S
C976 H971 0.949 . S
C976 C982 1.368 . S
C977 C961 1.349 . S
C977 H969 0.950 . S
C977 C975 1.327 . S
C978 C966 1.349 . S
C978 H972 0.950 . S
C978 C979 1.327 . S
C979 H973 0.950 . S
C979 C978 1.327 . S
C979 C983 1.429 . S
C980 C963 1.574 . S
C980 H974 0.949 . S
C980 C984 1.368 . S
C981 C962 1.429 . S
C981 C975 1.429 . S
C981 C982 1.523 . S
C982 C963 1.368 . S
C982 C976 1.368 . S
C982 C981 1.523 . S
C983 C967 1.429 . S
C983 C979 1.429 . S
C983 C984 1.523 . S
C984 C968 1.368 . S
C984 C980 1.368 . S
C984 C983 1.523 . S
H985 C960 0.950 . S
H986 C962 0.950 . S
H987 C963 0.949 . S
H988 C965 0.950 . S
H989 C967 0.950 . S
C990 C991 1.349 . S
C990 C992 1.327 . S
C990 H1015 0.950 . S
C991 C990 1.349 . S
C991 C1007 1.349 . S
C992 C990 1.327 . S
C992 C1011 1.429 . S
C992 H1016 0.950 1_554 S
C993 C1010 1.574 . S
C993 C1012 1.368 . S
C993 H1017 0.949 . S
H994 C998 0.949 . S
C995 C996 1.349 . S
C995 C997 1.327 . S
C995 H1018 0.950 . S
C996 C995 1.349 . S
C996 C1008 1.349 . S
C997 C995 1.327 . S
C997 C1013 1.429 . S
C997 H1019 0.950 . S
C998 H994 0.949 . S
C998 C1006 1.574 . S
C998 C1014 1.368 . S
H999 C1007 0.950 . S
H1000 C1005 0.950 . S
H1001 C1006 0.949 . S
H1002 C1008 0.950 . S
H1003 C1009 0.950 . S
H1004 C1010 0.949 . S
C1005 H1000 0.950 . S
C1005 C1007 1.327 . S
C1005 C1011 1.429 . S
C1006 C998 1.574 . S
C1006 H1001 0.949 . S
C1006 C1012 1.368 . S
C1007 C991 1.349 . S
C1007 H999 0.950 . S
C1007 C1005 1.327 . S
C1008 C996 1.349 . S
C1008 H1002 0.950 . S
C1008 C1009 1.327 . S
C1009 H1003 0.950 . S
C1009 C1008 1.327 . S
C1009 C1013 1.429 . S
C1010 C993 1.574 . S
C1010 H1004 0.949 . S
C1010 C1014 1.368 . S
C1011 C992 1.429 . S
C1011 C1005 1.429 . S
C1011 C1012 1.523 1_554 S
C1012 C993 1.368 . S
C1012 C1006 1.368 . S
C1012 C1011 1.523 1_556 S
C1013 C997 1.429 . S
C1013 C1009 1.429 . S
C1013 C1014 1.523 . S
C1014 C998 1.368 . S
C1014 C1010 1.368 . S
C1014 C1013 1.523 . S
H1015 C990 0.950 . S
H1016 C992 0.950 1_556 S
H1017 C993 0.949 . S
H1018 C995 0.950 . S
H1019 C997 0.950 . S
C1020 C1021 1.349 . S
C1020 C1022 1.327 . S
C1020 H1045 0.950 . S
C1021 C1020 1.349 . S
C1021 C1037 1.349 . S
C1022 C1020 1.327 . S
C1022 C1041 1.429 . S
C1022 H1046 0.950 . S
C1023 C1040 1.574 . S
C1023 C1042 1.368 . S
C1023 H1047 0.949 . S
H1024 C1028 0.949 . S
C1025 C1026 1.349 . S
C1025 C1027 1.327 . S
C1025 H1048 0.950 . S
C1026 C1025 1.349 . S
C1026 C1038 1.349 . S
C1027 C1025 1.327 . S
C1027 C1043 1.429 . S
C1027 H1049 0.950 . S
C1028 H1024 0.949 . S
C1028 C1036 1.574 . S
C1028 C1044 1.368 . S
H1029 C1037 0.950 . S
H1030 C1035 0.950 . S
H1031 C1036 0.949 . S
H1032 C1038 0.950 . S
H1033 C1039 0.950 . S
H1034 C1040 0.949 . S
C1035 H1030 0.950 . S
C1035 C1037 1.327 . S
C1035 C1041 1.429 . S
C1036 C1028 1.574 . S
C1036 H1031 0.949 . S
C1036 C1042 1.368 . S
C1037 C1021 1.349 . S
C1037 H1029 0.950 . S
C1037 C1035 1.327 . S
C1038 C1026 1.349 . S
C1038 H1032 0.950 . S
C1038 C1039 1.327 . S
C1039 H1033 0.950 . S
C1039 C1038 1.327 . S
C1039 C1043 1.429 . S
C1040 C1023 1.574 . S
C1040 H1034 0.949 . S
C1040 C1044 1.368 . S
C1041 C1022 1.429 . S
C1041 C1035 1.429 . S
C1041 C1042 1.523 . S
C1042 C1023 1.368 . S
C1042 C1036 1.368 . S
C1042 C1041 1.523 . S
C1043 C1027 1.429 . S
C1043 C1039 1.429 . S
C1043 C1044 1.523 . S
C1044 C1028 1.368 . S
C1044 C1040 1.368 . S
C1044 C1043 1.523 . S
H1045 C1020 0.950 . S
H1046 C1022 0.950 . S
H1047 C1023 0.949 . S
H1048 C1025 0.950 . S
H1049 C1027 0.950 . S
C1050 C1051 1.349 . S
C1050 C1052 1.327 . S
C1050 H1075 0.950 . S
C1051 C1050 1.349 . S
C1051 C1067 1.349 . S
C1052 C1050 1.327 . S
C1052 C1071 1.429 . S
C1052 H1076 0.950 . S
C1053 C1070 1.574 . S
C1053 C1072 1.368 . S
C1053 H1077 0.949 . S
H1054 C1058 0.949 . S
C1055 C1056 1.349 . S
C1055 C1057 1.327 . S
C1055 H1078 0.950 . S
C1056 C1055 1.349 . S
C1056 C1068 1.349 . S
C1057 C1055 1.327 . S
C1057 C1073 1.429 . S
C1057 H1079 0.950 . S
C1058 H1054 0.949 . S
C1058 C1066 1.574 . S
C1058 C1074 1.368 . S
H1059 C1067 0.950 . S
H1060 C1065 0.950 . S
H1061 C1066 0.949 . S
H1062 C1068 0.950 . S
H1063 C1069 0.950 . S
H1064 C1070 0.949 . S
C1065 H1060 0.950 . S
C1065 C1067 1.327 . S
C1065 C1071 1.429 . S
C1066 C1058 1.574 . S
C1066 H1061 0.949 . S
C1066 C1072 1.368 . S
C1067 C1051 1.349 . S
C1067 H1059 0.950 . S
C1067 C1065 1.327 . S
C1068 C1056 1.349 . S
C1068 H1062 0.950 . S
C1068 C1069 1.327 . S
C1069 H1063 0.950 . S
C1069 C1068 1.327 . S
C1069 C1073 1.429 . S
C1070 C1053 1.574 . S
C1070 H1064 0.949 . S
C1070 C1074 1.368 . S
C1071 C1052 1.429 . S
C1071 C1065 1.429 . S
C1071 C1072 1.523 . S
C1072 C1053 1.368 . S
C1072 C1066 1.368 . S
C1072 C1071 1.523 . S
C1073 C1057 1.429 . S
C1073 C1069 1.429 . S
C1073 C1074 1.523 . S
C1074 C1058 1.368 . S
C1074 C1070 1.368 . S
C1074 C1073 1.523 . S
H1075 C1050 0.950 . S
H1076 C1052 0.950 . S
H1077 C1053 0.949 . S
H1078 C1055 0.950 . S
H1079 C1057 0.950 . S
C1080 C1081 1.349 . S
C1080 C1082 1.327 . S
C1080 H1105 0.950 . S
C1081 C1080 1.349 . S
C1081 C1097 1.349 . S
C1082 C1080 1.327 . S
C1082 C1101 1.429 . S
C1082 H1106 0.950 . S
C1083 C1100 1.574 . S
C1083 C1102 1.368 . S
C1083 H1107 0.949 . S
H1084 C1088 0.949 . S
C1085 C1086 1.349 . S
C1085 C1087 1.327 . S
C1085 H1108 0.950 . S
C1086 C1085 1.349 . S
C1086 C1098 1.349 . S
C1087 C1085 1.327 . S
C1087 C1103 1.429 . S
C1087 H1109 0.950 . S
C1088 H1084 0.949 . S
C1088 C1096 1.574 . S
C1088 C1104 1.368 . S
H1089 C1097 0.950 . S
H1090 C1095 0.950 . S
H1091 C1096 0.949 . S
H1092 C1098 0.950 . S
H1093 C1099 0.950 . S
H1094 C1100 0.949 . S
C1095 H1090 0.950 . S
C1095 C1097 1.327 . S
C1095 C1101 1.429 . S
C1096 C1088 1.574 . S
C1096 H1091 0.949 . S
C1096 C1102 1.368 . S
C1097 C1081 1.349 . S
C1097 H1089 0.950 . S
C1097 C1095 1.327 . S
C1098 C1086 1.349 . S
C1098 H1092 0.950 . S
C1098 C1099 1.327 . S
C1099 H1093 0.950 . S
C1099 C1098 1.327 . S
C1099 C1103 1.429 . S
C1100 C1083 1.574 . S
C1100 H1094 0.949 . S
C1100 C1104 1.368 . S
C1101 C1082 1.429 . S
C1101 C1095 1.429 . S
C1101 C1102 1.523 . S
C1102 C1083 1.368 . S
C1102 C1096 1.368 . S
C1102 C1101 1.523 . S
C1103 C1087 1.429 . S
C1103 C1099 1.429 . S
C1103 C1104 1.523 . S
C1104 C1088 1.368 . S
C1104 C1100 1.368 . S
C1104 C1103 1.523 . S
H1105 C1080 0.950 . S
H1106 C1082 0.950 . S
H1107 C1083 0.949 . S
H1108 C1085 0.950 . S
H1109 C1087 0.950 . S
C1110 C1111 1.349 . S
C1110 C1112 1.327 . S
C1110 H1135 0.950 . S
C1111 C1110 1.349 . S
C1111 C1127 1.349 . S
C1112 C1110 1.327 . S
C1112 C1131 1.429 . S
C1112 H1136 0.950 . S
C1113 C1130 1.574 . S
C1113 C1132 1.368 . S
C1113 H1137 0.949 . S
H1114 C1118 0.949 . S
C1115 C1116 1.349 . S
C1115 C1117 1.327 1_565 S
C1115 H1138 0.950 . S
C1116 C1115 1.349 . S
C1116 C1128 1.349 . S
C1117 C1115 1.327 1_545 S
C1117 C1133 1.429 . S
C1117 H1139 0.950 . S
C1118 H1114 0.949 . S
C1118 C1126 1.574 . S
C1118 C1134 1.368 . S
H1119 C1127 0.950 . S
H1120 C1125 0.950 . S
H1121 C1126 0.949 . S
H1122 C1128 0.950 . S
H1123 C1129 0.950 . S
H1124 C1130 0.949 . S
C1125 H1120 0.950 . S
C1125 C1127 1.327 . S
C1125 C1131 1.429 . S
C1126 C1118 1.574 . S
C1126 H1121 0.949 . S
C1126 C1132 1.368 . S
C1127 C1111 1.349 . S
C1127 H1119 0.950 . S
C1127 C1125 1.327 . S
C1128 C1116 1.349 . S
C1128 H1122 0.950 . S
C1128 C1129 1.327 . S
C1129 H1123 0.950 . S
C1129 C1128 1.327 . S
C1129 C1133 1.429 1_565 S
C1130 C1113 1.574 . S
C1130 H1124 0.949 . S
C1130 C1134 1.368 . S
C1131 C1112 1.429 . S
C1131 C1125 1.429 . S
C1131 C1132 1.523 . S
C1132 C1113 1.368 . S
C1132 C1126 1.368 . S
C1132 C1131 1.523 . S
C1133 C1117 1.429 . S
C1133 C1129 1.429 1_545 S
C1133 C1134 1.523 . S
C1134 C1118 1.368 . S
C1134 C1130 1.368 . S
C1134 C1133 1.523 . S
H1135 C1110 0.950 . S
H1136 C1112 0.950 . S
H1137 C1113 0.949 . S
H1138 C1115 0.950 . S
H1139 C1117 0.950 . S
C1140 C1141 1.349 . S
C1140 C1142 1.327 . S
C1140 H1165 0.950 . S
C1141 C1140 1.349 . S
C1141 C1157 1.349 . S
C1142 C1140 1.327 . S
C1142 C1161 1.429 . S
C1142 H1166 0.950 . S
C1143 C1160 1.574 . S
C1143 C1162 1.368 . S
C1143 H1167 0.949 . S
H1144 C1148 0.949 . S
C1145 C1146 1.349 . S
C1145 C1147 1.327 . S
C1145 H1168 0.950 . S
C1146 C1145 1.349 . S
C1146 C1158 1.349 . S
C1147 C1145 1.327 . S
C1147 C1163 1.429 . S
C1147 H1169 0.950 . S
C1148 H1144 0.949 . S
C1148 C1156 1.574 . S
C1148 C1164 1.368 . S
H1149 C1157 0.950 . S
H1150 C1155 0.950 . S
H1151 C1156 0.949 . S
H1152 C1158 0.950 . S
H1153 C1159 0.950 . S
H1154 C1160 0.949 . S
C1155 H1150 0.950 . S
C1155 C1157 1.327 . S
C1155 C1161 1.429 . S
C1156 C1148 1.574 . S
C1156 H1151 0.949 . S
C1156 C1162 1.368 . S
C1157 C1141 1.349 . S
C1157 H1149 0.950 . S
C1157 C1155 1.327 . S
C1158 C1146 1.349 . S
C1158 H1152 0.950 . S
C1158 C1159 1.327 . S
C1159 H1153 0.950 . S
C1159 C1158 1.327 . S
C1159 C1163 1.429 . S
C1160 C1143 1.574 . S
C1160 H1154 0.949 . S
C1160 C1164 1.368 . S
C1161 C1142 1.429 . S
C1161 C1155 1.429 . S
C1161 C1162 1.523 . S
C1162 C1143 1.368 . S
C1162 C1156 1.368 . S
C1162 C1161 1.523 . S
C1163 C1147 1.429 . S
C1163 C1159 1.429 . S
C1163 C1164 1.523 . S
C1164 C1148 1.368 . S
C1164 C1160 1.368 . S
C1164 C1163 1.523 . S
H1165 C1140 0.950 . S
H1166 C1142 0.950 . S
H1167 C1143 0.949 . S
H1168 C1145 0.950 . S
H1169 C1147 0.950 . S
C1170 C1171 1.349 . S
C1170 C1172 1.327 . S
C1170 H1195 0.950 . S
C1171 C1170 1.349 . S
C1171 C1187 1.349 . S
C1172 C1170 1.327 . S
C1172 C1191 1.429 . S
C1172 H1196 0.950 . S
C1173 C1190 1.557 1_545 S
C1173 C1192 1.368 . S
C1173 H1197 0.949 . S
H1174 C1178 0.949 . S
C1175 C1176 1.349 . S
C1175 C1177 1.327 . S
C1175 H1198 0.950 . S
C1176 C1175 1.349 . S
C1176 C1188 1.349 . S
C1177 C1175 1.327 . S
C1177 C1193 1.429 . S
C1177 H1199 0.950 . S
C1178 H1174 0.949 . S
C1178 C1186 1.574 1_565 S
C1178 C1194 1.368 . S
H1179 C1187 0.950 . S
H1180 C1185 0.950 . S
H1181 C1186 0.949 . S
H1182 C1188 0.950 . S
H1183 C1189 0.950 . S
H1184 C1190 0.952 . S
C1185 H1180 0.950 . S
C1185 C1187 1.327 . S
C1185 C1191 1.429 . S
C1186 C1178 1.574 1_545 S
C1186 H1181 0.949 . S
C1186 C1192 1.368 . S
C1187 C1171 1.349 . S
C1187 H1179 0.950 . S
C1187 C1185 1.327 . S
C1188 C1176 1.349 . S
C1188 H1182 0.950 . S
C1188 C1189 1.327 . S
C1189 H1183 0.950 . S
C1189 C1188 1.327 . S
C1189 C1193 1.429 . S
C1190 C1173 1.557 1_565 S
C1190 H1184 0.952 . S
C1190 C1194 1.381 . S
C1191 C1172 1.429 . S
C1191 C1185 1.429 . S
C1191 C1192 1.523 . S
C1192 C1173 1.368 . S
C1192 C1186 1.368 . S
C1192 C1191 1.523 . S
C1193 C1177 1.429 . S
C1193 C1189 1.429 . S
C1193 C1194 1.523 . S
C1194 C1178 1.368 . S
C1194 C1190 1.381 . S
C1194 C1193 1.523 . S
H1195 C1170 0.950 . S
H1196 C1172 0.950 . S
H1197 C1173 0.949 . S
H1198 C1175 0.950 . S
H1199 C1177 0.950 . S
C1200 C1201 1.349 . S
C1200 C1202 1.327 . S
C1200 H1225 0.950 . S
C1201 C1200 1.349 . S
C1201 C1217 1.349 . S
C1202 C1200 1.327 . S
C1202 C1221 1.429 . S
C1202 H1226 0.950 . S
C1203 C1220 1.574 . S
C1203 C1222 1.368 . S
C1203 H1227 0.949 . S
H1204 C1208 0.949 . S
C1205 C1206 1.349 . S
C1205 C1207 1.327 . S
C1205 H1228 0.950 . S
C1206 C1205 1.349 . S
C1206 C1218 1.349 . S
C1207 C1205 1.327 . S
C1207 C1223 1.429 . S
C1207 H1229 0.950 . S
C1208 H1204 0.949 . S
C1208 C1216 1.574 . S
C1208 C1224 1.368 . S
H1209 C1217 0.950 . S
H1210 C1215 0.950 . S
H1211 C1216 0.949 . S
H1212 C1218 0.950 . S
H1213 C1219 0.950 . S
H1214 C1220 0.949 . S
C1215 H1210 0.950 . S
C1215 C1217 1.327 . S
C1215 C1221 1.429 . S
C1216 C1208 1.574 . S
C1216 H1211 0.949 . S
C1216 C1222 1.368 . S
C1217 C1201 1.349 . S
C1217 H1209 0.950 . S
C1217 C1215 1.327 . S
C1218 C1206 1.349 . S
C1218 H1212 0.950 . S
C1218 C1219 1.327 . S
C1219 H1213 0.950 . S
C1219 C1218 1.327 . S
C1219 C1223 1.429 . S
C1220 C1203 1.574 . S
C1220 H1214 0.949 . S
C1220 C1224 1.368 . S
C1221 C1202 1.429 . S
C1221 C1215 1.429 . S
C1221 C1222 1.523 . S
C1222 C1203 1.368 . S
C1222 C1216 1.368 . S
C1222 C1221 1.523 . S
C1223 C1207 1.429 . S
C1223 C1219 1.429 . S
C1223 C1224 1.523 . S
C1224 C1208 1.368 . S
C1224 C1220 1.368 . S
C1224 C1223 1.523 . S
H1225 C1200 0.950 . S
H1226 C1202 0.950 . S
H1227 C1203 0.949 . S
H1228 C1205 0.950 . S
H1229 C1207 0.950 . S
C1230 C1231 1.349 . S
C1230 C1232 1.327 . S
C1230 H1255 0.950 . S
C1231 C1230 1.349 . S
C1231 C1247 1.349 . S
C1232 C1230 1.327 . S
C1232 C1251 1.429 . S
C1232 H1256 0.950 . S
C1233 C1250 1.574 . S
C1233 C1252 1.368 . S
C1233 H1257 0.949 . S
H1234 C1238 0.949 . S
C1235 C1236 1.349 . S
C1235 C1237 1.327 . S
C1235 H1258 0.950 . S
C1236 C1235 1.349 . S
C1236 C1248 1.349 . S
C1237 C1235 1.327 . S
C1237 C1253 1.429 . S
C1237 H1259 0.950 . S
C1238 H1234 0.949 . S
C1238 C1246 1.574 . S
C1238 C1254 1.368 . S
H1239 C1247 0.950 . S
H1240 C1245 0.950 . S
H1241 C1246 0.949 . S
H1242 C1248 0.950 . S
H1243 C1249 0.950 . S
H1244 C1250 0.949 . S
C1245 H1240 0.950 . S
C1245 C1247 1.327 . S
C1245 C1251 1.429 . S
C1246 C1238 1.574 . S
C1246 H1241 0.949 . S
C1246 C1252 1.368 . S
C1247 C1231 1.349 . S
C1247 H1239 0.950 . S
C1247 C1245 1.327 . S
C1248 C1236 1.349 . S
C1248 H1242 0.950 . S
C1248 C1249 1.327 . S
C1249 H1243 0.950 . S
C1249 C1248 1.327 . S
C1249 C1253 1.429 . S
C1250 C1233 1.574 . S
C1250 H1244 0.949 . S
C1250 C1254 1.368 . S
C1251 C1232 1.429 . S
C1251 C1245 1.429 . S
C1251 C1252 1.523 . S
C1252 C1233 1.368 . S
C1252 C1246 1.368 . S
C1252 C1251 1.523 . S
C1253 C1237 1.429 . S
C1253 C1249 1.429 . S
C1253 C1254 1.523 . S
C1254 C1238 1.368 . S
C1254 C1250 1.368 . S
C1254 C1253 1.523 . S
H1255 C1230 0.950 . S
H1256 C1232 0.950 . S
H1257 C1233 0.949 . S
H1258 C1235 0.950 . S
H1259 C1237 0.950 . S
C1260 C1261 1.349 . S
C1260 C1262 1.327 . S
C1260 H1285 0.950 . S
C1261 C1260 1.349 . S
C1261 C1277 1.349 . S
C1262 C1260 1.327 . S
C1262 C1281 1.429 . S
C1262 H1286 0.950 . S
C1263 C1280 1.574 . S
C1263 C1282 1.368 . S
C1263 H1287 0.949 . S
H1264 C1268 0.949 . S
C1265 C1266 1.349 . S
C1265 C1267 1.327 . S
C1265 H1288 0.950 . S
C1266 C1265 1.349 . S
C1266 C1278 1.349 . S
C1267 C1265 1.327 . S
C1267 C1283 1.429 . S
C1267 H1289 0.950 . S
C1268 H1264 0.949 . S
C1268 C1276 1.574 . S
C1268 C1284 1.368 . S
H1269 C1277 0.950 . S
H1270 C1275 0.950 . S
H1271 C1276 0.949 . S
H1272 C1278 0.950 . S
H1273 C1279 0.950 . S
H1274 C1280 0.949 . S
C1275 H1270 0.950 . S
C1275 C1277 1.327 . S
C1275 C1281 1.429 . S
C1276 C1268 1.574 . S
C1276 H1271 0.949 . S
C1276 C1282 1.368 . S
C1277 C1261 1.349 . S
C1277 H1269 0.950 . S
C1277 C1275 1.327 . S
C1278 C1266 1.349 . S
C1278 H1272 0.950 . S
C1278 C1279 1.327 . S
C1279 H1273 0.950 . S
C1279 C1278 1.327 . S
C1279 C1283 1.429 . S
C1280 C1263 1.574 . S
C1280 H1274 0.949 . S
C1280 C1284 1.368 . S
C1281 C1262 1.429 . S
C1281 C1275 1.429 . S
C1281 C1282 1.523 . S
C1282 C1263 1.368 . S
C1282 C1276 1.368 . S
C1282 C1281 1.523 . S
C1283 C1267 1.429 . S
C1283 C1279 1.429 . S
C1283 C1284 1.523 . S
C1284 C1268 1.368 . S
C1284 C1280 1.368 . S
C1284 C1283 1.523 . S
H1285 C1260 0.950 . S
H1286 C1262 0.950 . S
H1287 C1263 0.949 . S
H1288 C1265 0.950 . S
H1289 C1267 0.950 . S
C1290 C1291 1.349 . S
C1290 C1292 1.327 . S
C1290 H1315 0.950 . S
C1291 C1290 1.349 . S
C1291 C1307 1.349 . S
C1292 C1290 1.327 . S
C1292 C1311 1.429 . S
C1292 H1316 0.950 . S
C1293 C1310 1.574 . S
C1293 C1312 1.368 . S
C1293 H1317 0.949 . S
H1294 C1298 0.949 . S
C1295 C1296 1.349 . S
C1295 C1297 1.327 . S
C1295 H1318 0.950 . S
C1296 C1295 1.349 . S
C1296 C1308 1.349 . S
C1297 C1295 1.327 . S
C1297 C1313 1.429 . S
C1297 H1319 0.950 . S
C1298 H1294 0.949 . S
C1298 C1306 1.574 . S
C1298 C1314 1.368 . S
H1299 C1307 0.950 . S
H1300 C1305 0.950 . S
H1301 C1306 0.949 . S
H1302 C1308 0.950 . S
H1303 C1309 0.950 . S
H1304 C1310 0.949 . S
C1305 H1300 0.950 . S
C1305 C1307 1.327 . S
C1305 C1311 1.429 . S
C1306 C1298 1.574 . S
C1306 H1301 0.949 . S
C1306 C1312 1.368 . S
C1307 C1291 1.349 . S
C1307 H1299 0.950 . S
C1307 C1305 1.327 . S
C1308 C1296 1.349 . S
C1308 H1302 0.950 . S
C1308 C1309 1.327 . S
C1309 H1303 0.950 . S
C1309 C1308 1.327 . S
C1309 C1313 1.429 . S
C1310 C1293 1.574 . S
C1310 H1304 0.949 . S
C1310 C1314 1.368 . S
C1311 C1292 1.429 . S
C1311 C1305 1.429 . S
C1311 C1312 1.523 . S
C1312 C1293 1.368 . S
C1312 C1306 1.368 . S
C1312 C1311 1.523 . S
C1313 C1297 1.429 . S
C1313 C1309 1.429 . S
C1313 C1314 1.523 . S
C1314 C1298 1.368 . S
C1314 C1310 1.368 . S
C1314 C1313 1.523 . S
H1315 C1290 0.950 . S
H1316 C1292 0.950 . S
H1317 C1293 0.949 . S
H1318 C1295 0.950 . S
H1319 C1297 0.950 . S
C1320 C1321 1.349 . S
C1320 C1322 1.327 . S
C1320 H1345 0.950 . S
C1321 C1320 1.349 . S
C1321 C1337 1.349 . S
C1322 C1320 1.327 . S
C1322 C1341 1.429 . S
C1322 H1346 0.950 . S
C1323 C1340 1.574 . S
C1323 C1342 1.368 . S
C1323 H1347 0.949 . S
H1324 C1328 0.949 . S
C1325 C1326 1.349 . S
C1325 C1327 1.327 . S
C1325 H1348 0.950 . S
C1326 C1325 1.349 . S
C1326 C1338 1.349 . S
C1327 C1325 1.327 . S
C1327 C1343 1.429 . S
C1327 H1349 0.950 . S
C1328 H1324 0.949 . S
C1328 C1336 1.574 . S
C1328 C1344 1.368 . S
H1329 C1337 0.950 . S
H1330 C1335 0.950 . S
H1331 C1336 0.949 . S
H1332 C1338 0.950 . S
H1333 C1339 0.950 . S
H1334 C1340 0.949 . S
C1335 H1330 0.950 . S
C1335 C1337 1.327 . S
C1335 C1341 1.429 . S
C1336 C1328 1.574 . S
C1336 H1331 0.949 . S
C1336 C1342 1.368 . S
C1337 C1321 1.349 . S
C1337 H1329 0.950 . S
C1337 C1335 1.327 . S
C1338 C1326 1.349 . S
C1338 H1332 0.950 . S
C1338 C1339 1.327 . S
C1339 H1333 0.950 . S
C1339 C1338 1.327 . S
C1339 C1343 1.429 . S
C1340 C1323 1.574 . S
C1340 H1334 0.949 . S
C1340 C1344 1.368 . S
C1341 C1322 1.429 . S
C1341 C1335 1.429 . S
C1341 C1342 1.523 . S
C1342 C1323 1.368 . S
C1342 C1336 1.368 . S
C1342 C1341 1.523 . S
C1343 C1327 1.429 . S
C1343 C1339 1.429 . S
C1343 C1344 1.523 . S
C1344 C1328 1.368 . S
C1344 C1340 1.368 . S
C1344 C1343 1.523 . S
H1345 C1320 0.950 . S
H1346 C1322 0.950 . S
H1347 C1323 0.949 . S
H1348 C1325 0.950 . S
H1349 C1327 0.950 . S
C1350 C1351 1.349 . S
C1350 C1352 1.327 . S
C1350 H1375 0.950 . S
C1351 C1350 1.349 . S
C1351 C1367 1.349 . S
C1352 C1350 1.327 . S
C1352 C1371 1.429 . S
C1352 H1376 0.950 . S
C1353 C1370 1.574 . S
C1353 C1372 1.368 . S
C1353 H1377 0.949 . S
H1354 C1358 0.949 . S
C1355 C1356 1.349 . S
C1355 C1357 1.327 . S
C1355 H1378 0.950 . S
C1356 C1355 1.349 . S
C1356 C1368 1.349 . S
C1357 C1355 1.327 . S
C1357 C1373 1.429 . S
C1357 H1379 0.950 . S
C1358 H1354 0.949 . S
C1358 C1366 1.574 . S
C1358 C1374 1.368 . S
H1359 C1367 0.950 . S
H1360 C1365 0.950 . S
H1361 C1366 0.949 . S
H1362 C1368 0.950 . S
H1363 C1369 0.950 . S
H1364 C1370 0.949 . S
C1365 H1360 0.950 . S
C1365 C1367 1.327 . S
C1365 C1371 1.429 . S
C1366 C1358 1.574 . S
C1366 H1361 0.949 . S
C1366 C1372 1.368 . S
C1367 C1351 1.349 . S
C1367 H1359 0.950 . S
C1367 C1365 1.327 . S
C1368 C1356 1.349 . S
C1368 H1362 0.950 . S
C1368 C1369 1.327 . S
C1369 H1363 0.950 . S
C1369 C1368 1.327 . S
C1369 C1373 1.429 . S
C1370 C1353 1.574 . S
C1370 H1364 0.949 . S
C1370 C1374 1.368 . S
C1371 C1352 1.429 . S
C1371 C1365 1.429 . S
C1371 C1372 1.523 . S
C1372 C1353 1.368 . S
C1372 C1366 1.368 . S
C1372 C1371 1.523 . S
C1373 C1357 1.429 . S
C1373 C1369 1.429 . S
C1373 C1374 1.523 . S
C1374 C1358 1.368 . S
C1374 C1370 1.368 . S
C1374 C1373 1.523 . S
H1375 C1350 0.950 . S
H1376 C1352 0.950 . S
H1377 C1353 0.949 . S
H1378 C1355 0.950 . S
H1379 C1357 0.950 . S
C1380 C1381 1.349 . S
C1380 C1382 1.327 . S
C1380 H1405 0.950 . S
C1381 C1380 1.349 . S
C1381 C1397 1.349 . S
C1382 C1380 1.327 . S
C1382 C1401 1.429 . S
C1382 H1406 0.950 . S
C1383 C1400 1.574 1_455 S
C1383 C1402 1.368 . S
C1383 H1407 0.949 . S
H1384 C1388 0.949 . S
C1385 C1386 1.349 . S
C1385 C1387 1.327 . S
C1385 H1408 0.950 . S
C1386 C1385 1.349 . S
C1386 C1398 1.349 . S
C1387 C1385 1.327 . S
C1387 C1403 1.429 . S
C1387 H1409 0.950 . S
C1388 H1384 0.949 . S
C1388 C1396 1.574 1_655 S
C1388 C1404 1.368 . S
H1389 C1397 0.950 . S
H1390 C1395 0.950 . S
H1391 C1396 0.949 . S
H1392 C1398 0.950 . S
H1393 C1399 0.950 . S
H1394 C1400 0.949 . S
C1395 H1390 0.950 . S
C1395 C1397 1.327 . S
C1395 C1401 1.429 . S
C1396 C1388 1.574 1_455 S
C1396 H1391 0.949 . S
C1396 C1402 1.368 . S
C1397 C1381 1.349 . S
C1397 H1389 0.950 . S
C1397 C1395 1.327 . S
C1398 C1386 1.349 . S
C1398 H1392 0.950 . S
C1398 C1399 1.327 . S
C1399 H1393 0.950 . S
C1399 C1398 1.327 . S
C1399 C1403 1.429 . S
C1400 C1383 1.574 1_655 S
C1400 H1394 0.949 . S
C1400 C1404 1.368 . S
C1401 C1382 1.429 . S
C1401 C1395 1.429 . S
C1401 C1402 1.523 . S
C1402 C1383 1.368 . S
C1402 C1396 1.368 . S
C1402 C1401 1.523 . S
C1403 C1387 1.429 . S
C1403 C1399 1.429 . S
C1403 C1404 1.523 . S
C1404 C1388 1.368 . S
C1404 C1400 1.368 . S
C1404 C1403 1.523 . S
H1405 C1380 0.950 . S
H1406 C1382 0.950 . S
H1407 C1383 0.949 . S
H1408 C1385 0.950 . S
H1409 C1387 0.950 . S
C1410 C1411 1.349 . S
C1410 C1412 1.327 . S
C1410 H1435 0.950 . S
C1411 C1410 1.349 . S
C1411 C1427 1.349 . S
C1412 C1410 1.327 . S
C1412 C1431 1.429 . S
C1412 H1436 0.950 . S
C1413 C1430 1.574 . S
C1413 C1432 1.368 . S
C1413 H1437 0.949 . S
H1414 C1418 0.949 . S
C1415 C1416 1.349 . S
C1415 C1417 1.327 . S
C1415 H1438 0.950 . S
C1416 C1415 1.349 . S
C1416 C1428 1.349 . S
C1417 C1415 1.327 . S
C1417 C1433 1.429 . S
C1417 H1439 0.950 . S
C1418 H1414 0.949 . S
C1418 C1426 1.574 . S
C1418 C1434 1.368 . S
H1419 C1427 0.950 . S
H1420 C1425 0.950 . S
H1421 C1426 0.949 . S
H1422 C1428 0.950 . S
H1423 C1429 0.950 . S
H1424 C1430 0.949 . S
C1425 H1420 0.950 . S
C1425 C1427 1.327 . S
C1425 C1431 1.429 . S
C1426 C1418 1.574 . S
C1426 H1421 0.949 . S
C1426 C1432 1.368 . S
C1427 C1411 1.349 . S
C1427 H1419 0.950 . S
C1427 C1425 1.327 . S
C1428 C1416 1.349 . S
C1428 H1422 0.950 . S
C1428 C1429 1.327 . S
C1429 H1423 0.950 . S
C1429 C1428 1.327 . S
C1429 C1433 1.429 . S
C1430 C1413 1.574 . S
C1430 H1424 0.949 . S
C1430 C1434 1.368 . S
C1431 C1412 1.429 . S
C1431 C1425 1.429 . S
C1431 C1432 1.523 . S
C1432 C1413 1.368 . S
C1432 C1426 1.368 . S
C1432 C1431 1.523 . S
C1433 C1417 1.429 . S
C1433 C1429 1.429 . S
C1433 C1434 1.523 . S
C1434 C1418 1.368 . S
C1434 C1430 1.368 . S
C1434 C1433 1.523 . S
H1435 C1410 0.950 . S
H1436 C1412 0.950 . S
H1437 C1413 0.949 . S
H1438 C1415 0.950 . S
H1439 C1417 0.950 . S
C1440 C1441 1.349 . S
C1440 C1442 1.327 . S
C1440 H1465 0.950 . S
C1441 C1440 1.349 . S
C1441 C1457 1.349 . S
C1442 C1440 1.327 . S
C1442 C1461 1.429 . S
C1442 H1466 0.950 . S
C1443 C1460 1.574 . S
C1443 C1462 1.368 . S
C1443 H1467 0.949 . S
H1444 C1448 0.949 . S
C1445 C1446 1.349 . S
C1445 C1447 1.327 . S
C1445 H1468 0.950 . S
C1446 C1445 1.349 . S
C1446 C1458 1.349 . S
C1447 C1445 1.327 . S
C1447 C1463 1.429 . S
C1447 H1469 0.950 . S
C1448 H1444 0.949 . S
C1448 C1456 1.574 . S
C1448 C1464 1.368 . S
H1449 C1457 0.950 . S
H1450 C1455 0.950 . S
H1451 C1456 0.949 . S
H1452 C1458 0.950 . S
H1453 C1459 0.950 . S
H1454 C1460 0.949 . S
C1455 H1450 0.950 . S
C1455 C1457 1.327 . S
C1455 C1461 1.429 . S
C1456 C1448 1.574 . S
C1456 H1451 0.949 . S
C1456 C1462 1.368 . S
C1457 C1441 1.349 . S
C1457 H1449 0.950 . S
C1457 C1455 1.327 . S
C1458 C1446 1.349 . S
C1458 H1452 0.950 . S
C1458 C1459 1.327 . S
C1459 H1453 0.950 . S
C1459 C1458 1.327 . S
C1459 C1463 1.429 . S
C1460 C1443 1.574 . S
C1460 H1454 0.949 . S
C1460 C1464 1.368 . S
C1461 C1442 1.429 . S
C1461 C1455 1.429 . S
C1461 C1462 1.523 . S
C1462 C1443 1.368 . S
C1462 C1456 1.368 . S
C1462 C1461 1.523 . S
C1463 C1447 1.429 . S
C1463 C1459 1.429 . S
C1463 C1464 1.523 . S
C1464 C1448 1.368 . S
C1464 C1460 1.368 . S
C1464 C1463 1.523 . S
H1465 C1440 0.950 . S
H1466 C1442 0.950 . S
H1467 C1443 0.949 . S
H1468 C1445 0.950 . S
H1469 C1447 0.950 . S
C1470 C1471 1.349 . S
C1470 C1472 1.327 . S
C1470 H1495 0.950 . S
C1471 C1470 1.349 . S
C1471 C1487 1.349 . S
C1472 C1470 1.327 . S
C1472 C1491 1.429 . S
C1472 H1496 0.950 . S
C1473 C1490 1.574 . S
C1473 C1492 1.368 . S
C1473 H1497 0.949 . S
H1474 C1478 0.949 . S
C1475 C1476 1.349 . S
C1475 C1477 1.327 . S
C1475 H1498 0.950 . S
C1476 C1475 1.349 . S
C1476 C1488 1.349 . S
C1477 C1475 1.327 . S
C1477 C1493 1.429 . S
C1477 H1499 0.950 . S
C1478 H1474 0.949 . S
C1478 C1486 1.574 . S
C1478 C1494 1.368 . S
H1479 C1487 0.950 . S
H1480 C1485 0.950 . S
H1481 C1486 0.949 . S
H1482 C1488 0.950 . S
H1483 C1489 0.950 . S
H1484 C1490 0.949 . S
C1485 H1480 0.950 . S
C1485 C1487 1.327 . S
C1485 C1491 1.429 . S
C1486 C1478 1.574 . S
C1486 H1481 0.949 . S
C1486 C1492 1.368 . S
C1487 C1471 1.349 . S
C1487 H1479 0.950 . S
C1487 C1485 1.327 . S
C1488 C1476 1.349 . S
C1488 H1482 0.950 . S
C1488 C1489 1.327 . S
C1489 H1483 0.950 . S
C1489 C1488 1.327 . S
C1489 C1493 1.429 . S
C1490 C1473 1.574 . S
C1490 H1484 0.949 . S
C1490 C1494 1.368 . S
C1491 C1472 1.429 . S
C1491 C1485 1.429 . S
C1491 C1492 1.523 . S
C1492 C1473 1.368 . S
C1492 C1486 1.368 . S
C1492 C1491 1.523 . S
C1493 C1477 1.429 . S
C1493 C1489 1.429 . S
C1493 C1494 1.523 . S
C1494 C1478 1.368 . S
C1494 C1490 1.368 . S
C1494 C1493 1.523 . S
H1495 C1470 0.950 . S
H1496 C1472 0.950 . S
H1497 C1473 0.949 . S
H1498 C1475 0.950 . S
H1499 C1477 0.950 . S
C1500 C1501 1.349 . S
C1500 C1502 1.327 . S
C1500 H1525 0.950 . S
C1501 C1500 1.349 . S
C1501 C1517 1.349 . S
C1502 C1500 1.327 . S
C1502 C1521 1.429 . S
C1502 H1526 0.950 . S
C1503 C1520 1.574 . S
C1503 C1522 1.368 . S
C1503 H1527 0.949 . S
H1504 C1508 0.949 . S
C1505 C1506 1.349 . S
C1505 C1507 1.327 . S
C1505 H1528 0.950 . S
C1506 C1505 1.349 . S
C1506 C1518 1.349 . S
C1507 C1505 1.327 . S
C1507 C1523 1.429 . S
C1507 H1529 0.950 . S
C1508 H1504 0.949 . S
C1508 C1516 1.574 . S
C1508 C1524 1.368 . S
H1509 C1517 0.950 1_554 S
H1510 C1515 0.950 . S
H1511 C1516 0.949 . S
H1512 C1518 0.950 . S
H1513 C1519 0.950 . S
H1514 C1520 0.949 . S
C1515 H1510 0.950 . S
C1515 C1517 1.327 . S
C1515 C1521 1.429 . S
C1516 C1508 1.574 . S
C1516 H1511 0.949 . S
C1516 C1522 1.368 . S
C1517 C1501 1.349 . S
C1517 H1509 0.950 1_556 S
C1517 C1515 1.327 . S
C1518 C1506 1.349 . S
C1518 H1512 0.950 . S
C1518 C1519 1.327 . S
C1519 H1513 0.950 . S
C1519 C1518 1.327 . S
C1519 C1523 1.429 . S
C1520 C1503 1.574 . S
C1520 H1514 0.949 . S
C1520 C1524 1.368 . S
C1521 C1502 1.429 . S
C1521 C1515 1.429 . S
C1521 C1522 1.523 . S
C1522 C1503 1.368 . S
C1522 C1516 1.368 . S
C1522 C1521 1.523 . S
C1523 C1507 1.429 . S
C1523 C1519 1.429 . S
C1523 C1524 1.523 . S
C1524 C1508 1.368 . S
C1524 C1520 1.368 . S
C1524 C1523 1.523 . S
H1525 C1500 0.950 . S
H1526 C1502 0.950 . S
H1527 C1503 0.949 . S
H1528 C1505 0.950 . S
H1529 C1507 0.950 . S
C1530 C1531 1.349 . S
C1530 C1532 1.327 . S
C1530 H1555 0.950 . S
C1531 C1530 1.349 . S
C1531 C1547 1.349 . S
C1532 C1530 1.327 . S
C1532 C1551 1.429 . S
C1532 H1556 0.950 . S
C1533 C1550 1.574 . S
C1533 C1552 1.368 . S
C1533 H1557 0.949 . S
H1534 C1538 0.949 . S
C1535 C1536 1.349 . S
C1535 C1537 1.327 . S
C1535 H1558 0.950 . S
C1536 C1535 1.349 . S
C1536 C1548 1.349 . S
C1537 C1535 1.327 . S
C1537 C1553 1.429 . S
C1537 H1559 0.950 . S
C1538 H1534 0.949 . S
C1538 C1546 1.574 . S
C1538 C1554 1.368 . S
H1539 C1547 0.950 . S
H1540 C1545 0.950 . S
H1541 C1546 0.949 . S
H1542 C1548 0.950 . S
H1543 C1549 0.950 . S
H1544 C1550 0.949 . S
C1545 H1540 0.950 . S
C1545 C1547 1.327 . S
C1545 C1551 1.429 . S
C1546 C1538 1.574 . S
C1546 H1541 0.949 . S
C1546 C1552 1.368 . S
C1547 C1531 1.349 . S
C1547 H1539 0.950 . S
C1547 C1545 1.327 . S
C1548 C1536 1.349 . S
C1548 H1542 0.950 . S
C1548 C1549 1.327 . S
C1549 H1543 0.950 . S
C1549 C1548 1.327 . S
C1549 C1553 1.429 . S
C1550 C1533 1.574 . S
C1550 H1544 0.949 . S
C1550 C1554 1.368 . S
C1551 C1532 1.429 . S
C1551 C1545 1.429 . S
C1551 C1552 1.523 . S
C1552 C1533 1.368 . S
C1552 C1546 1.368 . S
C1552 C1551 1.523 . S
C1553 C1537 1.429 . S
C1553 C1549 1.429 . S
C1553 C1554 1.523 1_455 S
C1554 C1538 1.368 . S
C1554 C1550 1.368 . S
C1554 C1553 1.523 1_655 S
H1555 C1530 0.950 . S
H1556 C1532 0.950 . S
H1557 C1533 0.949 . S
H1558 C1535 0.950 . S
H1559 C1537 0.950 . S
C481 C20 1.510 . S
C486 C460 1.514 . S
C511 C380 1.614 . S
C516 C42 1.659 . S
C541 C100 1.342 . S
C546 C322 1.383 . S
C571 C122 1.635 . S
C576 C420 1.606 1_545 S
C601 C180 1.672 . S
C606 C402 1.680 . S
C631 C220 1.337 1_455 S
C636 C442 1.370 . S
C661 C362 1.454 1_565 S
C666 C242 1.442 . S
C691 C282 1.379 . S
C696 C340 1.358 . S
C721 C140 1.453 . S
C726 C162 1.482 . S
C751 C2 1.399 . S
C756 C202 1.398 . S
C781 C60 1.623 . S
C786 C260 1.620 . S
C811 C300 1.520 . S
C816 C82 1.569 . S
C841 C4 1.825 . S
C846 C343 1.805 . S
C871 C65 1.090 . S
C876 C431 1.091 . S
C901 C471 1.724 . S
C906 C84 1.672 . S
C931 C145 1.610 . S
C936 C391 1.614 . S
C961 C164 1.272 . S
C966 C383 1.259 . S
C991 C351 1.956 . S
C996 C204 1.896 . S
C1021 C423 1.691 . S
C1026 C265 1.735 . S
C1051 C463 1.038 . S
C1056 C305 1.060 . S
C1081 C23 1.399 . S
C1086 C124 1.414 . S
C1111 C25 1.129 . S
C1116 C71 1.130 . S
C1141 C44 1.319 . S
C1146 C103 1.307 . S
C1171 C151 1.097 . S
C1176 C105 1.096 . S
C1201 C225 1.867 . S
C1206 C183 1.807 . S
C1231 C223 1.550 . S
C1236 C244 1.551 . S
C1261 C271 1.898 . S
C1266 C284 1.856 . S
C1291 C185 1.823 . S
C1296 C311 1.825 . S
C1321 C324 1.894 . S
C1326 C143 1.886 . S
C1351 C231 2.132 . S
C1356 C364 2.077 . S
C1381 C345 1.457 . S
C1386 C263 1.424 . S
C1411 C404 1.255 . S
C1416 C303 1.243 . S
C1441 C191 1.120 . S
C1446 C444 1.095 . S
C1471 C465 1.258 . S
C1476 C63 1.224 . S
C1501 C111 1.333 . S
C1506 C385 1.330 . S
C1531 C425 1.700 . S
C1536 C31 1.701 . S
