# Generated by pormake.
# Topology ukf, (4)-cn, num edge types: 1
# Building blocks:
#     Node 0, Type 0, BuildingBlock: KUFVIS_clean_sbu_0, # of connection points: 4
#     Node 1, Type 0, BuildingBlock: KUFVIS_clean_sbu_0, # of connection points: 4
#     Node 2, Type 0, BuildingBlock: KUFVIS_clean_sbu_0, # of connection points: 4
#     Node 3, Type 0, BuildingBlock: KUFVIS_clean_sbu_0, # of connection points: 4
#     Node 4, Type 0, BuildingBlock: KUFVIS_clean_sbu_0, # of connection points: 4
#     Node 5, Type 0, BuildingBlock: KUFVIS_clean_sbu_0, # of connection points: 4
#     Node 6, Type 0, BuildingBlock: KUFVIS_clean_sbu_0, # of connection points: 4
#     Node 7, Type 0, BuildingBlock: KUFVIS_clean_sbu_0, # of connection points: 4
#     Node 8, Type 0, BuildingBlock: KUFVIS_clean_sbu_0, # of connection points: 4
#     Node 9, Type 0, BuildingBlock: KUFVIS_clean_sbu_0, # of connection points: 4
#     Node 10, Type 0, BuildingBlock: KUFVIS_clean_sbu_0, # of connection points: 4
#     Node 11, Type 0, BuildingBlock: KUFVIS_clean_sbu_0, # of connection points: 4
#     Edge 12, Type (0, 0), BuildingBlock: XIVTED_clean_linker_0, # of connection points: 2
#     Edge 13, Type (0, 0), BuildingBlock: XIVTED_clean_linker_0, # of connection points: 2
#     Edge 14, Type (0, 0), BuildingBlock: XIVTED_clean_linker_0, # of connection points: 2
#     Edge 15, Type (0, 0), BuildingBlock: XIVTED_clean_linker_0, # of connection points: 2
#     Edge 16, Type (0, 0), BuildingBlock: XIVTED_clean_linker_0, # of connection points: 2
#     Edge 17, Type (0, 0), BuildingBlock: XIVTED_clean_linker_0, # of connection points: 2
#     Edge 18, Type (0, 0), BuildingBlock: XIVTED_clean_linker_0, # of connection points: 2
#     Edge 19, Type (0, 0), BuildingBlock: XIVTED_clean_linker_0, # of connection points: 2
#     Edge 20, Type (0, 0), BuildingBlock: XIVTED_clean_linker_0, # of connection points: 2
#     Edge 21, Type (0, 0), BuildingBlock: XIVTED_clean_linker_0, # of connection points: 2
#     Edge 22, Type (0, 0), BuildingBlock: XIVTED_clean_linker_0, # of connection points: 2
#     Edge 23, Type (0, 0), BuildingBlock: XIVTED_clean_linker_0, # of connection points: 2
#     Edge 24, Type (0, 0), BuildingBlock: XIVTED_clean_linker_0, # of connection points: 2
#     Edge 25, Type (0, 0), BuildingBlock: XIVTED_clean_linker_0, # of connection points: 2
#     Edge 26, Type (0, 0), BuildingBlock: XIVTED_clean_linker_0, # of connection points: 2
#     Edge 27, Type (0, 0), BuildingBlock: XIVTED_clean_linker_0, # of connection points: 2
#     Edge 28, Type (0, 0), BuildingBlock: XIVTED_clean_linker_0, # of connection points: 2
#     Edge 29, Type (0, 0), BuildingBlock: XIVTED_clean_linker_0, # of connection points: 2
#     Edge 30, Type (0, 0), BuildingBlock: XIVTED_clean_linker_0, # of connection points: 2
#     Edge 31, Type (0, 0), BuildingBlock: XIVTED_clean_linker_0, # of connection points: 2
#     Edge 32, Type (0, 0), BuildingBlock: XIVTED_clean_linker_0, # of connection points: 2
#     Edge 33, Type (0, 0), BuildingBlock: XIVTED_clean_linker_0, # of connection points: 2
#     Edge 34, Type (0, 0), BuildingBlock: XIVTED_clean_linker_0, # of connection points: 2
#     Edge 35, Type (0, 0), BuildingBlock: XIVTED_clean_linker_0, # of connection points: 2
# Relax obj value: 0.098
# Max RMSD: 0.095
# Mean RMSD: 0.095
data_MOF--net-ukf--node1-KUFVIS_clean_sbu_0--edge1-XIVTED_clean_linker_0
_symmetry_space_group_name_H-M    P1
_symmetry_Int_Tables_number       1
_symmetry_cell_setting            triclinic
loop_
_symmetry_equiv_pos_as_xyz
'x, y, z'
_cell_length_a     32.78915
_cell_length_b     32.789567
_cell_length_c     63.340958
_cell_angle_alpha  90.016038
_cell_angle_beta   89.951975
_cell_angle_gamma 120.05151
loop_
_atom_site_label
_atom_site_type_symbol
_atom_site_fract_x
_atom_site_fract_y
_atom_site_fract_z
_atom_type_partial_charge
Mn0 Mn 0.41677 0.22193 0.04673 0.0
Mn1 Mn 0.51658 0.28015 0.07565 0.0
C2 C 0.48797 0.23537 0.03322 0.0
C3 C 0.3509 0.1506 0.0362 0.0
C4 C 0.47381 0.33009 0.05228 0.0
O5 O 0.39081 0.2171 0.07639 0.0
O6 O 0.45982 0.25825 0.09374 0.0
C7 C 0.50455 0.19915 0.10116 0.0
N8 N 0.53114 0.23574 0.08792 0.0
C9 C 0.59592 0.22102 0.09005 0.0
C10 C 0.56934 0.18334 0.10381 0.0
C11 C 0.52338 0.17224 0.10931 0.0
C12 C 0.57526 0.2465 0.0824 0.0
H13 H 0.4693 0.19062 0.1055 0.0
C14 C 0.41473 0.23489 0.09316 0.0
O15 O 0.35212 0.19055 0.03367 0.0
O16 O 0.38689 0.15209 0.04533 0.0
N17 N 0.57463 0.30322 0.06058 0.0
C18 C 0.59404 0.33802 0.0458 0.0
C19 C 0.63957 0.35273 0.03821 0.0
C20 C 0.66482 0.33179 0.04601 0.0
C21 C 0.64394 0.29568 0.06106 0.0
C22 C 0.59853 0.28266 0.06811 0.0
H23 H 0.57466 0.35395 0.03965 0.0
O24 O 0.45354 0.22762 0.02073 0.0
O25 O 0.48002 0.23516 0.05334 0.0
O26 O 0.43724 0.29316 0.04527 0.0
O27 O 0.50546 0.32867 0.06341 0.0
C28 C 0.66599 0.27145 0.06905 0.0
C29 C 0.64189 0.23397 0.08343 0.0
H30 H 0.58374 0.1625 0.11013 0.0
H31 H 0.50258 0.14311 0.11986 0.0
H32 H 0.6552 0.38017 0.02638 0.0
H33 H 0.69999 0.34338 0.04014 0.0
H34 H 0.70119 0.28084 0.06399 0.0
H35 H 0.65891 0.21508 0.08918 0.0
Mn36 Mn 0.19449 0.41999 0.37802 0.0
Mn37 Mn 0.24236 0.51725 0.40866 0.0
C38 C 0.24664 0.49255 0.3635 0.0
C39 C 0.20079 0.35544 0.36619 0.0
C40 C 0.14176 0.47027 0.39201 0.0
O41 O 0.17957 0.39341 0.40799 0.0
O42 O 0.22221 0.46063 0.42647 0.0
C43 C 0.3273 0.51536 0.42298 0.0
N44 N 0.30752 0.53832 0.41328 0.0
C45 C 0.38358 0.60659 0.40716 0.0
C46 C 0.40476 0.58381 0.41721 0.0
C47 C 0.37649 0.53793 0.42508 0.0
C48 C 0.3344 0.58227 0.40546 0.0
H49 H 0.30568 0.48009 0.42903 0.0
C50 C 0.19685 0.41579 0.42516 0.0
O51 O 0.16083 0.3548 0.36523 0.0
O52 O 0.23613 0.3928 0.37401 0.0
N53 N 0.26395 0.57499 0.39349 0.0
C54 C 0.23805 0.59185 0.38402 0.0
C55 C 0.26104 0.63732 0.37527 0.0
C56 C 0.3103 0.66518 0.37657 0.0
C57 C 0.33616 0.64734 0.38665 0.0
C58 C 0.3113 0.6019 0.39519 0.0
H59 H 0.20015 0.57083 0.38315 0.0
O60 O 0.21944 0.4575 0.35139 0.0
O61 O 0.24355 0.48356 0.38356 0.0
O62 O 0.14328 0.43932 0.38013 0.0
O63 O 0.17568 0.49841 0.404 0.0
C64 C 0.38563 0.6728 0.3885 0.0
C65 C 0.40934 0.65233 0.39863 0.0
H66 H 0.44269 0.6011 0.41887 0.0
H67 H 0.39258 0.52003 0.43278 0.0
H68 H 0.24083 0.65089 0.36757 0.0
H69 H 0.32787 0.70019 0.36976 0.0
H70 H 0.40583 0.70807 0.38211 0.0
H71 H 0.44741 0.67207 0.39976 0.0
Mn72 Mn 0.77668 0.18907 0.71067 0.0
Mn73 Mn 0.72946 0.243 0.7388 0.0
C74 C 0.75934 0.2415 0.69432 0.0
C75 C 0.84591 0.19113 0.69942 0.0
C76 C 0.67216 0.1418 0.72325 0.0
O77 O 0.78819 0.17735 0.74112 0.0
O78 O 0.76097 0.21959 0.75799 0.0
C79 C 0.81851 0.32441 0.75392 0.0
N80 N 0.77674 0.30715 0.74352 0.0
C81 C 0.79126 0.38538 0.73633 0.0
C82 C 0.83428 0.40398 0.7471 0.0
C83 C 0.84802 0.37335 0.75587 0.0
C84 C 0.76339 0.33631 0.73485 0.0
H85 H 0.82924 0.30099 0.76065 0.0
C86 C 0.7808 0.1945 0.75779 0.0
O87 O 0.80572 0.15191 0.69922 0.0
O88 O 0.84572 0.22813 0.70627 0.0
N89 N 0.69801 0.26808 0.72243 0.0
C90 C 0.65558 0.2445 0.71242 0.0
C91 C 0.6368 0.27005 0.70276 0.0
C92 C 0.66147 0.31949 0.70372 0.0
C93 C 0.7046 0.34294 0.71446 0.0
C94 C 0.72141 0.3156 0.72391 0.0
H95 H 0.63625 0.20651 0.71175 0.0
O96 O 0.76523 0.21167 0.6832 0.0
O97 O 0.76496 0.24059 0.71455 0.0
O98 O 0.70528 0.13988 0.71324 0.0
O99 O 0.67869 0.17782 0.73383 0.0
C100 C 0.73173 0.39239 0.71603 0.0
C101 C 0.77515 0.4136 0.72685 0.0
H102 H 0.85715 0.44172 0.74863 0.0
H103 H 0.88126 0.38744 0.76412 0.0
H104 H 0.6034 0.25167 0.69458 0.0
H105 H 0.64702 0.33907 0.69613 0.0
H106 H 0.7197 0.41446 0.70883 0.0
H107 H 0.79591 0.45165 0.72777 0.0
Mn108 Mn 0.58977 0.76724 0.04205 0.0
Mn109 Mn 0.49289 0.71674 0.0731 0.0
C110 C 0.51648 0.7464 0.02843 0.0
C111 C 0.65211 0.8363 0.02756 0.0
C112 C 0.53685 0.66225 0.05468 0.0
O113 O 0.61816 0.78246 0.07164 0.0
O114 O 0.55079 0.74755 0.09063 0.0
C115 C 0.50266 0.80475 0.09091 0.0
N116 N 0.47673 0.76358 0.08021 0.0
C117 C 0.41234 0.77847 0.07622 0.0
C118 C 0.43826 0.82089 0.0873 0.0
C119 C 0.48366 0.83413 0.09463 0.0
C120 C 0.43316 0.75071 0.07294 0.0
H121 H 0.5376 0.81514 0.09653 0.0
C122 C 0.59575 0.77107 0.08911 0.0
O123 O 0.65394 0.7976 0.02824 0.0
O124 O 0.61566 0.83515 0.03596 0.0
N125 N 0.43404 0.68602 0.05835 0.0
C126 C 0.41397 0.64443 0.0476 0.0
C127 C 0.36826 0.62589 0.03945 0.0
C128 C 0.34359 0.65017 0.0425 0.0
C129 C 0.36493 0.69292 0.05359 0.0
C130 C 0.41031 0.70932 0.06161 0.0
H131 H 0.43274 0.62565 0.04514 0.0
O132 O 0.5502 0.75176 0.01598 0.0
O133 O 0.52667 0.7534 0.04834 0.0
O134 O 0.57152 0.69701 0.04525 0.0
O135 O 0.50645 0.66644 0.06568 0.0
C136 C 0.34303 0.71997 0.05694 0.0
C137 C 0.36683 0.76286 0.06814 0.0
H138 H 0.42374 0.84366 0.0902 0.0
H139 H 0.50396 0.8669 0.10312 0.0
H140 H 0.35209 0.59296 0.03085 0.0
H141 H 0.30826 0.6356 0.03627 0.0
H142 H 0.30805 0.70832 0.05083 0.0
H143 H 0.34982 0.78358 0.07044 0.0
Mn144 Mn 0.82195 0.58928 0.37836 0.0
Mn145 Mn 0.78124 0.49467 0.41049 0.0
C146 C 0.77502 0.5141 0.3651 0.0
C147 C 0.80735 0.64631 0.36331 0.0
C148 C 0.88173 0.54726 0.39385 0.0
O149 O 0.83239 0.61849 0.40777 0.0
O150 O 0.79904 0.55204 0.42743 0.0
C151 C 0.69405 0.49219 0.42481 0.0
N152 N 0.71553 0.4706 0.41535 0.0
C153 C 0.641 0.40045 0.40909 0.0
C154 C 0.61811 0.42182 0.4189 0.0
C155 C 0.64476 0.46792 0.42676 0.0
C156 C 0.69021 0.42634 0.40764 0.0
H157 H 0.71436 0.5277 0.43077 0.0
C158 C 0.81897 0.59681 0.42538 0.0
O159 O 0.85001 0.65317 0.36411 0.0
O160 O 0.77478 0.60825 0.37198 0.0
N161 N 0.7621 0.43654 0.39602 0.0
C162 C 0.78947 0.42135 0.38659 0.0
C163 C 0.76817 0.37595 0.37779 0.0
C164 C 0.71904 0.34656 0.3789 0.0
C165 C 0.69167 0.36274 0.38892 0.0
C166 C 0.7149 0.40813 0.3976 0.0
H167 H 0.82725 0.44372 0.38572 0.0
O168 O 0.80121 0.54853 0.35249 0.0
O169 O 0.77705 0.52498 0.38488 0.0
O170 O 0.87796 0.57727 0.38221 0.0
O171 O 0.84849 0.51683 0.40549 0.0
C172 C 0.6422 0.3358 0.39046 0.0
C173 C 0.61687 0.35472 0.40045 0.0
H174 H 0.58009 0.40328 0.42037 0.0
H175 H 0.62734 0.48475 0.43426 0.0
H176 H 0.78954 0.3637 0.3701 0.0
H177 H 0.70269 0.31175 0.37191 0.0
H178 H 0.62325 0.30064 0.38385 0.0
H179 H 0.57881 0.33386 0.40133 0.0
Mn180 Mn 0.23083 0.81586 0.71336 0.0
Mn181 Mn 0.29673 0.78347 0.74213 0.0
C182 C 0.2534 0.76488 0.69959 0.0
C183 C 0.15509 0.79914 0.70286 0.0
C184 C 0.33821 0.87717 0.7195 0.0
O185 O 0.22209 0.83335 0.74318 0.0
O186 O 0.26868 0.81215 0.76058 0.0
C187 C 0.21816 0.70752 0.76643 0.0
N188 N 0.25557 0.72183 0.75314 0.0
C189 C 0.24377 0.64331 0.7513 0.0
C190 C 0.20532 0.62783 0.76507 0.0
C191 C 0.19242 0.66007 0.77264 0.0
C192 C 0.26813 0.69103 0.74569 0.0
H193 H 0.20793 0.73206 0.77223 0.0
C194 C 0.24104 0.82919 0.76002 0.0
O195 O 0.19131 0.84125 0.70059 0.0
O196 O 0.163 0.7684 0.7118 0.0
N197 N 0.32541 0.75442 0.72648 0.0
C198 C 0.36306 0.77485 0.71316 0.0
C199 C 0.38027 0.74732 0.7041 0.0
C200 C 0.35895 0.69919 0.70903 0.0
C201 C 0.32076 0.67908 0.72307 0.0
C202 C 0.30539 0.70838 0.73173 0.0
H203 H 0.37978 0.81182 0.70944 0.0
O204 O 0.2418 0.78873 0.68712 0.0
O205 O 0.25165 0.77176 0.71965 0.0
O206 O 0.29946 0.87246 0.71232 0.0
O207 O 0.341 0.84612 0.73059 0.0
C208 C 0.29714 0.63106 0.72871 0.0
C209 C 0.25855 0.61315 0.74274 0.0
H210 H 0.18529 0.59124 0.76985 0.0
H211 H 0.16266 0.64836 0.7832 0.0
H212 H 0.4099 0.76316 0.69335 0.0
H213 H 0.37228 0.67807 0.70197 0.0
H214 H 0.30814 0.60752 0.72223 0.0
H215 H 0.2404 0.57608 0.7468 0.0
Mn216 Mn 0.77025 0.5862 0.61794 0.0
Mn217 Mn 0.7049 0.48852 0.58867 0.0
C218 C 0.74804 0.5123 0.6312 0.0
C219 C 0.84549 0.64543 0.62894 0.0
C220 C 0.66255 0.53866 0.61226 0.0
O221 O 0.77896 0.61348 0.58834 0.0
O222 O 0.73129 0.54618 0.57084 0.0
C223 C 0.78422 0.49492 0.56356 0.0
N224 N 0.74713 0.47026 0.57686 0.0
C225 C 0.76146 0.40509 0.57761 0.0
C226 C 0.79962 0.4297 0.56383 0.0
C227 C 0.81107 0.47484 0.55681 0.0
C228 C 0.736 0.42691 0.58381 0.0
H229 H 0.79337 0.52971 0.55818 0.0
C230 C 0.75898 0.59088 0.57153 0.0
O231 O 0.80897 0.65077 0.63116 0.0
O232 O 0.83824 0.6073 0.61965 0.0
N233 N 0.67763 0.4298 0.60355 0.0
C234 C 0.63945 0.41043 0.61659 0.0
C235 C 0.62308 0.36512 0.62486 0.0
C236 C 0.64577 0.33992 0.61943 0.0
C237 C 0.68445 0.36015 0.60566 0.0
C238 C 0.69884 0.40525 0.59774 0.0
H239 H 0.62161 0.42936 0.62062 0.0
O240 O 0.7593 0.54733 0.64391 0.0
O241 O 0.75002 0.5215 0.61119 0.0
O242 O 0.70139 0.5734 0.619 0.0
O243 O 0.65986 0.50482 0.60116 0.0
C244 C 0.70933 0.33738 0.59951 0.0
C245 C 0.74794 0.35992 0.58557 0.0
H246 H 0.82047 0.41436 0.55861 0.0
H247 H 0.84059 0.49414 0.54624 0.0
H248 H 0.593 0.34964 0.63537 0.0
H249 H 0.63295 0.30495 0.62581 0.0
H250 H 0.69923 0.30264 0.6055 0.0
H251 H 0.76701 0.3422 0.58107 0.0
Mn252 Mn 0.18758 0.77299 0.95402 0.0
Mn253 Mn 0.23673 0.72444 0.92344 0.0
C254 C 0.24207 0.7558 0.96813 0.0
C255 C 0.19167 0.84237 0.96653 0.0
C256 C 0.13854 0.66771 0.94232 0.0
O257 O 0.17142 0.78396 0.92424 0.0
O258 O 0.20965 0.75468 0.90558 0.0
C259 C 0.31484 0.81326 0.90613 0.0
N260 N 0.29977 0.77203 0.91675 0.0
C261 C 0.3794 0.78852 0.92162 0.0
C262 C 0.39574 0.83099 0.91061 0.0
C263 C 0.36331 0.84345 0.90287 0.0
C264 C 0.3307 0.7599 0.92441 0.0
H265 H 0.29008 0.8231 0.90024 0.0
C266 C 0.18519 0.77511 0.90689 0.0
O267 O 0.15244 0.80226 0.96743 0.0
O268 O 0.22738 0.84213 0.95806 0.0
N269 N 0.26503 0.69419 0.93842 0.0
C270 C 0.24354 0.65184 0.94858 0.0
C271 C 0.27104 0.63403 0.95709 0.0
C272 C 0.32027 0.65965 0.95488 0.0
C273 C 0.34152 0.70265 0.94399 0.0
C274 C 0.31226 0.71835 0.93562 0.0
H275 H 0.20574 0.63187 0.95029 0.0
O276 O 0.21402 0.76198 0.9804 0.0
O277 O 0.23825 0.76098 0.94805 0.0
O278 O 0.13804 0.70158 0.95232 0.0
O279 O 0.17277 0.67347 0.93055 0.0
C280 C 0.39061 0.73066 0.9412 0.0
C281 C 0.40955 0.77368 0.93011 0.0
H282 H 0.4331 0.8544 0.90808 0.0
H283 H 0.37565 0.87628 0.89444 0.0
H284 H 0.25434 0.60072 0.9654 0.0
H285 H 0.34139 0.64603 0.96166 0.0
H286 H 0.41414 0.71961 0.94764 0.0
H287 H 0.44738 0.7951 0.92822 0.0
Mn288 Mn 0.41893 0.19174 0.28789 0.0
Mn289 Mn 0.51662 0.24203 0.25747 0.0
C290 C 0.49138 0.24266 0.30284 0.0
C291 C 0.35432 0.1972 0.30029 0.0
C292 C 0.47023 0.14049 0.273 0.0
O293 O 0.39259 0.17907 0.25789 0.0
O294 O 0.46007 0.22315 0.23979 0.0
C295 C 0.5144 0.32788 0.24494 0.0
N296 N 0.53752 0.30749 0.25392 0.0
C297 C 0.60549 0.3832 0.26101 0.0
C298 C 0.58253 0.405 0.2517 0.0
C299 C 0.53672 0.37721 0.24369 0.0
C300 C 0.58139 0.33391 0.26188 0.0
H301 H 0.47918 0.30666 0.23881 0.0
C302 C 0.41518 0.19784 0.24092 0.0
O303 O 0.3536 0.15716 0.30054 0.0
O304 O 0.39175 0.23309 0.29285 0.0
N305 N 0.57443 0.26271 0.27246 0.0
C306 C 0.5917 0.23624 0.28098 0.0
C307 C 0.63735 0.25867 0.28951 0.0
C308 C 0.66499 0.30801 0.28897 0.0
C309 C 0.64674 0.33451 0.27989 0.0
C310 C 0.60119 0.31017 0.27144 0.0
H311 H 0.57092 0.19829 0.28126 0.0
O312 O 0.45616 0.21467 0.31471 0.0
O313 O 0.4826 0.24117 0.28282 0.0
O314 O 0.43847 0.14089 0.28475 0.0
O315 O 0.49813 0.17517 0.26126 0.0
C316 C 0.67192 0.3841 0.27891 0.0
C317 C 0.65119 0.40844 0.26961 0.0
H318 H 0.59963 0.44303 0.2507 0.0
H319 H 0.51867 0.39377 0.23656 0.0
H320 H 0.65125 0.23797 0.29643 0.0
H321 H 0.70018 0.32514 0.29556 0.0
H322 H 0.70713 0.40389 0.2854 0.0
H323 H 0.67072 0.44659 0.26915 0.0
Mn324 Mn 0.22344 0.41093 0.62105 0.0
Mn325 Mn 0.27229 0.51162 0.59246 0.0
C326 C 0.23883 0.48081 0.63668 0.0
C327 C 0.1538 0.34353 0.63185 0.0
C328 C 0.32915 0.46962 0.61046 0.0
O329 O 0.21509 0.38692 0.59079 0.0
O330 O 0.2443 0.45608 0.57345 0.0
C331 C 0.18387 0.50077 0.57474 0.0
N332 N 0.22442 0.52659 0.58586 0.0
C333 C 0.20696 0.5889 0.59129 0.0
C334 C 0.16517 0.56313 0.57976 0.0
C335 C 0.15352 0.51881 0.57151 0.0
C336 C 0.23575 0.56905 0.59404 0.0
H337 H 0.17473 0.46664 0.56843 0.0
C338 C 0.22477 0.41116 0.5739 0.0
O339 O 0.19419 0.3451 0.63296 0.0
O340 O 0.15403 0.38017 0.62424 0.0
N341 N 0.30089 0.56883 0.60847 0.0
C342 C 0.34254 0.58926 0.61917 0.0
C343 C 0.35945 0.63389 0.62831 0.0
C344 C 0.3337 0.65733 0.62614 0.0
C345 C 0.29144 0.63606 0.61469 0.0
C346 C 0.2766 0.59173 0.60575 0.0
H347 H 0.36266 0.57158 0.6208 0.0
O348 O 0.23224 0.44537 0.64819 0.0
O349 O 0.23485 0.47396 0.61641 0.0
O350 O 0.29519 0.43403 0.61985 0.0
O351 O 0.3234 0.49902 0.59942 0.0
C352 C 0.26331 0.65696 0.61191 0.0
C353 C 0.22098 0.63329 0.60031 0.0
H354 H 0.14165 0.57691 0.57724 0.0
H355 H 0.12122 0.49861 0.56268 0.0
H356 H 0.39219 0.65015 0.63705 0.0
H357 H 0.34669 0.69161 0.63334 0.0
H358 H 0.27373 0.69108 0.61875 0.0
H359 H 0.19944 0.64953 0.59844 0.0
Mn360 Mn 0.82029 0.22441 0.95281 0.0
Mn361 Mn 0.78128 0.29108 0.92929 0.0
C362 C 0.76706 0.23954 0.96978 0.0
C363 C 0.80901 0.14889 0.95961 0.0
C364 C 0.87643 0.33318 0.95057 0.0
O365 O 0.8368 0.22234 0.92211 0.0
O366 O 0.81251 0.27011 0.90837 0.0
C367 C 0.70795 0.21621 0.90251 0.0
N368 N 0.72048 0.25039 0.91742 0.0
C369 C 0.64127 0.23672 0.91925 0.0
C370 C 0.62762 0.20163 0.9038 0.0
C371 C 0.6611 0.19127 0.89544 0.0
C372 C 0.68853 0.26064 0.92558 0.0
H373 H 0.73347 0.20801 0.89605 0.0
C374 C 0.8312 0.244 0.90668 0.0
O375 O 0.85 0.18633 0.96246 0.0
O376 O 0.77601 0.15555 0.95237 0.0
N377 N 0.74947 0.31322 0.94731 0.0
C378 C 0.76734 0.34526 0.96328 0.0
C379 C 0.73797 0.35828 0.9739 0.0
C380 C 0.69057 0.33842 0.96791 0.0
C381 C 0.67293 0.30559 0.95139 0.0
C382 C 0.70398 0.29421 0.94129 0.0
H383 H 0.80343 0.36003 0.96813 0.0
O384 O 0.79376 0.22846 0.98051 0.0
O385 O 0.77261 0.24212 0.94941 0.0
O386 O 0.8747 0.29422 0.95526 0.0
O387 O 0.84301 0.33559 0.94144 0.0
C388 C 0.62545 0.28271 0.94494 0.0
C389 C 0.60962 0.24826 0.9289 0.0
H390 H 0.59146 0.18212 0.89839 0.0
H391 H 0.65079 0.16406 0.88359 0.0
H392 H 0.75175 0.38329 0.98677 0.0
H393 H 0.66788 0.34813 0.9763 0.0
H394 H 0.60063 0.29076 0.95246 0.0
H395 H 0.57287 0.2304 0.92431 0.0
Mn396 Mn 0.59172 0.81929 0.283 0.0
Mn397 Mn 0.49169 0.78514 0.2552 0.0
C398 C 0.51893 0.77115 0.29825 0.0
C399 C 0.65133 0.80273 0.29255 0.0
C400 C 0.54711 0.88135 0.27555 0.0
O401 O 0.61581 0.83402 0.25274 0.0
O402 O 0.54682 0.8096 0.23588 0.0
C403 C 0.49008 0.70426 0.23357 0.0
N404 N 0.46876 0.7216 0.24627 0.0
C405 C 0.401 0.64441 0.25078 0.0
C406 C 0.42209 0.62579 0.23763 0.0
C407 C 0.46687 0.65585 0.22903 0.0
C408 C 0.42586 0.69293 0.25477 0.0
H409 H 0.52458 0.72716 0.227 0.0
C410 C 0.59158 0.82712 0.23602 0.0
O411 O 0.65774 0.84505 0.29461 0.0
O412 O 0.61138 0.77137 0.28479 0.0
N413 N 0.43514 0.76013 0.27162 0.0
C414 C 0.41929 0.78377 0.28368 0.0
C415 C 0.37477 0.75889 0.29327 0.0
C416 C 0.34674 0.71008 0.29014 0.0
C417 C 0.36333 0.68666 0.27729 0.0
C418 C 0.40779 0.71342 0.26797 0.0
H419 H 0.44043 0.82131 0.28596 0.0
O420 O 0.55575 0.7951 0.31 0.0
O421 O 0.52595 0.77565 0.27802 0.0
O422 O 0.58053 0.87636 0.28334 0.0
O423 O 0.51288 0.84985 0.26476 0.0
C424 C 0.33751 0.63783 0.27336 0.0
C425 C 0.35643 0.61668 0.2602 0.0
H426 H 0.40432 0.58846 0.23411 0.0
H427 H 0.48347 0.64171 0.21895 0.0
H428 H 0.36208 0.77729 0.30304 0.0
H429 H 0.31247 0.69102 0.29762 0.0
H430 H 0.30313 0.61617 0.28044 0.0
H431 H 0.33638 0.57905 0.25742 0.0
H432 H 0.16639 0.85467 0.00618 0.0
H433 H 0.30237 0.13633 0.99919 0.0
H434 H 0.23455 0.92994 0.94924 0.0
H435 H 0.31513 0.06252 0.05278 0.0
H436 H 0.2514 0.05999 0.98189 0.0
H437 H 0.19487 0.93067 0.02439 0.0
C438 C 0.18589 0.88715 0.99735 0.0
C439 C 0.19805 0.88624 0.97619 0.0
C440 C 0.26458 0.06067 0.99764 0.0
C441 C 0.23028 0.97268 0.99676 0.0
C442 C 0.29332 0.10407 0.00755 0.0
C443 C 0.31302 0.10562 0.0274 0.0
C444 C 0.25455 0.01867 0.00791 0.0
C445 C 0.30076 0.06279 0.03743 0.0
C446 C 0.20245 0.93035 0.00777 0.0
C447 C 0.22435 0.92929 0.96556 0.0
N448 N 0.27235 0.02105 0.02759 0.0
N449 N 0.23964 0.97079 0.97594 0.0
H450 H 0.24883 0.31803 0.38502 0.0
H451 H 0.31145 0.2394 0.28094 0.0
H452 H 0.17133 0.30807 0.32851 0.0
H453 H 0.31307 0.17311 0.33937 0.0
H454 H 0.26093 0.26576 0.29746 0.0
H455 H 0.27387 0.26609 0.36895 0.0
C456 C 0.23627 0.30399 0.36937 0.0
C457 C 0.20779 0.31706 0.35809 0.0
C458 C 0.27133 0.24446 0.30653 0.0
C459 C 0.23766 0.25903 0.33934 0.0
C460 C 0.30009 0.2294 0.29712 0.0
C461 C 0.31596 0.2037 0.30879 0.0
C462 C 0.25988 0.23533 0.32802 0.0
C463 C 0.30097 0.1923 0.32979 0.0
C464 C 0.25052 0.27435 0.36023 0.0
C465 C 0.19289 0.29837 0.33779 0.0
N466 N 0.27463 0.20914 0.33891 0.0
N467 N 0.2089 0.27114 0.32885 0.0
H468 H 0.93173 0.23469 0.71816 0.0
H469 H 0.06799 0.30121 0.61304 0.0
H470 H 0.86098 0.16127 0.66133 0.0
H471 H 0.1383 0.29922 0.67011 0.0
H472 H 0.99178 0.2495 0.62988 0.0
H473 H 0.00779 0.25832 0.70138 0.0
C474 C 0.93229 0.22253 0.70231 0.0
C475 C 0.89016 0.19572 0.69114 0.0
C476 C 0.02385 0.25933 0.63856 0.0
C477 C 0.97697 0.22418 0.67156 0.0
C478 C 0.0673 0.28878 0.62896 0.0
C479 C 0.10936 0.30413 0.64019 0.0
C480 C 0.02239 0.2466 0.65982 0.0
C481 C 0.10662 0.28765 0.66087 0.0
C482 C 0.97565 0.23603 0.69275 0.0
C483 C 0.89272 0.18145 0.67054 0.0
N484 N 0.06379 0.26068 0.67022 0.0
N485 N 0.93549 0.19682 0.6612 0.0
H486 H 0.74658 0.90058 0.03408 0.0
H487 H 0.74171 0.06714 0.94255 0.0
H488 H 0.62988 0.86662 0.99257 0.0
H489 H 0.84876 0.12052 0.9908 0.0
H490 H 0.71089 0.98799 0.95648 0.0
H491 H 0.79364 0.97577 0.01485 0.0
C492 C 0.73139 0.90851 0.02062 0.0
C493 C 0.68454 0.8775 0.01472 0.0
C494 C 0.74146 0.01674 0.96397 0.0
C495 C 0.73747 0.96273 0.9929 0.0
C496 C 0.75925 0.06204 0.95594 0.0
C497 C 0.7976 0.10058 0.96564 0.0
C498 C 0.76158 0.00951 0.98214 0.0
C499 C 0.81911 0.09172 0.98284 0.0
C500 C 0.75801 0.9514 0.00978 0.0
C501 C 0.66599 0.88956 0.9975 0.0
N502 N 0.80033 0.04711 0.9908 0.0
N503 N 0.69237 0.93106 0.98727 0.0
H504 H 0.6538 0.72505 0.2804 0.0
H505 H 0.85473 0.74394 0.35781 0.0
H506 H 0.72645 0.84693 0.32065 0.0
H507 H 0.72798 0.61573 0.34092 0.0
H508 H 0.82455 0.78931 0.33846 0.0
H509 H 0.69965 0.69282 0.29555 0.0
C510 C 0.67986 0.74541 0.29231 0.0
C511 C 0.68565 0.78845 0.29951 0.0
C512 C 0.80375 0.75124 0.33901 0.0
C513 C 0.73845 0.75118 0.31714 0.0
C514 C 0.82098 0.72544 0.3499 0.0
C515 C 0.79364 0.67606 0.35104 0.0
C516 C 0.75978 0.72708 0.32879 0.0
C517 C 0.75007 0.65372 0.34063 0.0
C518 C 0.70602 0.72685 0.30099 0.0
C519 C 0.72068 0.81347 0.31475 0.0
N520 N 0.73476 0.67925 0.32993 0.0
N521 N 0.74551 0.79417 0.32332 0.0
H522 H 0.87731 0.73078 0.65 0.0
H523 H 0.07763 0.71248 0.70591 0.0
H524 H 0.92095 0.63271 0.62968 0.0
H525 H 0.1237 0.85031 0.67956 0.0
H526 H 1.00291 0.68249 0.6876 0.0
H527 H 0.95348 0.77624 0.66878 0.0
C528 C 0.90292 0.71917 0.64923 0.0
C529 C 0.89248 0.67763 0.63833 0.0
C530 C 0.02915 0.71947 0.68608 0.0
C531 C 0.97829 0.72855 0.65991 0.0
C532 C 0.07192 0.7368 0.69653 0.0
C533 C 0.10751 0.78402 0.6941 0.0
C534 C 0.02108 0.74941 0.67325 0.0
C535 C 0.09739 0.81363 0.68178 0.0
C536 C 0.9462 0.74511 0.65988 0.0
C537 C 0.92701 0.66421 0.6379 0.0
N538 N 0.055 0.79574 0.67163 0.0
N539 N 0.96776 0.68902 0.6488 0.0
H540 H 0.76428 0.27763 0.0075 0.0
H541 H 0.52769 0.18569 0.04816 0.0
H542 H 0.67642 0.19279 0.95623 0.0
H543 H 0.5383 0.27915 0.99793 0.0
H544 H 0.59742 0.18527 0.03394 0.0
H545 H 0.6944 0.27285 0.02438 0.0
C546 C 0.73035 0.25854 -0.00024 0.0
C547 C 0.72606 0.23758 0.98002 0.0
C548 C 0.58436 0.20593 0.02619 0.0
C549 C 0.64725 0.23214 0.99905 0.0
C550 C 0.54524 0.20664 0.03435 0.0
C551 C 0.52918 0.2345 0.02476 0.0
C552 C 0.60597 0.23177 0.00793 0.0
C553 C 0.55082 0.25851 0.00608 0.0
C554 C 0.69082 0.25585 0.00934 0.0
C555 C 0.68125 0.21156 0.97092 0.0
N556 N 0.58845 0.25672 0.99822 0.0
N557 N 0.64342 0.21032 0.98031 0.0
H558 H 0.23924 0.55547 0.33805 0.0
H559 H 0.4601 0.7757 0.32744 0.0
H560 H 0.34004 0.52526 0.36706 0.0
H561 H 0.48355 0.67848 0.29086 0.0
H562 H 0.3896 0.70824 0.3431 0.0
H563 H 0.30498 0.62712 0.32222 0.0
C564 C 0.27523 0.56417 0.34108 0.0
C565 C 0.28482 0.5358 0.35429 0.0
C566 C 0.41041 0.70203 0.33166 0.0
C567 C 0.35876 0.61519 0.33576 0.0
C568 C 0.45023 0.74015 0.32277 0.0
C569 C 0.47631 0.73215 0.3075 0.0
C570 C 0.39855 0.65611 0.32592 0.0
C571 C 0.46328 0.6857 0.30222 0.0
C572 C 0.31236 0.60469 0.33211 0.0
C573 C 0.33168 0.54732 0.35738 0.0
N574 N 0.42536 0.64915 0.3116 0.0
N575 N 0.36717 0.58617 0.34802 0.0
H576 H 0.69208 0.23388 0.66689 0.0
H577 H 0.8065 0.48087 0.61941 0.0
H578 H 0.82163 0.33475 0.69706 0.0
H579 H 0.69111 0.45054 0.66138 0.0
H580 H 0.80912 0.41242 0.63372 0.0
H581 H 0.68781 0.29951 0.65006 0.0
C582 C 0.71952 0.26985 0.66986 0.0
C583 C 0.75633 0.27957 0.68383 0.0
C584 C 0.78303 0.42071 0.63954 0.0
C585 C 0.75265 0.35328 0.66427 0.0
C586 C 0.78135 0.45929 0.63143 0.0
C587 C 0.74777 0.47018 0.63898 0.0
C588 C 0.75061 0.39299 0.65506 0.0
C589 C 0.71687 0.44242 0.65499 0.0
C590 C 0.71706 0.30691 0.66033 0.0
C591 C 0.79197 0.32637 0.68685 0.0
N592 N 0.71857 0.4044 0.6624 0.0
N593 N 0.78929 0.36181 0.67711 0.0
H594 H 0.23849 0.68791 0.99393 0.0
H595 H 0.49292 0.81314 0.0349 0.0
H596 H 0.33458 0.81953 0.96379 0.0
H597 H 0.44939 0.68306 0.00159 0.0
H598 H 0.42507 0.81585 0.02002 0.0
H599 H 0.30641 0.68454 0.0085 0.0
C600 C 0.27394 0.716 0.99049 0.0
C601 C 0.28161 0.75317 0.97716 0.0
C602 C 0.43051 0.78675 0.01611 0.0
C603 C 0.35799 0.75074 0.99444 0.0
C604 C 0.46873 0.78502 0.02458 0.0
C605 C 0.47562 0.74723 0.01974 0.0
C606 C 0.39892 0.75005 0.00308 0.0
C607 C 0.44441 0.71224 0.00588 0.0
C608 C 0.31231 0.71407 0.99877 0.0
C609 C 0.32777 0.78963 0.97354 0.0
N610 N 0.40656 0.71396 0.99824 0.0
N611 N 0.36456 0.78769 0.98225 0.0
H612 H 0.55552 0.2339 0.3269 0.0
H613 H 0.77658 0.44645 0.34043 0.0
H614 H 0.52276 0.33585 0.30126 0.0
H615 H 0.68345 0.48717 0.3695 0.0
H616 H 0.70723 0.37565 0.32611 0.0
H617 H 0.62824 0.29896 0.34239 0.0
C618 C 0.56382 0.26999 0.32459 0.0
C619 C 0.53452 0.28019 0.31234 0.0
C620 C 0.7023 0.40016 0.3357 0.0
C621 C 0.61512 0.35329 0.33044 0.0
C622 C 0.74152 0.44022 0.34378 0.0
C623 C 0.73508 0.47135 0.35656 0.0
C624 C 0.65709 0.393 0.3397 0.0
C625 C 0.68936 0.46299 0.36011 0.0
C626 C 0.60496 0.30674 0.33332 0.0
C627 C 0.54551 0.32708 0.31017 0.0
N628 N 0.6519 0.4247 0.35151 0.0
N629 N 0.58497 0.36212 0.31928 0.0
H630 H 0.30508 0.53974 0.66458 0.0
H631 H 0.19567 0.67504 0.71175 0.0
H632 H 0.17842 0.51388 0.63254 0.0
H633 H 0.30824 0.75971 0.66843 0.0
H634 H 0.19215 0.60379 0.69714 0.0
H635 H 0.3101 0.61038 0.68097 0.0
C636 C 0.27845 0.54907 0.66109 0.0
C637 C 0.2423 0.52255 0.64672 0.0
C638 C 0.21778 0.63812 0.69106 0.0
C639 C 0.24674 0.60077 0.6658 0.0
C640 C 0.22002 0.67849 0.69937 0.0
C641 C 0.25317 0.72293 0.69156 0.0
C642 C 0.24905 0.64265 0.67501 0.0
C643 C 0.28291 0.72588 0.67504 0.0
C644 C 0.28131 0.58898 0.67038 0.0
C645 C 0.20763 0.53473 0.64305 0.0
N646 N 0.28058 0.68603 0.66739 0.0
N647 N 0.21066 0.57325 0.65256 0.0
H648 H 0.35342 0.14904 0.10988 0.0
H649 H 0.39614 0.26252 0.2248 0.0
H650 H 0.42444 0.2978 0.12327 0.0
H651 H 0.37921 0.12574 0.21245 0.0
H652 H 0.37573 0.26699 0.18802 0.0
H653 H 0.33317 0.13272 0.14753 0.0
C654 C 0.36302 0.17817 0.12063 0.0
C655 C 0.39057 0.22479 0.11365 0.0
C656 C 0.37513 0.23539 0.19349 0.0
C657 C 0.36803 0.20658 0.15638 0.0
C658 C 0.38648 0.23275 0.21445 0.0
C659 C 0.38923 0.19373 0.22146 0.0
C660 C 0.36703 0.19893 0.17945 0.0
C661 C 0.37704 0.15622 0.20752 0.0
C662 C 0.35189 0.16887 0.14207 0.0
C663 C 0.40313 0.26139 0.12815 0.0
N664 N 0.36712 0.16001 0.18699 0.0
N665 N 0.39211 0.25152 0.14888 0.0
H666 H 0.25625 0.39123 0.44291 0.0
H667 H 0.13827 0.36582 0.55569 0.0
H668 H 0.12341 0.3853 0.45256 0.0
H669 H 0.2835 0.40627 0.54534 0.0
H670 H 0.12244 0.34669 0.51798 0.0
H671 H 0.25596 0.36984 0.47998 0.0
C672 C 0.22622 0.38371 0.45274 0.0
C673 C 0.18966 0.38961 0.44485 0.0
C674 C 0.15745 0.35843 0.52407 0.0
C675 C 0.18969 0.36683 0.48726 0.0
C676 C 0.16632 0.3689 0.54555 0.0
C677 C 0.2121 0.38722 0.55342 0.0
C678 C 0.1948 0.36663 0.51051 0.0
C679 C 0.24768 0.39184 0.53974 0.0
C680 C 0.22619 0.37191 0.47389 0.0
C681 C 0.15193 0.38052 0.45816 0.0
N682 N 0.2384 0.38207 0.51888 0.0
N683 N 0.1532 0.37022 0.47887 0.0
H684 H 0.87654 0.30727 0.87521 0.0
H685 H 0.87098 0.24531 0.77103 0.0
H686 H 0.80493 0.15866 0.88912 0.0
H687 H 0.73295 0.13674 0.79058 0.0
H688 H 0.89748 0.25492 0.80793 0.0
H689 H 0.8766 0.2892 0.8377 0.0
C690 C 0.86212 0.27092 0.87037 0.0
C691 C 0.84104 0.23438 0.88516 0.0
C692 C 0.86178 0.22816 0.80403 0.0
C693 C 0.83991 0.21337 0.84242 0.0
C694 C 0.84688 0.22229 0.78304 0.0
C695 C 0.79995 0.18999 0.77797 0.0
C696 C 0.82935 0.20144 0.81987 0.0
C697 C 0.76954 0.16169 0.794 0.0
C698 C 0.86233 0.2606 0.84902 0.0
C699 C 0.82207 0.18776 0.87814 0.0
N700 N 0.78469 0.16826 0.81435 0.0
N701 N 0.82072 0.17845 0.85714 0.0
H702 H 0.60863 0.7222 0.12046 0.0
H703 H 0.58732 0.87857 0.20345 0.0
H704 H 0.63582 0.86069 0.10336 0.0
H705 H 0.64506 0.79106 0.22139 0.0
H706 H 0.60918 0.87581 0.16672 0.0
H707 H 0.62726 0.74799 0.1573 0.0
C708 C 0.62045 0.75861 0.1244 0.0
C709 C 0.62139 0.78967 0.10898 0.0
C710 C 0.61836 0.85833 0.17875 0.0
C711 C 0.64029 0.81865 0.15099 0.0
C712 C 0.60587 0.85991 0.19966 0.0
C713 C 0.61468 0.83519 0.21532 0.0
C714 C 0.63809 0.8303 0.1734 0.0
C715 C 0.63817 0.81093 0.20969 0.0
C716 C 0.63084 0.77327 0.14539 0.0
C717 C 0.63549 0.83607 0.11485 0.0
N718 N 0.648 0.80803 0.18904 0.0
N719 N 0.64324 0.84889 0.13552 0.0
H720 H 0.70021 0.58412 0.53988 0.0
H721 H 0.88643 0.62616 0.45568 0.0
H722 H 0.84717 0.6505 0.55644 0.0
H723 H 0.75694 0.62198 0.43944 0.0
H724 H 0.87741 0.64516 0.49222 0.0
H725 H 0.72233 0.6069 0.50309 0.0
C726 C 0.73721 0.6048 0.53579 0.0
C727 C 0.77196 0.6155 0.55109 0.0
C728 C 0.8518 0.6418 0.48054 0.0
C729 C 0.79763 0.64008 0.50897 0.0
C730 C 0.85715 0.63125 0.4597 0.0
C731 C 0.82261 0.62312 0.44467 0.0
C732 C 0.81079 0.64253 0.48639 0.0
C733 C 0.78454 0.62864 0.45064 0.0
C734 C 0.74989 0.61776 0.51481 0.0
C735 C 0.81941 0.64192 0.54505 0.0
N736 N 0.77906 0.637 0.47117 0.0
N737 N 0.83092 0.65228 0.52432 0.0
H738 H 0.12201 0.72644 0.87589 0.0
H739 H 0.29769 0.88288 0.79194 0.0
H740 H 0.23541 0.86434 0.89244 0.0
H741 H 0.15188 0.79392 0.775 0.0
H742 H 0.27417 0.88072 0.8288 0.0
H743 H 0.12799 0.75231 0.8391 0.0
C744 C 0.14685 0.76274 0.87185 0.0
C745 C 0.17789 0.79361 0.88707 0.0
C746 C 0.24711 0.86282 0.81696 0.0
C747 C 0.18654 0.8227 0.84513 0.0
C748 C 0.26057 0.86414 0.79596 0.0
C749 C 0.22659 0.83874 0.78055 0.0
C750 C 0.19956 0.83438 0.82264 0.0
C751 C 0.17898 0.81434 0.78649 0.0
C752 C 0.15045 0.77746 0.85089 0.0
C753 C 0.21048 0.83986 0.88109 0.0
N754 N 0.16689 0.81167 0.80721 0.0
N755 N 0.21478 0.85275 0.86045 0.0
H756 H 0.59651 0.63334 0.03809 0.0
H757 H 0.40723 0.35733 0.04687 0.0
H758 H 0.45785 0.5793 0.06514 0.0
H759 H 0.55738 0.41222 0.04862 0.0
H760 H 0.42228 0.43879 0.04497 0.0
H761 H 0.57988 0.55179 0.03395 0.0
C762 C 0.56265 0.60458 0.04307 0.0
C763 C 0.52874 0.61355 0.05205 0.0
C764 C 0.45182 0.4327 0.04548 0.0
C765 C 0.50912 0.52032 0.04689 0.0
C766 C 0.44323 0.38629 0.04641 0.0
C767 C 0.48103 0.37782 0.04798 0.0
C768 C 0.49848 0.47069 0.04572 0.0
C769 C 0.52707 0.41686 0.0475 0.0
C770 C 0.55314 0.55809 0.04067 0.0
C771 C 0.4853 0.57454 0.05815 0.0
N772 N 0.53448 0.46143 0.04643 0.0
N773 N 0.47674 0.52986 0.05539 0.0
H774 H 0.92606 0.53492 0.42717 0.0
H775 H 0.08433 0.46208 0.35843 0.0
H776 H 0.93371 0.54862 0.35941 0.0
H777 H 0.10602 0.49578 0.42476 0.0
H778 H 0.02325 0.48508 0.3581 0.0
H779 H 0.98801 0.5144 0.42629 0.0
C780 C 0.94155 0.53448 0.41211 0.0
C781 C 0.92523 0.54414 0.39337 0.0
C782 C 0.04132 0.48715 0.37271 0.0
C783 C 0.99528 0.51893 0.39212 0.0
C784 C 0.07565 0.47344 0.37296 0.0
C785 C 0.10011 0.47679 0.39167 0.0
C786 C 0.03108 0.50361 0.39137 0.0
C787 C 0.0881 0.49261 0.40998 0.0
C788 C 0.97672 0.52244 0.41158 0.0
C789 C 0.946 0.54231 0.37424 0.0
N790 N 0.05452 0.50526 0.40936 0.0
N791 N 0.97966 0.52938 0.37406 0.0
H792 H 0.59553 0.13296 0.74445 0.0
H793 H 0.40807 0.88629 0.6934 0.0
H794 H 0.63439 0.06073 0.69865 0.0
H795 H 0.37206 0.96438 0.73682 0.0
H796 H 0.4899 0.95125 0.69311 0.0
H797 H 0.51365 0.07249 0.74066 0.0
C798 C 0.58706 0.10424 0.73361 0.0
C799 C 0.62249 0.10221 0.72187 0.0
C800 C 0.46405 0.95461 0.70244 0.0
C801 C 0.52734 0.03214 0.71739 0.0
C802 C 0.41731 0.91767 0.70252 0.0
C803 C 0.38336 0.92029 0.71503 0.0
C804 C 0.47707 0.99426 0.71522 0.0
C805 C 0.39707 0.96142 0.72669 0.0
C806 C 0.5399 0.06966 0.73141 0.0
C807 C 0.60858 0.06381 0.70812 0.0
N808 N 0.44295 0.99661 0.72664 0.0
N809 N 0.56211 0.03029 0.70628 0.0
H810 H 0.63284 0.59979 0.60054 0.0
H811 H 0.36337 0.41998 0.63263 0.0
H812 H 0.5888 0.47038 0.63435 0.0
H813 H 0.40882 0.54397 0.59399 0.0
H814 H 0.44621 0.44095 0.63652 0.0
H815 H 0.55157 0.58471 0.60212 0.0
C816 C 0.60623 0.56877 0.6087 0.0
C817 C 0.6173 0.53608 0.61717 0.0
C818 C 0.43785 0.46352 0.62724 0.0
C819 C 0.5242 0.5178 0.61863 0.0
C820 C 0.39051 0.45143 0.62494 0.0
C821 C 0.37868 0.47992 0.61286 0.0
C822 C 0.47363 0.5045 0.61747 0.0
C823 C 0.41572 0.52054 0.60339 0.0
C824 C 0.55975 0.5598 0.6094 0.0
C825 C 0.58145 0.496 0.62729 0.0
N826 N 0.4612 0.53147 0.60589 0.0
N827 N 0.53648 0.48777 0.62761 0.0
H828 H 0.0573 0.63401 0.96641 0.0
H829 H 0.96792 0.36208 0.93949 0.0
H830 H 0.13113 0.58747 0.92528 0.0
H831 H 0.88188 0.40954 0.97022 0.0
H832 H 0.03375 0.44389 0.93921 0.0
H833 H 0.99666 0.5513 0.97195 0.0
C834 C 0.06078 0.60664 0.95848 0.0
C835 C 0.09949 0.61816 0.94526 0.0
C836 C 1.00059 0.43623 0.9463 0.0
C837 C 0.03056 0.52322 0.95184 0.0
C838 C 0.96329 0.38946 0.9467 0.0
C839 C 0.91935 0.37902 0.95485 0.0
C840 C 0.99383 0.47262 0.9542 0.0
C841 C 0.91496 0.41602 0.96361 0.0
C842 C 0.02625 0.55936 0.96173 0.0
C843 C 0.10205 0.58078 0.93556 0.0
N844 N 0.9515 0.46107 0.96296 0.0
N845 N 0.06828 0.53528 0.93906 0.0
H846 H 0.59407 0.96388 0.25393 0.0
H847 H 0.43441 0.06528 0.30094 0.0
H848 H 0.49352 0.89559 0.30399 0.0
H849 H 0.52812 0.12443 0.24756 0.0
H850 H 0.45789 0.00512 0.30397 0.0
H851 H 0.57558 0.02771 0.25402 0.0
C852 C 0.56915 0.96319 0.26538 0.0
C853 C 0.54583 0.92505 0.2792 0.0
C854 C 0.47314 0.03129 0.29158 0.0
C855 C 0.52283 0.99665 0.27888 0.0
C856 C 0.45942 0.06541 0.28973 0.0
C857 C 0.47914 0.10016 0.27396 0.0
C858 C 0.50691 0.03197 0.2776 0.0
C859 C 0.51185 0.09863 0.26002 0.0
C860 C 0.558 0.99918 0.26525 0.0
C861 C 0.51262 0.92484 0.29326 0.0
N862 N 0.5247 0.06541 0.26223 0.0
N863 N 0.50186 0.95991 0.29268 0.0
loop_
_geom_bond_atom_site_label_1
_geom_bond_atom_site_label_2
_geom_bond_distance
_geom_bond_site_symmetry_2
_ccdc_geom_bond_type
Mn0 O5 2.095 . S
Mn0 O15 2.162 . S
Mn0 O16 2.297 . S
Mn0 O24 2.385 . S
Mn0 O25 2.209 . S
Mn0 O26 2.094 . S
Mn1 O6 2.121 . S
Mn1 N8 2.257 . S
Mn1 N17 2.282 . S
Mn1 O25 2.215 . S
Mn1 O27 2.117 . S
C2 O24 1.234 . S
C2 O25 1.283 . S
C3 O15 1.281 . S
C3 O16 1.236 . S
C4 O26 1.240 . S
C4 O27 1.264 . S
O5 Mn0 2.095 . S
O5 C14 1.250 . S
O6 Mn1 2.121 . S
O6 C14 1.258 . S
C7 N8 1.326 . S
C7 C11 1.460 . S
C7 H13 0.929 . S
N8 Mn1 2.257 . S
N8 C7 1.326 . S
N8 C12 1.362 . S
C9 C10 1.258 . S
C9 C12 1.431 . S
C9 C29 1.449 . S
C10 C9 1.258 . S
C10 C11 1.477 . S
C10 H30 0.931 . S
C11 C7 1.460 . S
C11 C10 1.477 . S
C11 H31 0.930 . S
C12 N8 1.362 . S
C12 C9 1.431 . S
C12 C22 1.476 . S
H13 C7 0.929 . S
C14 O5 1.250 . S
C14 O6 1.258 . S
O15 Mn0 2.162 . S
O15 C3 1.281 . S
O16 Mn0 2.297 . S
O16 C3 1.236 . S
N17 Mn1 2.282 . S
N17 C18 1.328 . S
N17 C22 1.318 . S
C18 N17 1.328 . S
C18 C19 1.457 . S
C18 H23 0.929 . S
C19 C18 1.457 . S
C19 C20 1.291 . S
C19 H32 0.931 . S
C20 C19 1.291 . S
C20 C21 1.373 . S
C20 H33 0.929 . S
C21 C20 1.373 . S
C21 C22 1.396 . S
C21 C28 1.403 . S
C22 C12 1.476 . S
C22 N17 1.318 . S
C22 C21 1.396 . S
H23 C18 0.929 . S
O24 Mn0 2.385 . S
O24 C2 1.234 . S
O25 Mn0 2.209 . S
O25 Mn1 2.215 . S
O25 C2 1.283 . S
O26 Mn0 2.094 . S
O26 C4 1.240 . S
O27 Mn1 2.117 . S
O27 C4 1.264 . S
C28 C21 1.403 . S
C28 C29 1.399 . S
C28 H34 0.929 . S
C29 C9 1.449 . S
C29 C28 1.399 . S
C29 H35 0.930 . S
H30 C10 0.931 . S
H31 C11 0.930 . S
H32 C19 0.931 . S
H33 C20 0.929 . S
H34 C28 0.929 . S
H35 C29 0.930 . S
Mn36 O41 2.095 . S
Mn36 O51 2.162 . S
Mn36 O52 2.297 . S
Mn36 O60 2.385 . S
Mn36 O61 2.209 . S
Mn36 O62 2.094 . S
Mn37 O42 2.121 . S
Mn37 N44 2.257 . S
Mn37 N53 2.282 . S
Mn37 O61 2.215 . S
Mn37 O63 2.117 . S
C38 O60 1.234 . S
C38 O61 1.283 . S
C39 O51 1.281 . S
C39 O52 1.236 . S
C40 O62 1.240 . S
C40 O63 1.264 . S
O41 Mn36 2.095 . S
O41 C50 1.250 . S
O42 Mn37 2.121 . S
O42 C50 1.258 . S
C43 N44 1.326 . S
C43 C47 1.460 . S
C43 H49 0.929 . S
N44 Mn37 2.257 . S
N44 C43 1.326 . S
N44 C48 1.362 . S
C45 C46 1.258 . S
C45 C48 1.431 . S
C45 C65 1.449 . S
C46 C45 1.258 . S
C46 C47 1.477 . S
C46 H66 0.931 . S
C47 C43 1.460 . S
C47 C46 1.477 . S
C47 H67 0.930 . S
C48 N44 1.362 . S
C48 C45 1.431 . S
C48 C58 1.476 . S
H49 C43 0.929 . S
C50 O41 1.250 . S
C50 O42 1.258 . S
O51 Mn36 2.162 . S
O51 C39 1.281 . S
O52 Mn36 2.297 . S
O52 C39 1.236 . S
N53 Mn37 2.282 . S
N53 C54 1.328 . S
N53 C58 1.318 . S
C54 N53 1.328 . S
C54 C55 1.457 . S
C54 H59 0.929 . S
C55 C54 1.457 . S
C55 C56 1.291 . S
C55 H68 0.931 . S
C56 C55 1.291 . S
C56 C57 1.373 . S
C56 H69 0.929 . S
C57 C56 1.373 . S
C57 C58 1.396 . S
C57 C64 1.403 . S
C58 C48 1.476 . S
C58 N53 1.318 . S
C58 C57 1.396 . S
H59 C54 0.929 . S
O60 Mn36 2.385 . S
O60 C38 1.234 . S
O61 Mn36 2.209 . S
O61 Mn37 2.215 . S
O61 C38 1.283 . S
O62 Mn36 2.094 . S
O62 C40 1.240 . S
O63 Mn37 2.117 . S
O63 C40 1.264 . S
C64 C57 1.403 . S
C64 C65 1.399 . S
C64 H70 0.929 . S
C65 C45 1.449 . S
C65 C64 1.399 . S
C65 H71 0.930 . S
H66 C46 0.931 . S
H67 C47 0.930 . S
H68 C55 0.931 . S
H69 C56 0.929 . S
H70 C64 0.929 . S
H71 C65 0.930 . S
Mn72 O77 2.095 . S
Mn72 O87 2.162 . S
Mn72 O88 2.297 . S
Mn72 O96 2.385 . S
Mn72 O97 2.209 . S
Mn72 O98 2.094 . S
Mn73 O78 2.121 . S
Mn73 N80 2.257 . S
Mn73 N89 2.282 . S
Mn73 O97 2.215 . S
Mn73 O99 2.117 . S
C74 O96 1.234 . S
C74 O97 1.283 . S
C75 O87 1.281 . S
C75 O88 1.236 . S
C76 O98 1.240 . S
C76 O99 1.264 . S
O77 Mn72 2.095 . S
O77 C86 1.250 . S
O78 Mn73 2.121 . S
O78 C86 1.258 . S
C79 N80 1.326 . S
C79 C83 1.460 . S
C79 H85 0.929 . S
N80 Mn73 2.257 . S
N80 C79 1.326 . S
N80 C84 1.362 . S
C81 C82 1.258 . S
C81 C84 1.431 . S
C81 C101 1.449 . S
C82 C81 1.258 . S
C82 C83 1.477 . S
C82 H102 0.931 . S
C83 C79 1.460 . S
C83 C82 1.477 . S
C83 H103 0.930 . S
C84 N80 1.362 . S
C84 C81 1.431 . S
C84 C94 1.476 . S
H85 C79 0.929 . S
C86 O77 1.250 . S
C86 O78 1.258 . S
O87 Mn72 2.162 . S
O87 C75 1.281 . S
O88 Mn72 2.297 . S
O88 C75 1.236 . S
N89 Mn73 2.282 . S
N89 C90 1.328 . S
N89 C94 1.318 . S
C90 N89 1.328 . S
C90 C91 1.457 . S
C90 H95 0.929 . S
C91 C90 1.457 . S
C91 C92 1.291 . S
C91 H104 0.931 . S
C92 C91 1.291 . S
C92 C93 1.373 . S
C92 H105 0.929 . S
C93 C92 1.373 . S
C93 C94 1.396 . S
C93 C100 1.403 . S
C94 C84 1.476 . S
C94 N89 1.318 . S
C94 C93 1.396 . S
H95 C90 0.929 . S
O96 Mn72 2.385 . S
O96 C74 1.234 . S
O97 Mn72 2.209 . S
O97 Mn73 2.215 . S
O97 C74 1.283 . S
O98 Mn72 2.094 . S
O98 C76 1.240 . S
O99 Mn73 2.117 . S
O99 C76 1.264 . S
C100 C93 1.403 . S
C100 C101 1.399 . S
C100 H106 0.929 . S
C101 C81 1.449 . S
C101 C100 1.399 . S
C101 H107 0.930 . S
H102 C82 0.931 . S
H103 C83 0.930 . S
H104 C91 0.931 . S
H105 C92 0.929 . S
H106 C100 0.929 . S
H107 C101 0.930 . S
Mn108 O113 2.095 . S
Mn108 O123 2.162 . S
Mn108 O124 2.297 . S
Mn108 O132 2.385 . S
Mn108 O133 2.209 . S
Mn108 O134 2.094 . S
Mn109 O114 2.121 . S
Mn109 N116 2.257 . S
Mn109 N125 2.282 . S
Mn109 O133 2.215 . S
Mn109 O135 2.117 . S
C110 O132 1.234 . S
C110 O133 1.283 . S
C111 O123 1.281 . S
C111 O124 1.236 . S
C112 O134 1.240 . S
C112 O135 1.264 . S
O113 Mn108 2.095 . S
O113 C122 1.250 . S
O114 Mn109 2.121 . S
O114 C122 1.258 . S
C115 N116 1.326 . S
C115 C119 1.460 . S
C115 H121 0.929 . S
N116 Mn109 2.257 . S
N116 C115 1.326 . S
N116 C120 1.362 . S
C117 C118 1.258 . S
C117 C120 1.431 . S
C117 C137 1.449 . S
C118 C117 1.258 . S
C118 C119 1.477 . S
C118 H138 0.931 . S
C119 C115 1.460 . S
C119 C118 1.477 . S
C119 H139 0.930 . S
C120 N116 1.362 . S
C120 C117 1.431 . S
C120 C130 1.476 . S
H121 C115 0.929 . S
C122 O113 1.250 . S
C122 O114 1.258 . S
O123 Mn108 2.162 . S
O123 C111 1.281 . S
O124 Mn108 2.297 . S
O124 C111 1.236 . S
N125 Mn109 2.282 . S
N125 C126 1.328 . S
N125 C130 1.318 . S
C126 N125 1.328 . S
C126 C127 1.457 . S
C126 H131 0.929 . S
C127 C126 1.457 . S
C127 C128 1.291 . S
C127 H140 0.931 . S
C128 C127 1.291 . S
C128 C129 1.373 . S
C128 H141 0.929 . S
C129 C128 1.373 . S
C129 C130 1.396 . S
C129 C136 1.403 . S
C130 C120 1.476 . S
C130 N125 1.318 . S
C130 C129 1.396 . S
H131 C126 0.929 . S
O132 Mn108 2.385 . S
O132 C110 1.234 . S
O133 Mn108 2.209 . S
O133 Mn109 2.215 . S
O133 C110 1.283 . S
O134 Mn108 2.094 . S
O134 C112 1.240 . S
O135 Mn109 2.117 . S
O135 C112 1.264 . S
C136 C129 1.403 . S
C136 C137 1.399 . S
C136 H142 0.929 . S
C137 C117 1.449 . S
C137 C136 1.399 . S
C137 H143 0.930 . S
H138 C118 0.931 . S
H139 C119 0.930 . S
H140 C127 0.931 . S
H141 C128 0.929 . S
H142 C136 0.929 . S
H143 C137 0.930 . S
Mn144 O149 2.095 . S
Mn144 O159 2.162 . S
Mn144 O160 2.297 . S
Mn144 O168 2.385 . S
Mn144 O169 2.209 . S
Mn144 O170 2.094 . S
Mn145 O150 2.121 . S
Mn145 N152 2.257 . S
Mn145 N161 2.282 . S
Mn145 O169 2.215 . S
Mn145 O171 2.117 . S
C146 O168 1.234 . S
C146 O169 1.283 . S
C147 O159 1.281 . S
C147 O160 1.236 . S
C148 O170 1.240 . S
C148 O171 1.264 . S
O149 Mn144 2.095 . S
O149 C158 1.250 . S
O150 Mn145 2.121 . S
O150 C158 1.258 . S
C151 N152 1.326 . S
C151 C155 1.460 . S
C151 H157 0.929 . S
N152 Mn145 2.257 . S
N152 C151 1.326 . S
N152 C156 1.362 . S
C153 C154 1.258 . S
C153 C156 1.431 . S
C153 C173 1.449 . S
C154 C153 1.258 . S
C154 C155 1.477 . S
C154 H174 0.931 . S
C155 C151 1.460 . S
C155 C154 1.477 . S
C155 H175 0.930 . S
C156 N152 1.362 . S
C156 C153 1.431 . S
C156 C166 1.476 . S
H157 C151 0.929 . S
C158 O149 1.250 . S
C158 O150 1.258 . S
O159 Mn144 2.162 . S
O159 C147 1.281 . S
O160 Mn144 2.297 . S
O160 C147 1.236 . S
N161 Mn145 2.282 . S
N161 C162 1.328 . S
N161 C166 1.318 . S
C162 N161 1.328 . S
C162 C163 1.457 . S
C162 H167 0.929 . S
C163 C162 1.457 . S
C163 C164 1.291 . S
C163 H176 0.931 . S
C164 C163 1.291 . S
C164 C165 1.373 . S
C164 H177 0.929 . S
C165 C164 1.373 . S
C165 C166 1.396 . S
C165 C172 1.403 . S
C166 C156 1.476 . S
C166 N161 1.318 . S
C166 C165 1.396 . S
H167 C162 0.929 . S
O168 Mn144 2.385 . S
O168 C146 1.234 . S
O169 Mn144 2.209 . S
O169 Mn145 2.215 . S
O169 C146 1.283 . S
O170 Mn144 2.094 . S
O170 C148 1.240 . S
O171 Mn145 2.117 . S
O171 C148 1.264 . S
C172 C165 1.403 . S
C172 C173 1.399 . S
C172 H178 0.929 . S
C173 C153 1.449 . S
C173 C172 1.399 . S
C173 H179 0.930 . S
H174 C154 0.931 . S
H175 C155 0.930 . S
H176 C163 0.931 . S
H177 C164 0.929 . S
H178 C172 0.929 . S
H179 C173 0.930 . S
Mn180 O185 2.095 . S
Mn180 O195 2.162 . S
Mn180 O196 2.297 . S
Mn180 O204 2.385 . S
Mn180 O205 2.209 . S
Mn180 O206 2.094 . S
Mn181 O186 2.121 . S
Mn181 N188 2.257 . S
Mn181 N197 2.282 . S
Mn181 O205 2.215 . S
Mn181 O207 2.117 . S
C182 O204 1.234 . S
C182 O205 1.283 . S
C183 O195 1.281 . S
C183 O196 1.236 . S
C184 O206 1.240 . S
C184 O207 1.264 . S
O185 Mn180 2.095 . S
O185 C194 1.250 . S
O186 Mn181 2.121 . S
O186 C194 1.258 . S
C187 N188 1.326 . S
C187 C191 1.460 . S
C187 H193 0.929 . S
N188 Mn181 2.257 . S
N188 C187 1.326 . S
N188 C192 1.362 . S
C189 C190 1.258 . S
C189 C192 1.431 . S
C189 C209 1.449 . S
C190 C189 1.258 . S
C190 C191 1.477 . S
C190 H210 0.931 . S
C191 C187 1.460 . S
C191 C190 1.477 . S
C191 H211 0.930 . S
C192 N188 1.362 . S
C192 C189 1.431 . S
C192 C202 1.476 . S
H193 C187 0.929 . S
C194 O185 1.250 . S
C194 O186 1.258 . S
O195 Mn180 2.162 . S
O195 C183 1.281 . S
O196 Mn180 2.297 . S
O196 C183 1.236 . S
N197 Mn181 2.282 . S
N197 C198 1.328 . S
N197 C202 1.318 . S
C198 N197 1.328 . S
C198 C199 1.457 . S
C198 H203 0.929 . S
C199 C198 1.457 . S
C199 C200 1.291 . S
C199 H212 0.931 . S
C200 C199 1.291 . S
C200 C201 1.373 . S
C200 H213 0.929 . S
C201 C200 1.373 . S
C201 C202 1.396 . S
C201 C208 1.403 . S
C202 C192 1.476 . S
C202 N197 1.318 . S
C202 C201 1.396 . S
H203 C198 0.929 . S
O204 Mn180 2.385 . S
O204 C182 1.234 . S
O205 Mn180 2.209 . S
O205 Mn181 2.215 . S
O205 C182 1.283 . S
O206 Mn180 2.094 . S
O206 C184 1.240 . S
O207 Mn181 2.117 . S
O207 C184 1.264 . S
C208 C201 1.403 . S
C208 C209 1.399 . S
C208 H214 0.929 . S
C209 C189 1.449 . S
C209 C208 1.399 . S
C209 H215 0.930 . S
H210 C190 0.931 . S
H211 C191 0.930 . S
H212 C199 0.931 . S
H213 C200 0.929 . S
H214 C208 0.929 . S
H215 C209 0.930 . S
Mn216 O221 2.095 . S
Mn216 O231 2.162 . S
Mn216 O232 2.297 . S
Mn216 O240 2.385 . S
Mn216 O241 2.209 . S
Mn216 O242 2.094 . S
Mn217 O222 2.121 . S
Mn217 N224 2.257 . S
Mn217 N233 2.282 . S
Mn217 O241 2.215 . S
Mn217 O243 2.117 . S
C218 O240 1.234 . S
C218 O241 1.283 . S
C219 O231 1.281 . S
C219 O232 1.236 . S
C220 O242 1.240 . S
C220 O243 1.264 . S
O221 Mn216 2.095 . S
O221 C230 1.250 . S
O222 Mn217 2.121 . S
O222 C230 1.258 . S
C223 N224 1.326 . S
C223 C227 1.460 . S
C223 H229 0.929 . S
N224 Mn217 2.257 . S
N224 C223 1.326 . S
N224 C228 1.362 . S
C225 C226 1.258 . S
C225 C228 1.431 . S
C225 C245 1.449 . S
C226 C225 1.258 . S
C226 C227 1.477 . S
C226 H246 0.931 . S
C227 C223 1.460 . S
C227 C226 1.477 . S
C227 H247 0.930 . S
C228 N224 1.362 . S
C228 C225 1.431 . S
C228 C238 1.476 . S
H229 C223 0.929 . S
C230 O221 1.250 . S
C230 O222 1.258 . S
O231 Mn216 2.162 . S
O231 C219 1.281 . S
O232 Mn216 2.297 . S
O232 C219 1.236 . S
N233 Mn217 2.282 . S
N233 C234 1.328 . S
N233 C238 1.318 . S
C234 N233 1.328 . S
C234 C235 1.457 . S
C234 H239 0.929 . S
C235 C234 1.457 . S
C235 C236 1.291 . S
C235 H248 0.931 . S
C236 C235 1.291 . S
C236 C237 1.373 . S
C236 H249 0.929 . S
C237 C236 1.373 . S
C237 C238 1.396 . S
C237 C244 1.403 . S
C238 C228 1.476 . S
C238 N233 1.318 . S
C238 C237 1.396 . S
H239 C234 0.929 . S
O240 Mn216 2.385 . S
O240 C218 1.234 . S
O241 Mn216 2.209 . S
O241 Mn217 2.215 . S
O241 C218 1.283 . S
O242 Mn216 2.094 . S
O242 C220 1.240 . S
O243 Mn217 2.117 . S
O243 C220 1.264 . S
C244 C237 1.403 . S
C244 C245 1.399 . S
C244 H250 0.929 . S
C245 C225 1.449 . S
C245 C244 1.399 . S
C245 H251 0.930 . S
H246 C226 0.931 . S
H247 C227 0.930 . S
H248 C235 0.931 . S
H249 C236 0.929 . S
H250 C244 0.929 . S
H251 C245 0.930 . S
Mn252 O257 2.095 . S
Mn252 O267 2.162 . S
Mn252 O268 2.297 . S
Mn252 O276 2.385 . S
Mn252 O277 2.209 . S
Mn252 O278 2.094 . S
Mn253 O258 2.121 . S
Mn253 N260 2.257 . S
Mn253 N269 2.282 . S
Mn253 O277 2.215 . S
Mn253 O279 2.117 . S
C254 O276 1.234 . S
C254 O277 1.283 . S
C255 O267 1.281 . S
C255 O268 1.236 . S
C256 O278 1.240 . S
C256 O279 1.264 . S
O257 Mn252 2.095 . S
O257 C266 1.250 . S
O258 Mn253 2.121 . S
O258 C266 1.258 . S
C259 N260 1.326 . S
C259 C263 1.460 . S
C259 H265 0.929 . S
N260 Mn253 2.257 . S
N260 C259 1.326 . S
N260 C264 1.362 . S
C261 C262 1.258 . S
C261 C264 1.431 . S
C261 C281 1.449 . S
C262 C261 1.258 . S
C262 C263 1.477 . S
C262 H282 0.931 . S
C263 C259 1.460 . S
C263 C262 1.477 . S
C263 H283 0.930 . S
C264 N260 1.362 . S
C264 C261 1.431 . S
C264 C274 1.476 . S
H265 C259 0.929 . S
C266 O257 1.250 . S
C266 O258 1.258 . S
O267 Mn252 2.162 . S
O267 C255 1.281 . S
O268 Mn252 2.297 . S
O268 C255 1.236 . S
N269 Mn253 2.282 . S
N269 C270 1.328 . S
N269 C274 1.318 . S
C270 N269 1.328 . S
C270 C271 1.457 . S
C270 H275 0.929 . S
C271 C270 1.457 . S
C271 C272 1.291 . S
C271 H284 0.931 . S
C272 C271 1.291 . S
C272 C273 1.373 . S
C272 H285 0.929 . S
C273 C272 1.373 . S
C273 C274 1.396 . S
C273 C280 1.403 . S
C274 C264 1.476 . S
C274 N269 1.318 . S
C274 C273 1.396 . S
H275 C270 0.929 . S
O276 Mn252 2.385 . S
O276 C254 1.234 . S
O277 Mn252 2.209 . S
O277 Mn253 2.215 . S
O277 C254 1.283 . S
O278 Mn252 2.094 . S
O278 C256 1.240 . S
O279 Mn253 2.117 . S
O279 C256 1.264 . S
C280 C273 1.403 . S
C280 C281 1.399 . S
C280 H286 0.929 . S
C281 C261 1.449 . S
C281 C280 1.399 . S
C281 H287 0.930 . S
H282 C262 0.931 . S
H283 C263 0.930 . S
H284 C271 0.931 . S
H285 C272 0.929 . S
H286 C280 0.929 . S
H287 C281 0.930 . S
Mn288 O293 2.095 . S
Mn288 O303 2.162 . S
Mn288 O304 2.297 . S
Mn288 O312 2.385 . S
Mn288 O313 2.209 . S
Mn288 O314 2.094 . S
Mn289 O294 2.121 . S
Mn289 N296 2.257 . S
Mn289 N305 2.282 . S
Mn289 O313 2.215 . S
Mn289 O315 2.117 . S
C290 O312 1.234 . S
C290 O313 1.283 . S
C291 O303 1.281 . S
C291 O304 1.236 . S
C292 O314 1.240 . S
C292 O315 1.264 . S
O293 Mn288 2.095 . S
O293 C302 1.250 . S
O294 Mn289 2.121 . S
O294 C302 1.258 . S
C295 N296 1.326 . S
C295 C299 1.460 . S
C295 H301 0.929 . S
N296 Mn289 2.257 . S
N296 C295 1.326 . S
N296 C300 1.362 . S
C297 C298 1.258 . S
C297 C300 1.431 . S
C297 C317 1.449 . S
C298 C297 1.258 . S
C298 C299 1.477 . S
C298 H318 0.931 . S
C299 C295 1.460 . S
C299 C298 1.477 . S
C299 H319 0.930 . S
C300 N296 1.362 . S
C300 C297 1.431 . S
C300 C310 1.476 . S
H301 C295 0.929 . S
C302 O293 1.250 . S
C302 O294 1.258 . S
O303 Mn288 2.162 . S
O303 C291 1.281 . S
O304 Mn288 2.297 . S
O304 C291 1.236 . S
N305 Mn289 2.282 . S
N305 C306 1.328 . S
N305 C310 1.318 . S
C306 N305 1.328 . S
C306 C307 1.457 . S
C306 H311 0.929 . S
C307 C306 1.457 . S
C307 C308 1.291 . S
C307 H320 0.931 . S
C308 C307 1.291 . S
C308 C309 1.373 . S
C308 H321 0.929 . S
C309 C308 1.373 . S
C309 C310 1.396 . S
C309 C316 1.403 . S
C310 C300 1.476 . S
C310 N305 1.318 . S
C310 C309 1.396 . S
H311 C306 0.929 . S
O312 Mn288 2.385 . S
O312 C290 1.234 . S
O313 Mn288 2.209 . S
O313 Mn289 2.215 . S
O313 C290 1.283 . S
O314 Mn288 2.094 . S
O314 C292 1.240 . S
O315 Mn289 2.117 . S
O315 C292 1.264 . S
C316 C309 1.403 . S
C316 C317 1.399 . S
C316 H322 0.929 . S
C317 C297 1.449 . S
C317 C316 1.399 . S
C317 H323 0.930 . S
H318 C298 0.931 . S
H319 C299 0.930 . S
H320 C307 0.931 . S
H321 C308 0.929 . S
H322 C316 0.929 . S
H323 C317 0.930 . S
Mn324 O329 2.095 . S
Mn324 O339 2.162 . S
Mn324 O340 2.297 . S
Mn324 O348 2.385 . S
Mn324 O349 2.209 . S
Mn324 O350 2.094 . S
Mn325 O330 2.121 . S
Mn325 N332 2.257 . S
Mn325 N341 2.282 . S
Mn325 O349 2.215 . S
Mn325 O351 2.117 . S
C326 O348 1.234 . S
C326 O349 1.283 . S
C327 O339 1.281 . S
C327 O340 1.236 . S
C328 O350 1.240 . S
C328 O351 1.264 . S
O329 Mn324 2.095 . S
O329 C338 1.250 . S
O330 Mn325 2.121 . S
O330 C338 1.258 . S
C331 N332 1.326 . S
C331 C335 1.460 . S
C331 H337 0.929 . S
N332 Mn325 2.257 . S
N332 C331 1.326 . S
N332 C336 1.362 . S
C333 C334 1.258 . S
C333 C336 1.431 . S
C333 C353 1.449 . S
C334 C333 1.258 . S
C334 C335 1.477 . S
C334 H354 0.931 . S
C335 C331 1.460 . S
C335 C334 1.477 . S
C335 H355 0.930 . S
C336 N332 1.362 . S
C336 C333 1.431 . S
C336 C346 1.476 . S
H337 C331 0.929 . S
C338 O329 1.250 . S
C338 O330 1.258 . S
O339 Mn324 2.162 . S
O339 C327 1.281 . S
O340 Mn324 2.297 . S
O340 C327 1.236 . S
N341 Mn325 2.282 . S
N341 C342 1.328 . S
N341 C346 1.318 . S
C342 N341 1.328 . S
C342 C343 1.457 . S
C342 H347 0.929 . S
C343 C342 1.457 . S
C343 C344 1.291 . S
C343 H356 0.931 . S
C344 C343 1.291 . S
C344 C345 1.373 . S
C344 H357 0.929 . S
C345 C344 1.373 . S
C345 C346 1.396 . S
C345 C352 1.403 . S
C346 C336 1.476 . S
C346 N341 1.318 . S
C346 C345 1.396 . S
H347 C342 0.929 . S
O348 Mn324 2.385 . S
O348 C326 1.234 . S
O349 Mn324 2.209 . S
O349 Mn325 2.215 . S
O349 C326 1.283 . S
O350 Mn324 2.094 . S
O350 C328 1.240 . S
O351 Mn325 2.117 . S
O351 C328 1.264 . S
C352 C345 1.403 . S
C352 C353 1.399 . S
C352 H358 0.929 . S
C353 C333 1.449 . S
C353 C352 1.399 . S
C353 H359 0.930 . S
H354 C334 0.931 . S
H355 C335 0.930 . S
H356 C343 0.931 . S
H357 C344 0.929 . S
H358 C352 0.929 . S
H359 C353 0.930 . S
Mn360 O365 2.095 . S
Mn360 O375 2.162 . S
Mn360 O376 2.297 . S
Mn360 O384 2.385 . S
Mn360 O385 2.209 . S
Mn360 O386 2.094 . S
Mn361 O366 2.121 . S
Mn361 N368 2.257 . S
Mn361 N377 2.282 . S
Mn361 O385 2.215 . S
Mn361 O387 2.117 . S
C362 O384 1.234 . S
C362 O385 1.283 . S
C363 O375 1.281 . S
C363 O376 1.236 . S
C364 O386 1.240 . S
C364 O387 1.264 . S
O365 Mn360 2.095 . S
O365 C374 1.250 . S
O366 Mn361 2.121 . S
O366 C374 1.258 . S
C367 N368 1.326 . S
C367 C371 1.460 . S
C367 H373 0.929 . S
N368 Mn361 2.257 . S
N368 C367 1.326 . S
N368 C372 1.362 . S
C369 C370 1.258 . S
C369 C372 1.431 . S
C369 C389 1.449 . S
C370 C369 1.258 . S
C370 C371 1.477 . S
C370 H390 0.931 . S
C371 C367 1.460 . S
C371 C370 1.477 . S
C371 H391 0.930 . S
C372 N368 1.362 . S
C372 C369 1.431 . S
C372 C382 1.476 . S
H373 C367 0.929 . S
C374 O365 1.250 . S
C374 O366 1.258 . S
O375 Mn360 2.162 . S
O375 C363 1.281 . S
O376 Mn360 2.297 . S
O376 C363 1.236 . S
N377 Mn361 2.282 . S
N377 C378 1.328 . S
N377 C382 1.318 . S
C378 N377 1.328 . S
C378 C379 1.457 . S
C378 H383 0.929 . S
C379 C378 1.457 . S
C379 C380 1.291 . S
C379 H392 0.931 . S
C380 C379 1.291 . S
C380 C381 1.373 . S
C380 H393 0.929 . S
C381 C380 1.373 . S
C381 C382 1.396 . S
C381 C388 1.403 . S
C382 C372 1.476 . S
C382 N377 1.318 . S
C382 C381 1.396 . S
H383 C378 0.929 . S
O384 Mn360 2.385 . S
O384 C362 1.234 . S
O385 Mn360 2.209 . S
O385 Mn361 2.215 . S
O385 C362 1.283 . S
O386 Mn360 2.094 . S
O386 C364 1.240 . S
O387 Mn361 2.117 . S
O387 C364 1.264 . S
C388 C381 1.403 . S
C388 C389 1.399 . S
C388 H394 0.929 . S
C389 C369 1.449 . S
C389 C388 1.399 . S
C389 H395 0.930 . S
H390 C370 0.931 . S
H391 C371 0.930 . S
H392 C379 0.931 . S
H393 C380 0.929 . S
H394 C388 0.929 . S
H395 C389 0.930 . S
Mn396 O401 2.095 . S
Mn396 O411 2.162 . S
Mn396 O412 2.297 . S
Mn396 O420 2.385 . S
Mn396 O421 2.209 . S
Mn396 O422 2.094 . S
Mn397 O402 2.121 . S
Mn397 N404 2.257 . S
Mn397 N413 2.282 . S
Mn397 O421 2.215 . S
Mn397 O423 2.117 . S
C398 O420 1.234 . S
C398 O421 1.283 . S
C399 O411 1.281 . S
C399 O412 1.236 . S
C400 O422 1.240 . S
C400 O423 1.264 . S
O401 Mn396 2.095 . S
O401 C410 1.250 . S
O402 Mn397 2.121 . S
O402 C410 1.258 . S
C403 N404 1.326 . S
C403 C407 1.460 . S
C403 H409 0.929 . S
N404 Mn397 2.257 . S
N404 C403 1.326 . S
N404 C408 1.362 . S
C405 C406 1.258 . S
C405 C408 1.431 . S
C405 C425 1.449 . S
C406 C405 1.258 . S
C406 C407 1.477 . S
C406 H426 0.931 . S
C407 C403 1.460 . S
C407 C406 1.477 . S
C407 H427 0.930 . S
C408 N404 1.362 . S
C408 C405 1.431 . S
C408 C418 1.476 . S
H409 C403 0.929 . S
C410 O401 1.250 . S
C410 O402 1.258 . S
O411 Mn396 2.162 . S
O411 C399 1.281 . S
O412 Mn396 2.297 . S
O412 C399 1.236 . S
N413 Mn397 2.282 . S
N413 C414 1.328 . S
N413 C418 1.318 . S
C414 N413 1.328 . S
C414 C415 1.457 . S
C414 H419 0.929 . S
C415 C414 1.457 . S
C415 C416 1.291 . S
C415 H428 0.931 . S
C416 C415 1.291 . S
C416 C417 1.373 . S
C416 H429 0.929 . S
C417 C416 1.373 . S
C417 C418 1.396 . S
C417 C424 1.403 . S
C418 C408 1.476 . S
C418 N413 1.318 . S
C418 C417 1.396 . S
H419 C414 0.929 . S
O420 Mn396 2.385 . S
O420 C398 1.234 . S
O421 Mn396 2.209 . S
O421 Mn397 2.215 . S
O421 C398 1.283 . S
O422 Mn396 2.094 . S
O422 C400 1.240 . S
O423 Mn397 2.117 . S
O423 C400 1.264 . S
C424 C417 1.403 . S
C424 C425 1.399 . S
C424 H430 0.929 . S
C425 C405 1.449 . S
C425 C424 1.399 . S
C425 H431 0.930 . S
H426 C406 0.931 . S
H427 C407 0.930 . S
H428 C415 0.931 . S
H429 C416 0.929 . S
H430 C424 0.929 . S
H431 C425 0.930 . S
H432 C438 0.930 . S
H433 C442 0.930 . S
H434 C447 0.929 . S
H435 C445 0.929 . S
H436 C440 0.964 . S
H437 C446 0.964 . S
C438 H432 0.930 . S
C438 C439 1.367 . S
C438 C446 1.357 1_556 S
C439 C438 1.367 . S
C439 C447 1.433 . S
C440 H436 0.964 . S
C440 C442 1.357 1_556 S
C440 C444 1.338 1_556 S
C441 C444 1.463 1_566 S
C441 C446 1.338 1_556 S
C441 N449 1.427 . S
C442 H433 0.930 . S
C442 C440 1.357 1_554 S
C442 C443 1.367 . S
C443 C442 1.367 . S
C443 C445 1.433 . S
C444 C440 1.338 1_554 S
C444 C441 1.463 1_544 S
C444 N448 1.427 . S
C445 H435 0.929 . S
C445 C443 1.433 . S
C445 N448 1.384 . S
C446 H437 0.964 . S
C446 C438 1.357 1_554 S
C446 C441 1.338 1_554 S
C447 H434 0.929 . S
C447 C439 1.433 . S
C447 N449 1.384 . S
N448 C444 1.427 . S
N448 C445 1.384 . S
N449 C441 1.427 . S
N449 C447 1.384 . S
H450 C456 0.930 . S
H451 C460 0.930 . S
H452 C465 0.929 . S
H453 C463 0.929 . S
H454 C458 0.929 . S
H455 C464 0.929 . S
C456 H450 0.930 . S
C456 C457 1.367 . S
C456 C464 1.378 . S
C457 C456 1.367 . S
C457 C465 1.433 . S
C458 H454 0.929 . S
C458 C460 1.378 . S
C458 C462 1.350 . S
C459 C462 1.463 . S
C459 C464 1.350 . S
C459 N467 1.427 . S
C460 H451 0.930 . S
C460 C458 1.378 . S
C460 C461 1.367 . S
C461 C460 1.367 . S
C461 C463 1.433 . S
C462 C458 1.350 . S
C462 C459 1.463 . S
C462 N466 1.427 . S
C463 H453 0.929 . S
C463 C461 1.433 . S
C463 N466 1.384 . S
C464 H455 0.929 . S
C464 C456 1.378 . S
C464 C459 1.350 . S
C465 H452 0.929 . S
C465 C457 1.433 . S
C465 N467 1.384 . S
N466 C462 1.427 . S
N466 C463 1.384 . S
N467 C459 1.427 . S
N467 C465 1.384 . S
H468 C474 0.930 . S
H469 C478 0.930 . S
H470 C483 0.929 . S
H471 C481 0.929 . S
H472 C476 0.929 . S
H473 C482 0.929 . S
C474 H468 0.930 . S
C474 C475 1.367 . S
C474 C482 1.378 . S
C475 C474 1.367 . S
C475 C483 1.433 . S
C476 H472 0.929 . S
C476 C478 1.378 . S
C476 C480 1.350 . S
C477 C480 1.463 1_655 S
C477 C482 1.350 . S
C477 N485 1.427 . S
C478 H469 0.930 . S
C478 C476 1.378 . S
C478 C479 1.367 . S
C479 C478 1.367 . S
C479 C481 1.433 . S
C480 C476 1.350 . S
C480 C477 1.463 1_455 S
C480 N484 1.427 . S
C481 H471 0.929 . S
C481 C479 1.433 . S
C481 N484 1.384 . S
C482 H473 0.929 . S
C482 C474 1.378 . S
C482 C477 1.350 . S
C483 H470 0.929 . S
C483 C475 1.433 . S
C483 N485 1.384 . S
N484 C480 1.427 . S
N484 C481 1.384 . S
N485 C477 1.427 . S
N485 C483 1.384 . S
H486 C492 0.930 . S
H487 C496 0.930 . S
H488 C501 0.929 1_556 S
H489 C499 0.929 1_554 S
H490 C494 0.929 . S
H491 C500 0.929 . S
C492 H486 0.930 . S
C492 C493 1.367 . S
C492 C500 1.378 . S
C493 C492 1.367 . S
C493 C501 1.433 . S
C494 H490 0.929 . S
C494 C496 1.378 . S
C494 C498 1.350 . S
C495 C498 1.463 1_564 S
C495 C500 1.350 . S
C495 N503 1.427 1_554 S
C496 H487 0.930 . S
C496 C494 1.378 . S
C496 C497 1.367 . S
C497 C496 1.367 . S
C497 C499 1.433 . S
C498 C494 1.350 . S
C498 C495 1.463 1_546 S
C498 N502 1.427 1_556 S
C499 H489 0.929 1_556 S
C499 C497 1.433 . S
C499 N502 1.384 1_556 S
C500 H491 0.929 . S
C500 C492 1.378 . S
C500 C495 1.350 . S
C501 H488 0.929 1_554 S
C501 C493 1.433 . S
C501 N503 1.384 1_554 S
N502 C498 1.427 1_554 S
N502 C499 1.384 1_554 S
N503 C495 1.427 1_556 S
N503 C501 1.384 1_556 S
H504 C510 0.930 . S
H505 C514 0.930 . S
H506 C519 0.929 . S
H507 C517 0.929 . S
H508 C512 0.929 . S
H509 C518 0.929 . S
C510 H504 0.930 . S
C510 C511 1.367 . S
C510 C518 1.378 . S
C511 C510 1.367 . S
C511 C519 1.433 . S
C512 H508 0.929 . S
C512 C514 1.378 . S
C512 C516 1.350 . S
C513 C516 1.463 . S
C513 C518 1.350 . S
C513 N521 1.427 . S
C514 H505 0.930 . S
C514 C512 1.378 . S
C514 C515 1.367 . S
C515 C514 1.367 . S
C515 C517 1.433 . S
C516 C512 1.350 . S
C516 C513 1.463 . S
C516 N520 1.427 . S
C517 H507 0.929 . S
C517 C515 1.433 . S
C517 N520 1.384 . S
C518 H509 0.929 . S
C518 C510 1.378 . S
C518 C513 1.350 . S
C519 H506 0.929 . S
C519 C511 1.433 . S
C519 N521 1.384 . S
N520 C516 1.427 . S
N520 C517 1.384 . S
N521 C513 1.427 . S
N521 C519 1.384 . S
H522 C528 0.930 . S
H523 C532 0.930 . S
H524 C537 0.929 . S
H525 C535 0.929 . S
H526 C530 0.929 . S
H527 C536 0.929 . S
C528 H522 0.930 . S
C528 C529 1.367 . S
C528 C536 1.378 . S
C529 C528 1.367 . S
C529 C537 1.433 . S
C530 H526 0.929 . S
C530 C532 1.378 . S
C530 C534 1.350 . S
C531 C534 1.463 1_655 S
C531 C536 1.350 . S
C531 N539 1.427 . S
C532 H523 0.930 . S
C532 C530 1.378 . S
C532 C533 1.367 . S
C533 C532 1.367 . S
C533 C535 1.433 . S
C534 C530 1.350 . S
C534 C531 1.463 1_455 S
C534 N538 1.427 . S
C535 H525 0.929 . S
C535 C533 1.433 . S
C535 N538 1.384 . S
C536 H527 0.929 . S
C536 C528 1.378 . S
C536 C531 1.350 . S
C537 H524 0.929 . S
C537 C529 1.433 . S
C537 N539 1.384 . S
N538 C534 1.427 . S
N538 C535 1.384 . S
N539 C531 1.427 . S
N539 C537 1.384 . S
H540 C546 0.930 . S
H541 C550 0.930 . S
H542 C555 0.929 . S
H543 C553 0.929 . S
H544 C548 0.929 . S
H545 C554 0.929 . S
C546 H540 0.930 . S
C546 C547 1.367 . S
C546 C554 1.378 . S
C547 C546 1.367 . S
C547 C555 1.433 . S
C548 H544 0.929 . S
C548 C550 1.378 . S
C548 C552 1.350 . S
C549 C552 1.463 1_556 S
C549 C554 1.350 . S
C549 N557 1.427 . S
C550 H541 0.930 . S
C550 C548 1.378 . S
C550 C551 1.367 . S
C551 C550 1.367 . S
C551 C553 1.433 . S
C552 C548 1.350 . S
C552 C549 1.463 1_554 S
C552 N556 1.427 . S
C553 H543 0.929 . S
C553 C551 1.433 . S
C553 N556 1.384 . S
C554 H545 0.929 . S
C554 C546 1.378 . S
C554 C549 1.350 . S
C555 H542 0.929 . S
C555 C547 1.433 . S
C555 N557 1.384 . S
N556 C552 1.427 . S
N556 C553 1.384 . S
N557 C549 1.427 . S
N557 C555 1.384 . S
H558 C564 0.930 . S
H559 C568 0.930 . S
H560 C573 0.929 . S
H561 C571 0.929 . S
H562 C566 0.929 . S
H563 C572 0.929 . S
C564 H558 0.930 . S
C564 C565 1.367 . S
C564 C572 1.378 . S
C565 C564 1.367 . S
C565 C573 1.433 . S
C566 H562 0.929 . S
C566 C568 1.378 . S
C566 C570 1.350 . S
C567 C570 1.463 . S
C567 C572 1.350 . S
C567 N575 1.427 . S
C568 H559 0.930 . S
C568 C566 1.378 . S
C568 C569 1.367 . S
C569 C568 1.367 . S
C569 C571 1.433 . S
C570 C566 1.350 . S
C570 C567 1.463 . S
C570 N574 1.427 . S
C571 H561 0.929 . S
C571 C569 1.433 . S
C571 N574 1.384 . S
C572 H563 0.929 . S
C572 C564 1.378 . S
C572 C567 1.350 . S
C573 H560 0.929 . S
C573 C565 1.433 . S
C573 N575 1.384 . S
N574 C570 1.427 . S
N574 C571 1.384 . S
N575 C567 1.427 . S
N575 C573 1.384 . S
H576 C582 0.930 . S
H577 C586 0.930 . S
H578 C591 0.929 . S
H579 C589 0.929 . S
H580 C584 0.929 . S
H581 C590 0.929 . S
C582 H576 0.930 . S
C582 C583 1.367 . S
C582 C590 1.378 . S
C583 C582 1.367 . S
C583 C591 1.433 . S
C584 H580 0.929 . S
C584 C586 1.378 . S
C584 C588 1.350 . S
C585 C588 1.463 . S
C585 C590 1.350 . S
C585 N593 1.427 . S
C586 H577 0.930 . S
C586 C584 1.378 . S
C586 C587 1.367 . S
C587 C586 1.367 . S
C587 C589 1.433 . S
C588 C584 1.350 . S
C588 C585 1.463 . S
C588 N592 1.427 . S
C589 H579 0.929 . S
C589 C587 1.433 . S
C589 N592 1.384 . S
C590 H581 0.929 . S
C590 C582 1.378 . S
C590 C585 1.350 . S
C591 H578 0.929 . S
C591 C583 1.433 . S
C591 N593 1.384 . S
N592 C588 1.427 . S
N592 C589 1.384 . S
N593 C585 1.427 . S
N593 C591 1.384 . S
H594 C600 0.930 . S
H595 C604 0.930 . S
H596 C609 0.929 . S
H597 C607 0.929 . S
H598 C602 0.929 . S
H599 C608 0.929 . S
C600 H594 0.930 . S
C600 C601 1.367 . S
C600 C608 1.378 . S
C601 C600 1.367 . S
C601 C609 1.433 . S
C602 H598 0.929 . S
C602 C604 1.378 . S
C602 C606 1.350 . S
C603 C606 1.463 1_556 S
C603 C608 1.350 . S
C603 N611 1.427 . S
C604 H595 0.930 . S
C604 C602 1.378 . S
C604 C605 1.367 . S
C605 C604 1.367 . S
C605 C607 1.433 . S
C606 C602 1.350 . S
C606 C603 1.463 1_554 S
C606 N610 1.427 . S
C607 H597 0.929 . S
C607 C605 1.433 . S
C607 N610 1.384 . S
C608 H599 0.929 . S
C608 C600 1.378 . S
C608 C603 1.350 . S
C609 H596 0.929 . S
C609 C601 1.433 . S
C609 N611 1.384 . S
N610 C606 1.427 . S
N610 C607 1.384 . S
N611 C603 1.427 . S
N611 C609 1.384 . S
H612 C618 0.930 . S
H613 C622 0.930 . S
H614 C627 0.929 . S
H615 C625 0.929 . S
H616 C620 0.929 . S
H617 C626 0.929 . S
C618 H612 0.930 . S
C618 C619 1.367 . S
C618 C626 1.378 . S
C619 C618 1.367 . S
C619 C627 1.433 . S
C620 H616 0.929 . S
C620 C622 1.378 . S
C620 C624 1.350 . S
C621 C624 1.463 . S
C621 C626 1.350 . S
C621 N629 1.427 . S
C622 H613 0.930 . S
C622 C620 1.378 . S
C622 C623 1.367 . S
C623 C622 1.367 . S
C623 C625 1.433 . S
C624 C620 1.350 . S
C624 C621 1.463 . S
C624 N628 1.427 . S
C625 H615 0.929 . S
C625 C623 1.433 . S
C625 N628 1.384 . S
C626 H617 0.929 . S
C626 C618 1.378 . S
C626 C621 1.350 . S
C627 H614 0.929 . S
C627 C619 1.433 . S
C627 N629 1.384 . S
N628 C624 1.427 . S
N628 C625 1.384 . S
N629 C621 1.427 . S
N629 C627 1.384 . S
H630 C636 0.930 . S
H631 C640 0.930 . S
H632 C645 0.929 . S
H633 C643 0.929 . S
H634 C638 0.929 . S
H635 C644 0.929 . S
C636 H630 0.930 . S
C636 C637 1.367 . S
C636 C644 1.378 . S
C637 C636 1.367 . S
C637 C645 1.433 . S
C638 H634 0.929 . S
C638 C640 1.378 . S
C638 C642 1.350 . S
C639 C642 1.463 . S
C639 C644 1.350 . S
C639 N647 1.427 . S
C640 H631 0.930 . S
C640 C638 1.378 . S
C640 C641 1.367 . S
C641 C640 1.367 . S
C641 C643 1.433 . S
C642 C638 1.350 . S
C642 C639 1.463 . S
C642 N646 1.427 . S
C643 H633 0.929 . S
C643 C641 1.433 . S
C643 N646 1.384 . S
C644 H635 0.929 . S
C644 C636 1.378 . S
C644 C639 1.350 . S
C645 H632 0.929 . S
C645 C637 1.433 . S
C645 N647 1.384 . S
N646 C642 1.427 . S
N646 C643 1.384 . S
N647 C639 1.427 . S
N647 C645 1.384 . S
H648 C654 0.930 . S
H649 C658 0.930 . S
H650 C663 0.929 . S
H651 C661 0.929 . S
H652 C656 0.929 . S
H653 C662 0.929 . S
C654 H648 0.930 . S
C654 C655 1.367 . S
C654 C662 1.378 . S
C655 C654 1.367 . S
C655 C663 1.433 . S
C656 H652 0.929 . S
C656 C658 1.378 . S
C656 C660 1.350 . S
C657 C660 1.463 . S
C657 C662 1.350 . S
C657 N665 1.427 . S
C658 H649 0.930 . S
C658 C656 1.378 . S
C658 C659 1.367 . S
C659 C658 1.367 . S
C659 C661 1.433 . S
C660 C656 1.350 . S
C660 C657 1.463 . S
C660 N664 1.427 . S
C661 H651 0.929 . S
C661 C659 1.433 . S
C661 N664 1.384 . S
C662 H653 0.929 . S
C662 C654 1.378 . S
C662 C657 1.350 . S
C663 H650 0.929 . S
C663 C655 1.433 . S
C663 N665 1.384 . S
N664 C660 1.427 . S
N664 C661 1.384 . S
N665 C657 1.427 . S
N665 C663 1.384 . S
H666 C672 0.930 . S
H667 C676 0.930 . S
H668 C681 0.929 . S
H669 C679 0.929 . S
H670 C674 0.929 . S
H671 C680 0.929 . S
C672 H666 0.930 . S
C672 C673 1.367 . S
C672 C680 1.378 . S
C673 C672 1.367 . S
C673 C681 1.433 . S
C674 H670 0.929 . S
C674 C676 1.378 . S
C674 C678 1.350 . S
C675 C678 1.463 . S
C675 C680 1.350 . S
C675 N683 1.427 . S
C676 H667 0.930 . S
C676 C674 1.378 . S
C676 C677 1.367 . S
C677 C676 1.367 . S
C677 C679 1.433 . S
C678 C674 1.350 . S
C678 C675 1.463 . S
C678 N682 1.427 . S
C679 H669 0.929 . S
C679 C677 1.433 . S
C679 N682 1.384 . S
C680 H671 0.929 . S
C680 C672 1.378 . S
C680 C675 1.350 . S
C681 H668 0.929 . S
C681 C673 1.433 . S
C681 N683 1.384 . S
N682 C678 1.427 . S
N682 C679 1.384 . S
N683 C675 1.427 . S
N683 C681 1.384 . S
H684 C690 0.930 . S
H685 C694 0.930 . S
H686 C699 0.929 . S
H687 C697 0.929 . S
H688 C692 0.929 . S
H689 C698 0.929 . S
C690 H684 0.930 . S
C690 C691 1.367 . S
C690 C698 1.378 . S
C691 C690 1.367 . S
C691 C699 1.433 . S
C692 H688 0.929 . S
C692 C694 1.378 . S
C692 C696 1.350 . S
C693 C696 1.463 . S
C693 C698 1.350 . S
C693 N701 1.427 . S
C694 H685 0.930 . S
C694 C692 1.378 . S
C694 C695 1.367 . S
C695 C694 1.367 . S
C695 C697 1.433 . S
C696 C692 1.350 . S
C696 C693 1.463 . S
C696 N700 1.427 . S
C697 H687 0.929 . S
C697 C695 1.433 . S
C697 N700 1.384 . S
C698 H689 0.929 . S
C698 C690 1.378 . S
C698 C693 1.350 . S
C699 H686 0.929 . S
C699 C691 1.433 . S
C699 N701 1.384 . S
N700 C696 1.427 . S
N700 C697 1.384 . S
N701 C693 1.427 . S
N701 C699 1.384 . S
H702 C708 0.930 . S
H703 C712 0.930 . S
H704 C717 0.929 . S
H705 C715 0.929 . S
H706 C710 0.929 . S
H707 C716 0.929 . S
C708 H702 0.930 . S
C708 C709 1.367 . S
C708 C716 1.378 . S
C709 C708 1.367 . S
C709 C717 1.433 . S
C710 H706 0.929 . S
C710 C712 1.378 . S
C710 C714 1.350 . S
C711 C714 1.463 . S
C711 C716 1.350 . S
C711 N719 1.427 . S
C712 H703 0.930 . S
C712 C710 1.378 . S
C712 C713 1.367 . S
C713 C712 1.367 . S
C713 C715 1.433 . S
C714 C710 1.350 . S
C714 C711 1.463 . S
C714 N718 1.427 . S
C715 H705 0.929 . S
C715 C713 1.433 . S
C715 N718 1.384 . S
C716 H707 0.929 . S
C716 C708 1.378 . S
C716 C711 1.350 . S
C717 H704 0.929 . S
C717 C709 1.433 . S
C717 N719 1.384 . S
N718 C714 1.427 . S
N718 C715 1.384 . S
N719 C711 1.427 . S
N719 C717 1.384 . S
H720 C726 0.930 . S
H721 C730 0.930 . S
H722 C735 0.929 . S
H723 C733 0.929 . S
H724 C728 0.929 . S
H725 C734 0.929 . S
C726 H720 0.930 . S
C726 C727 1.367 . S
C726 C734 1.378 . S
C727 C726 1.367 . S
C727 C735 1.433 . S
C728 H724 0.929 . S
C728 C730 1.378 . S
C728 C732 1.350 . S
C729 C732 1.463 . S
C729 C734 1.350 . S
C729 N737 1.427 . S
C730 H721 0.930 . S
C730 C728 1.378 . S
C730 C731 1.367 . S
C731 C730 1.367 . S
C731 C733 1.433 . S
C732 C728 1.350 . S
C732 C729 1.463 . S
C732 N736 1.427 . S
C733 H723 0.929 . S
C733 C731 1.433 . S
C733 N736 1.384 . S
C734 H725 0.929 . S
C734 C726 1.378 . S
C734 C729 1.350 . S
C735 H722 0.929 . S
C735 C727 1.433 . S
C735 N737 1.384 . S
N736 C732 1.427 . S
N736 C733 1.384 . S
N737 C729 1.427 . S
N737 C735 1.384 . S
H738 C744 0.930 . S
H739 C748 0.930 . S
H740 C753 0.929 . S
H741 C751 0.929 . S
H742 C746 0.929 . S
H743 C752 0.929 . S
C744 H738 0.930 . S
C744 C745 1.367 . S
C744 C752 1.378 . S
C745 C744 1.367 . S
C745 C753 1.433 . S
C746 H742 0.929 . S
C746 C748 1.378 . S
C746 C750 1.350 . S
C747 C750 1.463 . S
C747 C752 1.350 . S
C747 N755 1.427 . S
C748 H739 0.930 . S
C748 C746 1.378 . S
C748 C749 1.367 . S
C749 C748 1.367 . S
C749 C751 1.433 . S
C750 C746 1.350 . S
C750 C747 1.463 . S
C750 N754 1.427 . S
C751 H741 0.929 . S
C751 C749 1.433 . S
C751 N754 1.384 . S
C752 H743 0.929 . S
C752 C744 1.378 . S
C752 C747 1.350 . S
C753 H740 0.929 . S
C753 C745 1.433 . S
C753 N755 1.384 . S
N754 C750 1.427 . S
N754 C751 1.384 . S
N755 C747 1.427 . S
N755 C753 1.384 . S
H756 C762 0.930 . S
H757 C766 0.930 . S
H758 C771 0.929 . S
H759 C769 0.929 . S
H760 C764 0.929 . S
H761 C770 0.929 . S
C762 H756 0.930 . S
C762 C763 1.367 . S
C762 C770 1.378 . S
C763 C762 1.367 . S
C763 C771 1.433 . S
C764 H760 0.929 . S
C764 C766 1.378 . S
C764 C768 1.350 . S
C765 C768 1.463 . S
C765 C770 1.350 . S
C765 N773 1.427 . S
C766 H757 0.930 . S
C766 C764 1.378 . S
C766 C767 1.367 . S
C767 C766 1.367 . S
C767 C769 1.433 . S
C768 C764 1.350 . S
C768 C765 1.463 . S
C768 N772 1.427 . S
C769 H759 0.929 . S
C769 C767 1.433 . S
C769 N772 1.384 . S
C770 H761 0.929 . S
C770 C762 1.378 . S
C770 C765 1.350 . S
C771 H758 0.929 . S
C771 C763 1.433 . S
C771 N773 1.384 . S
N772 C768 1.427 . S
N772 C769 1.384 . S
N773 C765 1.427 . S
N773 C771 1.384 . S
H774 C780 0.930 . S
H775 C784 0.930 . S
H776 C789 0.929 . S
H777 C787 0.929 . S
H778 C782 0.929 . S
H779 C788 0.929 . S
C780 H774 0.930 . S
C780 C781 1.367 . S
C780 C788 1.378 . S
C781 C780 1.367 . S
C781 C789 1.433 . S
C782 H778 0.929 . S
C782 C784 1.378 . S
C782 C786 1.350 . S
C783 C786 1.463 1_655 S
C783 C788 1.350 . S
C783 N791 1.427 . S
C784 H775 0.930 . S
C784 C782 1.378 . S
C784 C785 1.367 . S
C785 C784 1.367 . S
C785 C787 1.433 . S
C786 C782 1.350 . S
C786 C783 1.463 1_455 S
C786 N790 1.427 . S
C787 H777 0.929 . S
C787 C785 1.433 . S
C787 N790 1.384 . S
C788 H779 0.929 . S
C788 C780 1.378 . S
C788 C783 1.350 . S
C789 H776 0.929 . S
C789 C781 1.433 . S
C789 N791 1.384 . S
N790 C786 1.427 . S
N790 C787 1.384 . S
N791 C783 1.427 . S
N791 C789 1.384 . S
H792 C798 0.930 . S
H793 C802 0.930 . S
H794 C807 0.929 . S
H795 C805 0.929 . S
H796 C800 0.929 . S
H797 C806 0.929 . S
C798 H792 0.930 . S
C798 C799 1.367 . S
C798 C806 1.378 . S
C799 C798 1.367 . S
C799 C807 1.433 . S
C800 H796 0.929 . S
C800 C802 1.378 . S
C800 C804 1.350 . S
C801 C804 1.463 1_545 S
C801 C806 1.350 . S
C801 N809 1.427 1_545 S
C802 H793 0.930 . S
C802 C800 1.378 . S
C802 C803 1.367 . S
C803 C802 1.367 . S
C803 C805 1.433 . S
C804 C800 1.350 . S
C804 C801 1.463 1_565 S
C804 N808 1.427 1_565 S
C805 H795 0.929 . S
C805 C803 1.433 . S
C805 N808 1.384 1_565 S
C806 H797 0.929 . S
C806 C798 1.378 . S
C806 C801 1.350 . S
C807 H794 0.929 . S
C807 C799 1.433 . S
C807 N809 1.384 1_545 S
N808 C804 1.427 1_545 S
N808 C805 1.384 1_545 S
N809 C801 1.427 1_565 S
N809 C807 1.384 1_565 S
H810 C816 0.930 . S
H811 C820 0.930 . S
H812 C825 0.929 . S
H813 C823 0.929 . S
H814 C818 0.929 . S
H815 C824 0.929 . S
C816 H810 0.930 . S
C816 C817 1.367 . S
C816 C824 1.378 . S
C817 C816 1.367 . S
C817 C825 1.433 . S
C818 H814 0.929 . S
C818 C820 1.378 . S
C818 C822 1.350 . S
C819 C822 1.463 . S
C819 C824 1.350 . S
C819 N827 1.427 . S
C820 H811 0.930 . S
C820 C818 1.378 . S
C820 C821 1.367 . S
C821 C820 1.367 . S
C821 C823 1.433 . S
C822 C818 1.350 . S
C822 C819 1.463 . S
C822 N826 1.427 . S
C823 H813 0.929 . S
C823 C821 1.433 . S
C823 N826 1.384 . S
C824 H815 0.929 . S
C824 C816 1.378 . S
C824 C819 1.350 . S
C825 H812 0.929 . S
C825 C817 1.433 . S
C825 N827 1.384 . S
N826 C822 1.427 . S
N826 C823 1.384 . S
N827 C819 1.427 . S
N827 C825 1.384 . S
H828 C834 0.930 . S
H829 C838 0.930 . S
H830 C843 0.929 . S
H831 C841 0.929 . S
H832 C836 0.929 . S
H833 C842 0.929 . S
C834 H828 0.930 . S
C834 C835 1.367 . S
C834 C842 1.378 1_455 S
C835 C834 1.367 . S
C835 C843 1.433 . S
C836 H832 0.929 . S
C836 C838 1.378 1_455 S
C836 C840 1.350 1_455 S
C837 C840 1.463 1_455 S
C837 C842 1.350 1_455 S
C837 N845 1.427 . S
C838 H829 0.930 . S
C838 C836 1.378 1_655 S
C838 C839 1.367 . S
C839 C838 1.367 . S
C839 C841 1.433 . S
C840 C836 1.350 1_655 S
C840 C837 1.463 1_655 S
C840 N844 1.427 . S
C841 H831 0.929 . S
C841 C839 1.433 . S
C841 N844 1.384 . S
C842 H833 0.929 . S
C842 C834 1.378 1_655 S
C842 C837 1.350 1_655 S
C843 H830 0.929 . S
C843 C835 1.433 . S
C843 N845 1.384 . S
N844 C840 1.427 . S
N844 C841 1.384 . S
N845 C837 1.427 . S
N845 C843 1.384 . S
H846 C852 0.930 . S
H847 C856 0.930 . S
H848 C861 0.929 . S
H849 C859 0.929 . S
H850 C854 0.929 1_565 S
H851 C860 0.929 1_545 S
C852 H846 0.930 . S
C852 C853 1.367 . S
C852 C860 1.378 . S
C853 C852 1.367 . S
C853 C861 1.433 . S
C854 H850 0.929 1_545 S
C854 C856 1.378 . S
C854 C858 1.350 . S
C855 C858 1.463 1_565 S
C855 C860 1.350 . S
C855 N863 1.427 . S
C856 H847 0.930 . S
C856 C854 1.378 . S
C856 C857 1.367 . S
C857 C856 1.367 . S
C857 C859 1.433 . S
C858 C854 1.350 . S
C858 C855 1.463 1_545 S
C858 N862 1.427 . S
C859 H849 0.929 . S
C859 C857 1.433 . S
C859 N862 1.384 . S
C860 H851 0.929 1_565 S
C860 C852 1.378 . S
C860 C855 1.350 . S
C861 H848 0.929 . S
C861 C853 1.433 . S
C861 N863 1.384 . S
N862 C858 1.427 . S
N862 C859 1.384 . S
N863 C855 1.427 . S
N863 C861 1.384 . S
C439 C255 1.327 . S
C443 C3 1.333 . S
C457 C39 1.327 . S
C461 C291 1.332 . S
C475 C75 1.329 . S
C479 C327 1.329 . S
C493 C111 1.332 . S
C497 C363 1.327 . S
C511 C399 1.327 . S
C515 C147 1.331 . S
C529 C219 1.332 . S
C533 C183 1.327 . S
C547 C362 1.391 . S
C551 C2 1.389 . S
C565 C38 1.388 . S
C569 C398 1.388 . S
C583 C74 1.390 . S
C587 C218 1.388 . S
C601 C254 1.391 . S
C605 C110 1.389 . S
C619 C290 1.388 . S
C623 C146 1.387 . S
C637 C326 1.390 . S
C641 C182 1.388 . S
C655 C14 1.592 . S
C659 C302 1.581 . S
C673 C50 1.581 . S
C677 C338 1.592 . S
C691 C374 1.578 . S
C695 C86 1.592 . S
C709 C122 1.580 . S
C713 C410 1.584 . S
C727 C230 1.577 . S
C731 C158 1.588 . S
C745 C266 1.590 . S
C749 C194 1.577 . S
C763 C112 1.312 . S
C767 C4 1.309 . S
C781 C148 1.300 . S
C785 C40 1.304 . S
C799 C76 1.297 . S
C803 C184 1.300 . S
C817 C220 1.298 . S
C821 C328 1.301 . S
C835 C256 1.314 . S
C839 C364 1.311 . S
C853 C400 1.306 . S
C857 C292 1.310 . S
