# Generated by pormake.
# Topology vmb, (5)-cn, num edge types: 1
# Building blocks:
#     Node 0, Type 0, BuildingBlock: XOMCOT_clean_sbu_1, # of connection points: 5
#     Node 1, Type 0, BuildingBlock: XOMCOT_clean_sbu_1, # of connection points: 5
#     Node 2, Type 0, BuildingBlock: XOMCOT_clean_sbu_1, # of connection points: 5
#     Node 3, Type 0, BuildingBlock: XOMCOT_clean_sbu_1, # of connection points: 5
#     Node 4, Type 0, BuildingBlock: XOMCOT_clean_sbu_1, # of connection points: 5
#     Node 5, Type 0, BuildingBlock: XOMCOT_clean_sbu_1, # of connection points: 5
#     Node 6, Type 0, BuildingBlock: XOMCOT_clean_sbu_1, # of connection points: 5
#     Node 7, Type 0, BuildingBlock: XOMCOT_clean_sbu_1, # of connection points: 5
#     Edge 8, Type (0, 0), BuildingBlock: ZUJKAS_clean_linker_0, # of connection points: 2
#     Edge 9, Type (0, 0), BuildingBlock: ZUJKAS_clean_linker_0, # of connection points: 2
#     Edge 10, Type (0, 0), BuildingBlock: ZUJKAS_clean_linker_0, # of connection points: 2
#     Edge 11, Type (0, 0), BuildingBlock: ZUJKAS_clean_linker_0, # of connection points: 2
#     Edge 12, Type (0, 0), BuildingBlock: ZUJKAS_clean_linker_0, # of connection points: 2
#     Edge 13, Type (0, 0), BuildingBlock: ZUJKAS_clean_linker_0, # of connection points: 2
#     Edge 14, Type (0, 0), BuildingBlock: ZUJKAS_clean_linker_0, # of connection points: 2
#     Edge 15, Type (0, 0), BuildingBlock: ZUJKAS_clean_linker_0, # of connection points: 2
#     Edge 16, Type (0, 0), BuildingBlock: ZUJKAS_clean_linker_0, # of connection points: 2
#     Edge 17, Type (0, 0), BuildingBlock: ZUJKAS_clean_linker_0, # of connection points: 2
#     Edge 18, Type (0, 0), BuildingBlock: ZUJKAS_clean_linker_0, # of connection points: 2
#     Edge 19, Type (0, 0), BuildingBlock: ZUJKAS_clean_linker_0, # of connection points: 2
#     Edge 20, Type (0, 0), BuildingBlock: ZUJKAS_clean_linker_0, # of connection points: 2
#     Edge 21, Type (0, 0), BuildingBlock: ZUJKAS_clean_linker_0, # of connection points: 2
#     Edge 22, Type (0, 0), BuildingBlock: ZUJKAS_clean_linker_0, # of connection points: 2
#     Edge 23, Type (0, 0), BuildingBlock: ZUJKAS_clean_linker_0, # of connection points: 2
#     Edge 24, Type (0, 0), BuildingBlock: ZUJKAS_clean_linker_0, # of connection points: 2
#     Edge 25, Type (0, 0), BuildingBlock: ZUJKAS_clean_linker_0, # of connection points: 2
#     Edge 26, Type (0, 0), BuildingBlock: ZUJKAS_clean_linker_0, # of connection points: 2
#     Edge 27, Type (0, 0), BuildingBlock: ZUJKAS_clean_linker_0, # of connection points: 2
# Relax obj value: 0.089
# Max RMSD: 0.129
# Mean RMSD: 0.129
data_MOF--net-vmb--node1-XOMCOT_clean_sbu_1--edge1-ZUJKAS_clean_linker_0
_symmetry_space_group_name_H-M    P1
_symmetry_Int_Tables_number       1
_symmetry_cell_setting            triclinic
loop_
_symmetry_equiv_pos_as_xyz
'x, y, z'
_cell_length_a     48.021483
_cell_length_b     59.636888
_cell_length_c     35.002652
_cell_angle_alpha  90.023757
_cell_angle_beta   118.77866
_cell_angle_gamma 89.979148
loop_
_atom_site_label
_atom_site_type_symbol
_atom_site_fract_x
_atom_site_fract_y
_atom_site_fract_z
_atom_type_partial_charge
C0 C 0.23063 0.09352 0.31874 0.0
C1 C 0.19831 0.09692 0.297 0.0
N2 N 0.18441 0.08055 0.30847 0.0
N3 N 0.2372 0.07512 0.3439 0.0
C4 C 0.20857 0.06746 0.33674 0.0
H5 H 0.24835 0.10405 0.31706 0.0
Co6 Co 0.27809 0.06501 0.38183 0.0
C7 C 0.26602 0.0268 0.42486 0.0
O8 O 0.2816 0.01344 0.4119 0.0
N9 N 0.31954 0.05499 0.42054 0.0
C10 C 0.36319 0.04707 0.48259 0.0
C11 C 0.33243 0.0546 0.4644 0.0
C12 C 0.34306 0.04751 0.41291 0.0
N13 N 0.3699 0.0426 0.45021 0.0
O14 O 0.27224 0.04113 0.34208 0.0
H15 H 0.32018 0.05953 0.48216 0.0
H16 H 0.34086 0.046 0.3808 0.0
O17 O 0.26218 0.04733 0.41345 0.0
C18 C 0.27922 0.04889 0.31381 0.0
O19 O 0.29023 0.06949 0.31905 0.0
N20 N 0.28389 0.08968 0.41758 0.0
C21 C 0.29141 0.1304 0.46023 0.0
C22 C 0.26967 0.11443 0.45934 0.0
C23 C 0.26598 0.0942 0.43732 0.0
C24 C 0.30545 0.10483 0.41866 0.0
C25 C 0.3097 0.1253 0.43999 0.0
H26 H 0.24781 0.08268 0.43461 0.0
H27 H 0.31884 0.10119 0.40186 0.0
H28 H 0.20553 0.05301 0.35303 0.0
H29 H 0.18605 0.11049 0.27461 0.0
H30 H 0.37923 0.04473 0.51703 0.0
H31 H 0.25462 0.11797 0.47378 0.0
H32 H 0.32677 0.13718 0.44001 0.0
C33 C 0.81001 0.09571 0.18287 0.0
C34 C 0.84236 0.09881 0.20292 0.0
N35 N 0.85539 0.08151 0.1923 0.0
N36 N 0.80255 0.07655 0.15963 0.0
C37 C 0.83071 0.06815 0.16628 0.0
H38 H 0.79284 0.10703 0.18405 0.0
Co39 Co 0.7611 0.06675 0.12293 0.0
C40 C 0.77165 0.02853 0.07821 0.0
O41 O 0.75704 0.01511 0.09259 0.0
N42 N 0.71938 0.05708 0.0854 0.0
C43 C 0.67545 0.04916 0.02387 0.0
C44 C 0.70622 0.05646 0.04154 0.0
C45 C 0.69598 0.05001 0.09363 0.0
N46 N 0.66888 0.04514 0.05654 0.0
O47 O 0.76722 0.04264 0.16244 0.0
H48 H 0.7183 0.06108 0.02339 0.0
H49 H 0.69858 0.04881 0.12603 0.0
O50 O 0.7757 0.04907 0.08966 0.0
C51 C 0.76507 0.05056 0.19476 0.0
O52 O 0.75799 0.07188 0.1943 0.0
N53 N 0.75486 0.09153 0.08731 0.0
C54 C 0.74644 0.13218 0.04418 0.0
C55 C 0.7681 0.11628 0.04456 0.0
C56 C 0.77226 0.09609 0.06684 0.0
C57 C 0.73346 0.10666 0.08687 0.0
C58 C 0.72876 0.12709 0.06532 0.0
H59 H 0.79037 0.08462 0.06915 0.0
H60 H 0.72052 0.103 0.10428 0.0
H61 H 0.833 0.05306 0.15085 0.0
H62 H 0.85521 0.11291 0.22327 0.0
H63 H 0.65928 0.04672 0.98951 0.0
H64 H 0.78272 0.11983 0.02947 0.0
H65 H 0.7118 0.13893 0.06574 0.0
C66 C 0.81778 0.92602 0.70831 0.0
C67 C 0.85003 0.92819 0.72516 0.0
N68 N 0.85621 0.93221 0.69208 0.0
N69 N 0.80347 0.92874 0.66479 0.0
C70 C 0.82747 0.93245 0.65569 0.0
H71 H 0.80549 0.92224 0.72654 0.0
Co72 Co 0.75981 0.92589 0.63031 0.0
C73 C 0.74349 0.94028 0.54141 0.0
O74 O 0.72218 0.9242 0.52693 0.0
N75 N 0.71469 0.92301 0.59649 0.0
C76 C 0.66487 0.91039 0.56041 0.0
C77 C 0.69637 0.90439 0.5824 0.0
C78 C 0.69338 0.9401 0.58272 0.0
N79 N 0.663 0.93287 0.56079 0.0
O80 O 0.75467 0.95277 0.65631 0.0
H81 H 0.70477 0.88734 0.58756 0.0
H82 H 0.70003 0.95761 0.58855 0.0
O83 O 0.76087 0.94309 0.58264 0.0
C84 C 0.74499 0.9483 0.6836 0.0
O85 O 0.73718 0.92752 0.68668 0.0
N86 N 0.76672 0.8984 0.61016 0.0
C87 C 0.77971 0.85485 0.59442 0.0
C88 C 0.78422 0.8731 0.57274 0.0
C89 C 0.77837 0.89484 0.5819 0.0
C90 C 0.76445 0.881 0.63372 0.0
C91 C 0.77024 0.85904 0.62586 0.0
H92 H 0.78426 0.90858 0.56717 0.0
H93 H 0.75742 0.88425 0.6583 0.0
H94 H 0.82399 0.93511 0.6231 0.0
H95 H 0.86763 0.9262 0.75907 0.0
H96 H 0.64483 0.89903 0.54638 0.0
H97 H 0.79296 0.87063 0.5497 0.0
H98 H 0.76686 0.84548 0.64378 0.0
C99 C 0.22753 0.90746 0.80647 0.0
C100 C 0.19501 0.90607 0.78132 0.0
N101 N 0.18168 0.92182 0.79507 0.0
N102 N 0.23474 0.92399 0.83596 0.0
C103 C 0.20638 0.93253 0.82807 0.0
H104 H 0.24485 0.89677 0.80414 0.0
Co105 Co 0.27569 0.93141 0.8788 0.0
C106 C 0.26424 0.96847 0.92444 0.0
O107 O 0.2816 0.98162 0.91419 0.0
N108 N 0.31721 0.93884 0.92256 0.0
C109 C 0.35853 0.9441 0.9885 0.0
C110 C 0.32743 0.93732 0.9658 0.0
C111 C 0.34274 0.9466 0.9199 0.0
N112 N 0.36824 0.94996 0.95965 0.0
O113 O 0.27439 0.95675 0.84458 0.0
H114 H 0.313 0.93183 0.98007 0.0
H115 H 0.34285 0.9496 0.88955 0.0
O116 O 0.25903 0.94832 0.91062 0.0
C117 C 0.28385 0.9505 0.81794 0.0
O118 O 0.29456 0.92991 0.82107 0.0
N119 N 0.27687 0.90535 0.9088 0.0
C120 C 0.27649 0.86257 0.94028 0.0
C121 C 0.25525 0.87905 0.93922 0.0
C122 C 0.25564 0.90036 0.92298 0.0
C123 C 0.29808 0.88974 0.91036 0.0
C124 C 0.29848 0.86827 0.92629 0.0
H125 H 0.23786 0.9124 0.91979 0.0
H126 H 0.31415 0.89383 0.89788 0.0
H127 H 0.20383 0.94626 0.84633 0.0
H128 H 0.18223 0.89389 0.75588 0.0
H129 H 0.37264 0.94511 0.02361 0.0
H130 H 0.23746 0.87521 0.94885 0.0
H131 H 0.31542 0.85612 0.92682 0.0
C132 C 0.72788 0.59429 0.31541 0.0
C133 C 0.6955 0.59722 0.29542 0.0
N134 N 0.6827 0.5799 0.30636 0.0
N135 N 0.73561 0.57522 0.33893 0.0
C136 C 0.70755 0.5667 0.33248 0.0
H137 H 0.7449 0.6057 0.3141 0.0
Co138 Co 0.77727 0.56582 0.37592 0.0
C139 C 0.76751 0.52704 0.42024 0.0
O140 O 0.78285 0.51391 0.4065 0.0
N141 N 0.81925 0.55649 0.41363 0.0
C142 C 0.86352 0.54935 0.47532 0.0
C143 C 0.83253 0.55622 0.45754 0.0
C144 C 0.84275 0.54949 0.4055 0.0
N145 N 0.87003 0.54513 0.44267 0.0
O146 O 0.77188 0.5421 0.33605 0.0
H147 H 0.82041 0.56082 0.47564 0.0
H148 H 0.84014 0.54795 0.37313 0.0
O149 O 0.7629 0.54752 0.40855 0.0
C150 C 0.77461 0.55048 0.30451 0.0
O151 O 0.78221 0.57177 0.30644 0.0
N152 N 0.78259 0.59029 0.41208 0.0
C153 C 0.78935 0.63015 0.45709 0.0
C154 C 0.76653 0.61425 0.45291 0.0
C155 C 0.76339 0.59444 0.43001 0.0
C156 C 0.80494 0.60549 0.41586 0.0
C157 C 0.80897 0.62546 0.43867 0.0
H158 H 0.74467 0.58292 0.42519 0.0
H159 H 0.81923 0.60228 0.40019 0.0
H160 H 0.70548 0.55168 0.34825 0.0
H161 H 0.68247 0.61124 0.27499 0.0
H162 H 0.87994 0.54731 0.50972 0.0
H163 H 0.75082 0.61729 0.46649 0.0
H164 H 0.8264 0.6375 0.44033 0.0
C165 C 0.31076 0.59486 0.193 0.0
C166 C 0.34318 0.59752 0.21339 0.0
N167 N 0.35569 0.58091 0.20026 0.0
N168 N 0.30268 0.57665 0.16709 0.0
C169 C 0.33058 0.56836 0.17242 0.0
H170 H 0.29397 0.60588 0.19589 0.0
Co171 Co 0.26075 0.56805 0.1296 0.0
C172 C 0.26894 0.53067 0.08112 0.0
O173 O 0.25402 0.51721 0.09494 0.0
N174 N 0.21844 0.55956 0.09141 0.0
C175 C 0.17371 0.55389 0.02947 0.0
C176 C 0.2047 0.56081 0.04752 0.0
C177 C 0.19521 0.55162 0.09923 0.0
N178 N 0.16766 0.54812 0.06192 0.0
O179 O 0.2659 0.54317 0.16717 0.0
H180 H 0.21655 0.56639 0.02963 0.0
H181 H 0.19825 0.54872 0.13152 0.0
O182 O 0.27421 0.55092 0.09435 0.0
C183 C 0.2633 0.5508 0.19934 0.0
O184 O 0.25568 0.57201 0.19883 0.0
N185 N 0.25577 0.59365 0.0963 0.0
C186 C 0.25197 0.63601 0.06066 0.0
C187 C 0.27309 0.61986 0.06022 0.0
C188 C 0.27479 0.59877 0.07851 0.0
C189 C 0.23464 0.6089 0.09618 0.0
C190 C 0.2321 0.63013 0.07813 0.0
H191 H 0.29264 0.58709 0.0806 0.0
H192 H 0.22039 0.60478 0.11151 0.0
H193 H 0.33237 0.55398 0.15488 0.0
H194 H 0.35645 0.61083 0.23582 0.0
H195 H 0.15703 0.55281 0.99498 0.0
H196 H 0.28936 0.62384 0.04799 0.0
H197 H 0.2153 0.642 0.07887 0.0
C198 C 0.31573 0.42408 0.7171 0.0
C199 C 0.34825 0.42527 0.73733 0.0
N200 N 0.35726 0.42934 0.70695 0.0
N201 N 0.30391 0.42754 0.67408 0.0
C202 C 0.32974 0.43082 0.66873 0.0
H203 H 0.30149 0.42066 0.73273 0.0
Co204 Co 0.26038 0.42584 0.63641 0.0
C205 C 0.24867 0.43929 0.54926 0.0
O206 O 0.22777 0.42295 0.53425 0.0
N207 N 0.21524 0.4242 0.59939 0.0
C208 C 0.16484 0.41314 0.55994 0.0
C209 C 0.19582 0.40617 0.58365 0.0
C210 C 0.19501 0.44194 0.58465 0.0
N211 N 0.16429 0.43566 0.56073 0.0
O212 O 0.2553 0.45303 0.66172 0.0
H213 H 0.20301 0.38886 0.58881 0.0
H214 H 0.20268 0.45923 0.59141 0.0
O215 O 0.26452 0.44269 0.59055 0.0
C216 C 0.2438 0.44915 0.68718 0.0
O217 O 0.23413 0.42873 0.6888 0.0
N218 N 0.2671 0.39799 0.61695 0.0
C219 C 0.2793 0.35413 0.60117 0.0
C220 C 0.28771 0.37244 0.58368 0.0
C221 C 0.28202 0.39426 0.59269 0.0
C222 C 0.26133 0.3805 0.63716 0.0
C223 C 0.26639 0.35843 0.62885 0.0
H224 H 0.29059 0.40794 0.58112 0.0
H225 H 0.25196 0.38377 0.65923 0.0
H226 H 0.32842 0.43362 0.63737 0.0
H227 H 0.36395 0.42331 0.77193 0.0
H228 H 0.14417 0.40238 0.54458 0.0
H229 H 0.29931 0.36999 0.56404 0.0
H230 H 0.25985 0.34492 0.64362 0.0
C231 C 0.72273 0.42545 0.78656 0.0
C232 C 0.69033 0.42785 0.76654 0.0
N233 N 0.68192 0.43262 0.79723 0.0
N234 N 0.73496 0.42878 0.82972 0.0
C235 C 0.70949 0.43307 0.83541 0.0
H236 H 0.73663 0.42131 0.77071 0.0
Co237 Co 0.77847 0.42665 0.8671 0.0
C238 C 0.79061 0.4401 0.95438 0.0
O239 O 0.8112 0.42356 0.96928 0.0
N240 N 0.8236 0.42465 0.9039 0.0
C241 C 0.87396 0.41335 0.94263 0.0
C242 C 0.84289 0.40653 0.91903 0.0
C243 C 0.84398 0.4423 0.91892 0.0
N244 N 0.87468 0.43588 0.94238 0.0
O245 O 0.78383 0.45372 0.84202 0.0
H246 H 0.83555 0.38925 0.91343 0.0
H247 H 0.83642 0.45962 0.91262 0.0
O248 O 0.77481 0.44359 0.91315 0.0
C249 C 0.79542 0.44999 0.81661 0.0
O250 O 0.80536 0.42967 0.81494 0.0
N251 N 0.77134 0.39893 0.88643 0.0
C252 C 0.75808 0.35531 0.90179 0.0
C253 C 0.74991 0.37379 0.91921 0.0
C254 C 0.75613 0.39549 0.91039 0.0
C255 C 0.7769 0.3813 0.86628 0.0
C256 C 0.77132 0.35933 0.87441 0.0
H257 H 0.7477 0.40933 0.92183 0.0
H258 H 0.78642 0.38438 0.84433 0.0
H259 H 0.71107 0.4365 0.86675 0.0
H260 H 0.6741 0.42567 0.73212 0.0
H261 H 0.89454 0.40249 0.9575 0.0
H262 H 0.73809 0.37156 0.93861 0.0
H263 H 0.77768 0.34569 0.85969 0.0
H264 H 0.27883 0.00802 0.96958 0.0
H265 H 0.27224 0.01721 0.03279 0.0
H266 H 0.22506 0.95402 0.02043 0.0
H267 H 0.23162 0.94459 0.95721 0.0
H268 H 0.21697 0.01956 0.044 0.0
H269 H 0.30131 0.95276 0.14569 0.0
H270 H 0.29863 0.962 0.09492 0.0
H271 H 0.26831 0.94429 0.09461 0.0
C272 C 0.26668 0.99617 0.97986 0.0
C273 C 0.25612 0.97544 0.95857 0.0
C274 C 0.26296 0.00144 0.01606 0.0
C275 C 0.24872 0.9861 0.03177 0.0
C276 C 0.23669 0.96589 0.00934 0.0
H277 H 0.24829 0.00841 0.28292 0.0
H278 H 0.23628 0.99014 0.21338 0.0
C279 C 0.24035 0.9606 0.97306 0.0
C280 C 0.24772 0.99114 0.07257 0.0
H281 H 0.28211 0.97709 0.18049 0.0
C282 C 0.23079 0.01007 0.07368 0.0
C283 C 0.26564 0.97862 0.11122 0.0
C284 C 0.28471 0.95835 0.11196 0.0
C285 C 0.23236 0.01737 0.11276 0.0
C286 C 0.25172 0.00563 0.15182 0.0
C287 C 0.26723 0.98598 0.1504 0.0
C288 C 0.25975 0.01545 0.19476 0.0
C289 C 0.21417 0.03808 0.11232 0.0
C290 C 0.27768 0.0352 0.20765 0.0
C291 C 0.28465 0.04547 0.24694 0.0
C292 C 0.27389 0.03623 0.27446 0.0
C293 C 0.25685 0.01593 0.26236 0.0
C294 C 0.2499 0.00554 0.2227 0.0
H295 H 0.19387 0.04131 0.07938 0.0
H296 H 0.20507 0.03656 0.13597 0.0
H297 H 0.23026 0.05281 0.12173 0.0
H298 H 0.28602 0.04285 0.18693 0.0
H299 H 0.29811 0.06094 0.25533 0.0
H300 H 0.74877 0.00663 0.19771 0.0
H301 H 0.75106 0.98727 0.26136 0.0
H302 H 0.79774 0.04478 0.34164 0.0
H303 H 0.79436 0.0643 0.27832 0.0
H304 H 0.79804 0.97527 0.34361 0.0
H305 H 0.71975 0.03986 0.35633 0.0
H306 H 0.72654 0.03806 0.31005 0.0
H307 H 0.7553 0.05141 0.35959 0.0
C308 C 0.7599 0.0149 0.22915 0.0
C309 C 0.77097 0.03701 0.23314 0.0
C310 C 0.76113 0.00391 0.26541 0.0
C311 C 0.77373 0.01487 0.30599 0.0
C312 C 0.78697 0.03628 0.31043 0.0
H313 H 0.78544 0.97505 0.55588 0.0
H314 H 0.79633 0.99351 0.50147 0.0
C315 C 0.78521 0.04735 0.27428 0.0
C316 C 0.77168 0.00458 0.34321 0.0
H317 H 0.74233 0.01335 0.41372 0.0
C318 C 0.78588 0.9836 0.35893 0.0
C319 C 0.75568 0.01544 0.36315 0.0
C320 C 0.73818 0.03732 0.34618 0.0
C321 C 0.78459 0.97328 0.39415 0.0
C322 C 0.76878 0.98422 0.41406 0.0
C323 C 0.7549 0.00524 0.39876 0.0
C324 C 0.76332 0.97303 0.44759 0.0
C325 C 0.79988 0.95064 0.40975 0.0
C326 C 0.74085 0.95582 0.43498 0.0
C327 C 0.73429 0.94557 0.46552 0.0
C328 C 0.7502 0.95222 0.50957 0.0
C329 C 0.77276 0.96957 0.52225 0.0
C330 C 0.77909 0.98005 0.49132 0.0
H331 H 0.81618 0.94632 0.39665 0.0
H332 H 0.81336 0.95019 0.44592 0.0
H333 H 0.78109 0.93761 0.39889 0.0
H334 H 0.72816 0.9504 0.40129 0.0
H335 H 0.71679 0.93226 0.45442 0.0
H336 H 0.79024 0.98054 0.72523 0.0
H337 H 0.80047 0.00021 0.79263 0.0
H338 H 0.71536 0.97142 0.78426 0.0
H339 H 0.70532 0.95164 0.71766 0.0
H340 H 0.73137 0.02087 0.81304 0.0
H341 H 0.82512 0.95696 0.90393 0.0
H342 H 0.82507 0.97137 0.85863 0.0
H343 H 0.79384 0.952 0.84899 0.0
C344 C 0.77319 0.97909 0.73703 0.0
C345 C 0.74699 0.96462 0.71641 0.0
C346 C 0.77919 0.99015 0.77562 0.0
C347 C 0.75879 0.98704 0.79347 0.0
C348 C 0.73136 0.97399 0.77097 0.0
H349 H 0.75412 0.98905 0.03251 0.0
H350 H 0.75549 0.98022 0.96512 0.0
C351 C 0.72563 0.96275 0.73294 0.0
C352 C 0.76727 0.99521 0.83765 0.0
H353 H 0.81123 0.98107 0.94516 0.0
C354 C 0.74925 0.01252 0.84205 0.0
C355 C 0.79028 0.98397 0.87523 0.0
C356 C 0.80974 0.96496 0.87188 0.0
C357 C 0.75319 0.01857 0.88315 0.0
C358 C 0.77562 0.00692 0.9206 0.0
C359 C 0.79416 0.98997 0.91632 0.0
C360 C 0.77847 0.0112 0.96399 0.0
C361 C 0.73245 0.03671 0.88624 0.0
C362 C 0.79202 0.03115 0.98636 0.0
C363 C 0.79152 0.03617 0.02504 0.0
C364 C 0.77721 0.0214 0.04183 0.0
C365 C 0.76524 0.00083 0.0205 0.0
C366 C 0.76593 0.99578 0.98193 0.0
H367 H 0.71377 0.04236 0.85365 0.0
H368 H 0.72087 0.03064 0.90515 0.0
H369 H 0.74738 0.05138 0.90377 0.0
H370 H 0.80217 0.04312 0.97324 0.0
H371 H 0.80144 0.05197 0.04092 0.0
H372 H 0.24064 0.98411 0.77544 0.0
H373 H 0.23024 0.00209 0.70635 0.0
H374 H 0.3091 0.96614 0.7092 0.0
H375 H 0.31943 0.94814 0.77739 0.0
H376 H 0.29256 0.02152 0.68404 0.0
H377 H 0.20667 0.95347 0.59176 0.0
H378 H 0.20932 0.96501 0.64116 0.0
H379 H 0.24049 0.94738 0.64405 0.0
C380 C 0.25618 0.98054 0.76179 0.0
C381 C 0.28075 0.96469 0.78157 0.0
C382 C 0.25013 0.99069 0.72236 0.0
C383 C 0.26883 0.98525 0.70279 0.0
C384 C 0.29441 0.97046 0.72386 0.0
H385 H 0.28358 0.98777 0.47193 0.0
H386 H 0.27912 0.97895 0.53706 0.0
C387 C 0.30025 0.96021 0.76277 0.0
C388 C 0.2608 0.99342 0.65883 0.0
H389 H 0.22334 0.97687 0.55225 0.0
C390 C 0.27688 0.01214 0.65499 0.0
C391 C 0.24068 0.98085 0.62134 0.0
C392 C 0.22313 0.96054 0.62433 0.0
C393 C 0.27419 0.0182 0.61455 0.0
C394 C 0.25486 0.00516 0.57722 0.0
C395 C 0.23803 0.98684 0.58093 0.0
C396 C 0.25387 0.00938 0.53489 0.0
C397 C 0.29325 0.03779 0.61235 0.0
C398 C 0.24005 0.02897 0.51124 0.0
C399 C 0.24237 0.034 0.47388 0.0
C400 C 0.25873 0.01957 0.45962 0.0
C401 C 0.27092 -0.00071 0.48202 0.0
C402 C 0.26846 0.99424 0.51931 0.0
H403 H 0.31053 0.04409 0.64523 0.0
H404 H 0.30638 0.03297 0.59476 0.0
H405 H 0.2769 0.0517 0.59402 0.0
H406 H 0.22823 0.04068 0.52238 0.0
H407 H 0.23219 0.04955 0.457 0.0
H408 H 0.75036 0.56661 0.22281 0.0
H409 H 0.74451 0.54734 0.15801 0.0
H410 H 0.78011 0.4864 0.23242 0.0
H411 H 0.78476 0.50561 0.29744 0.0
H412 H 0.791 0.53136 0.1478 0.0
H413 H 0.70754 0.46188 0.12325 0.0
H414 H 0.71349 0.4849 0.15989 0.0
H415 H 0.74117 0.46188 0.17693 0.0
C416 C 0.75645 0.54898 0.22523 0.0
C417 C 0.76813 0.53758 0.26512 0.0
C418 C 0.75308 0.53798 0.18812 0.0
C419 C 0.76166 0.51537 0.19008 0.0
C420 C 0.7726 0.50371 0.22974 0.0
H421 H 0.81446 0.43126 0.04061 0.0
H422 H 0.80333 0.45034 0.0931 0.0
C423 C 0.77544 0.51468 0.26694 0.0
C424 C 0.76184 0.5049 0.15163 0.0
H425 H 0.73698 0.45934 0.08406 0.0
C426 C 0.77874 0.51579 0.1335 0.0
C427 C 0.7458 0.4846 0.13279 0.0
C428 C 0.72571 0.47275 0.14893 0.0
C429 C 0.78085 0.50662 0.09808 0.0
C430 C 0.76575 0.486 0.08031 0.0
C431 C 0.74838 0.47525 0.09774 0.0
C432 C 0.77074 0.47426 0.04687 0.0
C433 C 0.80023 0.51852 0.08083 0.0
C434 C 0.75595 0.48144 0.00325 0.0
C435 C 0.76218 0.47044 0.97268 0.0
C436 C 0.78348 0.45228 0.98558 0.0
C437 C 0.79803 0.44523 0.02938 0.0
C438 C 0.79161 0.45604 0.05956 0.0
H439 H 0.81226 0.5337 0.10017 0.0
H440 H 0.8185 0.507 0.0811 0.0
H441 H 0.78452 0.52364 0.04653 0.0
H442 H 0.73972 0.49553 0.99297 0.0
H443 H 0.75051 0.4762 0.9392 0.0
H444 H 0.29086 0.56546 0.28222 0.0
H445 H 0.29699 0.54559 0.34659 0.0
H446 H 0.25587 0.48631 0.2688 0.0
H447 H 0.25089 0.50612 0.20412 0.0
H448 H 0.25017 0.53112 0.35777 0.0
H449 H 0.32786 0.45886 0.3751 0.0
H450 H 0.32294 0.48223 0.33965 0.0
H451 H 0.29361 0.46029 0.32209 0.0
C452 C 0.28366 0.54804 0.27897 0.0
C453 C 0.27031 0.5373 0.23824 0.0
C454 C 0.28718 0.5367 0.31582 0.0
C455 C 0.27706 0.51441 0.31279 0.0
C456 C 0.26454 0.50335 0.27227 0.0
H457 H 0.22483 0.43027 0.4631 0.0
H458 H 0.23586 0.44917 0.41042 0.0
C459 C 0.26155 0.51466 0.23528 0.0
C460 C 0.27694 0.50377 0.35118 0.0
H461 H 0.29982 0.45726 0.41621 0.0
C462 C 0.26147 0.51512 0.3709 0.0
C463 C 0.29171 0.48291 0.36847 0.0
C464 C 0.31024 0.47047 0.35052 0.0
C465 C 0.25953 0.50591 0.40642 0.0
C466 C 0.27343 0.48479 0.42277 0.0
C467 C 0.28936 0.47355 0.40368 0.0
C468 C 0.26859 0.47311 0.45643 0.0
C469 C 0.24157 0.51837 0.42525 0.0
C470 C 0.28353 0.4803 0.50008 0.0
C471 C 0.27735 0.46941 0.53079 0.0
C472 C 0.25595 0.45131 0.51803 0.0
C473 C 0.24132 0.44421 0.47425 0.0
C474 C 0.24769 0.45491 0.44394 0.0
H475 H 0.22956 0.5336 0.40612 0.0
H476 H 0.22344 0.50725 0.42639 0.0
H477 H 0.2583 0.52353 0.45918 0.0
H478 H 0.29985 0.49434 0.51029 0.0
H479 H 0.2891 0.4752 0.56425 0.0
H480 H 0.29469 0.55561 0.04008 0.0
H481 H 0.29547 0.54658 0.97253 0.0
H482 H 0.2553 0.48164 0.97001 0.0
H483 H 0.25414 0.49054 0.03752 0.0
H484 H 0.3088 0.48367 0.94866 0.0
H485 H 0.20887 0.5426 0.85389 0.0
H486 H 0.24232 0.55313 0.90257 0.0
H487 H 0.21728 0.53207 0.90675 0.0
C488 C 0.2863 0.5393 0.02554 0.0
C489 C 0.27397 0.52391 0.04407 0.0
C490 C 0.28672 0.53421 0.98683 0.0
C491 C 0.27502 0.5136 0.96603 0.0
C492 C 0.2643 0.49771 0.98554 0.0
H493 H 0.2031 0.45354 0.71946 0.0
H494 H 0.21263 0.47348 0.78568 0.0
C495 C 0.2637 0.50282 0.02417 0.0
C496 C 0.27239 0.50895 0.92283 0.0
H497 H 0.22822 0.52168 0.81464 0.0
C498 C 0.29153 0.49217 0.91939 0.0
C499 C 0.24968 0.52005 0.88478 0.0
C500 C 0.22815 0.5379 0.88678 0.0
C501 C 0.28807 0.48584 0.87867 0.0
C502 C 0.2649 0.4966 0.84052 0.0
C503 C 0.24622 0.51371 0.84405 0.0
C504 C 0.25703 0.48818 0.79666 0.0
C505 C 0.30818 0.46698 0.87637 0.0
C506 C 0.27817 0.49072 0.77985 0.0
C507 C 0.27251 0.47955 0.7415 0.0
C508 C 0.24586 0.46554 0.71998 0.0
C509 C 0.22381 0.46425 0.73545 0.0
C510 C 0.22924 0.4756 0.77327 0.0
H511 H 0.32296 0.45896 0.9086 0.0
H512 H 0.29283 0.45399 0.85297 0.0
H513 H 0.32418 0.47359 0.8644 0.0
H514 H 0.2997 0.50046 0.79745 0.0
H515 H 0.29007 0.48058 0.73053 0.0
H516 H 0.83703 0.45668 0.78652 0.0
H517 H 0.82655 0.47593 0.71921 0.0
H518 H 0.73538 0.49748 0.70154 0.0
H519 H 0.74609 0.4785 0.76967 0.0
H520 H 0.73801 0.46911 0.63118 0.0
H521 H 0.81586 0.54435 0.67957 0.0
H522 H 0.83367 0.51907 0.70952 0.0
H523 H 0.80168 0.532 0.7142 0.0
C524 C 0.81526 0.46622 0.76909 0.0
C525 C 0.79246 0.46629 0.78331 0.0
C526 C 0.80928 0.47716 0.73068 0.0
C527 C 0.78024 0.48812 0.70554 0.0
C528 C 0.75804 0.48923 0.72077 0.0
H529 H 0.73751 0.55038 0.45728 0.0
H530 H 0.73605 0.54133 0.52427 0.0
C531 C 0.76428 0.47858 0.75978 0.0
C532 C 0.77192 0.49578 0.66113 0.0
H533 H 0.79509 0.53186 0.60616 0.0
C534 C 0.75005 0.48306 0.62553 0.0
C535 C 0.78775 0.51392 0.65405 0.0
C536 C 0.81092 0.52829 0.69125 0.0
C537 C 0.74462 0.48746 0.58307 0.0
C538 C 0.76153 0.50498 0.57626 0.0
C539 C 0.78232 0.51834 0.6116 0.0
C540 C 0.75911 0.50917 0.53308 0.0
C541 C 0.7213 0.47315 0.54588 0.0
C542 C 0.77204 0.49386 0.51542 0.0
C543 C 0.77324 0.49907 0.47725 0.0
C544 C 0.76154 0.51973 0.45616 0.0
C545 C 0.74711 0.53447 0.47286 0.0
C546 C 0.74618 0.52933 0.51115 0.0
H547 H 0.70543 0.46359 0.55483 0.0
H548 H 0.70653 0.48364 0.51685 0.0
H549 H 0.73457 0.46097 0.53672 0.0
H550 H 0.78239 0.47827 0.53215 0.0
H551 H 0.78454 0.48734 0.46539 0.0
H552 H 0.65378 0.97138 0.59439 0.0
H553 H 0.60344 0.99152 0.56948 0.0
H554 H 0.55705 0.94447 0.46367 0.0
H555 H 0.60709 0.92407 0.48904 0.0
H556 H 0.56256 0.01252 0.49419 0.0
H557 H 0.50213 0.93981 0.52114 0.0
H558 H 0.54438 0.94034 0.54061 0.0
H559 H 0.51739 0.9338 0.48448 0.0
C560 C 0.6329 0.9655 0.56558 0.0
C561 C 0.63427 0.946 0.54395 0.0
C562 C 0.60412 0.97696 0.55144 0.0
C563 C 0.57623 0.9692 0.51531 0.0
C564 C 0.57797 0.95039 0.49242 0.0
H565 H 0.37834 0.01455 0.39556 0.0
H566 H 0.42865 -0.00229 0.40761 0.0
C567 C 0.60659 0.93879 0.50683 0.0
C568 C 0.54527 0.9805 0.50214 0.0
H569 H 0.47003 0.97138 0.48595 0.0
C570 C 0.54236 0.00352 0.49242 0.0
C571 C 0.51885 0.96878 0.49995 0.0
C572 C 0.52084 0.94438 0.51251 0.0
C573 C 0.51376 0.01506 0.48033 0.0
C574 C 0.48744 0.00331 0.47806 0.0
C575 C 0.49019 0.98029 0.4873 0.0
C576 C 0.45742 0.01479 0.46876 0.0
C577 C 0.5118 0.03973 0.4699 0.0
C578 C 0.45697 0.02996 0.49908 0.0
C579 C 0.42836 0.03945 0.49241 0.0
C580 C 0.39956 0.03401 0.4552 0.0
C581 C 0.40015 0.01922 0.42429 0.0
C582 C 0.42882 0.00953 0.43123 0.0
H583 H 0.53128 0.04514 0.46344 0.0
H584 H 0.48865 0.04385 0.44109 0.0
H585 H 0.51367 0.04951 0.49802 0.0
H586 H 0.47869 0.03404 0.52852 0.0
H587 H 0.42873 0.05094 0.51659 0.0
H588 H 0.38281 0.97773 0.91019 0.0
H589 H 0.43505 0.99358 0.92956 0.0
H590 H 0.47585 0.9584 0.05224 0.0
H591 H 0.42413 0.94205 0.0327 0.0
H592 H 0.47295 0.02073 0.00235 0.0
H593 H 0.53632 0.9424 0.00479 0.0
H594 H 0.49355 0.94402 0.97935 0.0
H595 H 0.51685 0.9415 0.03756 0.0
C596 C 0.40298 0.97306 0.94095 0.0
C597 C 0.39919 0.95859 0.96985 0.0
C598 C 0.43279 0.98226 0.95212 0.0
C599 C 0.45944 0.977 0.99217 0.0
C600 C 0.45577 0.96244 0.02089 0.0
H601 H 0.65916 0.01904 0.11278 0.0
H602 H 0.60823 0.00333 0.10078 0.0
C603 C 0.42604 0.95329 0.00982 0.0
C604 C 0.49082 0.98736 0.00468 0.0
H605 H 0.56766 0.97523 0.03146 0.0
C606 C 0.49364 0.01079 0.00859 0.0
C607 C 0.51788 0.97436 0.01324 0.0
C608 C 0.51608 0.94919 0.0082 0.0
C609 C 0.52278 0.02156 0.02097 0.0
C610 C 0.54973 0.00859 0.02893 0.0
C611 C 0.54703 0.98514 0.02559 0.0
C612 C 0.58036 0.0191 0.0379 0.0
C613 C 0.52451 0.04673 0.02589 0.0
C614 C 0.58159 0.03316 0.00667 0.0
C615 C 0.61047 0.04214 0.0135 0.0
C616 C 0.63893 0.03716 0.05161 0.0
C617 C 0.63765 0.02337 0.08332 0.0
C618 C 0.60862 0.01428 0.07636 0.0
H619 H 0.50525 0.05332 0.03175 0.0
H620 H 0.54775 0.05209 0.05316 0.0
H621 H 0.52173 0.05444 0.9954 0.0
H622 H 0.56025 0.03683 0.97644 0.0
H623 H 0.61051 0.0529 0.98863 0.0
H624 H 0.87986 0.51572 0.39105 0.0
H625 H 0.931 0.49887 0.40623 0.0
H626 H 0.97905 0.54025 0.52087 0.0
H627 H 0.92829 0.55669 0.50626 0.0
H628 H 0.98879 0.51562 0.41755 0.0
H629 H 1.0043 0.47768 0.5711 0.0
H630 H 0.96722 0.48986 0.53127 0.0
H631 H 0.99888 0.50749 0.56931 0.0
C632 C 0.90144 0.52137 0.41911 0.0
C633 C 0.90006 0.53724 0.44787 0.0
C634 C 0.9306 0.51171 0.42786 0.0
C635 C 0.95878 0.51786 0.46537 0.0
C636 C 0.95756 0.53472 0.4925 0.0
H637 H 0.1563 0.47486 0.59362 0.0
H638 H 0.1068 0.49627 0.56745 0.0
C639 C 0.92854 0.54415 0.48406 0.0
C640 C 0.98934 0.50625 0.47731 0.0
H641 H 0.04901 0.47641 0.55926 0.0
C642 C 1.00188 0.50694 0.44841 0.0
C643 C 1.00639 0.49481 0.51754 0.0
C644 C 0.99339 0.49218 0.5489 0.0
C645 C 0.03135 0.49698 0.45918 0.0
C646 C 0.04858 0.48594 0.49973 0.0
C647 C 0.03594 0.48512 0.52841 0.0
C648 C 0.07928 0.47441 0.51269 0.0
C649 C 0.04416 0.49864 0.4275 0.0
C650 C 0.0803 0.45512 0.49043 0.0
C651 C 0.10847 0.44285 0.50542 0.0
C652 C 0.13626 0.44962 0.54293 0.0
C653 C 0.13544 0.46936 0.56437 0.0
C654 C 0.10714 0.48153 0.54958 0.0
H655 H 0.03168 0.51173 0.40238 0.0
H656 H 0.06998 0.50246 0.4449 0.0
H657 H 0.04088 0.4823 0.41066 0.0
H658 H 0.05901 0.44914 0.46228 0.0
H659 H 0.1084 0.42782 0.48802 0.0
H660 H 0.15875 0.51687 0.11155 0.0
H661 H 0.10803 0.49925 0.09599 0.0
H662 H 0.05861 0.54262 0.98473 0.0
H663 H 0.10895 0.55991 0.99973 0.0
H664 H 0.05047 0.51521 0.0872 0.0
H665 H 0.03328 0.48083 0.93017 0.0
H666 H 0.07051 0.4927 0.97032 0.0
H667 H 0.03856 0.51067 0.93405 0.0
C668 C 0.13698 0.52278 0.08414 0.0
C669 C 0.13787 0.53951 0.05644 0.0
C670 C 0.10805 0.51268 0.07518 0.0
C671 C 0.07959 0.51921 0.03849 0.0
C672 C 0.08031 0.53681 0.01241 0.0
H673 H 0.88241 0.47556 0.91072 0.0
H674 H 0.93182 0.49705 0.93707 0.0
C675 C 0.10911 0.54672 0.02109 0.0
C676 C 0.04921 0.50729 0.02638 0.0
H677 H 0.98918 0.47832 0.94318 0.0
C678 C 0.03715 0.50703 0.05584 0.0
C679 C 0.03185 0.49652 0.98546 0.0
C680 C 0.04433 0.49496 0.95335 0.0
C681 C 1.00785 0.49678 0.04501 0.0
C682 C 0.99031 0.48639 0.00381 0.0
C683 C 1.00248 0.48652 0.97455 0.0
C684 C 0.95972 0.47464 0.99066 0.0
C685 C 0.99554 0.49748 0.07732 0.0
C686 C 0.95895 0.455 0.01217 0.0
C687 C 0.9308 0.44269 0.9971 0.0
C688 C 0.9028 0.44976 0.96022 0.0
C689 C 0.90342 0.46981 0.93948 0.0
C690 C 0.93168 0.48203 0.95437 0.0
H691 H 1.00801 0.51033 0.103 0.0
H692 H 0.96965 0.50108 0.06063 0.0
H693 H 0.99934 0.48089 0.09342 0.0
H694 H 0.98037 0.4488 0.03982 0.0
H695 H 0.93105 0.42742 0.01397 0.0
H696 H 0.15211 0.04233 0.30416 0.0
H697 H 0.09538 0.03896 0.28162 0.0
H698 H 0.08443 0.11042 0.26111 0.0
H699 H 0.14077 0.11389 0.2834 0.0
H700 H 0.06021 0.05775 0.31631 0.0
H701 H 1.01446 0.08683 0.14645 0.0
H702 H 0.05546 0.07899 0.18065 0.0
H703 H 0.04173 0.10644 0.18529 0.0
C704 C 0.13762 0.05732 0.29489 0.0
C705 C 0.151 0.07836 0.29518 0.0
C706 C 0.10518 0.05535 0.28186 0.0
C707 C 0.08547 0.07437 0.26875 0.0
C708 C 0.0989 0.09541 0.2698 0.0
H709 H 0.89823 0.11465 0.20855 0.0
H710 H 0.95389 0.11054 0.22695 0.0
C711 C 0.13121 0.09737 0.28261 0.0
C712 C 0.05107 0.0725 0.25521 0.0
H713 H 0.97727 0.08679 0.17381 0.0
C714 C 0.04203 0.06379 0.28492 0.0
C715 C 0.0273 0.08026 0.21411 0.0
C716 C 0.03517 0.08843 0.17962 0.0
C717 C 1.01003 0.06363 0.2754 0.0
C718 C 0.98651 0.07227 0.23506 0.0
C719 C 0.99541 0.08032 0.20484 0.0
C720 C 0.95277 0.07431 0.22453 0.0
C721 C 1.00165 0.05507 0.30912 0.0
C722 C 0.93359 0.05527 0.21679 0.0
C723 C 0.90162 0.05757 0.20621 0.0
C724 C 0.88835 0.07896 0.20342 0.0
C725 C 0.90774 0.09794 0.21115 0.0
C726 C 0.93954 0.09563 0.22138 0.0
H727 H 0.02306 0.05188 0.34101 0.0
H728 H 0.98617 0.06729 0.31398 0.0
H729 H 0.98821 0.03914 0.29751 0.0
H730 H 0.94329 0.03866 0.21864 0.0
H731 H 0.88738 0.04263 0.20064 0.0
H732 H 0.13283 0.91186 0.71496 0.0
H733 H 0.07601 0.91625 0.69012 0.0
H734 H 0.0973 0.94401 0.81499 0.0
H735 H 0.15403 0.93956 0.84018 0.0
H736 H 0.04099 0.8969 0.72511 0.0
H737 H 0.03444 0.9895 0.73055 0.0
H738 H 0.06818 0.9751 0.7325 0.0
H739 H 0.0641 0.97752 0.7808 0.0
C740 C 0.12548 0.91892 0.73717 0.0
C741 C 0.14815 0.9254 0.7796 0.0
C742 C 0.09295 0.92152 0.72281 0.0
C743 C 0.08237 0.93079 0.75041 0.0
C744 C 0.10488 0.93735 0.79269 0.0
H745 H 0.90962 0.94768 0.76137 0.0
H746 H 0.96334 0.94775 0.7707 0.0
C747 C 0.1374 0.93478 0.80708 0.0
C748 C 0.0478 0.93247 0.73595 0.0
H749 H 0.98961 0.96916 0.72455 0.0
C750 C 0.02963 0.91273 0.72442 0.0
C751 C 0.03301 0.95314 0.73502 0.0
C752 C 0.05084 0.97506 0.74496 0.0
C753 C 0.99743 0.91295 0.7138 0.0
C754 C 0.98283 0.93356 0.71395 0.0
C755 C 1.00081 0.95338 0.72442 0.0
C756 C 0.94963 0.93466 0.70642 0.0
C757 C 0.97968 0.891 0.70438 0.0
C758 C 0.92384 0.92779 0.66672 0.0
C759 C 0.89295 0.9276 0.66136 0.0
C760 C 0.88734 0.93429 0.69563 0.0
C761 C 0.91313 0.94199 0.73464 0.0
C762 C 0.94387 0.9422 0.73993 0.0
H763 H 0.996 0.87636 0.71455 0.0
H764 H 0.96521 0.89017 0.72132 0.0
H765 H 0.96335 0.88962 0.66883 0.0
H766 H 0.92765 0.92229 0.64011 0.0
H767 H 0.87368 0.92153 0.63096 0.0
H768 H 0.3864 0.54224 0.20201 0.0
H769 H 0.44271 0.53809 0.22223 0.0
H770 H 0.45572 0.60944 0.24297 0.0
H771 H 0.39992 0.61368 0.22305 0.0
H772 H 0.47774 0.55634 0.18634 0.0
H773 H 0.52596 0.58517 0.35677 0.0
H774 H 0.48473 0.57772 0.32328 0.0
H775 H 0.49876 0.60503 0.31857 0.0
C776 C 0.40127 0.55702 0.21082 0.0
C777 C 0.38867 0.57825 0.21147 0.0
C778 C 0.43346 0.55462 0.22251 0.0
C779 C 0.45365 0.57338 0.23513 0.0
C780 C 0.44091 0.59462 0.2347 0.0
H781 H 0.63973 0.61297 0.29018 0.0
H782 H 0.58432 0.6088 0.27291 0.0
C783 C 0.4089 0.59702 0.22326 0.0
C784 C 0.48789 0.57109 0.24786 0.0
H785 H 0.56233 0.58504 0.32798 0.0
C786 C 0.49629 0.56228 0.21756 0.0
C787 C 0.51215 0.57871 0.28875 0.0
C788 C 0.505 0.58697 0.32388 0.0
C789 C 0.52811 0.56196 0.22624 0.0
C790 C 0.5521 0.57054 0.2663 0.0
C791 C 0.54384 0.57862 0.29715 0.0
C792 C 0.58564 0.57258 0.27585 0.0
C793 C 0.53582 0.55331 0.19191 0.0
C794 C 0.60487 0.55357 0.28348 0.0
C795 C 0.63672 0.5559 0.29344 0.0
C796 C 0.64982 0.57729 0.29569 0.0
C797 C 0.63036 0.59625 0.28798 0.0
C798 C 0.5987 0.59391 0.27839 0.0
H799 H 0.51411 0.54994 0.16047 0.0
H800 H 0.55083 0.56559 0.18625 0.0
H801 H 0.54954 0.53748 0.20344 0.0
H802 H 0.59531 0.53696 0.2821 0.0
H803 H 0.65101 0.54098 0.29901 0.0
H804 H 0.65874 0.42132 0.85179 0.0
H805 H 0.60295 0.42265 0.83543 0.0
H806 H 0.57681 0.45176 0.70988 0.0
H807 H 0.6322 0.45021 0.72583 0.0
H808 H 0.55965 0.45697 0.8147 0.0
H809 H 0.51871 0.39779 0.67574 0.0
H810 H 0.56022 0.40215 0.71364 0.0
H811 H 0.53891 0.42186 0.67028 0.0
C812 C 0.64112 0.4282 0.82093 0.0
C813 C 0.64982 0.43537 0.78986 0.0
C814 C 0.60923 0.42887 0.8115 0.0
C815 C 0.58551 0.43676 0.77092 0.0
C816 C 0.59445 0.44493 0.74082 0.0
H817 H 0.37833 0.44932 0.65538 0.0
H818 H 0.43357 0.4522 0.66988 0.0
C819 C 0.62617 0.44411 0.75005 0.0
C820 C 0.55141 0.43629 0.75982 0.0
H821 H 0.47863 0.4157 0.68589 0.0
C822 C 0.54198 0.4479 0.7866 0.0
C823 C 0.52825 0.42447 0.72307 0.0
C824 C 0.53701 0.41068 0.69425 0.0
C825 C 0.51006 0.44817 0.77745 0.0
C826 C 0.48699 0.43634 0.74078 0.0
C827 C 0.49631 0.4249 0.71377 0.0
C828 C 0.45341 0.43458 0.73144 0.0
C829 C 0.5012 0.46127 0.8069 0.0
C830 C 0.44619 0.42329 0.76066 0.0
C831 C 0.41477 0.42141 0.7523 0.0
C832 C 0.38963 0.43083 0.71447 0.0
C833 C 0.39691 0.4418 0.68473 0.0
C834 C 0.42851 0.44357 0.69308 0.0
H835 H 0.51966 0.47382 0.82668 0.0
H836 H 0.47817 0.47006 0.78768 0.0
H837 H 0.49861 0.44954 0.82959 0.0
H838 H 0.46493 0.41573 0.78991 0.0
H839 H 0.4103 0.4123 0.7755 0.0
H840 H 0.29853 0.31745 0.65541 0.0
H841 H 0.30389 0.27872 0.63673 0.0
H842 H 0.27724 0.29911 0.50546 0.0
H843 H 0.27068 0.33772 0.52316 0.0
H844 H 0.25108 0.25322 0.56016 0.0
H845 H 0.36455 0.26242 0.55504 0.0
H846 H 0.35335 0.28106 0.5861 0.0
H847 H 0.33483 0.28369 0.52793 0.0
C848 C 0.29354 0.31372 0.62245 0.0
C849 C 0.28409 0.33074 0.59075 0.0
C850 C 0.29686 0.29161 0.61199 0.0
C851 C 0.2912 0.28622 0.56991 0.0
C852 C 0.28209 0.3031 0.5383 0.0
H853 H 0.29235 0.17091 0.42508 0.0
H854 H 0.29337 0.20809 0.45502 0.0
C855 C 0.27851 0.32516 0.54857 0.0
C856 C 0.29359 0.26278 0.55833 0.0
H857 H 0.33687 0.22815 0.52947 0.0
C858 C 0.26994 0.24759 0.55381 0.0
C859 C 0.31818 0.25572 0.54994 0.0
C860 C 0.34438 0.27146 0.55521 0.0
C861 C 0.26961 0.22554 0.53957 0.0
C862 C 0.29414 0.21845 0.53084 0.0
C863 C 0.31815 0.23361 0.53627 0.0
C864 C 0.29446 0.19575 0.51387 0.0
C865 C 0.2423 0.2104 0.53227 0.0
C866 C 0.29523 0.17646 0.53735 0.0
C867 C 0.29444 0.15516 0.52015 0.0
C868 C 0.29345 0.15284 0.47955 0.0
C869 C 0.29348 0.17219 0.45667 0.0
C870 C 0.29396 0.19343 0.47366 0.0
H871 H 0.22166 0.22006 0.52964 0.0
H872 H 0.23437 0.20027 0.50218 0.0
H873 H 0.25011 0.19874 0.56027 0.0
H874 H 0.2964 0.17787 0.56894 0.0
H875 H 0.2948 0.14051 0.53866 0.0
H876 H 0.73823 0.31874 0.84729 0.0
H877 H 0.73223 0.28011 0.86573 0.0
H878 H 0.75889 0.30056 0.99701 0.0
H879 H 0.76605 0.33906 0.97953 0.0
H880 H 0.78443 0.25449 0.94108 0.0
H881 H 0.67202 0.2641 0.94881 0.0
H882 H 0.68312 0.28288 0.91788 0.0
H883 H 0.70199 0.28518 0.97613 0.0
C884 C 0.74304 0.31504 0.88019 0.0
C885 C 0.75273 0.33204 0.91198 0.0
C886 C 0.73936 0.293 0.89051 0.0
C887 C 0.74486 0.28765 0.93253 0.0
C888 C 0.75412 0.30451 0.9642 0.0
H889 H 0.74587 0.17279 0.07931 0.0
H890 H 0.7441 0.20987 0.04861 0.0
C891 C 0.75807 0.32651 0.95406 0.0
C892 C 0.74241 0.26423 0.9441 0.0
H893 H 0.6998 0.22983 0.97445 0.0
C894 C 0.7658 0.24894 0.94799 0.0
C895 C 0.71813 0.25728 0.95321 0.0
C896 C 0.69218 0.27311 0.94858 0.0
C897 C 0.76623 0.22693 0.96237 0.0
C898 C 0.74205 0.21996 0.97189 0.0
C899 C 0.71826 0.2352 0.96704 0.0
C900 C 0.74196 0.19733 0.98921 0.0
C901 C 0.79331 0.21169 0.96902 0.0
C902 C 0.74081 0.17797 0.96566 0.0
C903 C 0.74204 0.15673 0.9833 0.0
C904 C 0.74385 0.15455 0.02441 0.0
C905 C 0.74413 0.17396 0.04735 0.0
C906 C 0.74322 0.19515 0.02992 0.0
H907 H 0.8138 0.22126 0.97097 0.0
H908 H 0.80161 0.20164 0.99926 0.0
H909 H 0.7851 0.19996 0.94105 0.0
H910 H 0.73906 0.17928 0.93372 0.0
H911 H 0.74141 0.14201 0.96474 0.0
H912 H 0.74011 0.65707 0.44596 0.0
H913 H 0.74294 0.69457 0.47566 0.0
H914 H 0.84527 0.69068 0.54422 0.0
H915 H 0.84264 0.65308 0.51433 0.0
H916 H 0.76918 0.7101 0.56021 0.0
H917 H 0.82824 0.74809 0.47281 0.0
H918 H 0.81074 0.72048 0.46013 0.0
H919 H 0.84894 0.72471 0.50715 0.0
C920 C 0.76322 0.66406 0.46783 0.0
C921 C 0.79118 0.65219 0.47772 0.0
C922 C 0.76479 0.68552 0.48461 0.0
C923 C 0.79431 0.69551 0.51154 0.0
C924 C 0.82228 0.68344 0.5227 0.0
H925 H 0.81039 0.82069 0.65163 0.0
H926 H 0.81623 0.78179 0.63418 0.0
C927 C 0.82073 0.66199 0.5057 0.0
C928 C 0.79554 0.71875 0.52704 0.0
H929 H 0.81956 0.77175 0.52014 0.0
C930 C 0.78032 0.72359 0.55169 0.0
C931 C 0.80977 0.7363 0.51531 0.0
C932 C 0.82512 0.73226 0.48708 0.0
C933 C 0.77866 0.74559 0.56463 0.0
C934 C 0.7932 0.76309 0.55332 0.0
C935 C 0.80868 0.75823 0.52903 0.0
C936 C 0.79111 0.78676 0.56431 0.0
C937 C 0.7604 0.74999 0.58892 0.0
C938 C 0.77601 0.80256 0.53084 0.0
C939 C 0.77284 0.82478 0.5407 0.0
C940 C 0.78471 0.83157 0.58423 0.0
C941 C 0.80052 0.81583 0.61776 0.0
C942 C 0.80384 0.79362 0.60787 0.0
H943 H 0.74446 0.73579 0.58583 0.0
H944 H 0.77739 0.75232 0.62405 0.0
H945 H 0.74586 0.76546 0.57679 0.0
H946 H 0.76609 0.79758 0.49701 0.0
H947 H 0.76034 0.8365 0.51419 0.0
H948 H 0.27993 0.82392 0.90094 0.0
H949 H 0.27526 0.7854 0.9209 0.0
H950 H 0.26255 0.80971 0.02754 0.0
H951 H 0.26799 0.84841 0.00843 0.0
H952 H 0.30713 0.77369 0.04883 0.0
H953 H 0.19195 0.75538 0.9017 0.0
H954 H 0.22232 0.76632 0.89089 0.0
H955 H 0.20658 0.78357 0.91808 0.0
C956 C 0.27649 0.82109 0.92895 0.0
C957 C 0.27438 0.83921 0.95318 0.0
C958 C 0.27344 0.79909 0.93995 0.0
C959 C 0.26807 0.79479 0.97523 0.0
C960 C 0.26643 0.81276 0.99996 0.0
H961 H 0.24843 0.67487 0.09944 0.0
H962 H 0.25165 0.71327 0.07784 0.0
C963 C 0.26941 0.83481 0.98891 0.0
C964 C 0.26469 0.77148 0.98672 0.0
H965 H 0.2183 0.72474 0.94844 0.0
C966 C 0.28765 0.763 0.02704 0.0
C967 C 0.23931 0.75761 0.95801 0.0
C968 C 0.21344 0.76617 0.91488 0.0
C969 C 0.28619 0.74081 0.03922 0.0
C970 C 0.26071 0.72696 0.01061 0.0
C971 C 0.23779 0.73543 0.97023 0.0
C972 C 0.25729 0.70369 0.02233 0.0
C973 C 0.31226 0.73225 0.0822 0.0
C974 C 0.25824 0.68563 0.9973 0.0
C975 C 0.25595 0.66361 0.00919 0.0
C976 C 0.25244 0.65933 0.04617 0.0
C977 C 0.25073 0.67756 0.07049 0.0
C978 C 0.253 0.69952 0.05856 0.0
H979 H 0.33395 0.7428 0.09467 0.0
H980 H 0.30386 0.73257 0.1067 0.0
H981 H 0.31868 0.7147 0.07915 0.0
H982 H 0.26126 0.68857 0.96897 0.0
H983 H 0.25697 0.64995 0.98951 0.0
loop_
_geom_bond_atom_site_label_1
_geom_bond_atom_site_label_2
_geom_bond_distance
_geom_bond_site_symmetry_2
_ccdc_geom_bond_type
C0 C1 1.351 . S
C0 N3 1.368 . S
C0 H5 0.931 . S
C1 C0 1.351 . S
C1 N2 1.373 . S
C1 H29 0.930 . S
N2 C1 1.373 . S
N2 C4 1.340 . S
N3 C0 1.368 . S
N3 C4 1.321 . S
N3 Co6 2.135 . S
C4 N2 1.340 . S
C4 N3 1.321 . S
C4 H28 0.930 . S
H5 C0 0.931 . S
Co6 N3 2.135 . S
Co6 N9 2.121 . S
Co6 O14 2.055 . S
Co6 O17 2.039 . S
Co6 N20 2.140 . S
C7 O8 1.227 . S
C7 O17 1.265 . S
O8 C7 1.227 . S
N9 Co6 2.121 . S
N9 C11 1.375 . S
N9 C12 1.313 . S
C10 C11 1.338 . S
C10 N13 1.377 . S
C10 H30 0.930 . S
C11 N9 1.375 . S
C11 C10 1.338 . S
C11 H15 0.931 . S
C12 N9 1.313 . S
C12 N13 1.344 . S
C12 H16 0.930 . S
N13 C10 1.377 . S
N13 C12 1.344 . S
O14 Co6 2.055 . S
O14 C18 1.253 . S
H15 C11 0.931 . S
H16 C12 0.930 . S
O17 Co6 2.039 . S
O17 C7 1.265 . S
C18 O14 1.253 . S
C18 O19 1.227 . S
O19 C18 1.227 . S
N20 Co6 2.140 . S
N20 C23 1.346 . S
N20 C24 1.345 . S
C21 C22 1.387 . S
C21 C25 1.391 . S
C22 C21 1.387 . S
C22 C23 1.369 . S
C22 H31 0.929 . S
C23 N20 1.346 . S
C23 C22 1.369 . S
C23 H26 0.928 . S
C24 N20 1.345 . S
C24 C25 1.371 . S
C24 H27 0.931 . S
C25 C21 1.391 . S
C25 C24 1.371 . S
C25 H32 0.930 . S
H26 C23 0.928 . S
H27 C24 0.931 . S
H28 C4 0.930 . S
H29 C1 0.930 . S
H30 C10 0.930 . S
H31 C22 0.929 . S
H32 C25 0.930 . S
C33 C34 1.351 . S
C33 N36 1.368 . S
C33 H38 0.931 . S
C34 C33 1.351 . S
C34 N35 1.373 . S
C34 H62 0.930 . S
N35 C34 1.373 . S
N35 C37 1.340 . S
N36 C33 1.368 . S
N36 C37 1.321 . S
N36 Co39 2.135 . S
C37 N35 1.340 . S
C37 N36 1.321 . S
C37 H61 0.930 . S
H38 C33 0.931 . S
Co39 N36 2.135 . S
Co39 N42 2.121 . S
Co39 O47 2.055 . S
Co39 O50 2.039 . S
Co39 N53 2.140 . S
C40 O41 1.227 . S
C40 O50 1.265 . S
O41 C40 1.227 . S
N42 Co39 2.121 . S
N42 C44 1.375 . S
N42 C45 1.313 . S
C43 C44 1.338 . S
C43 N46 1.377 . S
C43 H63 0.930 1_554 S
C44 N42 1.375 . S
C44 C43 1.338 . S
C44 H48 0.931 1_554 S
C45 N42 1.313 . S
C45 N46 1.344 . S
C45 H49 0.930 . S
N46 C43 1.377 . S
N46 C45 1.344 . S
O47 Co39 2.055 . S
O47 C51 1.253 . S
H48 C44 0.931 1_556 S
H49 C45 0.930 . S
O50 Co39 2.039 . S
O50 C40 1.265 . S
C51 O47 1.253 . S
C51 O52 1.227 . S
O52 C51 1.227 . S
N53 Co39 2.140 . S
N53 C56 1.346 . S
N53 C57 1.345 . S
C54 C55 1.387 . S
C54 C58 1.391 . S
C55 C54 1.387 . S
C55 C56 1.369 . S
C55 H64 0.929 . S
C56 N53 1.346 . S
C56 C55 1.369 . S
C56 H59 0.928 . S
C57 N53 1.345 . S
C57 C58 1.371 . S
C57 H60 0.931 . S
C58 C54 1.391 . S
C58 C57 1.371 . S
C58 H65 0.930 . S
H59 C56 0.928 . S
H60 C57 0.931 . S
H61 C37 0.930 . S
H62 C34 0.930 . S
H63 C43 0.930 1_556 S
H64 C55 0.929 . S
H65 C58 0.930 . S
C66 C67 1.351 . S
C66 N69 1.368 . S
C66 H71 0.931 . S
C67 C66 1.351 . S
C67 N68 1.373 . S
C67 H95 0.930 . S
N68 C67 1.373 . S
N68 C70 1.340 . S
N69 C66 1.368 . S
N69 C70 1.321 . S
N69 Co72 2.135 . S
C70 N68 1.340 . S
C70 N69 1.321 . S
C70 H94 0.930 . S
H71 C66 0.931 . S
Co72 N69 2.135 . S
Co72 N75 2.121 . S
Co72 O80 2.055 . S
Co72 O83 2.039 . S
Co72 N86 2.140 . S
C73 O74 1.227 . S
C73 O83 1.265 . S
O74 C73 1.227 . S
N75 Co72 2.121 . S
N75 C77 1.375 . S
N75 C78 1.313 . S
C76 C77 1.338 . S
C76 N79 1.377 . S
C76 H96 0.930 . S
C77 N75 1.375 . S
C77 C76 1.338 . S
C77 H81 0.931 . S
C78 N75 1.313 . S
C78 N79 1.344 . S
C78 H82 0.930 . S
N79 C76 1.377 . S
N79 C78 1.344 . S
O80 Co72 2.055 . S
O80 C84 1.253 . S
H81 C77 0.931 . S
H82 C78 0.930 . S
O83 Co72 2.039 . S
O83 C73 1.265 . S
C84 O80 1.253 . S
C84 O85 1.227 . S
O85 C84 1.227 . S
N86 Co72 2.140 . S
N86 C89 1.346 . S
N86 C90 1.345 . S
C87 C88 1.387 . S
C87 C91 1.391 . S
C88 C87 1.387 . S
C88 C89 1.369 . S
C88 H97 0.929 . S
C89 N86 1.346 . S
C89 C88 1.369 . S
C89 H92 0.928 . S
C90 N86 1.345 . S
C90 C91 1.371 . S
C90 H93 0.931 . S
C91 C87 1.391 . S
C91 C90 1.371 . S
C91 H98 0.930 . S
H92 C89 0.928 . S
H93 C90 0.931 . S
H94 C70 0.930 . S
H95 C67 0.930 . S
H96 C76 0.930 . S
H97 C88 0.929 . S
H98 C91 0.930 . S
C99 C100 1.351 . S
C99 N102 1.368 . S
C99 H104 0.931 . S
C100 C99 1.351 . S
C100 N101 1.373 . S
C100 H128 0.930 . S
N101 C100 1.373 . S
N101 C103 1.340 . S
N102 C99 1.368 . S
N102 C103 1.321 . S
N102 Co105 2.135 . S
C103 N101 1.340 . S
C103 N102 1.321 . S
C103 H127 0.930 . S
H104 C99 0.931 . S
Co105 N102 2.135 . S
Co105 N108 2.121 . S
Co105 O113 2.055 . S
Co105 O116 2.039 . S
Co105 N119 2.140 . S
C106 O107 1.227 . S
C106 O116 1.265 . S
O107 C106 1.227 . S
N108 Co105 2.121 . S
N108 C110 1.375 . S
N108 C111 1.313 . S
C109 C110 1.338 . S
C109 N112 1.377 . S
C109 H129 0.930 1_556 S
C110 N108 1.375 . S
C110 C109 1.338 . S
C110 H114 0.931 1_556 S
C111 N108 1.313 . S
C111 N112 1.344 . S
C111 H115 0.930 . S
N112 C109 1.377 . S
N112 C111 1.344 . S
O113 Co105 2.055 . S
O113 C117 1.253 . S
H114 C110 0.931 1_554 S
H115 C111 0.930 . S
O116 Co105 2.039 . S
O116 C106 1.265 . S
C117 O113 1.253 . S
C117 O118 1.227 . S
O118 C117 1.227 . S
N119 Co105 2.140 . S
N119 C122 1.346 . S
N119 C123 1.345 . S
C120 C121 1.387 . S
C120 C124 1.391 . S
C121 C120 1.387 . S
C121 C122 1.369 . S
C121 H130 0.929 . S
C122 N119 1.346 . S
C122 C121 1.369 . S
C122 H125 0.928 . S
C123 N119 1.345 . S
C123 C124 1.371 . S
C123 H126 0.931 . S
C124 C120 1.391 . S
C124 C123 1.371 . S
C124 H131 0.930 . S
H125 C122 0.928 . S
H126 C123 0.931 . S
H127 C103 0.930 . S
H128 C100 0.930 . S
H129 C109 0.930 1_554 S
H130 C121 0.929 . S
H131 C124 0.930 . S
C132 C133 1.351 . S
C132 N135 1.368 . S
C132 H137 0.931 . S
C133 C132 1.351 . S
C133 N134 1.373 . S
C133 H161 0.930 . S
N134 C133 1.373 . S
N134 C136 1.340 . S
N135 C132 1.368 . S
N135 C136 1.321 . S
N135 Co138 2.135 . S
C136 N134 1.340 . S
C136 N135 1.321 . S
C136 H160 0.930 . S
H137 C132 0.931 . S
Co138 N135 2.135 . S
Co138 N141 2.121 . S
Co138 O146 2.055 . S
Co138 O149 2.039 . S
Co138 N152 2.140 . S
C139 O140 1.227 . S
C139 O149 1.265 . S
O140 C139 1.227 . S
N141 Co138 2.121 . S
N141 C143 1.375 . S
N141 C144 1.313 . S
C142 C143 1.338 . S
C142 N145 1.377 . S
C142 H162 0.930 . S
C143 N141 1.375 . S
C143 C142 1.338 . S
C143 H147 0.931 . S
C144 N141 1.313 . S
C144 N145 1.344 . S
C144 H148 0.930 . S
N145 C142 1.377 . S
N145 C144 1.344 . S
O146 Co138 2.055 . S
O146 C150 1.253 . S
H147 C143 0.931 . S
H148 C144 0.930 . S
O149 Co138 2.039 . S
O149 C139 1.265 . S
C150 O146 1.253 . S
C150 O151 1.227 . S
O151 C150 1.227 . S
N152 Co138 2.140 . S
N152 C155 1.346 . S
N152 C156 1.345 . S
C153 C154 1.387 . S
C153 C157 1.391 . S
C154 C153 1.387 . S
C154 C155 1.369 . S
C154 H163 0.929 . S
C155 N152 1.346 . S
C155 C154 1.369 . S
C155 H158 0.928 . S
C156 N152 1.345 . S
C156 C157 1.371 . S
C156 H159 0.931 . S
C157 C153 1.391 . S
C157 C156 1.371 . S
C157 H164 0.930 . S
H158 C155 0.928 . S
H159 C156 0.931 . S
H160 C136 0.930 . S
H161 C133 0.930 . S
H162 C142 0.930 . S
H163 C154 0.929 . S
H164 C157 0.930 . S
C165 C166 1.351 . S
C165 N168 1.368 . S
C165 H170 0.931 . S
C166 C165 1.351 . S
C166 N167 1.373 . S
C166 H194 0.930 . S
N167 C166 1.373 . S
N167 C169 1.340 . S
N168 C165 1.368 . S
N168 C169 1.321 . S
N168 Co171 2.135 . S
C169 N167 1.340 . S
C169 N168 1.321 . S
C169 H193 0.930 . S
H170 C165 0.931 . S
Co171 N168 2.135 . S
Co171 N174 2.121 . S
Co171 O179 2.055 . S
Co171 O182 2.039 . S
Co171 N185 2.140 . S
C172 O173 1.227 . S
C172 O182 1.265 . S
O173 C172 1.227 . S
N174 Co171 2.121 . S
N174 C176 1.375 . S
N174 C177 1.313 . S
C175 C176 1.338 . S
C175 N178 1.377 . S
C175 H195 0.930 1_554 S
C176 N174 1.375 . S
C176 C175 1.338 . S
C176 H180 0.931 1_554 S
C177 N174 1.313 . S
C177 N178 1.344 . S
C177 H181 0.930 . S
N178 C175 1.377 . S
N178 C177 1.344 . S
O179 Co171 2.055 . S
O179 C183 1.253 . S
H180 C176 0.931 1_556 S
H181 C177 0.930 . S
O182 Co171 2.039 . S
O182 C172 1.265 . S
C183 O179 1.253 . S
C183 O184 1.227 . S
O184 C183 1.227 . S
N185 Co171 2.140 . S
N185 C188 1.346 . S
N185 C189 1.345 . S
C186 C187 1.387 . S
C186 C190 1.391 . S
C187 C186 1.387 . S
C187 C188 1.369 . S
C187 H196 0.929 . S
C188 N185 1.346 . S
C188 C187 1.369 . S
C188 H191 0.928 . S
C189 N185 1.345 . S
C189 C190 1.371 . S
C189 H192 0.931 . S
C190 C186 1.391 . S
C190 C189 1.371 . S
C190 H197 0.930 . S
H191 C188 0.928 . S
H192 C189 0.931 . S
H193 C169 0.930 . S
H194 C166 0.930 . S
H195 C175 0.930 1_556 S
H196 C187 0.929 . S
H197 C190 0.930 . S
C198 C199 1.351 . S
C198 N201 1.368 . S
C198 H203 0.931 . S
C199 C198 1.351 . S
C199 N200 1.373 . S
C199 H227 0.930 . S
N200 C199 1.373 . S
N200 C202 1.340 . S
N201 C198 1.368 . S
N201 C202 1.321 . S
N201 Co204 2.135 . S
C202 N200 1.340 . S
C202 N201 1.321 . S
C202 H226 0.930 . S
H203 C198 0.931 . S
Co204 N201 2.135 . S
Co204 N207 2.121 . S
Co204 O212 2.055 . S
Co204 O215 2.039 . S
Co204 N218 2.140 . S
C205 O206 1.227 . S
C205 O215 1.265 . S
O206 C205 1.227 . S
N207 Co204 2.121 . S
N207 C209 1.375 . S
N207 C210 1.313 . S
C208 C209 1.338 . S
C208 N211 1.377 . S
C208 H228 0.930 . S
C209 N207 1.375 . S
C209 C208 1.338 . S
C209 H213 0.931 . S
C210 N207 1.313 . S
C210 N211 1.344 . S
C210 H214 0.930 . S
N211 C208 1.377 . S
N211 C210 1.344 . S
O212 Co204 2.055 . S
O212 C216 1.253 . S
H213 C209 0.931 . S
H214 C210 0.930 . S
O215 Co204 2.039 . S
O215 C205 1.265 . S
C216 O212 1.253 . S
C216 O217 1.227 . S
O217 C216 1.227 . S
N218 Co204 2.140 . S
N218 C221 1.346 . S
N218 C222 1.345 . S
C219 C220 1.387 . S
C219 C223 1.391 . S
C220 C219 1.387 . S
C220 C221 1.369 . S
C220 H229 0.929 . S
C221 N218 1.346 . S
C221 C220 1.369 . S
C221 H224 0.928 . S
C222 N218 1.345 . S
C222 C223 1.371 . S
C222 H225 0.931 . S
C223 C219 1.391 . S
C223 C222 1.371 . S
C223 H230 0.930 . S
H224 C221 0.928 . S
H225 C222 0.931 . S
H226 C202 0.930 . S
H227 C199 0.930 . S
H228 C208 0.930 . S
H229 C220 0.929 . S
H230 C223 0.930 . S
C231 C232 1.351 . S
C231 N234 1.368 . S
C231 H236 0.931 . S
C232 C231 1.351 . S
C232 N233 1.373 . S
C232 H260 0.930 . S
N233 C232 1.373 . S
N233 C235 1.340 . S
N234 C231 1.368 . S
N234 C235 1.321 . S
N234 Co237 2.135 . S
C235 N233 1.340 . S
C235 N234 1.321 . S
C235 H259 0.930 . S
H236 C231 0.931 . S
Co237 N234 2.135 . S
Co237 N240 2.121 . S
Co237 O245 2.055 . S
Co237 O248 2.039 . S
Co237 N251 2.140 . S
C238 O239 1.227 . S
C238 O248 1.265 . S
O239 C238 1.227 . S
N240 Co237 2.121 . S
N240 C242 1.375 . S
N240 C243 1.313 . S
C241 C242 1.338 . S
C241 N244 1.377 . S
C241 H261 0.930 1_556 S
C242 N240 1.375 . S
C242 C241 1.338 . S
C242 H246 0.931 1_556 S
C243 N240 1.313 . S
C243 N244 1.344 . S
C243 H247 0.930 . S
N244 C241 1.377 . S
N244 C243 1.344 . S
O245 Co237 2.055 . S
O245 C249 1.253 . S
H246 C242 0.931 1_554 S
H247 C243 0.930 . S
O248 Co237 2.039 . S
O248 C238 1.265 . S
C249 O245 1.253 . S
C249 O250 1.227 . S
O250 C249 1.227 . S
N251 Co237 2.140 . S
N251 C254 1.346 . S
N251 C255 1.345 . S
C252 C253 1.387 . S
C252 C256 1.391 . S
C253 C252 1.387 . S
C253 C254 1.369 . S
C253 H262 0.929 . S
C254 N251 1.346 . S
C254 C253 1.369 . S
C254 H257 0.928 . S
C255 N251 1.345 . S
C255 C256 1.371 . S
C255 H258 0.931 . S
C256 C252 1.391 . S
C256 C255 1.371 . S
C256 H263 0.930 . S
H257 C254 0.928 . S
H258 C255 0.931 . S
H259 C235 0.930 . S
H260 C232 0.930 . S
H261 C241 0.930 1_554 S
H262 C253 0.929 . S
H263 C256 0.930 . S
H264 C272 0.929 . S
H265 C274 0.930 1_545 S
H266 C276 0.930 . S
H267 C279 0.929 . S
H268 C282 0.930 . S
H269 C284 0.960 . S
H270 C284 0.960 . S
H271 C284 0.960 . S
C272 H264 0.929 . S
C272 C273 1.383 . S
C272 C274 1.384 . S
C273 C272 1.383 . S
C273 C279 1.406 . S
C274 H265 0.930 1_565 S
C274 C272 1.384 . S
C274 C275 1.372 . S
C275 C274 1.372 . S
C275 C276 1.400 . S
C275 C280 1.490 . S
C276 H266 0.930 . S
C276 C275 1.400 . S
C276 C279 1.386 . S
H277 C293 0.930 . S
H278 C294 0.931 . S
C279 H267 0.929 . S
C279 C273 1.406 . S
C279 C276 1.386 . S
C280 C275 1.490 . S
C280 C282 1.395 1_565 S
C280 C283 1.403 . S
H281 C287 0.930 . S
C282 H268 0.930 . S
C282 C280 1.395 1_545 S
C282 C285 1.403 . S
C283 C280 1.403 . S
C283 C284 1.524 . S
C283 C287 1.400 . S
C284 H269 0.960 . S
C284 H270 0.960 . S
C284 H271 0.960 . S
C284 C283 1.524 . S
C285 C282 1.403 . S
C285 C286 1.392 . S
C285 C289 1.495 . S
C286 C285 1.392 . S
C286 C287 1.385 1_545 S
C286 C288 1.478 . S
C287 H281 0.930 . S
C287 C283 1.400 . S
C287 C286 1.385 1_565 S
C288 C286 1.478 . S
C288 C290 1.381 . S
C288 C294 1.383 . S
C289 C285 1.495 . S
C289 H295 0.959 . S
C289 H296 0.961 . S
C289 H297 0.960 . S
C290 C288 1.381 . S
C290 C291 1.394 . S
C290 H298 0.930 . S
C291 C290 1.394 . S
C291 C292 1.383 . S
C291 H299 0.929 . S
C292 C291 1.383 . S
C292 C293 1.377 . S
C293 H277 0.930 . S
C293 C292 1.377 . S
C293 C294 1.379 . S
C294 H278 0.931 . S
C294 C288 1.383 . S
C294 C293 1.379 . S
H295 C289 0.959 . S
H296 C289 0.961 . S
H297 C289 0.960 . S
H298 C290 0.930 . S
H299 C291 0.929 . S
H300 C308 0.929 . S
H301 C310 0.930 . S
H302 C312 0.930 . S
H303 C315 0.929 . S
H304 C318 0.930 . S
H305 C320 0.960 . S
H306 C320 0.960 . S
H307 C320 0.960 . S
C308 H300 0.929 . S
C308 C309 1.377 . S
C308 C310 1.384 . S
C309 C308 1.377 . S
C309 C315 1.390 . S
C310 H301 0.930 . S
C310 C308 1.384 . S
C310 C311 1.372 . S
C311 C310 1.372 . S
C311 C312 1.400 . S
C311 C316 1.490 . S
C312 H302 0.930 . S
C312 C311 1.400 . S
C312 C315 1.386 . S
H313 C329 0.930 . S
H314 C330 0.931 . S
C315 H303 0.929 . S
C315 C309 1.390 . S
C315 C312 1.386 . S
C316 C311 1.490 . S
C316 C318 1.395 1_545 S
C316 C319 1.403 . S
H317 C323 0.930 . S
C318 H304 0.930 . S
C318 C316 1.395 1_565 S
C318 C321 1.403 . S
C319 C316 1.403 . S
C319 C320 1.524 . S
C319 C323 1.400 . S
C320 H305 0.960 . S
C320 H306 0.960 . S
C320 H307 0.960 . S
C320 C319 1.524 . S
C321 C318 1.403 . S
C321 C322 1.392 . S
C321 C325 1.495 . S
C322 C321 1.392 . S
C322 C323 1.385 1_565 S
C322 C324 1.478 . S
C323 H317 0.930 . S
C323 C319 1.400 . S
C323 C322 1.385 1_545 S
C324 C322 1.478 . S
C324 C326 1.381 . S
C324 C330 1.383 . S
C325 C321 1.495 . S
C325 H331 0.959 . S
C325 H332 0.961 . S
C325 H333 0.960 . S
C326 C324 1.381 . S
C326 C327 1.394 . S
C326 H334 0.930 . S
C327 C326 1.394 . S
C327 C328 1.383 . S
C327 H335 0.929 . S
C328 C327 1.383 . S
C328 C329 1.377 . S
C329 H313 0.930 . S
C329 C328 1.377 . S
C329 C330 1.379 . S
C330 H314 0.931 . S
C330 C324 1.383 . S
C330 C329 1.379 . S
H331 C325 0.959 . S
H332 C325 0.961 . S
H333 C325 0.960 . S
H334 C326 0.930 . S
H335 C327 0.929 . S
H336 C344 0.929 . S
H337 C346 0.930 . S
H338 C348 0.930 . S
H339 C351 0.929 . S
H340 C354 0.930 . S
H341 C356 0.960 . S
H342 C356 0.960 . S
H343 C356 0.960 . S
C344 H336 0.929 . S
C344 C345 1.377 . S
C344 C346 1.384 . S
C345 C344 1.377 . S
C345 C351 1.390 . S
C346 H337 0.930 . S
C346 C344 1.384 . S
C346 C347 1.372 . S
C347 C346 1.372 . S
C347 C348 1.400 . S
C347 C352 1.490 . S
C348 H338 0.930 . S
C348 C347 1.400 . S
C348 C351 1.386 . S
H349 C365 0.930 . S
H350 C366 0.931 . S
C351 H339 0.929 . S
C351 C345 1.390 . S
C351 C348 1.386 . S
C352 C347 1.490 . S
C352 C354 1.395 1_565 S
C352 C355 1.403 . S
H353 C359 0.930 . S
C354 H340 0.930 . S
C354 C352 1.395 1_545 S
C354 C357 1.403 . S
C355 C352 1.403 . S
C355 C356 1.524 . S
C355 C359 1.400 . S
C356 H341 0.960 . S
C356 H342 0.960 . S
C356 H343 0.960 . S
C356 C355 1.524 . S
C357 C354 1.403 . S
C357 C358 1.392 . S
C357 C361 1.495 . S
C358 C357 1.392 . S
C358 C359 1.385 1_545 S
C358 C360 1.478 . S
C359 H353 0.930 . S
C359 C355 1.400 . S
C359 C358 1.385 1_565 S
C360 C358 1.478 . S
C360 C362 1.381 . S
C360 C366 1.383 . S
C361 C357 1.495 . S
C361 H367 0.959 . S
C361 H368 0.961 . S
C361 H369 0.960 . S
C362 C360 1.381 . S
C362 C363 1.394 1_556 S
C362 H370 0.930 . S
C363 C362 1.394 1_554 S
C363 C364 1.383 1_554 S
C363 H371 0.929 . S
C364 C363 1.383 1_556 S
C364 C365 1.376 . S
C365 H349 0.930 . S
C365 C364 1.376 . S
C365 C366 1.379 . S
C366 H350 0.931 . S
C366 C360 1.383 . S
C366 C365 1.379 . S
H367 C361 0.959 . S
H368 C361 0.961 . S
H369 C361 0.960 . S
H370 C362 0.930 . S
H371 C363 0.929 . S
H372 C380 0.929 . S
H373 C382 0.930 1_545 S
H374 C384 0.930 . S
H375 C387 0.929 . S
H376 C390 0.930 . S
H377 C392 0.960 . S
H378 C392 0.960 . S
H379 C392 0.960 . S
C380 H372 0.929 . S
C380 C381 1.377 . S
C380 C382 1.384 . S
C381 C380 1.377 . S
C381 C387 1.390 . S
C382 H373 0.930 1_565 S
C382 C380 1.384 . S
C382 C383 1.372 . S
C383 C382 1.372 . S
C383 C384 1.400 . S
C383 C388 1.490 . S
C384 H374 0.930 . S
C384 C383 1.400 . S
C384 C387 1.386 . S
H385 C401 0.930 . S
H386 C402 0.931 1_565 S
C387 H375 0.929 . S
C387 C381 1.390 . S
C387 C384 1.386 . S
C388 C383 1.490 . S
C388 C390 1.395 1_565 S
C388 C391 1.403 . S
H389 C395 0.930 . S
C390 H376 0.930 . S
C390 C388 1.395 1_545 S
C390 C393 1.403 . S
C391 C388 1.403 . S
C391 C392 1.524 . S
C391 C395 1.400 . S
C392 H377 0.960 . S
C392 H378 0.960 . S
C392 H379 0.960 . S
C392 C391 1.524 . S
C393 C390 1.403 . S
C393 C394 1.392 . S
C393 C397 1.495 . S
C394 C393 1.392 . S
C394 C395 1.385 1_545 S
C394 C396 1.478 . S
C395 H389 0.930 . S
C395 C391 1.400 . S
C395 C394 1.385 1_565 S
C396 C394 1.478 . S
C396 C398 1.381 . S
C396 C402 1.383 . S
C397 C393 1.495 . S
C397 H403 0.959 . S
C397 H404 0.961 . S
C397 H405 0.960 . S
C398 C396 1.381 . S
C398 C399 1.394 . S
C398 H406 0.930 . S
C399 C398 1.394 . S
C399 C400 1.383 . S
C399 H407 0.929 . S
C400 C399 1.383 . S
C400 C401 1.377 . S
C401 H385 0.930 . S
C401 C400 1.377 . S
C401 C402 1.379 . S
C402 H386 0.931 1_545 S
C402 C396 1.383 . S
C402 C401 1.379 . S
H403 C397 0.959 . S
H404 C397 0.961 . S
H405 C397 0.960 . S
H406 C398 0.930 . S
H407 C399 0.929 . S
H408 C416 0.929 . S
H409 C418 0.930 . S
H410 C420 0.930 . S
H411 C423 0.929 . S
H412 C426 0.930 . S
H413 C428 0.960 . S
H414 C428 0.960 . S
H415 C428 0.960 . S
C416 H408 0.929 . S
C416 C417 1.377 . S
C416 C418 1.384 . S
C417 C416 1.377 . S
C417 C423 1.390 . S
C418 H409 0.930 . S
C418 C416 1.384 . S
C418 C419 1.372 . S
C419 C418 1.372 . S
C419 C420 1.400 . S
C419 C424 1.490 . S
C420 H410 0.930 . S
C420 C419 1.400 . S
C420 C423 1.386 . S
H421 C437 0.930 . S
H422 C438 0.931 . S
C423 H411 0.929 . S
C423 C417 1.390 . S
C423 C420 1.386 . S
C424 C419 1.490 . S
C424 C426 1.395 . S
C424 C427 1.403 . S
H425 C431 0.930 . S
C426 H412 0.930 . S
C426 C424 1.395 . S
C426 C429 1.403 . S
C427 C424 1.403 . S
C427 C428 1.524 . S
C427 C431 1.400 . S
C428 H413 0.960 . S
C428 H414 0.960 . S
C428 H415 0.960 . S
C428 C427 1.524 . S
C429 C426 1.403 . S
C429 C430 1.392 . S
C429 C433 1.495 . S
C430 C429 1.392 . S
C430 C431 1.385 . S
C430 C432 1.478 . S
C431 H425 0.930 . S
C431 C427 1.400 . S
C431 C430 1.385 . S
C432 C430 1.478 . S
C432 C434 1.381 . S
C432 C438 1.383 . S
C433 C429 1.495 . S
C433 H439 0.959 . S
C433 H440 0.961 . S
C433 H441 0.960 . S
C434 C432 1.381 . S
C434 C435 1.394 1_554 S
C434 H442 0.930 . S
C435 C434 1.394 1_556 S
C435 C436 1.385 1_556 S
C435 H443 0.929 . S
C436 C435 1.385 1_554 S
C436 C437 1.385 . S
C437 H421 0.930 . S
C437 C436 1.385 . S
C437 C438 1.379 . S
C438 H422 0.931 . S
C438 C432 1.383 . S
C438 C437 1.379 . S
H439 C433 0.959 . S
H440 C433 0.961 . S
H441 C433 0.960 . S
H442 C434 0.930 . S
H443 C435 0.929 . S
H444 C452 0.929 . S
H445 C454 0.930 . S
H446 C456 0.930 . S
H447 C459 0.929 . S
H448 C462 0.930 . S
H449 C464 0.960 . S
H450 C464 0.960 . S
H451 C464 0.960 . S
C452 H444 0.929 . S
C452 C453 1.377 . S
C452 C454 1.384 . S
C453 C452 1.377 . S
C453 C459 1.390 . S
C454 H445 0.930 . S
C454 C452 1.384 . S
C454 C455 1.372 . S
C455 C454 1.372 . S
C455 C456 1.400 . S
C455 C460 1.490 . S
C456 H446 0.930 . S
C456 C455 1.400 . S
C456 C459 1.386 . S
H457 C473 0.930 . S
H458 C474 0.931 . S
C459 H447 0.929 . S
C459 C453 1.390 . S
C459 C456 1.386 . S
C460 C455 1.490 . S
C460 C462 1.395 . S
C460 C463 1.403 . S
H461 C467 0.930 . S
C462 H448 0.930 . S
C462 C460 1.395 . S
C462 C465 1.403 . S
C463 C460 1.403 . S
C463 C464 1.524 . S
C463 C467 1.400 . S
C464 H449 0.960 . S
C464 H450 0.960 . S
C464 H451 0.960 . S
C464 C463 1.524 . S
C465 C462 1.403 . S
C465 C466 1.392 . S
C465 C469 1.495 . S
C466 C465 1.392 . S
C466 C467 1.385 . S
C466 C468 1.478 . S
C467 H461 0.930 . S
C467 C463 1.400 . S
C467 C466 1.385 . S
C468 C466 1.478 . S
C468 C470 1.381 . S
C468 C474 1.383 . S
C469 C465 1.495 . S
C469 H475 0.959 . S
C469 H476 0.961 . S
C469 H477 0.960 . S
C470 C468 1.381 . S
C470 C471 1.394 . S
C470 H478 0.930 . S
C471 C470 1.394 . S
C471 C472 1.383 . S
C471 H479 0.929 . S
C472 C471 1.383 . S
C472 C473 1.377 . S
C473 H457 0.930 . S
C473 C472 1.377 . S
C473 C474 1.379 . S
C474 H458 0.931 . S
C474 C468 1.383 . S
C474 C473 1.379 . S
H475 C469 0.959 . S
H476 C469 0.961 . S
H477 C469 0.960 . S
H478 C470 0.930 . S
H479 C471 0.929 . S
H480 C488 0.945 . S
H481 C490 0.930 . S
H482 C492 0.930 . S
H483 C495 0.929 . S
H484 C498 0.930 . S
H485 C500 0.960 . S
H486 C500 0.960 . S
H487 C500 0.960 . S
C488 H480 0.945 . S
C488 C489 1.392 1_554 S
C488 C490 1.358 1_554 S
C489 C488 1.392 1_556 S
C489 C495 1.394 . S
C490 H481 0.930 . S
C490 C488 1.358 1_556 S
C490 C491 1.372 . S
C491 C490 1.372 . S
C491 C492 1.400 . S
C491 C496 1.490 . S
C492 H482 0.930 . S
C492 C491 1.400 . S
C492 C495 1.386 . S
H493 C509 0.930 . S
H494 C510 0.931 . S
C495 H483 0.929 . S
C495 C489 1.394 . S
C495 C492 1.386 . S
C496 C491 1.490 . S
C496 C498 1.395 . S
C496 C499 1.403 . S
H497 C503 0.930 . S
C498 H484 0.930 . S
C498 C496 1.395 . S
C498 C501 1.403 . S
C499 C496 1.403 . S
C499 C500 1.524 . S
C499 C503 1.400 . S
C500 H485 0.960 . S
C500 H486 0.960 . S
C500 H487 0.960 . S
C500 C499 1.524 . S
C501 C498 1.403 . S
C501 C502 1.392 . S
C501 C505 1.495 . S
C502 C501 1.392 . S
C502 C503 1.385 . S
C502 C504 1.478 . S
C503 H497 0.930 . S
C503 C499 1.400 . S
C503 C502 1.385 . S
C504 C502 1.478 . S
C504 C506 1.381 . S
C504 C510 1.383 . S
C505 C501 1.495 . S
C505 H511 0.959 . S
C505 H512 0.961 . S
C505 H513 0.960 . S
C506 C504 1.381 . S
C506 C507 1.394 . S
C506 H514 0.930 . S
C507 C506 1.394 . S
C507 C508 1.383 . S
C507 H515 0.929 . S
C508 C507 1.383 . S
C508 C509 1.377 . S
C509 H493 0.930 . S
C509 C508 1.377 . S
C509 C510 1.379 . S
C510 H494 0.931 . S
C510 C504 1.383 . S
C510 C509 1.379 . S
H511 C505 0.959 . S
H512 C505 0.961 . S
H513 C505 0.960 . S
H514 C506 0.930 . S
H515 C507 0.929 . S
H516 C524 0.929 . S
H517 C526 0.930 . S
H518 C528 0.930 . S
H519 C531 0.929 . S
H520 C534 0.930 . S
H521 C536 0.960 . S
H522 C536 0.960 . S
H523 C536 0.960 . S
C524 H516 0.929 . S
C524 C525 1.377 . S
C524 C526 1.384 . S
C525 C524 1.377 . S
C525 C531 1.390 . S
C526 H517 0.930 . S
C526 C524 1.384 . S
C526 C527 1.372 . S
C527 C526 1.372 . S
C527 C528 1.400 . S
C527 C532 1.490 . S
C528 H518 0.930 . S
C528 C527 1.400 . S
C528 C531 1.386 . S
H529 C545 0.930 . S
H530 C546 0.931 . S
C531 H519 0.929 . S
C531 C525 1.390 . S
C531 C528 1.386 . S
C532 C527 1.490 . S
C532 C534 1.395 . S
C532 C535 1.403 . S
H533 C539 0.930 . S
C534 H520 0.930 . S
C534 C532 1.395 . S
C534 C537 1.403 . S
C535 C532 1.403 . S
C535 C536 1.524 . S
C535 C539 1.400 . S
C536 H521 0.960 . S
C536 H522 0.960 . S
C536 H523 0.960 . S
C536 C535 1.524 . S
C537 C534 1.403 . S
C537 C538 1.392 . S
C537 C541 1.495 . S
C538 C537 1.392 . S
C538 C539 1.385 . S
C538 C540 1.478 . S
C539 H533 0.930 . S
C539 C535 1.400 . S
C539 C538 1.385 . S
C540 C538 1.478 . S
C540 C542 1.381 . S
C540 C546 1.383 . S
C541 C537 1.495 . S
C541 H547 0.959 . S
C541 H548 0.961 . S
C541 H549 0.960 . S
C542 C540 1.381 . S
C542 C543 1.394 . S
C542 H550 0.930 . S
C543 C542 1.394 . S
C543 C544 1.383 . S
C543 H551 0.929 . S
C544 C543 1.383 . S
C544 C545 1.377 . S
C545 H529 0.930 . S
C545 C544 1.377 . S
C545 C546 1.379 . S
C546 H530 0.931 . S
C546 C540 1.383 . S
C546 C545 1.379 . S
H547 C541 0.959 . S
H548 C541 0.961 . S
H549 C541 0.960 . S
H550 C542 0.930 . S
H551 C543 0.929 . S
H552 C560 0.929 . S
H553 C562 0.930 1_545 S
H554 C564 0.930 . S
H555 C567 0.929 . S
H556 C570 0.930 . S
H557 C572 0.960 . S
H558 C572 0.960 . S
H559 C572 0.960 . S
C560 H552 0.929 . S
C560 C561 1.377 . S
C560 C562 1.384 . S
C561 C560 1.377 . S
C561 C567 1.390 . S
C562 H553 0.930 1_565 S
C562 C560 1.384 . S
C562 C563 1.372 . S
C563 C562 1.372 . S
C563 C564 1.400 . S
C563 C568 1.490 . S
C564 H554 0.930 . S
C564 C563 1.400 . S
C564 C567 1.386 . S
H565 C581 0.930 . S
H566 C582 0.931 1_565 S
C567 H555 0.929 . S
C567 C561 1.390 . S
C567 C564 1.386 . S
C568 C563 1.490 . S
C568 C570 1.395 1_565 S
C568 C571 1.403 . S
H569 C575 0.930 . S
C570 H556 0.930 . S
C570 C568 1.395 1_545 S
C570 C573 1.403 . S
C571 C568 1.403 . S
C571 C572 1.524 . S
C571 C575 1.400 . S
C572 H557 0.960 . S
C572 H558 0.960 . S
C572 H559 0.960 . S
C572 C571 1.524 . S
C573 C570 1.403 . S
C573 C574 1.392 . S
C573 C577 1.495 . S
C574 C573 1.392 . S
C574 C575 1.385 1_545 S
C574 C576 1.478 . S
C575 H569 0.930 . S
C575 C571 1.400 . S
C575 C574 1.385 1_565 S
C576 C574 1.478 . S
C576 C578 1.381 . S
C576 C582 1.383 . S
C577 C573 1.495 . S
C577 H583 0.959 . S
C577 H584 0.961 . S
C577 H585 0.960 . S
C578 C576 1.381 . S
C578 C579 1.394 . S
C578 H586 0.930 . S
C579 C578 1.394 . S
C579 C580 1.383 . S
C579 H587 0.929 . S
C580 C579 1.383 . S
C580 C581 1.377 . S
C581 H565 0.930 . S
C581 C580 1.377 . S
C581 C582 1.379 . S
C582 H566 0.931 1_545 S
C582 C576 1.383 . S
C582 C581 1.379 . S
H583 C577 0.959 . S
H584 C577 0.961 . S
H585 C577 0.960 . S
H586 C578 0.930 . S
H587 C579 0.929 . S
H588 C596 0.929 . S
H589 C598 0.930 . S
H590 C600 0.930 . S
H591 C603 0.929 . S
H592 C606 0.930 . S
H593 C608 0.960 . S
H594 C608 0.960 1_556 S
H595 C608 0.960 . S
C596 H588 0.929 . S
C596 C597 1.377 . S
C596 C598 1.384 . S
C597 C596 1.377 . S
C597 C603 1.390 1_556 S
C598 H589 0.930 . S
C598 C596 1.384 . S
C598 C599 1.372 . S
C599 C598 1.372 . S
C599 C600 1.400 1_556 S
C599 C604 1.490 . S
C600 H590 0.930 . S
C600 C599 1.400 1_554 S
C600 C603 1.386 . S
H601 C617 0.930 . S
H602 C618 0.931 . S
C603 H591 0.929 . S
C603 C597 1.390 1_554 S
C603 C600 1.386 . S
C604 C599 1.490 . S
C604 C606 1.395 1_565 S
C604 C607 1.401 . S
H605 C611 0.930 . S
C606 H592 0.930 . S
C606 C604 1.395 1_545 S
C606 C609 1.403 . S
C607 C604 1.401 . S
C607 C608 1.523 1_556 S
C607 C611 1.402 1_556 S
C608 H593 0.960 . S
C608 H594 0.960 1_554 S
C608 H595 0.960 . S
C608 C607 1.523 1_554 S
C609 C606 1.403 . S
C609 C610 1.392 1_556 S
C609 C613 1.495 . S
C610 C609 1.392 1_554 S
C610 C611 1.385 1_545 S
C610 C612 1.478 . S
C611 H605 0.930 . S
C611 C607 1.402 1_554 S
C611 C610 1.385 1_565 S
C612 C610 1.478 . S
C612 C614 1.381 1_554 S
C612 C618 1.383 . S
C613 C609 1.495 . S
C613 H619 0.959 . S
C613 H620 0.961 1_556 S
C613 H621 0.960 . S
C614 C612 1.381 1_556 S
C614 C615 1.394 . S
C614 H622 0.930 . S
C615 C614 1.394 . S
C615 C616 1.383 1_556 S
C615 H623 0.929 . S
C616 C615 1.383 1_554 S
C616 C617 1.377 . S
C617 H601 0.930 . S
C617 C616 1.377 . S
C617 C618 1.379 . S
C618 H602 0.931 . S
C618 C612 1.383 . S
C618 C617 1.379 . S
H619 C613 0.959 . S
H620 C613 0.961 1_554 S
H621 C613 0.960 . S
H622 C614 0.930 . S
H623 C615 0.929 . S
H624 C632 0.929 . S
H625 C634 0.930 . S
H626 C636 0.930 . S
H627 C639 0.929 . S
H628 C642 0.930 . S
H629 C644 0.960 . S
H630 C644 0.960 1_655 S
H631 C644 0.960 1_655 S
C632 H624 0.929 . S
C632 C633 1.377 . S
C632 C634 1.384 . S
C633 C632 1.377 . S
C633 C639 1.390 . S
C634 H625 0.930 . S
C634 C632 1.384 . S
C634 C635 1.372 . S
C635 C634 1.372 . S
C635 C636 1.400 . S
C635 C640 1.490 . S
C636 H626 0.930 . S
C636 C635 1.400 . S
C636 C639 1.386 . S
H637 C653 0.930 . S
H638 C654 0.931 . S
C639 H627 0.929 . S
C639 C633 1.390 . S
C639 C636 1.386 . S
C640 C635 1.490 . S
C640 C642 1.395 . S
C640 C643 1.403 . S
H641 C647 0.930 . S
C642 H628 0.930 . S
C642 C640 1.395 . S
C642 C645 1.403 . S
C643 C640 1.403 . S
C643 C644 1.524 1_655 S
C643 C647 1.400 1_655 S
C644 H629 0.960 . S
C644 H630 0.960 1_455 S
C644 H631 0.960 1_455 S
C644 C643 1.524 1_455 S
C645 C642 1.403 . S
C645 C646 1.392 1_655 S
C645 C649 1.495 . S
C646 C645 1.392 1_455 S
C646 C647 1.385 . S
C646 C648 1.478 . S
C647 H641 0.930 . S
C647 C643 1.400 1_455 S
C647 C646 1.385 . S
C648 C646 1.478 . S
C648 C650 1.381 . S
C648 C654 1.383 . S
C649 C645 1.495 . S
C649 H655 0.959 . S
C649 H656 0.961 1_655 S
C649 H657 0.960 1_655 S
C650 C648 1.381 . S
C650 C651 1.394 . S
C650 H658 0.930 . S
C651 C650 1.394 . S
C651 C652 1.383 . S
C651 H659 0.929 . S
C652 C651 1.383 . S
C652 C653 1.377 . S
C653 H637 0.930 . S
C653 C652 1.377 . S
C653 C654 1.379 . S
C654 H638 0.931 . S
C654 C648 1.383 . S
C654 C653 1.379 . S
H655 C649 0.959 . S
H656 C649 0.961 1_455 S
H657 C649 0.960 1_455 S
H658 C650 0.930 . S
H659 C651 0.929 . S
H660 C668 0.929 . S
H661 C670 0.930 . S
H662 C672 0.930 1_556 S
H663 C675 0.929 . S
H664 C678 0.930 . S
H665 C680 0.960 1_655 S
H666 C680 0.960 . S
H667 C680 0.960 . S
C668 H660 0.929 . S
C668 C669 1.377 . S
C668 C670 1.384 . S
C669 C668 1.377 . S
C669 C675 1.390 . S
C670 H661 0.930 . S
C670 C668 1.384 . S
C670 C671 1.372 . S
C671 C670 1.372 . S
C671 C672 1.400 . S
C671 C676 1.490 . S
C672 H662 0.930 1_554 S
C672 C671 1.400 . S
C672 C675 1.386 . S
H673 C689 0.930 . S
H674 C690 0.931 . S
C675 H663 0.929 . S
C675 C669 1.390 . S
C675 C672 1.386 . S
C676 C671 1.490 . S
C676 C678 1.395 . S
C676 C679 1.403 1_554 S
H677 C683 0.930 . S
C678 H664 0.930 . S
C678 C676 1.395 . S
C678 C681 1.403 1_455 S
C679 C676 1.403 1_556 S
C679 C680 1.524 . S
C679 C683 1.400 1_455 S
C680 H665 0.960 1_455 S
C680 H666 0.960 . S
C680 H667 0.960 . S
C680 C679 1.524 . S
C681 C678 1.403 1_655 S
C681 C682 1.397 . S
C681 C685 1.495 . S
C682 C681 1.397 . S
C682 C683 1.379 1_554 S
C682 C684 1.479 1_554 S
C683 H677 0.930 . S
C683 C679 1.400 1_655 S
C683 C682 1.379 1_556 S
C684 C682 1.479 1_556 S
C684 C686 1.381 . S
C684 C690 1.383 . S
C685 C681 1.495 . S
C685 H691 0.959 1_655 S
C685 H692 0.961 . S
C685 H693 0.960 . S
C686 C684 1.381 . S
C686 C687 1.394 . S
C686 H694 0.930 1_556 S
C687 C686 1.394 . S
C687 C688 1.383 . S
C687 H695 0.929 . S
C688 C687 1.383 . S
C688 C689 1.377 . S
C689 H673 0.930 . S
C689 C688 1.377 . S
C689 C690 1.379 . S
C690 H674 0.931 . S
C690 C684 1.383 . S
C690 C689 1.379 . S
H691 C685 0.959 1_455 S
H692 C685 0.961 . S
H693 C685 0.960 . S
H694 C686 0.930 1_554 S
H695 C687 0.929 . S
H696 C704 0.929 . S
H697 C706 0.930 . S
H698 C708 0.930 . S
H699 C711 0.929 . S
H700 C714 0.930 . S
H701 C716 0.960 . S
H702 C716 0.960 . S
H703 C716 0.960 . S
C704 H696 0.929 . S
C704 C705 1.377 . S
C704 C706 1.384 . S
C705 C704 1.377 . S
C705 C711 1.390 . S
C706 H697 0.930 . S
C706 C704 1.384 . S
C706 C707 1.372 . S
C707 C706 1.372 . S
C707 C708 1.400 . S
C707 C712 1.490 . S
C708 H698 0.930 . S
C708 C707 1.400 . S
C708 C711 1.386 . S
H709 C725 0.930 . S
H710 C726 0.931 . S
C711 H699 0.929 . S
C711 C705 1.390 . S
C711 C708 1.386 . S
C712 C707 1.490 . S
C712 C714 1.395 . S
C712 C715 1.403 . S
H713 C719 0.930 . S
C714 H700 0.930 . S
C714 C712 1.395 . S
C714 C717 1.403 1_455 S
C715 C712 1.403 . S
C715 C716 1.524 . S
C715 C719 1.400 1_455 S
C716 H701 0.960 . S
C716 H702 0.960 . S
C716 H703 0.960 . S
C716 C715 1.524 . S
C717 C714 1.403 1_655 S
C717 C718 1.392 . S
C717 C721 1.495 . S
C718 C717 1.392 . S
C718 C719 1.385 . S
C718 C720 1.478 . S
C719 H713 0.930 . S
C719 C715 1.400 1_655 S
C719 C718 1.385 . S
C720 C718 1.478 . S
C720 C722 1.381 . S
C720 C726 1.383 . S
C721 C717 1.495 . S
C721 H727 0.959 . S
C721 H728 0.961 . S
C721 H729 0.960 . S
C722 C720 1.381 . S
C722 C723 1.394 . S
C722 H730 0.930 . S
C723 C722 1.394 . S
C723 C724 1.383 . S
C723 H731 0.929 . S
C724 C723 1.383 . S
C724 C725 1.377 . S
C725 H709 0.930 . S
C725 C724 1.377 . S
C725 C726 1.379 . S
C726 H710 0.931 . S
C726 C720 1.383 . S
C726 C725 1.379 . S
H727 C721 0.959 . S
H728 C721 0.961 . S
H729 C721 0.960 . S
H730 C722 0.930 . S
H731 C723 0.929 . S
H732 C740 0.929 . S
H733 C742 0.930 . S
H734 C744 0.930 . S
H735 C747 0.929 . S
H736 C750 0.930 . S
H737 C752 0.960 . S
H738 C752 0.960 . S
H739 C752 0.960 . S
C740 H732 0.929 . S
C740 C741 1.377 . S
C740 C742 1.384 . S
C741 C740 1.377 . S
C741 C747 1.390 . S
C742 H733 0.930 . S
C742 C740 1.384 . S
C742 C743 1.372 . S
C743 C742 1.372 . S
C743 C744 1.400 . S
C743 C748 1.490 . S
C744 H734 0.930 . S
C744 C743 1.400 . S
C744 C747 1.386 . S
H745 C761 0.930 . S
H746 C762 0.931 . S
C747 H735 0.929 . S
C747 C741 1.390 . S
C747 C744 1.386 . S
C748 C743 1.490 . S
C748 C750 1.395 . S
C748 C751 1.403 . S
H749 C755 0.930 . S
C750 H736 0.930 . S
C750 C748 1.395 . S
C750 C753 1.403 1_455 S
C751 C748 1.403 . S
C751 C752 1.524 . S
C751 C755 1.400 1_455 S
C752 H737 0.960 . S
C752 H738 0.960 . S
C752 H739 0.960 . S
C752 C751 1.524 . S
C753 C750 1.403 1_655 S
C753 C754 1.392 . S
C753 C757 1.495 . S
C754 C753 1.392 . S
C754 C755 1.385 . S
C754 C756 1.478 . S
C755 H749 0.930 . S
C755 C751 1.400 1_655 S
C755 C754 1.385 . S
C756 C754 1.478 . S
C756 C758 1.381 . S
C756 C762 1.383 . S
C757 C753 1.495 . S
C757 H763 0.959 . S
C757 H764 0.961 . S
C757 H765 0.960 . S
C758 C756 1.381 . S
C758 C759 1.394 . S
C758 H766 0.930 . S
C759 C758 1.394 . S
C759 C760 1.383 . S
C759 H767 0.929 . S
C760 C759 1.383 . S
C760 C761 1.377 . S
C761 H745 0.930 . S
C761 C760 1.377 . S
C761 C762 1.379 . S
C762 H746 0.931 . S
C762 C756 1.383 . S
C762 C761 1.379 . S
H763 C757 0.959 . S
H764 C757 0.961 . S
H765 C757 0.960 . S
H766 C758 0.930 . S
H767 C759 0.929 . S
H768 C776 0.929 . S
H769 C778 0.930 . S
H770 C780 0.930 . S
H771 C783 0.929 . S
H772 C786 0.930 . S
H773 C788 0.960 . S
H774 C788 0.960 . S
H775 C788 0.960 . S
C776 H768 0.929 . S
C776 C777 1.377 . S
C776 C778 1.384 . S
C777 C776 1.377 . S
C777 C783 1.390 . S
C778 H769 0.930 . S
C778 C776 1.384 . S
C778 C779 1.372 . S
C779 C778 1.372 . S
C779 C780 1.400 . S
C779 C784 1.490 . S
C780 H770 0.930 . S
C780 C779 1.400 . S
C780 C783 1.386 . S
H781 C797 0.930 . S
H782 C798 0.931 . S
C783 H771 0.929 . S
C783 C777 1.390 . S
C783 C780 1.386 . S
C784 C779 1.490 . S
C784 C786 1.395 . S
C784 C787 1.403 . S
H785 C791 0.930 . S
C786 H772 0.930 . S
C786 C784 1.395 . S
C786 C789 1.403 . S
C787 C784 1.403 . S
C787 C788 1.524 . S
C787 C791 1.400 . S
C788 H773 0.960 . S
C788 H774 0.960 . S
C788 H775 0.960 . S
C788 C787 1.524 . S
C789 C786 1.403 . S
C789 C790 1.392 . S
C789 C793 1.495 . S
C790 C789 1.392 . S
C790 C791 1.385 . S
C790 C792 1.478 . S
C791 H785 0.930 . S
C791 C787 1.400 . S
C791 C790 1.385 . S
C792 C790 1.478 . S
C792 C794 1.381 . S
C792 C798 1.383 . S
C793 C789 1.495 . S
C793 H799 0.959 . S
C793 H800 0.961 . S
C793 H801 0.960 . S
C794 C792 1.381 . S
C794 C795 1.394 . S
C794 H802 0.930 . S
C795 C794 1.394 . S
C795 C796 1.383 . S
C795 H803 0.929 . S
C796 C795 1.383 . S
C796 C797 1.377 . S
C797 H781 0.930 . S
C797 C796 1.377 . S
C797 C798 1.379 . S
C798 H782 0.931 . S
C798 C792 1.383 . S
C798 C797 1.379 . S
H799 C793 0.959 . S
H800 C793 0.961 . S
H801 C793 0.960 . S
H802 C794 0.930 . S
H803 C795 0.929 . S
H804 C812 0.929 . S
H805 C814 0.930 . S
H806 C816 0.930 . S
H807 C819 0.929 . S
H808 C822 0.930 . S
H809 C824 0.960 . S
H810 C824 0.960 . S
H811 C824 0.960 . S
C812 H804 0.929 . S
C812 C813 1.377 . S
C812 C814 1.384 . S
C813 C812 1.377 . S
C813 C819 1.390 . S
C814 H805 0.930 . S
C814 C812 1.384 . S
C814 C815 1.372 . S
C815 C814 1.372 . S
C815 C816 1.400 . S
C815 C820 1.490 . S
C816 H806 0.930 . S
C816 C815 1.400 . S
C816 C819 1.386 . S
H817 C833 0.930 . S
H818 C834 0.931 . S
C819 H807 0.929 . S
C819 C813 1.390 . S
C819 C816 1.386 . S
C820 C815 1.490 . S
C820 C822 1.395 . S
C820 C823 1.403 . S
H821 C827 0.930 . S
C822 H808 0.930 . S
C822 C820 1.395 . S
C822 C825 1.403 . S
C823 C820 1.403 . S
C823 C824 1.524 . S
C823 C827 1.400 . S
C824 H809 0.960 . S
C824 H810 0.960 . S
C824 H811 0.960 . S
C824 C823 1.524 . S
C825 C822 1.403 . S
C825 C826 1.392 . S
C825 C829 1.495 . S
C826 C825 1.392 . S
C826 C827 1.385 . S
C826 C828 1.478 . S
C827 H821 0.930 . S
C827 C823 1.400 . S
C827 C826 1.385 . S
C828 C826 1.478 . S
C828 C830 1.381 . S
C828 C834 1.383 . S
C829 C825 1.495 . S
C829 H835 0.959 . S
C829 H836 0.961 . S
C829 H837 0.960 . S
C830 C828 1.381 . S
C830 C831 1.394 . S
C830 H838 0.930 . S
C831 C830 1.394 . S
C831 C832 1.383 . S
C831 H839 0.929 . S
C832 C831 1.383 . S
C832 C833 1.377 . S
C833 H817 0.930 . S
C833 C832 1.377 . S
C833 C834 1.379 . S
C834 H818 0.931 . S
C834 C828 1.383 . S
C834 C833 1.379 . S
H835 C829 0.959 . S
H836 C829 0.961 . S
H837 C829 0.960 . S
H838 C830 0.930 . S
H839 C831 0.929 . S
H840 C848 0.929 . S
H841 C850 0.930 . S
H842 C852 0.930 . S
H843 C855 0.929 . S
H844 C858 0.930 . S
H845 C860 0.960 . S
H846 C860 0.960 . S
H847 C860 0.960 . S
C848 H840 0.929 . S
C848 C849 1.377 . S
C848 C850 1.384 . S
C849 C848 1.377 . S
C849 C855 1.390 . S
C850 H841 0.930 . S
C850 C848 1.384 . S
C850 C851 1.372 . S
C851 C850 1.372 . S
C851 C852 1.400 . S
C851 C856 1.490 . S
C852 H842 0.930 . S
C852 C851 1.400 . S
C852 C855 1.386 . S
H853 C869 0.930 . S
H854 C870 0.931 . S
C855 H843 0.929 . S
C855 C849 1.390 . S
C855 C852 1.386 . S
C856 C851 1.490 . S
C856 C858 1.395 . S
C856 C859 1.403 . S
H857 C863 0.930 . S
C858 H844 0.930 . S
C858 C856 1.395 . S
C858 C861 1.403 . S
C859 C856 1.403 . S
C859 C860 1.524 . S
C859 C863 1.400 . S
C860 H845 0.960 . S
C860 H846 0.960 . S
C860 H847 0.960 . S
C860 C859 1.524 . S
C861 C858 1.403 . S
C861 C862 1.392 . S
C861 C865 1.495 . S
C862 C861 1.392 . S
C862 C863 1.385 . S
C862 C864 1.478 . S
C863 H857 0.930 . S
C863 C859 1.400 . S
C863 C862 1.385 . S
C864 C862 1.478 . S
C864 C866 1.381 . S
C864 C870 1.383 . S
C865 C861 1.495 . S
C865 H871 0.959 . S
C865 H872 0.961 . S
C865 H873 0.960 . S
C866 C864 1.381 . S
C866 C867 1.394 . S
C866 H874 0.930 . S
C867 C866 1.394 . S
C867 C868 1.383 . S
C867 H875 0.929 . S
C868 C867 1.383 . S
C868 C869 1.377 . S
C869 H853 0.930 . S
C869 C868 1.377 . S
C869 C870 1.379 . S
C870 H854 0.931 . S
C870 C864 1.383 . S
C870 C869 1.379 . S
H871 C865 0.959 . S
H872 C865 0.961 . S
H873 C865 0.960 . S
H874 C866 0.930 . S
H875 C867 0.929 . S
H876 C884 0.929 . S
H877 C886 0.930 . S
H878 C888 0.930 1_554 S
H879 C891 0.929 . S
H880 C894 0.930 . S
H881 C896 0.960 . S
H882 C896 0.960 . S
H883 C896 0.960 . S
C884 H876 0.929 . S
C884 C885 1.377 . S
C884 C886 1.384 . S
C885 C884 1.377 . S
C885 C891 1.390 . S
C886 H877 0.930 . S
C886 C884 1.384 . S
C886 C887 1.372 . S
C887 C886 1.372 . S
C887 C888 1.400 . S
C887 C892 1.490 . S
C888 H878 0.930 1_556 S
C888 C887 1.400 . S
C888 C891 1.386 . S
H889 C905 0.930 . S
H890 C906 0.931 . S
C891 H879 0.929 . S
C891 C885 1.390 . S
C891 C888 1.386 . S
C892 C887 1.490 . S
C892 C894 1.395 1_556 S
C892 C895 1.403 . S
H893 C899 0.930 . S
C894 H880 0.930 . S
C894 C892 1.395 1_554 S
C894 C897 1.403 . S
C895 C892 1.403 . S
C895 C896 1.524 . S
C895 C899 1.400 . S
C896 H881 0.960 . S
C896 H882 0.960 . S
C896 H883 0.960 . S
C896 C895 1.524 . S
C897 C894 1.403 . S
C897 C898 1.392 . S
C897 C901 1.495 . S
C898 C897 1.392 . S
C898 C899 1.385 1_554 S
C898 C900 1.478 . S
C899 H893 0.930 . S
C899 C895 1.400 . S
C899 C898 1.385 1_556 S
C900 C898 1.478 . S
C900 C902 1.381 . S
C900 C906 1.383 . S
C901 C897 1.495 . S
C901 H907 0.959 . S
C901 H908 0.961 . S
C901 H909 0.960 . S
C902 C900 1.381 . S
C902 C903 1.394 . S
C902 H910 0.930 1_554 S
C903 C902 1.394 . S
C903 C904 1.383 . S
C903 H911 0.929 . S
C904 C903 1.383 . S
C904 C905 1.377 . S
C905 H889 0.930 . S
C905 C904 1.377 . S
C905 C906 1.379 . S
C906 H890 0.931 . S
C906 C900 1.383 . S
C906 C905 1.379 . S
H907 C901 0.959 . S
H908 C901 0.961 . S
H909 C901 0.960 . S
H910 C902 0.930 1_556 S
H911 C903 0.929 . S
H912 C920 0.929 . S
H913 C922 0.930 . S
H914 C924 0.930 . S
H915 C927 0.929 . S
H916 C930 0.930 . S
H917 C932 0.960 . S
H918 C932 0.960 . S
H919 C932 0.960 . S
C920 H912 0.929 . S
C920 C921 1.377 . S
C920 C922 1.384 . S
C921 C920 1.377 . S
C921 C927 1.390 . S
C922 H913 0.930 . S
C922 C920 1.384 . S
C922 C923 1.372 . S
C923 C922 1.372 . S
C923 C924 1.400 . S
C923 C928 1.490 . S
C924 H914 0.930 . S
C924 C923 1.400 . S
C924 C927 1.386 . S
H925 C941 0.930 . S
H926 C942 0.931 . S
C927 H915 0.929 . S
C927 C921 1.390 . S
C927 C924 1.386 . S
C928 C923 1.490 . S
C928 C930 1.395 . S
C928 C931 1.403 . S
H929 C935 0.930 . S
C930 H916 0.930 . S
C930 C928 1.395 . S
C930 C933 1.403 . S
C931 C928 1.403 . S
C931 C932 1.524 . S
C931 C935 1.400 . S
C932 H917 0.960 . S
C932 H918 0.960 . S
C932 H919 0.960 . S
C932 C931 1.524 . S
C933 C930 1.403 . S
C933 C934 1.392 . S
C933 C937 1.495 . S
C934 C933 1.392 . S
C934 C935 1.385 . S
C934 C936 1.478 . S
C935 H929 0.930 . S
C935 C931 1.400 . S
C935 C934 1.385 . S
C936 C934 1.478 . S
C936 C938 1.381 . S
C936 C942 1.383 . S
C937 C933 1.495 . S
C937 H943 0.959 . S
C937 H944 0.961 . S
C937 H945 0.960 . S
C938 C936 1.381 . S
C938 C939 1.394 . S
C938 H946 0.930 . S
C939 C938 1.394 . S
C939 C940 1.383 . S
C939 H947 0.929 . S
C940 C939 1.383 . S
C940 C941 1.377 . S
C941 H925 0.930 . S
C941 C940 1.377 . S
C941 C942 1.379 . S
C942 H926 0.931 . S
C942 C936 1.383 . S
C942 C941 1.379 . S
H943 C937 0.959 . S
H944 C937 0.961 . S
H945 C937 0.960 . S
H946 C938 0.930 . S
H947 C939 0.929 . S
H948 C956 0.929 . S
H949 C958 0.930 . S
H950 C960 0.930 . S
H951 C963 0.929 . S
H952 C966 0.930 . S
H953 C968 0.960 . S
H954 C968 0.960 . S
H955 C968 0.960 . S
C956 H948 0.929 . S
C956 C957 1.377 . S
C956 C958 1.384 . S
C957 C956 1.377 . S
C957 C963 1.390 . S
C958 H949 0.930 . S
C958 C956 1.384 . S
C958 C959 1.372 . S
C959 C958 1.372 . S
C959 C960 1.400 . S
C959 C964 1.490 . S
C960 H950 0.930 . S
C960 C959 1.400 . S
C960 C963 1.386 . S
H961 C977 0.930 . S
H962 C978 0.931 . S
C963 H951 0.929 . S
C963 C957 1.390 . S
C963 C960 1.386 . S
C964 C959 1.490 . S
C964 C966 1.395 1_556 S
C964 C967 1.403 . S
H965 C971 0.930 . S
C966 H952 0.930 . S
C966 C964 1.395 1_554 S
C966 C969 1.403 . S
C967 C964 1.403 . S
C967 C968 1.524 . S
C967 C971 1.400 . S
C968 H953 0.960 . S
C968 H954 0.960 . S
C968 H955 0.960 . S
C968 C967 1.524 . S
C969 C966 1.403 . S
C969 C970 1.392 . S
C969 C973 1.495 . S
C970 C969 1.392 . S
C970 C971 1.385 1_554 S
C970 C972 1.478 . S
C971 H965 0.930 . S
C971 C967 1.400 . S
C971 C970 1.385 1_556 S
C972 C970 1.478 . S
C972 C974 1.381 . S
C972 C978 1.383 . S
C973 C969 1.495 . S
C973 H979 0.959 . S
C973 H980 0.961 . S
C973 H981 0.960 . S
C974 C972 1.381 . S
C974 C975 1.394 . S
C974 H982 0.930 . S
C975 C974 1.394 . S
C975 C976 1.383 . S
C975 H983 0.929 . S
C976 C975 1.383 . S
C976 C977 1.377 . S
C977 H961 0.930 . S
C977 C976 1.377 . S
C977 C978 1.379 . S
C978 H962 0.931 . S
C978 C972 1.383 . S
C978 C977 1.379 . S
H979 C973 0.959 . S
H980 C973 0.961 . S
H981 C973 0.960 . S
H982 C974 0.930 . S
H983 C975 0.929 . S
C273 C106 0.859 1_554 S
C292 C18 0.878 . S
C309 C51 0.882 . S
C328 C73 0.851 . S
C345 C84 0.882 . S
C364 C40 0.856 1_556 S
C381 C117 0.883 . S
C400 C7 0.857 . S
C417 C150 0.883 . S
C436 C238 0.890 1_554 S
C453 C183 0.882 . S
C472 C205 0.894 . S
C489 C172 0.868 1_556 S
C508 C216 0.877 . S
C525 C249 0.883 . S
C544 C139 0.901 . S
C561 N79 2.066 . S
C580 N13 2.074 . S
C597 N112 2.067 . S
C616 N46 2.070 . S
C633 N145 2.061 . S
C652 N211 2.057 . S
C669 N178 2.061 . S
C688 N244 2.050 . S
C705 N2 1.102 . S
C724 N35 1.066 . S
C741 N101 1.096 . S
C760 N68 1.099 . S
C777 N167 1.100 . S
C796 N134 1.062 . S
C813 N233 1.104 . S
C832 N200 1.061 . S
C849 C219 1.580 . S
C868 C21 1.564 . S
C885 C252 1.581 . S
C904 C54 1.567 . S
C921 C153 1.582 . S
C940 C87 1.590 . S
C957 C120 1.582 . S
C976 C186 1.575 . S
