# Generated by pormake.
# Topology tfs, (6)-cn, num edge types: 1
# Building blocks:
#     Node 0, Type 0, BuildingBlock: VOLQOD_clean_sbu_1, # of connection points: 6
#     Node 1, Type 0, BuildingBlock: VOLQOD_clean_sbu_1, # of connection points: 6
#     Node 2, Type 0, BuildingBlock: VOLQOD_clean_sbu_1, # of connection points: 6
#     Node 3, Type 0, BuildingBlock: VOLQOD_clean_sbu_1, # of connection points: 6
#     Node 4, Type 0, BuildingBlock: VOLQOD_clean_sbu_1, # of connection points: 6
#     Node 5, Type 0, BuildingBlock: VOLQOD_clean_sbu_1, # of connection points: 6
#     Edge 6, Type (0, 0), BuildingBlock: XIVTED_clean_linker_0, # of connection points: 2
#     Edge 7, Type (0, 0), BuildingBlock: XIVTED_clean_linker_0, # of connection points: 2
#     Edge 8, Type (0, 0), BuildingBlock: XIVTED_clean_linker_0, # of connection points: 2
#     Edge 9, Type (0, 0), BuildingBlock: XIVTED_clean_linker_0, # of connection points: 2
#     Edge 10, Type (0, 0), BuildingBlock: XIVTED_clean_linker_0, # of connection points: 2
#     Edge 11, Type (0, 0), BuildingBlock: XIVTED_clean_linker_0, # of connection points: 2
#     Edge 12, Type (0, 0), BuildingBlock: XIVTED_clean_linker_0, # of connection points: 2
#     Edge 13, Type (0, 0), BuildingBlock: XIVTED_clean_linker_0, # of connection points: 2
#     Edge 14, Type (0, 0), BuildingBlock: XIVTED_clean_linker_0, # of connection points: 2
#     Edge 15, Type (0, 0), BuildingBlock: XIVTED_clean_linker_0, # of connection points: 2
#     Edge 16, Type (0, 0), BuildingBlock: XIVTED_clean_linker_0, # of connection points: 2
#     Edge 17, Type (0, 0), BuildingBlock: XIVTED_clean_linker_0, # of connection points: 2
#     Edge 18, Type (0, 0), BuildingBlock: XIVTED_clean_linker_0, # of connection points: 2
#     Edge 19, Type (0, 0), BuildingBlock: XIVTED_clean_linker_0, # of connection points: 2
#     Edge 20, Type (0, 0), BuildingBlock: XIVTED_clean_linker_0, # of connection points: 2
#     Edge 21, Type (0, 0), BuildingBlock: XIVTED_clean_linker_0, # of connection points: 2
#     Edge 22, Type (0, 0), BuildingBlock: XIVTED_clean_linker_0, # of connection points: 2
#     Edge 23, Type (0, 0), BuildingBlock: XIVTED_clean_linker_0, # of connection points: 2
# Relax obj value: 0.115
# Max RMSD: 0.091
# Mean RMSD: 0.091
data_MOF--net-tfs--node1-VOLQOD_clean_sbu_1--edge1-XIVTED_clean_linker_0
_symmetry_space_group_name_H-M    P1
_symmetry_Int_Tables_number       1
_symmetry_cell_setting            triclinic
loop_
_symmetry_equiv_pos_as_xyz
'x, y, z'
_cell_length_a     46.279909
_cell_length_b     46.288618
_cell_length_c     17.346654
_cell_angle_alpha  90.107876
_cell_angle_beta   89.8877
_cell_angle_gamma 120.11873
loop_
_atom_site_label
_atom_site_type_symbol
_atom_site_fract_x
_atom_site_fract_y
_atom_site_fract_z
_atom_type_partial_charge
O0 O 0.25313 0.47869 0.93004 0.0
Zn1 Zn 0.2038 0.45268 0.91423 0.0
O2 O 0.18187 0.41548 -0.01585 0.0
Zn3 Zn 0.1607 0.37394 0.92354 0.0
Zn4 Zn 0.21559 0.41672 0.05262 0.0
Zn5 Zn 0.14867 0.41962 0.04578 0.0
O6 O 0.11208 0.34652 0.94997 0.0
O7 O 0.10364 0.3796 0.02863 0.0
O8 O 0.19625 0.43806 0.80518 0.0
O9 O 0.16371 0.38296 0.80894 0.0
O10 O 0.1823 0.34622 0.94569 0.0
O11 O 0.21739 0.37514 0.04026 0.0
O12 O 0.2052 0.41956 0.16261 0.0
O13 O 0.18617 0.48357 0.92774 0.0
O14 O 0.15743 0.41989 0.15959 0.0
O15 O 0.14767 0.46186 0.01981 0.0
C16 C 0.27272 0.47712 0.97889 0.0
C17 C 0.09289 0.35233 -0.00839 0.0
C18 C 0.20386 0.34982 -0.00395 0.0
C19 C 0.17957 0.41012 0.77132 0.0
C20 C 0.18118 0.42008 0.19682 0.0
C21 C 0.16436 0.48462 0.97043 0.0
O22 O 0.26179 0.45495 0.03126 0.0
O23 O 0.76864 0.25733 0.93322 0.0
Zn24 Zn 0.74376 0.20775 0.91906 0.0
O25 O 0.75912 0.1862 -0.01029 0.0
Zn26 Zn 0.78026 0.16565 0.92986 0.0
Zn27 Zn 0.79141 0.21953 0.05945 0.0
Zn28 Zn 0.72125 0.15311 0.05023 0.0
O29 O 0.75864 0.11695 0.95576 0.0
O30 O 0.7165 0.10822 0.0329 0.0
O31 O 0.74803 0.19734 0.80982 0.0
O32 O 0.77495 0.16898 0.81527 0.0
O33 O 0.82957 0.18727 0.95262 0.0
O34 O 0.83542 0.22299 0.04521 0.0
O35 O 0.7792 0.20725 0.16965 0.0
O36 O 0.69559 0.19168 0.93492 0.0
O37 O 0.72899 0.16186 0.16418 0.0
O38 O 0.67806 0.15195 0.02375 0.0
C39 C 0.78843 0.2766 -0.01506 0.0
C40 C 0.73329 0.09762 -0.00352 0.0
C41 C 0.84749 0.20949 0.00192 0.0
C42 C 0.76094 0.18198 0.77688 0.0
C43 C 0.75361 0.18389 0.20266 0.0
C44 C 0.67242 0.1695 0.97631 0.0
O45 O 0.7981 0.26534 0.03994 0.0
O46 O 0.50585 0.76977 0.93368 0.0
Zn47 Zn 0.53158 0.7459 0.92298 0.0
O48 O 0.56862 0.76314 -0.00629 0.0
Zn49 Zn 0.61038 0.7851 0.93375 0.0
Zn50 Zn 0.56613 0.79519 0.06166 0.0
Zn51 Zn 0.56511 0.72633 0.0559 0.0
O52 O 0.63835 0.76447 0.95958 0.0
O53 O 0.60581 0.7226 0.03828 0.0
O54 O 0.54636 0.74952 0.81424 0.0
O55 O 0.6017 0.77944 0.81901 0.0
O56 O 0.63723 0.83452 0.9566 0.0
O57 O 0.60623 0.83963 0.04745 0.0
O58 O 0.56613 0.78389 0.17265 0.0
O59 O 0.50037 0.69777 0.94115 0.0
O60 O 0.56458 0.7352 0.16921 0.0
O61 O 0.52336 0.6822 0.03213 0.0
C62 C 0.50571 0.78992 -0.01654 0.0
C63 C 0.63298 0.73957 0.00101 0.0
C64 C 0.63212 0.85217 0.00509 0.0
C65 C 0.57463 0.76373 0.78101 0.0
C66 C 0.56562 0.75935 0.2067 0.0
C67 C 0.49995 0.67542 -0.01569 0.0
O68 O 0.52644 0.80065 0.03903 0.0
O69 O 0.73009 0.50952 0.9293 0.0
Zn70 Zn 0.77975 0.53548 0.91659 0.0
O71 O 0.80014 0.57282 -0.01319 0.0
Zn72 Zn 0.81973 0.61436 0.92643 0.0
Zn73 Zn 0.76597 0.57071 0.05539 0.0
Zn74 Zn 0.83381 0.56961 0.04837 0.0
O75 O 0.86858 0.64223 0.9504 0.0
O76 O 0.87842 0.61017 0.02909 0.0
O77 O 0.79027 0.54992 0.80745 0.0
O78 O 0.81601 0.60527 0.81195 0.0
O79 O 0.79767 0.64157 0.95012 0.0
O80 O 0.76176 0.61081 0.04154 0.0
O81 O 0.77781 0.57107 0.16588 0.0
O82 O 0.79689 0.50447 0.93409 0.0
O83 O 0.82497 0.56955 0.16199 0.0
O84 O 0.83568 0.52761 0.02489 0.0
C85 C 0.71016 0.50969 0.97975 0.0
C86 C 0.88843 0.63709 -0.0089 0.0
C87 C 0.77515 0.63665 -0.00084 0.0
C88 C 0.80432 0.57812 0.77406 0.0
C89 C 0.80195 0.57069 0.19968 0.0
C90 C 0.8189 0.50414 0.97714 0.0
O91 O 0.72062 0.53089 0.03445 0.0
O92 O 0.21556 0.73183 0.90876 0.0
Zn93 Zn 0.23852 0.78119 0.89268 0.0
O94 O 0.22213 0.80261 0.96142 0.0
Zn95 Zn 0.20057 0.82227 0.90015 0.0
Zn96 Zn 0.19031 0.76883 0.03107 0.0
Zn97 Zn 0.259 0.83689 0.0221 0.0
O98 O 0.22138 0.87123 0.92317 0.0
O99 O 0.26356 0.88141 0.0012 0.0
O100 O 0.23173 0.78838 0.78328 0.0
O101 O 0.20616 0.8181 0.78573 0.0
O102 O 0.1512 0.80018 0.92484 0.0
O103 O 0.14653 0.76619 0.02045 0.0
O104 O 0.20386 0.77979 0.14073 0.0
O105 O 0.28718 0.79939 0.9082 0.0
O106 O 0.25026 0.82922 0.13605 0.0
O107 O 0.30258 0.83811 -0.0006 0.0
C108 C 0.1944 0.71214 0.95773 0.0
C109 C 0.24657 0.89128 0.96328 0.0
C110 C 0.13394 0.77896 0.97666 0.0
C111 C 0.21896 0.80346 0.74879 0.0
C112 C 0.2276 0.80492 0.17412 0.0
C113 C 0.30945 0.82145 0.95166 0.0
O114 O 0.18288 0.72291 0.00992 0.0
O115 O 0.47381 0.21697 0.91397 0.0
Zn116 Zn 0.44879 0.2415 0.9015 0.0
O117 O 0.41154 0.22512 0.97187 0.0
Zn118 Zn 0.36996 0.20375 0.91165 0.0
Zn119 Zn 0.41276 0.19268 0.04033 0.0
Zn120 Zn 0.41574 0.26239 0.03375 0.0
O121 O 0.34225 0.22452 0.93902 0.0
O122 O 0.37535 0.26667 0.01662 0.0
O123 O 0.43441 0.238 0.7924 0.0
O124 O 0.379 0.21002 0.79723 0.0
O125 O 0.34268 0.15416 0.9325 0.0
O126 O 0.37253 0.14843 0.02493 0.0
O127 O 0.41214 0.20402 0.15098 0.0
O128 O 0.48078 0.28956 0.91966 0.0
O129 O 0.41607 0.25377 0.14726 0.0
O130 O 0.45807 0.30599 0.00986 0.0
C131 C 0.47345 0.19712 0.96511 0.0
C132 C 0.34796 0.24962 0.98029 0.0
C133 C 0.34709 0.13623 -0.01872 0.0
C134 C 0.40618 0.22483 0.75922 0.0
C135 C 0.41373 0.22912 0.18488 0.0
C136 C 0.48158 0.31222 0.96257 0.0
O137 O 0.4524 0.18696 0.02014 0.0
H138 H 0.34271 0.28772 0.09268 0.0
H139 H 0.19987 0.30512 0.88596 0.0
H140 H 0.2939 0.23223 0.88662 0.0
H141 H 0.23578 0.3405 0.11606 0.0
H142 H 0.2301 0.2742 0.88733 0.0
H143 H 0.30097 0.30459 0.10378 0.0
C144 C 0.32315 0.27908 0.04968 0.0
C145 C 0.32198 0.25889 -0.01188 0.0
C146 C 0.23083 0.2883 0.93791 0.0
C147 C 0.27394 0.27813 0.00041 0.0
C148 C 0.21352 0.30582 0.93725 0.0
C149 C 0.21597 0.32594 0.00034 0.0
C150 C 0.25063 0.29115 0.00199 0.0
C151 C 0.23385 0.3259 0.06546 0.0
C152 C 0.29912 0.28851 0.05635 0.0
C153 C 0.29576 0.24799 0.93476 0.0
N154 N 0.25083 0.30917 0.06416 0.0
N155 N 0.27291 0.25811 0.94157 0.0
H156 H 0.04932 0.34766 0.10288 0.0
H157 H 0.88855 0.20495 0.89366 0.0
H158 H 0.05586 0.2985 0.89722 0.0
H159 H 0.88859 0.24281 0.12139 0.0
H160 H 0.94983 0.23507 0.89629 0.0
H161 H 0.9903 0.30659 0.11243 0.0
C162 C 0.03829 0.32817 0.05965 0.0
C163 C 0.05739 0.3267 -0.00134 0.0
C164 C 0.93632 0.23629 0.94605 0.0
C165 C 0.98965 0.27944 0.00915 0.0
C166 C 0.90142 0.21905 0.94466 0.0
C167 C 0.8836 0.22202 0.00673 0.0
C168 C 0.95317 0.2565 0.00986 0.0
C169 C 0.90138 0.24045 0.07154 0.0
C170 C 0.00459 0.30453 0.0654 0.0
C171 C 0.04191 0.30058 0.94495 0.0
N172 N 0.93516 0.2573 0.07099 0.0
N173 N 0.00873 0.27811 0.9509 0.0
H174 H 0.69297 0.05354 0.10533 0.0
H175 H 0.67844 0.89375 0.89852 0.0
H176 H 0.7512 0.06105 0.9036 0.0
H177 H 0.63795 0.89307 0.12347 0.0
H178 H 0.7089 0.95504 0.90145 0.0
H179 H 0.67498 -0.00543 0.11434 0.0
C180 C 0.70198 0.04274 0.06284 0.0
C181 C 0.7233 0.06211 0.00314 0.0
C182 C 0.69372 0.94137 0.95054 0.0
C183 C 0.70277 -0.00559 0.01304 0.0
C184 C 0.67645 0.90647 0.94899 0.0
C185 C 0.65516 0.88842 0.01015 0.0
C186 C 0.68946 0.95799 0.0136 0.0
C187 C 0.65353 0.90602 0.07428 0.0
C188 C 0.69188 0.00906 0.06829 0.0
C189 C 0.73459 0.04689 0.95035 0.0
N190 N 0.67011 0.93979 0.0739 0.0
N191 N 0.72386 0.01373 0.956 0.0
H192 H 0.77956 0.68291 0.89325 0.0
H193 H 0.63878 0.70132 0.11169 0.0
H194 H 0.7417 0.64339 0.11982 0.0
H195 H 0.68616 0.75645 0.9043 0.0
H196 H 0.67966 0.6832 0.11821 0.0
H197 H 0.74981 0.71431 0.89912 0.0
C198 C 0.7655 0.68132 0.94464 0.0
C199 C 0.76247 0.66003 0.00546 0.0
C200 C 0.68139 0.69947 0.07145 0.0
C201 C 0.72846 0.69545 0.01234 0.0
C202 C 0.65787 0.70965 0.06749 0.0
C203 C 0.65885 0.73006 0.00684 0.0
C204 C 0.70586 0.70932 0.01374 0.0
C205 C 0.68446 0.74054 0.95182 0.0
C206 C 0.74849 0.69913 0.94789 0.0
C207 C 0.74411 0.65893 0.07086 0.0
N208 N 0.7068 0.72968 0.956 0.0
N209 N 0.72752 0.67606 0.07215 0.0
H210 H 0.09113 0.78134 0.87024 0.0
H211 H 0.93376 0.64374 0.09948 0.0
H212 H 0.09484 0.7485 0.10096 0.0
H213 H 0.92387 0.68937 0.89186 0.0
H214 H -0.00701 0.68475 0.10252 0.0
H215 H 0.02993 0.75169 0.87891 0.0
C216 C 0.07912 0.76845 0.92311 0.0
C217 C 0.09795 0.76674 -0.01564 0.0
C218 C 0.97791 0.68607 0.05651 0.0
C219 C 0.02847 0.73279 -0.00561 0.0
C220 C 0.94409 0.66247 0.05452 0.0
C221 C 0.92398 0.66294 -0.00514 0.0
C222 C -0.00805 0.71007 -0.00224 0.0
C223 C 0.9386 0.68809 0.93871 0.0
C224 C 0.04426 0.75148 0.92795 0.0
C225 C 0.08124 0.74984 0.05167 0.0
N226 N 0.97189 0.71048 0.94095 0.0
N227 N 0.04748 0.73321 0.05447 0.0
H228 H 0.22813 0.92646 0.86746 0.0
H229 H 0.3374 0.09553 0.10252 0.0
H230 H 0.28596 0.93653 0.07125 0.0
H231 H 0.30404 0.09462 0.8698 0.0
H232 H 0.30679 0.03487 0.10277 0.0
H233 H 0.2457 0.98599 0.87694 0.0
C234 C 0.24434 0.94112 0.91431 0.0
C235 C 0.25594 0.92669 0.96819 0.0
C236 C 0.30588 0.04785 0.05176 0.0
C237 C 0.27553 -0.00583 0.9798 0.0
C238 C 0.3233 0.08249 0.05162 0.0
C239 C 0.32377 0.10003 -0.01458 0.0
C240 C 0.289 0.03053 -0.015 0.0
C241 C 0.3045 0.08193 0.92173 0.0
C242 C 0.25429 0.97498 0.91963 0.0
C243 C 0.27678 0.9467 0.02784 0.0
N244 N 0.28822 0.04796 0.92258 0.0
N245 N 0.28591 0.97938 0.03193 0.0
H246 H 0.20456 0.67885 0.84078 0.0
H247 H 0.13725 0.50891 0.07597 0.0
H248 H 0.15953 0.66367 0.06634 0.0
H249 H 0.1821 0.52746 0.8497 0.0
H250 H 0.13839 0.56246 0.06871 0.0
H251 H 0.19014 0.62066 0.83843 0.0
C252 C 0.19154 0.66323 0.88983 0.0
C253 C 0.18364 0.67627 0.95428 0.0
C254 C 0.14759 0.55453 0.02039 0.0
C255 C 0.16708 0.60936 0.95218 0.0
C256 C 0.14682 0.52397 0.0244 0.0
C257 C 0.1601 0.51403 0.96389 0.0
C258 C 0.16161 0.57502 0.95535 0.0
C259 C 0.17215 0.53441 0.89835 0.0
C260 C 0.18318 0.6299 0.8884 0.0
C261 C 0.16629 0.65466 0.01567 0.0
N262 N 0.17287 0.56399 0.89615 0.0
N263 N 0.1589 0.62229 0.01351 0.0
H264 H 0.51592 0.20631 0.84639 0.0
H265 H 0.62037 0.14079 0.08002 0.0
H266 H 0.48838 0.16371 0.07452 0.0
H267 H 0.64811 0.18927 0.85795 0.0
H268 H 0.56765 0.14132 0.07297 0.0
H269 H 0.56022 0.19269 0.8437 0.0
C270 C 0.5191 0.19396 0.89592 0.0
C271 C 0.49869 0.18656 0.96122 0.0
C272 C 0.58519 0.1515 0.02554 0.0
C273 C 0.54966 0.17098 0.95869 0.0
C274 C 0.61517 0.15109 0.02943 0.0
C275 C 0.63882 0.16547 0.97004 0.0
C276 C 0.57895 0.16621 0.96167 0.0
C277 C 0.63085 0.17843 0.90572 0.0
C278 C 0.54442 0.18611 0.89431 0.0
C279 C 0.50373 0.1701 0.0232 0.0
N280 N 0.60175 0.17869 0.90355 0.0
N281 N 0.52899 0.16315 0.02078 0.0
H282 H 0.47601 0.62544 0.09334 0.0
H283 H 0.30631 0.51856 0.85936 0.0
H284 H 0.45721 0.64831 0.86414 0.0
H285 H 0.32104 0.4922 0.08874 0.0
H286 H 0.36456 0.56229 0.85576 0.0
H287 H 0.4226 0.57253 0.08835 0.0
C288 C 0.46093 0.61909 0.04164 0.0
C289 C 0.47071 0.64148 0.97958 0.0
C290 C 0.35523 0.54688 0.90687 0.0
C291 C 0.40996 0.58146 0.97356 0.0
C292 C 0.32186 0.52192 0.90902 0.0
C293 C 0.30868 0.50201 0.97487 0.0
C294 C 0.37565 0.55236 0.97138 0.0
C295 C 0.33018 0.50719 0.037 0.0
C296 C 0.43046 0.58902 0.03891 0.0
C297 C 0.45035 0.63207 0.91392 0.0
N298 N 0.36261 0.53218 0.03413 0.0
N299 N 0.42089 0.60297 0.91295 0.0
H300 H 0.80513 0.46248 0.85534 0.0
H301 H 0.82234 0.3249 0.09486 0.0
H302 H 0.84247 0.47895 0.08855 0.0
H303 H 0.78051 0.31046 0.86614 0.0
H304 H 0.83725 0.3837 0.08909 0.0
H305 H 0.80433 0.40963 0.85305 0.0
C306 C 0.81345 0.45504 0.90598 0.0
C307 C 0.82339 0.47483 0.97268 0.0
C308 C 0.82507 0.36765 0.04004 0.0
C309 C 0.8221 0.41393 0.97092 0.0
C310 C 0.81653 0.33412 0.04326 0.0
C311 C 0.79975 0.31262 -0.01875 0.0
C312 C 0.81686 0.37967 0.97427 0.0
C313 C 0.793 0.32594 0.91575 0.0
C314 C 0.81298 0.42481 0.90468 0.0
C315 C 0.83446 0.46427 0.03613 0.0
N316 N 0.80141 0.35849 0.91423 0.0
N317 N 0.83305 0.43418 0.03416 0.0
H318 H 0.3374 0.80477 0.83462 0.0
H319 H 0.49091 0.82583 0.08689 0.0
H320 H 0.358 0.84698 0.06371 0.0
H321 H 0.46377 0.77892 0.86274 0.0
H322 H 0.44721 0.8407 0.07444 0.0
H323 H 0.38904 0.80315 0.83795 0.0
C324 C 0.35302 0.81403 0.88545 0.0
C325 C 0.34317 0.82557 0.94945 0.0
C326 C 0.45106 0.82737 0.02787 0.0
C327 C 0.40228 0.82334 0.95418 0.0
C328 C 0.47595 0.81884 0.03494 0.0
C329 C 0.48075 0.80074 0.97616 0.0
C330 C 0.43102 0.81781 0.96149 0.0
C331 C 0.46075 0.7925 0.91 0.0
C332 C 0.38253 0.81306 0.8874 0.0
C333 C 0.36463 0.83773 0.01328 0.0
N334 N 0.43673 0.80096 0.9047 0.0
N335 N 0.39304 0.83585 0.01454 0.0
H336 H 0.66044 0.49563 0.08557 0.0
H337 H 0.52554 0.33881 0.84403 0.0
H338 H 0.67806 0.4662 0.86186 0.0
H339 H 0.50597 0.36173 0.07284 0.0
H340 H 0.57897 0.39043 0.84402 0.0
H341 H 0.6018 0.45131 0.07723 0.0
C342 C 0.65197 0.48003 0.03455 0.0
C343 C 0.6743 0.4844 0.97468 0.0
C344 C 0.56299 0.38443 0.89417 0.0
C345 C 0.6074 0.43393 0.96475 0.0
C346 C 0.53241 0.35491 0.89417 0.0
C347 C 0.51152 0.34575 0.95901 0.0
C348 C 0.57308 0.40493 0.95983 0.0
C349 C 0.52147 0.36784 0.02182 0.0
C350 C 0.61852 0.45479 0.02985 0.0
C351 C 0.66191 0.46357 0.90985 0.0
N352 N 0.55185 0.39629 0.02116 0.0
N353 N 0.6294 0.43921 0.90685 0.0
H354 H 0.13063 0.36497 0.67508 0.0
H355 H 0.23449 0.44436 0.29321 0.0
H356 H 0.22716 0.45498 0.67533 0.0
H357 H 0.12676 0.39445 0.29253 0.0
H358 H 0.23352 0.44096 0.43374 0.0
H359 H 0.12998 0.3676 0.53341 0.0
C360 C 0.15171 0.38506 0.64529 0.0
C361 C 0.17896 0.40983 0.68657 0.0
C362 C 0.21012 0.43089 0.40278 0.0
C363 C 0.17846 0.41277 0.52626 0.0
C364 C 0.21064 0.43276 0.32278 0.0
C365 C 0.18066 0.41977 0.28155 0.0
C366 C 0.17939 0.4153 0.44164 0.0
C367 C 0.15041 0.40502 0.32253 0.0
C368 C 0.1512 0.38668 0.56492 0.0
C369 C 0.20559 0.4355 0.64559 0.0
N370 N 0.1505 0.40287 0.40067 0.0
N371 N 0.20477 0.43619 0.56761 0.0
H372 H 0.80421 0.17631 0.67865 0.0
H373 H 0.69946 0.15547 0.29905 0.0
H374 H 0.71337 0.18096 0.68339 0.0
H375 H 0.80725 0.20649 0.29816 0.0
H376 H 0.70027 0.15216 0.44025 0.0
H377 H 0.80163 0.17453 0.53713 0.0
C378 C 0.78363 0.17667 0.6499 0.0
C379 C 0.75913 0.17908 0.69234 0.0
C380 C 0.72366 0.16401 0.40878 0.0
C381 C 0.75581 0.17656 0.53197 0.0
C382 C 0.72322 0.16586 0.32857 0.0
C383 C 0.75334 0.18155 0.28727 0.0
C384 C 0.75435 0.1772 0.4473 0.0
C385 C 0.78349 0.19456 0.32807 0.0
C386 C 0.78226 0.1758 0.56952 0.0
C387 C 0.73296 0.1795 0.65255 0.0
N388 N 0.78325 0.19193 0.40598 0.0
N389 N 0.7319 0.17812 0.57443 0.0
H390 H 0.53017 0.71344 0.68936 0.0
H391 H 0.5929 0.81375 0.30118 0.0
H392 H 0.62076 0.80935 0.68108 0.0
H393 H 0.5442 0.70611 0.30431 0.0
H394 H 0.59774 0.81427 0.44173 0.0
H395 H 0.52954 0.71157 0.54843 0.0
C396 C 0.54998 0.73405 0.65773 0.0
C397 C 0.57551 0.76167 0.69653 0.0
C398 C 0.58613 0.7906 0.41143 0.0
C399 C 0.57458 0.75985 0.53609 0.0
C400 C 0.58307 0.79023 0.33153 0.0
C401 C 0.56797 0.7598 0.29134 0.0
C402 C 0.57333 0.76032 0.45133 0.0
C403 C 0.55601 0.73008 0.33326 0.0
C404 C 0.54966 0.73287 0.57757 0.0
C405 C 0.60071 0.7876 0.65309 0.0
N406 N 0.55862 0.73104 0.41131 0.0
N407 N 0.59938 0.7863 0.57481 0.0
H408 H 0.8088 0.53299 0.68195 0.0
H409 H 0.77563 0.59875 0.29378 0.0
H410 H 0.80623 0.62487 0.67456 0.0
H411 H 0.83299 0.54856 0.29753 0.0
H412 H 0.77931 0.60305 0.43443 0.0
H413 H 0.81084 0.53286 0.54103 0.0
C414 C 0.80871 0.55315 0.65054 0.0
C415 C 0.80719 0.57892 0.68958 0.0
C416 C 0.79118 0.59125 0.40426 0.0
C417 C 0.80908 0.57862 0.52918 0.0
C418 C 0.78888 0.58852 0.3243 0.0
C419 C 0.8039 0.57311 0.28428 0.0
C420 C 0.80796 0.57781 0.44439 0.0
C421 C 0.82108 0.56061 0.32639 0.0
C422 C 0.81007 0.55313 0.5704 0.0
C423 C 0.80744 0.60461 0.6464 0.0
N424 N 0.82233 0.56289 0.40452 0.0
N425 N 0.80789 0.60359 0.56814 0.0
H426 H 0.25504 0.85996 0.26801 0.0
H427 H 0.21883 0.75669 0.65428 0.0
H428 H 0.20068 0.75216 0.27241 0.0
H429 H 0.22037 0.85071 0.65113 0.0
H430 H 0.22181 0.75783 0.5138 0.0
H431 H 0.2524 0.86033 0.40956 0.0
C432 C 0.24283 0.83644 0.29881 0.0
C433 C 0.22803 0.80597 0.25883 0.0
C434 C 0.22138 0.77815 0.54389 0.0
C435 C 0.22517 0.80629 0.41918 0.0
C436 C 0.21977 0.77758 0.62388 0.0
C437 C 0.21927 0.80363 0.66406 0.0
C438 C 0.22317 0.80525 0.50386 0.0
C439 C 0.22045 0.83005 0.62198 0.0
C440 C 0.24111 0.8367 0.37914 0.0
C441 C 0.21226 0.77617 0.30113 0.0
N442 N 0.22266 0.83038 0.54376 0.0
N443 N 0.21144 0.77708 0.37914 0.0
H444 H 0.45238 0.27376 0.66726 0.0
H445 H 0.38382 0.17485 0.27902 0.0
H446 H 0.35842 0.18096 0.65967 0.0
H447 H 0.43776 0.28267 0.28272 0.0
H448 H 0.37951 0.1746 0.41966 0.0
H449 H 0.45259 0.27586 0.52633 0.0
C450 C 0.43177 0.25387 0.63581 0.0
C451 C 0.40539 0.22705 0.67479 0.0
C452 C 0.39214 0.19826 0.38948 0.0
C453 C 0.40579 0.22913 0.51439 0.0
C454 C 0.39487 0.19846 0.30952 0.0
C455 C 0.41133 0.22885 0.26948 0.0
C456 C 0.40661 0.22864 0.42959 0.0
C457 C 0.42487 0.25872 0.31159 0.0
C458 C 0.43184 0.2552 0.55567 0.0
C459 C 0.37916 0.20207 0.63156 0.0
N460 N 0.42255 0.25789 0.38971 0.0
N461 N 0.38023 0.20346 0.55331 0.0
loop_
_geom_bond_atom_site_label_1
_geom_bond_atom_site_label_2
_geom_bond_distance
_geom_bond_site_symmetry_2
_ccdc_geom_bond_type
O0 Zn1 1.953 . S
O0 C16 1.225 . S
Zn1 O0 1.953 . S
Zn1 O2 1.949 1_556 S
Zn1 O8 1.919 . S
Zn1 O13 1.924 . S
O2 Zn1 1.949 1_554 S
O2 Zn3 1.923 1_554 S
O2 Zn4 1.950 . S
O2 Zn5 1.945 . S
Zn3 O2 1.923 1_556 S
Zn3 O6 1.933 . S
Zn3 O9 1.941 . S
Zn3 O10 1.965 . S
Zn4 O2 1.950 . S
Zn4 O11 1.938 . S
Zn4 O12 1.906 . S
Zn4 O22 1.953 . S
Zn5 O2 1.945 . S
Zn5 O7 1.932 . S
Zn5 O14 1.977 . S
Zn5 O15 1.910 . S
O6 Zn3 1.933 . S
O6 C17 1.230 . S
O7 Zn5 1.932 . S
O7 C17 1.303 1_554 S
O8 Zn1 1.919 . S
O8 C19 1.253 . S
O9 Zn3 1.941 . S
O9 C19 1.283 . S
O10 Zn3 1.965 . S
O10 C18 1.303 1_556 S
O11 Zn4 1.938 . S
O11 C18 1.247 . S
O12 Zn4 1.906 . S
O12 C20 1.304 . S
O13 Zn1 1.924 . S
O13 C21 1.311 . S
O14 Zn5 1.977 . S
O14 C20 1.272 . S
O15 Zn5 1.910 . S
O15 C21 1.231 1_554 S
C16 O0 1.225 . S
C16 O22 1.298 1_556 S
C17 O6 1.230 . S
C17 O7 1.303 1_556 S
C18 O10 1.303 1_554 S
C18 O11 1.247 . S
C19 O8 1.253 . S
C19 O9 1.283 . S
C20 O12 1.304 . S
C20 O14 1.272 . S
C21 O13 1.311 . S
C21 O15 1.231 1_556 S
O22 Zn4 1.953 . S
O22 C16 1.298 1_554 S
O23 Zn24 1.953 . S
O23 C39 1.225 . S
Zn24 O23 1.953 . S
Zn24 O25 1.949 1_556 S
Zn24 O31 1.919 . S
Zn24 O36 1.924 . S
O25 Zn24 1.949 1_554 S
O25 Zn26 1.923 1_554 S
O25 Zn27 1.950 . S
O25 Zn28 1.945 . S
Zn26 O25 1.923 1_556 S
Zn26 O29 1.933 . S
Zn26 O32 1.941 . S
Zn26 O33 1.965 . S
Zn27 O25 1.950 . S
Zn27 O34 1.938 . S
Zn27 O35 1.906 . S
Zn27 O45 1.953 . S
Zn28 O25 1.945 . S
Zn28 O30 1.932 . S
Zn28 O37 1.977 . S
Zn28 O38 1.910 . S
O29 Zn26 1.933 . S
O29 C40 1.230 . S
O30 Zn28 1.932 . S
O30 C40 1.303 1_554 S
O31 Zn24 1.919 . S
O31 C42 1.253 . S
O32 Zn26 1.941 . S
O32 C42 1.283 . S
O33 Zn26 1.965 . S
O33 C41 1.303 1_556 S
O34 Zn27 1.938 . S
O34 C41 1.247 . S
O35 Zn27 1.906 . S
O35 C43 1.304 . S
O36 Zn24 1.924 . S
O36 C44 1.311 . S
O37 Zn28 1.977 . S
O37 C43 1.272 . S
O38 Zn28 1.910 . S
O38 C44 1.231 1_554 S
C39 O23 1.225 . S
C39 O45 1.298 1_556 S
C40 O29 1.230 . S
C40 O30 1.303 1_556 S
C41 O33 1.303 1_554 S
C41 O34 1.247 . S
C42 O31 1.253 . S
C42 O32 1.283 . S
C43 O35 1.304 . S
C43 O37 1.272 . S
C44 O36 1.311 . S
C44 O38 1.231 1_556 S
O45 Zn27 1.953 . S
O45 C39 1.298 1_554 S
O46 Zn47 1.953 . S
O46 C62 1.225 . S
Zn47 O46 1.953 . S
Zn47 O48 1.949 1_556 S
Zn47 O54 1.919 . S
Zn47 O59 1.924 . S
O48 Zn47 1.949 1_554 S
O48 Zn49 1.923 1_554 S
O48 Zn50 1.950 . S
O48 Zn51 1.945 . S
Zn49 O48 1.923 1_556 S
Zn49 O52 1.933 . S
Zn49 O55 1.941 . S
Zn49 O56 1.965 . S
Zn50 O48 1.950 . S
Zn50 O57 1.938 . S
Zn50 O58 1.906 . S
Zn50 O68 1.953 . S
Zn51 O48 1.945 . S
Zn51 O53 1.932 . S
Zn51 O60 1.977 . S
Zn51 O61 1.910 . S
O52 Zn49 1.933 . S
O52 C63 1.230 . S
O53 Zn51 1.932 . S
O53 C63 1.303 1_554 S
O54 Zn47 1.919 . S
O54 C65 1.253 . S
O55 Zn49 1.941 . S
O55 C65 1.283 . S
O56 Zn49 1.965 . S
O56 C64 1.303 1_556 S
O57 Zn50 1.938 . S
O57 C64 1.247 . S
O58 Zn50 1.906 . S
O58 C66 1.304 . S
O59 Zn47 1.924 . S
O59 C67 1.311 . S
O60 Zn51 1.977 . S
O60 C66 1.272 . S
O61 Zn51 1.910 . S
O61 C67 1.231 1_554 S
C62 O46 1.225 . S
C62 O68 1.298 1_556 S
C63 O52 1.230 . S
C63 O53 1.303 1_556 S
C64 O56 1.303 1_554 S
C64 O57 1.247 . S
C65 O54 1.253 . S
C65 O55 1.283 . S
C66 O58 1.304 . S
C66 O60 1.272 . S
C67 O59 1.311 . S
C67 O61 1.231 1_556 S
O68 Zn50 1.953 . S
O68 C62 1.298 1_554 S
O69 Zn70 1.953 . S
O69 C85 1.225 . S
Zn70 O69 1.953 . S
Zn70 O71 1.949 1_556 S
Zn70 O77 1.919 . S
Zn70 O82 1.924 . S
O71 Zn70 1.949 1_554 S
O71 Zn72 1.923 1_554 S
O71 Zn73 1.950 . S
O71 Zn74 1.945 . S
Zn72 O71 1.923 1_556 S
Zn72 O75 1.933 . S
Zn72 O78 1.941 . S
Zn72 O79 1.965 . S
Zn73 O71 1.950 . S
Zn73 O80 1.938 . S
Zn73 O81 1.906 . S
Zn73 O91 1.953 . S
Zn74 O71 1.945 . S
Zn74 O76 1.932 . S
Zn74 O83 1.977 . S
Zn74 O84 1.910 . S
O75 Zn72 1.933 . S
O75 C86 1.230 . S
O76 Zn74 1.932 . S
O76 C86 1.303 1_554 S
O77 Zn70 1.919 . S
O77 C88 1.253 . S
O78 Zn72 1.941 . S
O78 C88 1.283 . S
O79 Zn72 1.965 . S
O79 C87 1.303 1_556 S
O80 Zn73 1.938 . S
O80 C87 1.247 . S
O81 Zn73 1.906 . S
O81 C89 1.304 . S
O82 Zn70 1.924 . S
O82 C90 1.311 . S
O83 Zn74 1.977 . S
O83 C89 1.272 . S
O84 Zn74 1.910 . S
O84 C90 1.231 1_554 S
C85 O69 1.225 . S
C85 O91 1.298 1_556 S
C86 O75 1.230 . S
C86 O76 1.303 1_556 S
C87 O79 1.303 1_554 S
C87 O80 1.247 . S
C88 O77 1.253 . S
C88 O78 1.283 . S
C89 O81 1.304 . S
C89 O83 1.272 . S
C90 O82 1.311 . S
C90 O84 1.231 1_556 S
O91 Zn73 1.953 . S
O91 C85 1.298 1_554 S
O92 Zn93 1.953 . S
O92 C108 1.225 . S
Zn93 O92 1.953 . S
Zn93 O94 1.949 1_556 S
Zn93 O100 1.919 . S
Zn93 O105 1.924 . S
O94 Zn93 1.949 1_554 S
O94 Zn95 1.923 1_554 S
O94 Zn96 1.950 . S
O94 Zn97 1.945 . S
Zn95 O94 1.923 1_556 S
Zn95 O98 1.933 . S
Zn95 O101 1.941 . S
Zn95 O102 1.965 . S
Zn96 O94 1.950 . S
Zn96 O103 1.938 . S
Zn96 O104 1.906 . S
Zn96 O114 1.953 . S
Zn97 O94 1.945 . S
Zn97 O99 1.932 . S
Zn97 O106 1.977 . S
Zn97 O107 1.910 . S
O98 Zn95 1.933 . S
O98 C109 1.230 . S
O99 Zn97 1.932 . S
O99 C109 1.303 1_554 S
O100 Zn93 1.919 . S
O100 C111 1.253 . S
O101 Zn95 1.941 . S
O101 C111 1.283 . S
O102 Zn95 1.965 . S
O102 C110 1.303 1_556 S
O103 Zn96 1.938 . S
O103 C110 1.247 . S
O104 Zn96 1.906 . S
O104 C112 1.304 . S
O105 Zn93 1.924 . S
O105 C113 1.311 . S
O106 Zn97 1.977 . S
O106 C112 1.272 . S
O107 Zn97 1.910 . S
O107 C113 1.231 1_554 S
C108 O92 1.225 . S
C108 O114 1.298 1_556 S
C109 O98 1.230 . S
C109 O99 1.303 1_556 S
C110 O102 1.303 1_554 S
C110 O103 1.247 . S
C111 O100 1.253 . S
C111 O101 1.283 . S
C112 O104 1.304 . S
C112 O106 1.272 . S
C113 O105 1.311 . S
C113 O107 1.231 1_556 S
O114 Zn96 1.953 . S
O114 C108 1.298 1_554 S
O115 Zn116 1.953 . S
O115 C131 1.225 . S
Zn116 O115 1.953 . S
Zn116 O117 1.949 1_556 S
Zn116 O123 1.919 . S
Zn116 O128 1.924 . S
O117 Zn116 1.949 1_554 S
O117 Zn118 1.923 1_554 S
O117 Zn119 1.950 . S
O117 Zn120 1.945 . S
Zn118 O117 1.923 1_556 S
Zn118 O121 1.933 . S
Zn118 O124 1.941 . S
Zn118 O125 1.965 . S
Zn119 O117 1.950 . S
Zn119 O126 1.938 . S
Zn119 O127 1.906 . S
Zn119 O137 1.953 . S
Zn120 O117 1.945 . S
Zn120 O122 1.932 . S
Zn120 O129 1.977 . S
Zn120 O130 1.910 . S
O121 Zn118 1.933 . S
O121 C132 1.230 . S
O122 Zn120 1.932 . S
O122 C132 1.303 1_554 S
O123 Zn116 1.919 . S
O123 C134 1.253 . S
O124 Zn118 1.941 . S
O124 C134 1.283 . S
O125 Zn118 1.965 . S
O125 C133 1.303 1_556 S
O126 Zn119 1.938 . S
O126 C133 1.247 . S
O127 Zn119 1.906 . S
O127 C135 1.304 . S
O128 Zn116 1.924 . S
O128 C136 1.311 . S
O129 Zn120 1.977 . S
O129 C135 1.272 . S
O130 Zn120 1.910 . S
O130 C136 1.231 1_554 S
C131 O115 1.225 . S
C131 O137 1.298 1_556 S
C132 O121 1.230 . S
C132 O122 1.303 1_556 S
C133 O125 1.303 1_554 S
C133 O126 1.247 . S
C134 O123 1.253 . S
C134 O124 1.283 . S
C135 O127 1.304 . S
C135 O129 1.272 . S
C136 O128 1.311 . S
C136 O130 1.231 1_556 S
O137 Zn119 1.953 . S
O137 C131 1.298 1_554 S
H138 C144 0.930 . S
H139 C148 0.930 . S
H140 C153 0.929 . S
H141 C151 0.929 . S
H142 C146 0.929 . S
H143 C152 0.929 . S
C144 H138 0.930 . S
C144 C145 1.367 1_554 S
C144 C152 1.378 . S
C145 C144 1.367 1_556 S
C145 C153 1.433 . S
C146 H142 0.929 . S
C146 C148 1.378 . S
C146 C150 1.350 . S
C147 C150 1.463 . S
C147 C152 1.350 1_556 S
C147 N155 1.427 . S
C148 H139 0.930 . S
C148 C146 1.378 . S
C148 C149 1.367 . S
C149 C148 1.367 . S
C149 C151 1.433 1_556 S
C150 C146 1.350 . S
C150 C147 1.463 . S
C150 N154 1.427 1_556 S
C151 H141 0.929 . S
C151 C149 1.433 1_554 S
C151 N154 1.384 . S
C152 H143 0.929 . S
C152 C144 1.378 . S
C152 C147 1.350 1_554 S
C153 H140 0.929 . S
C153 C145 1.433 . S
C153 N155 1.384 . S
N154 C150 1.427 1_554 S
N154 C151 1.384 . S
N155 C147 1.427 . S
N155 C153 1.384 . S
H156 C162 0.930 . S
H157 C166 0.930 . S
H158 C171 0.929 . S
H159 C169 0.929 . S
H160 C164 0.929 . S
H161 C170 0.929 . S
C162 H156 0.930 . S
C162 C163 1.367 . S
C162 C170 1.378 . S
C163 C162 1.367 . S
C163 C171 1.433 1_556 S
C164 H160 0.929 . S
C164 C166 1.378 . S
C164 C168 1.350 1_554 S
C165 C168 1.463 . S
C165 C170 1.350 1_655 S
C165 N173 1.427 1_656 S
C166 H157 0.930 . S
C166 C164 1.378 . S
C166 C167 1.367 1_554 S
C167 C166 1.367 1_556 S
C167 C169 1.433 . S
C168 C164 1.350 1_556 S
C168 C165 1.463 . S
C168 N172 1.427 . S
C169 H159 0.929 . S
C169 C167 1.433 . S
C169 N172 1.384 . S
C170 H161 0.929 . S
C170 C162 1.378 . S
C170 C165 1.350 1_455 S
C171 H158 0.929 . S
C171 C163 1.433 1_554 S
C171 N173 1.384 . S
N172 C168 1.427 . S
N172 C169 1.384 . S
N173 C165 1.427 1_454 S
N173 C171 1.384 . S
H174 C180 0.930 . S
H175 C184 0.930 . S
H176 C189 0.929 . S
H177 C187 0.929 . S
H178 C182 0.929 . S
H179 C188 0.929 . S
C180 H174 0.930 . S
C180 C181 1.367 1_554 S
C180 C188 1.378 . S
C181 C180 1.367 1_556 S
C181 C189 1.433 . S
C182 H178 0.929 . S
C182 C184 1.378 . S
C182 C186 1.350 . S
C183 C186 1.463 . S
C183 C188 1.350 1_566 S
C183 N191 1.427 1_565 S
C184 H175 0.930 . S
C184 C182 1.378 . S
C184 C185 1.367 . S
C185 C184 1.367 . S
C185 C187 1.433 1_556 S
C186 C182 1.350 . S
C186 C183 1.463 . S
C186 N190 1.427 1_556 S
C187 H177 0.929 . S
C187 C185 1.433 1_554 S
C187 N190 1.384 . S
C188 H179 0.929 . S
C188 C180 1.378 . S
C188 C183 1.350 1_544 S
C189 H176 0.929 . S
C189 C181 1.433 . S
C189 N191 1.384 . S
N190 C186 1.427 1_554 S
N190 C187 1.384 . S
N191 C183 1.427 1_545 S
N191 C189 1.384 . S
H192 C198 0.930 . S
H193 C202 0.930 . S
H194 C207 0.929 . S
H195 C205 0.929 . S
H196 C200 0.929 . S
H197 C206 0.929 . S
C198 H192 0.930 . S
C198 C199 1.367 1_554 S
C198 C206 1.378 . S
C199 C198 1.367 1_556 S
C199 C207 1.433 . S
C200 H196 0.929 . S
C200 C202 1.378 . S
C200 C204 1.350 . S
C201 C204 1.463 . S
C201 C206 1.350 1_556 S
C201 N209 1.427 . S
C202 H193 0.930 . S
C202 C200 1.378 . S
C202 C203 1.367 . S
C203 C202 1.367 . S
C203 C205 1.433 1_556 S
C204 C200 1.350 . S
C204 C201 1.463 . S
C204 N208 1.427 1_556 S
C205 H195 0.929 . S
C205 C203 1.433 1_554 S
C205 N208 1.384 . S
C206 H197 0.929 . S
C206 C198 1.378 . S
C206 C201 1.350 1_554 S
C207 H194 0.929 . S
C207 C199 1.433 . S
C207 N209 1.384 . S
N208 C204 1.427 1_554 S
N208 C205 1.384 . S
N209 C201 1.427 . S
N209 C207 1.384 . S
H210 C216 0.930 . S
H211 C220 0.930 . S
H212 C225 0.929 . S
H213 C223 0.929 . S
H214 C218 0.929 . S
H215 C224 0.929 . S
C216 H210 0.930 . S
C216 C217 1.367 . S
C216 C224 1.378 . S
C217 C216 1.367 . S
C217 C225 1.433 1_556 S
C218 H214 0.929 . S
C218 C220 1.378 . S
C218 C222 1.350 1_654 S
C219 C222 1.463 . S
C219 C224 1.350 . S
C219 N227 1.427 1_556 S
C220 H211 0.930 . S
C220 C218 1.378 . S
C220 C221 1.367 1_554 S
C221 C220 1.367 1_556 S
C221 C223 1.433 . S
C222 C218 1.350 1_456 S
C222 C219 1.463 . S
C222 N226 1.427 1_455 S
C223 H213 0.929 . S
C223 C221 1.433 . S
C223 N226 1.384 . S
C224 H215 0.929 . S
C224 C216 1.378 . S
C224 C219 1.350 . S
C225 H212 0.929 . S
C225 C217 1.433 1_554 S
C225 N227 1.384 . S
N226 C222 1.427 1_655 S
N226 C223 1.384 . S
N227 C219 1.427 1_554 S
N227 C225 1.384 . S
H228 C234 0.930 . S
H229 C238 0.930 . S
H230 C243 0.929 . S
H231 C241 0.929 . S
H232 C236 0.929 . S
H233 C242 0.929 . S
C234 H228 0.930 . S
C234 C235 1.367 . S
C234 C242 1.378 . S
C235 C234 1.367 . S
C235 C243 1.433 1_556 S
C236 H232 0.929 . S
C236 C238 1.378 . S
C236 C240 1.350 1_554 S
C237 C240 1.463 . S
C237 C242 1.350 1_545 S
C237 N245 1.427 1_546 S
C238 H229 0.930 . S
C238 C236 1.378 . S
C238 C239 1.367 1_554 S
C239 C238 1.367 1_556 S
C239 C241 1.433 . S
C240 C236 1.350 1_556 S
C240 C237 1.463 . S
C240 N244 1.427 . S
C241 H231 0.929 . S
C241 C239 1.433 . S
C241 N244 1.384 . S
C242 H233 0.929 . S
C242 C234 1.378 . S
C242 C237 1.350 1_565 S
C243 H230 0.929 . S
C243 C235 1.433 1_554 S
C243 N245 1.384 . S
N244 C240 1.427 . S
N244 C241 1.384 . S
N245 C237 1.427 1_564 S
N245 C243 1.384 . S
H246 C252 0.930 . S
H247 C256 0.930 . S
H248 C261 0.929 . S
H249 C259 0.929 . S
H250 C254 0.929 . S
H251 C260 0.929 . S
C252 H246 0.930 . S
C252 C253 1.367 . S
C252 C260 1.378 . S
C253 C252 1.367 . S
C253 C261 1.433 1_556 S
C254 H250 0.929 . S
C254 C256 1.378 . S
C254 C258 1.350 . S
C255 C258 1.463 1_556 S
C255 C260 1.350 . S
C255 N263 1.427 1_556 S
C256 H247 0.930 . S
C256 C254 1.378 . S
C256 C257 1.367 . S
C257 C256 1.367 . S
C257 C259 1.433 1_554 S
C258 C254 1.350 . S
C258 C255 1.463 1_554 S
C258 N262 1.427 1_554 S
C259 H249 0.929 . S
C259 C257 1.433 1_556 S
C259 N262 1.384 . S
C260 H251 0.929 . S
C260 C252 1.378 . S
C260 C255 1.350 . S
C261 H248 0.929 . S
C261 C253 1.433 1_554 S
C261 N263 1.384 . S
N262 C258 1.427 1_556 S
N262 C259 1.384 . S
N263 C255 1.427 1_554 S
N263 C261 1.384 . S
H264 C270 0.930 . S
H265 C274 0.930 . S
H266 C279 0.929 . S
H267 C277 0.929 . S
H268 C272 0.929 . S
H269 C278 0.929 . S
C270 H264 0.930 . S
C270 C271 1.367 . S
C270 C278 1.378 . S
C271 C270 1.367 . S
C271 C279 1.433 1_556 S
C272 H268 0.929 . S
C272 C274 1.378 . S
C272 C276 1.350 . S
C273 C276 1.463 1_556 S
C273 C278 1.350 . S
C273 N281 1.427 1_556 S
C274 H265 0.930 . S
C274 C272 1.378 . S
C274 C275 1.367 . S
C275 C274 1.367 . S
C275 C277 1.433 1_554 S
C276 C272 1.350 . S
C276 C273 1.463 1_554 S
C276 N280 1.427 1_554 S
C277 H267 0.929 . S
C277 C275 1.433 1_556 S
C277 N280 1.384 . S
C278 H269 0.929 . S
C278 C270 1.378 . S
C278 C273 1.350 . S
C279 H266 0.929 . S
C279 C271 1.433 1_554 S
C279 N281 1.384 . S
N280 C276 1.427 1_556 S
N280 C277 1.384 . S
N281 C273 1.427 1_554 S
N281 C279 1.384 . S
H282 C288 0.930 . S
H283 C292 0.930 . S
H284 C297 0.929 . S
H285 C295 0.929 . S
H286 C290 0.929 . S
H287 C296 0.929 . S
C288 H282 0.930 . S
C288 C289 1.367 . S
C288 C296 1.378 . S
C289 C288 1.367 . S
C289 C297 1.433 1_554 S
C290 H286 0.929 . S
C290 C292 1.378 . S
C290 C294 1.350 . S
C291 C294 1.463 1_554 S
C291 C296 1.350 . S
C291 N299 1.427 1_554 S
C292 H283 0.930 . S
C292 C290 1.378 . S
C292 C293 1.367 . S
C293 C292 1.367 . S
C293 C295 1.433 1_556 S
C294 C290 1.350 . S
C294 C291 1.463 1_556 S
C294 N298 1.427 1_556 S
C295 H285 0.929 . S
C295 C293 1.433 1_554 S
C295 N298 1.384 . S
C296 H287 0.929 . S
C296 C288 1.378 . S
C296 C291 1.350 . S
C297 H284 0.929 . S
C297 C289 1.433 1_556 S
C297 N299 1.384 . S
N298 C294 1.427 1_554 S
N298 C295 1.384 . S
N299 C291 1.427 1_556 S
N299 C297 1.384 . S
H300 C306 0.930 . S
H301 C310 0.930 . S
H302 C315 0.929 . S
H303 C313 0.929 . S
H304 C308 0.929 . S
H305 C314 0.929 . S
C306 H300 0.930 . S
C306 C307 1.357 1_556 S
C306 C314 1.378 . S
C307 C306 1.357 1_554 S
C307 C315 1.443 . S
C308 H304 0.929 . S
C308 C310 1.378 . S
C308 C312 1.350 . S
C309 C312 1.463 1_556 S
C309 C314 1.350 . S
C309 N317 1.427 1_556 S
C310 H301 0.930 . S
C310 C308 1.378 . S
C310 C311 1.366 . S
C311 C310 1.366 . S
C311 C313 1.434 1_554 S
C312 C308 1.350 . S
C312 C309 1.463 1_554 S
C312 N316 1.427 1_554 S
C313 H303 0.929 . S
C313 C311 1.434 1_556 S
C313 N316 1.384 . S
C314 H305 0.929 . S
C314 C306 1.378 . S
C314 C309 1.350 . S
C315 H302 0.929 . S
C315 C307 1.443 . S
C315 N317 1.384 . S
N316 C312 1.427 1_556 S
N316 C313 1.384 . S
N317 C309 1.427 1_554 S
N317 C315 1.384 . S
H318 C324 0.930 . S
H319 C328 0.930 . S
H320 C333 0.929 . S
H321 C331 0.929 . S
H322 C326 0.929 . S
H323 C332 0.929 . S
C324 H318 0.930 . S
C324 C325 1.357 1_556 S
C324 C332 1.378 . S
C325 C324 1.357 1_554 S
C325 C333 1.443 . S
C326 H322 0.929 . S
C326 C328 1.378 . S
C326 C330 1.350 . S
C327 C330 1.463 1_556 S
C327 C332 1.350 . S
C327 N335 1.427 1_556 S
C328 H319 0.930 . S
C328 C326 1.378 . S
C328 C329 1.368 . S
C329 C328 1.368 . S
C329 C331 1.433 1_554 S
C330 C326 1.350 . S
C330 C327 1.463 1_554 S
C330 N334 1.427 1_554 S
C331 H321 0.929 . S
C331 C329 1.433 1_556 S
C331 N334 1.384 . S
C332 H323 0.929 . S
C332 C324 1.378 . S
C332 C327 1.350 . S
C333 H320 0.929 . S
C333 C325 1.443 . S
C333 N335 1.384 . S
N334 C330 1.427 1_556 S
N334 C331 1.384 . S
N335 C327 1.427 1_554 S
N335 C333 1.384 . S
H336 C342 0.930 . S
H337 C346 0.930 . S
H338 C351 0.929 . S
H339 C349 0.929 . S
H340 C344 0.929 . S
H341 C350 0.929 . S
C342 H336 0.930 . S
C342 C343 1.366 . S
C342 C350 1.378 . S
C343 C342 1.366 . S
C343 C351 1.434 1_554 S
C344 H340 0.929 . S
C344 C346 1.378 . S
C344 C348 1.350 . S
C345 C348 1.463 1_554 S
C345 C350 1.350 . S
C345 N353 1.427 1_554 S
C346 H337 0.930 . S
C346 C344 1.378 . S
C346 C347 1.356 1_556 S
C347 C346 1.356 1_554 S
C347 C349 1.444 . S
C348 C344 1.350 . S
C348 C345 1.463 1_556 S
C348 N352 1.427 1_556 S
C349 H339 0.929 . S
C349 C347 1.444 . S
C349 N352 1.384 . S
C350 H341 0.929 . S
C350 C342 1.378 . S
C350 C345 1.350 . S
C351 H338 0.929 . S
C351 C343 1.434 1_556 S
C351 N353 1.384 . S
N352 C348 1.427 1_554 S
N352 C349 1.384 . S
N353 C345 1.427 1_556 S
N353 C351 1.384 . S
H354 C360 0.930 . S
H355 C364 0.930 . S
H356 C369 0.929 . S
H357 C367 0.929 . S
H358 C362 0.929 . S
H359 C368 0.929 . S
C360 H354 0.930 . S
C360 C361 1.367 . S
C360 C368 1.378 . S
C361 C360 1.367 . S
C361 C369 1.433 . S
C362 H358 0.929 . S
C362 C364 1.378 . S
C362 C366 1.350 . S
C363 C366 1.463 . S
C363 C368 1.350 . S
C363 N371 1.427 . S
C364 H355 0.930 . S
C364 C362 1.378 . S
C364 C365 1.367 . S
C365 C364 1.367 . S
C365 C367 1.433 . S
C366 C362 1.350 . S
C366 C363 1.463 . S
C366 N370 1.427 . S
C367 H357 0.929 . S
C367 C365 1.433 . S
C367 N370 1.384 . S
C368 H359 0.929 . S
C368 C360 1.378 . S
C368 C363 1.350 . S
C369 H356 0.929 . S
C369 C361 1.433 . S
C369 N371 1.384 . S
N370 C366 1.427 . S
N370 C367 1.384 . S
N371 C363 1.427 . S
N371 C369 1.384 . S
H372 C378 0.930 . S
H373 C382 0.930 . S
H374 C387 0.929 . S
H375 C385 0.929 . S
H376 C380 0.929 . S
H377 C386 0.929 . S
C378 H372 0.930 . S
C378 C379 1.367 . S
C378 C386 1.378 . S
C379 C378 1.367 . S
C379 C387 1.433 . S
C380 H376 0.929 . S
C380 C382 1.378 . S
C380 C384 1.350 . S
C381 C384 1.463 . S
C381 C386 1.350 . S
C381 N389 1.427 . S
C382 H373 0.930 . S
C382 C380 1.378 . S
C382 C383 1.367 . S
C383 C382 1.367 . S
C383 C385 1.433 . S
C384 C380 1.350 . S
C384 C381 1.463 . S
C384 N388 1.427 . S
C385 H375 0.929 . S
C385 C383 1.433 . S
C385 N388 1.384 . S
C386 H377 0.929 . S
C386 C378 1.378 . S
C386 C381 1.350 . S
C387 H374 0.929 . S
C387 C379 1.433 . S
C387 N389 1.384 . S
N388 C384 1.427 . S
N388 C385 1.384 . S
N389 C381 1.427 . S
N389 C387 1.384 . S
H390 C396 0.930 . S
H391 C400 0.930 . S
H392 C405 0.929 . S
H393 C403 0.929 . S
H394 C398 0.929 . S
H395 C404 0.929 . S
C396 H390 0.930 . S
C396 C397 1.367 . S
C396 C404 1.378 . S
C397 C396 1.367 . S
C397 C405 1.433 . S
C398 H394 0.929 . S
C398 C400 1.378 . S
C398 C402 1.350 . S
C399 C402 1.463 . S
C399 C404 1.350 . S
C399 N407 1.427 . S
C400 H391 0.930 . S
C400 C398 1.378 . S
C400 C401 1.367 . S
C401 C400 1.367 . S
C401 C403 1.433 . S
C402 C398 1.350 . S
C402 C399 1.463 . S
C402 N406 1.427 . S
C403 H393 0.929 . S
C403 C401 1.433 . S
C403 N406 1.384 . S
C404 H395 0.929 . S
C404 C396 1.378 . S
C404 C399 1.350 . S
C405 H392 0.929 . S
C405 C397 1.433 . S
C405 N407 1.384 . S
N406 C402 1.427 . S
N406 C403 1.384 . S
N407 C399 1.427 . S
N407 C405 1.384 . S
H408 C414 0.930 . S
H409 C418 0.930 . S
H410 C423 0.929 . S
H411 C421 0.929 . S
H412 C416 0.929 . S
H413 C422 0.929 . S
C414 H408 0.930 . S
C414 C415 1.367 . S
C414 C422 1.378 . S
C415 C414 1.367 . S
C415 C423 1.433 . S
C416 H412 0.929 . S
C416 C418 1.378 . S
C416 C420 1.350 . S
C417 C420 1.463 . S
C417 C422 1.350 . S
C417 N425 1.427 . S
C418 H409 0.930 . S
C418 C416 1.378 . S
C418 C419 1.367 . S
C419 C418 1.367 . S
C419 C421 1.433 . S
C420 C416 1.350 . S
C420 C417 1.463 . S
C420 N424 1.427 . S
C421 H411 0.929 . S
C421 C419 1.433 . S
C421 N424 1.384 . S
C422 H413 0.929 . S
C422 C414 1.378 . S
C422 C417 1.350 . S
C423 H410 0.929 . S
C423 C415 1.433 . S
C423 N425 1.384 . S
N424 C420 1.427 . S
N424 C421 1.384 . S
N425 C417 1.427 . S
N425 C423 1.384 . S
H426 C432 0.930 . S
H427 C436 0.930 . S
H428 C441 0.929 . S
H429 C439 0.929 . S
H430 C434 0.929 . S
H431 C440 0.929 . S
C432 H426 0.930 . S
C432 C433 1.367 . S
C432 C440 1.378 . S
C433 C432 1.367 . S
C433 C441 1.433 . S
C434 H430 0.929 . S
C434 C436 1.378 . S
C434 C438 1.350 . S
C435 C438 1.463 . S
C435 C440 1.350 . S
C435 N443 1.427 . S
C436 H427 0.930 . S
C436 C434 1.378 . S
C436 C437 1.367 . S
C437 C436 1.367 . S
C437 C439 1.433 . S
C438 C434 1.350 . S
C438 C435 1.463 . S
C438 N442 1.427 . S
C439 H429 0.929 . S
C439 C437 1.433 . S
C439 N442 1.384 . S
C440 H431 0.929 . S
C440 C432 1.378 . S
C440 C435 1.350 . S
C441 H428 0.929 . S
C441 C433 1.433 . S
C441 N443 1.384 . S
N442 C438 1.427 . S
N442 C439 1.384 . S
N443 C435 1.427 . S
N443 C441 1.384 . S
H444 C450 0.930 . S
H445 C454 0.930 . S
H446 C459 0.929 . S
H447 C457 0.929 . S
H448 C452 0.929 . S
H449 C458 0.929 . S
C450 H444 0.930 . S
C450 C451 1.367 . S
C450 C458 1.378 . S
C451 C450 1.367 . S
C451 C459 1.433 . S
C452 H448 0.929 . S
C452 C454 1.378 . S
C452 C456 1.350 . S
C453 C456 1.463 . S
C453 C458 1.350 . S
C453 N461 1.427 . S
C454 H445 0.930 . S
C454 C452 1.378 . S
C454 C455 1.367 . S
C455 C454 1.367 . S
C455 C457 1.433 . S
C456 C452 1.350 . S
C456 C453 1.463 . S
C456 N460 1.427 . S
C457 H447 0.929 . S
C457 C455 1.433 . S
C457 N460 1.384 . S
C458 H449 0.929 . S
C458 C450 1.378 . S
C458 C453 1.350 . S
C459 H446 0.929 . S
C459 C451 1.433 . S
C459 N461 1.384 . S
N460 C456 1.427 . S
N460 C457 1.384 . S
N461 C453 1.427 . S
N461 C459 1.384 . S
C145 C132 1.479 . S
C149 C18 1.467 1_556 S
C163 C17 1.478 . S
C167 C41 1.461 1_556 S
C181 C40 1.478 . S
C185 C64 1.465 1_556 S
C199 C87 1.462 1_556 S
C203 C63 1.478 . S
C217 C110 1.464 1_556 S
C221 C86 1.478 . S
C235 C109 1.482 . S
C239 C133 1.464 1_556 S
C253 C108 1.456 . S
C257 C21 1.462 1_554 S
C271 C131 1.456 . S
C275 C44 1.462 1_554 S
C289 C67 1.464 1_554 S
C293 C16 1.461 . S
C307 C90 1.459 1_554 S
C311 C39 1.458 1_554 S
C325 C113 1.459 1_554 S
C329 C62 1.459 1_554 S
C343 C85 1.461 1_554 S
C347 C136 1.460 1_554 S
C361 C19 1.446 . S
C365 C20 1.445 . S
C379 C42 1.435 . S
C383 C43 1.451 . S
C397 C65 1.439 . S
C401 C66 1.455 . S
C415 C88 1.445 . S
C419 C89 1.450 . S
C433 C112 1.456 . S
C437 C111 1.436 . S
C451 C134 1.443 . S
C455 C135 1.452 . S
