# Generated by pormake.
# Topology umk, (4)-cn, num edge types: 1
# Building blocks:
#     Node 0, Type 0, BuildingBlock: TATPOV_clean_sbu_0, # of connection points: 4
#     Node 1, Type 0, BuildingBlock: TATPOV_clean_sbu_0, # of connection points: 4
#     Node 2, Type 0, BuildingBlock: TATPOV_clean_sbu_0, # of connection points: 4
#     Node 3, Type 0, BuildingBlock: TATPOV_clean_sbu_0, # of connection points: 4
#     Node 4, Type 0, BuildingBlock: TATPOV_clean_sbu_0, # of connection points: 4
#     Node 5, Type 0, BuildingBlock: TATPOV_clean_sbu_0, # of connection points: 4
#     Node 6, Type 0, BuildingBlock: TATPOV_clean_sbu_0, # of connection points: 4
#     Node 7, Type 0, BuildingBlock: TATPOV_clean_sbu_0, # of connection points: 4
#     Node 8, Type 0, BuildingBlock: TATPOV_clean_sbu_0, # of connection points: 4
#     Node 9, Type 0, BuildingBlock: TATPOV_clean_sbu_0, # of connection points: 4
#     Node 10, Type 0, BuildingBlock: TATPOV_clean_sbu_0, # of connection points: 4
#     Node 11, Type 0, BuildingBlock: TATPOV_clean_sbu_0, # of connection points: 4
#     Node 12, Type 0, BuildingBlock: TATPOV_clean_sbu_0, # of connection points: 4
#     Node 13, Type 0, BuildingBlock: TATPOV_clean_sbu_0, # of connection points: 4
#     Node 14, Type 0, BuildingBlock: TATPOV_clean_sbu_0, # of connection points: 4
#     Node 15, Type 0, BuildingBlock: TATPOV_clean_sbu_0, # of connection points: 4
#     Node 16, Type 0, BuildingBlock: TATPOV_clean_sbu_0, # of connection points: 4
#     Node 17, Type 0, BuildingBlock: TATPOV_clean_sbu_0, # of connection points: 4
#     Node 18, Type 0, BuildingBlock: TATPOV_clean_sbu_0, # of connection points: 4
#     Node 19, Type 0, BuildingBlock: TATPOV_clean_sbu_0, # of connection points: 4
#     Node 20, Type 0, BuildingBlock: TATPOV_clean_sbu_0, # of connection points: 4
#     Node 21, Type 0, BuildingBlock: TATPOV_clean_sbu_0, # of connection points: 4
#     Node 22, Type 0, BuildingBlock: TATPOV_clean_sbu_0, # of connection points: 4
#     Node 23, Type 0, BuildingBlock: TATPOV_clean_sbu_0, # of connection points: 4
#     Edge 24, Type (0, 0), BuildingBlock: CIFDUS_clean_linker_0, # of connection points: 2
#     Edge 25, Type (0, 0), BuildingBlock: CIFDUS_clean_linker_0, # of connection points: 2
#     Edge 26, Type (0, 0), BuildingBlock: CIFDUS_clean_linker_0, # of connection points: 2
#     Edge 27, Type (0, 0), BuildingBlock: CIFDUS_clean_linker_0, # of connection points: 2
#     Edge 28, Type (0, 0), BuildingBlock: CIFDUS_clean_linker_0, # of connection points: 2
#     Edge 29, Type (0, 0), BuildingBlock: CIFDUS_clean_linker_0, # of connection points: 2
#     Edge 30, Type (0, 0), BuildingBlock: CIFDUS_clean_linker_0, # of connection points: 2
#     Edge 31, Type (0, 0), BuildingBlock: CIFDUS_clean_linker_0, # of connection points: 2
#     Edge 32, Type (0, 0), BuildingBlock: CIFDUS_clean_linker_0, # of connection points: 2
#     Edge 33, Type (0, 0), BuildingBlock: CIFDUS_clean_linker_0, # of connection points: 2
#     Edge 34, Type (0, 0), BuildingBlock: CIFDUS_clean_linker_0, # of connection points: 2
#     Edge 35, Type (0, 0), BuildingBlock: CIFDUS_clean_linker_0, # of connection points: 2
#     Edge 36, Type (0, 0), BuildingBlock: CIFDUS_clean_linker_0, # of connection points: 2
#     Edge 37, Type (0, 0), BuildingBlock: CIFDUS_clean_linker_0, # of connection points: 2
#     Edge 38, Type (0, 0), BuildingBlock: CIFDUS_clean_linker_0, # of connection points: 2
#     Edge 39, Type (0, 0), BuildingBlock: CIFDUS_clean_linker_0, # of connection points: 2
#     Edge 40, Type (0, 0), BuildingBlock: CIFDUS_clean_linker_0, # of connection points: 2
#     Edge 41, Type (0, 0), BuildingBlock: CIFDUS_clean_linker_0, # of connection points: 2
#     Edge 42, Type (0, 0), BuildingBlock: CIFDUS_clean_linker_0, # of connection points: 2
#     Edge 43, Type (0, 0), BuildingBlock: CIFDUS_clean_linker_0, # of connection points: 2
#     Edge 44, Type (0, 0), BuildingBlock: CIFDUS_clean_linker_0, # of connection points: 2
#     Edge 45, Type (0, 0), BuildingBlock: CIFDUS_clean_linker_0, # of connection points: 2
#     Edge 46, Type (0, 0), BuildingBlock: CIFDUS_clean_linker_0, # of connection points: 2
#     Edge 47, Type (0, 0), BuildingBlock: CIFDUS_clean_linker_0, # of connection points: 2
#     Edge 48, Type (0, 0), BuildingBlock: CIFDUS_clean_linker_0, # of connection points: 2
#     Edge 49, Type (0, 0), BuildingBlock: CIFDUS_clean_linker_0, # of connection points: 2
#     Edge 50, Type (0, 0), BuildingBlock: CIFDUS_clean_linker_0, # of connection points: 2
#     Edge 51, Type (0, 0), BuildingBlock: CIFDUS_clean_linker_0, # of connection points: 2
#     Edge 52, Type (0, 0), BuildingBlock: CIFDUS_clean_linker_0, # of connection points: 2
#     Edge 53, Type (0, 0), BuildingBlock: CIFDUS_clean_linker_0, # of connection points: 2
#     Edge 54, Type (0, 0), BuildingBlock: CIFDUS_clean_linker_0, # of connection points: 2
#     Edge 55, Type (0, 0), BuildingBlock: CIFDUS_clean_linker_0, # of connection points: 2
#     Edge 56, Type (0, 0), BuildingBlock: CIFDUS_clean_linker_0, # of connection points: 2
#     Edge 57, Type (0, 0), BuildingBlock: CIFDUS_clean_linker_0, # of connection points: 2
#     Edge 58, Type (0, 0), BuildingBlock: CIFDUS_clean_linker_0, # of connection points: 2
#     Edge 59, Type (0, 0), BuildingBlock: CIFDUS_clean_linker_0, # of connection points: 2
#     Edge 60, Type (0, 0), BuildingBlock: CIFDUS_clean_linker_0, # of connection points: 2
#     Edge 61, Type (0, 0), BuildingBlock: CIFDUS_clean_linker_0, # of connection points: 2
#     Edge 62, Type (0, 0), BuildingBlock: CIFDUS_clean_linker_0, # of connection points: 2
#     Edge 63, Type (0, 0), BuildingBlock: CIFDUS_clean_linker_0, # of connection points: 2
#     Edge 64, Type (0, 0), BuildingBlock: CIFDUS_clean_linker_0, # of connection points: 2
#     Edge 65, Type (0, 0), BuildingBlock: CIFDUS_clean_linker_0, # of connection points: 2
#     Edge 66, Type (0, 0), BuildingBlock: CIFDUS_clean_linker_0, # of connection points: 2
#     Edge 67, Type (0, 0), BuildingBlock: CIFDUS_clean_linker_0, # of connection points: 2
#     Edge 68, Type (0, 0), BuildingBlock: CIFDUS_clean_linker_0, # of connection points: 2
#     Edge 69, Type (0, 0), BuildingBlock: CIFDUS_clean_linker_0, # of connection points: 2
#     Edge 70, Type (0, 0), BuildingBlock: CIFDUS_clean_linker_0, # of connection points: 2
#     Edge 71, Type (0, 0), BuildingBlock: CIFDUS_clean_linker_0, # of connection points: 2
# Relax obj value: 0.094
# Max RMSD: 0.113
# Mean RMSD: 0.113
data_MOF--net-umk--node1-TATPOV_clean_sbu_0--edge1-CIFDUS_clean_linker_0
_symmetry_space_group_name_H-M    P1
_symmetry_Int_Tables_number       1
_symmetry_cell_setting            triclinic
loop_
_symmetry_equiv_pos_as_xyz
'x, y, z'
_cell_length_a     57.267169
_cell_length_b     57.279715
_cell_length_c     37.912526
_cell_angle_alpha  89.98945
_cell_angle_beta   90.018635
_cell_angle_gamma 119.94309
loop_
_atom_site_label
_atom_site_type_symbol
_atom_site_fract_x
_atom_site_fract_y
_atom_site_fract_z
_atom_type_partial_charge
Zn0 Zn 0.36271 0.47654 0.10765 0.0
Zn1 Zn 0.31454 0.45202 0.07751 0.0
O2 O 0.30537 0.45291 0.13064 0.0
O3 O 0.34592 0.47542 0.15421 0.0
O4 O 0.27964 0.43932 0.05249 0.0
O5 O 0.37626 0.50982 0.07817 0.0
O6 O 0.33726 0.48811 0.05089 0.0
C7 C 0.32058 0.46367 0.15736 0.0
C8 C 0.34784 0.42511 0.07307 0.0
O9 O 0.32575 0.42416 0.06557 0.0
O10 O 0.36599 0.4447 0.0904 0.0
C11 C 0.26129 0.41591 0.04344 0.0
O12 O 0.26306 0.3947 0.05246 0.0
C13 C 0.36053 0.50889 0.05412 0.0
Zn14 Zn 0.90486 0.37155 0.59505 0.0
Zn15 Zn 0.8693 0.32256 0.58639 0.0
O16 O 0.86786 0.32635 0.64085 0.0
O17 O 0.90332 0.36666 0.64724 0.0
O18 O 0.83928 0.28508 0.57503 0.0
O19 O 0.88368 0.38684 0.57378 0.0
O20 O 0.85736 0.34532 0.55558 0.0
C21 C 0.88431 0.34551 0.66079 0.0
C22 C 0.92658 0.34234 0.56159 0.0
O23 O 0.90408 0.32249 0.571 0.0
O24 O 0.9312 0.36617 0.56593 0.0
C25 C 0.84094 0.27257 0.54829 0.0
O26 O 0.86334 0.28347 0.52984 0.0
C27 C 0.86389 0.37014 0.5556 0.0
Zn28 Zn 0.54549 0.91271 0.08641 0.0
Zn29 Zn 0.54534 0.8722 0.06157 0.0
O30 O 0.53997 0.86282 0.11482 0.0
O31 O 0.52898 0.89285 0.13145 0.0
O32 O 0.54946 0.84274 0.04103 0.0
O33 O 0.52054 0.9104 0.04668 0.0
O34 O 0.51181 0.86894 0.0372 0.0
C35 C 0.53086 0.87222 0.13808 0.0
C36 C 0.59472 0.92827 0.05565 0.0
O37 O 0.58006 0.90481 0.0431 0.0
O38 O 0.58592 0.93609 0.08092 0.0
C39 C 0.57015 0.84097 0.04847 0.0
O40 O 0.5877 0.85769 0.07148 0.0
C41 C 0.50668 0.88784 0.03153 0.0
Zn42 Zn 0.6207 0.52488 0.58287 0.0
Zn43 Zn 0.66683 0.53475 0.56381 0.0
O44 O 0.67169 0.53578 0.61786 0.0
O45 O 0.63571 0.53835 0.63132 0.0
O46 O 0.70276 0.54374 0.54356 0.0
O47 O 0.60305 0.48557 0.57157 0.0
O48 O 0.64029 0.49723 0.54211 0.0
C49 C 0.65764 0.53977 0.6405 0.0
C50 C 0.6431 0.56945 0.539 0.0
O51 O 0.66346 0.56693 0.5461 0.0
O52 O 0.61982 0.55101 0.54786 0.0
C53 C 0.7251 0.55723 0.5596 0.0
O54 O 0.72547 0.56511 0.59222 0.0
C55 C 0.6161 0.47963 0.55 0.0
Zn56 Zn 0.06701 0.63505 0.10168 0.0
Zn57 Zn 0.11038 0.6652 0.06461 0.0
O58 O 0.1179 0.68202 0.11473 0.0
O59 O 0.08097 0.65744 0.14532 0.0
O60 O 0.14303 0.69324 0.0397 0.0
O61 O 0.07382 0.60387 0.09002 0.0
O62 O 0.11114 0.62999 0.06074 0.0
C63 C 0.10459 0.67735 0.14328 0.0
C64 C 0.05495 0.6548 0.03978 0.0
O65 O 0.07968 0.66314 0.03339 0.0
O66 O 0.04473 0.64327 0.06874 0.0
C67 C 0.14281 0.71509 0.03504 0.0
O68 O 0.12181 0.71671 0.04561 0.0
C69 C 0.09383 0.60673 0.07209 0.0
Zn70 Zn 0.48745 0.10299 0.59727 0.0
Zn71 Zn 0.4692 0.13269 0.58095 0.0
O72 O 0.46789 0.13564 0.63494 0.0
O73 O 0.47241 0.10044 0.64603 0.0
O74 O 0.45477 0.15528 0.56147 0.0
O75 O 0.52589 0.13031 0.58699 0.0
O76 O 0.50732 0.14995 0.55787 0.0
C77 C 0.46705 0.11822 0.65656 0.0
C78 C 0.4428 0.0748 0.55496 0.0
O79 O 0.44057 0.0949 0.56436 0.0
O80 O 0.4645 0.07478 0.56105 0.0
C81 C 0.43236 0.15341 0.56955 0.0
O82 O 0.41726 0.13644 0.59418 0.0
C83 C 0.52806 0.14814 0.5655 0.0
Zn84 Zn 0.50979 0.61206 0.90078 0.0
Zn85 Zn 0.52755 0.66156 0.91933 0.0
O86 O 0.53109 0.66403 0.86548 0.0
O87 O 0.52335 0.62364 0.85101 0.0
O88 O 0.53773 0.69915 0.93178 0.0
O89 O 0.4715 0.60086 0.91387 0.0
O90 O 0.48955 0.63989 0.94104 0.0
C91 C 0.53023 0.64757 0.84232 0.0
C92 C 0.55301 0.63234 0.95233 0.0
O93 O 0.55533 0.655 0.94473 0.0
O94 O 0.53422 0.61091 0.93887 0.0
C95 C 0.56024 0.71694 0.94424 0.0
O96 O 0.57935 0.71111 0.95018 0.0
C97 C 0.46926 0.61672 0.93501 0.0
Zn98 Zn 0.89466 0.51547 0.40211 0.0
Zn99 Zn 0.87053 0.53728 0.42667 0.0
O100 O 0.86197 0.53651 0.37344 0.0
O101 O 0.89355 0.5288 0.35372 0.0
O102 O 0.84885 0.55184 0.45003 0.0
O103 O 0.86842 0.47782 0.41728 0.0
O104 O 0.85663 0.50038 0.4527 0.0
C105 C 0.87593 0.53549 0.34802 0.0
C106 C 0.92999 0.56164 0.44028 0.0
O107 O 0.91029 0.56587 0.43665 0.0
O108 O 0.92698 0.53885 0.43228 0.0
C109 C 0.83843 0.56387 0.43383 0.0
O110 O 0.84265 0.56848 0.39985 0.0
C111 C 0.85581 0.47837 0.44429 0.0
Zn112 Zn 0.35575 0.91023 0.88746 0.0
Zn113 Zn 0.32941 0.86935 0.93153 0.0
O114 O 0.31374 0.85357 0.88261 0.0
O115 O 0.33506 0.88754 0.84594 0.0
O116 O 0.30469 0.83831 0.96183 0.0
O117 O 0.39004 0.91099 0.90573 0.0
O118 O 0.36694 0.87498 0.93889 0.0
C119 C 0.31769 0.86317 0.85157 0.0
C120 C 0.3305 0.92346 0.94188 0.0
O121 O 0.32581 0.9006 0.95328 0.0
O122 O 0.34174 0.93183 0.91223 0.0
C123 C 0.28076 0.8341 0.95989 0.0
O124 O 0.27608 0.85041 0.9406 0.0
C125 C 0.38938 0.89349 0.92692 0.0
Zn126 Zn 0.46621 0.36346 0.38705 0.0
Zn127 Zn 0.44866 0.31481 0.41483 0.0
O128 O 0.46002 0.31148 0.36399 0.0
O129 O 0.47664 0.35249 0.34251 0.0
O130 O 0.4393 0.27872 0.43375 0.0
O131 O 0.49483 0.38024 0.42394 0.0
O132 O 0.48002 0.34023 0.44796 0.0
C133 C 0.47155 0.32844 0.33922 0.0
C134 C 0.40988 0.33599 0.40925 0.0
O135 O 0.414 0.31717 0.41939 0.0
O136 O 0.42849 0.35699 0.39479 0.0
C137 C 0.42225 0.26461 0.45723 0.0
O138 O 0.40726 0.27335 0.47191 0.0
C139 C 0.49662 0.36549 0.44736 0.0
Zn140 Zn 0.07628 0.45763 0.90435 0.0
Zn141 Zn 0.1172 0.45663 0.92342 0.0
O142 O 0.12068 0.45975 0.86863 0.0
O143 O 0.09085 0.47191 0.85634 0.0
O144 O 0.15006 0.45524 0.9378 0.0
O145 O 0.08012 0.48262 0.94446 0.0
O146 O 0.12154 0.49028 0.95019 0.0
C147 C 0.10956 0.46781 0.84632 0.0
C148 C 0.06216 0.40712 0.93224 0.0
O149 O 0.08618 0.42085 0.94365 0.0
O150 O 0.05334 0.41756 0.91045 0.0
C151 C 0.15069 0.43338 0.93892 0.0
O152 O 0.12928 0.4107 0.92961 0.0
C153 C 0.10324 0.49584 0.9583 0.0
Zn154 Zn 0.6207 0.10905 0.39266 0.0
Zn155 Zn 0.66694 0.13729 0.4143 0.0
O156 O 0.67419 0.14014 0.36039 0.0
O157 O 0.63502 0.10547 0.34597 0.0
O158 O 0.70261 0.16081 0.43734 0.0
O159 O 0.60886 0.13629 0.39895 0.0
O160 O 0.64427 0.15392 0.43347 0.0
C161 C 0.65875 0.12312 0.33749 0.0
C162 C 0.63318 0.08052 0.4415 0.0
O163 O 0.65664 0.09965 0.43391 0.0
O164 O 0.61272 0.08133 0.43064 0.0
C165 C 0.72371 0.15918 0.4325 0.0
O166 O 0.72336 0.14188 0.40946 0.0
C167 C 0.62264 0.15291 0.42278 0.0
Zn168 Zn 0.62345 0.53689 0.90602 0.0
Zn169 Zn 0.67002 0.55182 0.92036 0.0
O170 O 0.67158 0.55334 0.86587 0.0
O171 O 0.63376 0.55362 0.85786 0.0
O172 O 0.7069 0.56024 0.93478 0.0
O173 O 0.60928 0.49734 0.91254 0.0
O174 O 0.64647 0.5141 0.94354 0.0
C175 C 0.65563 0.55656 0.84568 0.0
C176 C 0.64373 0.57954 0.95451 0.0
O177 O 0.66566 0.58257 0.94198 0.0
O178 O 0.62181 0.55849 0.94696 0.0
C179 C 0.71585 0.5697 0.96525 0.0
O180 O 0.70119 0.57535 0.98642 0.0
C181 C 0.62355 0.49414 0.93529 0.0
Zn182 Zn 0.12269 0.62789 0.36682 0.0
Zn183 Zn 0.14297 0.67177 0.40727 0.0
O184 O 0.15283 0.68808 0.35714 0.0
O185 O 0.13646 0.65162 0.32408 0.0
O186 O 0.16002 0.70383 0.43901 0.0
O187 O 0.14557 0.61459 0.38907 0.0
O188 O 0.15931 0.64881 0.42555 0.0
C189 C 0.149 0.677 0.32699 0.0
C190 C 0.08331 0.63251 0.41114 0.0
O191 O 0.10318 0.65508 0.42011 0.0
O192 O 0.08642 0.61733 0.38964 0.0
C193 C 0.16113 0.72613 0.43255 0.0
O194 O 0.15099 0.72923 0.40301 0.0
C195 C 0.15902 0.6273 0.41592 0.0
Zn196 Zn 0.45243 0.07867 0.9292 0.0
Zn197 Zn 0.44452 0.11756 0.9336 0.0
O198 O 0.44637 0.1137 0.87991 0.0
O199 O 0.44162 0.07326 0.87793 0.0
O200 O 0.439 0.14928 0.93784 0.0
O201 O 0.49157 0.10112 0.94113 0.0
O202 O 0.48066 0.1305 0.96067 0.0
C203 C 0.44274 0.09327 0.86217 0.0
C204 C 0.40646 0.06417 0.96939 0.0
O205 O 0.41008 0.08583 0.95507 0.0
O206 O 0.42474 0.05797 0.96696 0.0
C207 C 0.41648 0.14807 0.94289 0.0
O208 O 0.39441 0.12453 0.9456 0.0
C209 C 0.49782 0.12264 0.95755 0.0
Zn210 Zn 0.37402 0.46993 0.3943 0.0
Zn211 Zn 0.33755 0.46631 0.43476 0.0
O212 O 0.3249 0.46967 0.38409 0.0
O213 O 0.36246 0.48417 0.35397 0.0
O214 O 0.30807 0.46453 0.46553 0.0
O215 O 0.40331 0.49526 0.42715 0.0
O216 O 0.37197 0.49967 0.45473 0.0
C217 C 0.33828 0.4789 0.35563 0.0
C218 C 0.3451 0.4181 0.42482 0.0
O219 O 0.3369 0.43039 0.4448 0.0
O220 O 0.35938 0.42996 0.39813 0.0
C221 C 0.28682 0.4426 0.47321 0.0
O222 O 0.28372 0.41977 0.46097 0.0
C223 C 0.39675 0.50682 0.45033 0.0
Zn224 Zn 0.90746 0.38667 0.93913 0.0
Zn225 Zn 0.87337 0.3359 0.94051 0.0
O226 O 0.87814 0.34324 0.88709 0.0
O227 O 0.91255 0.3846 0.88685 0.0
O228 O 0.84618 0.29661 0.94391 0.0
O229 O 0.87969 0.39574 0.9544 0.0
O230 O 0.85325 0.35274 0.96637 0.0
C231 C 0.89577 0.36373 0.87018 0.0
C232 C 0.92773 0.35908 0.97861 0.0
O233 O 0.9073 0.33928 0.96445 0.0
O234 O 0.93144 0.38265 0.9749 0.0
C235 C 0.85 0.27878 0.95845 0.0
O236 O 0.87394 0.2854 0.97081 0.0
C237 C 0.8579 0.37692 0.96671 0.0
Zn238 Zn 0.51662 0.90003 0.38732 0.0
Zn239 Zn 0.53452 0.87084 0.41953 0.0
O240 O 0.53252 0.85945 0.36719 0.0
O241 O 0.51507 0.88182 0.34173 0.0
O242 O 0.54347 0.84546 0.44418 0.0
O243 O 0.48324 0.88509 0.41675 0.0
O244 O 0.499 0.86228 0.44497 0.0
C245 C 0.52355 0.86526 0.33981 0.0
C246 C 0.56897 0.93139 0.42195 0.0
O247 O 0.56609 0.90867 0.43072 0.0
O248 O 0.55108 0.93282 0.40395 0.0
C249 C 0.56713 0.84982 0.45013 0.0
O250 O 0.58798 0.87259 0.43977 0.0
C251 C 0.48093 0.86889 0.44095 0.0
Zn252 Zn 0.48238 0.3678 0.10409 0.0
Zn253 Zn 0.45963 0.32394 0.06583 0.0
O254 O 0.46395 0.31019 0.11495 0.0
O255 O 0.4883 0.34837 0.14331 0.0
O256 O 0.4442 0.29076 0.03626 0.0
O257 O 0.51233 0.38739 0.0697 0.0
O258 O 0.49422 0.35027 0.03793 0.0
C259 C 0.47704 0.32297 0.14232 0.0
C260 C 0.42797 0.35174 0.08207 0.0
O261 O 0.42979 0.3337 0.06485 0.0
O262 O 0.44721 0.36824 0.10138 0.0
C263 C 0.42066 0.27085 0.04092 0.0
O264 O 0.40551 0.27179 0.06627 0.0
C265 C 0.5129 0.37454 0.04292 0.0
Zn266 Zn 0.0922 0.4734 0.56635 0.0
Zn267 Zn 0.12509 0.45576 0.56723 0.0
O268 O 0.12313 0.46393 0.6204 0.0
O269 O 0.09023 0.47323 0.61894 0.0
O270 O 0.15436 0.4463 0.56443 0.0
O271 O 0.1173 0.50809 0.54313 0.0
O272 O 0.14183 0.48904 0.53336 0.0
C273 C 0.10724 0.46999 0.6364 0.0
C274 C 0.06975 0.42093 0.5355 0.0
O275 O 0.09069 0.42194 0.5487 0.0
O276 O 0.06662 0.44127 0.53725 0.0
C277 C 0.15229 0.42324 0.56138 0.0
O278 O 0.12836 0.40151 0.56262 0.0
C279 C 0.13745 0.50859 0.52887 0.0
Zn280 Zn 0.62701 0.08409 0.06559 0.0
Zn281 Zn 0.67245 0.12377 0.05879 0.0
O282 O 0.67062 0.12305 0.11302 0.0
O283 O 0.63624 0.08184 0.11648 0.0
O284 O 0.70866 0.15383 0.0462 0.0
O285 O 0.6077 0.10418 0.05399 0.0
O286 O 0.64699 0.13445 0.03283 0.0
C287 C 0.65521 0.10235 0.13138 0.0
C288 C 0.65836 0.06944 0.02711 0.0
O289 O 0.67565 0.09169 0.04076 0.0
O290 O 0.6337 0.06265 0.02836 0.0
C291 C 0.73022 0.15381 0.05395 0.0
O292 O 0.72918 0.13462 0.07403 0.0
C293 C 0.62183 0.12558 0.03676 0.0
Zn294 Zn 0.58393 0.62978 0.59105 0.0
Zn295 Zn 0.55789 0.67598 0.56725 0.0
O296 O 0.55987 0.68208 0.6212 0.0
O297 O 0.5734 0.65297 0.61988 0.0
O298 O 0.54469 0.69941 0.54621 0.0
O299 O 0.54902 0.60756 0.56293 0.0
O300 O 0.53244 0.63547 0.55396 0.0
C301 C 0.56685 0.66737 0.63787 0.0
C302 C 0.60714 0.6788 0.55541 0.0
O303 O 0.59332 0.68783 0.54127 0.0
O304 O 0.60087 0.67048 0.58669 0.0
C305 C 0.56235 0.72427 0.54784 0.0
O306 O 0.58519 0.73133 0.56415 0.0
C307 C 0.53053 0.61213 0.5519 0.0
Zn308 Zn 0.90572 0.53633 0.08581 0.0
Zn309 Zn 0.86591 0.5409 0.07376 0.0
O310 O 0.87093 0.54892 0.12683 0.0
O311 O 0.91279 0.55776 0.13086 0.0
O312 O 0.83567 0.54655 0.05998 0.0
O313 O 0.88325 0.49599 0.08877 0.0
O314 O 0.85195 0.50074 0.06184 0.0
C315 C 0.89254 0.55757 0.14461 0.0
C316 C 0.91729 0.57133 0.03003 0.0
O317 O 0.89631 0.5701 0.0433 0.0
O318 O 0.92442 0.55482 0.04036 0.0
C319 C 0.83323 0.56601 0.07165 0.0
O320 O 0.84995 0.5821 0.09583 0.0
C321 C 0.86064 0.48559 0.07346 0.0
Zn322 Zn 0.35798 0.88619 0.62037 0.0
Zn323 Zn 0.31521 0.86687 0.57955 0.0
O324 O 0.30065 0.85141 0.62929 0.0
O325 O 0.33707 0.86157 0.65997 0.0
O326 O 0.28146 0.84778 0.55116 0.0
O327 O 0.37738 0.87456 0.58698 0.0
O328 O 0.34103 0.85704 0.55372 0.0
C329 C 0.31169 0.84967 0.65757 0.0
C330 C 0.34562 0.92636 0.59203 0.0
O331 O 0.3276 0.90674 0.57448 0.0
O332 O 0.36011 0.9227 0.61415 0.0
C333 C 0.27317 0.85658 0.52619 0.0
O334 O 0.28786 0.88167 0.51564 0.0
C335 C 0.36496 0.8618 0.55959 0.0
H336 H 0.33183 0.50495 0.20033 0.0
H337 H 0.28669 0.41839 0.19442 0.0
H338 H 0.2825 0.41561 0.25891 0.0
H339 H 0.30107 0.43789 0.31634 0.0
H340 H 0.34959 0.52436 0.32073 0.0
H341 H 0.34237 0.52739 0.25777 0.0
C342 C 0.32014 0.48556 0.21321 0.0
C343 C 0.30966 0.46192 0.193 0.0
C344 C 0.31869 0.48421 0.25012 0.0
C345 C 0.29468 0.43682 0.20962 0.0
C346 C 0.2926 0.43527 0.24649 0.0
C347 C 0.30894 0.45737 0.30368 0.0
C348 C 0.32568 0.48091 0.32289 0.0
C349 C 0.30581 0.4588 0.26704 0.0
C350 C 0.33643 0.50608 0.30633 0.0
C351 C 0.33255 0.50776 0.2703 0.0
H352 H 0.9128 0.38544 0.70717 0.0
H353 H 0.8504 0.30191 0.70213 0.0
H354 H 0.84834 0.29999 0.76681 0.0
H355 H 0.865 0.32227 0.82479 0.0
H356 H 0.92779 0.40589 0.8276 0.0
H357 H 0.92891 0.40739 0.76361 0.0
C358 C 0.89869 0.3667 0.72003 0.0
C359 C 0.88186 0.3438 0.69975 0.0
C360 C 0.89774 0.36575 0.75688 0.0
C361 C 0.8636 0.31984 0.71708 0.0
C362 C 0.86247 0.31873 0.75405 0.0
C363 C 0.87894 0.34078 0.81137 0.0
C364 C 0.89635 0.36389 0.83112 0.0
C365 C 0.87957 0.34158 0.77424 0.0
C366 C 0.91425 0.38774 0.81325 0.0
C367 C 0.9149 0.38867 0.77657 0.0
H368 H 0.48584 0.84923 0.28967 0.0
H369 H 0.564 0.85888 0.31131 0.0
H370 H 0.57125 0.85599 0.24801 0.0
H371 H 0.55918 0.86119 0.18659 0.0
H372 H 0.48234 0.85546 0.16699 0.0
H373 H 0.47035 0.84569 0.22911 0.0
C374 C 0.50412 0.84988 0.28051 0.0
C375 C 0.52459 0.85481 0.30471 0.0
C376 C 0.50845 0.84925 0.24432 0.0
C377 C 0.54802 0.8552 0.29294 0.0
C378 C 0.55226 0.85385 0.25675 0.0
C379 C 0.53952 0.85689 0.19593 0.0
C380 C 0.52172 0.85932 0.17269 0.0
C381 C 0.53325 0.85246 0.23211 0.0
C382 C 0.49635 0.85391 0.18474 0.0
C383 C 0.48955 0.84843 0.2202 0.0
H384 H 0.68226 0.53971 0.80209 0.0
H385 H 0.64077 0.58521 0.80426 0.0
H386 H 0.64136 0.58717 0.74007 0.0
H387 H 0.64744 0.57036 0.68401 0.0
H388 H 0.68693 0.5231 0.68002 0.0
H389 H 0.69369 0.52762 0.74421 0.0
C390 C 0.67393 0.55054 0.78841 0.0
C391 C 0.6611 0.56193 0.8077 0.0
C392 C 0.6736 0.55089 0.75129 0.0
C393 C 0.65037 0.57594 0.78984 0.0
C394 C 0.65066 0.57704 0.75318 0.0
C395 C 0.6578 0.56128 0.69715 0.0
C396 C 0.66613 0.54592 0.67765 0.0
C397 C 0.66117 0.56362 0.73373 0.0
C398 C 0.68014 0.53484 0.69469 0.0
C399 C 0.68388 0.53733 0.73134 0.0
H400 H 0.12249 0.70067 0.30177 0.0
H401 H 0.18745 0.68578 0.2787 0.0
H402 H 0.18392 0.69316 0.21582 0.0
H403 H 0.15374 0.69027 0.16785 0.0
H404 H 0.08351 0.69645 0.19182 0.0
H405 H 0.09775 0.7068 0.25335 0.0
C406 C 0.13669 0.70044 0.28302 0.0
C407 C 0.15517 0.69277 0.29444 0.0
C408 C 0.13295 0.70243 0.2468 0.0
C409 C 0.17321 0.69188 0.27021 0.0
C410 C 0.1709 0.69571 0.23426 0.0
C411 C 0.14223 0.695 0.18633 0.0
C412 C 0.11752 0.69231 0.17574 0.0
C413 C 0.14954 0.69895 0.22213 0.0
C414 C 0.1025 0.69819 0.19973 0.0
C415 C 0.11056 0.70393 0.2349 0.0
H416 H 0.45557 0.13589 0.81827 0.0
H417 H 0.42675 0.05033 0.81854 0.0
H418 H 0.42949 0.05044 0.75451 0.0
H419 H 0.44411 0.07523 0.69929 0.0
H420 H 0.47362 0.16074 0.6974 0.0
H421 H 0.46631 0.16025 0.7613 0.0
C422 C 0.44959 0.11724 0.80426 0.0
C423 C 0.44141 0.09323 0.82323 0.0
C424 C 0.45156 0.11747 0.76727 0.0
C425 C 0.43353 0.06917 0.80468 0.0
C426 C 0.43507 0.06919 0.76803 0.0
C427 C 0.44883 0.09377 0.71283 0.0
C428 C 0.45986 0.11807 0.69394 0.0
C429 C 0.44477 0.09331 0.74923 0.0
C430 C 0.46526 0.14182 0.71154 0.0
C431 C 0.46118 0.14153 0.74802 0.0
H432 H 0.55294 0.69379 0.68676 0.0
H433 H 0.57429 0.63165 0.67572 0.0
H434 H 0.56492 0.6203 0.73757 0.0
H435 H 0.54865 0.62611 0.79423 0.0
H436 H 0.52898 0.68904 0.80796 0.0
H437 H 0.5398 0.70202 0.74589 0.0
C438 C 0.5558 0.678 0.69807 0.0
C439 C 0.56407 0.6635 0.67647 0.0
C440 C 0.5505 0.67152 0.73411 0.0
C441 C 0.56786 0.64316 0.69156 0.0
C442 C 0.56242 0.63651 0.72701 0.0
C443 C 0.5467 0.64267 0.78365 0.0
C444 C 0.53768 0.65634 0.8054 0.0
C445 C 0.55332 0.65023 0.74836 0.0
C446 C 0.53579 0.67811 0.79157 0.0
C447 C 0.54194 0.68552 0.75611 0.0
H448 H 0.91637 0.56753 0.30544 0.0
H449 H 0.82973 0.52141 0.31061 0.0
H450 H 0.82694 0.52843 0.24709 0.0
H451 H 0.84985 0.54155 0.18916 0.0
H452 H 0.9368 0.58663 0.18538 0.0
H453 H 0.93881 0.58689 0.24955 0.0
C454 C 0.89687 0.5594 0.29267 0.0
C455 C 0.87331 0.54351 0.31209 0.0
C456 C 0.89555 0.56331 0.25651 0.0
C457 C 0.8481 0.53353 0.29583 0.0
C458 C 0.84656 0.53746 0.2596 0.0
C459 C 0.86919 0.55202 0.20243 0.0
C460 C 0.89317 0.5635 0.18259 0.0
C461 C 0.87023 0.55143 0.23945 0.0
C462 C 0.91809 0.5772 0.20009 0.0
C463 C 0.91927 0.57729 0.23677 0.0
H464 H 0.31668 0.81813 0.70635 0.0
H465 H 0.27296 0.85932 0.68248 0.0
H466 H 0.26467 0.86166 0.74523 0.0
H467 H 0.28253 0.86448 0.80537 0.0
H468 H 0.32661 0.82368 0.82913 0.0
H469 H 0.32171 0.80809 0.7681 0.0
C470 C 0.30419 0.82638 0.71492 0.0
C471 C 0.2961 0.83925 0.69027 0.0
C472 C 0.30021 0.82831 0.75104 0.0
C473 C 0.27958 0.84953 0.7012 0.0
C474 C 0.27519 0.85122 0.73712 0.0
C475 C 0.28988 0.8511 0.79741 0.0
C476 C 0.30528 0.84552 0.82109 0.0
C477 C 0.28731 0.84262 0.7622 0.0
C478 C 0.31474 0.82817 0.81102 0.0
C479 C 0.31215 0.81949 0.77609 0.0
H480 H 0.43997 0.28829 0.29365 0.0
H481 H 0.52119 0.35278 0.31117 0.0
H482 H 0.53279 0.35012 0.24999 0.0
H483 H 0.51658 0.33804 0.18978 0.0
H484 H 0.43398 0.27791 0.17002 0.0
H485 H 0.42632 0.26919 0.23343 0.0
C486 C 0.4604 0.30096 0.2842 0.0
C487 C 0.47968 0.32091 0.30639 0.0
C488 C 0.46653 0.30024 0.2484 0.0
C489 C 0.50607 0.33747 0.29419 0.0
C490 C 0.51267 0.336 0.25925 0.0
C491 C 0.49722 0.32224 0.19937 0.0
C492 C 0.4757 0.30912 0.17563 0.0
C493 C 0.4926 0.31872 0.23571 0.0
C494 C 0.4508 0.28838 0.18796 0.0
C495 C 0.44632 0.28374 0.22428 0.0
H496 H 0.13248 0.45527 0.68622 0.0
H497 H 0.08516 0.49446 0.67366 0.0
H498 H 0.08445 0.49972 0.73705 0.0
H499 H 0.09411 0.49055 0.796 0.0
H500 H 0.13975 0.44998 0.81089 0.0
H501 H 0.1447 0.44843 0.74679 0.0
C502 C 0.12219 0.4651 0.69741 0.0
C503 C 0.10859 0.4741 0.67512 0.0
C504 C 0.12153 0.46785 0.73432 0.0
C505 C 0.09546 0.48693 0.69008 0.0
C506 C 0.09509 0.49008 0.72641 0.0
C507 C 0.10536 0.48152 0.78537 0.0
C508 C 0.11625 0.47011 0.80823 0.0
C509 C 0.10758 0.48018 0.74875 0.0
C510 C 0.13108 0.45887 0.79388 0.0
C511 C 0.13378 0.45783 0.75721 0.0
H512 H 0.64223 0.08092 0.29412 0.0
H513 H 0.6937 0.16714 0.29796 0.0
H514 H 0.69963 0.16827 0.23366 0.0
H515 H 0.68507 0.14493 0.1758 0.0
H516 H 0.63239 0.05858 0.17405 0.0
H517 H 0.63217 0.05734 0.23806 0.0
C518 C 0.65505 0.09995 0.28093 0.0
C519 C 0.66713 0.12395 0.30049 0.0
C520 C 0.65787 0.10043 0.24427 0.0
C521 C 0.68414 0.1484 0.28332 0.0
C522 C 0.68732 0.14905 0.24657 0.0
C523 C 0.67386 0.12585 0.18948 0.0
C524 C 0.65831 0.10198 0.17011 0.0
C525 C 0.6735 0.12525 0.22664 0.0
C526 C 0.6441 0.07735 0.18822 0.0
C527 C 0.64399 0.07656 0.22489 0.0
H528 H 0.15433 0.39051 0.96342 0.0
H529 H 0.20075 0.47656 0.94715 0.0
H530 H 0.23933 0.47811 0.97643 0.0
H531 H 0.25881 0.45595 0.00976 0.0
H532 H 0.21316 0.37019 0.02814 0.0
H533 H 0.17524 0.36757 0.99466 0.0
C534 C 0.173 0.40953 0.96596 0.0
C535 C 0.17461 0.43344 0.95344 0.0
C536 C 0.19507 0.41037 0.98341 0.0
C537 C 0.1989 0.45793 0.95689 0.0
C538 C 0.22097 0.45885 0.97363 0.0
C539 C 0.2406 0.4366 0.00653 0.0
C540 C 0.23864 0.41336 0.02185 0.0
C541 C 0.21906 0.43533 0.9876 0.0
C542 C 0.21508 0.38842 0.01678 0.0
C543 C 0.19342 0.38694 -0.00232 0.0
H544 H 0.7269 0.18552 0.49303 0.0
H545 H 0.77566 0.17212 0.41803 0.0
H546 H 0.81651 0.20438 0.44953 0.0
H547 H 0.83829 0.2392 0.49539 0.0
H548 H 0.78897 0.25188 0.57044 0.0
H549 H 0.74835 0.21674 0.54211 0.0
C550 C 0.74646 0.18958 0.4836 0.0
C551 C 0.74832 0.17688 0.45286 0.0
C552 C 0.76972 0.208 0.50184 0.0
C553 C 0.77373 0.18185 0.44146 0.0
C554 C 0.79707 0.2003 0.45943 0.0
C555 C 0.81866 0.23405 0.50581 0.0
C556 C 0.81669 0.24844 0.53468 0.0
C557 C 0.79532 0.21392 0.48922 0.0
C558 C 0.79111 0.24125 0.54816 0.0
C559 C 0.76783 0.22124 0.53187 0.0
H560 H 0.54496 0.81311 0.99006 0.0
H561 H 0.60565 0.82393 0.06611 0.0
H562 H 0.61049 0.7882 0.03758 0.0
H563 H 0.59427 0.75121 0.99411 0.0
H564 H 0.53259 0.74045 0.91965 0.0
H565 H 0.5317 0.77928 0.94417 0.0
C566 C 0.5593 0.80772 0.00042 0.0
C567 C 0.57455 0.82072 0.03048 0.0
C568 C 0.56185 0.78726 0.9841 0.0
C569 C 0.59348 0.81395 0.04314 0.0
C570 C 0.59625 0.79357 0.02685 0.0
C571 C 0.58101 0.75771 0.98292 0.0
C572 C 0.56325 0.74285 0.9555 0.0
C573 C 0.58013 0.77971 -0.00228 0.0
C574 C 0.54617 0.75141 0.94113 0.0
C575 C 0.5456 0.77354 0.95515 0.0
H576 H 0.73494 0.563 0.48953 0.0
H577 H 0.77191 0.56546 0.58963 0.0
H578 H 0.8119 0.57048 0.5593 0.0
H579 H 0.83409 0.56941 0.50419 0.0
H580 H 0.79757 0.56847 0.40422 0.0
H581 H 0.75981 0.56808 0.43466 0.0
C582 C 0.75185 0.56481 0.50467 0.0
C583 C 0.75033 0.56326 0.54165 0.0
C584 C 0.77477 0.56793 0.4871 0.0
C585 C 0.77257 0.56634 0.56108 0.0
C586 C 0.79538 0.56915 0.54377 0.0
C587 C 0.81802 0.56948 0.48912 0.0
C588 C 0.81834 0.56848 0.45207 0.0
C589 C 0.79637 0.56925 0.50678 0.0
C590 C 0.79771 0.56911 0.43278 0.0
C591 C 0.77603 0.56872 0.45015 0.0
H592 H 0.22943 0.82352 0.96523 0.0
H593 H 0.28136 0.79173 0.99252 0.0
H594 H 0.24292 0.75152 0.01748 0.0
H595 H 0.19438 0.72523 0.03068 0.0
H596 H 0.14319 0.75813 0.00459 0.0
H597 H 0.18161 0.79808 0.97964 0.0
C598 C 0.2324 0.80784 0.97669 0.0
C599 C 0.25814 0.81052 0.9769 0.0
C600 C 0.21033 0.78493 0.99095 0.0
C601 C 0.2617 0.79012 0.99209 0.0
C602 C 0.23973 0.7671 0.00623 0.0
C603 C 0.19166 0.7411 0.01934 0.0
C604 C 0.16603 0.73873 0.01925 0.0
C605 C 0.21393 0.76423 0.00556 0.0
C606 C 0.16277 0.75955 0.00495 0.0
C607 C 0.1847 0.78238 0.99071 0.0
H608 H 0.45048 0.17747 0.50677 0.0
H609 H 0.39433 0.16671 0.58958 0.0
H610 H 0.38378 0.19845 0.56 0.0
H611 H 0.3943 0.2327 0.51342 0.0
H612 H 0.45067 0.24221 0.43118 0.0
H613 H 0.45713 0.20731 0.45771 0.0
C614 C 0.43585 0.18198 0.51838 0.0
C615 C 0.42368 0.17031 0.55068 0.0
C616 C 0.43 0.2001 0.50139 0.0
C617 C 0.40423 0.17575 0.56488 0.0
C618 C 0.39824 0.19391 0.54802 0.0
C619 C 0.40769 0.22685 0.50108 0.0
C620 C 0.42237 0.24048 0.47076 0.0
C621 C 0.41155 0.20674 0.51667 0.0
C622 C 0.43939 0.2324 0.45482 0.0
C623 C 0.44317 0.21244 0.46997 0.0
H624 H 0.81113 0.55101 0.00724 0.0
H625 H 0.81037 0.59365 0.1006 0.0
H626 H 0.77495 0.60042 0.07467 0.0
H627 H 0.74236 0.5915 0.02679 0.0
H628 H 0.74465 0.54968 0.93316 0.0
H629 H 0.7817 0.54563 0.95782 0.0
C630 C 0.80319 0.56176 0.02196 0.0
C631 C 0.81286 0.57136 0.05599 0.0
C632 C 0.78323 0.56578 0.00682 0.0
C633 C 0.80297 0.58587 0.07444 0.0
C634 C 0.78277 0.58972 0.05964 0.0
C635 C 0.75115 0.58173 0.01167 0.0
C636 C 0.74052 0.57059 0.97841 0.0
C637 C 0.77247 0.57939 0.02604 0.0
C638 C 0.75234 0.55831 0.9589 0.0
C639 C 0.77346 0.55587 0.97302 0.0
H640 H 0.18558 0.77976 0.41752 0.0
H641 H 0.1703 0.72341 0.50208 0.0
H642 H 0.20095 0.76012 0.54044 0.0
H643 H 0.23628 0.80667 0.54727 0.0
H644 H 0.25463 0.86327 0.46217 0.0
H645 H 0.21813 0.82813 0.42692 0.0
C646 C 0.18862 0.77565 0.44455 0.0
C647 C 0.17611 0.74892 0.45683 0.0
C648 C 0.20696 0.79682 0.4662 0.0
C649 C 0.18009 0.7438 0.4919 0.0
C650 C 0.19759 0.76476 0.51384 0.0
C651 C 0.23218 0.81147 0.52113 0.0
C652 C 0.24853 0.83733 0.50702 0.0
C653 C 0.21186 0.79112 0.50082 0.0
C654 C 0.24252 0.84339 0.47347 0.0
C655 C 0.22174 0.82328 0.45326 0.0
H656 H 0.38112 0.15392 0.98442 0.0
H657 H 0.45158 0.19825 0.91919 0.0
H658 H 0.45667 0.24072 0.94052 0.0
H659 H 0.44505 0.26483 0.98351 0.0
H660 H 0.37653 0.22096 0.05208 0.0
H661 H 0.36649 0.17872 0.02334 0.0
C662 C 0.3972 0.1729 0.97434 0.0
C663 C 0.41618 0.17307 0.95069 0.0
C664 C 0.40057 0.19726 0.98769 0.0
C665 C 0.43697 0.19772 0.9378 0.0
C666 C 0.43992 0.22197 0.95002 0.0
C667 C 0.42772 0.24608 0.99196 0.0
C668 C 0.4119 0.24595 0.02035 0.0
C669 C 0.4225 0.22194 0.97598 0.0
C670 C 0.38922 0.22156 0.03051 0.0
C671 C 0.38351 0.19739 0.01416 0.0
H672 H 0.20266 0.46489 0.55013 0.0
H673 H 0.15592 0.37801 0.54801 0.0
H674 H 0.19426 0.37624 0.52246 0.0
H675 H 0.23973 0.39968 0.49611 0.0
H676 H 0.28527 0.48669 0.49702 0.0
H677 H 0.24854 0.488 0.52751 0.0
C678 C 0.20084 0.44549 0.54448 0.0
C679 C 0.17631 0.42162 0.55065 0.0
C680 C 0.22266 0.44465 0.52915 0.0
C681 C 0.1745 0.39671 0.54334 0.0
C682 C 0.19638 0.39569 0.52858 0.0
C683 C 0.24169 0.41892 0.50319 0.0
C684 C 0.26516 0.44305 0.49398 0.0
C685 C 0.22034 0.41958 0.52058 0.0
C686 C 0.26743 0.4678 0.50361 0.0
C687 C 0.24642 0.46859 0.52107 0.0
H688 H 0.84683 0.24273 0.00772 0.0
H689 H 0.80014 0.25609 0.92909 0.0
H690 H 0.75904 0.21738 0.95091 0.0
H691 H 0.73597 0.18313 0.99586 0.0
H692 H 0.78169 0.1694 0.07541 0.0
H693 H 0.82374 0.20503 0.04964 0.0
C694 C 0.82773 0.23684 0.99495 0.0
C695 C 0.82644 0.25248 0.96721 0.0
C696 C 0.80403 0.21489 0.00816 0.0
C697 C 0.80159 0.24457 0.9508 0.0
C698 C 0.77807 0.22252 0.96333 0.0
C699 C 0.75513 0.1879 0.00761 0.0
C700 C 0.75579 0.17415 0.03791 0.0
C701 C 0.77899 0.20818 0.9927 0.0
C702 C 0.78074 0.18001 0.05228 0.0
C703 C 0.80473 0.20031 0.03755 0.0
H704 H 0.52862 0.79883 0.46652 0.0
H705 H 0.61403 0.85463 0.4756 0.0
H706 H 0.61979 0.82075 0.50745 0.0
H707 H 0.60057 0.77545 0.53261 0.0
H708 H 0.51544 0.71916 0.52189 0.0
H709 H 0.50953 0.75329 0.4908 0.0
C710 C 0.54851 0.80364 0.4755 0.0
C711 C 0.57085 0.82927 0.46883 0.0
C712 C 0.55169 0.78405 0.49353 0.0
C713 C 0.59651 0.83507 0.48038 0.0
C714 C 0.5998 0.81573 0.49865 0.0
C715 C 0.58068 0.77066 0.52365 0.0
C716 C 0.55843 0.74487 0.52971 0.0
C717 C 0.57753 0.7902 0.50541 0.0
C718 C 0.53286 0.73888 0.51756 0.0
C719 C 0.52949 0.75837 0.49979 0.0
H720 H 0.34333 0.38547 0.11455 0.0
H721 H 0.36546 0.41797 0.00974 0.0
H722 H 0.38848 0.39211 2e-05 0.0
H723 H 0.41062 0.36874 0.02681 0.0
H724 H 0.39186 0.34053 0.13399 0.0
H725 H 0.3586 0.35534 0.13732 0.0
C726 C 0.35229 0.38593 0.08915 0.0
C727 C 0.35284 0.40335 0.06286 0.0
C728 C 0.36641 0.37203 0.08452 0.0
C729 C 0.3647 0.40435 0.03013 0.0
C730 C 0.37809 0.38983 0.02478 0.0
C731 C 0.39849 0.36509 0.05034 0.0
C732 C 0.40354 0.35383 0.08021 0.0
C733 C 0.38037 0.37484 0.05254 0.0
C734 C 0.38816 0.34931 0.11083 0.0
C735 C 0.3693 0.35789 0.11277 0.0
H736 H 0.04329 0.37417 0.57169 0.0
H737 H 0.04348 0.41188 0.47335 0.0
H738 H 0.99514 0.38143 0.46688 0.0
H739 H 0.95279 0.35676 0.49972 0.0
H740 H 0.95202 0.32219 0.60073 0.0
H741 H 0.00022 0.33797 0.59562 0.0
C742 C 0.03293 0.37461 0.54794 0.0
C743 C 0.04658 0.3955 0.5234 0.0
C744 C 0.00477 0.35811 0.54558 0.0
C745 C 0.03315 0.39606 0.49272 0.0
C746 C 0.00544 0.37888 0.48926 0.0
C747 C 0.96297 0.35143 0.51959 0.0
C748 C 0.94928 0.33887 0.55075 0.0
C749 C 0.99084 0.36164 0.51709 0.0
C750 C 0.96235 0.33191 0.57651 0.0
C751 C 0.99001 0.3413 0.57379 0.0
H752 H 0.64435 0.966 0.07839 0.0
H753 H 0.59385 0.93757 0.98613 0.0
H754 H 0.6173 0.98263 0.96068 0.0
H755 H 0.63975 0.0309 0.97618 0.0
H756 H 0.69093 0.05923 0.06788 0.0
H757 H 0.68071 0.01353 0.08126 0.0
C758 C 0.63963 0.96943 0.05184 0.0
C759 C 0.61693 0.949 0.03463 0.0
C760 C 0.65295 0.99552 0.03762 0.0
C761 C 0.61111 0.95325 2e-05 0.0
C762 C 0.62429 0.97913 0.98563 0.0
C763 C 0.64988 0.02721 -0.00216 0.0
C764 C 0.665 0.04796 0.02193 0.0
C765 C 0.64346 0.00074 0.00578 0.0
C766 C 0.6787 0.04334 0.04937 0.0
C767 C 0.67255 0.0171 0.05737 0.0
H768 H 0.60856 0.5793 0.50141 0.0
H769 H 0.6855 0.61878 0.55432 0.0
H770 H 0.68398 0.66052 0.55718 0.0
H771 H 0.6551 0.68111 0.55856 0.0
H772 H 0.57888 0.64238 0.50425 0.0
H773 H 0.58585 0.60514 0.48748 0.0
C774 C 0.62543 0.59736 0.51234 0.0
C775 C 0.64671 0.59584 0.52856 0.0
C776 C 0.6243 0.62124 0.51419 0.0
C777 C 0.66875 0.61941 0.54201 0.0
C778 C 0.66778 0.64324 0.54396 0.0
C779 C 0.64073 0.66515 0.54155 0.0
C780 C 0.61638 0.66407 0.53311 0.0
C781 C 0.64485 0.64379 0.5322 0.0
C782 C 0.59777 0.64347 0.51107 0.0
C783 C 0.60162 0.62203 0.50181 0.0
H784 H 0.95308 0.57573 0.97971 0.0
H785 H 0.92725 0.6224 0.04035 0.0
H786 H 0.97242 0.66138 0.03748 0.0
H787 H 0.02029 0.67386 0.03836 0.0
H788 H 0.04627 0.62679 0.97936 0.0
H789 H 0.00026 0.59699 0.95936 0.0
C790 C 0.95705 0.5949 0.99057 0.0
C791 C 0.93743 0.59593 0.01172 0.0
C792 C 0.98333 0.61704 0.9897 0.0
C793 C 0.94231 0.62095 0.02471 0.0
C794 C 0.96829 0.64323 0.02343 0.0
C795 C 0.01608 0.65818 0.01918 0.0
C796 C 0.03611 0.65165 0.01149 0.0
C797 C 0.98935 0.64048 0.00911 0.0
C798 C 0.0309 0.63179 0.9861 0.0
C799 C 0.00444 0.6144 0.97521 0.0
H800 H 0.3984 0.05061 0.59431 0.0
H801 H 0.43458 0.04069 0.50014 0.0
H802 H 0.40116 0.99251 0.49897 0.0
H803 H 0.36909 0.95244 0.53247 0.0
H804 H 0.33991 0.96208 0.63294 0.0
H805 H 0.36265 0.01098 0.6242 0.0
C806 C 0.3982 0.038 0.57281 0.0
C807 C 0.41862 0.04892 0.54723 0.0
C808 C 0.38047 0.01012 0.57411 0.0
C809 C 0.41883 0.03253 0.51992 0.0
C810 C 0.39992 0.00501 0.51951 0.0
C811 C 0.36706 0.96532 0.55175 0.0
C812 C 0.35289 0.95405 0.58312 0.0
C813 C 0.38172 0.99339 0.5476 0.0
C814 C 0.35067 0.97059 0.60852 0.0
C815 C 0.36378 -0.00153 0.60359 0.0
H816 H 0.60695 0.65997 0.94265 0.0
H817 H 0.54445 0.59958 0.00798 0.0
H818 H 0.5746 0.58333 0.02665 0.0
H819 H 0.61152 0.57667 0.00767 0.0
H820 H 0.67104 0.63248 0.93516 0.0
H821 H 0.65039 0.66088 0.93713 0.0
C822 C 0.60049 0.64411 0.96222 0.0
C823 C 0.57352 0.63047 0.97341 0.0
C824 C 0.6174 0.63371 0.97091 0.0
C825 C 0.56511 0.60997 -0.00128 0.0
C826 C 0.58229 0.6006 0.0092 0.0
C827 C 0.6207 0.59578 0.99376 0.0
C828 C 0.64197 0.60206 0.97031 0.0
C829 C 0.60751 0.61079 0.99302 0.0
C830 C 0.65432 0.62706 0.95298 0.0
C831 C 0.64219 0.64306 0.95363 0.0
H832 H 0.96962 0.5589 0.47443 0.0
H833 H 0.95254 0.61372 0.41742 0.0
H834 H 0.00081 0.64401 0.40757 0.0
H835 H 0.04669 0.64946 0.40442 0.0
H836 H 0.06202 0.59199 0.45765 0.0
H837 H 0.01592 0.56837 0.48019 0.0
C838 C 0.97658 0.57795 0.46092 0.0
C839 C 0.9577 0.58391 0.44617 0.0
C840 C 0.00411 0.5945 0.45404 0.0
C841 C 0.96679 0.60874 0.42904 0.0
C842 C 0.99438 0.62585 0.42294 0.0
C843 C 0.03994 0.63214 0.42163 0.0
C844 C 0.05729 0.62206 0.4291 0.0
C845 C 0.01306 0.61813 0.43355 0.0
C846 C 0.04866 0.5997 0.45135 0.0
C847 C 0.02239 0.58625 0.46421 0.0
H848 H 0.39178 0.02608 0.02041 0.0
H849 H 0.35982 0.05272 0.93658 0.0
H850 H 0.32404 0.00657 0.92642 0.0
H851 H 0.31428 0.95946 0.92702 0.0
H852 H 0.34683 0.93281 0.01005 0.0
H853 H 0.36909 0.97782 0.03581 0.0
C854 C 0.37604 0.02191 0.00133 0.0
C855 C 0.37906 0.04239 0.97815 0.0
C856 C 0.35603 0.99514 0.99485 0.0
C857 C 0.35825 0.03711 0.95422 0.0
C858 C 0.33795 0.01059 0.94802 0.0
C859 C 0.325 0.96321 0.95187 0.0
C860 C 0.32991 0.94336 0.9659 0.0
C861 C 0.3384 0.98937 0.96589 0.0
C862 C 0.34321 0.94801 -0.00154 0.0
C863 C 0.35628 0.9739 0.01295 0.0
H864 H 0.33153 0.37535 0.38297 0.0
H865 H 0.35528 0.4041 0.48915 0.0
H866 H 0.37195 0.37263 0.49773 0.0
H867 H 0.39206 0.34832 0.4682 0.0
H868 H 0.37112 0.32281 0.3604 0.0
H869 H 0.34027 0.34062 0.35939 0.0
C870 C 0.33917 0.37371 0.4085 0.0
C871 C 0.34285 0.39229 0.4351 0.0
C872 C 0.34967 0.3564 0.41262 0.0
C873 C 0.35244 0.39001 0.46826 0.0
C874 C 0.36232 0.37227 0.47297 0.0
C875 C 0.37958 0.34543 0.44524 0.0
C876 C 0.38381 0.33455 0.41433 0.0
C877 C 0.36292 0.35697 0.44439 0.0
C878 C 0.36798 0.3311 0.38445 0.0
C879 C 0.35062 0.34159 0.38376 0.0
H880 H 0.0462 0.40365 -0.00107 0.0
H881 H 0.03179 0.35707 0.90424 0.0
H882 H 0.98456 0.32847 0.92054 0.0
H883 H 0.94653 0.32931 0.94852 0.0
H884 H 0.96087 0.38387 0.03464 0.0
H885 H 0.00826 0.39605 0.03626 0.0
C886 C 0.03298 0.38618 0.98309 0.0
C887 C 0.04206 0.38262 0.95026 0.0
C888 C 0.00532 0.37185 0.99075 0.0
C889 C 0.02502 0.36015 0.92959 0.0
C890 C -0.00212 0.34414 0.93864 0.0
C891 C 0.95979 0.3428 0.96878 0.0
C892 C 0.9506 0.35625 0.99082 0.0
C893 C 0.98744 0.3516 0.96721 0.0
C894 C 0.96777 0.37366 0.01705 0.0
C895 C 0.99492 0.38082 0.01769 0.0
H896 H 0.5695 0.96073 0.47684 0.0
H897 H 0.61875 0.95901 0.39237 0.0
H898 H 0.64955 0.00757 0.39885 0.0
H899 H 0.65457 0.05104 0.4176 0.0
H900 H 0.60089 0.05232 0.49612 0.0
H901 H 0.58043 0.00369 0.50435 0.0
C902 C 0.58768 0.97091 0.46103 0.0
C903 C 0.59204 0.95667 0.43423 0.0
C904 C 0.60429 -0.00109 0.46369 0.0
C905 C 0.61529 0.96977 0.41335 0.0
C906 C 0.63268 0.99754 0.41683 0.0
C907 C 0.63925 0.04074 0.43763 0.0
C908 C 0.629 0.05495 0.45608 0.0
C909 C 0.62634 0.01253 0.44033 0.0
C910 C 0.60893 0.04159 0.48163 0.0
C911 C 0.59707 0.01378 0.48603 0.0
H912 H 0.41896 0.57516 0.92124 0.0
H913 H 0.46609 0.63351 0.00111 0.0
H914 H 0.43272 0.6066 0.04567 0.0
H915 H 0.3961 0.56189 0.06352 0.0
H916 H 0.34885 0.50345 0.98395 0.0
H917 H 0.37594 0.53515 0.93762 0.0
C918 C 0.42146 0.58238 0.9482 0.0
C919 C 0.4453 0.60585 0.95808 0.0
C920 C 0.4024 0.56655 0.97384 0.0
C921 C 0.44806 0.61535 0.99288 0.0
C922 C 0.42909 0.59982 0.01849 0.0
C923 C 0.39128 0.55645 0.03599 0.0
C924 C 0.37105 0.53024 0.02706 0.0
C925 C 0.4071 0.57465 0.00958 0.0
C926 C 0.36452 0.52348 0.9914 0.0
C927 C 0.38014 0.54153 0.96492 0.0
H928 H 0.85086 0.40809 0.57123 0.0
H929 H 0.84836 0.35627 0.48718 0.0
H930 H 0.83982 0.3832 0.44435 0.0
H931 H 0.84286 0.42668 0.43023 0.0
H932 H 0.84604 0.47867 0.51473 0.0
H933 H 0.84359 0.44604 0.55808 0.0
C934 C 0.84761 0.40227 0.54365 0.0
C935 C 0.85072 0.38064 0.53212 0.0
C936 C 0.84312 0.41804 0.51928 0.0
C937 C 0.84612 0.37292 0.49654 0.0
C938 C 0.84148 0.38847 0.47205 0.0
C939 C 0.84225 0.43052 0.45814 0.0
C940 C 0.84544 0.45543 0.46926 0.0
C941 C 0.84142 0.41189 0.48296 0.0
C942 C 0.84396 0.45984 0.50544 0.0
C943 C 0.84279 0.44127 0.53029 0.0
H944 H 0.39651 0.85396 0.9555 0.0
H945 H 0.43929 0.9383 0.92778 0.0
H946 H 0.47995 0.94363 0.95618 0.0
H947 H 0.50215 0.92519 0.99315 0.0
H948 H 0.46019 0.84058 0.019 0.0
H949 H 0.42042 0.83442 0.98683 0.0
C950 C 0.41481 0.87344 0.95541 0.0
C951 C 0.41477 0.89577 0.94 0.0
C952 C 0.43818 0.87634 0.97161 0.0
C953 C 0.43875 0.9208 0.93954 0.0
C954 C 0.46199 0.9239 0.95592 0.0
C955 C 0.48435 0.90537 0.99148 0.0
C956 C 0.4839 0.88344 0.00879 0.0
C957 C 0.46173 0.90196 0.97271 0.0
C958 C 0.46095 0.85776 0.00593 0.0
C959 C 0.43819 0.85426 0.98768 0.0
H960 H 0.54896 0.39782 0.43301 0.0
H961 H 0.49317 0.36195 0.51917 0.0
H962 H 0.52812 0.39185 0.56099 0.0
H963 H 0.57157 0.4335 0.57062 0.0
H964 H 0.62712 0.4691 0.48386 0.0
H965 H 0.59557 0.43337 0.44472 0.0
C966 C 0.54475 0.39617 0.46109 0.0
C967 C 0.51861 0.37824 0.47318 0.0
C968 C 0.56482 0.41342 0.48468 0.0
C969 C 0.51323 0.37578 0.50948 0.0
C970 C 0.53314 0.39296 0.53325 0.0
C971 C 0.57704 0.43301 0.54335 0.0
C972 C 0.60131 0.45425 0.52988 0.0
C973 C 0.55859 0.41267 0.52087 0.0
C974 C 0.60847 0.45311 0.49477 0.0
C975 C 0.59032 0.43283 0.47229 0.0
H976 H 0.06944 0.49591 0.00759 0.0
H977 H 0.14895 0.54511 0.96434 0.0
H978 H 0.15453 0.58375 -0.00092 0.0
H979 H 0.13435 0.60454 0.03641 0.0
H980 H 0.05517 0.55411 0.08079 0.0
H981 H 0.0522 0.51489 0.05161 0.0
C982 C 0.08812 0.51503 0.00616 0.0
C983 C 0.10858 0.51789 0.98307 0.0
C984 C 0.09121 0.53694 0.02634 0.0
C985 C 0.1329 0.54253 0.98187 0.0
C986 C 0.13602 0.56461 0.00161 0.0
C987 C 0.11664 0.5849 0.04019 0.0
C988 C 0.0948 0.58249 0.06024 0.0
C989 C 0.11496 0.56224 0.02316 0.0
C990 C 0.0722 0.55674 0.06528 0.0
C991 C 0.07039 0.53423 0.04843 0.0
H992 H 0.53352 0.16437 0.49736 0.0
H993 H 0.57892 0.16373 0.58771 0.0
H994 H 0.61715 0.17326 0.54988 0.0
H995 H 0.63226 0.16963 0.4908 0.0
H996 H 0.58434 0.16459 0.40026 0.0
H997 H 0.55306 0.17026 0.43813 0.0
C998 C 0.55217 0.16736 0.50885 0.0
C999 C 0.55327 0.1628 0.54507 0.0
C1000 C 0.5735 0.1713 0.48668 0.0
C1001 C 0.57752 0.16673 0.55974 0.0
C1002 C 0.59932 0.17202 0.53809 0.0
C1003 C 0.61555 0.1708 0.47921 0.0
C1004 C 0.6102 0.16598 0.44296 0.0
C1005 C 0.59681 0.1725 0.50136 0.0
C1006 C 0.58858 0.16773 0.42826 0.0
C1007 C 0.57057 0.1708 0.44993 0.0
H1008 H 0.56461 0.41198 0.05584 0.0
H1009 H 0.50916 0.36947 0.97123 0.0
H1010 H 0.54157 0.40094 0.9283 0.0
H1011 H 0.58186 0.44508 0.91687 0.0
H1012 H 0.63713 0.48739 0.00192 0.0
H1013 H 0.60895 0.45106 0.04255 0.0
C1014 C 0.55992 0.40929 0.02789 0.0
C1015 C 0.53441 0.38891 0.01664 0.0
C1016 C 0.57852 0.42752 0.00355 0.0
C1017 C 0.52865 0.38517 0.98043 0.0
C1018 C 0.5471 0.40325 0.95595 0.0
C1019 C 0.58807 0.446 0.94411 0.0
C1020 C 0.61118 0.46918 0.95659 0.0
C1021 C 0.57154 0.42521 0.96746 0.0
C1022 C 0.61932 0.46989 0.99172 0.0
C1023 C 0.60309 0.44921 0.01506 0.0
H1024 H 0.16552 0.58432 0.40137 0.0
H1025 H 0.17453 0.63956 0.48475 0.0
H1026 H 0.17461 0.60842 0.52848 0.0
H1027 H 0.16038 0.56138 0.54315 0.0
H1028 H 0.14973 0.50542 0.4604 0.0
H1029 H 0.16231 0.54096 0.41621 0.0
C1030 C 0.16835 0.58992 0.42903 0.0
C1031 C 0.16904 0.6138 0.43988 0.0
C1032 C 0.16754 0.57153 0.45416 0.0
C1033 C 0.17345 0.62111 0.47568 0.0
C1034 C 0.17326 0.60318 0.50079 0.0
C1035 C 0.16187 0.55734 0.51552 0.0
C1036 C 0.15386 0.53095 0.50476 0.0
C1037 C 0.16852 0.57768 0.49042 0.0
C1038 C 0.1559 0.5257 0.46911 0.0
C1039 C 0.16281 0.54595 0.44387 0.0
H1040 H 0.58549 0.13753 0.06376 0.0
H1041 H 0.62635 0.13932 0.96754 0.0
H1042 H 0.59289 0.1443 0.93315 0.0
H1043 H 0.54678 0.13736 0.93065 0.0
H1044 H 0.50623 0.13622 0.02686 0.0
H1045 H 0.54514 0.14254 0.06135 0.0
C1046 C 0.58753 0.14001 0.03535 0.0
C1047 C 0.6079 0.1376 0.01798 0.0
C1048 C 0.56812 0.14263 0.01588 0.0
C1049 C 0.61073 0.14109 0.98131 0.0
C1050 C 0.59146 0.14367 0.96168 0.0
C1051 C 0.54699 0.13956 0.9591 0.0
C1052 C 0.52371 0.13593 0.97641 0.0
C1053 C 0.56927 0.14288 0.97862 0.0
C1054 C 0.52403 0.13898 0.01313 0.0
C1055 C 0.54614 0.14228 0.03282 0.0
H1056 H 0.48167 0.60806 0.53759 0.0
H1057 H 0.52572 0.56531 0.5274 0.0
H1058 H 0.488 0.529 0.49624 0.0
H1059 H 0.4435 0.51011 0.46947 0.0
H1060 H 0.3978 0.55084 0.4809 0.0
H1061 H 0.43513 0.58718 0.51401 0.0
C1062 C 0.48298 0.59079 0.52856 0.0
C1063 C 0.50669 0.58966 0.53453 0.0
C1064 C 0.46098 0.56965 0.51077 0.0
C1065 C 0.50784 0.56687 0.52315 0.0
C1066 C 0.48627 0.54604 0.50521 0.0
C1067 C 0.44167 0.52694 0.47925 0.0
C1068 C 0.41812 0.52801 0.47242 0.0
C1069 C 0.46293 0.54739 0.49849 0.0
C1070 C 0.41579 0.54963 0.48582 0.0
C1071 C 0.43715 0.57041 0.50462 0.0
H1072 H 0.85073 0.37706 0.03642 0.0
H1073 H 0.82808 0.39632 0.93712 0.0
H1074 H 0.8188 0.42894 0.96609 0.0
H1075 H 0.83115 0.4609 0.01518 0.0
H1076 H 0.86052 0.44564 0.11218 0.0
H1077 H 0.85258 0.40244 0.08941 0.0
C1078 C 0.84233 0.38737 0.02164 0.0
C1079 C 0.84017 0.38459 0.98489 0.0
C1080 C 0.83913 0.40755 0.03808 0.0
C1081 C 0.82973 0.39823 0.96558 0.0
C1082 C 0.82486 0.41717 0.98207 0.0
C1083 C 0.83476 0.44759 0.03177 0.0
C1084 C 0.84709 0.45664 0.06481 0.0
C1085 C 0.83163 0.4235 0.0177 0.0
C1086 C 0.85157 0.43924 0.08626 0.0
C1087 C 0.84713 0.41459 0.07321 0.0
H1088 H 0.43129 0.86189 0.42846 0.0
H1089 H 0.48049 0.85614 0.51034 0.0
H1090 H 0.44678 0.85002 0.55455 0.0
H1091 H 0.40649 0.85264 0.5705 0.0
H1092 H 0.35689 0.85754 0.48846 0.0
H1093 H 0.38735 0.85716 0.44359 0.0
C1094 C 0.43437 0.85882 0.45592 0.0
C1095 C 0.45849 0.85991 0.46628 0.0
C1096 C 0.41494 0.85534 0.48112 0.0
C1097 C 0.46211 0.85545 0.50178 0.0
C1098 C 0.44292 0.85212 0.52708 0.0
C1099 C 0.40209 0.8531 0.54275 0.0
C1100 C 0.37975 0.85555 0.53277 0.0
C1101 C 0.41974 0.85298 0.51716 0.0
C1102 C 0.37399 0.8557 0.49678 0.0
C1103 C 0.39152 0.85569 0.47114 0.0
loop_
_geom_bond_atom_site_label_1
_geom_bond_atom_site_label_2
_geom_bond_distance
_geom_bond_site_symmetry_2
_ccdc_geom_bond_type
Zn0 O3 2.031 . S
Zn0 O5 2.049 . S
Zn0 O10 2.067 . S
Zn1 O2 1.962 . S
Zn1 O4 1.986 . S
Zn1 O6 1.996 . S
Zn1 O9 1.943 . S
O2 Zn1 1.962 . S
O2 C7 1.254 . S
O3 Zn0 2.031 . S
O3 C7 1.269 . S
O4 Zn1 1.986 . S
O4 C11 1.262 . S
O5 Zn0 2.049 . S
O5 C13 1.260 . S
O6 Zn1 1.996 . S
O6 C13 1.257 . S
C7 O2 1.254 . S
C7 O3 1.269 . S
C8 O9 1.249 . S
C8 O10 1.270 . S
O9 Zn1 1.943 . S
O9 C8 1.249 . S
O10 Zn0 2.067 . S
O10 C8 1.270 . S
C11 O4 1.262 . S
C11 O12 1.232 . S
O12 C11 1.232 . S
C13 O5 1.260 . S
C13 O6 1.257 . S
Zn14 O17 2.031 . S
Zn14 O19 2.049 . S
Zn14 O24 2.067 . S
Zn15 O16 1.962 . S
Zn15 O18 1.986 . S
Zn15 O20 1.996 . S
Zn15 O23 1.943 . S
O16 Zn15 1.962 . S
O16 C21 1.254 . S
O17 Zn14 2.031 . S
O17 C21 1.269 . S
O18 Zn15 1.986 . S
O18 C25 1.262 . S
O19 Zn14 2.049 . S
O19 C27 1.260 . S
O20 Zn15 1.996 . S
O20 C27 1.257 . S
C21 O16 1.254 . S
C21 O17 1.269 . S
C22 O23 1.249 . S
C22 O24 1.270 . S
O23 Zn15 1.943 . S
O23 C22 1.249 . S
O24 Zn14 2.067 . S
O24 C22 1.270 . S
C25 O18 1.262 . S
C25 O26 1.232 . S
O26 C25 1.232 . S
C27 O19 1.260 . S
C27 O20 1.257 . S
Zn28 O31 2.031 . S
Zn28 O33 2.049 . S
Zn28 O38 2.067 . S
Zn29 O30 1.962 . S
Zn29 O32 1.986 . S
Zn29 O34 1.996 . S
Zn29 O37 1.943 . S
O30 Zn29 1.962 . S
O30 C35 1.254 . S
O31 Zn28 2.031 . S
O31 C35 1.269 . S
O32 Zn29 1.986 . S
O32 C39 1.262 . S
O33 Zn28 2.049 . S
O33 C41 1.260 . S
O34 Zn29 1.996 . S
O34 C41 1.257 . S
C35 O30 1.254 . S
C35 O31 1.269 . S
C36 O37 1.249 . S
C36 O38 1.270 . S
O37 Zn29 1.943 . S
O37 C36 1.249 . S
O38 Zn28 2.067 . S
O38 C36 1.270 . S
C39 O32 1.262 . S
C39 O40 1.232 . S
O40 C39 1.232 . S
C41 O33 1.260 . S
C41 O34 1.257 . S
Zn42 O45 2.031 . S
Zn42 O47 2.049 . S
Zn42 O52 2.067 . S
Zn43 O44 1.962 . S
Zn43 O46 1.986 . S
Zn43 O48 1.996 . S
Zn43 O51 1.943 . S
O44 Zn43 1.962 . S
O44 C49 1.254 . S
O45 Zn42 2.031 . S
O45 C49 1.269 . S
O46 Zn43 1.986 . S
O46 C53 1.262 . S
O47 Zn42 2.049 . S
O47 C55 1.260 . S
O48 Zn43 1.996 . S
O48 C55 1.257 . S
C49 O44 1.254 . S
C49 O45 1.269 . S
C50 O51 1.249 . S
C50 O52 1.270 . S
O51 Zn43 1.943 . S
O51 C50 1.249 . S
O52 Zn42 2.067 . S
O52 C50 1.270 . S
C53 O46 1.262 . S
C53 O54 1.232 . S
O54 C53 1.232 . S
C55 O47 1.260 . S
C55 O48 1.257 . S
Zn56 O59 2.031 . S
Zn56 O61 2.049 . S
Zn56 O66 2.067 . S
Zn57 O58 1.962 . S
Zn57 O60 1.986 . S
Zn57 O62 1.996 . S
Zn57 O65 1.943 . S
O58 Zn57 1.962 . S
O58 C63 1.254 . S
O59 Zn56 2.031 . S
O59 C63 1.269 . S
O60 Zn57 1.986 . S
O60 C67 1.262 . S
O61 Zn56 2.049 . S
O61 C69 1.260 . S
O62 Zn57 1.996 . S
O62 C69 1.257 . S
C63 O58 1.254 . S
C63 O59 1.269 . S
C64 O65 1.249 . S
C64 O66 1.270 . S
O65 Zn57 1.943 . S
O65 C64 1.249 . S
O66 Zn56 2.067 . S
O66 C64 1.270 . S
C67 O60 1.262 . S
C67 O68 1.232 . S
O68 C67 1.232 . S
C69 O61 1.260 . S
C69 O62 1.257 . S
Zn70 O73 2.031 . S
Zn70 O75 2.049 . S
Zn70 O80 2.067 . S
Zn71 O72 1.962 . S
Zn71 O74 1.986 . S
Zn71 O76 1.996 . S
Zn71 O79 1.943 . S
O72 Zn71 1.962 . S
O72 C77 1.254 . S
O73 Zn70 2.031 . S
O73 C77 1.269 . S
O74 Zn71 1.986 . S
O74 C81 1.262 . S
O75 Zn70 2.049 . S
O75 C83 1.260 . S
O76 Zn71 1.996 . S
O76 C83 1.257 . S
C77 O72 1.254 . S
C77 O73 1.269 . S
C78 O79 1.249 . S
C78 O80 1.270 . S
O79 Zn71 1.943 . S
O79 C78 1.249 . S
O80 Zn70 2.067 . S
O80 C78 1.270 . S
C81 O74 1.262 . S
C81 O82 1.232 . S
O82 C81 1.232 . S
C83 O75 1.260 . S
C83 O76 1.257 . S
Zn84 O87 2.031 . S
Zn84 O89 2.049 . S
Zn84 O94 2.067 . S
Zn85 O86 1.962 . S
Zn85 O88 1.986 . S
Zn85 O90 1.996 . S
Zn85 O93 1.943 . S
O86 Zn85 1.962 . S
O86 C91 1.254 . S
O87 Zn84 2.031 . S
O87 C91 1.269 . S
O88 Zn85 1.986 . S
O88 C95 1.262 . S
O89 Zn84 2.049 . S
O89 C97 1.260 . S
O90 Zn85 1.996 . S
O90 C97 1.257 . S
C91 O86 1.254 . S
C91 O87 1.269 . S
C92 O93 1.249 . S
C92 O94 1.270 . S
O93 Zn85 1.943 . S
O93 C92 1.249 . S
O94 Zn84 2.067 . S
O94 C92 1.270 . S
C95 O88 1.262 . S
C95 O96 1.232 . S
O96 C95 1.232 . S
C97 O89 1.260 . S
C97 O90 1.257 . S
Zn98 O101 2.031 . S
Zn98 O103 2.049 . S
Zn98 O108 2.067 . S
Zn99 O100 1.962 . S
Zn99 O102 1.986 . S
Zn99 O104 1.996 . S
Zn99 O107 1.943 . S
O100 Zn99 1.962 . S
O100 C105 1.254 . S
O101 Zn98 2.031 . S
O101 C105 1.269 . S
O102 Zn99 1.986 . S
O102 C109 1.262 . S
O103 Zn98 2.049 . S
O103 C111 1.260 . S
O104 Zn99 1.996 . S
O104 C111 1.257 . S
C105 O100 1.254 . S
C105 O101 1.269 . S
C106 O107 1.249 . S
C106 O108 1.270 . S
O107 Zn99 1.943 . S
O107 C106 1.249 . S
O108 Zn98 2.067 . S
O108 C106 1.270 . S
C109 O102 1.262 . S
C109 O110 1.232 . S
O110 C109 1.232 . S
C111 O103 1.260 . S
C111 O104 1.257 . S
Zn112 O115 2.031 . S
Zn112 O117 2.049 . S
Zn112 O122 2.067 . S
Zn113 O114 1.962 . S
Zn113 O116 1.986 . S
Zn113 O118 1.996 . S
Zn113 O121 1.943 . S
O114 Zn113 1.962 . S
O114 C119 1.254 . S
O115 Zn112 2.031 . S
O115 C119 1.269 . S
O116 Zn113 1.986 . S
O116 C123 1.262 . S
O117 Zn112 2.049 . S
O117 C125 1.260 . S
O118 Zn113 1.996 . S
O118 C125 1.257 . S
C119 O114 1.254 . S
C119 O115 1.269 . S
C120 O121 1.249 . S
C120 O122 1.270 . S
O121 Zn113 1.943 . S
O121 C120 1.249 . S
O122 Zn112 2.067 . S
O122 C120 1.270 . S
C123 O116 1.262 . S
C123 O124 1.232 . S
O124 C123 1.232 . S
C125 O117 1.260 . S
C125 O118 1.257 . S
Zn126 O129 2.031 . S
Zn126 O131 2.049 . S
Zn126 O136 2.067 . S
Zn127 O128 1.962 . S
Zn127 O130 1.986 . S
Zn127 O132 1.996 . S
Zn127 O135 1.943 . S
O128 Zn127 1.962 . S
O128 C133 1.254 . S
O129 Zn126 2.031 . S
O129 C133 1.269 . S
O130 Zn127 1.986 . S
O130 C137 1.262 . S
O131 Zn126 2.049 . S
O131 C139 1.260 . S
O132 Zn127 1.996 . S
O132 C139 1.257 . S
C133 O128 1.254 . S
C133 O129 1.269 . S
C134 O135 1.249 . S
C134 O136 1.270 . S
O135 Zn127 1.943 . S
O135 C134 1.249 . S
O136 Zn126 2.067 . S
O136 C134 1.270 . S
C137 O130 1.262 . S
C137 O138 1.232 . S
O138 C137 1.232 . S
C139 O131 1.260 . S
C139 O132 1.257 . S
Zn140 O143 2.031 . S
Zn140 O145 2.049 . S
Zn140 O150 2.067 . S
Zn141 O142 1.962 . S
Zn141 O144 1.986 . S
Zn141 O146 1.996 . S
Zn141 O149 1.943 . S
O142 Zn141 1.962 . S
O142 C147 1.254 . S
O143 Zn140 2.031 . S
O143 C147 1.269 . S
O144 Zn141 1.986 . S
O144 C151 1.262 . S
O145 Zn140 2.049 . S
O145 C153 1.260 . S
O146 Zn141 1.996 . S
O146 C153 1.257 . S
C147 O142 1.254 . S
C147 O143 1.269 . S
C148 O149 1.249 . S
C148 O150 1.270 . S
O149 Zn141 1.943 . S
O149 C148 1.249 . S
O150 Zn140 2.067 . S
O150 C148 1.270 . S
C151 O144 1.262 . S
C151 O152 1.232 . S
O152 C151 1.232 . S
C153 O145 1.260 . S
C153 O146 1.257 . S
Zn154 O157 2.031 . S
Zn154 O159 2.049 . S
Zn154 O164 2.067 . S
Zn155 O156 1.962 . S
Zn155 O158 1.986 . S
Zn155 O160 1.996 . S
Zn155 O163 1.943 . S
O156 Zn155 1.962 . S
O156 C161 1.254 . S
O157 Zn154 2.031 . S
O157 C161 1.269 . S
O158 Zn155 1.986 . S
O158 C165 1.262 . S
O159 Zn154 2.049 . S
O159 C167 1.260 . S
O160 Zn155 1.996 . S
O160 C167 1.257 . S
C161 O156 1.254 . S
C161 O157 1.269 . S
C162 O163 1.249 . S
C162 O164 1.270 . S
O163 Zn155 1.943 . S
O163 C162 1.249 . S
O164 Zn154 2.067 . S
O164 C162 1.270 . S
C165 O158 1.262 . S
C165 O166 1.232 . S
O166 C165 1.232 . S
C167 O159 1.260 . S
C167 O160 1.257 . S
Zn168 O171 2.031 . S
Zn168 O173 2.049 . S
Zn168 O178 2.067 . S
Zn169 O170 1.962 . S
Zn169 O172 1.986 . S
Zn169 O174 1.996 . S
Zn169 O177 1.943 . S
O170 Zn169 1.962 . S
O170 C175 1.254 . S
O171 Zn168 2.031 . S
O171 C175 1.269 . S
O172 Zn169 1.986 . S
O172 C179 1.262 . S
O173 Zn168 2.049 . S
O173 C181 1.260 . S
O174 Zn169 1.996 . S
O174 C181 1.257 . S
C175 O170 1.254 . S
C175 O171 1.269 . S
C176 O177 1.249 . S
C176 O178 1.270 . S
O177 Zn169 1.943 . S
O177 C176 1.249 . S
O178 Zn168 2.067 . S
O178 C176 1.270 . S
C179 O172 1.262 . S
C179 O180 1.232 . S
O180 C179 1.232 . S
C181 O173 1.260 . S
C181 O174 1.257 . S
Zn182 O185 2.031 . S
Zn182 O187 2.049 . S
Zn182 O192 2.067 . S
Zn183 O184 1.962 . S
Zn183 O186 1.986 . S
Zn183 O188 1.996 . S
Zn183 O191 1.943 . S
O184 Zn183 1.962 . S
O184 C189 1.254 . S
O185 Zn182 2.031 . S
O185 C189 1.269 . S
O186 Zn183 1.986 . S
O186 C193 1.262 . S
O187 Zn182 2.049 . S
O187 C195 1.260 . S
O188 Zn183 1.996 . S
O188 C195 1.257 . S
C189 O184 1.254 . S
C189 O185 1.269 . S
C190 O191 1.249 . S
C190 O192 1.270 . S
O191 Zn183 1.943 . S
O191 C190 1.249 . S
O192 Zn182 2.067 . S
O192 C190 1.270 . S
C193 O186 1.262 . S
C193 O194 1.232 . S
O194 C193 1.232 . S
C195 O187 1.260 . S
C195 O188 1.257 . S
Zn196 O199 2.031 . S
Zn196 O201 2.049 . S
Zn196 O206 2.067 . S
Zn197 O198 1.962 . S
Zn197 O200 1.986 . S
Zn197 O202 1.996 . S
Zn197 O205 1.943 . S
O198 Zn197 1.962 . S
O198 C203 1.254 . S
O199 Zn196 2.031 . S
O199 C203 1.269 . S
O200 Zn197 1.986 . S
O200 C207 1.262 . S
O201 Zn196 2.049 . S
O201 C209 1.260 . S
O202 Zn197 1.996 . S
O202 C209 1.257 . S
C203 O198 1.254 . S
C203 O199 1.269 . S
C204 O205 1.249 . S
C204 O206 1.270 . S
O205 Zn197 1.943 . S
O205 C204 1.249 . S
O206 Zn196 2.067 . S
O206 C204 1.270 . S
C207 O200 1.262 . S
C207 O208 1.232 . S
O208 C207 1.232 . S
C209 O201 1.260 . S
C209 O202 1.257 . S
Zn210 O213 2.031 . S
Zn210 O215 2.049 . S
Zn210 O220 2.067 . S
Zn211 O212 1.962 . S
Zn211 O214 1.986 . S
Zn211 O216 1.996 . S
Zn211 O219 1.943 . S
O212 Zn211 1.962 . S
O212 C217 1.254 . S
O213 Zn210 2.031 . S
O213 C217 1.269 . S
O214 Zn211 1.986 . S
O214 C221 1.262 . S
O215 Zn210 2.049 . S
O215 C223 1.260 . S
O216 Zn211 1.996 . S
O216 C223 1.257 . S
C217 O212 1.254 . S
C217 O213 1.269 . S
C218 O219 1.249 . S
C218 O220 1.270 . S
O219 Zn211 1.943 . S
O219 C218 1.249 . S
O220 Zn210 2.067 . S
O220 C218 1.270 . S
C221 O214 1.262 . S
C221 O222 1.232 . S
O222 C221 1.232 . S
C223 O215 1.260 . S
C223 O216 1.257 . S
Zn224 O227 2.031 . S
Zn224 O229 2.049 . S
Zn224 O234 2.067 . S
Zn225 O226 1.962 . S
Zn225 O228 1.986 . S
Zn225 O230 1.996 . S
Zn225 O233 1.943 . S
O226 Zn225 1.962 . S
O226 C231 1.254 . S
O227 Zn224 2.031 . S
O227 C231 1.269 . S
O228 Zn225 1.986 . S
O228 C235 1.262 . S
O229 Zn224 2.049 . S
O229 C237 1.260 . S
O230 Zn225 1.996 . S
O230 C237 1.257 . S
C231 O226 1.254 . S
C231 O227 1.269 . S
C232 O233 1.249 . S
C232 O234 1.270 . S
O233 Zn225 1.943 . S
O233 C232 1.249 . S
O234 Zn224 2.067 . S
O234 C232 1.270 . S
C235 O228 1.262 . S
C235 O236 1.232 . S
O236 C235 1.232 . S
C237 O229 1.260 . S
C237 O230 1.257 . S
Zn238 O241 2.031 . S
Zn238 O243 2.049 . S
Zn238 O248 2.067 . S
Zn239 O240 1.962 . S
Zn239 O242 1.986 . S
Zn239 O244 1.996 . S
Zn239 O247 1.943 . S
O240 Zn239 1.962 . S
O240 C245 1.254 . S
O241 Zn238 2.031 . S
O241 C245 1.269 . S
O242 Zn239 1.986 . S
O242 C249 1.262 . S
O243 Zn238 2.049 . S
O243 C251 1.260 . S
O244 Zn239 1.996 . S
O244 C251 1.257 . S
C245 O240 1.254 . S
C245 O241 1.269 . S
C246 O247 1.249 . S
C246 O248 1.270 . S
O247 Zn239 1.943 . S
O247 C246 1.249 . S
O248 Zn238 2.067 . S
O248 C246 1.270 . S
C249 O242 1.262 . S
C249 O250 1.232 . S
O250 C249 1.232 . S
C251 O243 1.260 . S
C251 O244 1.257 . S
Zn252 O255 2.031 . S
Zn252 O257 2.049 . S
Zn252 O262 2.067 . S
Zn253 O254 1.962 . S
Zn253 O256 1.986 . S
Zn253 O258 1.996 . S
Zn253 O261 1.943 . S
O254 Zn253 1.962 . S
O254 C259 1.254 . S
O255 Zn252 2.031 . S
O255 C259 1.269 . S
O256 Zn253 1.986 . S
O256 C263 1.262 . S
O257 Zn252 2.049 . S
O257 C265 1.260 . S
O258 Zn253 1.996 . S
O258 C265 1.257 . S
C259 O254 1.254 . S
C259 O255 1.269 . S
C260 O261 1.249 . S
C260 O262 1.270 . S
O261 Zn253 1.943 . S
O261 C260 1.249 . S
O262 Zn252 2.067 . S
O262 C260 1.270 . S
C263 O256 1.262 . S
C263 O264 1.232 . S
O264 C263 1.232 . S
C265 O257 1.260 . S
C265 O258 1.257 . S
Zn266 O269 2.031 . S
Zn266 O271 2.049 . S
Zn266 O276 2.067 . S
Zn267 O268 1.962 . S
Zn267 O270 1.986 . S
Zn267 O272 1.996 . S
Zn267 O275 1.943 . S
O268 Zn267 1.962 . S
O268 C273 1.254 . S
O269 Zn266 2.031 . S
O269 C273 1.269 . S
O270 Zn267 1.986 . S
O270 C277 1.262 . S
O271 Zn266 2.049 . S
O271 C279 1.260 . S
O272 Zn267 1.996 . S
O272 C279 1.257 . S
C273 O268 1.254 . S
C273 O269 1.269 . S
C274 O275 1.249 . S
C274 O276 1.270 . S
O275 Zn267 1.943 . S
O275 C274 1.249 . S
O276 Zn266 2.067 . S
O276 C274 1.270 . S
C277 O270 1.262 . S
C277 O278 1.232 . S
O278 C277 1.232 . S
C279 O271 1.260 . S
C279 O272 1.257 . S
Zn280 O283 2.031 . S
Zn280 O285 2.049 . S
Zn280 O290 2.067 . S
Zn281 O282 1.962 . S
Zn281 O284 1.986 . S
Zn281 O286 1.996 . S
Zn281 O289 1.943 . S
O282 Zn281 1.962 . S
O282 C287 1.254 . S
O283 Zn280 2.031 . S
O283 C287 1.269 . S
O284 Zn281 1.986 . S
O284 C291 1.262 . S
O285 Zn280 2.049 . S
O285 C293 1.260 . S
O286 Zn281 1.996 . S
O286 C293 1.257 . S
C287 O282 1.254 . S
C287 O283 1.269 . S
C288 O289 1.249 . S
C288 O290 1.270 . S
O289 Zn281 1.943 . S
O289 C288 1.249 . S
O290 Zn280 2.067 . S
O290 C288 1.270 . S
C291 O284 1.262 . S
C291 O292 1.232 . S
O292 C291 1.232 . S
C293 O285 1.260 . S
C293 O286 1.257 . S
Zn294 O297 2.031 . S
Zn294 O299 2.049 . S
Zn294 O304 2.067 . S
Zn295 O296 1.962 . S
Zn295 O298 1.986 . S
Zn295 O300 1.996 . S
Zn295 O303 1.943 . S
O296 Zn295 1.962 . S
O296 C301 1.254 . S
O297 Zn294 2.031 . S
O297 C301 1.269 . S
O298 Zn295 1.986 . S
O298 C305 1.262 . S
O299 Zn294 2.049 . S
O299 C307 1.260 . S
O300 Zn295 1.996 . S
O300 C307 1.257 . S
C301 O296 1.254 . S
C301 O297 1.269 . S
C302 O303 1.249 . S
C302 O304 1.270 . S
O303 Zn295 1.943 . S
O303 C302 1.249 . S
O304 Zn294 2.067 . S
O304 C302 1.270 . S
C305 O298 1.262 . S
C305 O306 1.232 . S
O306 C305 1.232 . S
C307 O299 1.260 . S
C307 O300 1.257 . S
Zn308 O311 2.031 . S
Zn308 O313 2.049 . S
Zn308 O318 2.067 . S
Zn309 O310 1.962 . S
Zn309 O312 1.986 . S
Zn309 O314 1.996 . S
Zn309 O317 1.943 . S
O310 Zn309 1.962 . S
O310 C315 1.254 . S
O311 Zn308 2.031 . S
O311 C315 1.269 . S
O312 Zn309 1.986 . S
O312 C319 1.262 . S
O313 Zn308 2.049 . S
O313 C321 1.260 . S
O314 Zn309 1.996 . S
O314 C321 1.257 . S
C315 O310 1.254 . S
C315 O311 1.269 . S
C316 O317 1.249 . S
C316 O318 1.270 . S
O317 Zn309 1.943 . S
O317 C316 1.249 . S
O318 Zn308 2.067 . S
O318 C316 1.270 . S
C319 O312 1.262 . S
C319 O320 1.232 . S
O320 C319 1.232 . S
C321 O313 1.260 . S
C321 O314 1.257 . S
Zn322 O325 2.031 . S
Zn322 O327 2.049 . S
Zn322 O332 2.067 . S
Zn323 O324 1.962 . S
Zn323 O326 1.986 . S
Zn323 O328 1.996 . S
Zn323 O331 1.943 . S
O324 Zn323 1.962 . S
O324 C329 1.254 . S
O325 Zn322 2.031 . S
O325 C329 1.269 . S
O326 Zn323 1.986 . S
O326 C333 1.262 . S
O327 Zn322 2.049 . S
O327 C335 1.260 . S
O328 Zn323 1.996 . S
O328 C335 1.257 . S
C329 O324 1.254 . S
C329 O325 1.269 . S
C330 O331 1.249 . S
C330 O332 1.270 . S
O331 Zn323 1.943 . S
O331 C330 1.249 . S
O332 Zn322 2.067 . S
O332 C330 1.270 . S
C333 O326 1.262 . S
C333 O334 1.232 . S
O334 C333 1.232 . S
C335 O327 1.260 . S
C335 O328 1.257 . S
H336 C342 0.930 . S
H337 C345 0.930 . S
H338 C346 0.930 . S
H339 C347 0.930 . S
H340 C350 0.930 . S
H341 C351 0.930 . S
C342 H336 0.930 . S
C342 C343 1.355 . S
C342 C344 1.415 . S
C343 C342 1.355 . S
C343 C345 1.419 . S
C344 C342 1.415 . S
C344 C349 1.425 . S
C344 C351 1.409 . S
C345 H337 0.930 . S
C345 C343 1.419 . S
C345 C346 1.362 . S
C346 H338 0.930 . S
C346 C345 1.362 . S
C346 C349 1.409 . S
C347 H339 0.930 . S
C347 C348 1.355 . S
C347 C349 1.415 . S
C348 C347 1.355 . S
C348 C350 1.419 . S
C349 C344 1.425 . S
C349 C346 1.409 . S
C349 C347 1.415 . S
C350 H340 0.930 . S
C350 C348 1.419 . S
C350 C351 1.362 . S
C351 H341 0.930 . S
C351 C344 1.409 . S
C351 C350 1.362 . S
H352 C358 0.930 . S
H353 C361 0.930 . S
H354 C362 0.930 . S
H355 C363 0.930 . S
H356 C366 0.930 . S
H357 C367 0.930 . S
C358 H352 0.930 . S
C358 C359 1.355 . S
C358 C360 1.415 . S
C359 C358 1.355 . S
C359 C361 1.419 . S
C360 C358 1.415 . S
C360 C365 1.425 . S
C360 C367 1.409 . S
C361 H353 0.930 . S
C361 C359 1.419 . S
C361 C362 1.362 . S
C362 H354 0.930 . S
C362 C361 1.362 . S
C362 C365 1.409 . S
C363 H355 0.930 . S
C363 C364 1.355 . S
C363 C365 1.415 . S
C364 C363 1.355 . S
C364 C366 1.419 . S
C365 C360 1.425 . S
C365 C362 1.409 . S
C365 C363 1.415 . S
C366 H356 0.930 . S
C366 C364 1.419 . S
C366 C367 1.362 . S
C367 H357 0.930 . S
C367 C360 1.409 . S
C367 C366 1.362 . S
H368 C374 0.930 . S
H369 C377 0.930 . S
H370 C378 0.930 . S
H371 C379 0.930 . S
H372 C382 0.930 . S
H373 C383 0.930 . S
C374 H368 0.930 . S
C374 C375 1.355 . S
C374 C376 1.415 . S
C375 C374 1.355 . S
C375 C377 1.419 . S
C376 C374 1.415 . S
C376 C381 1.425 . S
C376 C383 1.409 . S
C377 H369 0.930 . S
C377 C375 1.419 . S
C377 C378 1.362 . S
C378 H370 0.930 . S
C378 C377 1.362 . S
C378 C381 1.409 . S
C379 H371 0.930 . S
C379 C380 1.355 . S
C379 C381 1.415 . S
C380 C379 1.355 . S
C380 C382 1.419 . S
C381 C376 1.425 . S
C381 C378 1.409 . S
C381 C379 1.415 . S
C382 H372 0.930 . S
C382 C380 1.419 . S
C382 C383 1.362 . S
C383 H373 0.930 . S
C383 C376 1.409 . S
C383 C382 1.362 . S
H384 C390 0.930 . S
H385 C393 0.930 . S
H386 C394 0.930 . S
H387 C395 0.930 . S
H388 C398 0.930 . S
H389 C399 0.930 . S
C390 H384 0.930 . S
C390 C391 1.355 . S
C390 C392 1.415 . S
C391 C390 1.355 . S
C391 C393 1.419 . S
C392 C390 1.415 . S
C392 C397 1.425 . S
C392 C399 1.409 . S
C393 H385 0.930 . S
C393 C391 1.419 . S
C393 C394 1.362 . S
C394 H386 0.930 . S
C394 C393 1.362 . S
C394 C397 1.409 . S
C395 H387 0.930 . S
C395 C396 1.355 . S
C395 C397 1.415 . S
C396 C395 1.355 . S
C396 C398 1.419 . S
C397 C392 1.425 . S
C397 C394 1.409 . S
C397 C395 1.415 . S
C398 H388 0.930 . S
C398 C396 1.419 . S
C398 C399 1.362 . S
C399 H389 0.930 . S
C399 C392 1.409 . S
C399 C398 1.362 . S
H400 C406 0.930 . S
H401 C409 0.930 . S
H402 C410 0.930 . S
H403 C411 0.930 . S
H404 C414 0.930 . S
H405 C415 0.930 . S
C406 H400 0.930 . S
C406 C407 1.355 . S
C406 C408 1.415 . S
C407 C406 1.355 . S
C407 C409 1.419 . S
C408 C406 1.415 . S
C408 C413 1.425 . S
C408 C415 1.409 . S
C409 H401 0.930 . S
C409 C407 1.419 . S
C409 C410 1.362 . S
C410 H402 0.930 . S
C410 C409 1.362 . S
C410 C413 1.409 . S
C411 H403 0.930 . S
C411 C412 1.355 . S
C411 C413 1.415 . S
C412 C411 1.355 . S
C412 C414 1.419 . S
C413 C408 1.425 . S
C413 C410 1.409 . S
C413 C411 1.415 . S
C414 H404 0.930 . S
C414 C412 1.419 . S
C414 C415 1.362 . S
C415 H405 0.930 . S
C415 C408 1.409 . S
C415 C414 1.362 . S
H416 C422 0.930 . S
H417 C425 0.930 . S
H418 C426 0.930 . S
H419 C427 0.930 . S
H420 C430 0.930 . S
H421 C431 0.930 . S
C422 H416 0.930 . S
C422 C423 1.355 . S
C422 C424 1.415 . S
C423 C422 1.355 . S
C423 C425 1.419 . S
C424 C422 1.415 . S
C424 C429 1.425 . S
C424 C431 1.409 . S
C425 H417 0.930 . S
C425 C423 1.419 . S
C425 C426 1.362 . S
C426 H418 0.930 . S
C426 C425 1.362 . S
C426 C429 1.409 . S
C427 H419 0.930 . S
C427 C428 1.355 . S
C427 C429 1.415 . S
C428 C427 1.355 . S
C428 C430 1.419 . S
C429 C424 1.425 . S
C429 C426 1.409 . S
C429 C427 1.415 . S
C430 H420 0.930 . S
C430 C428 1.419 . S
C430 C431 1.362 . S
C431 H421 0.930 . S
C431 C424 1.409 . S
C431 C430 1.362 . S
H432 C438 0.930 . S
H433 C441 0.930 . S
H434 C442 0.930 . S
H435 C443 0.930 . S
H436 C446 0.930 . S
H437 C447 0.930 . S
C438 H432 0.930 . S
C438 C439 1.355 . S
C438 C440 1.415 . S
C439 C438 1.355 . S
C439 C441 1.419 . S
C440 C438 1.415 . S
C440 C445 1.425 . S
C440 C447 1.409 . S
C441 H433 0.930 . S
C441 C439 1.419 . S
C441 C442 1.362 . S
C442 H434 0.930 . S
C442 C441 1.362 . S
C442 C445 1.409 . S
C443 H435 0.930 . S
C443 C444 1.355 . S
C443 C445 1.415 . S
C444 C443 1.355 . S
C444 C446 1.419 . S
C445 C440 1.425 . S
C445 C442 1.409 . S
C445 C443 1.415 . S
C446 H436 0.930 . S
C446 C444 1.419 . S
C446 C447 1.362 . S
C447 H437 0.930 . S
C447 C440 1.409 . S
C447 C446 1.362 . S
H448 C454 0.930 . S
H449 C457 0.930 . S
H450 C458 0.930 . S
H451 C459 0.930 . S
H452 C462 0.930 . S
H453 C463 0.930 . S
C454 H448 0.930 . S
C454 C455 1.355 . S
C454 C456 1.415 . S
C455 C454 1.355 . S
C455 C457 1.419 . S
C456 C454 1.415 . S
C456 C461 1.425 . S
C456 C463 1.409 . S
C457 H449 0.930 . S
C457 C455 1.419 . S
C457 C458 1.362 . S
C458 H450 0.930 . S
C458 C457 1.362 . S
C458 C461 1.409 . S
C459 H451 0.930 . S
C459 C460 1.355 . S
C459 C461 1.415 . S
C460 C459 1.355 . S
C460 C462 1.419 . S
C461 C456 1.425 . S
C461 C458 1.409 . S
C461 C459 1.415 . S
C462 H452 0.930 . S
C462 C460 1.419 . S
C462 C463 1.362 . S
C463 H453 0.930 . S
C463 C456 1.409 . S
C463 C462 1.362 . S
H464 C470 0.930 . S
H465 C473 0.930 . S
H466 C474 0.930 . S
H467 C475 0.930 . S
H468 C478 0.930 . S
H469 C479 0.930 . S
C470 H464 0.930 . S
C470 C471 1.355 . S
C470 C472 1.415 . S
C471 C470 1.355 . S
C471 C473 1.419 . S
C472 C470 1.415 . S
C472 C477 1.425 . S
C472 C479 1.409 . S
C473 H465 0.930 . S
C473 C471 1.419 . S
C473 C474 1.362 . S
C474 H466 0.930 . S
C474 C473 1.362 . S
C474 C477 1.409 . S
C475 H467 0.930 . S
C475 C476 1.355 . S
C475 C477 1.415 . S
C476 C475 1.355 . S
C476 C478 1.419 . S
C477 C472 1.425 . S
C477 C474 1.409 . S
C477 C475 1.415 . S
C478 H468 0.930 . S
C478 C476 1.419 . S
C478 C479 1.362 . S
C479 H469 0.930 . S
C479 C472 1.409 . S
C479 C478 1.362 . S
H480 C486 0.930 . S
H481 C489 0.930 . S
H482 C490 0.930 . S
H483 C491 0.930 . S
H484 C494 0.930 . S
H485 C495 0.930 . S
C486 H480 0.930 . S
C486 C487 1.355 . S
C486 C488 1.415 . S
C487 C486 1.355 . S
C487 C489 1.419 . S
C488 C486 1.415 . S
C488 C493 1.425 . S
C488 C495 1.409 . S
C489 H481 0.930 . S
C489 C487 1.419 . S
C489 C490 1.362 . S
C490 H482 0.930 . S
C490 C489 1.362 . S
C490 C493 1.409 . S
C491 H483 0.930 . S
C491 C492 1.355 . S
C491 C493 1.415 . S
C492 C491 1.355 . S
C492 C494 1.419 . S
C493 C488 1.425 . S
C493 C490 1.409 . S
C493 C491 1.415 . S
C494 H484 0.930 . S
C494 C492 1.419 . S
C494 C495 1.362 . S
C495 H485 0.930 . S
C495 C488 1.409 . S
C495 C494 1.362 . S
H496 C502 0.930 . S
H497 C505 0.930 . S
H498 C506 0.930 . S
H499 C507 0.930 . S
H500 C510 0.930 . S
H501 C511 0.930 . S
C502 H496 0.930 . S
C502 C503 1.355 . S
C502 C504 1.415 . S
C503 C502 1.355 . S
C503 C505 1.419 . S
C504 C502 1.415 . S
C504 C509 1.425 . S
C504 C511 1.409 . S
C505 H497 0.930 . S
C505 C503 1.419 . S
C505 C506 1.362 . S
C506 H498 0.930 . S
C506 C505 1.362 . S
C506 C509 1.409 . S
C507 H499 0.930 . S
C507 C508 1.355 . S
C507 C509 1.415 . S
C508 C507 1.355 . S
C508 C510 1.419 . S
C509 C504 1.425 . S
C509 C506 1.409 . S
C509 C507 1.415 . S
C510 H500 0.930 . S
C510 C508 1.419 . S
C510 C511 1.362 . S
C511 H501 0.930 . S
C511 C504 1.409 . S
C511 C510 1.362 . S
H512 C518 0.930 . S
H513 C521 0.930 . S
H514 C522 0.930 . S
H515 C523 0.930 . S
H516 C526 0.930 . S
H517 C527 0.930 . S
C518 H512 0.930 . S
C518 C519 1.355 . S
C518 C520 1.415 . S
C519 C518 1.355 . S
C519 C521 1.419 . S
C520 C518 1.415 . S
C520 C525 1.425 . S
C520 C527 1.409 . S
C521 H513 0.930 . S
C521 C519 1.419 . S
C521 C522 1.362 . S
C522 H514 0.930 . S
C522 C521 1.362 . S
C522 C525 1.409 . S
C523 H515 0.930 . S
C523 C524 1.355 . S
C523 C525 1.415 . S
C524 C523 1.355 . S
C524 C526 1.419 . S
C525 C520 1.425 . S
C525 C522 1.409 . S
C525 C523 1.415 . S
C526 H516 0.930 . S
C526 C524 1.419 . S
C526 C527 1.362 . S
C527 H517 0.930 . S
C527 C520 1.409 . S
C527 C526 1.362 . S
H528 C534 0.930 . S
H529 C537 0.930 . S
H530 C538 0.930 . S
H531 C539 0.930 . S
H532 C542 0.930 . S
H533 C543 0.930 . S
C534 H528 0.930 . S
C534 C535 1.355 . S
C534 C536 1.406 1_556 S
C535 C534 1.355 . S
C535 C537 1.419 . S
C536 C534 1.406 1_554 S
C536 C541 1.424 1_554 S
C536 C543 1.419 . S
C537 H529 0.930 . S
C537 C535 1.419 . S
C537 C538 1.362 . S
C538 H530 0.930 . S
C538 C537 1.362 . S
C538 C541 1.419 . S
C539 H531 0.930 . S
C539 C540 1.355 . S
C539 C541 1.406 1_554 S
C540 C539 1.355 . S
C540 C542 1.419 . S
C541 C536 1.424 1_556 S
C541 C538 1.419 . S
C541 C539 1.406 1_556 S
C542 H532 0.930 . S
C542 C540 1.419 . S
C542 C543 1.362 . S
C543 H533 0.930 . S
C543 C536 1.419 . S
C543 C542 1.362 . S
H544 C550 0.930 . S
H545 C553 0.930 . S
H546 C554 0.930 . S
H547 C555 0.930 . S
H548 C558 0.930 . S
H549 C559 0.930 . S
C550 H544 0.930 . S
C550 C551 1.355 . S
C550 C552 1.415 . S
C551 C550 1.355 . S
C551 C553 1.419 . S
C552 C550 1.415 . S
C552 C557 1.425 . S
C552 C559 1.409 . S
C553 H545 0.930 . S
C553 C551 1.419 . S
C553 C554 1.362 . S
C554 H546 0.930 . S
C554 C553 1.362 . S
C554 C557 1.409 . S
C555 H547 0.930 . S
C555 C556 1.355 . S
C555 C557 1.415 . S
C556 C555 1.355 . S
C556 C558 1.419 . S
C557 C552 1.425 . S
C557 C554 1.409 . S
C557 C555 1.415 . S
C558 H548 0.930 . S
C558 C556 1.419 . S
C558 C559 1.362 . S
C559 H549 0.930 . S
C559 C552 1.409 . S
C559 C558 1.362 . S
H560 C566 0.928 . S
H561 C569 0.930 . S
H562 C570 0.930 . S
H563 C571 0.928 . S
H564 C574 0.930 . S
H565 C575 0.930 . S
C566 H560 0.928 . S
C566 C567 1.357 1_556 S
C566 C568 1.414 . S
C567 C566 1.357 1_554 S
C567 C569 1.419 . S
C568 C566 1.414 . S
C568 C573 1.425 1_556 S
C568 C575 1.409 . S
C569 H561 0.930 . S
C569 C567 1.419 . S
C569 C570 1.362 . S
C570 H562 0.930 . S
C570 C569 1.362 . S
C570 C573 1.409 . S
C571 H563 0.928 . S
C571 C572 1.357 1_554 S
C571 C573 1.414 . S
C572 C571 1.357 1_556 S
C572 C574 1.419 . S
C573 C568 1.425 1_554 S
C573 C570 1.409 . S
C573 C571 1.414 . S
C574 H564 0.930 . S
C574 C572 1.419 . S
C574 C575 1.362 . S
C575 H565 0.930 . S
C575 C568 1.409 . S
C575 C574 1.362 . S
H576 C582 0.930 . S
H577 C585 0.930 . S
H578 C586 0.930 . S
H579 C587 0.930 . S
H580 C590 0.930 . S
H581 C591 0.930 . S
C582 H576 0.930 . S
C582 C583 1.355 . S
C582 C584 1.415 . S
C583 C582 1.355 . S
C583 C585 1.419 . S
C584 C582 1.415 . S
C584 C589 1.425 . S
C584 C591 1.409 . S
C585 H577 0.930 . S
C585 C583 1.419 . S
C585 C586 1.362 . S
C586 H578 0.930 . S
C586 C585 1.362 . S
C586 C589 1.409 . S
C587 H579 0.930 . S
C587 C588 1.355 . S
C587 C589 1.415 . S
C588 C587 1.355 . S
C588 C590 1.419 . S
C589 C584 1.425 . S
C589 C586 1.409 . S
C589 C587 1.415 . S
C590 H580 0.930 . S
C590 C588 1.419 . S
C590 C591 1.362 . S
C591 H581 0.930 . S
C591 C584 1.409 . S
C591 C590 1.362 . S
H592 C598 0.930 . S
H593 C601 0.930 . S
H594 C602 0.930 . S
H595 C603 0.930 . S
H596 C606 0.930 . S
H597 C607 0.930 . S
C598 H592 0.930 . S
C598 C599 1.355 . S
C598 C600 1.415 . S
C599 C598 1.355 . S
C599 C601 1.419 1_556 S
C600 C598 1.415 . S
C600 C605 1.425 1_556 S
C600 C607 1.409 . S
C601 H593 0.930 . S
C601 C599 1.419 1_554 S
C601 C602 1.362 . S
C602 H594 0.930 . S
C602 C601 1.362 . S
C602 C605 1.409 . S
C603 H595 0.930 . S
C603 C604 1.355 . S
C603 C605 1.415 . S
C604 C603 1.355 . S
C604 C606 1.419 1_554 S
C605 C600 1.425 1_554 S
C605 C602 1.409 . S
C605 C603 1.415 . S
C606 H596 0.930 . S
C606 C604 1.419 1_556 S
C606 C607 1.362 . S
C607 H597 0.930 . S
C607 C600 1.409 . S
C607 C606 1.362 . S
H608 C614 0.930 . S
H609 C617 0.930 . S
H610 C618 0.930 . S
H611 C619 0.930 . S
H612 C622 0.930 . S
H613 C623 0.930 . S
C614 H608 0.930 . S
C614 C615 1.355 . S
C614 C616 1.415 . S
C615 C614 1.355 . S
C615 C617 1.419 . S
C616 C614 1.415 . S
C616 C621 1.425 . S
C616 C623 1.409 . S
C617 H609 0.930 . S
C617 C615 1.419 . S
C617 C618 1.362 . S
C618 H610 0.930 . S
C618 C617 1.362 . S
C618 C621 1.409 . S
C619 H611 0.930 . S
C619 C620 1.355 . S
C619 C621 1.415 . S
C620 C619 1.355 . S
C620 C622 1.419 . S
C621 C616 1.425 . S
C621 C618 1.409 . S
C621 C619 1.415 . S
C622 H612 0.930 . S
C622 C620 1.419 . S
C622 C623 1.362 . S
C623 H613 0.930 . S
C623 C616 1.409 . S
C623 C622 1.362 . S
H624 C630 0.930 . S
H625 C633 0.930 . S
H626 C634 0.930 . S
H627 C635 0.930 . S
H628 C638 0.930 . S
H629 C639 0.930 . S
C630 H624 0.930 . S
C630 C631 1.355 1_556 S
C630 C632 1.415 . S
C631 C630 1.355 1_554 S
C631 C633 1.419 . S
C632 C630 1.415 . S
C632 C637 1.425 1_556 S
C632 C639 1.409 . S
C633 H625 0.930 . S
C633 C631 1.419 . S
C633 C634 1.362 . S
C634 H626 0.930 . S
C634 C633 1.362 . S
C634 C637 1.409 . S
C635 H627 0.930 . S
C635 C636 1.355 1_554 S
C635 C637 1.415 . S
C636 C635 1.355 1_556 S
C636 C638 1.419 . S
C637 C632 1.425 1_554 S
C637 C634 1.409 . S
C637 C635 1.415 . S
C638 H628 0.930 . S
C638 C636 1.419 . S
C638 C639 1.362 . S
C639 H629 0.930 . S
C639 C632 1.409 . S
C639 C638 1.362 . S
H640 C646 0.930 . S
H641 C649 0.930 . S
H642 C650 0.930 . S
H643 C651 0.930 . S
H644 C654 0.930 . S
H645 C655 0.930 . S
C646 H640 0.930 . S
C646 C647 1.355 . S
C646 C648 1.415 . S
C647 C646 1.355 . S
C647 C649 1.419 . S
C648 C646 1.415 . S
C648 C653 1.425 . S
C648 C655 1.409 . S
C649 H641 0.930 . S
C649 C647 1.419 . S
C649 C650 1.362 . S
C650 H642 0.930 . S
C650 C649 1.362 . S
C650 C653 1.409 . S
C651 H643 0.930 . S
C651 C652 1.355 . S
C651 C653 1.415 . S
C652 C651 1.355 . S
C652 C654 1.419 . S
C653 C648 1.425 . S
C653 C650 1.409 . S
C653 C651 1.415 . S
C654 H644 0.930 . S
C654 C652 1.419 . S
C654 C655 1.362 . S
C655 H645 0.930 . S
C655 C648 1.409 . S
C655 C654 1.362 . S
H656 C662 0.930 1_554 S
H657 C665 0.930 . S
H658 C666 0.930 . S
H659 C667 0.930 1_556 S
H660 C670 0.930 . S
H661 C671 0.930 . S
C662 H656 0.930 1_556 S
C662 C663 1.355 . S
C662 C664 1.415 1_556 S
C663 C662 1.355 . S
C663 C665 1.419 . S
C664 C662 1.415 1_554 S
C664 C669 1.425 1_554 S
C664 C671 1.409 . S
C665 H657 0.930 . S
C665 C663 1.419 . S
C665 C666 1.362 . S
C666 H658 0.930 . S
C666 C665 1.362 . S
C666 C669 1.409 . S
C667 H659 0.930 1_554 S
C667 C668 1.355 . S
C667 C669 1.415 1_554 S
C668 C667 1.355 . S
C668 C670 1.419 . S
C669 C664 1.425 1_556 S
C669 C666 1.409 . S
C669 C667 1.415 1_556 S
C670 H660 0.930 . S
C670 C668 1.419 . S
C670 C671 1.362 . S
C671 H661 0.930 . S
C671 C664 1.409 . S
C671 C670 1.362 . S
H672 C678 0.930 . S
H673 C681 0.930 . S
H674 C682 0.930 . S
H675 C683 0.930 . S
H676 C686 0.930 . S
H677 C687 0.930 . S
C678 H672 0.930 . S
C678 C679 1.355 . S
C678 C680 1.415 . S
C679 C678 1.355 . S
C679 C681 1.419 . S
C680 C678 1.415 . S
C680 C685 1.425 . S
C680 C687 1.409 . S
C681 H673 0.930 . S
C681 C679 1.419 . S
C681 C682 1.362 . S
C682 H674 0.930 . S
C682 C681 1.362 . S
C682 C685 1.409 . S
C683 H675 0.930 . S
C683 C684 1.355 . S
C683 C685 1.415 . S
C684 C683 1.355 . S
C684 C686 1.419 . S
C685 C680 1.425 . S
C685 C682 1.409 . S
C685 C683 1.415 . S
C686 H676 0.930 . S
C686 C684 1.419 . S
C686 C687 1.362 . S
C687 H677 0.930 . S
C687 C680 1.409 . S
C687 C686 1.362 . S
H688 C694 0.930 1_554 S
H689 C697 0.930 . S
H690 C698 0.930 . S
H691 C699 0.930 1_556 S
H692 C702 0.930 . S
H693 C703 0.930 . S
C694 H688 0.930 1_556 S
C694 C695 1.355 . S
C694 C696 1.415 1_556 S
C695 C694 1.355 . S
C695 C697 1.419 . S
C696 C694 1.415 1_554 S
C696 C701 1.425 1_554 S
C696 C703 1.409 . S
C697 H689 0.930 . S
C697 C695 1.419 . S
C697 C698 1.362 . S
C698 H690 0.930 . S
C698 C697 1.362 . S
C698 C701 1.409 . S
C699 H691 0.930 1_554 S
C699 C700 1.355 . S
C699 C701 1.415 1_554 S
C700 C699 1.355 . S
C700 C702 1.419 . S
C701 C696 1.425 1_556 S
C701 C698 1.409 . S
C701 C699 1.415 1_556 S
C702 H692 0.930 . S
C702 C700 1.419 . S
C702 C703 1.362 . S
C703 H693 0.930 . S
C703 C696 1.409 . S
C703 C702 1.362 . S
H704 C710 0.930 . S
H705 C713 0.930 . S
H706 C714 0.930 . S
H707 C715 0.930 . S
H708 C718 0.930 . S
H709 C719 0.930 . S
C710 H704 0.930 . S
C710 C711 1.355 . S
C710 C712 1.415 . S
C711 C710 1.355 . S
C711 C713 1.419 . S
C712 C710 1.415 . S
C712 C717 1.425 . S
C712 C719 1.409 . S
C713 H705 0.930 . S
C713 C711 1.419 . S
C713 C714 1.362 . S
C714 H706 0.930 . S
C714 C713 1.362 . S
C714 C717 1.409 . S
C715 H707 0.930 . S
C715 C716 1.355 . S
C715 C717 1.415 . S
C716 C715 1.355 . S
C716 C718 1.419 . S
C717 C712 1.425 . S
C717 C714 1.409 . S
C717 C715 1.415 . S
C718 H708 0.930 . S
C718 C716 1.419 . S
C718 C719 1.362 . S
C719 H709 0.930 . S
C719 C712 1.409 . S
C719 C718 1.362 . S
H720 C726 0.930 . S
H721 C729 0.930 . S
H722 C730 0.930 . S
H723 C731 0.930 . S
H724 C734 0.930 . S
H725 C735 0.930 . S
C726 H720 0.930 . S
C726 C727 1.355 . S
C726 C728 1.415 . S
C727 C726 1.355 . S
C727 C729 1.419 . S
C728 C726 1.415 . S
C728 C733 1.425 . S
C728 C735 1.409 . S
C729 H721 0.930 . S
C729 C727 1.419 . S
C729 C730 1.362 . S
C730 H722 0.930 . S
C730 C729 1.362 . S
C730 C733 1.409 . S
C731 H723 0.930 . S
C731 C732 1.355 . S
C731 C733 1.415 . S
C732 C731 1.355 . S
C732 C734 1.419 . S
C733 C728 1.425 . S
C733 C730 1.409 . S
C733 C731 1.415 . S
C734 H724 0.930 . S
C734 C732 1.419 . S
C734 C735 1.362 . S
C735 H725 0.930 . S
C735 C728 1.409 . S
C735 C734 1.362 . S
H736 C742 0.930 . S
H737 C745 0.930 . S
H738 C746 0.930 . S
H739 C747 0.930 . S
H740 C750 0.930 . S
H741 C751 0.930 . S
C742 H736 0.930 . S
C742 C743 1.355 . S
C742 C744 1.415 . S
C743 C742 1.355 . S
C743 C745 1.419 . S
C744 C742 1.415 . S
C744 C749 1.425 1_455 S
C744 C751 1.409 1_455 S
C745 H737 0.930 . S
C745 C743 1.419 . S
C745 C746 1.362 . S
C746 H738 0.930 . S
C746 C745 1.362 . S
C746 C749 1.409 1_455 S
C747 H739 0.930 . S
C747 C748 1.355 . S
C747 C749 1.415 . S
C748 C747 1.355 . S
C748 C750 1.419 . S
C749 C744 1.425 1_655 S
C749 C746 1.409 1_655 S
C749 C747 1.415 . S
C750 H740 0.930 . S
C750 C748 1.419 . S
C750 C751 1.362 . S
C751 H741 0.930 . S
C751 C744 1.409 1_655 S
C751 C750 1.362 . S
H752 C758 0.930 . S
H753 C761 0.930 . S
H754 C762 0.930 . S
H755 C763 0.930 . S
H756 C766 0.930 . S
H757 C767 0.930 . S
C758 H752 0.930 . S
C758 C759 1.355 . S
C758 C760 1.415 . S
C759 C758 1.355 . S
C759 C761 1.419 . S
C760 C758 1.415 . S
C760 C765 1.425 1_565 S
C760 C767 1.409 1_565 S
C761 H753 0.930 . S
C761 C759 1.419 . S
C761 C762 1.362 . S
C762 H754 0.930 . S
C762 C761 1.362 . S
C762 C765 1.409 1_565 S
C763 H755 0.930 . S
C763 C764 1.355 . S
C763 C765 1.415 . S
C764 C763 1.355 . S
C764 C766 1.419 . S
C765 C760 1.425 1_545 S
C765 C762 1.409 1_545 S
C765 C763 1.415 . S
C766 H756 0.930 . S
C766 C764 1.419 . S
C766 C767 1.362 . S
C767 H757 0.930 . S
C767 C760 1.409 1_545 S
C767 C766 1.362 . S
H768 C774 0.930 . S
H769 C777 0.930 . S
H770 C778 0.930 . S
H771 C779 0.930 . S
H772 C782 0.930 . S
H773 C783 0.930 . S
C774 H768 0.930 . S
C774 C775 1.355 . S
C774 C776 1.415 . S
C775 C774 1.355 . S
C775 C777 1.419 . S
C776 C774 1.415 . S
C776 C781 1.425 . S
C776 C783 1.409 . S
C777 H769 0.930 . S
C777 C775 1.419 . S
C777 C778 1.362 . S
C778 H770 0.930 . S
C778 C777 1.362 . S
C778 C781 1.409 . S
C779 H771 0.930 . S
C779 C780 1.355 . S
C779 C781 1.415 . S
C780 C779 1.355 . S
C780 C782 1.419 . S
C781 C776 1.425 . S
C781 C778 1.409 . S
C781 C779 1.415 . S
C782 H772 0.930 . S
C782 C780 1.419 . S
C782 C783 1.362 . S
C783 H773 0.930 . S
C783 C776 1.409 . S
C783 C782 1.362 . S
H784 C790 0.930 . S
H785 C793 0.930 . S
H786 C794 0.930 . S
H787 C795 0.930 . S
H788 C798 0.930 . S
H789 C799 0.930 . S
C790 H784 0.930 . S
C790 C791 1.355 . S
C790 C792 1.415 . S
C791 C790 1.355 . S
C791 C793 1.419 . S
C792 C790 1.415 . S
C792 C797 1.425 1_655 S
C792 C799 1.409 1_655 S
C793 H785 0.930 . S
C793 C791 1.419 . S
C793 C794 1.362 . S
C794 H786 0.930 . S
C794 C793 1.362 . S
C794 C797 1.409 1_655 S
C795 H787 0.930 . S
C795 C796 1.355 . S
C795 C797 1.415 . S
C796 C795 1.355 . S
C796 C798 1.419 . S
C797 C792 1.425 1_455 S
C797 C794 1.409 1_455 S
C797 C795 1.415 . S
C798 H788 0.930 . S
C798 C796 1.419 . S
C798 C799 1.362 . S
C799 H789 0.930 . S
C799 C792 1.409 1_455 S
C799 C798 1.362 . S
H800 C806 0.930 . S
H801 C809 0.930 . S
H802 C810 0.930 . S
H803 C811 0.930 . S
H804 C814 0.930 . S
H805 C815 0.930 . S
C806 H800 0.930 . S
C806 C807 1.355 . S
C806 C808 1.415 . S
C807 C806 1.355 . S
C807 C809 1.419 . S
C808 C806 1.415 . S
C808 C813 1.425 1_545 S
C808 C815 1.409 1_545 S
C809 H801 0.930 . S
C809 C807 1.419 . S
C809 C810 1.362 . S
C810 H802 0.930 . S
C810 C809 1.362 . S
C810 C813 1.409 1_545 S
C811 H803 0.930 . S
C811 C812 1.355 . S
C811 C813 1.415 . S
C812 C811 1.355 . S
C812 C814 1.419 . S
C813 C808 1.425 1_565 S
C813 C810 1.409 1_565 S
C813 C811 1.415 . S
C814 H804 0.930 . S
C814 C812 1.419 . S
C814 C815 1.362 . S
C815 H805 0.930 . S
C815 C808 1.409 1_565 S
C815 C814 1.362 . S
H816 C822 0.930 . S
H817 C825 0.930 . S
H818 C826 0.930 . S
H819 C827 0.930 . S
H820 C830 0.930 . S
H821 C831 0.930 . S
C822 H816 0.930 . S
C822 C823 1.355 . S
C822 C824 1.415 . S
C823 C822 1.355 . S
C823 C825 1.419 . S
C824 C822 1.415 . S
C824 C829 1.425 . S
C824 C831 1.409 . S
C825 H817 0.930 . S
C825 C823 1.419 . S
C825 C826 1.362 . S
C826 H818 0.930 . S
C826 C825 1.362 . S
C826 C829 1.409 . S
C827 H819 0.930 . S
C827 C828 1.355 . S
C827 C829 1.415 . S
C828 C827 1.355 . S
C828 C830 1.419 . S
C829 C824 1.425 . S
C829 C826 1.409 . S
C829 C827 1.415 . S
C830 H820 0.930 . S
C830 C828 1.419 . S
C830 C831 1.362 . S
C831 H821 0.930 . S
C831 C824 1.409 . S
C831 C830 1.362 . S
H832 C838 0.930 . S
H833 C841 0.930 . S
H834 C842 0.930 . S
H835 C843 0.930 . S
H836 C846 0.930 . S
H837 C847 0.930 . S
C838 H832 0.930 . S
C838 C839 1.355 . S
C838 C840 1.415 . S
C839 C838 1.355 . S
C839 C841 1.419 . S
C840 C838 1.415 . S
C840 C845 1.425 1_655 S
C840 C847 1.409 1_655 S
C841 H833 0.930 . S
C841 C839 1.419 . S
C841 C842 1.362 . S
C842 H834 0.930 . S
C842 C841 1.362 . S
C842 C845 1.409 1_655 S
C843 H835 0.930 . S
C843 C844 1.355 . S
C843 C845 1.415 . S
C844 C843 1.355 . S
C844 C846 1.419 . S
C845 C840 1.425 1_455 S
C845 C842 1.409 1_455 S
C845 C843 1.415 . S
C846 H836 0.930 . S
C846 C844 1.419 . S
C846 C847 1.362 . S
C847 H837 0.930 . S
C847 C840 1.409 1_455 S
C847 C846 1.362 . S
H848 C854 0.930 . S
H849 C857 0.930 . S
H850 C858 0.930 . S
H851 C859 0.930 . S
H852 C862 0.930 . S
H853 C863 0.930 . S
C854 H848 0.930 . S
C854 C855 1.355 . S
C854 C856 1.415 . S
C855 C854 1.355 . S
C855 C857 1.419 . S
C856 C854 1.415 . S
C856 C861 1.425 1_545 S
C856 C863 1.409 1_545 S
C857 H849 0.930 . S
C857 C855 1.419 . S
C857 C858 1.362 . S
C858 H850 0.930 . S
C858 C857 1.362 . S
C858 C861 1.409 1_545 S
C859 H851 0.930 . S
C859 C860 1.355 . S
C859 C861 1.415 . S
C860 C859 1.355 . S
C860 C862 1.419 . S
C861 C856 1.425 1_565 S
C861 C858 1.409 1_565 S
C861 C859 1.415 . S
C862 H852 0.930 . S
C862 C860 1.419 . S
C862 C863 1.362 . S
C863 H853 0.930 . S
C863 C856 1.409 1_565 S
C863 C862 1.362 . S
H864 C870 0.930 . S
H865 C873 0.930 . S
H866 C874 0.930 . S
H867 C875 0.930 . S
H868 C878 0.930 . S
H869 C879 0.930 . S
C870 H864 0.930 . S
C870 C871 1.355 . S
C870 C872 1.415 . S
C871 C870 1.355 . S
C871 C873 1.419 . S
C872 C870 1.415 . S
C872 C877 1.425 . S
C872 C879 1.409 . S
C873 H865 0.930 . S
C873 C871 1.419 . S
C873 C874 1.362 . S
C874 H866 0.930 . S
C874 C873 1.362 . S
C874 C877 1.409 . S
C875 H867 0.930 . S
C875 C876 1.355 . S
C875 C877 1.415 . S
C876 C875 1.355 . S
C876 C878 1.419 . S
C877 C872 1.425 . S
C877 C874 1.409 . S
C877 C875 1.415 . S
C878 H868 0.930 . S
C878 C876 1.419 . S
C878 C879 1.362 . S
C879 H869 0.930 . S
C879 C872 1.409 . S
C879 C878 1.362 . S
H880 C886 0.930 . S
H881 C889 0.930 . S
H882 C890 0.930 . S
H883 C891 0.930 . S
H884 C894 0.930 . S
H885 C895 0.930 . S
C886 H880 0.930 . S
C886 C887 1.355 . S
C886 C888 1.415 . S
C887 C886 1.355 . S
C887 C889 1.419 . S
C888 C886 1.415 . S
C888 C893 1.425 1_455 S
C888 C895 1.409 1_455 S
C889 H881 0.930 . S
C889 C887 1.419 . S
C889 C890 1.362 . S
C890 H882 0.930 . S
C890 C889 1.362 . S
C890 C893 1.409 1_455 S
C891 H883 0.930 . S
C891 C892 1.355 . S
C891 C893 1.415 . S
C892 C891 1.355 . S
C892 C894 1.419 . S
C893 C888 1.425 1_655 S
C893 C890 1.409 1_655 S
C893 C891 1.415 . S
C894 H884 0.930 . S
C894 C892 1.419 . S
C894 C895 1.362 . S
C895 H885 0.930 . S
C895 C888 1.409 1_655 S
C895 C894 1.362 . S
H896 C902 0.930 . S
H897 C905 0.930 . S
H898 C906 0.930 . S
H899 C907 0.930 . S
H900 C910 0.930 . S
H901 C911 0.930 . S
C902 H896 0.930 . S
C902 C903 1.355 . S
C902 C904 1.415 . S
C903 C902 1.355 . S
C903 C905 1.419 . S
C904 C902 1.415 . S
C904 C909 1.425 1_565 S
C904 C911 1.409 1_565 S
C905 H897 0.930 . S
C905 C903 1.419 . S
C905 C906 1.362 . S
C906 H898 0.930 . S
C906 C905 1.362 . S
C906 C909 1.409 1_565 S
C907 H899 0.930 . S
C907 C908 1.355 . S
C907 C909 1.415 . S
C908 C907 1.355 . S
C908 C910 1.419 . S
C909 C904 1.425 1_545 S
C909 C906 1.409 1_545 S
C909 C907 1.415 . S
C910 H900 0.930 . S
C910 C908 1.419 . S
C910 C911 1.362 . S
C911 H901 0.930 . S
C911 C904 1.409 1_545 S
C911 C910 1.362 . S
H912 C918 0.930 . S
H913 C921 0.930 . S
H914 C922 0.930 . S
H915 C923 0.930 . S
H916 C926 0.930 . S
H917 C927 0.930 . S
C918 H912 0.930 . S
C918 C919 1.355 . S
C918 C920 1.415 . S
C919 C918 1.355 . S
C919 C921 1.419 1_556 S
C920 C918 1.415 . S
C920 C925 1.425 1_556 S
C920 C927 1.409 . S
C921 H913 0.930 . S
C921 C919 1.419 1_554 S
C921 C922 1.362 . S
C922 H914 0.930 . S
C922 C921 1.362 . S
C922 C925 1.409 . S
C923 H915 0.930 . S
C923 C924 1.355 . S
C923 C925 1.415 . S
C924 C923 1.355 . S
C924 C926 1.419 1_554 S
C925 C920 1.425 1_554 S
C925 C922 1.409 . S
C925 C923 1.415 . S
C926 H916 0.930 . S
C926 C924 1.419 1_556 S
C926 C927 1.362 . S
C927 H917 0.930 . S
C927 C920 1.409 . S
C927 C926 1.362 . S
H928 C934 0.930 . S
H929 C937 0.930 . S
H930 C938 0.930 . S
H931 C939 0.930 . S
H932 C942 0.930 . S
H933 C943 0.930 . S
C934 H928 0.930 . S
C934 C935 1.355 . S
C934 C936 1.415 . S
C935 C934 1.355 . S
C935 C937 1.419 . S
C936 C934 1.415 . S
C936 C941 1.425 . S
C936 C943 1.409 . S
C937 H929 0.930 . S
C937 C935 1.419 . S
C937 C938 1.362 . S
C938 H930 0.930 . S
C938 C937 1.362 . S
C938 C941 1.409 . S
C939 H931 0.930 . S
C939 C940 1.355 . S
C939 C941 1.415 . S
C940 C939 1.355 . S
C940 C942 1.419 . S
C941 C936 1.425 . S
C941 C938 1.409 . S
C941 C939 1.415 . S
C942 H932 0.930 . S
C942 C940 1.419 . S
C942 C943 1.362 . S
C943 H933 0.930 . S
C943 C936 1.409 . S
C943 C942 1.362 . S
H944 C950 0.930 1_554 S
H945 C953 0.930 . S
H946 C954 0.930 . S
H947 C955 0.930 1_556 S
H948 C958 0.930 . S
H949 C959 0.930 . S
C950 H944 0.930 1_556 S
C950 C951 1.355 . S
C950 C952 1.415 1_556 S
C951 C950 1.355 . S
C951 C953 1.419 . S
C952 C950 1.415 1_554 S
C952 C957 1.425 1_554 S
C952 C959 1.409 . S
C953 H945 0.930 . S
C953 C951 1.419 . S
C953 C954 1.362 . S
C954 H946 0.930 . S
C954 C953 1.362 . S
C954 C957 1.409 . S
C955 H947 0.930 1_554 S
C955 C956 1.355 . S
C955 C957 1.415 1_554 S
C956 C955 1.355 . S
C956 C958 1.419 . S
C957 C952 1.425 1_556 S
C957 C954 1.409 . S
C957 C955 1.415 1_556 S
C958 H948 0.930 . S
C958 C956 1.419 . S
C958 C959 1.362 . S
C959 H949 0.930 . S
C959 C952 1.409 . S
C959 C958 1.362 . S
H960 C966 0.930 . S
H961 C969 0.930 . S
H962 C970 0.930 . S
H963 C971 0.930 . S
H964 C974 0.930 . S
H965 C975 0.930 . S
C966 H960 0.930 . S
C966 C967 1.355 . S
C966 C968 1.415 . S
C967 C966 1.355 . S
C967 C969 1.419 . S
C968 C966 1.415 . S
C968 C973 1.425 . S
C968 C975 1.409 . S
C969 H961 0.930 . S
C969 C967 1.419 . S
C969 C970 1.362 . S
C970 H962 0.930 . S
C970 C969 1.362 . S
C970 C973 1.409 . S
C971 H963 0.930 . S
C971 C972 1.355 . S
C971 C973 1.415 . S
C972 C971 1.355 . S
C972 C974 1.419 . S
C973 C968 1.425 . S
C973 C970 1.409 . S
C973 C971 1.415 . S
C974 H964 0.930 . S
C974 C972 1.419 . S
C974 C975 1.362 . S
C975 H965 0.930 . S
C975 C968 1.409 . S
C975 C974 1.362 . S
H976 C982 0.930 . S
H977 C985 0.930 . S
H978 C986 0.930 . S
H979 C987 0.930 . S
H980 C990 0.930 . S
H981 C991 0.930 . S
C982 H976 0.930 . S
C982 C983 1.355 . S
C982 C984 1.412 1_556 S
C983 C982 1.355 . S
C983 C985 1.419 . S
C984 C982 1.412 1_554 S
C984 C989 1.425 1_554 S
C984 C991 1.412 . S
C985 H977 0.930 . S
C985 C983 1.419 . S
C985 C986 1.362 . S
C986 H978 0.930 . S
C986 C985 1.362 . S
C986 C989 1.412 . S
C987 H979 0.930 . S
C987 C988 1.355 . S
C987 C989 1.412 1_554 S
C988 C987 1.355 . S
C988 C990 1.419 . S
C989 C984 1.425 1_556 S
C989 C986 1.412 . S
C989 C987 1.412 1_556 S
C990 H980 0.930 . S
C990 C988 1.419 . S
C990 C991 1.362 . S
C991 H981 0.930 . S
C991 C984 1.412 . S
C991 C990 1.362 . S
H992 C998 0.930 . S
H993 C1001 0.930 . S
H994 C1002 0.930 . S
H995 C1003 0.930 . S
H996 C1006 0.930 . S
H997 C1007 0.930 . S
C998 H992 0.930 . S
C998 C999 1.355 . S
C998 C1000 1.415 . S
C999 C998 1.355 . S
C999 C1001 1.419 . S
C1000 C998 1.415 . S
C1000 C1005 1.425 . S
C1000 C1007 1.409 . S
C1001 H993 0.930 . S
C1001 C999 1.419 . S
C1001 C1002 1.362 . S
C1002 H994 0.930 . S
C1002 C1001 1.362 . S
C1002 C1005 1.409 . S
C1003 H995 0.930 . S
C1003 C1004 1.355 . S
C1003 C1005 1.415 . S
C1004 C1003 1.355 . S
C1004 C1006 1.419 . S
C1005 C1000 1.425 . S
C1005 C1002 1.409 . S
C1005 C1003 1.415 . S
C1006 H996 0.930 . S
C1006 C1004 1.419 . S
C1006 C1007 1.362 . S
C1007 H997 0.930 . S
C1007 C1000 1.409 . S
C1007 C1006 1.362 . S
H1008 C1014 0.930 . S
H1009 C1017 0.930 . S
H1010 C1018 0.930 . S
H1011 C1019 0.930 . S
H1012 C1022 0.930 . S
H1013 C1023 0.930 . S
C1014 H1008 0.930 . S
C1014 C1015 1.355 . S
C1014 C1016 1.415 . S
C1015 C1014 1.355 . S
C1015 C1017 1.419 . S
C1016 C1014 1.415 . S
C1016 C1021 1.425 1_554 S
C1016 C1023 1.409 . S
C1017 H1009 0.930 . S
C1017 C1015 1.419 . S
C1017 C1018 1.362 1_554 S
C1018 H1010 0.930 . S
C1018 C1017 1.362 1_556 S
C1018 C1021 1.409 . S
C1019 H1011 0.930 . S
C1019 C1020 1.355 . S
C1019 C1021 1.415 . S
C1020 C1019 1.355 . S
C1020 C1022 1.419 . S
C1021 C1016 1.425 1_556 S
C1021 C1018 1.409 . S
C1021 C1019 1.415 . S
C1022 H1012 0.930 . S
C1022 C1020 1.419 . S
C1022 C1023 1.362 1_556 S
C1023 H1013 0.930 . S
C1023 C1016 1.409 . S
C1023 C1022 1.362 1_554 S
H1024 C1030 0.930 . S
H1025 C1033 0.930 . S
H1026 C1034 0.930 . S
H1027 C1035 0.930 . S
H1028 C1038 0.930 . S
H1029 C1039 0.930 . S
C1030 H1024 0.930 . S
C1030 C1031 1.355 . S
C1030 C1032 1.415 . S
C1031 C1030 1.355 . S
C1031 C1033 1.419 . S
C1032 C1030 1.415 . S
C1032 C1037 1.425 . S
C1032 C1039 1.409 . S
C1033 H1025 0.930 . S
C1033 C1031 1.419 . S
C1033 C1034 1.362 . S
C1034 H1026 0.930 . S
C1034 C1033 1.362 . S
C1034 C1037 1.409 . S
C1035 H1027 0.930 . S
C1035 C1036 1.355 . S
C1035 C1037 1.415 . S
C1036 C1035 1.355 . S
C1036 C1038 1.419 . S
C1037 C1032 1.425 . S
C1037 C1034 1.409 . S
C1037 C1035 1.415 . S
C1038 H1028 0.930 . S
C1038 C1036 1.419 . S
C1038 C1039 1.362 . S
C1039 H1029 0.930 . S
C1039 C1032 1.409 . S
C1039 C1038 1.362 . S
H1040 C1046 0.930 . S
H1041 C1049 0.930 . S
H1042 C1050 0.930 . S
H1043 C1051 0.930 . S
H1044 C1054 0.930 . S
H1045 C1055 0.930 . S
C1046 H1040 0.930 . S
C1046 C1047 1.355 . S
C1046 C1048 1.415 . S
C1047 C1046 1.355 . S
C1047 C1049 1.419 1_554 S
C1048 C1046 1.415 . S
C1048 C1053 1.425 1_554 S
C1048 C1055 1.409 . S
C1049 H1041 0.930 . S
C1049 C1047 1.419 1_556 S
C1049 C1050 1.362 . S
C1050 H1042 0.930 . S
C1050 C1049 1.362 . S
C1050 C1053 1.409 . S
C1051 H1043 0.930 . S
C1051 C1052 1.355 . S
C1051 C1053 1.415 . S
C1052 C1051 1.355 . S
C1052 C1054 1.419 1_556 S
C1053 C1048 1.425 1_556 S
C1053 C1050 1.409 . S
C1053 C1051 1.415 . S
C1054 H1044 0.930 . S
C1054 C1052 1.419 1_554 S
C1054 C1055 1.362 . S
C1055 H1045 0.930 . S
C1055 C1048 1.409 . S
C1055 C1054 1.362 . S
H1056 C1062 0.930 . S
H1057 C1065 0.930 . S
H1058 C1066 0.930 . S
H1059 C1067 0.930 . S
H1060 C1070 0.930 . S
H1061 C1071 0.930 . S
C1062 H1056 0.930 . S
C1062 C1063 1.355 . S
C1062 C1064 1.415 . S
C1063 C1062 1.355 . S
C1063 C1065 1.419 . S
C1064 C1062 1.415 . S
C1064 C1069 1.425 . S
C1064 C1071 1.409 . S
C1065 H1057 0.930 . S
C1065 C1063 1.419 . S
C1065 C1066 1.362 . S
C1066 H1058 0.930 . S
C1066 C1065 1.362 . S
C1066 C1069 1.409 . S
C1067 H1059 0.930 . S
C1067 C1068 1.355 . S
C1067 C1069 1.415 . S
C1068 C1067 1.355 . S
C1068 C1070 1.419 . S
C1069 C1064 1.425 . S
C1069 C1066 1.409 . S
C1069 C1067 1.415 . S
C1070 H1060 0.930 . S
C1070 C1068 1.419 . S
C1070 C1071 1.362 . S
C1071 H1061 0.930 . S
C1071 C1064 1.409 . S
C1071 C1070 1.362 . S
H1072 C1078 0.930 . S
H1073 C1081 0.930 . S
H1074 C1082 0.930 . S
H1075 C1083 0.930 . S
H1076 C1086 0.930 . S
H1077 C1087 0.930 . S
C1078 H1072 0.930 . S
C1078 C1079 1.355 1_554 S
C1078 C1080 1.415 . S
C1079 C1078 1.355 1_556 S
C1079 C1081 1.419 . S
C1080 C1078 1.415 . S
C1080 C1085 1.425 1_554 S
C1080 C1087 1.409 . S
C1081 H1073 0.930 . S
C1081 C1079 1.419 . S
C1081 C1082 1.362 . S
C1082 H1074 0.930 . S
C1082 C1081 1.362 . S
C1082 C1085 1.409 . S
C1083 H1075 0.930 . S
C1083 C1084 1.355 1_556 S
C1083 C1085 1.415 . S
C1084 C1083 1.355 1_554 S
C1084 C1086 1.419 . S
C1085 C1080 1.425 1_556 S
C1085 C1082 1.409 . S
C1085 C1083 1.415 . S
C1086 H1076 0.930 . S
C1086 C1084 1.419 . S
C1086 C1087 1.362 . S
C1087 H1077 0.930 . S
C1087 C1080 1.409 . S
C1087 C1086 1.362 . S
H1088 C1094 0.930 . S
H1089 C1097 0.930 . S
H1090 C1098 0.930 . S
H1091 C1099 0.930 . S
H1092 C1102 0.930 . S
H1093 C1103 0.930 . S
C1094 H1088 0.930 . S
C1094 C1095 1.355 . S
C1094 C1096 1.415 . S
C1095 C1094 1.355 . S
C1095 C1097 1.419 . S
C1096 C1094 1.415 . S
C1096 C1101 1.425 . S
C1096 C1103 1.409 . S
C1097 H1089 0.930 . S
C1097 C1095 1.419 . S
C1097 C1098 1.362 . S
C1098 H1090 0.930 . S
C1098 C1097 1.362 . S
C1098 C1101 1.409 . S
C1099 H1091 0.930 . S
C1099 C1100 1.355 . S
C1099 C1101 1.415 . S
C1100 C1099 1.355 . S
C1100 C1102 1.419 . S
C1101 C1096 1.425 . S
C1101 C1098 1.409 . S
C1101 C1099 1.415 . S
C1102 H1092 0.930 . S
C1102 C1100 1.419 . S
C1102 C1103 1.362 . S
C1103 H1093 0.930 . S
C1103 C1096 1.409 . S
C1103 C1102 1.362 . S
C343 C7 1.498 . S
C348 C217 1.486 . S
C359 C21 1.510 . S
C364 C231 1.474 . S
C375 C245 1.509 . S
C380 C35 1.475 . S
C391 C175 1.501 . S
C396 C49 1.483 . S
C407 C189 1.490 . S
C412 C63 1.494 . S
C423 C203 1.507 . S
C428 C77 1.478 . S
C439 C301 1.490 . S
C444 C91 1.494 . S
C455 C105 1.493 . S
C460 C315 1.492 . S
C471 C329 1.511 . S
C476 C119 1.474 . S
C487 C133 1.479 . S
C492 C259 1.505 . S
C503 C273 1.474 . S
C508 C147 1.511 . S
C519 C161 1.506 . S
C524 C287 1.478 . S
C535 C151 1.247 . S
C540 C11 1.271 . S
C551 C165 1.260 . S
C556 C25 1.237 . S
C567 C39 1.241 . S
C572 C95 1.232 . S
C583 C53 1.232 . S
C588 C109 1.242 . S
C599 C123 1.278 . S
C604 C67 1.275 . S
C615 C81 1.256 . S
C620 C137 1.235 . S
C631 C319 1.248 . S
C636 C179 1.232 . S
C647 C193 1.254 . S
C652 C333 1.276 . S
C663 C207 1.232 . S
C668 C263 1.243 . S
C679 C277 1.252 . S
C684 C221 1.233 . S
C695 C235 1.232 . S
C700 C291 1.245 . S
C711 C249 1.278 . S
C716 C305 1.258 . S
C727 C8 1.161 . S
C732 C260 1.088 . S
C743 C274 1.183 . S
C748 C22 1.065 . S
C759 C36 1.074 . S
C764 C288 1.174 . S
C775 C50 1.177 . S
C780 C302 1.071 . S
C791 C316 1.166 . S
C796 C64 1.083 . S
C807 C78 1.135 . S
C812 C330 1.115 . S
C823 C92 1.068 . S
C828 C176 1.179 . S
C839 C106 1.178 . S
C844 C190 1.070 . S
C855 C204 1.149 . S
C860 C120 1.101 . S
C871 C218 1.078 . S
C876 C134 1.170 . S
C887 C148 1.183 . S
C892 C232 1.065 . S
C903 C246 1.086 . S
C908 C162 1.163 . S
C919 C97 1.503 . S
C924 C13 1.460 . S
C935 C27 1.475 . S
C940 C111 1.502 . S
C951 C125 1.416 . S
C956 C41 1.476 . S
C967 C139 1.459 . S
C972 C55 1.503 . S
C983 C153 1.463 . S
C988 C69 1.409 . S
C999 C83 1.407 . S
C1004 C167 1.436 . S
C1015 C265 1.502 . S
C1020 C181 1.458 . S
C1031 C195 1.476 . S
C1036 C279 1.502 . S
C1047 C293 1.476 . S
C1052 C209 1.502 . S
C1063 C307 1.416 . S
C1068 C223 1.477 . S
C1079 C237 1.431 . S
C1084 C321 1.409 . S
C1095 C251 1.486 . S
C1100 C335 1.497 . S
