# Generated by pormake.
# Topology umg, (4)-cn, num edge types: 1
# Building blocks:
#     Node 0, Type 0, BuildingBlock: QUQFOY_clean_sbu_1, # of connection points: 4
#     Node 1, Type 0, BuildingBlock: QUQFOY_clean_sbu_1, # of connection points: 4
#     Node 2, Type 0, BuildingBlock: QUQFOY_clean_sbu_1, # of connection points: 4
#     Node 3, Type 0, BuildingBlock: QUQFOY_clean_sbu_1, # of connection points: 4
#     Node 4, Type 0, BuildingBlock: QUQFOY_clean_sbu_1, # of connection points: 4
#     Node 5, Type 0, BuildingBlock: QUQFOY_clean_sbu_1, # of connection points: 4
#     Node 6, Type 0, BuildingBlock: QUQFOY_clean_sbu_1, # of connection points: 4
#     Node 7, Type 0, BuildingBlock: QUQFOY_clean_sbu_1, # of connection points: 4
#     Node 8, Type 0, BuildingBlock: QUQFOY_clean_sbu_1, # of connection points: 4
#     Node 9, Type 0, BuildingBlock: QUQFOY_clean_sbu_1, # of connection points: 4
#     Node 10, Type 0, BuildingBlock: QUQFOY_clean_sbu_1, # of connection points: 4
#     Node 11, Type 0, BuildingBlock: QUQFOY_clean_sbu_1, # of connection points: 4
#     Edge 12, Type (0, 0), BuildingBlock: AJUNOK_clean_linker_0, # of connection points: 2
#     Edge 13, Type (0, 0), BuildingBlock: AJUNOK_clean_linker_0, # of connection points: 2
#     Edge 14, Type (0, 0), BuildingBlock: AJUNOK_clean_linker_0, # of connection points: 2
#     Edge 15, Type (0, 0), BuildingBlock: AJUNOK_clean_linker_0, # of connection points: 2
#     Edge 16, Type (0, 0), BuildingBlock: AJUNOK_clean_linker_0, # of connection points: 2
#     Edge 17, Type (0, 0), BuildingBlock: AJUNOK_clean_linker_0, # of connection points: 2
#     Edge 18, Type (0, 0), BuildingBlock: AJUNOK_clean_linker_0, # of connection points: 2
#     Edge 19, Type (0, 0), BuildingBlock: AJUNOK_clean_linker_0, # of connection points: 2
#     Edge 20, Type (0, 0), BuildingBlock: AJUNOK_clean_linker_0, # of connection points: 2
#     Edge 21, Type (0, 0), BuildingBlock: AJUNOK_clean_linker_0, # of connection points: 2
#     Edge 22, Type (0, 0), BuildingBlock: AJUNOK_clean_linker_0, # of connection points: 2
#     Edge 23, Type (0, 0), BuildingBlock: AJUNOK_clean_linker_0, # of connection points: 2
#     Edge 24, Type (0, 0), BuildingBlock: AJUNOK_clean_linker_0, # of connection points: 2
#     Edge 25, Type (0, 0), BuildingBlock: AJUNOK_clean_linker_0, # of connection points: 2
#     Edge 26, Type (0, 0), BuildingBlock: AJUNOK_clean_linker_0, # of connection points: 2
#     Edge 27, Type (0, 0), BuildingBlock: AJUNOK_clean_linker_0, # of connection points: 2
#     Edge 28, Type (0, 0), BuildingBlock: AJUNOK_clean_linker_0, # of connection points: 2
#     Edge 29, Type (0, 0), BuildingBlock: AJUNOK_clean_linker_0, # of connection points: 2
#     Edge 30, Type (0, 0), BuildingBlock: AJUNOK_clean_linker_0, # of connection points: 2
#     Edge 31, Type (0, 0), BuildingBlock: AJUNOK_clean_linker_0, # of connection points: 2
#     Edge 32, Type (0, 0), BuildingBlock: AJUNOK_clean_linker_0, # of connection points: 2
#     Edge 33, Type (0, 0), BuildingBlock: AJUNOK_clean_linker_0, # of connection points: 2
#     Edge 34, Type (0, 0), BuildingBlock: AJUNOK_clean_linker_0, # of connection points: 2
#     Edge 35, Type (0, 0), BuildingBlock: AJUNOK_clean_linker_0, # of connection points: 2
# Relax obj value: 0.085
# Max RMSD: 0.309
# Mean RMSD: 0.203
data_MOF--net-umg--node1-QUQFOY_clean_sbu_1--edge1-AJUNOK_clean_linker_0
_symmetry_space_group_name_H-M    P1
_symmetry_Int_Tables_number       1
_symmetry_cell_setting            triclinic
loop_
_symmetry_equiv_pos_as_xyz
'x, y, z'
_cell_length_a     21.280616
_cell_length_b     21.303183
_cell_length_c     63.652002
_cell_angle_alpha  89.854351
_cell_angle_beta   90.091495
_cell_angle_gamma 120.01901
loop_
_atom_site_label
_atom_site_type_symbol
_atom_site_fract_x
_atom_site_fract_y
_atom_site_fract_z
_atom_type_partial_charge
O0 O 0.39305 0.6325 0.05905 0.0
Cd1 Cd 0.36455 0.57079 0.08578 0.0
Cd2 Cd 0.37051 0.69381 0.10033 0.0
O3 O 0.42604 0.74047 0.07241 0.0
O4 O 0.39193 0.49342 0.08047 0.0
O5 O 0.45284 0.58566 0.10183 0.0
C6 C 0.44802 0.53034 0.09228 0.0
C7 C 0.41192 0.70294 0.13482 0.0
C8 C 0.42134 0.70068 0.05688 0.0
C9 C 0.22323 0.56491 0.09742 0.0
O10 O 0.26011 0.63376 0.09769 0.0
O11 O 0.2553 0.5279 0.09534 0.0
O12 O 0.39985 0.7523 0.12718 0.0
O13 O 0.40549 0.65275 0.12231 0.0
O14 O 0.68261 0.29959 0.37847 0.0
Cd15 Cd 0.71586 0.29307 0.40784 0.0
Cd16 Cd 0.6099 0.31653 0.41932 0.0
O17 O 0.63116 0.36239 0.3889 0.0
O18 O 0.82308 0.32268 0.40788 0.0
O19 O 0.78261 0.39516 0.41774 0.0
C20 C 0.8369 0.38623 0.41398 0.0
C21 C 0.64728 0.36879 0.4528 0.0
C22 C 0.65446 0.33844 0.37424 0.0
C23 C 0.57516 0.16693 0.42408 0.0
O24 O 0.54748 0.20646 0.4201 0.0
O25 O 0.64431 0.19459 0.42347 0.0
O26 O 0.59183 0.36703 0.44378 0.0
O27 O 0.68166 0.34385 0.4424 0.0
O28 O 0.44833 0.76588 0.72366 0.0
Cd29 Cd 0.50753 0.81154 0.75028 0.0
Cd30 Cd 0.3897 0.70528 0.76691 0.0
O31 O 0.34045 0.70934 0.73878 0.0
O32 O 0.58354 0.91584 0.7439 0.0
O33 O 0.48647 0.88572 0.76314 0.0
C34 C 0.54419 0.93568 0.75424 0.0
C35 C 0.38235 0.74003 0.80125 0.0
C36 C 0.37955 0.73061 0.72226 0.0
C37 C 0.51508 0.68216 0.76506 0.0
O38 O 0.44616 0.65075 0.7648 0.0
O39 O 0.5524 0.75111 0.76295 0.0
O40 O 0.33187 0.67879 0.79385 0.0
O41 O 0.43299 0.78255 0.78859 0.0
O42 O 0.7521 0.38968 0.04931 0.0
Cd43 Cd 0.76925 0.43007 0.07918 0.0
Cd44 Cd 0.76151 0.29623 0.08613 0.0
O45 O 0.71826 0.27459 0.05566 0.0
O46 O 0.74583 0.512 0.07937 0.0
O47 O 0.67393 0.40456 0.09318 0.0
C48 C 0.68485 0.46769 0.08826 0.0
C49 C 0.70482 0.27346 0.11904 0.0
C50 C 0.72692 0.32488 0.043 0.0
C51 C 0.9065 0.42515 0.09165 0.0
O52 O 0.87191 0.35766 0.08755 0.0
O53 O 0.87341 0.46164 0.09182 0.0
O54 O 0.71651 0.22504 0.11057 0.0
O55 O 0.72149 0.33046 0.10817 0.0
O56 O 0.30728 0.69808 0.38907 0.0
Cd57 Cd 0.25912 0.7153 0.41446 0.0
Cd58 Cd 0.3608 0.70306 0.43388 0.0
O59 O 0.36125 0.64849 0.40661 0.0
O60 O 0.15587 0.6862 0.40648 0.0
O61 O 0.18343 0.62215 0.42794 0.0
C62 C 0.13466 0.62837 0.41769 0.0
C63 C 0.32445 0.66164 0.46826 0.0
C64 C 0.34223 0.66418 0.38928 0.0
C65 C 0.38659 0.85217 0.42992 0.0
O66 O 0.41699 0.81394 0.43131 0.0
O67 O 0.3183 0.8213 0.42645 0.0
O68 O 0.38613 0.67269 0.46115 0.0
O69 O 0.28215 0.6693 0.45533 0.0
O70 O 0.67172 0.38454 0.7144 0.0
Cd71 Cd 0.63285 0.35558 0.74411 0.0
Cd72 Cd 0.76615 0.46953 0.75379 0.0
O73 O 0.78795 0.44747 0.72325 0.0
O74 O 0.55384 0.24864 0.74445 0.0
O75 O 0.66557 0.28806 0.75534 0.0
C76 C 0.60243 0.23416 0.75133 0.0
C77 C 0.78641 0.43297 0.78675 0.0
C78 C 0.73838 0.41682 0.70935 0.0
C79 C 0.64584 0.49757 0.75935 0.0
O80 O 0.71316 0.52686 0.75521 0.0
O81 O 0.60552 0.42828 0.75884 0.0
O82 O 0.83762 0.49065 0.77786 0.0
O83 O 0.72676 0.39691 0.77659 0.0
O84 O 0.40901 0.74698 0.62823 0.0
Cd85 Cd 0.44783 0.76005 0.5984 0.0
Cd86 Cd 0.31237 0.74236 0.59011 0.0
O87 O 0.29213 0.69983 0.62081 0.0
O88 O 0.53037 0.73718 0.59804 0.0
O89 O 0.42027 0.66172 0.58653 0.0
C90 C 0.48449 0.67404 0.59065 0.0
C91 C 0.29223 0.68517 0.55733 0.0
C92 C 0.34308 0.7158 0.63406 0.0
C93 C 0.43447 0.89051 0.58421 0.0
O94 O 0.36717 0.85266 0.5884 0.0
O95 O 0.47457 0.86124 0.58444 0.0
O96 O 0.24136 0.69294 0.56588 0.0
O97 O 0.35095 0.70704 0.56785 0.0
O98 O 0.78169 0.43855 0.95492 0.0
Cd99 Cd 0.83058 0.50126 0.92906 0.0
Cd100 Cd 0.7282 0.38619 0.91051 0.0
O101 O 0.72916 0.33347 0.93831 0.0
O102 O 0.93568 0.57323 0.93614 0.0
O103 O 0.90238 0.47779 0.91593 0.0
C104 C 0.95347 0.53273 0.92555 0.0
C105 C 0.76158 0.37867 0.87597 0.0
C106 C 0.74741 0.3697 0.95536 0.0
C107 C 0.70329 0.51025 0.91313 0.0
O108 O 0.67254 0.44148 0.91267 0.0
O109 O 0.77188 0.54777 0.91616 0.0
O110 O 0.70064 0.32842 0.88362 0.0
O111 O 0.80495 0.42936 0.88848 0.0
O112 O 0.31092 0.66526 0.29857 0.0
Cd113 Cd 0.30647 0.70068 0.26942 0.0
Cd114 Cd 0.33274 0.59904 0.2569 0.0
O115 O 0.37848 0.61997 0.28738 0.0
O116 O 0.33714 0.808 0.26915 0.0
O117 O 0.41011 0.76674 0.26049 0.0
C118 C 0.40119 0.82129 0.26366 0.0
C119 C 0.38573 0.64186 0.2237 0.0
C120 C 0.35211 0.63946 0.30237 0.0
C121 C 0.18255 0.56046 0.25229 0.0
O122 O 0.22299 0.53363 0.25605 0.0
O123 O 0.20925 0.62936 0.25322 0.0
O124 O 0.38642 0.58686 0.23215 0.0
O125 O 0.35671 0.67199 0.23426 0.0
O126 O 0.6363 0.35926 0.62043 0.0
Cd127 Cd 0.57644 0.34448 0.59383 0.0
Cd128 Cd 0.69337 0.35385 0.57685 0.0
O129 O 0.7433 0.40779 0.60481 0.0
O130 O 0.50288 0.37666 0.59955 0.0
O131 O 0.60045 0.43932 0.5801 0.0
C132 C 0.54398 0.43477 0.58889 0.0
C133 C 0.70159 0.39485 0.54225 0.0
C134 C 0.70513 0.39208 0.62149 0.0
C135 C 0.56718 0.2063 0.57937 0.0
O136 O 0.63611 0.24315 0.57939 0.0
O137 O 0.5305 0.23858 0.58158 0.0
O138 O 0.75155 0.38367 0.54994 0.0
O139 O 0.65092 0.38755 0.55474 0.0
O140 O 0.41268 0.65809 0.96336 0.0
Cd141 Cd 0.37458 0.62023 0.93413 0.0
Cd142 Cd 0.47855 0.75051 0.92332 0.0
O143 O 0.46068 0.77335 0.9543 0.0
O144 O 0.26832 0.54022 0.93473 0.0
O145 O 0.30395 0.65286 0.92549 0.0
C146 C 0.25154 0.58828 0.92898 0.0
C147 C 0.43928 0.76797 0.89042 0.0
C148 C 0.44119 0.72441 0.96844 0.0
C149 C 0.51388 0.63597 0.91706 0.0
O150 O 0.54113 0.70281 0.92144 0.0
O151 O 0.44479 0.59421 0.91756 0.0
O152 O 0.49581 0.82073 0.89929 0.0
O153 O 0.40477 0.70832 0.90073 0.0
O154 O 0.71463 0.29141 0.28766 0.0
Cd155 Cd 0.73151 0.24253 0.26243 0.0
Cd156 Cd 0.71837 0.34292 0.24267 0.0
O157 O 0.66323 0.34318 0.26991 0.0
O158 O 0.70239 0.13939 0.27051 0.0
O159 O 0.63783 0.16689 0.24923 0.0
C160 C 0.64426 0.1182 0.25944 0.0
C161 C 0.67831 0.30475 0.20827 0.0
C162 C 0.67984 0.32547 0.28733 0.0
C163 C 0.86786 0.36992 0.24666 0.0
O164 O 0.82923 0.3999 0.24532 0.0
O165 O 0.83734 0.30172 0.25017 0.0
O166 O 0.68805 0.36628 0.21502 0.0
O167 O 0.68623 0.26364 0.22156 0.0
C168 C 0.48921 0.71014 1.00222 0.0
C169 C 0.45532 0.7419 0.99097 0.0
C170 C 0.48474 0.70454 0.0241 0.0
C171 C 0.44621 0.73051 0.0356 0.0
H172 H 0.51474 0.68442 0.99391 0.0
H173 H 0.50679 0.67454 0.03194 0.0
S174 S 0.35535 0.82613 0.01383 0.0
N175 N 0.38828 0.80628 0.99297 0.0
N176 N 0.3798 0.7958 0.03441 0.0
C177 C 0.41784 0.76849 0.02478 0.0
C178 C 0.42238 0.77416 1.00233 0.0
C179 C 0.59215 0.31055 0.33964 0.0
C180 C 0.65283 0.35649 0.352 0.0
C181 C 0.59852 0.30678 0.31772 0.0
C182 C 0.66576 0.34883 0.30768 0.0
H183 H 0.54149 0.27234 0.34713 0.0
H184 H 0.55258 0.26594 0.30895 0.0
S185 S 0.83859 0.48234 0.33285 0.0
N186 N 0.78007 0.4489 0.35246 0.0
N187 N 0.79212 0.44202 0.31141 0.0
C188 C 0.72494 0.39921 0.31968 0.0
C189 C 0.71845 0.40302 0.34186 0.0
C190 C 0.37499 0.67232 0.68853 0.0
C191 C 0.34825 0.70792 0.70108 0.0
C192 C 0.36553 0.66803 0.66676 0.0
C193 C 0.32898 0.69923 0.65666 0.0
H194 H 0.40817 0.65224 0.69545 0.0
H195 H 0.39192 0.64501 0.65758 0.0
S196 S 0.24166 0.79144 0.68265 0.0
N197 N 0.27785 0.76897 0.70221 0.0
N198 N 0.2599 0.76095 0.66097 0.0
C199 C 0.29635 0.72939 0.66915 0.0
C200 C 0.30612 0.73382 0.69149 0.0
C201 C 0.75079 0.28858 0.00784 0.0
C202 C 0.71151 0.31161 0.02032 0.0
C203 C 0.7565 0.30022 0.98593 0.0
C204 C 0.72258 0.33462 0.97604 0.0
H205 H 0.78274 0.26795 0.01523 0.0
H206 H 0.79251 0.28812 0.97704 0.0
S207 S 0.60499 0.39468 1.00134 0.0
N208 N 0.63173 0.36233 0.02086 0.0
N209 N 0.64197 0.38358 0.97991 0.0
C210 C 0.67791 0.35141 0.98813 0.0
C211 C 0.6724 0.33997 0.01024 0.0
C212 C 0.32392 0.57675 0.33687 0.0
C213 C 0.37076 0.63702 0.32449 0.0
C214 C 0.32097 0.58297 0.3588 0.0
C215 C 0.36471 0.64968 0.36886 0.0
H216 H 0.28448 0.52668 0.32939 0.0
H217 H 0.27951 0.5375 0.3676 0.0
S218 S 0.50063 0.82133 0.34362 0.0
N219 N 0.46556 0.76327 0.32399 0.0
N220 N 0.46011 0.77508 0.3651 0.0
C221 C 0.41584 0.70836 0.35682 0.0
C222 C 0.41888 0.702 0.33461 0.0
C223 C 0.77868 0.47711 0.67433 0.0
C224 C 0.75527 0.41506 0.687 0.0
C225 C 0.76988 0.47099 0.65233 0.0
C226 C 0.73769 0.40271 0.64255 0.0
H227 H 0.79753 0.52953 0.68157 0.0
H228 H 0.78236 0.51884 0.64321 0.0
S229 S 0.67553 0.22556 0.66861 0.0
N230 N 0.70521 0.2848 0.68803 0.0
N231 N 0.68907 0.27334 0.6469 0.0
C232 C 0.71995 0.34147 0.65494 0.0
C233 C 0.72869 0.34765 0.67715 0.0
C234 C 0.41227 0.61777 0.18721 0.0
C235 C 0.40964 0.66579 0.20177 0.0
C236 C 0.4186 0.63305 0.1656 0.0
C237 C 0.42239 0.69688 0.15771 0.0
H238 H 0.40474 0.56594 0.19235 0.0
H239 H 0.41608 0.59222 0.15497 0.0
S240 S 0.43347 0.8473 0.18978 0.0
N241 N 0.42322 0.78513 0.20712 0.0
N242 N 0.43432 0.81331 0.16656 0.0
C243 C 0.42656 0.74829 0.17227 0.0
C244 C 0.42035 0.73284 0.19428 0.0
C245 C 0.72821 0.38944 0.48363 0.0
C246 C 0.66794 0.39121 0.47503 0.0
C247 C 0.74199 0.39618 0.50528 0.0
C248 C 0.69621 0.40516 0.51931 0.0
H249 H 0.76331 0.37908 0.4737 0.0
H250 H 0.78654 0.39015 0.5111 0.0
S251 S 0.53907 0.4271 0.50457 0.0
N252 N 0.56785 0.41243 0.48203 0.0
N253 N 0.59394 0.4259 0.52273 0.0
C254 C 0.63951 0.41353 0.51077 0.0
C255 C 0.62534 0.40639 0.48865 0.0
C256 C 0.34169 0.70284 0.83833 0.0
C257 C 0.38839 0.75653 0.82412 0.0
C258 C 0.35602 0.70985 0.85995 0.0
C259 C 0.41779 0.77078 0.86833 0.0
H260 H 0.29595 0.65291 0.83267 0.0
H261 H 0.32019 0.66502 0.87002 0.0
S262 S 0.54962 0.93314 0.83831 0.0
N263 N 0.49319 0.87785 0.82033 0.0
N264 N 0.52031 0.89039 0.86097 0.0
C265 C 0.4613 0.82783 0.85455 0.0
C266 C 0.44657 0.82083 0.83246 0.0
C267 C 0.67482 0.32806 0.14934 0.0
C268 C 0.68175 0.27016 0.14128 0.0
C269 C 0.6685 0.33605 0.17095 0.0
C270 C 0.66838 0.28628 0.18549 0.0
H271 H 0.6782 0.37013 0.13901 0.0
H272 H 0.66758 0.38382 0.1763 0.0
S273 S 0.67134 0.11772 0.17236 0.0
N274 N 0.67837 0.157 0.14941 0.0
N275 N 0.66548 0.17118 0.19003 0.0
C276 C 0.66862 0.22452 0.17754 0.0
C277 C 0.67551 0.21664 0.15546 0.0
C278 C 0.24259 0.66728 0.5207 0.0
C279 C 0.28895 0.66114 0.53525 0.0
C280 C 0.25112 0.66197 0.49901 0.0
C281 C 0.30651 0.65057 0.49104 0.0
H282 H 0.20262 0.68107 0.52596 0.0
H283 H 0.21685 0.67146 0.48841 0.0
S284 S 0.43209 0.6155 0.52282 0.0
N285 N 0.38449 0.63128 0.5403 0.0
N286 N 0.40097 0.62235 0.49965 0.0
C287 C 0.34879 0.63781 0.50551 0.0
C288 C 0.33987 0.6428 0.52758 0.0
C289 C 0.83277 0.45084 0.84472 0.0
C290 C 0.77733 0.38468 0.85305 0.0
C291 C 0.83936 0.46443 0.823 0.0
C292 C 0.79091 0.41228 0.80877 0.0
H293 H 0.86871 0.49444 0.85508 0.0
H294 H 0.87961 0.51779 0.81749 0.0
S295 S 0.6466 0.22478 0.82207 0.0
N296 N 0.68044 0.26267 0.84503 0.0
N297 N 0.69324 0.28763 0.8043 0.0
C298 C 0.7398 0.34349 0.81675 0.0
C299 C 0.73288 0.32982 0.83885 0.0
C300 C 1.02331 0.42228 0.09114 0.0
C301 C 0.9867 0.46105 0.09509 0.0
C302 C 0.0992 0.45531 0.09264 0.0
C303 C 0.14223 0.52872 0.09817 0.0
H304 H 0.99338 0.36607 0.0863 0.0
H305 H 0.12434 0.42338 0.08882 0.0
S306 S 0.0732 0.65274 0.11241 0.0
N307 N 0.99954 0.57579 0.10635 0.0
N308 N 0.14162 0.63783 0.10931 0.0
C309 C 0.10616 0.56742 0.10304 0.0
C310 C 1.02877 0.53372 0.10146 0.0
C311 C 0.5547 0.04072 0.42895 0.0
C312 C 0.52614 0.08762 0.42793 0.0
C313 C 0.50916 0.96523 0.43032 0.0
C314 C 0.43282 0.93288 0.43069 0.0
H315 H 0.61274 0.06216 0.42806 0.0
H316 H 0.5344 0.93193 0.43046 0.0
S317 S 0.33018 0.0315 0.43073 0.0
N318 N 0.41603 0.09601 0.42915 0.0
N319 N 0.33105 0.9545 0.43156 0.0
C320 C 0.40352 0.9792 0.4306 0.0
C321 C 0.44991 0.05625 0.42928 0.0
C322 C 0.53835 0.51576 0.76368 0.0
C323 C 0.61405 0.54523 0.76332 0.0
C324 C 0.50732 0.56037 0.76503 0.0
C325 C 0.55044 0.63667 0.76606 0.0
H326 H 0.50246 0.4578 0.76224 0.0
H327 H 0.4487 0.5345 0.76461 0.0
S328 S 0.75171 0.74115 0.76814 0.0
N329 N 0.73165 0.65591 0.766 0.0
N330 N 0.67318 0.73914 0.76837 0.0
C331 C 0.62621 0.66673 0.76672 0.0
C332 C 0.65794 0.62129 0.7654 0.0
C333 C 0.57382 0.09169 0.57888 0.0
C334 C 0.53114 0.12544 0.57832 0.0
C335 C 0.54235 1.01597 0.57998 0.0
C336 C 0.4666 0.97019 0.58054 0.0
H337 H 0.63249 0.12403 0.57909 0.0
H338 H 0.57796 0.99344 0.58104 0.0
S339 S 0.32985 0.03017 0.57708 0.0
N340 N 0.40868 0.10632 0.57677 0.0
N341 N 0.34934 0.96444 0.57866 0.0
C342 C 0.42309 1.00299 0.57899 0.0
C343 C 0.45529 0.08027 0.57793 0.0
C344 C 0.535 0.53063 0.91237 0.0
C345 C 0.56329 0.60601 0.91335 0.0
C346 C 0.58075 0.5008 0.91154 0.0
C347 C 0.65712 0.54483 0.9117 0.0
H348 H 0.47692 0.49393 0.91293 0.0
H349 H 0.55557 0.44228 0.91142 0.0
S350 S 0.75933 0.74605 0.91171 0.0
N351 N 0.67333 0.72456 0.91259 0.0
N352 N 0.75874 0.6683 0.9112 0.0
C353 C 0.68624 0.62042 0.91168 0.0
C354 C 0.6396 0.65096 0.91245 0.0
C355 C 0.05587 0.53875 0.24731 0.0
C356 C 0.10331 0.51084 0.24844 0.0
C357 C 0.9804 0.49276 0.24599 0.0
C358 C 0.94859 0.41655 0.24581 0.0
H359 H 0.07686 0.59668 0.24806 0.0
H360 H 0.94669 0.51755 0.24576 0.0
S361 S 0.04875 0.31545 0.24614 0.0
N362 N 0.11283 0.40145 0.24753 0.0
N363 N 0.97129 0.31556 0.24523 0.0
C364 C 0.99545 0.38786 0.246 0.0
C365 C 0.07252 0.43474 0.24726 0.0
C366 C 0.55293 0.42919 0.08899 0.0
C367 C 0.62582 0.48493 0.09097 0.0
C368 C 0.49552 0.44386 0.08977 0.0
C369 C 0.50858 0.51452 0.0932 0.0
H370 H 0.54014 0.37394 0.08608 0.0
H371 H 0.44058 0.39959 0.08752 0.0
S372 S 0.68942 0.67915 0.10045 0.0
N373 N 0.70773 0.61316 0.09694 0.0
N374 N 0.60017 0.64073 0.09922 0.0
C375 C 0.58115 0.57041 0.09592 0.0
C376 C 0.63967 0.55566 0.09457 0.0
C377 C 0.97057 0.43773 0.42026 0.0
C378 C 0.91215 0.4486 0.41559 0.0
C379 C 1.04195 0.49652 0.42155 0.0
C380 C 0.05794 0.56828 0.41767 0.0
H381 H 0.96108 0.38348 0.42306 0.0
H382 H 0.0852 0.48533 0.4251 0.0
S383 S 0.92438 0.62578 0.40452 0.0
N384 N 0.87507 0.5369 0.40716 0.0
N385 N 1.00907 0.64657 0.40901 0.0
C386 C 1.00001 0.5798 0.41293 0.0
C387 C 0.92723 0.52022 0.41205 0.0
C388 C 0.51802 0.09995 0.75578 0.0
C389 C 0.58883 0.1587 0.75325 0.0
C390 C 0.50459 0.02829 0.75678 0.0
C391 C 0.56119 1.0124 0.75474 0.0
H392 H 0.47261 0.10933 0.75698 0.0
H393 H 0.44901 0.98481 0.75856 0.0
S394 S 0.75652 0.1466 0.74812 0.0
N395 N 0.71668 0.19601 0.74923 0.0
N396 N 0.69081 0.06155 0.75051 0.0
C397 C 0.63221 0.07059 0.75235 0.0
C398 C 0.64616 0.1436 0.75177 0.0
C399 C 0.44524 0.54215 0.59143 0.0
C400 C 0.50133 0.61451 0.58873 0.0
C401 C 0.45921 0.48433 0.59125 0.0
C402 C 0.52956 0.49625 0.5878 0.0
H403 H 0.39016 0.53009 0.59437 0.0
H404 H 0.41453 0.42992 0.59392 0.0
S405 S 0.69482 0.67516 0.57855 0.0
N406 N 0.6295 0.69464 0.58188 0.0
N407 N 0.65582 0.58618 0.58081 0.0
C408 C 0.58583 0.56822 0.58437 0.0
C409 C 0.57175 0.62726 0.58504 0.0
C410 C 0.15939 0.62851 0.93045 0.0
C411 C 0.17517 0.57229 0.92737 0.0
C412 C 0.08784 0.6155 0.92974 0.0
C413 C 1.02919 0.54607 0.92539 0.0
H414 H 0.20261 0.68299 0.9339 0.0
H415 H 0.07851 0.6603 0.93258 0.0
S416 S 1.04134 0.38055 0.91545 0.0
N417 N 0.12617 0.44469 0.91959 0.0
N418 N 0.99203 0.4203 0.91764 0.0
C419 C 0.04436 0.48958 0.92186 0.0
C420 C 0.11715 0.50261 0.92303 0.0
C421 C 0.45327 0.95468 0.25706 0.0
C422 C 0.46388 0.89626 0.26191 0.0
C423 C 0.51226 1.02584 0.25565 0.0
C424 C 0.58401 0.04164 0.25955 0.0
H425 H 0.39905 0.94537 0.25424 0.0
H426 H 0.50123 0.0691 0.252 0.0
S427 S 0.64105 0.90795 0.27287 0.0
N428 N 0.55203 0.85891 0.27035 0.0
N429 N 0.66212 0.99256 0.26825 0.0
C430 C 0.59533 0.98369 0.26438 0.0
C431 C 0.53552 0.91111 0.2654 0.0
loop_
_geom_bond_atom_site_label_1
_geom_bond_atom_site_label_2
_geom_bond_distance
_geom_bond_site_symmetry_2
_ccdc_geom_bond_type
O0 Cd1 2.223 . S
O0 C8 1.315 . S
Cd1 O0 2.223 . S
Cd1 O4 2.297 . S
Cd1 O5 2.439 . S
Cd1 O11 2.240 . S
Cd2 O3 2.240 . S
Cd2 O10 2.223 . S
Cd2 O12 2.297 . S
Cd2 O13 2.439 . S
O3 Cd2 2.240 . S
O3 C8 1.279 . S
O4 Cd1 2.297 . S
O4 C6 1.247 . S
O5 Cd1 2.439 . S
O5 C6 1.208 . S
C6 O4 1.247 . S
C6 O5 1.208 . S
C7 O12 1.247 . S
C7 O13 1.208 . S
C8 O0 1.315 . S
C8 O3 1.279 . S
C9 O10 1.315 . S
C9 O11 1.279 . S
O10 Cd2 2.223 . S
O10 C9 1.315 . S
O11 Cd1 2.240 . S
O11 C9 1.279 . S
O12 Cd2 2.297 . S
O12 C7 1.247 . S
O13 Cd2 2.439 . S
O13 C7 1.208 . S
O14 Cd15 2.223 . S
O14 C22 1.315 . S
Cd15 O14 2.223 . S
Cd15 O18 2.297 . S
Cd15 O19 2.439 . S
Cd15 O25 2.240 . S
Cd16 O17 2.240 . S
Cd16 O24 2.223 . S
Cd16 O26 2.297 . S
Cd16 O27 2.439 . S
O17 Cd16 2.240 . S
O17 C22 1.279 . S
O18 Cd15 2.297 . S
O18 C20 1.247 . S
O19 Cd15 2.439 . S
O19 C20 1.208 . S
C20 O18 1.247 . S
C20 O19 1.208 . S
C21 O26 1.247 . S
C21 O27 1.208 . S
C22 O14 1.315 . S
C22 O17 1.279 . S
C23 O24 1.315 . S
C23 O25 1.279 . S
O24 Cd16 2.223 . S
O24 C23 1.315 . S
O25 Cd15 2.240 . S
O25 C23 1.279 . S
O26 Cd16 2.297 . S
O26 C21 1.247 . S
O27 Cd16 2.439 . S
O27 C21 1.208 . S
O28 Cd29 2.223 . S
O28 C36 1.315 . S
Cd29 O28 2.223 . S
Cd29 O32 2.297 . S
Cd29 O33 2.439 . S
Cd29 O39 2.240 . S
Cd30 O31 2.240 . S
Cd30 O38 2.223 . S
Cd30 O40 2.297 . S
Cd30 O41 2.439 . S
O31 Cd30 2.240 . S
O31 C36 1.279 . S
O32 Cd29 2.297 . S
O32 C34 1.247 . S
O33 Cd29 2.439 . S
O33 C34 1.208 . S
C34 O32 1.247 . S
C34 O33 1.208 . S
C35 O40 1.247 . S
C35 O41 1.208 . S
C36 O28 1.315 . S
C36 O31 1.279 . S
C37 O38 1.315 . S
C37 O39 1.279 . S
O38 Cd30 2.223 . S
O38 C37 1.315 . S
O39 Cd29 2.240 . S
O39 C37 1.279 . S
O40 Cd30 2.297 . S
O40 C35 1.247 . S
O41 Cd30 2.439 . S
O41 C35 1.208 . S
O42 Cd43 2.223 . S
O42 C50 1.315 . S
Cd43 O42 2.223 . S
Cd43 O46 2.297 . S
Cd43 O47 2.439 . S
Cd43 O53 2.240 . S
Cd44 O45 2.240 . S
Cd44 O52 2.223 . S
Cd44 O54 2.297 . S
Cd44 O55 2.439 . S
O45 Cd44 2.240 . S
O45 C50 1.279 . S
O46 Cd43 2.297 . S
O46 C48 1.247 . S
O47 Cd43 2.439 . S
O47 C48 1.208 . S
C48 O46 1.247 . S
C48 O47 1.208 . S
C49 O54 1.247 . S
C49 O55 1.208 . S
C50 O42 1.315 . S
C50 O45 1.279 . S
C51 O52 1.315 . S
C51 O53 1.279 . S
O52 Cd44 2.223 . S
O52 C51 1.315 . S
O53 Cd43 2.240 . S
O53 C51 1.279 . S
O54 Cd44 2.297 . S
O54 C49 1.247 . S
O55 Cd44 2.439 . S
O55 C49 1.208 . S
O56 Cd57 2.223 . S
O56 C64 1.315 . S
Cd57 O56 2.223 . S
Cd57 O60 2.297 . S
Cd57 O61 2.439 . S
Cd57 O67 2.240 . S
Cd58 O59 2.240 . S
Cd58 O66 2.223 . S
Cd58 O68 2.297 . S
Cd58 O69 2.439 . S
O59 Cd58 2.240 . S
O59 C64 1.279 . S
O60 Cd57 2.297 . S
O60 C62 1.247 . S
O61 Cd57 2.439 . S
O61 C62 1.208 . S
C62 O60 1.247 . S
C62 O61 1.208 . S
C63 O68 1.247 . S
C63 O69 1.208 . S
C64 O56 1.315 . S
C64 O59 1.279 . S
C65 O66 1.315 . S
C65 O67 1.279 . S
O66 Cd58 2.223 . S
O66 C65 1.315 . S
O67 Cd57 2.240 . S
O67 C65 1.279 . S
O68 Cd58 2.297 . S
O68 C63 1.247 . S
O69 Cd58 2.439 . S
O69 C63 1.208 . S
O70 Cd71 2.223 . S
O70 C78 1.315 . S
Cd71 O70 2.223 . S
Cd71 O74 2.297 . S
Cd71 O75 2.439 . S
Cd71 O81 2.240 . S
Cd72 O73 2.240 . S
Cd72 O80 2.223 . S
Cd72 O82 2.297 . S
Cd72 O83 2.439 . S
O73 Cd72 2.240 . S
O73 C78 1.279 . S
O74 Cd71 2.297 . S
O74 C76 1.247 . S
O75 Cd71 2.439 . S
O75 C76 1.208 . S
C76 O74 1.247 . S
C76 O75 1.208 . S
C77 O82 1.247 . S
C77 O83 1.208 . S
C78 O70 1.315 . S
C78 O73 1.279 . S
C79 O80 1.315 . S
C79 O81 1.279 . S
O80 Cd72 2.223 . S
O80 C79 1.315 . S
O81 Cd71 2.240 . S
O81 C79 1.279 . S
O82 Cd72 2.297 . S
O82 C77 1.247 . S
O83 Cd72 2.439 . S
O83 C77 1.208 . S
O84 Cd85 2.223 . S
O84 C92 1.315 . S
Cd85 O84 2.223 . S
Cd85 O88 2.297 . S
Cd85 O89 2.439 . S
Cd85 O95 2.240 . S
Cd86 O87 2.240 . S
Cd86 O94 2.223 . S
Cd86 O96 2.297 . S
Cd86 O97 2.439 . S
O87 Cd86 2.240 . S
O87 C92 1.279 . S
O88 Cd85 2.297 . S
O88 C90 1.247 . S
O89 Cd85 2.439 . S
O89 C90 1.208 . S
C90 O88 1.247 . S
C90 O89 1.208 . S
C91 O96 1.247 . S
C91 O97 1.208 . S
C92 O84 1.315 . S
C92 O87 1.279 . S
C93 O94 1.315 . S
C93 O95 1.279 . S
O94 Cd86 2.223 . S
O94 C93 1.315 . S
O95 Cd85 2.240 . S
O95 C93 1.279 . S
O96 Cd86 2.297 . S
O96 C91 1.247 . S
O97 Cd86 2.439 . S
O97 C91 1.208 . S
O98 Cd99 2.223 . S
O98 C106 1.315 . S
Cd99 O98 2.223 . S
Cd99 O102 2.297 . S
Cd99 O103 2.439 . S
Cd99 O109 2.240 . S
Cd100 O101 2.240 . S
Cd100 O108 2.223 . S
Cd100 O110 2.297 . S
Cd100 O111 2.439 . S
O101 Cd100 2.240 . S
O101 C106 1.279 . S
O102 Cd99 2.297 . S
O102 C104 1.247 . S
O103 Cd99 2.439 . S
O103 C104 1.208 . S
C104 O102 1.247 . S
C104 O103 1.208 . S
C105 O110 1.247 . S
C105 O111 1.208 . S
C106 O98 1.315 . S
C106 O101 1.279 . S
C107 O108 1.315 . S
C107 O109 1.279 . S
O108 Cd100 2.223 . S
O108 C107 1.315 . S
O109 Cd99 2.240 . S
O109 C107 1.279 . S
O110 Cd100 2.297 . S
O110 C105 1.247 . S
O111 Cd100 2.439 . S
O111 C105 1.208 . S
O112 Cd113 2.223 . S
O112 C120 1.315 . S
Cd113 O112 2.223 . S
Cd113 O116 2.297 . S
Cd113 O117 2.439 . S
Cd113 O123 2.240 . S
Cd114 O115 2.240 . S
Cd114 O122 2.223 . S
Cd114 O124 2.297 . S
Cd114 O125 2.439 . S
O115 Cd114 2.240 . S
O115 C120 1.279 . S
O116 Cd113 2.297 . S
O116 C118 1.247 . S
O117 Cd113 2.439 . S
O117 C118 1.208 . S
C118 O116 1.247 . S
C118 O117 1.208 . S
C119 O124 1.247 . S
C119 O125 1.208 . S
C120 O112 1.315 . S
C120 O115 1.279 . S
C121 O122 1.315 . S
C121 O123 1.279 . S
O122 Cd114 2.223 . S
O122 C121 1.315 . S
O123 Cd113 2.240 . S
O123 C121 1.279 . S
O124 Cd114 2.297 . S
O124 C119 1.247 . S
O125 Cd114 2.439 . S
O125 C119 1.208 . S
O126 Cd127 2.223 . S
O126 C134 1.315 . S
Cd127 O126 2.223 . S
Cd127 O130 2.297 . S
Cd127 O131 2.439 . S
Cd127 O137 2.240 . S
Cd128 O129 2.240 . S
Cd128 O136 2.223 . S
Cd128 O138 2.297 . S
Cd128 O139 2.439 . S
O129 Cd128 2.240 . S
O129 C134 1.279 . S
O130 Cd127 2.297 . S
O130 C132 1.247 . S
O131 Cd127 2.439 . S
O131 C132 1.208 . S
C132 O130 1.247 . S
C132 O131 1.208 . S
C133 O138 1.247 . S
C133 O139 1.208 . S
C134 O126 1.315 . S
C134 O129 1.279 . S
C135 O136 1.315 . S
C135 O137 1.279 . S
O136 Cd128 2.223 . S
O136 C135 1.315 . S
O137 Cd127 2.240 . S
O137 C135 1.279 . S
O138 Cd128 2.297 . S
O138 C133 1.247 . S
O139 Cd128 2.439 . S
O139 C133 1.208 . S
O140 Cd141 2.223 . S
O140 C148 1.315 . S
Cd141 O140 2.223 . S
Cd141 O144 2.297 . S
Cd141 O145 2.439 . S
Cd141 O151 2.240 . S
Cd142 O143 2.240 . S
Cd142 O150 2.223 . S
Cd142 O152 2.297 . S
Cd142 O153 2.439 . S
O143 Cd142 2.240 . S
O143 C148 1.279 . S
O144 Cd141 2.297 . S
O144 C146 1.247 . S
O145 Cd141 2.439 . S
O145 C146 1.208 . S
C146 O144 1.247 . S
C146 O145 1.208 . S
C147 O152 1.247 . S
C147 O153 1.208 . S
C148 O140 1.315 . S
C148 O143 1.279 . S
C149 O150 1.315 . S
C149 O151 1.279 . S
O150 Cd142 2.223 . S
O150 C149 1.315 . S
O151 Cd141 2.240 . S
O151 C149 1.279 . S
O152 Cd142 2.297 . S
O152 C147 1.247 . S
O153 Cd142 2.439 . S
O153 C147 1.208 . S
O154 Cd155 2.223 . S
O154 C162 1.315 . S
Cd155 O154 2.223 . S
Cd155 O158 2.297 . S
Cd155 O159 2.439 . S
Cd155 O165 2.240 . S
Cd156 O157 2.240 . S
Cd156 O164 2.223 . S
Cd156 O166 2.297 . S
Cd156 O167 2.439 . S
O157 Cd156 2.240 . S
O157 C162 1.279 . S
O158 Cd155 2.297 . S
O158 C160 1.245 . S
O159 Cd155 2.439 . S
O159 C160 1.221 . S
C160 O158 1.245 . S
C160 O159 1.221 . S
C161 O166 1.247 . S
C161 O167 1.208 . S
C162 O154 1.315 . S
C162 O157 1.279 . S
C163 O164 1.315 . S
C163 O165 1.279 . S
O164 Cd156 2.223 . S
O164 C163 1.315 . S
O165 Cd155 2.240 . S
O165 C163 1.279 . S
O166 Cd156 2.297 . S
O166 C161 1.247 . S
O167 Cd156 2.439 . S
O167 C161 1.208 . S
C168 C169 1.369 . S
C168 C170 1.419 1_556 S
C168 H172 0.930 . S
C169 C168 1.369 . S
C169 C178 1.429 1_556 S
C170 C168 1.419 1_554 S
C170 C171 1.363 . S
C170 H173 0.929 1_554 S
C171 C170 1.363 . S
C171 C177 1.428 . S
H172 C168 0.930 . S
H173 C170 0.929 1_556 S
S174 N175 1.613 . S
S174 N176 1.610 . S
N175 S174 1.613 . S
N175 C178 1.350 . S
N176 S174 1.610 . S
N176 C177 1.351 . S
C177 C171 1.428 . S
C177 N176 1.351 . S
C177 C178 1.434 . S
C178 C169 1.429 1_554 S
C178 N175 1.350 . S
C178 C177 1.434 . S
C179 C180 1.369 . S
C179 C181 1.419 . S
C179 H183 0.930 . S
C180 C179 1.369 . S
C180 C189 1.429 . S
C181 C179 1.419 . S
C181 C182 1.363 . S
C181 H184 0.929 . S
C182 C181 1.363 . S
C182 C188 1.428 . S
H183 C179 0.930 . S
H184 C181 0.929 . S
S185 N186 1.613 . S
S185 N187 1.610 . S
N186 S185 1.613 . S
N186 C189 1.350 . S
N187 S185 1.610 . S
N187 C188 1.351 . S
C188 C182 1.428 . S
C188 N187 1.351 . S
C188 C189 1.434 . S
C189 C180 1.429 . S
C189 N186 1.350 . S
C189 C188 1.434 . S
C190 C191 1.369 . S
C190 C192 1.419 . S
C190 H194 0.930 . S
C191 C190 1.369 . S
C191 C200 1.429 . S
C192 C190 1.419 . S
C192 C193 1.363 . S
C192 H195 0.929 . S
C193 C192 1.363 . S
C193 C199 1.428 . S
H194 C190 0.930 . S
H195 C192 0.929 . S
S196 N197 1.613 . S
S196 N198 1.610 . S
N197 S196 1.613 . S
N197 C200 1.350 . S
N198 S196 1.610 . S
N198 C199 1.351 . S
C199 C193 1.428 . S
C199 N198 1.351 . S
C199 C200 1.434 . S
C200 C191 1.429 . S
C200 N197 1.350 . S
C200 C199 1.434 . S
C201 C202 1.369 1_556 S
C201 C203 1.419 . S
C201 H205 0.930 . S
C202 C201 1.369 1_554 S
C202 C211 1.429 . S
C203 C201 1.419 . S
C203 C204 1.363 . S
C203 H206 0.929 . S
C204 C203 1.363 . S
C204 C210 1.428 . S
H205 C201 0.930 . S
H206 C203 0.929 . S
S207 N208 1.613 . S
S207 N209 1.610 . S
N208 S207 1.613 . S
N208 C211 1.350 . S
N209 S207 1.610 . S
N209 C210 1.351 1_554 S
C210 C204 1.428 . S
C210 N209 1.351 1_556 S
C210 C211 1.434 1_556 S
C211 C202 1.429 . S
C211 N208 1.350 . S
C211 C210 1.434 1_554 S
C212 C213 1.369 . S
C212 C214 1.419 . S
C212 H216 0.930 . S
C213 C212 1.369 . S
C213 C222 1.429 . S
C214 C212 1.419 . S
C214 C215 1.363 . S
C214 H217 0.929 . S
C215 C214 1.363 . S
C215 C221 1.428 . S
H216 C212 0.930 . S
H217 C214 0.929 . S
S218 N219 1.613 . S
S218 N220 1.610 . S
N219 S218 1.613 . S
N219 C222 1.350 . S
N220 S218 1.610 . S
N220 C221 1.351 . S
C221 C215 1.428 . S
C221 N220 1.351 . S
C221 C222 1.434 . S
C222 C213 1.429 . S
C222 N219 1.350 . S
C222 C221 1.434 . S
C223 C224 1.369 . S
C223 C225 1.419 . S
C223 H227 0.930 . S
C224 C223 1.369 . S
C224 C233 1.429 . S
C225 C223 1.419 . S
C225 C226 1.363 . S
C225 H228 0.929 . S
C226 C225 1.363 . S
C226 C232 1.428 . S
H227 C223 0.930 . S
H228 C225 0.929 . S
S229 N230 1.613 . S
S229 N231 1.610 . S
N230 S229 1.613 . S
N230 C233 1.350 . S
N231 S229 1.610 . S
N231 C232 1.351 . S
C232 C226 1.428 . S
C232 N231 1.351 . S
C232 C233 1.434 . S
C233 C224 1.429 . S
C233 N230 1.350 . S
C233 C232 1.434 . S
C234 C235 1.369 . S
C234 C236 1.419 . S
C234 H238 0.930 . S
C235 C234 1.369 . S
C235 C244 1.429 . S
C236 C234 1.419 . S
C236 C237 1.363 . S
C236 H239 0.929 . S
C237 C236 1.363 . S
C237 C243 1.428 . S
H238 C234 0.930 . S
H239 C236 0.929 . S
S240 N241 1.613 . S
S240 N242 1.610 . S
N241 S240 1.613 . S
N241 C244 1.350 . S
N242 S240 1.610 . S
N242 C243 1.351 . S
C243 C237 1.428 . S
C243 N242 1.351 . S
C243 C244 1.434 . S
C244 C235 1.429 . S
C244 N241 1.350 . S
C244 C243 1.434 . S
C245 C246 1.369 . S
C245 C247 1.419 . S
C245 H249 0.930 . S
C246 C245 1.369 . S
C246 C255 1.429 . S
C247 C245 1.419 . S
C247 C248 1.363 . S
C247 H250 0.929 . S
C248 C247 1.363 . S
C248 C254 1.428 . S
H249 C245 0.930 . S
H250 C247 0.929 . S
S251 N252 1.613 . S
S251 N253 1.610 . S
N252 S251 1.613 . S
N252 C255 1.350 . S
N253 S251 1.610 . S
N253 C254 1.351 . S
C254 C248 1.428 . S
C254 N253 1.351 . S
C254 C255 1.434 . S
C255 C246 1.429 . S
C255 N252 1.350 . S
C255 C254 1.434 . S
C256 C257 1.369 . S
C256 C258 1.419 . S
C256 H260 0.930 . S
C257 C256 1.369 . S
C257 C266 1.429 . S
C258 C256 1.419 . S
C258 C259 1.363 . S
C258 H261 0.929 . S
C259 C258 1.363 . S
C259 C265 1.428 . S
H260 C256 0.930 . S
H261 C258 0.929 . S
S262 N263 1.613 . S
S262 N264 1.610 . S
N263 S262 1.613 . S
N263 C266 1.350 . S
N264 S262 1.610 . S
N264 C265 1.351 . S
C265 C259 1.428 . S
C265 N264 1.351 . S
C265 C266 1.434 . S
C266 C257 1.429 . S
C266 N263 1.350 . S
C266 C265 1.434 . S
C267 C268 1.369 . S
C267 C269 1.419 . S
C267 H271 0.930 . S
C268 C267 1.369 . S
C268 C277 1.429 . S
C269 C267 1.419 . S
C269 C270 1.363 . S
C269 H272 0.929 . S
C270 C269 1.363 . S
C270 C276 1.428 . S
H271 C267 0.930 . S
H272 C269 0.929 . S
S273 N274 1.613 . S
S273 N275 1.610 . S
N274 S273 1.613 . S
N274 C277 1.350 . S
N275 S273 1.610 . S
N275 C276 1.351 . S
C276 C270 1.428 . S
C276 N275 1.351 . S
C276 C277 1.434 . S
C277 C268 1.429 . S
C277 N274 1.350 . S
C277 C276 1.434 . S
C278 C279 1.369 . S
C278 C280 1.419 . S
C278 H282 0.930 . S
C279 C278 1.369 . S
C279 C288 1.429 . S
C280 C278 1.419 . S
C280 C281 1.363 . S
C280 H283 0.929 . S
C281 C280 1.363 . S
C281 C287 1.428 . S
H282 C278 0.930 . S
H283 C280 0.929 . S
S284 N285 1.613 . S
S284 N286 1.610 . S
N285 S284 1.613 . S
N285 C288 1.350 . S
N286 S284 1.610 . S
N286 C287 1.351 . S
C287 C281 1.428 . S
C287 N286 1.351 . S
C287 C288 1.434 . S
C288 C279 1.429 . S
C288 N285 1.350 . S
C288 C287 1.434 . S
C289 C290 1.369 . S
C289 C291 1.419 . S
C289 H293 0.930 . S
C290 C289 1.369 . S
C290 C299 1.429 . S
C291 C289 1.419 . S
C291 C292 1.363 . S
C291 H294 0.929 . S
C292 C291 1.363 . S
C292 C298 1.428 . S
H293 C289 0.930 . S
H294 C291 0.929 . S
S295 N296 1.613 . S
S295 N297 1.610 . S
N296 S295 1.613 . S
N296 C299 1.350 . S
N297 S295 1.610 . S
N297 C298 1.351 . S
C298 C292 1.428 . S
C298 N297 1.351 . S
C298 C299 1.434 . S
C299 C290 1.429 . S
C299 N296 1.350 . S
C299 C298 1.434 . S
C300 C301 1.369 . S
C300 C302 1.419 1_655 S
C300 H304 0.930 . S
C301 C300 1.369 . S
C301 C310 1.429 . S
C302 C300 1.419 1_455 S
C302 C303 1.363 . S
C302 H305 0.929 . S
C303 C302 1.363 . S
C303 C309 1.428 . S
H304 C300 0.930 . S
H305 C302 0.929 . S
S306 N307 1.613 1_455 S
S306 N308 1.610 . S
N307 S306 1.613 1_655 S
N307 C310 1.350 . S
N308 S306 1.610 . S
N308 C309 1.351 . S
C309 C303 1.428 . S
C309 N308 1.351 . S
C309 C310 1.434 1_455 S
C310 C301 1.429 . S
C310 N307 1.350 . S
C310 C309 1.434 1_655 S
C311 C312 1.369 . S
C311 C313 1.419 1_545 S
C311 H315 0.930 . S
C312 C311 1.369 . S
C312 C321 1.429 . S
C313 C311 1.419 1_565 S
C313 C314 1.363 . S
C313 H316 0.929 . S
C314 C313 1.363 . S
C314 C320 1.428 . S
H315 C311 0.930 . S
H316 C313 0.929 . S
S317 N318 1.613 . S
S317 N319 1.610 1_545 S
N318 S317 1.613 . S
N318 C321 1.350 . S
N319 S317 1.610 1_565 S
N319 C320 1.351 . S
C320 C314 1.428 . S
C320 N319 1.351 . S
C320 C321 1.434 1_565 S
C321 C312 1.429 . S
C321 N318 1.350 . S
C321 C320 1.434 1_545 S
C322 C323 1.369 . S
C322 C324 1.419 . S
C322 H326 0.930 . S
C323 C322 1.369 . S
C323 C332 1.429 . S
C324 C322 1.419 . S
C324 C325 1.363 . S
C324 H327 0.929 . S
C325 C324 1.363 . S
C325 C331 1.428 . S
H326 C322 0.930 . S
H327 C324 0.929 . S
S328 N329 1.613 . S
S328 N330 1.610 . S
N329 S328 1.613 . S
N329 C332 1.350 . S
N330 S328 1.610 . S
N330 C331 1.351 . S
C331 C325 1.428 . S
C331 N330 1.351 . S
C331 C332 1.434 . S
C332 C323 1.429 . S
C332 N329 1.350 . S
C332 C331 1.434 . S
C333 C334 1.369 . S
C333 C335 1.419 1_545 S
C333 H337 0.930 . S
C334 C333 1.369 . S
C334 C343 1.429 . S
C335 C333 1.419 1_565 S
C335 C336 1.363 . S
C335 H338 0.929 . S
C336 C335 1.363 . S
C336 C342 1.428 . S
H337 C333 0.930 . S
H338 C335 0.929 . S
S339 N340 1.613 1_565 S
S339 N341 1.610 . S
N340 S339 1.613 1_545 S
N340 C343 1.350 . S
N341 S339 1.610 . S
N341 C342 1.351 . S
C342 C336 1.428 . S
C342 N341 1.351 . S
C342 C343 1.434 1_565 S
C343 C334 1.429 . S
C343 N340 1.350 . S
C343 C342 1.434 1_545 S
C344 C345 1.369 . S
C344 C346 1.419 . S
C344 H348 0.930 . S
C345 C344 1.369 . S
C345 C354 1.429 . S
C346 C344 1.419 . S
C346 C347 1.363 . S
C346 H349 0.929 . S
C347 C346 1.363 . S
C347 C353 1.428 . S
H348 C344 0.930 . S
H349 C346 0.929 . S
S350 N351 1.613 . S
S350 N352 1.610 . S
N351 S350 1.613 . S
N351 C354 1.350 . S
N352 S350 1.610 . S
N352 C353 1.351 . S
C353 C347 1.428 . S
C353 N352 1.351 . S
C353 C354 1.434 . S
C354 C345 1.429 . S
C354 N351 1.350 . S
C354 C353 1.434 . S
C355 C356 1.369 . S
C355 C357 1.419 1_455 S
C355 H359 0.930 . S
C356 C355 1.369 . S
C356 C365 1.429 . S
C357 C355 1.419 1_655 S
C357 C358 1.363 . S
C357 H360 0.929 . S
C358 C357 1.363 . S
C358 C364 1.428 . S
H359 C355 0.930 . S
H360 C357 0.929 . S
S361 N362 1.613 . S
S361 N363 1.610 1_455 S
N362 S361 1.613 . S
N362 C365 1.350 . S
N363 S361 1.610 1_655 S
N363 C364 1.351 . S
C364 C358 1.428 . S
C364 N363 1.351 . S
C364 C365 1.434 1_655 S
C365 C356 1.429 . S
C365 N362 1.350 . S
C365 C364 1.434 1_455 S
C366 C367 1.369 . S
C366 C368 1.419 . S
C366 H370 0.930 . S
C367 C366 1.369 . S
C367 C376 1.429 . S
C368 C366 1.419 . S
C368 C369 1.363 . S
C368 H371 0.929 . S
C369 C368 1.363 . S
C369 C375 1.428 . S
H370 C366 0.930 . S
H371 C368 0.929 . S
S372 N373 1.613 . S
S372 N374 1.610 . S
N373 S372 1.613 . S
N373 C376 1.350 . S
N374 S372 1.610 . S
N374 C375 1.351 . S
C375 C369 1.428 . S
C375 N374 1.351 . S
C375 C376 1.434 . S
C376 C367 1.429 . S
C376 N373 1.350 . S
C376 C375 1.434 . S
C377 C378 1.369 . S
C377 C379 1.419 . S
C377 H381 0.930 . S
C378 C377 1.369 . S
C378 C387 1.429 . S
C379 C377 1.419 . S
C379 C380 1.363 . S
C379 H382 0.929 . S
C380 C379 1.363 . S
C380 C386 1.428 . S
H381 C377 0.930 . S
H382 C379 0.929 . S
S383 N384 1.613 . S
S383 N385 1.610 . S
N384 S383 1.613 . S
N384 C387 1.350 . S
N385 S383 1.610 . S
N385 C386 1.351 . S
C386 C380 1.428 . S
C386 N385 1.351 . S
C386 C387 1.434 . S
C387 C378 1.429 . S
C387 N384 1.350 . S
C387 C386 1.434 . S
C388 C389 1.369 . S
C388 C390 1.419 . S
C388 H392 0.930 . S
C389 C388 1.369 . S
C389 C398 1.429 . S
C390 C388 1.419 . S
C390 C391 1.363 . S
C390 H393 0.929 . S
C391 C390 1.363 . S
C391 C397 1.428 . S
H392 C388 0.930 . S
H393 C390 0.929 . S
S394 N395 1.613 . S
S394 N396 1.610 . S
N395 S394 1.613 . S
N395 C398 1.350 . S
N396 S394 1.610 . S
N396 C397 1.351 . S
C397 C391 1.428 . S
C397 N396 1.351 . S
C397 C398 1.434 . S
C398 C389 1.429 . S
C398 N395 1.350 . S
C398 C397 1.434 . S
C399 C400 1.369 . S
C399 C401 1.419 . S
C399 H403 0.930 . S
C400 C399 1.369 . S
C400 C409 1.429 . S
C401 C399 1.419 . S
C401 C402 1.363 . S
C401 H404 0.929 . S
C402 C401 1.363 . S
C402 C408 1.428 . S
H403 C399 0.930 . S
H404 C401 0.929 . S
S405 N406 1.613 . S
S405 N407 1.610 . S
N406 S405 1.613 . S
N406 C409 1.350 . S
N407 S405 1.610 . S
N407 C408 1.351 . S
C408 C402 1.428 . S
C408 N407 1.351 . S
C408 C409 1.434 . S
C409 C400 1.429 . S
C409 N406 1.350 . S
C409 C408 1.434 . S
C410 C411 1.369 . S
C410 C412 1.419 . S
C410 H414 0.930 . S
C411 C410 1.369 . S
C411 C420 1.429 . S
C412 C410 1.419 . S
C412 C413 1.363 . S
C412 H415 0.929 . S
C413 C412 1.363 . S
C413 C419 1.428 . S
H414 C410 0.930 . S
H415 C412 0.929 . S
S416 N417 1.613 . S
S416 N418 1.610 . S
N417 S416 1.613 . S
N417 C420 1.350 . S
N418 S416 1.610 . S
N418 C419 1.351 . S
C419 C413 1.428 . S
C419 N418 1.351 . S
C419 C420 1.434 . S
C420 C411 1.429 . S
C420 N417 1.350 . S
C420 C419 1.434 . S
C421 C422 1.369 . S
C421 C423 1.419 . S
C421 H425 0.930 . S
C422 C421 1.369 . S
C422 C431 1.429 . S
C423 C421 1.419 . S
C423 C424 1.363 . S
C423 H426 0.929 . S
C424 C423 1.363 . S
C424 C430 1.428 . S
H425 C421 0.930 . S
H426 C423 0.929 . S
S427 N428 1.613 . S
S427 N429 1.610 . S
N428 S427 1.613 . S
N428 C431 1.350 . S
N429 S427 1.610 . S
N429 C430 1.351 . S
C430 C424 1.428 . S
C430 N429 1.351 . S
C430 C431 1.434 . S
C431 C422 1.429 . S
C431 N428 1.350 . S
C431 C430 1.434 . S
C169 C148 1.404 . S
C171 C8 1.701 . S
C180 C22 1.392 . S
C182 C162 1.705 . S
C191 C36 1.702 . S
C193 C92 1.401 . S
C202 C50 1.388 . S
C204 C106 1.703 . S
C213 C120 1.388 . S
C215 C64 1.704 . S
C224 C78 1.390 . S
C226 C134 1.703 . S
C235 C119 1.814 . S
C237 C7 1.890 . S
C246 C21 1.816 . S
C248 C133 1.890 . S
C257 C35 1.888 . S
C259 C147 1.817 . S
C268 C49 1.815 . S
C270 C161 1.889 . S
C279 C91 1.810 . S
C281 C63 1.890 . S
C290 C105 1.889 . S
C292 C77 1.813 . S
C301 C51 1.565 . S
C303 C9 1.560 . S
C312 C23 1.554 . S
C314 C65 1.566 . S
C323 C79 1.555 . S
C325 C37 1.566 . S
C334 C135 1.568 . S
C336 C93 1.556 . S
C345 C149 1.556 . S
C347 C107 1.564 . S
C356 C121 1.558 . S
C358 C163 1.562 . S
C367 C48 1.334 . S
C369 C6 1.333 . S
C378 C20 1.333 . S
C380 C62 1.333 1_655 S
C389 C76 1.332 . S
C391 C34 1.333 1_545 S
C400 C90 1.334 . S
C402 C132 1.333 . S
C411 C146 1.334 . S
C413 C104 1.334 1_455 S
C422 C118 1.334 . S
C424 C160 1.324 1_565 S
