# Generated by pormake.
# Topology acs-a, (4)-cn, num edge types: 1
# Building blocks:
#     Node 0, Type 0, BuildingBlock: UXUYUI_clean_sbu_0, # of connection points: 4
#     Node 1, Type 0, BuildingBlock: UXUYUI_clean_sbu_0, # of connection points: 4
#     Node 2, Type 0, BuildingBlock: UXUYUI_clean_sbu_0, # of connection points: 4
#     Node 3, Type 0, BuildingBlock: UXUYUI_clean_sbu_0, # of connection points: 4
#     Node 4, Type 0, BuildingBlock: UXUYUI_clean_sbu_0, # of connection points: 4
#     Node 5, Type 0, BuildingBlock: UXUYUI_clean_sbu_0, # of connection points: 4
#     Node 6, Type 0, BuildingBlock: UXUYUI_clean_sbu_0, # of connection points: 4
#     Node 7, Type 0, BuildingBlock: UXUYUI_clean_sbu_0, # of connection points: 4
#     Node 8, Type 0, BuildingBlock: UXUYUI_clean_sbu_0, # of connection points: 4
#     Node 9, Type 0, BuildingBlock: UXUYUI_clean_sbu_0, # of connection points: 4
#     Node 10, Type 0, BuildingBlock: UXUYUI_clean_sbu_0, # of connection points: 4
#     Node 11, Type 0, BuildingBlock: UXUYUI_clean_sbu_0, # of connection points: 4
#     Edge 12, Type (0, 0), None
#     Edge 13, Type (0, 0), None
#     Edge 14, Type (0, 0), None
#     Edge 15, Type (0, 0), None
#     Edge 16, Type (0, 0), None
#     Edge 17, Type (0, 0), None
#     Edge 18, Type (0, 0), None
#     Edge 19, Type (0, 0), None
#     Edge 20, Type (0, 0), None
#     Edge 21, Type (0, 0), None
#     Edge 22, Type (0, 0), None
#     Edge 23, Type (0, 0), None
#     Edge 24, Type (0, 0), None
#     Edge 25, Type (0, 0), None
#     Edge 26, Type (0, 0), None
#     Edge 27, Type (0, 0), None
#     Edge 28, Type (0, 0), None
#     Edge 29, Type (0, 0), None
#     Edge 30, Type (0, 0), None
#     Edge 31, Type (0, 0), None
#     Edge 32, Type (0, 0), None
#     Edge 33, Type (0, 0), None
#     Edge 34, Type (0, 0), None
#     Edge 35, Type (0, 0), None
# Relax obj value: 0.500
# Max RMSD: 0.243
# Mean RMSD: 0.227
data_MOF--net-acs-a--node1-UXUYUI_clean_sbu_0--edge1-none
_symmetry_space_group_name_H-M    P1
_symmetry_Int_Tables_number       1
_symmetry_cell_setting            triclinic
loop_
_symmetry_equiv_pos_as_xyz
'x, y, z'
_cell_length_a     35.80077
_cell_length_b     44.049082
_cell_length_c     43.176086
_cell_angle_alpha  90.000004
_cell_angle_beta   90.000974
_cell_angle_gamma 111.15125
loop_
_atom_site_label
_atom_site_type_symbol
_atom_site_fract_x
_atom_site_fract_y
_atom_site_fract_z
_atom_type_partial_charge
Li0 Li 0.57202 0.14613 0.08415 0.0
Li1 Li 0.63867 0.14402 0.08336 0.0
Li2 Li 0.58299 0.09689 0.07088 0.0
Li3 Li 0.59467 0.11673 0.12534 0.0
C4 C 0.61232 0.16546 0.0291 0.0
N5 N 0.63407 0.22023 0.99195 0.0
C6 C 0.63061 0.1964 0.04203 0.0
C7 C 0.60498 0.16242 0.99724 0.0
C8 C 0.64146 0.22377 0.02289 0.0
C9 C 0.61619 0.19039 0.97886 0.0
C10 C 0.63351 0.18876 0.13454 0.0
C11 C 0.67211 0.21031 0.18063 0.0
N12 N 0.66964 0.23986 0.17473 0.0
C13 C 0.63125 0.21936 0.12902 0.0
C14 C 0.65395 0.18418 0.16066 0.0
C15 C 0.64977 0.24487 0.14956 0.0
C16 C 0.53005 0.18457 0.10385 0.0
N17 N 0.53868 0.17056 0.07821 0.0
C18 C 0.50097 0.19345 0.04639 0.0
C19 C 0.524 0.17396 0.0499 0.0
C20 C 0.49314 0.20956 0.07227 0.0
C21 C 0.50752 0.20445 0.1014 0.0
H22 H 0.54172 0.18102 0.12611 0.0
H23 H 0.53063 0.16195 0.02997 0.0
C24 C 0.70772 0.17372 0.04472 0.0
N25 N 0.69398 0.16829 0.07437 0.0
C26 C 0.74648 0.19552 0.03865 0.0
C27 C 0.75769 0.20234 0.09378 0.0
C28 C 0.71866 0.18095 0.0987 0.0
C29 C 0.77146 0.21127 0.06341 0.0
H30 H 0.68809 0.16228 0.02569 0.0
H31 H 0.70771 0.17518 0.12203 0.0
C32 C 0.50484 0.09032 0.0916 0.0
N33 N 0.42605 0.06634 0.07213 0.0
C34 C 0.47405 0.07662 0.11298 0.0
C35 C 0.4956 0.09189 0.06033 0.0
C36 C 0.43439 0.06461 0.10267 0.0
C37 C 0.45558 0.07961 0.05094 0.0
C38 C 0.66342 0.09613 0.092 0.0
C39 C 0.67046 0.08747 0.06203 0.0
C40 C 0.69376 0.10324 0.11423 0.0
C41 C 0.70785 0.08611 0.05476 0.0
C42 C 0.73076 0.10162 0.10605 0.0
N43 N 0.73698 0.09317 0.07673 0.0
C44 C 0.56759 0.06155 0.01562 0.0
C45 C 0.53583 0.03196 0.06023 0.0
C46 C 0.5471 0.03525 0.99662 0.0
N47 N 0.56123 0.05945 0.04666 0.0
C48 C 0.51447 0.00515 0.04211 0.0
C49 C 0.51962 0.00677 0.00981 0.0
H50 H 0.58787 0.08392 0.00561 0.0
H51 H 0.53104 0.03139 0.085 0.0
C52 C 0.55968 0.1147 0.18276 0.0
N53 N 0.58805 0.10646 0.16784 0.0
C54 C 0.55531 0.11104 0.21478 0.0
C55 C 0.6091 0.09 0.21536 0.0
C56 C 0.61202 0.09362 0.18321 0.0
C57 C 0.58079 0.09919 0.23149 0.0
H58 H 0.54129 0.12506 0.16981 0.0
H59 H 0.63413 0.08711 0.17067 0.0
O60 O 0.60099 0.13818 0.04734 0.0
O61 O 0.61413 0.16311 0.11533 0.0
O62 O 0.5438 0.10218 0.10138 0.0
O63 O 0.62735 0.09846 0.09922 0.0
H64 H 0.63689 0.19928 0.06647 0.0
H65 H 0.59059 0.13869 0.98683 0.0
H66 H 0.65583 0.24782 0.03264 0.0
H67 H 0.61065 0.18838 0.95417 0.0
H68 H 0.68818 0.2071 0.20083 0.0
H69 H 0.61518 0.2234 0.10918 0.0
H70 H 0.6561 0.16076 0.16535 0.0
H71 H 0.64836 0.26866 0.1455 0.0
H72 H 0.49023 0.19646 0.02358 0.0
H73 H 0.50317 0.21687 0.12194 0.0
H74 H 0.75611 0.20105 0.01487 0.0
H75 H 0.77568 0.2135 0.11373 0.0
H76 H 0.48077 0.07528 0.13728 0.0
H77 H 0.51906 0.10248 0.04347 0.0
H78 H 0.41023 0.05392 0.11896 0.0
H79 H 0.44799 0.08065 0.02681 0.0
H80 H 0.64747 0.08221 0.04446 0.0
H81 H 0.68913 0.11057 0.13737 0.0
H82 H 0.71377 0.07957 0.03162 0.0
H83 H 0.7546 0.10727 0.12296 0.0
H84 H 0.55249 0.03729 0.97189 0.0
H85 H 0.49325 0.98384 0.05319 0.0
H86 H 0.5335 0.11878 0.22648 0.0
H87 H 0.62914 0.08066 0.22753 0.0
Li88 Li 0.51395 0.65485 0.58483 0.0
Li89 Li 0.51539 0.62117 0.62942 0.0
Li90 Li 0.50513 0.59953 0.57506 0.0
Li91 Li 0.45376 0.61363 0.60014 0.0
C92 C 0.58705 0.6584 0.58501 0.0
N93 N 0.65357 0.71086 0.56733 0.0
C94 C 0.61276 0.67792 0.60743 0.0
C95 C 0.59524 0.66536 0.55362 0.0
C96 C 0.64623 0.70438 0.59801 0.0
C97 C 0.629 0.69206 0.54514 0.0
C98 C 0.46155 0.6647 0.63732 0.0
C99 C 0.42231 0.67151 0.68037 0.0
N100 N 0.40979 0.69168 0.66283 0.0
C101 C 0.4483 0.68553 0.61977 0.0
C102 C 0.44853 0.65769 0.66792 0.0
C103 C 0.42217 0.69892 0.63306 0.0
C104 C 0.5142 0.70544 0.54638 0.0
N105 N 0.53154 0.69869 0.57211 0.0
C106 C 0.54296 0.75138 0.59285 0.0
C107 C 0.54792 0.72145 0.59432 0.0
C108 C 0.52003 0.75728 0.56875 0.0
C109 C 0.50808 0.73488 0.54417 0.0
H110 H 0.50045 0.68648 0.52964 0.0
H111 H 0.56025 0.71493 0.61505 0.0
C112 C 0.53698 0.59376 0.68328 0.0
N113 N 0.53658 0.62133 0.66936 0.0
C114 C 0.53958 0.59256 0.71554 0.0
C115 C 0.54625 0.6492 0.71759 0.0
C116 C 0.54339 0.64926 0.68548 0.0
C117 C 0.54189 0.62007 0.733 0.0
H118 H 0.53121 0.57187 0.66974 0.0
H119 H 0.54295 0.67076 0.67363 0.0
C120 C 0.44739 0.60455 0.53648 0.0
N121 N 0.39377 0.56417 0.49463 0.0
C122 C 0.42372 0.57274 0.54485 0.0
C123 C 0.44373 0.61577 0.50675 0.0
C124 C 0.39681 0.55272 0.5234 0.0
C125 C 0.41646 0.595 0.48595 0.0
C126 C 0.44934 0.55669 0.63272 0.0
C127 C 0.4293 0.525 0.62199 0.0
C128 C 0.44371 0.56451 0.66333 0.0
C129 C 0.40404 0.5017 0.64206 0.0
C130 C 0.41836 0.5405 0.68272 0.0
N131 N 0.39918 0.50985 0.67177 0.0
C132 C 0.50872 0.5393 0.55868 0.0
C133 C 0.51854 0.57666 0.51715 0.0
C134 C 0.50792 0.51464 0.53818 0.0
N135 N 0.51319 0.56931 0.54777 0.0
C136 C 0.51791 0.55275 0.49581 0.0
C137 C 0.5118 0.52112 0.50625 0.0
H138 H 0.50468 0.53432 0.58322 0.0
H139 H 0.5217 0.60075 0.50922 0.0
C140 C 0.38608 0.62454 0.58181 0.0
N141 N 0.39766 0.60639 0.60252 0.0
C142 C 0.34657 0.62287 0.58083 0.0
C143 C 0.33118 0.58426 0.62301 0.0
C144 C 0.37113 0.58652 0.62303 0.0
C145 C 0.31855 0.60247 0.60156 0.0
H146 H 0.40781 0.6408 0.56625 0.0
H147 H 0.3806 0.57253 0.63953 0.0
O148 O 0.55382 0.63273 0.59375 0.0
O149 O 0.48728 0.65137 0.62471 0.0
O150 O 0.47447 0.62462 0.55692 0.0
O151 O 0.47499 0.57958 0.61353 0.0
H152 H 0.60674 0.6728 0.63182 0.0
H153 H 0.5755 0.65048 0.53603 0.0
H154 H 0.66632 0.71981 0.61508 0.0
H155 H 0.63563 0.69787 0.52094 0.0
H156 H 0.41197 0.66625 0.70401 0.0
H157 H 0.45755 0.69098 0.59598 0.0
H158 H 0.45858 0.64184 0.682 0.0
H159 H 0.41165 0.71501 0.61966 0.0
H160 H 0.55339 0.76825 0.61196 0.0
H161 H 0.49008 0.7382 0.52524 0.0
H162 H 0.53595 0.56965 0.72671 0.0
H163 H 0.54851 0.67096 0.73037 0.0
H164 H 0.42597 0.56355 0.56762 0.0
H165 H 0.46191 0.64021 0.49971 0.0
H166 H 0.37836 0.52807 0.52963 0.0
H167 H 0.4134 0.60339 0.46288 0.0
H168 H 0.43318 0.51839 0.5984 0.0
H169 H 0.4581 0.58897 0.6719 0.0
H170 H 0.38836 0.4771 0.63402 0.0
H171 H 0.41372 0.5463 0.70642 0.0
H172 H 0.50402 0.49074 0.54719 0.0
H173 H 0.52081 0.55868 0.47137 0.0
H174 H 0.33819 0.63784 0.56436 0.0
H175 H 0.31034 0.56823 0.63936 0.0
Li176 Li 0.84551 0.38479 0.09527 0.0
Li177 Li 0.89903 0.3771 0.12708 0.0
Li178 Li 0.9111 0.40438 0.07529 0.0
Li179 Li 0.8771 0.34736 0.07825 0.0
C180 C 0.87479 0.43716 0.12942 0.0
N181 N 0.83693 0.47344 0.15957 0.0
C182 C 0.87274 0.43704 0.16176 0.0
C183 C 0.85801 0.45612 0.11246 0.0
C184 C 0.85338 0.45546 0.17656 0.0
C185 C 0.83885 0.47416 0.12811 0.0
C186 C 0.8106 0.31937 0.11672 0.0
C187 C 0.76516 0.2701 0.14006 0.0
N188 N 0.73889 0.2669 0.11645 0.0
C189 C 0.78321 0.31539 0.09255 0.0
C190 C 0.80166 0.2963 0.14051 0.0
C191 C 0.74712 0.28877 0.09286 0.0
C192 C 0.77658 0.39265 0.0715 0.0
N193 N 0.79513 0.38988 0.0982 0.0
C194 C 0.73862 0.38909 0.12807 0.0
C195 C 0.7771 0.38808 0.12622 0.0
C196 C 0.71853 0.39135 0.10074 0.0
C197 C 0.73813 0.39352 0.07223 0.0
H198 H 0.79104 0.39303 0.04951 0.0
H199 H 0.79228 0.38511 0.14702 0.0
C200 C 0.95442 0.3877 0.1779 0.0
N201 N 0.9157 0.37468 0.16819 0.0
C202 C 0.9638 0.38543 0.20911 0.0
C203 C 0.8934 0.35636 0.21918 0.0
C204 C 0.88543 0.35948 0.18811 0.0
C205 C 0.93297 0.36938 0.23006 0.0
H206 H 0.97783 0.40001 0.16149 0.0
H207 H 0.85487 0.35056 0.17995 0.0
C208 C 0.87015 0.39176 0.02426 0.0
N209 N 0.88996 0.42079 0.96675 0.0
C210 C 0.88507 0.37701 0.00112 0.0
C211 C 0.86518 0.42124 0.01805 0.0
C212 C 0.89487 0.39205 0.97221 0.0
C213 C 0.87546 0.43556 0.98888 0.0
C214 C 0.95088 0.34992 0.08587 0.0
C215 C 0.95643 0.34246 0.05516 0.0
C216 C 0.96328 0.33454 0.10995 0.0
C217 C 0.97394 0.31942 0.04904 0.0
C218 C 0.98073 0.31168 0.10287 0.0
N219 N 0.98562 0.30463 0.07282 0.0
C220 C 0.94652 0.46987 0.05895 0.0
C221 C 0.96785 0.43473 0.02799 0.0
C222 C 0.96569 0.49601 0.03941 0.0
N223 N 0.94687 0.4398 0.0524 0.0
C224 C 0.98743 0.46021 0.00776 0.0
C225 C 0.98558 0.49114 0.01297 0.0
H226 H 0.92995 0.47331 0.07862 0.0
H227 H 0.96775 0.41061 0.02337 0.0
C228 C 0.83439 0.29596 0.03922 0.0
N229 N 0.86158 0.30411 0.06264 0.0
C230 C 0.80724 0.26408 0.03651 0.0
C231 C 0.84001 0.24885 0.07947 0.0
C232 C 0.86618 0.28111 0.08164 0.0
C233 C 0.80809 0.24058 0.05827 0.0
H234 H 0.82985 0.31481 0.02546 0.0
H235 H 0.88664 0.28832 0.10097 0.0
O236 O 0.89327 0.41896 0.1145 0.0
O237 O 0.84611 0.34547 0.11704 0.0
O238 O 0.86099 0.37767 0.05293 0.0
O239 O 0.93374 0.37237 0.09235 0.0
H240 H 0.88597 0.42296 0.17536 0.0
H241 H 0.85908 0.45645 0.08743 0.0
H242 H 0.85146 0.45546 0.20156 0.0
H243 H 0.82539 0.48864 0.11523 0.0
H244 H 0.75789 0.25213 0.15836 0.0
H245 H 0.78995 0.33237 0.07346 0.0
H246 H 0.82273 0.2984 0.15906 0.0
H247 H 0.72575 0.28539 0.07426 0.0
H248 H 0.7242 0.38689 0.15044 0.0
H249 H 0.72361 0.39536 0.05067 0.0
H250 H 0.99461 0.39608 0.21678 0.0
H251 H 0.86859 0.34479 0.23475 0.0
H252 H 0.88959 0.35442 0.0055 0.0
H253 H 0.85423 0.4333 0.03573 0.0
H254 H 0.90663 0.38098 0.95417 0.0
H255 H 0.87212 0.45851 0.98389 0.0
H256 H 0.94696 0.35406 0.03626 0.0
H257 H 0.95918 0.33998 0.13385 0.0
H258 H 0.9782 0.31327 0.02537 0.0
H259 H 0.9903 0.29948 0.12128 0.0
H260 H 0.9635 0.51943 0.04429 0.0
H261 H 0.00319 0.45561 0.98795 0.0
H262 H 0.78292 0.25914 0.02008 0.0
H263 H 0.84219 0.23143 0.09641 0.0
Li264 Li 0.41193 0.89517 0.57088 0.0
Li265 Li 0.40025 0.87532 0.62534 0.0
Li266 Li 0.42293 0.84594 0.58415 0.0
Li267 Li 0.35626 0.84802 0.58336 0.0
C268 C 0.49008 0.90177 0.5916 0.0
N269 N 0.56887 0.92577 0.57212 0.0
C270 C 0.52087 0.91547 0.61298 0.0
C271 C 0.49933 0.9002 0.56033 0.0
C272 C 0.56054 0.92749 0.60267 0.0
C273 C 0.53935 0.91249 0.55093 0.0
C274 C 0.33148 0.89589 0.59199 0.0
C275 C 0.26413 0.89037 0.60605 0.0
N276 N 0.2579 0.89882 0.57673 0.0
C277 C 0.32443 0.90455 0.56203 0.0
C278 C 0.30114 0.88877 0.61423 0.0
C279 C 0.28703 0.90589 0.55476 0.0
C280 C 0.4273 0.93051 0.51562 0.0
N281 N 0.43367 0.9326 0.54666 0.0
C282 C 0.48041 0.98691 0.54211 0.0
C283 C 0.45906 0.9601 0.56023 0.0
C284 C 0.47526 0.98528 0.50981 0.0
C285 C 0.44778 0.95681 0.49662 0.0
H286 H 0.40703 0.90813 0.50561 0.0
H287 H 0.46384 0.96067 0.585 0.0
C288 C 0.43525 0.87736 0.68276 0.0
N289 N 0.40687 0.8856 0.66784 0.0
C290 C 0.43962 0.88102 0.71477 0.0
C291 C 0.38581 0.90205 0.71535 0.0
C292 C 0.38289 0.89842 0.68321 0.0
C293 C 0.41413 0.89287 0.73149 0.0
H294 H 0.45365 0.86701 0.66981 0.0
H295 H 0.36078 0.90493 0.67066 0.0
C296 C 0.38263 0.8266 0.52909 0.0
N297 N 0.36091 0.77182 0.49195 0.0
C298 C 0.36435 0.79565 0.54203 0.0
C299 C 0.38996 0.82964 0.49724 0.0
C300 C 0.35352 0.76828 0.52289 0.0
C301 C 0.37876 0.80166 0.47885 0.0
C302 C 0.36145 0.80329 0.63453 0.0
C303 C 0.36373 0.7727 0.62901 0.0
C304 C 0.34101 0.80786 0.66065 0.0
C305 C 0.34523 0.74718 0.64956 0.0
C306 C 0.32286 0.78172 0.68063 0.0
N307 N 0.32535 0.75219 0.67473 0.0
C308 C 0.46493 0.80752 0.60384 0.0
C309 C 0.47097 0.81813 0.5499 0.0
C310 C 0.48747 0.78765 0.60139 0.0
N311 N 0.45629 0.82153 0.57821 0.0
C312 C 0.49401 0.79866 0.54638 0.0
C313 C 0.50186 0.78254 0.57226 0.0
H314 H 0.45325 0.81107 0.62611 0.0
H315 H 0.46433 0.83014 0.52996 0.0
C316 C 0.28722 0.81829 0.54472 0.0
N317 N 0.30096 0.82373 0.57437 0.0
C318 C 0.24847 0.79648 0.53865 0.0
C319 C 0.23726 0.78965 0.59378 0.0
C320 C 0.27628 0.81106 0.5987 0.0
C321 C 0.22349 0.78072 0.56341 0.0
H322 H 0.30684 0.82974 0.52569 0.0
H323 H 0.28723 0.81683 0.62203 0.0
O324 O 0.45112 0.88989 0.60138 0.0
O325 O 0.36756 0.89358 0.59922 0.0
O326 O 0.39394 0.85387 0.54734 0.0
O327 O 0.38082 0.82894 0.61533 0.0
H328 H 0.51416 0.91681 0.63728 0.0
H329 H 0.47587 0.8896 0.54347 0.0
H330 H 0.58469 0.93819 0.61896 0.0
H331 H 0.54693 0.91146 0.5268 0.0
H332 H 0.24029 0.88471 0.62296 0.0
H333 H 0.34742 0.90981 0.54446 0.0
H334 H 0.30577 0.88144 0.63737 0.0
H335 H 0.28111 0.91243 0.53162 0.0
H336 H 0.50163 0.00822 0.55318 0.0
H337 H 0.44239 0.95476 0.47189 0.0
H338 H 0.46143 0.87329 0.72648 0.0
H339 H 0.36577 0.91138 0.72753 0.0
H340 H 0.35808 0.79277 0.56647 0.0
H341 H 0.40434 0.85337 0.48683 0.0
H342 H 0.33916 0.74423 0.53263 0.0
H343 H 0.3843 0.80368 0.45417 0.0
H344 H 0.37981 0.76866 0.60918 0.0
H345 H 0.33885 0.83127 0.66535 0.0
H346 H 0.34666 0.72339 0.64549 0.0
H347 H 0.30679 0.78493 0.70083 0.0
H348 H 0.49184 0.77523 0.62193 0.0
H349 H 0.50475 0.79564 0.52357 0.0
H350 H 0.23883 0.79094 0.51487 0.0
H351 H 0.21928 0.77849 0.61373 0.0
Li352 Li 0.47972 0.37098 0.12942 0.0
Li353 Li 0.48114 0.33729 0.08484 0.0
Li354 Li 0.54135 0.37849 0.10015 0.0
Li355 Li 0.49 0.39261 0.07507 0.0
C356 C 0.53351 0.32742 0.13733 0.0
N357 N 0.58524 0.3004 0.16285 0.0
C358 C 0.54675 0.30657 0.11978 0.0
C359 C 0.54654 0.33441 0.16794 0.0
C360 C 0.57287 0.29316 0.13308 0.0
C361 C 0.57274 0.32058 0.18039 0.0
C362 C 0.40805 0.33378 0.08501 0.0
C363 C 0.36609 0.30013 0.04514 0.0
N364 N 0.34152 0.28134 0.06733 0.0
C365 C 0.38234 0.31427 0.10743 0.0
C366 C 0.39986 0.32682 0.05362 0.0
C367 C 0.34886 0.28781 0.09801 0.0
C368 C 0.45816 0.39842 0.18328 0.0
N369 N 0.45854 0.37083 0.16936 0.0
C370 C 0.44885 0.34297 0.21759 0.0
C371 C 0.45171 0.34291 0.18548 0.0
C372 C 0.45323 0.3721 0.23301 0.0
C373 C 0.45556 0.39961 0.21554 0.0
H374 H 0.46394 0.42031 0.16974 0.0
H375 H 0.45213 0.32139 0.17364 0.0
C376 C 0.48086 0.28669 0.04639 0.0
N377 N 0.46352 0.29345 0.07212 0.0
C378 C 0.48696 0.25724 0.04418 0.0
C379 C 0.45207 0.24075 0.09286 0.0
C380 C 0.44713 0.27069 0.09433 0.0
C381 C 0.47499 0.23484 0.06877 0.0
H382 H 0.49462 0.30564 0.02965 0.0
H383 H 0.43481 0.27722 0.11505 0.0
C384 C 0.5458 0.43544 0.13273 0.0
N385 N 0.59598 0.48227 0.17178 0.0
C386 C 0.56586 0.46714 0.122 0.0
C387 C 0.55142 0.42762 0.16333 0.0
C388 C 0.59113 0.49043 0.14207 0.0
C389 C 0.57679 0.45162 0.18273 0.0
C390 C 0.54773 0.38756 0.03649 0.0
C391 C 0.57141 0.41937 0.04486 0.0
C392 C 0.55139 0.37634 0.00677 0.0
C393 C 0.59833 0.43938 0.02341 0.0
C394 C 0.57867 0.3971 0.98597 0.0
N395 N 0.60138 0.42793 0.99465 0.0
C396 C 0.60901 0.36754 0.08183 0.0
C397 C 0.62398 0.40557 0.12304 0.0
C398 C 0.64851 0.3692 0.08085 0.0
N399 N 0.59744 0.3857 0.10253 0.0
C400 C 0.66392 0.40782 0.12302 0.0
C401 C 0.67654 0.38959 0.10158 0.0
H402 H 0.58726 0.35128 0.06627 0.0
H403 H 0.61453 0.41957 0.13954 0.0
C404 C 0.48644 0.45286 0.05868 0.0
N405 N 0.48196 0.42284 0.04777 0.0
C406 C 0.48725 0.47751 0.03818 0.0
C407 C 0.47725 0.4394 0.99581 0.0
C408 C 0.47661 0.41549 0.01715 0.0
C409 C 0.48337 0.47104 0.00624 0.0
H410 H 0.49049 0.45784 0.08322 0.0
H411 H 0.47344 0.39139 0.00922 0.0
O412 O 0.5078 0.34076 0.12473 0.0
O413 O 0.44129 0.35944 0.09375 0.0
O414 O 0.52015 0.41256 0.11354 0.0
O415 O 0.52064 0.3675 0.05693 0.0
H416 H 0.5375 0.30112 0.09599 0.0
H417 H 0.5365 0.35028 0.18201 0.0
H418 H 0.58337 0.27706 0.11968 0.0
H419 H 0.58308 0.32584 0.20402 0.0
H420 H 0.35946 0.29432 0.02094 0.0
H421 H 0.38835 0.31938 0.13182 0.0
H422 H 0.41961 0.34169 0.03603 0.0
H423 H 0.32875 0.27239 0.11508 0.0
H424 H 0.44657 0.3212 0.23038 0.0
H425 H 0.45921 0.42253 0.22671 0.0
H426 H 0.50495 0.25391 0.02526 0.0
H427 H 0.44162 0.22388 0.11197 0.0
H428 H 0.56198 0.47375 0.09841 0.0
H429 H 0.53703 0.40316 0.17191 0.0
H430 H 0.60682 0.51502 0.13403 0.0
H431 H 0.58142 0.44582 0.20643 0.0
H432 H 0.56916 0.42857 0.06763 0.0
H433 H 0.5332 0.3519 -0.00028 0.0
H434 H 0.61679 0.46403 0.02965 0.0
H435 H 0.58173 0.38871 0.96289 0.0
H436 H 0.65687 0.35421 0.06438 0.0
H437 H 0.68477 0.42385 0.13937 0.0
H438 H 0.49116 0.50142 0.04718 0.0
H439 H 0.47435 0.43347 0.97137 0.0
Li440 Li 0.09601 0.61487 0.62708 0.0
Li441 Li 0.14954 0.6072 0.59526 0.0
Li442 Li 0.11792 0.64461 0.57825 0.0
Li443 Li 0.08395 0.58759 0.57528 0.0
C444 C 0.18442 0.67262 0.61672 0.0
N445 N 0.25611 0.72511 0.61644 0.0
C446 C 0.21181 0.67661 0.59254 0.0
C447 C 0.19335 0.69569 0.6405 0.0
C448 C 0.24789 0.70325 0.59285 0.0
C449 C 0.22983 0.7219 0.64006 0.0
C450 C 0.1203 0.55483 0.62941 0.0
C451 C 0.15626 0.51784 0.62809 0.0
N452 N 0.15819 0.51857 0.65955 0.0
C453 C 0.12235 0.55495 0.66175 0.0
C454 C 0.13709 0.53587 0.61244 0.0
C455 C 0.14173 0.53655 0.67654 0.0
C456 C 0.04062 0.60424 0.67789 0.0
N457 N 0.07933 0.61727 0.66819 0.0
C458 C 0.10163 0.63561 0.71917 0.0
C459 C 0.1096 0.63249 0.6881 0.0
C460 C 0.06205 0.62257 0.73006 0.0
C461 C 0.03123 0.6065 0.7091 0.0
H462 H 0.01721 0.59192 0.66148 0.0
H463 H 0.14016 0.64142 0.67995 0.0
C464 C 0.21849 0.59936 0.57148 0.0
N465 N 0.19994 0.60213 0.59819 0.0
C466 C 0.25695 0.59851 0.57222 0.0
C467 C 0.25646 0.60295 0.62805 0.0
C468 C 0.21797 0.60394 0.62621 0.0
C469 C 0.27655 0.60069 0.60073 0.0
H470 H 0.20402 0.59898 0.5495 0.0
H471 H 0.20279 0.60691 0.64701 0.0
C472 C 0.04414 0.64202 0.58586 0.0
N473 N 0.00936 0.68729 0.57282 0.0
C474 C 0.03857 0.64948 0.55516 0.0
C475 C 0.03172 0.65739 0.60995 0.0
C476 C 0.02105 0.67251 0.54904 0.0
C477 C 0.01425 0.68024 0.60287 0.0
C478 C 0.12489 0.60023 0.52426 0.0
C479 C 0.10996 0.61497 0.50112 0.0
C480 C 0.12988 0.57075 0.51804 0.0
C481 C 0.10017 0.59993 0.4722 0.0
C482 C 0.1196 0.55643 0.48887 0.0
N483 N 0.10509 0.57119 0.46674 0.0
C484 C 0.1606 0.69603 0.53921 0.0
C485 C 0.1288 0.71085 0.58164 0.0
C486 C 0.18774 0.72791 0.53651 0.0
N487 N 0.13342 0.68786 0.56263 0.0
C488 C 0.15495 0.74312 0.57947 0.0
C489 C 0.18688 0.7514 0.55827 0.0
H490 H 0.16517 0.67718 0.52546 0.0
H491 H 0.10834 0.70363 0.60096 0.0
C492 C 0.04856 0.5221 0.55894 0.0
N493 N 0.0482 0.55216 0.55239 0.0
C494 C 0.02939 0.49595 0.53941 0.0
C495 C 0.00763 0.53174 0.50775 0.0
C496 C 0.02721 0.55723 0.52799 0.0
C497 C 0.00949 0.50082 0.51297 0.0
H498 H 0.06512 0.51866 0.57862 0.0
H499 H 0.0273 0.58135 0.52337 0.0
O500 O 0.14892 0.64651 0.61704 0.0
O501 O 0.1018 0.57302 0.61449 0.0
O502 O 0.06129 0.61958 0.59234 0.0
O503 O 0.13405 0.61432 0.55293 0.0
H504 H 0.20508 0.65964 0.57345 0.0
H505 H 0.17227 0.69358 0.65906 0.0
H506 H 0.26926 0.70663 0.57425 0.0
H507 H 0.2371 0.73988 0.65835 0.0
H508 H 0.16972 0.50337 0.61521 0.0
H509 H 0.10912 0.56902 0.67535 0.0
H510 H 0.13601 0.53554 0.58742 0.0
H511 H 0.14365 0.53655 0.70155 0.0
H512 H 0.12643 0.64718 0.73475 0.0
H513 H 0.00042 0.59584 0.71677 0.0
H514 H 0.27146 0.59667 0.55066 0.0
H515 H 0.27088 0.60516 0.65043 0.0
H516 H 0.04805 0.63789 0.53626 0.0
H517 H 0.03582 0.65195 0.63385 0.0
H518 H 0.01678 0.67866 0.52537 0.0
H519 H 0.00467 0.69243 0.62128 0.0
H520 H 0.10544 0.63756 0.50549 0.0
H521 H 0.14084 0.5587 0.53571 0.0
H522 H 0.08841 0.611 0.45417 0.0
H523 H 0.12296 0.53348 0.48388 0.0
H524 H 0.21206 0.73286 0.52008 0.0
H525 H 0.15276 0.76054 0.5964 0.0
H526 H 0.03158 0.47253 0.54428 0.0
H527 H 0.99187 0.53633 0.48795 0.0
Li528 Li 0.85814 0.37871 0.39516 0.0
Li529 Li 0.92157 0.39355 0.42122 0.0
Li530 Li 0.91392 0.37073 0.36719 0.0
Li531 Li 0.882 0.33786 0.41215 0.0
C532 C 0.90485 0.4345 0.36129 0.0
N533 N 0.89662 0.47922 0.31947 0.0
C534 C 0.91363 0.46685 0.37021 0.0
C535 C 0.89155 0.42488 0.33113 0.0
C536 C 0.90927 0.48908 0.34875 0.0
C537 C 0.88777 0.44786 0.31029 0.0
C538 C 0.85793 0.38873 0.45836 0.0
C539 C 0.83211 0.39851 0.50748 0.0
N540 N 0.83789 0.42944 0.49841 0.0
C541 C 0.86358 0.42065 0.44956 0.0
C542 C 0.84205 0.37758 0.48758 0.0
C543 C 0.85329 0.44083 0.47011 0.0
C544 C 0.78016 0.36799 0.41187 0.0
N545 N 0.80879 0.38642 0.39193 0.0
C546 C 0.76444 0.41171 0.37275 0.0
C547 C 0.80156 0.40798 0.37247 0.0
C548 C 0.7348 0.39335 0.39352 0.0
C549 C 0.74291 0.37114 0.41314 0.0
H550 H 0.78635 0.35078 0.42693 0.0
H551 H 0.82429 0.42255 0.35685 0.0
C552 C 0.97675 0.45472 0.43793 0.0
N553 N 0.95511 0.42455 0.44878 0.0
C554 C 0.9954 0.48 0.45858 0.0
C555 C 0.97052 0.44217 0.50103 0.0
C556 C 0.95242 0.41764 0.47954 0.0
C557 C 0.99162 0.47399 0.49061 0.0
H558 H 0.97836 0.45937 0.41329 0.0
H559 H 0.93459 0.39343 0.48743 0.0
C560 C 0.82158 0.32566 0.35924 0.0
N561 N 0.74649 0.29502 0.3337 0.0
C562 C 0.79028 0.30503 0.37731 0.0
C563 C 0.81462 0.33066 0.32813 0.0
C564 C 0.75259 0.28974 0.364 0.0
C565 C 0.77644 0.31501 0.31568 0.0
C566 C 0.95261 0.33516 0.41342 0.0
C567 C 0.96216 0.31558 0.39171 0.0
C568 C 0.95405 0.32885 0.44502 0.0
C569 C 0.9727 0.28969 0.40205 0.0
C570 C 0.9647 0.30271 0.45442 0.0
N571 N 0.97371 0.28383 0.43291 0.0
C572 C 0.95912 0.39661 0.31235 0.0
C573 C 0.91776 0.34068 0.31234 0.0
C574 C 0.96216 0.39647 0.28006 0.0
N575 N 0.93518 0.3694 0.32737 0.0
C576 C 0.92017 0.33938 0.28024 0.0
C577 C 0.9405 0.36801 0.26364 0.0
H578 H 0.9724 0.41917 0.32499 0.0
H579 H 0.89897 0.31948 0.32501 0.0
C580 C 0.83768 0.28729 0.45136 0.0
N581 N 0.86127 0.29414 0.42574 0.0
C582 C 0.80684 0.25704 0.45421 0.0
C583 C 0.82913 0.24026 0.40653 0.0
C584 C 0.85912 0.27097 0.40436 0.0
C585 C 0.8006 0.23393 0.43041 0.0
H586 H 0.83944 0.30649 0.46748 0.0
H587 H 0.87742 0.27746 0.38372 0.0
O588 O 0.90983 0.4126 0.3819 0.0
O589 O 0.86814 0.36844 0.43879 0.0
O590 O 0.85893 0.34052 0.37178 0.0
O591 O 0.94166 0.36029 0.40378 0.0
H592 H 0.92364 0.47477 0.39349 0.0
H593 H 0.88348 0.39986 0.32402 0.0
H594 H 0.91598 0.51418 0.35536 0.0
H595 H 0.87751 0.4407 0.28691 0.0
H596 H 0.81984 0.39017 0.53016 0.0
H597 H 0.87578 0.42984 0.42717 0.0
H598 H 0.83758 0.35304 0.49492 0.0
H599 H 0.85756 0.46557 0.46356 0.0
H600 H 0.75922 0.42917 0.35732 0.0
H601 H 0.72053 0.35612 0.42913 0.0
H602 H 0.01219 0.50403 0.44961 0.0
H603 H 0.96674 0.43655 0.52551 0.0
H604 H 0.79481 0.30108 0.40147 0.0
H605 H 0.83842 0.34633 0.31366 0.0
H606 H 0.72821 0.27372 0.37779 0.0
H607 H 0.77066 0.31869 0.29164 0.0
H608 H 0.96117 0.32021 0.36716 0.0
H609 H 0.94663 0.34379 0.46207 0.0
H610 H 0.98 0.27422 0.38552 0.0
H611 H 0.96574 0.2974 0.47879 0.0
H612 H 0.97803 0.41904 0.26804 0.0
H613 H 0.90361 0.31687 0.26836 0.0
H614 H 0.78553 0.25342 0.47292 0.0
H615 H 0.82587 0.22292 0.388 0.0
Li616 Li 0.41612 0.87396 0.87136 0.0
Li617 Li 0.42996 0.89176 0.92629 0.0
Li618 Li 0.43407 0.84193 0.91033 0.0
Li619 Li 0.36919 0.84677 0.91371 0.0
C620 C 0.504 0.88403 0.89439 0.0
N621 N 0.57803 0.87768 0.89463 0.0
C622 C 0.52739 0.8909 0.92123 0.0
C623 C 0.51834 0.87407 0.86762 0.0
C624 C 0.56471 0.8875 0.9209 0.0
C625 C 0.55583 0.87099 0.86822 0.0
C626 C 0.36186 0.90728 0.91381 0.0
C627 C 0.33255 0.91934 0.96032 0.0
N628 N 0.31529 0.9367 0.94326 0.0
C629 C 0.34383 0.92521 0.89674 0.0
C630 C 0.35619 0.90428 0.94587 0.0
C631 C 0.3204 0.93992 0.91205 0.0
C632 C 0.38116 0.87452 0.81442 0.0
N633 N 0.417 0.88556 0.82928 0.0
C634 C 0.45145 0.9052 0.78185 0.0
C635 C 0.45175 0.90146 0.81396 0.0
C636 C 0.41498 0.89293 0.76572 0.0
C637 C 0.3794 0.87814 0.78245 0.0
H638 H 0.35412 0.86177 0.82734 0.0
H639 H 0.47975 0.91026 0.8265 0.0
C640 C 0.4674 0.92128 0.98011 0.0
N641 N 0.45398 0.92734 0.95224 0.0
C642 C 0.48875 0.94695 -0.00056 0.0
C643 C 0.48101 0.9845 0.96124 0.0
C644 C 0.46002 0.95805 0.94253 0.0
C645 C 0.4961 0.97909 0.98996 0.0
H646 H 0.46248 0.89649 0.98686 0.0
H647 H 0.44901 0.96193 0.92011 0.0
C648 C 0.38648 0.80156 0.86096 0.0
N649 N 0.3786 0.74971 0.82207 0.0
C650 C 0.35888 0.77053 0.86781 0.0
C651 C 0.40948 0.80626 0.83397 0.0
C652 C 0.35557 0.74461 0.84799 0.0
C653 C 0.40519 0.77974 0.8147 0.0
C654 C 0.39106 0.82346 0.96707 0.0
C655 C 0.37852 0.79198 0.95489 0.0
C656 C 0.38638 0.82788 -0.00132 0.0
C657 C 0.36153 0.76537 0.97455 0.0
C658 C 0.36919 0.80064 0.01761 0.0
N659 N 0.35722 0.77021 0.00525 0.0
C660 C 0.47567 0.81071 0.9471 0.0
C661 C 0.47512 0.79985 0.8934 0.0
C662 C 0.4953 0.78911 0.95325 0.0
N663 N 0.46446 0.81456 0.91767 0.0
C664 C 0.49536 0.77864 0.89837 0.0
C665 C 0.50435 0.772 0.92873 0.0
H666 H 0.46854 0.82381 0.96596 0.0
H667 H 0.46772 0.80435 0.87012 0.0
C668 C 0.29256 0.81099 0.89524 0.0
N669 N 0.31379 0.82476 0.92089 0.0
C670 C 0.25263 0.79065 0.89775 0.0
C671 C 0.25622 0.80064 0.95294 0.0
C672 C 0.29636 0.8208 0.94933 0.0
C673 C 0.23408 0.78456 0.927 0.0
H674 H 0.30726 0.81472 0.87292 0.0
H675 H 0.31387 0.83236 0.96934 0.0
O676 O 0.46698 0.88648 0.89451 0.0
O677 O 0.38476 0.89271 0.89904 0.0
O678 O 0.38965 0.82739 0.87984 0.0
O679 O 0.40709 0.85 0.94822 0.0
H680 H 0.51669 0.89843 0.94219 0.0
H681 H 0.50041 0.86811 0.84678 0.0
H682 H 0.58303 0.89257 0.94156 0.0
H683 H 0.56716 0.86306 0.84774 0.0
H684 H 0.3279 0.91721 0.9851 0.0
H685 H 0.34791 0.92771 0.87189 0.0
H686 H 0.36983 0.89048 0.9595 0.0
H687 H 0.30627 0.95388 0.89912 0.0
H688 H 0.47944 0.91692 0.76967 0.0
H689 H 0.35078 0.86804 0.77076 0.0
H690 H 0.50026 0.9417 0.02118 0.0
H691 H 0.48542 0.00888 0.9533 0.0
H692 H 0.34002 0.76645 0.88813 0.0
H693 H 0.43097 0.83 0.82819 0.0
H694 H 0.33472 0.72042 0.85321 0.0
H695 H 0.4231 0.78302 0.79392 0.0
H696 H 0.38221 0.78815 0.93061 0.0
H697 H 0.39569 0.85212 0.00844 0.0
H698 H 0.3518 0.74087 0.9654 0.0
H699 H 0.3653 0.8037 0.04211 0.0
H700 H 0.50232 0.7852 0.97697 0.0
H701 H 0.5018 0.76623 0.87862 0.0
H702 H 0.23732 0.77831 0.87714 0.0
H703 H 0.24309 0.79679 0.97587 0.0
Li704 Li 0.51446 0.41078 0.42125 0.0
Li705 Li 0.49955 0.35425 0.41746 0.0
Li706 Li 0.56389 0.39292 0.40115 0.0
Li707 Li 0.5038 0.3847 0.36916 0.0
C708 C 0.54458 0.3986 0.47203 0.0
N709 N 0.54938 0.42758 0.52945 0.0
C710 C 0.51628 0.3837 0.49493 0.0
C711 C 0.57549 0.42815 0.47846 0.0
C712 C 0.51922 0.39873 0.5238 0.0
C713 C 0.57732 0.44245 0.50757 0.0
C714 C 0.42747 0.35503 0.40953 0.0
C715 C 0.36477 0.31581 0.39165 0.0
N716 N 0.35344 0.30782 0.42154 0.0
C717 C 0.4151 0.34656 0.44006 0.0
C718 C 0.40205 0.33964 0.38511 0.0
C719 C 0.37762 0.32258 0.44565 0.0
C720 C 0.53476 0.47559 0.43937 0.0
N721 N 0.50808 0.44504 0.44455 0.0
C722 C 0.48079 0.46344 0.4879 0.0
C723 C 0.48061 0.4387 0.46768 0.0
C724 C 0.50932 0.49494 0.48398 0.0
C725 C 0.53597 0.50105 0.45894 0.0
H726 H 0.55609 0.47999 0.42072 0.0
H727 H 0.45966 0.41421 0.47121 0.0
C728 C 0.49659 0.30234 0.45592 0.0
N729 N 0.47747 0.31073 0.43209 0.0
C730 C 0.4971 0.27088 0.45765 0.0
C731 C 0.45376 0.25633 0.41286 0.0
C732 C 0.45454 0.28816 0.41172 0.0
C733 C 0.4779 0.24816 0.4345 0.0
H734 H 0.51623 0.32098 0.47083 0.0
H735 H 0.44123 0.29569 0.39214 0.0
C736 C 0.58017 0.44572 0.36784 0.0
N737 N 0.65009 0.48348 0.33836 0.0
C738 C 0.58227 0.44655 0.3355 0.0
C739 C 0.61352 0.46453 0.38515 0.0
C740 C 0.61791 0.46569 0.32104 0.0
C741 C 0.64863 0.48332 0.36983 0.0
C742 C 0.54429 0.32879 0.3788 0.0
C743 C 0.56677 0.32469 0.40388 0.0
C744 C 0.53715 0.30748 0.35361 0.0
C745 C 0.58235 0.29983 0.40308 0.0
C746 C 0.55344 0.28304 0.35359 0.0
N747 N 0.57552 0.27976 0.37811 0.0
C748 C 0.63977 0.39992 0.42469 0.0
C749 C 0.63493 0.39684 0.36989 0.0
C750 C 0.67833 0.39929 0.42359 0.0
N751 N 0.61886 0.3984 0.39812 0.0
C752 C 0.67366 0.39646 0.36769 0.0
C753 C 0.69543 0.39703 0.39485 0.0
H754 H 0.62584 0.40011 0.44682 0.0
H755 H 0.61713 0.39476 0.34921 0.0
C756 C 0.45638 0.3933 0.31828 0.0
N757 N 0.48543 0.38237 0.32804 0.0
C758 C 0.4447 0.39006 0.28712 0.0
C759 C 0.4932 0.36463 0.2772 0.0
C760 C 0.50417 0.36871 0.30818 0.0
C761 C 0.46296 0.37515 0.26636 0.0
H762 H 0.44236 0.40444 0.33465 0.0
H763 H 0.52829 0.3616 0.31638 0.0
O764 O 0.54175 0.38459 0.44337 0.0
O765 O 0.46412 0.37839 0.40357 0.0
O766 O 0.54559 0.42683 0.38242 0.0
O767 O 0.52954 0.35356 0.37874 0.0
H768 H 0.49196 0.361 0.4904 0.0
H769 H 0.59745 0.44023 0.46099 0.0
H770 H 0.49738 0.38756 0.54165 0.0
H771 H 0.60085 0.46546 0.51272 0.0
H772 H 0.34488 0.3036 0.37297 0.0
H773 H 0.43439 0.35806 0.45922 0.0
H774 H 0.41111 0.34575 0.36134 0.0
H775 H 0.36779 0.31565 0.46917 0.0
H776 H 0.45921 0.45788 0.50661 0.0
H777 H 0.5585 0.52496 0.45516 0.0
H778 H 0.51652 0.26588 0.47451 0.0
H779 H 0.43805 0.23942 0.39486 0.0
H780 H 0.5567 0.43267 0.32165 0.0
H781 H 0.61259 0.4642 0.41018 0.0
H782 H 0.61996 0.46641 0.29603 0.0
H783 H 0.67475 0.49769 0.38298 0.0
H784 H 0.57198 0.34037 0.4239 0.0
H785 H 0.51911 0.30962 0.33425 0.0
H786 H 0.59979 0.29646 0.42233 0.0
H787 H 0.54825 0.26649 0.33419 0.0
H788 H 0.69431 0.39987 0.44502 0.0
H789 H 0.68573 0.39429 0.34515 0.0
H790 H 0.42164 0.39884 0.27938 0.0
H791 H 0.50898 0.35408 0.26167 0.0
Li792 Li 0.07347 0.59841 0.92121 0.0
Li793 Li 0.13691 0.61327 0.89515 0.0
Li794 Li 0.11301 0.6541 0.91214 0.0
Li795 Li 0.08111 0.62123 0.86718 0.0
C796 C 0.13713 0.60326 0.95835 0.0
N797 N 0.1572 0.56256 -0.00159 0.0
C798 C 0.13149 0.57134 0.94956 0.0
C799 C 0.15301 0.61442 0.98757 0.0
C800 C 0.14181 0.55117 0.97011 0.0
C801 C 0.16296 0.59349 0.00747 0.0
C802 C 0.09021 0.55747 0.86129 0.0
C803 C 0.1073 0.5441 0.8103 0.0
N804 N 0.09847 0.51275 0.81947 0.0
C805 C 0.08145 0.52512 0.87022 0.0
C806 C 0.10351 0.56708 0.83113 0.0
C807 C 0.08583 0.50289 0.84875 0.0
C808 C 0.01832 0.53722 0.93793 0.0
N809 N 0.03994 0.5674 0.94877 0.0
C810 C 0.02455 0.54978 0.00103 0.0
C811 C 0.04264 0.57431 0.97954 0.0
C812 C 0.00345 0.51796 0.99061 0.0
C813 C -0.00033 0.51195 0.95859 0.0
H814 H 0.0167 0.53257 0.91329 0.0
H815 H 0.06047 0.59853 0.98742 0.0
C816 C 0.21489 0.62402 0.91186 0.0
N817 N 0.18627 0.60559 0.89193 0.0
C818 C 0.25216 0.62089 0.91313 0.0
C819 C 0.23064 0.58032 0.87275 0.0
C820 C 0.19351 0.58403 0.87246 0.0
C821 C 0.26028 0.59869 0.89351 0.0
H822 H 0.20869 0.64123 0.92692 0.0
H823 H 0.17079 0.56945 0.85684 0.0
C824 C 0.04238 0.65677 0.91341 0.0
N825 N 0.02125 0.70808 0.93291 0.0
C826 C 0.03282 0.67634 0.89171 0.0
C827 C 0.04095 0.66308 0.94502 0.0
C828 C 0.02226 0.70222 0.90204 0.0
C829 C 0.03027 0.68921 0.95441 0.0
C830 C 0.17343 0.66632 0.85923 0.0
C831 C 0.20472 0.68697 0.8773 0.0
C832 C 0.18039 0.66132 0.82812 0.0
C833 C 0.24241 0.70226 0.86398 0.0
C834 C 0.21857 0.67698 0.81566 0.0
N835 N 0.24851 0.69698 0.83369 0.0
C836 C 0.15731 0.70468 0.95135 0.0
C837 C 0.13585 0.72099 0.90435 0.0
C838 C 0.18813 0.73494 0.9542 0.0
N839 N 0.13372 0.69782 0.92573 0.0
C840 C 0.16582 0.75171 0.90652 0.0
C841 C 0.19436 0.75804 0.93039 0.0
H842 H 0.15557 0.68549 0.96747 0.0
H843 H 0.11755 0.71449 0.88371 0.0
C844 C 0.03591 0.59533 0.81234 0.0
N845 N 0.05984 0.62254 0.82736 0.0
C846 C 0.03287 0.59547 0.78005 0.0
C847 C 0.07483 0.65256 0.78023 0.0
C848 C 0.07724 0.65126 0.81233 0.0
C849 C 0.05452 0.62393 0.76363 0.0
H850 H 0.02265 0.57277 0.82498 0.0
H851 H 0.09601 0.67246 0.82501 0.0
O852 O 0.1269 0.62353 0.93878 0.0
O853 O 0.08523 0.57936 0.88189 0.0
O854 O 0.05336 0.63165 0.90377 0.0
O855 O 0.13608 0.65145 0.87177 0.0
H856 H 0.1193 0.56215 0.92716 0.0
H857 H 0.15746 0.63895 0.99491 0.0
H858 H 0.13755 0.52644 0.96355 0.0
H859 H 0.17523 0.60184 0.03015 0.0
H860 H 0.11756 0.55126 0.78691 0.0
H861 H 0.07144 0.5172 0.8935 0.0
H862 H 0.11156 0.5921 0.82402 0.0
H863 H 0.07913 0.47779 0.85537 0.0
H864 H 0.02832 0.55541 0.02551 0.0
H865 H 0.98288 0.48792 0.94961 0.0
H866 H 0.27453 0.63593 0.92912 0.0
H867 H 0.23587 0.56287 0.85732 0.0
H868 H 0.03381 0.67171 0.86715 0.0
H869 H 0.04837 0.64815 0.96206 0.0
H870 H 0.01494 0.71768 0.88552 0.0
H871 H 0.02923 0.69452 0.97879 0.0
H872 H 0.2002 0.69092 0.90146 0.0
H873 H 0.1566 0.64564 0.81365 0.0
H874 H 0.26679 0.71829 0.87777 0.0
H875 H 0.22434 0.6733 0.79163 0.0
H876 H 0.20945 0.73857 0.97291 0.0
H877 H 0.16907 0.76905 0.88799 0.0
H878 H 0.01702 0.5729 0.76803 0.0
H879 H 0.09138 0.67508 0.76836 0.0
Li880 Li 0.56088 0.15013 0.41034 0.0
Li881 Li 0.62574 0.14526 0.41372 0.0
Li882 Li 0.5788 0.11809 0.37136 0.0
Li883 Li 0.56495 0.1003 0.42629 0.0
C884 C 0.60849 0.1905 0.36097 0.0
N885 N 0.61641 0.24236 0.32209 0.0
C886 C 0.6361 0.22152 0.36782 0.0
C887 C 0.58549 0.18581 0.33397 0.0
C888 C 0.63942 0.24745 0.34801 0.0
C889 C 0.5898 0.21233 0.31471 0.0
C890 C 0.60388 0.16858 0.46708 0.0
C891 C 0.62576 0.19139 0.51762 0.0
N892 N 0.63775 0.22182 0.50526 0.0
C893 C 0.61644 0.20006 0.4549 0.0
C894 C 0.60855 0.16416 0.49869 0.0
C895 C 0.63345 0.22667 0.47457 0.0
C896 C 0.5193 0.18138 0.44711 0.0
N897 N 0.5305 0.17753 0.41767 0.0
C898 C 0.49964 0.21347 0.39837 0.0
C899 C 0.51986 0.19224 0.3934 0.0
C900 C 0.49065 0.22011 0.42873 0.0
C901 C 0.49969 0.20299 0.45326 0.0
H902 H 0.52642 0.16827 0.46596 0.0
H903 H 0.52725 0.18774 0.37013 0.0
C904 C 0.70238 0.18102 0.39525 0.0
N905 N 0.68114 0.16726 0.4209 0.0
C906 C 0.74232 0.20135 0.39776 0.0
C907 C 0.73872 0.19136 0.45295 0.0
C908 C 0.69857 0.17121 0.44934 0.0
C909 C 0.76086 0.20743 0.42701 0.0
H910 H 0.68768 0.1773 0.37293 0.0
H911 H 0.68106 0.15966 0.46935 0.0
C912 C 0.49093 0.10806 0.39438 0.0
N913 N 0.41692 0.11444 0.39461 0.0
C914 C 0.46753 0.1012 0.42122 0.0
C915 C 0.4766 0.11803 0.36761 0.0
C916 C 0.43023 0.10462 0.42089 0.0
C917 C 0.43912 0.12113 0.36821 0.0
C918 C 0.63303 0.08474 0.41382 0.0
C919 C 0.65104 0.0668 0.39674 0.0
C920 C 0.6387 0.08774 0.44588 0.0
C921 C 0.67446 0.05208 0.41205 0.0
C922 C 0.66233 0.07267 0.46032 0.0
N923 N 0.67957 0.0553 0.44326 0.0
C924 C 0.61376 0.11753 0.31443 0.0
C925 C 0.54317 0.0906 0.31396 0.0
C926 C 0.61552 0.1139 0.28245 0.0
N927 N 0.57792 0.10649 0.32929 0.0
C928 C 0.54346 0.08687 0.28185 0.0
C929 C 0.57994 0.09913 0.26573 0.0
H930 H 0.6408 0.13027 0.32735 0.0
H931 H 0.51517 0.08181 0.3265 0.0
C932 C 0.52749 0.07077 0.4801 0.0
N933 N 0.54091 0.06471 0.45224 0.0
C934 C 0.50613 0.0451 0.49944 0.0
C935 C 0.51387 0.00755 0.46124 0.0
C936 C 0.53487 0.034 0.44253 0.0
C937 C 0.49878 0.01297 0.48995 0.0
H938 H 0.53241 0.09556 0.48685 0.0
H939 H 0.54589 0.03012 0.42011 0.0
O940 O 0.6053 0.16466 0.37984 0.0
O941 O 0.58785 0.14205 0.44823 0.0
O942 O 0.52795 0.10559 0.39451 0.0
O943 O 0.61015 0.09933 0.39905 0.0
H944 H 0.65496 0.22559 0.38814 0.0
H945 H 0.56399 0.16207 0.32819 0.0
H946 H 0.66029 0.27163 0.35323 0.0
H947 H 0.57189 0.20906 0.29392 0.0
H948 H 0.62964 0.18832 0.54212 0.0
H949 H 0.61276 0.2039 0.43062 0.0
H950 H 0.59923 0.13992 0.50845 0.0
H951 H 0.6432 0.25117 0.46542 0.0
H952 H 0.49321 0.22588 0.37862 0.0
H953 H 0.49267 0.20691 0.47697 0.0
H954 H 0.75763 0.21368 0.37715 0.0
H955 H 0.75185 0.1952 0.47589 0.0
H956 H 0.47823 0.09366 0.44218 0.0
H957 H 0.49454 0.12398 0.34677 0.0
H958 H 0.41191 0.09955 0.44155 0.0
H959 H 0.42781 0.12906 0.34773 0.0
H960 H 0.64697 0.06431 0.37189 0.0
H961 H 0.62507 0.10155 0.45951 0.0
H962 H 0.68858 0.03812 0.39913 0.0
H963 H 0.66698 0.0748 0.48511 0.0
H964 H 0.64414 0.12399 0.27076 0.0
H965 H 0.51548 0.07515 0.26967 0.0
H966 H 0.49462 0.05036 0.52117 0.0
H967 H 0.50946 0.98318 0.4533 0.0
Li968 Li 0.49555 0.63789 0.91745 0.0
Li969 Li 0.48068 0.58136 0.92124 0.0
Li970 Li 0.49132 0.60745 0.86915 0.0
Li971 Li 0.43123 0.5992 0.90114 0.0
C972 C 0.56764 0.63714 0.90953 0.0
N973 N 0.64165 0.68436 0.92154 0.0
C974 C 0.58001 0.64561 0.94006 0.0
C975 C 0.59306 0.65254 0.88511 0.0
C976 C 0.61748 0.6696 0.94565 0.0
C977 C 0.63033 0.67638 0.89166 0.0
C978 C 0.45053 0.59352 0.97202 0.0
C979 C 0.41782 0.54966 0.00756 0.0
N980 N 0.44575 0.56454 0.02944 0.0
C981 C 0.47883 0.60842 0.99493 0.0
C982 C 0.41964 0.56397 0.97845 0.0
C983 C 0.4759 0.59339 0.02379 0.0
C984 C 0.49848 0.68978 0.95593 0.0
N985 N 0.51761 0.68141 0.93209 0.0
C986 C 0.54127 0.7358 0.91286 0.0
C987 C 0.54052 0.70398 0.91172 0.0
C988 C 0.51712 0.74395 0.9345 0.0
C989 C 0.49794 0.72124 0.95765 0.0
H990 H 0.47884 0.67113 0.97083 0.0
H991 H 0.55384 0.69646 0.89214 0.0
C992 C 0.4604 0.51655 0.93936 0.0
N993 N 0.48707 0.5471 0.94454 0.0
C994 C 0.45919 0.49109 0.95893 0.0
C995 C 0.51437 0.52872 0.98789 0.0
C996 C 0.51455 0.55345 0.96767 0.0
C997 C 0.48585 0.49721 0.98398 0.0
H998 H 0.43907 0.51215 0.92071 0.0
H999 H 0.53549 0.57794 0.9712 0.0
C1000 C 0.45078 0.66333 0.8788 0.0
N1001 N 0.4195 0.71232 0.87811 0.0
C1002 C 0.4283 0.66742 0.90387 0.0
C1003 C 0.4579 0.68464 0.85361 0.0
C1004 C 0.4127 0.69226 0.90307 0.0
C1005 C 0.44159 0.70906 0.85359 0.0
C1006 C 0.41497 0.5464 0.86783 0.0
C1007 C 0.41287 0.54557 0.83549 0.0
C1008 C 0.38163 0.52758 0.88514 0.0
C1009 C 0.37725 0.52643 0.82102 0.0
C1010 C 0.34652 0.50878 0.86982 0.0
N1011 N 0.34506 0.50862 0.83834 0.0
C1012 C 0.53875 0.59887 0.81828 0.0
C1013 C 0.49094 0.62343 0.80818 0.0
C1014 C 0.55044 0.60212 0.78712 0.0
N1015 N 0.50969 0.60979 0.82803 0.0
C1016 C 0.5019 0.62752 0.77719 0.0
C1017 C 0.53216 0.61701 0.76636 0.0
H1018 H 0.55279 0.58774 0.83465 0.0
H1019 H 0.46681 0.63053 0.81638 0.0
C1020 C 0.35534 0.59216 0.92469 0.0
N1021 N 0.37624 0.59369 0.89811 0.0
C1022 C 0.31676 0.59278 0.92358 0.0
C1023 C 0.32143 0.59561 0.86768 0.0
C1024 C 0.36017 0.59524 0.86989 0.0
C1025 C 0.29966 0.59503 0.89485 0.0
H1026 H 0.36926 0.59199 0.94682 0.0
H1027 H 0.37797 0.59733 0.84921 0.0
O1028 O 0.531 0.61376 0.90357 0.0
O1029 O 0.45336 0.60753 0.94336 0.0
O1030 O 0.46556 0.63857 0.87874 0.0
O1031 O 0.44954 0.56531 0.88242 0.0
H1032 H 0.56072 0.63409 0.95922 0.0
H1033 H 0.584 0.64643 0.86134 0.0
H1034 H 0.6273 0.67652 0.96917 0.0
H1035 H 0.65021 0.6886 0.87298 0.0
H1036 H 0.39429 0.52665 0.01271 0.0
H1037 H 0.50314 0.63114 0.9904 0.0
H1038 H 0.39768 0.55188 0.96098 0.0
H1039 H 0.49774 0.60457 0.04164 0.0
H1040 H 0.55697 0.75272 0.89486 0.0
H1041 H 0.47851 0.72623 0.97451 0.0
H1042 H 0.43667 0.46719 0.95515 0.0
H1043 H 0.53595 0.53428 0.00661 0.0
H1044 H 0.4231 0.65173 0.9239 0.0
H1045 H 0.47594 0.6825 0.83425 0.0
H1046 H 0.39525 0.69562 0.92233 0.0
H1047 H 0.44677 0.72561 0.83419 0.0
H1048 H 0.43844 0.55946 0.82164 0.0
H1049 H 0.38256 0.52791 0.91016 0.0
H1050 H 0.3752 0.5257 0.79602 0.0
H1051 H 0.3204 0.4944 0.88296 0.0
H1052 H 0.5735 0.59335 0.77938 0.0
H1053 H 0.48611 0.63806 0.76167 0.0
H1054 H 0.30078 0.59219 0.94501 0.0
H1055 H 0.30935 0.59777 0.84514 0.0
loop_
_geom_bond_atom_site_label_1
_geom_bond_atom_site_label_2
_geom_bond_distance
_geom_bond_site_symmetry_2
_ccdc_geom_bond_type
Li0 N17 1.990 . S
Li0 O60 1.956 . S
Li0 O61 1.970 . S
Li0 O62 1.961 . S
Li1 N25 1.990 . S
Li1 O60 1.970 . S
Li1 O61 1.956 . S
Li1 O63 1.961 . S
Li2 N47 1.990 . S
Li2 O60 1.961 . S
Li2 O62 1.956 . S
Li2 O63 1.970 . S
Li3 N53 1.990 . S
Li3 O61 1.961 . S
Li3 O62 1.970 . S
Li3 O63 1.956 . S
C4 C6 1.348 . S
C4 C7 1.356 1_554 S
C4 O60 1.325 . S
N5 C8 1.314 . S
N5 C9 1.279 . S
C6 C4 1.348 . S
C6 C8 1.353 1_554 S
C6 H64 0.929 . S
C7 C4 1.356 1_556 S
C7 C9 1.358 . S
C7 H65 0.930 1_556 S
C8 N5 1.314 . S
C8 C6 1.353 1_556 S
C8 H66 0.930 . S
C9 N5 1.279 . S
C9 C7 1.358 . S
C9 H67 0.930 . S
C10 C13 1.348 . S
C10 C14 1.356 . S
C10 O61 1.325 . S
C11 N12 1.279 . S
C11 C14 1.358 . S
C11 H68 0.930 . S
N12 C11 1.279 . S
N12 C15 1.314 . S
C13 C10 1.348 . S
C13 C15 1.353 . S
C13 H69 0.929 . S
C14 C10 1.356 . S
C14 C11 1.358 . S
C14 H70 0.930 . S
C15 N12 1.314 . S
C15 C13 1.353 . S
C15 H71 0.930 . S
C16 N17 1.314 . S
C16 C21 1.353 . S
C16 H22 0.930 . S
N17 Li0 1.990 . S
N17 C16 1.314 . S
N17 C19 1.279 . S
C18 C19 1.358 . S
C18 C20 1.356 . S
C18 H72 0.930 . S
C19 N17 1.279 . S
C19 C18 1.358 . S
C19 H23 0.930 . S
C20 C18 1.356 . S
C20 C21 1.348 . S
C21 C16 1.353 . S
C21 C20 1.348 . S
C21 H73 0.929 . S
H22 C16 0.930 . S
H23 C19 0.930 . S
C24 N25 1.314 . S
C24 C26 1.353 . S
C24 H30 0.930 . S
N25 Li1 1.990 . S
N25 C24 1.314 . S
N25 C28 1.279 . S
C26 C24 1.353 . S
C26 C29 1.348 . S
C26 H74 0.929 . S
C27 C28 1.358 . S
C27 C29 1.356 . S
C27 H75 0.930 . S
C28 N25 1.279 . S
C28 C27 1.358 . S
C28 H31 0.930 . S
C29 C26 1.348 . S
C29 C27 1.356 . S
H30 C24 0.930 . S
H31 C28 0.930 . S
C32 C34 1.348 . S
C32 C35 1.356 . S
C32 O62 1.325 . S
N33 C36 1.314 . S
N33 C37 1.279 . S
C34 C32 1.348 . S
C34 C36 1.353 . S
C34 H76 0.929 . S
C35 C32 1.356 . S
C35 C37 1.358 . S
C35 H77 0.930 . S
C36 N33 1.314 . S
C36 C34 1.353 . S
C36 H78 0.930 . S
C37 N33 1.279 . S
C37 C35 1.358 . S
C37 H79 0.930 . S
C38 C39 1.348 . S
C38 C40 1.356 . S
C38 O63 1.325 . S
C39 C38 1.348 . S
C39 C41 1.353 . S
C39 H80 0.929 . S
C40 C38 1.356 . S
C40 C42 1.358 . S
C40 H81 0.930 . S
C41 C39 1.353 . S
C41 N43 1.314 . S
C41 H82 0.930 . S
C42 C40 1.358 . S
C42 N43 1.279 . S
C42 H83 0.930 . S
N43 C41 1.314 . S
N43 C42 1.279 . S
C44 C46 1.353 1_554 S
C44 N47 1.314 . S
C44 H50 0.930 . S
C45 N47 1.279 . S
C45 C48 1.358 . S
C45 H51 0.930 . S
C46 C44 1.353 1_556 S
C46 C49 1.355 . S
C46 H84 0.929 . S
N47 Li2 1.990 . S
N47 C44 1.314 . S
N47 C45 1.279 . S
C48 C45 1.358 . S
C48 C49 1.361 1_554 S
C48 H85 0.930 1_545 S
C49 C46 1.355 . S
C49 C48 1.361 1_556 S
H50 C44 0.930 . S
H51 C45 0.930 . S
C52 N53 1.314 . S
C52 C54 1.353 . S
C52 H58 0.930 . S
N53 Li3 1.990 . S
N53 C52 1.314 . S
N53 C56 1.279 . S
C54 C52 1.353 . S
C54 C57 1.348 . S
C54 H86 0.929 . S
C55 C56 1.358 . S
C55 C57 1.356 . S
C55 H87 0.930 . S
C56 N53 1.279 . S
C56 C55 1.358 . S
C56 H59 0.930 . S
C57 C54 1.348 . S
C57 C55 1.356 . S
H58 C52 0.930 . S
H59 C56 0.930 . S
O60 Li0 1.956 . S
O60 Li1 1.970 . S
O60 Li2 1.961 . S
O60 C4 1.325 . S
O61 Li0 1.970 . S
O61 Li1 1.956 . S
O61 Li3 1.961 . S
O61 C10 1.325 . S
O62 Li0 1.961 . S
O62 Li2 1.956 . S
O62 Li3 1.970 . S
O62 C32 1.325 . S
O63 Li1 1.961 . S
O63 Li2 1.970 . S
O63 Li3 1.956 . S
O63 C38 1.325 . S
H64 C6 0.929 . S
H65 C7 0.930 1_554 S
H66 C8 0.930 . S
H67 C9 0.930 . S
H68 C11 0.930 . S
H69 C13 0.929 . S
H70 C14 0.930 . S
H71 C15 0.930 . S
H72 C18 0.930 . S
H73 C21 0.929 . S
H74 C26 0.929 . S
H75 C27 0.930 . S
H76 C34 0.929 . S
H77 C35 0.930 . S
H78 C36 0.930 . S
H79 C37 0.930 . S
H80 C39 0.929 . S
H81 C40 0.930 . S
H82 C41 0.930 . S
H83 C42 0.930 . S
H84 C46 0.929 . S
H85 C48 0.930 1_565 S
H86 C54 0.929 . S
H87 C55 0.930 . S
Li88 N105 1.990 . S
Li88 O148 1.956 . S
Li88 O149 1.970 . S
Li88 O150 1.961 . S
Li89 N113 1.990 . S
Li89 O148 1.970 . S
Li89 O149 1.956 . S
Li89 O151 1.961 . S
Li90 N135 1.990 . S
Li90 O148 1.961 . S
Li90 O150 1.956 . S
Li90 O151 1.970 . S
Li91 N141 1.990 . S
Li91 O149 1.961 . S
Li91 O150 1.970 . S
Li91 O151 1.956 . S
C92 C94 1.348 . S
C92 C95 1.356 . S
C92 O148 1.325 . S
N93 C96 1.314 . S
N93 C97 1.279 . S
C94 C92 1.348 . S
C94 C96 1.353 . S
C94 H152 0.929 . S
C95 C92 1.356 . S
C95 C97 1.358 . S
C95 H153 0.930 . S
C96 N93 1.314 . S
C96 C94 1.353 . S
C96 H154 0.930 . S
C97 N93 1.279 . S
C97 C95 1.358 . S
C97 H155 0.930 . S
C98 C101 1.348 . S
C98 C102 1.356 . S
C98 O149 1.325 . S
C99 N100 1.279 . S
C99 C102 1.358 . S
C99 H156 0.930 . S
N100 C99 1.279 . S
N100 C103 1.314 . S
C101 C98 1.348 . S
C101 C103 1.353 . S
C101 H157 0.929 . S
C102 C98 1.356 . S
C102 C99 1.358 . S
C102 H158 0.930 . S
C103 N100 1.314 . S
C103 C101 1.353 . S
C103 H159 0.930 . S
C104 N105 1.314 . S
C104 C109 1.353 . S
C104 H110 0.930 . S
N105 Li88 1.990 . S
N105 C104 1.314 . S
N105 C107 1.279 . S
C106 C107 1.358 . S
C106 C108 1.356 . S
C106 H160 0.930 . S
C107 N105 1.279 . S
C107 C106 1.358 . S
C107 H111 0.930 . S
C108 C106 1.356 . S
C108 C109 1.348 . S
C109 C104 1.353 . S
C109 C108 1.348 . S
C109 H161 0.929 . S
H110 C104 0.930 . S
H111 C107 0.930 . S
C112 N113 1.314 . S
C112 C114 1.353 . S
C112 H118 0.930 . S
N113 Li89 1.990 . S
N113 C112 1.314 . S
N113 C116 1.279 . S
C114 C112 1.353 . S
C114 C117 1.348 . S
C114 H162 0.929 . S
C115 C116 1.358 . S
C115 C117 1.356 . S
C115 H163 0.930 . S
C116 N113 1.279 . S
C116 C115 1.358 . S
C116 H119 0.930 . S
C117 C114 1.348 . S
C117 C115 1.356 . S
H118 C112 0.930 . S
H119 C116 0.930 . S
C120 C122 1.348 . S
C120 C123 1.356 . S
C120 O150 1.325 . S
N121 C124 1.314 . S
N121 C125 1.279 . S
C122 C120 1.348 . S
C122 C124 1.353 . S
C122 H164 0.929 . S
C123 C120 1.356 . S
C123 C125 1.358 . S
C123 H165 0.930 . S
C124 N121 1.314 . S
C124 C122 1.353 . S
C124 H166 0.930 . S
C125 N121 1.279 . S
C125 C123 1.358 . S
C125 H167 0.930 . S
C126 C127 1.348 . S
C126 C128 1.356 . S
C126 O151 1.325 . S
C127 C126 1.348 . S
C127 C129 1.353 . S
C127 H168 0.929 . S
C128 C126 1.356 . S
C128 C130 1.358 . S
C128 H169 0.930 . S
C129 C127 1.353 . S
C129 N131 1.314 . S
C129 H170 0.930 . S
C130 C128 1.358 . S
C130 N131 1.279 . S
C130 H171 0.930 . S
N131 C129 1.314 . S
N131 C130 1.279 . S
C132 C134 1.353 . S
C132 N135 1.314 . S
C132 H138 0.930 . S
C133 N135 1.279 . S
C133 C136 1.358 . S
C133 H139 0.930 . S
C134 C132 1.353 . S
C134 C137 1.348 . S
C134 H172 0.929 . S
N135 Li90 1.990 . S
N135 C132 1.314 . S
N135 C133 1.279 . S
C136 C133 1.358 . S
C136 C137 1.356 . S
C136 H173 0.930 . S
C137 C134 1.348 . S
C137 C136 1.356 . S
H138 C132 0.930 . S
H139 C133 0.930 . S
C140 N141 1.314 . S
C140 C142 1.353 . S
C140 H146 0.930 . S
N141 Li91 1.990 . S
N141 C140 1.314 . S
N141 C144 1.279 . S
C142 C140 1.353 . S
C142 C145 1.348 . S
C142 H174 0.929 . S
C143 C144 1.358 . S
C143 C145 1.356 . S
C143 H175 0.930 . S
C144 N141 1.279 . S
C144 C143 1.358 . S
C144 H147 0.930 . S
C145 C142 1.348 . S
C145 C143 1.356 . S
H146 C140 0.930 . S
H147 C144 0.930 . S
O148 Li88 1.956 . S
O148 Li89 1.970 . S
O148 Li90 1.961 . S
O148 C92 1.325 . S
O149 Li88 1.970 . S
O149 Li89 1.956 . S
O149 Li91 1.961 . S
O149 C98 1.325 . S
O150 Li88 1.961 . S
O150 Li90 1.956 . S
O150 Li91 1.970 . S
O150 C120 1.325 . S
O151 Li89 1.961 . S
O151 Li90 1.970 . S
O151 Li91 1.956 . S
O151 C126 1.325 . S
H152 C94 0.929 . S
H153 C95 0.930 . S
H154 C96 0.930 . S
H155 C97 0.930 . S
H156 C99 0.930 . S
H157 C101 0.929 . S
H158 C102 0.930 . S
H159 C103 0.930 . S
H160 C106 0.930 . S
H161 C109 0.929 . S
H162 C114 0.929 . S
H163 C115 0.930 . S
H164 C122 0.929 . S
H165 C123 0.930 . S
H166 C124 0.930 . S
H167 C125 0.930 . S
H168 C127 0.929 . S
H169 C128 0.930 . S
H170 C129 0.930 . S
H171 C130 0.930 . S
H172 C134 0.929 . S
H173 C136 0.930 . S
H174 C142 0.929 . S
H175 C143 0.930 . S
Li176 N193 1.990 . S
Li176 O236 1.956 . S
Li176 O237 1.970 . S
Li176 O238 1.961 . S
Li177 N201 1.990 . S
Li177 O236 1.970 . S
Li177 O237 1.956 . S
Li177 O239 1.961 . S
Li178 N223 1.990 . S
Li178 O236 1.961 . S
Li178 O238 1.956 . S
Li178 O239 1.970 . S
Li179 N229 1.990 . S
Li179 O237 1.961 . S
Li179 O238 1.970 . S
Li179 O239 1.956 . S
C180 C182 1.348 . S
C180 C183 1.356 . S
C180 O236 1.325 . S
N181 C184 1.314 . S
N181 C185 1.279 . S
C182 C180 1.348 . S
C182 C184 1.353 . S
C182 H240 0.929 . S
C183 C180 1.356 . S
C183 C185 1.358 . S
C183 H241 0.930 . S
C184 N181 1.314 . S
C184 C182 1.353 . S
C184 H242 0.930 . S
C185 N181 1.279 . S
C185 C183 1.358 . S
C185 H243 0.930 . S
C186 C189 1.348 . S
C186 C190 1.356 . S
C186 O237 1.325 . S
C187 N188 1.279 . S
C187 C190 1.358 . S
C187 H244 0.930 . S
N188 C187 1.279 . S
N188 C191 1.314 . S
C189 C186 1.348 . S
C189 C191 1.353 . S
C189 H245 0.929 . S
C190 C186 1.356 . S
C190 C187 1.358 . S
C190 H246 0.930 . S
C191 N188 1.314 . S
C191 C189 1.353 . S
C191 H247 0.930 . S
C192 N193 1.314 . S
C192 C197 1.353 . S
C192 H198 0.930 . S
N193 Li176 1.990 . S
N193 C192 1.314 . S
N193 C195 1.279 . S
C194 C195 1.358 . S
C194 C196 1.356 . S
C194 H248 0.930 . S
C195 N193 1.279 . S
C195 C194 1.358 . S
C195 H199 0.930 . S
C196 C194 1.356 . S
C196 C197 1.348 . S
C197 C192 1.353 . S
C197 C196 1.348 . S
C197 H249 0.929 . S
H198 C192 0.930 . S
H199 C195 0.930 . S
C200 N201 1.314 . S
C200 C202 1.353 . S
C200 H206 0.930 . S
N201 Li177 1.990 . S
N201 C200 1.314 . S
N201 C204 1.279 . S
C202 C200 1.353 . S
C202 C205 1.348 . S
C202 H250 0.929 . S
C203 C204 1.358 . S
C203 C205 1.356 . S
C203 H251 0.930 . S
C204 N201 1.279 . S
C204 C203 1.358 . S
C204 H207 0.930 . S
C205 C202 1.348 . S
C205 C203 1.356 . S
H206 C200 0.930 . S
H207 C204 0.930 . S
C208 C210 1.344 1_554 S
C208 C211 1.356 . S
C208 O238 1.325 . S
N209 C212 1.314 . S
N209 C213 1.279 . S
C210 C208 1.344 1_556 S
C210 C212 1.359 . S
C210 H252 0.927 1_556 S
C211 C208 1.356 . S
C211 C213 1.358 1_554 S
C211 H253 0.930 . S
C212 N209 1.314 . S
C212 C210 1.359 . S
C212 H254 0.930 . S
C213 N209 1.279 . S
C213 C211 1.358 1_556 S
C213 H255 0.930 . S
C214 C215 1.348 . S
C214 C216 1.356 . S
C214 O239 1.325 . S
C215 C214 1.348 . S
C215 C217 1.353 1_655 S
C215 H256 0.929 . S
C216 C214 1.356 . S
C216 C218 1.358 . S
C216 H257 0.930 . S
C217 C215 1.353 1_455 S
C217 N219 1.314 . S
C217 H258 0.930 . S
C218 C216 1.358 . S
C218 N219 1.279 1_655 S
C218 H259 0.930 . S
N219 C217 1.314 . S
N219 C218 1.279 1_455 S
C220 C222 1.353 1_655 S
C220 N223 1.314 . S
C220 H226 0.930 . S
C221 N223 1.279 . S
C221 C224 1.358 1_554 S
C221 H227 0.930 1_554 S
C222 C220 1.353 1_455 S
C222 C225 1.348 1_554 S
C222 H260 0.929 . S
N223 Li178 1.990 . S
N223 C220 1.314 . S
N223 C221 1.279 . S
C224 C221 1.358 1_556 S
C224 C225 1.356 1_655 S
C224 H261 0.930 . S
C225 C222 1.348 1_556 S
C225 C224 1.356 1_455 S
H226 C220 0.930 . S
H227 C221 0.930 1_556 S
C228 N229 1.314 . S
C228 C230 1.353 . S
C228 H234 0.930 . S
N229 Li179 1.990 . S
N229 C228 1.314 . S
N229 C232 1.279 . S
C230 C228 1.353 . S
C230 C233 1.348 . S
C230 H262 0.929 . S
C231 C232 1.358 . S
C231 C233 1.356 . S
C231 H263 0.930 . S
C232 N229 1.279 . S
C232 C231 1.358 . S
C232 H235 0.930 . S
C233 C230 1.348 . S
C233 C231 1.356 . S
H234 C228 0.930 . S
H235 C232 0.930 . S
O236 Li176 1.956 . S
O236 Li177 1.970 . S
O236 Li178 1.961 . S
O236 C180 1.325 . S
O237 Li176 1.970 . S
O237 Li177 1.956 . S
O237 Li179 1.961 . S
O237 C186 1.325 . S
O238 Li176 1.961 . S
O238 Li178 1.956 . S
O238 Li179 1.970 . S
O238 C208 1.325 . S
O239 Li177 1.961 . S
O239 Li178 1.970 . S
O239 Li179 1.956 . S
O239 C214 1.325 . S
H240 C182 0.929 . S
H241 C183 0.930 . S
H242 C184 0.930 . S
H243 C185 0.930 . S
H244 C187 0.930 . S
H245 C189 0.929 . S
H246 C190 0.930 . S
H247 C191 0.930 . S
H248 C194 0.930 . S
H249 C197 0.929 . S
H250 C202 0.929 . S
H251 C203 0.930 . S
H252 C210 0.927 1_554 S
H253 C211 0.930 . S
H254 C212 0.930 . S
H255 C213 0.930 . S
H256 C215 0.929 . S
H257 C216 0.930 . S
H258 C217 0.930 . S
H259 C218 0.930 . S
H260 C222 0.929 . S
H261 C224 0.930 . S
H262 C230 0.929 . S
H263 C231 0.930 . S
Li264 N281 1.990 . S
Li264 O324 1.956 . S
Li264 O325 1.970 . S
Li264 O326 1.961 . S
Li265 N289 1.990 . S
Li265 O324 1.970 . S
Li265 O325 1.956 . S
Li265 O327 1.961 . S
Li266 N311 1.990 . S
Li266 O324 1.961 . S
Li266 O326 1.956 . S
Li266 O327 1.970 . S
Li267 N317 1.990 . S
Li267 O325 1.961 . S
Li267 O326 1.970 . S
Li267 O327 1.956 . S
C268 C270 1.348 . S
C268 C271 1.356 . S
C268 O324 1.325 . S
N269 C272 1.314 . S
N269 C273 1.279 . S
C270 C268 1.348 . S
C270 C272 1.353 . S
C270 H328 0.929 . S
C271 C268 1.356 . S
C271 C273 1.358 . S
C271 H329 0.930 . S
C272 N269 1.314 . S
C272 C270 1.353 . S
C272 H330 0.930 . S
C273 N269 1.279 . S
C273 C271 1.358 . S
C273 H331 0.930 . S
C274 C277 1.348 . S
C274 C278 1.356 . S
C274 O325 1.325 . S
C275 N276 1.279 . S
C275 C278 1.358 . S
C275 H332 0.930 . S
N276 C275 1.279 . S
N276 C279 1.314 . S
C277 C274 1.348 . S
C277 C279 1.353 . S
C277 H333 0.929 . S
C278 C274 1.356 . S
C278 C275 1.358 . S
C278 H334 0.930 . S
C279 N276 1.314 . S
C279 C277 1.353 . S
C279 H335 0.930 . S
C280 N281 1.314 . S
C280 C285 1.353 . S
C280 H286 0.930 . S
N281 Li264 1.990 . S
N281 C280 1.314 . S
N281 C283 1.279 . S
C282 C283 1.358 . S
C282 C284 1.361 . S
C282 H336 0.930 1_565 S
C283 N281 1.279 . S
C283 C282 1.358 . S
C283 H287 0.930 . S
C284 C282 1.361 . S
C284 C285 1.355 . S
C285 C280 1.353 . S
C285 C284 1.355 . S
C285 H337 0.929 . S
H286 C280 0.930 . S
H287 C283 0.930 . S
C288 N289 1.314 . S
C288 C290 1.353 . S
C288 H294 0.930 . S
N289 Li265 1.990 . S
N289 C288 1.314 . S
N289 C292 1.279 . S
C290 C288 1.353 . S
C290 C293 1.348 . S
C290 H338 0.929 . S
C291 C292 1.358 . S
C291 C293 1.356 . S
C291 H339 0.930 . S
C292 N289 1.279 . S
C292 C291 1.358 . S
C292 H295 0.930 . S
C293 C290 1.348 . S
C293 C291 1.356 . S
H294 C288 0.930 . S
H295 C292 0.930 . S
C296 C298 1.348 . S
C296 C299 1.356 . S
C296 O326 1.325 . S
N297 C300 1.314 . S
N297 C301 1.279 . S
C298 C296 1.348 . S
C298 C300 1.353 . S
C298 H340 0.929 . S
C299 C296 1.356 . S
C299 C301 1.358 . S
C299 H341 0.930 . S
C300 N297 1.314 . S
C300 C298 1.353 . S
C300 H342 0.930 . S
C301 N297 1.279 . S
C301 C299 1.358 . S
C301 H343 0.930 . S
C302 C303 1.348 . S
C302 C304 1.356 . S
C302 O327 1.325 . S
C303 C302 1.348 . S
C303 C305 1.353 . S
C303 H344 0.929 . S
C304 C302 1.356 . S
C304 C306 1.358 . S
C304 H345 0.930 . S
C305 C303 1.353 . S
C305 N307 1.314 . S
C305 H346 0.930 . S
C306 C304 1.358 . S
C306 N307 1.279 . S
C306 H347 0.930 . S
N307 C305 1.314 . S
N307 C306 1.279 . S
C308 C310 1.353 . S
C308 N311 1.314 . S
C308 H314 0.930 . S
C309 N311 1.279 . S
C309 C312 1.358 . S
C309 H315 0.930 . S
C310 C308 1.353 . S
C310 C313 1.348 . S
C310 H348 0.929 . S
N311 Li266 1.990 . S
N311 C308 1.314 . S
N311 C309 1.279 . S
C312 C309 1.358 . S
C312 C313 1.356 . S
C312 H349 0.930 . S
C313 C310 1.348 . S
C313 C312 1.356 . S
H314 C308 0.930 . S
H315 C309 0.930 . S
C316 N317 1.314 . S
C316 C318 1.353 . S
C316 H322 0.930 . S
N317 Li267 1.990 . S
N317 C316 1.314 . S
N317 C320 1.279 . S
C318 C316 1.353 . S
C318 C321 1.348 . S
C318 H350 0.929 . S
C319 C320 1.358 . S
C319 C321 1.356 . S
C319 H351 0.930 . S
C320 N317 1.279 . S
C320 C319 1.358 . S
C320 H323 0.930 . S
C321 C318 1.348 . S
C321 C319 1.356 . S
H322 C316 0.930 . S
H323 C320 0.930 . S
O324 Li264 1.956 . S
O324 Li265 1.970 . S
O324 Li266 1.961 . S
O324 C268 1.325 . S
O325 Li264 1.970 . S
O325 Li265 1.956 . S
O325 Li267 1.961 . S
O325 C274 1.325 . S
O326 Li264 1.961 . S
O326 Li266 1.956 . S
O326 Li267 1.970 . S
O326 C296 1.325 . S
O327 Li265 1.961 . S
O327 Li266 1.970 . S
O327 Li267 1.956 . S
O327 C302 1.325 . S
H328 C270 0.929 . S
H329 C271 0.930 . S
H330 C272 0.930 . S
H331 C273 0.930 . S
H332 C275 0.930 . S
H333 C277 0.929 . S
H334 C278 0.930 . S
H335 C279 0.930 . S
H336 C282 0.930 1_545 S
H337 C285 0.929 . S
H338 C290 0.929 . S
H339 C291 0.930 . S
H340 C298 0.929 . S
H341 C299 0.930 . S
H342 C300 0.930 . S
H343 C301 0.930 . S
H344 C303 0.929 . S
H345 C304 0.930 . S
H346 C305 0.930 . S
H347 C306 0.930 . S
H348 C310 0.929 . S
H349 C312 0.930 . S
H350 C318 0.929 . S
H351 C319 0.930 . S
Li352 N369 1.990 . S
Li352 O412 1.956 . S
Li352 O413 1.970 . S
Li352 O414 1.961 . S
Li353 N377 1.990 . S
Li353 O412 1.970 . S
Li353 O413 1.956 . S
Li353 O415 1.961 . S
Li354 N399 1.990 . S
Li354 O412 1.961 . S
Li354 O414 1.956 . S
Li354 O415 1.970 . S
Li355 N405 1.990 . S
Li355 O413 1.961 . S
Li355 O414 1.970 . S
Li355 O415 1.956 . S
C356 C358 1.348 . S
C356 C359 1.356 . S
C356 O412 1.325 . S
N357 C360 1.314 . S
N357 C361 1.279 . S
C358 C356 1.348 . S
C358 C360 1.353 . S
C358 H416 0.929 . S
C359 C356 1.356 . S
C359 C361 1.358 . S
C359 H417 0.930 . S
C360 N357 1.314 . S
C360 C358 1.353 . S
C360 H418 0.930 . S
C361 N357 1.279 . S
C361 C359 1.358 . S
C361 H419 0.930 . S
C362 C365 1.348 . S
C362 C366 1.356 . S
C362 O413 1.325 . S
C363 N364 1.279 . S
C363 C366 1.358 . S
C363 H420 0.930 . S
N364 C363 1.279 . S
N364 C367 1.314 . S
C365 C362 1.348 . S
C365 C367 1.353 . S
C365 H421 0.929 . S
C366 C362 1.356 . S
C366 C363 1.358 . S
C366 H422 0.930 . S
C367 N364 1.314 . S
C367 C365 1.353 . S
C367 H423 0.930 . S
C368 N369 1.314 . S
C368 C373 1.353 . S
C368 H374 0.930 . S
N369 Li352 1.990 . S
N369 C368 1.314 . S
N369 C371 1.279 . S
C370 C371 1.358 . S
C370 C372 1.356 . S
C370 H424 0.930 . S
C371 N369 1.279 . S
C371 C370 1.358 . S
C371 H375 0.930 . S
C372 C370 1.356 . S
C372 C373 1.348 . S
C373 C368 1.353 . S
C373 C372 1.348 . S
C373 H425 0.929 . S
H374 C368 0.930 . S
H375 C371 0.930 . S
C376 N377 1.314 . S
C376 C378 1.353 . S
C376 H382 0.930 . S
N377 Li353 1.990 . S
N377 C376 1.314 . S
N377 C380 1.279 . S
C378 C376 1.353 . S
C378 C381 1.348 . S
C378 H426 0.929 . S
C379 C380 1.358 . S
C379 C381 1.356 . S
C379 H427 0.930 . S
C380 N377 1.279 . S
C380 C379 1.358 . S
C380 H383 0.930 . S
C381 C378 1.348 . S
C381 C379 1.356 . S
H382 C376 0.930 . S
H383 C380 0.930 . S
C384 C386 1.348 . S
C384 C387 1.356 . S
C384 O414 1.325 . S
N385 C388 1.314 . S
N385 C389 1.279 . S
C386 C384 1.348 . S
C386 C388 1.353 . S
C386 H428 0.929 . S
C387 C384 1.356 . S
C387 C389 1.358 . S
C387 H429 0.930 . S
C388 N385 1.314 . S
C388 C386 1.353 . S
C388 H430 0.930 . S
C389 N385 1.279 . S
C389 C387 1.358 . S
C389 H431 0.930 . S
C390 C391 1.348 . S
C390 C392 1.379 . S
C390 O415 1.325 . S
C391 C390 1.348 . S
C391 C393 1.353 1_554 S
C391 H432 0.929 . S
C392 C390 1.379 . S
C392 C394 1.326 1_554 S
C392 H433 0.940 . S
C393 C391 1.353 1_556 S
C393 N395 1.314 . S
C393 H434 0.930 . S
C394 C392 1.326 1_556 S
C394 N395 1.279 . S
C394 H435 0.930 . S
N395 C393 1.314 . S
N395 C394 1.279 . S
C396 C398 1.353 . S
C396 N399 1.314 . S
C396 H402 0.930 . S
C397 N399 1.279 . S
C397 C400 1.358 . S
C397 H403 0.930 . S
C398 C396 1.353 . S
C398 C401 1.348 . S
C398 H436 0.929 . S
N399 Li354 1.990 . S
N399 C396 1.314 . S
N399 C397 1.279 . S
C400 C397 1.358 . S
C400 C401 1.356 . S
C400 H437 0.930 . S
C401 C398 1.348 . S
C401 C400 1.356 . S
H402 C396 0.930 . S
H403 C397 0.930 . S
C404 N405 1.314 . S
C404 C406 1.353 . S
C404 H410 0.930 . S
N405 Li355 1.990 . S
N405 C404 1.314 . S
N405 C408 1.279 . S
C406 C404 1.353 . S
C406 C409 1.351 . S
C406 H438 0.929 . S
C407 C408 1.358 1_556 S
C407 C409 1.355 1_556 S
C407 H439 0.930 . S
C408 N405 1.279 . S
C408 C407 1.358 1_554 S
C408 H411 0.940 . S
C409 C406 1.351 . S
C409 C407 1.355 1_554 S
H410 C404 0.930 . S
H411 C408 0.940 . S
O412 Li352 1.956 . S
O412 Li353 1.970 . S
O412 Li354 1.961 . S
O412 C356 1.325 . S
O413 Li352 1.970 . S
O413 Li353 1.956 . S
O413 Li355 1.961 . S
O413 C362 1.325 . S
O414 Li352 1.961 . S
O414 Li354 1.956 . S
O414 Li355 1.970 . S
O414 C384 1.325 . S
O415 Li353 1.961 . S
O415 Li354 1.970 . S
O415 Li355 1.956 . S
O415 C390 1.325 . S
H416 C358 0.929 . S
H417 C359 0.930 . S
H418 C360 0.930 . S
H419 C361 0.930 . S
H420 C363 0.930 . S
H421 C365 0.929 . S
H422 C366 0.930 . S
H423 C367 0.930 . S
H424 C370 0.930 . S
H425 C373 0.929 . S
H426 C378 0.929 . S
H427 C379 0.930 . S
H428 C386 0.929 . S
H429 C387 0.930 . S
H430 C388 0.930 . S
H431 C389 0.930 . S
H432 C391 0.929 . S
H433 C392 0.940 . S
H434 C393 0.930 . S
H435 C394 0.930 . S
H436 C398 0.929 . S
H437 C400 0.930 . S
H438 C406 0.929 . S
H439 C407 0.930 . S
Li440 N457 1.990 . S
Li440 O500 1.956 . S
Li440 O501 1.970 . S
Li440 O502 1.961 . S
Li441 N465 1.990 . S
Li441 O500 1.970 . S
Li441 O501 1.956 . S
Li441 O503 1.961 . S
Li442 N487 1.990 . S
Li442 O500 1.961 . S
Li442 O502 1.956 . S
Li442 O503 1.970 . S
Li443 N493 1.990 . S
Li443 O501 1.961 . S
Li443 O502 1.970 . S
Li443 O503 1.956 . S
C444 C446 1.348 . S
C444 C447 1.356 . S
C444 O500 1.325 . S
N445 C448 1.314 . S
N445 C449 1.279 . S
C446 C444 1.348 . S
C446 C448 1.353 . S
C446 H504 0.929 . S
C447 C444 1.356 . S
C447 C449 1.358 . S
C447 H505 0.930 . S
C448 N445 1.314 . S
C448 C446 1.353 . S
C448 H506 0.930 . S
C449 N445 1.279 . S
C449 C447 1.358 . S
C449 H507 0.930 . S
C450 C453 1.348 . S
C450 C454 1.356 . S
C450 O501 1.325 . S
C451 N452 1.279 . S
C451 C454 1.358 . S
C451 H508 0.930 . S
N452 C451 1.279 . S
N452 C455 1.314 . S
C453 C450 1.348 . S
C453 C455 1.353 . S
C453 H509 0.929 . S
C454 C450 1.356 . S
C454 C451 1.358 . S
C454 H510 0.930 . S
C455 N452 1.314 . S
C455 C453 1.353 . S
C455 H511 0.930 . S
C456 N457 1.314 . S
C456 C461 1.353 . S
C456 H462 0.930 . S
N457 Li440 1.990 . S
N457 C456 1.314 . S
N457 C459 1.279 . S
C458 C459 1.358 . S
C458 C460 1.356 . S
C458 H512 0.930 . S
C459 N457 1.279 . S
C459 C458 1.358 . S
C459 H463 0.930 . S
C460 C458 1.356 . S
C460 C461 1.348 . S
C461 C456 1.353 . S
C461 C460 1.348 . S
C461 H513 0.929 . S
H462 C456 0.930 . S
H463 C459 0.930 . S
C464 N465 1.314 . S
C464 C466 1.353 . S
C464 H470 0.930 . S
N465 Li441 1.990 . S
N465 C464 1.314 . S
N465 C468 1.279 . S
C466 C464 1.353 . S
C466 C469 1.348 . S
C466 H514 0.929 . S
C467 C468 1.358 . S
C467 C469 1.356 . S
C467 H515 0.930 . S
C468 N465 1.279 . S
C468 C467 1.358 . S
C468 H471 0.930 . S
C469 C466 1.348 . S
C469 C467 1.356 . S
H470 C464 0.930 . S
H471 C468 0.930 . S
C472 C474 1.348 . S
C472 C475 1.356 . S
C472 O502 1.325 . S
N473 C476 1.314 . S
N473 C477 1.279 1_655 S
C474 C472 1.348 . S
C474 C476 1.353 1_455 S
C474 H516 0.929 . S
C475 C472 1.356 . S
C475 C477 1.358 . S
C475 H517 0.930 . S
C476 N473 1.314 . S
C476 C474 1.353 1_655 S
C476 H518 0.930 . S
C477 N473 1.279 1_455 S
C477 C475 1.358 . S
C477 H519 0.930 . S
C478 C479 1.348 . S
C478 C480 1.356 . S
C478 O503 1.325 . S
C479 C478 1.348 . S
C479 C481 1.353 . S
C479 H520 0.929 . S
C480 C478 1.356 . S
C480 C482 1.358 . S
C480 H521 0.930 . S
C481 C479 1.353 . S
C481 N483 1.314 . S
C481 H522 0.930 . S
C482 C480 1.358 . S
C482 N483 1.279 . S
C482 H523 0.930 . S
N483 C481 1.314 . S
N483 C482 1.279 . S
C484 C486 1.353 . S
C484 N487 1.314 . S
C484 H490 0.930 . S
C485 N487 1.279 . S
C485 C488 1.358 . S
C485 H491 0.930 . S
C486 C484 1.353 . S
C486 C489 1.348 . S
C486 H524 0.929 . S
N487 Li442 1.990 . S
N487 C484 1.314 . S
N487 C485 1.279 . S
C488 C485 1.358 . S
C488 C489 1.356 . S
C488 H525 0.930 . S
C489 C486 1.348 . S
C489 C488 1.356 . S
H490 C484 0.930 . S
H491 C485 0.930 . S
C492 N493 1.314 . S
C492 C494 1.353 1_455 S
C492 H498 0.930 . S
N493 Li443 1.990 . S
N493 C492 1.314 . S
N493 C496 1.279 . S
C494 C492 1.353 1_655 S
C494 C497 1.348 . S
C494 H526 0.929 . S
C495 C496 1.358 . S
C495 C497 1.356 1_455 S
C495 H527 0.930 . S
C496 N493 1.279 . S
C496 C495 1.358 . S
C496 H499 0.930 . S
C497 C494 1.348 . S
C497 C495 1.356 1_655 S
H498 C492 0.930 . S
H499 C496 0.930 . S
O500 Li440 1.956 . S
O500 Li441 1.970 . S
O500 Li442 1.961 . S
O500 C444 1.325 . S
O501 Li440 1.970 . S
O501 Li441 1.956 . S
O501 Li443 1.961 . S
O501 C450 1.325 . S
O502 Li440 1.961 . S
O502 Li442 1.956 . S
O502 Li443 1.970 . S
O502 C472 1.325 . S
O503 Li441 1.961 . S
O503 Li442 1.970 . S
O503 Li443 1.956 . S
O503 C478 1.325 . S
H504 C446 0.929 . S
H505 C447 0.930 . S
H506 C448 0.930 . S
H507 C449 0.930 . S
H508 C451 0.930 . S
H509 C453 0.929 . S
H510 C454 0.930 . S
H511 C455 0.930 . S
H512 C458 0.930 . S
H513 C461 0.929 . S
H514 C466 0.929 . S
H515 C467 0.930 . S
H516 C474 0.929 . S
H517 C475 0.930 . S
H518 C476 0.930 . S
H519 C477 0.930 . S
H520 C479 0.929 . S
H521 C480 0.930 . S
H522 C481 0.930 . S
H523 C482 0.930 . S
H524 C486 0.929 . S
H525 C488 0.930 . S
H526 C494 0.929 . S
H527 C495 0.930 . S
Li528 N545 1.990 . S
Li528 O588 1.956 . S
Li528 O589 1.970 . S
Li528 O590 1.961 . S
Li529 N553 1.990 . S
Li529 O588 1.970 . S
Li529 O589 1.956 . S
Li529 O591 1.961 . S
Li530 N575 1.990 . S
Li530 O588 1.961 . S
Li530 O590 1.956 . S
Li530 O591 1.970 . S
Li531 N581 1.990 . S
Li531 O589 1.961 . S
Li531 O590 1.970 . S
Li531 O591 1.956 . S
C532 C534 1.348 . S
C532 C535 1.356 . S
C532 O588 1.325 . S
N533 C536 1.314 . S
N533 C537 1.279 . S
C534 C532 1.348 . S
C534 C536 1.353 . S
C534 H592 0.929 . S
C535 C532 1.356 . S
C535 C537 1.358 . S
C535 H593 0.930 . S
C536 N533 1.314 . S
C536 C534 1.353 . S
C536 H594 0.930 . S
C537 N533 1.279 . S
C537 C535 1.358 . S
C537 H595 0.930 . S
C538 C541 1.348 . S
C538 C542 1.356 . S
C538 O589 1.325 . S
C539 N540 1.279 . S
C539 C542 1.358 . S
C539 H596 0.930 . S
N540 C539 1.279 . S
N540 C543 1.314 . S
C541 C538 1.348 . S
C541 C543 1.353 . S
C541 H597 0.929 . S
C542 C538 1.356 . S
C542 C539 1.358 . S
C542 H598 0.930 . S
C543 N540 1.314 . S
C543 C541 1.353 . S
C543 H599 0.930 . S
C544 N545 1.314 . S
C544 C549 1.353 . S
C544 H550 0.930 . S
N545 Li528 1.990 . S
N545 C544 1.314 . S
N545 C547 1.279 . S
C546 C547 1.358 . S
C546 C548 1.356 . S
C546 H600 0.930 . S
C547 N545 1.279 . S
C547 C546 1.358 . S
C547 H551 0.930 . S
C548 C546 1.356 . S
C548 C549 1.348 . S
C549 C544 1.353 . S
C549 C548 1.348 . S
C549 H601 0.929 . S
H550 C544 0.930 . S
H551 C547 0.930 . S
C552 N553 1.314 . S
C552 C554 1.353 1_655 S
C552 H558 0.930 1_655 S
N553 Li529 1.990 . S
N553 C552 1.314 . S
N553 C556 1.279 . S
C554 C552 1.353 1_455 S
C554 C557 1.348 . S
C554 H602 0.929 . S
C555 C556 1.358 . S
C555 C557 1.356 1_655 S
C555 H603 0.930 . S
C556 N553 1.279 . S
C556 C555 1.358 . S
C556 H559 0.930 . S
C557 C554 1.348 . S
C557 C555 1.356 1_455 S
H558 C552 0.930 1_455 S
H559 C556 0.930 . S
C560 C562 1.348 . S
C560 C563 1.356 . S
C560 O590 1.325 . S
N561 C564 1.314 . S
N561 C565 1.279 . S
C562 C560 1.348 . S
C562 C564 1.353 . S
C562 H604 0.929 . S
C563 C560 1.356 . S
C563 C565 1.358 . S
C563 H605 0.930 . S
C564 N561 1.314 . S
C564 C562 1.353 . S
C564 H606 0.930 . S
C565 N561 1.279 . S
C565 C563 1.358 . S
C565 H607 0.930 . S
C566 C567 1.348 . S
C566 C568 1.356 . S
C566 O591 1.325 . S
C567 C566 1.348 . S
C567 C569 1.353 . S
C567 H608 0.929 . S
C568 C566 1.356 . S
C568 C570 1.358 1_655 S
C568 H609 0.930 . S
C569 C567 1.353 . S
C569 N571 1.314 1_655 S
C569 H610 0.930 1_655 S
C570 C568 1.358 1_455 S
C570 N571 1.279 . S
C570 H611 0.930 . S
N571 C569 1.314 1_455 S
N571 C570 1.279 . S
C572 C574 1.353 . S
C572 N575 1.314 . S
C572 H578 0.930 . S
C573 N575 1.279 . S
C573 C576 1.358 . S
C573 H579 0.930 . S
C574 C572 1.353 . S
C574 C577 1.348 . S
C574 H612 0.929 . S
N575 Li530 1.990 . S
N575 C572 1.314 . S
N575 C573 1.279 . S
C576 C573 1.358 . S
C576 C577 1.356 . S
C576 H613 0.930 . S
C577 C574 1.348 . S
C577 C576 1.356 . S
H578 C572 0.930 . S
H579 C573 0.930 . S
C580 N581 1.314 . S
C580 C582 1.353 . S
C580 H586 0.930 . S
N581 Li531 1.990 . S
N581 C580 1.314 . S
N581 C584 1.279 . S
C582 C580 1.353 . S
C582 C585 1.348 . S
C582 H614 0.929 . S
C583 C584 1.358 . S
C583 C585 1.356 . S
C583 H615 0.930 . S
C584 N581 1.279 . S
C584 C583 1.358 . S
C584 H587 0.930 . S
C585 C582 1.348 . S
C585 C583 1.356 . S
H586 C580 0.930 . S
H587 C584 0.930 . S
O588 Li528 1.956 . S
O588 Li529 1.970 . S
O588 Li530 1.961 . S
O588 C532 1.325 . S
O589 Li528 1.970 . S
O589 Li529 1.956 . S
O589 Li531 1.961 . S
O589 C538 1.325 . S
O590 Li528 1.961 . S
O590 Li530 1.956 . S
O590 Li531 1.970 . S
O590 C560 1.325 . S
O591 Li529 1.961 . S
O591 Li530 1.970 . S
O591 Li531 1.956 . S
O591 C566 1.325 . S
H592 C534 0.929 . S
H593 C535 0.930 . S
H594 C536 0.930 . S
H595 C537 0.930 . S
H596 C539 0.930 . S
H597 C541 0.929 . S
H598 C542 0.930 . S
H599 C543 0.930 . S
H600 C546 0.930 . S
H601 C549 0.929 . S
H602 C554 0.929 . S
H603 C555 0.930 . S
H604 C562 0.929 . S
H605 C563 0.930 . S
H606 C564 0.930 . S
H607 C565 0.930 . S
H608 C567 0.929 . S
H609 C568 0.930 . S
H610 C569 0.930 1_455 S
H611 C570 0.930 . S
H612 C574 0.929 . S
H613 C576 0.930 . S
H614 C582 0.929 . S
H615 C583 0.930 . S
Li616 N633 1.990 . S
Li616 O676 1.956 . S
Li616 O677 1.970 . S
Li616 O678 1.961 . S
Li617 N641 1.990 . S
Li617 O676 1.970 . S
Li617 O677 1.956 . S
Li617 O679 1.961 . S
Li618 N663 1.990 . S
Li618 O676 1.961 . S
Li618 O678 1.956 . S
Li618 O679 1.970 . S
Li619 N669 1.990 . S
Li619 O677 1.961 . S
Li619 O678 1.970 . S
Li619 O679 1.956 . S
C620 C622 1.348 . S
C620 C623 1.356 . S
C620 O676 1.325 . S
N621 C624 1.314 . S
N621 C625 1.279 . S
C622 C620 1.348 . S
C622 C624 1.353 . S
C622 H680 0.929 . S
C623 C620 1.356 . S
C623 C625 1.358 . S
C623 H681 0.930 . S
C624 N621 1.314 . S
C624 C622 1.353 . S
C624 H682 0.930 . S
C625 N621 1.279 . S
C625 C623 1.358 . S
C625 H683 0.930 . S
C626 C629 1.348 . S
C626 C630 1.356 . S
C626 O677 1.325 . S
C627 N628 1.279 . S
C627 C630 1.358 . S
C627 H684 0.930 . S
N628 C627 1.279 . S
N628 C631 1.314 . S
C629 C626 1.348 . S
C629 C631 1.353 . S
C629 H685 0.929 . S
C630 C626 1.356 . S
C630 C627 1.358 . S
C630 H686 0.930 . S
C631 N628 1.314 . S
C631 C629 1.353 . S
C631 H687 0.930 . S
C632 N633 1.314 . S
C632 C637 1.353 . S
C632 H638 0.930 . S
N633 Li616 1.990 . S
N633 C632 1.314 . S
N633 C635 1.279 . S
C634 C635 1.358 . S
C634 C636 1.356 . S
C634 H688 0.930 . S
C635 N633 1.279 . S
C635 C634 1.358 . S
C635 H639 0.930 . S
C636 C634 1.356 . S
C636 C637 1.348 . S
C637 C632 1.353 . S
C637 C636 1.348 . S
C637 H689 0.929 . S
H638 C632 0.930 . S
H639 C635 0.930 . S
C640 N641 1.314 . S
C640 C642 1.353 1_556 S
C640 H646 0.930 . S
N641 Li617 1.990 . S
N641 C640 1.314 . S
N641 C644 1.279 . S
C642 C640 1.353 1_554 S
C642 C645 1.357 . S
C642 H690 0.929 . S
C643 C644 1.358 . S
C643 C645 1.354 1_556 S
C643 H691 0.930 1_565 S
C644 N641 1.279 . S
C644 C643 1.358 . S
C644 H647 0.930 . S
C645 C642 1.357 . S
C645 C643 1.354 1_554 S
H646 C640 0.930 . S
H647 C644 0.930 . S
C648 C650 1.348 . S
C648 C651 1.356 . S
C648 O678 1.325 . S
N649 C652 1.314 . S
N649 C653 1.279 . S
C650 C648 1.348 . S
C650 C652 1.353 . S
C650 H692 0.929 . S
C651 C648 1.356 . S
C651 C653 1.358 . S
C651 H693 0.930 . S
C652 N649 1.314 . S
C652 C650 1.353 . S
C652 H694 0.930 . S
C653 N649 1.279 . S
C653 C651 1.358 . S
C653 H695 0.930 . S
C654 C655 1.348 . S
C654 C656 1.356 1_556 S
C654 O679 1.325 . S
C655 C654 1.348 . S
C655 C657 1.353 1_556 S
C655 H696 0.929 . S
C656 C654 1.356 1_554 S
C656 C658 1.358 . S
C656 H697 0.930 1_554 S
C657 C655 1.353 1_554 S
C657 N659 1.314 . S
C657 H698 0.930 . S
C658 C656 1.358 . S
C658 N659 1.279 . S
C658 H699 0.930 . S
N659 C657 1.314 . S
N659 C658 1.279 . S
C660 C662 1.353 . S
C660 N663 1.314 . S
C660 H666 0.930 . S
C661 N663 1.279 . S
C661 C664 1.358 . S
C661 H667 0.930 . S
C662 C660 1.353 . S
C662 C665 1.348 . S
C662 H700 0.929 . S
N663 Li618 1.990 . S
N663 C660 1.314 . S
N663 C661 1.279 . S
C664 C661 1.358 . S
C664 C665 1.356 . S
C664 H701 0.930 . S
C665 C662 1.348 . S
C665 C664 1.356 . S
H666 C660 0.930 . S
H667 C661 0.930 . S
C668 N669 1.314 . S
C668 C670 1.353 . S
C668 H674 0.930 . S
N669 Li619 1.990 . S
N669 C668 1.314 . S
N669 C672 1.279 . S
C670 C668 1.353 . S
C670 C673 1.348 . S
C670 H702 0.929 . S
C671 C672 1.358 . S
C671 C673 1.356 . S
C671 H703 0.930 . S
C672 N669 1.279 . S
C672 C671 1.358 . S
C672 H675 0.930 . S
C673 C670 1.348 . S
C673 C671 1.356 . S
H674 C668 0.930 . S
H675 C672 0.930 . S
O676 Li616 1.956 . S
O676 Li617 1.970 . S
O676 Li618 1.961 . S
O676 C620 1.325 . S
O677 Li616 1.970 . S
O677 Li617 1.956 . S
O677 Li619 1.961 . S
O677 C626 1.325 . S
O678 Li616 1.961 . S
O678 Li618 1.956 . S
O678 Li619 1.970 . S
O678 C648 1.325 . S
O679 Li617 1.961 . S
O679 Li618 1.970 . S
O679 Li619 1.956 . S
O679 C654 1.325 . S
H680 C622 0.929 . S
H681 C623 0.930 . S
H682 C624 0.930 . S
H683 C625 0.930 . S
H684 C627 0.930 . S
H685 C629 0.929 . S
H686 C630 0.930 . S
H687 C631 0.930 . S
H688 C634 0.930 . S
H689 C637 0.929 . S
H690 C642 0.929 . S
H691 C643 0.930 1_545 S
H692 C650 0.929 . S
H693 C651 0.930 . S
H694 C652 0.930 . S
H695 C653 0.930 . S
H696 C655 0.929 . S
H697 C656 0.930 1_556 S
H698 C657 0.930 . S
H699 C658 0.930 . S
H700 C662 0.929 . S
H701 C664 0.930 . S
H702 C670 0.929 . S
H703 C671 0.930 . S
Li704 N721 1.990 . S
Li704 O764 1.956 . S
Li704 O765 1.970 . S
Li704 O766 1.961 . S
Li705 N729 1.990 . S
Li705 O764 1.970 . S
Li705 O765 1.956 . S
Li705 O767 1.961 . S
Li706 N751 1.990 . S
Li706 O764 1.961 . S
Li706 O766 1.956 . S
Li706 O767 1.970 . S
Li707 N757 1.990 . S
Li707 O765 1.961 . S
Li707 O766 1.970 . S
Li707 O767 1.956 . S
C708 C710 1.348 . S
C708 C711 1.356 . S
C708 O764 1.325 . S
N709 C712 1.314 . S
N709 C713 1.279 . S
C710 C708 1.348 . S
C710 C712 1.353 . S
C710 H768 0.929 . S
C711 C708 1.356 . S
C711 C713 1.358 . S
C711 H769 0.930 . S
C712 N709 1.314 . S
C712 C710 1.353 . S
C712 H770 0.930 . S
C713 N709 1.279 . S
C713 C711 1.358 . S
C713 H771 0.930 . S
C714 C717 1.348 . S
C714 C718 1.356 . S
C714 O765 1.325 . S
C715 N716 1.279 . S
C715 C718 1.358 . S
C715 H772 0.930 . S
N716 C715 1.279 . S
N716 C719 1.314 . S
C717 C714 1.348 . S
C717 C719 1.353 . S
C717 H773 0.929 . S
C718 C714 1.356 . S
C718 C715 1.358 . S
C718 H774 0.930 . S
C719 N716 1.314 . S
C719 C717 1.353 . S
C719 H775 0.930 . S
C720 N721 1.314 . S
C720 C725 1.353 . S
C720 H726 0.930 . S
N721 Li704 1.990 . S
N721 C720 1.314 . S
N721 C723 1.279 . S
C722 C723 1.358 . S
C722 C724 1.356 . S
C722 H776 0.930 . S
C723 N721 1.279 . S
C723 C722 1.358 . S
C723 H727 0.930 . S
C724 C722 1.356 . S
C724 C725 1.348 . S
C725 C720 1.353 . S
C725 C724 1.348 . S
C725 H777 0.929 . S
H726 C720 0.930 . S
H727 C723 0.930 . S
C728 N729 1.314 . S
C728 C730 1.353 . S
C728 H734 0.930 . S
N729 Li705 1.990 . S
N729 C728 1.314 . S
N729 C732 1.279 . S
C730 C728 1.353 . S
C730 C733 1.348 . S
C730 H778 0.929 . S
C731 C732 1.358 . S
C731 C733 1.356 . S
C731 H779 0.930 . S
C732 N729 1.279 . S
C732 C731 1.358 . S
C732 H735 0.930 . S
C733 C730 1.348 . S
C733 C731 1.356 . S
H734 C728 0.930 . S
H735 C732 0.930 . S
C736 C738 1.348 . S
C736 C739 1.356 . S
C736 O766 1.325 . S
N737 C740 1.314 . S
N737 C741 1.279 . S
C738 C736 1.348 . S
C738 C740 1.353 . S
C738 H780 0.929 . S
C739 C736 1.356 . S
C739 C741 1.358 . S
C739 H781 0.930 . S
C740 N737 1.314 . S
C740 C738 1.353 . S
C740 H782 0.930 . S
C741 N737 1.279 . S
C741 C739 1.358 . S
C741 H783 0.930 . S
C742 C743 1.348 . S
C742 C744 1.356 . S
C742 O767 1.325 . S
C743 C742 1.348 . S
C743 C745 1.353 . S
C743 H784 0.929 . S
C744 C742 1.356 . S
C744 C746 1.358 . S
C744 H785 0.930 . S
C745 C743 1.353 . S
C745 N747 1.314 . S
C745 H786 0.930 . S
C746 C744 1.358 . S
C746 N747 1.279 . S
C746 H787 0.930 . S
N747 C745 1.314 . S
N747 C746 1.279 . S
C748 C750 1.353 . S
C748 N751 1.314 . S
C748 H754 0.930 . S
C749 N751 1.279 . S
C749 C752 1.358 . S
C749 H755 0.930 . S
C750 C748 1.353 . S
C750 C753 1.348 . S
C750 H788 0.929 . S
N751 Li706 1.990 . S
N751 C748 1.314 . S
N751 C749 1.279 . S
C752 C749 1.358 . S
C752 C753 1.356 . S
C752 H789 0.930 . S
C753 C750 1.348 . S
C753 C752 1.356 . S
H754 C748 0.930 . S
H755 C749 0.930 . S
C756 N757 1.314 . S
C756 C758 1.353 . S
C756 H762 0.930 . S
N757 Li707 1.990 . S
N757 C756 1.314 . S
N757 C760 1.279 . S
C758 C756 1.353 . S
C758 C761 1.348 . S
C758 H790 0.929 . S
C759 C760 1.358 . S
C759 C761 1.356 . S
C759 H791 0.930 . S
C760 N757 1.279 . S
C760 C759 1.358 . S
C760 H763 0.930 . S
C761 C758 1.348 . S
C761 C759 1.356 . S
H762 C756 0.930 . S
H763 C760 0.930 . S
O764 Li704 1.956 . S
O764 Li705 1.970 . S
O764 Li706 1.961 . S
O764 C708 1.325 . S
O765 Li704 1.970 . S
O765 Li705 1.956 . S
O765 Li707 1.961 . S
O765 C714 1.325 . S
O766 Li704 1.961 . S
O766 Li706 1.956 . S
O766 Li707 1.970 . S
O766 C736 1.325 . S
O767 Li705 1.961 . S
O767 Li706 1.970 . S
O767 Li707 1.956 . S
O767 C742 1.325 . S
H768 C710 0.929 . S
H769 C711 0.930 . S
H770 C712 0.930 . S
H771 C713 0.930 . S
H772 C715 0.930 . S
H773 C717 0.929 . S
H774 C718 0.930 . S
H775 C719 0.930 . S
H776 C722 0.930 . S
H777 C725 0.929 . S
H778 C730 0.929 . S
H779 C731 0.930 . S
H780 C738 0.929 . S
H781 C739 0.930 . S
H782 C740 0.930 . S
H783 C741 0.930 . S
H784 C743 0.929 . S
H785 C744 0.930 . S
H786 C745 0.930 . S
H787 C746 0.930 . S
H788 C750 0.929 . S
H789 C752 0.930 . S
H790 C758 0.929 . S
H791 C759 0.930 . S
Li792 N809 1.990 . S
Li792 O852 1.956 . S
Li792 O853 1.970 . S
Li792 O854 1.961 . S
Li793 N817 1.990 . S
Li793 O852 1.970 . S
Li793 O853 1.956 . S
Li793 O855 1.961 . S
Li794 N839 1.990 . S
Li794 O852 1.961 . S
Li794 O854 1.956 . S
Li794 O855 1.970 . S
Li795 N845 1.990 . S
Li795 O853 1.961 . S
Li795 O854 1.970 . S
Li795 O855 1.956 . S
C796 C798 1.348 . S
C796 C799 1.356 1_556 S
C796 O852 1.325 . S
N797 C800 1.314 . S
N797 C801 1.279 . S
C798 C796 1.348 . S
C798 C800 1.353 1_556 S
C798 H856 0.929 . S
C799 C796 1.356 1_554 S
C799 C801 1.359 . S
C799 H857 0.930 1_554 S
C800 N797 1.314 . S
C800 C798 1.353 1_554 S
C800 H858 0.930 . S
C801 N797 1.279 . S
C801 C799 1.359 . S
C801 H859 0.930 . S
C802 C805 1.348 . S
C802 C806 1.356 . S
C802 O853 1.325 . S
C803 N804 1.279 . S
C803 C806 1.358 . S
C803 H860 0.930 . S
N804 C803 1.279 . S
N804 C807 1.314 . S
C805 C802 1.348 . S
C805 C807 1.353 . S
C805 H861 0.929 . S
C806 C802 1.356 . S
C806 C803 1.358 . S
C806 H862 0.930 . S
C807 N804 1.314 . S
C807 C805 1.353 . S
C807 H863 0.930 . S
C808 N809 1.314 . S
C808 C813 1.353 1_455 S
C808 H814 0.930 1_455 S
N809 Li792 1.990 . S
N809 C808 1.314 . S
N809 C811 1.279 . S
C810 C811 1.358 1_554 S
C810 C812 1.356 1_455 S
C810 H864 0.930 . S
C811 N809 1.279 . S
C811 C810 1.358 1_556 S
C811 H815 0.931 1_556 S
C812 C810 1.356 1_655 S
C812 C813 1.348 1_554 S
C813 C808 1.353 1_655 S
C813 C812 1.348 1_556 S
C813 H865 0.929 . S
H814 C808 0.930 1_655 S
H815 C811 0.931 1_554 S
C816 N817 1.314 . S
C816 C818 1.353 . S
C816 H822 0.930 . S
N817 Li793 1.990 . S
N817 C816 1.314 . S
N817 C820 1.279 . S
C818 C816 1.353 . S
C818 C821 1.348 . S
C818 H866 0.929 . S
C819 C820 1.358 . S
C819 C821 1.356 . S
C819 H867 0.930 . S
C820 N817 1.279 . S
C820 C819 1.358 . S
C820 H823 0.930 . S
C821 C818 1.348 . S
C821 C819 1.356 . S
H822 C816 0.930 . S
H823 C820 0.930 . S
C824 C826 1.348 . S
C824 C827 1.356 . S
C824 O854 1.325 . S
N825 C828 1.314 1_655 S
N825 C829 1.279 . S
C826 C824 1.348 . S
C826 C828 1.353 . S
C826 H868 0.929 . S
C827 C824 1.356 . S
C827 C829 1.358 1_455 S
C827 H869 0.930 . S
C828 N825 1.314 1_455 S
C828 C826 1.353 . S
C828 H870 0.930 1_455 S
C829 N825 1.279 . S
C829 C827 1.358 1_655 S
C829 H871 0.930 . S
C830 C831 1.348 . S
C830 C832 1.356 . S
C830 O855 1.325 . S
C831 C830 1.348 . S
C831 C833 1.353 . S
C831 H872 0.929 . S
C832 C830 1.356 . S
C832 C834 1.358 . S
C832 H873 0.930 . S
C833 C831 1.353 . S
C833 N835 1.314 . S
C833 H874 0.930 . S
C834 C832 1.358 . S
C834 N835 1.279 . S
C834 H875 0.930 . S
N835 C833 1.314 . S
N835 C834 1.279 . S
C836 C838 1.353 . S
C836 N839 1.314 . S
C836 H842 0.930 . S
C837 N839 1.279 . S
C837 C840 1.358 . S
C837 H843 0.930 . S
C838 C836 1.353 . S
C838 C841 1.348 . S
C838 H876 0.929 . S
N839 Li794 1.990 . S
N839 C836 1.314 . S
N839 C837 1.279 . S
C840 C837 1.358 . S
C840 C841 1.356 . S
C840 H877 0.930 . S
C841 C838 1.348 . S
C841 C840 1.356 . S
H842 C836 0.930 . S
H843 C837 0.930 . S
C844 N845 1.314 . S
C844 C846 1.353 . S
C844 H850 0.930 . S
N845 Li795 1.990 . S
N845 C844 1.314 . S
N845 C848 1.279 . S
C846 C844 1.353 . S
C846 C849 1.348 . S
C846 H878 0.929 . S
C847 C848 1.358 . S
C847 C849 1.356 . S
C847 H879 0.930 . S
C848 N845 1.279 . S
C848 C847 1.358 . S
C848 H851 0.930 . S
C849 C846 1.348 . S
C849 C847 1.356 . S
H850 C844 0.930 . S
H851 C848 0.930 . S
O852 Li792 1.956 . S
O852 Li793 1.970 . S
O852 Li794 1.961 . S
O852 C796 1.325 . S
O853 Li792 1.970 . S
O853 Li793 1.956 . S
O853 Li795 1.961 . S
O853 C802 1.325 . S
O854 Li792 1.961 . S
O854 Li794 1.956 . S
O854 Li795 1.970 . S
O854 C824 1.325 . S
O855 Li793 1.961 . S
O855 Li794 1.970 . S
O855 Li795 1.956 . S
O855 C830 1.325 . S
H856 C798 0.929 . S
H857 C799 0.930 1_556 S
H858 C800 0.930 . S
H859 C801 0.930 . S
H860 C803 0.930 . S
H861 C805 0.929 . S
H862 C806 0.930 . S
H863 C807 0.930 . S
H864 C810 0.930 . S
H865 C813 0.929 . S
H866 C818 0.929 . S
H867 C819 0.930 . S
H868 C826 0.929 . S
H869 C827 0.930 . S
H870 C828 0.930 1_655 S
H871 C829 0.930 . S
H872 C831 0.929 . S
H873 C832 0.930 . S
H874 C833 0.930 . S
H875 C834 0.930 . S
H876 C838 0.929 . S
H877 C840 0.930 . S
H878 C846 0.929 . S
H879 C847 0.930 . S
Li880 N897 1.990 . S
Li880 O940 1.956 . S
Li880 O941 1.970 . S
Li880 O942 1.961 . S
Li881 N905 1.990 . S
Li881 O940 1.970 . S
Li881 O941 1.956 . S
Li881 O943 1.961 . S
Li882 N927 1.990 . S
Li882 O940 1.961 . S
Li882 O942 1.956 . S
Li882 O943 1.970 . S
Li883 N933 1.990 . S
Li883 O941 1.961 . S
Li883 O942 1.970 . S
Li883 O943 1.956 . S
C884 C886 1.348 . S
C884 C887 1.356 . S
C884 O940 1.325 . S
N885 C888 1.314 . S
N885 C889 1.279 . S
C886 C884 1.348 . S
C886 C888 1.353 . S
C886 H944 0.929 . S
C887 C884 1.356 . S
C887 C889 1.358 . S
C887 H945 0.930 . S
C888 N885 1.314 . S
C888 C886 1.353 . S
C888 H946 0.930 . S
C889 N885 1.279 . S
C889 C887 1.358 . S
C889 H947 0.930 . S
C890 C893 1.348 . S
C890 C894 1.356 . S
C890 O941 1.325 . S
C891 N892 1.279 . S
C891 C894 1.358 . S
C891 H948 0.930 . S
N892 C891 1.279 . S
N892 C895 1.314 . S
C893 C890 1.348 . S
C893 C895 1.353 . S
C893 H949 0.929 . S
C894 C890 1.356 . S
C894 C891 1.358 . S
C894 H950 0.930 . S
C895 N892 1.314 . S
C895 C893 1.353 . S
C895 H951 0.930 . S
C896 N897 1.314 . S
C896 C901 1.353 . S
C896 H902 0.930 . S
N897 Li880 1.990 . S
N897 C896 1.314 . S
N897 C899 1.279 . S
C898 C899 1.358 . S
C898 C900 1.356 . S
C898 H952 0.930 . S
C899 N897 1.279 . S
C899 C898 1.358 . S
C899 H903 0.930 . S
C900 C898 1.356 . S
C900 C901 1.348 . S
C901 C896 1.353 . S
C901 C900 1.348 . S
C901 H953 0.929 . S
H902 C896 0.930 . S
H903 C899 0.930 . S
C904 N905 1.314 . S
C904 C906 1.353 . S
C904 H910 0.930 . S
N905 Li881 1.990 . S
N905 C904 1.314 . S
N905 C908 1.279 . S
C906 C904 1.353 . S
C906 C909 1.348 . S
C906 H954 0.929 . S
C907 C908 1.358 . S
C907 C909 1.356 . S
C907 H955 0.930 . S
C908 N905 1.279 . S
C908 C907 1.358 . S
C908 H911 0.930 . S
C909 C906 1.348 . S
C909 C907 1.356 . S
H910 C904 0.930 . S
H911 C908 0.930 . S
C912 C914 1.348 . S
C912 C915 1.356 . S
C912 O942 1.325 . S
N913 C916 1.314 . S
N913 C917 1.279 . S
C914 C912 1.348 . S
C914 C916 1.353 . S
C914 H956 0.929 . S
C915 C912 1.356 . S
C915 C917 1.358 . S
C915 H957 0.930 . S
C916 N913 1.314 . S
C916 C914 1.353 . S
C916 H958 0.930 . S
C917 N913 1.279 . S
C917 C915 1.358 . S
C917 H959 0.930 . S
C918 C919 1.348 . S
C918 C920 1.356 . S
C918 O943 1.325 . S
C919 C918 1.348 . S
C919 C921 1.353 . S
C919 H960 0.929 . S
C920 C918 1.356 . S
C920 C922 1.358 . S
C920 H961 0.930 . S
C921 C919 1.353 . S
C921 N923 1.314 . S
C921 H962 0.930 . S
C922 C920 1.358 . S
C922 N923 1.279 . S
C922 H963 0.930 . S
N923 C921 1.314 . S
N923 C922 1.279 . S
C924 C926 1.353 . S
C924 N927 1.314 . S
C924 H930 0.930 . S
C925 N927 1.279 . S
C925 C928 1.358 . S
C925 H931 0.930 . S
C926 C924 1.353 . S
C926 C929 1.348 . S
C926 H964 0.929 . S
N927 Li882 1.990 . S
N927 C924 1.314 . S
N927 C925 1.279 . S
C928 C925 1.358 . S
C928 C929 1.356 . S
C928 H965 0.930 . S
C929 C926 1.348 . S
C929 C928 1.356 . S
H930 C924 0.930 . S
H931 C925 0.930 . S
C932 N933 1.314 . S
C932 C934 1.353 . S
C932 H938 0.930 . S
N933 Li883 1.990 . S
N933 C932 1.314 . S
N933 C936 1.279 . S
C934 C932 1.353 . S
C934 C937 1.357 . S
C934 H966 0.929 . S
C935 C936 1.358 . S
C935 C937 1.354 . S
C935 H967 0.930 1_545 S
C936 N933 1.279 . S
C936 C935 1.358 . S
C936 H939 0.930 . S
C937 C934 1.357 . S
C937 C935 1.354 . S
H938 C932 0.930 . S
H939 C936 0.930 . S
O940 Li880 1.956 . S
O940 Li881 1.970 . S
O940 Li882 1.961 . S
O940 C884 1.325 . S
O941 Li880 1.970 . S
O941 Li881 1.956 . S
O941 Li883 1.961 . S
O941 C890 1.325 . S
O942 Li880 1.961 . S
O942 Li882 1.956 . S
O942 Li883 1.970 . S
O942 C912 1.325 . S
O943 Li881 1.961 . S
O943 Li882 1.970 . S
O943 Li883 1.956 . S
O943 C918 1.325 . S
H944 C886 0.929 . S
H945 C887 0.930 . S
H946 C888 0.930 . S
H947 C889 0.930 . S
H948 C891 0.930 . S
H949 C893 0.929 . S
H950 C894 0.930 . S
H951 C895 0.930 . S
H952 C898 0.930 . S
H953 C901 0.929 . S
H954 C906 0.929 . S
H955 C907 0.930 . S
H956 C914 0.929 . S
H957 C915 0.930 . S
H958 C916 0.930 . S
H959 C917 0.930 . S
H960 C919 0.929 . S
H961 C920 0.930 . S
H962 C921 0.930 . S
H963 C922 0.930 . S
H964 C926 0.929 . S
H965 C928 0.930 . S
H966 C934 0.929 . S
H967 C935 0.930 1_565 S
Li968 N985 1.990 . S
Li968 O1028 1.956 . S
Li968 O1029 1.970 . S
Li968 O1030 1.961 . S
Li969 N993 1.990 . S
Li969 O1028 1.970 . S
Li969 O1029 1.956 . S
Li969 O1031 1.961 . S
Li970 N1015 1.990 . S
Li970 O1028 1.961 . S
Li970 O1030 1.956 . S
Li970 O1031 1.970 . S
Li971 N1021 1.990 . S
Li971 O1029 1.961 . S
Li971 O1030 1.970 . S
Li971 O1031 1.956 . S
C972 C974 1.348 . S
C972 C975 1.356 . S
C972 O1028 1.325 . S
N973 C976 1.314 . S
N973 C977 1.279 . S
C974 C972 1.348 . S
C974 C976 1.353 . S
C974 H1032 0.929 . S
C975 C972 1.356 . S
C975 C977 1.358 . S
C975 H1033 0.930 . S
C976 N973 1.314 . S
C976 C974 1.353 . S
C976 H1034 0.930 . S
C977 N973 1.279 . S
C977 C975 1.358 . S
C977 H1035 0.930 . S
C978 C981 1.367 . S
C978 C982 1.356 . S
C978 O1029 1.325 . S
C979 N980 1.279 . S
C979 C982 1.358 1_554 S
C979 H1036 0.930 . S
N980 C979 1.279 . S
N980 C983 1.314 . S
C981 C978 1.367 . S
C981 C983 1.322 1_556 S
C981 H1037 0.942 . S
C982 C978 1.356 . S
C982 C979 1.358 1_556 S
C982 H1038 0.930 . S
C983 N980 1.314 . S
C983 C981 1.322 1_554 S
C983 H1039 0.930 . S
C984 N985 1.314 . S
C984 C989 1.353 . S
C984 H990 0.930 . S
N985 Li968 1.990 . S
N985 C984 1.314 . S
N985 C987 1.279 . S
C986 C987 1.358 . S
C986 C988 1.356 . S
C986 H1040 0.930 . S
C987 N985 1.279 . S
C987 C986 1.358 . S
C987 H991 0.930 . S
C988 C986 1.356 . S
C988 C989 1.348 . S
C989 C984 1.353 . S
C989 C988 1.348 . S
C989 H1041 0.929 . S
H990 C984 0.930 . S
H991 C987 0.930 . S
C992 N993 1.314 . S
C992 C994 1.353 . S
C992 H998 0.930 . S
N993 Li969 1.990 . S
N993 C992 1.314 . S
N993 C996 1.279 . S
C994 C992 1.353 . S
C994 C997 1.348 1_556 S
C994 H1042 0.929 . S
C995 C996 1.358 1_554 S
C995 C997 1.356 . S
C995 H1043 0.930 . S
C996 N993 1.279 . S
C996 C995 1.358 1_556 S
C996 H999 0.930 1_556 S
C997 C994 1.348 1_554 S
C997 C995 1.356 . S
H998 C992 0.930 . S
H999 C996 0.930 1_554 S
C1000 C1002 1.348 . S
C1000 C1003 1.356 . S
C1000 O1030 1.325 . S
N1001 C1004 1.314 . S
N1001 C1005 1.279 . S
C1002 C1000 1.348 . S
C1002 C1004 1.353 . S
C1002 H1044 0.929 . S
C1003 C1000 1.356 . S
C1003 C1005 1.358 . S
C1003 H1045 0.930 . S
C1004 N1001 1.314 . S
C1004 C1002 1.353 . S
C1004 H1046 0.930 . S
C1005 N1001 1.279 . S
C1005 C1003 1.358 . S
C1005 H1047 0.930 . S
C1006 C1007 1.348 . S
C1006 C1008 1.356 . S
C1006 O1031 1.325 . S
C1007 C1006 1.348 . S
C1007 C1009 1.353 . S
C1007 H1048 0.929 . S
C1008 C1006 1.356 . S
C1008 C1010 1.358 . S
C1008 H1049 0.930 . S
C1009 C1007 1.353 . S
C1009 N1011 1.314 . S
C1009 H1050 0.930 . S
C1010 C1008 1.358 . S
C1010 N1011 1.279 . S
C1010 H1051 0.930 . S
N1011 C1009 1.314 . S
N1011 C1010 1.279 . S
C1012 C1014 1.353 . S
C1012 N1015 1.314 . S
C1012 H1018 0.930 . S
C1013 N1015 1.279 . S
C1013 C1016 1.358 . S
C1013 H1019 0.930 . S
C1014 C1012 1.353 . S
C1014 C1017 1.348 . S
C1014 H1052 0.929 . S
N1015 Li970 1.990 . S
N1015 C1012 1.314 . S
N1015 C1013 1.279 . S
C1016 C1013 1.358 . S
C1016 C1017 1.356 . S
C1016 H1053 0.930 . S
C1017 C1014 1.348 . S
C1017 C1016 1.356 . S
H1018 C1012 0.930 . S
H1019 C1013 0.930 . S
C1020 N1021 1.314 . S
C1020 C1022 1.353 . S
C1020 H1026 0.930 . S
N1021 Li971 1.990 . S
N1021 C1020 1.314 . S
N1021 C1024 1.279 . S
C1022 C1020 1.353 . S
C1022 C1025 1.348 . S
C1022 H1054 0.929 . S
C1023 C1024 1.358 . S
C1023 C1025 1.356 . S
C1023 H1055 0.930 . S
C1024 N1021 1.279 . S
C1024 C1023 1.358 . S
C1024 H1027 0.930 . S
C1025 C1022 1.348 . S
C1025 C1023 1.356 . S
H1026 C1020 0.930 . S
H1027 C1024 0.930 . S
O1028 Li968 1.956 . S
O1028 Li969 1.970 . S
O1028 Li970 1.961 . S
O1028 C972 1.325 . S
O1029 Li968 1.970 . S
O1029 Li969 1.956 . S
O1029 Li971 1.961 . S
O1029 C978 1.325 . S
O1030 Li968 1.961 . S
O1030 Li970 1.956 . S
O1030 Li971 1.970 . S
O1030 C1000 1.325 . S
O1031 Li969 1.961 . S
O1031 Li970 1.970 . S
O1031 Li971 1.956 . S
O1031 C1006 1.325 . S
H1032 C974 0.929 . S
H1033 C975 0.930 . S
H1034 C976 0.930 . S
H1035 C977 0.930 . S
H1036 C979 0.930 . S
H1037 C981 0.942 . S
H1038 C982 0.930 . S
H1039 C983 0.930 . S
H1040 C986 0.930 . S
H1041 C989 0.929 . S
H1042 C994 0.929 . S
H1043 C995 0.930 . S
H1044 C1002 0.929 . S
H1045 C1003 0.930 . S
H1046 C1004 0.930 . S
H1047 C1005 0.930 . S
H1048 C1007 0.929 . S
H1049 C1008 0.930 . S
H1050 C1009 0.930 . S
H1051 C1010 0.930 . S
H1052 C1014 0.929 . S
H1053 C1016 0.930 . S
H1054 C1022 0.929 . S
H1055 C1023 0.930 . S
C929 C57 1.813 . S
C117 C1017 1.740 . S
C205 C577 1.796 . S
C636 C293 1.814 . S
C761 C372 1.740 . S
C460 C849 1.796 . S
C49 C645 1.502 1_546 S
C137 C724 3.819 . S
C812 C225 3.593 1_654 S
C937 C284 1.503 1_545 S
C997 C409 3.818 . S
C557 C497 3.593 1_455 S
C20 C381 2.160 . S
C145 C469 0.837 . S
C233 C29 1.649 . S
C313 C108 2.162 . S
C401 C196 0.837 . S
C489 C321 1.648 . S
C548 C753 0.829 . S
C673 C841 1.675 . S
C900 C733 2.147 . S
C821 C1025 0.828 . S
C909 C585 1.676 . S
C988 C665 2.148 . S
