# Generated by pormake.
# Topology hcp, (12)-cn, num edge types: 1
# Building blocks:
#     Node 0, Type 0, BuildingBlock: BOTCEU_clean_sbu_0, # of connection points: 12
#     Node 1, Type 0, BuildingBlock: BOTCEU_clean_sbu_0, # of connection points: 12
#     Edge 2, Type (0, 0), BuildingBlock: CIFDUS_clean_linker_0, # of connection points: 2
#     Edge 3, Type (0, 0), BuildingBlock: CIFDUS_clean_linker_0, # of connection points: 2
#     Edge 4, Type (0, 0), BuildingBlock: CIFDUS_clean_linker_0, # of connection points: 2
#     Edge 5, Type (0, 0), BuildingBlock: CIFDUS_clean_linker_0, # of connection points: 2
#     Edge 6, Type (0, 0), BuildingBlock: CIFDUS_clean_linker_0, # of connection points: 2
#     Edge 7, Type (0, 0), BuildingBlock: CIFDUS_clean_linker_0, # of connection points: 2
#     Edge 8, Type (0, 0), BuildingBlock: CIFDUS_clean_linker_0, # of connection points: 2
#     Edge 9, Type (0, 0), BuildingBlock: CIFDUS_clean_linker_0, # of connection points: 2
#     Edge 10, Type (0, 0), BuildingBlock: CIFDUS_clean_linker_0, # of connection points: 2
#     Edge 11, Type (0, 0), BuildingBlock: CIFDUS_clean_linker_0, # of connection points: 2
#     Edge 12, Type (0, 0), BuildingBlock: CIFDUS_clean_linker_0, # of connection points: 2
#     Edge 13, Type (0, 0), BuildingBlock: CIFDUS_clean_linker_0, # of connection points: 2
# Relax obj value: 0.164
# Max RMSD: 0.246
# Mean RMSD: 0.246
data_MOF--net-hcp--node1-BOTCEU_clean_sbu_0--edge1-CIFDUS_clean_linker_0
_symmetry_space_group_name_H-M    P1
_symmetry_Int_Tables_number       1
_symmetry_cell_setting            triclinic
loop_
_symmetry_equiv_pos_as_xyz
'x, y, z'
_cell_length_a     25.02384
_cell_length_b     19.802072
_cell_length_c     39.922365
_cell_angle_alpha  98.920905
_cell_angle_beta   87.393801
_cell_angle_gamma 123.63884
loop_
_atom_site_label
_atom_site_type_symbol
_atom_site_fract_x
_atom_site_fract_y
_atom_site_fract_z
_atom_type_partial_charge
C0 C 0.34502 0.04513 0.25992 0.0
C1 C 0.33373 0.97492 0.27067 0.0
C2 C 0.36599 1.0034 0.30251 0.0
N3 N 0.37822 0.10866 0.28476 0.0
N4 N 0.39038 0.08426 0.31066 0.0
C5 C 0.31906 0.05046 0.22807 0.0
H6 H 0.27489 0.04972 0.23336 0.0
H7 H 0.30721 0.99785 0.20806 0.0
H8 H 0.35475 0.10927 0.21904 0.0
C9 C 0.37207 0.95328 0.32447 0.0
H10 H 0.40351 0.99272 0.3474 0.0
H11 H 0.3934 0.92204 0.30992 0.0
H12 H 0.3237 0.90445 0.33134 0.0
C13 C 0.89604 0.39447 0.11964 0.0
C14 C 0.83029 0.40554 0.08935 0.0
C15 C 0.88821 0.41078 0.08815 0.0
N16 N 0.8453 0.38047 0.13787 0.0
N17 N 0.80661 0.38823 0.11999 0.0
H18 H 0.95246 0.34508 0.12283 0.0
H19 H -0.00164 0.45478 0.12554 0.0
H20 H 0.9538 0.40693 0.16148 0.0
C21 C 0.95366 0.40116 0.13339 0.0
H22 H 0.80202 0.38414 0.03681 0.0
H23 H 0.8201 0.47999 0.06022 0.0
H24 H 0.74559 0.38628 0.06667 0.0
C25 C 0.79716 0.41398 0.06162 0.0
C26 C 0.34663 0.23411 0.35722 0.0
C27 C 0.50707 0.25419 0.25168 0.0
C28 C 0.68916 0.10004 0.35821 0.0
N29 N 0.72316 0.17927 0.35295 0.0
N30 N 0.74423 0.1821 0.32201 0.0
C31 C 0.68631 0.05063 0.32833 0.0
C32 C 0.72293 0.10587 0.30615 0.0
H33 H 0.68275 0.12535 0.4123 0.0
H34 H 0.69778 0.04639 0.39837 0.0
H35 H 0.61916 0.02396 0.39152 0.0
C36 C 0.6711 0.07312 0.39224 0.0
H37 H 0.7553 0.13782 0.25674 0.0
H38 H 0.70099 0.0282 0.25782 0.0
H39 H 0.78309 0.08281 0.27374 0.0
C40 C 0.7413 0.08757 0.27142 0.0
C41 C 0.30724 0.27751 0.23811 0.0
C42 C 0.27206 0.18633 0.27293 0.0
N43 N 0.35662 0.27707 0.24948 0.0
N44 N 0.33559 0.2226 0.27034 0.0
C45 C 0.25217 0.21994 0.25262 0.0
H46 H 0.28493 0.2971 0.191 0.0
H47 H 0.29281 0.36883 0.22706 0.0
H48 H 0.36424 0.37702 0.20963 0.0
C49 C 0.3132 0.33391 0.21512 0.0
C50 C 0.23089 0.11962 0.29355 0.0
H51 H 0.18569 0.07089 0.27879 0.0
H52 H 0.21766 0.14506 0.31671 0.0
H53 H 0.25674 0.09292 0.30099 0.0
C54 C 0.8934 0.41014 0.37161 0.0
C55 C 0.67052 0.30396 0.34453 0.0
C56 C 0.64436 0.21436 0.10153 0.0
N57 N 0.6592 0.28409 0.12155 0.0
C58 C 0.5819 0.17544 0.08808 0.0
N59 N 0.60992 0.29104 0.12221 0.0
C60 C 0.56184 0.22671 0.10172 0.0
H61 H 0.72947 0.21844 0.11246 0.0
H62 H 0.71595 0.21992 0.06871 0.0
H63 H 0.66868 0.12548 0.0857 0.0
C64 C 0.6922 0.19284 0.09168 0.0
H65 H 0.48886 0.2504 0.1143 0.0
C66 C 0.50088 0.21863 0.09303 0.0
H67 H 0.50755 0.24808 0.07034 0.0
H68 H 0.46094 0.15295 0.08713 0.0
C69 C 0.74536 0.32984 0.47677 0.0
C70 C 0.80404 0.29581 0.44557 0.0
N71 N 0.72344 0.30923 0.44415 0.0
N72 N 0.75931 0.28917 0.42568 0.0
C73 C 0.79867 0.32485 0.47861 0.0
H74 H 0.71198 0.32283 0.52705 0.0
C75 C 0.71803 0.35629 0.50581 0.0
H76 H 0.67079 0.34327 0.49804 0.0
H77 H 0.75227 0.42259 0.51525 0.0
H78 H 0.86436 0.25104 0.44729 0.0
H79 H 0.90356 0.35092 0.43533 0.0
C80 C 0.85807 0.2891 0.43229 0.0
H81 H 0.84819 0.26105 0.40513 0.0
C82 C 0.75699 0.53436 0.13129 0.0
C83 C 0.69467 0.29357 0.19913 0.0
C84 C 0.96165 0.50808 0.25332 0.0
N85 N 0.90632 0.44254 0.23854 0.0
C86 C 0.98286 0.57084 0.23428 0.0
C87 C 0.93664 0.53795 0.20784 0.0
N88 N 0.89139 0.45993 0.21144 0.0
C89 C -0.00539 0.50898 0.28384 0.0
H90 H 0.95908 0.4631 0.29937 0.0
H91 H 0.02943 0.49256 0.27542 0.0
H92 H 0.02138 0.57113 0.29929 0.0
C93 C 0.93969 0.57611 0.17766 0.0
H94 H 0.89159 0.54313 0.16452 0.0
H95 H 0.95765 0.64178 0.18538 0.0
H96 H 0.97369 0.57272 0.15978 0.0
C97 C 0.3762 0.06754 0.41134 0.0
C98 C 0.40538 0.08566 0.4438 0.0
C99 C 0.45601 0.16646 0.44586 0.0
N100 N 0.41056 0.13439 0.39517 0.0
N101 N 0.45926 0.19125 0.41611 0.0
H102 H 0.27889 0.96909 0.41473 0.0
H103 H 0.32841 0.93905 0.39345 0.0
H104 H 0.30159 0.99148 0.37213 0.0
C105 C 0.3179 0.98718 0.39663 0.0
C106 C 0.50953 0.21268 0.47277 0.0
H107 H 0.53741 0.27938 0.47186 0.0
H108 H 0.48973 0.20141 0.49825 0.0
H109 H 0.54223 0.19114 0.46903 0.0
C110 C 0.82774 0.22259 0.18177 0.0
C111 C 0.78236 0.38882 0.28636 0.0
C112 C 0.56388 0.55626 0.22336 0.0
C113 C 0.55096 0.58152 0.25554 0.0
C114 C 0.5039 0.5079 0.26689 0.0
N115 N 0.52713 0.47392 0.21675 0.0
N116 N 0.49124 0.44433 0.24265 0.0
C117 C 0.61156 0.6091 0.19958 0.0
H118 H 0.59615 0.57847 0.17293 0.0
H119 H 0.61756 0.66967 0.20275 0.0
H120 H 0.65868 0.61905 0.20508 0.0
C121 C 0.4755 0.49824 0.30094 0.0
H122 H 0.45201 0.434 0.30561 0.0
H123 H 0.51328 0.5414 0.3211 0.0
H124 H 0.43895 0.51355 0.30178 0.0
C125 C 0.91376 0.25257 0.30628 0.0
C126 C 0.95791 0.26174 0.28183 0.0
C127 C 0.94564 0.29276 0.2563 0.0
N128 N 0.87839 0.27739 0.29539 0.0
N129 N 0.89669 0.29991 0.26546 0.0
C130 C 0.90281 0.21693 0.33828 0.0
H131 H 0.93584 0.26593 0.35893 0.0
H132 H 0.91266 0.16815 0.33486 0.0
H133 H 0.85279 0.19161 0.34597 0.0
C134 C 0.98258 0.32166 0.22533 0.0
H135 H 0.0347 0.35137 0.23088 0.0
H136 H 0.96589 0.26826 0.20493 0.0
H137 H 0.97441 0.36539 0.21605 0.0
C138 C 0.39918 0.24483 0.16745 0.0
C139 C 0.64239 0.44068 0.21542 0.0
C140 C 0.55324 0.39837 0.42837 0.0
N141 N 0.58074 0.3588 0.41615 0.0
N142 N 0.63563 0.38816 0.43258 0.0
C143 C 0.58942 0.45478 0.45638 0.0
C144 C 0.64254 0.44758 0.45803 0.0
H145 H 0.45373 0.34224 0.43938 0.0
H146 H 0.4833 0.418 0.41149 0.0
H147 H 0.46902 0.31915 0.3957 0.0
C148 C 0.48572 0.36744 0.41818 0.0
H149 H 0.73783 0.49127 0.47559 0.0
H150 H 0.71237 0.5609 0.48841 0.0
H151 H 0.68049 0.47238 0.50855 0.0
C152 C 0.69686 0.49562 0.48408 0.0
C153 C 0.58281 0.44135 0.09027 0.0
N154 N 0.58089 0.42188 0.12121 0.0
N155 N 0.53549 0.42425 0.13827 0.0
C156 C 0.53707 0.45986 0.08772 0.0
C157 C 0.50806 0.4484 0.11904 0.0
C158 C 0.62839 0.44346 0.06421 0.0
H159 H 0.6518 0.50119 0.05324 0.0
H160 H 0.60146 0.39109 0.0434 0.0
H161 H 0.66503 0.43753 0.07542 0.0
C162 C 0.456 0.46078 0.1306 0.0
H163 H 0.47787 0.52664 0.14078 0.0
H164 H 0.42207 0.44333 0.10901 0.0
H165 H 0.43004 0.42458 0.15122 0.0
C166 C 0.57442 0.1384 0.39409 0.0
C167 C 0.54409 0.30554 0.33432 0.0
Cu168 Cu 0.39561 0.21353 0.29102 0.0
Cu169 Cu 0.42321 0.16324 0.35009 0.0
Cu170 Cu 0.75533 0.28366 0.37908 0.0
Cu171 Cu 0.81169 0.28391 0.31299 0.0
Cu172 Cu 0.73495 0.37535 0.14155 0.0
Cu173 Cu 0.62691 0.39219 0.14285 0.0
Cu174 Cu 0.85369 0.33517 0.24536 0.0
Cu175 Cu 0.82661 0.37021 0.183 0.0
Cu176 Cu 0.52616 0.39845 0.18235 0.0
Cu177 Cu 0.44185 0.32853 0.23841 0.0
Cu178 Cu 0.53554 0.25134 0.39667 0.0
Cu179 Cu 0.66563 0.31678 0.41885 0.0
H180 H 0.36247 0.26728 0.38349 0.0
H181 H 0.30632 0.16979 0.35815 0.0
H182 H 0.33062 0.26496 0.34349 0.0
H183 H 0.50033 0.20472 0.26476 0.0
H184 H 0.5588 0.30389 0.25263 0.0
H185 H 0.48931 0.22793 0.22487 0.0
H186 H 0.91838 0.46305 0.35754 0.0
H187 H 0.92121 0.38179 0.37101 0.0
H188 H 0.88925 0.43231 0.39825 0.0
H189 H 0.69059 0.27872 0.32517 0.0
H190 H 0.67527 0.35851 0.33699 0.0
H191 H 0.6201 0.25427 0.34664 0.0
H192 H 0.72916 0.56231 0.13019 0.0
H193 H 0.77043 0.52175 0.10542 0.0
H194 H 0.80108 0.57755 0.14783 0.0
H195 H 0.69265 0.23718 0.1881 0.0
H196 H 0.6491 0.28603 0.1921 0.0
H197 H 0.7005 0.303 0.22705 0.0
H198 H 0.78932 0.18302 0.16154 0.0
H199 H 0.87486 0.25659 0.17013 0.0
H200 H 0.82827 0.18369 0.19881 0.0
H201 H 0.80913 0.43494 0.26922 0.0
H202 H 0.73078 0.36511 0.28344 0.0
H203 H 0.80037 0.41873 0.31289 0.0
H204 H 0.35323 0.22039 0.18029 0.0
H205 H 0.40073 0.27927 0.14762 0.0
H206 H 0.40237 0.19275 0.15562 0.0
H207 H 0.61704 0.44702 0.23797 0.0
H208 H 0.66847 0.41363 0.22181 0.0
H209 H 0.6771 0.50221 0.20837 0.0
H210 H 0.60672 0.14645 0.37314 0.0
H211 H 0.58142 0.11049 0.414 0.0
H212 H 0.52402 0.09775 0.38368 0.0
H213 H 0.58061 0.35943 0.35213 0.0
H214 H 0.56855 0.2983 0.3117 0.0
H215 H 0.50843 0.31807 0.32772 0.0
O216 O 0.39628 0.23467 0.3409 0.0
O217 O 0.47306 0.285 0.26709 0.0
O218 O 0.83322 0.35357 0.35687 0.0
O219 O 0.70328 0.32596 0.37482 0.0
O220 O 0.72027 0.46269 0.14443 0.0
O221 O 0.74539 0.35974 0.18658 0.0
O222 O 0.81594 0.27706 0.20011 0.0
O223 O 0.79094 0.32558 0.27807 0.0
O224 O 0.4497 0.29594 0.19065 0.0
O225 O 0.59867 0.39108 0.18881 0.0
O226 O 0.58581 0.21279 0.40826 0.0
O227 O 0.51555 0.23629 0.34942 0.0
C228 C 0.02114 0.54017 0.77474 0.0
C229 C -0.00615 0.47129 0.7908 0.0
C230 C 0.03985 0.49146 0.81574 0.0
N231 N 0.07934 0.59673 0.78979 0.0
N232 N 0.09096 0.56783 0.81395 0.0
C233 C 0.98939 0.55544 0.74869 0.0
H234 H 0.02342 0.61463 0.7398 0.0
H235 H 0.94799 0.55563 0.7598 0.0
H236 H 0.9708 0.50611 0.72643 0.0
C237 C 0.03443 0.44067 0.8414 0.0
H238 H 0.08291 0.46043 0.8507 0.0
H239 H 0.00658 0.3746 0.83027 0.0
H240 H 0.0086 0.44895 0.86329 0.0
C241 C 0.57644 0.93499 0.58694 0.0
C242 C 0.4872 0.83115 0.56011 0.0
C243 C 0.53795 0.90934 0.5569 0.0
N244 N 0.54733 0.87469 0.60681 0.0
N245 N 0.49306 0.81486 0.59048 0.0
H246 H 0.67027 0.03041 0.57553 0.0
H247 H 0.62632 0.06511 0.60021 0.0
H248 H 0.66044 0.01895 0.62 0.0
C249 C 0.63705 0.01717 0.59662 0.0
H250 H 0.40176 0.71435 0.54067 0.0
H251 H 0.43843 0.78615 0.51073 0.0
H252 H 0.39425 0.80056 0.54452 0.0
C253 C 0.42691 0.77976 0.5377 0.0
C254 C 0.17829 0.8046 0.85387 0.0
C255 C 0.19519 0.63634 0.73931 0.0
C256 C 0.44814 0.48267 0.77884 0.0
N257 N 0.47782 0.56462 0.78553 0.0
N258 N 0.51059 0.59778 0.75929 0.0
C259 C 0.46329 0.46205 0.74644 0.0
C260 C 0.5039 0.53762 0.73501 0.0
H261 H 0.41846 0.45908 0.82959 0.0
H262 H 0.41419 0.37463 0.80155 0.0
H263 H 0.35593 0.39919 0.79678 0.0
C264 C 0.40721 0.42573 0.80326 0.0
H265 H 0.54613 0.6112 0.69525 0.0
H266 H 0.50386 0.50073 0.6814 0.0
H267 H 0.58105 0.55661 0.70385 0.0
C268 C 0.53517 0.55237 0.70176 0.0
C269 C 0.09064 0.81122 0.73351 0.0
C270 C 0.06418 0.77408 0.78433 0.0
N271 N 0.12212 0.7786 0.74158 0.0
N272 N 0.10726 0.75786 0.77199 0.0
C273 C 0.05244 0.8092 0.76038 0.0
H274 H 0.06155 0.79297 0.68161 0.0
H275 H 0.08935 0.89367 0.70455 0.0
H276 H 0.14573 0.86555 0.69112 0.0
C277 C 0.09748 0.84336 0.70093 0.0
C278 C 0.02913 0.74605 0.81587 0.0
H279 H 0.97718 0.71961 0.81155 0.0
H280 H 0.04869 0.79946 0.83652 0.0
H281 H 0.03555 0.69973 0.82399 0.0
C282 C 0.60446 0.79294 0.83542 0.0
C283 C 0.3558 0.58496 0.79322 0.0
C284 C 0.3994 0.60916 0.58939 0.0
N285 N 0.37531 0.65282 0.60166 0.0
C286 C 0.35708 0.54651 0.56463 0.0
N287 N 0.31728 0.62098 0.58853 0.0
C288 C 0.30448 0.55524 0.56497 0.0
H289 H 0.49464 0.65782 0.57181 0.0
H290 H 0.47242 0.59211 0.60353 0.0
H291 H 0.4905 0.69422 0.61565 0.0
C292 C 0.46843 0.64032 0.59544 0.0
H293 H 0.20631 0.5091 0.55266 0.0
C294 C 0.24563 0.50352 0.54197 0.0
H295 H 0.25669 0.523 0.5166 0.0
H296 H 0.23035 0.43838 0.53859 0.0
C297 C 0.43478 0.59231 0.91531 0.0
C298 C 0.50847 0.59026 0.88337 0.0
N299 N 0.43106 0.6093 0.88463 0.0
N300 N 0.47575 0.60999 0.86559 0.0
C301 C 0.48371 0.57878 0.91572 0.0
H302 H 0.37219 0.53112 0.9544 0.0
C303 C 0.39134 0.58781 0.94315 0.0
H304 H 0.35144 0.58974 0.93356 0.0
H305 H 0.41886 0.64142 0.9634 0.0
H306 H 0.54177 0.51642 0.86032 0.0
H307 H 0.59917 0.60448 0.88986 0.0
C308 C 0.56154 0.58217 0.86962 0.0
H309 H 0.58251 0.61654 0.84796 0.0
C310 C 0.38533 0.87611 0.62015 0.0
C311 C 0.4353 0.72457 0.67959 0.0
C312 C 0.65565 0.99608 0.73498 0.0
N313 N 0.61503 0.92747 0.71367 0.0
C314 C 0.66161 0.06215 0.72296 0.0
C315 C 0.62014 0.02665 0.69402 0.0
N316 N 0.59414 0.94523 0.68879 0.0
C317 C 0.69546 0.9993 0.76285 0.0
H318 H 0.67396 0.93753 0.7699 0.0
H319 H 0.74471 0.02237 0.75425 0.0
H320 H 0.6991 0.04178 0.78562 0.0
C321 C 0.60352 0.06975 0.67326 0.0
H322 H 0.58697 0.10399 0.6902 0.0
H323 H 0.64671 0.11577 0.66122 0.0
H324 H 0.56484 0.02509 0.65376 0.0
C325 C 0.10706 0.61786 0.90813 0.0
C326 C 0.12039 0.60032 0.93796 0.0
C327 C 0.17622 0.60134 0.93199 0.0
N328 N 0.15256 0.6283 0.88634 0.0
N329 N 0.19343 0.6175 0.90032 0.0
H330 H 0.05718 0.67788 0.91225 0.0
H331 H 0.00587 0.5681 0.90908 0.0
H332 H 0.04435 0.61507 0.87185 0.0
C333 C 0.05009 0.6193 0.89964 0.0
C334 C 0.21473 0.59305 0.95662 0.0
H335 H 0.21347 0.62164 0.98261 0.0
H336 H 0.19357 0.52698 0.95697 0.0
H337 H 0.26516 0.62204 0.94895 0.0
C338 C 0.62341 0.78444 0.64018 0.0
C339 C 0.49936 0.79925 0.75834 0.0
C340 C 0.28578 0.92644 0.66584 0.0
C341 C 0.29808 0.98013 0.69603 0.0
C342 C 0.27226 0.92956 0.72081 0.0
N343 N 0.25693 0.84932 0.67319 0.0
N344 N 0.24735 0.85167 0.70598 0.0
C345 C 0.28848 0.9466 0.63099 0.0
H346 H 0.27084 0.89164 0.61141 0.0
H347 H 0.25839 0.97122 0.62917 0.0
H348 H 0.33858 0.99548 0.62639 0.0
C349 C 0.26261 0.95317 0.75692 0.0
H350 H 0.25364 0.90599 0.7723 0.0
H351 H 0.30533 0.014 0.76767 0.0
H352 H 0.22044 0.95796 0.75798 0.0
C353 C 0.69011 0.75952 0.75799 0.0
C354 C 0.74118 0.80945 0.7391 0.0
C355 C 0.71856 0.84144 0.7196 0.0
N356 N 0.64026 0.7626 0.74985 0.0
N357 N 0.65709 0.81125 0.72675 0.0
C358 C 0.68745 0.70602 0.78153 0.0
H359 H 0.71993 0.74519 0.80419 0.0
H360 H 0.7047 0.66804 0.76878 0.0
H361 H 0.63778 0.66583 0.78969 0.0
C362 C 0.75537 0.90101 0.6955 0.0
H363 H 0.80464 0.94859 0.70643 0.0
H364 H 0.7599 0.86811 0.67154 0.0
H365 H 0.73053 0.93047 0.6899 0.0
C366 C 0.07826 0.62654 0.66605 0.0
C367 C 0.30324 0.7183 0.67722 0.0
C368 C 0.35194 0.79958 0.91123 0.0
N369 N 0.33809 0.73063 0.89084 0.0
N370 N 0.39017 0.72972 0.88726 0.0
C371 C 0.4166 0.84429 0.92156 0.0
C372 C 0.43913 0.7973 0.90599 0.0
H373 H 0.26106 0.78531 0.90615 0.0
H374 H 0.28554 0.79025 0.94867 0.0
H375 H 0.32329 0.88255 0.93002 0.0
C376 C 0.30261 0.8157 0.92463 0.0
H377 H 0.51495 0.78168 0.88953 0.0
H378 H 0.54123 0.87887 0.9165 0.0
H379 H 0.50281 0.78526 0.93434 0.0
C380 C 0.5036 0.81202 0.91173 0.0
C381 C 0.19728 0.6737 0.55097 0.0
N382 N 0.22792 0.70113 0.58178 0.0
N383 N 0.19895 0.72886 0.60241 0.0
C384 C 0.14555 0.68253 0.55268 0.0
C385 C 0.14992 0.72025 0.58566 0.0
C386 C 0.21441 0.63622 0.52069 0.0
H387 H 0.21298 0.66133 0.49799 0.0
H388 H 0.17816 0.56904 0.51576 0.0
H389 H 0.26317 0.64965 0.52471 0.0
C390 C 0.10159 0.73459 0.6024 0.0
H391 H 0.09353 0.7714 0.58755 0.0
H392 H 0.05491 0.67503 0.60263 0.0
H393 H 0.11856 0.76749 0.62873 0.0
C394 C 0.25504 0.48198 0.88144 0.0
C395 C 0.28526 0.69456 0.8108 0.0
Cu396 Cu 0.14107 0.70463 0.78639 0.0
Cu397 Cu 0.16406 0.64505 0.84146 0.0
Cu398 Cu 0.47847 0.63608 0.82193 0.0
Cu399 Cu 0.55742 0.71321 0.76468 0.0
Cu400 Cu 0.42462 0.76288 0.61661 0.0
Cu401 Cu 0.29012 0.695 0.60338 0.0
Cu402 Cu 0.59445 0.82112 0.70978 0.0
Cu403 Cu 0.54903 0.85782 0.65301 0.0
Cu404 Cu 0.21413 0.74181 0.6487 0.0
Cu405 Cu 0.17755 0.75614 0.71878 0.0
Cu406 Cu 0.26198 0.63384 0.87417 0.0
Cu407 Cu 0.37744 0.63154 0.86583 0.0
H408 H 0.22141 0.84169 0.87147 0.0
H409 H 0.13468 0.7715 0.86845 0.0
H410 H 0.17473 0.84613 0.83977 0.0
H411 H 0.17294 0.59399 0.75824 0.0
H412 H 0.24452 0.65149 0.73584 0.0
H413 H 0.16653 0.60533 0.71495 0.0
H414 H 0.6492 0.81541 0.82152 0.0
H415 H 0.60393 0.75925 0.85529 0.0
H416 H 0.60282 0.84615 0.84737 0.0
H417 H 0.35767 0.53041 0.78477 0.0
H418 H 0.36469 0.61823 0.77156 0.0
H419 H 0.30731 0.56352 0.80246 0.0
H420 H 0.36551 0.87752 0.64532 0.0
H421 H 0.36595 0.89404 0.60145 0.0
H422 H 0.4383 0.91978 0.62278 0.0
H423 H 0.39401 0.66846 0.66508 0.0
H424 H 0.41834 0.73771 0.70422 0.0
H425 H 0.472 0.7114 0.68277 0.0
H426 H 0.60134 0.75035 0.61464 0.0
H427 H 0.66403 0.8475 0.63753 0.0
H428 H 0.64093 0.7523 0.65176 0.0
H429 H 0.49915 0.84253 0.74384 0.0
H430 H 0.44978 0.75412 0.76508 0.0
H431 H 0.53015 0.8349 0.78183 0.0
H432 H 0.05728 0.57701 0.68188 0.0
H433 H 0.0518 0.65698 0.66905 0.0
H434 H 0.07453 0.59908 0.63915 0.0
H435 H 0.28815 0.74537 0.69877 0.0
H436 H 0.30153 0.66485 0.68383 0.0
H437 H 0.35208 0.76721 0.67171 0.0
H438 H 0.28792 0.46092 0.88141 0.0
H439 H 0.24197 0.49179 0.90776 0.0
H440 H 0.211 0.43456 0.86557 0.0
H441 H 0.2752 0.73961 0.80522 0.0
H442 H 0.33279 0.72819 0.82452 0.0
H443 H 0.28677 0.65938 0.78687 0.0
O444 O 0.18374 0.74925 0.83136 0.0
O445 O 0.19685 0.70668 0.75051 0.0
O446 O 0.5522 0.74169 0.81327 0.0
O447 O 0.40123 0.63574 0.819 0.0
O448 O 0.37094 0.79893 0.60863 0.0
O449 O 0.45878 0.78933 0.66204 0.0
O450 O 0.57903 0.78833 0.66033 0.0
O451 O 0.52364 0.75915 0.73925 0.0
O452 O 0.14162 0.68277 0.676 0.0
O453 O 0.26296 0.69364 0.64962 0.0
O454 O 0.28502 0.55387 0.86832 0.0
O455 O 0.23858 0.64169 0.83031 0.0
H456 H 0.46055 0.84855 0.98276 0.0
H457 H 0.4428 0.99659 0.92147 0.0
H458 H 0.49151 0.11279 0.96811 0.0
H459 H 0.53932 0.17168 0.02635 0.0
H460 H 0.55384 0.02209 0.08826 0.0
H461 H 0.50655 0.9067 0.04139 0.0
C462 C 0.46814 0.90671 0.97968 0.0
C463 C 0.44903 0.91509 0.94894 0.0
C464 C 0.49517 0.97236 1.00668 0.0
C465 C 0.45765 0.98964 0.94508 0.0
C466 C 0.48524 0.05569 0.97168 0.0
C467 C 0.53125 0.11338 0.02961 0.0
C468 C 0.54982 0.10481 0.06049 0.0
C469 C 0.5039 0.0476 1.00264 0.0
C470 C 0.54025 0.02975 0.06445 0.0
C471 C 0.51321 0.96398 0.03775 0.0
H472 H 0.40541 0.45461 0.56945 0.0
H473 H 0.37209 0.57287 0.49886 0.0
H474 H 0.45097 0.56847 0.46164 0.0
H475 H 0.53575 0.54072 0.45128 0.0
H476 H 0.56766 0.41983 0.5212 0.0
H477 H 0.48786 0.42267 0.55813 0.0
C478 C 0.41388 0.47684 0.54532 0.0
C479 C 0.38175 0.5127 0.53675 0.0
C480 C 0.46233 0.47865 0.52506 0.0
C481 C 0.39429 0.54266 0.50569 0.0
C482 C 0.44098 0.5424 0.48489 0.0
C483 C 0.52601 0.51628 0.47494 0.0
C484 C 0.55882 0.48141 0.48364 0.0
C485 C 0.47678 0.51305 0.49487 0.0
C486 C 0.54518 0.44961 0.51431 0.0
C487 C 0.49799 0.44902 0.53496 0.0
H488 H 0.93593 0.54589 0.05854 0.0
H489 H 0.94501 0.33472 0.05785 0.0
H490 H 0.0207 0.37691 0.0122 0.0
H491 H 0.0803 0.47103 0.9708 0.0
H492 H 0.07204 0.68321 0.97238 0.0
H493 H -0.00095 0.64299 0.01901 0.0
C494 C 0.95405 0.5088 0.04809 0.0
C495 C 0.9345 0.43682 0.06101 0.0
C496 C -0.00258 0.53357 0.02202 0.0
C497 C 0.9596 0.3904 0.04814 0.0
C498 C 0.00264 0.41439 0.02205 0.0
C499 C 0.06336 0.50909 0.98179 0.0
C500 C 0.08103 0.57962 0.96811 0.0
C501 C 0.02157 0.48562 0.00865 0.0
C502 C 0.05806 0.62784 0.98215 0.0
C503 C 0.01661 0.60509 0.00888 0.0
H504 H 0.46333 0.96928 0.56625 0.0
H505 H 0.58964 0.94736 0.49543 0.0
H506 H 0.54943 0.9845 0.4513 0.0
H507 H 0.47478 0.01818 0.43244 0.0
H508 H 0.35 0.04206 0.50376 0.0
H509 H 0.38863 1.00216 0.5474 0.0
C510 C 0.48335 0.97504 0.54143 0.0
C511 C 0.53105 0.95813 0.53451 0.0
C512 C 0.45726 0.99183 0.51577 0.0
C513 C 0.55485 0.963 0.50183 0.0
C514 C 0.53056 0.98217 0.47637 0.0
C515 C 0.45485 1.01231 0.45726 0.0
C516 C 0.40822 0.03105 0.46451 0.0
C517 C 0.48066 0.99478 0.48284 0.0
C518 C 0.38398 0.02515 0.4971 0.0
C519 C 0.40749 1.00458 0.52232 0.0
H520 H 0.52026 0.39762 0.02046 0.0
H521 H 0.53117 0.59394 0.09081 0.0
H522 H 0.51952 0.65093 0.04362 0.0
H523 H 0.50783 0.64592 0.98232 0.0
H524 H 0.49578 0.44909 0.91187 0.0
H525 H 0.51043 0.39401 0.95895 0.0
C526 C 0.52088 0.45341 0.02542 0.0
C527 C 0.52651 0.49149 0.05909 0.0
C528 C 0.51528 0.48653 0.9981 0.0
C529 C 0.52568 0.56264 0.06517 0.0
C530 C 0.5198 0.59577 0.03818 0.0
C531 C 0.50795 0.59064 0.97731 0.0
C532 C 0.50034 0.5513 0.9437 0.0
C533 C 0.51467 0.5583 1.00455 0.0
C534 C 0.50244 0.48109 0.93748 0.0
C535 C 0.50999 0.44904 0.96443 0.0
H536 H 0.86775 0.48833 0.48469 0.0
H537 H 0.86098 0.28777 0.51868 0.0
H538 H 0.97164 0.38186 0.54265 0.0
H539 H 0.07147 0.5199 0.55107 0.0
H540 H 0.07883 0.71996 0.51618 0.0
H541 H 0.96665 0.6269 0.49429 0.0
C542 C 0.88999 0.46606 0.49841 0.0
C543 C 0.85628 0.38219 0.50101 0.0
C544 C 0.95406 0.51963 0.51059 0.0
C545 C 0.88586 0.35272 0.51746 0.0
C546 C 0.94924 0.40613 0.53052 0.0
C547 C 0.04871 0.54232 0.53789 0.0
C548 C 0.08325 0.62548 0.534 0.0
C549 C 0.98417 0.48918 0.52646 0.0
C550 C 0.05319 0.65539 0.51833 0.0
C551 C 0.98907 0.6026 0.50637 0.0
H552 H 0.73778 0.96205 0.30684 0.0
H553 H 0.55951 0.9357 0.33434 0.0
H554 H 0.5012 0.78649 0.31689 0.0
H555 H 0.50011 0.66425 0.28892 0.0
H556 H 0.67998 0.69232 0.26364 0.0
H557 H 0.73819 0.83907 0.28491 0.0
C558 C 0.68623 0.92341 0.30921 0.0
C559 C 0.65286 0.95971 0.32156 0.0
C560 C 0.65317 0.83775 0.2992 0.0
C561 C 0.58623 0.90898 0.32501 0.0
C562 C 0.55285 0.82371 0.31486 0.0
C563 C 0.5521 0.70233 0.28871 0.0
C564 C 0.58548 0.66759 0.27393 0.0
C565 C 0.58563 0.78737 0.30129 0.0
C566 C 0.65292 0.71782 0.27395 0.0
C567 C 0.68636 0.80185 0.28625 0.0
H568 H 0.9678 0.76663 0.70924 0.0
H569 H 0.02367 0.88755 0.81301 0.0
H570 H 0.9322 0.90142 0.81545 0.0
H571 H 0.83294 0.87142 0.78853 0.0
H572 H 0.78277 0.75908 0.68363 0.0
H573 H 0.87772 0.75252 0.68044 0.0
C574 C 0.96148 0.79867 0.732 0.0
C575 C 0.00219 0.82615 0.76088 0.0
C576 C 0.91012 0.80797 0.73288 0.0
C577 C 0.99204 0.86483 0.79064 0.0
C578 C 0.94014 0.87316 0.79197 0.0
C579 C 0.84374 0.84668 0.76499 0.0
C580 C 0.8019 0.81553 0.73637 0.0
C581 C 0.89831 0.84365 0.76339 0.0
C582 C 0.81533 0.78375 0.70577 0.0
C583 C 0.86909 0.77958 0.70404 0.0
H584 H 0.21406 0.93812 0.26478 0.0
H585 H 0.3222 0.82698 0.25689 0.0
H586 H 0.22188 0.69004 0.24452 0.0
H587 H 0.10295 0.6032 0.2368 0.0
H588 H -0.00222 0.7183 0.24365 0.0
H589 H 0.09823 0.85398 0.25453 0.0
C590 C 0.21601 0.88418 0.25931 0.0
C591 C 0.27528 0.89224 0.2608 0.0
C592 C 0.15886 0.80697 0.25206 0.0
C593 C 0.27692 0.82178 0.25544 0.0
C594 C 0.21974 0.74387 0.24841 0.0
C595 C 0.10249 0.65831 0.24064 0.0
C596 C 0.04374 0.65179 0.23942 0.0
C597 C 0.16041 0.73586 0.24683 0.0
C598 C 0.04288 0.72271 0.24416 0.0
C599 C 0.10006 0.79989 0.25053 0.0
H600 H 0.34138 0.32725 0.73882 0.0
H601 H 0.53599 0.40801 0.71571 0.0
H602 H 0.50111 0.26566 0.69458 0.0
H603 H 0.41611 0.11596 0.68814 0.0
H604 H 0.22287 0.03739 0.71373 0.0
H605 H 0.25598 0.18037 0.72867 0.0
C606 C 0.37611 0.31365 0.72908 0.0
C607 C 0.44128 0.37789 0.72921 0.0
C608 C 0.35584 0.23171 0.7177 0.0
C609 C 0.48551 0.35967 0.71573 0.0
C610 C 0.46561 0.27816 0.70392 0.0
C611 C 0.38133 0.13062 0.69646 0.0
C612 C 0.31732 0.06665 0.70017 0.0
C613 C 0.40108 0.21337 0.70551 0.0
C614 C 0.27249 0.08586 0.71105 0.0
C615 C 0.29142 0.16752 0.71958 0.0
H616 H 0.20239 0.25936 0.30634 0.0
H617 H 0.1664 0.16357 0.19952 0.0
H618 H 0.06616 0.1588 0.20017 0.0
H619 H 0.99306 0.18949 0.23089 0.0
H620 H 0.0379 0.30237 0.33602 0.0
H621 H 0.12923 0.28954 0.33697 0.0
C622 C 0.1718 0.23633 0.28342 0.0
C623 C 0.19035 0.21118 0.25301 0.0
C624 C 0.11607 0.2364 0.28389 0.0
C625 C 0.15203 0.18292 0.22312 0.0
C626 C 0.09513 0.18025 0.22355 0.0
C627 C 0.02319 0.21186 0.25388 0.0
C628 C 0.00919 0.24711 0.28327 0.0
C629 C 0.07738 0.20824 0.2537 0.0
C630 C 0.04719 0.27367 0.31325 0.0
C631 C 0.09984 0.26732 0.3137 0.0
H632 H 0.94069 0.37574 0.73058 0.0
H633 H 0.90091 0.40049 0.83627 0.0
H634 H 0.79057 0.27988 0.82413 0.0
H635 H 0.70625 0.16596 0.78304 0.0
H636 H 0.74884 0.14328 0.6776 0.0
H637 H 0.85575 0.26841 0.68949 0.0
C638 C 0.90739 0.35578 0.7508 0.0
C639 C 0.92833 0.39684 0.78413 0.0
C640 C 0.84413 0.28818 0.74347 0.0
C641 C 0.88574 0.36883 0.81043 0.0
C642 C 0.82259 0.30066 0.80343 0.0
C643 C 0.73881 0.18943 0.76271 0.0
C644 C 0.71957 0.1464 0.72947 0.0
C645 C 0.80129 0.2598 0.77 0.0
C646 C 0.76189 0.17684 0.70321 0.0
C647 C 0.82349 0.24746 0.7101 0.0
loop_
_geom_bond_atom_site_label_1
_geom_bond_atom_site_label_2
_geom_bond_distance
_geom_bond_site_symmetry_2
_ccdc_geom_bond_type
C0 C1 1.388 . S
C0 N3 1.338 . S
C0 C5 1.503 . S
C1 C0 1.388 . S
C1 C2 1.396 . S
C2 C1 1.396 . S
C2 N4 1.348 . S
C2 C9 1.504 . S
N3 C0 1.338 . S
N3 N4 1.361 . S
N3 Cu168 1.924 . S
N4 C2 1.348 . S
N4 N3 1.361 . S
N4 Cu169 1.964 . S
C5 C0 1.503 . S
C5 H6 0.979 . S
C5 H7 0.979 . S
C5 H8 0.979 . S
H6 C5 0.979 . S
H7 C5 0.979 . S
H8 C5 0.979 . S
C9 C2 1.504 . S
C9 H10 0.981 . S
C9 H11 0.980 1_545 S
C9 H12 0.979 . S
H10 C9 0.981 . S
H11 C9 0.980 1_565 S
H12 C9 0.979 . S
C13 C15 1.402 . S
C13 N16 1.356 . S
C13 C21 1.481 1_655 S
C14 C15 1.400 . S
C14 N17 1.325 . S
C14 C25 1.503 . S
C15 C13 1.402 . S
C15 C14 1.400 . S
N16 C13 1.356 . S
N16 N17 1.365 . S
N16 Cu175 1.941 . S
N17 C14 1.325 . S
N17 N16 1.365 . S
N17 Cu172 1.924 . S
H18 C21 0.980 . S
H19 C21 0.980 . S
H20 C21 0.980 . S
C21 C13 1.481 1_455 S
C21 H18 0.980 . S
C21 H19 0.980 . S
C21 H20 0.980 . S
H22 C25 0.978 . S
H23 C25 0.978 . S
H24 C25 0.983 . S
C25 C14 1.503 . S
C25 H22 0.978 . S
C25 H23 0.978 . S
C25 H24 0.983 . S
C26 H180 0.979 . S
C26 H181 0.981 . S
C26 H182 0.981 . S
C26 O216 1.438 . S
C27 H183 0.980 . S
C27 H184 0.979 . S
C27 H185 0.980 . S
C27 O217 1.533 . S
C28 N29 1.338 . S
C28 C31 1.388 . S
C28 C36 1.503 . S
N29 C28 1.338 . S
N29 N30 1.361 . S
N29 Cu170 1.924 . S
N30 N29 1.361 . S
N30 C32 1.348 . S
N30 Cu171 1.964 . S
C31 C28 1.388 . S
C31 C32 1.396 . S
C32 N30 1.348 . S
C32 C31 1.396 . S
C32 C40 1.504 . S
H33 C36 0.979 . S
H34 C36 0.979 1_565 S
H35 C36 0.979 . S
C36 C28 1.503 . S
C36 H33 0.979 . S
C36 H34 0.979 1_545 S
C36 H35 0.979 . S
H37 C40 0.981 . S
H38 C40 0.980 . S
H39 C40 0.979 . S
C40 C32 1.504 . S
C40 H37 0.981 . S
C40 H38 0.980 . S
C40 H39 0.979 . S
C41 N43 1.356 . S
C41 C45 1.402 . S
C41 C49 1.481 . S
C42 N44 1.325 . S
C42 C45 1.400 . S
C42 C50 1.503 . S
N43 C41 1.356 . S
N43 N44 1.365 . S
N43 Cu177 1.941 . S
N44 C42 1.325 . S
N44 N43 1.365 . S
N44 Cu168 1.924 . S
C45 C41 1.402 . S
C45 C42 1.400 . S
H46 C49 0.980 . S
H47 C49 0.980 . S
H48 C49 0.980 . S
C49 C41 1.481 . S
C49 H46 0.980 . S
C49 H47 0.980 . S
C49 H48 0.980 . S
C50 C42 1.503 . S
C50 H51 0.978 . S
C50 H52 0.978 . S
C50 H53 0.983 . S
H51 C50 0.978 . S
H52 C50 0.978 . S
H53 C50 0.983 . S
C54 H186 0.979 . S
C54 H187 0.981 . S
C54 H188 0.981 . S
C54 O218 1.438 . S
C55 H189 0.980 . S
C55 H190 0.979 . S
C55 H191 0.980 . S
C55 O219 1.533 . S
C56 N57 1.338 . S
C56 C58 1.388 . S
C56 C64 1.503 . S
N57 C56 1.338 . S
N57 N59 1.361 . S
N57 Cu172 1.924 . S
C58 C56 1.388 . S
C58 C60 1.396 . S
N59 N57 1.361 . S
N59 C60 1.348 . S
N59 Cu173 1.964 . S
C60 C58 1.396 . S
C60 N59 1.348 . S
C60 C66 1.504 . S
H61 C64 0.979 . S
H62 C64 0.979 . S
H63 C64 0.979 . S
C64 C56 1.503 . S
C64 H61 0.979 . S
C64 H62 0.979 . S
C64 H63 0.979 . S
H65 C66 0.981 . S
C66 C60 1.504 . S
C66 H65 0.981 . S
C66 H67 0.979 . S
C66 H68 0.980 . S
H67 C66 0.979 . S
H68 C66 0.980 . S
C69 N71 1.356 . S
C69 C73 1.402 . S
C69 C75 1.481 . S
C70 N72 1.325 . S
C70 C73 1.400 . S
C70 C80 1.503 . S
N71 C69 1.356 . S
N71 N72 1.365 . S
N71 Cu179 1.941 . S
N72 C70 1.325 . S
N72 N71 1.365 . S
N72 Cu170 1.924 . S
C73 C69 1.402 . S
C73 C70 1.400 . S
H74 C75 0.980 . S
C75 C69 1.481 . S
C75 H74 0.980 . S
C75 H76 0.980 . S
C75 H77 0.980 . S
H76 C75 0.980 . S
H77 C75 0.980 . S
H78 C80 0.978 . S
H79 C80 0.978 . S
C80 C70 1.503 . S
C80 H78 0.978 . S
C80 H79 0.978 . S
C80 H81 0.983 . S
H81 C80 0.983 . S
C82 H192 0.979 . S
C82 H193 0.981 . S
C82 H194 0.981 . S
C82 O220 1.438 . S
C83 H195 0.980 . S
C83 H196 0.979 . S
C83 H197 0.980 . S
C83 O221 1.533 . S
C84 N85 1.338 . S
C84 C86 1.388 . S
C84 C89 1.503 1_655 S
N85 C84 1.338 . S
N85 N88 1.361 . S
N85 Cu174 1.924 . S
C86 C84 1.388 . S
C86 C87 1.396 . S
C87 C86 1.396 . S
C87 N88 1.348 . S
C87 C93 1.504 . S
N88 N85 1.361 . S
N88 C87 1.348 . S
N88 Cu175 1.964 . S
C89 C84 1.503 1_455 S
C89 H90 0.979 . S
C89 H91 0.979 . S
C89 H92 0.979 . S
H90 C89 0.979 . S
H91 C89 0.979 . S
H92 C89 0.979 . S
C93 C87 1.504 . S
C93 H94 0.981 . S
C93 H95 0.980 . S
C93 H96 0.979 . S
H94 C93 0.981 . S
H95 C93 0.980 . S
H96 C93 0.979 . S
C97 C98 1.402 . S
C97 N100 1.356 . S
C97 C105 1.481 . S
C98 C97 1.402 . S
C98 C99 1.400 . S
C99 C98 1.400 . S
C99 N101 1.325 . S
C99 C106 1.503 . S
N100 C97 1.356 . S
N100 N101 1.365 . S
N100 Cu169 1.941 . S
N101 C99 1.325 . S
N101 N100 1.365 . S
N101 Cu178 1.924 . S
H102 C105 0.980 . S
H103 C105 0.980 1_565 S
H104 C105 0.980 . S
C105 C97 1.481 . S
C105 H102 0.980 . S
C105 H103 0.980 1_545 S
C105 H104 0.980 . S
C106 C99 1.503 . S
C106 H107 0.978 . S
C106 H108 0.978 . S
C106 H109 0.983 . S
H107 C106 0.978 . S
H108 C106 0.978 . S
H109 C106 0.983 . S
C110 H198 0.979 . S
C110 H199 0.981 . S
C110 H200 0.981 . S
C110 O222 1.438 . S
C111 H201 0.980 . S
C111 H202 0.979 . S
C111 H203 0.980 . S
C111 O223 1.533 . S
C112 C113 1.388 . S
C112 N115 1.338 . S
C112 C117 1.503 . S
C113 C112 1.388 . S
C113 C114 1.396 . S
C114 C113 1.396 . S
C114 N116 1.348 . S
C114 C121 1.504 . S
N115 C112 1.338 . S
N115 N116 1.361 . S
N115 Cu176 1.924 . S
N116 C114 1.348 . S
N116 N115 1.361 . S
N116 Cu177 1.964 . S
C117 C112 1.503 . S
C117 H118 0.979 . S
C117 H119 0.979 . S
C117 H120 0.979 . S
H118 C117 0.979 . S
H119 C117 0.979 . S
H120 C117 0.979 . S
C121 C114 1.504 . S
C121 H122 0.981 . S
C121 H123 0.980 . S
C121 H124 0.979 . S
H122 C121 0.981 . S
H123 C121 0.980 . S
H124 C121 0.979 . S
C125 C126 1.402 1_655 S
C125 N128 1.356 . S
C125 C130 1.481 . S
C126 C125 1.402 1_455 S
C126 C127 1.400 . S
C127 C126 1.400 . S
C127 N129 1.325 1_455 S
C127 C134 1.503 . S
N128 C125 1.356 . S
N128 N129 1.365 . S
N128 Cu171 1.941 . S
N129 C127 1.325 1_655 S
N129 N128 1.365 . S
N129 Cu174 1.924 . S
C130 C125 1.481 . S
C130 H131 0.980 . S
C130 H132 0.980 . S
C130 H133 0.980 . S
H131 C130 0.980 . S
H132 C130 0.980 . S
H133 C130 0.980 . S
C134 C127 1.503 . S
C134 H135 0.978 . S
C134 H136 0.978 . S
C134 H137 0.983 . S
H135 C134 0.978 . S
H136 C134 0.978 . S
H137 C134 0.983 . S
C138 H204 0.979 . S
C138 H205 0.981 . S
C138 H206 0.981 . S
C138 O224 1.438 . S
C139 H207 0.980 . S
C139 H208 0.979 . S
C139 H209 0.980 . S
C139 O225 1.533 . S
C140 N141 1.338 . S
C140 C143 1.388 . S
C140 C148 1.503 . S
N141 C140 1.338 . S
N141 N142 1.361 . S
N141 Cu178 1.924 . S
N142 N141 1.361 . S
N142 C144 1.348 . S
N142 Cu179 1.964 . S
C143 C140 1.388 . S
C143 C144 1.396 . S
C144 N142 1.348 . S
C144 C143 1.396 . S
C144 C152 1.504 . S
H145 C148 0.979 . S
H146 C148 0.979 . S
H147 C148 0.979 . S
C148 C140 1.503 . S
C148 H145 0.979 . S
C148 H146 0.979 . S
C148 H147 0.979 . S
H149 C152 0.981 . S
H150 C152 0.980 . S
H151 C152 0.979 . S
C152 C144 1.504 . S
C152 H149 0.981 . S
C152 H150 0.980 . S
C152 H151 0.979 . S
C153 N154 1.356 . S
C153 C156 1.402 . S
C153 C158 1.481 . S
N154 C153 1.356 . S
N154 N155 1.365 . S
N154 Cu173 1.941 . S
N155 N154 1.365 . S
N155 C157 1.325 . S
N155 Cu176 1.924 . S
C156 C153 1.402 . S
C156 C157 1.400 . S
C157 N155 1.325 . S
C157 C156 1.400 . S
C157 C162 1.503 . S
C158 C153 1.481 . S
C158 H159 0.980 . S
C158 H160 0.980 . S
C158 H161 0.980 . S
H159 C158 0.980 . S
H160 C158 0.980 . S
H161 C158 0.980 . S
C162 C157 1.503 . S
C162 H163 0.978 . S
C162 H164 0.978 . S
C162 H165 0.983 . S
H163 C162 0.978 . S
H164 C162 0.978 . S
H165 C162 0.983 . S
C166 H210 0.979 . S
C166 H211 0.981 . S
C166 H212 0.981 . S
C166 O226 1.438 . S
C167 H213 0.980 . S
C167 H214 0.979 . S
C167 H215 0.980 . S
C167 O227 1.533 . S
Cu168 N3 1.924 . S
Cu168 N44 1.924 . S
Cu168 O216 1.923 . S
Cu168 O217 1.930 . S
Cu169 N4 1.964 . S
Cu169 N100 1.941 . S
Cu169 O216 1.905 . S
Cu169 O227 1.920 . S
Cu170 N29 1.924 . S
Cu170 N72 1.924 . S
Cu170 O218 1.923 . S
Cu170 O219 1.930 . S
Cu171 N30 1.964 . S
Cu171 N128 1.941 . S
Cu171 O218 1.905 . S
Cu171 O223 1.920 . S
Cu172 N17 1.924 . S
Cu172 N57 1.924 . S
Cu172 O220 1.923 . S
Cu172 O221 1.930 . S
Cu173 N59 1.964 . S
Cu173 N154 1.941 . S
Cu173 O220 1.905 . S
Cu173 O225 1.920 . S
Cu174 N85 1.924 . S
Cu174 N129 1.924 . S
Cu174 O222 1.923 . S
Cu174 O223 1.930 . S
Cu175 N16 1.941 . S
Cu175 N88 1.964 . S
Cu175 O221 1.920 . S
Cu175 O222 1.905 . S
Cu176 N115 1.924 . S
Cu176 N155 1.924 . S
Cu176 O224 1.923 . S
Cu176 O225 1.930 . S
Cu177 N43 1.941 . S
Cu177 N116 1.964 . S
Cu177 O217 1.920 . S
Cu177 O224 1.905 . S
Cu178 N101 1.924 . S
Cu178 N141 1.924 . S
Cu178 O226 1.923 . S
Cu178 O227 1.930 . S
Cu179 N71 1.941 . S
Cu179 N142 1.964 . S
Cu179 O219 1.920 . S
Cu179 O226 1.905 . S
H180 C26 0.979 . S
H181 C26 0.981 . S
H182 C26 0.981 . S
H183 C27 0.980 . S
H184 C27 0.979 . S
H185 C27 0.980 . S
H186 C54 0.979 . S
H187 C54 0.981 . S
H188 C54 0.981 . S
H189 C55 0.980 . S
H190 C55 0.979 . S
H191 C55 0.980 . S
H192 C82 0.979 . S
H193 C82 0.981 . S
H194 C82 0.981 . S
H195 C83 0.980 . S
H196 C83 0.979 . S
H197 C83 0.980 . S
H198 C110 0.979 . S
H199 C110 0.981 . S
H200 C110 0.981 . S
H201 C111 0.980 . S
H202 C111 0.979 . S
H203 C111 0.980 . S
H204 C138 0.979 . S
H205 C138 0.981 . S
H206 C138 0.981 . S
H207 C139 0.980 . S
H208 C139 0.979 . S
H209 C139 0.980 . S
H210 C166 0.979 . S
H211 C166 0.981 . S
H212 C166 0.981 . S
H213 C167 0.980 . S
H214 C167 0.979 . S
H215 C167 0.980 . S
O216 C26 1.438 . S
O216 Cu168 1.923 . S
O216 Cu169 1.905 . S
O217 C27 1.533 . S
O217 Cu168 1.930 . S
O217 Cu177 1.920 . S
O218 C54 1.438 . S
O218 Cu170 1.923 . S
O218 Cu171 1.905 . S
O219 C55 1.533 . S
O219 Cu170 1.930 . S
O219 Cu179 1.920 . S
O220 C82 1.438 . S
O220 Cu172 1.923 . S
O220 Cu173 1.905 . S
O221 C83 1.533 . S
O221 Cu172 1.930 . S
O221 Cu175 1.920 . S
O222 C110 1.438 . S
O222 Cu174 1.923 . S
O222 Cu175 1.905 . S
O223 C111 1.533 . S
O223 Cu171 1.920 . S
O223 Cu174 1.930 . S
O224 C138 1.438 . S
O224 Cu176 1.923 . S
O224 Cu177 1.905 . S
O225 C139 1.533 . S
O225 Cu173 1.920 . S
O225 Cu176 1.930 . S
O226 C166 1.438 . S
O226 Cu178 1.923 . S
O226 Cu179 1.905 . S
O227 C167 1.533 . S
O227 Cu169 1.920 . S
O227 Cu178 1.930 . S
C228 C229 1.388 . S
C228 N231 1.338 . S
C228 C233 1.503 1_455 S
C229 C228 1.388 . S
C229 C230 1.396 . S
C230 C229 1.396 . S
C230 N232 1.348 . S
C230 C237 1.504 . S
N231 C228 1.338 . S
N231 N232 1.361 . S
N231 Cu396 1.924 . S
N232 C230 1.348 . S
N232 N231 1.361 . S
N232 Cu397 1.964 . S
C233 C228 1.503 1_655 S
C233 H234 0.979 . S
C233 H235 0.979 . S
C233 H236 0.979 . S
H234 C233 0.979 . S
H235 C233 0.979 . S
H236 C233 0.979 . S
C237 C230 1.504 . S
C237 H238 0.981 . S
C237 H239 0.980 . S
C237 H240 0.979 . S
H238 C237 0.981 . S
H239 C237 0.980 . S
H240 C237 0.979 . S
C241 C243 1.402 . S
C241 N244 1.356 . S
C241 C249 1.481 . S
C242 C243 1.400 . S
C242 N245 1.325 . S
C242 C253 1.503 . S
C243 C241 1.402 . S
C243 C242 1.400 . S
N244 C241 1.356 . S
N244 N245 1.365 . S
N244 Cu403 1.941 . S
N245 C242 1.325 . S
N245 N244 1.365 . S
N245 Cu400 1.924 . S
H246 C249 0.980 . S
H247 C249 0.980 1_545 S
H248 C249 0.980 . S
C249 C241 1.481 . S
C249 H246 0.980 . S
C249 H247 0.980 1_565 S
C249 H248 0.980 . S
H250 C253 0.978 . S
H251 C253 0.978 . S
H252 C253 0.983 . S
C253 C242 1.503 . S
C253 H250 0.978 . S
C253 H251 0.978 . S
C253 H252 0.983 . S
C254 H408 0.979 . S
C254 H409 0.981 . S
C254 H410 0.981 . S
C254 O444 1.438 . S
C255 H411 0.980 . S
C255 H412 0.979 . S
C255 H413 0.980 . S
C255 O445 1.533 . S
C256 N257 1.338 . S
C256 C259 1.388 . S
C256 C264 1.503 . S
N257 C256 1.338 . S
N257 N258 1.361 . S
N257 Cu398 1.924 . S
N258 N257 1.361 . S
N258 C260 1.348 . S
N258 Cu399 1.964 . S
C259 C256 1.388 . S
C259 C260 1.396 . S
C260 N258 1.348 . S
C260 C259 1.396 . S
C260 C268 1.504 . S
H261 C264 0.979 . S
H262 C264 0.979 . S
H263 C264 0.979 . S
C264 C256 1.503 . S
C264 H261 0.979 . S
C264 H262 0.979 . S
C264 H263 0.979 . S
H265 C268 0.981 . S
H266 C268 0.980 . S
H267 C268 0.979 . S
C268 C260 1.504 . S
C268 H265 0.981 . S
C268 H266 0.980 . S
C268 H267 0.979 . S
C269 N271 1.356 . S
C269 C273 1.402 1_455 S
C269 C277 1.481 . S
C270 N272 1.325 1_655 S
C270 C273 1.400 . S
C270 C278 1.503 . S
N271 C269 1.356 . S
N271 N272 1.365 . S
N271 Cu405 1.941 . S
N272 C270 1.325 1_455 S
N272 N271 1.365 . S
N272 Cu396 1.924 . S
C273 C269 1.402 1_655 S
C273 C270 1.400 . S
H274 C277 0.980 . S
H275 C277 0.980 . S
H276 C277 0.980 . S
C277 C269 1.481 . S
C277 H274 0.980 . S
C277 H275 0.980 . S
C277 H276 0.980 . S
C278 C270 1.503 . S
C278 H279 0.978 . S
C278 H280 0.978 . S
C278 H281 0.983 . S
H279 C278 0.978 . S
H280 C278 0.978 . S
H281 C278 0.983 . S
C282 H414 0.979 . S
C282 H415 0.981 . S
C282 H416 0.981 . S
C282 O446 1.438 . S
C283 H417 0.980 . S
C283 H418 0.979 . S
C283 H419 0.980 . S
C283 O447 1.533 . S
C284 N285 1.338 . S
C284 C286 1.388 . S
C284 C292 1.503 . S
N285 C284 1.338 . S
N285 N287 1.361 . S
N285 Cu400 1.924 . S
C286 C284 1.388 . S
C286 C288 1.396 . S
N287 N285 1.361 . S
N287 C288 1.348 . S
N287 Cu401 1.964 . S
C288 C286 1.396 . S
C288 N287 1.348 . S
C288 C294 1.504 . S
H289 C292 0.979 . S
H290 C292 0.979 . S
H291 C292 0.979 . S
C292 C284 1.503 . S
C292 H289 0.979 . S
C292 H290 0.979 . S
C292 H291 0.979 . S
H293 C294 0.981 . S
C294 C288 1.504 . S
C294 H293 0.981 . S
C294 H295 0.979 . S
C294 H296 0.980 . S
H295 C294 0.979 . S
H296 C294 0.980 . S
C297 N299 1.356 . S
C297 C301 1.402 . S
C297 C303 1.481 . S
C298 N300 1.325 . S
C298 C301 1.400 . S
C298 C308 1.503 . S
N299 C297 1.356 . S
N299 N300 1.365 . S
N299 Cu407 1.941 . S
N300 C298 1.325 . S
N300 N299 1.365 . S
N300 Cu398 1.924 . S
C301 C297 1.402 . S
C301 C298 1.400 . S
H302 C303 0.980 . S
C303 C297 1.481 . S
C303 H302 0.980 . S
C303 H304 0.980 . S
C303 H305 0.980 . S
H304 C303 0.980 . S
H305 C303 0.980 . S
H306 C308 0.978 . S
H307 C308 0.978 . S
C308 C298 1.503 . S
C308 H306 0.978 . S
C308 H307 0.978 . S
C308 H309 0.983 . S
H309 C308 0.983 . S
C310 H420 0.979 . S
C310 H421 0.981 . S
C310 H422 0.981 . S
C310 O448 1.438 . S
C311 H423 0.980 . S
C311 H424 0.979 . S
C311 H425 0.980 . S
C311 O449 1.533 . S
C312 N313 1.338 . S
C312 C314 1.388 . S
C312 C317 1.503 . S
N313 C312 1.338 . S
N313 N316 1.361 . S
N313 Cu402 1.924 . S
C314 C312 1.388 . S
C314 C315 1.396 . S
C315 C314 1.396 . S
C315 N316 1.348 . S
C315 C321 1.504 . S
N316 N313 1.361 . S
N316 C315 1.348 . S
N316 Cu403 1.964 . S
C317 C312 1.503 . S
C317 H318 0.979 . S
C317 H319 0.979 . S
C317 H320 0.979 . S
H318 C317 0.979 . S
H319 C317 0.979 . S
H320 C317 0.979 . S
C321 C315 1.504 . S
C321 H322 0.981 . S
C321 H323 0.980 1_565 S
C321 H324 0.979 . S
H322 C321 0.981 . S
H323 C321 0.980 1_545 S
H324 C321 0.979 . S
C325 C326 1.402 . S
C325 N328 1.356 . S
C325 C333 1.481 1_455 S
C326 C325 1.402 . S
C326 C327 1.400 . S
C327 C326 1.400 . S
C327 N329 1.325 . S
C327 C334 1.503 . S
N328 C325 1.356 . S
N328 N329 1.365 . S
N328 Cu397 1.941 . S
N329 C327 1.325 . S
N329 N328 1.365 . S
N329 Cu406 1.924 . S
H330 C333 0.980 . S
H331 C333 0.980 . S
H332 C333 0.980 . S
C333 C325 1.481 1_655 S
C333 H330 0.980 . S
C333 H331 0.980 . S
C333 H332 0.980 . S
C334 C327 1.503 . S
C334 H335 0.978 . S
C334 H336 0.978 . S
C334 H337 0.983 . S
H335 C334 0.978 . S
H336 C334 0.978 . S
H337 C334 0.983 . S
C338 H426 0.979 . S
C338 H427 0.981 . S
C338 H428 0.981 . S
C338 O450 1.438 . S
C339 H429 0.980 . S
C339 H430 0.979 . S
C339 H431 0.980 . S
C339 O451 1.533 . S
C340 C341 1.388 . S
C340 N343 1.338 . S
C340 C345 1.503 . S
C341 C340 1.388 . S
C341 C342 1.396 . S
C342 C341 1.396 . S
C342 N344 1.348 . S
C342 C349 1.504 . S
N343 C340 1.338 . S
N343 N344 1.361 . S
N343 Cu404 1.924 . S
N344 C342 1.348 . S
N344 N343 1.361 . S
N344 Cu405 1.964 . S
C345 C340 1.503 . S
C345 H346 0.979 . S
C345 H347 0.979 1_565 S
C345 H348 0.979 . S
H346 C345 0.979 . S
H347 C345 0.979 1_545 S
H348 C345 0.979 . S
C349 C342 1.504 . S
C349 H350 0.981 . S
C349 H351 0.980 . S
C349 H352 0.979 . S
H350 C349 0.981 . S
H351 C349 0.980 . S
H352 C349 0.979 . S
C353 C354 1.402 . S
C353 N356 1.356 . S
C353 C358 1.481 . S
C354 C353 1.402 . S
C354 C355 1.400 . S
C355 C354 1.400 . S
C355 N357 1.325 . S
C355 C362 1.503 . S
N356 C353 1.356 . S
N356 N357 1.365 . S
N356 Cu399 1.941 . S
N357 C355 1.325 . S
N357 N356 1.365 . S
N357 Cu402 1.924 . S
C358 C353 1.481 . S
C358 H359 0.980 . S
C358 H360 0.980 . S
C358 H361 0.980 . S
H359 C358 0.980 . S
H360 C358 0.980 . S
H361 C358 0.980 . S
C362 C355 1.503 . S
C362 H363 0.978 . S
C362 H364 0.978 . S
C362 H365 0.983 . S
H363 C362 0.978 . S
H364 C362 0.978 . S
H365 C362 0.983 . S
C366 H432 0.979 . S
C366 H433 0.981 . S
C366 H434 0.981 . S
C366 O452 1.438 . S
C367 H435 0.980 . S
C367 H436 0.979 . S
C367 H437 0.980 . S
C367 O453 1.533 . S
C368 N369 1.338 . S
C368 C371 1.388 . S
C368 C376 1.503 . S
N369 C368 1.338 . S
N369 N370 1.361 . S
N369 Cu406 1.924 . S
N370 N369 1.361 . S
N370 C372 1.348 . S
N370 Cu407 1.964 . S
C371 C368 1.388 . S
C371 C372 1.396 . S
C372 N370 1.348 . S
C372 C371 1.396 . S
C372 C380 1.504 . S
H373 C376 0.979 . S
H374 C376 0.979 . S
H375 C376 0.979 . S
C376 C368 1.503 . S
C376 H373 0.979 . S
C376 H374 0.979 . S
C376 H375 0.979 . S
H377 C380 0.981 . S
H378 C380 0.980 . S
H379 C380 0.979 . S
C380 C372 1.504 . S
C380 H377 0.981 . S
C380 H378 0.980 . S
C380 H379 0.979 . S
C381 N382 1.356 . S
C381 C384 1.402 . S
C381 C386 1.481 . S
N382 C381 1.356 . S
N382 N383 1.365 . S
N382 Cu401 1.941 . S
N383 N382 1.365 . S
N383 C385 1.325 . S
N383 Cu404 1.924 . S
C384 C381 1.402 . S
C384 C385 1.400 . S
C385 N383 1.325 . S
C385 C384 1.400 . S
C385 C390 1.503 . S
C386 C381 1.481 . S
C386 H387 0.980 . S
C386 H388 0.980 . S
C386 H389 0.980 . S
H387 C386 0.980 . S
H388 C386 0.980 . S
H389 C386 0.980 . S
C390 C385 1.503 . S
C390 H391 0.978 . S
C390 H392 0.978 . S
C390 H393 0.983 . S
H391 C390 0.978 . S
H392 C390 0.978 . S
H393 C390 0.983 . S
C394 H438 0.979 . S
C394 H439 0.981 . S
C394 H440 0.981 . S
C394 O454 1.438 . S
C395 H441 0.980 . S
C395 H442 0.979 . S
C395 H443 0.980 . S
C395 O455 1.533 . S
Cu396 N231 1.924 . S
Cu396 N272 1.924 . S
Cu396 O444 1.923 . S
Cu396 O445 1.930 . S
Cu397 N232 1.964 . S
Cu397 N328 1.941 . S
Cu397 O444 1.905 . S
Cu397 O455 1.920 . S
Cu398 N257 1.924 . S
Cu398 N300 1.924 . S
Cu398 O446 1.923 . S
Cu398 O447 1.930 . S
Cu399 N258 1.964 . S
Cu399 N356 1.941 . S
Cu399 O446 1.905 . S
Cu399 O451 1.920 . S
Cu400 N245 1.924 . S
Cu400 N285 1.924 . S
Cu400 O448 1.923 . S
Cu400 O449 1.930 . S
Cu401 N287 1.964 . S
Cu401 N382 1.941 . S
Cu401 O448 1.905 . S
Cu401 O453 1.920 . S
Cu402 N313 1.924 . S
Cu402 N357 1.924 . S
Cu402 O450 1.923 . S
Cu402 O451 1.930 . S
Cu403 N244 1.941 . S
Cu403 N316 1.964 . S
Cu403 O449 1.920 . S
Cu403 O450 1.905 . S
Cu404 N343 1.924 . S
Cu404 N383 1.924 . S
Cu404 O452 1.923 . S
Cu404 O453 1.930 . S
Cu405 N271 1.941 . S
Cu405 N344 1.964 . S
Cu405 O445 1.920 . S
Cu405 O452 1.905 . S
Cu406 N329 1.924 . S
Cu406 N369 1.924 . S
Cu406 O454 1.923 . S
Cu406 O455 1.930 . S
Cu407 N299 1.941 . S
Cu407 N370 1.964 . S
Cu407 O447 1.920 . S
Cu407 O454 1.905 . S
H408 C254 0.979 . S
H409 C254 0.981 . S
H410 C254 0.981 . S
H411 C255 0.980 . S
H412 C255 0.979 . S
H413 C255 0.980 . S
H414 C282 0.979 . S
H415 C282 0.981 . S
H416 C282 0.981 . S
H417 C283 0.980 . S
H418 C283 0.979 . S
H419 C283 0.980 . S
H420 C310 0.979 . S
H421 C310 0.981 . S
H422 C310 0.981 . S
H423 C311 0.980 . S
H424 C311 0.979 . S
H425 C311 0.980 . S
H426 C338 0.979 . S
H427 C338 0.981 . S
H428 C338 0.981 . S
H429 C339 0.980 . S
H430 C339 0.979 . S
H431 C339 0.980 . S
H432 C366 0.979 . S
H433 C366 0.981 . S
H434 C366 0.981 . S
H435 C367 0.980 . S
H436 C367 0.979 . S
H437 C367 0.980 . S
H438 C394 0.979 . S
H439 C394 0.981 . S
H440 C394 0.981 . S
H441 C395 0.980 . S
H442 C395 0.979 . S
H443 C395 0.980 . S
O444 C254 1.438 . S
O444 Cu396 1.923 . S
O444 Cu397 1.905 . S
O445 C255 1.533 . S
O445 Cu396 1.930 . S
O445 Cu405 1.920 . S
O446 C282 1.438 . S
O446 Cu398 1.923 . S
O446 Cu399 1.905 . S
O447 C283 1.533 . S
O447 Cu398 1.930 . S
O447 Cu407 1.920 . S
O448 C310 1.438 . S
O448 Cu400 1.923 . S
O448 Cu401 1.905 . S
O449 C311 1.533 . S
O449 Cu400 1.930 . S
O449 Cu403 1.920 . S
O450 C338 1.438 . S
O450 Cu402 1.923 . S
O450 Cu403 1.905 . S
O451 C339 1.533 . S
O451 Cu399 1.920 . S
O451 Cu402 1.930 . S
O452 C366 1.438 . S
O452 Cu404 1.923 . S
O452 Cu405 1.905 . S
O453 C367 1.533 . S
O453 Cu401 1.920 . S
O453 Cu404 1.930 . S
O454 C394 1.438 . S
O454 Cu406 1.923 . S
O454 Cu407 1.905 . S
O455 C395 1.533 . S
O455 Cu397 1.920 . S
O455 Cu406 1.930 . S
H456 C462 0.930 . S
H457 C465 0.930 . S
H458 C466 0.926 1_554 S
H459 C467 0.930 . S
H460 C470 0.930 . S
H461 C471 0.926 1_556 S
C462 H456 0.930 . S
C462 C463 1.355 . S
C462 C464 1.415 . S
C463 C462 1.355 . S
C463 C465 1.419 . S
C464 C462 1.415 . S
C464 C469 1.425 1_566 S
C464 C471 1.409 1_556 S
C465 H457 0.930 . S
C465 C463 1.419 . S
C465 C466 1.362 1_565 S
C466 H458 0.926 1_556 S
C466 C465 1.362 1_545 S
C466 C469 1.409 1_556 S
C467 H459 0.930 . S
C467 C468 1.355 . S
C467 C469 1.415 . S
C468 C467 1.355 . S
C468 C470 1.419 . S
C469 C464 1.425 1_544 S
C469 C466 1.409 1_554 S
C469 C467 1.415 . S
C470 H460 0.930 . S
C470 C468 1.419 . S
C470 C471 1.362 1_545 S
C471 H461 0.926 1_554 S
C471 C464 1.409 1_554 S
C471 C470 1.362 1_565 S
H472 C478 0.930 . S
H473 C481 0.930 . S
H474 C482 0.930 . S
H475 C483 0.930 . S
H476 C486 0.930 . S
H477 C487 0.930 . S
C478 H472 0.930 . S
C478 C479 1.355 . S
C478 C480 1.415 . S
C479 C478 1.355 . S
C479 C481 1.419 . S
C480 C478 1.415 . S
C480 C485 1.425 . S
C480 C487 1.409 . S
C481 H473 0.930 . S
C481 C479 1.419 . S
C481 C482 1.362 . S
C482 H474 0.930 . S
C482 C481 1.362 . S
C482 C485 1.409 . S
C483 H475 0.930 . S
C483 C484 1.355 . S
C483 C485 1.415 . S
C484 C483 1.355 . S
C484 C486 1.419 . S
C485 C480 1.425 . S
C485 C482 1.409 . S
C485 C483 1.415 . S
C486 H476 0.930 . S
C486 C484 1.419 . S
C486 C487 1.362 . S
C487 H477 0.930 . S
C487 C480 1.409 . S
C487 C486 1.362 . S
H488 C494 0.930 . S
H489 C497 0.930 . S
H490 C498 0.930 . S
H491 C499 0.930 . S
H492 C502 0.930 . S
H493 C503 0.930 . S
C494 H488 0.930 . S
C494 C495 1.355 . S
C494 C496 1.415 1_554 S
C495 C494 1.355 . S
C495 C497 1.419 1_655 S
C496 C494 1.415 1_556 S
C496 C501 1.425 1_656 S
C496 C503 1.409 . S
C497 H489 0.930 . S
C497 C495 1.419 1_455 S
C497 C498 1.362 . S
C498 H490 0.930 . S
C498 C497 1.362 . S
C498 C501 1.409 . S
C499 H491 0.930 . S
C499 C500 1.355 . S
C499 C501 1.415 1_556 S
C500 C499 1.355 . S
C500 C502 1.419 1_455 S
C501 C496 1.425 1_454 S
C501 C498 1.409 . S
C501 C499 1.415 1_554 S
C502 H492 0.930 . S
C502 C500 1.419 1_655 S
C502 C503 1.362 . S
C503 H493 0.930 . S
C503 C496 1.409 . S
C503 C502 1.362 . S
H504 C510 0.930 . S
H505 C513 0.930 . S
H506 C514 0.930 . S
H507 C515 0.930 . S
H508 C518 0.930 . S
H509 C519 0.930 . S
C510 H504 0.930 . S
C510 C511 1.355 . S
C510 C512 1.415 . S
C511 C510 1.355 . S
C511 C513 1.419 . S
C512 C510 1.415 . S
C512 C517 1.425 1_565 S
C512 C519 1.409 . S
C513 H505 0.930 . S
C513 C511 1.419 . S
C513 C514 1.362 1_565 S
C514 H506 0.930 . S
C514 C513 1.362 1_545 S
C514 C517 1.409 . S
C515 H507 0.930 . S
C515 C516 1.355 . S
C515 C517 1.415 . S
C516 C515 1.355 . S
C516 C518 1.419 . S
C517 C512 1.425 1_545 S
C517 C514 1.409 . S
C517 C515 1.415 . S
C518 H508 0.930 . S
C518 C516 1.419 . S
C518 C519 1.362 1_545 S
C519 H509 0.930 . S
C519 C512 1.409 . S
C519 C518 1.362 1_565 S
H520 C526 0.930 . S
H521 C529 0.930 . S
H522 C530 0.930 . S
H523 C531 0.930 . S
H524 C534 0.930 . S
H525 C535 0.930 . S
C526 H520 0.930 . S
C526 C527 1.355 1_556 S
C526 C528 1.415 . S
C527 C526 1.355 1_554 S
C527 C529 1.419 . S
C528 C526 1.415 . S
C528 C533 1.425 1_556 S
C528 C535 1.409 . S
C529 H521 0.930 . S
C529 C527 1.419 . S
C529 C530 1.362 . S
C530 H522 0.930 . S
C530 C529 1.362 . S
C530 C533 1.409 . S
C531 H523 0.930 . S
C531 C532 1.355 1_554 S
C531 C533 1.415 . S
C532 C531 1.355 1_556 S
C532 C534 1.419 . S
C533 C528 1.425 1_554 S
C533 C530 1.409 . S
C533 C531 1.415 . S
C534 H524 0.930 . S
C534 C532 1.419 . S
C534 C535 1.362 . S
C535 H525 0.930 . S
C535 C528 1.409 . S
C535 C534 1.362 . S
H536 C542 0.930 . S
H537 C545 0.930 . S
H538 C546 0.946 . S
H539 C547 0.930 . S
H540 C550 0.930 . S
H541 C551 0.946 . S
C542 H536 0.930 . S
C542 C543 1.355 . S
C542 C544 1.415 . S
C543 C542 1.355 . S
C543 C545 1.419 . S
C544 C542 1.415 . S
C544 C549 1.425 1_655 S
C544 C551 1.405 . S
C545 H537 0.930 . S
C545 C543 1.419 . S
C545 C546 1.352 1_655 S
C546 H538 0.946 . S
C546 C545 1.352 1_455 S
C546 C549 1.404 . S
C547 H539 0.930 . S
C547 C548 1.355 . S
C547 C549 1.415 . S
C548 C547 1.355 . S
C548 C550 1.419 . S
C549 C544 1.425 1_455 S
C549 C546 1.404 . S
C549 C547 1.415 . S
C550 H540 0.930 . S
C550 C548 1.419 . S
C550 C551 1.352 1_455 S
C551 H541 0.946 . S
C551 C544 1.405 . S
C551 C550 1.352 1_655 S
H552 C558 0.930 . S
H553 C561 0.930 . S
H554 C562 0.930 . S
H555 C563 0.930 . S
H556 C566 0.930 . S
H557 C567 0.930 . S
C558 H552 0.930 . S
C558 C559 1.355 . S
C558 C560 1.415 . S
C559 C558 1.355 . S
C559 C561 1.419 . S
C560 C558 1.415 . S
C560 C565 1.425 . S
C560 C567 1.409 . S
C561 H553 0.930 . S
C561 C559 1.419 . S
C561 C562 1.362 . S
C562 H554 0.930 . S
C562 C561 1.362 . S
C562 C565 1.409 . S
C563 H555 0.930 . S
C563 C564 1.355 . S
C563 C565 1.415 . S
C564 C563 1.355 . S
C564 C566 1.419 . S
C565 C560 1.425 . S
C565 C562 1.409 . S
C565 C563 1.415 . S
C566 H556 0.930 . S
C566 C564 1.419 . S
C566 C567 1.362 . S
C567 H557 0.930 . S
C567 C560 1.409 . S
C567 C566 1.362 . S
H568 C574 0.930 . S
H569 C577 0.933 . S
H570 C578 0.930 . S
H571 C579 0.930 . S
H572 C582 0.930 . S
H573 C583 0.930 . S
C574 H568 0.930 . S
C574 C575 1.355 . S
C574 C576 1.415 . S
C575 C574 1.355 . S
C575 C577 1.419 . S
C576 C574 1.415 . S
C576 C581 1.425 . S
C576 C583 1.409 . S
C577 H569 0.933 . S
C577 C575 1.419 . S
C577 C578 1.362 . S
C578 H570 0.930 . S
C578 C577 1.362 . S
C578 C581 1.409 . S
C579 H571 0.930 . S
C579 C580 1.355 . S
C579 C581 1.415 . S
C580 C579 1.355 . S
C580 C582 1.419 . S
C581 C576 1.425 . S
C581 C578 1.409 . S
C581 C579 1.415 . S
C582 H572 0.930 . S
C582 C580 1.419 . S
C582 C583 1.362 . S
C583 H573 0.930 . S
C583 C576 1.409 . S
C583 C582 1.362 . S
H584 C590 0.930 . S
H585 C593 0.930 . S
H586 C594 0.930 . S
H587 C595 0.930 . S
H588 C598 0.930 . S
H589 C599 0.930 . S
C590 H584 0.930 . S
C590 C591 1.355 . S
C590 C592 1.415 . S
C591 C590 1.355 . S
C591 C593 1.419 . S
C592 C590 1.415 . S
C592 C597 1.425 . S
C592 C599 1.409 . S
C593 H585 0.930 . S
C593 C591 1.419 . S
C593 C594 1.362 . S
C594 H586 0.930 . S
C594 C593 1.362 . S
C594 C597 1.409 . S
C595 H587 0.930 . S
C595 C596 1.355 . S
C595 C597 1.415 . S
C596 C595 1.355 . S
C596 C598 1.419 . S
C597 C592 1.425 . S
C597 C594 1.409 . S
C597 C595 1.415 . S
C598 H588 0.930 . S
C598 C596 1.419 . S
C598 C599 1.362 . S
C599 H589 0.930 . S
C599 C592 1.409 . S
C599 C598 1.362 . S
H600 C606 0.930 . S
H601 C609 0.930 . S
H602 C610 0.930 . S
H603 C611 0.930 . S
H604 C614 0.930 1_565 S
H605 C615 0.930 . S
C606 H600 0.930 . S
C606 C607 1.355 . S
C606 C608 1.415 . S
C607 C606 1.355 . S
C607 C609 1.419 . S
C608 C606 1.415 . S
C608 C613 1.425 . S
C608 C615 1.409 . S
C609 H601 0.930 . S
C609 C607 1.419 . S
C609 C610 1.362 . S
C610 H602 0.930 . S
C610 C609 1.362 . S
C610 C613 1.409 . S
C611 H603 0.930 . S
C611 C612 1.355 . S
C611 C613 1.415 . S
C612 C611 1.355 . S
C612 C614 1.419 . S
C613 C608 1.425 . S
C613 C610 1.409 . S
C613 C611 1.415 . S
C614 H604 0.930 1_545 S
C614 C612 1.419 . S
C614 C615 1.362 . S
C615 H605 0.930 . S
C615 C608 1.409 . S
C615 C614 1.362 . S
H616 C622 0.930 . S
H617 C625 0.930 . S
H618 C626 0.930 . S
H619 C627 0.930 . S
H620 C630 0.930 . S
H621 C631 0.930 . S
C622 H616 0.930 . S
C622 C623 1.355 . S
C622 C624 1.415 . S
C623 C622 1.355 . S
C623 C625 1.419 . S
C624 C622 1.415 . S
C624 C629 1.425 . S
C624 C631 1.409 . S
C625 H617 0.930 . S
C625 C623 1.419 . S
C625 C626 1.362 . S
C626 H618 0.930 . S
C626 C625 1.362 . S
C626 C629 1.409 . S
C627 H619 0.930 . S
C627 C628 1.355 . S
C627 C629 1.415 . S
C628 C627 1.355 . S
C628 C630 1.419 . S
C629 C624 1.425 . S
C629 C626 1.409 . S
C629 C627 1.415 . S
C630 H620 0.930 . S
C630 C628 1.419 . S
C630 C631 1.362 . S
C631 H621 0.930 . S
C631 C624 1.409 . S
C631 C630 1.362 . S
H632 C638 0.930 . S
H633 C641 0.930 . S
H634 C642 0.930 . S
H635 C643 0.930 . S
H636 C646 0.930 . S
H637 C647 0.930 . S
C638 H632 0.930 . S
C638 C639 1.355 . S
C638 C640 1.415 . S
C639 C638 1.355 . S
C639 C641 1.419 . S
C640 C638 1.415 . S
C640 C645 1.425 . S
C640 C647 1.409 . S
C641 H633 0.930 . S
C641 C639 1.419 . S
C641 C642 1.362 . S
C642 H634 0.930 . S
C642 C641 1.362 . S
C642 C645 1.409 . S
C643 H635 0.930 . S
C643 C644 1.355 . S
C643 C645 1.415 . S
C644 C643 1.355 . S
C644 C646 1.419 . S
C645 C640 1.425 . S
C645 C642 1.409 . S
C645 C643 1.415 . S
C646 H636 0.930 . S
C646 C644 1.419 . S
C646 C647 1.362 . S
C647 H637 0.930 . S
C647 C640 1.409 . S
C647 C646 1.362 . S
C463 C371 1.780 . S
C468 C58 1.780 . S
C479 C286 3.878 . S
C484 C143 3.878 . S
C495 C15 1.797 . S
C500 C326 1.797 . S
C511 C243 3.443 . S
C516 C98 3.443 . S
C527 C156 1.789 . S
C532 C301 1.789 . S
C543 C73 1.162 . S
C548 C384 1.162 . S
C559 C31 1.473 1_565 S
C564 C113 1.473 . S
C575 C273 0.868 . S
C580 C354 0.868 . S
C591 C1 1.589 1_565 S
C596 C86 1.589 1_455 S
C607 C259 1.448 . S
C612 C341 1.448 1_545 S
C623 C45 0.787 . S
C628 C126 0.787 . S
C639 C229 1.527 1_655 S
C644 C314 1.527 1_545 S
