# Generated by pormake.
# Topology sxb, (6)-cn, num edge types: 1
# Building blocks:
#     Node 0, Type 0, BuildingBlock: KUMBOL_clean_sbu_1, # of connection points: 6
#     Node 1, Type 0, BuildingBlock: KUMBOL_clean_sbu_1, # of connection points: 6
#     Node 2, Type 0, BuildingBlock: KUMBOL_clean_sbu_1, # of connection points: 6
#     Node 3, Type 0, BuildingBlock: KUMBOL_clean_sbu_1, # of connection points: 6
#     Edge 4, Type (0, 0), BuildingBlock: AJUNOK_clean_linker_0, # of connection points: 2
#     Edge 5, Type (0, 0), BuildingBlock: AJUNOK_clean_linker_0, # of connection points: 2
#     Edge 6, Type (0, 0), BuildingBlock: AJUNOK_clean_linker_0, # of connection points: 2
#     Edge 7, Type (0, 0), BuildingBlock: AJUNOK_clean_linker_0, # of connection points: 2
#     Edge 8, Type (0, 0), BuildingBlock: AJUNOK_clean_linker_0, # of connection points: 2
#     Edge 9, Type (0, 0), BuildingBlock: AJUNOK_clean_linker_0, # of connection points: 2
#     Edge 10, Type (0, 0), BuildingBlock: AJUNOK_clean_linker_0, # of connection points: 2
#     Edge 11, Type (0, 0), BuildingBlock: AJUNOK_clean_linker_0, # of connection points: 2
#     Edge 12, Type (0, 0), BuildingBlock: AJUNOK_clean_linker_0, # of connection points: 2
#     Edge 13, Type (0, 0), BuildingBlock: AJUNOK_clean_linker_0, # of connection points: 2
#     Edge 14, Type (0, 0), BuildingBlock: AJUNOK_clean_linker_0, # of connection points: 2
#     Edge 15, Type (0, 0), BuildingBlock: AJUNOK_clean_linker_0, # of connection points: 2
# Relax obj value: 0.022
# Max RMSD: 0.073
# Mean RMSD: 0.073
data_MOF--net-sxb--node1-KUMBOL_clean_sbu_1--edge1-AJUNOK_clean_linker_0
_symmetry_space_group_name_H-M    P1
_symmetry_Int_Tables_number       1
_symmetry_cell_setting            triclinic
loop_
_symmetry_equiv_pos_as_xyz
'x, y, z'
_cell_length_a     11.366153
_cell_length_b     40.737022
_cell_length_c     21.511754
_cell_angle_alpha  113.65796
_cell_angle_beta   89.869418
_cell_angle_gamma 89.891118
loop_
_atom_site_label
_atom_site_type_symbol
_atom_site_fract_x
_atom_site_fract_y
_atom_site_fract_z
_atom_type_partial_charge
C0 C 0.23995 0.10818 0.12398 0.0
C1 C 0.34863 0.12669 0.04572 0.0
C2 C 0.25578 0.1074 0.05866 0.0
C3 C 0.42551 0.14636 0.09828 0.0
C4 C 0.31808 0.12775 0.17646 0.0
C5 C 0.41049 0.14675 0.16325 0.0
N6 N 0.14849 0.08988 0.13609 0.0
C7 C 0.1268 0.09194 0.20003 0.0
C8 C 0.30023 0.12814 0.24119 0.0
C9 C 0.20379 0.11031 0.25306 0.0
Gd10 Gd 1.03732 0.95629 0.96699 0.0
Gd11 Gd 1.02146 0.06418 0.044 0.0
N12 N 0.18159 0.08744 0.00778 0.0
C13 C 0.3618 0.12554 0.98009 0.0
C14 C 0.19124 0.08728 0.94452 0.0
C15 C 0.2826 0.1058 0.92935 0.0
H16 H 0.12589 0.07424 0.90654 0.0
H17 H 0.29042 0.10543 0.87892 0.0
H18 H 0.92863 0.94379 0.09851 0.0
H19 H 0.04793 0.08086 0.21144 0.0
H20 H 0.79491 0.90106 0.1176 0.0
H21 H 0.43214 0.14004 0.96826 0.0
H22 H 0.49673 0.16136 0.08892 0.0
H23 H 1.03327 0.93624 0.79616 0.0
H24 H 0.35862 0.1429 0.28277 0.0
H25 H 0.18685 0.11155 0.3035 0.0
H26 H 0.649 0.82933 0.89604 0.0
H27 H 0.46988 0.16206 0.2035 0.0
H28 H 0.77062 0.85676 0.70951 0.0
H29 H 0.92194 0.89718 0.69725 0.0
N30 N 0.93128 0.92397 0.86759 0.0
C31 C 0.84905 0.90155 0.8754 0.0
C32 C 0.96009 0.92173 0.80423 0.0
C33 C 0.81423 0.87568 0.75427 0.0
C34 C 0.89941 0.89852 0.74714 0.0
C35 C 0.79082 0.8762 0.81853 0.0
H36 H 0.67339 0.83061 0.78343 0.0
N37 N 0.88591 0.92648 0.99429 0.0
C38 C 0.82904 0.90199 0.93992 0.0
C39 C 0.74285 0.876 0.01268 0.0
C40 C 0.75585 0.87606 0.94793 0.0
C41 C 0.87583 0.92614 0.05719 0.0
C42 C 0.80261 0.90131 0.06763 0.0
O43 O 0.20542 0.03779 0.03645 0.0
O44 O 0.21085 0.9798 0.95355 0.0
O45 O 0.13268 0.92665 0.01683 0.0
O46 O 0.10441 0.90349 0.90754 0.0
O47 O 0.97645 0.03397 0.93333 0.0
O48 O 0.09217 0.983 0.89783 0.0
O49 O 0.84705 0.97824 0.98943 0.0
O50 O 0.83838 0.04012 0.02063 0.0
O51 O 0.96074 0.1079 0.01675 0.0
O52 O 0.95394 0.11312 0.12102 0.0
O53 O 0.08008 0.99161 0.07502 0.0
O54 O 0.95112 0.03821 0.11152 0.0
C55 C 0.26401 1.00899 0.99556 0.0
C56 C 1.03665 1.00835 0.88653 0.0
C57 C 0.24208 0.87346 0.94882 0.0
C58 C 0.31906 0.82033 0.96115 0.0
C59 C 0.40744 0.84113 0.8805 0.0
C60 C 0.32759 0.8695 0.89934 0.0
C61 C 0.40412 0.8168 0.91142 0.0
C62 C 0.23882 0.8491 0.98014 0.0
C63 C 0.14357 0.89849 0.95989 0.0
C64 C 0.70132 0.85027 0.89101 0.0
C65 C 0.71638 0.85081 0.82683 0.0
H66 H 0.68755 0.85638 0.02067 0.0
C67 C 0.78746 1.00857 1.00407 0.0
C68 C 1.0036 0.01152 0.11965 0.0
C69 C 0.84084 0.15557 0.09555 0.0
C70 C 0.7615 0.20965 0.08739 0.0
C71 C 0.68794 0.19037 0.17319 0.0
C72 C 0.76284 0.16072 0.14948 0.0
C73 C 0.68569 0.21436 0.14183 0.0
C74 C 0.84022 0.18036 0.06482 0.0
C75 C 0.93625 0.12867 0.0795 0.0
H76 H 0.46961 0.83739 0.84016 0.0
H77 H 0.32977 0.8875 0.87351 0.0
H78 H 0.46544 0.79453 0.8949 0.0
H79 H 0.17113 0.85183 0.01755 0.0
H80 H 0.63309 0.1953 0.21711 0.0
H81 H 0.76319 0.14277 0.1754 0.0
H82 H 0.62719 0.23731 0.16153 0.0
H83 H 0.9029 0.1775 0.02487 0.0
C84 C 0.18691 0.89926 0.35079 0.0
C85 C 0.31373 0.8761 0.4148 0.0
C86 C 0.23404 0.90214 0.41278 0.0
C87 C 0.34821 0.84792 0.35387 0.0
C88 C 0.22758 0.87227 0.28953 0.0
C89 C 0.30916 0.84685 0.29146 0.0
N90 N 0.09579 0.92101 0.3508 0.0
C91 C 0.04406 0.91766 0.29115 0.0
C92 C 0.1797 0.87022 0.22821 0.0
C93 C 0.08792 0.89317 0.22908 0.0
Gd94 Gd 1.02995 0.05945 0.54306 0.0
Gd95 Gd 1.02063 0.95476 0.45971 0.0
N96 N 0.1958 0.92886 0.47129 0.0
C97 C 0.35192 0.87826 0.47829 0.0
C98 C 0.2342 0.93143 0.53302 0.0
C99 C 0.31443 0.90653 0.53745 0.0
H100 H 0.19725 0.95126 0.5788 0.0
H101 H 0.34285 0.90813 0.58658 0.0
H102 H 0.85088 0.06373 0.42596 0.0
H103 H 0.96584 0.93246 0.29042 0.0
H104 H 0.70326 0.10707 0.42091 0.0
H105 H 0.40848 0.85789 0.48253 0.0
H106 H 0.40498 0.82662 0.35423 0.0
H107 H 0.09352 0.08173 0.71092 0.0
H108 H 0.2098 0.85013 0.18011 0.0
H109 H 0.04731 0.89088 0.18204 0.0
H110 H 0.64021 0.1856 0.65523 0.0
H111 H 0.3386 0.82527 0.24504 0.0
H112 H 0.84421 0.1612 0.82539 0.0
H113 H 1.01275 0.12191 0.82072 0.0
N114 N 0.95718 0.09212 0.65278 0.0
C115 C 0.86319 0.11321 0.65419 0.0
C116 C 1.01269 0.09572 0.71156 0.0
C117 C 0.87404 0.14159 0.77675 0.0
C118 C 0.96925 0.11947 0.77435 0.0
C119 C 0.82275 0.13956 0.71624 0.0
H120 H 0.70929 0.18581 0.7629 0.0
N121 N 0.85279 0.08484 0.53348 0.0
C122 C 0.81377 0.11071 0.59289 0.0
C123 C 0.69387 0.13544 0.52957 0.0
C124 C 0.73238 0.13669 0.59242 0.0
C125 C 0.81362 0.08302 0.47236 0.0
C126 C 0.73207 0.10796 0.46949 0.0
O127 O 0.20495 0.97925 0.46319 0.0
O128 O 0.2117 0.03712 0.54679 0.0
O129 O 0.08414 0.09081 0.48616 0.0
O130 O 0.09442 0.11325 0.59602 0.0
O131 O 0.97734 0.98597 0.57052 0.0
O132 O 0.10592 0.0323 0.60629 0.0
O133 O 0.84525 0.03467 0.53908 0.0
O134 O 0.84197 0.97766 0.45293 0.0
O135 O 0.9627 0.92416 0.51729 0.0
O136 O 0.95371 0.90118 0.40738 0.0
O137 O 0.07295 0.02868 0.43235 0.0
O138 O 0.94738 0.98149 0.39472 0.0
C139 C 0.26438 1.0081 0.50272 0.0
C140 C 0.04949 1.00697 0.61635 0.0
C141 C 0.20979 0.14049 0.53995 0.0
C142 C 0.28931 0.19353 0.52839 0.0
C143 C 0.40801 0.15893 0.57463 0.0
C144 C 0.3169 0.135 0.56566 0.0
C145 C 0.39597 0.18777 0.55561 0.0
C146 C 0.19555 0.16966 0.5213 0.0
C147 C 0.10824 0.11894 0.54108 0.0
C148 C 0.69759 0.16416 0.65421 0.0
C149 C 0.7386 0.16468 0.71585 0.0
H150 H 0.63714 0.15604 0.52646 0.0
C151 C 0.78725 1.00627 0.49667 0.0
C152 C 1.00193 1.00755 0.386 0.0
C153 C 0.83612 0.87467 0.46394 0.0
C154 C 0.75373 0.82226 0.47634 0.0
C155 C 0.63645 0.8573 0.43067 0.0
C156 C 0.7291 0.88067 0.43884 0.0
C157 C 0.6473 0.82836 0.44954 0.0
C158 C 0.84885 0.84553 0.48283 0.0
C159 C 0.93851 0.89588 0.46265 0.0
H160 H 0.48672 0.1551 0.59792 0.0
H161 H 0.32844 0.11309 0.58156 0.0
H162 H 0.46986 0.20564 0.56264 0.0
H163 H 0.11028 0.17453 0.50413 0.0
H164 H 0.55775 0.8616 0.40787 0.0
H165 H 0.71882 0.90256 0.42294 0.0
H166 H 0.57377 0.81026 0.44154 0.0
H167 H 0.93291 0.84065 0.50138 0.0
C168 C 0.72813 0.62005 0.12795 0.0
C169 C 0.84354 0.63273 0.04463 0.0
C170 C 0.74774 0.6156 0.06079 0.0
C171 C 0.92048 0.65377 0.09611 0.0
C172 C 0.80309 0.64234 0.17994 0.0
C173 C 0.90022 0.65858 0.16347 0.0
N174 N 0.63311 0.60419 0.14299 0.0
C175 C 0.6019 0.61245 0.20903 0.0
C176 C 0.77625 0.64863 0.24737 0.0
C177 C 0.67425 0.63405 0.262 0.0
Gd178 Gd 0.52195 0.46196 0.982 0.0
Gd179 Gd 0.51818 0.56986 0.04909 0.0
N180 N 0.67248 0.59493 0.01138 0.0
C181 C 0.85858 0.6285 0.97714 0.0
C182 C 0.68399 0.59175 0.94605 0.0
C183 C 0.77801 0.60814 0.92779 0.0
H184 H 0.62024 0.57677 0.90835 0.0
H185 H 0.78785 0.60526 0.87579 0.0
H186 H 0.26074 0.4238 0.9821 0.0
H187 H 0.52067 0.60249 0.22113 0.0
H188 H 0.10281 0.39383 0.90051 0.0
H189 H 0.93117 0.64124 0.96281 0.0
H190 H 0.99489 0.66693 0.08448 0.0
H191 H 0.77545 0.44701 0.89263 0.0
H192 H 0.83154 0.66567 0.28864 0.0
H193 H 0.65046 0.63984 0.31412 0.0
H194 H 0.27897 0.3697 0.68365 0.0
H195 H 0.95891 0.67553 0.20279 0.0
H196 H 0.69123 0.39074 0.68234 0.0
H197 H 0.83942 0.41852 0.77252 0.0
N198 N 0.59427 0.43557 0.86971 0.0
C199 C 0.51288 0.41938 0.82078 0.0
C200 C 0.7111 0.43447 0.85334 0.0
C201 C 0.66354 0.40367 0.73456 0.0
C202 C 0.74724 0.41885 0.78549 0.0
C203 C 0.54499 0.40365 0.75172 0.0
H204 H 0.48177 0.37524 0.64885 0.0
N205 N 0.37454 0.42809 0.90756 0.0
C206 C 0.39895 0.41607 0.84033 0.0
C207 C 0.20433 0.39047 0.81347 0.0
C208 C 0.31407 0.39714 0.79129 0.0
C209 C 0.273 0.41811 0.92906 0.0
C210 C 0.18482 0.40032 0.88274 0.0
O211 O 0.69718 0.54294 0.00876 0.0
O212 O 0.69623 0.48994 0.02436 0.0
O213 O 0.62616 0.44299 0.04572 0.0
O214 O 0.51553 0.40604 0.96864 0.0
O215 O 0.45513 0.53871 0.94258 0.0
O216 O 0.58045 0.49178 0.91799 0.0
O217 O 0.33571 0.48592 0.01141 0.0
O218 O 0.33401 0.54523 0.02286 0.0
O219 O 0.46946 0.61653 0.02918 0.0
O220 O 0.40093 0.60999 0.11926 0.0
O221 O 0.43326 0.49288 0.08172 0.0
O222 O 0.54144 0.54433 0.12497 0.0
C223 C 0.75329 0.51682 0.0184 0.0
C224 C 0.51132 0.51138 0.89798 0.0
C225 C 0.68742 0.38247 0.99637 0.0
C226 C 0.76859 0.32699 0.99763 0.0
C227 C 0.87131 0.3584 0.93862 0.0
C228 C 0.78432 0.3848 0.95802 0.0
C229 C 0.86384 0.32974 0.95821 0.0
C230 C 0.68008 0.35365 0.01659 0.0
C231 C 0.59352 0.40978 0.01492 0.0
C232 C 0.34345 0.38383 0.72208 0.0
C233 C 0.45896 0.38695 0.70231 0.0
H234 H 0.13662 0.37611 0.77752 0.0
C235 C 0.27892 0.51541 0.01617 0.0
C236 C 0.48475 0.51817 0.13285 0.0
C237 C 0.33991 0.66388 0.10404 0.0
C238 C 0.28645 0.7177 0.08624 0.0
C239 C 0.19812 0.70629 0.17851 0.0
C240 C 0.2623 0.67453 0.15962 0.0
C241 C 0.20949 0.72766 0.14196 0.0
C242 C 0.35261 0.68586 0.06768 0.0
C243 C 0.40495 0.62965 0.08391 0.0
H244 H 0.94463 0.36001 0.90796 0.0
H245 H 0.7929 0.40704 0.94329 0.0
H246 H 0.9324 0.30951 0.94204 0.0
H247 H 0.60661 0.35234 0.04771 0.0
H248 H 0.13891 0.71433 0.22156 0.0
H249 H 0.25064 0.65823 0.18843 0.0
H250 H 0.15871 0.75222 0.15753 0.0
H251 H 0.41204 0.67806 0.02462 0.0
C252 C 0.71578 0.39747 0.3692 0.0
C253 C 0.81026 0.36939 0.43691 0.0
C254 C 0.74193 0.3973 0.4327 0.0
C255 C 0.85045 0.34155 0.37716 0.0
C256 C 0.76421 0.37085 0.30973 0.0
C257 C 0.83129 0.34296 0.31414 0.0
N258 N 0.63749 0.42196 0.36518 0.0
C259 C 0.60786 0.42173 0.30339 0.0
C260 C 0.73837 0.37176 0.24693 0.0
C261 C 0.66058 0.39751 0.24389 0.0
Gd262 Gd 0.54828 0.56026 0.54889 0.0
Gd263 Gd 0.5363 0.45225 0.46789 0.0
N264 N 0.69481 0.42301 0.48979 0.0
C265 C 0.83423 0.36982 0.50105 0.0
C266 C 0.71535 0.42318 0.55233 0.0
C267 C 0.78879 0.39725 0.55896 0.0
H268 H 0.67302 0.44277 0.59667 0.0
H269 H 0.81039 0.39825 0.60846 0.0
H270 H 0.38638 0.57157 0.43216 0.0
H271 H 0.53978 0.43855 0.29807 0.0
H272 H 0.24444 0.61697 0.42959 0.0
H273 H 0.88788 0.34917 0.50656 0.0
H274 H 0.89925 0.31917 0.37919 0.0
H275 H 0.60759 0.5812 0.71726 0.0
H276 H 0.77481 0.35197 0.20031 0.0
H277 H 0.63674 0.39763 0.19526 0.0
H278 H 0.15851 0.68724 0.66495 0.0
H279 H 0.86605 0.32174 0.26882 0.0
H280 H 0.35076 0.65764 0.8321 0.0
H281 H 0.52062 0.61877 0.82687 0.0
N282 N 0.47243 0.59184 0.65861 0.0
C283 C 0.37954 0.61344 0.66028 0.0
C284 C 0.52596 0.59477 0.71759 0.0
C285 C 0.38328 0.63906 0.78318 0.0
C286 C 0.47915 0.61717 0.78047 0.0
C287 C 0.33567 0.63851 0.72285 0.0
H288 H 0.21961 0.68396 0.77119 0.0
N289 N 0.37763 0.5887 0.53914 0.0
C290 C 0.33522 0.6131 0.59925 0.0
C291 C 0.22443 0.64135 0.53828 0.0
C292 C 0.25589 0.6399 0.60019 0.0
C293 C 0.34611 0.58972 0.47878 0.0
C294 C 0.26769 0.61575 0.47738 0.0
O295 O 0.72427 0.47628 0.48544 0.0
O296 O 0.73217 0.5387 0.54464 0.0
O297 O 0.6056 0.59194 0.49326 0.0
O298 O 0.61782 0.61342 0.60301 0.0
O299 O 0.48763 0.48333 0.57749 0.0
O300 O 0.61124 0.53161 0.6139 0.0
O301 O 0.36061 0.53771 0.53413 0.0
O302 O 0.35285 0.47531 0.4795 0.0
O303 O 0.47545 0.41572 0.51171 0.0
O304 O 0.46094 0.40109 0.40332 0.0
O305 O 0.58749 0.52603 0.43921 0.0
O306 O 0.46419 0.4786 0.40166 0.0
C307 C 0.78284 0.507 0.51436 0.0
C308 C 0.55161 0.50685 0.62483 0.0
C309 C 0.73063 0.64178 0.54741 0.0
C310 C 0.80632 0.69545 0.53678 0.0
C311 C 0.93111 0.65965 0.57711 0.0
C312 C 0.84006 0.63588 0.57013 0.0
C313 C 0.91578 0.68909 0.56015 0.0
C314 C 0.71349 0.67142 0.53036 0.0
C315 C 0.63056 0.61969 0.54858 0.0
C316 C 0.21599 0.66558 0.66273 0.0
C317 C 0.25204 0.66401 0.72358 0.0
H318 H 0.16925 0.66268 0.53679 0.0
C319 C 0.30242 0.5071 0.50823 0.0
C320 C 0.50973 0.50662 0.39524 0.0
C321 C 0.3397 0.37081 0.45219 0.0
C322 C 0.24754 0.31978 0.46481 0.0
C323 C 0.13186 0.36099 0.43329 0.0
C324 C 0.23156 0.38089 0.43484 0.0
C325 C 0.13901 0.33052 0.44792 0.0
C326 C 0.34785 0.34047 0.46761 0.0
C327 C 0.4456 0.3911 0.45327 0.0
H328 H 1.01229 0.6553 0.59751 0.0
H329 H 0.85396 0.61358 0.58466 0.0
H330 H 0.98842 0.70739 0.567 0.0
H331 H 0.62783 0.67598 0.51315 0.0
H332 H 0.04962 0.36985 0.42111 0.0
H333 H 0.22409 0.40422 0.42281 0.0
H334 H 0.0601 0.31551 0.44683 0.0
H335 H 0.43253 0.33263 0.48053 0.0
C336 C 0.40374 0.75756 0.04592 0.0
C337 C 0.2963 0.74108 0.04848 0.0
C338 C 0.41068 0.78303 0.01724 0.0
C339 C 0.3104 0.79287 0.99023 0.0
H340 H 0.48197 0.75154 0.06811 0.0
H341 H 0.4945 0.79572 0.01755 0.0
S342 S 1.01187 0.75398 0.97727 0.0
N343 N 0.09016 0.73404 0.01674 0.0
N344 N 0.10295 0.78163 0.96258 0.0
C345 C 0.20356 0.77552 0.99033 0.0
C346 C 0.19665 0.74967 0.01943 0.0
C347 C 0.86635 0.28653 0.04462 0.0
C348 C 0.76427 0.29644 0.01907 0.0
C349 C 0.86621 0.25749 0.064 0.0
C350 C 0.76377 0.23737 0.05904 0.0
H351 H 0.94677 0.30173 0.05074 0.0
H352 H 0.94584 0.25139 0.08493 0.0
S353 S 0.47587 0.25021 0.99126 0.0
N354 N 0.55976 0.28218 0.9864 0.0
N355 N 0.5593 0.22808 0.02424 0.0
C356 C 0.66172 0.24652 0.03275 0.0
C357 C 0.66189 0.27595 0.01259 0.0
C358 C 0.3204 0.2589 0.55503 0.0
C359 C 0.27526 0.22538 0.51112 0.0
C360 C 0.31161 0.28914 0.53954 0.0
C361 C 0.25611 0.28727 0.47989 0.0
H362 H 0.36227 0.26195 0.6022 0.0
H363 H 0.34741 0.31431 0.57496 0.0
S364 S 0.12787 0.20595 0.3462 0.0
N365 N 0.17656 0.1921 0.4039 0.0
N366 N 0.15854 0.24912 0.37555 0.0
C367 C 0.21047 0.25407 0.43549 0.0
C368 C 0.22016 0.22314 0.45096 0.0
C369 C 0.86019 0.76628 0.46629 0.0
C370 C 0.76673 0.79057 0.4937 0.0
C371 C 0.87135 0.73544 0.4798 0.0
C372 C 0.78957 0.72768 0.5213 0.0
H373 H 0.92419 0.77087 0.43325 0.0
H374 H 0.94418 0.71734 0.45715 0.0
S375 S 0.53495 0.7844 0.61016 0.0
N376 N 0.59477 0.80588 0.56724 0.0
N377 N 0.61568 0.74799 0.59274 0.0
C378 C 0.69661 0.75202 0.54975 0.0
C379 C 0.68533 0.78343 0.536 0.0
C380 C 0.46502 0.03564 0.99035 0.0
C381 C 0.39682 1.00873 0.99828 0.0
C382 C 0.58967 0.03537 0.99265 0.0
C383 C 0.65339 1.00792 1.00244 0.0
H384 H 0.42205 0.05656 0.98024 0.0
H385 H 0.63648 0.05676 0.98557 0.0
S386 S 0.51489 0.93265 0.03181 0.0
N387 N 0.40202 0.95477 0.01945 0.0
N388 N 0.63365 0.95425 0.02479 0.0
C389 C 0.58527 0.98108 0.01131 0.0
C390 C 0.45838 0.98143 0.00879 0.0
C391 C 0.4651 0.03332 0.5512 0.0
C392 C 0.39764 1.00742 0.49956 0.0
C393 C 0.5897 0.03304 0.54968 0.0
C394 C 0.6539 1.00683 0.49644 0.0
H395 H 0.42145 0.05395 0.59389 0.0
H396 H 0.63593 0.05341 0.59126 0.0
S397 S 0.52089 0.93477 0.34509 0.0
N398 N 0.40672 0.95616 0.39108 0.0
N399 N 0.63793 0.95545 0.38818 0.0
C400 C 0.58742 0.98126 0.44368 0.0
C401 C 0.46072 0.98158 0.44526 0.0
C402 C 0.95422 0.53919 0.99739 0.0
C403 C 0.8874 0.5164 0.01899 0.0
C404 C 0.07918 0.53901 0.99734 0.0
C405 C 0.14493 0.51576 0.0183 0.0
H406 H 0.90982 0.55705 0.97916 0.0
H407 H 0.12464 0.55696 0.97955 0.0
S408 S 1.01497 0.45223 0.0843 0.0
N409 N 0.89958 0.4706 0.06436 0.0
N410 N 0.13092 0.471 0.06593 0.0
C411 C 0.07925 0.4933 0.04115 0.0
C412 C 0.9522 0.49336 0.04095 0.0
C413 C 0.10291 0.53278 0.49674 0.0
C414 C 0.17042 0.50786 0.51189 0.0
C415 C 0.97838 0.53218 0.49755 0.0
C416 C 0.91554 0.5066 0.51337 0.0
H417 H 0.1461 0.55243 0.48279 0.0
H418 H 0.93082 0.55168 0.48474 0.0
S419 S 0.05133 0.4406 0.57058 0.0
N420 N 0.16478 0.46013 0.55181 0.0
N421 N 0.93333 0.45922 0.55372 0.0
C422 C 0.98261 0.48267 0.53132 0.0
C423 C 0.10896 0.48327 0.53052 0.0
C424 C 0.89726 1.00871 0.28484 0.0
C425 C 1.00325 1.00819 0.31803 0.0
C426 C 0.89764 0.01072 0.22112 0.0
C427 C 1.00402 0.01084 0.18775 0.0
H428 H 0.81376 1.00824 0.30887 0.0
H429 H 0.81448 0.01141 0.19714 0.0
S430 S 0.30485 1.0084 0.25238 0.0
N431 N 0.21676 1.00769 0.31299 0.0
N432 N 0.21775 1.00973 0.19209 0.0
C433 C 0.11039 1.00955 0.21994 0.0
C434 C 0.10993 1.00866 0.28546 0.0
C435 C 0.93759 1.00691 0.78231 0.0
C436 C 0.04197 1.00789 0.81779 0.0
C437 C 0.94085 1.00585 0.71633 0.0
C438 C 0.04846 1.00711 0.68497 0.0
H439 H 0.85311 1.00633 0.80529 0.0
H440 H 0.8586 1.00477 0.69022 0.0
S441 S 0.34583 0.01111 0.75782 0.0
N442 N 0.25555 1.0096 0.81693 0.0
N443 N 0.26139 0.0104 0.69486 0.0
C444 C 0.15321 1.00887 0.72057 0.0
C445 C 0.15006 1.00845 0.78653 0.0
C446 C 0.57593 0.53216 0.31222 0.0
C447 C 0.49659 0.51063 0.32956 0.0
C448 C 0.57047 0.53472 0.24911 0.0
C449 C 0.48504 0.51605 0.20051 0.0
H450 H 0.64496 0.54662 0.34699 0.0
H451 H 0.63613 0.55075 0.23783 0.0
S452 S 0.25186 0.45762 0.22198 0.0
N453 N 0.32579 0.47166 0.29389 0.0
N454 N 0.31662 0.47608 0.17524 0.0
C455 C 0.40368 0.49494 0.21763 0.0
C456 C 0.40881 0.49247 0.28212 0.0
C457 C 0.64136 0.50585 0.7306 0.0
C458 C 0.54119 0.50855 0.69467 0.0
C459 C 0.63106 0.50561 0.79566 0.0
C460 C 0.52057 0.50919 0.82766 0.0
H461 H 0.72782 0.5033 0.70778 0.0
H462 H 0.71026 0.50352 0.82178 0.0
S463 S 0.23244 0.51785 0.75538 0.0
N464 N 0.3286 0.51466 0.6955 0.0
N465 N 0.30986 0.51579 0.81863 0.0
C466 C 0.42035 0.51236 0.79247 0.0
C467 C 0.43048 0.51163 0.72574 0.0
loop_
_geom_bond_atom_site_label_1
_geom_bond_atom_site_label_2
_geom_bond_distance
_geom_bond_site_symmetry_2
_ccdc_geom_bond_type
C0 C2 1.422 . S
C0 C4 1.415 . S
C0 N6 1.369 . S
C1 C2 1.421 . S
C1 C3 1.417 . S
C1 C13 1.406 1_554 S
C2 C0 1.422 . S
C2 C1 1.421 . S
C2 N12 1.359 . S
C3 C1 1.417 . S
C3 C5 1.329 . S
C3 H22 0.930 . S
C4 C0 1.415 . S
C4 C5 1.437 . S
C4 C8 1.413 . S
C5 C3 1.329 . S
C5 C4 1.437 . S
C5 H27 0.929 . S
N6 C0 1.369 . S
N6 C7 1.338 . S
N6 Gd11 2.622 . S
C7 N6 1.338 . S
C7 C9 1.378 . S
C7 H19 0.929 . S
C8 C4 1.413 . S
C8 C9 1.348 . S
C8 H24 0.931 . S
C9 C7 1.378 . S
C9 C8 1.348 . S
C9 H25 0.930 . S
Gd10 N30 2.622 . S
Gd10 N37 2.570 . S
Gd10 O44 2.353 1_655 S
Gd10 O45 2.468 1_655 S
Gd10 O46 2.427 1_655 S
Gd10 O48 2.388 1_655 S
Gd10 O49 2.386 . S
Gd10 O53 2.307 1_556 S
Gd10 C63 2.805 1_655 S
Gd11 N6 2.622 . S
Gd11 N12 2.570 . S
Gd11 O43 2.386 . S
Gd11 O47 2.307 1_554 S
Gd11 O50 2.353 1_455 S
Gd11 O51 2.468 1_455 S
Gd11 O52 2.427 1_455 S
Gd11 O54 2.388 1_455 S
Gd11 C75 2.805 1_455 S
N12 C2 1.359 . S
N12 Gd11 2.570 . S
N12 C14 1.343 1_554 S
C13 C1 1.406 1_556 S
C13 C15 1.330 . S
C13 H21 0.938 . S
C14 N12 1.343 1_556 S
C14 C15 1.390 . S
C14 H16 0.931 . S
C15 C13 1.330 . S
C15 C14 1.390 . S
C15 H17 0.930 . S
H16 C14 0.931 . S
H17 C15 0.930 . S
H18 C41 0.931 . S
H19 C7 0.929 . S
H20 C42 0.930 . S
H21 C13 0.938 . S
H22 C3 0.930 . S
H23 C32 0.929 . S
H24 C8 0.931 . S
H25 C9 0.930 . S
H26 C64 0.930 . S
H27 C5 0.929 . S
H28 C33 0.931 . S
H29 C34 0.930 . S
N30 Gd10 2.622 . S
N30 C31 1.369 . S
N30 C32 1.338 . S
C31 N30 1.369 . S
C31 C35 1.415 . S
C31 C38 1.422 . S
C32 H23 0.929 . S
C32 N30 1.338 . S
C32 C34 1.378 . S
C33 H28 0.931 . S
C33 C34 1.348 . S
C33 C35 1.413 . S
C34 H29 0.930 . S
C34 C32 1.378 . S
C34 C33 1.348 . S
C35 C31 1.415 . S
C35 C33 1.413 . S
C35 C65 1.437 . S
H36 C65 0.929 . S
N37 Gd10 2.570 . S
N37 C38 1.359 . S
N37 C41 1.343 1_556 S
C38 C31 1.422 . S
C38 N37 1.359 . S
C38 C40 1.421 . S
C39 C40 1.422 1_554 S
C39 C42 1.321 . S
C39 H66 0.931 . S
C40 C38 1.421 . S
C40 C39 1.422 1_556 S
C40 C64 1.417 . S
C41 H18 0.931 . S
C41 N37 1.343 1_554 S
C41 C42 1.390 . S
C42 H20 0.930 . S
C42 C39 1.321 . S
C42 C41 1.390 . S
O43 Gd11 2.386 . S
O43 C55 1.265 1_545 S
O44 Gd10 2.353 1_455 S
O44 C55 1.242 1_556 S
O45 Gd10 2.468 1_455 S
O45 C63 1.263 . S
O46 Gd10 2.427 1_455 S
O46 C63 1.252 . S
O47 Gd11 2.307 1_556 S
O47 C56 1.261 1_545 S
O48 Gd10 2.388 1_455 S
O48 C56 1.252 . S
O49 Gd10 2.386 . S
O49 C67 1.265 1_565 S
O50 Gd11 2.353 1_655 S
O50 C67 1.242 1_554 S
O51 Gd11 2.468 1_655 S
O51 C75 1.263 . S
O52 Gd11 2.427 1_655 S
O52 C75 1.252 . S
O53 Gd10 2.307 1_554 S
O53 C68 1.261 1_565 S
O54 Gd11 2.388 1_655 S
O54 C68 1.252 . S
C55 O43 1.265 1_565 S
C55 O44 1.242 1_554 S
C56 O47 1.261 1_565 S
C56 O48 1.252 . S
C57 C60 1.394 . S
C57 C62 1.370 . S
C57 C63 1.500 . S
C58 C61 1.383 . S
C58 C62 1.395 . S
C59 C60 1.396 . S
C59 C61 1.365 . S
C59 H76 0.929 . S
C60 C57 1.394 . S
C60 C59 1.396 . S
C60 H77 0.930 . S
C61 C58 1.383 . S
C61 C59 1.365 . S
C61 H78 0.931 . S
C62 C57 1.370 . S
C62 C58 1.395 . S
C62 H79 0.930 1_556 S
C63 Gd10 2.805 1_455 S
C63 O45 1.263 . S
C63 O46 1.252 . S
C63 C57 1.500 . S
C64 H26 0.930 . S
C64 C40 1.417 . S
C64 C65 1.329 . S
C65 C35 1.437 . S
C65 H36 0.929 . S
C65 C64 1.329 . S
H66 C39 0.931 . S
C67 O49 1.265 1_545 S
C67 O50 1.242 1_556 S
C68 O53 1.261 1_545 S
C68 O54 1.252 . S
C69 C72 1.394 . S
C69 C74 1.370 . S
C69 C75 1.500 . S
C70 C73 1.383 . S
C70 C74 1.395 . S
C71 C72 1.396 . S
C71 C73 1.365 . S
C71 H80 0.929 . S
C72 C69 1.394 . S
C72 C71 1.396 . S
C72 H81 0.930 . S
C73 C70 1.383 . S
C73 C71 1.365 . S
C73 H82 0.931 . S
C74 C69 1.370 . S
C74 C70 1.395 . S
C74 H83 0.930 1_554 S
C75 Gd11 2.805 1_655 S
C75 O51 1.263 . S
C75 O52 1.252 . S
C75 C69 1.500 . S
H76 C59 0.929 . S
H77 C60 0.930 . S
H78 C61 0.931 . S
H79 C62 0.930 1_554 S
H80 C71 0.929 . S
H81 C72 0.930 . S
H82 C73 0.931 . S
H83 C74 0.930 1_556 S
C84 C86 1.422 . S
C84 C88 1.415 . S
C84 N90 1.369 . S
C85 C86 1.421 . S
C85 C87 1.417 . S
C85 C97 1.422 . S
C86 C84 1.422 . S
C86 C85 1.421 . S
C86 N96 1.359 . S
C87 C85 1.417 . S
C87 C89 1.329 . S
C87 H106 0.930 . S
C88 C84 1.415 . S
C88 C89 1.437 . S
C88 C92 1.413 . S
C89 C87 1.329 . S
C89 C88 1.437 . S
C89 H111 0.929 . S
N90 C84 1.369 . S
N90 C91 1.338 . S
N90 Gd95 2.622 . S
C91 N90 1.338 . S
C91 C93 1.378 . S
C91 H103 0.929 . S
C92 C88 1.413 . S
C92 C93 1.348 . S
C92 H108 0.931 . S
C93 C91 1.378 . S
C93 C92 1.348 . S
C93 H109 0.930 . S
Gd94 N114 2.622 . S
Gd94 N121 2.570 . S
Gd94 O128 2.353 1_655 S
Gd94 O129 2.468 1_655 S
Gd94 O130 2.427 1_655 S
Gd94 O132 2.388 1_655 S
Gd94 O133 2.386 . S
Gd94 O137 2.307 . S
Gd94 C147 2.805 1_655 S
Gd95 N90 2.622 . S
Gd95 N96 2.570 . S
Gd95 O127 2.386 . S
Gd95 O131 2.307 . S
Gd95 O134 2.353 1_455 S
Gd95 O135 2.468 1_455 S
Gd95 O136 2.427 1_455 S
Gd95 O138 2.388 1_455 S
Gd95 C159 2.805 1_455 S
N96 C86 1.359 . S
N96 Gd95 2.570 . S
N96 C98 1.343 . S
C97 C85 1.422 . S
C97 C99 1.321 . S
C97 H105 0.931 . S
C98 N96 1.343 . S
C98 C99 1.390 . S
C98 H100 0.931 . S
C99 C97 1.321 . S
C99 C98 1.390 . S
C99 H101 0.930 . S
H100 C98 0.931 . S
H101 C99 0.930 . S
H102 C125 0.931 . S
H103 C91 0.929 . S
H104 C126 0.930 . S
H105 C97 0.931 . S
H106 C87 0.930 . S
H107 C116 0.929 . S
H108 C92 0.931 . S
H109 C93 0.930 . S
H110 C148 0.930 . S
H111 C89 0.929 . S
H112 C117 0.931 . S
H113 C118 0.930 . S
N114 Gd94 2.622 . S
N114 C115 1.369 . S
N114 C116 1.338 . S
C115 N114 1.369 . S
C115 C119 1.415 . S
C115 C122 1.422 . S
C116 H107 0.929 . S
C116 N114 1.338 . S
C116 C118 1.378 . S
C117 H112 0.931 . S
C117 C118 1.348 . S
C117 C119 1.413 . S
C118 H113 0.930 . S
C118 C116 1.378 . S
C118 C117 1.348 . S
C119 C115 1.415 . S
C119 C117 1.413 . S
C119 C149 1.437 . S
H120 C149 0.929 . S
N121 Gd94 2.570 . S
N121 C122 1.359 . S
N121 C125 1.343 . S
C122 C115 1.422 . S
C122 N121 1.359 . S
C122 C124 1.421 . S
C123 C124 1.422 . S
C123 C126 1.321 . S
C123 H150 0.931 . S
C124 C122 1.421 . S
C124 C123 1.422 . S
C124 C148 1.417 . S
C125 H102 0.931 . S
C125 N121 1.343 . S
C125 C126 1.390 . S
C126 H104 0.930 . S
C126 C123 1.321 . S
C126 C125 1.390 . S
O127 Gd95 2.386 . S
O127 C139 1.265 1_565 S
O128 Gd94 2.353 1_455 S
O128 C139 1.242 . S
O129 Gd94 2.468 1_455 S
O129 C147 1.263 . S
O130 Gd94 2.427 1_455 S
O130 C147 1.252 . S
O131 Gd95 2.307 . S
O131 C140 1.261 1_565 S
O132 Gd94 2.388 1_455 S
O132 C140 1.252 . S
O133 Gd94 2.386 . S
O133 C151 1.265 1_545 S
O134 Gd95 2.353 1_655 S
O134 C151 1.242 . S
O135 Gd95 2.468 1_655 S
O135 C159 1.263 . S
O136 Gd95 2.427 1_655 S
O136 C159 1.252 . S
O137 Gd94 2.307 . S
O137 C152 1.261 1_545 S
O138 Gd95 2.388 1_655 S
O138 C152 1.252 . S
C139 O127 1.265 1_545 S
C139 O128 1.242 . S
C140 O131 1.261 1_545 S
C140 O132 1.252 . S
C141 C144 1.394 . S
C141 C146 1.370 . S
C141 C147 1.500 . S
C142 C145 1.383 . S
C142 C146 1.395 . S
C143 C144 1.396 . S
C143 C145 1.365 . S
C143 H160 0.929 . S
C144 C141 1.394 . S
C144 C143 1.396 . S
C144 H161 0.930 . S
C145 C142 1.383 . S
C145 C143 1.365 . S
C145 H162 0.931 . S
C146 C141 1.370 . S
C146 C142 1.395 . S
C146 H163 0.930 . S
C147 Gd94 2.805 1_455 S
C147 O129 1.263 . S
C147 O130 1.252 . S
C147 C141 1.500 . S
C148 H110 0.930 . S
C148 C124 1.417 . S
C148 C149 1.329 . S
C149 C119 1.437 . S
C149 H120 0.929 . S
C149 C148 1.329 . S
H150 C123 0.931 . S
C151 O133 1.265 1_565 S
C151 O134 1.242 . S
C152 O137 1.261 1_565 S
C152 O138 1.252 . S
C153 C156 1.394 . S
C153 C158 1.370 . S
C153 C159 1.500 . S
C154 C157 1.383 . S
C154 C158 1.395 . S
C155 C156 1.396 . S
C155 C157 1.365 . S
C155 H164 0.929 . S
C156 C153 1.394 . S
C156 C155 1.396 . S
C156 H165 0.930 . S
C157 C154 1.383 . S
C157 C155 1.365 . S
C157 H166 0.931 . S
C158 C153 1.370 . S
C158 C154 1.395 . S
C158 H167 0.930 . S
C159 Gd95 2.805 1_655 S
C159 O135 1.263 . S
C159 O136 1.252 . S
C159 C153 1.500 . S
H160 C143 0.929 . S
H161 C144 0.930 . S
H162 C145 0.931 . S
H163 C146 0.930 . S
H164 C155 0.929 . S
H165 C156 0.930 . S
H166 C157 0.931 . S
H167 C158 0.930 . S
C168 C170 1.422 . S
C168 C172 1.415 . S
C168 N174 1.369 . S
C169 C170 1.421 . S
C169 C171 1.417 . S
C169 C181 1.406 1_554 S
C170 C168 1.422 . S
C170 C169 1.421 . S
C170 N180 1.359 . S
C171 C169 1.417 . S
C171 C173 1.329 . S
C171 H190 0.930 . S
C172 C168 1.415 . S
C172 C173 1.437 . S
C172 C176 1.413 . S
C173 C171 1.329 . S
C173 C172 1.437 . S
C173 H195 0.929 . S
N174 C168 1.369 . S
N174 C175 1.338 . S
N174 Gd179 2.622 . S
C175 N174 1.338 . S
C175 C177 1.378 . S
C175 H187 0.929 . S
C176 C172 1.413 . S
C176 C177 1.348 . S
C176 H192 0.931 . S
C177 C175 1.378 . S
C177 C176 1.348 . S
C177 H193 0.930 . S
Gd178 N198 2.622 . S
Gd178 N205 2.570 . S
Gd178 O212 2.353 . S
Gd178 O213 2.468 . S
Gd178 O214 2.427 . S
Gd178 O216 2.388 . S
Gd178 O217 2.386 . S
Gd178 O221 2.307 1_556 S
Gd178 C231 2.805 . S
Gd179 N174 2.622 . S
Gd179 N180 2.570 . S
Gd179 O211 2.386 . S
Gd179 O215 2.307 1_554 S
Gd179 O218 2.353 . S
Gd179 O219 2.468 . S
Gd179 O220 2.427 . S
Gd179 O222 2.388 . S
Gd179 C243 2.805 . S
N180 C170 1.359 . S
N180 Gd179 2.570 . S
N180 C182 1.343 1_554 S
C181 C169 1.406 1_556 S
C181 C183 1.330 . S
C181 H189 0.938 . S
C182 N180 1.343 1_556 S
C182 C183 1.390 . S
C182 H184 0.931 . S
C183 C181 1.330 . S
C183 C182 1.390 . S
C183 H185 0.930 . S
H184 C182 0.931 . S
H185 C183 0.930 . S
H186 C209 0.931 . S
H187 C175 0.929 . S
H188 C210 0.930 . S
H189 C181 0.938 . S
H190 C171 0.930 . S
H191 C200 0.929 . S
H192 C176 0.931 . S
H193 C177 0.930 . S
H194 C232 0.930 . S
H195 C173 0.929 . S
H196 C201 0.931 . S
H197 C202 0.930 . S
N198 Gd178 2.622 . S
N198 C199 1.369 . S
N198 C200 1.338 . S
C199 N198 1.369 . S
C199 C203 1.415 . S
C199 C206 1.422 . S
C200 H191 0.929 . S
C200 N198 1.338 . S
C200 C202 1.378 . S
C201 H196 0.931 . S
C201 C202 1.348 . S
C201 C203 1.413 . S
C202 H197 0.930 . S
C202 C200 1.378 . S
C202 C201 1.348 . S
C203 C199 1.415 . S
C203 C201 1.413 . S
C203 C233 1.437 . S
H204 C233 0.929 . S
N205 Gd178 2.570 . S
N205 C206 1.359 . S
N205 C209 1.343 1_556 S
C206 C199 1.422 . S
C206 N205 1.359 . S
C206 C208 1.421 . S
C207 C208 1.422 1_554 S
C207 C210 1.321 . S
C207 H234 0.931 . S
C208 C206 1.421 . S
C208 C207 1.422 1_556 S
C208 C232 1.417 . S
C209 H186 0.931 . S
C209 N205 1.343 1_554 S
C209 C210 1.390 . S
C210 H188 0.930 . S
C210 C207 1.321 . S
C210 C209 1.390 . S
O211 Gd179 2.386 . S
O211 C223 1.265 . S
O212 Gd178 2.353 . S
O212 C223 1.242 1_556 S
O213 Gd178 2.468 . S
O213 C231 1.263 . S
O214 Gd178 2.427 . S
O214 C231 1.252 . S
O215 Gd179 2.307 1_556 S
O215 C224 1.261 . S
O216 Gd178 2.388 . S
O216 C224 1.252 . S
O217 Gd178 2.386 . S
O217 C235 1.265 . S
O218 Gd179 2.353 . S
O218 C235 1.242 1_554 S
O219 Gd179 2.468 . S
O219 C243 1.263 . S
O220 Gd179 2.427 . S
O220 C243 1.252 . S
O221 Gd178 2.307 1_554 S
O221 C236 1.261 . S
O222 Gd179 2.388 . S
O222 C236 1.252 . S
C223 O211 1.265 . S
C223 O212 1.242 1_554 S
C224 O215 1.261 . S
C224 O216 1.252 . S
C225 C228 1.394 . S
C225 C230 1.370 . S
C225 C231 1.500 . S
C226 C229 1.383 . S
C226 C230 1.395 . S
C227 C228 1.396 . S
C227 C229 1.365 . S
C227 H244 0.929 . S
C228 C225 1.394 . S
C228 C227 1.396 . S
C228 H245 0.930 . S
C229 C226 1.383 . S
C229 C227 1.365 . S
C229 H246 0.931 . S
C230 C225 1.370 . S
C230 C226 1.395 . S
C230 H247 0.930 1_556 S
C231 Gd178 2.805 . S
C231 O213 1.263 . S
C231 O214 1.252 . S
C231 C225 1.500 . S
C232 H194 0.930 . S
C232 C208 1.417 . S
C232 C233 1.329 . S
C233 C203 1.437 . S
C233 H204 0.929 . S
C233 C232 1.329 . S
H234 C207 0.931 . S
C235 O217 1.265 . S
C235 O218 1.242 1_556 S
C236 O221 1.261 . S
C236 O222 1.252 . S
C237 C240 1.394 . S
C237 C242 1.370 . S
C237 C243 1.500 . S
C238 C241 1.383 . S
C238 C242 1.395 . S
C239 C240 1.396 . S
C239 C241 1.365 . S
C239 H248 0.929 . S
C240 C237 1.394 . S
C240 C239 1.396 . S
C240 H249 0.930 . S
C241 C238 1.383 . S
C241 C239 1.365 . S
C241 H250 0.931 . S
C242 C237 1.370 . S
C242 C238 1.395 . S
C242 H251 0.930 1_554 S
C243 Gd179 2.805 . S
C243 O219 1.263 . S
C243 O220 1.252 . S
C243 C237 1.500 . S
H244 C227 0.929 . S
H245 C228 0.930 . S
H246 C229 0.931 . S
H247 C230 0.930 1_554 S
H248 C239 0.929 . S
H249 C240 0.930 . S
H250 C241 0.931 . S
H251 C242 0.930 1_556 S
C252 C254 1.422 . S
C252 C256 1.415 . S
C252 N258 1.369 . S
C253 C254 1.421 . S
C253 C255 1.417 . S
C253 C265 1.422 . S
C254 C252 1.422 . S
C254 C253 1.421 . S
C254 N264 1.359 . S
C255 C253 1.417 . S
C255 C257 1.329 . S
C255 H274 0.930 . S
C256 C252 1.415 . S
C256 C257 1.437 . S
C256 C260 1.413 . S
C257 C255 1.329 . S
C257 C256 1.437 . S
C257 H279 0.929 . S
N258 C252 1.369 . S
N258 C259 1.338 . S
N258 Gd263 2.622 . S
C259 N258 1.338 . S
C259 C261 1.378 . S
C259 H271 0.929 . S
C260 C256 1.413 . S
C260 C261 1.348 . S
C260 H276 0.931 . S
C261 C259 1.378 . S
C261 C260 1.348 . S
C261 H277 0.930 . S
Gd262 N282 2.622 . S
Gd262 N289 2.570 . S
Gd262 O296 2.353 . S
Gd262 O297 2.468 . S
Gd262 O298 2.427 . S
Gd262 O300 2.388 . S
Gd262 O301 2.386 . S
Gd262 O305 2.307 . S
Gd262 C315 2.805 . S
Gd263 N258 2.622 . S
Gd263 N264 2.570 . S
Gd263 O295 2.386 . S
Gd263 O299 2.307 . S
Gd263 O302 2.353 . S
Gd263 O303 2.468 . S
Gd263 O304 2.427 . S
Gd263 O306 2.388 . S
Gd263 C327 2.805 . S
N264 C254 1.359 . S
N264 Gd263 2.570 . S
N264 C266 1.343 . S
C265 C253 1.422 . S
C265 C267 1.321 . S
C265 H273 0.931 . S
C266 N264 1.343 . S
C266 C267 1.390 . S
C266 H268 0.931 . S
C267 C265 1.321 . S
C267 C266 1.390 . S
C267 H269 0.930 . S
H268 C266 0.931 . S
H269 C267 0.930 . S
H270 C293 0.931 . S
H271 C259 0.929 . S
H272 C294 0.930 . S
H273 C265 0.931 . S
H274 C255 0.930 . S
H275 C284 0.929 . S
H276 C260 0.931 . S
H277 C261 0.930 . S
H278 C316 0.930 . S
H279 C257 0.929 . S
H280 C285 0.931 . S
H281 C286 0.930 . S
N282 Gd262 2.622 . S
N282 C283 1.369 . S
N282 C284 1.338 . S
C283 N282 1.369 . S
C283 C287 1.415 . S
C283 C290 1.422 . S
C284 H275 0.929 . S
C284 N282 1.338 . S
C284 C286 1.378 . S
C285 H280 0.931 . S
C285 C286 1.348 . S
C285 C287 1.413 . S
C286 H281 0.930 . S
C286 C284 1.378 . S
C286 C285 1.348 . S
C287 C283 1.415 . S
C287 C285 1.413 . S
C287 C317 1.437 . S
H288 C317 0.929 . S
N289 Gd262 2.570 . S
N289 C290 1.359 . S
N289 C293 1.343 . S
C290 C283 1.422 . S
C290 N289 1.359 . S
C290 C292 1.421 . S
C291 C292 1.422 . S
C291 C294 1.321 . S
C291 H318 0.931 . S
C292 C290 1.421 . S
C292 C291 1.422 . S
C292 C316 1.417 . S
C293 H270 0.931 . S
C293 N289 1.343 . S
C293 C294 1.390 . S
C294 H272 0.930 . S
C294 C291 1.321 . S
C294 C293 1.390 . S
O295 Gd263 2.386 . S
O295 C307 1.265 . S
O296 Gd262 2.353 . S
O296 C307 1.242 . S
O297 Gd262 2.468 . S
O297 C315 1.263 . S
O298 Gd262 2.427 . S
O298 C315 1.252 . S
O299 Gd263 2.307 . S
O299 C308 1.261 . S
O300 Gd262 2.388 . S
O300 C308 1.252 . S
O301 Gd262 2.386 . S
O301 C319 1.265 . S
O302 Gd263 2.353 . S
O302 C319 1.242 . S
O303 Gd263 2.468 . S
O303 C327 1.263 . S
O304 Gd263 2.427 . S
O304 C327 1.252 . S
O305 Gd262 2.307 . S
O305 C320 1.261 . S
O306 Gd263 2.388 . S
O306 C320 1.252 . S
C307 O295 1.265 . S
C307 O296 1.242 . S
C308 O299 1.261 . S
C308 O300 1.252 . S
C309 C312 1.394 . S
C309 C314 1.370 . S
C309 C315 1.500 . S
C310 C313 1.383 . S
C310 C314 1.395 . S
C311 C312 1.396 . S
C311 C313 1.365 . S
C311 H328 0.929 . S
C312 C309 1.394 . S
C312 C311 1.396 . S
C312 H329 0.930 . S
C313 C310 1.383 . S
C313 C311 1.365 . S
C313 H330 0.931 . S
C314 C309 1.370 . S
C314 C310 1.395 . S
C314 H331 0.930 . S
C315 Gd262 2.805 . S
C315 O297 1.263 . S
C315 O298 1.252 . S
C315 C309 1.500 . S
C316 H278 0.930 . S
C316 C292 1.417 . S
C316 C317 1.329 . S
C317 C287 1.437 . S
C317 H288 0.929 . S
C317 C316 1.329 . S
H318 C291 0.931 . S
C319 O301 1.265 . S
C319 O302 1.242 . S
C320 O305 1.261 . S
C320 O306 1.252 . S
C321 C324 1.394 . S
C321 C326 1.370 . S
C321 C327 1.500 . S
C322 C325 1.383 . S
C322 C326 1.395 . S
C323 C324 1.396 . S
C323 C325 1.365 . S
C323 H332 0.929 . S
C324 C321 1.394 . S
C324 C323 1.396 . S
C324 H333 0.930 . S
C325 C322 1.383 . S
C325 C323 1.365 . S
C325 H334 0.931 . S
C326 C321 1.370 . S
C326 C322 1.395 . S
C326 H335 0.930 . S
C327 Gd263 2.805 . S
C327 O303 1.263 . S
C327 O304 1.252 . S
C327 C321 1.500 . S
H328 C311 0.929 . S
H329 C312 0.930 . S
H330 C313 0.931 . S
H331 C314 0.930 . S
H332 C323 0.929 . S
H333 C324 0.930 . S
H334 C325 0.931 . S
H335 C326 0.930 . S
C336 C337 1.369 1_554 S
C336 C338 1.419 . S
C336 H340 0.930 . S
C337 C336 1.369 1_556 S
C337 C346 1.429 . S
C338 C336 1.419 . S
C338 C339 1.363 . S
C338 H341 0.929 . S
C339 C338 1.363 . S
C339 C345 1.428 1_554 S
H340 C336 0.930 . S
H341 C338 0.929 . S
S342 N343 1.613 1_655 S
S342 N344 1.610 1_655 S
N343 S342 1.613 1_455 S
N343 C346 1.350 . S
N344 S342 1.610 1_455 S
N344 C345 1.351 . S
C345 C339 1.428 1_556 S
C345 N344 1.351 . S
C345 C346 1.434 . S
C346 C337 1.429 . S
C346 N343 1.350 . S
C346 C345 1.434 . S
C347 C348 1.369 1_556 S
C347 C349 1.419 . S
C347 H351 0.930 . S
C348 C347 1.369 1_554 S
C348 C357 1.429 . S
C349 C347 1.419 . S
C349 C350 1.363 . S
C349 H352 0.929 . S
C350 C349 1.363 . S
C350 C356 1.428 1_556 S
H351 C347 0.930 . S
H352 C349 0.929 . S
S353 N354 1.613 . S
S353 N355 1.610 . S
N354 S353 1.613 . S
N354 C357 1.350 . S
N355 S353 1.610 . S
N355 C356 1.351 . S
C356 C350 1.428 1_554 S
C356 N355 1.351 . S
C356 C357 1.434 . S
C357 C348 1.429 . S
C357 N354 1.350 . S
C357 C356 1.434 . S
C358 C359 1.369 . S
C358 C360 1.419 . S
C358 H362 0.930 . S
C359 C358 1.369 . S
C359 C368 1.429 . S
C360 C358 1.419 . S
C360 C361 1.363 . S
C360 H363 0.929 . S
C361 C360 1.363 . S
C361 C367 1.428 . S
H362 C358 0.930 . S
H363 C360 0.929 . S
S364 N365 1.613 . S
S364 N366 1.610 . S
N365 S364 1.613 . S
N365 C368 1.350 . S
N366 S364 1.610 . S
N366 C367 1.351 . S
C367 C361 1.428 . S
C367 N366 1.351 . S
C367 C368 1.434 . S
C368 C359 1.429 . S
C368 N365 1.350 . S
C368 C367 1.434 . S
C369 C370 1.369 . S
C369 C371 1.419 . S
C369 H373 0.930 . S
C370 C369 1.369 . S
C370 C379 1.429 . S
C371 C369 1.419 . S
C371 C372 1.363 . S
C371 H374 0.929 . S
C372 C371 1.363 . S
C372 C378 1.428 . S
H373 C369 0.930 . S
H374 C371 0.929 . S
S375 N376 1.613 . S
S375 N377 1.610 . S
N376 S375 1.613 . S
N376 C379 1.350 . S
N377 S375 1.610 . S
N377 C378 1.351 . S
C378 C372 1.428 . S
C378 N377 1.351 . S
C378 C379 1.434 . S
C379 C370 1.429 . S
C379 N376 1.350 . S
C379 C378 1.434 . S
C380 C381 1.370 1_545 S
C380 C382 1.419 . S
C380 H384 0.930 . S
C381 C380 1.370 1_565 S
C381 C390 1.428 1_556 S
C382 C380 1.419 . S
C382 C383 1.363 1_556 S
C382 H385 0.929 . S
C383 C382 1.363 1_554 S
C383 C389 1.428 1_545 S
H384 C380 0.930 . S
H385 C382 0.929 . S
S386 N387 1.613 . S
S386 N388 1.610 . S
N387 S386 1.613 . S
N387 C390 1.350 . S
N388 S386 1.610 . S
N388 C389 1.351 . S
C389 C383 1.428 1_565 S
C389 N388 1.351 . S
C389 C390 1.434 . S
C390 C381 1.428 1_554 S
C390 N387 1.350 . S
C390 C389 1.434 . S
C391 C392 1.369 . S
C391 C393 1.419 . S
C391 H395 0.930 . S
C392 C391 1.369 . S
C392 C401 1.429 1_545 S
C393 C391 1.419 . S
C393 C394 1.363 1_545 S
C393 H396 0.929 . S
C394 C393 1.363 1_565 S
C394 C400 1.428 . S
H395 C391 0.930 . S
H396 C393 0.929 . S
S397 N398 1.613 . S
S397 N399 1.610 . S
N398 S397 1.613 . S
N398 C401 1.350 . S
N399 S397 1.610 . S
N399 C400 1.351 . S
C400 C394 1.428 . S
C400 N399 1.351 . S
C400 C401 1.434 . S
C401 C392 1.429 1_565 S
C401 N398 1.350 . S
C401 C400 1.434 . S
C402 C403 1.369 . S
C402 C404 1.419 1_655 S
C402 H406 0.930 . S
C403 C402 1.369 . S
C403 C412 1.429 1_556 S
C404 C402 1.419 1_455 S
C404 C405 1.363 1_556 S
C404 H407 0.929 . S
C405 C404 1.363 1_554 S
C405 C411 1.428 . S
H406 C402 0.930 . S
H407 C404 0.929 . S
S408 N409 1.613 1_455 S
S408 N410 1.610 . S
N409 S408 1.613 1_655 S
N409 C412 1.350 . S
N410 S408 1.610 . S
N410 C411 1.351 . S
C411 C405 1.428 . S
C411 N410 1.351 . S
C411 C412 1.434 1_455 S
C412 C403 1.429 1_554 S
C412 N409 1.350 . S
C412 C411 1.434 1_655 S
C413 C414 1.369 . S
C413 C415 1.419 1_455 S
C413 H417 0.930 . S
C414 C413 1.369 . S
C414 C423 1.429 . S
C415 C413 1.419 1_655 S
C415 C416 1.363 . S
C415 H418 0.929 . S
C416 C415 1.363 . S
C416 C422 1.428 . S
H417 C413 0.930 . S
H418 C415 0.929 . S
S419 N420 1.613 1_655 S
S419 N421 1.610 . S
N420 S419 1.613 1_455 S
N420 C423 1.350 . S
N421 S419 1.610 . S
N421 C422 1.351 . S
C422 C416 1.428 . S
C422 N421 1.351 . S
C422 C423 1.434 1_655 S
C423 C414 1.429 . S
C423 N420 1.350 . S
C423 C422 1.434 1_455 S
C424 C425 1.369 1_565 S
C424 C426 1.419 . S
C424 H428 0.930 . S
C425 C424 1.369 1_545 S
C425 C434 1.429 1_655 S
C426 C424 1.419 . S
C426 C427 1.362 . S
C426 H429 0.929 . S
C427 C426 1.362 . S
C427 C433 1.429 1_665 S
H428 C424 0.930 . S
H429 C426 0.929 . S
S430 N431 1.613 . S
S430 N432 1.610 . S
N431 S430 1.613 . S
N431 C434 1.350 . S
N432 S430 1.610 . S
N432 C433 1.351 . S
C433 C427 1.429 1_445 S
C433 N432 1.351 . S
C433 C434 1.434 . S
C434 C425 1.429 1_455 S
C434 N431 1.350 . S
C434 C433 1.434 . S
C435 C436 1.369 1_665 S
C435 C437 1.419 . S
C435 H439 0.930 . S
C436 C435 1.369 1_445 S
C436 C445 1.429 . S
C437 C435 1.419 . S
C437 C438 1.362 1_655 S
C437 H440 0.929 . S
C438 C437 1.362 1_455 S
C438 C444 1.429 1_565 S
H439 C435 0.930 . S
H440 C437 0.929 . S
S441 N442 1.613 . S
S441 N443 1.610 . S
N442 S441 1.613 . S
N442 C445 1.350 . S
N443 S441 1.610 . S
N443 C444 1.351 . S
C444 C438 1.429 1_545 S
C444 N443 1.351 . S
C444 C445 1.434 . S
C445 C436 1.429 . S
C445 N442 1.350 . S
C445 C444 1.434 . S
C446 C447 1.369 . S
C446 C448 1.419 . S
C446 H450 0.930 . S
C447 C446 1.369 . S
C447 C456 1.429 . S
C448 C446 1.419 . S
C448 C449 1.363 . S
C448 H451 0.929 . S
C449 C448 1.363 . S
C449 C455 1.428 . S
H450 C446 0.930 . S
H451 C448 0.929 . S
S452 N453 1.613 . S
S452 N454 1.610 . S
N453 S452 1.613 . S
N453 C456 1.350 . S
N454 S452 1.610 . S
N454 C455 1.351 . S
C455 C449 1.428 . S
C455 N454 1.351 . S
C455 C456 1.434 . S
C456 C447 1.429 . S
C456 N453 1.350 . S
C456 C455 1.434 . S
C457 C458 1.369 . S
C457 C459 1.419 . S
C457 H461 0.930 . S
C458 C457 1.369 . S
C458 C467 1.429 . S
C459 C457 1.419 . S
C459 C460 1.363 . S
C459 H462 0.929 . S
C460 C459 1.363 . S
C460 C466 1.428 . S
H461 C457 0.930 . S
H462 C459 0.929 . S
S463 N464 1.613 . S
S463 N465 1.610 . S
N464 S463 1.613 . S
N464 C467 1.350 . S
N465 S463 1.610 . S
N465 C466 1.351 . S
C466 C460 1.428 . S
C466 N465 1.351 . S
C466 C467 1.434 . S
C467 C458 1.429 . S
C467 N464 1.350 . S
C467 C466 1.434 . S
C337 C238 1.478 1_556 S
C339 C58 1.470 1_554 S
C348 C226 1.476 1_554 S
C350 C70 1.465 1_556 S
C359 C142 1.479 . S
C361 C322 1.462 . S
C370 C154 1.476 . S
C372 C310 1.472 . S
C381 C55 2.006 1_556 S
C383 C67 2.006 1_554 S
C392 C139 2.005 . S
C394 C151 2.006 . S
C403 C223 2.006 1_556 S
C405 C235 2.006 1_554 S
C414 C319 2.007 . S
C416 C307 2.005 . S
C425 C152 1.482 1_545 S
C427 C68 1.476 1_565 S
C436 C56 1.481 1_545 S
C438 C140 1.480 1_565 S
C447 C320 1.477 . S
C449 C236 1.478 . S
C458 C308 1.477 . S
C460 C224 1.483 . S
