# Generated by pormake.
# Topology ume, (4)-cn, num edge types: 1
# Building blocks:
#     Node 0, Type 0, BuildingBlock: NAWXER_clean_sbu_0, # of connection points: 4
#     Node 1, Type 0, BuildingBlock: NAWXER_clean_sbu_0, # of connection points: 4
#     Node 2, Type 0, BuildingBlock: NAWXER_clean_sbu_0, # of connection points: 4
#     Node 3, Type 0, BuildingBlock: NAWXER_clean_sbu_0, # of connection points: 4
#     Node 4, Type 0, BuildingBlock: NAWXER_clean_sbu_0, # of connection points: 4
#     Node 5, Type 0, BuildingBlock: NAWXER_clean_sbu_0, # of connection points: 4
#     Node 6, Type 0, BuildingBlock: NAWXER_clean_sbu_0, # of connection points: 4
#     Node 7, Type 0, BuildingBlock: NAWXER_clean_sbu_0, # of connection points: 4
#     Node 8, Type 0, BuildingBlock: NAWXER_clean_sbu_0, # of connection points: 4
#     Node 9, Type 0, BuildingBlock: NAWXER_clean_sbu_0, # of connection points: 4
#     Node 10, Type 0, BuildingBlock: NAWXER_clean_sbu_0, # of connection points: 4
#     Node 11, Type 0, BuildingBlock: NAWXER_clean_sbu_0, # of connection points: 4
#     Node 12, Type 0, BuildingBlock: NAWXER_clean_sbu_0, # of connection points: 4
#     Node 13, Type 0, BuildingBlock: NAWXER_clean_sbu_0, # of connection points: 4
#     Node 14, Type 0, BuildingBlock: NAWXER_clean_sbu_0, # of connection points: 4
#     Node 15, Type 0, BuildingBlock: NAWXER_clean_sbu_0, # of connection points: 4
#     Edge 16, Type (0, 0), BuildingBlock: AJUNOK_clean_linker_0, # of connection points: 2
#     Edge 17, Type (0, 0), BuildingBlock: AJUNOK_clean_linker_0, # of connection points: 2
#     Edge 18, Type (0, 0), BuildingBlock: AJUNOK_clean_linker_0, # of connection points: 2
#     Edge 19, Type (0, 0), BuildingBlock: AJUNOK_clean_linker_0, # of connection points: 2
#     Edge 20, Type (0, 0), BuildingBlock: AJUNOK_clean_linker_0, # of connection points: 2
#     Edge 21, Type (0, 0), BuildingBlock: AJUNOK_clean_linker_0, # of connection points: 2
#     Edge 22, Type (0, 0), BuildingBlock: AJUNOK_clean_linker_0, # of connection points: 2
#     Edge 23, Type (0, 0), BuildingBlock: AJUNOK_clean_linker_0, # of connection points: 2
#     Edge 24, Type (0, 0), BuildingBlock: AJUNOK_clean_linker_0, # of connection points: 2
#     Edge 25, Type (0, 0), BuildingBlock: AJUNOK_clean_linker_0, # of connection points: 2
#     Edge 26, Type (0, 0), BuildingBlock: AJUNOK_clean_linker_0, # of connection points: 2
#     Edge 27, Type (0, 0), BuildingBlock: AJUNOK_clean_linker_0, # of connection points: 2
#     Edge 28, Type (0, 0), BuildingBlock: AJUNOK_clean_linker_0, # of connection points: 2
#     Edge 29, Type (0, 0), BuildingBlock: AJUNOK_clean_linker_0, # of connection points: 2
#     Edge 30, Type (0, 0), BuildingBlock: AJUNOK_clean_linker_0, # of connection points: 2
#     Edge 31, Type (0, 0), BuildingBlock: AJUNOK_clean_linker_0, # of connection points: 2
#     Edge 32, Type (0, 0), BuildingBlock: AJUNOK_clean_linker_0, # of connection points: 2
#     Edge 33, Type (0, 0), BuildingBlock: AJUNOK_clean_linker_0, # of connection points: 2
#     Edge 34, Type (0, 0), BuildingBlock: AJUNOK_clean_linker_0, # of connection points: 2
#     Edge 35, Type (0, 0), BuildingBlock: AJUNOK_clean_linker_0, # of connection points: 2
#     Edge 36, Type (0, 0), BuildingBlock: AJUNOK_clean_linker_0, # of connection points: 2
#     Edge 37, Type (0, 0), BuildingBlock: AJUNOK_clean_linker_0, # of connection points: 2
#     Edge 38, Type (0, 0), BuildingBlock: AJUNOK_clean_linker_0, # of connection points: 2
#     Edge 39, Type (0, 0), BuildingBlock: AJUNOK_clean_linker_0, # of connection points: 2
#     Edge 40, Type (0, 0), BuildingBlock: AJUNOK_clean_linker_0, # of connection points: 2
#     Edge 41, Type (0, 0), BuildingBlock: AJUNOK_clean_linker_0, # of connection points: 2
#     Edge 42, Type (0, 0), BuildingBlock: AJUNOK_clean_linker_0, # of connection points: 2
#     Edge 43, Type (0, 0), BuildingBlock: AJUNOK_clean_linker_0, # of connection points: 2
#     Edge 44, Type (0, 0), BuildingBlock: AJUNOK_clean_linker_0, # of connection points: 2
#     Edge 45, Type (0, 0), BuildingBlock: AJUNOK_clean_linker_0, # of connection points: 2
#     Edge 46, Type (0, 0), BuildingBlock: AJUNOK_clean_linker_0, # of connection points: 2
#     Edge 47, Type (0, 0), BuildingBlock: AJUNOK_clean_linker_0, # of connection points: 2
# Relax obj value: 0.054
# Max RMSD: 0.243
# Mean RMSD: 0.243
data_MOF--net-ume--node1-NAWXER_clean_sbu_0--edge1-AJUNOK_clean_linker_0
_symmetry_space_group_name_H-M    P1
_symmetry_Int_Tables_number       1
_symmetry_cell_setting            triclinic
loop_
_symmetry_equiv_pos_as_xyz
'x, y, z'
_cell_length_a     21.087878
_cell_length_b     21.085092
_cell_length_c     82.142945
_cell_angle_alpha  90.00124
_cell_angle_beta   89.940629
_cell_angle_gamma 89.697499
loop_
_atom_site_label
_atom_site_type_symbol
_atom_site_fract_x
_atom_site_fract_y
_atom_site_fract_z
_atom_type_partial_charge
C0 C 0.24002 0.10314 0.359 0.0
C1 C 0.2665 0.14338 0.30116 0.0
O2 O 0.2406 0.1559 0.35155 0.0
Zn3 Zn 0.24539 0.12266 0.32979 0.0
O4 O 0.24091 0.05155 0.35072 0.0
Zn5 Zn 0.24586 0.02511 0.32531 0.0
O6 O 0.31994 0.97373 0.32541 0.0
O7 O 0.33776 0.07527 0.33014 0.0
O8 O 0.26424 0.08378 0.30425 0.0
O9 O 0.25474 0.18318 0.31236 0.0
O10 O 0.15277 0.08279 0.326 0.0
O11 O 0.16844 0.98152 0.321 0.0
C12 C 0.3586 0.01827 0.32832 0.0
C13 C 0.13048 0.02778 0.32271 0.0
C14 C 0.97603 0.86269 0.57722 0.0
C15 C 0.97299 0.63461 0.57275 0.0
O16 O 0.02 0.82394 0.57362 0.0
Zn17 Zn 0.97012 0.74967 0.57442 0.0
O18 O 0.91964 0.84194 0.57974 0.0
Zn19 Zn 0.87439 0.74872 0.5799 0.0
O20 O 0.84285 0.74462 0.60172 0.0
O21 O 0.94707 0.74555 0.60027 0.0
O22 O 0.91701 0.65503 0.57627 0.0
O23 O 0.01667 0.67433 0.57032 0.0
O24 O 0.908 0.76234 0.55357 0.0
O25 O 0.8108 0.7583 0.56341 0.0
C26 C 0.89615 0.74455 0.60886 0.0
C27 C 0.84778 0.7657 0.55141 0.0
C28 C 0.13558 0.47969 0.82811 0.0
C29 C 0.36343 0.47699 0.82305 0.0
O30 O 0.17388 0.52433 0.82509 0.0
Zn31 Zn 0.24822 0.47456 0.82537 0.0
O32 O 0.15708 0.42299 0.8302 0.0
Zn33 Zn 0.25158 0.37807 0.83017 0.0
O34 O 0.25653 0.34529 0.85194 0.0
O35 O 0.25308 0.44955 0.85095 0.0
O36 O 0.34375 0.42103 0.8265 0.0
O37 O 0.32323 0.52095 0.82102 0.0
O38 O 0.23269 0.41447 0.8044 0.0
O39 O 0.24537 0.31615 0.81301 0.0
C40 C 0.2553 0.39817 0.85932 0.0
C41 C 0.23318 0.35463 0.80155 0.0
C42 C 0.52438 0.63752 0.07772 0.0
C43 C 0.5361 0.866 0.07398 0.0
O44 O 0.48108 0.67788 0.07481 0.0
Zn45 Zn 0.53362 0.75084 0.07569 0.0
O46 O 0.58148 0.65663 0.08 0.0
Zn47 Zn 0.63 0.74779 0.08025 0.0
O48 O 0.66442 0.74993 0.1016 0.0
O49 O 0.56013 0.75255 0.10142 0.0
O50 O 0.59135 0.8427 0.07693 0.0
O51 O 0.48978 0.8287 0.07221 0.0
O52 O 0.5934 0.73752 0.05423 0.0
O53 O 0.69159 0.73698 0.06347 0.0
C54 C 0.61258 0.75139 0.1094 0.0
C55 C 0.65331 0.73205 0.05167 0.0
C56 C 0.24481 0.3988 0.93041 0.0
C57 C 0.27001 0.35851 0.98829 0.0
O58 O 0.2461 0.34612 0.9379 0.0
Zn59 Zn 0.24931 0.37968 0.95962 0.0
O60 O 0.24461 0.45048 0.93867 0.0
Zn61 Zn 0.24819 0.47691 0.96416 0.0
O62 O 0.32123 0.52874 0.9643 0.0
O63 O 0.34116 0.42753 0.95949 0.0
O64 O 0.26674 0.41816 0.98526 0.0
O65 O 0.25896 0.31899 0.97702 0.0
O66 O 0.1557 0.41953 0.96305 0.0
O67 O 0.17027 0.52061 0.96829 0.0
C68 C 0.36092 0.48464 0.96146 0.0
C69 C 0.13275 0.4746 0.9663 0.0
C70 C 0.60771 0.74176 0.18046 0.0
C71 C 0.63773 0.76526 0.23867 0.0
O72 O 0.65827 0.7392 0.18879 0.0
Zn73 Zn 0.6206 0.74582 0.20988 0.0
O74 O 0.55416 0.74586 0.18787 0.0
Zn75 Zn 0.52293 0.75223 0.21302 0.0
O76 O 0.47594 0.82906 0.21246 0.0
O77 O 0.57908 0.84115 0.2091 0.0
O78 O 0.57865 0.76676 0.23491 0.0
O79 O 0.6785 0.75103 0.2279 0.0
O80 O 0.5745 0.65564 0.21301 0.0
O81 O 0.47363 0.6779 0.2167 0.0
C82 C 0.52313 0.86527 0.2103 0.0
C83 C 0.51748 0.63698 0.21551 0.0
C84 C 0.23008 0.14905 0.48761 0.0
C85 C 0.25048 0.10313 0.43004 0.0
O86 O 0.2386 0.18676 0.47581 0.0
Zn87 Zn 0.24712 0.1239 0.45911 0.0
O88 O 0.23209 0.0889 0.48521 0.0
Zn89 Zn 0.24332 0.0274 0.46415 0.0
O90 O 0.31799 0.97882 0.46805 0.0
O91 O 0.33903 0.07883 0.46286 0.0
O92 O 0.24792 0.05187 0.43846 0.0
O93 O 0.25214 0.15606 0.43737 0.0
O94 O 0.15308 0.08178 0.45938 0.0
O95 O 0.16678 0.98022 0.46486 0.0
C96 C 0.35842 0.02225 0.46606 0.0
C97 C 0.12984 0.02639 0.4618 0.0
C98 C 0.9789 0.86322 0.71581 0.0
C99 C 0.98176 0.63441 0.71065 0.0
O100 O 0.02474 0.82455 0.71726 0.0
Zn101 Zn 0.97887 0.74783 0.71341 0.0
O102 O 0.92327 0.84188 0.71283 0.0
Zn103 Zn 0.8809 0.75051 0.7092 0.0
O104 O 0.82092 0.74304 0.72681 0.0
O105 O 0.92032 0.73349 0.73476 0.0
O106 O 0.92566 0.65741 0.70889 0.0
O107 O 0.02777 0.67151 0.71345 0.0
O108 O 0.9514 0.75273 0.68806 0.0
O109 O 0.84706 0.75573 0.68753 0.0
C110 C 0.8608 0.73227 0.73804 0.0
C111 C 0.89952 0.75481 0.67992 0.0
C112 C 0.86353 0.52588 0.82795 0.0
C113 C 0.63474 0.52785 0.82258 0.0
O114 O 0.82671 0.47958 0.8252 0.0
Zn115 Zn 0.75038 0.52837 0.82505 0.0
O116 O 0.84026 0.58189 0.82977 0.0
Zn117 Zn 0.74668 0.62628 0.82944 0.0
O118 O 0.74104 0.6597 0.85115 0.0
O119 O 0.74487 0.55535 0.85041 0.0
O120 O 0.65575 0.58344 0.82576 0.0
O121 O 0.67373 0.48241 0.8209 0.0
O122 O 0.76708 0.58756 0.80396 0.0
O123 O 0.75394 0.68681 0.81194 0.0
C124 C 0.74233 0.60703 0.85865 0.0
C125 C 0.76716 0.64718 0.80081 0.0
C126 C 0.3908 0.2446 0.10887 0.0
C127 C 0.36171 0.26629 0.05063 0.0
O128 O 0.34044 0.24188 0.10049 0.0
Zn129 Zn 0.37884 0.24727 0.07942 0.0
O130 O 0.44448 0.24808 0.10152 0.0
Zn131 Zn 0.47635 0.2533 0.0764 0.0
O132 O 0.52323 0.32961 0.07694 0.0
O133 O 0.41979 0.34287 0.07987 0.0
O134 O 0.42077 0.2681 0.0544 0.0
O135 O 0.32108 0.25176 0.06136 0.0
O136 O 0.4258 0.15658 0.07658 0.0
O137 O 0.52645 0.1787 0.07294 0.0
C138 C 0.47583 0.36633 0.07872 0.0
C139 C 0.48308 0.13779 0.07419 0.0
C140 C 0.63075 0.97431 0.32855 0.0
C141 C 0.85895 0.97857 0.32274 0.0
O142 O 0.6667 0.02122 0.32573 0.0
Zn143 Zn 0.74366 0.97425 0.32547 0.0
O144 O 0.65506 0.91872 0.33035 0.0
Zn145 Zn 0.74998 0.87676 0.32979 0.0
O146 O 0.75693 0.84342 0.35152 0.0
O147 O 0.75061 0.94763 0.35082 0.0
O148 O 0.84014 0.92211 0.32593 0.0
O149 O 0.81819 0.02233 0.32108 0.0
O150 O 0.72788 0.91514 0.30439 0.0
O151 O 0.7432 0.81619 0.31225 0.0
C152 C 0.75465 0.89603 0.35904 0.0
C153 C 0.72849 0.85559 0.30118 0.0
C154 C 0.11159 0.25215 0.60943 0.0
C155 C 0.14592 0.23295 0.55133 0.0
O156 O 0.16256 0.25282 0.60125 0.0
Zn157 Zn 0.126 0.24856 0.5801 0.0
O158 O 0.05831 0.2509 0.60185 0.0
Zn159 Zn 0.02856 0.24761 0.57644 0.0
O160 O 0.97943 0.17184 0.57613 0.0
O161 O 0.08154 0.15582 0.58024 0.0
O162 O 0.08624 0.23601 0.5545 0.0
O163 O 0.18566 0.23953 0.56276 0.0
O164 O 0.0833 0.34128 0.57667 0.0
O165 O 0.98138 0.3243 0.57322 0.0
C166 C 0.02529 0.13377 0.57854 0.0
C167 C 0.02703 0.36288 0.57422 0.0
C168 C 0.7627 0.84994 0.48784 0.0
C169 C 0.74397 0.89486 0.4301 0.0
O170 O 0.75856 0.81189 0.47595 0.0
Zn171 Zn 0.74767 0.87424 0.45919 0.0
O172 O 0.75752 0.9099 0.48536 0.0
Zn173 Zn 0.7452 0.97082 0.46422 0.0
O174 O 0.66775 0.01517 0.46784 0.0
O175 O 0.6531 0.91382 0.4628 0.0
O176 O 0.74314 0.94615 0.43853 0.0
O177 O 0.74521 0.84188 0.43741 0.0
O178 O 0.83895 0.92202 0.45962 0.0
O179 O 0.81873 0.0224 0.46521 0.0
C180 C 0.6302 0.96912 0.46595 0.0
C181 C 0.85856 0.97884 0.46205 0.0
C182 C 0.02863 0.13468 0.71598 0.0
C183 C 0.0278 0.3625 0.71057 0.0
O184 O 0.98431 0.17489 0.71747 0.0
Zn185 Zn 0.03162 0.24988 0.71353 0.0
O186 O 0.08507 0.15432 0.71311 0.0
Zn187 Zn 0.1288 0.24602 0.70983 0.0
O188 O 0.18793 0.25204 0.72755 0.0
O189 O 0.08843 0.26557 0.73516 0.0
O190 O 0.08466 0.34062 0.70922 0.0
O191 O 0.98229 0.32468 0.71313 0.0
O192 O 0.06084 0.24424 0.6882 0.0
O193 O 0.16513 0.24043 0.68854 0.0
C194 C 0.1478 0.26464 0.7386 0.0
C195 C 0.11383 0.24166 0.68049 0.0
C196 C 0.63238 0.53042 0.96141 0.0
C197 C 0.86085 0.52589 0.96548 0.0
O198 O 0.66916 0.48389 0.96422 0.0
Zn199 Zn 0.74598 0.53071 0.96351 0.0
O200 O 0.65576 0.58583 0.95915 0.0
Zn201 Zn 0.74952 0.62784 0.95883 0.0
O202 O 0.75435 0.66054 0.93707 0.0
O203 O 0.75052 0.55632 0.93801 0.0
O204 O 0.84133 0.58262 0.96252 0.0
O205 O 0.82061 0.48204 0.96714 0.0
O206 O 0.7366 0.59101 0.98476 0.0
O207 O 0.74152 0.68967 0.97587 0.0
C208 C 0.75295 0.60773 0.92967 0.0
C209 C 0.73472 0.65092 0.98754 0.0
C210 C 0.47688 0.13734 0.21021 0.0
C211 C 0.46718 0.36556 0.21529 0.0
O212 O 0.52135 0.17659 0.21257 0.0
Zn213 Zn 0.46949 0.25023 0.21286 0.0
O214 O 0.4195 0.15767 0.20882 0.0
Zn215 Zn 0.37176 0.25012 0.20932 0.0
O216 O 0.33515 0.254 0.18801 0.0
O217 O 0.43951 0.25424 0.18762 0.0
O218 O 0.41175 0.34317 0.21255 0.0
O219 O 0.51363 0.32765 0.2166 0.0
O220 O 0.41352 0.23301 0.23458 0.0
O221 O 0.31332 0.2418 0.22717 0.0
C222 C 0.38647 0.2547 0.17994 0.0
C223 C 0.35427 0.23099 0.23813 0.0
C224 C 0.9722 0.94293 0.3216 0.0
C225 C 0.9277 0.99285 0.32172 0.0
C226 C 0.03746 0.95484 0.32153 0.0
C227 C 0.06108 0.01719 0.32171 0.0
H228 H 0.95665 0.89405 0.32172 0.0
H229 H 0.06957 0.91457 0.32167 0.0
S230 S 0.96467 0.16505 0.32144 0.0
N231 N 0.91202 0.10743 0.32151 0.0
N232 N 0.03464 0.12964 0.32146 0.0
C233 C 0.01719 0.06767 0.32152 0.0
C234 C 0.95059 0.05556 0.32149 0.0
C235 C 0.9388 0.5208 0.57376 0.0
C236 C 0.9877 0.56554 0.57228 0.0
C237 C 0.95196 0.45552 0.57408 0.0
C238 C 0.01462 0.43218 0.57309 0.0
H239 H 0.88988 0.53621 0.5748 0.0
H240 H 0.91255 0.42318 0.57541 0.0
S241 S 0.15999 0.5291 0.56855 0.0
N242 N 0.10164 0.58143 0.56937 0.0
N243 N 0.12598 0.45909 0.57009 0.0
C244 C 0.06394 0.47628 0.57138 0.0
C245 C 0.0506 0.54275 0.57094 0.0
C246 C 0.54234 0.45365 0.82262 0.0
C247 C 0.56554 0.51608 0.82169 0.0
C248 C 0.47706 0.44137 0.82285 0.0
C249 C 0.43228 0.49096 0.82202 0.0
H250 H 0.5748 0.41383 0.82353 0.0
H251 H 0.46171 0.39257 0.82383 0.0
S252 S 0.46841 0.66294 0.81856 0.0
N253 N 0.5385 0.62797 0.81932 0.0
N254 N 0.41611 0.60518 0.81966 0.0
C255 C 0.4549 0.5536 0.82068 0.0
C256 C 0.52137 0.56607 0.82055 0.0
C257 C 0.44944 0.02434 0.07276 0.0
C258 C 0.4986 0.06903 0.07343 0.0
C259 C 0.46233 0.95913 0.07264 0.0
C260 C 0.52496 0.93559 0.07331 0.0
H261 H 0.40035 0.03968 0.07241 0.0
H262 H 0.42248 0.92696 0.07227 0.0
S263 S 0.67124 0.03258 0.07481 0.0
N264 N 0.6129 0.08505 0.07443 0.0
N265 N 0.63691 0.96245 0.07429 0.0
C266 C 0.57475 0.97969 0.07377 0.0
C267 C 0.56164 0.0463 0.0738 0.0
C268 C 0.03932 0.54823 0.96737 0.0
C269 C 0.06319 0.48569 0.96694 0.0
C270 C 0.97401 0.56071 0.96705 0.0
C271 C 0.9297 0.51119 0.96644 0.0
H272 H 0.07131 0.58824 0.96766 0.0
H273 H 0.95827 0.6097 0.96721 0.0
S274 S 0.96723 0.33867 0.96566 0.0
N275 N 0.03706 0.3735 0.96625 0.0
N276 N 0.91444 0.39671 0.96574 0.0
C277 C 0.95282 0.44827 0.96632 0.0
C278 C 0.01944 0.4356 0.96654 0.0
C279 C 0.54038 0.45836 0.21639 0.0
C280 C 0.47795 0.43496 0.21623 0.0
C281 C 0.55255 0.52356 0.2164 0.0
C282 C 0.50283 0.56827 0.21635 0.0
H283 H 0.58054 0.42612 0.21621 0.0
H284 H 0.6015 0.53887 0.21629 0.0
S285 S 0.33049 0.53197 0.21669 0.0
N286 N 0.36561 0.46185 0.21656 0.0
N287 N 0.38832 0.5844 0.21665 0.0
C288 C 0.44003 0.54562 0.21657 0.0
C289 C 0.42765 0.47906 0.21648 0.0
C290 C 0.47201 0.0563 0.46648 0.0
C291 C 0.4273 0.00711 0.4668 0.0
C292 C 0.53725 0.04336 0.4665 0.0
C293 C 0.5607 0.98063 0.4667 0.0
H294 H 0.45665 0.10539 0.4661 0.0
H295 H 0.56949 0.08315 0.46607 0.0
S296 S 0.46377 0.83435 0.46805 0.0
N297 N 0.41132 0.89272 0.46773 0.0
N298 N 0.53388 0.86871 0.46766 0.0
C299 C 0.51663 0.9309 0.46723 0.0
C300 C 0.45005 0.94404 0.46733 0.0
C301 C 0.06452 0.02124 0.71581 0.0
C302 C 0.0148 0.06579 0.71691 0.0
C303 C 0.05252 0.95594 0.71583 0.0
C304 C 0.99026 0.93245 0.71684 0.0
H305 H 0.11323 0.03678 0.71473 0.0
H306 H 0.09246 0.92371 0.7147 0.0
S307 S 0.8432 0.02881 0.72086 0.0
N308 N 0.90068 0.08142 0.71974 0.0
N309 N 0.87838 0.95888 0.7197 0.0
C310 C 0.94013 0.97634 0.7183 0.0
C311 C 0.95232 0.04288 0.71837 0.0
C312 C 0.53585 0.0455 0.32837 0.0
C313 C 0.56121 0.98372 0.32924 0.0
C314 C 0.47037 0.05608 0.32834 0.0
C315 C 0.42749 0.00533 0.32909 0.0
H316 H 0.56673 0.08627 0.32758 0.0
H317 H 0.45339 0.10453 0.32745 0.0
S318 S 0.46916 0.83437 0.33209 0.0
N319 N 0.53808 0.87093 0.33128 0.0
N320 N 0.41488 0.89092 0.33123 0.0
C321 C 0.45204 0.94327 0.3302 0.0
C322 C 0.51887 0.93246 0.33028 0.0
C323 C 0.93987 0.97574 0.57735 0.0
C324 C 0.98966 0.93132 0.57829 0.0
C325 C 0.95182 0.041 0.57761 0.0
C326 C 0.01403 0.06444 0.57896 0.0
H327 H 0.89126 0.9601 0.57608 0.0
H328 H 0.91185 0.07322 0.57662 0.0
S329 S 0.16091 0.96753 0.58291 0.0
N330 N 0.10339 0.91513 0.58139 0.0
N331 N 0.12592 0.03759 0.58194 0.0
C332 C 0.06419 0.02041 0.58032 0.0
C333 C 0.052 0.95395 0.57996 0.0
C334 C 0.02329 0.44232 0.82902 0.0
C335 C 0.06659 0.49281 0.82877 0.0
C336 C 0.95778 0.45347 0.82889 0.0
C337 C 0.93297 0.51557 0.82862 0.0
H338 H 0.03998 0.39364 0.82905 0.0
H339 H 0.92644 0.41294 0.82893 0.0
S340 S 0.02612 0.66463 0.82838 0.0
N341 N 0.0799 0.60754 0.82864 0.0
N342 N 0.957 0.6284 0.82837 0.0
C343 C 0.97573 0.56659 0.82864 0.0
C344 C 0.04243 0.55524 0.82871 0.0
C345 C 0.55814 0.52502 0.08192 0.0
C346 C 0.50963 0.56888 0.07833 0.0
C347 C 0.54642 0.45981 0.0822 0.0
C348 C 0.48563 0.4357 0.07901 0.0
H349 H 0.6059 0.54094 0.08443 0.0
H350 H 0.58554 0.42807 0.08494 0.0
S351 S 0.34203 0.52991 0.06874 0.0
N352 N 0.39809 0.58324 0.0714 0.0
N353 N 0.37627 0.46053 0.072 0.0
C354 C 0.43642 0.47883 0.07554 0.0
C355 C 0.44837 0.54541 0.07517 0.0
C356 C 0.47342 0.44794 0.95965 0.0
C357 C 0.42967 0.4983 0.96091 0.0
C358 C 0.53876 0.4589 0.95972 0.0
C359 C 0.56303 0.52071 0.96095 0.0
H360 H 0.45729 0.39936 0.95879 0.0
H361 H 0.57042 0.41843 0.95881 0.0
S362 S 0.46886 0.66941 0.96443 0.0
N363 N 0.41542 0.61269 0.96331 0.0
N364 N 0.53829 0.63319 0.96342 0.0
C365 C 0.51994 0.5717 0.96204 0.0
C366 C 0.45329 0.56053 0.96204 0.0
C367 C 0.45128 0.95969 0.20972 0.0
C368 C 0.51335 0.9348 0.2096 0.0
C369 C 0.44013 0.0251 0.20967 0.0
C370 C 0.49055 0.06845 0.20956 0.0
H371 H 0.41066 0.92848 0.20997 0.0
H372 H 0.39141 0.04163 0.20995 0.0
S373 S 0.66227 0.02803 0.20875 0.0
N374 N 0.62614 0.95882 0.20903 0.0
N375 N 0.6052 0.08187 0.20891 0.0
C376 C 0.55298 0.04434 0.20922 0.0
C377 C 0.56436 0.97756 0.20923 0.0
C378 C 0.97134 0.94263 0.4611 0.0
C379 C 0.92723 0.99287 0.46147 0.0
C380 C 0.0366 0.95407 0.46109 0.0
C381 C 0.06049 0.01623 0.46132 0.0
H382 H 0.95552 0.89383 0.46105 0.0
H383 H 0.0685 0.91363 0.46094 0.0
S384 S 0.9651 0.1648 0.46186 0.0
N385 N 0.9121 0.1075 0.46172 0.0
N386 N 0.03484 0.12895 0.46168 0.0
C387 C 0.01699 0.06708 0.46144 0.0
C388 C 0.95039 0.05542 0.46153 0.0
C389 C 0.0652 0.47455 0.71197 0.0
C390 C 0.0154 0.43146 0.70965 0.0
C391 C 0.05398 0.54006 0.71209 0.0
C392 C 0.99256 0.56502 0.70979 0.0
H393 H 0.1131 0.45765 0.71407 0.0
H394 H 0.09381 0.57122 0.71419 0.0
S395 S 0.84646 0.47208 0.70197 0.0
N396 N 0.90285 0.41823 0.70413 0.0
N397 N 0.88168 0.54114 0.70431 0.0
C398 C 0.94256 0.52237 0.70701 0.0
C399 C 0.95399 0.45568 0.70696 0.0
C400 C 0.24247 0.15825 0.38602 0.0
C401 C 0.24143 0.10126 0.3771 0.0
C402 C 0.24606 0.15821 0.40305 0.0
C403 C 0.24869 0.10118 0.41195 0.0
H404 H 0.24077 0.20357 0.37982 0.0
H405 H 0.24649 0.20353 0.40925 0.0
S406 S 0.24773 0.9386 0.39451 0.0
N407 N 0.24357 0.98587 0.37854 0.0
N408 N 0.25024 0.98587 0.4105 0.0
C409 C 0.2477 0.04371 0.40322 0.0
C410 C 0.24405 0.04374 0.38583 0.0
C411 C 0.84242 0.74934 0.63605 0.0
C412 C 0.89899 0.74615 0.62695 0.0
C413 C 0.8432 0.75284 0.65308 0.0
C414 C 0.90059 0.75324 0.66182 0.0
H415 H 0.79681 0.74943 0.63 0.0
H416 H 0.79818 0.75501 0.65943 0.0
S417 S 0.06234 0.74545 0.64386 0.0
N418 N 0.01432 0.74345 0.62802 0.0
N419 N 0.01586 0.74995 0.66 0.0
C420 C 0.95767 0.75003 0.65289 0.0
C421 C 0.95685 0.74647 0.6355 0.0
C422 C 0.25402 0.34327 0.88639 0.0
C423 C 0.25359 0.40019 0.87743 0.0
C424 C 0.25049 0.34338 0.90344 0.0
C425 C 0.24639 0.40042 0.9123 0.0
H426 H 0.25692 0.29794 0.88023 0.0
H427 H 0.25125 0.29814 0.90968 0.0
S428 S 0.24329 0.56283 0.89471 0.0
N429 N 0.24855 0.51548 0.87877 0.0
N430 N 0.24195 0.51569 0.91074 0.0
C431 C 0.24585 0.45781 0.9035 0.0
C432 C 0.24948 0.4577 0.88612 0.0
C433 C 0.55517 0.75065 0.13618 0.0
C434 C 0.61275 0.74941 0.1275 0.0
C435 C 0.55402 0.74748 0.15324 0.0
C436 C 0.61039 0.74282 0.16237 0.0
H437 H 0.51041 0.75407 0.12978 0.0
H438 H 0.50839 0.74896 0.1593 0.0
S439 S 0.77403 0.73727 0.14555 0.0
N440 N 0.7279 0.74288 0.12941 0.0
N441 N 0.72566 0.73679 0.16134 0.0
C442 C 0.66837 0.74129 0.15384 0.0
C443 C 0.66957 0.74466 0.13647 0.0
C444 C 0.74261 0.66247 0.88564 0.0
C445 C 0.74397 0.60541 0.87674 0.0
C446 C 0.74624 0.66267 0.90268 0.0
C447 C 0.75129 0.60582 0.91159 0.0
H448 H 0.73892 0.70765 0.87943 0.0
H449 H 0.74468 0.70798 0.90888 0.0
S450 S 0.75761 0.44323 0.89419 0.0
N451 N 0.75125 0.49022 0.87821 0.0
N452 N 0.75803 0.49065 0.91016 0.0
C453 C 0.75282 0.54832 0.90286 0.0
C454 C 0.74913 0.5481 0.88549 0.0
C455 C 0.44321 0.25244 0.15312 0.0
C456 C 0.38566 0.25325 0.16183 0.0
C457 C 0.44428 0.24909 0.13608 0.0
C458 C 0.38786 0.24632 0.12697 0.0
H459 H 0.48812 0.25418 0.15949 0.0
H460 H 0.48995 0.24878 0.13003 0.0
S461 S 0.22419 0.24732 0.14382 0.0
N462 N 0.27045 0.2512 0.15997 0.0
N463 N 0.27245 0.24485 0.12801 0.0
C464 C 0.32984 0.24712 0.1355 0.0
C465 C 0.32875 0.25065 0.15289 0.0
C466 C 0.75332 0.84045 0.38601 0.0
C467 C 0.75342 0.89758 0.37714 0.0
C468 C 0.74969 0.84019 0.40304 0.0
C469 C 0.74607 0.89706 0.412 0.0
H470 H 0.75566 0.79525 0.37976 0.0
H471 H 0.74986 0.79478 0.4092 0.0
S472 S 0.74523 0.0599 0.39472 0.0
N473 N 0.74994 0.01291 0.37869 0.0
N474 N 0.74317 0.01237 0.41066 0.0
C475 C 0.74632 0.95465 0.40332 0.0
C476 C 0.75003 0.95493 0.38593 0.0
C477 C 0.05754 0.24495 0.65361 0.0
C478 C 0.11487 0.24305 0.66239 0.0
C479 C 0.05695 0.24839 0.63656 0.0
C480 C 0.11367 0.25022 0.62753 0.0
H481 H 0.01246 0.24397 0.65994 0.0
H482 H 0.01149 0.24953 0.63044 0.0
S483 S 0.27693 0.24645 0.64458 0.0
N484 N 0.23015 0.24319 0.66067 0.0
N485 N 0.22911 0.24979 0.62872 0.0
C486 C 0.17146 0.24835 0.63614 0.0
C487 C 0.17204 0.24469 0.65351 0.0
C488 C 0.25943 0.21701 0.2773 0.0
C489 C 0.28883 0.16533 0.2851 0.0
C490 C 0.28081 0.23828 0.26204 0.0
C491 C 0.33373 0.21007 0.25445 0.0
H492 H 0.21901 0.24037 0.28288 0.0
H493 H 0.25617 0.27737 0.25622 0.0
S494 S 0.42849 0.07466 0.27019 0.0
N495 N 0.37365 0.08687 0.28423 0.0
N496 N 0.41521 0.12827 0.25592 0.0
C497 C 0.36423 0.15921 0.26231 0.0
C498 C 0.34139 0.13645 0.27756 0.0
C499 C 0.82581 0.77762 0.50568 0.0
C500 C 0.77965 0.82575 0.50415 0.0
C501 C 0.84741 0.75785 0.52103 0.0
C502 C 0.82197 0.78401 0.53536 0.0
H503 H 0.84712 0.75673 0.49492 0.0
H504 H 0.88435 0.72203 0.5217 0.0
S505 S 0.69853 0.90966 0.53795 0.0
N506 N 0.70886 0.89856 0.51822 0.0
N507 N 0.74731 0.85953 0.54709 0.0
C508 C 0.7744 0.83074 0.534 0.0
C509 C 0.75381 0.85215 0.51838 0.0
C510 C 0.13994 0.33664 0.76252 0.0
C511 C 0.16954 0.28469 0.75487 0.0
C512 C 0.16207 0.35982 0.77744 0.0
C513 C 0.21342 0.33075 0.78546 0.0
H514 H 0.10028 0.36052 0.75674 0.0
H515 H 0.13805 0.40015 0.78289 0.0
S516 S 0.30625 0.19243 0.77073 0.0
N517 N 0.25298 0.20498 0.75633 0.0
N518 N 0.29279 0.24684 0.78481 0.0
C519 C 0.24277 0.27811 0.7781 0.0
C520 C 0.22135 0.25558 0.76266 0.0
C521 C 0.67425 0.72394 1.00583 0.0
C522 C 0.71864 0.67434 1.00397 0.0
C523 C 0.65317 0.74274 0.02133 0.0
C524 C 0.67743 0.71394 0.03545 0.0
H525 H 0.65393 0.74681 0.99522 0.0
H526 H 0.61775 0.77997 0.02228 0.0
S527 S 0.79568 0.58317 0.03711 0.0
N528 N 0.78617 0.59707 1.01747 0.0
N529 N 0.74876 0.6341 0.04661 0.0
C530 C 0.72307 0.6655 0.03374 0.0
C531 C 0.7431 0.6452 1.01798 0.0
C532 C 0.29204 0.25665 0.02609 0.0
C533 C 0.34027 0.28865 0.03452 0.0
C534 C 0.26944 0.27935 1.01107 0.0
C535 C 0.29266 0.33606 1.00434 0.0
H536 H 0.27213 0.21352 0.03106 0.0
H537 H 0.233 0.25283 1.00481 0.0
S538 S 0.41751 0.43857 0.02202 0.0
N539 N 0.4101 0.37988 0.03518 0.0
N540 N 0.36629 0.42375 1.00733 0.0
C541 C 0.34021 0.36891 1.01282 0.0
C542 C 0.36439 0.34487 0.02782 0.0
C543 C 0.73378 0.78026 0.27759 0.0
C544 C 0.70546 0.83296 0.28524 0.0
C545 C 0.71151 0.75819 0.26251 0.0
C546 C 0.65879 0.78667 0.25491 0.0
H547 H 0.77401 0.75667 0.28317 0.0
H548 H 0.73539 0.71834 0.25682 0.0
S549 S 0.56665 0.92471 0.27024 0.0
N550 N 0.62167 0.91256 0.2842 0.0
N551 N 0.57873 0.86994 0.25619 0.0
C552 C 0.62938 0.83859 0.26261 0.0
C553 C 0.65302 0.86205 0.27769 0.0
C554 C 0.24303 0.15581 0.51776 0.0
C555 C 0.21063 0.17408 0.5036 0.0
C556 C 0.22293 0.17715 0.53312 0.0
C557 C 0.16852 0.21572 0.53485 0.0
H558 H 0.28411 0.12487 0.51696 0.0
H559 H 0.24906 0.16162 0.54376 0.0
S560 S 0.06637 0.27493 0.50138 0.0
N561 N 0.12201 0.23287 0.49211 0.0
N562 N 0.08263 0.2709 0.52102 0.0
C563 C 0.13559 0.23393 0.52074 0.0
C564 C 0.1571 0.21364 0.50509 0.0
C565 C 0.77889 0.73276 0.76026 0.0
C566 C 0.83874 0.713 0.75445 0.0
C567 C 0.75592 0.71214 0.77543 0.0
C568 C 0.79117 0.66949 0.78498 0.0
H569 H 0.74969 0.76451 0.75306 0.0
H570 H 0.70986 0.72859 0.77955 0.0
S571 S 0.95065 0.60433 0.77565 0.0
N572 N 0.93331 0.6496 0.75985 0.0
N573 N 0.88903 0.60959 0.788 0.0
C574 C 0.85093 0.64958 0.7794 0.0
C575 C 0.87504 0.67168 0.76422 0.0
loop_
_geom_bond_atom_site_label_1
_geom_bond_atom_site_label_2
_geom_bond_distance
_geom_bond_site_symmetry_2
_ccdc_geom_bond_type
C0 O2 1.247 . S
C0 O4 1.258 . S
C1 O8 1.247 . S
C1 O9 1.258 . S
O2 C0 1.247 . S
O2 Zn3 2.028 . S
Zn3 O2 2.028 . S
Zn3 O7 2.035 . S
Zn3 O9 2.035 . S
Zn3 O10 2.028 . S
O4 C0 1.258 . S
O4 Zn5 2.035 . S
Zn5 O4 2.035 . S
Zn5 O6 2.028 . S
Zn5 O8 2.028 . S
Zn5 O11 2.035 . S
O6 Zn5 2.028 . S
O6 C12 1.247 . S
O7 Zn3 2.035 . S
O7 C12 1.258 . S
O8 C1 1.247 . S
O8 Zn5 2.028 . S
O9 C1 1.258 . S
O9 Zn3 2.035 . S
O10 Zn3 2.028 . S
O10 C13 1.247 . S
O11 Zn5 2.035 . S
O11 C13 1.258 . S
C12 O6 1.247 . S
C12 O7 1.258 . S
C13 O10 1.247 . S
C13 O11 1.258 . S
C14 O16 1.247 . S
C14 O18 1.258 . S
C15 O22 1.247 . S
C15 O23 1.258 . S
O16 C14 1.247 . S
O16 Zn17 2.028 . S
Zn17 O16 2.028 . S
Zn17 O21 2.035 . S
Zn17 O23 2.035 . S
Zn17 O24 2.028 . S
O18 C14 1.258 . S
O18 Zn19 2.035 . S
Zn19 O18 2.035 . S
Zn19 O20 2.028 . S
Zn19 O22 2.028 . S
Zn19 O25 2.035 . S
O20 Zn19 2.028 . S
O20 C26 1.247 . S
O21 Zn17 2.035 . S
O21 C26 1.258 . S
O22 C15 1.247 . S
O22 Zn19 2.028 . S
O23 C15 1.258 . S
O23 Zn17 2.035 . S
O24 Zn17 2.028 . S
O24 C27 1.247 . S
O25 Zn19 2.035 . S
O25 C27 1.258 . S
C26 O20 1.247 . S
C26 O21 1.258 . S
C27 O24 1.247 . S
C27 O25 1.258 . S
C28 O30 1.247 . S
C28 O32 1.258 . S
C29 O36 1.247 . S
C29 O37 1.258 . S
O30 C28 1.247 . S
O30 Zn31 2.028 . S
Zn31 O30 2.028 . S
Zn31 O35 2.035 . S
Zn31 O37 2.035 . S
Zn31 O38 2.028 . S
O32 C28 1.258 . S
O32 Zn33 2.035 . S
Zn33 O32 2.035 . S
Zn33 O34 2.028 . S
Zn33 O36 2.028 . S
Zn33 O39 2.035 . S
O34 Zn33 2.028 . S
O34 C40 1.247 . S
O35 Zn31 2.035 . S
O35 C40 1.258 . S
O36 C29 1.247 . S
O36 Zn33 2.028 . S
O37 C29 1.258 . S
O37 Zn31 2.035 . S
O38 Zn31 2.028 . S
O38 C41 1.247 . S
O39 Zn33 2.035 . S
O39 C41 1.258 . S
C40 O34 1.247 . S
C40 O35 1.258 . S
C41 O38 1.247 . S
C41 O39 1.258 . S
C42 O44 1.247 . S
C42 O46 1.258 . S
C43 O50 1.247 . S
C43 O51 1.258 . S
O44 C42 1.247 . S
O44 Zn45 2.028 . S
Zn45 O44 2.028 . S
Zn45 O49 2.035 . S
Zn45 O51 2.035 . S
Zn45 O52 2.028 . S
O46 C42 1.258 . S
O46 Zn47 2.035 . S
Zn47 O46 2.035 . S
Zn47 O48 2.028 . S
Zn47 O50 2.028 . S
Zn47 O53 2.035 . S
O48 Zn47 2.028 . S
O48 C54 1.247 . S
O49 Zn45 2.035 . S
O49 C54 1.258 . S
O50 C43 1.247 . S
O50 Zn47 2.028 . S
O51 C43 1.258 . S
O51 Zn45 2.035 . S
O52 Zn45 2.028 . S
O52 C55 1.247 . S
O53 Zn47 2.035 . S
O53 C55 1.258 . S
C54 O48 1.247 . S
C54 O49 1.258 . S
C55 O52 1.247 . S
C55 O53 1.258 . S
C56 O58 1.247 . S
C56 O60 1.258 . S
C57 O64 1.247 . S
C57 O65 1.258 . S
O58 C56 1.247 . S
O58 Zn59 2.028 . S
Zn59 O58 2.028 . S
Zn59 O63 2.035 . S
Zn59 O65 2.035 . S
Zn59 O66 2.028 . S
O60 C56 1.258 . S
O60 Zn61 2.035 . S
Zn61 O60 2.035 . S
Zn61 O62 2.028 . S
Zn61 O64 2.028 . S
Zn61 O67 2.035 . S
O62 Zn61 2.028 . S
O62 C68 1.247 . S
O63 Zn59 2.035 . S
O63 C68 1.258 . S
O64 C57 1.247 . S
O64 Zn61 2.028 . S
O65 C57 1.258 . S
O65 Zn59 2.035 . S
O66 Zn59 2.028 . S
O66 C69 1.247 . S
O67 Zn61 2.035 . S
O67 C69 1.258 . S
C68 O62 1.247 . S
C68 O63 1.258 . S
C69 O66 1.247 . S
C69 O67 1.258 . S
C70 O72 1.247 . S
C70 O74 1.258 . S
C71 O78 1.247 . S
C71 O79 1.258 . S
O72 C70 1.247 . S
O72 Zn73 2.028 . S
Zn73 O72 2.028 . S
Zn73 O77 2.035 . S
Zn73 O79 2.035 . S
Zn73 O80 2.028 . S
O74 C70 1.258 . S
O74 Zn75 2.035 . S
Zn75 O74 2.035 . S
Zn75 O76 2.028 . S
Zn75 O78 2.028 . S
Zn75 O81 2.035 . S
O76 Zn75 2.028 . S
O76 C82 1.247 . S
O77 Zn73 2.035 . S
O77 C82 1.258 . S
O78 C71 1.247 . S
O78 Zn75 2.028 . S
O79 C71 1.258 . S
O79 Zn73 2.035 . S
O80 Zn73 2.028 . S
O80 C83 1.247 . S
O81 Zn75 2.035 . S
O81 C83 1.258 . S
C82 O76 1.247 . S
C82 O77 1.258 . S
C83 O80 1.247 . S
C83 O81 1.258 . S
C84 O86 1.247 . S
C84 O88 1.258 . S
C85 O92 1.247 . S
C85 O93 1.258 . S
O86 C84 1.247 . S
O86 Zn87 2.028 . S
Zn87 O86 2.028 . S
Zn87 O91 2.035 . S
Zn87 O93 2.035 . S
Zn87 O94 2.028 . S
O88 C84 1.258 . S
O88 Zn89 2.035 . S
Zn89 O88 2.035 . S
Zn89 O90 2.028 . S
Zn89 O92 2.028 . S
Zn89 O95 2.035 . S
O90 Zn89 2.028 . S
O90 C96 1.247 . S
O91 Zn87 2.035 . S
O91 C96 1.258 . S
O92 C85 1.247 . S
O92 Zn89 2.028 . S
O93 C85 1.258 . S
O93 Zn87 2.035 . S
O94 Zn87 2.028 . S
O94 C97 1.247 . S
O95 Zn89 2.035 . S
O95 C97 1.258 . S
C96 O90 1.247 . S
C96 O91 1.258 . S
C97 O94 1.247 . S
C97 O95 1.258 . S
C98 O100 1.247 . S
C98 O102 1.258 . S
C99 O106 1.247 . S
C99 O107 1.258 . S
O100 C98 1.247 . S
O100 Zn101 2.028 . S
Zn101 O100 2.028 . S
Zn101 O105 2.035 . S
Zn101 O107 2.035 . S
Zn101 O108 2.028 . S
O102 C98 1.258 . S
O102 Zn103 2.035 . S
Zn103 O102 2.035 . S
Zn103 O104 2.028 . S
Zn103 O106 2.028 . S
Zn103 O109 2.035 . S
O104 Zn103 2.028 . S
O104 C110 1.247 . S
O105 Zn101 2.035 . S
O105 C110 1.258 . S
O106 C99 1.247 . S
O106 Zn103 2.028 . S
O107 C99 1.258 . S
O107 Zn101 2.035 . S
O108 Zn101 2.028 . S
O108 C111 1.247 . S
O109 Zn103 2.035 . S
O109 C111 1.258 . S
C110 O104 1.247 . S
C110 O105 1.258 . S
C111 O108 1.247 . S
C111 O109 1.258 . S
C112 O114 1.247 . S
C112 O116 1.258 . S
C113 O120 1.247 . S
C113 O121 1.258 . S
O114 C112 1.247 . S
O114 Zn115 2.028 . S
Zn115 O114 2.028 . S
Zn115 O119 2.035 . S
Zn115 O121 2.035 . S
Zn115 O122 2.028 . S
O116 C112 1.258 . S
O116 Zn117 2.035 . S
Zn117 O116 2.035 . S
Zn117 O118 2.028 . S
Zn117 O120 2.028 . S
Zn117 O123 2.035 . S
O118 Zn117 2.028 . S
O118 C124 1.247 . S
O119 Zn115 2.035 . S
O119 C124 1.258 . S
O120 C113 1.247 . S
O120 Zn117 2.028 . S
O121 C113 1.258 . S
O121 Zn115 2.035 . S
O122 Zn115 2.028 . S
O122 C125 1.247 . S
O123 Zn117 2.035 . S
O123 C125 1.258 . S
C124 O118 1.247 . S
C124 O119 1.258 . S
C125 O122 1.247 . S
C125 O123 1.258 . S
C126 O128 1.247 . S
C126 O130 1.258 . S
C127 O134 1.247 . S
C127 O135 1.258 . S
O128 C126 1.247 . S
O128 Zn129 2.028 . S
Zn129 O128 2.028 . S
Zn129 O133 2.035 . S
Zn129 O135 2.035 . S
Zn129 O136 2.028 . S
O130 C126 1.258 . S
O130 Zn131 2.035 . S
Zn131 O130 2.035 . S
Zn131 O132 2.028 . S
Zn131 O134 2.028 . S
Zn131 O137 2.035 . S
O132 Zn131 2.028 . S
O132 C138 1.247 . S
O133 Zn129 2.035 . S
O133 C138 1.258 . S
O134 C127 1.247 . S
O134 Zn131 2.028 . S
O135 C127 1.258 . S
O135 Zn129 2.035 . S
O136 Zn129 2.028 . S
O136 C139 1.247 . S
O137 Zn131 2.035 . S
O137 C139 1.258 . S
C138 O132 1.247 . S
C138 O133 1.258 . S
C139 O136 1.247 . S
C139 O137 1.258 . S
C140 O142 1.247 . S
C140 O144 1.258 . S
C141 O148 1.247 . S
C141 O149 1.258 . S
O142 C140 1.247 . S
O142 Zn143 2.028 . S
Zn143 O142 2.028 . S
Zn143 O147 2.035 . S
Zn143 O149 2.035 . S
Zn143 O150 2.028 . S
O144 C140 1.258 . S
O144 Zn145 2.035 . S
Zn145 O144 2.035 . S
Zn145 O146 2.028 . S
Zn145 O148 2.028 . S
Zn145 O151 2.035 . S
O146 Zn145 2.028 . S
O146 C152 1.247 . S
O147 Zn143 2.035 . S
O147 C152 1.258 . S
O148 C141 1.247 . S
O148 Zn145 2.028 . S
O149 C141 1.258 . S
O149 Zn143 2.035 . S
O150 Zn143 2.028 . S
O150 C153 1.247 . S
O151 Zn145 2.035 . S
O151 C153 1.258 . S
C152 O146 1.247 . S
C152 O147 1.258 . S
C153 O150 1.247 . S
C153 O151 1.258 . S
C154 O156 1.247 . S
C154 O158 1.258 . S
C155 O162 1.247 . S
C155 O163 1.258 . S
O156 C154 1.247 . S
O156 Zn157 2.028 . S
Zn157 O156 2.028 . S
Zn157 O161 2.035 . S
Zn157 O163 2.035 . S
Zn157 O164 2.028 . S
O158 C154 1.258 . S
O158 Zn159 2.035 . S
Zn159 O158 2.035 . S
Zn159 O160 2.028 . S
Zn159 O162 2.028 . S
Zn159 O165 2.035 . S
O160 Zn159 2.028 . S
O160 C166 1.247 . S
O161 Zn157 2.035 . S
O161 C166 1.258 . S
O162 C155 1.247 . S
O162 Zn159 2.028 . S
O163 C155 1.258 . S
O163 Zn157 2.035 . S
O164 Zn157 2.028 . S
O164 C167 1.247 . S
O165 Zn159 2.035 . S
O165 C167 1.258 . S
C166 O160 1.247 . S
C166 O161 1.258 . S
C167 O164 1.247 . S
C167 O165 1.258 . S
C168 O170 1.247 . S
C168 O172 1.258 . S
C169 O176 1.247 . S
C169 O177 1.258 . S
O170 C168 1.247 . S
O170 Zn171 2.028 . S
Zn171 O170 2.028 . S
Zn171 O175 2.035 . S
Zn171 O177 2.035 . S
Zn171 O178 2.028 . S
O172 C168 1.258 . S
O172 Zn173 2.035 . S
Zn173 O172 2.035 . S
Zn173 O174 2.028 . S
Zn173 O176 2.028 . S
Zn173 O179 2.035 . S
O174 Zn173 2.028 . S
O174 C180 1.247 . S
O175 Zn171 2.035 . S
O175 C180 1.258 . S
O176 C169 1.247 . S
O176 Zn173 2.028 . S
O177 C169 1.258 . S
O177 Zn171 2.035 . S
O178 Zn171 2.028 . S
O178 C181 1.247 . S
O179 Zn173 2.035 . S
O179 C181 1.258 . S
C180 O174 1.247 . S
C180 O175 1.258 . S
C181 O178 1.247 . S
C181 O179 1.258 . S
C182 O184 1.247 . S
C182 O186 1.258 . S
C183 O190 1.247 . S
C183 O191 1.258 . S
O184 C182 1.247 . S
O184 Zn185 2.028 . S
Zn185 O184 2.028 . S
Zn185 O189 2.035 . S
Zn185 O191 2.035 . S
Zn185 O192 2.028 . S
O186 C182 1.258 . S
O186 Zn187 2.035 . S
Zn187 O186 2.035 . S
Zn187 O188 2.028 . S
Zn187 O190 2.028 . S
Zn187 O193 2.035 . S
O188 Zn187 2.028 . S
O188 C194 1.247 . S
O189 Zn185 2.035 . S
O189 C194 1.258 . S
O190 C183 1.247 . S
O190 Zn187 2.028 . S
O191 C183 1.258 . S
O191 Zn185 2.035 . S
O192 Zn185 2.028 . S
O192 C195 1.247 . S
O193 Zn187 2.035 . S
O193 C195 1.258 . S
C194 O188 1.247 . S
C194 O189 1.258 . S
C195 O192 1.247 . S
C195 O193 1.258 . S
C196 O198 1.247 . S
C196 O200 1.258 . S
C197 O204 1.247 . S
C197 O205 1.258 . S
O198 C196 1.247 . S
O198 Zn199 2.028 . S
Zn199 O198 2.028 . S
Zn199 O203 2.035 . S
Zn199 O205 2.035 . S
Zn199 O206 2.028 . S
O200 C196 1.258 . S
O200 Zn201 2.035 . S
Zn201 O200 2.035 . S
Zn201 O202 2.028 . S
Zn201 O204 2.028 . S
Zn201 O207 2.035 . S
O202 Zn201 2.028 . S
O202 C208 1.247 . S
O203 Zn199 2.035 . S
O203 C208 1.258 . S
O204 C197 1.247 . S
O204 Zn201 2.028 . S
O205 C197 1.258 . S
O205 Zn199 2.035 . S
O206 Zn199 2.028 . S
O206 C209 1.247 . S
O207 Zn201 2.035 . S
O207 C209 1.258 . S
C208 O202 1.247 . S
C208 O203 1.258 . S
C209 O206 1.247 . S
C209 O207 1.258 . S
C210 O212 1.247 . S
C210 O214 1.258 . S
C211 O218 1.247 . S
C211 O219 1.258 . S
O212 C210 1.247 . S
O212 Zn213 2.028 . S
Zn213 O212 2.028 . S
Zn213 O217 2.035 . S
Zn213 O219 2.035 . S
Zn213 O220 2.028 . S
O214 C210 1.258 . S
O214 Zn215 2.035 . S
Zn215 O214 2.035 . S
Zn215 O216 2.028 . S
Zn215 O218 2.028 . S
Zn215 O221 2.035 . S
O216 Zn215 2.028 . S
O216 C222 1.247 . S
O217 Zn213 2.035 . S
O217 C222 1.258 . S
O218 C211 1.247 . S
O218 Zn215 2.028 . S
O219 C211 1.258 . S
O219 Zn213 2.035 . S
O220 Zn213 2.028 . S
O220 C223 1.247 . S
O221 Zn215 2.035 . S
O221 C223 1.258 . S
C222 O216 1.247 . S
C222 O217 1.258 . S
C223 O220 1.247 . S
C223 O221 1.258 . S
C224 C225 1.369 1_455 S
C224 C226 1.419 . S
C224 H228 0.930 . S
C225 C224 1.369 1_655 S
C225 C234 1.429 1_565 S
C226 C224 1.419 . S
C226 C227 1.363 1_565 S
C226 H229 0.929 . S
C227 C226 1.363 1_545 S
C227 C233 1.428 1_455 S
H228 C224 0.930 . S
H229 C226 0.929 . S
S230 N231 1.613 . S
S230 N232 1.610 . S
N231 S230 1.613 . S
N231 C234 1.350 . S
N232 S230 1.610 . S
N232 C233 1.351 . S
C233 C227 1.428 1_655 S
C233 N232 1.351 . S
C233 C234 1.434 . S
C234 C225 1.429 1_545 S
C234 N231 1.350 . S
C234 C233 1.434 . S
C235 C236 1.369 . S
C235 C237 1.419 . S
C235 H239 0.930 . S
C236 C235 1.369 . S
C236 C245 1.429 1_655 S
C237 C235 1.419 . S
C237 C238 1.363 1_655 S
C237 H240 0.929 . S
C238 C237 1.363 1_455 S
C238 C244 1.428 . S
H239 C235 0.930 . S
H240 C237 0.929 . S
S241 N242 1.613 . S
S241 N243 1.610 . S
N242 S241 1.613 . S
N242 C245 1.350 . S
N243 S241 1.610 . S
N243 C244 1.351 . S
C244 C238 1.428 . S
C244 N243 1.351 . S
C244 C245 1.434 . S
C245 C236 1.429 1_455 S
C245 N242 1.350 . S
C245 C244 1.434 . S
C246 C247 1.369 . S
C246 C248 1.419 . S
C246 H250 0.930 . S
C247 C246 1.369 . S
C247 C256 1.429 . S
C248 C246 1.419 . S
C248 C249 1.363 . S
C248 H251 0.929 . S
C249 C248 1.363 . S
C249 C255 1.428 . S
H250 C246 0.930 . S
H251 C248 0.929 . S
S252 N253 1.613 . S
S252 N254 1.610 . S
N253 S252 1.613 . S
N253 C256 1.350 . S
N254 S252 1.610 . S
N254 C255 1.351 . S
C255 C249 1.428 . S
C255 N254 1.351 . S
C255 C256 1.434 . S
C256 C247 1.429 . S
C256 N253 1.350 . S
C256 C255 1.434 . S
C257 C258 1.369 1_565 S
C257 C259 1.419 . S
C257 H261 0.930 . S
C258 C257 1.369 1_545 S
C258 C267 1.429 . S
C259 C257 1.419 . S
C259 C260 1.363 . S
C259 H262 0.929 . S
C260 C259 1.363 . S
C260 C266 1.428 1_565 S
H261 C257 0.930 . S
H262 C259 0.929 . S
S263 N264 1.613 . S
S263 N265 1.610 . S
N264 S263 1.613 . S
N264 C267 1.350 . S
N265 S263 1.610 . S
N265 C266 1.351 . S
C266 C260 1.428 1_545 S
C266 N265 1.351 . S
C266 C267 1.434 . S
C267 C258 1.429 . S
C267 N264 1.350 . S
C267 C266 1.434 . S
C268 C269 1.369 . S
C268 C270 1.419 . S
C268 H272 0.930 . S
C269 C268 1.369 . S
C269 C278 1.429 1_455 S
C270 C268 1.419 . S
C270 C271 1.363 1_455 S
C270 H273 0.929 . S
C271 C270 1.363 1_655 S
C271 C277 1.428 . S
H272 C268 0.930 . S
H273 C270 0.929 . S
S274 N275 1.613 . S
S274 N276 1.610 . S
N275 S274 1.613 . S
N275 C278 1.350 . S
N276 S274 1.610 . S
N276 C277 1.351 . S
C277 C271 1.428 . S
C277 N276 1.351 . S
C277 C278 1.434 . S
C278 C269 1.429 1_655 S
C278 N275 1.350 . S
C278 C277 1.434 . S
C279 C280 1.369 . S
C279 C281 1.419 . S
C279 H283 0.930 . S
C280 C279 1.369 . S
C280 C289 1.429 . S
C281 C279 1.419 . S
C281 C282 1.363 . S
C281 H284 0.929 . S
C282 C281 1.363 . S
C282 C288 1.428 . S
H283 C279 0.930 . S
H284 C281 0.929 . S
S285 N286 1.613 . S
S285 N287 1.610 . S
N286 S285 1.613 . S
N286 C289 1.350 . S
N287 S285 1.610 . S
N287 C288 1.351 . S
C288 C282 1.428 . S
C288 N287 1.351 . S
C288 C289 1.434 . S
C289 C280 1.429 . S
C289 N286 1.350 . S
C289 C288 1.434 . S
C290 C291 1.369 . S
C290 C292 1.419 . S
C290 H294 0.930 . S
C291 C290 1.369 . S
C291 C300 1.429 1_545 S
C292 C290 1.419 . S
C292 C293 1.363 1_545 S
C292 H295 0.929 . S
C293 C292 1.363 1_565 S
C293 C299 1.428 . S
H294 C290 0.930 . S
H295 C292 0.929 . S
S296 N297 1.613 . S
S296 N298 1.610 . S
N297 S296 1.613 . S
N297 C300 1.350 . S
N298 S296 1.610 . S
N298 C299 1.351 . S
C299 C293 1.428 . S
C299 N298 1.351 . S
C299 C300 1.434 . S
C300 C291 1.429 1_565 S
C300 N297 1.350 . S
C300 C299 1.434 . S
C301 C302 1.369 . S
C301 C303 1.419 1_445 S
C301 H305 0.930 . S
C302 C301 1.369 . S
C302 C311 1.429 . S
C303 C301 1.419 1_665 S
C303 C304 1.363 . S
C303 H306 0.929 . S
C304 C303 1.363 . S
C304 C310 1.428 . S
H305 C301 0.930 . S
H306 C303 0.929 . S
S307 N308 1.613 1_655 S
S307 N309 1.610 1_545 S
N308 S307 1.613 1_455 S
N308 C311 1.350 . S
N309 S307 1.610 1_565 S
N309 C310 1.351 . S
C310 C304 1.428 . S
C310 N309 1.351 . S
C310 C311 1.434 1_665 S
C311 C302 1.429 . S
C311 N308 1.350 . S
C311 C310 1.434 1_445 S
C312 C313 1.369 1_545 S
C312 C314 1.419 . S
C312 H316 0.930 . S
C313 C312 1.369 1_565 S
C313 C322 1.429 . S
C314 C312 1.419 . S
C314 C315 1.363 . S
C314 H317 0.929 . S
C315 C314 1.363 . S
C315 C321 1.428 1_545 S
H316 C312 0.930 . S
H317 C314 0.929 . S
S318 N319 1.613 . S
S318 N320 1.610 . S
N319 S318 1.613 . S
N319 C322 1.350 . S
N320 S318 1.610 . S
N320 C321 1.351 . S
C321 C315 1.428 1_565 S
C321 N320 1.351 . S
C321 C322 1.434 . S
C322 C313 1.429 . S
C322 N319 1.350 . S
C322 C321 1.434 . S
C323 C324 1.369 1_545 S
C323 C325 1.419 . S
C323 H327 0.930 . S
C324 C323 1.369 1_565 S
C324 C333 1.429 1_655 S
C325 C323 1.419 . S
C325 C326 1.363 1_655 S
C325 H328 0.929 . S
C326 C325 1.363 1_455 S
C326 C332 1.428 1_545 S
H327 C323 0.930 . S
H328 C325 0.929 . S
S329 N330 1.613 . S
S329 N331 1.610 . S
N330 S329 1.613 . S
N330 C333 1.350 . S
N331 S329 1.610 . S
N331 C332 1.351 . S
C332 C326 1.428 1_565 S
C332 N331 1.351 . S
C332 C333 1.434 . S
C333 C324 1.429 1_455 S
C333 N330 1.350 . S
C333 C332 1.434 . S
C334 C335 1.369 1_655 S
C334 C336 1.419 . S
C334 H338 0.930 . S
C335 C334 1.369 1_455 S
C335 C344 1.429 . S
C336 C334 1.419 . S
C336 C337 1.363 . S
C336 H339 0.929 . S
C337 C336 1.363 . S
C337 C343 1.428 1_655 S
H338 C334 0.930 . S
H339 C336 0.929 . S
S340 N341 1.613 . S
S340 N342 1.610 . S
N341 S340 1.613 . S
N341 C344 1.350 . S
N342 S340 1.610 . S
N342 C343 1.351 . S
C343 C337 1.428 1_455 S
C343 N342 1.351 . S
C343 C344 1.434 . S
C344 C335 1.429 . S
C344 N341 1.350 . S
C344 C343 1.434 . S
C345 C346 1.369 . S
C345 C347 1.419 . S
C345 H349 0.930 . S
C346 C345 1.369 . S
C346 C355 1.429 . S
C347 C345 1.419 . S
C347 C348 1.363 . S
C347 H350 0.929 . S
C348 C347 1.363 . S
C348 C354 1.428 . S
H349 C345 0.930 . S
H350 C347 0.929 . S
S351 N352 1.613 . S
S351 N353 1.610 . S
N352 S351 1.613 . S
N352 C355 1.350 . S
N353 S351 1.610 . S
N353 C354 1.351 . S
C354 C348 1.428 . S
C354 N353 1.351 . S
C354 C355 1.434 . S
C355 C346 1.429 . S
C355 N352 1.350 . S
C355 C354 1.434 . S
C356 C357 1.369 . S
C356 C358 1.419 . S
C356 H360 0.930 . S
C357 C356 1.369 . S
C357 C366 1.429 . S
C358 C356 1.419 . S
C358 C359 1.363 . S
C358 H361 0.929 . S
C359 C358 1.363 . S
C359 C365 1.428 . S
H360 C356 0.930 . S
H361 C358 0.929 . S
S362 N363 1.613 . S
S362 N364 1.610 . S
N363 S362 1.613 . S
N363 C366 1.350 . S
N364 S362 1.610 . S
N364 C365 1.351 . S
C365 C359 1.428 . S
C365 N364 1.351 . S
C365 C366 1.434 . S
C366 C357 1.429 . S
C366 N363 1.350 . S
C366 C365 1.434 . S
C367 C368 1.369 . S
C367 C369 1.419 . S
C367 H371 0.930 . S
C368 C367 1.369 . S
C368 C377 1.429 1_565 S
C369 C367 1.419 . S
C369 C370 1.363 1_565 S
C369 H372 0.929 . S
C370 C369 1.363 1_545 S
C370 C376 1.428 . S
H371 C367 0.930 . S
H372 C369 0.929 . S
S373 N374 1.613 . S
S373 N375 1.610 . S
N374 S373 1.613 . S
N374 C377 1.350 . S
N375 S373 1.610 . S
N375 C376 1.351 . S
C376 C370 1.428 . S
C376 N375 1.351 . S
C376 C377 1.434 . S
C377 C368 1.429 1_545 S
C377 N374 1.350 . S
C377 C376 1.434 . S
C378 C379 1.369 . S
C378 C380 1.419 1_665 S
C378 H382 0.930 . S
C379 C378 1.369 . S
C379 C388 1.429 . S
C380 C378 1.419 1_445 S
C380 C381 1.363 . S
C380 H383 0.929 . S
C381 C380 1.363 . S
C381 C387 1.428 . S
H382 C378 0.930 . S
H383 C380 0.929 . S
S384 N385 1.613 1_545 S
S384 N386 1.610 1_655 S
N385 S384 1.613 1_565 S
N385 C388 1.350 . S
N386 S384 1.610 1_455 S
N386 C387 1.351 . S
C387 C381 1.428 . S
C387 N386 1.351 . S
C387 C388 1.434 1_445 S
C388 C379 1.429 . S
C388 N385 1.350 . S
C388 C387 1.434 1_665 S
C389 C390 1.369 . S
C389 C391 1.419 . S
C389 H393 0.930 . S
C390 C389 1.369 . S
C390 C399 1.429 1_455 S
C391 C389 1.419 . S
C391 C392 1.363 1_455 S
C391 H394 0.929 . S
C392 C391 1.363 1_655 S
C392 C398 1.428 . S
H393 C389 0.930 . S
H394 C391 0.929 . S
S395 N396 1.613 . S
S395 N397 1.610 . S
N396 S395 1.613 . S
N396 C399 1.350 . S
N397 S395 1.610 . S
N397 C398 1.351 . S
C398 C392 1.428 . S
C398 N397 1.351 . S
C398 C399 1.434 . S
C399 C390 1.429 1_655 S
C399 N396 1.350 . S
C399 C398 1.434 . S
C400 C401 1.369 . S
C400 C402 1.419 . S
C400 H404 0.930 . S
C401 C400 1.369 . S
C401 C410 1.429 . S
C402 C400 1.419 . S
C402 C403 1.363 . S
C402 H405 0.929 . S
C403 C402 1.363 . S
C403 C409 1.428 . S
H404 C400 0.930 . S
H405 C402 0.929 . S
S406 N407 1.613 . S
S406 N408 1.610 . S
N407 S406 1.613 . S
N407 C410 1.350 1_565 S
N408 S406 1.610 . S
N408 C409 1.351 1_565 S
C409 C403 1.428 . S
C409 N408 1.351 1_545 S
C409 C410 1.434 . S
C410 C401 1.429 . S
C410 N407 1.350 1_545 S
C410 C409 1.434 . S
C411 C412 1.369 . S
C411 C413 1.419 . S
C411 H415 0.930 . S
C412 C411 1.369 . S
C412 C421 1.429 . S
C413 C411 1.419 . S
C413 C414 1.363 . S
C413 H416 0.929 . S
C414 C413 1.363 . S
C414 C420 1.428 . S
H415 C411 0.930 . S
H416 C413 0.929 . S
S417 N418 1.613 1_455 S
S417 N419 1.610 1_455 S
N418 S417 1.613 1_655 S
N418 C421 1.350 . S
N419 S417 1.610 1_655 S
N419 C420 1.351 . S
C420 C414 1.428 . S
C420 N419 1.351 . S
C420 C421 1.434 . S
C421 C412 1.429 . S
C421 N418 1.350 . S
C421 C420 1.434 . S
C422 C423 1.369 . S
C422 C424 1.419 . S
C422 H426 0.930 . S
C423 C422 1.369 . S
C423 C432 1.429 . S
C424 C422 1.419 . S
C424 C425 1.363 . S
C424 H427 0.929 . S
C425 C424 1.363 . S
C425 C431 1.428 . S
H426 C422 0.930 . S
H427 C424 0.929 . S
S428 N429 1.613 . S
S428 N430 1.610 . S
N429 S428 1.613 . S
N429 C432 1.350 . S
N430 S428 1.610 . S
N430 C431 1.351 . S
C431 C425 1.428 . S
C431 N430 1.351 . S
C431 C432 1.434 . S
C432 C423 1.429 . S
C432 N429 1.350 . S
C432 C431 1.434 . S
C433 C434 1.369 . S
C433 C435 1.419 . S
C433 H437 0.930 . S
C434 C433 1.369 . S
C434 C443 1.429 . S
C435 C433 1.419 . S
C435 C436 1.363 . S
C435 H438 0.929 . S
C436 C435 1.363 . S
C436 C442 1.428 . S
H437 C433 0.930 . S
H438 C435 0.929 . S
S439 N440 1.613 . S
S439 N441 1.610 . S
N440 S439 1.613 . S
N440 C443 1.350 . S
N441 S439 1.610 . S
N441 C442 1.351 . S
C442 C436 1.428 . S
C442 N441 1.351 . S
C442 C443 1.434 . S
C443 C434 1.429 . S
C443 N440 1.350 . S
C443 C442 1.434 . S
C444 C445 1.369 . S
C444 C446 1.419 . S
C444 H448 0.930 . S
C445 C444 1.369 . S
C445 C454 1.429 . S
C446 C444 1.419 . S
C446 C447 1.363 . S
C446 H449 0.929 . S
C447 C446 1.363 . S
C447 C453 1.428 . S
H448 C444 0.930 . S
H449 C446 0.929 . S
S450 N451 1.613 . S
S450 N452 1.610 . S
N451 S450 1.613 . S
N451 C454 1.350 . S
N452 S450 1.610 . S
N452 C453 1.351 . S
C453 C447 1.428 . S
C453 N452 1.351 . S
C453 C454 1.434 . S
C454 C445 1.429 . S
C454 N451 1.350 . S
C454 C453 1.434 . S
C455 C456 1.369 . S
C455 C457 1.419 . S
C455 H459 0.930 . S
C456 C455 1.369 . S
C456 C465 1.429 . S
C457 C455 1.419 . S
C457 C458 1.363 . S
C457 H460 0.929 . S
C458 C457 1.363 . S
C458 C464 1.428 . S
H459 C455 0.930 . S
H460 C457 0.929 . S
S461 N462 1.613 . S
S461 N463 1.610 . S
N462 S461 1.613 . S
N462 C465 1.350 . S
N463 S461 1.610 . S
N463 C464 1.351 . S
C464 C458 1.428 . S
C464 N463 1.351 . S
C464 C465 1.434 . S
C465 C456 1.429 . S
C465 N462 1.350 . S
C465 C464 1.434 . S
C466 C467 1.369 . S
C466 C468 1.419 . S
C466 H470 0.930 . S
C467 C466 1.369 . S
C467 C476 1.429 . S
C468 C466 1.419 . S
C468 C469 1.363 . S
C468 H471 0.929 . S
C469 C468 1.363 . S
C469 C475 1.428 . S
H470 C466 0.930 . S
H471 C468 0.929 . S
S472 N473 1.613 . S
S472 N474 1.610 . S
N473 S472 1.613 . S
N473 C476 1.350 1_545 S
N474 S472 1.610 . S
N474 C475 1.351 1_545 S
C475 C469 1.428 . S
C475 N474 1.351 1_565 S
C475 C476 1.434 . S
C476 C467 1.429 . S
C476 N473 1.350 1_565 S
C476 C475 1.434 . S
C477 C478 1.369 . S
C477 C479 1.419 . S
C477 H481 0.930 1_455 S
C478 C477 1.369 . S
C478 C487 1.429 . S
C479 C477 1.419 . S
C479 C480 1.363 . S
C479 H482 0.929 1_455 S
C480 C479 1.363 . S
C480 C486 1.428 . S
H481 C477 0.930 1_655 S
H482 C479 0.929 1_655 S
S483 N484 1.613 . S
S483 N485 1.610 . S
N484 S483 1.613 . S
N484 C487 1.350 . S
N485 S483 1.610 . S
N485 C486 1.351 . S
C486 C480 1.428 . S
C486 N485 1.351 . S
C486 C487 1.434 . S
C487 C478 1.429 . S
C487 N484 1.350 . S
C487 C486 1.434 . S
C488 C489 1.369 . S
C488 C490 1.419 . S
C488 H492 0.930 . S
C489 C488 1.369 . S
C489 C498 1.429 . S
C490 C488 1.419 . S
C490 C491 1.363 . S
C490 H493 0.929 . S
C491 C490 1.363 . S
C491 C497 1.428 . S
H492 C488 0.930 . S
H493 C490 0.929 . S
S494 N495 1.613 . S
S494 N496 1.610 . S
N495 S494 1.613 . S
N495 C498 1.350 . S
N496 S494 1.610 . S
N496 C497 1.351 . S
C497 C491 1.428 . S
C497 N496 1.351 . S
C497 C498 1.434 . S
C498 C489 1.429 . S
C498 N495 1.350 . S
C498 C497 1.434 . S
C499 C500 1.369 . S
C499 C501 1.419 . S
C499 H503 0.930 . S
C500 C499 1.369 . S
C500 C509 1.429 . S
C501 C499 1.419 . S
C501 C502 1.363 . S
C501 H504 0.929 . S
C502 C501 1.363 . S
C502 C508 1.428 . S
H503 C499 0.930 . S
H504 C501 0.929 . S
S505 N506 1.613 . S
S505 N507 1.610 . S
N506 S505 1.613 . S
N506 C509 1.350 . S
N507 S505 1.610 . S
N507 C508 1.351 . S
C508 C502 1.428 . S
C508 N507 1.351 . S
C508 C509 1.434 . S
C509 C500 1.429 . S
C509 N506 1.350 . S
C509 C508 1.434 . S
C510 C511 1.369 . S
C510 C512 1.419 . S
C510 H514 0.930 . S
C511 C510 1.369 . S
C511 C520 1.429 . S
C512 C510 1.419 . S
C512 C513 1.363 . S
C512 H515 0.929 . S
C513 C512 1.363 . S
C513 C519 1.428 . S
H514 C510 0.930 . S
H515 C512 0.929 . S
S516 N517 1.613 . S
S516 N518 1.610 . S
N517 S516 1.613 . S
N517 C520 1.350 . S
N518 S516 1.610 . S
N518 C519 1.351 . S
C519 C513 1.428 . S
C519 N518 1.351 . S
C519 C520 1.434 . S
C520 C511 1.429 . S
C520 N517 1.350 . S
C520 C519 1.434 . S
C521 C522 1.369 . S
C521 C523 1.419 . S
C521 H525 0.930 . S
C522 C521 1.369 . S
C522 C531 1.429 1_556 S
C523 C521 1.419 . S
C523 C524 1.363 1_556 S
C523 H526 0.929 . S
C524 C523 1.363 1_554 S
C524 C530 1.428 . S
H525 C521 0.930 . S
H526 C523 0.929 . S
S527 N528 1.613 . S
S527 N529 1.610 . S
N528 S527 1.613 . S
N528 C531 1.350 . S
N529 S527 1.610 . S
N529 C530 1.351 . S
C530 C524 1.428 . S
C530 N529 1.351 . S
C530 C531 1.434 . S
C531 C522 1.429 1_554 S
C531 N528 1.350 . S
C531 C530 1.434 . S
C532 C533 1.369 . S
C532 C534 1.419 1_554 S
C532 H536 0.930 . S
C533 C532 1.369 . S
C533 C542 1.429 . S
C534 C532 1.419 1_556 S
C534 C535 1.363 . S
C534 H537 0.929 . S
C535 C534 1.363 . S
C535 C541 1.428 . S
H536 C532 0.930 . S
H537 C534 0.929 . S
S538 N539 1.591 1_556 S
S538 N540 1.633 . S
N539 S538 1.591 1_554 S
N539 C542 1.350 . S
N540 S538 1.633 . S
N540 C541 1.351 . S
C541 C535 1.428 . S
C541 N540 1.351 . S
C541 C542 1.434 1_556 S
C542 C533 1.429 . S
C542 N539 1.350 . S
C542 C541 1.434 1_554 S
C543 C544 1.369 . S
C543 C545 1.419 . S
C543 H547 0.930 . S
C544 C543 1.369 . S
C544 C553 1.429 . S
C545 C543 1.419 . S
C545 C546 1.363 . S
C545 H548 0.929 . S
C546 C545 1.363 . S
C546 C552 1.428 . S
H547 C543 0.930 . S
H548 C545 0.929 . S
S549 N550 1.613 . S
S549 N551 1.610 . S
N550 S549 1.613 . S
N550 C553 1.350 . S
N551 S549 1.610 . S
N551 C552 1.351 . S
C552 C546 1.428 . S
C552 N551 1.351 . S
C552 C553 1.434 . S
C553 C544 1.429 . S
C553 N550 1.350 . S
C553 C552 1.434 . S
C554 C555 1.369 . S
C554 C556 1.419 . S
C554 H558 0.930 . S
C555 C554 1.369 . S
C555 C564 1.429 . S
C556 C554 1.419 . S
C556 C557 1.363 . S
C556 H559 0.929 . S
C557 C556 1.363 . S
C557 C563 1.428 . S
H558 C554 0.930 . S
H559 C556 0.929 . S
S560 N561 1.613 . S
S560 N562 1.610 . S
N561 S560 1.613 . S
N561 C564 1.350 . S
N562 S560 1.610 . S
N562 C563 1.351 . S
C563 C557 1.428 . S
C563 N562 1.351 . S
C563 C564 1.434 . S
C564 C555 1.429 . S
C564 N561 1.350 . S
C564 C563 1.434 . S
C565 C566 1.369 . S
C565 C567 1.419 . S
C565 H569 0.930 . S
C566 C565 1.369 . S
C566 C575 1.429 . S
C567 C565 1.419 . S
C567 C568 1.363 . S
C567 H570 0.929 . S
C568 C567 1.363 . S
C568 C574 1.428 . S
H569 C565 0.930 . S
H570 C567 0.929 . S
S571 N572 1.613 . S
S571 N573 1.610 . S
N572 S571 1.613 . S
N572 C575 1.350 . S
N573 S571 1.610 . S
N573 C574 1.351 . S
C574 C568 1.428 . S
C574 N573 1.351 . S
C574 C575 1.434 . S
C575 C566 1.429 . S
C575 N572 1.350 . S
C575 C574 1.434 . S
C225 C141 2.025 . S
C227 C13 2.032 . S
C236 C15 2.025 . S
C238 C167 2.032 . S
C247 C113 2.033 . S
C249 C29 2.026 . S
C258 C139 2.025 . S
C260 C43 2.032 . S
C269 C69 2.033 . S
C271 C197 2.027 . S
C280 C211 2.033 . S
C282 C83 2.027 . S
C291 C96 2.022 . S
C293 C180 2.027 . S
C302 C182 2.025 . S
C304 C98 2.024 . S
C313 C140 1.579 . S
C315 C12 1.569 . S
C324 C14 1.569 . S
C326 C166 1.576 . S
C335 C28 1.569 . S
C337 C112 1.577 . S
C346 C42 1.568 . S
C348 C138 1.578 . S
C357 C68 1.572 . S
C359 C196 1.575 . S
C368 C82 1.579 . S
C370 C210 1.569 . S
C379 C181 1.578 . S
C381 C97 1.576 . S
C390 C183 1.573 . S
C392 C99 1.580 . S
C401 C0 1.622 . S
C403 C85 1.624 . S
C412 C26 1.625 . S
C414 C111 1.621 . S
C423 C40 1.621 . S
C425 C56 1.624 . S
C434 C54 1.619 . S
C436 C70 1.624 . S
C445 C124 1.620 . S
C447 C208 1.624 . S
C456 C222 1.622 . S
C458 C126 1.620 . S
C467 C152 1.622 . S
C469 C169 1.624 . S
C478 C195 1.620 . S
C480 C154 1.622 . S
C489 C1 1.722 . S
C491 C223 1.724 . S
C500 C168 1.724 . S
C502 C27 1.720 . S
C511 C194 1.722 . S
C513 C41 1.722 . S
C522 C209 1.726 . S
C524 C55 1.721 . S
C533 C127 1.722 . S
C535 C57 1.724 . S
C544 C153 1.723 . S
C546 C71 1.724 . S
C555 C84 1.718 . S
C557 C155 1.726 . S
C566 C110 1.723 . S
C568 C125 1.722 . S
