# Generated by pormake.
# Topology acs-i, (5)-cn, num edge types: 1
# Building blocks:
#     Node 0, Type 0, BuildingBlock: BEQFEK_clean_sbu_0, # of connection points: 5
#     Node 1, Type 0, BuildingBlock: BEQFEK_clean_sbu_0, # of connection points: 5
#     Node 2, Type 0, BuildingBlock: BEQFEK_clean_sbu_0, # of connection points: 5
#     Node 3, Type 0, BuildingBlock: BEQFEK_clean_sbu_0, # of connection points: 5
#     Node 4, Type 0, BuildingBlock: BEQFEK_clean_sbu_0, # of connection points: 5
#     Node 5, Type 0, BuildingBlock: BEQFEK_clean_sbu_0, # of connection points: 5
#     Node 6, Type 0, BuildingBlock: BEQFEK_clean_sbu_0, # of connection points: 5
#     Node 7, Type 0, BuildingBlock: BEQFEK_clean_sbu_0, # of connection points: 5
#     Node 8, Type 0, BuildingBlock: BEQFEK_clean_sbu_0, # of connection points: 5
#     Node 9, Type 0, BuildingBlock: BEQFEK_clean_sbu_0, # of connection points: 5
#     Node 10, Type 0, BuildingBlock: BEQFEK_clean_sbu_0, # of connection points: 5
#     Node 11, Type 0, BuildingBlock: BEQFEK_clean_sbu_0, # of connection points: 5
#     Edge 12, Type (0, 0), BuildingBlock: UVAHIK_clean_linker_0, # of connection points: 2
#     Edge 13, Type (0, 0), BuildingBlock: UVAHIK_clean_linker_0, # of connection points: 2
#     Edge 14, Type (0, 0), BuildingBlock: UVAHIK_clean_linker_0, # of connection points: 2
#     Edge 15, Type (0, 0), BuildingBlock: UVAHIK_clean_linker_0, # of connection points: 2
#     Edge 16, Type (0, 0), BuildingBlock: UVAHIK_clean_linker_0, # of connection points: 2
#     Edge 17, Type (0, 0), BuildingBlock: UVAHIK_clean_linker_0, # of connection points: 2
#     Edge 18, Type (0, 0), BuildingBlock: UVAHIK_clean_linker_0, # of connection points: 2
#     Edge 19, Type (0, 0), BuildingBlock: UVAHIK_clean_linker_0, # of connection points: 2
#     Edge 20, Type (0, 0), BuildingBlock: UVAHIK_clean_linker_0, # of connection points: 2
#     Edge 21, Type (0, 0), BuildingBlock: UVAHIK_clean_linker_0, # of connection points: 2
#     Edge 22, Type (0, 0), BuildingBlock: UVAHIK_clean_linker_0, # of connection points: 2
#     Edge 23, Type (0, 0), BuildingBlock: UVAHIK_clean_linker_0, # of connection points: 2
#     Edge 24, Type (0, 0), BuildingBlock: UVAHIK_clean_linker_0, # of connection points: 2
#     Edge 25, Type (0, 0), BuildingBlock: UVAHIK_clean_linker_0, # of connection points: 2
#     Edge 26, Type (0, 0), BuildingBlock: UVAHIK_clean_linker_0, # of connection points: 2
#     Edge 27, Type (0, 0), BuildingBlock: UVAHIK_clean_linker_0, # of connection points: 2
#     Edge 28, Type (0, 0), BuildingBlock: UVAHIK_clean_linker_0, # of connection points: 2
#     Edge 29, Type (0, 0), BuildingBlock: UVAHIK_clean_linker_0, # of connection points: 2
#     Edge 30, Type (0, 0), BuildingBlock: UVAHIK_clean_linker_0, # of connection points: 2
#     Edge 31, Type (0, 0), BuildingBlock: UVAHIK_clean_linker_0, # of connection points: 2
#     Edge 32, Type (0, 0), BuildingBlock: UVAHIK_clean_linker_0, # of connection points: 2
#     Edge 33, Type (0, 0), BuildingBlock: UVAHIK_clean_linker_0, # of connection points: 2
#     Edge 34, Type (0, 0), BuildingBlock: UVAHIK_clean_linker_0, # of connection points: 2
#     Edge 35, Type (0, 0), BuildingBlock: UVAHIK_clean_linker_0, # of connection points: 2
#     Edge 36, Type (0, 0), BuildingBlock: UVAHIK_clean_linker_0, # of connection points: 2
#     Edge 37, Type (0, 0), BuildingBlock: UVAHIK_clean_linker_0, # of connection points: 2
#     Edge 38, Type (0, 0), BuildingBlock: UVAHIK_clean_linker_0, # of connection points: 2
#     Edge 39, Type (0, 0), BuildingBlock: UVAHIK_clean_linker_0, # of connection points: 2
#     Edge 40, Type (0, 0), BuildingBlock: UVAHIK_clean_linker_0, # of connection points: 2
#     Edge 41, Type (0, 0), BuildingBlock: UVAHIK_clean_linker_0, # of connection points: 2
# Relax obj value: 1.274
# Max RMSD: 0.221
# Mean RMSD: 0.210
data_MOF--net-acs-i--node1-BEQFEK_clean_sbu_0--edge1-UVAHIK_clean_linker_0
_symmetry_space_group_name_H-M    P1
_symmetry_Int_Tables_number       1
_symmetry_cell_setting            triclinic
loop_
_symmetry_equiv_pos_as_xyz
'x, y, z'
_cell_length_a     57.343126
_cell_length_b     48.392494
_cell_length_c     39.180064
_cell_angle_alpha  89.971483
_cell_angle_beta   89.907316
_cell_angle_gamma 114.94117
loop_
_atom_site_label
_atom_site_type_symbol
_atom_site_fract_x
_atom_site_fract_y
_atom_site_fract_z
_atom_type_partial_charge
Co0 Co 0.37798 0.37929 0.36149 0.0
Co1 Co 0.32978 0.3595 0.31366 0.0
C2 C 0.38291 0.40557 0.29212 0.0
O3 O 0.39345 0.40495 0.32053 0.0
O4 O 0.35914 0.38904 0.28711 0.0
C5 C 0.42748 0.40867 0.3944 0.0
O6 O 0.43655 0.41228 0.3631 0.0
C7 C 0.29512 0.3739 0.27141 0.0
C8 C 0.2679 0.32892 0.25221 0.0
C9 C 0.27464 0.3599 0.2494 0.0
N10 N 0.3002 0.35226 0.28678 0.0
N11 N 0.28369 0.32536 0.27553 0.0
C12 C 0.31177 0.40736 0.27454 0.0
H13 H 0.32132 0.4163 0.2497 0.0
H14 H 0.32648 0.41189 0.29468 0.0
H15 H 0.29994 0.41975 0.28105 0.0
C16 C 0.34496 0.40026 0.40305 0.0
N17 N 0.34855 0.38505 0.37616 0.0
N18 N 0.32788 0.3753 0.35688 0.0
C19 C 0.31017 0.38297 0.37142 0.0
C20 C 0.32049 0.39951 0.40088 0.0
C21 C 0.36574 0.41827 0.4277 0.0
H22 H 0.36959 0.40232 0.44467 0.0
H23 H 0.3837 0.43198 0.41351 0.0
H24 H 0.36042 0.43373 0.4435 0.0
O25 O 0.36961 0.33572 0.34924 0.0
O26 O 0.33422 0.32187 0.3178 0.0
H27 H 0.27653 0.35218 0.34472 0.0
H28 H 0.27027 0.37394 0.37818 0.0
C29 C 0.28378 0.3747 0.35748 0.0
H30 H 0.28445 0.39208 0.33862 0.0
H31 H 0.28401 0.3047 0.2825 0.0
O32 O 0.40349 0.39344 0.39923 0.0
C33 C 0.35149 0.31576 0.33183 0.0
Co34 Co 0.84752 0.43077 0.5009 0.0
Co35 Co 0.83281 0.43361 0.42437 0.0
C36 C 0.83377 0.4801 0.47545 0.0
O37 O 0.84137 0.46753 0.49859 0.0
O38 O 0.82902 0.46915 0.44546 0.0
C39 C 0.83894 0.43108 0.57083 0.0
O40 O 0.82002 0.43694 0.55919 0.0
C41 C 0.79413 0.42926 0.37605 0.0
C42 C 0.80597 0.41549 0.32774 0.0
C43 C 0.78639 0.42098 0.34273 0.0
N44 N 0.81724 0.4291 0.38057 0.0
N45 N 0.82457 0.42146 0.35142 0.0
C46 C 0.77797 0.43225 0.40472 0.0
H47 H 0.7787 0.45552 0.40426 0.0
H48 H 0.7851 0.4284 0.42972 0.0
H49 H 0.75761 0.41565 0.40183 0.0
C50 C 0.80503 0.36961 0.49664 0.0
N51 N 0.82002 0.39681 0.48283 0.0
N52 N 0.81448 0.39682 0.45022 0.0
C53 C 0.79585 0.3691 0.44225 0.0
C54 C 0.78914 0.35131 0.47151 0.0
C55 C 0.80694 0.36071 0.53276 0.0
H56 H 0.8274 0.36753 0.53949 0.0
H57 H 0.79905 0.37284 0.55 0.0
H58 H 0.79605 0.33581 0.53678 0.0
O59 O 0.87862 0.4377 0.47554 0.0
O60 O 0.87049 0.44346 0.421 0.0
H61 H 0.8006 0.36809 0.38803 0.0
H62 H 0.77516 0.33409 0.40544 0.0
C63 C 0.78503 0.3593 0.40732 0.0
H64 H 0.77077 0.36858 0.40177 0.0
H65 H 0.8415 0.41859 0.34824 0.0
O66 O 0.85337 0.42578 0.54969 0.0
C67 C 0.8857 0.44297 0.44454 0.0
Co68 Co 0.52415 0.75304 0.97623 0.0
Co69 Co 0.52675 0.68935 0.97985 0.0
C70 C 0.48147 0.69713 0.94945 0.0
O71 O 0.49137 0.7257 0.95501 0.0
O72 O 0.49295 0.68069 0.95815 0.0
C73 C 0.51063 0.80361 0.96579 0.0
O74 O 0.4951 0.78613 0.94227 0.0
C75 C 0.50792 0.62876 0.00895 0.0
C76 C 0.54089 0.6168 0.00375 0.0
C77 C 0.51638 0.60669 0.01758 0.0
N78 N 0.52656 0.65086 0.99116 0.0
N79 N 0.54604 0.64331 0.98749 0.0
C80 C 0.48408 0.63114 0.02128 0.0
H81 H 0.46769 0.61688 0.00482 0.0
H82 H 0.48636 0.65504 0.01989 0.0
H83 H 0.47955 0.62277 0.04793 0.0
C84 C 0.52975 0.74991 0.05038 0.0
N85 N 0.52814 0.73808 0.01896 0.0
N86 N 0.53108 0.7126 0.02081 0.0
C87 C 0.5354 0.70787 0.05374 0.0
C88 C 0.5345 0.73122 0.0735 0.0
C89 C 0.52514 0.77752 0.05807 0.0
H90 H 0.50847 0.77675 0.04313 0.0
H91 H 0.52127 0.77908 0.08558 0.0
H92 H 0.54232 0.79822 0.05037 0.0
O93 O 0.55272 0.75671 0.94606 0.0
O94 O 0.55433 0.71148 0.94585 0.0
H95 H 0.55334 0.68939 0.09 0.0
H96 H 0.52407 0.66222 0.07142 0.0
C97 C 0.542 0.68277 0.06606 0.0
H98 H 0.55331 0.67725 0.04646 0.0
H99 H 0.56338 0.65705 0.97555 0.0
O100 O 0.5249 0.79411 0.98226 0.0
C101 C 0.56256 0.73903 0.93571 0.0
Co102 Co 0.6379 0.61895 0.8018 0.0
Co103 Co 0.68655 0.64035 0.75441 0.0
C104 C 0.63261 0.59994 0.72943 0.0
O105 O 0.62225 0.59824 0.75856 0.0
O106 O 0.65666 0.61552 0.72511 0.0
C107 C 0.58754 0.59323 0.83317 0.0
O108 O 0.57919 0.5952 0.80247 0.0
C109 C 0.72171 0.62849 0.7092 0.0
C110 C 0.75133 0.67478 0.69811 0.0
C111 C 0.74372 0.64433 0.68983 0.0
N112 N 0.71666 0.64865 0.72782 0.0
N113 N 0.73458 0.67625 0.72137 0.0
C114 C 0.70439 0.5951 0.70824 0.0
H115 H 0.70074 0.58696 0.68145 0.0
H116 H 0.68597 0.59006 0.72143 0.0
H117 H 0.71372 0.58233 0.72177 0.0
C118 C 0.6696 0.59559 0.84197 0.0
N119 N 0.66599 0.61004 0.81446 0.0
N120 N 0.68684 0.61997 0.79544 0.0
C121 C 0.70475 0.61307 0.81078 0.0
C122 C 0.69439 0.59725 0.8408 0.0
C123 C 0.64907 0.57903 0.86767 0.0
H124 H 0.63052 0.56624 0.85447 0.0
H125 H 0.65375 0.56273 0.88293 0.0
H126 H 0.64679 0.59585 0.88502 0.0
O127 O 0.64875 0.66362 0.79588 0.0
O128 O 0.68439 0.67889 0.76453 0.0
H129 H 0.73843 0.64648 0.78647 0.0
H130 H 0.74505 0.62474 0.81946 0.0
C131 C 0.73184 0.62362 0.79831 0.0
H132 H 0.73262 0.60746 0.77877 0.0
H133 H 0.73484 0.69619 0.7319 0.0
O134 O 0.6116 0.60341 0.83829 0.0
C135 C 0.66772 0.68462 0.78081 0.0
Co136 Co 0.14112 0.54387 0.02431 0.0
Co137 Co 0.16702 0.5391 0.95543 0.0
C138 C 0.1824 0.52253 0.02342 0.0
O139 O 0.16734 0.53092 0.03969 0.0
O140 O 0.18356 0.52359 0.99097 0.0
C141 C 0.11644 0.52933 0.08698 0.0
O142 O 0.11597 0.50289 0.07822 0.0
C143 C 0.21217 0.55234 0.91411 0.0
C144 C 0.1984 0.54893 0.86099 0.0
C145 C 0.22019 0.55534 0.8805 0.0
N146 N 0.18672 0.54406 0.91475 0.0
N147 N 0.17847 0.54179 0.8829 0.0
C148 C 0.22888 0.56035 0.94523 0.0
H149 H 0.22962 0.53937 0.95552 0.0
H150 H 0.22078 0.57011 0.96513 0.0
H151 H 0.24878 0.57701 0.93914 0.0
C152 C 0.16078 0.60777 0.00461 0.0
N153 N 0.1561 0.57879 0.99736 0.0
N154 N 0.16758 0.5777 0.96863 0.0
C155 C 0.1801 0.60645 0.95662 0.0
C156 C 0.17613 0.62641 0.97899 0.0
C157 C 0.15395 0.61737 0.03812 0.0
H158 H 0.1327 0.60755 0.04067 0.0
H159 H 0.16142 0.60806 0.05919 0.0
H160 H 0.16188 0.64246 0.04084 0.0
O161 O 0.11485 0.51029 -0.00057 0.0
O162 O 0.13133 0.50666 0.94898 0.0
H163 H 0.2018 0.63897 0.91787 0.0
H164 H 0.21481 0.61256 0.93088 0.0
C165 C 0.19681 0.61504 0.92551 0.0
H166 H 0.18675 0.59967 0.90414 0.0
H167 H 0.15941 0.53617 0.87615 0.0
O168 O 0.12568 0.55144 0.06612 0.0
C169 C 0.11289 0.49772 0.97047 0.0
Co170 Co 0.4847 0.2416 0.45944 0.0
Co171 Co 0.48004 0.30439 0.45546 0.0
C172 C 0.5282 0.29785 0.43439 0.0
O173 O 0.51861 0.26981 0.4426 0.0
O174 O 0.51557 0.31392 0.43816 0.0
C175 C 0.50594 0.19931 0.47557 0.0
O176 O 0.52724 0.22444 0.47766 0.0
C177 C 0.49579 0.36774 0.47447 0.0
C178 C 0.46078 0.37522 0.46646 0.0
C179 C 0.48592 0.38926 0.47794 0.0
N180 N 0.47747 0.34223 0.46133 0.0
N181 N 0.45666 0.34696 0.45607 0.0
C182 C 0.52112 0.36997 0.48723 0.0
H183 H 0.51987 0.347 0.49337 0.0
H184 H 0.52728 0.38463 0.51025 0.0
H185 H 0.53585 0.38027 0.46703 0.0
C186 C 0.47048 0.2454 0.53099 0.0
N187 N 0.47553 0.25676 0.49911 0.0
N188 N 0.47328 0.28271 0.49786 0.0
C189 C 0.4665 0.28855 0.52915 0.0
C190 C 0.46452 0.26511 0.55111 0.0
C191 C 0.4732 0.21732 0.54221 0.0
H192 H 0.49293 0.21995 0.53628 0.0
H193 H 0.4698 0.213 0.56994 0.0
H194 H 0.45948 0.1974 0.52776 0.0
O195 O 0.46056 0.23698 0.42217 0.0
O196 O 0.45541 0.2801 0.41958 0.0
H197 H 0.45117 0.31243 0.56269 0.0
H198 H 0.47934 0.33619 0.53857 0.0
C199 C 0.46101 0.31536 0.53766 0.0
H200 H 0.44865 0.31839 0.51767 0.0
H201 H 0.43935 0.33051 0.44668 0.0
O202 O 0.48505 0.20117 0.46819 0.0
C203 C 0.45045 0.25333 0.40892 0.0
Co204 Co 0.52523 0.74485 0.53611 0.0
Co205 Co 0.5317 0.8125 0.52805 0.0
C206 C 0.48853 0.76546 0.56913 0.0
O207 O 0.49602 0.74462 0.56313 0.0
O208 O 0.50046 0.79223 0.55693 0.0
C209 C 0.51412 0.68289 0.55641 0.0
O210 O 0.50605 0.69006 0.58503 0.0
C211 C 0.51487 0.85704 0.50076 0.0
C212 C 0.5506 0.89958 0.50066 0.0
C213 C 0.52498 0.88744 0.49092 0.0
N214 N 0.53365 0.85151 0.51537 0.0
N215 N 0.55486 0.87715 0.51586 0.0
C216 C 0.48877 0.83266 0.49283 0.0
H217 H 0.47472 0.83388 0.51159 0.0
H218 H 0.48876 0.80978 0.49461 0.0
H219 H 0.48258 0.83601 0.46692 0.0
C220 C 0.52436 0.74753 0.46118 0.0
N221 N 0.52539 0.76027 0.49197 0.0
N222 N 0.52965 0.78902 0.48805 0.0
C223 C 0.53205 0.79566 0.45439 0.0
C224 C 0.52865 0.76954 0.43631 0.0
C225 C 0.51898 0.71476 0.45594 0.0
H226 H 0.50322 0.70022 0.4732 0.0
H227 H 0.5134 0.70751 0.42919 0.0
H228 H 0.53644 0.7114 0.4624 0.0
O229 O 0.55796 0.7702 0.55869 0.0
O230 O 0.56268 0.81818 0.555 0.0
H231 H 0.54928 0.82905 0.4145 0.0
H232 H 0.52292 0.83174 0.43688 0.0
C233 C 0.54009 0.82698 0.43989 0.0
H234 H 0.55386 0.84417 0.45725 0.0
H235 H 0.57252 0.87899 0.52508 0.0
O236 O 0.52289 0.70275 0.53288 0.0
C237 C 0.57064 0.79853 0.56465 0.0
Co238 Co 0.84659 0.39751 0.99487 0.0
Co239 Co 0.81635 0.36582 0.06131 0.0
C240 C 0.80532 0.33374 0.99437 0.0
O241 O 0.82167 0.35728 0.97965 0.0
O242 O 0.80156 0.33341 0.02633 0.0
C243 C 0.84457 0.41672 0.9296 0.0
O244 O 0.8202 0.40401 0.93853 0.0
C245 C 0.76902 0.3347 0.09845 0.0
C246 C 0.77958 0.34556 0.15256 0.0
C247 C 0.7589 0.33051 0.13107 0.0
N248 N 0.79457 0.35107 0.10032 0.0
N249 N 0.8009 0.3572 0.1328 0.0
C250 C 0.75425 0.32673 0.06562 0.0
H251 H 0.75308 0.3045 0.05641 0.0
H252 H 0.76415 0.3443 0.04595 0.0
H253 H 0.73442 0.32482 0.06907 0.0
C254 C 0.82827 0.44397 0.01407 0.0
N255 N 0.83055 0.41783 0.02006 0.0
N256 N 0.81626 0.40384 0.04653 0.0
C257 C 0.80351 0.42028 0.05717 0.0
C258 C 0.81064 0.44615 0.03689 0.0
C259 C 0.84121 0.46539 0.98528 0.0
H260 H 0.85937 0.464 0.97819 0.0
H261 H 0.82812 0.45956 0.96298 0.0
H262 H 0.84585 0.48926 0.99242 0.0
O263 O 0.87235 0.39189 0.02271 0.0
O264 O 0.85207 0.36971 0.07083 0.0
H265 H 0.79233 0.40524 0.10847 0.0
H266 H 0.77861 0.42992 0.092 0.0
C267 C 0.78419 0.4112 0.0855 0.0
H268 H 0.76676 0.39098 0.07767 0.0
H269 H 0.81956 0.37036 0.14134 0.0
O270 O 0.86147 0.41825 0.95137 0.0
C271 C 0.87219 0.38057 0.05207 0.0
Co272 Co 0.37918 0.98613 0.1668 0.0
Co273 Co 0.33348 0.96787 0.21916 0.0
C274 C 0.38511 0.97123 0.23974 0.0
O275 O 0.39406 0.97854 0.20968 0.0
O276 O 0.36209 0.96665 0.24682 0.0
C277 C 0.42789 0.99929 0.13484 0.0
O278 O 0.43737 0.01124 0.1646 0.0
C279 C 0.29864 0.93541 0.27458 0.0
C280 C 0.26781 0.95119 0.27071 0.0
C281 C 0.27652 0.93371 0.29039 0.0
N282 N 0.30331 0.95359 0.24713 0.0
N283 N 0.28468 0.96279 0.24477 0.0
C284 C 0.31442 0.91879 0.28467 0.0
H285 H 0.32494 0.91561 0.26233 0.0
H286 H 0.30199 0.89624 0.29582 0.0
H287 H 0.32839 0.93218 0.30442 0.0
C288 C 0.34004 0.93363 0.13002 0.0
N289 N 0.34732 0.95275 0.15686 0.0
N290 N 0.32834 0.94434 0.17906 0.0
C291 C 0.30841 0.91939 0.16723 0.0
C292 C 0.31518 0.91173 0.13569 0.0
C293 C 0.35636 0.9371 0.09905 0.0
H294 H 0.36498 0.96127 0.09073 0.0
H295 H 0.37223 0.93063 0.10559 0.0
H296 H 0.34508 0.92273 0.07761 0.0
O297 O 0.37514 0.02473 0.17129 0.0
O298 O 0.34196 0.01069 0.20712 0.0
H299 H 0.27309 0.91636 0.18847 0.0
H300 H 0.27204 0.88008 0.17499 0.0
C301 C 0.28414 0.90231 0.1869 0.0
H302 H 0.28896 0.89828 0.21328 0.0
H303 H 0.28382 0.9776 0.22595 0.0
O304 O 0.4038 0.98912 0.12994 0.0
C305 C 0.35891 0.03073 0.18842 0.0
Co306 Co 0.46285 0.26281 0.01173 0.0
Co307 Co 0.45407 0.19417 0.00861 0.0
C308 C 0.50205 0.24378 0.03902 0.0
O309 O 0.49468 0.26467 0.03286 0.0
O310 O 0.48831 0.21615 0.03081 0.0
C311 C 0.48142 0.32807 0.02067 0.0
O312 O 0.49684 0.3249 0.04354 0.0
C313 C 0.4692 0.14839 0.98191 0.0
C314 C 0.43426 0.10541 0.9877 0.0
C315 C 0.45917 0.11742 0.97492 0.0
N316 N 0.45114 0.15437 0.99797 0.0
N317 N 0.43038 0.12854 0.00184 0.0
C318 C 0.49434 0.17266 0.97001 0.0
H319 H 0.50965 0.17426 0.98822 0.0
H320 H 0.49346 0.19511 0.96903 0.0
H321 H 0.49945 0.16707 0.9444 0.0
C322 C 0.45658 0.254 0.93747 0.0
N323 N 0.45725 0.24338 0.96903 0.0
N324 N 0.45197 0.2142 0.96742 0.0
C325 C 0.4471 0.20513 0.93458 0.0
C326 C 0.45 0.23008 0.91453 0.0
C327 C 0.46378 0.28686 0.92948 0.0
H328 H 0.48096 0.30142 0.94451 0.0
H329 H 0.46809 0.2919 0.90198 0.0
H330 H 0.44768 0.29265 0.93686 0.0
O331 O 0.43367 0.24061 0.04243 0.0
O332 O 0.42691 0.19183 0.04186 0.0
H333 H 0.42752 0.16913 0.89838 0.0
H334 H 0.45528 0.16796 0.91841 0.0
C335 C 0.4383 0.1729 0.92271 0.0
H336 H 0.42577 0.15698 0.94224 0.0
H337 H 0.41326 0.12689 0.01289 0.0
O338 O 0.4654 0.30466 0.0053 0.0
C339 C 0.42132 0.2132 0.05256 0.0
Co340 Co 0.1667 0.63118 0.49872 0.0
Co341 Co 0.18413 0.65021 0.57422 0.0
C342 C 0.18795 0.69578 0.51882 0.0
O343 O 0.17926 0.67514 0.49626 0.0
O344 O 0.19088 0.68955 0.54969 0.0
C345 C 0.14545 0.62533 0.43263 0.0
O346 O 0.14135 0.64879 0.44272 0.0
C347 C 0.22642 0.68071 0.61958 0.0
C348 C 0.21264 0.65903 0.66968 0.0
C349 C 0.2342 0.67989 0.65287 0.0
N350 N 0.20152 0.66147 0.6168 0.0
N351 N 0.19314 0.64898 0.64699 0.0
C352 C 0.24326 0.69567 0.58955 0.0
H353 H 0.23364 0.68529 0.56529 0.0
H354 H 0.2618 0.69368 0.59136 0.0
H355 H 0.24743 0.72024 0.58931 0.0
C356 C 0.20064 0.60039 0.50554 0.0
N357 N 0.19097 0.61934 0.51766 0.0
N358 N 0.19781 0.62591 0.54974 0.0
C359 C 0.21204 0.61088 0.55911 0.0
C360 C 0.21426 0.59432 0.53134 0.0
C361 C 0.1955 0.58693 0.47047 0.0
H362 H 0.17514 0.57 0.46886 0.0
H363 H 0.19851 0.60511 0.45144 0.0
H364 H 0.20823 0.57559 0.4642 0.0
O365 O 0.13578 0.61517 0.52642 0.0
O366 O 0.14615 0.62624 0.58113 0.0
H367 H 0.20523 0.6068 0.61307 0.0
H368 H 0.22634 0.59024 0.59798 0.0
C369 C 0.22078 0.60945 0.59475 0.0
H370 H 0.23773 0.63096 0.60059 0.0
H371 H 0.17463 0.6323 0.65159 0.0
O372 O 0.15654 0.61404 0.45267 0.0
C373 C 0.12957 0.61406 0.55767 0.0
Co374 Co 0.59672 0.9865 0.66622 0.0
Co375 Co 0.64555 0.02071 0.71168 0.0
C376 C 0.59368 0.01549 0.73295 0.0
O377 O 0.58297 0.00026 0.70643 0.0
O378 O 0.61772 0.02485 0.73777 0.0
C379 C 0.54656 0.96957 0.63725 0.0
O380 O 0.53913 0.96688 0.66928 0.0
C381 C 0.68327 0.07083 0.75009 0.0
C382 C 0.71096 0.05252 0.76604 0.0
C383 C 0.70504 0.07731 0.7696 0.0
N384 N 0.67665 0.04352 0.73539 0.0
N385 N 0.69344 0.03281 0.74465 0.0
C386 C 0.6671 0.08834 0.74894 0.0
H387 H 0.65772 0.08672 0.77412 0.0
H388 H 0.65219 0.07926 0.72885 0.0
H389 H 0.67921 0.11275 0.74371 0.0
C390 C 0.62876 0.0354 0.61796 0.0
N391 N 0.62572 0.02018 0.64768 0.0
N392 N 0.64654 0.03397 0.66627 0.0
C393 C 0.66373 0.05775 0.64856 0.0
C394 C 0.65294 0.05957 0.61747 0.0
C395 C 0.60831 0.02811 0.59139 0.0
H396 H 0.60209 0.00418 0.58294 0.0
H397 H 0.59144 0.0304 0.60263 0.0
H398 H 0.61527 0.04338 0.5689 0.0
O399 O 0.60563 0.95215 0.68052 0.0
O400 O 0.63979 0.97807 0.71269 0.0
H401 H 0.69831 0.06796 0.67705 0.0
H402 H 0.70208 0.09339 0.64164 0.0
C403 C 0.68897 0.08008 0.66238 0.0
H404 H 0.68563 0.09622 0.6796 0.0
H405 H 0.69224 0.01145 0.73766 0.0
O406 O 0.56954 0.97385 0.63054 0.0
C407 C 0.6238 0.95308 0.7 0.0
C408 C 0.39297 0.22947 0.08709 0.0
C409 C 0.40259 0.20767 0.08059 0.0
C410 C 0.38161 0.2299 0.11835 0.0
C411 C 0.35439 0.19629 0.19877 0.0
H412 H 0.40273 0.27415 0.23458 0.0
C413 C 0.37743 0.28649 0.31961 0.0
C414 C 0.35335 0.28753 0.32078 0.0
C415 C 0.3815 0.2664 0.29736 0.0
C416 C 0.38929 0.25199 0.22557 0.0
H417 H 0.40478 0.16679 0.09991 0.0
H418 H 0.3844 0.16746 0.15485 0.0
H419 H 0.40995 0.25784 0.17879 0.0
H420 H 0.31362 0.26481 0.30433 0.0
H421 H 0.32069 0.22983 0.26581 0.0
H422 H 0.33341 0.19085 0.24567 0.0
C423 C 0.38616 0.18442 0.1358 0.0
C424 C 0.39329 0.24289 0.19332 0.0
C425 C 0.39773 0.18402 0.10434 0.0
C426 C 0.33255 0.26492 0.3035 0.0
C427 C 0.33659 0.2447 0.28144 0.0
C428 C 0.35028 0.2055 0.23136 0.0
C429 C 0.37951 0.20848 0.14365 0.0
C430 C 0.37561 0.21542 0.17928 0.0
C431 C 0.36151 0.24677 0.27628 0.0
C432 C 0.36749 0.2338 0.24482 0.0
H433 H 0.39598 0.24764 0.06904 0.0
H434 H 0.3763 0.24846 0.1238 0.0
H435 H 0.34068 0.17483 0.18844 0.0
H436 H 0.39381 0.30331 0.33291 0.0
H437 H 0.40085 0.26806 0.29459 0.0
C438 C 0.92642 0.43844 0.45331 0.0
C439 C 0.9134 0.45433 0.43855 0.0
C440 C 0.95197 0.45401 0.46349 0.0
C441 C 0.00744 0.5308 0.46677 0.0
H442 H 0.01252 0.50614 0.5598 0.0
C443 C 0.08588 0.61034 0.55335 0.0
C444 C 0.10217 0.59742 0.56502 0.0
C445 C 0.06122 0.59168 0.54185 0.0
C446 C 0.01135 0.51321 0.53386 0.0
H447 H 0.91739 0.4979 0.41905 0.0
H448 H 0.96185 0.52533 0.4371 0.0
H449 H 0.97588 0.47463 0.52471 0.0
H450 H 0.10486 0.55534 0.57744 0.0
H451 H 0.06132 0.52253 0.55839 0.0
H452 H 0.04264 0.56983 0.47645 0.0
C453 C 0.95266 0.50086 0.44065 0.0
C454 C 0.99056 0.495 0.5135 0.0
C455 C 0.92719 0.48512 0.42995 0.0
C456 C 0.09236 0.56575 0.56931 0.0
C457 C 0.06758 0.547 0.55793 0.0
C458 C 0.02805 0.54913 0.48726 0.0
C459 C 0.9647 0.48582 0.45965 0.0
C460 C 0.98827 0.50364 0.47973 0.0
C461 C 0.05255 0.55987 0.54197 0.0
C462 C 0.03007 0.54066 0.52109 0.0
H463 H 0.91604 0.41466 0.46028 0.0
H464 H 0.96099 0.44155 0.47696 0.0
H465 H 0.00647 0.53798 0.44083 0.0
H466 H 0.09329 0.63471 0.54922 0.0
H467 H 0.04977 0.60212 0.53022 0.0
C468 C 0.64311 0.92662 0.73728 0.0
C469 C 0.62516 0.92472 0.71193 0.0
C470 C 0.64202 0.90058 0.75358 0.0
C471 C 0.59493 0.82119 0.77142 0.0
H472 H 0.65211 0.82211 0.82497 0.0
C473 C 0.60031 0.78034 0.90905 0.0
C474 C 0.58135 0.75029 0.90778 0.0
C475 C 0.61239 0.79524 0.8792 0.0
C476 C 0.63609 0.82135 0.80977 0.0
H477 H 0.59349 0.8935 0.68152 0.0
H478 H 0.59231 0.84761 0.70884 0.0
H479 H 0.65991 0.8603 0.78059 0.0
H480 H 0.56172 0.71117 0.87524 0.0
H481 H 0.58246 0.73762 0.82256 0.0
H482 H 0.57124 0.78211 0.80074 0.0
C483 C 0.60656 0.86949 0.71731 0.0
C484 C 0.64039 0.84354 0.78469 0.0
C485 C 0.60736 0.8958 0.7013 0.0
C486 C 0.57649 0.73429 0.87681 0.0
C487 C 0.5882 0.74943 0.84672 0.0
C488 C 0.59078 0.79864 0.7959 0.0
C489 C 0.62328 0.8716 0.7446 0.0
C490 C 0.61968 0.84462 0.76618 0.0
C491 C 0.60523 0.78049 0.84755 0.0
C492 C 0.61112 0.79922 0.81619 0.0
H493 H 0.65727 0.94846 0.74611 0.0
H494 H 0.65503 0.90367 0.77467 0.0
H495 H 0.57834 0.82118 0.7583 0.0
H496 H 0.60421 0.79311 0.9327 0.0
H497 H 0.62533 0.81922 0.88054 0.0
C498 C 0.69001 0.73949 0.76423 0.0
C499 C 0.6678 0.71493 0.77617 0.0
C500 C 0.68829 0.76491 0.74962 0.0
C501 C 0.67522 0.79524 0.69066 0.0
H502 H 0.61471 0.81104 0.6998 0.0
C503 C 0.60839 0.79043 0.58417 0.0
C504 C 0.59416 0.80792 0.58526 0.0
C505 C 0.62717 0.79454 0.60856 0.0
C506 C 0.63227 0.80797 0.69727 0.0
H507 H 0.62705 0.69937 0.78621 0.0
H508 H 0.62366 0.74235 0.75964 0.0
H509 H 0.6282 0.78936 0.74724 0.0
H510 H 0.58995 0.84541 0.61052 0.0
H511 H 0.6227 0.85219 0.65394 0.0
H512 H 0.6778 0.81164 0.63934 0.0
C513 C 0.64263 0.74284 0.76171 0.0
C514 C 0.63989 0.79514 0.72447 0.0
C515 C 0.64449 0.71782 0.77698 0.0
C516 C 0.60062 0.83155 0.60926 0.0
C517 C 0.61925 0.83538 0.63409 0.0
C518 C 0.66752 0.808 0.66335 0.0
C519 C 0.66423 0.76585 0.7459 0.0
C520 C 0.66067 0.78716 0.72107 0.0
C521 C 0.63182 0.81595 0.63481 0.0
C522 C 0.64518 0.81297 0.66588 0.0
H523 H 0.70839 0.73814 0.76397 0.0
H524 H 0.70555 0.78274 0.73913 0.0
H525 H 0.69116 0.78924 0.6865 0.0
H526 H 0.60395 0.7723 0.56563 0.0
H527 H 0.63637 0.77904 0.60859 0.0
C528 C 0.06754 0.47111 0.95223 0.0
C529 C 0.08974 0.46961 0.96511 0.0
C530 C 0.04333 0.44812 0.96013 0.0
C531 C 0.99362 0.39221 0.98011 0.0
H532 H 0.99107 0.39711 0.07891 0.0
C533 C 0.89747 0.35059 0.04811 0.0
C534 C 0.89519 0.37637 0.06109 0.0
C535 C 0.92173 0.35145 0.04175 0.0
C536 C 0.99157 0.3949 0.05143 0.0
H537 H 0.10463 0.44245 0.99394 0.0
H538 H 0.06232 0.40238 0.00801 0.0
H539 H 0.03268 0.41655 0.0497 0.0
H540 H 0.91592 0.42206 0.08051 0.0
H541 H 0.95846 0.42317 0.07091 0.0
H542 H 0.95248 0.37195 0.98175 0.0
C543 C 0.06353 0.42091 0.9915 0.0
C544 C 0.01529 0.40588 0.0347 0.0
C545 C 0.08767 0.44363 0.98318 0.0
C546 C 0.91731 0.40169 0.0713 0.0
C547 C 0.94159 0.40234 0.06557 0.0
C548 C 0.9699 0.38065 0.99689 0.0
C549 C 0.04119 0.42382 0.98157 0.0
C550 C 0.01648 0.40569 0.99884 0.0
C551 C 0.94394 0.37796 0.04878 0.0
C552 C 0.96869 0.38299 0.03258 0.0
H553 H 0.06877 0.49135 0.93901 0.0
H554 H 0.02635 0.451 0.95245 0.0
H555 H 0.9941 0.39198 0.95247 0.0
H556 H 0.88059 0.33112 0.03933 0.0
H557 H 0.92312 0.33243 0.02877 0.0
C558 C 0.34158 0.06875 0.20273 0.0
C559 C 0.3621 0.06253 0.1913 0.0
C560 C 0.34607 0.09779 0.21452 0.0
C561 C 0.3988 0.1757 0.231 0.0
H562 H 0.36466 0.16369 0.31882 0.0
C563 C 0.45008 0.23716 0.34958 0.0
C564 C 0.43676 0.24275 0.37671 0.0
C565 C 0.4372 0.22312 0.32003 0.0
C566 C 0.37395 0.16792 0.29406 0.0
H567 H 0.40285 0.08247 0.17966 0.0
H568 H 0.41096 0.13249 0.2015 0.0
H569 H 0.34818 0.12419 0.27613 0.0
H570 H 0.39993 0.23944 0.39436 0.0
H571 H 0.3768 0.2139 0.34242 0.0
H572 H 0.42535 0.21894 0.24995 0.0
C573 C 0.39127 0.11543 0.20094 0.0
C574 C 0.36446 0.14515 0.26935 0.0
C575 C 0.38667 0.08657 0.18847 0.0
C576 C 0.41047 0.23532 0.3735 0.0
C577 C 0.39733 0.22064 0.34395 0.0
C578 C 0.40821 0.19851 0.25569 0.0
C579 C 0.37127 0.1209 0.21596 0.0
C580 C 0.37746 0.14811 0.23807 0.0
C581 C 0.41055 0.21396 0.31711 0.0
C582 C 0.39668 0.19417 0.28813 0.0
H583 H 0.32231 0.05072 0.20453 0.0
H584 H 0.33004 0.10148 0.22469 0.0
H585 H 0.40902 0.17922 0.20701 0.0
H586 H 0.47042 0.24272 0.35176 0.0
H587 H 0.44795 0.21779 0.30038 0.0
C588 C 0.25803 0.39831 0.2343 0.0
C589 C 0.26485 0.37494 0.22416 0.0
C590 C 0.25125 0.41468 0.21001 0.0
C591 C 0.22944 0.41281 0.12114 0.0
H592 H 0.25496 0.50005 0.1349 0.0
C593 C 0.20775 0.49114 0.0269 0.0
C594 C 0.1975 0.50959 0.04288 0.0
C595 C 0.21931 0.47609 0.04635 0.0
C596 C 0.24772 0.47572 0.13072 0.0
H597 H 0.26888 0.3492 0.18117 0.0
H598 H 0.25712 0.37798 0.13839 0.0
H599 H 0.26741 0.46974 0.17437 0.0
H600 H 0.19252 0.528 0.09147 0.0
H601 H 0.2128 0.50207 0.12513 0.0
H602 H 0.2095 0.41891 0.07762 0.0
C603 C 0.25698 0.38368 0.1651 0.0
C604 C 0.25471 0.45832 0.1534 0.0
C605 C 0.26368 0.36721 0.1895 0.0
C606 C 0.20012 0.51383 0.07838 0.0
C607 C 0.21188 0.49912 0.09768 0.0
C608 C 0.22252 0.43028 0.09832 0.0
C609 C 0.25115 0.40798 0.17507 0.0
C610 C 0.24519 0.42658 0.14934 0.0
C611 C 0.22115 0.47964 0.08199 0.0
C612 C 0.23116 0.4618 0.10334 0.0
H613 H 0.25798 0.40397 0.26102 0.0
H614 H 0.24609 0.43263 0.21863 0.0
H615 H 0.22167 0.38839 0.1174 0.0
H616 H 0.20601 0.48743 -0.00042 0.0
H617 H 0.22649 0.46136 0.03362 0.0
C618 C 0.56737 0.34267 0.41291 0.0
C619 C 0.55387 0.31109 0.41797 0.0
C620 C 0.59138 0.35457 0.3966 0.0
C621 C 0.64509 0.33398 0.37604 0.0
H622 H 0.66759 0.4048 0.31686 0.0
C623 C 0.7456 0.38067 0.32098 0.0
C624 C 0.75985 0.41117 0.33037 0.0
C625 C 0.71874 0.36824 0.32114 0.0
C626 C 0.66146 0.38488 0.33316 0.0
H627 H 0.55465 0.2672 0.4089 0.0
H628 H 0.59583 0.28774 0.37999 0.0
H629 H 0.62391 0.38351 0.34036 0.0
H630 H 0.75779 0.45361 0.34289 0.0
H631 H 0.7109 0.43202 0.34318 0.0
H632 H 0.68255 0.33552 0.36948 0.0
C633 C 0.58839 0.3035 0.38938 0.0
C634 C 0.63656 0.37285 0.34686 0.0
C635 C 0.56467 0.2917 0.40595 0.0
C636 C 0.74707 0.42997 0.33571 0.0
C637 C 0.72024 0.41758 0.33582 0.0
C638 C 0.66978 0.3458 0.36219 0.0
C639 C 0.60221 0.33508 0.38477 0.0
C640 C 0.62819 0.34743 0.3688 0.0
C641 C 0.70584 0.38619 0.3306 0.0
C642 C 0.67838 0.37158 0.34092 0.0
H643 H 0.55952 0.35819 0.4218 0.0
H644 H 0.60163 0.37904 0.39386 0.0
H645 H 0.6396 0.31483 0.39339 0.0
H646 H 0.75507 0.36574 0.31684 0.0
H647 H 0.70809 0.34407 0.31638 0.0
C648 C 0.51957 0.57675 0.06789 0.0
C649 C 0.50449 0.58147 0.04231 0.0
C650 C 0.50804 0.55549 0.09388 0.0
C651 C 0.44843 0.48882 0.11811 0.0
H652 H 0.46853 0.5173 0.21064 0.0
C653 C 0.38614 0.42778 0.23366 0.0
C654 C 0.39833 0.42531 0.26389 0.0
C655 C 0.40041 0.4456 0.2065 0.0
C656 C 0.46294 0.50876 0.18499 0.0
H657 H 0.46587 0.5661 0.0223 0.0
H658 H 0.44566 0.52906 0.06774 0.0
H659 H 0.49129 0.54945 0.16257 0.0
H660 H 0.43522 0.43987 0.28921 0.0
H661 H 0.46024 0.47078 0.24147 0.0
H662 H 0.42 0.44822 0.14041 0.0
C663 C 0.46636 0.54193 0.06794 0.0
C664 C 0.476 0.52721 0.15743 0.0
C665 C 0.47787 0.56334 0.0421 0.0
C666 C 0.4252 0.44134 0.26635 0.0
C667 C 0.43953 0.45914 0.23902 0.0
C668 C 0.43546 0.47032 0.14565 0.0
C669 C 0.48125 0.53825 0.09454 0.0
C670 C 0.46866 0.51762 0.12368 0.0
C671 C 0.4273 0.46136 0.20868 0.0
C672 C 0.44229 0.48024 0.17945 0.0
H673 H 0.54016 0.59038 0.0686 0.0
H674 H 0.52006 0.55285 0.11375 0.0
H675 H 0.44257 0.48061 0.09242 0.0
H676 H 0.36547 0.41593 0.23087 0.0
H677 H 0.39025 0.44727 0.18387 0.0
C678 C 0.75451 0.60336 0.6646 0.0
C679 C 0.75514 0.63264 0.66257 0.0
C680 C 0.76355 0.59175 0.63764 0.0
C681 C 0.80855 0.61146 0.56792 0.0
H682 H 0.76395 0.53109 0.53399 0.0
C683 C 0.80828 0.51106 0.4703 0.0
C684 C 0.82874 0.50655 0.48497 0.0
C685 C 0.80044 0.53237 0.48435 0.0
C686 C 0.77647 0.55379 0.54266 0.0
H687 H 0.76752 0.67355 0.63154 0.0
H688 H 0.78423 0.65345 0.58477 0.0
H689 H 0.74737 0.55616 0.57529 0.0
H690 H 0.85846 0.52244 0.52368 0.0
H691 H 0.84514 0.55995 0.54767 0.0
H692 H 0.83811 0.60826 0.53672 0.0
C693 C 0.77598 0.6393 0.60696 0.0
C694 C 0.76706 0.56797 0.56652 0.0
C695 C 0.76649 0.65076 0.63376 0.0
C696 C 0.84251 0.52535 0.51202 0.0
C697 C 0.83501 0.54697 0.5256 0.0
C698 C 0.81812 0.59704 0.54442 0.0
C699 C 0.77407 0.60946 0.60844 0.0
C700 C 0.78319 0.59655 0.57997 0.0
C701 C 0.81332 0.54988 0.51276 0.0
C702 C 0.8023 0.56777 0.5322 0.0
H703 H 0.74733 0.58938 0.68705 0.0
H704 H 0.76259 0.56896 0.63977 0.0
H705 H 0.82133 0.63351 0.57801 0.0
H706 H 0.79731 0.49679 0.4495 0.0
H707 H 0.78368 0.53428 0.47397 0.0
C708 C 0.44605 0.70102 0.91543 0.0
C709 C 0.45624 0.68288 0.93217 0.0
C710 C 0.42208 0.6877 0.8995 0.0
C711 C 0.3716 0.61314 0.87011 0.0
H712 H 0.32625 0.65286 0.88544 0.0
C713 C 0.26195 0.55155 0.87999 0.0
C714 C 0.24699 0.5664 0.86884 0.0
C715 C 0.28864 0.56557 0.87655 0.0
C716 C 0.33881 0.64178 0.88017 0.0
H717 H 0.44938 0.63647 0.94499 0.0
H718 H 0.4072 0.61329 0.91825 0.0
H719 H 0.37101 0.67829 0.9025 0.0
H720 H 0.24754 0.60634 0.84339 0.0
H721 H 0.29453 0.63123 0.83749 0.0
H722 H 0.33873 0.57583 0.84956 0.0
C723 C 0.41799 0.63777 0.9166 0.0
C724 C 0.36453 0.65636 0.89002 0.0
C725 C 0.44209 0.65108 0.93223 0.0
C726 C 0.25881 0.59445 0.8519 0.0
C727 C 0.28562 0.60872 0.84881 0.0
C728 C 0.34577 0.59844 0.86052 0.0
C729 C 0.40758 0.65593 0.90025 0.0
C730 C 0.38111 0.64191 0.88592 0.0
C731 C 0.30082 0.59487 0.86227 0.0
C732 C 0.32898 0.61232 0.86623 0.0
H733 H 0.45661 0.72558 0.91453 0.0
H734 H 0.41489 0.70236 0.88668 0.0
H735 H 0.38396 0.60164 0.86587 0.0
H736 H 0.2531 0.52993 0.89329 0.0
H737 H 0.2998 0.55445 0.88746 0.0
C738 C 0.62803 0.58459 0.66784 0.0
C739 C 0.61659 0.58358 0.69987 0.0
C740 C 0.61321 0.56864 0.6401 0.0
C741 C 0.54649 0.5296 0.60742 0.0
H742 H 0.57481 0.48242 0.55605 0.0
C743 C 0.48615 0.4254 0.52346 0.0
C744 C 0.49826 0.41885 0.49549 0.0
C745 C 0.49977 0.45063 0.54417 0.0
C746 C 0.56676 0.49592 0.56953 0.0
H747 H 0.58038 0.56552 0.72752 0.0
H748 H 0.55456 0.53729 0.67909 0.0
H749 H 0.60019 0.5163 0.60073 0.0
H750 H 0.53295 0.43475 0.465 0.0
H751 H 0.55663 0.47925 0.50055 0.0
H752 H 0.51274 0.50851 0.5764 0.0
C753 C 0.57499 0.55075 0.67542 0.0
C754 C 0.58134 0.51533 0.59531 0.0
C755 C 0.58984 0.56672 0.70326 0.0
C756 C 0.52341 0.43916 0.48684 0.0
C757 C 0.53695 0.46448 0.5073 0.0
C758 C 0.53185 0.51015 0.58143 0.0
C759 C 0.58658 0.55122 0.64364 0.0
C760 C 0.57133 0.53215 0.61485 0.0
C761 C 0.52569 0.46977 0.53708 0.0
C762 C 0.54174 0.49281 0.56242 0.0
H763 H 0.64854 0.59749 0.66417 0.0
H764 H 0.62268 0.5698 0.61585 0.0
H765 H 0.53836 0.54255 0.62178 0.0
H766 H 0.46671 0.40999 0.53053 0.0
H767 H 0.49048 0.45399 0.56686 0.0
C768 C 0.39197 0.95873 0.30003 0.0
C769 C 0.40165 0.96757 0.26687 0.0
C770 C 0.40706 0.95399 0.32527 0.0
C771 C 0.46459 0.93827 0.33574 0.0
H772 H 0.45714 0.95497 0.43098 0.0
C773 C 0.52683 0.92039 0.44109 0.0
C774 C 0.51294 0.90244 0.4687 0.0
C775 C 0.51488 0.93203 0.41773 0.0
C776 C 0.45935 0.95015 0.40448 0.0
H777 H 0.43538 0.97955 0.23472 0.0
H778 H 0.46199 0.97218 0.27898 0.0
H779 H 0.43373 0.969 0.38733 0.0
H780 H 0.47629 0.8845 0.49507 0.0
H781 H 0.45533 0.90493 0.45424 0.0
H782 H 0.49035 0.91961 0.353 0.0
C783 C 0.44239 0.96801 0.28525 0.0
C784 C 0.44588 0.95805 0.37944 0.0
C785 C 0.42716 0.97245 0.25987 0.0
C786 C 0.48727 0.89774 0.4736 0.0
C787 C 0.47538 0.90968 0.45045 0.0
C788 C 0.47826 0.93071 0.36073 0.0
C789 C 0.43244 0.95836 0.31819 0.0
C790 C 0.44805 0.95184 0.34475 0.0
C791 C 0.4889 0.92635 0.42184 0.0
C792 C 0.47557 0.93625 0.39537 0.0
H793 H 0.37259 0.95513 0.30652 0.0
H794 H 0.39855 0.94618 0.35013 0.0
H795 H 0.46643 0.93259 0.30945 0.0
H796 H 0.54669 0.92445 0.43678 0.0
H797 H 0.52584 0.94511 0.39614 0.0
C798 C 0.72061 0.33634 0.15355 0.0
C799 C 0.73133 0.31765 0.13956 0.0
C800 C 0.69396 0.32704 0.15285 0.0
C801 C 0.63112 0.262 0.13539 0.0
H802 H 0.61563 0.32294 0.08875 0.0
C803 C 0.53809 0.2309 0.05786 0.0
C804 C 0.52688 0.2517 0.05664 0.0
C805 C 0.56164 0.23857 0.07425 0.0
C806 C 0.61938 0.30578 0.10241 0.0
H807 H 0.72305 0.27386 0.11665 0.0
H808 H 0.67653 0.25731 0.11589 0.0
H809 H 0.65879 0.33636 0.11008 0.0
H810 H 0.53129 0.29658 0.07258 0.0
H811 H 0.57199 0.30967 0.10177 0.0
H812 H 0.59176 0.23124 0.12718 0.0
C813 C 0.68847 0.27908 0.12733 0.0
C814 C 0.64418 0.31353 0.11471 0.0
C815 C 0.71507 0.28851 0.12772 0.0
C816 C 0.53954 0.28014 0.07269 0.0
C817 C 0.56294 0.28769 0.08938 0.0
C818 C 0.6062 0.25429 0.12333 0.0
C819 C 0.67774 0.2988 0.13848 0.0
C820 C 0.65047 0.29157 0.13066 0.0
C821 C 0.57443 0.26713 0.09012 0.0
C822 C 0.60017 0.27591 0.10598 0.0
H823 H 0.73289 0.35903 0.16253 0.0
H824 H 0.68616 0.34256 0.16191 0.0
H825 H 0.63539 0.24467 0.1478 0.0
H826 H 0.52888 0.20883 0.04567 0.0
H827 H 0.57009 0.22235 0.07374 0.0
C828 C 0.18065 0.73253 0.48111 0.0
C829 C 0.19435 0.72738 0.50818 0.0
C830 C 0.18822 0.76162 0.46752 0.0
C831 C 0.24635 0.82845 0.45148 0.0
H832 H 0.19955 0.85974 0.41434 0.0
C833 C 0.28174 0.92348 0.35148 0.0
C834 C 0.2657 0.91846 0.32297 0.0
C835 C 0.27247 0.9067 0.38136 0.0
C836 C 0.21288 0.85131 0.42449 0.0
H837 H 0.22588 0.74874 0.54354 0.0
H838 H 0.23971 0.80001 0.51897 0.0
H839 H 0.18386 0.81819 0.45589 0.0
H840 H 0.22716 0.89357 0.30362 0.0
H841 H 0.21097 0.86325 0.35544 0.0
H842 H 0.27496 0.85991 0.41868 0.0
C843 C 0.22295 0.78139 0.50856 0.0
C844 C 0.20393 0.82769 0.44845 0.0
C845 C 0.21504 0.75218 0.52264 0.0
C846 C 0.23984 0.89767 0.32535 0.0
C847 C 0.23061 0.8805 0.35513 0.0
C848 C 0.25525 0.85187 0.42736 0.0
C849 C 0.20989 0.78619 0.48038 0.0
C850 C 0.22039 0.81537 0.46131 0.0
C851 C 0.24703 0.88426 0.3832 0.0
C852 C 0.23843 0.86293 0.41273 0.0
H853 H 0.16445 0.71383 0.4697 0.0
H854 H 0.17796 0.76447 0.44559 0.0
H855 H 0.2594 0.81915 0.46057 0.0
H856 H 0.30161 0.94007 0.35047 0.0
H857 H 0.28547 0.91079 0.40272 0.0
C858 C 0.55129 0.012 0.75502 0.0
C859 C 0.57804 0.02245 0.75888 0.0
C860 C 0.53673 0.01868 0.77965 0.0
C861 C 0.5388 0.04369 0.86961 0.0
H862 H 0.48625 0.06894 0.8401 0.0
C863 C 0.49703 0.10782 0.95679 0.0
C864 C 0.47081 0.10116 0.95384 0.0
C865 C 0.50846 0.09451 0.93463 0.0
C866 C 0.50057 0.06147 0.84881 0.0
H867 H 0.6104 0.04818 0.79178 0.0
H868 H 0.58514 0.06014 0.83423 0.0
H869 H 0.50933 0.05306 0.79782 0.0
H870 H 0.43562 0.07415 0.92672 0.0
H871 H 0.45555 0.05069 0.88802 0.0
H872 H 0.53038 0.05274 0.92056 0.0
C873 C 0.57531 0.04635 0.81251 0.0
C874 C 0.51382 0.05237 0.82456 0.0
C875 C 0.58984 0.03967 0.78796 0.0
C876 C 0.45593 0.07982 0.9294 0.0
C877 C 0.46738 0.0666 0.90709 0.0
C878 C 0.5256 0.05287 0.89384 0.0
C879 C 0.54857 0.03595 0.80869 0.0
C880 C 0.53333 0.04374 0.83463 0.0
C881 C 0.49386 0.0742 0.90908 0.0
C882 C 0.50655 0.06222 0.88369 0.0
H883 H 0.54155 0.99861 0.733 0.0
H884 H 0.51614 0.01007 0.77608 0.0
H885 H 0.55338 0.03662 0.87831 0.0
H886 H 0.50882 0.1236 0.97596 0.0
H887 H 0.52891 0.10093 0.9368 0.0
C888 C 0.45374 0.77881 0.59206 0.0
C889 C 0.46517 0.75824 0.5901 0.0
C890 C 0.43084 0.77121 0.61016 0.0
C891 C 0.37415 0.70371 0.63849 0.0
H892 H 0.35664 0.76394 0.68321 0.0
C893 C 0.27062 0.67223 0.67899 0.0
C894 C 0.26109 0.69198 0.66466 0.0
C895 C 0.29715 0.6813 0.68166 0.0
C896 C 0.36131 0.74683 0.671 0.0
H897 H 0.46211 0.71413 0.60703 0.0
H898 H 0.4224 0.70109 0.63902 0.0
H899 H 0.40087 0.77782 0.66457 0.0
H900 H 0.27126 0.7376 0.64565 0.0
H901 H 0.31752 0.75347 0.65002 0.0
H902 H 0.33455 0.67304 0.64374 0.0
C903 C 0.43085 0.72285 0.62597 0.0
C904 C 0.3866 0.75479 0.66018 0.0
C905 C 0.45366 0.73036 0.60768 0.0
C906 C 0.27826 0.72189 0.65637 0.0
C907 C 0.30474 0.73101 0.65913 0.0
C908 C 0.34896 0.69573 0.6494 0.0
C909 C 0.41891 0.74294 0.62692 0.0
C910 C 0.39313 0.73356 0.64289 0.0
C911 C 0.31449 0.71031 0.67024 0.0
C912 C 0.34208 0.71743 0.6649 0.0
H913 H 0.46208 0.80047 0.57879 0.0
H914 H 0.42201 0.78706 0.60989 0.0
H915 H 0.37834 0.68686 0.62487 0.0
H916 H 0.25771 0.64903 0.68559 0.0
H917 H 0.30411 0.66503 0.69084 0.0
C918 C 0.71869 0.09682 0.8284 0.0
C919 C 0.71681 0.10269 0.7937 0.0
C920 C 0.72724 0.12073 0.85194 0.0
C921 C 0.73402 0.19982 0.86142 0.0
H922 H 0.77781 0.2027 0.93793 0.0
C923 C 0.79093 0.30841 0.93805 0.0
C924 C 0.79138 0.30613 0.97378 0.0
C925 C 0.77951 0.28234 0.91806 0.0
C926 C 0.76527 0.20192 0.91694 0.0
H927 H 0.72406 0.13783 0.75572 0.0
H928 H 0.73952 0.17975 0.79655 0.0
H929 H 0.76399 0.15969 0.89842 0.0
H930 H 0.77971 0.2748 0.01665 0.0
H931 H 0.75993 0.22893 0.98136 0.0
H932 H 0.73596 0.24248 0.8794 0.0
C933 C 0.7335 0.15671 0.80595 0.0
C934 C 0.75737 0.17734 0.8943 0.0
C935 C 0.72476 0.1328 0.78254 0.0
C936 C 0.77963 0.27723 0.98917 0.0
C937 C 0.76846 0.25103 0.96904 0.0
C938 C 0.74207 0.22444 0.88385 0.0
C939 C 0.7343 0.1509 0.84102 0.0
C940 C 0.74195 0.17625 0.866 0.0
C941 C 0.76849 0.2534 0.9333 0.0
C942 C 0.75803 0.22591 0.91154 0.0
H943 H 0.71258 0.07366 0.83747 0.0
H944 H 0.7275 0.11544 0.87875 0.0
H945 H 0.72159 0.19931 0.84041 0.0
H946 H 0.79973 0.33036 0.92543 0.0
H947 H 0.77999 0.28479 0.89054 0.0
C948 C 0.25097 0.57941 0.53233 0.0
C949 C 0.22445 0.57102 0.53055 0.0
C950 C 0.26075 0.55788 0.52563 0.0
C951 C 0.27646 0.50498 0.51815 0.0
H952 H 0.24406 0.45611 0.43875 0.0
C953 C 0.30834 0.41639 0.45615 0.0
C954 C 0.30993 0.4178 0.42038 0.0
C955 C 0.29763 0.43339 0.47395 0.0
C956 C 0.25332 0.46957 0.46096 0.0
H957 H 0.18709 0.53367 0.52325 0.0
H958 H 0.20394 0.4958 0.51249 0.0
H959 H 0.22588 0.48847 0.46383 0.0
H960 H 0.3028 0.4389 0.37524 0.0
H961 H 0.28394 0.46816 0.40601 0.0
H962 H 0.30456 0.48666 0.51408 0.0
C963 C 0.21735 0.51902 0.51805 0.0
C964 C 0.24271 0.48786 0.47566 0.0
C965 C 0.20768 0.54056 0.5244 0.0
C966 C 0.30119 0.43683 0.40276 0.0
C967 C 0.29043 0.4536 0.4204 0.0
C968 C 0.2871 0.48651 0.50339 0.0
C969 C 0.24405 0.52765 0.51727 0.0
C970 C 0.25432 0.50615 0.50413 0.0
C971 C 0.28825 0.45185 0.45614 0.0
C972 C 0.2759 0.46913 0.4742 0.0
H973 H 0.26416 0.60291 0.53702 0.0
H974 H 0.2814 0.56535 0.52504 0.0
H975 H 0.28574 0.51862 0.54023 0.0
H976 H 0.315 0.40183 0.47021 0.0
H977 H 0.29615 0.43158 0.5015 0.0
C978 C 0.64968 0.10524 0.59316 0.0
C979 C 0.66226 0.08592 0.59415 0.0
C980 C 0.66003 0.13223 0.57428 0.0
C981 C 0.70539 0.17336 0.50581 0.0
H982 H 0.71454 0.24525 0.55798 0.0
C983 C 0.77582 0.29545 0.46613 0.0
C984 C 0.76996 0.31967 0.47574 0.0
C985 C 0.75961 0.26563 0.47577 0.0
C986 C 0.71168 0.22548 0.54264 0.0
H987 H 0.69468 0.07852 0.57551 0.0
H988 H 0.71279 0.12578 0.54192 0.0
H989 H 0.69152 0.19511 0.58314 0.0
H990 H 0.74251 0.33232 0.50134 0.0
H991 H 0.71349 0.28017 0.51704 0.0
H992 H 0.72559 0.20377 0.46524 0.0
C993 C 0.69495 0.12008 0.55568 0.0
C994 C 0.69855 0.1967 0.5572 0.0
C995 C 0.68472 0.09321 0.57492 0.0
C996 C 0.74719 0.31376 0.4936 0.0
C997 C 0.73082 0.28397 0.50288 0.0
C998 C 0.71831 0.20221 0.49101 0.0
C999 C 0.683 0.14017 0.55583 0.0
C1000 C 0.69549 0.17038 0.5391 0.0
C1001 C 0.73723 0.25961 0.49507 0.0
C1002 C 0.72185 0.22868 0.50941 0.0
H1003 H 0.63236 0.09999 0.60799 0.0
H1004 H 0.65035 0.14721 0.57463 0.0
H1005 H 0.70313 0.15337 0.49124 0.0
H1006 H 0.79356 0.29979 0.45271 0.0
H1007 H 0.76537 0.24759 0.46962 0.0
C1008 C 0.52163 0.71037 0.13225 0.0
C1009 C 0.53669 0.73466 0.11093 0.0
C1010 C 0.52234 0.71423 0.16761 0.0
C1011 C 0.53802 0.77423 0.23276 0.0
H1012 H 0.53466 0.71011 0.29467 0.0
C1013 C 0.51693 0.77631 0.37655 0.0
C1014 C 0.53076 0.76639 0.39911 0.0
C1015 C 0.51863 0.77287 0.34136 0.0
C1016 C 0.53583 0.72835 0.27773 0.0
H1017 H 0.56506 0.78153 0.10945 0.0
H1018 H 0.56655 0.78836 0.17135 0.0
H1019 H 0.53696 0.70322 0.23332 0.0
H1020 H 0.55778 0.746 0.40301 0.0
H1021 H 0.56091 0.74004 0.3415 0.0
H1022 H 0.53728 0.79955 0.27718 0.0
C1023 C 0.55379 0.76651 0.16082 0.0
C1024 C 0.53686 0.72426 0.24257 0.0
C1025 C 0.55303 0.76261 0.12547 0.0
C1026 C 0.5466 0.75335 0.38603 0.0
C1027 C 0.54834 0.74992 0.35088 0.0
C1028 C 0.537 0.77832 0.26792 0.0
C1029 C 0.5382 0.74247 0.18227 0.0
C1030 C 0.53788 0.74711 0.21969 0.0
C1031 C 0.53429 0.75952 0.32814 0.0
C1032 C 0.5358 0.75539 0.2908 0.0
H1033 H 0.5087 0.68868 0.1215 0.0
H1034 H 0.50987 0.69538 0.18338 0.0
H1035 H 0.53848 0.79213 0.21581 0.0
H1036 H 0.50448 0.78628 0.38617 0.0
H1037 H 0.50732 0.78016 0.32455 0.0
C1038 C 0.70477 0.58966 0.90122 0.0
C1039 C 0.707 0.58532 0.86612 0.0
C1040 C 0.71605 0.57763 0.92515 0.0
C1041 C 0.76738 0.55229 0.93554 0.0
H1042 H 0.72584 0.50192 0.0094 0.0
C1043 C 0.77083 0.45219 0.02243 0.0
C1044 C 0.79679 0.46559 0.0321 0.0
C1045 C 0.75923 0.47014 0.00922 0.0
C1046 C 0.7377 0.51616 0.98908 0.0
H1047 H 0.72287 0.56525 0.82846 0.0
H1048 H 0.74323 0.54496 0.87023 0.0
H1049 H 0.70742 0.52707 0.97047 0.0
H1050 H 0.83029 0.50821 0.03903 0.0
H1051 H 0.81016 0.53972 0.01534 0.0
H1052 H 0.79746 0.54095 0.95352 0.0
C1053 C 0.73271 0.55761 0.87922 0.0
C1054 C 0.72722 0.53061 0.96693 0.0
C1055 C 0.72112 0.56925 0.85534 0.0
C1056 C 0.81034 0.4974 0.03115 0.0
C1057 C 0.79886 0.51535 0.0176 0.0
C1058 C 0.77795 0.53822 0.95792 0.0
C1059 C 0.73014 0.56151 0.91436 0.0
C1060 C 0.74182 0.54831 0.93956 0.0
C1061 C 0.77351 0.50174 0.00526 0.0
C1062 C 0.76309 0.51959 0.98456 0.0
H1063 H 0.69437 0.60244 0.91018 0.0
H1064 H 0.71399 0.58121 0.95207 0.0
H1065 H 0.7791 0.566 0.91481 0.0
H1066 H 0.76006 0.42764 0.02272 0.0
H1067 H 0.73971 0.45901 -0.00022 0.0
C1068 C 0.31133 0.86608 0.10239 0.0
C1069 C 0.30019 0.88521 0.11393 0.0
C1070 C 0.29745 0.84112 0.08161 0.0
C1071 C 0.23148 0.78827 0.05971 0.0
H1072 H 0.26477 0.76607 0.98514 0.0
C1073 C 0.17696 0.67813 0.98462 0.0
C1074 C 0.19035 0.65985 0.98092 0.0
C1075 C 0.19002 0.70875 0.99386 0.0
C1076 C 0.25521 0.77193 0.0059 0.0
H1077 H 0.26603 0.89365 0.11273 0.0
H1078 H 0.24146 0.84967 0.07651 0.0
H1079 H 0.28818 0.81362 0.016 0.0
H1080 H 0.22784 0.65922 0.98186 0.0
H1081 H 0.25078 0.71263 0.99812 0.0
H1082 H 0.19884 0.74624 0.05049 0.0
C1083 C 0.26092 0.85389 0.08366 0.0
C1084 C 0.26862 0.79914 0.0236 0.0
C1085 C 0.2749 0.87898 0.10438 0.0
C1086 C 0.21719 0.67305 0.98425 0.0
C1087 C 0.23027 0.70364 0.99358 0.0
C1088 C 0.2181 0.76105 0.04209 0.0
C1089 C 0.27206 0.83468 0.07204 0.0
C1090 C 0.25707 0.80732 0.05112 0.0
C1091 C 0.21672 0.72156 -0.00033 0.0
C1092 C 0.22995 0.75226 0.01537 0.0
H1093 H 0.33073 0.87024 0.10979 0.0
H1094 H 0.30642 0.82645 0.07365 0.0
H1095 H 0.22213 0.79373 0.08102 0.0
H1096 H 0.15622 0.66829 0.98209 0.0
H1097 H 0.17908 0.72206 0.99771 0.0
C1098 C 0.47356 0.28577 0.6104 0.0
C1099 C 0.45876 0.26235 0.58802 0.0
C1100 C 0.46962 0.28201 0.64563 0.0
C1101 C 0.44475 0.22152 0.7105 0.0
H1102 H 0.45023 0.2877 0.77045 0.0
C1103 C 0.46053 0.21912 0.85562 0.0
C1104 C 0.44765 0.23132 0.87706 0.0
C1105 C 0.45951 0.22179 0.82021 0.0
C1106 C 0.44837 0.26888 0.75404 0.0
H1107 H 0.42749 0.2174 0.58428 0.0
H1108 H 0.4204 0.21076 0.64591 0.0
H1109 H 0.45195 0.29516 0.70874 0.0
H1110 H 0.42289 0.25488 0.87863 0.0
H1111 H 0.42103 0.25961 0.81664 0.0
H1112 H 0.44109 0.19521 0.75575 0.0
C1113 C 0.43537 0.23179 0.63641 0.0
C1114 C 0.44964 0.27327 0.71871 0.0
C1115 C 0.43933 0.23559 0.60122 0.0
C1116 C 0.43326 0.24566 0.86255 0.0
C1117 C 0.43226 0.24839 0.82714 0.0
C1118 C 0.44353 0.21716 0.74582 0.0
C1119 C 0.45077 0.25475 0.65907 0.0
C1120 C 0.44804 0.24971 0.69654 0.0
C1121 C 0.44557 0.23673 0.80557 0.0
C1122 C 0.44556 0.24086 0.768 0.0
H1123 H 0.48875 0.30654 0.6007 0.0
H1124 H 0.48197 0.30001 0.66238 0.0
H1125 H 0.44374 0.20301 0.69416 0.0
H1126 H 0.47198 0.20825 0.86627 0.0
H1127 H 0.47025 0.21291 0.80433 0.0
C1128 C 0.49758 0.62783 0.57341 0.0
C1129 C 0.51163 0.65149 0.55061 0.0
C1130 C 0.49328 0.59774 0.56619 0.0
C1131 C 0.51327 0.54932 0.51055 0.0
H1132 H 0.44067 0.49507 0.51098 0.0
C1133 C 0.46763 0.45171 0.41525 0.0
C1134 C 0.44354 0.42785 0.42241 0.0
C1135 C 0.48005 0.47426 0.43957 0.0
C1136 C 0.46113 0.50937 0.51147 0.0
H1137 H 0.53337 0.66232 0.50327 0.0
H1138 H 0.52584 0.60993 0.49072 0.0
H1139 H 0.45525 0.54438 0.53823 0.0
H1140 H 0.41522 0.40677 0.46222 0.0
H1141 H 0.4372 0.44554 0.50493 0.0
H1142 H 0.51905 0.51457 0.48289 0.0
C1143 C 0.51824 0.61461 0.51425 0.0
C1144 C 0.46949 0.53784 0.52709 0.0
C1145 C 0.52233 0.64462 0.52129 0.0
C1146 C 0.43347 0.42527 0.4556 0.0
C1147 C 0.44601 0.44766 0.48003 0.0
C1148 C 0.50494 0.52065 0.49517 0.0
C1149 C 0.50317 0.59074 0.5362 0.0
C1150 C 0.49548 0.55859 0.52566 0.0
C1151 C 0.46876 0.47331 0.47175 0.0
C1152 C 0.4786 0.50076 0.49422 0.0
H1153 H 0.48918 0.63236 0.59631 0.0
H1154 H 0.48171 0.57982 0.58366 0.0
H1155 H 0.53351 0.56467 0.50961 0.0
H1156 H 0.47607 0.45425 0.39004 0.0
H1157 H 0.49749 0.49357 0.43204 0.0
C1158 C 0.83413 0.43361 0.87412 0.0
C1159 C 0.85164 0.42759 0.89434 0.0
C1160 C 0.83907 0.4404 0.83959 0.0
C1161 C 0.87023 0.42293 0.76815 0.0
H1162 H 0.85207 0.48171 0.72133 0.0
C1163 C 0.86594 0.42956 0.62049 0.0
C1164 C 0.84424 0.43267 0.6078 0.0
C1165 C 0.87154 0.43286 0.65538 0.0
C1166 C 0.85716 0.46515 0.73404 0.0
H1167 H 0.8885 0.42508 0.89479 0.0
H1168 H 0.89698 0.43652 0.83381 0.0
H1169 H 0.85473 0.48254 0.78348 0.0
H1170 H 0.81117 0.44108 0.62178 0.0
H1171 H 0.82066 0.44625 0.68243 0.0
H1172 H 0.87149 0.40461 0.71881 0.0
C1173 C 0.8795 0.43607 0.8449 0.0
C1174 C 0.85882 0.46574 0.76954 0.0
C1175 C 0.87471 0.42969 0.87972 0.0
C1176 C 0.8281 0.43869 0.63068 0.0
C1177 C 0.83368 0.44196 0.66544 0.0
C1178 C 0.86846 0.42224 0.73256 0.0
C1179 C 0.86149 0.441 0.82446 0.0
C1180 C 0.86457 0.44405 0.78698 0.0
C1181 C 0.85557 0.43937 0.67816 0.0
C1182 C 0.86109 0.44272 0.71525 0.0
H1183 H 0.81625 0.4323 0.88479 0.0
H1184 H 0.82471 0.44376 0.82439 0.0
H1185 H 0.87449 0.40577 0.78099 0.0
H1186 H 0.87879 0.42501 0.60344 0.0
H1187 H 0.88858 0.4308 0.66444 0.0
C1188 C 0.52675 0.85169 0.00015 0.0
C1189 C 0.50957 0.83256 0.97575 0.0
C1190 C 0.524 0.87727 0.0124 0.0
C1191 C 0.48957 0.92678 0.99815 0.0
H1192 H 0.49371 0.93398 0.09673 0.0
C1193 C 0.43331 0.97748 0.07905 0.0
C1194 C 0.44399 0.99216 0.1099 0.0
C1195 C 0.44668 0.96542 0.0585 0.0
C1196 C 0.493 0.93284 0.06912 0.0
H1197 H 0.47678 0.82612 0.94389 0.0
H1198 H 0.4716 0.87025 0.9658 0.0
H1199 H 0.50723 0.89861 0.06844 0.0
H1200 H 0.47801 0.00804 0.14185 0.0
H1201 H 0.50139 0.98715 0.10582 0.0
H1202 H 0.47417 0.96019 0.99925 0.0
C1203 C 0.48747 0.86584 0.97514 0.0
C1204 C 0.50078 0.91249 0.05283 0.0
C1205 C 0.49033 0.84036 0.96272 0.0
C1206 C 0.46912 0.99661 0.11841 0.0
C1207 C 0.48248 0.98449 0.09787 0.0
C1208 C 0.48168 0.94711 0.01451 0.0
C1209 C 0.5039 0.8842 0.00071 0.0
C1210 C 0.49864 0.90869 0.01722 0.0
C1211 C 0.47101 0.9678 0.06836 0.0
C1212 C 0.4828 0.94987 0.05026 0.0
H1213 H 0.54196 0.8465 0.01048 0.0
H1214 H 0.5373 0.89123 0.03161 0.0
H1215 H 0.48807 0.92479 0.97063 0.0
H1216 H 0.41407 0.97388 0.07157 0.0
H1217 H 0.43722 0.95258 0.03604 0.0
C1218 C 0.4677 0.36207 0.98595 0.0
C1219 C 0.48465 0.35878 0.00979 0.0
C1220 C 0.47253 0.39065 0.97232 0.0
C1221 C 0.51399 0.47405 0.98031 0.0
H1222 H 0.50867 0.47181 0.88164 0.0
C1223 C 0.57882 0.57056 0.89181 0.0
C1224 C 0.5695 0.57423 0.85975 0.0
C1225 C 0.56305 0.54813 0.91442 0.0
C1226 C 0.50973 0.473 0.90923 0.0
H1227 H 0.51917 0.38322 0.03948 0.0
H1228 H 0.52794 0.43294 0.01514 0.0
H1229 H 0.49084 0.42461 0.91369 0.0
H1230 H 0.53557 0.55926 0.82772 0.0
H1231 H 0.50795 0.52027 0.86738 0.0
H1232 H 0.53404 0.5226 0.97541 0.0
C1233 C 0.51069 0.41354 0.00729 0.0
C1234 C 0.49949 0.44582 0.92769 0.0
C1235 C 0.50576 0.38495 0.02109 0.0
C1236 C 0.54344 0.55679 0.85204 0.0
C1237 C 0.52764 0.53434 0.87469 0.0
C1238 C 0.52431 0.50134 0.96177 0.0
C1239 C 0.49452 0.41659 0.98202 0.0
C1240 C 0.50207 0.44591 0.96337 0.0
C1241 C 0.53758 0.52892 0.90551 0.0
C1242 C 0.52289 0.50102 0.92592 0.0
H1243 H 0.45108 0.34241 0.97699 0.0
H1244 H 0.45942 0.39228 0.9534 0.0
H1245 H 0.51593 0.47495 0.00783 0.0
H1246 H 0.59872 0.58387 0.89874 0.0
H1247 H 0.57139 0.54454 0.93785 0.0
C1248 C 0.11153 0.56304 0.13221 0.0
C1249 C 0.11043 0.53458 0.12238 0.0
C1250 C 0.10976 0.56946 0.16662 0.0
C1251 C 0.12676 0.54985 0.24892 0.0
H1252 H 0.08927 0.5934 0.28637 0.0
C1253 C 0.13609 0.58336 0.39041 0.0
C1254 C 0.13739 0.61226 0.39834 0.0
C1255 C 0.12899 0.57122 0.35778 0.0
C1256 C 0.10006 0.5815 0.27623 0.0
H1257 H 0.10494 0.48988 0.14067 0.0
H1258 H 0.10213 0.50131 0.20072 0.0
H1259 H 0.08263 0.57672 0.22686 0.0
H1260 H 0.13207 0.65104 0.3785 0.0
H1261 H 0.12067 0.63043 0.32115 0.0
H1262 H 0.14516 0.55571 0.29732 0.0
C1263 C 0.1045 0.51863 0.1818 0.0
C1264 C 0.09611 0.57182 0.24225 0.0
C1265 C 0.10602 0.5121 0.14741 0.0
C1266 C 0.13116 0.62865 0.37313 0.0
C1267 C 0.12442 0.61669 0.34032 0.0
C1268 C 0.13096 0.55984 0.28265 0.0
C1269 C 0.10707 0.54763 0.19177 0.0
C1270 C 0.10954 0.55605 0.22829 0.0
C1271 C 0.12343 0.58791 0.33215 0.0
C1272 C 0.1178 0.57597 0.29672 0.0
H1273 H 0.1148 0.58078 0.11348 0.0
H1274 H 0.1119 0.59205 0.17369 0.0
H1275 H 0.13773 0.53822 0.23858 0.0
H1276 H 0.14051 0.57004 0.40946 0.0
H1277 H 0.12792 0.54873 0.35265 0.0
C1278 C 0.53946 0.98037 0.57651 0.0
C1279 C 0.53191 0.97756 0.61096 0.0
C1280 C 0.53071 0.99596 0.55345 0.0
C1281 C 0.5308 0.05329 0.52336 0.0
H1282 H 0.46846 0.06514 0.53451 0.0
C1283 C 0.52868 0.16827 0.49591 0.0
C1284 C 0.50614 0.1695 0.48366 0.0
C1285 C 0.52891 0.14045 0.50478 0.0
C1286 C 0.48583 0.06189 0.5305 0.0
H1287 H 0.50705 0.98595 0.6473 0.0
H1288 H 0.49244 0.01365 0.60772 0.0
H1289 H 0.47123 0.02063 0.5597 0.0
H1290 H 0.46622 0.14232 0.47043 0.0
H1291 H 0.46673 0.09354 0.48536 0.0
H1292 H 0.54535 0.09437 0.49403 0.0
C1293 C 0.50489 0.00372 0.59809 0.0
C1294 C 0.48753 0.03648 0.54533 0.0
C1295 C 0.51338 0.98783 0.62099 0.0
C1296 C 0.48389 0.14215 0.47993 0.0
C1297 C 0.48416 0.1142 0.48863 0.0
C1298 C 0.52899 0.07845 0.50826 0.0
C1299 C 0.51443 0.00933 0.56446 0.0
C1300 C 0.5104 0.03245 0.54304 0.0
C1301 C 0.50665 0.11302 0.50137 0.0
C1302 C 0.50687 0.08373 0.51273 0.0
H1303 H 0.55338 0.97221 0.56784 0.0
H1304 H 0.53783 0.99897 0.52747 0.0
H1305 H 0.54884 0.05128 0.52114 0.0
H1306 H 0.54614 0.18889 0.49928 0.0
H1307 H 0.54645 0.14062 0.5152 0.0
loop_
_geom_bond_atom_site_label_1
_geom_bond_atom_site_label_2
_geom_bond_distance
_geom_bond_site_symmetry_2
_ccdc_geom_bond_type
Co0 O3 1.970 . S
Co0 N17 1.989 . S
Co0 O25 1.967 . S
Co0 O32 1.920 . S
Co1 O4 1.966 . S
Co1 N10 2.022 . S
Co1 N18 1.993 . S
Co1 O26 1.941 . S
C2 O3 1.258 . S
C2 O4 1.263 . S
O3 Co0 1.970 . S
O3 C2 1.258 . S
O4 Co1 1.966 . S
O4 C2 1.263 . S
C5 O6 1.235 . S
C5 O32 1.289 . S
O6 C5 1.235 . S
C7 C9 1.400 . S
C7 N10 1.351 . S
C7 C12 1.501 . S
C8 C9 1.387 . S
C8 N11 1.341 . S
C9 C7 1.400 . S
C9 C8 1.387 . S
N10 Co1 2.022 . S
N10 C7 1.351 . S
N10 N11 1.365 . S
N11 C8 1.341 . S
N11 N10 1.365 . S
N11 H31 0.862 . S
C12 C7 1.501 . S
C12 H13 0.961 . S
C12 H14 0.961 . S
C12 H15 0.960 . S
H13 C12 0.961 . S
H14 C12 0.961 . S
H15 C12 0.960 . S
C16 N17 1.342 . S
C16 C20 1.401 . S
C16 C21 1.499 . S
N17 Co0 1.989 . S
N17 C16 1.342 . S
N17 N18 1.388 . S
N18 Co1 1.993 . S
N18 N17 1.388 . S
N18 C19 1.346 . S
C19 N18 1.346 . S
C19 C20 1.396 . S
C19 C29 1.510 . S
C20 C16 1.401 . S
C20 C19 1.396 . S
C21 C16 1.499 . S
C21 H22 0.959 . S
C21 H23 0.960 . S
C21 H24 0.961 . S
H22 C21 0.959 . S
H23 C21 0.960 . S
H24 C21 0.961 . S
O25 Co0 1.967 . S
O25 C33 1.258 . S
O26 Co1 1.941 . S
O26 C33 1.266 . S
H27 C29 0.959 . S
H28 C29 0.961 . S
C29 C19 1.510 . S
C29 H27 0.959 . S
C29 H28 0.961 . S
C29 H30 0.960 . S
H30 C29 0.960 . S
H31 N11 0.862 . S
O32 Co0 1.920 . S
O32 C5 1.289 . S
C33 O25 1.258 . S
C33 O26 1.266 . S
Co34 O37 1.970 . S
Co34 N51 1.989 . S
Co34 O59 1.967 . S
Co34 O66 1.920 . S
Co35 O38 1.966 . S
Co35 N44 2.022 . S
Co35 N52 1.993 . S
Co35 O60 1.941 . S
C36 O37 1.258 . S
C36 O38 1.263 . S
O37 Co34 1.970 . S
O37 C36 1.258 . S
O38 Co35 1.966 . S
O38 C36 1.263 . S
C39 O40 1.235 . S
C39 O66 1.289 . S
O40 C39 1.235 . S
C41 C43 1.400 . S
C41 N44 1.351 . S
C41 C46 1.501 . S
C42 C43 1.387 . S
C42 N45 1.341 . S
C43 C41 1.400 . S
C43 C42 1.387 . S
N44 Co35 2.022 . S
N44 C41 1.351 . S
N44 N45 1.365 . S
N45 C42 1.341 . S
N45 N44 1.365 . S
N45 H65 0.862 . S
C46 C41 1.501 . S
C46 H47 0.961 . S
C46 H48 0.961 . S
C46 H49 0.960 . S
H47 C46 0.961 . S
H48 C46 0.961 . S
H49 C46 0.960 . S
C50 N51 1.342 . S
C50 C54 1.401 . S
C50 C55 1.499 . S
N51 Co34 1.989 . S
N51 C50 1.342 . S
N51 N52 1.388 . S
N52 Co35 1.993 . S
N52 N51 1.388 . S
N52 C53 1.346 . S
C53 N52 1.346 . S
C53 C54 1.396 . S
C53 C63 1.510 . S
C54 C50 1.401 . S
C54 C53 1.396 . S
C55 C50 1.499 . S
C55 H56 0.959 . S
C55 H57 0.960 . S
C55 H58 0.961 . S
H56 C55 0.959 . S
H57 C55 0.960 . S
H58 C55 0.961 . S
O59 Co34 1.967 . S
O59 C67 1.258 . S
O60 Co35 1.941 . S
O60 C67 1.266 . S
H61 C63 0.959 . S
H62 C63 0.961 . S
C63 C53 1.510 . S
C63 H61 0.959 . S
C63 H62 0.961 . S
C63 H64 0.960 . S
H64 C63 0.960 . S
H65 N45 0.862 . S
O66 Co34 1.920 . S
O66 C39 1.289 . S
C67 O59 1.258 . S
C67 O60 1.266 . S
Co68 O71 1.970 1_554 S
Co68 N85 1.989 . S
Co68 O93 1.967 1_554 S
Co68 O100 1.920 . S
Co69 O72 1.966 . S
Co69 N78 2.022 . S
Co69 N86 1.993 1_556 S
Co69 O94 1.941 . S
C70 O71 1.258 . S
C70 O72 1.263 . S
O71 Co68 1.970 1_556 S
O71 C70 1.258 . S
O72 Co69 1.966 . S
O72 C70 1.263 . S
C73 O74 1.235 . S
C73 O100 1.289 . S
O74 C73 1.235 . S
C75 C77 1.400 1_556 S
C75 N78 1.351 . S
C75 C80 1.501 . S
C76 C77 1.387 . S
C76 N79 1.341 1_554 S
C77 C75 1.400 1_554 S
C77 C76 1.387 . S
N78 Co69 2.022 . S
N78 C75 1.351 . S
N78 N79 1.365 . S
N79 C76 1.341 1_556 S
N79 N78 1.365 . S
N79 H99 0.862 . S
C80 C75 1.501 . S
C80 H81 0.961 . S
C80 H82 0.961 1_556 S
C80 H83 0.960 . S
H81 C80 0.961 . S
H82 C80 0.961 1_554 S
H83 C80 0.960 . S
C84 N85 1.342 . S
C84 C88 1.401 . S
C84 C89 1.499 . S
N85 Co68 1.989 . S
N85 C84 1.342 . S
N85 N86 1.388 . S
N86 Co69 1.993 1_554 S
N86 N85 1.388 . S
N86 C87 1.346 . S
C87 N86 1.346 . S
C87 C88 1.396 . S
C87 C97 1.510 . S
C88 C84 1.401 . S
C88 C87 1.396 . S
C89 C84 1.499 . S
C89 H90 0.959 . S
C89 H91 0.960 . S
C89 H92 0.961 . S
H90 C89 0.959 . S
H91 C89 0.960 . S
H92 C89 0.961 . S
O93 Co68 1.967 1_556 S
O93 C101 1.258 . S
O94 Co69 1.941 . S
O94 C101 1.266 . S
H95 C97 0.959 . S
H96 C97 0.961 . S
C97 C87 1.510 . S
C97 H95 0.959 . S
C97 H96 0.961 . S
C97 H98 0.960 . S
H98 C97 0.960 . S
H99 N79 0.862 . S
O100 Co68 1.920 . S
O100 C73 1.289 . S
C101 O93 1.258 . S
C101 O94 1.266 . S
Co102 O105 1.970 . S
Co102 N119 1.989 . S
Co102 O127 1.967 . S
Co102 O134 1.920 . S
Co103 O106 1.966 . S
Co103 N112 2.022 . S
Co103 N120 1.993 . S
Co103 O128 1.941 . S
C104 O105 1.258 . S
C104 O106 1.263 . S
O105 Co102 1.970 . S
O105 C104 1.258 . S
O106 Co103 1.966 . S
O106 C104 1.263 . S
C107 O108 1.235 . S
C107 O134 1.289 . S
O108 C107 1.235 . S
C109 C111 1.400 . S
C109 N112 1.351 . S
C109 C114 1.501 . S
C110 C111 1.387 . S
C110 N113 1.341 . S
C111 C109 1.400 . S
C111 C110 1.387 . S
N112 Co103 2.022 . S
N112 C109 1.351 . S
N112 N113 1.365 . S
N113 C110 1.341 . S
N113 N112 1.365 . S
N113 H133 0.862 . S
C114 C109 1.501 . S
C114 H115 0.961 . S
C114 H116 0.961 . S
C114 H117 0.960 . S
H115 C114 0.961 . S
H116 C114 0.961 . S
H117 C114 0.960 . S
C118 N119 1.342 . S
C118 C122 1.401 . S
C118 C123 1.499 . S
N119 Co102 1.989 . S
N119 C118 1.342 . S
N119 N120 1.388 . S
N120 Co103 1.993 . S
N120 N119 1.388 . S
N120 C121 1.346 . S
C121 N120 1.346 . S
C121 C122 1.396 . S
C121 C131 1.510 . S
C122 C118 1.401 . S
C122 C121 1.396 . S
C123 C118 1.499 . S
C123 H124 0.959 . S
C123 H125 0.960 . S
C123 H126 0.961 . S
H124 C123 0.959 . S
H125 C123 0.960 . S
H126 C123 0.961 . S
O127 Co102 1.967 . S
O127 C135 1.258 . S
O128 Co103 1.941 . S
O128 C135 1.266 . S
H129 C131 0.959 . S
H130 C131 0.961 . S
C131 C121 1.510 . S
C131 H129 0.959 . S
C131 H130 0.961 . S
C131 H132 0.960 . S
H132 C131 0.960 . S
H133 N113 0.862 . S
O134 Co102 1.920 . S
O134 C107 1.289 . S
C135 O127 1.258 . S
C135 O128 1.266 . S
Co136 O139 1.970 . S
Co136 N153 1.989 . S
Co136 O161 1.967 1_554 S
Co136 O168 1.920 . S
Co137 O140 1.966 . S
Co137 N146 2.022 . S
Co137 N154 1.993 . S
Co137 O162 1.941 . S
C138 O139 1.258 . S
C138 O140 1.263 1_554 S
O139 Co136 1.970 . S
O139 C138 1.258 . S
O140 Co137 1.966 . S
O140 C138 1.263 1_556 S
C141 O142 1.235 . S
C141 O168 1.289 . S
O142 C141 1.235 . S
C143 C145 1.400 . S
C143 N146 1.351 . S
C143 C148 1.501 . S
C144 C145 1.387 . S
C144 N147 1.341 . S
C145 C143 1.400 . S
C145 C144 1.387 . S
N146 Co137 2.022 . S
N146 C143 1.351 . S
N146 N147 1.365 . S
N147 C144 1.341 . S
N147 N146 1.365 . S
N147 H167 0.862 . S
C148 C143 1.501 . S
C148 H149 0.961 . S
C148 H150 0.961 . S
C148 H151 0.960 . S
H149 C148 0.961 . S
H150 C148 0.961 . S
H151 C148 0.960 . S
C152 N153 1.342 . S
C152 C156 1.401 . S
C152 C157 1.499 . S
N153 Co136 1.989 . S
N153 C152 1.342 . S
N153 N154 1.388 1_554 S
N154 Co137 1.993 . S
N154 N153 1.388 1_556 S
N154 C155 1.346 . S
C155 N154 1.346 . S
C155 C156 1.396 1_556 S
C155 C165 1.510 . S
C156 C152 1.401 . S
C156 C155 1.396 1_554 S
C157 C152 1.499 . S
C157 H158 0.959 . S
C157 H159 0.960 . S
C157 H160 0.961 . S
H158 C157 0.959 . S
H159 C157 0.960 . S
H160 C157 0.961 . S
O161 Co136 1.967 1_556 S
O161 C169 1.258 . S
O162 Co137 1.941 . S
O162 C169 1.266 . S
H163 C165 0.959 . S
H164 C165 0.961 . S
C165 C155 1.510 . S
C165 H163 0.959 . S
C165 H164 0.961 . S
C165 H166 0.960 . S
H166 C165 0.960 . S
H167 N147 0.862 . S
O168 Co136 1.920 . S
O168 C141 1.289 . S
C169 O161 1.258 . S
C169 O162 1.266 . S
Co170 O173 1.970 . S
Co170 N187 1.989 . S
Co170 O195 1.967 . S
Co170 O202 1.920 . S
Co171 O174 1.966 . S
Co171 N180 2.022 . S
Co171 N188 1.993 . S
Co171 O196 1.941 . S
C172 O173 1.258 . S
C172 O174 1.263 . S
O173 Co170 1.970 . S
O173 C172 1.258 . S
O174 Co171 1.966 . S
O174 C172 1.263 . S
C175 O176 1.235 . S
C175 O202 1.289 . S
O176 C175 1.235 . S
C177 C179 1.400 . S
C177 N180 1.351 . S
C177 C182 1.501 . S
C178 C179 1.387 . S
C178 N181 1.341 . S
C179 C177 1.400 . S
C179 C178 1.387 . S
N180 Co171 2.022 . S
N180 C177 1.351 . S
N180 N181 1.365 . S
N181 C178 1.341 . S
N181 N180 1.365 . S
N181 H201 0.862 . S
C182 C177 1.501 . S
C182 H183 0.961 . S
C182 H184 0.961 . S
C182 H185 0.960 . S
H183 C182 0.961 . S
H184 C182 0.961 . S
H185 C182 0.960 . S
C186 N187 1.342 . S
C186 C190 1.401 . S
C186 C191 1.499 . S
N187 Co170 1.989 . S
N187 C186 1.342 . S
N187 N188 1.388 . S
N188 Co171 1.993 . S
N188 N187 1.388 . S
N188 C189 1.346 . S
C189 N188 1.346 . S
C189 C190 1.396 . S
C189 C199 1.510 . S
C190 C186 1.401 . S
C190 C189 1.396 . S
C191 C186 1.499 . S
C191 H192 0.959 . S
C191 H193 0.960 . S
C191 H194 0.961 . S
H192 C191 0.959 . S
H193 C191 0.960 . S
H194 C191 0.961 . S
O195 Co170 1.967 . S
O195 C203 1.258 . S
O196 Co171 1.941 . S
O196 C203 1.266 . S
H197 C199 0.959 . S
H198 C199 0.961 . S
C199 C189 1.510 . S
C199 H197 0.959 . S
C199 H198 0.961 . S
C199 H200 0.960 . S
H200 C199 0.960 . S
H201 N181 0.862 . S
O202 Co170 1.920 . S
O202 C175 1.289 . S
C203 O195 1.258 . S
C203 O196 1.266 . S
Co204 O207 1.970 . S
Co204 N221 1.989 . S
Co204 O229 1.967 . S
Co204 O236 1.920 . S
Co205 O208 1.966 . S
Co205 N214 2.022 . S
Co205 N222 1.993 . S
Co205 O230 1.941 . S
C206 O207 1.258 . S
C206 O208 1.263 . S
O207 Co204 1.970 . S
O207 C206 1.258 . S
O208 Co205 1.966 . S
O208 C206 1.263 . S
C209 O210 1.235 . S
C209 O236 1.289 . S
O210 C209 1.235 . S
C211 C213 1.400 . S
C211 N214 1.351 . S
C211 C216 1.501 . S
C212 C213 1.387 . S
C212 N215 1.341 . S
C213 C211 1.400 . S
C213 C212 1.387 . S
N214 Co205 2.022 . S
N214 C211 1.351 . S
N214 N215 1.365 . S
N215 C212 1.341 . S
N215 N214 1.365 . S
N215 H235 0.862 . S
C216 C211 1.501 . S
C216 H217 0.961 . S
C216 H218 0.961 . S
C216 H219 0.960 . S
H217 C216 0.961 . S
H218 C216 0.961 . S
H219 C216 0.960 . S
C220 N221 1.342 . S
C220 C224 1.401 . S
C220 C225 1.499 . S
N221 Co204 1.989 . S
N221 C220 1.342 . S
N221 N222 1.388 . S
N222 Co205 1.993 . S
N222 N221 1.388 . S
N222 C223 1.346 . S
C223 N222 1.346 . S
C223 C224 1.396 . S
C223 C233 1.510 . S
C224 C220 1.401 . S
C224 C223 1.396 . S
C225 C220 1.499 . S
C225 H226 0.959 . S
C225 H227 0.960 . S
C225 H228 0.961 . S
H226 C225 0.959 . S
H227 C225 0.960 . S
H228 C225 0.961 . S
O229 Co204 1.967 . S
O229 C237 1.258 . S
O230 Co205 1.941 . S
O230 C237 1.266 . S
H231 C233 0.959 . S
H232 C233 0.961 . S
C233 C223 1.510 . S
C233 H231 0.959 . S
C233 H232 0.961 . S
C233 H234 0.960 . S
H234 C233 0.960 . S
H235 N215 0.862 . S
O236 Co204 1.920 . S
O236 C209 1.289 . S
C237 O229 1.258 . S
C237 O230 1.266 . S
Co238 O241 1.970 . S
Co238 N255 1.989 . S
Co238 O263 1.967 1_556 S
Co238 O270 1.920 . S
Co239 O242 1.966 . S
Co239 N248 2.022 . S
Co239 N256 1.993 . S
Co239 O264 1.941 . S
C240 O241 1.258 . S
C240 O242 1.263 1_556 S
O241 Co238 1.970 . S
O241 C240 1.258 . S
O242 Co239 1.966 . S
O242 C240 1.263 1_554 S
C243 O244 1.235 . S
C243 O270 1.289 . S
O244 C243 1.235 . S
C245 C247 1.400 . S
C245 N248 1.351 . S
C245 C250 1.501 . S
C246 C247 1.387 . S
C246 N249 1.341 . S
C247 C245 1.400 . S
C247 C246 1.387 . S
N248 Co239 2.022 . S
N248 C245 1.351 . S
N248 N249 1.365 . S
N249 C246 1.341 . S
N249 N248 1.365 . S
N249 H269 0.862 . S
C250 C245 1.501 . S
C250 H251 0.961 . S
C250 H252 0.961 . S
C250 H253 0.960 . S
H251 C250 0.961 . S
H252 C250 0.961 . S
H253 C250 0.960 . S
C254 N255 1.342 . S
C254 C258 1.401 . S
C254 C259 1.499 . S
N255 Co238 1.989 . S
N255 C254 1.342 . S
N255 N256 1.388 1_556 S
N256 Co239 1.993 . S
N256 N255 1.388 1_554 S
N256 C257 1.346 . S
C257 N256 1.346 . S
C257 C258 1.396 1_554 S
C257 C267 1.510 . S
C258 C254 1.401 . S
C258 C257 1.396 1_556 S
C259 C254 1.499 . S
C259 H260 0.959 . S
C259 H261 0.960 . S
C259 H262 0.961 . S
H260 C259 0.959 . S
H261 C259 0.960 . S
H262 C259 0.961 . S
O263 Co238 1.967 1_554 S
O263 C271 1.258 . S
O264 Co239 1.941 . S
O264 C271 1.266 . S
H265 C267 0.959 . S
H266 C267 0.961 . S
C267 C257 1.510 . S
C267 H265 0.959 . S
C267 H266 0.961 . S
C267 H268 0.960 . S
H268 C267 0.960 . S
H269 N249 0.862 . S
O270 Co238 1.920 . S
O270 C243 1.289 . S
C271 O263 1.258 . S
C271 O264 1.266 . S
Co272 O275 1.970 . S
Co272 N289 1.989 . S
Co272 O297 1.967 1_565 S
Co272 O304 1.920 . S
Co273 O276 1.966 . S
Co273 N282 2.022 . S
Co273 N290 1.993 . S
Co273 O298 1.941 . S
C274 O275 1.258 . S
C274 O276 1.263 . S
O275 Co272 1.970 . S
O275 C274 1.258 . S
O276 Co273 1.966 . S
O276 C274 1.263 . S
C277 O278 1.235 . S
C277 O304 1.289 . S
O278 C277 1.235 . S
C279 C281 1.400 . S
C279 N282 1.351 . S
C279 C284 1.501 . S
C280 C281 1.387 . S
C280 N283 1.341 . S
C281 C279 1.400 . S
C281 C280 1.387 . S
N282 Co273 2.022 . S
N282 C279 1.351 . S
N282 N283 1.365 . S
N283 C280 1.341 . S
N283 N282 1.365 . S
N283 H303 0.862 . S
C284 C279 1.501 . S
C284 H285 0.961 . S
C284 H286 0.961 . S
C284 H287 0.960 . S
H285 C284 0.961 . S
H286 C284 0.961 . S
H287 C284 0.960 . S
C288 N289 1.342 . S
C288 C292 1.401 . S
C288 C293 1.499 . S
N289 Co272 1.989 . S
N289 C288 1.342 . S
N289 N290 1.388 . S
N290 Co273 1.993 . S
N290 N289 1.388 . S
N290 C291 1.346 . S
C291 N290 1.346 . S
C291 C292 1.396 . S
C291 C301 1.510 . S
C292 C288 1.401 . S
C292 C291 1.396 . S
C293 C288 1.499 . S
C293 H294 0.959 . S
C293 H295 0.960 . S
C293 H296 0.961 . S
H294 C293 0.959 . S
H295 C293 0.960 . S
H296 C293 0.961 . S
O297 Co272 1.967 1_545 S
O297 C305 1.258 . S
O298 Co273 1.941 . S
O298 C305 1.266 1_565 S
H299 C301 0.959 . S
H300 C301 0.961 . S
C301 C291 1.510 . S
C301 H299 0.959 . S
C301 H300 0.961 . S
C301 H302 0.960 . S
H302 C301 0.960 . S
H303 N283 0.862 . S
O304 Co272 1.920 . S
O304 C277 1.289 . S
C305 O297 1.258 . S
C305 O298 1.266 1_545 S
Co306 O309 1.970 1_556 S
Co306 N323 1.989 . S
Co306 O331 1.967 1_556 S
Co306 O338 1.920 . S
Co307 O310 1.966 . S
Co307 N316 2.022 . S
Co307 N324 1.993 1_554 S
Co307 O332 1.941 . S
C308 O309 1.258 . S
C308 O310 1.263 . S
O309 Co306 1.970 1_554 S
O309 C308 1.258 . S
O310 Co307 1.966 . S
O310 C308 1.263 . S
C311 O312 1.235 . S
C311 O338 1.289 . S
O312 C311 1.235 . S
C313 C315 1.400 1_554 S
C313 N316 1.351 . S
C313 C318 1.501 . S
C314 C315 1.387 . S
C314 N317 1.341 1_556 S
C315 C313 1.400 1_556 S
C315 C314 1.387 . S
N316 Co307 2.022 . S
N316 C313 1.351 . S
N316 N317 1.365 . S
N317 C314 1.341 1_554 S
N317 N316 1.365 . S
N317 H337 0.862 . S
C318 C313 1.501 . S
C318 H319 0.961 . S
C318 H320 0.961 1_554 S
C318 H321 0.960 . S
H319 C318 0.961 . S
H320 C318 0.961 1_556 S
H321 C318 0.960 . S
C322 N323 1.342 . S
C322 C326 1.401 . S
C322 C327 1.499 . S
N323 Co306 1.989 . S
N323 C322 1.342 . S
N323 N324 1.388 . S
N324 Co307 1.993 1_556 S
N324 N323 1.388 . S
N324 C325 1.346 . S
C325 N324 1.346 . S
C325 C326 1.396 . S
C325 C335 1.510 . S
C326 C322 1.401 . S
C326 C325 1.396 . S
C327 C322 1.499 . S
C327 H328 0.959 . S
C327 H329 0.960 . S
C327 H330 0.961 . S
H328 C327 0.959 . S
H329 C327 0.960 . S
H330 C327 0.961 . S
O331 Co306 1.967 1_554 S
O331 C339 1.258 . S
O332 Co307 1.941 . S
O332 C339 1.266 . S
H333 C335 0.959 . S
H334 C335 0.961 . S
C335 C325 1.510 . S
C335 H333 0.959 . S
C335 H334 0.961 . S
C335 H336 0.960 . S
H336 C335 0.960 . S
H337 N317 0.862 . S
O338 Co306 1.920 . S
O338 C311 1.289 . S
C339 O331 1.258 . S
C339 O332 1.266 . S
Co340 O343 1.970 . S
Co340 N357 1.989 . S
Co340 O365 1.967 . S
Co340 O372 1.920 . S
Co341 O344 1.966 . S
Co341 N350 2.022 . S
Co341 N358 1.993 . S
Co341 O366 1.941 . S
C342 O343 1.258 . S
C342 O344 1.263 . S
O343 Co340 1.970 . S
O343 C342 1.258 . S
O344 Co341 1.966 . S
O344 C342 1.263 . S
C345 O346 1.235 . S
C345 O372 1.289 . S
O346 C345 1.235 . S
C347 C349 1.400 . S
C347 N350 1.351 . S
C347 C352 1.501 . S
C348 C349 1.387 . S
C348 N351 1.341 . S
C349 C347 1.400 . S
C349 C348 1.387 . S
N350 Co341 2.022 . S
N350 C347 1.351 . S
N350 N351 1.365 . S
N351 C348 1.341 . S
N351 N350 1.365 . S
N351 H371 0.862 . S
C352 C347 1.501 . S
C352 H353 0.961 . S
C352 H354 0.961 . S
C352 H355 0.960 . S
H353 C352 0.961 . S
H354 C352 0.961 . S
H355 C352 0.960 . S
C356 N357 1.342 . S
C356 C360 1.401 . S
C356 C361 1.499 . S
N357 Co340 1.989 . S
N357 C356 1.342 . S
N357 N358 1.388 . S
N358 Co341 1.993 . S
N358 N357 1.388 . S
N358 C359 1.346 . S
C359 N358 1.346 . S
C359 C360 1.396 . S
C359 C369 1.510 . S
C360 C356 1.401 . S
C360 C359 1.396 . S
C361 C356 1.499 . S
C361 H362 0.959 . S
C361 H363 0.960 . S
C361 H364 0.961 . S
H362 C361 0.959 . S
H363 C361 0.960 . S
H364 C361 0.961 . S
O365 Co340 1.967 . S
O365 C373 1.258 . S
O366 Co341 1.941 . S
O366 C373 1.266 . S
H367 C369 0.959 . S
H368 C369 0.961 . S
C369 C359 1.510 . S
C369 H367 0.959 . S
C369 H368 0.961 . S
C369 H370 0.960 . S
H370 C369 0.960 . S
H371 N351 0.862 . S
O372 Co340 1.920 . S
O372 C345 1.289 . S
C373 O365 1.258 . S
C373 O366 1.266 . S
Co374 O377 1.970 . S
Co374 N391 1.989 . S
Co374 O399 1.967 1_545 S
Co374 O406 1.920 . S
Co375 O378 1.966 . S
Co375 N384 2.022 . S
Co375 N392 1.993 . S
Co375 O400 1.941 1_545 S
C376 O377 1.258 . S
C376 O378 1.263 . S
O377 Co374 1.970 . S
O377 C376 1.258 . S
O378 Co375 1.966 . S
O378 C376 1.263 . S
C379 O380 1.235 . S
C379 O406 1.289 . S
O380 C379 1.235 . S
C381 C383 1.400 . S
C381 N384 1.351 . S
C381 C386 1.501 . S
C382 C383 1.387 . S
C382 N385 1.341 . S
C383 C381 1.400 . S
C383 C382 1.387 . S
N384 Co375 2.022 . S
N384 C381 1.351 . S
N384 N385 1.365 . S
N385 C382 1.341 . S
N385 N384 1.365 . S
N385 H405 0.862 . S
C386 C381 1.501 . S
C386 H387 0.961 . S
C386 H388 0.961 . S
C386 H389 0.960 . S
H387 C386 0.961 . S
H388 C386 0.961 . S
H389 C386 0.960 . S
C390 N391 1.342 . S
C390 C394 1.401 . S
C390 C395 1.499 . S
N391 Co374 1.989 . S
N391 C390 1.342 . S
N391 N392 1.388 . S
N392 Co375 1.993 . S
N392 N391 1.388 . S
N392 C393 1.346 . S
C393 N392 1.346 . S
C393 C394 1.396 . S
C393 C403 1.510 . S
C394 C390 1.401 . S
C394 C393 1.396 . S
C395 C390 1.499 . S
C395 H396 0.959 . S
C395 H397 0.960 . S
C395 H398 0.961 . S
H396 C395 0.959 . S
H397 C395 0.960 . S
H398 C395 0.961 . S
O399 Co374 1.967 1_565 S
O399 C407 1.258 . S
O400 Co375 1.941 1_565 S
O400 C407 1.266 . S
H401 C403 0.959 . S
H402 C403 0.961 . S
C403 C393 1.510 . S
C403 H401 0.959 . S
C403 H402 0.961 . S
C403 H404 0.960 . S
H404 C403 0.960 . S
H405 N385 0.862 . S
O406 Co374 1.920 . S
O406 C379 1.289 . S
C407 O399 1.258 . S
C407 O400 1.266 . S
C408 C409 1.349 . S
C408 C410 1.327 . S
C408 H433 0.950 . S
C409 C408 1.349 . S
C409 C425 1.349 . S
C410 C408 1.327 . S
C410 C429 1.429 . S
C410 H434 0.950 . S
C411 C428 1.574 . S
C411 C430 1.368 . S
C411 H435 0.949 . S
H412 C416 0.949 . S
C413 C414 1.349 . S
C413 C415 1.327 . S
C413 H436 0.950 . S
C414 C413 1.349 . S
C414 C426 1.349 . S
C415 C413 1.327 . S
C415 C431 1.429 . S
C415 H437 0.950 . S
C416 H412 0.949 . S
C416 C424 1.574 . S
C416 C432 1.368 . S
H417 C425 0.950 . S
H418 C423 0.950 . S
H419 C424 0.949 . S
H420 C426 0.950 . S
H421 C427 0.950 . S
H422 C428 0.949 . S
C423 H418 0.950 . S
C423 C425 1.327 . S
C423 C429 1.429 . S
C424 C416 1.574 . S
C424 H419 0.949 . S
C424 C430 1.368 . S
C425 C409 1.349 . S
C425 H417 0.950 . S
C425 C423 1.327 . S
C426 C414 1.349 . S
C426 H420 0.950 . S
C426 C427 1.327 . S
C427 H421 0.950 . S
C427 C426 1.327 . S
C427 C431 1.429 . S
C428 C411 1.574 . S
C428 H422 0.949 . S
C428 C432 1.368 . S
C429 C410 1.429 . S
C429 C423 1.429 . S
C429 C430 1.523 . S
C430 C411 1.368 . S
C430 C424 1.368 . S
C430 C429 1.523 . S
C431 C415 1.429 . S
C431 C427 1.429 . S
C431 C432 1.523 . S
C432 C416 1.368 . S
C432 C428 1.368 . S
C432 C431 1.523 . S
H433 C408 0.950 . S
H434 C410 0.950 . S
H435 C411 0.949 . S
H436 C413 0.950 . S
H437 C415 0.950 . S
C438 C439 1.349 . S
C438 C440 1.327 . S
C438 H463 0.950 . S
C439 C438 1.349 . S
C439 C455 1.349 . S
C440 C438 1.327 . S
C440 C459 1.429 . S
C440 H464 0.950 . S
C441 C458 1.574 1_655 S
C441 C460 1.368 . S
C441 H465 0.949 . S
H442 C446 0.949 . S
C443 C444 1.349 . S
C443 C445 1.327 . S
C443 H466 0.950 . S
C444 C443 1.349 . S
C444 C456 1.349 . S
C445 C443 1.327 . S
C445 C461 1.429 . S
C445 H467 0.950 . S
C446 H442 0.949 . S
C446 C454 1.574 1_455 S
C446 C462 1.368 . S
H447 C455 0.950 . S
H448 C453 0.950 . S
H449 C454 0.949 . S
H450 C456 0.950 . S
H451 C457 0.950 . S
H452 C458 0.949 . S
C453 H448 0.950 . S
C453 C455 1.327 . S
C453 C459 1.429 . S
C454 C446 1.574 1_655 S
C454 H449 0.949 . S
C454 C460 1.368 . S
C455 C439 1.349 . S
C455 H447 0.950 . S
C455 C453 1.327 . S
C456 C444 1.349 . S
C456 H450 0.950 . S
C456 C457 1.327 . S
C457 H451 0.950 . S
C457 C456 1.327 . S
C457 C461 1.429 . S
C458 C441 1.574 1_455 S
C458 H452 0.949 . S
C458 C462 1.368 . S
C459 C440 1.429 . S
C459 C453 1.429 . S
C459 C460 1.523 . S
C460 C441 1.368 . S
C460 C454 1.368 . S
C460 C459 1.523 . S
C461 C445 1.429 . S
C461 C457 1.429 . S
C461 C462 1.523 . S
C462 C446 1.368 . S
C462 C458 1.368 . S
C462 C461 1.523 . S
H463 C438 0.950 . S
H464 C440 0.950 . S
H465 C441 0.949 . S
H466 C443 0.950 . S
H467 C445 0.950 . S
C468 C469 1.349 . S
C468 C470 1.327 . S
C468 H493 0.950 . S
C469 C468 1.349 . S
C469 C485 1.349 . S
C470 C468 1.327 . S
C470 C489 1.429 . S
C470 H494 0.950 . S
C471 C488 1.574 . S
C471 C490 1.368 . S
C471 H495 0.949 . S
H472 C476 0.949 . S
C473 C474 1.349 . S
C473 C475 1.327 . S
C473 H496 0.950 . S
C474 C473 1.349 . S
C474 C486 1.349 . S
C475 C473 1.327 . S
C475 C491 1.429 . S
C475 H497 0.950 . S
C476 H472 0.949 . S
C476 C484 1.574 . S
C476 C492 1.368 . S
H477 C485 0.950 . S
H478 C483 0.950 . S
H479 C484 0.949 . S
H480 C486 0.950 . S
H481 C487 0.950 . S
H482 C488 0.949 . S
C483 H478 0.950 . S
C483 C485 1.327 . S
C483 C489 1.429 . S
C484 C476 1.574 . S
C484 H479 0.949 . S
C484 C490 1.368 . S
C485 C469 1.349 . S
C485 H477 0.950 . S
C485 C483 1.327 . S
C486 C474 1.349 . S
C486 H480 0.950 . S
C486 C487 1.327 . S
C487 H481 0.950 . S
C487 C486 1.327 . S
C487 C491 1.429 . S
C488 C471 1.574 . S
C488 H482 0.949 . S
C488 C492 1.368 . S
C489 C470 1.429 . S
C489 C483 1.429 . S
C489 C490 1.523 . S
C490 C471 1.368 . S
C490 C484 1.368 . S
C490 C489 1.523 . S
C491 C475 1.429 . S
C491 C487 1.429 . S
C491 C492 1.523 . S
C492 C476 1.368 . S
C492 C488 1.368 . S
C492 C491 1.523 . S
H493 C468 0.950 . S
H494 C470 0.950 . S
H495 C471 0.949 . S
H496 C473 0.950 . S
H497 C475 0.950 . S
C498 C499 1.349 . S
C498 C500 1.327 . S
C498 H523 0.950 . S
C499 C498 1.349 . S
C499 C515 1.349 . S
C500 C498 1.327 . S
C500 C519 1.429 . S
C500 H524 0.950 . S
C501 C518 1.574 . S
C501 C520 1.368 . S
C501 H525 0.949 . S
H502 C506 0.949 . S
C503 C504 1.349 . S
C503 C505 1.327 . S
C503 H526 0.950 . S
C504 C503 1.349 . S
C504 C516 1.349 . S
C505 C503 1.327 . S
C505 C521 1.429 . S
C505 H527 0.950 . S
C506 H502 0.949 . S
C506 C514 1.574 . S
C506 C522 1.368 . S
H507 C515 0.950 . S
H508 C513 0.950 . S
H509 C514 0.949 . S
H510 C516 0.950 . S
H511 C517 0.950 . S
H512 C518 0.949 . S
C513 H508 0.950 . S
C513 C515 1.327 . S
C513 C519 1.429 . S
C514 C506 1.574 . S
C514 H509 0.949 . S
C514 C520 1.368 . S
C515 C499 1.349 . S
C515 H507 0.950 . S
C515 C513 1.327 . S
C516 C504 1.349 . S
C516 H510 0.950 . S
C516 C517 1.327 . S
C517 H511 0.950 . S
C517 C516 1.327 . S
C517 C521 1.429 . S
C518 C501 1.574 . S
C518 H512 0.949 . S
C518 C522 1.368 . S
C519 C500 1.429 . S
C519 C513 1.429 . S
C519 C520 1.523 . S
C520 C501 1.368 . S
C520 C514 1.368 . S
C520 C519 1.523 . S
C521 C505 1.429 . S
C521 C517 1.429 . S
C521 C522 1.523 . S
C522 C506 1.368 . S
C522 C518 1.368 . S
C522 C521 1.523 . S
H523 C498 0.950 . S
H524 C500 0.950 . S
H525 C501 0.949 . S
H526 C503 0.950 . S
H527 C505 0.950 . S
C528 C529 1.349 . S
C528 C530 1.327 . S
C528 H553 0.950 . S
C529 C528 1.349 . S
C529 C545 1.349 . S
C530 C528 1.327 . S
C530 C549 1.429 . S
C530 H554 0.950 1_556 S
C531 C548 1.574 1_455 S
C531 C550 1.368 . S
C531 H555 0.949 . S
H532 C536 0.949 . S
C533 C534 1.349 . S
C533 C535 1.327 . S
C533 H556 0.950 . S
C534 C533 1.349 . S
C534 C546 1.349 . S
C535 C533 1.327 . S
C535 C551 1.429 . S
C535 H557 0.950 1_554 S
C536 H532 0.949 . S
C536 C544 1.574 1_655 S
C536 C552 1.368 . S
H537 C545 0.950 . S
H538 C543 0.950 . S
H539 C544 0.949 . S
H540 C546 0.950 . S
H541 C547 0.950 . S
H542 C548 0.949 . S
C543 H538 0.950 . S
C543 C545 1.327 . S
C543 C549 1.429 . S
C544 C536 1.574 1_455 S
C544 H539 0.949 . S
C544 C550 1.368 1_554 S
C545 C529 1.349 . S
C545 H537 0.950 . S
C545 C543 1.327 . S
C546 C534 1.349 . S
C546 H540 0.950 . S
C546 C547 1.327 . S
C547 H541 0.950 . S
C547 C546 1.327 . S
C547 C551 1.429 . S
C548 C531 1.574 1_655 S
C548 H542 0.949 . S
C548 C552 1.368 1_556 S
C549 C530 1.429 . S
C549 C543 1.429 . S
C549 C550 1.523 . S
C550 C531 1.368 . S
C550 C544 1.368 1_556 S
C550 C549 1.523 . S
C551 C535 1.429 . S
C551 C547 1.429 . S
C551 C552 1.523 . S
C552 C536 1.368 . S
C552 C548 1.368 1_554 S
C552 C551 1.523 . S
H553 C528 0.950 . S
H554 C530 0.950 1_554 S
H555 C531 0.949 . S
H556 C533 0.950 . S
H557 C535 0.950 1_556 S
C558 C559 1.349 . S
C558 C560 1.327 . S
C558 H583 0.950 . S
C559 C558 1.349 . S
C559 C575 1.349 . S
C560 C558 1.327 . S
C560 C579 1.429 . S
C560 H584 0.950 . S
C561 C578 1.574 . S
C561 C580 1.368 . S
C561 H585 0.949 . S
H562 C566 0.949 . S
C563 C564 1.349 . S
C563 C565 1.327 . S
C563 H586 0.950 . S
C564 C563 1.349 . S
C564 C576 1.349 . S
C565 C563 1.327 . S
C565 C581 1.429 . S
C565 H587 0.950 . S
C566 H562 0.949 . S
C566 C574 1.574 . S
C566 C582 1.368 . S
H567 C575 0.950 . S
H568 C573 0.950 . S
H569 C574 0.949 . S
H570 C576 0.950 . S
H571 C577 0.950 . S
H572 C578 0.949 . S
C573 H568 0.950 . S
C573 C575 1.327 . S
C573 C579 1.429 . S
C574 C566 1.574 . S
C574 H569 0.949 . S
C574 C580 1.368 . S
C575 C559 1.349 . S
C575 H567 0.950 . S
C575 C573 1.327 . S
C576 C564 1.349 . S
C576 H570 0.950 . S
C576 C577 1.327 . S
C577 H571 0.950 . S
C577 C576 1.327 . S
C577 C581 1.429 . S
C578 C561 1.574 . S
C578 H572 0.949 . S
C578 C582 1.368 . S
C579 C560 1.429 . S
C579 C573 1.429 . S
C579 C580 1.523 . S
C580 C561 1.368 . S
C580 C574 1.368 . S
C580 C579 1.523 . S
C581 C565 1.429 . S
C581 C577 1.429 . S
C581 C582 1.523 . S
C582 C566 1.368 . S
C582 C578 1.368 . S
C582 C581 1.523 . S
H583 C558 0.950 . S
H584 C560 0.950 . S
H585 C561 0.949 . S
H586 C563 0.950 . S
H587 C565 0.950 . S
C588 C589 1.349 . S
C588 C590 1.327 . S
C588 H613 0.950 . S
C589 C588 1.349 . S
C589 C605 1.349 . S
C590 C588 1.327 . S
C590 C609 1.429 . S
C590 H614 0.950 . S
C591 C608 1.574 . S
C591 C610 1.368 . S
C591 H615 0.949 . S
H592 C596 0.949 . S
C593 C594 1.349 . S
C593 C595 1.327 . S
C593 H616 0.950 1_554 S
C594 C593 1.349 . S
C594 C606 1.349 . S
C595 C593 1.327 . S
C595 C611 1.429 . S
C595 H617 0.950 . S
C596 H592 0.949 . S
C596 C604 1.574 . S
C596 C612 1.368 . S
H597 C605 0.950 . S
H598 C603 0.950 . S
H599 C604 0.949 . S
H600 C606 0.950 . S
H601 C607 0.950 . S
H602 C608 0.949 . S
C603 H598 0.950 . S
C603 C605 1.327 . S
C603 C609 1.429 . S
C604 C596 1.574 . S
C604 H599 0.949 . S
C604 C610 1.368 . S
C605 C589 1.349 . S
C605 H597 0.950 . S
C605 C603 1.327 . S
C606 C594 1.349 . S
C606 H600 0.950 . S
C606 C607 1.327 . S
C607 H601 0.950 . S
C607 C606 1.327 . S
C607 C611 1.429 . S
C608 C591 1.574 . S
C608 H602 0.949 . S
C608 C612 1.368 . S
C609 C590 1.429 . S
C609 C603 1.429 . S
C609 C610 1.523 . S
C610 C591 1.368 . S
C610 C604 1.368 . S
C610 C609 1.523 . S
C611 C595 1.429 . S
C611 C607 1.429 . S
C611 C612 1.523 . S
C612 C596 1.368 . S
C612 C608 1.368 . S
C612 C611 1.523 . S
H613 C588 0.950 . S
H614 C590 0.950 . S
H615 C591 0.949 . S
H616 C593 0.950 1_556 S
H617 C595 0.950 . S
C618 C619 1.349 . S
C618 C620 1.327 . S
C618 H643 0.950 . S
C619 C618 1.349 . S
C619 C635 1.349 . S
C620 C618 1.327 . S
C620 C639 1.429 . S
C620 H644 0.950 . S
C621 C638 1.574 . S
C621 C640 1.368 . S
C621 H645 0.949 . S
H622 C626 0.949 . S
C623 C624 1.349 . S
C623 C625 1.327 . S
C623 H646 0.950 . S
C624 C623 1.349 . S
C624 C636 1.349 . S
C625 C623 1.327 . S
C625 C641 1.429 . S
C625 H647 0.950 . S
C626 H622 0.949 . S
C626 C634 1.574 . S
C626 C642 1.368 . S
H627 C635 0.950 . S
H628 C633 0.950 . S
H629 C634 0.949 . S
H630 C636 0.950 . S
H631 C637 0.950 . S
H632 C638 0.949 . S
C633 H628 0.950 . S
C633 C635 1.327 . S
C633 C639 1.429 . S
C634 C626 1.574 . S
C634 H629 0.949 . S
C634 C640 1.368 . S
C635 C619 1.349 . S
C635 H627 0.950 . S
C635 C633 1.327 . S
C636 C624 1.349 . S
C636 H630 0.950 . S
C636 C637 1.327 . S
C637 H631 0.950 . S
C637 C636 1.327 . S
C637 C641 1.429 . S
C638 C621 1.574 . S
C638 H632 0.949 . S
C638 C642 1.368 . S
C639 C620 1.429 . S
C639 C633 1.429 . S
C639 C640 1.523 . S
C640 C621 1.368 . S
C640 C634 1.368 . S
C640 C639 1.523 . S
C641 C625 1.429 . S
C641 C637 1.429 . S
C641 C642 1.523 . S
C642 C626 1.368 . S
C642 C638 1.368 . S
C642 C641 1.523 . S
H643 C618 0.950 . S
H644 C620 0.950 . S
H645 C621 0.949 . S
H646 C623 0.950 . S
H647 C625 0.950 . S
C648 C649 1.349 . S
C648 C650 1.327 . S
C648 H673 0.950 . S
C649 C648 1.349 . S
C649 C665 1.349 . S
C650 C648 1.327 . S
C650 C669 1.429 . S
C650 H674 0.950 . S
C651 C668 1.574 . S
C651 C670 1.368 . S
C651 H675 0.949 . S
H652 C656 0.949 . S
C653 C654 1.349 . S
C653 C655 1.327 . S
C653 H676 0.950 . S
C654 C653 1.349 . S
C654 C666 1.349 . S
C655 C653 1.327 . S
C655 C671 1.429 . S
C655 H677 0.950 . S
C656 H652 0.949 . S
C656 C664 1.574 . S
C656 C672 1.368 . S
H657 C665 0.950 . S
H658 C663 0.950 . S
H659 C664 0.949 . S
H660 C666 0.950 . S
H661 C667 0.950 . S
H662 C668 0.949 . S
C663 H658 0.950 . S
C663 C665 1.327 . S
C663 C669 1.429 . S
C664 C656 1.574 . S
C664 H659 0.949 . S
C664 C670 1.368 . S
C665 C649 1.349 . S
C665 H657 0.950 . S
C665 C663 1.327 . S
C666 C654 1.349 . S
C666 H660 0.950 . S
C666 C667 1.327 . S
C667 H661 0.950 . S
C667 C666 1.327 . S
C667 C671 1.429 . S
C668 C651 1.574 . S
C668 H662 0.949 . S
C668 C672 1.368 . S
C669 C650 1.429 . S
C669 C663 1.429 . S
C669 C670 1.523 . S
C670 C651 1.368 . S
C670 C664 1.368 . S
C670 C669 1.523 . S
C671 C655 1.429 . S
C671 C667 1.429 . S
C671 C672 1.523 . S
C672 C656 1.368 . S
C672 C668 1.368 . S
C672 C671 1.523 . S
H673 C648 0.950 . S
H674 C650 0.950 . S
H675 C651 0.949 . S
H676 C653 0.950 . S
H677 C655 0.950 . S
C678 C679 1.349 . S
C678 C680 1.327 . S
C678 H703 0.950 . S
C679 C678 1.349 . S
C679 C695 1.349 . S
C680 C678 1.327 . S
C680 C699 1.429 . S
C680 H704 0.950 . S
C681 C698 1.574 . S
C681 C700 1.368 . S
C681 H705 0.949 . S
H682 C686 0.949 . S
C683 C684 1.349 . S
C683 C685 1.327 . S
C683 H706 0.950 . S
C684 C683 1.349 . S
C684 C696 1.349 . S
C685 C683 1.327 . S
C685 C701 1.429 . S
C685 H707 0.950 . S
C686 H682 0.949 . S
C686 C694 1.574 . S
C686 C702 1.368 . S
H687 C695 0.950 . S
H688 C693 0.950 . S
H689 C694 0.949 . S
H690 C696 0.950 . S
H691 C697 0.950 . S
H692 C698 0.949 . S
C693 H688 0.950 . S
C693 C695 1.327 . S
C693 C699 1.429 . S
C694 C686 1.574 . S
C694 H689 0.949 . S
C694 C700 1.368 . S
C695 C679 1.349 . S
C695 H687 0.950 . S
C695 C693 1.327 . S
C696 C684 1.349 . S
C696 H690 0.950 . S
C696 C697 1.327 . S
C697 H691 0.950 . S
C697 C696 1.327 . S
C697 C701 1.429 . S
C698 C681 1.574 . S
C698 H692 0.949 . S
C698 C702 1.368 . S
C699 C680 1.429 . S
C699 C693 1.429 . S
C699 C700 1.523 . S
C700 C681 1.368 . S
C700 C694 1.368 . S
C700 C699 1.523 . S
C701 C685 1.429 . S
C701 C697 1.429 . S
C701 C702 1.523 . S
C702 C686 1.368 . S
C702 C698 1.368 . S
C702 C701 1.523 . S
H703 C678 0.950 . S
H704 C680 0.950 . S
H705 C681 0.949 . S
H706 C683 0.950 . S
H707 C685 0.950 . S
C708 C709 1.349 . S
C708 C710 1.327 . S
C708 H733 0.950 1_556 S
C709 C708 1.349 . S
C709 C725 1.349 . S
C710 C708 1.327 . S
C710 C729 1.429 . S
C710 H734 0.950 . S
C711 C728 1.574 . S
C711 C730 1.368 . S
C711 H735 0.949 . S
H712 C716 0.949 . S
C713 C714 1.349 . S
C713 C715 1.327 . S
C713 H736 0.950 . S
C714 C713 1.349 . S
C714 C726 1.349 . S
C715 C713 1.327 . S
C715 C731 1.429 . S
C715 H737 0.950 . S
C716 H712 0.949 . S
C716 C724 1.574 . S
C716 C732 1.368 . S
H717 C725 0.950 . S
H718 C723 0.950 . S
H719 C724 0.949 . S
H720 C726 0.950 . S
H721 C727 0.950 . S
H722 C728 0.949 . S
C723 H718 0.950 . S
C723 C725 1.327 . S
C723 C729 1.429 . S
C724 C716 1.574 . S
C724 H719 0.949 . S
C724 C730 1.368 . S
C725 C709 1.349 . S
C725 H717 0.950 . S
C725 C723 1.327 . S
C726 C714 1.349 . S
C726 H720 0.950 . S
C726 C727 1.327 . S
C727 H721 0.950 . S
C727 C726 1.327 . S
C727 C731 1.429 . S
C728 C711 1.574 . S
C728 H722 0.949 . S
C728 C732 1.368 . S
C729 C710 1.429 . S
C729 C723 1.429 . S
C729 C730 1.523 . S
C730 C711 1.368 . S
C730 C724 1.368 . S
C730 C729 1.523 . S
C731 C715 1.429 . S
C731 C727 1.429 . S
C731 C732 1.523 . S
C732 C716 1.368 . S
C732 C728 1.368 . S
C732 C731 1.523 . S
H733 C708 0.950 1_554 S
H734 C710 0.950 . S
H735 C711 0.949 . S
H736 C713 0.950 . S
H737 C715 0.950 . S
C738 C739 1.349 . S
C738 C740 1.327 . S
C738 H763 0.950 . S
C739 C738 1.349 . S
C739 C755 1.349 . S
C740 C738 1.327 . S
C740 C759 1.429 . S
C740 H764 0.950 . S
C741 C758 1.574 . S
C741 C760 1.368 . S
C741 H765 0.949 . S
H742 C746 0.949 . S
C743 C744 1.349 . S
C743 C745 1.327 . S
C743 H766 0.950 . S
C744 C743 1.349 . S
C744 C756 1.349 . S
C745 C743 1.327 . S
C745 C761 1.429 . S
C745 H767 0.950 . S
C746 H742 0.949 . S
C746 C754 1.574 . S
C746 C762 1.368 . S
H747 C755 0.950 . S
H748 C753 0.950 . S
H749 C754 0.949 . S
H750 C756 0.950 . S
H751 C757 0.950 . S
H752 C758 0.949 . S
C753 H748 0.950 . S
C753 C755 1.327 . S
C753 C759 1.429 . S
C754 C746 1.574 . S
C754 H749 0.949 . S
C754 C760 1.368 . S
C755 C739 1.349 . S
C755 H747 0.950 . S
C755 C753 1.327 . S
C756 C744 1.349 . S
C756 H750 0.950 . S
C756 C757 1.327 . S
C757 H751 0.950 . S
C757 C756 1.327 . S
C757 C761 1.429 . S
C758 C741 1.574 . S
C758 H752 0.949 . S
C758 C762 1.368 . S
C759 C740 1.429 . S
C759 C753 1.429 . S
C759 C760 1.523 . S
C760 C741 1.368 . S
C760 C754 1.368 . S
C760 C759 1.523 . S
C761 C745 1.429 . S
C761 C757 1.429 . S
C761 C762 1.523 . S
C762 C746 1.368 . S
C762 C758 1.368 . S
C762 C761 1.523 . S
H763 C738 0.950 . S
H764 C740 0.950 . S
H765 C741 0.949 . S
H766 C743 0.950 . S
H767 C745 0.950 . S
C768 C769 1.349 . S
C768 C770 1.327 . S
C768 H793 0.950 . S
C769 C768 1.349 . S
C769 C785 1.349 . S
C770 C768 1.327 . S
C770 C789 1.429 . S
C770 H794 0.950 . S
C771 C788 1.574 . S
C771 C790 1.368 . S
C771 H795 0.949 . S
H772 C776 0.949 . S
C773 C774 1.349 . S
C773 C775 1.327 . S
C773 H796 0.950 . S
C774 C773 1.349 . S
C774 C786 1.349 . S
C775 C773 1.327 . S
C775 C791 1.429 . S
C775 H797 0.950 . S
C776 H772 0.949 . S
C776 C784 1.574 . S
C776 C792 1.368 . S
H777 C785 0.950 . S
H778 C783 0.950 . S
H779 C784 0.949 . S
H780 C786 0.950 . S
H781 C787 0.950 . S
H782 C788 0.949 . S
C783 H778 0.950 . S
C783 C785 1.327 . S
C783 C789 1.429 . S
C784 C776 1.574 . S
C784 H779 0.949 . S
C784 C790 1.368 . S
C785 C769 1.349 . S
C785 H777 0.950 . S
C785 C783 1.327 . S
C786 C774 1.349 . S
C786 H780 0.950 . S
C786 C787 1.327 . S
C787 H781 0.950 . S
C787 C786 1.327 . S
C787 C791 1.429 . S
C788 C771 1.574 . S
C788 H782 0.949 . S
C788 C792 1.368 . S
C789 C770 1.429 . S
C789 C783 1.429 . S
C789 C790 1.523 . S
C790 C771 1.368 . S
C790 C784 1.368 . S
C790 C789 1.523 . S
C791 C775 1.429 . S
C791 C787 1.429 . S
C791 C792 1.523 . S
C792 C776 1.368 . S
C792 C788 1.368 . S
C792 C791 1.523 . S
H793 C768 0.950 . S
H794 C770 0.950 . S
H795 C771 0.949 . S
H796 C773 0.950 . S
H797 C775 0.950 . S
C798 C799 1.349 . S
C798 C800 1.327 . S
C798 H823 0.950 . S
C799 C798 1.349 . S
C799 C815 1.349 . S
C800 C798 1.327 . S
C800 C819 1.429 . S
C800 H824 0.950 . S
C801 C818 1.574 . S
C801 C820 1.368 . S
C801 H825 0.949 . S
H802 C806 0.949 . S
C803 C804 1.349 . S
C803 C805 1.327 . S
C803 H826 0.950 . S
C804 C803 1.349 . S
C804 C816 1.349 . S
C805 C803 1.327 . S
C805 C821 1.429 . S
C805 H827 0.950 . S
C806 H802 0.949 . S
C806 C814 1.574 . S
C806 C822 1.368 . S
H807 C815 0.950 . S
H808 C813 0.950 . S
H809 C814 0.949 . S
H810 C816 0.950 1_556 S
H811 C817 0.950 . S
H812 C818 0.949 . S
C813 H808 0.950 . S
C813 C815 1.327 . S
C813 C819 1.429 . S
C814 C806 1.574 . S
C814 H809 0.949 . S
C814 C820 1.368 . S
C815 C799 1.349 . S
C815 H807 0.950 . S
C815 C813 1.327 . S
C816 C804 1.349 . S
C816 H810 0.950 1_554 S
C816 C817 1.327 . S
C817 H811 0.950 . S
C817 C816 1.327 . S
C817 C821 1.429 . S
C818 C801 1.574 . S
C818 H812 0.949 . S
C818 C822 1.368 . S
C819 C800 1.429 . S
C819 C813 1.429 . S
C819 C820 1.523 . S
C820 C801 1.368 . S
C820 C814 1.368 . S
C820 C819 1.523 . S
C821 C805 1.429 . S
C821 C817 1.429 . S
C821 C822 1.523 . S
C822 C806 1.368 . S
C822 C818 1.368 . S
C822 C821 1.523 . S
H823 C798 0.950 . S
H824 C800 0.950 . S
H825 C801 0.949 . S
H826 C803 0.950 . S
H827 C805 0.950 . S
C828 C829 1.349 . S
C828 C830 1.327 . S
C828 H853 0.950 . S
C829 C828 1.349 . S
C829 C845 1.349 . S
C830 C828 1.327 . S
C830 C849 1.429 . S
C830 H854 0.950 . S
C831 C848 1.574 . S
C831 C850 1.368 . S
C831 H855 0.949 . S
H832 C836 0.949 . S
C833 C834 1.349 . S
C833 C835 1.327 . S
C833 H856 0.950 . S
C834 C833 1.349 . S
C834 C846 1.349 . S
C835 C833 1.327 . S
C835 C851 1.429 . S
C835 H857 0.950 . S
C836 H832 0.949 . S
C836 C844 1.574 . S
C836 C852 1.368 . S
H837 C845 0.950 . S
H838 C843 0.950 . S
H839 C844 0.949 . S
H840 C846 0.950 . S
H841 C847 0.950 . S
H842 C848 0.949 . S
C843 H838 0.950 . S
C843 C845 1.327 . S
C843 C849 1.429 . S
C844 C836 1.574 . S
C844 H839 0.949 . S
C844 C850 1.368 . S
C845 C829 1.349 . S
C845 H837 0.950 . S
C845 C843 1.327 . S
C846 C834 1.349 . S
C846 H840 0.950 . S
C846 C847 1.327 . S
C847 H841 0.950 . S
C847 C846 1.327 . S
C847 C851 1.429 . S
C848 C831 1.574 . S
C848 H842 0.949 . S
C848 C852 1.368 . S
C849 C830 1.429 . S
C849 C843 1.429 . S
C849 C850 1.523 . S
C850 C831 1.368 . S
C850 C844 1.368 . S
C850 C849 1.523 . S
C851 C835 1.429 . S
C851 C847 1.429 . S
C851 C852 1.523 . S
C852 C836 1.368 . S
C852 C848 1.368 . S
C852 C851 1.523 . S
H853 C828 0.950 . S
H854 C830 0.950 . S
H855 C831 0.949 . S
H856 C833 0.950 . S
H857 C835 0.950 . S
C858 C859 1.349 . S
C858 C860 1.327 . S
C858 H883 0.950 . S
C859 C858 1.349 . S
C859 C875 1.349 . S
C860 C858 1.327 . S
C860 C879 1.429 . S
C860 H884 0.950 . S
C861 C878 1.574 . S
C861 C880 1.368 . S
C861 H885 0.949 . S
H862 C866 0.949 . S
C863 C864 1.349 . S
C863 C865 1.327 . S
C863 H886 0.950 1_556 S
C864 C863 1.349 . S
C864 C876 1.349 . S
C865 C863 1.327 . S
C865 C881 1.429 . S
C865 H887 0.950 . S
C866 H862 0.949 . S
C866 C874 1.574 . S
C866 C882 1.368 . S
H867 C875 0.950 . S
H868 C873 0.950 . S
H869 C874 0.949 . S
H870 C876 0.950 . S
H871 C877 0.950 . S
H872 C878 0.949 . S
C873 H868 0.950 . S
C873 C875 1.327 . S
C873 C879 1.429 . S
C874 C866 1.574 . S
C874 H869 0.949 . S
C874 C880 1.368 . S
C875 C859 1.349 . S
C875 H867 0.950 . S
C875 C873 1.327 . S
C876 C864 1.349 . S
C876 H870 0.950 . S
C876 C877 1.327 . S
C877 H871 0.950 . S
C877 C876 1.327 . S
C877 C881 1.429 . S
C878 C861 1.574 . S
C878 H872 0.949 . S
C878 C882 1.368 . S
C879 C860 1.429 . S
C879 C873 1.429 . S
C879 C880 1.523 . S
C880 C861 1.368 . S
C880 C874 1.368 . S
C880 C879 1.523 . S
C881 C865 1.429 . S
C881 C877 1.429 . S
C881 C882 1.523 . S
C882 C866 1.368 . S
C882 C878 1.368 . S
C882 C881 1.523 . S
H883 C858 0.950 . S
H884 C860 0.950 . S
H885 C861 0.949 . S
H886 C863 0.950 1_554 S
H887 C865 0.950 . S
C888 C889 1.349 . S
C888 C890 1.327 . S
C888 H913 0.950 . S
C889 C888 1.349 . S
C889 C905 1.349 . S
C890 C888 1.327 . S
C890 C909 1.429 . S
C890 H914 0.950 . S
C891 C908 1.574 . S
C891 C910 1.368 . S
C891 H915 0.949 . S
H892 C896 0.949 . S
C893 C894 1.349 . S
C893 C895 1.327 . S
C893 H916 0.950 . S
C894 C893 1.349 . S
C894 C906 1.349 . S
C895 C893 1.327 . S
C895 C911 1.429 . S
C895 H917 0.950 . S
C896 H892 0.949 . S
C896 C904 1.574 . S
C896 C912 1.368 . S
H897 C905 0.950 . S
H898 C903 0.950 . S
H899 C904 0.949 . S
H900 C906 0.950 . S
H901 C907 0.950 . S
H902 C908 0.949 . S
C903 H898 0.950 . S
C903 C905 1.327 . S
C903 C909 1.429 . S
C904 C896 1.574 . S
C904 H899 0.949 . S
C904 C910 1.368 . S
C905 C889 1.349 . S
C905 H897 0.950 . S
C905 C903 1.327 . S
C906 C894 1.349 . S
C906 H900 0.950 . S
C906 C907 1.327 . S
C907 H901 0.950 . S
C907 C906 1.327 . S
C907 C911 1.429 . S
C908 C891 1.574 . S
C908 H902 0.949 . S
C908 C912 1.368 . S
C909 C890 1.429 . S
C909 C903 1.429 . S
C909 C910 1.523 . S
C910 C891 1.368 . S
C910 C904 1.368 . S
C910 C909 1.523 . S
C911 C895 1.429 . S
C911 C907 1.429 . S
C911 C912 1.523 . S
C912 C896 1.368 . S
C912 C908 1.368 . S
C912 C911 1.523 . S
H913 C888 0.950 . S
H914 C890 0.950 . S
H915 C891 0.949 . S
H916 C893 0.950 . S
H917 C895 0.950 . S
C918 C919 1.349 . S
C918 C920 1.327 . S
C918 H943 0.950 . S
C919 C918 1.349 . S
C919 C935 1.349 . S
C920 C918 1.327 . S
C920 C939 1.429 . S
C920 H944 0.950 . S
C921 C938 1.574 . S
C921 C940 1.368 . S
C921 H945 0.949 . S
H922 C926 0.949 . S
C923 C924 1.349 . S
C923 C925 1.327 . S
C923 H946 0.950 . S
C924 C923 1.349 . S
C924 C936 1.349 . S
C925 C923 1.327 . S
C925 C941 1.429 . S
C925 H947 0.950 . S
C926 H922 0.949 . S
C926 C934 1.574 . S
C926 C942 1.368 . S
H927 C935 0.950 . S
H928 C933 0.950 . S
H929 C934 0.949 . S
H930 C936 0.950 1_554 S
H931 C937 0.950 . S
H932 C938 0.949 . S
C933 H928 0.950 . S
C933 C935 1.327 . S
C933 C939 1.429 . S
C934 C926 1.574 . S
C934 H929 0.949 . S
C934 C940 1.368 . S
C935 C919 1.349 . S
C935 H927 0.950 . S
C935 C933 1.327 . S
C936 C924 1.349 . S
C936 H930 0.950 1_556 S
C936 C937 1.327 . S
C937 H931 0.950 . S
C937 C936 1.327 . S
C937 C941 1.429 . S
C938 C921 1.574 . S
C938 H932 0.949 . S
C938 C942 1.368 . S
C939 C920 1.429 . S
C939 C933 1.429 . S
C939 C940 1.523 . S
C940 C921 1.368 . S
C940 C934 1.368 . S
C940 C939 1.523 . S
C941 C925 1.429 . S
C941 C937 1.429 . S
C941 C942 1.523 . S
C942 C926 1.368 . S
C942 C938 1.368 . S
C942 C941 1.523 . S
H943 C918 0.950 . S
H944 C920 0.950 . S
H945 C921 0.949 . S
H946 C923 0.950 . S
H947 C925 0.950 . S
C948 C949 1.349 . S
C948 C950 1.327 . S
C948 H973 0.950 . S
C949 C948 1.349 . S
C949 C965 1.349 . S
C950 C948 1.327 . S
C950 C969 1.429 . S
C950 H974 0.950 . S
C951 C968 1.574 . S
C951 C970 1.368 . S
C951 H975 0.949 . S
H952 C956 0.949 . S
C953 C954 1.349 . S
C953 C955 1.327 . S
C953 H976 0.950 . S
C954 C953 1.349 . S
C954 C966 1.349 . S
C955 C953 1.327 . S
C955 C971 1.429 . S
C955 H977 0.950 . S
C956 H952 0.949 . S
C956 C964 1.574 . S
C956 C972 1.368 . S
H957 C965 0.950 . S
H958 C963 0.950 . S
H959 C964 0.949 . S
H960 C966 0.950 . S
H961 C967 0.950 . S
H962 C968 0.949 . S
C963 H958 0.950 . S
C963 C965 1.327 . S
C963 C969 1.429 . S
C964 C956 1.574 . S
C964 H959 0.949 . S
C964 C970 1.368 . S
C965 C949 1.349 . S
C965 H957 0.950 . S
C965 C963 1.327 . S
C966 C954 1.349 . S
C966 H960 0.950 . S
C966 C967 1.327 . S
C967 H961 0.950 . S
C967 C966 1.327 . S
C967 C971 1.429 . S
C968 C951 1.574 . S
C968 H962 0.949 . S
C968 C972 1.368 . S
C969 C950 1.429 . S
C969 C963 1.429 . S
C969 C970 1.523 . S
C970 C951 1.368 . S
C970 C964 1.368 . S
C970 C969 1.523 . S
C971 C955 1.429 . S
C971 C967 1.429 . S
C971 C972 1.523 . S
C972 C956 1.368 . S
C972 C968 1.368 . S
C972 C971 1.523 . S
H973 C948 0.950 . S
H974 C950 0.950 . S
H975 C951 0.949 . S
H976 C953 0.950 . S
H977 C955 0.950 . S
C978 C979 1.349 . S
C978 C980 1.327 . S
C978 H1003 0.950 . S
C979 C978 1.349 . S
C979 C995 1.349 . S
C980 C978 1.327 . S
C980 C999 1.429 . S
C980 H1004 0.950 . S
C981 C998 1.574 . S
C981 C1000 1.368 . S
C981 H1005 0.949 . S
H982 C986 0.949 . S
C983 C984 1.349 . S
C983 C985 1.327 . S
C983 H1006 0.950 . S
C984 C983 1.349 . S
C984 C996 1.349 . S
C985 C983 1.327 . S
C985 C1001 1.429 . S
C985 H1007 0.950 . S
C986 H982 0.949 . S
C986 C994 1.574 . S
C986 C1002 1.368 . S
H987 C995 0.950 . S
H988 C993 0.950 . S
H989 C994 0.949 . S
H990 C996 0.950 . S
H991 C997 0.950 . S
H992 C998 0.949 . S
C993 H988 0.950 . S
C993 C995 1.327 . S
C993 C999 1.429 . S
C994 C986 1.574 . S
C994 H989 0.949 . S
C994 C1000 1.368 . S
C995 C979 1.349 . S
C995 H987 0.950 . S
C995 C993 1.327 . S
C996 C984 1.349 . S
C996 H990 0.950 . S
C996 C997 1.327 . S
C997 H991 0.950 . S
C997 C996 1.327 . S
C997 C1001 1.429 . S
C998 C981 1.574 . S
C998 H992 0.949 . S
C998 C1002 1.368 . S
C999 C980 1.429 . S
C999 C993 1.429 . S
C999 C1000 1.523 . S
C1000 C981 1.368 . S
C1000 C994 1.368 . S
C1000 C999 1.523 . S
C1001 C985 1.429 . S
C1001 C997 1.429 . S
C1001 C1002 1.523 . S
C1002 C986 1.368 . S
C1002 C998 1.368 . S
C1002 C1001 1.523 . S
H1003 C978 0.950 . S
H1004 C980 0.950 . S
H1005 C981 0.949 . S
H1006 C983 0.950 . S
H1007 C985 0.950 . S
C1008 C1009 1.349 . S
C1008 C1010 1.327 . S
C1008 H1033 0.950 . S
C1009 C1008 1.349 . S
C1009 C1025 1.349 . S
C1010 C1008 1.327 . S
C1010 C1029 1.429 . S
C1010 H1034 0.950 . S
C1011 C1028 1.574 . S
C1011 C1030 1.368 . S
C1011 H1035 0.949 . S
H1012 C1016 0.949 . S
C1013 C1014 1.349 . S
C1013 C1015 1.327 . S
C1013 H1036 0.950 . S
C1014 C1013 1.349 . S
C1014 C1026 1.349 . S
C1015 C1013 1.327 . S
C1015 C1031 1.429 . S
C1015 H1037 0.950 . S
C1016 H1012 0.949 . S
C1016 C1024 1.574 . S
C1016 C1032 1.368 . S
H1017 C1025 0.950 . S
H1018 C1023 0.950 . S
H1019 C1024 0.949 . S
H1020 C1026 0.950 . S
H1021 C1027 0.950 . S
H1022 C1028 0.949 . S
C1023 H1018 0.950 . S
C1023 C1025 1.327 . S
C1023 C1029 1.429 . S
C1024 C1016 1.574 . S
C1024 H1019 0.949 . S
C1024 C1030 1.368 . S
C1025 C1009 1.349 . S
C1025 H1017 0.950 . S
C1025 C1023 1.327 . S
C1026 C1014 1.349 . S
C1026 H1020 0.950 . S
C1026 C1027 1.327 . S
C1027 H1021 0.950 . S
C1027 C1026 1.327 . S
C1027 C1031 1.429 . S
C1028 C1011 1.574 . S
C1028 H1022 0.949 . S
C1028 C1032 1.368 . S
C1029 C1010 1.429 . S
C1029 C1023 1.429 . S
C1029 C1030 1.523 . S
C1030 C1011 1.368 . S
C1030 C1024 1.368 . S
C1030 C1029 1.523 . S
C1031 C1015 1.429 . S
C1031 C1027 1.429 . S
C1031 C1032 1.523 . S
C1032 C1016 1.368 . S
C1032 C1028 1.368 . S
C1032 C1031 1.523 . S
H1033 C1008 0.950 . S
H1034 C1010 0.950 . S
H1035 C1011 0.949 . S
H1036 C1013 0.950 . S
H1037 C1015 0.950 . S
C1038 C1039 1.349 . S
C1038 C1040 1.327 . S
C1038 H1063 0.950 . S
C1039 C1038 1.349 . S
C1039 C1055 1.349 . S
C1040 C1038 1.327 . S
C1040 C1059 1.429 . S
C1040 H1064 0.950 . S
C1041 C1058 1.574 . S
C1041 C1060 1.368 . S
C1041 H1065 0.949 . S
H1042 C1046 0.949 . S
C1043 C1044 1.349 . S
C1043 C1045 1.327 . S
C1043 H1066 0.950 . S
C1044 C1043 1.349 . S
C1044 C1056 1.349 . S
C1045 C1043 1.327 . S
C1045 C1061 1.429 . S
C1045 H1067 0.950 . S
C1046 H1042 0.949 . S
C1046 C1054 1.574 . S
C1046 C1062 1.368 . S
H1047 C1055 0.950 . S
H1048 C1053 0.950 . S
H1049 C1054 0.949 . S
H1050 C1056 0.950 1_554 S
H1051 C1057 0.950 . S
H1052 C1058 0.949 . S
C1053 H1048 0.950 . S
C1053 C1055 1.327 . S
C1053 C1059 1.429 . S
C1054 C1046 1.574 . S
C1054 H1049 0.949 . S
C1054 C1060 1.368 . S
C1055 C1039 1.349 . S
C1055 H1047 0.950 . S
C1055 C1053 1.327 . S
C1056 C1044 1.349 . S
C1056 H1050 0.950 1_556 S
C1056 C1057 1.327 . S
C1057 H1051 0.950 . S
C1057 C1056 1.327 . S
C1057 C1061 1.429 . S
C1058 C1041 1.574 . S
C1058 H1052 0.949 . S
C1058 C1062 1.368 . S
C1059 C1040 1.429 . S
C1059 C1053 1.429 . S
C1059 C1060 1.523 . S
C1060 C1041 1.368 . S
C1060 C1054 1.368 . S
C1060 C1059 1.523 . S
C1061 C1045 1.429 . S
C1061 C1057 1.429 . S
C1061 C1062 1.523 . S
C1062 C1046 1.368 . S
C1062 C1058 1.368 . S
C1062 C1061 1.523 . S
H1063 C1038 0.950 . S
H1064 C1040 0.950 . S
H1065 C1041 0.949 . S
H1066 C1043 0.950 . S
H1067 C1045 0.950 . S
C1068 C1069 1.349 . S
C1068 C1070 1.327 . S
C1068 H1093 0.950 . S
C1069 C1068 1.349 . S
C1069 C1085 1.349 . S
C1070 C1068 1.327 . S
C1070 C1089 1.429 . S
C1070 H1094 0.950 . S
C1071 C1088 1.574 . S
C1071 C1090 1.368 . S
C1071 H1095 0.949 . S
H1072 C1076 0.949 . S
C1073 C1074 1.349 . S
C1073 C1075 1.327 . S
C1073 H1096 0.950 . S
C1074 C1073 1.349 . S
C1074 C1086 1.349 . S
C1075 C1073 1.327 . S
C1075 C1091 1.429 . S
C1075 H1097 0.950 . S
C1076 H1072 0.949 . S
C1076 C1084 1.574 . S
C1076 C1092 1.368 . S
H1077 C1085 0.950 . S
H1078 C1083 0.950 . S
H1079 C1084 0.949 . S
H1080 C1086 0.950 1_556 S
H1081 C1087 0.950 . S
H1082 C1088 0.949 . S
C1083 H1078 0.950 . S
C1083 C1085 1.327 . S
C1083 C1089 1.429 . S
C1084 C1076 1.574 . S
C1084 H1079 0.949 . S
C1084 C1090 1.368 . S
C1085 C1069 1.349 . S
C1085 H1077 0.950 . S
C1085 C1083 1.327 . S
C1086 C1074 1.349 . S
C1086 H1080 0.950 1_554 S
C1086 C1087 1.327 . S
C1087 H1081 0.950 . S
C1087 C1086 1.327 . S
C1087 C1091 1.429 . S
C1088 C1071 1.574 . S
C1088 H1082 0.949 . S
C1088 C1092 1.368 . S
C1089 C1070 1.429 . S
C1089 C1083 1.429 . S
C1089 C1090 1.523 . S
C1090 C1071 1.368 . S
C1090 C1084 1.368 . S
C1090 C1089 1.523 . S
C1091 C1075 1.429 . S
C1091 C1087 1.429 . S
C1091 C1092 1.523 . S
C1092 C1076 1.368 . S
C1092 C1088 1.368 . S
C1092 C1091 1.523 . S
H1093 C1068 0.950 . S
H1094 C1070 0.950 . S
H1095 C1071 0.949 . S
H1096 C1073 0.950 . S
H1097 C1075 0.950 . S
C1098 C1099 1.349 . S
C1098 C1100 1.327 . S
C1098 H1123 0.950 . S
C1099 C1098 1.349 . S
C1099 C1115 1.349 . S
C1100 C1098 1.327 . S
C1100 C1119 1.429 . S
C1100 H1124 0.950 . S
C1101 C1118 1.574 . S
C1101 C1120 1.368 . S
C1101 H1125 0.949 . S
H1102 C1106 0.949 . S
C1103 C1104 1.349 . S
C1103 C1105 1.327 . S
C1103 H1126 0.950 . S
C1104 C1103 1.349 . S
C1104 C1116 1.349 . S
C1105 C1103 1.327 . S
C1105 C1121 1.429 . S
C1105 H1127 0.950 . S
C1106 H1102 0.949 . S
C1106 C1114 1.574 . S
C1106 C1122 1.368 . S
H1107 C1115 0.950 . S
H1108 C1113 0.950 . S
H1109 C1114 0.949 . S
H1110 C1116 0.950 . S
H1111 C1117 0.950 . S
H1112 C1118 0.949 . S
C1113 H1108 0.950 . S
C1113 C1115 1.327 . S
C1113 C1119 1.429 . S
C1114 C1106 1.574 . S
C1114 H1109 0.949 . S
C1114 C1120 1.368 . S
C1115 C1099 1.349 . S
C1115 H1107 0.950 . S
C1115 C1113 1.327 . S
C1116 C1104 1.349 . S
C1116 H1110 0.950 . S
C1116 C1117 1.327 . S
C1117 H1111 0.950 . S
C1117 C1116 1.327 . S
C1117 C1121 1.429 . S
C1118 C1101 1.574 . S
C1118 H1112 0.949 . S
C1118 C1122 1.368 . S
C1119 C1100 1.429 . S
C1119 C1113 1.429 . S
C1119 C1120 1.523 . S
C1120 C1101 1.368 . S
C1120 C1114 1.368 . S
C1120 C1119 1.523 . S
C1121 C1105 1.429 . S
C1121 C1117 1.429 . S
C1121 C1122 1.523 . S
C1122 C1106 1.368 . S
C1122 C1118 1.368 . S
C1122 C1121 1.523 . S
H1123 C1098 0.950 . S
H1124 C1100 0.950 . S
H1125 C1101 0.949 . S
H1126 C1103 0.950 . S
H1127 C1105 0.950 . S
C1128 C1129 1.349 . S
C1128 C1130 1.327 . S
C1128 H1153 0.950 . S
C1129 C1128 1.349 . S
C1129 C1145 1.349 . S
C1130 C1128 1.327 . S
C1130 C1149 1.429 . S
C1130 H1154 0.950 . S
C1131 C1148 1.574 . S
C1131 C1150 1.368 . S
C1131 H1155 0.949 . S
H1132 C1136 0.949 . S
C1133 C1134 1.349 . S
C1133 C1135 1.327 . S
C1133 H1156 0.950 . S
C1134 C1133 1.349 . S
C1134 C1146 1.349 . S
C1135 C1133 1.327 . S
C1135 C1151 1.429 . S
C1135 H1157 0.950 . S
C1136 H1132 0.949 . S
C1136 C1144 1.574 . S
C1136 C1152 1.368 . S
H1137 C1145 0.950 . S
H1138 C1143 0.950 . S
H1139 C1144 0.949 . S
H1140 C1146 0.950 . S
H1141 C1147 0.950 . S
H1142 C1148 0.949 . S
C1143 H1138 0.950 . S
C1143 C1145 1.327 . S
C1143 C1149 1.429 . S
C1144 C1136 1.574 . S
C1144 H1139 0.949 . S
C1144 C1150 1.368 . S
C1145 C1129 1.349 . S
C1145 H1137 0.950 . S
C1145 C1143 1.327 . S
C1146 C1134 1.349 . S
C1146 H1140 0.950 . S
C1146 C1147 1.327 . S
C1147 H1141 0.950 . S
C1147 C1146 1.327 . S
C1147 C1151 1.429 . S
C1148 C1131 1.574 . S
C1148 H1142 0.949 . S
C1148 C1152 1.368 . S
C1149 C1130 1.429 . S
C1149 C1143 1.429 . S
C1149 C1150 1.523 . S
C1150 C1131 1.368 . S
C1150 C1144 1.368 . S
C1150 C1149 1.523 . S
C1151 C1135 1.429 . S
C1151 C1147 1.429 . S
C1151 C1152 1.523 . S
C1152 C1136 1.368 . S
C1152 C1148 1.368 . S
C1152 C1151 1.523 . S
H1153 C1128 0.950 . S
H1154 C1130 0.950 . S
H1155 C1131 0.949 . S
H1156 C1133 0.950 . S
H1157 C1135 0.950 . S
C1158 C1159 1.349 . S
C1158 C1160 1.327 . S
C1158 H1183 0.950 . S
C1159 C1158 1.349 . S
C1159 C1175 1.349 . S
C1160 C1158 1.327 . S
C1160 C1179 1.429 . S
C1160 H1184 0.950 . S
C1161 C1178 1.574 . S
C1161 C1180 1.368 . S
C1161 H1185 0.949 . S
H1162 C1166 0.949 . S
C1163 C1164 1.349 . S
C1163 C1165 1.327 . S
C1163 H1186 0.950 . S
C1164 C1163 1.349 . S
C1164 C1176 1.349 . S
C1165 C1163 1.327 . S
C1165 C1181 1.429 . S
C1165 H1187 0.950 . S
C1166 H1162 0.949 . S
C1166 C1174 1.574 . S
C1166 C1182 1.368 . S
H1167 C1175 0.950 . S
H1168 C1173 0.950 . S
H1169 C1174 0.949 . S
H1170 C1176 0.950 . S
H1171 C1177 0.950 . S
H1172 C1178 0.949 . S
C1173 H1168 0.950 . S
C1173 C1175 1.327 . S
C1173 C1179 1.429 . S
C1174 C1166 1.574 . S
C1174 H1169 0.949 . S
C1174 C1180 1.368 . S
C1175 C1159 1.349 . S
C1175 H1167 0.950 . S
C1175 C1173 1.327 . S
C1176 C1164 1.349 . S
C1176 H1170 0.950 . S
C1176 C1177 1.327 . S
C1177 H1171 0.950 . S
C1177 C1176 1.327 . S
C1177 C1181 1.429 . S
C1178 C1161 1.574 . S
C1178 H1172 0.949 . S
C1178 C1182 1.368 . S
C1179 C1160 1.429 . S
C1179 C1173 1.429 . S
C1179 C1180 1.523 . S
C1180 C1161 1.368 . S
C1180 C1174 1.368 . S
C1180 C1179 1.523 . S
C1181 C1165 1.429 . S
C1181 C1177 1.429 . S
C1181 C1182 1.523 . S
C1182 C1166 1.368 . S
C1182 C1178 1.368 . S
C1182 C1181 1.523 . S
H1183 C1158 0.950 . S
H1184 C1160 0.950 . S
H1185 C1161 0.949 . S
H1186 C1163 0.950 . S
H1187 C1165 0.950 . S
C1188 C1189 1.349 . S
C1188 C1190 1.327 . S
C1188 H1213 0.950 . S
C1189 C1188 1.349 . S
C1189 C1205 1.349 . S
C1190 C1188 1.327 . S
C1190 C1209 1.429 . S
C1190 H1214 0.950 . S
C1191 C1208 1.574 . S
C1191 C1210 1.368 . S
C1191 H1215 0.949 . S
H1192 C1196 0.949 . S
C1193 C1194 1.349 . S
C1193 C1195 1.327 . S
C1193 H1216 0.950 . S
C1194 C1193 1.349 . S
C1194 C1206 1.349 . S
C1195 C1193 1.327 . S
C1195 C1211 1.429 . S
C1195 H1217 0.950 . S
C1196 H1192 0.949 . S
C1196 C1204 1.574 . S
C1196 C1212 1.368 . S
H1197 C1205 0.950 1_556 S
H1198 C1203 0.950 . S
H1199 C1204 0.949 . S
H1200 C1206 0.950 . S
H1201 C1207 0.950 . S
H1202 C1208 0.949 . S
C1203 H1198 0.950 . S
C1203 C1205 1.327 . S
C1203 C1209 1.429 . S
C1204 C1196 1.574 . S
C1204 H1199 0.949 . S
C1204 C1210 1.368 . S
C1205 C1189 1.349 . S
C1205 H1197 0.950 1_554 S
C1205 C1203 1.327 . S
C1206 C1194 1.349 . S
C1206 H1200 0.950 . S
C1206 C1207 1.327 . S
C1207 H1201 0.950 . S
C1207 C1206 1.327 . S
C1207 C1211 1.429 . S
C1208 C1191 1.574 . S
C1208 H1202 0.949 . S
C1208 C1212 1.368 . S
C1209 C1190 1.429 . S
C1209 C1203 1.429 . S
C1209 C1210 1.523 . S
C1210 C1191 1.368 . S
C1210 C1204 1.368 . S
C1210 C1209 1.523 . S
C1211 C1195 1.429 . S
C1211 C1207 1.429 . S
C1211 C1212 1.523 . S
C1212 C1196 1.368 . S
C1212 C1208 1.368 . S
C1212 C1211 1.523 . S
H1213 C1188 0.950 . S
H1214 C1190 0.950 . S
H1215 C1191 0.949 . S
H1216 C1193 0.950 . S
H1217 C1195 0.950 . S
C1218 C1219 1.349 . S
C1218 C1220 1.327 . S
C1218 H1243 0.950 . S
C1219 C1218 1.349 . S
C1219 C1235 1.349 . S
C1220 C1218 1.327 . S
C1220 C1239 1.429 . S
C1220 H1244 0.950 . S
C1221 C1238 1.574 . S
C1221 C1240 1.368 . S
C1221 H1245 0.949 . S
H1222 C1226 0.949 . S
C1223 C1224 1.349 . S
C1223 C1225 1.327 . S
C1223 H1246 0.950 . S
C1224 C1223 1.349 . S
C1224 C1236 1.349 . S
C1225 C1223 1.327 . S
C1225 C1241 1.429 . S
C1225 H1247 0.950 . S
C1226 H1222 0.949 . S
C1226 C1234 1.574 . S
C1226 C1242 1.368 . S
H1227 C1235 0.950 1_554 S
H1228 C1233 0.950 . S
H1229 C1234 0.949 . S
H1230 C1236 0.950 . S
H1231 C1237 0.950 . S
H1232 C1238 0.949 . S
C1233 H1228 0.950 . S
C1233 C1235 1.327 . S
C1233 C1239 1.429 . S
C1234 C1226 1.574 . S
C1234 H1229 0.949 . S
C1234 C1240 1.368 . S
C1235 C1219 1.349 . S
C1235 H1227 0.950 1_556 S
C1235 C1233 1.327 . S
C1236 C1224 1.349 . S
C1236 H1230 0.950 . S
C1236 C1237 1.327 . S
C1237 H1231 0.950 . S
C1237 C1236 1.327 . S
C1237 C1241 1.429 . S
C1238 C1221 1.574 . S
C1238 H1232 0.949 . S
C1238 C1242 1.368 . S
C1239 C1220 1.429 . S
C1239 C1233 1.429 . S
C1239 C1240 1.523 . S
C1240 C1221 1.368 . S
C1240 C1234 1.368 . S
C1240 C1239 1.523 . S
C1241 C1225 1.429 . S
C1241 C1237 1.429 . S
C1241 C1242 1.523 . S
C1242 C1226 1.368 . S
C1242 C1238 1.368 . S
C1242 C1241 1.523 . S
H1243 C1218 0.950 . S
H1244 C1220 0.950 . S
H1245 C1221 0.949 . S
H1246 C1223 0.950 . S
H1247 C1225 0.950 . S
C1248 C1249 1.349 . S
C1248 C1250 1.327 . S
C1248 H1273 0.950 . S
C1249 C1248 1.349 . S
C1249 C1265 1.349 . S
C1250 C1248 1.327 . S
C1250 C1269 1.429 . S
C1250 H1274 0.950 . S
C1251 C1268 1.574 . S
C1251 C1270 1.368 . S
C1251 H1275 0.949 . S
H1252 C1256 0.949 . S
C1253 C1254 1.349 . S
C1253 C1255 1.327 . S
C1253 H1276 0.950 . S
C1254 C1253 1.349 . S
C1254 C1266 1.349 . S
C1255 C1253 1.327 . S
C1255 C1271 1.429 . S
C1255 H1277 0.950 . S
C1256 H1252 0.949 . S
C1256 C1264 1.574 . S
C1256 C1272 1.368 . S
H1257 C1265 0.950 . S
H1258 C1263 0.950 . S
H1259 C1264 0.949 . S
H1260 C1266 0.950 . S
H1261 C1267 0.950 . S
H1262 C1268 0.949 . S
C1263 H1258 0.950 . S
C1263 C1265 1.327 . S
C1263 C1269 1.429 . S
C1264 C1256 1.574 . S
C1264 H1259 0.949 . S
C1264 C1270 1.368 . S
C1265 C1249 1.349 . S
C1265 H1257 0.950 . S
C1265 C1263 1.327 . S
C1266 C1254 1.349 . S
C1266 H1260 0.950 . S
C1266 C1267 1.327 . S
C1267 H1261 0.950 . S
C1267 C1266 1.327 . S
C1267 C1271 1.429 . S
C1268 C1251 1.574 . S
C1268 H1262 0.949 . S
C1268 C1272 1.368 . S
C1269 C1250 1.429 . S
C1269 C1263 1.429 . S
C1269 C1270 1.523 . S
C1270 C1251 1.368 . S
C1270 C1264 1.368 . S
C1270 C1269 1.523 . S
C1271 C1255 1.429 . S
C1271 C1267 1.429 . S
C1271 C1272 1.523 . S
C1272 C1256 1.368 . S
C1272 C1268 1.368 . S
C1272 C1271 1.523 . S
H1273 C1248 0.950 . S
H1274 C1250 0.950 . S
H1275 C1251 0.949 . S
H1276 C1253 0.950 . S
H1277 C1255 0.950 . S
C1278 C1279 1.349 . S
C1278 C1280 1.327 . S
C1278 H1303 0.950 1_545 S
C1279 C1278 1.349 . S
C1279 C1295 1.349 . S
C1280 C1278 1.327 . S
C1280 C1299 1.429 . S
C1280 H1304 0.950 . S
C1281 C1298 1.574 . S
C1281 C1300 1.368 . S
C1281 H1305 0.949 . S
H1282 C1286 0.949 . S
C1283 C1284 1.349 . S
C1283 C1285 1.327 . S
C1283 H1306 0.950 . S
C1284 C1283 1.349 . S
C1284 C1296 1.349 . S
C1285 C1283 1.327 . S
C1285 C1301 1.429 . S
C1285 H1307 0.950 . S
C1286 H1282 0.949 . S
C1286 C1294 1.574 . S
C1286 C1302 1.368 . S
H1287 C1295 0.950 . S
H1288 C1293 0.950 . S
H1289 C1294 0.949 . S
H1290 C1296 0.950 . S
H1291 C1297 0.950 . S
H1292 C1298 0.949 . S
C1293 H1288 0.950 . S
C1293 C1295 1.327 . S
C1293 C1299 1.429 . S
C1294 C1286 1.574 . S
C1294 H1289 0.949 . S
C1294 C1300 1.368 . S
C1295 C1279 1.349 . S
C1295 H1287 0.950 . S
C1295 C1293 1.327 . S
C1296 C1284 1.349 . S
C1296 H1290 0.950 . S
C1296 C1297 1.327 . S
C1297 H1291 0.950 . S
C1297 C1296 1.327 . S
C1297 C1301 1.429 . S
C1298 C1281 1.574 . S
C1298 H1292 0.949 . S
C1298 C1302 1.368 . S
C1299 C1280 1.429 . S
C1299 C1293 1.429 . S
C1299 C1300 1.523 . S
C1300 C1281 1.368 . S
C1300 C1294 1.368 . S
C1300 C1299 1.523 . S
C1301 C1285 1.429 . S
C1301 C1297 1.429 . S
C1301 C1302 1.523 . S
C1302 C1286 1.368 . S
C1302 C1298 1.368 . S
C1302 C1301 1.523 . S
H1303 C1278 0.950 1_565 S
H1304 C1280 0.950 . S
H1305 C1281 0.949 . S
H1306 C1283 0.950 . S
H1307 C1285 0.950 . S
C409 C339 0.284 . S
C414 C33 0.473 . S
C439 C67 0.753 . S
C444 C373 0.753 . S
C469 C407 0.473 . S
C474 C101 0.284 . S
C499 C135 0.447 . S
C504 C237 0.326 . S
C529 C169 0.554 . S
C534 C271 0.560 . S
C559 C305 0.447 . S
C564 C203 0.326 . S
C589 C9 1.107 . S
C594 C138 1.088 . S
C619 C172 1.543 . S
C624 C43 1.486 . S
C649 C77 1.399 . S
C654 C2 1.453 . S
C679 C111 1.182 . S
C684 C36 1.163 . S
C709 C70 1.400 . S
C714 C145 1.358 . S
C739 C104 1.467 . S
C744 C179 1.408 . S
C769 C274 1.467 . S
C774 C213 1.408 . S
C799 C247 1.357 . S
C804 C308 1.398 . S
C829 C342 1.163 . S
C834 C281 1.182 . S
C859 C376 1.453 . S
C864 C315 1.399 . S
C889 C206 1.542 . S
C894 C349 1.486 . S
C919 C383 1.107 . S
C924 C240 1.088 . S
C949 C360 1.105 . S
C954 C20 1.067 . S
C979 C394 1.067 . S
C984 C54 1.105 . S
C1009 C88 0.884 . S
C1014 C224 0.885 . S
C1039 C122 1.007 . S
C1044 C258 1.046 . S
C1069 C292 1.007 . S
C1074 C156 1.046 . S
C1099 C190 0.885 . S
C1104 C326 0.884 . S
C1129 C209 0.849 . S
C1134 C5 0.811 . S
C1159 C243 0.719 . S
C1164 C39 0.715 . S
C1189 C73 0.840 . S
C1194 C277 0.809 . S
C1219 C311 0.840 . S
C1224 C107 0.809 . S
C1249 C141 0.719 . S
C1254 C345 0.715 . S
C1279 C379 0.811 . S
C1284 C175 0.849 . S
