# Generated by pormake.
# Topology wna, (6)-cn, num edge types: 1
# Building blocks:
#     Node 0, Type 0, BuildingBlock: BETFAJ_clean_sbu_0, # of connection points: 6
#     Node 1, Type 0, BuildingBlock: BETFAJ_clean_sbu_0, # of connection points: 6
#     Node 2, Type 0, BuildingBlock: BETFAJ_clean_sbu_0, # of connection points: 6
#     Node 3, Type 0, BuildingBlock: BETFAJ_clean_sbu_0, # of connection points: 6
#     Node 4, Type 0, BuildingBlock: BETFAJ_clean_sbu_0, # of connection points: 6
#     Node 5, Type 0, BuildingBlock: BETFAJ_clean_sbu_0, # of connection points: 6
#     Node 6, Type 0, BuildingBlock: BETFAJ_clean_sbu_0, # of connection points: 6
#     Node 7, Type 0, BuildingBlock: BETFAJ_clean_sbu_0, # of connection points: 6
#     Node 8, Type 0, BuildingBlock: BETFAJ_clean_sbu_0, # of connection points: 6
#     Node 9, Type 0, BuildingBlock: BETFAJ_clean_sbu_0, # of connection points: 6
#     Node 10, Type 0, BuildingBlock: BETFAJ_clean_sbu_0, # of connection points: 6
#     Node 11, Type 0, BuildingBlock: BETFAJ_clean_sbu_0, # of connection points: 6
#     Node 12, Type 0, BuildingBlock: BETFAJ_clean_sbu_0, # of connection points: 6
#     Node 13, Type 0, BuildingBlock: BETFAJ_clean_sbu_0, # of connection points: 6
#     Node 14, Type 0, BuildingBlock: BETFAJ_clean_sbu_0, # of connection points: 6
#     Node 15, Type 0, BuildingBlock: BETFAJ_clean_sbu_0, # of connection points: 6
#     Node 16, Type 0, BuildingBlock: BETFAJ_clean_sbu_0, # of connection points: 6
#     Node 17, Type 0, BuildingBlock: BETFAJ_clean_sbu_0, # of connection points: 6
#     Node 18, Type 0, BuildingBlock: BETFAJ_clean_sbu_0, # of connection points: 6
#     Node 19, Type 0, BuildingBlock: BETFAJ_clean_sbu_0, # of connection points: 6
#     Node 20, Type 0, BuildingBlock: BETFAJ_clean_sbu_0, # of connection points: 6
#     Node 21, Type 0, BuildingBlock: BETFAJ_clean_sbu_0, # of connection points: 6
#     Node 22, Type 0, BuildingBlock: BETFAJ_clean_sbu_0, # of connection points: 6
#     Node 23, Type 0, BuildingBlock: BETFAJ_clean_sbu_0, # of connection points: 6
#     Node 24, Type 0, BuildingBlock: BETFAJ_clean_sbu_0, # of connection points: 6
#     Node 25, Type 0, BuildingBlock: BETFAJ_clean_sbu_0, # of connection points: 6
#     Node 26, Type 0, BuildingBlock: BETFAJ_clean_sbu_0, # of connection points: 6
#     Node 27, Type 0, BuildingBlock: BETFAJ_clean_sbu_0, # of connection points: 6
#     Node 28, Type 0, BuildingBlock: BETFAJ_clean_sbu_0, # of connection points: 6
#     Node 29, Type 0, BuildingBlock: BETFAJ_clean_sbu_0, # of connection points: 6
#     Node 30, Type 0, BuildingBlock: BETFAJ_clean_sbu_0, # of connection points: 6
#     Node 31, Type 0, BuildingBlock: BETFAJ_clean_sbu_0, # of connection points: 6
#     Node 32, Type 0, BuildingBlock: BETFAJ_clean_sbu_0, # of connection points: 6
#     Node 33, Type 0, BuildingBlock: BETFAJ_clean_sbu_0, # of connection points: 6
#     Node 34, Type 0, BuildingBlock: BETFAJ_clean_sbu_0, # of connection points: 6
#     Node 35, Type 0, BuildingBlock: BETFAJ_clean_sbu_0, # of connection points: 6
#     Edge 36, Type (0, 0), BuildingBlock: ZUJKAS_clean_linker_0, # of connection points: 2
#     Edge 37, Type (0, 0), BuildingBlock: ZUJKAS_clean_linker_0, # of connection points: 2
#     Edge 38, Type (0, 0), BuildingBlock: ZUJKAS_clean_linker_0, # of connection points: 2
#     Edge 39, Type (0, 0), BuildingBlock: ZUJKAS_clean_linker_0, # of connection points: 2
#     Edge 40, Type (0, 0), BuildingBlock: ZUJKAS_clean_linker_0, # of connection points: 2
#     Edge 41, Type (0, 0), BuildingBlock: ZUJKAS_clean_linker_0, # of connection points: 2
#     Edge 42, Type (0, 0), BuildingBlock: ZUJKAS_clean_linker_0, # of connection points: 2
#     Edge 43, Type (0, 0), BuildingBlock: ZUJKAS_clean_linker_0, # of connection points: 2
#     Edge 44, Type (0, 0), BuildingBlock: ZUJKAS_clean_linker_0, # of connection points: 2
#     Edge 45, Type (0, 0), BuildingBlock: ZUJKAS_clean_linker_0, # of connection points: 2
#     Edge 46, Type (0, 0), BuildingBlock: ZUJKAS_clean_linker_0, # of connection points: 2
#     Edge 47, Type (0, 0), BuildingBlock: ZUJKAS_clean_linker_0, # of connection points: 2
#     Edge 48, Type (0, 0), BuildingBlock: ZUJKAS_clean_linker_0, # of connection points: 2
#     Edge 49, Type (0, 0), BuildingBlock: ZUJKAS_clean_linker_0, # of connection points: 2
#     Edge 50, Type (0, 0), BuildingBlock: ZUJKAS_clean_linker_0, # of connection points: 2
#     Edge 51, Type (0, 0), BuildingBlock: ZUJKAS_clean_linker_0, # of connection points: 2
#     Edge 52, Type (0, 0), BuildingBlock: ZUJKAS_clean_linker_0, # of connection points: 2
#     Edge 53, Type (0, 0), BuildingBlock: ZUJKAS_clean_linker_0, # of connection points: 2
#     Edge 54, Type (0, 0), BuildingBlock: ZUJKAS_clean_linker_0, # of connection points: 2
#     Edge 55, Type (0, 0), BuildingBlock: ZUJKAS_clean_linker_0, # of connection points: 2
#     Edge 56, Type (0, 0), BuildingBlock: ZUJKAS_clean_linker_0, # of connection points: 2
#     Edge 57, Type (0, 0), BuildingBlock: ZUJKAS_clean_linker_0, # of connection points: 2
#     Edge 58, Type (0, 0), BuildingBlock: ZUJKAS_clean_linker_0, # of connection points: 2
#     Edge 59, Type (0, 0), BuildingBlock: ZUJKAS_clean_linker_0, # of connection points: 2
#     Edge 60, Type (0, 0), BuildingBlock: ZUJKAS_clean_linker_0, # of connection points: 2
#     Edge 61, Type (0, 0), BuildingBlock: ZUJKAS_clean_linker_0, # of connection points: 2
#     Edge 62, Type (0, 0), BuildingBlock: ZUJKAS_clean_linker_0, # of connection points: 2
#     Edge 63, Type (0, 0), BuildingBlock: ZUJKAS_clean_linker_0, # of connection points: 2
#     Edge 64, Type (0, 0), BuildingBlock: ZUJKAS_clean_linker_0, # of connection points: 2
#     Edge 65, Type (0, 0), BuildingBlock: ZUJKAS_clean_linker_0, # of connection points: 2
#     Edge 66, Type (0, 0), BuildingBlock: ZUJKAS_clean_linker_0, # of connection points: 2
#     Edge 67, Type (0, 0), BuildingBlock: ZUJKAS_clean_linker_0, # of connection points: 2
#     Edge 68, Type (0, 0), BuildingBlock: ZUJKAS_clean_linker_0, # of connection points: 2
#     Edge 69, Type (0, 0), BuildingBlock: ZUJKAS_clean_linker_0, # of connection points: 2
#     Edge 70, Type (0, 0), BuildingBlock: ZUJKAS_clean_linker_0, # of connection points: 2
#     Edge 71, Type (0, 0), BuildingBlock: ZUJKAS_clean_linker_0, # of connection points: 2
#     Edge 72, Type (0, 0), BuildingBlock: ZUJKAS_clean_linker_0, # of connection points: 2
#     Edge 73, Type (0, 0), BuildingBlock: ZUJKAS_clean_linker_0, # of connection points: 2
#     Edge 74, Type (0, 0), BuildingBlock: ZUJKAS_clean_linker_0, # of connection points: 2
#     Edge 75, Type (0, 0), BuildingBlock: ZUJKAS_clean_linker_0, # of connection points: 2
#     Edge 76, Type (0, 0), BuildingBlock: ZUJKAS_clean_linker_0, # of connection points: 2
#     Edge 77, Type (0, 0), BuildingBlock: ZUJKAS_clean_linker_0, # of connection points: 2
#     Edge 78, Type (0, 0), BuildingBlock: ZUJKAS_clean_linker_0, # of connection points: 2
#     Edge 79, Type (0, 0), BuildingBlock: ZUJKAS_clean_linker_0, # of connection points: 2
#     Edge 80, Type (0, 0), BuildingBlock: ZUJKAS_clean_linker_0, # of connection points: 2
#     Edge 81, Type (0, 0), BuildingBlock: ZUJKAS_clean_linker_0, # of connection points: 2
#     Edge 82, Type (0, 0), BuildingBlock: ZUJKAS_clean_linker_0, # of connection points: 2
#     Edge 83, Type (0, 0), BuildingBlock: ZUJKAS_clean_linker_0, # of connection points: 2
#     Edge 84, Type (0, 0), BuildingBlock: ZUJKAS_clean_linker_0, # of connection points: 2
#     Edge 85, Type (0, 0), BuildingBlock: ZUJKAS_clean_linker_0, # of connection points: 2
#     Edge 86, Type (0, 0), BuildingBlock: ZUJKAS_clean_linker_0, # of connection points: 2
#     Edge 87, Type (0, 0), BuildingBlock: ZUJKAS_clean_linker_0, # of connection points: 2
#     Edge 88, Type (0, 0), BuildingBlock: ZUJKAS_clean_linker_0, # of connection points: 2
#     Edge 89, Type (0, 0), BuildingBlock: ZUJKAS_clean_linker_0, # of connection points: 2
#     Edge 90, Type (0, 0), BuildingBlock: ZUJKAS_clean_linker_0, # of connection points: 2
#     Edge 91, Type (0, 0), BuildingBlock: ZUJKAS_clean_linker_0, # of connection points: 2
#     Edge 92, Type (0, 0), BuildingBlock: ZUJKAS_clean_linker_0, # of connection points: 2
#     Edge 93, Type (0, 0), BuildingBlock: ZUJKAS_clean_linker_0, # of connection points: 2
#     Edge 94, Type (0, 0), BuildingBlock: ZUJKAS_clean_linker_0, # of connection points: 2
#     Edge 95, Type (0, 0), BuildingBlock: ZUJKAS_clean_linker_0, # of connection points: 2
#     Edge 96, Type (0, 0), BuildingBlock: ZUJKAS_clean_linker_0, # of connection points: 2
#     Edge 97, Type (0, 0), BuildingBlock: ZUJKAS_clean_linker_0, # of connection points: 2
#     Edge 98, Type (0, 0), BuildingBlock: ZUJKAS_clean_linker_0, # of connection points: 2
#     Edge 99, Type (0, 0), BuildingBlock: ZUJKAS_clean_linker_0, # of connection points: 2
#     Edge 100, Type (0, 0), BuildingBlock: ZUJKAS_clean_linker_0, # of connection points: 2
#     Edge 101, Type (0, 0), BuildingBlock: ZUJKAS_clean_linker_0, # of connection points: 2
#     Edge 102, Type (0, 0), BuildingBlock: ZUJKAS_clean_linker_0, # of connection points: 2
#     Edge 103, Type (0, 0), BuildingBlock: ZUJKAS_clean_linker_0, # of connection points: 2
#     Edge 104, Type (0, 0), BuildingBlock: ZUJKAS_clean_linker_0, # of connection points: 2
#     Edge 105, Type (0, 0), BuildingBlock: ZUJKAS_clean_linker_0, # of connection points: 2
#     Edge 106, Type (0, 0), BuildingBlock: ZUJKAS_clean_linker_0, # of connection points: 2
#     Edge 107, Type (0, 0), BuildingBlock: ZUJKAS_clean_linker_0, # of connection points: 2
#     Edge 108, Type (0, 0), BuildingBlock: ZUJKAS_clean_linker_0, # of connection points: 2
#     Edge 109, Type (0, 0), BuildingBlock: ZUJKAS_clean_linker_0, # of connection points: 2
#     Edge 110, Type (0, 0), BuildingBlock: ZUJKAS_clean_linker_0, # of connection points: 2
#     Edge 111, Type (0, 0), BuildingBlock: ZUJKAS_clean_linker_0, # of connection points: 2
#     Edge 112, Type (0, 0), BuildingBlock: ZUJKAS_clean_linker_0, # of connection points: 2
#     Edge 113, Type (0, 0), BuildingBlock: ZUJKAS_clean_linker_0, # of connection points: 2
#     Edge 114, Type (0, 0), BuildingBlock: ZUJKAS_clean_linker_0, # of connection points: 2
#     Edge 115, Type (0, 0), BuildingBlock: ZUJKAS_clean_linker_0, # of connection points: 2
#     Edge 116, Type (0, 0), BuildingBlock: ZUJKAS_clean_linker_0, # of connection points: 2
#     Edge 117, Type (0, 0), BuildingBlock: ZUJKAS_clean_linker_0, # of connection points: 2
#     Edge 118, Type (0, 0), BuildingBlock: ZUJKAS_clean_linker_0, # of connection points: 2
#     Edge 119, Type (0, 0), BuildingBlock: ZUJKAS_clean_linker_0, # of connection points: 2
#     Edge 120, Type (0, 0), BuildingBlock: ZUJKAS_clean_linker_0, # of connection points: 2
#     Edge 121, Type (0, 0), BuildingBlock: ZUJKAS_clean_linker_0, # of connection points: 2
#     Edge 122, Type (0, 0), BuildingBlock: ZUJKAS_clean_linker_0, # of connection points: 2
#     Edge 123, Type (0, 0), BuildingBlock: ZUJKAS_clean_linker_0, # of connection points: 2
#     Edge 124, Type (0, 0), BuildingBlock: ZUJKAS_clean_linker_0, # of connection points: 2
#     Edge 125, Type (0, 0), BuildingBlock: ZUJKAS_clean_linker_0, # of connection points: 2
#     Edge 126, Type (0, 0), BuildingBlock: ZUJKAS_clean_linker_0, # of connection points: 2
#     Edge 127, Type (0, 0), BuildingBlock: ZUJKAS_clean_linker_0, # of connection points: 2
#     Edge 128, Type (0, 0), BuildingBlock: ZUJKAS_clean_linker_0, # of connection points: 2
#     Edge 129, Type (0, 0), BuildingBlock: ZUJKAS_clean_linker_0, # of connection points: 2
#     Edge 130, Type (0, 0), BuildingBlock: ZUJKAS_clean_linker_0, # of connection points: 2
#     Edge 131, Type (0, 0), BuildingBlock: ZUJKAS_clean_linker_0, # of connection points: 2
#     Edge 132, Type (0, 0), BuildingBlock: ZUJKAS_clean_linker_0, # of connection points: 2
#     Edge 133, Type (0, 0), BuildingBlock: ZUJKAS_clean_linker_0, # of connection points: 2
#     Edge 134, Type (0, 0), BuildingBlock: ZUJKAS_clean_linker_0, # of connection points: 2
#     Edge 135, Type (0, 0), BuildingBlock: ZUJKAS_clean_linker_0, # of connection points: 2
#     Edge 136, Type (0, 0), BuildingBlock: ZUJKAS_clean_linker_0, # of connection points: 2
#     Edge 137, Type (0, 0), BuildingBlock: ZUJKAS_clean_linker_0, # of connection points: 2
#     Edge 138, Type (0, 0), BuildingBlock: ZUJKAS_clean_linker_0, # of connection points: 2
#     Edge 139, Type (0, 0), BuildingBlock: ZUJKAS_clean_linker_0, # of connection points: 2
#     Edge 140, Type (0, 0), BuildingBlock: ZUJKAS_clean_linker_0, # of connection points: 2
#     Edge 141, Type (0, 0), BuildingBlock: ZUJKAS_clean_linker_0, # of connection points: 2
#     Edge 142, Type (0, 0), BuildingBlock: ZUJKAS_clean_linker_0, # of connection points: 2
#     Edge 143, Type (0, 0), BuildingBlock: ZUJKAS_clean_linker_0, # of connection points: 2
# Relax obj value: 0.165
# Max RMSD: 0.223
# Mean RMSD: 0.208
data_MOF--net-wna--node1-BETFAJ_clean_sbu_0--edge1-ZUJKAS_clean_linker_0
_symmetry_space_group_name_H-M    P1
_symmetry_Int_Tables_number       1
_symmetry_cell_setting            triclinic
loop_
_symmetry_equiv_pos_as_xyz
'x, y, z'
_cell_length_a     53.299916
_cell_length_b     53.282434
_cell_length_c     176.32166
_cell_angle_alpha  90.031977
_cell_angle_beta   89.955764
_cell_angle_gamma 120.00146
loop_
_atom_site_label
_atom_site_type_symbol
_atom_site_fract_x
_atom_site_fract_y
_atom_site_fract_z
_atom_type_partial_charge
Sm0 Sm 0.1076 0.24991 0.17182 0.0
Sm1 Sm 0.11413 0.24206 0.18975 0.0
C2 C 0.10482 0.26972 0.15818 0.0
C3 C 0.11777 0.27851 0.15048 0.0
C4 C 0.13273 0.30793 0.14839 0.0
C5 C 0.14119 0.31618 0.14084 0.0
C6 C 0.13463 0.29519 0.13517 0.0
C7 C 0.12052 0.26582 0.13731 0.0
C8 C 0.11217 0.25759 0.14485 0.0
C9 C 0.11579 0.20449 0.17555 0.0
C10 C 0.17338 0.28378 0.17979 0.0
C11 C 0.11809 0.22355 0.2034 0.0
C12 C 0.10373 0.21838 0.21088 0.0
C13 C 0.10266 0.19682 0.21565 0.0
C14 C 0.08966 0.19186 0.22282 0.0
C15 C 0.07742 0.20841 0.2254 0.0
C16 C 0.07825 0.22983 0.22054 0.0
C17 C 0.09122 0.23473 0.21336 0.0
C18 C 0.09261 0.27965 0.18721 0.0
C19 C 0.05168 0.2024 0.18127 0.0
O20 O 0.1179 0.2868 0.16397 0.0
O21 O 0.09203 0.24219 0.15995 0.0
O22 O 0.12759 0.22877 0.1789 0.0
O23 O 0.10178 0.20496 0.16957 0.0
O24 O 0.15734 0.27954 0.17362 0.0
O25 O 0.16198 0.27125 0.18638 0.0
O26 O 0.1028 0.20601 0.19789 0.0
O27 O 0.13379 0.25063 0.20122 0.0
O28 O 0.09934 0.26654 0.18246 0.0
O29 O 0.09788 0.27334 0.1939 0.0
O30 O 0.06973 0.2037 0.1866 0.0
O31 O 0.06004 0.22168 0.17571 0.0
H32 H 0.13698 0.32458 0.15255 0.0
H33 H 0.15179 0.33898 0.1394 0.0
H34 H 0.11548 0.24908 0.13312 0.0
H35 H 0.10051 0.2347 0.14621 0.0
H36 H 0.11198 0.1838 0.21383 0.0
H37 H 0.089 0.17482 0.22631 0.0
H38 H 0.06934 0.24321 0.22234 0.0
H39 H 0.09167 0.25143 0.20977 0.0
Sm40 Sm 0.7641 0.86113 0.17144 0.0
Sm41 Sm 0.77065 0.87467 0.18937 0.0
C42 C 0.74469 0.83848 0.15781 0.0
C43 C 0.73334 0.84109 0.15035 0.0
C44 C 0.70799 0.8173 0.14751 0.0
C45 C 0.69881 0.81741 0.14008 0.0
C46 C 0.71485 0.84131 0.13527 0.0
C47 C 0.73975 0.86556 0.13821 0.0
C48 C 0.7489 0.86546 0.14567 0.0
C49 C 0.80847 0.91499 0.17541 0.0
C50 C 0.72811 0.89086 0.17935 0.0
C51 C 0.78856 0.89699 0.20306 0.0
C52 C 0.79451 0.88808 0.2105 0.0
C53 C 0.81907 0.90763 0.21463 0.0
C54 C 0.82494 0.89997 0.22174 0.0
C55 C 0.8063 0.87252 0.22491 0.0
C56 C 0.78181 0.85283 0.2207 0.0
C57 C 0.77601 0.86049 0.21357 0.0
C58 C 0.73465 0.8154 0.18671 0.0
C59 C 0.81215 0.85377 0.18089 0.0
O60 O 0.72781 0.83165 0.16377 0.0
O61 O 0.772 0.85645 0.15933 0.0
O62 O 0.78394 0.90202 0.17863 0.0
O63 O 0.80897 0.90068 0.16948 0.0
O64 O 0.73421 0.88091 0.17311 0.0
O65 O 0.73938 0.89104 0.18607 0.0
O66 O 0.80639 0.90042 0.1975 0.0
O67 O 0.76141 0.88474 0.20089 0.0
O68 O 0.74741 0.83543 0.18198 0.0
O69 O 0.74059 0.82685 0.19342 0.0
O70 O 0.80988 0.86972 0.1863 0.0
O71 O 0.79332 0.84292 0.17523 0.0
H72 H 0.69579 0.79811 0.15096 0.0
H73 H 0.67975 0.79821 0.138 0.0
H74 H 0.7524 0.88452 0.13473 0.0
H75 H 0.76857 0.88415 0.14768 0.0
H76 H 0.83376 0.92895 0.21236 0.0
H77 H 0.84429 0.91555 0.22471 0.0
H78 H 0.76677 0.83163 0.22296 0.0
H79 H 0.75695 0.84489 0.21049 0.0
Sm80 Sm 0.15191 0.90186 0.17164 0.0
Sm81 Sm 0.13632 0.89768 0.19028 0.0
C82 C 0.18066 0.90875 0.15881 0.0
C83 C 0.1792 0.89777 0.15101 0.0
C84 C 0.20428 0.8999 0.14781 0.0
C85 C 0.20468 0.89248 0.14021 0.0
C86 C 0.17994 0.88274 0.13561 0.0
C87 C 0.15448 0.87973 0.13891 0.0
C88 C 0.15413 0.88724 0.14653 0.0
C89 C 0.09409 0.88384 0.17431 0.0
C90 C 0.11971 0.83813 0.18038 0.0
C91 C 0.11408 0.8951 0.20388 0.0
C92 C 0.12354 0.90957 0.21137 0.0
C93 C 0.10864 0.92235 0.21466 0.0
C94 C 0.11698 0.93605 0.22174 0.0
C95 C 0.14038 0.93717 0.22573 0.0
C96 C 0.15531 0.92434 0.22242 0.0
C97 C 0.14706 0.91077 0.21532 0.0
C98 C 0.19496 0.91774 0.18735 0.0
C99 C 0.15567 0.9581 0.18077 0.0
O100 O 0.18133 0.89317 0.16449 0.0
O101 O 0.16572 0.92168 0.16026 0.0
O102 O 0.11394 0.89004 0.17908 0.0
O103 O 0.10487 0.88665 0.16752 0.0
O104 O 0.13569 0.85366 0.17451 0.0
O105 O 0.11501 0.84986 0.18649 0.0
O106 O 0.11282 0.91081 0.19832 0.0
O107 O 0.12385 0.87793 0.20173 0.0
O108 O 0.17454 0.91062 0.18276 0.0
O109 O 0.18416 0.91376 0.19413 0.0
O110 O 0.14258 0.94176 0.18676 0.0
O111 O 0.16442 0.94898 0.17484 0.0
H112 H 0.22387 0.90795 0.15115 0.0
H113 H 0.2245 0.89458 0.13792 0.0
H114 H 0.13508 0.87246 0.13553 0.0
H115 H 0.13449 0.88545 0.14887 0.0
H116 H 0.09039 0.92166 0.21176 0.0
H117 H 0.10474 0.94535 0.22414 0.0
H118 H 0.17363 0.92508 0.22529 0.0
H119 H 0.15914 0.9013 0.21292 0.0
Sm120 Sm 0.25047 0.10472 0.35307 0.0
Sm121 Sm 0.24451 0.11206 0.33514 0.0
C122 C 0.26869 0.10142 0.36687 0.0
C123 C 0.27802 0.11482 0.37451 0.0
C124 C 0.30741 0.1286 0.3766 0.0
C125 C 0.31592 0.13739 0.38411 0.0
C126 C 0.2952 0.13234 0.38975 0.0
C127 C 0.26591 0.11941 0.3876 0.0
C128 C 0.25743 0.11074 0.3801 0.0
C129 C 0.20622 0.11414 0.34894 0.0
C130 C 0.28651 0.17071 0.34524 0.0
C131 C 0.22671 0.11655 0.32144 0.0
C132 C 0.22064 0.10152 0.31405 0.0
C133 C 0.20023 0.10213 0.30915 0.0
C134 C 0.19427 0.08825 0.30209 0.0
C135 C 0.20864 0.07343 0.29975 0.0
C136 C 0.22895 0.07267 0.30472 0.0
C137 C 0.23484 0.08652 0.3118 0.0
C138 C 0.28083 0.08924 0.33787 0.0
C139 C 0.20331 0.04936 0.34345 0.0
O140 O 0.28628 0.11302 0.36109 0.0
O141 O 0.24138 0.09034 0.36504 0.0
O142 O 0.23097 0.12595 0.34586 0.0
O143 O 0.20524 0.09897 0.35482 0.0
O144 O 0.28092 0.15443 0.35142 0.0
O145 O 0.27479 0.15966 0.33855 0.0
O146 O 0.20887 0.10227 0.327 0.0
O147 O 0.25391 0.13111 0.32359 0.0
O148 O 0.26772 0.09618 0.34257 0.0
O149 O 0.27515 0.09489 0.33115 0.0
O150 O 0.20549 0.06769 0.33809 0.0
O151 O 0.22203 0.05731 0.34913 0.0
H152 H 0.32378 0.13165 0.37247 0.0
H153 H 0.33862 0.14702 0.38556 0.0
H154 H 0.2494 0.11556 0.39177 0.0
H155 H 0.23456 0.1 0.37874 0.0
H156 H 0.18886 0.11339 0.3108 0.0
H157 H 0.17812 0.0889 0.29851 0.0
H158 H 0.24069 0.06177 0.3031 0.0
H159 H 0.2506 0.08563 0.3155 0.0
Sm160 Sm 0.90496 0.14944 0.35255 0.0
Sm161 Sm 0.89891 0.13713 0.33578 0.0
C162 C 0.90761 0.1707 0.36637 0.0
C163 C 0.89368 0.16813 0.37385 0.0
C164 C 0.89274 0.19214 0.37679 0.0
C165 C 0.88401 0.19216 0.38429 0.0
C166 C 0.87611 0.16817 0.38907 0.0
C167 C 0.876 0.14367 0.38602 0.0
C168 C 0.8847 0.14364 0.3785 0.0
C169 C 0.89401 0.09448 0.3492 0.0
C170 C 0.83938 0.11853 0.34473 0.0
C171 C 0.9006 0.12251 0.32142 0.0
C172 C 0.91797 0.13314 0.31434 0.0
C173 C 0.93034 0.11759 0.3112 0.0
C174 C 0.94491 0.12577 0.30424 0.0
C175 C 0.94734 0.14966 0.30019 0.0
C176 C 0.93534 0.16552 0.3034 0.0
C177 C 0.92084 0.15739 0.31039 0.0
C178 C 0.91379 0.19354 0.33956 0.0
C179 C 0.96092 0.15557 0.34401 0.0
O180 O 0.8986 0.17879 0.36044 0.0
O181 O 0.91598 0.15208 0.36473 0.0
O182 O 0.88221 0.107 0.34591 0.0
O183 O 0.91008 0.10993 0.3548 0.0
O184 O 0.85612 0.13465 0.35039 0.0
O185 O 0.85069 0.11278 0.33878 0.0
O186 O 0.91164 0.11525 0.32705 0.0
O187 O 0.8863 0.13516 0.32369 0.0
O188 O 0.92408 0.17912 0.3425 0.0
O189 O 0.89583 0.17865 0.33423 0.0
O190 O 0.94271 0.14067 0.33853 0.0
O191 O 0.953 0.16666 0.34959 0.0
H192 H 0.8999 0.21144 0.37338 0.0
H193 H 0.8847 0.21155 0.38644 0.0
H194 H 0.86962 0.12462 0.38947 0.0
H195 H 0.88521 0.12478 0.37642 0.0
H196 H 0.92822 0.09865 0.31407 0.0
H197 H 0.95351 0.11279 0.30191 0.0
H198 H 0.9371 0.18425 0.3005 0.0
H199 H 0.91157 0.16988 0.31264 0.0
Sm200 Sm 0.86137 0.76133 0.35248 0.0
Sm201 Sm 0.87563 0.76845 0.33452 0.0
C202 C 0.8381 0.74156 0.36603 0.0
C203 C 0.8394 0.7297 0.37354 0.0
C204 C 0.81604 0.703 0.37587 0.0
C205 C 0.81428 0.69327 0.38333 0.0
C206 C 0.8358 0.71009 0.38868 0.0
C207 C 0.85983 0.73629 0.38626 0.0
C208 C 0.86158 0.74603 0.37878 0.0
C209 C 0.91505 0.80634 0.34859 0.0
C210 C 0.8919 0.72613 0.3446 0.0
C211 C 0.89827 0.78709 0.3209 0.0
C212 C 0.88931 0.79316 0.31348 0.0
C213 C 0.90834 0.81846 0.30951 0.0
C214 C 0.90054 0.82455 0.30245 0.0
C215 C 0.8735 0.8054 0.29918 0.0
C216 C 0.85436 0.7801 0.30319 0.0
C217 C 0.86213 0.7741 0.31028 0.0
C218 C 0.81657 0.73154 0.33712 0.0
C219 C 0.85284 0.80846 0.34297 0.0
O220 O 0.83142 0.72488 0.36003 0.0
O221 O 0.85652 0.76887 0.36461 0.0
O222 O 0.90245 0.78183 0.34535 0.0
O223 O 0.90044 0.80652 0.35449 0.0
O224 O 0.88147 0.73179 0.35082 0.0
O225 O 0.89242 0.73765 0.33789 0.0
O226 O 0.9014 0.80464 0.3265 0.0
O227 O 0.88629 0.75986 0.323 0.0
O228 O 0.83649 0.7447 0.34184 0.0
O229 O 0.82803 0.73757 0.33041 0.0
O230 O 0.86931 0.80683 0.3376 0.0
O231 O 0.84221 0.78956 0.34861 0.0
H232 H 0.79854 0.69005 0.37198 0.0
H233 H 0.79573 0.67275 0.38494 0.0
H234 H 0.87671 0.74994 0.39022 0.0
H235 H 0.8798 0.76683 0.37719 0.0
H236 H 0.92941 0.83348 0.31186 0.0
H237 H 0.91596 0.84406 0.2995 0.0
H238 H 0.83323 0.76505 0.3009 0.0
H239 H 0.84686 0.75454 0.31324 0.0
Sm240 Sm 0.89955 0.76997 0.83494 0.0
Sm241 Sm 0.90553 0.7617 0.85288 0.0
C242 C 0.89579 0.78887 0.82133 0.0
C243 C 0.91076 0.79476 0.81393 0.0
C244 C 0.90938 0.81438 0.8089 0.0
C245 C 0.92314 0.82009 0.80183 0.0
C246 C 0.93862 0.80624 0.79961 0.0
C247 C 0.94018 0.78674 0.80473 0.0
C248 C 0.92643 0.7811 0.81182 0.0
C249 C 0.92167 0.73285 0.83748 0.0
C250 C 0.96151 0.81009 0.84361 0.0
C251 C 0.90837 0.74187 0.8665 0.0
C252 C 0.89544 0.73293 0.8742 0.0
C253 C 0.88019 0.70345 0.87622 0.0
C254 C 0.87178 0.69504 0.88377 0.0
C255 C 0.87869 0.71593 0.88949 0.0
C256 C 0.89308 0.74536 0.88741 0.0
C257 C 0.90137 0.75376 0.87988 0.0
C258 C 0.89638 0.80653 0.84911 0.0
C259 C 0.84004 0.72733 0.84475 0.0
O260 O 0.91048 0.80625 0.82693 0.0
O261 O 0.88055 0.7616 0.82339 0.0
O262 O 0.91458 0.74566 0.84224 0.0
O263 O 0.91654 0.73929 0.83079 0.0
O264 O 0.94356 0.80879 0.83826 0.0
O265 O 0.95313 0.7904 0.84908 0.0
O266 O 0.8954 0.7248 0.8607 0.0
O267 O 0.92099 0.76942 0.86476 0.0
O268 O 0.88525 0.78229 0.84577 0.0
O269 O 0.91031 0.80637 0.85514 0.0
O270 O 0.85593 0.73153 0.85095 0.0
O271 O 0.8516 0.74017 0.8382 0.0
H272 H 0.89759 0.82532 0.81044 0.0
H273 H 0.92187 0.83562 0.79812 0.0
H274 H 0.95162 0.77544 0.80322 0.0
H275 H 0.92788 0.76594 0.81563 0.0
H276 H 0.87568 0.68688 0.87202 0.0
H277 H 0.86097 0.6722 0.88516 0.0
H278 H 0.89839 0.76203 0.89164 0.0
H279 H 0.91327 0.77668 0.87857 0.0
Sm280 Sm 0.24395 0.13452 0.8342 0.0
Sm281 Sm 0.25492 0.14954 0.85284 0.0
C282 C 0.22451 0.11224 0.82059 0.0
C283 C 0.21914 0.12133 0.81312 0.0
C284 C 0.19475 0.10193 0.80891 0.0
C285 C 0.18918 0.10981 0.8018 0.0
C286 C 0.20795 0.13736 0.7987 0.0
C287 C 0.2323 0.1569 0.80299 0.0
C288 C 0.2378 0.149 0.81012 0.0
C289 C 0.28215 0.19323 0.83725 0.0
C290 C 0.20263 0.15359 0.84372 0.0
C291 C 0.27684 0.17777 0.86572 0.0
C292 C 0.28588 0.17536 0.87351 0.0
C293 C 0.31153 0.19837 0.87647 0.0
C294 C 0.31941 0.19808 0.88403 0.0
C295 C 0.30174 0.17474 0.88885 0.0
C296 C 0.27631 0.15135 0.88582 0.0
C297 C 0.26848 0.15164 0.87823 0.0
C298 C 0.21494 0.09182 0.85015 0.0
C299 C 0.2864 0.11718 0.84408 0.0
O300 O 0.20743 0.11064 0.82616 0.0
O301 O 0.25162 0.12287 0.82269 0.0
O302 O 0.26915 0.17256 0.84179 0.0
O303 O 0.27529 0.18265 0.83045 0.0
O304 O 0.20605 0.14072 0.8377 0.0
O305 O 0.22036 0.16212 0.84967 0.0
O306 O 0.29306 0.17833 0.86004 0.0
O307 O 0.24901 0.1636 0.8642 0.0
O308 O 0.22867 0.11161 0.84536 0.0
O309 O 0.2229 0.10263 0.85694 0.0
O310 O 0.28632 0.13253 0.85004 0.0
O311 O 0.27069 0.11332 0.83788 0.0
H312 H 0.17993 0.08056 0.81113 0.0
H313 H 0.16993 0.09435 0.79877 0.0
H314 H 0.24742 0.17818 0.80078 0.0
H315 H 0.25671 0.16447 0.81327 0.0
H316 H 0.32519 0.21701 0.87297 0.0
H317 H 0.33891 0.21664 0.88616 0.0
H318 H 0.26238 0.13284 0.88931 0.0
H319 H 0.24858 0.13354 0.8761 0.0
Sm320 Sm 0.87802 0.11329 0.83483 0.0
Sm321 Sm 0.86299 0.10634 0.85275 0.0
C322 C 0.90117 0.1176 0.82125 0.0
C323 C 0.89238 0.10295 0.81381 0.0
C324 C 0.91366 0.10613 0.80861 0.0
C325 C 0.90585 0.0927 0.80149 0.0
C326 C 0.87649 0.07575 0.79941 0.0
C327 C 0.85518 0.07241 0.8047 0.0
C328 C 0.86305 0.08585 0.81183 0.0
C329 C 0.81878 0.09143 0.8373 0.0
C330 C 0.85458 0.05058 0.84321 0.0
C331 C 0.84013 0.10299 0.86638 0.0
C332 C 0.8441 0.11603 0.87406 0.0
C333 C 0.83562 0.13659 0.87565 0.0
C334 C 0.83571 0.14572 0.88312 0.0
C335 C 0.84408 0.13436 0.8892 0.0
C336 C 0.85331 0.1144 0.88756 0.0
C337 C 0.85325 0.10532 0.8801 0.0
C338 C 0.91677 0.11476 0.84905 0.0
C339 C 0.89478 0.17223 0.84486 0.0
O340 O 0.90362 0.10265 0.82682 0.0
O341 O 0.88904 0.13273 0.82333 0.0
O342 O 0.83858 0.09824 0.84206 0.0
O343 O 0.83048 0.09685 0.83062 0.0
O344 O 0.87167 0.06874 0.83794 0.0
O345 O 0.84353 0.05888 0.84876 0.0
O346 O 0.83572 0.11569 0.86057 0.0
O347 O 0.85546 0.09081 0.86464 0.0
O348 O 0.90427 0.12658 0.84575 0.0
O349 O 0.90216 0.10053 0.855 0.0
O350 O 0.88235 0.15601 0.85097 0.0
O351 O 0.89667 0.16105 0.8383 0.0
H352 H 0.93641 0.11907 0.81005 0.0
H353 H 0.92287 0.09537 0.79765 0.0
H354 H 0.8324 0.0598 0.80329 0.0
H355 H 0.84625 0.08302 0.81578 0.0
H356 H 0.82815 0.14509 0.87115 0.0
H357 H 0.82882 0.16141 0.88414 0.0
H358 H 0.85948 0.10477 0.89207 0.0
H359 H 0.85943 0.08907 0.87912 0.0
Sm360 Sm 0.77016 0.89752 0.68971 0.0
Sm361 Sm 0.76188 0.89881 0.67173 0.0
C362 C 0.78979 0.89777 0.70352 0.0
C363 C 0.79519 0.91339 0.71086 0.0
C364 C 0.82358 0.9291 0.7137 0.0
C365 C 0.82914 0.94304 0.72074 0.0
C366 C 0.80641 0.94146 0.72517 0.0
C367 C 0.77799 0.92588 0.7223 0.0
C368 C 0.77244 0.91205 0.71523 0.0
C369 C 0.72976 0.9149 0.68654 0.0
C370 C 0.81019 0.95813 0.67992 0.0
C371 C 0.74414 0.89346 0.65753 0.0
C372 C 0.73463 0.88957 0.64948 0.0
C373 C 0.72092 0.90403 0.64646 0.0
C374 C 0.712 0.89999 0.63885 0.0
C375 C 0.7165 0.88131 0.6341 0.0
C376 C 0.73031 0.86698 0.63716 0.0
C377 C 0.73924 0.87105 0.64473 0.0
C378 C 0.80916 0.89525 0.67635 0.0
C379 C 0.72686 0.83639 0.68114 0.0
O380 O 0.80678 0.91216 0.69783 0.0
O381 O 0.76276 0.8806 0.70148 0.0
O382 O 0.74324 0.90804 0.68191 0.0
O383 O 0.73716 0.91196 0.69333 0.0
O384 O 0.80706 0.9424 0.68604 0.0
O385 O 0.79293 0.94751 0.67393 0.0
O386 O 0.7403 0.90993 0.66239 0.0
O387 O 0.75726 0.88023 0.66027 0.0
O388 O 0.7844 0.88214 0.67943 0.0
O389 O 0.80899 0.90962 0.67042 0.0
O390 O 0.7277 0.85159 0.67509 0.0
O391 O 0.74309 0.84878 0.68719 0.0
H392 H 0.84151 0.93032 0.71049 0.0
H393 H 0.85124 0.9545 0.7228 0.0
H394 H 0.76 0.92449 0.72551 0.0
H395 H 0.75029 0.90018 0.71322 0.0
H396 H 0.71702 0.91841 0.64998 0.0
H397 H 0.7012 0.91118 0.63672 0.0
H398 H 0.73461 0.85283 0.63366 0.0
H399 H 0.74983 0.85963 0.64686 0.0
Sm400 Sm 0.11611 0.87636 0.69039 0.0
Sm401 Sm 0.11161 0.86039 0.6718 0.0
C402 C 0.11859 0.89894 0.70393 0.0
C403 C 0.10388 0.88973 0.7114 0.0
C404 C 0.09009 0.90408 0.71444 0.0
C405 C 0.07623 0.89604 0.7215 0.0
C406 C 0.07595 0.87352 0.72573 0.0
C407 C 0.08978 0.85914 0.72269 0.0
C408 C 0.10351 0.86708 0.71559 0.0
C409 C 0.09631 0.8177 0.68755 0.0
C410 C 0.05519 0.85558 0.68102 0.0
C411 C 0.10532 0.83208 0.65893 0.0
C412 C 0.11641 0.83489 0.65104 0.0
C413 C 0.13359 0.82271 0.64906 0.0
C414 C 0.14149 0.82234 0.64149 0.0
C415 C 0.13221 0.83395 0.63568 0.0
C416 C 0.11556 0.84673 0.63769 0.0
C417 C 0.10771 0.84715 0.64526 0.0
C418 C 0.1285 0.91802 0.67431 0.0
C419 C 0.1756 0.89347 0.68044 0.0
O420 O 0.10318 0.90034 0.69832 0.0
O421 O 0.13559 0.88886 0.70187 0.0
O422 O 0.10351 0.83804 0.68294 0.0
O423 O 0.1002 0.82862 0.69432 0.0
O424 O 0.07159 0.86906 0.68697 0.0
O425 O 0.0644 0.84698 0.67509 0.0
O426 O 0.12163 0.83227 0.66454 0.0
O427 O 0.09064 0.8451 0.6606 0.0
O428 O 0.123 0.89855 0.67915 0.0
O429 O 0.12552 0.90693 0.66755 0.0
O430 O 0.1601 0.87776 0.67454 0.0
O431 O 0.16387 0.89769 0.68662 0.0
H432 H 0.09014 0.92169 0.71135 0.0
H433 H 0.06615 0.90785 0.7237 0.0
H434 H 0.08972 0.84149 0.72574 0.0
H435 H 0.1138 0.85545 0.7134 0.0
H436 H 0.14043 0.81284 0.65334 0.0
H437 H 0.15468 0.81268 0.64019 0.0
H438 H 0.10766 0.85554 0.63339 0.0
H439 H 0.09415 0.8564 0.64654 0.0
Sm440 Sm 0.1343 0.24031 0.68946 0.0
Sm441 Sm 0.14977 0.25088 0.67087 0.0
C442 C 0.1118 0.22106 0.70307 0.0
C443 C 0.12121 0.21593 0.71053 0.0
C444 C 0.10271 0.19074 0.71461 0.0
C445 C 0.11107 0.18529 0.72167 0.0
C446 C 0.13816 0.20498 0.72484 0.0
C447 C 0.15672 0.23023 0.72072 0.0
C448 C 0.14839 0.23559 0.71363 0.0
C449 C 0.19321 0.27791 0.68658 0.0
C450 C 0.1529 0.19828 0.68006 0.0
C451 C 0.1784 0.27273 0.65804 0.0
C452 C 0.1761 0.2818 0.65024 0.0
C453 C 0.19968 0.30672 0.64717 0.0
C454 C 0.19938 0.31448 0.6396 0.0
C455 C 0.17544 0.29743 0.63489 0.0
C456 C 0.15149 0.27279 0.63805 0.0
C457 C 0.1518 0.26506 0.64565 0.0
C458 C 0.09195 0.21109 0.67347 0.0
C459 C 0.11798 0.28331 0.67947 0.0
O460 O 0.11012 0.20387 0.69752 0.0
O461 O 0.12231 0.2481 0.70092 0.0
O462 O 0.17277 0.26522 0.68195 0.0
O463 O 0.18225 0.27093 0.69335 0.0
O464 O 0.13992 0.2019 0.68603 0.0
O465 O 0.16191 0.2161 0.67412 0.0
O466 O 0.17895 0.289 0.66371 0.0
O467 O 0.16404 0.24489 0.65956 0.0
O468 O 0.11156 0.22496 0.67829 0.0
O469 O 0.10305 0.21873 0.66669 0.0
O470 O 0.13209 0.2819 0.6734 0.0
O471 O 0.11472 0.2686 0.68583 0.0
H472 H 0.08167 0.17525 0.71234 0.0
H473 H 0.09606 0.16581 0.72471 0.0
H474 H 0.17787 0.24568 0.72292 0.0
H475 H 0.16324 0.25507 0.71057 0.0
H476 H 0.21875 0.31985 0.65059 0.0
H477 H 0.21837 0.33336 0.63737 0.0
H478 H 0.1325 0.25937 0.63465 0.0
H479 H 0.13325 0.24575 0.64788 0.0
Sm480 Sm 0.77955 0.58363 0.50563 0.0
Sm481 Sm 0.7809 0.57588 0.5236 0.0
C482 C 0.78482 0.60109 0.49141 0.0
C483 C 0.7887 0.61055 0.48336 0.0
C484 C 0.77443 0.62447 0.48035 0.0
C485 C 0.77847 0.63337 0.47273 0.0
C486 C 0.79691 0.62859 0.46797 0.0
C487 C 0.811 0.61451 0.471 0.0
C488 C 0.80694 0.60562 0.47858 0.0
C489 C 0.78307 0.53635 0.51033 0.0
C490 C 0.842 0.61886 0.51499 0.0
C491 C 0.78062 0.5563 0.53742 0.0
C492 C 0.76493 0.55079 0.54473 0.0
C493 C 0.75348 0.52347 0.54817 0.0
C494 C 0.73941 0.51789 0.55519 0.0
C495 C 0.73655 0.53959 0.55899 0.0
C496 C 0.74785 0.56692 0.5555 0.0
C497 C 0.76181 0.57245 0.54845 0.0
C498 C 0.76367 0.61635 0.52036 0.0
C499 C 0.7201 0.536 0.51387 0.0
O500 O 0.76856 0.6052 0.49628 0.0
O501 O 0.79794 0.58788 0.49415 0.0
O502 O 0.7962 0.56116 0.5134 0.0
O503 O 0.76865 0.53645 0.5044 0.0
O504 O 0.82677 0.61785 0.50893 0.0
O505 O 0.82964 0.60283 0.52107 0.0
O506 O 0.7663 0.53926 0.53173 0.0
O507 O 0.79759 0.58338 0.53539 0.0
O508 O 0.77038 0.6027 0.51574 0.0
O509 O 0.76676 0.60915 0.52717 0.0
O510 O 0.73579 0.53919 0.52 0.0
O511 O 0.73083 0.55295 0.50783 0.0
H512 H 0.76026 0.62861 0.48388 0.0
H513 H 0.76746 0.64438 0.47061 0.0
H514 H 0.82496 0.60999 0.46749 0.0
H515 H 0.81819 0.59484 0.4807 0.0
H516 H 0.7557 0.50645 0.54544 0.0
H517 H 0.73132 0.49672 0.55773 0.0
H518 H 0.74572 0.58402 0.55821 0.0
H519 H 0.77025 0.5937 0.54593 0.0
Sm520 Sm 0.43055 0.19509 0.50508 0.0
Sm521 Sm 0.43523 0.20576 0.52183 0.0
C522 C 0.41357 0.17556 0.49105 0.0
C523 C 0.40313 0.17913 0.48352 0.0
C524 C 0.37335 0.16617 0.48193 0.0
C525 C 0.36367 0.16587 0.47451 0.0
C526 C 0.38349 0.17832 0.46848 0.0
C527 C 0.41329 0.19202 0.47014 0.0
C528 C 0.42294 0.19235 0.47754 0.0
C529 C 0.47473 0.24959 0.50879 0.0
C530 C 0.39512 0.22522 0.51286 0.0
C531 C 0.4503 0.21918 0.5363 0.0
C532 C 0.45727 0.20864 0.54337 0.0
C533 C 0.48586 0.22268 0.5461 0.0
C534 C 0.4925 0.21497 0.5531 0.0
C535 C 0.47068 0.19309 0.55759 0.0
C536 C 0.44213 0.17861 0.55478 0.0
C537 C 0.43549 0.18632 0.54777 0.0
C538 C 0.39393 0.14963 0.51766 0.0
C539 C 0.47874 0.18693 0.51377 0.0
O540 O 0.39589 0.16692 0.49687 0.0
O541 O 0.44041 0.19379 0.49292 0.0
O542 O 0.45003 0.23719 0.51193 0.0
O543 O 0.47577 0.23417 0.50325 0.0
O544 O 0.39625 0.2096 0.50714 0.0
O545 O 0.4116 0.23039 0.51889 0.0
O546 O 0.469 0.22761 0.53074 0.0
O547 O 0.42348 0.20584 0.53393 0.0
O548 O 0.41892 0.16428 0.5149 0.0
O549 O 0.39031 0.16416 0.523 0.0
O550 O 0.4754 0.20176 0.51926 0.0
O551 O 0.46011 0.17651 0.5081 0.0
H552 H 0.35745 0.15548 0.48637 0.0
H553 H 0.34057 0.15546 0.47349 0.0
H554 H 0.42926 0.20145 0.46566 0.0
H555 H 0.44601 0.20206 0.47851 0.0
H556 H 0.50311 0.24009 0.54289 0.0
H557 H 0.5148 0.22631 0.555 0.0
H558 H 0.42468 0.16188 0.55809 0.0
H559 H 0.41316 0.17519 0.54588 0.0
Sm560 Sm 0.81805 0.23564 0.50524 0.0
Sm561 Sm 0.80754 0.22875 0.52207 0.0
C562 C 0.83762 0.23887 0.49117 0.0
C563 C 0.8357 0.22472 0.48376 0.0
C564 C 0.86044 0.22516 0.48084 0.0
C565 C 0.86082 0.21618 0.47339 0.0
C566 C 0.83649 0.20665 0.46864 0.0
C567 C 0.81135 0.20525 0.47167 0.0
C568 C 0.81096 0.21418 0.47914 0.0
C569 C 0.76397 0.22547 0.50924 0.0
C570 C 0.78765 0.16966 0.51275 0.0
C571 C 0.79392 0.22923 0.53658 0.0
C572 C 0.80455 0.2463 0.54369 0.0
C573 C 0.78719 0.25547 0.5474 0.0
C574 C 0.79555 0.2697 0.55441 0.0
C575 C 0.82147 0.27502 0.55792 0.0
C576 C 0.8391 0.26624 0.55413 0.0
C577 C 0.83076 0.25207 0.5471 0.0
C578 C 0.86337 0.2435 0.51775 0.0
C579 C 0.82607 0.29174 0.51425 0.0
O580 O 0.84846 0.23248 0.49704 0.0
O581 O 0.81701 0.24429 0.49299 0.0
O582 O 0.77634 0.21281 0.51215 0.0
O583 O 0.77921 0.24244 0.50375 0.0
O584 O 0.80354 0.18667 0.50711 0.0
O585 O 0.78244 0.18075 0.51884 0.0
O586 O 0.78552 0.23996 0.53112 0.0
O587 O 0.80734 0.21597 0.53407 0.0
O588 O 0.84877 0.25407 0.51509 0.0
O589 O 0.84895 0.22517 0.52308 0.0
O590 O 0.81277 0.27371 0.51991 0.0
O591 O 0.83499 0.28355 0.50824 0.0
H592 H 0.87995 0.23356 0.48422 0.0
H593 H 0.88069 0.21792 0.47125 0.0
H594 H 0.79205 0.19762 0.46824 0.0
H595 H 0.79154 0.21364 0.4812 0.0
H596 H 0.76677 0.25109 0.54494 0.0
H597 H 0.78122 0.27577 0.55718 0.0
H598 H 0.85938 0.2703 0.55661 0.0
H599 H 0.84468 0.24533 0.5444 0.0
Sm600 Sm 0.91889 0.44268 0.68681 0.0
Sm601 Sm 0.9139 0.44767 0.66899 0.0
C602 C 0.9384 0.43588 0.70003 0.0
C603 C 0.94873 0.44782 0.70772 0.0
C604 C 0.97297 0.44746 0.71068 0.0
C605 C 0.98145 0.45536 0.71822 0.0
C606 C 0.96584 0.46381 0.72301 0.0
C607 C 0.94212 0.46516 0.71996 0.0
C608 C 0.9336 0.45717 0.71239 0.0
C609 C 0.88158 0.46352 0.68397 0.0
C610 C 0.95265 0.50684 0.67848 0.0
C611 C 0.89937 0.44663 0.65452 0.0
C612 C 0.89271 0.42954 0.64741 0.0
C613 C 0.86785 0.42361 0.64328 0.0
C614 C 0.86207 0.40957 0.63625 0.0
C615 C 0.8811 0.40117 0.63314 0.0
C616 C 0.90568 0.40649 0.63739 0.0
C617 C 0.91144 0.42053 0.64444 0.0
C618 C 0.95456 0.43336 0.67398 0.0
C619 C 0.86789 0.38642 0.67765 0.0
O620 O 0.95548 0.44896 0.69423 0.0
O621 O 0.91083 0.42528 0.69851 0.0
O622 O 0.89505 0.45721 0.67915 0.0
O623 O 0.88828 0.4593 0.69077 0.0
O624 O 0.95354 0.49053 0.68406 0.0
O625 O 0.93544 0.49532 0.67255 0.0
O626 O 0.88036 0.43601 0.66001 0.0
O627 O 0.92616 0.45987 0.65695 0.0
O628 O 0.92944 0.42391 0.67659 0.0
O629 O 0.95878 0.45052 0.66832 0.0
O630 O 0.87594 0.40182 0.67132 0.0
O631 O 0.88185 0.39639 0.68416 0.0
H632 H 0.98497 0.44029 0.7072 0.0
H633 H 1.00013 0.45457 0.72032 0.0
H634 H 0.92949 0.47139 0.72348 0.0
H635 H 0.91476 0.45761 0.71027 0.0
H636 H 0.85306 0.4303 0.64545 0.0
H637 H 0.84266 0.40539 0.63324 0.0
H638 H 0.92097 0.40058 0.63517 0.0
H639 H 0.93081 0.42481 0.64749 0.0
Sm640 Sm 0.56986 0.47917 0.68691 0.0
Sm641 Sm 0.56456 0.46705 0.66891 0.0
C642 C 0.57228 0.5005 0.70069 0.0
C643 C 0.55822 0.49815 0.70812 0.0
C644 C 0.55825 0.52261 0.71109 0.0
C645 C 0.54918 0.52267 0.71855 0.0
C646 C 0.53991 0.49823 0.72324 0.0
C647 C 0.53889 0.47333 0.72016 0.0
C648 C 0.54796 0.47328 0.71269 0.0
C649 C 0.56151 0.426 0.68263 0.0
C650 C 0.50463 0.44896 0.67864 0.0
C651 C 0.56119 0.44563 0.65515 0.0
C652 C 0.57621 0.45486 0.64776 0.0
C653 C 0.5775 0.43431 0.64305 0.0
C654 C 0.59112 0.44235 0.63596 0.0
C655 C 0.60376 0.47119 0.6334 0.0
C656 C 0.60271 0.49183 0.63819 0.0
C657 C 0.58913 0.48377 0.6453 0.0
C658 C 0.58657 0.52596 0.67192 0.0
C659 C 0.62645 0.48822 0.67766 0.0
O660 O 0.5634 0.50857 0.69473 0.0
O661 O 0.58059 0.48175 0.69912 0.0
O662 O 0.54975 0.43891 0.67951 0.0
O663 O 0.57621 0.44002 0.68859 0.0
O664 O 0.52024 0.4597 0.68494 0.0
O665 O 0.51651 0.4487 0.67205 0.0
O666 O 0.57556 0.44225 0.66071 0.0
O667 O 0.5461 0.45772 0.65731 0.0
O668 O 0.5793 0.50552 0.67651 0.0
O669 O 0.58161 0.51515 0.66514 0.0
O670 O 0.6088 0.47248 0.67213 0.0
O671 O 0.6177 0.49836 0.68333 0.0
H672 H 0.56639 0.54218 0.70773 0.0
H673 H 0.55064 0.54237 0.72072 0.0
H674 H 0.53147 0.45396 0.72356 0.0
H675 H 0.54771 0.45407 0.71057 0.0
H676 H 0.56786 0.41194 0.64486 0.0
H677 H 0.59193 0.42594 0.63252 0.0
H678 H 0.61191 0.51416 0.6364 0.0
H679 H 0.58853 0.50007 0.64884 0.0
Sm680 Sm 0.5307 0.09226 0.68602 0.0
Sm681 Sm 0.54478 0.10016 0.66801 0.0
C682 C 0.50808 0.07256 0.69965 0.0
C683 C 0.5119 0.06302 0.70729 0.0
C684 C 0.49827 0.03338 0.70911 0.0
C685 C 0.49822 0.02433 0.71658 0.0
C686 C 0.51161 0.0447 0.72246 0.0
C687 C 0.52599 0.07435 0.72058 0.0
C688 C 0.52608 0.08337 0.71311 0.0
C689 C 0.58441 0.13716 0.68219 0.0
C690 C 0.56162 0.05768 0.67785 0.0
C691 C 0.56687 0.11856 0.65431 0.0
C692 C 0.55752 0.12378 0.64687 0.0
C693 C 0.57822 0.14398 0.64186 0.0
C694 C 0.56993 0.14914 0.63476 0.0
C695 C 0.54068 0.13417 0.63249 0.0
C696 C 0.51994 0.11398 0.63755 0.0
C697 C 0.52827 0.1089 0.64467 0.0
C698 C 0.48559 0.06346 0.67074 0.0
C699 C 0.52394 0.14092 0.67676 0.0
O700 O 0.50324 0.05552 0.6938 0.0
O701 O 0.52372 0.1001 0.69796 0.0
O702 O 0.57157 0.11291 0.67884 0.0
O703 O 0.57029 0.13694 0.68823 0.0
O704 O 0.54999 0.06198 0.68405 0.0
O705 O 0.56295 0.07047 0.67129 0.0
O706 O 0.56931 0.13612 0.65983 0.0
O707 O 0.55541 0.09147 0.65649 0.0
O708 O 0.50579 0.07638 0.67539 0.0
O709 O 0.49679 0.06957 0.66401 0.0
O710 O 0.54076 0.13948 0.67147 0.0
O711 O 0.5118 0.1209 0.68212 0.0
H712 H 0.48686 0.01711 0.70479 0.0
H713 H 0.4873 1.00132 0.71776 0.0
H714 H 0.5362 0.09072 0.72493 0.0
H715 H 0.53643 0.10639 0.71197 0.0
H716 H 0.6009 0.15569 0.64344 0.0
H717 H 0.58657 0.16455 0.63099 0.0
H718 H 0.49721 0.10232 0.63604 0.0
H719 H 0.51186 0.09335 0.64846 0.0
Sm720 Sm 0.56486 0.09607 0.16904 0.0
Sm721 Sm 0.571 0.09359 0.18585 0.0
C722 C 0.5657 0.10878 0.1544 0.0
C723 C 0.58297 0.11534 0.1473 0.0
C724 C 0.59581 0.14332 0.14418 0.0
C725 C 0.60964 0.14931 0.13712 0.0
C726 C 0.61084 0.12739 0.13294 0.0
C727 C 0.59859 0.09952 0.13616 0.0
C728 C 0.58478 0.09355 0.14324 0.0
C729 C 0.57986 0.05558 0.17377 0.0
C730 C 0.62761 0.14112 0.17689 0.0
C731 C 0.57411 0.07773 0.19995 0.0
C732 C 0.56045 0.06464 0.20733 0.0
C733 C 0.56436 0.04243 0.21032 0.0
C734 C 0.55611 0.03281 0.21778 0.0
C735 C 0.54378 0.04522 0.22245 0.0
C736 C 0.53863 0.06656 0.21933 0.0
C737 C 0.54697 0.07625 0.21186 0.0
C738 C 0.56138 0.13757 0.18156 0.0
C739 C 0.5053 0.05745 0.17818 0.0
O740 O 0.57548 0.12834 0.15977 0.0
O741 O 0.55325 0.08232 0.15704 0.0
O742 O 0.59033 0.08103 0.17623 0.0
O743 O 0.56082 0.05065 0.16857 0.0
O744 O 0.60996 0.13588 0.17111 0.0
O745 O 0.61897 0.12463 0.18301 0.0
O746 O 0.56942 0.06088 0.19407 0.0
O747 O 0.57753 0.10307 0.19816 0.0
O748 O 0.54862 0.11239 0.17868 0.0
O749 O 0.57804 0.1393 0.18714 0.0
O750 O 0.52201 0.05923 0.18397 0.0
O751 O 0.51669 0.07308 0.17202 0.0
H752 H 0.59463 0.16053 0.14714 0.0
H753 H 0.61921 0.17113 0.13489 0.0
H754 H 0.59878 0.082 0.1331 0.0
H755 H 0.57492 0.07166 0.14543 0.0
H756 H 0.57487 0.03323 0.20698 0.0
H757 H 0.55995 0.016 0.21994 0.0
H758 H 0.52935 0.07673 0.22277 0.0
H759 H 0.54382 0.09355 0.20973 0.0
Sm760 Sm 0.91337 0.4704 0.16898 0.0
Sm761 Sm 0.91705 0.48062 0.18585 0.0
C762 C 0.89892 0.45659 0.1545 0.0
C763 C 0.89142 0.46657 0.14744 0.0
C764 C 0.86427 0.449 0.14406 0.0
C765 C 0.85747 0.45654 0.13707 0.0
C766 C 0.87773 0.48182 0.13324 0.0
C767 C 0.90471 0.49978 0.13672 0.0
C768 C 0.91149 0.49224 0.14373 0.0
C769 C 0.95435 0.5262 0.17331 0.0
C770 C 0.86898 0.48894 0.1769 0.0
C771 C 0.93373 0.50058 0.19985 0.0
C772 C 0.94702 0.49995 0.20719 0.0
C773 C 0.96988 0.52589 0.21007 0.0
C774 C 0.97988 0.5273 0.21748 0.0
C775 C 0.96719 0.50277 0.22223 0.0
C776 C 0.94513 0.47642 0.21922 0.0
C777 C 0.93507 0.47504 0.21179 0.0
C778 C 0.87301 0.42665 0.18181 0.0
C779 C 0.95289 0.45063 0.17822 0.0
O780 O 0.88002 0.44737 0.16003 0.0
O781 O 0.92569 0.47101 0.15691 0.0
O782 O 0.92925 0.51146 0.17602 0.0
O783 O 0.95824 0.51192 0.16794 0.0
O784 O 0.87393 0.47613 0.17116 0.0
O785 O 0.88576 0.49725 0.18297 0.0
O786 O 0.95037 0.51208 0.1939 0.0
O787 O 0.90809 0.4789 0.19817 0.0
O788 O 0.89804 0.43906 0.17887 0.0
O789 O 0.87149 0.44175 0.18738 0.0
O790 O 0.95122 0.46584 0.18396 0.0
O791 O 0.93708 0.44595 0.17207 0.0
H792 H 0.84841 0.42905 0.14677 0.0
H793 H 0.8363 0.44241 0.13465 0.0
H794 H 0.92097 0.51927 0.13392 0.0
H795 H 0.93268 0.50625 0.14616 0.0
H796 H 0.97936 0.54546 0.20667 0.0
H797 H 0.99725 0.54782 0.21955 0.0
H798 H 0.93472 0.45714 0.22271 0.0
H799 H 0.91727 0.45473 0.20975 0.0
Sm800 Sm 0.54293 0.44511 0.16787 0.0
Sm801 Sm 0.52954 0.43896 0.18591 0.0
C802 C 0.56518 0.4489 0.1542 0.0
C803 C 0.5563 0.43405 0.14677 0.0
C804 C 0.57682 0.43199 0.14224 0.0
C805 C 0.56913 0.41854 0.13513 0.0
C806 C 0.54066 0.40685 0.13235 0.0
C807 C 0.52001 0.40866 0.13697 0.0
C808 C 0.52773 0.42207 0.14411 0.0
C809 C 0.48399 0.42334 0.17067 0.0
C810 C 0.52054 0.38265 0.17647 0.0
C811 C 0.50723 0.4359 0.19958 0.0
C812 C 0.5084 0.44939 0.20702 0.0
C813 C 0.4826 0.44584 0.21014 0.0
C814 C 0.48176 0.45421 0.21762 0.0
C815 C 0.50675 0.46634 0.22219 0.0
C816 C 0.53295 0.47111 0.21894 0.0
C817 C 0.53375 0.46262 0.21144 0.0
C818 C 0.58269 0.44686 0.18177 0.0
C819 C 0.56082 0.50457 0.17783 0.0
O820 O 0.56823 0.43434 0.15978 0.0
O821 O 0.55309 0.46403 0.15631 0.0
O822 O 0.50415 0.43033 0.17533 0.0
O823 O 0.49516 0.42852 0.16393 0.0
O824 O 0.5365 0.40043 0.17099 0.0
O825 O 0.51052 0.39125 0.1822 0.0
O826 O 0.49919 0.44455 0.19357 0.0
O827 O 0.5267 0.42842 0.19813 0.0
O828 O 0.57 0.4588 0.17862 0.0
O829 O 0.56851 0.43239 0.18774 0.0
O830 O 0.54943 0.48866 0.18405 0.0
O831 O 0.5615 0.49303 0.17122 0.0
H832 H 0.59892 0.44089 0.14421 0.0
H833 H 0.58551 0.41712 0.13183 0.0
H834 H 0.49797 0.40019 0.13502 0.0
H835 H 0.51143 0.42325 0.14751 0.0
H836 H 0.46274 0.43558 0.20687 0.0
H837 H 0.46133 0.45068 0.21987 0.0
H838 H 0.55258 0.48025 0.2223 0.0
H839 H 0.55396 0.46551 0.2092 0.0
Sm840 Sm 0.43771 0.23363 0.02261 0.0
Sm841 Sm 0.42943 0.23964 1.00459 0.0
C842 C 0.45664 0.23033 0.03624 0.0
C843 C 0.46245 0.24539 0.04366 0.0
C844 C 0.48925 0.25499 0.04724 0.0
C845 C 0.49513 0.26885 0.0543 0.0
C846 C 0.47425 0.27332 0.05799 0.0
C847 C 0.44743 0.26382 0.05437 0.0
C848 C 0.44163 0.25011 0.04728 0.0
C849 C 0.40052 0.25551 0.02 0.0
C850 C 0.47789 0.29566 0.01388 0.0
C851 C 0.40945 0.24266 0.99101 0.0
C852 C 0.39768 0.22898 0.98355 0.0
C853 C 0.37398 0.23023 0.98053 0.0
C854 C 0.36487 0.22144 0.97306 0.0
C855 C 0.37931 0.21121 0.9684 0.0
C856 C 0.40244 0.20898 0.97153 0.0
C857 C 0.41155 0.21779 0.97902 0.0
C858 C 0.47428 0.23071 1.00846 0.0
C859 C 0.39518 0.17422 0.01277 0.0
O860 O 0.47407 0.24491 0.03063 0.0
O861 O 0.42946 0.21452 0.03415 0.0
O862 O 0.41356 0.24857 0.01528 0.0
O863 O 0.40672 0.25028 0.02671 0.0
O864 O 0.47622 0.27776 0.0193 0.0
O865 O 0.45879 0.28732 1.00826 0.0
O866 O 0.39282 0.23286 0.99703 0.0
O867 O 0.43673 0.25156 0.99244 0.0
O868 O 0.44997 0.21947 1.01176 0.0
O869 O 0.47429 0.24477 1.00243 0.0
O870 O 0.39895 0.19009 1.00658 0.0
O871 O 0.4084 0.18575 0.01928 0.0
H872 H 0.50564 0.25158 0.04458 0.0
H873 H 0.51588 0.27557 0.05694 0.0
H874 H 0.431 0.26723 0.057 0.0
H875 H 0.42082 0.24318 0.04465 0.0
H876 H 0.36313 0.23908 0.98386 0.0
H877 H 0.34725 0.22386 0.97085 0.0
H878 H 0.4138 0.20079 0.96817 0.0
H879 H 0.42992 0.21658 0.98119 0.0
Sm880 Sm 0.78029 0.20522 0.02159 0.0
Sm881 Sm 0.77328 0.19534 1.00485 0.0
C882 C 0.78033 0.21824 0.03617 0.0
C883 C 0.76328 0.20793 0.04326 0.0
C884 C 0.76089 0.22798 0.04793 0.0
C885 C 0.74664 0.21947 0.05492 0.0
C886 C 0.73443 0.19064 0.05745 0.0
C887 C 0.73641 0.17042 0.05269 0.0
C888 C 0.75064 0.17896 0.04567 0.0
C889 C 0.76522 0.14945 0.0171 0.0
C890 C 0.71726 0.18691 0.01392 0.0
C891 C 0.77018 0.17623 0.99074 0.0
C892 C 0.7843 0.17971 0.98323 0.0
C893 C 0.79479 0.1612 0.98109 0.0
C894 C 0.80371 0.16103 0.97361 0.0
C895 C 0.80207 0.17917 0.96807 0.0
C896 C 0.79259 0.19843 0.97029 0.0
C897 C 0.78379 0.19867 0.97776 0.0
C898 C 0.78405 0.24967 1.00885 0.0
C899 C 0.83926 0.2252 0.01231 0.0
O900 O 0.77027 0.22766 0.03079 0.0
O901 O 0.7923 0.20372 0.03357 0.0
O902 O 0.75445 0.16409 0.0146 0.0
O903 O 0.78456 0.16402 0.0222 0.0
O904 O 0.7354 0.20034 0.01954 0.0
O905 O 0.72539 0.17788 1.00793 0.0
O906 O 0.77846 0.16662 0.99651 0.0
O907 O 0.76253 0.19512 0.99271 0.0
O908 O 0.79644 0.23704 1.01179 0.0
O909 O 0.76731 0.23463 1.00331 0.0
O910 O 0.82217 0.20939 1.00667 0.0
O911 O 0.82823 0.23045 0.01839 0.0
H912 H 0.7706 0.25047 0.04622 0.0
H913 H 0.74593 0.23574 0.05845 0.0
H914 H 0.72693 0.14797 0.05439 0.0
H915 H 0.75204 0.16299 0.04217 0.0
H916 H 0.79503 0.14598 0.98512 0.0
H917 H 0.81062 0.14572 0.9721 0.0
H918 H 0.79144 0.213 0.9662 0.0
H919 H 0.77561 0.21306 0.97916 0.0
Sm920 Sm 0.80528 0.57589 0.02287 0.0
Sm921 Sm 0.81928 0.58358 1.00494 0.0
C922 C 0.78292 0.55722 0.03651 0.0
C923 C 0.79229 0.55198 0.04396 0.0
C924 C 0.77253 0.52877 0.04846 0.0
C925 C 0.78078 0.52361 0.05557 0.0
C926 C 0.80902 0.54162 0.05835 0.0
C927 C 0.82886 0.5648 0.05379 0.0
C928 C 0.82062 0.56986 0.04665 0.0
C929 C 0.86433 0.61354 0.02031 0.0
C930 C 0.82846 0.53656 0.01434 0.0
C931 C 0.84127 0.60305 0.99124 0.0
C932 C 0.83732 0.61277 0.98364 0.0
C933 C 0.85076 0.64245 0.98189 0.0
C934 C 0.85072 0.65167 0.97444 0.0
C935 C 0.83744 0.63145 0.96853 0.0
C936 C 0.82326 0.60175 0.97034 0.0
C937 C 0.82326 0.59255 0.97778 0.0
C938 C 0.76568 0.53823 1.00884 0.0
C939 C 0.78764 0.6176 0.01298 0.0
O940 O 0.78054 0.53972 0.03097 0.0
O941 O 0.79417 0.58431 0.03435 0.0
O942 O 0.84455 0.60046 0.01554 0.0
O943 O 0.8527 0.60719 0.027 0.0
O944 O 0.81171 0.53773 0.0197 0.0
O945 O 0.83904 0.55572 1.00875 0.0
O946 O 0.84667 0.62014 0.99711 0.0
O947 O 0.82534 0.57555 0.99293 0.0
O948 O 0.77835 0.56269 1.01207 0.0
O949 O 0.78012 0.53828 1.00289 0.0
O950 O 0.7993 0.6133 1.00679 0.0
O951 O 0.78664 0.60513 0.01956 0.0
H952 H 0.75058 0.5147 0.04649 0.0
H953 H 0.76482 0.50577 0.05895 0.0
H954 H 0.85088 0.57887 0.05569 0.0
H955 H 0.83638 0.58778 0.04326 0.0
H956 H 0.86209 0.65863 0.98623 0.0
H957 H 0.86151 0.67471 0.9733 0.0
H958 H 0.81314 0.58549 0.96596 0.0
H959 H 0.81308 0.56951 0.97888 0.0
Sm960 Sm 0.44202 0.91587 0.83825 0.0
Sm961 Sm 0.44857 0.90956 0.85626 0.0
C962 C 0.43914 0.93456 0.82447 0.0
C963 C 0.4522 0.94332 0.81678 0.0
C964 C 0.46686 0.9727 0.81465 0.0
C965 C 0.47534 0.98084 0.8071 0.0
C966 C 0.46909 0.95977 0.80147 0.0
C967 C 0.45528 0.93046 0.80366 0.0
C968 C 0.44692 0.92234 0.8112 0.0
C969 C 0.45035 0.87083 0.84238 0.0
C970 C 0.50777 0.95059 0.84619 0.0
C971 C 0.45266 0.89194 0.87001 0.0
C972 C 0.43813 0.8866 0.87747 0.0
C973 C 0.43876 0.86639 0.88244 0.0
C974 C 0.42549 0.8612 0.88957 0.0
C975 C 0.41128 0.87617 0.89191 0.0
C976 C 0.41057 0.89636 0.88689 0.0
C977 C 0.42378 0.90146 0.87973 0.0
C978 C 0.42681 0.94674 0.85334 0.0
C979 C 0.38601 0.86949 0.84785 0.0
O980 O 0.45168 0.95207 0.83022 0.0
O981 O 0.42701 0.90715 0.82633 0.0
O982 O 0.46211 0.89543 0.84556 0.0
O983 O 0.43613 0.87064 0.83637 0.0
O984 O 0.4917 0.94575 0.84 0.0
O985 O 0.49642 0.93867 0.85284 0.0
O986 O 0.43778 0.87403 0.86452 0.0
O987 O 0.46778 0.91901 0.86778 0.0
O988 O 0.43367 0.93332 0.84872 0.0
O989 O 0.43212 0.94103 0.8601 0.0
O990 O 0.40399 0.87107 0.85323 0.0
O991 O 0.39449 0.88832 0.84217 0.0
H992 H 0.47086 0.98938 0.81877 0.0
H993 H 0.48569 1.00359 0.80562 0.0
H994 H 0.45049 0.91368 0.7995 0.0
H995 H 0.43547 0.89948 0.81259 0.0
H996 H 0.44972 0.8547 0.88081 0.0
H997 H 0.42683 0.84579 0.89331 0.0
H998 H 0.39953 0.90802 0.88844 0.0
H999 H 0.42283 0.91702 0.87597 0.0
Sm1000 Sm 0.0953 0.52971 0.83875 0.0
Sm1001 Sm 0.09979 0.54073 0.85558 0.0
C1002 C 0.07776 0.50864 0.82488 0.0
C1003 C 0.06433 0.5087 0.81752 0.0
C1004 C 0.04291 0.4822 0.8145 0.0
C1005 C 0.033 0.48053 0.80706 0.0
C1006 C 0.04432 0.50536 0.80244 0.0
C1007 C 0.06484 0.53219 0.80559 0.0
C1008 C 0.07483 0.53384 0.81304 0.0
C1009 C 0.13952 0.58398 0.84247 0.0
C1010 C 0.06013 0.56044 0.84636 0.0
C1011 C 0.11444 0.55498 0.87002 0.0
C1012 C 0.12089 0.54452 0.87714 0.0
C1013 C 0.14539 0.56356 0.88138 0.0
C1014 C 0.15106 0.55509 0.88839 0.0
C1015 C 0.13229 0.52733 0.89136 0.0
C1016 C 0.10797 0.50808 0.88703 0.0
C1017 C 0.10234 0.51655 0.87999 0.0
C1018 C 0.05874 0.4846 0.85142 0.0
C1019 C 0.14416 0.52234 0.84761 0.0
O1020 O 0.06132 0.49784 0.83089 0.0
O1021 O 0.10357 0.53029 0.82642 0.0
O1022 O 0.11479 0.5717 0.84559 0.0
O1023 O 0.14054 0.56858 0.83691 0.0
O1024 O 0.06139 0.54485 0.84065 0.0
O1025 O 0.07625 0.56535 0.85246 0.0
O1026 O 0.1334 0.56294 0.86453 0.0
O1027 O 0.08769 0.54154 0.86759 0.0
O1028 O 0.08374 0.49935 0.84867 0.0
O1029 O 0.05501 0.49906 0.85678 0.0
O1030 O 0.13944 0.53545 0.85332 0.0
O1031 O 0.12701 0.51354 0.84161 0.0
H1032 H 0.03456 0.46248 0.8178 0.0
H1033 H 0.01682 0.4596 0.80488 0.0
H1034 H 0.07416 0.55173 0.80219 0.0
H1035 H 0.0915 0.55458 0.8152 0.0
H1036 H 0.15991 0.58529 0.87933 0.0
H1037 H 0.16978 0.57064 0.89158 0.0
H1038 H 0.09325 0.48641 0.88908 0.0
H1039 H 0.08332 0.50134 0.87684 0.0
Sm1040 Sm 0.48364 0.56993 0.83889 0.0
Sm1041 Sm 0.4701 0.56375 0.85687 0.0
C1042 C 0.50607 0.57252 0.82526 0.0
C1043 C 0.50318 0.55848 0.81778 0.0
C1044 C 0.5265 0.556 0.81498 0.0
C1045 C 0.52629 0.54676 0.80753 0.0
C1046 C 0.50276 0.53987 0.80267 0.0
C1047 C 0.47893 0.5414 0.80558 0.0
C1048 C 0.47913 0.5506 0.81305 0.0
C1049 C 0.43024 0.56175 0.84284 0.0
C1050 C 0.45214 0.50422 0.84694 0.0
C1051 C 0.44824 0.56038 0.87057 0.0
C1052 C 0.45741 0.5755 0.87797 0.0
C1053 C 0.43807 0.58083 0.88211 0.0
C1054 C 0.44603 0.59477 0.88916 0.0
C1055 C 0.47356 0.60365 0.89227 0.0
C1056 C 0.49299 0.5984 0.88808 0.0
C1057 C 0.48506 0.58458 0.881 0.0
C1058 C 0.52921 0.58581 0.85411 0.0
C1059 C 0.49193 0.62603 0.84826 0.0
O1060 O 0.51256 0.5622 0.83122 0.0
O1061 O 0.48857 0.58243 0.82678 0.0
O1062 O 0.44285 0.54994 0.84611 0.0
O1063 O 0.44454 0.57592 0.83685 0.0
O1064 O 0.46358 0.5202 0.84074 0.0
O1065 O 0.45144 0.51573 0.85356 0.0
O1066 O 0.44505 0.57478 0.86498 0.0
O1067 O 0.46006 0.545 0.86845 0.0
O1068 O 0.50906 0.57874 0.84944 0.0
O1069 O 0.51794 0.58055 0.86084 0.0
O1070 O 0.47586 0.6081 0.8537 0.0
O1071 O 0.50245 0.61763 0.8426 0.0
H1072 H 0.54546 0.56227 0.81847 0.0
H1073 H 0.54517 0.54621 0.80548 0.0
H1074 H 0.46024 0.53585 0.80206 0.0
H1075 H 0.46081 0.5523 0.81504 0.0
H1076 H 0.41664 0.57402 0.8799 0.0
H1077 H 0.43037 0.59812 0.89225 0.0
H1078 H 0.51449 0.60526 0.89024 0.0
H1079 H 0.50053 0.58098 0.8779 0.0
Sm1080 Sm 0.58486 0.77106 0.01983 0.0
Sm1081 Sm 0.5783 0.77806 1.00187 0.0
C1082 C 0.60425 0.76792 0.03347 0.0
C1083 C 0.61564 0.7818 0.04093 0.0
C1084 C 0.64005 0.78185 0.04393 0.0
C1085 C 0.64906 0.79098 0.05138 0.0
C1086 C 0.6338 0.80024 0.05605 0.0
C1087 C 0.60991 0.80115 0.05294 0.0
C1088 C 0.60092 0.79201 0.04547 0.0
C1089 C 0.54019 0.77996 0.01581 0.0
C1090 C 0.62049 0.83679 1.01192 0.0
C1091 C 0.56002 0.78206 0.9882 0.0
C1092 C 0.55394 0.76696 0.98078 0.0
C1093 C 0.52865 0.76068 0.97682 0.0
C1094 C 0.52262 0.7469 0.96974 0.0
C1095 C 0.54182 0.7391 0.96643 0.0
C1096 C 0.56705 0.74516 0.97047 0.0
C1097 C 0.573 0.75886 0.97757 0.0
C1098 C 0.61473 0.7554 1.00454 0.0
C1099 C 0.5376 0.7154 1.01031 0.0
O1100 O 0.62113 0.77788 0.0275 0.0
O1101 O 0.57697 0.75876 0.03195 0.0
O1102 O 0.56479 0.79176 0.01262 0.0
O1103 O 0.53969 0.76515 0.02173 0.0
O1104 O 0.6145 0.82076 0.01816 0.0
O1105 O 0.60925 0.8257 1.0052 0.0
O1106 O 0.54234 0.76781 0.99379 0.0
O1107 O 0.58722 0.79714 0.99032 0.0
O1108 O 0.60173 0.76243 1.00926 0.0
O1109 O 0.60883 0.76088 0.99782 0.0
O1110 O 0.53963 0.73352 1.00491 0.0
O1111 O 0.55626 0.72359 0.01601 0.0
H1112 H 0.65159 0.77377 0.04058 0.0
H1113 H 0.6673 0.78961 0.05358 0.0
H1114 H 0.59789 0.80856 0.05631 0.0
H1115 H 0.58199 0.79222 0.04332 0.0
H1116 H 0.51351 0.76653 0.9792 0.0
H1117 H 0.50271 0.74214 0.9669 0.0
H1118 H 0.58252 0.73981 0.96809 0.0
H1119 H 0.59263 0.76329 0.98051 0.0
Sm1120 Sm 0.24063 0.8169 0.0195 0.0
Sm1121 Sm 0.23486 0.80608 1.00266 0.0
C1122 C 0.24348 0.83763 0.03339 0.0
C1123 C 0.22998 0.83735 0.04078 0.0
C1124 C 0.23376 0.86355 0.04369 0.0
C1125 C 0.22572 0.86528 0.05115 0.0
C1126 C 0.21373 0.84082 0.05592 0.0
C1127 C 0.2087 0.81422 0.05289 0.0
C1128 C 0.21683 0.81252 0.04541 0.0
C1129 C 0.2308 0.76268 0.01577 0.0
C1130 C 0.17507 0.78613 1.01169 0.0
C1131 C 0.23637 0.7924 0.9882 0.0
C1132 C 0.25395 0.80297 0.98114 0.0
C1133 C 0.26855 0.78897 0.9784 0.0
C1134 C 0.28297 0.79676 0.97141 0.0
C1135 C 0.28303 0.81866 0.96693 0.0
C1136 C 0.26892 0.83311 0.96975 0.0
C1137 C 0.25452 0.82533 0.97676 0.0
C1138 C 0.24927 0.862 1.00682 0.0
C1139 C 0.29732 0.82461 1.0108 0.0
O1140 O 0.2376 0.84824 0.02739 0.0
O1141 O 0.24817 0.81632 0.03184 0.0
O1142 O 0.21848 0.77501 0.01261 0.0
O1143 O 0.24697 0.778 0.02137 0.0
O1144 O 0.19163 0.80161 0.01745 0.0
O1145 O 0.18657 0.78134 1.00562 0.0
O1146 O 0.24656 0.78391 0.99377 0.0
O1147 O 0.22295 0.80583 0.99057 0.0
O1148 O 0.25968 0.84745 1.00961 0.0
O1149 O 0.2313 0.84744 1.00144 0.0
O1150 O 0.27975 0.81154 1.00505 0.0
O1151 O 0.28867 0.83329 0.01677 0.0
H1152 H 0.24401 0.88306 0.04027 0.0
H1153 H 0.22947 0.886 0.05323 0.0
H1154 H 0.19968 0.79498 0.0564 0.0
H1155 H 0.21379 0.79202 0.04336 0.0
H1156 H 0.26838 0.77155 0.98161 0.0
H1157 H 0.29395 0.78544 0.96949 0.0
H1158 H 0.26819 0.84984 0.96644 0.0
H1159 H 0.2433 0.83644 0.97865 0.0
Sm1160 Sm 0.19651 0.42733 0.01946 0.0
Sm1161 Sm 0.20722 0.43225 1.00266 0.0
C1162 C 0.17691 0.41005 0.03348 0.0
C1163 C 0.18031 0.39953 0.04102 0.0
C1164 C 0.16663 0.36972 0.04266 0.0
C1165 C 0.16615 0.36004 0.05009 0.0
C1166 C 0.17913 0.3799 0.05609 0.0
C1167 C 0.19352 0.40969 0.05439 0.0
C1168 C 0.19404 0.41935 0.04698 0.0
C1169 C 0.25082 0.47171 0.0157 0.0
C1170 C 0.22725 0.39254 1.01165 0.0
C1171 C 0.22113 0.44742 0.98822 0.0
C1172 C 0.2106 0.45402 0.98112 0.0
C1173 C 0.22795 0.4807 0.97749 0.0
C1174 C 0.21991 0.48663 0.97046 0.0
C1175 C 0.19432 0.46592 0.96683 0.0
C1176 C 0.17656 0.43943 0.97056 0.0
C1177 C 0.18461 0.43354 0.97762 0.0
C1178 C 0.15144 0.39028 1.00678 0.0
C1179 C 0.18758 0.47531 1.01073 0.0
O1180 O 0.16833 0.39246 0.02764 0.0
O1181 O 0.19515 0.43692 0.03164 0.0
O1182 O 0.2384 0.44705 0.01257 0.0
O1183 O 0.23559 0.4726 0.02132 0.0
O1184 O 0.21167 0.39351 0.0174 0.0
O1185 O 0.23221 0.40902 1.00562 0.0
O1186 O 0.22906 0.46619 0.99376 0.0
O1187 O 0.20797 0.42059 0.9906 0.0
O1188 O 0.16569 0.41525 1.0096 0.0
O1189 O 0.16621 0.38712 1.00142 0.0
O1190 O 0.20149 0.47151 1.00507 0.0
O1191 O 0.17854 0.45754 0.0166 0.0
H1192 H 0.15553 0.35383 0.03824 0.0
H1193 H 0.15521 0.33693 0.05114 0.0
H1194 H 0.20338 0.42571 0.05885 0.0
H1195 H 0.2043 0.44246 0.04598 0.0
H1196 H 0.24811 0.49687 0.98005 0.0
H1197 H 0.23388 0.50746 0.96784 0.0
H1198 H 0.15685 0.42284 0.96793 0.0
H1199 H 0.17075 0.41271 0.98025 0.0
Sm1200 Sm 0.23445 0.43387 0.50127 0.0
Sm1201 Sm 0.2407 0.42557 0.51926 0.0
C1202 C 0.23089 0.45269 0.48764 0.0
C1203 C 0.24538 0.45785 0.48017 0.0
C1204 C 0.25017 0.48194 0.47584 0.0
C1205 C 0.26342 0.48704 0.4687 0.0
C1206 C 0.27214 0.46808 0.46571 0.0
C1207 C 0.26746 0.44402 0.47009 0.0
C1208 C 0.25432 0.43901 0.47725 0.0
C1209 C 0.25553 0.39596 0.50385 0.0
C1210 C 0.29697 0.47268 0.50984 0.0
C1211 C 0.24355 0.40557 0.53284 0.0
C1212 C 0.22972 0.39389 0.5403 0.0
C1213 C 0.22979 0.36943 0.54322 0.0
C1214 C 0.22072 0.36016 0.55066 0.0
C1215 C 0.21141 0.37521 0.5554 0.0
C1216 C 0.21042 0.39917 0.55237 0.0
C1217 C 0.21948 0.40843 0.54491 0.0
C1218 C 0.23305 0.47134 0.51544 0.0
C1219 C 0.17519 0.39191 0.51121 0.0
O1220 O 0.24613 0.47014 0.49318 0.0
O1221 O 0.21488 0.42562 0.4898 0.0
O1222 O 0.24888 0.40923 0.50856 0.0
O1223 O 0.25035 0.40223 0.49714 0.0
O1224 O 0.27914 0.4717 0.50449 0.0
O1225 O 0.28832 0.45351 0.51544 0.0
O1226 O 0.23366 0.38893 0.52683 0.0
O1227 O 0.25271 0.43291 0.5314 0.0
O1228 O 0.22101 0.44694 0.51216 0.0
O1229 O 0.24732 0.47097 0.52138 0.0
O1230 O 0.19114 0.39552 0.51735 0.0
O1231 O 0.18661 0.40507 0.50468 0.0
H1232 H 0.24346 0.49676 0.47797 0.0
H1233 H 0.26635 0.50559 0.46547 0.0
H1234 H 0.27423 0.42918 0.46802 0.0
H1235 H 0.25112 0.42038 0.4805 0.0
H1236 H 0.2379 0.35806 0.53982 0.0
H1237 H 0.22218 0.34188 0.5528 0.0
H1238 H 0.20298 0.41104 0.5558 0.0
H1239 H 0.2192 0.4274 0.54282 0.0
Sm1240 Sm 0.57884 0.80154 0.50169 0.0
Sm1241 Sm 0.58437 0.81355 0.51844 0.0
C1242 C 0.56302 0.78616 0.48736 0.0
C1243 C 0.55544 0.79585 0.48028 0.0
C1244 C 0.53104 0.77597 0.47615 0.0
C1245 C 0.52444 0.78369 0.46916 0.0
C1246 C 0.54219 0.81152 0.46609 0.0
C1247 C 0.56627 0.8317 0.47035 0.0
C1248 C 0.57283 0.82395 0.47737 0.0
C1249 C 0.61995 0.85796 0.5055 0.0
C1250 C 0.53479 0.82011 0.50975 0.0
C1251 C 0.60231 0.83507 0.53226 0.0
C1252 C 0.615 0.83432 0.53969 0.0
C1253 C 0.64152 0.85816 0.54194 0.0
C1254 C 0.65161 0.8604 0.54938 0.0
C1255 C 0.63532 0.83893 0.5548 0.0
C1256 C 0.60934 0.81445 0.55246 0.0
C1257 C 0.59927 0.81219 0.545 0.0
C1258 C 0.54061 0.75868 0.51494 0.0
C1259 C 0.62003 0.7834 0.51076 0.0
O1260 O 0.54456 0.77803 0.49298 0.0
O1261 O 0.58998 0.80041 0.48961 0.0
O1262 O 0.59522 0.84341 0.50843 0.0
O1263 O 0.6233 0.84319 0.50017 0.0
O1264 O 0.53896 0.80638 0.5041 0.0
O1265 O 0.5527 0.82976 0.51559 0.0
O1266 O 0.61905 0.84466 0.52626 0.0
O1267 O 0.57593 0.81456 0.5307 0.0
O1268 O 0.56521 0.77124 0.51178 0.0
O1269 O 0.53946 0.77413 0.52048 0.0
O1270 O 0.61875 0.79905 0.51646 0.0
O1271 O 0.60341 0.77787 0.50474 0.0
H1272 H 0.51726 0.7542 0.47828 0.0
H1273 H 0.50542 0.76774 0.46614 0.0
H1274 H 0.58057 0.85324 0.46816 0.0
H1275 H 0.59179 0.83978 0.48044 0.0
H1276 H 0.654 0.87568 0.538 0.0
H1277 H 0.67195 0.87932 0.55092 0.0
H1278 H 0.59605 0.79759 0.55647 0.0
H1279 H 0.57859 0.79364 0.5435 0.0
Sm1280 Sm 0.20983 0.77767 0.5012 0.0
Sm1281 Sm 0.196 0.77331 0.51994 0.0
C1282 C 0.23155 0.7815 0.48746 0.0
C1283 C 0.22198 0.76784 0.47992 0.0
C1284 C 0.24266 0.76975 0.47469 0.0
C1285 C 0.23415 0.75672 0.46754 0.0
C1286 C 0.20469 0.74145 0.46546 0.0
C1287 C 0.18399 0.73962 0.47075 0.0
C1288 C 0.19255 0.75262 0.47792 0.0
C1289 C 0.15144 0.75749 0.5046 0.0
C1290 C 0.19181 0.71726 0.51057 0.0
C1291 C 0.16876 0.76668 0.53301 0.0
C1292 C 0.17191 0.77777 0.5409 0.0
C1293 C 0.15706 0.79214 0.54315 0.0
C1294 C 0.15707 0.79986 0.55076 0.0
C1295 C 0.17174 0.79317 0.55632 0.0
C1296 C 0.18718 0.7794 0.55403 0.0
C1297 C 0.18725 0.77178 0.54642 0.0
C1298 C 0.25353 0.79125 0.51688 0.0
C1299 C 0.22751 0.83717 0.51127 0.0
O1300 O 0.23281 0.76516 0.49283 0.0
O1301 O 0.2212 0.79795 0.48979 0.0
O1302 O 0.17239 0.76471 0.509 0.0
O1303 O 0.16148 0.76138 0.49773 0.0
O1304 O 0.20422 0.73363 0.50453 0.0
O1305 O 0.18344 0.72627 0.5166 0.0
O1306 O 0.16809 0.78276 0.52745 0.0
O1307 O 0.18216 0.75248 0.5312 0.0
O1308 O 0.23333 0.78519 0.51224 0.0
O1309 O 0.24329 0.78835 0.52375 0.0
O1310 O 0.21203 0.82158 0.51719 0.0
O1311 O 0.23158 0.82547 0.50506 0.0
H1312 H 0.26548 0.78138 0.47612 0.0
H1313 H 0.25074 0.75896 0.4636 0.0
H1314 H 0.16111 0.72776 0.4694 0.0
H1315 H 0.17619 0.75069 0.4819 0.0
H1316 H 0.14469 0.7967 0.53907 0.0
H1317 H 0.14468 0.81014 0.55231 0.0
H1318 H 0.19904 0.77425 0.55813 0.0
H1319 H 0.19884 0.76061 0.54491 0.0
Sm1320 Sm 0.09823 0.56442 0.35484 0.0
Sm1321 Sm 0.09584 0.5715 0.33806 0.0
C1322 C 0.11096 0.56491 0.36946 0.0
C1323 C 0.11816 0.58265 0.3765 0.0
C1324 C 0.14708 0.59893 0.37895 0.0
C1325 C 0.15388 0.61343 0.38593 0.0
C1326 C 0.13193 0.6119 0.39069 0.0
C1327 C 0.10304 0.59609 0.38816 0.0
C1328 C 0.09623 0.58158 0.38117 0.0
C1329 C 0.05778 0.57951 0.35023 0.0
C1330 C 0.14351 0.62748 0.34713 0.0
C1331 C 0.08041 0.57494 0.32393 0.0
C1332 C 0.06702 0.56084 0.31661 0.0
C1333 C 0.04399 0.56366 0.31374 0.0
C1334 C 0.03397 0.55497 0.30633 0.0
C1335 C 0.04683 0.54333 0.30157 0.0
C1336 C 0.06905 0.5393 0.30457 0.0
C1337 C 0.07911 0.54804 0.31199 0.0
C1338 C 0.13946 0.56135 0.34231 0.0
C1339 C 0.0594 0.50553 0.34554 0.0
O1340 O 0.13035 0.57395 0.36405 0.0
O1341 O 0.08449 0.55308 0.36686 0.0
O1342 O 0.08328 0.59028 0.3478 0.0
O1343 O 0.05275 0.56008 0.35533 0.0
O1344 O 0.13822 0.60946 0.35283 0.0
O1345 O 0.12691 0.61932 0.34104 0.0
O1346 O 0.0637 0.57086 0.3298 0.0
O1347 O 0.10551 0.57786 0.32575 0.0
O1348 O 0.11416 0.5484 0.34507 0.0
O1349 O 0.14171 0.57875 0.33687 0.0
O1350 O 0.0608 0.52267 0.3399 0.0
O1351 O 0.07554 0.51649 0.35164 0.0
H1352 H 0.1645 0.60003 0.37553 0.0
H1353 H 0.1764 0.6257 0.38762 0.0
H1354 H 0.08551 0.59408 0.39169 0.0
H1355 H 0.07368 0.56897 0.37953 0.0
H1356 H 0.0344 0.57363 0.31714 0.0
H1357 H 0.01649 0.55794 0.30427 0.0
H1358 H 0.07961 0.5306 0.30106 0.0
H1359 H 0.09705 0.54574 0.31401 0.0
Sm1360 Sm 0.44698 0.5392 0.35488 0.0
Sm1361 Sm 0.44109 0.52792 0.33809 0.0
C1362 C 0.44556 0.55339 0.36929 0.0
C1363 C 0.42818 0.54328 0.37637 0.0
C1364 C 0.41982 0.5614 0.38 0.0
C1365 C 0.40554 0.55365 0.387 0.0
C1366 C 0.39937 0.52759 0.3906 0.0
C1367 C 0.40716 0.50909 0.38686 0.0
C1368 C 0.42142 0.51684 0.37983 0.0
C1369 C 0.43181 0.48291 0.35086 0.0
C1370 C 0.3848 0.52068 0.3467 0.0
C1371 C 0.43838 0.5073 0.32419 0.0
C1372 C 0.45234 0.50859 0.31681 0.0
C1373 C 0.4511 0.48335 0.31399 0.0
C1374 C 0.4597 0.48226 0.30655 0.0
C1375 C 0.4697 0.5064 0.30171 0.0
C1376 C 0.47216 0.53213 0.30465 0.0
C1377 C 0.46349 0.5332 0.31211 0.0
C1378 C 0.45151 0.58245 0.34172 0.0
C1379 C 0.50654 0.55813 0.34592 0.0
O1380 O 0.43522 0.5616 0.3637 0.0
O1381 O 0.45881 0.53972 0.36698 0.0
O1382 O 0.42169 0.49763 0.34801 0.0
O1383 O 0.45009 0.49756 0.35617 0.0
O1384 O 0.40281 0.53514 0.35226 0.0
O1385 O 0.39302 0.51039 0.341 0.0
O1386 O 0.4452 0.49734 0.33017 0.0
O1387 O 0.4324 0.52771 0.3258 0.0
O1388 O 0.46373 0.57004 0.34488 0.0
O1389 O 0.43509 0.56704 0.33617 0.0
O1390 O 0.48986 0.54241 0.34021 0.0
O1391 O 0.4952 0.56353 0.35192 0.0
H1392 H 0.42479 0.5819 0.37746 0.0
H1393 H 0.39944 0.56822 0.38962 0.0
H1394 H 0.40303 0.48898 0.38947 0.0
H1395 H 0.42763 0.50239 0.3772 0.0
H1396 H 0.44243 0.46401 0.31746 0.0
H1397 H 0.45798 0.46225 0.30454 0.0
H1398 H 0.47959 0.55109 0.30108 0.0
H1399 H 0.46456 0.55295 0.31409 0.0
Sm1400 Sm 0.46998 0.90828 0.35603 0.0
Sm1401 Sm 0.48427 0.91665 0.33804 0.0
C1402 C 0.44759 0.88935 0.36965 0.0
C1403 C 0.457 0.88419 0.37711 0.0
C1404 C 0.43917 0.85832 0.38102 0.0
C1405 C 0.44733 0.85314 0.38814 0.0
C1406 C 0.4735 0.87382 0.39154 0.0
C1407 C 0.49144 0.89968 0.38758 0.0
C1408 C 0.48334 0.90477 0.38043 0.0
C1409 C 0.52897 0.9459 0.35346 0.0
C1410 C 0.49258 0.86866 0.3473 0.0
C1411 C 0.50714 0.93674 0.32447 0.0
C1412 C 0.50557 0.949 0.31705 0.0
C1413 C 0.53069 0.97287 0.31415 0.0
C1414 C 0.53145 0.98235 0.30671 0.0
C1415 C 0.50707 0.96811 0.30196 0.0
C1416 C 0.48146 0.94496 0.30498 0.0
C1417 C 0.48074 0.93543 0.31244 0.0
C1418 C 0.43078 0.87128 0.34192 0.0
C1419 C 0.45277 0.95057 0.34621 0.0
O1420 O 0.44539 0.87194 0.3641 0.0
O1421 O 0.45845 0.91641 0.36749 0.0
O1422 O 0.5091 0.93281 0.34872 0.0
O1423 O 0.51746 0.93954 0.36016 0.0
O1424 O 0.47619 0.87005 0.35273 0.0
O1425 O 0.50315 0.88781 0.34169 0.0
O1426 O 0.51447 0.9532 0.33052 0.0
O1427 O 0.4883 0.90953 0.32584 0.0
O1428 O 0.44346 0.89565 0.34519 0.0
O1429 O 0.44513 0.87141 0.33593 0.0
O1430 O 0.46458 0.94656 0.34 0.0
O1431 O 0.45148 0.93768 0.35275 0.0
H1432 H 0.41876 0.84213 0.37858 0.0
H1433 H 0.43284 0.83314 0.39105 0.0
H1434 H 0.51192 0.9159 0.38997 0.0
H1435 H 0.49768 0.92483 0.37752 0.0
H1436 H 0.55016 0.98363 0.31757 0.0
H1437 H 0.55137 1.00057 0.30463 0.0
H1438 H 0.46232 0.93338 0.30148 0.0
H1439 H 0.46106 0.91686 0.3145 0.0
H1440 H 0.15461 0.2032 0.18565 0.0
H1441 H 0.16572 0.16386 0.18729 0.0
H1442 H 0.10182 0.11324 0.17037 0.0
H1443 H 0.09057 0.152 0.16876 0.0
H1444 H 0.09813 0.08182 0.1833 0.0
H1445 H 0.21076 0.1416 0.17212 0.0
H1446 H 0.20259 0.15883 0.17974 0.0
H1447 H 0.18519 0.15404 0.17072 0.0
C1448 C 0.14292 0.1836 0.18231 0.0
C1449 C 0.12187 0.18072 0.17704 0.0
C1450 C 0.14942 0.16126 0.18321 0.0
C1451 C 0.13492 0.13578 0.17886 0.0
C1452 C 0.11342 0.13273 0.17375 0.0
H1453 H 0.16577 0.99406 0.16852 0.0
H1454 H 0.16316 0.0388 0.1683 0.0
C1455 C 0.10703 0.15495 0.17284 0.0
C1456 C 0.1415 0.11187 0.1796 0.0
H1457 H 0.1937 0.09364 0.17636 0.0
C1458 C 0.11908 0.08446 0.18183 0.0
C1459 C 0.16872 0.11524 0.17757 0.0
C1460 C 0.19321 0.14392 0.17484 0.0
C1461 C 0.12306 0.06034 0.18206 0.0
C1462 C 0.15039 0.06375 0.18013 0.0
C1463 C 0.17285 0.09114 0.17789 0.0
C1464 C 0.15565 0.03887 0.18036 0.0
C1465 C 0.0977 0.0312 0.18419 0.0
C1466 C 0.1534 0.02473 0.18724 0.0
C1467 C 0.1548 0.99926 0.18738 0.0
C1468 C 0.15871 0.98739 0.18064 0.0
C1469 C 0.16274 1.00257 0.1738 0.0
C1470 C 0.16121 0.02811 0.17367 0.0
H1471 H 0.07676 0.03089 0.18373 0.0
H1472 H 0.09678 0.0138 0.18053 0.0
H1473 H 0.10022 0.02618 0.19016 0.0
H1474 H 0.14968 0.03295 0.19248 0.0
H1475 H 0.15199 0.98843 0.19277 0.0
H1476 H 0.02303 0.16758 0.19326 0.0
H1477 H 0.97846 0.12068 0.19301 0.0
H1478 H 0.96897 0.13104 0.16913 0.0
H1479 H 0.01363 0.17849 0.16934 0.0
H1480 H 0.91537 0.10453 0.17747 0.0
H1481 H 0.98076 0.05185 0.1832 0.0
H1482 H 0.98527 0.07873 0.19005 0.0
H1483 H 0.99691 0.08936 0.18043 0.0
C1484 C 0.01128 0.16016 0.18797 0.0
C1485 C 0.02209 0.17667 0.1813 0.0
C1486 C 0.98582 0.13325 0.18784 0.0
C1487 C 0.97074 0.12205 0.18103 0.0
C1488 C 0.98039 0.13922 0.17445 0.0
H1489 H 0.86077 0.94407 0.16855 0.0
H1490 H 0.89852 0.99438 0.17033 0.0
C1491 C 1.00586 0.16636 0.17458 0.0
C1492 C 0.94624 0.09167 0.1807 0.0
H1493 H 0.92995 0.02145 0.18307 0.0
C1494 C 0.91848 0.08634 0.17871 0.0
C1495 C 0.95042 0.06793 0.18223 0.0
C1496 C 0.97997 0.07211 0.18403 0.0
C1497 C 0.89478 0.05788 0.17825 0.0
C1498 C 0.89892 0.03419 0.1799 0.0
C1499 C 0.9267 0.03961 0.18189 0.0
C1500 C 0.87546 1.00351 0.179 0.0
C1501 C 0.86572 0.05334 0.17577 0.0
C1502 C 0.84997 0.9916 0.18338 0.0
C1503 C 0.82817 0.96258 0.18237 0.0
C1504 C 0.83161 0.94512 0.17696 0.0
C1505 C 0.85738 0.95699 0.17273 0.0
C1506 C 0.87903 0.98579 0.17374 0.0
H1507 H 0.86749 0.07324 0.17323 0.0
H1508 H 0.85552 0.03545 0.17157 0.0
H1509 H 0.85117 0.0473 0.18077 0.0
H1510 H 0.84698 0.00469 0.18759 0.0
H1511 H 0.80858 0.95395 0.18574 0.0
H1512 H 0.0695 0.88508 0.18794 0.0
H1513 H 0.01968 0.87515 0.19007 0.0
H1514 H 1.00086 0.85539 0.16632 0.0
H1515 H 0.05027 0.86534 0.16418 0.0
H1516 H 0.99359 0.9045 0.18259 0.0
H1517 H 0.93214 0.78624 0.17703 0.0
H1518 H 0.97037 0.80543 0.17923 0.0
H1519 H 0.9582 0.807 0.16983 0.0
C1520 C 0.05458 0.8783 0.18321 0.0
C1521 C 0.06374 0.87597 0.1759 0.0
C1522 C 0.02617 0.87266 0.18442 0.0
C1523 C 1.00641 0.86414 0.17837 0.0
C1524 C 0.0155 0.86138 0.1711 0.0
H1525 H 0.83487 0.83721 0.16917 0.0
H1526 H 0.88153 0.83849 0.16896 0.0
C1527 C 0.04383 0.86724 0.16988 0.0
C1528 C 0.97685 0.85991 0.17945 0.0
H1529 H 0.90487 0.81063 0.17721 0.0
C1530 C 0.97416 0.88389 0.18151 0.0
C1531 C 0.95154 0.83309 0.17796 0.0
C1532 C 0.95307 0.80637 0.17595 0.0
C1533 C 0.94693 0.88205 0.18189 0.0
C1534 C 0.92156 0.85525 0.18034 0.0
C1535 C 0.92425 0.83115 0.17838 0.0
C1536 C 0.89214 0.85203 0.18065 0.0
C1537 C 0.94572 0.90916 0.18365 0.0
C1538 C 0.88205 0.85814 0.18736 0.0
C1539 C 0.85554 0.85756 0.18749 0.0
C1540 C 0.83823 0.85044 0.18093 0.0
C1541 C 0.8476 0.84274 0.17432 0.0
C1542 C 0.87432 0.84354 0.17419 0.0
H1543 H 0.96691 0.92907 0.18263 0.0
H1544 H 0.92899 0.91034 0.18016 0.0
H1545 H 0.94007 0.90896 0.18971 0.0
H1546 H 0.89498 0.86394 0.19248 0.0
H1547 H 0.84889 0.86329 0.19271 0.0
H1548 H 0.14949 0.08185 0.35246 0.0
H1549 H 0.11163 0.09448 0.35094 0.0
H1550 H 0.17361 0.1759 0.34074 0.0
H1551 H 0.21136 0.16251 0.34193 0.0
H1552 H 0.10761 0.13627 0.35731 0.0
H1553 H 0.10846 0.15112 0.32616 0.0
H1554 H 0.12768 0.13527 0.33062 0.0
H1555 H 0.14289 0.17398 0.33055 0.0
C1556 C 0.15491 0.10224 0.34978 0.0
C1557 C 0.18327 0.12118 0.34729 0.0
C1558 C 0.13329 0.10952 0.34894 0.0
C1559 C 0.13957 0.13611 0.34568 0.0
C1560 C 0.16794 0.15498 0.3431 0.0
H1561 H 0.00827 0.18946 0.35306 0.0
H1562 H 0.05438 0.18957 0.35344 0.0
C1563 C 0.18955 0.1474 0.34381 0.0
C1564 C 0.11651 0.14416 0.34536 0.0
H1565 H 0.07854 0.16322 0.33334 0.0
C1566 C 0.10129 0.1422 0.35206 0.0
C1567 C 0.10814 0.15186 0.33852 0.0
C1568 C 0.12244 0.15294 0.33104 0.0
C1569 C 0.07745 0.14669 0.35208 0.0
C1570 C 0.06918 0.15456 0.34525 0.0
C1571 C 0.08498 0.15743 0.3386 0.0
C1572 C 0.04253 0.15695 0.3447 0.0
C1573 C 0.06054 0.14144 0.35935 0.0
C1574 C 0.02104 0.13972 0.33943 0.0
C1575 C 0.99509 0.14013 0.33909 0.0
C1576 C 0.98977 0.15763 0.34405 0.0
C1577 C 0.01158 0.17556 0.3492 0.0
C1578 C 0.03786 0.17545 0.34947 0.0
H1579 H 0.06521 0.12855 0.36347 0.0
H1580 H 0.06664 0.16256 0.36204 0.0
H1581 H 0.03687 0.12984 0.35824 0.0
H1582 H 0.024 0.12527 0.33569 0.0
H1583 H 0.97885 0.12597 0.33505 0.0
H1584 H 0.86096 0.84462 0.33112 0.0
H1585 H 0.86257 0.89118 0.33151 0.0
H1586 H 0.83868 0.87796 0.35515 0.0
H1587 H 0.83658 0.8309 0.35479 0.0
H1588 H 0.8123 0.90449 0.34667 0.0
H1589 H 0.93132 0.95946 0.3422 0.0
H1590 H 0.91036 0.9333 0.33505 0.0
H1591 H 0.91002 0.92158 0.34463 0.0
C1592 C 0.85562 0.85135 0.33639 0.0
C1593 C 0.84897 0.83416 0.34295 0.0
C1594 C 0.85665 0.87805 0.3366 0.0
C1595 C 0.85138 0.88833 0.34339 0.0
C1596 C 0.84298 0.87049 0.34985 0.0
H1597 H 0.91561 0.06509 0.35669 0.0
H1598 H 0.90332 0.01478 0.355 0.0
C1599 C 0.84174 0.84358 0.34963 0.0
C1600 C 0.85668 0.91843 0.34387 0.0
H1601 H 0.91014 0.98919 0.34229 0.0
C1602 C 0.83365 0.92305 0.3457 0.0
C1603 C 0.88465 0.94261 0.3427 0.0
C1604 C 0.91059 0.93913 0.3411 0.0
C1605 C 0.83785 0.95124 0.34634 0.0
C1606 C 0.86574 0.97538 0.34503 0.0
C1607 C 0.88871 0.97068 0.34321 0.0
C1608 C 0.87224 0.00575 0.34604 0.0
C1609 C 0.81265 0.955 0.34863 0.0
C1610 C 0.85904 0.0176 0.3415 0.0
C1611 C 0.86605 0.04655 0.34247 0.0
C1612 C 0.88642 0.06403 0.34797 0.0
C1613 C 0.89973 0.05214 0.35243 0.0
C1614 C 0.89274 0.02337 0.35147 0.0
H1615 H 0.79445 0.93472 0.351 0.0
H1616 H 0.81945 0.97251 0.35291 0.0
H1617 H 0.80457 0.96119 0.34358 0.0
H1618 H 0.84359 0.00459 0.33717 0.0
H1619 H 0.8556 0.05522 0.33892 0.0
H1620 H 0.95448 0.807 0.33835 0.0
H1621 H 1.0052 0.84558 0.33664 0.0
H1622 H 0.99396 0.89648 0.35392 0.0
H1623 H 0.94363 0.85852 0.35555 0.0
H1624 H 0.0217 0.9285 0.34136 0.0
H1625 H 0.07304 0.86556 0.35113 0.0
H1626 H 0.04756 0.84954 0.34348 0.0
H1627 H 0.03516 0.85343 0.35265 0.0
C1628 C 0.9629 0.82649 0.34175 0.0
C1629 C 0.94516 0.82968 0.34712 0.0
C1630 C 0.99191 0.8484 0.34082 0.0
C1631 C 1.00357 0.87375 0.34525 0.0
C1632 C 0.98557 0.87709 0.35047 0.0
H1633 H 0.17881 0.01077 0.35525 0.0
H1634 H 0.13111 0.96647 0.35536 0.0
C1635 C 0.95676 0.85533 0.3514 0.0
C1636 C 0.03428 0.89728 0.34445 0.0
H1637 H 0.10451 0.91349 0.34692 0.0
C1638 C 0.0398 0.92516 0.34254 0.0
C1639 C 0.0579 0.89303 0.3461 0.0
C1640 C 0.05327 0.86386 0.34852 0.0
C1641 C 0.06814 0.94887 0.34225 0.0
C1642 C 0.09181 0.94457 0.34377 0.0
C1643 C 0.08637 0.91671 0.3457 0.0
C1644 C 0.12223 0.96902 0.3435 0.0
C1645 C 0.07242 0.97852 0.34054 0.0
C1646 C 0.13358 0.98447 0.33674 0.0
C1647 C 0.16065 0.00974 0.33667 0.0
C1648 C 0.17719 0.02001 0.34335 0.0
C1649 C 0.16667 1.00345 0.35001 0.0
C1650 C 0.13938 0.97816 0.35008 0.0
H1651 H 0.05219 0.97935 0.34141 0.0
H1652 H 0.08968 0.99532 0.34416 0.0
H1653 H 0.07903 0.98402 0.33452 0.0
H1654 H 0.12103 0.97749 0.33155 0.0
H1655 H 0.1682 0.02174 0.33141 0.0
H1656 H 0.85784 0.80665 0.83874 0.0
H1657 H 0.84607 0.84537 0.83671 0.0
H1658 H 0.90816 0.89728 0.85386 0.0
H1659 H 0.91997 0.85905 0.85588 0.0
H1660 H 0.82563 0.87148 0.84797 0.0
H1661 H 0.93079 0.95127 0.83514 0.0
H1662 H 0.91888 0.91308 0.83574 0.0
H1663 H 0.93414 0.936 0.8439 0.0
C1664 C 0.86907 0.82644 0.84203 0.0
C1665 C 0.88984 0.82988 0.84746 0.0
C1666 C 0.86226 0.84845 0.84089 0.0
C1667 C 0.87641 0.87429 0.8451 0.0
C1668 C 0.89724 0.8777 0.85048 0.0
H1669 H 0.83959 0.01202 0.85504 0.0
H1670 H 0.84122 0.96681 0.85514 0.0
C1671 C 0.9039 0.85578 0.85165 0.0
C1672 C 0.86946 0.89779 0.844 0.0
H1673 H 0.9004 0.96937 0.83936 0.0
C1674 C 0.84183 0.89282 0.846 0.0
C1675 C 0.89055 0.92554 0.8414 0.0
C1676 C 0.92018 0.93182 0.83885 0.0
C1677 C 0.83504 0.91518 0.84569 0.0
C1678 C 0.85658 0.94328 0.84339 0.0
C1679 C 0.88392 0.94792 0.84118 0.0
C1680 C 0.85158 0.96839 0.8432 0.0
C1681 C 0.80488 0.90848 0.84778 0.0
C1682 C 0.85662 0.98424 0.83647 0.0
C1683 C 0.85597 0.01012 0.83643 0.0
C1684 C 0.85024 0.02081 0.84311 0.0
C1685 C 0.84376 1.00423 0.84978 0.0
C1686 C 0.84463 0.97833 0.84984 0.0
H1687 H 0.78903 0.88493 0.84731 0.0
H1688 H 0.80482 0.9151 0.85374 0.0
H1689 H 0.7976 0.92053 0.8441 0.0
H1690 H 0.86199 0.97705 0.83129 0.0
H1691 H 0.86091 0.02225 0.83118 0.0
H1692 H 0.19104 0.0481 0.8603 0.0
H1693 H 0.15109 0.99883 0.85844 0.0
H1694 H 0.14637 0.0176 0.83485 0.0
H1695 H 0.18719 0.0671 0.83669 0.0
H1696 H 0.09669 0.98341 0.8544 0.0
H1697 H 0.14256 0.93982 0.83334 0.0
H1698 H 0.16477 0.97296 0.83851 0.0
H1699 H 0.14386 0.97281 0.8305 0.0
C1700 C 0.18179 0.04166 0.85469 0.0
C1701 C 0.19225 0.06146 0.84863 0.0
C1702 C 0.15888 0.01345 0.85363 0.0
C1703 C 0.14575 1.00428 0.8465 0.0
C1704 C 0.15646 0.02389 0.84038 0.0
H1705 H 0.9886 0.84959 0.83229 0.0
H1706 H 0.03411 0.89559 0.83297 0.0
C1707 C 0.17969 0.05222 0.84143 0.0
C1708 C 0.11978 0.97482 0.8457 0.0
H1709 H 0.0926 0.91022 0.83629 0.0
C1710 C 0.09591 0.96739 0.85046 0.0
C1711 C 0.11863 0.95387 0.84054 0.0
C1712 C 0.14389 0.96008 0.83547 0.0
C1713 C 0.07096 0.93983 0.85019 0.0
C1714 C 0.06988 0.91883 0.84508 0.0
C1715 C 0.09356 0.92626 0.84025 0.0
C1716 C 0.04379 0.88946 0.8445 0.0
C1717 C 0.04567 0.93361 0.85526 0.0
C1718 C 0.03448 0.87019 0.85068 0.0
C1719 C 0.00839 0.84368 0.8503 0.0
C1720 C 0.99108 0.83599 0.84374 0.0
C1721 C 1.00122 0.85482 0.83746 0.0
C1722 C 0.02731 0.88117 0.83782 0.0
H1723 H 0.04743 0.95379 0.85761 0.0
H1724 H 0.02489 0.92161 0.85212 0.0
H1725 H 0.04502 0.91994 0.86008 0.0
H1726 H 0.04709 0.87597 0.85585 0.0
H1727 H 1.00128 0.82976 0.85525 0.0
H1728 H 0.944 0.08952 0.85583 0.0
H1729 H 0.99396 0.10066 0.85418 0.0
H1730 H 0.00736 0.16465 0.83727 0.0
H1731 H 0.95695 0.15365 0.83896 0.0
H1732 H 0.02146 0.09681 0.84121 0.0
H1733 H 0.07489 0.20948 0.85239 0.0
H1734 H 0.03688 0.18403 0.85384 0.0
H1735 H 0.04942 0.20139 0.8448 0.0
C1736 C 0.95753 0.10598 0.85175 0.0
C1737 C 0.94663 0.12087 0.84755 0.0
C1738 C 0.9861 0.11231 0.85081 0.0
C1739 C 1.00457 0.13379 0.8457 0.0
C1740 C 0.99364 0.14837 0.84136 0.0
H1741 H 0.16866 0.14993 0.83172 0.0
H1742 H 0.12194 0.14785 0.83201 0.0
C1743 C 0.96483 0.14193 0.84228 0.0
C1744 C 0.03502 0.14023 0.84492 0.0
H1745 H 0.10555 0.19214 0.84815 0.0
C1746 C 0.03985 0.11772 0.84267 0.0
C1747 C 0.05897 0.16738 0.84695 0.0
C1748 C 0.05496 0.19197 0.84969 0.0
C1749 C 0.06788 0.12153 0.84243 0.0
C1750 C 0.0919 0.14878 0.84437 0.0
C1751 C 0.08714 0.17135 0.84662 0.0
C1752 C 0.12197 0.15385 0.84414 0.0
C1753 C 0.07147 0.09606 0.84028 0.0
C1754 C 0.13825 0.15934 0.85083 0.0
C1755 C 0.16527 0.16075 0.85069 0.0
C1756 C 0.17639 0.15665 0.84385 0.0
C1757 C 0.16066 0.15279 0.83712 0.0
C1758 C 0.13385 0.15152 0.83726 0.0
H1759 H 0.05076 0.07518 0.84075 0.0
H1760 H 0.07901 0.09857 0.83432 0.0
H1761 H 0.08786 0.095 0.84394 0.0
H1762 H 0.12953 0.16136 0.8562 0.0
H1763 H 0.17677 0.16375 0.85598 0.0
H1764 H 0.86266 0.92282 0.67011 0.0
H1765 H 0.9015 0.91162 0.67162 0.0
H1766 H 0.84936 0.84429 0.68765 0.0
H1767 H 0.80996 0.85528 0.68608 0.0
H1768 H 0.93186 0.91264 0.68441 0.0
H1769 H 0.87245 0.80214 0.67188 0.0
H1770 H 0.86011 0.82797 0.67093 0.0
H1771 H 0.85476 0.80873 0.67969 0.0
C1772 C 0.85945 0.90567 0.67399 0.0
C1773 C 0.83321 0.88976 0.67794 0.0
C1774 C 0.88168 0.8993 0.67484 0.0
C1775 C 0.87816 0.87679 0.67964 0.0
C1776 C 0.8523 0.86137 0.68379 0.0
H1777 H 0.02415 0.85709 0.69312 0.0
H1778 H 0.97957 0.85931 0.69294 0.0
C1779 C 0.82994 0.86782 0.68295 0.0
C1780 C 0.9019 0.86995 0.68025 0.0
H1781 H 0.91986 0.81796 0.67638 0.0
C1782 C 0.92919 0.89188 0.6827 0.0
C1783 C 0.89848 0.843 0.67789 0.0
C1784 C 0.86997 0.81912 0.67488 0.0
C1785 C 0.95315 0.88767 0.68285 0.0
C1786 C 0.94966 0.86057 0.68062 0.0
C1787 C 0.9224 0.83861 0.67815 0.0
C1788 C 0.97434 0.85506 0.68076 0.0
C1789 C 0.98223 0.91258 0.68522 0.0
C1790 C 0.98539 0.85037 0.67401 0.0
C1791 C 0.01092 0.84884 0.67409 0.0
C1792 C 0.02575 0.85205 0.68093 0.0
C1793 C 0.01354 0.85495 0.68773 0.0
C1794 C 0.98806 0.8563 0.68764 0.0
H1795 H 0.98274 0.93367 0.68495 0.0
H1796 H 0.98679 0.90918 0.69115 0.0
H1797 H 0.99981 0.91388 0.68156 0.0
H1798 H 0.975 0.84919 0.66863 0.0
H1799 H 0.01975 0.84662 0.66876 0.0
H1800 H 0.16626 0.17407 0.66801 0.0
H1801 H 0.16558 0.12767 0.66779 0.0
H1802 H 0.14569 0.1166 0.69168 0.0
H1803 H 0.1459 0.16243 0.69194 0.0
H1804 H 0.19669 0.10665 0.67585 0.0
H1805 H 0.07946 0.04265 0.68269 0.0
H1806 H 0.09681 0.08018 0.67985 0.0
H1807 H 0.10033 0.07072 0.68942 0.0
C1808 C 0.16201 0.1619 0.67323 0.0
C1809 C 0.15583 0.17192 0.67997 0.0
C1810 C 0.16156 0.13533 0.67309 0.0
C1811 C 0.15491 0.1183 0.67968 0.0
C1812 C 0.1501 0.12894 0.68648 0.0
H1813 H 0.12757 0.94339 0.68785 0.0
H1814 H 0.13621 0.99293 0.68972 0.0
C1815 C 0.1504 0.15531 0.68662 0.0
C1816 C 0.15246 0.08921 0.67945 0.0
H1817 H 0.10521 0.01712 0.68246 0.0
C1818 C 0.17669 0.08708 0.67728 0.0
C1819 C 0.12636 0.06363 0.68136 0.0
C1820 C 0.09916 0.06425 0.68339 0.0
C1821 C 0.17557 0.06015 0.67701 0.0
C1822 C 0.14941 0.03458 0.67885 0.0
C1823 C 0.12531 0.03674 0.68111 0.0
C1824 C 0.14593 0.00524 0.67792 0.0
C1825 C 0.20247 0.05928 0.6748 0.0
C1826 C 0.14837 0.9957 0.67069 0.0
C1827 C 0.14329 0.96756 0.66962 0.0
C1828 C 0.13562 0.94825 0.67576 0.0
C1829 C 0.13355 0.95785 0.68304 0.0
C1830 C 0.13845 0.98609 0.6841 0.0
H1831 H 0.22237 0.08058 0.67571 0.0
H1832 H 0.20436 0.04252 0.67808 0.0
H1833 H 0.20129 0.05383 0.66869 0.0
H1834 H 0.15352 0.00981 0.66582 0.0
H1835 H 0.14495 0.96077 0.66394 0.0
H1836 H 0.83516 0.9935 0.6675 0.0
H1837 H 0.88165 0.03916 0.66709 0.0
H1838 H 0.89013 0.03529 0.69131 0.0
H1839 H 0.84417 0.98984 0.69178 0.0
H1840 H 0.90279 0.09349 0.67459 0.0
H1841 H 0.96415 0.03925 0.68323 0.0
H1842 H 0.92697 0.01931 0.68009 0.0
H1843 H 0.93541 0.03346 0.68959 0.0
C1844 C 0.84671 1.00258 0.67275 0.0
C1845 C 0.83599 0.98778 0.67966 0.0
C1846 C 0.87334 0.02864 0.67251 0.0
C1847 C 0.88972 0.04031 0.67915 0.0
C1848 C 0.87828 0.02637 0.68609 0.0
H1849 H 0.06593 0.18614 0.68709 0.0
H1850 H 0.01596 0.14611 0.689 0.0
C1851 C 0.85184 1.00039 0.68634 0.0
C1852 C 0.9191 0.06654 0.67884 0.0
H1853 H 0.99066 0.09038 0.68237 0.0
C1854 C 0.922 0.09281 0.67629 0.0
C1855 C 0.9442 0.06571 0.68109 0.0
C1856 C 0.94269 0.0379 0.68359 0.0
C1857 C 0.94925 0.11826 0.67595 0.0
C1858 C 0.97437 0.11734 0.67812 0.0
C1859 C 0.97141 0.09115 0.68077 0.0
C1860 C 1.00406 0.14267 0.67715 0.0
C1861 C 0.95087 0.146 0.67335 0.0
C1862 C 0.01402 0.15389 0.66988 0.0
C1863 C 0.04238 0.17648 0.66879 0.0
C1864 C 0.06155 0.18839 0.67494 0.0
C1865 C 0.0516 0.17745 0.68226 0.0
C1866 C 0.0231 0.1546 0.68334 0.0
H1867 H 0.92983 0.14528 0.67412 0.0
H1868 H 0.96789 0.16498 0.67648 0.0
H1869 H 0.95633 0.14916 0.66722 0.0
H1870 H 1.00004 0.14469 0.66499 0.0
H1871 H 0.04942 0.18434 0.66308 0.0
H1872 H 0.81931 0.3188 0.52657 0.0
H1873 H 0.8161 0.3629 0.52678 0.0
H1874 H 0.83412 0.37424 0.50279 0.0
H1875 H 0.83783 0.33015 0.50255 0.0
H1876 H 0.86182 0.42677 0.51115 0.0
H1877 H 0.74459 0.36205 0.51797 0.0
H1878 H 0.76766 0.35731 0.52452 0.0
H1879 H 0.76534 0.34567 0.51484 0.0
C1880 C 0.82298 0.33082 0.52134 0.0
C1881 C 0.82856 0.32075 0.51452 0.0
C1882 C 0.82099 0.35599 0.52147 0.0
C1883 C 0.82421 0.37151 0.51477 0.0
C1884 C 0.83138 0.36248 0.50803 0.0
H1885 H 0.75671 0.48323 0.50382 0.0
H1886 H 0.76804 0.4445 0.50542 0.0
C1887 C 0.83355 0.33731 0.50789 0.0
C1888 C 0.81851 0.39613 0.51475 0.0
H1889 H 0.76537 0.41295 0.51795 0.0
C1890 C 0.84078 0.42382 0.51265 0.0
C1891 C 0.79091 0.39215 0.51663 0.0
C1892 C 0.76564 0.36267 0.51855 0.0
C1893 C 0.8362 0.44765 0.5124 0.0
C1894 C 0.80873 0.44373 0.5144 0.0
C1895 C 0.78652 0.41603 0.51651 0.0
C1896 C 0.80174 0.4674 0.51375 0.0
C1897 C 0.86051 0.47659 0.50975 0.0
C1898 C 0.81647 0.49303 0.51803 0.0
C1899 C 0.80998 0.51536 0.51713 0.0
C1900 C 0.78864 0.51231 0.51193 0.0
C1901 C 0.77339 0.4863 0.50784 0.0
C1902 C 0.77983 0.46411 0.50875 0.0
H1903 H 0.87802 0.47456 0.5069 0.0
H1904 H 0.85232 0.48696 0.50576 0.0
H1905 H 0.87004 0.49113 0.51471 0.0
H1906 H 0.83303 0.49581 0.52205 0.0
H1907 H 0.82198 0.53514 0.52038 0.0
H1908 H 0.52842 0.27675 0.50263 0.0
H1909 H 0.56665 0.32707 0.50423 0.0
H1910 H 0.51186 0.34197 0.51937 0.0
H1911 H 0.47313 0.29117 0.51777 0.0
H1912 H 0.54179 0.38606 0.50738 0.0
H1913 H 0.6159 0.36169 0.52377 0.0
H1914 H 0.60219 0.34097 0.5152 0.0
H1915 H 0.57767 0.33607 0.5228 0.0
C1916 C 0.52446 0.29066 0.50632 0.0
C1917 C 0.49777 0.28 0.51009 0.0
C1918 C 0.54639 0.31942 0.50725 0.0
C1919 C 0.54221 0.33823 0.51196 0.0
C1920 C 0.51553 0.32777 0.51571 0.0
H1921 H 0.68754 0.50385 0.52585 0.0
H1922 H 0.64225 0.45771 0.52553 0.0
C1923 C 0.49351 0.29878 0.51483 0.0
C1924 C 0.56592 0.36874 0.51287 0.0
H1925 H 0.63609 0.40932 0.51876 0.0
C1926 C 0.56233 0.39125 0.50994 0.0
C1927 C 0.59264 0.37547 0.51624 0.0
C1928 C 0.59737 0.35234 0.51975 0.0
C1929 C 0.58509 0.42026 0.5101 0.0
C1930 C 0.61221 0.42683 0.5132 0.0
C1931 C 0.61542 0.40434 0.51632 0.0
C1932 C 0.63767 0.45677 0.51333 0.0
C1933 C 0.57987 0.4436 0.50698 0.0
C1934 C 0.65003 0.47209 0.50658 0.0
C1935 C 0.67604 0.49877 0.50674 0.0
C1936 C 0.69034 0.51043 0.51366 0.0
C1937 C 0.67726 0.49552 0.52041 0.0
C1938 C 0.65131 0.46905 0.52025 0.0
H1939 H 0.55638 0.43637 0.50675 0.0
H1940 H 0.59101 0.46361 0.51046 0.0
H1941 H 0.58857 0.449 0.50112 0.0
H1942 H 0.64026 0.46285 0.50116 0.0
H1943 H 0.68564 0.50949 0.50143 0.0
H1944 H 0.52586 0.21509 0.52293 0.0
H1945 H 0.57122 0.21471 0.52232 0.0
H1946 H 0.53693 0.15153 0.5043 0.0
H1947 H 0.49149 0.15271 0.50466 0.0
H1948 H 0.58677 0.17556 0.52442 0.0
H1949 H 0.60941 0.21293 0.49451 0.0
H1950 H 0.57996 0.2118 0.49981 0.0
H1951 H 0.57642 0.17914 0.49578 0.0
C1952 C 0.52777 0.20094 0.51884 0.0
C1953 C 0.50506 0.1841 0.51379 0.0
C1954 C 0.55382 0.20073 0.51852 0.0
C1955 C 0.55782 0.18352 0.51317 0.0
C1956 C 0.5347 0.16561 0.50834 0.0
H1957 H 0.71996 0.17573 0.51557 0.0
H1958 H 0.66876 0.16228 0.51663 0.0
C1959 C 0.50865 0.16612 0.50858 0.0
C1960 C 0.58662 0.18545 0.51259 0.0
H1961 H 0.64352 0.20412 0.50055 0.0
C1962 C 0.59915 0.18167 0.51919 0.0
C1963 C 0.60294 0.19374 0.50578 0.0
C1964 C 0.59167 0.19992 0.49858 0.0
C1965 C 0.62772 0.18678 0.51924 0.0
C1966 C 0.64397 0.19496 0.51243 0.0
C1967 C 0.63109 0.1978 0.50578 0.0
C1968 C 0.67501 0.20285 0.51212 0.0
C1969 C 0.64059 0.18472 0.52668 0.0
C1970 C 0.69556 0.22988 0.50914 0.0
C1971 C 0.7245 0.23724 0.50837 0.0
C1972 C 0.73369 0.2179 0.51065 0.0
C1973 C 0.71344 0.19113 0.51383 0.0
C1974 C 0.68422 0.18351 0.51447 0.0
H1975 H 0.62824 0.18593 0.53161 0.0
H1976 H 0.63997 0.16361 0.52696 0.0
H1977 H 0.66349 0.2023 0.52722 0.0
H1978 H 0.68913 0.24527 0.50732 0.0
H1979 H 0.73971 0.25808 0.50594 0.0
H1980 H 0.8552 0.48071 0.69417 0.0
H1981 H 0.81491 0.48944 0.69206 0.0
H1982 H 0.81627 0.47262 0.66818 0.0
H1983 H 0.85681 0.46366 0.67029 0.0
H1984 H 0.80916 0.52924 0.68258 0.0
H1985 H 0.73224 0.4147 0.67474 0.0
H1986 H 0.76666 0.42565 0.67921 0.0
H1987 H 0.76514 0.43253 0.6693 0.0
C1988 C 0.84709 0.47907 0.68845 0.0
C1989 C 0.85904 0.47132 0.68239 0.0
C1990 C 0.82407 0.48412 0.68726 0.0
C1991 C 0.81227 0.48131 0.67999 0.0
C1992 C 0.82475 0.47448 0.67387 0.0
H1993 H 0.65458 0.47931 0.66593 0.0
H1994 H 0.70092 0.48053 0.66622 0.0
C1995 C 0.84799 0.46954 0.67506 0.0
C1996 C 0.78636 0.48467 0.67897 0.0
H1997 H 0.71424 0.44698 0.67465 0.0
C1998 C 0.78842 0.51131 0.68081 0.0
C1999 C 0.75928 0.46125 0.67669 0.0
C2000 C 0.75545 0.43181 0.67492 0.0
C2001 C 0.76419 0.5152 0.68038 0.0
C2002 C 0.73697 0.49161 0.67823 0.0
C2003 C 0.73505 0.46509 0.6763 0.0
C2004 C 0.71006 0.49367 0.67796 0.0
C2005 C 0.76813 0.54466 0.68214 0.0
C2006 C 0.69973 0.50102 0.68446 0.0
C2007 C 0.67318 0.50058 0.6843 0.0
C2008 C 0.65622 0.49239 0.67767 0.0
C2009 C 0.66697 0.48567 0.67115 0.0
C2010 C 0.69351 0.48631 0.6713 0.0
H2011 H 0.79106 0.56204 0.68145 0.0
H2012 H 0.75434 0.54962 0.67843 0.0
H2013 H 0.76183 0.54504 0.68812 0.0
H2014 H 0.7117 0.50614 0.68973 0.0
H2015 H 0.66544 0.50555 0.68945 0.0
H2016 H 0.55478 0.19012 0.66847 0.0
H2017 H 0.55421 0.23524 0.66931 0.0
H2018 H 0.48614 0.19752 0.68605 0.0
H2019 H 0.4874 0.15209 0.68546 0.0
H2020 H 0.51568 0.25073 0.66648 0.0
H2021 H 0.54382 0.26876 0.69708 0.0
H2022 H 0.54451 0.24024 0.69176 0.0
H2023 H 0.51064 0.23597 0.69506 0.0
C2024 C 0.5395 0.19116 0.67233 0.0
C2025 C 0.52122 0.16737 0.67694 0.0
C2026 C 0.5392 0.21713 0.67279 0.0
C2027 C 0.52049 0.22012 0.67783 0.0
C2028 C 0.50133 0.19608 0.68225 0.0
H2029 H 0.51423 0.38323 0.67513 0.0
H2030 H 0.50094 0.33214 0.67383 0.0
C2031 C 0.5019 0.17001 0.68187 0.0
C2032 C 0.52204 0.24879 0.67847 0.0
H2033 H 0.53741 0.30407 0.69083 0.0
C2034 C 0.52027 0.26235 0.67181 0.0
C2035 C 0.52835 0.26414 0.68542 0.0
C2036 C 0.53222 0.25171 0.69273 0.0
C2037 C 0.52558 0.29101 0.67185 0.0
C2038 C 0.53185 0.30633 0.6788 0.0
C2039 C 0.53259 0.29239 0.68549 0.0
C2040 C 0.53979 0.33742 0.67924 0.0
C2041 C 0.52584 0.30498 0.66438 0.0
C2042 C 0.56579 0.35743 0.6828 0.0
C2043 C 0.57301 0.38632 0.68369 0.0
C2044 C 0.55461 0.39603 0.68096 0.0
C2045 C 0.52896 0.37635 0.67721 0.0
C2046 C 0.52142 0.34717 0.67644 0.0
H2047 H 0.52854 0.29331 0.6595 0.0
H2048 H 0.50491 0.30445 0.66365 0.0
H2049 H 0.54355 0.32792 0.6642 0.0
H2050 H 0.58044 0.35061 0.68498 0.0
H2051 H 0.59295 0.40106 0.6866 0.0
H2052 H 0.8392 0.34973 0.68955 0.0
H2053 H 0.79267 0.30444 0.68915 0.0
H2054 H 0.78968 0.31209 0.66487 0.0
H2055 H 0.83585 0.35739 0.6652 0.0
H2056 H 0.73984 0.30274 0.6718 0.0
H2057 H 0.76978 0.22282 0.68201 0.0
H2058 H 0.78146 0.25349 0.68819 0.0
H2059 H 0.79636 0.25859 0.67879 0.0
C2060 C 0.82892 0.34155 0.6841 0.0
C2061 C 0.84135 0.35733 0.67741 0.0
C2062 C 0.80233 0.31555 0.68388 0.0
C2063 C 0.78779 0.30467 0.67697 0.0
C2064 C 0.80052 0.31999 0.67027 0.0
H2065 H 0.62443 0.13791 0.67216 0.0
H2066 H 0.67422 0.17805 0.67003 0.0
C2067 C 0.827 0.34594 0.67048 0.0
C2068 C 0.7583 0.27867 0.67676 0.0
H2069 H 0.71914 0.20717 0.68174 0.0
C2070 C 0.73541 0.28178 0.6739 0.0
C2071 C 0.7525 0.25121 0.67942 0.0
C2072 C 0.77635 0.24616 0.68221 0.0
C2073 C 0.70679 0.25852 0.67389 0.0
C2074 C 0.7008 0.23146 0.67688 0.0
C2075 C 0.72377 0.22798 0.67948 0.0
C2076 C 0.67063 0.20732 0.67788 0.0
C2077 C 0.6831 0.26316 0.67074 0.0
C2078 C 0.65226 0.21052 0.68299 0.0
C2079 C 0.62413 0.18779 0.68423 0.0
C2080 C 0.61371 0.16131 0.68039 0.0
C2081 C 0.63191 0.15813 0.67518 0.0
C2082 C 0.66031 0.18095 0.67398 0.0
H2083 H 0.69188 0.28216 0.66688 0.0
H2084 H 0.66679 0.24369 0.66762 0.0
H2085 H 0.67191 0.26719 0.6755 0.0
H2086 H 0.65987 0.23053 0.68613 0.0
H2087 H 0.6106 0.19088 0.68828 0.0
H2088 H 0.51858 0.13545 0.17233 0.0
H2089 H 0.5065 0.17404 0.17043 0.0
H2090 H 0.57534 0.22954 0.18568 0.0
H2091 H 0.58755 0.19156 0.18754 0.0
H2092 H 0.49073 0.20336 0.18164 0.0
H2093 H 0.59176 0.27933 0.16651 0.0
H2094 H 0.58001 0.24135 0.16763 0.0
H2095 H 0.5981 0.26633 0.17528 0.0
C2096 C 0.53119 0.15598 0.17523 0.0
C2097 C 0.55404 0.16052 0.18007 0.0
C2098 C 0.52423 0.17793 0.17416 0.0
C2099 C 0.54023 0.20479 0.17786 0.0
C2100 C 0.56298 0.2092 0.18268 0.0
H2101 H 0.50786 0.34498 0.18842 0.0
H2102 H 0.50897 0.29953 0.1884 0.0
C2103 C 0.56985 0.18738 0.18376 0.0
C2104 C 0.53334 0.22839 0.1768 0.0
H2105 H 0.56383 0.29926 0.17147 0.0
C2106 C 0.50653 0.22425 0.17933 0.0
C2107 C 0.55386 0.25554 0.17373 0.0
C2108 C 0.58244 0.2609 0.17056 0.0
C2109 C 0.50012 0.24689 0.17911 0.0
C2110 C 0.52125 0.27449 0.17638 0.0
C2111 C 0.54766 0.27824 0.17363 0.0
C2112 C 0.51683 0.30001 0.17633 0.0
C2113 C 0.47075 0.24097 0.18177 0.0
C2114 C 0.52078 0.31548 0.16957 0.0
C2115 C 0.52051 0.34156 0.16959 0.0
C2116 C 0.51619 0.35285 0.17637 0.0
C2117 C 0.51091 0.33673 0.18309 0.0
C2118 C 0.51146 0.31066 0.18308 0.0
H2119 H 0.45448 0.21749 0.18149 0.0
H2120 H 0.47234 0.24797 0.18776 0.0
H2121 H 0.46291 0.25309 0.17832 0.0
H2122 H 0.52495 0.30778 0.1643 0.0
H2123 H 0.52453 0.35333 0.16431 0.0
H2124 H 0.87454 0.38649 0.17226 0.0
H2125 H 0.8356 0.33614 0.17016 0.0
H2126 H 0.78085 0.34897 0.18582 0.0
H2127 H 0.81921 0.39886 0.1879 0.0
H2128 H 0.8066 0.29059 0.18116 0.0
H2129 H 0.73039 0.31694 0.16671 0.0
H2130 H 0.76844 0.34299 0.16779 0.0
H2131 H 0.74375 0.33577 0.17554 0.0
C2132 C 0.85411 0.37853 0.17521 0.0
C2133 C 0.84988 0.39658 0.18023 0.0
C2134 C 0.83196 0.34981 0.17402 0.0
C2135 C 0.80521 0.33893 0.17777 0.0
C2136 C 0.8011 0.35701 0.18278 0.0
H2137 H 0.66599 0.16739 0.18859 0.0
H2138 H 0.71117 0.21403 0.18829 0.0
C2139 C 0.82313 0.38551 0.18398 0.0
C2140 C 0.78151 0.30859 0.17663 0.0
H2141 H 0.71035 0.26879 0.17153 0.0
C2142 C 0.78564 0.28573 0.17897 0.0
C2143 C 0.75428 0.30227 0.17369 0.0
C2144 C 0.74895 0.32576 0.17072 0.0
C2145 C 0.76288 0.25677 0.17872 0.0
C2146 C 0.73519 0.2506 0.17616 0.0
C2147 C 0.73146 0.27344 0.17355 0.0
C2148 C 0.70952 0.22084 0.17624 0.0
C2149 C 0.76876 0.23309 0.18118 0.0
C2150 C 0.69339 0.20908 0.16958 0.0
C2151 C 0.66742 0.18261 0.16976 0.0
C2152 C 0.65692 0.16723 0.1766 0.0
C2153 C 0.67358 0.17851 0.18322 0.0
C2154 C 0.69952 0.20515 0.18305 0.0
H2155 H 0.79215 0.24008 0.18072 0.0
H2156 H 0.76235 0.22768 0.18721 0.0
H2157 H 0.75616 0.21317 0.17774 0.0
H2158 H 0.70058 0.22075 0.16427 0.0
H2159 H 0.65521 0.17457 0.16454 0.0
H2160 H 0.8355 0.48278 0.16457 0.0
H2161 H 0.7889 0.48103 0.1643 0.0
H2162 H 0.79534 0.49846 0.18832 0.0
H2163 H 0.84242 0.50078 0.18861 0.0
H2164 H 0.74116 0.4419 0.1717 0.0
H2165 H 0.76787 0.5523 0.18056 0.0
H2166 H 0.79518 0.54382 0.17756 0.0
H2167 H 0.78093 0.53549 0.18705 0.0
C2168 C 0.82732 0.48679 0.16978 0.0
C2169 C 0.84274 0.49191 0.17662 0.0
C2170 C 0.8006 0.48574 0.16961 0.0
C2171 C 0.78863 0.48982 0.17627 0.0
C2172 C 0.80437 0.49585 0.18307 0.0
H2173 H 0.61028 0.42079 0.18792 0.0
H2174 H 0.66009 0.43202 0.18581 0.0
C2175 C 0.83127 0.49708 0.18324 0.0
C2176 C 0.75863 0.4851 0.17618 0.0
H2177 H 0.71764 0.51578 0.18087 0.0
C2178 C 0.73611 0.4582 0.17364 0.0
C2179 C 0.75197 0.50644 0.17861 0.0
C2180 C 0.77529 0.53624 0.18103 0.0
C2181 C 0.70714 0.45173 0.1737 0.0
C2182 C 0.70034 0.47252 0.17648 0.0
C2183 C 0.72288 0.49979 0.17878 0.0
C2184 C 0.66985 0.46555 0.17751 0.0
C2185 C 0.68399 0.42257 0.17081 0.0
C2186 C 0.65878 0.48087 0.17358 0.0
C2187 C 0.6301 0.47442 0.17477 0.0
C2188 C 0.6123 0.45284 0.17998 0.0
C2189 C 0.62346 0.43751 0.18386 0.0
C2190 C 0.65191 0.44383 0.18264 0.0
H2191 H 0.69313 0.41267 0.16696 0.0
H2192 H 0.67388 0.40772 0.1757 0.0
H2193 H 0.66677 0.4244 0.16775 0.0
H2194 H 0.67232 0.4978 0.16961 0.0
H2195 H 0.62207 0.48663 0.17173 0.0
H2196 H 0.69087 0.19529 0.02614 0.0
H2197 H 0.6462 0.19741 0.02632 0.0
H2198 H 0.63358 0.17595 1.00253 0.0
H2199 H 0.67813 0.17327 1.00232 0.0
H2200 H 0.63754 0.23554 0.01839 0.0
H2201 H 0.55267 0.12392 1.01084 0.0
H2202 H 0.58857 0.13264 0.0138 0.0
H2203 H 0.58214 0.13938 1.0042 0.0
C2204 C 0.67835 0.19047 0.02096 0.0
C2205 C 0.68813 0.18413 0.01421 0.0
C2206 C 0.65278 0.19172 0.02108 0.0
C2207 C 0.63634 0.18664 0.01446 0.0
C2208 C 0.64552 0.17936 1.00775 0.0
H2209 H 0.52717 0.25488 1.00187 0.0
H2210 H 0.56557 0.24345 1.00406 0.0
C2211 C 0.67109 0.17794 1.00763 0.0
C2212 C 0.61123 0.19161 0.01445 0.0
H2213 H 0.53932 0.16064 1.01006 0.0
C2214 C 0.61601 0.21902 0.01664 0.0
C2215 C 0.58303 0.17002 0.01225 0.0
C2216 C 0.57616 0.13975 1.01021 0.0
C2217 C 0.59367 0.22571 0.01646 0.0
C2218 C 0.56584 0.2046 0.01391 0.0
C2219 C 0.56073 0.17686 1.01196 0.0
C2220 C 0.54239 0.21159 0.01278 0.0
C2221 C 0.6001 0.25544 0.01896 0.0
C2222 C 0.51638 0.19724 0.01692 0.0
C2223 C 0.49428 0.2038 0.01568 0.0
C2224 C 0.49778 0.22453 1.01022 0.0
C2225 C 0.52385 0.23884 1.00612 0.0
C2226 C 0.54588 0.23241 1.00738 0.0
H2227 H 0.61948 0.26597 0.02269 0.0
H2228 H 0.60448 0.26938 0.01389 0.0
H2229 H 0.58138 0.25432 0.02204 0.0
H2230 H 0.51323 0.18102 0.0211 0.0
H2231 H 0.47435 0.19239 0.0189 0.0
H2232 H 0.82654 0.28978 0.01823 0.0
H2233 H 0.83945 0.3407 0.02009 0.0
H2234 H 0.77257 0.32896 1.00434 0.0
H2235 H 0.75954 0.27849 1.00252 0.0
H2236 H 0.85688 0.38631 1.00887 0.0
H2237 H 0.75502 0.36196 0.02347 0.0
H2238 H 0.76647 0.33546 0.02244 0.0
H2239 H 0.7493 0.34289 0.01467 0.0
C2240 C 0.81456 0.29811 0.01521 0.0
C2241 C 0.79199 0.28016 1.01025 0.0
C2242 C 0.822 0.32717 0.01624 0.0
C2243 C 0.80676 0.33852 0.0124 0.0
C2244 C 0.78435 0.32058 1.00744 0.0
H2245 H 0.84189 0.51233 1.00236 0.0
H2246 H 0.84044 0.4656 1.00224 0.0
C2247 C 0.77699 0.29173 1.00639 0.0
C2248 C 0.81399 0.36907 0.0135 0.0
H2249 H 0.7841 0.41003 0.01879 0.0
C2250 C 0.84114 0.3916 1.01112 0.0
C2251 C 0.79353 0.37594 0.01649 0.0
C2252 C 0.76454 0.35282 0.01948 0.0
C2253 C 0.84799 0.42077 1.01143 0.0
C2254 C 0.82698 0.4275 0.0141 0.0
C2255 C 0.80018 0.40496 0.01669 0.0
C2256 C 0.8319 0.4576 0.01427 0.0
C2257 C 0.87769 0.44407 1.00894 0.0
C2258 C 0.82777 0.46883 0.02105 0.0
C2259 C 0.82823 0.49527 0.02111 0.0
C2260 C 0.83294 0.51122 0.01439 0.0
C2261 C 0.83854 0.50074 1.00765 0.0
C2262 C 0.83779 0.47403 1.00758 0.0
H2263 H 0.89365 0.43647 1.00922 0.0
H2264 H 0.87659 0.45 1.00297 0.0
H2265 H 0.88561 0.46382 0.01249 0.0
H2266 H 0.82322 0.45663 0.02628 0.0
H2267 H 0.82397 0.50277 0.02641 0.0
H2268 H 0.51217 0.32442 0.02592 0.0
H2269 H 0.55884 0.36914 0.02579 0.0
H2270 H 0.55 0.37805 1.00178 0.0
H2271 H 0.50275 0.3333 1.00189 0.0
H2272 H 0.60528 0.37582 0.01806 0.0
H2273 H 0.58006 0.46057 1.00916 0.0
H2274 H 0.55254 0.42528 0.01244 0.0
H2275 H 0.56591 0.42997 1.00287 0.0
C2276 C 0.51982 0.33614 0.02063 0.0
C2277 C 0.50371 0.32521 0.01391 0.0
C2278 C 0.54658 0.36175 0.02057 0.0
C2279 C 0.55799 0.37712 0.0138 0.0
C2280 C 0.54146 0.36693 1.00711 0.0
H2281 H 0.73754 0.48533 1.00223 0.0
H2282 H 0.68725 0.44725 1.00396 0.0
C2283 C 0.51444 0.34129 1.00718 0.0
C2284 C 0.58824 0.40202 0.01366 0.0
H2285 H 0.63 0.47362 1.00897 0.0
C2286 C 0.61059 0.39725 0.01612 0.0
C2287 C 0.59526 0.4301 1.01121 0.0
C2288 C 0.57218 0.43695 1.00884 0.0
C2289 C 0.63969 0.41947 0.01604 0.0
C2290 C 0.64683 0.44721 0.01331 0.0
C2291 C 0.6245 0.4523 1.01103 0.0
C2292 C 0.67747 0.47061 0.0124 0.0
C2293 C 0.6626 0.41305 0.01887 0.0
C2294 C 0.68871 0.49663 0.01652 0.0
C2295 C 0.71767 0.51856 0.01555 0.0
C2296 C 0.73563 0.51488 1.01036 0.0
C2297 C 0.72427 0.4888 1.00627 0.0
C2298 C 0.69552 0.46695 1.00727 0.0
H2299 H 0.65325 0.39372 0.02263 0.0
H2300 H 0.67282 0.40859 0.01396 0.0
H2301 H 0.67979 0.43182 0.02203 0.0
H2302 H 0.6751 0.49991 0.02049 0.0
H2303 H 0.72584 0.5385 0.01875 0.0
H2304 H 0.42518 0.81755 0.83599 0.0
H2305 H 0.43664 0.77909 0.83801 0.0
H2306 H 0.50129 0.83202 0.85452 0.0
H2307 H 0.4899 0.87102 0.85248 0.0
H2308 H 0.52003 0.80483 0.84334 0.0
H2309 H 0.41583 0.72607 0.85674 0.0
H2310 H 0.41165 0.74065 0.84796 0.0
H2311 H 0.42769 0.7642 0.85598 0.0
C2312 C 0.44173 0.82101 0.84009 0.0
C2313 C 0.45663 0.8473 0.84409 0.0
C2314 C 0.44819 0.79893 0.84125 0.0
C2315 C 0.46963 0.80254 0.84646 0.0
C2316 C 0.48459 0.82876 0.85049 0.0
H2317 H 0.48546 0.65445 0.86028 0.0
H2318 H 0.48399 0.69944 0.86014 0.0
C2319 C 0.478 0.85094 0.84935 0.0
C2320 C 0.47647 0.77889 0.84751 0.0
H2321 H 0.44548 0.70739 0.85228 0.0
C2322 C 0.50388 0.78359 0.84537 0.0
C2323 C 0.45545 0.75125 0.85021 0.0
C2324 C 0.42609 0.74522 0.85293 0.0
C2325 C 0.51051 0.7611 0.84564 0.0
C2326 C 0.48903 0.73311 0.84803 0.0
C2327 C 0.46192 0.72874 0.85038 0.0
C2328 C 0.4939 0.70788 0.8482 0.0
C2329 C 0.54049 0.76759 0.84341 0.0
C2330 C 0.50062 0.69779 0.84155 0.0
C2331 C 0.50171 0.672 0.84162 0.0
C2332 C 0.49571 0.65562 0.84831 0.0
C2333 C 0.49007 0.66639 0.855 0.0
C2334 C 0.48919 0.69216 0.85494 0.0
H2335 H 0.55646 0.79112 0.84383 0.0
H2336 H 0.5479 0.75552 0.84704 0.0
H2337 H 0.54013 0.76085 0.83744 0.0
H2338 H 0.50377 0.70916 0.83624 0.0
H2339 H 0.5058 0.66417 0.83635 0.0
H2340 H 0.13973 0.62415 0.85238 0.0
H2341 H 0.1786 0.67475 0.85409 0.0
H2342 H 0.22981 0.66254 0.83711 0.0
H2343 H 0.19162 0.61234 0.83548 0.0
H2344 H 0.26102 0.68917 0.84983 0.0
H2345 H 0.20138 0.74354 0.83972 0.0
H2346 H 0.18431 0.71787 0.84728 0.0
H2347 H 0.18842 0.70551 0.83813 0.0
C2348 C 0.15931 0.63237 0.84903 0.0
C2349 C 0.16258 0.61435 0.84377 0.0
C2350 C 0.18139 0.6613 0.84996 0.0
C2351 C 0.20697 0.6726 0.84564 0.0
C2352 C 0.21026 0.65441 0.84048 0.0
H2353 H 0.34761 0.84597 0.83599 0.0
H2354 H 0.3024 0.79908 0.83584 0.0
C2355 C 0.18835 0.62568 0.83955 0.0
C2356 C 0.23094 0.70302 0.84656 0.0
H2357 H 0.24927 0.77388 0.8441 0.0
C2358 C 0.25839 0.70769 0.84862 0.0
C2359 C 0.2276 0.72717 0.84487 0.0
C2360 C 0.19893 0.72343 0.84231 0.0
C2361 C 0.28258 0.7357 0.84899 0.0
C2362 C 0.2792 0.75991 0.84742 0.0
C2363 C 0.25176 0.75533 0.84537 0.0
C2364 C 0.30423 0.78998 0.84772 0.0
C2365 C 0.31176 0.73904 0.85084 0.0
C2366 C 0.3196 0.80097 0.85451 0.0
C2367 C 0.34542 0.82756 0.8546 0.0
C2368 C 0.35629 0.84398 0.84792 0.0
C2369 C 0.33983 0.83391 0.84123 0.0
C2370 C 0.31402 0.80708 0.84114 0.0
H2371 H 0.31196 0.71846 0.85 0.0
H2372 H 0.32906 0.75608 0.84726 0.0
H2373 H 0.31703 0.74549 0.85687 0.0
H2374 H 0.31214 0.78847 0.8597 0.0
H2375 H 0.35734 0.83482 0.85988 0.0
H2376 H 0.39082 0.52369 0.85322 0.0
H2377 H 0.34054 0.51283 0.8551 0.0
H2378 H 0.35263 0.57536 0.83787 0.0
H2379 H 0.40246 0.58642 0.83605 0.0
H2380 H 0.3258 0.58031 0.8507 0.0
H2381 H 0.2721 0.46631 0.84051 0.0
H2382 H 0.29783 0.47528 0.84808 0.0
H2383 H 0.31005 0.49158 0.83891 0.0
C2384 C 0.38268 0.53513 0.84987 0.0
C2385 C 0.40047 0.55575 0.84445 0.0
C2386 C 0.35393 0.52877 0.8509 0.0
C2387 C 0.34265 0.54295 0.84653 0.0
C2388 C 0.36074 0.56401 0.84128 0.0
H2389 H 0.17004 0.50951 0.8359 0.0
H2390 H 0.21739 0.51224 0.83608 0.0
C2391 C 0.38926 0.57029 0.84023 0.0
C2392 C 0.3122 0.53646 0.8474 0.0
H2393 H 0.24157 0.48401 0.84458 0.0
C2394 C 0.30738 0.55919 0.84942 0.0
C2395 C 0.28819 0.50901 0.84561 0.0
C2396 C 0.29213 0.48413 0.84309 0.0
C2397 C 0.27933 0.55535 0.84965 0.0
C2398 C 0.25526 0.52783 0.84794 0.0
C2399 C 0.26001 0.50501 0.84595 0.0
C2400 C 0.22517 0.52278 0.84802 0.0
C2401 C 0.27582 0.58113 0.85147 0.0
C2402 C 0.21334 0.52675 0.85471 0.0
C2403 C 0.18644 0.52533 0.85462 0.0
C2404 C 0.17057 0.51961 0.84784 0.0
C2405 C 0.18166 0.51395 0.84122 0.0
C2406 C 0.20875 0.51553 0.84131 0.0
H2407 H 0.29648 0.60193 0.85079 0.0
H2408 H 0.25921 0.58158 0.84777 0.0
H2409 H 0.26867 0.57961 0.85745 0.0
H2410 H 0.22532 0.53174 0.85999 0.0
H2411 H 0.17846 0.52949 0.85985 0.0
H2412 H 0.48673 0.75449 0.02209 0.0
H2413 H 0.44848 0.76627 0.02013 0.0
H2414 H 0.5021 0.8319 1.00389 0.0
H2415 H 0.54086 0.82017 1.00587 0.0
H2416 H 0.47495 0.85008 0.01525 0.0
H2417 H 0.39606 0.74722 1.00129 0.0
H2418 H 0.41039 0.7422 1.01001 0.0
H2419 H 0.43413 0.75882 1.00205 0.0
C2420 C 0.49037 0.77132 0.01806 0.0
C2421 C 0.51678 0.7864 0.01413 0.0
C2422 C 0.46842 0.77795 0.01692 0.0
C2423 C 0.4723 0.79978 1.01182 0.0
C2424 C 0.49864 0.81491 1.00785 0.0
H2425 H 0.32519 0.81843 0.99859 0.0
H2426 H 0.36982 0.81628 0.9985 0.0
C2427 C 0.52068 0.80813 1.00895 0.0
C2428 C 0.44888 0.80691 1.01082 0.0
H2429 H 0.37756 0.77674 1.00599 0.0
C2430 C 0.45372 0.83421 0.01314 0.0
C2431 C 0.42128 0.78626 1.00802 0.0
C2432 C 0.41514 0.75707 1.00513 0.0
C2433 C 0.43139 0.84104 0.01296 0.0
C2434 C 0.4034 0.81987 1.01049 0.0
C2435 C 0.3989 0.79292 1.00795 0.0
C2436 C 0.37829 0.82487 1.01049 0.0
C2437 C 0.43801 0.87087 0.0154 0.0
C2438 C 0.36833 0.83096 0.01725 0.0
C2439 C 0.34275 0.83242 0.01732 0.0
C2440 C 0.32649 0.82744 1.01064 0.0
C2441 C 0.33707 0.82229 1.00385 0.0
C2442 C 0.36263 0.82102 1.00378 0.0
H2443 H 0.46155 0.8868 0.01501 0.0
H2444 H 0.42601 0.87867 1.01188 0.0
H2445 H 0.4313 0.87004 0.0214 0.0
H2446 H 0.37965 0.83342 0.02254 0.0
H2447 H 0.33508 0.83614 0.02266 0.0
H2448 H 0.19079 0.72258 1.00588 0.0
H2449 H 0.17869 0.67185 1.00423 0.0
H2450 H 0.242 0.68385 0.0212 0.0
H2451 H 0.25436 0.7342 0.02278 0.0
H2452 H 0.24607 0.65666 1.00844 0.0
H2453 H 0.13242 0.60371 0.01883 0.0
H2454 H 0.14111 0.62929 1.01124 0.0
H2455 H 0.15788 0.64168 0.02035 0.0
C2456 C 0.20206 0.7143 1.00925 0.0
C2457 C 0.22339 0.73228 0.01449 0.0
C2458 C 0.195 0.6853 1.00834 0.0
C2459 C 0.20914 0.67391 0.01268 0.0
C2460 C 0.23069 0.69207 0.01782 0.0
H2461 H 0.17446 0.50018 0.02262 0.0
H2462 H 0.17721 0.54756 0.02271 0.0
C2463 C 0.23771 0.72087 0.01872 0.0
C2464 C 0.20236 0.64337 1.01182 0.0
H2465 H 0.14936 0.57284 0.01446 0.0
C2466 C 0.22487 0.63834 1.00971 0.0
C2467 C 0.1748 0.61949 0.01359 0.0
C2468 C 0.15016 0.62365 0.01619 0.0
C2469 C 0.2207 0.61018 1.00937 0.0
C2470 C 0.19304 0.58623 1.01103 0.0
C2471 C 0.17046 0.5912 0.01313 0.0
C2472 C 0.18763 0.55603 1.01078 0.0
C2473 C 0.24625 0.60641 1.00747 0.0
C2474 C 0.19143 0.54459 1.00399 0.0
C2475 C 0.19002 0.51769 1.00393 0.0
C2476 C 0.18443 0.50145 1.01065 0.0
C2477 C 0.17877 0.5121 0.01735 0.0
C2478 C 0.18039 0.5392 0.01741 0.0
H2479 H 0.26718 0.62688 1.00821 0.0
H2480 H 0.24644 0.58942 1.01107 0.0
H2481 H 0.2447 0.59963 1.00146 0.0
H2482 H 0.19642 0.55691 0.99878 0.0
H2483 H 0.19417 0.51002 0.99865 0.0
H2484 H 0.27936 0.52432 0.02248 0.0
H2485 H 0.3296 0.56239 0.02068 0.0
H2486 H 0.34148 0.50961 1.00413 0.0
H2487 H 0.29084 0.47099 1.00596 0.0
H2488 H 0.38731 0.5366 0.01522 0.0
H2489 H 0.36165 0.61547 1.00199 0.0
H2490 H 0.34312 0.60097 1.01081 0.0
H2491 H 0.33536 0.57736 1.00278 0.0
C2492 C 0.2926 0.52077 0.01844 0.0
C2493 C 0.28115 0.49469 0.01435 0.0
C2494 C 0.3213 0.54263 0.0174 0.0
C2495 C 0.33921 0.539 1.01222 0.0
C2496 C 0.32797 0.51288 1.00814 0.0
H2497 H 0.50265 0.68735 0.99828 0.0
H2498 H 0.45629 0.64223 0.9984 0.0
C2499 C 0.29908 0.49091 1.00917 0.0
C2500 C 0.36964 0.56263 1.01115 0.0
H2501 H 0.41005 0.63409 1.00635 0.0
C2502 C 0.39237 0.55786 0.0132 0.0
C2503 C 0.3762 0.59026 1.00846 0.0
C2504 C 0.35283 0.59634 1.00581 0.0
C2505 C 0.42147 0.58029 0.01286 0.0
C2506 C 0.42793 0.60829 1.0105 0.0
C2507 C 0.40517 0.61273 1.00823 0.0
C2508 C 0.45797 0.6335 1.01031 0.0
C2509 C 0.445 0.57375 0.015 0.0
C2510 C 0.47482 0.64342 0.01694 0.0
C2511 C 0.50163 0.66925 0.01688 0.0
C2512 C 0.51185 0.68583 1.01021 0.0
C2513 C 0.4954 0.67523 1.00353 0.0
C2514 C 0.46883 0.6494 1.00358 0.0
H2515 H 0.43743 0.55022 0.01453 0.0
H2516 H 0.46443 0.58591 1.01136 0.0
H2517 H 0.45145 0.5803 0.02098 0.0
H2518 H 0.46669 0.63191 0.02224 0.0
H2519 H 0.51359 0.67695 0.02214 0.0
H2520 H 0.25871 0.52408 0.52212 0.0
H2521 H 0.24741 0.56283 0.52055 0.0
H2522 H 0.1826 0.51177 0.50386 0.0
H2523 H 0.19377 0.47246 0.50547 0.0
H2524 H 0.25038 0.59407 0.50768 0.0
H2525 H 0.13824 0.53424 0.51916 0.0
H2526 H 0.16388 0.52182 0.52045 0.0
H2527 H 0.14604 0.51695 0.51149 0.0
C2528 C 0.24206 0.52104 0.5181 0.0
C2529 C 0.22698 0.49514 0.51396 0.0
C2530 C 0.23563 0.54325 0.51721 0.0
C2531 C 0.21385 0.54008 0.51219 0.0
C2532 C 0.19912 0.51448 0.50789 0.0
H2533 H 0.19593 0.68739 0.4985 0.0
H2534 H 0.19867 0.64308 0.4987 0.0
C2535 C 0.20566 0.49215 0.50876 0.0
C2536 C 0.20718 0.56397 0.51148 0.0
H2537 H 0.15497 0.58208 0.51487 0.0
C2538 C 0.22946 0.59139 0.5092 0.0
C2539 C 0.18 0.56057 0.51359 0.0
C2540 C 0.15566 0.5319 0.51637 0.0
C2541 C 0.22539 0.61547 0.509 0.0
C2542 C 0.19812 0.61203 0.51101 0.0
C2543 C 0.17579 0.58463 0.51329 0.0
C2544 C 0.19276 0.63688 0.51083 0.0
C2545 C 0.25064 0.64462 0.50682 0.0
C2546 C 0.1871 0.64742 0.51754 0.0
C2547 C 0.18531 0.67283 0.51745 0.0
C2548 C 0.18917 0.68811 0.51064 0.0
C2549 C 0.19323 0.67648 0.50388 0.0
C2550 C 0.19489 0.65113 0.50397 0.0
H2551 H 0.27163 0.64499 0.50724 0.0
H2552 H 0.24795 0.64954 0.50086 0.0
H2553 H 0.25162 0.66204 0.51049 0.0
H2554 H 0.18523 0.63665 0.52289 0.0
H2555 H 0.18217 0.68114 0.52276 0.0
H2556 H 0.54197 0.71845 0.50541 0.0
H2557 H 0.50366 0.66761 0.50367 0.0
H2558 H 0.45013 0.67968 0.51993 0.0
H2559 H 0.48791 0.7301 0.52166 0.0
H2560 H 0.47613 0.62206 0.51506 0.0
H2561 H 0.3983 0.64709 0.50092 0.0
H2562 H 0.43641 0.6733 0.50175 0.0
H2563 H 0.41251 0.66626 0.50967 0.0
C2564 C 0.52196 0.7102 0.50858 0.0
C2565 C 0.51788 0.72822 0.51366 0.0
C2566 C 0.50018 0.6812 0.50761 0.0
C2567 C 0.47396 0.66998 0.51163 0.0
C2568 C 0.47002 0.68798 0.5167 0.0
H2569 H 0.33473 0.49667 0.52179 0.0
H2570 H 0.38021 0.54322 0.52189 0.0
C2571 C 0.49169 0.71678 0.5177 0.0
C2572 C 0.45046 0.63951 0.51058 0.0
H2573 H 0.37942 0.59891 0.50547 0.0
C2574 C 0.45505 0.61689 0.51289 0.0
C2575 C 0.42308 0.63284 0.50769 0.0
C2576 C 0.41726 0.65611 0.5048 0.0
C2577 C 0.43262 0.58778 0.51259 0.0
C2578 C 0.40484 0.58123 0.51001 0.0
C2579 C 0.40062 0.60387 0.5075 0.0
C2580 C 0.37962 0.55121 0.50986 0.0
C2581 C 0.43892 0.56434 0.51501 0.0
C2582 C 0.3642 0.54005 0.50309 0.0
C2583 C 0.33815 0.51371 0.50304 0.0
C2584 C 0.32686 0.49783 0.50978 0.0
C2585 C 0.343 0.50823 0.5165 0.0
C2586 C 0.36906 0.53483 0.51655 0.0
H2587 H 0.46246 0.57185 0.5147 0.0
H2588 H 0.43188 0.55824 0.52097 0.0
H2589 H 0.42702 0.54469 0.51142 0.0
H2590 H 0.37188 0.55223 0.49785 0.0
H2591 H 0.32635 0.50626 0.49775 0.0
H2592 H 0.51144 0.83606 0.52143 0.0
H2593 H 0.46476 0.83467 0.52157 0.0
H2594 H 0.45164 0.80898 0.49806 0.0
H2595 H 0.49782 0.80976 0.4979 0.0
H2596 H 0.44221 0.86293 0.51321 0.0
H2597 H 0.37907 0.74445 0.50785 0.0
H2598 H 0.41694 0.76281 0.51037 0.0
H2599 H 0.40613 0.76442 0.50081 0.0
C2600 C 0.49876 0.83039 0.51627 0.0
C2601 C 0.50831 0.82277 0.50968 0.0
C2602 C 0.47203 0.82954 0.51636 0.0
C2603 C 0.45434 0.82107 0.50987 0.0
C2604 C 0.46449 0.81482 0.50319 0.0
H2605 H 0.27693 0.78937 0.50311 0.0
H2606 H 0.32646 0.79882 0.50071 0.0
C2607 C 0.49106 0.81548 0.50311 0.0
C2608 C 0.42506 0.81819 0.51013 0.0
H2609 H 0.35283 0.76943 0.50802 0.0
C2610 C 0.42269 0.84249 0.51207 0.0
C2611 C 0.39951 0.79151 0.50862 0.0
C2612 C 0.40039 0.76423 0.50686 0.0
C2613 C 0.39555 0.84086 0.51253 0.0
C2614 C 0.37004 0.81412 0.51111 0.0
C2615 C 0.37241 0.78996 0.50904 0.0
C2616 C 0.34066 0.81017 0.51234 0.0
C2617 C 0.39439 0.86778 0.51453 0.0
C2618 C 0.33219 0.81328 0.51965 0.0
C2619 C 0.30405 0.80772 0.52102 0.0
C2620 C 0.28369 0.79893 0.51511 0.0
C2621 C 0.29221 0.79624 0.50775 0.0
C2622 C 0.32045 0.80159 0.50639 0.0
H2623 H 0.41532 0.88777 0.51334 0.0
H2624 H 0.37693 0.86874 0.51134 0.0
H2625 H 0.38976 0.86748 0.52068 0.0
H2626 H 0.34718 0.81933 0.52436 0.0
H2627 H 0.2981 0.80989 0.52676 0.0
H2628 H 0.13304 0.51095 0.34836 0.0
H2629 H 0.17052 0.49711 0.34939 0.0
H2630 H 0.23404 0.58081 0.34064 0.0
H2631 H 0.19657 0.59405 0.3393 0.0
H2632 H 0.23839 0.53992 0.3336 0.0
H2633 H 0.23391 0.51915 0.36455 0.0
H2634 H 0.20006 0.49748 0.35976 0.0
H2635 H 0.21551 0.53617 0.36024 0.0
C2636 C 0.15511 0.52642 0.34675 0.0
C2637 C 0.16197 0.55353 0.34374 0.0
C2638 C 0.17654 0.51857 0.34737 0.0
C2639 C 0.20526 0.538 0.34516 0.0
C2640 C 0.21209 0.56535 0.34235 0.0
H2641 H 0.36577 0.54854 0.35598 0.0
H2642 H 0.3202 0.54849 0.35537 0.0
C2643 C 0.19067 0.57296 0.34161 0.0
C2644 C 0.22824 0.52987 0.34542 0.0
H2645 H 0.26527 0.50925 0.35731 0.0
C2646 C 0.24421 0.53312 0.33878 0.0
C2647 C 0.23592 0.52108 0.35219 0.0
C2648 C 0.22066 0.5185 0.35961 0.0
C2649 C 0.26818 0.52888 0.33877 0.0
C2650 C 0.27584 0.52 0.34553 0.0
C2651 C 0.25928 0.51582 0.35211 0.0
C2652 C 0.3026 0.51787 0.3461 0.0
C2653 C 0.28591 0.53548 0.3316 0.0
C2654 C 0.30784 0.50016 0.34119 0.0
C2655 C 0.33431 0.50048 0.34144 0.0
C2656 C 0.35574 0.51807 0.34671 0.0
C2657 C 0.34982 0.53469 0.35184 0.0
C2658 C 0.32365 0.53467 0.35151 0.0
H2659 H 0.28143 0.54882 0.32758 0.0
H2660 H 0.30946 0.54719 0.33288 0.0
H2661 H 0.28042 0.51487 0.3287 0.0
H2662 H 0.29164 0.48639 0.33709 0.0
H2663 H 0.33808 0.48723 0.33746 0.0
H2664 H 0.49265 0.62292 0.35132 0.0
H2665 H 0.50453 0.67357 0.35309 0.0
H2666 H 0.43905 0.66091 0.33675 0.0
H2667 H 0.42704 0.61069 0.33501 0.0
H2668 H 0.5225 0.7193 0.34186 0.0
H2669 H 0.41859 0.69293 0.35562 0.0
H2670 H 0.43079 0.66695 0.35479 0.0
H2671 H 0.41424 0.67414 0.34683 0.0
C2672 C 0.48077 0.63099 0.34814 0.0
C2673 C 0.45888 0.61284 0.34304 0.0
C2674 C 0.48762 0.6599 0.34913 0.0
C2675 C 0.47246 0.67093 0.3451 0.0
C2676 C 0.45074 0.65279 0.34 0.0
H2677 H 0.5067 0.84498 0.3353 0.0
H2678 H 0.50532 0.79828 0.33507 0.0
C2679 C 0.44398 0.62409 0.33899 0.0
C2680 C 0.47906 0.70132 0.34616 0.0
H2681 H 0.44775 0.74129 0.35117 0.0
C2682 C 0.5063 0.7242 0.34397 0.0
C2683 C 0.45801 0.70769 0.34897 0.0
C2684 C 0.42885 0.68417 0.35176 0.0
C2685 C 0.51271 0.75324 0.3443 0.0
C2686 C 0.49117 0.75949 0.3468 0.0
C2687 C 0.46424 0.73658 0.34919 0.0
C2688 C 0.49576 0.78946 0.34704 0.0
C2689 C 0.54253 0.77692 0.34202 0.0
C2690 C 0.49098 0.80021 0.35382 0.0
C2691 C 0.49144 0.82666 0.35395 0.0
C2692 C 0.49675 0.8431 0.34728 0.0
C2693 C 0.50286 0.83302 0.34055 0.0
C2694 C 0.50215 0.80632 0.34042 0.0
H2695 H 0.55866 0.76957 0.34237 0.0
H2696 H 0.54191 0.78326 0.33606 0.0
H2697 H 0.54991 0.79639 0.34565 0.0
H2698 H 0.48602 0.78769 0.359 0.0
H2699 H 0.48677 0.8338 0.35925 0.0
H2700 H 0.16947 0.66651 0.33552 0.0
H2701 H 0.21717 0.7106 0.33571 0.0
H2702 H 0.22549 0.69796 0.35952 0.0
H2703 H 0.1782 0.65379 0.35938 0.0
H2704 H 0.24225 0.76266 0.34433 0.0
H2705 H 0.29563 0.69779 0.34997 0.0
H2706 H 0.25828 0.68151 0.34705 0.0
H2707 H 0.26823 0.69266 0.35672 0.0
C2708 C 0.18124 0.67335 0.34083 0.0
C2709 C 0.17012 0.65641 0.34742 0.0
C2710 C 0.20852 0.69854 0.34092 0.0
C2711 C 0.22513 0.70724 0.3476 0.0
C2712 C 0.21333 0.69132 0.35427 0.0
H2713 H 0.39229 0.87008 0.35253 0.0
H2714 H 0.34198 0.83106 0.35454 0.0
C2715 C 0.18619 0.66612 0.35418 0.0
C2716 C 0.25539 0.73192 0.34748 0.0
H2717 H 0.32571 0.74863 0.34983 0.0
C2718 C 0.26053 0.75967 0.34557 0.0
C2719 C 0.27921 0.72788 0.34901 0.0
C2720 C 0.27521 0.69834 0.35074 0.0
C2721 C 0.28887 0.7835 0.34513 0.0
C2722 C 0.31265 0.77948 0.34674 0.0
C2723 C 0.30745 0.75174 0.34869 0.0
C2724 C 0.34318 0.80309 0.3458 0.0
C2725 C 0.29321 0.81255 0.3427 0.0
C2726 C 0.36076 0.79998 0.3404 0.0
C2727 C 0.38932 0.82201 0.33929 0.0
C2728 C 0.40104 0.84765 0.34357 0.0
C2729 C 0.38374 0.85058 0.34913 0.0
C2730 C 0.35498 0.82843 0.35024 0.0
H2731 H 0.2732 0.81073 0.34022 0.0
H2732 H 0.29941 0.82708 0.3477 0.0
H2733 H 0.31093 0.82281 0.33846 0.0
H2734 H 0.3522 0.78059 0.33695 0.0
H2735 H 0.40215 0.81904 0.33499 0.0
H2736 H 0.2132 0.29759 0.19117 0.0
H2737 H 0.26594 0.32357 0.1902 0.0
H2738 H 0.25991 0.33482 0.1662 0.0
H2739 H 0.20698 0.30912 0.16712 0.0
H2740 H 0.30049 0.30921 0.182 0.0
H2741 H 0.31894 0.41653 0.17277 0.0
H2742 H 0.28471 0.38888 0.17656 0.0
H2743 H 0.29399 0.38728 0.16683 0.0
C2744 C 0.22297 0.30581 0.18568 0.0
C2745 C 0.20562 0.30126 0.17922 0.0
C2746 C 0.25325 0.32065 0.18514 0.0
C2747 C 0.26706 0.33153 0.17815 0.0
C2748 C 0.24987 0.32722 0.17169 0.0
H2749 H 0.44129 0.41209 0.16059 0.0
H2750 H 0.38935 0.39032 0.16294 0.0
C2751 C 0.21952 0.31236 0.17222 0.0
C2752 C 0.29932 0.34628 0.17759 0.0
H2753 H 0.3593 0.40899 0.17192 0.0
C2754 C 0.31337 0.33113 0.17985 0.0
C2755 C 0.31624 0.37493 0.17482 0.0
C2756 C 0.30278 0.393 0.17267 0.0
C2757 C 0.34361 0.3434 0.17919 0.0
C2758 C 0.36045 0.37186 0.17628 0.0
C2759 C 0.34646 0.38718 0.17413 0.0
C2760 C 0.39236 0.38557 0.17504 0.0
C2761 C 0.35712 0.32539 0.18134 0.0
C2762 C 0.41162 0.39056 0.18106 0.0
C2763 C 0.44152 0.40307 0.17972 0.0
C2764 C 0.45267 0.41095 0.17233 0.0
C2765 C 0.4334 0.40627 0.16635 0.0
C2766 C 0.40365 0.39385 0.16769 0.0
H2767 H 0.34071 0.302 0.1818 0.0
H2768 H 0.37375 0.32799 0.17713 0.0
H2769 H 0.36791 0.33273 0.18694 0.0
H2770 H 0.40356 0.38484 0.18681 0.0
H2771 H 0.45582 0.40629 0.18444 0.0
H2772 H 0.55542 0.99731 0.17146 0.0
H2773 H 0.57796 0.96729 0.17309 0.0
H2774 H 0.65784 0.04309 0.17978 0.0
H2775 H 0.63465 0.07256 0.17868 0.0
H2776 H 0.61801 0.96491 0.16634 0.0
H2777 H 0.65586 0.99192 0.19589 0.0
H2778 H 0.63227 1.00318 0.1917 0.0
H2779 H 0.67097 0.02421 0.19028 0.0
C2780 C 0.57765 0.0074 0.1734 0.0
C2781 C 0.59317 0.0372 0.17501 0.0
C2782 C 0.59062 0.99026 0.17431 0.0
C2783 C 0.61961 1.0026 0.17672 0.0
C2784 C 0.6352 0.03258 0.17821 0.0
H2785 H 0.72366 0.92068 0.16729 0.0
H2786 H 0.69719 0.94711 0.16666 0.0
C2787 C 0.62199 0.04955 0.17751 0.0
C2788 C 0.63382 0.98442 0.1773 0.0
H2789 H 0.67778 0.9703 0.18846 0.0
C2790 C 0.63078 0.9659 0.17124 0.0
C2791 C 0.65017 0.98502 0.18371 0.0
C2792 C 0.65222 1.0019 0.19079 0.0
C2793 C 0.64383 0.94853 0.17135 0.0
C2794 C 0.66182 0.95065 0.17753 0.0
C2795 C 0.66445 0.96879 0.18365 0.0
C2796 C 0.6779 0.93421 0.17783 0.0
C2797 C 0.63733 0.92749 0.1649 0.0
C2798 C 0.67715 0.91894 0.18443 0.0
C2799 C 0.69317 0.90463 0.18489 0.0
C2800 C 0.70992 0.90471 0.17871 0.0
C2801 C 0.71048 0.91967 0.17209 0.0
C2802 C 0.69511 0.93467 0.17171 0.0
H2803 H 0.61597 0.921 0.16229 0.0
H2804 H 0.65401 0.93809 0.16042 0.0
H2805 H 0.63723 0.90761 0.16682 0.0
H2806 H 0.66423 0.91816 0.18926 0.0
H2807 H 0.69237 0.8934 0.19008 0.0
H2808 H 0.07979 0.79859 0.19026 0.0
H2809 H 0.05371 0.74591 0.18933 0.0
H2810 H 0.09974 0.7512 0.16873 0.0
H2811 H 0.12556 0.8042 0.16951 0.0
H2812 H 0.04269 0.71354 0.16726 0.0
H2813 H 0.08026 0.68925 0.19408 0.0
H2814 H 0.06383 0.71116 0.19552 0.0
H2815 H 0.09691 0.72531 0.19015 0.0
C2816 C 0.0847 0.78868 0.18556 0.0
C2817 C 0.10503 0.80586 0.17998 0.0
C2818 C 0.0698 0.75839 0.18506 0.0
C2819 C 0.0751 0.74438 0.17904 0.0
C2820 C 0.09538 0.76142 0.17346 0.0
H2821 H 1.00364 0.56337 0.16562 0.0
H2822 H 0.03322 0.61605 0.16707 0.0
C2823 C 0.11019 0.79179 0.17393 0.0
C2824 C 0.05851 0.71209 0.17839 0.0
H2825 H 0.04028 0.6493 0.18795 0.0
C2826 C 0.04241 0.69954 0.17176 0.0
C2827 C 0.05796 0.69365 0.18427 0.0
C2828 C 0.07589 0.70551 0.19137 0.0
C2829 C 0.02544 0.66928 0.17091 0.0
C2830 C 0.02469 0.65093 0.17682 0.0
C2831 C 0.04078 0.66338 0.18344 0.0
C2832 C 0.00742 0.61876 0.17617 0.0
C2833 C 0.0079 0.65714 0.16377 0.0
C2834 C 0.9835 0.6026 0.18094 0.0
C2835 C 0.96649 0.57244 0.18011 0.0
C2836 C 0.97328 0.55784 0.17454 0.0
C2837 C 0.99776 0.57397 0.16994 0.0
C2838 C 0.01462 0.60411 0.17074 0.0
H2839 H 1.00587 0.67391 0.16053 0.0
H2840 H 0.0187 0.6485 0.16007 0.0
H2841 H 0.98586 0.63905 0.16511 0.0
H2842 H 0.97764 0.61341 0.1852 0.0
H2843 H 0.94784 0.56059 0.18376 0.0
H2844 H 0.30795 0.21056 0.33373 0.0
H2845 H 0.33452 0.26335 0.3347 0.0
H2846 H 0.33231 0.25709 0.35908 0.0
H2847 H 0.30558 0.20404 0.35818 0.0
H2848 H 0.31448 0.29594 0.35299 0.0
H2849 H 0.41994 0.31756 0.34109 0.0
H2850 H 0.38878 0.29428 0.33544 0.0
H2851 H 0.39314 0.28237 0.34462 0.0
C2852 C 0.31329 0.22029 0.33931 0.0
C2853 C 0.30461 0.20287 0.34588 0.0
C2854 C 0.32864 0.25058 0.33985 0.0
C2855 C 0.33568 0.26426 0.34696 0.0
C2856 C 0.32723 0.24703 0.35353 0.0
H2857 H 0.44916 0.44743 0.35728 0.0
H2858 H 0.426 0.39455 0.35622 0.0
C2859 C 0.31204 0.21666 0.353 0.0
C2860 C 0.35084 0.2965 0.34751 0.0
H2861 H 0.41384 0.35834 0.34295 0.0
C2862 C 0.33624 0.30958 0.35082 0.0
C2863 C 0.37929 0.31433 0.34471 0.0
C2864 C 0.39639 0.30152 0.34132 0.0
C2865 C 0.34911 0.33993 0.35129 0.0
C2866 C 0.37732 0.35777 0.34834 0.0
C2867 C 0.39213 0.34469 0.34515 0.0
C2868 C 0.39201 0.39002 0.34867 0.0
C2869 C 0.33256 0.35271 0.35502 0.0
C2870 C 0.38101 0.4052 0.34465 0.0
C2871 C 0.39433 0.43546 0.34521 0.0
C2872 C 0.41886 0.45113 0.34983 0.0
C2873 C 0.43023 0.43597 0.3537 0.0
C2874 C 0.41702 0.40575 0.3531 0.0
H2875 H 0.31398 0.33635 0.35842 0.0
H2876 H 0.34696 0.37105 0.35879 0.0
H2877 H 0.32397 0.36117 0.35059 0.0
H2878 H 0.36201 0.3936 0.3411 0.0
H2879 H 0.38513 0.44651 0.34212 0.0
H2880 H 0.57041 0.97918 0.36363 0.0
H2881 H 0.62237 0.01014 0.36152 0.0
H2882 H 0.61077 0.98686 0.33783 0.0
H2883 H 0.55833 0.95612 0.33991 0.0
H2884 H 0.6609 0.99491 0.35685 0.0
H2885 H 0.66047 0.07414 0.3365 0.0
H2886 H 0.62871 0.0493 0.34183 0.0
H2887 H 0.63926 0.03701 0.33356 0.0
C2888 C 0.57885 0.98086 0.35794 0.0
C2889 C 0.56025 0.96538 0.35192 0.0
C2890 C 0.60862 0.99856 0.35675 0.0
C2891 C 0.62062 1.00124 0.3495 0.0
C2892 C 0.60205 0.98576 0.34344 0.0
H2893 H 0.79944 0.08795 0.33375 0.0
H2894 H 0.74674 0.06041 0.33492 0.0
C2895 C 0.57209 0.96809 0.34463 0.0
C2896 C 0.65266 0.01926 0.34846 0.0
H2897 H 0.70588 0.0776 0.33893 0.0
C2898 C 0.67068 0.01306 0.35295 0.0
C2899 C 0.66556 0.04293 0.34335 0.0
C2900 C 0.64756 0.05148 0.33858 0.0
C2901 C 0.70105 0.02964 0.35245 0.0
C2902 C 0.71394 0.05344 0.3474 0.0
C2903 C 0.696 0.05949 0.34284 0.0
C2904 C 0.74601 0.07179 0.34665 0.0
C2905 C 0.71912 0.02117 0.35723 0.0
C2906 C 0.76325 0.08801 0.35282 0.0
C2907 C 0.79356 0.10396 0.35217 0.0
C2908 C 0.80723 0.10396 0.34533 0.0
C2909 C 0.78976 0.08838 0.33911 0.0
C2910 C 0.75955 0.0726 0.33976 0.0
H2911 H 0.70616 0.99871 0.35944 0.0
H2912 H 0.73763 0.02285 0.35392 0.0
H2913 H 0.72798 0.03609 0.36215 0.0
H2914 H 0.75327 0.0881 0.35816 0.0
H2915 H 0.80626 0.11571 0.35706 0.0
H2916 H 0.92179 0.72223 0.35669 0.0
H2917 H 0.94929 0.69678 0.3573 0.0
H2918 H 0.92013 0.66299 0.33478 0.0
H2919 H 0.89431 0.69008 0.33397 0.0
H2920 H 0.93787 0.6449 0.3573 0.0
H2921 H 1.00307 0.69341 0.33147 0.0
H2922 H 0.9798 0.70566 0.33536 0.0
H2923 H 0.96521 0.67421 0.32928 0.0
C2924 C 0.92124 0.70933 0.35187 0.0
C2925 C 0.90608 0.70833 0.34526 0.0
C2926 C 0.93702 0.69478 0.35222 0.0
C2927 C 0.9376 0.67845 0.346 0.0
C2928 C 0.92118 0.67631 0.33954 0.0
H2929 H 0.99939 0.55452 0.35229 0.0
H2930 H 0.96945 0.57723 0.35091 0.0
C2931 C 0.90608 0.69153 0.33911 0.0
C2932 C 0.95511 0.66356 0.34636 0.0
H2933 H 1.00448 0.65281 0.33662 0.0
C2934 C 0.95258 0.64685 0.35279 0.0
C2935 C 0.97486 0.66638 0.34057 0.0
C2936 C 0.98115 0.68615 0.33383 0.0
C2937 C 0.96898 0.63294 0.35359 0.0
C2938 C 0.98747 0.63439 0.3476 0.0
C2939 C 0.99008 0.65119 0.34118 0.0
C2940 C 1.00515 0.61968 0.34798 0.0
C2941 C 0.967 0.61783 0.36099 0.0
C2942 C 0.03498 0.63523 0.34632 0.0
C2943 C 0.05186 0.62189 0.34681 0.0
C2944 C 0.03944 0.59284 0.34911 0.0
C2945 C 0.00958 0.57706 0.35061 0.0
C2946 C 0.99252 0.59018 0.34991 0.0
H2947 H 0.96013 0.6269 0.3657 0.0
H2948 H 0.95052 0.59453 0.36047 0.0
H2949 H 0.98808 0.61974 0.36254 0.0
H2950 H 0.0454 0.65791 0.34477 0.0
H2951 H 0.07484 0.6346 0.34561 0.0
H2952 H 0.55749 0.60287 0.84035 0.0
H2953 H 0.60982 0.62431 0.838 0.0
H2954 H 0.62383 0.61886 0.86188 0.0
H2955 H 0.57193 0.59732 0.86422 0.0
H2956 H 0.65606 0.67561 0.84404 0.0
H2957 H 0.66658 0.58106 0.85234 0.0
H2958 H 0.632 0.57818 0.85036 0.0
H2959 H 0.64912 0.59124 0.85943 0.0
C2960 C 0.57175 0.60597 0.84507 0.0
C2961 C 0.56055 0.59814 0.85246 0.0
C2962 C 0.60165 0.61831 0.84373 0.0
C2963 C 0.62081 0.62276 0.84975 0.0
C2964 C 0.60954 0.61507 0.85712 0.0
H2965 H 0.80616 0.70193 0.85738 0.0
H2966 H 0.75317 0.67638 0.85824 0.0
C2967 C 0.57981 0.60288 0.85845 0.0
C2968 C 0.6527 0.6364 0.84844 0.0
H2969 H 0.71059 0.62632 0.85128 0.0
C2970 C 0.66795 0.66471 0.84554 0.0
C2971 C 0.66832 0.62229 0.85043 0.0
C2972 C 0.65316 0.59141 0.85325 0.0
C2973 C 0.69836 0.6796 0.84481 0.0
C2974 C 0.71403 0.66563 0.84691 0.0
C2975 C 0.69871 0.63714 0.84971 0.0
C2976 C 0.7463 0.68028 0.84631 0.0
C2977 C 0.7135 0.71055 0.84205 0.0
C2978 C 0.76023 0.69038 0.83929 0.0
C2979 C 0.79052 0.70501 0.83878 0.0
C2980 C 0.80776 0.70975 0.84527 0.0
C2981 C 0.79372 0.69877 0.85226 0.0
C2982 C 0.76335 0.68416 0.85277 0.0
H2983 H 0.69955 0.72046 0.84263 0.0
H2984 H 0.73392 0.72403 0.84523 0.0
H2985 H 0.71896 0.71104 0.83596 0.0
H2986 H 0.74764 0.68706 0.83419 0.0
H2987 H 0.8004 0.71288 0.83328 0.0
H2988 H 0.29554 0.08684 0.83285 0.0
H2989 H 0.3203 0.05878 0.83384 0.0
H2990 H 0.34077 0.08452 0.85721 0.0
H2991 H 0.31592 0.11256 0.85632 0.0
H2992 H 0.37845 0.07541 0.83799 0.0
H2993 H 0.29816 0.99506 0.85802 0.0
H2994 H 0.29117 0.01965 0.8526 0.0
H2995 H 0.31335 0.03214 0.86096 0.0
C2996 C 0.3054 0.08672 0.83821 0.0
C2997 C 0.30349 0.10195 0.84452 0.0
C2998 C 0.31961 0.07063 0.83875 0.0
C2999 C 0.33204 0.06913 0.84563 0.0
C3000 C 0.33092 0.08493 0.85188 0.0
H3001 H 0.41636 0.9792 0.86329 0.0
H3002 H 0.39421 0.00894 0.86087 0.0
C3003 C 0.31683 0.10114 0.85134 0.0
C3004 C 0.3457 0.05066 0.8463 0.0
H3005 H 0.34058 0.99238 0.85581 0.0
C3006 C 0.37013 0.05716 0.84186 0.0
C3007 C 0.33473 0.02671 0.8513 0.0
C3008 C 0.30776 0.01771 0.85595 0.0
C3009 C 0.38446 0.04104 0.84249 0.0
C3010 C 0.37373 0.01734 0.84759 0.0
C3011 C 0.34896 0.01056 0.85192 0.0
C3012 C 0.38842 0.99999 0.84883 0.0
C3013 C 0.41152 0.05018 0.83788 0.0
C3014 C 0.39269 0.98488 0.84287 0.0
C3015 C 0.40565 0.9679 0.84425 0.0
C3016 C 0.41429 0.96551 0.85162 0.0
C3017 C 0.41 0.98063 0.85754 0.0
C3018 C 0.39726 0.99763 0.85617 0.0
H3019 H 0.42093 0.07276 0.83576 0.0
H3020 H 0.4282 0.04854 0.84126 0.0
H3021 H 0.4061 0.03569 0.83288 0.0
H3022 H 0.3855 0.98574 0.83719 0.0
H3023 H 0.40841 0.95625 0.83959 0.0
H3024 H 0.93099 0.2126 0.83456 0.0
H3025 H 0.95722 0.26521 0.83576 0.0
H3026 H 0.91772 0.25811 0.8576 0.0
H3027 H 0.89199 0.20516 0.85655 0.0
H3028 H 0.94056 0.3042 0.83689 0.0
H3029 H 1.00119 0.30979 0.86295 0.0
H3030 H 0.98059 0.27665 0.85767 0.0
H3031 H 0.96268 0.28863 0.86418 0.0
C3032 C 0.92778 0.2221 0.83964 0.0
C3033 C 0.90941 0.20444 0.84548 0.0
C3034 C 0.94287 0.25233 0.84031 0.0
C3035 C 0.94002 0.26583 0.84683 0.0
C3036 C 0.92104 0.24833 0.8526 0.0
H3037 H 0.01107 0.44716 0.85964 0.0
H3038 H 0.98175 0.39437 0.85831 0.0
C3039 C 0.9061 0.21798 0.85196 0.0
C3040 C 0.95678 0.29816 0.84751 0.0
H3041 H 1.00485 0.3539 0.85879 0.0
C3042 C 0.95467 0.315 0.84167 0.0
C3043 C 0.97545 0.31247 0.85372 0.0
C3044 C 0.9804 0.29599 0.85995 0.0
C3045 C 0.97028 0.34551 0.84192 0.0
C3046 C 0.98857 0.3597 0.84817 0.0
C3047 C 0.99068 0.34298 0.85402 0.0
C3048 C 1.00581 0.39189 0.84874 0.0
C3049 C 0.96686 0.36243 0.83555 0.0
C3050 C 0.02912 0.40812 0.8438 0.0
C3051 C 0.04607 0.43831 0.84458 0.0
C3052 C 0.03994 0.45287 0.8503 0.0
C3053 C 0.01631 0.43661 0.85516 0.0
C3054 C 0.99957 0.40643 0.85442 0.0
H3055 H 0.94805 0.34849 0.83186 0.0
H3056 H 0.96412 0.38034 0.83783 0.0
H3057 H 0.98671 0.37219 0.83199 0.0
H3058 H 0.03453 0.39735 0.83942 0.0
H3059 H 0.06415 0.45022 0.84076 0.0
H3060 H 0.60457 0.55359 0.68573 0.0
H3061 H 0.62568 0.60576 0.6883 0.0
H3062 H 0.61753 0.62074 0.66464 0.0
H3063 H 0.59647 0.569 0.66207 0.0
H3064 H 0.67666 0.65293 0.68166 0.0
H3065 H 0.57947 0.66179 0.67544 0.0
H3066 H 0.57753 0.62751 0.67727 0.0
H3067 H 0.58842 0.64422 0.66809 0.0
C3068 C 0.60702 0.56802 0.68111 0.0
C3069 C 0.59862 0.55716 0.67371 0.0
C3070 C 0.61917 0.59782 0.68258 0.0
C3071 C 0.62279 0.61719 0.67669 0.0
C3072 C 0.61444 0.60625 0.66931 0.0
H3073 H 0.69658 0.80141 0.66911 0.0
H3074 H 0.6711 0.74842 0.66852 0.0
C3075 C 0.60252 0.57664 0.66784 0.0
C3076 C 0.63623 0.64896 0.67811 0.0
H3077 H 0.62443 0.70614 0.67619 0.0
C3078 C 0.66515 0.66455 0.68056 0.0
C3079 C 0.62129 0.66418 0.67663 0.0
C3080 C 0.58988 0.64858 0.67428 0.0
C3081 C 0.67983 0.69496 0.68128 0.0
C3082 C 0.665 0.71027 0.67969 0.0
C3083 C 0.63589 0.69456 0.67739 0.0
C3084 C 0.67948 0.74257 0.68021 0.0
C3085 C 0.71145 0.71049 0.68346 0.0
C3086 C 0.69208 0.7571 0.68702 0.0
C3087 C 0.70677 0.78746 0.68737 0.0
C3088 C 0.70897 0.8041 0.68093 0.0
C3089 C 0.69538 0.78944 0.67419 0.0
C3090 C 0.6808 0.75905 0.67384 0.0
H3091 H 0.72144 0.69679 0.68247 0.0
H3092 H 0.72385 0.73094 0.6802 0.0
H3093 H 0.71353 0.71594 0.68958 0.0
H3094 H 0.69074 0.74497 0.69208 0.0
H3095 H 0.71672 0.79787 0.69269 0.0
H3096 H 0.45788 0.05319 0.68452 0.0
H3097 H 0.40564 0.02239 0.68701 0.0
H3098 H 0.39087 1.00087 0.66325 0.0
H3099 H 0.4427 0.03137 0.66075 0.0
H3100 H 0.35894 0.02741 0.68031 0.0
H3101 H 0.34936 0.92109 0.67387 0.0
H3102 H 0.38367 0.95316 0.67586 0.0
H3103 H 0.36741 0.94801 0.66665 0.0
C3104 C 0.44346 0.04165 0.67986 0.0
C3105 C 0.45437 0.0445 0.67245 0.0
C3106 C 0.41365 0.02414 0.68128 0.0
C3107 C 0.39436 0.00895 0.67533 0.0
C3108 C 0.40533 0.01189 0.66795 0.0
H3109 H 0.20974 0.89864 0.66814 0.0
H3110 H 0.26267 0.92645 0.6673 0.0
C3111 C 0.43498 0.02946 0.66653 0.0
C3112 C 0.36261 0.9908 0.67672 0.0
H3113 H 0.30525 0.92198 0.6748 0.0
C3114 C 0.34721 1.0043 0.67919 0.0
C3115 C 0.34729 0.96067 0.67521 0.0
C3116 C 0.36276 0.94476 0.67281 0.0
C3117 C 0.31683 0.98871 0.67994 0.0
C3118 C 0.30143 0.95858 0.67835 0.0
C3119 C 0.31695 0.94503 0.676 0.0
C3120 C 0.26922 0.94086 0.67898 0.0
C3121 C 0.30147 0.00494 0.68216 0.0
C3122 C 0.25517 0.93903 0.68587 0.0
C3123 C 0.22489 0.92324 0.68636 0.0
C3124 C 0.20785 0.90856 0.68 0.0
C3125 C 0.22204 0.90962 0.67316 0.0
C3126 C 0.25237 0.92558 0.67267 0.0
H3127 H 0.31517 0.02859 0.68112 0.0
H3128 H 0.28088 0.99684 0.67897 0.0
H3129 H 0.2963 1.00175 0.6883 0.0
H3130 H 0.26762 0.94991 0.69087 0.0
H3131 H 0.21486 0.92275 0.69175 0.0
H3132 H 0.01301 0.45751 0.67227 0.0
H3133 H 0.04216 0.43402 0.67382 0.0
H3134 H 0.96508 0.35393 0.67971 0.0
H3135 H 0.93646 0.37814 0.67878 0.0
H3136 H 1.00465 0.35654 0.68771 0.0
H3137 H 0.05202 0.38536 0.65901 0.0
H3138 H 0.06197 0.41737 0.66444 0.0
H3139 H 0.02441 0.39305 0.66212 0.0
C3140 C 1.00241 0.43495 0.67396 0.0
C3141 C 0.97247 0.41963 0.67536 0.0
C3142 C 0.01903 0.42135 0.67475 0.0
C3143 C 1.00588 0.39173 0.67662 0.0
C3144 C 0.97596 0.37667 0.67821 0.0
H3145 H 0.09033 0.29013 0.66729 0.0
H3146 H 0.06274 0.31551 0.66683 0.0
C3147 C 0.95953 0.39053 0.67767 0.0
C3148 C 0.02308 0.3764 0.67696 0.0
H3149 H 0.07337 0.36639 0.66742 0.0
C3150 C 0.01949 0.35857 0.68323 0.0
C3151 C 0.04214 0.37829 0.67106 0.0
C3152 C 0.0451 0.39428 0.66375 0.0
C3153 C 0.03423 0.34285 0.68379 0.0
C3154 C 0.05466 0.34621 0.67813 0.0
C3155 C 0.05816 0.36395 0.67184 0.0
C3156 C 0.0719 0.33091 0.67844 0.0
C3157 C 0.02667 0.32195 0.69032 0.0
C3158 C 0.0869 0.33126 0.68505 0.0
C3159 C 0.10193 0.31592 0.68538 0.0
C3160 C 0.10347 0.30092 0.679 0.0
C3161 C 0.08971 0.30165 0.67228 0.0
C3162 C 0.07387 0.3162 0.67203 0.0
H3163 H 1.00439 0.31448 0.69244 0.0
H3164 H 0.02811 0.30261 0.68866 0.0
H3165 H 0.04181 0.33305 0.69508 0.0
H3166 H 0.08699 0.34336 0.68999 0.0
H3167 H 0.11261 0.31601 0.69062 0.0
H3168 H 0.87677 0.6492 0.50293 0.0
H3169 H 0.92972 0.67461 0.50227 0.0
H3170 H 0.93359 0.65474 0.52579 0.0
H3171 H 0.88071 0.62882 0.52647 0.0
H3172 H 0.97215 0.72125 0.50995 0.0
H3173 H 0.98147 0.62398 0.51598 0.0
H3174 H 0.94731 0.62166 0.51378 0.0
H3175 H 0.96249 0.6319 0.52314 0.0
C3176 C 0.88883 0.65033 0.50799 0.0
C3177 C 0.87428 0.6367 0.51474 0.0
C3178 C 0.91918 0.66488 0.50759 0.0
C3179 C 0.93577 0.66612 0.51393 0.0
C3180 C 0.92137 0.65347 0.52075 0.0
H3181 H 0.12503 0.73996 0.51857 0.0
H3182 H 0.07317 0.71941 0.52148 0.0
C3183 C 0.89103 0.63881 0.52115 0.0
C3184 C 0.96805 0.68057 0.51336 0.0
H3185 H 0.0253 0.66867 0.51502 0.0
C3186 C 0.98372 0.70971 0.51107 0.0
C3187 C 0.98334 0.66566 0.51485 0.0
C3188 C 0.96783 0.63401 0.51701 0.0
C3189 C 0.01405 0.72424 0.51021 0.0
C3190 C 0.02924 0.7092 0.51157 0.0
C3191 C 0.01371 0.68026 0.51401 0.0
C3192 C 0.06088 0.72248 0.50997 0.0
C3193 C 0.02961 0.75569 0.50787 0.0
C3194 C 0.07123 0.73078 0.50254 0.0
C3195 C 0.10066 0.7424 0.50089 0.0
C3196 C 0.12054 0.74605 0.50661 0.0
C3197 C 0.11029 0.73776 0.51406 0.0
C3198 C 0.08066 0.7259 0.51572 0.0
H3199 H 0.0166 0.7662 0.50918 0.0
H3200 H 0.05091 0.76793 0.51076 0.0
H3201 H 0.03347 0.75718 0.50166 0.0
H3202 H 0.05641 0.72783 0.49797 0.0
H3203 H 0.10782 0.74836 0.49508 0.0
H3204 H 0.38473 0.25473 0.52394 0.0
H3205 H 0.35834 0.28105 0.52293 0.0
H3206 H 0.33967 0.25589 0.49945 0.0
H3207 H 0.36565 0.2289 0.50046 0.0
H3208 H 0.37009 0.32685 0.51413 0.0
H3209 H 0.26056 0.23655 0.5071 0.0
H3210 H 0.28903 0.23056 0.51053 0.0
H3211 H 0.28801 0.23921 0.50071 0.0
C3212 C 0.37476 0.25446 0.51857 0.0
C3213 C 0.3773 0.23954 0.51228 0.0
C3214 C 0.35968 0.26962 0.518 0.0
C3215 C 0.34664 0.27026 0.51115 0.0
C3216 C 0.34893 0.25523 0.50486 0.0
H3217 H 0.26503 0.3633 0.49372 0.0
H3218 H 0.2865 0.33276 0.49598 0.0
C3219 C 0.36393 0.23988 0.50543 0.0
C3220 C 0.33194 0.2878 0.51053 0.0
H3221 H 0.2682 0.28436 0.50561 0.0
C3222 C 0.34773 0.31748 0.51233 0.0
C3223 C 0.3027 0.27565 0.5082 0.0
C3224 C 0.28397 0.2437 0.50659 0.0
C3225 C 0.33544 0.33541 0.51166 0.0
C3226 C 0.30639 0.32335 0.50921 0.0
C3227 C 0.29047 0.29363 0.50749 0.0
C3228 C 0.29259 0.34145 0.50802 0.0
C3229 C 0.35394 0.36732 0.51336 0.0
C3230 C 0.28844 0.35628 0.51406 0.0
C3231 C 0.27605 0.37379 0.51278 0.0
C3232 C 0.26755 0.3767 0.50544 0.0
C3233 C 0.27136 0.36151 0.49944 0.0
C3234 C 0.28361 0.344 0.50072 0.0
H3235 H 0.37735 0.37423 0.51361 0.0
H3236 H 0.35073 0.38051 0.50901 0.0
H3237 H 0.34757 0.37202 0.51895 0.0
H3238 H 0.2948 0.35434 0.51976 0.0
H3239 H 0.27347 0.38532 0.5175 0.0
H3240 H 0.61511 0.89324 0.516 0.0
H3241 H 0.64566 0.94608 0.51724 0.0
H3242 H 0.69849 0.94708 0.49859 0.0
H3243 H 0.66819 0.89439 0.49735 0.0
H3244 H 0.70896 0.98089 0.51944 0.0
H3245 H 0.67193 0.00621 0.49253 0.0
H3246 H 0.65179 0.97157 0.49722 0.0
H3247 H 0.68374 0.98002 0.49188 0.0
C3248 C 0.6333 0.90474 0.51219 0.0
C3249 C 0.63914 0.88967 0.50654 0.0
C3250 C 0.65073 0.93491 0.5129 0.0
C3251 C 0.67412 0.95061 0.50794 0.0
C3252 C 0.68031 0.93551 0.50241 0.0
H3253 H 0.79278 0.13693 0.50135 0.0
H3254 H 0.76702 0.08387 0.50026 0.0
C3255 C 0.66304 0.90536 0.50173 0.0
C3256 C 0.69202 0.98276 0.50852 0.0
H3257 H 0.70965 0.04558 0.49911 0.0
C3258 C 0.70911 0.99506 0.515 0.0
C3259 C 0.69236 1.00123 0.5027 0.0
C3260 C 0.67385 0.98923 0.4957 0.0
C3261 C 0.72675 0.02529 0.51579 0.0
C3262 C 0.72676 0.04386 0.51003 0.0
C3263 C 0.70979 0.03147 0.50352 0.0
C3264 C 0.74324 0.07613 0.51078 0.0
C3265 C 0.74566 0.03693 0.52274 0.0
C3266 C 0.73834 0.08959 0.51699 0.0
C3267 C 0.75315 0.11979 0.51766 0.0
C3268 C 0.77303 0.13749 0.51206 0.0
C3269 C 0.77778 0.12404 0.50579 0.0
C3270 C 0.763 0.09368 0.50515 0.0
H3271 H 0.75045 0.02061 0.52522 0.0
H3272 H 0.76647 0.05683 0.52142 0.0
H3273 H 0.73413 0.04233 0.52712 0.0
H3274 H 0.72263 0.07674 0.5213 0.0
H3275 H 0.74859 0.12924 0.52253 0.0
H3276 H 0.07718 0.78905 0.67388 0.0
H3277 H 0.05368 0.73638 0.6717 0.0
H3278 H 0.06481 0.72352 0.69533 0.0
H3279 H 0.08757 0.77558 0.69753 0.0
H3280 H 0.07174 0.69608 0.67385 0.0
H3281 H 0.97865 0.66999 0.69264 0.0
H3282 H 1.00354 0.70646 0.68955 0.0
H3283 H 0.01272 0.69091 0.69739 0.0
C3284 C 0.07472 0.77492 0.67858 0.0
C3285 C 0.08406 0.78641 0.68588 0.0
C3286 C 0.06125 0.74484 0.67734 0.0
C3287 C 0.05683 0.72581 0.68339 0.0
C3288 C 0.06718 0.73754 0.69061 0.0
H3289 H 0.98321 0.54053 0.6907 0.0
H3290 H 0.00945 0.59362 0.69157 0.0
C3291 C 0.0804 0.7674 0.69185 0.0
C3292 C 0.04138 0.69372 0.68227 0.0
H3293 H 0.98491 0.63031 0.68901 0.0
C3294 C 0.05261 0.68172 0.67711 0.0
C3295 C 0.0163 0.67485 0.6865 0.0
C3296 C 1.0019 0.68619 0.69177 0.0
C3297 C 0.04004 0.65147 0.67627 0.0
C3298 C 0.01545 0.63267 0.68066 0.0
C3299 C 1.00397 0.64467 0.68572 0.0
C3300 C 1.00087 0.60048 0.67999 0.0
C3301 C 0.0536 0.63982 0.67083 0.0
C3302 C 0.98722 0.58661 0.67321 0.0
C3303 C 0.97211 0.55632 0.6727 0.0
C3304 C 0.97027 0.53907 0.67897 0.0
C3305 C 0.98429 0.55304 0.68574 0.0
C3306 C 0.99925 0.58341 0.68626 0.0
H3307 H 0.07597 0.65659 0.66923 0.0
H3308 H 0.05422 0.62101 0.67333 0.0
H3309 H 0.04037 0.63235 0.66558 0.0
H3310 H 0.9877 0.59922 0.66834 0.0
H3311 H 0.96158 0.54643 0.6674 0.0
H3312 H 0.22198 0.29018 0.67281 0.0
H3313 H 0.27469 0.31984 0.67069 0.0
H3314 H 0.28764 0.33755 0.69467 0.0
H3315 H 0.2356 0.30809 0.69679 0.0
H3316 H 0.31499 0.37891 0.67421 0.0
H3317 H 0.34125 0.30533 0.69007 0.0
H3318 H 0.30493 0.29456 0.68701 0.0
H3319 H 0.31953 0.31602 0.69545 0.0
C3320 C 0.23613 0.30057 0.6776 0.0
C3321 C 0.22463 0.29671 0.68497 0.0
C3322 C 0.26623 0.31746 0.67639 0.0
C3323 C 0.28528 0.33053 0.68254 0.0
C3324 C 0.27359 0.32721 0.68985 0.0
H3325 H 0.46992 0.43745 0.69126 0.0
H3326 H 0.41687 0.40986 0.69186 0.0
C3327 C 0.24373 0.31044 0.69105 0.0
C3328 C 0.31738 0.34768 0.68145 0.0
H3329 H 0.38078 0.35251 0.68738 0.0
C3330 C 0.32938 0.37299 0.67702 0.0
C3331 C 0.33627 0.34003 0.68512 0.0
C3332 C 0.32488 0.31236 0.68962 0.0
C3333 C 0.35964 0.39132 0.6764 0.0
C3334 C 0.37849 0.38398 0.68022 0.0
C3335 C 0.36644 0.35839 0.68452 0.0
C3336 C 0.41076 0.40225 0.67977 0.0
C3337 C 0.37114 0.41887 0.67184 0.0
C3338 C 0.42516 0.40725 0.67279 0.0
C3339 C 0.45549 0.42304 0.67242 0.0
C3340 C 0.47231 0.43416 0.67905 0.0
C3341 C 0.45781 0.42942 0.68604 0.0
C3342 C 0.42741 0.41354 0.68639 0.0
H3343 H 0.35438 0.42518 0.67098 0.0
H3344 H 0.3902 0.43703 0.67466 0.0
H3345 H 0.37804 0.4155 0.66618 0.0
H3346 H 0.41296 0.39833 0.66761 0.0
H3347 H 0.46572 0.42603 0.66693 0.0
H3348 H 0.69782 0.92551 0.69658 0.0
H3349 H 0.66796 0.94757 0.69429 0.0
H3350 H 0.68839 0.9541 0.67045 0.0
H3351 H 0.71818 0.93143 0.67273 0.0
H3352 H 0.68568 1.00164 0.68877 0.0
H3353 H 0.6007 0.91921 0.67001 0.0
H3354 H 0.62508 0.91191 0.67543 0.0
H3355 H 0.63728 0.93275 0.66684 0.0
C3356 C 0.69572 0.93131 0.69083 0.0
C3357 C 0.71026 0.92658 0.68483 0.0
C3358 C 0.67865 0.944 0.68953 0.0
C3359 C 0.67559 0.95231 0.68219 0.0
C3360 C 0.68988 0.94737 0.67614 0.0
H3361 H 0.58725 0.04356 0.6664 0.0
H3362 H 0.61446 0.01799 0.66736 0.0
C3363 C 0.70699 0.9345 0.67745 0.0
C3364 C 0.65856 0.96735 0.68106 0.0
H3365 H 0.59902 0.96218 0.67221 0.0
C3366 C 0.6667 0.99294 0.68515 0.0
C3367 C 0.63387 0.95619 0.67631 0.0
C3368 C 0.62347 0.92839 0.67193 0.0
C3369 C 0.65095 0.0076 0.68464 0.0
C3370 C 0.62593 0.99615 0.68002 0.0
C3371 C 0.61805 0.97086 0.6758 0.0
C3372 C 0.60792 0.01035 0.67943 0.0
C3373 C 0.66159 0.03556 0.68897 0.0
C3374 C 0.59448 0.01402 0.68587 0.0
C3375 C 0.57882 0.0287 0.68535 0.0
C3376 C 0.57614 0.03996 0.67837 0.0
C3377 C 0.58887 0.03537 0.67189 0.0
C3378 C 0.60447 0.02068 0.67242 0.0
H3379 H 0.68476 0.04526 0.69058 0.0
H3380 H 0.65893 0.05164 0.68559 0.0
H3381 H 0.64876 0.03117 0.69426 0.0
H3382 H 0.59631 0.00573 0.69132 0.0
H3383 H 0.56926 0.03165 0.69045 0.0
H3384 H 0.22337 0.93573 0.17361 0.0
H3385 H 0.27566 0.95653 0.17127 0.0
H3386 H 0.28886 0.94713 0.19498 0.0
H3387 H 0.23707 0.9263 0.19731 0.0
H3388 H 0.32194 0.00694 0.17804 0.0
H3389 H 0.33133 0.91026 0.18456 0.0
H3390 H 0.29701 0.90804 0.18261 0.0
H3391 H 0.31331 0.91892 0.19184 0.0
C3392 C 0.23743 0.93773 0.17828 0.0
C3393 C 0.22608 0.92911 0.18563 0.0
C3394 C 0.2673 0.94972 0.17695 0.0
C3395 C 0.28621 0.95297 0.18293 0.0
C3396 C 0.27474 0.94429 0.19025 0.0
H3397 H 0.47163 0.02926 0.19067 0.0
H3398 H 0.41853 1.00367 0.19157 0.0
C3399 C 0.24509 0.93251 0.19158 0.0
C3400 C 0.31809 0.96664 0.18168 0.0
H3401 H 0.37554 0.95552 0.18404 0.0
C3402 C 0.33363 0.9956 0.17927 0.0
C3403 C 0.33343 0.95195 0.18334 0.0
C3404 C 0.31792 0.92049 0.18566 0.0
C3405 C 0.36407 0.01051 0.17869 0.0
C3406 C 0.37947 0.99591 0.18042 0.0
C3407 C 0.36386 0.96681 0.18274 0.0
C3408 C 0.41171 0.01043 0.17982 0.0
C3409 C 0.3795 0.0421 0.17647 0.0
C3410 C 0.42562 0.02208 0.17289 0.0
C3411 C 0.45587 0.03673 0.17236 0.0
C3412 C 0.47309 0.03989 0.17875 0.0
C3413 C 0.45912 0.0273 0.18564 0.0
C3414 C 0.42874 0.01269 0.18616 0.0
H3415 H 0.36571 0.05202 0.17742 0.0
H3416 H 0.39993 0.05464 0.17972 0.0
H3417 H 0.38496 0.04408 0.17035 0.0
H3418 H 0.41305 0.01999 0.16786 0.0
H3419 H 0.46573 0.04582 0.16693 0.0
H3420 H 0.96395 0.42131 0.16719 0.0
H3421 H 0.98921 0.39389 0.16843 0.0
H3422 H 0.00693 0.41897 0.19193 0.0
H3423 H 0.98142 0.44642 0.19076 0.0
H3424 H 0.04663 0.41094 0.17287 0.0
H3425 H 0.96559 0.32967 0.19262 0.0
H3426 H 0.95863 0.35422 0.18717 0.0
H3427 H 0.98052 0.3667 0.19558 0.0
C3428 C 0.9733 0.42118 0.17263 0.0
C3429 C 0.97041 0.43599 0.1789 0.0
C3430 C 0.98781 0.40547 0.17332 0.0
C3431 C 0.99961 0.40395 0.1803 0.0
C3432 C 0.99757 0.41939 0.18651 0.0
H3433 H 0.08255 0.31148 0.19745 0.0
H3434 H 0.06107 0.34202 0.19534 0.0
C3435 C 0.98312 0.43526 0.18583 0.0
C3436 C 0.01354 0.38578 0.18106 0.0
H3437 H 0.00772 0.32671 0.1903 0.0
C3438 C 0.03812 0.39248 0.17667 0.0
C3439 C 1.0023 0.36154 0.18597 0.0
C3440 C 0.97516 0.35234 0.19056 0.0
C3441 C 0.05225 0.37616 0.17722 0.0
C3442 C 0.04115 0.35205 0.18219 0.0
C3443 C 0.01634 0.34519 0.1865 0.0
C3444 C 0.05538 0.33422 0.18325 0.0
C3445 C 0.07941 0.38544 0.17264 0.0
C3446 C 0.05945 0.31948 0.17716 0.0
C3447 C 0.07201 0.30206 0.17836 0.0
C3448 C 0.08044 0.29884 0.18568 0.0
C3449 C 0.07634 0.31356 0.19174 0.0
C3450 C 0.06399 0.33102 0.19054 0.0
H3451 H 0.08916 0.40826 0.17069 0.0
H3452 H 0.09582 0.38317 0.17598 0.0
H3453 H 0.07399 0.37146 0.16754 0.0
H3454 H 0.05242 0.321 0.1715 0.0
H3455 H 0.07465 0.29073 0.1736 0.0
H3456 H 0.57141 0.5384 0.19058 0.0
H3457 H 0.59957 0.59137 0.19146 0.0
H3458 H 0.61357 0.59695 0.16729 0.0
H3459 H 0.58531 0.54425 0.16633 0.0
H3460 H 0.65756 0.62701 0.18735 0.0
H3461 H 0.58748 0.65619 0.17071 0.0
H3462 H 0.57478 0.62 0.17426 0.0
H3463 H 0.59701 0.63243 0.16589 0.0
C3464 C 0.5801 0.55086 0.18543 0.0
C3465 C 0.5759 0.53686 0.17838 0.0
C3466 C 0.59631 0.5812 0.18594 0.0
C3467 C 0.60846 0.59829 0.17943 0.0
C3468 C 0.60399 0.5844 0.17238 0.0
H3469 H 0.72258 0.78655 0.17301 0.0
H3470 H 0.69259 0.73392 0.17088 0.0
C3471 C 0.58788 0.55412 0.17186 0.0
C3472 C 0.62708 0.63045 0.18005 0.0
H3473 H 0.6338 0.69483 0.17422 0.0
C3474 C 0.65226 0.6418 0.1845 0.0
C3475 C 0.62046 0.64987 0.17626 0.0
C3476 C 0.59335 0.63909 0.17156 0.0
C3477 C 0.67097 0.67187 0.18525 0.0
C3478 C 0.66408 0.69132 0.18158 0.0
C3479 C 0.63913 0.68 0.17703 0.0
C3480 C 0.68176 0.72334 0.18273 0.0
C3481 C 0.69825 0.68252 0.18987 0.0
C3482 C 0.6852 0.73502 0.19005 0.0
C3483 C 0.70222 0.76487 0.19125 0.0
C3484 C 0.71604 0.78392 0.18517 0.0
C3485 C 0.71216 0.77241 0.1778 0.0
C3486 C 0.69506 0.74236 0.17659 0.0
H3487 H 0.7048 0.66579 0.19032 0.0
H3488 H 0.71647 0.70244 0.18737 0.0
H3489 H 0.69433 0.68768 0.1957 0.0
H3490 H 0.67468 0.72098 0.19486 0.0
H3491 H 0.70459 0.77304 0.19699 0.0
H3492 H 0.28891 0.89685 0.01745 0.0
H3493 H 0.31123 0.94959 0.0188 0.0
H3494 H 0.26139 0.9515 0.99977 0.0
H3495 H 0.23844 0.89886 0.99857 0.0
H3496 H 0.34492 0.99169 1.00922 0.0
H3497 H 0.24688 0.9998 0.01453 0.0
H3498 H 0.24637 0.96572 0.01484 0.0
H3499 H 0.24426 0.98085 1.0059 0.0
C3500 C 0.28247 0.90852 0.01362 0.0
C3501 C 0.26181 0.89368 1.00792 0.0
C3502 C 0.29529 0.93868 0.01438 0.0
C3503 C 0.28773 0.95466 1.00947 0.0
C3504 C 0.26708 0.93976 1.00378 0.0
H3505 H 0.3612 0.14036 1.00093 0.0
H3506 H 0.33478 0.0872 1.00009 0.0
C3507 C 0.25409 0.90961 1.00306 0.0
C3508 C 0.30244 0.98695 1.01006 0.0
H3509 H 0.29009 0.044 1.01149 0.0
C3510 C 0.33287 1.00304 1.00977 0.0
C3511 C 0.28684 1.00198 1.01078 0.0
C3512 C 0.25431 0.98619 1.01161 0.0
C3513 C 0.34799 0.03352 1.01005 0.0
C3514 C 0.33237 0.04845 1.01065 0.0
C3515 C 0.30201 0.03251 1.01095 0.0
C3516 C 0.34738 0.08062 1.01124 0.0
C3517 C 0.38063 0.04966 1.00963 0.0
C3518 C 0.36277 0.09452 0.01783 0.0
C3519 C 0.37765 0.12477 0.01836 0.0
C3520 C 0.37764 0.14197 0.01228 0.0
C3521 C 0.36176 0.12791 1.00572 0.0
C3522 C 0.34663 0.09752 1.00522 0.0
H3523 H 0.38921 0.03541 1.00782 0.0
H3524 H 0.38843 0.06813 1.00561 0.0
H3525 H 0.38966 0.0586 0.01531 0.0
H3526 H 0.36342 0.08191 0.02256 0.0
H3527 H 0.38958 0.13465 0.02351 0.0
H3528 H 0.11571 0.39522 0.01711 0.0
H3529 H 0.06283 0.36491 0.01813 0.0
H3530 H 0.06261 0.312 0.9996 0.0
H3531 H 0.11538 0.34208 0.99857 0.0
H3532 H 0.02138 0.33231 0.99832 0.0
H3533 H 0.0145 0.28006 0.02611 0.0
H3534 H 0.03682 0.31888 0.02589 0.0
H3535 H 0.04727 0.29698 0.0205 0.0
C3536 C 0.1044 0.37696 0.0133 0.0
C3537 C 0.11972 0.37104 1.00776 0.0
C3538 C 0.0742 0.3596 0.01391 0.0
C3539 C 0.05874 0.33603 1.00898 0.0
C3540 C 0.07406 0.33 1.00348 0.0
H3541 H 0.87197 0.21895 1.00109 0.0
H3542 H 0.92501 0.2443 1.00007 0.0
C3543 C 0.10424 0.34719 1.00291 0.0
C3544 C 0.02655 0.3183 1.00936 0.0
H3545 H 0.97041 0.27197 0.02073 0.0
C3546 C 0.01019 0.31897 1.0032 0.0
C3547 C 0.01199 0.301 0.01573 0.0
C3548 C 0.02845 0.29889 0.02242 0.0
C3549 C 0.97968 0.30343 1.00332 0.0
C3550 C 0.96503 0.286 1.0097 0.0
C3551 C 0.9815 0.28517 0.01583 0.0
C3552 C 0.93273 0.26963 1.01031 0.0
C3553 C 0.9635 0.30676 0.99674 0.0
C3554 C 0.91927 0.27452 0.01653 0.0
C3555 C 0.88908 0.25977 0.01718 0.0
C3556 C 0.8714 0.23968 1.01162 0.0
C3557 C 0.88486 0.23439 1.00545 0.0
C3558 C 0.91522 0.24907 1.00483 0.0
H3559 H 0.97748 0.3266 0.99339 0.0
H3560 H 0.95602 0.28783 0.9929 0.0
H3561 H 0.94423 0.30775 0.99872 0.0
H3562 H 0.93215 0.29014 0.02085 0.0
H3563 H 0.87964 0.26451 0.02202 0.0
H3564 H 0.76205 0.63173 0.02443 0.0
H3565 H 0.73365 0.65603 0.02342 0.0
H3566 H 0.75038 0.66695 0.99939 0.0
H3567 H 0.77862 0.64228 1.0003 0.0
H3568 H 0.7474 0.71103 0.01835 0.0
H3569 H 0.66184 0.62541 1.00045 0.0
H3570 H 0.68852 0.62025 1.00541 0.0
H3571 H 0.69775 0.64016 0.99665 0.0
C3572 C 0.75987 0.63937 0.01891 0.0
C3573 C 0.77254 0.63475 0.01243 0.0
C3574 C 0.74359 0.65332 0.01836 0.0
C3575 C 0.73938 0.66288 1.01131 0.0
C3576 C 0.75278 0.65923 1.00487 0.0
H3577 H 0.64548 0.74387 0.99431 0.0
H3578 H 0.67572 0.72212 0.99648 0.0
C3579 C 0.76914 0.64528 1.00541 0.0
C3580 C 0.72065 0.67626 1.01072 0.0
H3581 H 0.65958 0.66837 1.00216 0.0
C3582 C 0.72813 0.70165 0.01483 0.0
C3583 C 0.69531 0.66388 1.0062 0.0
C3584 C 0.68514 0.63577 1.00198 0.0
C3585 C 0.71155 0.71552 0.01434 0.0
C3586 C 0.6865 0.70341 1.0097 0.0
C3587 C 0.6788 0.67775 1.0057 0.0
C3588 C 0.66868 0.71759 1.00861 0.0
C3589 C 0.7215 0.74348 0.0186 0.0
C3590 C 0.65444 0.72232 0.0147 0.0
C3591 C 0.63708 0.73493 0.01346 0.0
C3592 C 0.63356 0.74286 1.00611 0.0
C3593 C 0.6478 0.73807 1.00005 0.0
C3594 C 0.66509 0.72558 1.00128 0.0
H3595 H 0.74444 0.75334 0.02044 0.0
H3596 H 0.71915 0.75942 0.01506 0.0
H3597 H 0.70792 0.73909 0.02375 0.0
H3598 H 0.65633 0.7158 0.02039 0.0
H3599 H 0.62611 0.73806 0.01823 0.0
H3600 H 0.77644 0.07918 0.82701 0.0
H3601 H 0.72434 0.057 0.82917 0.0
H3602 H 0.7375 0.05186 0.85312 0.0
H3603 H 0.79001 0.07458 0.85097 0.0
H3604 H 0.68706 1.00348 0.83493 0.0
H3605 H 0.68607 0.08822 0.85308 0.0
H3606 H 0.71761 0.09449 0.84774 0.0
H3607 H 0.70862 0.07445 0.85648 0.0
C3608 C 0.76829 0.07357 0.83275 0.0
C3609 C 0.78735 0.0788 0.83883 0.0
C3610 C 0.73846 0.06082 0.83398 0.0
C3611 C 0.72687 0.05303 0.84132 0.0
C3612 C 0.74588 0.05822 0.84743 0.0
H3613 H 0.54793 0.9653 0.85755 0.0
H3614 H 0.60064 0.99012 0.85641 0.0
C3615 C 0.77588 0.07108 0.84619 0.0
C3616 C 0.69482 0.03853 0.84244 0.0
H3617 H 0.64113 0.04522 0.8512 0.0
C3618 C 0.67705 0.01268 0.83848 0.0
C3619 C 0.68165 0.05037 0.84709 0.0
C3620 C 0.69939 0.07853 0.8513 0.0
C3621 C 0.64667 0.99835 0.83906 0.0
C3622 C 0.63346 0.01043 0.84362 0.0
C3623 C 0.6512 0.03604 0.84767 0.0
C3624 C 0.60132 0.99658 0.84429 0.0
C3625 C 0.62898 0.97007 0.8349 0.0
C3626 C 0.58399 0.9925 0.83788 0.0
C3627 C 0.55369 0.97826 0.8385 0.0
C3628 C 0.54001 0.96786 0.84556 0.0
C3629 C 0.55755 0.97284 0.852 0.0
C3630 C 0.5878 0.98709 0.85138 0.0
H3631 H 0.6422 0.96002 0.83335 0.0
H3632 H 0.6103 0.95442 0.83838 0.0
H3633 H 0.62044 0.97412 0.82958 0.0
H3634 H 0.5939 1.00015 0.83238 0.0
H3635 H 0.54101 0.97499 0.83342 0.0
H3636 H 0.93217 0.70143 0.8272 0.0
H3637 H 0.95348 0.67074 0.8293 0.0
H3638 H 0.96136 0.69091 0.85318 0.0
H3639 H 0.93924 0.72131 0.8511 0.0
H3640 H 1.00642 0.68539 0.83438 0.0
H3641 H 0.92447 0.60375 0.85386 0.0
H3642 H 0.9181 0.62913 0.84863 0.0
H3643 H 0.93983 0.64048 0.85709 0.0
C3644 C 0.93818 0.69914 0.83292 0.0
C3645 C 0.93387 0.71366 0.839 0.0
C3646 C 0.95044 0.6816 0.83411 0.0
C3647 C 0.95877 0.67808 0.84141 0.0
C3648 C 0.95453 0.69264 0.84751 0.0
H3649 H 0.0494 0.58998 0.85739 0.0
H3650 H 0.02442 0.61768 0.85616 0.0
C3651 C 0.94204 0.71016 0.84633 0.0
C3652 C 0.97285 0.66008 0.84246 0.0
H3653 H 0.96691 0.60087 0.85172 0.0
C3654 C 0.99766 0.66685 0.83815 0.0
C3655 C 0.96158 0.63587 0.8474 0.0
C3656 C 0.93439 0.62664 0.85197 0.0
C3657 C 0.01153 0.65033 0.83867 0.0
C3658 C 1.00013 0.62601 0.84355 0.0
C3659 C 0.97555 0.61939 0.84794 0.0
C3660 C 0.0139 0.60766 0.84431 0.0
C3661 C 0.03867 0.65941 0.83409 0.0
C3662 C 0.01579 0.59214 0.83808 0.0
C3663 C 0.03005 0.57609 0.83876 0.0
C3664 C 0.04276 0.57526 0.84568 0.0
C3665 C 0.04005 0.59018 0.85195 0.0
C3666 C 0.0257 0.60605 0.85127 0.0
H3667 H 0.04834 0.68208 0.83203 0.0
H3668 H 0.05513 0.65744 0.83749 0.0
H3669 H 0.03327 0.64503 0.82907 0.0
H3670 H 1.00644 0.59264 0.83268 0.0
H3671 H 0.03164 0.56487 0.83382 0.0
H3672 H 0.31355 0.23646 0.82732 0.0
H3673 H 0.34323 0.28833 0.82979 0.0
H3674 H 0.32265 0.27318 0.8536 0.0
H3675 H 0.29297 0.22082 0.85113 0.0
H3676 H 0.3261 0.32484 0.83551 0.0
H3677 H 0.41035 0.32547 0.85417 0.0
H3678 H 0.38584 0.29418 0.84864 0.0
H3679 H 0.37368 0.30251 0.85729 0.0
C3680 C 0.31554 0.24409 0.8331 0.0
C3681 C 0.30109 0.22448 0.83904 0.0
C3682 C 0.33251 0.27382 0.83451 0.0
C3683 C 0.33558 0.28484 0.84189 0.0
C3684 C 0.32121 0.26528 0.84787 0.0
H3685 H 0.42612 0.46411 0.85831 0.0
H3686 H 0.39816 0.41135 0.85722 0.0
C3687 C 0.30418 0.23534 0.84646 0.0
C3688 C 0.35283 0.31688 0.84316 0.0
H3689 H 0.41255 0.37045 0.85218 0.0
C3690 C 0.34502 0.33476 0.83916 0.0
C3691 C 0.37747 0.32998 0.84794 0.0
C3692 C 0.38757 0.31214 0.85222 0.0
C3693 C 0.36103 0.36516 0.83979 0.0
C3694 C 0.38601 0.37831 0.84445 0.0
C3695 C 0.39355 0.36045 0.84857 0.0
C3696 C 0.4044 0.41051 0.84512 0.0
C3697 C 0.3507 0.38291 0.83556 0.0
C3698 C 0.41795 0.4278 0.83872 0.0
C3699 C 0.43404 0.45812 0.83932 0.0
C3700 C 0.43709 0.47192 0.84635 0.0
C3701 C 0.42424 0.45443 0.85279 0.0
C3702 C 0.4082 0.42414 0.85218 0.0
H3703 H 0.32749 0.36974 0.83396 0.0
H3704 H 0.35365 0.40164 0.83901 0.0
H3705 H 0.3635 0.39138 0.83027 0.0
H3706 H 0.41589 0.41784 0.83323 0.0
H3707 H 0.44366 0.47074 0.83424 0.0
H3708 H 0.65624 0.87502 1.00121 0.0
H3709 H 0.68393 0.92795 1.00199 0.0
H3710 H 0.65056 0.92394 0.02454 0.0
H3711 H 0.62452 0.87102 0.02395 0.0
H3712 H 0.66942 0.9659 1.0027 0.0
H3713 H 0.73165 0.97996 0.02888 0.0
H3714 H 0.71077 0.94513 0.02439 0.0
H3715 H 0.69364 0.95858 0.03076 0.0
C3716 C 0.65527 0.88547 1.00639 0.0
C3717 C 0.63852 0.86882 0.01256 0.0
C3718 C 0.67102 0.9158 1.00682 0.0
C3719 C 0.66998 0.93031 0.01338 0.0
C3720 C 0.65283 0.91357 0.01951 0.0
H3721 H 0.71046 0.11091 0.01232 0.0
H3722 H 0.68795 0.05828 1.0113 0.0
C3723 C 0.63772 0.88321 0.01916 0.0
C3724 C 0.68566 0.9628 0.01364 0.0
H3725 H 0.72895 0.02137 0.02475 0.0
C3726 C 0.6827 0.97797 1.0075 0.0
C3727 C 0.70357 0.97897 0.01981 0.0
C3728 C 0.71035 0.9648 0.02628 0.0
C3729 C 0.69659 0.00845 1.00739 0.0
C3730 C 0.71286 0.02448 0.01379 0.0
C3731 C 0.71623 0.00934 0.01987 0.0
C3732 C 0.72663 0.05681 0.01432 0.0
C3733 C 0.69422 0.02297 1.0003 0.0
C3734 C 0.75564 0.07387 0.01667 0.0
C3735 C 0.76823 0.10396 0.01753 0.0
C3736 C 0.75228 0.11779 0.01593 0.0
C3737 C 0.72343 0.10091 0.01349 0.0
C3738 C 0.71061 0.07074 0.01283 0.0
H3739 H 0.69069 0.00926 0.99521 0.0
H3740 H 0.67528 0.02622 1.0008 0.0
H3741 H 0.71398 0.04431 0.99935 0.0
H3742 H 0.76861 0.0639 0.01788 0.0
H3743 H 0.79049 0.11644 0.01942 0.0
H3744 H 0.89384 0.6249 1.00673 0.0
H3745 H 0.94653 0.65501 1.00476 0.0
H3746 H 0.95796 0.67563 0.02861 0.0
H3747 H 0.90587 0.64541 0.03061 0.0
H3748 H 0.98532 0.71339 1.00748 0.0
H3749 H 0.01363 0.64579 0.02535 0.0
H3750 H 0.97706 0.63361 0.02225 0.0
H3751 H 0.99177 0.65737 0.0303 0.0
C3752 C 0.90767 0.63593 1.01153 0.0
C3753 C 0.89575 0.63265 0.01883 0.0
C3754 C 0.93775 0.65311 1.01041 0.0
C3755 C 0.95639 0.66715 0.01657 0.0
C3756 C 0.94426 0.66447 0.0238 0.0
H3757 H 0.1415 0.78061 0.02417 0.0
H3758 H 0.08844 0.75296 0.02512 0.0
C3759 C 0.91438 0.6473 0.02492 0.0
C3760 C 0.98847 0.68473 0.01553 0.0
H3761 H 0.05252 0.69258 0.02202 0.0
C3762 C 1.0 0.70869 1.01061 0.0
C3763 C 0.00776 0.67865 0.0196 0.0
C3764 C 0.99695 0.65229 0.02461 0.0
C3765 C 0.03015 0.72715 1.00983 0.0
C3766 C 0.04937 0.72138 0.01403 0.0
C3767 C 0.03784 0.69724 0.01887 0.0
C3768 C 0.0815 0.73962 0.01335 0.0
C3769 C 0.04122 0.75308 1.00466 0.0
C3770 C 0.09533 0.74134 1.00644 0.0
C3771 C 0.12559 0.75702 1.00589 0.0
C3772 C 0.14286 0.77139 0.01225 0.0
C3773 C 0.12895 0.77001 0.01915 0.0
C3774 C 0.0986 0.75412 0.01971 0.0
H3775 H 0.02414 0.75858 1.00335 0.0
H3776 H 0.06001 0.77232 1.00724 0.0
H3777 H 0.04847 0.74819 0.99924 0.0
H3778 H 0.08272 0.72996 1.00149 0.0
H3779 H 0.13544 0.75748 1.00048 0.0
H3780 H 0.25623 0.38212 1.00043 0.0
H3781 H 0.28298 0.35615 1.00131 0.0
H3782 H 0.25948 0.33804 0.0249 0.0
H3783 H 0.23204 0.36362 0.02403 0.0
H3784 H 0.32946 0.36862 1.00988 0.0
H3785 H 0.24035 0.25889 0.01731 0.0
H3786 H 0.2338 0.28706 0.01392 0.0
H3787 H 0.24318 0.28642 0.02369 0.0
C3788 C 0.25642 0.37238 1.00581 0.0
C3789 C 0.24184 0.37495 1.01216 0.0
C3790 C 0.27183 0.35753 1.00629 0.0
C3791 C 0.27306 0.34478 0.01314 0.0
C3792 C 0.25836 0.34709 0.0195 0.0
H3793 H 0.36826 0.2652 0.03019 0.0
H3794 H 0.33731 0.28621 0.02799 0.0
C3795 C 0.24276 0.36186 0.01901 0.0
C3796 C 0.29088 0.33035 0.01367 0.0
H3797 H 0.2884 0.26702 0.01855 0.0
C3798 C 0.3204 0.34632 1.01172 0.0
C3799 C 0.27912 0.30119 0.01603 0.0
C3800 C 0.24732 0.28227 0.01779 0.0
C3801 C 0.33858 0.33429 0.01228 0.0
C3802 C 0.32693 0.30532 0.01478 0.0
C3803 C 0.29735 0.28922 0.01664 0.0
C3804 C 0.34536 0.29187 0.01592 0.0
C3805 C 0.37034 0.35298 1.01044 0.0
C3806 C 0.36002 0.28767 1.00984 0.0
C3807 C 0.37779 0.27555 1.01109 0.0
C3808 C 0.38113 0.26739 0.01844 0.0
C3809 C 0.36615 0.27128 0.02447 0.0
C3810 C 0.34839 0.28325 0.02322 0.0
H3811 H 0.37701 0.37633 1.01014 0.0
H3812 H 0.38391 0.35012 0.01474 0.0
H3813 H 0.37479 0.34644 1.00485 0.0
H3814 H 0.35771 0.29376 1.00414 0.0
H3815 H 0.38914 0.27288 1.00634 0.0
H3816 H 0.13536 0.38677 0.50061 0.0
H3817 H 0.08263 0.3602 0.50163 0.0
H3818 H 0.08865 0.33065 0.52393 0.0
H3819 H 0.14175 0.35744 0.52301 0.0
H3820 H 0.04569 0.2863 0.51251 0.0
H3821 H 0.0358 0.38453 0.51666 0.0
H3822 H 0.05892 0.38556 0.50907 0.0
H3823 H 0.0688 0.38412 0.51872 0.0
C3824 C 0.12563 0.37456 0.50574 0.0
C3825 C 0.14299 0.37438 0.51174 0.0
C3826 C 0.0954 0.35945 0.50631 0.0
C3827 C 0.08172 0.34367 0.51288 0.0
C3828 C 0.0988 0.34281 0.51882 0.0
H3829 H 0.90068 0.23275 0.52582 0.0
H3830 H 0.95331 0.25619 0.5245 0.0
C3831 C 0.12916 0.35815 0.51829 0.0
C3832 C 0.0496 0.32833 0.51351 0.0
H3833 H 0.99237 0.33998 0.51525 0.0
C3834 C 0.03397 0.29796 0.51315 0.0
C3835 C 0.03439 0.34363 0.51424 0.0
C3836 C 0.05021 0.37627 0.51475 0.0
C3837 C 1.00347 0.28248 0.51339 0.0
C3838 C 0.98817 0.29775 0.51424 0.0
C3839 C 1.00394 0.32818 0.51459 0.0
C3840 C 0.95592 0.28269 0.51489 0.0
C3841 C 0.98799 0.24997 0.51249 0.0
C3842 C 0.93966 0.29016 0.51006 0.0
C3843 C 0.90953 0.27707 0.51089 0.0
C3844 C 0.895 0.25622 0.51657 0.0
C3845 C 0.9112 0.24855 0.52135 0.0
C3846 C 0.94133 0.26182 0.52056 0.0
H3847 H 1.00171 0.24285 0.50949 0.0
H3848 H 0.98288 0.23973 0.51818 0.0
H3849 H 0.96742 0.24192 0.5093 0.0
H3850 H 0.95033 0.30627 0.50566 0.0
H3851 H 0.89764 0.28347 0.50713 0.0
H3852 H 0.64954 0.77999 0.5232 0.0
H3853 H 0.67622 0.75362 0.52423 0.0
H3854 H 0.65754 0.72796 0.5008 0.0
H3855 H 0.63109 0.75422 0.4997 0.0
H3856 H 0.65325 0.69336 0.52162 0.0
H3857 H 0.74512 0.75863 0.50215 0.0
H3858 H 0.72255 0.77195 0.50599 0.0
H3859 H 0.70985 0.74675 0.49822 0.0
C3860 C 0.65143 0.76907 0.51824 0.0
C3861 C 0.63815 0.76935 0.51137 0.0
C3862 C 0.66663 0.75392 0.51884 0.0
C3863 C 0.66924 0.73905 0.51257 0.0
C3864 C 0.65636 0.73966 0.50568 0.0
H3865 H 0.74496 0.62619 0.50665 0.0
H3866 H 0.7219 0.65574 0.50444 0.0
C3867 C 0.64105 0.75461 0.50508 0.0
C3868 C 0.68397 0.72158 0.51331 0.0
H3869 H 0.74043 0.71446 0.50661 0.0
C3870 C 0.67241 0.69809 0.51837 0.0
C3871 C 0.70871 0.72741 0.50898 0.0
C3872 C 0.7225 0.75268 0.50357 0.0
C3873 C 0.68472 0.68025 0.51919 0.0
C3874 C 0.70987 0.68642 0.51499 0.0
C3875 C 0.72123 0.70969 0.50985 0.0
C3876 C 0.72521 0.66966 0.51612 0.0
C3877 C 0.67025 0.65453 0.52446 0.0
C3878 C 0.73554 0.6683 0.52334 0.0
C3879 C 0.74854 0.65146 0.52459 0.0
C3880 C 0.75196 0.63584 0.51864 0.0
C3881 C 0.74269 0.63803 0.51133 0.0
C3882 C 0.72946 0.65486 0.51008 0.0
H3883 H 0.64703 0.64758 0.52534 0.0
H3884 H 0.67177 0.63584 0.52222 0.0
H3885 H 0.68111 0.66059 0.53007 0.0
H3886 H 0.7333 0.68008 0.52805 0.0
H3887 H 0.75565 0.65045 0.53028 0.0
H3888 H 0.26733 0.87681 0.50138 0.0
H3889 H 0.29397 0.92952 0.50244 0.0
H3890 H 0.2482 0.924 0.52311 0.0
H3891 H 0.22192 0.87106 0.52221 0.0
H3892 H 0.27755 0.96943 0.50252 0.0
H3893 H 0.33048 0.97438 0.52996 0.0
H3894 H 0.31109 0.9413 0.52458 0.0
H3895 H 0.2917 0.9536 0.53044 0.0
C3896 C 0.26281 0.88669 0.50616 0.0
C3897 C 0.24249 0.86946 0.51174 0.0
C3898 C 0.27814 0.91697 0.50676 0.0
C3899 C 0.27363 0.93091 0.51293 0.0
C3900 C 0.25275 0.91385 0.51839 0.0
H3901 H 0.34541 0.11244 0.52564 0.0
H3902 H 0.31571 0.05971 0.52424 0.0
C3903 C 0.23752 0.8835 0.51784 0.0
C3904 C 0.29068 0.96323 0.51359 0.0
H3905 H 0.33611 0.01874 0.52531 0.0
C3906 C 0.29042 0.98016 0.5075 0.0
C3907 C 0.3077 0.97742 0.52006 0.0
C3908 C 0.31056 0.96077 0.5266 0.0
C3909 C 0.30621 0.01067 0.50776 0.0
C3910 C 0.32291 0.02477 0.51426 0.0
C3911 C 0.32317 0.00793 0.52034 0.0
C3912 C 0.34038 0.05699 0.51485 0.0
C3913 C 0.30455 0.02763 0.50112 0.0
C3914 C 0.36421 0.07309 0.51005 0.0
C3915 C 0.38133 0.10325 0.51087 0.0
C3916 C 0.37495 0.11792 0.5165 0.0
C3917 C 0.35087 0.10181 0.52124 0.0
C3918 C 0.3339 0.07165 0.52045 0.0
H3919 H 0.28604 0.01394 0.49732 0.0
H3920 H 0.30242 0.04627 0.50311 0.0
H3921 H 0.3248 0.03633 0.49775 0.0
H3922 H 0.3699 0.06226 0.50575 0.0
H3923 H 0.39977 0.11505 0.50714 0.0
H3924 H 0.05812 0.46505 0.35525 0.0
H3925 H 0.03148 0.41254 0.354 0.0
H3926 H 0.99339 0.41992 0.33316 0.0
H3927 H 0.02083 0.47295 0.33426 0.0
H3928 H 0.97506 0.374 0.35373 0.0
H3929 H 0.02411 0.36811 0.32651 0.0
H3930 H 0.03809 0.40119 0.3319 0.0
H3931 H 1.00664 0.38941 0.326 0.0
C3932 C 0.04411 0.45565 0.35038 0.0
C3933 C 0.0418 0.47339 0.34483 0.0
C3934 C 0.02882 0.42548 0.34968 0.0
C3935 C 0.01072 0.4121 0.34343 0.0
C3936 C 0.00776 0.42966 0.33795 0.0
H3937 H 0.90205 0.22967 0.33127 0.0
H3938 H 0.92447 0.28242 0.33239 0.0
C3939 C 0.0233 0.46001 0.33861 0.0
C3940 C 0.99501 0.37982 0.34275 0.0
H3941 H 0.9859 0.32394 0.33132 0.0
C3942 C 0.97748 0.36311 0.34883 0.0
C3943 C 0.99822 0.36544 0.33638 0.0
C3944 C 0.01799 0.38191 0.32986 0.0
C3945 C 0.963 0.33262 0.34868 0.0
C3946 C 0.96617 0.31833 0.3423 0.0
C3947 C 0.98342 0.33493 0.3362 0.0
C3948 C 0.95189 0.28616 0.34186 0.0
C3949 C 0.94415 0.31588 0.35531 0.0
C3950 C 0.95986 0.27066 0.34681 0.0
C3951 C 0.94717 0.24048 0.34616 0.0
C3952 C 0.92625 0.22524 0.34055 0.0
C3953 C 0.91806 0.24077 0.33566 0.0
C3954 C 0.93089 0.27093 0.33628 0.0
H3955 H 0.93894 0.32962 0.35898 0.0
H3956 H 0.9236 0.29699 0.35332 0.0
H3957 H 0.95573 0.30756 0.35881 0.0
H3958 H 0.97628 0.28198 0.3511 0.0
H3959 H 0.95395 0.22912 0.34999 0.0
H3960 H 0.77455 0.69908 0.32697 0.0
H3961 H 0.72262 0.66809 0.32922 0.0
H3962 H 0.73561 0.68914 0.35304 0.0
H3963 H 0.78787 0.72061 0.35078 0.0
H3964 H 0.69315 0.6194 0.33876 0.0
H3965 H 0.67209 0.70792 0.34702 0.0
H3966 H 0.70518 0.71485 0.3424 0.0
H3967 H 0.69989 0.70602 0.35231 0.0
C3968 C 0.76639 0.69712 0.33269 0.0
C3969 C 0.78529 0.71228 0.3387 0.0
C3970 C 0.73667 0.67934 0.33397 0.0
C3971 C 0.72509 0.67646 0.34128 0.0
C3972 C 0.74397 0.69132 0.34733 0.0
H3973 H 0.54612 0.58716 0.35709 0.0
H3974 H 0.59882 0.61392 0.35612 0.0
C3975 C 0.77384 0.70912 0.34605 0.0
C3976 C 0.69324 0.65794 0.34246 0.0
H3977 H 0.63242 0.66027 0.34742 0.0
C3978 C 0.67986 0.62831 0.34067 0.0
C3979 C 0.67588 0.66955 0.34495 0.0
C3980 C 0.68884 0.70136 0.34673 0.0
C3981 C 0.6497 0.60996 0.34135 0.0
C3982 C 0.63225 0.62166 0.34371 0.0
C3983 C 0.64571 0.65125 0.34559 0.0
C3984 C 0.60004 0.60373 0.3443 0.0
C3985 C 0.63691 0.57812 0.33966 0.0
C3986 C 0.58291 0.58884 0.33798 0.0
C3987 C 0.55256 0.57324 0.33852 0.0
C3988 C 0.53868 0.5725 0.34538 0.0
C3989 C 0.55595 0.58721 0.35171 0.0
C3990 C 0.58619 0.60262 0.35117 0.0
H3991 H 0.65342 0.57128 0.34012 0.0
H3992 H 0.61875 0.56466 0.34357 0.0
H3993 H 0.62846 0.57375 0.33377 0.0
H3994 H 0.59297 0.58985 0.33256 0.0
H3995 H 0.53999 0.56243 0.33352 0.0
H3996 H 0.31093 0.07666 0.32766 0.0
H3997 H 0.34131 0.05511 0.32993 0.0
H3998 H 0.32418 0.05207 0.35392 0.0
H3999 H 0.29323 0.07345 0.35164 0.0
H4000 H 0.39108 0.07517 0.33866 0.0
H4001 H 0.30396 0.96867 0.34925 0.0
H4002 H 0.29631 0.99404 0.34447 0.0
H4003 H 0.30769 0.99982 0.35421 0.0
C4004 C 0.31358 0.0714 0.33343 0.0
C4005 C 0.29964 0.07671 0.33947 0.0
C4006 C 0.33102 0.05911 0.33472 0.0
C4007 C 0.33485 0.05162 0.34208 0.0
C4008 C 0.3212 0.05719 0.34817 0.0
H4009 H 0.42774 0.96486 0.35775 0.0
H4010 H 0.40089 0.99079 0.35695 0.0
C4011 C 0.30368 0.06958 0.34687 0.0
C4012 C 0.35329 0.03818 0.34328 0.0
H4013 H 0.35142 0.97602 0.34908 0.0
C4014 C 0.38241 0.05351 0.34096 0.0
C4015 C 0.34205 0.00993 0.34629 0.0
C4016 C 0.31075 0.99197 0.34865 0.0
C4017 C 0.40055 0.04143 0.34155 0.0
C4018 C 0.38916 0.01294 0.34441 0.0
C4019 C 0.36017 0.9978 0.34686 0.0
C4020 C 0.40681 0.99832 0.34487 0.0
C4021 C 0.43187 0.0595 0.33922 0.0
C4022 C 0.41923 0.99382 0.33833 0.0
C4023 C 0.4348 0.97902 0.33877 0.0
C4024 C 0.43809 0.96814 0.34574 0.0
C4025 C 0.42578 0.9729 0.35228 0.0
C4026 C 0.41029 0.98771 0.35184 0.0
H4027 H 0.43915 0.08302 0.33928 0.0
H4028 H 0.4462 0.05559 0.34301 0.0
H4029 H 0.43447 0.0536 0.33335 0.0
H4030 H 0.41636 1.00121 0.33286 0.0
H4031 H 0.4437 0.9756 0.33361 0.0
H4032 H 0.2197 0.40281 0.06754 0.0
H4033 H 0.2139 0.38808 0.08086 0.0
H4034 H 0.12686 0.31952 0.0763 0.0
H4035 H 0.13219 0.33436 0.06301 0.0
H4036 H 0.17211 0.38543 0.09127 0.0
H4037 H 0.16269 0.27759 0.08766 0.0
H4038 H 0.17677 0.30487 0.08031 0.0
H4039 H 0.13837 0.28344 0.08187 0.0
C4040 C 0.19927 0.3846 0.06935 0.0
C4041 C 0.17645 0.36978 0.06414 0.0
C4042 C 0.19605 0.37613 0.07698 0.0
C4043 C 0.17008 0.35246 0.07958 0.0
C4044 C 0.14734 0.33746 0.07441 0.0
H4045 H 0.10019 0.26881 0.12281 0.0
H4046 H 0.10991 0.28338 0.10951 0.0
C4047 C 0.15048 0.34596 0.06678 0.0
C4048 C 0.16632 0.34419 0.08776 0.0
H4049 H 0.15185 0.28843 0.09987 0.0
C4050 C 0.16789 0.3643 0.09316 0.0
C4051 C 0.16069 0.31658 0.09023 0.0
C4052 C 0.15976 0.29441 0.08473 0.0
C4053 C 0.16323 0.35732 0.10093 0.0
C4054 C 0.15753 0.32965 0.10341 0.0
C4055 C 0.15622 0.30963 0.098 0.0
C4056 C 0.15215 0.32075 0.11155 0.0
C4057 C 0.16347 0.37933 0.10636 0.0
C4058 C 0.17282 0.33657 0.11717 0.0
C4059 C 0.16729 0.32828 0.12482 0.0
C4060 C 0.14111 0.30372 0.12701 0.0
C4061 C 0.12073 0.28762 0.12134 0.0
C4062 C 0.1262 0.29601 0.11372 0.0
H4063 H 0.16011 0.39578 0.10338 0.0
H4064 H 0.14642 0.36873 0.11076 0.0
H4065 H 0.18482 0.39086 0.10924 0.0
H4066 H 0.19334 0.35529 0.11564 0.0
H4067 H 0.18365 0.34095 0.129 0.0
H4068 H 0.68836 0.82964 0.06231 0.0
H4069 H 0.70135 0.83801 0.07576 0.0
H4070 H 0.6109 0.79635 0.08175 0.0
H4071 H 0.59767 0.78699 0.06836 0.0
H4072 H 0.68982 0.86803 0.08688 0.0
H4073 H 0.63947 0.75161 0.0944 0.0
H4074 H 0.64553 0.76412 0.0847 0.0
H4075 H 0.61515 0.76115 0.08992 0.0
C4076 C 0.67119 0.82207 0.06648 0.0
C4077 C 0.64192 0.80742 0.06421 0.0
C4078 C 0.67867 0.82705 0.07418 0.0
C4079 C 0.65711 0.81736 0.07979 0.0
C4080 C 0.62793 0.80353 0.07754 0.0
H4081 H 0.6601 0.81873 0.12928 0.0
H4082 H 0.6463 0.81434 0.1159 0.0
C4083 C 0.62041 0.79853 0.06986 0.0
C4084 C 0.66517 0.8216 0.08798 0.0
H4085 H 0.65704 0.78509 0.10458 0.0
C4086 C 0.68271 0.84989 0.09074 0.0
C4087 C 0.65593 0.79795 0.09304 0.0
C4088 C 0.6382 0.76697 0.09037 0.0
C4089 C 0.69085 0.85518 0.09843 0.0
C4090 C 0.68162 0.83152 0.10349 0.0
C4091 C 0.66403 0.80325 0.10072 0.0
C4092 C 0.69025 0.83548 0.11164 0.0
C4093 C 0.70877 0.88612 0.1011 0.0
C4094 C 0.71956 0.84873 0.11373 0.0
C4095 C 0.72754 0.85121 0.12138 0.0
C4096 C 0.70636 0.84027 0.12714 0.0
C4097 C 0.677 0.82716 0.12502 0.0
C4098 C 0.66906 0.82472 0.11736 0.0
H4099 H 0.70715 0.90148 0.09715 0.0
H4100 H 0.70195 0.88894 0.10684 0.0
H4101 H 0.73186 0.89195 0.10139 0.0
H4102 H 0.73631 0.85657 0.10943 0.0
H4103 H 0.7503 0.8609 0.12277 0.0
H4104 H 0.22395 0.914 0.12556 0.0
H4105 H 0.22664 0.90422 0.11214 0.0
H4106 H 0.14178 0.82825 0.11346 0.0
H4107 H 0.13887 0.83798 0.12693 0.0
H4108 H 0.22541 0.8577 0.10544 0.0
H4109 H 0.13302 0.86854 0.09502 0.0
H4110 H 0.14818 0.88016 0.10437 0.0
H4111 H 0.12383 0.8424 0.10247 0.0
C4112 C 0.20586 0.8951 0.12302 0.0
C4113 C 0.1812 0.87675 0.12736 0.0
C4114 C 0.20739 0.88961 0.11532 0.0
C4115 C 0.18429 0.8657 0.11172 0.0
C4116 C 0.15963 0.84723 0.11603 0.0
H4117 H 0.16734 0.80305 0.06475 0.0
H4118 H 0.15946 0.80745 0.0783 0.0
C4119 C 0.15803 0.85279 0.12375 0.0
C4120 C 0.18663 0.85987 0.10354 0.0
H4121 H 0.15562 0.85295 0.0861 0.0
C4122 C 0.21012 0.85668 0.10122 0.0
C4123 C 0.16665 0.85839 0.09801 0.0
C4124 C 0.14164 0.8628 0.10006 0.0
C4125 C 0.21421 0.85214 0.09356 0.0
C4126 C 0.19451 0.85111 0.08802 0.0
C4127 C 0.1707 0.85372 0.09034 0.0
C4128 C 0.19898 0.84847 0.07978 0.0
C4129 C 0.23953 0.84828 0.09148 0.0
C4130 C 0.22357 0.87023 0.07607 0.0
C4131 C 0.22813 0.86779 0.06835 0.0
C4132 C 0.20815 0.84354 0.06412 0.0
C4133 C 0.18332 0.82188 0.06784 0.0
C4134 C 0.17871 0.82442 0.07557 0.0
H4135 H 0.24786 0.84192 0.09646 0.0
H4136 H 0.23343 0.83159 0.08699 0.0
H4137 H 0.2574 0.86908 0.08927 0.0
H4138 H 0.23933 0.88918 0.07915 0.0
H4139 H 0.24766 0.88474 0.06572 0.0
H4140 H 0.33709 0.13196 0.46164 0.0
H4141 H 0.32222 0.12676 0.44835 0.0
H4142 H 0.39213 0.21307 0.44371 0.0
H4143 H 0.4069 0.21875 0.45702 0.0
H4144 H 0.30638 0.16131 0.43925 0.0
H4145 H 0.4043 0.16196 0.42813 0.0
H4146 H 0.39433 0.15621 0.43803 0.0
H4147 H 0.41113 0.19208 0.4341 0.0
C4148 C 0.3491 0.15006 0.45784 0.0
C4149 C 0.37333 0.17576 0.46045 0.0
C4150 C 0.34065 0.14695 0.45022 0.0
C4151 C 0.35632 0.16933 0.445 0.0
C4152 C 0.38006 0.19526 0.44759 0.0
H4153 H 0.34256 0.18038 0.39575 0.0
H4154 H 0.35696 0.19046 0.4091 0.0
C4155 C 0.38848 0.19845 0.45522 0.0
C4156 C 0.34785 0.16542 0.43684 0.0
H4157 H 0.37112 0.16087 0.41909 0.0
C4158 C 0.32051 0.16119 0.43484 0.0
C4159 C 0.36635 0.1654 0.43108 0.0
C4160 C 0.39559 0.16892 0.43291 0.0
C4161 C 0.31129 0.15723 0.42723 0.0
C4162 C 0.3296 0.15675 0.42147 0.0
C4163 C 0.35706 0.16125 0.42348 0.0
C4164 C 0.32046 0.15093 0.41335 0.0
C4165 C 0.28221 0.15418 0.42544 0.0
C4166 C 0.29534 0.12521 0.41125 0.0
C4167 C 0.28704 0.11945 0.40363 0.0
C4168 C 0.30382 0.1391 0.39789 0.0
C4169 C 0.32918 0.16471 0.4 0.0
C4170 C 0.33739 0.17054 0.40764 0.0
H4171 H 0.27519 0.16391 0.42996 0.0
H4172 H 0.28269 0.16462 0.41996 0.0
H4173 H 0.26572 0.13083 0.42506 0.0
H4174 H 0.28235 0.10928 0.4155 0.0
H4175 H 0.26776 0.0992 0.40221 0.0
H4176 H 0.84542 0.19176 0.39549 0.0
H4177 H 0.83764 0.19648 0.40898 0.0
H4178 H 0.88341 0.15155 0.41477 0.0
H4179 H 0.89207 0.14751 0.40133 0.0
H4180 H 0.80981 0.15444 0.42027 0.0
H4181 H 0.92601 0.22593 0.42724 0.0
H4182 H 0.91285 0.21873 0.4176 0.0
H4183 H 0.91797 0.19248 0.42274 0.0
C4184 C 0.85402 0.18303 0.39963 0.0
C4185 C 0.86955 0.16939 0.39728 0.0
C4186 C 0.84939 0.1856 0.40735 0.0
C4187 C 0.86035 0.17482 0.41292 0.0
C4188 C 0.8752 0.16054 0.4106 0.0
H4189 H 0.86252 0.17792 0.46244 0.0
H4190 H 0.86704 0.16908 0.44902 0.0
C4191 C 0.87981 0.15792 0.40289 0.0
C4192 C 0.8563 0.17856 0.42114 0.0
H4193 H 0.89324 0.20878 0.43757 0.0
C4194 C 0.82805 0.1664 0.42405 0.0
C4195 C 0.88009 0.19414 0.42609 0.0
C4196 C 0.91095 0.20881 0.42327 0.0
C4197 C 0.82295 0.16896 0.43177 0.0
C4198 C 0.84674 0.1846 0.43672 0.0
C4199 C 0.87498 0.19671 0.43381 0.0
C4200 C 0.84291 0.18904 0.44491 0.0
C4201 C 0.79209 0.15433 0.43459 0.0
C4202 C 0.82797 0.20336 0.44712 0.0
C4203 C 0.82538 0.2085 0.4548 0.0
C4204 C 0.8379 0.19967 0.46048 0.0
C4205 C 0.85281 0.18526 0.45825 0.0
C4206 C 0.85533 0.18009 0.45056 0.0
H4207 H 0.77718 0.13669 0.43072 0.0
H4208 H 0.79027 0.1451 0.44035 0.0
H4209 H 0.78482 0.17051 0.43489 0.0
H4210 H 0.81882 0.21117 0.44288 0.0
H4211 H 0.81428 0.22019 0.45626 0.0
H4212 H 0.87753 0.71422 0.39865 0.0
H4213 H 0.87149 0.70023 0.41206 0.0
H4214 H 0.78046 0.67209 0.4106 0.0
H4215 H 0.78627 0.68606 0.39725 0.0
H4216 H 0.85214 0.71986 0.42405 0.0
H4217 H 0.77912 0.60183 0.42003 0.0
H4218 H 0.7994 0.6257 0.41232 0.0
H4219 H 0.76634 0.62355 0.41554 0.0
C4220 C 0.85622 0.70506 0.40118 0.0
C4221 C 0.83234 0.70102 0.39682 0.0
C4222 C 0.85278 0.69698 0.40885 0.0
C4223 C 0.82541 0.68459 0.41232 0.0
C4224 C 0.80164 0.68085 0.40801 0.0
H4225 H 0.75667 0.62556 0.45769 0.0
H4226 H 0.7643 0.64028 0.44435 0.0
C4227 C 0.80503 0.68885 0.40036 0.0
C4228 C 0.82177 0.67637 0.42049 0.0
H4229 H 0.78423 0.61958 0.43265 0.0
C4230 C 0.83745 0.69789 0.42593 0.0
C4231 C 0.80254 0.6477 0.42296 0.0
C4232 C 0.78608 0.62329 0.41741 0.0
C4233 C 0.83392 0.69171 0.43374 0.0
C4234 C 0.81452 0.66309 0.43621 0.0
C4235 C 0.79898 0.64154 0.43077 0.0
C4236 C 0.81019 0.65497 0.44439 0.0
C4237 C 0.85044 0.71606 0.4393 0.0
C4238 C 0.83338 0.65815 0.44886 0.0
C4239 C 0.82913 0.64993 0.45651 0.0
C4240 C 0.80151 0.63812 0.45986 0.0
C4241 C 0.7783 0.63494 0.45535 0.0
C4242 C 0.78258 0.64315 0.4477 0.0
H4243 H 0.85807 0.73761 0.43665 0.0
H4244 H 0.83689 0.71399 0.44431 0.0
H4245 H 0.86975 0.71526 0.44131 0.0
H4246 H 0.85477 0.66671 0.44642 0.0
H4247 H 0.84758 0.65296 0.4598 0.0
H4248 H 0.91365 0.7416 0.9018 0.0
H4249 H 0.90413 0.72677 0.91508 0.0
H4250 H 0.82 0.65585 0.90901 0.0
H4251 H 0.82948 0.67046 0.89567 0.0
H4252 H 0.86253 0.72223 0.92481 0.0
H4253 H 0.85272 0.61428 0.92106 0.0
H4254 H 0.86659 0.64147 0.91371 0.0
H4255 H 0.82819 0.6198 0.91529 0.0
C4256 C 0.893 0.72296 0.90328 0.0
C4257 C 0.87235 0.70721 0.89764 0.0
C4258 C 0.88764 0.71442 0.91089 0.0
C4259 C 0.86154 0.68989 0.91307 0.0
C4260 C 0.84062 0.67441 0.90747 0.0
H4261 H 0.79613 0.60805 0.95727 0.0
H4262 H 0.801 0.62248 0.94393 0.0
C4263 C 0.84604 0.68284 0.89984 0.0
C4264 C 0.85628 0.68088 0.9212 0.0
H4265 H 0.84174 0.62489 0.93325 0.0
C4266 C 0.85802 0.70095 0.92665 0.0
C4267 C 0.85038 0.65309 0.92363 0.0
C4268 C 0.84961 0.63099 0.91813 0.0
C4269 C 0.85385 0.69398 0.93442 0.0
C4270 C 0.84812 0.66628 0.93684 0.0
C4271 C 0.84605 0.64609 0.93139 0.0
C4272 C 0.84493 0.65808 0.94501 0.0
C4273 C 0.85525 0.71623 0.93996 0.0
C4274 C 0.86806 0.67314 0.95008 0.0
C4275 C 0.86544 0.66484 0.9577 0.0
C4276 C 0.83962 0.64116 0.96046 0.0
C4277 C 0.81644 0.62619 0.95536 0.0
C4278 C 0.81913 0.63448 0.94773 0.0
H4279 H 0.85211 0.73302 0.93709 0.0
H4280 H 0.83861 0.70586 0.94447 0.0
H4281 H 0.87688 0.72725 0.9427 0.0
H4282 H 0.88842 0.69101 0.94809 0.0
H4283 H 0.88399 0.67653 0.96139 0.0
H4284 H 0.35558 0.19421 0.89514 0.0
H4285 H 0.36828 0.19778 0.90858 0.0
H4286 H 0.27825 0.16075 0.91462 0.0
H4287 H 0.26536 0.15726 0.9012 0.0
H4288 H 0.35945 0.22884 0.91977 0.0
H4289 H 0.30216 0.11206 0.92719 0.0
H4290 H 0.30872 0.12468 0.9175 0.0
H4291 H 0.27948 0.12388 0.92279 0.0
C4292 C 0.33843 0.18679 0.89932 0.0
C4293 C 0.3094 0.17539 0.89704 0.0
C4294 C 0.34574 0.18874 0.90701 0.0
C4295 C 0.32422 0.17918 0.91264 0.0
C4296 C 0.29521 0.16764 0.9104 0.0
H4297 H 0.32482 0.18442 0.96203 0.0
H4298 H 0.31205 0.17682 0.94857 0.0
C4299 C 0.28786 0.16565 0.9027 0.0
C4300 C 0.33232 0.18261 0.92083 0.0
H4301 H 0.32113 0.14536 0.93746 0.0
C4302 C 0.35121 0.21055 0.92362 0.0
C4303 C 0.32149 0.15879 0.92589 0.0
C4304 C 0.30205 0.12812 0.9232 0.0
C4305 C 0.35912 0.2154 0.93133 0.0
C4306 C 0.34833 0.19158 0.93639 0.0
C4307 C 0.32944 0.16362 0.9336 0.0
C4308 C 0.3562 0.19532 0.9446 0.0
C4309 C 0.37834 0.24614 0.93401 0.0
C4310 C 0.38524 0.20767 0.94689 0.0
C4311 C 0.39265 0.21226 0.9546 0.0
C4312 C 0.37117 0.20441 0.96021 0.0
C4313 C 0.34201 0.1912 0.95789 0.0
C4314 C 0.33463 0.18665 0.95018 0.0
H4315 H 0.37823 0.26212 0.92999 0.0
H4316 H 0.37144 0.24958 0.93968 0.0
H4317 H 0.40095 0.25054 0.93447 0.0
H4318 H 0.40226 0.21401 0.94272 0.0
H4319 H 0.41534 0.22268 0.95613 0.0
H4320 H 0.88104 0.14324 0.90111 0.0
H4321 H 0.87488 0.15168 0.91445 0.0
H4322 H 0.79643 0.15223 0.90888 0.0
H4323 H 0.8017 0.14257 0.89561 0.0
H4324 H 0.87178 0.19566 0.92166 0.0
H4325 H 0.7688 0.09225 0.92562 0.0
H4326 H 0.79143 0.09938 0.91737 0.0
H4327 H 0.76742 0.11389 0.91802 0.0
C4328 C 0.86232 0.14491 0.90272 0.0
C4329 C 0.84174 0.14193 0.89725 0.0
C4330 C 0.85894 0.14994 0.91036 0.0
C4331 C 0.83487 0.15202 0.91272 0.0
C4332 C 0.81483 0.15006 0.90724 0.0
H4333 H 0.77197 0.17957 0.95553 0.0
H4334 H 0.78138 0.1742 0.94223 0.0
C4335 C 0.81813 0.14494 0.89961 0.0
C4336 C 0.8307 0.15614 0.9209 0.0
H4337 H 0.78299 0.1265 0.93564 0.0
C4338 C 0.85244 0.18045 0.92473 0.0
C4339 C 0.80551 0.13624 0.92493 0.0
C4340 C 0.78208 0.10882 0.9213 0.0
C4341 C 0.84935 0.18576 0.9324 0.0
C4342 C 0.82399 0.16606 0.93639 0.0
C4343 C 0.80236 0.14167 0.93258 0.0
C4344 C 0.81924 0.17045 0.94449 0.0
C4345 C 0.87292 0.21277 0.93613 0.0
C4346 C 0.83732 0.17001 0.95022 0.0
C4347 C 0.83203 0.17315 0.95786 0.0
C4348 C 0.80855 0.17683 0.95993 0.0
C4349 C 0.79055 0.17731 0.95416 0.0
C4350 C 0.79577 0.17403 0.94654 0.0
H4351 H 0.88767 0.22883 0.9319 0.0
H4352 H 0.86352 0.22311 0.93973 0.0
H4353 H 0.88602 0.20688 0.93983 0.0
H4354 H 0.8553 0.16682 0.9488 0.0
H4355 H 0.84638 0.17276 0.96215 0.0
H4356 H 0.65921 0.8889 0.56322 0.0
H4357 H 0.67324 0.89535 0.57657 0.0
H4358 H 0.64492 0.80432 0.57836 0.0
H4359 H 0.63174 0.79782 0.56491 0.0
H4360 H 0.63885 0.87 0.58912 0.0
H4361 H 0.72563 0.8415 0.58762 0.0
H4362 H 0.71095 0.84905 0.57927 0.0
H4363 H 0.69146 0.8143 0.58384 0.0
C4364 C 0.65646 0.8703 0.56639 0.0
C4365 C 0.64456 0.84286 0.56293 0.0
C4366 C 0.66428 0.874 0.57406 0.0
C4367 C 0.66053 0.85043 0.57846 0.0
C4368 C 0.64855 0.82297 0.57505 0.0
H4369 H 0.69149 0.8305 0.626 0.0
H4370 H 0.67747 0.82323 0.61263 0.0
C4371 C 0.64072 0.81923 0.56737 0.0
C4372 C 0.66837 0.85455 0.58667 0.0
H4373 H 0.71157 0.84792 0.5999 0.0
C4374 C 0.65483 0.86527 0.59147 0.0
C4375 C 0.68919 0.84833 0.58975 0.0
C4376 C 0.70537 0.8379 0.58485 0.0
C4377 C 0.6612 0.86955 0.59926 0.0
C4378 C 0.68209 0.86343 0.60234 0.0
C4379 C 0.69556 0.85261 0.59755 0.0
C4380 C 0.69028 0.86805 0.61052 0.0
C4381 C 0.64502 0.87997 0.60416 0.0
C4382 C 0.70237 0.89573 0.6138 0.0
C4383 C 0.71051 0.9 0.62146 0.0
C4384 C 0.70699 0.87672 0.626 0.0
C4385 C 0.69488 0.84902 0.62267 0.0
C4386 C 0.68672 0.84478 0.61502 0.0
H4387 H 0.62464 0.87616 0.60142 0.0
H4388 H 0.63964 0.86899 0.60977 0.0
H4389 H 0.65883 0.90362 0.60513 0.0
H4390 H 0.70595 0.91417 0.61041 0.0
H4391 H 0.7202 0.9217 0.62378 0.0
H4392 H 0.16476 0.75869 0.5686 0.0
H4393 H 0.16001 0.768 0.58196 0.0
H4394 H 0.16976 0.8509 0.57602 0.0
H4395 H 0.17447 0.84171 0.56263 0.0
H4396 H 0.19704 0.81114 0.59158 0.0
H4397 H 0.09549 0.81503 0.58832 0.0
H4398 H 0.10935 0.80183 0.58093 0.0
H4399 H 0.12462 0.84015 0.58238 0.0
C4400 C 0.16616 0.77904 0.57013 0.0
C4401 C 0.1699 0.7994 0.56451 0.0
C4402 C 0.16329 0.78427 0.57778 0.0
C4403 C 0.16399 0.80993 0.58001 0.0
C4404 C 0.16838 0.8306 0.57444 0.0
H4405 H 0.14613 0.87407 0.62425 0.0
H4406 H 0.15501 0.86922 0.61085 0.0
C4407 C 0.17113 0.82534 0.56678 0.0
C4408 C 0.16036 0.815 0.58815 0.0
H4409 H 0.11779 0.82721 0.60041 0.0
C4410 C 0.17968 0.8146 0.59351 0.0
C4411 C 0.13772 0.81957 0.59069 0.0
C4412 C 0.11543 0.81893 0.5853 0.0
C4413 C 0.17714 0.81886 0.60129 0.0
C4414 C 0.1544 0.82323 0.60382 0.0
C4415 C 0.13526 0.82393 0.59847 0.0
C4416 C 0.14965 0.8264 0.61202 0.0
C4417 C 0.19912 0.81907 0.60671 0.0
C4418 C 0.14339 0.80386 0.61714 0.0
C4419 C 0.13813 0.80647 0.62481 0.0
C4420 C 0.13885 0.83168 0.62754 0.0
C4421 C 0.1451 0.85424 0.62237 0.0
C4422 C 0.15032 0.85156 0.6147 0.0
H4423 H 0.21927 0.82337 0.60374 0.0
H4424 H 0.2048 0.83568 0.6112 0.0
H4425 H 0.18981 0.79756 0.60949 0.0
H4426 H 0.14205 0.78395 0.61519 0.0
H4427 H 0.13277 0.78838 0.62855 0.0
H4428 H 0.18226 0.32036 0.56152 0.0
H4429 H 0.17345 0.3068 0.57492 0.0
H4430 H 0.21561 0.39703 0.58119 0.0
H4431 H 0.22474 0.41081 0.56782 0.0
H4432 H 0.21413 0.32087 0.5863 0.0
H4433 H 0.14075 0.36316 0.59341 0.0
H4434 H 0.14889 0.35841 0.58376 0.0
H4435 H 0.17427 0.38951 0.58914 0.0
C4436 C 0.18964 0.33737 0.56574 0.0
C4437 C 0.20418 0.36673 0.56355 0.0
C4438 C 0.18447 0.32955 0.57341 0.0
C4439 C 0.19349 0.35084 0.57909 0.0
C4440 C 0.2078 0.38014 0.57693 0.0
H4441 H 0.19705 0.35132 0.62841 0.0
H4442 H 0.20089 0.36345 0.61492 0.0
C4443 C 0.21299 0.388 0.56926 0.0
C4444 C 0.18924 0.34243 0.58726 0.0
H4445 H 0.15883 0.3483 0.60378 0.0
C4446 C 0.20185 0.32668 0.59011 0.0
C4447 C 0.17334 0.35012 0.59225 0.0
C4448 C 0.1583 0.366 0.58949 0.0
C4449 C 0.19954 0.31896 0.59782 0.0
C4450 C 0.18367 0.32668 0.60281 0.0
C4451 C 0.17098 0.34236 0.59996 0.0
C4452 C 0.18037 0.31902 0.61103 0.0
C4453 C 0.21485 0.30333 0.60058 0.0
C4454 C 0.16701 0.28996 0.61338 0.0
C4455 C 0.16494 0.28294 0.62111 0.0
C4456 C 0.17605 0.30483 0.62668 0.0
C4457 C 0.18869 0.33389 0.6243 0.0
C4458 C 0.19074 0.34088 0.61657 0.0
H4459 H 0.23207 0.30583 0.59657 0.0
H4460 H 0.22476 0.31143 0.60623 0.0
H4461 H 0.19893 0.27985 0.60109 0.0
H4462 H 0.15831 0.27265 0.60924 0.0
H4463 H 0.15525 0.26035 0.62269 0.0
H4464 H 0.98215 0.43451 0.73275 0.0
H4465 H 0.99521 0.44443 0.74613 0.0
H4466 H 0.98048 0.51693 0.74534 0.0
H4467 H 0.96728 0.50707 0.73191 0.0
H4468 H 0.03906 0.4924 0.75283 0.0
H4469 H 0.93334 0.47352 0.76381 0.0
H4470 H 0.9375 0.46298 0.75437 0.0
H4471 H 0.94858 0.50016 0.75641 0.0
C4472 C 0.98182 0.4527 0.73539 0.0
C4473 C 0.97369 0.47002 0.73122 0.0
C4474 C 0.98917 0.45826 0.74307 0.0
C4475 C 0.98849 0.4812 0.7468 0.0
C4476 C 0.98054 0.49868 0.74266 0.0
H4477 H 0.03273 0.54187 0.79396 0.0
H4478 H 0.02009 0.5378 0.78045 0.0
C4479 C 0.97306 0.49305 0.73496 0.0
C4480 C 0.99687 0.48704 0.75497 0.0
H4481 H 0.97202 0.4908 0.7726 0.0
C4482 C 0.02436 0.49205 0.75714 0.0
C4483 C 0.97779 0.48671 0.76062 0.0
C4484 C 0.94756 0.48031 0.75872 0.0
C4485 C 0.03324 0.49663 0.76477 0.0
C4486 C 0.01402 0.49583 0.77043 0.0
C4487 C 0.98675 0.49143 0.76826 0.0
C4488 C 0.02143 0.49832 0.77865 0.0
C4489 C 0.06326 0.50245 0.76671 0.0
C4490 C 0.026 0.47731 0.78216 0.0
C4491 C 0.03319 0.47956 0.78986 0.0
C4492 C 0.03592 0.50287 0.79426 0.0
C4493 C 0.03108 0.52379 0.79074 0.0
C4494 C 0.02371 0.52142 0.78302 0.0
H4495 H 0.0778 0.50997 0.76168 0.0
H4496 H 0.0731 0.51901 0.77126 0.0
H4497 H 0.06189 0.48214 0.76878 0.0
H4498 H 0.02399 0.45908 0.77894 0.0
H4499 H 0.03709 0.46322 0.79233 0.0
H4500 H 0.55348 0.47578 0.73556 0.0
H4501 H 0.54421 0.47982 0.74896 0.0
H4502 H 0.50266 0.52867 0.74294 0.0
H4503 H 0.51092 0.52387 0.72951 0.0
H4504 H 0.56418 0.52961 0.75738 0.0
H4505 H 0.44406 0.46909 0.75749 0.0
H4506 H 0.46503 0.46721 0.7497 0.0
H4507 H 0.45952 0.49774 0.75062 0.0
C4508 C 0.54179 0.48685 0.73706 0.0
C4509 C 0.53283 0.49936 0.73141 0.0
C4510 C 0.53672 0.48935 0.74475 0.0
C4511 C 0.5224 0.50424 0.74699 0.0
C4512 C 0.51325 0.51659 0.74137 0.0
H4513 H 0.48445 0.55711 0.79018 0.0
H4514 H 0.48882 0.54756 0.77681 0.0
C4515 C 0.5183 0.51411 0.73368 0.0
C4516 C 0.51833 0.50802 0.7552 0.0
H4517 H 0.46717 0.4959 0.76865 0.0
C4518 C 0.54294 0.52204 0.75985 0.0
C4519 C 0.49064 0.49828 0.75843 0.0
C4520 C 0.46327 0.482 0.75383 0.0
C4521 C 0.5407 0.52709 0.76759 0.0
C4522 C 0.51301 0.51739 0.77083 0.0
C4523 C 0.48838 0.50333 0.76618 0.0
C4524 C 0.50924 0.52198 0.779 0.0
C4525 C 0.5681 0.54351 0.77219 0.0
C4526 C 0.51863 0.51021 0.78472 0.0
C4527 C 0.51605 0.51553 0.79238 0.0
C4528 C 0.50382 0.53258 0.79452 0.0
C4529 C 0.49368 0.54362 0.78877 0.0
C4530 C 0.49631 0.53832 0.78111 0.0
H4531 H 0.58741 0.55583 0.76851 0.0
H4532 H 0.56656 0.55887 0.77616 0.0
H4533 H 0.5715 0.52792 0.77558 0.0
H4534 H 0.52803 0.49694 0.78325 0.0
H4535 H 0.52361 0.50622 0.79664 0.0
H4536 H 0.46503 0.99977 0.72965 0.0
H4537 H 0.46056 0.98568 0.74299 0.0
H4538 H 0.54806 0.05418 0.74707 0.0
H4539 H 0.55299 0.06817 0.73369 0.0
H4540 H 0.49445 0.96874 0.75184 0.0
H4541 H 0.50007 0.06899 0.763 0.0
H4542 H 0.49329 0.05879 0.75313 0.0
H4543 H 0.52937 0.07455 0.75688 0.0
C4544 C 0.48353 0.01164 0.73333 0.0
C4545 C 0.50938 0.03522 0.73055 0.0
C4546 C 0.48084 1.00365 0.74099 0.0
C4547 C 0.5038 0.01913 0.74607 0.0
C4548 C 0.52983 0.04227 0.7433 0.0
H4549 H 0.51772 0.00591 0.79526 0.0
H4550 H 0.52729 0.0199 0.78187 0.0
C4551 C 0.53259 0.05025 0.73563 0.0
C4552 C 0.50041 0.01098 0.75424 0.0
H4553 H 0.49832 0.03546 0.77204 0.0
C4554 C 0.49529 0.98332 0.75626 0.0
C4555 C 0.50163 0.03004 0.76002 0.0
C4556 C 0.50615 0.05968 0.75818 0.0
C4557 C 0.4916 0.97429 0.76388 0.0
C4558 C 0.49232 0.99317 0.76966 0.0
C4559 C 0.49776 0.02096 0.76764 0.0
C4560 C 0.48678 0.98428 0.77779 0.0
C4561 C 0.48749 0.94477 0.76567 0.0
C4562 C 0.46069 0.95981 0.78001 0.0
C4563 C 0.4552 0.95173 0.78765 0.0
C4564 C 0.47553 0.96812 0.7933 0.0
C4565 C 0.50153 0.99285 0.79108 0.0
C4566 C 0.50707 1.00083 0.78342 0.0
H4567 H 0.49638 0.93707 0.76111 0.0
H4568 H 0.4981 0.94497 0.77111 0.0
H4569 H 0.46399 0.92896 0.76617 0.0
H4570 H 0.44427 0.94715 0.77584 0.0
H4571 H 0.43467 0.93297 0.78916 0.0
H4572 H 0.49689 0.03625 0.23111 0.0
H4573 H 0.48861 0.02424 0.24466 0.0
H4574 H 0.569 0.0235 0.24586 0.0
H4575 H 0.57773 0.03603 0.23242 0.0
H4576 H 0.48507 0.97529 0.25254 0.0
H4577 H 0.5761 0.07917 0.26305 0.0
H4578 H 0.56208 0.07484 0.25353 0.0
H4579 H 0.58627 0.06175 0.25595 0.0
C4580 C 0.5129 0.03372 0.23427 0.0
C4581 C 0.53798 0.03711 0.23065 0.0
C4582 C 0.50806 0.02671 0.242 0.0
C4583 C 0.52836 0.02333 0.2463 0.0
C4584 C 0.55322 0.02641 0.24269 0.0
H4585 H 0.55191 0.98239 0.29208 0.0
H4586 H 0.55519 0.99562 0.27872 0.0
C4587 C 0.55801 0.03325 0.23497 0.0
C4588 C 0.5236 0.01628 0.25454 0.0
H4589 H 0.55367 0.04088 0.27202 0.0
C4590 C 0.49988 0.98972 0.25681 0.0
C4591 C 0.54295 0.03512 0.26012 0.0
C4592 C 0.56815 0.06444 0.25807 0.0
C4593 C 0.49561 0.98102 0.26447 0.0
C4594 C 0.51526 0.99969 0.27004 0.0
C4595 C 0.53863 0.02651 0.26777 0.0
C4596 C 0.51272 0.99147 0.27822 0.0
C4597 C 0.47075 0.95144 0.26648 0.0
C4598 C 0.48785 0.98497 0.28246 0.0
C4599 C 0.4859 0.97739 0.29015 0.0
C4600 C 0.50895 0.97648 0.29379 0.0
C4601 C 0.5339 0.98328 0.28952 0.0
C4602 C 0.53577 0.99072 0.28185 0.0
H4603 H 0.46238 0.9371 0.26143 0.0
H4604 H 0.47738 0.94076 0.27081 0.0
H4605 H 0.45275 0.95377 0.26886 0.0
H4606 H 0.47002 0.98605 0.27985 0.0
H4607 H 0.46652 0.97265 0.29327 0.0
H4608 H 0.03964 0.49715 0.29287 0.0
H4609 H 0.02721 0.48841 0.27936 0.0
H4610 H 0.02178 0.56636 0.27832 0.0
H4611 H 0.0348 0.57562 0.29171 0.0
H4612 H 0.97722 0.48189 0.2716 0.0
H4613 H 0.07786 0.57692 0.26098 0.0
H4614 H 0.07454 0.5632 0.27051 0.0
H4615 H 0.05932 0.58561 0.2681 0.0
C4616 C 0.03599 0.51254 0.28976 0.0
C4617 C 0.03826 0.53711 0.29341 0.0
C4618 C 0.02874 0.50742 0.28204 0.0
C4619 C 0.02395 0.52694 0.27779 0.0
C4620 C 0.02581 0.55123 0.28144 0.0
H4621 H 0.9787 0.54682 0.23214 0.0
H4622 H 0.99239 0.55088 0.24548 0.0
C4623 C 0.03293 0.5563 0.28914 0.0
C4624 C 0.01677 0.52195 0.26956 0.0
H4625 H 0.03961 0.55278 0.25207 0.0
C4626 C 0.99097 0.49722 0.26731 0.0
C4627 C 0.03472 0.54197 0.26397 0.0
C4628 C 0.06329 0.56829 0.26598 0.0
C4629 C 0.98212 0.49253 0.25966 0.0
C4630 C 0.99986 0.51282 0.25408 0.0
C4631 C 0.02594 0.53724 0.25633 0.0
C4632 C 0.99139 0.50982 0.24592 0.0
C4633 C 0.95331 0.46646 0.25768 0.0
C4634 C 0.98651 0.48549 0.24165 0.0
C4635 C 0.97869 0.4831 0.23398 0.0
C4636 C 0.9759 0.50517 0.23038 0.0
C4637 C 0.98107 0.5296 0.23467 0.0
C4638 C 0.98876 0.5319 0.24233 0.0
H4639 H 0.9392 0.45729 0.26275 0.0
H4640 H 0.94167 0.47208 0.25339 0.0
H4641 H 0.95701 0.44936 0.25525 0.0
H4642 H 0.98905 0.46845 0.24423 0.0
H4643 H 0.97523 0.46417 0.23083 0.0
H4644 H 0.54537 0.5134 0.23067 0.0
H4645 H 0.54233 0.5223 0.24423 0.0
H4646 H 0.46104 0.44218 0.24577 0.0
H4647 H 0.46412 0.43288 0.23234 0.0
H4648 H 0.49704 0.52625 0.2522 0.0
H4649 H 0.51048 0.43576 0.26287 0.0
H4650 H 0.51991 0.44947 0.25331 0.0
H4651 H 0.48271 0.42533 0.25582 0.0
C4652 C 0.52695 0.49759 0.23391 0.0
C4653 C 0.50499 0.47242 0.23039 0.0
C4654 C 0.52518 0.50278 0.24165 0.0
C4655 C 0.50163 0.48274 0.24604 0.0
C4656 C 0.47961 0.45776 0.24253 0.0
H4657 H 0.43897 0.46101 0.292 0.0
H4658 H 0.44847 0.45716 0.27863 0.0
C4659 C 0.48127 0.45264 0.23481 0.0
C4660 C 0.49972 0.48788 0.25428 0.0
H4661 H 0.49501 0.45858 0.27182 0.0
C4662 C 0.49689 0.51165 0.25651 0.0
C4663 C 0.49947 0.46879 0.25989 0.0
C4664 C 0.50356 0.44354 0.25788 0.0
C4665 C 0.49273 0.51622 0.26417 0.0
C4666 C 0.49203 0.49685 0.26978 0.0
C4667 C 0.49546 0.47342 0.26754 0.0
C4668 C 0.48664 0.49971 0.27796 0.0
C4669 C 0.48798 0.5411 0.26613 0.0
C4670 C 0.5051 0.52481 0.28212 0.0
C4671 C 0.49973 0.52708 0.28981 0.0
C4672 C 0.47596 0.50414 0.29354 0.0
C4673 C 0.45773 0.47894 0.28937 0.0
C4674 C 0.46305 0.47676 0.28169 0.0
H4675 H 0.48175 0.54921 0.26108 0.0
H4676 H 0.47083 0.5346 0.27051 0.0
H4677 H 0.50837 0.55927 0.26843 0.0
H4678 H 0.52386 0.54257 0.27943 0.0
H4679 H 0.51443 0.54664 0.29286 0.0
H4680 H 0.93028 0.16699 0.28747 0.0
H4681 H 0.95249 0.17767 0.27487 0.0
H4682 H 0.01876 0.16055 0.28297 0.0
H4683 H 0.99673 0.14986 0.29559 0.0
H4684 H 0.00699 0.21856 0.26994 0.0
H4685 H 0.9885 0.10805 0.26451 0.0
H4686 H 0.97125 0.11595 0.27223 0.0
H4687 H 0.00818 0.12402 0.27309 0.0
C4688 C 0.94973 0.16574 0.2866 0.0
C4689 C 0.96156 0.15736 0.29256 0.0
C4690 C 0.96234 0.17172 0.27937 0.0
C4691 C 0.987 0.16938 0.2779 0.0
C4692 C 0.9993 0.16176 0.28388 0.0
H4693 H 0.09617 0.19588 0.23863 0.0
H4694 H 0.07407 0.18705 0.25121 0.0
C4695 C 0.98668 0.15569 0.29111 0.0
C4696 C 0.99992 0.17509 0.27015 0.0
H4697 H 0.01834 0.14454 0.25569 0.0
C4698 C 0.00933 0.20232 0.26681 0.0
C4699 C 1.00295 0.1539 0.26603 0.0
C4700 C 0.99195 0.12375 0.26911 0.0
C4701 C 0.02225 0.20913 0.25957 0.0
C4702 C 0.02549 0.18802 0.25549 0.0
C4703 C 0.01596 0.16077 0.25881 0.0
C4704 C 0.03891 0.19378 0.2478 0.0
C4705 C 0.03298 0.23914 0.25643 0.0
C4706 C 0.02637 0.20022 0.24164 0.0
C4707 C 0.03885 0.20508 0.2344 0.0
C4708 C 0.06412 0.20347 0.23313 0.0
C4709 C 0.07652 0.19691 0.23933 0.0
C4710 C 0.064 0.19202 0.24656 0.0
H4711 H 0.0355 0.25479 0.26094 0.0
H4712 H 0.0541 0.24728 0.2535 0.0
H4713 H 0.0171 0.23839 0.25224 0.0
H4714 H 1.00665 0.20108 0.24241 0.0
H4715 H 0.02835 0.20956 0.22976 0.0
H4716 H 0.84591 0.76753 0.28743 0.0
H4717 H 0.83412 0.77829 0.27486 0.0
H4718 H 0.87069 0.86809 0.28115 0.0
H4719 H 0.88269 0.85754 0.29369 0.0
H4720 H 0.79977 0.8001 0.27038 0.0
H4721 H 0.91305 0.87505 0.26154 0.0
H4722 H 0.90421 0.85222 0.26981 0.0
H4723 H 0.90348 0.88559 0.27025 0.0
C4724 C 0.85132 0.78956 0.28616 0.0
C4725 C 0.86549 0.81171 0.29157 0.0
C4726 C 0.84465 0.7957 0.27895 0.0
C4727 C 0.85203 0.82413 0.27698 0.0
C4728 C 0.86551 0.84614 0.28243 0.0
H4729 H 0.82808 0.90734 0.2375 0.0
H4730 H 0.83851 0.89475 0.24997 0.0
C4731 C 0.87232 0.84005 0.28962 0.0
C4732 C 0.84534 0.83068 0.26925 0.0
H4733 H 0.87608 0.87324 0.25362 0.0
C4734 C 0.81649 0.81595 0.2667 0.0
C4735 C 0.86713 0.85134 0.26441 0.0
C4736 C 0.89874 0.86676 0.2666 0.0
C4737 C 0.80879 0.82181 0.25955 0.0
C4738 C 0.83054 0.84272 0.25477 0.0
C4739 C 0.85939 0.85731 0.25729 0.0
C4740 C 0.82385 0.85002 0.24715 0.0
C4741 C 0.77732 0.80608 0.25725 0.0
C4742 C 0.81241 0.82917 0.24135 0.0
C4743 C 0.80665 0.83637 0.23416 0.0
C4744 C 0.81229 0.86466 0.23259 0.0
C4745 C 0.82383 0.88548 0.23843 0.0
C4746 C 0.82966 0.87827 0.2456 0.0
H4747 H 0.76272 0.79597 0.26219 0.0
H4748 H 0.77147 0.82106 0.25442 0.0
H4749 H 0.77346 0.78864 0.25317 0.0
H4750 H 0.8083 0.80738 0.24235 0.0
H4751 H 0.79827 0.81986 0.2298 0.0
H4752 H 0.1986 0.09266 0.28625 0.0
H4753 H 0.18747 0.06866 0.2739 0.0
H4754 H 0.19521 0.99839 0.28345 0.0
H4755 H 0.20511 0.0216 0.29591 0.0
H4756 H 0.21946 0.05382 0.26487 0.0
H4757 H 0.11742 0.9548 0.273 0.0
H4758 H 0.13465 0.98642 0.27901 0.0
H4759 H 0.14796 0.96136 0.27871 0.0
C4760 C 0.1975 0.07187 0.28577 0.0
C4761 C 0.20251 0.05901 0.29214 0.0
C4762 C 0.19136 0.05827 0.27867 0.0
C4763 C 0.18999 0.03144 0.27774 0.0
C4764 C 0.19549 0.01876 0.28404 0.0
H4765 H 0.15627 0.91869 0.23844 0.0
H4766 H 0.16961 0.94193 0.25093 0.0
C4767 C 0.20156 0.0323 0.29116 0.0
C4768 C 0.18331 0.01711 0.27015 0.0
H4769 H 0.13576 0.95522 0.26071 0.0
C4770 C 0.2011 0.03229 0.26397 0.0
C4771 C 0.15936 0.98897 0.26894 0.0
C4772 C 0.13857 0.972 0.27525 0.0
C4773 C 0.19582 0.02006 0.25666 0.0
C4774 C 0.17184 0.99199 0.25545 0.0
C4775 C 0.15417 0.9767 0.26164 0.0
C4776 C 0.16441 0.97831 0.24779 0.0
C4777 C 0.21624 0.03714 0.2503 0.0
C4778 C 0.15684 0.99088 0.24187 0.0
C4779 C 0.14925 0.97767 0.23472 0.0
C4780 C 0.14899 0.95152 0.23332 0.0
C4781 C 0.1566 0.93899 0.23928 0.0
C4782 C 0.16406 0.95216 0.24644 0.0
H4783 H 0.23737 0.05459 0.25249 0.0
H4784 H 0.22022 0.0228 0.24653 0.0
H4785 H 0.20642 0.04742 0.24686 0.0
H4786 H 0.15649 0.0108 0.24281 0.0
H4787 H 0.14374 0.98807 0.23027 0.0
H4788 H 0.91842 0.81412 0.786 0.0
H4789 H 0.94213 0.8246 0.77361 0.0
H4790 H 0.01469 0.82178 0.78344 0.0
H4791 H 0.99135 0.81172 0.7959 0.0
H4792 H 0.99627 0.87168 0.76946 0.0
H4793 H 0.99358 0.76712 0.76513 0.0
H4794 H 0.97175 0.77177 0.77221 0.0
H4795 H 0.0096 0.78516 0.7739 0.0
C4796 C 0.93951 0.8159 0.78557 0.0
C4797 C 0.9529 0.81205 0.792 0.0
C4798 C 0.95297 0.82173 0.77845 0.0
C4799 C 0.98004 0.82361 0.77756 0.0
C4800 C 0.99353 0.81983 0.78395 0.0
H4801 H 0.09519 0.86016 0.73874 0.0
H4802 H 0.07214 0.84825 0.75125 0.0
C4803 C 0.98011 0.81404 0.79108 0.0
C4804 C 0.99443 0.83045 0.76999 0.0
H4805 H 0.01968 0.80401 0.75608 0.0
C4806 C 1.0013 0.85684 0.76652 0.0
C4807 C 1.00115 0.81116 0.76617 0.0
C4808 C 0.99346 0.78209 0.76949 0.0
C4809 C 0.015 0.86465 0.7594 0.0
C4810 C 0.02145 0.84523 0.75553 0.0
C4811 C 0.01473 0.81889 0.75902 0.0
C4812 C 0.03506 0.85183 0.74785 0.0
C4813 C 0.02305 0.89397 0.75617 0.0
C4814 C 0.02167 0.85724 0.7417 0.0
C4815 C 0.03482 0.86409 0.73454 0.0
C4816 C 0.06154 0.86536 0.73332 0.0
C4817 C 0.07454 0.85919 0.73944 0.0
C4818 C 0.06143 0.85248 0.74662 0.0
H4819 H 0.02442 0.90922 0.76067 0.0
H4820 H 0.04414 0.9037 0.75315 0.0
H4821 H 1.00617 0.89148 0.75207 0.0
H4822 H 1.00094 0.85608 0.74243 0.0
H4823 H 0.02389 0.86812 0.72993 0.0
H4824 H 0.13 0.15333 0.73043 0.0
H4825 H 0.14303 0.14362 0.74296 0.0
H4826 H 0.17974 0.23373 0.74889 0.0
H4827 H 0.16623 0.24354 0.73643 0.0
H4828 H 0.19837 0.1682 0.74989 0.0
H4829 H 0.12368 0.1913 0.76654 0.0
H4830 H 0.1202 0.18544 0.75642 0.0
H4831 H 0.14746 0.21965 0.76019 0.0
C4832 C 0.1406 0.17106 0.73442 0.0
C4833 C 0.14686 0.1992 0.73242 0.0
C4834 C 0.1482 0.1655 0.74157 0.0
C4835 C 0.162 0.18784 0.74692 0.0
C4836 C 0.16868 0.21603 0.74491 0.0
H4837 H 0.216 0.19014 0.79391 0.0
H4838 H 0.20657 0.20308 0.78134 0.0
C4839 C 0.1612 0.22166 0.73775 0.0
C4840 C 0.16963 0.18162 0.75456 0.0
H4841 H 0.15594 0.18183 0.77351 0.0
C4842 C 0.18907 0.17114 0.75505 0.0
C4843 C 0.1576 0.18558 0.7613 0.0
C4844 C 0.13589 0.19588 0.76113 0.0
C4845 C 0.19702 0.16479 0.7621 0.0
C4846 C 0.18468 0.16834 0.76885 0.0
C4847 C 0.16542 0.17908 0.76835 0.0
C4848 C 0.19101 0.16055 0.77647 0.0
C4849 C 0.21906 0.1549 0.76224 0.0
C4850 C 0.18518 0.13225 0.77798 0.0
C4851 C 0.19085 0.12485 0.78514 0.0
C4852 C 0.20219 0.14547 0.79103 0.0
C4853 C 0.20773 0.17376 0.78951 0.0
C4854 C 0.20213 0.18117 0.78233 0.0
H4855 H 0.23268 0.16172 0.75704 0.0
H4856 H 0.23344 0.16361 0.76726 0.0
H4857 H 0.20761 0.13088 0.7625 0.0
H4858 H 0.17601 0.11574 0.77362 0.0
H4859 H 0.18654 0.10294 0.78603 0.0
H4860 H 0.83119 0.02179 0.79565 0.0
H4861 H 0.81846 0.99902 0.78311 0.0
H4862 H 0.8903 0.07506 0.77327 0.0
H4863 H 0.90296 0.09816 0.78573 0.0
H4864 H 0.80449 0.01795 0.76954 0.0
H4865 H 0.90329 0.00921 0.76596 0.0
H4866 H 0.89241 0.01645 0.77502 0.0
H4867 H 0.9103 0.04504 0.76818 0.0
C4868 C 0.84418 0.03382 0.79082 0.0
C4869 C 0.86829 0.06181 0.79175 0.0
C4870 C 0.83693 0.02068 0.78365 0.0
C4871 C 0.8537 0.03511 0.77726 0.0
C4872 C 0.87743 0.0632 0.77814 0.0
H4873 H 0.85129 0.99479 0.72936 0.0
H4874 H 0.86163 0.01721 0.74194 0.0
C4875 C 0.88467 0.07637 0.78529 0.0
C4876 C 0.84629 0.02097 0.76966 0.0
H4877 H 0.87291 0.99826 0.75519 0.0
C4878 C 0.81937 0.01349 0.76642 0.0
C4879 C 0.86573 0.0152 0.76557 0.0
C4880 C 0.89445 0.02163 0.76887 0.0
C4881 C 0.81166 1.00104 0.75914 0.0
C4882 C 0.83114 0.99534 0.75504 0.0
C4883 C 0.85799 1.00269 0.75831 0.0
C4884 C 0.82422 0.9818 0.74735 0.0
C4885 C 0.78304 0.99489 0.75582 0.0
C4886 C 0.79986 0.95429 0.74618 0.0
C4887 C 0.79388 0.9414 0.73898 0.0
C4888 C 0.81231 0.95558 0.73279 0.0
C4889 C 0.83677 0.9831 0.734 0.0
C4890 C 0.84266 0.99601 0.74119 0.0
H4891 H 0.77458 0.00777 0.75867 0.0
H4892 H 0.78502 0.99971 0.74966 0.0
H4893 H 0.76689 0.97161 0.75662 0.0
H4894 H 0.7857 0.9425 0.75087 0.0
H4895 H 0.77517 0.91998 0.73831 0.0
H4896 H 0.58585 0.44004 0.62013 0.0
H4897 H 0.60914 0.45306 0.6077 0.0
H4898 H 0.67563 0.53477 0.61666 0.0
H4899 H 0.65318 0.52142 0.62921 0.0
H4900 H 0.61991 0.49806 0.59833 0.0
H4901 H 0.72366 0.50486 0.60647 0.0
H4902 H 0.69227 0.48895 0.61258 0.0
H4903 H 0.71488 0.52769 0.61201 0.0
C4904 C 0.60569 0.46061 0.61951 0.0
C4905 C 0.61772 0.47951 0.62574 0.0
C4906 C 0.61886 0.46813 0.61236 0.0
C4907 C 0.64444 0.4947 0.61124 0.0
C4908 C 0.65627 0.51387 0.6174 0.0
H4909 H 0.75331 0.57534 0.57144 0.0
H4910 H 0.73042 0.56531 0.58397 0.0
C4911 C 0.64315 0.50634 0.62457 0.0
C4912 C 0.65832 0.5024 0.6036 0.0
H4913 H 0.72101 0.52042 0.59405 0.0
C4914 C 0.64199 0.50287 0.5974 0.0
C4915 C 0.68717 0.50873 0.60236 0.0
C4916 C 0.70547 0.5073 0.60869 0.0
C4917 C 0.65376 0.50975 0.59004 0.0
C4918 C 0.68255 0.51596 0.58881 0.0
C4919 C 0.69897 0.51573 0.595 0.0
C4920 C 0.6959 0.52228 0.58111 0.0
C4921 C 0.6354 0.51075 0.58367 0.0
C4922 C 0.68424 0.50138 0.57533 0.0
C4923 C 0.69723 0.50707 0.56815 0.0
C4924 C 0.72225 0.5338 0.56658 0.0
C4925 C 0.73385 0.5547 0.5724 0.0
C4926 C 0.7209 0.54893 0.57959 0.0
H4927 H 0.61708 0.51308 0.58584 0.0
H4928 H 0.64855 0.52899 0.57975 0.0
H4929 H 0.62621 0.49026 0.58039 0.0
H4930 H 0.66525 0.48047 0.57639 0.0
H4931 H 0.68757 0.49055 0.56381 0.0
H4932 H 0.56097 0.18607 0.62505 0.0
H4933 H 0.5478 0.19462 0.61242 0.0
H4934 H 0.48781 0.10316 0.60993 0.0
H4935 H 0.5009 0.09439 0.62255 0.0
H4936 H 0.55332 0.17365 0.59865 0.0
H4937 H 0.43766 0.1377 0.60412 0.0
H4938 H 0.46317 0.14459 0.61167 0.0
H4939 H 0.44776 0.11115 0.60644 0.0
C4940 C 0.54501 0.16772 0.62182 0.0
C4941 C 0.53199 0.13951 0.62485 0.0
C4942 C 0.5374 0.17268 0.6146 0.0
C4943 C 0.51649 0.14962 0.61024 0.0
C4944 C 0.50347 0.12143 0.61324 0.0
H4945 H 0.44879 0.13964 0.56442 0.0
H4946 H 0.45996 0.12873 0.57706 0.0
C4947 C 0.51102 0.11644 0.62047 0.0
C4948 C 0.50918 0.15505 0.60246 0.0
H4949 H 0.45343 0.14792 0.59133 0.0
C4950 C 0.53148 0.16811 0.59707 0.0
C4951 C 0.48066 0.14772 0.60036 0.0
C4952 C 0.45595 0.13475 0.60596 0.0
C4953 C 0.52605 0.17376 0.58963 0.0
C4954 C 0.49759 0.16663 0.58754 0.0
C4955 C 0.47523 0.15335 0.59292 0.0
C4956 C 0.49074 0.1733 0.57986 0.0
C4957 C 0.5508 0.18685 0.58404 0.0
C4958 C 0.50395 0.20202 0.57725 0.0
C4959 C 0.49754 0.20835 0.57005 0.0
C4960 C 0.47759 0.18612 0.56527 0.0
C4961 C 0.46409 0.15736 0.56794 0.0
C4962 C 0.47054 0.15106 0.57516 0.0
H4963 H 0.56893 0.18354 0.58583 0.0
H4964 H 0.54355 0.17741 0.5783 0.0
H4965 H 0.55925 0.21053 0.58367 0.0
H4966 H 0.51905 0.21966 0.58083 0.0
H4967 H 0.50787 0.2308 0.56828 0.0
H4968 H 0.86066 0.41518 0.6205 0.0
H4969 H 0.85134 0.39308 0.60792 0.0
H4970 H 0.88122 0.33561 0.6155 0.0
H4971 H 0.88964 0.3569 0.6282 0.0
H4972 H 0.88917 0.39024 0.59782 0.0
H4973 H 0.80364 0.27933 0.60592 0.0
H4974 H 0.81565 0.30998 0.6122 0.0
H4975 H 0.83688 0.29253 0.6111 0.0
C4976 C 0.86483 0.39751 0.61955 0.0
C4977 C 0.87566 0.38769 0.62543 0.0
C4978 C 0.85971 0.38505 0.61232 0.0
C4979 C 0.86514 0.36235 0.61077 0.0
C4980 C 0.87629 0.35269 0.61658 0.0
H4981 H 0.84526 0.26113 0.56989 0.0
H4982 H 0.8573 0.28307 0.58252 0.0
C4983 C 0.88142 0.36515 0.62383 0.0
C4984 C 0.85968 0.34935 0.60302 0.0
H4985 H 0.82051 0.28591 0.59324 0.0
C4986 C 0.8741 0.36743 0.59682 0.0
C4987 C 0.84006 0.31957 0.6017 0.0
C4988 C 0.82294 0.29922 0.60806 0.0
C4989 C 0.86969 0.35655 0.58937 0.0
C4990 C 0.84993 0.32682 0.58804 0.0
C4991 C 0.83568 0.30868 0.59425 0.0
C4992 C 0.84342 0.31417 0.58025 0.0
C4993 C 0.88665 0.37693 0.583 0.0
C4994 C 0.83146 0.32419 0.57476 0.0
C4995 C 0.8247 0.3118 0.5675 0.0
C4996 C 0.82961 0.28895 0.56558 0.0
C4997 C 0.8416 0.27896 0.57111 0.0
C4998 C 0.8483 0.29135 0.57837 0.0
H4999 H 0.90632 0.39652 0.58512 0.0
H5000 H 0.89332 0.36604 0.57874 0.0
H5001 H 0.87284 0.38415 0.58012 0.0
H5002 H 0.82698 0.3414 0.5761 0.0
H5003 H 0.81569 0.3202 0.56339 0.0
H5004 H 0.69921 0.20768 0.0644 0.0
H5005 H 0.67867 0.19579 0.07718 0.0
H5006 H 0.71648 0.14158 0.08054 0.0
H5007 H 0.7379 0.15408 0.06785 0.0
H5008 H 0.64037 0.14267 0.08368 0.0
H5009 H 0.74526 0.19451 0.09906 0.0
H5010 H 0.74255 0.20088 0.08913 0.0
H5011 H 0.74148 0.16813 0.09214 0.0
C5012 C 0.70341 0.19343 0.06787 0.0
C5013 C 0.72047 0.18206 0.06509 0.0
C5014 C 0.69148 0.1865 0.07517 0.0
C5015 C 0.69642 0.16819 0.07989 0.0
C5016 C 0.71283 0.15622 0.07707 0.0
H5017 H 0.64443 0.10726 0.12643 0.0
H5018 H 0.66427 0.116 0.11354 0.0
C5019 C 0.72477 0.16312 0.06977 0.0
C5020 C 0.68421 0.16152 0.08772 0.0
H5021 H 0.70294 0.1676 0.10646 0.0
C5022 C 0.65406 0.14817 0.08866 0.0
C5023 C 0.70205 0.16864 0.09423 0.0
C5024 C 0.73465 0.18406 0.09363 0.0
C5025 C 0.64126 0.14147 0.0959 0.0
C5026 C 0.65911 0.14881 0.10242 0.0
C5027 C 0.68925 0.16194 0.10148 0.0
C5028 C 0.64697 0.14348 0.11026 0.0
C5029 C 0.60867 0.12611 0.0965 0.0
C5030 C 0.63099 0.15633 0.11276 0.0
C5031 C 0.61946 0.15123 0.1201 0.0
C5032 C 0.62382 0.13332 0.12517 0.0
C5033 C 0.64025 0.12083 0.12267 0.0
C5034 C 0.65178 0.12595 0.11531 0.0
H5035 H 0.59811 0.11481 0.09114 0.0
H5036 H 0.60074 0.11001 0.10118 0.0
H5037 H 0.60181 0.14225 0.09769 0.0
H5038 H 0.62745 0.17041 0.10903 0.0
H5039 H 0.60672 0.16101 0.12177 0.0
H5040 H 0.89165 0.53526 0.12742 0.0
H5041 H 0.88067 0.54634 0.11478 0.0
H5042 H 0.83783 0.45564 0.10899 0.0
H5043 H 0.84895 0.44438 0.12153 0.0
H5044 H 0.89612 0.53516 0.10037 0.0
H5045 H 0.7767 0.47806 0.1038 0.0
H5046 H 0.80106 0.48681 0.11174 0.0
H5047 H 0.79262 0.45604 0.10584 0.0
C5048 C 0.88 0.51765 0.12345 0.0
C5049 C 0.87099 0.48886 0.12555 0.0
C5050 C 0.87364 0.52403 0.11623 0.0
C5051 C 0.85798 0.50178 0.11097 0.0
C5052 C 0.84931 0.47311 0.11301 0.0
H5053 H 0.79547 0.48956 0.06488 0.0
H5054 H 0.8084 0.48092 0.07753 0.0
C5055 C 0.85566 0.46671 0.12021 0.0
C5056 C 0.85112 0.50849 0.1033 0.0
H5057 H 0.79491 0.49407 0.09138 0.0
C5058 C 0.874 0.52635 0.09842 0.0
C5059 C 0.82224 0.49693 0.10074 0.0
C5060 C 0.79671 0.47861 0.10582 0.0
C5061 C 0.86881 0.53234 0.09099 0.0
C5062 C 0.83991 0.52064 0.08841 0.0
C5063 C 0.81705 0.50297 0.09333 0.0
C5064 C 0.83281 0.52624 0.08064 0.0
C5065 C 0.89437 0.55044 0.0859 0.0
C5066 C 0.84201 0.5546 0.07815 0.0
C5067 C 0.83462 0.55961 0.07091 0.0
C5068 C 0.81759 0.53636 0.066 0.0
C5069 C 0.80834 0.50798 0.06852 0.0
C5070 C 0.81582 0.503 0.07575 0.0
H5071 H 0.91432 0.5509 0.08793 0.0
H5072 H 0.88999 0.5421 0.07999 0.0
H5073 H 0.89861 0.57305 0.08584 0.0
H5074 H 0.8545 0.57287 0.08187 0.0
H5075 H 0.84171 0.58171 0.06921 0.0
H5076 H 0.57328 0.42398 0.11931 0.0
H5077 H 0.56073 0.40106 0.10682 0.0
H5078 H 0.47753 0.33593 0.11534 0.0
H5079 H 0.49004 0.3584 0.12791 0.0
H5080 H 0.54583 0.34387 0.10291 0.0
H5081 H 0.45656 0.36539 0.09612 0.0
H5082 H 0.48226 0.38405 0.10364 0.0
H5083 H 0.45307 0.34763 0.10504 0.0
C5084 C 0.55237 0.40465 0.11857 0.0
C5085 C 0.53272 0.3931 0.12467 0.0
C5086 C 0.54516 0.39167 0.11139 0.0
C5087 C 0.51805 0.36698 0.1101 0.0
C5088 C 0.49835 0.35531 0.11615 0.0
H5089 H 0.43788 0.25834 0.07029 0.0
H5090 H 0.44849 0.28083 0.08287 0.0
C5091 C 0.50556 0.36824 0.12335 0.0
C5092 C 0.51086 0.35303 0.10247 0.0
H5093 H 0.46416 0.33567 0.08753 0.0
C5094 C 0.52803 0.34215 0.09953 0.0
C5095 C 0.48753 0.35064 0.09808 0.0
C5096 C 0.46889 0.36274 0.10083 0.0
C5097 C 0.52233 0.32865 0.09238 0.0
C5098 C 0.4992 0.32655 0.08794 0.0
C5099 C 0.48191 0.33729 0.09091 0.0
C5100 C 0.49265 0.31334 0.08021 0.0
C5101 C 0.54075 0.31615 0.08974 0.0
C5102 C 0.51369 0.32442 0.07445 0.0
C5103 C 0.5077 0.31157 0.06725 0.0
C5104 C 0.48037 0.28752 0.06561 0.0
C5105 C 0.45908 0.27693 0.07133 0.0
C5106 C 0.46515 0.28971 0.07855 0.0
H5107 H 0.55153 0.31196 0.09457 0.0
H5108 H 0.52762 0.29557 0.08659 0.0
H5109 H 0.55793 0.33186 0.0859 0.0
H5110 H 0.53479 0.34313 0.07551 0.0
H5111 H 0.52442 0.32068 0.06295 0.0
H5112 H 0.41144 0.91595 0.9019 0.0
H5113 H 0.39016 0.90717 0.91462 0.0
H5114 H 0.35859 0.81572 0.91204 0.0
H5115 H 0.3797 0.82426 0.89934 0.0
H5116 H 0.33354 0.87346 0.91955 0.0
H5117 H 0.40241 0.83332 0.93199 0.0
H5118 H 0.41033 0.85156 0.92294 0.0
H5119 H 0.3832 0.81387 0.92365 0.0
C5120 C 0.3998 0.89392 0.90401 0.0
C5121 C 0.39755 0.87085 0.89959 0.0
C5122 C 0.38774 0.88895 0.91131 0.0
C5123 C 0.37325 0.86085 0.91437 0.0
C5124 C 0.37034 0.8377 0.9099 0.0
H5125 H 0.28285 0.78108 0.95623 0.0
H5126 H 0.30493 0.79236 0.94363 0.0
C5127 C 0.38243 0.84264 0.90262 0.0
C5128 C 0.36093 0.85567 0.92219 0.0
H5129 H 0.36269 0.8274 0.93947 0.0
C5130 C 0.34005 0.86357 0.92392 0.0
C5131 C 0.36942 0.84279 0.92792 0.0
C5132 C 0.39276 0.83513 0.92657 0.0
C5133 C 0.32692 0.85824 0.93112 0.0
C5134 C 0.33521 0.84508 0.93682 0.0
C5135 C 0.35625 0.83741 0.93511 0.0
C5136 C 0.32199 0.83858 0.94454 0.0
C5137 C 0.30368 0.866 0.9325 0.0
C5138 C 0.32454 0.86083 0.94933 0.0
C5139 C 0.31206 0.85447 0.95658 0.0
C5140 C 0.29688 0.82569 0.95924 0.0
C5141 C 0.29469 0.80352 0.95445 0.0
C5142 C 0.30716 0.80991 0.9472 0.0
H5143 H 0.29479 0.86907 0.92711 0.0
H5144 H 0.2856 0.84896 0.93588 0.0
H5145 H 0.31305 0.8866 0.93574 0.0
H5146 H 0.33643 0.8832 0.94748 0.0
H5147 H 0.31464 0.87217 0.96014 0.0
H5148 H 0.23091 0.49315 0.95485 0.0
H5149 H 0.21877 0.50257 0.94221 0.0
H5150 H 0.12844 0.45981 0.94838 0.0
H5151 H 0.1405 0.45123 0.96116 0.0
H5152 H 0.18388 0.46393 0.93134 0.0
H5153 H 0.14086 0.53577 0.93962 0.0
H5154 H 0.16119 0.52643 0.94608 0.0
H5155 H 0.12356 0.50119 0.94429 0.0
C5156 C 0.20849 0.48616 0.95359 0.0
C5157 C 0.18674 0.47164 0.95909 0.0
C5158 C 0.20155 0.49136 0.94632 0.0
C5159 C 0.17274 0.4823 0.94436 0.0
C5160 C 0.1509 0.46754 0.94979 0.0
H5161 H 0.09271 0.49665 0.90253 0.0
H5162 H 0.10196 0.48422 0.91519 0.0
C5163 C 0.15782 0.46234 0.95708 0.0
C5164 C 0.16564 0.48775 0.93656 0.0
H5165 H 0.13565 0.52157 0.92672 0.0
C5166 C 0.17339 0.47659 0.93033 0.0
C5167 C 0.15188 0.50422 0.93523 0.0
C5168 C 0.1441 0.51784 0.94165 0.0
C5169 C 0.16754 0.48119 0.92284 0.0
C5170 C 0.15398 0.49783 0.92151 0.0
C5171 C 0.146 0.50878 0.92774 0.0
C5172 C 0.14836 0.50458 0.9137 0.0
C5173 C 0.17551 0.46775 0.91642 0.0
C5174 C 0.17135 0.52028 0.90863 0.0
C5175 C 0.16612 0.52728 0.90137 0.0
C5176 C 0.13776 0.51888 0.899 0.0
C5177 C 0.11476 0.5031 0.9041 0.0
C5178 C 0.12003 0.49616 0.91137 0.0
H5179 H 0.17805 0.44936 0.91841 0.0
H5180 H 0.15888 0.45986 0.91188 0.0
H5181 H 0.19647 0.4843 0.91394 0.0
H5182 H 0.19345 0.52749 0.91033 0.0
H5183 H 0.18434 0.53926 0.8976 0.0
H5184 H 0.50325 0.595 0.90376 0.0
H5185 H 0.51525 0.61761 0.91633 0.0
H5186 H 0.47485 0.66776 0.91053 0.0
H5187 H 0.46267 0.6452 0.89798 0.0
H5188 H 0.54805 0.67417 0.92079 0.0
H5189 H 0.43467 0.63102 0.93029 0.0
H5190 H 0.4438 0.6178 0.92191 0.0
H5191 H 0.44273 0.65101 0.92158 0.0
C5192 C 0.49705 0.61097 0.90514 0.0
C5193 C 0.48174 0.61806 0.89986 0.0
C5194 C 0.50384 0.6238 0.91235 0.0
C5195 C 0.49544 0.64398 0.91446 0.0
C5196 C 0.48084 0.65166 0.90914 0.0
H5197 H 0.51768 0.75023 0.95402 0.0
H5198 H 0.50709 0.72689 0.94158 0.0
C5199 C 0.47393 0.63875 0.90194 0.0
C5200 C 0.50223 0.65722 0.92219 0.0
H5201 H 0.47135 0.66731 0.93806 0.0
C5202 C 0.53125 0.6725 0.92459 0.0
C5203 C 0.48034 0.65502 0.92717 0.0
C5204 C 0.44862 0.63759 0.92515 0.0
C5205 C 0.53901 0.6862 0.93172 0.0
C5206 C 0.51715 0.68431 0.93665 0.0
C5207 C 0.48813 0.66887 0.93428 0.0
C5208 C 0.52389 0.69846 0.94425 0.0
C5209 C 0.57063 0.70321 0.93385 0.0
C5210 C 0.53658 0.69006 0.94995 0.0
C5211 C 0.54244 0.7032 0.95712 0.0
C5212 C 0.53566 0.72502 0.95877 0.0
C5213 C 0.52284 0.73326 0.95303 0.0
C5214 C 0.51692 0.72005 0.94588 0.0
H5215 H 0.58496 0.70821 0.92883 0.0
H5216 H 0.57577 0.72386 0.93669 0.0
H5217 H 0.57561 0.6903 0.93788 0.0
H5218 H 0.54162 0.67304 0.94889 0.0
H5219 H 0.55183 0.69586 0.96141 0.0
H5220 H 0.26258 0.42821 0.45456 0.0
H5221 H 0.2846 0.43701 0.44193 0.0
H5222 H 0.33386 0.52853 0.44671 0.0
H5223 H 0.31252 0.51988 0.4594 0.0
H5224 H 0.28249 0.47181 0.43023 0.0
H5225 H 0.39591 0.51064 0.43909 0.0
H5226 H 0.36557 0.49171 0.44546 0.0
H5227 H 0.37973 0.52954 0.44349 0.0
C5228 C 0.27841 0.45018 0.45297 0.0
C5229 C 0.28582 0.47331 0.45803 0.0
C5230 C 0.29083 0.45519 0.44572 0.0
C5231 C 0.31118 0.48339 0.44339 0.0
C5232 C 0.31859 0.50653 0.44841 0.0
H5233 H 0.40963 0.56425 0.40262 0.0
H5234 H 0.38722 0.55254 0.41517 0.0
C5235 C 0.30611 0.50156 0.45565 0.0
C5236 C 0.32404 0.48872 0.43563 0.0
H5237 H 0.38838 0.51667 0.4261 0.0
C5238 C 0.30562 0.48143 0.42932 0.0
C5239 C 0.35423 0.50133 0.43444 0.0
C5240 C 0.37504 0.50854 0.44097 0.0
C5241 C 0.31661 0.4871 0.42187 0.0
C5242 C 0.34685 0.49988 0.42067 0.0
C5243 C 0.36522 0.50692 0.42699 0.0
C5244 C 0.35998 0.50672 0.41294 0.0
C5245 C 0.2958 0.48018 0.41536 0.0
C5246 C 0.35239 0.48485 0.40748 0.0
C5247 C 0.365 0.49153 0.40024 0.0
C5248 C 0.38565 0.52025 0.3983 0.0
C5249 C 0.39342 0.542 0.40383 0.0
C5250 C 0.38079 0.53531 0.41105 0.0
H5251 H 0.27487 0.47783 0.41728 0.0
H5252 H 0.30518 0.49729 0.41094 0.0
H5253 H 0.29122 0.45937 0.41274 0.0
H5254 H 0.33685 0.46253 0.40883 0.0
H5255 H 0.35834 0.47421 0.39614 0.0
H5256 H 0.4683 0.82338 0.39716 0.0
H5257 H 0.48081 0.81448 0.40985 0.0
H5258 H 0.51075 0.90338 0.41595 0.0
H5259 H 0.49774 0.91233 0.40332 0.0
H5260 H 0.53539 0.84235 0.41728 0.0
H5261 H 0.45345 0.85714 0.43307 0.0
H5262 H 0.45174 0.85173 0.42293 0.0
H5263 H 0.47658 0.88655 0.42689 0.0
C5264 C 0.47729 0.84099 0.40122 0.0
C5265 C 0.48183 0.86854 0.39922 0.0
C5266 C 0.4846 0.8359 0.40846 0.0
C5267 C 0.49634 0.85814 0.41389 0.0
C5268 C 0.50128 0.88576 0.41189 0.0
H5269 H 0.54719 0.86306 0.4613 0.0
H5270 H 0.53761 0.87522 0.44864 0.0
C5271 C 0.4941 0.89091 0.40464 0.0
C5272 C 0.50371 0.85246 0.42161 0.0
H5273 H 0.48694 0.85069 0.4404 0.0
C5274 C 0.52477 0.84412 0.42234 0.0
C5275 C 0.48995 0.8549 0.42822 0.0
C5276 C 0.46649 0.86283 0.42778 0.0
C5277 C 0.53263 0.83844 0.42948 0.0
C5278 C 0.51859 0.84051 0.43608 0.0
C5279 C 0.49771 0.8491 0.43536 0.0
C5280 C 0.52478 0.83322 0.44376 0.0
C5281 C 0.55632 0.83083 0.42989 0.0
C5282 C 0.52045 0.80547 0.44529 0.0
C5283 C 0.52613 0.79853 0.4525 0.0
C5284 C 0.53601 0.81908 0.45841 0.0
C5285 C 0.54001 0.8468 0.45689 0.0
C5286 C 0.53435 0.85374 0.44965 0.0
H5287 H 0.57049 0.83851 0.42479 0.0
H5288 H 0.56996 0.84032 0.43501 0.0
H5289 H 0.5464 0.80692 0.43017 0.0
H5290 H 0.51252 0.78905 0.4409 0.0
H5291 H 0.52307 0.77708 0.45342 0.0
H5292 H 0.2263 0.71188 0.45761 0.0
H5293 H 0.21285 0.69055 0.44494 0.0
H5294 H 0.14874 0.71708 0.4434 0.0
H5295 H 0.16265 0.73927 0.45598 0.0
H5296 H 0.15972 0.64693 0.43956 0.0
H5297 H 0.19472 0.74935 0.42378 0.0
H5298 H 0.20522 0.74879 0.43348 0.0
H5299 H 0.16965 0.74278 0.43136 0.0
C5300 C 0.20956 0.71351 0.45455 0.0
C5301 C 0.19577 0.72758 0.45782 0.0
C5302 C 0.20175 0.7011 0.44732 0.0
C5303 C 0.1801 0.70259 0.44315 0.0
C5304 C 0.1659 0.71613 0.44643 0.0
H5305 H 0.108 0.64083 0.39791 0.0
H5306 H 0.11865 0.66194 0.41066 0.0
C5307 C 0.17366 0.72852 0.45368 0.0
C5308 C 0.17222 0.68959 0.43541 0.0
H5309 H 0.17012 0.70579 0.41673 0.0
C5310 C 0.16205 0.65982 0.43457 0.0
C5311 C 0.17516 0.70637 0.42889 0.0
C5312 C 0.18701 0.73864 0.42938 0.0
C5313 C 0.1545 0.64633 0.42741 0.0
C5314 C 0.15773 0.66316 0.42088 0.0
C5315 C 0.16764 0.69288 0.42173 0.0
C5316 C 0.15136 0.65039 0.41311 0.0
C5317 C 0.14263 0.61405 0.42694 0.0
C5318 C 0.16649 0.63725 0.41017 0.0
C5319 C 0.16034 0.62501 0.40291 0.0
C5320 C 0.13902 0.62578 0.39836 0.0
C5321 C 0.12424 0.63943 0.40127 0.0
C5322 C 0.13043 0.65169 0.40855 0.0
H5323 H 0.13385 0.60328 0.43248 0.0
H5324 H 0.12521 0.60399 0.42262 0.0
H5325 H 0.16032 0.60988 0.4253 0.0
H5326 H 0.18314 0.63646 0.41351 0.0
H5327 H 0.17199 0.61448 0.40091 0.0
loop_
_geom_bond_atom_site_label_1
_geom_bond_atom_site_label_2
_geom_bond_distance
_geom_bond_site_symmetry_2
_ccdc_geom_bond_type
Sm0 C2 2.846 . S
Sm0 O20 2.543 . S
Sm0 O21 2.450 . S
Sm0 O22 2.681 . S
Sm0 O23 2.464 . S
Sm0 O24 2.396 . S
Sm0 O28 2.386 . S
Sm0 O31 2.408 . S
Sm1 C11 2.846 . S
Sm1 O22 2.386 . S
Sm1 O25 2.408 . S
Sm1 O26 2.543 . S
Sm1 O27 2.450 . S
Sm1 O28 2.681 . S
Sm1 O29 2.464 . S
Sm1 O30 2.396 . S
C2 Sm0 2.846 . S
C2 C3 1.506 . S
C2 O20 1.261 . S
C2 O21 1.242 . S
C3 C2 1.506 . S
C3 C4 1.358 . S
C3 C8 1.382 . S
C4 C3 1.358 . S
C4 C5 1.385 . S
C4 H32 0.930 . S
C5 C4 1.385 . S
C5 C6 1.395 . S
C5 H33 0.929 . S
C6 C5 1.395 . S
C6 C7 1.335 . S
C7 C6 1.335 . S
C7 C8 1.398 . S
C7 H34 0.930 . S
C8 C3 1.382 . S
C8 C7 1.398 . S
C8 H35 0.929 . S
C9 O22 1.271 . S
C9 O23 1.251 . S
C10 O24 1.252 . S
C10 O25 1.272 . S
C11 Sm1 2.846 . S
C11 C12 1.506 . S
C11 O26 1.261 . S
C11 O27 1.242 . S
C12 C11 1.506 . S
C12 C13 1.358 . S
C12 C17 1.382 . S
C13 C12 1.358 . S
C13 C14 1.385 . S
C13 H36 0.930 . S
C14 C13 1.385 . S
C14 C15 1.395 . S
C14 H37 0.929 . S
C15 C14 1.395 . S
C15 C16 1.335 . S
C16 C15 1.335 . S
C16 C17 1.398 . S
C16 H38 0.930 . S
C17 C12 1.382 . S
C17 C16 1.398 . S
C17 H39 0.929 . S
C18 O28 1.271 . S
C18 O29 1.251 . S
C19 O30 1.252 . S
C19 O31 1.272 . S
O20 Sm0 2.543 . S
O20 C2 1.261 . S
O21 Sm0 2.450 . S
O21 C2 1.242 . S
O22 Sm0 2.681 . S
O22 Sm1 2.386 . S
O22 C9 1.271 . S
O23 Sm0 2.464 . S
O23 C9 1.251 . S
O24 Sm0 2.396 . S
O24 C10 1.252 . S
O25 Sm1 2.408 . S
O25 C10 1.272 . S
O26 Sm1 2.543 . S
O26 C11 1.261 . S
O27 Sm1 2.450 . S
O27 C11 1.242 . S
O28 Sm0 2.386 . S
O28 Sm1 2.681 . S
O28 C18 1.271 . S
O29 Sm1 2.464 . S
O29 C18 1.251 . S
O30 Sm1 2.396 . S
O30 C19 1.252 . S
O31 Sm0 2.408 . S
O31 C19 1.272 . S
H32 C4 0.930 . S
H33 C5 0.929 . S
H34 C7 0.930 . S
H35 C8 0.929 . S
H36 C13 0.930 . S
H37 C14 0.929 . S
H38 C16 0.930 . S
H39 C17 0.929 . S
Sm40 C42 2.846 . S
Sm40 O60 2.543 . S
Sm40 O61 2.450 . S
Sm40 O62 2.681 . S
Sm40 O63 2.464 . S
Sm40 O64 2.396 . S
Sm40 O68 2.386 . S
Sm40 O71 2.408 . S
Sm41 C51 2.846 . S
Sm41 O62 2.386 . S
Sm41 O65 2.408 . S
Sm41 O66 2.543 . S
Sm41 O67 2.450 . S
Sm41 O68 2.681 . S
Sm41 O69 2.464 . S
Sm41 O70 2.396 . S
C42 Sm40 2.846 . S
C42 C43 1.506 . S
C42 O60 1.261 . S
C42 O61 1.242 . S
C43 C42 1.506 . S
C43 C44 1.358 . S
C43 C48 1.382 . S
C44 C43 1.358 . S
C44 C45 1.385 . S
C44 H72 0.930 . S
C45 C44 1.385 . S
C45 C46 1.395 . S
C45 H73 0.929 . S
C46 C45 1.395 . S
C46 C47 1.335 . S
C47 C46 1.335 . S
C47 C48 1.398 . S
C47 H74 0.930 . S
C48 C43 1.382 . S
C48 C47 1.398 . S
C48 H75 0.929 . S
C49 O62 1.271 . S
C49 O63 1.251 . S
C50 O64 1.252 . S
C50 O65 1.272 . S
C51 Sm41 2.846 . S
C51 C52 1.506 . S
C51 O66 1.261 . S
C51 O67 1.242 . S
C52 C51 1.506 . S
C52 C53 1.358 . S
C52 C57 1.382 . S
C53 C52 1.358 . S
C53 C54 1.385 . S
C53 H76 0.930 . S
C54 C53 1.385 . S
C54 C55 1.395 . S
C54 H77 0.929 . S
C55 C54 1.395 . S
C55 C56 1.335 . S
C56 C55 1.335 . S
C56 C57 1.398 . S
C56 H78 0.930 . S
C57 C52 1.382 . S
C57 C56 1.398 . S
C57 H79 0.929 . S
C58 O68 1.271 . S
C58 O69 1.251 . S
C59 O70 1.252 . S
C59 O71 1.272 . S
O60 Sm40 2.543 . S
O60 C42 1.261 . S
O61 Sm40 2.450 . S
O61 C42 1.242 . S
O62 Sm40 2.681 . S
O62 Sm41 2.386 . S
O62 C49 1.271 . S
O63 Sm40 2.464 . S
O63 C49 1.251 . S
O64 Sm40 2.396 . S
O64 C50 1.252 . S
O65 Sm41 2.408 . S
O65 C50 1.272 . S
O66 Sm41 2.543 . S
O66 C51 1.261 . S
O67 Sm41 2.450 . S
O67 C51 1.242 . S
O68 Sm40 2.386 . S
O68 Sm41 2.681 . S
O68 C58 1.271 . S
O69 Sm41 2.464 . S
O69 C58 1.251 . S
O70 Sm41 2.396 . S
O70 C59 1.252 . S
O71 Sm40 2.408 . S
O71 C59 1.272 . S
H72 C44 0.930 . S
H73 C45 0.929 . S
H74 C47 0.930 . S
H75 C48 0.929 . S
H76 C53 0.930 . S
H77 C54 0.929 . S
H78 C56 0.930 . S
H79 C57 0.929 . S
Sm80 C82 2.846 . S
Sm80 O100 2.543 . S
Sm80 O101 2.450 . S
Sm80 O102 2.681 . S
Sm80 O103 2.464 . S
Sm80 O104 2.396 . S
Sm80 O108 2.386 . S
Sm80 O111 2.408 . S
Sm81 C91 2.846 . S
Sm81 O102 2.386 . S
Sm81 O105 2.408 . S
Sm81 O106 2.543 . S
Sm81 O107 2.450 . S
Sm81 O108 2.681 . S
Sm81 O109 2.464 . S
Sm81 O110 2.396 . S
C82 Sm80 2.846 . S
C82 C83 1.506 . S
C82 O100 1.261 . S
C82 O101 1.242 . S
C83 C82 1.506 . S
C83 C84 1.358 . S
C83 C88 1.382 . S
C84 C83 1.358 . S
C84 C85 1.385 . S
C84 H112 0.930 . S
C85 C84 1.385 . S
C85 C86 1.395 . S
C85 H113 0.929 . S
C86 C85 1.395 . S
C86 C87 1.335 . S
C87 C86 1.335 . S
C87 C88 1.398 . S
C87 H114 0.930 . S
C88 C83 1.382 . S
C88 C87 1.398 . S
C88 H115 0.929 . S
C89 O102 1.271 . S
C89 O103 1.251 . S
C90 O104 1.252 . S
C90 O105 1.272 . S
C91 Sm81 2.846 . S
C91 C92 1.506 . S
C91 O106 1.261 . S
C91 O107 1.242 . S
C92 C91 1.506 . S
C92 C93 1.358 . S
C92 C97 1.382 . S
C93 C92 1.358 . S
C93 C94 1.385 . S
C93 H116 0.930 . S
C94 C93 1.385 . S
C94 C95 1.395 . S
C94 H117 0.929 . S
C95 C94 1.395 . S
C95 C96 1.335 . S
C96 C95 1.335 . S
C96 C97 1.398 . S
C96 H118 0.930 . S
C97 C92 1.382 . S
C97 C96 1.398 . S
C97 H119 0.929 . S
C98 O108 1.271 . S
C98 O109 1.251 . S
C99 O110 1.252 . S
C99 O111 1.272 . S
O100 Sm80 2.543 . S
O100 C82 1.261 . S
O101 Sm80 2.450 . S
O101 C82 1.242 . S
O102 Sm80 2.681 . S
O102 Sm81 2.386 . S
O102 C89 1.271 . S
O103 Sm80 2.464 . S
O103 C89 1.251 . S
O104 Sm80 2.396 . S
O104 C90 1.252 . S
O105 Sm81 2.408 . S
O105 C90 1.272 . S
O106 Sm81 2.543 . S
O106 C91 1.261 . S
O107 Sm81 2.450 . S
O107 C91 1.242 . S
O108 Sm80 2.386 . S
O108 Sm81 2.681 . S
O108 C98 1.271 . S
O109 Sm81 2.464 . S
O109 C98 1.251 . S
O110 Sm81 2.396 . S
O110 C99 1.252 . S
O111 Sm80 2.408 . S
O111 C99 1.272 . S
H112 C84 0.930 . S
H113 C85 0.929 . S
H114 C87 0.930 . S
H115 C88 0.929 . S
H116 C93 0.930 . S
H117 C94 0.929 . S
H118 C96 0.930 . S
H119 C97 0.929 . S
Sm120 C122 2.846 . S
Sm120 O140 2.543 . S
Sm120 O141 2.450 . S
Sm120 O142 2.681 . S
Sm120 O143 2.464 . S
Sm120 O144 2.396 . S
Sm120 O148 2.386 . S
Sm120 O151 2.408 . S
Sm121 C131 2.846 . S
Sm121 O142 2.386 . S
Sm121 O145 2.408 . S
Sm121 O146 2.543 . S
Sm121 O147 2.450 . S
Sm121 O148 2.681 . S
Sm121 O149 2.464 . S
Sm121 O150 2.396 . S
C122 Sm120 2.846 . S
C122 C123 1.506 . S
C122 O140 1.261 . S
C122 O141 1.242 . S
C123 C122 1.506 . S
C123 C124 1.358 . S
C123 C128 1.382 . S
C124 C123 1.358 . S
C124 C125 1.385 . S
C124 H152 0.930 . S
C125 C124 1.385 . S
C125 C126 1.395 . S
C125 H153 0.929 . S
C126 C125 1.395 . S
C126 C127 1.335 . S
C127 C126 1.335 . S
C127 C128 1.398 . S
C127 H154 0.930 . S
C128 C123 1.382 . S
C128 C127 1.398 . S
C128 H155 0.929 . S
C129 O142 1.271 . S
C129 O143 1.251 . S
C130 O144 1.252 . S
C130 O145 1.272 . S
C131 Sm121 2.846 . S
C131 C132 1.506 . S
C131 O146 1.261 . S
C131 O147 1.242 . S
C132 C131 1.506 . S
C132 C133 1.358 . S
C132 C137 1.382 . S
C133 C132 1.358 . S
C133 C134 1.385 . S
C133 H156 0.930 . S
C134 C133 1.385 . S
C134 C135 1.395 . S
C134 H157 0.929 . S
C135 C134 1.395 . S
C135 C136 1.335 . S
C136 C135 1.335 . S
C136 C137 1.398 . S
C136 H158 0.930 . S
C137 C132 1.382 . S
C137 C136 1.398 . S
C137 H159 0.929 . S
C138 O148 1.271 . S
C138 O149 1.251 . S
C139 O150 1.252 . S
C139 O151 1.272 . S
O140 Sm120 2.543 . S
O140 C122 1.261 . S
O141 Sm120 2.450 . S
O141 C122 1.242 . S
O142 Sm120 2.681 . S
O142 Sm121 2.386 . S
O142 C129 1.271 . S
O143 Sm120 2.464 . S
O143 C129 1.251 . S
O144 Sm120 2.396 . S
O144 C130 1.252 . S
O145 Sm121 2.408 . S
O145 C130 1.272 . S
O146 Sm121 2.543 . S
O146 C131 1.261 . S
O147 Sm121 2.450 . S
O147 C131 1.242 . S
O148 Sm120 2.386 . S
O148 Sm121 2.681 . S
O148 C138 1.271 . S
O149 Sm121 2.464 . S
O149 C138 1.251 . S
O150 Sm121 2.396 . S
O150 C139 1.252 . S
O151 Sm120 2.408 . S
O151 C139 1.272 . S
H152 C124 0.930 . S
H153 C125 0.929 . S
H154 C127 0.930 . S
H155 C128 0.929 . S
H156 C133 0.930 . S
H157 C134 0.929 . S
H158 C136 0.930 . S
H159 C137 0.929 . S
Sm160 C162 2.846 . S
Sm160 O180 2.543 . S
Sm160 O181 2.450 . S
Sm160 O182 2.681 . S
Sm160 O183 2.464 . S
Sm160 O184 2.396 . S
Sm160 O188 2.386 . S
Sm160 O191 2.408 . S
Sm161 C171 2.846 . S
Sm161 O182 2.386 . S
Sm161 O185 2.408 . S
Sm161 O186 2.543 . S
Sm161 O187 2.450 . S
Sm161 O188 2.681 . S
Sm161 O189 2.464 . S
Sm161 O190 2.396 . S
C162 Sm160 2.846 . S
C162 C163 1.506 . S
C162 O180 1.261 . S
C162 O181 1.242 . S
C163 C162 1.506 . S
C163 C164 1.358 . S
C163 C168 1.382 . S
C164 C163 1.358 . S
C164 C165 1.385 . S
C164 H192 0.930 . S
C165 C164 1.385 . S
C165 C166 1.395 . S
C165 H193 0.929 . S
C166 C165 1.395 . S
C166 C167 1.335 . S
C167 C166 1.335 . S
C167 C168 1.398 . S
C167 H194 0.930 . S
C168 C163 1.382 . S
C168 C167 1.398 . S
C168 H195 0.929 . S
C169 O182 1.271 . S
C169 O183 1.251 . S
C170 O184 1.252 . S
C170 O185 1.272 . S
C171 Sm161 2.846 . S
C171 C172 1.506 . S
C171 O186 1.261 . S
C171 O187 1.242 . S
C172 C171 1.506 . S
C172 C173 1.358 . S
C172 C177 1.382 . S
C173 C172 1.358 . S
C173 C174 1.385 . S
C173 H196 0.930 . S
C174 C173 1.385 . S
C174 C175 1.395 . S
C174 H197 0.929 . S
C175 C174 1.395 . S
C175 C176 1.335 . S
C176 C175 1.335 . S
C176 C177 1.398 . S
C176 H198 0.930 . S
C177 C172 1.382 . S
C177 C176 1.398 . S
C177 H199 0.929 . S
C178 O188 1.271 . S
C178 O189 1.251 . S
C179 O190 1.252 . S
C179 O191 1.272 . S
O180 Sm160 2.543 . S
O180 C162 1.261 . S
O181 Sm160 2.450 . S
O181 C162 1.242 . S
O182 Sm160 2.681 . S
O182 Sm161 2.386 . S
O182 C169 1.271 . S
O183 Sm160 2.464 . S
O183 C169 1.251 . S
O184 Sm160 2.396 . S
O184 C170 1.252 . S
O185 Sm161 2.408 . S
O185 C170 1.272 . S
O186 Sm161 2.543 . S
O186 C171 1.261 . S
O187 Sm161 2.450 . S
O187 C171 1.242 . S
O188 Sm160 2.386 . S
O188 Sm161 2.681 . S
O188 C178 1.271 . S
O189 Sm161 2.464 . S
O189 C178 1.251 . S
O190 Sm161 2.396 . S
O190 C179 1.252 . S
O191 Sm160 2.408 . S
O191 C179 1.272 . S
H192 C164 0.930 . S
H193 C165 0.929 . S
H194 C167 0.930 . S
H195 C168 0.929 . S
H196 C173 0.930 . S
H197 C174 0.929 . S
H198 C176 0.930 . S
H199 C177 0.929 . S
Sm200 C202 2.846 . S
Sm200 O220 2.543 . S
Sm200 O221 2.450 . S
Sm200 O222 2.681 . S
Sm200 O223 2.464 . S
Sm200 O224 2.396 . S
Sm200 O228 2.386 . S
Sm200 O231 2.408 . S
Sm201 C211 2.846 . S
Sm201 O222 2.386 . S
Sm201 O225 2.408 . S
Sm201 O226 2.543 . S
Sm201 O227 2.450 . S
Sm201 O228 2.681 . S
Sm201 O229 2.464 . S
Sm201 O230 2.396 . S
C202 Sm200 2.846 . S
C202 C203 1.506 . S
C202 O220 1.261 . S
C202 O221 1.242 . S
C203 C202 1.506 . S
C203 C204 1.358 . S
C203 C208 1.382 . S
C204 C203 1.358 . S
C204 C205 1.385 . S
C204 H232 0.930 . S
C205 C204 1.385 . S
C205 C206 1.395 . S
C205 H233 0.929 . S
C206 C205 1.395 . S
C206 C207 1.335 . S
C207 C206 1.335 . S
C207 C208 1.398 . S
C207 H234 0.930 . S
C208 C203 1.382 . S
C208 C207 1.398 . S
C208 H235 0.929 . S
C209 O222 1.271 . S
C209 O223 1.251 . S
C210 O224 1.252 . S
C210 O225 1.272 . S
C211 Sm201 2.846 . S
C211 C212 1.506 . S
C211 O226 1.261 . S
C211 O227 1.242 . S
C212 C211 1.506 . S
C212 C213 1.358 . S
C212 C217 1.382 . S
C213 C212 1.358 . S
C213 C214 1.385 . S
C213 H236 0.930 . S
C214 C213 1.385 . S
C214 C215 1.395 . S
C214 H237 0.929 . S
C215 C214 1.395 . S
C215 C216 1.335 . S
C216 C215 1.335 . S
C216 C217 1.398 . S
C216 H238 0.930 . S
C217 C212 1.382 . S
C217 C216 1.398 . S
C217 H239 0.929 . S
C218 O228 1.271 . S
C218 O229 1.251 . S
C219 O230 1.252 . S
C219 O231 1.272 . S
O220 Sm200 2.543 . S
O220 C202 1.261 . S
O221 Sm200 2.450 . S
O221 C202 1.242 . S
O222 Sm200 2.681 . S
O222 Sm201 2.386 . S
O222 C209 1.271 . S
O223 Sm200 2.464 . S
O223 C209 1.251 . S
O224 Sm200 2.396 . S
O224 C210 1.252 . S
O225 Sm201 2.408 . S
O225 C210 1.272 . S
O226 Sm201 2.543 . S
O226 C211 1.261 . S
O227 Sm201 2.450 . S
O227 C211 1.242 . S
O228 Sm200 2.386 . S
O228 Sm201 2.681 . S
O228 C218 1.271 . S
O229 Sm201 2.464 . S
O229 C218 1.251 . S
O230 Sm201 2.396 . S
O230 C219 1.252 . S
O231 Sm200 2.408 . S
O231 C219 1.272 . S
H232 C204 0.930 . S
H233 C205 0.929 . S
H234 C207 0.930 . S
H235 C208 0.929 . S
H236 C213 0.930 . S
H237 C214 0.929 . S
H238 C216 0.930 . S
H239 C217 0.929 . S
Sm240 C242 2.846 . S
Sm240 O260 2.543 . S
Sm240 O261 2.450 . S
Sm240 O262 2.681 . S
Sm240 O263 2.464 . S
Sm240 O264 2.396 . S
Sm240 O268 2.386 . S
Sm240 O271 2.408 . S
Sm241 C251 2.846 . S
Sm241 O262 2.386 . S
Sm241 O265 2.408 . S
Sm241 O266 2.543 . S
Sm241 O267 2.450 . S
Sm241 O268 2.681 . S
Sm241 O269 2.464 . S
Sm241 O270 2.396 . S
C242 Sm240 2.846 . S
C242 C243 1.506 . S
C242 O260 1.261 . S
C242 O261 1.242 . S
C243 C242 1.506 . S
C243 C244 1.358 . S
C243 C248 1.382 . S
C244 C243 1.358 . S
C244 C245 1.385 . S
C244 H272 0.930 . S
C245 C244 1.385 . S
C245 C246 1.395 . S
C245 H273 0.929 . S
C246 C245 1.395 . S
C246 C247 1.335 . S
C247 C246 1.335 . S
C247 C248 1.398 . S
C247 H274 0.930 . S
C248 C243 1.382 . S
C248 C247 1.398 . S
C248 H275 0.929 . S
C249 O262 1.271 . S
C249 O263 1.251 . S
C250 O264 1.252 . S
C250 O265 1.272 . S
C251 Sm241 2.846 . S
C251 C252 1.506 . S
C251 O266 1.261 . S
C251 O267 1.242 . S
C252 C251 1.506 . S
C252 C253 1.358 . S
C252 C257 1.382 . S
C253 C252 1.358 . S
C253 C254 1.385 . S
C253 H276 0.930 . S
C254 C253 1.385 . S
C254 C255 1.395 . S
C254 H277 0.929 . S
C255 C254 1.395 . S
C255 C256 1.335 . S
C256 C255 1.335 . S
C256 C257 1.398 . S
C256 H278 0.930 . S
C257 C252 1.382 . S
C257 C256 1.398 . S
C257 H279 0.929 . S
C258 O268 1.271 . S
C258 O269 1.251 . S
C259 O270 1.252 . S
C259 O271 1.272 . S
O260 Sm240 2.543 . S
O260 C242 1.261 . S
O261 Sm240 2.450 . S
O261 C242 1.242 . S
O262 Sm240 2.681 . S
O262 Sm241 2.386 . S
O262 C249 1.271 . S
O263 Sm240 2.464 . S
O263 C249 1.251 . S
O264 Sm240 2.396 . S
O264 C250 1.252 . S
O265 Sm241 2.408 . S
O265 C250 1.272 . S
O266 Sm241 2.543 . S
O266 C251 1.261 . S
O267 Sm241 2.450 . S
O267 C251 1.242 . S
O268 Sm240 2.386 . S
O268 Sm241 2.681 . S
O268 C258 1.271 . S
O269 Sm241 2.464 . S
O269 C258 1.251 . S
O270 Sm241 2.396 . S
O270 C259 1.252 . S
O271 Sm240 2.408 . S
O271 C259 1.272 . S
H272 C244 0.930 . S
H273 C245 0.929 . S
H274 C247 0.930 . S
H275 C248 0.929 . S
H276 C253 0.930 . S
H277 C254 0.929 . S
H278 C256 0.930 . S
H279 C257 0.929 . S
Sm280 C282 2.846 . S
Sm280 O300 2.543 . S
Sm280 O301 2.450 . S
Sm280 O302 2.681 . S
Sm280 O303 2.464 . S
Sm280 O304 2.396 . S
Sm280 O308 2.386 . S
Sm280 O311 2.408 . S
Sm281 C291 2.846 . S
Sm281 O302 2.386 . S
Sm281 O305 2.408 . S
Sm281 O306 2.543 . S
Sm281 O307 2.450 . S
Sm281 O308 2.681 . S
Sm281 O309 2.464 . S
Sm281 O310 2.396 . S
C282 Sm280 2.846 . S
C282 C283 1.506 . S
C282 O300 1.261 . S
C282 O301 1.242 . S
C283 C282 1.506 . S
C283 C284 1.358 . S
C283 C288 1.382 . S
C284 C283 1.358 . S
C284 C285 1.385 . S
C284 H312 0.930 . S
C285 C284 1.385 . S
C285 C286 1.395 . S
C285 H313 0.929 . S
C286 C285 1.395 . S
C286 C287 1.335 . S
C287 C286 1.335 . S
C287 C288 1.398 . S
C287 H314 0.930 . S
C288 C283 1.382 . S
C288 C287 1.398 . S
C288 H315 0.929 . S
C289 O302 1.271 . S
C289 O303 1.251 . S
C290 O304 1.252 . S
C290 O305 1.272 . S
C291 Sm281 2.846 . S
C291 C292 1.506 . S
C291 O306 1.261 . S
C291 O307 1.242 . S
C292 C291 1.506 . S
C292 C293 1.358 . S
C292 C297 1.382 . S
C293 C292 1.358 . S
C293 C294 1.385 . S
C293 H316 0.930 . S
C294 C293 1.385 . S
C294 C295 1.395 . S
C294 H317 0.929 . S
C295 C294 1.395 . S
C295 C296 1.335 . S
C296 C295 1.335 . S
C296 C297 1.398 . S
C296 H318 0.930 . S
C297 C292 1.382 . S
C297 C296 1.398 . S
C297 H319 0.929 . S
C298 O308 1.271 . S
C298 O309 1.251 . S
C299 O310 1.252 . S
C299 O311 1.272 . S
O300 Sm280 2.543 . S
O300 C282 1.261 . S
O301 Sm280 2.450 . S
O301 C282 1.242 . S
O302 Sm280 2.681 . S
O302 Sm281 2.386 . S
O302 C289 1.271 . S
O303 Sm280 2.464 . S
O303 C289 1.251 . S
O304 Sm280 2.396 . S
O304 C290 1.252 . S
O305 Sm281 2.408 . S
O305 C290 1.272 . S
O306 Sm281 2.543 . S
O306 C291 1.261 . S
O307 Sm281 2.450 . S
O307 C291 1.242 . S
O308 Sm280 2.386 . S
O308 Sm281 2.681 . S
O308 C298 1.271 . S
O309 Sm281 2.464 . S
O309 C298 1.251 . S
O310 Sm281 2.396 . S
O310 C299 1.252 . S
O311 Sm280 2.408 . S
O311 C299 1.272 . S
H312 C284 0.930 . S
H313 C285 0.929 . S
H314 C287 0.930 . S
H315 C288 0.929 . S
H316 C293 0.930 . S
H317 C294 0.929 . S
H318 C296 0.930 . S
H319 C297 0.929 . S
Sm320 C322 2.846 . S
Sm320 O340 2.543 . S
Sm320 O341 2.450 . S
Sm320 O342 2.681 . S
Sm320 O343 2.464 . S
Sm320 O344 2.396 . S
Sm320 O348 2.386 . S
Sm320 O351 2.408 . S
Sm321 C331 2.846 . S
Sm321 O342 2.386 . S
Sm321 O345 2.408 . S
Sm321 O346 2.543 . S
Sm321 O347 2.450 . S
Sm321 O348 2.681 . S
Sm321 O349 2.464 . S
Sm321 O350 2.396 . S
C322 Sm320 2.846 . S
C322 C323 1.506 . S
C322 O340 1.261 . S
C322 O341 1.242 . S
C323 C322 1.506 . S
C323 C324 1.358 . S
C323 C328 1.382 . S
C324 C323 1.358 . S
C324 C325 1.385 . S
C324 H352 0.930 . S
C325 C324 1.385 . S
C325 C326 1.395 . S
C325 H353 0.929 . S
C326 C325 1.395 . S
C326 C327 1.335 . S
C327 C326 1.335 . S
C327 C328 1.398 . S
C327 H354 0.930 . S
C328 C323 1.382 . S
C328 C327 1.398 . S
C328 H355 0.929 . S
C329 O342 1.271 . S
C329 O343 1.251 . S
C330 O344 1.252 . S
C330 O345 1.272 . S
C331 Sm321 2.846 . S
C331 C332 1.506 . S
C331 O346 1.261 . S
C331 O347 1.242 . S
C332 C331 1.506 . S
C332 C333 1.358 . S
C332 C337 1.382 . S
C333 C332 1.358 . S
C333 C334 1.385 . S
C333 H356 0.930 . S
C334 C333 1.385 . S
C334 C335 1.395 . S
C334 H357 0.929 . S
C335 C334 1.395 . S
C335 C336 1.335 . S
C336 C335 1.335 . S
C336 C337 1.398 . S
C336 H358 0.930 . S
C337 C332 1.382 . S
C337 C336 1.398 . S
C337 H359 0.929 . S
C338 O348 1.271 . S
C338 O349 1.251 . S
C339 O350 1.252 . S
C339 O351 1.272 . S
O340 Sm320 2.543 . S
O340 C322 1.261 . S
O341 Sm320 2.450 . S
O341 C322 1.242 . S
O342 Sm320 2.681 . S
O342 Sm321 2.386 . S
O342 C329 1.271 . S
O343 Sm320 2.464 . S
O343 C329 1.251 . S
O344 Sm320 2.396 . S
O344 C330 1.252 . S
O345 Sm321 2.408 . S
O345 C330 1.272 . S
O346 Sm321 2.543 . S
O346 C331 1.261 . S
O347 Sm321 2.450 . S
O347 C331 1.242 . S
O348 Sm320 2.386 . S
O348 Sm321 2.681 . S
O348 C338 1.271 . S
O349 Sm321 2.464 . S
O349 C338 1.251 . S
O350 Sm321 2.396 . S
O350 C339 1.252 . S
O351 Sm320 2.408 . S
O351 C339 1.272 . S
H352 C324 0.930 . S
H353 C325 0.929 . S
H354 C327 0.930 . S
H355 C328 0.929 . S
H356 C333 0.930 . S
H357 C334 0.929 . S
H358 C336 0.930 . S
H359 C337 0.929 . S
Sm360 C362 2.846 . S
Sm360 O380 2.543 . S
Sm360 O381 2.450 . S
Sm360 O382 2.681 . S
Sm360 O383 2.464 . S
Sm360 O384 2.396 . S
Sm360 O388 2.386 . S
Sm360 O391 2.408 . S
Sm361 C371 2.846 . S
Sm361 O382 2.386 . S
Sm361 O385 2.408 . S
Sm361 O386 2.543 . S
Sm361 O387 2.450 . S
Sm361 O388 2.681 . S
Sm361 O389 2.464 . S
Sm361 O390 2.396 . S
C362 Sm360 2.846 . S
C362 C363 1.506 . S
C362 O380 1.261 . S
C362 O381 1.242 . S
C363 C362 1.506 . S
C363 C364 1.358 . S
C363 C368 1.382 . S
C364 C363 1.358 . S
C364 C365 1.385 . S
C364 H392 0.930 . S
C365 C364 1.385 . S
C365 C366 1.395 . S
C365 H393 0.929 . S
C366 C365 1.395 . S
C366 C367 1.335 . S
C367 C366 1.335 . S
C367 C368 1.398 . S
C367 H394 0.930 . S
C368 C363 1.382 . S
C368 C367 1.398 . S
C368 H395 0.929 . S
C369 O382 1.271 . S
C369 O383 1.251 . S
C370 O384 1.252 . S
C370 O385 1.272 . S
C371 Sm361 2.846 . S
C371 C372 1.506 . S
C371 O386 1.261 . S
C371 O387 1.242 . S
C372 C371 1.506 . S
C372 C373 1.358 . S
C372 C377 1.382 . S
C373 C372 1.358 . S
C373 C374 1.385 . S
C373 H396 0.930 . S
C374 C373 1.385 . S
C374 C375 1.395 . S
C374 H397 0.929 . S
C375 C374 1.395 . S
C375 C376 1.335 . S
C376 C375 1.335 . S
C376 C377 1.398 . S
C376 H398 0.930 . S
C377 C372 1.382 . S
C377 C376 1.398 . S
C377 H399 0.929 . S
C378 O388 1.271 . S
C378 O389 1.251 . S
C379 O390 1.252 . S
C379 O391 1.272 . S
O380 Sm360 2.543 . S
O380 C362 1.261 . S
O381 Sm360 2.450 . S
O381 C362 1.242 . S
O382 Sm360 2.681 . S
O382 Sm361 2.386 . S
O382 C369 1.271 . S
O383 Sm360 2.464 . S
O383 C369 1.251 . S
O384 Sm360 2.396 . S
O384 C370 1.252 . S
O385 Sm361 2.408 . S
O385 C370 1.272 . S
O386 Sm361 2.543 . S
O386 C371 1.261 . S
O387 Sm361 2.450 . S
O387 C371 1.242 . S
O388 Sm360 2.386 . S
O388 Sm361 2.681 . S
O388 C378 1.271 . S
O389 Sm361 2.464 . S
O389 C378 1.251 . S
O390 Sm361 2.396 . S
O390 C379 1.252 . S
O391 Sm360 2.408 . S
O391 C379 1.272 . S
H392 C364 0.930 . S
H393 C365 0.929 . S
H394 C367 0.930 . S
H395 C368 0.929 . S
H396 C373 0.930 . S
H397 C374 0.929 . S
H398 C376 0.930 . S
H399 C377 0.929 . S
Sm400 C402 2.846 . S
Sm400 O420 2.543 . S
Sm400 O421 2.450 . S
Sm400 O422 2.681 . S
Sm400 O423 2.464 . S
Sm400 O424 2.396 . S
Sm400 O428 2.386 . S
Sm400 O431 2.408 . S
Sm401 C411 2.846 . S
Sm401 O422 2.386 . S
Sm401 O425 2.408 . S
Sm401 O426 2.543 . S
Sm401 O427 2.450 . S
Sm401 O428 2.681 . S
Sm401 O429 2.464 . S
Sm401 O430 2.396 . S
C402 Sm400 2.846 . S
C402 C403 1.506 . S
C402 O420 1.261 . S
C402 O421 1.242 . S
C403 C402 1.506 . S
C403 C404 1.358 . S
C403 C408 1.382 . S
C404 C403 1.358 . S
C404 C405 1.385 . S
C404 H432 0.930 . S
C405 C404 1.385 . S
C405 C406 1.395 . S
C405 H433 0.929 . S
C406 C405 1.395 . S
C406 C407 1.335 . S
C407 C406 1.335 . S
C407 C408 1.398 . S
C407 H434 0.930 . S
C408 C403 1.382 . S
C408 C407 1.398 . S
C408 H435 0.929 . S
C409 O422 1.271 . S
C409 O423 1.251 . S
C410 O424 1.252 . S
C410 O425 1.272 . S
C411 Sm401 2.846 . S
C411 C412 1.506 . S
C411 O426 1.261 . S
C411 O427 1.242 . S
C412 C411 1.506 . S
C412 C413 1.358 . S
C412 C417 1.382 . S
C413 C412 1.358 . S
C413 C414 1.385 . S
C413 H436 0.930 . S
C414 C413 1.385 . S
C414 C415 1.395 . S
C414 H437 0.929 . S
C415 C414 1.395 . S
C415 C416 1.335 . S
C416 C415 1.335 . S
C416 C417 1.398 . S
C416 H438 0.930 . S
C417 C412 1.382 . S
C417 C416 1.398 . S
C417 H439 0.929 . S
C418 O428 1.271 . S
C418 O429 1.251 . S
C419 O430 1.252 . S
C419 O431 1.272 . S
O420 Sm400 2.543 . S
O420 C402 1.261 . S
O421 Sm400 2.450 . S
O421 C402 1.242 . S
O422 Sm400 2.681 . S
O422 Sm401 2.386 . S
O422 C409 1.271 . S
O423 Sm400 2.464 . S
O423 C409 1.251 . S
O424 Sm400 2.396 . S
O424 C410 1.252 . S
O425 Sm401 2.408 . S
O425 C410 1.272 . S
O426 Sm401 2.543 . S
O426 C411 1.261 . S
O427 Sm401 2.450 . S
O427 C411 1.242 . S
O428 Sm400 2.386 . S
O428 Sm401 2.681 . S
O428 C418 1.271 . S
O429 Sm401 2.464 . S
O429 C418 1.251 . S
O430 Sm401 2.396 . S
O430 C419 1.252 . S
O431 Sm400 2.408 . S
O431 C419 1.272 . S
H432 C404 0.930 . S
H433 C405 0.929 . S
H434 C407 0.930 . S
H435 C408 0.929 . S
H436 C413 0.930 . S
H437 C414 0.929 . S
H438 C416 0.930 . S
H439 C417 0.929 . S
Sm440 C442 2.846 . S
Sm440 O460 2.543 . S
Sm440 O461 2.450 . S
Sm440 O462 2.681 . S
Sm440 O463 2.464 . S
Sm440 O464 2.396 . S
Sm440 O468 2.386 . S
Sm440 O471 2.408 . S
Sm441 C451 2.846 . S
Sm441 O462 2.386 . S
Sm441 O465 2.408 . S
Sm441 O466 2.543 . S
Sm441 O467 2.450 . S
Sm441 O468 2.681 . S
Sm441 O469 2.464 . S
Sm441 O470 2.396 . S
C442 Sm440 2.846 . S
C442 C443 1.506 . S
C442 O460 1.261 . S
C442 O461 1.242 . S
C443 C442 1.506 . S
C443 C444 1.358 . S
C443 C448 1.382 . S
C444 C443 1.358 . S
C444 C445 1.385 . S
C444 H472 0.930 . S
C445 C444 1.385 . S
C445 C446 1.395 . S
C445 H473 0.929 . S
C446 C445 1.395 . S
C446 C447 1.335 . S
C447 C446 1.335 . S
C447 C448 1.398 . S
C447 H474 0.930 . S
C448 C443 1.382 . S
C448 C447 1.398 . S
C448 H475 0.929 . S
C449 O462 1.271 . S
C449 O463 1.251 . S
C450 O464 1.252 . S
C450 O465 1.272 . S
C451 Sm441 2.846 . S
C451 C452 1.506 . S
C451 O466 1.261 . S
C451 O467 1.242 . S
C452 C451 1.506 . S
C452 C453 1.358 . S
C452 C457 1.382 . S
C453 C452 1.358 . S
C453 C454 1.385 . S
C453 H476 0.930 . S
C454 C453 1.385 . S
C454 C455 1.395 . S
C454 H477 0.929 . S
C455 C454 1.395 . S
C455 C456 1.335 . S
C456 C455 1.335 . S
C456 C457 1.398 . S
C456 H478 0.930 . S
C457 C452 1.382 . S
C457 C456 1.398 . S
C457 H479 0.929 . S
C458 O468 1.271 . S
C458 O469 1.251 . S
C459 O470 1.252 . S
C459 O471 1.272 . S
O460 Sm440 2.543 . S
O460 C442 1.261 . S
O461 Sm440 2.450 . S
O461 C442 1.242 . S
O462 Sm440 2.681 . S
O462 Sm441 2.386 . S
O462 C449 1.271 . S
O463 Sm440 2.464 . S
O463 C449 1.251 . S
O464 Sm440 2.396 . S
O464 C450 1.252 . S
O465 Sm441 2.408 . S
O465 C450 1.272 . S
O466 Sm441 2.543 . S
O466 C451 1.261 . S
O467 Sm441 2.450 . S
O467 C451 1.242 . S
O468 Sm440 2.386 . S
O468 Sm441 2.681 . S
O468 C458 1.271 . S
O469 Sm441 2.464 . S
O469 C458 1.251 . S
O470 Sm441 2.396 . S
O470 C459 1.252 . S
O471 Sm440 2.408 . S
O471 C459 1.272 . S
H472 C444 0.930 . S
H473 C445 0.929 . S
H474 C447 0.930 . S
H475 C448 0.929 . S
H476 C453 0.930 . S
H477 C454 0.929 . S
H478 C456 0.930 . S
H479 C457 0.929 . S
Sm480 C482 2.846 . S
Sm480 O500 2.543 . S
Sm480 O501 2.450 . S
Sm480 O502 2.681 . S
Sm480 O503 2.464 . S
Sm480 O504 2.396 . S
Sm480 O508 2.386 . S
Sm480 O511 2.408 . S
Sm481 C491 2.846 . S
Sm481 O502 2.386 . S
Sm481 O505 2.408 . S
Sm481 O506 2.543 . S
Sm481 O507 2.450 . S
Sm481 O508 2.681 . S
Sm481 O509 2.464 . S
Sm481 O510 2.396 . S
C482 Sm480 2.846 . S
C482 C483 1.506 . S
C482 O500 1.261 . S
C482 O501 1.242 . S
C483 C482 1.506 . S
C483 C484 1.358 . S
C483 C488 1.382 . S
C484 C483 1.358 . S
C484 C485 1.385 . S
C484 H512 0.930 . S
C485 C484 1.385 . S
C485 C486 1.395 . S
C485 H513 0.929 . S
C486 C485 1.395 . S
C486 C487 1.335 . S
C487 C486 1.335 . S
C487 C488 1.398 . S
C487 H514 0.930 . S
C488 C483 1.382 . S
C488 C487 1.398 . S
C488 H515 0.929 . S
C489 O502 1.271 . S
C489 O503 1.251 . S
C490 O504 1.252 . S
C490 O505 1.272 . S
C491 Sm481 2.846 . S
C491 C492 1.506 . S
C491 O506 1.261 . S
C491 O507 1.242 . S
C492 C491 1.506 . S
C492 C493 1.358 . S
C492 C497 1.382 . S
C493 C492 1.358 . S
C493 C494 1.385 . S
C493 H516 0.930 . S
C494 C493 1.385 . S
C494 C495 1.395 . S
C494 H517 0.929 . S
C495 C494 1.395 . S
C495 C496 1.335 . S
C496 C495 1.335 . S
C496 C497 1.398 . S
C496 H518 0.930 . S
C497 C492 1.382 . S
C497 C496 1.398 . S
C497 H519 0.929 . S
C498 O508 1.271 . S
C498 O509 1.251 . S
C499 O510 1.252 . S
C499 O511 1.272 . S
O500 Sm480 2.543 . S
O500 C482 1.261 . S
O501 Sm480 2.450 . S
O501 C482 1.242 . S
O502 Sm480 2.681 . S
O502 Sm481 2.386 . S
O502 C489 1.271 . S
O503 Sm480 2.464 . S
O503 C489 1.251 . S
O504 Sm480 2.396 . S
O504 C490 1.252 . S
O505 Sm481 2.408 . S
O505 C490 1.272 . S
O506 Sm481 2.543 . S
O506 C491 1.261 . S
O507 Sm481 2.450 . S
O507 C491 1.242 . S
O508 Sm480 2.386 . S
O508 Sm481 2.681 . S
O508 C498 1.271 . S
O509 Sm481 2.464 . S
O509 C498 1.251 . S
O510 Sm481 2.396 . S
O510 C499 1.252 . S
O511 Sm480 2.408 . S
O511 C499 1.272 . S
H512 C484 0.930 . S
H513 C485 0.929 . S
H514 C487 0.930 . S
H515 C488 0.929 . S
H516 C493 0.930 . S
H517 C494 0.929 . S
H518 C496 0.930 . S
H519 C497 0.929 . S
Sm520 C522 2.846 . S
Sm520 O540 2.543 . S
Sm520 O541 2.450 . S
Sm520 O542 2.681 . S
Sm520 O543 2.464 . S
Sm520 O544 2.396 . S
Sm520 O548 2.386 . S
Sm520 O551 2.408 . S
Sm521 C531 2.846 . S
Sm521 O542 2.386 . S
Sm521 O545 2.408 . S
Sm521 O546 2.543 . S
Sm521 O547 2.450 . S
Sm521 O548 2.681 . S
Sm521 O549 2.464 . S
Sm521 O550 2.396 . S
C522 Sm520 2.846 . S
C522 C523 1.506 . S
C522 O540 1.261 . S
C522 O541 1.242 . S
C523 C522 1.506 . S
C523 C524 1.358 . S
C523 C528 1.382 . S
C524 C523 1.358 . S
C524 C525 1.385 . S
C524 H552 0.930 . S
C525 C524 1.385 . S
C525 C526 1.395 . S
C525 H553 0.929 . S
C526 C525 1.395 . S
C526 C527 1.335 . S
C527 C526 1.335 . S
C527 C528 1.398 . S
C527 H554 0.930 . S
C528 C523 1.382 . S
C528 C527 1.398 . S
C528 H555 0.929 . S
C529 O542 1.271 . S
C529 O543 1.251 . S
C530 O544 1.252 . S
C530 O545 1.272 . S
C531 Sm521 2.846 . S
C531 C532 1.506 . S
C531 O546 1.261 . S
C531 O547 1.242 . S
C532 C531 1.506 . S
C532 C533 1.358 . S
C532 C537 1.382 . S
C533 C532 1.358 . S
C533 C534 1.385 . S
C533 H556 0.930 . S
C534 C533 1.385 . S
C534 C535 1.395 . S
C534 H557 0.929 . S
C535 C534 1.395 . S
C535 C536 1.335 . S
C536 C535 1.335 . S
C536 C537 1.398 . S
C536 H558 0.930 . S
C537 C532 1.382 . S
C537 C536 1.398 . S
C537 H559 0.929 . S
C538 O548 1.271 . S
C538 O549 1.251 . S
C539 O550 1.252 . S
C539 O551 1.272 . S
O540 Sm520 2.543 . S
O540 C522 1.261 . S
O541 Sm520 2.450 . S
O541 C522 1.242 . S
O542 Sm520 2.681 . S
O542 Sm521 2.386 . S
O542 C529 1.271 . S
O543 Sm520 2.464 . S
O543 C529 1.251 . S
O544 Sm520 2.396 . S
O544 C530 1.252 . S
O545 Sm521 2.408 . S
O545 C530 1.272 . S
O546 Sm521 2.543 . S
O546 C531 1.261 . S
O547 Sm521 2.450 . S
O547 C531 1.242 . S
O548 Sm520 2.386 . S
O548 Sm521 2.681 . S
O548 C538 1.271 . S
O549 Sm521 2.464 . S
O549 C538 1.251 . S
O550 Sm521 2.396 . S
O550 C539 1.252 . S
O551 Sm520 2.408 . S
O551 C539 1.272 . S
H552 C524 0.930 . S
H553 C525 0.929 . S
H554 C527 0.930 . S
H555 C528 0.929 . S
H556 C533 0.930 . S
H557 C534 0.929 . S
H558 C536 0.930 . S
H559 C537 0.929 . S
Sm560 C562 2.846 . S
Sm560 O580 2.543 . S
Sm560 O581 2.450 . S
Sm560 O582 2.681 . S
Sm560 O583 2.464 . S
Sm560 O584 2.396 . S
Sm560 O588 2.386 . S
Sm560 O591 2.408 . S
Sm561 C571 2.846 . S
Sm561 O582 2.386 . S
Sm561 O585 2.408 . S
Sm561 O586 2.543 . S
Sm561 O587 2.450 . S
Sm561 O588 2.681 . S
Sm561 O589 2.464 . S
Sm561 O590 2.396 . S
C562 Sm560 2.846 . S
C562 C563 1.506 . S
C562 O580 1.261 . S
C562 O581 1.242 . S
C563 C562 1.506 . S
C563 C564 1.358 . S
C563 C568 1.382 . S
C564 C563 1.358 . S
C564 C565 1.385 . S
C564 H592 0.930 . S
C565 C564 1.385 . S
C565 C566 1.395 . S
C565 H593 0.929 . S
C566 C565 1.395 . S
C566 C567 1.335 . S
C567 C566 1.335 . S
C567 C568 1.398 . S
C567 H594 0.930 . S
C568 C563 1.382 . S
C568 C567 1.398 . S
C568 H595 0.929 . S
C569 O582 1.271 . S
C569 O583 1.251 . S
C570 O584 1.252 . S
C570 O585 1.272 . S
C571 Sm561 2.846 . S
C571 C572 1.506 . S
C571 O586 1.261 . S
C571 O587 1.242 . S
C572 C571 1.506 . S
C572 C573 1.358 . S
C572 C577 1.382 . S
C573 C572 1.358 . S
C573 C574 1.385 . S
C573 H596 0.930 . S
C574 C573 1.385 . S
C574 C575 1.395 . S
C574 H597 0.929 . S
C575 C574 1.395 . S
C575 C576 1.335 . S
C576 C575 1.335 . S
C576 C577 1.398 . S
C576 H598 0.930 . S
C577 C572 1.382 . S
C577 C576 1.398 . S
C577 H599 0.929 . S
C578 O588 1.271 . S
C578 O589 1.251 . S
C579 O590 1.252 . S
C579 O591 1.272 . S
O580 Sm560 2.543 . S
O580 C562 1.261 . S
O581 Sm560 2.450 . S
O581 C562 1.242 . S
O582 Sm560 2.681 . S
O582 Sm561 2.386 . S
O582 C569 1.271 . S
O583 Sm560 2.464 . S
O583 C569 1.251 . S
O584 Sm560 2.396 . S
O584 C570 1.252 . S
O585 Sm561 2.408 . S
O585 C570 1.272 . S
O586 Sm561 2.543 . S
O586 C571 1.261 . S
O587 Sm561 2.450 . S
O587 C571 1.242 . S
O588 Sm560 2.386 . S
O588 Sm561 2.681 . S
O588 C578 1.271 . S
O589 Sm561 2.464 . S
O589 C578 1.251 . S
O590 Sm561 2.396 . S
O590 C579 1.252 . S
O591 Sm560 2.408 . S
O591 C579 1.272 . S
H592 C564 0.930 . S
H593 C565 0.929 . S
H594 C567 0.930 . S
H595 C568 0.929 . S
H596 C573 0.930 . S
H597 C574 0.929 . S
H598 C576 0.930 . S
H599 C577 0.929 . S
Sm600 C602 2.846 . S
Sm600 O620 2.543 . S
Sm600 O621 2.450 . S
Sm600 O622 2.681 . S
Sm600 O623 2.464 . S
Sm600 O624 2.396 . S
Sm600 O628 2.386 . S
Sm600 O631 2.408 . S
Sm601 C611 2.846 . S
Sm601 O622 2.386 . S
Sm601 O625 2.408 . S
Sm601 O626 2.543 . S
Sm601 O627 2.450 . S
Sm601 O628 2.681 . S
Sm601 O629 2.464 . S
Sm601 O630 2.396 . S
C602 Sm600 2.846 . S
C602 C603 1.506 . S
C602 O620 1.261 . S
C602 O621 1.242 . S
C603 C602 1.506 . S
C603 C604 1.358 . S
C603 C608 1.382 . S
C604 C603 1.358 . S
C604 C605 1.385 . S
C604 H632 0.930 . S
C605 C604 1.385 . S
C605 C606 1.395 . S
C605 H633 0.929 1_655 S
C606 C605 1.395 . S
C606 C607 1.335 . S
C607 C606 1.335 . S
C607 C608 1.398 . S
C607 H634 0.930 . S
C608 C603 1.382 . S
C608 C607 1.398 . S
C608 H635 0.929 . S
C609 O622 1.271 . S
C609 O623 1.251 . S
C610 O624 1.252 . S
C610 O625 1.272 . S
C611 Sm601 2.846 . S
C611 C612 1.506 . S
C611 O626 1.261 . S
C611 O627 1.242 . S
C612 C611 1.506 . S
C612 C613 1.358 . S
C612 C617 1.382 . S
C613 C612 1.358 . S
C613 C614 1.385 . S
C613 H636 0.930 . S
C614 C613 1.385 . S
C614 C615 1.395 . S
C614 H637 0.929 . S
C615 C614 1.395 . S
C615 C616 1.335 . S
C616 C615 1.335 . S
C616 C617 1.398 . S
C616 H638 0.930 . S
C617 C612 1.382 . S
C617 C616 1.398 . S
C617 H639 0.929 . S
C618 O628 1.271 . S
C618 O629 1.251 . S
C619 O630 1.252 . S
C619 O631 1.272 . S
O620 Sm600 2.543 . S
O620 C602 1.261 . S
O621 Sm600 2.450 . S
O621 C602 1.242 . S
O622 Sm600 2.681 . S
O622 Sm601 2.386 . S
O622 C609 1.271 . S
O623 Sm600 2.464 . S
O623 C609 1.251 . S
O624 Sm600 2.396 . S
O624 C610 1.252 . S
O625 Sm601 2.408 . S
O625 C610 1.272 . S
O626 Sm601 2.543 . S
O626 C611 1.261 . S
O627 Sm601 2.450 . S
O627 C611 1.242 . S
O628 Sm600 2.386 . S
O628 Sm601 2.681 . S
O628 C618 1.271 . S
O629 Sm601 2.464 . S
O629 C618 1.251 . S
O630 Sm601 2.396 . S
O630 C619 1.252 . S
O631 Sm600 2.408 . S
O631 C619 1.272 . S
H632 C604 0.930 . S
H633 C605 0.929 1_455 S
H634 C607 0.930 . S
H635 C608 0.929 . S
H636 C613 0.930 . S
H637 C614 0.929 . S
H638 C616 0.930 . S
H639 C617 0.929 . S
Sm640 C642 2.846 . S
Sm640 O660 2.543 . S
Sm640 O661 2.450 . S
Sm640 O662 2.681 . S
Sm640 O663 2.464 . S
Sm640 O664 2.396 . S
Sm640 O668 2.386 . S
Sm640 O671 2.408 . S
Sm641 C651 2.846 . S
Sm641 O662 2.386 . S
Sm641 O665 2.408 . S
Sm641 O666 2.543 . S
Sm641 O667 2.450 . S
Sm641 O668 2.681 . S
Sm641 O669 2.464 . S
Sm641 O670 2.396 . S
C642 Sm640 2.846 . S
C642 C643 1.506 . S
C642 O660 1.261 . S
C642 O661 1.242 . S
C643 C642 1.506 . S
C643 C644 1.358 . S
C643 C648 1.382 . S
C644 C643 1.358 . S
C644 C645 1.385 . S
C644 H672 0.930 . S
C645 C644 1.385 . S
C645 C646 1.395 . S
C645 H673 0.929 . S
C646 C645 1.395 . S
C646 C647 1.335 . S
C647 C646 1.335 . S
C647 C648 1.398 . S
C647 H674 0.930 . S
C648 C643 1.382 . S
C648 C647 1.398 . S
C648 H675 0.929 . S
C649 O662 1.271 . S
C649 O663 1.251 . S
C650 O664 1.252 . S
C650 O665 1.272 . S
C651 Sm641 2.846 . S
C651 C652 1.506 . S
C651 O666 1.261 . S
C651 O667 1.242 . S
C652 C651 1.506 . S
C652 C653 1.358 . S
C652 C657 1.382 . S
C653 C652 1.358 . S
C653 C654 1.385 . S
C653 H676 0.930 . S
C654 C653 1.385 . S
C654 C655 1.395 . S
C654 H677 0.929 . S
C655 C654 1.395 . S
C655 C656 1.335 . S
C656 C655 1.335 . S
C656 C657 1.398 . S
C656 H678 0.930 . S
C657 C652 1.382 . S
C657 C656 1.398 . S
C657 H679 0.929 . S
C658 O668 1.271 . S
C658 O669 1.251 . S
C659 O670 1.252 . S
C659 O671 1.272 . S
O660 Sm640 2.543 . S
O660 C642 1.261 . S
O661 Sm640 2.450 . S
O661 C642 1.242 . S
O662 Sm640 2.681 . S
O662 Sm641 2.386 . S
O662 C649 1.271 . S
O663 Sm640 2.464 . S
O663 C649 1.251 . S
O664 Sm640 2.396 . S
O664 C650 1.252 . S
O665 Sm641 2.408 . S
O665 C650 1.272 . S
O666 Sm641 2.543 . S
O666 C651 1.261 . S
O667 Sm641 2.450 . S
O667 C651 1.242 . S
O668 Sm640 2.386 . S
O668 Sm641 2.681 . S
O668 C658 1.271 . S
O669 Sm641 2.464 . S
O669 C658 1.251 . S
O670 Sm641 2.396 . S
O670 C659 1.252 . S
O671 Sm640 2.408 . S
O671 C659 1.272 . S
H672 C644 0.930 . S
H673 C645 0.929 . S
H674 C647 0.930 . S
H675 C648 0.929 . S
H676 C653 0.930 . S
H677 C654 0.929 . S
H678 C656 0.930 . S
H679 C657 0.929 . S
Sm680 C682 2.846 . S
Sm680 O700 2.543 . S
Sm680 O701 2.450 . S
Sm680 O702 2.681 . S
Sm680 O703 2.464 . S
Sm680 O704 2.396 . S
Sm680 O708 2.386 . S
Sm680 O711 2.408 . S
Sm681 C691 2.846 . S
Sm681 O702 2.386 . S
Sm681 O705 2.408 . S
Sm681 O706 2.543 . S
Sm681 O707 2.450 . S
Sm681 O708 2.681 . S
Sm681 O709 2.464 . S
Sm681 O710 2.396 . S
C682 Sm680 2.846 . S
C682 C683 1.506 . S
C682 O700 1.261 . S
C682 O701 1.242 . S
C683 C682 1.506 . S
C683 C684 1.358 . S
C683 C688 1.382 . S
C684 C683 1.358 . S
C684 C685 1.385 . S
C684 H712 0.930 . S
C685 C684 1.385 . S
C685 C686 1.395 . S
C685 H713 0.929 1_545 S
C686 C685 1.395 . S
C686 C687 1.335 . S
C687 C686 1.335 . S
C687 C688 1.398 . S
C687 H714 0.930 . S
C688 C683 1.382 . S
C688 C687 1.398 . S
C688 H715 0.929 . S
C689 O702 1.271 . S
C689 O703 1.251 . S
C690 O704 1.252 . S
C690 O705 1.272 . S
C691 Sm681 2.846 . S
C691 C692 1.506 . S
C691 O706 1.261 . S
C691 O707 1.242 . S
C692 C691 1.506 . S
C692 C693 1.358 . S
C692 C697 1.382 . S
C693 C692 1.358 . S
C693 C694 1.385 . S
C693 H716 0.930 . S
C694 C693 1.385 . S
C694 C695 1.395 . S
C694 H717 0.929 . S
C695 C694 1.395 . S
C695 C696 1.335 . S
C696 C695 1.335 . S
C696 C697 1.398 . S
C696 H718 0.930 . S
C697 C692 1.382 . S
C697 C696 1.398 . S
C697 H719 0.929 . S
C698 O708 1.271 . S
C698 O709 1.251 . S
C699 O710 1.252 . S
C699 O711 1.272 . S
O700 Sm680 2.543 . S
O700 C682 1.261 . S
O701 Sm680 2.450 . S
O701 C682 1.242 . S
O702 Sm680 2.681 . S
O702 Sm681 2.386 . S
O702 C689 1.271 . S
O703 Sm680 2.464 . S
O703 C689 1.251 . S
O704 Sm680 2.396 . S
O704 C690 1.252 . S
O705 Sm681 2.408 . S
O705 C690 1.272 . S
O706 Sm681 2.543 . S
O706 C691 1.261 . S
O707 Sm681 2.450 . S
O707 C691 1.242 . S
O708 Sm680 2.386 . S
O708 Sm681 2.681 . S
O708 C698 1.271 . S
O709 Sm681 2.464 . S
O709 C698 1.251 . S
O710 Sm681 2.396 . S
O710 C699 1.252 . S
O711 Sm680 2.408 . S
O711 C699 1.272 . S
H712 C684 0.930 . S
H713 C685 0.929 1_565 S
H714 C687 0.930 . S
H715 C688 0.929 . S
H716 C693 0.930 . S
H717 C694 0.929 . S
H718 C696 0.930 . S
H719 C697 0.929 . S
Sm720 C722 2.846 . S
Sm720 O740 2.543 . S
Sm720 O741 2.450 . S
Sm720 O742 2.681 . S
Sm720 O743 2.464 . S
Sm720 O744 2.396 . S
Sm720 O748 2.386 . S
Sm720 O751 2.408 . S
Sm721 C731 2.846 . S
Sm721 O742 2.386 . S
Sm721 O745 2.408 . S
Sm721 O746 2.543 . S
Sm721 O747 2.450 . S
Sm721 O748 2.681 . S
Sm721 O749 2.464 . S
Sm721 O750 2.396 . S
C722 Sm720 2.846 . S
C722 C723 1.506 . S
C722 O740 1.261 . S
C722 O741 1.242 . S
C723 C722 1.506 . S
C723 C724 1.358 . S
C723 C728 1.382 . S
C724 C723 1.358 . S
C724 C725 1.385 . S
C724 H752 0.930 . S
C725 C724 1.385 . S
C725 C726 1.395 . S
C725 H753 0.929 . S
C726 C725 1.395 . S
C726 C727 1.335 . S
C727 C726 1.335 . S
C727 C728 1.398 . S
C727 H754 0.930 . S
C728 C723 1.382 . S
C728 C727 1.398 . S
C728 H755 0.929 . S
C729 O742 1.271 . S
C729 O743 1.251 . S
C730 O744 1.252 . S
C730 O745 1.272 . S
C731 Sm721 2.846 . S
C731 C732 1.506 . S
C731 O746 1.261 . S
C731 O747 1.242 . S
C732 C731 1.506 . S
C732 C733 1.358 . S
C732 C737 1.382 . S
C733 C732 1.358 . S
C733 C734 1.385 . S
C733 H756 0.930 . S
C734 C733 1.385 . S
C734 C735 1.395 . S
C734 H757 0.929 1_545 S
C735 C734 1.395 . S
C735 C736 1.335 . S
C736 C735 1.335 . S
C736 C737 1.398 . S
C736 H758 0.930 . S
C737 C732 1.382 . S
C737 C736 1.398 . S
C737 H759 0.929 . S
C738 O748 1.271 . S
C738 O749 1.251 . S
C739 O750 1.252 . S
C739 O751 1.272 . S
O740 Sm720 2.543 . S
O740 C722 1.261 . S
O741 Sm720 2.450 . S
O741 C722 1.242 . S
O742 Sm720 2.681 . S
O742 Sm721 2.386 . S
O742 C729 1.271 . S
O743 Sm720 2.464 . S
O743 C729 1.251 . S
O744 Sm720 2.396 . S
O744 C730 1.252 . S
O745 Sm721 2.408 . S
O745 C730 1.272 . S
O746 Sm721 2.543 . S
O746 C731 1.261 . S
O747 Sm721 2.450 . S
O747 C731 1.242 . S
O748 Sm720 2.386 . S
O748 Sm721 2.681 . S
O748 C738 1.271 . S
O749 Sm721 2.464 . S
O749 C738 1.251 . S
O750 Sm721 2.396 . S
O750 C739 1.252 . S
O751 Sm720 2.408 . S
O751 C739 1.272 . S
H752 C724 0.930 . S
H753 C725 0.929 . S
H754 C727 0.930 . S
H755 C728 0.929 . S
H756 C733 0.930 . S
H757 C734 0.929 1_565 S
H758 C736 0.930 . S
H759 C737 0.929 . S
Sm760 C762 2.846 . S
Sm760 O780 2.543 . S
Sm760 O781 2.450 . S
Sm760 O782 2.681 . S
Sm760 O783 2.464 . S
Sm760 O784 2.396 . S
Sm760 O788 2.386 . S
Sm760 O791 2.408 . S
Sm761 C771 2.846 . S
Sm761 O782 2.386 . S
Sm761 O785 2.408 . S
Sm761 O786 2.543 . S
Sm761 O787 2.450 . S
Sm761 O788 2.681 . S
Sm761 O789 2.464 . S
Sm761 O790 2.396 . S
C762 Sm760 2.846 . S
C762 C763 1.506 . S
C762 O780 1.261 . S
C762 O781 1.242 . S
C763 C762 1.506 . S
C763 C764 1.358 . S
C763 C768 1.382 . S
C764 C763 1.358 . S
C764 C765 1.385 . S
C764 H792 0.930 . S
C765 C764 1.385 . S
C765 C766 1.395 . S
C765 H793 0.929 . S
C766 C765 1.395 . S
C766 C767 1.335 . S
C767 C766 1.335 . S
C767 C768 1.398 . S
C767 H794 0.930 . S
C768 C763 1.382 . S
C768 C767 1.398 . S
C768 H795 0.929 . S
C769 O782 1.271 . S
C769 O783 1.251 . S
C770 O784 1.252 . S
C770 O785 1.272 . S
C771 Sm761 2.846 . S
C771 C772 1.506 . S
C771 O786 1.261 . S
C771 O787 1.242 . S
C772 C771 1.506 . S
C772 C773 1.358 . S
C772 C777 1.382 . S
C773 C772 1.358 . S
C773 C774 1.385 . S
C773 H796 0.930 . S
C774 C773 1.385 . S
C774 C775 1.395 . S
C774 H797 0.929 1_655 S
C775 C774 1.395 . S
C775 C776 1.335 . S
C776 C775 1.335 . S
C776 C777 1.398 . S
C776 H798 0.930 . S
C777 C772 1.382 . S
C777 C776 1.398 . S
C777 H799 0.929 . S
C778 O788 1.271 . S
C778 O789 1.251 . S
C779 O790 1.252 . S
C779 O791 1.272 . S
O780 Sm760 2.543 . S
O780 C762 1.261 . S
O781 Sm760 2.450 . S
O781 C762 1.242 . S
O782 Sm760 2.681 . S
O782 Sm761 2.386 . S
O782 C769 1.271 . S
O783 Sm760 2.464 . S
O783 C769 1.251 . S
O784 Sm760 2.396 . S
O784 C770 1.252 . S
O785 Sm761 2.408 . S
O785 C770 1.272 . S
O786 Sm761 2.543 . S
O786 C771 1.261 . S
O787 Sm761 2.450 . S
O787 C771 1.242 . S
O788 Sm760 2.386 . S
O788 Sm761 2.681 . S
O788 C778 1.271 . S
O789 Sm761 2.464 . S
O789 C778 1.251 . S
O790 Sm761 2.396 . S
O790 C779 1.252 . S
O791 Sm760 2.408 . S
O791 C779 1.272 . S
H792 C764 0.930 . S
H793 C765 0.929 . S
H794 C767 0.930 . S
H795 C768 0.929 . S
H796 C773 0.930 . S
H797 C774 0.929 1_455 S
H798 C776 0.930 . S
H799 C777 0.929 . S
Sm800 C802 2.846 . S
Sm800 O820 2.543 . S
Sm800 O821 2.450 . S
Sm800 O822 2.681 . S
Sm800 O823 2.464 . S
Sm800 O824 2.396 . S
Sm800 O828 2.386 . S
Sm800 O831 2.408 . S
Sm801 C811 2.846 . S
Sm801 O822 2.386 . S
Sm801 O825 2.408 . S
Sm801 O826 2.543 . S
Sm801 O827 2.450 . S
Sm801 O828 2.681 . S
Sm801 O829 2.464 . S
Sm801 O830 2.396 . S
C802 Sm800 2.846 . S
C802 C803 1.506 . S
C802 O820 1.261 . S
C802 O821 1.242 . S
C803 C802 1.506 . S
C803 C804 1.358 . S
C803 C808 1.382 . S
C804 C803 1.358 . S
C804 C805 1.385 . S
C804 H832 0.930 . S
C805 C804 1.385 . S
C805 C806 1.395 . S
C805 H833 0.929 . S
C806 C805 1.395 . S
C806 C807 1.335 . S
C807 C806 1.335 . S
C807 C808 1.398 . S
C807 H834 0.930 . S
C808 C803 1.382 . S
C808 C807 1.398 . S
C808 H835 0.929 . S
C809 O822 1.271 . S
C809 O823 1.251 . S
C810 O824 1.252 . S
C810 O825 1.272 . S
C811 Sm801 2.846 . S
C811 C812 1.506 . S
C811 O826 1.261 . S
C811 O827 1.242 . S
C812 C811 1.506 . S
C812 C813 1.358 . S
C812 C817 1.382 . S
C813 C812 1.358 . S
C813 C814 1.385 . S
C813 H836 0.930 . S
C814 C813 1.385 . S
C814 C815 1.395 . S
C814 H837 0.929 . S
C815 C814 1.395 . S
C815 C816 1.335 . S
C816 C815 1.335 . S
C816 C817 1.398 . S
C816 H838 0.930 . S
C817 C812 1.382 . S
C817 C816 1.398 . S
C817 H839 0.929 . S
C818 O828 1.271 . S
C818 O829 1.251 . S
C819 O830 1.252 . S
C819 O831 1.272 . S
O820 Sm800 2.543 . S
O820 C802 1.261 . S
O821 Sm800 2.450 . S
O821 C802 1.242 . S
O822 Sm800 2.681 . S
O822 Sm801 2.386 . S
O822 C809 1.271 . S
O823 Sm800 2.464 . S
O823 C809 1.251 . S
O824 Sm800 2.396 . S
O824 C810 1.252 . S
O825 Sm801 2.408 . S
O825 C810 1.272 . S
O826 Sm801 2.543 . S
O826 C811 1.261 . S
O827 Sm801 2.450 . S
O827 C811 1.242 . S
O828 Sm800 2.386 . S
O828 Sm801 2.681 . S
O828 C818 1.271 . S
O829 Sm801 2.464 . S
O829 C818 1.251 . S
O830 Sm801 2.396 . S
O830 C819 1.252 . S
O831 Sm800 2.408 . S
O831 C819 1.272 . S
H832 C804 0.930 . S
H833 C805 0.929 . S
H834 C807 0.930 . S
H835 C808 0.929 . S
H836 C813 0.930 . S
H837 C814 0.929 . S
H838 C816 0.930 . S
H839 C817 0.929 . S
Sm840 C842 2.846 . S
Sm840 O860 2.543 . S
Sm840 O861 2.450 . S
Sm840 O862 2.681 1_554 S
Sm840 O863 2.464 . S
Sm840 O864 2.396 . S
Sm840 O868 2.386 . S
Sm840 O871 2.408 . S
Sm841 C851 2.846 . S
Sm841 O862 2.386 . S
Sm841 O865 2.408 . S
Sm841 O866 2.543 . S
Sm841 O867 2.450 . S
Sm841 O868 2.681 1_556 S
Sm841 O869 2.464 . S
Sm841 O870 2.396 . S
C842 Sm840 2.846 . S
C842 C843 1.506 . S
C842 O860 1.261 . S
C842 O861 1.242 . S
C843 C842 1.506 . S
C843 C844 1.358 . S
C843 C848 1.382 . S
C844 C843 1.358 . S
C844 C845 1.385 . S
C844 H872 0.930 . S
C845 C844 1.385 . S
C845 C846 1.395 . S
C845 H873 0.929 . S
C846 C845 1.395 . S
C846 C847 1.335 . S
C847 C846 1.335 . S
C847 C848 1.398 . S
C847 H874 0.930 . S
C848 C843 1.382 . S
C848 C847 1.398 . S
C848 H875 0.929 . S
C849 O862 1.271 1_554 S
C849 O863 1.251 . S
C850 O864 1.252 . S
C850 O865 1.272 1_554 S
C851 Sm841 2.846 . S
C851 C852 1.506 . S
C851 O866 1.261 . S
C851 O867 1.242 . S
C852 C851 1.506 . S
C852 C853 1.358 . S
C852 C857 1.382 . S
C853 C852 1.358 . S
C853 C854 1.385 . S
C853 H876 0.930 . S
C854 C853 1.385 . S
C854 C855 1.395 . S
C854 H877 0.929 . S
C855 C854 1.395 . S
C855 C856 1.335 . S
C856 C855 1.335 . S
C856 C857 1.398 . S
C856 H878 0.930 . S
C857 C852 1.382 . S
C857 C856 1.398 . S
C857 H879 0.929 . S
C858 O868 1.271 1_556 S
C858 O869 1.251 . S
C859 O870 1.252 . S
C859 O871 1.272 1_556 S
O860 Sm840 2.543 . S
O860 C842 1.261 . S
O861 Sm840 2.450 . S
O861 C842 1.242 . S
O862 Sm840 2.681 1_556 S
O862 Sm841 2.386 . S
O862 C849 1.271 1_556 S
O863 Sm840 2.464 . S
O863 C849 1.251 . S
O864 Sm840 2.396 . S
O864 C850 1.252 . S
O865 Sm841 2.408 . S
O865 C850 1.272 1_556 S
O866 Sm841 2.543 . S
O866 C851 1.261 . S
O867 Sm841 2.450 . S
O867 C851 1.242 . S
O868 Sm840 2.386 . S
O868 Sm841 2.681 1_554 S
O868 C858 1.271 1_554 S
O869 Sm841 2.464 . S
O869 C858 1.251 . S
O870 Sm841 2.396 . S
O870 C859 1.252 . S
O871 Sm840 2.408 . S
O871 C859 1.272 1_554 S
H872 C844 0.930 . S
H873 C845 0.929 . S
H874 C847 0.930 . S
H875 C848 0.929 . S
H876 C853 0.930 . S
H877 C854 0.929 . S
H878 C856 0.930 . S
H879 C857 0.929 . S
Sm880 C882 2.846 . S
Sm880 O900 2.543 . S
Sm880 O901 2.450 . S
Sm880 O902 2.681 1_554 S
Sm880 O903 2.464 . S
Sm880 O904 2.396 . S
Sm880 O908 2.386 . S
Sm880 O911 2.408 . S
Sm881 C891 2.846 . S
Sm881 O902 2.386 . S
Sm881 O905 2.408 . S
Sm881 O906 2.543 . S
Sm881 O907 2.450 . S
Sm881 O908 2.681 1_556 S
Sm881 O909 2.464 . S
Sm881 O910 2.396 . S
C882 Sm880 2.846 . S
C882 C883 1.506 . S
C882 O900 1.261 . S
C882 O901 1.242 . S
C883 C882 1.506 . S
C883 C884 1.358 . S
C883 C888 1.382 . S
C884 C883 1.358 . S
C884 C885 1.385 . S
C884 H912 0.930 . S
C885 C884 1.385 . S
C885 C886 1.395 . S
C885 H913 0.929 . S
C886 C885 1.395 . S
C886 C887 1.335 . S
C887 C886 1.335 . S
C887 C888 1.398 . S
C887 H914 0.930 . S
C888 C883 1.382 . S
C888 C887 1.398 . S
C888 H915 0.929 . S
C889 O902 1.271 1_554 S
C889 O903 1.251 . S
C890 O904 1.252 . S
C890 O905 1.272 1_554 S
C891 Sm881 2.846 . S
C891 C892 1.506 . S
C891 O906 1.261 . S
C891 O907 1.242 . S
C892 C891 1.506 . S
C892 C893 1.358 . S
C892 C897 1.382 . S
C893 C892 1.358 . S
C893 C894 1.385 . S
C893 H916 0.930 . S
C894 C893 1.385 . S
C894 C895 1.395 . S
C894 H917 0.929 . S
C895 C894 1.395 . S
C895 C896 1.335 . S
C896 C895 1.335 . S
C896 C897 1.398 . S
C896 H918 0.930 . S
C897 C892 1.382 . S
C897 C896 1.398 . S
C897 H919 0.929 . S
C898 O908 1.271 1_556 S
C898 O909 1.251 . S
C899 O910 1.252 . S
C899 O911 1.272 1_556 S
O900 Sm880 2.543 . S
O900 C882 1.261 . S
O901 Sm880 2.450 . S
O901 C882 1.242 . S
O902 Sm880 2.681 1_556 S
O902 Sm881 2.386 . S
O902 C889 1.271 1_556 S
O903 Sm880 2.464 . S
O903 C889 1.251 . S
O904 Sm880 2.396 . S
O904 C890 1.252 . S
O905 Sm881 2.408 . S
O905 C890 1.272 1_556 S
O906 Sm881 2.543 . S
O906 C891 1.261 . S
O907 Sm881 2.450 . S
O907 C891 1.242 . S
O908 Sm880 2.386 . S
O908 Sm881 2.681 1_554 S
O908 C898 1.271 1_554 S
O909 Sm881 2.464 . S
O909 C898 1.251 . S
O910 Sm881 2.396 . S
O910 C899 1.252 . S
O911 Sm880 2.408 . S
O911 C899 1.272 1_554 S
H912 C884 0.930 . S
H913 C885 0.929 . S
H914 C887 0.930 . S
H915 C888 0.929 . S
H916 C893 0.930 . S
H917 C894 0.929 . S
H918 C896 0.930 . S
H919 C897 0.929 . S
Sm920 C922 2.846 . S
Sm920 O940 2.543 . S
Sm920 O941 2.450 . S
Sm920 O942 2.681 1_554 S
Sm920 O943 2.464 . S
Sm920 O944 2.396 . S
Sm920 O948 2.386 . S
Sm920 O951 2.408 . S
Sm921 C931 2.846 . S
Sm921 O942 2.386 . S
Sm921 O945 2.408 . S
Sm921 O946 2.543 . S
Sm921 O947 2.450 . S
Sm921 O948 2.681 1_556 S
Sm921 O949 2.464 . S
Sm921 O950 2.396 . S
C922 Sm920 2.846 . S
C922 C923 1.506 . S
C922 O940 1.261 . S
C922 O941 1.242 . S
C923 C922 1.506 . S
C923 C924 1.358 . S
C923 C928 1.382 . S
C924 C923 1.358 . S
C924 C925 1.385 . S
C924 H952 0.930 . S
C925 C924 1.385 . S
C925 C926 1.395 . S
C925 H953 0.929 . S
C926 C925 1.395 . S
C926 C927 1.335 . S
C927 C926 1.335 . S
C927 C928 1.398 . S
C927 H954 0.930 . S
C928 C923 1.382 . S
C928 C927 1.398 . S
C928 H955 0.929 . S
C929 O942 1.271 1_554 S
C929 O943 1.251 . S
C930 O944 1.252 . S
C930 O945 1.272 1_554 S
C931 Sm921 2.846 . S
C931 C932 1.506 . S
C931 O946 1.261 . S
C931 O947 1.242 . S
C932 C931 1.506 . S
C932 C933 1.358 . S
C932 C937 1.382 . S
C933 C932 1.358 . S
C933 C934 1.385 . S
C933 H956 0.930 . S
C934 C933 1.385 . S
C934 C935 1.395 . S
C934 H957 0.929 . S
C935 C934 1.395 . S
C935 C936 1.335 . S
C936 C935 1.335 . S
C936 C937 1.398 . S
C936 H958 0.930 . S
C937 C932 1.382 . S
C937 C936 1.398 . S
C937 H959 0.929 . S
C938 O948 1.271 1_556 S
C938 O949 1.251 . S
C939 O950 1.252 . S
C939 O951 1.272 1_556 S
O940 Sm920 2.543 . S
O940 C922 1.261 . S
O941 Sm920 2.450 . S
O941 C922 1.242 . S
O942 Sm920 2.681 1_556 S
O942 Sm921 2.386 . S
O942 C929 1.271 1_556 S
O943 Sm920 2.464 . S
O943 C929 1.251 . S
O944 Sm920 2.396 . S
O944 C930 1.252 . S
O945 Sm921 2.408 . S
O945 C930 1.272 1_556 S
O946 Sm921 2.543 . S
O946 C931 1.261 . S
O947 Sm921 2.450 . S
O947 C931 1.242 . S
O948 Sm920 2.386 . S
O948 Sm921 2.681 1_554 S
O948 C938 1.271 1_554 S
O949 Sm921 2.464 . S
O949 C938 1.251 . S
O950 Sm921 2.396 . S
O950 C939 1.252 . S
O951 Sm920 2.408 . S
O951 C939 1.272 1_554 S
H952 C924 0.930 . S
H953 C925 0.929 . S
H954 C927 0.930 . S
H955 C928 0.929 . S
H956 C933 0.930 . S
H957 C934 0.929 . S
H958 C936 0.930 . S
H959 C937 0.929 . S
Sm960 C962 2.846 . S
Sm960 O980 2.543 . S
Sm960 O981 2.450 . S
Sm960 O982 2.681 . S
Sm960 O983 2.464 . S
Sm960 O984 2.396 . S
Sm960 O988 2.386 . S
Sm960 O991 2.408 . S
Sm961 C971 2.846 . S
Sm961 O982 2.386 . S
Sm961 O985 2.408 . S
Sm961 O986 2.543 . S
Sm961 O987 2.450 . S
Sm961 O988 2.681 . S
Sm961 O989 2.464 . S
Sm961 O990 2.396 . S
C962 Sm960 2.846 . S
C962 C963 1.506 . S
C962 O980 1.261 . S
C962 O981 1.242 . S
C963 C962 1.506 . S
C963 C964 1.358 . S
C963 C968 1.382 . S
C964 C963 1.358 . S
C964 C965 1.385 . S
C964 H992 0.930 . S
C965 C964 1.385 . S
C965 C966 1.395 . S
C965 H993 0.929 1_565 S
C966 C965 1.395 . S
C966 C967 1.335 . S
C967 C966 1.335 . S
C967 C968 1.398 . S
C967 H994 0.930 . S
C968 C963 1.382 . S
C968 C967 1.398 . S
C968 H995 0.929 . S
C969 O982 1.271 . S
C969 O983 1.251 . S
C970 O984 1.252 . S
C970 O985 1.272 . S
C971 Sm961 2.846 . S
C971 C972 1.506 . S
C971 O986 1.261 . S
C971 O987 1.242 . S
C972 C971 1.506 . S
C972 C973 1.358 . S
C972 C977 1.382 . S
C973 C972 1.358 . S
C973 C974 1.385 . S
C973 H996 0.930 . S
C974 C973 1.385 . S
C974 C975 1.395 . S
C974 H997 0.929 . S
C975 C974 1.395 . S
C975 C976 1.335 . S
C976 C975 1.335 . S
C976 C977 1.398 . S
C976 H998 0.930 . S
C977 C972 1.382 . S
C977 C976 1.398 . S
C977 H999 0.929 . S
C978 O988 1.271 . S
C978 O989 1.251 . S
C979 O990 1.252 . S
C979 O991 1.272 . S
O980 Sm960 2.543 . S
O980 C962 1.261 . S
O981 Sm960 2.450 . S
O981 C962 1.242 . S
O982 Sm960 2.681 . S
O982 Sm961 2.386 . S
O982 C969 1.271 . S
O983 Sm960 2.464 . S
O983 C969 1.251 . S
O984 Sm960 2.396 . S
O984 C970 1.252 . S
O985 Sm961 2.408 . S
O985 C970 1.272 . S
O986 Sm961 2.543 . S
O986 C971 1.261 . S
O987 Sm961 2.450 . S
O987 C971 1.242 . S
O988 Sm960 2.386 . S
O988 Sm961 2.681 . S
O988 C978 1.271 . S
O989 Sm961 2.464 . S
O989 C978 1.251 . S
O990 Sm961 2.396 . S
O990 C979 1.252 . S
O991 Sm960 2.408 . S
O991 C979 1.272 . S
H992 C964 0.930 . S
H993 C965 0.929 1_545 S
H994 C967 0.930 . S
H995 C968 0.929 . S
H996 C973 0.930 . S
H997 C974 0.929 . S
H998 C976 0.930 . S
H999 C977 0.929 . S
Sm1000 C1002 2.846 . S
Sm1000 O1020 2.543 . S
Sm1000 O1021 2.450 . S
Sm1000 O1022 2.681 . S
Sm1000 O1023 2.464 . S
Sm1000 O1024 2.396 . S
Sm1000 O1028 2.386 . S
Sm1000 O1031 2.408 . S
Sm1001 C1011 2.846 . S
Sm1001 O1022 2.386 . S
Sm1001 O1025 2.408 . S
Sm1001 O1026 2.543 . S
Sm1001 O1027 2.450 . S
Sm1001 O1028 2.681 . S
Sm1001 O1029 2.464 . S
Sm1001 O1030 2.396 . S
C1002 Sm1000 2.846 . S
C1002 C1003 1.506 . S
C1002 O1020 1.261 . S
C1002 O1021 1.242 . S
C1003 C1002 1.506 . S
C1003 C1004 1.358 . S
C1003 C1008 1.382 . S
C1004 C1003 1.358 . S
C1004 C1005 1.385 . S
C1004 H1032 0.930 . S
C1005 C1004 1.385 . S
C1005 C1006 1.395 . S
C1005 H1033 0.929 1_455 S
C1006 C1005 1.395 . S
C1006 C1007 1.335 . S
C1007 C1006 1.335 . S
C1007 C1008 1.398 . S
C1007 H1034 0.930 . S
C1008 C1003 1.382 . S
C1008 C1007 1.398 . S
C1008 H1035 0.929 . S
C1009 O1022 1.271 . S
C1009 O1023 1.251 . S
C1010 O1024 1.252 . S
C1010 O1025 1.272 . S
C1011 Sm1001 2.846 . S
C1011 C1012 1.506 . S
C1011 O1026 1.261 . S
C1011 O1027 1.242 . S
C1012 C1011 1.506 . S
C1012 C1013 1.358 . S
C1012 C1017 1.382 . S
C1013 C1012 1.358 . S
C1013 C1014 1.385 . S
C1013 H1036 0.930 . S
C1014 C1013 1.385 . S
C1014 C1015 1.395 . S
C1014 H1037 0.929 . S
C1015 C1014 1.395 . S
C1015 C1016 1.335 . S
C1016 C1015 1.335 . S
C1016 C1017 1.398 . S
C1016 H1038 0.930 . S
C1017 C1012 1.382 . S
C1017 C1016 1.398 . S
C1017 H1039 0.929 . S
C1018 O1028 1.271 . S
C1018 O1029 1.251 . S
C1019 O1030 1.252 . S
C1019 O1031 1.272 . S
O1020 Sm1000 2.543 . S
O1020 C1002 1.261 . S
O1021 Sm1000 2.450 . S
O1021 C1002 1.242 . S
O1022 Sm1000 2.681 . S
O1022 Sm1001 2.386 . S
O1022 C1009 1.271 . S
O1023 Sm1000 2.464 . S
O1023 C1009 1.251 . S
O1024 Sm1000 2.396 . S
O1024 C1010 1.252 . S
O1025 Sm1001 2.408 . S
O1025 C1010 1.272 . S
O1026 Sm1001 2.543 . S
O1026 C1011 1.261 . S
O1027 Sm1001 2.450 . S
O1027 C1011 1.242 . S
O1028 Sm1000 2.386 . S
O1028 Sm1001 2.681 . S
O1028 C1018 1.271 . S
O1029 Sm1001 2.464 . S
O1029 C1018 1.251 . S
O1030 Sm1001 2.396 . S
O1030 C1019 1.252 . S
O1031 Sm1000 2.408 . S
O1031 C1019 1.272 . S
H1032 C1004 0.930 . S
H1033 C1005 0.929 1_655 S
H1034 C1007 0.930 . S
H1035 C1008 0.929 . S
H1036 C1013 0.930 . S
H1037 C1014 0.929 . S
H1038 C1016 0.930 . S
H1039 C1017 0.929 . S
Sm1040 C1042 2.846 . S
Sm1040 O1060 2.543 . S
Sm1040 O1061 2.450 . S
Sm1040 O1062 2.681 . S
Sm1040 O1063 2.464 . S
Sm1040 O1064 2.396 . S
Sm1040 O1068 2.386 . S
Sm1040 O1071 2.408 . S
Sm1041 C1051 2.846 . S
Sm1041 O1062 2.386 . S
Sm1041 O1065 2.408 . S
Sm1041 O1066 2.543 . S
Sm1041 O1067 2.450 . S
Sm1041 O1068 2.681 . S
Sm1041 O1069 2.464 . S
Sm1041 O1070 2.396 . S
C1042 Sm1040 2.846 . S
C1042 C1043 1.506 . S
C1042 O1060 1.261 . S
C1042 O1061 1.242 . S
C1043 C1042 1.506 . S
C1043 C1044 1.358 . S
C1043 C1048 1.382 . S
C1044 C1043 1.358 . S
C1044 C1045 1.385 . S
C1044 H1072 0.930 . S
C1045 C1044 1.385 . S
C1045 C1046 1.395 . S
C1045 H1073 0.929 . S
C1046 C1045 1.395 . S
C1046 C1047 1.335 . S
C1047 C1046 1.335 . S
C1047 C1048 1.398 . S
C1047 H1074 0.930 . S
C1048 C1043 1.382 . S
C1048 C1047 1.398 . S
C1048 H1075 0.929 . S
C1049 O1062 1.271 . S
C1049 O1063 1.251 . S
C1050 O1064 1.252 . S
C1050 O1065 1.272 . S
C1051 Sm1041 2.846 . S
C1051 C1052 1.506 . S
C1051 O1066 1.261 . S
C1051 O1067 1.242 . S
C1052 C1051 1.506 . S
C1052 C1053 1.358 . S
C1052 C1057 1.382 . S
C1053 C1052 1.358 . S
C1053 C1054 1.385 . S
C1053 H1076 0.930 . S
C1054 C1053 1.385 . S
C1054 C1055 1.395 . S
C1054 H1077 0.929 . S
C1055 C1054 1.395 . S
C1055 C1056 1.335 . S
C1056 C1055 1.335 . S
C1056 C1057 1.398 . S
C1056 H1078 0.930 . S
C1057 C1052 1.382 . S
C1057 C1056 1.398 . S
C1057 H1079 0.929 . S
C1058 O1068 1.271 . S
C1058 O1069 1.251 . S
C1059 O1070 1.252 . S
C1059 O1071 1.272 . S
O1060 Sm1040 2.543 . S
O1060 C1042 1.261 . S
O1061 Sm1040 2.450 . S
O1061 C1042 1.242 . S
O1062 Sm1040 2.681 . S
O1062 Sm1041 2.386 . S
O1062 C1049 1.271 . S
O1063 Sm1040 2.464 . S
O1063 C1049 1.251 . S
O1064 Sm1040 2.396 . S
O1064 C1050 1.252 . S
O1065 Sm1041 2.408 . S
O1065 C1050 1.272 . S
O1066 Sm1041 2.543 . S
O1066 C1051 1.261 . S
O1067 Sm1041 2.450 . S
O1067 C1051 1.242 . S
O1068 Sm1040 2.386 . S
O1068 Sm1041 2.681 . S
O1068 C1058 1.271 . S
O1069 Sm1041 2.464 . S
O1069 C1058 1.251 . S
O1070 Sm1041 2.396 . S
O1070 C1059 1.252 . S
O1071 Sm1040 2.408 . S
O1071 C1059 1.272 . S
H1072 C1044 0.930 . S
H1073 C1045 0.929 . S
H1074 C1047 0.930 . S
H1075 C1048 0.929 . S
H1076 C1053 0.930 . S
H1077 C1054 0.929 . S
H1078 C1056 0.930 . S
H1079 C1057 0.929 . S
Sm1080 C1082 2.846 . S
Sm1080 O1100 2.543 . S
Sm1080 O1101 2.450 . S
Sm1080 O1102 2.681 1_554 S
Sm1080 O1103 2.464 . S
Sm1080 O1104 2.396 . S
Sm1080 O1108 2.386 . S
Sm1080 O1111 2.408 . S
Sm1081 C1091 2.846 . S
Sm1081 O1102 2.386 . S
Sm1081 O1105 2.408 . S
Sm1081 O1106 2.543 . S
Sm1081 O1107 2.450 . S
Sm1081 O1108 2.681 1_556 S
Sm1081 O1109 2.464 . S
Sm1081 O1110 2.396 . S
C1082 Sm1080 2.846 . S
C1082 C1083 1.506 . S
C1082 O1100 1.261 . S
C1082 O1101 1.242 . S
C1083 C1082 1.506 . S
C1083 C1084 1.358 . S
C1083 C1088 1.382 . S
C1084 C1083 1.358 . S
C1084 C1085 1.385 . S
C1084 H1112 0.930 . S
C1085 C1084 1.385 . S
C1085 C1086 1.395 . S
C1085 H1113 0.929 . S
C1086 C1085 1.395 . S
C1086 C1087 1.335 . S
C1087 C1086 1.335 . S
C1087 C1088 1.398 . S
C1087 H1114 0.930 . S
C1088 C1083 1.382 . S
C1088 C1087 1.398 . S
C1088 H1115 0.929 . S
C1089 O1102 1.271 1_554 S
C1089 O1103 1.251 . S
C1090 O1104 1.252 . S
C1090 O1105 1.272 1_554 S
C1091 Sm1081 2.846 . S
C1091 C1092 1.506 . S
C1091 O1106 1.261 . S
C1091 O1107 1.242 . S
C1092 C1091 1.506 . S
C1092 C1093 1.358 . S
C1092 C1097 1.382 . S
C1093 C1092 1.358 . S
C1093 C1094 1.385 . S
C1093 H1116 0.930 . S
C1094 C1093 1.385 . S
C1094 C1095 1.395 . S
C1094 H1117 0.929 . S
C1095 C1094 1.395 . S
C1095 C1096 1.335 . S
C1096 C1095 1.335 . S
C1096 C1097 1.398 . S
C1096 H1118 0.930 . S
C1097 C1092 1.382 . S
C1097 C1096 1.398 . S
C1097 H1119 0.929 . S
C1098 O1108 1.271 1_556 S
C1098 O1109 1.251 . S
C1099 O1110 1.252 . S
C1099 O1111 1.272 1_556 S
O1100 Sm1080 2.543 . S
O1100 C1082 1.261 . S
O1101 Sm1080 2.450 . S
O1101 C1082 1.242 . S
O1102 Sm1080 2.681 1_556 S
O1102 Sm1081 2.386 . S
O1102 C1089 1.271 1_556 S
O1103 Sm1080 2.464 . S
O1103 C1089 1.251 . S
O1104 Sm1080 2.396 . S
O1104 C1090 1.252 . S
O1105 Sm1081 2.408 . S
O1105 C1090 1.272 1_556 S
O1106 Sm1081 2.543 . S
O1106 C1091 1.261 . S
O1107 Sm1081 2.450 . S
O1107 C1091 1.242 . S
O1108 Sm1080 2.386 . S
O1108 Sm1081 2.681 1_554 S
O1108 C1098 1.271 1_554 S
O1109 Sm1081 2.464 . S
O1109 C1098 1.251 . S
O1110 Sm1081 2.396 . S
O1110 C1099 1.252 . S
O1111 Sm1080 2.408 . S
O1111 C1099 1.272 1_554 S
H1112 C1084 0.930 . S
H1113 C1085 0.929 . S
H1114 C1087 0.930 . S
H1115 C1088 0.929 . S
H1116 C1093 0.930 . S
H1117 C1094 0.929 . S
H1118 C1096 0.930 . S
H1119 C1097 0.929 . S
Sm1120 C1122 2.846 . S
Sm1120 O1140 2.543 . S
Sm1120 O1141 2.450 . S
Sm1120 O1142 2.681 1_554 S
Sm1120 O1143 2.464 . S
Sm1120 O1144 2.396 . S
Sm1120 O1148 2.386 . S
Sm1120 O1151 2.408 . S
Sm1121 C1131 2.846 . S
Sm1121 O1142 2.386 . S
Sm1121 O1145 2.408 . S
Sm1121 O1146 2.543 . S
Sm1121 O1147 2.450 . S
Sm1121 O1148 2.681 1_556 S
Sm1121 O1149 2.464 . S
Sm1121 O1150 2.396 . S
C1122 Sm1120 2.846 . S
C1122 C1123 1.506 . S
C1122 O1140 1.261 . S
C1122 O1141 1.242 . S
C1123 C1122 1.506 . S
C1123 C1124 1.358 . S
C1123 C1128 1.382 . S
C1124 C1123 1.358 . S
C1124 C1125 1.385 . S
C1124 H1152 0.930 . S
C1125 C1124 1.385 . S
C1125 C1126 1.395 . S
C1125 H1153 0.929 . S
C1126 C1125 1.395 . S
C1126 C1127 1.335 . S
C1127 C1126 1.335 . S
C1127 C1128 1.398 . S
C1127 H1154 0.930 . S
C1128 C1123 1.382 . S
C1128 C1127 1.398 . S
C1128 H1155 0.929 . S
C1129 O1142 1.271 1_554 S
C1129 O1143 1.251 . S
C1130 O1144 1.252 . S
C1130 O1145 1.272 1_554 S
C1131 Sm1121 2.846 . S
C1131 C1132 1.506 . S
C1131 O1146 1.261 . S
C1131 O1147 1.242 . S
C1132 C1131 1.506 . S
C1132 C1133 1.358 . S
C1132 C1137 1.382 . S
C1133 C1132 1.358 . S
C1133 C1134 1.385 . S
C1133 H1156 0.930 . S
C1134 C1133 1.385 . S
C1134 C1135 1.395 . S
C1134 H1157 0.929 . S
C1135 C1134 1.395 . S
C1135 C1136 1.335 . S
C1136 C1135 1.335 . S
C1136 C1137 1.398 . S
C1136 H1158 0.930 . S
C1137 C1132 1.382 . S
C1137 C1136 1.398 . S
C1137 H1159 0.929 . S
C1138 O1148 1.271 1_556 S
C1138 O1149 1.251 . S
C1139 O1150 1.252 . S
C1139 O1151 1.272 1_556 S
O1140 Sm1120 2.543 . S
O1140 C1122 1.261 . S
O1141 Sm1120 2.450 . S
O1141 C1122 1.242 . S
O1142 Sm1120 2.681 1_556 S
O1142 Sm1121 2.386 . S
O1142 C1129 1.271 1_556 S
O1143 Sm1120 2.464 . S
O1143 C1129 1.251 . S
O1144 Sm1120 2.396 . S
O1144 C1130 1.252 . S
O1145 Sm1121 2.408 . S
O1145 C1130 1.272 1_556 S
O1146 Sm1121 2.543 . S
O1146 C1131 1.261 . S
O1147 Sm1121 2.450 . S
O1147 C1131 1.242 . S
O1148 Sm1120 2.386 . S
O1148 Sm1121 2.681 1_554 S
O1148 C1138 1.271 1_554 S
O1149 Sm1121 2.464 . S
O1149 C1138 1.251 . S
O1150 Sm1121 2.396 . S
O1150 C1139 1.252 . S
O1151 Sm1120 2.408 . S
O1151 C1139 1.272 1_554 S
H1152 C1124 0.930 . S
H1153 C1125 0.929 . S
H1154 C1127 0.930 . S
H1155 C1128 0.929 . S
H1156 C1133 0.930 . S
H1157 C1134 0.929 . S
H1158 C1136 0.930 . S
H1159 C1137 0.929 . S
Sm1160 C1162 2.846 . S
Sm1160 O1180 2.543 . S
Sm1160 O1181 2.450 . S
Sm1160 O1182 2.681 1_554 S
Sm1160 O1183 2.464 . S
Sm1160 O1184 2.396 . S
Sm1160 O1188 2.386 . S
Sm1160 O1191 2.408 . S
Sm1161 C1171 2.846 . S
Sm1161 O1182 2.386 . S
Sm1161 O1185 2.408 . S
Sm1161 O1186 2.543 . S
Sm1161 O1187 2.450 . S
Sm1161 O1188 2.681 1_556 S
Sm1161 O1189 2.464 . S
Sm1161 O1190 2.396 . S
C1162 Sm1160 2.846 . S
C1162 C1163 1.506 . S
C1162 O1180 1.261 . S
C1162 O1181 1.242 . S
C1163 C1162 1.506 . S
C1163 C1164 1.358 . S
C1163 C1168 1.382 . S
C1164 C1163 1.358 . S
C1164 C1165 1.385 . S
C1164 H1192 0.930 . S
C1165 C1164 1.385 . S
C1165 C1166 1.395 . S
C1165 H1193 0.929 . S
C1166 C1165 1.395 . S
C1166 C1167 1.335 . S
C1167 C1166 1.335 . S
C1167 C1168 1.398 . S
C1167 H1194 0.930 . S
C1168 C1163 1.382 . S
C1168 C1167 1.398 . S
C1168 H1195 0.929 . S
C1169 O1182 1.271 1_554 S
C1169 O1183 1.251 . S
C1170 O1184 1.252 . S
C1170 O1185 1.272 1_554 S
C1171 Sm1161 2.846 . S
C1171 C1172 1.506 . S
C1171 O1186 1.261 . S
C1171 O1187 1.242 . S
C1172 C1171 1.506 . S
C1172 C1173 1.358 . S
C1172 C1177 1.382 . S
C1173 C1172 1.358 . S
C1173 C1174 1.385 . S
C1173 H1196 0.930 . S
C1174 C1173 1.385 . S
C1174 C1175 1.395 . S
C1174 H1197 0.929 . S
C1175 C1174 1.395 . S
C1175 C1176 1.335 . S
C1176 C1175 1.335 . S
C1176 C1177 1.398 . S
C1176 H1198 0.930 . S
C1177 C1172 1.382 . S
C1177 C1176 1.398 . S
C1177 H1199 0.929 . S
C1178 O1188 1.271 1_556 S
C1178 O1189 1.251 . S
C1179 O1190 1.252 . S
C1179 O1191 1.272 1_556 S
O1180 Sm1160 2.543 . S
O1180 C1162 1.261 . S
O1181 Sm1160 2.450 . S
O1181 C1162 1.242 . S
O1182 Sm1160 2.681 1_556 S
O1182 Sm1161 2.386 . S
O1182 C1169 1.271 1_556 S
O1183 Sm1160 2.464 . S
O1183 C1169 1.251 . S
O1184 Sm1160 2.396 . S
O1184 C1170 1.252 . S
O1185 Sm1161 2.408 . S
O1185 C1170 1.272 1_556 S
O1186 Sm1161 2.543 . S
O1186 C1171 1.261 . S
O1187 Sm1161 2.450 . S
O1187 C1171 1.242 . S
O1188 Sm1160 2.386 . S
O1188 Sm1161 2.681 1_554 S
O1188 C1178 1.271 1_554 S
O1189 Sm1161 2.464 . S
O1189 C1178 1.251 . S
O1190 Sm1161 2.396 . S
O1190 C1179 1.252 . S
O1191 Sm1160 2.408 . S
O1191 C1179 1.272 1_554 S
H1192 C1164 0.930 . S
H1193 C1165 0.929 . S
H1194 C1167 0.930 . S
H1195 C1168 0.929 . S
H1196 C1173 0.930 . S
H1197 C1174 0.929 . S
H1198 C1176 0.930 . S
H1199 C1177 0.929 . S
Sm1200 C1202 2.846 . S
Sm1200 O1220 2.543 . S
Sm1200 O1221 2.450 . S
Sm1200 O1222 2.681 . S
Sm1200 O1223 2.464 . S
Sm1200 O1224 2.396 . S
Sm1200 O1228 2.386 . S
Sm1200 O1231 2.408 . S
Sm1201 C1211 2.846 . S
Sm1201 O1222 2.386 . S
Sm1201 O1225 2.408 . S
Sm1201 O1226 2.543 . S
Sm1201 O1227 2.450 . S
Sm1201 O1228 2.681 . S
Sm1201 O1229 2.464 . S
Sm1201 O1230 2.396 . S
C1202 Sm1200 2.846 . S
C1202 C1203 1.506 . S
C1202 O1220 1.261 . S
C1202 O1221 1.242 . S
C1203 C1202 1.506 . S
C1203 C1204 1.358 . S
C1203 C1208 1.382 . S
C1204 C1203 1.358 . S
C1204 C1205 1.385 . S
C1204 H1232 0.930 . S
C1205 C1204 1.385 . S
C1205 C1206 1.395 . S
C1205 H1233 0.929 . S
C1206 C1205 1.395 . S
C1206 C1207 1.335 . S
C1207 C1206 1.335 . S
C1207 C1208 1.398 . S
C1207 H1234 0.930 . S
C1208 C1203 1.382 . S
C1208 C1207 1.398 . S
C1208 H1235 0.929 . S
C1209 O1222 1.271 . S
C1209 O1223 1.251 . S
C1210 O1224 1.252 . S
C1210 O1225 1.272 . S
C1211 Sm1201 2.846 . S
C1211 C1212 1.506 . S
C1211 O1226 1.261 . S
C1211 O1227 1.242 . S
C1212 C1211 1.506 . S
C1212 C1213 1.358 . S
C1212 C1217 1.382 . S
C1213 C1212 1.358 . S
C1213 C1214 1.385 . S
C1213 H1236 0.930 . S
C1214 C1213 1.385 . S
C1214 C1215 1.395 . S
C1214 H1237 0.929 . S
C1215 C1214 1.395 . S
C1215 C1216 1.335 . S
C1216 C1215 1.335 . S
C1216 C1217 1.398 . S
C1216 H1238 0.930 . S
C1217 C1212 1.382 . S
C1217 C1216 1.398 . S
C1217 H1239 0.929 . S
C1218 O1228 1.271 . S
C1218 O1229 1.251 . S
C1219 O1230 1.252 . S
C1219 O1231 1.272 . S
O1220 Sm1200 2.543 . S
O1220 C1202 1.261 . S
O1221 Sm1200 2.450 . S
O1221 C1202 1.242 . S
O1222 Sm1200 2.681 . S
O1222 Sm1201 2.386 . S
O1222 C1209 1.271 . S
O1223 Sm1200 2.464 . S
O1223 C1209 1.251 . S
O1224 Sm1200 2.396 . S
O1224 C1210 1.252 . S
O1225 Sm1201 2.408 . S
O1225 C1210 1.272 . S
O1226 Sm1201 2.543 . S
O1226 C1211 1.261 . S
O1227 Sm1201 2.450 . S
O1227 C1211 1.242 . S
O1228 Sm1200 2.386 . S
O1228 Sm1201 2.681 . S
O1228 C1218 1.271 . S
O1229 Sm1201 2.464 . S
O1229 C1218 1.251 . S
O1230 Sm1201 2.396 . S
O1230 C1219 1.252 . S
O1231 Sm1200 2.408 . S
O1231 C1219 1.272 . S
H1232 C1204 0.930 . S
H1233 C1205 0.929 . S
H1234 C1207 0.930 . S
H1235 C1208 0.929 . S
H1236 C1213 0.930 . S
H1237 C1214 0.929 . S
H1238 C1216 0.930 . S
H1239 C1217 0.929 . S
Sm1240 C1242 2.846 . S
Sm1240 O1260 2.543 . S
Sm1240 O1261 2.450 . S
Sm1240 O1262 2.681 . S
Sm1240 O1263 2.464 . S
Sm1240 O1264 2.396 . S
Sm1240 O1268 2.386 . S
Sm1240 O1271 2.408 . S
Sm1241 C1251 2.846 . S
Sm1241 O1262 2.386 . S
Sm1241 O1265 2.408 . S
Sm1241 O1266 2.543 . S
Sm1241 O1267 2.450 . S
Sm1241 O1268 2.681 . S
Sm1241 O1269 2.464 . S
Sm1241 O1270 2.396 . S
C1242 Sm1240 2.846 . S
C1242 C1243 1.506 . S
C1242 O1260 1.261 . S
C1242 O1261 1.242 . S
C1243 C1242 1.506 . S
C1243 C1244 1.358 . S
C1243 C1248 1.382 . S
C1244 C1243 1.358 . S
C1244 C1245 1.385 . S
C1244 H1272 0.930 . S
C1245 C1244 1.385 . S
C1245 C1246 1.395 . S
C1245 H1273 0.929 . S
C1246 C1245 1.395 . S
C1246 C1247 1.335 . S
C1247 C1246 1.335 . S
C1247 C1248 1.398 . S
C1247 H1274 0.930 . S
C1248 C1243 1.382 . S
C1248 C1247 1.398 . S
C1248 H1275 0.929 . S
C1249 O1262 1.271 . S
C1249 O1263 1.251 . S
C1250 O1264 1.252 . S
C1250 O1265 1.272 . S
C1251 Sm1241 2.846 . S
C1251 C1252 1.506 . S
C1251 O1266 1.261 . S
C1251 O1267 1.242 . S
C1252 C1251 1.506 . S
C1252 C1253 1.358 . S
C1252 C1257 1.382 . S
C1253 C1252 1.358 . S
C1253 C1254 1.385 . S
C1253 H1276 0.930 . S
C1254 C1253 1.385 . S
C1254 C1255 1.395 . S
C1254 H1277 0.929 . S
C1255 C1254 1.395 . S
C1255 C1256 1.335 . S
C1256 C1255 1.335 . S
C1256 C1257 1.398 . S
C1256 H1278 0.930 . S
C1257 C1252 1.382 . S
C1257 C1256 1.398 . S
C1257 H1279 0.929 . S
C1258 O1268 1.271 . S
C1258 O1269 1.251 . S
C1259 O1270 1.252 . S
C1259 O1271 1.272 . S
O1260 Sm1240 2.543 . S
O1260 C1242 1.261 . S
O1261 Sm1240 2.450 . S
O1261 C1242 1.242 . S
O1262 Sm1240 2.681 . S
O1262 Sm1241 2.386 . S
O1262 C1249 1.271 . S
O1263 Sm1240 2.464 . S
O1263 C1249 1.251 . S
O1264 Sm1240 2.396 . S
O1264 C1250 1.252 . S
O1265 Sm1241 2.408 . S
O1265 C1250 1.272 . S
O1266 Sm1241 2.543 . S
O1266 C1251 1.261 . S
O1267 Sm1241 2.450 . S
O1267 C1251 1.242 . S
O1268 Sm1240 2.386 . S
O1268 Sm1241 2.681 . S
O1268 C1258 1.271 . S
O1269 Sm1241 2.464 . S
O1269 C1258 1.251 . S
O1270 Sm1241 2.396 . S
O1270 C1259 1.252 . S
O1271 Sm1240 2.408 . S
O1271 C1259 1.272 . S
H1272 C1244 0.930 . S
H1273 C1245 0.929 . S
H1274 C1247 0.930 . S
H1275 C1248 0.929 . S
H1276 C1253 0.930 . S
H1277 C1254 0.929 . S
H1278 C1256 0.930 . S
H1279 C1257 0.929 . S
Sm1280 C1282 2.846 . S
Sm1280 O1300 2.543 . S
Sm1280 O1301 2.450 . S
Sm1280 O1302 2.681 . S
Sm1280 O1303 2.464 . S
Sm1280 O1304 2.396 . S
Sm1280 O1308 2.386 . S
Sm1280 O1311 2.408 . S
Sm1281 C1291 2.846 . S
Sm1281 O1302 2.386 . S
Sm1281 O1305 2.408 . S
Sm1281 O1306 2.543 . S
Sm1281 O1307 2.450 . S
Sm1281 O1308 2.681 . S
Sm1281 O1309 2.464 . S
Sm1281 O1310 2.396 . S
C1282 Sm1280 2.846 . S
C1282 C1283 1.506 . S
C1282 O1300 1.261 . S
C1282 O1301 1.242 . S
C1283 C1282 1.506 . S
C1283 C1284 1.358 . S
C1283 C1288 1.382 . S
C1284 C1283 1.358 . S
C1284 C1285 1.385 . S
C1284 H1312 0.930 . S
C1285 C1284 1.385 . S
C1285 C1286 1.395 . S
C1285 H1313 0.929 . S
C1286 C1285 1.395 . S
C1286 C1287 1.335 . S
C1287 C1286 1.335 . S
C1287 C1288 1.398 . S
C1287 H1314 0.930 . S
C1288 C1283 1.382 . S
C1288 C1287 1.398 . S
C1288 H1315 0.929 . S
C1289 O1302 1.271 . S
C1289 O1303 1.251 . S
C1290 O1304 1.252 . S
C1290 O1305 1.272 . S
C1291 Sm1281 2.846 . S
C1291 C1292 1.506 . S
C1291 O1306 1.261 . S
C1291 O1307 1.242 . S
C1292 C1291 1.506 . S
C1292 C1293 1.358 . S
C1292 C1297 1.382 . S
C1293 C1292 1.358 . S
C1293 C1294 1.385 . S
C1293 H1316 0.930 . S
C1294 C1293 1.385 . S
C1294 C1295 1.395 . S
C1294 H1317 0.929 . S
C1295 C1294 1.395 . S
C1295 C1296 1.335 . S
C1296 C1295 1.335 . S
C1296 C1297 1.398 . S
C1296 H1318 0.930 . S
C1297 C1292 1.382 . S
C1297 C1296 1.398 . S
C1297 H1319 0.929 . S
C1298 O1308 1.271 . S
C1298 O1309 1.251 . S
C1299 O1310 1.252 . S
C1299 O1311 1.272 . S
O1300 Sm1280 2.543 . S
O1300 C1282 1.261 . S
O1301 Sm1280 2.450 . S
O1301 C1282 1.242 . S
O1302 Sm1280 2.681 . S
O1302 Sm1281 2.386 . S
O1302 C1289 1.271 . S
O1303 Sm1280 2.464 . S
O1303 C1289 1.251 . S
O1304 Sm1280 2.396 . S
O1304 C1290 1.252 . S
O1305 Sm1281 2.408 . S
O1305 C1290 1.272 . S
O1306 Sm1281 2.543 . S
O1306 C1291 1.261 . S
O1307 Sm1281 2.450 . S
O1307 C1291 1.242 . S
O1308 Sm1280 2.386 . S
O1308 Sm1281 2.681 . S
O1308 C1298 1.271 . S
O1309 Sm1281 2.464 . S
O1309 C1298 1.251 . S
O1310 Sm1281 2.396 . S
O1310 C1299 1.252 . S
O1311 Sm1280 2.408 . S
O1311 C1299 1.272 . S
H1312 C1284 0.930 . S
H1313 C1285 0.929 . S
H1314 C1287 0.930 . S
H1315 C1288 0.929 . S
H1316 C1293 0.930 . S
H1317 C1294 0.929 . S
H1318 C1296 0.930 . S
H1319 C1297 0.929 . S
Sm1320 C1322 2.846 . S
Sm1320 O1340 2.543 . S
Sm1320 O1341 2.450 . S
Sm1320 O1342 2.681 . S
Sm1320 O1343 2.464 . S
Sm1320 O1344 2.396 . S
Sm1320 O1348 2.386 . S
Sm1320 O1351 2.408 . S
Sm1321 C1331 2.846 . S
Sm1321 O1342 2.386 . S
Sm1321 O1345 2.408 . S
Sm1321 O1346 2.543 . S
Sm1321 O1347 2.450 . S
Sm1321 O1348 2.681 . S
Sm1321 O1349 2.464 . S
Sm1321 O1350 2.396 . S
C1322 Sm1320 2.846 . S
C1322 C1323 1.506 . S
C1322 O1340 1.261 . S
C1322 O1341 1.242 . S
C1323 C1322 1.506 . S
C1323 C1324 1.358 . S
C1323 C1328 1.382 . S
C1324 C1323 1.358 . S
C1324 C1325 1.385 . S
C1324 H1352 0.930 . S
C1325 C1324 1.385 . S
C1325 C1326 1.395 . S
C1325 H1353 0.929 . S
C1326 C1325 1.395 . S
C1326 C1327 1.335 . S
C1327 C1326 1.335 . S
C1327 C1328 1.398 . S
C1327 H1354 0.930 . S
C1328 C1323 1.382 . S
C1328 C1327 1.398 . S
C1328 H1355 0.929 . S
C1329 O1342 1.271 . S
C1329 O1343 1.251 . S
C1330 O1344 1.252 . S
C1330 O1345 1.272 . S
C1331 Sm1321 2.846 . S
C1331 C1332 1.506 . S
C1331 O1346 1.261 . S
C1331 O1347 1.242 . S
C1332 C1331 1.506 . S
C1332 C1333 1.358 . S
C1332 C1337 1.382 . S
C1333 C1332 1.358 . S
C1333 C1334 1.385 . S
C1333 H1356 0.930 . S
C1334 C1333 1.385 . S
C1334 C1335 1.395 . S
C1334 H1357 0.929 1_455 S
C1335 C1334 1.395 . S
C1335 C1336 1.335 . S
C1336 C1335 1.335 . S
C1336 C1337 1.398 . S
C1336 H1358 0.930 . S
C1337 C1332 1.382 . S
C1337 C1336 1.398 . S
C1337 H1359 0.929 . S
C1338 O1348 1.271 . S
C1338 O1349 1.251 . S
C1339 O1350 1.252 . S
C1339 O1351 1.272 . S
O1340 Sm1320 2.543 . S
O1340 C1322 1.261 . S
O1341 Sm1320 2.450 . S
O1341 C1322 1.242 . S
O1342 Sm1320 2.681 . S
O1342 Sm1321 2.386 . S
O1342 C1329 1.271 . S
O1343 Sm1320 2.464 . S
O1343 C1329 1.251 . S
O1344 Sm1320 2.396 . S
O1344 C1330 1.252 . S
O1345 Sm1321 2.408 . S
O1345 C1330 1.272 . S
O1346 Sm1321 2.543 . S
O1346 C1331 1.261 . S
O1347 Sm1321 2.450 . S
O1347 C1331 1.242 . S
O1348 Sm1320 2.386 . S
O1348 Sm1321 2.681 . S
O1348 C1338 1.271 . S
O1349 Sm1321 2.464 . S
O1349 C1338 1.251 . S
O1350 Sm1321 2.396 . S
O1350 C1339 1.252 . S
O1351 Sm1320 2.408 . S
O1351 C1339 1.272 . S
H1352 C1324 0.930 . S
H1353 C1325 0.929 . S
H1354 C1327 0.930 . S
H1355 C1328 0.929 . S
H1356 C1333 0.930 . S
H1357 C1334 0.929 1_655 S
H1358 C1336 0.930 . S
H1359 C1337 0.929 . S
Sm1360 C1362 2.846 . S
Sm1360 O1380 2.543 . S
Sm1360 O1381 2.450 . S
Sm1360 O1382 2.681 . S
Sm1360 O1383 2.464 . S
Sm1360 O1384 2.396 . S
Sm1360 O1388 2.386 . S
Sm1360 O1391 2.408 . S
Sm1361 C1371 2.846 . S
Sm1361 O1382 2.386 . S
Sm1361 O1385 2.408 . S
Sm1361 O1386 2.543 . S
Sm1361 O1387 2.450 . S
Sm1361 O1388 2.681 . S
Sm1361 O1389 2.464 . S
Sm1361 O1390 2.396 . S
C1362 Sm1360 2.846 . S
C1362 C1363 1.506 . S
C1362 O1380 1.261 . S
C1362 O1381 1.242 . S
C1363 C1362 1.506 . S
C1363 C1364 1.358 . S
C1363 C1368 1.382 . S
C1364 C1363 1.358 . S
C1364 C1365 1.385 . S
C1364 H1392 0.930 . S
C1365 C1364 1.385 . S
C1365 C1366 1.395 . S
C1365 H1393 0.929 . S
C1366 C1365 1.395 . S
C1366 C1367 1.335 . S
C1367 C1366 1.335 . S
C1367 C1368 1.398 . S
C1367 H1394 0.930 . S
C1368 C1363 1.382 . S
C1368 C1367 1.398 . S
C1368 H1395 0.929 . S
C1369 O1382 1.271 . S
C1369 O1383 1.251 . S
C1370 O1384 1.252 . S
C1370 O1385 1.272 . S
C1371 Sm1361 2.846 . S
C1371 C1372 1.506 . S
C1371 O1386 1.261 . S
C1371 O1387 1.242 . S
C1372 C1371 1.506 . S
C1372 C1373 1.358 . S
C1372 C1377 1.382 . S
C1373 C1372 1.358 . S
C1373 C1374 1.385 . S
C1373 H1396 0.930 . S
C1374 C1373 1.385 . S
C1374 C1375 1.395 . S
C1374 H1397 0.929 . S
C1375 C1374 1.395 . S
C1375 C1376 1.335 . S
C1376 C1375 1.335 . S
C1376 C1377 1.398 . S
C1376 H1398 0.930 . S
C1377 C1372 1.382 . S
C1377 C1376 1.398 . S
C1377 H1399 0.929 . S
C1378 O1388 1.271 . S
C1378 O1389 1.251 . S
C1379 O1390 1.252 . S
C1379 O1391 1.272 . S
O1380 Sm1360 2.543 . S
O1380 C1362 1.261 . S
O1381 Sm1360 2.450 . S
O1381 C1362 1.242 . S
O1382 Sm1360 2.681 . S
O1382 Sm1361 2.386 . S
O1382 C1369 1.271 . S
O1383 Sm1360 2.464 . S
O1383 C1369 1.251 . S
O1384 Sm1360 2.396 . S
O1384 C1370 1.252 . S
O1385 Sm1361 2.408 . S
O1385 C1370 1.272 . S
O1386 Sm1361 2.543 . S
O1386 C1371 1.261 . S
O1387 Sm1361 2.450 . S
O1387 C1371 1.242 . S
O1388 Sm1360 2.386 . S
O1388 Sm1361 2.681 . S
O1388 C1378 1.271 . S
O1389 Sm1361 2.464 . S
O1389 C1378 1.251 . S
O1390 Sm1361 2.396 . S
O1390 C1379 1.252 . S
O1391 Sm1360 2.408 . S
O1391 C1379 1.272 . S
H1392 C1364 0.930 . S
H1393 C1365 0.929 . S
H1394 C1367 0.930 . S
H1395 C1368 0.929 . S
H1396 C1373 0.930 . S
H1397 C1374 0.929 . S
H1398 C1376 0.930 . S
H1399 C1377 0.929 . S
Sm1400 C1402 2.846 . S
Sm1400 O1420 2.543 . S
Sm1400 O1421 2.450 . S
Sm1400 O1422 2.681 . S
Sm1400 O1423 2.464 . S
Sm1400 O1424 2.396 . S
Sm1400 O1428 2.386 . S
Sm1400 O1431 2.408 . S
Sm1401 C1411 2.846 . S
Sm1401 O1422 2.386 . S
Sm1401 O1425 2.408 . S
Sm1401 O1426 2.543 . S
Sm1401 O1427 2.450 . S
Sm1401 O1428 2.681 . S
Sm1401 O1429 2.464 . S
Sm1401 O1430 2.396 . S
C1402 Sm1400 2.846 . S
C1402 C1403 1.506 . S
C1402 O1420 1.261 . S
C1402 O1421 1.242 . S
C1403 C1402 1.506 . S
C1403 C1404 1.358 . S
C1403 C1408 1.382 . S
C1404 C1403 1.358 . S
C1404 C1405 1.385 . S
C1404 H1432 0.930 . S
C1405 C1404 1.385 . S
C1405 C1406 1.395 . S
C1405 H1433 0.929 . S
C1406 C1405 1.395 . S
C1406 C1407 1.335 . S
C1407 C1406 1.335 . S
C1407 C1408 1.398 . S
C1407 H1434 0.930 . S
C1408 C1403 1.382 . S
C1408 C1407 1.398 . S
C1408 H1435 0.929 . S
C1409 O1422 1.271 . S
C1409 O1423 1.251 . S
C1410 O1424 1.252 . S
C1410 O1425 1.272 . S
C1411 Sm1401 2.846 . S
C1411 C1412 1.506 . S
C1411 O1426 1.261 . S
C1411 O1427 1.242 . S
C1412 C1411 1.506 . S
C1412 C1413 1.358 . S
C1412 C1417 1.382 . S
C1413 C1412 1.358 . S
C1413 C1414 1.385 . S
C1413 H1436 0.930 . S
C1414 C1413 1.385 . S
C1414 C1415 1.395 . S
C1414 H1437 0.929 1_565 S
C1415 C1414 1.395 . S
C1415 C1416 1.335 . S
C1416 C1415 1.335 . S
C1416 C1417 1.398 . S
C1416 H1438 0.930 . S
C1417 C1412 1.382 . S
C1417 C1416 1.398 . S
C1417 H1439 0.929 . S
C1418 O1428 1.271 . S
C1418 O1429 1.251 . S
C1419 O1430 1.252 . S
C1419 O1431 1.272 . S
O1420 Sm1400 2.543 . S
O1420 C1402 1.261 . S
O1421 Sm1400 2.450 . S
O1421 C1402 1.242 . S
O1422 Sm1400 2.681 . S
O1422 Sm1401 2.386 . S
O1422 C1409 1.271 . S
O1423 Sm1400 2.464 . S
O1423 C1409 1.251 . S
O1424 Sm1400 2.396 . S
O1424 C1410 1.252 . S
O1425 Sm1401 2.408 . S
O1425 C1410 1.272 . S
O1426 Sm1401 2.543 . S
O1426 C1411 1.261 . S
O1427 Sm1401 2.450 . S
O1427 C1411 1.242 . S
O1428 Sm1400 2.386 . S
O1428 Sm1401 2.681 . S
O1428 C1418 1.271 . S
O1429 Sm1401 2.464 . S
O1429 C1418 1.251 . S
O1430 Sm1401 2.396 . S
O1430 C1419 1.252 . S
O1431 Sm1400 2.408 . S
O1431 C1419 1.272 . S
H1432 C1404 0.930 . S
H1433 C1405 0.929 . S
H1434 C1407 0.930 . S
H1435 C1408 0.929 . S
H1436 C1413 0.930 . S
H1437 C1414 0.929 1_545 S
H1438 C1416 0.930 . S
H1439 C1417 0.929 . S
H1440 C1448 0.929 . S
H1441 C1450 0.930 . S
H1442 C1452 0.930 . S
H1443 C1455 0.929 . S
H1444 C1458 0.930 . S
H1445 C1460 0.960 . S
H1446 C1460 0.960 . S
H1447 C1460 0.960 . S
C1448 H1440 0.929 . S
C1448 C1449 1.377 . S
C1448 C1450 1.384 . S
C1449 C1448 1.377 . S
C1449 C1455 1.390 . S
C1450 H1441 0.930 . S
C1450 C1448 1.384 . S
C1450 C1451 1.372 . S
C1451 C1450 1.372 . S
C1451 C1452 1.400 . S
C1451 C1456 1.490 . S
C1452 H1442 0.930 . S
C1452 C1451 1.400 . S
C1452 C1455 1.386 . S
H1453 C1469 0.930 . S
H1454 C1470 0.931 . S
C1455 H1443 0.929 . S
C1455 C1449 1.390 . S
C1455 C1452 1.386 . S
C1456 C1451 1.490 . S
C1456 C1458 1.395 . S
C1456 C1459 1.403 . S
H1457 C1463 0.930 . S
C1458 H1444 0.930 . S
C1458 C1456 1.395 . S
C1458 C1461 1.403 . S
C1459 C1456 1.403 . S
C1459 C1460 1.524 . S
C1459 C1463 1.400 . S
C1460 H1445 0.960 . S
C1460 H1446 0.960 . S
C1460 H1447 0.960 . S
C1460 C1459 1.524 . S
C1461 C1458 1.403 . S
C1461 C1462 1.392 . S
C1461 C1465 1.495 . S
C1462 C1461 1.392 . S
C1462 C1463 1.385 . S
C1462 C1464 1.478 . S
C1463 H1457 0.930 . S
C1463 C1459 1.400 . S
C1463 C1462 1.385 . S
C1464 C1462 1.478 . S
C1464 C1466 1.381 1_545 S
C1464 C1470 1.383 1_545 S
C1465 C1461 1.495 . S
C1465 H1471 0.959 . S
C1465 H1472 0.961 . S
C1465 H1473 0.960 . S
C1466 C1464 1.381 1_565 S
C1466 C1467 1.394 . S
C1466 H1474 0.930 1_565 S
C1467 C1466 1.394 . S
C1467 C1468 1.383 . S
C1467 H1475 0.929 . S
C1468 C1467 1.383 . S
C1468 C1469 1.377 . S
C1469 H1453 0.930 . S
C1469 C1468 1.377 . S
C1469 C1470 1.379 . S
C1470 H1454 0.931 . S
C1470 C1464 1.383 1_565 S
C1470 C1469 1.379 . S
H1471 C1465 0.959 . S
H1472 C1465 0.961 . S
H1473 C1465 0.960 . S
H1474 C1466 0.930 1_545 S
H1475 C1467 0.929 . S
H1476 C1484 0.929 . S
H1477 C1486 0.930 1_655 S
H1478 C1488 0.930 . S
H1479 C1491 0.929 . S
H1480 C1494 0.930 . S
H1481 C1496 0.960 . S
H1482 C1496 0.960 . S
H1483 C1496 0.960 . S
C1484 H1476 0.929 . S
C1484 C1485 1.377 . S
C1484 C1486 1.384 . S
C1485 C1484 1.377 . S
C1485 C1491 1.390 . S
C1486 H1477 0.930 1_455 S
C1486 C1484 1.384 . S
C1486 C1487 1.372 1_455 S
C1487 C1486 1.372 1_655 S
C1487 C1488 1.400 1_655 S
C1487 C1492 1.490 . S
C1488 H1478 0.930 . S
C1488 C1487 1.400 1_455 S
C1488 C1491 1.386 . S
H1489 C1505 0.930 . S
H1490 C1506 0.931 . S
C1491 H1479 0.929 . S
C1491 C1485 1.390 . S
C1491 C1488 1.386 . S
C1492 C1487 1.490 . S
C1492 C1494 1.395 . S
C1492 C1495 1.403 . S
H1493 C1499 0.930 . S
C1494 H1480 0.930 . S
C1494 C1492 1.395 . S
C1494 C1497 1.403 . S
C1495 C1492 1.403 . S
C1495 C1496 1.524 . S
C1495 C1499 1.400 . S
C1496 H1481 0.960 . S
C1496 H1482 0.960 . S
C1496 H1483 0.960 . S
C1496 C1495 1.524 . S
C1497 C1494 1.403 . S
C1497 C1498 1.392 . S
C1497 C1501 1.495 . S
C1498 C1497 1.392 . S
C1498 C1499 1.385 . S
C1498 C1500 1.478 . S
C1499 H1493 0.930 . S
C1499 C1495 1.400 . S
C1499 C1498 1.385 . S
C1500 C1498 1.478 . S
C1500 C1502 1.381 . S
C1500 C1506 1.383 . S
C1501 C1497 1.495 . S
C1501 H1507 0.959 . S
C1501 H1508 0.961 . S
C1501 H1509 0.960 . S
C1502 C1500 1.381 . S
C1502 C1503 1.394 1_545 S
C1502 H1510 0.930 . S
C1503 C1502 1.394 1_565 S
C1503 C1504 1.383 . S
C1503 H1511 0.929 . S
C1504 C1503 1.383 . S
C1504 C1505 1.377 . S
C1505 H1489 0.930 . S
C1505 C1504 1.377 . S
C1505 C1506 1.379 1_565 S
C1506 H1490 0.931 . S
C1506 C1500 1.383 . S
C1506 C1505 1.379 1_545 S
H1507 C1501 0.959 . S
H1508 C1501 0.961 . S
H1509 C1501 0.960 . S
H1510 C1502 0.930 . S
H1511 C1503 0.929 . S
H1512 C1520 0.929 . S
H1513 C1522 0.930 . S
H1514 C1524 0.930 . S
H1515 C1527 0.929 . S
H1516 C1530 0.930 . S
H1517 C1532 0.960 . S
H1518 C1532 0.960 . S
H1519 C1532 0.960 . S
C1520 H1512 0.929 . S
C1520 C1521 1.377 . S
C1520 C1522 1.384 1_455 S
C1521 C1520 1.377 . S
C1521 C1527 1.390 . S
C1522 H1513 0.930 . S
C1522 C1520 1.384 1_655 S
C1522 C1523 1.372 . S
C1523 C1522 1.372 . S
C1523 C1524 1.400 . S
C1523 C1528 1.490 . S
C1524 H1514 0.930 . S
C1524 C1523 1.400 . S
C1524 C1527 1.386 1_655 S
H1525 C1541 0.930 . S
H1526 C1542 0.931 . S
C1527 H1515 0.929 . S
C1527 C1521 1.390 . S
C1527 C1524 1.386 1_455 S
C1528 C1523 1.490 . S
C1528 C1530 1.395 . S
C1528 C1531 1.403 . S
H1529 C1535 0.930 . S
C1530 H1516 0.930 . S
C1530 C1528 1.395 . S
C1530 C1533 1.403 . S
C1531 C1528 1.403 . S
C1531 C1532 1.524 . S
C1531 C1535 1.400 . S
C1532 H1517 0.960 . S
C1532 H1518 0.960 . S
C1532 H1519 0.960 . S
C1532 C1531 1.524 . S
C1533 C1530 1.403 . S
C1533 C1534 1.392 . S
C1533 C1537 1.495 . S
C1534 C1533 1.392 . S
C1534 C1535 1.385 . S
C1534 C1536 1.478 . S
C1535 H1529 0.930 . S
C1535 C1531 1.400 . S
C1535 C1534 1.385 . S
C1536 C1534 1.478 . S
C1536 C1538 1.381 . S
C1536 C1542 1.383 . S
C1537 C1533 1.495 . S
C1537 H1543 0.959 . S
C1537 H1544 0.961 . S
C1537 H1545 0.960 . S
C1538 C1536 1.381 . S
C1538 C1539 1.394 . S
C1538 H1546 0.930 . S
C1539 C1538 1.394 . S
C1539 C1540 1.383 . S
C1539 H1547 0.929 . S
C1540 C1539 1.383 . S
C1540 C1541 1.377 . S
C1541 H1525 0.930 . S
C1541 C1540 1.377 . S
C1541 C1542 1.379 . S
C1542 H1526 0.931 . S
C1542 C1536 1.383 . S
C1542 C1541 1.379 . S
H1543 C1537 0.959 . S
H1544 C1537 0.961 . S
H1545 C1537 0.960 . S
H1546 C1538 0.930 . S
H1547 C1539 0.929 . S
H1548 C1556 0.929 . S
H1549 C1558 0.930 . S
H1550 C1560 0.930 . S
H1551 C1563 0.929 . S
H1552 C1566 0.930 . S
H1553 C1568 0.960 . S
H1554 C1568 0.960 . S
H1555 C1568 0.960 . S
C1556 H1548 0.929 . S
C1556 C1557 1.377 . S
C1556 C1558 1.384 . S
C1557 C1556 1.377 . S
C1557 C1563 1.390 . S
C1558 H1549 0.930 . S
C1558 C1556 1.384 . S
C1558 C1559 1.372 . S
C1559 C1558 1.372 . S
C1559 C1560 1.400 . S
C1559 C1564 1.490 . S
C1560 H1550 0.930 . S
C1560 C1559 1.400 . S
C1560 C1563 1.386 . S
H1561 C1577 0.930 . S
H1562 C1578 0.931 . S
C1563 H1551 0.929 . S
C1563 C1557 1.390 . S
C1563 C1560 1.386 . S
C1564 C1559 1.490 . S
C1564 C1566 1.395 . S
C1564 C1567 1.403 . S
H1565 C1571 0.930 . S
C1566 H1552 0.930 . S
C1566 C1564 1.395 . S
C1566 C1569 1.403 . S
C1567 C1564 1.403 . S
C1567 C1568 1.524 . S
C1567 C1571 1.400 . S
C1568 H1553 0.960 . S
C1568 H1554 0.960 . S
C1568 H1555 0.960 . S
C1568 C1567 1.524 . S
C1569 C1566 1.403 . S
C1569 C1570 1.392 . S
C1569 C1573 1.495 . S
C1570 C1569 1.392 . S
C1570 C1571 1.385 . S
C1570 C1572 1.478 . S
C1571 H1565 0.930 . S
C1571 C1567 1.400 . S
C1571 C1570 1.385 . S
C1572 C1570 1.478 . S
C1572 C1574 1.381 1_455 S
C1572 C1578 1.383 . S
C1573 C1569 1.495 . S
C1573 H1579 0.959 . S
C1573 H1580 0.961 . S
C1573 H1581 0.960 . S
C1574 C1572 1.381 1_655 S
C1574 C1575 1.394 . S
C1574 H1582 0.930 . S
C1575 C1574 1.394 . S
C1575 C1576 1.383 . S
C1575 H1583 0.929 . S
C1576 C1575 1.383 . S
C1576 C1577 1.377 . S
C1577 H1561 0.930 . S
C1577 C1576 1.377 . S
C1577 C1578 1.379 1_655 S
C1578 H1562 0.931 . S
C1578 C1572 1.383 . S
C1578 C1577 1.379 1_455 S
H1579 C1573 0.959 . S
H1580 C1573 0.961 . S
H1581 C1573 0.960 . S
H1582 C1574 0.930 . S
H1583 C1575 0.929 . S
H1584 C1592 0.929 . S
H1585 C1594 0.930 . S
H1586 C1596 0.930 . S
H1587 C1599 0.929 . S
H1588 C1602 0.930 . S
H1589 C1604 0.960 . S
H1590 C1604 0.960 . S
H1591 C1604 0.960 . S
C1592 H1584 0.929 . S
C1592 C1593 1.377 . S
C1592 C1594 1.384 . S
C1593 C1592 1.377 . S
C1593 C1599 1.390 . S
C1594 H1585 0.930 . S
C1594 C1592 1.384 . S
C1594 C1595 1.372 . S
C1595 C1594 1.372 . S
C1595 C1596 1.400 . S
C1595 C1600 1.490 . S
C1596 H1586 0.930 . S
C1596 C1595 1.400 . S
C1596 C1599 1.386 . S
H1597 C1613 0.930 . S
H1598 C1614 0.931 . S
C1599 H1587 0.929 . S
C1599 C1593 1.390 . S
C1599 C1596 1.386 . S
C1600 C1595 1.490 . S
C1600 C1602 1.395 . S
C1600 C1603 1.403 . S
H1601 C1607 0.930 . S
C1602 H1588 0.930 . S
C1602 C1600 1.395 . S
C1602 C1605 1.403 . S
C1603 C1600 1.403 . S
C1603 C1604 1.524 . S
C1603 C1607 1.400 . S
C1604 H1589 0.960 . S
C1604 H1590 0.960 . S
C1604 H1591 0.960 . S
C1604 C1603 1.524 . S
C1605 C1602 1.403 . S
C1605 C1606 1.392 . S
C1605 C1609 1.495 . S
C1606 C1605 1.392 . S
C1606 C1607 1.385 . S
C1606 C1608 1.478 . S
C1607 H1601 0.930 . S
C1607 C1603 1.400 . S
C1607 C1606 1.385 . S
C1608 C1606 1.478 . S
C1608 C1610 1.381 . S
C1608 C1614 1.383 . S
C1609 C1605 1.495 . S
C1609 H1615 0.959 . S
C1609 H1616 0.961 . S
C1609 H1617 0.960 . S
C1610 C1608 1.381 . S
C1610 C1611 1.394 . S
C1610 H1618 0.930 . S
C1611 C1610 1.394 . S
C1611 C1612 1.383 1_565 S
C1611 H1619 0.929 . S
C1612 C1611 1.383 1_545 S
C1612 C1613 1.377 . S
C1613 H1597 0.930 . S
C1613 C1612 1.377 . S
C1613 C1614 1.379 1_545 S
C1614 H1598 0.931 . S
C1614 C1608 1.383 . S
C1614 C1613 1.379 1_565 S
H1615 C1609 0.959 . S
H1616 C1609 0.961 . S
H1617 C1609 0.960 . S
H1618 C1610 0.930 . S
H1619 C1611 0.929 . S
H1620 C1628 0.929 . S
H1621 C1630 0.930 . S
H1622 C1632 0.930 . S
H1623 C1635 0.929 . S
H1624 C1638 0.930 . S
H1625 C1640 0.960 . S
H1626 C1640 0.960 . S
H1627 C1640 0.960 . S
C1628 H1620 0.929 . S
C1628 C1629 1.377 . S
C1628 C1630 1.384 1_655 S
C1629 C1628 1.377 . S
C1629 C1635 1.390 . S
C1630 H1621 0.930 . S
C1630 C1628 1.384 1_455 S
C1630 C1631 1.372 . S
C1631 C1630 1.372 . S
C1631 C1632 1.400 . S
C1631 C1636 1.490 . S
C1632 H1622 0.930 . S
C1632 C1631 1.400 . S
C1632 C1635 1.386 1_455 S
H1633 C1649 0.930 . S
H1634 C1650 0.931 . S
C1635 H1623 0.929 . S
C1635 C1629 1.390 . S
C1635 C1632 1.386 1_655 S
C1636 C1631 1.490 . S
C1636 C1638 1.395 . S
C1636 C1639 1.403 . S
H1637 C1643 0.930 . S
C1638 H1624 0.930 . S
C1638 C1636 1.395 . S
C1638 C1641 1.403 . S
C1639 C1636 1.403 . S
C1639 C1640 1.524 . S
C1639 C1643 1.400 . S
C1640 H1625 0.960 . S
C1640 H1626 0.960 . S
C1640 H1627 0.960 . S
C1640 C1639 1.524 . S
C1641 C1638 1.403 . S
C1641 C1642 1.392 . S
C1641 C1645 1.495 . S
C1642 C1641 1.392 . S
C1642 C1643 1.385 . S
C1642 C1644 1.478 . S
C1643 H1637 0.930 . S
C1643 C1639 1.400 . S
C1643 C1642 1.385 . S
C1644 C1642 1.478 . S
C1644 C1646 1.381 1_565 S
C1644 C1650 1.383 1_565 S
C1645 C1641 1.495 . S
C1645 H1651 0.959 . S
C1645 H1652 0.961 . S
C1645 H1653 0.960 . S
C1646 C1644 1.381 1_545 S
C1646 C1647 1.394 . S
C1646 H1654 0.930 1_545 S
C1647 C1646 1.394 . S
C1647 C1648 1.383 . S
C1647 H1655 0.929 . S
C1648 C1647 1.383 . S
C1648 C1649 1.377 . S
C1649 H1633 0.930 . S
C1649 C1648 1.377 . S
C1649 C1650 1.379 . S
C1650 H1634 0.931 . S
C1650 C1644 1.383 1_545 S
C1650 C1649 1.379 . S
H1651 C1645 0.959 . S
H1652 C1645 0.961 . S
H1653 C1645 0.960 . S
H1654 C1646 0.930 1_565 S
H1655 C1647 0.929 . S
H1656 C1664 0.929 . S
H1657 C1666 0.930 . S
H1658 C1668 0.930 . S
H1659 C1671 0.929 . S
H1660 C1674 0.930 . S
H1661 C1676 0.960 . S
H1662 C1676 0.960 . S
H1663 C1676 0.960 . S
C1664 H1656 0.929 . S
C1664 C1665 1.377 . S
C1664 C1666 1.384 . S
C1665 C1664 1.377 . S
C1665 C1671 1.390 . S
C1666 H1657 0.930 . S
C1666 C1664 1.384 . S
C1666 C1667 1.372 . S
C1667 C1666 1.372 . S
C1667 C1668 1.400 . S
C1667 C1672 1.490 . S
C1668 H1658 0.930 . S
C1668 C1667 1.400 . S
C1668 C1671 1.386 . S
H1669 C1685 0.930 . S
H1670 C1686 0.931 . S
C1671 H1659 0.929 . S
C1671 C1665 1.390 . S
C1671 C1668 1.386 . S
C1672 C1667 1.490 . S
C1672 C1674 1.395 . S
C1672 C1675 1.403 . S
H1673 C1679 0.930 . S
C1674 H1660 0.930 . S
C1674 C1672 1.395 . S
C1674 C1677 1.403 . S
C1675 C1672 1.403 . S
C1675 C1676 1.524 . S
C1675 C1679 1.400 . S
C1676 H1661 0.960 . S
C1676 H1662 0.960 . S
C1676 H1663 0.960 . S
C1676 C1675 1.524 . S
C1677 C1674 1.403 . S
C1677 C1678 1.392 . S
C1677 C1681 1.495 . S
C1678 C1677 1.392 . S
C1678 C1679 1.385 . S
C1678 C1680 1.478 . S
C1679 H1673 0.930 . S
C1679 C1675 1.400 . S
C1679 C1678 1.385 . S
C1680 C1678 1.478 . S
C1680 C1682 1.381 . S
C1680 C1686 1.383 1_565 S
C1681 C1677 1.495 . S
C1681 H1687 0.959 . S
C1681 H1688 0.961 . S
C1681 H1689 0.960 . S
C1682 C1680 1.381 . S
C1682 C1683 1.394 1_565 S
C1682 H1690 0.930 . S
C1683 C1682 1.394 1_545 S
C1683 C1684 1.383 . S
C1683 H1691 0.929 . S
C1684 C1683 1.383 . S
C1684 C1685 1.377 . S
C1685 H1669 0.930 . S
C1685 C1684 1.377 . S
C1685 C1686 1.379 . S
C1686 H1670 0.931 . S
C1686 C1680 1.383 1_545 S
C1686 C1685 1.379 . S
H1687 C1681 0.959 . S
H1688 C1681 0.961 . S
H1689 C1681 0.960 . S
H1690 C1682 0.930 . S
H1691 C1683 0.929 . S
H1692 C1700 0.929 . S
H1693 C1702 0.930 . S
H1694 C1704 0.943 . S
H1695 C1707 0.929 . S
H1696 C1710 0.930 . S
H1697 C1712 0.960 . S
H1698 C1712 0.960 . S
H1699 C1712 0.960 . S
C1700 H1692 0.929 . S
C1700 C1701 1.377 1_565 S
C1700 C1702 1.384 . S
C1701 C1700 1.377 1_545 S
C1701 C1707 1.390 . S
C1702 H1693 0.930 . S
C1702 C1700 1.384 . S
C1702 C1703 1.372 . S
C1703 C1702 1.372 . S
C1703 C1704 1.400 . S
C1703 C1708 1.490 . S
C1704 H1694 0.943 . S
C1704 C1703 1.400 . S
C1704 C1707 1.386 1_565 S
H1705 C1721 0.930 . S
H1706 C1722 0.931 . S
C1707 H1695 0.929 . S
C1707 C1701 1.390 . S
C1707 C1704 1.386 1_545 S
C1708 C1703 1.490 . S
C1708 C1710 1.395 . S
C1708 C1711 1.403 . S
H1709 C1715 0.930 . S
C1710 H1696 0.930 . S
C1710 C1708 1.395 . S
C1710 C1713 1.403 . S
C1711 C1708 1.403 . S
C1711 C1712 1.524 . S
C1711 C1715 1.400 . S
C1712 H1697 0.960 . S
C1712 H1698 0.960 . S
C1712 H1699 0.960 . S
C1712 C1711 1.524 . S
C1713 C1710 1.403 . S
C1713 C1714 1.392 . S
C1713 C1717 1.495 . S
C1714 C1713 1.392 . S
C1714 C1715 1.385 . S
C1714 C1716 1.478 . S
C1715 H1709 0.930 . S
C1715 C1711 1.400 . S
C1715 C1714 1.385 . S
C1716 C1714 1.478 . S
C1716 C1718 1.381 . S
C1716 C1722 1.383 1_455 S
C1717 C1713 1.495 . S
C1717 H1723 0.959 . S
C1717 H1724 0.961 . S
C1717 H1725 0.960 . S
C1718 C1716 1.381 . S
C1718 C1719 1.394 1_455 S
C1718 H1726 0.930 . S
C1719 C1718 1.394 1_655 S
C1719 C1720 1.383 . S
C1719 H1727 0.929 . S
C1720 C1719 1.383 . S
C1720 C1721 1.377 . S
C1721 H1705 0.930 . S
C1721 C1720 1.377 . S
C1721 C1722 1.379 . S
C1722 H1706 0.931 . S
C1722 C1716 1.383 1_655 S
C1722 C1721 1.379 . S
H1723 C1717 0.959 . S
H1724 C1717 0.961 . S
H1725 C1717 0.960 . S
H1726 C1718 0.930 . S
H1727 C1719 0.929 . S
H1728 C1736 0.929 . S
H1729 C1738 0.930 . S
H1730 C1740 0.930 . S
H1731 C1743 0.929 . S
H1732 C1746 0.930 . S
H1733 C1748 0.960 . S
H1734 C1748 0.960 . S
H1735 C1748 0.960 . S
C1736 H1728 0.929 . S
C1736 C1737 1.377 . S
C1736 C1738 1.384 . S
C1737 C1736 1.377 . S
C1737 C1743 1.390 1_655 S
C1738 H1729 0.930 . S
C1738 C1736 1.384 . S
C1738 C1739 1.372 1_655 S
C1739 C1738 1.372 1_455 S
C1739 C1740 1.400 . S
C1739 C1744 1.490 . S
C1740 H1730 0.930 . S
C1740 C1739 1.400 . S
C1740 C1743 1.386 . S
H1741 C1757 0.930 . S
H1742 C1758 0.931 . S
C1743 H1731 0.929 . S
C1743 C1737 1.390 1_455 S
C1743 C1740 1.386 . S
C1744 C1739 1.490 . S
C1744 C1746 1.395 . S
C1744 C1747 1.403 . S
H1745 C1751 0.930 . S
C1746 H1732 0.930 . S
C1746 C1744 1.395 . S
C1746 C1749 1.403 . S
C1747 C1744 1.403 . S
C1747 C1748 1.524 . S
C1747 C1751 1.400 . S
C1748 H1733 0.960 . S
C1748 H1734 0.960 . S
C1748 H1735 0.960 . S
C1748 C1747 1.524 . S
C1749 C1746 1.403 . S
C1749 C1750 1.392 . S
C1749 C1753 1.495 . S
C1750 C1749 1.392 . S
C1750 C1751 1.385 . S
C1750 C1752 1.478 . S
C1751 H1745 0.930 . S
C1751 C1747 1.400 . S
C1751 C1750 1.385 . S
C1752 C1750 1.478 . S
C1752 C1754 1.381 . S
C1752 C1758 1.383 . S
C1753 C1749 1.495 . S
C1753 H1759 0.959 . S
C1753 H1760 0.961 . S
C1753 H1761 0.960 . S
C1754 C1752 1.381 . S
C1754 C1755 1.394 . S
C1754 H1762 0.930 . S
C1755 C1754 1.394 . S
C1755 C1756 1.383 . S
C1755 H1763 0.929 . S
C1756 C1755 1.383 . S
C1756 C1757 1.377 . S
C1757 H1741 0.930 . S
C1757 C1756 1.377 . S
C1757 C1758 1.379 . S
C1758 H1742 0.931 . S
C1758 C1752 1.383 . S
C1758 C1757 1.379 . S
H1759 C1753 0.959 . S
H1760 C1753 0.961 . S
H1761 C1753 0.960 . S
H1762 C1754 0.930 . S
H1763 C1755 0.929 . S
H1764 C1772 0.929 . S
H1765 C1774 0.930 . S
H1766 C1776 0.930 . S
H1767 C1779 0.929 . S
H1768 C1782 0.930 . S
H1769 C1784 0.960 . S
H1770 C1784 0.960 . S
H1771 C1784 0.960 . S
C1772 H1764 0.929 . S
C1772 C1773 1.377 . S
C1772 C1774 1.384 . S
C1773 C1772 1.377 . S
C1773 C1779 1.390 . S
C1774 H1765 0.930 . S
C1774 C1772 1.384 . S
C1774 C1775 1.372 . S
C1775 C1774 1.372 . S
C1775 C1776 1.400 . S
C1775 C1780 1.490 . S
C1776 H1766 0.930 . S
C1776 C1775 1.400 . S
C1776 C1779 1.386 . S
H1777 C1793 0.930 . S
H1778 C1794 0.931 1_655 S
C1779 H1767 0.929 . S
C1779 C1773 1.390 . S
C1779 C1776 1.386 . S
C1780 C1775 1.490 . S
C1780 C1782 1.395 . S
C1780 C1783 1.403 . S
H1781 C1787 0.930 . S
C1782 H1768 0.930 . S
C1782 C1780 1.395 . S
C1782 C1785 1.403 . S
C1783 C1780 1.403 . S
C1783 C1784 1.524 . S
C1783 C1787 1.400 . S
C1784 H1769 0.960 . S
C1784 H1770 0.960 . S
C1784 H1771 0.960 . S
C1784 C1783 1.524 . S
C1785 C1782 1.403 . S
C1785 C1786 1.392 . S
C1785 C1789 1.495 . S
C1786 C1785 1.392 . S
C1786 C1787 1.385 . S
C1786 C1788 1.478 . S
C1787 H1781 0.930 . S
C1787 C1783 1.400 . S
C1787 C1786 1.385 . S
C1788 C1786 1.478 . S
C1788 C1790 1.381 1_655 S
C1788 C1794 1.383 1_655 S
C1789 C1785 1.495 . S
C1789 H1795 0.959 . S
C1789 H1796 0.961 . S
C1789 H1797 0.960 . S
C1790 C1788 1.381 1_455 S
C1790 C1791 1.394 . S
C1790 H1798 0.930 . S
C1791 C1790 1.394 . S
C1791 C1792 1.383 . S
C1791 H1799 0.929 . S
C1792 C1791 1.383 . S
C1792 C1793 1.377 . S
C1793 H1777 0.930 . S
C1793 C1792 1.377 . S
C1793 C1794 1.379 . S
C1794 H1778 0.931 1_455 S
C1794 C1788 1.383 1_455 S
C1794 C1793 1.379 . S
H1795 C1789 0.959 . S
H1796 C1789 0.961 . S
H1797 C1789 0.960 . S
H1798 C1790 0.930 . S
H1799 C1791 0.929 . S
H1800 C1808 0.929 . S
H1801 C1810 0.930 . S
H1802 C1812 0.930 . S
H1803 C1815 0.929 . S
H1804 C1818 0.930 . S
H1805 C1820 0.960 . S
H1806 C1820 0.960 . S
H1807 C1820 0.960 . S
C1808 H1800 0.929 . S
C1808 C1809 1.377 . S
C1808 C1810 1.384 . S
C1809 C1808 1.377 . S
C1809 C1815 1.390 . S
C1810 H1801 0.930 . S
C1810 C1808 1.384 . S
C1810 C1811 1.372 . S
C1811 C1810 1.372 . S
C1811 C1812 1.400 . S
C1811 C1816 1.490 . S
C1812 H1802 0.930 . S
C1812 C1811 1.400 . S
C1812 C1815 1.386 . S
H1813 C1829 0.930 . S
H1814 C1830 0.931 . S
C1815 H1803 0.929 . S
C1815 C1809 1.390 . S
C1815 C1812 1.386 . S
C1816 C1811 1.490 . S
C1816 C1818 1.395 . S
C1816 C1819 1.403 . S
H1817 C1823 0.930 . S
C1818 H1804 0.930 . S
C1818 C1816 1.395 . S
C1818 C1821 1.403 . S
C1819 C1816 1.403 . S
C1819 C1820 1.524 . S
C1819 C1823 1.400 . S
C1820 H1805 0.960 . S
C1820 H1806 0.960 . S
C1820 H1807 0.960 . S
C1820 C1819 1.524 . S
C1821 C1818 1.403 . S
C1821 C1822 1.392 . S
C1821 C1825 1.495 . S
C1822 C1821 1.392 . S
C1822 C1823 1.385 . S
C1822 C1824 1.478 . S
C1823 H1817 0.930 . S
C1823 C1819 1.400 . S
C1823 C1822 1.385 . S
C1824 C1822 1.478 . S
C1824 C1826 1.381 . S
C1824 C1830 1.383 . S
C1825 C1821 1.495 . S
C1825 H1831 0.959 . S
C1825 H1832 0.961 . S
C1825 H1833 0.960 . S
C1826 C1824 1.381 . S
C1826 C1827 1.394 1_545 S
C1826 H1834 0.930 . S
C1827 C1826 1.394 1_565 S
C1827 C1828 1.383 . S
C1827 H1835 0.929 . S
C1828 C1827 1.383 . S
C1828 C1829 1.377 . S
C1829 H1813 0.930 . S
C1829 C1828 1.377 . S
C1829 C1830 1.379 1_565 S
C1830 H1814 0.931 . S
C1830 C1824 1.383 . S
C1830 C1829 1.379 1_545 S
H1831 C1825 0.959 . S
H1832 C1825 0.961 . S
H1833 C1825 0.960 . S
H1834 C1826 0.930 . S
H1835 C1827 0.929 . S
H1836 C1844 0.929 . S
H1837 C1846 0.929 . S
H1838 C1848 0.930 . S
H1839 C1851 0.929 . S
H1840 C1854 0.930 . S
H1841 C1856 0.960 . S
H1842 C1856 0.960 . S
H1843 C1856 0.960 . S
C1844 H1836 0.929 . S
C1844 C1845 1.377 . S
C1844 C1846 1.385 1_565 S
C1845 C1844 1.377 . S
C1845 C1851 1.390 . S
C1846 H1837 0.929 . S
C1846 C1844 1.385 1_545 S
C1846 C1847 1.372 . S
C1847 C1846 1.372 . S
C1847 C1848 1.400 1_545 S
C1847 C1852 1.490 . S
C1848 H1838 0.930 . S
C1848 C1847 1.400 1_565 S
C1848 C1851 1.386 . S
H1849 C1865 0.930 . S
H1850 C1866 0.931 . S
C1851 H1839 0.929 . S
C1851 C1845 1.390 . S
C1851 C1848 1.386 . S
C1852 C1847 1.490 . S
C1852 C1854 1.395 . S
C1852 C1855 1.403 . S
H1853 C1859 0.930 . S
C1854 H1840 0.930 . S
C1854 C1852 1.395 . S
C1854 C1857 1.403 . S
C1855 C1852 1.403 . S
C1855 C1856 1.524 . S
C1855 C1859 1.400 . S
C1856 H1841 0.960 . S
C1856 H1842 0.960 . S
C1856 H1843 0.960 . S
C1856 C1855 1.524 . S
C1857 C1854 1.403 . S
C1857 C1858 1.392 . S
C1857 C1861 1.495 . S
C1858 C1857 1.392 . S
C1858 C1859 1.385 . S
C1858 C1860 1.478 . S
C1859 H1853 0.930 . S
C1859 C1855 1.400 . S
C1859 C1858 1.385 . S
C1860 C1858 1.478 . S
C1860 C1862 1.381 . S
C1860 C1866 1.383 . S
C1861 C1857 1.495 . S
C1861 H1867 0.959 . S
C1861 H1868 0.961 . S
C1861 H1869 0.960 . S
C1862 C1860 1.381 . S
C1862 C1863 1.394 . S
C1862 H1870 0.930 . S
C1863 C1862 1.394 . S
C1863 C1864 1.383 1_655 S
C1863 H1871 0.937 1_655 S
C1864 C1863 1.383 1_455 S
C1864 C1865 1.377 . S
C1865 H1849 0.930 . S
C1865 C1864 1.377 . S
C1865 C1866 1.379 1_455 S
C1866 H1850 0.931 . S
C1866 C1860 1.383 . S
C1866 C1865 1.379 1_655 S
H1867 C1861 0.959 . S
H1868 C1861 0.961 . S
H1869 C1861 0.960 . S
H1870 C1862 0.930 . S
H1871 C1863 0.937 1_455 S
H1872 C1880 0.929 . S
H1873 C1882 0.930 . S
H1874 C1884 0.930 . S
H1875 C1887 0.929 . S
H1876 C1890 0.930 . S
H1877 C1892 0.960 . S
H1878 C1892 0.960 . S
H1879 C1892 0.960 . S
C1880 H1872 0.929 . S
C1880 C1881 1.377 . S
C1880 C1882 1.384 . S
C1881 C1880 1.377 . S
C1881 C1887 1.390 . S
C1882 H1873 0.930 . S
C1882 C1880 1.384 . S
C1882 C1883 1.372 . S
C1883 C1882 1.372 . S
C1883 C1884 1.400 . S
C1883 C1888 1.490 . S
C1884 H1874 0.930 . S
C1884 C1883 1.400 . S
C1884 C1887 1.386 . S
H1885 C1901 0.930 . S
H1886 C1902 0.931 . S
C1887 H1875 0.929 . S
C1887 C1881 1.390 . S
C1887 C1884 1.386 . S
C1888 C1883 1.490 . S
C1888 C1890 1.395 . S
C1888 C1891 1.403 . S
H1889 C1895 0.930 . S
C1890 H1876 0.930 . S
C1890 C1888 1.395 . S
C1890 C1893 1.403 . S
C1891 C1888 1.403 . S
C1891 C1892 1.524 . S
C1891 C1895 1.400 . S
C1892 H1877 0.960 . S
C1892 H1878 0.960 . S
C1892 H1879 0.960 . S
C1892 C1891 1.524 . S
C1893 C1890 1.403 . S
C1893 C1894 1.392 . S
C1893 C1897 1.495 . S
C1894 C1893 1.392 . S
C1894 C1895 1.385 . S
C1894 C1896 1.478 . S
C1895 H1889 0.930 . S
C1895 C1891 1.400 . S
C1895 C1894 1.385 . S
C1896 C1894 1.478 . S
C1896 C1898 1.381 . S
C1896 C1902 1.383 . S
C1897 C1893 1.495 . S
C1897 H1903 0.959 . S
C1897 H1904 0.961 . S
C1897 H1905 0.960 . S
C1898 C1896 1.381 . S
C1898 C1899 1.394 . S
C1898 H1906 0.930 . S
C1899 C1898 1.394 . S
C1899 C1900 1.383 . S
C1899 H1907 0.929 . S
C1900 C1899 1.383 . S
C1900 C1901 1.377 . S
C1901 H1885 0.930 . S
C1901 C1900 1.377 . S
C1901 C1902 1.379 . S
C1902 H1886 0.931 . S
C1902 C1896 1.383 . S
C1902 C1901 1.379 . S
H1903 C1897 0.959 . S
H1904 C1897 0.961 . S
H1905 C1897 0.960 . S
H1906 C1898 0.930 . S
H1907 C1899 0.929 . S
H1908 C1916 0.929 . S
H1909 C1918 0.930 . S
H1910 C1920 0.930 . S
H1911 C1923 0.929 . S
H1912 C1926 0.930 . S
H1913 C1928 0.960 . S
H1914 C1928 0.960 . S
H1915 C1928 0.960 . S
C1916 H1908 0.929 . S
C1916 C1917 1.377 . S
C1916 C1918 1.384 . S
C1917 C1916 1.377 . S
C1917 C1923 1.390 . S
C1918 H1909 0.930 . S
C1918 C1916 1.384 . S
C1918 C1919 1.372 . S
C1919 C1918 1.372 . S
C1919 C1920 1.400 . S
C1919 C1924 1.490 . S
C1920 H1910 0.930 . S
C1920 C1919 1.400 . S
C1920 C1923 1.386 . S
H1921 C1937 0.930 . S
H1922 C1938 0.931 . S
C1923 H1911 0.929 . S
C1923 C1917 1.390 . S
C1923 C1920 1.386 . S
C1924 C1919 1.490 . S
C1924 C1926 1.395 . S
C1924 C1927 1.403 . S
H1925 C1931 0.930 . S
C1926 H1912 0.930 . S
C1926 C1924 1.395 . S
C1926 C1929 1.403 . S
C1927 C1924 1.403 . S
C1927 C1928 1.524 . S
C1927 C1931 1.400 . S
C1928 H1913 0.960 . S
C1928 H1914 0.960 . S
C1928 H1915 0.960 . S
C1928 C1927 1.524 . S
C1929 C1926 1.403 . S
C1929 C1930 1.392 . S
C1929 C1933 1.495 . S
C1930 C1929 1.392 . S
C1930 C1931 1.385 . S
C1930 C1932 1.478 . S
C1931 H1925 0.930 . S
C1931 C1927 1.400 . S
C1931 C1930 1.385 . S
C1932 C1930 1.478 . S
C1932 C1934 1.381 . S
C1932 C1938 1.383 . S
C1933 C1929 1.495 . S
C1933 H1939 0.959 . S
C1933 H1940 0.961 . S
C1933 H1941 0.960 . S
C1934 C1932 1.381 . S
C1934 C1935 1.394 . S
C1934 H1942 0.930 . S
C1935 C1934 1.394 . S
C1935 C1936 1.383 . S
C1935 H1943 0.929 . S
C1936 C1935 1.383 . S
C1936 C1937 1.377 . S
C1937 H1921 0.930 . S
C1937 C1936 1.377 . S
C1937 C1938 1.379 . S
C1938 H1922 0.931 . S
C1938 C1932 1.383 . S
C1938 C1937 1.379 . S
H1939 C1933 0.959 . S
H1940 C1933 0.961 . S
H1941 C1933 0.960 . S
H1942 C1934 0.930 . S
H1943 C1935 0.929 . S
H1944 C1952 0.929 . S
H1945 C1954 0.930 . S
H1946 C1956 0.930 . S
H1947 C1959 0.929 . S
H1948 C1962 0.930 . S
H1949 C1964 0.960 . S
H1950 C1964 0.960 . S
H1951 C1964 0.960 . S
C1952 H1944 0.929 . S
C1952 C1953 1.377 . S
C1952 C1954 1.384 . S
C1953 C1952 1.377 . S
C1953 C1959 1.390 . S
C1954 H1945 0.930 . S
C1954 C1952 1.384 . S
C1954 C1955 1.372 . S
C1955 C1954 1.372 . S
C1955 C1956 1.400 . S
C1955 C1960 1.490 . S
C1956 H1946 0.930 . S
C1956 C1955 1.400 . S
C1956 C1959 1.386 . S
H1957 C1973 0.930 . S
H1958 C1974 0.931 . S
C1959 H1947 0.929 . S
C1959 C1953 1.390 . S
C1959 C1956 1.386 . S
C1960 C1955 1.490 . S
C1960 C1962 1.395 . S
C1960 C1963 1.403 . S
H1961 C1967 0.930 . S
C1962 H1948 0.930 . S
C1962 C1960 1.395 . S
C1962 C1965 1.403 . S
C1963 C1960 1.403 . S
C1963 C1964 1.524 . S
C1963 C1967 1.400 . S
C1964 H1949 0.960 . S
C1964 H1950 0.960 . S
C1964 H1951 0.960 . S
C1964 C1963 1.524 . S
C1965 C1962 1.403 . S
C1965 C1966 1.392 . S
C1965 C1969 1.495 . S
C1966 C1965 1.392 . S
C1966 C1967 1.385 . S
C1966 C1968 1.478 . S
C1967 H1961 0.930 . S
C1967 C1963 1.400 . S
C1967 C1966 1.385 . S
C1968 C1966 1.478 . S
C1968 C1970 1.381 . S
C1968 C1974 1.383 . S
C1969 C1965 1.495 . S
C1969 H1975 0.959 . S
C1969 H1976 0.961 . S
C1969 H1977 0.960 . S
C1970 C1968 1.381 . S
C1970 C1971 1.394 . S
C1970 H1978 0.930 . S
C1971 C1970 1.394 . S
C1971 C1972 1.383 . S
C1971 H1979 0.929 . S
C1972 C1971 1.383 . S
C1972 C1973 1.377 . S
C1973 H1957 0.930 . S
C1973 C1972 1.377 . S
C1973 C1974 1.379 . S
C1974 H1958 0.931 . S
C1974 C1968 1.383 . S
C1974 C1973 1.379 . S
H1975 C1969 0.959 . S
H1976 C1969 0.961 . S
H1977 C1969 0.960 . S
H1978 C1970 0.930 . S
H1979 C1971 0.929 . S
H1980 C1988 0.929 . S
H1981 C1990 0.930 . S
H1982 C1992 0.930 . S
H1983 C1995 0.929 . S
H1984 C1998 0.930 . S
H1985 C2000 0.960 . S
H1986 C2000 0.960 . S
H1987 C2000 0.960 . S
C1988 H1980 0.929 . S
C1988 C1989 1.377 . S
C1988 C1990 1.384 . S
C1989 C1988 1.377 . S
C1989 C1995 1.390 . S
C1990 H1981 0.930 . S
C1990 C1988 1.384 . S
C1990 C1991 1.372 . S
C1991 C1990 1.372 . S
C1991 C1992 1.400 . S
C1991 C1996 1.490 . S
C1992 H1982 0.930 . S
C1992 C1991 1.400 . S
C1992 C1995 1.386 . S
H1993 C2009 0.930 . S
H1994 C2010 0.931 . S
C1995 H1983 0.929 . S
C1995 C1989 1.390 . S
C1995 C1992 1.386 . S
C1996 C1991 1.490 . S
C1996 C1998 1.395 . S
C1996 C1999 1.403 . S
H1997 C2003 0.930 . S
C1998 H1984 0.930 . S
C1998 C1996 1.395 . S
C1998 C2001 1.403 . S
C1999 C1996 1.403 . S
C1999 C2000 1.524 . S
C1999 C2003 1.400 . S
C2000 H1985 0.960 . S
C2000 H1986 0.960 . S
C2000 H1987 0.960 . S
C2000 C1999 1.524 . S
C2001 C1998 1.403 . S
C2001 C2002 1.392 . S
C2001 C2005 1.495 . S
C2002 C2001 1.392 . S
C2002 C2003 1.385 . S
C2002 C2004 1.478 . S
C2003 H1997 0.930 . S
C2003 C1999 1.400 . S
C2003 C2002 1.385 . S
C2004 C2002 1.478 . S
C2004 C2006 1.381 . S
C2004 C2010 1.383 . S
C2005 C2001 1.495 . S
C2005 H2011 0.959 . S
C2005 H2012 0.961 . S
C2005 H2013 0.960 . S
C2006 C2004 1.381 . S
C2006 C2007 1.394 . S
C2006 H2014 0.930 . S
C2007 C2006 1.394 . S
C2007 C2008 1.383 . S
C2007 H2015 0.929 . S
C2008 C2007 1.383 . S
C2008 C2009 1.377 . S
C2009 H1993 0.930 . S
C2009 C2008 1.377 . S
C2009 C2010 1.379 . S
C2010 H1994 0.931 . S
C2010 C2004 1.383 . S
C2010 C2009 1.379 . S
H2011 C2005 0.959 . S
H2012 C2005 0.961 . S
H2013 C2005 0.960 . S
H2014 C2006 0.930 . S
H2015 C2007 0.929 . S
H2016 C2024 0.929 . S
H2017 C2026 0.930 . S
H2018 C2028 0.930 . S
H2019 C2031 0.929 . S
H2020 C2034 0.930 . S
H2021 C2036 0.960 . S
H2022 C2036 0.960 . S
H2023 C2036 0.960 . S
C2024 H2016 0.929 . S
C2024 C2025 1.377 . S
C2024 C2026 1.384 . S
C2025 C2024 1.377 . S
C2025 C2031 1.390 . S
C2026 H2017 0.930 . S
C2026 C2024 1.384 . S
C2026 C2027 1.372 . S
C2027 C2026 1.372 . S
C2027 C2028 1.400 . S
C2027 C2032 1.490 . S
C2028 H2018 0.930 . S
C2028 C2027 1.400 . S
C2028 C2031 1.386 . S
H2029 C2045 0.930 . S
H2030 C2046 0.931 . S
C2031 H2019 0.929 . S
C2031 C2025 1.390 . S
C2031 C2028 1.386 . S
C2032 C2027 1.490 . S
C2032 C2034 1.395 . S
C2032 C2035 1.403 . S
H2033 C2039 0.930 . S
C2034 H2020 0.930 . S
C2034 C2032 1.395 . S
C2034 C2037 1.403 . S
C2035 C2032 1.403 . S
C2035 C2036 1.524 . S
C2035 C2039 1.400 . S
C2036 H2021 0.960 . S
C2036 H2022 0.960 . S
C2036 H2023 0.960 . S
C2036 C2035 1.524 . S
C2037 C2034 1.403 . S
C2037 C2038 1.392 . S
C2037 C2041 1.495 . S
C2038 C2037 1.392 . S
C2038 C2039 1.385 . S
C2038 C2040 1.478 . S
C2039 H2033 0.930 . S
C2039 C2035 1.400 . S
C2039 C2038 1.385 . S
C2040 C2038 1.478 . S
C2040 C2042 1.381 . S
C2040 C2046 1.383 . S
C2041 C2037 1.495 . S
C2041 H2047 0.959 . S
C2041 H2048 0.961 . S
C2041 H2049 0.960 . S
C2042 C2040 1.381 . S
C2042 C2043 1.394 . S
C2042 H2050 0.930 . S
C2043 C2042 1.394 . S
C2043 C2044 1.383 . S
C2043 H2051 0.929 . S
C2044 C2043 1.383 . S
C2044 C2045 1.377 . S
C2045 H2029 0.930 . S
C2045 C2044 1.377 . S
C2045 C2046 1.379 . S
C2046 H2030 0.931 . S
C2046 C2040 1.383 . S
C2046 C2045 1.379 . S
H2047 C2041 0.959 . S
H2048 C2041 0.961 . S
H2049 C2041 0.960 . S
H2050 C2042 0.930 . S
H2051 C2043 0.929 . S
H2052 C2060 0.929 . S
H2053 C2062 0.930 . S
H2054 C2064 0.930 . S
H2055 C2067 0.929 . S
H2056 C2070 0.930 . S
H2057 C2072 0.960 . S
H2058 C2072 0.960 . S
H2059 C2072 0.960 . S
C2060 H2052 0.929 . S
C2060 C2061 1.377 . S
C2060 C2062 1.384 . S
C2061 C2060 1.377 . S
C2061 C2067 1.390 . S
C2062 H2053 0.930 . S
C2062 C2060 1.384 . S
C2062 C2063 1.372 . S
C2063 C2062 1.372 . S
C2063 C2064 1.400 . S
C2063 C2068 1.490 . S
C2064 H2054 0.930 . S
C2064 C2063 1.400 . S
C2064 C2067 1.386 . S
H2065 C2081 0.930 . S
H2066 C2082 0.931 . S
C2067 H2055 0.929 . S
C2067 C2061 1.390 . S
C2067 C2064 1.386 . S
C2068 C2063 1.490 . S
C2068 C2070 1.395 . S
C2068 C2071 1.403 . S
H2069 C2075 0.930 . S
C2070 H2056 0.930 . S
C2070 C2068 1.395 . S
C2070 C2073 1.403 . S
C2071 C2068 1.403 . S
C2071 C2072 1.524 . S
C2071 C2075 1.400 . S
C2072 H2057 0.960 . S
C2072 H2058 0.960 . S
C2072 H2059 0.960 . S
C2072 C2071 1.524 . S
C2073 C2070 1.403 . S
C2073 C2074 1.392 . S
C2073 C2077 1.495 . S
C2074 C2073 1.392 . S
C2074 C2075 1.385 . S
C2074 C2076 1.478 . S
C2075 H2069 0.930 . S
C2075 C2071 1.400 . S
C2075 C2074 1.385 . S
C2076 C2074 1.478 . S
C2076 C2078 1.381 . S
C2076 C2082 1.383 . S
C2077 C2073 1.495 . S
C2077 H2083 0.959 . S
C2077 H2084 0.961 . S
C2077 H2085 0.960 . S
C2078 C2076 1.381 . S
C2078 C2079 1.394 . S
C2078 H2086 0.930 . S
C2079 C2078 1.394 . S
C2079 C2080 1.383 . S
C2079 H2087 0.929 . S
C2080 C2079 1.383 . S
C2080 C2081 1.377 . S
C2081 H2065 0.930 . S
C2081 C2080 1.377 . S
C2081 C2082 1.379 . S
C2082 H2066 0.931 . S
C2082 C2076 1.383 . S
C2082 C2081 1.379 . S
H2083 C2077 0.959 . S
H2084 C2077 0.961 . S
H2085 C2077 0.960 . S
H2086 C2078 0.930 . S
H2087 C2079 0.929 . S
H2088 C2096 0.929 . S
H2089 C2098 0.930 . S
H2090 C2100 0.930 . S
H2091 C2103 0.929 . S
H2092 C2106 0.930 . S
H2093 C2108 0.960 . S
H2094 C2108 0.960 . S
H2095 C2108 0.960 . S
C2096 H2088 0.929 . S
C2096 C2097 1.377 . S
C2096 C2098 1.384 . S
C2097 C2096 1.377 . S
C2097 C2103 1.390 . S
C2098 H2089 0.930 . S
C2098 C2096 1.384 . S
C2098 C2099 1.372 . S
C2099 C2098 1.372 . S
C2099 C2100 1.400 . S
C2099 C2104 1.490 . S
C2100 H2090 0.930 . S
C2100 C2099 1.400 . S
C2100 C2103 1.386 . S
H2101 C2117 0.930 . S
H2102 C2118 0.931 . S
C2103 H2091 0.929 . S
C2103 C2097 1.390 . S
C2103 C2100 1.386 . S
C2104 C2099 1.490 . S
C2104 C2106 1.395 . S
C2104 C2107 1.403 . S
H2105 C2111 0.930 . S
C2106 H2092 0.930 . S
C2106 C2104 1.395 . S
C2106 C2109 1.403 . S
C2107 C2104 1.403 . S
C2107 C2108 1.524 . S
C2107 C2111 1.400 . S
C2108 H2093 0.960 . S
C2108 H2094 0.960 . S
C2108 H2095 0.960 . S
C2108 C2107 1.524 . S
C2109 C2106 1.403 . S
C2109 C2110 1.392 . S
C2109 C2113 1.495 . S
C2110 C2109 1.392 . S
C2110 C2111 1.385 . S
C2110 C2112 1.478 . S
C2111 H2105 0.930 . S
C2111 C2107 1.400 . S
C2111 C2110 1.385 . S
C2112 C2110 1.478 . S
C2112 C2114 1.381 . S
C2112 C2118 1.383 . S
C2113 C2109 1.495 . S
C2113 H2119 0.959 . S
C2113 H2120 0.961 . S
C2113 H2121 0.960 . S
C2114 C2112 1.381 . S
C2114 C2115 1.394 . S
C2114 H2122 0.930 . S
C2115 C2114 1.394 . S
C2115 C2116 1.383 . S
C2115 H2123 0.929 . S
C2116 C2115 1.383 . S
C2116 C2117 1.377 . S
C2117 H2101 0.930 . S
C2117 C2116 1.377 . S
C2117 C2118 1.379 . S
C2118 H2102 0.931 . S
C2118 C2112 1.383 . S
C2118 C2117 1.379 . S
H2119 C2113 0.959 . S
H2120 C2113 0.961 . S
H2121 C2113 0.960 . S
H2122 C2114 0.930 . S
H2123 C2115 0.929 . S
H2124 C2132 0.929 . S
H2125 C2134 0.930 . S
H2126 C2136 0.930 . S
H2127 C2139 0.929 . S
H2128 C2142 0.930 . S
H2129 C2144 0.960 . S
H2130 C2144 0.960 . S
H2131 C2144 0.960 . S
C2132 H2124 0.929 . S
C2132 C2133 1.377 . S
C2132 C2134 1.384 . S
C2133 C2132 1.377 . S
C2133 C2139 1.390 . S
C2134 H2125 0.930 . S
C2134 C2132 1.384 . S
C2134 C2135 1.372 . S
C2135 C2134 1.372 . S
C2135 C2136 1.400 . S
C2135 C2140 1.490 . S
C2136 H2126 0.930 . S
C2136 C2135 1.400 . S
C2136 C2139 1.386 . S
H2137 C2153 0.930 . S
H2138 C2154 0.931 . S
C2139 H2127 0.929 . S
C2139 C2133 1.390 . S
C2139 C2136 1.386 . S
C2140 C2135 1.490 . S
C2140 C2142 1.395 . S
C2140 C2143 1.403 . S
H2141 C2147 0.930 . S
C2142 H2128 0.930 . S
C2142 C2140 1.395 . S
C2142 C2145 1.403 . S
C2143 C2140 1.403 . S
C2143 C2144 1.524 . S
C2143 C2147 1.400 . S
C2144 H2129 0.960 . S
C2144 H2130 0.960 . S
C2144 H2131 0.960 . S
C2144 C2143 1.524 . S
C2145 C2142 1.403 . S
C2145 C2146 1.392 . S
C2145 C2149 1.495 . S
C2146 C2145 1.392 . S
C2146 C2147 1.385 . S
C2146 C2148 1.478 . S
C2147 H2141 0.930 . S
C2147 C2143 1.400 . S
C2147 C2146 1.385 . S
C2148 C2146 1.478 . S
C2148 C2150 1.381 . S
C2148 C2154 1.383 . S
C2149 C2145 1.495 . S
C2149 H2155 0.959 . S
C2149 H2156 0.961 . S
C2149 H2157 0.960 . S
C2150 C2148 1.381 . S
C2150 C2151 1.394 . S
C2150 H2158 0.930 . S
C2151 C2150 1.394 . S
C2151 C2152 1.383 . S
C2151 H2159 0.929 . S
C2152 C2151 1.383 . S
C2152 C2153 1.377 . S
C2153 H2137 0.930 . S
C2153 C2152 1.377 . S
C2153 C2154 1.379 . S
C2154 H2138 0.931 . S
C2154 C2148 1.383 . S
C2154 C2153 1.379 . S
H2155 C2149 0.959 . S
H2156 C2149 0.961 . S
H2157 C2149 0.960 . S
H2158 C2150 0.930 . S
H2159 C2151 0.929 . S
H2160 C2168 0.929 . S
H2161 C2170 0.930 . S
H2162 C2172 0.930 . S
H2163 C2175 0.929 . S
H2164 C2178 0.930 . S
H2165 C2180 0.960 . S
H2166 C2180 0.960 . S
H2167 C2180 0.960 . S
C2168 H2160 0.929 . S
C2168 C2169 1.377 . S
C2168 C2170 1.384 . S
C2169 C2168 1.377 . S
C2169 C2175 1.390 . S
C2170 H2161 0.930 . S
C2170 C2168 1.384 . S
C2170 C2171 1.372 . S
C2171 C2170 1.372 . S
C2171 C2172 1.400 . S
C2171 C2176 1.490 . S
C2172 H2162 0.930 . S
C2172 C2171 1.400 . S
C2172 C2175 1.386 . S
H2173 C2189 0.930 . S
H2174 C2190 0.931 . S
C2175 H2163 0.929 . S
C2175 C2169 1.390 . S
C2175 C2172 1.386 . S
C2176 C2171 1.490 . S
C2176 C2178 1.395 . S
C2176 C2179 1.403 . S
H2177 C2183 0.930 . S
C2178 H2164 0.930 . S
C2178 C2176 1.395 . S
C2178 C2181 1.403 . S
C2179 C2176 1.403 . S
C2179 C2180 1.524 . S
C2179 C2183 1.400 . S
C2180 H2165 0.960 . S
C2180 H2166 0.960 . S
C2180 H2167 0.960 . S
C2180 C2179 1.524 . S
C2181 C2178 1.403 . S
C2181 C2182 1.392 . S
C2181 C2185 1.495 . S
C2182 C2181 1.392 . S
C2182 C2183 1.385 . S
C2182 C2184 1.478 . S
C2183 H2177 0.930 . S
C2183 C2179 1.400 . S
C2183 C2182 1.385 . S
C2184 C2182 1.478 . S
C2184 C2186 1.381 . S
C2184 C2190 1.383 . S
C2185 C2181 1.495 . S
C2185 H2191 0.959 . S
C2185 H2192 0.961 . S
C2185 H2193 0.960 . S
C2186 C2184 1.381 . S
C2186 C2187 1.394 . S
C2186 H2194 0.930 . S
C2187 C2186 1.394 . S
C2187 C2188 1.383 . S
C2187 H2195 0.929 . S
C2188 C2187 1.383 . S
C2188 C2189 1.377 . S
C2189 H2173 0.930 . S
C2189 C2188 1.377 . S
C2189 C2190 1.379 . S
C2190 H2174 0.931 . S
C2190 C2184 1.383 . S
C2190 C2189 1.379 . S
H2191 C2185 0.959 . S
H2192 C2185 0.961 . S
H2193 C2185 0.960 . S
H2194 C2186 0.930 . S
H2195 C2187 0.929 . S
H2196 C2204 0.929 . S
H2197 C2206 0.930 . S
H2198 C2208 0.930 . S
H2199 C2211 0.929 . S
H2200 C2214 0.930 . S
H2201 C2216 0.960 . S
H2202 C2216 0.960 . S
H2203 C2216 0.960 . S
C2204 H2196 0.929 . S
C2204 C2205 1.377 . S
C2204 C2206 1.384 . S
C2205 C2204 1.377 . S
C2205 C2211 1.390 1_554 S
C2206 H2197 0.930 . S
C2206 C2204 1.384 . S
C2206 C2207 1.372 . S
C2207 C2206 1.372 . S
C2207 C2208 1.400 1_554 S
C2207 C2212 1.490 . S
C2208 H2198 0.930 . S
C2208 C2207 1.400 1_556 S
C2208 C2211 1.386 . S
H2209 C2225 0.930 . S
H2210 C2226 0.931 . S
C2211 H2199 0.929 . S
C2211 C2205 1.390 1_556 S
C2211 C2208 1.386 . S
C2212 C2207 1.490 . S
C2212 C2214 1.395 . S
C2212 C2215 1.403 1_554 S
H2213 C2219 0.930 . S
C2214 H2200 0.930 . S
C2214 C2212 1.395 . S
C2214 C2217 1.403 . S
C2215 C2212 1.403 1_556 S
C2215 C2216 1.524 . S
C2215 C2219 1.400 . S
C2216 H2201 0.960 . S
C2216 H2202 0.960 . S
C2216 H2203 0.960 . S
C2216 C2215 1.524 . S
C2217 C2214 1.403 . S
C2217 C2218 1.392 . S
C2217 C2221 1.495 . S
C2218 C2217 1.392 . S
C2218 C2219 1.385 1_554 S
C2218 C2220 1.478 . S
C2219 H2213 0.930 . S
C2219 C2215 1.400 . S
C2219 C2218 1.385 1_556 S
C2220 C2218 1.478 . S
C2220 C2222 1.381 . S
C2220 C2226 1.383 1_554 S
C2221 C2217 1.495 . S
C2221 H2227 0.959 . S
C2221 H2228 0.961 . S
C2221 H2229 0.960 . S
C2222 C2220 1.381 . S
C2222 C2223 1.394 . S
C2222 H2230 0.930 . S
C2223 C2222 1.394 . S
C2223 C2224 1.383 . S
C2223 H2231 0.929 . S
C2224 C2223 1.383 . S
C2224 C2225 1.377 1_554 S
C2225 H2209 0.930 . S
C2225 C2224 1.377 1_556 S
C2225 C2226 1.379 . S
C2226 H2210 0.931 . S
C2226 C2220 1.383 1_556 S
C2226 C2225 1.379 . S
H2227 C2221 0.959 . S
H2228 C2221 0.961 . S
H2229 C2221 0.960 . S
H2230 C2222 0.930 . S
H2231 C2223 0.929 . S
H2232 C2240 0.929 . S
H2233 C2242 0.930 . S
H2234 C2244 0.930 . S
H2235 C2247 0.929 . S
H2236 C2250 0.930 . S
H2237 C2252 0.960 . S
H2238 C2252 0.960 . S
H2239 C2252 0.960 1_556 S
C2240 H2232 0.929 . S
C2240 C2241 1.455 . S
C2240 C2242 1.384 . S
C2241 C2240 1.455 . S
C2241 C2247 1.320 1_554 S
C2242 H2233 0.930 . S
C2242 C2240 1.384 . S
C2242 C2243 1.372 . S
C2243 C2242 1.372 . S
C2243 C2244 1.400 1_554 S
C2243 C2248 1.490 . S
C2244 H2234 0.930 . S
C2244 C2243 1.400 1_556 S
C2244 C2247 1.386 . S
H2245 C2261 0.930 . S
H2246 C2262 0.931 . S
C2247 H2235 0.929 . S
C2247 C2241 1.320 1_556 S
C2247 C2244 1.386 . S
C2248 C2243 1.490 . S
C2248 C2250 1.395 . S
C2248 C2251 1.403 . S
H2249 C2255 0.930 . S
C2250 H2236 0.930 . S
C2250 C2248 1.395 . S
C2250 C2253 1.403 . S
C2251 C2248 1.403 . S
C2251 C2252 1.524 . S
C2251 C2255 1.400 . S
C2252 H2237 0.960 . S
C2252 H2238 0.960 . S
C2252 H2239 0.960 1_554 S
C2252 C2251 1.524 . S
C2253 C2250 1.403 . S
C2253 C2254 1.392 . S
C2253 C2257 1.495 . S
C2254 C2253 1.392 . S
C2254 C2255 1.385 . S
C2254 C2256 1.478 . S
C2255 H2249 0.930 . S
C2255 C2251 1.400 . S
C2255 C2254 1.385 . S
C2256 C2254 1.478 . S
C2256 C2258 1.381 . S
C2256 C2262 1.383 1_554 S
C2257 C2253 1.495 . S
C2257 H2263 0.959 . S
C2257 H2264 0.961 1_554 S
C2257 H2265 0.960 . S
C2258 C2256 1.381 . S
C2258 C2259 1.394 . S
C2258 H2266 0.930 . S
C2259 C2258 1.394 . S
C2259 C2260 1.383 . S
C2259 H2267 0.929 . S
C2260 C2259 1.383 . S
C2260 C2261 1.377 1_554 S
C2261 H2245 0.930 . S
C2261 C2260 1.377 1_556 S
C2261 C2262 1.379 . S
C2262 H2246 0.931 . S
C2262 C2256 1.383 1_556 S
C2262 C2261 1.379 . S
H2263 C2257 0.959 . S
H2264 C2257 0.961 1_556 S
H2265 C2257 0.960 . S
H2266 C2258 0.930 . S
H2267 C2259 0.929 . S
H2268 C2276 0.929 . S
H2269 C2278 0.930 . S
H2270 C2280 0.924 1_556 S
H2271 C2283 0.894 1_556 S
H2272 C2286 0.930 . S
H2273 C2288 0.960 . S
H2274 C2288 0.960 . S
H2275 C2288 0.960 . S
C2276 H2268 0.929 . S
C2276 C2277 1.377 . S
C2276 C2278 1.384 . S
C2277 C2276 1.377 . S
C2277 C2283 1.414 . S
C2278 H2269 0.930 . S
C2278 C2276 1.384 . S
C2278 C2279 1.372 . S
C2279 C2278 1.372 . S
C2279 C2280 1.405 . S
C2279 C2284 1.490 . S
C2280 H2270 0.924 1_554 S
C2280 C2279 1.405 . S
C2280 C2283 1.385 . S
H2281 C2297 0.927 . S
H2282 C2298 0.922 1_556 S
C2283 H2271 0.894 1_554 S
C2283 C2277 1.414 . S
C2283 C2280 1.385 . S
C2284 C2279 1.490 . S
C2284 C2286 1.395 . S
C2284 C2287 1.403 1_554 S
H2285 C2291 0.930 . S
C2286 H2272 0.930 . S
C2286 C2284 1.395 . S
C2286 C2289 1.403 . S
C2287 C2284 1.403 1_556 S
C2287 C2288 1.524 . S
C2287 C2291 1.400 . S
C2288 H2273 0.960 . S
C2288 H2274 0.960 . S
C2288 H2275 0.960 . S
C2288 C2287 1.524 . S
C2289 C2286 1.403 . S
C2289 C2290 1.392 . S
C2289 C2293 1.495 . S
C2290 C2289 1.392 . S
C2290 C2291 1.385 1_554 S
C2290 C2292 1.478 . S
C2291 H2285 0.930 . S
C2291 C2287 1.400 . S
C2291 C2290 1.385 1_556 S
C2292 C2290 1.478 . S
C2292 C2294 1.381 . S
C2292 C2298 1.415 . S
C2293 C2289 1.495 . S
C2293 H2299 0.959 . S
C2293 H2300 0.961 . S
C2293 H2301 0.960 . S
C2294 C2292 1.381 . S
C2294 C2295 1.394 . S
C2294 H2302 0.930 . S
C2295 C2294 1.394 . S
C2295 C2296 1.383 . S
C2295 H2303 0.929 . S
C2296 C2295 1.383 . S
C2296 C2297 1.378 1_554 S
C2297 H2281 0.927 . S
C2297 C2296 1.378 1_556 S
C2297 C2298 1.373 1_556 S
C2298 H2282 0.922 1_554 S
C2298 C2292 1.415 . S
C2298 C2297 1.373 1_554 S
H2299 C2293 0.959 . S
H2300 C2293 0.961 . S
H2301 C2293 0.960 . S
H2302 C2294 0.930 . S
H2303 C2295 0.929 . S
H2304 C2312 0.929 . S
H2305 C2314 0.930 . S
H2306 C2316 0.930 . S
H2307 C2319 0.929 . S
H2308 C2322 0.930 . S
H2309 C2324 0.960 . S
H2310 C2324 0.960 . S
H2311 C2324 0.960 . S
C2312 H2304 0.929 . S
C2312 C2313 1.377 . S
C2312 C2314 1.384 . S
C2313 C2312 1.377 . S
C2313 C2319 1.390 . S
C2314 H2305 0.930 . S
C2314 C2312 1.384 . S
C2314 C2315 1.372 . S
C2315 C2314 1.372 . S
C2315 C2316 1.400 . S
C2315 C2320 1.490 . S
C2316 H2306 0.930 . S
C2316 C2315 1.400 . S
C2316 C2319 1.386 . S
H2317 C2333 0.930 . S
H2318 C2334 0.931 . S
C2319 H2307 0.929 . S
C2319 C2313 1.390 . S
C2319 C2316 1.386 . S
C2320 C2315 1.490 . S
C2320 C2322 1.395 . S
C2320 C2323 1.403 . S
H2321 C2327 0.930 . S
C2322 H2308 0.930 . S
C2322 C2320 1.395 . S
C2322 C2325 1.403 . S
C2323 C2320 1.403 . S
C2323 C2324 1.524 . S
C2323 C2327 1.400 . S
C2324 H2309 0.960 . S
C2324 H2310 0.960 . S
C2324 H2311 0.960 . S
C2324 C2323 1.524 . S
C2325 C2322 1.403 . S
C2325 C2326 1.392 . S
C2325 C2329 1.495 . S
C2326 C2325 1.392 . S
C2326 C2327 1.385 . S
C2326 C2328 1.478 . S
C2327 H2321 0.930 . S
C2327 C2323 1.400 . S
C2327 C2326 1.385 . S
C2328 C2326 1.478 . S
C2328 C2330 1.381 . S
C2328 C2334 1.383 . S
C2329 C2325 1.495 . S
C2329 H2335 0.959 . S
C2329 H2336 0.961 . S
C2329 H2337 0.960 . S
C2330 C2328 1.381 . S
C2330 C2331 1.394 . S
C2330 H2338 0.930 . S
C2331 C2330 1.394 . S
C2331 C2332 1.383 . S
C2331 H2339 0.929 . S
C2332 C2331 1.383 . S
C2332 C2333 1.377 . S
C2333 H2317 0.930 . S
C2333 C2332 1.377 . S
C2333 C2334 1.379 . S
C2334 H2318 0.931 . S
C2334 C2328 1.383 . S
C2334 C2333 1.379 . S
H2335 C2329 0.959 . S
H2336 C2329 0.961 . S
H2337 C2329 0.960 . S
H2338 C2330 0.930 . S
H2339 C2331 0.929 . S
H2340 C2348 0.929 . S
H2341 C2350 0.930 . S
H2342 C2352 0.930 . S
H2343 C2355 0.929 . S
H2344 C2358 0.930 . S
H2345 C2360 0.960 . S
H2346 C2360 0.960 . S
H2347 C2360 0.960 . S
C2348 H2340 0.929 . S
C2348 C2349 1.377 . S
C2348 C2350 1.384 . S
C2349 C2348 1.377 . S
C2349 C2355 1.390 . S
C2350 H2341 0.930 . S
C2350 C2348 1.384 . S
C2350 C2351 1.372 . S
C2351 C2350 1.372 . S
C2351 C2352 1.400 . S
C2351 C2356 1.490 . S
C2352 H2342 0.930 . S
C2352 C2351 1.400 . S
C2352 C2355 1.386 . S
H2353 C2369 0.930 . S
H2354 C2370 0.931 . S
C2355 H2343 0.929 . S
C2355 C2349 1.390 . S
C2355 C2352 1.386 . S
C2356 C2351 1.490 . S
C2356 C2358 1.395 . S
C2356 C2359 1.403 . S
H2357 C2363 0.930 . S
C2358 H2344 0.930 . S
C2358 C2356 1.395 . S
C2358 C2361 1.403 . S
C2359 C2356 1.403 . S
C2359 C2360 1.524 . S
C2359 C2363 1.400 . S
C2360 H2345 0.960 . S
C2360 H2346 0.960 . S
C2360 H2347 0.960 . S
C2360 C2359 1.524 . S
C2361 C2358 1.403 . S
C2361 C2362 1.392 . S
C2361 C2365 1.495 . S
C2362 C2361 1.392 . S
C2362 C2363 1.385 . S
C2362 C2364 1.478 . S
C2363 H2357 0.930 . S
C2363 C2359 1.400 . S
C2363 C2362 1.385 . S
C2364 C2362 1.478 . S
C2364 C2366 1.381 . S
C2364 C2370 1.383 . S
C2365 C2361 1.495 . S
C2365 H2371 0.959 . S
C2365 H2372 0.961 . S
C2365 H2373 0.960 . S
C2366 C2364 1.381 . S
C2366 C2367 1.394 . S
C2366 H2374 0.930 . S
C2367 C2366 1.394 . S
C2367 C2368 1.383 . S
C2367 H2375 0.929 . S
C2368 C2367 1.383 . S
C2368 C2369 1.377 . S
C2369 H2353 0.930 . S
C2369 C2368 1.377 . S
C2369 C2370 1.379 . S
C2370 H2354 0.931 . S
C2370 C2364 1.383 . S
C2370 C2369 1.379 . S
H2371 C2365 0.959 . S
H2372 C2365 0.961 . S
H2373 C2365 0.960 . S
H2374 C2366 0.930 . S
H2375 C2367 0.929 . S
H2376 C2384 0.929 . S
H2377 C2386 0.930 . S
H2378 C2388 0.930 . S
H2379 C2391 0.929 . S
H2380 C2394 0.930 . S
H2381 C2396 0.960 . S
H2382 C2396 0.960 . S
H2383 C2396 0.960 . S
C2384 H2376 0.929 . S
C2384 C2385 1.377 . S
C2384 C2386 1.384 . S
C2385 C2384 1.377 . S
C2385 C2391 1.390 . S
C2386 H2377 0.930 . S
C2386 C2384 1.384 . S
C2386 C2387 1.372 . S
C2387 C2386 1.372 . S
C2387 C2388 1.400 . S
C2387 C2392 1.490 . S
C2388 H2378 0.930 . S
C2388 C2387 1.400 . S
C2388 C2391 1.386 . S
H2389 C2405 0.930 . S
H2390 C2406 0.931 . S
C2391 H2379 0.929 . S
C2391 C2385 1.390 . S
C2391 C2388 1.386 . S
C2392 C2387 1.490 . S
C2392 C2394 1.395 . S
C2392 C2395 1.403 . S
H2393 C2399 0.930 . S
C2394 H2380 0.930 . S
C2394 C2392 1.395 . S
C2394 C2397 1.403 . S
C2395 C2392 1.403 . S
C2395 C2396 1.524 . S
C2395 C2399 1.400 . S
C2396 H2381 0.960 . S
C2396 H2382 0.960 . S
C2396 H2383 0.960 . S
C2396 C2395 1.524 . S
C2397 C2394 1.403 . S
C2397 C2398 1.392 . S
C2397 C2401 1.495 . S
C2398 C2397 1.392 . S
C2398 C2399 1.385 . S
C2398 C2400 1.478 . S
C2399 H2393 0.930 . S
C2399 C2395 1.400 . S
C2399 C2398 1.385 . S
C2400 C2398 1.478 . S
C2400 C2402 1.381 . S
C2400 C2406 1.383 . S
C2401 C2397 1.495 . S
C2401 H2407 0.959 . S
C2401 H2408 0.961 . S
C2401 H2409 0.960 . S
C2402 C2400 1.381 . S
C2402 C2403 1.394 . S
C2402 H2410 0.930 . S
C2403 C2402 1.394 . S
C2403 C2404 1.383 . S
C2403 H2411 0.929 . S
C2404 C2403 1.383 . S
C2404 C2405 1.377 . S
C2405 H2389 0.930 . S
C2405 C2404 1.377 . S
C2405 C2406 1.379 . S
C2406 H2390 0.931 . S
C2406 C2400 1.383 . S
C2406 C2405 1.379 . S
H2407 C2401 0.959 . S
H2408 C2401 0.961 . S
H2409 C2401 0.960 . S
H2410 C2402 0.930 . S
H2411 C2403 0.929 . S
H2412 C2420 0.929 . S
H2413 C2422 0.930 . S
H2414 C2424 0.930 . S
H2415 C2427 0.929 . S
H2416 C2430 0.930 . S
H2417 C2432 0.960 . S
H2418 C2432 0.960 . S
H2419 C2432 0.960 . S
C2420 H2412 0.929 . S
C2420 C2421 1.324 1_554 S
C2420 C2422 1.384 . S
C2421 C2420 1.324 1_556 S
C2421 C2427 1.446 . S
C2422 H2413 0.930 . S
C2422 C2420 1.384 . S
C2422 C2423 1.276 1_554 S
C2423 C2422 1.276 1_556 S
C2423 C2424 1.496 . S
C2423 C2428 1.489 . S
C2424 H2414 0.930 . S
C2424 C2423 1.496 . S
C2424 C2427 1.386 . S
H2425 C2441 0.930 . S
H2426 C2442 0.931 . S
C2427 H2415 0.929 . S
C2427 C2421 1.446 . S
C2427 C2424 1.386 . S
C2428 C2423 1.489 . S
C2428 C2430 1.347 1_556 S
C2428 C2431 1.465 . S
H2429 C2435 0.930 . S
C2430 H2416 0.930 . S
C2430 C2428 1.347 1_554 S
C2430 C2433 1.403 . S
C2431 C2428 1.465 . S
C2431 C2432 1.524 . S
C2431 C2435 1.400 . S
C2432 H2417 0.960 . S
C2432 H2418 0.960 . S
C2432 H2419 0.960 . S
C2432 C2431 1.524 . S
C2433 C2430 1.403 . S
C2433 C2434 1.392 1_554 S
C2433 C2437 1.495 . S
C2434 C2433 1.392 1_556 S
C2434 C2435 1.385 . S
C2434 C2436 1.478 . S
C2435 H2429 0.930 . S
C2435 C2431 1.400 . S
C2435 C2434 1.385 . S
C2436 C2434 1.478 . S
C2436 C2438 1.381 1_556 S
C2436 C2442 1.383 . S
C2437 C2433 1.495 . S
C2437 H2443 0.959 . S
C2437 H2444 1.067 . S
C2437 H2445 0.960 . S
C2438 C2436 1.381 1_554 S
C2438 C2439 1.394 . S
C2438 H2446 0.930 . S
C2439 C2438 1.394 . S
C2439 C2440 1.383 1_554 S
C2439 H2447 0.929 . S
C2440 C2439 1.383 1_556 S
C2440 C2441 1.377 . S
C2441 H2425 0.930 . S
C2441 C2440 1.377 . S
C2441 C2442 1.379 . S
C2442 H2426 0.931 . S
C2442 C2436 1.383 . S
C2442 C2441 1.379 . S
H2443 C2437 0.959 . S
H2444 C2437 1.067 . S
H2445 C2437 0.960 . S
H2446 C2438 0.930 . S
H2447 C2439 0.929 . S
H2448 C2456 0.929 . S
H2449 C2458 0.930 . S
H2450 C2460 0.930 . S
H2451 C2463 0.929 . S
H2452 C2466 0.930 . S
H2453 C2468 0.960 . S
H2454 C2468 0.960 . S
H2455 C2468 0.960 . S
C2456 H2448 0.929 . S
C2456 C2457 1.436 . S
C2456 C2458 1.384 . S
C2457 C2456 1.436 . S
C2457 C2463 1.337 1_556 S
C2458 H2449 0.930 . S
C2458 C2456 1.384 . S
C2458 C2459 1.372 . S
C2459 C2458 1.372 . S
C2459 C2460 1.400 1_556 S
C2459 C2464 1.490 . S
C2460 H2450 0.930 . S
C2460 C2459 1.400 1_554 S
C2460 C2463 1.386 . S
H2461 C2477 0.930 . S
H2462 C2478 0.931 . S
C2463 H2451 0.929 . S
C2463 C2457 1.337 1_554 S
C2463 C2460 1.386 . S
C2464 C2459 1.490 . S
C2464 C2466 1.395 . S
C2464 C2467 1.403 1_556 S
H2465 C2471 0.930 . S
C2466 H2452 0.930 . S
C2466 C2464 1.395 . S
C2466 C2469 1.403 . S
C2467 C2464 1.403 1_554 S
C2467 C2468 1.524 . S
C2467 C2471 1.400 . S
C2468 H2453 0.960 . S
C2468 H2454 0.960 . S
C2468 H2455 0.960 . S
C2468 C2467 1.524 . S
C2469 C2466 1.403 . S
C2469 C2470 1.392 . S
C2469 C2473 1.495 . S
C2470 C2469 1.392 . S
C2470 C2471 1.385 1_556 S
C2470 C2472 1.478 . S
C2471 H2465 0.930 . S
C2471 C2467 1.400 . S
C2471 C2470 1.385 1_554 S
C2472 C2470 1.478 . S
C2472 C2474 1.381 . S
C2472 C2478 1.383 1_556 S
C2473 C2469 1.495 . S
C2473 H2479 0.959 . S
C2473 H2480 0.961 . S
C2473 H2481 0.960 . S
C2474 C2472 1.381 . S
C2474 C2475 1.394 . S
C2474 H2482 0.930 . S
C2475 C2474 1.394 . S
C2475 C2476 1.383 . S
C2475 H2483 0.929 . S
C2476 C2475 1.383 . S
C2476 C2477 1.377 1_556 S
C2477 H2461 0.930 . S
C2477 C2476 1.377 1_554 S
C2477 C2478 1.379 . S
C2478 H2462 0.931 . S
C2478 C2472 1.383 1_554 S
C2478 C2477 1.379 . S
H2479 C2473 0.959 . S
H2480 C2473 0.961 . S
H2481 C2473 0.960 . S
H2482 C2474 0.930 . S
H2483 C2475 0.929 . S
H2484 C2492 0.929 . S
H2485 C2494 0.930 . S
H2486 C2496 0.930 . S
H2487 C2499 0.929 . S
H2488 C2502 0.930 . S
H2489 C2504 0.960 . S
H2490 C2504 0.960 . S
H2491 C2504 0.960 . S
C2492 H2484 0.929 . S
C2492 C2493 1.349 1_554 S
C2492 C2494 1.384 . S
C2493 C2492 1.349 1_556 S
C2493 C2499 1.421 . S
C2494 H2485 0.930 . S
C2494 C2492 1.384 . S
C2494 C2495 1.307 1_554 S
C2495 C2494 1.307 1_556 S
C2495 C2496 1.469 . S
C2495 C2500 1.502 . S
C2496 H2486 0.930 . S
C2496 C2495 1.469 . S
C2496 C2499 1.386 . S
H2497 C2513 0.930 . S
H2498 C2514 0.931 . S
C2499 H2487 0.929 . S
C2499 C2493 1.421 . S
C2499 C2496 1.386 . S
C2500 C2495 1.502 . S
C2500 C2502 1.395 . S
C2500 C2503 1.403 1_556 S
H2501 C2507 0.948 . S
C2502 H2488 0.930 . S
C2502 C2500 1.395 . S
C2502 C2505 1.403 . S
C2503 C2500 1.403 1_554 S
C2503 C2504 1.524 . S
C2503 C2507 1.407 . S
C2504 H2489 0.960 . S
C2504 H2490 0.960 . S
C2504 H2491 0.960 . S
C2504 C2503 1.524 . S
C2505 C2502 1.403 . S
C2505 C2506 1.392 . S
C2505 C2509 1.495 . S
C2506 C2505 1.392 . S
C2506 C2507 1.365 1_556 S
C2506 C2508 1.478 . S
C2507 H2501 0.948 . S
C2507 C2503 1.407 . S
C2507 C2506 1.365 1_554 S
C2508 C2506 1.478 . S
C2508 C2510 1.381 1_556 S
C2508 C2514 1.383 . S
C2509 C2505 1.495 . S
C2509 H2515 0.959 . S
C2509 H2516 0.961 . S
C2509 H2517 0.960 . S
C2510 C2508 1.381 1_554 S
C2510 C2511 1.394 . S
C2510 H2518 0.930 . S
C2511 C2510 1.394 . S
C2511 C2512 1.383 1_554 S
C2511 H2519 0.929 . S
C2512 C2511 1.383 1_556 S
C2512 C2513 1.377 . S
C2513 H2497 0.930 . S
C2513 C2512 1.377 . S
C2513 C2514 1.379 . S
C2514 H2498 0.931 . S
C2514 C2508 1.383 . S
C2514 C2513 1.379 . S
H2515 C2509 0.959 . S
H2516 C2509 0.961 . S
H2517 C2509 0.960 . S
H2518 C2510 0.930 . S
H2519 C2511 0.929 . S
H2520 C2528 0.929 . S
H2521 C2530 0.930 . S
H2522 C2532 0.930 . S
H2523 C2535 0.929 . S
H2524 C2538 0.930 . S
H2525 C2540 0.960 . S
H2526 C2540 0.960 . S
H2527 C2540 0.960 . S
C2528 H2520 0.929 . S
C2528 C2529 1.377 . S
C2528 C2530 1.384 . S
C2529 C2528 1.377 . S
C2529 C2535 1.390 . S
C2530 H2521 0.930 . S
C2530 C2528 1.384 . S
C2530 C2531 1.372 . S
C2531 C2530 1.372 . S
C2531 C2532 1.400 . S
C2531 C2536 1.490 . S
C2532 H2522 0.930 . S
C2532 C2531 1.400 . S
C2532 C2535 1.386 . S
H2533 C2549 0.930 . S
H2534 C2550 0.931 . S
C2535 H2523 0.929 . S
C2535 C2529 1.390 . S
C2535 C2532 1.386 . S
C2536 C2531 1.490 . S
C2536 C2538 1.395 . S
C2536 C2539 1.403 . S
H2537 C2543 0.930 . S
C2538 H2524 0.930 . S
C2538 C2536 1.395 . S
C2538 C2541 1.403 . S
C2539 C2536 1.403 . S
C2539 C2540 1.524 . S
C2539 C2543 1.400 . S
C2540 H2525 0.960 . S
C2540 H2526 0.960 . S
C2540 H2527 0.960 . S
C2540 C2539 1.524 . S
C2541 C2538 1.403 . S
C2541 C2542 1.392 . S
C2541 C2545 1.495 . S
C2542 C2541 1.392 . S
C2542 C2543 1.385 . S
C2542 C2544 1.478 . S
C2543 H2537 0.930 . S
C2543 C2539 1.400 . S
C2543 C2542 1.385 . S
C2544 C2542 1.478 . S
C2544 C2546 1.381 . S
C2544 C2550 1.383 . S
C2545 C2541 1.495 . S
C2545 H2551 0.959 . S
C2545 H2552 0.961 . S
C2545 H2553 0.960 . S
C2546 C2544 1.381 . S
C2546 C2547 1.394 . S
C2546 H2554 0.930 . S
C2547 C2546 1.394 . S
C2547 C2548 1.383 . S
C2547 H2555 0.929 . S
C2548 C2547 1.383 . S
C2548 C2549 1.377 . S
C2549 H2533 0.930 . S
C2549 C2548 1.377 . S
C2549 C2550 1.379 . S
C2550 H2534 0.931 . S
C2550 C2544 1.383 . S
C2550 C2549 1.379 . S
H2551 C2545 0.959 . S
H2552 C2545 0.961 . S
H2553 C2545 0.960 . S
H2554 C2546 0.930 . S
H2555 C2547 0.929 . S
H2556 C2564 0.929 . S
H2557 C2566 0.930 . S
H2558 C2568 0.930 . S
H2559 C2571 0.929 . S
H2560 C2574 0.930 . S
H2561 C2576 0.960 . S
H2562 C2576 0.960 . S
H2563 C2576 0.960 . S
C2564 H2556 0.929 . S
C2564 C2565 1.377 . S
C2564 C2566 1.384 . S
C2565 C2564 1.377 . S
C2565 C2571 1.390 . S
C2566 H2557 0.930 . S
C2566 C2564 1.384 . S
C2566 C2567 1.372 . S
C2567 C2566 1.372 . S
C2567 C2568 1.400 . S
C2567 C2572 1.490 . S
C2568 H2558 0.930 . S
C2568 C2567 1.400 . S
C2568 C2571 1.386 . S
H2569 C2585 0.930 . S
H2570 C2586 0.931 . S
C2571 H2559 0.929 . S
C2571 C2565 1.390 . S
C2571 C2568 1.386 . S
C2572 C2567 1.490 . S
C2572 C2574 1.395 . S
C2572 C2575 1.403 . S
H2573 C2579 0.930 . S
C2574 H2560 0.930 . S
C2574 C2572 1.395 . S
C2574 C2577 1.403 . S
C2575 C2572 1.403 . S
C2575 C2576 1.524 . S
C2575 C2579 1.400 . S
C2576 H2561 0.960 . S
C2576 H2562 0.960 . S
C2576 H2563 0.960 . S
C2576 C2575 1.524 . S
C2577 C2574 1.403 . S
C2577 C2578 1.392 . S
C2577 C2581 1.495 . S
C2578 C2577 1.392 . S
C2578 C2579 1.385 . S
C2578 C2580 1.478 . S
C2579 H2573 0.930 . S
C2579 C2575 1.400 . S
C2579 C2578 1.385 . S
C2580 C2578 1.478 . S
C2580 C2582 1.381 . S
C2580 C2586 1.383 . S
C2581 C2577 1.495 . S
C2581 H2587 0.959 . S
C2581 H2588 0.961 . S
C2581 H2589 0.960 . S
C2582 C2580 1.381 . S
C2582 C2583 1.394 . S
C2582 H2590 0.930 . S
C2583 C2582 1.394 . S
C2583 C2584 1.383 . S
C2583 H2591 0.929 . S
C2584 C2583 1.383 . S
C2584 C2585 1.377 . S
C2585 H2569 0.930 . S
C2585 C2584 1.377 . S
C2585 C2586 1.379 . S
C2586 H2570 0.931 . S
C2586 C2580 1.383 . S
C2586 C2585 1.379 . S
H2587 C2581 0.959 . S
H2588 C2581 0.961 . S
H2589 C2581 0.960 . S
H2590 C2582 0.930 . S
H2591 C2583 0.929 . S
H2592 C2600 0.929 . S
H2593 C2602 0.930 . S
H2594 C2604 0.930 . S
H2595 C2607 0.929 . S
H2596 C2610 0.930 . S
H2597 C2612 0.960 . S
H2598 C2612 0.960 . S
H2599 C2612 0.960 . S
C2600 H2592 0.929 . S
C2600 C2601 1.377 . S
C2600 C2602 1.384 . S
C2601 C2600 1.377 . S
C2601 C2607 1.390 . S
C2602 H2593 0.930 . S
C2602 C2600 1.384 . S
C2602 C2603 1.372 . S
C2603 C2602 1.372 . S
C2603 C2604 1.400 . S
C2603 C2608 1.490 . S
C2604 H2594 0.930 . S
C2604 C2603 1.400 . S
C2604 C2607 1.386 . S
H2605 C2621 0.930 . S
H2606 C2622 0.931 . S
C2607 H2595 0.929 . S
C2607 C2601 1.390 . S
C2607 C2604 1.386 . S
C2608 C2603 1.490 . S
C2608 C2610 1.395 . S
C2608 C2611 1.403 . S
H2609 C2615 0.930 . S
C2610 H2596 0.930 . S
C2610 C2608 1.395 . S
C2610 C2613 1.403 . S
C2611 C2608 1.403 . S
C2611 C2612 1.524 . S
C2611 C2615 1.400 . S
C2612 H2597 0.960 . S
C2612 H2598 0.960 . S
C2612 H2599 0.960 . S
C2612 C2611 1.524 . S
C2613 C2610 1.403 . S
C2613 C2614 1.392 . S
C2613 C2617 1.495 . S
C2614 C2613 1.392 . S
C2614 C2615 1.385 . S
C2614 C2616 1.478 . S
C2615 H2609 0.930 . S
C2615 C2611 1.400 . S
C2615 C2614 1.385 . S
C2616 C2614 1.478 . S
C2616 C2618 1.381 . S
C2616 C2622 1.383 . S
C2617 C2613 1.495 . S
C2617 H2623 0.959 . S
C2617 H2624 0.961 . S
C2617 H2625 0.960 . S
C2618 C2616 1.381 . S
C2618 C2619 1.394 . S
C2618 H2626 0.930 . S
C2619 C2618 1.394 . S
C2619 C2620 1.383 . S
C2619 H2627 0.929 . S
C2620 C2619 1.383 . S
C2620 C2621 1.377 . S
C2621 H2605 0.930 . S
C2621 C2620 1.377 . S
C2621 C2622 1.379 . S
C2622 H2606 0.931 . S
C2622 C2616 1.383 . S
C2622 C2621 1.379 . S
H2623 C2617 0.959 . S
H2624 C2617 0.961 . S
H2625 C2617 0.960 . S
H2626 C2618 0.930 . S
H2627 C2619 0.929 . S
H2628 C2636 0.929 . S
H2629 C2638 0.930 . S
H2630 C2640 0.930 . S
H2631 C2643 0.929 . S
H2632 C2646 0.930 . S
H2633 C2648 0.960 . S
H2634 C2648 0.960 . S
H2635 C2648 0.960 . S
C2636 H2628 0.929 . S
C2636 C2637 1.377 . S
C2636 C2638 1.384 . S
C2637 C2636 1.377 . S
C2637 C2643 1.390 . S
C2638 H2629 0.930 . S
C2638 C2636 1.384 . S
C2638 C2639 1.372 . S
C2639 C2638 1.372 . S
C2639 C2640 1.400 . S
C2639 C2644 1.490 . S
C2640 H2630 0.930 . S
C2640 C2639 1.400 . S
C2640 C2643 1.386 . S
H2641 C2657 0.930 . S
H2642 C2658 0.931 . S
C2643 H2631 0.929 . S
C2643 C2637 1.390 . S
C2643 C2640 1.386 . S
C2644 C2639 1.490 . S
C2644 C2646 1.395 . S
C2644 C2647 1.403 . S
H2645 C2651 0.930 . S
C2646 H2632 0.930 . S
C2646 C2644 1.395 . S
C2646 C2649 1.403 . S
C2647 C2644 1.403 . S
C2647 C2648 1.524 . S
C2647 C2651 1.400 . S
C2648 H2633 0.960 . S
C2648 H2634 0.960 . S
C2648 H2635 0.960 . S
C2648 C2647 1.524 . S
C2649 C2646 1.403 . S
C2649 C2650 1.392 . S
C2649 C2653 1.495 . S
C2650 C2649 1.392 . S
C2650 C2651 1.385 . S
C2650 C2652 1.478 . S
C2651 H2645 0.930 . S
C2651 C2647 1.400 . S
C2651 C2650 1.385 . S
C2652 C2650 1.478 . S
C2652 C2654 1.381 . S
C2652 C2658 1.383 . S
C2653 C2649 1.495 . S
C2653 H2659 0.959 . S
C2653 H2660 0.961 . S
C2653 H2661 0.960 . S
C2654 C2652 1.381 . S
C2654 C2655 1.394 . S
C2654 H2662 0.930 . S
C2655 C2654 1.394 . S
C2655 C2656 1.383 . S
C2655 H2663 0.929 . S
C2656 C2655 1.383 . S
C2656 C2657 1.377 . S
C2657 H2641 0.930 . S
C2657 C2656 1.377 . S
C2657 C2658 1.379 . S
C2658 H2642 0.931 . S
C2658 C2652 1.383 . S
C2658 C2657 1.379 . S
H2659 C2653 0.959 . S
H2660 C2653 0.961 . S
H2661 C2653 0.960 . S
H2662 C2654 0.930 . S
H2663 C2655 0.929 . S
H2664 C2672 0.929 . S
H2665 C2674 0.930 . S
H2666 C2676 0.930 . S
H2667 C2679 0.929 . S
H2668 C2682 0.930 . S
H2669 C2684 0.960 . S
H2670 C2684 0.960 . S
H2671 C2684 0.960 . S
C2672 H2664 0.929 . S
C2672 C2673 1.377 . S
C2672 C2674 1.384 . S
C2673 C2672 1.377 . S
C2673 C2679 1.390 . S
C2674 H2665 0.930 . S
C2674 C2672 1.384 . S
C2674 C2675 1.372 . S
C2675 C2674 1.372 . S
C2675 C2676 1.400 . S
C2675 C2680 1.490 . S
C2676 H2666 0.930 . S
C2676 C2675 1.400 . S
C2676 C2679 1.386 . S
H2677 C2693 0.930 . S
H2678 C2694 0.931 . S
C2679 H2667 0.929 . S
C2679 C2673 1.390 . S
C2679 C2676 1.386 . S
C2680 C2675 1.490 . S
C2680 C2682 1.395 . S
C2680 C2683 1.403 . S
H2681 C2687 0.930 . S
C2682 H2668 0.930 . S
C2682 C2680 1.395 . S
C2682 C2685 1.403 . S
C2683 C2680 1.403 . S
C2683 C2684 1.524 . S
C2683 C2687 1.400 . S
C2684 H2669 0.960 . S
C2684 H2670 0.960 . S
C2684 H2671 0.960 . S
C2684 C2683 1.524 . S
C2685 C2682 1.403 . S
C2685 C2686 1.392 . S
C2685 C2689 1.495 . S
C2686 C2685 1.392 . S
C2686 C2687 1.385 . S
C2686 C2688 1.478 . S
C2687 H2681 0.930 . S
C2687 C2683 1.400 . S
C2687 C2686 1.385 . S
C2688 C2686 1.478 . S
C2688 C2690 1.381 . S
C2688 C2694 1.383 . S
C2689 C2685 1.495 . S
C2689 H2695 0.959 . S
C2689 H2696 0.961 . S
C2689 H2697 0.960 . S
C2690 C2688 1.381 . S
C2690 C2691 1.394 . S
C2690 H2698 0.930 . S
C2691 C2690 1.394 . S
C2691 C2692 1.383 . S
C2691 H2699 0.929 . S
C2692 C2691 1.383 . S
C2692 C2693 1.377 . S
C2693 H2677 0.930 . S
C2693 C2692 1.377 . S
C2693 C2694 1.379 . S
C2694 H2678 0.931 . S
C2694 C2688 1.383 . S
C2694 C2693 1.379 . S
H2695 C2689 0.959 . S
H2696 C2689 0.961 . S
H2697 C2689 0.960 . S
H2698 C2690 0.930 . S
H2699 C2691 0.929 . S
H2700 C2708 0.929 . S
H2701 C2710 0.930 . S
H2702 C2712 0.930 . S
H2703 C2715 0.929 . S
H2704 C2718 0.930 . S
H2705 C2720 0.960 . S
H2706 C2720 0.960 . S
H2707 C2720 0.960 . S
C2708 H2700 0.929 . S
C2708 C2709 1.377 . S
C2708 C2710 1.384 . S
C2709 C2708 1.377 . S
C2709 C2715 1.390 . S
C2710 H2701 0.930 . S
C2710 C2708 1.384 . S
C2710 C2711 1.372 . S
C2711 C2710 1.372 . S
C2711 C2712 1.400 . S
C2711 C2716 1.490 . S
C2712 H2702 0.930 . S
C2712 C2711 1.400 . S
C2712 C2715 1.386 . S
H2713 C2729 0.930 . S
H2714 C2730 0.931 . S
C2715 H2703 0.929 . S
C2715 C2709 1.390 . S
C2715 C2712 1.386 . S
C2716 C2711 1.490 . S
C2716 C2718 1.395 . S
C2716 C2719 1.403 . S
H2717 C2723 0.930 . S
C2718 H2704 0.930 . S
C2718 C2716 1.395 . S
C2718 C2721 1.403 . S
C2719 C2716 1.403 . S
C2719 C2720 1.524 . S
C2719 C2723 1.400 . S
C2720 H2705 0.960 . S
C2720 H2706 0.960 . S
C2720 H2707 0.960 . S
C2720 C2719 1.524 . S
C2721 C2718 1.403 . S
C2721 C2722 1.392 . S
C2721 C2725 1.495 . S
C2722 C2721 1.392 . S
C2722 C2723 1.385 . S
C2722 C2724 1.478 . S
C2723 H2717 0.930 . S
C2723 C2719 1.400 . S
C2723 C2722 1.385 . S
C2724 C2722 1.478 . S
C2724 C2726 1.381 . S
C2724 C2730 1.383 . S
C2725 C2721 1.495 . S
C2725 H2731 0.959 . S
C2725 H2732 0.961 . S
C2725 H2733 0.960 . S
C2726 C2724 1.381 . S
C2726 C2727 1.394 . S
C2726 H2734 0.930 . S
C2727 C2726 1.394 . S
C2727 C2728 1.383 . S
C2727 H2735 0.929 . S
C2728 C2727 1.383 . S
C2728 C2729 1.377 . S
C2729 H2713 0.930 . S
C2729 C2728 1.377 . S
C2729 C2730 1.379 . S
C2730 H2714 0.931 . S
C2730 C2724 1.383 . S
C2730 C2729 1.379 . S
H2731 C2725 0.959 . S
H2732 C2725 0.961 . S
H2733 C2725 0.960 . S
H2734 C2726 0.930 . S
H2735 C2727 0.929 . S
H2736 C2744 0.929 . S
H2737 C2746 0.930 . S
H2738 C2748 0.930 . S
H2739 C2751 0.929 . S
H2740 C2754 0.930 . S
H2741 C2756 0.960 . S
H2742 C2756 0.960 . S
H2743 C2756 0.960 . S
C2744 H2736 0.929 . S
C2744 C2745 1.377 . S
C2744 C2746 1.384 . S
C2745 C2744 1.377 . S
C2745 C2751 1.390 . S
C2746 H2737 0.930 . S
C2746 C2744 1.384 . S
C2746 C2747 1.372 . S
C2747 C2746 1.372 . S
C2747 C2748 1.400 . S
C2747 C2752 1.490 . S
C2748 H2738 0.930 . S
C2748 C2747 1.400 . S
C2748 C2751 1.386 . S
H2749 C2765 0.930 . S
H2750 C2766 0.931 . S
C2751 H2739 0.929 . S
C2751 C2745 1.390 . S
C2751 C2748 1.386 . S
C2752 C2747 1.490 . S
C2752 C2754 1.395 . S
C2752 C2755 1.403 . S
H2753 C2759 0.930 . S
C2754 H2740 0.930 . S
C2754 C2752 1.395 . S
C2754 C2757 1.403 . S
C2755 C2752 1.403 . S
C2755 C2756 1.524 . S
C2755 C2759 1.400 . S
C2756 H2741 0.960 . S
C2756 H2742 0.960 . S
C2756 H2743 0.960 . S
C2756 C2755 1.524 . S
C2757 C2754 1.403 . S
C2757 C2758 1.392 . S
C2757 C2761 1.495 . S
C2758 C2757 1.392 . S
C2758 C2759 1.385 . S
C2758 C2760 1.478 . S
C2759 H2753 0.930 . S
C2759 C2755 1.400 . S
C2759 C2758 1.385 . S
C2760 C2758 1.478 . S
C2760 C2762 1.381 . S
C2760 C2766 1.383 . S
C2761 C2757 1.495 . S
C2761 H2767 0.959 . S
C2761 H2768 0.961 . S
C2761 H2769 0.960 . S
C2762 C2760 1.381 . S
C2762 C2763 1.394 . S
C2762 H2770 0.930 . S
C2763 C2762 1.394 . S
C2763 C2764 1.383 . S
C2763 H2771 0.929 . S
C2764 C2763 1.383 . S
C2764 C2765 1.377 . S
C2765 H2749 0.930 . S
C2765 C2764 1.377 . S
C2765 C2766 1.379 . S
C2766 H2750 0.931 . S
C2766 C2760 1.383 . S
C2766 C2765 1.379 . S
H2767 C2761 0.959 . S
H2768 C2761 0.961 . S
H2769 C2761 0.960 . S
H2770 C2762 0.930 . S
H2771 C2763 0.929 . S
H2772 C2780 0.929 1_565 S
H2773 C2782 0.930 . S
H2774 C2784 0.930 . S
H2775 C2787 0.929 . S
H2776 C2790 0.930 . S
H2777 C2792 0.960 . S
H2778 C2792 0.960 . S
H2779 C2792 0.960 . S
C2780 H2772 0.929 1_545 S
C2780 C2781 1.377 . S
C2780 C2782 1.384 1_545 S
C2781 C2780 1.377 . S
C2781 C2787 1.390 . S
C2782 H2773 0.930 . S
C2782 C2780 1.384 1_565 S
C2782 C2783 1.371 . S
C2783 C2782 1.371 . S
C2783 C2784 1.397 1_565 S
C2783 C2788 1.493 . S
C2784 H2774 0.930 . S
C2784 C2783 1.397 1_545 S
C2784 C2787 1.386 . S
H2785 C2801 0.930 . S
H2786 C2802 0.931 . S
C2787 H2775 0.929 . S
C2787 C2781 1.390 . S
C2787 C2784 1.386 . S
C2788 C2783 1.493 . S
C2788 C2790 1.395 . S
C2788 C2791 1.404 . S
H2789 C2795 0.930 . S
C2790 H2776 0.930 . S
C2790 C2788 1.395 . S
C2790 C2793 1.403 . S
C2791 C2788 1.404 . S
C2791 C2792 1.495 1_565 S
C2791 C2795 1.430 . S
C2792 H2777 0.960 . S
C2792 H2778 0.960 . S
C2792 H2779 0.960 . S
C2792 C2791 1.495 1_545 S
C2793 C2790 1.403 . S
C2793 C2794 1.392 . S
C2793 C2797 1.495 . S
C2794 C2793 1.392 . S
C2794 C2795 1.385 . S
C2794 C2796 1.478 . S
C2795 H2789 0.930 . S
C2795 C2791 1.430 . S
C2795 C2794 1.385 . S
C2796 C2794 1.478 . S
C2796 C2798 1.381 . S
C2796 C2802 1.383 . S
C2797 C2793 1.495 . S
C2797 H2803 0.959 . S
C2797 H2804 0.961 . S
C2797 H2805 0.960 . S
C2798 C2796 1.381 . S
C2798 C2799 1.394 . S
C2798 H2806 0.930 . S
C2799 C2798 1.394 . S
C2799 C2800 1.383 . S
C2799 H2807 0.929 . S
C2800 C2799 1.383 . S
C2800 C2801 1.377 . S
C2801 H2785 0.930 . S
C2801 C2800 1.377 . S
C2801 C2802 1.379 . S
C2802 H2786 0.931 . S
C2802 C2796 1.383 . S
C2802 C2801 1.379 . S
H2803 C2797 0.959 . S
H2804 C2797 0.961 . S
H2805 C2797 0.960 . S
H2806 C2798 0.930 . S
H2807 C2799 0.929 . S
H2808 C2816 0.929 . S
H2809 C2818 0.930 . S
H2810 C2820 0.930 . S
H2811 C2823 0.929 . S
H2812 C2826 0.930 . S
H2813 C2828 0.960 . S
H2814 C2828 0.960 . S
H2815 C2828 0.960 . S
C2816 H2808 0.929 . S
C2816 C2817 1.377 . S
C2816 C2818 1.384 . S
C2817 C2816 1.377 . S
C2817 C2823 1.390 . S
C2818 H2809 0.930 . S
C2818 C2816 1.384 . S
C2818 C2819 1.372 . S
C2819 C2818 1.372 . S
C2819 C2820 1.400 . S
C2819 C2824 1.490 . S
C2820 H2810 0.930 . S
C2820 C2819 1.400 . S
C2820 C2823 1.386 . S
H2821 C2837 0.930 . S
H2822 C2838 0.931 . S
C2823 H2811 0.929 . S
C2823 C2817 1.390 . S
C2823 C2820 1.386 . S
C2824 C2819 1.490 . S
C2824 C2826 1.395 . S
C2824 C2827 1.403 . S
H2825 C2831 0.930 . S
C2826 H2812 0.930 . S
C2826 C2824 1.395 . S
C2826 C2829 1.403 . S
C2827 C2824 1.403 . S
C2827 C2828 1.524 . S
C2827 C2831 1.400 . S
C2828 H2813 0.960 . S
C2828 H2814 0.960 . S
C2828 H2815 0.960 . S
C2828 C2827 1.524 . S
C2829 C2826 1.403 . S
C2829 C2830 1.392 . S
C2829 C2833 1.489 1_455 S
C2830 C2829 1.392 . S
C2830 C2831 1.385 . S
C2830 C2832 1.478 1_455 S
C2831 H2825 0.930 . S
C2831 C2827 1.400 . S
C2831 C2830 1.385 . S
C2832 C2830 1.478 1_655 S
C2832 C2834 1.381 . S
C2832 C2838 1.383 1_655 S
C2833 C2829 1.489 1_655 S
C2833 H2839 0.966 1_655 S
C2833 H2840 0.943 1_655 S
C2833 H2841 0.977 . S
C2834 C2832 1.381 . S
C2834 C2835 1.394 . S
C2834 H2842 0.930 . S
C2835 C2834 1.394 . S
C2835 C2836 1.383 . S
C2835 H2843 0.929 . S
C2836 C2835 1.383 . S
C2836 C2837 1.377 1_655 S
C2837 H2821 0.930 . S
C2837 C2836 1.377 1_455 S
C2837 C2838 1.379 . S
C2838 H2822 0.931 . S
C2838 C2832 1.383 1_455 S
C2838 C2837 1.379 . S
H2839 C2833 0.966 1_455 S
H2840 C2833 0.943 1_455 S
H2841 C2833 0.977 . S
H2842 C2834 0.930 . S
H2843 C2835 0.929 . S
H2844 C2852 0.929 . S
H2845 C2854 0.930 . S
H2846 C2856 0.930 . S
H2847 C2859 0.929 . S
H2848 C2862 0.930 . S
H2849 C2864 0.960 . S
H2850 C2864 0.960 . S
H2851 C2864 0.960 . S
C2852 H2844 0.929 . S
C2852 C2853 1.377 . S
C2852 C2854 1.384 . S
C2853 C2852 1.377 . S
C2853 C2859 1.390 . S
C2854 H2845 0.930 . S
C2854 C2852 1.384 . S
C2854 C2855 1.372 . S
C2855 C2854 1.372 . S
C2855 C2856 1.400 . S
C2855 C2860 1.490 . S
C2856 H2846 0.930 . S
C2856 C2855 1.400 . S
C2856 C2859 1.386 . S
H2857 C2873 0.930 . S
H2858 C2874 0.931 . S
C2859 H2847 0.929 . S
C2859 C2853 1.390 . S
C2859 C2856 1.386 . S
C2860 C2855 1.490 . S
C2860 C2862 1.395 . S
C2860 C2863 1.403 . S
H2861 C2867 0.930 . S
C2862 H2848 0.930 . S
C2862 C2860 1.395 . S
C2862 C2865 1.403 . S
C2863 C2860 1.403 . S
C2863 C2864 1.524 . S
C2863 C2867 1.400 . S
C2864 H2849 0.960 . S
C2864 H2850 0.960 . S
C2864 H2851 0.960 . S
C2864 C2863 1.524 . S
C2865 C2862 1.403 . S
C2865 C2866 1.392 . S
C2865 C2869 1.495 . S
C2866 C2865 1.392 . S
C2866 C2867 1.385 . S
C2866 C2868 1.478 . S
C2867 H2861 0.930 . S
C2867 C2863 1.400 . S
C2867 C2866 1.385 . S
C2868 C2866 1.478 . S
C2868 C2870 1.381 . S
C2868 C2874 1.383 . S
C2869 C2865 1.495 . S
C2869 H2875 0.959 . S
C2869 H2876 0.961 . S
C2869 H2877 0.960 . S
C2870 C2868 1.381 . S
C2870 C2871 1.394 . S
C2870 H2878 0.930 . S
C2871 C2870 1.394 . S
C2871 C2872 1.383 . S
C2871 H2879 0.929 . S
C2872 C2871 1.383 . S
C2872 C2873 1.377 . S
C2873 H2857 0.930 . S
C2873 C2872 1.377 . S
C2873 C2874 1.379 . S
C2874 H2858 0.931 . S
C2874 C2868 1.383 . S
C2874 C2873 1.379 . S
H2875 C2869 0.959 . S
H2876 C2869 0.961 . S
H2877 C2869 0.960 . S
H2878 C2870 0.930 . S
H2879 C2871 0.929 . S
H2880 C2888 0.929 . S
H2881 C2890 0.925 1_545 S
H2882 C2892 0.930 . S
H2883 C2895 0.929 . S
H2884 C2898 0.930 1_565 S
H2885 C2900 0.960 . S
H2886 C2900 0.960 . S
H2887 C2900 0.960 . S
C2888 H2880 0.929 . S
C2888 C2889 1.377 . S
C2888 C2890 1.382 . S
C2889 C2888 1.377 . S
C2889 C2895 1.390 . S
C2890 H2881 0.925 1_565 S
C2890 C2888 1.382 . S
C2890 C2891 1.382 1_565 S
C2891 C2890 1.382 1_545 S
C2891 C2892 1.400 1_545 S
C2891 C2896 1.490 . S
C2892 H2882 0.930 . S
C2892 C2891 1.400 1_565 S
C2892 C2895 1.386 . S
H2893 C2909 0.930 . S
H2894 C2910 0.931 . S
C2895 H2883 0.929 . S
C2895 C2889 1.390 . S
C2895 C2892 1.386 . S
C2896 C2891 1.490 . S
C2896 C2898 1.395 . S
C2896 C2899 1.403 . S
H2897 C2903 0.930 . S
C2898 H2884 0.930 1_545 S
C2898 C2896 1.395 . S
C2898 C2901 1.403 . S
C2899 C2896 1.403 . S
C2899 C2900 1.524 . S
C2899 C2903 1.400 . S
C2900 H2885 0.960 . S
C2900 H2886 0.960 . S
C2900 H2887 0.960 . S
C2900 C2899 1.524 . S
C2901 C2898 1.403 . S
C2901 C2902 1.392 . S
C2901 C2905 1.526 . S
C2902 C2901 1.392 . S
C2902 C2903 1.385 . S
C2902 C2904 1.478 . S
C2903 H2897 0.930 . S
C2903 C2899 1.400 . S
C2903 C2902 1.385 . S
C2904 C2902 1.478 . S
C2904 C2906 1.381 . S
C2904 C2910 1.383 . S
C2905 C2901 1.526 . S
C2905 H2911 0.940 1_545 S
C2905 H2912 0.935 1_545 S
C2905 H2913 0.976 . S
C2906 C2904 1.381 . S
C2906 C2907 1.394 . S
C2906 H2914 0.930 . S
C2907 C2906 1.394 . S
C2907 C2908 1.383 . S
C2907 H2915 0.929 . S
C2908 C2907 1.383 . S
C2908 C2909 1.377 . S
C2909 H2893 0.930 . S
C2909 C2908 1.377 . S
C2909 C2910 1.379 . S
C2910 H2894 0.931 . S
C2910 C2904 1.383 . S
C2910 C2909 1.379 . S
H2911 C2905 0.940 1_565 S
H2912 C2905 0.935 1_565 S
H2913 C2905 0.976 . S
H2914 C2906 0.930 . S
H2915 C2907 0.929 . S
H2916 C2924 0.929 . S
H2917 C2926 0.930 . S
H2918 C2928 0.930 . S
H2919 C2931 0.929 . S
H2920 C2934 0.930 . S
H2921 C2936 0.960 . S
H2922 C2936 0.960 . S
H2923 C2936 0.960 . S
C2924 H2916 0.929 . S
C2924 C2925 1.377 . S
C2924 C2926 1.384 . S
C2925 C2924 1.377 . S
C2925 C2931 1.390 . S
C2926 H2917 0.930 . S
C2926 C2924 1.384 . S
C2926 C2927 1.372 . S
C2927 C2926 1.372 . S
C2927 C2928 1.400 . S
C2927 C2932 1.490 . S
C2928 H2918 0.930 . S
C2928 C2927 1.400 . S
C2928 C2931 1.386 . S
H2929 C2945 0.930 1_655 S
H2930 C2946 0.931 . S
C2931 H2919 0.929 . S
C2931 C2925 1.390 . S
C2931 C2928 1.386 . S
C2932 C2927 1.490 . S
C2932 C2934 1.395 . S
C2932 C2935 1.403 . S
H2933 C2939 0.930 . S
C2934 H2920 0.930 . S
C2934 C2932 1.395 . S
C2934 C2937 1.403 . S
C2935 C2932 1.403 . S
C2935 C2936 1.524 . S
C2935 C2939 1.400 . S
C2936 H2921 0.960 . S
C2936 H2922 0.960 . S
C2936 H2923 0.960 . S
C2936 C2935 1.524 . S
C2937 C2934 1.403 . S
C2937 C2938 1.392 . S
C2937 C2941 1.495 . S
C2938 C2937 1.392 . S
C2938 C2939 1.385 . S
C2938 C2940 1.478 . S
C2939 H2933 0.930 . S
C2939 C2935 1.400 . S
C2939 C2938 1.385 . S
C2940 C2938 1.478 . S
C2940 C2942 1.381 1_655 S
C2940 C2946 1.383 . S
C2941 C2937 1.495 . S
C2941 H2947 0.959 . S
C2941 H2948 0.961 . S
C2941 H2949 0.960 . S
C2942 C2940 1.381 1_455 S
C2942 C2943 1.394 . S
C2942 H2950 0.930 . S
C2943 C2942 1.394 . S
C2943 C2944 1.383 . S
C2943 H2951 0.929 . S
C2944 C2943 1.383 . S
C2944 C2945 1.387 . S
C2945 H2929 0.930 1_455 S
C2945 C2944 1.387 . S
C2945 C2946 1.369 1_455 S
C2946 H2930 0.931 . S
C2946 C2940 1.383 . S
C2946 C2945 1.369 1_655 S
H2947 C2941 0.959 . S
H2948 C2941 0.961 . S
H2949 C2941 0.960 . S
H2950 C2942 0.930 . S
H2951 C2943 0.929 . S
H2952 C2960 0.929 . S
H2953 C2962 0.930 . S
H2954 C2964 0.930 . S
H2955 C2967 0.929 . S
H2956 C2970 0.930 . S
H2957 C2972 0.960 . S
H2958 C2972 0.960 . S
H2959 C2972 0.960 . S
C2960 H2952 0.929 . S
C2960 C2961 1.377 . S
C2960 C2962 1.384 . S
C2961 C2960 1.377 . S
C2961 C2967 1.390 . S
C2962 H2953 0.930 . S
C2962 C2960 1.384 . S
C2962 C2963 1.372 . S
C2963 C2962 1.372 . S
C2963 C2964 1.400 . S
C2963 C2968 1.490 . S
C2964 H2954 0.930 . S
C2964 C2963 1.400 . S
C2964 C2967 1.386 . S
H2965 C2981 0.930 . S
H2966 C2982 0.931 . S
C2967 H2955 0.929 . S
C2967 C2961 1.390 . S
C2967 C2964 1.386 . S
C2968 C2963 1.490 . S
C2968 C2970 1.395 . S
C2968 C2971 1.403 . S
H2969 C2975 0.930 . S
C2970 H2956 0.930 . S
C2970 C2968 1.395 . S
C2970 C2973 1.403 . S
C2971 C2968 1.403 . S
C2971 C2972 1.524 . S
C2971 C2975 1.400 . S
C2972 H2957 0.960 . S
C2972 H2958 0.960 . S
C2972 H2959 0.960 . S
C2972 C2971 1.524 . S
C2973 C2970 1.403 . S
C2973 C2974 1.392 . S
C2973 C2977 1.495 . S
C2974 C2973 1.392 . S
C2974 C2975 1.385 . S
C2974 C2976 1.478 . S
C2975 H2969 0.930 . S
C2975 C2971 1.400 . S
C2975 C2974 1.385 . S
C2976 C2974 1.478 . S
C2976 C2978 1.381 . S
C2976 C2982 1.383 . S
C2977 C2973 1.495 . S
C2977 H2983 0.959 . S
C2977 H2984 0.961 . S
C2977 H2985 0.960 . S
C2978 C2976 1.381 . S
C2978 C2979 1.394 . S
C2978 H2986 0.930 . S
C2979 C2978 1.394 . S
C2979 C2980 1.383 . S
C2979 H2987 0.929 . S
C2980 C2979 1.383 . S
C2980 C2981 1.377 . S
C2981 H2965 0.930 . S
C2981 C2980 1.377 . S
C2981 C2982 1.379 . S
C2982 H2966 0.931 . S
C2982 C2976 1.383 . S
C2982 C2981 1.379 . S
H2983 C2977 0.959 . S
H2984 C2977 0.961 . S
H2985 C2977 0.960 . S
H2986 C2978 0.930 . S
H2987 C2979 0.929 . S
H2988 C2996 0.929 . S
H2989 C2998 0.930 . S
H2990 C3000 0.930 . S
H2991 C3003 0.929 . S
H2992 C3006 0.930 . S
H2993 C3008 0.960 . S
H2994 C3008 0.960 . S
H2995 C3008 0.959 . S
C2996 H2988 0.929 . S
C2996 C2997 1.377 . S
C2996 C2998 1.384 . S
C2997 C2996 1.377 . S
C2997 C3003 1.390 . S
C2998 H2989 0.930 . S
C2998 C2996 1.384 . S
C2998 C2999 1.372 . S
C2999 C2998 1.372 . S
C2999 C3000 1.400 . S
C2999 C3004 1.490 . S
C3000 H2990 0.930 . S
C3000 C2999 1.400 . S
C3000 C3003 1.386 . S
H3001 C3017 0.930 . S
H3002 C3018 0.937 . S
C3003 H2991 0.929 . S
C3003 C2997 1.390 . S
C3003 C3000 1.386 . S
C3004 C2999 1.490 . S
C3004 C3006 1.395 . S
C3004 C3007 1.403 . S
H3005 C3011 0.930 1_565 S
C3006 H2992 0.930 . S
C3006 C3004 1.395 . S
C3006 C3009 1.403 . S
C3007 C3004 1.403 . S
C3007 C3008 1.524 1_545 S
C3007 C3011 1.400 . S
C3008 H2993 0.960 . S
C3008 H2994 0.960 . S
C3008 H2995 0.959 . S
C3008 C3007 1.524 1_565 S
C3009 C3006 1.403 . S
C3009 C3010 1.392 . S
C3009 C3013 1.495 . S
C3010 C3009 1.392 . S
C3010 C3011 1.385 . S
C3010 C3012 1.478 . S
C3011 H3005 0.930 1_545 S
C3011 C3007 1.400 . S
C3011 C3010 1.385 . S
C3012 C3010 1.478 . S
C3012 C3014 1.381 1_545 S
C3012 C3018 1.383 1_545 S
C3013 C3009 1.495 . S
C3013 H3019 0.959 . S
C3013 H3020 0.961 . S
C3013 H3021 0.960 . S
C3014 C3012 1.381 1_565 S
C3014 C3015 1.394 . S
C3014 H3022 0.930 1_565 S
C3015 C3014 1.394 . S
C3015 C3016 1.383 . S
C3015 H3023 0.929 . S
C3016 C3015 1.383 . S
C3016 C3017 1.377 . S
C3017 H3001 0.930 . S
C3017 C3016 1.377 . S
C3017 C3018 1.379 . S
C3018 H3002 0.937 . S
C3018 C3012 1.383 1_565 S
C3018 C3017 1.379 . S
H3019 C3013 0.959 . S
H3020 C3013 0.961 . S
H3021 C3013 0.960 . S
H3022 C3014 0.930 1_545 S
H3023 C3015 0.929 . S
H3024 C3032 0.929 . S
H3025 C3034 0.930 . S
H3026 C3036 0.930 . S
H3027 C3039 0.929 . S
H3028 C3042 0.930 . S
H3029 C3044 0.960 . S
H3030 C3044 0.960 . S
H3031 C3044 0.960 . S
C3032 H3024 0.929 . S
C3032 C3033 1.377 . S
C3032 C3034 1.384 . S
C3033 C3032 1.377 . S
C3033 C3039 1.390 . S
C3034 H3025 0.930 . S
C3034 C3032 1.384 . S
C3034 C3035 1.372 . S
C3035 C3034 1.372 . S
C3035 C3036 1.400 . S
C3035 C3040 1.490 . S
C3036 H3026 0.930 . S
C3036 C3035 1.400 . S
C3036 C3039 1.386 . S
H3037 C3053 0.927 . S
H3038 C3054 0.931 . S
C3039 H3027 0.929 . S
C3039 C3033 1.390 . S
C3039 C3036 1.386 . S
C3040 C3035 1.490 . S
C3040 C3042 1.395 . S
C3040 C3043 1.403 . S
H3041 C3047 0.930 . S
C3042 H3028 0.930 . S
C3042 C3040 1.395 . S
C3042 C3045 1.403 . S
C3043 C3040 1.403 . S
C3043 C3044 1.524 . S
C3043 C3047 1.400 . S
C3044 H3029 0.960 . S
C3044 H3030 0.960 . S
C3044 H3031 0.960 . S
C3044 C3043 1.524 . S
C3045 C3042 1.403 . S
C3045 C3046 1.392 . S
C3045 C3049 1.495 1_655 S
C3046 C3045 1.392 . S
C3046 C3047 1.385 . S
C3046 C3048 1.478 1_655 S
C3047 H3041 0.930 . S
C3047 C3043 1.400 . S
C3047 C3046 1.385 . S
C3048 C3046 1.478 1_455 S
C3048 C3050 1.381 . S
C3048 C3054 1.383 1_455 S
C3049 C3045 1.495 1_455 S
C3049 H3055 0.959 . S
C3049 H3056 0.961 . S
C3049 H3057 0.960 . S
C3050 C3048 1.381 . S
C3050 C3051 1.394 . S
C3050 H3058 0.930 . S
C3051 C3050 1.394 . S
C3051 C3052 1.383 . S
C3051 H3059 0.929 . S
C3052 C3051 1.383 . S
C3052 C3053 1.379 1_455 S
C3053 H3037 0.927 . S
C3053 C3052 1.379 1_655 S
C3053 C3054 1.380 . S
C3054 H3038 0.931 . S
C3054 C3048 1.383 1_655 S
C3054 C3053 1.380 . S
H3055 C3049 0.959 . S
H3056 C3049 0.961 . S
H3057 C3049 0.960 . S
H3058 C3050 0.930 . S
H3059 C3051 0.929 . S
H3060 C3068 0.929 . S
H3061 C3070 0.930 . S
H3062 C3072 0.930 . S
H3063 C3075 0.929 . S
H3064 C3078 0.930 . S
H3065 C3080 0.960 . S
H3066 C3080 0.960 . S
H3067 C3080 0.960 . S
C3068 H3060 0.929 . S
C3068 C3069 1.377 . S
C3068 C3070 1.384 . S
C3069 C3068 1.377 . S
C3069 C3075 1.390 . S
C3070 H3061 0.930 . S
C3070 C3068 1.384 . S
C3070 C3071 1.372 . S
C3071 C3070 1.372 . S
C3071 C3072 1.400 . S
C3071 C3076 1.490 . S
C3072 H3062 0.930 . S
C3072 C3071 1.400 . S
C3072 C3075 1.386 . S
H3073 C3089 0.930 . S
H3074 C3090 0.931 . S
C3075 H3063 0.929 . S
C3075 C3069 1.390 . S
C3075 C3072 1.386 . S
C3076 C3071 1.490 . S
C3076 C3078 1.395 . S
C3076 C3079 1.403 . S
H3077 C3083 0.930 . S
C3078 H3064 0.930 . S
C3078 C3076 1.395 . S
C3078 C3081 1.403 . S
C3079 C3076 1.403 . S
C3079 C3080 1.524 . S
C3079 C3083 1.400 . S
C3080 H3065 0.960 . S
C3080 H3066 0.960 . S
C3080 H3067 0.960 . S
C3080 C3079 1.524 . S
C3081 C3078 1.403 . S
C3081 C3082 1.392 . S
C3081 C3085 1.495 . S
C3082 C3081 1.392 . S
C3082 C3083 1.385 . S
C3082 C3084 1.478 . S
C3083 H3077 0.930 . S
C3083 C3079 1.400 . S
C3083 C3082 1.385 . S
C3084 C3082 1.478 . S
C3084 C3086 1.381 . S
C3084 C3090 1.383 . S
C3085 C3081 1.495 . S
C3085 H3091 0.959 . S
C3085 H3092 0.961 . S
C3085 H3093 0.960 . S
C3086 C3084 1.381 . S
C3086 C3087 1.394 . S
C3086 H3094 0.930 . S
C3087 C3086 1.394 . S
C3087 C3088 1.383 . S
C3087 H3095 0.929 . S
C3088 C3087 1.383 . S
C3088 C3089 1.377 . S
C3089 H3073 0.930 . S
C3089 C3088 1.377 . S
C3089 C3090 1.379 . S
C3090 H3074 0.931 . S
C3090 C3084 1.383 . S
C3090 C3089 1.379 . S
H3091 C3085 0.959 . S
H3092 C3085 0.961 . S
H3093 C3085 0.960 . S
H3094 C3086 0.930 . S
H3095 C3087 0.929 . S
H3096 C3104 0.929 . S
H3097 C3106 0.930 . S
H3098 C3108 0.930 1_565 S
H3099 C3111 0.929 . S
H3100 C3114 0.930 . S
H3101 C3116 0.960 . S
H3102 C3116 0.960 . S
H3103 C3116 0.960 . S
C3104 H3096 0.929 . S
C3104 C3105 1.377 . S
C3104 C3106 1.384 . S
C3105 C3104 1.377 . S
C3105 C3111 1.390 . S
C3106 H3097 0.930 . S
C3106 C3104 1.384 . S
C3106 C3107 1.371 1_545 S
C3107 C3106 1.371 1_565 S
C3107 C3108 1.403 1_565 S
C3107 C3112 1.488 . S
C3108 H3098 0.930 1_545 S
C3108 C3107 1.403 1_545 S
C3108 C3111 1.386 . S
H3109 C3125 0.930 . S
H3110 C3126 0.931 . S
C3111 H3099 0.929 . S
C3111 C3105 1.390 . S
C3111 C3108 1.386 . S
C3112 C3107 1.488 . S
C3112 C3114 1.395 1_565 S
C3112 C3115 1.403 . S
H3113 C3119 0.930 . S
C3114 H3100 0.930 . S
C3114 C3112 1.395 1_545 S
C3114 C3117 1.403 1_545 S
C3115 C3112 1.403 . S
C3115 C3116 1.524 . S
C3115 C3119 1.400 . S
C3116 H3101 0.960 . S
C3116 H3102 0.960 . S
C3116 H3103 0.960 . S
C3116 C3115 1.524 . S
C3117 C3114 1.403 1_565 S
C3117 C3118 1.392 . S
C3117 C3121 1.495 1_565 S
C3118 C3117 1.392 . S
C3118 C3119 1.385 . S
C3118 C3120 1.478 . S
C3119 H3113 0.930 . S
C3119 C3115 1.400 . S
C3119 C3118 1.385 . S
C3120 C3118 1.478 . S
C3120 C3122 1.381 . S
C3120 C3126 1.383 . S
C3121 C3117 1.495 1_545 S
C3121 H3127 0.959 . S
C3121 H3128 0.961 . S
C3121 H3129 0.960 . S
C3122 C3120 1.381 . S
C3122 C3123 1.394 . S
C3122 H3130 0.930 . S
C3123 C3122 1.394 . S
C3123 C3124 1.383 . S
C3123 H3131 0.929 . S
C3124 C3123 1.383 . S
C3124 C3125 1.377 . S
C3125 H3109 0.930 . S
C3125 C3124 1.377 . S
C3125 C3126 1.379 . S
C3126 H3110 0.931 . S
C3126 C3120 1.383 . S
C3126 C3125 1.379 . S
H3127 C3121 0.959 . S
H3128 C3121 0.961 . S
H3129 C3121 0.960 . S
H3130 C3122 0.930 . S
H3131 C3123 0.929 . S
H3132 C3140 0.929 . S
H3133 C3142 0.930 . S
H3134 C3144 0.930 . S
H3135 C3147 0.929 . S
H3136 C3150 0.930 . S
H3137 C3152 0.960 . S
H3138 C3152 0.960 . S
H3139 C3152 0.960 1_655 S
C3140 H3132 0.929 . S
C3140 C3141 1.347 1_455 S
C3140 C3142 1.415 . S
C3141 C3140 1.347 1_655 S
C3141 C3147 1.390 . S
C3142 H3133 0.930 . S
C3142 C3140 1.415 . S
C3142 C3143 1.372 . S
C3143 C3142 1.372 . S
C3143 C3144 1.400 1_455 S
C3143 C3148 1.490 . S
C3144 H3134 0.930 . S
C3144 C3143 1.400 1_655 S
C3144 C3147 1.386 . S
H3145 C3161 0.930 . S
H3146 C3162 0.931 . S
C3147 H3135 0.929 . S
C3147 C3141 1.390 . S
C3147 C3144 1.386 . S
C3148 C3143 1.490 . S
C3148 C3150 1.395 . S
C3148 C3151 1.403 . S
H3149 C3155 0.930 . S
C3150 H3136 0.930 . S
C3150 C3148 1.395 . S
C3150 C3153 1.403 . S
C3151 C3148 1.403 . S
C3151 C3152 1.524 . S
C3151 C3155 1.400 . S
C3152 H3137 0.960 . S
C3152 H3138 0.960 . S
C3152 H3139 0.960 1_455 S
C3152 C3151 1.524 . S
C3153 C3150 1.403 . S
C3153 C3154 1.392 . S
C3153 C3157 1.495 . S
C3154 C3153 1.392 . S
C3154 C3155 1.385 . S
C3154 C3156 1.478 . S
C3155 H3149 0.930 . S
C3155 C3151 1.400 . S
C3155 C3154 1.385 . S
C3156 C3154 1.478 . S
C3156 C3158 1.381 . S
C3156 C3162 1.383 . S
C3157 C3153 1.495 . S
C3157 H3163 0.959 . S
C3157 H3164 0.961 . S
C3157 H3165 0.960 . S
C3158 C3156 1.381 . S
C3158 C3159 1.394 . S
C3158 H3166 0.930 . S
C3159 C3158 1.394 . S
C3159 C3160 1.383 . S
C3159 H3167 0.929 . S
C3160 C3159 1.383 . S
C3160 C3161 1.377 . S
C3161 H3145 0.930 . S
C3161 C3160 1.377 . S
C3161 C3162 1.379 . S
C3162 H3146 0.931 . S
C3162 C3156 1.383 . S
C3162 C3161 1.379 . S
H3163 C3157 0.959 . S
H3164 C3157 0.961 . S
H3165 C3157 0.960 . S
H3166 C3158 0.930 . S
H3167 C3159 0.929 . S
H3168 C3176 0.929 . S
H3169 C3178 0.930 . S
H3170 C3180 0.930 . S
H3171 C3183 0.929 . S
H3172 C3186 0.958 . S
H3173 C3188 0.960 1_455 S
H3174 C3188 0.960 . S
H3175 C3188 0.960 . S
C3176 H3168 0.929 . S
C3176 C3177 1.377 . S
C3176 C3178 1.384 . S
C3177 C3176 1.377 . S
C3177 C3183 1.390 . S
C3178 H3169 0.930 . S
C3178 C3176 1.384 . S
C3178 C3179 1.372 . S
C3179 C3178 1.372 . S
C3179 C3180 1.400 . S
C3179 C3184 1.490 . S
C3180 H3170 0.930 . S
C3180 C3179 1.400 . S
C3180 C3183 1.386 . S
H3181 C3197 0.930 . S
H3182 C3198 0.931 . S
C3183 H3171 0.929 . S
C3183 C3177 1.390 . S
C3183 C3180 1.386 . S
C3184 C3179 1.490 . S
C3184 C3186 1.391 . S
C3184 C3187 1.403 1_655 S
H3185 C3191 0.930 . S
C3186 H3172 0.958 . S
C3186 C3184 1.391 . S
C3186 C3189 1.380 1_655 S
C3187 C3184 1.403 1_455 S
C3187 C3188 1.524 1_455 S
C3187 C3191 1.400 . S
C3188 H3173 0.960 1_655 S
C3188 H3174 0.960 . S
C3188 H3175 0.960 . S
C3188 C3187 1.524 1_655 S
C3189 C3186 1.380 1_455 S
C3189 C3190 1.392 . S
C3189 C3193 1.495 . S
C3190 C3189 1.392 . S
C3190 C3191 1.385 . S
C3190 C3192 1.478 . S
C3191 H3185 0.930 . S
C3191 C3187 1.400 . S
C3191 C3190 1.385 . S
C3192 C3190 1.478 . S
C3192 C3194 1.381 . S
C3192 C3198 1.383 . S
C3193 C3189 1.495 . S
C3193 H3199 0.959 . S
C3193 H3200 0.961 . S
C3193 H3201 0.960 . S
C3194 C3192 1.381 . S
C3194 C3195 1.394 . S
C3194 H3202 0.930 . S
C3195 C3194 1.394 . S
C3195 C3196 1.383 . S
C3195 H3203 0.929 . S
C3196 C3195 1.383 . S
C3196 C3197 1.377 . S
C3197 H3181 0.930 . S
C3197 C3196 1.377 . S
C3197 C3198 1.379 . S
C3198 H3182 0.931 . S
C3198 C3192 1.383 . S
C3198 C3197 1.379 . S
H3199 C3193 0.959 . S
H3200 C3193 0.961 . S
H3201 C3193 0.960 . S
H3202 C3194 0.930 . S
H3203 C3195 0.929 . S
H3204 C3212 0.929 . S
H3205 C3214 0.930 . S
H3206 C3216 0.930 . S
H3207 C3219 0.929 . S
H3208 C3222 0.930 . S
H3209 C3224 0.960 . S
H3210 C3224 0.960 . S
H3211 C3224 0.960 . S
C3212 H3204 0.929 . S
C3212 C3213 1.377 . S
C3212 C3214 1.384 . S
C3213 C3212 1.377 . S
C3213 C3219 1.390 . S
C3214 H3205 0.930 . S
C3214 C3212 1.384 . S
C3214 C3215 1.372 . S
C3215 C3214 1.372 . S
C3215 C3216 1.400 . S
C3215 C3220 1.490 . S
C3216 H3206 0.930 . S
C3216 C3215 1.400 . S
C3216 C3219 1.386 . S
H3217 C3233 0.930 . S
H3218 C3234 0.931 . S
C3219 H3207 0.929 . S
C3219 C3213 1.390 . S
C3219 C3216 1.386 . S
C3220 C3215 1.490 . S
C3220 C3222 1.395 . S
C3220 C3223 1.403 . S
H3221 C3227 0.930 . S
C3222 H3208 0.930 . S
C3222 C3220 1.395 . S
C3222 C3225 1.403 . S
C3223 C3220 1.403 . S
C3223 C3224 1.524 . S
C3223 C3227 1.400 . S
C3224 H3209 0.960 . S
C3224 H3210 0.960 . S
C3224 H3211 0.960 . S
C3224 C3223 1.524 . S
C3225 C3222 1.403 . S
C3225 C3226 1.392 . S
C3225 C3229 1.495 . S
C3226 C3225 1.392 . S
C3226 C3227 1.385 . S
C3226 C3228 1.478 . S
C3227 H3221 0.930 . S
C3227 C3223 1.400 . S
C3227 C3226 1.385 . S
C3228 C3226 1.478 . S
C3228 C3230 1.381 . S
C3228 C3234 1.383 . S
C3229 C3225 1.495 . S
C3229 H3235 0.959 . S
C3229 H3236 0.961 . S
C3229 H3237 0.960 . S
C3230 C3228 1.381 . S
C3230 C3231 1.394 . S
C3230 H3238 0.930 . S
C3231 C3230 1.394 . S
C3231 C3232 1.383 . S
C3231 H3239 0.929 . S
C3232 C3231 1.383 . S
C3232 C3233 1.377 . S
C3233 H3217 0.930 . S
C3233 C3232 1.377 . S
C3233 C3234 1.379 . S
C3234 H3218 0.931 . S
C3234 C3228 1.383 . S
C3234 C3233 1.379 . S
H3235 C3229 0.959 . S
H3236 C3229 0.961 . S
H3237 C3229 0.960 . S
H3238 C3230 0.930 . S
H3239 C3231 0.929 . S
H3240 C3248 0.929 . S
H3241 C3250 0.930 . S
H3242 C3252 0.930 . S
H3243 C3255 0.929 . S
H3244 C3258 0.930 . S
H3245 C3260 0.960 . S
H3246 C3260 0.960 . S
H3247 C3260 0.960 . S
C3248 H3240 0.929 . S
C3248 C3249 1.377 . S
C3248 C3250 1.384 . S
C3249 C3248 1.377 . S
C3249 C3255 1.390 . S
C3250 H3241 0.930 . S
C3250 C3248 1.384 . S
C3250 C3251 1.372 . S
C3251 C3250 1.372 . S
C3251 C3252 1.400 . S
C3251 C3256 1.490 . S
C3252 H3242 0.930 . S
C3252 C3251 1.400 . S
C3252 C3255 1.386 . S
H3253 C3269 0.930 . S
H3254 C3270 0.931 . S
C3255 H3243 0.929 . S
C3255 C3249 1.390 . S
C3255 C3252 1.386 . S
C3256 C3251 1.490 . S
C3256 C3258 1.395 . S
C3256 C3259 1.403 . S
H3257 C3263 0.930 . S
C3258 H3244 0.930 . S
C3258 C3256 1.395 . S
C3258 C3261 1.403 . S
C3259 C3256 1.403 . S
C3259 C3260 1.524 . S
C3259 C3263 1.400 1_565 S
C3260 H3245 0.960 . S
C3260 H3246 0.960 . S
C3260 H3247 0.960 . S
C3260 C3259 1.524 . S
C3261 C3258 1.403 . S
C3261 C3262 1.392 1_565 S
C3261 C3265 1.495 1_565 S
C3262 C3261 1.392 1_545 S
C3262 C3263 1.385 . S
C3262 C3264 1.478 . S
C3263 H3257 0.930 . S
C3263 C3259 1.400 1_545 S
C3263 C3262 1.385 . S
C3264 C3262 1.478 . S
C3264 C3266 1.381 . S
C3264 C3270 1.383 . S
C3265 C3261 1.495 1_545 S
C3265 H3271 0.959 1_545 S
C3265 H3272 0.961 . S
C3265 H3273 0.960 . S
C3266 C3264 1.381 . S
C3266 C3267 1.394 . S
C3266 H3274 0.930 . S
C3267 C3266 1.394 . S
C3267 C3268 1.383 . S
C3267 H3275 0.929 . S
C3268 C3267 1.383 . S
C3268 C3269 1.377 . S
C3269 H3253 0.930 . S
C3269 C3268 1.377 . S
C3269 C3270 1.379 . S
C3270 H3254 0.931 . S
C3270 C3264 1.383 . S
C3270 C3269 1.379 . S
H3271 C3265 0.959 1_565 S
H3272 C3265 0.961 . S
H3273 C3265 0.960 . S
H3274 C3266 0.930 . S
H3275 C3267 0.929 . S
H3276 C3284 0.929 . S
H3277 C3286 0.930 . S
H3278 C3288 0.930 . S
H3279 C3291 0.929 . S
H3280 C3294 0.930 . S
H3281 C3296 0.960 1_655 S
H3282 C3296 0.960 . S
H3283 C3296 0.960 . S
C3284 H3276 0.929 . S
C3284 C3285 1.377 . S
C3284 C3286 1.384 . S
C3285 C3284 1.377 . S
C3285 C3291 1.390 . S
C3286 H3277 0.930 . S
C3286 C3284 1.384 . S
C3286 C3287 1.372 . S
C3287 C3286 1.372 . S
C3287 C3288 1.400 . S
C3287 C3292 1.490 . S
C3288 H3278 0.930 . S
C3288 C3287 1.400 . S
C3288 C3291 1.386 . S
H3289 C3305 0.930 . S
H3290 C3306 0.931 . S
C3291 H3279 0.929 . S
C3291 C3285 1.390 . S
C3291 C3288 1.386 . S
C3292 C3287 1.490 . S
C3292 C3294 1.395 . S
C3292 C3295 1.403 . S
H3293 C3299 0.930 . S
C3294 H3280 0.930 . S
C3294 C3292 1.395 . S
C3294 C3297 1.403 . S
C3295 C3292 1.403 . S
C3295 C3296 1.524 . S
C3295 C3299 1.400 . S
C3296 H3281 0.960 1_455 S
C3296 H3282 0.960 . S
C3296 H3283 0.960 . S
C3296 C3295 1.524 . S
C3297 C3294 1.403 . S
C3297 C3298 1.392 . S
C3297 C3301 1.495 . S
C3298 C3297 1.392 . S
C3298 C3299 1.385 . S
C3298 C3300 1.478 . S
C3299 H3293 0.930 . S
C3299 C3295 1.400 . S
C3299 C3298 1.385 . S
C3300 C3298 1.478 . S
C3300 C3302 1.381 . S
C3300 C3306 1.383 . S
C3301 C3297 1.495 . S
C3301 H3307 0.959 . S
C3301 H3308 0.961 . S
C3301 H3309 0.960 . S
C3302 C3300 1.381 . S
C3302 C3303 1.394 1_455 S
C3302 H3310 0.930 . S
C3303 C3302 1.394 1_655 S
C3303 C3304 1.383 . S
C3303 H3311 0.929 . S
C3304 C3303 1.383 . S
C3304 C3305 1.377 . S
C3305 H3289 0.930 . S
C3305 C3304 1.377 . S
C3305 C3306 1.379 1_655 S
C3306 H3290 0.931 . S
C3306 C3300 1.383 . S
C3306 C3305 1.379 1_455 S
H3307 C3301 0.959 . S
H3308 C3301 0.961 . S
H3309 C3301 0.960 . S
H3310 C3302 0.930 . S
H3311 C3303 0.929 . S
H3312 C3320 0.929 . S
H3313 C3322 0.930 . S
H3314 C3324 0.930 . S
H3315 C3327 0.929 . S
H3316 C3330 0.930 . S
H3317 C3332 0.960 . S
H3318 C3332 0.960 . S
H3319 C3332 0.960 . S
C3320 H3312 0.929 . S
C3320 C3321 1.377 . S
C3320 C3322 1.384 . S
C3321 C3320 1.377 . S
C3321 C3327 1.390 . S
C3322 H3313 0.930 . S
C3322 C3320 1.384 . S
C3322 C3323 1.372 . S
C3323 C3322 1.372 . S
C3323 C3324 1.400 . S
C3323 C3328 1.490 . S
C3324 H3314 0.930 . S
C3324 C3323 1.400 . S
C3324 C3327 1.386 . S
H3325 C3341 0.930 . S
H3326 C3342 0.931 . S
C3327 H3315 0.929 . S
C3327 C3321 1.390 . S
C3327 C3324 1.386 . S
C3328 C3323 1.490 . S
C3328 C3330 1.395 . S
C3328 C3331 1.403 . S
H3329 C3335 0.930 . S
C3330 H3316 0.930 . S
C3330 C3328 1.395 . S
C3330 C3333 1.403 . S
C3331 C3328 1.403 . S
C3331 C3332 1.524 . S
C3331 C3335 1.400 . S
C3332 H3317 0.960 . S
C3332 H3318 0.960 . S
C3332 H3319 0.960 . S
C3332 C3331 1.524 . S
C3333 C3330 1.403 . S
C3333 C3334 1.392 . S
C3333 C3337 1.495 . S
C3334 C3333 1.392 . S
C3334 C3335 1.385 . S
C3334 C3336 1.478 . S
C3335 H3329 0.930 . S
C3335 C3331 1.400 . S
C3335 C3334 1.385 . S
C3336 C3334 1.478 . S
C3336 C3338 1.381 . S
C3336 C3342 1.383 . S
C3337 C3333 1.495 . S
C3337 H3343 0.959 . S
C3337 H3344 0.961 . S
C3337 H3345 0.960 . S
C3338 C3336 1.381 . S
C3338 C3339 1.394 . S
C3338 H3346 0.930 . S
C3339 C3338 1.394 . S
C3339 C3340 1.383 . S
C3339 H3347 0.929 . S
C3340 C3339 1.383 . S
C3340 C3341 1.377 . S
C3341 H3325 0.930 . S
C3341 C3340 1.377 . S
C3341 C3342 1.379 . S
C3342 H3326 0.931 . S
C3342 C3336 1.383 . S
C3342 C3341 1.379 . S
H3343 C3337 0.959 . S
H3344 C3337 0.961 . S
H3345 C3337 0.960 . S
H3346 C3338 0.930 . S
H3347 C3339 0.929 . S
H3348 C3356 0.929 . S
H3349 C3358 0.930 . S
H3350 C3360 0.930 . S
H3351 C3363 0.929 . S
H3352 C3366 0.930 . S
H3353 C3368 0.960 . S
H3354 C3368 0.960 . S
H3355 C3368 0.960 . S
C3356 H3348 0.929 . S
C3356 C3357 1.377 . S
C3356 C3358 1.384 . S
C3357 C3356 1.377 . S
C3357 C3363 1.390 . S
C3358 H3349 0.930 . S
C3358 C3356 1.384 . S
C3358 C3359 1.372 . S
C3359 C3358 1.372 . S
C3359 C3360 1.400 . S
C3359 C3364 1.490 . S
C3360 H3350 0.930 . S
C3360 C3359 1.400 . S
C3360 C3363 1.386 . S
H3361 C3377 0.930 . S
H3362 C3378 0.931 1_565 S
C3363 H3351 0.929 . S
C3363 C3357 1.390 . S
C3363 C3360 1.386 . S
C3364 C3359 1.490 . S
C3364 C3366 1.395 . S
C3364 C3367 1.403 . S
H3365 C3371 0.930 . S
C3366 H3352 0.930 . S
C3366 C3364 1.395 . S
C3366 C3369 1.403 . S
C3367 C3364 1.403 . S
C3367 C3368 1.524 . S
C3367 C3371 1.400 . S
C3368 H3353 0.960 . S
C3368 H3354 0.960 . S
C3368 H3355 0.960 . S
C3368 C3367 1.524 . S
C3369 C3366 1.403 . S
C3369 C3370 1.392 . S
C3369 C3373 1.495 1_565 S
C3370 C3369 1.392 . S
C3370 C3371 1.385 . S
C3370 C3372 1.478 . S
C3371 H3365 0.930 . S
C3371 C3367 1.400 . S
C3371 C3370 1.385 . S
C3372 C3370 1.478 . S
C3372 C3374 1.366 1_565 S
C3372 C3378 1.383 1_565 S
C3373 C3369 1.495 1_545 S
C3373 H3379 0.959 . S
C3373 H3380 0.961 . S
C3373 H3381 0.960 . S
C3374 C3372 1.366 1_545 S
C3374 C3375 1.421 . S
C3374 H3382 0.919 1_545 S
C3375 C3374 1.421 . S
C3375 C3376 1.383 . S
C3375 H3383 0.929 . S
C3376 C3375 1.383 . S
C3376 C3377 1.377 . S
C3377 H3361 0.930 . S
C3377 C3376 1.377 . S
C3377 C3378 1.379 . S
C3378 H3362 0.931 1_545 S
C3378 C3372 1.383 1_545 S
C3378 C3377 1.379 . S
H3379 C3373 0.959 . S
H3380 C3373 0.961 . S
H3381 C3373 0.960 . S
H3382 C3374 0.919 1_565 S
H3383 C3375 0.929 . S
H3384 C3392 0.929 . S
H3385 C3394 0.930 . S
H3386 C3396 0.930 . S
H3387 C3399 0.929 . S
H3388 C3402 0.930 . S
H3389 C3404 0.960 . S
H3390 C3404 0.960 . S
H3391 C3404 0.960 . S
C3392 H3384 0.929 . S
C3392 C3393 1.377 . S
C3392 C3394 1.384 . S
C3393 C3392 1.377 . S
C3393 C3399 1.390 . S
C3394 H3385 0.930 . S
C3394 C3392 1.384 . S
C3394 C3395 1.372 . S
C3395 C3394 1.372 . S
C3395 C3396 1.400 . S
C3395 C3400 1.490 . S
C3396 H3386 0.930 . S
C3396 C3395 1.400 . S
C3396 C3399 1.386 . S
H3397 C3413 0.930 . S
H3398 C3414 0.931 . S
C3399 H3387 0.929 . S
C3399 C3393 1.390 . S
C3399 C3396 1.386 . S
C3400 C3395 1.490 . S
C3400 C3402 1.395 . S
C3400 C3403 1.403 . S
H3401 C3407 0.930 . S
C3402 H3388 0.930 . S
C3402 C3400 1.395 . S
C3402 C3405 1.403 . S
C3403 C3400 1.403 . S
C3403 C3404 1.524 . S
C3403 C3407 1.400 . S
C3404 H3389 0.960 . S
C3404 H3390 0.960 . S
C3404 H3391 0.960 . S
C3404 C3403 1.524 . S
C3405 C3402 1.403 . S
C3405 C3406 1.392 . S
C3405 C3409 1.495 . S
C3406 C3405 1.392 . S
C3406 C3407 1.385 . S
C3406 C3408 1.478 . S
C3407 H3401 0.930 . S
C3407 C3403 1.400 . S
C3407 C3406 1.385 . S
C3408 C3406 1.478 . S
C3408 C3410 1.381 . S
C3408 C3414 1.383 1_565 S
C3409 C3405 1.495 . S
C3409 H3415 0.959 . S
C3409 H3416 0.961 . S
C3409 H3417 0.960 . S
C3410 C3408 1.381 . S
C3410 C3411 1.394 . S
C3410 H3418 0.930 . S
C3411 C3410 1.394 . S
C3411 C3412 1.383 1_565 S
C3411 H3419 0.929 . S
C3412 C3411 1.383 1_545 S
C3412 C3413 1.377 . S
C3413 H3397 0.930 . S
C3413 C3412 1.377 . S
C3413 C3414 1.379 . S
C3414 H3398 0.931 . S
C3414 C3408 1.383 1_545 S
C3414 C3413 1.379 . S
H3415 C3409 0.959 . S
H3416 C3409 0.961 . S
H3417 C3409 0.960 . S
H3418 C3410 0.930 . S
H3419 C3411 0.929 . S
H3420 C3428 0.929 . S
H3421 C3430 0.930 . S
H3422 C3432 0.930 . S
H3423 C3435 0.929 . S
H3424 C3438 0.930 . S
H3425 C3440 0.960 . S
H3426 C3440 0.960 1_655 S
H3427 C3440 0.960 . S
C3428 H3420 0.929 . S
C3428 C3429 1.377 . S
C3428 C3430 1.384 . S
C3429 C3428 1.377 . S
C3429 C3435 1.390 . S
C3430 H3421 0.930 . S
C3430 C3428 1.384 . S
C3430 C3431 1.372 1_655 S
C3431 C3430 1.372 1_455 S
C3431 C3432 1.400 . S
C3431 C3436 1.490 . S
C3432 H3422 0.930 . S
C3432 C3431 1.400 . S
C3432 C3435 1.386 1_455 S
H3433 C3449 0.930 . S
H3434 C3450 0.931 . S
C3435 H3423 0.929 . S
C3435 C3429 1.390 . S
C3435 C3432 1.386 1_655 S
C3436 C3431 1.490 . S
C3436 C3438 1.395 . S
C3436 C3439 1.403 . S
H3437 C3443 0.930 . S
C3438 H3424 0.930 . S
C3438 C3436 1.395 . S
C3438 C3441 1.403 . S
C3439 C3436 1.403 . S
C3439 C3440 1.524 . S
C3439 C3443 1.400 . S
C3440 H3425 0.960 . S
C3440 H3426 0.960 1_455 S
C3440 H3427 0.960 . S
C3440 C3439 1.524 . S
C3441 C3438 1.403 . S
C3441 C3442 1.392 . S
C3441 C3445 1.495 . S
C3442 C3441 1.392 . S
C3442 C3443 1.385 . S
C3442 C3444 1.478 . S
C3443 H3437 0.930 . S
C3443 C3439 1.400 . S
C3443 C3442 1.385 . S
C3444 C3442 1.478 . S
C3444 C3446 1.381 . S
C3444 C3450 1.383 . S
C3445 C3441 1.495 . S
C3445 H3451 0.959 . S
C3445 H3452 0.961 . S
C3445 H3453 0.960 . S
C3446 C3444 1.381 . S
C3446 C3447 1.394 . S
C3446 H3454 0.930 . S
C3447 C3446 1.394 . S
C3447 C3448 1.383 . S
C3447 H3455 0.929 . S
C3448 C3447 1.383 . S
C3448 C3449 1.377 . S
C3449 H3433 0.930 . S
C3449 C3448 1.377 . S
C3449 C3450 1.379 . S
C3450 H3434 0.931 . S
C3450 C3444 1.383 . S
C3450 C3449 1.379 . S
H3451 C3445 0.959 . S
H3452 C3445 0.961 . S
H3453 C3445 0.960 . S
H3454 C3446 0.930 . S
H3455 C3447 0.929 . S
H3456 C3464 0.929 . S
H3457 C3466 0.930 . S
H3458 C3468 0.930 . S
H3459 C3471 0.929 . S
H3460 C3474 0.930 . S
H3461 C3476 0.960 . S
H3462 C3476 0.960 . S
H3463 C3476 0.960 . S
C3464 H3456 0.929 . S
C3464 C3465 1.377 . S
C3464 C3466 1.384 . S
C3465 C3464 1.377 . S
C3465 C3471 1.390 . S
C3466 H3457 0.930 . S
C3466 C3464 1.384 . S
C3466 C3467 1.372 . S
C3467 C3466 1.372 . S
C3467 C3468 1.400 . S
C3467 C3472 1.490 . S
C3468 H3458 0.930 . S
C3468 C3467 1.400 . S
C3468 C3471 1.386 . S
H3469 C3485 0.930 . S
H3470 C3486 0.931 . S
C3471 H3459 0.929 . S
C3471 C3465 1.390 . S
C3471 C3468 1.386 . S
C3472 C3467 1.490 . S
C3472 C3474 1.395 . S
C3472 C3475 1.403 . S
H3473 C3479 0.930 . S
C3474 H3460 0.930 . S
C3474 C3472 1.395 . S
C3474 C3477 1.403 . S
C3475 C3472 1.403 . S
C3475 C3476 1.524 . S
C3475 C3479 1.400 . S
C3476 H3461 0.960 . S
C3476 H3462 0.960 . S
C3476 H3463 0.960 . S
C3476 C3475 1.524 . S
C3477 C3474 1.403 . S
C3477 C3478 1.392 . S
C3477 C3481 1.495 . S
C3478 C3477 1.392 . S
C3478 C3479 1.385 . S
C3478 C3480 1.478 . S
C3479 H3473 0.930 . S
C3479 C3475 1.400 . S
C3479 C3478 1.385 . S
C3480 C3478 1.478 . S
C3480 C3482 1.381 . S
C3480 C3486 1.383 . S
C3481 C3477 1.495 . S
C3481 H3487 0.959 . S
C3481 H3488 0.961 . S
C3481 H3489 0.960 . S
C3482 C3480 1.381 . S
C3482 C3483 1.394 . S
C3482 H3490 0.930 . S
C3483 C3482 1.394 . S
C3483 C3484 1.383 . S
C3483 H3491 0.929 . S
C3484 C3483 1.383 . S
C3484 C3485 1.377 . S
C3485 H3469 0.930 . S
C3485 C3484 1.377 . S
C3485 C3486 1.379 . S
C3486 H3470 0.931 . S
C3486 C3480 1.383 . S
C3486 C3485 1.379 . S
H3487 C3481 0.959 . S
H3488 C3481 0.961 . S
H3489 C3481 0.960 . S
H3490 C3482 0.930 . S
H3491 C3483 0.929 . S
H3492 C3500 0.929 . S
H3493 C3502 0.930 . S
H3494 C3504 0.930 . S
H3495 C3507 0.929 . S
H3496 C3510 0.930 . S
H3497 C3512 0.960 . S
H3498 C3512 0.960 . S
H3499 C3512 0.960 . S
C3500 H3492 0.929 . S
C3500 C3501 1.396 . S
C3500 C3502 1.384 . S
C3501 C3500 1.396 . S
C3501 C3507 1.370 1_554 S
C3502 H3493 0.930 . S
C3502 C3500 1.384 . S
C3502 C3503 1.360 1_554 S
C3503 C3502 1.360 1_556 S
C3503 C3504 1.411 . S
C3503 C3508 1.486 . S
C3504 H3494 0.930 . S
C3504 C3503 1.411 . S
C3504 C3507 1.386 . S
H3505 C3521 0.930 . S
H3506 C3522 0.931 . S
C3507 H3495 0.929 . S
C3507 C3501 1.370 1_556 S
C3507 C3504 1.386 . S
C3508 C3503 1.486 . S
C3508 C3510 1.467 . S
C3508 C3511 1.350 1_556 S
H3509 C3515 0.930 . S
C3510 H3496 0.930 . S
C3510 C3508 1.467 . S
C3510 C3513 1.403 . S
C3511 C3508 1.350 1_554 S
C3511 C3512 1.524 . S
C3511 C3515 1.400 1_565 S
C3512 H3497 0.960 . S
C3512 H3498 0.960 . S
C3512 H3499 0.960 . S
C3512 C3511 1.524 . S
C3513 C3510 1.403 . S
C3513 C3514 1.392 1_565 S
C3513 C3517 1.495 1_565 S
C3514 C3513 1.392 1_545 S
C3514 C3515 1.385 1_556 S
C3514 C3516 1.478 . S
C3515 H3509 0.930 . S
C3515 C3511 1.400 1_545 S
C3515 C3514 1.385 1_554 S
C3516 C3514 1.478 . S
C3516 C3518 1.345 1_556 S
C3516 C3522 1.383 . S
C3517 C3513 1.495 1_545 S
C3517 H3523 0.959 1_545 S
C3517 H3524 0.961 . S
C3517 H3525 0.960 . S
C3518 C3516 1.345 1_554 S
C3518 C3519 1.394 . S
C3518 H3526 0.972 . S
C3519 C3518 1.394 . S
C3519 C3520 1.351 1_554 S
C3519 H3527 0.964 . S
C3520 C3519 1.351 1_556 S
C3520 C3521 1.377 . S
C3521 H3505 0.930 . S
C3521 C3520 1.377 . S
C3521 C3522 1.379 . S
C3522 H3506 0.931 . S
C3522 C3516 1.383 . S
C3522 C3521 1.379 . S
H3523 C3517 0.959 1_565 S
H3524 C3517 0.961 . S
H3525 C3517 0.960 . S
H3526 C3518 0.972 . S
H3527 C3519 0.964 . S
H3528 C3536 0.928 . S
H3529 C3538 0.930 . S
H3530 C3540 0.941 . S
H3531 C3543 0.958 . S
H3532 C3546 0.930 . S
H3533 C3548 0.960 . S
H3534 C3548 0.960 . S
H3535 C3548 0.960 . S
C3536 H3528 0.928 . S
C3536 C3537 1.368 1_556 S
C3536 C3538 1.391 . S
C3537 C3536 1.368 1_554 S
C3537 C3543 1.386 . S
C3538 H3529 0.930 . S
C3538 C3536 1.391 . S
C3538 C3539 1.379 . S
C3539 C3538 1.379 . S
C3539 C3540 1.387 1_556 S
C3539 C3544 1.497 . S
C3540 H3530 0.941 . S
C3540 C3539 1.387 1_554 S
C3540 C3543 1.384 . S
H3541 C3557 0.930 . S
H3542 C3558 0.931 . S
C3543 H3531 0.958 . S
C3543 C3537 1.386 . S
C3543 C3540 1.384 . S
C3544 C3539 1.497 . S
C3544 C3546 1.395 . S
C3544 C3547 1.403 1_556 S
H3545 C3551 0.930 . S
C3546 H3532 0.930 . S
C3546 C3544 1.395 . S
C3546 C3549 1.403 . S
C3547 C3544 1.403 1_554 S
C3547 C3548 1.524 . S
C3547 C3551 1.400 1_455 S
C3548 H3533 0.960 . S
C3548 H3534 0.960 . S
C3548 H3535 0.960 . S
C3548 C3547 1.524 . S
C3549 C3546 1.403 . S
C3549 C3550 1.392 1_455 S
C3549 C3553 1.495 1_455 S
C3550 C3549 1.392 1_655 S
C3550 C3551 1.385 1_556 S
C3550 C3552 1.478 . S
C3551 H3545 0.930 . S
C3551 C3547 1.400 1_655 S
C3551 C3550 1.385 1_554 S
C3552 C3550 1.478 . S
C3552 C3554 1.381 . S
C3552 C3558 1.383 . S
C3553 C3549 1.495 1_655 S
C3553 H3559 0.959 1_655 S
C3553 H3560 0.961 . S
C3553 H3561 0.960 . S
C3554 C3552 1.381 . S
C3554 C3555 1.394 . S
C3554 H3562 0.930 . S
C3555 C3554 1.394 . S
C3555 C3556 1.383 . S
C3555 H3563 0.929 . S
C3556 C3555 1.383 . S
C3556 C3557 1.377 . S
C3557 H3541 0.930 . S
C3557 C3556 1.377 . S
C3557 C3558 1.379 . S
C3558 H3542 0.931 . S
C3558 C3552 1.383 . S
C3558 C3557 1.379 . S
H3559 C3553 0.959 1_455 S
H3560 C3553 0.961 . S
H3561 C3553 0.960 . S
H3562 C3554 0.930 . S
H3563 C3555 0.929 . S
H3564 C3572 0.929 . S
H3565 C3574 0.930 . S
H3566 C3576 0.930 . S
H3567 C3579 0.929 . S
H3568 C3582 0.930 . S
H3569 C3584 0.960 . S
H3570 C3584 0.960 . S
H3571 C3584 0.960 . S
C3572 H3564 0.929 . S
C3572 C3573 1.377 1_554 S
C3572 C3574 1.384 . S
C3573 C3572 1.377 1_556 S
C3573 C3579 1.390 . S
C3574 H3565 0.930 . S
C3574 C3572 1.384 . S
C3574 C3575 1.372 1_554 S
C3575 C3574 1.372 1_556 S
C3575 C3576 1.400 . S
C3575 C3580 1.490 . S
C3576 H3566 0.930 . S
C3576 C3575 1.400 . S
C3576 C3579 1.386 . S
H3577 C3593 0.930 . S
H3578 C3594 0.931 . S
C3579 H3567 0.929 . S
C3579 C3573 1.390 . S
C3579 C3576 1.386 . S
C3580 C3575 1.490 . S
C3580 C3582 1.395 1_556 S
C3580 C3583 1.403 . S
H3581 C3587 0.930 . S
C3582 H3568 0.930 . S
C3582 C3580 1.395 1_554 S
C3582 C3585 1.403 . S
C3583 C3580 1.403 . S
C3583 C3584 1.524 . S
C3583 C3587 1.400 . S
C3584 H3569 0.960 . S
C3584 H3570 0.960 . S
C3584 H3571 0.960 . S
C3584 C3583 1.524 . S
C3585 C3582 1.403 . S
C3585 C3586 1.384 1_554 S
C3585 C3589 1.495 . S
C3586 C3585 1.384 1_556 S
C3586 C3587 1.395 . S
C3586 C3588 1.477 1_556 S
C3587 H3581 0.930 . S
C3587 C3583 1.400 . S
C3587 C3586 1.395 . S
C3588 C3586 1.477 1_554 S
C3588 C3590 1.371 . S
C3588 C3594 1.392 1_554 S
C3589 C3585 1.495 . S
C3589 H3595 0.959 . S
C3589 H3596 0.961 . S
C3589 H3597 0.960 . S
C3590 C3588 1.371 . S
C3590 C3591 1.394 . S
C3590 H3598 0.930 . S
C3591 C3590 1.394 . S
C3591 C3592 1.411 . S
C3591 H3599 0.929 . S
C3592 C3591 1.411 . S
C3592 C3593 1.349 1_554 S
C3593 H3577 0.930 . S
C3593 C3592 1.349 1_556 S
C3593 C3594 1.379 . S
C3594 H3578 0.931 . S
C3594 C3588 1.392 1_556 S
C3594 C3593 1.379 . S
H3595 C3589 0.959 . S
H3596 C3589 0.961 . S
H3597 C3589 0.960 . S
H3598 C3590 0.930 . S
H3599 C3591 0.929 . S
H3600 C3608 0.929 . S
H3601 C3610 0.930 . S
H3602 C3612 0.930 . S
H3603 C3615 0.929 . S
H3604 C3618 0.930 . S
H3605 C3620 0.960 . S
H3606 C3620 0.960 . S
H3607 C3620 0.960 . S
C3608 H3600 0.929 . S
C3608 C3609 1.377 . S
C3608 C3610 1.384 . S
C3609 C3608 1.377 . S
C3609 C3615 1.390 . S
C3610 H3601 0.930 . S
C3610 C3608 1.384 . S
C3610 C3611 1.372 . S
C3611 C3610 1.372 . S
C3611 C3612 1.400 . S
C3611 C3616 1.490 . S
C3612 H3602 0.930 . S
C3612 C3611 1.400 . S
C3612 C3615 1.386 . S
H3613 C3629 0.930 . S
H3614 C3630 0.931 . S
C3615 H3603 0.929 . S
C3615 C3609 1.390 . S
C3615 C3612 1.386 . S
C3616 C3611 1.490 . S
C3616 C3618 1.395 . S
C3616 C3619 1.403 . S
H3617 C3623 0.930 . S
C3618 H3604 0.930 . S
C3618 C3616 1.395 . S
C3618 C3621 1.403 . S
C3619 C3616 1.403 . S
C3619 C3620 1.524 . S
C3619 C3623 1.400 . S
C3620 H3605 0.960 . S
C3620 H3606 0.960 . S
C3620 H3607 0.960 . S
C3620 C3619 1.524 . S
C3621 C3618 1.403 . S
C3621 C3622 1.392 . S
C3621 C3625 1.495 1_545 S
C3622 C3621 1.392 . S
C3622 C3623 1.385 . S
C3622 C3624 1.478 . S
C3623 H3617 0.930 . S
C3623 C3619 1.400 . S
C3623 C3622 1.385 . S
C3624 C3622 1.478 . S
C3624 C3626 1.381 . S
C3624 C3630 1.383 1_545 S
C3625 C3621 1.495 1_565 S
C3625 H3631 0.959 . S
C3625 H3632 0.961 . S
C3625 H3633 0.960 . S
C3626 C3624 1.381 . S
C3626 C3627 1.394 1_545 S
C3626 H3634 0.930 . S
C3627 C3626 1.394 1_565 S
C3627 C3628 1.383 . S
C3627 H3635 0.929 . S
C3628 C3627 1.383 . S
C3628 C3629 1.377 . S
C3629 H3613 0.930 . S
C3629 C3628 1.377 . S
C3629 C3630 1.379 . S
C3630 H3614 0.931 . S
C3630 C3624 1.383 1_565 S
C3630 C3629 1.379 . S
H3631 C3625 0.959 . S
H3632 C3625 0.961 . S
H3633 C3625 0.960 . S
H3634 C3626 0.930 . S
H3635 C3627 0.929 . S
H3636 C3644 0.929 . S
H3637 C3646 0.930 . S
H3638 C3648 0.930 . S
H3639 C3651 0.929 . S
H3640 C3654 0.930 . S
H3641 C3656 0.960 . S
H3642 C3656 0.960 . S
H3643 C3656 0.960 . S
C3644 H3636 0.929 . S
C3644 C3645 1.377 . S
C3644 C3646 1.384 . S
C3645 C3644 1.377 . S
C3645 C3651 1.390 . S
C3646 H3637 0.930 . S
C3646 C3644 1.384 . S
C3646 C3647 1.372 . S
C3647 C3646 1.372 . S
C3647 C3648 1.400 . S
C3647 C3652 1.490 . S
C3648 H3638 0.930 . S
C3648 C3647 1.400 . S
C3648 C3651 1.386 . S
H3649 C3665 0.930 . S
H3650 C3666 0.931 . S
C3651 H3639 0.929 . S
C3651 C3645 1.390 . S
C3651 C3648 1.386 . S
C3652 C3647 1.490 . S
C3652 C3654 1.395 . S
C3652 C3655 1.403 . S
H3653 C3659 0.930 . S
C3654 H3640 0.930 . S
C3654 C3652 1.395 . S
C3654 C3657 1.403 . S
C3655 C3652 1.403 . S
C3655 C3656 1.524 . S
C3655 C3659 1.400 . S
C3656 H3641 0.960 . S
C3656 H3642 0.960 . S
C3656 H3643 0.960 . S
C3656 C3655 1.524 . S
C3657 C3654 1.403 . S
C3657 C3658 1.392 . S
C3657 C3661 1.495 1_655 S
C3658 C3657 1.392 . S
C3658 C3659 1.385 . S
C3658 C3660 1.478 . S
C3659 H3653 0.930 . S
C3659 C3655 1.400 . S
C3659 C3658 1.385 . S
C3660 C3658 1.478 . S
C3660 C3662 1.381 . S
C3660 C3666 1.383 1_655 S
C3661 C3657 1.495 1_455 S
C3661 H3667 0.959 . S
C3661 H3668 0.961 . S
C3661 H3669 0.960 . S
C3662 C3660 1.381 . S
C3662 C3663 1.394 1_655 S
C3662 H3670 0.930 . S
C3663 C3662 1.394 1_455 S
C3663 C3664 1.383 . S
C3663 H3671 0.929 . S
C3664 C3663 1.383 . S
C3664 C3665 1.377 . S
C3665 H3649 0.930 . S
C3665 C3664 1.377 . S
C3665 C3666 1.379 . S
C3666 H3650 0.931 . S
C3666 C3660 1.383 1_455 S
C3666 C3665 1.379 . S
H3667 C3661 0.959 . S
H3668 C3661 0.961 . S
H3669 C3661 0.960 . S
H3670 C3662 0.930 . S
H3671 C3663 0.929 . S
H3672 C3680 0.929 . S
H3673 C3682 0.930 . S
H3674 C3684 0.930 . S
H3675 C3687 0.929 . S
H3676 C3690 0.930 . S
H3677 C3692 0.960 . S
H3678 C3692 0.960 . S
H3679 C3692 0.960 . S
C3680 H3672 0.929 . S
C3680 C3681 1.377 . S
C3680 C3682 1.384 . S
C3681 C3680 1.377 . S
C3681 C3687 1.390 . S
C3682 H3673 0.930 . S
C3682 C3680 1.384 . S
C3682 C3683 1.372 . S
C3683 C3682 1.372 . S
C3683 C3684 1.400 . S
C3683 C3688 1.490 . S
C3684 H3674 0.930 . S
C3684 C3683 1.400 . S
C3684 C3687 1.386 . S
H3685 C3701 0.930 . S
H3686 C3702 0.931 . S
C3687 H3675 0.929 . S
C3687 C3681 1.390 . S
C3687 C3684 1.386 . S
C3688 C3683 1.490 . S
C3688 C3690 1.395 . S
C3688 C3691 1.403 . S
H3689 C3695 0.930 . S
C3690 H3676 0.930 . S
C3690 C3688 1.395 . S
C3690 C3693 1.403 . S
C3691 C3688 1.403 . S
C3691 C3692 1.524 . S
C3691 C3695 1.400 . S
C3692 H3677 0.960 . S
C3692 H3678 0.960 . S
C3692 H3679 0.960 . S
C3692 C3691 1.524 . S
C3693 C3690 1.403 . S
C3693 C3694 1.392 . S
C3693 C3697 1.495 . S
C3694 C3693 1.392 . S
C3694 C3695 1.385 . S
C3694 C3696 1.478 . S
C3695 H3689 0.930 . S
C3695 C3691 1.400 . S
C3695 C3694 1.385 . S
C3696 C3694 1.478 . S
C3696 C3698 1.381 . S
C3696 C3702 1.383 . S
C3697 C3693 1.495 . S
C3697 H3703 0.959 . S
C3697 H3704 0.961 . S
C3697 H3705 0.960 . S
C3698 C3696 1.381 . S
C3698 C3699 1.394 . S
C3698 H3706 0.930 . S
C3699 C3698 1.394 . S
C3699 C3700 1.383 . S
C3699 H3707 0.929 . S
C3700 C3699 1.383 . S
C3700 C3701 1.377 . S
C3701 H3685 0.930 . S
C3701 C3700 1.377 . S
C3701 C3702 1.379 . S
C3702 H3686 0.931 . S
C3702 C3696 1.383 . S
C3702 C3701 1.379 . S
H3703 C3697 0.959 . S
H3704 C3697 0.961 . S
H3705 C3697 0.960 . S
H3706 C3698 0.930 . S
H3707 C3699 0.929 . S
H3708 C3716 0.942 . S
H3709 C3718 0.995 . S
H3710 C3720 0.930 . S
H3711 C3723 0.929 . S
H3712 C3726 0.930 . S
H3713 C3728 0.960 1_545 S
H3714 C3728 0.960 . S
H3715 C3728 0.960 . S
C3716 H3708 0.942 . S
C3716 C3717 1.363 1_556 S
C3716 C3718 1.381 . S
C3717 C3716 1.363 1_554 S
C3717 C3723 1.390 . S
C3718 H3709 0.995 . S
C3718 C3716 1.381 . S
C3718 C3719 1.327 1_556 S
C3719 C3718 1.327 1_554 S
C3719 C3720 1.400 . S
C3719 C3724 1.490 . S
C3720 H3710 0.930 . S
C3720 C3719 1.400 . S
C3720 C3723 1.386 . S
H3721 C3737 0.930 . S
H3722 C3738 0.931 . S
C3723 H3711 0.929 . S
C3723 C3717 1.390 . S
C3723 C3720 1.386 . S
C3724 C3719 1.490 . S
C3724 C3726 1.395 1_554 S
C3724 C3727 1.403 1_565 S
H3725 C3731 0.930 . S
C3726 H3712 0.930 . S
C3726 C3724 1.395 1_556 S
C3726 C3729 1.403 1_565 S
C3727 C3724 1.403 1_545 S
C3727 C3728 1.524 1_545 S
C3727 C3731 1.400 . S
C3728 H3713 0.960 1_565 S
C3728 H3714 0.960 . S
C3728 H3715 0.960 . S
C3728 C3727 1.524 1_565 S
C3729 C3726 1.403 1_545 S
C3729 C3730 1.431 . S
C3729 C3733 1.495 . S
C3730 C3729 1.431 . S
C3730 C3731 1.342 1_556 S
C3730 C3732 1.475 . S
C3731 H3725 0.930 . S
C3731 C3727 1.400 . S
C3731 C3730 1.342 1_554 S
C3732 C3730 1.475 . S
C3732 C3734 1.430 . S
C3732 C3738 1.344 1_556 S
C3733 C3729 1.495 . S
C3733 H3739 0.959 . S
C3733 H3740 0.961 . S
C3733 H3741 0.960 . S
C3734 C3732 1.430 . S
C3734 C3735 1.394 . S
C3734 H3742 0.930 . S
C3735 C3734 1.394 . S
C3735 C3736 1.418 . S
C3735 H3743 0.929 . S
C3736 C3735 1.418 . S
C3736 C3737 1.348 1_556 S
C3737 H3721 0.930 . S
C3737 C3736 1.348 1_554 S
C3737 C3738 1.379 . S
C3738 H3722 0.931 . S
C3738 C3732 1.344 1_554 S
C3738 C3737 1.379 . S
H3739 C3733 0.959 . S
H3740 C3733 0.961 . S
H3741 C3733 0.960 . S
H3742 C3734 0.930 . S
H3743 C3735 0.929 . S
H3744 C3752 0.929 . S
H3745 C3754 0.930 . S
H3746 C3756 0.930 . S
H3747 C3759 0.929 . S
H3748 C3762 0.930 . S
H3749 C3764 0.960 . S
H3750 C3764 0.960 . S
H3751 C3764 0.960 . S
C3752 H3744 0.929 . S
C3752 C3753 1.412 . S
C3752 C3754 1.384 . S
C3753 C3752 1.412 . S
C3753 C3759 1.354 1_556 S
C3754 H3745 0.930 . S
C3754 C3752 1.384 . S
C3754 C3755 1.369 1_556 S
C3755 C3754 1.369 1_554 S
C3755 C3756 1.402 . S
C3755 C3760 1.489 . S
C3756 H3746 0.930 . S
C3756 C3755 1.402 . S
C3756 C3759 1.386 . S
H3757 C3773 0.930 . S
H3758 C3774 0.931 . S
C3759 H3747 0.929 . S
C3759 C3753 1.354 1_554 S
C3759 C3756 1.386 . S
C3760 C3755 1.489 . S
C3760 C3762 1.373 1_554 S
C3760 C3763 1.427 . S
H3761 C3767 0.930 . S
C3762 H3748 0.930 . S
C3762 C3760 1.373 1_556 S
C3762 C3765 1.403 1_655 S
C3763 C3760 1.427 . S
C3763 C3764 1.524 . S
C3763 C3767 1.400 1_655 S
C3764 H3749 0.960 . S
C3764 H3750 0.960 . S
C3764 H3751 0.960 . S
C3764 C3763 1.524 . S
C3765 C3762 1.403 1_455 S
C3765 C3766 1.341 1_556 S
C3765 C3769 1.495 . S
C3766 C3765 1.341 1_554 S
C3766 C3767 1.441 . S
C3766 C3768 1.492 . S
C3767 H3761 0.930 . S
C3767 C3763 1.400 1_455 S
C3767 C3766 1.441 . S
C3768 C3766 1.492 . S
C3768 C3770 1.381 1_554 S
C3768 C3774 1.383 . S
C3769 C3765 1.495 . S
C3769 H3775 0.959 . S
C3769 H3776 0.961 . S
C3769 H3777 0.960 . S
C3770 C3768 1.381 1_556 S
C3770 C3771 1.394 . S
C3770 H3778 0.930 . S
C3771 C3770 1.394 . S
C3771 C3772 1.383 1_556 S
C3771 H3779 0.929 . S
C3772 C3771 1.383 1_554 S
C3772 C3773 1.377 . S
C3773 H3757 0.930 . S
C3773 C3772 1.377 . S
C3773 C3774 1.379 . S
C3774 H3758 0.931 . S
C3774 C3768 1.383 . S
C3774 C3773 1.379 . S
H3775 C3769 0.959 . S
H3776 C3769 0.961 . S
H3777 C3769 0.960 . S
H3778 C3770 0.930 . S
H3779 C3771 0.929 . S
H3780 C3788 0.929 . S
H3781 C3790 0.930 . S
H3782 C3792 0.930 . S
H3783 C3795 0.929 . S
H3784 C3798 0.930 . S
H3785 C3800 0.960 . S
H3786 C3800 0.960 . S
H3787 C3800 0.960 1_554 S
C3788 H3780 0.929 . S
C3788 C3789 1.377 1_556 S
C3788 C3790 1.384 . S
C3789 C3788 1.377 1_554 S
C3789 C3795 1.390 . S
C3790 H3781 0.930 . S
C3790 C3788 1.384 . S
C3790 C3791 1.372 1_556 S
C3791 C3790 1.372 1_554 S
C3791 C3792 1.400 . S
C3791 C3796 1.490 . S
C3792 H3782 0.930 . S
C3792 C3791 1.400 . S
C3792 C3795 1.386 . S
H3793 C3809 0.930 . S
H3794 C3810 0.931 . S
C3795 H3783 0.929 . S
C3795 C3789 1.390 . S
C3795 C3792 1.386 . S
C3796 C3791 1.490 . S
C3796 C3798 1.395 . S
C3796 C3799 1.396 1_554 S
H3797 C3803 0.938 . S
C3798 H3784 0.930 . S
C3798 C3796 1.395 . S
C3798 C3801 1.403 . S
C3799 C3796 1.396 1_556 S
C3799 C3800 1.532 . S
C3799 C3803 1.400 . S
C3800 H3785 0.960 . S
C3800 H3786 0.960 . S
C3800 H3787 0.960 1_556 S
C3800 C3799 1.532 . S
C3801 C3798 1.403 . S
C3801 C3802 1.392 . S
C3801 C3805 1.495 . S
C3802 C3801 1.392 . S
C3802 C3803 1.378 1_554 S
C3802 C3804 1.478 . S
C3803 H3797 0.938 . S
C3803 C3799 1.400 . S
C3803 C3802 1.378 1_556 S
C3804 C3802 1.478 . S
C3804 C3806 1.381 1_554 S
C3804 C3810 1.383 . S
C3805 C3801 1.495 . S
C3805 H3811 0.959 . S
C3805 H3812 0.961 . S
C3805 H3813 1.057 . S
C3806 C3804 1.381 1_556 S
C3806 C3807 1.394 . S
C3806 H3814 0.930 . S
C3807 C3806 1.394 . S
C3807 C3808 1.379 1_556 S
C3807 H3815 0.929 . S
C3808 C3807 1.379 1_554 S
C3808 C3809 1.381 . S
C3809 H3793 0.930 . S
C3809 C3808 1.381 . S
C3809 C3810 1.379 . S
C3810 H3794 0.931 . S
C3810 C3804 1.383 . S
C3810 C3809 1.379 . S
H3811 C3805 0.959 . S
H3812 C3805 0.961 . S
H3813 C3805 1.057 . S
H3814 C3806 0.930 . S
H3815 C3807 0.929 . S
H3816 C3824 0.929 . S
H3817 C3826 0.930 . S
H3818 C3828 0.930 . S
H3819 C3831 0.929 . S
H3820 C3834 0.968 . S
H3821 C3836 0.960 1_655 S
H3822 C3836 0.960 . S
H3823 C3836 0.960 . S
C3824 H3816 0.929 . S
C3824 C3825 1.377 . S
C3824 C3826 1.384 . S
C3825 C3824 1.377 . S
C3825 C3831 1.390 . S
C3826 H3817 0.930 . S
C3826 C3824 1.384 . S
C3826 C3827 1.372 . S
C3827 C3826 1.372 . S
C3827 C3828 1.400 . S
C3827 C3832 1.490 . S
C3828 H3818 0.930 . S
C3828 C3827 1.400 . S
C3828 C3831 1.386 . S
H3829 C3845 0.930 . S
H3830 C3846 0.931 . S
C3831 H3819 0.929 . S
C3831 C3825 1.390 . S
C3831 C3828 1.386 . S
C3832 C3827 1.490 . S
C3832 C3834 1.390 . S
C3832 C3835 1.403 1_455 S
H3833 C3839 0.930 . S
C3834 H3820 0.968 . S
C3834 C3832 1.390 . S
C3834 C3837 1.371 1_455 S
C3835 C3832 1.403 1_655 S
C3835 C3836 1.524 1_655 S
C3835 C3839 1.400 . S
C3836 H3821 0.960 1_455 S
C3836 H3822 0.960 . S
C3836 H3823 0.960 . S
C3836 C3835 1.524 1_455 S
C3837 C3834 1.371 1_655 S
C3837 C3838 1.392 . S
C3837 C3841 1.495 . S
C3838 C3837 1.392 . S
C3838 C3839 1.385 . S
C3838 C3840 1.478 . S
C3839 H3833 0.930 . S
C3839 C3835 1.400 . S
C3839 C3838 1.385 . S
C3840 C3838 1.478 . S
C3840 C3842 1.381 . S
C3840 C3846 1.383 . S
C3841 C3837 1.495 . S
C3841 H3847 0.959 . S
C3841 H3848 0.961 . S
C3841 H3849 0.960 . S
C3842 C3840 1.381 . S
C3842 C3843 1.394 . S
C3842 H3850 0.930 . S
C3843 C3842 1.394 . S
C3843 C3844 1.383 . S
C3843 H3851 0.929 . S
C3844 C3843 1.383 . S
C3844 C3845 1.377 . S
C3845 H3829 0.930 . S
C3845 C3844 1.377 . S
C3845 C3846 1.379 . S
C3846 H3830 0.931 . S
C3846 C3840 1.383 . S
C3846 C3845 1.379 . S
H3847 C3841 0.959 . S
H3848 C3841 0.961 . S
H3849 C3841 0.960 . S
H3850 C3842 0.930 . S
H3851 C3843 0.929 . S
H3852 C3860 0.929 . S
H3853 C3862 0.930 . S
H3854 C3864 0.930 . S
H3855 C3867 0.929 . S
H3856 C3870 0.930 . S
H3857 C3872 0.960 . S
H3858 C3872 0.960 . S
H3859 C3872 0.960 . S
C3860 H3852 0.929 . S
C3860 C3861 1.377 . S
C3860 C3862 1.384 . S
C3861 C3860 1.377 . S
C3861 C3867 1.390 . S
C3862 H3853 0.930 . S
C3862 C3860 1.384 . S
C3862 C3863 1.372 . S
C3863 C3862 1.372 . S
C3863 C3864 1.400 . S
C3863 C3868 1.490 . S
C3864 H3854 0.930 . S
C3864 C3863 1.400 . S
C3864 C3867 1.386 . S
H3865 C3881 0.930 . S
H3866 C3882 0.931 . S
C3867 H3855 0.929 . S
C3867 C3861 1.390 . S
C3867 C3864 1.386 . S
C3868 C3863 1.490 . S
C3868 C3870 1.395 . S
C3868 C3871 1.403 . S
H3869 C3875 0.930 . S
C3870 H3856 0.930 . S
C3870 C3868 1.395 . S
C3870 C3873 1.403 . S
C3871 C3868 1.403 . S
C3871 C3872 1.524 . S
C3871 C3875 1.400 . S
C3872 H3857 0.960 . S
C3872 H3858 0.960 . S
C3872 H3859 0.960 . S
C3872 C3871 1.524 . S
C3873 C3870 1.403 . S
C3873 C3874 1.392 . S
C3873 C3877 1.495 . S
C3874 C3873 1.392 . S
C3874 C3875 1.385 . S
C3874 C3876 1.478 . S
C3875 H3869 0.930 . S
C3875 C3871 1.400 . S
C3875 C3874 1.385 . S
C3876 C3874 1.478 . S
C3876 C3878 1.381 . S
C3876 C3882 1.383 . S
C3877 C3873 1.495 . S
C3877 H3883 0.959 . S
C3877 H3884 0.961 . S
C3877 H3885 0.960 . S
C3878 C3876 1.381 . S
C3878 C3879 1.394 . S
C3878 H3886 0.930 . S
C3879 C3878 1.394 . S
C3879 C3880 1.383 . S
C3879 H3887 0.929 . S
C3880 C3879 1.383 . S
C3880 C3881 1.377 . S
C3881 H3865 0.930 . S
C3881 C3880 1.377 . S
C3881 C3882 1.379 . S
C3882 H3866 0.931 . S
C3882 C3876 1.383 . S
C3882 C3881 1.379 . S
H3883 C3877 0.959 . S
H3884 C3877 0.961 . S
H3885 C3877 0.960 . S
H3886 C3878 0.930 . S
H3887 C3879 0.929 . S
H3888 C3896 0.929 . S
H3889 C3898 0.930 . S
H3890 C3900 0.930 . S
H3891 C3903 0.929 . S
H3892 C3906 0.930 1_565 S
H3893 C3908 0.960 . S
H3894 C3908 0.960 . S
H3895 C3908 0.960 . S
C3896 H3888 0.929 . S
C3896 C3897 1.377 . S
C3896 C3898 1.384 . S
C3897 C3896 1.377 . S
C3897 C3903 1.390 . S
C3898 H3889 0.930 . S
C3898 C3896 1.384 . S
C3898 C3899 1.372 . S
C3899 C3898 1.372 . S
C3899 C3900 1.400 . S
C3899 C3904 1.490 . S
C3900 H3890 0.930 . S
C3900 C3899 1.400 . S
C3900 C3903 1.386 . S
H3901 C3917 0.930 . S
H3902 C3918 0.931 . S
C3903 H3891 0.929 . S
C3903 C3897 1.390 . S
C3903 C3900 1.386 . S
C3904 C3899 1.490 . S
C3904 C3906 1.395 1_565 S
C3904 C3907 1.403 1_565 S
H3905 C3911 0.930 . S
C3906 H3892 0.930 1_545 S
C3906 C3904 1.395 1_545 S
C3906 C3909 1.403 . S
C3907 C3904 1.403 1_545 S
C3907 C3908 1.524 1_545 S
C3907 C3911 1.400 . S
C3908 H3893 0.960 . S
C3908 H3894 0.960 . S
C3908 H3895 0.960 . S
C3908 C3907 1.524 1_565 S
C3909 C3906 1.403 . S
C3909 C3910 1.392 . S
C3909 C3913 1.495 . S
C3910 C3909 1.392 . S
C3910 C3911 1.385 . S
C3910 C3912 1.478 . S
C3911 H3905 0.930 . S
C3911 C3907 1.400 . S
C3911 C3910 1.385 . S
C3912 C3910 1.478 . S
C3912 C3914 1.381 . S
C3912 C3918 1.383 . S
C3913 C3909 1.495 . S
C3913 H3919 0.959 . S
C3913 H3920 0.961 . S
C3913 H3921 0.960 . S
C3914 C3912 1.381 . S
C3914 C3915 1.394 . S
C3914 H3922 0.930 . S
C3915 C3914 1.394 . S
C3915 C3916 1.383 . S
C3915 H3923 0.929 . S
C3916 C3915 1.383 . S
C3916 C3917 1.377 . S
C3917 H3901 0.930 . S
C3917 C3916 1.377 . S
C3917 C3918 1.379 . S
C3918 H3902 0.931 . S
C3918 C3912 1.383 . S
C3918 C3917 1.379 . S
H3919 C3913 0.959 . S
H3920 C3913 0.961 . S
H3921 C3913 0.960 . S
H3922 C3914 0.930 . S
H3923 C3915 0.929 . S
H3924 C3932 0.929 . S
H3925 C3934 0.930 . S
H3926 C3936 0.930 . S
H3927 C3939 0.929 . S
H3928 C3942 0.930 . S
H3929 C3944 0.960 . S
H3930 C3944 0.960 . S
H3931 C3944 0.960 . S
C3932 H3924 0.929 . S
C3932 C3933 1.377 . S
C3932 C3934 1.384 . S
C3933 C3932 1.377 . S
C3933 C3939 1.390 1_455 S
C3934 H3925 0.930 . S
C3934 C3932 1.384 . S
C3934 C3935 1.372 1_455 S
C3935 C3934 1.372 1_655 S
C3935 C3936 1.400 . S
C3935 C3940 1.490 . S
C3936 H3926 0.930 . S
C3936 C3935 1.400 . S
C3936 C3939 1.386 . S
H3937 C3953 0.930 . S
H3938 C3954 0.931 . S
C3939 H3927 0.929 . S
C3939 C3933 1.390 1_655 S
C3939 C3936 1.386 . S
C3940 C3935 1.490 . S
C3940 C3942 1.395 . S
C3940 C3943 1.403 . S
H3941 C3947 0.930 . S
C3942 H3928 0.930 . S
C3942 C3940 1.395 . S
C3942 C3945 1.403 . S
C3943 C3940 1.403 . S
C3943 C3944 1.524 . S
C3943 C3947 1.400 . S
C3944 H3929 0.960 . S
C3944 H3930 0.960 . S
C3944 H3931 0.960 . S
C3944 C3943 1.524 . S
C3945 C3942 1.403 . S
C3945 C3946 1.392 . S
C3945 C3949 1.495 . S
C3946 C3945 1.392 . S
C3946 C3947 1.385 . S
C3946 C3948 1.478 . S
C3947 H3941 0.930 . S
C3947 C3943 1.400 . S
C3947 C3946 1.385 . S
C3948 C3946 1.478 . S
C3948 C3950 1.381 . S
C3948 C3954 1.383 . S
C3949 C3945 1.495 . S
C3949 H3955 0.959 . S
C3949 H3956 0.961 . S
C3949 H3957 0.960 . S
C3950 C3948 1.381 . S
C3950 C3951 1.394 . S
C3950 H3958 0.930 . S
C3951 C3950 1.394 . S
C3951 C3952 1.383 . S
C3951 H3959 0.929 . S
C3952 C3951 1.383 . S
C3952 C3953 1.377 . S
C3953 H3937 0.930 . S
C3953 C3952 1.377 . S
C3953 C3954 1.379 . S
C3954 H3938 0.931 . S
C3954 C3948 1.383 . S
C3954 C3953 1.379 . S
H3955 C3949 0.959 . S
H3956 C3949 0.961 . S
H3957 C3949 0.960 . S
H3958 C3950 0.930 . S
H3959 C3951 0.929 . S
H3960 C3968 0.929 . S
H3961 C3970 0.930 . S
H3962 C3972 0.930 . S
H3963 C3975 0.929 . S
H3964 C3978 0.930 . S
H3965 C3980 0.960 . S
H3966 C3980 0.960 . S
H3967 C3980 0.960 . S
C3968 H3960 0.929 . S
C3968 C3969 1.377 . S
C3968 C3970 1.384 . S
C3969 C3968 1.377 . S
C3969 C3975 1.390 . S
C3970 H3961 0.930 . S
C3970 C3968 1.384 . S
C3970 C3971 1.372 . S
C3971 C3970 1.372 . S
C3971 C3972 1.400 . S
C3971 C3976 1.490 . S
C3972 H3962 0.930 . S
C3972 C3971 1.400 . S
C3972 C3975 1.386 . S
H3973 C3989 0.930 . S
H3974 C3990 0.931 . S
C3975 H3963 0.929 . S
C3975 C3969 1.390 . S
C3975 C3972 1.386 . S
C3976 C3971 1.490 . S
C3976 C3978 1.395 . S
C3976 C3979 1.403 . S
H3977 C3983 0.930 . S
C3978 H3964 0.930 . S
C3978 C3976 1.395 . S
C3978 C3981 1.403 . S
C3979 C3976 1.403 . S
C3979 C3980 1.524 . S
C3979 C3983 1.400 . S
C3980 H3965 0.960 . S
C3980 H3966 0.960 . S
C3980 H3967 0.960 . S
C3980 C3979 1.524 . S
C3981 C3978 1.403 . S
C3981 C3982 1.392 . S
C3981 C3985 1.495 . S
C3982 C3981 1.392 . S
C3982 C3983 1.385 . S
C3982 C3984 1.478 . S
C3983 H3977 0.930 . S
C3983 C3979 1.400 . S
C3983 C3982 1.385 . S
C3984 C3982 1.478 . S
C3984 C3986 1.381 . S
C3984 C3990 1.383 . S
C3985 C3981 1.495 . S
C3985 H3991 0.959 . S
C3985 H3992 0.961 . S
C3985 H3993 0.960 . S
C3986 C3984 1.381 . S
C3986 C3987 1.394 . S
C3986 H3994 0.930 . S
C3987 C3986 1.394 . S
C3987 C3988 1.383 . S
C3987 H3995 0.929 . S
C3988 C3987 1.383 . S
C3988 C3989 1.377 . S
C3989 H3973 0.930 . S
C3989 C3988 1.377 . S
C3989 C3990 1.379 . S
C3990 H3974 0.931 . S
C3990 C3984 1.383 . S
C3990 C3989 1.379 . S
H3991 C3985 0.959 . S
H3992 C3985 0.961 . S
H3993 C3985 0.960 . S
H3994 C3986 0.930 . S
H3995 C3987 0.929 . S
H3996 C4004 0.929 . S
H3997 C4006 0.930 . S
H3998 C4008 0.930 . S
H3999 C4011 0.929 . S
H4000 C4014 0.930 . S
H4001 C4016 0.960 1_565 S
H4002 C4016 0.960 . S
H4003 C4016 0.960 . S
C4004 H3996 0.929 . S
C4004 C4005 1.377 . S
C4004 C4006 1.384 . S
C4005 C4004 1.377 . S
C4005 C4011 1.390 . S
C4006 H3997 0.930 . S
C4006 C4004 1.384 . S
C4006 C4007 1.372 . S
C4007 C4006 1.372 . S
C4007 C4008 1.400 . S
C4007 C4012 1.490 . S
C4008 H3998 0.930 . S
C4008 C4007 1.400 . S
C4008 C4011 1.386 . S
H4009 C4025 0.930 . S
H4010 C4026 0.931 . S
C4011 H3999 0.929 . S
C4011 C4005 1.390 . S
C4011 C4008 1.386 . S
C4012 C4007 1.490 . S
C4012 C4014 1.395 . S
C4012 C4015 1.403 . S
H4013 C4019 0.946 . S
C4014 H4000 0.930 . S
C4014 C4012 1.395 . S
C4014 C4017 1.403 . S
C4015 C4012 1.403 . S
C4015 C4016 1.524 . S
C4015 C4019 1.400 . S
C4016 H4001 0.960 1_545 S
C4016 H4002 0.960 . S
C4016 H4003 0.960 . S
C4016 C4015 1.524 . S
C4017 C4014 1.403 . S
C4017 C4018 1.392 . S
C4017 C4021 1.495 . S
C4018 C4017 1.392 . S
C4018 C4019 1.385 . S
C4018 C4020 1.478 . S
C4019 H4013 0.946 . S
C4019 C4015 1.400 . S
C4019 C4018 1.385 . S
C4020 C4018 1.478 . S
C4020 C4022 1.381 . S
C4020 C4026 1.383 . S
C4021 C4017 1.495 . S
C4021 H4027 0.959 . S
C4021 H4028 0.961 . S
C4021 H4029 0.960 . S
C4022 C4020 1.381 . S
C4022 C4023 1.394 1_545 S
C4022 H4030 0.930 . S
C4023 C4022 1.394 1_565 S
C4023 C4024 1.383 . S
C4023 H4031 0.929 . S
C4024 C4023 1.383 . S
C4024 C4025 1.377 . S
C4025 H4009 0.930 . S
C4025 C4024 1.377 . S
C4025 C4026 1.379 1_565 S
C4026 H4010 0.931 . S
C4026 C4020 1.383 . S
C4026 C4025 1.379 1_545 S
H4027 C4021 0.959 . S
H4028 C4021 0.961 . S
H4029 C4021 0.960 . S
H4030 C4022 0.930 . S
H4031 C4023 0.929 . S
H4032 C4040 0.929 . S
H4033 C4042 0.930 . S
H4034 C4044 0.930 . S
H4035 C4047 0.929 . S
H4036 C4050 0.930 . S
H4037 C4052 0.960 . S
H4038 C4052 0.960 . S
H4039 C4052 0.960 . S
C4040 H4032 0.929 . S
C4040 C4041 1.377 . S
C4040 C4042 1.384 . S
C4041 C4040 1.377 . S
C4041 C4047 1.390 . S
C4042 H4033 0.930 . S
C4042 C4040 1.384 . S
C4042 C4043 1.372 . S
C4043 C4042 1.372 . S
C4043 C4044 1.400 . S
C4043 C4048 1.490 . S
C4044 H4034 0.930 . S
C4044 C4043 1.400 . S
C4044 C4047 1.386 . S
H4045 C4061 0.930 . S
H4046 C4062 0.931 . S
C4047 H4035 0.929 . S
C4047 C4041 1.390 . S
C4047 C4044 1.386 . S
C4048 C4043 1.490 . S
C4048 C4050 1.395 . S
C4048 C4051 1.403 . S
H4049 C4055 0.930 . S
C4050 H4036 0.930 . S
C4050 C4048 1.395 . S
C4050 C4053 1.403 . S
C4051 C4048 1.403 . S
C4051 C4052 1.524 . S
C4051 C4055 1.400 . S
C4052 H4037 0.960 . S
C4052 H4038 0.960 . S
C4052 H4039 0.960 . S
C4052 C4051 1.524 . S
C4053 C4050 1.403 . S
C4053 C4054 1.392 . S
C4053 C4057 1.495 . S
C4054 C4053 1.392 . S
C4054 C4055 1.385 . S
C4054 C4056 1.478 . S
C4055 H4049 0.930 . S
C4055 C4051 1.400 . S
C4055 C4054 1.385 . S
C4056 C4054 1.478 . S
C4056 C4058 1.381 . S
C4056 C4062 1.383 . S
C4057 C4053 1.495 . S
C4057 H4063 0.959 . S
C4057 H4064 0.961 . S
C4057 H4065 0.960 . S
C4058 C4056 1.381 . S
C4058 C4059 1.394 . S
C4058 H4066 0.930 . S
C4059 C4058 1.394 . S
C4059 C4060 1.383 . S
C4059 H4067 0.929 . S
C4060 C4059 1.383 . S
C4060 C4061 1.377 . S
C4061 H4045 0.930 . S
C4061 C4060 1.377 . S
C4061 C4062 1.379 . S
C4062 H4046 0.931 . S
C4062 C4056 1.383 . S
C4062 C4061 1.379 . S
H4063 C4057 0.959 . S
H4064 C4057 0.961 . S
H4065 C4057 0.960 . S
H4066 C4058 0.930 . S
H4067 C4059 0.929 . S
H4068 C4076 0.929 . S
H4069 C4078 0.930 . S
H4070 C4080 0.930 . S
H4071 C4083 0.929 . S
H4072 C4086 0.930 . S
H4073 C4088 0.960 . S
H4074 C4088 0.960 . S
H4075 C4088 0.960 . S
C4076 H4068 0.929 . S
C4076 C4077 1.377 . S
C4076 C4078 1.384 . S
C4077 C4076 1.377 . S
C4077 C4083 1.390 . S
C4078 H4069 0.930 . S
C4078 C4076 1.384 . S
C4078 C4079 1.372 . S
C4079 C4078 1.372 . S
C4079 C4080 1.400 . S
C4079 C4084 1.490 . S
C4080 H4070 0.930 . S
C4080 C4079 1.400 . S
C4080 C4083 1.386 . S
H4081 C4097 0.930 . S
H4082 C4098 0.931 . S
C4083 H4071 0.929 . S
C4083 C4077 1.390 . S
C4083 C4080 1.386 . S
C4084 C4079 1.490 . S
C4084 C4086 1.395 . S
C4084 C4087 1.403 . S
H4085 C4091 0.930 . S
C4086 H4072 0.930 . S
C4086 C4084 1.395 . S
C4086 C4089 1.403 . S
C4087 C4084 1.403 . S
C4087 C4088 1.524 . S
C4087 C4091 1.400 . S
C4088 H4073 0.960 . S
C4088 H4074 0.960 . S
C4088 H4075 0.960 . S
C4088 C4087 1.524 . S
C4089 C4086 1.403 . S
C4089 C4090 1.392 . S
C4089 C4093 1.495 . S
C4090 C4089 1.392 . S
C4090 C4091 1.385 . S
C4090 C4092 1.478 . S
C4091 H4085 0.930 . S
C4091 C4087 1.400 . S
C4091 C4090 1.385 . S
C4092 C4090 1.478 . S
C4092 C4094 1.381 . S
C4092 C4098 1.383 . S
C4093 C4089 1.495 . S
C4093 H4099 0.959 . S
C4093 H4100 0.961 . S
C4093 H4101 0.960 . S
C4094 C4092 1.381 . S
C4094 C4095 1.394 . S
C4094 H4102 0.930 . S
C4095 C4094 1.394 . S
C4095 C4096 1.383 . S
C4095 H4103 0.929 . S
C4096 C4095 1.383 . S
C4096 C4097 1.377 . S
C4097 H4081 0.930 . S
C4097 C4096 1.377 . S
C4097 C4098 1.379 . S
C4098 H4082 0.931 . S
C4098 C4092 1.383 . S
C4098 C4097 1.379 . S
H4099 C4093 0.959 . S
H4100 C4093 0.961 . S
H4101 C4093 0.960 . S
H4102 C4094 0.930 . S
H4103 C4095 0.929 . S
H4104 C4112 0.929 . S
H4105 C4114 0.930 . S
H4106 C4116 0.930 . S
H4107 C4119 0.929 . S
H4108 C4122 0.930 . S
H4109 C4124 0.960 . S
H4110 C4124 0.960 . S
H4111 C4124 0.960 . S
C4112 H4104 0.929 . S
C4112 C4113 1.377 . S
C4112 C4114 1.384 . S
C4113 C4112 1.377 . S
C4113 C4119 1.390 . S
C4114 H4105 0.930 . S
C4114 C4112 1.384 . S
C4114 C4115 1.372 . S
C4115 C4114 1.372 . S
C4115 C4116 1.400 . S
C4115 C4120 1.490 . S
C4116 H4106 0.930 . S
C4116 C4115 1.400 . S
C4116 C4119 1.386 . S
H4117 C4133 0.930 . S
H4118 C4134 0.931 . S
C4119 H4107 0.929 . S
C4119 C4113 1.390 . S
C4119 C4116 1.386 . S
C4120 C4115 1.490 . S
C4120 C4122 1.395 . S
C4120 C4123 1.403 . S
H4121 C4127 0.930 . S
C4122 H4108 0.930 . S
C4122 C4120 1.395 . S
C4122 C4125 1.403 . S
C4123 C4120 1.403 . S
C4123 C4124 1.524 . S
C4123 C4127 1.400 . S
C4124 H4109 0.960 . S
C4124 H4110 0.960 . S
C4124 H4111 0.960 . S
C4124 C4123 1.524 . S
C4125 C4122 1.403 . S
C4125 C4126 1.392 . S
C4125 C4129 1.495 . S
C4126 C4125 1.392 . S
C4126 C4127 1.385 . S
C4126 C4128 1.478 . S
C4127 H4121 0.930 . S
C4127 C4123 1.400 . S
C4127 C4126 1.385 . S
C4128 C4126 1.478 . S
C4128 C4130 1.381 . S
C4128 C4134 1.383 . S
C4129 C4125 1.495 . S
C4129 H4135 0.959 . S
C4129 H4136 0.961 . S
C4129 H4137 0.960 . S
C4130 C4128 1.381 . S
C4130 C4131 1.394 . S
C4130 H4138 0.930 . S
C4131 C4130 1.394 . S
C4131 C4132 1.383 . S
C4131 H4139 0.929 . S
C4132 C4131 1.383 . S
C4132 C4133 1.377 . S
C4133 H4117 0.930 . S
C4133 C4132 1.377 . S
C4133 C4134 1.379 . S
C4134 H4118 0.931 . S
C4134 C4128 1.383 . S
C4134 C4133 1.379 . S
H4135 C4129 0.959 . S
H4136 C4129 0.961 . S
H4137 C4129 0.960 . S
H4138 C4130 0.930 . S
H4139 C4131 0.929 . S
H4140 C4148 0.929 . S
H4141 C4150 0.930 . S
H4142 C4152 0.930 . S
H4143 C4155 0.929 . S
H4144 C4158 0.930 . S
H4145 C4160 0.960 . S
H4146 C4160 0.960 . S
H4147 C4160 0.960 . S
C4148 H4140 0.929 . S
C4148 C4149 1.377 . S
C4148 C4150 1.384 . S
C4149 C4148 1.377 . S
C4149 C4155 1.390 . S
C4150 H4141 0.930 . S
C4150 C4148 1.384 . S
C4150 C4151 1.372 . S
C4151 C4150 1.372 . S
C4151 C4152 1.400 . S
C4151 C4156 1.490 . S
C4152 H4142 0.930 . S
C4152 C4151 1.400 . S
C4152 C4155 1.386 . S
H4153 C4169 0.930 . S
H4154 C4170 0.931 . S
C4155 H4143 0.929 . S
C4155 C4149 1.390 . S
C4155 C4152 1.386 . S
C4156 C4151 1.490 . S
C4156 C4158 1.395 . S
C4156 C4159 1.403 . S
H4157 C4163 0.930 . S
C4158 H4144 0.930 . S
C4158 C4156 1.395 . S
C4158 C4161 1.403 . S
C4159 C4156 1.403 . S
C4159 C4160 1.524 . S
C4159 C4163 1.400 . S
C4160 H4145 0.960 . S
C4160 H4146 0.960 . S
C4160 H4147 0.960 . S
C4160 C4159 1.524 . S
C4161 C4158 1.403 . S
C4161 C4162 1.392 . S
C4161 C4165 1.495 . S
C4162 C4161 1.392 . S
C4162 C4163 1.385 . S
C4162 C4164 1.478 . S
C4163 H4157 0.930 . S
C4163 C4159 1.400 . S
C4163 C4162 1.385 . S
C4164 C4162 1.478 . S
C4164 C4166 1.381 . S
C4164 C4170 1.383 . S
C4165 C4161 1.495 . S
C4165 H4171 0.959 . S
C4165 H4172 0.961 . S
C4165 H4173 0.960 . S
C4166 C4164 1.381 . S
C4166 C4167 1.394 . S
C4166 H4174 0.930 . S
C4167 C4166 1.394 . S
C4167 C4168 1.383 . S
C4167 H4175 0.929 . S
C4168 C4167 1.383 . S
C4168 C4169 1.377 . S
C4169 H4153 0.930 . S
C4169 C4168 1.377 . S
C4169 C4170 1.379 . S
C4170 H4154 0.931 . S
C4170 C4164 1.383 . S
C4170 C4169 1.379 . S
H4171 C4165 0.959 . S
H4172 C4165 0.961 . S
H4173 C4165 0.960 . S
H4174 C4166 0.930 . S
H4175 C4167 0.929 . S
H4176 C4184 0.929 . S
H4177 C4186 0.930 . S
H4178 C4188 0.930 . S
H4179 C4191 0.929 . S
H4180 C4194 0.930 . S
H4181 C4196 0.960 . S
H4182 C4196 0.960 . S
H4183 C4196 0.960 . S
C4184 H4176 0.929 . S
C4184 C4185 1.377 . S
C4184 C4186 1.384 . S
C4185 C4184 1.377 . S
C4185 C4191 1.390 . S
C4186 H4177 0.930 . S
C4186 C4184 1.384 . S
C4186 C4187 1.372 . S
C4187 C4186 1.372 . S
C4187 C4188 1.400 . S
C4187 C4192 1.490 . S
C4188 H4178 0.930 . S
C4188 C4187 1.400 . S
C4188 C4191 1.386 . S
H4189 C4205 0.930 . S
H4190 C4206 0.931 . S
C4191 H4179 0.929 . S
C4191 C4185 1.390 . S
C4191 C4188 1.386 . S
C4192 C4187 1.490 . S
C4192 C4194 1.395 . S
C4192 C4195 1.403 . S
H4193 C4199 0.930 . S
C4194 H4180 0.930 . S
C4194 C4192 1.395 . S
C4194 C4197 1.403 . S
C4195 C4192 1.403 . S
C4195 C4196 1.524 . S
C4195 C4199 1.400 . S
C4196 H4181 0.960 . S
C4196 H4182 0.960 . S
C4196 H4183 0.960 . S
C4196 C4195 1.524 . S
C4197 C4194 1.403 . S
C4197 C4198 1.392 . S
C4197 C4201 1.495 . S
C4198 C4197 1.392 . S
C4198 C4199 1.385 . S
C4198 C4200 1.478 . S
C4199 H4193 0.930 . S
C4199 C4195 1.400 . S
C4199 C4198 1.385 . S
C4200 C4198 1.478 . S
C4200 C4202 1.381 . S
C4200 C4206 1.383 . S
C4201 C4197 1.495 . S
C4201 H4207 0.959 . S
C4201 H4208 0.961 . S
C4201 H4209 0.960 . S
C4202 C4200 1.381 . S
C4202 C4203 1.394 . S
C4202 H4210 0.930 . S
C4203 C4202 1.394 . S
C4203 C4204 1.383 . S
C4203 H4211 0.929 . S
C4204 C4203 1.383 . S
C4204 C4205 1.377 . S
C4205 H4189 0.930 . S
C4205 C4204 1.377 . S
C4205 C4206 1.379 . S
C4206 H4190 0.931 . S
C4206 C4200 1.383 . S
C4206 C4205 1.379 . S
H4207 C4201 0.959 . S
H4208 C4201 0.961 . S
H4209 C4201 0.960 . S
H4210 C4202 0.930 . S
H4211 C4203 0.929 . S
H4212 C4220 0.929 . S
H4213 C4222 0.930 . S
H4214 C4224 0.930 . S
H4215 C4227 0.929 . S
H4216 C4230 0.930 . S
H4217 C4232 0.960 . S
H4218 C4232 0.960 . S
H4219 C4232 0.960 . S
C4220 H4212 0.929 . S
C4220 C4221 1.377 . S
C4220 C4222 1.384 . S
C4221 C4220 1.377 . S
C4221 C4227 1.390 . S
C4222 H4213 0.930 . S
C4222 C4220 1.384 . S
C4222 C4223 1.372 . S
C4223 C4222 1.372 . S
C4223 C4224 1.400 . S
C4223 C4228 1.490 . S
C4224 H4214 0.930 . S
C4224 C4223 1.400 . S
C4224 C4227 1.386 . S
H4225 C4241 0.930 . S
H4226 C4242 0.931 . S
C4227 H4215 0.929 . S
C4227 C4221 1.390 . S
C4227 C4224 1.386 . S
C4228 C4223 1.490 . S
C4228 C4230 1.395 . S
C4228 C4231 1.403 . S
H4229 C4235 0.930 . S
C4230 H4216 0.930 . S
C4230 C4228 1.395 . S
C4230 C4233 1.403 . S
C4231 C4228 1.403 . S
C4231 C4232 1.524 . S
C4231 C4235 1.400 . S
C4232 H4217 0.960 . S
C4232 H4218 0.960 . S
C4232 H4219 0.960 . S
C4232 C4231 1.524 . S
C4233 C4230 1.403 . S
C4233 C4234 1.392 . S
C4233 C4237 1.495 . S
C4234 C4233 1.392 . S
C4234 C4235 1.385 . S
C4234 C4236 1.478 . S
C4235 H4229 0.930 . S
C4235 C4231 1.400 . S
C4235 C4234 1.385 . S
C4236 C4234 1.478 . S
C4236 C4238 1.381 . S
C4236 C4242 1.383 . S
C4237 C4233 1.495 . S
C4237 H4243 0.959 . S
C4237 H4244 0.961 . S
C4237 H4245 0.960 . S
C4238 C4236 1.381 . S
C4238 C4239 1.394 . S
C4238 H4246 0.930 . S
C4239 C4238 1.394 . S
C4239 C4240 1.383 . S
C4239 H4247 0.929 . S
C4240 C4239 1.383 . S
C4240 C4241 1.377 . S
C4241 H4225 0.930 . S
C4241 C4240 1.377 . S
C4241 C4242 1.379 . S
C4242 H4226 0.931 . S
C4242 C4236 1.383 . S
C4242 C4241 1.379 . S
H4243 C4237 0.959 . S
H4244 C4237 0.961 . S
H4245 C4237 0.960 . S
H4246 C4238 0.930 . S
H4247 C4239 0.929 . S
H4248 C4256 0.929 . S
H4249 C4258 0.930 . S
H4250 C4260 0.930 . S
H4251 C4263 0.929 . S
H4252 C4266 0.930 . S
H4253 C4268 0.960 . S
H4254 C4268 0.960 . S
H4255 C4268 0.960 . S
C4256 H4248 0.929 . S
C4256 C4257 1.377 . S
C4256 C4258 1.384 . S
C4257 C4256 1.377 . S
C4257 C4263 1.390 . S
C4258 H4249 0.930 . S
C4258 C4256 1.384 . S
C4258 C4259 1.372 . S
C4259 C4258 1.372 . S
C4259 C4260 1.400 . S
C4259 C4264 1.490 . S
C4260 H4250 0.930 . S
C4260 C4259 1.400 . S
C4260 C4263 1.386 . S
H4261 C4277 0.930 . S
H4262 C4278 0.931 . S
C4263 H4251 0.929 . S
C4263 C4257 1.390 . S
C4263 C4260 1.386 . S
C4264 C4259 1.490 . S
C4264 C4266 1.395 . S
C4264 C4267 1.403 . S
H4265 C4271 0.930 . S
C4266 H4252 0.930 . S
C4266 C4264 1.395 . S
C4266 C4269 1.403 . S
C4267 C4264 1.403 . S
C4267 C4268 1.524 . S
C4267 C4271 1.400 . S
C4268 H4253 0.960 . S
C4268 H4254 0.960 . S
C4268 H4255 0.960 . S
C4268 C4267 1.524 . S
C4269 C4266 1.403 . S
C4269 C4270 1.392 . S
C4269 C4273 1.495 . S
C4270 C4269 1.392 . S
C4270 C4271 1.385 . S
C4270 C4272 1.478 . S
C4271 H4265 0.930 . S
C4271 C4267 1.400 . S
C4271 C4270 1.385 . S
C4272 C4270 1.478 . S
C4272 C4274 1.381 . S
C4272 C4278 1.383 . S
C4273 C4269 1.495 . S
C4273 H4279 0.959 . S
C4273 H4280 0.961 . S
C4273 H4281 0.960 . S
C4274 C4272 1.381 . S
C4274 C4275 1.394 . S
C4274 H4282 0.930 . S
C4275 C4274 1.394 . S
C4275 C4276 1.383 . S
C4275 H4283 0.929 . S
C4276 C4275 1.383 . S
C4276 C4277 1.377 . S
C4277 H4261 0.930 . S
C4277 C4276 1.377 . S
C4277 C4278 1.379 . S
C4278 H4262 0.931 . S
C4278 C4272 1.383 . S
C4278 C4277 1.379 . S
H4279 C4273 0.959 . S
H4280 C4273 0.961 . S
H4281 C4273 0.960 . S
H4282 C4274 0.930 . S
H4283 C4275 0.929 . S
H4284 C4292 0.929 . S
H4285 C4294 0.930 . S
H4286 C4296 0.930 . S
H4287 C4299 0.929 . S
H4288 C4302 0.930 . S
H4289 C4304 0.960 . S
H4290 C4304 0.960 . S
H4291 C4304 0.960 . S
C4292 H4284 0.929 . S
C4292 C4293 1.377 . S
C4292 C4294 1.384 . S
C4293 C4292 1.377 . S
C4293 C4299 1.390 . S
C4294 H4285 0.930 . S
C4294 C4292 1.384 . S
C4294 C4295 1.372 . S
C4295 C4294 1.372 . S
C4295 C4296 1.400 . S
C4295 C4300 1.490 . S
C4296 H4286 0.930 . S
C4296 C4295 1.400 . S
C4296 C4299 1.386 . S
H4297 C4313 0.930 . S
H4298 C4314 0.931 . S
C4299 H4287 0.929 . S
C4299 C4293 1.390 . S
C4299 C4296 1.386 . S
C4300 C4295 1.490 . S
C4300 C4302 1.395 . S
C4300 C4303 1.403 . S
H4301 C4307 0.930 . S
C4302 H4288 0.930 . S
C4302 C4300 1.395 . S
C4302 C4305 1.403 . S
C4303 C4300 1.403 . S
C4303 C4304 1.524 . S
C4303 C4307 1.400 . S
C4304 H4289 0.960 . S
C4304 H4290 0.960 . S
C4304 H4291 0.960 . S
C4304 C4303 1.524 . S
C4305 C4302 1.403 . S
C4305 C4306 1.392 . S
C4305 C4309 1.495 . S
C4306 C4305 1.392 . S
C4306 C4307 1.385 . S
C4306 C4308 1.478 . S
C4307 H4301 0.930 . S
C4307 C4303 1.400 . S
C4307 C4306 1.385 . S
C4308 C4306 1.478 . S
C4308 C4310 1.381 . S
C4308 C4314 1.383 . S
C4309 C4305 1.495 . S
C4309 H4315 0.959 . S
C4309 H4316 0.961 . S
C4309 H4317 0.960 . S
C4310 C4308 1.381 . S
C4310 C4311 1.394 . S
C4310 H4318 0.930 . S
C4311 C4310 1.394 . S
C4311 C4312 1.383 . S
C4311 H4319 0.929 . S
C4312 C4311 1.383 . S
C4312 C4313 1.377 . S
C4313 H4297 0.930 . S
C4313 C4312 1.377 . S
C4313 C4314 1.379 . S
C4314 H4298 0.931 . S
C4314 C4308 1.383 . S
C4314 C4313 1.379 . S
H4315 C4309 0.959 . S
H4316 C4309 0.961 . S
H4317 C4309 0.960 . S
H4318 C4310 0.930 . S
H4319 C4311 0.929 . S
H4320 C4328 0.929 . S
H4321 C4330 0.930 . S
H4322 C4332 0.930 . S
H4323 C4335 0.929 . S
H4324 C4338 0.930 . S
H4325 C4340 0.960 . S
H4326 C4340 0.960 . S
H4327 C4340 0.960 . S
C4328 H4320 0.929 . S
C4328 C4329 1.377 . S
C4328 C4330 1.384 . S
C4329 C4328 1.377 . S
C4329 C4335 1.390 . S
C4330 H4321 0.930 . S
C4330 C4328 1.384 . S
C4330 C4331 1.372 . S
C4331 C4330 1.372 . S
C4331 C4332 1.400 . S
C4331 C4336 1.490 . S
C4332 H4322 0.930 . S
C4332 C4331 1.400 . S
C4332 C4335 1.386 . S
H4333 C4349 0.930 . S
H4334 C4350 0.931 . S
C4335 H4323 0.929 . S
C4335 C4329 1.390 . S
C4335 C4332 1.386 . S
C4336 C4331 1.490 . S
C4336 C4338 1.395 . S
C4336 C4339 1.403 . S
H4337 C4343 0.930 . S
C4338 H4324 0.930 . S
C4338 C4336 1.395 . S
C4338 C4341 1.403 . S
C4339 C4336 1.403 . S
C4339 C4340 1.524 . S
C4339 C4343 1.400 . S
C4340 H4325 0.960 . S
C4340 H4326 0.960 . S
C4340 H4327 0.960 . S
C4340 C4339 1.524 . S
C4341 C4338 1.403 . S
C4341 C4342 1.392 . S
C4341 C4345 1.495 . S
C4342 C4341 1.392 . S
C4342 C4343 1.385 . S
C4342 C4344 1.478 . S
C4343 H4337 0.930 . S
C4343 C4339 1.400 . S
C4343 C4342 1.385 . S
C4344 C4342 1.478 . S
C4344 C4346 1.381 . S
C4344 C4350 1.383 . S
C4345 C4341 1.495 . S
C4345 H4351 0.959 . S
C4345 H4352 0.961 . S
C4345 H4353 0.960 . S
C4346 C4344 1.381 . S
C4346 C4347 1.394 . S
C4346 H4354 0.930 . S
C4347 C4346 1.394 . S
C4347 C4348 1.383 . S
C4347 H4355 0.929 . S
C4348 C4347 1.383 . S
C4348 C4349 1.377 . S
C4349 H4333 0.930 . S
C4349 C4348 1.377 . S
C4349 C4350 1.379 . S
C4350 H4334 0.931 . S
C4350 C4344 1.383 . S
C4350 C4349 1.379 . S
H4351 C4345 0.959 . S
H4352 C4345 0.961 . S
H4353 C4345 0.960 . S
H4354 C4346 0.930 . S
H4355 C4347 0.929 . S
H4356 C4364 0.929 . S
H4357 C4366 0.930 . S
H4358 C4368 0.930 . S
H4359 C4371 0.929 . S
H4360 C4374 0.930 . S
H4361 C4376 0.960 . S
H4362 C4376 0.960 . S
H4363 C4376 0.960 . S
C4364 H4356 0.929 . S
C4364 C4365 1.377 . S
C4364 C4366 1.384 . S
C4365 C4364 1.377 . S
C4365 C4371 1.390 . S
C4366 H4357 0.930 . S
C4366 C4364 1.384 . S
C4366 C4367 1.372 . S
C4367 C4366 1.372 . S
C4367 C4368 1.400 . S
C4367 C4372 1.490 . S
C4368 H4358 0.930 . S
C4368 C4367 1.400 . S
C4368 C4371 1.386 . S
H4369 C4385 0.930 . S
H4370 C4386 0.931 . S
C4371 H4359 0.929 . S
C4371 C4365 1.390 . S
C4371 C4368 1.386 . S
C4372 C4367 1.490 . S
C4372 C4374 1.395 . S
C4372 C4375 1.403 . S
H4373 C4379 0.930 . S
C4374 H4360 0.930 . S
C4374 C4372 1.395 . S
C4374 C4377 1.403 . S
C4375 C4372 1.403 . S
C4375 C4376 1.524 . S
C4375 C4379 1.400 . S
C4376 H4361 0.960 . S
C4376 H4362 0.960 . S
C4376 H4363 0.960 . S
C4376 C4375 1.524 . S
C4377 C4374 1.403 . S
C4377 C4378 1.392 . S
C4377 C4381 1.495 . S
C4378 C4377 1.392 . S
C4378 C4379 1.385 . S
C4378 C4380 1.478 . S
C4379 H4373 0.930 . S
C4379 C4375 1.400 . S
C4379 C4378 1.385 . S
C4380 C4378 1.478 . S
C4380 C4382 1.381 . S
C4380 C4386 1.383 . S
C4381 C4377 1.495 . S
C4381 H4387 0.959 . S
C4381 H4388 0.961 . S
C4381 H4389 0.960 . S
C4382 C4380 1.381 . S
C4382 C4383 1.394 . S
C4382 H4390 0.930 . S
C4383 C4382 1.394 . S
C4383 C4384 1.383 . S
C4383 H4391 0.929 . S
C4384 C4383 1.383 . S
C4384 C4385 1.377 . S
C4385 H4369 0.930 . S
C4385 C4384 1.377 . S
C4385 C4386 1.379 . S
C4386 H4370 0.931 . S
C4386 C4380 1.383 . S
C4386 C4385 1.379 . S
H4387 C4381 0.959 . S
H4388 C4381 0.961 . S
H4389 C4381 0.960 . S
H4390 C4382 0.930 . S
H4391 C4383 0.929 . S
H4392 C4400 0.929 . S
H4393 C4402 0.930 . S
H4394 C4404 0.930 . S
H4395 C4407 0.929 . S
H4396 C4410 0.930 . S
H4397 C4412 0.960 . S
H4398 C4412 0.960 . S
H4399 C4412 0.960 . S
C4400 H4392 0.929 . S
C4400 C4401 1.377 . S
C4400 C4402 1.384 . S
C4401 C4400 1.377 . S
C4401 C4407 1.390 . S
C4402 H4393 0.930 . S
C4402 C4400 1.384 . S
C4402 C4403 1.372 . S
C4403 C4402 1.372 . S
C4403 C4404 1.400 . S
C4403 C4408 1.490 . S
C4404 H4394 0.930 . S
C4404 C4403 1.400 . S
C4404 C4407 1.386 . S
H4405 C4421 0.930 . S
H4406 C4422 0.931 . S
C4407 H4395 0.929 . S
C4407 C4401 1.390 . S
C4407 C4404 1.386 . S
C4408 C4403 1.490 . S
C4408 C4410 1.395 . S
C4408 C4411 1.403 . S
H4409 C4415 0.930 . S
C4410 H4396 0.930 . S
C4410 C4408 1.395 . S
C4410 C4413 1.403 . S
C4411 C4408 1.403 . S
C4411 C4412 1.524 . S
C4411 C4415 1.400 . S
C4412 H4397 0.960 . S
C4412 H4398 0.960 . S
C4412 H4399 0.960 . S
C4412 C4411 1.524 . S
C4413 C4410 1.403 . S
C4413 C4414 1.392 . S
C4413 C4417 1.495 . S
C4414 C4413 1.392 . S
C4414 C4415 1.385 . S
C4414 C4416 1.478 . S
C4415 H4409 0.930 . S
C4415 C4411 1.400 . S
C4415 C4414 1.385 . S
C4416 C4414 1.478 . S
C4416 C4418 1.381 . S
C4416 C4422 1.383 . S
C4417 C4413 1.495 . S
C4417 H4423 0.959 . S
C4417 H4424 0.961 . S
C4417 H4425 0.960 . S
C4418 C4416 1.381 . S
C4418 C4419 1.394 . S
C4418 H4426 0.930 . S
C4419 C4418 1.394 . S
C4419 C4420 1.383 . S
C4419 H4427 0.929 . S
C4420 C4419 1.383 . S
C4420 C4421 1.377 . S
C4421 H4405 0.930 . S
C4421 C4420 1.377 . S
C4421 C4422 1.379 . S
C4422 H4406 0.931 . S
C4422 C4416 1.383 . S
C4422 C4421 1.379 . S
H4423 C4417 0.959 . S
H4424 C4417 0.961 . S
H4425 C4417 0.960 . S
H4426 C4418 0.930 . S
H4427 C4419 0.929 . S
H4428 C4436 0.929 . S
H4429 C4438 0.930 . S
H4430 C4440 0.930 . S
H4431 C4443 0.929 . S
H4432 C4446 0.930 . S
H4433 C4448 0.960 . S
H4434 C4448 0.960 . S
H4435 C4448 0.960 . S
C4436 H4428 0.929 . S
C4436 C4437 1.377 . S
C4436 C4438 1.384 . S
C4437 C4436 1.377 . S
C4437 C4443 1.390 . S
C4438 H4429 0.930 . S
C4438 C4436 1.384 . S
C4438 C4439 1.372 . S
C4439 C4438 1.372 . S
C4439 C4440 1.400 . S
C4439 C4444 1.490 . S
C4440 H4430 0.930 . S
C4440 C4439 1.400 . S
C4440 C4443 1.386 . S
H4441 C4457 0.930 . S
H4442 C4458 0.931 . S
C4443 H4431 0.929 . S
C4443 C4437 1.390 . S
C4443 C4440 1.386 . S
C4444 C4439 1.490 . S
C4444 C4446 1.395 . S
C4444 C4447 1.403 . S
H4445 C4451 0.930 . S
C4446 H4432 0.930 . S
C4446 C4444 1.395 . S
C4446 C4449 1.403 . S
C4447 C4444 1.403 . S
C4447 C4448 1.524 . S
C4447 C4451 1.400 . S
C4448 H4433 0.960 . S
C4448 H4434 0.960 . S
C4448 H4435 0.960 . S
C4448 C4447 1.524 . S
C4449 C4446 1.403 . S
C4449 C4450 1.392 . S
C4449 C4453 1.495 . S
C4450 C4449 1.392 . S
C4450 C4451 1.385 . S
C4450 C4452 1.478 . S
C4451 H4445 0.930 . S
C4451 C4447 1.400 . S
C4451 C4450 1.385 . S
C4452 C4450 1.478 . S
C4452 C4454 1.381 . S
C4452 C4458 1.383 . S
C4453 C4449 1.495 . S
C4453 H4459 0.959 . S
C4453 H4460 0.961 . S
C4453 H4461 0.960 . S
C4454 C4452 1.381 . S
C4454 C4455 1.394 . S
C4454 H4462 0.930 . S
C4455 C4454 1.394 . S
C4455 C4456 1.383 . S
C4455 H4463 0.929 . S
C4456 C4455 1.383 . S
C4456 C4457 1.377 . S
C4457 H4441 0.930 . S
C4457 C4456 1.377 . S
C4457 C4458 1.379 . S
C4458 H4442 0.931 . S
C4458 C4452 1.383 . S
C4458 C4457 1.379 . S
H4459 C4453 0.959 . S
H4460 C4453 0.961 . S
H4461 C4453 0.960 . S
H4462 C4454 0.930 . S
H4463 C4455 0.929 . S
H4464 C4472 0.929 . S
H4465 C4474 0.930 1_455 S
H4466 C4476 0.930 . S
H4467 C4479 0.929 . S
H4468 C4482 0.930 . S
H4469 C4484 0.960 . S
H4470 C4484 0.960 . S
H4471 C4484 0.960 . S
C4472 H4464 0.929 . S
C4472 C4473 1.377 . S
C4472 C4474 1.384 . S
C4473 C4472 1.377 . S
C4473 C4479 1.390 . S
C4474 H4465 0.930 1_655 S
C4474 C4472 1.384 . S
C4474 C4475 1.372 . S
C4475 C4474 1.372 . S
C4475 C4476 1.400 . S
C4475 C4480 1.492 . S
C4476 H4466 0.930 . S
C4476 C4475 1.400 . S
C4476 C4479 1.386 . S
H4477 C4493 0.930 . S
H4478 C4494 0.931 . S
C4479 H4467 0.929 . S
C4479 C4473 1.390 . S
C4479 C4476 1.386 . S
C4480 C4475 1.492 . S
C4480 C4482 1.381 1_655 S
C4480 C4483 1.413 . S
H4481 C4487 0.930 . S
C4482 H4468 0.930 . S
C4482 C4480 1.381 1_455 S
C4482 C4485 1.403 . S
C4483 C4480 1.413 . S
C4483 C4484 1.524 . S
C4483 C4487 1.400 . S
C4484 H4469 0.960 . S
C4484 H4470 0.960 . S
C4484 H4471 0.960 . S
C4484 C4483 1.524 . S
C4485 C4482 1.403 . S
C4485 C4486 1.392 . S
C4485 C4489 1.495 . S
C4486 C4485 1.392 . S
C4486 C4487 1.385 1_455 S
C4486 C4488 1.478 . S
C4487 H4481 0.930 . S
C4487 C4483 1.400 . S
C4487 C4486 1.385 1_655 S
C4488 C4486 1.478 . S
C4488 C4490 1.381 . S
C4488 C4494 1.383 . S
C4489 C4485 1.495 . S
C4489 H4495 0.959 . S
C4489 H4496 0.961 . S
C4489 H4497 0.960 . S
C4490 C4488 1.381 . S
C4490 C4491 1.394 . S
C4490 H4498 0.930 . S
C4491 C4490 1.394 . S
C4491 C4492 1.383 . S
C4491 H4499 0.929 . S
C4492 C4491 1.383 . S
C4492 C4493 1.377 . S
C4493 H4477 0.930 . S
C4493 C4492 1.377 . S
C4493 C4494 1.379 . S
C4494 H4478 0.931 . S
C4494 C4488 1.383 . S
C4494 C4493 1.379 . S
H4495 C4489 0.959 . S
H4496 C4489 0.961 . S
H4497 C4489 0.960 . S
H4498 C4490 0.930 . S
H4499 C4491 0.929 . S
H4500 C4508 0.929 . S
H4501 C4510 0.930 . S
H4502 C4512 0.930 . S
H4503 C4515 0.929 . S
H4504 C4518 0.930 . S
H4505 C4520 0.960 . S
H4506 C4520 0.960 . S
H4507 C4520 0.960 . S
C4508 H4500 0.929 . S
C4508 C4509 1.377 . S
C4508 C4510 1.384 . S
C4509 C4508 1.377 . S
C4509 C4515 1.390 . S
C4510 H4501 0.930 . S
C4510 C4508 1.384 . S
C4510 C4511 1.372 . S
C4511 C4510 1.372 . S
C4511 C4512 1.400 . S
C4511 C4516 1.490 . S
C4512 H4502 0.930 . S
C4512 C4511 1.400 . S
C4512 C4515 1.386 . S
H4513 C4529 0.930 . S
H4514 C4530 0.931 . S
C4515 H4503 0.929 . S
C4515 C4509 1.390 . S
C4515 C4512 1.386 . S
C4516 C4511 1.490 . S
C4516 C4518 1.395 . S
C4516 C4519 1.403 . S
H4517 C4523 0.930 . S
C4518 H4504 0.930 . S
C4518 C4516 1.395 . S
C4518 C4521 1.403 . S
C4519 C4516 1.403 . S
C4519 C4520 1.524 . S
C4519 C4523 1.400 . S
C4520 H4505 0.960 . S
C4520 H4506 0.960 . S
C4520 H4507 0.960 . S
C4520 C4519 1.524 . S
C4521 C4518 1.403 . S
C4521 C4522 1.392 . S
C4521 C4525 1.495 . S
C4522 C4521 1.392 . S
C4522 C4523 1.385 . S
C4522 C4524 1.478 . S
C4523 H4517 0.930 . S
C4523 C4519 1.400 . S
C4523 C4522 1.385 . S
C4524 C4522 1.478 . S
C4524 C4526 1.381 . S
C4524 C4530 1.383 . S
C4525 C4521 1.495 . S
C4525 H4531 0.959 . S
C4525 H4532 0.961 . S
C4525 H4533 0.960 . S
C4526 C4524 1.381 . S
C4526 C4527 1.394 . S
C4526 H4534 0.930 . S
C4527 C4526 1.394 . S
C4527 C4528 1.383 . S
C4527 H4535 0.929 . S
C4528 C4527 1.383 . S
C4528 C4529 1.377 . S
C4529 H4513 0.930 . S
C4529 C4528 1.377 . S
C4529 C4530 1.379 . S
C4530 H4514 0.931 . S
C4530 C4524 1.383 . S
C4530 C4529 1.379 . S
H4531 C4525 0.959 . S
H4532 C4525 0.961 . S
H4533 C4525 0.960 . S
H4534 C4526 0.930 . S
H4535 C4527 0.929 . S
H4536 C4544 0.929 . S
H4537 C4546 0.930 . S
H4538 C4548 0.930 . S
H4539 C4551 0.929 . S
H4540 C4554 0.930 . S
H4541 C4556 0.960 . S
H4542 C4556 0.960 . S
H4543 C4556 0.960 . S
C4544 H4536 0.929 . S
C4544 C4545 1.377 1_565 S
C4544 C4546 1.384 . S
C4545 C4544 1.377 1_545 S
C4545 C4551 1.390 . S
C4546 H4537 0.930 . S
C4546 C4544 1.384 . S
C4546 C4547 1.372 1_565 S
C4547 C4546 1.372 1_545 S
C4547 C4548 1.400 . S
C4547 C4552 1.490 1_545 S
C4548 H4538 0.930 . S
C4548 C4547 1.400 . S
C4548 C4551 1.386 . S
H4549 C4565 0.930 . S
H4550 C4566 0.931 1_545 S
C4551 H4539 0.929 . S
C4551 C4545 1.390 . S
C4551 C4548 1.386 . S
C4552 C4547 1.490 1_565 S
C4552 C4554 1.395 . S
C4552 C4555 1.402 1_565 S
H4553 C4559 0.930 . S
C4554 H4540 0.930 . S
C4554 C4552 1.395 . S
C4554 C4557 1.403 . S
C4555 C4552 1.402 1_545 S
C4555 C4556 1.524 . S
C4555 C4559 1.400 . S
C4556 H4541 0.960 . S
C4556 H4542 0.960 . S
C4556 H4543 0.960 . S
C4556 C4555 1.524 . S
C4557 C4554 1.403 . S
C4557 C4558 1.392 . S
C4557 C4561 1.495 . S
C4558 C4557 1.392 . S
C4558 C4559 1.385 1_565 S
C4558 C4560 1.478 . S
C4559 H4553 0.930 . S
C4559 C4555 1.400 . S
C4559 C4558 1.385 1_545 S
C4560 C4558 1.478 . S
C4560 C4562 1.381 . S
C4560 C4566 1.383 . S
C4561 C4557 1.495 . S
C4561 H4567 0.959 . S
C4561 H4568 0.961 . S
C4561 H4569 0.960 . S
C4562 C4560 1.381 . S
C4562 C4563 1.394 . S
C4562 H4570 0.930 . S
C4563 C4562 1.394 . S
C4563 C4564 1.383 . S
C4563 H4571 0.929 . S
C4564 C4563 1.383 . S
C4564 C4565 1.377 . S
C4565 H4549 0.930 . S
C4565 C4564 1.377 . S
C4565 C4566 1.379 . S
C4566 H4550 0.931 1_565 S
C4566 C4560 1.383 . S
C4566 C4565 1.379 . S
H4567 C4561 0.959 . S
H4568 C4561 0.961 . S
H4569 C4561 0.960 . S
H4570 C4562 0.930 . S
H4571 C4563 0.929 . S
H4572 C4580 0.929 . S
H4573 C4582 0.930 1_565 S
H4574 C4584 0.930 . S
H4575 C4587 0.929 . S
H4576 C4590 0.930 . S
H4577 C4592 0.960 . S
H4578 C4592 0.960 . S
H4579 C4592 0.960 . S
C4580 H4572 0.929 . S
C4580 C4581 1.377 . S
C4580 C4582 1.384 . S
C4581 C4580 1.377 . S
C4581 C4587 1.390 . S
C4582 H4573 0.930 1_545 S
C4582 C4580 1.384 . S
C4582 C4583 1.372 . S
C4583 C4582 1.372 . S
C4583 C4584 1.400 . S
C4583 C4588 1.490 . S
C4584 H4574 0.930 . S
C4584 C4583 1.400 . S
C4584 C4587 1.386 . S
H4585 C4601 0.930 . S
H4586 C4602 0.931 . S
C4587 H4575 0.929 . S
C4587 C4581 1.390 . S
C4587 C4584 1.386 . S
C4588 C4583 1.490 . S
C4588 C4590 1.395 1_545 S
C4588 C4591 1.403 . S
H4589 C4595 0.930 . S
C4590 H4576 0.930 . S
C4590 C4588 1.395 1_565 S
C4590 C4593 1.403 . S
C4591 C4588 1.403 . S
C4591 C4592 1.524 . S
C4591 C4595 1.400 . S
C4592 H4577 0.960 . S
C4592 H4578 0.960 . S
C4592 H4579 0.960 . S
C4592 C4591 1.524 . S
C4593 C4590 1.403 . S
C4593 C4594 1.392 . S
C4593 C4597 1.495 . S
C4594 C4593 1.392 . S
C4594 C4595 1.385 1_565 S
C4594 C4596 1.478 . S
C4595 H4589 0.930 . S
C4595 C4591 1.400 . S
C4595 C4594 1.385 1_545 S
C4596 C4594 1.478 . S
C4596 C4598 1.381 . S
C4596 C4602 1.383 . S
C4597 C4593 1.495 . S
C4597 H4603 0.959 . S
C4597 H4604 0.961 . S
C4597 H4605 0.960 . S
C4598 C4596 1.381 . S
C4598 C4599 1.394 . S
C4598 H4606 0.930 . S
C4599 C4598 1.394 . S
C4599 C4600 1.383 . S
C4599 H4607 0.929 . S
C4600 C4599 1.383 . S
C4600 C4601 1.377 . S
C4601 H4585 0.930 . S
C4601 C4600 1.377 . S
C4601 C4602 1.379 . S
C4602 H4586 0.931 . S
C4602 C4596 1.383 . S
C4602 C4601 1.379 . S
H4603 C4597 0.959 . S
H4604 C4597 0.961 . S
H4605 C4597 0.960 . S
H4606 C4598 0.930 . S
H4607 C4599 0.929 . S
H4608 C4616 0.929 . S
H4609 C4618 0.930 . S
H4610 C4620 0.932 1_655 S
H4611 C4623 0.929 . S
H4612 C4626 0.930 . S
H4613 C4628 0.960 . S
H4614 C4628 0.960 . S
H4615 C4628 0.960 . S
C4616 H4608 0.929 . S
C4616 C4617 1.377 . S
C4616 C4618 1.384 . S
C4617 C4616 1.377 . S
C4617 C4623 1.390 . S
C4618 H4609 0.930 . S
C4618 C4616 1.384 . S
C4618 C4619 1.372 . S
C4619 C4618 1.372 . S
C4619 C4620 1.400 . S
C4619 C4624 1.490 . S
C4620 H4610 0.932 1_455 S
C4620 C4619 1.400 . S
C4620 C4623 1.386 . S
H4621 C4637 0.930 . S
H4622 C4638 0.931 . S
C4623 H4611 0.929 . S
C4623 C4617 1.390 . S
C4623 C4620 1.386 . S
C4624 C4619 1.490 . S
C4624 C4626 1.395 1_455 S
C4624 C4627 1.403 . S
H4625 C4631 0.930 . S
C4626 H4612 0.930 . S
C4626 C4624 1.395 1_655 S
C4626 C4629 1.403 . S
C4627 C4624 1.403 . S
C4627 C4628 1.524 . S
C4627 C4631 1.400 . S
C4628 H4613 0.960 . S
C4628 H4614 0.960 . S
C4628 H4615 0.960 . S
C4628 C4627 1.524 . S
C4629 C4626 1.403 . S
C4629 C4630 1.392 . S
C4629 C4633 1.495 . S
C4630 C4629 1.392 . S
C4630 C4631 1.385 1_655 S
C4630 C4632 1.478 . S
C4631 H4625 0.930 . S
C4631 C4627 1.400 . S
C4631 C4630 1.385 1_455 S
C4632 C4630 1.478 . S
C4632 C4634 1.381 . S
C4632 C4638 1.383 . S
C4633 C4629 1.495 . S
C4633 H4639 0.959 . S
C4633 H4640 0.961 . S
C4633 H4641 0.960 . S
C4634 C4632 1.381 . S
C4634 C4635 1.394 . S
C4634 H4642 0.930 . S
C4635 C4634 1.394 . S
C4635 C4636 1.383 . S
C4635 H4643 0.929 . S
C4636 C4635 1.383 . S
C4636 C4637 1.377 . S
C4637 H4621 0.930 . S
C4637 C4636 1.377 . S
C4637 C4638 1.379 . S
C4638 H4622 0.931 . S
C4638 C4632 1.383 . S
C4638 C4637 1.379 . S
H4639 C4633 0.959 . S
H4640 C4633 0.961 . S
H4641 C4633 0.960 . S
H4642 C4634 0.930 . S
H4643 C4635 0.929 . S
H4644 C4652 0.929 . S
H4645 C4654 0.930 . S
H4646 C4656 0.930 . S
H4647 C4659 0.929 . S
H4648 C4662 0.930 . S
H4649 C4664 0.960 . S
H4650 C4664 0.960 . S
H4651 C4664 0.960 . S
C4652 H4644 0.929 . S
C4652 C4653 1.377 . S
C4652 C4654 1.384 . S
C4653 C4652 1.377 . S
C4653 C4659 1.390 . S
C4654 H4645 0.930 . S
C4654 C4652 1.384 . S
C4654 C4655 1.372 . S
C4655 C4654 1.372 . S
C4655 C4656 1.400 . S
C4655 C4660 1.490 . S
C4656 H4646 0.930 . S
C4656 C4655 1.400 . S
C4656 C4659 1.386 . S
H4657 C4673 0.930 . S
H4658 C4674 0.931 . S
C4659 H4647 0.929 . S
C4659 C4653 1.390 . S
C4659 C4656 1.386 . S
C4660 C4655 1.490 . S
C4660 C4662 1.395 . S
C4660 C4663 1.403 . S
H4661 C4667 0.930 . S
C4662 H4648 0.930 . S
C4662 C4660 1.395 . S
C4662 C4665 1.403 . S
C4663 C4660 1.403 . S
C4663 C4664 1.524 . S
C4663 C4667 1.400 . S
C4664 H4649 0.960 . S
C4664 H4650 0.960 . S
C4664 H4651 0.960 . S
C4664 C4663 1.524 . S
C4665 C4662 1.403 . S
C4665 C4666 1.392 . S
C4665 C4669 1.495 . S
C4666 C4665 1.392 . S
C4666 C4667 1.385 . S
C4666 C4668 1.478 . S
C4667 H4661 0.930 . S
C4667 C4663 1.400 . S
C4667 C4666 1.385 . S
C4668 C4666 1.478 . S
C4668 C4670 1.381 . S
C4668 C4674 1.383 . S
C4669 C4665 1.495 . S
C4669 H4675 0.959 . S
C4669 H4676 0.961 . S
C4669 H4677 0.960 . S
C4670 C4668 1.381 . S
C4670 C4671 1.394 . S
C4670 H4678 0.930 . S
C4671 C4670 1.394 . S
C4671 C4672 1.383 . S
C4671 H4679 0.929 . S
C4672 C4671 1.383 . S
C4672 C4673 1.377 . S
C4673 H4657 0.930 . S
C4673 C4672 1.377 . S
C4673 C4674 1.379 . S
C4674 H4658 0.931 . S
C4674 C4668 1.383 . S
C4674 C4673 1.379 . S
H4675 C4669 0.959 . S
H4676 C4669 0.961 . S
H4677 C4669 0.960 . S
H4678 C4670 0.930 . S
H4679 C4671 0.929 . S
H4680 C4688 0.929 . S
H4681 C4690 0.930 . S
H4682 C4692 0.930 . S
H4683 C4695 0.929 . S
H4684 C4698 0.930 . S
H4685 C4700 0.960 . S
H4686 C4700 0.960 . S
H4687 C4700 0.960 . S
C4688 H4680 0.929 . S
C4688 C4689 1.377 . S
C4688 C4690 1.384 . S
C4689 C4688 1.377 . S
C4689 C4695 1.390 . S
C4690 H4681 0.930 . S
C4690 C4688 1.384 . S
C4690 C4691 1.372 . S
C4691 C4690 1.372 . S
C4691 C4692 1.400 . S
C4691 C4696 1.490 . S
C4692 H4682 0.930 . S
C4692 C4691 1.400 . S
C4692 C4695 1.386 . S
H4693 C4709 0.930 . S
H4694 C4710 0.931 . S
C4695 H4683 0.929 . S
C4695 C4689 1.390 . S
C4695 C4692 1.386 . S
C4696 C4691 1.490 . S
C4696 C4698 1.395 . S
C4696 C4699 1.403 . S
H4697 C4703 0.930 . S
C4698 H4684 0.930 . S
C4698 C4696 1.395 . S
C4698 C4701 1.403 1_655 S
C4699 C4696 1.403 . S
C4699 C4700 1.524 . S
C4699 C4703 1.400 1_655 S
C4700 H4685 0.960 . S
C4700 H4686 0.960 . S
C4700 H4687 0.960 . S
C4700 C4699 1.524 . S
C4701 C4698 1.403 1_455 S
C4701 C4702 1.392 . S
C4701 C4705 1.495 . S
C4702 C4701 1.392 . S
C4702 C4703 1.385 . S
C4702 C4704 1.478 . S
C4703 H4697 0.930 . S
C4703 C4699 1.400 1_455 S
C4703 C4702 1.385 . S
C4704 C4702 1.478 . S
C4704 C4706 1.381 . S
C4704 C4710 1.383 . S
C4705 C4701 1.495 . S
C4705 H4711 0.959 . S
C4705 H4712 0.961 . S
C4705 H4713 0.960 . S
C4706 C4704 1.381 . S
C4706 C4707 1.394 . S
C4706 H4714 0.930 1_455 S
C4707 C4706 1.394 . S
C4707 C4708 1.383 . S
C4707 H4715 0.929 . S
C4708 C4707 1.383 . S
C4708 C4709 1.377 . S
C4709 H4693 0.930 . S
C4709 C4708 1.377 . S
C4709 C4710 1.379 . S
C4710 H4694 0.931 . S
C4710 C4704 1.383 . S
C4710 C4709 1.379 . S
H4711 C4705 0.959 . S
H4712 C4705 0.961 . S
H4713 C4705 0.960 . S
H4714 C4706 0.930 1_655 S
H4715 C4707 0.929 . S
H4716 C4724 0.929 . S
H4717 C4726 0.930 . S
H4718 C4728 0.930 . S
H4719 C4731 0.929 . S
H4720 C4734 0.930 . S
H4721 C4736 0.960 . S
H4722 C4736 0.960 . S
H4723 C4736 0.960 . S
C4724 H4716 0.929 . S
C4724 C4725 1.377 . S
C4724 C4726 1.384 . S
C4725 C4724 1.377 . S
C4725 C4731 1.390 . S
C4726 H4717 0.930 . S
C4726 C4724 1.384 . S
C4726 C4727 1.372 . S
C4727 C4726 1.372 . S
C4727 C4728 1.400 . S
C4727 C4732 1.490 . S
C4728 H4718 0.930 . S
C4728 C4727 1.400 . S
C4728 C4731 1.386 . S
H4729 C4745 0.930 . S
H4730 C4746 0.931 . S
C4731 H4719 0.929 . S
C4731 C4725 1.390 . S
C4731 C4728 1.386 . S
C4732 C4727 1.490 . S
C4732 C4734 1.395 . S
C4732 C4735 1.403 . S
H4733 C4739 0.930 . S
C4734 H4720 0.930 . S
C4734 C4732 1.395 . S
C4734 C4737 1.403 . S
C4735 C4732 1.403 . S
C4735 C4736 1.524 . S
C4735 C4739 1.400 . S
C4736 H4721 0.960 . S
C4736 H4722 0.960 . S
C4736 H4723 0.960 . S
C4736 C4735 1.524 . S
C4737 C4734 1.403 . S
C4737 C4738 1.392 . S
C4737 C4741 1.495 . S
C4738 C4737 1.392 . S
C4738 C4739 1.385 . S
C4738 C4740 1.478 . S
C4739 H4733 0.930 . S
C4739 C4735 1.400 . S
C4739 C4738 1.385 . S
C4740 C4738 1.478 . S
C4740 C4742 1.381 . S
C4740 C4746 1.383 . S
C4741 C4737 1.495 . S
C4741 H4747 0.959 . S
C4741 H4748 0.961 . S
C4741 H4749 0.960 . S
C4742 C4740 1.381 . S
C4742 C4743 1.394 . S
C4742 H4750 0.930 . S
C4743 C4742 1.394 . S
C4743 C4744 1.383 . S
C4743 H4751 0.929 . S
C4744 C4743 1.383 . S
C4744 C4745 1.377 . S
C4745 H4729 0.930 . S
C4745 C4744 1.377 . S
C4745 C4746 1.379 . S
C4746 H4730 0.931 . S
C4746 C4740 1.383 . S
C4746 C4745 1.379 . S
H4747 C4741 0.959 . S
H4748 C4741 0.961 . S
H4749 C4741 0.960 . S
H4750 C4742 0.930 . S
H4751 C4743 0.929 . S
H4752 C4760 0.929 . S
H4753 C4762 0.930 . S
H4754 C4764 0.930 1_565 S
H4755 C4767 0.929 . S
H4756 C4770 0.930 . S
H4757 C4772 0.960 . S
H4758 C4772 0.960 . S
H4759 C4772 0.960 . S
C4760 H4752 0.929 . S
C4760 C4761 1.377 . S
C4760 C4762 1.384 . S
C4761 C4760 1.377 . S
C4761 C4767 1.390 . S
C4762 H4753 0.930 . S
C4762 C4760 1.384 . S
C4762 C4763 1.372 . S
C4763 C4762 1.372 . S
C4763 C4764 1.400 . S
C4763 C4768 1.490 . S
C4764 H4754 0.930 1_545 S
C4764 C4763 1.400 . S
C4764 C4767 1.386 . S
H4765 C4781 0.930 . S
H4766 C4782 0.931 . S
C4767 H4755 0.929 . S
C4767 C4761 1.390 . S
C4767 C4764 1.386 . S
C4768 C4763 1.490 . S
C4768 C4770 1.395 . S
C4768 C4771 1.403 1_545 S
H4769 C4775 0.930 . S
C4770 H4756 0.930 . S
C4770 C4768 1.395 . S
C4770 C4773 1.403 . S
C4771 C4768 1.403 1_565 S
C4771 C4772 1.524 . S
C4771 C4775 1.400 . S
C4772 H4757 0.960 . S
C4772 H4758 0.960 . S
C4772 H4759 0.960 . S
C4772 C4771 1.524 . S
C4773 C4770 1.403 . S
C4773 C4774 1.392 1_545 S
C4773 C4777 1.495 . S
C4774 C4773 1.392 1_565 S
C4774 C4775 1.385 . S
C4774 C4776 1.478 . S
C4775 H4769 0.930 . S
C4775 C4771 1.400 . S
C4775 C4774 1.385 . S
C4776 C4774 1.478 . S
C4776 C4778 1.381 . S
C4776 C4782 1.383 . S
C4777 C4773 1.495 . S
C4777 H4783 0.959 . S
C4777 H4784 0.961 . S
C4777 H4785 0.960 . S
C4778 C4776 1.381 . S
C4778 C4779 1.394 . S
C4778 H4786 0.930 1_565 S
C4779 C4778 1.394 . S
C4779 C4780 1.383 . S
C4779 H4787 0.929 . S
C4780 C4779 1.383 . S
C4780 C4781 1.377 . S
C4781 H4765 0.930 . S
C4781 C4780 1.377 . S
C4781 C4782 1.379 . S
C4782 H4766 0.931 . S
C4782 C4776 1.383 . S
C4782 C4781 1.379 . S
H4783 C4777 0.959 . S
H4784 C4777 0.961 . S
H4785 C4777 0.960 . S
H4786 C4778 0.930 1_545 S
H4787 C4779 0.929 . S
H4788 C4796 0.929 . S
H4789 C4798 0.930 . S
H4790 C4800 0.930 1_455 S
H4791 C4803 0.929 . S
H4792 C4806 0.930 . S
H4793 C4808 0.960 1_455 S
H4794 C4808 0.960 . S
H4795 C4808 0.960 1_455 S
C4796 H4788 0.929 . S
C4796 C4797 1.377 . S
C4796 C4798 1.384 . S
C4797 C4796 1.377 . S
C4797 C4803 1.390 . S
C4798 H4789 0.930 . S
C4798 C4796 1.384 . S
C4798 C4799 1.372 . S
C4799 C4798 1.372 . S
C4799 C4800 1.400 . S
C4799 C4804 1.490 . S
C4800 H4790 0.930 1_655 S
C4800 C4799 1.400 . S
C4800 C4803 1.386 . S
H4801 C4817 0.930 . S
H4802 C4818 0.931 . S
C4803 H4791 0.929 . S
C4803 C4797 1.390 . S
C4803 C4800 1.386 . S
C4804 C4799 1.490 . S
C4804 C4806 1.395 . S
C4804 C4807 1.403 . S
H4805 C4811 0.930 . S
C4806 H4792 0.930 . S
C4806 C4804 1.395 . S
C4806 C4809 1.418 . S
C4807 C4804 1.403 . S
C4807 C4808 1.524 . S
C4807 C4811 1.400 1_655 S
C4808 H4793 0.960 1_655 S
C4808 H4794 0.960 . S
C4808 H4795 0.960 1_655 S
C4808 C4807 1.524 . S
C4809 C4806 1.418 . S
C4809 C4810 1.361 1_655 S
C4809 C4813 1.505 . S
C4810 C4809 1.361 1_455 S
C4810 C4811 1.385 . S
C4810 C4812 1.478 . S
C4811 H4805 0.930 . S
C4811 C4807 1.400 1_455 S
C4811 C4810 1.385 . S
C4812 C4810 1.478 . S
C4812 C4814 1.381 . S
C4812 C4818 1.383 . S
C4813 C4809 1.505 . S
C4813 H4819 0.973 . S
C4813 H4820 0.949 1_655 S
C4813 H4821 0.966 . S
C4814 C4812 1.381 . S
C4814 C4815 1.394 . S
C4814 H4822 0.930 1_455 S
C4815 C4814 1.394 . S
C4815 C4816 1.383 . S
C4815 H4823 0.929 . S
C4816 C4815 1.383 . S
C4816 C4817 1.377 . S
C4817 H4801 0.930 . S
C4817 C4816 1.377 . S
C4817 C4818 1.379 . S
C4818 H4802 0.931 . S
C4818 C4812 1.383 . S
C4818 C4817 1.379 . S
H4819 C4813 0.973 . S
H4820 C4813 0.949 1_455 S
H4821 C4813 0.966 . S
H4822 C4814 0.930 1_655 S
H4823 C4815 0.929 . S
H4824 C4832 0.929 . S
H4825 C4834 0.930 . S
H4826 C4836 0.930 . S
H4827 C4839 0.929 . S
H4828 C4842 0.930 . S
H4829 C4844 0.960 . S
H4830 C4844 0.960 . S
H4831 C4844 0.960 . S
C4832 H4824 0.929 . S
C4832 C4833 1.377 . S
C4832 C4834 1.384 . S
C4833 C4832 1.377 . S
C4833 C4839 1.390 . S
C4834 H4825 0.930 . S
C4834 C4832 1.384 . S
C4834 C4835 1.372 . S
C4835 C4834 1.372 . S
C4835 C4836 1.400 . S
C4835 C4840 1.490 . S
C4836 H4826 0.930 . S
C4836 C4835 1.400 . S
C4836 C4839 1.386 . S
H4837 C4853 0.930 . S
H4838 C4854 0.931 . S
C4839 H4827 0.929 . S
C4839 C4833 1.390 . S
C4839 C4836 1.386 . S
C4840 C4835 1.490 . S
C4840 C4842 1.395 . S
C4840 C4843 1.403 . S
H4841 C4847 0.930 . S
C4842 H4828 0.930 . S
C4842 C4840 1.395 . S
C4842 C4845 1.403 . S
C4843 C4840 1.403 . S
C4843 C4844 1.524 . S
C4843 C4847 1.400 . S
C4844 H4829 0.960 . S
C4844 H4830 0.960 . S
C4844 H4831 0.960 . S
C4844 C4843 1.524 . S
C4845 C4842 1.403 . S
C4845 C4846 1.392 . S
C4845 C4849 1.495 . S
C4846 C4845 1.392 . S
C4846 C4847 1.385 . S
C4846 C4848 1.478 . S
C4847 H4841 0.930 . S
C4847 C4843 1.400 . S
C4847 C4846 1.385 . S
C4848 C4846 1.478 . S
C4848 C4850 1.381 . S
C4848 C4854 1.383 . S
C4849 C4845 1.495 . S
C4849 H4855 0.959 . S
C4849 H4856 0.961 . S
C4849 H4857 0.960 . S
C4850 C4848 1.381 . S
C4850 C4851 1.394 . S
C4850 H4858 0.930 . S
C4851 C4850 1.394 . S
C4851 C4852 1.383 . S
C4851 H4859 0.929 . S
C4852 C4851 1.383 . S
C4852 C4853 1.377 . S
C4853 H4837 0.930 . S
C4853 C4852 1.377 . S
C4853 C4854 1.379 . S
C4854 H4838 0.931 . S
C4854 C4848 1.383 . S
C4854 C4853 1.379 . S
H4855 C4849 0.959 . S
H4856 C4849 0.961 . S
H4857 C4849 0.960 . S
H4858 C4850 0.930 . S
H4859 C4851 0.929 . S
H4860 C4868 0.929 . S
H4861 C4870 0.930 1_565 S
H4862 C4872 0.930 . S
H4863 C4875 0.929 . S
H4864 C4878 0.937 . S
H4865 C4880 0.960 . S
H4866 C4880 0.960 . S
H4867 C4880 0.960 . S
C4868 H4860 0.929 . S
C4868 C4869 1.377 . S
C4868 C4870 1.384 . S
C4869 C4868 1.377 . S
C4869 C4875 1.390 . S
C4870 H4861 0.930 1_545 S
C4870 C4868 1.384 . S
C4870 C4871 1.372 . S
C4871 C4870 1.372 . S
C4871 C4872 1.400 . S
C4871 C4876 1.490 . S
C4872 H4862 0.930 . S
C4872 C4871 1.400 . S
C4872 C4875 1.386 . S
H4873 C4889 0.930 . S
H4874 C4890 0.931 1_545 S
C4875 H4863 0.929 . S
C4875 C4869 1.390 . S
C4875 C4872 1.386 . S
C4876 C4871 1.490 . S
C4876 C4878 1.395 1_545 S
C4876 C4879 1.403 . S
H4877 C4883 0.930 . S
C4878 H4864 0.937 . S
C4878 C4876 1.395 1_565 S
C4878 C4881 1.403 . S
C4879 C4876 1.403 . S
C4879 C4880 1.524 . S
C4879 C4883 1.400 1_545 S
C4880 H4865 0.960 . S
C4880 H4866 0.960 . S
C4880 H4867 0.960 . S
C4880 C4879 1.524 . S
C4881 C4878 1.403 . S
C4881 C4882 1.392 . S
C4881 C4885 1.495 . S
C4882 C4881 1.392 . S
C4882 C4883 1.385 . S
C4882 C4884 1.478 . S
C4883 H4877 0.930 . S
C4883 C4879 1.400 1_565 S
C4883 C4882 1.385 . S
C4884 C4882 1.478 . S
C4884 C4886 1.381 . S
C4884 C4890 1.383 . S
C4885 C4881 1.495 . S
C4885 H4891 0.959 . S
C4885 H4892 0.961 . S
C4885 H4893 0.960 . S
C4886 C4884 1.381 . S
C4886 C4887 1.394 . S
C4886 H4894 0.930 . S
C4887 C4886 1.394 . S
C4887 C4888 1.383 . S
C4887 H4895 0.929 . S
C4888 C4887 1.383 . S
C4888 C4889 1.377 . S
C4889 H4873 0.930 . S
C4889 C4888 1.377 . S
C4889 C4890 1.379 . S
C4890 H4874 0.931 1_565 S
C4890 C4884 1.383 . S
C4890 C4889 1.379 . S
H4891 C4885 0.959 . S
H4892 C4885 0.961 . S
H4893 C4885 0.960 . S
H4894 C4886 0.930 . S
H4895 C4887 0.929 . S
H4896 C4904 0.929 . S
H4897 C4906 0.930 . S
H4898 C4908 0.930 . S
H4899 C4911 0.929 . S
H4900 C4914 0.930 . S
H4901 C4916 0.960 . S
H4902 C4916 0.960 . S
H4903 C4916 0.960 . S
C4904 H4896 0.929 . S
C4904 C4905 1.377 . S
C4904 C4906 1.384 . S
C4905 C4904 1.377 . S
C4905 C4911 1.390 . S
C4906 H4897 0.930 . S
C4906 C4904 1.384 . S
C4906 C4907 1.372 . S
C4907 C4906 1.372 . S
C4907 C4908 1.400 . S
C4907 C4912 1.490 . S
C4908 H4898 0.930 . S
C4908 C4907 1.400 . S
C4908 C4911 1.386 . S
H4909 C4925 0.930 . S
H4910 C4926 0.931 . S
C4911 H4899 0.929 . S
C4911 C4905 1.390 . S
C4911 C4908 1.386 . S
C4912 C4907 1.490 . S
C4912 C4914 1.395 . S
C4912 C4915 1.403 . S
H4913 C4919 0.930 . S
C4914 H4900 0.930 . S
C4914 C4912 1.395 . S
C4914 C4917 1.403 . S
C4915 C4912 1.403 . S
C4915 C4916 1.524 . S
C4915 C4919 1.400 . S
C4916 H4901 0.960 . S
C4916 H4902 0.960 . S
C4916 H4903 0.960 . S
C4916 C4915 1.524 . S
C4917 C4914 1.403 . S
C4917 C4918 1.392 . S
C4917 C4921 1.495 . S
C4918 C4917 1.392 . S
C4918 C4919 1.385 . S
C4918 C4920 1.478 . S
C4919 H4913 0.930 . S
C4919 C4915 1.400 . S
C4919 C4918 1.385 . S
C4920 C4918 1.478 . S
C4920 C4922 1.381 . S
C4920 C4926 1.383 . S
C4921 C4917 1.495 . S
C4921 H4927 0.959 . S
C4921 H4928 0.961 . S
C4921 H4929 0.960 . S
C4922 C4920 1.381 . S
C4922 C4923 1.394 . S
C4922 H4930 0.930 . S
C4923 C4922 1.394 . S
C4923 C4924 1.383 . S
C4923 H4931 0.929 . S
C4924 C4923 1.383 . S
C4924 C4925 1.377 . S
C4925 H4909 0.930 . S
C4925 C4924 1.377 . S
C4925 C4926 1.379 . S
C4926 H4910 0.931 . S
C4926 C4920 1.383 . S
C4926 C4925 1.379 . S
H4927 C4921 0.959 . S
H4928 C4921 0.961 . S
H4929 C4921 0.960 . S
H4930 C4922 0.930 . S
H4931 C4923 0.929 . S
H4932 C4940 0.929 . S
H4933 C4942 0.930 . S
H4934 C4944 0.930 . S
H4935 C4947 0.929 . S
H4936 C4950 0.930 . S
H4937 C4952 0.960 . S
H4938 C4952 0.960 . S
H4939 C4952 0.960 . S
C4940 H4932 0.929 . S
C4940 C4941 1.377 . S
C4940 C4942 1.384 . S
C4941 C4940 1.377 . S
C4941 C4947 1.390 . S
C4942 H4933 0.930 . S
C4942 C4940 1.384 . S
C4942 C4943 1.372 . S
C4943 C4942 1.372 . S
C4943 C4944 1.400 . S
C4943 C4948 1.490 . S
C4944 H4934 0.930 . S
C4944 C4943 1.400 . S
C4944 C4947 1.386 . S
H4945 C4961 0.930 . S
H4946 C4962 0.931 . S
C4947 H4935 0.929 . S
C4947 C4941 1.390 . S
C4947 C4944 1.386 . S
C4948 C4943 1.490 . S
C4948 C4950 1.395 . S
C4948 C4951 1.403 . S
H4949 C4955 0.930 . S
C4950 H4936 0.930 . S
C4950 C4948 1.395 . S
C4950 C4953 1.403 . S
C4951 C4948 1.403 . S
C4951 C4952 1.524 . S
C4951 C4955 1.400 . S
C4952 H4937 0.960 . S
C4952 H4938 0.960 . S
C4952 H4939 0.960 . S
C4952 C4951 1.524 . S
C4953 C4950 1.403 . S
C4953 C4954 1.392 . S
C4953 C4957 1.495 . S
C4954 C4953 1.392 . S
C4954 C4955 1.385 . S
C4954 C4956 1.478 . S
C4955 H4949 0.930 . S
C4955 C4951 1.400 . S
C4955 C4954 1.385 . S
C4956 C4954 1.478 . S
C4956 C4958 1.381 . S
C4956 C4962 1.383 . S
C4957 C4953 1.495 . S
C4957 H4963 0.959 . S
C4957 H4964 0.961 . S
C4957 H4965 0.960 . S
C4958 C4956 1.381 . S
C4958 C4959 1.394 . S
C4958 H4966 0.930 . S
C4959 C4958 1.394 . S
C4959 C4960 1.383 . S
C4959 H4967 0.929 . S
C4960 C4959 1.383 . S
C4960 C4961 1.377 . S
C4961 H4945 0.930 . S
C4961 C4960 1.377 . S
C4961 C4962 1.379 . S
C4962 H4946 0.931 . S
C4962 C4956 1.383 . S
C4962 C4961 1.379 . S
H4963 C4957 0.959 . S
H4964 C4957 0.961 . S
H4965 C4957 0.960 . S
H4966 C4958 0.930 . S
H4967 C4959 0.929 . S
H4968 C4976 0.929 . S
H4969 C4978 0.930 . S
H4970 C4980 0.930 . S
H4971 C4983 0.929 . S
H4972 C4986 0.930 . S
H4973 C4988 0.960 . S
H4974 C4988 0.960 . S
H4975 C4988 0.960 . S
C4976 H4968 0.929 . S
C4976 C4977 1.377 . S
C4976 C4978 1.384 . S
C4977 C4976 1.377 . S
C4977 C4983 1.390 . S
C4978 H4969 0.930 . S
C4978 C4976 1.384 . S
C4978 C4979 1.372 . S
C4979 C4978 1.372 . S
C4979 C4980 1.400 . S
C4979 C4984 1.490 . S
C4980 H4970 0.930 . S
C4980 C4979 1.400 . S
C4980 C4983 1.386 . S
H4981 C4997 0.930 . S
H4982 C4998 0.931 . S
C4983 H4971 0.929 . S
C4983 C4977 1.390 . S
C4983 C4980 1.386 . S
C4984 C4979 1.490 . S
C4984 C4986 1.395 . S
C4984 C4987 1.403 . S
H4985 C4991 0.930 . S
C4986 H4972 0.930 . S
C4986 C4984 1.395 . S
C4986 C4989 1.403 . S
C4987 C4984 1.403 . S
C4987 C4988 1.524 . S
C4987 C4991 1.400 . S
C4988 H4973 0.960 . S
C4988 H4974 0.960 . S
C4988 H4975 0.960 . S
C4988 C4987 1.524 . S
C4989 C4986 1.403 . S
C4989 C4990 1.392 . S
C4989 C4993 1.495 . S
C4990 C4989 1.392 . S
C4990 C4991 1.385 . S
C4990 C4992 1.478 . S
C4991 H4985 0.930 . S
C4991 C4987 1.400 . S
C4991 C4990 1.385 . S
C4992 C4990 1.478 . S
C4992 C4994 1.381 . S
C4992 C4998 1.383 . S
C4993 C4989 1.495 . S
C4993 H4999 0.959 . S
C4993 H5000 0.961 . S
C4993 H5001 0.960 . S
C4994 C4992 1.381 . S
C4994 C4995 1.394 . S
C4994 H5002 0.930 . S
C4995 C4994 1.394 . S
C4995 C4996 1.383 . S
C4995 H5003 0.929 . S
C4996 C4995 1.383 . S
C4996 C4997 1.377 . S
C4997 H4981 0.930 . S
C4997 C4996 1.377 . S
C4997 C4998 1.379 . S
C4998 H4982 0.931 . S
C4998 C4992 1.383 . S
C4998 C4997 1.379 . S
H4999 C4993 0.959 . S
H5000 C4993 0.961 . S
H5001 C4993 0.960 . S
H5002 C4994 0.930 . S
H5003 C4995 0.929 . S
H5004 C5012 0.929 . S
H5005 C5014 0.930 . S
H5006 C5016 0.930 . S
H5007 C5019 0.929 . S
H5008 C5022 0.930 . S
H5009 C5024 0.960 . S
H5010 C5024 0.960 . S
H5011 C5024 0.960 . S
C5012 H5004 0.929 . S
C5012 C5013 1.377 . S
C5012 C5014 1.384 . S
C5013 C5012 1.377 . S
C5013 C5019 1.390 . S
C5014 H5005 0.930 . S
C5014 C5012 1.384 . S
C5014 C5015 1.372 . S
C5015 C5014 1.372 . S
C5015 C5016 1.400 . S
C5015 C5020 1.490 . S
C5016 H5006 0.930 . S
C5016 C5015 1.400 . S
C5016 C5019 1.386 . S
H5017 C5033 0.930 . S
H5018 C5034 0.931 . S
C5019 H5007 0.929 . S
C5019 C5013 1.390 . S
C5019 C5016 1.386 . S
C5020 C5015 1.490 . S
C5020 C5022 1.395 . S
C5020 C5023 1.403 . S
H5021 C5027 0.930 . S
C5022 H5008 0.930 . S
C5022 C5020 1.395 . S
C5022 C5025 1.403 . S
C5023 C5020 1.403 . S
C5023 C5024 1.524 . S
C5023 C5027 1.400 . S
C5024 H5009 0.960 . S
C5024 H5010 0.960 . S
C5024 H5011 0.960 . S
C5024 C5023 1.524 . S
C5025 C5022 1.403 . S
C5025 C5026 1.392 . S
C5025 C5029 1.495 . S
C5026 C5025 1.392 . S
C5026 C5027 1.385 . S
C5026 C5028 1.478 . S
C5027 H5021 0.930 . S
C5027 C5023 1.400 . S
C5027 C5026 1.385 . S
C5028 C5026 1.478 . S
C5028 C5030 1.381 . S
C5028 C5034 1.383 . S
C5029 C5025 1.495 . S
C5029 H5035 0.959 . S
C5029 H5036 0.961 . S
C5029 H5037 0.960 . S
C5030 C5028 1.381 . S
C5030 C5031 1.394 . S
C5030 H5038 0.930 . S
C5031 C5030 1.394 . S
C5031 C5032 1.383 . S
C5031 H5039 0.929 . S
C5032 C5031 1.383 . S
C5032 C5033 1.377 . S
C5033 H5017 0.930 . S
C5033 C5032 1.377 . S
C5033 C5034 1.379 . S
C5034 H5018 0.931 . S
C5034 C5028 1.383 . S
C5034 C5033 1.379 . S
H5035 C5029 0.959 . S
H5036 C5029 0.961 . S
H5037 C5029 0.960 . S
H5038 C5030 0.930 . S
H5039 C5031 0.929 . S
H5040 C5048 0.929 . S
H5041 C5050 0.930 . S
H5042 C5052 0.930 . S
H5043 C5055 0.929 . S
H5044 C5058 0.930 . S
H5045 C5060 0.960 . S
H5046 C5060 0.960 . S
H5047 C5060 0.960 . S
C5048 H5040 0.929 . S
C5048 C5049 1.377 . S
C5048 C5050 1.384 . S
C5049 C5048 1.377 . S
C5049 C5055 1.390 . S
C5050 H5041 0.930 . S
C5050 C5048 1.384 . S
C5050 C5051 1.372 . S
C5051 C5050 1.372 . S
C5051 C5052 1.400 . S
C5051 C5056 1.490 . S
C5052 H5042 0.930 . S
C5052 C5051 1.400 . S
C5052 C5055 1.386 . S
H5053 C5069 0.930 . S
H5054 C5070 0.931 . S
C5055 H5043 0.929 . S
C5055 C5049 1.390 . S
C5055 C5052 1.386 . S
C5056 C5051 1.490 . S
C5056 C5058 1.395 . S
C5056 C5059 1.403 . S
H5057 C5063 0.930 . S
C5058 H5044 0.930 . S
C5058 C5056 1.395 . S
C5058 C5061 1.403 . S
C5059 C5056 1.403 . S
C5059 C5060 1.524 . S
C5059 C5063 1.400 . S
C5060 H5045 0.960 . S
C5060 H5046 0.960 . S
C5060 H5047 0.960 . S
C5060 C5059 1.524 . S
C5061 C5058 1.403 . S
C5061 C5062 1.392 . S
C5061 C5065 1.495 . S
C5062 C5061 1.392 . S
C5062 C5063 1.385 . S
C5062 C5064 1.478 . S
C5063 H5057 0.930 . S
C5063 C5059 1.400 . S
C5063 C5062 1.385 . S
C5064 C5062 1.478 . S
C5064 C5066 1.381 . S
C5064 C5070 1.383 . S
C5065 C5061 1.495 . S
C5065 H5071 0.959 . S
C5065 H5072 0.961 . S
C5065 H5073 0.960 . S
C5066 C5064 1.381 . S
C5066 C5067 1.394 . S
C5066 H5074 0.930 . S
C5067 C5066 1.394 . S
C5067 C5068 1.383 . S
C5067 H5075 0.929 . S
C5068 C5067 1.383 . S
C5068 C5069 1.377 . S
C5069 H5053 0.930 . S
C5069 C5068 1.377 . S
C5069 C5070 1.379 . S
C5070 H5054 0.931 . S
C5070 C5064 1.383 . S
C5070 C5069 1.379 . S
H5071 C5065 0.959 . S
H5072 C5065 0.961 . S
H5073 C5065 0.960 . S
H5074 C5066 0.930 . S
H5075 C5067 0.929 . S
H5076 C5084 0.929 . S
H5077 C5086 0.930 . S
H5078 C5088 0.930 . S
H5079 C5091 0.929 . S
H5080 C5094 0.930 . S
H5081 C5096 0.960 . S
H5082 C5096 0.960 . S
H5083 C5096 0.960 . S
C5084 H5076 0.929 . S
C5084 C5085 1.377 . S
C5084 C5086 1.384 . S
C5085 C5084 1.377 . S
C5085 C5091 1.390 . S
C5086 H5077 0.930 . S
C5086 C5084 1.384 . S
C5086 C5087 1.372 . S
C5087 C5086 1.372 . S
C5087 C5088 1.400 . S
C5087 C5092 1.490 . S
C5088 H5078 0.930 . S
C5088 C5087 1.400 . S
C5088 C5091 1.386 . S
H5089 C5105 0.930 . S
H5090 C5106 0.931 . S
C5091 H5079 0.929 . S
C5091 C5085 1.390 . S
C5091 C5088 1.386 . S
C5092 C5087 1.490 . S
C5092 C5094 1.395 . S
C5092 C5095 1.403 . S
H5093 C5099 0.930 . S
C5094 H5080 0.930 . S
C5094 C5092 1.395 . S
C5094 C5097 1.403 . S
C5095 C5092 1.403 . S
C5095 C5096 1.524 . S
C5095 C5099 1.400 . S
C5096 H5081 0.960 . S
C5096 H5082 0.960 . S
C5096 H5083 0.960 . S
C5096 C5095 1.524 . S
C5097 C5094 1.403 . S
C5097 C5098 1.392 . S
C5097 C5101 1.495 . S
C5098 C5097 1.392 . S
C5098 C5099 1.385 . S
C5098 C5100 1.478 . S
C5099 H5093 0.930 . S
C5099 C5095 1.400 . S
C5099 C5098 1.385 . S
C5100 C5098 1.478 . S
C5100 C5102 1.381 . S
C5100 C5106 1.383 . S
C5101 C5097 1.495 . S
C5101 H5107 0.959 . S
C5101 H5108 0.961 . S
C5101 H5109 0.960 . S
C5102 C5100 1.381 . S
C5102 C5103 1.394 . S
C5102 H5110 0.930 . S
C5103 C5102 1.394 . S
C5103 C5104 1.383 . S
C5103 H5111 0.929 . S
C5104 C5103 1.383 . S
C5104 C5105 1.377 . S
C5105 H5089 0.930 . S
C5105 C5104 1.377 . S
C5105 C5106 1.379 . S
C5106 H5090 0.931 . S
C5106 C5100 1.383 . S
C5106 C5105 1.379 . S
H5107 C5101 0.959 . S
H5108 C5101 0.961 . S
H5109 C5101 0.960 . S
H5110 C5102 0.930 . S
H5111 C5103 0.929 . S
H5112 C5120 0.929 . S
H5113 C5122 0.930 . S
H5114 C5124 0.930 . S
H5115 C5127 0.929 . S
H5116 C5130 0.930 . S
H5117 C5132 0.960 . S
H5118 C5132 0.960 . S
H5119 C5132 0.960 . S
C5120 H5112 0.929 . S
C5120 C5121 1.377 . S
C5120 C5122 1.384 . S
C5121 C5120 1.377 . S
C5121 C5127 1.390 . S
C5122 H5113 0.930 . S
C5122 C5120 1.384 . S
C5122 C5123 1.372 . S
C5123 C5122 1.372 . S
C5123 C5124 1.400 . S
C5123 C5128 1.490 . S
C5124 H5114 0.930 . S
C5124 C5123 1.400 . S
C5124 C5127 1.386 . S
H5125 C5141 0.930 . S
H5126 C5142 0.931 . S
C5127 H5115 0.929 . S
C5127 C5121 1.390 . S
C5127 C5124 1.386 . S
C5128 C5123 1.490 . S
C5128 C5130 1.395 . S
C5128 C5131 1.403 . S
H5129 C5135 0.930 . S
C5130 H5116 0.930 . S
C5130 C5128 1.395 . S
C5130 C5133 1.403 . S
C5131 C5128 1.403 . S
C5131 C5132 1.524 . S
C5131 C5135 1.400 . S
C5132 H5117 0.960 . S
C5132 H5118 0.960 . S
C5132 H5119 0.960 . S
C5132 C5131 1.524 . S
C5133 C5130 1.403 . S
C5133 C5134 1.392 . S
C5133 C5137 1.495 . S
C5134 C5133 1.392 . S
C5134 C5135 1.385 . S
C5134 C5136 1.478 . S
C5135 H5129 0.930 . S
C5135 C5131 1.400 . S
C5135 C5134 1.385 . S
C5136 C5134 1.478 . S
C5136 C5138 1.381 . S
C5136 C5142 1.383 . S
C5137 C5133 1.495 . S
C5137 H5143 0.959 . S
C5137 H5144 0.961 . S
C5137 H5145 0.960 . S
C5138 C5136 1.381 . S
C5138 C5139 1.394 . S
C5138 H5146 0.930 . S
C5139 C5138 1.394 . S
C5139 C5140 1.383 . S
C5139 H5147 0.929 . S
C5140 C5139 1.383 . S
C5140 C5141 1.377 . S
C5141 H5125 0.930 . S
C5141 C5140 1.377 . S
C5141 C5142 1.379 . S
C5142 H5126 0.931 . S
C5142 C5136 1.383 . S
C5142 C5141 1.379 . S
H5143 C5137 0.959 . S
H5144 C5137 0.961 . S
H5145 C5137 0.960 . S
H5146 C5138 0.930 . S
H5147 C5139 0.929 . S
H5148 C5156 0.929 . S
H5149 C5158 0.930 . S
H5150 C5160 0.930 . S
H5151 C5163 0.929 . S
H5152 C5166 0.930 . S
H5153 C5168 0.960 . S
H5154 C5168 0.960 . S
H5155 C5168 0.960 . S
C5156 H5148 0.929 . S
C5156 C5157 1.377 . S
C5156 C5158 1.384 . S
C5157 C5156 1.377 . S
C5157 C5163 1.390 . S
C5158 H5149 0.930 . S
C5158 C5156 1.384 . S
C5158 C5159 1.372 . S
C5159 C5158 1.372 . S
C5159 C5160 1.400 . S
C5159 C5164 1.490 . S
C5160 H5150 0.930 . S
C5160 C5159 1.400 . S
C5160 C5163 1.386 . S
H5161 C5177 0.930 . S
H5162 C5178 0.931 . S
C5163 H5151 0.929 . S
C5163 C5157 1.390 . S
C5163 C5160 1.386 . S
C5164 C5159 1.490 . S
C5164 C5166 1.395 . S
C5164 C5167 1.403 . S
H5165 C5171 0.930 . S
C5166 H5152 0.930 . S
C5166 C5164 1.395 . S
C5166 C5169 1.403 . S
C5167 C5164 1.403 . S
C5167 C5168 1.524 . S
C5167 C5171 1.400 . S
C5168 H5153 0.960 . S
C5168 H5154 0.960 . S
C5168 H5155 0.960 . S
C5168 C5167 1.524 . S
C5169 C5166 1.403 . S
C5169 C5170 1.392 . S
C5169 C5173 1.495 . S
C5170 C5169 1.392 . S
C5170 C5171 1.385 . S
C5170 C5172 1.478 . S
C5171 H5165 0.930 . S
C5171 C5167 1.400 . S
C5171 C5170 1.385 . S
C5172 C5170 1.478 . S
C5172 C5174 1.381 . S
C5172 C5178 1.383 . S
C5173 C5169 1.495 . S
C5173 H5179 0.959 . S
C5173 H5180 0.961 . S
C5173 H5181 0.960 . S
C5174 C5172 1.381 . S
C5174 C5175 1.394 . S
C5174 H5182 0.930 . S
C5175 C5174 1.394 . S
C5175 C5176 1.383 . S
C5175 H5183 0.929 . S
C5176 C5175 1.383 . S
C5176 C5177 1.377 . S
C5177 H5161 0.930 . S
C5177 C5176 1.377 . S
C5177 C5178 1.379 . S
C5178 H5162 0.931 . S
C5178 C5172 1.383 . S
C5178 C5177 1.379 . S
H5179 C5173 0.959 . S
H5180 C5173 0.961 . S
H5181 C5173 0.960 . S
H5182 C5174 0.930 . S
H5183 C5175 0.929 . S
H5184 C5192 0.929 . S
H5185 C5194 0.930 . S
H5186 C5196 0.930 . S
H5187 C5199 0.929 . S
H5188 C5202 0.930 . S
H5189 C5204 0.960 . S
H5190 C5204 0.960 . S
H5191 C5204 0.960 . S
C5192 H5184 0.929 . S
C5192 C5193 1.377 . S
C5192 C5194 1.384 . S
C5193 C5192 1.377 . S
C5193 C5199 1.390 . S
C5194 H5185 0.930 . S
C5194 C5192 1.384 . S
C5194 C5195 1.372 . S
C5195 C5194 1.372 . S
C5195 C5196 1.400 . S
C5195 C5200 1.490 . S
C5196 H5186 0.930 . S
C5196 C5195 1.400 . S
C5196 C5199 1.386 . S
H5197 C5213 0.930 . S
H5198 C5214 0.931 . S
C5199 H5187 0.929 . S
C5199 C5193 1.390 . S
C5199 C5196 1.386 . S
C5200 C5195 1.490 . S
C5200 C5202 1.395 . S
C5200 C5203 1.403 . S
H5201 C5207 0.930 . S
C5202 H5188 0.930 . S
C5202 C5200 1.395 . S
C5202 C5205 1.403 . S
C5203 C5200 1.403 . S
C5203 C5204 1.524 . S
C5203 C5207 1.400 . S
C5204 H5189 0.960 . S
C5204 H5190 0.960 . S
C5204 H5191 0.960 . S
C5204 C5203 1.524 . S
C5205 C5202 1.403 . S
C5205 C5206 1.392 . S
C5205 C5209 1.495 . S
C5206 C5205 1.392 . S
C5206 C5207 1.385 . S
C5206 C5208 1.478 . S
C5207 H5201 0.930 . S
C5207 C5203 1.400 . S
C5207 C5206 1.385 . S
C5208 C5206 1.478 . S
C5208 C5210 1.381 . S
C5208 C5214 1.383 . S
C5209 C5205 1.495 . S
C5209 H5215 0.959 . S
C5209 H5216 0.961 . S
C5209 H5217 0.960 . S
C5210 C5208 1.381 . S
C5210 C5211 1.394 . S
C5210 H5218 0.930 . S
C5211 C5210 1.394 . S
C5211 C5212 1.383 . S
C5211 H5219 0.929 . S
C5212 C5211 1.383 . S
C5212 C5213 1.377 . S
C5213 H5197 0.930 . S
C5213 C5212 1.377 . S
C5213 C5214 1.379 . S
C5214 H5198 0.931 . S
C5214 C5208 1.383 . S
C5214 C5213 1.379 . S
H5215 C5209 0.959 . S
H5216 C5209 0.961 . S
H5217 C5209 0.960 . S
H5218 C5210 0.930 . S
H5219 C5211 0.929 . S
H5220 C5228 0.929 . S
H5221 C5230 0.930 . S
H5222 C5232 0.930 . S
H5223 C5235 0.929 . S
H5224 C5238 0.930 . S
H5225 C5240 0.960 . S
H5226 C5240 0.960 . S
H5227 C5240 0.960 . S
C5228 H5220 0.929 . S
C5228 C5229 1.377 . S
C5228 C5230 1.384 . S
C5229 C5228 1.377 . S
C5229 C5235 1.390 . S
C5230 H5221 0.930 . S
C5230 C5228 1.384 . S
C5230 C5231 1.372 . S
C5231 C5230 1.372 . S
C5231 C5232 1.400 . S
C5231 C5236 1.490 . S
C5232 H5222 0.930 . S
C5232 C5231 1.400 . S
C5232 C5235 1.386 . S
H5233 C5249 0.930 . S
H5234 C5250 0.931 . S
C5235 H5223 0.929 . S
C5235 C5229 1.390 . S
C5235 C5232 1.386 . S
C5236 C5231 1.490 . S
C5236 C5238 1.395 . S
C5236 C5239 1.403 . S
H5237 C5243 0.930 . S
C5238 H5224 0.930 . S
C5238 C5236 1.395 . S
C5238 C5241 1.403 . S
C5239 C5236 1.403 . S
C5239 C5240 1.524 . S
C5239 C5243 1.400 . S
C5240 H5225 0.960 . S
C5240 H5226 0.960 . S
C5240 H5227 0.960 . S
C5240 C5239 1.524 . S
C5241 C5238 1.403 . S
C5241 C5242 1.392 . S
C5241 C5245 1.495 . S
C5242 C5241 1.392 . S
C5242 C5243 1.385 . S
C5242 C5244 1.478 . S
C5243 H5237 0.930 . S
C5243 C5239 1.400 . S
C5243 C5242 1.385 . S
C5244 C5242 1.478 . S
C5244 C5246 1.381 . S
C5244 C5250 1.383 . S
C5245 C5241 1.495 . S
C5245 H5251 0.959 . S
C5245 H5252 0.961 . S
C5245 H5253 0.960 . S
C5246 C5244 1.381 . S
C5246 C5247 1.394 . S
C5246 H5254 0.930 . S
C5247 C5246 1.394 . S
C5247 C5248 1.383 . S
C5247 H5255 0.929 . S
C5248 C5247 1.383 . S
C5248 C5249 1.377 . S
C5249 H5233 0.930 . S
C5249 C5248 1.377 . S
C5249 C5250 1.379 . S
C5250 H5234 0.931 . S
C5250 C5244 1.383 . S
C5250 C5249 1.379 . S
H5251 C5245 0.959 . S
H5252 C5245 0.961 . S
H5253 C5245 0.960 . S
H5254 C5246 0.930 . S
H5255 C5247 0.929 . S
H5256 C5264 0.929 . S
H5257 C5266 0.930 . S
H5258 C5268 0.930 . S
H5259 C5271 0.929 . S
H5260 C5274 0.930 . S
H5261 C5276 0.960 . S
H5262 C5276 0.960 . S
H5263 C5276 0.960 . S
C5264 H5256 0.929 . S
C5264 C5265 1.377 . S
C5264 C5266 1.384 . S
C5265 C5264 1.377 . S
C5265 C5271 1.390 . S
C5266 H5257 0.930 . S
C5266 C5264 1.384 . S
C5266 C5267 1.372 . S
C5267 C5266 1.372 . S
C5267 C5268 1.400 . S
C5267 C5272 1.490 . S
C5268 H5258 0.930 . S
C5268 C5267 1.400 . S
C5268 C5271 1.386 . S
H5269 C5285 0.930 . S
H5270 C5286 0.931 . S
C5271 H5259 0.929 . S
C5271 C5265 1.390 . S
C5271 C5268 1.386 . S
C5272 C5267 1.490 . S
C5272 C5274 1.395 . S
C5272 C5275 1.403 . S
H5273 C5279 0.930 . S
C5274 H5260 0.930 . S
C5274 C5272 1.395 . S
C5274 C5277 1.403 . S
C5275 C5272 1.403 . S
C5275 C5276 1.524 . S
C5275 C5279 1.400 . S
C5276 H5261 0.960 . S
C5276 H5262 0.960 . S
C5276 H5263 0.960 . S
C5276 C5275 1.524 . S
C5277 C5274 1.403 . S
C5277 C5278 1.392 . S
C5277 C5281 1.495 . S
C5278 C5277 1.392 . S
C5278 C5279 1.385 . S
C5278 C5280 1.478 . S
C5279 H5273 0.930 . S
C5279 C5275 1.400 . S
C5279 C5278 1.385 . S
C5280 C5278 1.478 . S
C5280 C5282 1.381 . S
C5280 C5286 1.383 . S
C5281 C5277 1.495 . S
C5281 H5287 0.959 . S
C5281 H5288 0.961 . S
C5281 H5289 0.960 . S
C5282 C5280 1.381 . S
C5282 C5283 1.394 . S
C5282 H5290 0.930 . S
C5283 C5282 1.394 . S
C5283 C5284 1.383 . S
C5283 H5291 0.929 . S
C5284 C5283 1.383 . S
C5284 C5285 1.377 . S
C5285 H5269 0.930 . S
C5285 C5284 1.377 . S
C5285 C5286 1.379 . S
C5286 H5270 0.931 . S
C5286 C5280 1.383 . S
C5286 C5285 1.379 . S
H5287 C5281 0.959 . S
H5288 C5281 0.961 . S
H5289 C5281 0.960 . S
H5290 C5282 0.930 . S
H5291 C5283 0.929 . S
H5292 C5300 0.929 . S
H5293 C5302 0.930 . S
H5294 C5304 0.930 . S
H5295 C5307 0.929 . S
H5296 C5310 0.930 . S
H5297 C5312 0.960 . S
H5298 C5312 0.960 . S
H5299 C5312 0.960 . S
C5300 H5292 0.929 . S
C5300 C5301 1.377 . S
C5300 C5302 1.384 . S
C5301 C5300 1.377 . S
C5301 C5307 1.390 . S
C5302 H5293 0.930 . S
C5302 C5300 1.384 . S
C5302 C5303 1.372 . S
C5303 C5302 1.372 . S
C5303 C5304 1.400 . S
C5303 C5308 1.490 . S
C5304 H5294 0.930 . S
C5304 C5303 1.400 . S
C5304 C5307 1.386 . S
H5305 C5321 0.930 . S
H5306 C5322 0.931 . S
C5307 H5295 0.929 . S
C5307 C5301 1.390 . S
C5307 C5304 1.386 . S
C5308 C5303 1.490 . S
C5308 C5310 1.395 . S
C5308 C5311 1.403 . S
H5309 C5315 0.930 . S
C5310 H5296 0.930 . S
C5310 C5308 1.395 . S
C5310 C5313 1.403 . S
C5311 C5308 1.403 . S
C5311 C5312 1.524 . S
C5311 C5315 1.400 . S
C5312 H5297 0.960 . S
C5312 H5298 0.960 . S
C5312 H5299 0.960 . S
C5312 C5311 1.524 . S
C5313 C5310 1.403 . S
C5313 C5314 1.392 . S
C5313 C5317 1.495 . S
C5314 C5313 1.392 . S
C5314 C5315 1.385 . S
C5314 C5316 1.478 . S
C5315 H5309 0.930 . S
C5315 C5311 1.400 . S
C5315 C5314 1.385 . S
C5316 C5314 1.478 . S
C5316 C5318 1.381 . S
C5316 C5322 1.383 . S
C5317 C5313 1.495 . S
C5317 H5323 0.959 . S
C5317 H5324 0.961 . S
C5317 H5325 0.960 . S
C5318 C5316 1.381 . S
C5318 C5319 1.394 . S
C5318 H5326 0.930 . S
C5319 C5318 1.394 . S
C5319 C5320 1.383 . S
C5319 H5327 0.929 . S
C5320 C5319 1.383 . S
C5320 C5321 1.377 . S
C5321 H5305 0.930 . S
C5321 C5320 1.377 . S
C5321 C5322 1.379 . S
C5322 H5306 0.931 . S
C5322 C5316 1.383 . S
C5322 C5321 1.379 . S
H5323 C5317 0.959 . S
H5324 C5317 0.961 . S
H5325 C5317 0.960 . S
H5326 C5318 0.930 . S
H5327 C5319 0.929 . S
C1449 C9 1.683 . S
C1468 C99 1.760 . S
C1485 C19 1.751 . S
C1504 C49 1.693 . S
C1521 C89 1.684 . S
C1540 C59 1.750 . S
C1557 C129 1.768 . S
C1576 C179 1.824 . S
C1593 C219 1.838 . S
C1612 C169 1.760 . S
C1629 C209 1.770 . S
C1648 C139 1.843 . S
C1665 C258 1.684 . S
C1684 C330 1.735 . S
C1701 C298 1.683 . S
C1720 C250 1.731 . S
C1737 C338 1.673 . S
C1756 C290 1.759 . S
C1773 C378 1.763 . S
C1792 C410 1.835 . S
C1809 C450 1.834 . S
C1828 C418 1.775 . S
C1845 C370 1.832 . S
C1864 C458 1.784 . S
C1881 C579 1.827 . S
C1900 C489 1.771 . S
C1917 C529 1.751 . S
C1936 C499 1.806 . S
C1953 C539 1.823 . S
C1972 C569 1.770 . S
C1989 C609 1.783 . S
C2008 C659 1.850 . S
C2025 C699 1.859 . S
C2044 C649 1.808 . S
C2061 C619 1.856 . S
C2080 C689 1.777 . S
C2097 C738 1.723 . S
C2116 C810 1.779 . S
C2133 C778 1.724 . S
C2152 C730 1.776 . S
C2169 C770 1.791 . S
C2188 C818 1.715 . S
C2205 C890 1.668 . S
C2224 C858 1.624 1_554 S
C2241 C898 1.590 1_554 S
C2260 C930 1.661 . S
C2277 C850 1.667 . S
C2296 C938 1.630 1_554 S
C2313 C969 1.714 . S
C2332 C1059 1.777 . S
C2349 C1009 1.724 . S
C2368 C979 1.796 . S
C2385 C1049 1.725 . S
C2404 C1019 1.786 . S
C2421 C1089 1.591 1_556 S
C2440 C1139 1.658 . S
C2457 C1129 1.596 1_556 S
C2476 C1179 1.678 . S
C2493 C1169 1.593 1_556 S
C2512 C1099 1.668 . S
C2529 C1218 1.750 . S
C2548 C1290 1.828 . S
C2565 C1258 1.757 . S
C2584 C1210 1.811 . S
C2601 C1250 1.823 . S
C2620 C1298 1.756 . S
C2637 C1338 1.794 . S
C2656 C1370 1.842 . S
C2673 C1378 1.791 . S
C2692 C1410 1.850 . S
C2709 C1330 1.858 . S
C2728 C1418 1.784 . S
C2745 C10 1.723 . S
C2764 C809 1.711 . S
C2781 C729 1.726 . S
C2800 C50 1.739 . S
C2817 C90 1.719 . S
C2836 C769 1.700 . S
C2853 C130 1.597 . S
C2872 C1369 1.569 . S
C2889 C1409 1.596 . S
C2908 C170 1.587 . S
C2925 C210 1.597 . S
C2944 C1329 1.575 . S
C2961 C1058 1.727 . S
C2980 C259 1.700 . S
C2997 C299 1.719 . S
C3016 C978 1.731 . S
C3033 C339 1.722 . S
C3052 C1018 1.731 . S
C3069 C658 1.600 . S
C3088 C379 1.576 . S
C3105 C698 1.600 . S
C3124 C419 1.576 . S
C3141 C618 1.596 . S
C3160 C459 1.587 . S
C3177 C490 1.661 . S
C3196 C1289 1.664 . S
C3213 C530 1.661 . S
C3232 C1209 1.641 . S
C3249 C1249 1.655 . S
C3268 C570 1.642 . S
C3285 C409 1.643 . S
C3304 C610 1.658 . S
C3321 C449 1.640 . S
C3340 C650 1.640 . S
C3357 C369 1.641 . S
C3376 C690 1.629 . S
C3393 C98 1.718 . S
C3412 C739 1.699 . S
C3429 C779 1.712 . S
C3448 C18 1.734 . S
C3465 C819 1.720 . S
C3484 C58 1.698 . S
C3501 C1138 1.656 1_554 S
C3520 C859 1.659 . S
C3537 C1178 1.655 1_554 S
C3556 C899 1.673 . S
C3573 C939 1.669 . S
C3592 C1098 1.663 1_554 S
C3609 C329 1.718 . S
C3628 C970 1.705 . S
C3645 C249 1.718 . S
C3664 C1010 1.705 . S
C3681 C289 1.719 . S
C3700 C1050 1.709 . S
C3717 C1090 1.679 . S
C3736 C889 1.653 1_556 S
C3753 C929 1.655 1_556 S
C3772 C1130 1.683 . S
C3789 C1170 1.672 . S
C3808 C849 1.635 . S
C3825 C1219 1.659 . S
C3844 C578 1.656 . S
C3861 C1259 1.666 . S
C3880 C498 1.635 . S
C3897 C1299 1.661 . S
C3916 C538 1.672 . S
C3933 C1339 1.647 . S
C3952 C178 1.648 . S
C3969 C218 1.639 . S
C3988 C1379 1.650 . S
C4005 C138 1.638 . S
C4024 C1419 1.664 . S
C4041 C1166 2.372 . S
C4060 C6 2.356 . S
C4077 C1086 2.369 . S
C4096 C46 2.355 . S
C4113 C86 2.370 . S
C4132 C1126 2.335 . S
C4149 C526 2.676 . S
C4168 C126 2.666 . S
C4185 C166 2.677 . S
C4204 C566 2.681 . S
C4221 C206 2.679 . S
C4240 C486 2.683 . S
C4257 C255 2.371 . S
C4276 C935 2.359 . S
C4293 C295 2.375 . S
C4312 C855 2.337 . S
C4329 C335 2.370 . S
C4348 C895 2.353 . S
C4365 C1255 2.679 . S
C4384 C375 2.671 . S
C4401 C1295 2.677 . S
C4420 C415 2.682 . S
C4437 C1215 2.680 . S
C4456 C455 2.662 . S
C4473 C606 2.749 . S
C4492 C1006 2.741 . S
C4509 C646 2.751 . S
C4528 C1046 2.743 . S
C4545 C686 2.749 . S
C4564 C966 2.743 . S
C4581 C735 2.754 . S
C4600 C1415 2.740 . S
C4617 C1335 2.750 . S
C4636 C775 2.748 . S
C4653 C815 2.753 . S
C4672 C1375 2.743 . S
C4689 C175 1.071 . S
C4708 C15 1.056 . S
C4725 C215 1.070 . S
C4744 C55 1.057 . S
C4761 C135 1.073 . S
C4780 C95 1.058 . S
C4797 C246 1.069 . S
C4816 C406 1.082 . S
C4833 C446 1.073 . S
C4852 C286 1.065 . S
C4869 C326 1.072 . S
C4888 C366 1.055 . S
C4905 C655 1.181 . S
C4924 C495 1.168 . S
C4941 C695 1.179 . S
C4960 C535 1.184 . S
C4977 C615 1.181 . S
C4996 C575 1.170 . S
C5013 C886 1.495 . S
C5032 C726 1.514 . S
C5049 C766 1.502 . S
C5068 C926 1.495 . S
C5085 C806 1.500 . S
C5104 C846 1.518 . S
C5121 C975 1.500 . S
C5140 C1135 1.496 . S
C5157 C1175 1.496 . S
C5176 C1015 1.514 . S
C5193 C1055 1.500 . S
C5212 C1095 1.494 . S
C5229 C1206 1.176 . S
C5248 C1366 1.182 . S
C5265 C1406 1.181 . S
C5284 C1246 1.168 . S
C5301 C1286 1.181 . S
C5320 C1326 1.179 . S
