# Generated by pormake.
# Topology umw, (4)-cn, num edge types: 1
# Building blocks:
#     Node 0, Type 0, BuildingBlock: NAHDIM_clean_sbu_0, # of connection points: 4
#     Node 1, Type 0, BuildingBlock: NAHDIM_clean_sbu_0, # of connection points: 4
#     Node 2, Type 0, BuildingBlock: NAHDIM_clean_sbu_0, # of connection points: 4
#     Node 3, Type 0, BuildingBlock: NAHDIM_clean_sbu_0, # of connection points: 4
#     Node 4, Type 0, BuildingBlock: NAHDIM_clean_sbu_0, # of connection points: 4
#     Node 5, Type 0, BuildingBlock: NAHDIM_clean_sbu_0, # of connection points: 4
#     Node 6, Type 0, BuildingBlock: NAHDIM_clean_sbu_0, # of connection points: 4
#     Node 7, Type 0, BuildingBlock: NAHDIM_clean_sbu_0, # of connection points: 4
#     Edge 8, Type (0, 0), BuildingBlock: AJUNOK_clean_linker_0, # of connection points: 2
#     Edge 9, Type (0, 0), BuildingBlock: AJUNOK_clean_linker_0, # of connection points: 2
#     Edge 10, Type (0, 0), BuildingBlock: AJUNOK_clean_linker_0, # of connection points: 2
#     Edge 11, Type (0, 0), BuildingBlock: AJUNOK_clean_linker_0, # of connection points: 2
#     Edge 12, Type (0, 0), BuildingBlock: AJUNOK_clean_linker_0, # of connection points: 2
#     Edge 13, Type (0, 0), BuildingBlock: AJUNOK_clean_linker_0, # of connection points: 2
#     Edge 14, Type (0, 0), BuildingBlock: AJUNOK_clean_linker_0, # of connection points: 2
#     Edge 15, Type (0, 0), BuildingBlock: AJUNOK_clean_linker_0, # of connection points: 2
#     Edge 16, Type (0, 0), BuildingBlock: AJUNOK_clean_linker_0, # of connection points: 2
#     Edge 17, Type (0, 0), BuildingBlock: AJUNOK_clean_linker_0, # of connection points: 2
#     Edge 18, Type (0, 0), BuildingBlock: AJUNOK_clean_linker_0, # of connection points: 2
#     Edge 19, Type (0, 0), BuildingBlock: AJUNOK_clean_linker_0, # of connection points: 2
#     Edge 20, Type (0, 0), BuildingBlock: AJUNOK_clean_linker_0, # of connection points: 2
#     Edge 21, Type (0, 0), BuildingBlock: AJUNOK_clean_linker_0, # of connection points: 2
#     Edge 22, Type (0, 0), BuildingBlock: AJUNOK_clean_linker_0, # of connection points: 2
#     Edge 23, Type (0, 0), BuildingBlock: AJUNOK_clean_linker_0, # of connection points: 2
# Relax obj value: 0.141
# Max RMSD: 0.107
# Mean RMSD: 0.107
data_MOF--net-umw--node1-NAHDIM_clean_sbu_0--edge1-AJUNOK_clean_linker_0
_symmetry_space_group_name_H-M    P1
_symmetry_Int_Tables_number       1
_symmetry_cell_setting            triclinic
loop_
_symmetry_equiv_pos_as_xyz
'x, y, z'
_cell_length_a     32.783681
_cell_length_b     32.737518
_cell_length_c     17.20263
_cell_angle_alpha  89.98761
_cell_angle_beta   90.104741
_cell_angle_gamma 89.762279
loop_
_atom_site_label
_atom_site_type_symbol
_atom_site_fract_x
_atom_site_fract_y
_atom_site_fract_z
_atom_type_partial_charge
C0 C 0.35305 0.24007 0.34172 0.0
O1 O 0.39212 0.24819 0.3484 0.0
O2 O 0.4195 0.17473 0.19717 0.0
Zn3 Zn 0.38723 0.16459 0.29656 0.0
O4 O 0.42223 0.16731 0.39166 0.0
C5 C 0.36626 0.08219 0.24401 0.0
O6 O 0.37995 0.0943 0.17613 0.0
O7 O 0.34249 0.20565 0.31426 0.0
C8 C 0.45154 0.14272 0.40386 0.0
O9 O 0.4623 0.11659 0.34965 0.0
C10 C 0.45611 0.1876 0.197 0.0
O11 O 0.47355 0.19707 0.2633 0.0
O12 O 0.36496 0.10754 0.29978 0.0
C13 C 0.74878 0.35111 0.57836 0.0
O14 O 0.73945 0.39018 0.57837 0.0
O15 O 0.80953 0.41273 0.42047 0.0
Zn16 Zn 0.82261 0.38402 0.52202 0.0
O17 O 0.81909 0.4247 0.60784 0.0
C18 C 0.90763 0.3693 0.47709 0.0
O19 O 0.89766 0.38787 0.41203 0.0
O20 O 0.78291 0.33992 0.5504 0.0
C21 C 0.8321 0.41407 0.6744 0.0
O22 O 0.84736 0.37722 0.68377 0.0
C23 C 0.82097 0.44964 0.41281 0.0
O24 O 0.84132 0.46674 0.46997 0.0
O25 O 0.88018 0.3627 0.52738 0.0
C26 C 0.62881 0.75066 0.82789 0.0
O27 O 0.5899 0.74439 0.8414 0.0
O28 O 0.56701 0.82267 0.6691 0.0
Zn29 Zn 0.59705 0.82658 0.77173 0.0
O30 O 0.55578 0.82348 0.8566 0.0
C31 C 0.626 0.90931 0.73552 0.0
O32 O 0.61806 0.90035 0.66264 0.0
O33 O 0.63939 0.78306 0.79262 0.0
C34 C 0.53458 0.85511 0.87111 0.0
O35 O 0.53798 0.88717 0.8257 0.0
C36 C 0.55798 0.78925 0.63575 0.0
O37 O 0.57074 0.75469 0.66621 0.0
O38 O 0.62169 0.88202 0.78718 0.0
C39 C 0.23597 0.64041 0.07384 0.0
O40 O 0.24042 0.60059 0.07834 0.0
O41 O 0.17012 0.58262 0.91935 0.0
Zn42 Zn 0.15944 0.61375 0.01999 0.0
O43 O 0.15777 0.57644 0.11189 0.0
C44 C 0.07572 0.62523 0.97666 0.0
O45 O 0.08518 0.59676 0.92591 0.0
O46 O 0.2031 0.65478 0.04525 0.0
C47 C 0.13981 0.54226 0.11462 0.0
O48 O 0.12146 0.5278 0.05259 0.0
C49 C 0.18749 0.54779 0.91638 0.0
O50 O 0.20229 0.53167 0.98045 0.0
O51 O 0.10368 0.63977 0.01955 0.0
C52 C 0.35442 0.74982 0.21519 0.0
O53 O 0.39355 0.74385 0.20349 0.0
O54 O 0.41795 0.81744 0.36764 0.0
Zn55 Zn 0.38511 0.82599 0.26869 0.0
O56 O 0.42328 0.82498 0.17819 0.0
C57 C 0.36422 0.90922 0.31546 0.0
O58 O 0.38181 0.89932 0.38154 0.0
O59 O 0.34278 0.78283 0.24742 0.0
C60 C 0.44154 0.85735 0.15767 0.0
O61 O 0.43764 0.89047 0.20006 0.0
C62 C 0.44853 0.79334 0.36815 0.0
O63 O 0.45735 0.77275 0.30484 0.0
O64 O 0.35954 0.88195 0.26384 0.0
C65 C 0.2376 0.35719 0.47182 0.0
O66 O 0.24727 0.39608 0.46928 0.0
O67 O 0.17186 0.42257 0.61759 0.0
Zn68 Zn 0.16262 0.39307 0.51468 0.0
O69 O 0.16794 0.43004 0.42288 0.0
C70 C 0.07959 0.36622 0.5582 0.0
O71 O 0.09117 0.36976 0.63102 0.0
O72 O 0.20235 0.3473 0.4958 0.0
C73 C 0.14131 0.4573 0.40893 0.0
O74 O 0.11246 0.46467 0.45999 0.0
C75 C 0.18312 0.4597 0.62159 0.0
O76 O 0.19023 0.47981 0.55701 0.0
O77 O 0.10517 0.37293 0.50449 0.0
C78 C 0.63871 0.23957 0.73691 0.0
O79 O 0.59941 0.24735 0.73292 0.0
O80 O 0.5792 0.17446 0.89617 0.0
Zn81 Zn 0.60763 0.16454 0.79258 0.0
O82 O 0.56891 0.16557 0.70272 0.0
C83 C 0.61881 0.07911 0.82811 0.0
O84 O 0.59229 0.08703 0.8833 0.0
O85 O 0.65048 0.20609 0.76711 0.0
C86 C 0.53623 0.1451 0.69869 0.0
O87 O 0.52425 0.12327 0.75843 0.0
C88 C 0.544 0.19072 0.90232 0.0
O89 O 0.52528 0.20377 0.83942 0.0
O90 O 0.63194 0.10826 0.78662 0.0
C91 C 0.74526 0.63678 0.96574 0.0
O92 O 0.73597 0.59778 0.96538 0.0
O93 O 0.81643 0.57687 0.1197 0.0
Zn94 Zn 0.82132 0.60323 0.01341 0.0
O95 O 0.81369 0.56038 0.93269 0.0
C96 C 0.90324 0.63479 0.04756 0.0
O97 O 0.89077 0.63727 0.11993 0.0
O98 O 0.78026 0.6475 0.99009 0.0
C99 C 0.83821 0.53042 0.9285 0.0
O100 O 0.86768 0.52722 0.98007 0.0
C101 C 0.79607 0.54415 0.12852 0.0
O102 O 0.77504 0.53003 0.06942 0.0
O103 O 0.8784 0.62303 0.99556 0.0
C104 C 0.51495 0.13832 0.48323 0.0
C105 C 0.47241 0.14289 0.47957 0.0
C106 C 0.53539 0.13947 0.55474 0.0
C107 C 0.51377 0.14387 0.62481 0.0
H108 H 0.53258 0.13467 0.43045 0.0
H109 H 0.56832 0.13641 0.5553 0.0
S110 S 0.402 0.15547 0.64653 0.0
N111 N 0.40924 0.15171 0.55177 0.0
N112 N 0.44774 0.15212 0.68656 0.0
C113 C 0.47121 0.14756 0.62209 0.0
C114 C 0.45048 0.14758 0.54922 0.0
C115 C 0.85731 0.43678 0.80412 0.0
C116 C 0.83163 0.44327 0.73972 0.0
C117 C 0.85891 0.46492 0.86525 0.0
C118 C 0.83457 0.50041 0.86465 0.0
H119 H 0.87702 0.41017 0.80676 0.0
H120 H 0.87962 0.45885 0.91305 0.0
S121 S 0.7603 0.53036 0.71115 0.0
N122 N 0.7801 0.48692 0.68014 0.0
N123 N 0.7828 0.53973 0.79511 0.0
C124 C 0.80797 0.50676 0.80133 0.0
C125 C 0.8066 0.47824 0.73882 0.0
C126 C 0.4784 0.82094 0.05164 0.0
C127 C 0.46512 0.85794 0.08468 0.0
C128 C 0.50033 0.82037 0.98203 0.0
C129 C 0.5094 0.85674 0.9422 0.0
H130 H 0.47219 0.79211 0.08013 0.0
H131 H 0.5103 0.79111 0.95941 0.0
S132 S 0.48022 0.96174 0.00294 0.0
N133 N 0.46174 0.9319 0.07163 0.0
N134 N 0.50279 0.93087 0.94036 0.0
C135 C 0.49575 0.89398 0.97396 0.0
C136 C 0.47374 0.89458 0.0454 0.0
C137 C 0.13169 0.52013 0.32946 0.0
C138 C 0.1411 0.47832 0.33344 0.0
C139 C 0.13151 0.54065 0.25802 0.0
C140 C 0.13932 0.51965 0.18828 0.0
H141 H 0.12515 0.5372 0.38196 0.0
H142 H 0.12479 0.57309 0.25722 0.0
S143 S 0.16416 0.40979 0.16733 0.0
N144 N 0.15818 0.4165 0.26182 0.0
N145 N 0.15615 0.45495 0.1271 0.0
C146 C 0.14792 0.47773 0.19126 0.0
C147 C 0.14929 0.45707 0.26411 0.0
C148 C 0.3345 0.30904 0.39301 0.0
C149 C 0.32237 0.26927 0.37265 0.0
C150 C 0.30699 0.3369 0.42584 0.0
C151 C 0.26623 0.32611 0.44047 0.0
H152 H 0.3656 0.31891 0.38353 0.0
H153 H 0.31792 0.36719 0.43998 0.0
S154 S 0.21882 0.22567 0.39809 0.0
N155 N 0.26659 0.22044 0.36949 0.0
N156 N 0.21493 0.27275 0.43163 0.0
C157 C 0.2536 0.28637 0.42066 0.0
C158 C 0.2816 0.25803 0.38651 0.0
C159 C 0.68144 0.3333 0.63667 0.0
C160 C 0.72144 0.32147 0.61722 0.0
C161 C 0.65528 0.30683 0.67637 0.0
C162 C 0.66813 0.26755 0.69911 0.0
H163 H 0.67003 0.36329 0.62093 0.0
H164 H 0.62467 0.31738 0.68928 0.0
S165 S 0.77025 0.22175 0.6633 0.0
N166 N 0.77286 0.26773 0.62429 0.0
N167 N 0.72379 0.21807 0.69934 0.0
C168 C 0.7082 0.25534 0.68061 0.0
C169 C 0.73477 0.28222 0.63944 0.0
C170 C 0.67542 0.656 0.91995 0.0
C171 C 0.7164 0.66697 0.9319 0.0
C172 C 0.64761 0.68305 0.88532 0.0
C173 C 0.65971 0.72206 0.86018 0.0
H174 H 0.66453 0.62625 0.93782 0.0
H175 H 0.61633 0.67319 0.87818 0.0
S176 S 0.7638 0.76563 0.87667 0.0
N177 N 0.76788 0.7196 0.91515 0.0
N178 N 0.71571 0.77032 0.84942 0.0
C179 C 0.70072 0.73338 0.87106 0.0
C180 C 0.72899 0.70594 0.90722 0.0
C181 C 0.25663 0.70847 0.12722 0.0
C182 C 0.26692 0.66782 0.10878 0.0
C183 C 0.28467 0.73441 0.16381 0.0
C184 C 0.32431 0.72089 0.18243 0.0
H185 H 0.2265 0.72033 0.11409 0.0
H186 H 0.27542 0.76554 0.17616 0.0
S187 S 0.36651 0.61714 0.14739 0.0
N188 N 0.31955 0.61518 0.11289 0.0
N189 N 0.37225 0.66402 0.18083 0.0
C190 C 0.335 0.68033 0.16451 0.0
C191 C 0.30634 0.65379 0.12793 0.0
C192 C 0.35784 0.98241 0.35476 0.0
C193 C 0.3577 0.95287 0.2955 0.0
C194 C 0.35827 0.02421 0.33738 0.0
C195 C 0.35917 0.03822 0.25992 0.0
H196 H 0.35898 0.97322 0.41523 0.0
H197 H 0.35985 0.04557 0.38536 0.0
S198 S 0.35517 0.97351 0.08297 0.0
N199 N 0.3551 0.94068 0.15578 0.0
N200 N 0.35653 0.01921 0.12337 0.0
C201 C 0.3569 0.0091 0.20002 0.0
C202 C 0.35596 0.96646 0.21771 0.0
C203 C 0.98147 0.37062 0.44138 0.0
C204 C 0.95123 0.36218 0.49688 0.0
C205 C 0.0229 0.3699 0.46109 0.0
C206 C 0.03595 0.361 0.53738 0.0
H207 H 0.97314 0.37922 0.38263 0.0
H208 H 0.04472 0.37808 0.41656 0.0
S209 S 0.96943 0.33181 0.70242 0.0
N210 N 0.93752 0.34075 0.63001 0.0
N211 N 0.01546 0.33983 0.66696 0.0
C212 C 0.00625 0.35031 0.5925 0.0
C213 C 0.96392 0.35074 0.57228 0.0
C214 C 0.62108 0.96365 0.83693 0.0
C215 C 0.63112 0.95237 0.76022 0.0
C216 C 0.61907 0.00471 0.85928 0.0
C217 C 0.62763 0.03618 0.80629 0.0
H218 H 0.61263 0.94074 0.87934 0.0
H219 H 0.60943 0.01182 0.91797 0.0
S220 S 0.66016 0.02281 0.60097 0.0
N221 N 0.65302 0.97584 0.63301 0.0
N222 N 0.6499 0.05313 0.67515 0.0
C223 C 0.64027 0.02529 0.73074 0.0
C224 C 0.64179 0.98338 0.70767 0.0
C225 C 0.96093 0.62574 0.95429 0.0
C226 C 0.9471 0.63901 0.02762 0.0
C227 C 0.00257 0.62345 0.9371 0.0
C228 C 0.03222 0.63474 0.99205 0.0
H229 H 0.93956 0.61525 0.91061 0.0
H230 H 0.01158 0.6114 0.88101 0.0
S231 S 0.01217 0.67626 0.18936 0.0
N232 N 0.96642 0.66707 0.15328 0.0
N233 N 0.04479 0.66308 0.12072 0.0
C234 C 0.01886 0.65059 0.06384 0.0
C235 C 0.97631 0.6526 0.08168 0.0
C236 C 0.47979 0.1941 0.98087 0.0
C237 C 0.52269 0.19181 0.97849 0.0
C238 C 0.45857 0.19287 0.05163 0.0
C239 C 0.47938 0.19009 0.12306 0.0
H240 H 0.46228 0.19593 0.92751 0.0
H241 H 0.42555 0.19414 0.05024 0.0
S242 S 0.59178 0.18442 0.14913 0.0
N243 N 0.58527 0.18718 0.05408 0.0
N244 N 0.54555 0.18562 0.18697 0.0
C245 C 0.52233 0.18858 0.12165 0.0
C246 C 0.54392 0.1892 0.04948 0.0
C247 C 0.82179 0.536 0.26494 0.0
C248 C 0.79954 0.52019 0.20181 0.0
C249 C 0.82806 0.51309 0.33278 0.0
C250 C 0.81251 0.47324 0.34057 0.0
H251 H 0.83499 0.56623 0.26182 0.0
H252 H 0.84574 0.52676 0.37914 0.0
S253 S 0.75096 0.41784 0.19333 0.0
N254 N 0.76092 0.46228 0.15237 0.0
N255 N 0.77285 0.41931 0.27974 0.0
C256 C 0.7896 0.45721 0.27847 0.0
C257 C 0.78306 0.48064 0.20928 0.0
C258 C 0.50474 0.82309 0.55296 0.0
C259 C 0.53062 0.7894 0.56681 0.0
C260 C 0.47763 0.82367 0.48976 0.0
C261 C 0.47581 0.7909 0.43698 0.0
H262 H 0.50502 0.84915 0.59178 0.0
H263 H 0.45848 0.85038 0.4815 0.0
S264 S 0.53709 0.69539 0.44682 0.0
N265 N 0.55241 0.72224 0.5226 0.0
N266 N 0.50207 0.72363 0.40312 0.0
C267 C 0.50157 0.75705 0.44996 0.0
C268 C 0.52877 0.75621 0.51502 0.0
C269 C 0.18524 0.54534 0.7709 0.0
C270 C 0.1884 0.52455 0.84223 0.0
C271 C 0.18441 0.52409 0.7001 0.0
C272 C 0.18591 0.4811 0.69766 0.0
H273 H 0.18339 0.57838 0.76964 0.0
H274 H 0.18173 0.54162 0.6469 0.0
S275 S 0.19421 0.41203 0.86822 0.0
N276 N 0.19339 0.45837 0.90607 0.0
N277 N 0.19113 0.41847 0.77318 0.0
C278 C 0.1892 0.45988 0.76858 0.0
C279 C 0.19067 0.48157 0.84072 0.0
loop_
_geom_bond_atom_site_label_1
_geom_bond_atom_site_label_2
_geom_bond_distance
_geom_bond_site_symmetry_2
_ccdc_geom_bond_type
C0 O1 1.160 . S
C0 O7 1.185 . S
O1 C0 1.160 . S
O2 Zn3 1.899 . S
O2 C10 1.284 . S
Zn3 O2 1.899 . S
Zn3 O4 2.032 . S
Zn3 O7 2.086 . S
Zn3 O12 1.977 . S
O4 Zn3 2.032 . S
O4 C8 1.278 . S
C5 O6 1.203 . S
C5 O12 1.267 . S
O6 C5 1.203 . S
O7 C0 1.185 . S
O7 Zn3 2.086 . S
C8 O4 1.278 . S
C8 O9 1.211 . S
O9 C8 1.211 . S
C10 O2 1.284 . S
C10 O11 1.273 . S
O11 C10 1.273 . S
O12 Zn3 1.977 . S
O12 C5 1.267 . S
C13 O14 1.160 . S
C13 O20 1.185 . S
O14 C13 1.160 . S
O15 Zn16 1.899 . S
O15 C23 1.284 . S
Zn16 O15 1.899 . S
Zn16 O17 2.032 . S
Zn16 O20 2.086 . S
Zn16 O25 1.977 . S
O17 Zn16 2.032 . S
O17 C21 1.278 . S
C18 O19 1.203 . S
C18 O25 1.267 . S
O19 C18 1.203 . S
O20 C13 1.185 . S
O20 Zn16 2.086 . S
C21 O17 1.278 . S
C21 O22 1.211 . S
O22 C21 1.211 . S
C23 O15 1.284 . S
C23 O24 1.273 . S
O24 C23 1.273 . S
O25 Zn16 1.977 . S
O25 C18 1.267 . S
C26 O27 1.160 . S
C26 O33 1.185 . S
O27 C26 1.160 . S
O28 Zn29 1.899 . S
O28 C36 1.284 . S
Zn29 O28 1.899 . S
Zn29 O30 2.032 . S
Zn29 O33 2.086 . S
Zn29 O38 1.977 . S
O30 Zn29 2.032 . S
O30 C34 1.278 . S
C31 O32 1.203 . S
C31 O38 1.267 . S
O32 C31 1.203 . S
O33 C26 1.185 . S
O33 Zn29 2.086 . S
C34 O30 1.278 . S
C34 O35 1.211 . S
O35 C34 1.211 . S
C36 O28 1.284 . S
C36 O37 1.273 . S
O37 C36 1.273 . S
O38 Zn29 1.977 . S
O38 C31 1.267 . S
C39 O40 1.160 . S
C39 O46 1.185 . S
O40 C39 1.160 . S
O41 Zn42 1.899 1_556 S
O41 C49 1.284 . S
Zn42 O41 1.899 1_554 S
Zn42 O43 2.032 . S
Zn42 O46 2.086 . S
Zn42 O51 1.977 . S
O43 Zn42 2.032 . S
O43 C47 1.278 . S
C44 O45 1.203 1_554 S
C44 O51 1.267 . S
O45 C44 1.203 1_556 S
O46 C39 1.185 . S
O46 Zn42 2.086 . S
C47 O43 1.278 . S
C47 O48 1.211 . S
O48 C47 1.211 . S
C49 O41 1.284 . S
C49 O50 1.273 . S
O50 C49 1.273 . S
O51 Zn42 1.977 . S
O51 C44 1.267 . S
C52 O53 1.160 . S
C52 O59 1.185 . S
O53 C52 1.160 . S
O54 Zn55 1.899 . S
O54 C62 1.284 . S
Zn55 O54 1.899 . S
Zn55 O56 2.032 . S
Zn55 O59 2.086 . S
Zn55 O64 1.977 . S
O56 Zn55 2.032 . S
O56 C60 1.278 . S
C57 O58 1.203 . S
C57 O64 1.267 . S
O58 C57 1.203 . S
O59 C52 1.185 . S
O59 Zn55 2.086 . S
C60 O56 1.278 . S
C60 O61 1.211 . S
O61 C60 1.211 . S
C62 O54 1.284 . S
C62 O63 1.273 . S
O63 C62 1.273 . S
O64 Zn55 1.977 . S
O64 C57 1.267 . S
C65 O66 1.160 . S
C65 O72 1.185 . S
O66 C65 1.160 . S
O67 Zn68 1.899 . S
O67 C75 1.284 . S
Zn68 O67 1.899 . S
Zn68 O69 2.032 . S
Zn68 O72 2.086 . S
Zn68 O77 1.977 . S
O69 Zn68 2.032 . S
O69 C73 1.278 . S
C70 O71 1.203 . S
C70 O77 1.267 . S
O71 C70 1.203 . S
O72 C65 1.185 . S
O72 Zn68 2.086 . S
C73 O69 1.278 . S
C73 O74 1.211 . S
O74 C73 1.211 . S
C75 O67 1.284 . S
C75 O76 1.273 . S
O76 C75 1.273 . S
O77 Zn68 1.977 . S
O77 C70 1.267 . S
C78 O79 1.160 . S
C78 O85 1.185 . S
O79 C78 1.160 . S
O80 Zn81 1.899 . S
O80 C88 1.284 . S
Zn81 O80 1.899 . S
Zn81 O82 2.032 . S
Zn81 O85 2.086 . S
Zn81 O90 1.977 . S
O82 Zn81 2.032 . S
O82 C86 1.278 . S
C83 O84 1.203 . S
C83 O90 1.267 . S
O84 C83 1.203 . S
O85 C78 1.185 . S
O85 Zn81 2.086 . S
C86 O82 1.278 . S
C86 O87 1.211 . S
O87 C86 1.211 . S
C88 O80 1.284 . S
C88 O89 1.273 . S
O89 C88 1.273 . S
O90 Zn81 1.977 . S
O90 C83 1.267 . S
C91 O92 1.160 1_556 S
C91 O98 1.185 . S
O92 C91 1.160 1_554 S
O93 Zn94 1.899 . S
O93 C101 1.284 . S
Zn94 O93 1.899 . S
Zn94 O95 2.032 1_554 S
Zn94 O98 2.086 1_554 S
Zn94 O103 1.977 . S
O95 Zn94 2.032 1_556 S
O95 C99 1.278 . S
C96 O97 1.203 . S
C96 O103 1.267 . S
O97 C96 1.203 . S
O98 C91 1.185 . S
O98 Zn94 2.086 1_556 S
C99 O95 1.278 . S
C99 O100 1.211 . S
O100 C99 1.211 . S
C101 O93 1.284 . S
C101 O102 1.273 . S
O102 C101 1.273 . S
O103 Zn94 1.977 . S
O103 C96 1.267 . S
C104 C105 1.369 . S
C104 C106 1.419 . S
C104 H108 0.930 . S
C105 C104 1.369 . S
C105 C114 1.429 . S
C106 C104 1.419 . S
C106 C107 1.363 . S
C106 H109 0.929 . S
C107 C106 1.363 . S
C107 C113 1.428 . S
H108 C104 0.930 . S
H109 C106 0.929 . S
S110 N111 1.613 . S
S110 N112 1.610 . S
N111 S110 1.613 . S
N111 C114 1.350 . S
N112 S110 1.610 . S
N112 C113 1.351 . S
C113 C107 1.428 . S
C113 N112 1.351 . S
C113 C114 1.434 . S
C114 C105 1.429 . S
C114 N111 1.350 . S
C114 C113 1.434 . S
C115 C116 1.369 . S
C115 C117 1.419 . S
C115 H119 0.930 . S
C116 C115 1.369 . S
C116 C125 1.429 . S
C117 C115 1.419 . S
C117 C118 1.363 . S
C117 H120 0.929 . S
C118 C117 1.363 . S
C118 C124 1.428 . S
H119 C115 0.930 . S
H120 C117 0.929 . S
S121 N122 1.613 . S
S121 N123 1.610 . S
N122 S121 1.613 . S
N122 C125 1.350 . S
N123 S121 1.610 . S
N123 C124 1.351 . S
C124 C118 1.428 . S
C124 N123 1.351 . S
C124 C125 1.434 . S
C125 C116 1.429 . S
C125 N122 1.350 . S
C125 C124 1.434 . S
C126 C127 1.369 . S
C126 C128 1.419 . S
C126 H130 0.930 . S
C127 C126 1.369 . S
C127 C136 1.429 . S
C128 C126 1.419 . S
C128 C129 1.363 1_554 S
C128 H131 0.929 . S
C129 C128 1.363 1_556 S
C129 C135 1.428 . S
H130 C126 0.930 . S
H131 C128 0.929 . S
S132 N133 1.613 1_556 S
S132 N134 1.610 . S
N133 S132 1.613 1_554 S
N133 C136 1.350 . S
N134 S132 1.610 . S
N134 C135 1.351 . S
C135 C129 1.428 . S
C135 N134 1.351 . S
C135 C136 1.434 1_556 S
C136 C127 1.429 . S
C136 N133 1.350 . S
C136 C135 1.434 1_554 S
C137 C138 1.369 . S
C137 C139 1.419 . S
C137 H141 0.930 . S
C138 C137 1.369 . S
C138 C147 1.429 . S
C139 C137 1.419 . S
C139 C140 1.363 . S
C139 H142 0.929 . S
C140 C139 1.363 . S
C140 C146 1.428 . S
H141 C137 0.930 . S
H142 C139 0.929 . S
S143 N144 1.613 . S
S143 N145 1.610 . S
N144 S143 1.613 . S
N144 C147 1.350 . S
N145 S143 1.610 . S
N145 C146 1.351 . S
C146 C140 1.428 . S
C146 N145 1.351 . S
C146 C147 1.434 . S
C147 C138 1.429 . S
C147 N144 1.350 . S
C147 C146 1.434 . S
C148 C149 1.369 . S
C148 C150 1.419 . S
C148 H152 0.930 . S
C149 C148 1.369 . S
C149 C158 1.429 . S
C150 C148 1.419 . S
C150 C151 1.363 . S
C150 H153 0.929 . S
C151 C150 1.363 . S
C151 C157 1.428 . S
H152 C148 0.930 . S
H153 C150 0.929 . S
S154 N155 1.613 . S
S154 N156 1.610 . S
N155 S154 1.613 . S
N155 C158 1.350 . S
N156 S154 1.610 . S
N156 C157 1.351 . S
C157 C151 1.428 . S
C157 N156 1.351 . S
C157 C158 1.434 . S
C158 C149 1.429 . S
C158 N155 1.350 . S
C158 C157 1.434 . S
C159 C160 1.369 . S
C159 C161 1.419 . S
C159 H163 0.930 . S
C160 C159 1.369 . S
C160 C169 1.429 . S
C161 C159 1.419 . S
C161 C162 1.363 . S
C161 H164 0.929 . S
C162 C161 1.363 . S
C162 C168 1.428 . S
H163 C159 0.930 . S
H164 C161 0.929 . S
S165 N166 1.613 . S
S165 N167 1.610 . S
N166 S165 1.613 . S
N166 C169 1.350 . S
N167 S165 1.610 . S
N167 C168 1.351 . S
C168 C162 1.428 . S
C168 N167 1.351 . S
C168 C169 1.434 . S
C169 C160 1.429 . S
C169 N166 1.350 . S
C169 C168 1.434 . S
C170 C171 1.369 . S
C170 C172 1.419 . S
C170 H174 0.930 . S
C171 C170 1.369 . S
C171 C180 1.429 . S
C172 C170 1.419 . S
C172 C173 1.363 . S
C172 H175 0.929 . S
C173 C172 1.363 . S
C173 C179 1.428 . S
H174 C170 0.930 . S
H175 C172 0.929 . S
S176 N177 1.613 . S
S176 N178 1.610 1_554 S
N177 S176 1.613 . S
N177 C180 1.350 1_554 S
N178 S176 1.610 1_556 S
N178 C179 1.351 . S
C179 C173 1.428 . S
C179 N178 1.351 . S
C179 C180 1.434 . S
C180 C171 1.429 . S
C180 N177 1.350 1_556 S
C180 C179 1.434 . S
C181 C182 1.369 . S
C181 C183 1.419 . S
C181 H185 0.930 . S
C182 C181 1.369 . S
C182 C191 1.429 . S
C183 C181 1.419 . S
C183 C184 1.363 . S
C183 H186 0.929 . S
C184 C183 1.363 . S
C184 C190 1.428 . S
H185 C181 0.930 . S
H186 C183 0.929 . S
S187 N188 1.613 . S
S187 N189 1.610 . S
N188 S187 1.613 . S
N188 C191 1.350 . S
N189 S187 1.610 . S
N189 C190 1.351 . S
C190 C184 1.428 . S
C190 N189 1.351 . S
C190 C191 1.434 . S
C191 C182 1.429 . S
C191 N188 1.350 . S
C191 C190 1.434 . S
C192 C193 1.369 . S
C192 C194 1.419 1_565 S
C192 H196 0.930 . S
C193 C192 1.369 . S
C193 C202 1.429 . S
C194 C192 1.419 1_545 S
C194 C195 1.363 . S
C194 H197 0.929 . S
C195 C194 1.363 . S
C195 C201 1.428 . S
H196 C192 0.930 . S
H197 C194 0.929 . S
S198 N199 1.613 . S
S198 N200 1.610 1_565 S
N199 S198 1.613 . S
N199 C202 1.350 . S
N200 S198 1.610 1_545 S
N200 C201 1.351 . S
C201 C195 1.428 . S
C201 N200 1.351 . S
C201 C202 1.434 1_545 S
C202 C193 1.429 . S
C202 N199 1.350 . S
C202 C201 1.434 1_565 S
C203 C204 1.369 . S
C203 C205 1.419 1_655 S
C203 H207 0.930 . S
C204 C203 1.369 . S
C204 C213 1.429 . S
C205 C203 1.419 1_455 S
C205 C206 1.363 . S
C205 H208 0.929 . S
C206 C205 1.363 . S
C206 C212 1.428 . S
H207 C203 0.930 . S
H208 C205 0.929 . S
S209 N210 1.613 . S
S209 N211 1.610 1_655 S
N210 S209 1.613 . S
N210 C213 1.350 . S
N211 S209 1.610 1_455 S
N211 C212 1.351 . S
C212 C206 1.428 . S
C212 N211 1.351 . S
C212 C213 1.434 1_455 S
C213 C204 1.429 . S
C213 N210 1.350 . S
C213 C212 1.434 1_655 S
C214 C215 1.369 . S
C214 C216 1.419 1_565 S
C214 H218 0.930 . S
C215 C214 1.369 . S
C215 C224 1.429 . S
C216 C214 1.419 1_545 S
C216 C217 1.363 . S
C216 H219 0.929 . S
C217 C216 1.363 . S
C217 C223 1.428 . S
H218 C214 0.930 . S
H219 C216 0.929 . S
S220 N221 1.613 1_545 S
S220 N222 1.610 . S
N221 S220 1.613 1_565 S
N221 C224 1.350 . S
N222 S220 1.610 . S
N222 C223 1.351 . S
C223 C217 1.428 . S
C223 N222 1.351 . S
C223 C224 1.434 1_545 S
C224 C215 1.429 . S
C224 N221 1.350 . S
C224 C223 1.434 1_565 S
C225 C226 1.369 1_556 S
C225 C227 1.419 1_655 S
C225 H229 0.930 . S
C226 C225 1.369 1_554 S
C226 C235 1.429 . S
C227 C225 1.419 1_455 S
C227 C228 1.363 1_556 S
C227 H230 0.929 . S
C228 C227 1.363 1_554 S
C228 C234 1.428 . S
H229 C225 0.930 . S
H230 C227 0.929 . S
S231 N232 1.613 1_455 S
S231 N233 1.610 . S
N232 S231 1.613 1_655 S
N232 C235 1.350 . S
N233 S231 1.610 . S
N233 C234 1.351 . S
C234 C228 1.428 . S
C234 N233 1.351 . S
C234 C235 1.434 1_455 S
C235 C226 1.429 . S
C235 N232 1.350 . S
C235 C234 1.434 1_655 S
C236 C237 1.369 . S
C236 C238 1.419 1_556 S
C236 H240 0.930 . S
C237 C236 1.369 . S
C237 C246 1.429 1_556 S
C238 C236 1.419 1_554 S
C238 C239 1.363 . S
C238 H241 0.929 . S
C239 C238 1.363 . S
C239 C245 1.428 . S
H240 C236 0.930 . S
H241 C238 0.929 . S
S242 N243 1.613 . S
S242 N244 1.610 . S
N243 S242 1.613 . S
N243 C246 1.350 . S
N244 S242 1.610 . S
N244 C245 1.351 . S
C245 C239 1.428 . S
C245 N244 1.351 . S
C245 C246 1.434 . S
C246 C237 1.429 1_554 S
C246 N243 1.350 . S
C246 C245 1.434 . S
C247 C248 1.369 . S
C247 C249 1.419 . S
C247 H251 0.930 . S
C248 C247 1.369 . S
C248 C257 1.429 . S
C249 C247 1.419 . S
C249 C250 1.363 . S
C249 H252 0.929 . S
C250 C249 1.363 . S
C250 C256 1.428 . S
H251 C247 0.930 . S
H252 C249 0.929 . S
S253 N254 1.613 . S
S253 N255 1.610 . S
N254 S253 1.613 . S
N254 C257 1.350 . S
N255 S253 1.610 . S
N255 C256 1.351 . S
C256 C250 1.428 . S
C256 N255 1.351 . S
C256 C257 1.434 . S
C257 C248 1.429 . S
C257 N254 1.350 . S
C257 C256 1.434 . S
C258 C259 1.369 . S
C258 C260 1.419 . S
C258 H262 0.930 . S
C259 C258 1.369 . S
C259 C268 1.429 . S
C260 C258 1.419 . S
C260 C261 1.363 . S
C260 H263 0.929 . S
C261 C260 1.363 . S
C261 C267 1.428 . S
H262 C258 0.930 . S
H263 C260 0.929 . S
S264 N265 1.613 . S
S264 N266 1.610 . S
N265 S264 1.613 . S
N265 C268 1.350 . S
N266 S264 1.610 . S
N266 C267 1.351 . S
C267 C261 1.428 . S
C267 N266 1.351 . S
C267 C268 1.434 . S
C268 C259 1.429 . S
C268 N265 1.350 . S
C268 C267 1.434 . S
C269 C270 1.369 . S
C269 C271 1.419 . S
C269 H273 0.930 . S
C270 C269 1.369 . S
C270 C279 1.429 . S
C271 C269 1.419 . S
C271 C272 1.363 . S
C271 H274 0.929 . S
C272 C271 1.363 . S
C272 C278 1.428 . S
H273 C269 0.930 . S
H274 C271 0.929 . S
S275 N276 1.613 . S
S275 N277 1.610 . S
N276 S275 1.613 . S
N276 C279 1.350 . S
N277 S275 1.610 . S
N277 C278 1.351 . S
C278 C272 1.428 . S
C278 N277 1.351 . S
C278 C279 1.434 . S
C279 C270 1.429 . S
C279 N276 1.350 . S
C279 C278 1.434 . S
C105 C8 1.143 . S
C107 C86 1.144 . S
C116 C21 1.145 . S
C118 C99 1.144 . S
C127 C60 1.140 . S
C129 C34 1.141 . S
C138 C73 1.144 . S
C140 C47 1.144 . S
C149 C0 1.435 . S
C151 C65 1.433 . S
C160 C13 1.435 . S
C162 C78 1.433 . S
C171 C91 1.435 . S
C173 C26 1.432 . S
C182 C39 1.432 . S
C184 C52 1.434 . S
C193 C57 1.385 . S
C195 C5 1.383 . S
C204 C18 1.386 . S
C206 C70 1.384 . S
C215 C31 1.387 . S
C217 C83 1.387 . S
C226 C96 1.382 . S
C228 C44 1.384 . S
C237 C88 1.503 . S
C239 C10 1.500 . S
C248 C101 1.499 . S
C250 C23 1.506 . S
C259 C36 1.505 . S
C261 C62 1.502 . S
C270 C49 1.498 . S
C272 C75 1.504 . S
