# Generated by pormake.
# Topology umz, (4)-cn, num edge types: 1
# Building blocks:
#     Node 0, Type 0, BuildingBlock: QUQFOY_clean_sbu_1, # of connection points: 4
#     Node 1, Type 0, BuildingBlock: QUQFOY_clean_sbu_1, # of connection points: 4
#     Node 2, Type 0, BuildingBlock: QUQFOY_clean_sbu_1, # of connection points: 4
#     Node 3, Type 0, BuildingBlock: QUQFOY_clean_sbu_1, # of connection points: 4
#     Node 4, Type 0, BuildingBlock: QUQFOY_clean_sbu_1, # of connection points: 4
#     Node 5, Type 0, BuildingBlock: QUQFOY_clean_sbu_1, # of connection points: 4
#     Node 6, Type 0, BuildingBlock: QUQFOY_clean_sbu_1, # of connection points: 4
#     Node 7, Type 0, BuildingBlock: QUQFOY_clean_sbu_1, # of connection points: 4
#     Node 8, Type 0, BuildingBlock: QUQFOY_clean_sbu_1, # of connection points: 4
#     Node 9, Type 0, BuildingBlock: QUQFOY_clean_sbu_1, # of connection points: 4
#     Node 10, Type 0, BuildingBlock: QUQFOY_clean_sbu_1, # of connection points: 4
#     Node 11, Type 0, BuildingBlock: QUQFOY_clean_sbu_1, # of connection points: 4
#     Node 12, Type 0, BuildingBlock: QUQFOY_clean_sbu_1, # of connection points: 4
#     Node 13, Type 0, BuildingBlock: QUQFOY_clean_sbu_1, # of connection points: 4
#     Node 14, Type 0, BuildingBlock: QUQFOY_clean_sbu_1, # of connection points: 4
#     Node 15, Type 0, BuildingBlock: QUQFOY_clean_sbu_1, # of connection points: 4
#     Edge 16, Type (0, 0), BuildingBlock: KIFKEQ_clean_linker_1, # of connection points: 2
#     Edge 17, Type (0, 0), BuildingBlock: KIFKEQ_clean_linker_1, # of connection points: 2
#     Edge 18, Type (0, 0), BuildingBlock: KIFKEQ_clean_linker_1, # of connection points: 2
#     Edge 19, Type (0, 0), BuildingBlock: KIFKEQ_clean_linker_1, # of connection points: 2
#     Edge 20, Type (0, 0), BuildingBlock: KIFKEQ_clean_linker_1, # of connection points: 2
#     Edge 21, Type (0, 0), BuildingBlock: KIFKEQ_clean_linker_1, # of connection points: 2
#     Edge 22, Type (0, 0), BuildingBlock: KIFKEQ_clean_linker_1, # of connection points: 2
#     Edge 23, Type (0, 0), BuildingBlock: KIFKEQ_clean_linker_1, # of connection points: 2
#     Edge 24, Type (0, 0), BuildingBlock: KIFKEQ_clean_linker_1, # of connection points: 2
#     Edge 25, Type (0, 0), BuildingBlock: KIFKEQ_clean_linker_1, # of connection points: 2
#     Edge 26, Type (0, 0), BuildingBlock: KIFKEQ_clean_linker_1, # of connection points: 2
#     Edge 27, Type (0, 0), BuildingBlock: KIFKEQ_clean_linker_1, # of connection points: 2
#     Edge 28, Type (0, 0), BuildingBlock: KIFKEQ_clean_linker_1, # of connection points: 2
#     Edge 29, Type (0, 0), BuildingBlock: KIFKEQ_clean_linker_1, # of connection points: 2
#     Edge 30, Type (0, 0), BuildingBlock: KIFKEQ_clean_linker_1, # of connection points: 2
#     Edge 31, Type (0, 0), BuildingBlock: KIFKEQ_clean_linker_1, # of connection points: 2
#     Edge 32, Type (0, 0), BuildingBlock: KIFKEQ_clean_linker_1, # of connection points: 2
#     Edge 33, Type (0, 0), BuildingBlock: KIFKEQ_clean_linker_1, # of connection points: 2
#     Edge 34, Type (0, 0), BuildingBlock: KIFKEQ_clean_linker_1, # of connection points: 2
#     Edge 35, Type (0, 0), BuildingBlock: KIFKEQ_clean_linker_1, # of connection points: 2
#     Edge 36, Type (0, 0), BuildingBlock: KIFKEQ_clean_linker_1, # of connection points: 2
#     Edge 37, Type (0, 0), BuildingBlock: KIFKEQ_clean_linker_1, # of connection points: 2
#     Edge 38, Type (0, 0), BuildingBlock: KIFKEQ_clean_linker_1, # of connection points: 2
#     Edge 39, Type (0, 0), BuildingBlock: KIFKEQ_clean_linker_1, # of connection points: 2
#     Edge 40, Type (0, 0), BuildingBlock: KIFKEQ_clean_linker_1, # of connection points: 2
#     Edge 41, Type (0, 0), BuildingBlock: KIFKEQ_clean_linker_1, # of connection points: 2
#     Edge 42, Type (0, 0), BuildingBlock: KIFKEQ_clean_linker_1, # of connection points: 2
#     Edge 43, Type (0, 0), BuildingBlock: KIFKEQ_clean_linker_1, # of connection points: 2
#     Edge 44, Type (0, 0), BuildingBlock: KIFKEQ_clean_linker_1, # of connection points: 2
#     Edge 45, Type (0, 0), BuildingBlock: KIFKEQ_clean_linker_1, # of connection points: 2
#     Edge 46, Type (0, 0), BuildingBlock: KIFKEQ_clean_linker_1, # of connection points: 2
#     Edge 47, Type (0, 0), BuildingBlock: KIFKEQ_clean_linker_1, # of connection points: 2
# Relax obj value: 0.236
# Max RMSD: 0.190
# Mean RMSD: 0.190
data_MOF--net-umz--node1-QUQFOY_clean_sbu_1--edge1-KIFKEQ_clean_linker_1
_symmetry_space_group_name_H-M    P1
_symmetry_Int_Tables_number       1
_symmetry_cell_setting            triclinic
loop_
_symmetry_equiv_pos_as_xyz
'x, y, z'
_cell_length_a     65.466384
_cell_length_b     65.493597
_cell_length_c     22.650133
_cell_angle_alpha  89.95418
_cell_angle_beta   90.097941
_cell_angle_gamma 89.978246
loop_
_atom_site_label
_atom_site_type_symbol
_atom_site_fract_x
_atom_site_fract_y
_atom_site_fract_z
_atom_type_partial_charge
O0 O 0.0528 0.6336 0.01111 0.0
Cd1 Cd 0.043 0.64945 0.08359 0.0
Cd2 Cd 0.01499 0.61914 0.08107 0.0
O3 O 0.02574 0.6143 -0.00369 0.0
O4 O 0.05778 0.67579 0.07477 0.0
O5 O 0.02409 0.67362 0.0734 0.0
C6 C 0.04035 0.68463 0.06786 0.0
C7 C 0.98067 0.61519 0.10717 0.0
C8 C 0.04327 0.62053 0.98028 0.0
C9 C 0.04738 0.61861 0.17676 0.0
O10 O 0.03391 0.60895 0.1476 0.0
O11 O 0.05225 0.63675 0.16248 0.0
O12 O 0.99136 0.60015 0.08768 0.0
O13 O 0.98901 0.63306 0.10791 0.0
O14 O 0.8783 0.04743 0.48666 0.0
Cd15 Cd 0.86467 0.03847 0.56435 0.0
Cd16 Cd 0.89416 0.01135 0.55904 0.0
O17 O 0.8957 0.01917 0.47117 0.0
O18 O 0.83717 0.05138 0.56193 0.0
O19 O 0.84181 0.01793 0.55848 0.0
C20 C 0.82951 0.03336 0.55595 0.0
C21 C 0.89724 0.97812 0.59543 0.0
C22 C 0.88967 0.03662 0.45375 0.0
C23 C 0.89838 0.0452 0.64687 0.0
O24 O 0.90746 0.03226 0.61449 0.0
O25 O 0.87932 0.0483 0.64039 0.0
O26 O 0.91204 0.98696 0.56806 0.0
O27 O 0.87996 0.9876 0.59832 0.0
O28 O 0.46701 0.87968 -0.01237 0.0
Cd29 Cd 0.47569 0.86593 0.06556 0.0
Cd30 Cd 0.50225 0.89637 0.06217 0.0
O31 O 0.4947 0.89818 0.97403 0.0
O32 O 0.46233 0.83866 0.06258 0.0
O33 O 0.49586 0.84268 0.06053 0.0
C34 C 0.48024 0.83066 0.0576 0.0
C35 C 0.53528 0.90001 0.10008 0.0
C36 C 0.47755 0.89162 0.95564 0.0
C37 C 0.46778 0.89931 0.14835 0.0
O38 O 0.48069 0.90883 0.11696 0.0
O39 O 0.4652 0.88022 0.14129 0.0
O40 O 0.5262 0.91475 0.07298 0.0
O41 O 0.52619 0.88251 0.10195 0.0
O42 O 0.63319 0.46854 0.4889 0.0
Cd43 Cd 0.64678 0.47735 0.5669 0.0
Cd44 Cd 0.61648 0.50402 0.5621 0.0
O45 O 0.61493 0.49633 0.47414 0.0
O46 O 0.67396 0.46378 0.56506 0.0
O47 O 0.67018 0.49732 0.56158 0.0
C48 C 0.68209 0.4816 0.55951 0.0
C49 C 0.61287 0.53716 0.59878 0.0
C50 C 0.62143 0.47912 0.45631 0.0
C51 C 0.61319 0.46983 0.64925 0.0
O52 O 0.60376 0.48268 0.61726 0.0
O53 O 0.63229 0.46716 0.64263 0.0
O54 O 0.59815 0.52805 0.57172 0.0
O55 O 0.63034 0.52801 0.60132 0.0
O56 O 0.0452 0.88319 -0.00656 0.0
Cd57 Cd 0.03974 0.86724 0.91719 0.0
Cd58 Cd 0.01067 0.89787 0.90703 0.0
O59 O 0.01888 0.90421 -0.0068 0.0
O60 O 0.05561 0.84185 0.93212 0.0
O61 O 0.02212 0.84186 0.91994 0.0
C62 C 0.03864 0.8319 0.93207 0.0
C63 C 0.97711 0.90222 0.87312 0.0
C64 C 0.03487 0.89721 0.01794 0.0
C65 C 0.04674 0.89769 0.82263 0.0
O66 O 0.0315 0.90695 0.84459 0.0
O67 O 0.05206 0.88024 0.84203 0.0
O68 O 0.98777 0.91729 0.89259 0.0
O69 O 0.98501 0.88418 0.87621 0.0
O70 O 0.63579 0.04859 0.46964 0.0
Cd71 Cd 0.64942 0.0365 0.39574 0.0
Cd72 Cd 0.61924 0.01086 0.40949 0.0
O73 O 0.6188 0.02105 0.49569 0.0
O74 O 0.67705 0.04914 0.39466 0.0
O75 O 0.67208 0.01607 0.40835 0.0
C76 C 0.68453 0.03137 0.4063 0.0
C77 C 0.6152 0.97714 0.37845 0.0
C78 C 0.62478 0.03913 0.5068 0.0
C79 C 0.61582 0.0418 0.31294 0.0
O80 O 0.60636 0.03075 0.34998 0.0
O81 O 0.63508 0.04395 0.31718 0.0
O82 O 0.60078 0.98675 0.40537 0.0
O83 O 0.63273 0.98609 0.37383 0.0
O84 O 0.467 0.63527 -0.00968 0.0
Cd85 Cd 0.47561 0.64907 0.91245 0.0
Cd86 Cd 0.50269 0.61915 0.91672 0.0
O87 O 0.49512 0.61746 0.00472 0.0
O88 O 0.46226 0.67635 0.91499 0.0
O89 O 0.4958 0.67227 0.9177 0.0
C90 C 0.48018 0.68432 0.92026 0.0
C91 C 0.53579 0.61539 0.87982 0.0
C92 C 0.4778 0.62365 0.0227 0.0
C93 C 0.46834 0.61553 0.82988 0.0
O94 O 0.48136 0.60628 0.86172 0.0
O95 O 0.46542 0.63459 0.83659 0.0
O96 O 0.52667 0.60075 0.90711 0.0
O97 O 0.5267 0.63288 0.87722 0.0
O98 O 0.87784 0.46534 0.47593 0.0
Cd99 Cd 0.8624 0.47348 0.4006 0.0
Cd100 Cd 0.89333 0.50105 0.39456 0.0
O101 O 0.89884 0.49162 0.48019 0.0
O102 O 0.83513 0.46045 0.4096 0.0
O103 O 0.83946 0.49393 0.40781 0.0
C104 C 0.82738 0.47848 0.41403 0.0
C105 C 0.89828 0.53487 0.36425 0.0
C106 C 0.89181 0.47522 0.50237 0.0
C107 C 0.89263 0.46655 0.306 0.0
O108 O 0.90256 0.48085 0.33065 0.0
O109 O 0.87477 0.46198 0.32358 0.0
O110 O 0.91308 0.52388 0.38398 0.0
O111 O 0.88014 0.52715 0.36515 0.0
O112 O 0.96225 0.3759 0.96675 0.0
Cd113 Cd 0.97445 0.36232 0.89294 0.0
Cd114 Cd 1.00032 0.39178 0.90721 0.0
O115 O 0.99005 0.39236 -0.00668 0.0
O116 O 0.96236 0.33447 0.89146 0.0
O117 O 0.99533 0.34014 0.90583 0.0
C118 C 0.98028 0.32738 0.90342 0.0
C119 C 0.03416 0.39423 0.87624 0.0
C120 C 0.97185 0.38669 0.00417 0.0
C121 C 0.96969 0.39599 0.81033 0.0
O122 O 0.98083 0.40525 0.8476 0.0
O123 O 0.96726 0.37677 0.81441 0.0
O124 O 0.02525 0.40909 0.90322 0.0
O125 O 0.02439 0.37716 0.87144 0.0
O126 O 0.13484 0.96866 0.48117 0.0
Cd127 Cd 0.14789 0.98044 0.40596 0.0
Cd128 Cd 0.11798 1.00627 0.4209 0.0
O129 O 0.11808 0.99631 0.50742 0.0
O130 O 0.17534 0.96743 0.40308 0.0
O131 O 0.1709 1.00058 0.41658 0.0
C132 C 0.18314 0.98511 0.41392 0.0
C133 C 0.11472 0.03984 0.38805 0.0
C134 C 0.12415 0.97827 0.51876 0.0
C135 C 0.11355 0.97535 0.32521 0.0
O136 O 0.10439 0.98646 0.36266 0.0
O137 O 0.13281 0.97304 0.32853 0.0
O138 O 0.1002 0.03087 0.41635 0.0
O139 O 0.13198 0.03038 0.38336 0.0
O140 O 0.54737 0.13432 0.97839 0.0
Cd141 Cd 0.53945 0.14985 0.90304 0.0
Cd142 Cd 0.51146 0.11907 0.89686 0.0
O143 O 0.52094 0.11349 0.98243 0.0
O144 O 0.55284 0.17695 0.91213 0.0
O145 O 0.51929 0.17306 0.91011 0.0
C146 C 0.53491 0.18494 0.91639 0.0
C147 C 0.47762 0.11415 0.86634 0.0
C148 C 0.53739 0.12041 0.00469 0.0
C149 C 0.54603 0.11955 0.80833 0.0
O150 O 0.5316 0.10979 0.83286 0.0
O151 O 0.55083 0.13733 0.82607 0.0
O152 O 0.48862 0.09934 0.88594 0.0
O153 O 0.48533 0.13229 0.86764 0.0
O154 O 0.37997 0.54609 0.48934 0.0
Cd155 Cd 0.36651 0.53685 0.41157 0.0
Cd156 Cd 0.39682 0.51059 0.41674 0.0
O157 O 0.3984 0.51845 0.50458 0.0
O158 O 0.33885 0.5494 0.41364 0.0
O159 O 0.34391 0.51602 0.41718 0.0
C160 C 0.33141 0.53128 0.41943 0.0
C161 C 0.40036 0.47741 0.3804 0.0
C162 C 0.3918 0.53567 0.5221 0.0
C163 C 0.39991 0.54463 0.32904 0.0
O164 O 0.40941 0.53188 0.36117 0.0
O165 O 0.38078 0.54718 0.33564 0.0
O166 O 0.41513 0.48654 0.40721 0.0
O167 O 0.38289 0.48657 0.37796 0.0
O168 O 0.96811 0.13353 0.98611 0.0
Cd169 Cd 0.97668 0.14746 0.06378 0.0
Cd170 Cd 1.00316 0.11711 0.06117 0.0
O171 O 0.99583 0.11504 0.97293 0.0
O172 O 0.96319 0.17466 0.05957 0.0
O173 O 0.99675 0.17078 0.05827 0.0
C174 C 0.98107 0.18271 0.05445 0.0
C175 C 0.03606 0.11411 0.10041 0.0
C176 C 0.97868 0.12156 0.95434 0.0
C177 C 0.9686 0.11426 0.14697 0.0
O178 O 0.98152 0.10468 0.11577 0.0
O179 O 0.96608 0.13336 0.13972 0.0
O180 O 0.02734 0.09912 0.07354 0.0
O181 O 0.0267 0.13149 0.10118 0.0
O182 O 0.37756 0.96656 0.48756 0.0
Cd183 Cd 0.36399 0.97556 0.56528 0.0
Cd184 Cd 0.39369 1.0025 0.56023 0.0
O185 O 0.39526 0.99466 0.4724 0.0
O186 O 0.33636 0.96293 0.56284 0.0
O187 O 0.34132 0.99633 0.55968 0.0
C188 C 0.32887 0.98104 0.55712 0.0
C189 C 0.39705 0.03577 0.59607 0.0
C190 C 0.38909 0.97729 0.45483 0.0
C191 C 0.39761 0.96851 0.64799 0.0
O192 O 0.40678 0.98148 0.61588 0.0
O193 O 0.37855 0.9655 0.64127 0.0
O194 O 0.41178 0.02673 0.56898 0.0
O195 O 0.37969 0.02645 0.59916 0.0
O196 O 0.54594 0.37962 -0.01168 0.0
Cd197 Cd 0.53737 0.36594 0.06637 0.0
Cd198 Cd 0.51029 0.39582 0.06182 0.0
O199 O 0.5178 0.39739 0.97378 0.0
O200 O 0.55092 0.33875 0.06438 0.0
O201 O 0.51736 0.34259 0.06128 0.0
C202 C 0.53306 0.33065 0.05906 0.0
C203 C 0.47718 0.39936 0.09886 0.0
C204 C 0.53511 0.39119 0.95582 0.0
C205 C 0.54458 0.39961 0.14861 0.0
O206 O 0.53158 0.40883 0.11664 0.0
O207 O 0.54749 0.38054 0.14207 0.0
O208 O 0.48618 0.41405 0.07142 0.0
O209 O 0.48641 0.38194 0.10153 0.0
O210 O 0.13686 0.54468 0.51331 0.0
Cd211 Cd 0.15187 0.5332 0.58552 0.0
Cd212 Cd 0.12003 0.50736 0.58106 0.0
O213 O 0.11647 0.5186 0.49612 0.0
O214 O 0.17922 0.54634 0.58102 0.0
O215 O 0.17478 0.51303 0.57222 0.0
C216 C 0.18692 0.52857 0.57093 0.0
C217 C 0.11486 0.47334 0.60832 0.0
C218 C 0.12357 0.53594 0.48125 0.0
C219 C 0.12089 0.539 0.67751 0.0
O220 O 0.11033 0.52668 0.6468 0.0
O221 O 0.1395 0.54234 0.66482 0.0
O222 O 0.10026 0.48436 0.58732 0.0
O223 O 0.133 0.4811 0.60936 0.0
H224 H 0.00715 0.71044 0.06769 0.0
H225 H 0.07139 0.70774 0.02544 0.0
H226 H 1.00611 0.74604 0.03471 0.0
H227 H 0.07021 0.74255 -0.01018 0.0
H228 H 0.06886 0.81077 0.98675 0.0
H229 H 0.06834 0.77591 0.02198 0.0
H230 H 0.0073 0.76833 0.95203 0.0
H231 H 0.00751 0.80398 0.91934 0.0
C232 C 0.02102 0.71744 0.0513 0.0
C233 C 0.0394 0.70636 0.04989 0.0
C234 C 0.0204 0.73778 0.03182 0.0
C235 C 0.03811 0.74735 0.00979 0.0
C236 C 0.05636 0.73603 0.00785 0.0
C237 C 0.05704 0.71593 0.02812 0.0
C238 C 0.05534 0.80168 0.97847 0.0
C239 C 0.03829 0.81012 0.94976 0.0
C240 C 0.05507 0.78155 -0.00148 0.0
C241 C 0.03786 0.76906 -0.01053 0.0
C242 C 0.02075 0.7775 0.96048 0.0
C243 C 0.02092 0.79787 0.94118 0.0
H244 H 0.70373 0.99875 0.45879 0.0
H245 H 0.7147 0.05944 0.39119 0.0
H246 H 0.73854 0.99776 0.49838 0.0
H247 H 0.7494 0.05828 0.42919 0.0
H248 H 0.80995 0.9992 0.51401 0.0
H249 H 0.7751 0.99715 0.47511 0.0
H250 H 0.76485 0.05994 0.52532 0.0
H251 H 0.7996 0.06212 0.56259 0.0
C252 C 0.71368 0.0117 0.45137 0.0
C253 C 0.70639 0.02924 0.42228 0.0
C254 C 0.73362 0.01114 0.4741 0.0
C255 C 0.74665 0.02811 0.46804 0.0
C256 C 0.73961 0.04517 0.4362 0.0
C257 C 0.71975 0.04576 0.41385 0.0
C258 C 0.80012 0.01246 0.51746 0.0
C259 C 0.8076 0.03088 0.54093 0.0
C260 C 0.78015 0.01128 0.49513 0.0
C261 C 0.76729 0.0285 0.49597 0.0
C262 C 0.77451 0.04655 0.52236 0.0
C263 C 0.7944 0.04775 0.5443 0.0
H264 H 0.51368 0.81061 0.01319 0.0
H265 H 0.45142 0.80106 0.0694 0.0
H266 H 0.51508 0.77547 0.97675 0.0
H267 H 0.45297 0.76597 0.03502 0.0
H268 H 0.51363 0.70432 0.96504 0.0
H269 H 0.51505 0.73947 0.00139 0.0
H270 H 0.45299 0.74907 0.94223 0.0
H271 H 0.4514 0.71398 0.90794 0.0
C272 C 0.50045 0.80089 0.01885 0.0
C273 C 0.48238 0.80866 0.04373 0.0
C274 C 0.50124 0.78074 -0.00206 0.0
C275 C 0.484 0.76796 0.00183 0.0
C276 C 0.46634 0.77552 0.02959 0.0
C277 C 0.46551 0.79561 0.04992 0.0
C278 C 0.50041 0.71407 0.95917 0.0
C279 C 0.48234 0.70632 0.93407 0.0
C280 C 0.50121 0.73422 0.98002 0.0
C281 C 0.48399 0.74703 0.97587 0.0
C282 C 0.46634 0.7395 0.94787 0.0
C283 C 0.46549 0.7194 0.92759 0.0
H284 H 0.71161 0.4529 0.57515 0.0
H285 H 0.70223 0.51433 0.51129 0.0
H286 H 0.74663 0.45374 0.53989 0.0
H287 H 0.73727 0.51497 0.47391 0.0
H288 H 0.79745 0.44978 0.40898 0.0
H289 H 0.76278 0.45219 0.44619 0.0
H290 H 0.77347 0.51493 0.4964 0.0
H291 H 0.80821 0.51266 0.45708 0.0
C292 C 0.71709 0.46666 0.55386 0.0
C293 C 0.70411 0.48349 0.54567 0.0
C294 C 0.73713 0.46708 0.53304 0.0
C295 C 0.74468 0.48425 0.50273 0.0
C296 C 0.732 0.5015 0.49706 0.0
C297 C 0.71191 0.50115 0.5185 0.0
C298 C 0.79237 0.46417 0.42737 0.0
C299 C 0.80563 0.48099 0.43036 0.0
C300 C 0.77252 0.46551 0.44933 0.0
C301 C 0.76542 0.48362 0.47558 0.0
C302 C 0.77841 0.50075 0.47645 0.0
C303 C 0.79831 0.49946 0.45391 0.0
H304 H 0.95295 0.29659 0.88749 0.0
H305 H 0.01319 0.30896 0.95675 0.0
H306 H 0.95478 0.26195 0.92563 0.0
H307 H 0.01485 0.27423 -0.00351 0.0
H308 H 0.01494 0.2029 0.01317 0.0
H309 H 0.01635 0.23769 0.97371 0.0
H310 H 0.95315 0.24663 0.02184 0.0
H311 H 0.95162 0.21195 0.05964 0.0
C312 C 0.96667 0.29186 0.91054 0.0
C313 C 0.98286 0.30558 0.9194 0.0
C314 C 0.96765 0.27203 0.93296 0.0
C315 C 0.98478 0.26541 0.96533 0.0
C316 C 1.00143 0.27882 0.9718 0.0
C317 C 1.00049 0.29871 0.94898 0.0
C318 C 1.00146 0.21243 0.01603 0.0
C319 C 0.98312 0.20461 0.03907 0.0
C320 C 1.00226 0.23236 -0.00663 0.0
C321 C 0.98474 0.24483 -0.00652 0.0
C322 C 0.96676 0.23728 0.01943 0.0
C323 C 0.96594 0.21742 0.04169 0.0
H324 H 0.29872 0.95256 0.56381 0.0
H325 H 0.30953 0.0155 0.51619 0.0
H326 H 0.26385 0.95523 0.52776 0.0
H327 H 0.27455 0.01806 0.47848 0.0
H328 H 0.20309 0.0174 0.46552 0.0
H329 H 0.23816 0.01785 0.5032 0.0
H330 H 0.24783 0.95736 0.4326 0.0
H331 H 0.21287 0.95672 0.39654 0.0
C332 C 0.2936 0.96704 0.54596 0.0
C333 C 0.30695 0.98377 0.54255 0.0
C334 C 0.27363 0.96852 0.52471 0.0
C335 C 0.26649 0.98673 0.49897 0.0
C336 C 0.27954 1.00381 0.498 0.0
C337 C 0.29958 1.00234 0.51965 0.0
C338 C 0.21284 1.00434 0.45735 0.0
C339 C 0.20514 0.98695 0.42848 0.0
C340 C 0.23293 1.00459 0.47899 0.0
C341 C 0.24571 0.98747 0.47201 0.0
C342 C 0.23826 0.97058 0.44031 0.0
C343 C 0.21824 0.97028 0.41907 0.0
H344 H 0.56396 0.21451 0.91091 0.0
H345 H 0.50097 0.20457 0.95928 0.0
H346 H 0.56194 0.24931 0.94734 0.0
H347 H 0.49908 0.23941 -0.0021 0.0
H348 H 0.50016 0.31054 0.01155 0.0
H349 H 0.49928 0.27543 0.97489 0.0
H350 H 0.56065 0.26597 0.04007 0.0
H351 H 0.56173 0.30107 0.07454 0.0
C352 C 0.54963 0.2198 0.92923 0.0
C353 C 0.53266 0.20674 0.93247 0.0
C354 C 0.54852 0.23972 0.95074 0.0
C355 C 0.53047 0.2471 0.97683 0.0
C356 C 0.51321 0.23428 0.97804 0.0
C357 C 0.51428 0.21431 0.95591 0.0
C358 C 0.51333 0.30083 0.01872 0.0
C359 C 0.53109 0.30862 0.04546 0.0
C360 C 0.51284 0.28069 -0.00231 0.0
C361 C 0.53005 0.26794 0.00339 0.0
C362 C 0.54733 0.2755 0.0332 0.0
C363 C 0.54789 0.2956 0.05358 0.0
H364 H 0.31238 0.49721 0.46374 0.0
H365 H 0.30102 0.55938 0.4091 0.0
H366 H 0.27753 0.49498 0.50229 0.0
H367 H 0.26627 0.55701 0.44591 0.0
H368 H 0.20627 0.4957 0.52039 0.0
H369 H 0.24089 0.4948 0.47961 0.0
H370 H 0.25114 0.55625 0.54223 0.0
H371 H 0.21664 0.55731 0.58132 0.0
C372 C 0.30232 0.51024 0.45883 0.0
C373 C 0.30952 0.52854 0.43388 0.0
C374 C 0.28236 0.50896 0.48095 0.0
C375 C 0.26922 0.52596 0.47835 0.0
C376 C 0.27614 0.54382 0.45027 0.0
C377 C 0.29604 0.54513 0.4286 0.0
C378 C 0.21605 0.5089 0.52602 0.0
C379 C 0.20865 0.52664 0.55364 0.0
C380 C 0.23588 0.50839 0.50263 0.0
C381 C 0.24867 0.5256 0.50656 0.0
C382 C 0.24152 0.54293 0.53682 0.0
C383 C 0.22177 0.54347 0.55979 0.0
H384 H 0.08374 0.6229 0.95481 0.0
H385 H 0.02746 0.5954 0.89451 0.0
H386 H 0.10275 0.60318 0.88347 0.0
H387 H 0.04646 0.57638 0.82001 0.0
H388 H 0.08748 0.52792 0.7412 0.0
H389 H 0.06857 0.54853 0.81179 0.0
H390 H 0.11134 0.59808 0.78576 0.0
H391 H 0.13083 0.57691 0.71791 0.0
C392 C 0.07533 0.61298 0.92524 0.0
C393 C 0.05405 0.61067 0.93053 0.0
C394 C 0.08629 0.60167 0.88395 0.0
C395 C 0.07625 0.588 0.84596 0.0
C396 C 0.05481 0.58637 0.84947 0.0
C397 C 0.04385 0.59745 0.89167 0.0
C398 C 0.09295 0.54314 0.7513 0.0
C399 C 0.11068 0.55078 0.72444 0.0
C400 C 0.08196 0.55509 0.79116 0.0
C401 C 0.08821 0.57514 0.8042 0.0
C402 C 0.10616 0.58264 0.77767 0.0
C403 C 0.11738 0.57051 0.7387 0.0
H404 H 0.94498 0.12898 0.23757 0.0
H405 H 0.96307 0.07318 0.15043 0.0
H406 H 0.92426 0.1092 0.30658 0.0
H407 H 0.9418 0.05359 0.21715 0.0
H408 H 0.92299 0.02385 0.39171 0.0
H409 H 0.94114 0.04256 0.31559 0.0
H410 H 0.89425 0.08908 0.31712 0.0
H411 H 0.87651 0.07068 0.39523 0.0
C412 C 0.94441 0.11253 0.23291 0.0
C413 C 0.95584 0.10265 0.18901 0.0
C414 C 0.9324 0.10118 0.27206 0.0
C415 C 0.93135 0.07974 0.26755 0.0
C416 C 0.94252 0.06999 0.22281 0.0
C417 C 0.9547 0.08127 0.18436 0.0
C418 C 0.91633 0.03786 0.37503 0.0
C419 C 0.89837 0.04582 0.39975 0.0
C420 C 0.92675 0.04864 0.33124 0.0
C421 C 0.91931 0.0675 0.31055 0.0
C422 C 0.9007 0.07487 0.33298 0.0
C423 C 0.8904 0.06419 0.37729 0.0
H424 H 0.44436 0.87742 0.89508 0.0
H425 H 0.48915 0.92586 0.89558 0.0
H426 H 0.4255 0.89488 0.81715 0.0
H427 H 0.46995 0.94369 0.81952 0.0
H428 H 0.43896 0.96499 0.65332 0.0
H429 H 0.45924 0.94446 0.72051 0.0
H430 H 0.40412 0.9241 0.80737 0.0
H431 H 0.38367 0.9441 0.73801 0.0
C432 C 0.45031 0.89169 0.87805 0.0
C433 C 0.46823 0.90028 0.90161 0.0
C434 C 0.43936 0.90182 0.83386 0.0
C435 C 0.44599 0.92087 0.81258 0.0
C436 C 0.46444 0.92897 0.83431 0.0
C437 C 0.4755 0.91873 0.87804 0.0
C438 C 0.43111 0.95616 0.68679 0.0
C439 C 0.40967 0.95628 0.69055 0.0
C440 C 0.4428 0.94441 0.72552 0.0
C441 C 0.43339 0.93263 0.76961 0.0
C442 C 0.4119 0.93271 0.77335 0.0
C443 C 0.40016 0.94432 0.73399 0.0
H444 H 0.56871 0.38556 0.23927 0.0
H445 H 0.54869 0.44088 0.1526 0.0
H446 H 0.58883 0.4059 0.30846 0.0
H447 H 0.56936 0.46105 0.21962 0.0
H448 H 0.58758 0.491 0.39476 0.0
H449 H 0.56987 0.47191 0.3184 0.0
H450 H 0.61825 0.42695 0.31866 0.0
H451 H 0.63558 0.44571 0.39692 0.0
C452 C 0.56872 0.40203 0.23476 0.0
C453 C 0.55695 0.4116 0.19087 0.0
C454 C 0.5804 0.4137 0.27403 0.0
C455 C 0.58074 0.43517 0.26971 0.0
C456 C 0.5692 0.44463 0.22508 0.0
C457 C 0.55736 0.43301 0.18646 0.0
C458 C 0.59465 0.47726 0.37774 0.0
C459 C 0.61292 0.46982 0.40215 0.0
C460 C 0.58448 0.46627 0.33383 0.0
C461 C 0.59249 0.44771 0.31275 0.0
C462 C 0.61138 0.4409 0.33485 0.0
C463 C 0.62144 0.45179 0.37924 0.0
H464 H 0.12727 0.94981 0.2379 0.0
H465 H 0.07214 0.9756 0.3117 0.0
H466 H 0.10674 0.93037 0.1677 0.0
H467 H 0.0517 0.9558 0.24285 0.0
H468 H 0.02451 0.93435 0.06457 0.0
H469 H 0.04321 0.95341 0.13963 0.0
H470 H 0.08336 0.9018 0.16605 0.0
H471 H 0.06502 0.88296 0.09015 0.0
C472 C 0.1108 0.95134 0.23916 0.0
C473 C 0.10138 0.96426 0.28041 0.0
C474 C 0.099 0.94006 0.19933 0.0
C475 C 0.07754 0.9414 0.20002 0.0
C476 C 0.06817 0.95454 0.24076 0.0
C477 C 0.07994 0.96584 0.28038 0.0
C478 C 0.03707 0.92693 0.08724 0.0
C479 C 0.04337 0.90721 0.07108 0.0
C480 C 0.04783 0.93787 0.13021 0.0
C481 C 0.06501 0.92925 0.1581 0.0
C482 C 0.07054 0.90908 0.14431 0.0
C483 C 0.05987 0.8982 0.10123 0.0
H484 H 0.58502 0.12821 0.77245 0.0
H485 H 0.53462 0.08701 0.74158 0.0
H486 H 0.60624 0.10817 0.70549 0.0
H487 H 0.55543 0.0675 0.67321 0.0
H488 H 0.60098 0.02442 0.59684 0.0
H489 H 0.58322 0.0443 0.67187 0.0
H490 H 0.61119 0.09945 0.60513 0.0
H491 H 0.62953 0.07955 0.53215 0.0
C492 C 0.57837 0.1151 0.75051 0.0
C493 C 0.55818 0.10916 0.76237 0.0
C494 C 0.59053 0.10358 0.71221 0.0
C495 C 0.58266 0.08601 0.68452 0.0
C496 C 0.56222 0.08056 0.695 0.0
C497 C 0.55018 0.0919 0.73369 0.0
C498 C 0.60363 0.04073 0.59897 0.0
C499 C 0.61654 0.05039 0.55818 0.0
C500 C 0.59327 0.05218 0.64155 0.0
C501 C 0.59545 0.07356 0.64387 0.0
C502 C 0.6092 0.08304 0.60499 0.0
C503 C 0.61969 0.07158 0.56289 0.0
H504 H 0.44111 0.54952 0.32484 0.0
H505 H 0.38532 0.56846 0.23847 0.0
H506 H 0.46082 0.57069 0.25811 0.0
H507 H 0.40521 0.58909 0.16952 0.0
H508 H 0.44402 0.63689 0.0821 0.0
H509 H 0.4256 0.61897 0.15984 0.0
H510 H 0.47168 0.57166 0.15948 0.0
H511 H 0.49042 0.58996 0.08369 0.0
C512 C 0.43304 0.55805 0.29108 0.0
C513 C 0.41163 0.5572 0.2867 0.0
C514 C 0.44439 0.57017 0.25262 0.0
C515 C 0.43467 0.58158 0.20818 0.0
C516 C 0.41321 0.58078 0.20383 0.0
C517 C 0.40179 0.56881 0.24294 0.0
C518 C 0.45041 0.62287 0.09955 0.0
C519 C 0.46866 0.61482 0.07662 0.0
C520 C 0.43972 0.61247 0.14363 0.0
C521 C 0.44695 0.59369 0.16541 0.0
C522 C 0.46571 0.58616 0.14431 0.0
C523 C 0.47651 0.59668 0.10072 0.0
H524 H 0.96864 0.43739 0.79879 0.0
H525 H 0.94537 0.38191 0.72033 0.0
H526 H 0.94879 0.45755 0.72943 0.0
H527 H 0.92594 0.40219 0.64934 0.0
H528 H 0.87812 0.44319 0.56853 0.0
H529 H 0.8968 0.42451 0.6443 0.0
H530 H 0.94713 0.46681 0.62771 0.0
H531 H 0.9282 0.48583 0.55322 0.0
C532 C 0.95946 0.42946 0.76627 0.0
C533 C 0.95859 0.408 0.76515 0.0
C534 C 0.94811 0.44107 0.72632 0.0
C535 C 0.93569 0.43153 0.68393 0.0
C536 C 0.93505 0.41005 0.68217 0.0
C537 C 0.94634 0.3984 0.72246 0.0
C538 C 0.89304 0.4487 0.58175 0.0
C539 C 0.9017 0.46597 0.5547 0.0
C540 C 0.90384 0.43785 0.62473 0.0
C541 C 0.9236 0.44395 0.64144 0.0
C542 C 0.93189 0.46174 0.61621 0.0
C543 C 0.92102 0.47269 0.57348 0.0
H544 H 0.98694 0.40998 0.09487 0.0
H545 H 0.93127 0.38279 0.02879 0.0
H546 H 0.96735 0.42801 0.16996 0.0
H547 H 0.91167 0.40141 0.10187 0.0
H548 H 0.88324 0.42782 0.26932 0.0
H549 H 0.90293 0.40631 0.20225 0.0
H550 H 0.94474 0.45629 0.17158 0.0
H551 H 0.92557 0.47737 0.24006 0.0
C552 C 0.97057 0.40769 0.09671 0.0
C553 C 0.96069 0.39507 0.05553 0.0
C554 C 0.95929 0.4182 0.13933 0.0
C555 C 0.93785 0.41649 0.14131 0.0
C556 C 0.92813 0.40304 0.10201 0.0
C557 C 0.93942 0.39238 0.05986 0.0
C558 C 0.89653 0.43422 0.24773 0.0
C559 C 0.90288 0.45426 0.26006 0.0
C560 C 0.90785 0.4219 0.20935 0.0
C561 C 0.92563 0.42945 0.18206 0.0
C562 C 0.93151 0.44974 0.19304 0.0
C563 C 0.92036 0.46193 0.2318 0.0
H564 H 0.03499 0.92967 0.75399 0.0
H565 H 0.0863 0.89 0.78969 0.0
H566 H 0.0557 0.94937 0.68586 0.0
H567 H 0.10739 0.91024 0.72268 0.0
H568 H 0.13006 0.93818 0.54682 0.0
H569 H 0.1123 0.91837 0.62129 0.0
H570 H 0.08303 0.97328 0.68478 0.0
H571 H 0.10023 0.99305 0.60841 0.0
C572 C 0.05074 0.92516 0.74728 0.0
C573 C 0.05901 0.90827 0.77724 0.0
C574 C 0.06271 0.93663 0.70869 0.0
C575 C 0.08334 0.93165 0.69947 0.0
C576 C 0.09152 0.91446 0.7285 0.0
C577 C 0.07945 0.90283 0.76681 0.0
C578 C 0.12006 0.94613 0.57717 0.0
C579 C 0.11636 0.9672 0.57111 0.0
C580 C 0.10992 0.93472 0.62013 0.0
C581 C 0.09595 0.94413 0.65847 0.0
C582 C 0.09327 0.96543 0.65491 0.0
C583 C 0.1033 0.97684 0.61154 0.0
H584 H 0.57443 0.04333 0.30108 0.0
H585 H 0.63024 0.06604 0.22325 0.0
H586 H 0.55452 0.06337 0.23162 0.0
H587 H 0.61019 0.08567 0.1521 0.0
H588 H 0.56958 0.13381 0.07091 0.0
H589 H 0.58811 0.11499 0.14669 0.0
H590 H 0.54538 0.06503 0.12987 0.0
H591 H 0.5265 0.08411 0.05538 0.0
C592 C 0.58249 0.05243 0.26868 0.0
C593 C 0.60397 0.05308 0.26775 0.0
C594 C 0.57102 0.06389 0.22866 0.0
C595 C 0.58072 0.07619 0.18637 0.0
C596 C 0.60222 0.07663 0.18484 0.0
C597 C 0.61373 0.06524 0.22522 0.0
C598 C 0.56394 0.11894 0.08408 0.0
C599 C 0.54658 0.11043 0.05698 0.0
C600 C 0.57471 0.10806 0.12707 0.0
C601 C 0.56844 0.08836 0.14374 0.0
C602 C 0.55057 0.08022 0.11842 0.0
C603 C 0.53971 0.09117 0.07569 0.0
H604 H 0.42559 0.52393 0.58419 0.0
H605 H 0.37766 0.56929 0.58054 0.0
H606 H 0.44321 0.54317 0.66041 0.0
H607 H 0.39489 0.5882 0.65869 0.0
H608 H 0.44436 0.62959 0.73886 0.0
H609 H 0.42431 0.60923 0.66947 0.0
H610 H 0.44348 0.55411 0.75903 0.0
H611 H 0.46407 0.57429 0.82619 0.0
C612 C 0.41852 0.53772 0.60084 0.0
C613 C 0.40028 0.54513 0.57608 0.0
C614 C 0.42863 0.5488 0.64468 0.0
C615 C 0.4206 0.56741 0.66537 0.0
C616 C 0.40176 0.5742 0.64284 0.0
C617 C 0.39176 0.56323 0.59851 0.0
C618 C 0.44429 0.61312 0.74348 0.0
C619 C 0.45597 0.60356 0.78758 0.0
C620 C 0.43266 0.60144 0.7041 0.0
C621 C 0.43227 0.57997 0.70853 0.0
C622 C 0.4437 0.57053 0.75344 0.0
C623 C 0.45549 0.58215 0.79214 0.0
H624 H 0.88462 0.06979 0.7366 0.0
H625 H 0.93977 0.04817 0.65272 0.0
H626 H 0.9052 0.08959 0.80598 0.0
H627 H 0.9602 0.06848 0.71997 0.0
H628 H 0.99005 0.08706 0.89525 0.0
H629 H 0.97079 0.06928 0.81924 0.0
H630 H 0.92689 0.11861 0.81515 0.0
H631 H 0.9458 0.13601 0.89292 0.0
C632 C 0.9011 0.06937 0.73276 0.0
C633 C 0.91054 0.05728 0.68951 0.0
C634 C 0.91293 0.08085 0.77213 0.0
C635 C 0.93442 0.08067 0.76861 0.0
C636 C 0.94376 0.06874 0.72478 0.0
C637 C 0.93198 0.05711 0.68602 0.0
C638 C 0.97652 0.09431 0.87731 0.0
C639 C 0.9694 0.11289 0.90035 0.0
C640 C 0.96542 0.0841 0.83364 0.0
C641 C 0.94709 0.09237 0.81148 0.0
C642 C 0.94064 0.11154 0.83221 0.0
C643 C 0.95162 0.12164 0.87632 0.0
H644 H 0.3758 0.94333 0.39625 0.0
H645 H 0.42253 0.98989 0.39299 0.0
H646 H 0.39352 0.92485 0.31827 0.0
H647 H 0.44065 0.9711 0.31701 0.0
H648 H 0.4625 0.94044 0.15188 0.0
H649 H 0.44132 0.96012 0.21856 0.0
H650 H 0.42345 0.90457 0.3079 0.0
H651 H 0.44408 0.8847 0.23895 0.0
C652 C 0.38974 0.94974 0.3784 0.0
C653 C 0.39779 0.96805 0.4009 0.0
C654 C 0.40003 0.93902 0.33417 0.0
C655 C 0.41869 0.94629 0.31185 0.0
C656 C 0.42621 0.9651 0.33258 0.0
C657 C 0.41581 0.97592 0.37629 0.0
C658 C 0.45408 0.93238 0.18578 0.0
C659 C 0.45509 0.91099 0.19042 0.0
C660 C 0.44195 0.94371 0.22421 0.0
C661 C 0.43071 0.934 0.26891 0.0
C662 C 0.43163 0.91256 0.27342 0.0
C663 C 0.4436 0.90116 0.2343 0.0
H664 H 0.52254 0.42485 0.89467 0.0
H665 H 0.56877 0.37775 0.8962 0.0
H666 H 0.54129 0.44304 0.81865 0.0
H667 H 0.58719 0.39554 0.81822 0.0
H668 H 0.62766 0.4459 0.73971 0.0
H669 H 0.60768 0.42534 0.80857 0.0
H670 H 0.55215 0.44399 0.72001 0.0
H671 H 0.57196 0.46511 0.65335 0.0
C672 C 0.53641 0.41807 0.87756 0.0
C673 C 0.54422 0.39992 0.90173 0.0
C674 C 0.54721 0.42852 0.83384 0.0
C675 C 0.56593 0.42091 0.81269 0.0
C676 C 0.5731 0.40212 0.83449 0.0
C677 C 0.56241 0.39179 0.87871 0.0
C678 C 0.61118 0.44562 0.73521 0.0
C679 C 0.6014 0.45729 0.69149 0.0
C680 C 0.59972 0.43369 0.77428 0.0
C681 C 0.57825 0.43297 0.76991 0.0
C682 C 0.56858 0.44444 0.7255 0.0
C683 C 0.57999 0.45653 0.68709 0.0
H684 H 0.12873 0.57618 0.45558 0.0
H685 H 0.0976 0.52191 0.39494 0.0
H686 H 0.11042 0.59648 0.38365 0.0
H687 H 0.07994 0.54216 0.32015 0.0
H688 H 0.03414 0.5863 0.24177 0.0
H689 H 0.05353 0.56617 0.31265 0.0
H690 H 0.10592 0.60528 0.28517 0.0
H691 H 0.08604 0.62601 0.21668 0.0
C692 C 0.1183 0.56846 0.42588 0.0
C693 C 0.11456 0.5474 0.43124 0.0
C694 C 0.10781 0.58017 0.38428 0.0
C695 C 0.09351 0.57108 0.34616 0.0
C696 C 0.09046 0.54981 0.34972 0.0
C697 C 0.10075 0.53812 0.39211 0.0
C698 C 0.04973 0.59071 0.25152 0.0
C699 C 0.05856 0.60777 0.22395 0.0
C700 C 0.06097 0.57901 0.29159 0.0
C701 C 0.08144 0.58386 0.30427 0.0
C702 C 0.09014 0.60117 0.27722 0.0
C703 C 0.07875 0.6131 0.23791 0.0
H704 H 0.87883 0.55122 0.26861 0.0
H705 H 0.92882 0.56152 0.38937 0.0
H706 H 0.89278 0.57721 0.20196 0.0
H707 H 0.94245 0.58768 0.32377 0.0
H708 H 0.95359 0.58509 0.0811 0.0
H709 H 0.92696 0.57193 0.14589 0.0
H710 H 0.93752 0.62174 0.26683 0.0
H711 H 0.96398 0.63519 0.20107 0.0
C712 C 0.89228 0.55966 0.28211 0.0
C713 C 0.90285 0.5543 0.33389 0.0
C714 C 0.90031 0.57444 0.24384 0.0
C715 C 0.91875 0.58438 0.25754 0.0
C716 C 0.92812 0.58043 0.31223 0.0
C717 C 0.92037 0.56539 0.34973 0.0
C718 C 0.94964 0.59369 0.1203 0.0
C719 C 0.96092 0.61106 0.13627 0.0
C720 C 0.93433 0.5862 0.15735 0.0
C721 C 0.93029 0.59572 0.21166 0.0
C722 C 0.94037 0.61409 0.22526 0.0
C723 C 0.95542 0.62184 0.18747 0.0
H724 H 0.87781 0.96513 0.69526 0.0
H725 H 0.9266 0.94955 0.57548 0.0
H726 H 0.89117 0.94055 0.7671 0.0
H727 H 0.93975 0.92491 0.64666 0.0
H728 H 0.96087 0.88075 0.78093 0.0
H729 H 0.93503 0.89322 0.7112 0.0
H730 H 0.92481 0.94582 0.82205 0.0
H731 H 0.9507 0.93358 0.89082 0.0
C732 C 0.89087 0.95587 0.68328 0.0
C733 C 0.90131 0.9594 0.63007 0.0
C734 C 0.89858 0.94189 0.72454 0.0
C735 C 0.91661 0.93095 0.71274 0.0
C736 C 0.92575 0.93299 0.65695 0.0
C737 C 0.91827 0.94718 0.61622 0.0
C738 C 0.95253 0.89458 0.79139 0.0
C739 C 0.95789 0.90631 0.84097 0.0
C740 C 0.93784 0.90176 0.75134 0.0
C741 C 0.928 0.92056 0.76096 0.0
C742 C 0.93197 0.93121 0.81359 0.0
C743 C 0.94689 0.92425 0.8529 0.0
H744 H 0.54887 0.88011 0.1988 0.0
H745 H 0.56321 0.93008 0.08161 0.0
H746 H 0.574 0.8929 0.26997 0.0
H747 H 0.58836 0.94267 0.15205 0.0
H748 H 0.58417 0.95039 0.399 0.0
H749 H 0.57038 0.92559 0.32947 0.0
H750 H 0.62079 0.93709 0.21143 0.0
H751 H 0.63475 0.96186 0.28152 0.0
C752 C 0.55792 0.89336 0.18726 0.0
C753 C 0.55396 0.90421 0.13489 0.0
C754 C 0.57221 0.90075 0.22816 0.0
C755 C 0.58305 0.91887 0.21682 0.0
C756 C 0.5804 0.92858 0.16197 0.0
C757 C 0.5659 0.92142 0.12166 0.0
C758 C 0.59272 0.94709 0.35921 0.0
C759 C 0.61043 0.95822 0.34548 0.0
C760 C 0.58485 0.9328 0.3194 0.0
C761 C 0.59438 0.92956 0.26463 0.0
C762 C 0.61305 0.9394 0.25313 0.0
C763 C 0.62111 0.95348 0.29346 0.0
H764 H 0.63311 0.55129 0.69622 0.0
H765 H 0.58242 0.56473 0.58037 0.0
H766 H 0.62023 0.57632 0.76729 0.0
H767 H 0.5697 0.58973 0.6508 0.0
H768 H 0.5497 0.63527 0.78159 0.0
H769 H 0.57444 0.62206 0.71023 0.0
H770 H 0.5881 0.57192 0.82775 0.0
H771 H 0.56337 0.58497 0.89847 0.0
C772 C 0.61967 0.56013 0.68492 0.0
C773 C 0.60864 0.55591 0.63305 0.0
C774 C 0.61224 0.57436 0.72577 0.0
C775 C 0.59385 0.58485 0.71491 0.0
C776 C 0.58398 0.58203 0.66037 0.0
C777 C 0.59121 0.56761 0.62007 0.0
C778 C 0.55854 0.62185 0.79304 0.0
C779 C 0.55446 0.61102 0.84531 0.0
C780 C 0.5726 0.61422 0.75203 0.0
C781 C 0.58307 0.59585 0.76311 0.0
C782 C 0.58041 0.58618 0.81799 0.0
C783 C 0.56615 0.59361 0.85847 0.0
H784 H 0.13492 0.45604 0.70159 0.0
H785 H 0.08305 0.44776 0.58621 0.0
H786 H 0.12097 0.43042 0.76927 0.0
H787 H 0.06933 0.42204 0.65304 0.0
H788 H 0.06298 0.42312 0.89937 0.0
H789 H 0.08853 0.436 0.83069 0.0
H790 H 0.07331 0.38799 0.70782 0.0
H791 H 0.04785 0.37487 0.77717 0.0
C792 C 0.121 0.44815 0.68945 0.0
C793 C 0.10997 0.454 0.63888 0.0
C794 C 0.11296 0.43359 0.72838 0.0
C795 C 0.09399 0.42435 0.71669 0.0
C796 C 0.08405 0.42875 0.66311 0.0
C797 C 0.09187 0.44355 0.62487 0.0
C798 C 0.06562 0.41485 0.85869 0.0
C799 C 0.0533 0.3981 0.84345 0.0
C800 C 0.08033 0.42218 0.81937 0.0
C801 C 0.08278 0.41312 0.76359 0.0
C802 C 0.07166 0.39533 0.7504 0.0
C803 C 0.05718 0.38775 0.79028 0.0
H804 H 0.04913 0.13502 0.19789 0.0
H805 H 0.06423 0.08401 0.08554 0.0
H806 H 0.07402 0.12305 0.27099 0.0
H807 H 0.0891 0.0722 0.15794 0.0
H808 H 0.08393 0.06715 0.40571 0.0
H809 H 0.07047 0.09126 0.33357 0.0
H810 H 0.1211 0.07815 0.21776 0.0
H811 H 0.1347 0.05402 0.29037 0.0
C812 C 0.05828 0.1217 0.18782 0.0
C813 C 0.05461 0.11033 0.13625 0.0
C814 C 0.07244 0.11478 0.22984 0.0
C815 C 0.08341 0.0966 0.22047 0.0
C816 C 0.08104 0.08635 0.16637 0.0
C817 C 0.0667 0.09306 0.12493 0.0
C818 C 0.0926 0.06996 0.36581 0.0
C819 C 0.11024 0.05852 0.35347 0.0
C820 C 0.08492 0.08385 0.32448 0.0
C821 C 0.09459 0.08642 0.2696 0.0
C822 C 0.11323 0.07634 0.25947 0.0
C823 C 0.12109 0.06263 0.30127 0.0
H824 H 0.42622 0.06431 0.574 0.0
H825 H 0.37807 0.04905 0.69626 0.0
H826 H 0.43947 0.08942 0.64347 0.0
H827 H 0.39157 0.07408 0.76646 0.0
H828 H 0.46043 0.13486 0.77405 0.0
H829 H 0.43442 0.12158 0.70627 0.0
H830 H 0.42568 0.0695 0.82039 0.0
H831 H 0.45177 0.08254 0.88724 0.0
C832 C 0.41806 0.06683 0.61493 0.0
C833 C 0.40123 0.0546 0.62994 0.0
C834 C 0.4256 0.0813 0.65468 0.0
C835 C 0.41666 0.08359 0.71066 0.0
C836 C 0.3988 0.07256 0.72371 0.0
C837 C 0.39101 0.05832 0.68339 0.0
C838 C 0.45238 0.12098 0.78568 0.0
C839 C 0.45822 0.10962 0.8356 0.0
C840 C 0.43759 0.11334 0.74673 0.0
C841 C 0.42813 0.09444 0.75781 0.0
C842 C 0.43256 0.08417 0.81082 0.0
C843 C 0.44758 0.0916 0.84904 0.0
H844 H 0.44941 0.42961 0.08038 0.0
H845 H 0.46348 0.37941 0.19721 0.0
H846 H 0.42472 0.44256 0.15134 0.0
H847 H 0.43877 0.39252 0.26881 0.0
H848 H 0.37994 0.46316 0.28341 0.0
H849 H 0.39273 0.43811 0.21229 0.0
H850 H 0.4435 0.42485 0.32808 0.0
H851 H 0.43087 0.44988 0.39856 0.0
C852 C 0.44672 0.42096 0.12042 0.0
C853 C 0.45853 0.40362 0.1335 0.0
C854 C 0.43248 0.42833 0.16104 0.0
C855 C 0.42995 0.41867 0.21599 0.0
C856 C 0.44051 0.40035 0.22698 0.0
C857 C 0.45457 0.39278 0.18583 0.0
C858 C 0.39342 0.45435 0.29456 0.0
C859 C 0.40455 0.45863 0.34623 0.0
C860 C 0.4008 0.44011 0.25368 0.0
C861 C 0.41922 0.42965 0.26431 0.0
C862 C 0.42919 0.43252 0.31869 0.0
C863 C 0.42201 0.44696 0.35902 0.0
loop_
_geom_bond_atom_site_label_1
_geom_bond_atom_site_label_2
_geom_bond_distance
_geom_bond_site_symmetry_2
_ccdc_geom_bond_type
O0 Cd1 2.223 . S
O0 C8 1.315 . S
Cd1 O0 2.223 . S
Cd1 O4 2.297 . S
Cd1 O5 2.439 . S
Cd1 O11 2.240 . S
Cd2 O3 2.240 . S
Cd2 O10 2.223 . S
Cd2 O12 2.297 1_455 S
Cd2 O13 2.439 1_455 S
O3 Cd2 2.240 . S
O3 C8 1.279 . S
O4 Cd1 2.297 . S
O4 C6 1.247 . S
O5 Cd1 2.439 . S
O5 C6 1.208 . S
C6 O4 1.247 . S
C6 O5 1.208 . S
C7 O12 1.247 . S
C7 O13 1.208 . S
C8 O0 1.315 . S
C8 O3 1.279 . S
C9 O10 1.315 . S
C9 O11 1.279 . S
O10 Cd2 2.223 . S
O10 C9 1.315 . S
O11 Cd1 2.240 . S
O11 C9 1.279 . S
O12 Cd2 2.297 1_655 S
O12 C7 1.247 . S
O13 Cd2 2.439 1_655 S
O13 C7 1.208 . S
O14 Cd15 2.223 . S
O14 C22 1.315 . S
Cd15 O14 2.223 . S
Cd15 O18 2.297 . S
Cd15 O19 2.439 . S
Cd15 O25 2.240 . S
Cd16 O17 2.240 . S
Cd16 O24 2.223 . S
Cd16 O26 2.297 1_545 S
Cd16 O27 2.439 1_545 S
O17 Cd16 2.240 . S
O17 C22 1.279 . S
O18 Cd15 2.297 . S
O18 C20 1.247 . S
O19 Cd15 2.439 . S
O19 C20 1.208 . S
C20 O18 1.247 . S
C20 O19 1.208 . S
C21 O26 1.247 . S
C21 O27 1.208 . S
C22 O14 1.315 . S
C22 O17 1.279 . S
C23 O24 1.315 . S
C23 O25 1.279 . S
O24 Cd16 2.223 . S
O24 C23 1.315 . S
O25 Cd15 2.240 . S
O25 C23 1.279 . S
O26 Cd16 2.297 1_565 S
O26 C21 1.247 . S
O27 Cd16 2.439 1_565 S
O27 C21 1.208 . S
O28 Cd29 2.223 . S
O28 C36 1.315 . S
Cd29 O28 2.223 . S
Cd29 O32 2.297 . S
Cd29 O33 2.439 . S
Cd29 O39 2.240 . S
Cd30 O31 2.240 . S
Cd30 O38 2.223 . S
Cd30 O40 2.297 . S
Cd30 O41 2.439 . S
O31 Cd30 2.240 . S
O31 C36 1.279 . S
O32 Cd29 2.297 . S
O32 C34 1.247 . S
O33 Cd29 2.439 . S
O33 C34 1.208 . S
C34 O32 1.247 . S
C34 O33 1.208 . S
C35 O40 1.247 . S
C35 O41 1.208 . S
C36 O28 1.315 . S
C36 O31 1.279 . S
C37 O38 1.315 . S
C37 O39 1.279 . S
O38 Cd30 2.223 . S
O38 C37 1.315 . S
O39 Cd29 2.240 . S
O39 C37 1.279 . S
O40 Cd30 2.297 . S
O40 C35 1.247 . S
O41 Cd30 2.439 . S
O41 C35 1.208 . S
O42 Cd43 2.223 . S
O42 C50 1.315 . S
Cd43 O42 2.223 . S
Cd43 O46 2.297 . S
Cd43 O47 2.439 . S
Cd43 O53 2.240 . S
Cd44 O45 2.240 . S
Cd44 O52 2.223 . S
Cd44 O54 2.297 . S
Cd44 O55 2.439 . S
O45 Cd44 2.240 . S
O45 C50 1.279 . S
O46 Cd43 2.297 . S
O46 C48 1.247 . S
O47 Cd43 2.439 . S
O47 C48 1.208 . S
C48 O46 1.247 . S
C48 O47 1.208 . S
C49 O54 1.247 . S
C49 O55 1.208 . S
C50 O42 1.315 . S
C50 O45 1.279 . S
C51 O52 1.315 . S
C51 O53 1.279 . S
O52 Cd44 2.223 . S
O52 C51 1.315 . S
O53 Cd43 2.240 . S
O53 C51 1.279 . S
O54 Cd44 2.297 . S
O54 C49 1.247 . S
O55 Cd44 2.439 . S
O55 C49 1.208 . S
O56 Cd57 2.223 . S
O56 C64 1.315 . S
Cd57 O56 2.223 . S
Cd57 O60 2.297 . S
Cd57 O61 2.439 . S
Cd57 O67 2.240 . S
Cd58 O59 2.240 . S
Cd58 O66 2.223 . S
Cd58 O68 2.297 1_455 S
Cd58 O69 2.439 1_455 S
O59 Cd58 2.240 . S
O59 C64 1.279 . S
O60 Cd57 2.297 . S
O60 C62 1.247 . S
O61 Cd57 2.439 . S
O61 C62 1.208 . S
C62 O60 1.247 . S
C62 O61 1.208 . S
C63 O68 1.247 . S
C63 O69 1.208 . S
C64 O56 1.315 . S
C64 O59 1.279 . S
C65 O66 1.315 . S
C65 O67 1.279 . S
O66 Cd58 2.223 . S
O66 C65 1.315 . S
O67 Cd57 2.240 . S
O67 C65 1.279 . S
O68 Cd58 2.297 1_655 S
O68 C63 1.247 . S
O69 Cd58 2.439 1_655 S
O69 C63 1.208 . S
O70 Cd71 2.223 . S
O70 C78 1.315 . S
Cd71 O70 2.223 . S
Cd71 O74 2.297 . S
Cd71 O75 2.439 . S
Cd71 O81 2.240 . S
Cd72 O73 2.240 . S
Cd72 O80 2.223 . S
Cd72 O82 2.297 1_545 S
Cd72 O83 2.439 1_545 S
O73 Cd72 2.240 . S
O73 C78 1.279 . S
O74 Cd71 2.297 . S
O74 C76 1.247 . S
O75 Cd71 2.439 . S
O75 C76 1.208 . S
C76 O74 1.247 . S
C76 O75 1.208 . S
C77 O82 1.247 . S
C77 O83 1.208 . S
C78 O70 1.315 . S
C78 O73 1.279 . S
C79 O80 1.315 . S
C79 O81 1.279 . S
O80 Cd72 2.223 . S
O80 C79 1.315 . S
O81 Cd71 2.240 . S
O81 C79 1.279 . S
O82 Cd72 2.297 1_565 S
O82 C77 1.247 . S
O83 Cd72 2.439 1_565 S
O83 C77 1.208 . S
O84 Cd85 2.223 . S
O84 C92 1.315 . S
Cd85 O84 2.223 . S
Cd85 O88 2.297 . S
Cd85 O89 2.439 . S
Cd85 O95 2.240 . S
Cd86 O87 2.240 . S
Cd86 O94 2.223 . S
Cd86 O96 2.297 . S
Cd86 O97 2.439 . S
O87 Cd86 2.240 . S
O87 C92 1.279 . S
O88 Cd85 2.297 . S
O88 C90 1.247 . S
O89 Cd85 2.439 . S
O89 C90 1.208 . S
C90 O88 1.247 . S
C90 O89 1.208 . S
C91 O96 1.247 . S
C91 O97 1.208 . S
C92 O84 1.315 . S
C92 O87 1.279 . S
C93 O94 1.315 . S
C93 O95 1.279 . S
O94 Cd86 2.223 . S
O94 C93 1.315 . S
O95 Cd85 2.240 . S
O95 C93 1.279 . S
O96 Cd86 2.297 . S
O96 C91 1.247 . S
O97 Cd86 2.439 . S
O97 C91 1.208 . S
O98 Cd99 2.223 . S
O98 C106 1.315 . S
Cd99 O98 2.223 . S
Cd99 O102 2.297 . S
Cd99 O103 2.439 . S
Cd99 O109 2.240 . S
Cd100 O101 2.240 . S
Cd100 O108 2.223 . S
Cd100 O110 2.297 . S
Cd100 O111 2.439 . S
O101 Cd100 2.240 . S
O101 C106 1.279 . S
O102 Cd99 2.297 . S
O102 C104 1.247 . S
O103 Cd99 2.439 . S
O103 C104 1.208 . S
C104 O102 1.247 . S
C104 O103 1.208 . S
C105 O110 1.247 . S
C105 O111 1.208 . S
C106 O98 1.315 . S
C106 O101 1.279 . S
C107 O108 1.315 . S
C107 O109 1.279 . S
O108 Cd100 2.223 . S
O108 C107 1.315 . S
O109 Cd99 2.240 . S
O109 C107 1.279 . S
O110 Cd100 2.297 . S
O110 C105 1.247 . S
O111 Cd100 2.439 . S
O111 C105 1.208 . S
O112 Cd113 2.223 . S
O112 C120 1.315 . S
Cd113 O112 2.223 . S
Cd113 O116 2.297 . S
Cd113 O117 2.439 . S
Cd113 O123 2.240 . S
Cd114 O115 2.240 . S
Cd114 O122 2.223 . S
Cd114 O124 2.297 1_655 S
Cd114 O125 2.439 1_655 S
O115 Cd114 2.240 . S
O115 C120 1.279 . S
O116 Cd113 2.297 . S
O116 C118 1.247 . S
O117 Cd113 2.439 . S
O117 C118 1.208 . S
C118 O116 1.247 . S
C118 O117 1.208 . S
C119 O124 1.247 . S
C119 O125 1.208 . S
C120 O112 1.315 . S
C120 O115 1.279 . S
C121 O122 1.315 . S
C121 O123 1.279 . S
O122 Cd114 2.223 . S
O122 C121 1.315 . S
O123 Cd113 2.240 . S
O123 C121 1.279 . S
O124 Cd114 2.297 1_455 S
O124 C119 1.247 . S
O125 Cd114 2.439 1_455 S
O125 C119 1.208 . S
O126 Cd127 2.223 . S
O126 C134 1.315 . S
Cd127 O126 2.223 . S
Cd127 O130 2.297 . S
Cd127 O131 2.439 . S
Cd127 O137 2.240 . S
Cd128 O129 2.240 . S
Cd128 O136 2.223 . S
Cd128 O138 2.297 1_565 S
Cd128 O139 2.439 1_565 S
O129 Cd128 2.240 . S
O129 C134 1.279 . S
O130 Cd127 2.297 . S
O130 C132 1.247 . S
O131 Cd127 2.439 . S
O131 C132 1.208 . S
C132 O130 1.247 . S
C132 O131 1.208 . S
C133 O138 1.247 . S
C133 O139 1.208 . S
C134 O126 1.315 . S
C134 O129 1.279 . S
C135 O136 1.315 . S
C135 O137 1.279 . S
O136 Cd128 2.223 . S
O136 C135 1.315 . S
O137 Cd127 2.240 . S
O137 C135 1.279 . S
O138 Cd128 2.297 1_545 S
O138 C133 1.247 . S
O139 Cd128 2.439 1_545 S
O139 C133 1.208 . S
O140 Cd141 2.223 . S
O140 C148 1.315 . S
Cd141 O140 2.223 . S
Cd141 O144 2.297 . S
Cd141 O145 2.439 . S
Cd141 O151 2.240 . S
Cd142 O143 2.240 . S
Cd142 O150 2.223 . S
Cd142 O152 2.297 . S
Cd142 O153 2.439 . S
O143 Cd142 2.240 . S
O143 C148 1.279 . S
O144 Cd141 2.297 . S
O144 C146 1.247 . S
O145 Cd141 2.439 . S
O145 C146 1.208 . S
C146 O144 1.247 . S
C146 O145 1.208 . S
C147 O152 1.247 . S
C147 O153 1.208 . S
C148 O140 1.315 . S
C148 O143 1.279 . S
C149 O150 1.315 . S
C149 O151 1.279 . S
O150 Cd142 2.223 . S
O150 C149 1.315 . S
O151 Cd141 2.240 . S
O151 C149 1.279 . S
O152 Cd142 2.297 . S
O152 C147 1.247 . S
O153 Cd142 2.439 . S
O153 C147 1.208 . S
O154 Cd155 2.223 . S
O154 C162 1.315 . S
Cd155 O154 2.223 . S
Cd155 O158 2.297 . S
Cd155 O159 2.439 . S
Cd155 O165 2.240 . S
Cd156 O157 2.240 . S
Cd156 O164 2.223 . S
Cd156 O166 2.297 . S
Cd156 O167 2.439 . S
O157 Cd156 2.240 . S
O157 C162 1.279 . S
O158 Cd155 2.297 . S
O158 C160 1.247 . S
O159 Cd155 2.439 . S
O159 C160 1.208 . S
C160 O158 1.247 . S
C160 O159 1.208 . S
C161 O166 1.247 . S
C161 O167 1.208 . S
C162 O154 1.315 . S
C162 O157 1.279 . S
C163 O164 1.315 . S
C163 O165 1.279 . S
O164 Cd156 2.223 . S
O164 C163 1.315 . S
O165 Cd155 2.240 . S
O165 C163 1.279 . S
O166 Cd156 2.297 . S
O166 C161 1.247 . S
O167 Cd156 2.439 . S
O167 C161 1.208 . S
O168 Cd169 2.223 . S
O168 C176 1.315 . S
Cd169 O168 2.223 . S
Cd169 O172 2.297 . S
Cd169 O173 2.439 . S
Cd169 O179 2.240 . S
Cd170 O171 2.240 . S
Cd170 O178 2.223 . S
Cd170 O180 2.297 1_655 S
Cd170 O181 2.439 1_655 S
O171 Cd170 2.240 . S
O171 C176 1.279 . S
O172 Cd169 2.297 . S
O172 C174 1.247 . S
O173 Cd169 2.439 . S
O173 C174 1.208 . S
C174 O172 1.247 . S
C174 O173 1.208 . S
C175 O180 1.247 . S
C175 O181 1.208 . S
C176 O168 1.315 . S
C176 O171 1.279 . S
C177 O178 1.315 . S
C177 O179 1.279 . S
O178 Cd170 2.223 . S
O178 C177 1.315 . S
O179 Cd169 2.240 . S
O179 C177 1.279 . S
O180 Cd170 2.297 1_455 S
O180 C175 1.247 . S
O181 Cd170 2.439 1_455 S
O181 C175 1.208 . S
O182 Cd183 2.223 . S
O182 C190 1.315 . S
Cd183 O182 2.223 . S
Cd183 O186 2.297 . S
Cd183 O187 2.439 . S
Cd183 O193 2.240 . S
Cd184 O185 2.240 . S
Cd184 O192 2.223 . S
Cd184 O194 2.297 1_565 S
Cd184 O195 2.439 1_565 S
O185 Cd184 2.240 . S
O185 C190 1.279 . S
O186 Cd183 2.297 . S
O186 C188 1.247 . S
O187 Cd183 2.439 . S
O187 C188 1.208 . S
C188 O186 1.247 . S
C188 O187 1.208 . S
C189 O194 1.247 . S
C189 O195 1.208 . S
C190 O182 1.315 . S
C190 O185 1.279 . S
C191 O192 1.315 . S
C191 O193 1.279 . S
O192 Cd184 2.223 . S
O192 C191 1.315 . S
O193 Cd183 2.240 . S
O193 C191 1.279 . S
O194 Cd184 2.297 1_545 S
O194 C189 1.247 . S
O195 Cd184 2.439 1_545 S
O195 C189 1.208 . S
O196 Cd197 2.223 . S
O196 C204 1.315 . S
Cd197 O196 2.223 . S
Cd197 O200 2.297 . S
Cd197 O201 2.439 . S
Cd197 O207 2.240 . S
Cd198 O199 2.240 . S
Cd198 O206 2.223 . S
Cd198 O208 2.297 . S
Cd198 O209 2.439 . S
O199 Cd198 2.240 . S
O199 C204 1.279 . S
O200 Cd197 2.297 . S
O200 C202 1.247 . S
O201 Cd197 2.439 . S
O201 C202 1.208 . S
C202 O200 1.247 . S
C202 O201 1.208 . S
C203 O208 1.247 . S
C203 O209 1.208 . S
C204 O196 1.315 . S
C204 O199 1.279 . S
C205 O206 1.315 . S
C205 O207 1.279 . S
O206 Cd198 2.223 . S
O206 C205 1.315 . S
O207 Cd197 2.240 . S
O207 C205 1.279 . S
O208 Cd198 2.297 . S
O208 C203 1.247 . S
O209 Cd198 2.439 . S
O209 C203 1.208 . S
O210 Cd211 2.223 . S
O210 C218 1.315 . S
Cd211 O210 2.223 . S
Cd211 O214 2.297 . S
Cd211 O215 2.439 . S
Cd211 O221 2.240 . S
Cd212 O213 2.240 . S
Cd212 O220 2.223 . S
Cd212 O222 2.297 . S
Cd212 O223 2.439 . S
O213 Cd212 2.240 . S
O213 C218 1.279 . S
O214 Cd211 2.297 . S
O214 C216 1.247 . S
O215 Cd211 2.439 . S
O215 C216 1.208 . S
C216 O214 1.247 . S
C216 O215 1.208 . S
C217 O222 1.247 . S
C217 O223 1.208 . S
C218 O210 1.315 . S
C218 O213 1.279 . S
C219 O220 1.315 . S
C219 O221 1.279 . S
O220 Cd212 2.223 . S
O220 C219 1.315 . S
O221 Cd211 2.240 . S
O221 C219 1.279 . S
O222 Cd212 2.297 . S
O222 C217 1.247 . S
O223 Cd212 2.439 . S
O223 C217 1.208 . S
H224 C232 0.969 . S
H225 C237 0.950 . S
H226 C234 0.970 . S
H227 C236 0.950 . S
H228 C238 0.950 . S
H229 C240 0.950 . S
H230 C242 0.968 . S
H231 C243 0.975 . S
C232 H224 0.969 . S
C232 C233 1.366 1_655 S
C232 C234 1.391 . S
C233 C232 1.366 1_455 S
C233 C237 1.393 . S
C234 H226 0.970 . S
C234 C232 1.391 . S
C234 C235 1.380 1_655 S
C235 C234 1.380 1_455 S
C235 C236 1.398 . S
C235 C241 1.491 1_554 S
C236 H227 0.950 . S
C236 C235 1.398 . S
C236 C237 1.391 . S
C237 H225 0.950 . S
C237 C233 1.393 . S
C237 C236 1.391 . S
C238 H228 0.950 . S
C238 C239 1.386 . S
C238 C240 1.391 . S
C239 C238 1.386 . S
C239 C243 1.368 1_455 S
C240 H229 0.950 . S
C240 C238 1.391 . S
C240 C241 1.400 . S
C241 C235 1.491 1_556 S
C241 C240 1.400 . S
C241 C242 1.381 1_455 S
C242 H230 0.968 . S
C242 C241 1.381 1_655 S
C242 C243 1.391 . S
C243 H231 0.975 . S
C243 C239 1.368 1_655 S
C243 C242 1.391 . S
H244 C252 0.950 . S
H245 C257 0.950 . S
H246 C254 0.950 . S
H247 C256 0.950 . S
H248 C258 0.950 . S
H249 C260 0.950 . S
H250 C262 0.950 . S
H251 C263 0.950 . S
C252 H244 0.950 . S
C252 C253 1.386 . S
C252 C254 1.391 . S
C253 C252 1.386 . S
C253 C257 1.393 . S
C254 H246 0.950 . S
C254 C252 1.391 . S
C254 C255 1.400 . S
C255 C254 1.400 . S
C255 C256 1.398 . S
C255 C261 1.491 . S
C256 H247 0.950 . S
C256 C255 1.398 . S
C256 C257 1.391 . S
C257 H245 0.950 . S
C257 C253 1.393 . S
C257 C256 1.391 . S
C258 H248 0.950 . S
C258 C259 1.386 . S
C258 C260 1.391 . S
C259 C258 1.386 . S
C259 C263 1.393 . S
C260 H249 0.950 . S
C260 C258 1.391 . S
C260 C261 1.400 . S
C261 C255 1.491 . S
C261 C260 1.400 . S
C261 C262 1.398 . S
C262 H250 0.950 . S
C262 C261 1.398 . S
C262 C263 1.391 . S
C263 H251 0.950 . S
C263 C259 1.393 . S
C263 C262 1.391 . S
H264 C272 0.950 . S
H265 C277 0.950 . S
H266 C274 0.950 . S
H267 C276 0.950 . S
H268 C278 0.950 . S
H269 C280 0.950 . S
H270 C282 0.950 . S
H271 C283 0.950 . S
C272 H264 0.950 . S
C272 C273 1.386 1_556 S
C272 C274 1.391 . S
C273 C272 1.386 1_554 S
C273 C277 1.393 . S
C274 H266 0.950 . S
C274 C272 1.391 . S
C274 C275 1.400 1_556 S
C275 C274 1.400 1_554 S
C275 C276 1.398 . S
C275 C281 1.491 1_554 S
C276 H267 0.950 . S
C276 C275 1.398 . S
C276 C277 1.391 . S
C277 H265 0.950 . S
C277 C273 1.393 . S
C277 C276 1.391 . S
C278 H268 0.950 . S
C278 C279 1.386 1_554 S
C278 C280 1.391 . S
C279 C278 1.386 1_556 S
C279 C283 1.393 . S
C280 H269 0.950 . S
C280 C278 1.391 . S
C280 C281 1.400 1_554 S
C281 C275 1.491 1_556 S
C281 C280 1.400 1_556 S
C281 C282 1.398 . S
C282 H270 0.950 . S
C282 C281 1.398 . S
C282 C283 1.391 . S
C283 H271 0.950 . S
C283 C279 1.393 . S
C283 C282 1.391 . S
H284 C292 0.950 . S
H285 C297 0.950 . S
H286 C294 0.950 . S
H287 C296 0.950 . S
H288 C298 0.950 . S
H289 C300 0.950 . S
H290 C302 0.950 . S
H291 C303 0.950 . S
C292 H284 0.950 . S
C292 C293 1.386 . S
C292 C294 1.391 . S
C293 C292 1.386 . S
C293 C297 1.393 . S
C294 H286 0.950 . S
C294 C292 1.391 . S
C294 C295 1.400 . S
C295 C294 1.400 . S
C295 C296 1.398 . S
C295 C301 1.491 . S
C296 H287 0.950 . S
C296 C295 1.398 . S
C296 C297 1.391 . S
C297 H285 0.950 . S
C297 C293 1.393 . S
C297 C296 1.391 . S
C298 H288 0.950 . S
C298 C299 1.386 . S
C298 C300 1.391 . S
C299 C298 1.386 . S
C299 C303 1.393 . S
C300 H289 0.950 . S
C300 C298 1.391 . S
C300 C301 1.400 . S
C301 C295 1.491 . S
C301 C300 1.400 . S
C301 C302 1.398 . S
C302 H290 0.950 . S
C302 C301 1.398 . S
C302 C303 1.391 . S
C303 H291 0.950 . S
C303 C299 1.393 . S
C303 C302 1.391 . S
H304 C312 0.950 . S
H305 C317 0.950 1_554 S
H306 C314 0.950 . S
H307 C316 0.950 . S
H308 C318 0.950 . S
H309 C320 0.950 . S
H310 C322 0.950 . S
H311 C323 0.950 1_556 S
C312 H304 0.950 . S
C312 C313 1.386 . S
C312 C314 1.391 . S
C313 C312 1.386 . S
C313 C317 1.392 . S
C314 H306 0.950 . S
C314 C312 1.391 . S
C314 C315 1.400 . S
C315 C314 1.400 . S
C315 C316 1.398 1_556 S
C315 C321 1.491 1_556 S
C316 H307 0.950 . S
C316 C315 1.398 1_554 S
C316 C317 1.391 1_554 S
C317 H305 0.950 1_556 S
C317 C313 1.392 . S
C317 C316 1.391 1_556 S
C318 H308 0.950 . S
C318 C319 1.386 . S
C318 C320 1.391 . S
C319 C318 1.386 . S
C319 C323 1.392 . S
C320 H309 0.950 . S
C320 C318 1.391 . S
C320 C321 1.400 . S
C321 C315 1.491 1_554 S
C321 C320 1.400 . S
C321 C322 1.398 1_554 S
C322 H310 0.950 . S
C322 C321 1.398 1_556 S
C322 C323 1.391 1_556 S
C323 H311 0.950 1_554 S
C323 C319 1.392 . S
C323 C322 1.391 1_554 S
H324 C332 0.950 . S
H325 C337 0.950 . S
H326 C334 0.950 . S
H327 C336 0.950 . S
H328 C338 0.950 . S
H329 C340 0.950 . S
H330 C342 0.950 . S
H331 C343 0.950 . S
C332 H324 0.950 . S
C332 C333 1.386 . S
C332 C334 1.391 . S
C333 C332 1.386 . S
C333 C337 1.393 . S
C334 H326 0.950 . S
C334 C332 1.391 . S
C334 C335 1.400 . S
C335 C334 1.400 . S
C335 C336 1.398 . S
C335 C341 1.491 . S
C336 H327 0.950 . S
C336 C335 1.398 . S
C336 C337 1.391 . S
C337 H325 0.950 . S
C337 C333 1.393 . S
C337 C336 1.391 . S
C338 H328 0.950 . S
C338 C339 1.386 . S
C338 C340 1.391 . S
C339 C338 1.386 . S
C339 C343 1.393 . S
C340 H329 0.950 . S
C340 C338 1.391 . S
C340 C341 1.400 . S
C341 C335 1.491 . S
C341 C340 1.400 . S
C341 C342 1.398 . S
C342 H330 0.950 . S
C342 C341 1.398 . S
C342 C343 1.391 . S
C343 H331 0.950 . S
C343 C339 1.393 . S
C343 C342 1.391 . S
H344 C352 0.950 . S
H345 C357 0.950 . S
H346 C354 0.950 1_554 S
H347 C356 0.950 . S
H348 C358 0.950 . S
H349 C360 0.950 1_556 S
H350 C362 0.950 . S
H351 C363 0.950 . S
C352 H344 0.950 . S
C352 C353 1.386 . S
C352 C354 1.391 . S
C353 C352 1.386 . S
C353 C357 1.393 . S
C354 H346 0.950 1_556 S
C354 C352 1.391 . S
C354 C355 1.400 . S
C355 C354 1.400 . S
C355 C356 1.398 . S
C355 C361 1.491 1_556 S
C356 H347 0.950 . S
C356 C355 1.398 . S
C356 C357 1.391 . S
C357 H345 0.950 . S
C357 C353 1.393 . S
C357 C356 1.391 . S
C358 H348 0.950 . S
C358 C359 1.386 . S
C358 C360 1.391 . S
C359 C358 1.386 . S
C359 C363 1.393 . S
C360 H349 0.950 1_554 S
C360 C358 1.391 . S
C360 C361 1.400 . S
C361 C355 1.491 1_554 S
C361 C360 1.400 . S
C361 C362 1.398 . S
C362 H350 0.950 . S
C362 C361 1.398 . S
C362 C363 1.391 . S
C363 H351 0.950 . S
C363 C359 1.393 . S
C363 C362 1.391 . S
H364 C372 0.950 . S
H365 C377 0.950 . S
H366 C374 0.950 . S
H367 C376 0.950 . S
H368 C378 0.950 . S
H369 C380 0.950 . S
H370 C382 0.950 . S
H371 C383 0.950 . S
C372 H364 0.950 . S
C372 C373 1.386 . S
C372 C374 1.391 . S
C373 C372 1.386 . S
C373 C377 1.393 . S
C374 H366 0.950 . S
C374 C372 1.391 . S
C374 C375 1.400 . S
C375 C374 1.400 . S
C375 C376 1.398 . S
C375 C381 1.491 . S
C376 H367 0.950 . S
C376 C375 1.398 . S
C376 C377 1.391 . S
C377 H365 0.950 . S
C377 C373 1.393 . S
C377 C376 1.391 . S
C378 H368 0.950 . S
C378 C379 1.386 . S
C378 C380 1.391 . S
C379 C378 1.386 . S
C379 C383 1.393 . S
C380 H369 0.950 . S
C380 C378 1.391 . S
C380 C381 1.400 . S
C381 C375 1.491 . S
C381 C380 1.400 . S
C381 C382 1.398 . S
C382 H370 0.950 . S
C382 C381 1.398 . S
C382 C383 1.391 . S
C383 H371 0.950 . S
C383 C379 1.393 . S
C383 C382 1.391 . S
H384 C392 0.950 . S
H385 C397 0.950 . S
H386 C394 0.950 . S
H387 C396 0.950 . S
H388 C398 0.950 . S
H389 C400 0.950 . S
H390 C402 0.950 . S
H391 C403 0.950 . S
C392 H384 0.950 . S
C392 C393 1.384 . S
C392 C394 1.391 . S
C393 C392 1.384 . S
C393 C397 1.393 1_556 S
C394 H386 0.950 . S
C394 C392 1.391 . S
C394 C395 1.400 . S
C395 C394 1.400 . S
C395 C396 1.398 . S
C395 C401 1.491 . S
C396 H387 0.950 . S
C396 C395 1.398 . S
C396 C397 1.391 1_556 S
C397 H385 0.950 . S
C397 C393 1.393 1_554 S
C397 C396 1.391 1_554 S
C398 H388 0.950 . S
C398 C399 1.386 . S
C398 C400 1.391 . S
C399 C398 1.386 . S
C399 C403 1.393 . S
C400 H389 0.950 . S
C400 C398 1.391 . S
C400 C401 1.400 . S
C401 C395 1.491 . S
C401 C400 1.400 . S
C401 C402 1.398 . S
C402 H390 0.950 . S
C402 C401 1.398 . S
C402 C403 1.391 . S
C403 H391 0.950 . S
C403 C399 1.393 . S
C403 C402 1.391 . S
H404 C412 0.950 . S
H405 C417 0.950 . S
H406 C414 0.950 . S
H407 C416 0.950 . S
H408 C418 0.950 . S
H409 C420 0.950 . S
H410 C422 0.950 . S
H411 C423 0.950 . S
C412 H404 0.950 . S
C412 C413 1.386 . S
C412 C414 1.391 . S
C413 C412 1.386 . S
C413 C417 1.393 . S
C414 H406 0.950 . S
C414 C412 1.391 . S
C414 C415 1.400 . S
C415 C414 1.400 . S
C415 C416 1.398 . S
C415 C421 1.491 . S
C416 H407 0.950 . S
C416 C415 1.398 . S
C416 C417 1.391 . S
C417 H405 0.950 . S
C417 C413 1.393 . S
C417 C416 1.391 . S
C418 H408 0.950 . S
C418 C419 1.386 . S
C418 C420 1.391 . S
C419 C418 1.386 . S
C419 C423 1.393 . S
C420 H409 0.950 . S
C420 C418 1.391 . S
C420 C421 1.400 . S
C421 C415 1.491 . S
C421 C420 1.400 . S
C421 C422 1.398 . S
C422 H410 0.950 . S
C422 C421 1.398 . S
C422 C423 1.391 . S
C423 H411 0.950 . S
C423 C419 1.393 . S
C423 C422 1.391 . S
H424 C432 0.950 . S
H425 C437 0.950 1_554 S
H426 C434 0.950 . S
H427 C436 0.950 . S
H428 C438 0.950 . S
H429 C440 0.950 . S
H430 C442 0.950 . S
H431 C443 0.950 . S
C432 H424 0.950 . S
C432 C433 1.382 1_556 S
C432 C434 1.391 . S
C433 C432 1.382 1_554 S
C433 C437 1.390 1_554 S
C434 H426 0.950 . S
C434 C432 1.391 . S
C434 C435 1.400 . S
C435 C434 1.400 . S
C435 C436 1.398 . S
C435 C441 1.491 . S
C436 H427 0.950 . S
C436 C435 1.398 . S
C436 C437 1.391 . S
C437 H425 0.950 1_556 S
C437 C433 1.390 1_556 S
C437 C436 1.391 . S
C438 H428 0.950 . S
C438 C439 1.386 . S
C438 C440 1.391 . S
C439 C438 1.386 . S
C439 C443 1.393 . S
C440 H429 0.950 . S
C440 C438 1.391 . S
C440 C441 1.400 . S
C441 C435 1.491 . S
C441 C440 1.400 . S
C441 C442 1.398 . S
C442 H430 0.950 . S
C442 C441 1.398 . S
C442 C443 1.391 . S
C443 H431 0.950 . S
C443 C439 1.393 . S
C443 C442 1.391 . S
H444 C452 0.950 . S
H445 C457 0.950 . S
H446 C454 0.950 . S
H447 C456 0.950 . S
H448 C458 0.950 . S
H449 C460 0.950 . S
H450 C462 0.950 . S
H451 C463 0.950 . S
C452 H444 0.950 . S
C452 C453 1.386 . S
C452 C454 1.391 . S
C453 C452 1.386 . S
C453 C457 1.393 . S
C454 H446 0.950 . S
C454 C452 1.391 . S
C454 C455 1.400 . S
C455 C454 1.400 . S
C455 C456 1.398 . S
C455 C461 1.491 . S
C456 H447 0.950 . S
C456 C455 1.398 . S
C456 C457 1.391 . S
C457 H445 0.950 . S
C457 C453 1.393 . S
C457 C456 1.391 . S
C458 H448 0.950 . S
C458 C459 1.386 . S
C458 C460 1.391 . S
C459 C458 1.386 . S
C459 C463 1.393 . S
C460 H449 0.950 . S
C460 C458 1.391 . S
C460 C461 1.400 . S
C461 C455 1.491 . S
C461 C460 1.400 . S
C461 C462 1.398 . S
C462 H450 0.950 . S
C462 C461 1.398 . S
C462 C463 1.391 . S
C463 H451 0.950 . S
C463 C459 1.393 . S
C463 C462 1.391 . S
H464 C472 0.950 . S
H465 C477 0.950 . S
H466 C474 0.950 . S
H467 C476 0.950 . S
H468 C478 0.950 . S
H469 C480 0.950 . S
H470 C482 0.950 . S
H471 C483 0.950 1_556 S
C472 H464 0.950 . S
C472 C473 1.386 . S
C472 C474 1.391 . S
C473 C472 1.386 . S
C473 C477 1.393 . S
C474 H466 0.950 . S
C474 C472 1.391 . S
C474 C475 1.400 . S
C475 C474 1.400 . S
C475 C476 1.398 . S
C475 C481 1.491 . S
C476 H467 0.950 . S
C476 C475 1.398 . S
C476 C477 1.391 . S
C477 H465 0.950 . S
C477 C473 1.393 . S
C477 C476 1.391 . S
C478 H468 0.950 . S
C478 C479 1.382 1_554 S
C478 C480 1.391 . S
C479 C478 1.382 1_556 S
C479 C483 1.392 1_556 S
C480 H469 0.950 . S
C480 C478 1.391 . S
C480 C481 1.400 . S
C481 C475 1.491 . S
C481 C480 1.400 . S
C481 C482 1.398 . S
C482 H470 0.950 . S
C482 C481 1.398 . S
C482 C483 1.391 . S
C483 H471 0.950 1_554 S
C483 C479 1.392 1_554 S
C483 C482 1.391 . S
H484 C492 0.950 . S
H485 C497 0.950 . S
H486 C494 0.950 . S
H487 C496 0.950 . S
H488 C498 0.950 . S
H489 C500 0.950 . S
H490 C502 0.950 . S
H491 C503 0.950 . S
C492 H484 0.950 . S
C492 C493 1.386 . S
C492 C494 1.391 . S
C493 C492 1.386 . S
C493 C497 1.393 . S
C494 H486 0.950 . S
C494 C492 1.391 . S
C494 C495 1.400 . S
C495 C494 1.400 . S
C495 C496 1.398 . S
C495 C501 1.491 . S
C496 H487 0.950 . S
C496 C495 1.398 . S
C496 C497 1.391 . S
C497 H485 0.950 . S
C497 C493 1.393 . S
C497 C496 1.391 . S
C498 H488 0.950 . S
C498 C499 1.386 . S
C498 C500 1.391 . S
C499 C498 1.386 . S
C499 C503 1.393 . S
C500 H489 0.950 . S
C500 C498 1.391 . S
C500 C501 1.400 . S
C501 C495 1.491 . S
C501 C500 1.400 . S
C501 C502 1.398 . S
C502 H490 0.950 . S
C502 C501 1.398 . S
C502 C503 1.391 . S
C503 H491 0.950 . S
C503 C499 1.393 . S
C503 C502 1.391 . S
H504 C512 0.950 . S
H505 C517 0.950 . S
H506 C514 0.950 . S
H507 C516 0.950 . S
H508 C518 0.950 . S
H509 C520 0.950 . S
H510 C522 0.950 . S
H511 C523 0.950 . S
C512 H504 0.950 . S
C512 C513 1.386 . S
C512 C514 1.391 . S
C513 C512 1.386 . S
C513 C517 1.393 . S
C514 H506 0.950 . S
C514 C512 1.391 . S
C514 C515 1.400 . S
C515 C514 1.400 . S
C515 C516 1.398 . S
C515 C521 1.491 . S
C516 H507 0.950 . S
C516 C515 1.398 . S
C516 C517 1.391 . S
C517 H505 0.950 . S
C517 C513 1.393 . S
C517 C516 1.391 . S
C518 H508 0.950 . S
C518 C519 1.386 1_556 S
C518 C520 1.391 1_556 S
C519 C518 1.386 1_554 S
C519 C523 1.393 . S
C520 H509 0.950 . S
C520 C518 1.391 1_554 S
C520 C521 1.400 . S
C521 C515 1.491 . S
C521 C520 1.400 . S
C521 C522 1.398 . S
C522 H510 0.950 . S
C522 C521 1.398 . S
C522 C523 1.391 . S
C523 H511 0.950 . S
C523 C519 1.393 . S
C523 C522 1.391 . S
H524 C532 0.950 . S
H525 C537 0.950 . S
H526 C534 0.950 . S
H527 C536 0.950 . S
H528 C538 0.950 . S
H529 C540 0.950 . S
H530 C542 0.950 . S
H531 C543 0.950 . S
C532 H524 0.950 . S
C532 C533 1.386 . S
C532 C534 1.391 . S
C533 C532 1.386 . S
C533 C537 1.393 . S
C534 H526 0.950 . S
C534 C532 1.391 . S
C534 C535 1.400 . S
C535 C534 1.400 . S
C535 C536 1.398 . S
C535 C541 1.491 . S
C536 H527 0.950 . S
C536 C535 1.398 . S
C536 C537 1.391 . S
C537 H525 0.950 . S
C537 C533 1.393 . S
C537 C536 1.391 . S
C538 H528 0.950 . S
C538 C539 1.386 . S
C538 C540 1.391 . S
C539 C538 1.386 . S
C539 C543 1.393 . S
C540 H529 0.950 . S
C540 C538 1.391 . S
C540 C541 1.400 . S
C541 C535 1.491 . S
C541 C540 1.400 . S
C541 C542 1.398 . S
C542 H530 0.950 . S
C542 C541 1.398 . S
C542 C543 1.391 . S
C543 H531 0.950 . S
C543 C539 1.393 . S
C543 C542 1.391 . S
H544 C552 0.950 . S
H545 C557 0.950 . S
H546 C554 0.950 . S
H547 C556 0.950 . S
H548 C558 0.950 . S
H549 C560 0.950 . S
H550 C562 0.950 . S
H551 C563 0.950 . S
C552 H544 0.950 . S
C552 C553 1.385 1_556 S
C552 C554 1.391 1_556 S
C553 C552 1.385 1_554 S
C553 C557 1.396 . S
C554 H546 0.950 . S
C554 C552 1.391 1_554 S
C554 C555 1.400 . S
C555 C554 1.400 . S
C555 C556 1.398 . S
C555 C561 1.491 . S
C556 H547 0.950 . S
C556 C555 1.398 . S
C556 C557 1.391 . S
C557 H545 0.950 . S
C557 C553 1.396 . S
C557 C556 1.391 . S
C558 H548 0.950 . S
C558 C559 1.386 . S
C558 C560 1.391 . S
C559 C558 1.386 . S
C559 C563 1.393 . S
C560 H549 0.950 . S
C560 C558 1.391 . S
C560 C561 1.400 . S
C561 C555 1.491 . S
C561 C560 1.400 . S
C561 C562 1.398 . S
C562 H550 0.950 . S
C562 C561 1.398 . S
C562 C563 1.391 . S
C563 H551 0.950 . S
C563 C559 1.393 . S
C563 C562 1.391 . S
H564 C572 0.950 . S
H565 C577 0.950 . S
H566 C574 0.950 . S
H567 C576 0.950 . S
H568 C578 0.950 . S
H569 C580 0.950 . S
H570 C582 0.950 . S
H571 C583 0.950 . S
C572 H564 0.950 . S
C572 C573 1.386 . S
C572 C574 1.391 . S
C573 C572 1.386 . S
C573 C577 1.393 . S
C574 H566 0.950 . S
C574 C572 1.391 . S
C574 C575 1.400 . S
C575 C574 1.400 . S
C575 C576 1.398 . S
C575 C581 1.491 . S
C576 H567 0.950 . S
C576 C575 1.398 . S
C576 C577 1.391 . S
C577 H565 0.950 . S
C577 C573 1.393 . S
C577 C576 1.391 . S
C578 H568 0.950 . S
C578 C579 1.386 . S
C578 C580 1.391 . S
C579 C578 1.386 . S
C579 C583 1.393 . S
C580 H569 0.950 . S
C580 C578 1.391 . S
C580 C581 1.400 . S
C581 C575 1.491 . S
C581 C580 1.400 . S
C581 C582 1.398 . S
C582 H570 0.950 . S
C582 C581 1.398 . S
C582 C583 1.391 . S
C583 H571 0.950 . S
C583 C579 1.393 . S
C583 C582 1.391 . S
H584 C592 0.950 . S
H585 C597 0.950 . S
H586 C594 0.950 . S
H587 C596 0.950 . S
H588 C598 0.950 . S
H589 C600 0.950 . S
H590 C602 0.950 . S
H591 C603 0.950 . S
C592 H584 0.950 . S
C592 C593 1.386 . S
C592 C594 1.391 . S
C593 C592 1.386 . S
C593 C597 1.393 . S
C594 H586 0.950 . S
C594 C592 1.391 . S
C594 C595 1.400 . S
C595 C594 1.400 . S
C595 C596 1.398 . S
C595 C601 1.491 . S
C596 H587 0.950 . S
C596 C595 1.398 . S
C596 C597 1.391 . S
C597 H585 0.950 . S
C597 C593 1.393 . S
C597 C596 1.391 . S
C598 H588 0.950 . S
C598 C599 1.382 1_556 S
C598 C600 1.391 1_556 S
C599 C598 1.382 1_554 S
C599 C603 1.409 . S
C600 H589 0.950 . S
C600 C598 1.391 1_554 S
C600 C601 1.400 . S
C601 C595 1.491 . S
C601 C600 1.400 . S
C601 C602 1.398 . S
C602 H590 0.950 . S
C602 C601 1.398 . S
C602 C603 1.391 . S
C603 H591 0.950 . S
C603 C599 1.409 . S
C603 C602 1.391 . S
H604 C612 0.950 . S
H605 C617 0.950 . S
H606 C614 0.950 . S
H607 C616 0.950 . S
H608 C618 0.950 . S
H609 C620 0.950 . S
H610 C622 0.950 . S
H611 C623 0.950 . S
C612 H604 0.950 . S
C612 C613 1.386 . S
C612 C614 1.391 . S
C613 C612 1.386 . S
C613 C617 1.393 . S
C614 H606 0.950 . S
C614 C612 1.391 . S
C614 C615 1.400 . S
C615 C614 1.400 . S
C615 C616 1.398 . S
C615 C621 1.491 . S
C616 H607 0.950 . S
C616 C615 1.398 . S
C616 C617 1.391 . S
C617 H605 0.950 . S
C617 C613 1.393 . S
C617 C616 1.391 . S
C618 H608 0.950 . S
C618 C619 1.386 . S
C618 C620 1.391 . S
C619 C618 1.386 . S
C619 C623 1.393 . S
C620 H609 0.950 . S
C620 C618 1.391 . S
C620 C621 1.400 . S
C621 C615 1.491 . S
C621 C620 1.400 . S
C621 C622 1.398 . S
C622 H610 0.950 . S
C622 C621 1.398 . S
C622 C623 1.391 . S
C623 H611 0.950 . S
C623 C619 1.393 . S
C623 C622 1.391 . S
H624 C632 0.950 . S
H625 C637 0.950 . S
H626 C634 0.950 . S
H627 C636 0.950 . S
H628 C638 0.950 . S
H629 C640 0.950 . S
H630 C642 0.950 . S
H631 C643 0.950 . S
C632 H624 0.950 . S
C632 C633 1.386 . S
C632 C634 1.391 . S
C633 C632 1.386 . S
C633 C637 1.393 . S
C634 H626 0.950 . S
C634 C632 1.391 . S
C634 C635 1.400 . S
C635 C634 1.400 . S
C635 C636 1.398 . S
C635 C641 1.491 . S
C636 H627 0.950 . S
C636 C635 1.398 . S
C636 C637 1.391 . S
C637 H625 0.950 . S
C637 C633 1.393 . S
C637 C636 1.391 . S
C638 H628 0.950 . S
C638 C639 1.386 . S
C638 C640 1.391 . S
C639 C638 1.386 . S
C639 C643 1.393 1_556 S
C640 H629 0.950 . S
C640 C638 1.391 . S
C640 C641 1.400 . S
C641 C635 1.491 . S
C641 C640 1.400 . S
C641 C642 1.398 . S
C642 H630 0.950 . S
C642 C641 1.398 . S
C642 C643 1.391 1_556 S
C643 H631 0.950 . S
C643 C639 1.393 1_554 S
C643 C642 1.391 1_554 S
H644 C652 0.950 . S
H645 C657 0.950 . S
H646 C654 0.950 . S
H647 C656 0.950 . S
H648 C658 0.950 . S
H649 C660 0.950 . S
H650 C662 0.950 . S
H651 C663 0.950 . S
C652 H644 0.950 . S
C652 C653 1.386 . S
C652 C654 1.391 . S
C653 C652 1.386 . S
C653 C657 1.393 . S
C654 H646 0.950 . S
C654 C652 1.391 . S
C654 C655 1.400 . S
C655 C654 1.400 . S
C655 C656 1.398 . S
C655 C661 1.491 . S
C656 H647 0.950 . S
C656 C655 1.398 . S
C656 C657 1.391 . S
C657 H645 0.950 . S
C657 C653 1.393 . S
C657 C656 1.391 . S
C658 H648 0.950 . S
C658 C659 1.386 . S
C658 C660 1.391 . S
C659 C658 1.386 . S
C659 C663 1.393 . S
C660 H649 0.950 . S
C660 C658 1.391 . S
C660 C661 1.400 . S
C661 C655 1.491 . S
C661 C660 1.400 . S
C661 C662 1.398 . S
C662 H650 0.950 . S
C662 C661 1.398 . S
C662 C663 1.391 . S
C663 H651 0.950 . S
C663 C659 1.393 . S
C663 C662 1.391 . S
H664 C672 0.950 . S
H665 C677 0.950 . S
H666 C674 0.950 . S
H667 C676 0.950 . S
H668 C678 0.950 . S
H669 C680 0.950 . S
H670 C682 0.950 . S
H671 C683 0.950 . S
C672 H664 0.950 . S
C672 C673 1.387 1_556 S
C672 C674 1.391 . S
C673 C672 1.387 1_554 S
C673 C677 1.393 . S
C674 H666 0.950 . S
C674 C672 1.391 . S
C674 C675 1.400 . S
C675 C674 1.400 . S
C675 C676 1.398 . S
C675 C681 1.491 . S
C676 H667 0.950 . S
C676 C675 1.398 . S
C676 C677 1.391 1_556 S
C677 H665 0.950 . S
C677 C673 1.393 . S
C677 C676 1.391 1_554 S
C678 H668 0.950 . S
C678 C679 1.386 . S
C678 C680 1.391 . S
C679 C678 1.386 . S
C679 C683 1.393 . S
C680 H669 0.950 . S
C680 C678 1.391 . S
C680 C681 1.400 . S
C681 C675 1.491 . S
C681 C680 1.400 . S
C681 C682 1.398 . S
C682 H670 0.950 . S
C682 C681 1.398 . S
C682 C683 1.391 . S
C683 H671 0.950 . S
C683 C679 1.393 . S
C683 C682 1.391 . S
H684 C692 0.950 . S
H685 C697 0.950 . S
H686 C694 0.950 . S
H687 C696 0.950 . S
H688 C698 0.950 . S
H689 C700 0.950 . S
H690 C702 0.950 . S
H691 C703 0.950 . S
C692 H684 0.950 . S
C692 C693 1.386 . S
C692 C694 1.391 . S
C693 C692 1.386 . S
C693 C697 1.393 . S
C694 H686 0.950 . S
C694 C692 1.391 . S
C694 C695 1.400 . S
C695 C694 1.400 . S
C695 C696 1.398 . S
C695 C701 1.491 . S
C696 H687 0.950 . S
C696 C695 1.398 . S
C696 C697 1.391 . S
C697 H685 0.950 . S
C697 C693 1.393 . S
C697 C696 1.391 . S
C698 H688 0.950 . S
C698 C699 1.386 . S
C698 C700 1.391 . S
C699 C698 1.386 . S
C699 C703 1.393 . S
C700 H689 0.950 . S
C700 C698 1.391 . S
C700 C701 1.400 . S
C701 C695 1.491 . S
C701 C700 1.400 . S
C701 C702 1.398 . S
C702 H690 0.950 . S
C702 C701 1.398 . S
C702 C703 1.391 . S
C703 H691 0.950 . S
C703 C699 1.393 . S
C703 C702 1.391 . S
H704 C712 0.950 . S
H705 C717 0.950 . S
H706 C714 0.950 . S
H707 C716 0.950 . S
H708 C718 0.950 . S
H709 C720 0.950 . S
H710 C722 0.950 . S
H711 C723 0.950 . S
C712 H704 0.950 . S
C712 C713 1.386 . S
C712 C714 1.391 . S
C713 C712 1.386 . S
C713 C717 1.393 . S
C714 H706 0.950 . S
C714 C712 1.391 . S
C714 C715 1.400 . S
C715 C714 1.400 . S
C715 C716 1.398 . S
C715 C721 1.491 . S
C716 H707 0.950 . S
C716 C715 1.398 . S
C716 C717 1.391 . S
C717 H705 0.950 . S
C717 C713 1.393 . S
C717 C716 1.391 . S
C718 H708 0.950 . S
C718 C719 1.386 . S
C718 C720 1.391 . S
C719 C718 1.386 . S
C719 C723 1.393 . S
C720 H709 0.950 . S
C720 C718 1.391 . S
C720 C721 1.400 . S
C721 C715 1.491 . S
C721 C720 1.400 . S
C721 C722 1.398 . S
C722 H710 0.950 . S
C722 C721 1.398 . S
C722 C723 1.391 . S
C723 H711 0.950 . S
C723 C719 1.393 . S
C723 C722 1.391 . S
H724 C732 0.950 . S
H725 C737 0.950 . S
H726 C734 0.950 . S
H727 C736 0.950 . S
H728 C738 0.950 . S
H729 C740 0.950 . S
H730 C742 0.950 . S
H731 C743 0.950 . S
C732 H724 0.950 . S
C732 C733 1.386 . S
C732 C734 1.391 . S
C733 C732 1.386 . S
C733 C737 1.393 . S
C734 H726 0.950 . S
C734 C732 1.391 . S
C734 C735 1.400 . S
C735 C734 1.400 . S
C735 C736 1.398 . S
C735 C741 1.491 . S
C736 H727 0.950 . S
C736 C735 1.398 . S
C736 C737 1.391 . S
C737 H725 0.950 . S
C737 C733 1.393 . S
C737 C736 1.391 . S
C738 H728 0.950 . S
C738 C739 1.386 . S
C738 C740 1.391 . S
C739 C738 1.386 . S
C739 C743 1.393 . S
C740 H729 0.950 . S
C740 C738 1.391 . S
C740 C741 1.400 . S
C741 C735 1.491 . S
C741 C740 1.400 . S
C741 C742 1.398 . S
C742 H730 0.950 . S
C742 C741 1.398 . S
C742 C743 1.391 . S
C743 H731 0.950 . S
C743 C739 1.393 . S
C743 C742 1.391 . S
H744 C752 0.950 . S
H745 C757 0.950 . S
H746 C754 0.950 . S
H747 C756 0.950 . S
H748 C758 0.950 . S
H749 C760 0.950 . S
H750 C762 0.950 . S
H751 C763 0.950 . S
C752 H744 0.950 . S
C752 C753 1.386 . S
C752 C754 1.391 . S
C753 C752 1.386 . S
C753 C757 1.393 . S
C754 H746 0.950 . S
C754 C752 1.391 . S
C754 C755 1.400 . S
C755 C754 1.400 . S
C755 C756 1.398 . S
C755 C761 1.491 . S
C756 H747 0.950 . S
C756 C755 1.398 . S
C756 C757 1.391 . S
C757 H745 0.950 . S
C757 C753 1.393 . S
C757 C756 1.391 . S
C758 H748 0.950 . S
C758 C759 1.386 . S
C758 C760 1.391 . S
C759 C758 1.386 . S
C759 C763 1.393 . S
C760 H749 0.950 . S
C760 C758 1.391 . S
C760 C761 1.400 . S
C761 C755 1.491 . S
C761 C760 1.400 . S
C761 C762 1.398 . S
C762 H750 0.950 . S
C762 C761 1.398 . S
C762 C763 1.391 . S
C763 H751 0.950 . S
C763 C759 1.393 . S
C763 C762 1.391 . S
H764 C772 0.950 . S
H765 C777 0.950 . S
H766 C774 0.950 . S
H767 C776 0.950 . S
H768 C778 0.950 . S
H769 C780 0.950 . S
H770 C782 0.950 . S
H771 C783 0.950 . S
C772 H764 0.950 . S
C772 C773 1.386 . S
C772 C774 1.391 . S
C773 C772 1.386 . S
C773 C777 1.393 . S
C774 H766 0.950 . S
C774 C772 1.391 . S
C774 C775 1.400 . S
C775 C774 1.400 . S
C775 C776 1.398 . S
C775 C781 1.491 . S
C776 H767 0.950 . S
C776 C775 1.398 . S
C776 C777 1.391 . S
C777 H765 0.950 . S
C777 C773 1.393 . S
C777 C776 1.391 . S
C778 H768 0.950 . S
C778 C779 1.386 . S
C778 C780 1.391 . S
C779 C778 1.386 . S
C779 C783 1.393 . S
C780 H769 0.950 . S
C780 C778 1.391 . S
C780 C781 1.400 . S
C781 C775 1.491 . S
C781 C780 1.400 . S
C781 C782 1.398 . S
C782 H770 0.950 . S
C782 C781 1.398 . S
C782 C783 1.391 . S
C783 H771 0.950 . S
C783 C779 1.393 . S
C783 C782 1.391 . S
H784 C792 0.950 . S
H785 C797 0.950 . S
H786 C794 0.950 . S
H787 C796 0.950 . S
H788 C798 0.950 . S
H789 C800 0.950 . S
H790 C802 0.950 . S
H791 C803 0.950 . S
C792 H784 0.950 . S
C792 C793 1.386 . S
C792 C794 1.391 . S
C793 C792 1.386 . S
C793 C797 1.393 . S
C794 H786 0.950 . S
C794 C792 1.391 . S
C794 C795 1.400 . S
C795 C794 1.400 . S
C795 C796 1.398 . S
C795 C801 1.491 . S
C796 H787 0.950 . S
C796 C795 1.398 . S
C796 C797 1.391 . S
C797 H785 0.950 . S
C797 C793 1.393 . S
C797 C796 1.391 . S
C798 H788 0.950 . S
C798 C799 1.386 . S
C798 C800 1.391 . S
C799 C798 1.386 . S
C799 C803 1.393 . S
C800 H789 0.950 . S
C800 C798 1.391 . S
C800 C801 1.400 . S
C801 C795 1.491 . S
C801 C800 1.400 . S
C801 C802 1.398 . S
C802 H790 0.950 . S
C802 C801 1.398 . S
C802 C803 1.391 . S
C803 H791 0.950 . S
C803 C799 1.393 . S
C803 C802 1.391 . S
H804 C812 0.950 . S
H805 C817 0.950 . S
H806 C814 0.950 . S
H807 C816 0.950 . S
H808 C818 0.950 . S
H809 C820 0.950 . S
H810 C822 0.950 . S
H811 C823 0.950 . S
C812 H804 0.950 . S
C812 C813 1.386 . S
C812 C814 1.391 . S
C813 C812 1.386 . S
C813 C817 1.393 . S
C814 H806 0.950 . S
C814 C812 1.391 . S
C814 C815 1.400 . S
C815 C814 1.400 . S
C815 C816 1.398 . S
C815 C821 1.491 . S
C816 H807 0.950 . S
C816 C815 1.398 . S
C816 C817 1.391 . S
C817 H805 0.950 . S
C817 C813 1.393 . S
C817 C816 1.391 . S
C818 H808 0.950 . S
C818 C819 1.386 . S
C818 C820 1.391 . S
C819 C818 1.386 . S
C819 C823 1.393 . S
C820 H809 0.950 . S
C820 C818 1.391 . S
C820 C821 1.400 . S
C821 C815 1.491 . S
C821 C820 1.400 . S
C821 C822 1.398 . S
C822 H810 0.950 . S
C822 C821 1.398 . S
C822 C823 1.391 . S
C823 H811 0.950 . S
C823 C819 1.393 . S
C823 C822 1.391 . S
H824 C832 0.950 . S
H825 C837 0.950 . S
H826 C834 0.950 . S
H827 C836 0.950 . S
H828 C838 0.950 . S
H829 C840 0.950 . S
H830 C842 0.950 . S
H831 C843 0.950 . S
C832 H824 0.950 . S
C832 C833 1.386 . S
C832 C834 1.391 . S
C833 C832 1.386 . S
C833 C837 1.393 . S
C834 H826 0.950 . S
C834 C832 1.391 . S
C834 C835 1.400 . S
C835 C834 1.400 . S
C835 C836 1.398 . S
C835 C841 1.491 . S
C836 H827 0.950 . S
C836 C835 1.398 . S
C836 C837 1.391 . S
C837 H825 0.950 . S
C837 C833 1.393 . S
C837 C836 1.391 . S
C838 H828 0.950 . S
C838 C839 1.386 . S
C838 C840 1.391 . S
C839 C838 1.386 . S
C839 C843 1.393 . S
C840 H829 0.950 . S
C840 C838 1.391 . S
C840 C841 1.400 . S
C841 C835 1.491 . S
C841 C840 1.400 . S
C841 C842 1.398 . S
C842 H830 0.950 . S
C842 C841 1.398 . S
C842 C843 1.391 . S
C843 H831 0.950 . S
C843 C839 1.393 . S
C843 C842 1.391 . S
H844 C852 0.950 . S
H845 C857 0.950 . S
H846 C854 0.950 . S
H847 C856 0.950 . S
H848 C858 0.950 . S
H849 C860 0.950 . S
H850 C862 0.950 . S
H851 C863 0.950 . S
C852 H844 0.950 . S
C852 C853 1.386 . S
C852 C854 1.391 . S
C853 C852 1.386 . S
C853 C857 1.393 . S
C854 H846 0.950 . S
C854 C852 1.391 . S
C854 C855 1.400 . S
C855 C854 1.400 . S
C855 C856 1.398 . S
C855 C861 1.491 . S
C856 H847 0.950 . S
C856 C855 1.398 . S
C856 C857 1.391 . S
C857 H845 0.950 . S
C857 C853 1.393 . S
C857 C856 1.391 . S
C858 H848 0.950 . S
C858 C859 1.386 . S
C858 C860 1.391 . S
C859 C858 1.386 . S
C859 C863 1.393 . S
C860 H849 0.950 . S
C860 C858 1.391 . S
C860 C861 1.400 . S
C861 C855 1.491 . S
C861 C860 1.400 . S
C861 C862 1.398 . S
C862 H850 0.950 . S
C862 C861 1.398 . S
C862 C863 1.391 . S
C863 H851 0.950 . S
C863 C859 1.393 . S
C863 C862 1.391 . S
C233 C6 0.992 . S
C239 C62 0.994 . S
C253 C76 1.014 . S
C259 C20 0.981 . S
C273 C34 1.015 . S
C279 C90 0.982 . S
C293 C48 0.982 . S
C299 C104 1.016 . S
C313 C118 1.013 . S
C319 C174 0.981 . S
C333 C188 0.981 . S
C339 C132 1.010 . S
C353 C146 0.988 . S
C359 C202 0.998 . S
C373 C160 0.981 . S
C379 C216 1.012 . S
C393 C8 1.714 1_556 S
C399 C219 1.673 . S
C413 C177 1.672 . S
C419 C22 1.712 . S
C433 C36 1.719 . S
C439 C191 1.679 . S
C453 C205 1.687 . S
C459 C50 1.713 . S
C473 C135 1.682 . S
C479 C64 1.718 . S
C493 C149 1.671 . S
C499 C78 1.712 . S
C513 C163 1.670 . S
C519 C92 1.711 1_554 S
C533 C121 1.670 . S
C539 C106 1.711 . S
C553 C120 1.710 1_554 S
C559 C107 1.672 . S
C573 C65 1.687 . S
C579 C134 1.712 . S
C593 C79 1.687 . S
C599 C148 1.700 1_554 S
C613 C162 1.713 . S
C619 C93 1.673 . S
C633 C23 1.670 . S
C639 C176 1.711 1_556 S
C653 C190 1.711 . S
C659 C37 1.679 . S
C673 C204 1.713 . S
C679 C51 1.685 . S
C693 C218 1.711 . S
C699 C9 1.686 . S
C713 C105 1.243 . S
C719 C7 1.270 . S
C733 C21 1.283 . S
C739 C63 1.256 . S
C753 C35 1.243 . S
C759 C77 1.270 . S
C773 C49 1.281 . S
C779 C91 1.264 . S
C793 C217 1.284 . S
C799 C119 1.249 . S
C813 C175 1.283 . S
C819 C133 1.259 . S
C833 C189 1.271 . S
C839 C147 1.243 . S
C853 C203 1.281 . S
C859 C161 1.245 . S
