# Generated by pormake.
# Topology ske, (6)-cn, num edge types: 1
# Building blocks:
#     Node 0, Type 0, BuildingBlock: CUKXOW_clean_sbu_0, # of connection points: 6
#     Node 1, Type 0, BuildingBlock: CUKXOW_clean_sbu_0, # of connection points: 6
#     Node 2, Type 0, BuildingBlock: CUKXOW_clean_sbu_0, # of connection points: 6
#     Node 3, Type 0, BuildingBlock: CUKXOW_clean_sbu_0, # of connection points: 6
#     Node 4, Type 0, BuildingBlock: CUKXOW_clean_sbu_0, # of connection points: 6
#     Node 5, Type 0, BuildingBlock: CUKXOW_clean_sbu_0, # of connection points: 6
#     Node 6, Type 0, BuildingBlock: CUKXOW_clean_sbu_0, # of connection points: 6
#     Node 7, Type 0, BuildingBlock: CUKXOW_clean_sbu_0, # of connection points: 6
#     Edge 8, Type (0, 0), BuildingBlock: CIFDUS_clean_linker_0, # of connection points: 2
#     Edge 9, Type (0, 0), BuildingBlock: CIFDUS_clean_linker_0, # of connection points: 2
#     Edge 10, Type (0, 0), BuildingBlock: CIFDUS_clean_linker_0, # of connection points: 2
#     Edge 11, Type (0, 0), BuildingBlock: CIFDUS_clean_linker_0, # of connection points: 2
#     Edge 12, Type (0, 0), BuildingBlock: CIFDUS_clean_linker_0, # of connection points: 2
#     Edge 13, Type (0, 0), BuildingBlock: CIFDUS_clean_linker_0, # of connection points: 2
#     Edge 14, Type (0, 0), BuildingBlock: CIFDUS_clean_linker_0, # of connection points: 2
#     Edge 15, Type (0, 0), BuildingBlock: CIFDUS_clean_linker_0, # of connection points: 2
#     Edge 16, Type (0, 0), BuildingBlock: CIFDUS_clean_linker_0, # of connection points: 2
#     Edge 17, Type (0, 0), BuildingBlock: CIFDUS_clean_linker_0, # of connection points: 2
#     Edge 18, Type (0, 0), BuildingBlock: CIFDUS_clean_linker_0, # of connection points: 2
#     Edge 19, Type (0, 0), BuildingBlock: CIFDUS_clean_linker_0, # of connection points: 2
#     Edge 20, Type (0, 0), BuildingBlock: CIFDUS_clean_linker_0, # of connection points: 2
#     Edge 21, Type (0, 0), BuildingBlock: CIFDUS_clean_linker_0, # of connection points: 2
#     Edge 22, Type (0, 0), BuildingBlock: CIFDUS_clean_linker_0, # of connection points: 2
#     Edge 23, Type (0, 0), BuildingBlock: CIFDUS_clean_linker_0, # of connection points: 2
#     Edge 24, Type (0, 0), BuildingBlock: CIFDUS_clean_linker_0, # of connection points: 2
#     Edge 25, Type (0, 0), BuildingBlock: CIFDUS_clean_linker_0, # of connection points: 2
#     Edge 26, Type (0, 0), BuildingBlock: CIFDUS_clean_linker_0, # of connection points: 2
#     Edge 27, Type (0, 0), BuildingBlock: CIFDUS_clean_linker_0, # of connection points: 2
#     Edge 28, Type (0, 0), BuildingBlock: CIFDUS_clean_linker_0, # of connection points: 2
#     Edge 29, Type (0, 0), BuildingBlock: CIFDUS_clean_linker_0, # of connection points: 2
#     Edge 30, Type (0, 0), BuildingBlock: CIFDUS_clean_linker_0, # of connection points: 2
#     Edge 31, Type (0, 0), BuildingBlock: CIFDUS_clean_linker_0, # of connection points: 2
# Relax obj value: 0.167
# Max RMSD: 0.210
# Mean RMSD: 0.210
data_MOF--net-ske--node1-CUKXOW_clean_sbu_0--edge1-CIFDUS_clean_linker_0
_symmetry_space_group_name_H-M    P1
_symmetry_Int_Tables_number       1
_symmetry_cell_setting            triclinic
loop_
_symmetry_equiv_pos_as_xyz
'x, y, z'
_cell_length_a     45.370946
_cell_length_b     26.7024
_cell_length_c     16.096609
_cell_angle_alpha  96.745338
_cell_angle_beta   89.786732
_cell_angle_gamma 90.071677
loop_
_atom_site_label
_atom_site_type_symbol
_atom_site_fract_x
_atom_site_fract_y
_atom_site_fract_z
_atom_type_partial_charge
Tb0 Tb 0.17987 0.2726 0.46608 0.0
C1 C 0.16341 0.176 0.54209 0.0
Tb2 Tb 0.15709 0.28463 0.65012 0.0
O3 O 0.22188 0.24213 0.51147 0.0
O4 O 0.19706 0.29361 0.58739 0.0
O5 O 0.16419 0.19762 0.47264 0.0
C6 C 0.15795 0.28399 0.81587 0.0
O7 O 0.16601 0.2024 0.61761 0.0
C8 C 0.11178 0.27948 0.54905 0.0
C9 C 0.16071 0.38159 0.55307 0.0
O10 O 0.1405 0.25778 0.76419 0.0
O11 O 0.17478 0.31174 0.77449 0.0
O12 O 0.10958 0.28753 0.63002 0.0
O13 O 0.13889 0.27718 0.52992 0.0
O14 O 0.15707 0.36445 0.62742 0.0
O15 O 0.16772 0.35195 0.48368 0.0
C16 C 0.18608 0.27453 0.30171 0.0
O17 O 0.20311 0.29793 0.35843 0.0
O18 O 0.16618 0.24955 0.33771 0.0
C19 C 0.21937 0.26598 0.58648 0.0
Tb20 Tb 0.90008 0.25942 0.64235 0.0
C21 C 0.8897 0.35268 0.53891 0.0
Tb22 Tb 0.88395 0.24268 0.45334 0.0
O23 O 0.94713 0.27667 0.6341 0.0
O24 O 0.92179 0.26036 0.52731 0.0
O25 O 0.88813 0.33624 0.61414 0.0
C26 C 0.88548 0.22543 0.28714 0.0
O27 O 0.89349 0.32218 0.46897 0.0
C28 C 0.83969 0.24901 0.56272 0.0
C29 C 0.89894 0.14696 0.54285 0.0
O30 O 0.86393 0.24685 0.33094 0.0
O31 O 0.90588 0.21289 0.33699 0.0
O32 O 0.83753 0.26184 0.48759 0.0
O33 O 0.86464 0.22985 0.56908 0.0
O34 O 0.89281 0.1649 0.47138 0.0
O35 O 0.90105 0.17629 0.61587 0.0
C36 C 0.89212 0.26444 0.80646 0.0
O37 O 0.91313 0.24 0.76443 0.0
O38 O 0.87594 0.28749 0.75635 0.0
C39 C 0.94761 0.27117 0.5528 0.0
Tb40 Tb 0.18193 0.76494 0.54982 0.0
C41 C 0.17355 0.874 0.49693 0.0
Tb42 Tb 0.16093 0.77307 0.37159 0.0
O43 O 0.22342 0.73152 0.49394 0.0
O44 O 0.20067 0.78482 0.43682 0.0
O45 O 0.18064 0.84647 0.5572 0.0
C46 C 0.16475 0.7786 0.20766 0.0
O47 O 0.1666 0.85363 0.41963 0.0
C48 C 0.11387 0.76587 0.46384 0.0
C49 C 0.16045 0.66754 0.44787 0.0
O50 O 0.1471 0.80488 0.25928 0.0
O51 O 0.18023 0.74856 0.24819 0.0
O52 O 0.11329 0.76953 0.38421 0.0
O53 O 0.14053 0.76623 0.48786 0.0
O54 O 0.1645 0.69003 0.37851 0.0
O55 O 0.16046 0.6936 0.5226 0.0
C56 C 0.18817 0.76802 0.7154 0.0
O57 O 0.20445 0.74186 0.65979 0.0
O58 O 0.16875 0.79272 0.67767 0.0
C59 C 0.22215 0.75524 0.42817 0.0
Tb60 Tb 0.89962 0.73337 0.35618 0.0
C61 C 0.89878 0.64191 0.46091 0.0
Tb62 Tb 0.88221 0.75123 0.54247 0.0
O63 O 0.94785 0.73579 0.36418 0.0
O64 O 0.92163 0.74651 0.471 0.0
O65 O 0.89396 0.65523 0.38482 0.0
C66 C 0.87497 0.74259 0.70424 0.0
O67 O 0.9001 0.6753 0.52833 0.0
C68 C 0.83929 0.75595 0.4315 0.0
C69 C 0.898 0.84513 0.45839 0.0
O70 O 0.86519 0.71114 0.64314 0.0
O71 O 0.88837 0.7797 0.67447 0.0
O72 O 0.83877 0.77974 0.50647 0.0
O73 O 0.86101 0.72667 0.42671 0.0
O74 O 0.89768 0.82625 0.53068 0.0
O75 O 0.89536 0.81619 0.38541 0.0
C76 C 0.88957 0.73941 0.19508 0.0
O77 O 0.88277 0.77305 0.25646 0.0
O78 O 0.90217 0.70117 0.22391 0.0
C79 C 0.94803 0.74533 0.44535 0.0
Tb80 Tb 0.67777 0.75558 0.95135 0.0
C81 C 0.67043 0.6503 0.01732 0.0
Tb82 Tb 0.6627 0.75442 0.1362 0.0
O83 O 0.72202 0.78538 0.98882 0.0
O84 O 0.69993 0.73824 0.06054 0.0
O85 O 0.67488 0.67543 0.95251 0.0
C86 C 0.67345 0.75787 0.29818 0.0
O87 O 0.66706 0.6729 0.09529 0.0
C88 C 0.61297 0.76054 0.05581 0.0
C89 C 0.66251 0.85648 0.05095 0.0
O90 O 0.65493 0.72747 0.25672 0.0
O91 O 0.68561 0.78702 0.24878 0.0
O92 O 0.61468 0.75962 0.13612 0.0
O93 O 0.63882 0.75843 0.02539 0.0
O94 O 0.66783 0.83554 0.12076 0.0
O95 O 0.65912 0.82904 0.97817 0.0
C96 C 0.67747 0.74183 0.78539 0.0
O97 O 0.69519 0.77192 0.83043 0.0
O98 O 0.66006 0.71983 0.83365 0.0
C99 C 0.72255 0.76503 0.05819 0.0
Tb100 Tb 0.39482 0.75213 0.12521 0.0
C101 C 0.38798 0.84252 0.01905 0.0
Tb102 Tb 0.38314 0.72869 0.94204 0.0
O103 O 0.4373 0.78565 0.10362 0.0
O104 O 0.42146 0.72605 0.01969 0.0
O105 O 0.38761 0.82938 0.09626 0.0
C106 C 0.38781 0.72289 0.77584 0.0
O107 O 0.38909 0.80931 0.95163 0.0
C108 C 0.33704 0.72542 0.04309 0.0
C109 C 0.3922 0.63714 0.03499 0.0
O110 O 0.36359 0.73226 0.81815 0.0
O111 O 0.40901 0.71615 0.82698 0.0
O112 O 0.34027 0.69535 0.97393 0.0
O113 O 0.35805 0.75619 0.04879 0.0
O114 O 0.39398 0.65373 0.96143 0.0
O115 O 0.38971 0.66841 0.10592 0.0
C116 C 0.38821 0.75648 0.29086 0.0
O117 O 0.41239 0.74464 0.2499 0.0
O118 O 0.36805 0.76678 0.23878 0.0
C119 C 0.44221 0.75806 0.03284 0.0
Tb120 Tb 0.68332 0.24676 0.05891 0.0
C121 C 0.67102 0.35004 0.99105 0.0
Tb122 Tb 0.66803 0.24498 0.87359 0.0
O123 O 0.72879 0.22249 0.0221 0.0
O124 O 0.70467 0.26534 0.94881 0.0
O125 O 0.67574 0.32599 0.05688 0.0
C126 C 0.67867 0.24086 0.71115 0.0
O127 O 0.66984 0.32684 0.91302 0.0
C128 C 0.61866 0.23614 0.95479 0.0
C129 C 0.66884 0.14423 0.96197 0.0
O130 O 0.66009 0.27119 0.75278 0.0
O131 O 0.69099 0.21213 0.7607 0.0
O132 O 0.62026 0.23671 0.87433 0.0
O133 O 0.6444 0.24033 0.9852 0.0
O134 O 0.67418 0.16452 0.89143 0.0
O135 O 0.66563 0.17229 0.03437 0.0
C136 C 0.68426 0.26086 0.22503 0.0
O137 O 0.70009 0.22802 0.17882 0.0
O138 O 0.66805 0.28548 0.17782 0.0
C139 C 0.72833 0.24159 0.95168 0.0
Tb140 Tb 0.40267 0.22341 0.85832 0.0
C141 C 0.40372 0.13309 0.96552 0.0
Tb142 Tb 0.38857 0.24372 0.04161 0.0
O143 O 0.44695 0.19802 0.88128 0.0
O144 O 0.42686 0.25329 0.96603 0.0
O145 O 0.39959 0.14571 0.88887 0.0
C146 C 0.39133 0.25164 0.20817 0.0
O147 O 0.40398 0.1667 0.03252 0.0
C148 C 0.3429 0.23738 0.93768 0.0
C149 C 0.39253 0.33682 0.94864 0.0
O150 O 0.37066 0.22836 0.16311 0.0
O151 O 0.40988 0.27091 0.15954 0.0
O152 O 0.34334 0.2668 0.00809 0.0
O153 O 0.36615 0.21189 0.93304 0.0
O154 O 0.39422 0.32039 0.02229 0.0
O155 O 0.39244 0.30558 0.87738 0.0
C156 C 0.39743 0.2166 0.69209 0.0
O157 O 0.41954 0.23676 0.73475 0.0
O158 O 0.37875 0.19961 0.7428 0.0
C159 C 0.4494 0.22515 0.95353 0.0
H160 H 0.26037 0.19442 0.61813 0.0
H161 H 0.22656 0.3406 0.71435 0.0
H162 H 0.26014 0.34438 0.83307 0.0
H163 H 0.3005 0.30721 0.90934 0.0
H164 H 0.3332 0.15982 0.816 0.0
H165 H 0.2993 0.15563 0.6978 0.0
C166 C 0.26046 0.2271 0.665 0.0
C167 C 0.24077 0.26704 0.65719 0.0
C168 C 0.27989 0.22897 0.73413 0.0
C169 C 0.24113 0.30897 0.71905 0.0
C170 C 0.26048 0.31131 0.78708 0.0
C171 C 0.3 0.27404 0.8635 0.0
C172 C 0.31989 0.23433 0.8709 0.0
C173 C 0.28006 0.2716 0.7955 0.0
C174 C 0.31867 0.19149 0.81102 0.0
C175 C 0.29917 0.18894 0.74329 0.0
H176 H 0.72992 0.28664 0.80794 0.0
H177 H 0.78093 0.19166 0.9517 0.0
H178 H 0.81995 0.18615 0.8453 0.0
H179 H 0.83904 0.20636 0.70891 0.0
H180 H 0.78716 0.29886 0.56292 0.0
H181 H 0.74857 0.30565 0.67059 0.0
C182 C 0.7494 0.26418 0.81549 0.0
C183 C 0.75223 0.23893 0.88732 0.0
C184 C 0.77149 0.26034 0.75301 0.0
C185 C 0.77801 0.2111 0.89692 0.0
C186 C 0.80032 0.20785 0.83588 0.0
C187 C 0.81938 0.22833 0.70097 0.0
C188 C 0.81618 0.25259 0.62818 0.0
C189 C 0.79724 0.23203 0.76335 0.0
C190 C 0.7903 0.28008 0.61833 0.0
C191 C 0.76824 0.28407 0.68008 0.0
H192 H 0.31551 0.8014 0.15322 0.0
H193 H 0.30791 0.64129 0.0831 0.0
H194 H 0.27322 0.63514 0.19914 0.0
H195 H 0.24487 0.67597 0.32247 0.0
H196 H 0.24971 0.83729 0.38241 0.0
H197 H 0.28567 0.84236 0.27009 0.0
C198 C 0.30616 0.76517 0.16322 0.0
C199 C 0.31442 0.72181 0.10973 0.0
C200 C 0.28587 0.76216 0.2292 0.0
C201 C 0.30186 0.67525 0.12304 0.0
C202 C 0.28214 0.67173 0.1898 0.0
C203 C 0.25409 0.71205 0.31121 0.0
C204 C 0.24508 0.75617 0.36185 0.0
C205 C 0.27404 0.71492 0.24378 0.0
C206 C 0.25655 0.80282 0.34503 0.0
C207 C 0.27704 0.80575 0.28053 0.0
H208 H 0.72849 0.71345 0.19421 0.0
H209 H 0.77063 0.82724 0.06596 0.0
H210 H 0.8099 0.83571 0.17088 0.0
H211 H 0.83218 0.81129 0.30083 0.0
H212 H 0.79089 0.69571 0.42624 0.0
H213 H 0.75085 0.68877 0.32331 0.0
C214 C 0.74617 0.74034 0.18948 0.0
C215 C 0.74644 0.76993 0.12232 0.0
C216 C 0.76871 0.74502 0.25034 0.0
C217 C 0.76977 0.80411 0.11686 0.0
C218 C 0.79222 0.80904 0.17708 0.0
C219 C 0.8146 0.78417 0.30483 0.0
C220 C 0.81466 0.75352 0.37039 0.0
C221 C 0.79196 0.77973 0.24419 0.0
C222 C 0.79135 0.71948 0.37614 0.0
C223 C 0.76853 0.71544 0.3171 0.0
H224 H 0.14791 0.9452 0.41175 0.0
H225 H 0.19954 0.92876 0.63142 0.0
H226 H 0.19932 0.01993 0.66946 0.0
H227 H 0.18566 0.1058 0.63823 0.0
H228 H 0.13375 0.12076 0.4185 0.0
H229 H 0.13259 0.02966 0.38399 0.0
C230 C 0.15923 0.96152 0.46772 0.0
C231 C 0.17387 0.92989 0.51799 0.0
C232 C 0.1588 0.01418 0.49 0.0
C233 C 0.18808 0.95196 0.5911 0.0
C234 C 0.18795 0.00429 0.61321 0.0
C235 C 0.17373 0.08897 0.58369 0.0
C236 C 0.15996 0.12024 0.53098 0.0
C237 C 0.17342 0.03597 0.56312 0.0
C238 C 0.14479 0.09772 0.45995 0.0
C239 C 0.14414 0.04548 0.43984 0.0
H240 H 0.92419 0.43334 0.59656 0.0
H241 H 0.84716 0.39062 0.44952 0.0
H242 H 0.84429 0.47494 0.40508 0.0
H243 H 0.86432 0.56108 0.40548 0.0
H244 H 0.94095 0.60446 0.554 0.0
H245 H 0.94385 0.52015 0.59861 0.0
C246 C 0.90641 0.44312 0.55661 0.0
C247 C 0.88549 0.40637 0.52794 0.0
C248 C 0.90532 0.49154 0.52954 0.0
C249 C 0.86313 0.4188 0.47371 0.0
C250 C 0.86168 0.46681 0.44746 0.0
C251 C 0.88194 0.55158 0.44619 0.0
C252 C 0.90271 0.58853 0.47512 0.0
C253 C 0.88291 0.50336 0.47387 0.0
C254 C 0.92494 0.57629 0.52999 0.0
C255 C 0.92645 0.52824 0.55621 0.0
H256 H 0.9046 0.91578 0.59417 0.0
H257 H 0.89587 0.90015 0.32521 0.0
H258 H 0.89651 0.99173 0.32784 0.0
H259 H 0.89768 0.07607 0.40636 0.0
H260 H 0.90585 0.09207 0.67547 0.0
H261 H 0.90741 1.00041 0.67247 0.0
C262 C 0.90295 0.93226 0.53593 0.0
C263 C 0.90005 0.90081 0.45957 0.0
C264 C 0.90315 0.98508 0.53786 0.0
C265 C 0.89808 0.92316 0.38492 0.0
C266 C 0.89839 0.97564 0.38636 0.0
C267 C 0.89989 0.05972 0.46458 0.0
C268 C 0.90147 0.09127 0.54117 0.0
C269 C 0.90062 0.00695 0.4625 0.0
C270 C 0.90453 0.06899 0.6156 0.0
C271 C 0.90537 0.01647 0.61397 0.0
H272 H 0.1428 0.61746 0.57621 0.0
H273 H 0.17189 0.5917 0.31903 0.0
H274 H 0.17337 0.50055 0.32872 0.0
H275 H 0.16976 0.42949 0.41363 0.0
H276 H 0.14286 0.45742 0.67282 0.0
H277 H 0.13767 0.54712 0.65891 0.0
C278 C 0.14939 0.59216 0.52166 0.0
C279 C 0.15748 0.6118 0.44686 0.0
C280 C 0.15097 0.54031 0.52857 0.0
C281 C 0.16547 0.5779 0.3771 0.0
C282 C 0.16655 0.5258 0.38301 0.0
C283 C 0.16265 0.45499 0.46733 0.0
C284 C 0.15688 0.43632 0.5447 0.0
C285 C 0.15992 0.50675 0.459 0.0
C286 C 0.14764 0.47037 0.61292 0.0
C287 C 0.1446 0.52174 0.60486 0.0
H288 H 0.66234 0.58081 0.12738 0.0
H289 H 0.67805 0.59437 0.86596 0.0
H290 H 0.67836 0.50341 0.83398 0.0
H291 H 0.67546 0.4192 0.87966 0.0
H292 H 0.66005 0.40527 0.14085 0.0
H293 H 0.65819 0.49645 0.17254 0.0
C294 C 0.66582 0.56388 0.0635 0.0
C295 C 0.67031 0.59465 0.99972 0.0
C296 C 0.66602 0.51114 0.04495 0.0
C297 C 0.67465 0.57189 0.91696 0.0
C298 C 0.6748 0.51965 0.89817 0.0
C299 C 0.67149 0.43614 0.94331 0.0
C300 C 0.66817 0.40541 0.00755 0.0
C301 C 0.67065 0.48884 0.96164 0.0
C302 C 0.66306 0.428 0.08996 0.0
C303 C 0.66193 0.48026 0.10842 0.0
H304 H 0.41516 0.92345 0.10532 0.0
H305 H 0.35829 0.8794 0.8953 0.0
H306 H 0.36004 0.9645 0.85503 0.0
H307 H 0.37784 0.05172 0.87883 0.0
H308 H 0.43463 0.09649 0.08869 0.0
H309 H 0.4334 0.01107 0.12849 0.0
C310 C 0.40285 0.93293 0.0517 0.0
C311 C 0.3865 0.89562 0.00372 0.0
C312 C 0.40441 0.98183 0.02772 0.0
C313 C 0.37102 0.90781 0.93326 0.0
C314 C 0.37212 0.95632 0.90982 0.0
C315 C 0.39033 0.0424 0.93227 0.0
C316 C 0.40636 0.08001 0.98046 0.0
C317 C 0.38899 0.99353 0.95598 0.0
C318 C 0.42209 0.06789 0.05059 0.0
C319 C 0.42127 0.0192 0.07376 0.0
H320 H 0.38887 0.40681 0.0844 0.0
H321 H 0.39403 0.39175 0.81435 0.0
H322 H 0.39461 0.48377 0.81884 0.0
H323 H 0.39445 0.56705 0.89911 0.0
H324 H 0.38931 0.5822 0.16917 0.0
H325 H 0.38822 0.49017 0.16466 0.0
C326 C 0.39011 0.42333 0.02609 0.0
C327 C 0.39152 0.39222 0.94883 0.0
C328 C 0.39062 0.4759 0.0293 0.0
C329 C 0.39291 0.41468 0.87442 0.0
C330 C 0.39333 0.46722 0.87709 0.0
C331 C 0.39314 0.55057 0.95745 0.0
C332 C 0.39208 0.5817 0.03473 0.0
C333 C 0.39236 0.49802 0.95421 0.0
C334 C 0.39026 0.55926 0.10909 0.0
C335 C 0.38958 0.50671 0.1064 0.0
H336 H 0.664 0.09419 0.09856 0.0
H337 H 0.66917 0.06971 0.82866 0.0
H338 H 0.6666 0.97849 0.8338 0.0
H339 H 0.66398 0.9068 0.91459 0.0
H340 H 0.66044 0.9309 0.18464 0.0
H341 H 0.66121 0.02232 0.17948 0.0
C342 C 0.66445 0.06913 0.04045 0.0
C343 C 0.66673 0.08893 0.963 0.0
C344 C 0.66327 0.017 0.04406 0.0
C345 C 0.66744 0.0556 0.88888 0.0
C346 C 0.66596 0.0035 0.8919 0.0
C347 C 0.66315 0.93182 0.97271 0.0
C348 C 0.662 0.9119 0.05021 0.0
C349 C 0.664 0.98393 0.96915 0.0
C350 C 0.66131 0.94515 0.1244 0.0
C351 C 0.66176 0.99734 0.12134 0.0
H352 H 0.14777 0.23369 0.18643 0.0
H353 H 0.22503 0.32811 0.21595 0.0
H354 H 0.22314 0.34041 0.06725 0.0
H355 H 0.19862 0.32491 0.92892 0.0
H356 H 0.12098 0.23089 0.90368 0.0
H357 H 0.12373 0.21818 0.05083 0.0
C358 C 0.16431 0.25674 0.16024 0.0
C359 C 0.18655 0.27984 0.21162 0.0
C360 C 0.16281 0.26407 0.07565 0.0
C361 C 0.20777 0.30979 0.17718 0.0
C362 C 0.2066 0.31697 0.0924 0.0
C363 C 0.18226 0.30198 0.95609 0.0
C364 C 0.15953 0.27909 0.90592 0.0
C365 C 0.18406 0.29456 0.0411 0.0
C366 C 0.13861 0.24903 0.94126 0.0
C367 C 0.14019 0.24161 0.0253 0.0
H368 H 0.85012 0.26883 0.18084 0.0
H369 H 0.92847 0.17831 0.19037 0.0
H370 H 0.93728 0.18241 0.04151 0.0
H371 H 0.92401 0.21484 0.91086 0.0
H372 H 0.84621 0.30641 0.90003 0.0
H373 H 0.83585 0.29915 0.04771 0.0
C374 C 0.86889 0.24953 0.14987 0.0
C375 C 0.88865 0.22329 0.19597 0.0
C376 C 0.87409 0.25286 0.06471 0.0
C377 C 0.913 0.19868 0.15577 0.0
C378 C 0.9181 0.2012 0.07092 0.0
C379 C 0.90484 0.23334 0.94098 0.0
C380 C 0.88608 0.26163 0.8955 0.0
C381 C 0.89907 0.22884 0.02523 0.0
C382 C 0.86115 0.28501 0.93457 0.0
C383 C 0.85516 0.28063 0.01867 0.0
H384 H 0.20275 0.73047 0.09341 0.0
H385 H 0.13095 0.83703 0.12021 0.0
H386 H 0.13277 0.84464 0.97079 0.0
H387 H 0.15371 0.81957 0.83209 0.0
H388 H 0.22528 0.71287 0.80241 0.0
H389 H 0.22485 0.70696 0.95334 0.0
C390 C 0.18756 0.75529 0.06626 0.0
C391 C 0.16663 0.78293 0.11738 0.0
C392 C 0.18874 0.75954 0.97999 0.0
C393 C 0.14718 0.81525 0.08192 0.0
C394 C 0.14821 0.81966 0.99654 0.0
C395 C 0.16933 0.79525 0.85877 0.0
C396 C 0.18946 0.76665 0.80659 0.0
C397 C 0.16876 0.79182 0.94498 0.0
C398 C 0.20959 0.73528 0.84169 0.0
C399 C 0.20928 0.7318 0.9278 0.0
H400 H 0.87834 0.81235 0.83926 0.0
H401 H 0.8715 0.65237 0.76543 0.0
H402 H 0.87613 0.63624 0.91146 0.0
H403 H 0.88398 0.66809 0.06044 0.0
H404 H 0.88614 0.82864 0.13382 0.0
H405 H 0.88144 0.84427 0.98822 0.0
C406 C 0.87764 0.77407 0.85555 0.0
C407 C 0.8748 0.7336 0.79245 0.0
C408 C 0.87966 0.76523 0.93946 0.0
C409 C 0.87359 0.68409 0.81361 0.0
C410 C 0.87639 0.67485 0.89687 0.0
C411 C 0.88341 0.70634 0.04408 0.0
C412 C 0.88583 0.74713 0.10696 0.0
C413 C 0.87978 0.71513 0.96031 0.0
C414 C 0.88448 0.79666 0.08594 0.0
C415 C 0.8818 0.80567 0.00283 0.0
H416 H 0.64764 0.70083 0.40402 0.0
H417 H 0.71333 0.81653 0.39098 0.0
H418 H 0.72184 0.81989 0.54178 0.0
H419 H 0.70854 0.79251 0.67808 0.0
H420 H 0.64219 0.67753 0.68917 0.0
H421 H 0.63605 0.67094 0.53781 0.0
C422 C 0.66388 0.72664 0.43427 0.0
C423 C 0.67961 0.7588 0.3875 0.0
C424 C 0.66847 0.72846 0.5203 0.0
C425 C 0.70077 0.79184 0.42661 0.0
C426 C 0.70566 0.79369 0.5125 0.0
C427 C 0.69296 0.7658 0.64698 0.0
C428 C 0.67571 0.73574 0.69402 0.0
C429 C 0.68933 0.76261 0.56011 0.0
C430 C 0.65558 0.70117 0.65375 0.0
C431 C 0.65204 0.69742 0.56742 0.0
H432 H 0.34746 0.74974 0.66469 0.0
H433 H 0.43733 0.70021 0.68504 0.0
H434 H 0.44561 0.70715 0.53692 0.0
H435 H 0.4276 0.72833 0.40193 0.0
H436 H 0.33783 0.7779 0.3802 0.0
H437 H 0.32921 0.77033 0.5284 0.0
C438 C 0.36874 0.74018 0.63632 0.0
C439 C 0.39173 0.72439 0.68532 0.0
C440 C 0.37344 0.7447 0.55115 0.0
C441 C 0.41929 0.71237 0.64831 0.0
C442 C 0.42408 0.71646 0.56374 0.0
C443 C 0.40622 0.73768 0.42988 0.0
C444 C 0.38346 0.75393 0.38079 0.0
C445 C 0.40139 0.73289 0.51472 0.0
C446 C 0.35576 0.76562 0.41723 0.0
C447 C 0.35078 0.76112 0.50179 0.0
H448 H 0.71353 0.20653 0.33024 0.0
H449 H 0.65138 0.32821 0.32371 0.0
H450 H 0.64511 0.33393 0.4751 0.0
H451 H 0.6551 0.30132 0.60746 0.0
H452 H 0.71688 0.17948 0.61615 0.0
H453 H 0.7257 0.17682 0.46539 0.0
C454 C 0.69885 0.23452 0.36234 0.0
C455 C 0.68277 0.26668 0.31652 0.0
C456 C 0.69516 0.23728 0.44924 0.0
C457 C 0.66385 0.30294 0.35814 0.0
C458 C 0.66022 0.30618 0.44448 0.0
C459 C 0.67054 0.27428 0.57627 0.0
C460 C 0.68503 0.24018 0.62181 0.0
C461 C 0.67537 0.273 0.49031 0.0
C462 C 0.70525 0.20567 0.5815 0.0
C463 C 0.71031 0.20422 0.49562 0.0
H464 H 0.35747 0.20485 0.31543 0.0
H465 H 0.43469 0.29813 0.30336 0.0
H466 H 0.44398 0.29444 0.45178 0.0
H467 H 0.43056 0.2638 0.58482 0.0
H468 H 0.35298 0.17163 0.59836 0.0
H469 H 0.34351 0.17535 0.4497 0.0
C470 C 0.37617 0.22459 0.34565 0.0
C471 C 0.39534 0.25175 0.29891 0.0
C472 C 0.38147 0.2221 0.43102 0.0
C473 C 0.41959 0.27705 0.33835 0.0
C474 C 0.42499 0.27483 0.42309 0.0
C475 C 0.41171 0.24433 0.55493 0.0
C476 C 0.39264 0.21718 0.60185 0.0
C477 C 0.4062 0.24719 0.4699 0.0
C478 C 0.36807 0.19252 0.56301 0.0
C479 C 0.36259 0.19477 0.4782 0.0
H480 H 0.07271 0.34992 0.51564 0.0
H481 H 0.09073 0.19088 0.47328 0.0
H482 H 0.0382 0.17322 0.45087 0.0
H483 H 0.98687 0.20255 0.48038 0.0
H484 H 0.96944 0.36174 0.52798 0.0
H485 H 1.02163 0.3802 0.50906 0.0
C486 C 0.06527 0.31167 0.49654 0.0
C487 C 0.08557 0.2718 0.49509 0.0
C488 C 0.03487 0.30187 0.48654 0.0
C489 C 0.07562 0.22225 0.4728 0.0
C490 C 0.04544 0.21213 0.46159 0.0
C491 C 0.99434 0.24125 0.48181 0.0
C492 C 0.97432 0.28082 0.50448 0.0
C493 C 1.02472 0.25147 0.47338 0.0
C494 C 0.98437 0.33079 0.50902 0.0
C495 C 1.01432 0.3413 0.49939 0.0
H496 H 0.9898 0.67954 0.48354 0.0
H497 H 0.96819 0.83747 0.50675 0.0
H498 H 1.01988 0.85935 0.53559 0.0
H499 H 0.07205 0.83289 0.52112 0.0
H500 H 0.09369 0.67503 0.49717 0.0
H501 H 0.0414 0.65349 0.50458 0.0
C502 C 0.99627 0.71864 0.49903 0.0
C503 C 0.97526 0.75691 0.49389 0.0
C504 C 1.02618 0.73084 0.51451 0.0
C505 C 0.9839 0.80746 0.51197 0.0
C506 C 1.01355 0.81993 0.52742 0.0
C507 C 0.06535 0.79397 0.52253 0.0
C508 C 0.08674 0.75563 0.50985 0.0
C509 C 0.03509 0.78195 0.52457 0.0
C510 C 0.07776 0.70524 0.50899 0.0
C511 C 0.04774 0.6929 0.5116 0.0
H512 H 0.57382 0.68781 0.99922 0.0
H513 H 0.58763 0.84839 0.02881 0.0
H514 H 0.53471 0.86226 0.01337 0.0
H515 H 0.48401 0.82871 0.01771 0.0
H516 H 0.46987 0.66806 0.98615 0.0
H517 H 0.52318 0.65393 0.97462 0.0
C518 C 0.56532 0.72568 0.99809 0.0
C519 C 0.58463 0.76706 0.01348 0.0
C520 C 0.53468 0.73327 0.99071 0.0
C521 C 0.5733 0.81601 0.01485 0.0
C522 C 0.54295 0.82392 0.00734 0.0
C523 C 0.49261 0.79065 0.00565 0.0
C524 C 0.47306 0.74949 0.00337 0.0
C525 C 0.52332 0.7829 0.99911 0.0
C526 C 0.48442 0.70036 0.98776 0.0
C527 C 0.51496 0.69229 0.98185 0.0
H528 H 0.49183 0.15869 0.98191 0.0
H529 H 0.47349 0.31786 1.00116 0.0
H530 H 0.52605 0.33665 0.02157 0.0
H531 H 0.5777 0.30658 0.0056 0.0
H532 H 0.5957 0.14747 0.98769 0.0
H533 H 0.54296 0.12963 0.99757 0.0
C534 C 0.49932 0.19749 0.99341 0.0
C535 C 0.47896 0.23685 0.98936 0.0
C536 C 0.52957 0.20789 0.00503 0.0
C537 C 0.48876 0.28698 0.00436 0.0
C538 C 0.51886 0.29768 0.01534 0.0
C539 C 0.57009 0.26828 0.00838 0.0
C540 C 0.59051 0.22838 0.99739 0.0
C541 C 0.53959 0.25837 0.01217 0.0
C542 C 0.58042 0.17876 0.99822 0.0
C543 C 0.55021 0.16856 0.00241 0.0
loop_
_geom_bond_atom_site_label_1
_geom_bond_atom_site_label_2
_geom_bond_distance
_geom_bond_site_symmetry_2
_ccdc_geom_bond_type
Tb0 O3 2.453 . S
Tb0 O4 2.596 . S
Tb0 O5 2.374 . S
Tb0 O13 2.343 . S
Tb0 O15 2.353 . S
Tb0 O17 2.427 . S
Tb0 O18 2.513 . S
C1 O5 1.251 . S
C1 O7 1.263 . S
Tb2 O4 2.343 . S
Tb2 O7 2.353 . S
Tb2 O10 2.427 . S
Tb2 O11 2.513 . S
Tb2 O12 2.453 . S
Tb2 O13 2.596 . S
Tb2 O14 2.374 . S
O3 Tb0 2.453 . S
O3 C19 1.245 . S
O4 Tb0 2.596 . S
O4 Tb2 2.343 . S
O4 C19 1.259 . S
O5 Tb0 2.374 . S
O5 C1 1.251 . S
C6 O10 1.275 . S
C6 O11 1.246 . S
O7 C1 1.263 . S
O7 Tb2 2.353 . S
C8 O12 1.245 . S
C8 O13 1.259 . S
C9 O14 1.250 . S
C9 O15 1.263 . S
O10 Tb2 2.427 . S
O10 C6 1.275 . S
O11 Tb2 2.513 . S
O11 C6 1.246 . S
O12 Tb2 2.453 . S
O12 C8 1.245 . S
O13 Tb0 2.343 . S
O13 Tb2 2.596 . S
O13 C8 1.259 . S
O14 Tb2 2.374 . S
O14 C9 1.250 . S
O15 Tb0 2.353 . S
O15 C9 1.263 . S
C16 O17 1.275 . S
C16 O18 1.246 . S
O17 Tb0 2.427 . S
O17 C16 1.275 . S
O18 Tb0 2.513 . S
O18 C16 1.246 . S
C19 O3 1.245 . S
C19 O4 1.259 . S
Tb20 O23 2.453 . S
Tb20 O24 2.596 . S
Tb20 O25 2.374 . S
Tb20 O33 2.343 . S
Tb20 O35 2.353 . S
Tb20 O37 2.427 . S
Tb20 O38 2.513 . S
C21 O25 1.251 . S
C21 O27 1.263 . S
Tb22 O24 2.343 . S
Tb22 O27 2.353 . S
Tb22 O30 2.427 . S
Tb22 O31 2.513 . S
Tb22 O32 2.453 . S
Tb22 O33 2.596 . S
Tb22 O34 2.374 . S
O23 Tb20 2.453 . S
O23 C39 1.245 . S
O24 Tb20 2.596 . S
O24 Tb22 2.343 . S
O24 C39 1.259 . S
O25 Tb20 2.374 . S
O25 C21 1.251 . S
C26 O30 1.275 . S
C26 O31 1.246 . S
O27 C21 1.263 . S
O27 Tb22 2.353 . S
C28 O32 1.245 . S
C28 O33 1.259 . S
C29 O34 1.250 . S
C29 O35 1.263 . S
O30 Tb22 2.427 . S
O30 C26 1.275 . S
O31 Tb22 2.513 . S
O31 C26 1.246 . S
O32 Tb22 2.453 . S
O32 C28 1.245 . S
O33 Tb20 2.343 . S
O33 Tb22 2.596 . S
O33 C28 1.259 . S
O34 Tb22 2.374 . S
O34 C29 1.250 . S
O35 Tb20 2.353 . S
O35 C29 1.263 . S
C36 O37 1.275 . S
C36 O38 1.246 . S
O37 Tb20 2.427 . S
O37 C36 1.275 . S
O38 Tb20 2.513 . S
O38 C36 1.246 . S
C39 O23 1.245 . S
C39 O24 1.259 . S
Tb40 O43 2.453 . S
Tb40 O44 2.596 . S
Tb40 O45 2.374 . S
Tb40 O53 2.343 . S
Tb40 O55 2.353 . S
Tb40 O57 2.427 . S
Tb40 O58 2.513 . S
C41 O45 1.251 . S
C41 O47 1.263 . S
Tb42 O44 2.343 . S
Tb42 O47 2.353 . S
Tb42 O50 2.427 . S
Tb42 O51 2.513 . S
Tb42 O52 2.453 . S
Tb42 O53 2.596 . S
Tb42 O54 2.374 . S
O43 Tb40 2.453 . S
O43 C59 1.245 . S
O44 Tb40 2.596 . S
O44 Tb42 2.343 . S
O44 C59 1.259 . S
O45 Tb40 2.374 . S
O45 C41 1.251 . S
C46 O50 1.275 . S
C46 O51 1.246 . S
O47 C41 1.263 . S
O47 Tb42 2.353 . S
C48 O52 1.245 . S
C48 O53 1.259 . S
C49 O54 1.250 . S
C49 O55 1.263 . S
O50 Tb42 2.427 . S
O50 C46 1.275 . S
O51 Tb42 2.513 . S
O51 C46 1.246 . S
O52 Tb42 2.453 . S
O52 C48 1.245 . S
O53 Tb40 2.343 . S
O53 Tb42 2.596 . S
O53 C48 1.259 . S
O54 Tb42 2.374 . S
O54 C49 1.250 . S
O55 Tb40 2.353 . S
O55 C49 1.263 . S
C56 O57 1.275 . S
C56 O58 1.246 . S
O57 Tb40 2.427 . S
O57 C56 1.275 . S
O58 Tb40 2.513 . S
O58 C56 1.246 . S
C59 O43 1.245 . S
C59 O44 1.259 . S
Tb60 O63 2.453 . S
Tb60 O64 2.596 . S
Tb60 O65 2.374 . S
Tb60 O73 2.343 . S
Tb60 O75 2.353 . S
Tb60 O77 2.427 . S
Tb60 O78 2.513 . S
C61 O65 1.251 . S
C61 O67 1.263 . S
Tb62 O64 2.343 . S
Tb62 O67 2.353 . S
Tb62 O70 2.427 . S
Tb62 O71 2.513 . S
Tb62 O72 2.453 . S
Tb62 O73 2.596 . S
Tb62 O74 2.374 . S
O63 Tb60 2.453 . S
O63 C79 1.245 . S
O64 Tb60 2.596 . S
O64 Tb62 2.343 . S
O64 C79 1.259 . S
O65 Tb60 2.374 . S
O65 C61 1.251 . S
C66 O70 1.275 . S
C66 O71 1.246 . S
O67 C61 1.263 . S
O67 Tb62 2.353 . S
C68 O72 1.245 . S
C68 O73 1.259 . S
C69 O74 1.250 . S
C69 O75 1.263 . S
O70 Tb62 2.427 . S
O70 C66 1.275 . S
O71 Tb62 2.513 . S
O71 C66 1.246 . S
O72 Tb62 2.453 . S
O72 C68 1.245 . S
O73 Tb60 2.343 . S
O73 Tb62 2.596 . S
O73 C68 1.259 . S
O74 Tb62 2.374 . S
O74 C69 1.250 . S
O75 Tb60 2.353 . S
O75 C69 1.263 . S
C76 O77 1.275 . S
C76 O78 1.246 . S
O77 Tb60 2.427 . S
O77 C76 1.275 . S
O78 Tb60 2.513 . S
O78 C76 1.246 . S
C79 O63 1.245 . S
C79 O64 1.259 . S
Tb80 O83 2.453 . S
Tb80 O84 2.596 1_556 S
Tb80 O85 2.374 . S
Tb80 O93 2.343 . S
Tb80 O95 2.353 . S
Tb80 O97 2.427 . S
Tb80 O98 2.513 . S
C81 O85 1.251 1_554 S
C81 O87 1.263 . S
Tb82 O84 2.343 . S
Tb82 O87 2.353 . S
Tb82 O90 2.427 . S
Tb82 O91 2.513 . S
Tb82 O92 2.453 . S
Tb82 O93 2.596 1_554 S
Tb82 O94 2.374 . S
O83 Tb80 2.453 . S
O83 C99 1.245 1_556 S
O84 Tb80 2.596 1_554 S
O84 Tb82 2.343 . S
O84 C99 1.259 . S
O85 Tb80 2.374 . S
O85 C81 1.251 1_556 S
C86 O90 1.275 . S
C86 O91 1.246 . S
O87 C81 1.263 . S
O87 Tb82 2.353 . S
C88 O92 1.245 1_556 S
C88 O93 1.259 . S
C89 O94 1.250 . S
C89 O95 1.263 1_554 S
O90 Tb82 2.427 . S
O90 C86 1.275 . S
O91 Tb82 2.513 . S
O91 C86 1.246 . S
O92 Tb82 2.453 . S
O92 C88 1.245 1_554 S
O93 Tb80 2.343 . S
O93 Tb82 2.596 1_556 S
O93 C88 1.259 . S
O94 Tb82 2.374 . S
O94 C89 1.250 . S
O95 Tb80 2.353 . S
O95 C89 1.263 1_556 S
C96 O97 1.275 . S
C96 O98 1.246 . S
O97 Tb80 2.427 . S
O97 C96 1.275 . S
O98 Tb80 2.513 . S
O98 C96 1.246 . S
C99 O83 1.245 1_554 S
C99 O84 1.259 . S
Tb100 O103 2.453 . S
Tb100 O104 2.596 1_554 S
Tb100 O105 2.374 . S
Tb100 O113 2.343 . S
Tb100 O115 2.353 . S
Tb100 O117 2.427 . S
Tb100 O118 2.513 . S
C101 O105 1.251 . S
C101 O107 1.263 1_554 S
Tb102 O104 2.343 . S
Tb102 O107 2.353 . S
Tb102 O110 2.427 . S
Tb102 O111 2.513 . S
Tb102 O112 2.453 . S
Tb102 O113 2.596 1_556 S
Tb102 O114 2.374 . S
O103 Tb100 2.453 . S
O103 C119 1.245 1_554 S
O104 Tb100 2.596 1_556 S
O104 Tb102 2.343 . S
O104 C119 1.259 . S
O105 Tb100 2.374 . S
O105 C101 1.251 . S
C106 O110 1.275 . S
C106 O111 1.246 . S
O107 C101 1.263 1_556 S
O107 Tb102 2.353 . S
C108 O112 1.245 1_554 S
C108 O113 1.259 . S
C109 O114 1.250 1_554 S
C109 O115 1.263 . S
O110 Tb102 2.427 . S
O110 C106 1.275 . S
O111 Tb102 2.513 . S
O111 C106 1.246 . S
O112 Tb102 2.453 . S
O112 C108 1.245 1_556 S
O113 Tb100 2.343 . S
O113 Tb102 2.596 1_554 S
O113 C108 1.259 . S
O114 Tb102 2.374 . S
O114 C109 1.250 1_556 S
O115 Tb100 2.353 . S
O115 C109 1.263 . S
C116 O117 1.275 . S
C116 O118 1.246 . S
O117 Tb100 2.427 . S
O117 C116 1.275 . S
O118 Tb100 2.513 . S
O118 C116 1.246 . S
C119 O103 1.245 1_556 S
C119 O104 1.259 . S
Tb120 O123 2.453 . S
Tb120 O124 2.596 1_554 S
Tb120 O125 2.374 . S
Tb120 O133 2.343 . S
Tb120 O135 2.353 . S
Tb120 O137 2.427 . S
Tb120 O138 2.513 . S
C121 O125 1.251 1_556 S
C121 O127 1.263 . S
Tb122 O124 2.343 . S
Tb122 O127 2.353 . S
Tb122 O130 2.427 . S
Tb122 O131 2.513 . S
Tb122 O132 2.453 . S
Tb122 O133 2.596 1_556 S
Tb122 O134 2.374 . S
O123 Tb120 2.453 . S
O123 C139 1.245 1_554 S
O124 Tb120 2.596 1_556 S
O124 Tb122 2.343 . S
O124 C139 1.259 . S
O125 Tb120 2.374 . S
O125 C121 1.251 1_554 S
C126 O130 1.275 . S
C126 O131 1.246 . S
O127 C121 1.263 . S
O127 Tb122 2.353 . S
C128 O132 1.245 1_554 S
C128 O133 1.259 . S
C129 O134 1.250 . S
C129 O135 1.263 1_556 S
O130 Tb122 2.427 . S
O130 C126 1.275 . S
O131 Tb122 2.513 . S
O131 C126 1.246 . S
O132 Tb122 2.453 . S
O132 C128 1.245 1_556 S
O133 Tb120 2.343 . S
O133 Tb122 2.596 1_554 S
O133 C128 1.259 . S
O134 Tb122 2.374 . S
O134 C129 1.250 . S
O135 Tb120 2.353 . S
O135 C129 1.263 1_554 S
C136 O137 1.275 . S
C136 O138 1.246 . S
O137 Tb120 2.427 . S
O137 C136 1.275 . S
O138 Tb120 2.513 . S
O138 C136 1.246 . S
C139 O123 1.245 1_556 S
C139 O124 1.259 . S
Tb140 O143 2.453 . S
Tb140 O144 2.596 1_556 S
Tb140 O145 2.374 . S
Tb140 O153 2.343 . S
Tb140 O155 2.353 . S
Tb140 O157 2.427 . S
Tb140 O158 2.513 . S
C141 O145 1.251 . S
C141 O147 1.263 1_556 S
Tb142 O144 2.343 . S
Tb142 O147 2.353 . S
Tb142 O150 2.427 . S
Tb142 O151 2.513 . S
Tb142 O152 2.453 . S
Tb142 O153 2.596 1_554 S
Tb142 O154 2.374 . S
O143 Tb140 2.453 . S
O143 C159 1.245 1_556 S
O144 Tb140 2.596 1_554 S
O144 Tb142 2.343 . S
O144 C159 1.259 . S
O145 Tb140 2.374 . S
O145 C141 1.251 . S
C146 O150 1.275 . S
C146 O151 1.246 . S
O147 C141 1.263 1_554 S
O147 Tb142 2.353 . S
C148 O152 1.245 1_556 S
C148 O153 1.259 . S
C149 O154 1.250 1_556 S
C149 O155 1.263 . S
O150 Tb142 2.427 . S
O150 C146 1.275 . S
O151 Tb142 2.513 . S
O151 C146 1.246 . S
O152 Tb142 2.453 . S
O152 C148 1.245 1_554 S
O153 Tb140 2.343 . S
O153 Tb142 2.596 1_556 S
O153 C148 1.259 . S
O154 Tb142 2.374 . S
O154 C149 1.250 1_554 S
O155 Tb140 2.353 . S
O155 C149 1.263 . S
C156 O157 1.275 . S
C156 O158 1.246 . S
O157 Tb140 2.427 . S
O157 C156 1.275 . S
O158 Tb140 2.513 . S
O158 C156 1.246 . S
C159 O143 1.245 1_554 S
C159 O144 1.259 . S
H160 C166 0.930 . S
H161 C169 0.930 . S
H162 C170 0.930 . S
H163 C171 0.930 . S
H164 C174 0.930 . S
H165 C175 0.930 . S
C166 H160 0.930 . S
C166 C167 1.355 . S
C166 C168 1.415 . S
C167 C166 1.355 . S
C167 C169 1.419 . S
C168 C166 1.415 . S
C168 C173 1.425 . S
C168 C175 1.409 . S
C169 H161 0.930 . S
C169 C167 1.419 . S
C169 C170 1.362 . S
C170 H162 0.930 . S
C170 C169 1.362 . S
C170 C173 1.409 . S
C171 H163 0.930 . S
C171 C172 1.355 . S
C171 C173 1.415 . S
C172 C171 1.355 . S
C172 C174 1.419 . S
C173 C168 1.425 . S
C173 C170 1.409 . S
C173 C171 1.415 . S
C174 H164 0.930 . S
C174 C172 1.419 . S
C174 C175 1.362 . S
C175 H165 0.930 . S
C175 C168 1.409 . S
C175 C174 1.362 . S
H176 C182 0.930 . S
H177 C185 0.930 . S
H178 C186 0.930 . S
H179 C187 0.930 . S
H180 C190 0.930 . S
H181 C191 0.930 . S
C182 H176 0.930 . S
C182 C183 1.355 . S
C182 C184 1.415 . S
C183 C182 1.355 . S
C183 C185 1.419 . S
C184 C182 1.415 . S
C184 C189 1.425 . S
C184 C191 1.409 . S
C185 H177 0.930 . S
C185 C183 1.419 . S
C185 C186 1.362 . S
C186 H178 0.930 . S
C186 C185 1.362 . S
C186 C189 1.409 . S
C187 H179 0.930 . S
C187 C188 1.355 . S
C187 C189 1.415 . S
C188 C187 1.355 . S
C188 C190 1.419 . S
C189 C184 1.425 . S
C189 C186 1.409 . S
C189 C187 1.415 . S
C190 H180 0.930 . S
C190 C188 1.419 . S
C190 C191 1.362 . S
C191 H181 0.930 . S
C191 C184 1.409 . S
C191 C190 1.362 . S
H192 C198 0.930 . S
H193 C201 0.930 . S
H194 C202 0.930 . S
H195 C203 0.930 . S
H196 C206 0.930 . S
H197 C207 0.930 . S
C198 H192 0.930 . S
C198 C199 1.355 . S
C198 C200 1.415 . S
C199 C198 1.355 . S
C199 C201 1.419 . S
C200 C198 1.415 . S
C200 C205 1.425 . S
C200 C207 1.409 . S
C201 H193 0.930 . S
C201 C199 1.419 . S
C201 C202 1.362 . S
C202 H194 0.930 . S
C202 C201 1.362 . S
C202 C205 1.409 . S
C203 H195 0.930 . S
C203 C204 1.355 . S
C203 C205 1.415 . S
C204 C203 1.355 . S
C204 C206 1.419 . S
C205 C200 1.425 . S
C205 C202 1.409 . S
C205 C203 1.415 . S
C206 H196 0.930 . S
C206 C204 1.419 . S
C206 C207 1.362 . S
C207 H197 0.930 . S
C207 C200 1.409 . S
C207 C206 1.362 . S
H208 C214 0.930 . S
H209 C217 0.930 . S
H210 C218 0.930 . S
H211 C219 0.930 . S
H212 C222 0.930 . S
H213 C223 0.930 . S
C214 H208 0.930 . S
C214 C215 1.355 . S
C214 C216 1.415 . S
C215 C214 1.355 . S
C215 C217 1.419 . S
C216 C214 1.415 . S
C216 C221 1.425 . S
C216 C223 1.409 . S
C217 H209 0.930 . S
C217 C215 1.419 . S
C217 C218 1.362 . S
C218 H210 0.930 . S
C218 C217 1.362 . S
C218 C221 1.409 . S
C219 H211 0.930 . S
C219 C220 1.355 . S
C219 C221 1.415 . S
C220 C219 1.355 . S
C220 C222 1.419 . S
C221 C216 1.425 . S
C221 C218 1.409 . S
C221 C219 1.415 . S
C222 H212 0.930 . S
C222 C220 1.419 . S
C222 C223 1.362 . S
C223 H213 0.930 . S
C223 C216 1.409 . S
C223 C222 1.362 . S
H224 C230 0.930 . S
H225 C233 0.930 . S
H226 C234 0.930 . S
H227 C235 0.930 . S
H228 C238 0.930 . S
H229 C239 0.930 . S
C230 H224 0.930 . S
C230 C231 1.355 . S
C230 C232 1.415 . S
C231 C230 1.355 . S
C231 C233 1.419 . S
C232 C230 1.415 . S
C232 C237 1.425 1_565 S
C232 C239 1.409 1_565 S
C233 H225 0.930 . S
C233 C231 1.419 . S
C233 C234 1.362 . S
C234 H226 0.930 . S
C234 C233 1.362 . S
C234 C237 1.409 1_565 S
C235 H227 0.930 . S
C235 C236 1.355 . S
C235 C237 1.415 . S
C236 C235 1.355 . S
C236 C238 1.419 . S
C237 C232 1.425 1_545 S
C237 C234 1.409 1_545 S
C237 C235 1.415 . S
C238 H228 0.930 . S
C238 C236 1.419 . S
C238 C239 1.362 . S
C239 H229 0.930 . S
C239 C232 1.409 1_545 S
C239 C238 1.362 . S
H240 C246 0.930 . S
H241 C249 0.930 . S
H242 C250 0.930 . S
H243 C251 0.930 . S
H244 C254 0.930 . S
H245 C255 0.930 . S
C246 H240 0.930 . S
C246 C247 1.355 . S
C246 C248 1.415 . S
C247 C246 1.355 . S
C247 C249 1.419 . S
C248 C246 1.415 . S
C248 C253 1.425 . S
C248 C255 1.409 . S
C249 H241 0.930 . S
C249 C247 1.419 . S
C249 C250 1.362 . S
C250 H242 0.930 . S
C250 C249 1.362 . S
C250 C253 1.409 . S
C251 H243 0.930 . S
C251 C252 1.355 . S
C251 C253 1.415 . S
C252 C251 1.355 . S
C252 C254 1.419 . S
C253 C248 1.425 . S
C253 C250 1.409 . S
C253 C251 1.415 . S
C254 H244 0.930 . S
C254 C252 1.419 . S
C254 C255 1.362 . S
C255 H245 0.930 . S
C255 C248 1.409 . S
C255 C254 1.362 . S
H256 C262 0.930 . S
H257 C265 0.930 . S
H258 C266 0.930 . S
H259 C267 0.930 . S
H260 C270 0.930 . S
H261 C271 0.930 . S
C262 H256 0.930 . S
C262 C263 1.355 . S
C262 C264 1.415 . S
C263 C262 1.355 . S
C263 C265 1.419 . S
C264 C262 1.415 . S
C264 C269 1.425 1_565 S
C264 C271 1.409 1_565 S
C265 H257 0.930 . S
C265 C263 1.419 . S
C265 C266 1.362 . S
C266 H258 0.930 . S
C266 C265 1.362 . S
C266 C269 1.409 1_565 S
C267 H259 0.930 . S
C267 C268 1.355 . S
C267 C269 1.415 . S
C268 C267 1.355 . S
C268 C270 1.419 . S
C269 C264 1.425 1_545 S
C269 C266 1.409 1_545 S
C269 C267 1.415 . S
C270 H260 0.930 . S
C270 C268 1.419 . S
C270 C271 1.362 . S
C271 H261 0.930 . S
C271 C264 1.409 1_545 S
C271 C270 1.362 . S
H272 C278 0.930 . S
H273 C281 0.930 . S
H274 C282 0.930 . S
H275 C283 0.930 . S
H276 C286 0.930 . S
H277 C287 0.930 . S
C278 H272 0.930 . S
C278 C279 1.355 . S
C278 C280 1.415 . S
C279 C278 1.355 . S
C279 C281 1.419 . S
C280 C278 1.415 . S
C280 C285 1.425 . S
C280 C287 1.409 . S
C281 H273 0.930 . S
C281 C279 1.419 . S
C281 C282 1.362 . S
C282 H274 0.930 . S
C282 C281 1.362 . S
C282 C285 1.409 . S
C283 H275 0.930 . S
C283 C284 1.355 . S
C283 C285 1.415 . S
C284 C283 1.355 . S
C284 C286 1.419 . S
C285 C280 1.425 . S
C285 C282 1.409 . S
C285 C283 1.415 . S
C286 H276 0.930 . S
C286 C284 1.419 . S
C286 C287 1.362 . S
C287 H277 0.930 . S
C287 C280 1.409 . S
C287 C286 1.362 . S
H288 C294 0.930 . S
H289 C297 0.930 . S
H290 C298 0.930 . S
H291 C299 0.930 . S
H292 C302 0.930 . S
H293 C303 0.930 . S
C294 H288 0.930 . S
C294 C295 1.355 . S
C294 C296 1.415 . S
C295 C294 1.355 . S
C295 C297 1.419 1_554 S
C296 C294 1.415 . S
C296 C301 1.425 1_554 S
C296 C303 1.409 . S
C297 H289 0.930 . S
C297 C295 1.419 1_556 S
C297 C298 1.362 . S
C298 H290 0.930 . S
C298 C297 1.362 . S
C298 C301 1.409 . S
C299 H291 0.930 . S
C299 C300 1.355 . S
C299 C301 1.415 . S
C300 C299 1.355 . S
C300 C302 1.419 1_556 S
C301 C296 1.425 1_556 S
C301 C298 1.409 . S
C301 C299 1.415 . S
C302 H292 0.930 . S
C302 C300 1.419 1_554 S
C302 C303 1.362 . S
C303 H293 0.930 . S
C303 C296 1.409 . S
C303 C302 1.362 . S
H304 C310 0.930 . S
H305 C313 0.930 . S
H306 C314 0.930 . S
H307 C315 0.930 . S
H308 C318 0.930 . S
H309 C319 0.930 . S
C310 H304 0.930 . S
C310 C311 1.355 . S
C310 C312 1.415 . S
C311 C310 1.355 . S
C311 C313 1.419 1_554 S
C312 C310 1.415 . S
C312 C317 1.425 1_564 S
C312 C319 1.409 1_565 S
C313 H305 0.930 . S
C313 C311 1.419 1_556 S
C313 C314 1.362 . S
C314 H306 0.930 . S
C314 C313 1.362 . S
C314 C317 1.409 1_565 S
C315 H307 0.930 . S
C315 C316 1.355 . S
C315 C317 1.415 . S
C316 C315 1.355 . S
C316 C318 1.419 1_556 S
C317 C312 1.425 1_546 S
C317 C314 1.409 1_545 S
C317 C315 1.415 . S
C318 H308 0.930 . S
C318 C316 1.419 1_554 S
C318 C319 1.362 . S
C319 H309 0.930 . S
C319 C312 1.409 1_545 S
C319 C318 1.362 . S
H320 C326 0.930 . S
H321 C329 0.930 . S
H322 C330 0.930 . S
H323 C331 0.930 . S
H324 C334 0.930 . S
H325 C335 0.930 . S
C326 H320 0.930 . S
C326 C327 1.355 . S
C326 C328 1.415 . S
C327 C326 1.355 . S
C327 C329 1.419 1_556 S
C328 C326 1.415 . S
C328 C333 1.425 1_556 S
C328 C335 1.409 . S
C329 H321 0.930 . S
C329 C327 1.419 1_554 S
C329 C330 1.362 . S
C330 H322 0.930 . S
C330 C329 1.362 . S
C330 C333 1.409 . S
C331 H323 0.930 . S
C331 C332 1.355 . S
C331 C333 1.415 . S
C332 C331 1.355 . S
C332 C334 1.419 1_554 S
C333 C328 1.425 1_554 S
C333 C330 1.409 . S
C333 C331 1.415 . S
C334 H324 0.930 . S
C334 C332 1.419 1_556 S
C334 C335 1.362 . S
C335 H325 0.930 . S
C335 C328 1.409 . S
C335 C334 1.362 . S
H336 C342 0.930 . S
H337 C345 0.930 . S
H338 C346 0.930 . S
H339 C347 0.930 . S
H340 C350 0.930 . S
H341 C351 0.930 . S
C342 H336 0.930 . S
C342 C343 1.355 . S
C342 C344 1.415 . S
C343 C342 1.355 . S
C343 C345 1.419 1_556 S
C344 C342 1.415 . S
C344 C349 1.425 1_546 S
C344 C351 1.409 1_545 S
C345 H337 0.930 . S
C345 C343 1.419 1_554 S
C345 C346 1.362 . S
C346 H338 0.930 . S
C346 C345 1.362 . S
C346 C349 1.409 1_545 S
C347 H339 0.930 . S
C347 C348 1.355 . S
C347 C349 1.415 . S
C348 C347 1.355 . S
C348 C350 1.419 1_554 S
C349 C344 1.425 1_564 S
C349 C346 1.409 1_565 S
C349 C347 1.415 . S
C350 H340 0.930 . S
C350 C348 1.419 1_556 S
C350 C351 1.362 . S
C351 H341 0.930 . S
C351 C344 1.409 1_565 S
C351 C350 1.362 . S
H352 C358 0.930 . S
H353 C361 0.930 . S
H354 C362 0.930 . S
H355 C363 0.930 . S
H356 C366 0.930 . S
H357 C367 0.930 . S
C358 H352 0.930 . S
C358 C359 1.355 . S
C358 C360 1.415 . S
C359 C358 1.355 . S
C359 C361 1.419 . S
C360 C358 1.415 . S
C360 C365 1.425 . S
C360 C367 1.409 1_554 S
C361 H353 0.930 . S
C361 C359 1.419 . S
C361 C362 1.362 . S
C362 H354 0.930 . S
C362 C361 1.362 . S
C362 C365 1.409 . S
C363 H355 0.930 . S
C363 C364 1.355 . S
C363 C365 1.415 1_556 S
C364 C363 1.355 . S
C364 C366 1.419 . S
C365 C360 1.425 . S
C365 C362 1.409 . S
C365 C363 1.415 1_554 S
C366 H356 0.930 . S
C366 C364 1.419 . S
C366 C367 1.362 . S
C367 H357 0.930 . S
C367 C360 1.409 1_556 S
C367 C366 1.362 . S
H368 C374 0.930 . S
H369 C377 0.930 . S
H370 C378 0.930 . S
H371 C379 0.930 . S
H372 C382 0.930 . S
H373 C383 0.930 1_554 S
C374 H368 0.930 . S
C374 C375 1.355 . S
C374 C376 1.415 . S
C375 C374 1.355 . S
C375 C377 1.419 . S
C376 C374 1.415 . S
C376 C381 1.425 1_554 S
C376 C383 1.409 1_554 S
C377 H369 0.930 . S
C377 C375 1.419 . S
C377 C378 1.362 . S
C378 H370 0.930 . S
C378 C377 1.362 . S
C378 C381 1.409 1_554 S
C379 H371 0.930 . S
C379 C380 1.355 . S
C379 C381 1.415 . S
C380 C379 1.355 . S
C380 C382 1.419 . S
C381 C376 1.425 1_556 S
C381 C378 1.409 1_556 S
C381 C379 1.415 . S
C382 H372 0.930 . S
C382 C380 1.419 . S
C382 C383 1.362 . S
C383 H373 0.930 1_556 S
C383 C376 1.409 1_556 S
C383 C382 1.362 . S
H384 C390 0.930 . S
H385 C393 0.930 . S
H386 C394 0.930 . S
H387 C395 0.930 . S
H388 C398 0.930 . S
H389 C399 0.930 . S
C390 H384 0.930 . S
C390 C391 1.355 . S
C390 C392 1.415 1_554 S
C391 C390 1.355 . S
C391 C393 1.419 . S
C392 C390 1.415 1_556 S
C392 C397 1.425 . S
C392 C399 1.409 . S
C393 H385 0.930 . S
C393 C391 1.419 . S
C393 C394 1.362 . S
C394 H386 0.930 . S
C394 C393 1.362 . S
C394 C397 1.409 1_554 S
C395 H387 0.930 . S
C395 C396 1.355 . S
C395 C397 1.415 . S
C396 C395 1.355 . S
C396 C398 1.419 . S
C397 C392 1.425 . S
C397 C394 1.409 1_556 S
C397 C395 1.415 . S
C398 H388 0.930 . S
C398 C396 1.419 . S
C398 C399 1.362 . S
C399 H389 0.930 . S
C399 C392 1.409 . S
C399 C398 1.362 . S
H400 C406 0.930 . S
H401 C409 0.930 . S
H402 C410 0.930 . S
H403 C411 0.930 . S
H404 C414 0.930 . S
H405 C415 0.930 . S
C406 H400 0.930 . S
C406 C407 1.355 . S
C406 C408 1.415 . S
C407 C406 1.355 . S
C407 C409 1.419 . S
C408 C406 1.415 . S
C408 C413 1.425 1_556 S
C408 C415 1.409 1_556 S
C409 H401 0.930 . S
C409 C407 1.419 . S
C409 C410 1.362 . S
C410 H402 0.930 . S
C410 C409 1.362 . S
C410 C413 1.409 1_556 S
C411 H403 0.930 . S
C411 C412 1.355 . S
C411 C413 1.415 . S
C412 C411 1.355 . S
C412 C414 1.419 . S
C413 C408 1.425 1_554 S
C413 C410 1.409 1_554 S
C413 C411 1.415 . S
C414 H404 0.930 . S
C414 C412 1.419 . S
C414 C415 1.362 . S
C415 H405 0.930 . S
C415 C408 1.409 1_554 S
C415 C414 1.362 . S
H416 C422 0.930 . S
H417 C425 0.930 . S
H418 C426 0.930 . S
H419 C427 0.930 . S
H420 C430 0.930 . S
H421 C431 0.930 . S
C422 H416 0.930 . S
C422 C423 1.355 . S
C422 C424 1.415 . S
C423 C422 1.355 . S
C423 C425 1.419 . S
C424 C422 1.415 . S
C424 C429 1.425 . S
C424 C431 1.409 . S
C425 H417 0.930 . S
C425 C423 1.419 . S
C425 C426 1.362 . S
C426 H418 0.930 . S
C426 C425 1.362 . S
C426 C429 1.409 . S
C427 H419 0.930 . S
C427 C428 1.355 . S
C427 C429 1.415 . S
C428 C427 1.355 . S
C428 C430 1.419 . S
C429 C424 1.425 . S
C429 C426 1.409 . S
C429 C427 1.415 . S
C430 H420 0.930 . S
C430 C428 1.419 . S
C430 C431 1.362 . S
C431 H421 0.930 . S
C431 C424 1.409 . S
C431 C430 1.362 . S
H432 C438 0.930 . S
H433 C441 0.930 . S
H434 C442 0.930 . S
H435 C443 0.930 . S
H436 C446 0.930 . S
H437 C447 0.930 . S
C438 H432 0.930 . S
C438 C439 1.355 . S
C438 C440 1.415 . S
C439 C438 1.355 . S
C439 C441 1.419 . S
C440 C438 1.415 . S
C440 C445 1.425 . S
C440 C447 1.409 . S
C441 H433 0.930 . S
C441 C439 1.419 . S
C441 C442 1.362 . S
C442 H434 0.930 . S
C442 C441 1.362 . S
C442 C445 1.409 . S
C443 H435 0.930 . S
C443 C444 1.355 . S
C443 C445 1.415 . S
C444 C443 1.355 . S
C444 C446 1.419 . S
C445 C440 1.425 . S
C445 C442 1.409 . S
C445 C443 1.415 . S
C446 H436 0.930 . S
C446 C444 1.419 . S
C446 C447 1.362 . S
C447 H437 0.930 . S
C447 C440 1.409 . S
C447 C446 1.362 . S
H448 C454 0.930 . S
H449 C457 0.930 . S
H450 C458 0.930 . S
H451 C459 0.930 . S
H452 C462 0.930 . S
H453 C463 0.930 . S
C454 H448 0.930 . S
C454 C455 1.355 . S
C454 C456 1.415 . S
C455 C454 1.355 . S
C455 C457 1.419 . S
C456 C454 1.415 . S
C456 C461 1.425 . S
C456 C463 1.409 . S
C457 H449 0.930 . S
C457 C455 1.419 . S
C457 C458 1.362 . S
C458 H450 0.930 . S
C458 C457 1.362 . S
C458 C461 1.409 . S
C459 H451 0.930 . S
C459 C460 1.355 . S
C459 C461 1.415 . S
C460 C459 1.355 . S
C460 C462 1.419 . S
C461 C456 1.425 . S
C461 C458 1.409 . S
C461 C459 1.415 . S
C462 H452 0.930 . S
C462 C460 1.419 . S
C462 C463 1.362 . S
C463 H453 0.930 . S
C463 C456 1.409 . S
C463 C462 1.362 . S
H464 C470 0.930 . S
H465 C473 0.930 . S
H466 C474 0.930 . S
H467 C475 0.930 . S
H468 C478 0.930 . S
H469 C479 0.930 . S
C470 H464 0.930 . S
C470 C471 1.355 . S
C470 C472 1.415 . S
C471 C470 1.355 . S
C471 C473 1.419 . S
C472 C470 1.415 . S
C472 C477 1.425 . S
C472 C479 1.409 . S
C473 H465 0.930 . S
C473 C471 1.419 . S
C473 C474 1.362 . S
C474 H466 0.930 . S
C474 C473 1.362 . S
C474 C477 1.409 . S
C475 H467 0.930 . S
C475 C476 1.355 . S
C475 C477 1.415 . S
C476 C475 1.355 . S
C476 C478 1.419 . S
C477 C472 1.425 . S
C477 C474 1.409 . S
C477 C475 1.415 . S
C478 H468 0.930 . S
C478 C476 1.419 . S
C478 C479 1.362 . S
C479 H469 0.930 . S
C479 C472 1.409 . S
C479 C478 1.362 . S
H480 C486 0.930 . S
H481 C489 0.930 . S
H482 C490 0.930 . S
H483 C491 0.930 . S
H484 C494 0.930 . S
H485 C495 0.930 . S
C486 H480 0.930 . S
C486 C487 1.355 . S
C486 C488 1.415 . S
C487 C486 1.355 . S
C487 C489 1.419 . S
C488 C486 1.415 . S
C488 C493 1.425 1_455 S
C488 C495 1.409 1_455 S
C489 H481 0.930 . S
C489 C487 1.419 . S
C489 C490 1.362 . S
C490 H482 0.930 . S
C490 C489 1.362 . S
C490 C493 1.409 1_455 S
C491 H483 0.930 . S
C491 C492 1.355 . S
C491 C493 1.415 . S
C492 C491 1.355 . S
C492 C494 1.419 . S
C493 C488 1.425 1_655 S
C493 C490 1.409 1_655 S
C493 C491 1.415 . S
C494 H484 0.930 . S
C494 C492 1.419 . S
C494 C495 1.362 . S
C495 H485 0.930 . S
C495 C488 1.409 1_655 S
C495 C494 1.362 . S
H496 C502 0.930 . S
H497 C505 0.930 . S
H498 C506 0.930 . S
H499 C507 0.930 . S
H500 C510 0.930 . S
H501 C511 0.930 . S
C502 H496 0.930 . S
C502 C503 1.355 . S
C502 C504 1.415 . S
C503 C502 1.355 . S
C503 C505 1.419 . S
C504 C502 1.415 . S
C504 C509 1.425 1_655 S
C504 C511 1.409 1_655 S
C505 H497 0.930 . S
C505 C503 1.419 . S
C505 C506 1.362 . S
C506 H498 0.930 . S
C506 C505 1.362 . S
C506 C509 1.409 1_655 S
C507 H499 0.930 . S
C507 C508 1.355 . S
C507 C509 1.415 . S
C508 C507 1.355 . S
C508 C510 1.419 . S
C509 C504 1.425 1_455 S
C509 C506 1.409 1_455 S
C509 C507 1.415 . S
C510 H500 0.930 . S
C510 C508 1.419 . S
C510 C511 1.362 . S
C511 H501 0.930 . S
C511 C504 1.409 1_455 S
C511 C510 1.362 . S
H512 C518 0.930 1_554 S
H513 C521 0.930 . S
H514 C522 0.930 . S
H515 C523 0.930 . S
H516 C526 0.930 . S
H517 C527 0.930 . S
C518 H512 0.930 1_556 S
C518 C519 1.355 . S
C518 C520 1.415 . S
C519 C518 1.355 . S
C519 C521 1.419 . S
C520 C518 1.415 . S
C520 C525 1.425 . S
C520 C527 1.409 1_556 S
C521 H513 0.930 . S
C521 C519 1.419 . S
C521 C522 1.362 . S
C522 H514 0.930 . S
C522 C521 1.362 . S
C522 C525 1.409 . S
C523 H515 0.930 . S
C523 C524 1.355 . S
C523 C525 1.415 . S
C524 C523 1.355 . S
C524 C526 1.419 1_556 S
C525 C520 1.425 . S
C525 C522 1.409 . S
C525 C523 1.415 . S
C526 H516 0.930 . S
C526 C524 1.419 1_554 S
C526 C527 1.362 . S
C527 H517 0.930 . S
C527 C520 1.409 1_554 S
C527 C526 1.362 . S
H528 C534 0.930 . S
H529 C537 0.930 . S
H530 C538 0.930 . S
H531 C539 0.930 . S
H532 C542 0.930 . S
H533 C543 0.930 . S
C534 H528 0.930 . S
C534 C535 1.355 . S
C534 C536 1.415 . S
C535 C534 1.355 . S
C535 C537 1.419 . S
C536 C534 1.415 . S
C536 C541 1.425 . S
C536 C543 1.409 . S
C537 H529 0.930 . S
C537 C535 1.419 . S
C537 C538 1.362 . S
C538 H530 0.930 . S
C538 C537 1.362 . S
C538 C541 1.409 . S
C539 H531 0.930 . S
C539 C540 1.355 . S
C539 C541 1.415 . S
C540 C539 1.355 . S
C540 C542 1.419 . S
C541 C536 1.425 . S
C541 C538 1.409 . S
C541 C539 1.415 . S
C542 H532 0.930 . S
C542 C540 1.419 . S
C542 C543 1.362 . S
C543 H533 0.930 . S
C543 C536 1.409 . S
C543 C542 1.362 . S
C167 C19 1.790 . S
C172 C148 1.790 . S
C183 C139 1.780 . S
C188 C28 1.780 . S
C199 C108 1.815 . S
C204 C59 1.815 . S
C215 C99 1.778 . S
C220 C68 1.778 . S
C231 C41 1.741 . S
C236 C1 1.706 . S
C247 C21 1.242 . S
C252 C61 1.288 . S
C263 C69 1.738 . S
C268 C29 1.732 . S
C279 C49 1.240 . S
C284 C9 1.288 . S
C295 C81 1.733 . S
C300 C121 1.703 . S
C311 C101 1.244 . S
C316 C141 1.287 . S
C327 C149 1.703 . S
C332 C109 1.733 . S
C343 C129 1.254 . S
C348 C89 1.282 . S
C359 C16 1.446 . S
C364 C6 1.446 . S
C375 C26 1.485 . S
C380 C36 1.485 . S
C391 C46 1.453 . S
C396 C56 1.453 . S
C407 C66 1.527 . S
C412 C76 1.527 . S
C423 C86 1.459 . S
C428 C96 1.459 . S
C439 C106 1.513 . S
C444 C116 1.513 . S
C455 C136 1.516 . S
C460 C126 1.516 . S
C471 C146 1.494 . S
C476 C156 1.494 . S
C487 C8 1.749 . S
C492 C39 1.839 . S
C503 C79 1.824 . S
C508 C48 1.765 . S
C519 C88 1.841 . S
C524 C119 1.747 . S
C535 C159 1.767 . S
C540 C128 1.821 . S
