# Generated by pormake.
# Topology vby, (6)-cn, num edge types: 1
# Building blocks:
#     Node 0, Type 0, BuildingBlock: BETDAH_clean_sbu_0, # of connection points: 6
#     Node 1, Type 0, BuildingBlock: BETDAH_clean_sbu_0, # of connection points: 6
#     Node 2, Type 0, BuildingBlock: BETDAH_clean_sbu_0, # of connection points: 6
#     Node 3, Type 0, BuildingBlock: BETDAH_clean_sbu_0, # of connection points: 6
#     Node 4, Type 0, BuildingBlock: BETDAH_clean_sbu_0, # of connection points: 6
#     Node 5, Type 0, BuildingBlock: BETDAH_clean_sbu_0, # of connection points: 6
#     Node 6, Type 0, BuildingBlock: BETDAH_clean_sbu_0, # of connection points: 6
#     Node 7, Type 0, BuildingBlock: BETDAH_clean_sbu_0, # of connection points: 6
#     Edge 8, Type (0, 0), BuildingBlock: ZUJKAS_clean_linker_0, # of connection points: 2
#     Edge 9, Type (0, 0), BuildingBlock: ZUJKAS_clean_linker_0, # of connection points: 2
#     Edge 10, Type (0, 0), BuildingBlock: ZUJKAS_clean_linker_0, # of connection points: 2
#     Edge 11, Type (0, 0), BuildingBlock: ZUJKAS_clean_linker_0, # of connection points: 2
#     Edge 12, Type (0, 0), BuildingBlock: ZUJKAS_clean_linker_0, # of connection points: 2
#     Edge 13, Type (0, 0), BuildingBlock: ZUJKAS_clean_linker_0, # of connection points: 2
#     Edge 14, Type (0, 0), BuildingBlock: ZUJKAS_clean_linker_0, # of connection points: 2
#     Edge 15, Type (0, 0), BuildingBlock: ZUJKAS_clean_linker_0, # of connection points: 2
#     Edge 16, Type (0, 0), BuildingBlock: ZUJKAS_clean_linker_0, # of connection points: 2
#     Edge 17, Type (0, 0), BuildingBlock: ZUJKAS_clean_linker_0, # of connection points: 2
#     Edge 18, Type (0, 0), BuildingBlock: ZUJKAS_clean_linker_0, # of connection points: 2
#     Edge 19, Type (0, 0), BuildingBlock: ZUJKAS_clean_linker_0, # of connection points: 2
#     Edge 20, Type (0, 0), BuildingBlock: ZUJKAS_clean_linker_0, # of connection points: 2
#     Edge 21, Type (0, 0), BuildingBlock: ZUJKAS_clean_linker_0, # of connection points: 2
#     Edge 22, Type (0, 0), BuildingBlock: ZUJKAS_clean_linker_0, # of connection points: 2
#     Edge 23, Type (0, 0), BuildingBlock: ZUJKAS_clean_linker_0, # of connection points: 2
#     Edge 24, Type (0, 0), BuildingBlock: ZUJKAS_clean_linker_0, # of connection points: 2
#     Edge 25, Type (0, 0), BuildingBlock: ZUJKAS_clean_linker_0, # of connection points: 2
#     Edge 26, Type (0, 0), BuildingBlock: ZUJKAS_clean_linker_0, # of connection points: 2
#     Edge 27, Type (0, 0), BuildingBlock: ZUJKAS_clean_linker_0, # of connection points: 2
#     Edge 28, Type (0, 0), BuildingBlock: ZUJKAS_clean_linker_0, # of connection points: 2
#     Edge 29, Type (0, 0), BuildingBlock: ZUJKAS_clean_linker_0, # of connection points: 2
#     Edge 30, Type (0, 0), BuildingBlock: ZUJKAS_clean_linker_0, # of connection points: 2
#     Edge 31, Type (0, 0), BuildingBlock: ZUJKAS_clean_linker_0, # of connection points: 2
# Relax obj value: 0.197
# Max RMSD: 0.214
# Mean RMSD: 0.214
data_MOF--net-vby--node1-BETDAH_clean_sbu_0--edge1-ZUJKAS_clean_linker_0
_symmetry_space_group_name_H-M    P1
_symmetry_Int_Tables_number       1
_symmetry_cell_setting            triclinic
loop_
_symmetry_equiv_pos_as_xyz
'x, y, z'
_cell_length_a     20.05018
_cell_length_b     120.29714
_cell_length_c     38.014904
_cell_angle_alpha  89.946872
_cell_angle_beta   85.027749
_cell_angle_gamma 90.014351
loop_
_atom_site_label
_atom_site_type_symbol
_atom_site_fract_x
_atom_site_fract_y
_atom_site_fract_z
_atom_type_partial_charge
Ho0 Ho 0.07672 0.40039 0.01363 0.0
Ho1 Ho 0.06584 0.37581 0.0288 0.0
C2 C 0.93044 0.38896 0.02684 0.0
C3 C 0.07351 0.42074 0.99018 0.0
C4 C 0.05531 0.43243 0.99916 0.0
C5 C 1.02261 0.4388 0.9749 0.0
C6 C 1.01399 0.45028 0.97962 0.0
C7 C 0.03812 0.45574 0.00875 0.0
C8 C 0.06853 0.44925 0.03382 0.0
C9 C 0.07714 0.43775 0.02907 0.0
C10 C 0.07865 0.39499 0.08334 0.0
C11 C 0.21225 0.38692 0.01216 0.0
C12 C 0.07304 0.35554 0.05233 0.0
C13 C 0.1093 0.34484 0.04574 0.0
C14 C 0.13745 0.33949 0.07378 0.0
C15 C 0.16496 0.3288 0.06957 0.0
C16 C 0.1647 0.32313 0.03717 0.0
C17 C 0.13805 0.32863 0.0088 0.0
C18 C 0.11075 0.33935 0.013 0.0
C19 C 0.05772 0.38118 0.95982 0.0
O20 O 0.96674 0.39672 0.00942 0.0
O21 O 0.95956 0.38092 0.04368 0.0
O22 O 0.12377 0.41642 0.00499 0.0
O23 O 1.02571 0.41353 0.98673 0.0
O24 O 0.11065 0.40323 0.06804 0.0
O25 O 0.0425 0.39059 0.06176 0.0
O26 O 0.17695 0.37904 0.02937 0.0
O27 O 0.1821 0.39514 0.99684 0.0
O28 O 0.0326 0.35872 0.02912 0.0
O29 O 0.10563 0.36387 0.06479 0.0
O30 O 1.02772 0.37285 0.97576 0.0
O31 O 0.09654 0.38564 0.98012 0.0
H32 H 1.00563 0.43494 0.95152 0.0
H33 H 0.9892 0.45491 0.96009 0.0
H34 H 0.08823 0.45313 0.05645 0.0
H35 H 0.10295 0.4331 0.04817 0.0
H36 H 0.13642 0.34345 0.09941 0.0
H37 H 0.18427 0.32482 0.09215 0.0
H38 H 0.13785 0.32463 0.9833 0.0
H39 H 0.08949 0.34322 0.99079 0.0
Ho40 Ho 0.9934 0.65604 0.01724 0.0
Ho41 Ho 0.9832 0.63143 0.03287 0.0
C42 C 0.84726 0.64483 0.03416 0.0
C43 C 0.98596 0.67629 0.99359 0.0
C44 C 0.94928 0.68696 1.00001 0.0
C45 C 0.92327 0.69246 0.97159 0.0
C46 C 0.89554 0.70313 0.97579 0.0
C47 C 0.8934 0.70864 0.00856 0.0
C48 C 0.91785 0.70298 0.03728 0.0
C49 C 0.94538 0.69228 0.03308 0.0
C50 C 1.00282 0.65075 0.08607 0.0
C51 C 0.12896 0.64299 0.01935 0.0
C52 C 0.98733 0.61115 0.05679 0.0
C53 C 1.00439 0.59942 0.04765 0.0
C54 C 0.03728 0.59297 0.07162 0.0
C55 C 0.04521 0.58149 0.06673 0.0
C56 C 1.0202 0.57611 0.0377 0.0
C57 C 0.98955 0.58267 0.0129 0.0
C58 C 0.98161 0.59418 0.01785 0.0
C59 C 0.981 0.63673 0.96308 0.0
O60 O 0.88231 0.65276 0.01706 0.0
O61 O 0.87756 0.63659 0.04935 0.0
O62 O 1.02598 0.67316 0.01705 0.0
O63 O 0.9539 0.66792 0.98097 0.0
O64 O 0.03321 0.65898 0.06977 0.0
O65 O 0.96335 0.64626 0.06617 0.0
O66 O 0.09289 0.6353 0.03723 0.0
O67 O 0.09957 0.65091 1.00211 0.0
O68 O 0.93588 0.61549 0.0431 0.0
O69 O 0.03589 0.6183 0.05889 0.0
O70 O 0.95047 0.62832 0.97827 0.0
O71 O 1.01658 0.6412 0.98473 0.0
H72 H 0.92621 0.68862 0.94573 0.0
H73 H 0.87796 0.70722 0.95295 0.0
H74 H 0.91617 0.70685 0.06304 0.0
H75 H 0.96492 0.68829 0.05558 0.0
H76 H 0.05501 0.59678 0.09491 0.0
H77 H 0.0702 0.57679 0.08604 0.0
H78 H 0.96922 0.57885 0.99036 0.0
H79 H 0.95566 0.59891 0.99896 0.0
Ho80 Ho 0.06373 0.65601 0.52934 0.0
Ho81 Ho 0.0741 0.63137 0.51368 0.0
C82 C 0.20997 0.64486 0.51211 0.0
C83 C 0.07029 0.67622 0.5533 0.0
C84 C 0.10761 0.68686 0.54814 0.0
C85 C 0.12228 0.69301 0.57786 0.0
C86 C 0.14989 0.7037 0.57418 0.0
C87 C 0.16342 0.70857 0.54059 0.0
C88 C 0.15072 0.70222 0.51072 0.0
C89 C 0.12309 0.6915 0.51444 0.0
C90 C 0.05372 0.65071 0.46064 0.0
C91 C 0.92819 0.64291 0.52716 0.0
C92 C 0.07023 0.61111 0.4897 0.0
C93 C 0.05295 0.59941 0.49898 0.0
C94 C 1.02594 0.59265 0.4737 0.0
C95 C 1.01774 0.5812 0.47935 0.0
C96 C 0.03654 0.57617 0.51049 0.0
C97 C 0.06161 0.58305 0.53635 0.0
C98 C 0.06975 0.59453 0.53066 0.0
C99 C 0.07623 0.63666 0.58344 0.0
O100 O 0.17498 0.65281 0.52911 0.0
O101 O 0.17964 0.6366 0.49711 0.0
O102 O 0.03296 0.67321 0.52848 0.0
O103 O 0.10058 0.66779 0.56672 0.0
O104 O 1.02301 0.65889 0.47699 0.0
O105 O 0.09356 0.64624 0.48043 0.0
O106 O 0.96429 0.63519 0.50946 0.0
O107 O 0.9575 0.65086 0.54426 0.0
O108 O 0.12144 0.61544 0.50365 0.0
O109 O 1.02175 0.61826 0.48744 0.0
O110 O 0.1068 0.62826 0.5683 0.0
O111 O 0.04067 0.64113 0.56175 0.0
H112 H 0.11072 0.68965 0.60414 0.0
H113 H 0.16008 0.7082 0.59779 0.0
H114 H 0.15988 0.70567 0.48443 0.0
H115 H 0.11214 0.68699 0.49098 0.0
H116 H 1.01334 0.59617 0.44889 0.0
H117 H 0.9991 0.57622 0.4586 0.0
H118 H 0.07566 0.57954 0.56089 0.0
H119 H 0.09082 0.59953 0.55064 0.0
Ho120 Ho 0.98137 0.40054 0.53415 0.0
Ho121 Ho 0.99141 0.37595 0.51896 0.0
C122 C 0.12713 0.38897 0.52122 0.0
C123 C 0.98516 0.42085 0.5577 0.0
C124 C 1.0031 0.43253 0.54845 0.0
C125 C 0.03012 0.43926 0.57382 0.0
C126 C 0.03865 0.45071 0.56825 0.0
C127 C 1.02017 0.45577 0.5371 0.0
C128 C 0.99517 0.44893 0.51114 0.0
C129 C 0.9867 0.43745 0.51674 0.0
C130 C 0.97964 0.3952 0.46439 0.0
C131 C 0.84543 0.38718 0.53546 0.0
C132 C 0.9838 0.35571 0.49539 0.0
C133 C 0.9475 0.34499 0.50186 0.0
C134 C 0.91331 0.34025 0.47482 0.0
C135 C 0.88583 0.32954 0.47848 0.0
C136 C 0.89211 0.32321 0.50925 0.0
C137 C 0.92474 0.32812 0.53674 0.0
C138 C 0.95211 0.33884 0.53309 0.0
C139 C 0.9995 0.38125 0.58797 0.0
O140 O 0.09102 0.39672 0.53874 0.0
O141 O 0.09782 0.38101 0.50418 0.0
O142 O 0.93445 0.41655 0.54326 0.0
O143 O 0.0332 0.41366 0.56063 0.0
O144 O 0.948 0.40347 0.47964 0.0
O145 O 1.01542 0.39075 0.48606 0.0
O146 O 0.88047 0.37929 0.51824 0.0
O147 O 0.87582 0.39536 0.55084 0.0
O148 O 1.02443 0.35885 0.51853 0.0
O149 O 0.95131 0.36407 0.48299 0.0
O150 O 1.02916 0.3729 0.57206 0.0
O151 O 0.96096 0.38577 0.56762 0.0
H152 H 0.0424 0.43571 0.59866 0.0
H153 H 0.05724 0.45566 0.58908 0.0
H154 H 0.98138 0.45246 0.48659 0.0
H155 H 0.96563 0.43248 0.49669 0.0
H156 H 0.90927 0.34473 0.45037 0.0
H157 H 0.86014 0.32617 0.45695 0.0
H158 H 0.93134 0.32352 0.56069 0.0
H159 H 0.97852 0.34217 0.55441 0.0
Ho160 Ho 0.57402 0.90037 0.01415 0.0
Ho161 Ho 0.56385 0.87575 0.02953 0.0
C162 C 0.42829 0.88879 0.02767 0.0
C163 C 0.56962 0.92066 0.99032 0.0
C164 C 0.55287 0.93237 0.99986 0.0
C165 C 0.52259 0.93906 0.97551 0.0
C166 C 0.5146 0.95051 0.98117 0.0
C167 C 0.53692 0.95561 0.01138 0.0
C168 C 0.5653 0.9488 0.03637 0.0
C169 C 0.57321 0.93732 0.03069 0.0
C170 C 0.5763 0.89507 0.08387 0.0
C171 C 0.71001 0.88697 0.01272 0.0
C172 C 0.57126 0.85545 0.05278 0.0
C173 C 0.60819 0.84481 0.04635 0.0
C174 C 0.63425 0.83932 0.07477 0.0
C175 C 0.66214 0.82866 0.07057 0.0
C176 C 0.66438 0.82315 0.03779 0.0
C177 C 0.6399 0.8288 0.00907 0.0
C178 C 0.61222 0.83949 0.01327 0.0
C179 C 0.55401 0.88118 0.9608 0.0
O180 O 0.46434 0.89649 0.00978 0.0
O181 O 0.45774 0.88087 0.04485 0.0
O182 O 0.62142 0.91629 1.0036 0.0
O183 O 0.52085 0.91353 0.98856 0.0
O184 O 0.60665 0.90349 0.06871 0.0
O185 O 0.54079 0.89054 0.06227 0.0
O186 O 0.67497 0.87901 0.02968 0.0
O187 O 0.67971 0.89524 0.99768 0.0
O188 O 0.53168 0.85861 0.02914 0.0
O189 O 0.60286 0.86381 0.06577 0.0
O190 O 0.52333 0.87297 0.97706 0.0
O191 O 0.59384 0.88557 0.9807 0.0
H192 H 0.5072 0.93548 0.95134 0.0
H193 H 0.4933 0.95544 0.96108 0.0
H194 H 0.58213 0.95236 0.06021 0.0
H195 H 0.59683 0.93238 0.04996 0.0
H196 H 0.63121 0.84315 0.10064 0.0
H197 H 0.67973 0.82457 0.09341 0.0
H198 H 0.64166 0.82493 0.98331 0.0
H199 H 0.59263 0.84347 0.99076 0.0
Ho200 Ho 0.49172 0.15594 0.01791 0.0
Ho201 Ho 0.48272 0.13124 0.03348 0.0
C202 C 0.34614 0.14452 0.03432 0.0
C203 C 0.48372 0.17611 0.99372 0.0
C204 C 0.44761 0.18682 1.0003 0.0
C205 C 0.4195 0.19217 0.97225 0.0
C206 C 0.39205 0.20287 0.97646 0.0
C207 C 0.39231 0.20854 0.00886 0.0
C208 C 0.41891 0.20303 0.03724 0.0
C209 C 0.44615 0.19231 0.03304 0.0
C210 C 0.49955 0.15073 0.08702 0.0
C211 C 0.62773 0.14303 0.02078 0.0
C212 C 0.48762 0.11099 0.05756 0.0
C213 C 0.50415 0.09927 0.04811 0.0
C214 C 0.53446 0.0926 0.07249 0.0
C215 C 0.54238 0.08114 0.06691 0.0
C216 C 0.51998 0.07603 0.03675 0.0
C217 C 0.49154 0.08282 0.01174 0.0
C218 C 0.4837 0.0943 0.01734 0.0
C219 C 0.48104 0.13654 0.96361 0.0
O220 O 0.38096 0.1525 0.01737 0.0
O221 O 0.37659 0.13629 0.04948 0.0
O222 O 0.52503 0.17302 0.01661 0.0
O223 O 0.45063 0.16772 0.98192 0.0
O224 O 0.52831 0.15918 0.07112 0.0
O225 O 0.46175 0.14605 0.06661 0.0
O226 O 0.59179 0.13532 0.03861 0.0
O227 O 0.59829 0.15091 1.0034 0.0
O228 O 0.43547 0.11534 0.04456 0.0
O229 O 0.5365 0.11812 0.05888 0.0
O230 O 0.45113 0.12806 0.97872 0.0
O231 O 0.51599 0.1411 0.98542 0.0
H232 H 0.42052 0.18821 0.94663 0.0
H233 H 0.37278 0.20684 0.95387 0.0
H234 H 0.41911 0.20703 0.06274 0.0
H235 H 0.46736 0.18843 0.05526 0.0
H236 H 0.54994 0.09619 0.09661 0.0
H237 H 0.56372 0.07623 0.08701 0.0
H238 H 0.47464 0.07924 0.98793 0.0
H239 H 0.46005 0.09923 0.99806 0.0
Ho240 Ho 0.56423 0.15594 0.52837 0.0
Ho241 Ho 0.57349 0.13127 0.51293 0.0
C242 C 0.71001 0.14458 0.51212 0.0
C243 C 0.57198 0.17612 0.55245 0.0
C244 C 0.6081 0.18686 0.54599 0.0
C245 C 0.64216 0.19161 0.57303 0.0
C246 C 0.66958 0.20233 0.56936 0.0
C247 C 0.66337 0.20863 0.53856 0.0
C248 C 0.63087 0.20372 0.51105 0.0
C249 C 0.60356 0.19299 0.51471 0.0
C250 C 0.55663 0.15075 0.45926 0.0
C251 C 0.42849 0.14303 0.52511 0.0
C252 C 0.56823 0.111 0.48907 0.0
C253 C 0.55302 0.09923 0.4987 0.0
C254 C 0.51374 0.09293 0.47727 0.0
C255 C 0.50647 0.08143 0.48222 0.0
C256 C 0.53859 0.07589 0.50872 0.0
C257 C 0.57588 0.0823 0.53109 0.0
C258 C 0.58312 0.09383 0.52611 0.0
C259 C 0.57499 0.13655 0.58279 0.0
O260 O 0.67504 0.15256 0.52896 0.0
O261 O 0.67969 0.13632 0.49706 0.0
O262 O 0.53084 0.17303 0.52949 0.0
O263 O 0.60488 0.16773 0.56443 0.0
O264 O 0.52769 0.15918 0.47511 0.0
O265 O 0.59442 0.14608 0.47971 0.0
O266 O 0.46474 0.1354 0.50715 0.0
O267 O 0.45767 0.15087 0.54276 0.0
O268 O 0.62124 0.11547 0.50083 0.0
O269 O 0.51868 0.11804 0.48871 0.0
O270 O 0.60503 0.12808 0.56772 0.0
O271 O 0.54003 0.1411 0.56094 0.0
H272 H 0.64617 0.18714 0.59751 0.0
H273 H 0.6952 0.2057 0.5909 0.0
H274 H 0.62432 0.2083 0.48707 0.0
H275 H 0.57728 0.18963 0.49337 0.0
H276 H 0.49027 0.09686 0.45584 0.0
H277 H 0.47631 0.07685 0.46489 0.0
H278 H 0.60178 0.07836 0.5516 0.0
H279 H 0.61409 0.09843 0.54299 0.0
Ho280 Ho 0.48347 0.90013 0.5332 0.0
Ho281 Ho 0.49414 0.87549 0.51761 0.0
C282 C 0.62938 0.88861 0.52 0.0
C283 C 0.48781 0.9204 0.55712 0.0
C284 C 0.50363 0.93216 0.54757 0.0
C285 C 0.54259 0.93843 0.56925 0.0
C286 C 0.55021 0.94993 0.56436 0.0
C287 C 0.51874 0.9555 0.53768 0.0
C288 C 0.48179 0.94912 0.51508 0.0
C289 C 0.47423 0.9376 0.51999 0.0
C290 C 0.48145 0.8949 0.46347 0.0
C291 C 0.3477 0.8866 0.53466 0.0
C292 C 0.48787 0.85526 0.4938 0.0
C293 C 0.45048 0.84463 0.49891 0.0
C294 C 0.43585 0.83848 0.46917 0.0
C295 C 0.40817 0.8278 0.47282 0.0
C296 C 0.39452 0.82293 0.5064 0.0
C297 C 0.40716 0.82927 0.53629 0.0
C298 C 0.43486 0.83998 0.5326 0.0
C299 C 0.50418 0.88087 0.5863 0.0
O300 O 0.59307 0.89627 0.53783 0.0
O301 O 0.60029 0.88067 0.50272 0.0
O302 O 0.43547 0.91595 0.54461 0.0
O303 O 0.53709 0.91334 0.55825 0.0
O304 O 0.45104 0.90331 0.47862 0.0
O305 O 0.51692 0.89037 0.48509 0.0
O306 O 0.38287 0.87863 0.51789 0.0
O307 O 0.37776 0.89493 0.54947 0.0
O308 O 0.52486 0.8583 0.51874 0.0
O309 O 0.45781 0.86368 0.48018 0.0
O310 O 0.53505 0.8727 0.57 0.0
O311 O 0.46417 0.88526 0.56646 0.0
H312 H 0.56551 0.93448 0.59083 0.0
H313 H 0.5801 0.95448 0.58188 0.0
H314 H 0.45637 0.95308 0.49442 0.0
H315 H 0.4435 0.93303 0.50291 0.0
H316 H 0.44751 0.84185 0.4429 0.0
H317 H 0.39802 0.82331 0.44919 0.0
H318 H 0.3979 0.82582 0.56257 0.0
H319 H 0.44577 0.84449 0.55608 0.0
H320 H 0.30187 0.40203 0.98127 0.0
H321 H 0.42372 0.40218 0.9826 0.0
H322 H 0.4132 0.37172 0.04267 0.0
H323 H 0.29162 0.37141 0.04109 0.0
H324 H 0.49664 0.4031 0.04108 0.0
H325 H 0.55924 0.36467 0.96483 0.0
H326 H 0.47849 0.37132 0.96525 0.0
H327 H 0.49786 0.36264 1.00153 0.0
C328 C 0.32545 0.39528 0.9944 0.0
C329 C 0.2867 0.38667 0.0109 0.0
C330 C 0.39522 0.3954 0.99523 0.0
C331 C 0.42793 0.38689 0.01234 0.0
C332 C 0.38944 0.37826 0.02865 0.0
H333 H 0.83952 0.37399 0.05733 0.0
H334 H 0.71801 0.37384 0.05456 0.0
C335 C 0.31971 0.37813 0.02785 0.0
C336 C 0.50185 0.3873 0.01443 0.0
H337 H 0.64683 0.37278 0.99452 0.0
C338 C 0.52952 0.3965 0.03069 0.0
C339 C 0.54487 0.37868 1.001 0.0
C340 C 0.51883 0.36881 0.98187 0.0
C341 C 0.59861 0.39721 0.03448 0.0
C342 C 0.64157 0.38857 0.02115 0.0
C343 C 0.61394 0.37938 0.00484 0.0
C344 C 0.71535 0.38892 0.02368 0.0
C345 C 0.62476 0.40709 0.05352 0.0
C346 C 0.75457 0.39743 0.00714 0.0
C347 C 0.82415 0.39755 0.00871 0.0
C348 C 0.85619 0.38914 0.02673 0.0
C349 C 0.81669 0.38064 0.04336 0.0
C350 C 0.74712 0.38052 0.04172 0.0
H351 H 0.58423 0.41139 0.07004 0.0
H352 H 0.66422 0.40453 0.07065 0.0
H353 H 0.64703 0.41314 0.03382 0.0
H354 H 0.7315 0.40389 0.99247 0.0
H355 H 0.85285 0.40418 0.99536 0.0
H356 H 0.2071 0.62787 0.05092 0.0
H357 H 0.32847 0.62836 0.0541 0.0
H358 H 0.34073 0.65833 0.99164 0.0
H359 H 0.21937 0.65798 0.98855 0.0
H360 H 0.43334 0.62818 0.9999 0.0
H361 H 0.4367 0.66697 0.07869 0.0
H362 H 0.36079 0.65927 0.0737 0.0
H363 H 0.39533 0.6682 0.03881 0.0
C364 C 0.23551 0.63457 0.03777 0.0
C365 C 0.20318 0.64292 0.0196 0.0
C366 C 0.305 0.63483 0.03963 0.0
C367 C 0.34369 0.64348 0.02364 0.0
C368 C 0.31184 0.65169 0.00482 0.0
H369 H 0.76742 0.66028 0.00526 0.0
H370 H 0.64583 0.65979 1.00329 0.0
C371 C 0.24237 0.65143 1.00287 0.0
C372 C 0.41736 0.64386 0.02645 0.0
H373 H 0.54208 0.65968 0.05676 0.0
C374 C 0.4571 0.63504 0.01248 0.0
C375 C 0.44841 0.65282 0.04284 0.0
C376 C 0.40819 0.66232 0.05967 0.0
C377 C 0.52704 0.63503 0.01379 0.0
C378 C 0.55813 0.644 0.03019 0.0
C379 C 0.51835 0.65281 0.04421 0.0
C380 C 0.63192 0.64443 0.03268 0.0
C381 C 0.5672 0.62556 0.99676 0.0
C382 C 0.66466 0.63611 0.05061 0.0
C383 C 0.73432 0.63636 0.05182 0.0
C384 C 0.77282 0.64499 0.03528 0.0
C385 C 0.73958 0.65349 0.01825 0.0
C386 C 0.66994 0.65323 0.01706 0.0
H387 H 0.5387 0.62099 0.97757 0.0
H388 H 0.61471 0.62861 0.98287 0.0
H389 H 0.57977 0.6196 0.01748 0.0
H390 H 0.63634 0.62937 0.06357 0.0
H391 H 0.75801 0.6297 0.06531 0.0
H392 H 0.85006 0.62778 0.49564 0.0
H393 H 0.72873 0.62828 0.49231 0.0
H394 H 0.71649 0.65829 0.55441 0.0
H395 H 0.83779 0.65792 0.55768 0.0
H396 H 0.6236 0.62816 0.54643 0.0
H397 H 0.62103 0.66689 0.46711 0.0
H398 H 0.6968 0.65918 0.47227 0.0
H399 H 0.66232 0.66815 0.507 0.0
C400 C 0.82166 0.63448 0.5087 0.0
C401 C 0.85398 0.64284 0.52682 0.0
C402 C 0.75219 0.63475 0.50673 0.0
C403 C 0.71352 0.64342 0.52257 0.0
C404 C 0.74537 0.65164 0.54135 0.0
H405 H 0.29003 0.66034 0.54071 0.0
H406 H 0.41164 0.65983 0.54262 0.0
C407 C 0.8148 0.65136 0.5434 0.0
C408 C 0.63989 0.64382 0.51968 0.0
H409 H 0.51548 0.65966 0.48913 0.0
C410 C 0.59998 0.63502 0.53375 0.0
C411 C 0.60901 0.65278 0.50316 0.0
C412 C 0.64942 0.66225 0.48622 0.0
C413 C 0.53004 0.63504 0.53243 0.0
C414 C 0.49912 0.644 0.51591 0.0
C415 C 0.53908 0.65279 0.50178 0.0
C416 C 0.42534 0.64446 0.51341 0.0
C417 C 0.48971 0.62559 0.54957 0.0
C418 C 0.39249 0.63614 0.49558 0.0
C419 C 0.32282 0.6364 0.49441 0.0
C420 C 0.28442 0.64504 0.51087 0.0
C421 C 0.31778 0.65354 0.52778 0.0
C422 C 0.38744 0.65327 0.52893 0.0
H423 H 0.51811 0.62101 0.56883 0.0
H424 H 0.44225 0.62866 0.56343 0.0
H425 H 0.47703 0.61962 0.52893 0.0
H426 H 0.42072 0.62939 0.48268 0.0
H427 H 0.29905 0.62973 0.48101 0.0
H428 H 0.76549 0.37181 0.50631 0.0
H429 H 0.64386 0.37231 0.5045 0.0
H430 H 0.63464 0.40258 0.5653 0.0
H431 H 0.75635 0.40225 0.56689 0.0
H432 H 0.54043 0.37231 0.5583 0.0
H433 H 0.53651 0.41113 0.47952 0.0
H434 H 0.61257 0.40349 0.48455 0.0
H435 H 0.57793 0.41243 0.51934 0.0
C436 C 0.7377 0.37857 0.51944 0.0
C437 C 0.77101 0.38703 0.53659 0.0
C438 C 0.66804 0.37884 0.51835 0.0
C439 C 0.63009 0.38759 0.53418 0.0
C440 C 0.66291 0.39587 0.55219 0.0
H441 H 0.20518 0.40409 0.55285 0.0
H442 H 0.32655 0.40362 0.55603 0.0
C443 C 0.73259 0.39562 0.55331 0.0
C444 C 0.55629 0.38803 0.53183 0.0
H445 H 0.43129 0.40388 0.50188 0.0
C446 C 0.5166 0.37919 0.54584 0.0
C447 C 0.52509 0.39701 0.51557 0.0
C448 C 0.56516 0.40651 0.49858 0.0
C449 C 0.44665 0.37917 0.5446 0.0
C450 C 0.41549 0.38815 0.52832 0.0
C451 C 0.45513 0.397 0.51437 0.0
C452 C 0.34182 0.38852 0.52556 0.0
C453 C 0.40653 0.36966 0.56142 0.0
C454 C 0.31 0.38031 0.50674 0.0
C455 C 0.24054 0.38056 0.50479 0.0
C456 C 0.20133 0.38906 0.52152 0.0
C457 C 0.23361 0.39741 0.53969 0.0
C458 C 0.3031 0.39716 0.54156 0.0
H459 H 0.43512 0.365 0.58042 0.0
H460 H 0.35912 0.37267 0.57547 0.0
H461 H 0.39371 0.36378 0.54056 0.0
H462 H 0.33893 0.37369 0.49354 0.0
H463 H 0.21758 0.37402 0.49046 0.0
H464 H 0.78984 0.87148 0.04143 0.0
H465 H 0.91142 0.87196 0.04344 0.0
H466 H 0.92095 0.90245 0.98355 0.0
H467 H 0.79928 0.90213 0.98178 0.0
H468 H 1.01525 0.87213 0.99005 0.0
H469 H 1.01847 0.91074 0.06966 0.0
H470 H 0.94247 0.90313 0.06423 0.0
H471 H 0.97749 0.91217 0.02974 0.0
C472 C 0.81768 0.87828 0.02854 0.0
C473 C 0.78445 0.8868 0.0116 0.0
C474 C 0.88733 0.87854 0.02974 0.0
C475 C 0.92535 0.88736 0.01425 0.0
C476 C 0.89262 0.8957 0.99641 0.0
H477 H 0.35011 0.90393 0.99621 0.0
H478 H 0.22875 0.90344 0.99304 0.0
C479 C 0.82296 0.89545 0.99519 0.0
C480 C 0.99913 0.88779 0.01678 0.0
H481 H 0.12386 0.90358 0.04726 0.0
C482 C 0.03895 0.87898 1.00268 0.0
C483 C 0.03019 0.89673 0.03327 0.0
C484 C 0.99001 0.90619 0.05039 0.0
C485 C 0.10888 0.87897 1.00407 0.0
C486 C 0.1399 0.88792 0.02056 0.0
C487 C 0.10013 0.89673 0.0346 0.0
C488 C 0.21356 0.8883 0.02338 0.0
C489 C 0.14914 0.86949 0.98716 0.0
C490 C 0.24544 0.88007 0.04213 0.0
C491 C 0.31491 0.88034 0.04409 0.0
C492 C 0.35407 0.88886 0.02743 0.0
C493 C 0.32172 0.89723 0.00932 0.0
C494 C 0.25223 0.89697 0.00746 0.0
H495 H 0.12064 0.86486 0.96811 0.0
H496 H 0.19652 0.87256 0.97316 0.0
H497 H 0.16203 0.86359 0.00797 0.0
H498 H 0.21656 0.87343 0.05526 0.0
H499 H 0.33793 0.87378 0.05836 0.0
H500 H 0.26628 0.1602 0.00668 0.0
H501 H 0.1445 0.15995 0.00573 0.0
H502 H 0.13531 0.12891 0.06268 0.0
H503 H 0.25705 0.12914 0.06417 0.0
H504 H 0.067 0.14409 0.97551 0.0
H505 H 0.99317 0.14738 0.1192 0.0
H506 H 0.077 0.15036 0.10031 0.0
H507 H 0.05017 0.13621 0.1074 0.0
C508 C 0.23843 0.15337 0.01938 0.0
C509 C 0.2717 0.14471 0.03567 0.0
C510 C 0.16869 0.15323 0.01872 0.0
C511 C 0.13048 0.14448 0.03449 0.0
C512 C 0.16343 0.13587 0.05096 0.0
H513 H 0.70601 0.1277 0.05129 0.0
H514 H 0.82761 0.12792 0.05328 0.0
C515 C 0.23322 0.13599 0.05166 0.0
C516 C 0.05661 0.14417 0.03234 0.0
H517 H 0.90646 0.14345 0.08236 0.0
C518 C 0.03188 0.144 0.99888 0.0
C519 C 1.01071 0.144 0.06282 0.0
C520 C 0.03389 0.1446 0.09948 0.0
C521 C 0.96278 0.1435 0.99503 0.0
C522 C 0.91682 0.14338 0.02551 0.0
C523 C 0.94157 0.14352 0.05899 0.0
C524 C 0.84292 0.14314 0.0233 0.0
C525 C 0.93977 0.14282 0.95834 0.0
C526 C 0.81068 0.15165 0.00594 0.0
C527 C 0.74106 0.15152 0.00457 0.0
C528 C 0.70196 0.14293 0.02086 0.0
C529 C 0.73439 0.13443 0.03833 0.0
C530 C 0.80403 0.13456 0.03958 0.0
H531 H 0.9803 0.13982 0.93887 0.0
H532 H 0.89599 0.13719 0.95764 0.0
H533 H 0.92476 0.15122 0.94994 0.0
H534 H 0.83924 0.15851 0.99387 0.0
H535 H 0.71786 0.15826 0.99118 0.0
H536 H 0.33753 0.15794 0.55578 0.0
H537 H 0.21593 0.15804 0.55316 0.0
H538 H 0.22973 0.12818 0.49035 0.0
H539 H 0.3511 0.12795 0.49305 0.0
H540 H 0.14397 0.15909 0.49289 0.0
H541 H 0.08389 0.12041 0.56879 0.0
H542 H 0.16346 0.12741 0.56929 0.0
H543 H 0.14664 0.11879 0.53249 0.0
C544 C 0.31474 0.15133 0.54166 0.0
C545 C 0.3543 0.1429 0.52479 0.0
C546 C 0.24514 0.15142 0.54011 0.0
C547 C 0.21346 0.14304 0.52194 0.0
C548 C 0.25277 0.13462 0.5051 0.0
H549 H 0.79951 0.12942 0.48145 0.0
H550 H 0.92148 0.12937 0.48232 0.0
C551 C 0.32235 0.13453 0.50655 0.0
C552 C 0.13964 0.14331 0.51969 0.0
H553 H 0.99552 0.12861 0.54025 0.0
C554 C 0.11145 0.15245 0.50338 0.0
C555 C 0.0972 0.13462 0.53323 0.0
C556 C 0.12406 0.12479 0.55222 0.0
C557 C 0.04228 0.15306 0.49975 0.0
C558 C 0.99976 0.14439 0.51343 0.0
C559 C 1.02801 0.13524 0.52967 0.0
C560 C 0.92576 0.14472 0.51166 0.0
C561 C 1.01562 0.16287 0.48058 0.0
C562 C 0.8873 0.15334 0.52793 0.0
C563 C 0.81753 0.15342 0.52738 0.0
C564 C 0.78445 0.14482 0.51076 0.0
C565 C 0.82315 0.13621 0.49434 0.0
C566 C 0.89298 0.13615 0.4949 0.0
H567 H 0.05565 0.16702 0.46326 0.0
H568 H 0.975 0.16031 0.46422 0.0
H569 H 0.99487 0.16906 0.5002 0.0
H570 H 0.91111 0.15993 0.5417 0.0
H571 H 0.7895 0.16015 0.54055 0.0
H572 H 0.71997 0.87341 0.49081 0.0
H573 H 0.84116 0.87307 0.4946 0.0
H574 H 0.82848 0.90373 0.55343 0.0
H575 H 0.70719 0.90404 0.55036 0.0
H576 H 0.93948 0.88786 0.47122 0.0
H577 H 0.93008 0.88403 0.61698 0.0
H578 H 0.85727 0.88203 0.59292 0.0
H579 H 0.88541 0.89583 0.60221 0.0
C580 C 0.74286 0.8801 0.50453 0.0
C581 C 0.70355 0.88872 0.52044 0.0
C582 C 0.81227 0.87988 0.50669 0.0
C583 C 0.84398 0.88825 0.52491 0.0
C584 C 0.80511 0.89702 0.54002 0.0
H585 H 0.25811 0.90198 0.56389 0.0
H586 H 0.13648 0.90223 0.56152 0.0
C587 C 0.73568 0.89723 0.53797 0.0
C588 C 0.91771 0.88786 0.52767 0.0
H589 H 0.03707 0.8872 0.58675 0.0
C590 C 0.96077 0.88766 0.49649 0.0
C591 C 0.94567 0.88761 0.56064 0.0
C592 C 0.90228 0.88728 0.59511 0.0
C593 C 0.03078 0.88742 0.49735 0.0
C594 C 0.05872 0.88718 0.53032 0.0
C595 C 1.01572 0.88739 0.5615 0.0
C596 C 0.13244 0.88674 0.53293 0.0
C597 C 0.07424 0.8877 0.4629 0.0
C598 C 0.17065 0.87781 0.51846 0.0
C599 C 0.24026 0.87763 0.51977 0.0
C600 C 0.27327 0.88635 0.53582 0.0
C601 C 0.23456 0.89512 0.55129 0.0
C602 C 0.16491 0.89529 0.54994 0.0
H603 H 0.04635 0.8908 0.44087 0.0
H604 H 0.11887 0.89305 0.46497 0.0
H605 H 0.0918 0.87915 0.45617 0.0
H606 H 0.14665 0.87098 0.50592 0.0
H607 H 0.26823 0.87071 0.50774 0.0
H608 H 1.00139 0.56042 0.0902 0.0
H609 H 1.006 0.54019 0.08481 0.0
H610 H 0.04776 0.54324 0.97209 0.0
H611 H 0.04534 0.56353 0.97733 0.0
H612 H 0.9281 0.52612 0.04812 0.0
H613 H 0.19498 0.52212 0.99761 0.0
H614 H 0.16068 0.53481 0.01691 0.0
H615 H 0.14736 0.53128 0.97211 0.0
C616 C 1.01273 0.55683 0.06426 0.0
C617 C 1.02365 0.56369 0.03424 0.0
C618 C 1.01477 0.54522 0.06121 0.0
C619 C 1.02819 0.54013 0.02812 0.0
C620 C 0.03858 0.54693 0.99802 0.0
H621 H 0.05702 0.47137 0.95607 0.0
H622 H 0.05194 0.49161 0.96121 0.0
C623 C 0.03645 0.55856 1.00103 0.0
C624 C 1.02959 0.52773 0.02516 0.0
H625 H 0.1291 0.50574 0.99773 0.0
C626 C 0.97217 0.52166 0.03724 0.0
C627 C 0.08701 0.52188 0.01093 0.0
C628 C 0.15126 0.52783 0.99893 0.0
C629 C 0.97016 0.50998 0.0349 0.0
C630 C 1.0276 0.50412 0.02069 0.0
C631 C 0.08501 0.51019 0.0086 0.0
C632 C 1.0291 0.49172 0.01786 0.0
C633 C 0.90588 0.50404 0.04687 0.0
C634 C 1.01845 0.48495 0.04801 0.0
C635 C 1.02082 0.47332 0.04514 0.0
C636 C 0.03415 0.46815 0.01203 0.0
C637 C 0.04527 0.47499 0.98194 0.0
C638 C 0.04297 0.4866 0.98485 0.0
H639 H 0.86215 0.50974 0.04799 0.0
H640 H 0.89662 0.49701 0.02899 0.0
H641 H 0.90958 0.50064 0.07377 0.0
H642 H 1.00895 0.48867 0.07389 0.0
H643 H 1.01174 0.46838 0.06889 0.0
H644 H 0.93114 0.46969 0.50781 0.0
H645 H 0.9355 0.48995 0.50263 0.0
H646 H 0.12039 0.49035 0.5526 0.0
H647 H 0.11772 0.47007 0.55678 0.0
H648 H 0.93473 0.50559 0.5556 0.0
H649 H 0.16739 0.50971 0.46648 0.0
H650 H 0.12406 0.49663 0.47352 0.0
H651 H 0.1776 0.50171 0.50554 0.0
C652 C 0.97352 0.47404 0.51709 0.0
C653 C 1.02428 0.46815 0.53256 0.0
C654 C 0.9756 0.48567 0.51438 0.0
C655 C 1.02869 0.49173 0.52681 0.0
C656 C 0.0795 0.48589 0.54219 0.0
H657 H 0.12587 0.5623 0.53978 0.0
H658 H 0.12172 0.54204 0.54512 0.0
C659 C 0.07747 0.47426 0.54493 0.0
C660 C 1.02957 0.50415 0.52479 0.0
H661 H 0.12247 0.52635 0.49239 0.0
C662 C 0.97564 0.51012 0.54161 0.0
C663 C 0.083 0.51011 0.50666 0.0
C664 C 0.14103 0.50423 0.48673 0.0
C665 C 0.97422 0.52183 0.54135 0.0
C666 C 1.02763 0.5278 0.5232 0.0
C667 C 0.08157 0.52182 0.50639 0.0
C668 C 1.02841 0.54022 0.5211 0.0
C669 C 0.9162 0.52771 0.5613 0.0
C670 C 0.97746 0.54602 0.50574 0.0
C671 C 0.97937 0.55765 0.50291 0.0
C672 C 0.03258 0.56379 0.51515 0.0
C673 C 0.08348 0.55793 0.53059 0.0
C674 C 0.08151 0.5463 0.5334 0.0
H675 H 0.89 0.52224 0.58162 0.0
H676 H 0.93314 0.53532 0.57443 0.0
H677 H 0.8795 0.5302 0.54252 0.0
H678 H 0.93655 0.54155 0.49541 0.0
H679 H 0.93901 0.56183 0.49108 0.0
H680 H 0.62966 0.96961 0.03714 0.0
H681 H 0.62543 0.98988 0.04226 0.0
H682 H 0.43349 0.9901 0.99926 0.0
H683 H 0.43619 0.96982 0.99516 0.0
H684 H 0.61895 1.00551 0.98955 0.0
H685 H 0.39689 1.00944 0.08629 0.0
H686 H 0.4399 0.99641 0.07787 0.0
H687 H 0.38183 1.00141 0.04801 0.0
C688 C 0.58585 0.97392 0.0294 0.0
C689 C 0.53309 0.96799 0.0159 0.0
C690 C 0.5838 0.98555 0.03207 0.0
C691 C 0.52878 0.99157 0.02158 0.0
C692 C 0.47598 0.98568 0.00817 0.0
H693 H 0.4272 0.062 0.01109 0.0
H694 H 0.43145 0.04174 0.00605 0.0
C695 C 0.47798 0.97405 0.00546 0.0
C696 C 0.5278 1.00399 0.02353 0.0
H697 H 0.438 0.02612 0.05878 0.0
C698 C 0.57955 1.01001 0.00485 0.0
C699 C 0.47634 1.00991 0.04339 0.0
C700 C 0.4209 1.00398 0.06531 0.0
C701 C 0.58061 0.02172 0.00494 0.0
C702 C 0.52914 0.02764 0.02479 0.0
C703 C 0.4774 0.02162 0.04348 0.0
C704 C 0.52813 0.04006 0.02671 0.0
C705 C 0.63605 0.02765 0.98302 0.0
C706 C 0.58093 0.04595 0.04009 0.0
C707 C 0.57893 0.05758 0.04275 0.0
C708 C 0.5238 0.06364 0.03229 0.0
C709 C 0.47103 0.0577 0.01884 0.0
C710 C 0.47309 0.04606 0.01622 0.0
H711 H 0.66006 0.02218 0.96204 0.0
H712 H 0.61705 0.03521 0.97045 0.0
H713 H 0.67512 0.03022 1.00032 0.0
H714 H 0.62344 0.04154 0.04901 0.0
H715 H 0.62073 0.06183 0.05302 0.0
H716 H 0.52789 0.06308 0.56921 0.0
H717 H 0.52627 0.04276 0.57386 0.0
H718 H 0.53868 0.04017 0.46042 0.0
H719 H 0.54251 0.0604 0.45546 0.0
H720 H 0.43633 0.02739 0.55034 0.0
H721 H 0.69041 0.0199 0.48501 0.0
H722 H 0.66255 0.03349 0.50004 0.0
H723 H 0.63782 0.02804 0.45909 0.0
C724 C 0.53099 0.0582 0.5452 0.0
C725 C 0.53551 0.06346 0.51194 0.0
C726 C 0.52965 0.04656 0.54793 0.0
C727 C 0.53344 0.03988 0.5175 0.0
C728 C 0.53701 0.0451 0.48431 0.0
H729 H 0.53035 0.96833 0.47723 0.0
H730 H 0.53207 0.98865 0.47265 0.0
C731 C 0.53827 0.05672 0.48155 0.0
C732 C 0.53247 0.02748 0.52042 0.0
H733 H 0.62145 1.00401 0.49621 0.0
C734 C 0.477 0.02229 0.53867 0.0
C735 C 0.58538 0.02078 0.5051 0.0
C736 C 0.64772 0.02582 0.48648 0.0
C737 C 0.47238 1.01062 0.54144 0.0
C738 C 0.52531 1.00392 0.52613 0.0
C739 C 0.58078 1.00911 0.50788 0.0
C740 C 0.52432 0.99152 0.52903 0.0
C741 C 0.40998 1.00558 0.56001 0.0
C742 C 0.5204 0.98629 0.5622 0.0
C743 C 0.51904 0.97467 0.56492 0.0
C744 C 0.52207 0.96793 0.53451 0.0
C745 C 0.52701 0.9732 0.50126 0.0
C746 C 0.52842 0.98484 0.49858 0.0
H747 H 0.36728 1.0115 0.56139 0.0
H748 H 0.39523 0.9979 0.54648 0.0
H749 H 0.41976 1.00338 0.58744 0.0
H750 H 0.51851 0.99121 0.58611 0.0
H751 H 0.51447 0.97098 0.59101 0.0
H752 H 0.11149 0.30575 1.00178 0.0
H753 H 0.15027 0.28648 0.9974 0.0
H754 H 0.31343 0.29452 0.05963 0.0
H755 H 0.27505 0.31381 0.06412 0.0
H756 H 0.26897 0.27741 0.96966 0.0
H757 H 0.23149 0.2679 0.11276 0.0
H758 H 0.19771 0.28022 0.09384 0.0
H759 H 0.28443 0.2797 0.10252 0.0
C760 C 0.156 0.30347 0.01432 0.0
C761 C 0.18985 0.3114 0.03346 0.0
C762 C 0.17794 0.2924 0.01194 0.0
C763 C 0.23412 0.28893 0.02874 0.0
C764 C 0.2689 0.29687 0.04722 0.0
H765 H 0.44553 0.22591 0.04426 0.0
H766 H 0.40679 0.24518 0.04863 0.0
C767 C 0.2469 0.30794 0.04971 0.0
C768 C 0.25666 0.27707 0.02646 0.0
H769 H 0.28812 0.25426 0.07635 0.0
C770 C 0.27283 0.27234 0.99301 0.0
C771 C 0.26188 0.2704 0.05687 0.0
C772 C 0.24239 0.27476 0.09353 0.0
C773 C 0.29521 0.26126 0.98915 0.0
C774 C 0.30044 0.2546 0.01956 0.0
C775 C 0.28426 0.25933 0.05301 0.0
C776 C 0.32296 0.24274 0.01728 0.0
C777 C 0.31471 0.25691 0.95249 0.0
C778 C 0.28817 0.2348 0.99879 0.0
C779 C 0.31016 0.22373 0.99631 0.0
C780 C 0.36719 0.22026 0.01256 0.0
C781 C 0.40104 0.22819 0.03171 0.0
C782 C 0.37912 0.23926 0.03409 0.0
H783 H 0.32563 0.26377 0.93326 0.0
H784 H 0.35938 0.25144 0.95217 0.0
H785 H 0.27266 0.25197 0.94349 0.0
H786 H 0.24366 0.23716 0.98637 0.0
H787 H 0.28201 0.21786 0.98189 0.0
H788 H 0.61421 0.80596 1.00031 0.0
H789 H 0.65325 0.78671 0.9958 0.0
H790 H 0.81096 0.7944 0.06203 0.0
H791 H 0.77229 0.81368 0.06667 0.0
H792 H 0.77349 0.77773 0.97006 0.0
H793 H 0.72552 0.76756 0.11229 0.0
H794 H 0.69329 0.77998 0.09321 0.0
H795 H 0.77901 0.77939 0.10368 0.0
C796 C 0.65759 0.80361 0.01371 0.0
C797 C 0.6898 0.81144 0.03401 0.0
C798 C 0.67967 0.79255 0.01125 0.0
C799 C 0.73435 0.78899 0.02911 0.0
C800 C 0.76755 0.79682 0.04876 0.0
H801 H 0.94374 0.72582 0.04602 0.0
H802 H 0.90484 0.74508 0.05054 0.0
C803 C 0.74539 0.80788 0.05133 0.0
C804 C 0.757 0.77713 0.02672 0.0
H805 H 0.78463 0.75407 0.07631 0.0
C806 C 0.77561 0.77255 0.9933 0.0
C807 C 0.75995 0.77032 0.057 0.0
C808 C 0.73781 0.77451 0.09356 0.0
C809 C 0.79818 0.76149 0.98937 0.0
C810 C 0.80112 0.75468 0.01964 0.0
C811 C 0.78253 0.75926 0.05307 0.0
C812 C 0.8237 0.74282 0.01725 0.0
C813 C 0.82032 0.7573 0.95281 0.0
C814 C 0.79043 0.73499 0.99761 0.0
C815 C 0.8125 0.72392 0.99504 0.0
C816 C 0.86809 0.72035 0.01234 0.0
C817 C 0.90037 0.72818 0.03263 0.0
C818 C 0.87837 0.73924 0.0351 0.0
H819 H 0.83264 0.76425 0.93408 0.0
H820 H 0.86482 0.75182 0.95316 0.0
H821 H 0.77911 0.75242 0.94267 0.0
H822 H 0.74703 0.73742 0.98435 0.0
H823 H 0.78554 0.71813 0.97971 0.0
H824 H 0.12732 0.72656 0.58262 0.0
H825 H 0.16666 0.74575 0.5764 0.0
H826 H 0.29478 0.73663 0.48405 0.0
H827 H 0.25608 0.71736 0.4902 0.0
H828 H 0.29353 0.7546 0.57714 0.0
H829 H 0.1939 0.7631 0.44817 0.0
H830 H 0.16909 0.75108 0.47462 0.0
H831 H 0.24777 0.75118 0.44803 0.0
C832 C 0.16434 0.72857 0.56111 0.0
C833 C 0.18833 0.72032 0.5369 0.0
C834 C 0.18653 0.7396 0.55748 0.0
C835 C 0.23297 0.74273 0.52943 0.0
C836 C 0.25773 0.73452 0.50544 0.0
H837 H 0.43059 0.80493 0.46436 0.0
H838 H 0.39117 0.78575 0.47056 0.0
C839 C 0.23552 0.72347 0.50903 0.0
C840 C 0.25611 0.75454 0.52576 0.0
H841 H 0.26423 0.77691 0.46979 0.0
C842 C 0.28683 0.75948 0.55371 0.0
C843 C 0.24753 0.76097 0.49521 0.0
C844 C 0.21224 0.75637 0.4649 0.0
C845 C 0.31023 0.77054 0.55172 0.0
C846 C 0.30165 0.77696 0.52117 0.0
C847 C 0.27093 0.77202 0.49321 0.0
C848 C 0.3248 0.78877 0.5175 0.0
C849 C 0.34551 0.77513 0.58203 0.0
C850 C 0.30003 0.79698 0.54148 0.0
C851 C 0.32228 0.80803 0.5379 0.0
C852 C 0.36953 0.81118 0.51006 0.0
C853 C 0.39353 0.80293 0.48585 0.0
C854 C 0.37129 0.7919 0.48946 0.0
H855 H 0.36383 0.76841 0.59877 0.0
H856 H 0.38867 0.78042 0.57231 0.0
H857 H 0.30999 0.78033 0.59889 0.0
H858 H 0.26295 0.79488 0.56286 0.0
H859 H 0.30171 0.81414 0.55673 0.0
H860 H 0.83215 0.31236 0.5677 0.0
H861 H 0.79539 0.29297 0.5725 0.0
H862 H 0.85589 0.28804 0.46206 0.0
H863 H 0.89506 0.30725 0.45728 0.0
H864 H 0.7002 0.28164 0.53842 0.0
H865 H 0.94906 0.26232 0.50644 0.0
H866 H 0.93911 0.27689 0.51696 0.0
H867 H 0.9257 0.27193 0.4735 0.0
C868 C 0.83843 0.30714 0.54447 0.0
C869 C 0.86706 0.31145 0.51212 0.0
C870 C 0.81691 0.29604 0.54722 0.0
C871 C 0.82383 0.28893 0.51781 0.0
C872 C 0.85122 0.29325 0.48536 0.0
H873 H 0.72341 0.21947 0.48009 0.0
H874 H 0.76014 0.23887 0.47525 0.0
C875 C 0.87279 0.30433 0.48257 0.0
C876 C 0.80142 0.27707 0.52093 0.0
H877 H 0.85522 0.25021 0.50928 0.0
C878 C 0.73423 0.27478 0.53222 0.0
C879 C 0.84561 0.26806 0.51278 0.0
C880 C 0.91903 0.26988 0.50206 0.0
C881 C 0.70981 0.26379 0.53492 0.0
C882 C 0.754 0.25478 0.52677 0.0
C883 C 0.82119 0.25708 0.51548 0.0
C884 C 0.7316 0.24292 0.52992 0.0
C885 C 0.63638 0.26197 0.54563 0.0
C886 C 0.70416 0.23861 0.56237 0.0
C887 C 0.6826 0.22753 0.56518 0.0
C888 C 0.68839 0.2204 0.53566 0.0
C889 C 0.71707 0.2247 0.50331 0.0
C890 C 0.73858 0.2358 0.50053 0.0
H891 H 0.60636 0.26953 0.54121 0.0
H892 H 0.61632 0.25496 0.53075 0.0
H893 H 0.62968 0.25994 0.57419 0.0
H894 H 0.69944 0.24382 0.58566 0.0
H895 H 0.66029 0.22461 0.59047 0.0
H896 H 0.15718 0.40351 0.13147 0.0
H897 H 0.14255 0.40191 0.1958 0.0
H898 H 0.96666 0.38172 0.18772 0.0
H899 H 0.98284 0.38296 0.1231 0.0
H900 H 0.04609 0.4093 0.23952 0.0
H901 H 0.05726 0.36372 0.25786 0.0
H902 H 0.08051 0.37029 0.21591 0.0
H903 H 0.99375 0.36775 0.22996 0.0
C904 C 0.11588 0.3986 0.1434 0.0
C905 C 0.07122 0.39335 0.12222 0.0
C906 C 0.10745 0.39771 0.18025 0.0
C907 C 0.0539 0.39159 0.19694 0.0
C908 C 1.0094 0.38626 0.17572 0.0
H909 H 0.90378 0.40419 0.41573 0.0
H910 H 0.92027 0.40278 0.35139 0.0
C911 C 1.01837 0.38704 0.13872 0.0
C912 C 0.04285 0.39143 0.23643 0.0
H913 H 1.01846 0.37436 0.30857 0.0
C914 C 0.04039 0.40163 0.25453 0.0
C915 C 0.03628 0.38146 0.25637 0.0
C916 C 0.04277 0.37018 0.23907 0.0
C917 C 0.03094 0.40216 0.29159 0.0
C918 C 1.02136 0.39222 0.31145 0.0
C919 C 1.02483 0.382 0.29348 0.0
C920 C 1.00825 0.39233 0.35081 0.0
C921 C 0.03302 0.41341 0.30905 0.0
C922 C 0.04993 0.38645 0.37228 0.0
C923 C 0.03977 0.38709 0.40926 0.0
C924 C 0.98785 0.39366 0.42548 0.0
C925 C 0.94478 0.39919 0.40402 0.0
C926 C 0.95449 0.39845 0.36716 0.0
H927 H 0.06097 0.41957 0.29165 0.0
H928 H 0.98117 0.41655 0.31466 0.0
H929 H 0.05681 0.41293 0.33431 0.0
H930 H 0.09142 0.38158 0.36042 0.0
H931 H 0.07358 0.38269 0.42511 0.0
H932 H 0.92093 0.63777 0.13183 0.0
H933 H 0.92787 0.63561 0.19599 0.0
H934 H 0.10577 0.65591 0.18918 0.0
H935 H 0.09821 0.65828 0.12595 0.0
H936 H 1.02841 0.62775 0.23881 0.0
H937 H 0.97967 0.67265 0.2604 0.0
H938 H 0.96674 0.66584 0.2193 0.0
H939 H 0.04949 0.67005 0.2287 0.0
C940 C 0.96159 0.6417 0.14412 0.0
C941 C 1.00833 0.64835 0.12401 0.0
C942 C 0.96565 0.64045 0.18071 0.0
C943 C 1.01659 0.6458 0.1976 0.0
C944 C 0.06511 0.65193 0.17702 0.0
H945 H 0.13871 0.63882 0.41339 0.0
H946 H 0.12868 0.63653 0.34968 0.0
C947 C 0.06075 0.65326 0.1408 0.0
C948 C 1.01801 0.64555 0.23679 0.0
H949 H 1.0184 0.66264 0.30846 0.0
C950 C 1.02571 0.63536 0.25415 0.0
C951 C 1.01373 0.65545 0.25695 0.0
C952 C 1.00128 0.66661 0.24048 0.0
C953 C 0.03066 0.63487 0.29096 0.0
C954 C 1.02907 0.64484 0.31084 0.0
C955 C 1.02029 0.65498 0.29339 0.0
C956 C 0.03362 0.64513 0.34992 0.0
C957 C 0.0363 0.62366 0.30822 0.0
C958 C 0.98414 0.65076 0.37142 0.0
C959 C 0.9906 0.65226 0.40739 0.0
C960 C 0.04644 0.64809 0.42304 0.0
C961 C 0.09502 0.64208 0.40203 0.0
C962 C 0.08899 0.6407 0.36566 0.0
H963 H 1.018 0.61689 0.29167 0.0
H964 H 0.08966 0.62197 0.3119 0.0
H965 H 1.00754 0.62343 0.33452 0.0
H966 H 0.94086 0.65423 0.36018 0.0
H967 H 0.952 0.65685 0.42293 0.0
H968 H 0.05107 0.65313 0.92568 0.0
H969 H 0.06534 0.6555 0.86124 0.0
H970 H 0.94416 0.62637 0.8487 0.0
H971 H 0.92824 0.6242 0.91275 0.0
H972 H 0.12309 0.64244 0.81125 0.0
H973 H 0.85823 0.64747 0.7851 0.0
H974 H 0.88524 0.64809 0.82911 0.0
H975 H 0.8704 0.63487 0.8089 0.0
C976 C 1.02694 0.64732 0.90911 0.0
C977 C 0.98834 0.6385 0.92428 0.0
C978 C 0.03517 0.64866 0.87228 0.0
C979 C 1.00484 0.64124 0.8499 0.0
C980 C 0.96652 0.63241 0.86519 0.0
H981 H 0.12903 0.62416 0.63388 0.0
H982 H 0.11316 0.62635 0.69791 0.0
C983 C 0.95789 0.63112 0.90191 0.0
C984 C 1.01579 0.64232 0.81062 0.0
H985 H 0.93421 0.64242 0.73521 0.0
C986 C 0.0817 0.64257 0.79469 0.0
C987 C 0.96204 0.64272 0.78874 0.0
C988 C 0.89006 0.6434 0.80388 0.0
C989 C 0.09527 0.64272 0.75772 0.0
C990 C 0.04152 0.6423 0.73584 0.0
C991 C 0.97561 0.64255 0.75177 0.0
C992 C 0.05246 0.64121 0.69658 0.0
C993 C 0.16724 0.6434 0.74257 0.0
C994 C 1.02211 0.64862 0.67413 0.0
C995 C 0.03031 0.64726 0.63731 0.0
C996 C 0.06891 0.63845 0.62222 0.0
C997 C 0.09939 0.63108 0.64466 0.0
C998 C 0.09078 0.63238 0.68136 0.0
H999 H 0.19908 0.64748 0.7613 0.0
H1000 H 0.18689 0.63487 0.73763 0.0
H1001 H 0.17208 0.64807 0.71729 0.0
H1002 H 0.99194 0.65545 0.68511 0.0
H1003 H 1.00616 0.65306 0.62069 0.0
H1004 H 0.94198 0.3985 0.62804 0.0
H1005 H 0.95372 0.40227 0.69098 0.0
H1006 H 0.07889 0.37326 0.69599 0.0
H1007 H 0.06877 0.36967 0.63372 0.0
H1008 H 0.91813 0.39035 0.74932 0.0
H1009 H 0.19197 0.39565 0.74102 0.0
H1010 H 0.14592 0.39554 0.70228 0.0
H1011 H 0.17112 0.38268 0.72161 0.0
C1012 C 0.97225 0.39299 0.64265 0.0
C1013 C 1.00459 0.38381 0.62588 0.0
C1014 C 0.97905 0.39515 0.67858 0.0
C1015 C 1.01862 0.3882 0.69823 0.0
C1016 C 0.04993 0.37897 0.68139 0.0
H1017 H 0.98796 0.36968 0.91413 0.0
H1018 H 0.978 0.37329 0.85183 0.0
C1019 C 0.04348 0.37686 0.64572 0.0
C1020 C 1.02492 0.3901 0.7367 0.0
H1021 H 0.1395 0.39023 0.79841 0.0
C1022 C 0.9666 0.39052 0.75996 0.0
C1023 C 0.088 0.39061 0.7509 0.0
C1024 C 0.1527 0.39122 0.72756 0.0
C1025 C 0.96965 0.39067 0.79684 0.0
C1026 C 0.03271 0.39009 0.81104 0.0
C1027 C 0.09104 0.39045 0.78777 0.0
C1028 C 0.03892 0.38818 0.84952 0.0
C1029 C 0.90497 0.39135 0.82017 0.0
C1030 C 0.07878 0.39507 0.86914 0.0
C1031 C 0.08548 0.3929 0.90507 0.0
C1032 C 0.05274 0.38375 0.92189 0.0
C1033 C 1.01355 0.37684 0.90209 0.0
C1034 C 1.0072 0.37897 0.86641 0.0
H1035 H 0.8659 0.39582 0.80668 0.0
H1036 H 0.88619 0.38282 0.82617 0.0
H1037 H 0.91195 0.39565 0.84543 0.0
H1038 H 0.10442 0.40217 0.8567 0.0
H1039 H 0.11599 0.39837 0.91966 0.0
H1040 H 0.62896 0.90761 0.13423 0.0
H1041 H 0.61318 0.9054 0.19828 0.0
H1042 H 0.49255 0.87622 0.18564 0.0
H1043 H 0.5067 0.87861 0.12121 0.0
H1044 H 0.43454 0.88926 0.23563 0.0
H1045 H 0.69947 0.88429 0.26177 0.0
H1046 H 0.68711 0.89689 0.23801 0.0
H1047 H 0.67245 0.88367 0.21776 0.0
C1048 C 0.59947 0.90066 0.14505 0.0
C1049 C 0.56912 0.89328 0.12266 0.0
C1050 C 0.59092 0.89935 0.18176 0.0
C1051 C 0.55278 0.8905 0.19702 0.0
C1052 C 0.52258 0.88307 0.17462 0.0
H1053 H 0.55136 0.8785 0.4261 0.0
H1054 H 0.56557 0.87616 0.36167 0.0
C1055 C 0.53074 0.88443 0.1378 0.0
C1056 C 0.54184 0.8894 0.23628 0.0
H1057 H 0.62339 0.88927 0.3117 0.0
C1058 C 0.47593 0.88913 0.25221 0.0
C1059 C 0.59559 0.889 0.25816 0.0
C1060 C 0.66757 0.88835 0.24302 0.0
C1061 C 0.46235 0.88895 0.28917 0.0
C1062 C 0.51609 0.88936 0.31105 0.0
C1063 C 0.58201 0.88914 0.29512 0.0
C1064 C 0.50513 0.89043 0.35031 0.0
C1065 C 0.39037 0.88826 0.30431 0.0
C1066 C 0.46684 0.89925 0.36558 0.0
C1067 C 0.45825 0.90052 0.40229 0.0
C1068 C 0.48869 0.89313 0.42468 0.0
C1069 C 0.52723 0.88432 0.40952 0.0
C1070 C 0.53543 0.88299 0.3727 0.0
H1071 H 0.35854 0.88419 0.28554 0.0
H1072 H 0.38556 0.88355 0.32955 0.0
H1073 H 0.3707 0.89678 0.30934 0.0
H1074 H 0.44449 0.9053 0.34908 0.0
H1075 H 0.42864 0.90744 0.41312 0.0
H1076 H 0.56762 0.16251 0.13281 0.0
H1077 H 0.5776 0.15898 0.19517 0.0
H1078 H 0.45473 0.12969 0.1902 0.0
H1079 H 0.4432 0.13338 0.12717 0.0
H1080 H 0.41783 0.14166 0.24844 0.0
H1081 H 0.69201 0.1368 0.24054 0.0
H1082 H 0.67029 0.14971 0.22095 0.0
H1083 H 0.64608 0.13678 0.20175 0.0
C1084 C 0.54282 0.15527 0.14484 0.0
C1085 C 0.50464 0.14822 0.12498 0.0
C1086 C 0.54918 0.1532 0.18056 0.0
C1087 C 0.51845 0.14391 0.19744 0.0
C1088 C 0.4796 0.13686 0.17777 0.0
H1089 H 0.61457 0.13357 0.41906 0.0
H1090 H 0.60331 0.12987 0.35603 0.0
C1091 C 0.47292 0.13897 0.14179 0.0
C1092 C 0.52464 0.14205 0.23596 0.0
H1093 H 0.63888 0.14204 0.29786 0.0
C1094 C 0.46624 0.14155 0.25915 0.0
C1095 C 0.58765 0.14162 0.25025 0.0
C1096 C 0.65248 0.14112 0.22699 0.0
C1097 C 0.46911 0.14139 0.29605 0.0
C1098 C 0.53206 0.14203 0.31035 0.0
C1099 C 0.59051 0.14176 0.28715 0.0
C1100 C 0.53802 0.14388 0.34887 0.0
C1101 C 0.40438 0.14065 0.31932 0.0
C1102 C 0.50627 0.15307 0.3658 0.0
C1103 C 0.51251 0.15515 0.40152 0.0
C1104 C 0.55154 0.14821 0.42133 0.0
C1105 C 0.58419 0.13906 0.40448 0.0
C1106 C 0.57767 0.13694 0.3685 0.0
H1107 H 0.36537 0.1362 0.30573 0.0
H1108 H 0.41134 0.13629 0.34451 0.0
H1109 H 0.38553 0.14916 0.32546 0.0
H1110 H 0.47717 0.15877 0.35123 0.0
H1111 H 0.48696 0.1623 0.41358 0.0
H1112 H 0.43024 0.12374 0.91331 0.0
H1113 H 0.44739 0.12568 0.84919 0.0
H1114 H 0.565 0.15524 0.86144 0.0
H1115 H 0.54962 0.15309 0.92594 0.0
H1116 H 0.41425 0.14125 0.80443 0.0
H1117 H 0.69112 0.13776 0.79491 0.0
H1118 H 0.63983 0.13489 0.83522 0.0
H1119 H 0.65881 0.14901 0.82226 0.0
C1120 C 0.45991 0.13065 0.90239 0.0
C1121 C 0.4892 0.1382 0.92472 0.0
C1122 C 0.46958 0.13177 0.86563 0.0
C1123 C 0.50858 0.14049 0.85018 0.0
C1124 C 0.53623 0.14826 0.87251 0.0
H1125 H 0.50577 0.15303 0.62037 0.0
H1126 H 0.49036 0.15517 0.68485 0.0
C1127 C 0.52702 0.14708 0.90941 0.0
C1128 C 0.51989 0.1413 0.81079 0.0
H1129 H 0.64175 0.14143 0.74193 0.0
C1130 C 0.46406 0.14133 0.79079 0.0
C1131 C 0.58483 0.14128 0.79278 0.0
C1132 C 0.64711 0.14063 0.81231 0.0
C1133 C 0.47118 0.14118 0.75359 0.0
C1134 C 0.53612 0.1413 0.73557 0.0
C1135 C 0.59195 0.14143 0.75557 0.0
C1136 C 0.54746 0.1405 0.69619 0.0
C1137 C 0.40894 0.14042 0.73405 0.0
C1138 C 0.58683 0.13183 0.68079 0.0
C1139 C 0.59649 0.13071 0.64404 0.0
C1140 C 0.56683 0.13821 0.62167 0.0
C1141 C 0.52866 0.14705 0.63693 0.0
C1142 C 0.51944 0.14822 0.67382 0.0
H1143 H 0.36508 0.13749 0.75148 0.0
H1144 H 0.39681 0.14878 0.72402 0.0
H1145 H 0.41653 0.13468 0.7112 0.0
H1146 H 0.6093 0.12577 0.69726 0.0
H1147 H 0.62644 0.12384 0.63315 0.0
H1148 H 0.42005 0.89311 0.63302 0.0
H1149 H 0.42967 0.8955 0.69675 0.0
H1150 H 0.61513 0.87713 0.68732 0.0
H1151 H 0.60449 0.87444 0.62456 0.0
H1152 H 0.53472 0.86908 0.73906 0.0
H1153 H 0.54364 0.91486 0.75444 0.0
H1154 H 0.47169 0.91004 0.73388 0.0
H1155 H 0.55395 0.90816 0.71183 0.0
C1156 C 0.46314 0.88972 0.64462 0.0
C1157 C 0.51119 0.88351 0.62391 0.0
C1158 C 0.46894 0.89115 0.68099 0.0
C1159 C 0.52351 0.88657 0.69702 0.0
C1160 C 0.57248 0.88072 0.67583 0.0
H1161 H 0.63784 0.89372 0.91469 0.0
H1162 H 0.63073 0.89585 0.85053 0.0
C1163 C 0.56629 0.87919 0.63986 0.0
C1164 C 0.52767 0.88691 0.7361 0.0
H1165 H 0.53162 0.90416 0.80757 0.0
C1166 C 0.5343 0.87678 0.75389 0.0
C1167 C 0.52799 0.89694 0.75565 0.0
C1168 C 0.5246 0.90813 0.73798 0.0
C1169 C 0.54063 0.87635 0.79036 0.0
C1170 C 0.53839 0.88633 0.81018 0.0
C1171 C 0.53277 0.89651 0.79248 0.0
C1172 C 0.53991 0.88616 0.84936 0.0
C1173 C 0.55071 0.86518 0.80721 0.0
C1174 C 0.49029 0.88034 0.87018 0.0
C1175 C 0.49475 0.87903 0.9064 0.0
C1176 C 0.54837 0.88364 0.92293 0.0
C1177 C 0.59623 0.89002 0.90259 0.0
C1178 C 0.59208 0.89125 0.866 0.0
H1179 H 0.57096 0.85896 0.7875 0.0
H1180 H 0.58543 0.86579 0.82835 0.0
H1181 H 0.50181 0.86204 0.81912 0.0
H1182 H 0.44872 0.87657 0.85822 0.0
H1183 H 0.45645 0.87422 0.92144 0.0
loop_
_geom_bond_atom_site_label_1
_geom_bond_atom_site_label_2
_geom_bond_distance
_geom_bond_site_symmetry_2
_ccdc_geom_bond_type
Ho0 C3 2.811 . S
Ho0 O20 2.322 1_455 S
Ho0 O22 2.378 . S
Ho0 O23 2.524 1_554 S
Ho0 O24 2.381 . S
Ho0 O25 2.669 . S
Ho0 O27 2.346 . S
Ho0 O31 2.305 1_554 S
Ho1 C12 2.811 . S
Ho1 O21 2.346 1_455 S
Ho1 O25 2.305 . S
Ho1 O26 2.322 . S
Ho1 O28 2.378 1_554 S
Ho1 O29 2.524 . S
Ho1 O30 2.381 1_554 S
Ho1 O31 2.669 1_554 S
C2 O20 1.259 . S
C2 O21 1.268 . S
C3 Ho0 2.811 . S
C3 C4 1.488 1_455 S
C3 O22 1.215 . S
C3 O23 1.289 1_554 S
C4 C3 1.488 1_655 S
C4 C5 1.348 1_554 S
C4 C9 1.413 . S
C5 C4 1.348 1_556 S
C5 C6 1.442 . S
C5 H32 0.930 . S
C6 C5 1.442 . S
C6 C7 1.381 1_556 S
C6 H33 0.931 . S
C7 C6 1.381 1_554 S
C7 C8 1.321 . S
C8 C7 1.321 . S
C8 C9 1.403 . S
C8 H34 0.934 . S
C9 C4 1.413 . S
C9 C8 1.403 . S
C9 H35 0.930 . S
C10 O24 1.275 . S
C10 O25 1.256 . S
C11 O26 1.259 . S
C11 O27 1.268 . S
C12 Ho1 2.811 . S
C12 C13 1.488 . S
C12 O28 1.215 1_554 S
C12 O29 1.289 . S
C13 C12 1.488 . S
C13 C14 1.348 . S
C13 C18 1.413 1_554 S
C14 C13 1.348 . S
C14 C15 1.442 . S
C14 H36 0.930 . S
C15 C14 1.442 . S
C15 C16 1.381 . S
C15 H37 0.931 . S
C16 C15 1.381 . S
C16 C17 1.321 1_554 S
C17 C16 1.321 1_556 S
C17 C18 1.403 . S
C17 H38 0.934 . S
C18 C13 1.413 1_556 S
C18 C17 1.403 . S
C18 H39 0.930 . S
C19 O30 1.275 . S
C19 O31 1.256 . S
O20 Ho0 2.322 1_655 S
O20 C2 1.259 . S
O21 Ho1 2.346 1_655 S
O21 C2 1.268 . S
O22 Ho0 2.378 . S
O22 C3 1.215 . S
O23 Ho0 2.524 1_556 S
O23 C3 1.289 1_556 S
O24 Ho0 2.381 . S
O24 C10 1.275 . S
O25 Ho0 2.669 . S
O25 Ho1 2.305 . S
O25 C10 1.256 . S
O26 Ho1 2.322 . S
O26 C11 1.259 . S
O27 Ho0 2.346 . S
O27 C11 1.268 . S
O28 Ho1 2.378 1_556 S
O28 C12 1.215 1_556 S
O29 Ho1 2.524 . S
O29 C12 1.289 . S
O30 Ho1 2.381 1_556 S
O30 C19 1.275 . S
O31 Ho0 2.305 1_556 S
O31 Ho1 2.669 1_556 S
O31 C19 1.256 . S
H32 C5 0.930 . S
H33 C6 0.931 . S
H34 C8 0.934 . S
H35 C9 0.930 . S
H36 C14 0.930 . S
H37 C15 0.931 . S
H38 C17 0.934 . S
H39 C18 0.930 . S
Ho40 C43 2.811 . S
Ho40 O60 2.322 . S
Ho40 O62 2.378 . S
Ho40 O63 2.524 1_554 S
Ho40 O64 2.381 . S
Ho40 O65 2.669 . S
Ho40 O67 2.346 1_655 S
Ho40 O71 2.305 1_554 S
Ho41 C52 2.811 . S
Ho41 O61 2.346 . S
Ho41 O65 2.305 . S
Ho41 O66 2.322 1_655 S
Ho41 O68 2.378 1_554 S
Ho41 O69 2.524 . S
Ho41 O70 2.381 1_554 S
Ho41 O71 2.669 1_554 S
C42 O60 1.259 . S
C42 O61 1.268 . S
C43 Ho40 2.811 . S
C43 C44 1.488 . S
C43 O62 1.215 . S
C43 O63 1.289 1_554 S
C44 C43 1.488 . S
C44 C45 1.348 1_554 S
C44 C49 1.413 . S
C45 C44 1.348 1_556 S
C45 C46 1.442 . S
C45 H72 0.930 . S
C46 C45 1.442 . S
C46 C47 1.381 1_556 S
C46 H73 0.931 . S
C47 C46 1.381 1_554 S
C47 C48 1.321 . S
C48 C47 1.321 . S
C48 C49 1.403 . S
C48 H74 0.934 . S
C49 C44 1.413 . S
C49 C48 1.403 . S
C49 H75 0.930 . S
C50 O64 1.275 . S
C50 O65 1.256 . S
C51 O66 1.259 . S
C51 O67 1.268 . S
C52 Ho41 2.811 . S
C52 C53 1.488 1_655 S
C52 O68 1.215 1_554 S
C52 O69 1.289 . S
C53 C52 1.488 1_455 S
C53 C54 1.348 . S
C53 C58 1.413 1_554 S
C54 C53 1.348 . S
C54 C55 1.442 . S
C54 H76 0.930 . S
C55 C54 1.442 . S
C55 C56 1.381 . S
C55 H77 0.931 . S
C56 C55 1.381 . S
C56 C57 1.335 . S
C57 C56 1.335 . S
C57 C58 1.401 1_554 S
C57 H78 0.923 1_554 S
C58 C53 1.413 1_556 S
C58 C57 1.401 1_556 S
C58 H79 0.930 . S
C59 O70 1.275 . S
C59 O71 1.256 . S
O60 Ho40 2.322 . S
O60 C42 1.259 . S
O61 Ho41 2.346 . S
O61 C42 1.268 . S
O62 Ho40 2.378 . S
O62 C43 1.215 . S
O63 Ho40 2.524 1_556 S
O63 C43 1.289 1_556 S
O64 Ho40 2.381 . S
O64 C50 1.275 . S
O65 Ho40 2.669 . S
O65 Ho41 2.305 . S
O65 C50 1.256 . S
O66 Ho41 2.322 1_455 S
O66 C51 1.259 . S
O67 Ho40 2.346 1_455 S
O67 C51 1.268 . S
O68 Ho41 2.378 1_556 S
O68 C52 1.215 1_556 S
O69 Ho41 2.524 . S
O69 C52 1.289 . S
O70 Ho41 2.381 1_556 S
O70 C59 1.275 . S
O71 Ho40 2.305 1_556 S
O71 Ho41 2.669 1_556 S
O71 C59 1.256 . S
H72 C45 0.930 . S
H73 C46 0.931 . S
H74 C48 0.934 . S
H75 C49 0.930 . S
H76 C54 0.930 . S
H77 C55 0.931 . S
H78 C57 0.923 1_556 S
H79 C58 0.930 . S
Ho80 C83 2.811 . S
Ho80 O100 2.322 . S
Ho80 O102 2.378 . S
Ho80 O103 2.524 . S
Ho80 O104 2.381 . S
Ho80 O105 2.669 . S
Ho80 O107 2.346 1_455 S
Ho80 O111 2.305 . S
Ho81 C92 2.811 . S
Ho81 O101 2.346 . S
Ho81 O105 2.305 . S
Ho81 O106 2.322 1_455 S
Ho81 O108 2.378 . S
Ho81 O109 2.524 . S
Ho81 O110 2.381 . S
Ho81 O111 2.669 . S
C82 O100 1.259 . S
C82 O101 1.268 . S
C83 Ho80 2.811 . S
C83 C84 1.488 . S
C83 O102 1.215 . S
C83 O103 1.289 . S
C84 C83 1.488 . S
C84 C85 1.348 . S
C84 C89 1.413 . S
C85 C84 1.348 . S
C85 C86 1.442 . S
C85 H112 0.930 . S
C86 C85 1.442 . S
C86 C87 1.381 . S
C86 H113 0.931 . S
C87 C86 1.381 . S
C87 C88 1.321 . S
C88 C87 1.321 . S
C88 C89 1.403 . S
C88 H114 0.934 . S
C89 C84 1.413 . S
C89 C88 1.403 . S
C89 H115 0.930 . S
C90 O104 1.275 . S
C90 O105 1.256 . S
C91 O106 1.259 . S
C91 O107 1.268 . S
C92 Ho81 2.811 . S
C92 C93 1.488 1_455 S
C92 O108 1.215 . S
C92 O109 1.289 . S
C93 C92 1.488 1_655 S
C93 C94 1.348 . S
C93 C98 1.413 . S
C94 C93 1.348 . S
C94 C95 1.442 . S
C94 H116 0.930 . S
C95 C94 1.442 . S
C95 C96 1.381 . S
C95 H117 0.931 . S
C96 C95 1.381 . S
C96 C97 1.321 . S
C97 C96 1.321 . S
C97 C98 1.403 . S
C97 H118 0.934 . S
C98 C93 1.413 . S
C98 C97 1.403 . S
C98 H119 0.930 . S
C99 O110 1.275 . S
C99 O111 1.256 . S
O100 Ho80 2.322 . S
O100 C82 1.259 . S
O101 Ho81 2.346 . S
O101 C82 1.268 . S
O102 Ho80 2.378 . S
O102 C83 1.215 . S
O103 Ho80 2.524 . S
O103 C83 1.289 . S
O104 Ho80 2.381 . S
O104 C90 1.275 . S
O105 Ho80 2.669 . S
O105 Ho81 2.305 . S
O105 C90 1.256 . S
O106 Ho81 2.322 1_655 S
O106 C91 1.259 . S
O107 Ho80 2.346 1_655 S
O107 C91 1.268 . S
O108 Ho81 2.378 . S
O108 C92 1.215 . S
O109 Ho81 2.524 . S
O109 C92 1.289 . S
O110 Ho81 2.381 . S
O110 C99 1.275 . S
O111 Ho80 2.305 . S
O111 Ho81 2.669 . S
O111 C99 1.256 . S
H112 C85 0.930 . S
H113 C86 0.931 . S
H114 C88 0.934 . S
H115 C89 0.930 . S
H116 C94 0.930 . S
H117 C95 0.931 . S
H118 C97 0.934 . S
H119 C98 0.930 . S
Ho120 C123 2.811 . S
Ho120 O140 2.322 1_655 S
Ho120 O142 2.378 . S
Ho120 O143 2.524 . S
Ho120 O144 2.381 . S
Ho120 O145 2.669 . S
Ho120 O147 2.346 . S
Ho120 O151 2.305 . S
Ho121 C132 2.811 . S
Ho121 O141 2.346 1_655 S
Ho121 O145 2.305 . S
Ho121 O146 2.322 . S
Ho121 O148 2.378 . S
Ho121 O149 2.524 . S
Ho121 O150 2.381 . S
Ho121 O151 2.669 . S
C122 O140 1.259 . S
C122 O141 1.268 . S
C123 Ho120 2.811 . S
C123 C124 1.488 1_655 S
C123 O142 1.215 . S
C123 O143 1.289 . S
C124 C123 1.488 1_455 S
C124 C125 1.348 . S
C124 C129 1.413 . S
C125 C124 1.348 . S
C125 C126 1.442 . S
C125 H152 0.930 . S
C126 C125 1.442 . S
C126 C127 1.381 . S
C126 H153 0.931 . S
C127 C126 1.381 . S
C127 C128 1.321 . S
C128 C127 1.321 . S
C128 C129 1.403 . S
C128 H154 0.934 . S
C129 C124 1.413 . S
C129 C128 1.403 . S
C129 H155 0.930 . S
C130 O144 1.275 . S
C130 O145 1.256 . S
C131 O146 1.259 . S
C131 O147 1.268 . S
C132 Ho121 2.811 . S
C132 C133 1.488 . S
C132 O148 1.215 . S
C132 O149 1.289 . S
C133 C132 1.488 . S
C133 C134 1.348 . S
C133 C138 1.413 . S
C134 C133 1.348 . S
C134 C135 1.442 . S
C134 H156 0.930 . S
C135 C134 1.442 . S
C135 C136 1.381 . S
C135 H157 0.931 . S
C136 C135 1.381 . S
C136 C137 1.321 . S
C137 C136 1.321 . S
C137 C138 1.403 . S
C137 H158 0.934 . S
C138 C133 1.413 . S
C138 C137 1.403 . S
C138 H159 0.930 . S
C139 O150 1.275 . S
C139 O151 1.256 . S
O140 Ho120 2.322 1_455 S
O140 C122 1.259 . S
O141 Ho121 2.346 1_455 S
O141 C122 1.268 . S
O142 Ho120 2.378 . S
O142 C123 1.215 . S
O143 Ho120 2.524 . S
O143 C123 1.289 . S
O144 Ho120 2.381 . S
O144 C130 1.275 . S
O145 Ho120 2.669 . S
O145 Ho121 2.305 . S
O145 C130 1.256 . S
O146 Ho121 2.322 . S
O146 C131 1.259 . S
O147 Ho120 2.346 . S
O147 C131 1.268 . S
O148 Ho121 2.378 . S
O148 C132 1.215 . S
O149 Ho121 2.524 . S
O149 C132 1.289 . S
O150 Ho121 2.381 . S
O150 C139 1.275 . S
O151 Ho120 2.305 . S
O151 Ho121 2.669 . S
O151 C139 1.256 . S
H152 C125 0.930 . S
H153 C126 0.931 . S
H154 C128 0.934 . S
H155 C129 0.930 . S
H156 C134 0.930 . S
H157 C135 0.931 . S
H158 C137 0.934 . S
H159 C138 0.930 . S
Ho160 C163 2.811 . S
Ho160 O180 2.322 . S
Ho160 O182 2.378 . S
Ho160 O183 2.524 1_554 S
Ho160 O184 2.381 . S
Ho160 O185 2.669 . S
Ho160 O187 2.346 . S
Ho160 O191 2.305 1_554 S
Ho161 C172 2.811 . S
Ho161 O181 2.346 . S
Ho161 O185 2.305 . S
Ho161 O186 2.322 . S
Ho161 O188 2.378 1_554 S
Ho161 O189 2.524 . S
Ho161 O190 2.381 1_554 S
Ho161 O191 2.669 1_554 S
C162 O180 1.259 . S
C162 O181 1.268 . S
C163 Ho160 2.811 . S
C163 C164 1.488 . S
C163 O182 1.215 . S
C163 O183 1.289 1_554 S
C164 C163 1.488 . S
C164 C165 1.348 1_554 S
C164 C169 1.413 . S
C165 C164 1.348 1_556 S
C165 C166 1.442 . S
C165 H192 0.930 . S
C166 C165 1.442 . S
C166 C167 1.381 1_556 S
C166 H193 0.931 . S
C167 C166 1.381 1_554 S
C167 C168 1.321 . S
C168 C167 1.321 . S
C168 C169 1.403 . S
C168 H194 0.934 . S
C169 C164 1.413 . S
C169 C168 1.403 . S
C169 H195 0.930 . S
C170 O184 1.275 . S
C170 O185 1.256 . S
C171 O186 1.259 . S
C171 O187 1.268 . S
C172 Ho161 2.811 . S
C172 C173 1.488 . S
C172 O188 1.215 1_554 S
C172 O189 1.289 . S
C173 C172 1.488 . S
C173 C174 1.348 . S
C173 C178 1.413 1_554 S
C174 C173 1.348 . S
C174 C175 1.442 . S
C174 H196 0.930 . S
C175 C174 1.442 . S
C175 C176 1.381 . S
C175 H197 0.931 . S
C176 C175 1.381 . S
C176 C177 1.321 1_554 S
C177 C176 1.321 1_556 S
C177 C178 1.403 . S
C177 H198 0.934 . S
C178 C173 1.413 1_556 S
C178 C177 1.403 . S
C178 H199 0.930 . S
C179 O190 1.275 . S
C179 O191 1.256 . S
O180 Ho160 2.322 . S
O180 C162 1.259 . S
O181 Ho161 2.346 . S
O181 C162 1.268 . S
O182 Ho160 2.378 . S
O182 C163 1.215 . S
O183 Ho160 2.524 1_556 S
O183 C163 1.289 1_556 S
O184 Ho160 2.381 . S
O184 C170 1.275 . S
O185 Ho160 2.669 . S
O185 Ho161 2.305 . S
O185 C170 1.256 . S
O186 Ho161 2.322 . S
O186 C171 1.259 . S
O187 Ho160 2.346 . S
O187 C171 1.268 . S
O188 Ho161 2.378 1_556 S
O188 C172 1.215 1_556 S
O189 Ho161 2.524 . S
O189 C172 1.289 . S
O190 Ho161 2.381 1_556 S
O190 C179 1.275 . S
O191 Ho160 2.305 1_556 S
O191 Ho161 2.669 1_556 S
O191 C179 1.256 . S
H192 C165 0.930 . S
H193 C166 0.931 . S
H194 C168 0.934 . S
H195 C169 0.930 . S
H196 C174 0.930 . S
H197 C175 0.931 . S
H198 C177 0.934 . S
H199 C178 0.930 . S
Ho200 C203 2.811 . S
Ho200 O220 2.322 . S
Ho200 O222 2.378 . S
Ho200 O223 2.524 1_554 S
Ho200 O224 2.381 . S
Ho200 O225 2.669 . S
Ho200 O227 2.346 . S
Ho200 O231 2.305 1_554 S
Ho201 C212 2.811 . S
Ho201 O221 2.346 . S
Ho201 O225 2.305 . S
Ho201 O226 2.322 . S
Ho201 O228 2.378 1_554 S
Ho201 O229 2.524 . S
Ho201 O230 2.381 1_554 S
Ho201 O231 2.669 1_554 S
C202 O220 1.259 . S
C202 O221 1.268 . S
C203 Ho200 2.811 . S
C203 C204 1.488 . S
C203 O222 1.215 . S
C203 O223 1.289 1_554 S
C204 C203 1.488 . S
C204 C205 1.348 1_554 S
C204 C209 1.413 . S
C205 C204 1.348 1_556 S
C205 C206 1.442 . S
C205 H232 0.930 . S
C206 C205 1.442 . S
C206 C207 1.381 1_556 S
C206 H233 0.931 . S
C207 C206 1.381 1_554 S
C207 C208 1.321 . S
C208 C207 1.321 . S
C208 C209 1.403 . S
C208 H234 0.934 . S
C209 C204 1.413 . S
C209 C208 1.403 . S
C209 H235 0.930 . S
C210 O224 1.275 . S
C210 O225 1.256 . S
C211 O226 1.259 . S
C211 O227 1.268 . S
C212 Ho201 2.811 . S
C212 C213 1.488 . S
C212 O228 1.215 1_554 S
C212 O229 1.289 . S
C213 C212 1.488 . S
C213 C214 1.348 . S
C213 C218 1.413 1_554 S
C214 C213 1.348 . S
C214 C215 1.442 . S
C214 H236 0.930 . S
C215 C214 1.442 . S
C215 C216 1.381 . S
C215 H237 0.931 . S
C216 C215 1.381 . S
C216 C217 1.337 . S
C217 C216 1.337 . S
C217 C218 1.400 1_554 S
C217 H238 0.921 1_554 S
C218 C213 1.413 1_556 S
C218 C217 1.400 1_556 S
C218 H239 0.930 . S
C219 O230 1.275 . S
C219 O231 1.256 . S
O220 Ho200 2.322 . S
O220 C202 1.259 . S
O221 Ho201 2.346 . S
O221 C202 1.268 . S
O222 Ho200 2.378 . S
O222 C203 1.215 . S
O223 Ho200 2.524 1_556 S
O223 C203 1.289 1_556 S
O224 Ho200 2.381 . S
O224 C210 1.275 . S
O225 Ho200 2.669 . S
O225 Ho201 2.305 . S
O225 C210 1.256 . S
O226 Ho201 2.322 . S
O226 C211 1.259 . S
O227 Ho200 2.346 . S
O227 C211 1.268 . S
O228 Ho201 2.378 1_556 S
O228 C212 1.215 1_556 S
O229 Ho201 2.524 . S
O229 C212 1.289 . S
O230 Ho201 2.381 1_556 S
O230 C219 1.275 . S
O231 Ho200 2.305 1_556 S
O231 Ho201 2.669 1_556 S
O231 C219 1.256 . S
H232 C205 0.930 . S
H233 C206 0.931 . S
H234 C208 0.934 . S
H235 C209 0.930 . S
H236 C214 0.930 . S
H237 C215 0.931 . S
H238 C217 0.921 1_556 S
H239 C218 0.930 . S
Ho240 C243 2.811 . S
Ho240 O260 2.322 . S
Ho240 O262 2.378 . S
Ho240 O263 2.524 . S
Ho240 O264 2.381 . S
Ho240 O265 2.669 . S
Ho240 O267 2.346 . S
Ho240 O271 2.305 . S
Ho241 C252 2.811 . S
Ho241 O261 2.346 . S
Ho241 O265 2.305 . S
Ho241 O266 2.322 . S
Ho241 O268 2.378 . S
Ho241 O269 2.524 . S
Ho241 O270 2.381 . S
Ho241 O271 2.669 . S
C242 O260 1.259 . S
C242 O261 1.268 . S
C243 Ho240 2.811 . S
C243 C244 1.488 . S
C243 O262 1.215 . S
C243 O263 1.289 . S
C244 C243 1.488 . S
C244 C245 1.348 . S
C244 C249 1.413 . S
C245 C244 1.348 . S
C245 C246 1.442 . S
C245 H272 0.930 . S
C246 C245 1.442 . S
C246 C247 1.381 . S
C246 H273 0.931 . S
C247 C246 1.381 . S
C247 C248 1.321 . S
C248 C247 1.321 . S
C248 C249 1.403 . S
C248 H274 0.934 . S
C249 C244 1.413 . S
C249 C248 1.403 . S
C249 H275 0.930 . S
C250 O264 1.275 . S
C250 O265 1.256 . S
C251 O266 1.259 . S
C251 O267 1.268 . S
C252 Ho241 2.811 . S
C252 C253 1.488 . S
C252 O268 1.215 . S
C252 O269 1.289 . S
C253 C252 1.488 . S
C253 C254 1.348 . S
C253 C258 1.413 . S
C254 C253 1.348 . S
C254 C255 1.442 . S
C254 H276 0.930 . S
C255 C254 1.442 . S
C255 C256 1.381 . S
C255 H277 0.931 . S
C256 C255 1.381 . S
C256 C257 1.321 . S
C257 C256 1.321 . S
C257 C258 1.403 . S
C257 H278 0.934 . S
C258 C253 1.413 . S
C258 C257 1.403 . S
C258 H279 0.930 . S
C259 O270 1.275 . S
C259 O271 1.256 . S
O260 Ho240 2.322 . S
O260 C242 1.259 . S
O261 Ho241 2.346 . S
O261 C242 1.268 . S
O262 Ho240 2.378 . S
O262 C243 1.215 . S
O263 Ho240 2.524 . S
O263 C243 1.289 . S
O264 Ho240 2.381 . S
O264 C250 1.275 . S
O265 Ho240 2.669 . S
O265 Ho241 2.305 . S
O265 C250 1.256 . S
O266 Ho241 2.322 . S
O266 C251 1.259 . S
O267 Ho240 2.346 . S
O267 C251 1.268 . S
O268 Ho241 2.378 . S
O268 C252 1.215 . S
O269 Ho241 2.524 . S
O269 C252 1.289 . S
O270 Ho241 2.381 . S
O270 C259 1.275 . S
O271 Ho240 2.305 . S
O271 Ho241 2.669 . S
O271 C259 1.256 . S
H272 C245 0.930 . S
H273 C246 0.931 . S
H274 C248 0.934 . S
H275 C249 0.930 . S
H276 C254 0.930 . S
H277 C255 0.931 . S
H278 C257 0.934 . S
H279 C258 0.930 . S
Ho280 C283 2.811 . S
Ho280 O300 2.322 . S
Ho280 O302 2.378 . S
Ho280 O303 2.524 . S
Ho280 O304 2.381 . S
Ho280 O305 2.669 . S
Ho280 O307 2.346 . S
Ho280 O311 2.305 . S
Ho281 C292 2.811 . S
Ho281 O301 2.346 . S
Ho281 O305 2.305 . S
Ho281 O306 2.322 . S
Ho281 O308 2.378 . S
Ho281 O309 2.524 . S
Ho281 O310 2.381 . S
Ho281 O311 2.669 . S
C282 O300 1.259 . S
C282 O301 1.268 . S
C283 Ho280 2.811 . S
C283 C284 1.488 . S
C283 O302 1.215 . S
C283 O303 1.289 . S
C284 C283 1.488 . S
C284 C285 1.348 . S
C284 C289 1.413 . S
C285 C284 1.348 . S
C285 C286 1.442 . S
C285 H312 0.930 . S
C286 C285 1.442 . S
C286 C287 1.381 . S
C286 H313 0.931 . S
C287 C286 1.381 . S
C287 C288 1.321 . S
C288 C287 1.321 . S
C288 C289 1.403 . S
C288 H314 0.934 . S
C289 C284 1.413 . S
C289 C288 1.403 . S
C289 H315 0.930 . S
C290 O304 1.275 . S
C290 O305 1.256 . S
C291 O306 1.259 . S
C291 O307 1.268 . S
C292 Ho281 2.811 . S
C292 C293 1.488 . S
C292 O308 1.215 . S
C292 O309 1.289 . S
C293 C292 1.488 . S
C293 C294 1.348 . S
C293 C298 1.413 . S
C294 C293 1.348 . S
C294 C295 1.442 . S
C294 H316 0.930 . S
C295 C294 1.442 . S
C295 C296 1.381 . S
C295 H317 0.931 . S
C296 C295 1.381 . S
C296 C297 1.321 . S
C297 C296 1.321 . S
C297 C298 1.403 . S
C297 H318 0.934 . S
C298 C293 1.413 . S
C298 C297 1.403 . S
C298 H319 0.930 . S
C299 O310 1.275 . S
C299 O311 1.256 . S
O300 Ho280 2.322 . S
O300 C282 1.259 . S
O301 Ho281 2.346 . S
O301 C282 1.268 . S
O302 Ho280 2.378 . S
O302 C283 1.215 . S
O303 Ho280 2.524 . S
O303 C283 1.289 . S
O304 Ho280 2.381 . S
O304 C290 1.275 . S
O305 Ho280 2.669 . S
O305 Ho281 2.305 . S
O305 C290 1.256 . S
O306 Ho281 2.322 . S
O306 C291 1.259 . S
O307 Ho280 2.346 . S
O307 C291 1.268 . S
O308 Ho281 2.378 . S
O308 C292 1.215 . S
O309 Ho281 2.524 . S
O309 C292 1.289 . S
O310 Ho281 2.381 . S
O310 C299 1.275 . S
O311 Ho280 2.305 . S
O311 Ho281 2.669 . S
O311 C299 1.256 . S
H312 C285 0.930 . S
H313 C286 0.931 . S
H314 C288 0.934 . S
H315 C289 0.930 . S
H316 C294 0.930 . S
H317 C295 0.931 . S
H318 C297 0.934 . S
H319 C298 0.930 . S
H320 C328 0.929 1_556 S
H321 C330 0.930 1_556 S
H322 C332 0.930 . S
H323 C335 0.929 . S
H324 C338 0.930 . S
H325 C340 0.960 . S
H326 C340 0.960 . S
H327 C340 0.960 . S
C328 H320 0.929 1_554 S
C328 C329 1.377 . S
C328 C330 1.384 . S
C329 C328 1.377 . S
C329 C335 1.390 . S
C330 H321 0.930 1_554 S
C330 C328 1.384 . S
C330 C331 1.372 . S
C331 C330 1.372 . S
C331 C332 1.400 . S
C331 C336 1.490 . S
C332 H322 0.930 . S
C332 C331 1.400 . S
C332 C335 1.386 . S
H333 C349 0.930 . S
H334 C350 0.931 . S
C335 H323 0.929 . S
C335 C329 1.390 . S
C335 C332 1.386 . S
C336 C331 1.490 . S
C336 C338 1.395 . S
C336 C339 1.391 1_554 S
H337 C343 0.930 1_556 S
C338 H324 0.930 . S
C338 C336 1.395 . S
C338 C341 1.403 . S
C339 C336 1.391 1_556 S
C339 C340 1.541 . S
C339 C343 1.395 1_556 S
C340 H325 0.960 . S
C340 H326 0.960 . S
C340 H327 0.960 . S
C340 C339 1.541 . S
C341 C338 1.403 . S
C341 C342 1.392 . S
C341 C345 1.495 . S
C342 C341 1.392 . S
C342 C343 1.385 . S
C342 C344 1.478 . S
C343 H337 0.930 1_554 S
C343 C339 1.395 1_554 S
C343 C342 1.385 . S
C344 C342 1.478 . S
C344 C346 1.381 . S
C344 C350 1.383 . S
C345 C341 1.495 . S
C345 H351 0.959 . S
C345 H352 0.961 . S
C345 H353 0.960 . S
C346 C344 1.381 . S
C346 C347 1.394 . S
C346 H354 0.930 1_554 S
C347 C346 1.394 . S
C347 C348 1.383 . S
C347 H355 0.929 1_554 S
C348 C347 1.383 . S
C348 C349 1.377 . S
C349 H333 0.930 . S
C349 C348 1.377 . S
C349 C350 1.379 . S
C350 H334 0.931 . S
C350 C344 1.383 . S
C350 C349 1.379 . S
H351 C345 0.959 . S
H352 C345 0.961 . S
H353 C345 0.960 . S
H354 C346 0.930 1_556 S
H355 C347 0.929 1_556 S
H356 C364 0.929 . S
H357 C366 0.930 . S
H358 C368 0.930 1_556 S
H359 C371 0.929 1_556 S
H360 C374 0.930 1_556 S
H361 C376 0.960 . S
H362 C376 0.960 . S
H363 C376 0.960 . S
C364 H356 0.929 . S
C364 C365 1.377 . S
C364 C366 1.384 . S
C365 C364 1.377 . S
C365 C371 1.390 . S
C366 H357 0.930 . S
C366 C364 1.384 . S
C366 C367 1.372 . S
C367 C366 1.372 . S
C367 C368 1.400 . S
C367 C372 1.490 . S
C368 H358 0.930 1_554 S
C368 C367 1.400 . S
C368 C371 1.386 . S
H369 C385 0.944 . S
H370 C386 0.931 . S
C371 H359 0.929 1_554 S
C371 C365 1.390 . S
C371 C368 1.386 . S
C372 C367 1.490 . S
C372 C374 1.395 . S
C372 C375 1.403 . S
H373 C379 0.930 . S
C374 H360 0.930 1_554 S
C374 C372 1.395 . S
C374 C377 1.403 . S
C375 C372 1.403 . S
C375 C376 1.524 . S
C375 C379 1.400 . S
C376 H361 0.960 . S
C376 H362 0.960 . S
C376 H363 0.960 . S
C376 C375 1.524 . S
C377 C374 1.403 . S
C377 C378 1.392 . S
C377 C381 1.495 1_554 S
C378 C377 1.392 . S
C378 C379 1.385 . S
C378 C380 1.478 . S
C379 H373 0.930 . S
C379 C375 1.400 . S
C379 C378 1.385 . S
C380 C378 1.478 . S
C380 C382 1.381 . S
C380 C386 1.383 1_554 S
C381 C377 1.495 1_556 S
C381 H387 0.959 . S
C381 H388 0.961 . S
C381 H389 0.960 1_556 S
C382 C380 1.381 . S
C382 C383 1.394 . S
C382 H390 0.930 . S
C383 C382 1.394 . S
C383 C384 1.383 . S
C383 H391 0.929 . S
C384 C383 1.383 . S
C384 C385 1.359 1_554 S
C385 H369 0.944 . S
C385 C384 1.359 1_556 S
C385 C386 1.384 . S
C386 H370 0.931 . S
C386 C380 1.383 1_556 S
C386 C385 1.384 . S
H387 C381 0.959 . S
H388 C381 0.961 . S
H389 C381 0.960 1_554 S
H390 C382 0.930 . S
H391 C383 0.929 . S
H392 C400 0.929 . S
H393 C402 0.930 . S
H394 C404 0.930 . S
H395 C407 0.929 . S
H396 C410 0.930 . S
H397 C412 0.960 . S
H398 C412 0.960 . S
H399 C412 0.960 . S
C400 H392 0.929 . S
C400 C401 1.377 . S
C400 C402 1.384 . S
C401 C400 1.377 . S
C401 C407 1.390 . S
C402 H393 0.930 . S
C402 C400 1.384 . S
C402 C403 1.372 . S
C403 C402 1.372 . S
C403 C404 1.400 . S
C403 C408 1.490 . S
C404 H394 0.930 . S
C404 C403 1.400 . S
C404 C407 1.386 . S
H405 C421 0.930 . S
H406 C422 0.931 . S
C407 H395 0.929 . S
C407 C401 1.390 . S
C407 C404 1.386 . S
C408 C403 1.490 . S
C408 C410 1.395 . S
C408 C411 1.403 . S
H409 C415 0.930 . S
C410 H396 0.930 . S
C410 C408 1.395 . S
C410 C413 1.403 . S
C411 C408 1.403 . S
C411 C412 1.524 . S
C411 C415 1.400 . S
C412 H397 0.960 . S
C412 H398 0.960 . S
C412 H399 0.960 . S
C412 C411 1.524 . S
C413 C410 1.403 . S
C413 C414 1.392 . S
C413 C417 1.495 . S
C414 C413 1.392 . S
C414 C415 1.385 . S
C414 C416 1.478 . S
C415 H409 0.930 . S
C415 C411 1.400 . S
C415 C414 1.385 . S
C416 C414 1.478 . S
C416 C418 1.381 . S
C416 C422 1.383 . S
C417 C413 1.495 . S
C417 H423 0.959 . S
C417 H424 0.961 . S
C417 H425 0.960 . S
C418 C416 1.381 . S
C418 C419 1.394 . S
C418 H426 0.930 . S
C419 C418 1.394 . S
C419 C420 1.383 . S
C419 H427 0.929 . S
C420 C419 1.383 . S
C420 C421 1.377 . S
C421 H405 0.930 . S
C421 C420 1.377 . S
C421 C422 1.379 . S
C422 H406 0.931 . S
C422 C416 1.383 . S
C422 C421 1.379 . S
H423 C417 0.959 . S
H424 C417 0.961 . S
H425 C417 0.960 . S
H426 C418 0.930 . S
H427 C419 0.929 . S
H428 C436 0.929 . S
H429 C438 0.930 . S
H430 C440 0.930 . S
H431 C443 0.929 . S
H432 C446 0.930 . S
H433 C448 0.960 . S
H434 C448 0.960 . S
H435 C448 0.960 . S
C436 H428 0.929 . S
C436 C437 1.377 . S
C436 C438 1.384 . S
C437 C436 1.377 . S
C437 C443 1.390 . S
C438 H429 0.930 . S
C438 C436 1.384 . S
C438 C439 1.372 . S
C439 C438 1.372 . S
C439 C440 1.400 . S
C439 C444 1.490 . S
C440 H430 0.930 . S
C440 C439 1.400 . S
C440 C443 1.386 . S
H441 C457 0.930 . S
H442 C458 0.931 . S
C443 H431 0.929 . S
C443 C437 1.390 . S
C443 C440 1.386 . S
C444 C439 1.490 . S
C444 C446 1.395 . S
C444 C447 1.403 . S
H445 C451 0.930 . S
C446 H432 0.930 . S
C446 C444 1.395 . S
C446 C449 1.403 . S
C447 C444 1.403 . S
C447 C448 1.524 . S
C447 C451 1.400 . S
C448 H433 0.960 . S
C448 H434 0.960 . S
C448 H435 0.960 . S
C448 C447 1.524 . S
C449 C446 1.403 . S
C449 C450 1.392 . S
C449 C453 1.495 . S
C450 C449 1.392 . S
C450 C451 1.385 . S
C450 C452 1.478 . S
C451 H445 0.930 . S
C451 C447 1.400 . S
C451 C450 1.385 . S
C452 C450 1.478 . S
C452 C454 1.381 . S
C452 C458 1.383 . S
C453 C449 1.495 . S
C453 H459 0.959 . S
C453 H460 0.961 . S
C453 H461 0.960 . S
C454 C452 1.381 . S
C454 C455 1.394 . S
C454 H462 0.930 . S
C455 C454 1.394 . S
C455 C456 1.383 . S
C455 H463 0.929 . S
C456 C455 1.383 . S
C456 C457 1.377 . S
C457 H441 0.930 . S
C457 C456 1.377 . S
C457 C458 1.379 . S
C458 H442 0.931 . S
C458 C452 1.383 . S
C458 C457 1.379 . S
H459 C453 0.959 . S
H460 C453 0.961 . S
H461 C453 0.960 . S
H462 C454 0.930 . S
H463 C455 0.929 . S
H464 C472 0.929 . S
H465 C474 0.930 . S
H466 C476 0.930 . S
H467 C479 0.929 . S
H468 C482 0.930 . S
H469 C484 0.960 1_455 S
H470 C484 0.960 . S
H471 C484 0.960 . S
C472 H464 0.929 . S
C472 C473 1.377 . S
C472 C474 1.384 . S
C473 C472 1.377 . S
C473 C479 1.390 1_554 S
C474 H465 0.930 . S
C474 C472 1.384 . S
C474 C475 1.372 . S
C475 C474 1.372 . S
C475 C476 1.400 1_554 S
C475 C480 1.490 . S
C476 H466 0.930 . S
C476 C475 1.400 1_556 S
C476 C479 1.386 . S
H477 C493 0.930 . S
H478 C494 0.931 . S
C479 H467 0.929 . S
C479 C473 1.390 1_556 S
C479 C476 1.386 . S
C480 C475 1.490 . S
C480 C482 1.395 1_655 S
C480 C483 1.403 1_655 S
H481 C487 0.930 . S
C482 H468 0.930 . S
C482 C480 1.395 1_455 S
C482 C485 1.403 . S
C483 C480 1.403 1_455 S
C483 C484 1.524 1_455 S
C483 C487 1.400 . S
C484 H469 0.960 1_655 S
C484 H470 0.960 . S
C484 H471 0.960 . S
C484 C483 1.524 1_655 S
C485 C482 1.403 . S
C485 C486 1.392 . S
C485 C489 1.495 . S
C486 C485 1.392 . S
C486 C487 1.385 . S
C486 C488 1.478 . S
C487 H481 0.930 . S
C487 C483 1.400 . S
C487 C486 1.385 . S
C488 C486 1.478 . S
C488 C490 1.381 . S
C488 C494 1.383 1_554 S
C489 C485 1.495 . S
C489 H495 0.959 . S
C489 H496 0.961 1_554 S
C489 H497 0.960 . S
C490 C488 1.381 . S
C490 C491 1.394 . S
C490 H498 0.930 . S
C491 C490 1.394 . S
C491 C492 1.383 . S
C491 H499 0.929 . S
C492 C491 1.383 . S
C492 C493 1.377 1_554 S
C493 H477 0.930 . S
C493 C492 1.377 1_556 S
C493 C494 1.379 . S
C494 H478 0.931 . S
C494 C488 1.383 1_556 S
C494 C493 1.379 . S
H495 C489 0.959 . S
H496 C489 0.961 1_556 S
H497 C489 0.960 . S
H498 C490 0.930 . S
H499 C491 0.929 . S
H500 C508 0.929 . S
H501 C510 0.930 . S
H502 C512 0.930 . S
H503 C515 0.929 . S
H504 C518 0.930 1_455 S
H505 C520 0.960 . S
H506 C520 0.958 1_455 S
H507 C520 0.960 1_455 S
C508 H500 0.929 . S
C508 C509 1.377 1_556 S
C508 C510 1.384 . S
C509 C508 1.377 1_554 S
C509 C515 1.390 . S
C510 H501 0.930 . S
C510 C508 1.384 . S
C510 C511 1.372 1_556 S
C511 C510 1.372 1_554 S
C511 C512 1.400 . S
C511 C516 1.490 . S
C512 H502 0.930 . S
C512 C511 1.400 . S
C512 C515 1.386 . S
H513 C529 0.930 . S
H514 C530 0.931 . S
C515 H503 0.929 . S
C515 C509 1.390 . S
C515 C512 1.386 . S
C516 C511 1.490 . S
C516 C518 1.395 1_454 S
C516 C519 1.403 1_455 S
H517 C523 0.930 . S
C518 H504 0.930 1_655 S
C518 C516 1.395 1_656 S
C518 C521 1.403 . S
C519 C516 1.403 1_655 S
C519 C520 1.524 . S
C519 C523 1.400 . S
C520 H505 0.960 . S
C520 H506 0.958 1_655 S
C520 H507 0.960 1_655 S
C520 C519 1.524 . S
C521 C518 1.403 . S
C521 C522 1.392 1_556 S
C521 C525 1.495 . S
C522 C521 1.392 1_554 S
C522 C523 1.385 . S
C522 C524 1.478 . S
C523 H517 0.930 . S
C523 C519 1.400 . S
C523 C522 1.385 . S
C524 C522 1.478 . S
C524 C526 1.381 1_554 S
C524 C530 1.383 . S
C525 C521 1.495 . S
C525 H531 0.959 . S
C525 H532 0.961 . S
C525 H533 0.960 . S
C526 C524 1.381 1_556 S
C526 C527 1.394 . S
C526 H534 0.930 . S
C527 C526 1.394 . S
C527 C528 1.383 1_556 S
C527 H535 0.929 . S
C528 C527 1.383 1_554 S
C528 C529 1.377 . S
C529 H513 0.930 . S
C529 C528 1.377 . S
C529 C530 1.379 . S
C530 H514 0.931 . S
C530 C524 1.383 . S
C530 C529 1.379 . S
H531 C525 0.959 . S
H532 C525 0.961 . S
H533 C525 0.960 . S
H534 C526 0.930 . S
H535 C527 0.929 . S
H536 C544 0.929 . S
H537 C546 0.930 . S
H538 C548 0.930 . S
H539 C551 0.929 . S
H540 C554 0.930 . S
H541 C556 0.960 . S
H542 C556 0.960 . S
H543 C556 0.960 . S
C544 H536 0.929 . S
C544 C545 1.377 . S
C544 C546 1.384 . S
C545 C544 1.377 . S
C545 C551 1.390 . S
C546 H537 0.930 . S
C546 C544 1.384 . S
C546 C547 1.372 . S
C547 C546 1.372 . S
C547 C548 1.400 . S
C547 C552 1.490 . S
C548 H538 0.930 . S
C548 C547 1.400 . S
C548 C551 1.386 . S
H549 C565 0.930 . S
H550 C566 0.931 . S
C551 H539 0.929 . S
C551 C545 1.390 . S
C551 C548 1.386 . S
C552 C547 1.490 . S
C552 C554 1.395 . S
C552 C555 1.403 . S
H553 C559 0.930 1_655 S
C554 H540 0.930 . S
C554 C552 1.395 . S
C554 C557 1.403 . S
C555 C552 1.403 . S
C555 C556 1.524 . S
C555 C559 1.400 . S
C556 H541 0.960 . S
C556 H542 0.960 . S
C556 H543 0.960 . S
C556 C555 1.524 . S
C557 C554 1.403 . S
C557 C558 1.392 1_455 S
C557 C561 1.495 . S
C558 C557 1.392 1_655 S
C558 C559 1.385 1_655 S
C558 C560 1.478 . S
C559 H553 0.930 1_455 S
C559 C555 1.400 . S
C559 C558 1.385 1_455 S
C560 C558 1.478 . S
C560 C562 1.381 . S
C560 C566 1.383 . S
C561 C557 1.495 . S
C561 H567 0.959 . S
C561 H568 0.961 1_455 S
C561 H569 0.960 1_455 S
C562 C560 1.381 . S
C562 C563 1.394 . S
C562 H570 0.930 . S
C563 C562 1.394 . S
C563 C564 1.383 . S
C563 H571 0.929 . S
C564 C563 1.383 . S
C564 C565 1.377 . S
C565 H549 0.930 . S
C565 C564 1.377 . S
C565 C566 1.379 . S
C566 H550 0.931 . S
C566 C560 1.383 . S
C566 C565 1.379 . S
H567 C561 0.959 . S
H568 C561 0.961 1_655 S
H569 C561 0.960 1_655 S
H570 C562 0.930 . S
H571 C563 0.929 . S
H572 C580 0.929 . S
H573 C582 0.930 . S
H574 C584 0.930 . S
H575 C587 0.929 . S
H576 C590 0.930 . S
H577 C592 0.960 . S
H578 C592 0.960 . S
H579 C592 0.960 . S
C580 H572 0.929 . S
C580 C581 1.377 . S
C580 C582 1.384 . S
C581 C580 1.377 . S
C581 C587 1.390 . S
C582 H573 0.930 . S
C582 C580 1.384 . S
C582 C583 1.372 . S
C583 C582 1.372 . S
C583 C584 1.400 . S
C583 C588 1.490 . S
C584 H574 0.930 . S
C584 C583 1.400 . S
C584 C587 1.386 . S
H585 C601 0.930 . S
H586 C602 0.931 . S
C587 H575 0.929 . S
C587 C581 1.390 . S
C587 C584 1.386 . S
C588 C583 1.490 . S
C588 C590 1.395 . S
C588 C591 1.403 . S
H589 C595 0.930 . S
C590 H576 0.930 . S
C590 C588 1.395 . S
C590 C593 1.403 . S
C591 C588 1.403 . S
C591 C592 1.524 . S
C591 C595 1.400 . S
C592 H577 0.960 . S
C592 H578 0.960 . S
C592 H579 0.960 . S
C592 C591 1.524 . S
C593 C590 1.403 . S
C593 C594 1.392 1_655 S
C593 C597 1.495 1_655 S
C594 C593 1.392 1_455 S
C594 C595 1.385 1_455 S
C594 C596 1.478 . S
C595 H589 0.930 . S
C595 C591 1.400 . S
C595 C594 1.385 1_655 S
C596 C594 1.478 . S
C596 C598 1.381 . S
C596 C602 1.383 . S
C597 C593 1.495 1_455 S
C597 H603 0.959 1_455 S
C597 H604 0.961 . S
C597 H605 0.960 . S
C598 C596 1.381 . S
C598 C599 1.394 . S
C598 H606 0.930 . S
C599 C598 1.394 . S
C599 C600 1.383 . S
C599 H607 0.929 . S
C600 C599 1.383 . S
C600 C601 1.377 . S
C601 H585 0.930 . S
C601 C600 1.377 . S
C601 C602 1.379 . S
C602 H586 0.931 . S
C602 C596 1.383 . S
C602 C601 1.379 . S
H603 C597 0.959 1_655 S
H604 C597 0.961 . S
H605 C597 0.960 . S
H606 C598 0.930 . S
H607 C599 0.929 . S
H608 C616 0.929 . S
H609 C618 0.930 1_655 S
H610 C620 0.930 1_556 S
H611 C623 0.929 1_556 S
H612 C626 0.930 . S
H613 C628 0.960 . S
H614 C628 0.960 . S
H615 C628 0.960 . S
C616 H608 0.929 . S
C616 C617 1.377 . S
C616 C618 1.384 . S
C617 C616 1.377 . S
C617 C623 1.390 . S
C618 H609 0.930 1_455 S
C618 C616 1.384 . S
C618 C619 1.372 . S
C619 C618 1.372 . S
C619 C620 1.400 . S
C619 C624 1.490 . S
C620 H610 0.930 1_554 S
C620 C619 1.400 . S
C620 C623 1.386 . S
H621 C637 0.930 . S
H622 C638 0.931 1_455 S
C623 H611 0.929 1_554 S
C623 C617 1.390 . S
C623 C620 1.386 . S
C624 C619 1.490 . S
C624 C626 1.395 1_455 S
C624 C627 1.403 . S
H625 C631 0.930 . S
C626 H612 0.930 . S
C626 C624 1.395 1_655 S
C626 C629 1.403 . S
C627 C624 1.403 . S
C627 C628 1.524 . S
C627 C631 1.400 . S
C628 H613 0.960 . S
C628 H614 0.960 . S
C628 H615 0.960 . S
C628 C627 1.524 . S
C629 C626 1.403 . S
C629 C630 1.392 . S
C629 C633 1.495 1_554 S
C630 C629 1.392 . S
C630 C631 1.385 1_655 S
C630 C632 1.478 . S
C631 H625 0.930 . S
C631 C627 1.400 . S
C631 C630 1.385 1_455 S
C632 C630 1.478 . S
C632 C634 1.381 . S
C632 C638 1.383 1_554 S
C633 C629 1.495 1_556 S
C633 H639 0.959 . S
C633 H640 0.961 . S
C633 H641 0.960 1_556 S
C634 C632 1.381 . S
C634 C635 1.394 . S
C634 H642 0.930 . S
C635 C634 1.394 . S
C635 C636 1.383 . S
C635 H643 0.929 . S
C636 C635 1.383 . S
C636 C637 1.377 1_554 S
C637 H621 0.930 . S
C637 C636 1.377 1_556 S
C637 C638 1.379 . S
C638 H622 0.931 1_655 S
C638 C632 1.383 1_556 S
C638 C637 1.379 . S
H639 C633 0.959 . S
H640 C633 0.961 . S
H641 C633 0.960 1_554 S
H642 C634 0.930 . S
H643 C635 0.929 . S
H644 C652 0.929 . S
H645 C654 0.930 . S
H646 C656 0.930 . S
H647 C659 0.929 . S
H648 C662 0.930 . S
H649 C664 0.960 . S
H650 C664 0.960 . S
H651 C664 0.960 . S
C652 H644 0.929 . S
C652 C653 1.377 . S
C652 C654 1.384 . S
C653 C652 1.377 . S
C653 C659 1.390 . S
C654 H645 0.930 . S
C654 C652 1.384 . S
C654 C655 1.372 . S
C655 C654 1.372 . S
C655 C656 1.400 . S
C655 C660 1.490 . S
C656 H646 0.930 . S
C656 C655 1.400 . S
C656 C659 1.386 . S
H657 C673 0.930 . S
H658 C674 0.931 . S
C659 H647 0.929 . S
C659 C653 1.390 . S
C659 C656 1.386 . S
C660 C655 1.490 . S
C660 C662 1.395 1_455 S
C660 C663 1.403 . S
H661 C667 0.930 . S
C662 H648 0.930 . S
C662 C660 1.395 1_655 S
C662 C665 1.403 . S
C663 C660 1.403 . S
C663 C664 1.524 . S
C663 C667 1.400 . S
C664 H649 0.960 . S
C664 H650 0.960 . S
C664 H651 0.960 . S
C664 C663 1.524 . S
C665 C662 1.403 . S
C665 C666 1.392 . S
C665 C669 1.495 . S
C666 C665 1.392 . S
C666 C667 1.385 1_655 S
C666 C668 1.478 . S
C667 H661 0.930 . S
C667 C663 1.400 . S
C667 C666 1.385 1_455 S
C668 C666 1.478 . S
C668 C670 1.381 . S
C668 C674 1.383 . S
C669 C665 1.495 . S
C669 H675 0.959 . S
C669 H676 0.961 . S
C669 H677 0.960 . S
C670 C668 1.381 . S
C670 C671 1.394 . S
C670 H678 0.930 . S
C671 C670 1.394 . S
C671 C672 1.383 . S
C671 H679 0.929 . S
C672 C671 1.383 . S
C672 C673 1.377 . S
C673 H657 0.930 . S
C673 C672 1.377 . S
C673 C674 1.379 . S
C674 H658 0.931 . S
C674 C668 1.383 . S
C674 C673 1.379 . S
H675 C669 0.959 . S
H676 C669 0.961 . S
H677 C669 0.960 . S
H678 C670 0.930 . S
H679 C671 0.929 . S
H680 C688 0.929 . S
H681 C690 0.930 . S
H682 C692 0.930 1_556 S
H683 C695 0.940 . S
H684 C698 0.928 1_556 S
H685 C700 0.960 1_545 S
H686 C700 0.960 . S
H687 C700 0.960 . S
C688 H680 0.929 . S
C688 C689 1.377 . S
C688 C690 1.384 . S
C689 C688 1.377 . S
C689 C695 1.381 1_554 S
C690 H681 0.930 . S
C690 C688 1.384 . S
C690 C691 1.372 . S
C691 C690 1.372 . S
C691 C692 1.400 . S
C691 C696 1.490 . S
C692 H682 0.930 1_554 S
C692 C691 1.400 . S
C692 C695 1.384 1_554 S
H693 C709 0.930 1_556 S
H694 C710 0.931 1_556 S
C695 H683 0.940 . S
C695 C689 1.381 1_556 S
C695 C692 1.384 1_556 S
C696 C691 1.490 . S
C696 C698 1.397 . S
C696 C699 1.403 . S
H697 C703 0.930 . S
C698 H684 0.928 1_554 S
C698 C696 1.397 . S
C698 C701 1.404 1_564 S
C699 C696 1.403 . S
C699 C700 1.524 . S
C699 C703 1.400 1_565 S
C700 H685 0.960 1_565 S
C700 H686 0.960 . S
C700 H687 0.960 . S
C700 C699 1.524 . S
C701 C698 1.404 1_546 S
C701 C702 1.392 1_556 S
C701 C705 1.495 . S
C702 C701 1.392 1_554 S
C702 C703 1.385 . S
C702 C704 1.478 . S
C703 H697 0.930 . S
C703 C699 1.400 1_545 S
C703 C702 1.385 . S
C704 C702 1.478 . S
C704 C706 1.381 . S
C704 C710 1.383 . S
C705 C701 1.495 . S
C705 H711 0.959 1_545 S
C705 H712 0.961 . S
C705 H713 0.960 . S
C706 C704 1.381 . S
C706 C707 1.394 . S
C706 H714 0.930 . S
C707 C706 1.394 . S
C707 C708 1.383 . S
C707 H715 0.929 . S
C708 C707 1.383 . S
C708 C709 1.377 . S
C709 H693 0.930 1_554 S
C709 C708 1.377 . S
C709 C710 1.379 . S
C710 H694 0.931 1_554 S
C710 C704 1.383 . S
C710 C709 1.379 . S
H711 C705 0.959 1_565 S
H712 C705 0.961 . S
H713 C705 0.960 . S
H714 C706 0.930 . S
H715 C707 0.929 . S
H716 C724 0.929 . S
H717 C726 0.930 . S
H718 C728 0.930 . S
H719 C731 0.929 . S
H720 C734 0.930 . S
H721 C736 0.960 . S
H722 C736 0.960 . S
H723 C736 0.960 . S
C724 H716 0.929 . S
C724 C725 1.377 . S
C724 C726 1.384 . S
C725 C724 1.377 . S
C725 C731 1.390 . S
C726 H717 0.930 . S
C726 C724 1.384 . S
C726 C727 1.372 . S
C727 C726 1.372 . S
C727 C728 1.400 . S
C727 C732 1.490 . S
C728 H718 0.930 . S
C728 C727 1.400 . S
C728 C731 1.386 . S
H729 C745 0.930 . S
H730 C746 0.931 . S
C731 H719 0.929 . S
C731 C725 1.390 . S
C731 C728 1.386 . S
C732 C727 1.490 . S
C732 C734 1.395 . S
C732 C735 1.403 . S
H733 C739 0.930 . S
C734 H720 0.930 . S
C734 C732 1.395 . S
C734 C737 1.403 1_545 S
C735 C732 1.403 . S
C735 C736 1.524 . S
C735 C739 1.400 1_545 S
C736 H721 0.960 . S
C736 H722 0.960 . S
C736 H723 0.960 . S
C736 C735 1.524 . S
C737 C734 1.403 1_565 S
C737 C738 1.392 . S
C737 C741 1.495 . S
C738 C737 1.392 . S
C738 C739 1.385 . S
C738 C740 1.478 . S
C739 H733 0.930 . S
C739 C735 1.400 1_565 S
C739 C738 1.385 . S
C740 C738 1.478 . S
C740 C742 1.381 . S
C740 C746 1.383 . S
C741 C737 1.495 . S
C741 H747 0.959 . S
C741 H748 0.961 . S
C741 H749 0.960 . S
C742 C740 1.381 . S
C742 C743 1.394 . S
C742 H750 0.930 . S
C743 C742 1.394 . S
C743 C744 1.383 . S
C743 H751 0.929 . S
C744 C743 1.383 . S
C744 C745 1.377 . S
C745 H729 0.930 . S
C745 C744 1.377 . S
C745 C746 1.379 . S
C746 H730 0.931 . S
C746 C740 1.383 . S
C746 C745 1.379 . S
H747 C741 0.959 . S
H748 C741 0.961 . S
H749 C741 0.960 . S
H750 C742 0.930 . S
H751 C743 0.929 . S
H752 C760 0.929 . S
H753 C762 0.930 . S
H754 C764 0.930 . S
H755 C767 0.929 . S
H756 C770 0.930 . S
H757 C772 0.960 . S
H758 C772 0.960 . S
H759 C772 0.960 . S
C760 H752 0.929 . S
C760 C761 1.377 . S
C760 C762 1.384 . S
C761 C760 1.377 . S
C761 C767 1.390 . S
C762 H753 0.930 . S
C762 C760 1.384 . S
C762 C763 1.372 . S
C763 C762 1.372 . S
C763 C764 1.400 . S
C763 C768 1.490 . S
C764 H754 0.930 . S
C764 C763 1.400 . S
C764 C767 1.386 . S
H765 C781 0.930 . S
H766 C782 0.931 . S
C767 H755 0.929 . S
C767 C761 1.390 . S
C767 C764 1.386 . S
C768 C763 1.490 . S
C768 C770 1.395 1_554 S
C768 C771 1.403 . S
H769 C775 0.930 . S
C770 H756 0.930 . S
C770 C768 1.395 1_556 S
C770 C773 1.403 . S
C771 C768 1.403 . S
C771 C772 1.524 . S
C771 C775 1.400 . S
C772 H757 0.960 . S
C772 H758 0.960 . S
C772 H759 0.960 . S
C772 C771 1.524 . S
C773 C770 1.403 . S
C773 C774 1.392 1_556 S
C773 C777 1.495 . S
C774 C773 1.392 1_554 S
C774 C775 1.385 . S
C774 C776 1.478 . S
C775 H769 0.930 . S
C775 C771 1.400 . S
C775 C774 1.385 . S
C776 C774 1.478 . S
C776 C778 1.381 . S
C776 C782 1.383 . S
C777 C773 1.495 . S
C777 H783 0.959 . S
C777 H784 0.961 . S
C777 H785 0.960 . S
C778 C776 1.381 . S
C778 C779 1.394 . S
C778 H786 0.930 . S
C779 C778 1.394 . S
C779 C780 1.383 . S
C779 H787 0.929 . S
C780 C779 1.383 . S
C780 C781 1.377 . S
C781 H765 0.930 . S
C781 C780 1.377 . S
C781 C782 1.379 . S
C782 H766 0.931 . S
C782 C776 1.383 . S
C782 C781 1.379 . S
H783 C777 0.959 . S
H784 C777 0.961 . S
H785 C777 0.960 . S
H786 C778 0.930 . S
H787 C779 0.929 . S
H788 C796 0.929 . S
H789 C798 0.930 . S
H790 C800 0.930 . S
H791 C803 0.929 . S
H792 C806 0.930 . S
H793 C808 0.960 . S
H794 C808 0.960 . S
H795 C808 0.960 . S
C796 H788 0.929 . S
C796 C797 1.377 . S
C796 C798 1.384 . S
C797 C796 1.377 . S
C797 C803 1.390 . S
C798 H789 0.930 . S
C798 C796 1.384 . S
C798 C799 1.372 . S
C799 C798 1.372 . S
C799 C800 1.400 . S
C799 C804 1.490 . S
C800 H790 0.930 . S
C800 C799 1.400 . S
C800 C803 1.386 . S
H801 C817 0.930 . S
H802 C818 0.931 . S
C803 H791 0.929 . S
C803 C797 1.390 . S
C803 C800 1.386 . S
C804 C799 1.490 . S
C804 C806 1.395 1_554 S
C804 C807 1.403 . S
H805 C811 0.930 . S
C806 H792 0.930 . S
C806 C804 1.395 1_556 S
C806 C809 1.403 . S
C807 C804 1.403 . S
C807 C808 1.524 . S
C807 C811 1.400 . S
C808 H793 0.960 . S
C808 H794 0.960 . S
C808 H795 0.960 . S
C808 C807 1.524 . S
C809 C806 1.403 . S
C809 C810 1.392 1_556 S
C809 C813 1.495 . S
C810 C809 1.392 1_554 S
C810 C811 1.385 . S
C810 C812 1.478 . S
C811 H805 0.930 . S
C811 C807 1.400 . S
C811 C810 1.385 . S
C812 C810 1.478 . S
C812 C814 1.381 . S
C812 C818 1.383 . S
C813 C809 1.495 . S
C813 H819 0.959 . S
C813 H820 0.961 . S
C813 H821 0.960 . S
C814 C812 1.381 . S
C814 C815 1.394 . S
C814 H822 0.930 . S
C815 C814 1.394 . S
C815 C816 1.383 . S
C815 H823 0.929 . S
C816 C815 1.383 . S
C816 C817 1.377 . S
C817 H801 0.930 . S
C817 C816 1.377 . S
C817 C818 1.379 . S
C818 H802 0.931 . S
C818 C812 1.383 . S
C818 C817 1.379 . S
H819 C813 0.959 . S
H820 C813 0.961 . S
H821 C813 0.960 . S
H822 C814 0.930 . S
H823 C815 0.929 . S
H824 C832 0.929 . S
H825 C834 0.930 . S
H826 C836 0.930 . S
H827 C839 0.929 . S
H828 C842 0.930 . S
H829 C844 0.960 . S
H830 C844 0.960 . S
H831 C844 0.960 . S
C832 H824 0.929 . S
C832 C833 1.377 . S
C832 C834 1.384 . S
C833 C832 1.377 . S
C833 C839 1.390 . S
C834 H825 0.930 . S
C834 C832 1.384 . S
C834 C835 1.372 . S
C835 C834 1.372 . S
C835 C836 1.400 . S
C835 C840 1.490 . S
C836 H826 0.930 . S
C836 C835 1.400 . S
C836 C839 1.386 . S
H837 C853 0.930 . S
H838 C854 0.931 . S
C839 H827 0.929 . S
C839 C833 1.390 . S
C839 C836 1.386 . S
C840 C835 1.490 . S
C840 C842 1.395 . S
C840 C843 1.403 . S
H841 C847 0.930 . S
C842 H828 0.930 . S
C842 C840 1.395 . S
C842 C845 1.403 . S
C843 C840 1.403 . S
C843 C844 1.524 . S
C843 C847 1.400 . S
C844 H829 0.960 . S
C844 H830 0.960 . S
C844 H831 0.960 . S
C844 C843 1.524 . S
C845 C842 1.403 . S
C845 C846 1.392 . S
C845 C849 1.495 . S
C846 C845 1.392 . S
C846 C847 1.385 . S
C846 C848 1.478 . S
C847 H841 0.930 . S
C847 C843 1.400 . S
C847 C846 1.385 . S
C848 C846 1.478 . S
C848 C850 1.381 . S
C848 C854 1.383 . S
C849 C845 1.495 . S
C849 H855 0.959 . S
C849 H856 0.961 . S
C849 H857 0.960 . S
C850 C848 1.381 . S
C850 C851 1.394 . S
C850 H858 0.930 . S
C851 C850 1.394 . S
C851 C852 1.383 . S
C851 H859 0.929 . S
C852 C851 1.383 . S
C852 C853 1.377 . S
C853 H837 0.930 . S
C853 C852 1.377 . S
C853 C854 1.379 . S
C854 H838 0.931 . S
C854 C848 1.383 . S
C854 C853 1.379 . S
H855 C849 0.959 . S
H856 C849 0.961 . S
H857 C849 0.960 . S
H858 C850 0.930 . S
H859 C851 0.929 . S
H860 C868 0.929 . S
H861 C870 0.930 . S
H862 C872 0.930 . S
H863 C875 0.929 . S
H864 C878 0.930 . S
H865 C880 0.960 . S
H866 C880 0.960 . S
H867 C880 0.960 . S
C868 H860 0.929 . S
C868 C869 1.377 . S
C868 C870 1.384 . S
C869 C868 1.377 . S
C869 C875 1.390 . S
C870 H861 0.930 . S
C870 C868 1.384 . S
C870 C871 1.372 . S
C871 C870 1.372 . S
C871 C872 1.400 . S
C871 C876 1.490 . S
C872 H862 0.930 . S
C872 C871 1.400 . S
C872 C875 1.386 . S
H873 C889 0.930 . S
H874 C890 0.931 . S
C875 H863 0.929 . S
C875 C869 1.390 . S
C875 C872 1.386 . S
C876 C871 1.490 . S
C876 C878 1.395 . S
C876 C879 1.403 . S
H877 C883 0.930 . S
C878 H864 0.930 . S
C878 C876 1.395 . S
C878 C881 1.403 . S
C879 C876 1.403 . S
C879 C880 1.524 . S
C879 C883 1.400 . S
C880 H865 0.960 . S
C880 H866 0.960 . S
C880 H867 0.960 . S
C880 C879 1.524 . S
C881 C878 1.403 . S
C881 C882 1.392 . S
C881 C885 1.495 . S
C882 C881 1.392 . S
C882 C883 1.385 . S
C882 C884 1.478 . S
C883 H877 0.930 . S
C883 C879 1.400 . S
C883 C882 1.385 . S
C884 C882 1.478 . S
C884 C886 1.381 . S
C884 C890 1.383 . S
C885 C881 1.495 . S
C885 H891 0.959 . S
C885 H892 0.961 . S
C885 H893 0.960 . S
C886 C884 1.381 . S
C886 C887 1.394 . S
C886 H894 0.930 . S
C887 C886 1.394 . S
C887 C888 1.383 . S
C887 H895 0.929 . S
C888 C887 1.383 . S
C888 C889 1.377 . S
C889 H873 0.930 . S
C889 C888 1.377 . S
C889 C890 1.379 . S
C890 H874 0.931 . S
C890 C884 1.383 . S
C890 C889 1.379 . S
H891 C885 0.959 . S
H892 C885 0.961 . S
H893 C885 0.960 . S
H894 C886 0.930 . S
H895 C887 0.929 . S
H896 C904 0.929 . S
H897 C906 0.930 . S
H898 C908 0.930 . S
H899 C911 0.925 1_655 S
H900 C914 0.930 . S
H901 C916 0.960 . S
H902 C916 0.960 . S
H903 C916 0.960 . S
C904 H896 0.929 . S
C904 C905 1.377 . S
C904 C906 1.384 . S
C905 C904 1.377 . S
C905 C911 1.394 . S
C906 H897 0.930 . S
C906 C904 1.384 . S
C906 C907 1.372 . S
C907 C906 1.372 . S
C907 C908 1.400 1_455 S
C907 C912 1.490 . S
C908 H898 0.930 . S
C908 C907 1.400 1_655 S
C908 C911 1.385 1_655 S
H909 C925 0.930 . S
H910 C926 0.931 . S
C911 H899 0.925 1_455 S
C911 C905 1.394 . S
C911 C908 1.385 1_455 S
C912 C907 1.490 . S
C912 C914 1.395 . S
C912 C915 1.403 1_455 S
H913 C919 0.930 . S
C914 H900 0.930 . S
C914 C912 1.395 . S
C914 C917 1.403 . S
C915 C912 1.403 1_655 S
C915 C916 1.524 . S
C915 C919 1.400 . S
C916 H901 0.960 . S
C916 H902 0.960 . S
C916 H903 0.960 . S
C916 C915 1.524 . S
C917 C914 1.403 . S
C917 C918 1.392 1_455 S
C917 C921 1.495 . S
C918 C917 1.392 1_655 S
C918 C919 1.385 . S
C918 C920 1.478 . S
C919 H913 0.930 . S
C919 C915 1.400 . S
C919 C918 1.385 . S
C920 C918 1.478 . S
C920 C922 1.381 1_655 S
C920 C926 1.383 . S
C921 C917 1.495 . S
C921 H927 0.959 . S
C921 H928 0.961 . S
C921 H929 0.960 . S
C922 C920 1.381 1_455 S
C922 C923 1.397 . S
C922 H930 0.930 . S
C923 C922 1.397 . S
C923 C924 1.371 1_455 S
C923 H931 0.939 . S
C924 C923 1.371 1_655 S
C924 C925 1.377 . S
C925 H909 0.930 . S
C925 C924 1.377 . S
C925 C926 1.379 . S
C926 H910 0.931 . S
C926 C920 1.383 . S
C926 C925 1.379 . S
H927 C921 0.959 . S
H928 C921 0.961 . S
H929 C921 0.960 . S
H930 C922 0.930 . S
H931 C923 0.939 . S
H932 C940 0.929 . S
H933 C942 0.930 . S
H934 C944 0.930 . S
H935 C947 0.929 . S
H936 C950 0.930 . S
H937 C952 0.960 . S
H938 C952 0.960 1_655 S
H939 C952 0.960 . S
C940 H932 0.929 . S
C940 C941 1.377 . S
C940 C942 1.384 . S
C941 C940 1.377 . S
C941 C947 1.390 1_655 S
C942 H933 0.930 . S
C942 C940 1.384 . S
C942 C943 1.372 . S
C943 C942 1.372 . S
C943 C944 1.400 1_655 S
C943 C948 1.490 . S
C944 H934 0.930 . S
C944 C943 1.400 1_455 S
C944 C947 1.386 . S
H945 C961 0.930 . S
H946 C962 0.931 . S
C947 H935 0.929 . S
C947 C941 1.390 1_455 S
C947 C944 1.386 . S
C948 C943 1.490 . S
C948 C950 1.395 . S
C948 C951 1.403 1_655 S
H949 C955 0.930 . S
C950 H936 0.930 . S
C950 C948 1.395 . S
C950 C953 1.403 . S
C951 C948 1.403 1_455 S
C951 C952 1.524 . S
C951 C955 1.400 . S
C952 H937 0.960 . S
C952 H938 0.960 1_455 S
C952 H939 0.960 . S
C952 C951 1.524 . S
C953 C950 1.403 . S
C953 C954 1.392 1_655 S
C953 C957 1.495 . S
C954 C953 1.392 1_455 S
C954 C955 1.385 . S
C954 C956 1.478 . S
C955 H949 0.930 . S
C955 C951 1.400 . S
C955 C954 1.385 . S
C956 C954 1.478 . S
C956 C958 1.381 1_455 S
C956 C962 1.383 . S
C957 C953 1.495 . S
C957 H963 0.959 . S
C957 H964 0.971 . S
C957 H965 0.960 . S
C958 C956 1.381 1_655 S
C958 C959 1.394 . S
C958 H966 0.930 . S
C959 C958 1.394 . S
C959 C960 1.383 1_655 S
C959 H967 0.929 . S
C960 C959 1.383 1_455 S
C960 C961 1.377 . S
C961 H945 0.930 . S
C961 C960 1.377 . S
C961 C962 1.379 . S
C962 H946 0.931 . S
C962 C956 1.383 . S
C962 C961 1.379 . S
H963 C957 0.959 . S
H964 C957 0.971 . S
H965 C957 0.960 . S
H966 C958 0.930 . S
H967 C959 0.929 . S
H968 C976 0.929 1_455 S
H969 C978 0.930 . S
H970 C980 0.930 . S
H971 C983 0.929 . S
H972 C986 0.930 . S
H973 C988 0.960 . S
H974 C988 0.960 . S
H975 C988 0.960 . S
C976 H968 0.929 1_655 S
C976 C977 1.377 . S
C976 C978 1.384 1_655 S
C977 C976 1.377 . S
C977 C983 1.390 . S
C978 H969 0.930 . S
C978 C976 1.384 1_455 S
C978 C979 1.372 1_455 S
C979 C978 1.372 1_655 S
C979 C980 1.400 . S
C979 C984 1.490 . S
C980 H970 0.930 . S
C980 C979 1.400 . S
C980 C983 1.386 . S
H981 C997 0.929 1_655 S
H982 C998 0.931 1_655 S
C983 H971 0.929 . S
C983 C977 1.390 . S
C983 C980 1.386 . S
C984 C979 1.490 . S
C984 C986 1.395 1_655 S
C984 C987 1.403 . S
H985 C991 0.930 . S
C986 H972 0.930 . S
C986 C984 1.395 1_455 S
C986 C989 1.403 . S
C987 C984 1.403 . S
C987 C988 1.524 . S
C987 C991 1.400 . S
C988 H973 0.960 . S
C988 H974 0.960 . S
C988 H975 0.960 . S
C988 C987 1.524 . S
C989 C986 1.403 . S
C989 C990 1.392 . S
C989 C993 1.495 . S
C990 C989 1.392 . S
C990 C991 1.385 1_455 S
C990 C992 1.478 . S
C991 H985 0.930 . S
C991 C987 1.400 . S
C991 C990 1.385 1_655 S
C992 C990 1.478 . S
C992 C994 1.381 . S
C992 C998 1.383 . S
C993 C989 1.495 . S
C993 H999 0.959 . S
C993 H1000 0.961 . S
C993 H1001 0.960 . S
C994 C992 1.381 . S
C994 C995 1.394 . S
C994 H1002 0.930 . S
C995 C994 1.394 . S
C995 C996 1.383 . S
C995 H1003 0.929 . S
C996 C995 1.383 . S
C996 C997 1.377 . S
C997 H981 0.929 1_455 S
C997 C996 1.377 . S
C997 C998 1.379 . S
C998 H982 0.931 1_455 S
C998 C992 1.383 . S
C998 C997 1.379 . S
H999 C993 0.959 . S
H1000 C993 0.961 . S
H1001 C993 0.960 . S
H1002 C994 0.930 . S
H1003 C995 0.929 . S
H1004 C1012 0.929 . S
H1005 C1014 0.930 . S
H1006 C1016 0.930 1_455 S
H1007 C1019 0.929 . S
H1008 C1022 0.930 . S
H1009 C1024 0.960 . S
H1010 C1024 0.960 . S
H1011 C1024 0.960 . S
C1012 H1004 0.929 . S
C1012 C1013 1.377 . S
C1012 C1014 1.384 . S
C1013 C1012 1.377 . S
C1013 C1019 1.390 . S
C1014 H1005 0.930 . S
C1014 C1012 1.384 . S
C1014 C1015 1.372 . S
C1015 C1014 1.372 . S
C1015 C1016 1.400 . S
C1015 C1020 1.490 . S
C1016 H1006 0.930 1_655 S
C1016 C1015 1.400 . S
C1016 C1019 1.386 . S
H1017 C1033 0.930 . S
H1018 C1034 0.931 . S
C1019 H1007 0.929 . S
C1019 C1013 1.390 . S
C1019 C1016 1.386 . S
C1020 C1015 1.490 . S
C1020 C1022 1.395 . S
C1020 C1023 1.403 1_655 S
H1021 C1027 0.930 . S
C1022 H1008 0.930 . S
C1022 C1020 1.395 . S
C1022 C1025 1.403 . S
C1023 C1020 1.403 1_455 S
C1023 C1024 1.524 . S
C1023 C1027 1.400 . S
C1024 H1009 0.960 . S
C1024 H1010 0.960 . S
C1024 H1011 0.960 . S
C1024 C1023 1.524 . S
C1025 C1022 1.403 . S
C1025 C1026 1.392 1_655 S
C1025 C1029 1.495 . S
C1026 C1025 1.392 1_455 S
C1026 C1027 1.385 . S
C1026 C1028 1.478 . S
C1027 H1021 0.930 . S
C1027 C1023 1.400 . S
C1027 C1026 1.385 . S
C1028 C1026 1.478 . S
C1028 C1030 1.381 . S
C1028 C1034 1.383 . S
C1029 C1025 1.495 . S
C1029 H1035 0.959 . S
C1029 H1036 0.961 . S
C1029 H1037 0.960 . S
C1030 C1028 1.381 . S
C1030 C1031 1.394 . S
C1030 H1038 0.930 1_455 S
C1031 C1030 1.394 . S
C1031 C1032 1.383 . S
C1031 H1039 0.929 . S
C1032 C1031 1.383 . S
C1032 C1033 1.377 . S
C1033 H1017 0.930 . S
C1033 C1032 1.377 . S
C1033 C1034 1.379 . S
C1034 H1018 0.931 . S
C1034 C1028 1.383 . S
C1034 C1033 1.379 . S
H1035 C1029 0.959 . S
H1036 C1029 0.961 . S
H1037 C1029 0.960 . S
H1038 C1030 0.930 1_655 S
H1039 C1031 0.929 . S
H1040 C1048 0.929 . S
H1041 C1050 0.930 . S
H1042 C1052 0.930 . S
H1043 C1055 0.929 . S
H1044 C1058 0.930 . S
H1045 C1060 0.960 . S
H1046 C1060 0.960 . S
H1047 C1060 0.960 . S
C1048 H1040 0.929 . S
C1048 C1049 1.377 . S
C1048 C1050 1.384 . S
C1049 C1048 1.377 . S
C1049 C1055 1.390 . S
C1050 H1041 0.930 . S
C1050 C1048 1.384 . S
C1050 C1051 1.372 . S
C1051 C1050 1.372 . S
C1051 C1052 1.400 . S
C1051 C1056 1.490 . S
C1052 H1042 0.930 . S
C1052 C1051 1.400 . S
C1052 C1055 1.386 . S
H1053 C1069 0.930 . S
H1054 C1070 0.931 . S
C1055 H1043 0.929 . S
C1055 C1049 1.390 . S
C1055 C1052 1.386 . S
C1056 C1051 1.490 . S
C1056 C1058 1.395 . S
C1056 C1059 1.403 . S
H1057 C1063 0.930 . S
C1058 H1044 0.930 . S
C1058 C1056 1.395 . S
C1058 C1061 1.403 . S
C1059 C1056 1.403 . S
C1059 C1060 1.524 . S
C1059 C1063 1.400 . S
C1060 H1045 0.960 . S
C1060 H1046 0.960 . S
C1060 H1047 0.960 . S
C1060 C1059 1.524 . S
C1061 C1058 1.403 . S
C1061 C1062 1.392 . S
C1061 C1065 1.495 . S
C1062 C1061 1.392 . S
C1062 C1063 1.385 . S
C1062 C1064 1.478 . S
C1063 H1057 0.930 . S
C1063 C1059 1.400 . S
C1063 C1062 1.385 . S
C1064 C1062 1.478 . S
C1064 C1066 1.381 . S
C1064 C1070 1.383 . S
C1065 C1061 1.495 . S
C1065 H1071 0.959 . S
C1065 H1072 0.961 . S
C1065 H1073 0.960 . S
C1066 C1064 1.381 . S
C1066 C1067 1.394 . S
C1066 H1074 0.930 . S
C1067 C1066 1.394 . S
C1067 C1068 1.383 . S
C1067 H1075 0.929 . S
C1068 C1067 1.383 . S
C1068 C1069 1.377 . S
C1069 H1053 0.930 . S
C1069 C1068 1.377 . S
C1069 C1070 1.379 . S
C1070 H1054 0.931 . S
C1070 C1064 1.383 . S
C1070 C1069 1.379 . S
H1071 C1065 0.959 . S
H1072 C1065 0.961 . S
H1073 C1065 0.960 . S
H1074 C1066 0.930 . S
H1075 C1067 0.929 . S
H1076 C1084 0.929 . S
H1077 C1086 0.930 . S
H1078 C1088 0.930 . S
H1079 C1091 0.929 . S
H1080 C1094 0.930 . S
H1081 C1096 0.960 . S
H1082 C1096 0.960 . S
H1083 C1096 0.960 . S
C1084 H1076 0.929 . S
C1084 C1085 1.377 . S
C1084 C1086 1.384 . S
C1085 C1084 1.377 . S
C1085 C1091 1.390 . S
C1086 H1077 0.930 . S
C1086 C1084 1.384 . S
C1086 C1087 1.372 . S
C1087 C1086 1.372 . S
C1087 C1088 1.400 . S
C1087 C1092 1.490 . S
C1088 H1078 0.930 . S
C1088 C1087 1.400 . S
C1088 C1091 1.386 . S
H1089 C1105 0.930 . S
H1090 C1106 0.931 . S
C1091 H1079 0.929 . S
C1091 C1085 1.390 . S
C1091 C1088 1.386 . S
C1092 C1087 1.490 . S
C1092 C1094 1.395 . S
C1092 C1095 1.403 . S
H1093 C1099 0.930 . S
C1094 H1080 0.930 . S
C1094 C1092 1.395 . S
C1094 C1097 1.403 . S
C1095 C1092 1.403 . S
C1095 C1096 1.524 . S
C1095 C1099 1.400 . S
C1096 H1081 0.960 . S
C1096 H1082 0.960 . S
C1096 H1083 0.960 . S
C1096 C1095 1.524 . S
C1097 C1094 1.403 . S
C1097 C1098 1.392 . S
C1097 C1101 1.495 . S
C1098 C1097 1.392 . S
C1098 C1099 1.385 . S
C1098 C1100 1.478 . S
C1099 H1093 0.930 . S
C1099 C1095 1.400 . S
C1099 C1098 1.385 . S
C1100 C1098 1.478 . S
C1100 C1102 1.381 . S
C1100 C1106 1.383 . S
C1101 C1097 1.495 . S
C1101 H1107 0.959 . S
C1101 H1108 0.961 . S
C1101 H1109 0.960 . S
C1102 C1100 1.381 . S
C1102 C1103 1.394 . S
C1102 H1110 0.930 . S
C1103 C1102 1.394 . S
C1103 C1104 1.383 . S
C1103 H1111 0.929 . S
C1104 C1103 1.383 . S
C1104 C1105 1.377 . S
C1105 H1089 0.930 . S
C1105 C1104 1.377 . S
C1105 C1106 1.379 . S
C1106 H1090 0.931 . S
C1106 C1100 1.383 . S
C1106 C1105 1.379 . S
H1107 C1101 0.959 . S
H1108 C1101 0.961 . S
H1109 C1101 0.960 . S
H1110 C1102 0.930 . S
H1111 C1103 0.929 . S
H1112 C1120 0.929 . S
H1113 C1122 0.930 . S
H1114 C1124 0.930 . S
H1115 C1127 0.929 . S
H1116 C1130 0.930 . S
H1117 C1132 0.960 . S
H1118 C1132 0.960 . S
H1119 C1132 0.960 . S
C1120 H1112 0.929 . S
C1120 C1121 1.377 . S
C1120 C1122 1.384 . S
C1121 C1120 1.377 . S
C1121 C1127 1.390 . S
C1122 H1113 0.930 . S
C1122 C1120 1.384 . S
C1122 C1123 1.372 . S
C1123 C1122 1.372 . S
C1123 C1124 1.400 . S
C1123 C1128 1.490 . S
C1124 H1114 0.930 . S
C1124 C1123 1.400 . S
C1124 C1127 1.386 . S
H1125 C1141 0.930 . S
H1126 C1142 0.931 . S
C1127 H1115 0.929 . S
C1127 C1121 1.390 . S
C1127 C1124 1.386 . S
C1128 C1123 1.490 . S
C1128 C1130 1.395 . S
C1128 C1131 1.403 . S
H1129 C1135 0.930 . S
C1130 H1116 0.930 . S
C1130 C1128 1.395 . S
C1130 C1133 1.403 . S
C1131 C1128 1.403 . S
C1131 C1132 1.524 . S
C1131 C1135 1.400 . S
C1132 H1117 0.960 . S
C1132 H1118 0.960 . S
C1132 H1119 0.960 . S
C1132 C1131 1.524 . S
C1133 C1130 1.403 . S
C1133 C1134 1.392 . S
C1133 C1137 1.495 . S
C1134 C1133 1.392 . S
C1134 C1135 1.385 . S
C1134 C1136 1.478 . S
C1135 H1129 0.930 . S
C1135 C1131 1.400 . S
C1135 C1134 1.385 . S
C1136 C1134 1.478 . S
C1136 C1138 1.381 . S
C1136 C1142 1.383 . S
C1137 C1133 1.495 . S
C1137 H1143 0.959 . S
C1137 H1144 0.961 . S
C1137 H1145 0.960 . S
C1138 C1136 1.381 . S
C1138 C1139 1.394 . S
C1138 H1146 0.930 . S
C1139 C1138 1.394 . S
C1139 C1140 1.383 . S
C1139 H1147 0.929 . S
C1140 C1139 1.383 . S
C1140 C1141 1.377 . S
C1141 H1125 0.930 . S
C1141 C1140 1.377 . S
C1141 C1142 1.379 . S
C1142 H1126 0.931 . S
C1142 C1136 1.383 . S
C1142 C1141 1.379 . S
H1143 C1137 0.959 . S
H1144 C1137 0.961 . S
H1145 C1137 0.960 . S
H1146 C1138 0.930 . S
H1147 C1139 0.929 . S
H1148 C1156 0.929 . S
H1149 C1158 0.930 . S
H1150 C1160 0.930 . S
H1151 C1163 0.929 . S
H1152 C1166 0.930 . S
H1153 C1168 0.960 . S
H1154 C1168 0.960 . S
H1155 C1168 0.960 . S
C1156 H1148 0.929 . S
C1156 C1157 1.377 . S
C1156 C1158 1.384 . S
C1157 C1156 1.377 . S
C1157 C1163 1.390 . S
C1158 H1149 0.930 . S
C1158 C1156 1.384 . S
C1158 C1159 1.372 . S
C1159 C1158 1.372 . S
C1159 C1160 1.400 . S
C1159 C1164 1.490 . S
C1160 H1150 0.930 . S
C1160 C1159 1.400 . S
C1160 C1163 1.386 . S
H1161 C1177 0.930 . S
H1162 C1178 0.931 . S
C1163 H1151 0.929 . S
C1163 C1157 1.390 . S
C1163 C1160 1.386 . S
C1164 C1159 1.490 . S
C1164 C1166 1.395 . S
C1164 C1167 1.403 . S
H1165 C1171 0.930 . S
C1166 H1152 0.930 . S
C1166 C1164 1.395 . S
C1166 C1169 1.403 . S
C1167 C1164 1.403 . S
C1167 C1168 1.524 . S
C1167 C1171 1.400 . S
C1168 H1153 0.960 . S
C1168 H1154 0.960 . S
C1168 H1155 0.960 . S
C1168 C1167 1.524 . S
C1169 C1166 1.403 . S
C1169 C1170 1.392 . S
C1169 C1173 1.495 . S
C1170 C1169 1.392 . S
C1170 C1171 1.385 . S
C1170 C1172 1.478 . S
C1171 H1165 0.930 . S
C1171 C1167 1.400 . S
C1171 C1170 1.385 . S
C1172 C1170 1.478 . S
C1172 C1174 1.381 . S
C1172 C1178 1.383 . S
C1173 C1169 1.495 . S
C1173 H1179 0.959 . S
C1173 H1180 0.961 . S
C1173 H1181 0.960 . S
C1174 C1172 1.381 . S
C1174 C1175 1.394 . S
C1174 H1182 0.930 . S
C1175 C1174 1.394 . S
C1175 C1176 1.383 . S
C1175 H1183 0.929 . S
C1176 C1175 1.383 . S
C1176 C1177 1.377 . S
C1177 H1161 0.930 . S
C1177 C1176 1.377 . S
C1177 C1178 1.379 . S
C1178 H1162 0.931 . S
C1178 C1172 1.383 . S
C1178 C1177 1.379 . S
H1179 C1173 0.959 . S
H1180 C1173 0.961 . S
H1181 C1173 0.960 . S
H1182 C1174 0.930 . S
H1183 C1175 0.929 . S
C329 C11 2.375 . S
C348 C2 2.378 . S
C365 C51 2.378 . S
C384 C42 2.364 . S
C401 C91 2.379 . S
C420 C82 2.368 . S
C437 C131 2.379 . S
C456 C122 2.372 . S
C473 C171 2.377 . S
C492 C162 2.360 . S
C509 C202 2.379 . S
C528 C211 2.375 . S
C545 C251 2.374 . S
C564 C242 2.371 . S
C581 C282 2.376 . S
C600 C291 2.384 . S
C617 C56 2.483 . S
C636 C7 2.498 . S
C653 C127 2.482 . S
C672 C96 2.497 . S
C689 C167 2.480 . S
C708 C216 2.491 . S
C725 C256 2.478 . S
C744 C287 2.460 . S
C761 C16 1.757 . S
C780 C207 1.765 . S
C797 C176 1.758 . S
C816 C47 1.767 . S
C833 C87 1.756 . S
C852 C296 1.744 . S
C869 C136 1.756 . S
C888 C247 1.745 . S
C905 C10 1.467 . S
C924 C130 1.443 . S
C941 C50 1.627 . S
C960 C90 1.642 . S
C977 C59 1.467 . S
C996 C99 1.456 . S
C1013 C139 1.632 . S
C1032 C19 1.613 . S
C1049 C170 1.460 . S
C1068 C290 1.452 . S
C1085 C210 1.624 . S
C1104 C250 1.623 . S
C1121 C219 1.462 . S
C1140 C259 1.436 . S
C1157 C299 1.634 . S
C1176 C179 1.601 . S
