# Generated by pormake.
# Topology wlu, (5)-cn, num edge types: 1
# Building blocks:
#     Node 0, Type 0, BuildingBlock: XOMCOT_clean_sbu_0, # of connection points: 5
#     Node 1, Type 0, BuildingBlock: XOMCOT_clean_sbu_0, # of connection points: 5
#     Node 2, Type 0, BuildingBlock: XOMCOT_clean_sbu_0, # of connection points: 5
#     Node 3, Type 0, BuildingBlock: XOMCOT_clean_sbu_0, # of connection points: 5
#     Node 4, Type 0, BuildingBlock: XOMCOT_clean_sbu_0, # of connection points: 5
#     Node 5, Type 0, BuildingBlock: XOMCOT_clean_sbu_0, # of connection points: 5
#     Node 6, Type 0, BuildingBlock: XOMCOT_clean_sbu_0, # of connection points: 5
#     Node 7, Type 0, BuildingBlock: XOMCOT_clean_sbu_0, # of connection points: 5
#     Node 8, Type 0, BuildingBlock: XOMCOT_clean_sbu_0, # of connection points: 5
#     Node 9, Type 0, BuildingBlock: XOMCOT_clean_sbu_0, # of connection points: 5
#     Node 10, Type 0, BuildingBlock: XOMCOT_clean_sbu_0, # of connection points: 5
#     Node 11, Type 0, BuildingBlock: XOMCOT_clean_sbu_0, # of connection points: 5
#     Node 12, Type 0, BuildingBlock: XOMCOT_clean_sbu_0, # of connection points: 5
#     Node 13, Type 0, BuildingBlock: XOMCOT_clean_sbu_0, # of connection points: 5
#     Node 14, Type 0, BuildingBlock: XOMCOT_clean_sbu_0, # of connection points: 5
#     Node 15, Type 0, BuildingBlock: XOMCOT_clean_sbu_0, # of connection points: 5
#     Node 16, Type 0, BuildingBlock: XOMCOT_clean_sbu_0, # of connection points: 5
#     Node 17, Type 0, BuildingBlock: XOMCOT_clean_sbu_0, # of connection points: 5
#     Node 18, Type 0, BuildingBlock: XOMCOT_clean_sbu_0, # of connection points: 5
#     Node 19, Type 0, BuildingBlock: XOMCOT_clean_sbu_0, # of connection points: 5
#     Node 20, Type 0, BuildingBlock: XOMCOT_clean_sbu_0, # of connection points: 5
#     Node 21, Type 0, BuildingBlock: XOMCOT_clean_sbu_0, # of connection points: 5
#     Node 22, Type 0, BuildingBlock: XOMCOT_clean_sbu_0, # of connection points: 5
#     Node 23, Type 0, BuildingBlock: XOMCOT_clean_sbu_0, # of connection points: 5
#     Node 24, Type 0, BuildingBlock: XOMCOT_clean_sbu_0, # of connection points: 5
#     Node 25, Type 0, BuildingBlock: XOMCOT_clean_sbu_0, # of connection points: 5
#     Node 26, Type 0, BuildingBlock: XOMCOT_clean_sbu_0, # of connection points: 5
#     Node 27, Type 0, BuildingBlock: XOMCOT_clean_sbu_0, # of connection points: 5
#     Node 28, Type 0, BuildingBlock: XOMCOT_clean_sbu_0, # of connection points: 5
#     Node 29, Type 0, BuildingBlock: XOMCOT_clean_sbu_0, # of connection points: 5
#     Node 30, Type 0, BuildingBlock: XOMCOT_clean_sbu_0, # of connection points: 5
#     Node 31, Type 0, BuildingBlock: XOMCOT_clean_sbu_0, # of connection points: 5
#     Node 32, Type 0, BuildingBlock: XOMCOT_clean_sbu_0, # of connection points: 5
#     Node 33, Type 0, BuildingBlock: XOMCOT_clean_sbu_0, # of connection points: 5
#     Node 34, Type 0, BuildingBlock: XOMCOT_clean_sbu_0, # of connection points: 5
#     Node 35, Type 0, BuildingBlock: XOMCOT_clean_sbu_0, # of connection points: 5
#     Edge 36, Type (0, 0), BuildingBlock: KIFKEQ_clean_linker_1, # of connection points: 2
#     Edge 37, Type (0, 0), BuildingBlock: KIFKEQ_clean_linker_1, # of connection points: 2
#     Edge 38, Type (0, 0), BuildingBlock: KIFKEQ_clean_linker_1, # of connection points: 2
#     Edge 39, Type (0, 0), BuildingBlock: KIFKEQ_clean_linker_1, # of connection points: 2
#     Edge 40, Type (0, 0), BuildingBlock: KIFKEQ_clean_linker_1, # of connection points: 2
#     Edge 41, Type (0, 0), BuildingBlock: KIFKEQ_clean_linker_1, # of connection points: 2
#     Edge 42, Type (0, 0), BuildingBlock: KIFKEQ_clean_linker_1, # of connection points: 2
#     Edge 43, Type (0, 0), BuildingBlock: KIFKEQ_clean_linker_1, # of connection points: 2
#     Edge 44, Type (0, 0), BuildingBlock: KIFKEQ_clean_linker_1, # of connection points: 2
#     Edge 45, Type (0, 0), BuildingBlock: KIFKEQ_clean_linker_1, # of connection points: 2
#     Edge 46, Type (0, 0), BuildingBlock: KIFKEQ_clean_linker_1, # of connection points: 2
#     Edge 47, Type (0, 0), BuildingBlock: KIFKEQ_clean_linker_1, # of connection points: 2
#     Edge 48, Type (0, 0), BuildingBlock: KIFKEQ_clean_linker_1, # of connection points: 2
#     Edge 49, Type (0, 0), BuildingBlock: KIFKEQ_clean_linker_1, # of connection points: 2
#     Edge 50, Type (0, 0), BuildingBlock: KIFKEQ_clean_linker_1, # of connection points: 2
#     Edge 51, Type (0, 0), BuildingBlock: KIFKEQ_clean_linker_1, # of connection points: 2
#     Edge 52, Type (0, 0), BuildingBlock: KIFKEQ_clean_linker_1, # of connection points: 2
#     Edge 53, Type (0, 0), BuildingBlock: KIFKEQ_clean_linker_1, # of connection points: 2
#     Edge 54, Type (0, 0), BuildingBlock: KIFKEQ_clean_linker_1, # of connection points: 2
#     Edge 55, Type (0, 0), BuildingBlock: KIFKEQ_clean_linker_1, # of connection points: 2
#     Edge 56, Type (0, 0), BuildingBlock: KIFKEQ_clean_linker_1, # of connection points: 2
#     Edge 57, Type (0, 0), BuildingBlock: KIFKEQ_clean_linker_1, # of connection points: 2
#     Edge 58, Type (0, 0), BuildingBlock: KIFKEQ_clean_linker_1, # of connection points: 2
#     Edge 59, Type (0, 0), BuildingBlock: KIFKEQ_clean_linker_1, # of connection points: 2
#     Edge 60, Type (0, 0), BuildingBlock: KIFKEQ_clean_linker_1, # of connection points: 2
#     Edge 61, Type (0, 0), BuildingBlock: KIFKEQ_clean_linker_1, # of connection points: 2
#     Edge 62, Type (0, 0), BuildingBlock: KIFKEQ_clean_linker_1, # of connection points: 2
#     Edge 63, Type (0, 0), BuildingBlock: KIFKEQ_clean_linker_1, # of connection points: 2
#     Edge 64, Type (0, 0), BuildingBlock: KIFKEQ_clean_linker_1, # of connection points: 2
#     Edge 65, Type (0, 0), BuildingBlock: KIFKEQ_clean_linker_1, # of connection points: 2
#     Edge 66, Type (0, 0), BuildingBlock: KIFKEQ_clean_linker_1, # of connection points: 2
#     Edge 67, Type (0, 0), BuildingBlock: KIFKEQ_clean_linker_1, # of connection points: 2
#     Edge 68, Type (0, 0), BuildingBlock: KIFKEQ_clean_linker_1, # of connection points: 2
#     Edge 69, Type (0, 0), BuildingBlock: KIFKEQ_clean_linker_1, # of connection points: 2
#     Edge 70, Type (0, 0), BuildingBlock: KIFKEQ_clean_linker_1, # of connection points: 2
#     Edge 71, Type (0, 0), BuildingBlock: KIFKEQ_clean_linker_1, # of connection points: 2
#     Edge 72, Type (0, 0), BuildingBlock: KIFKEQ_clean_linker_1, # of connection points: 2
#     Edge 73, Type (0, 0), BuildingBlock: KIFKEQ_clean_linker_1, # of connection points: 2
#     Edge 74, Type (0, 0), BuildingBlock: KIFKEQ_clean_linker_1, # of connection points: 2
#     Edge 75, Type (0, 0), BuildingBlock: KIFKEQ_clean_linker_1, # of connection points: 2
#     Edge 76, Type (0, 0), BuildingBlock: KIFKEQ_clean_linker_1, # of connection points: 2
#     Edge 77, Type (0, 0), BuildingBlock: KIFKEQ_clean_linker_1, # of connection points: 2
#     Edge 78, Type (0, 0), BuildingBlock: KIFKEQ_clean_linker_1, # of connection points: 2
#     Edge 79, Type (0, 0), BuildingBlock: KIFKEQ_clean_linker_1, # of connection points: 2
#     Edge 80, Type (0, 0), BuildingBlock: KIFKEQ_clean_linker_1, # of connection points: 2
#     Edge 81, Type (0, 0), BuildingBlock: KIFKEQ_clean_linker_1, # of connection points: 2
#     Edge 82, Type (0, 0), BuildingBlock: KIFKEQ_clean_linker_1, # of connection points: 2
#     Edge 83, Type (0, 0), BuildingBlock: KIFKEQ_clean_linker_1, # of connection points: 2
#     Edge 84, Type (0, 0), BuildingBlock: KIFKEQ_clean_linker_1, # of connection points: 2
#     Edge 85, Type (0, 0), BuildingBlock: KIFKEQ_clean_linker_1, # of connection points: 2
#     Edge 86, Type (0, 0), BuildingBlock: KIFKEQ_clean_linker_1, # of connection points: 2
#     Edge 87, Type (0, 0), BuildingBlock: KIFKEQ_clean_linker_1, # of connection points: 2
#     Edge 88, Type (0, 0), BuildingBlock: KIFKEQ_clean_linker_1, # of connection points: 2
#     Edge 89, Type (0, 0), BuildingBlock: KIFKEQ_clean_linker_1, # of connection points: 2
#     Edge 90, Type (0, 0), BuildingBlock: KIFKEQ_clean_linker_1, # of connection points: 2
#     Edge 91, Type (0, 0), BuildingBlock: KIFKEQ_clean_linker_1, # of connection points: 2
#     Edge 92, Type (0, 0), BuildingBlock: KIFKEQ_clean_linker_1, # of connection points: 2
#     Edge 93, Type (0, 0), BuildingBlock: KIFKEQ_clean_linker_1, # of connection points: 2
#     Edge 94, Type (0, 0), BuildingBlock: KIFKEQ_clean_linker_1, # of connection points: 2
#     Edge 95, Type (0, 0), BuildingBlock: KIFKEQ_clean_linker_1, # of connection points: 2
#     Edge 96, Type (0, 0), BuildingBlock: KIFKEQ_clean_linker_1, # of connection points: 2
#     Edge 97, Type (0, 0), BuildingBlock: KIFKEQ_clean_linker_1, # of connection points: 2
#     Edge 98, Type (0, 0), BuildingBlock: KIFKEQ_clean_linker_1, # of connection points: 2
#     Edge 99, Type (0, 0), BuildingBlock: KIFKEQ_clean_linker_1, # of connection points: 2
#     Edge 100, Type (0, 0), BuildingBlock: KIFKEQ_clean_linker_1, # of connection points: 2
#     Edge 101, Type (0, 0), BuildingBlock: KIFKEQ_clean_linker_1, # of connection points: 2
#     Edge 102, Type (0, 0), BuildingBlock: KIFKEQ_clean_linker_1, # of connection points: 2
#     Edge 103, Type (0, 0), BuildingBlock: KIFKEQ_clean_linker_1, # of connection points: 2
#     Edge 104, Type (0, 0), BuildingBlock: KIFKEQ_clean_linker_1, # of connection points: 2
#     Edge 105, Type (0, 0), BuildingBlock: KIFKEQ_clean_linker_1, # of connection points: 2
#     Edge 106, Type (0, 0), BuildingBlock: KIFKEQ_clean_linker_1, # of connection points: 2
#     Edge 107, Type (0, 0), BuildingBlock: KIFKEQ_clean_linker_1, # of connection points: 2
#     Edge 108, Type (0, 0), BuildingBlock: KIFKEQ_clean_linker_1, # of connection points: 2
#     Edge 109, Type (0, 0), BuildingBlock: KIFKEQ_clean_linker_1, # of connection points: 2
#     Edge 110, Type (0, 0), BuildingBlock: KIFKEQ_clean_linker_1, # of connection points: 2
#     Edge 111, Type (0, 0), BuildingBlock: KIFKEQ_clean_linker_1, # of connection points: 2
#     Edge 112, Type (0, 0), BuildingBlock: KIFKEQ_clean_linker_1, # of connection points: 2
#     Edge 113, Type (0, 0), BuildingBlock: KIFKEQ_clean_linker_1, # of connection points: 2
#     Edge 114, Type (0, 0), BuildingBlock: KIFKEQ_clean_linker_1, # of connection points: 2
#     Edge 115, Type (0, 0), BuildingBlock: KIFKEQ_clean_linker_1, # of connection points: 2
#     Edge 116, Type (0, 0), BuildingBlock: KIFKEQ_clean_linker_1, # of connection points: 2
#     Edge 117, Type (0, 0), BuildingBlock: KIFKEQ_clean_linker_1, # of connection points: 2
#     Edge 118, Type (0, 0), BuildingBlock: KIFKEQ_clean_linker_1, # of connection points: 2
#     Edge 119, Type (0, 0), BuildingBlock: KIFKEQ_clean_linker_1, # of connection points: 2
#     Edge 120, Type (0, 0), BuildingBlock: KIFKEQ_clean_linker_1, # of connection points: 2
#     Edge 121, Type (0, 0), BuildingBlock: KIFKEQ_clean_linker_1, # of connection points: 2
#     Edge 122, Type (0, 0), BuildingBlock: KIFKEQ_clean_linker_1, # of connection points: 2
#     Edge 123, Type (0, 0), BuildingBlock: KIFKEQ_clean_linker_1, # of connection points: 2
#     Edge 124, Type (0, 0), BuildingBlock: KIFKEQ_clean_linker_1, # of connection points: 2
#     Edge 125, Type (0, 0), BuildingBlock: KIFKEQ_clean_linker_1, # of connection points: 2
# Relax obj value: 0.117
# Max RMSD: 0.162
# Mean RMSD: 0.160
data_MOF--net-wlu--node1-XOMCOT_clean_sbu_0--edge1-KIFKEQ_clean_linker_1
_symmetry_space_group_name_H-M    P1
_symmetry_Int_Tables_number       1
_symmetry_cell_setting            triclinic
loop_
_symmetry_equiv_pos_as_xyz
'x, y, z'
_cell_length_a     67.030749
_cell_length_b     67.043121
_cell_length_c     57.06095
_cell_angle_alpha  89.948051
_cell_angle_beta   90.009181
_cell_angle_gamma 119.96791
loop_
_atom_site_label
_atom_site_type_symbol
_atom_site_fract_x
_atom_site_fract_y
_atom_site_fract_z
_atom_type_partial_charge
Co0 Co 0.29111 0.20037 0.02334 0.0
C1 C 0.26508 0.14974 0.01263 0.0
C2 C 0.24599 0.16649 1.00405 0.0
C3 C 0.23386 0.14409 0.99628 0.0
N4 N 0.26542 0.17007 0.01484 0.0
N5 N 0.24592 0.13353 1.00158 0.0
H6 H 0.27924 0.1472 0.01711 0.0
H7 H 0.24147 0.17964 1.00082 0.0
C8 C 0.24966 0.19943 0.04504 0.0
O9 O 0.24328 0.17897 0.05379 0.0
N10 N 0.31686 0.23047 0.03113 0.0
C11 C 0.33838 0.23473 0.0354 0.0
C12 C 0.35161 0.25714 0.0426 0.0
C13 C 0.31728 0.25048 0.03588 0.0
N14 N 0.33845 0.26719 0.04296 0.0
C15 C 0.30367 0.17595 0.0559 0.0
C16 C 0.30193 0.19849 0.09563 0.0
C17 C 0.31191 0.18441 0.09728 0.0
C18 C 0.3119 0.17248 0.0771 0.0
C19 C 0.2934 0.20112 0.07409 0.0
N20 N 0.29444 0.19003 0.05441 0.0
H21 H 0.30662 0.16873 0.04038 0.0
H22 H 0.28776 0.21361 0.07297 0.0
H23 H 0.34388 0.22209 0.03429 0.0
H24 H 0.30236 0.25261 0.03463 0.0
O25 O 0.31173 0.19354 1.00571 0.0
O26 O 0.29257 0.20974 0.9912 0.0
O27 O 0.26889 0.21055 0.0343 0.0
C28 C 0.30678 0.20216 0.98767 0.0
H29 H 0.21774 0.13645 0.98679 0.0
H30 H 0.36937 0.26502 0.0482 0.0
H31 H 0.30197 0.2086 0.11043 0.0
H32 H 0.31916 0.16123 0.07728 0.0
Co33 Co 0.83125 0.09653 0.02709 0.0
C34 C 0.87987 0.12248 0.00907 0.0
C35 C 0.87594 0.09892 0.03646 0.0
C36 C 0.8986 0.11028 0.02932 0.0
N37 N 0.864 0.10635 0.02367 0.0
N38 N 0.90109 0.12513 0.01211 0.0
H39 H 0.87623 0.13232 0.99655 0.0
H40 H 0.86902 0.08662 0.05057 0.0
C41 C 0.82488 0.05237 0.05269 0.0
O42 O 0.83051 0.061 0.07387 0.0
N43 N 0.79851 0.08664 0.03022 0.0
C44 C 0.78886 0.09992 0.02674 0.0
C45 C 0.76574 0.08737 0.03187 0.0
C46 C 0.78091 0.0661 0.03757 0.0
N47 N 0.76083 0.06623 0.03886 0.0
C48 C 0.8544 0.13083 0.06216 0.0
C49 C 0.82352 0.10932 0.09828 0.0
C50 C 0.84142 0.13208 0.10162 0.0
C51 C 0.85723 0.14259 0.08325 0.0
C52 C 0.8214 0.0981 0.07692 0.0
N53 N 0.8367 0.10883 0.05905 0.0
H54 H 0.86603 0.13988 0.04788 0.0
H55 H 0.80697 0.08099 0.0747 0.0
H56 H 0.79799 0.11783 0.02163 0.0
H57 H 0.78278 0.05162 0.04282 0.0
O58 O 0.83609 0.12392 0.01041 0.0
O59 O 0.8268 0.09041 0.99404 0.0
O60 O 0.8248 0.0645 0.03545 0.0
C61 C 0.83104 0.11143 0.99145 0.0
H62 H 0.91235 0.1083 0.03681 0.0
H63 H 0.75371 0.0937 0.03176 0.0
H64 H 0.81061 0.10048 0.11169 0.0
H65 H 0.87152 0.16 0.08489 0.0
Co66 Co 0.93653 0.74318 0.02619 0.0
C67 C 0.90969 0.76742 0.01697 0.0
C68 C 0.94567 0.78858 0.00989 0.0
C69 C 0.9347 0.8003 1.00303 0.0
N70 N 0.93021 0.76815 0.01937 0.0
N71 N 0.91202 0.78698 0.00736 0.0
H72 H 0.89322 0.75255 0.02076 0.0
H73 H 0.96355 0.79405 0.00658 0.0
C74 C 0.97702 0.78495 0.04804 0.0
O75 O 0.96285 0.79036 0.05839 0.0
N76 N 0.94312 0.71831 0.03215 0.0
C77 C 0.92991 0.69589 0.02624 0.0
C78 C 0.94058 0.68396 0.03351 0.0
C79 C 0.96158 0.7195 0.04323 0.0
N80 N 0.96039 0.69879 0.04428 0.0
C81 C 0.90024 0.72865 0.05982 0.0
C82 C 0.92541 0.73065 0.09891 0.0
C83 C 0.90129 0.71978 0.10092 0.0
C84 C 0.88892 0.71974 0.08107 0.0
C85 C 0.93619 0.7399 0.07731 0.0
N86 N 0.92359 0.73851 0.05787 0.0
H87 H 0.88978 0.72601 0.0446 0.0
H88 H 0.95452 0.74678 0.07604 0.0
H89 H 0.91345 0.68842 0.01746 0.0
H90 H 0.97565 0.73508 0.05048 0.0
O91 O 0.90877 0.72213 0.00944 0.0
O92 O 0.94322 0.74279 0.99325 0.0
O93 O 0.96902 0.76633 0.03622 0.0
C94 C 0.92145 0.72791 0.99066 0.0
H95 H 0.94262 0.81673 0.99407 0.0
H96 H 0.93399 0.66565 0.03162 0.0
H97 H 0.93588 0.73097 0.1135 0.0
H98 H 0.87038 0.71205 0.08155 0.0
Co99 Co 0.21251 0.27518 0.47015 0.0
C100 C 0.25902 0.29817 0.44777 0.0
C101 C 0.26061 0.29797 0.48536 0.0
C102 C 0.28271 0.30861 0.47668 0.0
N103 N 0.24577 0.29143 0.46729 0.0
N104 N 0.28175 0.30878 0.45305 0.0
H105 H 0.25221 0.29525 0.43012 0.0
H106 H 0.25566 0.2952 0.50364 0.0
C107 C 0.20538 0.31005 0.49779 0.0
O108 O 0.18832 0.30742 0.48432 0.0
N109 N 0.17892 0.25831 0.47355 0.0
C110 C 0.16378 0.2419 0.45891 0.0
C111 C 0.14195 0.23252 0.46806 0.0
C112 C 0.16588 0.25785 0.492 0.0
N113 N 0.14323 0.24264 0.48879 0.0
C114 C 0.20053 0.28221 0.42347 0.0
C115 C 0.2198 0.32944 0.42661 0.0
C116 C 0.20786 0.31832 0.40616 0.0
C117 C 0.19859 0.29443 0.40454 0.0
C118 C 0.22159 0.3166 0.44499 0.0
N119 N 0.2109 0.2931 0.44386 0.0
H120 H 0.19404 0.26404 0.42148 0.0
H121 H 0.23192 0.32571 0.46 0.0
H122 H 0.16814 0.2362 0.44306 0.0
H123 H 0.17274 0.26767 0.50791 0.0
O124 O 0.21124 0.24906 0.45369 0.0
O125 O 0.21409 0.25426 0.49212 0.0
O126 O 0.2158 0.29883 0.49387 0.0
C127 C 0.21293 0.24165 0.47434 0.0
H128 H 0.29833 0.31609 0.48702 0.0
H129 H 0.1263 0.21922 0.46003 0.0
H130 H 0.22811 0.34799 0.42821 0.0
H131 H 0.18972 0.28517 0.38885 0.0
Co132 Co 0.75335 0.9426 0.47544 0.0
C133 C 0.7294 0.96547 0.45409 0.0
C134 C 0.72694 0.96399 0.49167 0.0
C135 C 0.71624 0.97557 0.48337 0.0
N136 N 0.73512 0.95764 0.47334 0.0
N137 N 0.71777 0.9765 0.45976 0.0
H138 H 0.73398 0.96349 0.43641 0.0
H139 H 0.72887 0.96068 0.50984 0.0
C140 C 0.71957 0.90013 0.50325 0.0
O141 O 0.71908 0.88585 0.48721 0.0
N142 N 0.77237 0.92798 0.47811 0.0
C143 C 0.79085 0.93267 0.46473 0.0
C144 C 0.80095 0.92054 0.473 0.0
C145 C 0.77216 0.91353 0.49493 0.0
N146 N 0.78913 0.90841 0.49193 0.0
C147 C 0.74555 0.91935 0.43082 0.0
C148 C 0.69801 0.89525 0.43355 0.0
C149 C 0.70859 0.89151 0.41414 0.0
C150 C 0.73274 0.90417 0.41278 0.0
C151 C 0.71148 0.91065 0.45112 0.0
N152 N 0.735 0.92173 0.45019 0.0
H153 H 0.76396 0.92942 0.42893 0.0
H154 H 0.70292 0.91344 0.46574 0.0
H155 H 0.79709 0.94454 0.45014 0.0
H156 H 0.76071 0.90762 0.5098 0.0
O157 O 0.77751 0.96796 0.45747 0.0
O158 O 0.77417 0.96654 0.49615 0.0
O159 O 0.73187 0.92189 0.50056 0.0
C160 C 0.78524 0.97807 0.47767 0.0
H161 H 0.70778 0.98256 0.49392 0.0
H162 H 0.81584 0.9206 0.46558 0.0
H163 H 0.67946 0.88611 0.43544 0.0
H164 H 0.74173 0.9027 0.39771 0.0
Co165 Co 0.09053 0.81767 0.47927 0.0
C166 C 0.06876 0.76941 0.46133 0.0
C167 C 0.0693 0.77125 0.4989 0.0
C168 C 0.05883 0.7485 0.49239 0.0
N169 N 0.07561 0.78436 0.47949 0.0
N170 N 0.05853 0.74718 0.46872 0.0
H171 H 0.07147 0.77481 0.4432 0.0
H172 H 0.07196 0.77782 0.51662 0.0
C173 C 0.13321 0.82752 0.50773 0.0
O174 O 0.14791 0.84066 0.49161 0.0
N175 N 0.1052 0.85139 0.47972 0.0
C176 C 0.10064 0.8643 0.46488 0.0
C177 C 0.11247 0.88691 0.47187 0.0
C178 C 0.11931 0.86658 0.49613 0.0
N179 N 0.12426 0.88844 0.49155 0.0
C180 C 0.11143 0.82959 0.43358 0.0
C181 C 0.13839 0.8093 0.43814 0.0
C182 C 0.14057 0.82198 0.41774 0.0
C183 C 0.12631 0.83165 0.41543 0.0
C184 C 0.12314 0.8076 0.45589 0.0
N185 N 0.11082 0.81878 0.45404 0.0
H186 H 0.10014 0.83646 0.43095 0.0
H187 H 0.12145 0.79748 0.47129 0.0
H188 H 0.0888 0.85782 0.45031 0.0
H189 H 0.12497 0.8618 0.51177 0.0
O190 O 0.06482 0.81535 0.4611 0.0
O191 O 0.06707 0.81597 0.49985 0.0
O192 O 0.11154 0.81828 0.5047 0.0
C193 C 0.05525 0.81455 0.48127 0.0
H194 H 0.05174 0.73412 0.50442 0.0
H195 H 0.11224 0.90112 0.46312 0.0
H196 H 0.14863 0.80109 0.44062 0.0
H197 H 0.12641 0.84056 0.39955 0.0
Co198 Co 0.74795 0.82574 0.98574 0.0
C199 C 0.77109 0.8754 1.00006 0.0
C200 C 0.79197 0.86022 0.00713 0.0
C201 C 0.80329 0.88253 0.01528 0.0
N202 N 0.77205 0.85585 0.99682 0.0
N203 N 0.79007 0.892 0.01094 0.0
H204 H 0.75659 0.8774 0.99552 0.0
H205 H 0.79753 0.84774 0.00954 0.0
C206 C 0.79154 0.82951 0.96556 0.0
O207 O 0.79808 0.8503 0.95766 0.0
N208 N 0.72372 0.7959 0.97526 0.0
C209 C 0.70231 0.79117 0.96953 0.0
C210 C 0.68988 0.76871 0.96225 0.0
C211 C 0.72413 0.77621 0.97121 0.0
N212 N 0.70352 0.75925 0.9633 0.0
C213 C 0.73487 0.85074 0.9548 0.0
C214 C 0.74144 0.8335 0.91339 0.0
C215 C 0.72949 0.84574 0.91281 0.0
C216 C 0.72693 0.85497 0.93383 0.0
C217 C 0.74916 0.82962 0.93489 0.0
N218 N 0.74573 0.83809 0.95538 0.0
H219 H 0.73028 0.85598 0.97075 0.0
H220 H 0.75616 0.81821 0.93512 0.0
H221 H 0.69623 0.80336 0.97025 0.0
H222 H 0.73902 0.77425 0.97408 0.0
O223 O 0.72523 0.82966 1.00301 0.0
O224 O 0.7451 0.81406 0.01719 0.0
O225 O 0.77175 0.8176 0.97503 0.0
C226 C 0.72957 0.81996 0.02052 0.0
H227 H 0.81947 0.8908 0.0247 0.0
H228 H 0.67223 0.76013 0.95614 0.0
H229 H 0.7434 0.82564 0.89764 0.0
H230 H 0.71779 0.86449 0.9343 0.0
Co231 Co 0.20737 0.93039 0.98693 0.0
C232 C 0.15711 0.9049 0.99992 0.0
C233 C 0.17466 0.93979 0.01194 0.0
C234 C 0.15252 0.92904 0.02059 0.0
N235 N 0.17759 0.92481 0.99867 0.0
N236 N 0.14147 0.90702 0.0131 0.0
H237 H 0.15389 0.88875 0.99268 0.0
H238 H 0.18805 0.9572 0.01583 0.0
C239 C 0.20155 0.9687 0.96682 0.0
O240 O 0.18015 0.95371 0.96133 0.0
N241 N 0.23694 0.93565 0.97589 0.0
C242 C 0.24143 0.91879 0.97023 0.0
C243 C 0.26387 0.92856 0.96292 0.0
C244 C 0.25677 0.9556 0.97182 0.0
N245 N 0.27358 0.95168 0.96394 0.0
C246 C 0.18237 0.89104 0.95747 0.0
C247 C 0.19921 0.91378 0.91547 0.0
C248 C 0.18764 0.88957 0.91554 0.0
C249 C 0.17836 0.87833 0.93689 0.0
C250 C 0.20238 0.92591 0.93647 0.0
N251 N 0.19431 0.91456 0.9573 0.0
H252 H 0.17757 0.8817 0.97377 0.0
H253 H 0.21323 0.94438 0.9361 0.0
H254 H 0.22913 0.90057 0.9712 0.0
H255 H 0.25896 0.97251 0.97482 0.0
O256 O 0.20402 0.90462 1.00553 0.0
O257 O 0.22024 0.94075 0.01769 0.0
O258 O 0.21481 0.96172 0.97479 0.0
C259 C 0.21446 0.91954 0.02218 0.0
H260 H 0.14531 0.93676 0.03193 0.0
H261 H 0.27231 0.91931 0.95696 0.0
H262 H 0.20721 0.92344 0.89968 0.0
H263 H 0.16901 0.85973 0.93806 0.0
Co264 Co 0.10283 0.28028 0.97553 0.0
C265 C 0.13085 0.2603 0.99455 0.0
C266 C 0.09551 0.24156 1.00533 0.0
C267 C 0.10706 0.23167 0.01564 0.0
N268 N 0.11033 0.2594 0.99193 0.0
N269 N 0.12932 0.24346 0.00888 0.0
H270 H 0.14678 0.27338 0.98694 0.0
H271 H 0.07762 0.23643 0.00794 0.0
C272 C 0.05564 0.24828 0.95277 0.0
O273 O 0.05771 0.26331 0.93682 0.0
N274 N 0.09577 0.30174 0.95958 0.0
C275 C 0.111 0.3197 0.94648 0.0
C276 C 0.10119 0.33242 0.93954 0.0
C277 C 0.07698 0.30432 0.96104 0.0
N278 N 0.07979 0.32271 0.94849 0.0
C279 C 0.14319 0.29444 0.94781 0.0
C280 C 0.12141 0.27542 0.90597 0.0
C281 C 0.14491 0.29219 0.90556 0.0
C282 C 0.15592 0.30085 0.92708 0.0
C283 C 0.10924 0.2694 0.92724 0.0
N284 N 0.11988 0.27988 0.94773 0.0
H285 H 0.15199 0.30309 0.96366 0.0
H286 H 0.09115 0.25721 0.92674 0.0
H287 H 0.12839 0.32384 0.94261 0.0
H288 H 0.06169 0.29312 0.97107 0.0
O289 O 0.12751 0.30616 0.99193 0.0
O290 O 0.0916 0.28581 1.00461 0.0
O291 O 0.07259 0.25217 0.96608 0.0
C292 C 0.11244 0.30262 0.00811 0.0
H293 H 0.09957 0.21693 0.02724 0.0
H294 H 0.10915 0.34764 0.92857 0.0
H295 H 0.11223 0.26762 0.8899 0.0
H296 H 0.17393 0.31393 0.92792 0.0
Co297 Co 0.82898 0.75049 0.53642 0.0
C298 C 0.87718 0.76855 0.51936 0.0
C299 C 0.86286 0.78917 0.50792 0.0
C300 C 0.8848 0.79842 0.49892 0.0
N301 N 0.85817 0.7706 0.52102 0.0
N302 N 0.89384 0.78545 0.50618 0.0
H303 H 0.8787 0.75464 0.52688 0.0
H304 H 0.85097 0.79531 0.50469 0.0
C305 C 0.81429 0.78349 0.55749 0.0
O306 O 0.80016 0.76841 0.57278 0.0
N307 N 0.7997 0.72978 0.55144 0.0
C308 C 0.79606 0.71213 0.56561 0.0
C309 C 0.77319 0.69975 0.57136 0.0
C310 C 0.77857 0.72739 0.54819 0.0
N311 N 0.76229 0.70943 0.56062 0.0
C312 C 0.85359 0.73547 0.56539 0.0
C313 C 0.85065 0.75485 0.60697 0.0
C314 C 0.85732 0.73805 0.60752 0.0
C315 C 0.85987 0.72931 0.58622 0.0
C316 C 0.84467 0.76079 0.58548 0.0
N317 N 0.8451 0.75026 0.56509 0.0
H318 H 0.85377 0.72659 0.54977 0.0
H319 H 0.83858 0.77286 0.58572 0.0
H320 H 0.80891 0.70788 0.57098 0.0
H321 H 0.77517 0.73835 0.53692 0.0
O322 O 0.8273 0.72404 0.52086 0.0
O323 O 0.81372 0.74553 0.50639 0.0
O324 O 0.82765 0.77922 0.5451 0.0
C325 C 0.81717 0.72823 0.50372 0.0
H326 H 0.89341 0.8136 0.48798 0.0
H327 H 0.76506 0.68465 0.58249 0.0
H328 H 0.84868 0.76224 0.62306 0.0
H329 H 0.8654 0.71664 0.58574 0.0
Co330 Co 0.28129 0.08558 0.53684 0.0
C331 C 0.25723 0.1109 0.52183 0.0
C332 C 0.24122 0.07675 0.50789 0.0
C333 C 0.23021 0.08779 0.49886 0.0
N334 N 0.25799 0.09111 0.52265 0.0
N335 N 0.24034 0.10934 0.50765 0.0
H336 H 0.26949 0.12662 0.53027 0.0
H337 H 0.23764 0.05958 0.50348 0.0
C338 C 0.2358 0.04592 0.55273 0.0
O339 O 0.22844 0.06034 0.55747 0.0
N340 N 0.30481 0.08054 0.55056 0.0
C341 C 0.32453 0.09733 0.55998 0.0
C342 C 0.3359 0.08753 0.57064 0.0
C343 C 0.30459 0.06065 0.55527 0.0
N344 N 0.3234 0.06456 0.5677 0.0
C345 C 0.29256 0.12398 0.56657 0.0
C346 C 0.2797 0.10038 0.60854 0.0
C347 C 0.29178 0.12459 0.60897 0.0
C348 C 0.29777 0.13625 0.5875 0.0
C349 C 0.27456 0.08865 0.58701 0.0
N350 N 0.28092 0.10046 0.56624 0.0
H351 H 0.29963 0.13372 0.55072 0.0
H352 H 0.26692 0.07017 0.58727 0.0
H353 H 0.32998 0.11546 0.5597 0.0
H354 H 0.29073 0.04374 0.5505 0.0
O355 O 0.30504 0.11214 0.52031 0.0
O356 O 0.28672 0.07655 0.50645 0.0
O357 O 0.2568 0.05365 0.54691 0.0
C358 C 0.30201 0.09807 0.50325 0.0
H359 H 0.21605 0.08054 0.48654 0.0
H360 H 0.35209 0.09654 0.57999 0.0
H361 H 0.27496 0.09058 0.62469 0.0
H362 H 0.3079 0.15486 0.58677 0.0
Co363 Co 0.94586 0.2007 0.54129 0.0
C364 C 0.91808 0.15643 0.51558 0.0
C365 C 0.9507 0.16087 0.52617 0.0
C366 C 0.9382 0.13964 0.51572 0.0
N367 N 0.93817 0.17158 0.52607 0.0
N368 N 0.91761 0.13676 0.50921 0.0
H369 H 0.90371 0.15932 0.51328 0.0
H370 H 0.96728 0.16721 0.53435 0.0
C371 C 0.99577 0.21968 0.55922 0.0
O372 O 0.99557 0.23478 0.57368 0.0
N373 N 0.95243 0.22934 0.55649 0.0
C374 C 0.9376 0.23101 0.57124 0.0
C375 C 0.94587 0.25365 0.57684 0.0
C376 C 0.96933 0.25138 0.55268 0.0
N377 N 0.96582 0.26646 0.56532 0.0
C378 C 0.90823 0.16979 0.56976 0.0
C379 C 0.93092 0.18144 0.61227 0.0
C380 C 0.90671 0.16839 0.61221 0.0
C381 C 0.89554 0.16191 0.59044 0.0
C382 C 0.94303 0.18899 0.59103 0.0
N383 N 0.93155 0.18393 0.57014 0.0
H384 H 0.89893 0.16594 0.55344 0.0
H385 H 0.96139 0.20016 0.59163 0.0
H386 H 0.92138 0.21677 0.57708 0.0
H387 H 0.98357 0.25629 0.54072 0.0
O388 O 0.91926 0.20001 0.52697 0.0
O389 O 0.95416 0.21612 0.51135 0.0
O390 O 0.97741 0.20497 0.54865 0.0
C391 C 0.93282 0.21112 0.50953 0.0
H392 H 0.94334 0.12672 0.51438 0.0
H393 H 0.93778 0.26027 0.58847 0.0
H394 H 0.94041 0.18656 0.62859 0.0
H395 H 0.87695 0.15215 0.58923 0.0
Co396 Co 0.9568 0.53224 0.35978 0.0
C397 C 0.9323 0.48124 0.3505 0.0
C398 C 0.91111 0.4961 0.34373 0.0
C399 C 0.89926 0.47336 0.33704 0.0
N400 N 0.93164 0.50106 0.35293 0.0
N401 N 0.91261 0.464 0.34119 0.0
H402 H 0.94718 0.4796 0.35408 0.0
H403 H 0.9056 0.50851 0.34055 0.0
C404 C 0.91525 0.53182 0.38147 0.0
O405 O 0.90938 0.51222 0.39201 0.0
N406 N 0.98194 0.5635 0.36583 0.0
C407 C 1.00454 0.57184 0.36144 0.0
C408 C 1.01679 0.59439 0.36874 0.0
C409 C 0.98091 0.58122 0.37604 0.0
N410 N 1.00195 0.60024 0.37802 0.0
C411 C 0.97062 0.50992 0.3935 0.0
C412 C 0.96882 0.53317 0.43259 0.0
C413 C 0.97913 0.51939 0.4347 0.0
C414 C 0.9791 0.50708 0.41483 0.0
C415 C 0.95998 0.53513 0.41088 0.0
N416 N 0.96118 0.52378 0.39148 0.0
H417 H 0.97328 0.50211 0.3783 0.0
H418 H 0.95358 0.54699 0.4095 0.0
H419 H 1.01193 0.56222 0.35387 0.0
H420 H 0.96522 0.58031 0.38219 0.0
O421 O 0.97774 0.52528 0.34308 0.0
O422 O 0.95743 0.53948 0.32687 0.0
O423 O 0.93391 0.542 0.36964 0.0
C424 C 0.97219 0.53243 0.32431 0.0
H425 H 0.88269 0.46481 0.32837 0.0
H426 H 0.03531 0.60538 0.36806 0.0
H427 H 0.96864 0.54336 0.44719 0.0
H428 H 0.9864 0.49588 0.41535 0.0
Co429 Co 0.4996 0.43057 0.35847 0.0
C430 C 0.54985 0.45755 0.34609 0.0
C431 C 0.53492 0.42133 0.33995 0.0
C432 C 0.5573 0.43222 0.33216 0.0
N433 N 0.53018 0.43707 0.34895 0.0
N434 N 0.56675 0.45504 0.33587 0.0
H435 H 0.55145 0.47401 0.35017 0.0
H436 H 0.52261 0.40324 0.33801 0.0
C437 C 0.4775 0.38188 0.38071 0.0
O438 O 0.46322 0.38482 0.39406 0.0
N439 N 0.46896 0.42447 0.36736 0.0
C440 C 0.46453 0.43959 0.37844 0.0
C441 C 0.44127 0.4295 0.38237 0.0
C442 C 0.448 0.40565 0.36373 0.0
N443 N 0.43084 0.40803 0.37345 0.0
C444 C 0.52193 0.46859 0.3901 0.0
C445 C 0.50832 0.44367 0.43125 0.0
C446 C 0.51684 0.46747 0.43215 0.0
C447 C 0.5248 0.48008 0.41134 0.0
C448 C 0.50624 0.43289 0.40962 0.0
N449 N 0.51147 0.44508 0.38913 0.0
H450 H 0.52653 0.47869 0.37428 0.0
H451 H 0.49969 0.41472 0.40969 0.0
H452 H 0.47733 0.45674 0.38375 0.0
H453 H 0.44543 0.3902 0.35502 0.0
O454 O 0.50377 0.45737 0.34144 0.0
O455 O 0.48947 0.4225 0.32629 0.0
O456 O 0.49298 0.39858 0.36861 0.0
C457 C 0.49557 0.44404 0.32326 0.0
H458 H 0.56579 0.4239 0.32398 0.0
H459 H 0.43282 0.43701 0.39218 0.0
H460 H 0.5027 0.43337 0.44708 0.0
H461 H 0.53166 0.49853 0.4112 0.0
Co462 Co 0.60139 0.07781 0.36111 0.0
C463 C 0.57404 0.10018 0.34728 0.0
C464 C 0.61011 0.12123 0.34005 0.0
C465 C 0.59896 0.13228 0.33171 0.0
N466 N 0.59461 0.10119 0.35003 0.0
N467 N 0.57623 0.11905 0.33612 0.0
H468 H 0.55773 0.08554 0.35228 0.0
H469 H 0.62821 0.127 0.33801 0.0
C470 C 0.649 0.10574 0.38505 0.0
O471 O 0.64571 0.08913 0.39954 0.0
N472 N 0.6078 0.05391 0.37163 0.0
C473 C 0.59223 0.03401 0.38188 0.0
C474 C 0.60232 0.02097 0.38652 0.0
C475 C 0.62703 0.05221 0.36934 0.0
N476 N 0.62427 0.03247 0.3789 0.0
C477 C 0.5622 0.06101 0.3912 0.0
C478 C 0.585 0.07754 0.43312 0.0
C479 C 0.56141 0.06098 0.43369 0.0
C480 C 0.54997 0.05345 0.41218 0.0
C481 C 0.59668 0.08465 0.41157 0.0
N482 N 0.58554 0.07537 0.39092 0.0
H483 H 0.55281 0.05382 0.37521 0.0
H484 H 0.61467 0.09719 0.41191 0.0
H485 H 0.57464 0.02915 0.38582 0.0
H486 H 0.64284 0.06531 0.36135 0.0
O487 O 0.57552 0.05457 0.34352 0.0
O488 O 0.61084 0.07543 0.32955 0.0
O489 O 0.63269 0.10379 0.37179 0.0
C490 C 0.58954 0.05963 0.32597 0.0
H491 H 0.60703 0.14872 0.32277 0.0
H492 H 0.59436 1.00463 0.39567 0.0
H493 H 0.59452 0.08467 0.44918 0.0
H494 H 0.53185 0.04068 0.41135 0.0
Co495 Co 0.88027 0.61075 0.80938 0.0
C496 C 0.92729 0.63497 0.78859 0.0
C497 C 0.92794 0.63712 0.82618 0.0
C498 C 0.95027 0.64791 0.81807 0.0
N499 N 0.91356 0.62907 0.80772 0.0
N500 N 0.94988 0.64658 0.79445 0.0
H501 H 0.92087 0.63051 0.77085 0.0
H502 H 0.92253 0.63501 0.84431 0.0
C503 C 0.87154 0.64433 0.83754 0.0
O504 O 0.85804 0.64532 0.82145 0.0
N505 N 0.84657 0.5916 0.81147 0.0
C506 C 0.83327 0.57341 0.79758 0.0
C507 C 0.81082 0.56311 0.80504 0.0
C508 C 0.83172 0.59143 0.82783 0.0
N509 N 0.80974 0.57439 0.82408 0.0
C510 C 0.86541 0.61912 0.76477 0.0
C511 C 0.88877 0.66664 0.76784 0.0
C512 C 0.87458 0.65616 0.74835 0.0
C513 C 0.86317 0.63206 0.7468 0.0
C514 C 0.89049 0.65301 0.78545 0.0
N515 N 0.87805 0.62949 0.78434 0.0
H516 H 0.85724 0.60077 0.76266 0.0
H517 H 0.90168 0.66144 0.80021 0.0
H518 H 0.83936 0.56748 0.78314 0.0
H519 H 0.83681 0.60272 0.84281 0.0
O520 O 0.88182 0.58699 0.79108 0.0
O521 O 0.88324 0.58961 0.82982 0.0
O522 O 0.8807 0.63176 0.8348 0.0
C523 C 0.88403 0.57894 0.81116 0.0
H524 H 0.96564 0.6563 0.82877 0.0
H525 H 0.79638 0.5484 0.79693 0.0
H526 H 0.89819 0.68519 0.76971 0.0
H527 H 0.85285 0.6232 0.73161 0.0
Co528 Co 0.42595 0.27835 0.8059 0.0
C529 C 0.40214 0.3023 0.78645 0.0
C530 C 0.4036 0.30319 0.82405 0.0
C531 C 0.39204 0.31422 0.81668 0.0
N532 N 0.40986 0.29565 0.80514 0.0
N533 N 0.39106 0.31367 0.79302 0.0
H534 H 0.40457 0.29884 0.76848 0.0
H535 H 0.40698 0.3006 0.842 0.0
C536 C 0.39308 0.23669 0.83541 0.0
O537 O 0.39517 0.22205 0.82178 0.0
N538 N 0.44251 0.26115 0.80703 0.0
C539 C 0.45498 0.25925 0.78951 0.0
C540 C 0.46342 0.2453 0.79658 0.0
C541 C 0.44483 0.24926 0.82513 0.0
N542 N 0.45692 0.23884 0.81891 0.0
C543 C 0.41531 0.26066 0.75852 0.0
C544 C 0.36896 0.23053 0.76573 0.0
C545 C 0.37849 0.23049 0.74389 0.0
C546 C 0.4019 0.24632 0.74021 0.0
C547 C 0.38295 0.24534 0.78344 0.0
N548 N 0.40619 0.25904 0.78031 0.0
H549 H 0.43297 0.27335 0.75498 0.0
H550 H 0.37483 0.24595 0.79951 0.0
H551 H 0.45833 0.26772 0.77275 0.0
H552 H 0.43745 0.24778 0.84234 0.0
O553 O 0.45129 0.30312 0.78839 0.0
O554 O 0.44828 0.30065 0.82703 0.0
O555 O 0.40372 0.2582 0.83077 0.0
C556 C 0.45983 0.31221 0.80878 0.0
H557 H 0.38441 0.32152 0.82802 0.0
H558 H 0.47372 0.24036 0.78611 0.0
H559 H 0.35071 0.21951 0.769 0.0
H560 H 0.4099 0.24749 0.72339 0.0
Co561 Co 0.75281 0.15021 0.80859 0.0
C562 C 0.72784 0.10289 0.78917 0.0
C563 C 0.72931 0.10289 0.82676 0.0
C564 C 0.71763 0.08042 0.81907 0.0
N565 N 0.73579 0.11692 0.80802 0.0
N566 N 0.71668 0.08037 0.7954 0.0
H567 H 0.73015 0.10913 0.77133 0.0
H568 H 0.73292 0.1086 0.84477 0.0
C569 C 0.79479 0.15892 0.83745 0.0
O570 O 0.80928 0.17476 0.82291 0.0
N571 N 0.76957 0.18394 0.80935 0.0
C572 C 0.7683 0.19783 0.79304 0.0
C573 C 0.78173 0.22035 0.7998 0.0
C574 C 0.78295 0.19849 0.82654 0.0
N575 N 0.79128 0.2209 0.82077 0.0
C576 C 0.77226 0.15898 0.76192 0.0
C577 C 0.79953 0.13927 0.76852 0.0
C578 C 0.8008 0.15001 0.74704 0.0
C579 C 0.78648 0.15947 0.74369 0.0
C580 C 0.78482 0.13888 0.78615 0.0
N581 N 0.7724 0.14985 0.78328 0.0
H582 H 0.76084 0.16558 0.75862 0.0
H583 H 0.78329 0.12947 0.80203 0.0
H584 H 0.75767 0.1922 0.77755 0.0
H585 H 0.7864 0.19291 0.84302 0.0
O586 O 0.72808 0.15024 0.79062 0.0
O587 O 0.73019 0.15023 0.82937 0.0
O588 O 0.77312 0.14858 0.83369 0.0
C589 C 0.71887 0.15005 0.81083 0.0
H590 H 0.71083 0.06532 0.83015 0.0
H591 H 0.78381 0.23516 0.79014 0.0
H592 H 0.80952 0.13086 0.77153 0.0
H593 H 0.78642 0.16742 0.72718 0.0
Co594 Co 0.41059 0.15646 0.31782 0.0
C595 C 0.43286 0.20631 0.33146 0.0
C596 C 0.45009 0.18947 0.34586 0.0
C597 C 0.46044 0.2116 0.35444 0.0
N598 N 0.43297 0.18615 0.33113 0.0
N599 N 0.44954 0.2222 0.34546 0.0
H600 H 0.42062 0.2093 0.32221 0.0
H601 H 0.45427 0.17637 0.35067 0.0
C602 C 0.45686 0.16474 0.30101 0.0
O603 O 0.46355 0.18646 0.29681 0.0
N604 N 0.38813 0.12694 0.30502 0.0
C605 C 0.36753 0.12201 0.29615 0.0
C606 C 0.35746 0.10059 0.28599 0.0
C607 C 0.3902 0.10826 0.30048 0.0
N608 N 0.37171 0.09201 0.28868 0.0
C609 C 0.39544 0.18044 0.28803 0.0
C610 C 0.40795 0.16939 0.24601 0.0
C611 C 0.39319 0.17858 0.24572 0.0
C612 C 0.38758 0.18477 0.26707 0.0
C613 C 0.41537 0.16514 0.26751 0.0
N614 N 0.40887 0.17041 0.2883 0.0
H615 H 0.38896 0.18347 0.30411 0.0
H616 H 0.42467 0.15588 0.26728 0.0
H617 H 0.36057 0.13349 0.29645 0.0
H618 H 0.40516 0.10688 0.30492 0.0
O619 O 0.38622 0.15763 0.33501 0.0
O620 O 0.40702 0.14277 0.3484 0.0
O621 O 0.43609 0.15086 0.30708 0.0
C622 C 0.3907 0.14751 0.35199 0.0
H623 H 0.47426 0.21893 0.36716 0.0
H624 H 0.34095 0.09199 0.27719 0.0
H625 H 0.41238 0.164 0.22989 0.0
H626 H 0.37621 0.19189 0.26767 0.0
Co627 Co 0.87543 0.26142 0.32315 0.0
C628 C 0.82523 0.23504 0.33487 0.0
C629 C 0.84147 0.26987 0.34707 0.0
C630 C 0.81908 0.25843 0.35507 0.0
N631 N 0.8453 0.25536 0.33402 0.0
N632 N 0.80886 0.23644 0.34751 0.0
H633 H 0.82277 0.2193 0.32721 0.0
H634 H 0.85441 0.28734 0.35139 0.0
C635 C 0.86988 0.30017 0.30325 0.0
O636 O 0.8485 0.28553 0.29734 0.0
N637 N 0.90541 0.26696 0.31275 0.0
C638 C 0.9121 0.25105 0.31293 0.0
C639 C 0.9331 0.25996 0.30215 0.0
C640 C 0.92257 0.28543 0.30157 0.0
N641 N 0.93969 0.2815 0.29479 0.0
C642 C 0.85239 0.22193 0.29349 0.0
C643 C 0.86464 0.245 0.25116 0.0
C644 C 0.8543 0.2209 0.25109 0.0
C645 C 0.84771 0.20942 0.27267 0.0
C646 C 0.86908 0.25694 0.27248 0.0
N647 N 0.86293 0.24542 0.29342 0.0
H648 H 0.84869 0.21258 0.30977 0.0
H649 H 0.87889 0.27547 0.27198 0.0
H650 H 0.9021 0.23375 0.31973 0.0
H651 H 0.92215 0.30098 0.29754 0.0
O652 O 0.87178 0.23581 0.34241 0.0
O653 O 0.88764 0.27199 0.35413 0.0
O654 O 0.88287 0.29276 0.31104 0.0
C655 C 0.8818 0.25086 0.35904 0.0
H656 H 0.81137 0.26549 0.36663 0.0
H657 H 0.94264 0.25102 0.29964 0.0
H658 H 0.87053 0.25469 0.23498 0.0
H659 H 0.83965 0.19084 0.27359 0.0
Co660 Co 0.77079 0.61844 0.31897 0.0
C661 C 0.79704 0.59483 0.33372 0.0
C662 C 0.76299 0.57909 0.34809 0.0
C663 C 0.77404 0.56819 0.35722 0.0
N664 N 0.77725 0.59569 0.33312 0.0
N665 N 0.79554 0.57813 0.34828 0.0
H666 H 0.81261 0.6067 0.32466 0.0
H667 H 0.74581 0.57549 0.35251 0.0
C668 C 0.73286 0.57229 0.30182 0.0
O669 O 0.74769 0.56513 0.29878 0.0
N670 N 0.76465 0.64131 0.30533 0.0
C671 C 0.78111 0.66229 0.29807 0.0
C672 C 0.7709 0.67272 0.28633 0.0
C673 C 0.74448 0.63934 0.29814 0.0
N674 N 0.74795 0.65833 0.28634 0.0
C675 C 0.81102 0.6336 0.29086 0.0
C676 C 0.78906 0.62163 0.24795 0.0
C677 C 0.81301 0.63645 0.24852 0.0
C678 C 0.82399 0.64176 0.27034 0.0
C679 C 0.77661 0.61393 0.26902 0.0
N680 N 0.78757 0.62021 0.29024 0.0
H681 H 0.81991 0.63972 0.30732 0.0
H682 H 0.75807 0.60455 0.26808 0.0
H683 H 0.79941 0.66922 0.30038 0.0
H684 H 0.72781 0.62411 0.30053 0.0
O685 O 0.7957 0.6425 0.33714 0.0
O686 O 0.75947 0.62197 0.34888 0.0
O687 O 0.73996 0.59327 0.30718 0.0
C688 C 0.78037 0.63814 0.35331 0.0
H689 H 0.76681 0.55416 0.3697 0.0
H690 H 0.77968 0.68949 0.27802 0.0
H691 H 0.77983 0.61736 0.23147 0.0
H692 H 0.84244 0.65309 0.27164 0.0
Co693 Co 0.49584 0.08294 0.87183 0.0
C694 C 0.54492 0.10667 0.85634 0.0
C695 C 0.52821 0.12548 0.84634 0.0
C696 C 0.55033 0.1367 0.83749 0.0
N697 N 0.52497 0.10696 0.85881 0.0
N698 N 0.5607 0.1247 0.84368 0.0
H699 H 0.5478 0.09322 0.86274 0.0
H700 H 0.51512 0.13006 0.84305 0.0
C701 C 0.49903 0.12746 0.88841 0.0
O702 O 0.5205 0.13552 0.89497 0.0
N703 N 0.46704 0.05862 0.88444 0.0
C704 C 0.46399 0.03816 0.89177 0.0
C705 C 0.4431 0.02626 0.90285 0.0
C706 C 0.44772 0.05883 0.89101 0.0
N707 N 0.43291 0.0392 0.90241 0.0
C708 C 0.52283 0.07239 0.90261 0.0
C709 C 0.50981 0.0836 0.94419 0.0
C710 C 0.52273 0.0723 0.94509 0.0
C711 C 0.52945 0.06708 0.92378 0.0
C712 C 0.50353 0.0887 0.92241 0.0
N713 N 0.51014 0.0832 0.90185 0.0
H714 H 0.52645 0.06595 0.88689 0.0
H715 H 0.49212 0.0957 0.92228 0.0
H716 H 0.47658 0.03266 0.89011 0.0
H717 H 0.44499 0.0733 0.8886 0.0
O718 O 0.50012 0.05998 0.85551 0.0
O719 O 0.48259 0.07773 0.84079 0.0
O720 O 0.48705 0.10663 0.88143 0.0
C721 C 0.48948 0.06289 0.83796 0.0
H722 H 0.55782 0.15183 0.82639 0.0
H723 H 0.43611 1.00955 0.91112 0.0
H724 H 0.50396 0.08781 0.96012 0.0
H725 H 0.53852 0.0575 0.92328 0.0
Co726 Co 0.94543 0.41758 0.87331 0.0
C727 C 0.92829 0.44472 0.84714 0.0
C728 C 0.90075 0.41492 0.86352 0.0
C729 C 0.89181 0.42731 0.85321 0.0
N730 N 0.92365 0.42564 0.85959 0.0
N731 N 0.90915 0.44615 0.84307 0.0
H732 H 0.94541 0.45791 0.84206 0.0
H733 H 0.89118 0.4 0.8745 0.0
C734 C 0.91449 0.36825 0.89288 0.0
O735 O 0.93024 0.36846 0.90669 0.0
N736 N 0.96786 0.41066 0.88709 0.0
C737 C 0.98567 0.42594 0.90029 0.0
C738 C 0.99964 0.41709 0.90558 0.0
C739 C 0.97177 0.39286 0.88382 0.0
N740 N 0.99084 0.39629 0.89545 0.0
C741 C 0.95326 0.4557 0.90131 0.0
C742 C 0.94617 0.43459 0.94454 0.0
C743 C 0.95691 0.4587 0.94351 0.0
C744 C 0.9594 0.46906 0.92157 0.0
C745 C 0.94018 0.42175 0.9237 0.0
N746 N 0.94476 0.43249 0.9024 0.0
H747 H 0.95702 0.46435 0.88459 0.0
H748 H 0.93357 0.40351 0.92481 0.0
H749 H 0.98865 0.44274 0.90537 0.0
H750 H 0.96111 0.37792 0.87313 0.0
O751 O 0.97104 0.44366 0.85801 0.0
O752 O 0.95072 0.40874 0.84276 0.0
O753 O 0.91811 0.3864 0.88185 0.0
C754 C 0.96741 0.42986 0.84046 0.0
H755 H 0.87418 0.42363 0.85459 0.0
H756 H 1.01509 0.42524 0.91619 0.0
H757 H 0.94391 0.42587 0.96115 0.0
H758 H 0.96721 0.48758 0.91995 0.0
Co759 Co 0.61361 0.53989 0.865 0.0
C760 C 0.58813 0.49 0.85161 0.0
C761 C 0.62216 0.50788 0.83725 0.0
C762 C 0.61113 0.48562 0.82886 0.0
N763 N 0.60787 0.51061 0.85181 0.0
N764 N 0.58965 0.47435 0.83786 0.0
H765 H 0.57251 0.48665 0.86027 0.0
H766 H 0.63929 0.52136 0.83254 0.0
C767 C 0.65258 0.53354 0.88236 0.0
O768 O 0.63783 0.51191 0.88732 0.0
N769 N 0.6188 0.56889 0.87777 0.0
C770 C 0.60166 0.57282 0.88399 0.0
C771 C 0.61086 0.59345 0.89557 0.0
C772 C 0.63839 0.58742 0.88553 0.0
N773 N 0.63386 0.6026 0.89655 0.0
C774 C 0.57449 0.51436 0.89445 0.0
C775 C 0.59746 0.52534 0.93681 0.0
C776 C 0.57333 0.51469 0.93684 0.0
C777 C 0.56193 0.50864 0.91526 0.0
C778 C 0.60951 0.53086 0.91541 0.0
N779 N 0.59802 0.52543 0.89446 0.0
H780 H 0.56508 0.51127 0.8783 0.0
H781 H 0.62804 0.54101 0.9159 0.0
H782 H 0.58352 0.56097 0.88124 0.0
H783 H 0.65535 0.58929 0.88424 0.0
O784 O 0.58757 0.53719 0.84739 0.0
O785 O 0.62342 0.55378 0.83436 0.0
O786 O 0.64523 0.54699 0.87595 0.0
C787 C 0.60208 0.54792 0.83052 0.0
H788 H 0.61836 0.47845 0.81683 0.0
H789 H 0.60135 0.60095 0.90327 0.0
H790 H 0.607 0.53075 0.9531 0.0
H791 H 0.54333 0.50045 0.91438 0.0
Co792 Co 0.62235 0.86511 0.6923 0.0
C793 C 0.59842 0.81659 0.67423 0.0
C794 C 0.57867 0.82144 0.70078 0.0
C795 C 0.56701 0.79872 0.69385 0.0
N796 N 0.59839 0.83282 0.68842 0.0
N797 N 0.57947 0.79564 0.67718 0.0
H798 H 0.61213 0.81978 0.6622 0.0
H799 H 0.57334 0.82874 0.71456 0.0
C800 C 0.58574 0.87377 0.71675 0.0
O801 O 0.58817 0.86765 0.73792 0.0
N802 N 0.6463 0.89725 0.69596 0.0
C803 C 0.66902 0.90468 0.69751 0.0
C804 C 0.68053 0.92767 0.70307 0.0
C805 C 0.64435 0.91603 0.70064 0.0
N806 N 0.66507 0.93484 0.70525 0.0
C807 C 0.63062 0.84055 0.72824 0.0
C808 C 0.64284 0.87301 0.76326 0.0
C809 C 0.64662 0.85442 0.76694 0.0
C810 C 0.63969 0.83774 0.74924 0.0
C811 C 0.63348 0.87505 0.74203 0.0
N812 N 0.62771 0.85908 0.72462 0.0
H813 H 0.62716 0.82835 0.71431 0.0
H814 H 0.63192 0.89014 0.73934 0.0
H815 H 0.67671 0.8939 0.69604 0.0
H816 H 0.62812 0.91576 0.70173 0.0
O817 O 0.64462 0.85907 0.67702 0.0
O818 O 0.62216 0.86983 0.65903 0.0
O819 O 0.5977 0.87322 0.69959 0.0
C820 C 0.6384 0.86463 0.65757 0.0
H821 H 0.55102 0.78533 0.70125 0.0
H822 H 0.69876 0.9379 0.70677 0.0
H823 H 0.64813 0.88656 0.77615 0.0
H824 H 0.64188 0.82288 0.75122 0.0
Co825 Co 0.16812 0.76285 0.69729 0.0
C826 C 0.21784 0.79057 0.68383 0.0
C827 C 0.20347 0.7545 0.67714 0.0
C828 C 0.22561 0.76594 0.6686 0.0
N829 N 0.19857 0.76983 0.68689 0.0
N830 N 0.23466 0.78866 0.67268 0.0
H831 H 0.21914 0.80682 0.68838 0.0
H832 H 0.1914 0.73633 0.67521 0.0
C833 C 0.14774 0.71478 0.7205 0.0
O834 O 0.13418 0.71793 0.73474 0.0
N835 N 0.13758 0.75637 0.7071 0.0
C836 C 0.13314 0.7719 0.71724 0.0
C837 C 0.10996 0.76184 0.72157 0.0
C838 C 0.11667 0.7372 0.70453 0.0
N839 N 0.09959 0.73994 0.71387 0.0
C840 C 0.18999 0.80158 0.72783 0.0
C841 C 0.1809 0.77812 0.76977 0.0
C842 C 0.18755 0.80157 0.77007 0.0
C843 C 0.19317 0.81346 0.74879 0.0
C844 C 0.17772 0.76674 0.7482 0.0
N845 N 0.18079 0.77819 0.72746 0.0
H846 H 0.1933 0.81125 0.71184 0.0
H847 H 0.1721 0.74872 0.74854 0.0
H848 H 0.14584 0.78945 0.72138 0.0
H849 H 0.11403 0.72141 0.69656 0.0
O850 O 0.17125 0.78909 0.68004 0.0
O851 O 0.15711 0.75408 0.66538 0.0
O852 O 0.16247 0.73129 0.70765 0.0
C853 C 0.16281 0.7755 0.66213 0.0
H854 H 0.2342 0.75812 0.65962 0.0
H855 H 0.10151 0.76976 0.73064 0.0
H856 H 0.17696 0.7684 0.78594 0.0
H857 H 0.19904 0.83173 0.74826 0.0
Co858 Co 0.26883 0.40722 0.68784 0.0
C859 C 0.24207 0.43174 0.67965 0.0
C860 C 0.27795 0.45284 0.67196 0.0
C861 C 0.26695 0.46481 0.66602 0.0
N862 N 0.26257 0.43227 0.68122 0.0
N863 N 0.24434 0.45153 0.67075 0.0
H864 H 0.22566 0.41695 0.68381 0.0
H865 H 0.29583 0.45837 0.66852 0.0
C866 C 0.30899 0.4486 0.71068 0.0
O867 O 0.2949 0.45446 0.72043 0.0
N868 N 0.27496 0.38218 0.69387 0.0
C869 C 0.2588 0.35981 0.69596 0.0
C870 C 0.26915 0.34758 0.70326 0.0
C871 C 0.29499 0.38325 0.70008 0.0
N872 N 0.29192 0.36229 0.70597 0.0
C873 C 0.23195 0.39162 0.72102 0.0
C874 C 0.25739 0.39348 0.75988 0.0
C875 C 0.23334 0.3825 0.76187 0.0
C876 C 0.22069 0.38221 0.74221 0.0
C877 C 0.26804 0.40305 0.73841 0.0
N878 N 0.25535 0.40197 0.71916 0.0
H879 H 0.22149 0.38874 0.70571 0.0
H880 H 0.28633 0.40968 0.73696 0.0
H881 H 0.24053 0.35293 0.69345 0.0
H882 H 0.31135 0.39905 0.70089 0.0
O883 O 0.24163 0.38645 0.66995 0.0
O884 O 0.27673 0.40762 0.65535 0.0
O885 O 0.30097 0.43001 0.69885 0.0
C886 C 0.25514 0.39278 0.65174 0.0
H887 H 0.27482 0.48151 0.65759 0.0
H888 H 0.26028 0.32941 0.70743 0.0
H889 H 0.26784 0.39392 0.77457 0.0
H890 H 0.20204 0.37332 0.7427 0.0
Co891 Co 0.54475 0.94054 0.14327 0.0
C892 C 0.5919 0.96419 0.12263 0.0
C893 C 0.59233 0.96119 0.16009 0.0
C894 C 0.61465 0.97132 0.15198 0.0
N895 N 0.57809 0.95671 0.14171 0.0
N896 N 0.61433 0.97327 0.12848 0.0
H897 H 0.58569 0.96269 0.10484 0.0
H898 H 0.5868 0.95709 0.17813 0.0
C899 C 0.53922 0.97608 0.17196 0.0
O900 O 0.52576 0.978 0.15649 0.0
N901 N 0.51101 0.92361 0.14528 0.0
C902 C 0.4967 0.90567 0.13152 0.0
C903 C 0.47452 0.89624 0.13973 0.0
C904 C 0.49706 0.92433 0.16212 0.0
N905 N 0.47479 0.90806 0.15881 0.0
C906 C 0.53216 0.94988 0.09789 0.0
C907 C 0.55545 0.99734 0.10171 0.0
C908 C 0.54225 0.98719 0.08158 0.0
C909 C 0.5309 0.96314 0.0796 0.0
C910 C 0.5566 0.98344 0.11939 0.0
N911 N 0.5441 0.95994 0.11793 0.0
H912 H 0.52371 0.93149 0.09576 0.0
H913 H 0.56755 0.99163 0.13435 0.0
H914 H 0.50195 0.89909 0.11695 0.0
H915 H 0.50291 0.93551 0.1772 0.0
O916 O 0.54426 0.91543 0.12539 0.0
O917 O 0.54542 0.91834 0.16406 0.0
O918 O 0.54715 0.96253 0.16857 0.0
C919 C 0.54513 0.90684 0.14567 0.0
H920 H 0.62998 0.97707 0.16253 0.0
H921 H 0.45936 0.88159 0.13247 0.0
H922 H 0.56513 0.01589 0.10359 0.0
H923 H 0.52089 0.9546 0.06414 0.0
Co924 Co 0.08959 0.60959 0.143 0.0
C925 C 0.0645 0.63277 0.12542 0.0
C926 C 0.07008 0.63668 0.1626 0.0
C927 C 0.05901 0.6484 0.15579 0.0
N928 N 0.07354 0.62692 0.14357 0.0
N929 N 0.05543 0.64581 0.13246 0.0
H930 H 0.06481 0.62789 0.1074 0.0
H931 H 0.07536 0.63544 0.1802 0.0
C932 C 0.05628 0.56731 0.17134 0.0
O933 O 0.05563 0.5529 0.15537 0.0
N934 N 0.10622 0.59247 0.14271 0.0
C935 C 0.12027 0.5929 0.12551 0.0
C936 C 0.12864 0.57858 0.13138 0.0
C937 C 0.10747 0.57878 0.15953 0.0
N938 N 0.12053 0.56963 0.1527 0.0
C939 C 0.07879 0.5919 0.09596 0.0
C940 C 0.0321 0.56293 0.10242 0.0
C941 C 0.04194 0.5622 0.08093 0.0
C942 C 0.06552 0.57765 0.07763 0.0
C943 C 0.04607 0.57769 0.12024 0.0
N944 N 0.06943 0.59068 0.1175 0.0
H945 H 0.09657 0.60422 0.0926 0.0
H946 H 0.038 0.57854 0.13629 0.0
H947 H 0.12487 0.60335 0.10991 0.0
H948 H 0.09902 0.57541 0.17637 0.0
O949 O 0.11429 0.63453 0.12516 0.0
O950 O 0.11256 0.63162 0.16385 0.0
O951 O 0.06821 0.58905 0.16828 0.0
C952 C 0.12355 0.6433 0.14541 0.0
H953 H 0.05366 0.6578 0.16714 0.0
H954 H 0.14011 0.57523 0.12089 0.0
H955 H 1.01387 0.55193 0.10569 0.0
H956 H 0.07373 0.57893 0.06092 0.0
Co957 Co 0.42187 0.48579 0.14065 0.0
C958 C 0.39973 0.43809 0.12115 0.0
C959 C 0.40374 0.43897 0.15857 0.0
C960 C 0.39457 0.41657 0.15116 0.0
N961 N 0.40725 0.4525 0.13978 0.0
N962 N 0.39207 0.41602 0.12768 0.0
H963 H 0.40073 0.44374 0.10318 0.0
H964 H 0.408 0.44505 0.17643 0.0
C965 C 0.46481 0.49479 0.16854 0.0
O966 O 0.47954 0.50802 0.15248 0.0
N967 N 0.43635 0.51946 0.14219 0.0
C968 C 0.43146 0.53277 0.12828 0.0
C969 C 0.44381 0.55526 0.13563 0.0
C970 C 0.45118 0.53428 0.15841 0.0
N971 N 0.45627 0.55628 0.15459 0.0
C972 C 0.44278 0.49943 0.09499 0.0
C973 C 0.46963 0.47888 0.09773 0.0
C974 C 0.47179 0.49223 0.07786 0.0
C975 C 0.45758 0.50205 0.07649 0.0
C976 C 0.45443 0.47659 0.11582 0.0
N977 N 0.44214 0.48784 0.11489 0.0
H978 H 0.43159 0.50652 0.09307 0.0
H979 H 0.45279 0.46596 0.13076 0.0
H980 H 0.41925 0.52665 0.11401 0.0
H981 H 0.45737 0.52916 0.1734 0.0
O982 O 0.39589 0.48379 0.12315 0.0
O983 O 0.39838 0.48325 0.1618 0.0
O984 O 0.44315 0.48593 0.16562 0.0
C985 C 0.38641 0.48238 0.14354 0.0
H986 H 0.39028 0.4018 0.16217 0.0
H987 H 0.44356 0.56974 0.12757 0.0
H988 H 0.47985 0.47058 0.09959 0.0
H989 H 0.45762 0.5115 0.06108 0.0
Co990 Co 0.07737 0.48873 0.65523 0.0
C991 C 0.10026 0.53862 0.66881 0.0
C992 C 0.11802 0.52184 0.68198 0.0
C993 C 0.1287 0.54402 0.69049 0.0
N994 N 0.10037 0.51846 0.66803 0.0
N995 N 0.11747 0.5546 0.6823 0.0
H996 H 0.0876 0.54152 0.66031 0.0
H997 H 0.12234 0.50875 0.68638 0.0
C998 C 0.1231 0.49591 0.63741 0.0
O999 O 0.12986 0.51749 0.63233 0.0
N1000 N 0.05415 0.45924 0.64277 0.0
C1001 C 0.0325 0.45412 0.63746 0.0
C1002 C 0.02182 0.43373 0.62537 0.0
C1003 C 0.05632 0.44168 0.63386 0.0
N1004 N 0.03677 0.42595 0.62301 0.0
C1005 C 0.06192 0.51267 0.62572 0.0
C1006 C 0.07376 0.50147 0.5834 0.0
C1007 C 0.05922 0.51095 0.58338 0.0
C1008 C 0.0539 0.51712 0.60491 0.0
C1009 C 0.08132 0.49708 0.60477 0.0
N1010 N 0.07525 0.50252 0.62572 0.0
H1011 H 0.05579 0.51589 0.64193 0.0
H1012 H 0.0905 0.48769 0.60433 0.0
H1013 H 0.02526 0.46502 0.64113 0.0
H1014 H 0.07207 0.44094 0.63421 0.0
O1015 O 0.0537 0.49066 0.67309 0.0
O1016 O 0.07411 0.47524 0.68597 0.0
O1017 O 0.10242 0.48244 0.64414 0.0
C1018 C 0.05813 0.48038 0.68994 0.0
H1019 H 0.14297 0.55139 0.70267 0.0
H1020 H 1.00449 0.42544 0.61839 0.0
H1021 H 0.07797 0.49606 0.56716 0.0
H1022 H 0.04273 0.52447 0.60577 0.0
Co1023 Co 0.53816 0.59506 0.64625 0.0
C1024 C 0.49014 0.56636 0.66505 0.0
C1025 C 0.50683 0.60136 0.67695 0.0
C1026 C 0.48531 0.58966 0.68697 0.0
N1027 N 0.50989 0.58684 0.6631 0.0
N1028 N 0.47476 0.56763 0.67951 0.0
H1029 H 0.48717 0.5507 0.65665 0.0
H1030 H 0.51957 0.61922 0.67984 0.0
C1031 C 0.54956 0.64065 0.62146 0.0
O1032 O 0.56116 0.63826 0.60421 0.0
N1033 N 0.56664 0.603 0.62972 0.0
C1034 C 0.56984 0.588 0.61678 0.0
C1035 C 0.59101 0.59937 0.60632 0.0
C1036 C 0.58678 0.62322 0.62804 0.0
N1037 N 0.60157 0.62156 0.61306 0.0
C1038 C 0.51357 0.55381 0.61947 0.0
C1039 C 0.51319 0.57397 0.57747 0.0
C1040 C 0.50891 0.55118 0.57725 0.0
C1041 C 0.508 0.54086 0.59891 0.0
C1042 C 0.51877 0.58639 0.59857 0.0
N1043 N 0.52053 0.57677 0.61903 0.0
H1044 H 0.51434 0.54565 0.63545 0.0
H1045 H 0.52247 0.60389 0.59795 0.0
H1046 H 0.55764 0.56992 0.61481 0.0
H1047 H 0.59006 0.63903 0.63648 0.0
O1048 O 0.54119 0.57157 0.66311 0.0
O1049 O 0.55523 0.60751 0.67501 0.0
O1050 O 0.53859 0.62439 0.63625 0.0
C1051 C 0.5523 0.58713 0.67898 0.0
H1052 H 0.47795 0.59694 0.6987 0.0
H1053 H 0.59806 0.59196 0.59434 0.0
H1054 H 0.51304 0.58247 0.56139 0.0
H1055 H 0.50478 0.52338 0.60002 0.0
Co1056 Co 0.43717 0.95433 0.65318 0.0
C1057 C 0.46459 0.9317 0.6667 0.0
C1058 C 0.42881 0.911 0.67508 0.0
C1059 C 0.44002 0.89972 0.68273 0.0
N1060 N 0.444 0.93075 0.66425 0.0
N1061 N 0.46253 0.9128 0.67754 0.0
H1062 H 0.48092 0.94606 0.66153 0.0
H1063 H 0.41086 0.90548 0.67806 0.0
C1064 C 0.39785 0.91012 0.63372 0.0
O1065 O 0.41251 0.90408 0.6259 0.0
N1066 N 0.43057 0.97791 0.64268 0.0
C1067 C 0.44654 0.99883 0.63476 0.0
C1068 C 0.43557 1.00947 0.62494 0.0
C1069 C 0.41001 0.9762 0.63787 0.0
N1070 N 0.41267 0.99524 0.62685 0.0
C1071 C 0.47443 0.96719 0.62088 0.0
C1072 C 0.44913 0.96157 0.58074 0.0
C1073 C 0.47323 0.97322 0.57915 0.0
C1074 C 0.48582 0.97527 0.59946 0.0
C1075 C 0.43834 0.95326 0.60247 0.0
N1076 N 0.45096 0.95639 0.62239 0.0
H1077 H 0.4848 0.97177 0.63647 0.0
H1078 H 0.41996 0.94626 0.60346 0.0
H1079 H 0.46492 1.00543 0.63503 0.0
H1080 H 0.39352 0.961 0.64117 0.0
O1081 O 0.46399 0.97769 0.66974 0.0
O1082 O 0.42891 0.95733 0.68476 0.0
O1083 O 0.40524 0.92983 0.64318 0.0
C1084 C 0.45029 0.9732 0.6876 0.0
H1085 H 0.4324 0.88362 0.69229 0.0
H1086 H 0.44377 0.0262 0.61654 0.0
H1087 H 0.43872 0.95981 0.56552 0.0
H1088 H 0.50448 0.98473 0.59921 0.0
Co1089 Co 0.15804 0.41079 0.19397 0.0
C1090 C 0.20822 0.43521 0.18288 0.0
C1091 C 0.1916 0.4528 0.16888 0.0
C1092 C 0.21418 0.46391 0.16134 0.0
N1093 N 0.18791 0.43497 0.18273 0.0
N1094 N 0.22464 0.45277 0.17012 0.0
H1095 H 0.21072 0.42209 0.19086 0.0
H1096 H 0.17854 0.45699 0.16392 0.0
C1097 C 0.16242 0.45515 0.21226 0.0
O1098 O 0.18407 0.4629 0.21788 0.0
N1099 N 0.12839 0.38629 0.20471 0.0
C1100 C 0.12291 0.36412 0.20726 0.0
C1101 C 0.10042 0.35143 0.21448 0.0
C1102 C 0.10918 0.38689 0.21087 0.0
N1103 N 0.09187 0.36572 0.2168 0.0
C1104 C 0.18213 0.39613 0.22426 0.0
C1105 C 0.17193 0.40951 0.26619 0.0
C1106 C 0.18366 0.39703 0.26667 0.0
C1107 C 0.18882 0.39051 0.24522 0.0
C1108 C 0.16554 0.41486 0.24465 0.0
N1109 N 0.17102 0.40853 0.22391 0.0
H1110 H 0.18508 0.38942 0.20829 0.0
H1111 H 0.15522 0.42305 0.24492 0.0
H1112 H 0.13447 0.35755 0.20408 0.0
H1113 H 0.10769 0.40223 0.2107 0.0
O1114 O 0.16223 0.38869 0.17578 0.0
O1115 O 0.14564 0.40797 0.1628 0.0
O1116 O 0.1499 0.43441 0.20525 0.0
C1117 C 0.15202 0.39292 0.15871 0.0
H1118 H 0.22208 0.47878 0.14991 0.0
H1119 H 0.09104 0.33312 0.21803 0.0
H1120 H 0.16724 0.41467 0.28229 0.0
H1121 H 0.19697 0.38007 0.24453 0.0
Co1122 Co 0.61657 0.75202 0.20241 0.0
C1123 C 0.5916 0.77684 0.18889 0.0
C1124 C 0.57579 0.74287 0.17454 0.0
C1125 C 0.56451 0.7538 0.16594 0.0
N1126 N 0.5926 0.75718 0.1893 0.0
N1127 N 0.57452 0.77524 0.17497 0.0
H1128 H 0.60388 0.79257 0.19729 0.0
H1129 H 0.57245 0.72587 0.1697 0.0
C1130 C 0.5719 0.71145 0.21802 0.0
O1131 O 0.56477 0.72569 0.22433 0.0
N1132 N 0.64087 0.7475 0.21494 0.0
C1133 C 0.66093 0.76478 0.22315 0.0
C1134 C 0.67457 0.75602 0.23012 0.0
C1135 C 0.64249 0.72824 0.21715 0.0
N1136 N 0.6631 0.73311 0.22632 0.0
C1137 C 0.62639 0.78874 0.23413 0.0
C1138 C 0.61488 0.76333 0.27499 0.0
C1139 C 0.62578 0.78745 0.27653 0.0
C1140 C 0.63113 0.80002 0.25563 0.0
C1141 C 0.61019 0.7526 0.25294 0.0
N1142 N 0.61578 0.76529 0.23272 0.0
H1143 H 0.63309 0.79925 0.21869 0.0
H1144 H 0.60353 0.73427 0.2523 0.0
H1145 H 0.66541 0.78266 0.2239 0.0
H1146 H 0.62921 0.71126 0.21175 0.0
O1147 O 0.63968 0.77967 0.18682 0.0
O1148 O 0.62236 0.74473 0.1713 0.0
O1149 O 0.59273 0.71941 0.21136 0.0
C1150 C 0.63719 0.76653 0.16903 0.0
H1151 H 0.55032 0.74661 0.15366 0.0
H1152 H 0.69166 0.76579 0.23755 0.0
H1153 H 0.61073 0.75287 0.29066 0.0
H1154 H 0.64043 0.81867 0.25576 0.0
Co1155 Co 0.27808 0.86855 0.20435 0.0
C1156 C 0.25312 0.81926 0.18885 0.0
C1157 C 0.28601 0.83874 0.17233 0.0
C1158 C 0.27515 0.81676 0.16318 0.0
N1159 N 0.27231 0.84028 0.18867 0.0
N1160 N 0.25441 0.80451 0.17359 0.0
H1161 H 0.23801 0.81488 0.19902 0.0
H1162 H 0.30264 0.8528 0.1671 0.0
C1163 C 0.31682 0.86089 0.21839 0.0
O1164 O 0.30179 0.83898 0.22156 0.0
N1165 N 0.28346 0.89662 0.21946 0.0
C1166 C 0.26708 0.89938 0.2302 0.0
C1167 C 0.27728 0.92058 0.24078 0.0
C1168 C 0.30345 0.91643 0.22325 0.0
N1169 N 0.30007 0.93125 0.23643 0.0
C1170 C 0.23967 0.84083 0.23384 0.0
C1171 C 0.26351 0.85114 0.27567 0.0
C1172 C 0.2394 0.84045 0.2762 0.0
C1173 C 0.22753 0.83452 0.25488 0.0
C1174 C 0.27512 0.85713 0.25404 0.0
N1175 N 0.2632 0.85224 0.23336 0.0
H1176 H 0.22991 0.83822 0.21801 0.0
H1177 H 0.29365 0.86748 0.25421 0.0
H1178 H 0.24896 0.88666 0.23064 0.0
H1179 H 0.32009 0.91972 0.21706 0.0
O1180 O 0.25153 0.86647 0.1885 0.0
O1181 O 0.28712 0.8844 0.1746 0.0
O1182 O 0.30987 0.87511 0.21397 0.0
C1183 C 0.26558 0.87831 0.17168 0.0
H1184 H 0.28199 0.81043 0.14978 0.0
H1185 H 0.26862 0.92772 0.25082 0.0
H1186 H 0.27337 0.85642 0.29177 0.0
H1187 H 0.20892 0.8263 0.25444 0.0
H1188 H 0.37544 0.19525 0.85869 0.0
H1189 H 0.37693 0.26044 0.85968 0.0
H1190 H 0.35238 0.18391 0.8948 0.0
H1191 H 0.35446 0.24936 0.89541 0.0
H1192 H 0.29726 0.2171 0.94715 0.0
H1193 H 0.31565 0.2222 0.90914 0.0
H1194 H 0.35799 0.19605 0.93722 0.0
H1195 H 0.33921 0.19055 0.97538 0.0
C1196 C 0.37072 0.20704 0.86647 0.0
C1197 C 0.37806 0.22875 0.85636 0.0
C1198 C 0.35767 0.20063 0.88718 0.0
C1199 C 0.35153 0.21571 0.89789 0.0
C1200 C 0.35859 0.23719 0.88746 0.0
C1201 C 0.37167 0.24363 0.86702 0.0
C1202 C 0.31037 0.21227 0.94522 0.0
C1203 C 0.317 0.2037 0.96433 0.0
C1204 C 0.32093 0.21523 0.92343 0.0
C1205 C 0.33844 0.20975 0.92024 0.0
C1206 C 0.34445 0.20029 0.9391 0.0
C1207 C 0.33382 0.1973 0.96098 0.0
H1208 H 0.82073 0.08829 0.95014 0.0
H1209 H 0.83821 0.15433 0.97982 0.0
H1210 H 0.81507 0.10099 0.91205 0.0
H1211 H 0.83239 0.16705 0.94137 0.0
H1212 H 0.8353 0.18509 0.86148 0.0
H1213 H 0.8471 0.17505 0.89842 0.0
H1214 H 0.78441 0.1091 0.89834 0.0
H1215 H 0.77274 0.11898 0.86188 0.0
C1216 C 0.82355 0.10562 0.94851 0.0
C1217 C 0.82967 0.12022 0.96807 0.0
C1218 C 0.82026 0.11286 0.92666 0.0
C1219 C 0.82308 0.13493 0.92378 0.0
C1220 C 0.83021 0.14998 0.94307 0.0
C1221 C 0.83341 0.14266 0.96508 0.0
C1222 C 0.82422 0.16839 0.86931 0.0
C1223 C 0.80309 0.15284 0.85881 0.0
C1224 C 0.83088 0.16273 0.89048 0.0
C1225 C 0.8167 0.14127 0.9012 0.0
C1226 C 0.79583 0.12566 0.89039 0.0
C1227 C 0.78908 0.1314 0.86955 0.0
H1228 H 0.87713 0.63032 0.88025 0.0
H1229 H 0.87554 0.68657 0.84511 0.0
H1230 H 0.88678 0.65162 0.91706 0.0
H1231 H 0.88592 0.70831 0.88216 0.0
H1232 H 0.9399 0.74319 0.94715 0.0
H1233 H 0.92489 0.7237 0.90954 0.0
H1234 H 0.8665 0.66865 0.94509 0.0
H1235 H 0.88114 0.68827 0.98257 0.0
C1236 C 0.87874 0.64722 0.88047 0.0
C1237 C 0.87562 0.65685 0.85988 0.0
C1238 C 0.88416 0.65934 0.90153 0.0
C1239 C 0.88707 0.68155 0.90237 0.0
C1240 C 0.88375 0.69118 0.88187 0.0
C1241 C 0.87773 0.67876 0.8608 0.0
C1242 C 0.92372 0.72708 0.94686 0.0
C1243 C 0.91174 0.71716 0.96777 0.0
C1244 C 0.91508 0.71605 0.92537 0.0
C1245 C 0.89457 0.69473 0.92452 0.0
C1246 C 0.88235 0.68509 0.94534 0.0
C1247 C 0.89073 0.69632 0.96674 0.0
H1248 H 0.24606 0.32816 0.52086 0.0
H1249 H 0.18054 0.32596 0.52186 0.0
H1250 H 0.257 0.35004 0.55701 0.0
H1251 H 0.19174 0.34837 0.55835 0.0
H1252 H 0.21168 0.35937 0.63894 0.0
H1253 H 0.19897 0.34186 0.6002 0.0
H1254 H 0.26678 0.38781 0.57247 0.0
H1255 H 0.27952 0.40497 0.61105 0.0
C1256 C 0.23405 0.33257 0.5287 0.0
C1257 C 0.2124 0.32527 0.51853 0.0
C1258 C 0.24041 0.34529 0.54938 0.0
C1259 C 0.22527 0.351 0.56053 0.0
C1260 C 0.20371 0.34409 0.55019 0.0
C1261 C 0.19739 0.33146 0.52925 0.0
C1262 C 0.22378 0.36583 0.6245 0.0
C1263 C 0.24668 0.38332 0.6281 0.0
C1264 C 0.21646 0.35592 0.6023 0.0
C1265 C 0.23194 0.36332 0.58333 0.0
C1266 C 0.25455 0.38147 0.58681 0.0
C1267 C 0.26183 0.39133 0.60892 0.0
H1268 H 0.62101 0.86253 0.61393 0.0
H1269 H 0.68029 0.8683 0.65006 0.0
H1270 H 0.64041 0.86721 0.57633 0.0
H1271 H 0.69985 0.87342 0.6124 0.0
H1272 H 0.73307 0.92094 0.54552 0.0
H1273 H 0.71297 0.9083 0.58288 0.0
H1274 H 0.65887 0.84738 0.54973 0.0
H1275 H 0.67942 0.85983 0.51207 0.0
C1276 C 0.63809 0.86456 0.6138 0.0
C1277 C 0.64924 0.86524 0.63488 0.0
C1278 C 0.64908 0.86705 0.5923 0.0
C1279 C 0.67158 0.87068 0.59154 0.0
C1280 C 0.68248 0.87065 0.61257 0.0
C1281 C 0.6713 0.86771 0.63407 0.0
C1282 C 0.71698 0.90474 0.5462 0.0
C1283 C 0.7077 0.8914 0.52589 0.0
C1284 C 0.7056 0.89744 0.56762 0.0
C1285 C 0.68445 0.87687 0.56914 0.0
C1286 C 0.6752 0.86331 0.54894 0.0
C1287 C 0.68693 0.87038 0.52749 0.0
H1288 H 0.11453 0.82524 0.55017 0.0
H1289 H 0.16916 0.81989 0.51609 0.0
H1290 H 0.12404 0.81409 0.58737 0.0
H1291 H 0.17842 0.80809 0.55358 0.0
H1292 H 0.15689 0.7554 0.619 0.0
H1293 H 0.15315 0.77064 0.58113 0.0
H1294 H 0.15964 0.83073 0.61591 0.0
H1295 H 0.16374 0.81581 0.65356 0.0
C1296 C 0.12875 0.82189 0.55075 0.0
C1297 C 0.14118 0.82345 0.53035 0.0
C1298 C 0.1342 0.81555 0.57202 0.0
C1299 C 0.15188 0.81017 0.57327 0.0
C1300 C 0.16464 0.81209 0.55297 0.0
C1301 C 0.1595 0.819 0.53166 0.0
C1302 C 0.15758 0.77188 0.6185 0.0
C1303 C 0.16043 0.78435 0.63921 0.0
C1304 C 0.15568 0.78068 0.59686 0.0
C1305 C 0.15621 0.80187 0.59568 0.0
C1306 C 0.15919 0.81435 0.61638 0.0
C1307 C 0.16149 0.80578 0.63789 0.0
H1308 H 0.74308 0.81332 0.0634 0.0
H1309 H 0.68693 0.81453 0.02757 0.0
H1310 H 0.72065 0.8021 0.09977 0.0
H1311 H 0.6643 0.80271 0.06386 0.0
H1312 H 0.62628 0.74794 0.12531 0.0
H1313 H 0.64891 0.76308 0.08934 0.0
H1314 H 0.70126 0.82089 0.12796 0.0
H1315 H 0.67837 0.80611 0.16389 0.0
C1316 C 0.726 0.8113 0.06336 0.0
C1317 C 0.7167 0.81478 0.04273 0.0
C1318 C 0.71325 0.80498 0.08413 0.0
C1319 C 0.69081 0.80153 0.08448 0.0
C1320 C 0.68158 0.80523 0.06393 0.0
C1321 C 0.69454 0.81208 0.04328 0.0
C1322 C 0.64257 0.76394 0.12607 0.0
C1323 C 0.65063 0.77587 0.14732 0.0
C1324 C 0.6554 0.77263 0.10552 0.0
C1325 C 0.67674 0.79311 0.106 0.0
C1326 C 0.68484 0.80504 0.12724 0.0
C1327 C 0.67175 0.79663 0.1477 0.0
H1328 H 0.2431 0.94837 0.05578 0.0
H1329 H 0.19977 0.87625 0.03941 0.0
H1330 H 0.25484 0.93814 0.09221 0.0
H1331 H 0.21148 0.86602 0.07612 0.0
H1332 H 0.22121 0.86062 0.15666 0.0
H1333 H 0.20791 0.87018 0.12064 0.0
H1334 H 0.2783 0.91887 0.10215 0.0
H1335 H 0.29162 0.90924 0.13797 0.0
C1336 C 0.23596 0.93032 0.06004 0.0
C1337 C 0.22055 0.9131 0.04472 0.0
C1338 C 0.24279 0.92449 0.08084 0.0
C1339 C 0.23415 0.90131 0.08692 0.0
C1340 C 0.21831 0.88404 0.07189 0.0
C1341 C 0.2117 0.88988 0.05087 0.0
C1342 C 0.23382 0.87339 0.14491 0.0
C1343 C 0.25745 0.88423 0.15013 0.0
C1344 C 0.22621 0.87874 0.12426 0.0
C1345 C 0.24208 0.89529 0.10866 0.0
C1346 C 0.26569 0.9062 0.11398 0.0
C1347 C 0.2733 0.90062 0.13442 0.0
H1348 H 0.08347 0.30504 0.04001 0.0
H1349 H 0.15558 0.33187 0.02486 0.0
H1350 H 0.09376 0.32772 0.07604 0.0
H1351 H 0.16584 0.35442 0.06106 0.0
H1352 H 0.16961 0.36659 0.14231 0.0
H1353 H 0.16058 0.34546 0.10525 0.0
H1354 H 0.11433 0.37038 0.08715 0.0
H1355 H 0.12346 0.39163 0.12403 0.0
C1356 C 0.10151 0.3158 0.04437 0.0
C1357 C 0.11872 0.31671 0.02963 0.0
C1358 C 0.10739 0.32885 0.06492 0.0
C1359 C 0.13059 0.34281 0.07132 0.0
C1360 C 0.14782 0.34368 0.05661 0.0
C1361 C 0.14194 0.33088 0.03586 0.0
C1362 C 0.1576 0.36762 0.13036 0.0
C1363 C 0.14722 0.38073 0.13606 0.0
C1364 C 0.15253 0.35563 0.10913 0.0
C1365 C 0.13672 0.35626 0.09339 0.0
C1366 C 0.12643 0.36945 0.09906 0.0
C1367 C 0.13175 0.3817 0.12011 0.0
H1368 H 0.81032 0.74099 0.46041 0.0
H1369 H 0.81026 0.68491 0.49779 0.0
H1370 H 0.80196 0.71911 0.42382 0.0
H1371 H 0.80133 0.66287 0.4613 0.0
H1372 H 0.75688 0.62448 0.3945 0.0
H1373 H 0.76571 0.64616 0.43118 0.0
H1374 H 0.82521 0.70291 0.39883 0.0
H1375 H 0.81673 0.68099 0.3622 0.0
C1376 C 0.8083 0.72392 0.46083 0.0
C1377 C 0.81089 0.71461 0.48191 0.0
C1378 C 0.80368 0.71151 0.43991 0.0
C1379 C 0.80108 0.68938 0.43982 0.0
C1380 C 0.80322 0.67989 0.46097 0.0
C1381 C 0.80834 0.6925 0.48178 0.0
C1382 C 0.7719 0.64154 0.39525 0.0
C1383 C 0.78616 0.65108 0.37555 0.0
C1384 C 0.77696 0.65388 0.41623 0.0
C1385 C 0.79607 0.67618 0.41772 0.0
C1386 C 0.8103 0.68577 0.39802 0.0
C1387 C 0.80553 0.67322 0.37717 0.0
H1388 H 0.34346 0.13692 0.49611 0.0
H1389 H 0.28977 0.07742 0.46053 0.0
H1390 H 0.36523 0.14988 0.45933 0.0
H1391 H 0.31127 0.09074 0.42372 0.0
H1392 H 0.34765 0.14086 0.35986 0.0
H1393 H 0.32593 0.12942 0.39675 0.0
H1394 H 0.38341 0.12985 0.43127 0.0
H1395 H 0.40492 0.14066 0.39434 0.0
C1396 C 0.33628 0.12672 0.48041 0.0
C1397 C 0.31501 0.10614 0.48113 0.0
C1398 C 0.34873 0.1341 0.45946 0.0
C1399 C 0.33982 0.1213 0.43881 0.0
C1400 C 0.31838 0.10094 0.43943 0.0
C1401 C 0.3062 0.09329 0.46047 0.0
C1402 C 0.35564 0.13858 0.37536 0.0
C1403 C 0.3779 0.14155 0.37429 0.0
C1404 C 0.34321 0.13198 0.39636 0.0
C1405 C 0.35309 0.12882 0.41672 0.0
C1406 C 0.37553 0.13231 0.41578 0.0
C1407 C 0.38774 0.13837 0.39468 0.0
H1408 H 0.95839 0.2422 0.47583 0.0
H1409 H 0.88821 0.19349 0.49513 0.0
H1410 H 0.94476 0.25152 0.44006 0.0
H1411 H 0.87457 0.20272 0.45908 0.0
H1412 H 0.86703 0.20777 0.37703 0.0
H1413 H 0.87832 0.19808 0.41434 0.0
H1414 H 0.92092 0.27043 0.42985 0.0
H1415 H 0.90957 0.28012 0.39287 0.0
C1416 C 0.94005 0.23352 0.47244 0.0
C1417 C 0.92436 0.21717 0.48829 0.0
C1418 C 0.93225 0.23893 0.45202 0.0
C1419 C 0.90861 0.22786 0.44683 0.0
C1420 C 0.89289 0.21142 0.46262 0.0
C1421 C 0.90068 0.20626 0.48328 0.0
C1422 C 0.87867 0.22157 0.38851 0.0
C1423 C 0.88747 0.24469 0.382 0.0
C1424 C 0.88504 0.21603 0.40987 0.0
C1425 C 0.90058 0.23352 0.4249 0.0
C1426 C 0.90909 0.25661 0.4185 0.0
C1427 C 0.90249 0.26213 0.39736 0.0
H1428 H 0.9568 0.53524 0.28079 0.0
H1429 H 1.01221 0.5324 0.31635 0.0
H1430 H 0.97648 0.54005 0.24321 0.0
H1431 H 0.03205 0.53777 0.27889 0.0
H1432 H 0.06961 0.58743 0.21387 0.0
H1433 H 0.04827 0.57544 0.25069 0.0
H1434 H 0.9928 0.51668 0.2161 0.0
H1435 H 1.01461 0.52836 0.17906 0.0
C1436 C 0.97306 0.53546 0.28053 0.0
C1437 C 0.98305 0.53357 0.30146 0.0
C1438 C 0.9842 0.53804 0.25906 0.0
C1439 C 1.00571 0.53924 0.25826 0.0
C1440 C 1.01545 0.53685 0.27911 0.0
C1441 C 1.0041 0.53378 0.30049 0.0
C1442 C 0.05297 0.57181 0.21415 0.0
C1443 C 0.04371 0.5588 0.19366 0.0
C1444 C 0.04084 0.56492 0.23522 0.0
C1445 C 0.01896 0.54517 0.23614 0.0
C1446 C 1.00968 0.53198 0.21573 0.0
C1447 C 0.02214 0.53858 0.19467 0.0
H1448 H 0.44559 0.49151 0.21098 0.0
H1449 H 0.50148 0.48829 0.17706 0.0
H1450 H 0.45571 0.48107 0.24826 0.0
H1451 H 0.51132 0.47716 0.21462 0.0
H1452 H 0.4906 0.4244 0.2801 0.0
H1453 H 0.4866 0.43939 0.24223 0.0
H1454 H 0.49173 0.49894 0.27691 0.0
H1455 H 0.49619 0.48428 0.31465 0.0
C1456 C 0.46018 0.48873 0.21158 0.0
C1457 C 0.47279 0.4907 0.19119 0.0
C1458 C 0.46599 0.48283 0.23291 0.0
C1459 C 0.48424 0.47829 0.23425 0.0
C1460 C 0.49713 0.48055 0.21396 0.0
C1461 C 0.49163 0.48704 0.19259 0.0
C1462 C 0.49101 0.44075 0.27959 0.0
C1463 C 0.49354 0.45311 0.30032 0.0
C1464 C 0.48894 0.4494 0.25793 0.0
C1465 C 0.48894 0.47033 0.25672 0.0
C1466 C 0.49169 0.48277 0.27741 0.0
C1467 C 0.49421 0.47436 0.29897 0.0
H1468 H 0.54653 0.96179 0.21379 0.0
H1469 H 0.54457 0.01876 0.18074 0.0
H1470 H 0.55769 0.98278 0.25078 0.0
H1471 H 0.55644 0.04015 0.21798 0.0
H1472 H 0.6098 0.0745 0.28302 0.0
H1473 H 0.59587 0.05503 0.24515 0.0
H1474 H 0.53726 0.99921 0.27963 0.0
H1475 H 0.55078 0.01879 0.3173 0.0
C1476 C 0.54846 0.97882 0.21446 0.0
C1477 C 0.54468 0.98868 0.19441 0.0
C1478 C 0.55477 0.99076 0.23564 0.0
C1479 C 0.55794 0.01303 0.23713 0.0
C1480 C 0.55415 0.02299 0.21716 0.0
C1481 C 0.54725 1.01075 0.19598 0.0
C1482 C 0.59391 0.05812 0.28245 0.0
C1483 C 0.58142 0.04808 0.30308 0.0
C1484 C 0.58587 0.04712 0.26082 0.0
C1485 C 0.56549 0.02571 0.25957 0.0
C1486 C 0.55302 0.01573 0.28018 0.0
C1487 C 0.56077 0.02692 0.30169 0.0
H1488 H 0.43132 0.95887 0.73077 0.0
H1489 H 0.48684 0.01638 0.69451 0.0
H1490 H 0.44274 0.98081 0.76737 0.0
H1491 H 0.49787 0.03855 0.73112 0.0
H1492 H 0.48126 0.07456 0.79475 0.0
H1493 H 0.47397 0.05288 0.75818 0.0
H1494 H 0.48078 1.00028 0.79485 0.0
H1495 H 0.48866 0.02222 0.83137 0.0
C1496 C 0.44603 0.97616 0.73068 0.0
C1497 C 0.45821 0.98597 0.70986 0.0
C1498 C 0.45258 0.98864 0.7516 0.0
C1499 C 0.47112 1.01132 0.75196 0.0
C1500 C 0.48347 0.02109 0.73121 0.0
C1501 C 0.47724 1.0084 0.71036 0.0
C1502 C 0.48131 0.05843 0.79496 0.0
C1503 C 0.48545 0.05001 0.81586 0.0
C1504 C 0.47729 0.04614 0.77405 0.0
C1505 C 0.47687 0.02499 0.77379 0.0
C1506 C 0.48101 0.01656 0.79467 0.0
C1507 C 0.48555 0.0291 0.81548 0.0
H1508 H 0.07182 0.47218 0.73209 0.0
H1509 H 1.01558 0.47487 0.69826 0.0
H1510 H 0.05015 0.461 0.76895 0.0
H1511 H 0.99371 0.46309 0.73501 0.0
H1512 H 0.95525 0.4106 0.79708 0.0
H1513 H 0.97748 0.42412 0.76073 0.0
H1514 H 0.03277 0.48047 0.79823 0.0
H1515 H 1.01029 0.46732 0.83459 0.0
C1516 C 0.05485 0.47039 0.73255 0.0
C1517 C 0.04536 0.47437 0.71234 0.0
C1518 C 0.04253 0.4641 0.75363 0.0
C1519 C 0.02029 0.46116 0.75474 0.0
C1520 C 1.0108 0.46517 0.73455 0.0
C1521 C 0.02334 0.47199 0.7136 0.0
C1522 C 0.97214 0.42588 0.79757 0.0
C1523 C 0.98107 0.43791 0.81864 0.0
C1524 C 0.98477 0.43366 0.77676 0.0
C1525 C 1.00678 0.45333 0.77674 0.0
C1526 C 1.01585 0.46523 0.79785 0.0
C1527 C 1.00298 0.45775 0.81857 0.0
H1528 H 0.56411 0.55188 0.82244 0.0
H1529 H 0.6236 0.55623 0.78817 0.0
H1530 H 0.55253 0.56179 0.78544 0.0
H1531 H 0.61161 0.56551 0.75107 0.0
H1532 H 0.56092 0.55196 0.68675 0.0
H1533 H 0.57336 0.54245 0.72346 0.0
H1534 H 0.57338 0.59992 0.75744 0.0
H1535 H 0.56158 0.60986 0.72064 0.0
C1536 C 0.5746 0.55481 0.80697 0.0
C1537 C 0.59476 0.55334 0.80814 0.0
C1538 C 0.56803 0.56056 0.78589 0.0
C1539 C 0.58121 0.56439 0.7655 0.0
C1540 C 0.60115 0.56255 0.76657 0.0
C1541 C 0.60802 0.55734 0.78777 0.0
C1542 C 0.56371 0.56262 0.70204 0.0
C1543 C 0.56036 0.58168 0.70087 0.0
C1544 C 0.57086 0.55721 0.72296 0.0
C1545 C 0.57422 0.57043 0.7432 0.0
C1546 C 0.57078 0.58942 0.74206 0.0
C1547 C 0.56417 0.59515 0.72101 0.0
H1548 H 0.36348 0.40347 0.09006 0.0
H1549 H 0.40374 0.38325 0.13232 0.0
H1550 H 0.34933 0.36793 0.06675 0.0
H1551 H 0.39013 0.3483 0.10902 0.0
H1552 H 0.38215 0.30328 0.04606 0.0
H1553 H 0.39478 0.34022 0.06472 0.0
H1554 H 0.32412 0.32178 0.07676 0.0
H1555 H 0.31119 0.28407 0.0588 0.0
C1556 C 0.36944 0.39154 0.09416 0.0
C1557 C 0.38465 0.39603 0.11299 0.0
C1558 C 0.36125 0.37121 0.081 0.0
C1559 C 0.36866 0.35538 0.08608 0.0
C1560 C 0.38421 0.36021 0.10462 0.0
C1561 C 0.39193 0.38015 0.11801 0.0
C1562 C 0.36916 0.30684 0.05273 0.0
C1563 C 0.34558 0.29023 0.05131 0.0
C1564 C 0.37647 0.32817 0.0633 0.0
C1565 C 0.36046 0.3338 0.07238 0.0
C1566 C 0.33684 0.3179 0.06982 0.0
C1567 C 0.32946 0.29629 0.0595 0.0
H1568 H 0.71817 0.05101 0.02187 0.0
H1569 H 0.75531 0.04393 0.07978 0.0
H1570 H 0.68171 0.0255 0.04132 0.0
H1571 H 0.71921 0.01983 0.10034 0.0
H1572 H 0.65105 0.96706 0.12975 0.0
H1573 H 0.68573 0.98629 0.10578 0.0
H1574 H 0.65761 0.02385 0.07017 0.0
H1575 H 0.6224 1.00313 0.09315 0.0
C1576 C 0.71839 0.04383 0.03882 0.0
C1577 C 0.73944 0.04925 0.04929 0.0
C1578 C 0.69752 0.02943 0.0502 0.0
C1579 C 0.69715 0.02059 0.07274 0.0
C1580 C 0.71842 0.02574 0.0829 0.0
C1581 C 0.73925 0.03966 0.07119 0.0
C1582 C 0.65233 0.97926 0.11655 0.0
C1583 C 0.63412 0.98364 0.11325 0.0
C1584 C 0.67232 0.99053 0.1029 0.0
C1585 C 0.67494 1.00702 0.08598 0.0
C1586 C 0.65636 1.01105 0.08255 0.0
C1587 C 0.63613 0.99929 0.09581 0.0
H1588 H 0.98053 0.71352 0.08655 0.0
H1589 H 0.97531 0.67085 0.02789 0.0
H1590 H 1.00421 0.70112 0.10743 0.0
H1591 H 1.0003 0.65949 0.04773 0.0
H1592 H 0.02461 0.62342 0.09805 0.0
H1593 H 1.00234 0.63693 0.0763 0.0
H1594 H 0.03843 0.70225 0.11259 0.0
H1595 H 0.05933 0.68778 0.13531 0.0
C1596 C 0.98495 0.70185 0.07796 0.0
C1597 C 0.97608 0.69308 0.05568 0.0
C1598 C 0.99866 0.69475 0.08984 0.0
C1599 C 1.00433 0.6791 0.07948 0.0
C1600 C 0.99596 0.67101 0.05674 0.0
C1601 C 0.98178 0.67767 0.04517 0.0
C1602 C 0.02776 0.64069 0.10118 0.0
C1603 C 0.04359 0.65453 0.11838 0.0
C1604 C 1.0151 0.6486 0.08862 0.0
C1605 C 1.01836 0.67084 0.0925 0.0
C1606 C 0.03482 0.68486 0.10935 0.0
C1607 C 0.04702 0.67669 0.1223 0.0
H1608 H 0.28472 0.32947 0.41118 0.0
H1609 H 0.32321 0.31193 0.45931 0.0
H1610 H 0.3192 0.35058 0.3868 0.0
H1611 H 0.35761 0.33319 0.43535 0.0
H1612 H 0.41445 0.36264 0.3823 0.0
H1613 H 0.37629 0.33521 0.39769 0.0
H1614 H 0.35595 0.38679 0.39151 0.0
H1615 H 0.39388 0.41394 0.37587 0.0
C1616 C 0.30042 0.32982 0.41636 0.0
C1617 C 0.30126 0.31919 0.43731 0.0
C1618 C 0.32024 0.34205 0.4025 0.0
C1619 C 0.34126 0.34368 0.40912 0.0
C1620 C 0.34174 0.33215 0.42953 0.0
C1621 C 0.32205 0.32016 0.44345 0.0
C1622 C 0.40161 0.36788 0.38361 0.0
C1623 C 0.40726 0.39054 0.37803 0.0
C1624 C 0.37981 0.35225 0.39267 0.0
C1625 C 0.36308 0.35885 0.39612 0.0
C1626 C 0.36828 0.38102 0.38901 0.0
C1627 C 0.3901 0.39667 0.38018 0.0
H1628 H 0.7007 0.96259 0.41592 0.0
H1629 H 0.71346 0.0138 0.4685 0.0
H1630 H 0.68143 0.97797 0.39143 0.0
H1631 H 0.69405 0.02894 0.44436 0.0
H1632 H 0.66879 0.06075 0.39141 0.0
H1633 H 0.69522 0.04891 0.40746 0.0
H1634 H 0.64452 0.97771 0.39482 0.0
H1635 H 0.61839 0.98964 0.37866 0.0
C1636 C 0.6997 0.97733 0.42207 0.0
C1637 C 0.70841 0.98683 0.44425 0.0
C1638 C 0.68854 0.98606 0.40814 0.0
C1639 C 0.68612 1.00468 0.41594 0.0
C1640 C 0.69577 0.01476 0.43767 0.0
C1641 C 0.70667 1.0059 0.45166 0.0
C1642 C 0.66362 0.04265 0.39146 0.0
C1643 C 0.64147 0.0261 0.38392 0.0
C1644 C 0.67863 0.03582 0.40088 0.0
C1645 C 0.67191 0.01232 0.40267 0.0
C1646 C 0.65035 0.99594 0.39362 0.0
C1647 C 0.6353 1.00275 0.38447 0.0
H1648 H 0.0357 0.64274 0.36539 0.0
H1649 H 0.98207 0.60652 0.41651 0.0
H1650 H 0.04827 0.67887 0.38649 0.0
H1651 H 0.9946 0.64264 0.43768 0.0
H1652 H 0.04586 0.70374 0.48382 0.0
H1653 H 0.03033 0.66887 0.46083 0.0
H1654 H 0.03528 0.70726 0.3983 0.0
H1655 H 0.05042 0.74251 0.42139 0.0
C1656 C 0.02651 0.64256 0.38106 0.0
C1657 C 1.00795 0.62178 0.38934 0.0
C1658 C 0.03359 0.66327 0.39304 0.0
C1659 C 0.02251 0.66362 0.41382 0.0
C1660 C 1.0036 0.64291 0.42181 0.0
C1661 C 0.99629 0.62226 0.40961 0.0
C1662 C 0.04341 0.70502 0.46529 0.0
C1663 C 0.0494 0.72633 0.45473 0.0
C1664 C 0.03444 0.68481 0.45206 0.0
C1665 C 0.0314 0.68522 0.42777 0.0
C1666 C 0.03752 0.70641 0.41701 0.0
C1667 C 0.04628 0.72667 0.43032 0.0
H1668 H 0.67184 0.63997 0.87954 0.0
H1669 H 0.63001 0.61207 0.94128 0.0
H1670 H 0.69234 0.67809 0.89824 0.0
H1671 H 0.65076 0.64953 0.96041 0.0
H1672 H 0.66145 0.72191 0.96805 0.0
H1673 H 0.64841 0.68337 0.95364 0.0
H1674 H 0.71726 0.70438 0.92959 0.0
H1675 H 0.73024 0.74366 0.94365 0.0
C1676 C 0.66764 0.64191 0.8974 0.0
C1677 C 0.6493 0.62331 0.90897 0.0
C1678 C 0.67932 0.66366 0.90815 0.0
C1679 C 0.67288 0.66702 0.93069 0.0
C1680 C 0.65578 0.64778 0.94284 0.0
C1681 C 0.64401 0.62628 0.93201 0.0
C1682 C 0.67386 0.71836 0.95975 0.0
C1683 C 0.69683 0.73591 0.95683 0.0
C1684 C 0.66645 0.69612 0.95171 0.0
C1685 C 0.68179 0.69062 0.94052 0.0
C1686 C 0.70497 0.70804 0.93802 0.0
C1687 C 0.71246 0.73045 0.94626 0.0
H1688 H 0.3104 0.9461 0.96917 0.0
H1689 H 0.29019 0.99434 0.94472 0.0
H1690 H 0.34936 0.97137 0.95573 0.0
H1691 H 0.32994 0.02042 0.93164 0.0
H1692 H 0.39612 0.04009 0.88386 0.0
H1693 H 0.35725 0.02213 0.90098 0.0
H1694 H 0.3831 1.00726 0.96407 0.0
H1695 H 0.42132 0.02437 0.94657 0.0
C1696 C 0.31436 0.96226 0.96103 0.0
C1697 C 0.29712 0.96809 0.95786 0.0
C1698 C 0.33685 0.97696 0.95355 0.0
C1699 C 0.34294 0.99808 0.94269 0.0
C1700 C 0.32583 1.00424 0.93985 0.0
C1701 C 0.30314 0.98944 0.94752 0.0
C1702 C 0.39342 0.03342 0.90157 0.0
C1703 C 0.41151 0.03328 0.91384 0.0
C1704 C 0.37123 0.02316 0.91141 0.0
C1705 C 0.36692 0.01278 0.93374 0.0
C1706 C 0.3856 0.01448 0.94661 0.0
C1707 C 0.40753 0.02439 0.93669 0.0
H1708 H 0.03493 0.29714 0.93562 0.0
H1709 H 0.08883 0.36632 0.95047 0.0
H1710 H 1.01068 0.3122 0.92023 0.0
H1711 H 0.06484 0.38138 0.93592 0.0
H1712 H 0.03351 0.40617 0.88438 0.0
H1713 H 0.05297 0.38569 0.89762 0.0
H1714 H 0.98938 0.33301 0.92841 0.0
H1715 H 0.96982 0.3535 0.91415 0.0
C1716 C 0.04128 0.31549 0.93616 0.0
C1717 C 0.06376 0.33064 0.94404 0.0
C1718 C 0.02751 0.32414 0.92725 0.0
C1719 C 0.03605 0.34807 0.92619 0.0
C1720 C 0.05796 0.36293 0.93565 0.0
C1721 C 0.07165 0.35434 0.94427 0.0
C1722 C 0.02362 0.38984 0.89334 0.0
C1723 C 1.00025 0.3813 0.89817 0.0
C1724 C 0.03476 0.37826 0.90127 0.0
C1725 C 0.02291 0.35802 0.91472 0.0
C1726 C 0.99905 0.34857 0.91818 0.0
C1727 C 0.9878 0.36015 0.90992 0.0
H1728 H 0.61429 0.62668 0.56792 0.0
H1729 H 0.63705 0.65681 0.63631 0.0
H1730 H 0.65244 0.65224 0.55195 0.0
H1731 H 0.67578 0.68253 0.62037 0.0
H1732 H 0.7423 0.73184 0.57997 0.0
H1733 H 0.70147 0.71433 0.59148 0.0
H1734 H 0.68782 0.65059 0.55883 0.0
H1735 H 0.72827 0.66813 0.54775 0.0
C1736 C 0.6275 0.63903 0.57948 0.0
C1737 C 0.62292 0.63949 0.60343 0.0
C1738 C 0.64934 0.65367 0.57034 0.0
C1739 C 0.66727 0.66912 0.58495 0.0
C1740 C 0.6623 0.67084 0.60863 0.0
C1741 C 0.64021 0.65614 0.6178 0.0
C1742 C 0.73024 0.71435 0.5747 0.0
C1743 C 0.7381 0.70133 0.56268 0.0
C1744 C 0.70704 0.70424 0.58151 0.0
C1745 C 0.69139 0.68107 0.57606 0.0
C1746 C 0.69927 0.66855 0.56303 0.0
C1747 C 0.72237 0.67852 0.5566 0.0
H1748 H 0.3728 0.98644 0.64758 0.0
H1749 H 0.4131 0.01334 0.58464 0.0
H1750 H 0.34546 0.998 0.63308 0.0
H1751 H 0.38581 0.0245 0.56996 0.0
H1752 H 0.32536 0.03084 0.54379 0.0
H1753 H 0.34292 1.00834 0.5577 0.0
H1754 H 0.35287 0.03965 0.62596 0.0
H1755 H 0.33583 0.06229 0.61183 0.0
C1756 C 0.37548 0.99437 0.63046 0.0
C1757 C 0.3951 0.99926 0.61731 0.0
C1758 C 0.35994 1.00101 0.6222 0.0
C1759 C 0.36351 1.01211 0.60037 0.0
C1760 C 0.38248 0.01578 0.58671 0.0
C1761 C 0.3982 1.00961 0.59518 0.0
C1762 C 0.33078 0.03234 0.56189 0.0
C1763 C 0.32938 0.04824 0.57678 0.0
C1764 C 0.3409 0.01963 0.56982 0.0
C1765 C 0.34928 0.02229 0.59291 0.0
C1766 C 0.34639 0.03707 0.60818 0.0
C1767 C 0.33676 0.05008 0.60011 0.0
H1768 H 1.01467 0.41181 0.5818 0.0
H1769 H 0.04897 0.39431 0.635 0.0
H1770 H 1.00161 0.37481 0.5628 0.0
H1771 H 0.03534 0.35666 0.61634 0.0
H1772 H 1.01207 0.29164 0.5718 0.0
H1773 H 0.03408 0.33277 0.58229 0.0
H1774 H 0.97223 0.33715 0.57464 0.0
H1775 H 0.95082 0.29669 0.56405 0.0
C1776 C 0.01955 0.40003 0.5893 0.0
C1777 C 0.03246 0.40571 0.61009 0.0
C1778 C 1.01205 0.3788 0.57845 0.0
C1779 C 1.01698 0.3625 0.58828 0.0
C1780 C 0.03128 0.36881 0.60823 0.0
C1781 C 0.03904 0.39031 0.61899 0.0
C1782 C 1.00352 0.30173 0.57177 0.0
C1783 C 0.9798 0.29111 0.5671 0.0
C1784 C 1.01598 0.32514 0.57803 0.0
C1785 C 1.00495 0.33833 0.57936 0.0
C1786 C 0.98146 0.32776 0.57351 0.0
C1787 C 0.9691 0.30451 0.56753 0.0
H1788 H 0.99157 0.65114 0.80356 0.0
H1789 H 0.95323 0.66363 0.75052 0.0
H1790 H 0.02619 0.67053 0.77954 0.0
H1791 H 0.98794 0.68286 0.72617 0.0
H1792 H 0.06259 0.74576 0.71315 0.0
H1793 H 0.02455 0.71976 0.72935 0.0
H1794 H 0.04511 0.66918 0.74282 0.0
H1795 H 0.08337 0.69548 0.72672 0.0
C1796 C 0.9905 0.65788 0.78665 0.0
C1797 C 0.96968 0.65605 0.77908 0.0
C1798 C 1.01031 0.66876 0.77273 0.0
C1799 C 1.00991 0.67831 0.75089 0.0
C1800 C 0.98889 0.67584 0.74296 0.0
C1801 C 0.96896 0.6647 0.75682 0.0
C1802 C 0.0588 0.72889 0.71914 0.0
C1803 C 0.07601 0.72273 0.7188 0.0
C1804 C 0.03695 0.71391 0.72832 0.0
C1805 C 0.03179 0.69243 0.73762 0.0
C1806 C 0.0486 0.68571 0.73605 0.0
C1807 C 0.07043 0.70065 0.72659 0.0
H1808 H 0.38179 0.34772 0.80357 0.0
H1809 H 0.37388 0.29974 0.74899 0.0
H1810 H 0.35951 0.36027 0.78073 0.0
H1811 H 0.35238 0.31309 0.72552 0.0
H1812 H 0.28979 0.32074 0.7055 0.0
H1813 H 0.31547 0.31026 0.72501 0.0
H1814 H 0.35851 0.38081 0.74712 0.0
H1815 H 0.33214 0.39107 0.72849 0.0
C1816 C 0.37542 0.33989 0.78663 0.0
C1817 C 0.3795 0.32246 0.77835 0.0
C1818 C 0.36285 0.34736 0.77331 0.0
C1819 C 0.35399 0.33772 0.7512 0.0
C1820 C 0.35862 0.32074 0.74259 0.0
C1821 C 0.37121 0.31323 0.75596 0.0
C1822 C 0.30467 0.33406 0.71457 0.0
C1823 C 0.30861 0.35674 0.71558 0.0
C1824 C 0.31964 0.32808 0.72555 0.0
C1825 C 0.33911 0.34461 0.73784 0.0
C1826 C 0.34352 0.36748 0.73817 0.0
C1827 C 0.32849 0.37347 0.7272 0.0
H1828 H 0.72661 0.07836 0.74942 0.0
H1829 H 0.68395 0.03661 0.80665 0.0
H1830 H 0.71147 0.04424 0.72476 0.0
H1831 H 0.66979 1.00244 0.78246 0.0
H1832 H 0.63656 0.94466 0.73054 0.0
H1833 H 0.64681 0.98099 0.74995 0.0
H1834 H 0.71548 1.01122 0.72113 0.0
H1835 H 0.70486 0.9754 0.70096 0.0
C1836 C 0.71391 0.062 0.75677 0.0
C1837 C 0.70674 0.06037 0.78022 0.0
C1838 C 0.70537 0.04231 0.74265 0.0
C1839 C 0.68948 0.02043 0.75158 0.0
C1840 C 0.6818 0.01894 0.7748 0.0
C1841 C 0.69025 0.0386 0.78886 0.0
C1842 C 0.65365 0.95922 0.72789 0.0
C1843 C 0.66994 0.95698 0.71434 0.0
C1844 C 0.65966 0.98001 0.73929 0.0
C1845 C 0.6821 0.99909 0.73741 0.0
C1846 C 0.69799 0.99709 0.72293 0.0
C1847 C 0.69198 0.97638 0.71153 0.0
H1848 H 0.38016 0.06139 0.31105 0.0
H1849 H 0.35394 0.07325 0.24674 0.0
H1850 H 0.36813 0.02196 0.29818 0.0
H1851 H 0.34222 0.03421 0.23372 0.0
H1852 H 0.33356 0.96572 0.21093 0.0
H1853 H 0.35684 1.00622 0.22307 0.0
H1854 H 0.32671 0.9881 0.29216 0.0
H1855 H 0.30339 0.94798 0.27985 0.0
C1856 C 0.37232 0.0557 0.29397 0.0
C1857 C 0.36774 0.07018 0.27997 0.0
C1858 C 0.36538 0.0332 0.28663 0.0
C1859 C 0.35424 0.02503 0.26494 0.0
C1860 C 0.35095 0.04006 0.2504 0.0
C1861 C 0.35746 0.06231 0.25792 0.0
C1862 C 0.33245 0.97043 0.22883 0.0
C1863 C 0.31667 0.95391 0.24446 0.0
C1864 C 0.34562 0.99353 0.23575 0.0
C1865 C 0.34354 1.0003 0.25856 0.0
C1866 C 0.32886 0.9834 0.27457 0.0
C1867 C 0.31542 0.9605 0.26752 0.0
H1868 H 0.07907 0.38137 0.25424 0.0
H1869 H 0.05297 0.33387 0.19649 0.0
H1870 H 0.04033 0.36314 0.27155 0.0
H1871 H 1.01417 0.31632 0.21278 0.0
H1872 H 0.96167 0.26759 0.26509 0.0
H1873 H 0.99739 0.29113 0.24455 0.0
H1874 H 0.9998 0.35256 0.27141 0.0
H1875 H 0.96398 0.32847 0.29317 0.0
C1876 C 0.06481 0.36755 0.2449 0.0
C1877 C 0.06883 0.35884 0.22418 0.0
C1878 C 0.04263 0.35708 0.25474 0.0
C1879 C 0.02412 0.33788 0.24385 0.0
C1880 C 0.02805 0.33058 0.22206 0.0
C1881 C 0.05018 0.34074 0.21255 0.0
C1882 C 0.96978 0.28609 0.26683 0.0
C1883 C 0.96004 0.29607 0.28111 0.0
C1884 C 0.9902 0.29971 0.25465 0.0
C1885 C 1.00155 0.32387 0.25608 0.0
C1886 C 0.99162 0.33401 0.26998 0.0
C1887 C 0.971 0.32024 0.28229 0.0
H1888 H 0.70763 0.65223 0.30367 0.0
H1889 H 0.75113 0.67412 0.24254 0.0
H1890 H 0.68363 0.66649 0.28605 0.0
H1891 H 0.72695 0.68746 0.22446 0.0
H1892 H 0.7068 0.74303 0.22027 0.0
H1893 H 0.72403 0.72053 0.23275 0.0
H1894 H 0.65735 0.66585 0.25522 0.0
H1895 H 0.6401 0.68918 0.24307 0.0
C1896 C 0.71159 0.65949 0.28619 0.0
C1897 C 0.73137 0.66248 0.27457 0.0
C1898 C 0.69787 0.6676 0.27604 0.0
C1899 C 0.70362 0.67859 0.254 0.0
C1900 C 0.72236 0.67972 0.24171 0.0
C1901 C 0.73617 0.67199 0.25197 0.0
C1902 C 0.69575 0.72614 0.22772 0.0
C1903 C 0.67215 0.71796 0.23087 0.0
C1904 C 0.70559 0.71306 0.23467 0.0
C1905 C 0.69212 0.69125 0.24496 0.0
C1906 C 0.66826 0.68263 0.24749 0.0
C1907 C 0.65833 0.69583 0.24034 0.0
H1908 H 0.35065 0.1803 0.10123 0.0
H1909 H 0.3007 0.18698 0.14334 0.0
H1910 H 0.3697 0.17826 0.13643 0.0
H1911 H 0.321 0.18691 0.1786 0.0
H1912 H 0.3475 0.16251 0.23889 0.0
H1913 H 0.32806 0.16369 0.2034 0.0
H1914 H 0.39359 0.19886 0.16746 0.0
H1915 H 0.41282 0.19662 0.20296 0.0
C1916 C 0.34357 0.18124 0.11797 0.0
C1917 C 0.32378 0.18348 0.11921 0.0
C1918 C 0.35489 0.18054 0.1383 0.0
C1919 C 0.34706 0.18244 0.1606 0.0
C1920 C 0.32744 0.18499 0.16186 0.0
C1921 C 0.31591 0.18537 0.14151 0.0
C1922 C 0.35775 0.17059 0.2234 0.0
C1923 C 0.38172 0.17962 0.22376 0.0
C1924 C 0.34661 0.17139 0.20301 0.0
C1925 C 0.35913 0.18154 0.18238 0.0
C1926 C 0.3832 0.19057 0.18278 0.0
C1927 C 0.39432 0.18943 0.20317 0.0
H1928 H 0.85486 0.17795 0.10633 0.0
H1929 H 0.83154 0.11579 0.14697 0.0
H1930 H 0.85808 0.19923 0.14195 0.0
H1931 H 0.83348 0.13681 0.18245 0.0
H1932 H 0.8632 0.18564 0.24465 0.0
H1933 H 0.85993 0.16447 0.20895 0.0
H1934 H 0.83681 0.2053 0.17157 0.0
H1935 H 0.84051 0.22682 0.20741 0.0
C1936 C 0.85047 0.16876 0.12284 0.0
C1937 C 0.8431 0.14507 0.12361 0.0
C1938 C 0.85197 0.18096 0.14333 0.0
C1939 C 0.84604 0.16985 0.16525 0.0
C1940 C 0.83851 0.14612 0.16601 0.0
C1941 C 0.83711 0.13393 0.14553 0.0
C1942 C 0.85717 0.18997 0.22889 0.0
C1943 C 0.85194 0.20787 0.22902 0.0
C1944 C 0.85526 0.17776 0.20833 0.0
C1945 C 0.84797 0.18297 0.18722 0.0
C1946 C 0.84278 0.20093 0.18734 0.0
C1947 C 0.84483 0.21327 0.20793 0.0
H1948 H 0.81223 0.61731 0.20567 0.0
H1949 H 0.84361 0.68213 0.24245 0.0
H1950 H 0.83437 0.6368 0.17062 0.0
H1951 H 0.86493 0.70187 0.20736 0.0
H1952 H 0.91531 0.7303 0.1471 0.0
H1953 H 0.89511 0.70949 0.18228 0.0
H1954 H 0.83806 0.66084 0.13984 0.0
H1955 H 0.85897 0.68036 0.10479 0.0
C1956 C 0.82375 0.63576 0.20618 0.0
C1957 C 0.82629 0.64811 0.2269 0.0
C1958 C 0.83641 0.64705 0.18603 0.0
C1959 C 0.85164 0.67109 0.18591 0.0
C1960 C 0.85392 0.68335 0.2067 0.0
C1961 C 0.84156 0.67202 0.22689 0.0
C1962 C 0.89861 0.71498 0.14519 0.0
C1963 C 0.88886 0.70733 0.12285 0.0
C1964 C 0.88678 0.70315 0.16551 0.0
C1965 C 0.86471 0.68339 0.16418 0.0
C1966 C 0.85506 0.67572 0.14182 0.0
C1967 C 0.86699 0.68733 0.12155 0.0
H1968 H 0.21429 0.31478 0.35933 0.0
H1969 H 0.19594 0.35184 0.40853 0.0
H1970 H 0.20957 0.33595 0.32698 0.0
H1971 H 0.19132 0.37316 0.37609 0.0
H1972 H 0.15753 0.38179 0.3069 0.0
H1973 H 0.16448 0.36458 0.34147 0.0
H1974 H 0.2286 0.37641 0.3115 0.0
H1975 H 0.22206 0.39413 0.27727 0.0
C1976 C 0.20922 0.32743 0.36322 0.0
C1977 C 0.20545 0.33159 0.38649 0.0
C1978 C 0.20671 0.33972 0.34471 0.0
C1979 C 0.20013 0.35629 0.34897 0.0
C1980 C 0.1963 0.36044 0.37224 0.0
C1981 C 0.19911 0.34835 0.3908 0.0
C1982 C 0.17338 0.38125 0.30789 0.0
C1983 C 0.1891 0.38918 0.28909 0.0
C1984 C 0.17731 0.37127 0.32769 0.0
C1985 C 0.19694 0.36884 0.32907 0.0
C1986 C 0.21308 0.37761 0.31075 0.0
C1987 C 0.20929 0.38775 0.29111 0.0
H1988 H 0.71869 0.86256 0.38934 0.0
H1989 H 0.66661 0.88219 0.39631 0.0
H1990 H 0.69662 0.83613 0.35798 0.0
H1991 H 0.64391 0.85478 0.36585 0.0
H1992 H 0.62526 0.82625 0.29068 0.0
H1993 H 0.64401 0.85013 0.32471 0.0
H1994 H 0.6629 0.80063 0.34865 0.0
H1995 H 0.6451 0.77729 0.31388 0.0
C1996 C 0.70251 0.86124 0.38425 0.0
C1997 C 0.6946 0.87472 0.39537 0.0
C1998 C 0.68962 0.84574 0.36646 0.0
C1999 C 0.66836 0.84317 0.35931 0.0
C2000 C 0.66029 0.85642 0.37065 0.0
C2001 C 0.67323 0.87199 0.38838 0.0
C2002 C 0.63333 0.82038 0.30324 0.0
C2003 C 0.63382 0.7999 0.29934 0.0
C2004 C 0.64393 0.83401 0.32295 0.0
C2005 C 0.65524 0.82751 0.33945 0.0
C2006 C 0.65476 0.80645 0.33614 0.0
C2007 C 0.6442 0.79283 0.31634 0.0
H2008 H 0.16684 0.86057 0.3915 0.0
H2009 H 0.1527 0.79076 0.40123 0.0
H2010 H 0.19219 0.86532 0.35886 0.0
H2011 H 0.17853 0.79577 0.36861 0.0
H2012 H 0.24265 0.82266 0.31876 0.0
H2013 H 0.22039 0.81842 0.35458 0.0
H2014 H 0.18525 0.84885 0.31892 0.0
H2015 H 0.20737 0.85321 0.28364 0.0
C2016 C 0.16906 0.84618 0.38667 0.0
C2017 C 0.15735 0.82514 0.39885 0.0
C2018 C 0.18371 0.84896 0.36798 0.0
C2019 C 0.18722 0.83086 0.36098 0.0
C2020 C 0.1763 0.8101 0.37368 0.0
C2021 C 0.16148 0.80724 0.39238 0.0
C2022 C 0.23022 0.82849 0.31872 0.0
C2023 C 0.2266 0.83805 0.29833 0.0
C2024 C 0.21739 0.82594 0.33913 0.0
C2025 C 0.20108 0.83335 0.33961 0.0
C2026 C 0.19781 0.84318 0.31926 0.0
C2027 C 0.21034 0.84546 0.29894 0.0
H2028 H 0.64387 0.86728 0.81216 0.0
H2029 H 0.67748 0.83883 0.77048 0.0
H2030 H 0.66469 0.86619 0.84661 0.0
H2031 H 0.69715 0.83637 0.80518 0.0
H2032 H 0.74629 0.85541 0.86768 0.0
H2033 H 0.72678 0.85801 0.83255 0.0
H2034 H 0.66618 0.84059 0.87387 0.0
H2035 H 0.68584 0.83858 0.90878 0.0
C2036 C 0.65562 0.86072 0.81029 0.0
C2037 C 0.65879 0.85306 0.78839 0.0
C2038 C 0.66741 0.85981 0.83019 0.0
C2039 C 0.68263 0.85108 0.82886 0.0
C2040 C 0.68582 0.84345 0.80696 0.0
C2041 C 0.67416 0.8445 0.78704 0.0
C2042 C 0.7288 0.85213 0.86918 0.0
C2043 C 0.71777 0.84708 0.8911 0.0
C2044 C 0.71753 0.85354 0.84903 0.0
C2045 C 0.69485 0.84967 0.85026 0.0
C2046 C 0.68378 0.84427 0.8722 0.0
C2047 C 0.69508 0.84306 0.89228 0.0
H2048 H 0.18536 0.89958 0.86894 0.0
H2049 H 0.1889 0.84914 0.91331 0.0
H2050 H 0.18624 0.87875 0.83453 0.0
H2051 H 0.18768 0.8273 0.87908 0.0
H2052 H 0.20781 0.8037 0.81264 0.0
H2053 H 0.2082 0.82512 0.84749 0.0
H2054 H 0.16517 0.84655 0.81157 0.0
H2055 H 0.16592 0.82618 0.77668 0.0
C2056 C 0.18615 0.88399 0.87147 0.0
C2057 C 0.1869 0.87616 0.89417 0.0
C2058 C 0.18631 0.87176 0.85161 0.0
C2059 C 0.18691 0.8511 0.85378 0.0
C2060 C 0.18752 0.84322 0.87648 0.0
C2061 C 0.18772 0.85562 0.89629 0.0
C2062 C 0.19846 0.81301 0.81233 0.0
C2063 C 0.18704 0.81346 0.7919 0.0
C2064 C 0.19854 0.82524 0.83234 0.0
C2065 C 0.18682 0.83785 0.83253 0.0
C2066 C 0.17494 0.83769 0.81211 0.0
C2067 C 0.17521 0.82583 0.79208 0.0
H2068 H 0.19721 0.38225 0.78457 0.0
H2069 H 0.24168 0.35296 0.78755 0.0
H2070 H 0.17589 0.35924 0.81842 0.0
H2071 H 0.21999 0.32935 0.82091 0.0
H2072 H 0.19038 0.30734 0.89487 0.0
H2073 H 0.21194 0.32942 0.86087 0.0
H2074 H 0.14934 0.3216 0.83055 0.0
H2075 H 0.12808 0.30091 0.86529 0.0
C2076 C 0.20238 0.37082 0.79245 0.0
C2077 C 0.22122 0.36955 0.78344 0.0
C2078 C 0.19003 0.35744 0.81177 0.0
C2079 C 0.19599 0.34217 0.82245 0.0
C2080 C 0.21501 0.34109 0.81348 0.0
C2081 C 0.22751 0.35467 0.79432 0.0
C2082 C 0.18117 0.31037 0.88101 0.0
C2083 C 0.15743 0.30243 0.88309 0.0
C2084 C 0.19355 0.32287 0.86129 0.0
C2085 C 0.18254 0.32764 0.8429 0.0
C2086 C 0.1586 0.31879 0.84451 0.0
C2087 C 0.14626 0.30647 0.86434 0.0
H2088 H 0.83508 0.64665 0.72521 0.0
H2089 H 0.90743 0.69738 0.72918 0.0
H2090 H 0.83044 0.66789 0.69309 0.0
H2091 H 0.90271 0.71875 0.69695 0.0
H2092 H 0.88022 0.75972 0.64823 0.0
H2093 H 0.88407 0.74143 0.68404 0.0
H2094 H 0.84267 0.67454 0.65236 0.0
H2095 H 0.83854 0.6926 0.61725 0.0
C2096 C 0.85004 0.6623 0.71919 0.0
C2097 C 0.8717 0.67009 0.72962 0.0
C2098 C 0.84736 0.67454 0.70079 0.0
C2099 C 0.86624 0.69493 0.69227 0.0
C2100 C 0.88776 0.70322 0.70321 0.0
C2101 C 0.89047 0.69093 0.72167 0.0
C2102 C 0.87183 0.74112 0.64911 0.0
C2103 C 0.85929 0.72763 0.62984 0.0
C2104 C 0.87416 0.73065 0.6695 0.0
C2105 C 0.86365 0.7065 0.67108 0.0
C2106 C 0.85078 0.69314 0.65191 0.0
C2107 C 0.84862 0.70353 0.63164 0.0
H2108 H 0.37755 0.23968 0.69719 0.0
H2109 H 0.34663 0.18463 0.74793 0.0
H2110 H 0.35435 0.21298 0.66627 0.0
H2111 H 0.32316 0.15793 0.71698 0.0
H2112 H 0.30954 0.11458 0.64781 0.0
H2113 H 0.32878 0.13948 0.68137 0.0
H2114 H 0.31346 0.19029 0.65374 0.0
H2115 H 0.29389 0.16532 0.62046 0.0
C2116 C 0.36582 0.22188 0.70175 0.0
C2117 C 0.36399 0.21431 0.72504 0.0
C2118 C 0.35233 0.20661 0.68406 0.0
C2119 C 0.33682 0.18331 0.68915 0.0
C2120 C 0.33501 0.17572 0.71244 0.0
C2121 C 0.34833 0.19106 0.73019 0.0
C2122 C 0.30973 0.13079 0.64917 0.0
C2123 C 0.3003 0.13798 0.63124 0.0
C2124 C 0.32089 0.14513 0.66838 0.0
C2125 C 0.32298 0.16704 0.67006 0.0
C2126 C 0.3126 0.17374 0.65273 0.0
C2127 C 0.30133 0.15938 0.63366 0.0
H2128 H 0.91618 0.19587 0.65115 0.0
H2129 H 0.86547 0.12975 0.6233 0.0
H2130 H 0.89121 0.18998 0.68463 0.0
H2131 H 0.84027 0.12434 0.65643 0.0
H2132 H 0.7916 0.14085 0.70027 0.0
H2133 H 0.81805 0.14374 0.66923 0.0
H2134 H 0.87255 0.16458 0.72011 0.0
H2135 H 0.84605 0.16173 0.75121 0.0
C2136 C 0.89996 0.17987 0.65232 0.0
C2137 C 0.89288 0.16339 0.63427 0.0
C2138 C 0.88556 0.17657 0.67151 0.0
C2139 C 0.86363 0.15682 0.67305 0.0
C2140 C 0.8569 0.13994 0.65554 0.0
C2141 C 0.87138 0.14309 0.63651 0.0
C2142 C 0.80922 0.14606 0.70483 0.0
C2143 C 0.81673 0.1511 0.7282 0.0
C2144 C 0.82433 0.14751 0.68708 0.0
C2145 C 0.84741 0.15435 0.6922 0.0
C2146 C 0.85492 0.15937 0.71558 0.0
C2147 C 0.8397 0.15758 0.7334 0.0
H2148 H 1.01374 0.4965 0.5766 0.0
H2149 H 0.07906 0.52892 0.54065 0.0
H2150 H 0.99474 0.49879 0.54123 0.0
H2151 H 0.06034 0.53229 0.50533 0.0
H2152 H 1.01787 0.51531 0.43897 0.0
H2153 H 0.03653 0.5128 0.47419 0.0
H2154 H 0.98818 0.52216 0.5162 0.0
H2155 H 0.9682 0.52269 0.4808 0.0
C2156 C 0.02411 0.50444 0.56115 0.0
C2157 C 0.04795 0.51263 0.56148 0.0
C2158 C 1.01321 0.50589 0.5408 0.0
C2159 C 0.02586 0.51587 0.52018 0.0
C2160 C 0.0498 0.52413 0.5206 0.0
C2161 C 0.06065 0.52233 0.54091 0.0
C2162 C 1.01078 0.51634 0.45566 0.0
C2163 C 0.9911 0.51881 0.45676 0.0
C2164 C 0.0219 0.51537 0.47604 0.0
C2165 C 1.01405 0.51727 0.49834 0.0
C2166 C 0.99463 0.5202 0.49948 0.0
C2167 C 0.98328 0.52085 0.47904 0.0
H2168 H 0.53186 0.56957 0.53581 0.0
H2169 H 0.48322 0.50466 0.56764 0.0
H2170 H 0.53282 0.54938 0.50094 0.0
H2171 H 0.48576 0.48437 0.53369 0.0
H2172 H 0.48008 0.45374 0.46134 0.0
H2173 H 0.47656 0.47403 0.49502 0.0
H2174 H 0.54771 0.52725 0.48643 0.0
H2175 H 0.55065 0.50734 0.45199 0.0
C2176 C 0.52118 0.55101 0.53539 0.0
C2177 C 0.50754 0.53888 0.55483 0.0
C2178 C 0.52212 0.53931 0.51546 0.0
C2179 C 0.5097 0.51507 0.5144 0.0
C2180 C 0.49552 0.503 0.53356 0.0
C2181 C 0.4943 0.51471 0.55333 0.0
C2182 C 0.49502 0.46966 0.46685 0.0
C2183 C 0.51567 0.47888 0.45408 0.0
C2184 C 0.49304 0.48136 0.48624 0.0
C2185 C 0.51181 0.50248 0.49366 0.0
C2186 C 0.53266 0.51138 0.48108 0.0
C2187 C 0.53448 0.49986 0.46144 0.0
H2188 H 0.51606 0.046 0.44491 0.0
H2189 H 0.57826 0.05153 0.47369 0.0
H2190 H 0.49469 0.02417 0.47894 0.0
H2191 H 0.55724 0.03131 0.50872 0.0
H2192 H 0.5097 0.97313 0.5575 0.0
H2193 H 0.53096 0.99501 0.52305 0.0
H2194 H 0.48642 0.02431 0.51814 0.0
H2195 H 0.46468 1.00157 0.55185 0.0
C2196 C 0.52531 0.04277 0.45856 0.0
C2197 C 0.54898 0.05042 0.45618 0.0
C2198 C 0.51302 0.03045 0.4784 0.0
C2199 C 0.52404 0.02566 0.49677 0.0
C2200 C 0.54791 0.03411 0.49483 0.0
C2201 C 0.56015 0.04618 0.47481 0.0
C2202 C 0.50439 0.98412 0.54887 0.0
C2203 C 0.48536 0.98542 0.55726 0.0
C2204 C 0.51672 0.9969 0.52922 0.0
C2205 C 0.51064 1.01169 0.51763 0.0
C2206 C 0.4915 0.01288 0.52612 0.0
C2207 C 0.47896 0.99981 0.54553 0.0
H2208 H 0.54837 0.98482 0.03454 0.0
H2209 H 0.53216 0.02191 0.08576 0.0
H2210 H 0.54493 1.00787 1.00322 0.0
H2211 H 0.52841 0.04484 0.0543 0.0
H2212 H 0.49504 0.05513 0.98426 0.0
H2213 H 0.5009 0.03656 0.0184 0.0
H2214 H 0.56652 0.05067 0.99064 0.0
H2215 H 0.56129 0.07006 0.95707 0.0
C2216 C 0.54404 0.99788 0.03908 0.0
C2217 C 0.54055 1.00156 0.0626 0.0
C2218 C 0.54221 1.01118 0.02118 0.0
C2219 C 0.53644 0.02821 0.02631 0.0
C2220 C 0.5328 0.03181 0.04982 0.0
C2221 C 0.53508 0.01879 0.0678 0.0
C2222 C 0.51102 0.05489 0.98568 0.0
C2223 C 0.52754 0.06393 0.9676 0.0
C2224 C 0.51429 0.04409 1.00522 0.0
C2225 C 0.53401 0.04184 0.00701 0.0
C2226 C 0.55095 0.05175 0.98953 0.0
C2227 C 0.54788 0.06282 0.97024 0.0
H2228 H 0.99987 0.49595 0.94643 0.0
H2229 H 0.93924 0.45422 0.98815 0.0
H2230 H 0.01899 0.51987 0.98035 0.0
H2231 H 0.95865 0.47837 0.0225 0.0
H2232 H 0.9967 0.54686 0.06827 0.0
H2233 H 0.9749 0.52064 0.03629 0.0
H2234 H 0.03389 0.51399 0.01861 0.0
H2235 H 0.05543 0.53948 0.05074 0.0
C2236 C 0.99052 0.49201 0.96283 0.0
C2237 C 0.96794 0.47327 0.96453 0.0
C2238 C 1.00159 0.5056 0.98235 0.0
C2239 C 0.99038 0.50097 1.00413 0.0
C2240 C 0.96768 0.48241 1.00589 0.0
C2241 C 0.95663 0.46853 0.98631 0.0
C2242 C 1.00494 0.53956 0.05781 0.0
C2243 C 0.02802 0.54563 0.062 0.0
C2244 C 0.99242 0.52454 0.03946 0.0
C2245 C 1.00276 0.51544 0.02479 0.0
C2246 C 0.02557 0.52105 0.02933 0.0
C2247 C 0.03797 0.53581 0.04772 0.0
H2248 H 0.49721 0.53119 0.05155 0.0
H2249 H 0.48475 0.46185 0.06046 0.0
H2250 H 0.52279 0.53686 0.01885 0.0
H2251 H 0.51094 0.46787 0.02792 0.0
H2252 H 0.57612 0.49678 0.97949 0.0
H2253 H 0.5529 0.49152 0.01479 0.0
H2254 H 0.51738 0.52122 0.97854 0.0
H2255 H 0.54045 0.52653 0.9437 0.0
C2256 C 0.49979 0.51706 0.04653 0.0
C2257 C 0.48852 0.49592 0.0586 0.0
C2258 C 0.5146 0.52039 0.02779 0.0
C2259 C 0.51881 0.50277 0.02063 0.0
C2260 C 0.50822 0.48187 0.03311 0.0
C2261 C 0.49319 0.47844 0.0518 0.0
C2262 C 0.56342 0.50225 0.9792 0.0
C2263 C 0.56001 0.5119 0.95874 0.0
C2264 C 0.55002 0.49911 0.99932 0.0
C2265 C 0.53328 0.50597 0.9995 0.0
C2266 C 0.53023 0.51593 0.97912 0.0
C2267 C 0.54333 0.51878 0.95905 0.0
H2268 H 0.21928 0.10786 0.9651 0.0
H2269 H 0.26005 0.1065 0.023 0.0
H2270 H 0.20961 0.06891 0.95441 0.0
H2271 H 0.25024 0.06741 0.01243 0.0
H2272 H 0.24467 1.00449 0.977 0.0
H2273 H 0.25613 0.04467 0.98387 0.0
H2274 H 0.18718 0.02982 0.96719 0.0
H2275 H 0.17587 0.98974 0.9598 0.0
C2276 C 0.22606 0.09922 0.97571 0.0
C2277 C 0.24042 0.11043 0.99503 0.0
C2278 C 0.22049 0.0768 0.96954 0.0
C2279 C 0.22908 0.06484 0.98251 0.0
C2280 C 0.24358 0.07612 1.00173 0.0
C2281 C 0.24919 0.09859 0.00787 0.0
C2282 C 0.232 1.00983 0.97446 0.0
C2283 C 0.20929 0.99375 0.96787 0.0
C2284 C 0.23854 0.0329 0.97864 0.0
C2285 C 0.22256 0.04059 0.97639 0.0
C2286 C 0.20007 0.02468 0.96893 0.0
C2287 C 0.19354 1.0016 0.9647 0.0
H2288 H 0.91281 0.1673 0.99455 0.0
H2289 H 0.93768 0.11954 1.0032 0.0
H2290 H 0.94966 0.1954 0.97746 0.0
H2291 H 0.97433 0.14729 0.98564 0.0
H2292 H 0.04539 0.21247 0.98273 0.0
H2293 H 1.00769 0.1821 0.99499 0.0
H2294 H 0.97572 0.20621 0.94536 0.0
H2295 H 1.01367 0.23737 0.93377 0.0
C2296 C 0.926 0.16264 0.99243 0.0
C2297 C 0.92232 0.14121 1.00045 0.0
C2298 C 0.94719 0.17875 0.98255 0.0
C2299 C 0.96522 0.17381 0.98023 0.0
C2300 C 0.96116 0.15203 0.98757 0.0
C2301 C 0.94008 0.13603 0.99763 0.0
C2302 C 0.03039 0.21128 0.97428 0.0
C2303 C 0.0327 0.22761 0.9574 0.0
C2304 C 1.00863 0.19364 0.98121 0.0
C2305 C 0.98844 0.19163 0.97135 0.0
C2306 C 0.99078 0.20739 0.95371 0.0
C2307 C 1.01262 0.22515 0.94684 0.0
H2308 H 0.78479 0.78937 0.98537 0.0
H2309 H 0.83687 0.85129 0.95154 0.0
H2310 H 0.8135 0.77856 0.9946 0.0
H2311 H 0.86557 0.84004 0.96006 0.0
H2312 H 0.9156 0.82893 1.00509 0.0
H2313 H 0.88636 0.83808 0.9927 0.0
H2314 H 0.83865 0.76575 0.98133 0.0
H2315 H 0.86795 0.75666 0.99421 0.0
C2316 C 0.8023 0.80051 0.97946 0.0
C2317 C 0.80847 0.82134 0.96781 0.0
C2318 C 0.81883 0.79422 0.98471 0.0
C2319 C 0.84204 0.80849 0.97836 0.0
C2320 C 0.848 0.82882 0.96574 0.0
C2321 C 0.83146 0.83518 0.96059 0.0
C2322 C 0.8989 0.81498 0.99986 0.0
C2323 C 0.89418 0.79206 1.00069 0.0
C2324 C 0.8821 0.82023 0.99258 0.0
C2325 C 0.86005 0.80272 0.98575 0.0
C2326 C 0.85528 0.77973 0.98669 0.0
C2327 C 0.8721 0.77446 0.99414 0.0
H2328 H 0.0386 0.24578 0.57954 0.0
H2329 H 1.00383 0.19801 0.52302 0.0
H2330 H 0.0754 0.25051 0.566 0.0
H2331 H 0.04013 0.20298 0.50939 0.0
H2332 H 0.1046 0.20186 0.49619 0.0
H2333 H 0.06995 0.19512 0.51673 0.0
H2334 H 0.103 0.26731 0.53469 0.0
H2335 H 0.13806 0.27374 0.51465 0.0
C2336 C 0.03871 0.23608 0.56443 0.0
C2337 C 1.01806 0.22122 0.55265 0.0
C2338 C 0.05987 0.23893 0.55653 0.0
C2339 C 0.0609 0.22704 0.53662 0.0
C2340 C 0.04015 0.21202 0.52511 0.0
C2341 C 0.01914 0.20914 0.533 0.0
C2342 C 0.10452 0.21623 0.50473 0.0
C2343 C 0.12397 0.23837 0.50356 0.0
C2344 C 0.08459 0.21242 0.51643 0.0
C2345 C 0.08334 0.23073 0.52705 0.0
C2346 C 0.10325 0.25273 0.52688 0.0
C2347 C 0.12338 0.25647 0.51536 0.0
H2348 H 0.78425 0.79627 0.57561 0.0
H2349 H 0.84115 0.81867 0.52743 0.0
H2350 H 0.77913 0.82829 0.56323 0.0
H2351 H 0.83536 0.8497 0.51419 0.0
H2352 H 0.8306 0.9128 0.50179 0.0
H2353 H 0.83813 0.88498 0.52147 0.0
H2354 H 0.76495 0.84007 0.53154 0.0
H2355 H 0.7577 0.86855 0.51264 0.0
C2356 C 0.79581 0.80809 0.56251 0.0
C2357 C 0.81302 0.80466 0.55241 0.0
C2358 C 0.79269 0.82636 0.55518 0.0
C2359 C 0.80663 0.84164 0.53745 0.0
C2360 C 0.82438 0.83863 0.52805 0.0
C2361 C 0.8276 0.82056 0.53552 0.0
C2362 C 0.81616 0.89704 0.50838 0.0
C2363 C 0.79355 0.8928 0.50548 0.0
C2364 C 0.82043 0.88097 0.51959 0.0
C2365 C 0.80217 0.85994 0.5279 0.0
C2366 C 0.77955 0.85608 0.52569 0.0
C2367 C 0.77532 0.87238 0.51476 0.0
H2368 H 0.24451 1.01179 0.53897 0.0
H2369 H 0.18891 0.02322 0.55913 0.0
H2370 H 0.21672 0.97251 0.52763 0.0
H2371 H 0.16109 0.98368 0.54834 0.0
H2372 H 0.1206 0.92689 0.49392 0.0
H2373 H 0.14703 0.96327 0.51237 0.0
H2374 H 0.1874 0.93403 0.53835 0.0
H2375 H 0.16114 0.89757 0.51897 0.0
C2376 C 0.22636 1.00581 0.54148 0.0
C2377 C 0.21902 0.02087 0.54979 0.0
C2378 C 0.21036 0.98314 0.53504 0.0
C2379 C 0.18654 0.97485 0.53674 0.0
C2380 C 0.17925 0.98954 0.54629 0.0
C2381 C 0.19525 1.01222 0.5527 0.0
C2382 C 0.1351 0.92813 0.50351 0.0
C2383 C 0.13883 0.90927 0.50466 0.0
C2384 C 0.15017 0.94902 0.51443 0.0
C2385 C 0.16949 0.95177 0.52692 0.0
C2386 C 0.17287 0.93268 0.52869 0.0
C2387 C 0.15769 0.91168 0.51777 0.0
H2388 H 0.83258 0.03621 0.01204 0.0
H2389 H 0.80594 0.01468 0.08204 0.0
H2390 H 0.82419 0.99718 1.003 0.0
H2391 H 0.7969 0.97518 0.07262 0.0
H2392 H 0.75995 0.90422 0.02815 0.0
H2393 H 0.76853 0.94299 0.03992 0.0
H2394 H 0.83963 0.96997 0.02047 0.0
H2395 H 0.83116 0.93122 0.00924 0.0
C2396 C 0.82484 0.0231 0.0255 0.0
C2397 C 0.81993 0.02855 0.04779 0.0
C2398 C 0.82012 1.00078 0.02031 0.0
C2399 C 0.80988 0.98317 0.03708 0.0
C2400 C 0.80473 0.98846 0.05935 0.0
C2401 C 0.81001 1.01103 0.06476 0.0
C2402 C 0.77738 0.91846 0.0264 0.0
C2403 C 0.79489 0.91474 0.01771 0.0
C2404 C 0.78232 0.94057 0.03332 0.0
C2405 C 0.80475 0.95945 0.03114 0.0
C2406 C 0.82219 0.95572 0.02233 0.0
C2407 C 0.81738 0.93358 0.01596 0.0
H2408 H 0.99929 0.8305 0.06091 0.0
H2409 H 1.0115 0.77856 0.03061 0.0
H2410 H 0.03918 0.85964 0.05316 0.0
H2411 H 0.05154 0.80753 0.02343 0.0
H2412 H 0.11291 0.86888 0.98791 0.0
H2413 H 0.07389 0.8391 0.99806 0.0
H2414 H 0.07856 0.87448 0.06285 0.0
H2415 H 0.11739 0.90434 0.05249 0.0
C2416 C 1.01058 0.82518 0.05301 0.0
C2417 C 1.00207 0.80214 0.04633 0.0
C2418 C 0.03356 0.84194 0.04857 0.0
C2419 C 0.04872 0.83611 0.03741 0.0
C2420 C 0.04036 0.81286 0.03156 0.0
C2421 C 1.01738 0.79615 0.03589 0.0
C2422 C 0.10568 0.87022 1.0044 0.0
C2423 C 0.11837 0.88914 0.01929 0.0
C2424 C 0.08326 0.85307 0.0103 0.0
C2425 C 0.07288 0.85423 0.03135 0.0
C2426 C 0.08569 0.87309 0.04632 0.0
C2427 C 0.10806 0.89029 0.04036 0.0
H2428 H 0.25737 0.24127 0.02902 0.0
H2429 H 0.20395 0.17672 0.05726 0.0
H2430 H 0.2291 0.25333 0.02195 0.0
H2431 H 0.17557 0.18854 0.04968 0.0
H2432 H 0.13182 0.22283 0.04894 0.0
H2433 H 0.16152 0.21383 0.05999 0.0
H2434 H 0.19797 0.24466 0.99566 0.0
H2435 H 0.1683 0.25385 0.98474 0.0
C2436 C 0.23962 0.2297 0.03393 0.0
C2437 C 0.23298 0.20796 0.04368 0.0
C2438 C 0.22333 0.23655 0.02965 0.0
C2439 C 0.19991 0.22185 0.03496 0.0
C2440 C 0.19344 0.20046 0.04553 0.0
C2441 C 0.20975 0.19363 0.04987 0.0
C2442 C 0.1461 0.22763 0.03707 0.0
C2443 C 0.14751 0.23898 0.01584 0.0
C2444 C 0.16319 0.22244 0.04343 0.0
C2445 C 0.18221 0.2284 0.02873 0.0
C2446 C 0.18381 0.24009 0.00765 0.0
C2447 C 0.16674 0.24535 1.00133 0.0
H2448 H 0.91783 0.77028 0.53173 0.0
H2449 H 0.92189 0.80889 0.46949 0.0
H2450 H 0.95634 0.77699 0.52419 0.0
H2451 H 0.96098 0.81646 0.4625 0.0
H2452 H 0.02342 0.80615 0.44655 0.0
H2453 H 0.98389 0.79861 0.45152 0.0
H2454 H 0.99503 0.8087 0.52618 0.0
H2455 H 0.03396 0.81568 0.52129 0.0
C2456 C 0.92682 0.78011 0.51635 0.0
C2457 C 0.91661 0.78906 0.50128 0.0
C2458 C 0.94911 0.78422 0.51217 0.0
C2459 C 0.96193 0.79749 0.49285 0.0
C2460 C 0.9516 0.80609 0.47748 0.0
C2461 C 0.92924 0.80195 0.48166 0.0
C2462 C 1.01739 0.80684 0.46397 0.0
C2463 C 0.03179 0.81138 0.48352 0.0
C2464 C 0.99478 0.80259 0.46683 0.0
C2465 C 0.98615 0.80278 0.48931 0.0
C2466 C 1.00085 0.80787 0.50869 0.0
C2467 C 0.0233 0.81206 0.50585 0.0
H2468 H 0.21813 0.11298 0.46916 0.0
H2469 H 0.2508 0.14712 0.53386 0.0
H2470 H 0.20965 0.14361 0.4604 0.0
H2471 H 0.24345 0.17812 0.52455 0.0
H2472 H 0.208 0.21909 0.51533 0.0
H2473 H 0.21301 0.1862 0.52266 0.0
H2474 H 0.22703 0.18364 0.44914 0.0
H2475 H 0.2212 0.2164 0.44169 0.0
C2476 C 0.22351 0.12694 0.48155 0.0
C2477 C 0.23519 0.12743 0.50227 0.0
C2478 C 0.21887 0.14469 0.47636 0.0
C2479 C 0.22577 0.1634 0.49176 0.0
C2480 C 0.23749 0.16387 0.5124 0.0
C2481 C 0.24203 0.14615 0.51762 0.0
C2482 C 0.212 0.21145 0.50065 0.0
C2483 C 0.21435 0.22048 0.47794 0.0
C2484 C 0.21506 0.19263 0.5049 0.0
C2485 C 0.22082 0.18239 0.48659 0.0
C2486 C 0.22248 0.19097 0.46367 0.0
C2487 C 0.21921 0.20979 0.45938 0.0
H2488 H 0.79806 1.00458 0.51675 0.0
H2489 H 0.81651 1.00568 0.44405 0.0
H2490 H 0.82941 0.04385 0.52151 0.0
H2491 H 0.84834 0.04543 0.44894 0.0
H2492 H 0.91868 0.10433 0.48176 0.0
H2493 H 0.88623 0.06644 0.47172 0.0
H2494 H 0.84 0.08334 0.50778 0.0
H2495 H 0.87239 0.12098 0.51804 0.0
C2496 C 0.80885 0.01321 0.50173 0.0
C2497 C 0.80479 1.00195 0.48001 0.0
C2498 C 0.82673 0.03584 0.50444 0.0
C2499 C 0.84125 0.04786 0.48557 0.0
C2500 C 0.83743 0.03659 0.46382 0.0
C2501 C 0.81922 0.01389 0.461 0.0
C2502 C 0.90154 0.1 0.48735 0.0
C2503 C 0.89817 0.11564 0.50084 0.0
C2504 C 0.88295 0.07838 0.48144 0.0
C2505 C 0.86058 0.07181 0.48912 0.0
C2506 C 0.85708 0.0878 0.50181 0.0
C2507 C 0.87562 0.10948 0.50751 0.0
H2508 H 0.84725 0.32297 0.28962 0.0
H2509 H 0.91062 0.33432 0.32124 0.0
H2510 H 0.85844 0.36304 0.29705 0.0
H2511 H 0.92139 0.37399 0.32949 0.0
H2512 H 0.94269 0.45005 0.32763 0.0
H2513 H 0.93345 0.41143 0.31563 0.0
H2514 H 0.86134 0.38693 0.32864 0.0
H2515 H 0.87064 0.42559 0.34004 0.0
C2516 C 0.86365 0.33403 0.29798 0.0
C2517 C 0.87794 0.32528 0.30486 0.0
C2518 C 0.87 0.35702 0.30251 0.0
C2519 C 0.89074 0.37189 0.31423 0.0
C2520 C 0.90541 0.3633 0.32027 0.0
C2521 C 0.89915 0.34039 0.31558 0.0
C2522 C 0.9249 0.43638 0.32807 0.0
C2523 C 0.90741 0.44098 0.33482 0.0
C2524 C 0.91955 0.41415 0.32116 0.0
C2525 C 0.89657 0.39585 0.32098 0.0
C2526 C 0.87916 0.40053 0.32795 0.0
C2527 C 0.8845 0.42274 0.33465 0.0
H2528 H 0.59284 0.45311 0.30047 0.0
H2529 H 0.59301 0.49736 0.35547 0.0
H2530 H 0.6321 0.48165 0.2902 0.0
H2531 H 0.63258 0.52607 0.34523 0.0
H2532 H 0.69752 0.58109 0.30917 0.0
H2533 H 0.65697 0.55346 0.31591 0.0
H2534 H 0.67051 0.49756 0.30509 0.0
H2535 H 0.71099 0.52519 0.29791 0.0
C2536 C 0.60128 0.46887 0.31054 0.0
C2537 C 0.58971 0.47274 0.32904 0.0
C2538 C 0.62391 0.48531 0.3046 0.0
C2539 C 0.63574 0.50618 0.31696 0.0
C2540 C 0.624 0.51033 0.33512 0.0
C2541 C 0.60127 0.49384 0.34105 0.0
C2542 C 0.69184 0.56291 0.30789 0.0
C2543 C 0.70766 0.55544 0.30295 0.0
C2544 C 0.66855 0.54702 0.31202 0.0
C2545 C 0.66035 0.52319 0.31129 0.0
C2546 C 0.67605 0.51574 0.3056 0.0
C2547 C 0.69936 0.53163 0.30148 0.0
H2548 H 0.4489 0.12116 0.30987 0.0
H2549 H 0.50384 0.19044 0.29606 0.0
H2550 H 0.47711 0.10904 0.3169 0.0
H2551 H 0.53208 0.17839 0.30352 0.0
H2552 H 0.57715 0.14564 0.29972 0.0
H2553 H 0.54811 0.15565 0.28921 0.0
H2554 H 0.50521 0.1137 0.34618 0.0
H2555 H 0.53441 0.10359 0.35667 0.0
C2556 C 0.46699 0.13381 0.30811 0.0
C2557 C 0.47403 0.15684 0.30239 0.0
C2558 C 0.48321 0.12687 0.31238 0.0
C2559 C 0.50694 0.14273 0.31102 0.0
C2560 C 0.51397 0.1656 0.30453 0.0
C2561 C 0.49774 0.17255 0.30027 0.0
C2562 C 0.56162 0.13863 0.31015 0.0
C2563 C 0.55831 0.12396 0.32926 0.0
C2564 C 0.5449 0.14439 0.30408 0.0
C2565 C 0.52431 0.13567 0.3169 0.0
C2566 C 0.52072 0.12057 0.33571 0.0
C2567 C 0.53749 0.11477 0.34178 0.0
H2568 H 0.67468 0.50916 0.89136 0.0
H2569 H 0.68727 0.57552 0.86717 0.0
H2570 H 0.71419 0.51986 0.88152 0.0
H2571 H 0.72652 0.58597 0.85672 0.0
H2572 H 0.80114 0.60386 0.8492 0.0
H2573 H 0.76479 0.59514 0.86798 0.0
H2574 H 0.73484 0.52417 0.8463 0.0
H2575 H 0.77111 0.5327 0.82852 0.0
C2576 C 0.68592 0.52615 0.88423 0.0
C2577 C 0.6776 0.54136 0.87993 0.0
C2578 C 0.7086 0.53224 0.87836 0.0
C2579 C 0.72361 0.5537 0.86794 0.0
C2580 C 0.71564 0.56938 0.86484 0.0
C2581 C 0.69299 0.56331 0.87077 0.0
C2582 C 0.78691 0.58633 0.84885 0.0
C2583 C 0.78908 0.56907 0.8371 0.0
C2584 C 0.76595 0.58135 0.85942 0.0
C2585 C 0.74668 0.55892 0.85864 0.0
C2586 C 0.74922 0.54157 0.84759 0.0
C2587 C 0.77005 0.54655 0.83704 0.0
H2588 H 0.45443 0.20021 0.80214 0.0
H2589 H 0.46781 0.24035 0.86515 0.0
H2590 H 0.46259 0.17326 0.82281 0.0
H2591 H 0.47637 0.21326 0.8861 0.0
H2592 H 0.52037 0.17422 0.89667 0.0
H2593 H 0.5081 0.20107 0.88289 0.0
H2594 H 0.44542 0.14407 0.85588 0.0
H2595 H 0.45739 0.11729 0.86969 0.0
C2596 C 0.45911 0.20323 0.82049 0.0
C2597 C 0.46058 0.22245 0.83199 0.0
C2598 C 0.46362 0.18769 0.8324 0.0
C2599 C 0.47008 0.19105 0.85614 0.0
C2600 C 0.47148 0.21023 0.8678 0.0
C2601 C 0.46647 0.22564 0.8559 0.0
C2602 C 0.50373 0.16735 0.88827 0.0
C2603 C 0.49002 0.14353 0.88414 0.0
C2604 C 0.49669 0.18277 0.88041 0.0
C2605 C 0.47591 0.17473 0.86802 0.0
C2606 C 0.46166 0.15085 0.86509 0.0
C2607 C 0.46853 0.13547 0.87313 0.0
H2608 H 0.80207 0.22516 0.86752 0.0
H2609 H 0.81878 0.26345 0.80261 0.0
H2610 H 0.83009 0.26015 0.88806 0.0
H2611 H 0.84622 0.29794 0.82296 0.0
H2612 H 0.87795 0.36136 0.86562 0.0
H2613 H 0.84681 0.32528 0.85095 0.0
H2614 H 0.87238 0.28796 0.89077 0.0
H2615 H 0.90352 0.32436 0.90611 0.0
C2616 C 0.81162 0.24091 0.85758 0.0
C2617 C 0.80774 0.24137 0.83336 0.0
C2618 C 0.82769 0.26099 0.86939 0.0
C2619 C 0.84017 0.282 0.85726 0.0
C2620 C 0.83649 0.28229 0.83305 0.0
C2621 C 0.82061 0.26236 0.82132 0.0
C2622 C 0.87681 0.34556 0.87173 0.0
C2623 C 0.89347 0.34596 0.88702 0.0
C2624 C 0.85898 0.32477 0.86309 0.0
C2625 C 0.85729 0.30367 0.86929 0.0
C2626 C 0.87312 0.30387 0.88564 0.0
C2627 C 0.89102 0.32478 0.8944 0.0
H2628 H 0.48978 0.25866 0.36023 0.0
H2629 H 0.41921 0.23801 0.34366 0.0
H2630 H 0.49695 0.29689 0.37079 0.0
H2631 H 0.4266 0.27649 0.35341 0.0
H2632 H 0.44067 0.34061 0.39408 0.0
H2633 H 0.4342 0.30202 0.38649 0.0
H2634 H 0.50085 0.33139 0.35317 0.0
H2635 H 0.50756 0.3699 0.36139 0.0
C2636 C 0.47576 0.26223 0.35883 0.0
C2637 C 0.4539 0.24511 0.35106 0.0
C2638 C 0.47995 0.28428 0.36469 0.0
C2639 C 0.46236 0.28987 0.36301 0.0
C2640 C 0.44049 0.27277 0.35522 0.0
C2641 C 0.43633 0.25073 0.3493 0.0
C2642 C 0.45409 0.33887 0.38543 0.0
C2643 C 0.4746 0.35846 0.3782 0.0
C2644 C 0.45027 0.31669 0.38083 0.0
C2645 C 0.46688 0.31349 0.36897 0.0
C2646 C 0.48769 0.33311 0.36244 0.0
C2647 C 0.49148 0.35527 0.36698 0.0
H2648 H 0.79359 0.19037 0.34935 0.0
H2649 H 0.77181 0.24045 0.35957 0.0
H2650 H 0.75514 0.15961 0.35978 0.0
H2651 H 0.73362 0.20979 0.37083 0.0
H2652 H 0.6611 0.14653 0.36284 0.0
H2653 H 0.69963 0.17803 0.35419 0.0
H2654 H 0.72887 0.14324 0.39264 0.0
H2655 H 0.6902 0.11134 0.40076 0.0
C2656 C 0.78064 0.19488 0.35373 0.0
C2657 C 0.78594 0.21803 0.3535 0.0
C2658 C 0.7586 0.17721 0.36006 0.0
C2659 C 0.74117 0.18212 0.36627 0.0
C2660 C 0.74647 0.20525 0.36597 0.0
C2661 C 0.76851 0.22292 0.35971 0.0
C2662 C 0.6757 0.14558 0.36954 0.0
C2663 C 0.67243 0.12624 0.38237 0.0
C2664 C 0.69788 0.16379 0.36471 0.0
C2665 C 0.71749 0.1632 0.37254 0.0
C2666 C 0.71422 0.14416 0.38598 0.0
C2667 C 0.692 0.12595 0.39088 0.0
H2668 H 0.79968 0.55867 0.3885 0.0
H2669 H 0.83213 0.58523 0.32151 0.0
H2670 H 0.82901 0.54873 0.39811 0.0
H2671 H 0.86146 0.5751 0.33103 0.0
H2672 H 0.92231 0.57235 0.36229 0.0
H2673 H 0.89407 0.58445 0.35531 0.0
H2674 H 0.84169 0.52224 0.38847 0.0
H2675 H 0.87011 0.5104 0.39593 0.0
C2676 C 0.81295 0.56223 0.37568 0.0
C2677 C 0.81336 0.57269 0.35412 0.0
C2678 C 0.82984 0.5565 0.38123 0.0
C2679 C 0.8477 0.561 0.36539 0.0
C2680 C 0.84824 0.57166 0.34389 0.0
C2681 C 0.83135 0.57745 0.33837 0.0
C2682 C 0.90483 0.56134 0.36835 0.0
C2683 C 0.89855 0.54034 0.37968 0.0
C2684 C 0.88853 0.56821 0.36414 0.0
C2685 C 0.86542 0.55427 0.37107 0.0
C2686 C 0.85932 0.53359 0.38304 0.0
C2687 C 0.87565 0.52675 0.38731 0.0
H2688 H 0.57306 0.09363 0.83048 0.0
H2689 H 0.59954 0.16619 0.84152 0.0
H2690 H 0.61178 0.10138 0.81999 0.0
H2691 H 0.63842 0.17394 0.8315 0.0
H2692 H 0.70411 0.16585 0.84682 0.0
H2693 H 0.66578 0.16093 0.85275 0.0
H2694 H 0.64367 0.12533 0.78662 0.0
H2695 H 0.68241 0.13084 0.78032 0.0
C2696 C 0.58719 0.11122 0.83069 0.0
C2697 C 0.58336 0.12932 0.83692 0.0
C2698 C 0.60927 0.11567 0.82449 0.0
C2699 C 0.62806 0.13826 0.8249 0.0
C2700 C 0.62422 0.15637 0.83105 0.0
C2701 C 0.60204 0.15197 0.83671 0.0
C2702 C 0.69117 0.15725 0.83339 0.0
C2703 C 0.69624 0.14876 0.81309 0.0
C2704 C 0.66927 0.1545 0.83676 0.0
C2705 C 0.65176 0.14271 0.82018 0.0
C2706 C 0.65686 0.13444 0.7997 0.0
C2707 C 0.67902 0.13771 0.79604 0.0
H2708 H 0.9007 0.56762 0.84904 0.0
H2709 H 0.87784 0.54648 0.77795 0.0
H2710 H 0.90858 0.53613 0.85333 0.0
H2711 H 0.88556 0.51443 0.78243 0.0
H2712 H 0.87387 0.44472 0.81864 0.0
H2713 H 0.86899 0.47743 0.80798 0.0
H2714 H 0.93608 0.52407 0.83659 0.0
H2715 H 0.9409 0.4914 0.84728 0.0
C2716 C 0.89732 0.5562 0.83429 0.0
C2717 C 0.88856 0.55951 0.81316 0.0
C2718 C 0.90204 0.53826 0.83671 0.0
C2719 C 0.89786 0.5229 0.81818 0.0
C2720 C 0.88895 0.52603 0.79702 0.0
C2721 C 0.88457 0.54435 0.79444 0.0
C2722 C 0.88768 0.46199 0.82234 0.0
C2723 C 0.90771 0.46547 0.8339 0.0
C2724 C 0.88496 0.48071 0.81609 0.0
C2725 C 0.90208 0.5033 0.8216 0.0
C2726 C 0.92252 0.50683 0.83228 0.0
C2727 C 0.92537 0.48814 0.83823 0.0
H2728 H 0.48349 0.34549 0.77527 0.0
H2729 H 0.48331 0.33114 0.84906 0.0
H2730 H 0.51541 0.38474 0.78168 0.0
H2731 H 0.51528 0.36981 0.85537 0.0
H2732 H 0.55232 0.4471 0.86479 0.0
H2733 H 0.52185 0.40811 0.85653 0.0
H2734 H 0.55576 0.4085 0.79204 0.0
H2735 H 0.58583 0.44803 0.79981 0.0
C2736 C 0.49047 0.35058 0.79276 0.0
C2737 C 0.48074 0.33521 0.81166 0.0
C2738 C 0.5088 0.37308 0.79647 0.0
C2739 C 0.5178 0.38065 0.81914 0.0
C2740 C 0.5085 0.36488 0.83778 0.0
C2741 C 0.49023 0.34257 0.83411 0.0
C2742 C 0.55325 0.43906 0.84871 0.0
C2743 C 0.57168 0.45093 0.83302 0.0
C2744 C 0.53584 0.41648 0.84409 0.0
C2745 C 0.53633 0.40495 0.82366 0.0
C2746 C 0.55468 0.41682 0.80786 0.0
C2747 C 0.57213 0.43947 0.81249 0.0
H2748 H 0.52519 0.65089 0.65299 0.0
H2749 H 0.57807 0.6821 0.60004 0.0
H2750 H 0.53183 0.68865 0.66427 0.0
H2751 H 0.58429 0.72003 0.61091 0.0
H2752 H 0.60978 0.78382 0.65927 0.0
H2753 H 0.60103 0.74674 0.643 0.0
H2754 H 0.52843 0.72126 0.65356 0.0
H2755 H 0.53724 0.75831 0.67001 0.0
C2756 C 0.53801 0.66577 0.64346 0.0
C2757 C 0.5512 0.66336 0.6257 0.0
C2758 C 0.54173 0.68752 0.64986 0.0
C2759 C 0.55874 0.70754 0.63866 0.0
C2760 C 0.57131 0.70506 0.62022 0.0
C2761 C 0.56756 0.68325 0.61379 0.0
C2762 C 0.59193 0.77046 0.65783 0.0
C2763 C 0.57424 0.77411 0.66615 0.0
C2764 C 0.58688 0.74912 0.64842 0.0
C2765 C 0.56399 0.73084 0.64701 0.0
C2766 C 0.54628 0.73473 0.65475 0.0
C2767 C 0.55134 0.75602 0.6642 0.0
H2768 H 0.37653 0.8635 0.62623 0.0
H2769 H 0.36256 0.91745 0.6462 0.0
H2770 H 0.33668 0.83478 0.63464 0.0
H2771 H 0.32255 0.8888 0.65398 0.0
H2772 H 0.26115 0.83022 0.69343 0.0
H2773 H 0.2999 0.85997 0.68204 0.0
H2774 H 0.29762 0.81829 0.62325 0.0
H2775 H 0.25922 0.78858 0.63492 0.0
C2776 C 0.36486 0.8693 0.63195 0.0
C2777 C 0.37287 0.89284 0.63557 0.0
C2778 C 0.34191 0.85278 0.63677 0.0
C2779 C 0.32626 0.85934 0.64522 0.0
C2780 C 0.33411 0.88298 0.64799 0.0
C2781 C 0.35708 0.89947 0.64329 0.0
C2782 C 0.26887 0.82754 0.67798 0.0
C2783 C 0.25711 0.80688 0.66528 0.0
C2784 C 0.29111 0.84463 0.67136 0.0
C2785 C 0.30212 0.84159 0.65174 0.0
C2786 C 0.29004 0.82113 0.63874 0.0
C2787 C 0.26792 0.80403 0.64544 0.0
H2788 H 0.1166 0.45495 0.65484 0.0
H2789 H 0.16867 0.51885 0.62421 0.0
H2790 H 0.14543 0.44386 0.66237 0.0
H2791 H 0.19746 0.50737 0.63087 0.0
H2792 H 0.24824 0.49369 0.67097 0.0
H2793 H 0.21887 0.50353 0.66121 0.0
H2794 H 0.1704 0.43173 0.64791 0.0
H2795 H 0.19982 0.42195 0.65836 0.0
C2796 C 0.13414 0.46649 0.64927 0.0
C2797 C 0.14024 0.4879 0.63898 0.0
C2798 C 0.15076 0.46005 0.65354 0.0
C2799 C 0.17402 0.47473 0.64749 0.0
C2800 C 0.17991 0.49576 0.63634 0.0
C2801 C 0.1633 0.50229 0.63225 0.0
C2802 C 0.23133 0.48001 0.66589 0.0
C2803 C 0.22646 0.45703 0.66549 0.0
C2804 C 0.21443 0.48566 0.66012 0.0
C2805 C 0.1921 0.46852 0.65351 0.0
C2806 C 0.18721 0.44546 0.65319 0.0
C2807 C 0.20411 0.43979 0.6592 0.0
H2808 H 0.35399 0.90465 0.22125 0.0
H2809 H 0.33571 0.83423 0.20772 0.0
H2810 H 0.39399 0.91728 0.21143 0.0
H2811 H 0.37505 0.84673 0.19644 0.0
H2812 H 0.44917 0.8706 0.18518 0.0
H2813 H 0.41278 0.86018 0.20463 0.0
H2814 H 0.4183 0.924 0.18044 0.0
H2815 H 0.45552 0.93472 0.16267 0.0
C2816 C 0.35857 0.89184 0.21632 0.0
C2817 C 0.34164 0.86842 0.21538 0.0
C2818 C 0.38152 0.8991 0.21038 0.0
C2819 C 0.38811 0.88318 0.20282 0.0
C2820 C 0.37112 0.85965 0.20257 0.0
C2821 C 0.34834 0.85238 0.20898 0.0
C2822 C 0.44269 0.88251 0.18464 0.0
C2823 C 0.45505 0.90348 0.17269 0.0
C2824 C 0.42166 0.87648 0.19547 0.0
C2825 C 0.41205 0.89098 0.19395 0.0
C2826 C 0.42501 0.91239 0.18247 0.0
C2827 C 0.44634 0.91861 0.17215 0.0
H2828 H 0.11962 0.53291 0.13285 0.0
H2829 H 0.12965 0.56786 0.19888 0.0
H2830 H 0.12762 0.50486 0.15143 0.0
H2831 H 0.13819 0.53977 0.21767 0.0
H2832 H 0.18398 0.50141 0.22297 0.0
H2833 H 0.17161 0.5289 0.21178 0.0
H2834 H 0.10863 0.4733 0.18357 0.0
H2835 H 0.12062 0.44586 0.19489 0.0
C2836 C 0.12352 0.53452 0.15141 0.0
C2837 C 0.12407 0.55256 0.16442 0.0
C2838 C 0.12796 0.51839 0.16208 0.0
C2839 C 0.13348 0.52008 0.18602 0.0
C2840 C 0.134 0.53808 0.19918 0.0
C2841 C 0.129 0.55403 0.18852 0.0
C2842 C 0.16725 0.49497 0.21489 0.0
C2843 C 0.15345 0.47139 0.20965 0.0
C2844 C 0.16016 0.51073 0.20854 0.0
C2845 C 0.13927 0.50326 0.19657 0.0
C2846 C 0.12492 0.47958 0.19256 0.0
C2847 C 0.13183 0.46385 0.19914 0.0
H2848 H 0.57967 0.6777 0.20071 0.0
H2849 H 0.52537 0.68881 0.22635 0.0
H2850 H 0.5511 0.63891 0.18854 0.0
H2851 H 0.49684 0.64984 0.21463 0.0
H2852 H 0.45375 0.59522 0.1592 0.0
H2853 H 0.48142 0.63101 0.17791 0.0
H2854 H 0.52169 0.60006 0.19919 0.0
H2855 H 0.49413 0.56421 0.17966 0.0
C2856 C 0.56167 0.67174 0.20422 0.0
C2857 C 0.55488 0.68657 0.21435 0.0
C2858 C 0.54524 0.64938 0.19729 0.0
C2859 C 0.52155 0.64122 0.20029 0.0
C2860 C 0.51487 0.65564 0.21158 0.0
C2861 C 0.53129 0.67799 0.2185 0.0
C2862 C 0.46849 0.59597 0.16782 0.0
C2863 C 0.47176 0.5768 0.16766 0.0
C2864 C 0.48428 0.61649 0.17887 0.0
C2865 C 0.5039 0.61857 0.19014 0.0
C2866 C 0.50692 0.59921 0.19051 0.0
C2867 C 0.49099 0.57856 0.1795 0.0
H2868 H 0.17655 0.70251 0.69874 0.0
H2869 H 0.11142 0.67354 0.735 0.0
H2870 H 0.16923 0.66393 0.68975 0.0
H2871 H 0.10432 0.63484 0.72649 0.0
H2872 H 0.08714 0.5705 0.68272 0.0
H2873 H 0.09503 0.60904 0.69314 0.0
H2874 H 0.16609 0.62943 0.70663 0.0
H2875 H 0.15837 0.59114 0.69549 0.0
C2876 C 0.16075 0.68794 0.70499 0.0
C2877 C 0.14455 0.69126 0.71749 0.0
C2878 C 0.1566 0.66572 0.69996 0.0
C2879 C 0.13608 0.64614 0.70722 0.0
C2880 C 0.12014 0.64946 0.72027 0.0
C2881 C 0.12435 0.67171 0.7254 0.0
C2882 C 0.10451 0.58322 0.68766 0.0
C2883 C 0.12211 0.57757 0.68818 0.0
C2884 C 0.10898 0.60531 0.69395 0.0
C2885 C 0.13121 0.62244 0.70085 0.0
C2886 C 0.14881 0.61681 0.70125 0.0
C2887 C 0.14432 0.59472 0.69505 0.0
H2888 H 0.33225 0.49393 0.72442 0.0
H2889 H 0.34296 0.44082 0.69458 0.0
H2890 H 0.37279 0.52203 0.71802 0.0
H2891 H 0.3835 0.46872 0.68871 0.0
H2892 H 0.44612 0.52988 0.65384 0.0
H2893 H 0.40676 0.50056 0.66346 0.0
H2894 H 0.41185 0.53482 0.72913 0.0
H2895 H 0.45108 0.56416 0.71938 0.0
C2896 C 0.34331 0.48812 0.71692 0.0
C2897 C 0.33422 0.46509 0.70993 0.0
C2898 C 0.36663 0.50427 0.71326 0.0
C2899 C 0.3815 0.49777 0.70259 0.0
C2900 C 0.37255 0.47451 0.69649 0.0
C2901 C 0.34926 0.45842 0.70007 0.0
C2902 C 0.43896 0.53102 0.67044 0.0
C2903 C 0.45182 0.54953 0.68572 0.0
C2904 C 0.41633 0.51416 0.67602 0.0
C2905 C 0.40596 0.51527 0.69709 0.0
C2906 C 0.41902 0.53356 0.71256 0.0
C2907 C 0.4416 0.55044 0.70695 0.0
H2908 H 0.56784 0.89326 0.74638 0.0
H2909 H 0.56286 0.86816 0.67573 0.0
H2910 H 0.53834 0.90373 0.73717 0.0
H2911 H 0.53315 0.87798 0.66689 0.0
H2912 H 0.46023 0.87159 0.67476 0.0
H2913 H 0.49036 0.86255 0.68498 0.0
H2914 H 0.53544 0.93336 0.70462 0.0
H2915 H 0.50537 0.94253 0.6938 0.0
C2916 C 0.56039 0.88988 0.72898 0.0
C2917 C 0.5677 0.8799 0.71179 0.0
C2918 C 0.54364 0.89598 0.72369 0.0
C2919 C 0.53349 0.89164 0.70132 0.0
C2920 C 0.54064 0.88146 0.68428 0.0
C2921 C 0.55771 0.87591 0.68935 0.0
C2922 C 0.47657 0.8852 0.68126 0.0
C2923 C 0.4805 0.90776 0.6834 0.0
C2924 C 0.4938 0.88005 0.68705 0.0
C2925 C 0.51518 0.89724 0.69567 0.0
C2926 C 0.51906 0.91978 0.69814 0.0
C2927 C 0.50198 0.92505 0.69179 0.0
H2928 H 0.25264 0.47655 0.13342 0.0
H2929 H 0.24993 0.4399 0.19674 0.0
H2930 H 0.29189 0.48467 0.12637 0.0
H2931 H 0.28858 0.44706 0.18912 0.0
H2932 H 0.36595 0.48386 0.18409 0.0
H2933 H 0.32737 0.47759 0.18984 0.0
H2934 H 0.31475 0.46728 0.11537 0.0
H2935 H 0.35396 0.47423 0.10954 0.0
C2936 C 0.26034 0.47022 0.14588 0.0
C2937 C 0.24794 0.45757 0.16572 0.0
C2938 C 0.28281 0.47465 0.14165 0.0
C2939 C 0.29355 0.4666 0.15717 0.0
C2940 C 0.28109 0.45386 0.17692 0.0
C2941 C 0.2587 0.44948 0.18116 0.0
C2942 C 0.35503 0.48033 0.16887 0.0
C2943 C 0.36305 0.47944 0.14634 0.0
C2944 C 0.33275 0.47656 0.17221 0.0
C2945 C 0.3177 0.47162 0.15314 0.0
C2946 C 0.32587 0.47118 0.13048 0.0
C2947 C 0.34832 0.47508 0.12711 0.0
H2948 H 0.55285 0.77954 0.13639 0.0
H2949 H 0.58404 0.81217 0.2021 0.0
H2950 H 0.54396 0.81004 0.12828 0.0
H2951 H 0.57616 0.843 0.19354 0.0
H2952 H 0.5389 0.88232 0.18549 0.0
H2953 H 0.54455 0.84968 0.19165 0.0
H2954 H 0.56141 0.85084 0.1184 0.0
H2955 H 0.55507 0.88348 0.11209 0.0
C2956 C 0.5578 0.79313 0.14914 0.0
C2957 C 0.56917 0.79326 0.16996 0.0
C2958 C 0.55293 0.81081 0.14433 0.0
C2959 C 0.55923 0.82901 0.16026 0.0
C2960 C 0.57068 0.82913 0.18099 0.0
C2961 C 0.5755 0.81152 0.18579 0.0
C2962 C 0.54366 0.87556 0.1706 0.0
C2963 C 0.5467 0.88564 0.14831 0.0
C2964 C 0.54707 0.85689 0.17419 0.0
C2965 C 0.55385 0.84779 0.15564 0.0
C2966 C 0.55612 0.85733 0.13309 0.0
C2967 C 0.55254 0.87606 0.12945 0.0
H2968 H 0.14984 0.6606 0.18441 0.0
H2969 H 0.1452 0.67737 0.1123 0.0
H2970 H 0.18263 0.69886 0.19039 0.0
H2971 H 0.17781 0.71625 0.11846 0.0
H2972 H 0.24868 0.77951 0.13391 0.0
H2973 H 0.21862 0.73992 0.12616 0.0
H2974 H 0.18924 0.73681 0.19437 0.0
H2975 H 0.21975 0.77567 0.20254 0.0
C2976 C 0.15587 0.67249 0.16978 0.0
C2977 C 0.14481 0.66599 0.14791 0.0
C2978 C 0.17461 0.69455 0.17326 0.0
C2979 C 0.18272 0.71089 0.15504 0.0
C2980 C 0.17215 0.70412 0.13287 0.0
C2981 C 0.15342 0.68186 0.12933 0.0
C2982 C 0.236 0.77029 0.14738 0.0
C2983 C 0.23675 0.78096 0.16889 0.0
C2984 C 0.21856 0.74763 0.14281 0.0
C2985 C 0.20146 0.73503 0.15963 0.0
C2986 C 0.20227 0.74574 0.18109 0.0
C2987 C 0.21968 0.76828 0.18568 0.0
loop_
_geom_bond_atom_site_label_1
_geom_bond_atom_site_label_2
_geom_bond_distance
_geom_bond_site_symmetry_2
_ccdc_geom_bond_type
Co0 N4 2.148 . S
Co0 N10 2.128 . S
Co0 N20 2.194 . S
Co0 O25 2.351 . S
Co0 O26 2.155 1_554 S
Co0 O27 2.096 . S
C1 N4 1.301 . S
C1 N5 1.328 . S
C1 H6 0.930 . S
C2 C3 1.333 . S
C2 N4 1.317 . S
C2 H7 0.930 . S
C3 C2 1.333 . S
C3 N5 1.350 . S
C3 H29 0.931 . S
N4 Co0 2.148 . S
N4 C1 1.301 . S
N4 C2 1.317 . S
N5 C1 1.328 . S
N5 C3 1.350 . S
H6 C1 0.930 . S
H7 C2 0.930 . S
C8 O9 1.224 . S
C8 O27 1.247 . S
O9 C8 1.224 . S
N10 Co0 2.128 . S
N10 C11 1.355 . S
N10 C13 1.311 . S
C11 N10 1.355 . S
C11 C12 1.363 . S
C11 H23 0.929 . S
C12 C11 1.363 . S
C12 N14 1.375 . S
C12 H30 0.931 . S
C13 N10 1.311 . S
C13 N14 1.347 . S
C13 H24 0.929 . S
N14 C12 1.375 . S
N14 C13 1.347 . S
C15 C18 1.365 . S
C15 N20 1.328 . S
C15 H21 0.929 . S
C16 C17 1.362 . S
C16 C19 1.378 . S
C16 H31 0.929 . S
C17 C16 1.362 . S
C17 C18 1.366 . S
C18 C15 1.365 . S
C18 C17 1.366 . S
C18 H32 0.930 . S
C19 C16 1.378 . S
C19 N20 1.315 . S
C19 H22 0.930 . S
N20 Co0 2.194 . S
N20 C15 1.328 . S
N20 C19 1.315 . S
H21 C15 0.929 . S
H22 C19 0.930 . S
H23 C11 0.929 . S
H24 C13 0.929 . S
O25 Co0 2.351 . S
O25 C28 1.244 1_554 S
O26 Co0 2.155 1_556 S
O26 C28 1.240 . S
O27 Co0 2.096 . S
O27 C8 1.247 . S
C28 O25 1.244 1_556 S
C28 O26 1.240 . S
H29 C3 0.931 . S
H30 C12 0.931 . S
H31 C16 0.929 . S
H32 C18 0.930 . S
Co33 N37 2.148 . S
Co33 N43 2.128 . S
Co33 N53 2.194 . S
Co33 O58 2.351 . S
Co33 O59 2.155 1_554 S
Co33 O60 2.096 . S
C34 N37 1.301 . S
C34 N38 1.328 . S
C34 H39 0.930 . S
C35 C36 1.333 . S
C35 N37 1.317 . S
C35 H40 0.930 . S
C36 C35 1.333 . S
C36 N38 1.350 . S
C36 H62 0.931 . S
N37 Co33 2.148 . S
N37 C34 1.301 . S
N37 C35 1.317 . S
N38 C34 1.328 . S
N38 C36 1.350 . S
H39 C34 0.930 . S
H40 C35 0.930 . S
C41 O42 1.224 . S
C41 O60 1.247 . S
O42 C41 1.224 . S
N43 Co33 2.128 . S
N43 C44 1.355 . S
N43 C46 1.311 . S
C44 N43 1.355 . S
C44 C45 1.363 . S
C44 H56 0.929 . S
C45 C44 1.363 . S
C45 N47 1.375 . S
C45 H63 0.931 . S
C46 N43 1.311 . S
C46 N47 1.347 . S
C46 H57 0.929 . S
N47 C45 1.375 . S
N47 C46 1.347 . S
C48 C51 1.365 . S
C48 N53 1.328 . S
C48 H54 0.929 . S
C49 C50 1.362 . S
C49 C52 1.378 . S
C49 H64 0.929 . S
C50 C49 1.362 . S
C50 C51 1.366 . S
C51 C48 1.365 . S
C51 C50 1.366 . S
C51 H65 0.930 . S
C52 C49 1.378 . S
C52 N53 1.315 . S
C52 H55 0.930 . S
N53 Co33 2.194 . S
N53 C48 1.328 . S
N53 C52 1.315 . S
H54 C48 0.929 . S
H55 C52 0.930 . S
H56 C44 0.929 . S
H57 C46 0.929 . S
O58 Co33 2.351 . S
O58 C61 1.244 1_554 S
O59 Co33 2.155 1_556 S
O59 C61 1.240 . S
O60 Co33 2.096 . S
O60 C41 1.247 . S
C61 O58 1.244 1_556 S
C61 O59 1.240 . S
H62 C36 0.931 . S
H63 C45 0.931 . S
H64 C49 0.929 . S
H65 C51 0.930 . S
Co66 N70 2.148 . S
Co66 N76 2.128 . S
Co66 N86 2.194 . S
Co66 O91 2.351 . S
Co66 O92 2.155 1_554 S
Co66 O93 2.096 . S
C67 N70 1.301 . S
C67 N71 1.328 . S
C67 H72 0.930 . S
C68 C69 1.333 . S
C68 N70 1.317 . S
C68 H73 0.930 . S
C69 C68 1.333 . S
C69 N71 1.350 . S
C69 H95 0.931 . S
N70 Co66 2.148 . S
N70 C67 1.301 . S
N70 C68 1.317 . S
N71 C67 1.328 . S
N71 C69 1.350 . S
H72 C67 0.930 . S
H73 C68 0.930 . S
C74 O75 1.224 . S
C74 O93 1.247 . S
O75 C74 1.224 . S
N76 Co66 2.128 . S
N76 C77 1.355 . S
N76 C79 1.311 . S
C77 N76 1.355 . S
C77 C78 1.363 . S
C77 H89 0.929 . S
C78 C77 1.363 . S
C78 N80 1.375 . S
C78 H96 0.931 . S
C79 N76 1.311 . S
C79 N80 1.347 . S
C79 H90 0.929 . S
N80 C78 1.375 . S
N80 C79 1.347 . S
C81 C84 1.365 . S
C81 N86 1.328 . S
C81 H87 0.929 . S
C82 C83 1.362 . S
C82 C85 1.378 . S
C82 H97 0.929 . S
C83 C82 1.362 . S
C83 C84 1.366 . S
C84 C81 1.365 . S
C84 C83 1.366 . S
C84 H98 0.930 . S
C85 C82 1.378 . S
C85 N86 1.315 . S
C85 H88 0.930 . S
N86 Co66 2.194 . S
N86 C81 1.328 . S
N86 C85 1.315 . S
H87 C81 0.929 . S
H88 C85 0.930 . S
H89 C77 0.929 . S
H90 C79 0.929 . S
O91 Co66 2.351 . S
O91 C94 1.244 1_554 S
O92 Co66 2.155 1_556 S
O92 C94 1.240 . S
O93 Co66 2.096 . S
O93 C74 1.247 . S
C94 O91 1.244 1_556 S
C94 O92 1.240 . S
H95 C69 0.931 . S
H96 C78 0.931 . S
H97 C82 0.929 . S
H98 C84 0.930 . S
Co99 N103 2.148 . S
Co99 N109 2.128 . S
Co99 N119 2.194 . S
Co99 O124 2.351 . S
Co99 O125 2.155 . S
Co99 O126 2.096 . S
C100 N103 1.301 . S
C100 N104 1.328 . S
C100 H105 0.930 . S
C101 C102 1.333 . S
C101 N103 1.317 . S
C101 H106 0.930 . S
C102 C101 1.333 . S
C102 N104 1.350 . S
C102 H128 0.931 . S
N103 Co99 2.148 . S
N103 C100 1.301 . S
N103 C101 1.317 . S
N104 C100 1.328 . S
N104 C102 1.350 . S
H105 C100 0.930 . S
H106 C101 0.930 . S
C107 O108 1.224 . S
C107 O126 1.247 . S
O108 C107 1.224 . S
N109 Co99 2.128 . S
N109 C110 1.355 . S
N109 C112 1.311 . S
C110 N109 1.355 . S
C110 C111 1.363 . S
C110 H122 0.929 . S
C111 C110 1.363 . S
C111 N113 1.375 . S
C111 H129 0.931 . S
C112 N109 1.311 . S
C112 N113 1.347 . S
C112 H123 0.929 . S
N113 C111 1.375 . S
N113 C112 1.347 . S
C114 C117 1.365 . S
C114 N119 1.328 . S
C114 H120 0.929 . S
C115 C116 1.362 . S
C115 C118 1.378 . S
C115 H130 0.929 . S
C116 C115 1.362 . S
C116 C117 1.366 . S
C117 C114 1.365 . S
C117 C116 1.366 . S
C117 H131 0.930 . S
C118 C115 1.378 . S
C118 N119 1.315 . S
C118 H121 0.930 . S
N119 Co99 2.194 . S
N119 C114 1.328 . S
N119 C118 1.315 . S
H120 C114 0.929 . S
H121 C118 0.930 . S
H122 C110 0.929 . S
H123 C112 0.929 . S
O124 Co99 2.351 . S
O124 C127 1.244 . S
O125 Co99 2.155 . S
O125 C127 1.240 . S
O126 Co99 2.096 . S
O126 C107 1.247 . S
C127 O124 1.244 . S
C127 O125 1.240 . S
H128 C102 0.931 . S
H129 C111 0.931 . S
H130 C115 0.929 . S
H131 C117 0.930 . S
Co132 N136 2.148 . S
Co132 N142 2.128 . S
Co132 N152 2.194 . S
Co132 O157 2.351 . S
Co132 O158 2.155 . S
Co132 O159 2.096 . S
C133 N136 1.301 . S
C133 N137 1.328 . S
C133 H138 0.930 . S
C134 C135 1.333 . S
C134 N136 1.317 . S
C134 H139 0.930 . S
C135 C134 1.333 . S
C135 N137 1.350 . S
C135 H161 0.931 . S
N136 Co132 2.148 . S
N136 C133 1.301 . S
N136 C134 1.317 . S
N137 C133 1.328 . S
N137 C135 1.350 . S
H138 C133 0.930 . S
H139 C134 0.930 . S
C140 O141 1.224 . S
C140 O159 1.247 . S
O141 C140 1.224 . S
N142 Co132 2.128 . S
N142 C143 1.355 . S
N142 C145 1.311 . S
C143 N142 1.355 . S
C143 C144 1.363 . S
C143 H155 0.929 . S
C144 C143 1.363 . S
C144 N146 1.375 . S
C144 H162 0.931 . S
C145 N142 1.311 . S
C145 N146 1.347 . S
C145 H156 0.929 . S
N146 C144 1.375 . S
N146 C145 1.347 . S
C147 C150 1.365 . S
C147 N152 1.328 . S
C147 H153 0.929 . S
C148 C149 1.362 . S
C148 C151 1.378 . S
C148 H163 0.929 . S
C149 C148 1.362 . S
C149 C150 1.366 . S
C150 C147 1.365 . S
C150 C149 1.366 . S
C150 H164 0.930 . S
C151 C148 1.378 . S
C151 N152 1.315 . S
C151 H154 0.930 . S
N152 Co132 2.194 . S
N152 C147 1.328 . S
N152 C151 1.315 . S
H153 C147 0.929 . S
H154 C151 0.930 . S
H155 C143 0.929 . S
H156 C145 0.929 . S
O157 Co132 2.351 . S
O157 C160 1.244 . S
O158 Co132 2.155 . S
O158 C160 1.240 . S
O159 Co132 2.096 . S
O159 C140 1.247 . S
C160 O157 1.244 . S
C160 O158 1.240 . S
H161 C135 0.931 . S
H162 C144 0.931 . S
H163 C148 0.929 . S
H164 C150 0.930 . S
Co165 N169 2.148 . S
Co165 N175 2.128 . S
Co165 N185 2.194 . S
Co165 O190 2.351 . S
Co165 O191 2.155 . S
Co165 O192 2.096 . S
C166 N169 1.301 . S
C166 N170 1.328 . S
C166 H171 0.930 . S
C167 C168 1.333 . S
C167 N169 1.317 . S
C167 H172 0.930 . S
C168 C167 1.333 . S
C168 N170 1.350 . S
C168 H194 0.931 . S
N169 Co165 2.148 . S
N169 C166 1.301 . S
N169 C167 1.317 . S
N170 C166 1.328 . S
N170 C168 1.350 . S
H171 C166 0.930 . S
H172 C167 0.930 . S
C173 O174 1.224 . S
C173 O192 1.247 . S
O174 C173 1.224 . S
N175 Co165 2.128 . S
N175 C176 1.355 . S
N175 C178 1.311 . S
C176 N175 1.355 . S
C176 C177 1.363 . S
C176 H188 0.929 . S
C177 C176 1.363 . S
C177 N179 1.375 . S
C177 H195 0.931 . S
C178 N175 1.311 . S
C178 N179 1.347 . S
C178 H189 0.929 . S
N179 C177 1.375 . S
N179 C178 1.347 . S
C180 C183 1.365 . S
C180 N185 1.328 . S
C180 H186 0.929 . S
C181 C182 1.362 . S
C181 C184 1.378 . S
C181 H196 0.929 . S
C182 C181 1.362 . S
C182 C183 1.366 . S
C183 C180 1.365 . S
C183 C182 1.366 . S
C183 H197 0.930 . S
C184 C181 1.378 . S
C184 N185 1.315 . S
C184 H187 0.930 . S
N185 Co165 2.194 . S
N185 C180 1.328 . S
N185 C184 1.315 . S
H186 C180 0.929 . S
H187 C184 0.930 . S
H188 C176 0.929 . S
H189 C178 0.929 . S
O190 Co165 2.351 . S
O190 C193 1.244 . S
O191 Co165 2.155 . S
O191 C193 1.240 . S
O192 Co165 2.096 . S
O192 C173 1.247 . S
C193 O190 1.244 . S
C193 O191 1.240 . S
H194 C168 0.931 . S
H195 C177 0.931 . S
H196 C181 0.929 . S
H197 C183 0.930 . S
Co198 N202 2.148 . S
Co198 N208 2.128 . S
Co198 N218 2.194 . S
Co198 O223 2.351 . S
Co198 O224 2.155 1_556 S
Co198 O225 2.096 . S
C199 N202 1.301 . S
C199 N203 1.328 . S
C199 H204 0.930 . S
C200 C201 1.333 . S
C200 N202 1.317 . S
C200 H205 0.930 . S
C201 C200 1.333 . S
C201 N203 1.350 . S
C201 H227 0.931 . S
N202 Co198 2.148 . S
N202 C199 1.301 . S
N202 C200 1.317 . S
N203 C199 1.328 . S
N203 C201 1.350 . S
H204 C199 0.930 . S
H205 C200 0.930 . S
C206 O207 1.224 . S
C206 O225 1.247 . S
O207 C206 1.224 . S
N208 Co198 2.128 . S
N208 C209 1.355 . S
N208 C211 1.311 . S
C209 N208 1.355 . S
C209 C210 1.363 . S
C209 H221 0.929 . S
C210 C209 1.363 . S
C210 N212 1.375 . S
C210 H228 0.931 . S
C211 N208 1.311 . S
C211 N212 1.347 . S
C211 H222 0.929 . S
N212 C210 1.375 . S
N212 C211 1.347 . S
C213 C216 1.365 . S
C213 N218 1.328 . S
C213 H219 0.929 . S
C214 C215 1.362 . S
C214 C217 1.378 . S
C214 H229 0.929 . S
C215 C214 1.362 . S
C215 C216 1.366 . S
C216 C213 1.365 . S
C216 C215 1.366 . S
C216 H230 0.930 . S
C217 C214 1.378 . S
C217 N218 1.315 . S
C217 H220 0.930 . S
N218 Co198 2.194 . S
N218 C213 1.328 . S
N218 C217 1.315 . S
H219 C213 0.929 . S
H220 C217 0.930 . S
H221 C209 0.929 . S
H222 C211 0.929 . S
O223 Co198 2.351 . S
O223 C226 1.244 1_556 S
O224 Co198 2.155 1_554 S
O224 C226 1.240 . S
O225 Co198 2.096 . S
O225 C206 1.247 . S
C226 O223 1.244 1_554 S
C226 O224 1.240 . S
H227 C201 0.931 . S
H228 C210 0.931 . S
H229 C214 0.929 . S
H230 C216 0.930 . S
Co231 N235 2.148 . S
Co231 N241 2.128 . S
Co231 N251 2.194 . S
Co231 O256 2.351 . S
Co231 O257 2.155 1_556 S
Co231 O258 2.096 . S
C232 N235 1.301 . S
C232 N236 1.328 . S
C232 H237 0.930 . S
C233 C234 1.333 . S
C233 N235 1.317 . S
C233 H238 0.930 . S
C234 C233 1.333 . S
C234 N236 1.350 . S
C234 H260 0.931 . S
N235 Co231 2.148 . S
N235 C232 1.301 . S
N235 C233 1.317 . S
N236 C232 1.328 . S
N236 C234 1.350 . S
H237 C232 0.930 . S
H238 C233 0.930 . S
C239 O240 1.224 . S
C239 O258 1.247 . S
O240 C239 1.224 . S
N241 Co231 2.128 . S
N241 C242 1.355 . S
N241 C244 1.311 . S
C242 N241 1.355 . S
C242 C243 1.363 . S
C242 H254 0.929 . S
C243 C242 1.363 . S
C243 N245 1.375 . S
C243 H261 0.931 . S
C244 N241 1.311 . S
C244 N245 1.347 . S
C244 H255 0.929 . S
N245 C243 1.375 . S
N245 C244 1.347 . S
C246 C249 1.365 . S
C246 N251 1.328 . S
C246 H252 0.929 . S
C247 C248 1.362 . S
C247 C250 1.378 . S
C247 H262 0.929 . S
C248 C247 1.362 . S
C248 C249 1.366 . S
C249 C246 1.365 . S
C249 C248 1.366 . S
C249 H263 0.930 . S
C250 C247 1.378 . S
C250 N251 1.315 . S
C250 H253 0.930 . S
N251 Co231 2.194 . S
N251 C246 1.328 . S
N251 C250 1.315 . S
H252 C246 0.929 . S
H253 C250 0.930 . S
H254 C242 0.929 . S
H255 C244 0.929 . S
O256 Co231 2.351 . S
O256 C259 1.244 1_556 S
O257 Co231 2.155 1_554 S
O257 C259 1.240 . S
O258 Co231 2.096 . S
O258 C239 1.247 . S
C259 O256 1.244 1_554 S
C259 O257 1.240 . S
H260 C234 0.931 . S
H261 C243 0.931 . S
H262 C247 0.929 . S
H263 C249 0.930 . S
Co264 N268 2.148 . S
Co264 N274 2.128 . S
Co264 N284 2.194 . S
Co264 O289 2.351 . S
Co264 O290 2.155 1_556 S
Co264 O291 2.096 . S
C265 N268 1.301 . S
C265 N269 1.328 . S
C265 H270 0.930 . S
C266 C267 1.333 . S
C266 N268 1.317 . S
C266 H271 0.930 . S
C267 C266 1.333 . S
C267 N269 1.350 . S
C267 H293 0.931 . S
N268 Co264 2.148 . S
N268 C265 1.301 . S
N268 C266 1.317 . S
N269 C265 1.328 . S
N269 C267 1.350 . S
H270 C265 0.930 . S
H271 C266 0.930 . S
C272 O273 1.224 . S
C272 O291 1.247 . S
O273 C272 1.224 . S
N274 Co264 2.128 . S
N274 C275 1.355 . S
N274 C277 1.311 . S
C275 N274 1.355 . S
C275 C276 1.363 . S
C275 H287 0.929 . S
C276 C275 1.363 . S
C276 N278 1.375 . S
C276 H294 0.931 . S
C277 N274 1.311 . S
C277 N278 1.347 . S
C277 H288 0.929 . S
N278 C276 1.375 . S
N278 C277 1.347 . S
C279 C282 1.365 . S
C279 N284 1.328 . S
C279 H285 0.929 . S
C280 C281 1.362 . S
C280 C283 1.378 . S
C280 H295 0.929 . S
C281 C280 1.362 . S
C281 C282 1.366 . S
C282 C279 1.365 . S
C282 C281 1.366 . S
C282 H296 0.930 . S
C283 C280 1.378 . S
C283 N284 1.315 . S
C283 H286 0.930 . S
N284 Co264 2.194 . S
N284 C279 1.328 . S
N284 C283 1.315 . S
H285 C279 0.929 . S
H286 C283 0.930 . S
H287 C275 0.929 . S
H288 C277 0.929 . S
O289 Co264 2.351 . S
O289 C292 1.244 1_556 S
O290 Co264 2.155 1_554 S
O290 C292 1.240 . S
O291 Co264 2.096 . S
O291 C272 1.247 . S
C292 O289 1.244 1_554 S
C292 O290 1.240 . S
H293 C267 0.931 . S
H294 C276 0.931 . S
H295 C280 0.929 . S
H296 C282 0.930 . S
Co297 N301 2.148 . S
Co297 N307 2.128 . S
Co297 N317 2.194 . S
Co297 O322 2.351 . S
Co297 O323 2.155 . S
Co297 O324 2.096 . S
C298 N301 1.301 . S
C298 N302 1.328 . S
C298 H303 0.930 . S
C299 C300 1.333 . S
C299 N301 1.317 . S
C299 H304 0.930 . S
C300 C299 1.333 . S
C300 N302 1.350 . S
C300 H326 0.931 . S
N301 Co297 2.148 . S
N301 C298 1.301 . S
N301 C299 1.317 . S
N302 C298 1.328 . S
N302 C300 1.350 . S
H303 C298 0.930 . S
H304 C299 0.930 . S
C305 O306 1.224 . S
C305 O324 1.247 . S
O306 C305 1.224 . S
N307 Co297 2.128 . S
N307 C308 1.355 . S
N307 C310 1.311 . S
C308 N307 1.355 . S
C308 C309 1.363 . S
C308 H320 0.929 . S
C309 C308 1.363 . S
C309 N311 1.375 . S
C309 H327 0.931 . S
C310 N307 1.311 . S
C310 N311 1.347 . S
C310 H321 0.929 . S
N311 C309 1.375 . S
N311 C310 1.347 . S
C312 C315 1.365 . S
C312 N317 1.328 . S
C312 H318 0.929 . S
C313 C314 1.362 . S
C313 C316 1.378 . S
C313 H328 0.929 . S
C314 C313 1.362 . S
C314 C315 1.366 . S
C315 C312 1.365 . S
C315 C314 1.366 . S
C315 H329 0.930 . S
C316 C313 1.378 . S
C316 N317 1.315 . S
C316 H319 0.930 . S
N317 Co297 2.194 . S
N317 C312 1.328 . S
N317 C316 1.315 . S
H318 C312 0.929 . S
H319 C316 0.930 . S
H320 C308 0.929 . S
H321 C310 0.929 . S
O322 Co297 2.351 . S
O322 C325 1.244 . S
O323 Co297 2.155 . S
O323 C325 1.240 . S
O324 Co297 2.096 . S
O324 C305 1.247 . S
C325 O322 1.244 . S
C325 O323 1.240 . S
H326 C300 0.931 . S
H327 C309 0.931 . S
H328 C313 0.929 . S
H329 C315 0.930 . S
Co330 N334 2.148 . S
Co330 N340 2.128 . S
Co330 N350 2.194 . S
Co330 O355 2.351 . S
Co330 O356 2.155 . S
Co330 O357 2.096 . S
C331 N334 1.301 . S
C331 N335 1.328 . S
C331 H336 0.930 . S
C332 C333 1.333 . S
C332 N334 1.317 . S
C332 H337 0.930 . S
C333 C332 1.333 . S
C333 N335 1.350 . S
C333 H359 0.931 . S
N334 Co330 2.148 . S
N334 C331 1.301 . S
N334 C332 1.317 . S
N335 C331 1.328 . S
N335 C333 1.350 . S
H336 C331 0.930 . S
H337 C332 0.930 . S
C338 O339 1.224 . S
C338 O357 1.247 . S
O339 C338 1.224 . S
N340 Co330 2.128 . S
N340 C341 1.355 . S
N340 C343 1.311 . S
C341 N340 1.355 . S
C341 C342 1.363 . S
C341 H353 0.929 . S
C342 C341 1.363 . S
C342 N344 1.375 . S
C342 H360 0.931 . S
C343 N340 1.311 . S
C343 N344 1.347 . S
C343 H354 0.929 . S
N344 C342 1.375 . S
N344 C343 1.347 . S
C345 C348 1.365 . S
C345 N350 1.328 . S
C345 H351 0.929 . S
C346 C347 1.362 . S
C346 C349 1.378 . S
C346 H361 0.929 . S
C347 C346 1.362 . S
C347 C348 1.366 . S
C348 C345 1.365 . S
C348 C347 1.366 . S
C348 H362 0.930 . S
C349 C346 1.378 . S
C349 N350 1.315 . S
C349 H352 0.930 . S
N350 Co330 2.194 . S
N350 C345 1.328 . S
N350 C349 1.315 . S
H351 C345 0.929 . S
H352 C349 0.930 . S
H353 C341 0.929 . S
H354 C343 0.929 . S
O355 Co330 2.351 . S
O355 C358 1.244 . S
O356 Co330 2.155 . S
O356 C358 1.240 . S
O357 Co330 2.096 . S
O357 C338 1.247 . S
C358 O355 1.244 . S
C358 O356 1.240 . S
H359 C333 0.931 . S
H360 C342 0.931 . S
H361 C346 0.929 . S
H362 C348 0.930 . S
Co363 N367 2.148 . S
Co363 N373 2.128 . S
Co363 N383 2.194 . S
Co363 O388 2.351 . S
Co363 O389 2.155 . S
Co363 O390 2.096 . S
C364 N367 1.301 . S
C364 N368 1.328 . S
C364 H369 0.930 . S
C365 C366 1.333 . S
C365 N367 1.317 . S
C365 H370 0.930 . S
C366 C365 1.333 . S
C366 N368 1.350 . S
C366 H392 0.931 . S
N367 Co363 2.148 . S
N367 C364 1.301 . S
N367 C365 1.317 . S
N368 C364 1.328 . S
N368 C366 1.350 . S
H369 C364 0.930 . S
H370 C365 0.930 . S
C371 O372 1.224 . S
C371 O390 1.247 . S
O372 C371 1.224 . S
N373 Co363 2.128 . S
N373 C374 1.355 . S
N373 C376 1.311 . S
C374 N373 1.355 . S
C374 C375 1.363 . S
C374 H386 0.929 . S
C375 C374 1.363 . S
C375 N377 1.375 . S
C375 H393 0.931 . S
C376 N373 1.311 . S
C376 N377 1.347 . S
C376 H387 0.929 . S
N377 C375 1.375 . S
N377 C376 1.347 . S
C378 C381 1.365 . S
C378 N383 1.328 . S
C378 H384 0.929 . S
C379 C380 1.362 . S
C379 C382 1.378 . S
C379 H394 0.929 . S
C380 C379 1.362 . S
C380 C381 1.366 . S
C381 C378 1.365 . S
C381 C380 1.366 . S
C381 H395 0.930 . S
C382 C379 1.378 . S
C382 N383 1.315 . S
C382 H385 0.930 . S
N383 Co363 2.194 . S
N383 C378 1.328 . S
N383 C382 1.315 . S
H384 C378 0.929 . S
H385 C382 0.930 . S
H386 C374 0.929 . S
H387 C376 0.929 . S
O388 Co363 2.351 . S
O388 C391 1.244 . S
O389 Co363 2.155 . S
O389 C391 1.240 . S
O390 Co363 2.096 . S
O390 C371 1.247 . S
C391 O388 1.244 . S
C391 O389 1.240 . S
H392 C366 0.931 . S
H393 C375 0.931 . S
H394 C379 0.929 . S
H395 C381 0.930 . S
Co396 N400 2.148 . S
Co396 N406 2.128 . S
Co396 N416 2.194 . S
Co396 O421 2.351 . S
Co396 O422 2.155 . S
Co396 O423 2.096 . S
C397 N400 1.301 . S
C397 N401 1.328 . S
C397 H402 0.930 . S
C398 C399 1.333 . S
C398 N400 1.317 . S
C398 H403 0.930 . S
C399 C398 1.333 . S
C399 N401 1.350 . S
C399 H425 0.931 . S
N400 Co396 2.148 . S
N400 C397 1.301 . S
N400 C398 1.317 . S
N401 C397 1.328 . S
N401 C399 1.350 . S
H402 C397 0.930 . S
H403 C398 0.930 . S
C404 O405 1.224 . S
C404 O423 1.247 . S
O405 C404 1.224 . S
N406 Co396 2.128 . S
N406 C407 1.355 . S
N406 C409 1.311 . S
C407 N406 1.355 . S
C407 C408 1.363 . S
C407 H419 0.929 . S
C408 C407 1.363 . S
C408 N410 1.375 . S
C408 H426 0.931 . S
C409 N406 1.311 . S
C409 N410 1.347 . S
C409 H420 0.929 . S
N410 C408 1.375 . S
N410 C409 1.347 . S
C411 C414 1.365 . S
C411 N416 1.328 . S
C411 H417 0.929 . S
C412 C413 1.362 . S
C412 C415 1.378 . S
C412 H427 0.929 . S
C413 C412 1.362 . S
C413 C414 1.366 . S
C414 C411 1.365 . S
C414 C413 1.366 . S
C414 H428 0.930 . S
C415 C412 1.378 . S
C415 N416 1.315 . S
C415 H418 0.930 . S
N416 Co396 2.194 . S
N416 C411 1.328 . S
N416 C415 1.315 . S
H417 C411 0.929 . S
H418 C415 0.930 . S
H419 C407 0.929 . S
H420 C409 0.929 . S
O421 Co396 2.351 . S
O421 C424 1.244 . S
O422 Co396 2.155 . S
O422 C424 1.240 . S
O423 Co396 2.096 . S
O423 C404 1.247 . S
C424 O421 1.244 . S
C424 O422 1.240 . S
H425 C399 0.931 . S
H426 C408 0.931 . S
H427 C412 0.929 . S
H428 C414 0.930 . S
Co429 N433 2.148 . S
Co429 N439 2.128 . S
Co429 N449 2.194 . S
Co429 O454 2.351 . S
Co429 O455 2.155 . S
Co429 O456 2.096 . S
C430 N433 1.301 . S
C430 N434 1.328 . S
C430 H435 0.930 . S
C431 C432 1.333 . S
C431 N433 1.317 . S
C431 H436 0.930 . S
C432 C431 1.333 . S
C432 N434 1.350 . S
C432 H458 0.931 . S
N433 Co429 2.148 . S
N433 C430 1.301 . S
N433 C431 1.317 . S
N434 C430 1.328 . S
N434 C432 1.350 . S
H435 C430 0.930 . S
H436 C431 0.930 . S
C437 O438 1.224 . S
C437 O456 1.247 . S
O438 C437 1.224 . S
N439 Co429 2.128 . S
N439 C440 1.355 . S
N439 C442 1.311 . S
C440 N439 1.355 . S
C440 C441 1.363 . S
C440 H452 0.929 . S
C441 C440 1.363 . S
C441 N443 1.375 . S
C441 H459 0.931 . S
C442 N439 1.311 . S
C442 N443 1.347 . S
C442 H453 0.929 . S
N443 C441 1.375 . S
N443 C442 1.347 . S
C444 C447 1.365 . S
C444 N449 1.328 . S
C444 H450 0.929 . S
C445 C446 1.362 . S
C445 C448 1.378 . S
C445 H460 0.929 . S
C446 C445 1.362 . S
C446 C447 1.366 . S
C447 C444 1.365 . S
C447 C446 1.366 . S
C447 H461 0.930 . S
C448 C445 1.378 . S
C448 N449 1.315 . S
C448 H451 0.930 . S
N449 Co429 2.194 . S
N449 C444 1.328 . S
N449 C448 1.315 . S
H450 C444 0.929 . S
H451 C448 0.930 . S
H452 C440 0.929 . S
H453 C442 0.929 . S
O454 Co429 2.351 . S
O454 C457 1.244 . S
O455 Co429 2.155 . S
O455 C457 1.240 . S
O456 Co429 2.096 . S
O456 C437 1.247 . S
C457 O454 1.244 . S
C457 O455 1.240 . S
H458 C432 0.931 . S
H459 C441 0.931 . S
H460 C445 0.929 . S
H461 C447 0.930 . S
Co462 N466 2.148 . S
Co462 N472 2.128 . S
Co462 N482 2.194 . S
Co462 O487 2.351 . S
Co462 O488 2.155 . S
Co462 O489 2.096 . S
C463 N466 1.301 . S
C463 N467 1.328 . S
C463 H468 0.930 . S
C464 C465 1.333 . S
C464 N466 1.317 . S
C464 H469 0.930 . S
C465 C464 1.333 . S
C465 N467 1.350 . S
C465 H491 0.931 . S
N466 Co462 2.148 . S
N466 C463 1.301 . S
N466 C464 1.317 . S
N467 C463 1.328 . S
N467 C465 1.350 . S
H468 C463 0.930 . S
H469 C464 0.930 . S
C470 O471 1.224 . S
C470 O489 1.247 . S
O471 C470 1.224 . S
N472 Co462 2.128 . S
N472 C473 1.355 . S
N472 C475 1.311 . S
C473 N472 1.355 . S
C473 C474 1.363 . S
C473 H485 0.929 . S
C474 C473 1.363 . S
C474 N476 1.375 . S
C474 H492 0.931 . S
C475 N472 1.311 . S
C475 N476 1.347 . S
C475 H486 0.929 . S
N476 C474 1.375 . S
N476 C475 1.347 . S
C477 C480 1.365 . S
C477 N482 1.328 . S
C477 H483 0.929 . S
C478 C479 1.362 . S
C478 C481 1.378 . S
C478 H493 0.929 . S
C479 C478 1.362 . S
C479 C480 1.366 . S
C480 C477 1.365 . S
C480 C479 1.366 . S
C480 H494 0.930 . S
C481 C478 1.378 . S
C481 N482 1.315 . S
C481 H484 0.930 . S
N482 Co462 2.194 . S
N482 C477 1.328 . S
N482 C481 1.315 . S
H483 C477 0.929 . S
H484 C481 0.930 . S
H485 C473 0.929 . S
H486 C475 0.929 . S
O487 Co462 2.351 . S
O487 C490 1.244 . S
O488 Co462 2.155 . S
O488 C490 1.240 . S
O489 Co462 2.096 . S
O489 C470 1.247 . S
C490 O487 1.244 . S
C490 O488 1.240 . S
H491 C465 0.931 . S
H492 C474 0.931 . S
H493 C478 0.929 . S
H494 C480 0.930 . S
Co495 N499 2.148 . S
Co495 N505 2.128 . S
Co495 N515 2.194 . S
Co495 O520 2.351 . S
Co495 O521 2.155 . S
Co495 O522 2.096 . S
C496 N499 1.301 . S
C496 N500 1.328 . S
C496 H501 0.930 . S
C497 C498 1.333 . S
C497 N499 1.317 . S
C497 H502 0.930 . S
C498 C497 1.333 . S
C498 N500 1.350 . S
C498 H524 0.931 . S
N499 Co495 2.148 . S
N499 C496 1.301 . S
N499 C497 1.317 . S
N500 C496 1.328 . S
N500 C498 1.350 . S
H501 C496 0.930 . S
H502 C497 0.930 . S
C503 O504 1.224 . S
C503 O522 1.247 . S
O504 C503 1.224 . S
N505 Co495 2.128 . S
N505 C506 1.355 . S
N505 C508 1.311 . S
C506 N505 1.355 . S
C506 C507 1.363 . S
C506 H518 0.929 . S
C507 C506 1.363 . S
C507 N509 1.375 . S
C507 H525 0.931 . S
C508 N505 1.311 . S
C508 N509 1.347 . S
C508 H519 0.929 . S
N509 C507 1.375 . S
N509 C508 1.347 . S
C510 C513 1.365 . S
C510 N515 1.328 . S
C510 H516 0.929 . S
C511 C512 1.362 . S
C511 C514 1.378 . S
C511 H526 0.929 . S
C512 C511 1.362 . S
C512 C513 1.366 . S
C513 C510 1.365 . S
C513 C512 1.366 . S
C513 H527 0.930 . S
C514 C511 1.378 . S
C514 N515 1.315 . S
C514 H517 0.930 . S
N515 Co495 2.194 . S
N515 C510 1.328 . S
N515 C514 1.315 . S
H516 C510 0.929 . S
H517 C514 0.930 . S
H518 C506 0.929 . S
H519 C508 0.929 . S
O520 Co495 2.351 . S
O520 C523 1.244 . S
O521 Co495 2.155 . S
O521 C523 1.240 . S
O522 Co495 2.096 . S
O522 C503 1.247 . S
C523 O520 1.244 . S
C523 O521 1.240 . S
H524 C498 0.931 . S
H525 C507 0.931 . S
H526 C511 0.929 . S
H527 C513 0.930 . S
Co528 N532 2.148 . S
Co528 N538 2.128 . S
Co528 N548 2.194 . S
Co528 O553 2.351 . S
Co528 O554 2.155 . S
Co528 O555 2.096 . S
C529 N532 1.301 . S
C529 N533 1.328 . S
C529 H534 0.930 . S
C530 C531 1.333 . S
C530 N532 1.317 . S
C530 H535 0.930 . S
C531 C530 1.333 . S
C531 N533 1.350 . S
C531 H557 0.931 . S
N532 Co528 2.148 . S
N532 C529 1.301 . S
N532 C530 1.317 . S
N533 C529 1.328 . S
N533 C531 1.350 . S
H534 C529 0.930 . S
H535 C530 0.930 . S
C536 O537 1.224 . S
C536 O555 1.247 . S
O537 C536 1.224 . S
N538 Co528 2.128 . S
N538 C539 1.355 . S
N538 C541 1.311 . S
C539 N538 1.355 . S
C539 C540 1.363 . S
C539 H551 0.929 . S
C540 C539 1.363 . S
C540 N542 1.375 . S
C540 H558 0.931 . S
C541 N538 1.311 . S
C541 N542 1.347 . S
C541 H552 0.929 . S
N542 C540 1.375 . S
N542 C541 1.347 . S
C543 C546 1.365 . S
C543 N548 1.328 . S
C543 H549 0.929 . S
C544 C545 1.362 . S
C544 C547 1.378 . S
C544 H559 0.929 . S
C545 C544 1.362 . S
C545 C546 1.366 . S
C546 C543 1.365 . S
C546 C545 1.366 . S
C546 H560 0.930 . S
C547 C544 1.378 . S
C547 N548 1.315 . S
C547 H550 0.930 . S
N548 Co528 2.194 . S
N548 C543 1.328 . S
N548 C547 1.315 . S
H549 C543 0.929 . S
H550 C547 0.930 . S
H551 C539 0.929 . S
H552 C541 0.929 . S
O553 Co528 2.351 . S
O553 C556 1.244 . S
O554 Co528 2.155 . S
O554 C556 1.240 . S
O555 Co528 2.096 . S
O555 C536 1.247 . S
C556 O553 1.244 . S
C556 O554 1.240 . S
H557 C531 0.931 . S
H558 C540 0.931 . S
H559 C544 0.929 . S
H560 C546 0.930 . S
Co561 N565 2.148 . S
Co561 N571 2.128 . S
Co561 N581 2.194 . S
Co561 O586 2.351 . S
Co561 O587 2.155 . S
Co561 O588 2.096 . S
C562 N565 1.301 . S
C562 N566 1.328 . S
C562 H567 0.930 . S
C563 C564 1.333 . S
C563 N565 1.317 . S
C563 H568 0.930 . S
C564 C563 1.333 . S
C564 N566 1.350 . S
C564 H590 0.931 . S
N565 Co561 2.148 . S
N565 C562 1.301 . S
N565 C563 1.317 . S
N566 C562 1.328 . S
N566 C564 1.350 . S
H567 C562 0.930 . S
H568 C563 0.930 . S
C569 O570 1.224 . S
C569 O588 1.247 . S
O570 C569 1.224 . S
N571 Co561 2.128 . S
N571 C572 1.355 . S
N571 C574 1.311 . S
C572 N571 1.355 . S
C572 C573 1.363 . S
C572 H584 0.929 . S
C573 C572 1.363 . S
C573 N575 1.375 . S
C573 H591 0.931 . S
C574 N571 1.311 . S
C574 N575 1.347 . S
C574 H585 0.929 . S
N575 C573 1.375 . S
N575 C574 1.347 . S
C576 C579 1.365 . S
C576 N581 1.328 . S
C576 H582 0.929 . S
C577 C578 1.362 . S
C577 C580 1.378 . S
C577 H592 0.929 . S
C578 C577 1.362 . S
C578 C579 1.366 . S
C579 C576 1.365 . S
C579 C578 1.366 . S
C579 H593 0.930 . S
C580 C577 1.378 . S
C580 N581 1.315 . S
C580 H583 0.930 . S
N581 Co561 2.194 . S
N581 C576 1.328 . S
N581 C580 1.315 . S
H582 C576 0.929 . S
H583 C580 0.930 . S
H584 C572 0.929 . S
H585 C574 0.929 . S
O586 Co561 2.351 . S
O586 C589 1.244 . S
O587 Co561 2.155 . S
O587 C589 1.240 . S
O588 Co561 2.096 . S
O588 C569 1.247 . S
C589 O586 1.244 . S
C589 O587 1.240 . S
H590 C564 0.931 . S
H591 C573 0.931 . S
H592 C577 0.929 . S
H593 C579 0.930 . S
Co594 N598 2.148 . S
Co594 N604 2.128 . S
Co594 N614 2.194 . S
Co594 O619 2.351 . S
Co594 O620 2.155 . S
Co594 O621 2.096 . S
C595 N598 1.301 . S
C595 N599 1.328 . S
C595 H600 0.930 . S
C596 C597 1.333 . S
C596 N598 1.317 . S
C596 H601 0.930 . S
C597 C596 1.333 . S
C597 N599 1.350 . S
C597 H623 0.931 . S
N598 Co594 2.148 . S
N598 C595 1.301 . S
N598 C596 1.317 . S
N599 C595 1.328 . S
N599 C597 1.350 . S
H600 C595 0.930 . S
H601 C596 0.930 . S
C602 O603 1.224 . S
C602 O621 1.247 . S
O603 C602 1.224 . S
N604 Co594 2.128 . S
N604 C605 1.355 . S
N604 C607 1.311 . S
C605 N604 1.355 . S
C605 C606 1.363 . S
C605 H617 0.929 . S
C606 C605 1.363 . S
C606 N608 1.375 . S
C606 H624 0.931 . S
C607 N604 1.311 . S
C607 N608 1.347 . S
C607 H618 0.929 . S
N608 C606 1.375 . S
N608 C607 1.347 . S
C609 C612 1.365 . S
C609 N614 1.328 . S
C609 H615 0.929 . S
C610 C611 1.362 . S
C610 C613 1.378 . S
C610 H625 0.929 . S
C611 C610 1.362 . S
C611 C612 1.366 . S
C612 C609 1.365 . S
C612 C611 1.366 . S
C612 H626 0.930 . S
C613 C610 1.378 . S
C613 N614 1.315 . S
C613 H616 0.930 . S
N614 Co594 2.194 . S
N614 C609 1.328 . S
N614 C613 1.315 . S
H615 C609 0.929 . S
H616 C613 0.930 . S
H617 C605 0.929 . S
H618 C607 0.929 . S
O619 Co594 2.351 . S
O619 C622 1.244 . S
O620 Co594 2.155 . S
O620 C622 1.240 . S
O621 Co594 2.096 . S
O621 C602 1.247 . S
C622 O619 1.244 . S
C622 O620 1.240 . S
H623 C597 0.931 . S
H624 C606 0.931 . S
H625 C610 0.929 . S
H626 C612 0.930 . S
Co627 N631 2.148 . S
Co627 N637 2.128 . S
Co627 N647 2.194 . S
Co627 O652 2.351 . S
Co627 O653 2.155 . S
Co627 O654 2.096 . S
C628 N631 1.301 . S
C628 N632 1.328 . S
C628 H633 0.930 . S
C629 C630 1.333 . S
C629 N631 1.317 . S
C629 H634 0.930 . S
C630 C629 1.333 . S
C630 N632 1.350 . S
C630 H656 0.931 . S
N631 Co627 2.148 . S
N631 C628 1.301 . S
N631 C629 1.317 . S
N632 C628 1.328 . S
N632 C630 1.350 . S
H633 C628 0.930 . S
H634 C629 0.930 . S
C635 O636 1.224 . S
C635 O654 1.247 . S
O636 C635 1.224 . S
N637 Co627 2.128 . S
N637 C638 1.355 . S
N637 C640 1.311 . S
C638 N637 1.355 . S
C638 C639 1.363 . S
C638 H650 0.929 . S
C639 C638 1.363 . S
C639 N641 1.375 . S
C639 H657 0.931 . S
C640 N637 1.311 . S
C640 N641 1.347 . S
C640 H651 0.929 . S
N641 C639 1.375 . S
N641 C640 1.347 . S
C642 C645 1.365 . S
C642 N647 1.328 . S
C642 H648 0.929 . S
C643 C644 1.362 . S
C643 C646 1.378 . S
C643 H658 0.929 . S
C644 C643 1.362 . S
C644 C645 1.366 . S
C645 C642 1.365 . S
C645 C644 1.366 . S
C645 H659 0.930 . S
C646 C643 1.378 . S
C646 N647 1.315 . S
C646 H649 0.930 . S
N647 Co627 2.194 . S
N647 C642 1.328 . S
N647 C646 1.315 . S
H648 C642 0.929 . S
H649 C646 0.930 . S
H650 C638 0.929 . S
H651 C640 0.929 . S
O652 Co627 2.351 . S
O652 C655 1.244 . S
O653 Co627 2.155 . S
O653 C655 1.240 . S
O654 Co627 2.096 . S
O654 C635 1.247 . S
C655 O652 1.244 . S
C655 O653 1.240 . S
H656 C630 0.931 . S
H657 C639 0.931 . S
H658 C643 0.929 . S
H659 C645 0.930 . S
Co660 N664 2.148 . S
Co660 N670 2.128 . S
Co660 N680 2.194 . S
Co660 O685 2.351 . S
Co660 O686 2.155 . S
Co660 O687 2.096 . S
C661 N664 1.301 . S
C661 N665 1.328 . S
C661 H666 0.930 . S
C662 C663 1.333 . S
C662 N664 1.317 . S
C662 H667 0.930 . S
C663 C662 1.333 . S
C663 N665 1.350 . S
C663 H689 0.931 . S
N664 Co660 2.148 . S
N664 C661 1.301 . S
N664 C662 1.317 . S
N665 C661 1.328 . S
N665 C663 1.350 . S
H666 C661 0.930 . S
H667 C662 0.930 . S
C668 O669 1.224 . S
C668 O687 1.247 . S
O669 C668 1.224 . S
N670 Co660 2.128 . S
N670 C671 1.355 . S
N670 C673 1.311 . S
C671 N670 1.355 . S
C671 C672 1.363 . S
C671 H683 0.929 . S
C672 C671 1.363 . S
C672 N674 1.375 . S
C672 H690 0.931 . S
C673 N670 1.311 . S
C673 N674 1.347 . S
C673 H684 0.929 . S
N674 C672 1.375 . S
N674 C673 1.347 . S
C675 C678 1.365 . S
C675 N680 1.328 . S
C675 H681 0.929 . S
C676 C677 1.362 . S
C676 C679 1.378 . S
C676 H691 0.929 . S
C677 C676 1.362 . S
C677 C678 1.366 . S
C678 C675 1.365 . S
C678 C677 1.366 . S
C678 H692 0.930 . S
C679 C676 1.378 . S
C679 N680 1.315 . S
C679 H682 0.930 . S
N680 Co660 2.194 . S
N680 C675 1.328 . S
N680 C679 1.315 . S
H681 C675 0.929 . S
H682 C679 0.930 . S
H683 C671 0.929 . S
H684 C673 0.929 . S
O685 Co660 2.351 . S
O685 C688 1.244 . S
O686 Co660 2.155 . S
O686 C688 1.240 . S
O687 Co660 2.096 . S
O687 C668 1.247 . S
C688 O685 1.244 . S
C688 O686 1.240 . S
H689 C663 0.931 . S
H690 C672 0.931 . S
H691 C676 0.929 . S
H692 C678 0.930 . S
Co693 N697 2.148 . S
Co693 N703 2.128 . S
Co693 N713 2.194 . S
Co693 O718 2.351 . S
Co693 O719 2.155 . S
Co693 O720 2.096 . S
C694 N697 1.301 . S
C694 N698 1.328 . S
C694 H699 0.930 . S
C695 C696 1.333 . S
C695 N697 1.317 . S
C695 H700 0.930 . S
C696 C695 1.333 . S
C696 N698 1.350 . S
C696 H722 0.931 . S
N697 Co693 2.148 . S
N697 C694 1.301 . S
N697 C695 1.317 . S
N698 C694 1.328 . S
N698 C696 1.350 . S
H699 C694 0.930 . S
H700 C695 0.930 . S
C701 O702 1.224 . S
C701 O720 1.247 . S
O702 C701 1.224 . S
N703 Co693 2.128 . S
N703 C704 1.355 . S
N703 C706 1.311 . S
C704 N703 1.355 . S
C704 C705 1.363 . S
C704 H716 0.929 . S
C705 C704 1.363 . S
C705 N707 1.375 . S
C705 H723 0.931 . S
C706 N703 1.311 . S
C706 N707 1.347 . S
C706 H717 0.929 . S
N707 C705 1.375 . S
N707 C706 1.347 . S
C708 C711 1.365 . S
C708 N713 1.328 . S
C708 H714 0.929 . S
C709 C710 1.362 . S
C709 C712 1.378 . S
C709 H724 0.929 . S
C710 C709 1.362 . S
C710 C711 1.366 . S
C711 C708 1.365 . S
C711 C710 1.366 . S
C711 H725 0.930 . S
C712 C709 1.378 . S
C712 N713 1.315 . S
C712 H715 0.930 . S
N713 Co693 2.194 . S
N713 C708 1.328 . S
N713 C712 1.315 . S
H714 C708 0.929 . S
H715 C712 0.930 . S
H716 C704 0.929 . S
H717 C706 0.929 . S
O718 Co693 2.351 . S
O718 C721 1.244 . S
O719 Co693 2.155 . S
O719 C721 1.240 . S
O720 Co693 2.096 . S
O720 C701 1.247 . S
C721 O718 1.244 . S
C721 O719 1.240 . S
H722 C696 0.931 . S
H723 C705 0.931 . S
H724 C709 0.929 . S
H725 C711 0.930 . S
Co726 N730 2.148 . S
Co726 N736 2.128 . S
Co726 N746 2.194 . S
Co726 O751 2.351 . S
Co726 O752 2.155 . S
Co726 O753 2.096 . S
C727 N730 1.301 . S
C727 N731 1.328 . S
C727 H732 0.930 . S
C728 C729 1.333 . S
C728 N730 1.317 . S
C728 H733 0.930 . S
C729 C728 1.333 . S
C729 N731 1.350 . S
C729 H755 0.931 . S
N730 Co726 2.148 . S
N730 C727 1.301 . S
N730 C728 1.317 . S
N731 C727 1.328 . S
N731 C729 1.350 . S
H732 C727 0.930 . S
H733 C728 0.930 . S
C734 O735 1.224 . S
C734 O753 1.247 . S
O735 C734 1.224 . S
N736 Co726 2.128 . S
N736 C737 1.355 . S
N736 C739 1.311 . S
C737 N736 1.355 . S
C737 C738 1.363 . S
C737 H749 0.929 . S
C738 C737 1.363 . S
C738 N740 1.375 . S
C738 H756 0.931 . S
C739 N736 1.311 . S
C739 N740 1.347 . S
C739 H750 0.929 . S
N740 C738 1.375 . S
N740 C739 1.347 . S
C741 C744 1.365 . S
C741 N746 1.328 . S
C741 H747 0.929 . S
C742 C743 1.362 . S
C742 C745 1.378 . S
C742 H757 0.929 . S
C743 C742 1.362 . S
C743 C744 1.366 . S
C744 C741 1.365 . S
C744 C743 1.366 . S
C744 H758 0.930 . S
C745 C742 1.378 . S
C745 N746 1.315 . S
C745 H748 0.930 . S
N746 Co726 2.194 . S
N746 C741 1.328 . S
N746 C745 1.315 . S
H747 C741 0.929 . S
H748 C745 0.930 . S
H749 C737 0.929 . S
H750 C739 0.929 . S
O751 Co726 2.351 . S
O751 C754 1.244 . S
O752 Co726 2.155 . S
O752 C754 1.240 . S
O753 Co726 2.096 . S
O753 C734 1.247 . S
C754 O751 1.244 . S
C754 O752 1.240 . S
H755 C729 0.931 . S
H756 C738 0.931 . S
H757 C742 0.929 . S
H758 C744 0.930 . S
Co759 N763 2.148 . S
Co759 N769 2.128 . S
Co759 N779 2.194 . S
Co759 O784 2.351 . S
Co759 O785 2.155 . S
Co759 O786 2.096 . S
C760 N763 1.301 . S
C760 N764 1.328 . S
C760 H765 0.930 . S
C761 C762 1.333 . S
C761 N763 1.317 . S
C761 H766 0.930 . S
C762 C761 1.333 . S
C762 N764 1.350 . S
C762 H788 0.931 . S
N763 Co759 2.148 . S
N763 C760 1.301 . S
N763 C761 1.317 . S
N764 C760 1.328 . S
N764 C762 1.350 . S
H765 C760 0.930 . S
H766 C761 0.930 . S
C767 O768 1.224 . S
C767 O786 1.247 . S
O768 C767 1.224 . S
N769 Co759 2.128 . S
N769 C770 1.355 . S
N769 C772 1.311 . S
C770 N769 1.355 . S
C770 C771 1.363 . S
C770 H782 0.929 . S
C771 C770 1.363 . S
C771 N773 1.375 . S
C771 H789 0.931 . S
C772 N769 1.311 . S
C772 N773 1.347 . S
C772 H783 0.929 . S
N773 C771 1.375 . S
N773 C772 1.347 . S
C774 C777 1.365 . S
C774 N779 1.328 . S
C774 H780 0.929 . S
C775 C776 1.362 . S
C775 C778 1.378 . S
C775 H790 0.929 . S
C776 C775 1.362 . S
C776 C777 1.366 . S
C777 C774 1.365 . S
C777 C776 1.366 . S
C777 H791 0.930 . S
C778 C775 1.378 . S
C778 N779 1.315 . S
C778 H781 0.930 . S
N779 Co759 2.194 . S
N779 C774 1.328 . S
N779 C778 1.315 . S
H780 C774 0.929 . S
H781 C778 0.930 . S
H782 C770 0.929 . S
H783 C772 0.929 . S
O784 Co759 2.351 . S
O784 C787 1.244 . S
O785 Co759 2.155 . S
O785 C787 1.240 . S
O786 Co759 2.096 . S
O786 C767 1.247 . S
C787 O784 1.244 . S
C787 O785 1.240 . S
H788 C762 0.931 . S
H789 C771 0.931 . S
H790 C775 0.929 . S
H791 C777 0.930 . S
Co792 N796 2.148 . S
Co792 N802 2.128 . S
Co792 N812 2.194 . S
Co792 O817 2.351 . S
Co792 O818 2.155 . S
Co792 O819 2.096 . S
C793 N796 1.301 . S
C793 N797 1.328 . S
C793 H798 0.930 . S
C794 C795 1.333 . S
C794 N796 1.317 . S
C794 H799 0.930 . S
C795 C794 1.333 . S
C795 N797 1.350 . S
C795 H821 0.931 . S
N796 Co792 2.148 . S
N796 C793 1.301 . S
N796 C794 1.317 . S
N797 C793 1.328 . S
N797 C795 1.350 . S
H798 C793 0.930 . S
H799 C794 0.930 . S
C800 O801 1.224 . S
C800 O819 1.247 . S
O801 C800 1.224 . S
N802 Co792 2.128 . S
N802 C803 1.355 . S
N802 C805 1.311 . S
C803 N802 1.355 . S
C803 C804 1.363 . S
C803 H815 0.929 . S
C804 C803 1.363 . S
C804 N806 1.375 . S
C804 H822 0.931 . S
C805 N802 1.311 . S
C805 N806 1.347 . S
C805 H816 0.929 . S
N806 C804 1.375 . S
N806 C805 1.347 . S
C807 C810 1.365 . S
C807 N812 1.328 . S
C807 H813 0.929 . S
C808 C809 1.362 . S
C808 C811 1.378 . S
C808 H823 0.929 . S
C809 C808 1.362 . S
C809 C810 1.366 . S
C810 C807 1.365 . S
C810 C809 1.366 . S
C810 H824 0.930 . S
C811 C808 1.378 . S
C811 N812 1.315 . S
C811 H814 0.930 . S
N812 Co792 2.194 . S
N812 C807 1.328 . S
N812 C811 1.315 . S
H813 C807 0.929 . S
H814 C811 0.930 . S
H815 C803 0.929 . S
H816 C805 0.929 . S
O817 Co792 2.351 . S
O817 C820 1.244 . S
O818 Co792 2.155 . S
O818 C820 1.240 . S
O819 Co792 2.096 . S
O819 C800 1.247 . S
C820 O817 1.244 . S
C820 O818 1.240 . S
H821 C795 0.931 . S
H822 C804 0.931 . S
H823 C808 0.929 . S
H824 C810 0.930 . S
Co825 N829 2.148 . S
Co825 N835 2.128 . S
Co825 N845 2.194 . S
Co825 O850 2.351 . S
Co825 O851 2.155 . S
Co825 O852 2.096 . S
C826 N829 1.301 . S
C826 N830 1.328 . S
C826 H831 0.930 . S
C827 C828 1.333 . S
C827 N829 1.317 . S
C827 H832 0.930 . S
C828 C827 1.333 . S
C828 N830 1.350 . S
C828 H854 0.931 . S
N829 Co825 2.148 . S
N829 C826 1.301 . S
N829 C827 1.317 . S
N830 C826 1.328 . S
N830 C828 1.350 . S
H831 C826 0.930 . S
H832 C827 0.930 . S
C833 O834 1.224 . S
C833 O852 1.247 . S
O834 C833 1.224 . S
N835 Co825 2.128 . S
N835 C836 1.355 . S
N835 C838 1.311 . S
C836 N835 1.355 . S
C836 C837 1.363 . S
C836 H848 0.929 . S
C837 C836 1.363 . S
C837 N839 1.375 . S
C837 H855 0.931 . S
C838 N835 1.311 . S
C838 N839 1.347 . S
C838 H849 0.929 . S
N839 C837 1.375 . S
N839 C838 1.347 . S
C840 C843 1.365 . S
C840 N845 1.328 . S
C840 H846 0.929 . S
C841 C842 1.362 . S
C841 C844 1.378 . S
C841 H856 0.929 . S
C842 C841 1.362 . S
C842 C843 1.366 . S
C843 C840 1.365 . S
C843 C842 1.366 . S
C843 H857 0.930 . S
C844 C841 1.378 . S
C844 N845 1.315 . S
C844 H847 0.930 . S
N845 Co825 2.194 . S
N845 C840 1.328 . S
N845 C844 1.315 . S
H846 C840 0.929 . S
H847 C844 0.930 . S
H848 C836 0.929 . S
H849 C838 0.929 . S
O850 Co825 2.351 . S
O850 C853 1.244 . S
O851 Co825 2.155 . S
O851 C853 1.240 . S
O852 Co825 2.096 . S
O852 C833 1.247 . S
C853 O850 1.244 . S
C853 O851 1.240 . S
H854 C828 0.931 . S
H855 C837 0.931 . S
H856 C841 0.929 . S
H857 C843 0.930 . S
Co858 N862 2.148 . S
Co858 N868 2.128 . S
Co858 N878 2.194 . S
Co858 O883 2.351 . S
Co858 O884 2.155 . S
Co858 O885 2.096 . S
C859 N862 1.301 . S
C859 N863 1.328 . S
C859 H864 0.930 . S
C860 C861 1.333 . S
C860 N862 1.317 . S
C860 H865 0.930 . S
C861 C860 1.333 . S
C861 N863 1.350 . S
C861 H887 0.931 . S
N862 Co858 2.148 . S
N862 C859 1.301 . S
N862 C860 1.317 . S
N863 C859 1.328 . S
N863 C861 1.350 . S
H864 C859 0.930 . S
H865 C860 0.930 . S
C866 O867 1.224 . S
C866 O885 1.247 . S
O867 C866 1.224 . S
N868 Co858 2.128 . S
N868 C869 1.355 . S
N868 C871 1.311 . S
C869 N868 1.355 . S
C869 C870 1.363 . S
C869 H881 0.929 . S
C870 C869 1.363 . S
C870 N872 1.375 . S
C870 H888 0.931 . S
C871 N868 1.311 . S
C871 N872 1.347 . S
C871 H882 0.929 . S
N872 C870 1.375 . S
N872 C871 1.347 . S
C873 C876 1.365 . S
C873 N878 1.328 . S
C873 H879 0.929 . S
C874 C875 1.362 . S
C874 C877 1.378 . S
C874 H889 0.929 . S
C875 C874 1.362 . S
C875 C876 1.366 . S
C876 C873 1.365 . S
C876 C875 1.366 . S
C876 H890 0.930 . S
C877 C874 1.378 . S
C877 N878 1.315 . S
C877 H880 0.930 . S
N878 Co858 2.194 . S
N878 C873 1.328 . S
N878 C877 1.315 . S
H879 C873 0.929 . S
H880 C877 0.930 . S
H881 C869 0.929 . S
H882 C871 0.929 . S
O883 Co858 2.351 . S
O883 C886 1.244 . S
O884 Co858 2.155 . S
O884 C886 1.240 . S
O885 Co858 2.096 . S
O885 C866 1.247 . S
C886 O883 1.244 . S
C886 O884 1.240 . S
H887 C861 0.931 . S
H888 C870 0.931 . S
H889 C874 0.929 . S
H890 C876 0.930 . S
Co891 N895 2.148 . S
Co891 N901 2.128 . S
Co891 N911 2.194 . S
Co891 O916 2.351 . S
Co891 O917 2.155 . S
Co891 O918 2.096 . S
C892 N895 1.301 . S
C892 N896 1.328 . S
C892 H897 0.930 . S
C893 C894 1.333 . S
C893 N895 1.317 . S
C893 H898 0.930 . S
C894 C893 1.333 . S
C894 N896 1.350 . S
C894 H920 0.931 . S
N895 Co891 2.148 . S
N895 C892 1.301 . S
N895 C893 1.317 . S
N896 C892 1.328 . S
N896 C894 1.350 . S
H897 C892 0.930 . S
H898 C893 0.930 . S
C899 O900 1.224 . S
C899 O918 1.247 . S
O900 C899 1.224 . S
N901 Co891 2.128 . S
N901 C902 1.355 . S
N901 C904 1.311 . S
C902 N901 1.355 . S
C902 C903 1.363 . S
C902 H914 0.929 . S
C903 C902 1.363 . S
C903 N905 1.375 . S
C903 H921 0.931 . S
C904 N901 1.311 . S
C904 N905 1.347 . S
C904 H915 0.929 . S
N905 C903 1.375 . S
N905 C904 1.347 . S
C906 C909 1.365 . S
C906 N911 1.328 . S
C906 H912 0.929 . S
C907 C908 1.362 . S
C907 C910 1.378 . S
C907 H922 0.929 . S
C908 C907 1.362 . S
C908 C909 1.366 . S
C909 C906 1.365 . S
C909 C908 1.366 . S
C909 H923 0.930 . S
C910 C907 1.378 . S
C910 N911 1.315 . S
C910 H913 0.930 . S
N911 Co891 2.194 . S
N911 C906 1.328 . S
N911 C910 1.315 . S
H912 C906 0.929 . S
H913 C910 0.930 . S
H914 C902 0.929 . S
H915 C904 0.929 . S
O916 Co891 2.351 . S
O916 C919 1.244 . S
O917 Co891 2.155 . S
O917 C919 1.240 . S
O918 Co891 2.096 . S
O918 C899 1.247 . S
C919 O916 1.244 . S
C919 O917 1.240 . S
H920 C894 0.931 . S
H921 C903 0.931 . S
H922 C907 0.929 . S
H923 C909 0.930 . S
Co924 N928 2.148 . S
Co924 N934 2.128 . S
Co924 N944 2.194 . S
Co924 O949 2.351 . S
Co924 O950 2.155 . S
Co924 O951 2.096 . S
C925 N928 1.301 . S
C925 N929 1.328 . S
C925 H930 0.930 . S
C926 C927 1.333 . S
C926 N928 1.317 . S
C926 H931 0.930 . S
C927 C926 1.333 . S
C927 N929 1.350 . S
C927 H953 0.931 . S
N928 Co924 2.148 . S
N928 C925 1.301 . S
N928 C926 1.317 . S
N929 C925 1.328 . S
N929 C927 1.350 . S
H930 C925 0.930 . S
H931 C926 0.930 . S
C932 O933 1.224 . S
C932 O951 1.247 . S
O933 C932 1.224 . S
N934 Co924 2.128 . S
N934 C935 1.355 . S
N934 C937 1.311 . S
C935 N934 1.355 . S
C935 C936 1.363 . S
C935 H947 0.929 . S
C936 C935 1.363 . S
C936 N938 1.375 . S
C936 H954 0.931 . S
C937 N934 1.311 . S
C937 N938 1.347 . S
C937 H948 0.929 . S
N938 C936 1.375 . S
N938 C937 1.347 . S
C939 C942 1.365 . S
C939 N944 1.328 . S
C939 H945 0.929 . S
C940 C941 1.362 . S
C940 C943 1.378 . S
C940 H955 0.929 . S
C941 C940 1.362 . S
C941 C942 1.366 . S
C942 C939 1.365 . S
C942 C941 1.366 . S
C942 H956 0.930 . S
C943 C940 1.378 . S
C943 N944 1.315 . S
C943 H946 0.930 . S
N944 Co924 2.194 . S
N944 C939 1.328 . S
N944 C943 1.315 . S
H945 C939 0.929 . S
H946 C943 0.930 . S
H947 C935 0.929 . S
H948 C937 0.929 . S
O949 Co924 2.351 . S
O949 C952 1.244 . S
O950 Co924 2.155 . S
O950 C952 1.240 . S
O951 Co924 2.096 . S
O951 C932 1.247 . S
C952 O949 1.244 . S
C952 O950 1.240 . S
H953 C927 0.931 . S
H954 C936 0.931 . S
H955 C940 0.929 . S
H956 C942 0.930 . S
Co957 N961 2.148 . S
Co957 N967 2.128 . S
Co957 N977 2.194 . S
Co957 O982 2.351 . S
Co957 O983 2.155 . S
Co957 O984 2.096 . S
C958 N961 1.301 . S
C958 N962 1.328 . S
C958 H963 0.930 . S
C959 C960 1.333 . S
C959 N961 1.317 . S
C959 H964 0.930 . S
C960 C959 1.333 . S
C960 N962 1.350 . S
C960 H986 0.931 . S
N961 Co957 2.148 . S
N961 C958 1.301 . S
N961 C959 1.317 . S
N962 C958 1.328 . S
N962 C960 1.350 . S
H963 C958 0.930 . S
H964 C959 0.930 . S
C965 O966 1.224 . S
C965 O984 1.247 . S
O966 C965 1.224 . S
N967 Co957 2.128 . S
N967 C968 1.355 . S
N967 C970 1.311 . S
C968 N967 1.355 . S
C968 C969 1.363 . S
C968 H980 0.929 . S
C969 C968 1.363 . S
C969 N971 1.375 . S
C969 H987 0.931 . S
C970 N967 1.311 . S
C970 N971 1.347 . S
C970 H981 0.929 . S
N971 C969 1.375 . S
N971 C970 1.347 . S
C972 C975 1.365 . S
C972 N977 1.328 . S
C972 H978 0.929 . S
C973 C974 1.362 . S
C973 C976 1.378 . S
C973 H988 0.929 . S
C974 C973 1.362 . S
C974 C975 1.366 . S
C975 C972 1.365 . S
C975 C974 1.366 . S
C975 H989 0.930 . S
C976 C973 1.378 . S
C976 N977 1.315 . S
C976 H979 0.930 . S
N977 Co957 2.194 . S
N977 C972 1.328 . S
N977 C976 1.315 . S
H978 C972 0.929 . S
H979 C976 0.930 . S
H980 C968 0.929 . S
H981 C970 0.929 . S
O982 Co957 2.351 . S
O982 C985 1.244 . S
O983 Co957 2.155 . S
O983 C985 1.240 . S
O984 Co957 2.096 . S
O984 C965 1.247 . S
C985 O982 1.244 . S
C985 O983 1.240 . S
H986 C960 0.931 . S
H987 C969 0.931 . S
H988 C973 0.929 . S
H989 C975 0.930 . S
Co990 N994 2.148 . S
Co990 N1000 2.128 . S
Co990 N1010 2.194 . S
Co990 O1015 2.351 . S
Co990 O1016 2.155 . S
Co990 O1017 2.096 . S
C991 N994 1.301 . S
C991 N995 1.328 . S
C991 H996 0.930 . S
C992 C993 1.333 . S
C992 N994 1.317 . S
C992 H997 0.930 . S
C993 C992 1.333 . S
C993 N995 1.350 . S
C993 H1019 0.931 . S
N994 Co990 2.148 . S
N994 C991 1.301 . S
N994 C992 1.317 . S
N995 C991 1.328 . S
N995 C993 1.350 . S
H996 C991 0.930 . S
H997 C992 0.930 . S
C998 O999 1.224 . S
C998 O1017 1.247 . S
O999 C998 1.224 . S
N1000 Co990 2.128 . S
N1000 C1001 1.355 . S
N1000 C1003 1.311 . S
C1001 N1000 1.355 . S
C1001 C1002 1.363 . S
C1001 H1013 0.929 . S
C1002 C1001 1.363 . S
C1002 N1004 1.375 . S
C1002 H1020 0.931 . S
C1003 N1000 1.311 . S
C1003 N1004 1.347 . S
C1003 H1014 0.929 . S
N1004 C1002 1.375 . S
N1004 C1003 1.347 . S
C1005 C1008 1.365 . S
C1005 N1010 1.328 . S
C1005 H1011 0.929 . S
C1006 C1007 1.362 . S
C1006 C1009 1.378 . S
C1006 H1021 0.929 . S
C1007 C1006 1.362 . S
C1007 C1008 1.366 . S
C1008 C1005 1.365 . S
C1008 C1007 1.366 . S
C1008 H1022 0.930 . S
C1009 C1006 1.378 . S
C1009 N1010 1.315 . S
C1009 H1012 0.930 . S
N1010 Co990 2.194 . S
N1010 C1005 1.328 . S
N1010 C1009 1.315 . S
H1011 C1005 0.929 . S
H1012 C1009 0.930 . S
H1013 C1001 0.929 . S
H1014 C1003 0.929 . S
O1015 Co990 2.351 . S
O1015 C1018 1.244 . S
O1016 Co990 2.155 . S
O1016 C1018 1.240 . S
O1017 Co990 2.096 . S
O1017 C998 1.247 . S
C1018 O1015 1.244 . S
C1018 O1016 1.240 . S
H1019 C993 0.931 . S
H1020 C1002 0.931 . S
H1021 C1006 0.929 . S
H1022 C1008 0.930 . S
Co1023 N1027 2.148 . S
Co1023 N1033 2.128 . S
Co1023 N1043 2.194 . S
Co1023 O1048 2.351 . S
Co1023 O1049 2.155 . S
Co1023 O1050 2.096 . S
C1024 N1027 1.301 . S
C1024 N1028 1.328 . S
C1024 H1029 0.930 . S
C1025 C1026 1.333 . S
C1025 N1027 1.317 . S
C1025 H1030 0.930 . S
C1026 C1025 1.333 . S
C1026 N1028 1.350 . S
C1026 H1052 0.931 . S
N1027 Co1023 2.148 . S
N1027 C1024 1.301 . S
N1027 C1025 1.317 . S
N1028 C1024 1.328 . S
N1028 C1026 1.350 . S
H1029 C1024 0.930 . S
H1030 C1025 0.930 . S
C1031 O1032 1.224 . S
C1031 O1050 1.247 . S
O1032 C1031 1.224 . S
N1033 Co1023 2.128 . S
N1033 C1034 1.355 . S
N1033 C1036 1.311 . S
C1034 N1033 1.355 . S
C1034 C1035 1.363 . S
C1034 H1046 0.929 . S
C1035 C1034 1.363 . S
C1035 N1037 1.375 . S
C1035 H1053 0.931 . S
C1036 N1033 1.311 . S
C1036 N1037 1.347 . S
C1036 H1047 0.929 . S
N1037 C1035 1.375 . S
N1037 C1036 1.347 . S
C1038 C1041 1.365 . S
C1038 N1043 1.328 . S
C1038 H1044 0.929 . S
C1039 C1040 1.362 . S
C1039 C1042 1.378 . S
C1039 H1054 0.929 . S
C1040 C1039 1.362 . S
C1040 C1041 1.366 . S
C1041 C1038 1.365 . S
C1041 C1040 1.366 . S
C1041 H1055 0.930 . S
C1042 C1039 1.378 . S
C1042 N1043 1.315 . S
C1042 H1045 0.930 . S
N1043 Co1023 2.194 . S
N1043 C1038 1.328 . S
N1043 C1042 1.315 . S
H1044 C1038 0.929 . S
H1045 C1042 0.930 . S
H1046 C1034 0.929 . S
H1047 C1036 0.929 . S
O1048 Co1023 2.351 . S
O1048 C1051 1.244 . S
O1049 Co1023 2.155 . S
O1049 C1051 1.240 . S
O1050 Co1023 2.096 . S
O1050 C1031 1.247 . S
C1051 O1048 1.244 . S
C1051 O1049 1.240 . S
H1052 C1026 0.931 . S
H1053 C1035 0.931 . S
H1054 C1039 0.929 . S
H1055 C1041 0.930 . S
Co1056 N1060 2.148 . S
Co1056 N1066 2.128 . S
Co1056 N1076 2.194 . S
Co1056 O1081 2.351 . S
Co1056 O1082 2.155 . S
Co1056 O1083 2.096 . S
C1057 N1060 1.301 . S
C1057 N1061 1.328 . S
C1057 H1062 0.930 . S
C1058 C1059 1.333 . S
C1058 N1060 1.317 . S
C1058 H1063 0.930 . S
C1059 C1058 1.333 . S
C1059 N1061 1.350 . S
C1059 H1085 0.931 . S
N1060 Co1056 2.148 . S
N1060 C1057 1.301 . S
N1060 C1058 1.317 . S
N1061 C1057 1.328 . S
N1061 C1059 1.350 . S
H1062 C1057 0.930 . S
H1063 C1058 0.930 . S
C1064 O1065 1.224 . S
C1064 O1083 1.247 . S
O1065 C1064 1.224 . S
N1066 Co1056 2.128 . S
N1066 C1067 1.355 . S
N1066 C1069 1.311 . S
C1067 N1066 1.355 . S
C1067 C1068 1.363 . S
C1067 H1079 0.929 . S
C1068 C1067 1.363 . S
C1068 N1070 1.375 . S
C1068 H1086 0.931 . S
C1069 N1066 1.311 . S
C1069 N1070 1.347 . S
C1069 H1080 0.929 . S
N1070 C1068 1.375 . S
N1070 C1069 1.347 . S
C1071 C1074 1.365 . S
C1071 N1076 1.328 . S
C1071 H1077 0.929 . S
C1072 C1073 1.362 . S
C1072 C1075 1.378 . S
C1072 H1087 0.929 . S
C1073 C1072 1.362 . S
C1073 C1074 1.366 . S
C1074 C1071 1.365 . S
C1074 C1073 1.366 . S
C1074 H1088 0.930 . S
C1075 C1072 1.378 . S
C1075 N1076 1.315 . S
C1075 H1078 0.930 . S
N1076 Co1056 2.194 . S
N1076 C1071 1.328 . S
N1076 C1075 1.315 . S
H1077 C1071 0.929 . S
H1078 C1075 0.930 . S
H1079 C1067 0.929 . S
H1080 C1069 0.929 . S
O1081 Co1056 2.351 . S
O1081 C1084 1.244 . S
O1082 Co1056 2.155 . S
O1082 C1084 1.240 . S
O1083 Co1056 2.096 . S
O1083 C1064 1.247 . S
C1084 O1081 1.244 . S
C1084 O1082 1.240 . S
H1085 C1059 0.931 . S
H1086 C1068 0.931 . S
H1087 C1072 0.929 . S
H1088 C1074 0.930 . S
Co1089 N1093 2.148 . S
Co1089 N1099 2.128 . S
Co1089 N1109 2.194 . S
Co1089 O1114 2.351 . S
Co1089 O1115 2.155 . S
Co1089 O1116 2.096 . S
C1090 N1093 1.301 . S
C1090 N1094 1.328 . S
C1090 H1095 0.930 . S
C1091 C1092 1.333 . S
C1091 N1093 1.317 . S
C1091 H1096 0.930 . S
C1092 C1091 1.333 . S
C1092 N1094 1.350 . S
C1092 H1118 0.931 . S
N1093 Co1089 2.148 . S
N1093 C1090 1.301 . S
N1093 C1091 1.317 . S
N1094 C1090 1.328 . S
N1094 C1092 1.350 . S
H1095 C1090 0.930 . S
H1096 C1091 0.930 . S
C1097 O1098 1.224 . S
C1097 O1116 1.247 . S
O1098 C1097 1.224 . S
N1099 Co1089 2.128 . S
N1099 C1100 1.355 . S
N1099 C1102 1.311 . S
C1100 N1099 1.355 . S
C1100 C1101 1.363 . S
C1100 H1112 0.929 . S
C1101 C1100 1.363 . S
C1101 N1103 1.375 . S
C1101 H1119 0.931 . S
C1102 N1099 1.311 . S
C1102 N1103 1.347 . S
C1102 H1113 0.929 . S
N1103 C1101 1.375 . S
N1103 C1102 1.347 . S
C1104 C1107 1.365 . S
C1104 N1109 1.328 . S
C1104 H1110 0.929 . S
C1105 C1106 1.362 . S
C1105 C1108 1.378 . S
C1105 H1120 0.929 . S
C1106 C1105 1.362 . S
C1106 C1107 1.366 . S
C1107 C1104 1.365 . S
C1107 C1106 1.366 . S
C1107 H1121 0.930 . S
C1108 C1105 1.378 . S
C1108 N1109 1.315 . S
C1108 H1111 0.930 . S
N1109 Co1089 2.194 . S
N1109 C1104 1.328 . S
N1109 C1108 1.315 . S
H1110 C1104 0.929 . S
H1111 C1108 0.930 . S
H1112 C1100 0.929 . S
H1113 C1102 0.929 . S
O1114 Co1089 2.351 . S
O1114 C1117 1.244 . S
O1115 Co1089 2.155 . S
O1115 C1117 1.240 . S
O1116 Co1089 2.096 . S
O1116 C1097 1.247 . S
C1117 O1114 1.244 . S
C1117 O1115 1.240 . S
H1118 C1092 0.931 . S
H1119 C1101 0.931 . S
H1120 C1105 0.929 . S
H1121 C1107 0.930 . S
Co1122 N1126 2.148 . S
Co1122 N1132 2.128 . S
Co1122 N1142 2.194 . S
Co1122 O1147 2.351 . S
Co1122 O1148 2.155 . S
Co1122 O1149 2.096 . S
C1123 N1126 1.301 . S
C1123 N1127 1.328 . S
C1123 H1128 0.930 . S
C1124 C1125 1.333 . S
C1124 N1126 1.317 . S
C1124 H1129 0.930 . S
C1125 C1124 1.333 . S
C1125 N1127 1.350 . S
C1125 H1151 0.931 . S
N1126 Co1122 2.148 . S
N1126 C1123 1.301 . S
N1126 C1124 1.317 . S
N1127 C1123 1.328 . S
N1127 C1125 1.350 . S
H1128 C1123 0.930 . S
H1129 C1124 0.930 . S
C1130 O1131 1.224 . S
C1130 O1149 1.247 . S
O1131 C1130 1.224 . S
N1132 Co1122 2.128 . S
N1132 C1133 1.355 . S
N1132 C1135 1.311 . S
C1133 N1132 1.355 . S
C1133 C1134 1.363 . S
C1133 H1145 0.929 . S
C1134 C1133 1.363 . S
C1134 N1136 1.375 . S
C1134 H1152 0.931 . S
C1135 N1132 1.311 . S
C1135 N1136 1.347 . S
C1135 H1146 0.929 . S
N1136 C1134 1.375 . S
N1136 C1135 1.347 . S
C1137 C1140 1.365 . S
C1137 N1142 1.328 . S
C1137 H1143 0.929 . S
C1138 C1139 1.362 . S
C1138 C1141 1.378 . S
C1138 H1153 0.929 . S
C1139 C1138 1.362 . S
C1139 C1140 1.366 . S
C1140 C1137 1.365 . S
C1140 C1139 1.366 . S
C1140 H1154 0.930 . S
C1141 C1138 1.378 . S
C1141 N1142 1.315 . S
C1141 H1144 0.930 . S
N1142 Co1122 2.194 . S
N1142 C1137 1.328 . S
N1142 C1141 1.315 . S
H1143 C1137 0.929 . S
H1144 C1141 0.930 . S
H1145 C1133 0.929 . S
H1146 C1135 0.929 . S
O1147 Co1122 2.351 . S
O1147 C1150 1.244 . S
O1148 Co1122 2.155 . S
O1148 C1150 1.240 . S
O1149 Co1122 2.096 . S
O1149 C1130 1.247 . S
C1150 O1147 1.244 . S
C1150 O1148 1.240 . S
H1151 C1125 0.931 . S
H1152 C1134 0.931 . S
H1153 C1138 0.929 . S
H1154 C1140 0.930 . S
Co1155 N1159 2.148 . S
Co1155 N1165 2.128 . S
Co1155 N1175 2.194 . S
Co1155 O1180 2.351 . S
Co1155 O1181 2.155 . S
Co1155 O1182 2.096 . S
C1156 N1159 1.301 . S
C1156 N1160 1.328 . S
C1156 H1161 0.930 . S
C1157 C1158 1.333 . S
C1157 N1159 1.317 . S
C1157 H1162 0.930 . S
C1158 C1157 1.333 . S
C1158 N1160 1.350 . S
C1158 H1184 0.931 . S
N1159 Co1155 2.148 . S
N1159 C1156 1.301 . S
N1159 C1157 1.317 . S
N1160 C1156 1.328 . S
N1160 C1158 1.350 . S
H1161 C1156 0.930 . S
H1162 C1157 0.930 . S
C1163 O1164 1.224 . S
C1163 O1182 1.247 . S
O1164 C1163 1.224 . S
N1165 Co1155 2.128 . S
N1165 C1166 1.355 . S
N1165 C1168 1.311 . S
C1166 N1165 1.355 . S
C1166 C1167 1.363 . S
C1166 H1178 0.929 . S
C1167 C1166 1.363 . S
C1167 N1169 1.375 . S
C1167 H1185 0.931 . S
C1168 N1165 1.311 . S
C1168 N1169 1.347 . S
C1168 H1179 0.929 . S
N1169 C1167 1.375 . S
N1169 C1168 1.347 . S
C1170 C1173 1.365 . S
C1170 N1175 1.328 . S
C1170 H1176 0.929 . S
C1171 C1172 1.362 . S
C1171 C1174 1.378 . S
C1171 H1186 0.929 . S
C1172 C1171 1.362 . S
C1172 C1173 1.366 . S
C1173 C1170 1.365 . S
C1173 C1172 1.366 . S
C1173 H1187 0.930 . S
C1174 C1171 1.378 . S
C1174 N1175 1.315 . S
C1174 H1177 0.930 . S
N1175 Co1155 2.194 . S
N1175 C1170 1.328 . S
N1175 C1174 1.315 . S
H1176 C1170 0.929 . S
H1177 C1174 0.930 . S
H1178 C1166 0.929 . S
H1179 C1168 0.929 . S
O1180 Co1155 2.351 . S
O1180 C1183 1.244 . S
O1181 Co1155 2.155 . S
O1181 C1183 1.240 . S
O1182 Co1155 2.096 . S
O1182 C1163 1.247 . S
C1183 O1180 1.244 . S
C1183 O1181 1.240 . S
H1184 C1158 0.931 . S
H1185 C1167 0.931 . S
H1186 C1171 0.929 . S
H1187 C1173 0.930 . S
H1188 C1196 0.950 . S
H1189 C1201 0.950 . S
H1190 C1198 0.950 . S
H1191 C1200 0.950 . S
H1192 C1202 0.950 . S
H1193 C1204 0.950 . S
H1194 C1206 0.950 . S
H1195 C1207 0.950 . S
C1196 H1188 0.950 . S
C1196 C1197 1.386 . S
C1196 C1198 1.391 . S
C1197 C1196 1.386 . S
C1197 C1201 1.393 . S
C1198 H1190 0.950 . S
C1198 C1196 1.391 . S
C1198 C1199 1.400 . S
C1199 C1198 1.400 . S
C1199 C1200 1.398 . S
C1199 C1205 1.491 . S
C1200 H1191 0.950 . S
C1200 C1199 1.398 . S
C1200 C1201 1.391 . S
C1201 H1189 0.950 . S
C1201 C1197 1.393 . S
C1201 C1200 1.391 . S
C1202 H1192 0.950 . S
C1202 C1203 1.386 . S
C1202 C1204 1.391 . S
C1203 C1202 1.386 . S
C1203 C1207 1.393 . S
C1204 H1193 0.950 . S
C1204 C1202 1.391 . S
C1204 C1205 1.400 . S
C1205 C1199 1.491 . S
C1205 C1204 1.400 . S
C1205 C1206 1.398 . S
C1206 H1194 0.950 . S
C1206 C1205 1.398 . S
C1206 C1207 1.391 . S
C1207 H1195 0.950 . S
C1207 C1203 1.393 . S
C1207 C1206 1.391 . S
H1208 C1216 0.950 . S
H1209 C1221 0.950 . S
H1210 C1218 0.950 . S
H1211 C1220 0.950 . S
H1212 C1222 0.950 . S
H1213 C1224 0.950 . S
H1214 C1226 0.950 . S
H1215 C1227 0.950 . S
C1216 H1208 0.950 . S
C1216 C1217 1.386 . S
C1216 C1218 1.391 . S
C1217 C1216 1.386 . S
C1217 C1221 1.393 . S
C1218 H1210 0.950 . S
C1218 C1216 1.391 . S
C1218 C1219 1.400 . S
C1219 C1218 1.400 . S
C1219 C1220 1.398 . S
C1219 C1225 1.491 . S
C1220 H1211 0.950 . S
C1220 C1219 1.398 . S
C1220 C1221 1.391 . S
C1221 H1209 0.950 . S
C1221 C1217 1.393 . S
C1221 C1220 1.391 . S
C1222 H1212 0.950 . S
C1222 C1223 1.386 . S
C1222 C1224 1.391 . S
C1223 C1222 1.386 . S
C1223 C1227 1.393 . S
C1224 H1213 0.950 . S
C1224 C1222 1.391 . S
C1224 C1225 1.400 . S
C1225 C1219 1.491 . S
C1225 C1224 1.400 . S
C1225 C1226 1.398 . S
C1226 H1214 0.950 . S
C1226 C1225 1.398 . S
C1226 C1227 1.391 . S
C1227 H1215 0.950 . S
C1227 C1223 1.393 . S
C1227 C1226 1.391 . S
H1228 C1236 0.950 . S
H1229 C1241 0.950 . S
H1230 C1238 0.950 . S
H1231 C1240 0.950 . S
H1232 C1242 0.950 . S
H1233 C1244 0.950 . S
H1234 C1246 0.950 . S
H1235 C1247 0.950 . S
C1236 H1228 0.950 . S
C1236 C1237 1.386 . S
C1236 C1238 1.391 . S
C1237 C1236 1.386 . S
C1237 C1241 1.393 . S
C1238 H1230 0.950 . S
C1238 C1236 1.391 . S
C1238 C1239 1.400 . S
C1239 C1238 1.400 . S
C1239 C1240 1.398 . S
C1239 C1245 1.491 . S
C1240 H1231 0.950 . S
C1240 C1239 1.398 . S
C1240 C1241 1.391 . S
C1241 H1229 0.950 . S
C1241 C1237 1.393 . S
C1241 C1240 1.391 . S
C1242 H1232 0.950 . S
C1242 C1243 1.386 . S
C1242 C1244 1.391 . S
C1243 C1242 1.386 . S
C1243 C1247 1.393 . S
C1244 H1233 0.950 . S
C1244 C1242 1.391 . S
C1244 C1245 1.400 . S
C1245 C1239 1.491 . S
C1245 C1244 1.400 . S
C1245 C1246 1.398 . S
C1246 H1234 0.950 . S
C1246 C1245 1.398 . S
C1246 C1247 1.391 . S
C1247 H1235 0.950 . S
C1247 C1243 1.393 . S
C1247 C1246 1.391 . S
H1248 C1256 0.950 . S
H1249 C1261 0.950 . S
H1250 C1258 0.950 . S
H1251 C1260 0.950 . S
H1252 C1262 0.950 . S
H1253 C1264 0.950 . S
H1254 C1266 0.950 . S
H1255 C1267 0.950 . S
C1256 H1248 0.950 . S
C1256 C1257 1.386 . S
C1256 C1258 1.391 . S
C1257 C1256 1.386 . S
C1257 C1261 1.393 . S
C1258 H1250 0.950 . S
C1258 C1256 1.391 . S
C1258 C1259 1.400 . S
C1259 C1258 1.400 . S
C1259 C1260 1.398 . S
C1259 C1265 1.491 . S
C1260 H1251 0.950 . S
C1260 C1259 1.398 . S
C1260 C1261 1.391 . S
C1261 H1249 0.950 . S
C1261 C1257 1.393 . S
C1261 C1260 1.391 . S
C1262 H1252 0.950 . S
C1262 C1263 1.386 . S
C1262 C1264 1.391 . S
C1263 C1262 1.386 . S
C1263 C1267 1.393 . S
C1264 H1253 0.950 . S
C1264 C1262 1.391 . S
C1264 C1265 1.400 . S
C1265 C1259 1.491 . S
C1265 C1264 1.400 . S
C1265 C1266 1.398 . S
C1266 H1254 0.950 . S
C1266 C1265 1.398 . S
C1266 C1267 1.391 . S
C1267 H1255 0.950 . S
C1267 C1263 1.393 . S
C1267 C1266 1.391 . S
H1268 C1276 0.950 . S
H1269 C1281 0.950 . S
H1270 C1278 0.950 . S
H1271 C1280 0.950 . S
H1272 C1282 0.950 . S
H1273 C1284 0.950 . S
H1274 C1286 0.950 . S
H1275 C1287 0.950 . S
C1276 H1268 0.950 . S
C1276 C1277 1.386 . S
C1276 C1278 1.391 . S
C1277 C1276 1.386 . S
C1277 C1281 1.393 . S
C1278 H1270 0.950 . S
C1278 C1276 1.391 . S
C1278 C1279 1.400 . S
C1279 C1278 1.400 . S
C1279 C1280 1.398 . S
C1279 C1285 1.491 . S
C1280 H1271 0.950 . S
C1280 C1279 1.398 . S
C1280 C1281 1.391 . S
C1281 H1269 0.950 . S
C1281 C1277 1.393 . S
C1281 C1280 1.391 . S
C1282 H1272 0.950 . S
C1282 C1283 1.386 . S
C1282 C1284 1.391 . S
C1283 C1282 1.386 . S
C1283 C1287 1.393 . S
C1284 H1273 0.950 . S
C1284 C1282 1.391 . S
C1284 C1285 1.400 . S
C1285 C1279 1.491 . S
C1285 C1284 1.400 . S
C1285 C1286 1.398 . S
C1286 H1274 0.950 . S
C1286 C1285 1.398 . S
C1286 C1287 1.391 . S
C1287 H1275 0.950 . S
C1287 C1283 1.393 . S
C1287 C1286 1.391 . S
H1288 C1296 0.950 . S
H1289 C1301 0.950 . S
H1290 C1298 0.950 . S
H1291 C1300 0.950 . S
H1292 C1302 0.950 . S
H1293 C1304 0.950 . S
H1294 C1306 0.950 . S
H1295 C1307 0.950 . S
C1296 H1288 0.950 . S
C1296 C1297 1.386 . S
C1296 C1298 1.391 . S
C1297 C1296 1.386 . S
C1297 C1301 1.393 . S
C1298 H1290 0.950 . S
C1298 C1296 1.391 . S
C1298 C1299 1.400 . S
C1299 C1298 1.400 . S
C1299 C1300 1.398 . S
C1299 C1305 1.491 . S
C1300 H1291 0.950 . S
C1300 C1299 1.398 . S
C1300 C1301 1.391 . S
C1301 H1289 0.950 . S
C1301 C1297 1.393 . S
C1301 C1300 1.391 . S
C1302 H1292 0.950 . S
C1302 C1303 1.386 . S
C1302 C1304 1.391 . S
C1303 C1302 1.386 . S
C1303 C1307 1.393 . S
C1304 H1293 0.950 . S
C1304 C1302 1.391 . S
C1304 C1305 1.400 . S
C1305 C1299 1.491 . S
C1305 C1304 1.400 . S
C1305 C1306 1.398 . S
C1306 H1294 0.950 . S
C1306 C1305 1.398 . S
C1306 C1307 1.391 . S
C1307 H1295 0.950 . S
C1307 C1303 1.393 . S
C1307 C1306 1.391 . S
H1308 C1316 0.950 . S
H1309 C1321 0.950 . S
H1310 C1318 0.950 . S
H1311 C1320 0.950 . S
H1312 C1322 0.950 . S
H1313 C1324 0.950 . S
H1314 C1326 0.950 . S
H1315 C1327 0.950 . S
C1316 H1308 0.950 . S
C1316 C1317 1.386 . S
C1316 C1318 1.391 . S
C1317 C1316 1.386 . S
C1317 C1321 1.393 . S
C1318 H1310 0.950 . S
C1318 C1316 1.391 . S
C1318 C1319 1.400 . S
C1319 C1318 1.400 . S
C1319 C1320 1.398 . S
C1319 C1325 1.491 . S
C1320 H1311 0.950 . S
C1320 C1319 1.398 . S
C1320 C1321 1.391 . S
C1321 H1309 0.950 . S
C1321 C1317 1.393 . S
C1321 C1320 1.391 . S
C1322 H1312 0.950 . S
C1322 C1323 1.386 . S
C1322 C1324 1.391 . S
C1323 C1322 1.386 . S
C1323 C1327 1.393 . S
C1324 H1313 0.950 . S
C1324 C1322 1.391 . S
C1324 C1325 1.400 . S
C1325 C1319 1.491 . S
C1325 C1324 1.400 . S
C1325 C1326 1.398 . S
C1326 H1314 0.950 . S
C1326 C1325 1.398 . S
C1326 C1327 1.391 . S
C1327 H1315 0.950 . S
C1327 C1323 1.393 . S
C1327 C1326 1.391 . S
H1328 C1336 0.950 . S
H1329 C1341 0.950 . S
H1330 C1338 0.950 . S
H1331 C1340 0.950 . S
H1332 C1342 0.950 . S
H1333 C1344 0.950 . S
H1334 C1346 0.950 . S
H1335 C1347 0.950 . S
C1336 H1328 0.950 . S
C1336 C1337 1.386 . S
C1336 C1338 1.391 . S
C1337 C1336 1.386 . S
C1337 C1341 1.393 . S
C1338 H1330 0.950 . S
C1338 C1336 1.391 . S
C1338 C1339 1.400 . S
C1339 C1338 1.400 . S
C1339 C1340 1.398 . S
C1339 C1345 1.491 . S
C1340 H1331 0.950 . S
C1340 C1339 1.398 . S
C1340 C1341 1.391 . S
C1341 H1329 0.950 . S
C1341 C1337 1.393 . S
C1341 C1340 1.391 . S
C1342 H1332 0.950 . S
C1342 C1343 1.386 . S
C1342 C1344 1.391 . S
C1343 C1342 1.386 . S
C1343 C1347 1.393 . S
C1344 H1333 0.950 . S
C1344 C1342 1.391 . S
C1344 C1345 1.400 . S
C1345 C1339 1.491 . S
C1345 C1344 1.400 . S
C1345 C1346 1.398 . S
C1346 H1334 0.950 . S
C1346 C1345 1.398 . S
C1346 C1347 1.391 . S
C1347 H1335 0.950 . S
C1347 C1343 1.393 . S
C1347 C1346 1.391 . S
H1348 C1356 0.950 . S
H1349 C1361 0.950 . S
H1350 C1358 0.950 . S
H1351 C1360 0.950 . S
H1352 C1362 0.950 . S
H1353 C1364 0.950 . S
H1354 C1366 0.950 . S
H1355 C1367 0.950 . S
C1356 H1348 0.950 . S
C1356 C1357 1.386 . S
C1356 C1358 1.391 . S
C1357 C1356 1.386 . S
C1357 C1361 1.393 . S
C1358 H1350 0.950 . S
C1358 C1356 1.391 . S
C1358 C1359 1.400 . S
C1359 C1358 1.400 . S
C1359 C1360 1.398 . S
C1359 C1365 1.491 . S
C1360 H1351 0.950 . S
C1360 C1359 1.398 . S
C1360 C1361 1.391 . S
C1361 H1349 0.950 . S
C1361 C1357 1.393 . S
C1361 C1360 1.391 . S
C1362 H1352 0.950 . S
C1362 C1363 1.386 . S
C1362 C1364 1.391 . S
C1363 C1362 1.386 . S
C1363 C1367 1.393 . S
C1364 H1353 0.950 . S
C1364 C1362 1.391 . S
C1364 C1365 1.400 . S
C1365 C1359 1.491 . S
C1365 C1364 1.400 . S
C1365 C1366 1.398 . S
C1366 H1354 0.950 . S
C1366 C1365 1.398 . S
C1366 C1367 1.391 . S
C1367 H1355 0.950 . S
C1367 C1363 1.393 . S
C1367 C1366 1.391 . S
H1368 C1376 0.950 . S
H1369 C1381 0.950 . S
H1370 C1378 0.950 . S
H1371 C1380 0.950 . S
H1372 C1382 0.950 . S
H1373 C1384 0.950 . S
H1374 C1386 0.950 . S
H1375 C1387 0.950 . S
C1376 H1368 0.950 . S
C1376 C1377 1.386 . S
C1376 C1378 1.391 . S
C1377 C1376 1.386 . S
C1377 C1381 1.393 . S
C1378 H1370 0.950 . S
C1378 C1376 1.391 . S
C1378 C1379 1.400 . S
C1379 C1378 1.400 . S
C1379 C1380 1.398 . S
C1379 C1385 1.491 . S
C1380 H1371 0.950 . S
C1380 C1379 1.398 . S
C1380 C1381 1.391 . S
C1381 H1369 0.950 . S
C1381 C1377 1.393 . S
C1381 C1380 1.391 . S
C1382 H1372 0.950 . S
C1382 C1383 1.386 . S
C1382 C1384 1.391 . S
C1383 C1382 1.386 . S
C1383 C1387 1.393 . S
C1384 H1373 0.950 . S
C1384 C1382 1.391 . S
C1384 C1385 1.400 . S
C1385 C1379 1.491 . S
C1385 C1384 1.400 . S
C1385 C1386 1.398 . S
C1386 H1374 0.950 . S
C1386 C1385 1.398 . S
C1386 C1387 1.391 . S
C1387 H1375 0.950 . S
C1387 C1383 1.393 . S
C1387 C1386 1.391 . S
H1388 C1396 0.950 . S
H1389 C1401 0.950 . S
H1390 C1398 0.950 . S
H1391 C1400 0.950 . S
H1392 C1402 0.950 . S
H1393 C1404 0.950 . S
H1394 C1406 0.950 . S
H1395 C1407 0.950 . S
C1396 H1388 0.950 . S
C1396 C1397 1.386 . S
C1396 C1398 1.391 . S
C1397 C1396 1.386 . S
C1397 C1401 1.393 . S
C1398 H1390 0.950 . S
C1398 C1396 1.391 . S
C1398 C1399 1.400 . S
C1399 C1398 1.400 . S
C1399 C1400 1.398 . S
C1399 C1405 1.491 . S
C1400 H1391 0.950 . S
C1400 C1399 1.398 . S
C1400 C1401 1.391 . S
C1401 H1389 0.950 . S
C1401 C1397 1.393 . S
C1401 C1400 1.391 . S
C1402 H1392 0.950 . S
C1402 C1403 1.386 . S
C1402 C1404 1.391 . S
C1403 C1402 1.386 . S
C1403 C1407 1.393 . S
C1404 H1393 0.950 . S
C1404 C1402 1.391 . S
C1404 C1405 1.400 . S
C1405 C1399 1.491 . S
C1405 C1404 1.400 . S
C1405 C1406 1.398 . S
C1406 H1394 0.950 . S
C1406 C1405 1.398 . S
C1406 C1407 1.391 . S
C1407 H1395 0.950 . S
C1407 C1403 1.393 . S
C1407 C1406 1.391 . S
H1408 C1416 0.950 . S
H1409 C1421 0.950 . S
H1410 C1418 0.950 . S
H1411 C1420 0.950 . S
H1412 C1422 0.950 . S
H1413 C1424 0.950 . S
H1414 C1426 0.950 . S
H1415 C1427 0.950 . S
C1416 H1408 0.950 . S
C1416 C1417 1.386 . S
C1416 C1418 1.391 . S
C1417 C1416 1.386 . S
C1417 C1421 1.393 . S
C1418 H1410 0.950 . S
C1418 C1416 1.391 . S
C1418 C1419 1.400 . S
C1419 C1418 1.400 . S
C1419 C1420 1.398 . S
C1419 C1425 1.491 . S
C1420 H1411 0.950 . S
C1420 C1419 1.398 . S
C1420 C1421 1.391 . S
C1421 H1409 0.950 . S
C1421 C1417 1.393 . S
C1421 C1420 1.391 . S
C1422 H1412 0.950 . S
C1422 C1423 1.386 . S
C1422 C1424 1.391 . S
C1423 C1422 1.386 . S
C1423 C1427 1.393 . S
C1424 H1413 0.950 . S
C1424 C1422 1.391 . S
C1424 C1425 1.400 . S
C1425 C1419 1.491 . S
C1425 C1424 1.400 . S
C1425 C1426 1.398 . S
C1426 H1414 0.950 . S
C1426 C1425 1.398 . S
C1426 C1427 1.391 . S
C1427 H1415 0.950 . S
C1427 C1423 1.393 . S
C1427 C1426 1.391 . S
H1428 C1436 0.950 . S
H1429 C1441 0.950 1_455 S
H1430 C1438 0.950 . S
H1431 C1440 0.950 . S
H1432 C1442 0.950 . S
H1433 C1444 0.950 . S
H1434 C1446 0.950 . S
H1435 C1447 0.950 1_655 S
C1436 H1428 0.950 . S
C1436 C1437 1.386 . S
C1436 C1438 1.391 . S
C1437 C1436 1.386 . S
C1437 C1441 1.393 . S
C1438 H1430 0.950 . S
C1438 C1436 1.391 . S
C1438 C1439 1.400 . S
C1439 C1438 1.400 . S
C1439 C1440 1.398 1_655 S
C1439 C1445 1.491 1_655 S
C1440 H1431 0.950 . S
C1440 C1439 1.398 1_455 S
C1440 C1441 1.391 1_455 S
C1441 H1429 0.950 1_655 S
C1441 C1437 1.393 . S
C1441 C1440 1.391 1_655 S
C1442 H1432 0.950 . S
C1442 C1443 1.386 . S
C1442 C1444 1.391 . S
C1443 C1442 1.386 . S
C1443 C1447 1.393 . S
C1444 H1433 0.950 . S
C1444 C1442 1.391 . S
C1444 C1445 1.400 . S
C1445 C1439 1.491 1_455 S
C1445 C1444 1.400 . S
C1445 C1446 1.398 1_455 S
C1446 H1434 0.950 . S
C1446 C1445 1.398 1_655 S
C1446 C1447 1.391 1_655 S
C1447 H1435 0.950 1_455 S
C1447 C1443 1.393 . S
C1447 C1446 1.391 1_455 S
H1448 C1456 0.950 . S
H1449 C1461 0.950 . S
H1450 C1458 0.950 . S
H1451 C1460 0.950 . S
H1452 C1462 0.950 . S
H1453 C1464 0.950 . S
H1454 C1466 0.950 . S
H1455 C1467 0.950 . S
C1456 H1448 0.950 . S
C1456 C1457 1.386 . S
C1456 C1458 1.391 . S
C1457 C1456 1.386 . S
C1457 C1461 1.393 . S
C1458 H1450 0.950 . S
C1458 C1456 1.391 . S
C1458 C1459 1.400 . S
C1459 C1458 1.400 . S
C1459 C1460 1.398 . S
C1459 C1465 1.491 . S
C1460 H1451 0.950 . S
C1460 C1459 1.398 . S
C1460 C1461 1.391 . S
C1461 H1449 0.950 . S
C1461 C1457 1.393 . S
C1461 C1460 1.391 . S
C1462 H1452 0.950 . S
C1462 C1463 1.386 . S
C1462 C1464 1.391 . S
C1463 C1462 1.386 . S
C1463 C1467 1.393 . S
C1464 H1453 0.950 . S
C1464 C1462 1.391 . S
C1464 C1465 1.400 . S
C1465 C1459 1.491 . S
C1465 C1464 1.400 . S
C1465 C1466 1.398 . S
C1466 H1454 0.950 . S
C1466 C1465 1.398 . S
C1466 C1467 1.391 . S
C1467 H1455 0.950 . S
C1467 C1463 1.393 . S
C1467 C1466 1.391 . S
H1468 C1476 0.950 . S
H1469 C1481 0.950 . S
H1470 C1478 0.950 . S
H1471 C1480 0.975 . S
H1472 C1482 0.950 . S
H1473 C1484 0.950 . S
H1474 C1486 0.950 . S
H1475 C1487 0.950 . S
C1476 H1468 0.950 . S
C1476 C1477 1.386 . S
C1476 C1478 1.391 . S
C1477 C1476 1.386 . S
C1477 C1481 1.393 . S
C1478 H1470 0.950 . S
C1478 C1476 1.391 . S
C1478 C1479 1.400 . S
C1479 C1478 1.400 . S
C1479 C1480 1.384 1_565 S
C1479 C1485 1.491 1_565 S
C1480 H1471 0.975 . S
C1480 C1479 1.384 1_545 S
C1480 C1481 1.381 1_545 S
C1481 H1469 0.950 . S
C1481 C1477 1.393 . S
C1481 C1480 1.381 1_565 S
C1482 H1472 0.950 . S
C1482 C1483 1.386 . S
C1482 C1484 1.391 . S
C1483 C1482 1.386 . S
C1483 C1487 1.393 . S
C1484 H1473 0.950 . S
C1484 C1482 1.391 . S
C1484 C1485 1.400 . S
C1485 C1479 1.491 1_545 S
C1485 C1484 1.400 . S
C1485 C1486 1.398 1_545 S
C1486 H1474 0.950 . S
C1486 C1485 1.398 1_565 S
C1486 C1487 1.391 1_565 S
C1487 H1475 0.950 . S
C1487 C1483 1.393 . S
C1487 C1486 1.391 1_545 S
H1488 C1496 0.950 . S
H1489 C1501 0.950 1_545 S
H1490 C1498 0.950 . S
H1491 C1500 0.950 . S
H1492 C1502 0.950 . S
H1493 C1504 0.950 . S
H1494 C1506 0.950 . S
H1495 C1507 0.938 1_565 S
C1496 H1488 0.950 . S
C1496 C1497 1.386 . S
C1496 C1498 1.391 . S
C1497 C1496 1.386 . S
C1497 C1501 1.393 . S
C1498 H1490 0.950 . S
C1498 C1496 1.391 . S
C1498 C1499 1.400 . S
C1499 C1498 1.400 . S
C1499 C1500 1.398 1_565 S
C1499 C1505 1.491 1_565 S
C1500 H1491 0.950 . S
C1500 C1499 1.398 1_545 S
C1500 C1501 1.391 1_545 S
C1501 H1489 0.950 1_565 S
C1501 C1497 1.393 . S
C1501 C1500 1.391 1_565 S
C1502 H1492 0.950 . S
C1502 C1503 1.386 . S
C1502 C1504 1.391 . S
C1503 C1502 1.386 . S
C1503 C1507 1.393 . S
C1504 H1493 0.950 . S
C1504 C1502 1.391 . S
C1504 C1505 1.400 . S
C1505 C1499 1.491 1_545 S
C1505 C1504 1.400 . S
C1505 C1506 1.398 1_545 S
C1506 H1494 0.950 . S
C1506 C1505 1.398 1_565 S
C1506 C1507 1.391 1_565 S
C1507 H1495 0.938 1_545 S
C1507 C1503 1.393 . S
C1507 C1506 1.391 1_545 S
H1508 C1516 0.950 . S
H1509 C1521 0.950 1_655 S
H1510 C1518 0.950 . S
H1511 C1520 0.950 . S
H1512 C1522 0.950 . S
H1513 C1524 0.950 . S
H1514 C1526 0.950 . S
H1515 C1527 0.950 1_455 S
C1516 H1508 0.950 . S
C1516 C1517 1.386 . S
C1516 C1518 1.391 . S
C1517 C1516 1.386 . S
C1517 C1521 1.393 . S
C1518 H1510 0.950 . S
C1518 C1516 1.391 . S
C1518 C1519 1.400 . S
C1519 C1518 1.400 . S
C1519 C1520 1.398 1_455 S
C1519 C1525 1.491 1_455 S
C1520 H1511 0.950 . S
C1520 C1519 1.398 1_655 S
C1520 C1521 1.391 1_655 S
C1521 H1509 0.950 1_455 S
C1521 C1517 1.393 . S
C1521 C1520 1.391 1_455 S
C1522 H1512 0.950 . S
C1522 C1523 1.386 . S
C1522 C1524 1.391 . S
C1523 C1522 1.386 . S
C1523 C1527 1.393 . S
C1524 H1513 0.950 . S
C1524 C1522 1.391 . S
C1524 C1525 1.400 . S
C1525 C1519 1.491 1_655 S
C1525 C1524 1.400 . S
C1525 C1526 1.398 1_655 S
C1526 H1514 0.950 . S
C1526 C1525 1.398 1_455 S
C1526 C1527 1.391 1_455 S
C1527 H1515 0.950 1_655 S
C1527 C1523 1.393 . S
C1527 C1526 1.391 1_655 S
H1528 C1536 0.950 . S
H1529 C1541 0.950 . S
H1530 C1538 0.950 . S
H1531 C1540 0.950 . S
H1532 C1542 0.950 . S
H1533 C1544 0.950 . S
H1534 C1546 0.950 . S
H1535 C1547 0.950 . S
C1536 H1528 0.950 . S
C1536 C1537 1.386 . S
C1536 C1538 1.391 . S
C1537 C1536 1.386 . S
C1537 C1541 1.393 . S
C1538 H1530 0.950 . S
C1538 C1536 1.391 . S
C1538 C1539 1.400 . S
C1539 C1538 1.400 . S
C1539 C1540 1.398 . S
C1539 C1545 1.491 . S
C1540 H1531 0.950 . S
C1540 C1539 1.398 . S
C1540 C1541 1.391 . S
C1541 H1529 0.950 . S
C1541 C1537 1.393 . S
C1541 C1540 1.391 . S
C1542 H1532 0.950 . S
C1542 C1543 1.386 . S
C1542 C1544 1.391 . S
C1543 C1542 1.386 . S
C1543 C1547 1.393 . S
C1544 H1533 0.950 . S
C1544 C1542 1.391 . S
C1544 C1545 1.400 . S
C1545 C1539 1.491 . S
C1545 C1544 1.400 . S
C1545 C1546 1.398 . S
C1546 H1534 0.950 . S
C1546 C1545 1.398 . S
C1546 C1547 1.391 . S
C1547 H1535 0.950 . S
C1547 C1543 1.393 . S
C1547 C1546 1.391 . S
H1548 C1556 0.950 . S
H1549 C1561 0.950 . S
H1550 C1558 0.950 . S
H1551 C1560 0.950 . S
H1552 C1562 0.950 . S
H1553 C1564 0.950 . S
H1554 C1566 0.950 . S
H1555 C1567 0.950 . S
C1556 H1548 0.950 . S
C1556 C1557 1.386 . S
C1556 C1558 1.391 . S
C1557 C1556 1.386 . S
C1557 C1561 1.393 . S
C1558 H1550 0.950 . S
C1558 C1556 1.391 . S
C1558 C1559 1.400 . S
C1559 C1558 1.400 . S
C1559 C1560 1.398 . S
C1559 C1565 1.491 . S
C1560 H1551 0.950 . S
C1560 C1559 1.398 . S
C1560 C1561 1.391 . S
C1561 H1549 0.950 . S
C1561 C1557 1.393 . S
C1561 C1560 1.391 . S
C1562 H1552 0.950 . S
C1562 C1563 1.386 . S
C1562 C1564 1.391 . S
C1563 C1562 1.386 . S
C1563 C1567 1.393 . S
C1564 H1553 0.950 . S
C1564 C1562 1.391 . S
C1564 C1565 1.400 . S
C1565 C1559 1.491 . S
C1565 C1564 1.400 . S
C1565 C1566 1.398 . S
C1566 H1554 0.950 . S
C1566 C1565 1.398 . S
C1566 C1567 1.391 . S
C1567 H1555 0.950 . S
C1567 C1563 1.393 . S
C1567 C1566 1.391 . S
H1568 C1576 0.950 . S
H1569 C1581 0.950 . S
H1570 C1578 0.949 1_565 S
H1571 C1580 0.950 . S
H1572 C1582 0.950 . S
H1573 C1584 0.950 1_545 S
H1574 C1586 0.950 . S
H1575 C1587 0.950 . S
C1576 H1568 0.950 . S
C1576 C1577 1.386 . S
C1576 C1578 1.391 . S
C1577 C1576 1.386 . S
C1577 C1581 1.393 . S
C1578 H1570 0.949 1_545 S
C1578 C1576 1.391 . S
C1578 C1579 1.400 . S
C1579 C1578 1.400 . S
C1579 C1580 1.398 . S
C1579 C1585 1.491 1_545 S
C1580 H1571 0.950 . S
C1580 C1579 1.398 . S
C1580 C1581 1.391 . S
C1581 H1569 0.950 . S
C1581 C1577 1.393 . S
C1581 C1580 1.391 . S
C1582 H1572 0.950 . S
C1582 C1583 1.386 . S
C1582 C1584 1.391 . S
C1583 C1582 1.386 . S
C1583 C1587 1.393 . S
C1584 H1573 0.950 1_565 S
C1584 C1582 1.391 . S
C1584 C1585 1.400 . S
C1585 C1579 1.491 1_565 S
C1585 C1584 1.400 . S
C1585 C1586 1.398 . S
C1586 H1574 0.950 . S
C1586 C1585 1.398 . S
C1586 C1587 1.391 . S
C1587 H1575 0.950 . S
C1587 C1583 1.393 . S
C1587 C1586 1.391 . S
H1588 C1596 0.950 . S
H1589 C1601 0.950 . S
H1590 C1598 0.975 . S
H1591 C1600 0.950 . S
H1592 C1602 0.950 . S
H1593 C1604 0.950 . S
H1594 C1606 0.950 . S
H1595 C1607 0.950 . S
C1596 H1588 0.950 . S
C1596 C1597 1.386 . S
C1596 C1598 1.361 1_655 S
C1597 C1596 1.386 . S
C1597 C1601 1.393 . S
C1598 H1590 0.975 . S
C1598 C1596 1.361 1_455 S
C1598 C1599 1.407 1_455 S
C1599 C1598 1.407 1_655 S
C1599 C1600 1.398 . S
C1599 C1605 1.491 1_655 S
C1600 H1591 0.950 . S
C1600 C1599 1.398 . S
C1600 C1601 1.391 . S
C1601 H1589 0.950 . S
C1601 C1597 1.393 . S
C1601 C1600 1.391 . S
C1602 H1592 0.950 . S
C1602 C1603 1.386 . S
C1602 C1604 1.391 1_455 S
C1603 C1602 1.386 . S
C1603 C1607 1.393 . S
C1604 H1593 0.950 . S
C1604 C1602 1.391 1_655 S
C1604 C1605 1.400 1_655 S
C1605 C1599 1.491 1_455 S
C1605 C1604 1.400 1_455 S
C1605 C1606 1.398 . S
C1606 H1594 0.950 . S
C1606 C1605 1.398 . S
C1606 C1607 1.391 . S
C1607 H1595 0.950 . S
C1607 C1603 1.393 . S
C1607 C1606 1.391 . S
H1608 C1616 0.950 . S
H1609 C1621 0.950 . S
H1610 C1618 0.950 . S
H1611 C1620 0.950 . S
H1612 C1622 0.950 . S
H1613 C1624 0.950 . S
H1614 C1626 0.950 . S
H1615 C1627 0.950 . S
C1616 H1608 0.950 . S
C1616 C1617 1.386 . S
C1616 C1618 1.391 . S
C1617 C1616 1.386 . S
C1617 C1621 1.393 . S
C1618 H1610 0.950 . S
C1618 C1616 1.391 . S
C1618 C1619 1.400 . S
C1619 C1618 1.400 . S
C1619 C1620 1.398 . S
C1619 C1625 1.491 . S
C1620 H1611 0.950 . S
C1620 C1619 1.398 . S
C1620 C1621 1.391 . S
C1621 H1609 0.950 . S
C1621 C1617 1.393 . S
C1621 C1620 1.391 . S
C1622 H1612 0.950 . S
C1622 C1623 1.386 . S
C1622 C1624 1.391 . S
C1623 C1622 1.386 . S
C1623 C1627 1.393 . S
C1624 H1613 0.950 . S
C1624 C1622 1.391 . S
C1624 C1625 1.400 . S
C1625 C1619 1.491 . S
C1625 C1624 1.400 . S
C1625 C1626 1.398 . S
C1626 H1614 0.950 . S
C1626 C1625 1.398 . S
C1626 C1627 1.391 . S
C1627 H1615 0.950 . S
C1627 C1623 1.393 . S
C1627 C1626 1.391 . S
H1628 C1636 0.950 . S
H1629 C1641 0.950 . S
H1630 C1638 0.950 1_545 S
H1631 C1640 0.950 . S
H1632 C1642 0.950 . S
H1633 C1644 0.950 1_565 S
H1634 C1646 0.950 . S
H1635 C1647 0.950 . S
C1636 H1628 0.950 . S
C1636 C1637 1.386 . S
C1636 C1638 1.391 . S
C1637 C1636 1.386 . S
C1637 C1641 1.393 . S
C1638 H1630 0.950 1_565 S
C1638 C1636 1.391 . S
C1638 C1639 1.400 . S
C1639 C1638 1.400 . S
C1639 C1640 1.398 . S
C1639 C1645 1.491 1_565 S
C1640 H1631 0.950 . S
C1640 C1639 1.398 . S
C1640 C1641 1.391 . S
C1641 H1629 0.950 . S
C1641 C1637 1.393 . S
C1641 C1640 1.391 . S
C1642 H1632 0.950 . S
C1642 C1643 1.386 . S
C1642 C1644 1.391 . S
C1643 C1642 1.386 . S
C1643 C1647 1.393 . S
C1644 H1633 0.950 1_545 S
C1644 C1642 1.391 . S
C1644 C1645 1.400 . S
C1645 C1639 1.491 1_545 S
C1645 C1644 1.400 . S
C1645 C1646 1.398 . S
C1646 H1634 0.950 . S
C1646 C1645 1.398 . S
C1646 C1647 1.391 . S
C1647 H1635 0.950 . S
C1647 C1643 1.393 . S
C1647 C1646 1.391 . S
H1648 C1656 0.950 . S
H1649 C1661 0.950 . S
H1650 C1658 0.950 . S
H1651 C1660 0.950 1_455 S
H1652 C1662 0.950 . S
H1653 C1664 0.950 . S
H1654 C1666 0.950 1_655 S
H1655 C1667 0.950 . S
C1656 H1648 0.950 . S
C1656 C1657 1.386 . S
C1656 C1658 1.391 . S
C1657 C1656 1.386 . S
C1657 C1661 1.393 . S
C1658 H1650 0.950 . S
C1658 C1656 1.391 . S
C1658 C1659 1.400 . S
C1659 C1658 1.400 . S
C1659 C1660 1.398 . S
C1659 C1665 1.491 1_655 S
C1660 H1651 0.950 1_655 S
C1660 C1659 1.398 . S
C1660 C1661 1.391 . S
C1661 H1649 0.950 . S
C1661 C1657 1.393 . S
C1661 C1660 1.391 . S
C1662 H1652 0.950 . S
C1662 C1663 1.386 . S
C1662 C1664 1.391 . S
C1663 C1662 1.386 . S
C1663 C1667 1.393 . S
C1664 H1653 0.950 . S
C1664 C1662 1.391 . S
C1664 C1665 1.400 . S
C1665 C1659 1.491 1_455 S
C1665 C1664 1.400 . S
C1665 C1666 1.398 . S
C1666 H1654 0.950 1_455 S
C1666 C1665 1.398 . S
C1666 C1667 1.391 . S
C1667 H1655 0.950 . S
C1667 C1663 1.393 . S
C1667 C1666 1.391 . S
H1668 C1676 0.950 . S
H1669 C1681 0.950 . S
H1670 C1678 0.950 . S
H1671 C1680 0.950 . S
H1672 C1682 0.950 . S
H1673 C1684 0.950 . S
H1674 C1686 0.950 . S
H1675 C1687 0.950 . S
C1676 H1668 0.950 . S
C1676 C1677 1.386 . S
C1676 C1678 1.391 . S
C1677 C1676 1.386 . S
C1677 C1681 1.393 . S
C1678 H1670 0.950 . S
C1678 C1676 1.391 . S
C1678 C1679 1.400 . S
C1679 C1678 1.400 . S
C1679 C1680 1.398 . S
C1679 C1685 1.491 . S
C1680 H1671 0.950 . S
C1680 C1679 1.398 . S
C1680 C1681 1.391 . S
C1681 H1669 0.950 . S
C1681 C1677 1.393 . S
C1681 C1680 1.391 . S
C1682 H1672 0.950 . S
C1682 C1683 1.386 . S
C1682 C1684 1.391 . S
C1683 C1682 1.386 . S
C1683 C1687 1.393 . S
C1684 H1673 0.950 . S
C1684 C1682 1.391 . S
C1684 C1685 1.400 . S
C1685 C1679 1.491 . S
C1685 C1684 1.400 . S
C1685 C1686 1.398 . S
C1686 H1674 0.950 . S
C1686 C1685 1.398 . S
C1686 C1687 1.391 . S
C1687 H1675 0.950 . S
C1687 C1683 1.393 . S
C1687 C1686 1.391 . S
H1688 C1696 0.950 . S
H1689 C1701 0.950 . S
H1690 C1698 0.950 . S
H1691 C1700 0.950 . S
H1692 C1702 0.950 . S
H1693 C1704 0.950 . S
H1694 C1706 0.950 . S
H1695 C1707 0.950 . S
C1696 H1688 0.950 . S
C1696 C1697 1.386 . S
C1696 C1698 1.391 . S
C1697 C1696 1.386 . S
C1697 C1701 1.393 . S
C1698 H1690 0.950 . S
C1698 C1696 1.391 . S
C1698 C1699 1.400 . S
C1699 C1698 1.400 . S
C1699 C1700 1.398 . S
C1699 C1705 1.491 1_565 S
C1700 H1691 0.950 . S
C1700 C1699 1.398 . S
C1700 C1701 1.391 . S
C1701 H1689 0.950 . S
C1701 C1697 1.393 . S
C1701 C1700 1.391 . S
C1702 H1692 0.950 . S
C1702 C1703 1.386 . S
C1702 C1704 1.391 . S
C1703 C1702 1.386 . S
C1703 C1707 1.393 . S
C1704 H1693 0.950 . S
C1704 C1702 1.391 . S
C1704 C1705 1.400 . S
C1705 C1699 1.491 1_545 S
C1705 C1704 1.400 . S
C1705 C1706 1.398 . S
C1706 H1694 0.950 . S
C1706 C1705 1.398 . S
C1706 C1707 1.391 . S
C1707 H1695 0.950 . S
C1707 C1703 1.393 . S
C1707 C1706 1.391 . S
H1708 C1716 0.950 1_655 S
H1709 C1721 0.950 . S
H1710 C1718 0.950 . S
H1711 C1720 0.950 . S
H1712 C1722 0.950 1_455 S
H1713 C1724 0.950 . S
H1714 C1726 0.950 . S
H1715 C1727 0.950 . S
C1716 H1708 0.950 1_455 S
C1716 C1717 1.386 . S
C1716 C1718 1.391 1_455 S
C1717 C1716 1.386 . S
C1717 C1721 1.393 . S
C1718 H1710 0.950 . S
C1718 C1716 1.391 1_655 S
C1718 C1719 1.400 1_655 S
C1719 C1718 1.400 1_455 S
C1719 C1720 1.398 . S
C1719 C1725 1.491 1_455 S
C1720 H1711 0.950 . S
C1720 C1719 1.398 . S
C1720 C1721 1.391 . S
C1721 H1709 0.950 . S
C1721 C1717 1.393 . S
C1721 C1720 1.391 . S
C1722 H1712 0.950 1_655 S
C1722 C1723 1.386 . S
C1722 C1724 1.391 1_655 S
C1723 C1722 1.386 . S
C1723 C1727 1.393 . S
C1724 H1713 0.950 . S
C1724 C1722 1.391 1_455 S
C1724 C1725 1.400 1_455 S
C1725 C1719 1.491 1_655 S
C1725 C1724 1.400 1_655 S
C1725 C1726 1.398 . S
C1726 H1714 0.950 . S
C1726 C1725 1.398 . S
C1726 C1727 1.391 . S
C1727 H1715 0.950 . S
C1727 C1723 1.393 . S
C1727 C1726 1.391 . S
H1728 C1736 0.950 . S
H1729 C1741 0.950 . S
H1730 C1738 0.950 . S
H1731 C1740 0.950 . S
H1732 C1742 0.950 . S
H1733 C1744 0.950 . S
H1734 C1746 0.950 . S
H1735 C1747 0.950 . S
C1736 H1728 0.950 . S
C1736 C1737 1.386 . S
C1736 C1738 1.391 . S
C1737 C1736 1.386 . S
C1737 C1741 1.393 . S
C1738 H1730 0.950 . S
C1738 C1736 1.391 . S
C1738 C1739 1.400 . S
C1739 C1738 1.400 . S
C1739 C1740 1.398 . S
C1739 C1745 1.491 . S
C1740 H1731 0.950 . S
C1740 C1739 1.398 . S
C1740 C1741 1.391 . S
C1741 H1729 0.950 . S
C1741 C1737 1.393 . S
C1741 C1740 1.391 . S
C1742 H1732 0.950 . S
C1742 C1743 1.386 . S
C1742 C1744 1.391 . S
C1743 C1742 1.386 . S
C1743 C1747 1.393 . S
C1744 H1733 0.950 . S
C1744 C1742 1.391 . S
C1744 C1745 1.400 . S
C1745 C1739 1.491 . S
C1745 C1744 1.400 . S
C1745 C1746 1.398 . S
C1746 H1734 0.950 . S
C1746 C1745 1.398 . S
C1746 C1747 1.391 . S
C1747 H1735 0.950 . S
C1747 C1743 1.393 . S
C1747 C1746 1.391 . S
H1748 C1756 0.950 . S
H1749 C1761 0.950 . S
H1750 C1758 0.950 1_545 S
H1751 C1760 0.950 . S
H1752 C1762 0.950 . S
H1753 C1764 0.950 1_565 S
H1754 C1766 0.950 . S
H1755 C1767 0.950 . S
C1756 H1748 0.950 . S
C1756 C1757 1.386 . S
C1756 C1758 1.391 . S
C1757 C1756 1.386 . S
C1757 C1761 1.393 . S
C1758 H1750 0.950 1_565 S
C1758 C1756 1.391 . S
C1758 C1759 1.400 . S
C1759 C1758 1.400 . S
C1759 C1760 1.398 . S
C1759 C1765 1.491 1_565 S
C1760 H1751 0.950 . S
C1760 C1759 1.398 . S
C1760 C1761 1.391 . S
C1761 H1749 0.950 . S
C1761 C1757 1.393 . S
C1761 C1760 1.391 . S
C1762 H1752 0.950 . S
C1762 C1763 1.386 . S
C1762 C1764 1.391 . S
C1763 C1762 1.386 . S
C1763 C1767 1.393 . S
C1764 H1753 0.950 1_545 S
C1764 C1762 1.391 . S
C1764 C1765 1.400 . S
C1765 C1759 1.491 1_545 S
C1765 C1764 1.400 . S
C1765 C1766 1.398 . S
C1766 H1754 0.950 . S
C1766 C1765 1.398 . S
C1766 C1767 1.391 . S
C1767 H1755 0.950 . S
C1767 C1763 1.393 . S
C1767 C1766 1.391 . S
H1768 C1776 0.950 . S
H1769 C1781 0.950 . S
H1770 C1778 0.950 1_655 S
H1771 C1780 0.950 . S
H1772 C1782 0.950 . S
H1773 C1784 0.950 1_455 S
H1774 C1786 0.950 . S
H1775 C1787 0.950 . S
C1776 H1768 0.950 . S
C1776 C1777 1.386 . S
C1776 C1778 1.391 . S
C1777 C1776 1.386 . S
C1777 C1781 1.393 . S
C1778 H1770 0.950 1_455 S
C1778 C1776 1.391 . S
C1778 C1779 1.400 . S
C1779 C1778 1.400 . S
C1779 C1780 1.398 . S
C1779 C1785 1.491 1_455 S
C1780 H1771 0.950 . S
C1780 C1779 1.398 . S
C1780 C1781 1.391 . S
C1781 H1769 0.950 . S
C1781 C1777 1.393 . S
C1781 C1780 1.391 . S
C1782 H1772 0.950 . S
C1782 C1783 1.386 . S
C1782 C1784 1.391 . S
C1783 C1782 1.386 . S
C1783 C1787 1.393 . S
C1784 H1773 0.950 1_655 S
C1784 C1782 1.391 . S
C1784 C1785 1.400 . S
C1785 C1779 1.491 1_655 S
C1785 C1784 1.400 . S
C1785 C1786 1.398 . S
C1786 H1774 0.950 . S
C1786 C1785 1.398 . S
C1786 C1787 1.391 . S
C1787 H1775 0.950 . S
C1787 C1783 1.393 . S
C1787 C1786 1.391 . S
H1788 C1796 0.950 . S
H1789 C1801 0.950 . S
H1790 C1798 0.950 . S
H1791 C1800 0.950 . S
H1792 C1802 0.950 . S
H1793 C1804 0.950 . S
H1794 C1806 0.950 . S
H1795 C1807 0.950 . S
C1796 H1788 0.950 . S
C1796 C1797 1.386 . S
C1796 C1798 1.391 . S
C1797 C1796 1.386 . S
C1797 C1801 1.393 . S
C1798 H1790 0.950 . S
C1798 C1796 1.391 . S
C1798 C1799 1.400 . S
C1799 C1798 1.400 . S
C1799 C1800 1.398 . S
C1799 C1805 1.491 1_655 S
C1800 H1791 0.950 . S
C1800 C1799 1.398 . S
C1800 C1801 1.391 . S
C1801 H1789 0.950 . S
C1801 C1797 1.393 . S
C1801 C1800 1.391 . S
C1802 H1792 0.950 . S
C1802 C1803 1.386 . S
C1802 C1804 1.391 . S
C1803 C1802 1.386 . S
C1803 C1807 1.393 . S
C1804 H1793 0.950 . S
C1804 C1802 1.391 . S
C1804 C1805 1.400 . S
C1805 C1799 1.491 1_455 S
C1805 C1804 1.400 . S
C1805 C1806 1.398 . S
C1806 H1794 0.950 . S
C1806 C1805 1.398 . S
C1806 C1807 1.391 . S
C1807 H1795 0.950 . S
C1807 C1803 1.393 . S
C1807 C1806 1.391 . S
H1808 C1816 0.950 . S
H1809 C1821 0.950 . S
H1810 C1818 0.950 . S
H1811 C1820 0.950 . S
H1812 C1822 0.950 . S
H1813 C1824 0.950 . S
H1814 C1826 0.950 . S
H1815 C1827 0.950 . S
C1816 H1808 0.950 . S
C1816 C1817 1.386 . S
C1816 C1818 1.391 . S
C1817 C1816 1.386 . S
C1817 C1821 1.393 . S
C1818 H1810 0.950 . S
C1818 C1816 1.391 . S
C1818 C1819 1.400 . S
C1819 C1818 1.400 . S
C1819 C1820 1.398 . S
C1819 C1825 1.491 . S
C1820 H1811 0.950 . S
C1820 C1819 1.398 . S
C1820 C1821 1.391 . S
C1821 H1809 0.950 . S
C1821 C1817 1.393 . S
C1821 C1820 1.391 . S
C1822 H1812 0.950 . S
C1822 C1823 1.386 . S
C1822 C1824 1.391 . S
C1823 C1822 1.386 . S
C1823 C1827 1.393 . S
C1824 H1813 0.950 . S
C1824 C1822 1.391 . S
C1824 C1825 1.400 . S
C1825 C1819 1.491 . S
C1825 C1824 1.400 . S
C1825 C1826 1.398 . S
C1826 H1814 0.950 . S
C1826 C1825 1.398 . S
C1826 C1827 1.391 . S
C1827 H1815 0.950 . S
C1827 C1823 1.393 . S
C1827 C1826 1.391 . S
H1828 C1836 0.950 . S
H1829 C1841 0.950 . S
H1830 C1838 0.950 . S
H1831 C1840 0.950 . S
H1832 C1842 0.950 . S
H1833 C1844 0.950 . S
H1834 C1846 0.950 . S
H1835 C1847 0.950 . S
C1836 H1828 0.950 . S
C1836 C1837 1.386 . S
C1836 C1838 1.391 . S
C1837 C1836 1.386 . S
C1837 C1841 1.393 . S
C1838 H1830 0.950 . S
C1838 C1836 1.391 . S
C1838 C1839 1.400 . S
C1839 C1838 1.400 . S
C1839 C1840 1.398 . S
C1839 C1845 1.491 1_545 S
C1840 H1831 0.950 . S
C1840 C1839 1.398 . S
C1840 C1841 1.391 . S
C1841 H1829 0.950 . S
C1841 C1837 1.393 . S
C1841 C1840 1.391 . S
C1842 H1832 0.950 . S
C1842 C1843 1.386 . S
C1842 C1844 1.391 . S
C1843 C1842 1.386 . S
C1843 C1847 1.393 . S
C1844 H1833 0.950 . S
C1844 C1842 1.391 . S
C1844 C1845 1.400 . S
C1845 C1839 1.491 1_565 S
C1845 C1844 1.400 . S
C1845 C1846 1.398 . S
C1846 H1834 0.950 . S
C1846 C1845 1.398 . S
C1846 C1847 1.391 . S
C1847 H1835 0.950 . S
C1847 C1843 1.393 . S
C1847 C1846 1.391 . S
H1848 C1856 0.950 . S
H1849 C1861 0.950 . S
H1850 C1858 0.950 . S
H1851 C1860 0.950 . S
H1852 C1862 0.950 . S
H1853 C1864 0.950 . S
H1854 C1866 0.950 . S
H1855 C1867 0.950 . S
C1856 H1848 0.950 . S
C1856 C1857 1.386 . S
C1856 C1858 1.391 . S
C1857 C1856 1.386 . S
C1857 C1861 1.393 . S
C1858 H1850 0.950 . S
C1858 C1856 1.391 . S
C1858 C1859 1.400 . S
C1859 C1858 1.400 . S
C1859 C1860 1.398 . S
C1859 C1865 1.491 1_545 S
C1860 H1851 0.950 . S
C1860 C1859 1.398 . S
C1860 C1861 1.391 . S
C1861 H1849 0.950 . S
C1861 C1857 1.393 . S
C1861 C1860 1.391 . S
C1862 H1852 0.950 . S
C1862 C1863 1.386 . S
C1862 C1864 1.391 . S
C1863 C1862 1.386 . S
C1863 C1867 1.393 . S
C1864 H1853 0.950 . S
C1864 C1862 1.391 . S
C1864 C1865 1.400 . S
C1865 C1859 1.491 1_565 S
C1865 C1864 1.400 . S
C1865 C1866 1.398 . S
C1866 H1854 0.950 . S
C1866 C1865 1.398 . S
C1866 C1867 1.391 . S
C1867 H1855 0.950 . S
C1867 C1863 1.393 . S
C1867 C1866 1.391 . S
H1868 C1876 0.950 . S
H1869 C1881 0.950 . S
H1870 C1878 0.950 . S
H1871 C1880 0.950 . S
H1872 C1882 0.950 . S
H1873 C1884 0.950 . S
H1874 C1886 0.950 . S
H1875 C1887 0.950 . S
C1876 H1868 0.950 . S
C1876 C1877 1.386 . S
C1876 C1878 1.391 . S
C1877 C1876 1.386 . S
C1877 C1881 1.393 . S
C1878 H1870 0.950 . S
C1878 C1876 1.391 . S
C1878 C1879 1.400 . S
C1879 C1878 1.400 . S
C1879 C1880 1.398 . S
C1879 C1885 1.491 1_455 S
C1880 H1871 0.950 . S
C1880 C1879 1.398 . S
C1880 C1881 1.391 . S
C1881 H1869 0.950 . S
C1881 C1877 1.393 . S
C1881 C1880 1.391 . S
C1882 H1872 0.950 . S
C1882 C1883 1.386 . S
C1882 C1884 1.391 . S
C1883 C1882 1.386 . S
C1883 C1887 1.393 . S
C1884 H1873 0.950 . S
C1884 C1882 1.391 . S
C1884 C1885 1.400 . S
C1885 C1879 1.491 1_655 S
C1885 C1884 1.400 . S
C1885 C1886 1.398 . S
C1886 H1874 0.950 . S
C1886 C1885 1.398 . S
C1886 C1887 1.391 . S
C1887 H1875 0.950 . S
C1887 C1883 1.393 . S
C1887 C1886 1.391 . S
H1888 C1896 0.950 . S
H1889 C1901 0.950 . S
H1890 C1898 0.950 . S
H1891 C1900 0.950 . S
H1892 C1902 0.950 . S
H1893 C1904 0.950 . S
H1894 C1906 0.950 . S
H1895 C1907 0.950 . S
C1896 H1888 0.950 . S
C1896 C1897 1.386 . S
C1896 C1898 1.391 . S
C1897 C1896 1.386 . S
C1897 C1901 1.393 . S
C1898 H1890 0.950 . S
C1898 C1896 1.391 . S
C1898 C1899 1.400 . S
C1899 C1898 1.400 . S
C1899 C1900 1.398 . S
C1899 C1905 1.491 . S
C1900 H1891 0.950 . S
C1900 C1899 1.398 . S
C1900 C1901 1.391 . S
C1901 H1889 0.950 . S
C1901 C1897 1.393 . S
C1901 C1900 1.391 . S
C1902 H1892 0.950 . S
C1902 C1903 1.386 . S
C1902 C1904 1.391 . S
C1903 C1902 1.386 . S
C1903 C1907 1.393 . S
C1904 H1893 0.950 . S
C1904 C1902 1.391 . S
C1904 C1905 1.400 . S
C1905 C1899 1.491 . S
C1905 C1904 1.400 . S
C1905 C1906 1.398 . S
C1906 H1894 0.950 . S
C1906 C1905 1.398 . S
C1906 C1907 1.391 . S
C1907 H1895 0.950 . S
C1907 C1903 1.393 . S
C1907 C1906 1.391 . S
H1908 C1916 0.950 . S
H1909 C1921 0.950 . S
H1910 C1918 0.950 . S
H1911 C1920 0.950 . S
H1912 C1922 0.950 . S
H1913 C1924 0.950 . S
H1914 C1926 0.950 . S
H1915 C1927 0.950 . S
C1916 H1908 0.950 . S
C1916 C1917 1.386 . S
C1916 C1918 1.391 . S
C1917 C1916 1.386 . S
C1917 C1921 1.393 . S
C1918 H1910 0.950 . S
C1918 C1916 1.391 . S
C1918 C1919 1.400 . S
C1919 C1918 1.400 . S
C1919 C1920 1.398 . S
C1919 C1925 1.491 . S
C1920 H1911 0.950 . S
C1920 C1919 1.398 . S
C1920 C1921 1.391 . S
C1921 H1909 0.950 . S
C1921 C1917 1.393 . S
C1921 C1920 1.391 . S
C1922 H1912 0.950 . S
C1922 C1923 1.386 . S
C1922 C1924 1.391 . S
C1923 C1922 1.386 . S
C1923 C1927 1.393 . S
C1924 H1913 0.950 . S
C1924 C1922 1.391 . S
C1924 C1925 1.400 . S
C1925 C1919 1.491 . S
C1925 C1924 1.400 . S
C1925 C1926 1.398 . S
C1926 H1914 0.950 . S
C1926 C1925 1.398 . S
C1926 C1927 1.391 . S
C1927 H1915 0.950 . S
C1927 C1923 1.393 . S
C1927 C1926 1.391 . S
H1928 C1936 0.950 . S
H1929 C1941 0.950 . S
H1930 C1938 0.950 . S
H1931 C1940 0.950 . S
H1932 C1942 0.950 . S
H1933 C1944 0.950 . S
H1934 C1946 0.950 . S
H1935 C1947 0.950 . S
C1936 H1928 0.950 . S
C1936 C1937 1.386 . S
C1936 C1938 1.391 . S
C1937 C1936 1.386 . S
C1937 C1941 1.393 . S
C1938 H1930 0.950 . S
C1938 C1936 1.391 . S
C1938 C1939 1.400 . S
C1939 C1938 1.400 . S
C1939 C1940 1.398 . S
C1939 C1945 1.491 . S
C1940 H1931 0.950 . S
C1940 C1939 1.398 . S
C1940 C1941 1.391 . S
C1941 H1929 0.950 . S
C1941 C1937 1.393 . S
C1941 C1940 1.391 . S
C1942 H1932 0.950 . S
C1942 C1943 1.386 . S
C1942 C1944 1.391 . S
C1943 C1942 1.386 . S
C1943 C1947 1.393 . S
C1944 H1933 0.950 . S
C1944 C1942 1.391 . S
C1944 C1945 1.400 . S
C1945 C1939 1.491 . S
C1945 C1944 1.400 . S
C1945 C1946 1.398 . S
C1946 H1934 0.950 . S
C1946 C1945 1.398 . S
C1946 C1947 1.391 . S
C1947 H1935 0.950 . S
C1947 C1943 1.393 . S
C1947 C1946 1.391 . S
H1948 C1956 0.950 . S
H1949 C1961 0.950 . S
H1950 C1958 0.950 . S
H1951 C1960 0.950 . S
H1952 C1962 0.950 . S
H1953 C1964 0.950 . S
H1954 C1966 0.950 . S
H1955 C1967 0.950 . S
C1956 H1948 0.950 . S
C1956 C1957 1.386 . S
C1956 C1958 1.391 . S
C1957 C1956 1.386 . S
C1957 C1961 1.393 . S
C1958 H1950 0.950 . S
C1958 C1956 1.391 . S
C1958 C1959 1.400 . S
C1959 C1958 1.400 . S
C1959 C1960 1.398 . S
C1959 C1965 1.491 . S
C1960 H1951 0.950 . S
C1960 C1959 1.398 . S
C1960 C1961 1.391 . S
C1961 H1949 0.950 . S
C1961 C1957 1.393 . S
C1961 C1960 1.391 . S
C1962 H1952 0.950 . S
C1962 C1963 1.386 . S
C1962 C1964 1.391 . S
C1963 C1962 1.386 . S
C1963 C1967 1.393 . S
C1964 H1953 0.950 . S
C1964 C1962 1.391 . S
C1964 C1965 1.400 . S
C1965 C1959 1.491 . S
C1965 C1964 1.400 . S
C1965 C1966 1.398 . S
C1966 H1954 0.950 . S
C1966 C1965 1.398 . S
C1966 C1967 1.391 . S
C1967 H1955 0.950 . S
C1967 C1963 1.393 . S
C1967 C1966 1.391 . S
H1968 C1976 0.950 . S
H1969 C1981 0.950 . S
H1970 C1978 0.950 . S
H1971 C1980 0.950 . S
H1972 C1982 0.950 . S
H1973 C1984 0.950 . S
H1974 C1986 0.950 . S
H1975 C1987 0.950 . S
C1976 H1968 0.950 . S
C1976 C1977 1.386 . S
C1976 C1978 1.391 . S
C1977 C1976 1.386 . S
C1977 C1981 1.393 . S
C1978 H1970 0.950 . S
C1978 C1976 1.391 . S
C1978 C1979 1.400 . S
C1979 C1978 1.400 . S
C1979 C1980 1.398 . S
C1979 C1985 1.491 . S
C1980 H1971 0.950 . S
C1980 C1979 1.398 . S
C1980 C1981 1.391 . S
C1981 H1969 0.950 . S
C1981 C1977 1.393 . S
C1981 C1980 1.391 . S
C1982 H1972 0.950 . S
C1982 C1983 1.386 . S
C1982 C1984 1.391 . S
C1983 C1982 1.386 . S
C1983 C1987 1.393 . S
C1984 H1973 0.950 . S
C1984 C1982 1.391 . S
C1984 C1985 1.400 . S
C1985 C1979 1.491 . S
C1985 C1984 1.400 . S
C1985 C1986 1.398 . S
C1986 H1974 0.950 . S
C1986 C1985 1.398 . S
C1986 C1987 1.391 . S
C1987 H1975 0.950 . S
C1987 C1983 1.393 . S
C1987 C1986 1.391 . S
H1988 C1996 0.950 . S
H1989 C2001 0.950 . S
H1990 C1998 0.950 . S
H1991 C2000 0.950 . S
H1992 C2002 0.950 . S
H1993 C2004 0.950 . S
H1994 C2006 0.950 . S
H1995 C2007 0.950 . S
C1996 H1988 0.950 . S
C1996 C1997 1.386 . S
C1996 C1998 1.391 . S
C1997 C1996 1.386 . S
C1997 C2001 1.393 . S
C1998 H1990 0.950 . S
C1998 C1996 1.391 . S
C1998 C1999 1.400 . S
C1999 C1998 1.400 . S
C1999 C2000 1.398 . S
C1999 C2005 1.491 . S
C2000 H1991 0.950 . S
C2000 C1999 1.398 . S
C2000 C2001 1.391 . S
C2001 H1989 0.950 . S
C2001 C1997 1.393 . S
C2001 C2000 1.391 . S
C2002 H1992 0.950 . S
C2002 C2003 1.386 . S
C2002 C2004 1.391 . S
C2003 C2002 1.386 . S
C2003 C2007 1.393 . S
C2004 H1993 0.950 . S
C2004 C2002 1.391 . S
C2004 C2005 1.400 . S
C2005 C1999 1.491 . S
C2005 C2004 1.400 . S
C2005 C2006 1.398 . S
C2006 H1994 0.950 . S
C2006 C2005 1.398 . S
C2006 C2007 1.391 . S
C2007 H1995 0.950 . S
C2007 C2003 1.393 . S
C2007 C2006 1.391 . S
H2008 C2016 0.950 . S
H2009 C2021 0.950 . S
H2010 C2018 0.950 . S
H2011 C2020 0.950 . S
H2012 C2022 0.950 . S
H2013 C2024 0.950 . S
H2014 C2026 0.950 . S
H2015 C2027 0.950 . S
C2016 H2008 0.950 . S
C2016 C2017 1.386 . S
C2016 C2018 1.391 . S
C2017 C2016 1.386 . S
C2017 C2021 1.393 . S
C2018 H2010 0.950 . S
C2018 C2016 1.391 . S
C2018 C2019 1.400 . S
C2019 C2018 1.400 . S
C2019 C2020 1.398 . S
C2019 C2025 1.491 . S
C2020 H2011 0.950 . S
C2020 C2019 1.398 . S
C2020 C2021 1.391 . S
C2021 H2009 0.950 . S
C2021 C2017 1.393 . S
C2021 C2020 1.391 . S
C2022 H2012 0.950 . S
C2022 C2023 1.386 . S
C2022 C2024 1.391 . S
C2023 C2022 1.386 . S
C2023 C2027 1.393 . S
C2024 H2013 0.950 . S
C2024 C2022 1.391 . S
C2024 C2025 1.400 . S
C2025 C2019 1.491 . S
C2025 C2024 1.400 . S
C2025 C2026 1.398 . S
C2026 H2014 0.950 . S
C2026 C2025 1.398 . S
C2026 C2027 1.391 . S
C2027 H2015 0.950 . S
C2027 C2023 1.393 . S
C2027 C2026 1.391 . S
H2028 C2036 0.950 . S
H2029 C2041 0.950 . S
H2030 C2038 0.950 . S
H2031 C2040 0.950 . S
H2032 C2042 0.950 . S
H2033 C2044 0.950 . S
H2034 C2046 0.950 . S
H2035 C2047 0.950 . S
C2036 H2028 0.950 . S
C2036 C2037 1.386 . S
C2036 C2038 1.391 . S
C2037 C2036 1.386 . S
C2037 C2041 1.393 . S
C2038 H2030 0.950 . S
C2038 C2036 1.391 . S
C2038 C2039 1.400 . S
C2039 C2038 1.400 . S
C2039 C2040 1.398 . S
C2039 C2045 1.491 . S
C2040 H2031 0.950 . S
C2040 C2039 1.398 . S
C2040 C2041 1.391 . S
C2041 H2029 0.950 . S
C2041 C2037 1.393 . S
C2041 C2040 1.391 . S
C2042 H2032 0.950 . S
C2042 C2043 1.386 . S
C2042 C2044 1.391 . S
C2043 C2042 1.386 . S
C2043 C2047 1.393 . S
C2044 H2033 0.950 . S
C2044 C2042 1.391 . S
C2044 C2045 1.400 . S
C2045 C2039 1.491 . S
C2045 C2044 1.400 . S
C2045 C2046 1.398 . S
C2046 H2034 0.950 . S
C2046 C2045 1.398 . S
C2046 C2047 1.391 . S
C2047 H2035 0.950 . S
C2047 C2043 1.393 . S
C2047 C2046 1.391 . S
H2048 C2056 0.950 . S
H2049 C2061 0.950 . S
H2050 C2058 0.950 . S
H2051 C2060 0.950 . S
H2052 C2062 0.950 . S
H2053 C2064 0.950 . S
H2054 C2066 0.950 . S
H2055 C2067 0.950 . S
C2056 H2048 0.950 . S
C2056 C2057 1.386 . S
C2056 C2058 1.391 . S
C2057 C2056 1.386 . S
C2057 C2061 1.393 . S
C2058 H2050 0.950 . S
C2058 C2056 1.391 . S
C2058 C2059 1.400 . S
C2059 C2058 1.400 . S
C2059 C2060 1.398 . S
C2059 C2065 1.491 . S
C2060 H2051 0.950 . S
C2060 C2059 1.398 . S
C2060 C2061 1.391 . S
C2061 H2049 0.950 . S
C2061 C2057 1.393 . S
C2061 C2060 1.391 . S
C2062 H2052 0.950 . S
C2062 C2063 1.386 . S
C2062 C2064 1.391 . S
C2063 C2062 1.386 . S
C2063 C2067 1.393 . S
C2064 H2053 0.950 . S
C2064 C2062 1.391 . S
C2064 C2065 1.400 . S
C2065 C2059 1.491 . S
C2065 C2064 1.400 . S
C2065 C2066 1.398 . S
C2066 H2054 0.950 . S
C2066 C2065 1.398 . S
C2066 C2067 1.391 . S
C2067 H2055 0.950 . S
C2067 C2063 1.393 . S
C2067 C2066 1.391 . S
H2068 C2076 0.950 . S
H2069 C2081 0.950 . S
H2070 C2078 0.950 . S
H2071 C2080 0.950 . S
H2072 C2082 0.950 . S
H2073 C2084 0.950 . S
H2074 C2086 0.950 . S
H2075 C2087 0.950 . S
C2076 H2068 0.950 . S
C2076 C2077 1.386 . S
C2076 C2078 1.391 . S
C2077 C2076 1.386 . S
C2077 C2081 1.393 . S
C2078 H2070 0.950 . S
C2078 C2076 1.391 . S
C2078 C2079 1.400 . S
C2079 C2078 1.400 . S
C2079 C2080 1.398 . S
C2079 C2085 1.491 . S
C2080 H2071 0.950 . S
C2080 C2079 1.398 . S
C2080 C2081 1.391 . S
C2081 H2069 0.950 . S
C2081 C2077 1.393 . S
C2081 C2080 1.391 . S
C2082 H2072 0.950 . S
C2082 C2083 1.386 . S
C2082 C2084 1.391 . S
C2083 C2082 1.386 . S
C2083 C2087 1.393 . S
C2084 H2073 0.950 . S
C2084 C2082 1.391 . S
C2084 C2085 1.400 . S
C2085 C2079 1.491 . S
C2085 C2084 1.400 . S
C2085 C2086 1.398 . S
C2086 H2074 0.950 . S
C2086 C2085 1.398 . S
C2086 C2087 1.391 . S
C2087 H2075 0.950 . S
C2087 C2083 1.393 . S
C2087 C2086 1.391 . S
H2088 C2096 0.950 . S
H2089 C2101 0.950 . S
H2090 C2098 0.950 . S
H2091 C2100 0.950 . S
H2092 C2102 0.950 . S
H2093 C2104 0.950 . S
H2094 C2106 0.950 . S
H2095 C2107 0.950 . S
C2096 H2088 0.950 . S
C2096 C2097 1.386 . S
C2096 C2098 1.391 . S
C2097 C2096 1.386 . S
C2097 C2101 1.393 . S
C2098 H2090 0.950 . S
C2098 C2096 1.391 . S
C2098 C2099 1.400 . S
C2099 C2098 1.400 . S
C2099 C2100 1.398 . S
C2099 C2105 1.491 . S
C2100 H2091 0.950 . S
C2100 C2099 1.398 . S
C2100 C2101 1.391 . S
C2101 H2089 0.950 . S
C2101 C2097 1.393 . S
C2101 C2100 1.391 . S
C2102 H2092 0.950 . S
C2102 C2103 1.386 . S
C2102 C2104 1.391 . S
C2103 C2102 1.386 . S
C2103 C2107 1.393 . S
C2104 H2093 0.950 . S
C2104 C2102 1.391 . S
C2104 C2105 1.400 . S
C2105 C2099 1.491 . S
C2105 C2104 1.400 . S
C2105 C2106 1.398 . S
C2106 H2094 0.950 . S
C2106 C2105 1.398 . S
C2106 C2107 1.391 . S
C2107 H2095 0.950 . S
C2107 C2103 1.393 . S
C2107 C2106 1.391 . S
H2108 C2116 0.950 . S
H2109 C2121 0.950 . S
H2110 C2118 0.950 . S
H2111 C2120 0.950 . S
H2112 C2122 0.950 . S
H2113 C2124 0.950 . S
H2114 C2126 0.950 . S
H2115 C2127 0.950 . S
C2116 H2108 0.950 . S
C2116 C2117 1.386 . S
C2116 C2118 1.391 . S
C2117 C2116 1.386 . S
C2117 C2121 1.393 . S
C2118 H2110 0.950 . S
C2118 C2116 1.391 . S
C2118 C2119 1.400 . S
C2119 C2118 1.400 . S
C2119 C2120 1.398 . S
C2119 C2125 1.491 . S
C2120 H2111 0.950 . S
C2120 C2119 1.398 . S
C2120 C2121 1.391 . S
C2121 H2109 0.950 . S
C2121 C2117 1.393 . S
C2121 C2120 1.391 . S
C2122 H2112 0.950 . S
C2122 C2123 1.386 . S
C2122 C2124 1.391 . S
C2123 C2122 1.386 . S
C2123 C2127 1.393 . S
C2124 H2113 0.950 . S
C2124 C2122 1.391 . S
C2124 C2125 1.400 . S
C2125 C2119 1.491 . S
C2125 C2124 1.400 . S
C2125 C2126 1.398 . S
C2126 H2114 0.950 . S
C2126 C2125 1.398 . S
C2126 C2127 1.391 . S
C2127 H2115 0.950 . S
C2127 C2123 1.393 . S
C2127 C2126 1.391 . S
H2128 C2136 0.950 . S
H2129 C2141 0.950 . S
H2130 C2138 0.950 . S
H2131 C2140 0.950 . S
H2132 C2142 0.950 . S
H2133 C2144 0.950 . S
H2134 C2146 0.950 . S
H2135 C2147 0.950 . S
C2136 H2128 0.950 . S
C2136 C2137 1.386 . S
C2136 C2138 1.391 . S
C2137 C2136 1.386 . S
C2137 C2141 1.393 . S
C2138 H2130 0.950 . S
C2138 C2136 1.391 . S
C2138 C2139 1.400 . S
C2139 C2138 1.400 . S
C2139 C2140 1.398 . S
C2139 C2145 1.491 . S
C2140 H2131 0.950 . S
C2140 C2139 1.398 . S
C2140 C2141 1.391 . S
C2141 H2129 0.950 . S
C2141 C2137 1.393 . S
C2141 C2140 1.391 . S
C2142 H2132 0.950 . S
C2142 C2143 1.386 . S
C2142 C2144 1.391 . S
C2143 C2142 1.386 . S
C2143 C2147 1.393 . S
C2144 H2133 0.950 . S
C2144 C2142 1.391 . S
C2144 C2145 1.400 . S
C2145 C2139 1.491 . S
C2145 C2144 1.400 . S
C2145 C2146 1.398 . S
C2146 H2134 0.950 . S
C2146 C2145 1.398 . S
C2146 C2147 1.391 . S
C2147 H2135 0.950 . S
C2147 C2143 1.393 . S
C2147 C2146 1.391 . S
H2148 C2156 0.950 . S
H2149 C2161 0.950 . S
H2150 C2158 0.968 . S
H2151 C2160 0.950 . S
H2152 C2162 0.950 . S
H2153 C2164 0.955 . S
H2154 C2166 0.950 . S
H2155 C2167 0.950 . S
C2156 H2148 0.950 . S
C2156 C2157 1.386 . S
C2156 C2158 1.379 1_455 S
C2157 C2156 1.386 . S
C2157 C2161 1.393 . S
C2158 H2150 0.968 . S
C2158 C2156 1.379 1_655 S
C2158 C2159 1.395 1_655 S
C2159 C2158 1.395 1_455 S
C2159 C2160 1.398 . S
C2159 C2165 1.491 1_455 S
C2160 H2151 0.950 . S
C2160 C2159 1.398 . S
C2160 C2161 1.391 . S
C2161 H2149 0.950 . S
C2161 C2157 1.393 . S
C2161 C2160 1.391 . S
C2162 H2152 0.950 . S
C2162 C2163 1.386 . S
C2162 C2164 1.387 1_655 S
C2163 C2162 1.386 . S
C2163 C2167 1.393 . S
C2164 H2153 0.955 . S
C2164 C2162 1.387 1_455 S
C2164 C2165 1.399 1_455 S
C2165 C2159 1.491 1_655 S
C2165 C2164 1.399 1_655 S
C2165 C2166 1.398 . S
C2166 H2154 0.950 . S
C2166 C2165 1.398 . S
C2166 C2167 1.391 . S
C2167 H2155 0.950 . S
C2167 C2163 1.393 . S
C2167 C2166 1.391 . S
H2168 C2176 0.950 . S
H2169 C2181 0.950 . S
H2170 C2178 0.950 . S
H2171 C2180 0.950 . S
H2172 C2182 0.950 . S
H2173 C2184 0.950 . S
H2174 C2186 0.950 . S
H2175 C2187 0.950 . S
C2176 H2168 0.950 . S
C2176 C2177 1.386 . S
C2176 C2178 1.391 . S
C2177 C2176 1.386 . S
C2177 C2181 1.393 . S
C2178 H2170 0.950 . S
C2178 C2176 1.391 . S
C2178 C2179 1.400 . S
C2179 C2178 1.400 . S
C2179 C2180 1.398 . S
C2179 C2185 1.491 . S
C2180 H2171 0.950 . S
C2180 C2179 1.398 . S
C2180 C2181 1.391 . S
C2181 H2169 0.950 . S
C2181 C2177 1.393 . S
C2181 C2180 1.391 . S
C2182 H2172 0.950 . S
C2182 C2183 1.386 . S
C2182 C2184 1.391 . S
C2183 C2182 1.386 . S
C2183 C2187 1.393 . S
C2184 H2173 0.950 . S
C2184 C2182 1.391 . S
C2184 C2185 1.400 . S
C2185 C2179 1.491 . S
C2185 C2184 1.400 . S
C2185 C2186 1.398 . S
C2186 H2174 0.950 . S
C2186 C2185 1.398 . S
C2186 C2187 1.391 . S
C2187 H2175 0.950 . S
C2187 C2183 1.393 . S
C2187 C2186 1.391 . S
H2188 C2196 0.950 . S
H2189 C2201 0.950 . S
H2190 C2198 0.950 . S
H2191 C2200 0.950 . S
H2192 C2202 0.950 . S
H2193 C2204 0.950 . S
H2194 C2206 0.950 . S
H2195 C2207 0.950 . S
C2196 H2188 0.950 . S
C2196 C2197 1.386 . S
C2196 C2198 1.391 . S
C2197 C2196 1.386 . S
C2197 C2201 1.393 . S
C2198 H2190 0.950 . S
C2198 C2196 1.391 . S
C2198 C2199 1.400 . S
C2199 C2198 1.400 . S
C2199 C2200 1.398 . S
C2199 C2205 1.491 1_545 S
C2200 H2191 0.950 . S
C2200 C2199 1.398 . S
C2200 C2201 1.391 . S
C2201 H2189 0.950 . S
C2201 C2197 1.393 . S
C2201 C2200 1.391 . S
C2202 H2192 0.950 . S
C2202 C2203 1.386 . S
C2202 C2204 1.391 . S
C2203 C2202 1.386 . S
C2203 C2207 1.393 . S
C2204 H2193 0.950 . S
C2204 C2202 1.391 . S
C2204 C2205 1.400 . S
C2205 C2199 1.491 1_565 S
C2205 C2204 1.400 . S
C2205 C2206 1.398 . S
C2206 H2194 0.950 . S
C2206 C2205 1.398 . S
C2206 C2207 1.391 . S
C2207 H2195 0.950 . S
C2207 C2203 1.393 . S
C2207 C2206 1.391 . S
H2208 C2216 0.950 . S
H2209 C2221 0.950 . S
H2210 C2218 0.962 . S
H2211 C2220 0.950 . S
H2212 C2222 0.950 . S
H2213 C2224 0.950 1_554 S
H2214 C2226 0.950 . S
H2215 C2227 0.950 . S
C2216 H2208 0.950 . S
C2216 C2217 1.386 . S
C2216 C2218 1.391 . S
C2217 C2216 1.386 . S
C2217 C2221 1.393 . S
C2218 H2210 0.962 . S
C2218 C2216 1.391 . S
C2218 C2219 1.400 . S
C2219 C2218 1.400 . S
C2219 C2220 1.398 . S
C2219 C2225 1.491 1_564 S
C2220 H2211 0.950 . S
C2220 C2219 1.398 . S
C2220 C2221 1.391 . S
C2221 H2209 0.950 . S
C2221 C2217 1.393 . S
C2221 C2220 1.391 . S
C2222 H2212 0.950 . S
C2222 C2223 1.386 . S
C2222 C2224 1.391 . S
C2223 C2222 1.386 . S
C2223 C2227 1.393 . S
C2224 H2213 0.950 1_556 S
C2224 C2222 1.391 . S
C2224 C2225 1.400 . S
C2225 C2219 1.491 1_546 S
C2225 C2224 1.400 . S
C2225 C2226 1.398 . S
C2226 H2214 0.950 . S
C2226 C2225 1.398 . S
C2226 C2227 1.391 . S
C2227 H2215 0.950 . S
C2227 C2223 1.393 . S
C2227 C2226 1.391 . S
H2228 C2236 0.950 . S
H2229 C2241 0.950 . S
H2230 C2238 0.950 1_455 S
H2231 C2240 0.950 . S
H2232 C2242 0.950 . S
H2233 C2244 0.950 . S
H2234 C2246 0.950 . S
H2235 C2247 0.950 . S
C2236 H2228 0.950 . S
C2236 C2237 1.386 . S
C2236 C2238 1.391 . S
C2237 C2236 1.386 . S
C2237 C2241 1.393 . S
C2238 H2230 0.950 1_655 S
C2238 C2236 1.391 . S
C2238 C2239 1.400 . S
C2239 C2238 1.400 . S
C2239 C2240 1.398 . S
C2239 C2245 1.491 1_656 S
C2240 H2231 0.950 . S
C2240 C2239 1.398 . S
C2240 C2241 1.391 . S
C2241 H2229 0.950 . S
C2241 C2237 1.393 . S
C2241 C2240 1.391 . S
C2242 H2232 0.950 . S
C2242 C2243 1.386 . S
C2242 C2244 1.391 1_455 S
C2243 C2242 1.386 . S
C2243 C2247 1.393 . S
C2244 H2233 0.950 . S
C2244 C2242 1.391 1_655 S
C2244 C2245 1.400 1_655 S
C2245 C2239 1.491 1_454 S
C2245 C2244 1.400 1_455 S
C2245 C2246 1.398 . S
C2246 H2234 0.950 . S
C2246 C2245 1.398 . S
C2246 C2247 1.391 . S
C2247 H2235 0.950 . S
C2247 C2243 1.393 . S
C2247 C2246 1.391 . S
H2248 C2256 0.950 . S
H2249 C2261 0.950 . S
H2250 C2258 0.950 1_556 S
H2251 C2260 0.950 . S
H2252 C2262 0.950 . S
H2253 C2264 0.950 1_554 S
H2254 C2266 0.950 . S
H2255 C2267 0.950 . S
C2256 H2248 0.950 . S
C2256 C2257 1.386 . S
C2256 C2258 1.391 . S
C2257 C2256 1.386 . S
C2257 C2261 1.393 . S
C2258 H2250 0.950 1_554 S
C2258 C2256 1.391 . S
C2258 C2259 1.400 . S
C2259 C2258 1.400 . S
C2259 C2260 1.398 . S
C2259 C2265 1.491 1_554 S
C2260 H2251 0.950 . S
C2260 C2259 1.398 . S
C2260 C2261 1.391 . S
C2261 H2249 0.950 . S
C2261 C2257 1.393 . S
C2261 C2260 1.391 . S
C2262 H2252 0.950 . S
C2262 C2263 1.386 . S
C2262 C2264 1.391 . S
C2263 C2262 1.386 . S
C2263 C2267 1.393 . S
C2264 H2253 0.950 1_556 S
C2264 C2262 1.391 . S
C2264 C2265 1.400 . S
C2265 C2259 1.491 1_556 S
C2265 C2264 1.400 . S
C2265 C2266 1.398 . S
C2266 H2254 0.950 . S
C2266 C2265 1.398 . S
C2266 C2267 1.391 . S
C2267 H2255 0.950 . S
C2267 C2263 1.393 . S
C2267 C2266 1.391 . S
H2268 C2276 0.950 . S
H2269 C2281 0.950 . S
H2270 C2278 0.950 . S
H2271 C2280 0.961 . S
H2272 C2282 0.950 . S
H2273 C2284 0.950 . S
H2274 C2286 0.950 . S
H2275 C2287 0.950 . S
C2276 H2268 0.950 . S
C2276 C2277 1.386 1_556 S
C2276 C2278 1.391 . S
C2277 C2276 1.386 1_554 S
C2277 C2281 1.393 . S
C2278 H2270 0.950 . S
C2278 C2276 1.391 . S
C2278 C2279 1.400 . S
C2279 C2278 1.400 . S
C2279 C2280 1.376 1_556 S
C2279 C2285 1.491 . S
C2280 H2271 0.961 . S
C2280 C2279 1.376 1_554 S
C2280 C2281 1.404 . S
C2281 H2269 0.950 . S
C2281 C2277 1.393 . S
C2281 C2280 1.404 . S
C2282 H2272 0.950 . S
C2282 C2283 1.386 . S
C2282 C2284 1.391 1_565 S
C2283 C2282 1.386 . S
C2283 C2287 1.393 . S
C2284 H2273 0.950 . S
C2284 C2282 1.391 1_545 S
C2284 C2285 1.400 . S
C2285 C2279 1.491 . S
C2285 C2284 1.400 . S
C2285 C2286 1.398 . S
C2286 H2274 0.950 . S
C2286 C2285 1.398 . S
C2286 C2287 1.391 1_545 S
C2287 H2275 0.950 . S
C2287 C2283 1.393 . S
C2287 C2286 1.391 1_565 S
H2288 C2296 0.950 . S
H2289 C2301 0.950 . S
H2290 C2298 0.950 . S
H2291 C2300 0.950 . S
H2292 C2302 0.950 1_554 S
H2293 C2304 0.950 1_554 S
H2294 C2306 0.950 . S
H2295 C2307 0.955 . S
C2296 H2288 0.950 . S
C2296 C2297 1.386 1_556 S
C2296 C2298 1.391 . S
C2297 C2296 1.386 1_554 S
C2297 C2301 1.393 . S
C2298 H2290 0.950 . S
C2298 C2296 1.391 . S
C2298 C2299 1.400 . S
C2299 C2298 1.400 . S
C2299 C2300 1.398 1_556 S
C2299 C2305 1.491 . S
C2300 H2291 0.950 . S
C2300 C2299 1.398 1_554 S
C2300 C2301 1.391 . S
C2301 H2289 0.950 . S
C2301 C2297 1.393 . S
C2301 C2300 1.391 . S
C2302 H2292 0.950 1_556 S
C2302 C2303 1.386 . S
C2302 C2304 1.391 1_455 S
C2303 C2302 1.386 . S
C2303 C2307 1.406 . S
C2304 H2293 0.950 1_556 S
C2304 C2302 1.391 1_655 S
C2304 C2305 1.400 . S
C2305 C2299 1.491 . S
C2305 C2304 1.400 . S
C2305 C2306 1.398 . S
C2306 H2294 0.950 . S
C2306 C2305 1.398 . S
C2306 C2307 1.373 1_655 S
C2307 H2295 0.955 . S
C2307 C2303 1.406 . S
C2307 C2306 1.373 1_455 S
H2308 C2316 0.950 . S
H2309 C2321 0.950 . S
H2310 C2318 0.950 . S
H2311 C2320 0.950 . S
H2312 C2322 0.950 . S
H2313 C2324 0.950 . S
H2314 C2326 0.950 . S
H2315 C2327 0.950 . S
C2316 H2308 0.950 . S
C2316 C2317 1.386 . S
C2316 C2318 1.391 . S
C2317 C2316 1.386 . S
C2317 C2321 1.393 . S
C2318 H2310 0.950 . S
C2318 C2316 1.391 . S
C2318 C2319 1.400 . S
C2319 C2318 1.400 . S
C2319 C2320 1.398 . S
C2319 C2325 1.491 . S
C2320 H2311 0.950 . S
C2320 C2319 1.398 . S
C2320 C2321 1.391 . S
C2321 H2309 0.950 . S
C2321 C2317 1.393 . S
C2321 C2320 1.391 . S
C2322 H2312 0.950 . S
C2322 C2323 1.386 . S
C2322 C2324 1.391 . S
C2323 C2322 1.386 . S
C2323 C2327 1.393 1_554 S
C2324 H2313 0.950 . S
C2324 C2322 1.391 . S
C2324 C2325 1.400 1_554 S
C2325 C2319 1.491 . S
C2325 C2324 1.400 1_556 S
C2325 C2326 1.398 . S
C2326 H2314 0.950 . S
C2326 C2325 1.398 . S
C2326 C2327 1.391 . S
C2327 H2315 0.950 . S
C2327 C2323 1.393 1_556 S
C2327 C2326 1.391 . S
H2328 C2336 0.950 . S
H2329 C2341 0.950 . S
H2330 C2338 0.950 . S
H2331 C2340 0.950 . S
H2332 C2342 0.950 . S
H2333 C2344 0.950 . S
H2334 C2346 0.950 . S
H2335 C2347 0.950 . S
C2336 H2328 0.950 . S
C2336 C2337 1.386 1_455 S
C2336 C2338 1.391 . S
C2337 C2336 1.386 1_655 S
C2337 C2341 1.393 . S
C2338 H2330 0.950 . S
C2338 C2336 1.391 . S
C2338 C2339 1.400 . S
C2339 C2338 1.400 . S
C2339 C2340 1.398 . S
C2339 C2345 1.491 . S
C2340 H2331 0.950 . S
C2340 C2339 1.398 . S
C2340 C2341 1.391 1_455 S
C2341 H2329 0.950 . S
C2341 C2337 1.393 . S
C2341 C2340 1.391 1_655 S
C2342 H2332 0.950 . S
C2342 C2343 1.386 . S
C2342 C2344 1.391 . S
C2343 C2342 1.386 . S
C2343 C2347 1.393 . S
C2344 H2333 0.950 . S
C2344 C2342 1.391 . S
C2344 C2345 1.400 . S
C2345 C2339 1.491 . S
C2345 C2344 1.400 . S
C2345 C2346 1.398 . S
C2346 H2334 0.950 . S
C2346 C2345 1.398 . S
C2346 C2347 1.391 . S
C2347 H2335 0.950 . S
C2347 C2343 1.393 . S
C2347 C2346 1.391 . S
H2348 C2356 0.950 . S
H2349 C2361 0.950 . S
H2350 C2358 0.950 . S
H2351 C2360 0.950 . S
H2352 C2362 0.950 . S
H2353 C2364 0.950 . S
H2354 C2366 0.950 . S
H2355 C2367 0.950 . S
C2356 H2348 0.950 . S
C2356 C2357 1.386 . S
C2356 C2358 1.391 . S
C2357 C2356 1.386 . S
C2357 C2361 1.393 . S
C2358 H2350 0.950 . S
C2358 C2356 1.391 . S
C2358 C2359 1.400 . S
C2359 C2358 1.400 . S
C2359 C2360 1.398 . S
C2359 C2365 1.491 . S
C2360 H2351 0.950 . S
C2360 C2359 1.398 . S
C2360 C2361 1.391 . S
C2361 H2349 0.950 . S
C2361 C2357 1.393 . S
C2361 C2360 1.391 . S
C2362 H2352 0.950 . S
C2362 C2363 1.386 . S
C2362 C2364 1.391 . S
C2363 C2362 1.386 . S
C2363 C2367 1.393 . S
C2364 H2353 0.950 . S
C2364 C2362 1.391 . S
C2364 C2365 1.400 . S
C2365 C2359 1.491 . S
C2365 C2364 1.400 . S
C2365 C2366 1.398 . S
C2366 H2354 0.950 . S
C2366 C2365 1.398 . S
C2366 C2367 1.391 . S
C2367 H2355 0.950 . S
C2367 C2363 1.393 . S
C2367 C2366 1.391 . S
H2368 C2376 0.955 1_545 S
H2369 C2381 0.950 . S
H2370 C2378 0.950 . S
H2371 C2380 0.950 . S
H2372 C2382 0.950 . S
H2373 C2384 0.950 . S
H2374 C2386 0.950 . S
H2375 C2387 0.950 . S
C2376 H2368 0.955 1_565 S
C2376 C2377 1.386 1_565 S
C2376 C2378 1.391 . S
C2377 C2376 1.386 1_545 S
C2377 C2381 1.393 . S
C2378 H2370 0.950 . S
C2378 C2376 1.391 . S
C2378 C2379 1.400 . S
C2379 C2378 1.400 . S
C2379 C2380 1.398 . S
C2379 C2385 1.491 . S
C2380 H2371 0.950 . S
C2380 C2379 1.398 . S
C2380 C2381 1.391 1_565 S
C2381 H2369 0.950 . S
C2381 C2377 1.393 . S
C2381 C2380 1.391 1_545 S
C2382 H2372 0.950 . S
C2382 C2383 1.386 . S
C2382 C2384 1.391 . S
C2383 C2382 1.386 . S
C2383 C2387 1.393 . S
C2384 H2373 0.950 . S
C2384 C2382 1.391 . S
C2384 C2385 1.400 . S
C2385 C2379 1.491 . S
C2385 C2384 1.400 . S
C2385 C2386 1.398 . S
C2386 H2374 0.950 . S
C2386 C2385 1.398 . S
C2386 C2387 1.391 . S
C2387 H2375 0.950 . S
C2387 C2383 1.393 . S
C2387 C2386 1.391 . S
H2388 C2396 0.950 1_556 S
H2389 C2401 0.932 1_545 S
H2390 C2398 0.950 1_556 S
H2391 C2400 0.950 . S
H2392 C2402 0.950 . S
H2393 C2404 0.950 . S
H2394 C2406 0.950 . S
H2395 C2407 0.950 . S
C2396 H2388 0.950 1_554 S
C2396 C2397 1.386 . S
C2396 C2398 1.391 1_545 S
C2397 C2396 1.386 . S
C2397 C2401 1.359 1_545 S
C2398 H2390 0.950 1_554 S
C2398 C2396 1.391 1_565 S
C2398 C2399 1.400 . S
C2399 C2398 1.400 . S
C2399 C2400 1.398 . S
C2399 C2405 1.491 . S
C2400 H2391 0.950 . S
C2400 C2399 1.398 . S
C2400 C2401 1.444 . S
C2401 H2389 0.932 1_565 S
C2401 C2397 1.359 1_565 S
C2401 C2400 1.444 . S
C2402 H2392 0.950 . S
C2402 C2403 1.386 1_554 S
C2402 C2404 1.391 . S
C2403 C2402 1.386 1_556 S
C2403 C2407 1.393 . S
C2404 H2393 0.950 . S
C2404 C2402 1.391 . S
C2404 C2405 1.400 . S
C2405 C2399 1.491 . S
C2405 C2404 1.400 . S
C2405 C2406 1.398 1_554 S
C2406 H2394 0.950 . S
C2406 C2405 1.398 1_556 S
C2406 C2407 1.391 . S
C2407 H2395 0.950 . S
C2407 C2403 1.393 . S
C2407 C2406 1.391 . S
H2408 C2416 0.950 . S
H2409 C2421 0.953 . S
H2410 C2418 0.950 . S
H2411 C2420 0.950 1_556 S
H2412 C2422 0.950 . S
H2413 C2424 0.950 . S
H2414 C2426 0.950 . S
H2415 C2427 0.950 . S
C2416 H2408 0.950 . S
C2416 C2417 1.386 . S
C2416 C2418 1.391 1_655 S
C2417 C2416 1.386 . S
C2417 C2421 1.393 . S
C2418 H2410 0.950 . S
C2418 C2416 1.391 1_455 S
C2418 C2419 1.400 . S
C2419 C2418 1.400 . S
C2419 C2420 1.398 . S
C2419 C2425 1.491 . S
C2420 H2411 0.950 1_554 S
C2420 C2419 1.398 . S
C2420 C2421 1.391 1_455 S
C2421 H2409 0.953 . S
C2421 C2417 1.393 . S
C2421 C2420 1.391 1_655 S
C2422 H2412 0.950 . S
C2422 C2423 1.386 . S
C2422 C2424 1.391 . S
C2423 C2422 1.386 . S
C2423 C2427 1.393 1_556 S
C2424 H2413 0.950 . S
C2424 C2422 1.391 . S
C2424 C2425 1.400 1_556 S
C2425 C2419 1.491 . S
C2425 C2424 1.400 1_554 S
C2425 C2426 1.398 . S
C2426 H2414 0.950 . S
C2426 C2425 1.398 . S
C2426 C2427 1.391 . S
C2427 H2415 0.950 . S
C2427 C2423 1.393 1_554 S
C2427 C2426 1.391 . S
H2428 C2436 0.950 1_556 S
H2429 C2441 0.950 . S
H2430 C2438 0.906 1_556 S
H2431 C2440 0.950 . S
H2432 C2442 0.950 . S
H2433 C2444 0.950 . S
H2434 C2446 0.950 . S
H2435 C2447 0.950 . S
C2436 H2428 0.950 1_554 S
C2436 C2437 1.386 . S
C2436 C2438 1.404 . S
C2437 C2436 1.386 . S
C2437 C2441 1.393 . S
C2438 H2430 0.906 1_554 S
C2438 C2436 1.404 . S
C2438 C2439 1.431 . S
C2439 C2438 1.431 . S
C2439 C2440 1.398 . S
C2439 C2445 1.491 . S
C2440 H2431 0.950 . S
C2440 C2439 1.398 . S
C2440 C2441 1.391 . S
C2441 H2429 0.950 . S
C2441 C2437 1.393 . S
C2441 C2440 1.391 . S
C2442 H2432 0.950 . S
C2442 C2443 1.386 1_554 S
C2442 C2444 1.391 . S
C2443 C2442 1.386 1_556 S
C2443 C2447 1.393 . S
C2444 H2433 0.950 . S
C2444 C2442 1.391 . S
C2444 C2445 1.400 . S
C2445 C2439 1.491 . S
C2445 C2444 1.400 . S
C2445 C2446 1.398 1_554 S
C2446 H2434 0.950 . S
C2446 C2445 1.398 1_556 S
C2446 C2447 1.391 . S
C2447 H2435 0.950 . S
C2447 C2443 1.393 . S
C2447 C2446 1.391 . S
H2448 C2456 0.950 . S
H2449 C2461 0.950 . S
H2450 C2458 0.950 . S
H2451 C2460 0.950 . S
H2452 C2462 0.950 . S
H2453 C2464 0.950 . S
H2454 C2466 0.950 . S
H2455 C2467 0.950 . S
C2456 H2448 0.950 . S
C2456 C2457 1.386 . S
C2456 C2458 1.391 . S
C2457 C2456 1.386 . S
C2457 C2461 1.393 . S
C2458 H2450 0.950 . S
C2458 C2456 1.391 . S
C2458 C2459 1.400 . S
C2459 C2458 1.400 . S
C2459 C2460 1.398 . S
C2459 C2465 1.491 . S
C2460 H2451 0.950 . S
C2460 C2459 1.398 . S
C2460 C2461 1.391 . S
C2461 H2449 0.950 . S
C2461 C2457 1.393 . S
C2461 C2460 1.391 . S
C2462 H2452 0.950 . S
C2462 C2463 1.386 . S
C2462 C2464 1.391 1_455 S
C2463 C2462 1.386 . S
C2463 C2467 1.393 . S
C2464 H2453 0.950 . S
C2464 C2462 1.391 1_655 S
C2464 C2465 1.400 . S
C2465 C2459 1.491 . S
C2465 C2464 1.400 . S
C2465 C2466 1.398 . S
C2466 H2454 0.950 . S
C2466 C2465 1.398 . S
C2466 C2467 1.391 1_655 S
C2467 H2455 0.950 . S
C2467 C2463 1.393 . S
C2467 C2466 1.391 1_455 S
H2468 C2476 0.950 . S
H2469 C2481 0.950 . S
H2470 C2478 0.950 . S
H2471 C2480 0.950 . S
H2472 C2482 0.950 . S
H2473 C2484 0.950 . S
H2474 C2486 0.950 . S
H2475 C2487 0.950 . S
C2476 H2468 0.950 . S
C2476 C2477 1.386 . S
C2476 C2478 1.391 . S
C2477 C2476 1.386 . S
C2477 C2481 1.393 . S
C2478 H2470 0.950 . S
C2478 C2476 1.391 . S
C2478 C2479 1.400 . S
C2479 C2478 1.400 . S
C2479 C2480 1.398 . S
C2479 C2485 1.491 . S
C2480 H2471 0.950 . S
C2480 C2479 1.398 . S
C2480 C2481 1.391 . S
C2481 H2469 0.950 . S
C2481 C2477 1.393 . S
C2481 C2480 1.391 . S
C2482 H2472 0.950 . S
C2482 C2483 1.386 . S
C2482 C2484 1.391 . S
C2483 C2482 1.386 . S
C2483 C2487 1.393 . S
C2484 H2473 0.950 . S
C2484 C2482 1.391 . S
C2484 C2485 1.400 . S
C2485 C2479 1.491 . S
C2485 C2484 1.400 . S
C2485 C2486 1.398 . S
C2486 H2474 0.950 . S
C2486 C2485 1.398 . S
C2486 C2487 1.391 . S
C2487 H2475 0.950 . S
C2487 C2483 1.393 . S
C2487 C2486 1.391 . S
H2488 C2496 0.950 . S
H2489 C2501 0.950 . S
H2490 C2498 0.950 . S
H2491 C2500 0.950 . S
H2492 C2502 0.950 . S
H2493 C2504 0.950 . S
H2494 C2506 0.950 . S
H2495 C2507 0.950 . S
C2496 H2488 0.950 . S
C2496 C2497 1.386 . S
C2496 C2498 1.391 1_565 S
C2497 C2496 1.386 . S
C2497 C2501 1.393 . S
C2498 H2490 0.950 . S
C2498 C2496 1.391 1_545 S
C2498 C2499 1.400 . S
C2499 C2498 1.400 . S
C2499 C2500 1.398 . S
C2499 C2505 1.491 . S
C2500 H2491 0.950 . S
C2500 C2499 1.398 . S
C2500 C2501 1.391 1_545 S
C2501 H2489 0.950 . S
C2501 C2497 1.393 . S
C2501 C2500 1.391 1_565 S
C2502 H2492 0.950 . S
C2502 C2503 1.386 . S
C2502 C2504 1.391 . S
C2503 C2502 1.386 . S
C2503 C2507 1.393 . S
C2504 H2493 0.950 . S
C2504 C2502 1.391 . S
C2504 C2505 1.400 . S
C2505 C2499 1.491 . S
C2505 C2504 1.400 . S
C2505 C2506 1.398 . S
C2506 H2494 0.950 . S
C2506 C2505 1.398 . S
C2506 C2507 1.391 . S
C2507 H2495 0.950 . S
C2507 C2503 1.393 . S
C2507 C2506 1.391 . S
H2508 C2516 0.950 . S
H2509 C2521 0.950 . S
H2510 C2518 0.950 . S
H2511 C2520 0.950 . S
H2512 C2522 0.950 . S
H2513 C2524 0.950 . S
H2514 C2526 0.950 . S
H2515 C2527 0.950 . S
C2516 H2508 0.950 . S
C2516 C2517 1.386 . S
C2516 C2518 1.391 . S
C2517 C2516 1.386 . S
C2517 C2521 1.393 . S
C2518 H2510 0.950 . S
C2518 C2516 1.391 . S
C2518 C2519 1.400 . S
C2519 C2518 1.400 . S
C2519 C2520 1.398 . S
C2519 C2525 1.491 . S
C2520 H2511 0.950 . S
C2520 C2519 1.398 . S
C2520 C2521 1.391 . S
C2521 H2509 0.950 . S
C2521 C2517 1.393 . S
C2521 C2520 1.391 . S
C2522 H2512 0.950 . S
C2522 C2523 1.386 . S
C2522 C2524 1.391 . S
C2523 C2522 1.386 . S
C2523 C2527 1.393 . S
C2524 H2513 0.950 . S
C2524 C2522 1.391 . S
C2524 C2525 1.400 . S
C2525 C2519 1.491 . S
C2525 C2524 1.400 . S
C2525 C2526 1.398 . S
C2526 H2514 0.950 . S
C2526 C2525 1.398 . S
C2526 C2527 1.391 . S
C2527 H2515 0.950 . S
C2527 C2523 1.393 . S
C2527 C2526 1.391 . S
H2528 C2536 0.950 . S
H2529 C2541 0.950 . S
H2530 C2538 0.950 . S
H2531 C2540 0.950 . S
H2532 C2542 0.950 . S
H2533 C2544 0.950 . S
H2534 C2546 0.950 . S
H2535 C2547 0.950 . S
C2536 H2528 0.950 . S
C2536 C2537 1.386 . S
C2536 C2538 1.391 . S
C2537 C2536 1.386 . S
C2537 C2541 1.393 . S
C2538 H2530 0.950 . S
C2538 C2536 1.391 . S
C2538 C2539 1.400 . S
C2539 C2538 1.400 . S
C2539 C2540 1.398 . S
C2539 C2545 1.491 . S
C2540 H2531 0.950 . S
C2540 C2539 1.398 . S
C2540 C2541 1.391 . S
C2541 H2529 0.950 . S
C2541 C2537 1.393 . S
C2541 C2540 1.391 . S
C2542 H2532 0.950 . S
C2542 C2543 1.386 . S
C2542 C2544 1.391 . S
C2543 C2542 1.386 . S
C2543 C2547 1.393 . S
C2544 H2533 0.950 . S
C2544 C2542 1.391 . S
C2544 C2545 1.400 . S
C2545 C2539 1.491 . S
C2545 C2544 1.400 . S
C2545 C2546 1.398 . S
C2546 H2534 0.950 . S
C2546 C2545 1.398 . S
C2546 C2547 1.391 . S
C2547 H2535 0.950 . S
C2547 C2543 1.393 . S
C2547 C2546 1.391 . S
H2548 C2556 0.950 . S
H2549 C2561 0.950 . S
H2550 C2558 0.950 . S
H2551 C2560 0.950 . S
H2552 C2562 0.950 . S
H2553 C2564 0.950 . S
H2554 C2566 0.950 . S
H2555 C2567 0.950 . S
C2556 H2548 0.950 . S
C2556 C2557 1.386 . S
C2556 C2558 1.391 . S
C2557 C2556 1.386 . S
C2557 C2561 1.393 . S
C2558 H2550 0.950 . S
C2558 C2556 1.391 . S
C2558 C2559 1.400 . S
C2559 C2558 1.400 . S
C2559 C2560 1.398 . S
C2559 C2565 1.491 . S
C2560 H2551 0.950 . S
C2560 C2559 1.398 . S
C2560 C2561 1.391 . S
C2561 H2549 0.950 . S
C2561 C2557 1.393 . S
C2561 C2560 1.391 . S
C2562 H2552 0.950 . S
C2562 C2563 1.386 . S
C2562 C2564 1.391 . S
C2563 C2562 1.386 . S
C2563 C2567 1.393 . S
C2564 H2553 0.950 . S
C2564 C2562 1.391 . S
C2564 C2565 1.400 . S
C2565 C2559 1.491 . S
C2565 C2564 1.400 . S
C2565 C2566 1.398 . S
C2566 H2554 0.950 . S
C2566 C2565 1.398 . S
C2566 C2567 1.391 . S
C2567 H2555 0.950 . S
C2567 C2563 1.393 . S
C2567 C2566 1.391 . S
H2568 C2576 0.950 . S
H2569 C2581 0.950 . S
H2570 C2578 0.950 . S
H2571 C2580 0.950 . S
H2572 C2582 0.950 . S
H2573 C2584 0.950 . S
H2574 C2586 0.950 . S
H2575 C2587 0.950 . S
C2576 H2568 0.950 . S
C2576 C2577 1.386 . S
C2576 C2578 1.391 . S
C2577 C2576 1.386 . S
C2577 C2581 1.393 . S
C2578 H2570 0.950 . S
C2578 C2576 1.391 . S
C2578 C2579 1.400 . S
C2579 C2578 1.400 . S
C2579 C2580 1.398 . S
C2579 C2585 1.491 . S
C2580 H2571 0.950 . S
C2580 C2579 1.398 . S
C2580 C2581 1.391 . S
C2581 H2569 0.950 . S
C2581 C2577 1.393 . S
C2581 C2580 1.391 . S
C2582 H2572 0.950 . S
C2582 C2583 1.386 . S
C2582 C2584 1.391 . S
C2583 C2582 1.386 . S
C2583 C2587 1.393 . S
C2584 H2573 0.950 . S
C2584 C2582 1.391 . S
C2584 C2585 1.400 . S
C2585 C2579 1.491 . S
C2585 C2584 1.400 . S
C2585 C2586 1.398 . S
C2586 H2574 0.950 . S
C2586 C2585 1.398 . S
C2586 C2587 1.391 . S
C2587 H2575 0.950 . S
C2587 C2583 1.393 . S
C2587 C2586 1.391 . S
H2588 C2596 0.950 . S
H2589 C2601 0.950 . S
H2590 C2598 0.950 . S
H2591 C2600 0.950 . S
H2592 C2602 0.950 . S
H2593 C2604 0.950 . S
H2594 C2606 0.950 . S
H2595 C2607 0.950 . S
C2596 H2588 0.950 . S
C2596 C2597 1.386 . S
C2596 C2598 1.391 . S
C2597 C2596 1.386 . S
C2597 C2601 1.393 . S
C2598 H2590 0.950 . S
C2598 C2596 1.391 . S
C2598 C2599 1.400 . S
C2599 C2598 1.400 . S
C2599 C2600 1.398 . S
C2599 C2605 1.491 . S
C2600 H2591 0.950 . S
C2600 C2599 1.398 . S
C2600 C2601 1.391 . S
C2601 H2589 0.950 . S
C2601 C2597 1.393 . S
C2601 C2600 1.391 . S
C2602 H2592 0.950 . S
C2602 C2603 1.386 . S
C2602 C2604 1.391 . S
C2603 C2602 1.386 . S
C2603 C2607 1.393 . S
C2604 H2593 0.950 . S
C2604 C2602 1.391 . S
C2604 C2605 1.400 . S
C2605 C2599 1.491 . S
C2605 C2604 1.400 . S
C2605 C2606 1.398 . S
C2606 H2594 0.950 . S
C2606 C2605 1.398 . S
C2606 C2607 1.391 . S
C2607 H2595 0.950 . S
C2607 C2603 1.393 . S
C2607 C2606 1.391 . S
H2608 C2616 0.950 . S
H2609 C2621 0.950 . S
H2610 C2618 0.950 . S
H2611 C2620 0.950 . S
H2612 C2622 0.950 . S
H2613 C2624 0.950 . S
H2614 C2626 0.950 . S
H2615 C2627 0.950 . S
C2616 H2608 0.950 . S
C2616 C2617 1.386 . S
C2616 C2618 1.391 . S
C2617 C2616 1.386 . S
C2617 C2621 1.393 . S
C2618 H2610 0.950 . S
C2618 C2616 1.391 . S
C2618 C2619 1.400 . S
C2619 C2618 1.400 . S
C2619 C2620 1.398 . S
C2619 C2625 1.491 . S
C2620 H2611 0.950 . S
C2620 C2619 1.398 . S
C2620 C2621 1.391 . S
C2621 H2609 0.950 . S
C2621 C2617 1.393 . S
C2621 C2620 1.391 . S
C2622 H2612 0.950 . S
C2622 C2623 1.386 . S
C2622 C2624 1.391 . S
C2623 C2622 1.386 . S
C2623 C2627 1.393 . S
C2624 H2613 0.950 . S
C2624 C2622 1.391 . S
C2624 C2625 1.400 . S
C2625 C2619 1.491 . S
C2625 C2624 1.400 . S
C2625 C2626 1.398 . S
C2626 H2614 0.950 . S
C2626 C2625 1.398 . S
C2626 C2627 1.391 . S
C2627 H2615 0.950 . S
C2627 C2623 1.393 . S
C2627 C2626 1.391 . S
H2628 C2636 0.950 . S
H2629 C2641 0.950 . S
H2630 C2638 0.950 . S
H2631 C2640 0.950 . S
H2632 C2642 0.950 . S
H2633 C2644 0.950 . S
H2634 C2646 0.950 . S
H2635 C2647 0.950 . S
C2636 H2628 0.950 . S
C2636 C2637 1.386 . S
C2636 C2638 1.391 . S
C2637 C2636 1.386 . S
C2637 C2641 1.393 . S
C2638 H2630 0.950 . S
C2638 C2636 1.391 . S
C2638 C2639 1.400 . S
C2639 C2638 1.400 . S
C2639 C2640 1.398 . S
C2639 C2645 1.491 . S
C2640 H2631 0.950 . S
C2640 C2639 1.398 . S
C2640 C2641 1.391 . S
C2641 H2629 0.950 . S
C2641 C2637 1.393 . S
C2641 C2640 1.391 . S
C2642 H2632 0.950 . S
C2642 C2643 1.386 . S
C2642 C2644 1.391 . S
C2643 C2642 1.386 . S
C2643 C2647 1.393 . S
C2644 H2633 0.950 . S
C2644 C2642 1.391 . S
C2644 C2645 1.400 . S
C2645 C2639 1.491 . S
C2645 C2644 1.400 . S
C2645 C2646 1.398 . S
C2646 H2634 0.950 . S
C2646 C2645 1.398 . S
C2646 C2647 1.391 . S
C2647 H2635 0.950 . S
C2647 C2643 1.393 . S
C2647 C2646 1.391 . S
H2648 C2656 0.950 . S
H2649 C2661 0.950 . S
H2650 C2658 0.950 . S
H2651 C2660 0.950 . S
H2652 C2662 0.950 . S
H2653 C2664 0.950 . S
H2654 C2666 0.950 . S
H2655 C2667 0.950 . S
C2656 H2648 0.950 . S
C2656 C2657 1.386 . S
C2656 C2658 1.391 . S
C2657 C2656 1.386 . S
C2657 C2661 1.393 . S
C2658 H2650 0.950 . S
C2658 C2656 1.391 . S
C2658 C2659 1.400 . S
C2659 C2658 1.400 . S
C2659 C2660 1.398 . S
C2659 C2665 1.491 . S
C2660 H2651 0.950 . S
C2660 C2659 1.398 . S
C2660 C2661 1.391 . S
C2661 H2649 0.950 . S
C2661 C2657 1.393 . S
C2661 C2660 1.391 . S
C2662 H2652 0.950 . S
C2662 C2663 1.386 . S
C2662 C2664 1.391 . S
C2663 C2662 1.386 . S
C2663 C2667 1.393 . S
C2664 H2653 0.950 . S
C2664 C2662 1.391 . S
C2664 C2665 1.400 . S
C2665 C2659 1.491 . S
C2665 C2664 1.400 . S
C2665 C2666 1.398 . S
C2666 H2654 0.950 . S
C2666 C2665 1.398 . S
C2666 C2667 1.391 . S
C2667 H2655 0.950 . S
C2667 C2663 1.393 . S
C2667 C2666 1.391 . S
H2668 C2676 0.950 . S
H2669 C2681 0.950 . S
H2670 C2678 0.950 . S
H2671 C2680 0.950 . S
H2672 C2682 0.950 . S
H2673 C2684 0.950 . S
H2674 C2686 0.950 . S
H2675 C2687 0.950 . S
C2676 H2668 0.950 . S
C2676 C2677 1.386 . S
C2676 C2678 1.391 . S
C2677 C2676 1.386 . S
C2677 C2681 1.393 . S
C2678 H2670 0.950 . S
C2678 C2676 1.391 . S
C2678 C2679 1.400 . S
C2679 C2678 1.400 . S
C2679 C2680 1.398 . S
C2679 C2685 1.491 . S
C2680 H2671 0.950 . S
C2680 C2679 1.398 . S
C2680 C2681 1.391 . S
C2681 H2669 0.950 . S
C2681 C2677 1.393 . S
C2681 C2680 1.391 . S
C2682 H2672 0.950 . S
C2682 C2683 1.386 . S
C2682 C2684 1.391 . S
C2683 C2682 1.386 . S
C2683 C2687 1.393 . S
C2684 H2673 0.950 . S
C2684 C2682 1.391 . S
C2684 C2685 1.400 . S
C2685 C2679 1.491 . S
C2685 C2684 1.400 . S
C2685 C2686 1.398 . S
C2686 H2674 0.950 . S
C2686 C2685 1.398 . S
C2686 C2687 1.391 . S
C2687 H2675 0.950 . S
C2687 C2683 1.393 . S
C2687 C2686 1.391 . S
H2688 C2696 0.950 . S
H2689 C2701 0.950 . S
H2690 C2698 0.950 . S
H2691 C2700 0.950 . S
H2692 C2702 0.950 . S
H2693 C2704 0.950 . S
H2694 C2706 0.950 . S
H2695 C2707 0.950 . S
C2696 H2688 0.950 . S
C2696 C2697 1.386 . S
C2696 C2698 1.391 . S
C2697 C2696 1.386 . S
C2697 C2701 1.393 . S
C2698 H2690 0.950 . S
C2698 C2696 1.391 . S
C2698 C2699 1.400 . S
C2699 C2698 1.400 . S
C2699 C2700 1.398 . S
C2699 C2705 1.491 . S
C2700 H2691 0.950 . S
C2700 C2699 1.398 . S
C2700 C2701 1.391 . S
C2701 H2689 0.950 . S
C2701 C2697 1.393 . S
C2701 C2700 1.391 . S
C2702 H2692 0.950 . S
C2702 C2703 1.386 . S
C2702 C2704 1.391 . S
C2703 C2702 1.386 . S
C2703 C2707 1.393 . S
C2704 H2693 0.950 . S
C2704 C2702 1.391 . S
C2704 C2705 1.400 . S
C2705 C2699 1.491 . S
C2705 C2704 1.400 . S
C2705 C2706 1.398 . S
C2706 H2694 0.950 . S
C2706 C2705 1.398 . S
C2706 C2707 1.391 . S
C2707 H2695 0.950 . S
C2707 C2703 1.393 . S
C2707 C2706 1.391 . S
H2708 C2716 0.950 . S
H2709 C2721 0.950 . S
H2710 C2718 0.950 . S
H2711 C2720 0.950 . S
H2712 C2722 0.950 . S
H2713 C2724 0.950 . S
H2714 C2726 0.950 . S
H2715 C2727 0.950 . S
C2716 H2708 0.950 . S
C2716 C2717 1.386 . S
C2716 C2718 1.391 . S
C2717 C2716 1.386 . S
C2717 C2721 1.393 . S
C2718 H2710 0.950 . S
C2718 C2716 1.391 . S
C2718 C2719 1.400 . S
C2719 C2718 1.400 . S
C2719 C2720 1.398 . S
C2719 C2725 1.491 . S
C2720 H2711 0.950 . S
C2720 C2719 1.398 . S
C2720 C2721 1.391 . S
C2721 H2709 0.950 . S
C2721 C2717 1.393 . S
C2721 C2720 1.391 . S
C2722 H2712 0.950 . S
C2722 C2723 1.386 . S
C2722 C2724 1.391 . S
C2723 C2722 1.386 . S
C2723 C2727 1.393 . S
C2724 H2713 0.950 . S
C2724 C2722 1.391 . S
C2724 C2725 1.400 . S
C2725 C2719 1.491 . S
C2725 C2724 1.400 . S
C2725 C2726 1.398 . S
C2726 H2714 0.950 . S
C2726 C2725 1.398 . S
C2726 C2727 1.391 . S
C2727 H2715 0.950 . S
C2727 C2723 1.393 . S
C2727 C2726 1.391 . S
H2728 C2736 0.950 . S
H2729 C2741 0.950 . S
H2730 C2738 0.950 . S
H2731 C2740 0.950 . S
H2732 C2742 0.950 . S
H2733 C2744 0.950 . S
H2734 C2746 0.950 . S
H2735 C2747 0.950 . S
C2736 H2728 0.950 . S
C2736 C2737 1.386 . S
C2736 C2738 1.391 . S
C2737 C2736 1.386 . S
C2737 C2741 1.393 . S
C2738 H2730 0.950 . S
C2738 C2736 1.391 . S
C2738 C2739 1.400 . S
C2739 C2738 1.400 . S
C2739 C2740 1.398 . S
C2739 C2745 1.491 . S
C2740 H2731 0.950 . S
C2740 C2739 1.398 . S
C2740 C2741 1.391 . S
C2741 H2729 0.950 . S
C2741 C2737 1.393 . S
C2741 C2740 1.391 . S
C2742 H2732 0.950 . S
C2742 C2743 1.386 . S
C2742 C2744 1.391 . S
C2743 C2742 1.386 . S
C2743 C2747 1.393 . S
C2744 H2733 0.950 . S
C2744 C2742 1.391 . S
C2744 C2745 1.400 . S
C2745 C2739 1.491 . S
C2745 C2744 1.400 . S
C2745 C2746 1.398 . S
C2746 H2734 0.950 . S
C2746 C2745 1.398 . S
C2746 C2747 1.391 . S
C2747 H2735 0.950 . S
C2747 C2743 1.393 . S
C2747 C2746 1.391 . S
H2748 C2756 0.950 . S
H2749 C2761 0.950 . S
H2750 C2758 0.950 . S
H2751 C2760 0.950 . S
H2752 C2762 0.950 . S
H2753 C2764 0.950 . S
H2754 C2766 0.950 . S
H2755 C2767 0.950 . S
C2756 H2748 0.950 . S
C2756 C2757 1.386 . S
C2756 C2758 1.391 . S
C2757 C2756 1.386 . S
C2757 C2761 1.393 . S
C2758 H2750 0.950 . S
C2758 C2756 1.391 . S
C2758 C2759 1.400 . S
C2759 C2758 1.400 . S
C2759 C2760 1.398 . S
C2759 C2765 1.491 . S
C2760 H2751 0.950 . S
C2760 C2759 1.398 . S
C2760 C2761 1.391 . S
C2761 H2749 0.950 . S
C2761 C2757 1.393 . S
C2761 C2760 1.391 . S
C2762 H2752 0.950 . S
C2762 C2763 1.386 . S
C2762 C2764 1.391 . S
C2763 C2762 1.386 . S
C2763 C2767 1.393 . S
C2764 H2753 0.950 . S
C2764 C2762 1.391 . S
C2764 C2765 1.400 . S
C2765 C2759 1.491 . S
C2765 C2764 1.400 . S
C2765 C2766 1.398 . S
C2766 H2754 0.950 . S
C2766 C2765 1.398 . S
C2766 C2767 1.391 . S
C2767 H2755 0.950 . S
C2767 C2763 1.393 . S
C2767 C2766 1.391 . S
H2768 C2776 0.950 . S
H2769 C2781 0.950 . S
H2770 C2778 0.950 . S
H2771 C2780 0.950 . S
H2772 C2782 0.950 . S
H2773 C2784 0.950 . S
H2774 C2786 0.950 . S
H2775 C2787 0.950 . S
C2776 H2768 0.950 . S
C2776 C2777 1.386 . S
C2776 C2778 1.391 . S
C2777 C2776 1.386 . S
C2777 C2781 1.393 . S
C2778 H2770 0.950 . S
C2778 C2776 1.391 . S
C2778 C2779 1.400 . S
C2779 C2778 1.400 . S
C2779 C2780 1.398 . S
C2779 C2785 1.491 . S
C2780 H2771 0.950 . S
C2780 C2779 1.398 . S
C2780 C2781 1.391 . S
C2781 H2769 0.950 . S
C2781 C2777 1.393 . S
C2781 C2780 1.391 . S
C2782 H2772 0.950 . S
C2782 C2783 1.386 . S
C2782 C2784 1.391 . S
C2783 C2782 1.386 . S
C2783 C2787 1.393 . S
C2784 H2773 0.950 . S
C2784 C2782 1.391 . S
C2784 C2785 1.400 . S
C2785 C2779 1.491 . S
C2785 C2784 1.400 . S
C2785 C2786 1.398 . S
C2786 H2774 0.950 . S
C2786 C2785 1.398 . S
C2786 C2787 1.391 . S
C2787 H2775 0.950 . S
C2787 C2783 1.393 . S
C2787 C2786 1.391 . S
H2788 C2796 0.950 . S
H2789 C2801 0.950 . S
H2790 C2798 0.950 . S
H2791 C2800 0.950 . S
H2792 C2802 0.950 . S
H2793 C2804 0.950 . S
H2794 C2806 0.950 . S
H2795 C2807 0.950 . S
C2796 H2788 0.950 . S
C2796 C2797 1.386 . S
C2796 C2798 1.391 . S
C2797 C2796 1.386 . S
C2797 C2801 1.393 . S
C2798 H2790 0.950 . S
C2798 C2796 1.391 . S
C2798 C2799 1.400 . S
C2799 C2798 1.400 . S
C2799 C2800 1.398 . S
C2799 C2805 1.491 . S
C2800 H2791 0.950 . S
C2800 C2799 1.398 . S
C2800 C2801 1.391 . S
C2801 H2789 0.950 . S
C2801 C2797 1.393 . S
C2801 C2800 1.391 . S
C2802 H2792 0.950 . S
C2802 C2803 1.386 . S
C2802 C2804 1.391 . S
C2803 C2802 1.386 . S
C2803 C2807 1.393 . S
C2804 H2793 0.950 . S
C2804 C2802 1.391 . S
C2804 C2805 1.400 . S
C2805 C2799 1.491 . S
C2805 C2804 1.400 . S
C2805 C2806 1.398 . S
C2806 H2794 0.950 . S
C2806 C2805 1.398 . S
C2806 C2807 1.391 . S
C2807 H2795 0.950 . S
C2807 C2803 1.393 . S
C2807 C2806 1.391 . S
H2808 C2816 0.950 . S
H2809 C2821 0.950 . S
H2810 C2818 0.950 . S
H2811 C2820 0.950 . S
H2812 C2822 0.950 . S
H2813 C2824 0.950 . S
H2814 C2826 0.950 . S
H2815 C2827 0.950 . S
C2816 H2808 0.950 . S
C2816 C2817 1.386 . S
C2816 C2818 1.391 . S
C2817 C2816 1.386 . S
C2817 C2821 1.393 . S
C2818 H2810 0.950 . S
C2818 C2816 1.391 . S
C2818 C2819 1.400 . S
C2819 C2818 1.400 . S
C2819 C2820 1.398 . S
C2819 C2825 1.491 . S
C2820 H2811 0.950 . S
C2820 C2819 1.398 . S
C2820 C2821 1.391 . S
C2821 H2809 0.950 . S
C2821 C2817 1.393 . S
C2821 C2820 1.391 . S
C2822 H2812 0.950 . S
C2822 C2823 1.386 . S
C2822 C2824 1.391 . S
C2823 C2822 1.386 . S
C2823 C2827 1.393 . S
C2824 H2813 0.950 . S
C2824 C2822 1.391 . S
C2824 C2825 1.400 . S
C2825 C2819 1.491 . S
C2825 C2824 1.400 . S
C2825 C2826 1.398 . S
C2826 H2814 0.950 . S
C2826 C2825 1.398 . S
C2826 C2827 1.391 . S
C2827 H2815 0.950 . S
C2827 C2823 1.393 . S
C2827 C2826 1.391 . S
H2828 C2836 0.950 . S
H2829 C2841 0.950 . S
H2830 C2838 0.950 . S
H2831 C2840 0.950 . S
H2832 C2842 0.950 . S
H2833 C2844 0.950 . S
H2834 C2846 0.950 . S
H2835 C2847 0.950 . S
C2836 H2828 0.950 . S
C2836 C2837 1.386 . S
C2836 C2838 1.391 . S
C2837 C2836 1.386 . S
C2837 C2841 1.393 . S
C2838 H2830 0.950 . S
C2838 C2836 1.391 . S
C2838 C2839 1.400 . S
C2839 C2838 1.400 . S
C2839 C2840 1.398 . S
C2839 C2845 1.491 . S
C2840 H2831 0.950 . S
C2840 C2839 1.398 . S
C2840 C2841 1.391 . S
C2841 H2829 0.950 . S
C2841 C2837 1.393 . S
C2841 C2840 1.391 . S
C2842 H2832 0.950 . S
C2842 C2843 1.386 . S
C2842 C2844 1.391 . S
C2843 C2842 1.386 . S
C2843 C2847 1.393 . S
C2844 H2833 0.950 . S
C2844 C2842 1.391 . S
C2844 C2845 1.400 . S
C2845 C2839 1.491 . S
C2845 C2844 1.400 . S
C2845 C2846 1.398 . S
C2846 H2834 0.950 . S
C2846 C2845 1.398 . S
C2846 C2847 1.391 . S
C2847 H2835 0.950 . S
C2847 C2843 1.393 . S
C2847 C2846 1.391 . S
H2848 C2856 0.950 . S
H2849 C2861 0.950 . S
H2850 C2858 0.950 . S
H2851 C2860 0.950 . S
H2852 C2862 0.950 . S
H2853 C2864 0.950 . S
H2854 C2866 0.950 . S
H2855 C2867 0.950 . S
C2856 H2848 0.950 . S
C2856 C2857 1.386 . S
C2856 C2858 1.391 . S
C2857 C2856 1.386 . S
C2857 C2861 1.393 . S
C2858 H2850 0.950 . S
C2858 C2856 1.391 . S
C2858 C2859 1.400 . S
C2859 C2858 1.400 . S
C2859 C2860 1.398 . S
C2859 C2865 1.491 . S
C2860 H2851 0.950 . S
C2860 C2859 1.398 . S
C2860 C2861 1.391 . S
C2861 H2849 0.950 . S
C2861 C2857 1.393 . S
C2861 C2860 1.391 . S
C2862 H2852 0.950 . S
C2862 C2863 1.386 . S
C2862 C2864 1.391 . S
C2863 C2862 1.386 . S
C2863 C2867 1.393 . S
C2864 H2853 0.950 . S
C2864 C2862 1.391 . S
C2864 C2865 1.400 . S
C2865 C2859 1.491 . S
C2865 C2864 1.400 . S
C2865 C2866 1.398 . S
C2866 H2854 0.950 . S
C2866 C2865 1.398 . S
C2866 C2867 1.391 . S
C2867 H2855 0.950 . S
C2867 C2863 1.393 . S
C2867 C2866 1.391 . S
H2868 C2876 0.950 . S
H2869 C2881 0.950 . S
H2870 C2878 0.950 . S
H2871 C2880 0.950 . S
H2872 C2882 0.950 . S
H2873 C2884 0.950 . S
H2874 C2886 0.950 . S
H2875 C2887 0.950 . S
C2876 H2868 0.950 . S
C2876 C2877 1.386 . S
C2876 C2878 1.391 . S
C2877 C2876 1.386 . S
C2877 C2881 1.393 . S
C2878 H2870 0.950 . S
C2878 C2876 1.391 . S
C2878 C2879 1.400 . S
C2879 C2878 1.400 . S
C2879 C2880 1.398 . S
C2879 C2885 1.491 . S
C2880 H2871 0.950 . S
C2880 C2879 1.398 . S
C2880 C2881 1.391 . S
C2881 H2869 0.950 . S
C2881 C2877 1.393 . S
C2881 C2880 1.391 . S
C2882 H2872 0.950 . S
C2882 C2883 1.386 . S
C2882 C2884 1.391 . S
C2883 C2882 1.386 . S
C2883 C2887 1.393 . S
C2884 H2873 0.950 . S
C2884 C2882 1.391 . S
C2884 C2885 1.400 . S
C2885 C2879 1.491 . S
C2885 C2884 1.400 . S
C2885 C2886 1.398 . S
C2886 H2874 0.950 . S
C2886 C2885 1.398 . S
C2886 C2887 1.391 . S
C2887 H2875 0.950 . S
C2887 C2883 1.393 . S
C2887 C2886 1.391 . S
H2888 C2896 0.950 . S
H2889 C2901 0.950 . S
H2890 C2898 0.950 . S
H2891 C2900 0.950 . S
H2892 C2902 0.950 . S
H2893 C2904 0.950 . S
H2894 C2906 0.950 . S
H2895 C2907 0.950 . S
C2896 H2888 0.950 . S
C2896 C2897 1.386 . S
C2896 C2898 1.391 . S
C2897 C2896 1.386 . S
C2897 C2901 1.393 . S
C2898 H2890 0.950 . S
C2898 C2896 1.391 . S
C2898 C2899 1.400 . S
C2899 C2898 1.400 . S
C2899 C2900 1.398 . S
C2899 C2905 1.491 . S
C2900 H2891 0.950 . S
C2900 C2899 1.398 . S
C2900 C2901 1.391 . S
C2901 H2889 0.950 . S
C2901 C2897 1.393 . S
C2901 C2900 1.391 . S
C2902 H2892 0.950 . S
C2902 C2903 1.386 . S
C2902 C2904 1.391 . S
C2903 C2902 1.386 . S
C2903 C2907 1.393 . S
C2904 H2893 0.950 . S
C2904 C2902 1.391 . S
C2904 C2905 1.400 . S
C2905 C2899 1.491 . S
C2905 C2904 1.400 . S
C2905 C2906 1.398 . S
C2906 H2894 0.950 . S
C2906 C2905 1.398 . S
C2906 C2907 1.391 . S
C2907 H2895 0.950 . S
C2907 C2903 1.393 . S
C2907 C2906 1.391 . S
H2908 C2916 0.950 . S
H2909 C2921 0.950 . S
H2910 C2918 0.950 . S
H2911 C2920 0.950 . S
H2912 C2922 0.950 . S
H2913 C2924 0.950 . S
H2914 C2926 0.950 . S
H2915 C2927 0.950 . S
C2916 H2908 0.950 . S
C2916 C2917 1.386 . S
C2916 C2918 1.391 . S
C2917 C2916 1.386 . S
C2917 C2921 1.393 . S
C2918 H2910 0.950 . S
C2918 C2916 1.391 . S
C2918 C2919 1.400 . S
C2919 C2918 1.400 . S
C2919 C2920 1.398 . S
C2919 C2925 1.491 . S
C2920 H2911 0.950 . S
C2920 C2919 1.398 . S
C2920 C2921 1.391 . S
C2921 H2909 0.950 . S
C2921 C2917 1.393 . S
C2921 C2920 1.391 . S
C2922 H2912 0.950 . S
C2922 C2923 1.386 . S
C2922 C2924 1.391 . S
C2923 C2922 1.386 . S
C2923 C2927 1.393 . S
C2924 H2913 0.950 . S
C2924 C2922 1.391 . S
C2924 C2925 1.400 . S
C2925 C2919 1.491 . S
C2925 C2924 1.400 . S
C2925 C2926 1.398 . S
C2926 H2914 0.950 . S
C2926 C2925 1.398 . S
C2926 C2927 1.391 . S
C2927 H2915 0.950 . S
C2927 C2923 1.393 . S
C2927 C2926 1.391 . S
H2928 C2936 0.950 . S
H2929 C2941 0.950 . S
H2930 C2938 0.950 . S
H2931 C2940 0.950 . S
H2932 C2942 0.950 . S
H2933 C2944 0.950 . S
H2934 C2946 0.950 . S
H2935 C2947 0.950 . S
C2936 H2928 0.950 . S
C2936 C2937 1.386 . S
C2936 C2938 1.391 . S
C2937 C2936 1.386 . S
C2937 C2941 1.393 . S
C2938 H2930 0.950 . S
C2938 C2936 1.391 . S
C2938 C2939 1.400 . S
C2939 C2938 1.400 . S
C2939 C2940 1.398 . S
C2939 C2945 1.491 . S
C2940 H2931 0.950 . S
C2940 C2939 1.398 . S
C2940 C2941 1.391 . S
C2941 H2929 0.950 . S
C2941 C2937 1.393 . S
C2941 C2940 1.391 . S
C2942 H2932 0.950 . S
C2942 C2943 1.386 . S
C2942 C2944 1.391 . S
C2943 C2942 1.386 . S
C2943 C2947 1.393 . S
C2944 H2933 0.950 . S
C2944 C2942 1.391 . S
C2944 C2945 1.400 . S
C2945 C2939 1.491 . S
C2945 C2944 1.400 . S
C2945 C2946 1.398 . S
C2946 H2934 0.950 . S
C2946 C2945 1.398 . S
C2946 C2947 1.391 . S
C2947 H2935 0.950 . S
C2947 C2943 1.393 . S
C2947 C2946 1.391 . S
H2948 C2956 0.950 . S
H2949 C2961 0.950 . S
H2950 C2958 0.950 . S
H2951 C2960 0.950 . S
H2952 C2962 0.950 . S
H2953 C2964 0.950 . S
H2954 C2966 0.950 . S
H2955 C2967 0.950 . S
C2956 H2948 0.950 . S
C2956 C2957 1.386 . S
C2956 C2958 1.391 . S
C2957 C2956 1.386 . S
C2957 C2961 1.393 . S
C2958 H2950 0.950 . S
C2958 C2956 1.391 . S
C2958 C2959 1.400 . S
C2959 C2958 1.400 . S
C2959 C2960 1.398 . S
C2959 C2965 1.491 . S
C2960 H2951 0.950 . S
C2960 C2959 1.398 . S
C2960 C2961 1.391 . S
C2961 H2949 0.950 . S
C2961 C2957 1.393 . S
C2961 C2960 1.391 . S
C2962 H2952 0.950 . S
C2962 C2963 1.386 . S
C2962 C2964 1.391 . S
C2963 C2962 1.386 . S
C2963 C2967 1.393 . S
C2964 H2953 0.950 . S
C2964 C2962 1.391 . S
C2964 C2965 1.400 . S
C2965 C2959 1.491 . S
C2965 C2964 1.400 . S
C2965 C2966 1.398 . S
C2966 H2954 0.950 . S
C2966 C2965 1.398 . S
C2966 C2967 1.391 . S
C2967 H2955 0.950 . S
C2967 C2963 1.393 . S
C2967 C2966 1.391 . S
H2968 C2976 0.950 . S
H2969 C2981 0.950 . S
H2970 C2978 0.950 . S
H2971 C2980 0.950 . S
H2972 C2982 0.950 . S
H2973 C2984 0.950 . S
H2974 C2986 0.950 . S
H2975 C2987 0.950 . S
C2976 H2968 0.950 . S
C2976 C2977 1.386 . S
C2976 C2978 1.391 . S
C2977 C2976 1.386 . S
C2977 C2981 1.393 . S
C2978 H2970 0.950 . S
C2978 C2976 1.391 . S
C2978 C2979 1.400 . S
C2979 C2978 1.400 . S
C2979 C2980 1.398 . S
C2979 C2985 1.491 . S
C2980 H2971 0.950 . S
C2980 C2979 1.398 . S
C2980 C2981 1.391 . S
C2981 H2969 0.950 . S
C2981 C2977 1.393 . S
C2981 C2980 1.391 . S
C2982 H2972 0.950 . S
C2982 C2983 1.386 . S
C2982 C2984 1.391 . S
C2983 C2982 1.386 . S
C2983 C2987 1.393 . S
C2984 H2973 0.950 . S
C2984 C2982 1.391 . S
C2984 C2985 1.400 . S
C2985 C2979 1.491 . S
C2985 C2984 1.400 . S
C2985 C2986 1.398 . S
C2986 H2974 0.950 . S
C2986 C2985 1.398 . S
C2986 C2987 1.391 . S
C2987 H2975 0.950 . S
C2987 C2983 1.393 . S
C2987 C2986 1.391 . S
C1197 C536 1.479 . S
C1203 C28 1.474 . S
C1217 C61 1.470 . S
C1223 C569 1.485 . S
C1237 C503 1.479 . S
C1243 C94 1.480 . S
C1257 C107 1.485 . S
C1263 C886 1.471 . S
C1277 C820 1.466 . S
C1283 C140 1.484 . S
C1297 C173 1.481 . S
C1303 C853 1.478 . S
C1317 C226 1.570 . S
C1323 C1150 1.565 . S
C1337 C259 1.565 . S
C1343 C1183 1.563 . S
C1357 C292 1.567 . S
C1363 C1117 1.561 . S
C1377 C325 1.572 . S
C1383 C688 1.561 . S
C1397 C358 1.559 . S
C1403 C622 1.571 . S
C1417 C391 1.569 . S
C1423 C655 1.560 . S
C1437 C424 1.467 . S
C1443 C932 1.486 . S
C1457 C965 1.478 . S
C1463 C457 1.479 . S
C1477 C899 1.481 . S
C1483 C490 1.478 . S
C1497 C1084 1.572 . S
C1503 C721 1.561 . S
C1517 C1018 1.572 . S
C1523 C754 1.560 . S
C1537 C787 1.564 . S
C1543 C1051 1.571 . S
C1557 N962 1.504 . S
C1563 N14 1.471 . S
C1577 N47 1.483 . S
C1583 N896 1.494 . S
C1597 N80 1.462 . S
C1603 N929 1.509 . S
C1617 N104 1.492 . S
C1623 N443 1.482 . S
C1637 N137 1.497 . S
C1643 N476 1.480 . S
C1657 N410 1.475 . S
C1663 N170 1.501 . S
C1677 N773 1.505 . S
C1683 N212 1.536 . S
C1697 N245 1.513 . S
C1703 N707 1.525 . S
C1717 N278 1.524 . S
C1723 N740 1.523 . S
C1737 N1037 1.528 . S
C1743 N311 1.506 . S
C1757 N1070 1.513 . S
C1763 N344 1.526 . S
C1777 N1004 1.532 . S
C1783 N377 1.504 . S
C1797 N500 1.499 . S
C1803 N839 1.468 . S
C1817 N533 1.505 . S
C1823 N872 1.462 . S
C1837 N566 1.492 . S
C1843 N806 1.483 . S
C1857 N608 1.513 . S
C1863 N1169 1.528 . S
C1877 N1103 1.523 . S
C1883 N641 1.524 . S
C1897 N674 1.520 . S
C1903 N1136 1.527 . S
C1917 C17 1.289 . S
C1923 C611 1.289 . S
C1937 C50 1.292 . S
C1943 C644 1.292 . S
C1957 C677 1.291 . S
C1963 C83 1.291 . S
C1977 C116 1.259 . S
C1983 C1106 1.267 . S
C1997 C149 1.248 . S
C2003 C1139 1.251 . S
C2017 C182 1.257 . S
C2023 C1172 1.259 . S
C2037 C809 1.295 . S
C2043 C215 1.295 . S
C2057 C248 1.288 . S
C2063 C842 1.288 . S
C2077 C875 1.286 . S
C2083 C281 1.286 . S
C2097 C512 1.244 . S
C2103 C314 1.249 . S
C2117 C545 1.260 . S
C2123 C347 1.262 . S
C2137 C380 1.249 . S
C2143 C578 1.239 . S
C2157 C1007 1.296 . S
C2163 C413 1.296 . S
C2177 C1040 1.284 . S
C2183 C446 1.285 . S
C2197 C479 1.284 . S
C2203 C1073 1.284 . S
C2217 C908 1.262 . S
C2223 C710 1.267 . S
C2237 C743 1.251 . S
C2243 C941 1.248 . S
C2257 C974 1.254 . S
C2263 C776 1.255 . S
C2277 N5 1.394 . S
C2283 C239 1.386 . S
C2297 N38 1.397 . S
C2303 C272 1.393 . S
C2317 C206 1.395 . S
C2323 N71 1.395 . S
C2337 C371 1.421 . S
C2343 N113 1.404 . S
C2357 C305 1.421 . S
C2363 N146 1.403 . S
C2377 C338 1.421 . S
C2383 N179 1.400 . S
C2397 C41 1.456 . S
C2403 N203 1.458 . S
C2417 C74 1.447 . S
C2423 N236 1.446 . S
C2437 C8 1.455 . S
C2443 N269 1.459 . S
C2457 N302 1.386 . S
C2463 C193 1.363 . S
C2477 N335 1.386 . S
C2483 C127 1.378 . S
C2497 C160 1.367 . S
C2503 N368 1.388 . S
C2517 C635 1.381 . S
C2523 N401 1.388 . S
C2537 N434 1.396 . S
C2543 C668 1.390 . S
C2557 C602 1.391 . S
C2563 N467 1.388 . S
C2577 C767 1.408 . S
C2583 N509 1.415 . S
C2597 N542 1.402 . S
C2603 C701 1.409 . S
C2617 N575 1.406 . S
C2623 C734 1.421 . S
C2637 N599 1.458 . S
C2643 C437 1.455 . S
C2657 N632 1.446 . S
C2663 C470 1.443 . S
C2677 N665 1.448 . S
C2683 C404 1.451 . S
C2697 N698 1.379 . S
C2703 C589 1.359 . S
C2717 C523 1.366 . S
C2723 N731 1.388 . S
C2737 C556 1.374 . S
C2743 N764 1.381 . S
C2757 C1031 1.383 . S
C2763 N797 1.384 . S
C2777 C1064 1.382 . S
C2783 N830 1.390 . S
C2797 C998 1.394 . S
C2803 N863 1.392 . S
C2817 C1163 1.421 . S
C2823 N905 1.401 . S
C2837 N938 1.398 . S
C2843 C1097 1.414 . S
C2857 C1130 1.420 . S
C2863 N971 1.398 . S
C2877 C833 1.456 . S
C2883 N995 1.458 . S
C2897 C866 1.452 . S
C2903 N1028 1.449 . S
C2917 C800 1.443 . S
C2923 N1061 1.446 . S
C2937 N1094 1.385 . S
C2943 C985 1.378 . S
C2957 N1127 1.387 . S
C2963 C919 1.379 . S
C2977 C952 1.363 . S
C2983 N1160 1.386 . S
