# Generated by pormake.
# Topology smc, (6)-cn, num edge types: 1
# Building blocks:
#     Node 0, Type 0, BuildingBlock: KUMBOL_clean_sbu_0, # of connection points: 6
#     Node 1, Type 0, BuildingBlock: KUMBOL_clean_sbu_0, # of connection points: 6
#     Node 2, Type 0, BuildingBlock: KUMBOL_clean_sbu_0, # of connection points: 6
#     Node 3, Type 0, BuildingBlock: KUMBOL_clean_sbu_0, # of connection points: 6
#     Node 4, Type 0, BuildingBlock: KUMBOL_clean_sbu_0, # of connection points: 6
#     Node 5, Type 0, BuildingBlock: KUMBOL_clean_sbu_0, # of connection points: 6
#     Node 6, Type 0, BuildingBlock: KUMBOL_clean_sbu_0, # of connection points: 6
#     Node 7, Type 0, BuildingBlock: KUMBOL_clean_sbu_0, # of connection points: 6
#     Node 8, Type 0, BuildingBlock: KUMBOL_clean_sbu_0, # of connection points: 6
#     Edge 9, Type (0, 0), BuildingBlock: CIFDUS_clean_linker_0, # of connection points: 2
#     Edge 10, Type (0, 0), BuildingBlock: CIFDUS_clean_linker_0, # of connection points: 2
#     Edge 11, Type (0, 0), BuildingBlock: CIFDUS_clean_linker_0, # of connection points: 2
#     Edge 12, Type (0, 0), BuildingBlock: CIFDUS_clean_linker_0, # of connection points: 2
#     Edge 13, Type (0, 0), BuildingBlock: CIFDUS_clean_linker_0, # of connection points: 2
#     Edge 14, Type (0, 0), BuildingBlock: CIFDUS_clean_linker_0, # of connection points: 2
#     Edge 15, Type (0, 0), BuildingBlock: CIFDUS_clean_linker_0, # of connection points: 2
#     Edge 16, Type (0, 0), BuildingBlock: CIFDUS_clean_linker_0, # of connection points: 2
#     Edge 17, Type (0, 0), BuildingBlock: CIFDUS_clean_linker_0, # of connection points: 2
#     Edge 18, Type (0, 0), BuildingBlock: CIFDUS_clean_linker_0, # of connection points: 2
#     Edge 19, Type (0, 0), BuildingBlock: CIFDUS_clean_linker_0, # of connection points: 2
#     Edge 20, Type (0, 0), BuildingBlock: CIFDUS_clean_linker_0, # of connection points: 2
#     Edge 21, Type (0, 0), BuildingBlock: CIFDUS_clean_linker_0, # of connection points: 2
#     Edge 22, Type (0, 0), BuildingBlock: CIFDUS_clean_linker_0, # of connection points: 2
#     Edge 23, Type (0, 0), BuildingBlock: CIFDUS_clean_linker_0, # of connection points: 2
#     Edge 24, Type (0, 0), BuildingBlock: CIFDUS_clean_linker_0, # of connection points: 2
#     Edge 25, Type (0, 0), BuildingBlock: CIFDUS_clean_linker_0, # of connection points: 2
#     Edge 26, Type (0, 0), BuildingBlock: CIFDUS_clean_linker_0, # of connection points: 2
#     Edge 27, Type (0, 0), BuildingBlock: CIFDUS_clean_linker_0, # of connection points: 2
#     Edge 28, Type (0, 0), BuildingBlock: CIFDUS_clean_linker_0, # of connection points: 2
#     Edge 29, Type (0, 0), BuildingBlock: CIFDUS_clean_linker_0, # of connection points: 2
#     Edge 30, Type (0, 0), BuildingBlock: CIFDUS_clean_linker_0, # of connection points: 2
#     Edge 31, Type (0, 0), BuildingBlock: CIFDUS_clean_linker_0, # of connection points: 2
#     Edge 32, Type (0, 0), BuildingBlock: CIFDUS_clean_linker_0, # of connection points: 2
#     Edge 33, Type (0, 0), BuildingBlock: CIFDUS_clean_linker_0, # of connection points: 2
#     Edge 34, Type (0, 0), BuildingBlock: CIFDUS_clean_linker_0, # of connection points: 2
#     Edge 35, Type (0, 0), BuildingBlock: CIFDUS_clean_linker_0, # of connection points: 2
# Relax obj value: 0.111
# Max RMSD: 0.294
# Mean RMSD: 0.294
data_MOF--net-smc--node1-KUMBOL_clean_sbu_0--edge1-CIFDUS_clean_linker_0
_symmetry_space_group_name_H-M    P1
_symmetry_Int_Tables_number       1
_symmetry_cell_setting            triclinic
loop_
_symmetry_equiv_pos_as_xyz
'x, y, z'
_cell_length_a     34.02967
_cell_length_b     34.009016
_cell_length_c     35.383249
_cell_angle_alpha  89.997734
_cell_angle_beta   90.015939
_cell_angle_gamma 119.92594
loop_
_atom_site_label
_atom_site_type_symbol
_atom_site_fract_x
_atom_site_fract_y
_atom_site_fract_z
_atom_type_partial_charge
Gd0 Gd 1.00333 0.39564 0.00923 0.0
Gd1 Gd 0.079 0.51521 0.98277 0.0
C2 C 1.0238 0.60872 0.0133 0.0
C3 C 1.01484 0.63435 0.95152 0.0
C4 C 0.04254 0.58091 0.95677 0.0
C5 C 0.03915 0.5814 0.99597 0.0
C6 C 0.03149 0.60838 0.93433 0.0
C7 C 1.01101 0.63452 0.99087 0.0
C8 C 1.02185 0.6095 0.05275 0.0
C9 C 0.03504 0.58354 0.07404 0.0
N10 N 0.0512 0.55565 0.01716 0.0
C11 C 0.04974 0.55675 0.05577 0.0
H12 H 0.05907 0.53666 0.07295 0.0
C13 C 0.06979 0.56041 0.90316 0.0
N14 N 0.05853 0.55534 0.94066 0.0
C15 C 0.05903 0.58679 0.87978 0.0
C16 C 0.03897 0.61021 0.89532 0.0
H17 H 0.08691 0.54373 0.89125 0.0
H18 H 0.99858 0.65515 1.00374 0.0
H19 H 0.04944 0.35935 0.94346 0.0
H20 H 1.01013 0.62994 0.06704 0.0
H21 H 0.03354 0.58386 0.10458 0.0
H22 H 1.0057 0.65518 0.93466 0.0
H23 H 0.95715 0.37833 0.09579 0.0
H24 H 0.09365 0.27599 0.99798 0.0
H25 H 0.08645 0.31307 0.94033 0.0
H26 H 0.04199 0.26624 0.12551 0.0
H27 H 0.06682 0.58957 0.84991 0.0
H28 H 0.031 0.63097 0.87719 0.0
H29 H 0.07724 0.259 0.06715 0.0
H30 H 0.95626 0.33945 0.15504 0.0
N31 N 0.03661 0.34976 1.00261 0.0
C32 C 0.07732 0.29633 0.99957 0.0
C33 C 0.0733 0.31718 0.96697 0.0
C34 C 0.05936 0.30118 0.03368 0.0
C35 C 0.03854 0.32811 0.03422 0.0
C36 C 0.05228 0.34349 0.96891 0.0
N37 N 0.99857 0.35793 0.06636 0.0
C38 C 1.01879 0.33217 0.06707 0.0
C39 C 0.9742 0.33735 0.13057 0.0
C40 C 0.99701 0.3128 0.1324 0.0
C41 C 0.97473 0.3593 0.09697 0.0
C42 C 1.01913 0.30941 0.10027 0.0
H43 H 0.99663 0.29593 0.1585 0.0
O44 O 0.93022 0.36523 0.0144 0.0
O45 O 1.00867 0.46164 0.99448 0.0
O46 O 0.09593 0.50187 0.04423 0.0
O47 O 0.04808 0.42494 0.05941 0.0
O48 O 0.96764 0.42758 0.03987 0.0
O49 O 0.95786 0.33413 0.97799 0.0
O50 O 0.14713 0.54859 0.95997 0.0
O51 O 0.07516 0.44961 0.99476 0.0
O52 O 1.00889 0.40144 0.94603 0.0
O53 O 0.0345 0.47748 0.93114 0.0
O54 O 0.11092 0.48417 0.9471 0.0
O55 O 0.1297 0.58468 1.00011 0.0
C56 C 0.98171 0.4626 0.01835 0.0
C57 C 0.04097 0.28362 0.10018 0.0
C58 C 0.06105 0.27952 0.06696 0.0
C59 C 0.92116 0.33118 0.99236 0.0
C60 C 0.88563 0.28642 1.00609 0.0
C61 C 0.89654 0.26084 0.03056 0.0
C62 C 0.83982 0.2704 0.99658 0.0
C63 C 0.80508 0.22965 0.01225 0.0
C64 C 0.86231 0.22033 0.04591 0.0
C65 C 0.8169 0.20496 0.0371 0.0
C66 C 0.08111 0.46606 0.0677 0.0
C67 C 0.10173 0.45013 0.96906 0.0
C68 C 0.15948 0.58775 0.97547 0.0
C69 C 0.18084 0.62823 0.94973 0.0
C70 C 0.18498 0.62107 0.91109 0.0
C71 C 0.19898 0.67376 0.96285 0.0
C72 C 0.22035 0.71099 0.9372 0.0
C73 C 0.20621 0.65721 0.88619 0.0
C74 C 0.22396 0.70144 0.89899 0.0
C75 C 1.0138 0.43342 0.9222 0.0
H76 H 0.93141 0.27235 0.03809 0.0
H77 H 0.83114 0.29013 0.97783 0.0
H78 H 0.87099 0.20089 0.06492 0.0
H79 H 0.79095 0.17343 0.04937 0.0
H80 H 0.17224 0.58727 0.89978 0.0
H81 H 0.19631 0.68005 0.99248 0.0
H82 H 0.20942 0.65089 0.85667 0.0
H83 H 0.24138 0.72846 0.8786 0.0
Gd84 Gd 0.67872 0.61671 0.01651 0.0
Gd85 Gd 0.55607 0.56279 0.99932 0.0
C86 C 0.47769 0.42461 0.05786 0.0
C87 C 0.4405 0.37416 1.00495 0.0
C88 C 0.49226 0.45473 0.9941 0.0
C89 C 0.49982 0.46158 0.03262 0.0
C90 C 0.46264 0.41079 0.9799 0.0
C91 C 0.44788 0.38108 0.04384 0.0
C92 C 0.48677 0.4322 0.09648 0.0
C93 C 0.51815 0.47546 0.10911 0.0
N94 N 0.52966 0.50399 0.04537 0.0
C95 C 0.53954 0.51096 0.08318 0.0
H96 H 0.56446 0.54329 0.09406 0.0
C97 C 0.50618 0.48516 0.93235 0.0
N98 N 0.51429 0.49074 0.97046 0.0
C99 C 0.47781 0.44223 0.91702 0.0
C100 C 0.45608 0.40482 0.94087 0.0
H101 H 0.52006 0.51399 0.91352 0.0
H102 H 0.43089 0.35239 0.06281 0.0
H103 H 0.70166 0.69238 0.94656 0.0
H104 H 0.47057 0.4047 0.11666 0.0
H105 H 0.52626 0.48147 0.13889 0.0
H106 H 0.41777 0.34026 0.9945 0.0
H107 H 0.70386 0.59756 0.1037 0.0
H108 H 0.78938 0.82509 0.99055 0.0
H109 H 0.74512 0.77505 0.93758 0.0
H110 H 0.81762 0.79676 0.11756 0.0
H111 H 0.47193 0.43821 0.88685 0.0
H112 H 0.43377 0.37162 0.92893 0.0
H113 H 0.81621 0.83286 0.05769 0.0
H114 H 0.74944 0.64185 0.15855 0.0
N115 N 0.71973 0.69514 1.00455 0.0
C116 C 0.77017 0.7887 0.99476 0.0
C117 C 0.74525 0.76057 0.9648 0.0
C118 C 0.77071 0.76949 0.02959 0.0
C119 C 0.74502 0.72194 0.03362 0.0
C120 C 0.72051 0.71359 0.97008 0.0
N121 N 0.72054 0.65584 0.07029 0.0
C122 C 0.74585 0.70169 0.06736 0.0
C123 C 0.74853 0.6591 0.13314 0.0
C124 C 0.77308 0.70642 0.13122 0.0
C125 C 0.72277 0.63413 0.10205 0.0
C126 C 0.77234 0.7283 0.09794 0.0
H127 H 0.79292 0.72568 0.15539 0.0
O128 O 0.71707 0.58178 0.02381 0.0
O129 O 0.61439 0.55172 0.00633 0.0
O130 O 0.57442 0.60339 0.05612 0.0
O131 O 0.65283 0.63684 0.06647 0.0
O132 O 0.65495 0.55111 0.04939 0.0
O133 O 0.73662 0.63298 0.98037 0.0
O134 O 0.49412 0.55176 0.97073 0.0
O135 O 0.62001 0.62806 1.00297 0.0
O136 O 0.66767 0.61087 0.95422 0.0
O137 O 0.59048 0.56126 0.94309 0.0
O138 O 0.5768 0.62178 0.95975 0.0
O139 O 0.50915 0.57941 0.02693 0.0
C140 C 0.61889 0.5265 0.02991 0.0
C141 C 0.79731 0.77571 0.09429 0.0
C142 C 0.79646 0.79626 0.06021 0.0
C143 C 0.74676 0.60546 0.99801 0.0
C144 C 0.79463 0.62275 0.0085 0.0
C145 C 0.82311 0.66857 0.01791 0.0
C146 C 0.81154 0.59246 0.01082 0.0
C147 C 0.85621 0.60772 0.02313 0.0
C148 C 0.86757 0.68383 0.02979 0.0
C149 C 0.88398 0.6536 0.03264 0.0
C150 C 0.61221 0.6291 0.07632 0.0
C151 C 0.61345 0.65051 0.9773 0.0
C152 C 0.47821 0.56124 1.00071 0.0
C153 C 0.4321 0.52598 0.01373 0.0
C154 C 0.42845 0.49891 0.04495 0.0
C155 C 0.39169 0.51857 0.99569 0.0
C156 C 0.34852 0.48307 0.00803 0.0
C157 C 0.38697 0.46238 0.05548 0.0
C158 C 0.34761 0.45386 0.03676 0.0
C159 C 0.63388 0.58371 0.932 0.0
H160 H 0.81096 0.69249 0.01639 0.0
H161 H 0.78967 0.55691 1.00399 0.0
H162 H 0.88925 0.71916 0.03717 0.0
H163 H 0.91839 0.66596 0.04235 0.0
H164 H 0.45776 0.50577 0.06144 0.0
H165 H 0.39406 0.54101 0.97302 0.0
H166 H 0.38527 0.44071 0.07859 0.0
H167 H 0.31627 0.42444 0.04551 0.0
Gd168 Gd 0.44539 0.06337 0.01794 0.0
Gd169 Gd 0.49477 0.99279 0.99804 0.0
C170 C 0.64359 0.06636 0.03435 0.0
C171 C 0.68265 0.07614 0.97473 0.0
C172 C 0.60034 0.04133 0.97617 0.0
C173 C 0.60169 0.04682 0.01498 0.0
C174 C 0.64091 0.05581 0.95566 0.0
C175 C 0.68396 0.08116 0.014 0.0
C176 C 0.64376 0.07034 0.07366 0.0
C177 C 0.60288 0.05494 0.09278 0.0
N178 N 0.56208 0.03262 0.03392 0.0
C179 C 0.56225 0.03578 0.07246 0.0
H180 H 0.53135 0.02239 0.08806 0.0
C181 C 0.55678 1.01025 0.92093 0.0
N182 N 0.5594 0.02067 0.95859 0.0
C183 C 0.59601 0.02503 0.89929 0.0
C184 C 0.63834 0.04839 0.91666 0.0
H185 H 0.52425 0.9896 0.90751 0.0
H186 H 0.71638 0.09656 0.02839 0.0
H187 H 0.36775 0.02083 0.94525 0.0
H188 H 0.6752 0.08512 0.08949 0.0
H189 H 0.60254 0.05729 0.12327 0.0
H190 H 0.71408 0.08761 0.95941 0.0
H191 H 0.45795 0.10447 0.1073 0.0
H192 H 0.23659 0.94408 0.99403 0.0
H193 H 0.28617 0.97223 0.93796 0.0
H194 H 0.26205 0.97746 0.12574 0.0
H195 H 0.59352 1.01741 0.8694 0.0
H196 H 0.66871 0.05919 0.89995 0.0
H197 H 0.22811 0.94527 0.06406 0.0
H198 H 0.41137 0.0895 0.16453 0.0
N199 N 0.36649 1.02036 1.00579 0.0
C200 C 0.27285 0.96561 0.99769 0.0
C201 C 0.3007 0.98159 0.96598 0.0
C202 C 0.29184 0.97934 0.03363 0.0
C203 C 0.33934 1.00748 0.0369 0.0
C204 C 0.34751 1.00937 0.97047 0.0
N205 N 0.40376 0.0545 0.07394 0.0
C206 C 0.35845 0.02531 0.07186 0.0
C207 C 0.39609 0.07098 0.13876 0.0
C208 C 0.35017 0.03843 0.13791 0.0
C209 C 0.42228 0.07943 0.10618 0.0
C210 C 0.33055 1.01594 0.10404 0.0
H211 H 0.3299 0.03193 0.16321 0.0
O212 O 0.48155 0.13205 0.04034 0.0
O213 O 0.51006 0.06024 0.01941 0.0
O214 O 0.45549 0.97176 0.05448 0.0
O215 O 0.46132 0.0397 0.07209 0.0
O216 O 0.5111 0.11287 0.98943 0.0
O217 O 0.42631 0.11303 1.00057 0.0
O218 O 0.50167 0.93746 0.97272 0.0
O219 O 0.42882 0.99068 1.00619 0.0
O220 O 0.44472 0.05824 0.95527 0.0
O221 O 0.48995 0.02605 0.94169 0.0
O222 O 0.43409 0.95652 0.96015 0.0
O223 O 0.48782 0.93593 0.03171 0.0
C224 C 0.53532 0.09603 1.0009 0.0
C225 C 0.28379 0.9857 0.10118 0.0
C226 C 0.26449 0.96734 0.06607 0.0
C227 C 0.45792 0.14559 0.02094 0.0
C228 C 0.4478 0.17852 0.03935 0.0
C229 C 0.40744 0.16396 0.05952 0.0
C230 C 0.47977 0.22543 0.03728 0.0
C231 C 0.47186 0.25745 0.05603 0.0
C232 C 0.39925 0.19557 0.07781 0.0
C233 C 0.43123 0.24187 0.07632 0.0
C234 C 0.44929 0.99728 0.0795 0.0
C235 C 0.4058 0.96316 0.97979 0.0
C236 C 0.49981 0.91801 1.00478 0.0
C237 C 0.53789 0.90919 0.0136 0.0
C238 C 0.5723 0.93876 0.03824 0.0
C239 C 0.54065 0.87189 0.99835 0.0
C240 C 0.57828 0.86574 0.00706 0.0
C241 C 0.61027 0.93469 0.04498 0.0
C242 C 0.61371 0.89922 0.02908 0.0
C243 C 0.46781 0.04777 0.93143 0.0
H244 H 0.38242 0.12822 0.06129 0.0
H245 H 0.51118 0.23687 0.0219 0.0
H246 H 0.36808 0.18412 0.09346 0.0
H247 H 0.42419 0.26566 0.09097 0.0
H248 H 0.56996 0.96516 0.05273 0.0
H249 H 0.51329 0.84751 0.98074 0.0
H250 H 0.6371 0.95903 0.06303 0.0
H251 H 0.64435 0.89798 0.03463 0.0
Gd252 Gd 0.66025 0.73253 0.35241 0.0
Gd253 Gd 0.73016 0.85245 0.33193 0.0
C254 C 0.68419 0.93921 0.39624 0.0
C255 C 0.64821 0.95957 0.34694 0.0
C256 C 0.67727 0.90834 0.3331 0.0
C257 C 0.69192 0.91203 0.3703 0.0
C258 C 0.65499 0.93206 0.32133 0.0
C259 C 0.66272 0.96309 0.38427 0.0
C260 C 0.69743 0.94107 0.43381 0.0
C261 C 0.71801 0.9165 0.44495 0.0
N262 N 0.71171 0.88765 0.38163 0.0
C263 C 0.72545 0.89046 0.41848 0.0
H264 H 0.74333 0.87413 0.42848 0.0
C265 C 0.66806 0.87623 0.27225 0.0
N266 N 0.68298 0.88038 0.30891 0.0
C267 C 0.64552 0.89865 0.25977 0.0
C268 C 0.6391 0.92681 0.28429 0.0
H269 H 0.67407 0.85714 0.25126 0.0
H270 H 0.65652 0.98388 0.40388 0.0
H271 H 0.70461 0.70616 0.27798 0.0
H272 H 0.69185 0.96131 0.45446 0.0
H273 H 0.72889 0.91811 0.47394 0.0
H274 H 0.63099 0.97766 0.3383 0.0
H275 H 0.61417 0.69893 0.43864 0.0
H276 H 0.759 0.62437 0.31755 0.0
H277 H 0.74367 0.66314 0.26533 0.0
H278 H 0.71504 0.59942 0.4478 0.0
H279 H 0.6338 0.89479 0.23083 0.0
H280 H 0.62166 0.9442 0.27439 0.0
H281 H 0.74908 0.60165 0.38593 0.0
H282 H 0.61861 0.65502 0.49244 0.0
N283 N 0.69781 0.69233 0.33705 0.0
C284 C 0.74159 0.64308 0.32333 0.0
C285 C 0.73291 0.66484 0.29378 0.0
C286 C 0.72613 0.64426 0.3597 0.0
C287 C 0.70337 0.66886 0.36562 0.0
C288 C 0.71073 0.68932 0.30113 0.0
N289 N 0.65991 0.68905 0.40433 0.0
C290 C 0.68378 0.66709 0.40031 0.0
C291 C 0.63741 0.65848 0.46681 0.0
C292 C 0.66409 0.63799 0.46397 0.0
C293 C 0.63503 0.68337 0.43632 0.0
C294 C 0.68697 0.64138 0.43019 0.0
H295 H 0.66576 0.61861 0.48761 0.0
O296 O 0.58706 0.7031 0.35806 0.0
O297 O 0.65992 0.79798 0.34409 0.0
O298 O 0.75639 0.83261 0.38588 0.0
O299 O 0.70375 0.75813 0.40345 0.0
O300 O 0.63039 0.76115 0.39323 0.0
O301 O 0.61331 0.66895 0.32425 0.0
O302 O 0.76834 0.91266 0.29753 0.0
O303 O 0.73197 0.78865 0.33763 0.0
O304 O 0.65912 0.74174 0.29001 0.0
O305 O 0.70557 0.81807 0.27418 0.0
O306 O 0.76879 0.83033 0.29409 0.0
O307 O 0.79492 0.90827 0.352 0.0
C308 C 0.63795 0.79615 0.37363 0.0
C309 C 0.71178 0.61894 0.42506 0.0
C310 C 0.73123 0.62028 0.38985 0.0
C311 C 0.57707 0.66735 0.33815 0.0
C312 C 0.54133 0.62373 0.35399 0.0
C313 C 0.55291 0.59636 0.3755 0.0
C314 C 0.49502 0.61018 0.34891 0.0
C315 C 0.46064 0.57003 0.36589 0.0
C316 C 0.51914 0.55661 0.39218 0.0
C317 C 0.47347 0.5436 0.3876 0.0
C318 C 0.74105 0.79691 0.40942 0.0
C319 C 0.76093 0.79392 0.3121 0.0
C320 C 0.80008 0.93361 0.32267 0.0
C321 C 0.8462 0.96531 0.30887 0.0
C322 C 0.86892 0.95031 0.28507 0.0
C323 C 0.86626 1.01207 0.31737 0.0
C324 C 0.90818 0.04383 0.30118 0.0
C325 C 0.91072 0.98154 0.26938 0.0
C326 C 0.93002 0.02791 0.27703 0.0
C327 C 0.67681 0.77494 0.26521 0.0
H328 H 0.58803 0.60576 0.37957 0.0
H329 H 0.48585 0.63122 0.33237 0.0
H330 H 0.52841 0.53574 0.40878 0.0
H331 H 0.44805 0.51233 0.40059 0.0
H332 H 0.85403 0.91464 0.27821 0.0
H333 H 0.84866 0.02384 0.33561 0.0
H334 H 0.92808 0.96981 0.25088 0.0
H335 H 0.96241 0.0514 0.26441 0.0
Gd336 Gd 0.32512 0.95041 0.35664 0.0
Gd337 Gd 0.20825 0.90627 0.32194 0.0
C338 C 0.12348 0.75832 0.35872 0.0
C339 C 0.10276 0.71906 0.29841 0.0
C340 C 0.1497 0.8014 0.3004 0.0
C341 C 0.14776 0.80029 0.33967 0.0
C342 C 0.12632 0.76075 0.27945 0.0
C343 C 0.10142 0.71784 0.33791 0.0
C344 C 0.12256 0.75812 0.39822 0.0
C345 C 0.14555 0.79898 0.41786 0.0
N346 N 0.17033 0.83993 0.35927 0.0
C347 C 0.16932 0.8397 0.39792 0.0
H348 H 0.18719 0.87043 0.41394 0.0
C349 C 0.17089 0.84476 0.24424 0.0
N350 N 0.17369 0.84205 0.28261 0.0
C351 C 0.14831 0.80549 0.22234 0.0
C352 C 0.12658 0.7632 0.23998 0.0
H353 H 0.1861 0.87743 0.23043 0.0
H354 H 0.08305 0.68538 0.35213 0.0
H355 H 0.37437 0.03797 0.2965 0.0
H356 H 0.10447 0.7266 0.41381 0.0
H357 H 0.14524 0.79914 0.44844 0.0
H358 H 0.08508 0.68754 0.28275 0.0
H359 H 0.32832 0.91338 0.44414 0.0
H360 H 0.44643 0.16034 0.36065 0.0
H361 H 0.42098 0.12135 0.29899 0.0
H362 H 0.4337 0.10673 0.48791 0.0
H363 H 0.14723 0.80791 0.19189 0.0
H364 H 0.10897 0.73278 0.22295 0.0
H365 H 0.45071 0.15455 0.43123 0.0
H366 H 0.35691 0.94558 0.50749 0.0
N367 N 0.37154 0.02978 0.35615 0.0
C368 C 0.42571 0.1237 0.35974 0.0
C369 C 0.41145 0.10183 0.32489 0.0
C370 C 0.4144 0.09791 0.3929 0.0
C371 C 0.38734 0.05034 0.39009 0.0
C372 C 0.38477 0.05452 0.3236 0.0
N373 N 0.35317 0.97777 0.41782 0.0
C374 C 0.37826 0.02353 0.4219 0.0
C375 C 0.36295 0.96787 0.48368 0.0
C376 C 0.38674 1.01488 0.4887 0.0
C377 C 0.3469 0.94975 0.44774 0.0
C378 C 0.39528 0.04336 0.45751 0.0
H379 H 0.39905 0.0288 0.51657 0.0
O380 O 0.35792 0.9103 0.366 0.0
O381 O 0.26236 0.89074 0.33538 0.0
O382 O 0.21604 0.93984 0.38147 0.0
O383 O 0.2897 0.96373 0.4036 0.0
O384 O 0.2915 0.87974 0.38212 0.0
O385 O 0.38908 0.96833 0.32882 0.0
O386 O 0.17229 0.9331 0.29047 0.0
O387 O 0.27234 0.96818 0.33757 0.0
O388 O 0.32576 0.95527 0.29307 0.0
O389 O 0.252 0.90553 0.27198 0.0
O390 O 0.23981 0.9708 0.28874 0.0
O391 O 0.13788 0.88727 0.33636 0.0
C392 C 0.2598 0.86048 0.35734 0.0
C393 C 0.42071 0.09081 0.46073 0.0
C394 C 0.43028 0.11803 0.42847 0.0
C395 C 0.39285 0.93586 0.34501 0.0
C396 C 0.43749 0.94726 0.36093 0.0
C397 C 0.46197 0.98634 0.38298 0.0
C398 C 0.45499 0.91775 0.35529 0.0
C399 C 0.49658 0.92702 0.3719 0.0
C400 C 0.50322 0.99594 0.39919 0.0
C401 C 0.5204 0.96663 0.39379 0.0
C402 C 0.24901 0.95875 0.40764 0.0
C403 C 0.27381 0.99414 0.31102 0.0
C404 C 0.13355 0.90851 0.30743 0.0
C405 C 0.09258 0.88396 0.28241 0.0
C406 C 0.0991 0.88596 0.24303 0.0
C407 C 0.04718 0.86115 0.29654 0.0
C408 C 1.00942 0.84047 0.27125 0.0
C409 C 0.06257 0.86607 0.21838 0.0
C410 C 1.0185 0.84404 0.23213 0.0
C411 C 0.29679 0.93068 0.26617 0.0
H412 H 0.44916 1.00934 0.38777 0.0
H413 H 0.43583 0.88722 0.33863 0.0
H414 H 0.52199 0.02627 0.41608 0.0
H415 H 0.55275 0.97533 0.40641 0.0
H416 H 0.13267 0.90385 0.23079 0.0
H417 H 0.0414 0.85967 0.32673 0.0
H418 H 0.06848 0.86848 0.18818 0.0
H419 H 0.99132 0.8307 0.21156 0.0
Gd420 Gd 0.10139 0.39338 0.34955 0.0
Gd421 Gd 0.17005 0.34051 0.32731 0.0
C422 C 0.30362 0.40009 0.39284 0.0
C423 C 0.35954 0.43346 0.34297 0.0
C424 C 0.27896 0.39992 0.32849 0.0
C425 C 0.26851 0.38832 0.36613 0.0
C426 C 0.32483 0.42291 0.31666 0.0
C427 C 0.34896 0.422 0.38095 0.0
C428 C 0.29234 0.39065 0.43098 0.0
C429 C 0.24724 0.37148 0.44195 0.0
N430 N 0.22435 0.3678 0.37702 0.0
C431 C 0.21371 0.36063 0.41464 0.0
H432 H 0.17987 0.34795 0.42454 0.0
C433 C 0.25457 0.39843 0.26575 0.0
N434 N 0.24456 0.38892 0.30347 0.0
C435 C 0.29941 0.42245 0.25315 0.0
C436 C 0.3347 0.43473 0.27867 0.0
H437 H 0.22878 0.38518 0.24422 0.0
H438 H 0.37616 0.43108 0.40107 0.0
H439 H 0.04108 0.35412 0.2683 0.0
H440 H 0.3183 0.39935 0.45227 0.0
H441 H 0.23822 0.36545 0.47157 0.0
H442 H 0.39478 0.45103 0.33429 0.0
H443 H 0.098 0.41613 0.44125 0.0
H444 H 0.90061 0.27889 0.29652 0.0
H445 H 0.9618 0.30799 0.24879 0.0
H446 H 0.89894 0.29997 0.43022 0.0
H447 H 0.30665 0.42987 0.22339 0.0
H448 H 0.36941 0.45262 0.26865 0.0
H449 H 0.87753 0.27582 0.36426 0.0
H450 H 0.04103 0.39547 0.49199 0.0
N451 N 1.02611 0.35114 0.32716 0.0
C452 C 0.93561 0.29932 0.30541 0.0
C453 C 0.97002 0.31577 0.2784 0.0
C454 C 0.94667 0.31044 0.34347 0.0
C455 C 0.99279 0.33706 0.35356 0.0
C456 C 1.01522 0.34218 0.28975 0.0
N457 N 0.04929 0.37699 0.39921 0.0
C458 C 1.00469 0.35075 0.39064 0.0
C459 C 1.03037 0.38261 0.46363 0.0
C460 C 0.98448 0.35402 0.45561 0.0
C461 C 0.06247 0.39439 0.43484 0.0
C462 C 0.97106 0.33811 0.4187 0.0
H463 H 0.95967 0.34484 0.47799 0.0
O464 O 0.09129 0.44164 0.31662 0.0
O465 O 0.17181 0.40492 0.34145 0.0
O466 O 0.12518 0.30502 0.38069 0.0
O467 O 0.08254 0.34034 0.3939 0.0
O468 O 0.16003 0.43163 0.3899 0.0
O469 O 0.11807 0.45883 0.37339 0.0
O470 O 0.181 0.29743 0.28837 0.0
O471 O 0.10008 0.32934 0.331 0.0
O472 O 0.11659 0.40357 0.28755 0.0
O473 O 0.16664 0.37716 0.27393 0.0
O474 O 0.11463 0.30148 0.28522 0.0
O475 O 0.17556 0.28258 0.34785 0.0
C476 C 0.19051 0.42954 0.36995 0.0
C477 C 0.92524 0.3104 0.409 0.0
C478 C 0.91307 0.29658 0.37147 0.0
C479 C 0.11053 0.47374 0.34192 0.0
C480 C 0.14831 0.5175 0.32865 0.0
C481 C 0.18346 0.51821 0.30737 0.0
C482 C 0.15091 0.55884 0.33876 0.0
C483 C 0.18784 0.60051 0.32663 0.0
C484 C 0.21974 0.55921 0.29505 0.0
C485 C 0.22189 0.60006 0.3044 0.0
C486 C 0.09521 0.31042 0.40165 0.0
C487 C 0.08261 0.30465 0.30195 0.0
C488 C 0.18539 0.27307 0.3147 0.0
C489 C 0.2261 0.26729 0.31204 0.0
C490 C 0.26625 0.30199 0.2961 0.0
C491 C 0.22517 0.22689 0.3237 0.0
C492 C 0.26443 0.22248 0.31988 0.0
C493 C 0.30551 0.29912 0.29478 0.0
C494 C 0.30485 0.26003 0.30696 0.0
C495 C 0.14361 0.39787 0.26437 0.0
H496 H 0.18309 0.48707 0.30046 0.0
H497 H 0.12442 0.55857 0.35596 0.0
H498 H 0.2466 0.55933 0.27857 0.0
H499 H 0.25092 0.63149 0.2951 0.0
H500 H 0.26742 0.33123 0.28379 0.0
H501 H 0.19384 0.19869 0.33415 0.0
H502 H 0.33637 0.32698 0.28331 0.0
H503 H 0.33594 0.2587 0.3051 0.0
Gd504 Gd 0.33279 0.05576 0.68206 0.0
Gd505 Gd 0.39931 0.17686 0.65843 0.0
C506 C 0.33279 0.26227 0.68051 0.0
C507 C 0.32355 0.28333 0.61693 0.0
C508 C 0.35802 0.23627 0.62673 0.0
C509 C 0.35178 0.23697 0.66552 0.0
C510 C 0.34542 0.26089 0.60226 0.0
C511 C 0.31735 0.28411 0.65598 0.0
C512 C 0.33105 0.26599 0.71978 0.0
C513 C 0.34926 0.246 0.74309 0.0
N514 N 0.36693 0.21545 0.68874 0.0
C515 C 0.36753 0.22105 0.72705 0.0
H516 H 0.38142 0.20588 0.74552 0.0
C517 C 0.39615 0.22264 0.57703 0.0
N518 N 0.38013 0.21514 0.61331 0.0
C519 C 0.3838 0.24601 0.55157 0.0
C520 C 0.3574 0.26433 0.56405 0.0
H521 H 0.41724 0.2091 0.56757 0.0
H522 H 0.30179 0.30283 0.667 0.0
H523 H 0.35922 1.0198 0.60228 0.0
H524 H 0.31667 0.28506 0.73233 0.0
H525 H 0.34893 0.2495 0.77347 0.0
H526 H 0.31296 0.30174 0.59846 0.0
H527 H 0.31772 0.04423 0.7759 0.0
H528 H 0.41142 0.93321 0.63325 0.0
H529 H 0.39061 0.9713 0.58411 0.0
H530 H 0.39831 0.9255 0.76827 0.0
H531 H 0.39501 0.25024 0.52248 0.0
H532 H 0.34834 0.28294 0.54438 0.0
H533 H 0.41443 0.91656 0.70201 0.0
H534 H 0.33235 1.00541 0.82846 0.0
N535 N 0.36249 1.01011 0.66144 0.0
C536 C 0.39752 0.95449 0.64149 0.0
C537 C 0.38576 0.97587 0.61368 0.0
C538 C 0.39036 0.96008 0.67958 0.0
C539 C 0.37213 0.98812 0.68877 0.0
C540 C 0.36795 1.00349 0.62419 0.0
N541 N 0.34466 1.01956 0.73385 0.0
C542 C 0.36267 0.99272 0.72607 0.0
C543 C 0.34099 1.00153 0.7998 0.0
C544 C 0.36083 0.97494 0.79243 0.0
C545 C 0.33266 0.02338 0.76997 0.0
C546 C 0.37167 0.97001 0.7552 0.0
H547 H 0.36741 0.95821 0.81562 0.0
O548 O 0.27934 1.00087 0.64958 0.0
O549 O 0.33158 0.12038 0.67505 0.0
O550 O 0.41138 0.161 0.72066 0.0
O551 O 0.39424 0.08573 0.71863 0.0
O552 O 0.30134 0.08353 0.72302 0.0
O553 O 0.26645 1.01287 0.70723 0.0
O554 O 0.47244 0.21036 0.64988 0.0
O555 O 0.40013 0.11252 0.66278 0.0
O556 O 0.32509 0.06386 0.61985 0.0
O557 O 0.35342 0.14106 0.60699 0.0
O558 O 0.42983 0.15117 0.61533 0.0
O559 O 0.44418 0.24835 0.67383 0.0
C560 C 0.3084 0.11834 0.70349 0.0
C561 C 0.3909 0.94301 0.74626 0.0
C562 C 0.40016 0.938 0.70853 0.0
C563 C 0.24877 0.99082 0.67593 0.0
C564 C 0.20593 0.98845 0.6641 0.0
C565 C 0.2074 0.02378 0.64253 0.0
C566 C 0.16345 0.95179 0.6751 0.0
C567 C 0.12275 0.94998 0.66358 0.0
C568 C 0.16741 0.02212 0.63105 0.0
C569 C 0.12543 0.98547 0.64125 0.0
C570 C 0.41342 0.12561 0.73527 0.0
C571 C 0.4227 0.11497 0.63341 0.0
C572 C 0.48011 0.25051 0.65924 0.0
C573 C 0.50691 0.28831 0.63209 0.0
C574 C 0.51339 0.27767 0.59504 0.0
C575 C 0.52626 0.33486 0.64243 0.0
C576 C 0.55105 0.36982 0.61559 0.0
C577 C 0.53809 0.31174 0.56892 0.0
C578 C 0.55677 0.35713 0.57899 0.0
C579 C 0.33061 0.09721 0.59727 0.0
H580 H 0.23955 0.05275 0.63458 0.0
H581 H 0.16207 0.92473 0.69225 0.0
H582 H 0.16896 0.04953 0.61435 0.0
H583 H 0.09492 0.98535 0.63232 0.0
H584 H 0.49941 0.24278 0.58604 0.0
H585 H 0.5215 0.3437 0.67081 0.0
H586 H 0.54291 0.30288 0.54059 0.0
H587 H 0.57631 0.38257 0.55791 0.0
Gd588 Gd 0.99548 0.2717 0.676 0.0
Gd589 Gd 0.87633 0.22796 0.65292 0.0
C590 C 0.78476 0.08526 0.6993 0.0
C591 C 0.75284 0.04186 0.64184 0.0
C592 C 0.80748 0.12278 0.63833 0.0
C593 C 0.8105 0.1249 0.67755 0.0
C594 C 0.77793 0.08127 0.62022 0.0
C595 C 0.75629 0.04384 0.68125 0.0
C596 C 0.78868 0.08819 0.73865 0.0
C597 C 0.8179 0.12975 0.7555 0.0
N598 N 0.83903 0.16532 0.69442 0.0
C599 C 0.84291 0.16807 0.73296 0.0
H600 H 0.86567 0.1992 0.74694 0.0
C601 C 0.82609 0.16125 0.57975 0.0
N602 N 0.83275 0.16116 0.61787 0.0
C603 C 0.79747 0.121 0.56061 0.0
C604 C 0.77379 0.08066 0.58087 0.0
H605 H 0.84268 0.1926 0.56397 0.0
H606 H 0.73672 1.0131 0.69755 0.0
H607 H 1.02646 0.35199 0.60868 0.0
H608 H 0.76966 0.05849 0.75624 0.0
H609 H 0.82149 0.13227 0.78594 0.0
H610 H 0.73037 1.0097 0.62835 0.0
H611 H 1.01915 0.24622 0.76137 0.0
H612 H 0.11007 0.48148 0.65986 0.0
H613 H 0.07038 0.43518 0.60379 0.0
H614 H 0.13068 0.44403 0.78613 0.0
H615 H 0.79319 0.12126 0.53032 0.0
H616 H 0.75142 0.04951 0.56599 0.0
H617 H 0.13234 0.48445 0.72793 0.0
H618 H 0.06231 0.28632 0.81855 0.0
N619 N 0.03876 0.35082 0.66759 0.0
C620 C 0.09038 0.44488 0.66233 0.0
C621 C 0.06804 0.41886 0.63062 0.0
C622 C 0.08823 0.42326 0.69653 0.0
C623 C 0.06199 0.37553 0.69825 0.0
C624 C 0.04289 0.3716 0.63361 0.0
N625 N 0.03601 0.30689 0.73146 0.0
C626 C 0.06105 0.35289 0.73105 0.0
C627 C 0.06199 0.30544 0.79422 0.0
C628 C 0.086 0.35282 0.79499 0.0
C629 C 0.03758 0.28285 0.76184 0.0
C630 C 0.08629 0.37716 0.76299 0.0
H631 H 0.10487 0.37024 0.82012 0.0
O632 O 1.02773 0.23046 0.68192 0.0
O633 O 0.92947 0.20998 0.66248 0.0
O634 O 0.89341 0.26594 0.71158 0.0
O635 O 0.96863 0.28798 0.72747 0.0
O636 O 0.96443 0.20489 0.70807 0.0
O637 O 0.05684 0.28791 0.64435 0.0
O638 O 0.84129 0.25713 0.62331 0.0
O639 O 0.94169 0.29108 0.66252 0.0
O640 O 0.9878 0.26912 0.6129 0.0
O641 O 0.91144 0.21795 0.60086 0.0
O642 O 0.90679 0.28733 0.61358 0.0
O643 O 0.80904 0.21494 0.67159 0.0
C644 C 0.9293 0.1829 0.6869 0.0
C645 C 0.11141 0.42475 0.76177 0.0
C646 C 0.11228 0.44776 0.72865 0.0
C647 C 0.06153 0.25561 0.65979 0.0
C648 C 0.10707 0.26725 0.67413 0.0
C649 C 0.13356 0.30803 0.6937 0.0
C650 C 0.12348 0.23651 0.66994 0.0
C651 C 0.16542 0.24615 0.68612 0.0
C652 C 0.17499 0.31772 0.70956 0.0
C653 C 0.19069 0.287 0.70605 0.0
C654 C 0.92935 0.28496 0.73514 0.0
C655 C 0.93968 0.31489 0.63533 0.0
C656 C 0.80398 0.23572 0.64268 0.0
C657 C 0.76085 0.2122 0.62031 0.0
C658 C 0.76339 0.21163 0.58064 0.0
C659 C 0.71731 0.19323 0.63745 0.0
C660 C 0.67712 0.17426 0.61497 0.0
C661 C 0.72447 0.19286 0.5586 0.0
C662 C 0.68204 0.17493 0.57534 0.0
C663 C 0.95489 0.24111 0.59023 0.0
H664 H 0.12218 0.33236 0.69692 0.0
H665 H 0.10334 0.20491 0.65486 0.0
H666 H 0.19502 0.34921 0.72474 0.0
H667 H 0.22307 0.29547 0.71851 0.0
H668 H 0.79568 0.22667 0.56619 0.0
H669 H 0.71497 0.19382 0.66793 0.0
H670 H 0.72729 0.19328 0.5281 0.0
H671 H 0.65317 0.16303 0.55664 0.0
Gd672 Gd 0.7693 0.72369 0.68881 0.0
Gd673 Gd 0.82734 0.66281 0.65791 0.0
C674 C 0.9766 0.74157 0.691 0.0
C675 C 1.0137 0.76108 0.62975 0.0
C676 C 0.93125 0.71834 0.63365 0.0
C677 C 0.93387 0.71964 0.67295 0.0
C678 C 0.97131 0.73827 0.61178 0.0
C679 C 1.01634 0.76269 0.66922 0.0
C680 C 0.97822 0.74207 0.73051 0.0
C681 C 0.93794 0.72122 0.75113 0.0
N682 N 0.89485 0.69991 0.69353 0.0
C683 C 0.89638 0.70017 0.73216 0.0
H684 H 0.86587 0.68456 0.74872 0.0
C685 C 0.8864 0.68847 0.57869 0.0
N686 N 0.88983 0.69654 0.61679 0.0
C687 C 0.92505 0.70801 0.55588 0.0
C688 C 0.96768 0.73372 0.57243 0.0
H689 H 0.85354 0.66736 0.56584 0.0
H690 H 0.04934 0.78018 0.68266 0.0
H691 H 0.6828 0.66525 0.62854 0.0
H692 H 1.01035 0.75868 0.74536 0.0
H693 H 0.93887 0.72152 0.78171 0.0
H694 H 0.04473 0.777 0.61336 0.0
H695 H 0.80048 0.77429 0.77367 0.0
H696 H 0.55896 0.60678 0.69114 0.0
H697 H 0.59973 0.6178 0.63072 0.0
H698 H 0.60683 0.66784 0.81554 0.0
H699 H 0.92198 0.70276 0.52561 0.0
H700 H 0.99764 0.74858 0.55471 0.0
H701 H 0.56196 0.62564 0.76008 0.0
H702 H 0.76515 0.77234 0.8351 0.0
N703 N 0.68974 0.67923 0.68757 0.0
C704 C 0.5956 0.62734 0.69046 0.0
C705 C 0.61847 0.63351 0.65631 0.0
C706 C 0.62016 0.64893 0.72308 0.0
C707 C 0.66782 0.67521 0.72067 0.0
C708 C 0.66573 0.66028 0.65526 0.0
N709 N 0.73871 0.72474 0.74827 0.0
C710 C 0.69299 0.69899 0.75188 0.0
C711 C 0.74452 0.75132 0.812 0.0
C712 C 0.69785 0.72318 0.81678 0.0
C713 C 0.76443 0.7523 0.77717 0.0
C714 C 0.67135 0.69712 0.78637 0.0
H715 H 0.68252 0.72254 0.84378 0.0
O716 O 0.80476 0.79761 0.69029 0.0
O717 O 0.83428 0.72934 0.67051 0.0
O718 O 0.79509 0.63766 0.71799 0.0
O719 O 0.76533 0.68307 0.73913 0.0
O720 O 0.8385 0.76907 0.71563 0.0
O721 O 0.73978 0.76131 0.66283 0.0
O722 O 0.81728 0.60301 0.62586 0.0
O723 O 0.76025 0.65448 0.67265 0.0
O724 O 0.76462 0.71449 0.62575 0.0
O725 O 0.82707 0.70784 0.60895 0.0
O726 O 0.76318 0.62091 0.62508 0.0
O727 O 0.85323 0.62055 0.67919 0.0
C728 C 0.86185 0.75954 0.69258 0.0
C729 C 0.62404 0.67001 0.7892 0.0
C730 C 0.5985 0.64592 0.75763 0.0
C731 C 0.77255 0.80088 0.67372 0.0
C732 C 0.76072 0.83346 0.69081 0.0
C733 C 0.71984 0.81782 0.71057 0.0
C734 C 0.7915 0.88081 0.68872 0.0
C735 C 0.78173 0.91196 0.70692 0.0
C736 C 0.70975 0.84854 0.72801 0.0
C737 C 0.74043 0.89511 0.72641 0.0
C738 C 0.77449 0.65014 0.74396 0.0
C739 C 0.73575 0.62582 0.64739 0.0
C740 C 0.84014 0.59331 0.65021 0.0
C741 C 0.82619 0.54535 0.65849 0.0
C742 C 0.78941 0.51964 0.68251 0.0
C743 C 0.85352 0.52704 0.64631 0.0
C744 C 0.84479 0.48393 0.65907 0.0
C745 C 0.78028 0.47681 0.69472 0.0
C746 C 0.80791 0.45928 0.68346 0.0
C747 C 0.7968 0.72088 0.60161 0.0
H748 H 0.69586 0.78185 0.71284 0.0
H749 H 0.82348 0.89321 0.67402 0.0
H750 H 0.67817 0.83614 0.74325 0.0
H751 H 0.73197 0.91814 0.74064 0.0
H752 H 0.76849 0.5332 0.69257 0.0
H753 H 0.8823 0.54684 0.628 0.0
H754 H 0.75192 0.45729 0.71344 0.0
H755 H 0.80008 0.42602 0.69341 0.0
H756 H 0.26683 0.44842 0.04498 0.0
H757 H 0.32882 0.50315 0.93664 0.0
H758 H 0.25666 0.49326 0.91362 0.0
H759 H 0.17644 0.4719 0.92535 0.0
H760 H 0.11543 0.41308 0.03205 0.0
H761 H 0.186 0.4186 0.05381 0.0
C762 C 0.2649 0.45698 0.01582 0.0
C763 C 0.30415 0.47638 0.99274 0.0
C764 C 0.22296 0.44971 1.00228 0.0
C765 C 0.30003 0.48883 0.95558 0.0
C766 C 0.25842 0.48266 0.94216 0.0
C767 C 0.17827 0.45933 0.95308 0.0
C768 C 0.14035 0.44236 0.97757 0.0
C769 C 0.21968 0.46341 0.96537 0.0
C770 C 0.14376 0.42636 0.01313 0.0
C771 C 0.1844 0.42995 0.02551 0.0
H772 H 0.6183 0.82408 0.04465 0.0
H773 H 0.54589 0.81422 0.94153 0.0
H774 H 0.55437 0.74985 0.92162 0.0
H775 H 0.58128 0.69526 0.93422 0.0
H776 H 0.65669 0.7094 0.03588 0.0
H777 H 0.65074 0.7751 0.05438 0.0
C778 C 0.60522 0.80902 0.01724 0.0
C779 C 0.58178 0.82507 0.99458 0.0
C780 C 0.61153 0.77303 1.00537 0.0
C781 C 0.56364 0.8029 0.95998 0.0
C782 C 0.56897 0.76625 0.94832 0.0
C783 C 0.59722 0.71323 0.96011 0.0
C784 C 0.61937 0.69675 0.98387 0.0
C785 C 0.59289 0.75099 0.97081 0.0
C786 C 0.63951 0.72074 0.01718 0.0
C787 C 0.63572 0.75831 0.02788 0.0
H788 H 0.33356 0.92351 0.93236 0.0
H789 H 0.38111 0.90456 0.03976 0.0
H790 H 0.32449 0.82423 0.03882 0.0
H791 H 0.26988 0.75635 1.00144 0.0
H792 H 0.21612 0.77798 0.89797 0.0
H793 H 0.2654 0.85944 0.90398 0.0
C794 C 0.32999 0.90239 0.95656 0.0
C795 C 0.3615 0.92084 0.98634 0.0
C796 C 0.29667 0.85587 0.95607 0.0
C797 C 0.35706 0.89218 0.01679 0.0
C798 C 0.32484 0.84566 0.01601 0.0
C799 C 0.26781 0.77882 0.98082 0.0
C800 C 0.2406 0.76028 0.94826 0.0
C801 C 0.29565 0.82659 0.98493 0.0
C802 C 0.23812 0.79065 0.92243 0.0
C803 C 0.26625 0.83758 0.92587 0.0
H804 H 0.50748 0.31537 0.99562 0.0
H805 H 0.51195 0.31065 0.11715 0.0
H806 H 0.56242 0.39284 0.11949 0.0
H807 H 0.60047 0.46708 0.08751 0.0
H808 H 0.59057 0.47324 0.96661 0.0
H809 H 0.54862 0.39013 0.9632 0.0
C810 C 0.52022 0.33237 0.02249 0.0
C811 C 0.50611 0.3069 0.05619 0.0
C812 C 0.54836 0.38009 0.02369 0.0
C813 C 0.52228 0.32948 0.09087 0.0
C814 C 0.55122 0.37649 0.09221 0.0
C815 C 0.58933 0.45011 0.06043 0.0
C816 C 0.59717 0.47619 0.02752 0.0
C817 C 0.56377 0.40231 0.05891 0.0
C818 C 0.58369 0.45387 0.99248 0.0
C819 C 0.55979 0.40631 0.99054 0.0
H820 H 0.604 0.13374 0.94952 0.0
H821 H 0.57541 0.12882 0.0685 0.0
H822 H 0.65656 0.17398 0.08239 0.0
H823 H 0.73576 0.20698 0.06133 0.0
H824 H 0.76542 0.21267 0.94246 0.0
H825 H 0.68415 0.17481 0.92775 0.0
C826 C 0.61578 0.14293 0.97838 0.0
C827 C 0.58423 0.12636 0.00819 0.0
C828 C 0.66267 0.16855 0.98614 0.0
C829 C 0.59943 0.13971 0.04535 0.0
C830 C 0.64575 0.16573 0.05324 0.0
C831 C 0.72438 0.20047 0.03218 0.0
C832 C 0.75645 0.21225 1.00302 0.0
C833 C 0.67773 0.1789 0.02402 0.0
C834 C 0.74135 0.20401 0.96536 0.0
C835 C 0.6949 0.18226 0.95697 0.0
H836 H 0.94375 0.48973 0.07205 0.0
H837 H 0.95712 0.48418 0.95143 0.0
H838 H 0.91576 0.52519 0.94189 0.0
H839 H 0.88053 0.56785 0.96827 0.0
H840 H 0.87241 0.57799 0.089 0.0
H841 H 0.90695 0.53042 0.0983 0.0
C842 C 0.93731 0.49737 0.04373 0.0
C843 C 0.95462 0.48531 0.01255 0.0
C844 C 0.91449 0.52195 0.03856 0.0
C845 C 0.94526 0.49436 0.97591 0.0
C846 C 0.92145 0.51766 0.97045 0.0
C847 C 0.8858 0.55896 0.99651 0.0
C848 C 0.87369 0.57589 0.02796 0.0
C849 C 0.90673 0.53249 1.00158 0.0
C850 C 0.88131 0.56499 0.06448 0.0
C851 C 0.90103 0.53785 0.06976 0.0
H852 H 0.79691 0.75171 0.27058 0.0
H853 H 0.82608 0.84104 0.36559 0.0
H854 H 0.9044 0.86004 0.36471 0.0
H855 H 0.96842 0.86094 0.3303 0.0
H856 H 0.93786 0.76458 0.24 0.0
H857 H 0.85744 0.73825 0.24652 0.0
C858 C 0.8194 0.7727 0.29287 0.0
C859 C 0.80352 0.79225 0.31962 0.0
C860 C 0.86547 0.78378 0.29227 0.0
C861 C 0.83519 0.82272 0.34607 0.0
C862 C 0.88104 0.8347 0.34505 0.0
C863 C 0.94426 0.83324 0.31278 0.0
C864 C 0.96018 0.81664 0.28343 0.0
C865 C 0.89707 0.8167 0.31742 0.0
C866 C 0.92747 0.78002 0.26163 0.0
C867 C 0.88105 0.76449 0.26545 0.0
H868 H 0.3037 0.18623 0.27631 0.0
H869 H 0.22429 0.16006 0.37781 0.0
H870 H 0.22711 0.08997 0.38802 0.0
H871 H 0.24847 0.03385 0.36528 0.0
H872 H 0.3238 0.06009 0.26163 0.0
H873 H 0.32836 0.13373 0.25603 0.0
C874 C 0.28761 0.16578 0.30115 0.0
C875 C 0.26411 0.17881 0.32643 0.0
C876 C 0.28965 0.12601 0.30684 0.0
C877 C 0.24231 0.15082 0.35772 0.0
C878 C 0.24432 0.11096 0.36373 0.0
C879 C 0.26772 0.05673 0.34256 0.0
C880 C 0.28803 0.04264 0.31496 0.0
C881 C 0.26778 0.09809 0.33835 0.0
C882 C 0.3099 0.07115 0.2841 0.0
C883 C 0.31172 0.11286 0.28053 0.0
H884 H 1.03032 0.24513 0.35799 0.0
H885 H 0.03429 0.27059 0.23849 0.0
H886 H 0.97627 0.19172 0.2276 0.0
H887 H 0.93486 0.11284 0.25066 0.0
H888 H 0.93109 0.08629 0.36998 0.0
H889 H 0.9783 0.16789 0.38251 0.0
C890 C 1.01709 0.23405 0.32988 0.0
C891 C 0.03657 0.26407 0.29915 0.0
C892 C 0.98465 0.18787 0.32367 0.0
C893 C 1.01955 0.24841 0.26268 0.0
C894 C 0.9868 0.20306 0.25636 0.0
C895 C 0.94371 0.12505 0.27946 0.0
C896 C 0.92999 0.0935 0.30931 0.0
C897 C 0.97081 0.17199 0.28638 0.0
C898 C 0.94128 0.10984 0.34652 0.0
C899 C 0.96843 0.15653 0.35365 0.0
H900 H 0.22951 0.78602 0.40231 0.0
H901 H 0.25468 0.82892 0.28592 0.0
H902 H 0.2311 0.75167 0.26591 0.0
H903 H 0.20716 0.67256 0.28162 0.0
H904 H 0.18034 0.62817 0.39757 0.0
H905 H 0.19934 0.7047 0.41756 0.0
C906 C 0.22942 0.77817 0.3726 0.0
C907 C 0.24312 0.81294 0.34559 0.0
C908 C 0.21531 0.73334 0.3612 0.0
C909 C 0.24344 0.80263 0.30719 0.0
C910 C 0.2301 0.75844 0.29572 0.0
C911 C 0.20513 0.6796 0.31124 0.0
C912 C 0.19276 0.64488 0.33811 0.0
C913 C 0.21639 0.72362 0.32248 0.0
C914 C 0.1896 0.65427 0.37632 0.0
C915 C 0.20088 0.69812 0.38779 0.0
H916 H 0.25484 0.47779 0.31586 0.0
H917 H 0.23592 0.45716 0.43608 0.0
H918 H 0.31775 0.50313 0.44607 0.0
H919 H 0.39513 0.54092 0.42006 0.0
H920 H 0.4151 0.56349 0.30003 0.0
H921 H 0.33284 0.5263 0.29058 0.0
C922 C 0.26877 0.48362 0.3442 0.0
C923 C 0.23973 0.46199 0.3751 0.0
C924 C 0.3161 0.51063 0.34976 0.0
C925 C 0.25783 0.47195 0.41179 0.0
C926 C 0.30462 0.49833 0.41751 0.0
C927 C 0.38151 0.53816 0.39185 0.0
C928 C 0.41133 0.55436 0.36073 0.0
C929 C 0.33421 0.51637 0.38662 0.0
C930 C 0.39306 0.55136 0.32448 0.0
C931 C 0.34594 0.52986 0.31905 0.0
H932 H 0.5354 0.89884 0.42496 0.0
H933 H 0.50125 0.88586 0.30653 0.0
H934 H 0.53907 0.84143 0.29668 0.0
H935 H 0.58753 0.81133 0.32099 0.0
H936 H 0.62123 0.82498 0.43939 0.0
H937 H 0.57786 0.86363 0.45005 0.0
C938 C 0.53614 0.88627 0.39696 0.0
C939 C 0.51583 0.89624 0.36647 0.0
C940 C 0.55824 0.86104 0.39146 0.0
C941 C 0.51634 0.87866 0.33058 0.0
C942 C 0.53817 0.85336 0.32489 0.0
C943 C 0.58544 0.82303 0.34902 0.0
C944 C 0.60944 0.81748 0.37908 0.0
C945 C 0.56017 0.8452 0.35495 0.0
C946 C 0.60436 0.83037 0.41563 0.0
C947 C 0.57949 0.85238 0.42174 0.0
H948 H 0.5955 0.1065 0.58714 0.0
H949 H 0.65118 0.20156 0.67976 0.0
H950 H 0.5746 0.18223 0.69884 0.0
H951 H 0.49301 0.14825 0.68294 0.0
H952 H 0.4425 0.06906 0.58124 0.0
H953 H 0.51508 0.07219 0.57187 0.0
C954 C 0.59143 0.12367 0.61133 0.0
C955 C 0.63011 0.15666 0.63117 0.0
C956 C 0.5475 0.11489 0.62056 0.0
C957 C 0.62282 0.17617 0.66364 0.0
C958 C 0.57876 0.16543 0.67441 0.0
C959 C 0.4975 0.13031 0.65952 0.0
C960 C 0.4614 0.10631 0.63386 0.0
C961 C 0.54097 0.13611 0.65228 0.0
C962 C 0.46862 0.08545 0.60251 0.0
C963 C 0.51059 0.08814 0.59673 0.0
H964 H 0.91599 0.36177 0.58616 0.0
H965 H 0.96597 0.36842 0.69854 0.0
H966 H 0.94313 0.4238 0.71648 0.0
H967 H 0.89804 0.46157 0.70185 0.0
H968 H 0.85163 0.45757 0.5879 0.0
H969 H 0.8838 0.41026 0.56858 0.0
C970 C 0.92304 0.3762 0.61436 0.0
C971 C 0.94125 0.35938 0.64181 0.0
C972 C 0.90954 0.40808 0.62409 0.0
C973 C 0.95078 0.37946 0.67768 0.0
C974 C 0.93751 0.41112 0.68774 0.0
C975 C 0.89594 0.45117 0.67261 0.0
C976 C 0.87222 0.46297 0.64633 0.0
C977 C 0.91497 0.42417 0.66161 0.0
C978 C 0.86982 0.44922 0.60857 0.0
C979 C 0.88806 0.42194 0.59758 0.0
H980 H 0.66189 0.58257 0.60213 0.0
H981 H 0.71548 0.56939 0.70845 0.0
H982 H 0.65915 0.48914 0.71103 0.0
H983 H 0.6024 0.41926 0.67731 0.0
H984 H 0.54714 0.4337 0.57191 0.0
H985 H 0.59513 0.5158 0.57507 0.0
C986 C 0.6599 0.56259 0.62672 0.0
C987 C 0.69256 0.58286 0.65552 0.0
C988 C 0.6274 0.51579 0.62773 0.0
C989 C 0.69015 0.5558 0.68654 0.0
C990 C 0.65818 0.50924 0.68766 0.0
C991 C 0.59983 0.4404 0.65564 0.0
C992 C 0.57186 0.41977 0.62385 0.0
C993 C 0.62769 0.48834 0.65765 0.0
C994 C 0.56911 0.44822 0.59622 0.0
C995 C 0.59661 0.49541 0.59797 0.0
H996 H 0.81802 0.97228 0.64777 0.0
H997 H 0.81838 0.96369 0.76926 0.0
H998 H 0.86633 0.04605 0.77371 0.0
H999 H 0.9049 0.12132 0.74352 0.0
H1000 H 0.90158 0.13137 0.62241 0.0
H1001 H 0.85907 0.0484 0.6172 0.0
C1002 C 0.82931 0.9885 0.6751 0.0
C1003 C 0.81485 0.96177 0.70816 0.0
C1004 C 0.85625 0.03635 0.67752 0.0
C1005 C 0.82909 0.98341 0.74343 0.0
C1006 C 0.85651 0.03056 0.746 0.0
C1007 C 0.89498 0.10525 0.716 0.0
C1008 C 0.90517 0.13247 0.68351 0.0
C1009 C 0.86978 0.05749 0.71333 0.0
C1010 C 0.89302 0.11121 0.64796 0.0
C1011 C 0.86885 0.06369 0.64497 0.0
H1012 H 0.93507 0.80794 0.73861 0.0
H1013 H 0.89353 0.79029 0.62188 0.0
H1014 H 0.9703 0.84587 0.60261 0.0
H1015 H 0.04959 0.90003 0.61864 0.0
H1016 H 0.09349 0.91563 0.73462 0.0
H1017 H 1.01631 0.85963 0.75436 0.0
C1018 C 0.94305 0.81628 0.70899 0.0
C1019 C 0.90882 0.79412 0.68165 0.0
C1020 C 0.98791 0.84771 0.69794 0.0
C1021 C 0.91937 0.8058 0.64341 0.0
C1022 C 0.96335 0.83778 0.63235 0.0
C1023 C 0.04228 0.89104 0.64824 0.0
C1024 C 0.07723 0.91222 0.67514 0.0
C1025 C 0.99795 0.85879 0.6593 0.0
C1026 C 0.06732 0.89969 0.71332 0.0
C1027 C 1.02307 0.86799 0.72465 0.0
H1028 H 0.26985 0.14101 0.6452 0.0
H1029 H 0.27362 0.13399 0.76664 0.0
H1030 H 0.2263 0.16918 0.77213 0.0
H1031 H 0.1902 0.20889 0.74263 0.0
H1032 H 0.18383 0.21429 0.62133 0.0
H1033 H 0.22555 0.17291 0.61541 0.0
C1034 C 0.26008 0.14706 0.67281 0.0
C1035 C 0.27674 0.13662 0.70559 0.0
C1036 C 0.23239 0.16706 0.67573 0.0
C1037 C 0.26223 0.14284 0.74109 0.0
C1038 C 0.23517 0.16297 0.74423 0.0
C1039 C 0.19729 0.20029 0.71491 0.0
C1040 C 0.18402 0.21474 0.68245 0.0
C1041 C 0.22107 0.17635 0.7118 0.0
C1042 C 0.19331 0.20323 0.64671 0.0
C1043 C 0.21738 0.17976 0.64336 0.0
H1044 H 0.13899 0.47133 0.23827 0.0
H1045 H 0.1456 0.35408 0.20068 0.0
H1046 H 0.13028 0.3676 0.13586 0.0
H1047 H 0.10614 0.40669 0.09244 0.0
H1048 H 0.10515 0.52784 0.12645 0.0
H1049 H 0.12742 0.51899 0.19079 0.0
C1050 C 0.13826 0.44943 0.21574 0.0
C1051 C 0.14345 0.41158 0.22442 0.0
C1052 C 0.13015 0.45794 0.17825 0.0
C1053 C 0.14221 0.38352 0.19485 0.0
C1054 C 0.13309 0.39109 0.15782 0.0
C1055 C 0.11259 0.43254 0.1131 0.0
C1056 C 0.10456 0.46843 0.10404 0.0
C1057 C 0.12598 0.4275 0.14945 0.0
C1058 C 0.11173 0.50039 0.13223 0.0
C1059 C 0.12406 0.49498 0.16912 0.0
H1060 H 0.60039 0.70241 0.2377 0.0
H1061 H 0.73055 0.81254 0.20273 0.0
H1062 H 0.71953 0.77806 0.13995 0.0
H1063 H 0.67706 0.71303 0.09817 0.0
H1064 H 0.54673 0.60252 0.1319 0.0
H1065 H 0.5535 0.64107 0.19242 0.0
C1066 C 0.62608 0.71936 0.21613 0.0
C1067 C 0.66654 0.76003 0.22507 0.0
C1068 C 0.61963 0.69901 0.18025 0.0
C1069 C 0.69913 0.7816 0.19666 0.0
C1070 C 0.69297 0.76159 0.16089 0.0
C1071 C 0.64973 0.69734 0.11841 0.0
C1072 C 0.61159 0.65442 0.11054 0.0
C1073 C 0.654 0.71972 0.15283 0.0
C1074 C 0.57636 0.63534 0.13711 0.0
C1075 C 0.58043 0.65735 0.17178 0.0
H1076 H 0.36036 0.93735 0.09516 0.0
H1077 H 0.49039 0.02125 0.14757 0.0
H1078 H 0.45442 1.00609 0.2097 0.0
H1079 H 0.38646 0.97459 0.24829 0.0
H1080 H 0.25461 0.89357 0.19733 0.0
H1081 H 0.29074 0.90205 0.13553 0.0
C1082 C 0.38085 0.95088 0.1204 0.0
C1083 C 0.4283 0.97925 0.11691 0.0
C1084 C 0.35948 0.94334 0.15615 0.0
C1085 C 0.45416 0.99838 0.14961 0.0
C1086 C 0.43345 0.99014 0.1851 0.0
C1087 C 0.36513 0.9584 0.22392 0.0
C1088 C 0.31739 0.93361 0.22795 0.0
C1089 C 0.38613 0.96359 0.18859 0.0
C1090 C 0.29116 0.91299 0.19551 0.0
C1091 C 0.31196 0.91775 0.16005 0.0
H1092 H 0.45315 0.11543 0.90761 0.0
H1093 H 0.48276 1.01408 0.86497 0.0
H1094 H 0.47508 0.03485 0.80007 0.0
H1095 H 0.4529 0.07666 0.75603 0.0
H1096 H 0.41966 0.17522 0.79893 0.0
H1097 H 0.43708 0.16151 0.86331 0.0
C1098 C 0.45821 0.09784 0.88421 0.0
C1099 C 0.46809 0.06262 0.89148 0.0
C1100 C 0.45334 0.10976 0.84704 0.0
C1101 C 0.47528 0.04115 0.86053 0.0
C1102 C 0.47074 0.05303 0.82336 0.0
C1103 C 0.45024 0.09586 0.77938 0.0
C1104 C 0.43472 0.12696 0.77254 0.0
C1105 C 0.45889 0.08663 0.81635 0.0
C1106 C 0.43186 0.1516 0.80314 0.0
C1107 C 0.44125 0.14321 0.84004 0.0
H1108 H 0.93578 0.35775 0.90095 0.0
H1109 H 0.05646 0.47191 0.85563 0.0
H1110 H 0.03768 0.43712 0.79284 0.0
H1111 H 0.99361 0.37012 0.75395 0.0
H1112 H 0.86989 0.25707 0.79589 0.0
H1113 H 0.88355 0.29531 0.85762 0.0
C1114 C 0.95745 0.37544 0.87709 0.0
C1115 C 0.99769 0.41752 0.88303 0.0
C1116 C 0.9463 0.35507 0.84092 0.0
C1117 C 1.02526 0.44002 0.8519 0.0
C1118 C 1.01475 0.41976 0.81607 0.0
C1119 C 0.96836 0.35427 0.77578 0.0
C1120 C 0.93027 0.31073 0.76972 0.0
C1121 C 0.97618 0.37678 0.81061 0.0
C1122 C 0.89902 0.29066 0.79932 0.0
C1123 C 0.90715 0.31247 0.83473 0.0
H1124 H 0.68532 0.60721 0.75904 0.0
H1125 H 0.81323 0.63384 0.80574 0.0
H1126 H 0.77767 0.60921 0.86819 0.0
H1127 H 0.71364 0.5915 0.91042 0.0
H1128 H 0.58687 0.57012 0.86476 0.0
H1129 H 0.61812 0.58005 0.80054 0.0
C1130 C 0.70507 0.60629 0.78274 0.0
C1131 C 0.7519 0.62206 0.77777 0.0
C1132 C 0.68469 0.59381 0.81867 0.0
C1133 C 0.77718 0.62112 0.80863 0.0
C1134 C 0.75688 0.60768 0.84441 0.0
C1135 C 0.69253 0.58869 0.88646 0.0
C1136 C 0.64804 0.58091 0.89259 0.0
C1137 C 0.71122 0.5958 0.84995 0.0
C1138 C 0.62104 0.57619 0.86105 0.0
C1139 C 0.63915 0.58231 0.82436 0.0
H1140 H 0.76114 0.83391 0.48028 0.0
H1141 H 0.78282 0.74792 0.40417 0.0
H1142 H 0.80684 0.71806 0.45656 0.0
H1143 H 0.81035 0.70791 0.52611 0.0
H1144 H 0.79106 0.79667 0.60094 0.0
H1145 H 0.77863 0.83413 0.54781 0.0
C1146 C 0.77321 0.81032 0.475 0.0
C1147 C 0.77074 0.79365 0.43835 0.0
C1148 C 0.78657 0.79279 0.50549 0.0
C1149 C 0.78517 0.76188 0.43215 0.0
C1150 C 0.79841 0.7443 0.46223 0.0
C1151 C 0.80459 0.73617 0.53061 0.0
C1152 C 0.8002 0.74842 0.5677 0.0
C1153 C 0.79756 0.75814 0.49938 0.0
C1154 C 0.793 0.78539 0.57289 0.0
C1155 C 0.78612 0.80718 0.54237 0.0
H1156 H 0.29907 0.04749 0.42395 0.0
H1157 H 0.19411 0.92088 0.46944 0.0
H1158 H 0.20768 0.95508 0.53264 0.0
H1159 H 0.25715 1.01738 0.57582 0.0
H1160 H 0.36354 0.14339 0.53021 0.0
H1161 H 0.34131 0.11336 0.46612 0.0
C1162 C 0.27784 0.02792 0.44746 0.0
C1163 C 0.24492 0.98182 0.44182 0.0
C1164 C 0.28685 0.04756 0.4838 0.0
C1165 C 0.21869 0.95656 0.47272 0.0
C1166 C 0.22707 0.97602 0.50899 0.0
C1167 C 0.27498 0.03876 0.55189 0.0
C1168 C 0.3122 0.08288 0.55814 0.0
C1169 C 0.26223 0.02094 0.51504 0.0
C1170 C 0.33462 0.10981 0.52657 0.0
C1171 C 0.32209 0.09237 0.48981 0.0
H1172 H 0.03362 0.24659 0.56763 0.0
H1173 H 0.9089 0.23243 0.52391 0.0
H1174 H 0.93953 0.24437 0.45961 0.0
H1175 H 1.00584 0.27056 0.41762 0.0
H1176 H 0.13103 0.28604 0.46135 0.0
H1177 H 0.09595 0.26098 0.52369 0.0
C1178 C 1.01279 0.24535 0.54395 0.0
C1179 C 0.96899 0.23897 0.55072 0.0
C1180 C 0.03098 0.25292 0.50711 0.0
C1181 C 0.94237 0.2369 0.51966 0.0
C1182 C 0.96016 0.24419 0.48288 0.0
C1183 C 1.02521 0.26746 0.4406 0.0
C1184 C 0.07146 0.28118 0.43488 0.0
C1185 C 1.00496 0.25386 0.47649 0.0
C1186 C 0.0957 0.27612 0.46476 0.0
C1187 C 0.07565 0.26217 0.50059 0.0
loop_
_geom_bond_atom_site_label_1
_geom_bond_atom_site_label_2
_geom_bond_distance
_geom_bond_site_symmetry_2
_ccdc_geom_bond_type
Gd0 N31 2.661 1_654 S
Gd0 N37 2.601 . S
Gd0 O44 2.545 . S
Gd0 O45 2.612 . S
Gd0 O47 2.429 . S
Gd0 O48 2.545 . S
Gd0 O49 2.412 1_554 S
Gd0 O51 2.362 1_655 S
Gd0 O52 2.324 1_554 S
Gd0 C59 2.828 . S
Gd1 N10 2.661 1_556 S
Gd1 N14 2.601 . S
Gd1 O45 2.357 1_456 S
Gd1 O46 2.324 1_556 S
Gd1 O50 2.545 . S
Gd1 O51 2.606 1_556 S
Gd1 O53 2.429 . S
Gd1 O54 2.545 . S
Gd1 O55 2.412 1_556 S
Gd1 C68 2.828 . S
C2 C5 1.417 1_554 S
C2 C7 1.431 1_554 S
C2 C8 1.412 . S
C3 C6 1.437 . S
C3 C7 1.317 . S
C3 H22 0.929 . S
C4 C5 1.426 . S
C4 C6 1.413 . S
C4 N14 1.359 1_655 S
C5 C2 1.417 1_556 S
C5 C4 1.426 . S
C5 N10 1.350 1_656 S
C6 C3 1.437 . S
C6 C4 1.413 . S
C6 C16 1.391 . S
C7 C2 1.431 1_556 S
C7 C3 1.317 . S
C7 H18 0.930 . S
C8 C2 1.412 . S
C8 C9 1.355 . S
C8 H20 0.930 . S
C9 C8 1.355 . S
C9 C11 1.402 . S
C9 H21 0.930 . S
N10 Gd1 2.661 1_554 S
N10 C5 1.350 1_454 S
N10 C11 1.307 1_455 S
C11 C9 1.402 . S
C11 N10 1.307 1_655 S
C11 H12 0.940 . S
H12 C11 0.940 . S
C13 N14 1.334 . S
C13 C15 1.394 . S
C13 H17 0.930 . S
N14 Gd1 2.601 . S
N14 C4 1.359 1_455 S
N14 C13 1.334 . S
C15 C13 1.394 . S
C15 C16 1.359 1_455 S
C15 H27 0.930 . S
C16 C6 1.391 . S
C16 C15 1.359 1_655 S
C16 H28 0.929 . S
H17 C13 0.930 . S
H18 C7 0.930 . S
H19 C36 0.930 . S
H20 C8 0.930 . S
H21 C9 0.930 . S
H22 C3 0.929 . S
H23 C41 0.930 . S
H24 C32 0.930 . S
H25 C33 0.930 . S
H26 C57 0.929 . S
H27 C15 0.930 . S
H28 C16 0.929 . S
H29 C58 0.930 . S
H30 C39 0.930 . S
N31 Gd0 2.661 1_456 S
N31 C35 1.350 1_556 S
N31 C36 1.307 . S
C32 H24 0.930 . S
C32 C33 1.355 . S
C32 C34 1.412 . S
C33 H25 0.930 . S
C33 C32 1.355 . S
C33 C36 1.402 . S
C34 C32 1.412 . S
C34 C35 1.417 1_556 S
C34 C58 1.431 1_556 S
C35 N31 1.350 1_554 S
C35 C34 1.417 1_554 S
C35 C38 1.426 . S
C36 H19 0.930 . S
C36 N31 1.307 . S
C36 C33 1.402 . S
N37 Gd0 2.601 . S
N37 C38 1.359 1_655 S
N37 C41 1.334 . S
C38 C35 1.426 . S
C38 N37 1.359 1_455 S
C38 C42 1.413 . S
C39 H30 0.930 . S
C39 C40 1.359 1_655 S
C39 C41 1.394 . S
C40 C39 1.359 1_455 S
C40 C42 1.391 . S
C40 H43 0.929 . S
C41 H23 0.930 . S
C41 N37 1.334 . S
C41 C39 1.394 . S
C42 C38 1.413 . S
C42 C40 1.391 . S
C42 C57 1.437 . S
H43 C40 0.929 . S
O44 Gd0 2.545 . S
O44 C59 1.258 . S
O45 Gd0 2.612 . S
O45 Gd1 2.357 1_654 S
O45 C56 1.290 . S
O46 Gd1 2.324 1_554 S
O46 C66 1.254 . S
O47 Gd0 2.429 . S
O47 C66 1.266 1_655 S
O48 Gd0 2.545 . S
O48 C56 1.250 . S
O49 Gd0 2.412 1_556 S
O49 C59 1.252 1_556 S
O50 Gd1 2.545 . S
O50 C68 1.258 . S
O51 Gd0 2.362 1_455 S
O51 Gd1 2.606 1_554 S
O51 C67 1.284 1_554 S
O52 Gd0 2.324 1_556 S
O52 C75 1.254 . S
O53 Gd1 2.429 . S
O53 C75 1.268 1_455 S
O54 Gd1 2.545 . S
O54 C67 1.250 . S
O55 Gd1 2.412 1_554 S
O55 C68 1.252 1_554 S
C56 O45 1.290 . S
C56 O48 1.250 . S
C57 H26 0.929 . S
C57 C42 1.437 . S
C57 C58 1.317 . S
C58 H29 0.930 . S
C58 C34 1.431 1_554 S
C58 C57 1.317 . S
C59 Gd0 2.828 . S
C59 O44 1.258 . S
C59 O49 1.252 1_554 S
C59 C60 1.497 . S
C60 C59 1.497 . S
C60 C61 1.395 . S
C60 C62 1.380 1_554 S
C61 C60 1.395 . S
C61 C64 1.398 . S
C61 H76 0.930 . S
C62 C60 1.380 1_556 S
C62 C63 1.391 . S
C62 H77 0.930 . S
C63 C62 1.391 . S
C63 C65 1.387 1_556 S
C64 C61 1.398 . S
C64 C65 1.380 . S
C64 H78 0.930 . S
C65 C63 1.387 1_554 S
C65 C64 1.380 . S
C65 H79 0.930 . S
C66 O46 1.254 . S
C66 O47 1.266 1_455 S
C67 O51 1.284 1_556 S
C67 O54 1.250 . S
C68 Gd1 2.828 . S
C68 O50 1.258 . S
C68 O55 1.252 1_556 S
C68 C69 1.497 . S
C69 C68 1.497 . S
C69 C70 1.395 . S
C69 C71 1.380 1_556 S
C70 C69 1.395 . S
C70 C73 1.398 . S
C70 H80 0.930 . S
C71 C69 1.380 1_554 S
C71 C72 1.391 . S
C71 H81 0.930 . S
C72 C71 1.391 . S
C72 C74 1.387 1_554 S
C73 C70 1.398 . S
C73 C74 1.380 . S
C73 H82 0.930 . S
C74 C72 1.387 1_556 S
C74 C73 1.380 . S
C74 H83 0.930 . S
C75 O52 1.254 . S
C75 O53 1.268 1_655 S
H76 C61 0.930 . S
H77 C62 0.930 . S
H78 C64 0.930 . S
H79 C65 0.930 . S
H80 C70 0.930 . S
H81 C71 0.930 . S
H82 C73 0.930 . S
H83 C74 0.930 . S
Gd84 N115 2.661 1_554 S
Gd84 N121 2.601 . S
Gd84 O128 2.545 . S
Gd84 O129 2.612 . S
Gd84 O131 2.429 . S
Gd84 O132 2.545 . S
Gd84 O133 2.412 1_554 S
Gd84 O135 2.362 . S
Gd84 O136 2.324 1_554 S
Gd84 C143 2.828 . S
Gd85 N94 2.661 1_556 S
Gd85 N98 2.601 . S
Gd85 O129 2.357 1_556 S
Gd85 O130 2.324 1_556 S
Gd85 O134 2.545 . S
Gd85 O135 2.606 1_556 S
Gd85 O137 2.429 . S
Gd85 O138 2.545 . S
Gd85 O139 2.412 1_556 S
Gd85 C152 2.828 . S
C86 C89 1.417 1_554 S
C86 C91 1.431 1_554 S
C86 C92 1.412 . S
C87 C90 1.437 . S
C87 C91 1.317 . S
C87 H106 0.929 . S
C88 C89 1.426 . S
C88 C90 1.413 . S
C88 N98 1.359 . S
C89 C86 1.417 1_556 S
C89 C88 1.426 . S
C89 N94 1.350 1_556 S
C90 C87 1.437 . S
C90 C88 1.413 . S
C90 C100 1.391 . S
C91 C86 1.431 1_556 S
C91 C87 1.317 . S
C91 H102 0.930 . S
C92 C86 1.412 . S
C92 C93 1.355 . S
C92 H104 0.930 . S
C93 C92 1.355 . S
C93 C95 1.402 . S
C93 H105 0.930 . S
N94 Gd85 2.661 1_554 S
N94 C89 1.350 1_554 S
N94 C95 1.307 . S
C95 C93 1.402 . S
C95 N94 1.307 . S
C95 H96 0.930 . S
H96 C95 0.930 . S
C97 N98 1.334 . S
C97 C99 1.394 . S
C97 H101 0.930 . S
N98 Gd85 2.601 . S
N98 C88 1.359 . S
N98 C97 1.334 . S
C99 C97 1.394 . S
C99 C100 1.359 . S
C99 H111 0.930 . S
C100 C90 1.391 . S
C100 C99 1.359 . S
C100 H112 0.929 . S
H101 C97 0.930 . S
H102 C91 0.930 . S
H103 C120 0.930 . S
H104 C92 0.930 . S
H105 C93 0.930 . S
H106 C87 0.929 . S
H107 C125 0.930 . S
H108 C116 0.930 . S
H109 C117 0.930 . S
H110 C141 0.929 . S
H111 C99 0.930 . S
H112 C100 0.929 . S
H113 C142 0.930 . S
H114 C123 0.930 . S
N115 Gd84 2.661 1_556 S
N115 C119 1.350 1_556 S
N115 C120 1.307 . S
C116 H108 0.930 . S
C116 C117 1.355 . S
C116 C118 1.412 . S
C117 H109 0.930 . S
C117 C116 1.355 . S
C117 C120 1.402 . S
C118 C116 1.412 . S
C118 C119 1.417 1_556 S
C118 C142 1.431 1_556 S
C119 N115 1.350 1_554 S
C119 C118 1.417 1_554 S
C119 C122 1.426 . S
C120 H103 0.930 . S
C120 N115 1.307 . S
C120 C117 1.402 . S
N121 Gd84 2.601 . S
N121 C122 1.359 . S
N121 C125 1.334 . S
C122 C119 1.426 . S
C122 N121 1.359 . S
C122 C126 1.413 . S
C123 H114 0.930 . S
C123 C124 1.359 . S
C123 C125 1.394 . S
C124 C123 1.359 . S
C124 C126 1.391 . S
C124 H127 0.929 . S
C125 H107 0.930 . S
C125 N121 1.334 . S
C125 C123 1.394 . S
C126 C122 1.413 . S
C126 C124 1.391 . S
C126 C141 1.437 . S
H127 C124 0.929 . S
O128 Gd84 2.545 . S
O128 C143 1.258 . S
O129 Gd84 2.612 . S
O129 Gd85 2.357 1_554 S
O129 C140 1.290 . S
O130 Gd85 2.324 1_554 S
O130 C150 1.254 . S
O131 Gd84 2.429 . S
O131 C150 1.268 . S
O132 Gd84 2.545 . S
O132 C140 1.250 . S
O133 Gd84 2.412 1_556 S
O133 C143 1.252 1_556 S
O134 Gd85 2.545 . S
O134 C152 1.258 . S
O135 Gd84 2.362 . S
O135 Gd85 2.606 1_554 S
O135 C151 1.284 1_554 S
O136 Gd84 2.324 1_556 S
O136 C159 1.254 . S
O137 Gd85 2.429 . S
O137 C159 1.268 . S
O138 Gd85 2.545 . S
O138 C151 1.250 . S
O139 Gd85 2.412 1_554 S
O139 C152 1.252 1_554 S
C140 O129 1.290 . S
C140 O132 1.250 . S
C141 H110 0.929 . S
C141 C126 1.437 . S
C141 C142 1.317 . S
C142 H113 0.930 . S
C142 C118 1.431 1_554 S
C142 C141 1.317 . S
C143 Gd84 2.828 . S
C143 O128 1.258 . S
C143 O133 1.252 1_554 S
C143 C144 1.497 . S
C144 C143 1.497 . S
C144 C145 1.395 . S
C144 C146 1.380 1_554 S
C145 C144 1.395 . S
C145 C148 1.398 . S
C145 H160 0.930 . S
C146 C144 1.380 1_556 S
C146 C147 1.391 . S
C146 H161 0.930 . S
C147 C146 1.391 . S
C147 C149 1.387 1_556 S
C148 C145 1.398 . S
C148 C149 1.380 . S
C148 H162 0.930 . S
C149 C147 1.387 1_554 S
C149 C148 1.380 . S
C149 H163 0.930 . S
C150 O130 1.254 . S
C150 O131 1.268 . S
C151 O135 1.284 1_556 S
C151 O138 1.250 . S
C152 Gd85 2.828 . S
C152 O134 1.258 . S
C152 O139 1.252 1_556 S
C152 C153 1.497 . S
C153 C152 1.497 . S
C153 C154 1.395 . S
C153 C155 1.380 1_556 S
C154 C153 1.395 . S
C154 C157 1.398 . S
C154 H164 0.930 . S
C155 C153 1.380 1_554 S
C155 C156 1.391 . S
C155 H165 0.930 . S
C156 C155 1.391 . S
C156 C158 1.387 1_554 S
C157 C154 1.398 . S
C157 C158 1.380 . S
C157 H166 0.930 . S
C158 C156 1.387 1_556 S
C158 C157 1.380 . S
C158 H167 0.930 . S
C159 O136 1.254 . S
C159 O137 1.268 . S
H160 C145 0.930 . S
H161 C146 0.930 . S
H162 C148 0.930 . S
H163 C149 0.930 . S
H164 C154 0.930 . S
H165 C155 0.930 . S
H166 C157 0.930 . S
H167 C158 0.930 . S
Gd168 N199 2.661 1_554 S
Gd168 N205 2.601 . S
Gd168 O212 2.545 . S
Gd168 O213 2.612 . S
Gd168 O215 2.429 . S
Gd168 O216 2.545 . S
Gd168 O217 2.412 1_554 S
Gd168 O219 2.362 1_545 S
Gd168 O220 2.324 1_554 S
Gd168 C227 2.828 . S
Gd169 N178 2.661 1_566 S
Gd169 N182 2.601 . S
Gd169 O213 2.357 1_566 S
Gd169 O214 2.324 1_556 S
Gd169 O218 2.545 . S
Gd169 O219 2.606 1_556 S
Gd169 O221 2.426 1_565 S
Gd169 O222 2.545 . S
Gd169 O223 2.412 1_556 S
Gd169 C236 2.828 . S
C170 C173 1.417 1_554 S
C170 C175 1.431 1_554 S
C170 C176 1.412 . S
C171 C174 1.437 . S
C171 C175 1.317 . S
C171 H190 0.929 . S
C172 C173 1.426 . S
C172 C174 1.413 . S
C172 N182 1.359 1_545 S
C173 C170 1.417 1_556 S
C173 C172 1.426 . S
C173 N178 1.350 1_556 S
C174 C171 1.437 . S
C174 C172 1.413 . S
C174 C184 1.391 . S
C175 C170 1.431 1_556 S
C175 C171 1.317 . S
C175 H186 0.930 . S
C176 C170 1.412 . S
C176 C177 1.355 . S
C176 H188 0.930 . S
C177 C176 1.355 . S
C177 C179 1.402 . S
C177 H189 0.930 . S
N178 Gd169 2.661 1_544 S
N178 C173 1.350 1_554 S
N178 C179 1.307 . S
C179 C177 1.402 . S
C179 N178 1.307 . S
C179 H180 0.930 . S
H180 C179 0.930 . S
C181 N182 1.334 . S
C181 C183 1.394 . S
C181 H185 0.930 . S
N182 Gd169 2.601 . S
N182 C172 1.359 1_565 S
N182 C181 1.334 . S
C183 C181 1.394 . S
C183 C184 1.359 1_565 S
C183 H195 0.930 . S
C184 C174 1.391 . S
C184 C183 1.359 1_545 S
C184 H196 0.929 . S
H185 C181 0.930 . S
H186 C175 0.930 . S
H187 C204 0.930 . S
H188 C176 0.930 . S
H189 C177 0.930 . S
H190 C171 0.929 . S
H191 C209 0.930 . S
H192 C200 0.930 . S
H193 C201 0.930 . S
H194 C225 0.929 . S
H195 C183 0.930 . S
H196 C184 0.929 . S
H197 C226 0.930 . S
H198 C207 0.930 . S
N199 Gd168 2.661 1_556 S
N199 C203 1.350 1_546 S
N199 C204 1.307 1_545 S
C200 H192 0.930 . S
C200 C201 1.355 . S
C200 C202 1.412 . S
C201 H193 0.930 . S
C201 C200 1.355 . S
C201 C204 1.402 . S
C202 C200 1.412 . S
C202 C203 1.417 1_556 S
C202 C226 1.431 1_556 S
C203 N199 1.350 1_564 S
C203 C202 1.417 1_554 S
C203 C206 1.426 . S
C204 H187 0.930 . S
C204 N199 1.307 1_565 S
C204 C201 1.402 . S
N205 Gd168 2.601 . S
N205 C206 1.359 1_545 S
N205 C209 1.334 . S
C206 C203 1.426 . S
C206 N205 1.359 1_565 S
C206 C210 1.413 . S
C207 H198 0.930 . S
C207 C208 1.359 1_545 S
C207 C209 1.394 . S
C208 C207 1.359 1_565 S
C208 C210 1.391 . S
C208 H211 0.929 . S
C209 H191 0.930 . S
C209 N205 1.334 . S
C209 C207 1.394 . S
C210 C206 1.413 . S
C210 C208 1.391 . S
C210 C225 1.437 . S
H211 C208 0.929 . S
O212 Gd168 2.545 . S
O212 C227 1.258 . S
O213 Gd168 2.612 . S
O213 Gd169 2.357 1_544 S
O213 C224 1.290 . S
O214 Gd169 2.324 1_554 S
O214 C234 1.254 . S
O215 Gd168 2.429 . S
O215 C234 1.268 1_545 S
O216 Gd168 2.545 . S
O216 C224 1.250 . S
O217 Gd168 2.412 1_556 S
O217 C227 1.252 1_556 S
O218 Gd169 2.545 . S
O218 C236 1.258 . S
O219 Gd168 2.362 1_565 S
O219 Gd169 2.606 1_554 S
O219 C235 1.284 1_554 S
O220 Gd168 2.324 1_556 S
O220 C243 1.254 . S
O221 Gd169 2.426 1_545 S
O221 C243 1.274 . S
O222 Gd169 2.545 . S
O222 C235 1.250 . S
O223 Gd169 2.412 1_554 S
O223 C236 1.252 1_554 S
C224 O213 1.290 . S
C224 O216 1.250 . S
C225 H194 0.929 . S
C225 C210 1.437 . S
C225 C226 1.317 . S
C226 H197 0.930 . S
C226 C202 1.431 1_554 S
C226 C225 1.317 . S
C227 Gd168 2.828 . S
C227 O212 1.258 . S
C227 O217 1.252 1_554 S
C227 C228 1.497 . S
C228 C227 1.497 . S
C228 C229 1.395 . S
C228 C230 1.380 1_554 S
C229 C228 1.395 . S
C229 C232 1.398 . S
C229 H244 0.930 . S
C230 C228 1.380 1_556 S
C230 C231 1.391 . S
C230 H245 0.930 . S
C231 C230 1.391 . S
C231 C233 1.387 1_556 S
C232 C229 1.398 . S
C232 C233 1.380 . S
C232 H246 0.930 . S
C233 C231 1.387 1_554 S
C233 C232 1.380 . S
C233 H247 0.930 . S
C234 O214 1.254 . S
C234 O215 1.268 1_565 S
C235 O219 1.284 1_556 S
C235 O222 1.250 . S
C236 Gd169 2.828 . S
C236 O218 1.258 . S
C236 O223 1.252 1_556 S
C236 C237 1.497 . S
C237 C236 1.497 . S
C237 C238 1.395 . S
C237 C239 1.380 1_556 S
C238 C237 1.395 . S
C238 C241 1.398 . S
C238 H248 0.930 . S
C239 C237 1.380 1_554 S
C239 C240 1.391 . S
C239 H249 0.930 . S
C240 C239 1.391 . S
C240 C242 1.387 1_554 S
C241 C238 1.398 . S
C241 C242 1.380 . S
C241 H250 0.930 . S
C242 C240 1.387 1_556 S
C242 C241 1.380 . S
C242 H251 0.930 . S
C243 O220 1.254 . S
C243 O221 1.274 . S
H244 C229 0.930 . S
H245 C230 0.930 . S
H246 C232 0.930 . S
H247 C233 0.930 . S
H248 C238 0.930 . S
H249 C239 0.930 . S
H250 C241 0.930 . S
H251 C242 0.930 . S
Gd252 N283 2.661 . S
Gd252 N289 2.601 . S
Gd252 O296 2.545 . S
Gd252 O297 2.606 . S
Gd252 O299 2.429 . S
Gd252 O300 2.545 . S
Gd252 O301 2.412 . S
Gd252 O303 2.362 . S
Gd252 O304 2.324 . S
Gd252 C311 2.828 . S
Gd253 N262 2.661 . S
Gd253 N266 2.601 . S
Gd253 O297 2.362 . S
Gd253 O298 2.324 . S
Gd253 O302 2.545 . S
Gd253 O303 2.606 . S
Gd253 O305 2.429 . S
Gd253 O306 2.545 . S
Gd253 O307 2.412 . S
Gd253 C320 2.828 . S
C254 C257 1.417 . S
C254 C259 1.431 . S
C254 C260 1.412 . S
C255 C258 1.437 . S
C255 C259 1.317 . S
C255 H274 0.934 . S
C256 C257 1.426 . S
C256 C258 1.413 . S
C256 N266 1.359 . S
C257 C254 1.417 . S
C257 C256 1.426 . S
C257 N262 1.350 . S
C258 C255 1.437 . S
C258 C256 1.413 . S
C258 C268 1.391 . S
C259 C254 1.431 . S
C259 C255 1.317 . S
C259 H270 0.930 . S
C260 C254 1.412 . S
C260 C261 1.355 . S
C260 H272 0.930 . S
C261 C260 1.355 . S
C261 C263 1.402 . S
C261 H273 0.930 . S
N262 Gd253 2.661 . S
N262 C257 1.350 . S
N262 C263 1.307 . S
C263 C261 1.402 . S
C263 N262 1.307 . S
C263 H264 0.930 . S
H264 C263 0.930 . S
C265 N266 1.334 . S
C265 C267 1.394 . S
C265 H269 0.930 . S
N266 Gd253 2.601 . S
N266 C256 1.359 . S
N266 C265 1.334 . S
C267 C265 1.394 . S
C267 C268 1.359 . S
C267 H279 0.930 . S
C268 C258 1.391 . S
C268 C267 1.359 . S
C268 H280 0.929 . S
H269 C265 0.930 . S
H270 C259 0.930 . S
H271 C288 0.930 . S
H272 C260 0.930 . S
H273 C261 0.930 . S
H274 C255 0.934 . S
H275 C293 0.930 . S
H276 C284 0.930 . S
H277 C285 0.930 . S
H278 C309 0.929 . S
H279 C267 0.930 . S
H280 C268 0.929 . S
H281 C310 0.930 . S
H282 C291 0.930 . S
N283 Gd252 2.661 . S
N283 C287 1.350 . S
N283 C288 1.307 . S
C284 H276 0.930 . S
C284 C285 1.355 . S
C284 C286 1.412 . S
C285 H277 0.930 . S
C285 C284 1.355 . S
C285 C288 1.402 . S
C286 C284 1.412 . S
C286 C287 1.417 . S
C286 C310 1.431 . S
C287 N283 1.350 . S
C287 C286 1.417 . S
C287 C290 1.426 . S
C288 H271 0.930 . S
C288 N283 1.307 . S
C288 C285 1.402 . S
N289 Gd252 2.601 . S
N289 C290 1.359 . S
N289 C293 1.334 . S
C290 C287 1.426 . S
C290 N289 1.359 . S
C290 C294 1.413 . S
C291 H282 0.930 . S
C291 C292 1.359 . S
C291 C293 1.394 . S
C292 C291 1.359 . S
C292 C294 1.391 . S
C292 H295 0.929 . S
C293 H275 0.930 . S
C293 N289 1.334 . S
C293 C291 1.394 . S
C294 C290 1.413 . S
C294 C292 1.391 . S
C294 C309 1.437 . S
H295 C292 0.929 . S
O296 Gd252 2.545 . S
O296 C311 1.258 . S
O297 Gd252 2.606 . S
O297 Gd253 2.362 . S
O297 C308 1.284 . S
O298 Gd253 2.324 . S
O298 C318 1.254 . S
O299 Gd252 2.429 . S
O299 C318 1.268 . S
O300 Gd252 2.545 . S
O300 C308 1.250 . S
O301 Gd252 2.412 . S
O301 C311 1.252 . S
O302 Gd253 2.545 . S
O302 C320 1.258 . S
O303 Gd252 2.362 . S
O303 Gd253 2.606 . S
O303 C319 1.284 . S
O304 Gd252 2.324 . S
O304 C327 1.254 . S
O305 Gd253 2.429 . S
O305 C327 1.268 . S
O306 Gd253 2.545 . S
O306 C319 1.250 . S
O307 Gd253 2.412 . S
O307 C320 1.252 . S
C308 O297 1.284 . S
C308 O300 1.250 . S
C309 H278 0.929 . S
C309 C294 1.437 . S
C309 C310 1.317 . S
C310 H281 0.930 . S
C310 C286 1.431 . S
C310 C309 1.317 . S
C311 Gd252 2.828 . S
C311 O296 1.258 . S
C311 O301 1.252 . S
C311 C312 1.497 . S
C312 C311 1.497 . S
C312 C313 1.395 . S
C312 C314 1.380 . S
C313 C312 1.395 . S
C313 C316 1.398 . S
C313 H328 0.930 . S
C314 C312 1.380 . S
C314 C315 1.391 . S
C314 H329 0.930 . S
C315 C314 1.391 . S
C315 C317 1.387 . S
C316 C313 1.398 . S
C316 C317 1.380 . S
C316 H330 0.930 . S
C317 C315 1.387 . S
C317 C316 1.380 . S
C317 H331 0.930 . S
C318 O298 1.254 . S
C318 O299 1.268 . S
C319 O303 1.284 . S
C319 O306 1.250 . S
C320 Gd253 2.828 . S
C320 O302 1.258 . S
C320 O307 1.252 . S
C320 C321 1.497 . S
C321 C320 1.497 . S
C321 C322 1.395 1_565 S
C321 C323 1.380 1_565 S
C322 C321 1.395 1_545 S
C322 C325 1.398 . S
C322 H332 0.930 . S
C323 C321 1.380 1_545 S
C323 C324 1.391 . S
C323 H333 0.930 1_545 S
C324 C323 1.391 . S
C324 C326 1.387 . S
C325 C322 1.398 . S
C325 C326 1.380 . S
C325 H334 0.930 . S
C326 C324 1.387 . S
C326 C325 1.380 . S
C326 H335 0.930 . S
C327 O304 1.254 . S
C327 O305 1.268 . S
H328 C313 0.930 . S
H329 C314 0.930 . S
H330 C316 0.930 . S
H331 C317 0.930 . S
H332 C322 0.930 . S
H333 C323 0.930 1_565 S
H334 C325 0.930 . S
H335 C326 0.930 . S
Gd336 N367 2.661 . S
Gd336 N373 2.601 . S
Gd336 O380 2.545 . S
Gd336 O381 2.606 . S
Gd336 O383 2.429 . S
Gd336 O384 2.545 . S
Gd336 O385 2.412 . S
Gd336 O387 2.362 . S
Gd336 O388 2.324 . S
Gd336 C395 2.828 . S
Gd337 N346 2.661 . S
Gd337 N350 2.601 . S
Gd337 O381 2.362 . S
Gd337 O382 2.324 . S
Gd337 O386 2.545 . S
Gd337 O387 2.606 . S
Gd337 O389 2.429 . S
Gd337 O390 2.545 . S
Gd337 O391 2.412 . S
Gd337 C404 2.828 . S
C338 C341 1.417 . S
C338 C343 1.431 . S
C338 C344 1.412 . S
C339 C342 1.437 . S
C339 C343 1.317 . S
C339 H358 0.929 . S
C340 C341 1.426 . S
C340 C342 1.413 . S
C340 N350 1.359 . S
C341 C338 1.417 . S
C341 C340 1.426 . S
C341 N346 1.350 . S
C342 C339 1.437 . S
C342 C340 1.413 . S
C342 C352 1.391 . S
C343 C338 1.431 . S
C343 C339 1.317 . S
C343 H354 0.930 . S
C344 C338 1.412 . S
C344 C345 1.355 . S
C344 H356 0.930 . S
C345 C344 1.355 . S
C345 C347 1.402 . S
C345 H357 0.930 . S
N346 Gd337 2.661 . S
N346 C341 1.350 . S
N346 C347 1.307 . S
C347 C345 1.402 . S
C347 N346 1.307 . S
C347 H348 0.930 . S
H348 C347 0.930 . S
C349 N350 1.334 . S
C349 C351 1.394 . S
C349 H353 0.930 . S
N350 Gd337 2.601 . S
N350 C340 1.359 . S
N350 C349 1.334 . S
C351 C349 1.394 . S
C351 C352 1.359 . S
C351 H363 0.930 . S
C352 C342 1.391 . S
C352 C351 1.359 . S
C352 H364 0.929 . S
H353 C349 0.930 . S
H354 C343 0.930 . S
H355 C372 0.930 . S
H356 C344 0.930 . S
H357 C345 0.930 . S
H358 C339 0.929 . S
H359 C377 0.930 . S
H360 C368 0.930 . S
H361 C369 0.930 . S
H362 C393 0.929 . S
H363 C351 0.930 . S
H364 C352 0.929 . S
H365 C394 0.930 . S
H366 C375 0.930 . S
N367 Gd336 2.661 . S
N367 C371 1.350 1_565 S
N367 C372 1.307 . S
C368 H360 0.930 . S
C368 C369 1.355 . S
C368 C370 1.412 . S
C369 H361 0.930 . S
C369 C368 1.355 . S
C369 C372 1.402 1_545 S
C370 C368 1.412 . S
C370 C371 1.417 . S
C370 C394 1.431 . S
C371 N367 1.350 1_545 S
C371 C370 1.417 . S
C371 C374 1.426 . S
C372 H355 0.930 . S
C372 N367 1.307 . S
C372 C369 1.402 1_565 S
N373 Gd336 2.601 . S
N373 C374 1.359 1_565 S
N373 C377 1.334 . S
C374 C371 1.426 . S
C374 N373 1.359 1_545 S
C374 C378 1.413 . S
C375 H366 0.930 . S
C375 C376 1.359 1_565 S
C375 C377 1.394 . S
C376 C375 1.359 1_545 S
C376 C378 1.391 . S
C376 H379 0.929 . S
C377 H359 0.930 . S
C377 N373 1.334 . S
C377 C375 1.394 . S
C378 C374 1.413 . S
C378 C376 1.391 . S
C378 C393 1.437 . S
H379 C376 0.929 . S
O380 Gd336 2.545 . S
O380 C395 1.258 . S
O381 Gd336 2.606 . S
O381 Gd337 2.362 . S
O381 C392 1.284 . S
O382 Gd337 2.324 . S
O382 C402 1.254 . S
O383 Gd336 2.429 . S
O383 C402 1.268 . S
O384 Gd336 2.545 . S
O384 C392 1.250 . S
O385 Gd336 2.412 . S
O385 C395 1.252 . S
O386 Gd337 2.545 . S
O386 C404 1.258 . S
O387 Gd336 2.362 . S
O387 Gd337 2.606 . S
O387 C403 1.284 . S
O388 Gd336 2.324 . S
O388 C411 1.254 . S
O389 Gd337 2.429 . S
O389 C411 1.268 . S
O390 Gd337 2.545 . S
O390 C403 1.250 . S
O391 Gd337 2.412 . S
O391 C404 1.252 . S
C392 O381 1.284 . S
C392 O384 1.250 . S
C393 H362 0.929 . S
C393 C378 1.437 . S
C393 C394 1.317 . S
C394 H365 0.930 . S
C394 C370 1.431 . S
C394 C393 1.317 . S
C395 Gd336 2.828 . S
C395 O380 1.258 . S
C395 O385 1.252 . S
C395 C396 1.497 . S
C396 C395 1.497 . S
C396 C397 1.395 . S
C396 C398 1.380 . S
C397 C396 1.395 . S
C397 C400 1.398 . S
C397 H412 0.930 . S
C398 C396 1.380 . S
C398 C399 1.391 . S
C398 H413 0.930 . S
C399 C398 1.391 . S
C399 C401 1.387 . S
C400 C397 1.398 . S
C400 C401 1.380 . S
C400 H414 0.930 . S
C401 C399 1.387 . S
C401 C400 1.380 . S
C401 H415 0.930 . S
C402 O382 1.254 . S
C402 O383 1.268 . S
C403 O387 1.284 . S
C403 O390 1.250 . S
C404 Gd337 2.828 . S
C404 O386 1.258 . S
C404 O391 1.252 . S
C404 C405 1.497 . S
C405 C404 1.497 . S
C405 C406 1.395 1_455 S
C405 C407 1.380 . S
C406 C405 1.395 1_655 S
C406 C409 1.398 . S
C406 H416 0.930 1_655 S
C407 C405 1.380 . S
C407 C408 1.391 1_455 S
C407 H417 0.930 . S
C408 C407 1.391 1_655 S
C408 C410 1.387 . S
C409 C406 1.398 . S
C409 C410 1.380 . S
C409 H418 0.930 . S
C410 C408 1.387 . S
C410 C409 1.380 . S
C410 H419 0.930 . S
C411 O388 1.254 . S
C411 O389 1.268 . S
H412 C397 0.930 . S
H413 C398 0.930 . S
H414 C400 0.930 . S
H415 C401 0.930 . S
H416 C406 0.930 1_455 S
H417 C407 0.930 . S
H418 C409 0.930 . S
H419 C410 0.930 . S
Gd420 N451 2.661 . S
Gd420 N457 2.601 . S
Gd420 O464 2.545 . S
Gd420 O465 2.606 . S
Gd420 O467 2.429 . S
Gd420 O468 2.545 . S
Gd420 O469 2.412 . S
Gd420 O471 2.362 . S
Gd420 O472 2.324 . S
Gd420 C479 2.828 . S
Gd421 N430 2.661 . S
Gd421 N434 2.601 . S
Gd421 O465 2.362 . S
Gd421 O466 2.324 . S
Gd421 O470 2.545 . S
Gd421 O471 2.606 . S
Gd421 O473 2.429 . S
Gd421 O474 2.545 . S
Gd421 O475 2.412 . S
Gd421 C488 2.828 . S
C422 C425 1.417 . S
C422 C427 1.431 . S
C422 C428 1.412 . S
C423 C426 1.437 . S
C423 C427 1.317 . S
C423 H442 0.929 . S
C424 C425 1.426 . S
C424 C426 1.413 . S
C424 N434 1.359 . S
C425 C422 1.417 . S
C425 C424 1.426 . S
C425 N430 1.350 . S
C426 C423 1.437 . S
C426 C424 1.413 . S
C426 C436 1.391 . S
C427 C422 1.431 . S
C427 C423 1.317 . S
C427 H438 0.930 . S
C428 C422 1.412 . S
C428 C429 1.355 . S
C428 H440 0.930 . S
C429 C428 1.355 . S
C429 C431 1.402 . S
C429 H441 0.930 . S
N430 Gd421 2.661 . S
N430 C425 1.350 . S
N430 C431 1.307 . S
C431 C429 1.402 . S
C431 N430 1.307 . S
C431 H432 0.930 . S
H432 C431 0.930 . S
C433 N434 1.334 . S
C433 C435 1.394 . S
C433 H437 0.930 . S
N434 Gd421 2.601 . S
N434 C424 1.359 . S
N434 C433 1.334 . S
C435 C433 1.394 . S
C435 C436 1.359 . S
C435 H447 0.930 . S
C436 C426 1.391 . S
C436 C435 1.359 . S
C436 H448 0.929 . S
H437 C433 0.930 . S
H438 C427 0.930 . S
H439 C456 0.930 . S
H440 C428 0.930 . S
H441 C429 0.930 . S
H442 C423 0.929 . S
H443 C461 0.930 . S
H444 C452 0.930 . S
H445 C453 0.930 . S
H446 C477 0.929 . S
H447 C435 0.930 . S
H448 C436 0.929 . S
H449 C478 0.930 . S
H450 C459 0.930 . S
N451 Gd420 2.661 . S
N451 C455 1.358 . S
N451 C456 1.307 . S
C452 H444 0.930 . S
C452 C453 1.355 . S
C452 C454 1.412 . S
C453 H445 0.930 . S
C453 C452 1.355 . S
C453 C456 1.402 1_655 S
C454 C452 1.412 . S
C454 C455 1.409 1_655 S
C454 C478 1.431 . S
C455 N451 1.358 . S
C455 C454 1.409 1_455 S
C455 C458 1.427 . S
C456 H439 0.930 . S
C456 N451 1.307 . S
C456 C453 1.402 1_455 S
N457 Gd420 2.601 . S
N457 C458 1.359 . S
N457 C461 1.334 . S
C458 C455 1.427 . S
C458 N457 1.359 . S
C458 C462 1.413 1_455 S
C459 H450 0.930 . S
C459 C460 1.359 1_455 S
C459 C461 1.394 . S
C460 C459 1.359 1_655 S
C460 C462 1.391 . S
C460 H463 0.929 . S
C461 H443 0.930 . S
C461 N457 1.334 . S
C461 C459 1.394 . S
C462 C458 1.413 1_655 S
C462 C460 1.391 . S
C462 C477 1.437 . S
H463 C460 0.929 . S
O464 Gd420 2.545 . S
O464 C479 1.258 . S
O465 Gd420 2.606 . S
O465 Gd421 2.362 . S
O465 C476 1.284 . S
O466 Gd421 2.324 . S
O466 C486 1.254 . S
O467 Gd420 2.429 . S
O467 C486 1.268 . S
O468 Gd420 2.545 . S
O468 C476 1.250 . S
O469 Gd420 2.412 . S
O469 C479 1.252 . S
O470 Gd421 2.545 . S
O470 C488 1.258 . S
O471 Gd420 2.362 . S
O471 Gd421 2.606 . S
O471 C487 1.284 . S
O472 Gd420 2.324 . S
O472 C495 1.254 . S
O473 Gd421 2.429 . S
O473 C495 1.268 . S
O474 Gd421 2.545 . S
O474 C487 1.250 . S
O475 Gd421 2.412 . S
O475 C488 1.252 . S
C476 O465 1.284 . S
C476 O468 1.250 . S
C477 H446 0.929 . S
C477 C462 1.437 . S
C477 C478 1.317 . S
C478 H449 0.930 . S
C478 C454 1.431 . S
C478 C477 1.317 . S
C479 Gd420 2.828 . S
C479 O464 1.258 . S
C479 O469 1.252 . S
C479 C480 1.497 . S
C480 C479 1.497 . S
C480 C481 1.395 . S
C480 C482 1.380 . S
C481 C480 1.395 . S
C481 C484 1.398 . S
C481 H496 0.930 . S
C482 C480 1.380 . S
C482 C483 1.391 . S
C482 H497 0.930 . S
C483 C482 1.391 . S
C483 C485 1.387 . S
C484 C481 1.398 . S
C484 C485 1.380 . S
C484 H498 0.930 . S
C485 C483 1.387 . S
C485 C484 1.380 . S
C485 H499 0.930 . S
C486 O466 1.254 . S
C486 O467 1.268 . S
C487 O471 1.284 . S
C487 O474 1.250 . S
C488 Gd421 2.828 . S
C488 O470 1.258 . S
C488 O475 1.252 . S
C488 C489 1.497 . S
C489 C488 1.497 . S
C489 C490 1.395 . S
C489 C491 1.380 . S
C490 C489 1.395 . S
C490 C493 1.398 . S
C490 H500 0.930 . S
C491 C489 1.380 . S
C491 C492 1.391 . S
C491 H501 0.930 . S
C492 C491 1.391 . S
C492 C494 1.387 . S
C493 C490 1.398 . S
C493 C494 1.380 . S
C493 H502 0.930 . S
C494 C492 1.387 . S
C494 C493 1.380 . S
C494 H503 0.930 . S
C495 O472 1.254 . S
C495 O473 1.268 . S
H496 C481 0.930 . S
H497 C482 0.930 . S
H498 C484 0.930 . S
H499 C485 0.930 . S
H500 C490 0.930 . S
H501 C491 0.930 . S
H502 C493 0.930 . S
H503 C494 0.930 . S
Gd504 N535 2.661 . S
Gd504 N541 2.601 . S
Gd504 O548 2.545 . S
Gd504 O549 2.606 . S
Gd504 O551 2.429 . S
Gd504 O552 2.545 . S
Gd504 O553 2.412 . S
Gd504 O555 2.362 . S
Gd504 O556 2.324 . S
Gd504 C563 2.828 1_545 S
Gd505 N514 2.661 . S
Gd505 N518 2.601 . S
Gd505 O549 2.362 . S
Gd505 O550 2.324 . S
Gd505 O554 2.545 . S
Gd505 O555 2.606 . S
Gd505 O557 2.429 . S
Gd505 O558 2.545 . S
Gd505 O559 2.412 . S
Gd505 C572 2.828 . S
C506 C509 1.417 . S
C506 C511 1.431 . S
C506 C512 1.412 . S
C507 C510 1.437 . S
C507 C511 1.317 . S
C507 H526 0.929 . S
C508 C509 1.426 . S
C508 C510 1.413 . S
C508 N518 1.359 . S
C509 C506 1.417 . S
C509 C508 1.426 . S
C509 N514 1.350 . S
C510 C507 1.437 . S
C510 C508 1.413 . S
C510 C520 1.391 . S
C511 C506 1.431 . S
C511 C507 1.317 . S
C511 H522 0.930 . S
C512 C506 1.412 . S
C512 C513 1.355 . S
C512 H524 0.930 . S
C513 C512 1.355 . S
C513 C515 1.402 . S
C513 H525 0.930 . S
N514 Gd505 2.661 . S
N514 C509 1.350 . S
N514 C515 1.307 . S
C515 C513 1.402 . S
C515 N514 1.307 . S
C515 H516 0.930 . S
H516 C515 0.930 . S
C517 N518 1.334 . S
C517 C519 1.394 . S
C517 H521 0.930 . S
N518 Gd505 2.601 . S
N518 C508 1.359 . S
N518 C517 1.334 . S
C519 C517 1.394 . S
C519 C520 1.359 . S
C519 H531 0.930 . S
C520 C510 1.391 . S
C520 C519 1.359 . S
C520 H532 0.929 . S
H521 C517 0.930 . S
H522 C511 0.930 . S
H523 C540 0.930 . S
H524 C512 0.930 . S
H525 C513 0.930 . S
H526 C507 0.929 . S
H527 C545 0.930 . S
H528 C536 0.930 . S
H529 C537 0.930 . S
H530 C561 0.929 . S
H531 C519 0.930 . S
H532 C520 0.929 . S
H533 C562 0.930 . S
H534 C543 0.930 . S
N535 Gd504 2.661 . S
N535 C539 1.350 . S
N535 C540 1.307 . S
C536 H528 0.930 . S
C536 C537 1.355 1_565 S
C536 C538 1.412 . S
C537 H529 0.930 . S
C537 C536 1.355 1_545 S
C537 C540 1.402 . S
C538 C536 1.412 . S
C538 C539 1.417 1_565 S
C538 C562 1.431 . S
C539 N535 1.350 . S
C539 C538 1.417 1_545 S
C539 C542 1.426 . S
C540 H523 0.930 . S
C540 N535 1.307 . S
C540 C537 1.402 . S
N541 Gd504 2.601 . S
N541 C542 1.359 . S
N541 C545 1.334 . S
C542 C539 1.426 . S
C542 N541 1.359 . S
C542 C546 1.413 1_545 S
C543 H534 0.930 . S
C543 C544 1.359 1_545 S
C543 C545 1.394 . S
C544 C543 1.359 1_565 S
C544 C546 1.391 . S
C544 H547 0.929 . S
C545 H527 0.930 . S
C545 N541 1.334 . S
C545 C543 1.394 . S
C546 C542 1.413 1_565 S
C546 C544 1.391 . S
C546 C561 1.437 . S
H547 C544 0.929 . S
O548 Gd504 2.545 . S
O548 C563 1.258 1_545 S
O549 Gd504 2.606 . S
O549 Gd505 2.362 . S
O549 C560 1.284 . S
O550 Gd505 2.324 . S
O550 C570 1.254 . S
O551 Gd504 2.429 . S
O551 C570 1.268 . S
O552 Gd504 2.545 . S
O552 C560 1.250 . S
O553 Gd504 2.412 . S
O553 C563 1.252 1_545 S
O554 Gd505 2.545 . S
O554 C572 1.258 . S
O555 Gd504 2.362 . S
O555 Gd505 2.606 . S
O555 C571 1.284 . S
O556 Gd504 2.324 . S
O556 C579 1.254 . S
O557 Gd505 2.429 . S
O557 C579 1.268 . S
O558 Gd505 2.545 . S
O558 C571 1.250 . S
O559 Gd505 2.412 . S
O559 C572 1.252 . S
C560 O549 1.284 . S
C560 O552 1.250 . S
C561 H530 0.929 . S
C561 C546 1.437 . S
C561 C562 1.317 . S
C562 H533 0.930 . S
C562 C538 1.431 . S
C562 C561 1.317 . S
C563 Gd504 2.828 1_565 S
C563 O548 1.258 1_565 S
C563 O553 1.252 1_565 S
C563 C564 1.497 . S
C564 C563 1.497 . S
C564 C565 1.395 . S
C564 C566 1.380 . S
C565 C564 1.395 . S
C565 C568 1.398 . S
C565 H580 0.930 . S
C566 C564 1.380 . S
C566 C567 1.391 . S
C566 H581 0.930 . S
C567 C566 1.391 . S
C567 C569 1.387 . S
C568 C565 1.398 . S
C568 C569 1.380 . S
C568 H582 0.930 . S
C569 C567 1.387 . S
C569 C568 1.380 . S
C569 H583 0.930 . S
C570 O550 1.254 . S
C570 O551 1.268 . S
C571 O555 1.284 . S
C571 O558 1.250 . S
C572 Gd505 2.828 . S
C572 O554 1.258 . S
C572 O559 1.252 . S
C572 C573 1.497 . S
C573 C572 1.497 . S
C573 C574 1.395 . S
C573 C575 1.380 . S
C574 C573 1.395 . S
C574 C577 1.398 . S
C574 H584 0.930 . S
C575 C573 1.380 . S
C575 C576 1.391 . S
C575 H585 0.930 . S
C576 C575 1.391 . S
C576 C578 1.387 . S
C577 C574 1.398 . S
C577 C578 1.380 . S
C577 H586 0.930 . S
C578 C576 1.387 . S
C578 C577 1.380 . S
C578 H587 0.930 . S
C579 O556 1.254 . S
C579 O557 1.268 . S
H580 C565 0.930 . S
H581 C566 0.930 . S
H582 C568 0.930 . S
H583 C569 0.930 . S
H584 C574 0.930 . S
H585 C575 0.930 . S
H586 C577 0.930 . S
H587 C578 0.930 . S
Gd588 N619 2.661 . S
Gd588 N625 2.601 . S
Gd588 O632 2.545 . S
Gd588 O633 2.606 . S
Gd588 O635 2.429 . S
Gd588 O636 2.545 . S
Gd588 O637 2.412 1_655 S
Gd588 O639 2.362 . S
Gd588 O640 2.324 . S
Gd588 C647 2.828 1_655 S
Gd589 N598 2.661 . S
Gd589 N602 2.601 . S
Gd589 O633 2.362 . S
Gd589 O634 2.324 . S
Gd589 O638 2.545 . S
Gd589 O639 2.606 . S
Gd589 O641 2.429 . S
Gd589 O642 2.545 . S
Gd589 O643 2.412 . S
Gd589 C656 2.828 . S
C590 C593 1.417 . S
C590 C595 1.431 1_545 S
C590 C596 1.412 . S
C591 C594 1.437 1_565 S
C591 C595 1.317 . S
C591 H610 0.929 . S
C592 C593 1.426 . S
C592 C594 1.413 . S
C592 N602 1.359 . S
C593 C590 1.417 . S
C593 C592 1.426 . S
C593 N598 1.350 . S
C594 C591 1.437 1_545 S
C594 C592 1.413 . S
C594 C604 1.391 . S
C595 C590 1.431 1_565 S
C595 C591 1.317 . S
C595 H606 0.930 . S
C596 C590 1.412 . S
C596 C597 1.355 . S
C596 H608 0.930 1_545 S
C597 C596 1.355 . S
C597 C599 1.402 . S
C597 H609 0.930 . S
N598 Gd589 2.661 . S
N598 C593 1.350 . S
N598 C599 1.307 . S
C599 C597 1.402 . S
C599 N598 1.307 . S
C599 H600 0.930 . S
H600 C599 0.930 . S
C601 N602 1.334 . S
C601 C603 1.394 . S
C601 H605 0.930 . S
N602 Gd589 2.601 . S
N602 C592 1.359 . S
N602 C601 1.334 . S
C603 C601 1.394 . S
C603 C604 1.359 . S
C603 H615 0.930 . S
C604 C594 1.391 . S
C604 C603 1.359 . S
C604 H616 0.929 . S
H605 C601 0.930 . S
H606 C595 0.930 . S
H607 C624 0.930 . S
H608 C596 0.930 1_565 S
H609 C597 0.930 . S
H610 C591 0.929 . S
H611 C629 0.930 . S
H612 C620 0.930 . S
H613 C621 0.930 . S
H614 C645 0.929 . S
H615 C603 0.930 . S
H616 C604 0.929 . S
H617 C646 0.930 . S
H618 C627 0.930 . S
N619 Gd588 2.661 . S
N619 C623 1.350 . S
N619 C624 1.307 . S
C620 H612 0.930 . S
C620 C621 1.355 1_455 S
C620 C622 1.412 . S
C621 H613 0.930 . S
C621 C620 1.355 1_655 S
C621 C624 1.402 . S
C622 C620 1.412 . S
C622 C623 1.417 1_455 S
C622 C646 1.431 . S
C623 N619 1.350 . S
C623 C622 1.417 1_655 S
C623 C626 1.426 1_655 S
C624 H607 0.930 . S
C624 N619 1.307 . S
C624 C621 1.402 . S
N625 Gd588 2.601 . S
N625 C626 1.359 1_655 S
N625 C629 1.334 . S
C626 C623 1.426 1_455 S
C626 N625 1.359 1_455 S
C626 C630 1.413 . S
C627 H618 0.930 . S
C627 C628 1.359 . S
C627 C629 1.394 1_455 S
C628 C627 1.359 . S
C628 C630 1.391 . S
C628 H631 0.929 . S
C629 H611 0.930 . S
C629 N625 1.334 . S
C629 C627 1.394 1_655 S
C630 C626 1.413 . S
C630 C628 1.391 . S
C630 C645 1.437 . S
H631 C628 0.929 . S
O632 Gd588 2.545 . S
O632 C647 1.258 1_655 S
O633 Gd588 2.606 . S
O633 Gd589 2.362 . S
O633 C644 1.284 . S
O634 Gd589 2.324 . S
O634 C654 1.254 . S
O635 Gd588 2.429 . S
O635 C654 1.268 . S
O636 Gd588 2.545 . S
O636 C644 1.250 . S
O637 Gd588 2.412 1_455 S
O637 C647 1.252 . S
O638 Gd589 2.545 . S
O638 C656 1.258 . S
O639 Gd588 2.362 . S
O639 Gd589 2.606 . S
O639 C655 1.284 . S
O640 Gd588 2.324 . S
O640 C663 1.254 . S
O641 Gd589 2.429 . S
O641 C663 1.268 . S
O642 Gd589 2.545 . S
O642 C655 1.250 . S
O643 Gd589 2.412 . S
O643 C656 1.252 . S
C644 O633 1.284 . S
C644 O636 1.250 . S
C645 H614 0.929 . S
C645 C630 1.437 . S
C645 C646 1.317 . S
C646 H617 0.930 . S
C646 C622 1.431 . S
C646 C645 1.317 . S
C647 Gd588 2.828 1_455 S
C647 O632 1.258 1_455 S
C647 O637 1.252 . S
C647 C648 1.497 . S
C648 C647 1.497 . S
C648 C649 1.395 . S
C648 C650 1.380 . S
C649 C648 1.395 . S
C649 C652 1.398 . S
C649 H664 0.930 . S
C650 C648 1.380 . S
C650 C651 1.391 . S
C650 H665 0.930 . S
C651 C650 1.391 . S
C651 C653 1.387 . S
C652 C649 1.398 . S
C652 C653 1.380 . S
C652 H666 0.930 . S
C653 C651 1.387 . S
C653 C652 1.380 . S
C653 H667 0.930 . S
C654 O634 1.254 . S
C654 O635 1.268 . S
C655 O639 1.284 . S
C655 O642 1.250 . S
C656 Gd589 2.828 . S
C656 O638 1.258 . S
C656 O643 1.252 . S
C656 C657 1.497 . S
C657 C656 1.497 . S
C657 C658 1.395 . S
C657 C659 1.380 . S
C658 C657 1.395 . S
C658 C661 1.398 . S
C658 H668 0.930 . S
C659 C657 1.380 . S
C659 C660 1.391 . S
C659 H669 0.930 . S
C660 C659 1.391 . S
C660 C662 1.387 . S
C661 C658 1.398 . S
C661 C662 1.380 . S
C661 H670 0.930 . S
C662 C660 1.387 . S
C662 C661 1.380 . S
C662 H671 0.930 . S
C663 O640 1.254 . S
C663 O641 1.268 . S
H664 C649 0.930 . S
H665 C650 0.930 . S
H666 C652 0.930 . S
H667 C653 0.930 . S
H668 C658 0.930 . S
H669 C659 0.930 . S
H670 C661 0.930 . S
H671 C662 0.930 . S
Gd672 N703 2.661 . S
Gd672 N709 2.601 . S
Gd672 O716 2.545 . S
Gd672 O717 2.606 . S
Gd672 O719 2.429 . S
Gd672 O720 2.545 . S
Gd672 O721 2.412 . S
Gd672 O723 2.362 . S
Gd672 O724 2.324 . S
Gd672 C731 2.828 . S
Gd673 N682 2.661 . S
Gd673 N686 2.601 . S
Gd673 O717 2.362 . S
Gd673 O718 2.324 . S
Gd673 O722 2.545 . S
Gd673 O723 2.606 . S
Gd673 O725 2.429 . S
Gd673 O726 2.545 . S
Gd673 O727 2.412 . S
Gd673 C740 2.828 . S
C674 C677 1.417 . S
C674 C679 1.431 1_655 S
C674 C680 1.412 . S
C675 C678 1.437 1_455 S
C675 C679 1.317 . S
C675 H694 0.929 . S
C676 C677 1.426 . S
C676 C678 1.413 . S
C676 N686 1.359 . S
C677 C674 1.417 . S
C677 C676 1.426 . S
C677 N682 1.350 . S
C678 C675 1.437 1_655 S
C678 C676 1.413 . S
C678 C688 1.391 . S
C679 C674 1.431 1_455 S
C679 C675 1.317 . S
C679 H690 0.930 . S
C680 C674 1.412 . S
C680 C681 1.369 . S
C680 H692 0.916 1_655 S
C681 C680 1.369 . S
C681 C683 1.402 . S
C681 H693 0.930 . S
N682 Gd673 2.661 . S
N682 C677 1.350 . S
N682 C683 1.307 . S
C683 C681 1.402 . S
C683 N682 1.307 . S
C683 H684 0.930 . S
H684 C683 0.930 . S
C685 N686 1.334 . S
C685 C687 1.394 . S
C685 H689 0.930 . S
N686 Gd673 2.601 . S
N686 C676 1.359 . S
N686 C685 1.334 . S
C687 C685 1.394 . S
C687 C688 1.359 . S
C687 H699 0.930 . S
C688 C678 1.391 . S
C688 C687 1.359 . S
C688 H700 0.929 . S
H689 C685 0.930 . S
H690 C679 0.930 . S
H691 C708 0.930 . S
H692 C680 0.916 1_455 S
H693 C681 0.930 . S
H694 C675 0.929 . S
H695 C713 0.930 . S
H696 C704 0.930 . S
H697 C705 0.930 . S
H698 C729 0.929 . S
H699 C687 0.930 . S
H700 C688 0.929 . S
H701 C730 0.930 . S
H702 C711 0.930 . S
N703 Gd672 2.661 . S
N703 C707 1.350 . S
N703 C708 1.307 . S
C704 H696 0.930 . S
C704 C705 1.355 . S
C704 C706 1.412 . S
C705 H697 0.930 . S
C705 C704 1.355 . S
C705 C708 1.402 . S
C706 C704 1.412 . S
C706 C707 1.417 . S
C706 C730 1.431 . S
C707 N703 1.350 . S
C707 C706 1.417 . S
C707 C710 1.426 . S
C708 H691 0.930 . S
C708 N703 1.307 . S
C708 C705 1.402 . S
N709 Gd672 2.601 . S
N709 C710 1.359 . S
N709 C713 1.334 . S
C710 C707 1.426 . S
C710 N709 1.359 . S
C710 C714 1.413 . S
C711 H702 0.930 . S
C711 C712 1.359 . S
C711 C713 1.394 . S
C712 C711 1.359 . S
C712 C714 1.391 . S
C712 H715 0.929 . S
C713 H695 0.930 . S
C713 N709 1.334 . S
C713 C711 1.394 . S
C714 C710 1.413 . S
C714 C712 1.391 . S
C714 C729 1.437 . S
H715 C712 0.929 . S
O716 Gd672 2.545 . S
O716 C731 1.258 . S
O717 Gd672 2.606 . S
O717 Gd673 2.362 . S
O717 C728 1.284 . S
O718 Gd673 2.324 . S
O718 C738 1.254 . S
O719 Gd672 2.429 . S
O719 C738 1.268 . S
O720 Gd672 2.545 . S
O720 C728 1.250 . S
O721 Gd672 2.412 . S
O721 C731 1.252 . S
O722 Gd673 2.545 . S
O722 C740 1.258 . S
O723 Gd672 2.362 . S
O723 Gd673 2.606 . S
O723 C739 1.284 . S
O724 Gd672 2.324 . S
O724 C747 1.254 . S
O725 Gd673 2.429 . S
O725 C747 1.268 . S
O726 Gd673 2.545 . S
O726 C739 1.250 . S
O727 Gd673 2.412 . S
O727 C740 1.252 . S
C728 O717 1.284 . S
C728 O720 1.250 . S
C729 H698 0.929 . S
C729 C714 1.437 . S
C729 C730 1.317 . S
C730 H701 0.930 . S
C730 C706 1.431 . S
C730 C729 1.317 . S
C731 Gd672 2.828 . S
C731 O716 1.258 . S
C731 O721 1.252 . S
C731 C732 1.497 . S
C732 C731 1.497 . S
C732 C733 1.395 . S
C732 C734 1.380 . S
C733 C732 1.395 . S
C733 C736 1.398 . S
C733 H748 0.930 . S
C734 C732 1.380 . S
C734 C735 1.391 . S
C734 H749 0.930 . S
C735 C734 1.391 . S
C735 C737 1.387 . S
C736 C733 1.398 . S
C736 C737 1.380 . S
C736 H750 0.930 . S
C737 C735 1.387 . S
C737 C736 1.380 . S
C737 H751 0.930 . S
C738 O718 1.254 . S
C738 O719 1.268 . S
C739 O723 1.284 . S
C739 O726 1.250 . S
C740 Gd673 2.828 . S
C740 O722 1.258 . S
C740 O727 1.252 . S
C740 C741 1.497 . S
C741 C740 1.497 . S
C741 C742 1.395 . S
C741 C743 1.380 . S
C742 C741 1.395 . S
C742 C745 1.398 . S
C742 H752 0.930 . S
C743 C741 1.380 . S
C743 C744 1.391 . S
C743 H753 0.930 . S
C744 C743 1.391 . S
C744 C746 1.387 . S
C745 C742 1.398 . S
C745 C746 1.380 . S
C745 H754 0.930 . S
C746 C744 1.387 . S
C746 C745 1.380 . S
C746 H755 0.930 . S
C747 O724 1.254 . S
C747 O725 1.268 . S
H748 C733 0.930 . S
H749 C734 0.930 . S
H750 C736 0.930 . S
H751 C737 0.930 . S
H752 C742 0.930 . S
H753 C743 0.930 . S
H754 C745 0.930 . S
H755 C746 0.930 . S
H756 C762 0.930 . S
H757 C765 0.930 . S
H758 C766 0.930 . S
H759 C767 0.930 . S
H760 C770 0.930 . S
H761 C771 0.930 . S
C762 H756 0.930 . S
C762 C763 1.355 . S
C762 C764 1.415 . S
C763 C762 1.355 . S
C763 C765 1.419 1_554 S
C764 C762 1.415 . S
C764 C769 1.425 1_554 S
C764 C771 1.409 . S
C765 H757 0.930 . S
C765 C763 1.419 1_556 S
C765 C766 1.362 . S
C766 H758 0.930 . S
C766 C765 1.362 . S
C766 C769 1.409 . S
C767 H759 0.930 . S
C767 C768 1.355 1_556 S
C767 C769 1.415 . S
C768 C767 1.355 1_554 S
C768 C770 1.419 . S
C769 C764 1.425 1_556 S
C769 C766 1.409 . S
C769 C767 1.415 . S
C770 H760 0.930 . S
C770 C768 1.419 . S
C770 C771 1.362 . S
C771 H761 0.930 . S
C771 C764 1.409 . S
C771 C770 1.362 . S
H772 C778 0.930 . S
H773 C781 0.930 . S
H774 C782 0.930 1_556 S
H775 C783 0.930 1_556 S
H776 C786 0.930 . S
H777 C787 0.930 . S
C778 H772 0.930 . S
C778 C779 1.355 . S
C778 C780 1.415 . S
C779 C778 1.355 . S
C779 C781 1.419 . S
C780 C778 1.415 . S
C780 C785 1.425 . S
C780 C787 1.409 . S
C781 H773 0.930 . S
C781 C779 1.419 . S
C781 C782 1.362 . S
C782 H774 0.930 1_554 S
C782 C781 1.362 . S
C782 C785 1.409 . S
C783 H775 0.930 1_554 S
C783 C784 1.355 . S
C783 C785 1.415 . S
C784 C783 1.355 . S
C784 C786 1.419 . S
C785 C780 1.425 . S
C785 C782 1.409 . S
C785 C783 1.415 . S
C786 H776 0.930 . S
C786 C784 1.419 . S
C786 C787 1.362 . S
C787 H777 0.930 . S
C787 C780 1.409 . S
C787 C786 1.362 . S
H788 C794 0.930 . S
H789 C797 0.930 . S
H790 C798 0.930 . S
H791 C799 0.930 . S
H792 C802 0.930 . S
H793 C803 0.930 . S
C794 H788 0.930 . S
C794 C795 1.355 . S
C794 C796 1.415 . S
C795 C794 1.355 . S
C795 C797 1.419 . S
C796 C794 1.415 . S
C796 C801 1.425 . S
C796 C803 1.409 . S
C797 H789 0.930 . S
C797 C795 1.419 . S
C797 C798 1.362 . S
C798 H790 0.930 . S
C798 C797 1.362 . S
C798 C801 1.409 . S
C799 H791 0.930 . S
C799 C800 1.355 . S
C799 C801 1.415 . S
C800 C799 1.355 . S
C800 C802 1.419 . S
C801 C796 1.425 . S
C801 C798 1.409 . S
C801 C799 1.415 . S
C802 H792 0.930 . S
C802 C800 1.419 . S
C802 C803 1.362 . S
C803 H793 0.930 . S
C803 C796 1.409 . S
C803 C802 1.362 . S
H804 C810 0.930 . S
H805 C813 0.930 . S
H806 C814 0.930 . S
H807 C815 0.930 . S
H808 C818 0.930 . S
H809 C819 0.930 . S
C810 H804 0.930 . S
C810 C811 1.355 . S
C810 C812 1.415 . S
C811 C810 1.355 . S
C811 C813 1.419 1_556 S
C812 C810 1.415 . S
C812 C817 1.425 1_556 S
C812 C819 1.409 . S
C813 H805 0.930 . S
C813 C811 1.419 1_554 S
C813 C814 1.362 . S
C814 H806 0.930 . S
C814 C813 1.362 . S
C814 C817 1.409 . S
C815 H807 0.930 . S
C815 C816 1.349 1_554 S
C815 C817 1.415 . S
C816 C815 1.349 1_556 S
C816 C818 1.428 . S
C817 C812 1.425 1_554 S
C817 C814 1.409 . S
C817 C815 1.415 . S
C818 H808 0.930 . S
C818 C816 1.428 . S
C818 C819 1.362 . S
C819 H809 0.930 . S
C819 C812 1.409 . S
C819 C818 1.362 . S
H820 C826 0.930 . S
H821 C829 0.930 . S
H822 C830 0.930 . S
H823 C831 0.930 . S
H824 C834 0.930 . S
H825 C835 0.930 . S
C826 H820 0.930 . S
C826 C827 1.350 1_556 S
C826 C828 1.415 . S
C827 C826 1.350 1_554 S
C827 C829 1.423 . S
C828 C826 1.415 . S
C828 C833 1.425 . S
C828 C835 1.409 . S
C829 H821 0.930 . S
C829 C827 1.423 . S
C829 C830 1.362 . S
C830 H822 0.930 . S
C830 C829 1.362 . S
C830 C833 1.409 1_554 S
C831 H823 0.930 . S
C831 C832 1.355 . S
C831 C833 1.415 . S
C832 C831 1.355 . S
C832 C834 1.419 . S
C833 C828 1.425 . S
C833 C830 1.409 1_556 S
C833 C831 1.415 . S
C834 H824 0.930 . S
C834 C832 1.419 . S
C834 C835 1.362 . S
C835 H825 0.930 . S
C835 C828 1.409 . S
C835 C834 1.362 . S
H836 C842 0.930 . S
H837 C845 0.930 . S
H838 C846 0.930 . S
H839 C847 0.930 . S
H840 C850 0.930 . S
H841 C851 0.930 . S
C842 H836 0.930 . S
C842 C843 1.355 1_554 S
C842 C844 1.415 . S
C843 C842 1.355 1_556 S
C843 C845 1.419 . S
C844 C842 1.415 . S
C844 C849 1.425 1_554 S
C844 C851 1.409 . S
C845 H837 0.930 . S
C845 C843 1.419 . S
C845 C846 1.362 . S
C846 H838 0.930 . S
C846 C845 1.362 . S
C846 C849 1.409 . S
C847 H839 0.930 . S
C847 C848 1.355 . S
C847 C849 1.415 . S
C848 C847 1.355 . S
C848 C850 1.419 1_556 S
C849 C844 1.425 1_556 S
C849 C846 1.409 . S
C849 C847 1.415 . S
C850 H840 0.930 . S
C850 C848 1.419 1_554 S
C850 C851 1.362 . S
C851 H841 0.930 . S
C851 C844 1.409 . S
C851 C850 1.362 . S
H852 C858 0.930 . S
H853 C861 0.930 . S
H854 C862 0.930 . S
H855 C863 0.930 . S
H856 C866 0.930 . S
H857 C867 0.930 . S
C858 H852 0.930 . S
C858 C859 1.355 . S
C858 C860 1.415 . S
C859 C858 1.355 . S
C859 C861 1.419 . S
C860 C858 1.415 . S
C860 C865 1.425 . S
C860 C867 1.409 . S
C861 H853 0.930 . S
C861 C859 1.419 . S
C861 C862 1.362 . S
C862 H854 0.930 . S
C862 C861 1.362 . S
C862 C865 1.409 . S
C863 H855 0.930 . S
C863 C864 1.355 . S
C863 C865 1.415 . S
C864 C863 1.355 . S
C864 C866 1.419 . S
C865 C860 1.425 . S
C865 C862 1.409 . S
C865 C863 1.415 . S
C866 H856 0.930 . S
C866 C864 1.419 . S
C866 C867 1.362 . S
C867 H857 0.930 . S
C867 C860 1.409 . S
C867 C866 1.362 . S
H868 C874 0.930 . S
H869 C877 0.930 . S
H870 C878 0.930 . S
H871 C879 0.930 . S
H872 C882 0.930 . S
H873 C883 0.930 . S
C874 H868 0.930 . S
C874 C875 1.355 . S
C874 C876 1.415 . S
C875 C874 1.355 . S
C875 C877 1.419 . S
C876 C874 1.415 . S
C876 C881 1.425 . S
C876 C883 1.409 . S
C877 H869 0.930 . S
C877 C875 1.419 . S
C877 C878 1.362 . S
C878 H870 0.930 . S
C878 C877 1.362 . S
C878 C881 1.409 . S
C879 H871 0.930 . S
C879 C880 1.355 . S
C879 C881 1.415 1_565 S
C880 C879 1.355 . S
C880 C882 1.419 . S
C881 C876 1.425 . S
C881 C878 1.409 . S
C881 C879 1.415 1_545 S
C882 H872 0.930 . S
C882 C880 1.419 . S
C882 C883 1.362 1_565 S
C883 H873 0.930 . S
C883 C876 1.409 . S
C883 C882 1.362 1_545 S
H884 C890 0.930 . S
H885 C893 0.930 . S
H886 C894 0.930 . S
H887 C895 0.930 . S
H888 C898 0.930 . S
H889 C899 0.930 . S
C890 H884 0.930 . S
C890 C891 1.355 . S
C890 C892 1.415 . S
C891 C890 1.355 . S
C891 C893 1.419 1_455 S
C892 C890 1.415 . S
C892 C897 1.425 1_455 S
C892 C899 1.409 . S
C893 H885 0.930 . S
C893 C891 1.419 1_655 S
C893 C894 1.362 . S
C894 H886 0.930 . S
C894 C893 1.362 . S
C894 C897 1.409 . S
C895 H887 0.930 . S
C895 C896 1.355 . S
C895 C897 1.415 . S
C896 C895 1.355 . S
C896 C898 1.419 . S
C897 C892 1.425 1_655 S
C897 C894 1.409 . S
C897 C895 1.415 . S
C898 H888 0.930 . S
C898 C896 1.419 . S
C898 C899 1.362 1_655 S
C899 H889 0.930 . S
C899 C892 1.409 . S
C899 C898 1.362 1_455 S
H900 C906 0.930 . S
H901 C909 0.930 . S
H902 C910 0.930 . S
H903 C911 0.930 . S
H904 C914 0.930 . S
H905 C915 0.930 . S
C906 H900 0.930 . S
C906 C907 1.355 . S
C906 C908 1.415 . S
C907 C906 1.355 . S
C907 C909 1.419 . S
C908 C906 1.415 . S
C908 C913 1.425 . S
C908 C915 1.409 . S
C909 H901 0.930 . S
C909 C907 1.419 . S
C909 C910 1.362 . S
C910 H902 0.930 . S
C910 C909 1.362 . S
C910 C913 1.409 . S
C911 H903 0.930 . S
C911 C912 1.355 . S
C911 C913 1.415 . S
C912 C911 1.355 . S
C912 C914 1.419 . S
C913 C908 1.425 . S
C913 C910 1.409 . S
C913 C911 1.415 . S
C914 H904 0.930 . S
C914 C912 1.419 . S
C914 C915 1.362 . S
C915 H905 0.930 . S
C915 C908 1.409 . S
C915 C914 1.362 . S
H916 C922 0.930 . S
H917 C925 0.930 . S
H918 C926 0.930 . S
H919 C927 0.930 . S
H920 C930 0.930 . S
H921 C931 0.930 . S
C922 H916 0.930 . S
C922 C923 1.355 . S
C922 C924 1.415 . S
C923 C922 1.355 . S
C923 C925 1.419 . S
C924 C922 1.415 . S
C924 C929 1.425 . S
C924 C931 1.409 . S
C925 H917 0.930 . S
C925 C923 1.419 . S
C925 C926 1.362 . S
C926 H918 0.930 . S
C926 C925 1.362 . S
C926 C929 1.409 . S
C927 H919 0.930 . S
C927 C928 1.355 . S
C927 C929 1.415 . S
C928 C927 1.355 . S
C928 C930 1.419 . S
C929 C924 1.425 . S
C929 C926 1.409 . S
C929 C927 1.415 . S
C930 H920 0.930 . S
C930 C928 1.419 . S
C930 C931 1.362 . S
C931 H921 0.930 . S
C931 C924 1.409 . S
C931 C930 1.362 . S
H932 C938 0.930 . S
H933 C941 0.930 . S
H934 C942 0.930 . S
H935 C943 0.930 . S
H936 C946 0.930 . S
H937 C947 0.930 . S
C938 H932 0.930 . S
C938 C939 1.355 . S
C938 C940 1.415 . S
C939 C938 1.355 . S
C939 C941 1.419 . S
C940 C938 1.415 . S
C940 C945 1.425 . S
C940 C947 1.409 . S
C941 H933 0.930 . S
C941 C939 1.419 . S
C941 C942 1.362 . S
C942 H934 0.930 . S
C942 C941 1.362 . S
C942 C945 1.409 . S
C943 H935 0.930 . S
C943 C944 1.355 . S
C943 C945 1.415 . S
C944 C943 1.355 . S
C944 C946 1.419 . S
C945 C940 1.425 . S
C945 C942 1.409 . S
C945 C943 1.415 . S
C946 H936 0.930 . S
C946 C944 1.419 . S
C946 C947 1.362 . S
C947 H937 0.930 . S
C947 C940 1.409 . S
C947 C946 1.362 . S
H948 C954 0.930 . S
H949 C957 0.930 . S
H950 C958 0.930 . S
H951 C959 0.930 . S
H952 C962 0.930 . S
H953 C963 0.930 . S
C954 H948 0.930 . S
C954 C955 1.355 . S
C954 C956 1.415 . S
C955 C954 1.355 . S
C955 C957 1.419 . S
C956 C954 1.415 . S
C956 C961 1.425 . S
C956 C963 1.409 . S
C957 H949 0.930 . S
C957 C955 1.419 . S
C957 C958 1.362 . S
C958 H950 0.930 . S
C958 C957 1.362 . S
C958 C961 1.409 . S
C959 H951 0.930 . S
C959 C960 1.355 . S
C959 C961 1.415 . S
C960 C959 1.355 . S
C960 C962 1.419 . S
C961 C956 1.425 . S
C961 C958 1.409 . S
C961 C959 1.415 . S
C962 H952 0.930 . S
C962 C960 1.419 . S
C962 C963 1.362 . S
C963 H953 0.930 . S
C963 C956 1.409 . S
C963 C962 1.362 . S
H964 C970 0.930 . S
H965 C973 0.930 . S
H966 C974 0.930 . S
H967 C975 0.930 . S
H968 C978 0.930 . S
H969 C979 0.930 . S
C970 H964 0.930 . S
C970 C971 1.355 . S
C970 C972 1.415 . S
C971 C970 1.355 . S
C971 C973 1.419 . S
C972 C970 1.415 . S
C972 C977 1.425 . S
C972 C979 1.409 . S
C973 H965 0.930 . S
C973 C971 1.419 . S
C973 C974 1.362 . S
C974 H966 0.930 . S
C974 C973 1.362 . S
C974 C977 1.409 . S
C975 H967 0.930 . S
C975 C976 1.355 . S
C975 C977 1.415 . S
C976 C975 1.355 . S
C976 C978 1.419 . S
C977 C972 1.425 . S
C977 C974 1.409 . S
C977 C975 1.415 . S
C978 H968 0.930 . S
C978 C976 1.419 . S
C978 C979 1.362 . S
C979 H969 0.930 . S
C979 C972 1.409 . S
C979 C978 1.362 . S
H980 C986 0.930 . S
H981 C989 0.930 . S
H982 C990 0.930 . S
H983 C991 0.930 . S
H984 C994 0.930 . S
H985 C995 0.930 . S
C986 H980 0.930 . S
C986 C987 1.355 . S
C986 C988 1.415 . S
C987 C986 1.355 . S
C987 C989 1.419 . S
C988 C986 1.415 . S
C988 C993 1.425 . S
C988 C995 1.409 . S
C989 H981 0.930 . S
C989 C987 1.419 . S
C989 C990 1.362 . S
C990 H982 0.930 . S
C990 C989 1.362 . S
C990 C993 1.409 . S
C991 H983 0.930 . S
C991 C992 1.355 . S
C991 C993 1.415 . S
C992 C991 1.355 . S
C992 C994 1.419 . S
C993 C988 1.425 . S
C993 C990 1.409 . S
C993 C991 1.415 . S
C994 H984 0.930 . S
C994 C992 1.419 . S
C994 C995 1.362 . S
C995 H985 0.930 . S
C995 C988 1.409 . S
C995 C994 1.362 . S
H996 C1002 0.930 . S
H997 C1005 0.930 . S
H998 C1006 0.930 1_545 S
H999 C1007 0.930 . S
H1000 C1010 0.930 . S
H1001 C1011 0.930 . S
C1002 H996 0.930 . S
C1002 C1003 1.355 . S
C1002 C1004 1.415 1_565 S
C1003 C1002 1.355 . S
C1003 C1005 1.419 . S
C1004 C1002 1.415 1_545 S
C1004 C1009 1.425 . S
C1004 C1011 1.409 . S
C1005 H997 0.930 . S
C1005 C1003 1.419 . S
C1005 C1006 1.362 . S
C1006 H998 0.930 1_565 S
C1006 C1005 1.362 . S
C1006 C1009 1.409 1_565 S
C1007 H999 0.930 . S
C1007 C1008 1.355 . S
C1007 C1009 1.415 . S
C1008 C1007 1.355 . S
C1008 C1010 1.419 . S
C1009 C1004 1.425 . S
C1009 C1006 1.409 1_545 S
C1009 C1007 1.415 . S
C1010 H1000 0.930 . S
C1010 C1008 1.419 . S
C1010 C1011 1.362 . S
C1011 H1001 0.930 . S
C1011 C1004 1.409 . S
C1011 C1010 1.362 . S
H1012 C1018 0.930 . S
H1013 C1021 0.930 . S
H1014 C1022 0.930 . S
H1015 C1023 0.930 . S
H1016 C1026 0.930 . S
H1017 C1027 0.930 . S
C1018 H1012 0.930 . S
C1018 C1019 1.355 . S
C1018 C1020 1.415 . S
C1019 C1018 1.355 . S
C1019 C1021 1.419 . S
C1020 C1018 1.415 . S
C1020 C1025 1.425 1_655 S
C1020 C1027 1.409 1_655 S
C1021 H1013 0.930 . S
C1021 C1019 1.419 . S
C1021 C1022 1.362 . S
C1022 H1014 0.930 . S
C1022 C1021 1.362 . S
C1022 C1025 1.409 1_655 S
C1023 H1015 0.930 . S
C1023 C1024 1.355 . S
C1023 C1025 1.415 . S
C1024 C1023 1.355 . S
C1024 C1026 1.419 . S
C1025 C1020 1.425 1_455 S
C1025 C1022 1.409 1_455 S
C1025 C1023 1.415 . S
C1026 H1016 0.930 . S
C1026 C1024 1.419 . S
C1026 C1027 1.362 . S
C1027 H1017 0.930 . S
C1027 C1020 1.409 1_455 S
C1027 C1026 1.362 . S
H1028 C1034 0.930 . S
H1029 C1037 0.930 . S
H1030 C1038 0.930 . S
H1031 C1039 0.930 . S
H1032 C1042 0.930 . S
H1033 C1043 0.930 . S
C1034 H1028 0.930 . S
C1034 C1035 1.355 . S
C1034 C1036 1.415 . S
C1035 C1034 1.355 . S
C1035 C1037 1.419 . S
C1036 C1034 1.415 . S
C1036 C1041 1.425 . S
C1036 C1043 1.409 . S
C1037 H1029 0.930 . S
C1037 C1035 1.419 . S
C1037 C1038 1.362 . S
C1038 H1030 0.930 . S
C1038 C1037 1.362 . S
C1038 C1041 1.409 . S
C1039 H1031 0.930 . S
C1039 C1040 1.355 . S
C1039 C1041 1.415 . S
C1040 C1039 1.355 . S
C1040 C1042 1.419 . S
C1041 C1036 1.425 . S
C1041 C1038 1.409 . S
C1041 C1039 1.415 . S
C1042 H1032 0.930 . S
C1042 C1040 1.419 . S
C1042 C1043 1.362 . S
C1043 H1033 0.930 . S
C1043 C1036 1.409 . S
C1043 C1042 1.362 . S
H1044 C1050 0.930 . S
H1045 C1053 0.930 . S
H1046 C1054 0.930 . S
H1047 C1055 0.930 . S
H1048 C1058 0.930 . S
H1049 C1059 0.930 . S
C1050 H1044 0.930 . S
C1050 C1051 1.355 . S
C1050 C1052 1.415 . S
C1051 C1050 1.355 . S
C1051 C1053 1.419 . S
C1052 C1050 1.415 . S
C1052 C1057 1.425 . S
C1052 C1059 1.409 . S
C1053 H1045 0.930 . S
C1053 C1051 1.419 . S
C1053 C1054 1.362 . S
C1054 H1046 0.930 . S
C1054 C1053 1.362 . S
C1054 C1057 1.409 . S
C1055 H1047 0.930 . S
C1055 C1056 1.355 . S
C1055 C1057 1.415 . S
C1056 C1055 1.355 . S
C1056 C1058 1.419 . S
C1057 C1052 1.425 . S
C1057 C1054 1.409 . S
C1057 C1055 1.415 . S
C1058 H1048 0.930 . S
C1058 C1056 1.419 . S
C1058 C1059 1.362 . S
C1059 H1049 0.930 . S
C1059 C1052 1.409 . S
C1059 C1058 1.362 . S
H1060 C1066 0.930 . S
H1061 C1069 0.930 . S
H1062 C1070 0.930 . S
H1063 C1071 0.930 . S
H1064 C1074 0.930 . S
H1065 C1075 0.930 . S
C1066 H1060 0.930 . S
C1066 C1067 1.355 . S
C1066 C1068 1.415 . S
C1067 C1066 1.355 . S
C1067 C1069 1.419 . S
C1068 C1066 1.415 . S
C1068 C1073 1.425 . S
C1068 C1075 1.409 . S
C1069 H1061 0.930 . S
C1069 C1067 1.419 . S
C1069 C1070 1.362 . S
C1070 H1062 0.930 . S
C1070 C1069 1.362 . S
C1070 C1073 1.409 . S
C1071 H1063 0.930 . S
C1071 C1072 1.355 . S
C1071 C1073 1.415 . S
C1072 C1071 1.355 . S
C1072 C1074 1.419 . S
C1073 C1068 1.425 . S
C1073 C1070 1.409 . S
C1073 C1071 1.415 . S
C1074 H1064 0.930 . S
C1074 C1072 1.419 . S
C1074 C1075 1.362 . S
C1075 H1065 0.930 . S
C1075 C1068 1.409 . S
C1075 C1074 1.362 . S
H1076 C1082 0.930 . S
H1077 C1085 0.930 . S
H1078 C1086 0.930 . S
H1079 C1087 0.930 . S
H1080 C1090 0.930 . S
H1081 C1091 0.930 . S
C1082 H1076 0.930 . S
C1082 C1083 1.355 . S
C1082 C1084 1.415 . S
C1083 C1082 1.355 . S
C1083 C1085 1.419 . S
C1084 C1082 1.415 . S
C1084 C1089 1.425 . S
C1084 C1091 1.409 . S
C1085 H1077 0.930 . S
C1085 C1083 1.419 . S
C1085 C1086 1.362 . S
C1086 H1078 0.930 . S
C1086 C1085 1.362 . S
C1086 C1089 1.409 . S
C1087 H1079 0.930 . S
C1087 C1088 1.355 . S
C1087 C1089 1.415 . S
C1088 C1087 1.355 . S
C1088 C1090 1.419 . S
C1089 C1084 1.425 . S
C1089 C1086 1.409 . S
C1089 C1087 1.415 . S
C1090 H1080 0.930 . S
C1090 C1088 1.419 . S
C1090 C1091 1.362 . S
C1091 H1081 0.930 . S
C1091 C1084 1.409 . S
C1091 C1090 1.362 . S
H1092 C1098 0.930 . S
H1093 C1101 0.930 . S
H1094 C1102 0.930 . S
H1095 C1103 0.930 . S
H1096 C1106 0.930 . S
H1097 C1107 0.930 . S
C1098 H1092 0.930 . S
C1098 C1099 1.355 . S
C1098 C1100 1.415 . S
C1099 C1098 1.355 . S
C1099 C1101 1.419 . S
C1100 C1098 1.415 . S
C1100 C1105 1.425 . S
C1100 C1107 1.409 . S
C1101 H1093 0.930 . S
C1101 C1099 1.419 . S
C1101 C1102 1.362 . S
C1102 H1094 0.930 . S
C1102 C1101 1.362 . S
C1102 C1105 1.409 . S
C1103 H1095 0.930 . S
C1103 C1104 1.355 . S
C1103 C1105 1.415 . S
C1104 C1103 1.355 . S
C1104 C1106 1.419 . S
C1105 C1100 1.425 . S
C1105 C1102 1.409 . S
C1105 C1103 1.415 . S
C1106 H1096 0.930 . S
C1106 C1104 1.419 . S
C1106 C1107 1.362 . S
C1107 H1097 0.930 . S
C1107 C1100 1.409 . S
C1107 C1106 1.362 . S
H1108 C1114 0.930 . S
H1109 C1117 0.930 . S
H1110 C1118 0.930 . S
H1111 C1119 0.930 . S
H1112 C1122 0.930 . S
H1113 C1123 0.930 . S
C1114 H1108 0.930 . S
C1114 C1115 1.355 . S
C1114 C1116 1.415 . S
C1115 C1114 1.355 . S
C1115 C1117 1.419 . S
C1116 C1114 1.415 . S
C1116 C1121 1.425 . S
C1116 C1123 1.409 . S
C1117 H1109 0.930 . S
C1117 C1115 1.419 . S
C1117 C1118 1.362 . S
C1118 H1110 0.930 . S
C1118 C1117 1.362 . S
C1118 C1121 1.409 . S
C1119 H1111 0.930 . S
C1119 C1120 1.355 . S
C1119 C1121 1.415 . S
C1120 C1119 1.355 . S
C1120 C1122 1.419 . S
C1121 C1116 1.425 . S
C1121 C1118 1.409 . S
C1121 C1119 1.415 . S
C1122 H1112 0.930 . S
C1122 C1120 1.419 . S
C1122 C1123 1.362 . S
C1123 H1113 0.930 . S
C1123 C1116 1.409 . S
C1123 C1122 1.362 . S
H1124 C1130 0.930 . S
H1125 C1133 0.930 . S
H1126 C1134 0.930 . S
H1127 C1135 0.930 . S
H1128 C1138 0.930 . S
H1129 C1139 0.930 . S
C1130 H1124 0.930 . S
C1130 C1131 1.355 . S
C1130 C1132 1.415 . S
C1131 C1130 1.355 . S
C1131 C1133 1.419 . S
C1132 C1130 1.415 . S
C1132 C1137 1.425 . S
C1132 C1139 1.409 . S
C1133 H1125 0.930 . S
C1133 C1131 1.419 . S
C1133 C1134 1.362 . S
C1134 H1126 0.930 . S
C1134 C1133 1.362 . S
C1134 C1137 1.409 . S
C1135 H1127 0.930 . S
C1135 C1136 1.355 . S
C1135 C1137 1.415 . S
C1136 C1135 1.355 . S
C1136 C1138 1.419 . S
C1137 C1132 1.425 . S
C1137 C1134 1.409 . S
C1137 C1135 1.415 . S
C1138 H1128 0.930 . S
C1138 C1136 1.419 . S
C1138 C1139 1.362 . S
C1139 H1129 0.930 . S
C1139 C1132 1.409 . S
C1139 C1138 1.362 . S
H1140 C1146 0.930 . S
H1141 C1149 0.930 . S
H1142 C1150 0.930 . S
H1143 C1151 0.930 . S
H1144 C1154 0.930 . S
H1145 C1155 0.930 . S
C1146 H1140 0.930 . S
C1146 C1147 1.355 . S
C1146 C1148 1.415 . S
C1147 C1146 1.355 . S
C1147 C1149 1.419 . S
C1148 C1146 1.415 . S
C1148 C1153 1.425 . S
C1148 C1155 1.409 . S
C1149 H1141 0.930 . S
C1149 C1147 1.419 . S
C1149 C1150 1.362 . S
C1150 H1142 0.930 . S
C1150 C1149 1.362 . S
C1150 C1153 1.409 . S
C1151 H1143 0.930 . S
C1151 C1152 1.355 . S
C1151 C1153 1.415 . S
C1152 C1151 1.355 . S
C1152 C1154 1.419 . S
C1153 C1148 1.425 . S
C1153 C1150 1.409 . S
C1153 C1151 1.415 . S
C1154 H1144 0.930 . S
C1154 C1152 1.419 . S
C1154 C1155 1.362 . S
C1155 H1145 0.930 . S
C1155 C1148 1.409 . S
C1155 C1154 1.362 . S
H1156 C1162 0.930 . S
H1157 C1165 0.930 . S
H1158 C1166 0.930 . S
H1159 C1167 0.930 . S
H1160 C1170 0.930 . S
H1161 C1171 0.930 . S
C1162 H1156 0.930 . S
C1162 C1163 1.355 . S
C1162 C1164 1.415 . S
C1163 C1162 1.355 . S
C1163 C1165 1.419 . S
C1164 C1162 1.415 . S
C1164 C1169 1.425 1_565 S
C1164 C1171 1.409 1_565 S
C1165 H1157 0.930 . S
C1165 C1163 1.419 . S
C1165 C1166 1.362 . S
C1166 H1158 0.930 . S
C1166 C1165 1.362 . S
C1166 C1169 1.409 1_565 S
C1167 H1159 0.930 . S
C1167 C1168 1.355 . S
C1167 C1169 1.415 . S
C1168 C1167 1.355 . S
C1168 C1170 1.419 . S
C1169 C1164 1.425 1_545 S
C1169 C1166 1.409 1_545 S
C1169 C1167 1.415 . S
C1170 H1160 0.930 . S
C1170 C1168 1.419 . S
C1170 C1171 1.362 . S
C1171 H1161 0.930 . S
C1171 C1164 1.409 1_545 S
C1171 C1170 1.362 . S
H1172 C1178 0.930 . S
H1173 C1181 0.930 . S
H1174 C1182 0.930 . S
H1175 C1183 0.930 . S
H1176 C1186 0.930 . S
H1177 C1187 0.930 . S
C1178 H1172 0.930 . S
C1178 C1179 1.355 . S
C1178 C1180 1.415 1_655 S
C1179 C1178 1.355 . S
C1179 C1181 1.419 . S
C1180 C1178 1.415 1_455 S
C1180 C1185 1.425 . S
C1180 C1187 1.409 . S
C1181 H1173 0.930 . S
C1181 C1179 1.419 . S
C1181 C1182 1.362 . S
C1182 H1174 0.930 . S
C1182 C1181 1.362 . S
C1182 C1185 1.409 1_655 S
C1183 H1175 0.930 . S
C1183 C1184 1.355 . S
C1183 C1185 1.415 . S
C1184 C1183 1.355 . S
C1184 C1186 1.419 . S
C1185 C1180 1.425 . S
C1185 C1182 1.409 1_455 S
C1185 C1183 1.415 . S
C1186 H1176 0.930 . S
C1186 C1184 1.419 . S
C1186 C1187 1.362 . S
C1187 H1177 0.930 . S
C1187 C1180 1.409 . S
C1187 C1186 1.362 . S
C763 C156 1.098 . S
C768 C67 1.351 1_554 S
C779 C240 1.183 . S
C784 C151 1.404 1_554 S
C795 C235 1.304 1_554 S
C800 C72 1.101 . S
C811 C231 1.195 . S
C816 C140 1.387 1_556 S
C827 C224 1.394 . S
C832 C63 1.220 . S
C843 C56 1.383 1_556 S
C848 C147 1.150 . S
C859 C319 1.292 . S
C864 C408 1.132 . S
C875 C492 1.255 . S
C880 C403 1.360 . S
C891 C487 1.371 . S
C896 C324 1.258 . S
C907 C392 1.358 . S
C912 C483 1.153 . S
C923 C476 1.350 . S
C928 C315 1.206 . S
C939 C399 1.148 . S
C944 C308 1.360 . S
C955 C660 1.225 . S
C960 C571 1.406 . S
C971 C655 1.307 . S
C976 C744 1.097 . S
C987 C739 1.309 . S
C992 C576 1.095 . S
C1003 C735 1.219 . S
C1008 C644 1.389 . S
C1019 C728 1.352 . S
C1024 C567 1.183 . S
C1035 C560 1.350 . S
C1040 C651 1.225 . S
C1051 C495 2.536 . S
C1056 C66 2.603 . S
C1067 C327 2.563 . S
C1072 C150 2.630 . S
C1083 C234 2.614 . S
C1088 C411 2.525 . S
C1099 C243 2.531 . S
C1104 C570 2.607 . S
C1115 C75 2.575 . S
C1120 C654 2.617 . S
C1131 C738 2.634 . S
C1136 C159 2.522 . S
C1147 C318 2.606 . S
C1152 C747 2.532 . S
C1163 C402 2.639 . S
C1168 C579 2.530 . S
C1179 C663 2.579 . S
C1184 C486 2.609 . S
