# Generated by pormake.
# Topology whz, (6)-cn, num edge types: 1
# Building blocks:
#     Node 0, Type 0, BuildingBlock: HISSIN_clean_sbu_0, # of connection points: 6
#     Node 1, Type 0, BuildingBlock: HISSIN_clean_sbu_0, # of connection points: 6
#     Node 2, Type 0, BuildingBlock: HISSIN_clean_sbu_0, # of connection points: 6
#     Node 3, Type 0, BuildingBlock: HISSIN_clean_sbu_0, # of connection points: 6
#     Node 4, Type 0, BuildingBlock: HISSIN_clean_sbu_0, # of connection points: 6
#     Node 5, Type 0, BuildingBlock: HISSIN_clean_sbu_0, # of connection points: 6
#     Node 6, Type 0, BuildingBlock: HISSIN_clean_sbu_0, # of connection points: 6
#     Node 7, Type 0, BuildingBlock: HISSIN_clean_sbu_0, # of connection points: 6
#     Node 8, Type 0, BuildingBlock: HISSIN_clean_sbu_0, # of connection points: 6
#     Node 9, Type 0, BuildingBlock: HISSIN_clean_sbu_0, # of connection points: 6
#     Node 10, Type 0, BuildingBlock: HISSIN_clean_sbu_0, # of connection points: 6
#     Node 11, Type 0, BuildingBlock: HISSIN_clean_sbu_0, # of connection points: 6
#     Node 12, Type 0, BuildingBlock: HISSIN_clean_sbu_0, # of connection points: 6
#     Node 13, Type 0, BuildingBlock: HISSIN_clean_sbu_0, # of connection points: 6
#     Node 14, Type 0, BuildingBlock: HISSIN_clean_sbu_0, # of connection points: 6
#     Node 15, Type 0, BuildingBlock: HISSIN_clean_sbu_0, # of connection points: 6
#     Edge 16, Type (0, 0), BuildingBlock: OJICUG_clean_linker_0, # of connection points: 2
#     Edge 17, Type (0, 0), BuildingBlock: OJICUG_clean_linker_0, # of connection points: 2
#     Edge 18, Type (0, 0), BuildingBlock: OJICUG_clean_linker_0, # of connection points: 2
#     Edge 19, Type (0, 0), BuildingBlock: OJICUG_clean_linker_0, # of connection points: 2
#     Edge 20, Type (0, 0), BuildingBlock: OJICUG_clean_linker_0, # of connection points: 2
#     Edge 21, Type (0, 0), BuildingBlock: OJICUG_clean_linker_0, # of connection points: 2
#     Edge 22, Type (0, 0), BuildingBlock: OJICUG_clean_linker_0, # of connection points: 2
#     Edge 23, Type (0, 0), BuildingBlock: OJICUG_clean_linker_0, # of connection points: 2
#     Edge 24, Type (0, 0), BuildingBlock: OJICUG_clean_linker_0, # of connection points: 2
#     Edge 25, Type (0, 0), BuildingBlock: OJICUG_clean_linker_0, # of connection points: 2
#     Edge 26, Type (0, 0), BuildingBlock: OJICUG_clean_linker_0, # of connection points: 2
#     Edge 27, Type (0, 0), BuildingBlock: OJICUG_clean_linker_0, # of connection points: 2
#     Edge 28, Type (0, 0), BuildingBlock: OJICUG_clean_linker_0, # of connection points: 2
#     Edge 29, Type (0, 0), BuildingBlock: OJICUG_clean_linker_0, # of connection points: 2
#     Edge 30, Type (0, 0), BuildingBlock: OJICUG_clean_linker_0, # of connection points: 2
#     Edge 31, Type (0, 0), BuildingBlock: OJICUG_clean_linker_0, # of connection points: 2
#     Edge 32, Type (0, 0), BuildingBlock: OJICUG_clean_linker_0, # of connection points: 2
#     Edge 33, Type (0, 0), BuildingBlock: OJICUG_clean_linker_0, # of connection points: 2
#     Edge 34, Type (0, 0), BuildingBlock: OJICUG_clean_linker_0, # of connection points: 2
#     Edge 35, Type (0, 0), BuildingBlock: OJICUG_clean_linker_0, # of connection points: 2
#     Edge 36, Type (0, 0), BuildingBlock: OJICUG_clean_linker_0, # of connection points: 2
#     Edge 37, Type (0, 0), BuildingBlock: OJICUG_clean_linker_0, # of connection points: 2
#     Edge 38, Type (0, 0), BuildingBlock: OJICUG_clean_linker_0, # of connection points: 2
#     Edge 39, Type (0, 0), BuildingBlock: OJICUG_clean_linker_0, # of connection points: 2
#     Edge 40, Type (0, 0), BuildingBlock: OJICUG_clean_linker_0, # of connection points: 2
#     Edge 41, Type (0, 0), BuildingBlock: OJICUG_clean_linker_0, # of connection points: 2
#     Edge 42, Type (0, 0), BuildingBlock: OJICUG_clean_linker_0, # of connection points: 2
#     Edge 43, Type (0, 0), BuildingBlock: OJICUG_clean_linker_0, # of connection points: 2
#     Edge 44, Type (0, 0), BuildingBlock: OJICUG_clean_linker_0, # of connection points: 2
#     Edge 45, Type (0, 0), BuildingBlock: OJICUG_clean_linker_0, # of connection points: 2
#     Edge 46, Type (0, 0), BuildingBlock: OJICUG_clean_linker_0, # of connection points: 2
#     Edge 47, Type (0, 0), BuildingBlock: OJICUG_clean_linker_0, # of connection points: 2
#     Edge 48, Type (0, 0), BuildingBlock: OJICUG_clean_linker_0, # of connection points: 2
#     Edge 49, Type (0, 0), BuildingBlock: OJICUG_clean_linker_0, # of connection points: 2
#     Edge 50, Type (0, 0), BuildingBlock: OJICUG_clean_linker_0, # of connection points: 2
#     Edge 51, Type (0, 0), BuildingBlock: OJICUG_clean_linker_0, # of connection points: 2
#     Edge 52, Type (0, 0), BuildingBlock: OJICUG_clean_linker_0, # of connection points: 2
#     Edge 53, Type (0, 0), BuildingBlock: OJICUG_clean_linker_0, # of connection points: 2
#     Edge 54, Type (0, 0), BuildingBlock: OJICUG_clean_linker_0, # of connection points: 2
#     Edge 55, Type (0, 0), BuildingBlock: OJICUG_clean_linker_0, # of connection points: 2
#     Edge 56, Type (0, 0), BuildingBlock: OJICUG_clean_linker_0, # of connection points: 2
#     Edge 57, Type (0, 0), BuildingBlock: OJICUG_clean_linker_0, # of connection points: 2
#     Edge 58, Type (0, 0), BuildingBlock: OJICUG_clean_linker_0, # of connection points: 2
#     Edge 59, Type (0, 0), BuildingBlock: OJICUG_clean_linker_0, # of connection points: 2
#     Edge 60, Type (0, 0), BuildingBlock: OJICUG_clean_linker_0, # of connection points: 2
#     Edge 61, Type (0, 0), BuildingBlock: OJICUG_clean_linker_0, # of connection points: 2
#     Edge 62, Type (0, 0), BuildingBlock: OJICUG_clean_linker_0, # of connection points: 2
#     Edge 63, Type (0, 0), BuildingBlock: OJICUG_clean_linker_0, # of connection points: 2
# Relax obj value: 0.869
# Max RMSD: 0.331
# Mean RMSD: 0.331
data_MOF--net-whz--node1-HISSIN_clean_sbu_0--edge1-OJICUG_clean_linker_0
_symmetry_space_group_name_H-M    P1
_symmetry_Int_Tables_number       1
_symmetry_cell_setting            triclinic
loop_
_symmetry_equiv_pos_as_xyz
'x, y, z'
_cell_length_a     25.416647
_cell_length_b     25.219008
_cell_length_c     57.754829
_cell_angle_alpha  89.861738
_cell_angle_beta   90.052413
_cell_angle_gamma 90.39834
loop_
_atom_site_label
_atom_site_type_symbol
_atom_site_fract_x
_atom_site_fract_y
_atom_site_fract_z
_atom_type_partial_charge
Eu0 Eu 0.33121 0.30257 0.18962 0.0
Eu1 Eu 0.34718 0.21904 0.15044 0.0
C2 C 0.37105 0.18455 0.20387 0.0
C3 C 0.24617 0.39725 0.22021 0.0
C4 C 0.20981 0.35597 0.22362 0.0
C5 C 0.17978 0.46031 0.23194 0.0
C6 C 0.15968 0.36638 0.23187 0.0
C7 C 0.23045 0.4497 0.22368 0.0
C8 C 0.14451 0.41858 0.23713 0.0
C9 C 0.29982 0.38455 0.21281 0.0
O10 O 0.28327 0.17874 0.17073 0.0
O11 O 0.25775 0.25137 0.19209 0.0
C12 C 0.25066 0.20211 0.18507 0.0
O13 O 0.31212 0.29957 0.15139 0.0
O14 O 0.37614 0.17734 0.1197 0.0
O15 O 0.29556 0.20949 0.12023 0.0
O16 O 0.31174 0.30157 0.1524 0.0
C17 C 0.28474 0.32902 0.13706 0.0
O18 O 0.4173 0.31468 0.18188 0.0
O19 O 0.4296 0.25246 0.15299 0.0
O20 O 0.36873 0.16791 0.18197 0.0
O21 O 0.32001 0.34249 0.22256 0.0
O22 O 0.30819 0.38594 0.19053 0.0
O23 O 0.36174 0.23396 0.21005 0.0
C24 C 0.32377 0.16736 0.08435 0.0
C25 C 0.27828 0.13811 0.07881 0.0
C26 C 0.34004 0.18031 1.04306 0.0
C27 C 0.26399 0.12971 0.05564 0.0
C28 C 0.35506 0.18754 0.06626 0.0
C29 C 0.29405 0.15175 1.03752 0.0
C30 C 0.3323 0.18613 0.10831 0.0
C31 C 0.44745 0.29004 0.16683 0.0
H32 H 0.22082 0.31515 0.22091 0.0
H33 H 0.16902 0.50089 0.23538 0.0
H34 H 0.13474 0.33263 0.23587 0.0
H35 H 0.25768 0.48216 0.22058 0.0
H36 H 0.25273 0.1234 0.09243 0.0
H37 H 0.36378 0.19787 1.02946 0.0
H38 H 0.22799 0.10808 0.05191 0.0
H39 H 0.38949 0.21152 0.0701 0.0
Eu40 Eu 0.55556 0.56178 0.43765 0.0
Eu41 Eu 0.64461 0.5818 0.40145 0.0
C42 C 0.66395 0.61076 0.45676 0.0
C43 C 0.44362 0.56935 0.47937 0.0
C44 C 0.47101 0.61194 0.48947 0.0
C45 C 0.43261 0.52897 0.51687 0.0
C46 C 0.48542 0.60858 0.51268 0.0
C47 C 0.41802 0.53248 0.49368 0.0
C48 C 0.47178 0.56299 0.52536 0.0
C49 C 0.46452 0.54859 0.45777 0.0
O50 O 0.67116 0.51056 0.42291 0.0
O51 O 0.61226 0.5047 0.45316 0.0
C52 C 0.65537 0.48955 0.44272 0.0
O53 O 0.56039 0.50075 0.40987 0.0
O54 O 0.69864 0.6184 0.37627 0.0
O55 O 0.68604 0.53323 0.37656 0.0
O56 O 0.56329 0.56537 0.38554 0.0
C57 C 0.54425 0.51856 0.39035 0.0
O58 O 0.55077 0.65016 0.4289 0.0
O59 O 0.61845 0.66622 0.40342 0.0
O60 O 0.68467 0.60685 0.43567 0.0
O61 O 0.47224 0.58221 0.44091 0.0
O62 O 0.50494 0.5179 0.46102 0.0
O63 O 0.61408 0.6 0.46109 0.0
C64 C 0.70613 0.57128 0.34052 0.0
C65 C 0.65797 0.56697 0.32874 0.0
C66 C 0.75218 0.55736 0.30415 0.0
C67 C 0.65696 0.55745 0.30483 0.0
C68 C 0.75309 0.56713 0.328 0.0
C69 C 0.7041 0.55149 0.29224 0.0
C70 C 0.70829 0.57329 0.36603 0.0
C71 C 0.57895 0.68288 0.41597 0.0
H72 H 0.4903 0.64152 0.47873 0.0
H73 H 0.42153 0.49389 0.52653 0.0
H74 H 0.51499 0.63587 0.51923 0.0
H75 H 0.39643 0.49972 0.48613 0.0
H76 H 0.62119 0.56931 0.33814 0.0
H77 H 0.78928 0.55193 0.29531 0.0
H78 H 0.61916 0.55363 0.29632 0.0
H79 H 0.79064 0.56933 0.33686 0.0
Eu80 Eu 0.27555 0.83607 0.68788 0.0
Eu81 Eu 0.26935 0.92144 0.64741 0.0
C82 C 0.2298 0.94934 0.69976 0.0
C83 C 0.24039 0.70818 0.71834 0.0
C84 C 0.18634 0.71801 0.71979 0.0
C85 C 0.22525 0.61817 0.73118 0.0
C86 C 0.15253 0.67919 0.72872 0.0
C87 C 0.25893 0.65703 0.72233 0.0
C88 C 0.17279 0.63071 0.73723 0.0
C89 C 0.27798 0.75057 0.7129 0.0
O90 O 0.33803 0.95053 0.66921 0.0
O91 O 0.33843 0.89273 0.7004 0.0
C92 C 0.35647 0.93503 0.68949 0.0
O93 O 0.34793 0.83666 0.66627 0.0
O94 O 0.23113 0.96117 0.61808 0.0
O95 O 0.3151 0.96929 0.62312 0.0
O96 O 0.29717 0.83957 0.63554 0.0
C97 C 0.34006 0.82166 0.64523 0.0
O98 O 0.20589 0.81572 0.66461 0.0
O99 O 0.18444 0.89917 0.65364 0.0
O100 O 0.24917 0.96876 0.68015 0.0
O101 O 0.29317 0.75236 0.69139 0.0
O102 O 0.26838 0.7975 0.72152 0.0
O103 O 0.22399 0.89811 0.7031 0.0
C104 C 0.28504 0.97274 0.58449 0.0
C105 C 0.28914 0.92242 0.57433 0.0
C106 C 0.30696 1.01296 0.54729 0.0
C107 C 0.30201 0.91746 0.55077 0.0
C108 C 0.29386 1.01781 0.57075 0.0
C109 C 0.31157 0.96271 0.53688 0.0
C110 C 0.27535 0.97937 0.6096 0.0
C111 C 0.17025 0.85015 0.65805 0.0
H112 H 0.17076 0.75663 0.71534 0.0
H113 H 0.24261 0.58047 0.73556 0.0
H114 H 0.11177 0.68983 0.7311 0.0
H115 H 0.30021 0.64796 0.71996 0.0
H116 H 0.28312 0.88699 0.58466 0.0
H117 H 0.31521 1.04876 0.53754 0.0
H118 H 0.30478 0.87805 0.54351 0.0
H119 H 0.29177 0.057 0.57833 0.0
Eu120 Eu 1.01723 0.54053 0.94041 0.0
Eu121 Eu 0.93829 0.5228 0.89974 0.0
C122 C 0.9108 0.48352 0.95359 0.0
C123 C 0.15095 0.52025 0.96627 0.0
C124 C 0.13832 0.4698 0.97474 0.0
C125 C 0.24187 0.50688 0.97688 0.0
C126 C 0.17638 0.4403 0.98623 0.0
C127 C 0.20351 0.53677 0.96562 0.0
C128 C 0.22717 0.46198 0.99015 0.0
C129 C 0.10971 0.55544 0.95796 0.0
O130 O 0.90218 0.58857 0.92197 0.0
O131 O 0.95972 0.60143 0.95256 0.0
C132 C 0.91604 0.61285 0.94141 0.0
O133 O 1.00527 0.60586 0.91501 0.0
O134 O 0.89263 0.4854 0.87175 0.0
O135 O 0.89794 0.57097 0.87415 0.0
O136 O 1.02043 0.55067 0.88801 0.0
C137 C 1.03161 0.59704 0.89656 0.0
O138 O 1.02778 0.45388 0.93021 0.0
O139 O 0.9676 0.43893 0.90126 0.0
O140 O 0.89307 0.49491 0.93243 0.0
O141 O 0.10099 0.55227 0.93572 0.0
O142 O 0.06639 0.55723 0.97038 0.0
O143 O 0.95966 0.49219 0.95999 0.0
C144 C 0.88508 0.53631 0.8367 0.0
C145 C 0.93346 0.53214 0.82515 0.0
C146 C 0.84411 0.56345 0.80044 0.0
C147 C 0.9372 0.54424 0.80141 0.0
C148 C 0.84051 0.55151 0.82408 0.0
C149 C 0.89261 0.56069 0.78874 0.0
C150 C 0.88066 0.53077 0.86215 0.0
C151 C 1.00414 0.42194 0.91544 0.0
H152 H 0.09827 0.45484 0.97392 0.0
H153 H 0.28148 0.52275 0.97745 0.0
H154 H 0.16329 0.40395 0.9944 0.0
H155 H 0.21436 0.57421 0.95763 0.0
H156 H 0.9686 0.52126 0.83461 0.0
H157 H 0.80912 0.57699 0.79158 0.0
H158 H 0.97522 0.54144 0.79307 0.0
H159 H 0.80297 0.55588 0.83273 0.0
Eu160 Eu 0.74791 0.91077 0.95062 0.0
Eu161 Eu 0.75365 0.82637 0.90911 0.0
C162 C 0.78453 0.79401 0.95663 0.0
C163 C 0.76787 0.96248 1.01334 0.0
C164 C 0.81642 0.93982 1.01933 0.0
C165 C 0.75354 0.9829 0.05417 0.0
C166 C 0.83355 0.93932 1.04242 0.0
C167 C 0.73648 0.98351 1.03103 0.0
C168 C 0.80264 0.96125 0.06026 0.0
C169 C 0.75089 0.96758 0.98876 0.0
O170 O 0.6669 0.83831 0.9121 0.0
O171 O 0.66779 0.86887 0.94966 0.0
C172 C 0.64245 0.85011 0.93141 0.0
O173 O 0.71644 0.95849 0.91935 0.0
O174 O 0.77175 0.79468 0.87495 0.0
O175 O 0.75533 0.74105 0.90339 0.0
O176 O 0.7231 0.89615 0.88985 0.0
C177 C 0.71153 0.94389 0.89727 0.0
O178 O 0.80485 0.94641 0.92558 0.0
O179 O 0.83395 0.86637 0.91302 0.0
O180 O 0.74266 0.79083 0.94403 0.0
O181 O 0.78771 0.96766 0.97309 0.0
O182 O 0.70957 0.94065 0.98211 0.0
O183 O 0.80335 0.842 0.95897 0.0
C184 C 0.8242 0.71949 0.87829 0.0
C185 C 0.83207 0.69338 0.85735 0.0
C186 C 0.91779 0.71449 0.88655 0.0
C187 C 0.88292 0.68109 0.8503 0.0
C188 C 0.86685 0.72765 0.89339 0.0
C189 C 0.92683 0.69475 0.86418 0.0
C190 C 0.77409 0.74596 0.88253 0.0
C191 C 0.84022 0.91808 0.915 0.0
H192 H 0.84174 0.92336 1.00612 0.0
H193 H 0.72809 0.99945 0.06727 0.0
H194 H 0.87182 0.92286 1.04612 0.0
H195 H 0.69891 1.00124 1.0269 0.0
H196 H 0.79953 0.68672 0.84555 0.0
H197 H 0.9504 0.72465 0.89783 0.0
H198 H 0.88766 0.66611 0.83288 0.0
H199 H 0.86137 0.74806 0.90967 0.0
Eu200 Eu 0.46162 0.54013 0.70116 0.0
Eu201 Eu 0.54799 0.55605 0.66228 0.0
C202 C 0.56306 0.6051 0.70846 0.0
C203 C 0.40252 0.54716 0.76353 0.0
C204 C 0.45019 0.54509 0.77581 0.0
C205 C 0.35623 0.55947 0.80009 0.0
C206 C 0.45082 0.55059 0.80005 0.0
C207 C 0.35559 0.55369 0.77594 0.0
C208 C 0.40382 0.5588 0.81259 0.0
C209 C 0.40092 0.54789 0.73784 0.0
O210 O 0.55301 0.46917 0.67298 0.0
O211 O 0.48565 0.45487 0.69873 0.0
C212 C 0.52453 0.43718 0.68607 0.0
O213 O 0.41882 0.51563 0.66752 0.0
O214 O 0.63342 0.5488 0.66344 0.0
O215 O 0.59513 0.5822 0.6331 0.0
O216 O 0.48762 0.51364 0.641 0.0
C217 C 0.43794 0.50585 0.6465 0.0
O218 O 0.43287 0.60989 0.67915 0.0
O219 O 0.49327 0.61822 0.64941 0.0
O220 O 0.54592 0.62045 0.68863 0.0
O221 O 0.4084 0.5035 0.72671 0.0
O222 O 0.4245 0.58793 0.72783 0.0
O223 O 0.54446 0.55906 0.71491 0.0
C224 C 0.6649 0.52594 0.62659 0.0
C225 C 0.6426 0.47494 0.62544 0.0
C226 C 0.6715 0.52827 0.58522 0.0
C227 C 0.62633 0.45544 0.60403 0.0
C228 C 0.68753 0.54757 0.60667 0.0
C229 C 0.63398 0.48703 0.58428 0.0
C230 C 0.63879 0.56345 0.64187 0.0
C231 C 0.44965 0.63239 0.65975 0.0
H232 H 0.48701 0.54054 0.76662 0.0
H233 H 0.31953 0.56686 0.80885 0.0
H234 H 0.48834 0.54925 0.8089 0.0
H235 H 0.31837 0.55618 0.76684 0.0
H236 H 0.62742 0.45623 0.6409 0.0
H237 H 0.67962 0.55261 0.57024 0.0
H238 H 0.59926 0.42206 0.60361 0.0
H239 H 0.70702 0.58577 0.60743 0.0
Eu240 Eu 0.84314 0.20675 0.45377 0.0
Eu241 Eu 0.83103 0.29211 0.41311 0.0
C242 C 0.76987 0.30397 0.45701 0.0
C243 C 0.82976 0.15626 0.51689 0.0
C244 C 0.81522 0.20567 0.52597 0.0
C245 C 0.81127 0.11595 0.55452 0.0
C246 C 0.79849 0.21007 0.5491 0.0
C247 C 0.82816 0.11169 0.53146 0.0
C248 C 0.79543 0.16509 0.56369 0.0
C249 C 0.84221 0.14941 0.49195 0.0
O250 O 0.90438 0.31342 0.43418 0.0
O251 O 0.92676 0.23044 0.44603 0.0
C252 C 0.94026 0.27949 0.4412 0.0
O253 O 0.86145 0.1606 0.42028 0.0
O254 O 0.82732 0.32911 0.37902 0.0
O255 O 0.81788 0.37699 0.40999 0.0
O256 O 0.88259 0.2317 0.39675 0.0
C257 C 0.8778 0.18038 0.40015 0.0
O258 O 0.77285 0.17592 0.43363 0.0
O259 O 0.7685 0.23282 0.40223 0.0
O260 O 0.76097 0.28849 0.43614 0.0
O261 O 0.88432 0.17271 0.48377 0.0
O262 O 0.80257 0.15361 0.47779 0.0
O263 O 0.81402 0.28769 0.46605 0.0
C264 C 0.76176 0.39355 0.37854 0.0
C265 C 0.76007 0.41744 0.35673 0.0
C266 C 0.66717 0.37987 0.37723 0.0
C267 C 0.71279 0.41894 0.3445 0.0
C268 C 0.71458 0.37817 0.38941 0.0
C269 C 0.66678 0.39567 0.35389 0.0
C270 C 0.81215 0.37456 0.38755 0.0
C271 C 0.75247 0.19027 0.41357 0.0
H272 H 0.81574 0.24065 0.51504 0.0
H273 H 0.80869 0.08015 0.56484 0.0
H274 H 0.78735 0.24876 0.55543 0.0
H275 H 0.83854 0.07304 0.52478 0.0
H276 H 0.79606 0.42992 0.3482 0.0
H277 H 0.63224 0.36295 0.38514 0.0
H278 H 0.71434 0.43198 0.32664 0.0
H279 H 0.71498 0.3601 0.40644 0.0
Eu280 Eu 0.15861 0.60919 0.19992 0.0
Eu281 Eu 0.096 0.6127 0.15043 0.0
C282 C 1.0406 0.55649 0.19444 0.0
C283 C 0.20231 0.592 0.26458 0.0
C284 C 0.16028 0.6029 0.27969 0.0
C285 C 0.24657 0.54657 0.29646 0.0
C286 C 0.16162 0.58633 0.30287 0.0
C287 C 0.24523 0.56321 0.27323 0.0
C288 C 0.20505 0.55846 0.31174 0.0
C289 C 0.20405 0.61511 0.24076 0.0
O290 O 0.05571 0.67603 0.17078 0.0
O291 O 0.12827 0.69266 0.19324 0.0
C292 C 0.08267 0.70739 0.18453 0.0
O293 O 0.21881 0.62757 0.17088 0.0
O294 O 0.07971 0.64813 0.1166 0.0
O295 O 0.05152 0.56872 0.12446 0.0
O296 O 0.16 0.67356 0.14961 0.0
C297 C 0.20855 0.65979 0.15337 0.0
O298 O 0.16194 0.52531 0.18654 0.0
O299 O 0.16058 0.55174 0.14888 0.0
O300 O 1.03916 0.56955 0.17257 0.0
O301 O 0.22268 0.5868 0.22374 0.0
O302 O 0.16396 0.64354 0.2343 0.0
O303 O 0.0805 0.56794 0.20823 0.0
C304 C 0.10221 0.57839 0.0916 0.0
C305 C 0.1564 0.58658 0.095 0.0
C306 C 0.12228 0.50682 0.06518 0.0
C307 C 0.19303 0.55485 0.08398 0.0
C308 C 0.0853 0.53813 0.07664 0.0
C309 C 0.1766 0.51475 0.06894 0.0
C310 C 0.0658 0.60189 0.10826 0.0
C311 C 0.17095 0.51583 0.16461 0.0
H312 H 0.12658 0.62524 0.2738 0.0
H313 H 0.28025 0.52431 0.30243 0.0
H314 H 0.129 0.59663 0.31399 0.0
H315 H 0.27833 0.55437 0.26212 0.0
H316 H 0.17051 0.6159 0.10714 0.0
H317 H 0.10834 0.47682 0.05323 0.0
H318 H 0.23433 0.56104 0.08739 0.0
H319 H 1.04372 0.52985 0.07441 0.0
Eu320 Eu 0.86566 0.77914 0.70459 0.0
Eu321 Eu 0.84463 0.72016 0.65485 0.0
C322 C 0.89483 0.66174 0.6987 0.0
C323 C 0.9398 0.81954 0.75843 0.0
C324 C 0.97984 0.78312 0.75369 0.0
C325 C 0.97229 0.82934 0.7974 0.0
C326 C 1.01397 0.76738 0.77135 0.0
C327 C 0.93855 0.84524 0.77975 0.0
C328 C 1.00734 0.78688 0.79395 0.0
C329 C 0.89345 0.8223 0.74359 0.0
O330 O 0.77653 0.69005 0.67626 0.0
O331 O 0.78978 0.73304 0.71119 0.0
C332 C 0.7628 0.7006 0.69772 0.0
O333 O 0.79879 0.82382 0.69014 0.0
O334 O 0.86607 0.67432 0.62331 0.0
O335 O 0.79087 0.71634 0.62592 0.0
O336 O 0.81929 0.8072 0.6524 0.0
C337 C 0.79431 0.83492 0.66822 0.0
O338 O 0.92121 0.8154 0.67825 0.0
O339 O 0.93146 0.74256 0.6555 0.0
O340 O 0.85928 0.6554 0.68223 0.0
O341 O 0.89895 0.84615 0.72367 0.0
O342 O 0.86708 0.77786 0.74206 0.0
O343 O 0.9169 0.70818 0.70094 0.0
C344 C 0.80489 0.67097 0.58965 0.0
C345 C 0.75111 0.67227 0.58402 0.0
C346 C 0.82389 0.64907 0.54927 0.0
C347 C 0.73386 0.66128 0.56157 0.0
C348 C 0.84122 0.65905 0.57206 0.0
C349 C 0.76991 0.64989 0.54386 0.0
C350 C 0.82216 0.68816 0.61308 0.0
C351 C 0.95001 0.78721 0.66406 0.0
H352 H 0.98149 0.76327 0.73709 0.0
H353 H 0.96566 0.84581 0.81443 0.0
H354 H 1.04146 0.7359 0.76793 0.0
H355 H 0.90794 0.87363 0.78355 0.0
H356 H 0.72205 0.68206 0.59701 0.0
H357 H 0.8525 0.64008 0.53599 0.0
H358 H 0.69202 0.66225 0.55797 0.0
H359 H 0.88299 0.65881 0.57577 0.0
Eu360 Eu 0.06759 0.08616 0.94869 0.0
Eu361 Eu 0.13118 0.10106 0.90148 0.0
C362 C 0.18199 0.13497 0.95212 0.0
C363 C 0.9825 1.00932 0.98781 0.0
C364 C 0.96739 1.00314 1.01088 0.0
C365 C 0.99825 0.9146 0.98509 0.0
C366 C 0.97089 0.95352 1.02142 0.0
C367 C 0.99483 0.96433 0.97458 0.0
C368 C 0.98986 0.90944 1.009 0.0
C369 C 0.99695 0.06215 0.97925 0.0
O370 O 0.16878 1.02944 0.91826 0.0
O371 O 0.12897 1.02275 0.95407 0.0
C372 C 0.16385 1.00691 0.93878 0.0
O373 O 0.05872 1.0184 0.92423 0.0
O374 O 0.17709 0.13206 0.87129 0.0
O375 O 0.13706 0.05427 0.87062 0.0
O376 O 1.04495 0.07708 0.89716 0.0
C377 C 1.03381 1.03038 0.90559 0.0
O378 O 1.04263 0.16694 0.93427 0.0
O379 O 0.10227 0.18431 0.90517 0.0
O380 O 0.19128 0.11894 0.93057 0.0
O381 O 1.04474 0.07726 0.98478 0.0
O382 O 0.98549 0.07162 0.95754 0.0
O383 O 0.13451 0.1358 0.96095 0.0
C384 C 0.18453 0.07602 0.83592 0.0
C385 C 0.19065 1.02246 0.82999 0.0
C386 C 0.20095 0.09986 0.79552 0.0
C387 C 0.20141 1.0077 0.80724 0.0
C388 C 0.19036 0.11477 0.81854 0.0
C389 C 0.20648 1.04601 0.78962 0.0
C390 C 0.16518 0.08931 0.8594 0.0
C391 C 0.06425 0.19945 0.91895 0.0
H392 H 0.95802 1.03742 1.02133 0.0
H393 H 1.01272 0.88148 0.97508 0.0
H394 H 0.96486 0.95151 1.03996 0.0
H395 H 1.00654 0.96826 0.95665 0.0
H396 H 0.18583 0.99156 0.8429 0.0
H397 H 0.20476 0.13034 0.78238 0.0
H398 H 0.20441 0.96582 0.80337 0.0
H399 H 0.18495 0.15629 0.82258 0.0
Eu400 Eu 0.76989 0.33816 0.19686 0.0
Eu401 Eu 0.7662 0.41741 0.15272 0.0
C402 C 0.72311 0.45269 0.20321 0.0
C403 C 0.71276 0.26161 0.2447 0.0
C404 C 0.66548 0.2868 0.23872 0.0
C405 C 0.68122 0.25032 0.28379 0.0
C406 C 0.62764 0.29668 0.25563 0.0
C407 C 0.719 0.24053 0.26688 0.0
C408 C 0.63707 0.28203 0.27874 0.0
C409 C 0.75908 0.26974 0.23012 0.0
O410 O 0.84543 0.43402 0.16859 0.0
O411 O 0.83471 0.3974 0.20503 0.0
C412 C 0.86026 0.42802 0.19028 0.0
O413 O 0.8376 0.31678 0.1747 0.0
O414 O 0.72546 0.43746 0.12048 0.0
O415 O 0.79754 0.47846 0.12946 0.0
O416 O 0.79281 0.33463 0.14185 0.0
C417 C 0.83011 0.30873 0.15275 0.0
O418 O 0.70321 0.31475 0.1727 0.0
O419 O 0.68224 0.39802 0.16176 0.0
O420 O 0.74834 0.46906 0.18444 0.0
O421 O 0.75383 0.25709 0.20833 0.0
O422 O 0.78121 0.31613 0.23289 0.0
O423 O 0.71453 0.40221 0.20701 0.0
C424 C 0.77945 0.46554 0.0892 0.0
C425 C 0.83103 0.45075 0.08353 0.0
C426 C 0.75986 0.47413 1.04799 0.0
C427 C 0.84702 0.4484 0.06032 0.0
C428 C 0.74403 0.47681 0.07121 0.0
C429 C 0.81173 0.46022 1.04215 0.0
C430 C 0.76181 0.47053 0.11358 0.0
C431 C 0.6679 0.34909 0.16593 0.0
H432 H 0.66016 0.30358 0.22159 0.0
H433 H 0.69024 0.23859 0.30139 0.0
H434 H 0.5939 0.32065 0.25115 0.0
H435 H 0.75541 0.22136 0.27177 0.0
H436 H 0.85925 0.44166 0.097 0.0
H437 H 0.73126 0.48284 1.03464 0.0
H438 H 0.88757 0.43854 0.05672 0.0
H439 H 0.70397 0.48809 0.07514 0.0
Eu440 Eu 0.52599 1.01527 0.44593 0.0
Eu441 Eu 0.46001 1.00439 0.39823 0.0
C442 C 0.41478 0.9641 0.44816 0.0
C443 C 0.59366 0.96803 0.49779 0.0
C444 C 0.57324 0.9182 0.49147 0.0
C445 C 0.60206 0.93795 0.53723 0.0
C446 C 0.5638 0.87964 0.50834 0.0
C447 C 0.61107 0.97658 0.52038 0.0
C448 C 0.57458 0.8908 0.53166 0.0
C449 C 0.58447 1.01331 0.4826 0.0
O450 O 0.44743 0.08838 0.40957 0.0
O451 O 0.46239 0.07848 0.44862 0.0
C452 C 0.44115 0.10426 0.43107 0.0
O453 O 0.55347 0.08133 0.42365 0.0
O454 O 0.39359 1.02102 0.37524 0.0
O455 O 0.45817 0.97336 0.36287 0.0
O456 O 0.54402 1.03413 0.39068 0.0
C457 C 0.56689 0.07272 0.40236 0.0
O458 O 0.55557 0.94232 0.42675 0.0
O459 O 0.48001 0.9202 0.40771 0.0
O460 O 0.40266 0.98905 0.42867 0.0
O461 O 0.60369 1.00951 0.46171 0.0
O462 O 0.53571 1.02944 0.48274 0.0
O463 O 0.46384 0.95533 0.45334 0.0
C464 C 0.41242 1.02398 0.33446 0.0
C465 C 0.39577 0.07672 0.33203 0.0
C466 C 0.41916 1.01789 0.29231 0.0
C467 C 0.39023 0.09946 0.30999 0.0
C468 C 0.42462 0.99511 0.31438 0.0
C469 C 0.40101 0.07013 0.28978 0.0
C470 C 0.41454 0.99727 0.35745 0.0
C471 C 0.52558 0.90678 0.41643 0.0
H472 H 0.55946 0.9112 0.47399 0.0
H473 H 0.61054 0.94823 0.55505 0.0
H474 H 0.5428 0.84377 0.50355 0.0
H475 H 0.6266 1.01495 0.52548 0.0
H476 H 0.38631 0.10026 0.3471 0.0
H477 H 0.42756 0.99399 0.27723 0.0
H478 H 0.3772 0.14017 0.30881 0.0
H479 H 0.43737 0.95432 0.31573 0.0
Eu480 Eu 0.26769 0.40882 0.44677 0.0
Eu481 Eu 0.2386 0.35106 0.39725 0.0
C482 C 0.31409 0.29202 0.43192 0.0
C483 C 0.30067 0.45067 0.51212 0.0
C484 C 0.33622 0.41494 0.5223 0.0
C485 C 0.29458 0.49618 0.54931 0.0
C486 C 0.35179 0.42064 0.54552 0.0
C487 C 0.27937 0.49066 0.52605 0.0
C488 C 0.33231 0.46227 0.55933 0.0
C489 C 0.29266 0.45281 0.48655 0.0
O490 O 0.18964 0.31332 0.42539 0.0
O491 O 0.18029 0.38669 0.44762 0.0
C492 C 0.16117 0.34179 0.4395 0.0
O493 O 0.25274 0.47262 0.41901 0.0
O494 O 0.19699 0.28742 0.37913 0.0
O495 O 0.23213 0.35254 0.35982 0.0
O496 O 0.18957 0.42269 0.4031 0.0
C497 C 0.21407 0.46794 0.40397 0.0
O498 O 0.33318 0.43658 0.42348 0.0
O499 O 0.31556 0.39404 0.38882 0.0
O500 O 0.30448 0.3028 0.41019 0.0
O501 O 0.24546 0.45577 0.47759 0.0
O502 O 0.32499 0.42624 0.47355 0.0
O503 O 0.29656 0.32232 0.44895 0.0
C504 C 0.15098 0.32117 0.34702 0.0
C505 C 0.11875 0.3635 0.35366 0.0
C506 C 0.10334 0.31407 0.31102 0.0
C507 C 0.08155 0.38359 0.33821 0.0
C508 C 0.14078 0.2944 0.32638 0.0
C509 C 0.07655 0.36155 0.31598 0.0
C510 C 0.20042 0.31164 0.35922 0.0
C511 C 0.3447 0.42566 0.40183 0.0
H512 H 0.35415 0.38409 0.51202 0.0
H513 H 0.27732 0.52794 0.55923 0.0
H514 H 0.38151 0.39405 0.5521 0.0
H515 H 0.2524 0.51919 0.51868 0.0
H516 H 0.12581 0.38413 0.36979 0.0
H517 H 0.10086 0.296 0.29406 0.0
H518 H 0.06139 0.41994 0.34257 0.0
H519 H 0.16515 0.26143 0.32115 0.0
Eu520 Eu 0.95307 1.0276 0.19686 0.0
Eu521 Eu 1.02493 1.02665 0.15102 0.0
C522 C 0.05813 0.09172 0.19195 0.0
C523 C 0.89783 0.0554 0.26207 0.0
C524 C 0.88896 0.10853 0.26802 0.0
C525 C 0.8905 1.03177 0.30304 0.0
C526 C 0.88148 0.12323 0.29109 0.0
C527 C 0.89755 1.01694 0.27976 0.0
C528 C 0.88291 0.08529 0.30903 0.0
C529 C 0.91769 1.0427 0.23858 0.0
O530 O 0.05133 0.96129 0.17547 0.0
O531 O 0.97328 0.94172 0.19277 0.0
C532 C 1.01971 0.92701 0.1856 0.0
O533 O 0.89575 1.0095 0.16701 0.0
O534 O 0.10688 1.02059 0.14034 0.0
O535 O 1.04475 1.0259 0.11448 0.0
O536 O 0.958 0.97116 0.1438 0.0
C537 C 0.90874 0.98226 0.14826 0.0
O538 O 0.92195 0.0969 0.17647 0.0
O539 O 0.97092 0.09482 0.14264 0.0
O540 O 1.0431 0.09961 0.17087 0.0
O541 O 0.90831 0.99832 0.22746 0.0
O542 O 0.94215 0.07885 0.22642 0.0
O543 O 1.03935 1.04977 0.20252 0.0
C544 C 0.11288 0.96744 0.10713 0.0
C545 C 0.09728 0.91753 0.11562 0.0
C546 C 0.13446 0.92793 0.07043 0.0
C547 C 0.09664 0.87368 0.10091 0.0
C548 C 0.1353 0.97158 0.08517 0.0
C549 C 0.10996 0.88 0.07743 0.0
C550 C 0.09426 1.01541 0.11852 0.0
C551 C 0.93372 0.11513 0.1557 0.0
H552 H 0.88986 0.13929 0.25489 0.0
H553 H 0.89161 1.00149 0.31635 0.0
H554 H 0.87662 0.16492 0.29492 0.0
H555 H 0.90555 0.97585 0.27574 0.0
H556 H 0.0802 0.91364 0.13273 0.0
H557 H 0.14592 0.93468 0.05262 0.0
H558 H 0.07894 0.83704 0.10702 0.0
H559 H 0.14789 1.00981 0.07849 0.0
Eu560 Eu 0.33262 0.6999 0.94805 0.0
Eu561 Eu 0.33255 0.75022 0.89581 0.0
C562 C 0.28136 0.81583 0.93846 0.0
C563 C 0.32273 0.66177 1.01421 0.0
C564 C 0.27438 0.68214 1.02173 0.0
C565 C 0.3481 0.64921 0.05474 0.0
C566 C 0.26299 0.68578 1.04548 0.0
C567 C 0.35938 0.64547 1.03098 0.0
C568 C 0.2997 0.66945 0.06243 0.0
C569 C 0.33494 0.65411 0.9892 0.0
O570 O 0.39483 0.79994 0.91252 0.0
O571 O 0.41102 0.74387 0.94339 0.0
C572 C 0.42446 0.78431 0.92991 0.0
O573 O 0.35458 0.63659 0.92074 0.0
O574 O 0.36244 0.74861 0.8604 0.0
O575 O 0.29303 0.79445 0.86843 0.0
O576 O 0.4005 0.69636 0.90047 0.0
C577 C 0.3889 0.64696 0.90418 0.0
O578 O 0.24931 0.69594 0.9341 0.0
O579 O 0.27583 0.68141 0.89735 0.0
O580 O 0.2849 0.80749 0.91612 0.0
O581 O 0.37403 0.68108 0.98043 0.0
O582 O 0.29595 0.64978 0.97464 0.0
O583 O 0.3001 0.78276 0.95415 0.0
C584 C 0.2866 0.73535 0.83778 0.0
C585 C 0.28399 0.68074 0.84267 0.0
C586 C 0.21444 0.72473 0.81085 0.0
C587 C 0.24684 0.64835 0.83188 0.0
C588 C 0.25126 0.75723 0.82195 0.0
C589 C 0.21173 0.66983 0.81571 0.0
C590 C 0.3193 0.76979 0.85241 0.0
C591 C 0.23951 0.67838 0.91316 0.0
H592 H 0.24502 0.69461 1.00929 0.0
H593 H 0.37753 0.63641 0.06706 0.0
H594 H 0.2247 0.70035 0.0505 0.0
H595 H 0.39681 0.62921 1.02568 0.0
H596 H 0.30999 0.66324 0.85531 0.0
H597 H 0.18898 0.74262 0.79803 0.0
H598 H 0.24578 0.60654 0.83617 0.0
H599 H 0.2517 0.79944 0.81842 0.0
Eu600 Eu 0.64539 0.11946 0.70323 0.0
Eu601 Eu 0.57051 0.09983 0.65958 0.0
C602 C 0.54594 1.04501 0.70451 0.0
C603 C 0.69164 0.10579 0.76679 0.0
C604 C 0.64485 0.08407 0.7758 0.0
C605 C 0.73568 0.08457 0.80318 0.0
C606 C 0.64348 0.06302 0.79834 0.0
C607 C 0.73693 0.10576 0.78069 0.0
C608 C 0.68894 0.06283 0.81241 0.0
C609 C 0.69389 0.1296 0.74325 0.0
O610 O 0.54538 0.17585 0.67797 0.0
O611 O 0.62563 0.20164 0.69146 0.0
C612 C 0.57776 0.21335 0.68511 0.0
O613 O 0.69654 0.13868 0.67104 0.0
O614 O 0.48671 0.08967 0.65325 0.0
O615 O 0.54168 0.08762 0.62443 0.0
O616 O 0.6308 0.15372 0.64423 0.0
C617 C 0.68066 0.15432 0.65014 0.0
O618 O 0.66936 1.03904 0.69064 0.0
O619 O 0.63553 1.03946 0.65355 0.0
O620 O 0.56403 1.03269 0.68441 0.0
O621 O 0.65384 0.15816 0.73683 0.0
O622 O 0.71077 0.09966 0.72649 0.0
O623 O 0.56271 0.08999 0.71317 0.0
C624 C 0.47125 1.02746 0.62393 0.0
C625 C 0.44856 1.02358 0.60198 0.0
C626 C 0.47474 0.93154 0.62651 0.0
C627 C 0.44261 0.97403 0.59164 0.0
C628 C 0.48079 0.9812 0.63682 0.0
C629 C 0.46044 0.92789 0.60305 0.0
C630 C 0.49353 0.07822 0.63144 0.0
C631 C 0.6677 1.02021 0.66942 0.0
H632 H 0.60928 0.08354 0.76545 0.0
H633 H 0.7718 0.08427 0.81313 0.0
H634 H 0.60657 1.04716 0.80476 0.0
H635 H 0.77352 0.12211 0.77411 0.0
H636 H 0.44033 0.05896 0.59196 0.0
H637 H 0.48757 0.89677 0.63594 0.0
H638 H 0.4308 0.97319 0.57363 0.0
H639 H 0.49756 0.98349 0.65403 0.0
C640 C 0.10738 0.4596 0.27244 0.0
C641 C 0.09943 0.4266 0.25317 0.0
H642 H 0.10283 0.46478 0.30896 0.0
C643 C 0.05902 0.38816 0.25444 0.0
H644 H 0.1364 0.49109 0.27216 0.0
C645 C 1.0403 0.372 0.2761 0.0
C646 C 0.06104 0.39554 0.29618 0.0
H647 H 0.04904 0.36434 0.23946 0.0
H648 H 1.0175 0.33563 0.27728 0.0
C649 C 0.08771 0.44429 0.29393 0.0
C650 C 0.60021 0.50562 0.54471 0.0
C651 C 0.58997 0.49375 0.56795 0.0
H652 H 0.57017 0.53816 0.51324 0.0
C653 C 0.53883 0.50157 0.57684 0.0
H654 H 0.63898 0.49958 0.53747 0.0
C655 C 0.49977 0.52412 0.56311 0.0
C656 C 0.51166 0.53979 0.54052 0.0
H657 H 0.52987 0.49368 0.59486 0.0
H658 H 0.46111 0.53103 0.5703 0.0
C659 C 0.56136 0.52859 0.53113 0.0
C660 C 0.11261 0.63494 0.77086 0.0
C661 C 0.14727 0.60373 0.75774 0.0
H662 H 0.11147 0.6883 0.79968 0.0
C663 C 0.1791 0.56943 0.7709 0.0
H664 H 0.07934 0.65396 0.76281 0.0
C665 C 0.19737 0.58727 0.79238 0.0
C666 C 0.1776 0.63492 0.80143 0.0
H667 H 0.19945 0.53681 0.76281 0.0
H668 H 0.23094 0.56783 0.79998 0.0
C669 C 0.13041 0.65427 0.79214 0.0
C670 C 0.23017 0.41449 1.02799 0.0
C671 C 0.25409 0.45149 1.01289 0.0
H672 H 0.17933 0.40846 0.05756 0.0
C673 C 0.27824 0.49561 1.0236 0.0
H674 H 0.21834 0.37571 1.02181 0.0
C675 C 0.25659 0.51485 1.04405 0.0
C676 C 0.21579 0.48623 0.05488 0.0
H677 H 0.30433 0.5219 1.01416 0.0
H678 H 0.26679 0.55477 1.04935 0.0
C679 C 0.20745 0.43321 1.0484 0.0
C680 C 1.00385 0.75259 0.85542 0.0
C681 C 0.97867 0.70303 0.85273 0.0
H682 H 1.03787 0.81891 0.83771 0.0
C683 C 0.99058 0.67328 0.83295 0.0
H684 H 0.9982 0.77612 0.87086 0.0
C685 C 1.01046 0.69909 0.81344 0.0
C686 C 1.02181 0.75381 0.81432 0.0
H687 H 0.97492 0.63361 0.83097 0.0
H688 H 1.00859 0.67818 0.79713 0.0
C689 C 1.02633 0.77762 0.83621 0.0
C690 C 0.61083 0.36745 0.29649 0.0
C691 C 0.61217 0.31171 0.29794 0.0
H692 H 0.62452 0.4402 0.31449 0.0
C693 C 0.60749 0.28786 0.31982 0.0
H694 H 0.61293 0.38745 0.27991 0.0
C695 C 0.61535 0.31824 0.33968 0.0
C696 C 0.62735 0.37273 0.33768 0.0
H697 H 0.60635 0.24505 0.32147 0.0
H698 H 0.62063 0.29726 0.35589 0.0
C699 C 0.61784 0.39794 0.3164 0.0
C700 C 0.10238 0.84692 1.03693 0.0
C701 C 0.08186 0.84833 0.0595 0.0
H702 H 0.087 0.86643 1.0017 0.0
C703 C 1.02709 0.84148 0.06225 0.0
H704 H 0.1445 0.8491 1.03416 0.0
C705 C 0.99369 0.85035 1.04348 0.0
C706 C 1.01522 0.86599 1.02215 0.0
H707 H 1.00937 0.83979 0.07927 0.0
H708 H 0.95196 0.85469 1.04672 0.0
C709 C 0.06905 0.85672 1.01819 0.0
C710 C 0.56566 0.86022 0.5724 0.0
C711 C 0.54379 0.86442 0.55019 0.0
H712 H 0.55413 0.87614 0.60809 0.0
C713 C 0.48862 0.86356 0.54793 0.0
H714 H 0.60797 0.85893 0.57462 0.0
C715 C 0.45716 0.87282 0.56728 0.0
C716 C 0.4811 0.88395 0.58867 0.0
H717 H 0.47022 0.86525 0.53103 0.0
H718 H 0.41576 0.88085 0.56463 0.0
C719 C 0.5343 0.86999 0.5917 0.0
C720 C 0.23803 0.09366 0.98206 0.0
C721 C 0.22469 0.13942 0.96944 0.0
H722 H 0.26968 0.06172 1.0136 0.0
C723 C 0.23929 0.18916 0.97836 0.0
H724 H 0.22562 0.0549 0.97608 0.0
C725 C 0.26521 0.19304 0.99982 0.0
C726 C 0.27535 0.14732 1.01311 0.0
H727 H 0.22766 0.22509 0.96947 0.0
H728 H 0.274 0.23198 1.00676 0.0
C729 C 0.26261 0.09755 1.00372 0.0
C730 C 0.74256 0.55123 0.25166 0.0
C731 C 0.7034 0.53436 0.26742 0.0
H732 H 0.77882 0.5396 0.21843 0.0
C733 C 0.66594 0.49697 0.25983 0.0
H734 H 0.7717 0.58048 0.25674 0.0
C735 C 0.66962 0.47438 0.23785 0.0
C736 C 0.71074 0.48853 0.22272 0.0
H737 H 0.63555 0.48244 0.27137 0.0
H738 H 0.64205 0.44315 0.23323 0.0
C739 C 0.74614 0.5286 0.2295 0.0
C740 C 0.31657 0.99591 0.49523 0.0
C741 C 0.32983 0.95781 0.51222 0.0
H742 H 0.33189 1.02716 0.46114 0.0
C743 C 0.36426 0.91692 0.50586 0.0
H744 H 0.2896 1.0276 0.49926 0.0
C745 C 0.38738 0.91613 0.48389 0.0
C746 C 0.37695 0.95612 0.4675 0.0
H747 H 0.37614 0.88716 0.5183 0.0
H748 H 0.41641 0.88599 0.48027 0.0
C749 C 0.33989 0.99509 0.47312 0.0
C750 C 0.85707 0.59233 0.72574 0.0
C751 C 0.89907 0.62541 0.71904 0.0
H752 H 0.82191 0.54571 0.75284 0.0
C753 C 0.94153 0.63184 0.73452 0.0
H754 H 0.8238 0.58661 0.71436 0.0
C755 C 0.94054 0.60875 0.75659 0.0
C756 C 0.89689 0.57862 0.76399 0.0
H757 H 0.97457 0.65723 0.73004 0.0
H758 H 0.97284 0.6171 0.76827 0.0
C759 C 0.85583 0.56943 0.74797 0.0
C760 C 0.83531 1.00975 0.12162 0.0
C761 C 0.87096 0.97105 0.12919 0.0
H762 H 0.7869 1.03805 0.09385 0.0
C763 C 0.87952 0.92673 0.11499 0.0
H764 H 0.82894 1.04506 0.13185 0.0
C765 C 0.85541 0.92239 0.09328 0.0
C766 C 0.82251 0.96275 0.08482 0.0
H767 H 0.90718 0.89643 0.12021 0.0
H768 H 0.86402 0.88791 0.08286 0.0
C769 C 0.8115 1.00577 0.09966 0.0
C770 C 0.3595 0.57665 0.8757 0.0
C771 C 0.39876 0.61096 0.88424 0.0
H772 H 0.33021 0.53281 0.8465 0.0
C773 C 0.44273 0.62156 0.87012 0.0
H774 H 0.32454 0.56853 0.88585 0.0
C775 C 0.44554 0.60232 0.84746 0.0
C776 C 0.40451 0.5714 0.83808 0.0
H777 H 0.47343 0.64834 0.87604 0.0
H778 H 0.4784 0.61497 0.83685 0.0
C779 C 0.36232 0.55715 0.85286 0.0
C780 C 0.78937 0.13538 0.60591 0.0
C781 C 0.77217 0.16845 0.58764 0.0
H782 H 0.77492 0.10584 0.64039 0.0
C783 C 0.72953 0.20232 0.592 0.0
H784 H 0.82243 0.10915 0.60345 0.0
C785 C 0.70308 0.20095 0.61326 0.0
C786 C 0.71831 0.16586 0.63098 0.0
H787 H 0.7143 0.22787 0.57852 0.0
H788 H 0.66856 0.22545 0.61537 0.0
C789 C 0.76281 0.13416 0.62733 0.0
C790 C 0.25587 0.5225 0.37221 0.0
C791 C 0.21051 0.50166 0.38284 0.0
H792 H 0.29014 0.55631 0.34154 0.0
C793 C 0.16279 0.50341 0.37055 0.0
H794 H 0.2933 0.52103 0.38098 0.0
C795 C 0.16075 0.52346 0.34794 0.0
C796 C 0.20665 0.54143 0.33667 0.0
H797 H 0.12717 0.48709 0.37811 0.0
H798 H 0.12334 0.52276 0.33902 0.0
C799 C 0.25409 0.54183 0.34937 0.0
C800 C 0.76503 0.66447 0.50025 0.0
C801 C 0.74961 0.63648 0.52034 0.0
H802 H 0.75006 0.67866 0.46387 0.0
C803 C 0.71054 0.59739 0.51836 0.0
H804 H 0.79524 0.69486 0.50128 0.0
C805 C 0.68516 0.58833 0.49739 0.0
C806 C 0.69766 0.61828 0.47758 0.0
H807 H 0.69873 0.57443 0.53327 0.0
H808 H 0.65476 0.55809 0.4968 0.0
C809 C 0.73922 0.65533 0.47891 0.0
C810 C 0.18987 1.04883 0.74613 0.0
C811 C 0.21743 1.02841 0.7654 0.0
H812 H 0.17212 1.04014 0.70969 0.0
C813 C 0.25305 0.98697 0.76178 0.0
H814 H 0.16207 0.08075 0.74835 0.0
C815 C 0.25823 0.96391 0.74004 0.0
C816 C 0.22856 0.98182 0.72108 0.0
H817 H 0.27586 0.97101 0.776 0.0
H818 H 0.28448 0.9305 0.73825 0.0
C819 C 0.1955 1.02569 0.72403 0.0
C820 C 0.81124 0.49743 1.00123 0.0
C821 C 0.82973 0.45977 1.01739 0.0
H822 H 0.82142 0.53328 0.96769 0.0
C823 C 0.86835 0.42377 1.01005 0.0
H824 H 0.78199 0.52626 1.00617 0.0
C825 C 0.89095 0.42817 0.98806 0.0
C826 C 0.87487 0.46786 0.97255 0.0
H827 H 0.88276 0.39332 1.02163 0.0
H828 H 0.92338 0.40242 0.98364 0.0
C829 C 0.83347 0.50127 0.97901 0.0
C830 C 0.33967 0.15221 0.24183 0.0
C831 C 0.37572 0.14699 0.22354 0.0
H832 H 0.31874 0.13183 0.2765 0.0
C833 C 0.41825 0.1123 0.22626 0.0
H834 H 0.30615 0.17832 0.24014 0.0
C835 C 0.42601 0.08582 0.24754 0.0
C836 C 0.39135 0.09374 0.26634 0.0
H837 H 0.44684 0.10792 0.21252 0.0
H838 H 0.46034 0.06108 0.24959 0.0
C839 C 0.34722 0.12598 0.26282 0.0
C840 C 0.3806 0.53426 0.61388 0.0
C841 C 0.40221 0.49289 0.62701 0.0
H842 H 0.34343 0.55785 0.58239 0.0
C843 C 0.3984 0.44097 0.6185 0.0
H844 H 0.38469 0.57493 0.61965 0.0
C845 C 0.37381 0.43065 0.59714 0.0
C846 C 0.35359 0.47224 0.58339 0.0
H847 H 0.41597 0.40854 0.62802 0.0
H848 H 0.37169 0.38998 0.59128 0.0
C849 C 0.35679 0.52421 0.59239 0.0
C850 C 0.90987 0.08306 0.3516 0.0
C851 C 0.87739 0.10279 0.33369 0.0
H852 H 0.93564 0.09163 0.38712 0.0
C853 C 0.8417 0.14312 0.3391 0.0
H854 H 0.93798 0.05206 0.34804 0.0
C855 C 0.84089 0.16567 0.3611 0.0
C856 C 0.87512 0.14829 0.37864 0.0
H857 H 0.8152 0.15857 0.32607 0.0
H858 H 0.81435 0.19832 0.36414 0.0
C859 C 0.90867 0.10561 0.37397 0.0
C860 C 0.28124 0.6309 0.12633 0.0
C861 C 0.24552 0.66966 0.13375 0.0
H862 H 0.32645 0.60015 0.09803 0.0
C863 C 0.23495 0.7124 0.11875 0.0
H864 H 0.28958 0.59695 0.13721 0.0
C865 C 0.25486 0.71367 0.09619 0.0
C866 C 0.2865 0.67242 0.08783 0.0
H867 H 0.20777 0.74313 0.12387 0.0
H868 H 0.24356 0.74615 0.08499 0.0
C869 C 0.30199 0.63262 0.10367 0.0
C870 C 0.65892 0.99102 0.84001 0.0
C871 C 0.68845 1.03755 0.83603 0.0
H872 H 0.64202 0.92617 0.86286 0.0
C873 C 0.71971 0.05738 0.85437 0.0
H874 H 0.63498 0.97381 0.82642 0.0
C875 C 0.72348 1.02979 0.87554 0.0
C876 C 0.69615 0.98176 0.8788 0.0
H877 H 0.74255 0.09343 0.85215 0.0
H878 H 0.75048 1.04409 0.88868 0.0
C879 C 0.66284 0.96359 0.86102 0.0
C880 C 0.54222 0.26831 0.15913 0.0
C881 C 0.50382 0.30526 0.16569 0.0
H882 H 0.62464 0.25294 0.15454 0.0
C883 C 0.51988 0.35679 0.17179 0.0
H884 H 0.53104 0.22821 0.15447 0.0
C885 C 0.57309 0.37122 0.17124 0.0
C886 C 0.61157 0.33404 0.16518 0.0
H887 H 0.49124 0.38614 0.1769 0.0
H888 H 0.58426 0.41119 0.17616 0.0
C889 C 0.59572 0.28235 0.15924 0.0
C890 C 0.54542 0.7645 0.43603 0.0
C891 C 0.56595 0.74049 0.41602 0.0
H892 H 0.51769 0.83616 0.45188 0.0
C893 C 0.57406 0.77219 0.39621 0.0
H894 H 0.53902 0.74138 0.45162 0.0
C895 C 0.56104 0.82631 0.3963 0.0
C896 C 0.54109 0.85017 0.41638 0.0
H897 H 0.58951 0.75488 0.3805 0.0
H898 H 0.5666 0.84955 0.38068 0.0
C899 C 0.53359 0.81882 0.43626 0.0
C900 C 1.02078 0.85729 0.66141 0.0
C901 C 1.00569 0.80365 0.65984 0.0
H902 H 0.08405 0.91407 0.66147 0.0
C903 C 1.04511 0.76558 0.65631 0.0
H904 H 0.99149 0.88759 0.66424 0.0
C905 C 0.09844 0.78063 0.65529 0.0
C906 C 0.11356 0.83427 0.65715 0.0
H907 H 1.03496 0.72386 0.65532 0.0
H908 H 0.12791 0.75014 0.65336 0.0
C909 C 0.07391 0.87247 0.65977 0.0
C910 C 1.02218 0.33779 0.93726 0.0
C911 C 1.01785 0.36455 0.91594 0.0
H912 H 1.03838 0.26446 0.95484 0.0
C913 C 1.02729 0.33607 0.89547 0.0
H914 H 1.01491 0.3586 0.95332 0.0
C915 C 1.04242 0.28248 0.89639 0.0
C916 C 1.04631 0.25563 0.91774 0.0
H917 H 1.02436 0.35562 0.8788 0.0
H918 H 0.05076 0.2619 0.88038 0.0
C919 C 1.0353 0.2838 0.93813 0.0
C920 C 0.5617 0.8175 0.95242 0.0
C921 C 0.58522 0.83935 0.93252 0.0
H922 H 0.49218 0.78207 0.96719 0.0
C923 C 0.55435 0.84698 0.91265 0.0
H924 H 0.58479 0.81091 0.96792 0.0
C925 C 0.50144 0.83173 0.91237 0.0
C926 C 0.4783 0.80725 0.9318 0.0
H927 H 0.57145 0.86392 0.8971 0.0
H928 H 0.47942 0.83697 0.89647 0.0
C929 C 0.50881 0.80089 0.95196 0.0
C930 C 0.51641 0.34434 0.70281 0.0
C931 C 0.53672 0.37923 0.68588 0.0
H932 H 0.51335 0.26414 0.71581 0.0
C933 C 0.56879 0.358 0.66835 0.0
H934 H 0.49161 0.3591 0.71657 0.0
C935 C 0.58129 0.30401 0.66803 0.0
C936 C 0.56143 0.26956 0.68501 0.0
H937 H 0.58414 0.38297 0.65469 0.0
H938 H 0.60658 0.28911 0.65445 0.0
C939 C 0.52865 0.28999 0.70236 0.0
C940 C 0.08991 0.27255 0.44189 0.0
C941 C 0.10498 0.32624 0.44304 0.0
H942 H 1.02677 0.21584 0.44087 0.0
C943 C 0.06524 0.36466 0.44475 0.0
H944 H 0.11943 0.24197 0.44037 0.0
C945 C 1.01173 0.34974 0.44442 0.0
C946 C 0.99675 0.29596 0.44294 0.0
H947 H 0.07543 0.40642 0.44527 0.0
H948 H 0.98211 0.38036 0.44506 0.0
C949 C 1.03666 0.25758 0.44215 0.0
C950 C 1.01271 0.77686 0.18641 0.0
C951 C 0.06618 0.76326 0.18694 0.0
H952 H 0.95607 0.8395 0.18626 0.0
C953 C 0.1042 0.80392 0.18827 0.0
H954 H 0.98265 0.74631 0.1853 0.0
C955 C 0.08911 0.85719 0.18825 0.0
C956 C 1.03565 0.87084 0.18758 0.0
H957 H 0.14575 0.79465 0.18842 0.0
H958 H 0.11931 0.88772 0.18852 0.0
C959 C 0.99756 0.83014 0.18707 0.0
C960 C 0.21799 0.37345 0.1624 0.0
C961 C 0.25498 0.37606 0.14434 0.0
H962 H 0.16222 0.41619 0.18306 0.0
C963 C 0.26119 0.42355 0.13201 0.0
H964 H 0.21089 0.33649 0.17149 0.0
C965 C 0.23346 0.46879 0.13855 0.0
C966 C 0.19868 0.46719 0.15747 0.0
H967 H 0.28823 0.42595 0.11754 0.0
H968 H 0.23997 0.5053 0.12903 0.0
C969 C 0.19039 0.41888 0.16906 0.0
C970 C 0.39946 0.50712 0.39603 0.0
C971 C 0.39176 0.45256 0.3921 0.0
H972 H 0.45366 0.5726 0.39607 0.0
C973 C 0.43276 0.42333 0.38224 0.0
H974 H 0.36892 0.53045 0.40408 0.0
C975 C 0.4822 0.44718 0.37861 0.0
C976 C 0.49072 0.50106 0.38389 0.0
H977 H 0.42818 0.38109 0.37944 0.0
H978 H 0.51497 0.42247 0.37359 0.0
C979 C 0.44798 0.53143 0.39134 0.0
C980 C 0.41929 0.76922 0.63702 0.0
C981 C 0.36432 0.77076 0.63921 0.0
H982 H 0.48941 0.72351 0.64145 0.0
C983 C 0.337 0.72373 0.64466 0.0
H984 H 0.44132 0.80524 0.63343 0.0
C985 C 0.36464 0.67774 0.6506 0.0
C986 C 0.41989 0.67751 0.65011 0.0
H987 H 0.29467 0.72413 0.64685 0.0
H988 H 0.34297 0.64316 0.65655 0.0
C989 C 0.44681 0.72269 0.64201 0.0
C990 C 0.12851 0.59742 0.88622 0.0
C991 C 0.0843 0.6227 0.89558 0.0
H992 H 0.21315 0.59567 0.88452 0.0
C993 C 0.09202 0.66892 0.90891 0.0
H994 H 0.12398 0.56164 0.87606 0.0
C995 C 0.1424 0.68632 0.91478 0.0
C996 C 0.18651 0.65954 0.90656 0.0
H997 H 0.05882 0.68982 0.9162 0.0
H998 H 0.14684 0.72065 0.92588 0.0
C999 C 0.17939 0.61631 0.89142 0.0
C1000 C 0.87296 0.7493 0.96139 0.0
C1001 C 0.81824 0.74602 0.95785 0.0
H1002 H 0.94716 0.70894 0.95922 0.0
C1003 C 0.79613 0.69662 0.9517 0.0
H1004 H 0.89134 0.78674 0.96593 0.0
C1005 C 0.82796 0.653 0.94721 0.0
C1006 C 0.88268 0.65687 0.94957 0.0
H1007 H 0.75414 0.69235 0.94897 0.0
H1008 H 0.80979 0.61654 0.9412 0.0
C1009 C 0.90489 0.70484 0.95748 0.0
C1010 C 0.7087 0.61895 0.70505 0.0
C1011 C 0.71472 0.67428 0.70673 0.0
H1012 H 0.656 0.55223 0.70711 0.0
C1013 C 0.67192 0.70451 0.71424 0.0
H1014 H 0.7407 0.59479 0.69885 0.0
C1015 C 0.62262 0.6804 0.71771 0.0
C1016 C 0.61585 0.6254 0.71475 0.0
H1017 H 0.67536 0.74727 0.71539 0.0
H1018 H 0.58885 0.70532 0.72091 0.0
C1019 C 0.66015 0.59453 0.70981 0.0
C1020 C 0.68947 0.3541 0.46564 0.0
C1021 C 0.74445 0.35408 0.46323 0.0
H1022 H 0.61802 0.3979 0.46145 0.0
C1023 C 0.77041 0.40175 0.45768 0.0
H1024 H 0.66847 0.31743 0.46918 0.0
C1025 C 0.74143 0.44697 0.45197 0.0
C1026 C 0.68619 0.4457 0.4527 0.0
H1027 H 0.81266 0.40244 0.45521 0.0
H1028 H 0.76203 0.48206 0.44586 0.0
C1029 C 0.66059 0.39987 0.46083 0.0
C1030 C 0.9526 0.43954 0.20523 0.0
C1031 C 0.90435 0.46142 0.19832 0.0
H1032 H 1.03551 0.45402 0.20996 0.0
C1033 C 0.90034 0.51647 0.19562 0.0
H1034 H 0.95655 0.39701 0.20714 0.0
C1035 C 0.94467 0.54886 0.19787 0.0
C1036 C 0.99411 0.5268 0.20256 0.0
H1037 H 0.8635 0.53409 0.19024 0.0
H1038 H 0.94127 0.59063 0.19369 0.0
C1039 C 0.99752 0.47216 0.20718 0.0
C1040 C 0.7205 0.88658 0.65005 0.0
C1041 C 0.76783 0.88518 0.66267 0.0
H1042 H 0.65077 0.93147 0.64206 0.0
C1043 C 0.78449 0.93068 0.67455 0.0
H1044 H 0.70646 0.85148 0.64113 0.0
C1045 C 0.75295 0.97549 0.67528 0.0
C1046 C 0.70378 0.97602 0.66419 0.0
H1047 H 0.82066 0.93042 0.68452 0.0
H1048 H 0.76601 1.00903 0.68555 0.0
C1049 C 0.68862 0.93208 0.6507 0.0
C1050 C 0.93695 0.91766 0.90675 0.0
C1051 C 0.8892 0.94506 0.90751 0.0
H1052 H 1.02096 0.92416 0.90524 0.0
C1053 C 0.88927 1.00015 0.90329 0.0
H1054 H 0.93812 0.87535 0.90998 0.0
C1055 C 0.93657 1.02791 0.89999 0.0
C1056 C 0.98453 1.00106 0.90121 0.0
H1057 H 0.85287 1.02224 0.90359 0.0
H1058 H 0.9358 0.07072 0.89844 0.0
C1059 C 0.98425 0.94556 0.90388 0.0
C1060 C 0.93198 0.20767 0.14044 0.0
C1061 C 0.90473 0.16194 0.14762 0.0
H1062 H 0.92838 0.29217 0.13608 0.0
C1063 C 0.8501 0.16413 0.15092 0.0
H1064 H 0.97428 0.20693 0.13819 0.0
C1065 C 0.82367 0.21224 0.1488 0.0
C1066 C 0.85173 0.25904 0.14396 0.0
H1067 H 0.82845 0.12938 0.15669 0.0
H1068 H 0.78243 0.21381 0.15351 0.0
C1069 C 0.9057 0.25623 0.13899 0.0
C1070 C 0.66326 0.07251 0.40345 0.0
C1071 C 0.61722 0.09704 0.39554 0.0
H1072 H 0.74219 0.08331 0.41569 0.0
C1073 C 0.61876 0.15139 0.3901 0.0
H1074 H 0.66255 1.03112 0.40857 0.0
C1075 C 0.66458 0.18142 0.39404 0.0
C1076 C 0.70879 0.15769 0.40423 0.0
H1077 H 0.58319 0.17155 0.38481 0.0
H1078 H 0.66377 0.22385 0.3911 0.0
C1079 C 0.70847 0.10262 0.40797 0.0
C1080 C 0.38314 0.23537 0.45193 0.0
C1081 C 0.34146 0.24108 0.43607 0.0
H1082 H 0.44828 0.18673 0.46297 0.0
C1083 C 0.33009 0.19906 0.42089 0.0
H1084 H 0.39301 0.26731 0.46369 0.0
C1085 C 0.36161 0.15429 0.42021 0.0
C1086 C 0.40533 0.14961 0.43486 0.0
H1087 H 0.29784 0.2018 0.40866 0.0
H1088 H 0.35245 0.12374 0.40763 0.0
C1089 C 0.41486 0.18955 0.4514 0.0
C1090 C 0.15478 0.08928 0.19486 0.0
C1091 C 0.10791 0.11703 0.19841 0.0
H1092 H 0.23726 0.09489 0.18763 0.0
C1093 C 0.10951 0.17237 0.20073 0.0
H1094 H 0.15405 1.04672 0.1923 0.0
C1095 C 0.15697 0.20003 0.19812 0.0
C1096 C 0.20314 0.17271 0.19245 0.0
H1097 H 0.07343 0.1945 0.2028 0.0
H1098 H 0.15661 0.24297 0.19873 0.0
C1099 C 0.20208 0.11696 0.19176 0.0
C1100 C 0.18062 0.91703 0.95673 0.0
C1101 C 0.19832 0.96116 0.94383 0.0
H1102 H 0.19391 0.83495 0.96545 0.0
C1103 C 0.24784 0.95902 0.93317 0.0
H1104 H 0.14241 0.91758 0.96502 0.0
C1105 C 0.27717 0.91261 0.93371 0.0
C1106 C 0.25781 0.86703 0.94488 0.0
H1107 H 0.26283 0.99252 0.92334 0.0
H1108 H 0.31361 0.91122 0.92399 0.0
C1109 C 0.21016 0.86995 0.95714 0.0
C1110 C 0.44452 0.93858 0.70873 0.0
C1111 C 0.401 0.9652 0.69946 0.0
H1112 H 0.52602 0.94433 0.71815 0.0
C1113 C 0.40298 1.02069 0.69732 0.0
H1114 H 0.4441 0.89577 0.71033 0.0
C1115 C 0.44902 1.04872 0.70287 0.0
C1116 C 0.4943 1.02149 0.70992 0.0
H1117 H 0.36982 1.04208 0.69022 0.0
H1118 H 0.45091 0.09086 0.69923 0.0
C1119 C 0.49112 0.96643 0.71354 0.0
loop_
_geom_bond_atom_site_label_1
_geom_bond_atom_site_label_2
_geom_bond_distance
_geom_bond_site_symmetry_2
_ccdc_geom_bond_type
Eu0 C9 2.828 . S
Eu0 O11 2.392 . S
Eu0 O13 2.418 . S
Eu0 O18 2.373 . S
Eu0 O21 2.488 . S
Eu0 O22 2.471 . S
Eu0 O23 2.349 . S
Eu1 O10 2.373 . S
Eu1 O14 2.488 . S
Eu1 O15 2.471 . S
Eu1 O16 2.349 . S
Eu1 O19 2.392 . S
Eu1 O20 2.418 . S
Eu1 C30 2.828 . S
C2 O20 1.244 . S
C2 O23 1.265 . S
C3 C4 1.379 . S
C3 C7 1.373 . S
C3 C9 1.505 . S
C4 C3 1.379 . S
C4 C6 1.369 . S
C4 H32 0.930 . S
C5 C7 1.383 . S
C5 C8 1.382 . S
C5 H33 0.930 . S
C6 C4 1.369 . S
C6 C8 1.392 . S
C6 H34 0.930 . S
C7 C3 1.373 . S
C7 C5 1.383 . S
C7 H35 0.931 . S
C8 C5 1.382 . S
C8 C6 1.392 . S
C9 Eu0 2.828 . S
C9 C3 1.505 . S
C9 O21 1.249 . S
C9 O22 1.244 . S
O10 Eu1 2.373 . S
O10 C12 1.258 . S
O11 Eu0 2.392 . S
O11 C12 1.242 . S
C12 O10 1.258 . S
C12 O11 1.242 . S
O13 Eu0 2.418 . S
O13 C17 1.244 . S
O14 Eu1 2.488 . S
O14 C30 1.249 . S
O15 Eu1 2.471 . S
O15 C30 1.244 . S
O16 Eu1 2.349 . S
O16 C17 1.265 . S
C17 O13 1.244 . S
C17 O16 1.265 . S
O18 Eu0 2.373 . S
O18 C31 1.258 . S
O19 Eu1 2.392 . S
O19 C31 1.242 . S
O20 Eu1 2.418 . S
O20 C2 1.244 . S
O21 Eu0 2.488 . S
O21 C9 1.249 . S
O22 Eu0 2.471 . S
O22 C9 1.244 . S
O23 Eu0 2.349 . S
O23 C2 1.265 . S
C24 C25 1.379 . S
C24 C28 1.373 1_545 S
C24 C30 1.505 . S
C25 C24 1.379 . S
C25 C27 1.369 . S
C25 H36 0.930 . S
C26 C28 1.383 . S
C26 C29 1.382 . S
C26 H37 0.930 . S
C27 C25 1.369 . S
C27 C29 1.392 1_545 S
C27 H38 0.930 . S
C28 C24 1.373 1_565 S
C28 C26 1.383 . S
C28 H39 0.931 . S
C29 C26 1.382 . S
C29 C27 1.392 1_565 S
C30 Eu1 2.828 . S
C30 O14 1.249 . S
C30 O15 1.244 . S
C30 C24 1.505 . S
C31 O18 1.258 . S
C31 O19 1.242 . S
H32 C4 0.930 . S
H33 C5 0.930 . S
H34 C6 0.930 . S
H35 C7 0.931 . S
H36 C25 0.930 . S
H37 C26 0.930 . S
H38 C27 0.930 . S
H39 C28 0.931 . S
Eu40 C49 2.828 . S
Eu40 O51 2.392 . S
Eu40 O53 2.418 . S
Eu40 O58 2.373 . S
Eu40 O61 2.488 . S
Eu40 O62 2.471 . S
Eu40 O63 2.349 . S
Eu41 O50 2.373 . S
Eu41 O54 2.488 . S
Eu41 O55 2.471 . S
Eu41 O56 2.349 . S
Eu41 O59 2.392 . S
Eu41 O60 2.418 . S
Eu41 C70 2.828 . S
C42 O60 1.244 . S
C42 O63 1.265 . S
C43 C44 1.379 . S
C43 C47 1.373 . S
C43 C49 1.505 . S
C44 C43 1.379 . S
C44 C46 1.369 . S
C44 H72 0.930 . S
C45 C47 1.383 . S
C45 C48 1.382 . S
C45 H73 0.930 . S
C46 C44 1.369 . S
C46 C48 1.392 . S
C46 H74 0.930 . S
C47 C43 1.373 . S
C47 C45 1.383 . S
C47 H75 0.931 . S
C48 C45 1.382 . S
C48 C46 1.392 . S
C49 Eu40 2.828 . S
C49 C43 1.505 . S
C49 O61 1.249 . S
C49 O62 1.244 . S
O50 Eu41 2.373 . S
O50 C52 1.258 . S
O51 Eu40 2.392 . S
O51 C52 1.242 . S
C52 O50 1.258 . S
C52 O51 1.242 . S
O53 Eu40 2.418 . S
O53 C57 1.244 . S
O54 Eu41 2.488 . S
O54 C70 1.249 . S
O55 Eu41 2.471 . S
O55 C70 1.244 . S
O56 Eu41 2.349 . S
O56 C57 1.265 . S
C57 O53 1.244 . S
C57 O56 1.265 . S
O58 Eu40 2.373 . S
O58 C71 1.258 . S
O59 Eu41 2.392 . S
O59 C71 1.242 . S
O60 Eu41 2.418 . S
O60 C42 1.244 . S
O61 Eu40 2.488 . S
O61 C49 1.249 . S
O62 Eu40 2.471 . S
O62 C49 1.244 . S
O63 Eu40 2.349 . S
O63 C42 1.265 . S
C64 C65 1.379 . S
C64 C68 1.373 . S
C64 C70 1.505 . S
C65 C64 1.379 . S
C65 C67 1.369 . S
C65 H76 0.930 . S
C66 C68 1.383 . S
C66 C69 1.382 . S
C66 H77 0.930 . S
C67 C65 1.369 . S
C67 C69 1.392 . S
C67 H78 0.930 . S
C68 C64 1.373 . S
C68 C66 1.383 . S
C68 H79 0.931 . S
C69 C66 1.382 . S
C69 C67 1.392 . S
C70 Eu41 2.828 . S
C70 O54 1.249 . S
C70 O55 1.244 . S
C70 C64 1.505 . S
C71 O58 1.258 . S
C71 O59 1.242 . S
H72 C44 0.930 . S
H73 C45 0.930 . S
H74 C46 0.930 . S
H75 C47 0.931 . S
H76 C65 0.930 . S
H77 C66 0.930 . S
H78 C67 0.930 . S
H79 C68 0.931 . S
Eu80 C89 2.828 . S
Eu80 O91 2.392 . S
Eu80 O93 2.418 . S
Eu80 O98 2.373 . S
Eu80 O101 2.488 . S
Eu80 O102 2.471 . S
Eu80 O103 2.349 . S
Eu81 O90 2.373 . S
Eu81 O94 2.488 . S
Eu81 O95 2.471 . S
Eu81 O96 2.349 . S
Eu81 O99 2.392 . S
Eu81 O100 2.418 . S
Eu81 C110 2.828 . S
C82 O100 1.244 . S
C82 O103 1.265 . S
C83 C84 1.379 . S
C83 C87 1.373 . S
C83 C89 1.505 . S
C84 C83 1.379 . S
C84 C86 1.369 . S
C84 H112 0.930 . S
C85 C87 1.383 . S
C85 C88 1.382 . S
C85 H113 0.930 . S
C86 C84 1.369 . S
C86 C88 1.392 . S
C86 H114 0.930 . S
C87 C83 1.373 . S
C87 C85 1.383 . S
C87 H115 0.931 . S
C88 C85 1.382 . S
C88 C86 1.392 . S
C89 Eu80 2.828 . S
C89 C83 1.505 . S
C89 O101 1.249 . S
C89 O102 1.244 . S
O90 Eu81 2.373 . S
O90 C92 1.258 . S
O91 Eu80 2.392 . S
O91 C92 1.242 . S
C92 O90 1.258 . S
C92 O91 1.242 . S
O93 Eu80 2.418 . S
O93 C97 1.244 . S
O94 Eu81 2.488 . S
O94 C110 1.249 . S
O95 Eu81 2.471 . S
O95 C110 1.244 . S
O96 Eu81 2.349 . S
O96 C97 1.265 . S
C97 O93 1.244 . S
C97 O96 1.265 . S
O98 Eu80 2.373 . S
O98 C111 1.258 . S
O99 Eu81 2.392 . S
O99 C111 1.242 . S
O100 Eu81 2.418 . S
O100 C82 1.244 . S
O101 Eu80 2.488 . S
O101 C89 1.249 . S
O102 Eu80 2.471 . S
O102 C89 1.244 . S
O103 Eu80 2.349 . S
O103 C82 1.265 . S
C104 C105 1.379 . S
C104 C108 1.373 1_565 S
C104 C110 1.505 . S
C105 C104 1.379 . S
C105 C107 1.369 . S
C105 H116 0.930 . S
C106 C108 1.383 . S
C106 C109 1.382 . S
C106 H117 0.930 . S
C107 C105 1.369 . S
C107 C109 1.392 1_565 S
C107 H118 0.930 . S
C108 C104 1.373 1_545 S
C108 C106 1.383 . S
C108 H119 0.931 . S
C109 C106 1.382 . S
C109 C107 1.392 1_545 S
C110 Eu81 2.828 . S
C110 O94 1.249 . S
C110 O95 1.244 . S
C110 C104 1.505 . S
C111 O98 1.258 . S
C111 O99 1.242 . S
H112 C84 0.930 . S
H113 C85 0.930 . S
H114 C86 0.930 . S
H115 C87 0.931 . S
H116 C105 0.930 . S
H117 C106 0.930 . S
H118 C107 0.930 . S
H119 C108 0.931 . S
Eu120 C129 2.828 . S
Eu120 O131 2.392 . S
Eu120 O133 2.418 . S
Eu120 O138 2.373 . S
Eu120 O141 2.488 . S
Eu120 O142 2.471 . S
Eu120 O143 2.349 . S
Eu121 O130 2.373 . S
Eu121 O134 2.488 . S
Eu121 O135 2.471 . S
Eu121 O136 2.349 . S
Eu121 O139 2.392 . S
Eu121 O140 2.418 . S
Eu121 C150 2.828 . S
C122 O140 1.244 . S
C122 O143 1.265 . S
C123 C124 1.379 . S
C123 C127 1.373 1_655 S
C123 C129 1.505 . S
C124 C123 1.379 . S
C124 C126 1.369 . S
C124 H152 0.930 . S
C125 C127 1.383 . S
C125 C128 1.382 . S
C125 H153 0.930 . S
C126 C124 1.369 . S
C126 C128 1.392 1_655 S
C126 H154 0.930 . S
C127 C123 1.373 1_455 S
C127 C125 1.383 . S
C127 H155 0.931 . S
C128 C125 1.382 . S
C128 C126 1.392 1_455 S
C129 Eu120 2.828 . S
C129 C123 1.505 . S
C129 O141 1.249 . S
C129 O142 1.244 . S
O130 Eu121 2.373 . S
O130 C132 1.258 . S
O131 Eu120 2.392 . S
O131 C132 1.242 . S
C132 O130 1.258 . S
C132 O131 1.242 . S
O133 Eu120 2.418 . S
O133 C137 1.244 . S
O134 Eu121 2.488 . S
O134 C150 1.249 . S
O135 Eu121 2.471 . S
O135 C150 1.244 . S
O136 Eu121 2.349 . S
O136 C137 1.265 . S
C137 O133 1.244 . S
C137 O136 1.265 . S
O138 Eu120 2.373 . S
O138 C151 1.258 . S
O139 Eu121 2.392 . S
O139 C151 1.242 . S
O140 Eu121 2.418 . S
O140 C122 1.244 . S
O141 Eu120 2.488 . S
O141 C129 1.249 . S
O142 Eu120 2.471 . S
O142 C129 1.244 . S
O143 Eu120 2.349 . S
O143 C122 1.265 . S
C144 C145 1.379 . S
C144 C148 1.373 . S
C144 C150 1.505 . S
C145 C144 1.379 . S
C145 C147 1.369 . S
C145 H156 0.930 . S
C146 C148 1.383 . S
C146 C149 1.382 . S
C146 H157 0.930 . S
C147 C145 1.369 . S
C147 C149 1.392 . S
C147 H158 0.930 . S
C148 C144 1.373 . S
C148 C146 1.383 . S
C148 H159 0.931 . S
C149 C146 1.382 . S
C149 C147 1.392 . S
C150 Eu121 2.828 . S
C150 O134 1.249 . S
C150 O135 1.244 . S
C150 C144 1.505 . S
C151 O138 1.258 . S
C151 O139 1.242 . S
H152 C124 0.930 . S
H153 C125 0.930 . S
H154 C126 0.930 . S
H155 C127 0.931 . S
H156 C145 0.930 . S
H157 C146 0.930 . S
H158 C147 0.930 . S
H159 C148 0.931 . S
Eu160 C169 2.828 . S
Eu160 O171 2.392 . S
Eu160 O173 2.418 . S
Eu160 O178 2.373 . S
Eu160 O181 2.488 . S
Eu160 O182 2.471 . S
Eu160 O183 2.349 . S
Eu161 O170 2.373 . S
Eu161 O174 2.488 . S
Eu161 O175 2.471 . S
Eu161 O176 2.349 . S
Eu161 O179 2.392 . S
Eu161 O180 2.418 . S
Eu161 C190 2.828 . S
C162 O180 1.244 . S
C162 O183 1.265 . S
C163 C164 1.379 . S
C163 C167 1.373 1_565 S
C163 C169 1.505 . S
C164 C163 1.379 . S
C164 C166 1.369 . S
C164 H192 0.930 . S
C165 C167 1.383 . S
C165 C168 1.382 . S
C165 H193 0.930 . S
C166 C164 1.369 . S
C166 C168 1.392 1_565 S
C166 H194 0.930 . S
C167 C163 1.373 1_545 S
C167 C165 1.383 . S
C167 H195 0.931 . S
C168 C165 1.382 . S
C168 C166 1.392 1_545 S
C169 Eu160 2.828 . S
C169 C163 1.505 . S
C169 O181 1.249 . S
C169 O182 1.244 . S
O170 Eu161 2.373 . S
O170 C172 1.258 . S
O171 Eu160 2.392 . S
O171 C172 1.242 . S
C172 O170 1.258 . S
C172 O171 1.242 . S
O173 Eu160 2.418 . S
O173 C177 1.244 . S
O174 Eu161 2.488 . S
O174 C190 1.249 . S
O175 Eu161 2.471 . S
O175 C190 1.244 . S
O176 Eu161 2.349 . S
O176 C177 1.265 . S
C177 O173 1.244 . S
C177 O176 1.265 . S
O178 Eu160 2.373 . S
O178 C191 1.258 . S
O179 Eu161 2.392 . S
O179 C191 1.242 . S
O180 Eu161 2.418 . S
O180 C162 1.244 . S
O181 Eu160 2.488 . S
O181 C169 1.249 . S
O182 Eu160 2.471 . S
O182 C169 1.244 . S
O183 Eu160 2.349 . S
O183 C162 1.265 . S
C184 C185 1.379 . S
C184 C188 1.373 . S
C184 C190 1.505 . S
C185 C184 1.379 . S
C185 C187 1.369 . S
C185 H196 0.930 . S
C186 C188 1.383 . S
C186 C189 1.382 . S
C186 H197 0.930 . S
C187 C185 1.369 . S
C187 C189 1.392 . S
C187 H198 0.930 . S
C188 C184 1.373 . S
C188 C186 1.383 . S
C188 H199 0.931 . S
C189 C186 1.382 . S
C189 C187 1.392 . S
C190 Eu161 2.828 . S
C190 O174 1.249 . S
C190 O175 1.244 . S
C190 C184 1.505 . S
C191 O178 1.258 . S
C191 O179 1.242 . S
H192 C164 0.930 . S
H193 C165 0.930 . S
H194 C166 0.930 . S
H195 C167 0.931 . S
H196 C185 0.930 . S
H197 C186 0.930 . S
H198 C187 0.930 . S
H199 C188 0.931 . S
Eu200 C209 2.828 . S
Eu200 O211 2.392 . S
Eu200 O213 2.418 . S
Eu200 O218 2.373 . S
Eu200 O221 2.488 . S
Eu200 O222 2.471 . S
Eu200 O223 2.349 . S
Eu201 O210 2.373 . S
Eu201 O214 2.488 . S
Eu201 O215 2.471 . S
Eu201 O216 2.349 . S
Eu201 O219 2.392 . S
Eu201 O220 2.418 . S
Eu201 C230 2.828 . S
C202 O220 1.244 . S
C202 O223 1.265 . S
C203 C204 1.379 . S
C203 C207 1.373 . S
C203 C209 1.505 . S
C204 C203 1.379 . S
C204 C206 1.369 . S
C204 H232 0.930 . S
C205 C207 1.383 . S
C205 C208 1.382 . S
C205 H233 0.930 . S
C206 C204 1.369 . S
C206 C208 1.392 . S
C206 H234 0.930 . S
C207 C203 1.373 . S
C207 C205 1.383 . S
C207 H235 0.931 . S
C208 C205 1.382 . S
C208 C206 1.392 . S
C209 Eu200 2.828 . S
C209 C203 1.505 . S
C209 O221 1.249 . S
C209 O222 1.244 . S
O210 Eu201 2.373 . S
O210 C212 1.258 . S
O211 Eu200 2.392 . S
O211 C212 1.242 . S
C212 O210 1.258 . S
C212 O211 1.242 . S
O213 Eu200 2.418 . S
O213 C217 1.244 . S
O214 Eu201 2.488 . S
O214 C230 1.249 . S
O215 Eu201 2.471 . S
O215 C230 1.244 . S
O216 Eu201 2.349 . S
O216 C217 1.265 . S
C217 O213 1.244 . S
C217 O216 1.265 . S
O218 Eu200 2.373 . S
O218 C231 1.258 . S
O219 Eu201 2.392 . S
O219 C231 1.242 . S
O220 Eu201 2.418 . S
O220 C202 1.244 . S
O221 Eu200 2.488 . S
O221 C209 1.249 . S
O222 Eu200 2.471 . S
O222 C209 1.244 . S
O223 Eu200 2.349 . S
O223 C202 1.265 . S
C224 C225 1.379 . S
C224 C228 1.373 . S
C224 C230 1.505 . S
C225 C224 1.379 . S
C225 C227 1.369 . S
C225 H236 0.930 . S
C226 C228 1.383 . S
C226 C229 1.382 . S
C226 H237 0.930 . S
C227 C225 1.369 . S
C227 C229 1.392 . S
C227 H238 0.930 . S
C228 C224 1.373 . S
C228 C226 1.383 . S
C228 H239 0.931 . S
C229 C226 1.382 . S
C229 C227 1.392 . S
C230 Eu201 2.828 . S
C230 O214 1.249 . S
C230 O215 1.244 . S
C230 C224 1.505 . S
C231 O218 1.258 . S
C231 O219 1.242 . S
H232 C204 0.930 . S
H233 C205 0.930 . S
H234 C206 0.930 . S
H235 C207 0.931 . S
H236 C225 0.930 . S
H237 C226 0.930 . S
H238 C227 0.930 . S
H239 C228 0.931 . S
Eu240 C249 2.828 . S
Eu240 O251 2.392 . S
Eu240 O253 2.418 . S
Eu240 O258 2.373 . S
Eu240 O261 2.488 . S
Eu240 O262 2.471 . S
Eu240 O263 2.349 . S
Eu241 O250 2.373 . S
Eu241 O254 2.488 . S
Eu241 O255 2.471 . S
Eu241 O256 2.349 . S
Eu241 O259 2.392 . S
Eu241 O260 2.418 . S
Eu241 C270 2.828 . S
C242 O260 1.244 . S
C242 O263 1.265 . S
C243 C244 1.379 . S
C243 C247 1.373 1_545 S
C243 C249 1.505 . S
C244 C243 1.379 . S
C244 C246 1.369 . S
C244 H272 0.930 . S
C245 C247 1.383 . S
C245 C248 1.382 . S
C245 H273 0.930 . S
C246 C244 1.369 . S
C246 C248 1.392 1_545 S
C246 H274 0.930 . S
C247 C243 1.373 1_565 S
C247 C245 1.383 . S
C247 H275 0.931 . S
C248 C245 1.382 . S
C248 C246 1.392 1_565 S
C249 Eu240 2.828 . S
C249 C243 1.505 . S
C249 O261 1.249 . S
C249 O262 1.244 . S
O250 Eu241 2.373 . S
O250 C252 1.258 . S
O251 Eu240 2.392 . S
O251 C252 1.242 . S
C252 O250 1.258 . S
C252 O251 1.242 . S
O253 Eu240 2.418 . S
O253 C257 1.244 . S
O254 Eu241 2.488 . S
O254 C270 1.249 . S
O255 Eu241 2.471 . S
O255 C270 1.244 . S
O256 Eu241 2.349 . S
O256 C257 1.265 . S
C257 O253 1.244 . S
C257 O256 1.265 . S
O258 Eu240 2.373 . S
O258 C271 1.258 . S
O259 Eu241 2.392 . S
O259 C271 1.242 . S
O260 Eu241 2.418 . S
O260 C242 1.244 . S
O261 Eu240 2.488 . S
O261 C249 1.249 . S
O262 Eu240 2.471 . S
O262 C249 1.244 . S
O263 Eu240 2.349 . S
O263 C242 1.265 . S
C264 C265 1.379 . S
C264 C268 1.373 . S
C264 C270 1.505 . S
C265 C264 1.379 . S
C265 C267 1.369 . S
C265 H276 0.930 . S
C266 C268 1.383 . S
C266 C269 1.382 . S
C266 H277 0.930 . S
C267 C265 1.369 . S
C267 C269 1.392 . S
C267 H278 0.930 . S
C268 C264 1.373 . S
C268 C266 1.383 . S
C268 H279 0.931 . S
C269 C266 1.382 . S
C269 C267 1.392 . S
C270 Eu241 2.828 . S
C270 O254 1.249 . S
C270 O255 1.244 . S
C270 C264 1.505 . S
C271 O258 1.258 . S
C271 O259 1.242 . S
H272 C244 0.930 . S
H273 C245 0.930 . S
H274 C246 0.930 . S
H275 C247 0.931 . S
H276 C265 0.930 . S
H277 C266 0.930 . S
H278 C267 0.930 . S
H279 C268 0.931 . S
Eu280 C289 2.828 . S
Eu280 O291 2.392 . S
Eu280 O293 2.418 . S
Eu280 O298 2.373 . S
Eu280 O301 2.488 . S
Eu280 O302 2.471 . S
Eu280 O303 2.349 . S
Eu281 O290 2.373 . S
Eu281 O294 2.488 . S
Eu281 O295 2.471 . S
Eu281 O296 2.349 . S
Eu281 O299 2.392 . S
Eu281 O300 2.418 . S
Eu281 C310 2.828 . S
C282 O300 1.244 . S
C282 O303 1.265 . S
C283 C284 1.379 . S
C283 C287 1.373 . S
C283 C289 1.505 . S
C284 C283 1.379 . S
C284 C286 1.369 . S
C284 H312 0.930 . S
C285 C287 1.383 . S
C285 C288 1.382 . S
C285 H313 0.930 . S
C286 C284 1.369 . S
C286 C288 1.392 . S
C286 H314 0.930 . S
C287 C283 1.373 . S
C287 C285 1.383 . S
C287 H315 0.931 . S
C288 C285 1.382 . S
C288 C286 1.392 . S
C289 Eu280 2.828 . S
C289 C283 1.505 . S
C289 O301 1.249 . S
C289 O302 1.244 . S
O290 Eu281 2.373 . S
O290 C292 1.258 . S
O291 Eu280 2.392 . S
O291 C292 1.242 . S
C292 O290 1.258 . S
C292 O291 1.242 . S
O293 Eu280 2.418 . S
O293 C297 1.244 . S
O294 Eu281 2.488 . S
O294 C310 1.249 . S
O295 Eu281 2.471 . S
O295 C310 1.244 . S
O296 Eu281 2.349 . S
O296 C297 1.265 . S
C297 O293 1.244 . S
C297 O296 1.265 . S
O298 Eu280 2.373 . S
O298 C311 1.258 . S
O299 Eu281 2.392 . S
O299 C311 1.242 . S
O300 Eu281 2.418 . S
O300 C282 1.244 . S
O301 Eu280 2.488 . S
O301 C289 1.249 . S
O302 Eu280 2.471 . S
O302 C289 1.244 . S
O303 Eu280 2.349 . S
O303 C282 1.265 . S
C304 C305 1.379 . S
C304 C308 1.373 1_455 S
C304 C310 1.505 . S
C305 C304 1.379 . S
C305 C307 1.369 . S
C305 H316 0.930 . S
C306 C308 1.383 . S
C306 C309 1.382 . S
C306 H317 0.930 . S
C307 C305 1.369 . S
C307 C309 1.392 1_455 S
C307 H318 0.930 . S
C308 C304 1.373 1_655 S
C308 C306 1.383 . S
C308 H319 0.931 . S
C309 C306 1.382 . S
C309 C307 1.392 1_655 S
C310 Eu281 2.828 . S
C310 O294 1.249 . S
C310 O295 1.244 . S
C310 C304 1.505 . S
C311 O298 1.258 . S
C311 O299 1.242 . S
H312 C284 0.930 . S
H313 C285 0.930 . S
H314 C286 0.930 . S
H315 C287 0.931 . S
H316 C305 0.930 . S
H317 C306 0.930 . S
H318 C307 0.930 . S
H319 C308 0.931 . S
Eu320 C329 2.828 . S
Eu320 O331 2.392 . S
Eu320 O333 2.418 . S
Eu320 O338 2.373 . S
Eu320 O341 2.488 . S
Eu320 O342 2.471 . S
Eu320 O343 2.349 . S
Eu321 O330 2.373 . S
Eu321 O334 2.488 . S
Eu321 O335 2.471 . S
Eu321 O336 2.349 . S
Eu321 O339 2.392 . S
Eu321 O340 2.418 . S
Eu321 C350 2.828 . S
C322 O340 1.244 . S
C322 O343 1.265 . S
C323 C324 1.379 . S
C323 C327 1.373 . S
C323 C329 1.505 . S
C324 C323 1.379 . S
C324 C326 1.369 . S
C324 H352 0.930 . S
C325 C327 1.383 . S
C325 C328 1.382 . S
C325 H353 0.930 . S
C326 C324 1.369 . S
C326 C328 1.392 . S
C326 H354 0.930 . S
C327 C323 1.373 . S
C327 C325 1.383 . S
C327 H355 0.931 . S
C328 C325 1.382 . S
C328 C326 1.392 . S
C329 Eu320 2.828 . S
C329 C323 1.505 . S
C329 O341 1.249 . S
C329 O342 1.244 . S
O330 Eu321 2.373 . S
O330 C332 1.258 . S
O331 Eu320 2.392 . S
O331 C332 1.242 . S
C332 O330 1.258 . S
C332 O331 1.242 . S
O333 Eu320 2.418 . S
O333 C337 1.244 . S
O334 Eu321 2.488 . S
O334 C350 1.249 . S
O335 Eu321 2.471 . S
O335 C350 1.244 . S
O336 Eu321 2.349 . S
O336 C337 1.265 . S
C337 O333 1.244 . S
C337 O336 1.265 . S
O338 Eu320 2.373 . S
O338 C351 1.258 . S
O339 Eu321 2.392 . S
O339 C351 1.242 . S
O340 Eu321 2.418 . S
O340 C322 1.244 . S
O341 Eu320 2.488 . S
O341 C329 1.249 . S
O342 Eu320 2.471 . S
O342 C329 1.244 . S
O343 Eu320 2.349 . S
O343 C322 1.265 . S
C344 C345 1.379 . S
C344 C348 1.373 . S
C344 C350 1.505 . S
C345 C344 1.379 . S
C345 C347 1.369 . S
C345 H356 0.930 . S
C346 C348 1.383 . S
C346 C349 1.382 . S
C346 H357 0.930 . S
C347 C345 1.369 . S
C347 C349 1.392 . S
C347 H358 0.930 . S
C348 C344 1.373 . S
C348 C346 1.383 . S
C348 H359 0.931 . S
C349 C346 1.382 . S
C349 C347 1.392 . S
C350 Eu321 2.828 . S
C350 O334 1.249 . S
C350 O335 1.244 . S
C350 C344 1.505 . S
C351 O338 1.258 . S
C351 O339 1.242 . S
H352 C324 0.930 . S
H353 C325 0.930 . S
H354 C326 0.930 . S
H355 C327 0.931 . S
H356 C345 0.930 . S
H357 C346 0.930 . S
H358 C347 0.930 . S
H359 C348 0.931 . S
Eu360 C369 2.828 1_565 S
Eu360 O371 2.392 . S
Eu360 O373 2.418 . S
Eu360 O378 2.373 1_565 S
Eu360 O381 2.488 1_565 S
Eu360 O382 2.471 1_565 S
Eu360 O383 2.349 1_565 S
Eu361 O370 2.373 1_545 S
Eu361 O374 2.488 . S
Eu361 O375 2.471 . S
Eu361 O376 2.349 . S
Eu361 O379 2.392 . S
Eu361 O380 2.418 . S
Eu361 C390 2.828 . S
C362 O380 1.244 . S
C362 O383 1.265 . S
C363 C364 1.379 . S
C363 C367 1.373 1_455 S
C363 C369 1.505 . S
C364 C363 1.379 . S
C364 C366 1.369 . S
C364 H392 0.930 . S
C365 C367 1.383 . S
C365 C368 1.382 . S
C365 H393 0.930 . S
C366 C364 1.369 . S
C366 C368 1.392 1_455 S
C366 H394 0.930 . S
C367 C363 1.373 1_655 S
C367 C365 1.383 . S
C367 H395 0.931 . S
C368 C365 1.382 . S
C368 C366 1.392 1_655 S
C369 Eu360 2.828 1_545 S
C369 C363 1.505 . S
C369 O381 1.249 . S
C369 O382 1.244 . S
O370 Eu361 2.373 1_565 S
O370 C372 1.258 . S
O371 Eu360 2.392 . S
O371 C372 1.242 . S
C372 O370 1.258 . S
C372 O371 1.242 . S
O373 Eu360 2.418 . S
O373 C377 1.244 . S
O374 Eu361 2.488 . S
O374 C390 1.249 . S
O375 Eu361 2.471 . S
O375 C390 1.244 . S
O376 Eu361 2.349 . S
O376 C377 1.265 1_545 S
C377 O373 1.244 . S
C377 O376 1.265 1_565 S
O378 Eu360 2.373 1_545 S
O378 C391 1.258 . S
O379 Eu361 2.392 . S
O379 C391 1.242 . S
O380 Eu361 2.418 . S
O380 C362 1.244 . S
O381 Eu360 2.488 1_545 S
O381 C369 1.249 . S
O382 Eu360 2.471 1_545 S
O382 C369 1.244 . S
O383 Eu360 2.349 1_545 S
O383 C362 1.265 . S
C384 C385 1.379 1_545 S
C384 C388 1.373 . S
C384 C390 1.505 . S
C385 C384 1.379 1_565 S
C385 C387 1.369 . S
C385 H396 0.930 . S
C386 C388 1.383 . S
C386 C389 1.382 1_545 S
C386 H397 0.930 . S
C387 C385 1.369 . S
C387 C389 1.392 . S
C387 H398 0.930 . S
C388 C384 1.373 . S
C388 C386 1.383 . S
C388 H399 0.931 . S
C389 C386 1.382 1_565 S
C389 C387 1.392 . S
C390 Eu361 2.828 . S
C390 O374 1.249 . S
C390 O375 1.244 . S
C390 C384 1.505 . S
C391 O378 1.258 . S
C391 O379 1.242 . S
H392 C364 0.930 . S
H393 C365 0.930 . S
H394 C366 0.930 . S
H395 C367 0.931 . S
H396 C385 0.930 . S
H397 C386 0.930 . S
H398 C387 0.930 . S
H399 C388 0.931 . S
Eu400 C409 2.828 . S
Eu400 O411 2.392 . S
Eu400 O413 2.418 . S
Eu400 O418 2.373 . S
Eu400 O421 2.488 . S
Eu400 O422 2.471 . S
Eu400 O423 2.349 . S
Eu401 O410 2.373 . S
Eu401 O414 2.488 . S
Eu401 O415 2.471 . S
Eu401 O416 2.349 . S
Eu401 O419 2.392 . S
Eu401 O420 2.418 . S
Eu401 C430 2.828 . S
C402 O420 1.244 . S
C402 O423 1.265 . S
C403 C404 1.379 . S
C403 C407 1.373 . S
C403 C409 1.505 . S
C404 C403 1.379 . S
C404 C406 1.369 . S
C404 H432 0.930 . S
C405 C407 1.383 . S
C405 C408 1.382 . S
C405 H433 0.930 . S
C406 C404 1.369 . S
C406 C408 1.392 . S
C406 H434 0.930 . S
C407 C403 1.373 . S
C407 C405 1.383 . S
C407 H435 0.931 . S
C408 C405 1.382 . S
C408 C406 1.392 . S
C409 Eu400 2.828 . S
C409 C403 1.505 . S
C409 O421 1.249 . S
C409 O422 1.244 . S
O410 Eu401 2.373 . S
O410 C412 1.258 . S
O411 Eu400 2.392 . S
O411 C412 1.242 . S
C412 O410 1.258 . S
C412 O411 1.242 . S
O413 Eu400 2.418 . S
O413 C417 1.244 . S
O414 Eu401 2.488 . S
O414 C430 1.249 . S
O415 Eu401 2.471 . S
O415 C430 1.244 . S
O416 Eu401 2.349 . S
O416 C417 1.265 . S
C417 O413 1.244 . S
C417 O416 1.265 . S
O418 Eu400 2.373 . S
O418 C431 1.258 . S
O419 Eu401 2.392 . S
O419 C431 1.242 . S
O420 Eu401 2.418 . S
O420 C402 1.244 . S
O421 Eu400 2.488 . S
O421 C409 1.249 . S
O422 Eu400 2.471 . S
O422 C409 1.244 . S
O423 Eu400 2.349 . S
O423 C402 1.265 . S
C424 C425 1.379 . S
C424 C428 1.373 . S
C424 C430 1.505 . S
C425 C424 1.379 . S
C425 C427 1.369 . S
C425 H436 0.930 . S
C426 C428 1.383 . S
C426 C429 1.382 . S
C426 H437 0.930 . S
C427 C425 1.369 . S
C427 C429 1.392 . S
C427 H438 0.930 . S
C428 C424 1.373 . S
C428 C426 1.383 . S
C428 H439 0.931 . S
C429 C426 1.382 . S
C429 C427 1.392 . S
C430 Eu401 2.828 . S
C430 O414 1.249 . S
C430 O415 1.244 . S
C430 C424 1.505 . S
C431 O418 1.258 . S
C431 O419 1.242 . S
H432 C404 0.930 . S
H433 C405 0.930 . S
H434 C406 0.930 . S
H435 C407 0.931 . S
H436 C425 0.930 . S
H437 C426 0.930 . S
H438 C427 0.930 . S
H439 C428 0.931 . S
Eu440 C449 2.828 1_545 S
Eu440 O451 2.392 . S
Eu440 O453 2.418 . S
Eu440 O458 2.373 1_545 S
Eu440 O461 2.488 1_545 S
Eu440 O462 2.471 1_545 S
Eu440 O463 2.349 1_545 S
Eu441 O450 2.373 1_565 S
Eu441 O454 2.488 . S
Eu441 O455 2.471 . S
Eu441 O456 2.349 . S
Eu441 O459 2.392 . S
Eu441 O460 2.418 . S
Eu441 C470 2.828 . S
C442 O460 1.244 . S
C442 O463 1.265 . S
C443 C444 1.379 . S
C443 C447 1.373 . S
C443 C449 1.505 . S
C444 C443 1.379 . S
C444 C446 1.369 . S
C444 H472 0.930 . S
C445 C447 1.383 . S
C445 C448 1.382 . S
C445 H473 0.930 . S
C446 C444 1.369 . S
C446 C448 1.392 . S
C446 H474 0.930 . S
C447 C443 1.373 . S
C447 C445 1.383 . S
C447 H475 0.931 . S
C448 C445 1.382 . S
C448 C446 1.392 . S
C449 Eu440 2.828 1_565 S
C449 C443 1.505 . S
C449 O461 1.249 . S
C449 O462 1.244 . S
O450 Eu441 2.373 1_545 S
O450 C452 1.258 . S
O451 Eu440 2.392 . S
O451 C452 1.242 . S
C452 O450 1.258 . S
C452 O451 1.242 . S
O453 Eu440 2.418 . S
O453 C457 1.244 . S
O454 Eu441 2.488 . S
O454 C470 1.249 . S
O455 Eu441 2.471 . S
O455 C470 1.244 . S
O456 Eu441 2.349 . S
O456 C457 1.265 1_565 S
C457 O453 1.244 . S
C457 O456 1.265 1_545 S
O458 Eu440 2.373 1_565 S
O458 C471 1.258 . S
O459 Eu441 2.392 . S
O459 C471 1.242 . S
O460 Eu441 2.418 . S
O460 C442 1.244 . S
O461 Eu440 2.488 1_565 S
O461 C449 1.249 . S
O462 Eu440 2.471 1_565 S
O462 C449 1.244 . S
O463 Eu440 2.349 1_565 S
O463 C442 1.265 . S
C464 C465 1.379 1_565 S
C464 C468 1.373 . S
C464 C470 1.505 . S
C465 C464 1.379 1_545 S
C465 C467 1.369 . S
C465 H476 0.930 . S
C466 C468 1.383 . S
C466 C469 1.382 1_565 S
C466 H477 0.930 . S
C467 C465 1.369 . S
C467 C469 1.392 . S
C467 H478 0.930 . S
C468 C464 1.373 . S
C468 C466 1.383 . S
C468 H479 0.931 . S
C469 C466 1.382 1_545 S
C469 C467 1.392 . S
C470 Eu441 2.828 . S
C470 O454 1.249 . S
C470 O455 1.244 . S
C470 C464 1.505 . S
C471 O458 1.258 . S
C471 O459 1.242 . S
H472 C444 0.930 . S
H473 C445 0.930 . S
H474 C446 0.930 . S
H475 C447 0.931 . S
H476 C465 0.930 . S
H477 C466 0.930 . S
H478 C467 0.930 . S
H479 C468 0.931 . S
Eu480 C489 2.828 . S
Eu480 O491 2.392 . S
Eu480 O493 2.418 . S
Eu480 O498 2.373 . S
Eu480 O501 2.488 . S
Eu480 O502 2.471 . S
Eu480 O503 2.349 . S
Eu481 O490 2.373 . S
Eu481 O494 2.488 . S
Eu481 O495 2.471 . S
Eu481 O496 2.349 . S
Eu481 O499 2.392 . S
Eu481 O500 2.418 . S
Eu481 C510 2.828 . S
C482 O500 1.244 . S
C482 O503 1.265 . S
C483 C484 1.379 . S
C483 C487 1.373 . S
C483 C489 1.505 . S
C484 C483 1.379 . S
C484 C486 1.369 . S
C484 H512 0.930 . S
C485 C487 1.383 . S
C485 C488 1.382 . S
C485 H513 0.930 . S
C486 C484 1.369 . S
C486 C488 1.392 . S
C486 H514 0.930 . S
C487 C483 1.373 . S
C487 C485 1.383 . S
C487 H515 0.931 . S
C488 C485 1.382 . S
C488 C486 1.392 . S
C489 Eu480 2.828 . S
C489 C483 1.505 . S
C489 O501 1.249 . S
C489 O502 1.244 . S
O490 Eu481 2.373 . S
O490 C492 1.258 . S
O491 Eu480 2.392 . S
O491 C492 1.242 . S
C492 O490 1.258 . S
C492 O491 1.242 . S
O493 Eu480 2.418 . S
O493 C497 1.244 . S
O494 Eu481 2.488 . S
O494 C510 1.249 . S
O495 Eu481 2.471 . S
O495 C510 1.244 . S
O496 Eu481 2.349 . S
O496 C497 1.265 . S
C497 O493 1.244 . S
C497 O496 1.265 . S
O498 Eu480 2.373 . S
O498 C511 1.258 . S
O499 Eu481 2.392 . S
O499 C511 1.242 . S
O500 Eu481 2.418 . S
O500 C482 1.244 . S
O501 Eu480 2.488 . S
O501 C489 1.249 . S
O502 Eu480 2.471 . S
O502 C489 1.244 . S
O503 Eu480 2.349 . S
O503 C482 1.265 . S
C504 C505 1.379 . S
C504 C508 1.373 . S
C504 C510 1.505 . S
C505 C504 1.379 . S
C505 C507 1.369 . S
C505 H516 0.930 . S
C506 C508 1.383 . S
C506 C509 1.382 . S
C506 H517 0.930 . S
C507 C505 1.369 . S
C507 C509 1.392 . S
C507 H518 0.930 . S
C508 C504 1.373 . S
C508 C506 1.383 . S
C508 H519 0.931 . S
C509 C506 1.382 . S
C509 C507 1.392 . S
C510 Eu481 2.828 . S
C510 O494 1.249 . S
C510 O495 1.244 . S
C510 C504 1.505 . S
C511 O498 1.258 . S
C511 O499 1.242 . S
H512 C484 0.930 . S
H513 C485 0.930 . S
H514 C486 0.930 . S
H515 C487 0.931 . S
H516 C505 0.930 . S
H517 C506 0.930 . S
H518 C507 0.930 . S
H519 C508 0.931 . S
Eu520 C529 2.828 . S
Eu520 O531 2.392 . S
Eu520 O533 2.418 . S
Eu520 O538 2.373 1_565 S
Eu520 O541 2.488 . S
Eu520 O542 2.471 . S
Eu520 O543 2.349 . S
Eu521 O530 2.373 1_545 S
Eu521 O534 2.488 1_545 S
Eu521 O535 2.471 1_545 S
Eu521 O536 2.349 1_545 S
Eu521 O539 2.392 . S
Eu521 O540 2.418 . S
Eu521 C550 2.828 1_545 S
C522 O540 1.244 . S
C522 O543 1.265 1_545 S
C523 C524 1.379 1_565 S
C523 C527 1.373 . S
C523 C529 1.505 . S
C524 C523 1.379 1_545 S
C524 C526 1.369 . S
C524 H552 0.930 . S
C525 C527 1.383 . S
C525 C528 1.382 1_565 S
C525 H553 0.930 . S
C526 C524 1.369 . S
C526 C528 1.392 . S
C526 H554 0.930 . S
C527 C523 1.373 . S
C527 C525 1.383 . S
C527 H555 0.931 . S
C528 C525 1.382 1_545 S
C528 C526 1.392 . S
C529 Eu520 2.828 . S
C529 C523 1.505 . S
C529 O541 1.249 . S
C529 O542 1.244 . S
O530 Eu521 2.373 1_565 S
O530 C532 1.258 . S
O531 Eu520 2.392 . S
O531 C532 1.242 . S
C532 O530 1.258 . S
C532 O531 1.242 . S
O533 Eu520 2.418 . S
O533 C537 1.244 . S
O534 Eu521 2.488 1_565 S
O534 C550 1.249 . S
O535 Eu521 2.471 1_565 S
O535 C550 1.244 . S
O536 Eu521 2.349 1_565 S
O536 C537 1.265 . S
C537 O533 1.244 . S
C537 O536 1.265 . S
O538 Eu520 2.373 1_545 S
O538 C551 1.258 . S
O539 Eu521 2.392 . S
O539 C551 1.242 . S
O540 Eu521 2.418 . S
O540 C522 1.244 . S
O541 Eu520 2.488 . S
O541 C529 1.249 . S
O542 Eu520 2.471 . S
O542 C529 1.244 . S
O543 Eu520 2.349 . S
O543 C522 1.265 1_565 S
C544 C545 1.379 . S
C544 C548 1.373 1_655 S
C544 C550 1.505 . S
C545 C544 1.379 . S
C545 C547 1.369 . S
C545 H556 0.930 . S
C546 C548 1.383 . S
C546 C549 1.382 . S
C546 H557 0.930 . S
C547 C545 1.369 . S
C547 C549 1.392 1_655 S
C547 H558 0.930 . S
C548 C544 1.373 1_455 S
C548 C546 1.383 . S
C548 H559 0.931 . S
C549 C546 1.382 . S
C549 C547 1.392 1_455 S
C550 Eu521 2.828 1_565 S
C550 O534 1.249 . S
C550 O535 1.244 . S
C550 C544 1.505 . S
C551 O538 1.258 . S
C551 O539 1.242 . S
H552 C524 0.930 . S
H553 C525 0.930 . S
H554 C526 0.930 . S
H555 C527 0.931 . S
H556 C545 0.930 . S
H557 C546 0.930 . S
H558 C547 0.930 . S
H559 C548 0.931 . S
Eu560 C569 2.828 . S
Eu560 O571 2.392 . S
Eu560 O573 2.418 . S
Eu560 O578 2.373 . S
Eu560 O581 2.488 . S
Eu560 O582 2.471 . S
Eu560 O583 2.349 . S
Eu561 O570 2.373 . S
Eu561 O574 2.488 . S
Eu561 O575 2.471 . S
Eu561 O576 2.349 . S
Eu561 O579 2.392 . S
Eu561 O580 2.418 . S
Eu561 C590 2.828 . S
C562 O580 1.244 . S
C562 O583 1.265 . S
C563 C564 1.379 . S
C563 C567 1.373 . S
C563 C569 1.505 . S
C564 C563 1.379 . S
C564 C566 1.369 . S
C564 H592 0.930 . S
C565 C567 1.383 . S
C565 C568 1.382 . S
C565 H593 0.930 . S
C566 C564 1.369 . S
C566 C568 1.392 . S
C566 H594 0.930 . S
C567 C563 1.373 . S
C567 C565 1.383 . S
C567 H595 0.931 . S
C568 C565 1.382 . S
C568 C566 1.392 . S
C569 Eu560 2.828 . S
C569 C563 1.505 . S
C569 O581 1.249 . S
C569 O582 1.244 . S
O570 Eu561 2.373 . S
O570 C572 1.258 . S
O571 Eu560 2.392 . S
O571 C572 1.242 . S
C572 O570 1.258 . S
C572 O571 1.242 . S
O573 Eu560 2.418 . S
O573 C577 1.244 . S
O574 Eu561 2.488 . S
O574 C590 1.249 . S
O575 Eu561 2.471 . S
O575 C590 1.244 . S
O576 Eu561 2.349 . S
O576 C577 1.265 . S
C577 O573 1.244 . S
C577 O576 1.265 . S
O578 Eu560 2.373 . S
O578 C591 1.258 . S
O579 Eu561 2.392 . S
O579 C591 1.242 . S
O580 Eu561 2.418 . S
O580 C562 1.244 . S
O581 Eu560 2.488 . S
O581 C569 1.249 . S
O582 Eu560 2.471 . S
O582 C569 1.244 . S
O583 Eu560 2.349 . S
O583 C562 1.265 . S
C584 C585 1.379 . S
C584 C588 1.373 . S
C584 C590 1.505 . S
C585 C584 1.379 . S
C585 C587 1.369 . S
C585 H596 0.930 . S
C586 C588 1.383 . S
C586 C589 1.382 . S
C586 H597 0.930 . S
C587 C585 1.369 . S
C587 C589 1.392 . S
C587 H598 0.930 . S
C588 C584 1.373 . S
C588 C586 1.383 . S
C588 H599 0.931 . S
C589 C586 1.382 . S
C589 C587 1.392 . S
C590 Eu561 2.828 . S
C590 O574 1.249 . S
C590 O575 1.244 . S
C590 C584 1.505 . S
C591 O578 1.258 . S
C591 O579 1.242 . S
H592 C564 0.930 . S
H593 C565 0.930 . S
H594 C566 0.930 . S
H595 C567 0.931 . S
H596 C585 0.930 . S
H597 C586 0.930 . S
H598 C587 0.930 . S
H599 C588 0.931 . S
Eu600 C609 2.828 . S
Eu600 O611 2.392 . S
Eu600 O613 2.418 . S
Eu600 O618 2.373 1_545 S
Eu600 O621 2.488 . S
Eu600 O622 2.471 . S
Eu600 O623 2.349 . S
Eu601 O610 2.373 1_565 S
Eu601 O614 2.488 1_565 S
Eu601 O615 2.471 1_565 S
Eu601 O616 2.349 1_565 S
Eu601 O619 2.392 . S
Eu601 O620 2.418 . S
Eu601 C630 2.828 1_565 S
C602 O620 1.244 . S
C602 O623 1.265 1_565 S
C603 C604 1.379 1_545 S
C603 C607 1.373 . S
C603 C609 1.505 . S
C604 C603 1.379 1_565 S
C604 C606 1.369 . S
C604 H632 0.930 . S
C605 C607 1.383 . S
C605 C608 1.382 1_545 S
C605 H633 0.930 . S
C606 C604 1.369 . S
C606 C608 1.392 . S
C606 H634 0.930 . S
C607 C603 1.373 . S
C607 C605 1.383 . S
C607 H635 0.931 . S
C608 C605 1.382 1_565 S
C608 C606 1.392 . S
C609 Eu600 2.828 . S
C609 C603 1.505 . S
C609 O621 1.249 . S
C609 O622 1.244 . S
O610 Eu601 2.373 1_545 S
O610 C612 1.258 . S
O611 Eu600 2.392 . S
O611 C612 1.242 . S
C612 O610 1.258 . S
C612 O611 1.242 . S
O613 Eu600 2.418 . S
O613 C617 1.244 . S
O614 Eu601 2.488 1_545 S
O614 C630 1.249 . S
O615 Eu601 2.471 1_545 S
O615 C630 1.244 . S
O616 Eu601 2.349 1_545 S
O616 C617 1.265 . S
C617 O613 1.244 . S
C617 O616 1.265 . S
O618 Eu600 2.373 1_565 S
O618 C631 1.258 . S
O619 Eu601 2.392 . S
O619 C631 1.242 . S
O620 Eu601 2.418 . S
O620 C602 1.244 . S
O621 Eu600 2.488 . S
O621 C609 1.249 . S
O622 Eu600 2.471 . S
O622 C609 1.244 . S
O623 Eu600 2.349 . S
O623 C602 1.265 1_545 S
C624 C625 1.379 . S
C624 C628 1.373 . S
C624 C630 1.505 . S
C625 C624 1.379 . S
C625 C627 1.369 . S
C625 H636 0.930 . S
C626 C628 1.383 . S
C626 C629 1.382 . S
C626 H637 0.930 . S
C627 C625 1.369 . S
C627 C629 1.392 . S
C627 H638 0.930 . S
C628 C624 1.373 . S
C628 C626 1.383 . S
C628 H639 0.931 . S
C629 C626 1.382 . S
C629 C627 1.392 . S
C630 Eu601 2.828 1_545 S
C630 O614 1.249 . S
C630 O615 1.244 . S
C630 C624 1.505 . S
C631 O618 1.258 . S
C631 O619 1.242 . S
H632 C604 0.930 . S
H633 C605 0.930 . S
H634 C606 0.930 . S
H635 C607 0.931 . S
H636 C625 0.930 . S
H637 C626 0.930 . S
H638 C627 0.930 . S
H639 C628 0.931 . S
C640 C641 1.387 . S
C640 H644 0.950 . S
C640 C649 1.390 . S
C641 C640 1.387 . S
C641 C643 1.387 . S
H642 C649 0.950 . S
C643 C641 1.387 . S
C643 C645 1.390 . S
C643 H647 0.950 . S
H644 C640 0.950 . S
C645 C643 1.390 . S
C645 C646 1.387 . S
C645 H648 0.950 . S
C646 C645 1.387 . S
C646 C649 1.387 . S
H647 C643 0.950 . S
H648 C645 0.950 . S
C649 C640 1.390 . S
C649 H642 0.950 . S
C649 C646 1.387 . S
C650 C651 1.387 . S
C650 H654 0.950 . S
C650 C659 1.390 . S
C651 C650 1.387 . S
C651 C653 1.387 . S
H652 C659 0.950 . S
C653 C651 1.387 . S
C653 C655 1.390 . S
C653 H657 0.950 . S
H654 C650 0.950 . S
C655 C653 1.390 . S
C655 C656 1.387 . S
C655 H658 0.950 . S
C656 C655 1.387 . S
C656 C659 1.387 . S
H657 C653 0.950 . S
H658 C655 0.950 . S
C659 C650 1.390 . S
C659 H652 0.950 . S
C659 C656 1.387 . S
C660 C661 1.387 . S
C660 H664 0.950 . S
C660 C669 1.390 . S
C661 C660 1.387 . S
C661 C663 1.387 . S
H662 C669 0.950 . S
C663 C661 1.387 . S
C663 C665 1.390 . S
C663 H667 0.950 . S
H664 C660 0.950 . S
C665 C663 1.390 . S
C665 C666 1.387 . S
C665 H668 0.950 . S
C666 C665 1.387 . S
C666 C669 1.387 . S
H667 C663 0.950 . S
H668 C665 0.950 . S
C669 C660 1.390 . S
C669 H662 0.950 . S
C669 C666 1.387 . S
C670 C671 1.387 1_655 S
C670 H674 0.950 . S
C670 C679 1.390 . S
C671 C670 1.387 1_455 S
C671 C673 1.387 1_554 S
H672 C679 0.950 . S
C673 C671 1.387 1_556 S
C673 C675 1.390 . S
C673 H677 0.950 . S
H674 C670 0.950 . S
C675 C673 1.390 . S
C675 C676 1.387 1_455 S
C675 H678 0.950 . S
C676 C675 1.387 1_655 S
C676 C679 1.387 1_556 S
H677 C673 0.950 . S
H678 C675 0.950 . S
C679 C670 1.390 . S
C679 H672 0.950 . S
C679 C676 1.387 1_554 S
C680 C681 1.387 . S
C680 H684 0.950 . S
C680 C689 1.390 . S
C681 C680 1.387 . S
C681 C683 1.387 . S
H682 C689 0.950 . S
C683 C681 1.387 . S
C683 C685 1.390 . S
C683 H687 0.950 . S
H684 C680 0.950 . S
C685 C683 1.390 . S
C685 C686 1.387 . S
C685 H688 0.950 . S
C686 C685 1.387 . S
C686 C689 1.387 . S
H687 C683 0.950 . S
H688 C685 0.950 . S
C689 C680 1.390 . S
C689 H682 0.950 . S
C689 C686 1.387 . S
C690 C691 1.387 . S
C690 H694 0.950 . S
C690 C699 1.390 . S
C691 C690 1.387 . S
C691 C693 1.387 . S
H692 C699 0.950 . S
C693 C691 1.387 . S
C693 C695 1.390 . S
C693 H697 0.950 . S
H694 C690 0.950 . S
C695 C693 1.390 . S
C695 C696 1.387 . S
C695 H698 0.950 . S
C696 C695 1.387 . S
C696 C699 1.387 . S
H697 C693 0.950 . S
H698 C695 0.950 . S
C699 C690 1.390 . S
C699 H692 0.950 . S
C699 C696 1.387 . S
C700 C701 1.387 . S
C700 H704 0.950 . S
C700 C709 1.390 1_465 S
C701 C700 1.387 . S
C701 C703 1.387 1_556 S
H702 C709 0.950 . S
C703 C701 1.387 1_554 S
C703 C705 1.390 1_465 S
C703 H707 0.950 . S
H704 C700 0.950 . S
C705 C703 1.390 1_645 S
C705 C706 1.387 . S
C705 H708 0.950 . S
C706 C705 1.387 . S
C706 C709 1.387 1_554 S
H707 C703 0.950 . S
H708 C705 0.950 . S
C709 C700 1.390 1_645 S
C709 H702 0.950 . S
C709 C706 1.387 1_556 S
C710 C711 1.387 . S
C710 H714 0.950 . S
C710 C719 1.390 1_565 S
C711 C710 1.387 . S
C711 C713 1.387 . S
H712 C719 0.950 . S
C713 C711 1.387 . S
C713 C715 1.390 1_565 S
C713 H717 0.950 . S
H714 C710 0.950 . S
C715 C713 1.390 1_545 S
C715 C716 1.387 . S
C715 H718 0.950 . S
C716 C715 1.387 . S
C716 C719 1.387 . S
H717 C713 0.950 . S
H718 C715 0.950 . S
C719 C710 1.390 1_545 S
C719 H712 0.950 . S
C719 C716 1.387 . S
C720 C721 1.387 . S
C720 H724 0.950 . S
C720 C729 1.390 . S
C721 C720 1.387 . S
C721 C723 1.387 . S
H722 C729 0.950 1_565 S
C723 C721 1.387 . S
C723 C725 1.390 . S
C723 H727 0.950 . S
H724 C720 0.950 . S
C725 C723 1.390 . S
C725 C726 1.387 1_545 S
C725 H728 0.950 . S
C726 C725 1.387 1_565 S
C726 C729 1.387 1_565 S
H727 C723 0.950 . S
H728 C725 0.950 . S
C729 C720 1.390 . S
C729 H722 0.950 1_545 S
C729 C726 1.387 1_545 S
C730 C731 1.387 . S
C730 H734 0.950 . S
C730 C739 1.390 . S
C731 C730 1.387 . S
C731 C733 1.387 . S
H732 C739 0.950 . S
C733 C731 1.387 . S
C733 C735 1.390 . S
C733 H737 0.950 . S
H734 C730 0.950 . S
C735 C733 1.390 . S
C735 C736 1.387 . S
C735 H738 0.950 . S
C736 C735 1.387 . S
C736 C739 1.387 . S
H737 C733 0.950 . S
H738 C735 0.950 . S
C739 C730 1.390 . S
C739 H732 0.950 . S
C739 C736 1.387 . S
C740 C741 1.390 . S
C740 H744 0.950 . S
C740 C749 1.390 1_545 S
C741 C740 1.390 . S
C741 C743 1.378 1_545 S
H742 C749 0.950 . S
C743 C741 1.378 1_565 S
C743 C745 1.390 . S
C743 H747 0.950 . S
H744 C740 0.950 . S
C745 C743 1.390 . S
C745 C746 1.387 . S
C745 H748 0.950 . S
C746 C745 1.387 . S
C746 C749 1.387 . S
H747 C743 0.950 . S
H748 C745 0.950 . S
C749 C740 1.390 1_565 S
C749 H742 0.950 . S
C749 C746 1.387 . S
C750 C751 1.387 . S
C750 H754 0.950 . S
C750 C759 1.390 . S
C751 C750 1.387 . S
C751 C753 1.387 . S
H752 C759 0.950 . S
C753 C751 1.387 . S
C753 C755 1.390 . S
C753 H757 0.950 . S
H754 C750 0.950 . S
C755 C753 1.390 . S
C755 C756 1.387 . S
C755 H758 0.950 . S
C756 C755 1.387 . S
C756 C759 1.387 . S
H757 C753 0.950 . S
H758 C755 0.950 . S
C759 C750 1.390 . S
C759 H752 0.950 . S
C759 C756 1.387 . S
C760 C761 1.387 1_545 S
C760 H764 0.950 . S
C760 C769 1.390 . S
C761 C760 1.387 1_565 S
C761 C763 1.387 . S
H762 C769 0.950 . S
C763 C761 1.387 . S
C763 C765 1.390 . S
C763 H767 0.950 . S
H764 C760 0.950 . S
C765 C763 1.390 . S
C765 C766 1.387 1_565 S
C765 H768 0.950 . S
C766 C765 1.387 1_545 S
C766 C769 1.387 . S
H767 C763 0.950 . S
H768 C765 0.950 . S
C769 C760 1.390 . S
C769 H762 0.950 . S
C769 C766 1.387 . S
C770 C771 1.387 . S
C770 H774 0.950 . S
C770 C779 1.390 . S
C771 C770 1.387 . S
C771 C773 1.387 . S
H772 C779 0.950 . S
C773 C771 1.387 . S
C773 C775 1.390 . S
C773 H777 0.950 . S
H774 C770 0.950 . S
C775 C773 1.390 . S
C775 C776 1.387 . S
C775 H778 0.950 . S
C776 C775 1.387 . S
C776 C779 1.387 . S
H777 C773 0.950 . S
H778 C775 0.950 . S
C779 C770 1.390 . S
C779 H772 0.950 . S
C779 C776 1.387 . S
C780 C781 1.387 1_545 S
C780 H784 0.944 1_545 S
C780 C789 1.396 . S
C781 C780 1.387 1_565 S
C781 C783 1.387 1_565 S
H782 C789 0.950 . S
C783 C781 1.387 1_545 S
C783 C785 1.390 . S
C783 H787 0.950 . S
H784 C780 0.944 1_565 S
C785 C783 1.390 . S
C785 C786 1.387 . S
C785 H788 0.950 . S
C786 C785 1.387 . S
C786 C789 1.387 . S
H787 C783 0.950 . S
H788 C785 0.950 . S
C789 C780 1.396 . S
C789 H782 0.950 . S
C789 C786 1.387 . S
C790 C791 1.387 . S
C790 H794 0.950 . S
C790 C799 1.390 . S
C791 C790 1.387 . S
C791 C793 1.387 . S
H792 C799 0.950 . S
C793 C791 1.387 . S
C793 C795 1.390 . S
C793 H797 0.950 . S
H794 C790 0.950 . S
C795 C793 1.390 . S
C795 C796 1.387 . S
C795 H798 0.950 . S
C796 C795 1.387 . S
C796 C799 1.387 . S
H797 C793 0.950 . S
H798 C795 0.950 . S
C799 C790 1.390 . S
C799 H792 0.950 . S
C799 C796 1.387 . S
C800 C801 1.387 . S
C800 H804 0.950 . S
C800 C809 1.390 . S
C801 C800 1.387 . S
C801 C803 1.387 . S
H802 C809 0.950 . S
C803 C801 1.387 . S
C803 C805 1.390 . S
C803 H807 0.950 . S
H804 C800 0.950 . S
C805 C803 1.390 . S
C805 C806 1.387 . S
C805 H808 0.950 . S
C806 C805 1.387 . S
C806 C809 1.387 . S
H807 C803 0.950 . S
H808 C805 0.950 . S
C809 C800 1.390 . S
C809 H802 0.950 . S
C809 C806 1.387 . S
C810 C811 1.387 1_545 S
C810 H814 0.950 . S
C810 C819 1.390 . S
C811 C810 1.387 1_565 S
C811 C813 1.387 . S
H812 C819 0.950 . S
C813 C811 1.387 . S
C813 C815 1.390 . S
C813 H817 0.950 . S
H814 C810 0.950 . S
C815 C813 1.390 . S
C815 C816 1.387 . S
C815 H818 0.950 . S
C816 C815 1.387 . S
C816 C819 1.387 1_565 S
H817 C813 0.950 . S
H818 C815 0.950 . S
C819 C810 1.390 . S
C819 H812 0.950 . S
C819 C816 1.387 1_545 S
C820 C821 1.387 . S
C820 H824 0.950 . S
C820 C829 1.390 . S
C821 C820 1.387 . S
C821 C823 1.387 . S
H822 C829 0.950 . S
C823 C821 1.387 . S
C823 C825 1.390 . S
C823 H827 0.950 . S
H824 C820 0.950 . S
C825 C823 1.390 . S
C825 C826 1.387 . S
C825 H828 0.950 . S
C826 C825 1.387 . S
C826 C829 1.387 . S
H827 C823 0.950 . S
H828 C825 0.950 . S
C829 C820 1.390 . S
C829 H822 0.950 . S
C829 C826 1.387 . S
C830 C831 1.387 . S
C830 H834 0.950 . S
C830 C839 1.390 . S
C831 C830 1.387 . S
C831 C833 1.387 1_545 S
H832 C839 0.950 . S
C833 C831 1.387 1_565 S
C833 C835 1.390 . S
C833 H837 0.950 . S
H834 C830 0.950 . S
C835 C833 1.390 . S
C835 C836 1.387 1_565 S
C835 H838 0.950 . S
C836 C835 1.387 1_545 S
C836 C839 1.387 . S
H837 C833 0.950 . S
H838 C835 0.950 . S
C839 C830 1.390 . S
C839 H832 0.950 . S
C839 C836 1.387 . S
C840 C841 1.387 . S
C840 H844 0.950 . S
C840 C849 1.390 . S
C841 C840 1.387 . S
C841 C843 1.387 . S
H842 C849 0.950 . S
C843 C841 1.387 . S
C843 C845 1.390 . S
C843 H847 0.950 . S
H844 C840 0.950 . S
C845 C843 1.390 . S
C845 C846 1.387 . S
C845 H848 0.950 . S
C846 C845 1.387 . S
C846 C849 1.387 . S
H847 C843 0.950 . S
H848 C845 0.950 . S
C849 C840 1.390 . S
C849 H842 0.950 . S
C849 C846 1.387 . S
C850 C851 1.387 1_565 S
C850 H854 0.950 . S
C850 C859 1.390 . S
C851 C850 1.387 1_545 S
C851 C853 1.387 . S
H852 C859 0.950 . S
C853 C851 1.387 . S
C853 C855 1.390 . S
C853 H857 0.950 . S
H854 C850 0.950 . S
C855 C853 1.390 . S
C855 C856 1.387 . S
C855 H858 0.950 . S
C856 C855 1.387 . S
C856 C859 1.387 1_545 S
H857 C853 0.950 . S
H858 C855 0.950 . S
C859 C850 1.390 . S
C859 H852 0.950 . S
C859 C856 1.387 1_565 S
C860 C861 1.387 . S
C860 H864 0.950 . S
C860 C869 1.390 . S
C861 C860 1.387 . S
C861 C863 1.387 . S
H862 C869 0.950 . S
C863 C861 1.387 . S
C863 C865 1.390 . S
C863 H867 0.950 . S
H864 C860 0.950 . S
C865 C863 1.390 . S
C865 C866 1.387 . S
C865 H868 0.950 . S
C866 C865 1.387 . S
C866 C869 1.387 . S
H867 C863 0.950 . S
H868 C865 0.950 . S
C869 C860 1.390 . S
C869 H862 0.950 . S
C869 C866 1.387 . S
C870 C871 1.387 . S
C870 H874 0.950 . S
C870 C879 1.390 . S
C871 C870 1.387 . S
C871 C873 1.387 1_565 S
H872 C879 0.950 . S
C873 C871 1.387 1_545 S
C873 C875 1.390 . S
C873 H877 0.950 . S
H874 C870 0.950 . S
C875 C873 1.390 . S
C875 C876 1.387 1_545 S
C875 H878 0.950 . S
C876 C875 1.387 1_565 S
C876 C879 1.387 . S
H877 C873 0.950 . S
H878 C875 0.950 . S
C879 C870 1.390 . S
C879 H872 0.950 . S
C879 C876 1.387 . S
C880 C881 1.387 . S
C880 H884 0.950 . S
C880 C889 1.390 . S
C881 C880 1.387 . S
C881 C883 1.387 . S
H882 C889 0.950 . S
C883 C881 1.387 . S
C883 C885 1.390 . S
C883 H887 0.950 . S
H884 C880 0.950 . S
C885 C883 1.390 . S
C885 C886 1.387 . S
C885 H888 0.950 . S
C886 C885 1.387 . S
C886 C889 1.387 . S
H887 C883 0.950 . S
H888 C885 0.950 . S
C889 C880 1.390 . S
C889 H882 0.950 . S
C889 C886 1.387 . S
C890 C891 1.387 . S
C890 H894 0.950 . S
C890 C899 1.390 . S
C891 C890 1.387 . S
C891 C893 1.387 . S
H892 C899 0.950 . S
C893 C891 1.387 . S
C893 C895 1.390 . S
C893 H897 0.950 . S
H894 C890 0.950 . S
C895 C893 1.390 . S
C895 C896 1.387 . S
C895 H898 0.950 . S
C896 C895 1.387 . S
C896 C899 1.387 . S
H897 C893 0.950 . S
H898 C895 0.950 . S
C899 C890 1.390 . S
C899 H892 0.950 . S
C899 C896 1.387 . S
C900 C901 1.387 . S
C900 H904 0.950 . S
C900 C909 1.390 1_655 S
C901 C900 1.387 . S
C901 C903 1.387 . S
H902 C909 0.950 . S
C903 C901 1.387 . S
C903 C905 1.390 1_655 S
C903 H907 0.950 . S
H904 C900 0.950 . S
C905 C903 1.390 1_455 S
C905 C906 1.387 . S
C905 H908 0.950 . S
C906 C905 1.387 . S
C906 C909 1.387 . S
H907 C903 0.950 . S
H908 C905 0.950 . S
C909 C900 1.390 1_455 S
C909 H902 0.950 . S
C909 C906 1.387 . S
C910 C911 1.387 . S
C910 H914 0.950 . S
C910 C919 1.390 1_655 S
C911 C910 1.387 . S
C911 C913 1.387 . S
H912 C919 0.950 . S
C913 C911 1.387 . S
C913 C915 1.390 1_655 S
C913 H917 0.950 . S
H914 C910 0.950 . S
C915 C913 1.390 1_455 S
C915 C916 1.387 . S
C915 H918 0.950 . S
C916 C915 1.387 . S
C916 C919 1.387 . S
H917 C913 0.950 . S
H918 C915 0.950 . S
C919 C910 1.390 1_455 S
C919 H912 0.950 . S
C919 C916 1.387 . S
C920 C921 1.387 . S
C920 H924 0.950 . S
C920 C929 1.390 . S
C921 C920 1.387 . S
C921 C923 1.387 . S
H922 C929 0.950 . S
C923 C921 1.387 . S
C923 C925 1.390 . S
C923 H927 0.950 . S
H924 C920 0.950 . S
C925 C923 1.390 . S
C925 C926 1.387 . S
C925 H928 0.950 . S
C926 C925 1.387 . S
C926 C929 1.387 . S
H927 C923 0.950 . S
H928 C925 0.950 . S
C929 C920 1.390 . S
C929 H922 0.950 . S
C929 C926 1.387 . S
C930 C931 1.387 . S
C930 H934 0.950 . S
C930 C939 1.390 . S
C931 C930 1.387 . S
C931 C933 1.387 . S
H932 C939 0.950 . S
C933 C931 1.387 . S
C933 C935 1.390 . S
C933 H937 0.950 . S
H934 C930 0.950 . S
C935 C933 1.390 . S
C935 C936 1.387 . S
C935 H938 0.950 . S
C936 C935 1.387 . S
C936 C939 1.387 . S
H937 C933 0.950 . S
H938 C935 0.950 . S
C939 C930 1.390 . S
C939 H932 0.950 . S
C939 C936 1.387 . S
C940 C941 1.387 . S
C940 H944 0.950 . S
C940 C949 1.390 1_455 S
C941 C940 1.387 . S
C941 C943 1.387 . S
H942 C949 0.950 . S
C943 C941 1.387 . S
C943 C945 1.390 1_455 S
C943 H947 0.950 . S
H944 C940 0.950 . S
C945 C943 1.390 1_655 S
C945 C946 1.387 . S
C945 H948 0.950 . S
C946 C945 1.387 . S
C946 C949 1.387 . S
H947 C943 0.950 . S
H948 C945 0.950 . S
C949 C940 1.390 1_655 S
C949 H942 0.950 . S
C949 C946 1.387 . S
C950 C951 1.387 . S
C950 H954 0.950 . S
C950 C959 1.390 1_455 S
C951 C950 1.387 . S
C951 C953 1.387 . S
H952 C959 0.950 . S
C953 C951 1.387 . S
C953 C955 1.390 1_455 S
C953 H957 0.950 . S
H954 C950 0.950 . S
C955 C953 1.390 1_655 S
C955 C956 1.387 . S
C955 H958 0.950 . S
C956 C955 1.387 . S
C956 C959 1.387 . S
H957 C953 0.950 . S
H958 C955 0.950 . S
C959 C950 1.390 1_655 S
C959 H952 0.950 . S
C959 C956 1.387 . S
C960 C961 1.387 . S
C960 H964 0.950 . S
C960 C969 1.390 . S
C961 C960 1.387 . S
C961 C963 1.387 . S
H962 C969 0.950 . S
C963 C961 1.387 . S
C963 C965 1.390 . S
C963 H967 0.950 . S
H964 C960 0.950 . S
C965 C963 1.390 . S
C965 C966 1.387 . S
C965 H968 0.950 . S
C966 C965 1.387 . S
C966 C969 1.387 . S
H967 C963 0.950 . S
H968 C965 0.950 . S
C969 C960 1.390 . S
C969 H962 0.950 . S
C969 C966 1.387 . S
C970 C971 1.387 . S
C970 H974 0.950 . S
C970 C979 1.390 . S
C971 C970 1.387 . S
C971 C973 1.387 . S
H972 C979 0.950 . S
C973 C971 1.387 . S
C973 C975 1.390 . S
C973 H977 0.950 . S
H974 C970 0.950 . S
C975 C973 1.390 . S
C975 C976 1.387 . S
C975 H978 0.950 . S
C976 C975 1.387 . S
C976 C979 1.387 . S
H977 C973 0.950 . S
H978 C975 0.950 . S
C979 C970 1.390 . S
C979 H972 0.950 . S
C979 C976 1.387 . S
C980 C981 1.387 . S
C980 H984 0.950 . S
C980 C989 1.390 . S
C981 C980 1.387 . S
C981 C983 1.387 . S
H982 C989 0.950 . S
C983 C981 1.387 . S
C983 C985 1.390 . S
C983 H987 0.950 . S
H984 C980 0.950 . S
C985 C983 1.390 . S
C985 C986 1.387 . S
C985 H988 0.950 . S
C986 C985 1.387 . S
C986 C989 1.387 . S
H987 C983 0.950 . S
H988 C985 0.950 . S
C989 C980 1.390 . S
C989 H982 0.950 . S
C989 C986 1.387 . S
C990 C991 1.387 . S
C990 H994 0.950 . S
C990 C999 1.390 . S
C991 C990 1.387 . S
C991 C993 1.387 . S
H992 C999 0.950 . S
C993 C991 1.387 . S
C993 C995 1.390 . S
C993 H997 0.950 . S
H994 C990 0.950 . S
C995 C993 1.390 . S
C995 C996 1.387 . S
C995 H998 0.950 . S
C996 C995 1.387 . S
C996 C999 1.387 . S
H997 C993 0.950 . S
H998 C995 0.950 . S
C999 C990 1.390 . S
C999 H992 0.950 . S
C999 C996 1.387 . S
C1000 C1001 1.387 . S
C1000 H1004 0.950 . S
C1000 C1009 1.390 . S
C1001 C1000 1.387 . S
C1001 C1003 1.387 . S
H1002 C1009 0.950 . S
C1003 C1001 1.387 . S
C1003 C1005 1.390 . S
C1003 H1007 0.950 . S
H1004 C1000 0.950 . S
C1005 C1003 1.390 . S
C1005 C1006 1.387 . S
C1005 H1008 0.950 . S
C1006 C1005 1.387 . S
C1006 C1009 1.387 . S
H1007 C1003 0.950 . S
H1008 C1005 0.950 . S
C1009 C1000 1.390 . S
C1009 H1002 0.950 . S
C1009 C1006 1.387 . S
C1010 C1011 1.387 . S
C1010 H1014 0.950 . S
C1010 C1019 1.390 . S
C1011 C1010 1.387 . S
C1011 C1013 1.387 . S
H1012 C1019 0.950 . S
C1013 C1011 1.387 . S
C1013 C1015 1.390 . S
C1013 H1017 0.950 . S
H1014 C1010 0.950 . S
C1015 C1013 1.390 . S
C1015 C1016 1.387 . S
C1015 H1018 0.950 . S
C1016 C1015 1.387 . S
C1016 C1019 1.387 . S
H1017 C1013 0.950 . S
H1018 C1015 0.950 . S
C1019 C1010 1.390 . S
C1019 H1012 0.950 . S
C1019 C1016 1.387 . S
C1020 C1021 1.387 . S
C1020 H1024 0.950 . S
C1020 C1029 1.390 . S
C1021 C1020 1.387 . S
C1021 C1023 1.387 . S
H1022 C1029 0.950 . S
C1023 C1021 1.387 . S
C1023 C1025 1.390 . S
C1023 H1027 0.950 . S
H1024 C1020 0.950 . S
C1025 C1023 1.390 . S
C1025 C1026 1.387 . S
C1025 H1028 0.950 . S
C1026 C1025 1.387 . S
C1026 C1029 1.387 . S
H1027 C1023 0.950 . S
H1028 C1025 0.950 . S
C1029 C1020 1.390 . S
C1029 H1022 0.950 . S
C1029 C1026 1.387 . S
C1030 C1031 1.387 . S
C1030 H1034 0.950 . S
C1030 C1039 1.390 . S
C1031 C1030 1.387 . S
C1031 C1033 1.387 . S
H1032 C1039 0.950 . S
C1033 C1031 1.387 . S
C1033 C1035 1.390 . S
C1033 H1037 0.950 . S
H1034 C1030 0.950 . S
C1035 C1033 1.390 . S
C1035 C1036 1.387 . S
C1035 H1038 0.950 . S
C1036 C1035 1.387 . S
C1036 C1039 1.387 . S
H1037 C1033 0.950 . S
H1038 C1035 0.950 . S
C1039 C1030 1.390 . S
C1039 H1032 0.950 . S
C1039 C1036 1.387 . S
C1040 C1041 1.387 . S
C1040 H1044 0.950 . S
C1040 C1049 1.390 . S
C1041 C1040 1.387 . S
C1041 C1043 1.387 . S
H1042 C1049 0.950 . S
C1043 C1041 1.387 . S
C1043 C1045 1.390 . S
C1043 H1047 0.950 . S
H1044 C1040 0.950 . S
C1045 C1043 1.390 . S
C1045 C1046 1.387 . S
C1045 H1048 0.950 . S
C1046 C1045 1.387 . S
C1046 C1049 1.387 . S
H1047 C1043 0.950 . S
H1048 C1045 0.950 . S
C1049 C1040 1.390 . S
C1049 H1042 0.950 . S
C1049 C1046 1.387 . S
C1050 C1051 1.387 . S
C1050 H1054 0.950 . S
C1050 C1059 1.390 . S
C1051 C1050 1.387 . S
C1051 C1053 1.387 . S
H1052 C1059 0.950 . S
C1053 C1051 1.387 . S
C1053 C1055 1.390 1_565 S
C1053 H1057 0.950 1_565 S
H1054 C1050 0.950 . S
C1055 C1053 1.390 1_545 S
C1055 C1056 1.387 1_545 S
C1055 H1058 0.950 . S
C1056 C1055 1.387 1_565 S
C1056 C1059 1.387 . S
H1057 C1053 0.950 1_545 S
H1058 C1055 0.950 . S
C1059 C1050 1.390 . S
C1059 H1052 0.950 . S
C1059 C1056 1.387 . S
C1060 C1061 1.387 . S
C1060 H1064 0.950 . S
C1060 C1069 1.390 . S
C1061 C1060 1.387 . S
C1061 C1063 1.387 . S
H1062 C1069 0.950 . S
C1063 C1061 1.387 . S
C1063 C1065 1.390 . S
C1063 H1067 0.950 . S
H1064 C1060 0.950 . S
C1065 C1063 1.390 . S
C1065 C1066 1.387 . S
C1065 H1068 0.950 . S
C1066 C1065 1.387 . S
C1066 C1069 1.387 . S
H1067 C1063 0.950 . S
H1068 C1065 0.950 . S
C1069 C1060 1.390 . S
C1069 H1062 0.950 . S
C1069 C1066 1.387 . S
C1070 C1071 1.387 1_565 S
C1070 H1074 0.950 . S
C1070 C1079 1.390 1_565 S
C1071 C1070 1.387 1_545 S
C1071 C1073 1.387 . S
H1072 C1079 0.950 1_565 S
C1073 C1071 1.387 . S
C1073 C1075 1.390 . S
C1073 H1077 0.950 . S
H1074 C1070 0.950 . S
C1075 C1073 1.390 . S
C1075 C1076 1.387 . S
C1075 H1078 0.950 . S
C1076 C1075 1.387 . S
C1076 C1079 1.387 . S
H1077 C1073 0.950 . S
H1078 C1075 0.950 . S
C1079 C1070 1.390 1_545 S
C1079 H1072 0.950 1_545 S
C1079 C1076 1.387 . S
C1080 C1081 1.387 . S
C1080 H1084 0.950 . S
C1080 C1089 1.390 . S
C1081 C1080 1.387 . S
C1081 C1083 1.387 . S
H1082 C1089 0.950 . S
C1083 C1081 1.387 . S
C1083 C1085 1.390 . S
C1083 H1087 0.950 . S
H1084 C1080 0.950 . S
C1085 C1083 1.390 . S
C1085 C1086 1.387 . S
C1085 H1088 0.950 . S
C1086 C1085 1.387 . S
C1086 C1089 1.387 . S
H1087 C1083 0.950 . S
H1088 C1085 0.950 . S
C1089 C1080 1.390 . S
C1089 H1082 0.950 . S
C1089 C1086 1.387 . S
C1090 C1091 1.380 1_565 S
C1090 H1094 0.961 . S
C1090 C1099 1.386 1_565 S
C1091 C1090 1.380 1_545 S
C1091 C1093 1.387 . S
H1092 C1099 0.950 1_565 S
C1093 C1091 1.387 . S
C1093 C1095 1.390 . S
C1093 H1097 0.950 . S
H1094 C1090 0.961 . S
C1095 C1093 1.390 . S
C1095 C1096 1.387 . S
C1095 H1098 0.950 . S
C1096 C1095 1.387 . S
C1096 C1099 1.387 . S
H1097 C1093 0.950 . S
H1098 C1095 0.950 . S
C1099 C1090 1.386 1_545 S
C1099 H1092 0.950 1_545 S
C1099 C1096 1.387 . S
C1100 C1101 1.387 . S
C1100 H1104 0.950 . S
C1100 C1109 1.390 . S
C1101 C1100 1.387 . S
C1101 C1103 1.387 . S
H1102 C1109 0.950 . S
C1103 C1101 1.387 . S
C1103 C1105 1.390 . S
C1103 H1107 0.950 . S
H1104 C1100 0.950 . S
C1105 C1103 1.390 . S
C1105 C1106 1.387 . S
C1105 H1108 0.950 . S
C1106 C1105 1.387 . S
C1106 C1109 1.387 . S
H1107 C1103 0.950 . S
H1108 C1105 0.950 . S
C1109 C1100 1.390 . S
C1109 H1102 0.950 . S
C1109 C1106 1.387 . S
C1110 C1111 1.387 . S
C1110 H1114 0.950 . S
C1110 C1119 1.390 . S
C1111 C1110 1.387 . S
C1111 C1113 1.387 . S
H1112 C1119 0.950 . S
C1113 C1111 1.387 . S
C1113 C1115 1.390 1_565 S
C1113 H1117 0.950 1_565 S
H1114 C1110 0.950 . S
C1115 C1113 1.390 1_545 S
C1115 C1116 1.387 1_545 S
C1115 H1118 0.950 . S
C1116 C1115 1.387 1_565 S
C1116 C1119 1.387 . S
H1117 C1113 0.950 1_545 S
H1118 C1115 0.950 . S
C1119 C1110 1.390 . S
C1119 H1112 0.950 . S
C1119 C1116 1.387 . S
C641 C8 1.225 . S
C646 C509 1.225 . S
C651 C229 1.226 . S
C656 C48 1.226 . S
C661 C88 1.223 . S
C666 C589 1.223 . S
C671 C128 1.223 1_554 S
C676 C309 1.223 1_556 S
C681 C189 1.223 . S
C686 C328 1.223 . S
C691 C408 1.226 . S
C696 C269 1.226 . S
C701 C549 1.226 1_556 S
C706 C368 1.226 1_554 S
C711 C448 1.225 . S
C716 C629 1.225 . S
C721 C362 2.500 . S
C726 C29 2.431 1_556 S
C731 C69 2.428 . S
C736 C402 2.499 . S
C741 C109 2.431 . S
C746 C442 2.498 . S
C751 C322 2.499 . S
C756 C149 2.428 . S
C761 C537 2.501 . S
C766 C168 2.431 1_554 S
C771 C577 2.500 . S
C776 C208 2.431 . S
C781 C248 2.431 . S
C786 C617 2.500 . S
C791 C497 2.500 . S
C796 C288 2.431 . S
C801 C349 2.428 . S
C806 C42 2.499 . S
C811 C389 2.428 . S
C816 C82 2.499 . S
C821 C429 2.429 1_556 S
C826 C122 2.499 . S
C831 C2 2.500 . S
C836 C469 2.431 . S
C841 C217 2.499 . S
C846 C488 2.428 . S
C851 C528 2.431 . S
C856 C257 2.500 . S
C861 C297 2.500 . S
C866 C568 2.431 1_554 S
C871 C608 2.428 . S
C876 C177 2.499 . S
C881 C31 2.933 . S
C886 C431 2.933 . S
C891 C71 2.934 . S
C896 C471 2.934 . S
C901 C351 2.933 . S
C906 C111 2.933 . S
C911 C151 2.934 . S
C916 C391 2.934 . S
C921 C172 2.934 . S
C926 C572 2.934 . S
C931 C212 2.934 . S
C936 C612 2.934 . S
C941 C492 2.933 . S
C946 C252 2.933 . S
C951 C292 2.934 . S
C956 C532 2.934 . S
C961 C17 1.990 . S
C966 C311 2.320 . S
C971 C511 2.318 . S
C976 C57 1.987 . S
C981 C97 1.991 . S
C986 C231 2.320 . S
C991 C137 1.987 1_455 S
C996 C591 2.318 . S
C1001 C162 1.989 . S
C1006 C132 2.319 . S
C1011 C332 2.320 . S
C1016 C202 1.991 . S
C1021 C242 1.989 . S
C1026 C52 2.320 . S
C1031 C412 2.318 . S
C1036 C282 1.987 1_655 S
C1041 C337 1.991 . S
C1046 C631 2.320 . S
C1051 C191 2.320 . S
C1056 C377 1.991 1_655 S
C1061 C551 2.320 . S
C1066 C417 1.990 . S
C1071 C457 1.988 . S
C1076 C271 2.319 . S
C1081 C482 1.987 . S
C1086 C452 2.319 . S
C1091 C522 1.991 1_455 S
C1096 C12 2.320 . S
C1101 C372 2.320 . S
C1106 C562 1.989 . S
C1111 C92 2.319 . S
C1116 C602 1.987 . S
