# Generated by pormake.
# Topology ukg, (4)-cn, num edge types: 1
# Building blocks:
#     Node 0, Type 0, BuildingBlock: ESEHIV_clean_sbu_0, # of connection points: 4
#     Node 1, Type 0, BuildingBlock: ESEHIV_clean_sbu_0, # of connection points: 4
#     Node 2, Type 0, BuildingBlock: ESEHIV_clean_sbu_0, # of connection points: 4
#     Node 3, Type 0, BuildingBlock: ESEHIV_clean_sbu_0, # of connection points: 4
#     Node 4, Type 0, BuildingBlock: ESEHIV_clean_sbu_0, # of connection points: 4
#     Node 5, Type 0, BuildingBlock: ESEHIV_clean_sbu_0, # of connection points: 4
#     Node 6, Type 0, BuildingBlock: ESEHIV_clean_sbu_0, # of connection points: 4
#     Node 7, Type 0, BuildingBlock: ESEHIV_clean_sbu_0, # of connection points: 4
#     Edge 8, Type (0, 0), BuildingBlock: OJICUG_clean_linker_0, # of connection points: 2
#     Edge 9, Type (0, 0), BuildingBlock: OJICUG_clean_linker_0, # of connection points: 2
#     Edge 10, Type (0, 0), BuildingBlock: OJICUG_clean_linker_0, # of connection points: 2
#     Edge 11, Type (0, 0), BuildingBlock: OJICUG_clean_linker_0, # of connection points: 2
#     Edge 12, Type (0, 0), BuildingBlock: OJICUG_clean_linker_0, # of connection points: 2
#     Edge 13, Type (0, 0), BuildingBlock: OJICUG_clean_linker_0, # of connection points: 2
#     Edge 14, Type (0, 0), BuildingBlock: OJICUG_clean_linker_0, # of connection points: 2
#     Edge 15, Type (0, 0), BuildingBlock: OJICUG_clean_linker_0, # of connection points: 2
#     Edge 16, Type (0, 0), BuildingBlock: OJICUG_clean_linker_0, # of connection points: 2
#     Edge 17, Type (0, 0), BuildingBlock: OJICUG_clean_linker_0, # of connection points: 2
#     Edge 18, Type (0, 0), BuildingBlock: OJICUG_clean_linker_0, # of connection points: 2
#     Edge 19, Type (0, 0), BuildingBlock: OJICUG_clean_linker_0, # of connection points: 2
#     Edge 20, Type (0, 0), BuildingBlock: OJICUG_clean_linker_0, # of connection points: 2
#     Edge 21, Type (0, 0), BuildingBlock: OJICUG_clean_linker_0, # of connection points: 2
#     Edge 22, Type (0, 0), BuildingBlock: OJICUG_clean_linker_0, # of connection points: 2
#     Edge 23, Type (0, 0), BuildingBlock: OJICUG_clean_linker_0, # of connection points: 2
# Relax obj value: 0.138
# Max RMSD: 0.199
# Mean RMSD: 0.179
data_MOF--net-ukg--node1-ESEHIV_clean_sbu_0--edge1-OJICUG_clean_linker_0
_symmetry_space_group_name_H-M    P1
_symmetry_Int_Tables_number       1
_symmetry_cell_setting            triclinic
loop_
_symmetry_equiv_pos_as_xyz
'x, y, z'
_cell_length_a     22.968322
_cell_length_b     22.89253
_cell_length_c     30.950294
_cell_angle_alpha  90.209627
_cell_angle_beta   89.418396
_cell_angle_gamma 90.491729
loop_
_atom_site_label
_atom_site_type_symbol
_atom_site_fract_x
_atom_site_fract_y
_atom_site_fract_z
_atom_type_partial_charge
Cu0 Cu 0.05272 0.71426 0.17843 0.0
N1 N 1.0027 0.77516 0.19336 0.0
N2 N 0.93465 0.82132 0.23263 0.0
C3 C 0.97801 0.78182 0.23275 0.0
C4 C 0.93259 0.84062 0.19143 0.0
C5 C 0.97428 0.81179 0.16727 0.0
O6 O 1.02189 0.64948 0.21325 0.0
C7 C 0.15383 0.78777 0.18816 0.0
O8 O 0.11691 0.82962 0.17977 0.0
H9 H 0.99042 0.75641 0.26052 0.0
H10 H 0.9812 0.81503 0.13275 0.0
N11 N 0.04614 0.69591 0.11948 0.0
N12 N 1.03198 0.64479 0.0585 0.0
C13 C 1.02986 0.64426 0.10222 0.0
C14 C 0.05946 0.73029 0.08553 0.0
C15 C 0.05089 0.69888 1.04787 0.0
C16 C 0.96769 0.63744 0.20926 0.0
O17 O 0.93857 0.66354 0.17863 0.0
H18 H 1.01842 0.60643 0.12146 0.0
H19 H 0.07506 0.77488 0.08804 0.0
O20 O 0.13482 0.73514 0.19044 0.0
H21 H 0.90152 0.87144 0.17902 0.0
H22 H 0.05811 0.71461 1.01531 0.0
Cu23 Cu 0.37697 0.58679 0.6815 0.0
N24 N 0.31521 0.53849 0.69868 0.0
N25 N 0.2673 0.47456 0.74072 0.0
C26 C 0.30807 0.51729 0.73895 0.0
C27 C 0.24768 0.46902 0.69989 0.0
C28 C 0.2775 0.50838 0.67399 0.0
O29 O 0.44316 0.55022 0.70967 0.0
C30 C 0.309 0.68925 0.69126 0.0
O31 O 0.26742 0.65272 0.67992 0.0
H32 H 0.33484 0.5305 0.76588 0.0
H33 H 0.27395 0.51274 0.63933 0.0
N34 N 0.39044 0.58069 0.62183 0.0
N35 N 0.43944 0.56848 0.55948 0.0
C36 C 0.44054 0.5634 0.60301 0.0
C37 C 0.35619 0.59736 0.58915 0.0
C38 C 0.38635 0.59001 0.55063 0.0
C39 C 0.459 0.55798 0.74853 0.0
O40 O 0.43645 0.60092 0.77126 0.0
H41 H 0.47811 0.54999 0.62119 0.0
H42 H 0.31299 0.61517 0.59315 0.0
O43 O 0.3606 0.66951 0.69567 0.0
H44 H 0.21505 0.43792 0.68925 0.0
H45 H 0.37074 0.60059 0.51875 0.0
Cu46 Cu 0.5023 0.92146 0.18015 0.0
N47 N 0.55357 0.86109 0.19308 0.0
N48 N 0.62095 0.81491 0.23175 0.0
C49 C 0.57649 0.85315 0.23253 0.0
C50 C 0.62568 0.79773 0.19004 0.0
C51 C 0.58445 0.82658 0.16626 0.0
O52 O 0.53156 0.98524 0.21642 0.0
C53 C 0.40175 0.84654 0.1873 0.0
O54 O 0.43873 0.80601 0.17527 0.0
H55 H 0.56194 0.87675 0.26094 0.0
H56 H 0.57964 0.82474 0.13162 0.0
N57 N 0.50828 0.94374 0.12194 0.0
N58 N 0.50926 1.00122 0.06346 0.0
C59 C 0.50876 0.999 0.10715 0.0
C60 C 0.50814 0.90968 0.08637 0.0
C61 C 0.50923 0.94501 1.05024 0.0
C62 C 0.58522 0.99928 0.21135 0.0
O63 O 0.61429 0.97612 0.17885 0.0
H64 H 0.50781 1.03686 0.12818 0.0
H65 H 0.50528 0.86253 0.0866 0.0
O66 O 0.42057 0.89881 0.19266 0.0
H67 H 0.65824 0.7684 0.17712 0.0
H68 H 0.50742 0.93047 1.01696 0.0
Cu69 Cu 0.1802 1.03804 0.67933 0.0
N70 N 0.24089 0.08983 0.69263 0.0
N71 N 0.28656 0.16045 0.72979 0.0
C72 C 0.24596 0.11744 0.73094 0.0
C73 C 0.30834 0.15929 0.68906 0.0
C74 C 0.27989 0.1159 0.66617 0.0
O75 O 0.11546 0.0672 0.71493 0.0
C76 C 0.25401 0.93781 0.68982 0.0
O77 O 0.29608 0.97528 0.68107 0.0
H78 H 0.21771 0.10835 0.75833 0.0
H79 H 0.28549 0.10586 0.63223 0.0
N80 N 0.16038 1.04375 0.62077 0.0
N81 N 0.10701 0.05563 0.5612 0.0
C82 C 0.10773 0.05705 0.60492 0.0
C83 C 0.19418 1.03302 0.5859 0.0
C84 C 0.1614 1.04022 0.54911 0.0
C85 C 0.10182 0.12092 0.71052 0.0
O86 O 0.12718 0.15117 0.6795 0.0
H87 H 0.0702 0.06594 0.62522 0.0
H88 H 0.23933 1.02014 0.58718 0.0
O89 O 0.20156 0.95621 0.69185 0.0
H90 H 0.3417 0.18832 0.67634 0.0
H91 H 0.17646 1.03456 0.51613 0.0
Cu92 Cu 1.01868 0.33449 0.91365 0.0
N93 N 0.96715 0.30053 0.95361 0.0
N94 N 0.88274 0.29652 0.98994 0.0
C95 C 0.91388 0.32332 0.95872 0.0
C96 C 0.91743 0.25391 1.00487 0.0
C97 C 0.9702 0.25698 0.98264 0.0
O98 O 1.01077 0.41899 0.92378 0.0
C99 C 1.00092 0.24642 0.85438 0.0
O100 O 1.00184 0.21705 0.89072 0.0
H101 H 0.89817 0.35917 0.93944 0.0
H102 H 1.00785 0.22976 0.9874 0.0
N103 N 0.09835 0.32046 0.91832 0.0
N104 N 0.18238 0.34562 0.8855 0.0
C105 C 0.12877 0.32236 0.88095 0.0
C106 C 0.1355 0.34049 0.94846 0.0
C107 C 0.18738 0.35601 0.92829 0.0
C108 C 1.0129 0.43251 0.9639 0.0
O109 O 1.02052 0.39095 0.99234 0.0
H110 H 0.10807 0.31801 0.84987 0.0
H111 H 0.12343 0.35146 0.9813 0.0
O112 O 1.00072 0.30226 0.85643 0.0
H113 H 0.90575 0.22333 1.03017 0.0
H114 H 0.22298 0.37966 0.94316 0.0
Cu115 Cu 0.75098 0.57115 0.41511 0.0
N116 N 0.78527 0.52196 0.4556 0.0
N117 N 0.79299 0.43774 0.4912 0.0
C118 C 0.76399 0.46764 0.46111 0.0
C119 C 0.83529 0.47441 0.50503 0.0
C120 C 0.82991 0.52702 0.48331 0.0
O121 O 0.6668 0.56006 0.42496 0.0
C122 C 0.83845 0.54702 0.35527 0.0
O123 O 0.86831 0.54678 0.3912 0.0
H124 H 0.72823 0.44994 0.44249 0.0
H125 H 0.85697 0.5656 0.48697 0.0
N126 N 0.76409 0.65199 0.4192 0.0
N127 N 0.74141 0.73066 0.37954 0.0
C128 C 0.77157 0.68033 0.38142 0.0
C129 C 0.73247 0.6888 0.44385 0.0
C130 C 0.71865 0.7372 0.41963 0.0
C131 C 0.65198 0.56122 0.46493 0.0
O132 O 0.69216 0.57045 0.49409 0.0
H133 H 0.79059 0.65956 0.35342 0.0
H134 H 0.71208 0.67729 0.47427 0.0
O135 O 0.78295 0.5507 0.35794 0.0
H136 H 0.86767 0.46391 0.52888 0.0
H137 H 0.68681 0.76964 0.42887 0.0
Cu138 Cu 0.51673 0.3036 0.91124 0.0
N139 N 0.562 0.33769 0.95434 0.0
N140 N 0.64324 0.34558 0.99309 0.0
C141 C 0.61145 0.31185 0.96643 0.0
C142 C 0.61214 0.39504 0.99833 0.0
C143 C 0.5614 0.38978 0.97463 0.0
O144 O 0.51821 0.22037 0.92588 0.0
C145 C 0.56948 0.37976 0.8507 0.0
O146 O 0.60231 0.39716 0.8828 0.0
H147 H 0.62611 0.27082 0.95282 0.0
H148 H 0.52868 0.42288 0.97022 0.0
N149 N 0.43889 0.32478 0.91 0.0
N150 N 0.36301 0.30879 0.86651 0.0
C151 C 0.40152 0.28498 0.89372 0.0
C152 C 0.42129 0.3764 0.89431 0.0
C153 C 0.3749 0.3666 0.86717 0.0
C154 C 0.49524 0.21225 0.96322 0.0
O155 O 0.47217 0.25748 0.98306 0.0
H156 H 0.4105 0.23863 0.8941 0.0
H157 H 0.44714 0.41611 0.89535 0.0
O158 O 0.54266 0.3308 0.854 0.0
H159 H 0.62637 0.4333 1.01609 0.0
H160 H 0.35741 0.39809 0.84494 0.0
Cu161 Cu 0.79695 0.05942 0.41859 0.0
N162 N 0.76161 0.10933 0.45892 0.0
N163 N 0.75277 0.19462 0.49353 0.0
C164 C 0.78309 0.16361 0.46419 0.0
C165 C 0.70949 0.15867 0.50718 0.0
C166 C 0.71555 0.10538 0.48609 0.0
O167 O 0.88081 0.06898 0.42967 0.0
C168 C 0.71216 0.08485 0.3586 0.0
O169 O 0.68123 0.08468 0.39448 0.0
H170 H 0.81971 0.1806 0.44569 0.0
H171 H 0.6878 0.06725 0.4896 0.0
N172 N 0.7825 0.9787 0.4218 0.0
N173 N 0.80712 0.901 0.38095 0.0
C174 C 0.77651 0.95104 0.38354 0.0
C175 C 0.81329 0.94144 0.44601 0.0
C176 C 0.82835 0.89367 0.42105 0.0
C177 C 0.89331 0.06742 0.46987 0.0
O178 O 0.85122 0.05885 0.49822 0.0
H179 H 0.75852 0.97226 0.35574 0.0
H180 H 0.83255 0.95238 0.47671 0.0
O181 O 0.76756 0.08066 0.36133 0.0
H182 H 0.6758 0.17021 0.5303 0.0
H183 H 0.86011 0.86126 0.42986 0.0
C184 C 0.97493 0.50081 1.01896 0.0
C185 C 1.00729 0.49262 0.98071 0.0
H186 H 0.9565 0.55591 0.07313 0.0
C187 C 1.04272 0.53845 0.96536 0.0
H188 H 0.94723 0.46607 1.03146 0.0
C189 C 0.04884 0.59002 0.98982 0.0
C190 C 1.01965 0.59624 1.02991 0.0
H191 H 0.06887 0.53275 0.93636 0.0
H192 H 0.07908 0.62332 0.97867 0.0
C193 C 0.98082 0.55197 1.04314 0.0
C194 C 0.53142 0.51901 0.5409 0.0
C195 C 0.48761 0.55857 0.52996 0.0
H196 H 0.61742 0.48809 0.52776 0.0
C197 C 0.49452 0.59157 0.49179 0.0
H198 H 0.52702 0.49189 0.56933 0.0
C199 C 0.54634 0.58849 0.46729 0.0
C200 C 0.59176 0.55239 0.4807 0.0
H201 H 0.46168 0.62253 0.48242 0.0
H202 H 0.5526 0.61756 0.44007 0.0
C203 C 0.58291 0.51624 0.51674 0.0
C204 C 0.52905 0.05503 0.99491 0.0
C205 C 0.50486 0.05281 1.03696 0.0
H206 H 0.54552 0.10728 0.93822 0.0
C207 C 0.47583 0.10206 0.05298 0.0
H208 H 0.55176 1.01768 0.98168 0.0
C209 C 0.4719 0.15255 1.02828 0.0
C210 C 0.4972 0.15578 0.98672 0.0
H211 H 0.45555 0.10157 0.08469 0.0
H212 H 0.44932 0.1895 1.04231 0.0
C213 C 0.52551 0.10623 0.97004 0.0
C214 C 0.96003 0.10492 0.52575 0.0
C215 C 0.95291 0.07431 0.48673 0.0
H216 H 1.01475 0.12413 0.57936 0.0
C217 C 0.99996 1.04259 0.46977 0.0
H218 H 0.92446 0.12997 0.53945 0.0
C219 C 0.05189 1.03833 0.49325 0.0
C220 C 0.05735 0.06583 0.53393 0.0
H221 H 0.99522 1.01792 0.44006 0.0
H222 H 0.08633 1.01092 0.48071 0.0
C223 C 1.01156 0.101 0.54891 0.0
C224 C 0.25976 0.75829 0.19041 0.0
C225 C 0.21732 0.80218 0.19175 0.0
H226 H 0.35066 0.73772 0.18791 0.0
C227 C 0.23631 0.86087 0.19419 0.0
H228 H 0.24698 0.71271 0.18846 0.0
C229 C 0.29591 0.87532 0.19421 0.0
C230 C 0.33834 0.83153 0.19133 0.0
H231 H 0.20503 0.89598 0.19544 0.0
H232 H 0.30865 0.92095 0.19527 0.0
C233 C 0.31937 0.77277 0.18998 0.0
C234 C 0.23719 0.77186 0.69502 0.0
C235 C 0.29551 0.75295 0.69515 0.0
H236 H 0.17827 0.84414 0.69373 0.0
C237 C 0.33983 0.79566 0.69619 0.0
H238 H 0.20173 0.74039 0.69439 0.0
C239 C 0.32621 0.85545 0.69549 0.0
C240 C 0.26789 0.87429 0.69414 0.0
H241 H 0.38514 0.78294 0.69623 0.0
H242 H 0.36165 0.88697 0.69527 0.0
C243 C 0.22358 0.83156 0.69472 0.0
C244 C 0.7229 0.27744 1.00903 0.0
C245 C 0.7033 0.33505 1.0034 0.0
H246 H 0.79623 0.21989 1.00958 0.0
C247 C 0.74453 0.38049 1.00086 0.0
H248 H 0.69193 0.24166 1.01153 0.0
C249 C 0.80398 0.36795 0.99967 0.0
C250 C 0.82337 0.30984 1.00132 0.0
H251 H 0.7309 0.42518 0.99638 0.0
H252 H 0.83484 0.40347 0.99507 0.0
C253 C 0.78246 0.26495 1.00818 0.0
C254 C 0.82966 0.33852 0.50441 0.0
C255 C 0.78291 0.37725 0.50163 0.0
H256 H 0.85626 0.24895 0.50415 0.0
C257 C 0.72568 0.35473 0.50306 0.0
H258 H 0.87406 0.35474 0.50317 0.0
C259 C 0.71543 0.2944 0.50404 0.0
C260 C 0.76229 0.25557 0.5029 0.0
H261 H 0.6889 0.38389 0.5013 0.0
H262 H 0.6711 0.27813 0.50246 0.0
C263 C 0.81943 0.27818 0.50469 0.0
C264 C 0.93191 0.55696 0.31332 0.0
C265 C 0.87052 0.55836 0.31406 0.0
H266 H 1.01084 0.5805 0.27984 0.0
C267 C 0.84172 0.579 0.27743 0.0
H268 H 0.95567 0.54103 0.34086 0.0
C269 C 0.8736 0.60145 0.24226 0.0
C270 C 0.935 0.604 0.24295 0.0
H271 H 0.79464 0.58094 0.27687 0.0
H272 H 0.84984 0.61958 0.21548 0.0
C273 C 0.96375 0.57967 0.27829 0.0
C274 C 0.53084 0.5277 0.80444 0.0
C275 C 0.49395 0.51258 0.77031 0.0
H276 H 0.58535 0.498 0.8552 0.0
C277 C 0.48643 0.45302 0.75991 0.0
H278 H 0.53735 0.57311 0.81327 0.0
C279 C 0.51287 0.40945 0.78466 0.0
C280 C 0.54864 0.42457 0.81967 0.0
H281 H 0.45758 0.43995 0.73407 0.0
H282 H 0.50378 0.36401 0.77728 0.0
C283 C 0.55852 0.48437 0.82836 0.0
C284 C 0.58843 0.05527 0.28137 0.0
C285 C 0.61767 1.03134 0.24555 0.0
H286 H 0.5955 0.09265 0.34448 0.0
C287 C 0.67912 1.03308 0.24474 0.0
H288 H 0.5413 0.05507 0.283 0.0
C289 C 0.71048 0.05436 0.28022 0.0
C290 C 0.68108 0.07468 0.31724 0.0
H291 H 0.70323 1.01515 0.2176 0.0
H292 H 0.75754 0.05177 0.27955 0.0
C293 C 0.61973 0.07691 0.31665 0.0
C294 C 1.01656 0.15305 0.81352 0.0
C295 C 1.01525 0.21464 0.81363 0.0
H296 H 1.04459 0.07507 0.78112 0.0
C297 C 1.03613 0.2444 0.77696 0.0
H298 H 1.00058 0.12854 0.84113 0.0
C299 C 0.06125 0.21348 0.74238 0.0
C300 C 0.0663 0.15211 0.74372 0.0
H301 H 1.03613 0.29169 0.77596 0.0
H302 H 0.07934 0.23812 0.71555 0.0
C303 C 1.04191 0.12219 0.77909 0.0
C304 C 0.23643 0.43081 0.85579 0.0
C305 C 0.21328 0.3742 0.85052 0.0
H306 H 0.27088 0.50741 0.82493 0.0
C307 C 0.21173 0.34998 0.8087 0.0
H308 H 0.23726 0.45135 0.88732 0.0
C309 C 0.23022 0.38242 0.77285 0.0
C310 C 0.25112 0.43988 0.77791 0.0
H311 H 0.19443 0.30635 0.80365 0.0
H312 H 0.22779 0.36254 0.74115 0.0
C313 C 0.25524 0.46321 0.8199 0.0
C314 C 0.71651 0.72361 0.30168 0.0
C315 C 0.71846 0.75621 0.34045 0.0
H316 H 0.68356 0.71581 0.23777 0.0
C317 C 0.69145 0.81114 0.34134 0.0
H318 H 0.7356 0.68081 0.29908 0.0
C319 C 0.66095 0.83137 0.30538 0.0
C320 C 0.65651 0.79702 0.26763 0.0
H321 H 0.69267 0.83788 0.37023 0.0
H322 H 0.64023 0.87356 0.30749 0.0
C323 C 0.68604 0.74367 0.266 0.0
C324 C 0.34407 0.29267 0.78886 0.0
C325 C 0.3357 0.27622 0.83221 0.0
H326 H 0.33452 0.26922 0.72232 0.0
C327 C 0.30796 0.22274 0.84124 0.0
H328 H 0.3661 0.33328 0.78088 0.0
C329 C 0.29074 0.18547 0.80773 0.0
C330 C 0.30113 0.20067 0.76428 0.0
H331 H 0.30158 0.20894 0.87439 0.0
H332 H 0.27134 0.14373 0.81606 0.0
C333 C 0.32687 0.25539 0.75529 0.0
C334 C 0.86889 0.89215 0.26808 0.0
C335 C 0.89758 0.83831 0.26857 0.0
H336 H 0.81837 0.95429 0.30225 0.0
C337 C 0.8907 0.8025 0.30529 0.0
H338 H 0.87327 0.92117 0.24071 0.0
C339 C 0.85853 0.82165 0.34136 0.0
C340 C 0.83214 0.87687 0.34158 0.0
H341 H 0.91074 0.75996 0.30653 0.0
H342 H 0.85545 0.7938 0.36949 0.0
C343 C 0.83672 0.9111 0.30385 0.0
loop_
_geom_bond_atom_site_label_1
_geom_bond_atom_site_label_2
_geom_bond_distance
_geom_bond_site_symmetry_2
_ccdc_geom_bond_type
Cu0 N1 1.999 . S
Cu0 O6 1.974 . S
Cu0 N11 1.985 1_655 S
Cu0 O20 1.959 1_655 S
N1 Cu0 1.999 . S
N1 C3 1.263 . S
N1 C5 1.389 . S
N2 C3 1.358 . S
N2 C4 1.400 . S
C3 N1 1.263 . S
C3 N2 1.358 . S
C3 H9 0.930 . S
C4 N2 1.400 . S
C4 C5 1.351 . S
C4 H21 0.930 . S
C5 N1 1.389 . S
C5 C4 1.351 . S
C5 H10 0.930 1_655 S
O6 Cu0 1.974 . S
O6 C16 1.282 . S
C7 O8 1.261 . S
C7 O20 1.251 . S
O8 C7 1.261 . S
H9 C3 0.930 . S
H10 C5 0.930 1_455 S
N11 Cu0 1.985 1_455 S
N11 C13 1.335 . S
N11 C14 1.390 1_455 S
N12 C13 1.345 . S
N12 C15 1.336 . S
C13 N11 1.335 . S
C13 N12 1.345 . S
C13 H18 0.930 . S
C14 N11 1.390 1_655 S
C14 C15 1.346 1_655 S
C14 H19 0.930 . S
C15 N12 1.336 . S
C15 C14 1.346 1_455 S
C15 H22 0.929 1_455 S
C16 O6 1.282 . S
C16 O17 1.216 . S
O17 C16 1.216 . S
H18 C13 0.930 . S
H19 C14 0.930 . S
O20 Cu0 1.959 1_455 S
O20 C7 1.251 . S
H21 C4 0.930 . S
H22 C15 0.929 1_655 S
Cu23 N24 1.999 . S
Cu23 O29 1.974 . S
Cu23 N34 1.985 . S
Cu23 O43 1.959 . S
N24 Cu23 1.999 . S
N24 C26 1.263 . S
N24 C28 1.389 . S
N25 C26 1.358 . S
N25 C27 1.400 . S
C26 N24 1.263 . S
C26 N25 1.358 . S
C26 H32 0.930 . S
C27 N25 1.400 . S
C27 C28 1.351 . S
C27 H44 0.930 . S
C28 N24 1.389 . S
C28 C27 1.351 . S
C28 H33 0.930 . S
O29 Cu23 1.974 . S
O29 C39 1.282 . S
C30 O31 1.261 . S
C30 O43 1.251 . S
O31 C30 1.261 . S
H32 C26 0.930 . S
H33 C28 0.930 . S
N34 Cu23 1.985 . S
N34 C36 1.335 . S
N34 C37 1.390 . S
N35 C36 1.345 . S
N35 C38 1.336 . S
C36 N34 1.335 . S
C36 N35 1.345 . S
C36 H41 0.930 . S
C37 N34 1.390 . S
C37 C38 1.346 . S
C37 H42 0.930 . S
C38 N35 1.336 . S
C38 C37 1.346 . S
C38 H45 0.929 . S
C39 O29 1.282 . S
C39 O40 1.216 . S
O40 C39 1.216 . S
H41 C36 0.930 . S
H42 C37 0.930 . S
O43 Cu23 1.959 . S
O43 C30 1.251 . S
H44 C27 0.930 . S
H45 C38 0.929 . S
Cu46 N47 1.999 . S
Cu46 O52 1.974 . S
Cu46 N57 1.985 . S
Cu46 O66 1.959 . S
N47 Cu46 1.999 . S
N47 C49 1.263 . S
N47 C51 1.389 . S
N48 C49 1.358 . S
N48 C50 1.400 . S
C49 N47 1.263 . S
C49 N48 1.358 . S
C49 H55 0.930 . S
C50 N48 1.400 . S
C50 C51 1.351 . S
C50 H67 0.930 . S
C51 N47 1.389 . S
C51 C50 1.351 . S
C51 H56 0.930 . S
O52 Cu46 1.974 . S
O52 C62 1.282 . S
C53 O54 1.261 . S
C53 O66 1.251 . S
O54 C53 1.261 . S
H55 C49 0.930 . S
H56 C51 0.930 . S
N57 Cu46 1.985 . S
N57 C59 1.335 . S
N57 C60 1.390 . S
N58 C59 1.345 . S
N58 C61 1.336 1_565 S
C59 N57 1.335 . S
C59 N58 1.345 . S
C59 H64 0.930 . S
C60 N57 1.390 . S
C60 C61 1.346 1_565 S
C60 H65 0.930 . S
C61 N58 1.336 1_545 S
C61 C60 1.346 1_545 S
C61 H68 0.929 . S
C62 O52 1.282 . S
C62 O63 1.216 . S
O63 C62 1.216 . S
H64 C59 0.930 . S
H65 C60 0.930 . S
O66 Cu46 1.959 . S
O66 C53 1.251 . S
H67 C50 0.930 . S
H68 C61 0.929 . S
Cu69 N70 1.999 . S
Cu69 O75 1.974 . S
Cu69 N80 1.985 1_545 S
Cu69 O89 1.959 1_545 S
N70 Cu69 1.999 . S
N70 C72 1.263 . S
N70 C74 1.389 . S
N71 C72 1.358 . S
N71 C73 1.400 . S
C72 N70 1.263 . S
C72 N71 1.358 . S
C72 H78 0.930 . S
C73 N71 1.400 . S
C73 C74 1.351 . S
C73 H90 0.930 . S
C74 N70 1.389 . S
C74 C73 1.351 . S
C74 H79 0.930 1_545 S
O75 Cu69 1.974 . S
O75 C85 1.282 . S
C76 O77 1.261 . S
C76 O89 1.251 . S
O77 C76 1.261 . S
H78 C72 0.930 . S
H79 C74 0.930 1_565 S
N80 Cu69 1.985 1_565 S
N80 C82 1.335 . S
N80 C83 1.390 1_565 S
N81 C82 1.345 . S
N81 C84 1.336 1_455 S
C82 N80 1.335 . S
C82 N81 1.345 . S
C82 H87 0.930 . S
C83 N80 1.390 1_545 S
C83 C84 1.346 1_445 S
C83 H88 0.930 . S
C84 N81 1.336 1_655 S
C84 C83 1.346 1_665 S
C84 H91 0.929 1_565 S
C85 O75 1.282 . S
C85 O86 1.216 . S
O86 C85 1.216 . S
H87 C82 0.930 . S
H88 C83 0.930 . S
O89 Cu69 1.959 1_565 S
O89 C76 1.251 . S
H90 C73 0.930 . S
H91 C84 0.929 1_545 S
Cu92 N93 1.999 . S
Cu92 O98 1.974 . S
Cu92 N103 1.985 1_655 S
Cu92 O112 1.960 . S
N93 Cu92 1.999 . S
N93 C95 1.263 . S
N93 C97 1.389 . S
N94 C95 1.358 . S
N94 C96 1.400 . S
C95 N93 1.263 . S
C95 N94 1.358 . S
C95 H101 0.930 . S
C96 N94 1.400 . S
C96 C97 1.351 . S
C96 H113 0.930 . S
C97 N93 1.389 . S
C97 C96 1.351 . S
C97 H102 0.930 . S
O98 Cu92 1.974 . S
O98 C108 1.282 . S
C99 O100 1.261 . S
C99 O112 1.248 1_455 S
O100 C99 1.261 . S
H101 C95 0.930 . S
H102 C97 0.930 . S
N103 Cu92 1.985 1_455 S
N103 C105 1.335 . S
N103 C106 1.390 . S
N104 C105 1.345 . S
N104 C107 1.336 . S
C105 N103 1.335 . S
C105 N104 1.345 . S
C105 H110 0.930 . S
C106 N103 1.390 . S
C106 C107 1.346 . S
C106 H111 0.930 . S
C107 N104 1.336 . S
C107 C106 1.346 . S
C107 H114 0.929 . S
C108 O98 1.282 . S
C108 O109 1.216 1_655 S
O109 C108 1.216 1_455 S
H110 C105 0.930 . S
H111 C106 0.930 . S
O112 Cu92 1.960 . S
O112 C99 1.248 1_655 S
H113 C96 0.930 . S
H114 C107 0.929 . S
Cu115 N116 1.999 . S
Cu115 O121 1.974 . S
Cu115 N126 1.985 . S
Cu115 O135 1.959 . S
N116 Cu115 1.999 . S
N116 C118 1.263 . S
N116 C120 1.389 . S
N117 C118 1.358 . S
N117 C119 1.400 . S
C118 N116 1.263 . S
C118 N117 1.358 . S
C118 H124 0.930 . S
C119 N117 1.400 . S
C119 C120 1.351 . S
C119 H136 0.930 . S
C120 N116 1.389 . S
C120 C119 1.351 . S
C120 H125 0.930 . S
O121 Cu115 1.974 . S
O121 C131 1.282 . S
C122 O123 1.261 . S
C122 O135 1.251 . S
O123 C122 1.261 . S
H124 C118 0.930 . S
H125 C120 0.930 . S
N126 Cu115 1.985 . S
N126 C128 1.335 . S
N126 C129 1.390 . S
N127 C128 1.345 . S
N127 C130 1.336 . S
C128 N126 1.335 . S
C128 N127 1.345 . S
C128 H133 0.930 . S
C129 N126 1.390 . S
C129 C130 1.346 . S
C129 H134 0.930 . S
C130 N127 1.336 . S
C130 C129 1.346 . S
C130 H137 0.929 . S
C131 O121 1.282 . S
C131 O132 1.216 . S
O132 C131 1.216 . S
H133 C128 0.930 . S
H134 C129 0.930 . S
O135 Cu115 1.959 . S
O135 C122 1.251 . S
H136 C119 0.930 . S
H137 C130 0.929 . S
Cu138 N139 1.999 . S
Cu138 O144 1.974 . S
Cu138 N149 1.985 . S
Cu138 O158 1.959 . S
N139 Cu138 1.999 . S
N139 C141 1.263 . S
N139 C143 1.389 . S
N140 C141 1.358 . S
N140 C142 1.400 . S
C141 N139 1.263 . S
C141 N140 1.358 . S
C141 H147 0.930 . S
C142 N140 1.400 . S
C142 C143 1.351 . S
C142 H159 0.930 . S
C143 N139 1.389 . S
C143 C142 1.351 . S
C143 H148 0.930 . S
O144 Cu138 1.974 . S
O144 C154 1.282 . S
C145 O146 1.261 . S
C145 O158 1.251 . S
O146 C145 1.261 . S
H147 C141 0.930 . S
H148 C143 0.930 . S
N149 Cu138 1.985 . S
N149 C151 1.335 . S
N149 C152 1.390 . S
N150 C151 1.345 . S
N150 C153 1.336 . S
C151 N149 1.335 . S
C151 N150 1.345 . S
C151 H156 0.930 . S
C152 N149 1.390 . S
C152 C153 1.346 . S
C152 H157 0.930 . S
C153 N150 1.336 . S
C153 C152 1.346 . S
C153 H160 0.929 . S
C154 O144 1.282 . S
C154 O155 1.216 . S
O155 C154 1.216 . S
H156 C151 0.930 . S
H157 C152 0.930 . S
O158 Cu138 1.959 . S
O158 C145 1.251 . S
H159 C142 0.930 . S
H160 C153 0.929 . S
Cu161 N162 1.999 . S
Cu161 O167 1.974 . S
Cu161 N172 1.985 1_545 S
Cu161 O181 1.959 . S
N162 Cu161 1.999 . S
N162 C164 1.263 . S
N162 C166 1.389 . S
N163 C164 1.358 . S
N163 C165 1.400 . S
C164 N162 1.263 . S
C164 N163 1.358 . S
C164 H170 0.930 . S
C165 N163 1.400 . S
C165 C166 1.351 . S
C165 H182 0.930 . S
C166 N162 1.389 . S
C166 C165 1.351 . S
C166 H171 0.930 . S
O167 Cu161 1.974 . S
O167 C177 1.282 . S
C168 O169 1.261 . S
C168 O181 1.251 1_565 S
O169 C168 1.261 . S
H170 C164 0.930 . S
H171 C166 0.930 . S
N172 Cu161 1.985 1_565 S
N172 C174 1.335 . S
N172 C175 1.390 . S
N173 C174 1.345 . S
N173 C176 1.336 . S
C174 N172 1.335 . S
C174 N173 1.345 . S
C174 H179 0.930 . S
C175 N172 1.390 . S
C175 C176 1.346 . S
C175 H180 0.930 . S
C176 N173 1.336 . S
C176 C175 1.346 . S
C176 H183 0.929 . S
C177 O167 1.282 . S
C177 O178 1.216 1_545 S
O178 C177 1.216 1_565 S
H179 C174 0.930 . S
H180 C175 0.930 . S
O181 Cu161 1.959 . S
O181 C168 1.251 1_545 S
H182 C165 0.930 . S
H183 C176 0.929 . S
C184 C185 1.387 1_455 S
C184 H188 0.950 . S
C184 C193 1.390 1_556 S
C185 C184 1.387 1_655 S
C185 C187 1.387 . S
H186 C193 0.950 . S
C187 C185 1.387 . S
C187 C189 1.390 . S
C187 H191 0.950 . S
H188 C184 0.950 . S
C189 C187 1.390 . S
C189 C190 1.387 1_656 S
C189 H192 0.950 . S
C190 C189 1.387 1_454 S
C190 C193 1.387 . S
H191 C187 0.950 . S
H192 C189 0.950 . S
C193 C184 1.390 1_554 S
C193 H186 0.950 . S
C193 C190 1.387 . S
C194 C195 1.387 . S
C194 H198 0.950 . S
C194 C203 1.390 . S
C195 C194 1.387 . S
C195 C197 1.387 . S
H196 C203 0.950 . S
C197 C195 1.387 . S
C197 C199 1.390 . S
C197 H201 0.950 . S
H198 C194 0.950 . S
C199 C197 1.390 . S
C199 C200 1.387 . S
C199 H202 0.950 . S
C200 C199 1.387 . S
C200 C203 1.387 . S
H201 C197 0.950 . S
H202 C199 0.950 . S
C203 C194 1.390 . S
C203 H196 0.950 . S
C203 C200 1.387 . S
C204 C205 1.387 . S
C204 H208 0.950 . S
C204 C213 1.390 1_554 S
C205 C204 1.387 . S
C205 C207 1.387 1_554 S
H206 C213 0.950 . S
C207 C205 1.387 1_556 S
C207 C209 1.390 . S
C207 H211 0.950 . S
H208 C204 0.950 . S
C209 C207 1.390 . S
C209 C210 1.387 . S
C209 H212 0.950 . S
C210 C209 1.387 . S
C210 C213 1.387 . S
H211 C207 0.950 . S
H212 C209 0.950 . S
C213 C204 1.390 1_556 S
C213 H206 0.950 . S
C213 C210 1.387 . S
C214 C215 1.387 . S
C214 H218 0.950 . S
C214 C223 1.390 . S
C215 C214 1.387 . S
C215 C217 1.387 1_545 S
H216 C223 0.950 . S
C217 C215 1.387 1_565 S
C217 C219 1.390 . S
C217 H221 0.950 . S
H218 C214 0.950 . S
C219 C217 1.390 . S
C219 C220 1.387 . S
C219 H222 0.950 . S
C220 C219 1.387 . S
C220 C223 1.387 1_565 S
H221 C217 0.950 . S
H222 C219 0.950 . S
C223 C214 1.390 . S
C223 H216 0.950 . S
C223 C220 1.387 1_545 S
C224 C225 1.387 . S
C224 H228 0.950 . S
C224 C233 1.390 . S
C225 C224 1.387 . S
C225 C227 1.387 . S
H226 C233 0.950 . S
C227 C225 1.387 . S
C227 C229 1.390 . S
C227 H231 0.950 . S
H228 C224 0.950 . S
C229 C227 1.390 . S
C229 C230 1.387 . S
C229 H232 0.950 . S
C230 C229 1.387 . S
C230 C233 1.387 . S
H231 C227 0.950 . S
H232 C229 0.950 . S
C233 C224 1.390 . S
C233 H226 0.950 . S
C233 C230 1.387 . S
C234 C235 1.387 . S
C234 H238 0.950 . S
C234 C243 1.390 . S
C235 C234 1.387 . S
C235 C237 1.387 . S
H236 C243 0.950 . S
C237 C235 1.387 . S
C237 C239 1.390 . S
C237 H241 0.950 . S
H238 C234 0.950 . S
C239 C237 1.390 . S
C239 C240 1.387 . S
C239 H242 0.950 . S
C240 C239 1.387 . S
C240 C243 1.387 . S
H241 C237 0.950 . S
H242 C239 0.950 . S
C243 C234 1.390 . S
C243 H236 0.950 . S
C243 C240 1.387 . S
C244 C245 1.387 . S
C244 H248 0.950 . S
C244 C253 1.390 . S
C245 C244 1.387 . S
C245 C247 1.387 . S
H246 C253 0.950 . S
C247 C245 1.387 . S
C247 C249 1.390 . S
C247 H251 0.950 . S
H248 C244 0.950 . S
C249 C247 1.390 . S
C249 C250 1.387 . S
C249 H252 0.950 . S
C250 C249 1.387 . S
C250 C253 1.387 . S
H251 C247 0.950 . S
H252 C249 0.950 . S
C253 C244 1.390 . S
C253 H246 0.950 . S
C253 C250 1.387 . S
C254 C255 1.387 . S
C254 H258 0.950 . S
C254 C263 1.390 . S
C255 C254 1.387 . S
C255 C257 1.387 . S
H256 C263 0.950 . S
C257 C255 1.387 . S
C257 C259 1.390 . S
C257 H261 0.950 . S
H258 C254 0.950 . S
C259 C257 1.390 . S
C259 C260 1.387 . S
C259 H262 0.950 . S
C260 C259 1.387 . S
C260 C263 1.387 . S
H261 C257 0.950 . S
H262 C259 0.950 . S
C263 C254 1.390 . S
C263 H256 0.950 . S
C263 C260 1.387 . S
C264 C265 1.387 . S
C264 H268 0.950 . S
C264 C273 1.390 . S
C265 C264 1.387 . S
C265 C267 1.387 . S
H266 C273 0.950 . S
C267 C265 1.387 . S
C267 C269 1.390 . S
C267 H271 0.950 . S
H268 C264 0.950 . S
C269 C267 1.390 . S
C269 C270 1.387 . S
C269 H272 0.950 . S
C270 C269 1.387 . S
C270 C273 1.387 . S
H271 C267 0.950 . S
H272 C269 0.950 . S
C273 C264 1.390 . S
C273 H266 0.950 . S
C273 C270 1.387 . S
C274 C275 1.387 . S
C274 H278 0.950 . S
C274 C283 1.390 . S
C275 C274 1.387 . S
C275 C277 1.387 . S
H276 C283 0.950 . S
C277 C275 1.387 . S
C277 C279 1.390 . S
C277 H281 0.950 . S
H278 C274 0.950 . S
C279 C277 1.390 . S
C279 C280 1.387 . S
C279 H282 0.950 . S
C280 C279 1.387 . S
C280 C283 1.387 . S
H281 C277 0.950 . S
H282 C279 0.950 . S
C283 C274 1.390 . S
C283 H276 0.950 . S
C283 C280 1.387 . S
C284 C285 1.387 . S
C284 H288 0.950 . S
C284 C293 1.390 . S
C285 C284 1.387 . S
C285 C287 1.387 . S
H286 C293 0.950 . S
C287 C285 1.387 . S
C287 C289 1.390 1_565 S
C287 H291 0.950 1_565 S
H288 C284 0.950 . S
C289 C287 1.390 1_545 S
C289 C290 1.387 1_545 S
C289 H292 0.950 . S
C290 C289 1.387 1_565 S
C290 C293 1.387 . S
H291 C287 0.950 1_545 S
H292 C289 0.950 . S
C293 C284 1.390 . S
C293 H286 0.950 . S
C293 C290 1.387 . S
C294 C295 1.387 . S
C294 H298 0.950 1_455 S
C294 C303 1.390 . S
C295 C294 1.387 . S
C295 C297 1.387 . S
H296 C303 0.950 . S
C297 C295 1.387 . S
C297 C299 1.390 . S
C297 H301 0.950 . S
H298 C294 0.950 1_655 S
C299 C297 1.390 . S
C299 C300 1.387 . S
C299 H302 0.950 . S
C300 C299 1.387 . S
C300 C303 1.387 . S
H301 C297 0.950 . S
H302 C299 0.950 . S
C303 C294 1.390 . S
C303 H296 0.950 . S
C303 C300 1.387 . S
C304 C305 1.387 . S
C304 H308 0.950 . S
C304 C313 1.390 . S
C305 C304 1.387 . S
C305 C307 1.387 . S
H306 C313 0.950 . S
C307 C305 1.387 . S
C307 C309 1.390 . S
C307 H311 0.950 . S
H308 C304 0.950 . S
C309 C307 1.390 . S
C309 C310 1.387 . S
C309 H312 0.950 . S
C310 C309 1.387 . S
C310 C313 1.387 . S
H311 C307 0.950 . S
H312 C309 0.950 . S
C313 C304 1.390 . S
C313 H306 0.950 . S
C313 C310 1.387 . S
C314 C315 1.387 . S
C314 H318 0.950 . S
C314 C323 1.390 . S
C315 C314 1.387 . S
C315 C317 1.387 . S
H316 C323 0.950 . S
C317 C315 1.387 . S
C317 C319 1.390 . S
C317 H321 0.950 . S
H318 C314 0.950 . S
C319 C317 1.390 . S
C319 C320 1.387 . S
C319 H322 0.950 . S
C320 C319 1.387 . S
C320 C323 1.387 . S
H321 C317 0.950 . S
H322 C319 0.950 . S
C323 C314 1.390 . S
C323 H316 0.950 . S
C323 C320 1.387 . S
C324 C325 1.387 . S
C324 H328 0.950 . S
C324 C333 1.390 . S
C325 C324 1.387 . S
C325 C327 1.387 . S
H326 C333 0.950 . S
C327 C325 1.387 . S
C327 C329 1.390 . S
C327 H331 0.950 . S
H328 C324 0.950 . S
C329 C327 1.390 . S
C329 C330 1.387 . S
C329 H332 0.950 . S
C330 C329 1.387 . S
C330 C333 1.387 . S
H331 C327 0.950 . S
H332 C329 0.950 . S
C333 C324 1.390 . S
C333 H326 0.950 . S
C333 C330 1.387 . S
C334 C335 1.387 . S
C334 H338 0.950 . S
C334 C343 1.390 . S
C335 C334 1.387 . S
C335 C337 1.387 . S
H336 C343 0.950 . S
C337 C335 1.387 . S
C337 C339 1.390 . S
C337 H341 0.950 . S
H338 C334 0.950 . S
C339 C337 1.390 . S
C339 C340 1.387 . S
C339 H342 0.950 . S
C340 C339 1.387 . S
C340 C343 1.387 . S
H341 C337 0.950 . S
H342 C339 0.950 . S
C343 C334 1.390 . S
C343 H336 0.950 . S
C343 C340 1.387 . S
C185 C108 1.846 . S
C190 N12 1.741 . S
C195 N35 1.707 . S
C200 C131 1.816 . S
C205 N58 1.668 1_545 S
C210 C154 1.776 . S
C215 C177 1.808 . S
C220 N81 1.703 1_655 S
C225 C7 2.582 . S
C230 C53 2.583 . S
C235 C30 2.580 . S
C240 C76 2.589 . S
C245 N140 1.817 . S
C250 N94 1.809 . S
C255 N117 1.806 . S
C260 N163 1.820 . S
C265 C122 1.822 . S
C270 C16 1.725 . S
C275 C39 1.737 . S
C280 C145 1.848 . S
C285 C62 1.699 . S
C290 C168 1.806 . S
C295 C99 1.781 . S
C300 C85 1.691 . S
C305 N104 1.353 . S
C310 N25 1.478 . S
C315 N127 1.398 . S
C320 N48 1.532 . S
C325 N150 1.388 . S
C330 N71 1.516 . S
C335 N2 1.463 . S
C340 N173 1.351 . S
