# Generated by pormake.
# Topology lcv-e, (6)-cn, num edge types: 1
# Building blocks:
#     Node 0, Type 0, BuildingBlock: OJICUG_clean_sbu_0, # of connection points: 6
#     Node 1, Type 0, BuildingBlock: OJICUG_clean_sbu_0, # of connection points: 6
#     Node 2, Type 0, BuildingBlock: OJICUG_clean_sbu_0, # of connection points: 6
#     Node 3, Type 0, BuildingBlock: OJICUG_clean_sbu_0, # of connection points: 6
#     Node 4, Type 0, BuildingBlock: OJICUG_clean_sbu_0, # of connection points: 6
#     Node 5, Type 0, BuildingBlock: OJICUG_clean_sbu_0, # of connection points: 6
#     Node 6, Type 0, BuildingBlock: OJICUG_clean_sbu_0, # of connection points: 6
#     Node 7, Type 0, BuildingBlock: OJICUG_clean_sbu_0, # of connection points: 6
#     Node 8, Type 0, BuildingBlock: OJICUG_clean_sbu_0, # of connection points: 6
#     Node 9, Type 0, BuildingBlock: OJICUG_clean_sbu_0, # of connection points: 6
#     Node 10, Type 0, BuildingBlock: OJICUG_clean_sbu_0, # of connection points: 6
#     Node 11, Type 0, BuildingBlock: OJICUG_clean_sbu_0, # of connection points: 6
#     Node 12, Type 0, BuildingBlock: OJICUG_clean_sbu_0, # of connection points: 6
#     Node 13, Type 0, BuildingBlock: OJICUG_clean_sbu_0, # of connection points: 6
#     Node 14, Type 0, BuildingBlock: OJICUG_clean_sbu_0, # of connection points: 6
#     Node 15, Type 0, BuildingBlock: OJICUG_clean_sbu_0, # of connection points: 6
#     Node 16, Type 0, BuildingBlock: OJICUG_clean_sbu_0, # of connection points: 6
#     Node 17, Type 0, BuildingBlock: OJICUG_clean_sbu_0, # of connection points: 6
#     Node 18, Type 0, BuildingBlock: OJICUG_clean_sbu_0, # of connection points: 6
#     Node 19, Type 0, BuildingBlock: OJICUG_clean_sbu_0, # of connection points: 6
#     Node 20, Type 0, BuildingBlock: OJICUG_clean_sbu_0, # of connection points: 6
#     Node 21, Type 0, BuildingBlock: OJICUG_clean_sbu_0, # of connection points: 6
#     Node 22, Type 0, BuildingBlock: OJICUG_clean_sbu_0, # of connection points: 6
#     Node 23, Type 0, BuildingBlock: OJICUG_clean_sbu_0, # of connection points: 6
#     Edge 24, Type (0, 0), BuildingBlock: XIVTED_clean_linker_0, # of connection points: 2
#     Edge 25, Type (0, 0), BuildingBlock: XIVTED_clean_linker_0, # of connection points: 2
#     Edge 26, Type (0, 0), BuildingBlock: XIVTED_clean_linker_0, # of connection points: 2
#     Edge 27, Type (0, 0), BuildingBlock: XIVTED_clean_linker_0, # of connection points: 2
#     Edge 28, Type (0, 0), BuildingBlock: XIVTED_clean_linker_0, # of connection points: 2
#     Edge 29, Type (0, 0), BuildingBlock: XIVTED_clean_linker_0, # of connection points: 2
#     Edge 30, Type (0, 0), BuildingBlock: XIVTED_clean_linker_0, # of connection points: 2
#     Edge 31, Type (0, 0), BuildingBlock: XIVTED_clean_linker_0, # of connection points: 2
#     Edge 32, Type (0, 0), BuildingBlock: XIVTED_clean_linker_0, # of connection points: 2
#     Edge 33, Type (0, 0), BuildingBlock: XIVTED_clean_linker_0, # of connection points: 2
#     Edge 34, Type (0, 0), BuildingBlock: XIVTED_clean_linker_0, # of connection points: 2
#     Edge 35, Type (0, 0), BuildingBlock: XIVTED_clean_linker_0, # of connection points: 2
#     Edge 36, Type (0, 0), BuildingBlock: XIVTED_clean_linker_0, # of connection points: 2
#     Edge 37, Type (0, 0), BuildingBlock: XIVTED_clean_linker_0, # of connection points: 2
#     Edge 38, Type (0, 0), BuildingBlock: XIVTED_clean_linker_0, # of connection points: 2
#     Edge 39, Type (0, 0), BuildingBlock: XIVTED_clean_linker_0, # of connection points: 2
#     Edge 40, Type (0, 0), BuildingBlock: XIVTED_clean_linker_0, # of connection points: 2
#     Edge 41, Type (0, 0), BuildingBlock: XIVTED_clean_linker_0, # of connection points: 2
#     Edge 42, Type (0, 0), BuildingBlock: XIVTED_clean_linker_0, # of connection points: 2
#     Edge 43, Type (0, 0), BuildingBlock: XIVTED_clean_linker_0, # of connection points: 2
#     Edge 44, Type (0, 0), BuildingBlock: XIVTED_clean_linker_0, # of connection points: 2
#     Edge 45, Type (0, 0), BuildingBlock: XIVTED_clean_linker_0, # of connection points: 2
#     Edge 46, Type (0, 0), BuildingBlock: XIVTED_clean_linker_0, # of connection points: 2
#     Edge 47, Type (0, 0), BuildingBlock: XIVTED_clean_linker_0, # of connection points: 2
#     Edge 48, Type (0, 0), BuildingBlock: XIVTED_clean_linker_0, # of connection points: 2
#     Edge 49, Type (0, 0), BuildingBlock: XIVTED_clean_linker_0, # of connection points: 2
#     Edge 50, Type (0, 0), BuildingBlock: XIVTED_clean_linker_0, # of connection points: 2
#     Edge 51, Type (0, 0), BuildingBlock: XIVTED_clean_linker_0, # of connection points: 2
#     Edge 52, Type (0, 0), BuildingBlock: XIVTED_clean_linker_0, # of connection points: 2
#     Edge 53, Type (0, 0), BuildingBlock: XIVTED_clean_linker_0, # of connection points: 2
#     Edge 54, Type (0, 0), BuildingBlock: XIVTED_clean_linker_0, # of connection points: 2
#     Edge 55, Type (0, 0), BuildingBlock: XIVTED_clean_linker_0, # of connection points: 2
#     Edge 56, Type (0, 0), BuildingBlock: XIVTED_clean_linker_0, # of connection points: 2
#     Edge 57, Type (0, 0), BuildingBlock: XIVTED_clean_linker_0, # of connection points: 2
#     Edge 58, Type (0, 0), BuildingBlock: XIVTED_clean_linker_0, # of connection points: 2
#     Edge 59, Type (0, 0), BuildingBlock: XIVTED_clean_linker_0, # of connection points: 2
#     Edge 60, Type (0, 0), BuildingBlock: XIVTED_clean_linker_0, # of connection points: 2
#     Edge 61, Type (0, 0), BuildingBlock: XIVTED_clean_linker_0, # of connection points: 2
#     Edge 62, Type (0, 0), BuildingBlock: XIVTED_clean_linker_0, # of connection points: 2
#     Edge 63, Type (0, 0), BuildingBlock: XIVTED_clean_linker_0, # of connection points: 2
#     Edge 64, Type (0, 0), BuildingBlock: XIVTED_clean_linker_0, # of connection points: 2
#     Edge 65, Type (0, 0), BuildingBlock: XIVTED_clean_linker_0, # of connection points: 2
#     Edge 66, Type (0, 0), BuildingBlock: XIVTED_clean_linker_0, # of connection points: 2
#     Edge 67, Type (0, 0), BuildingBlock: XIVTED_clean_linker_0, # of connection points: 2
#     Edge 68, Type (0, 0), BuildingBlock: XIVTED_clean_linker_0, # of connection points: 2
#     Edge 69, Type (0, 0), BuildingBlock: XIVTED_clean_linker_0, # of connection points: 2
#     Edge 70, Type (0, 0), BuildingBlock: XIVTED_clean_linker_0, # of connection points: 2
#     Edge 71, Type (0, 0), BuildingBlock: XIVTED_clean_linker_0, # of connection points: 2
#     Edge 72, Type (0, 0), BuildingBlock: XIVTED_clean_linker_0, # of connection points: 2
#     Edge 73, Type (0, 0), BuildingBlock: XIVTED_clean_linker_0, # of connection points: 2
#     Edge 74, Type (0, 0), BuildingBlock: XIVTED_clean_linker_0, # of connection points: 2
#     Edge 75, Type (0, 0), BuildingBlock: XIVTED_clean_linker_0, # of connection points: 2
#     Edge 76, Type (0, 0), BuildingBlock: XIVTED_clean_linker_0, # of connection points: 2
#     Edge 77, Type (0, 0), BuildingBlock: XIVTED_clean_linker_0, # of connection points: 2
#     Edge 78, Type (0, 0), BuildingBlock: XIVTED_clean_linker_0, # of connection points: 2
#     Edge 79, Type (0, 0), BuildingBlock: XIVTED_clean_linker_0, # of connection points: 2
#     Edge 80, Type (0, 0), BuildingBlock: XIVTED_clean_linker_0, # of connection points: 2
#     Edge 81, Type (0, 0), BuildingBlock: XIVTED_clean_linker_0, # of connection points: 2
#     Edge 82, Type (0, 0), BuildingBlock: XIVTED_clean_linker_0, # of connection points: 2
#     Edge 83, Type (0, 0), BuildingBlock: XIVTED_clean_linker_0, # of connection points: 2
#     Edge 84, Type (0, 0), BuildingBlock: XIVTED_clean_linker_0, # of connection points: 2
#     Edge 85, Type (0, 0), BuildingBlock: XIVTED_clean_linker_0, # of connection points: 2
#     Edge 86, Type (0, 0), BuildingBlock: XIVTED_clean_linker_0, # of connection points: 2
#     Edge 87, Type (0, 0), BuildingBlock: XIVTED_clean_linker_0, # of connection points: 2
#     Edge 88, Type (0, 0), BuildingBlock: XIVTED_clean_linker_0, # of connection points: 2
#     Edge 89, Type (0, 0), BuildingBlock: XIVTED_clean_linker_0, # of connection points: 2
#     Edge 90, Type (0, 0), BuildingBlock: XIVTED_clean_linker_0, # of connection points: 2
#     Edge 91, Type (0, 0), BuildingBlock: XIVTED_clean_linker_0, # of connection points: 2
#     Edge 92, Type (0, 0), BuildingBlock: XIVTED_clean_linker_0, # of connection points: 2
#     Edge 93, Type (0, 0), BuildingBlock: XIVTED_clean_linker_0, # of connection points: 2
#     Edge 94, Type (0, 0), BuildingBlock: XIVTED_clean_linker_0, # of connection points: 2
#     Edge 95, Type (0, 0), BuildingBlock: XIVTED_clean_linker_0, # of connection points: 2
# Relax obj value: 0.527
# Max RMSD: 0.261
# Mean RMSD: 0.261
data_MOF--net-lcv-e--node1-OJICUG_clean_sbu_0--edge1-XIVTED_clean_linker_0
_symmetry_space_group_name_H-M    P1
_symmetry_Int_Tables_number       1
_symmetry_cell_setting            triclinic
loop_
_symmetry_equiv_pos_as_xyz
'x, y, z'
_cell_length_a     53.006987
_cell_length_b     53.05595
_cell_length_c     52.992235
_cell_angle_alpha  89.916793
_cell_angle_beta   90.039864
_cell_angle_gamma 89.974579
loop_
_atom_site_label
_atom_site_type_symbol
_atom_site_fract_x
_atom_site_fract_y
_atom_site_fract_z
_atom_type_partial_charge
Sc0 Sc 0.04118 0.14347 0.25096 0.0
Sc1 Sc 0.02301 0.11324 0.19664 0.0
Sc2 Sc 0.97944 0.12424 0.24392 0.0
O3 O 0.0139 0.12784 0.22965 0.0
C4 C 0.01411 0.11675 0.29124 0.0
C5 C 0.06426 0.09352 0.23507 0.0
C6 C 0.98801 0.07026 0.21925 0.0
C7 C 0.05855 0.15836 0.1969 0.0
C8 C 0.99845 0.18167 0.25343 0.0
C9 C 0.96776 0.13656 0.18541 0.0
O10 O 0.02079 0.13858 0.2852 0.0
O11 O 0.05852 0.09958 0.2124 0.0
O12 O 0.97464 0.08571 0.23183 0.0
O13 O 0.06507 0.15262 0.21922 0.0
O14 O 0.98227 0.16382 0.25658 0.0
O15 O 0.98853 0.12631 0.17876 0.0
O16 O 0.02155 0.17796 0.24765 0.0
O17 O 0.03961 0.14848 0.18617 0.0
O18 O 0.96142 0.13865 0.20878 0.0
O19 O 0.05791 0.10676 0.25401 0.0
O20 O 0.99731 0.10632 0.27764 0.0
O21 O 0.00686 0.07717 0.20606 0.0
Sc22 Sc 0.13614 0.79631 0.49333 0.0
Sc23 Sc 0.17205 0.74063 0.49034 0.0
Sc24 Sc 0.1358 0.75487 0.54275 0.0
O25 O 0.14854 0.76461 0.5087 0.0
C26 C 0.15243 0.81194 0.54974 0.0
C27 C 0.19353 0.79324 0.47606 0.0
C28 C 0.19274 0.73856 0.54439 0.0
C29 C 0.133 0.75516 0.44863 0.0
C30 C 0.08693 0.78259 0.52282 0.0
C31 C 0.12911 0.70886 0.50711 0.0
O32 O 0.14261 0.81727 0.52827 0.0
O33 O 0.19382 0.76963 0.4727 0.0
O34 O 0.17037 0.73452 0.55225 0.0
O35 O 0.12912 0.777 0.45802 0.0
O36 O 0.10026 0.77408 0.54072 0.0
O37 O 0.15294 0.70966 0.50775 0.0
O38 O 0.09667 0.78911 0.50191 0.0
O39 O 0.14741 0.73868 0.45843 0.0
O40 O 0.11705 0.72349 0.52201 0.0
O41 O 0.17452 0.80537 0.48421 0.0
O42 O 0.1535 0.7892 0.55829 0.0
O43 O 0.19737 0.74307 0.52136 0.0
Sc44 Sc 0.54925 0.93438 0.6515 0.0
Sc45 Sc 0.49798 0.90183 0.67641 0.0
Sc46 Sc 0.54689 0.92074 0.71515 0.0
O47 O 0.53049 0.91944 0.68139 0.0
C48 C 0.59165 0.9105 0.6779 0.0
C49 C 0.53676 0.88049 0.63438 0.0
C50 C 0.52179 0.8662 0.7181 0.0
C51 C 0.49441 0.94403 0.63538 0.0
C52 C 0.55343 0.97631 0.68972 0.0
C53 C 0.48809 0.93267 0.72812 0.0
O54 O 0.58489 0.93179 0.67008 0.0
O55 O 0.51489 0.88153 0.64475 0.0
O56 O 0.53637 0.88315 0.72668 0.0
O57 O 0.51679 0.94021 0.62834 0.0
O58 O 0.55898 0.95997 0.70687 0.0
O59 O 0.48086 0.92039 0.70865 0.0
O60 O 0.54485 0.97022 0.66816 0.0
O61 O 0.48493 0.93323 0.65447 0.0
O62 O 0.51174 0.93588 0.73332 0.0
O63 O 0.55314 0.89791 0.6358 0.0
O64 O 0.57958 0.90148 0.69665 0.0
O65 O 0.50758 0.86972 0.69913 0.0
Sc66 Sc 0.3748 0.21957 0.01666 0.0
Sc67 Sc 0.37717 0.17281 0.97138 0.0
Sc68 Sc 0.38644 0.15812 0.03443 0.0
O69 O 0.38046 0.18396 0.0068 0.0
C70 C 0.42339 0.19899 0.04825 0.0
C71 C 0.40519 0.22679 0.96467 0.0
C72 C 0.41844 0.13653 0.99162 0.0
C73 C 0.33539 0.21449 0.97126 0.0
C74 C 0.34782 0.18878 0.05906 0.0
C75 C 0.34223 0.13714 1.00456 0.0
O76 O 0.40615 0.21568 0.04418 0.0
O77 O 0.39755 0.20534 0.9567 0.0
O78 O 0.40461 0.13115 0.01028 0.0
O79 O 0.34568 0.22629 0.98941 0.0
O80 O 0.37018 0.18174 0.06254 0.0
O81 O 0.35482 0.14053 0.98417 0.0
O82 O 0.34431 0.20522 0.04188 0.0
O83 O 0.34239 0.19266 0.96424 0.0
O84 O 0.35052 0.14287 0.02618 0.0
O85 O 0.40128 0.23417 0.98757 0.0
O86 O 0.42116 0.17596 0.04187 0.0
O87 O 0.41266 0.15372 0.97596 0.0
Sc88 Sc 0.04001 0.80571 0.2404 0.0
Sc89 Sc 0.02899 0.8446 0.29258 0.0
Sc90 Sc 0.98353 0.83856 0.24745 0.0
O91 O 0.01756 0.82898 0.26068 0.0
C92 C 0.02263 0.84621 0.20328 0.0
C93 C 0.07799 0.84714 0.25703 0.0
C94 C 0.99913 0.89019 0.27094 0.0
C95 C 0.05022 0.78917 0.29706 0.0
C96 C 0.98737 0.78125 0.23455 0.0
C97 C 0.97214 0.8265 0.30459 0.0
O98 O 0.02715 0.82274 0.20548 0.0
O99 O 0.06605 0.85143 0.27743 0.0
O100 O 0.98164 0.87533 0.26446 0.0
O101 O 0.05489 0.78695 0.2736 0.0
O102 O 0.97849 0.80267 0.2284 0.0
O103 O 0.99231 0.83846 0.31043 0.0
O104 O 0.01029 0.77847 0.24086 0.0
O105 O 0.03934 0.80826 0.30663 0.0
O106 O 0.96593 0.82236 0.28148 0.0
O107 O 0.07061 0.832 0.24008 0.0
O108 O 1.00505 0.8563 0.21645 0.0
O109 O 0.01998 0.88212 0.27943 0.0
Sc110 Sc 0.37001 0.79972 0.52107 0.0
Sc111 Sc 0.40985 0.84807 0.50374 0.0
Sc112 Sc 0.39804 0.8368 0.5668 0.0
O113 O 0.39203 0.82803 0.53097 0.0
C114 C 0.33959 0.82149 0.56718 0.0
C115 C 0.355 0.85024 0.48678 0.0
C116 C 0.39852 0.88877 0.54106 0.0
C117 C 0.41242 0.79701 0.48105 0.0
C118 C 0.39846 0.77748 0.57186 0.0
C119 C 0.45086 0.83062 0.53912 0.0
O120 O 0.34015 0.81196 0.54518 0.0
O121 O 0.37462 0.86277 0.49254 0.0
O122 O 0.38764 0.87489 0.5572 0.0
O123 O 0.40092 0.78501 0.49825 0.0
O124 O 0.40657 0.7992 0.57779 0.0
O125 O 0.44373 0.83141 0.51629 0.0
O126 O 0.38445 0.77398 0.55214 0.0
O127 O 0.4052 0.8191 0.47606 0.0
O128 O 0.43817 0.84032 0.55739 0.0
O129 O 0.35266 0.82625 0.49167 0.0
O130 O 0.35903 0.83031 0.57835 0.0
O131 O 0.41637 0.87985 0.52807 0.0
Sc132 Sc 0.46903 0.10324 0.82883 0.0
Sc133 Sc 0.5344 0.10803 0.82362 0.0
Sc134 Sc 0.49349 0.15213 0.79414 0.0
O135 O 0.4994 0.12065 0.81493 0.0
C136 C 0.44814 0.11929 0.77388 0.0
C137 C 0.50278 0.05988 0.80554 0.0
C138 C 0.5425 0.1292 0.76802 0.0
C139 C 0.50802 0.08941 0.87277 0.0
C140 C 0.45731 0.15899 0.83952 0.0
C141 C 0.53639 0.16716 0.83627 0.0
O142 O 0.44482 0.11227 0.79668 0.0
O143 O 0.52388 0.07009 0.81145 0.0
O144 O 0.52395 0.14438 0.76794 0.0
O145 O 0.48649 0.0891 0.86245 0.0
O146 O 0.46068 0.16218 0.81605 0.0
O147 O 0.54521 0.1448 0.83741 0.0
O148 O 0.46032 0.13744 0.84959 0.0
O149 O 0.5271 0.09873 0.86208 0.0
O150 O 0.51818 0.17329 0.82123 0.0
O151 O 0.48122 0.07019 0.80933 0.0
O152 O 0.46759 0.13233 0.7677 0.0
O153 O 0.54771 0.11523 0.78665 0.0
Sc154 Sc 0.16961 0.24979 0.00752 0.0
Sc155 Sc 0.1309 0.19842 0.99368 0.0
Sc156 Sc 0.1265 0.2518 0.95758 0.0
O157 O 0.14253 0.23363 0.98667 0.0
C158 C 0.12464 0.29033 1.00475 0.0
C159 C 0.14364 0.21738 0.04925 0.0
C160 C 0.0804 0.22493 0.98317 0.0
C161 C 0.19016 0.19433 0.9948 0.0
C162 C 0.18193 0.27329 0.95426 0.0
C163 C 0.13815 0.19777 0.93601 0.0
O164 O 0.14654 0.28326 0.01209 0.0
O165 O 0.13629 0.20065 0.03384 0.0
O166 O 0.09034 0.23331 0.96299 0.0
O167 O 0.1934 0.21616 1.0046 0.0
O168 O 0.15944 0.27278 0.94626 0.0
O169 O 0.12445 0.19014 0.95415 0.0
O170 O 0.18851 0.26399 0.97524 0.0
O171 O 0.1686 0.18568 0.98862 0.0
O172 O 0.14132 0.2215 0.93276 0.0
O173 O 0.15392 0.23774 0.04245 0.0
O174 O 0.11392 0.28106 0.98493 0.0
O175 O 0.09312 0.21246 0.99924 0.0
Sc176 Sc 0.15834 0.0488 0.1128 0.0
Sc177 Sc 0.14336 0.99632 0.0765 0.0
Sc178 Sc 0.19865 0.99731 0.11304 0.0
O179 O 0.1671 0.01377 0.10105 0.0
C180 C 0.21494 0.05539 0.09696 0.0
C181 C 0.14528 0.0505 0.05768 0.0
C182 C 0.1965 0.97784 0.05577 0.0
C183 C 0.10908 0.01906 0.11984 0.0
C184 C 0.18856 0.03016 0.16114 0.0
C185 C 0.1542 0.95398 0.11745 0.0
O186 O 0.19217 0.06334 0.09622 0.0
O187 O 0.14786 0.0278 0.05105 0.0
O188 O 0.20836 0.98382 0.07574 0.0
O189 O 0.12607 0.03279 0.1297 0.0
O190 O 0.19414 0.00904 0.1515 0.0
O191 O 0.14061 0.96382 0.10024 0.0
O192 O 0.17754 0.04735 0.14868 0.0
O193 O 0.11047 0.01039 0.09736 0.0
O194 O 0.17603 0.96292 0.12375 0.0
O195 O 0.13658 0.05507 0.07933 0.0
O196 O 0.22067 0.03264 0.10396 0.0
O197 O 0.1727 0.9797 0.05397 0.0
Sc198 Sc 0.18156 0.97341 0.39525 0.0
Sc199 Sc 0.23944 0.97398 0.36286 0.0
Sc200 Sc 0.21816 0.02735 0.39408 0.0
O201 O 0.21217 0.99162 0.38333 0.0
C202 C 0.16073 0.02743 0.37546 0.0
C203 C 0.19036 0.94882 0.34135 0.0
C204 C 0.23697 0.02523 0.33661 0.0
C205 C 0.22806 0.93555 0.40572 0.0
C206 C 0.18908 0.00827 0.44306 0.0
C207 C 0.26843 0.998 0.40395 0.0
O208 O 0.15773 1.00466 0.38305 0.0
O209 O 0.21414 0.95046 0.34225 0.0
O210 O 0.23627 0.03662 0.35786 0.0
O211 O 0.20491 0.94212 0.40783 0.0
O212 O 0.19996 0.02508 0.43007 0.0
O213 O 0.26807 0.99631 0.38024 0.0
O214 O 0.18323 0.98696 0.43389 0.0
O215 O 0.24368 0.94578 0.39077 0.0
O216 O 0.25165 0.01183 0.41424 0.0
O217 O 0.17591 0.9578 0.35822 0.0
O218 O 0.18206 0.03901 0.37689 0.0
O219 O 0.23535 1.00151 0.33453 0.0
Sc220 Sc 0.31018 0.98488 0.58755 0.0
Sc221 Sc 0.30372 0.04946 0.5935 0.0
Sc222 Sc 0.27559 0.00827 0.63706 0.0
O223 O 0.29677 0.01425 0.60655 0.0
C224 C 0.25785 0.96061 0.60598 0.0
C225 C 0.29624 0.01692 0.54329 0.0
C226 C 0.24533 0.04854 0.60434 0.0
C227 C 0.35438 0.02593 0.58229 0.0
C228 C 0.3223 0.97018 0.64269 0.0
C229 C 0.31062 0.05589 0.65273 0.0
O230 O 0.27973 0.95896 0.59633 0.0
O231 O 0.30402 0.03698 0.55405 0.0
O232 O 0.24766 0.03596 0.62482 0.0
O233 O 0.34331 0.00575 0.57537 0.0
O234 O 0.30111 0.97919 0.64982 0.0
O235 O 0.30787 0.06599 0.63103 0.0
O236 O 0.33092 0.97268 0.62037 0.0
O237 O 0.34323 0.04317 0.59451 0.0
O238 O 0.30002 0.03484 0.65807 0.0
O239 O 0.28836 0.99855 0.55643 0.0
O240 O 0.2513 0.97982 0.61894 0.0
O241 O 0.26409 0.0555 0.59111 0.0
Sc242 Sc 0.28389 0.01965 0.84067 0.0
Sc243 Sc 0.33298 0.0364 0.88037 0.0
Sc244 Sc 0.31101 0.07827 0.83478 0.0
O245 O 0.30904 0.04459 0.8522 0.0
C246 C 0.30117 0.04208 0.79032 0.0
C247 C 0.34179 0.99575 0.83722 0.0
C248 C 0.36644 0.06698 0.84702 0.0
C249 C 0.29023 0.99829 0.89663 0.0
C250 C 0.2527 0.0711 0.84713 0.0
C251 C 0.30352 0.08545 0.89294 0.0
O252 O 0.28274 0.03349 0.80268 0.0
O253 O 0.35026 0.00887 0.85579 0.0
O254 O 0.35114 0.07486 0.83066 0.0
O255 O 0.27755 1.00176 0.87672 0.0
O256 O 0.27028 0.0826 0.83528 0.0
O257 O 0.31156 0.0639 0.90028 0.0
O258 O 0.25401 0.04723 0.85191 0.0
O259 O 0.31186 0.00775 0.89938 0.0
O260 O 0.30985 0.09572 0.87194 0.0
O261 O 0.31809 0.99596 0.83037 0.0
O262 O 0.31361 0.06063 0.79852 0.0
O263 O 0.35903 0.06489 0.86942 0.0
Sc264 Sc 0.56618 0.34436 0.05409 0.0
Sc265 Sc 0.58241 0.34434 0.99079 0.0
Sc266 Sc 0.61469 0.30615 0.03131 0.0
O267 O 0.58691 0.33038 0.02548 0.0
C268 C 0.62181 0.34832 0.07553 0.0
C269 C 0.58242 0.3915 0.02431 0.0
C270 C 0.64083 0.33254 0.98813 0.0
C271 C 0.52654 0.34409 0.01342 0.0
C272 C 0.57354 0.2869 0.06982 0.0
C273 C 0.58493 0.28752 0.97888 0.0
O274 O 0.59919 0.35602 0.07402 0.0
O275 O 0.59354 0.37988 0.00641 0.0
O276 O 0.64081 0.32931 0.01158 0.0
O277 O 0.53199 0.33459 0.03471 0.0
O278 O 0.5906 0.28215 0.05361 0.0
O279 O 0.57245 0.30802 0.97689 0.0
O280 O 0.56493 0.30895 0.07351 0.0
O281 O 0.54314 0.35277 0.99832 0.0
O282 O 0.60193 0.28428 0.99637 0.0
O283 O 0.56537 0.38156 0.03783 0.0
O284 O 0.62963 0.32862 0.06369 0.0
O285 O 0.62026 0.33577 0.97638 0.0
Sc286 Sc 0.97789 0.43151 0.13157 0.0
Sc287 Sc 0.94019 0.3945 0.16967 0.0
Sc288 Sc 1.00144 0.40668 0.18808 0.0
O289 O 0.97373 0.41109 0.16358 0.0
C290 C 0.02659 0.39602 0.1326 0.0
C291 C 0.95671 0.37782 0.11744 0.0
C292 C 0.97298 0.35679 0.20152 0.0
C293 C 0.92435 0.44268 0.14701 0.0
C294 C 0.01272 0.46283 0.16858 0.0
C295 C 0.94988 0.42452 0.21916 0.0
O296 O 0.01129 0.41106 0.12172 0.0
O297 O 0.9498 0.37108 0.1394 0.0
O298 O 0.99334 0.36796 0.19612 0.0
O299 O 0.94492 0.45371 0.14237 0.0
O300 O 0.0149 0.44454 0.18387 0.0
O301 O 0.93462 0.41863 0.20141 0.0
O302 O 0.99926 0.4617 0.14876 0.0
O303 O 0.92368 0.41945 0.14276 0.0
O304 O 0.97406 0.42007 0.21827 0.0
O305 O 0.95874 0.401 0.11067 0.0
O306 O 0.02652 0.39256 0.1568 0.0
O307 O 0.95168 0.3658 0.19578 0.0
Sc308 Sc 0.87457 0.70197 0.49972 0.0
Sc309 Sc 0.91752 0.67512 0.46012 0.0
Sc310 Sc 0.92375 0.66738 0.52495 0.0
O311 O 0.90577 0.68229 0.49516 0.0
C312 C 0.91254 0.72226 0.53964 0.0
C313 C 0.90607 0.73041 0.45367 0.0
C314 C 0.96859 0.68015 0.4927 0.0
C315 C 0.85784 0.67774 0.45229 0.0
C316 C 0.86773 0.6549 0.539 0.0
C317 C 0.91736 0.62423 0.48755 0.0
O318 O 0.89584 0.72745 0.52317 0.0
O319 O 0.92361 0.71408 0.45329 0.0
O320 O 0.95806 0.68489 0.51359 0.0
O321 O 0.85539 0.67621 0.47586 0.0
O322 O 0.89068 0.64847 0.53724 0.0
O323 O 0.90974 0.63643 0.46826 0.0
O324 O 0.85975 0.67617 0.53019 0.0
O325 O 0.87976 0.68025 0.44263 0.0
O326 O 0.93283 0.63414 0.50301 0.0
O327 O 0.88587 0.72748 0.46715 0.0
O328 O 0.9151 0.69988 0.54795 0.0
O329 O 0.9564 0.67184 0.47353 0.0
Sc330 Sc 0.97308 0.58688 0.33762 0.0
Sc331 Sc 0.03777 0.579 0.334 0.0
Sc332 Sc 0.00822 0.63097 0.30673 0.0
O333 O 0.00669 0.59838 0.3248 0.0
C334 C 0.96217 0.59649 0.28177 0.0
C335 C 1.0016 0.53524 0.3298 0.0
C336 C 0.04791 0.59685 0.27739 0.0
C337 C 0.00822 0.58859 0.38348 0.0
C338 C 0.96186 0.64506 0.33458 0.0
C339 C 0.05471 0.63536 0.34655 0.0
O340 O 0.96209 0.58016 0.29958 0.0
O341 O 0.02141 0.54456 0.32036 0.0
O342 O 0.03213 0.61495 0.27805 0.0
O343 O 0.98736 0.5962 0.37405 0.0
O344 O 0.98533 0.64819 0.33509 0.0
O345 O 0.05617 0.61158 0.34873 0.0
O346 O 0.95333 0.62283 0.33317 0.0
O347 O 0.0227 0.57327 0.37183 0.0
O348 O 0.03955 0.64583 0.33076 0.0
O349 O 0.98583 0.54843 0.34214 0.0
O350 O 0.97524 0.61722 0.28293 0.0
O351 O 0.05362 0.58373 0.29677 0.0
Sc352 Sc 0.54233 0.37098 0.81555 0.0
Sc353 Sc 0.48287 0.39783 0.81545 0.0
Sc354 Sc 0.4974 0.34953 0.77386 0.0
O355 O 0.50801 0.37275 0.80122 0.0
C356 C 0.55411 0.36397 0.75624 0.0
C357 C 0.52882 0.42907 0.80064 0.0
C358 C 0.46652 0.39789 0.76184 0.0
C359 C 0.51134 0.38659 0.86277 0.0
C360 C 0.5278 0.31309 0.81021 0.0
C361 C 0.4586 0.34527 0.82268 0.0
O362 O 0.56064 0.36834 0.77901 0.0
O363 O 0.50488 0.42697 0.79875 0.0
O364 O 0.48197 0.38182 0.7534 0.0
O365 O 0.52643 0.37115 0.85279 0.0
O366 O 0.51407 0.31712 0.79097 0.0
O367 O 0.464 0.36676 0.83194 0.0
O368 O 0.54014 0.33045 0.82133 0.0
O369 O 0.50261 0.40461 0.85002 0.0
O370 O 0.46483 0.33889 0.79977 0.0
O371 O 0.54344 0.412 0.81005 0.0
O372 O 0.5315 0.35723 0.75055 0.0
O373 O 0.45815 0.39475 0.7838 0.0
Sc374 Sc 0.51957 0.61977 0.68266 0.0
Sc375 Sc 0.56124 0.6507 0.72303 0.0
Sc376 Sc 0.50226 0.63368 0.74482 0.0
O377 O 0.52733 0.63443 0.71704 0.0
C378 C 0.46988 0.6503 0.69404 0.0
C379 C 0.54271 0.67423 0.67344 0.0
C380 C 0.52782 0.68576 0.75661 0.0
C381 C 0.57391 0.60413 0.69322 0.0
C382 C 0.49285 0.57985 0.71919 0.0
C383 C 0.55728 0.61571 0.76942 0.0
O384 O 0.48547 0.64025 0.67899 0.0
O385 O 0.55095 0.67757 0.69564 0.0
O386 O 0.50809 0.67275 0.75337 0.0
O387 O 0.55238 0.59714 0.68596 0.0
O388 O 0.49284 0.59453 0.73818 0.0
O389 O 0.57014 0.62379 0.75092 0.0
O390 O 0.50053 0.58679 0.69751 0.0
O391 O 0.57881 0.62734 0.69521 0.0
O392 O 0.53315 0.61979 0.77165 0.0
O393 O 0.53743 0.65237 0.6646 0.0
O394 O 0.47228 0.64882 0.71833 0.0
O395 O 0.54949 0.67715 0.75151 0.0
Sc396 Sc 0.8482 0.25272 0.00777 0.0
Sc397 Sc 0.85912 0.29885 0.05223 0.0
Sc398 Sc 0.82589 0.24503 0.0683 0.0
O399 O 0.8438 0.26631 0.04243 0.0
C400 C 0.7911 0.24458 0.02197 0.0
C401 C 0.83577 0.31064 0.99719 0.0
C402 C 0.81071 0.29974 0.0846 0.0
C403 C 0.90191 0.27737 0.01674 0.0
C404 C 0.85761 0.20656 0.04337 0.0
C405 C 0.87471 0.26062 0.09519 0.0
O406 O 0.81013 0.23708 0.00916 0.0
O407 O 0.84826 0.31689 0.01688 0.0
O408 O 0.81427 0.27684 0.09067 0.0
O409 O 0.88553 0.26738 1.00242 0.0
O410 O 0.83486 0.21087 0.04887 0.0
O411 O 0.86986 0.28332 0.08874 0.0
O412 O 0.8674 0.21994 0.0259 0.0
O413 O 0.89598 0.28804 0.03748 0.0
O414 O 0.86104 0.24216 0.0884 0.0
O415 O 0.83173 0.28743 0.99139 0.0
O416 O 0.79262 0.24933 0.04555 0.0
O417 O 0.82333 0.31063 0.06733 0.0
Sc418 Sc 0.65553 0.77921 0.47969 0.0
Sc419 Sc 0.67476 0.76708 0.54071 0.0
Sc420 Sc 0.63451 0.72575 0.51009 0.0
O421 O 0.65471 0.757 0.50985 0.0
C422 C 0.5975 0.76142 0.47958 0.0
C423 C 0.65636 0.81768 0.52449 0.0
C424 C 0.62071 0.75781 0.55936 0.0
C425 C 0.71161 0.76806 0.49625 0.0
C426 C 0.66147 0.72315 0.45642 0.0
C427 C 0.67787 0.70907 0.54533 0.0
O428 O 0.61503 0.77581 0.47142 0.0
O429 O 0.67638 0.80605 0.52982 0.0
O430 O 0.61978 0.7375 0.54629 0.0
O431 O 0.69656 0.7835 0.48514 0.0
O432 O 0.64809 0.71345 0.47386 0.0
O433 O 0.67739 0.72992 0.5568 0.0
O434 O 0.66635 0.7469 0.45542 0.0
O435 O 0.70723 0.75969 0.5184 0.0
O436 O 0.66566 0.70537 0.52522 0.0
O437 O 0.6437 0.81032 0.50537 0.0
O438 O 0.60189 0.74297 0.49413 0.0
O439 O 0.63976 0.77254 0.56002 0.0
Sc440 Sc 0.73432 0.45321 0.61171 0.0
Sc441 Sc 0.73223 0.50785 0.64685 0.0
Sc442 Sc 0.67843 0.48667 0.6167 0.0
O443 O 0.71491 0.48228 0.62466 0.0
C444 C 0.69883 0.4649 0.56441 0.0
C445 C 0.76573 0.50632 0.59941 0.0
C446 C 0.69526 0.54179 0.61831 0.0
C447 C 0.7621 0.46079 0.66271 0.0
C448 C 0.68087 0.42881 0.63114 0.0
C449 C 0.68571 0.49461 0.67704 0.0
O450 O 0.71821 0.4553 0.57471 0.0
O451 O 0.75363 0.51938 0.61542 0.0
O452 O 0.68591 0.52433 0.60513 0.0
O453 O 0.75054 0.44625 0.64796 0.0
O454 O 0.66891 0.44911 0.6271 0.0
O455 O 0.7097 0.4953 0.67741 0.0
O456 O 0.70464 0.42645 0.62622 0.0
O457 O 0.76316 0.48412 0.65825 0.0
O458 O 0.67262 0.49605 0.65661 0.0
O459 O 0.76365 0.48184 0.59776 0.0
O460 O 0.68222 0.47706 0.57683 0.0
O461 O 0.70532 0.53732 0.63947 0.0
Sc462 Sc 0.68264 0.53135 0.90518 0.0
Sc463 Sc 0.6907 0.46952 0.88554 0.0
Sc464 Sc 0.74084 0.51105 0.88424 0.0
O465 O 0.70483 0.50336 0.89151 0.0
C466 C 0.7105 0.55825 0.86633 0.0
C467 C 0.6517 0.51006 0.86138 0.0
C468 C 0.72828 0.47277 0.83969 0.0
C469 C 0.66139 0.48708 0.93335 0.0
C470 C 0.72955 0.53103 0.93872 0.0
C471 C 0.74525 0.45611 0.90952 0.0
O472 O 0.70692 0.55938 0.88976 0.0
O473 O 0.65826 0.48753 0.86746 0.0
O474 O 0.74254 0.48809 0.85128 0.0
O475 O 0.65572 0.50709 0.92196 0.0
O476 O 0.74271 0.53393 0.91864 0.0
O477 O 0.72309 0.45056 0.9018 0.0
O478 O 0.70559 0.52949 0.93808 0.0
O479 O 0.67558 0.47062 0.92339 0.0
O480 O 0.75466 0.47836 0.90674 0.0
O481 O 0.66012 0.52986 0.872 0.0
O482 O 0.72537 0.54094 0.85875 0.0
O483 O 0.707 0.4657 0.84831 0.0
Sc484 Sc 0.76425 0.53319 0.15118 0.0
Sc485 Sc 0.74439 0.49199 0.19824 0.0
Sc486 Sc 0.80048 0.48245 0.1646 0.0
O487 O 0.76988 0.50241 0.17208 0.0
C488 C 0.79105 0.50027 0.11073 0.0
C489 C 0.71627 0.49813 0.14724 0.0
C490 C 0.75963 0.43949 0.17564 0.0
C491 C 0.7412 0.55025 0.20245 0.0
C492 C 0.81968 0.5392 0.16973 0.0
C493 C 0.79733 0.48333 0.22444 0.0
O494 O 0.78781 0.52193 0.12004 0.0
O495 O 0.71451 0.5 0.17124 0.0
O496 O 0.78117 0.44708 0.16838 0.0
O497 O 0.74054 0.55208 0.1786 0.0
O498 O 0.82306 0.51678 0.16139 0.0
O499 O 0.77335 0.48384 0.22633 0.0
O500 O 0.79782 0.54974 0.1691 0.0
O501 O 0.7445 0.52926 0.21333 0.0
O502 O 0.80907 0.48296 0.20351 0.0
O503 O 0.73291 0.5109 0.13501 0.0
O504 O 0.79209 0.48089 0.12467 0.0
O505 O 0.74307 0.45367 0.18544 0.0
Sc506 Sc 0.77929 0.529 0.3584 0.0
Sc507 Sc 0.81463 0.49257 0.39999 0.0
Sc508 Sc 0.82092 0.55774 0.39863 0.0
O509 O 0.8041 0.52662 0.38612 0.0
C510 C 0.81351 0.57258 0.34084 0.0
C511 C 0.81846 0.48439 0.34184 0.0
C512 C 0.86431 0.51974 0.39209 0.0
C513 C 0.75668 0.48653 0.39337 0.0
C514 C 0.76585 0.57721 0.39522 0.0
C515 C 0.8136 0.52232 0.44808 0.0
O516 O 0.80339 0.55165 0.33559 0.0
O517 O 0.82727 0.48114 0.3638 0.0
O518 O 0.85557 0.54113 0.38568 0.0
O519 O 0.75357 0.50703 0.38132 0.0
O520 O 0.78559 0.57456 0.40883 0.0
O521 O 0.80381 0.5035 0.43709 0.0
O522 O 0.76144 0.56316 0.37581 0.0
O523 O 0.778 0.47563 0.39435 0.0
O524 O 0.82385 0.54068 0.43612 0.0
O525 O 0.79837 0.4975 0.3376 0.0
O526 O 0.81842 0.57908 0.3634 0.0
O527 O 0.85242 0.50563 0.40728 0.0
H528 H 0.04519 0.1972 0.16656 0.0
H529 H 0.128 0.25271 0.08286 0.0
H530 H 0.10936 0.15437 0.19246 0.0
H531 H 0.14675 0.17383 0.07608 0.0
H532 H 0.11182 0.24461 0.12556 0.0
H533 H 0.07236 0.21847 0.13578 0.0
C534 C 0.06515 0.19278 0.16606 0.0
C535 C 0.07523 0.17408 0.18171 0.0
C536 C 0.12005 0.22931 0.11483 0.0
C537 C 0.10598 0.19776 0.14678 0.0
C538 C 0.12927 0.23385 0.09065 0.0
C539 C 0.13816 0.21373 0.07602 0.0
C540 C 0.1203 0.20464 0.12429 0.0
C541 C 0.13952 0.18966 0.08676 0.0
C542 C 0.08062 0.20502 0.14879 0.0
C543 C 0.10109 0.16879 0.18057 0.0
N544 N 0.13048 0.18571 0.11034 0.0
N545 N 0.11554 0.18005 0.16271 0.0
H546 H 0.08284 0.75944 0.44233 0.0
H547 H 0.09555 0.76442 0.29738 0.0
H548 H 0.15037 0.73464 0.40457 0.0
H549 H 0.02488 0.77045 0.33711 0.0
H550 H 0.11385 0.74309 0.33418 0.0
H551 H 0.05916 0.75348 0.40347 0.0
C552 C 0.09258 0.75261 0.42571 0.0
C553 C 0.11857 0.74829 0.42615 0.0
C554 C 0.0941 0.74832 0.33454 0.0
C555 C 0.09194 0.74203 0.38144 0.0
C556 C 0.08368 0.76041 0.31353 0.0
C557 C 0.05902 0.76982 0.31475 0.0
C558 C 0.07966 0.74597 0.35668 0.0
C559 C 0.04426 0.76409 0.33588 0.0
C560 C 0.07909 0.74898 0.40356 0.0
C561 C 0.13035 0.73867 0.40457 0.0
N562 N 0.05496 0.75297 0.35624 0.0
N563 N 0.11705 0.73654 0.38272 0.0
H564 H 0.56058 0.88038 0.58886 0.0
H565 H 0.46114 0.79456 0.57381 0.0
H566 H 0.52823 0.83097 0.64464 0.0
H567 H 0.49566 0.83813 0.51461 0.0
H568 H 0.50289 0.78393 0.5899 0.0
H569 H 0.55792 0.8466 0.55782 0.0
C570 C 0.55344 0.86215 0.59466 0.0
C571 C 0.54264 0.85877 0.6185 0.0
C572 C 0.50153 0.7955 0.57308 0.0
C573 C 0.53917 0.82045 0.58335 0.0
C574 C 0.47766 0.80186 0.56424 0.0
C575 C 0.47531 0.81925 0.54455 0.0
C576 C 0.52239 0.80921 0.56406 0.0
C577 C 0.49695 0.82639 0.5313 0.0
C578 C 0.55209 0.84275 0.57704 0.0
C579 C 0.53503 0.83463 0.62572 0.0
N580 N 0.51987 0.82206 0.54185 0.0
N581 N 0.53302 0.81636 0.60802 0.0
H582 H 0.46407 0.15628 0.98125 0.0
H583 H 0.54165 0.10577 0.90854 0.0
H584 H 0.42627 0.08568 0.99466 0.0
H585 H 0.47835 0.05583 0.89794 0.0
H586 H 0.53247 0.10695 0.95369 0.0
H587 H 0.50081 0.13365 0.96636 0.0
C588 C 0.46385 0.13585 0.98145 0.0
C589 C 0.44197 0.1227 0.98794 0.0
C590 C 0.52098 0.09521 0.94157 0.0
C591 C 0.48378 0.09641 0.97069 0.0
C592 C 0.5263 0.09442 0.91582 0.0
C593 C 0.50956 0.08212 0.89946 0.0
C594 C 0.49837 0.08443 0.95033 0.0
C595 C 0.49071 0.06685 0.9099 0.0
C596 C 0.48505 0.12277 0.9734 0.0
C597 C 0.4427 0.09636 0.9889 0.0
N598 N 0.48507 0.06906 0.9347 0.0
N599 N 0.46301 0.08398 0.97938 0.0
H600 H 0.11158 0.07519 0.22747 0.0
H601 H 0.11758 0.98064 0.15057 0.0
H602 H 0.0362 0.05339 0.24797 0.0
H603 H 0.06185 0.03628 0.13186 0.0
H604 H 0.1046 0.98235 0.19469 0.0
H605 H 0.11688 0.03502 0.2059 0.0
C606 C 0.09673 0.06122 0.22886 0.0
C607 C 0.07316 0.06772 0.23868 0.0
C608 C 0.09394 0.99276 0.18067 0.0
C609 C 0.07836 0.02289 0.2127 0.0
C610 C 0.10107 0.99151 0.15541 0.0
C611 C 0.091 0.00852 0.1378 0.0
C612 C 0.07627 0.01091 0.18791 0.0
C613 C 0.07026 0.02306 0.14499 0.0
C614 C 0.09963 0.03829 0.2164 0.0
C615 C 0.05446 0.04909 0.23989 0.0
N616 N 0.06399 0.02447 0.1698 0.0
N617 N 0.05681 0.02803 0.22555 0.0
H618 H 0.21734 0.92709 0.45485 0.0
H619 H 0.21928 0.82153 0.50952 0.0
H620 H 0.2613 0.89874 0.39264 0.0
H621 H 0.21987 0.79678 0.43213 0.0
H622 H 0.24819 0.85573 0.49841 0.0
H623 H 0.2286 0.89012 0.47931 0.0
C624 C 0.22961 0.91303 0.44653 0.0
C625 C 0.23748 0.9151 0.42151 0.0
C626 C 0.2425 0.84244 0.48398 0.0
C627 C 0.25068 0.87278 0.44916 0.0
C628 C 0.22606 0.82306 0.49028 0.0
C629 C 0.21643 0.80749 0.47129 0.0
C630 C 0.24764 0.84692 0.4584 0.0
C631 C 0.22629 0.80926 0.44696 0.0
C632 C 0.23661 0.89215 0.46064 0.0
C633 C 0.2542 0.89714 0.41173 0.0
N634 N 0.24083 0.82938 0.44091 0.0
N635 N 0.25954 0.87612 0.42531 0.0
H636 H 0.38357 0.9992 0.54942 0.0
H637 H 0.46603 0.97953 0.65789 0.0
H638 H 0.38786 0.05541 0.60808 0.0
H639 H 0.49226 0.95473 0.58501 0.0
H640 H 0.4415 0.01249 0.63744 0.0
H641 H 0.42783 0.98945 0.55605 0.0
C642 C 0.39407 0.01014 0.56308 0.0
C643 C 0.38184 0.02716 0.57918 0.0
C644 C 0.45299 1.00022 0.62584 0.0
C645 C 0.43206 0.01574 0.5872 0.0
C646 C 0.4665 0.9811 0.6375 0.0
C647 C 0.48024 0.96402 0.62291 0.0
C648 C 0.45253 1.00162 0.59938 0.0
C649 C 0.4812 0.96729 0.5967 0.0
C650 C 0.41943 1.00466 0.56678 0.0
C651 C 0.39642 0.04139 0.59597 0.0
N652 N 0.46683 0.98535 0.58559 0.0
N653 N 0.42071 0.03469 0.60027 0.0
H654 H 0.30588 0.17203 0.99865 0.0
H655 H 0.29472 0.13635 0.89885 0.0
H656 H 0.31725 0.09205 0.0059 0.0
H657 H 0.2674 0.06344 0.9218 0.0
H658 H 0.27305 0.15502 0.93469 0.0
H659 H 0.26589 0.16428 0.97708 0.0
C660 C 0.29941 0.1528 0.99639 0.0
C661 C 0.3153 0.13249 1.00219 0.0
C662 C 0.27116 0.13494 0.93177 0.0
C663 C 0.27091 0.12366 0.97674 0.0
C664 C 0.28396 0.12432 0.91139 0.0
C665 C 0.28521 0.09811 0.90937 0.0
C666 C 0.26174 0.11888 0.95088 0.0
C667 C 0.26915 0.08358 0.9246 0.0
C668 C 0.27652 0.14838 0.98429 0.0
C669 C 0.30596 0.10809 1.0002 0.0
N670 N 0.25831 0.09412 0.94519 0.0
N671 N 0.28435 0.10425 0.98709 0.0
H672 H 0.07922 0.89576 0.24335 0.0
H673 H 0.20978 0.91003 0.31363 0.0
H674 H 0.12687 0.83299 0.2631 0.0
H675 H 0.14574 0.96001 0.31886 0.0
H676 H 0.18853 0.88733 0.27931 0.0
H677 H 0.1139 0.92457 0.25252 0.0
C678 C 0.09746 0.88806 0.24844 0.0
C679 C 0.10045 0.86222 0.25269 0.0
C680 C 0.17948 0.90362 0.28766 0.0
C681 C 0.13941 0.89479 0.26445 0.0
C682 C 0.19142 0.91641 0.30727 0.0
C683 C 0.17904 0.93635 0.31946 0.0
C684 C 0.1553 0.91122 0.28006 0.0
C685 C 0.15552 0.94421 0.3104 0.0
C686 C 0.11712 0.90445 0.25391 0.0
C687 C 0.12409 0.85294 0.25976 0.0
N688 N 0.1443 0.93147 0.29135 0.0
N689 N 0.14266 0.86936 0.26613 0.0
H690 H 0.27845 0.98356 0.50828 0.0
H691 H 0.41768 0.93306 0.522 0.0
H692 H 0.34161 0.03227 0.5232 0.0
H693 H 0.34802 0.89341 0.53585 0.0
H694 H 0.39315 0.96867 0.5046 0.0
H695 H 0.30756 0.95062 0.49561 0.0
C696 C 0.29839 0.98799 0.50727 0.0
C697 C 0.30783 0.0097 0.51902 0.0
C698 C 0.38342 0.95193 0.51108 0.0
C699 C 0.34103 0.9724 0.50423 0.0
C700 C 0.3973 0.93187 0.52129 0.0
C701 C 0.38474 0.91074 0.5311 0.0
C702 C 0.35698 0.95029 0.51003 0.0
C703 C 0.35839 0.90973 0.52928 0.0
C704 C 0.31507 0.96895 0.50032 0.0
C705 C 0.33365 0.01494 0.51595 0.0
N706 N 0.34544 0.92921 0.51902 0.0
N707 N 0.34968 0.99581 0.51014 0.0
H708 H 0.48814 0.0356 0.76095 0.0
H709 H 0.40436 0.04675 0.87592 0.0
H710 H 0.51287 0.01822 0.83547 0.0
H711 H 0.37847 0.05292 0.79896 0.0
H712 H 0.44075 0.02263 0.8612 0.0
H713 H 0.44568 0.02167 0.77174 0.0
C714 C 0.48493 0.02761 0.7795 0.0
C715 C 0.50181 0.03291 0.79921 0.0
C716 C 0.42692 0.02895 0.84754 0.0
C717 C 0.45478 0.01614 0.81152 0.0
C718 C 0.40635 0.04307 0.85592 0.0
C719 C 0.38886 0.05273 0.83855 0.0
C720 C 0.43011 0.02455 0.82156 0.0
C721 C 0.39192 0.04664 0.81295 0.0
C722 C 0.46041 0.02021 0.78584 0.0
C723 C 0.49841 0.01837 0.82103 0.0
N724 N 0.41232 0.03329 0.80521 0.0
N725 N 0.47435 0.01281 0.82794 0.0
H726 H 0.20301 0.15858 0.95976 0.0
H727 H 0.14629 0.10038 0.06884 0.0
H728 H 0.2221 0.18476 0.03408 0.0
H729 H 0.17837 0.04575 0.01765 0.0
H730 H 0.17463 0.13209 0.05194 0.0
H731 H 0.20134 0.1155 0.97573 0.0
C732 C 0.20861 0.15509 0.97913 0.0
C733 C 0.2102 0.17522 0.99632 0.0
C734 C 0.17571 0.11306 0.04462 0.0
C735 C 0.20843 0.12664 0.01444 0.0
C736 C 0.15922 0.09504 0.05395 0.0
C737 C 0.15995 0.07033 0.04472 0.0
C738 C 0.19308 0.10652 0.02579 0.0
C739 C 0.17714 0.06463 0.02527 0.0
C740 C 0.20726 0.13046 0.98831 0.0
C741 C 0.21889 0.16974 0.02064 0.0
N742 N 0.19297 0.08273 0.01619 0.0
N743 N 0.21608 0.14594 0.02956 0.0
H744 H 0.55874 0.43622 0.01584 0.0
H745 H 0.68374 0.46067 0.97126 0.0
H746 H 0.62553 0.40327 0.04816 0.0
H747 H 0.62041 0.50914 0.95502 0.0
H748 H 0.66684 0.45328 0.01324 0.0
H749 H 0.58101 0.47623 0.01159 0.0
C750 C 0.57788 0.43781 0.02285 0.0
C751 C 0.59113 0.41653 0.03082 0.0
C752 C 0.65669 0.46587 1.00073 0.0
C753 C 0.61692 0.46106 0.0248 0.0
C754 C 0.66614 0.46959 0.97657 0.0
C755 C 0.65246 0.48404 0.95925 0.0
C756 C 0.63267 0.4754 0.00691 0.0
C757 C 0.63076 0.49668 0.9675 0.0
C758 C 0.59066 0.46061 0.02058 0.0
C759 C 0.6154 0.41931 0.04063 0.0
N760 N 0.62106 0.49144 0.99054 0.0
N761 N 0.62792 0.44116 0.03678 0.0
H762 H 0.9278 0.48672 0.17521 0.0
H763 H 0.80894 0.44202 0.25409 0.0
H764 H 0.8819 0.42034 0.16421 0.0
H765 H 0.82734 0.51999 0.24729 0.0
H766 H 0.85058 0.43092 0.23788 0.0
H767 H 0.90168 0.49754 0.21219 0.0
C768 C 0.9122 0.47459 0.18036 0.0
C769 C 0.90705 0.45256 0.16655 0.0
C770 C 0.84579 0.45062 0.24032 0.0
C771 C 0.87847 0.46401 0.20935 0.0
C772 C 0.82227 0.45703 0.25032 0.0
C773 C 0.81366 0.4817 0.24675 0.0
C774 C 0.86109 0.46988 0.23025 0.0
C775 C 0.83257 0.5003 0.24613 0.0
C776 C 0.89766 0.48055 0.20163 0.0
C777 C 0.88672 0.43744 0.17424 0.0
N778 N 0.85507 0.49434 0.23526 0.0
N779 N 0.87344 0.44331 0.19518 0.0
H780 H 0.86697 0.62667 0.48797 0.0
H781 H 0.85213 0.49677 0.46922 0.0
H782 H 0.92863 0.57829 0.50972 0.0
H783 H 0.7897 0.54504 0.48771 0.0
H784 H 0.87787 0.51834 0.50035 0.0
H785 H 0.83745 0.59464 0.50033 0.0
C786 C 0.87427 0.60911 0.49545 0.0
C787 C 0.90022 0.60467 0.49697 0.0
C788 C 0.85811 0.52334 0.49888 0.0
C789 C 0.86622 0.56735 0.51136 0.0
C790 C 0.84329 0.51081 0.48113 0.0
C791 C 0.81946 0.52045 0.47494 0.0
C792 C 0.8488 0.54567 0.50955 0.0
C793 C 0.8086 0.53808 0.49115 0.0
C794 C 0.85734 0.59088 0.5031 0.0
C795 C 0.90866 0.58203 0.5077 0.0
N796 N 0.82368 0.55084 0.50737 0.0
N797 N 0.89164 0.56371 0.51374 0.0
H798 H 0.87624 0.52906 0.34329 0.0
H799 H 0.00821 0.49702 0.36336 0.0
H800 H 0.89875 0.48428 0.40745 0.0
H801 H 0.97825 0.51312 0.28981 0.0
H802 H 0.96937 0.47541 0.37427 0.0
H803 H 0.91104 0.51161 0.31923 0.0
C804 C 0.88872 0.51563 0.35237 0.0
C805 C 0.88539 0.50893 0.37771 0.0
C806 C 0.97154 0.48252 0.35522 0.0
C807 C 0.9254 0.48866 0.35023 0.0
C808 C 0.99407 0.49449 0.34881 0.0
C809 C 0.99528 0.50864 0.32651 0.0
C810 C 0.95071 0.48514 0.33899 0.0
C811 C 0.97713 0.50379 0.30797 0.0
C812 C 0.90832 0.5052 0.33845 0.0
C813 C 0.90129 0.49054 0.38816 0.0
N814 N 0.95472 0.49367 0.31505 0.0
N815 N 0.92111 0.48156 0.3746 0.0
H816 H 0.60859 0.53845 0.86037 0.0
H817 H 0.51441 0.47662 0.81391 0.0
H818 H 0.65471 0.48939 0.81508 0.0
H819 H 0.56945 0.43569 0.77052 0.0
H820 H 0.54249 0.5129 0.81473 0.0
H821 H 0.57439 0.53404 0.82981 0.0
C822 C 0.6115 0.52703 0.84369 0.0
C823 C 0.6336 0.51291 0.84078 0.0
C824 C 0.54842 0.49639 0.80442 0.0
C825 C 0.59479 0.50724 0.80608 0.0
C826 C 0.53218 0.47568 0.80386 0.0
C827 C 0.5405 0.45295 0.79341 0.0
C828 C 0.57309 0.49375 0.79483 0.0
C829 C 0.56307 0.45269 0.77987 0.0
C830 C 0.59197 0.52441 0.82618 0.0
C831 C 0.63723 0.49941 0.81851 0.0
N832 N 0.57887 0.47265 0.7814 0.0
N833 N 0.61783 0.49655 0.80219 0.0
H834 H 0.52593 0.67759 0.62444 0.0
H835 H 0.61896 0.77837 0.60687 0.0
H836 H 0.55341 0.72291 0.68629 0.0
H837 H 0.57185 0.75098 0.54655 0.0
H838 H 0.58409 0.77203 0.63627 0.0
H839 H 0.53007 0.71399 0.59671 0.0
C840 C 0.53269 0.69522 0.63221 0.0
C841 C 0.54096 0.69675 0.65723 0.0
C842 C 0.58101 0.76811 0.61645 0.0
C843 C 0.54596 0.7384 0.62573 0.0
C844 C 0.601 0.77171 0.59975 0.0
C845 C 0.5986 0.76331 0.5749 0.0
C846 C 0.55928 0.75527 0.60806 0.0
C847 C 0.57476 0.75598 0.56616 0.0
C848 C 0.53474 0.71618 0.61648 0.0
C849 C 0.54822 0.72043 0.66668 0.0
N850 N 0.55613 0.75129 0.58292 0.0
N851 N 0.55129 0.74014 0.65075 0.0
H852 H 0.49845 0.30723 0.99204 0.0
H853 H 0.48949 0.41781 0.89782 0.0
H854 H 0.49668 0.38552 0.01273 0.0
H855 H 0.50362 0.33953 0.88118 0.0
H856 H 0.47203 0.40526 0.93889 0.0
H857 H 0.47625 0.31741 0.95307 0.0
C858 C 0.49189 0.32637 0.98915 0.0
C859 C 0.50043 0.34582 1.00477 0.0
C860 C 0.47852 0.39082 0.926 0.0
C861 C 0.47668 0.35782 0.9599 0.0
C862 C 0.48878 0.39801 0.90279 0.0
C863 C 0.49927 0.37977 0.88683 0.0
C864 C 0.4787 0.36524 0.93307 0.0
C865 C 0.49701 0.3543 0.89359 0.0
C866 C 0.47964 0.33231 0.96661 0.0
C867 C 0.49116 0.37017 1.00046 0.0
N868 N 0.48733 0.34783 0.91633 0.0
N869 N 0.48082 0.37581 0.97772 0.0
H870 H 0.89648 0.27227 0.1403 0.0
H871 H 0.99621 0.34697 0.12349 0.0
H872 H 0.91204 0.24185 0.0668 0.0
H873 H 0.9313 0.35986 0.07638 0.0
H874 H 0.99062 0.30154 0.1185 0.0
H875 H 0.93727 0.29344 0.13957 0.0
C876 C 0.90928 0.26849 0.12482 0.0
C877 C 0.90069 0.25604 0.10322 0.0
C878 C 0.97871 0.31435 0.10789 0.0
C879 C 0.94621 0.28127 0.10157 0.0
C880 C 0.98199 0.34029 0.11041 0.0
C881 C 0.96373 0.35702 0.10079 0.0
C882 C 0.95759 0.30551 0.09489 0.0
C883 C 0.94555 0.34754 0.08432 0.0
C884 C 0.93253 0.28075 0.12426 0.0
C885 C 0.91794 0.25168 0.08366 0.0
N886 N 0.94239 0.32222 0.08254 0.0
N887 N 0.93935 0.26563 0.08251 0.0
H888 H 0.01067 0.63872 0.38269 0.0
H889 H 0.99476 0.64257 0.51483 0.0
H890 H 0.03183 0.57463 0.428 0.0
H891 H 1.00435 0.7087 0.46887 0.0
H892 H 0.0276 0.62144 0.49092 0.0
H893 H 0.02411 0.66653 0.41586 0.0
C894 C 0.0184 0.63055 0.39978 0.0
C895 C 0.01923 0.60446 0.40317 0.0
C896 C 0.02372 0.64108 0.48684 0.0
C897 C 0.0347 0.63636 0.44181 0.0
C898 C 1.00499 0.65324 0.5007 0.0
C899 C 0.99589 0.67663 0.49244 0.0
C900 C 0.03231 0.65245 0.4645 0.0
C901 C 0.01004 0.68998 0.47472 0.0
C902 C 0.02661 0.64647 0.41868 0.0
C903 C 0.03025 0.59477 0.42517 0.0
N904 N 0.0273 0.6774 0.4607 0.0
N905 N 0.03681 0.61079 0.44417 0.0
H906 H 0.64119 0.47414 0.69276 0.0
H907 H 0.62097 0.61061 0.71415 0.0
H908 H 0.70008 0.52517 0.71563 0.0
H909 H 0.56261 0.555 0.70264 0.0
H910 H 0.6476 0.5779 0.73284 0.0
H911 H 0.61142 0.4975 0.71866 0.0
C912 C 0.648 0.48976 0.70402 0.0
C913 C 0.67252 0.49892 0.70087 0.0
C914 C 0.62879 0.57295 0.72659 0.0
C915 C 0.63849 0.52685 0.72835 0.0
C916 C 0.6138 0.59154 0.7155 0.0
C917 C 0.59018 0.58521 0.70543 0.0
C918 C 0.62021 0.54784 0.72714 0.0
C919 C 0.58125 0.56053 0.70887 0.0
C920 C 0.63103 0.50327 0.71874 0.0
C921 C 0.68083 0.51842 0.71661 0.0
N922 N 0.59644 0.5427 0.719 0.0
N923 N 0.66351 0.53265 0.72886 0.0
H924 H 0.79681 0.29193 0.1335 0.0
H925 H 0.72715 0.42407 0.13987 0.0
H926 H 0.78388 0.3411 0.06981 0.0
H927 H 0.77908 0.39693 0.1961 0.0
H928 H 0.72885 0.3829 0.11886 0.0
H929 H 0.77185 0.3204 0.15994 0.0
C930 C 0.78826 0.30842 0.12497 0.0
C931 C 0.79291 0.31467 0.09966 0.0
C932 C 0.73898 0.38565 0.13642 0.0
C933 C 0.764 0.34658 0.12949 0.0
C934 C 0.73784 0.40895 0.14842 0.0
C935 C 0.75309 0.41358 0.16944 0.0
C936 C 0.75538 0.36713 0.14581 0.0
C937 C 0.76714 0.39383 0.1798 0.0
C938 C 0.77397 0.32449 0.14002 0.0
C939 C 0.78124 0.33606 0.08944 0.0
N940 N 0.76828 0.37142 0.16762 0.0
N941 N 0.76749 0.35147 0.1045 0.0
H942 H 0.70297 0.67196 0.52117 0.0
H943 H 0.68744 0.55544 0.5696 0.0
H944 H 0.68087 0.69709 0.59533 0.0
H945 H 0.70696 0.58585 0.64266 0.0
H946 H 0.69145 0.59713 0.55149 0.0
H947 H 0.7148 0.63121 0.539 0.0
C948 C 0.70086 0.66886 0.54129 0.0
C949 C 0.69027 0.68735 0.5568 0.0
C950 C 0.69549 0.59469 0.57136 0.0
C951 C 0.70238 0.64078 0.57693 0.0
C952 C 0.69264 0.57094 0.58184 0.0
C953 C 0.69665 0.56727 0.6077 0.0
C954 C 0.70236 0.61499 0.58686 0.0
C955 C 0.70359 0.58798 0.62262 0.0
C956 C 0.70734 0.64561 0.55138 0.0
C957 C 0.6886 0.68296 0.5828 0.0
N958 N 0.70592 0.61115 0.612 0.0
N959 N 0.69407 0.65974 0.59207 0.0
H960 H 0.95501 0.91661 0.27127 0.0
H961 H 0.95479 0.04753 0.25183 0.0
H962 H 0.03479 0.92491 0.25747 0.0
H963 H 0.01265 0.03047 0.19708 0.0
H964 H 0.95538 1.00361 0.26545 0.0
H965 H 0.94842 0.95999 0.25691 0.0
C966 C 0.97118 0.92774 0.26562 0.0
C967 C 0.99553 0.91732 0.26589 0.0
C968 C 0.96759 0.00939 0.25013 0.0
C969 C 0.98806 0.96668 0.24904 0.0
C970 C 0.96725 0.03449 0.24225 0.0
C971 C 0.98401 0.0429 0.22349 0.0
C972 C 0.98493 0.9926 0.23932 0.0
C973 C 0.99969 0.02498 0.21188 0.0
C974 C 0.9674 0.95246 0.25745 0.0
C975 C 0.01579 0.93241 0.25802 0.0
N976 N 1.00017 1.00079 0.22036 0.0
N977 N 0.01156 0.95627 0.24959 0.0
H978 H 0.33515 0.78756 0.60463 0.0
H979 H 0.18965 0.76338 0.58941 0.0
H980 H 0.29219 0.83993 0.55968 0.0
H981 H 0.24248 0.7269 0.53957 0.0
H982 H 0.22495 0.78635 0.609 0.0
H983 H 0.29666 0.76284 0.61176 0.0
C984 C 0.31729 0.79482 0.59777 0.0
C985 C 0.31669 0.81583 0.58164 0.0
C986 C 0.22875 0.77244 0.59455 0.0
C987 C 0.27302 0.78787 0.58981 0.0
C988 C 0.20875 0.75921 0.58347 0.0
C989 C 0.21321 0.74357 0.56257 0.0
C990 C 0.25315 0.76926 0.58502 0.0
C991 C 0.23826 0.73901 0.55545 0.0
C992 C 0.29547 0.78057 0.60165 0.0
C993 C 0.2933 0.82397 0.5724 0.0
N994 N 0.25729 0.7522 0.56634 0.0
N995 N 0.27239 0.80964 0.57618 0.0
H996 H 0.53309 0.0161 0.6641 0.0
H997 H 0.59101 0.11408 0.76046 0.0
H998 H 0.58399 0.9984 0.7253 0.0
H999 H 0.5203 0.1249 0.72177 0.0
H1000 H 0.6004 0.0787 0.73263 0.0
H1001 H 0.53888 0.06093 0.67273 0.0
C1002 C 0.54572 0.02162 0.6792 0.0
C1003 C 0.55777 1.00343 0.69433 0.0
C1004 C 0.58328 0.08944 0.72959 0.0
C1005 C 0.5648 0.05474 0.70381 0.0
C1006 C 0.57809 0.10993 0.74516 0.0
C1007 C 0.55434 0.12163 0.74409 0.0
C1008 C 0.56469 0.08108 0.71274 0.0
C1009 C 0.53853 0.11589 0.72367 0.0
C1010 C 0.54909 0.04721 0.68395 0.0
C1011 C 0.57398 0.01174 0.71349 0.0
N1012 N 0.54353 0.09529 0.70931 0.0
N1013 N 0.57689 0.03682 0.7178 0.0
H1014 H 0.32915 0.26509 0.96739 0.0
H1015 H 0.19341 0.24677 0.91261 0.0
H1016 H 0.29798 0.1947 0.94114 0.0
H1017 H 0.21824 0.30927 0.95793 0.0
H1018 H 0.23734 0.2361 0.90387 0.0
H1019 H 0.29499 0.28762 0.9466 0.0
C1020 C 0.31508 0.25434 0.95721 0.0
C1021 C 0.31576 0.22789 0.95683 0.0
C1022 C 0.2332 0.25291 0.91468 0.0
C1023 C 0.27674 0.2537 0.93277 0.0
C1024 C 0.2081 0.25932 0.91928 0.0
C1025 C 0.20247 0.27841 0.93667 0.0
C1026 C 0.25235 0.26603 0.92738 0.0
C1027 C 0.22202 0.29406 0.94486 0.0
C1028 C 0.29579 0.26727 0.94504 0.0
C1029 C 0.29769 0.21505 0.94244 0.0
N1030 N 0.24627 0.28704 0.94083 0.0
N1031 N 0.2785 0.22808 0.93143 0.0
H1032 H 0.31166 0.98704 0.94246 0.0
H1033 H 0.17831 0.96544 0.00882 0.0
H1034 H 0.24109 0.98232 0.902 0.0
H1035 H 0.24805 0.97688 0.0494 0.0
H1036 H 0.20208 0.96331 0.96948 0.0
H1037 H 0.28982 0.97504 0.98114 0.0
C1038 C 0.29165 0.98306 0.94155 0.0
C1039 C 0.27818 0.98607 0.91886 0.0
C1040 C 0.21223 0.96593 0.98702 0.0
C1041 C 0.25294 0.97252 0.9634 0.0
C1042 C 0.19866 0.96708 0.00959 0.0
C1043 C 0.21109 0.9717 0.03258 0.0
C1044 C 0.23848 0.96949 0.9873 0.0
C1045 C 0.23755 0.9735 0.03221 0.0
C1046 C 0.27916 0.97627 0.96374 0.0
C1047 C 0.25228 0.98043 0.91899 0.0
N1048 N 0.25029 0.97271 0.00993 0.0
N1049 N 0.24046 0.97427 0.94095 0.0
H1050 H 0.17345 0.06859 0.1927 0.0
H1051 H 0.20271 0.0604 0.32169 0.0
H1052 H 0.22312 1.00417 0.18897 0.0
H1053 H 0.2684 0.01956 0.29698 0.0
H1054 H 0.1914 0.06819 0.2776 0.0
H1055 H 0.1888 0.07714 0.23549 0.0
C1056 C 0.18747 0.05618 0.20091 0.0
C1057 C 0.19674 0.0354 0.18733 0.0
C1058 C 0.20891 0.05854 0.2817 0.0
C1059 C 0.21442 0.0451 0.23617 0.0
C1060 C 0.21551 0.05435 0.30695 0.0
C1061 C 0.23653 0.03939 0.31282 0.0
C1062 C 0.22353 0.04756 0.26246 0.0
C1063 C 0.25209 0.03124 0.29312 0.0
C1064 C 0.19618 0.06106 0.22538 0.0
C1065 C 0.21508 0.02015 0.19879 0.0
N1066 N 0.24498 0.03496 0.26883 0.0
N1067 N 0.22329 0.02534 0.22244 0.0
H1068 H 0.18557 0.97507 0.483 0.0
H1069 H 0.21023 0.01079 0.6045 0.0
H1070 H 0.18341 0.05431 0.46488 0.0
H1071 H 0.22634 0.08307 0.57102 0.0
H1072 H 0.18528 0.99969 0.56751 0.0
H1073 H 0.18715 0.98579 0.52778 0.0
C1074 C 0.18468 0.99471 0.4885 0.0
C1075 C 0.18484 0.01381 0.47016 0.0
C1076 C 0.19387 0.01815 0.5683 0.0
C1077 C 0.18633 0.02646 0.52154 0.0
C1078 C 0.20764 0.0248 0.58985 0.0
C1079 C 0.22106 0.04764 0.59054 0.0
C1080 C 0.19353 0.03459 0.54744 0.0
C1081 C 0.21675 0.06505 0.57106 0.0
C1082 C 0.18548 1.00092 0.5142 0.0
C1083 C 0.18381 0.03895 0.47835 0.0
N1084 N 0.20392 0.05792 0.55005 0.0
N1085 N 0.18499 0.0445 0.50331 0.0
H1086 H 0.34665 0.04739 0.76671 0.0
H1087 H 0.3154 0.93301 0.67746 0.0
H1088 H 0.28 1.00085 0.7678 0.0
H1089 H 0.36589 0.99291 0.65658 0.0
H1090 H 0.31836 0.94621 0.72138 0.0
H1091 H 0.36566 0.01873 0.73576 0.0
C1092 C 0.33594 0.03134 0.76023 0.0
C1093 C 0.3115 0.02688 0.7694 0.0
C1094 C 0.32967 0.95586 0.70736 0.0
C1095 C 0.33326 0.99381 0.73464 0.0
C1096 C 0.32851 0.9479 0.68234 0.0
C1097 C 0.33911 0.96299 0.66339 0.0
C1098 C 0.34185 0.97866 0.71297 0.0
C1099 C 0.35645 0.98154 0.67071 0.0
C1100 C 0.34693 0.01483 0.74294 0.0
C1101 C 0.29866 0.0054 0.76089 0.0
N1102 N 0.35626 0.98992 0.69492 0.0
N1103 N 0.30962 0.98981 0.74385 0.0
H1104 H 0.92053 0.25337 0.97503 0.0
H1105 H 0.05813 0.2335 0.02897 0.0
H1106 H 0.945 0.29264 0.04187 0.0
H1107 H 0.0425 0.23242 0.94908 0.0
H1108 H 0.01517 0.24931 0.03655 0.0
H1109 H 0.96393 0.24101 0.9669 0.0
C1110 C 0.935 0.25954 0.98807 0.0
C1111 C 0.92885 0.27349 0.00978 0.0
C1112 C 0.0212 0.2455 0.01741 0.0
C1113 C 0.97878 0.25878 1.00062 0.0
C1114 C 0.04552 0.23617 0.01309 0.0
C1115 C 0.05376 0.23141 0.98837 0.0
C1116 C 1.00492 0.24957 0.99689 0.0
C1117 C 0.03686 0.23572 0.96843 0.0
C1118 C 0.95983 0.25236 0.98337 0.0
C1119 C 0.94869 0.28109 0.02558 0.0
N1120 N 0.01319 0.24435 0.97314 0.0
N1121 N 0.97276 0.27326 0.02099 0.0
H1122 H 0.46775 0.17287 0.04944 0.0
H1123 H 0.54004 0.28885 0.10899 0.0
H1124 H 0.43302 0.24157 0.07601 0.0
H1125 H 0.5728 0.23729 0.0552 0.0
H1126 H 0.50401 0.26067 0.11344 0.0
H1127 H 0.50804 0.18702 0.0666 0.0
C1128 C 0.46847 0.19077 0.05923 0.0
C1129 C 0.44708 0.20638 0.06083 0.0
C1130 C 0.51948 0.25519 0.10127 0.0
C1131 C 0.49304 0.22229 0.0808 0.0
C1132 C 0.54013 0.27117 0.09878 0.0
C1133 C 0.55885 0.26595 0.08075 0.0
C1134 C 0.51776 0.2339 0.08578 0.0
C1135 C 0.55839 0.24243 0.06872 0.0
C1136 C 0.49146 0.1987 0.06909 0.0
C1137 C 0.44914 0.22922 0.07389 0.0
N1138 N 0.53769 0.22753 0.07087 0.0
N1139 N 0.47183 0.23662 0.08316 0.0
H1140 H 0.9521 0.20144 0.24162 0.0
H1141 H 0.01262 0.33758 0.22804 0.0
H1142 H 0.02632 0.2219 0.26805 0.0
H1143 H 0.93606 0.32082 0.2058 0.0
H1144 H 0.01539 0.29651 0.24821 0.0
H1145 H 0.9428 0.24621 0.23467 0.0
C1146 C 0.96615 0.2154 0.24661 0.0
C1147 C 0.99016 0.20806 0.25496 0.0
C1148 C 0.99787 0.30181 0.23911 0.0
C1149 C 0.97989 0.25892 0.24677 0.0
C1150 C 0.99635 0.32524 0.22744 0.0
C1151 C 0.97422 0.33245 0.21489 0.0
C1152 C 0.97724 0.28524 0.23793 0.0
C1153 C 0.95356 0.31588 0.21512 0.0
C1154 C 0.96092 0.2409 0.24248 0.0
C1155 C 0.00774 0.2268 0.26109 0.0
N1156 N 0.95569 0.29285 0.22616 0.0
N1157 N 1.00238 0.25132 0.25654 0.0
H1158 H 0.04905 0.78686 0.48708 0.0
H1159 H 0.9488 0.72341 0.57656 0.0
H1160 H 0.06129 0.77698 0.56706 0.0
H1161 H 0.927 0.75948 0.5068 0.0
H1162 H 0.98975 0.74445 0.57396 0.0
H1163 H 1.00394 0.77851 0.4937 0.0
C1164 C 0.04224 0.78348 0.50605 0.0
C1165 C 0.05912 0.78232 0.52646 0.0
C1166 C 0.9758 0.74819 0.55948 0.0
C1167 C 0.00771 0.7724 0.5341 0.0
C1168 C 0.95236 0.73626 0.56106 0.0
C1169 C 0.93437 0.73963 0.54193 0.0
C1170 C 0.98158 0.76315 0.53832 0.0
C1171 C 0.94018 0.75638 0.52211 0.0
C1172 C 0.0165 0.77865 0.50982 0.0
C1173 C 0.04915 0.77771 0.55064 0.0
N1174 N 0.96344 0.76709 0.52055 0.0
N1175 N 0.02427 0.77256 0.55371 0.0
H1176 H 0.57573 0.80455 0.45952 0.0
H1177 H 0.44497 0.82115 0.44879 0.0
H1178 H 0.55732 0.73011 0.48681 0.0
H1179 H 0.44027 0.75665 0.49827 0.0
H1180 H 0.48999 0.81338 0.4436 0.0
H1181 H 0.53061 0.8135 0.4554 0.0
C1182 C 0.56226 0.78991 0.46411 0.0
C1183 C 0.5705 0.76657 0.47355 0.0
C1184 C 0.47927 0.80095 0.45569 0.0
C1185 C 0.51854 0.77649 0.46867 0.0
C1186 C 0.45334 0.80516 0.45838 0.0
C1187 C 0.43866 0.78964 0.47415 0.0
C1188 C 0.49078 0.78106 0.46893 0.0
C1189 C 0.45068 0.76917 0.48595 0.0
C1190 C 0.53636 0.79498 0.4617 0.0
C1191 C 0.55203 0.74846 0.47957 0.0
N1192 N 0.47596 0.7656 0.48321 0.0
N1193 N 0.5271 0.75388 0.47723 0.0
H1194 H 0.99428 0.73077 0.22749 0.0
H1195 H 0.96295 0.6946 0.34819 0.0
H1196 H 0.94169 0.78482 0.25774 0.0
H1197 H 0.9293 0.64344 0.29493 0.0
H1198 H 0.95565 0.72935 0.31856 0.0
H1199 H 0.97287 0.69746 0.25139 0.0
C1200 C 0.97766 0.73545 0.23841 0.0
C1201 C 0.96987 0.76056 0.24088 0.0
C1202 C 0.94895 0.71065 0.3138 0.0
C1203 C 0.94621 0.72296 0.26895 0.0
C1204 C 0.95296 0.69088 0.33074 0.0
C1205 C 0.94721 0.66607 0.32367 0.0
C1206 C 0.94013 0.70526 0.28944 0.0
C1207 C 0.93448 0.66225 0.30075 0.0
C1208 C 0.9655 0.7165 0.25203 0.0
C1209 C 0.94838 0.76569 0.25553 0.0
N1210 N 0.93252 0.68143 0.2838 0.0
N1211 N 0.93791 0.7472 0.26995 0.0
H1212 H 0.42792 0.20033 0.83398 0.0
H1213 H 0.51807 0.26819 0.78797 0.0
H1214 H 0.49009 0.17108 0.87733 0.0
H1215 H 0.52534 0.303 0.86116 0.0
H1216 H 0.49515 0.23337 0.80746 0.0
H1217 H 0.44741 0.24182 0.83477 0.0
C1218 C 0.44475 0.20302 0.84528 0.0
C1219 C 0.45795 0.18215 0.85473 0.0
C1220 C 0.50213 0.24852 0.81924 0.0
C1221 C 0.4803 0.22942 0.85566 0.0
C1222 C 0.5156 0.26811 0.80827 0.0
C1223 C 0.52352 0.28861 0.82291 0.0
C1224 C 0.49679 0.24913 0.84512 0.0
C1225 C 0.51964 0.28749 0.84921 0.0
C1226 C 0.45602 0.22671 0.84551 0.0
C1227 C 0.47965 0.18669 0.86927 0.0
N1228 N 0.50622 0.2681 0.85959 0.0
N1229 N 0.49087 0.20976 0.86836 0.0
H1230 H 0.49195 0.41647 0.72029 0.0
H1231 H 0.46624 0.55942 0.75867 0.0
H1232 H 0.43954 0.43858 0.77852 0.0
H1233 H 0.50217 0.53905 0.68853 0.0
H1234 H 0.45658 0.51502 0.7661 0.0
H1235 H 0.49574 0.4608 0.70767 0.0
C1236 C 0.48085 0.43051 0.73011 0.0
C1237 C 0.46547 0.42365 0.75062 0.0
C1238 C 0.46636 0.52025 0.74895 0.0
C1239 C 0.47015 0.47457 0.73655 0.0
C1240 C 0.47194 0.54566 0.74471 0.0
C1241 C 0.48504 0.55312 0.72291 0.0
C1242 C 0.4742 0.50194 0.73148 0.0
C1243 C 0.49191 0.53428 0.70553 0.0
C1244 C 0.48314 0.45586 0.72297 0.0
C1245 C 0.45171 0.44284 0.76269 0.0
N1246 N 0.48664 0.50959 0.7103 0.0
N1247 N 0.45462 0.46734 0.7557 0.0
H1248 H 0.74243 0.24413 0.03932 0.0
H1249 H 0.68781 0.35304 0.98701 0.0
H1250 H 0.78731 0.26332 0.97416 0.0
H1251 H 0.64499 0.28798 0.96419 0.0
H1252 H 0.72624 0.32716 0.98699 0.0
H1253 H 0.70599 0.26483 0.01939 0.0
C1254 C 0.74446 0.25216 0.02062 0.0
C1255 C 0.76787 0.25194 0.00834 0.0
C1256 C 0.70857 0.3189 0.98087 0.0
C1257 C 0.72674 0.27617 0.98605 0.0
C1258 C 0.68676 0.33371 0.98052 0.0
C1259 C 0.6633 0.32265 0.97533 0.0
C1260 C 0.70657 0.29287 0.97686 0.0
C1261 C 0.6628 0.29723 0.96797 0.0
C1262 C 0.72376 0.26392 0.00933 0.0
C1263 C 0.76953 0.26293 0.98419 0.0
N1264 N 0.68397 0.28286 0.97001 0.0
N1265 N 0.74939 0.27528 0.97407 0.0
H1266 H 0.05728 0.4675 0.19338 0.0
H1267 H 0.02634 0.60725 0.23141 0.0
H1268 H 0.99824 0.51173 0.15897 0.0
H1269 H 0.0838 0.56121 0.26634 0.0
H1270 H 0.02484 0.57791 0.19612 0.0
H1271 H 0.07518 0.50576 0.21129 0.0
C1272 C 0.04828 0.4854 0.18931 0.0
C1273 C 0.02594 0.48643 0.17515 0.0
C1274 C 0.03831 0.5746 0.21114 0.0
C1275 C 0.04612 0.53039 0.19599 0.0
C1276 C 0.03939 0.59153 0.23129 0.0
C1277 C 0.05461 0.58623 0.2524 0.0
C1278 C 0.05256 0.55231 0.21216 0.0
C1279 C 0.07124 0.5657 0.25085 0.0
C1280 C 0.05856 0.50728 0.19948 0.0
C1281 C 0.01536 0.51012 0.17002 0.0
N1282 N 0.06931 0.54914 0.23143 0.0
N1283 N 0.02522 0.53116 0.18094 0.0
H1284 H 0.7379 0.7854 0.45419 0.0
H1285 H 0.8516 0.72243 0.42762 0.0
H1286 H 0.73144 0.72189 0.5048 0.0
H1287 H 0.81175 0.6557 0.45085 0.0
H1288 H 0.81255 0.74649 0.43064 0.0
H1289 H 0.77091 0.76236 0.43076 0.0
C1290 C 0.74354 0.7668 0.46048 0.0
C1291 C 0.73242 0.75593 0.48198 0.0
C1292 C 0.81196 0.72635 0.43382 0.0
C1293 C 0.76934 0.72928 0.45497 0.0
C1294 C 0.83433 0.71243 0.43168 0.0
C1295 C 0.83505 0.68704 0.43925 0.0
C1296 C 0.79032 0.71464 0.44364 0.0
C1297 C 0.81208 0.67527 0.44499 0.0
C1298 C 0.76228 0.75365 0.44708 0.0
C1299 C 0.73996 0.73148 0.48889 0.0
N1300 N 0.79088 0.68933 0.44797 0.0
N1301 N 0.75777 0.71908 0.47545 0.0
H1302 H 0.71524 0.42631 0.53523 0.0
H1303 H 0.74758 0.43897 0.41131 0.0
H1304 H 0.67979 0.49924 0.53016 0.0
H1305 H 0.72261 0.51595 0.41854 0.0
H1306 H 0.72491 0.42835 0.44968 0.0
H1307 H 0.72159 0.42643 0.49018 0.0
C1308 C 0.70823 0.44218 0.5244 0.0
C1309 C 0.69718 0.46288 0.53655 0.0
C1310 C 0.72429 0.44764 0.4432 0.0
C1311 C 0.70448 0.46343 0.48406 0.0
C1312 C 0.73694 0.45357 0.42084 0.0
C1313 C 0.73731 0.47842 0.41185 0.0
C1314 C 0.71264 0.46694 0.45728 0.0
C1315 C 0.72294 0.49652 0.42481 0.0
C1316 C 0.71178 0.44226 0.49835 0.0
C1317 C 0.68837 0.48286 0.52155 0.0
N1318 N 0.71171 0.49055 0.44714 0.0
N1319 N 0.69266 0.48285 0.49616 0.0
H1320 H 0.79472 0.48113 0.69696 0.0
H1321 H 0.70307 0.44346 0.80489 0.0
H1322 H 0.73971 0.42188 0.68776 0.0
H1323 H 0.77465 0.4799 0.81875 0.0
H1324 H 0.71811 0.43159 0.76285 0.0
H1325 H 0.79133 0.47645 0.74261 0.0
C1326 C 0.78255 0.46658 0.70457 0.0
C1327 C 0.76712 0.45226 0.68864 0.0
C1328 C 0.73064 0.4418 0.77534 0.0
C1329 C 0.76239 0.44742 0.74068 0.0
C1330 C 0.72198 0.44873 0.79924 0.0
C1331 C 0.73734 0.46323 0.81514 0.0
C1332 C 0.75468 0.44966 0.76733 0.0
C1333 C 0.76184 0.46925 0.80696 0.0
C1334 C 0.78049 0.46397 0.73062 0.0
C1335 C 0.75177 0.43353 0.69941 0.0
N1336 N 0.76958 0.46277 0.78352 0.0
N1337 N 0.74919 0.43216 0.72485 0.0
H1338 H 0.76667 0.465 0.0823 0.0
H1339 H 0.77791 0.54338 0.9537 0.0
H1340 H 0.81232 0.53201 0.0766 0.0
H1341 H 0.71049 0.50496 0.97838 0.0
H1342 H 0.79856 0.5311 0.99357 0.0
H1343 H 0.75494 0.46997 0.03773 0.0
C1344 C 0.77493 0.4802 0.07141 0.0
C1345 C 0.79024 0.49827 0.08305 0.0
C1346 C 0.77927 0.52536 0.99004 0.0
C1347 C 0.7769 0.50415 0.0325 0.0
C1348 C 0.76746 0.53249 0.96748 0.0
C1349 C 0.7423 0.52563 0.96295 0.0
C1350 C 0.766 0.51069 0.00769 0.0
C1351 C 0.72973 0.51114 0.98127 0.0
C1352 C 0.76803 0.4832 0.04614 0.0
C1353 C 0.80027 0.51781 0.06823 0.0
N1354 N 0.74173 0.50409 1.00274 0.0
N1355 N 0.79324 0.52041 0.04372 0.0
H1356 H 0.78269 0.61295 0.33961 0.0
H1357 H 0.71856 0.56295 0.24673 0.0
H1358 H 0.83801 0.57298 0.29567 0.0
H1359 H 0.77522 0.58748 0.19398 0.0
H1360 H 0.73871 0.58817 0.27949 0.0
H1361 H 0.76106 0.62508 0.30059 0.0
C1362 C 0.79131 0.60824 0.32168 0.0
C1363 C 0.81182 0.59153 0.32073 0.0
C1364 C 0.74611 0.58911 0.26045 0.0
C1365 C 0.78707 0.60486 0.27642 0.0
C1366 C 0.73454 0.57468 0.24176 0.0
C1367 C 0.74547 0.57294 0.2178 0.0
C1368 C 0.76936 0.60082 0.25535 0.0
C1369 C 0.76642 0.58818 0.21237 0.0
C1370 C 0.77872 0.61486 0.29946 0.0
C1371 C 0.82204 0.58565 0.29709 0.0
N1372 N 0.77847 0.60055 0.23134 0.0
N1373 N 0.80914 0.59173 0.27578 0.0
H1374 H 0.48447 0.71383 0.7577 0.0
H1375 H 0.55816 0.84479 0.74819 0.0
H1376 H 0.56529 0.72027 0.766 0.0
H1377 H 0.48463 0.83065 0.71611 0.0
H1378 H 0.55826 0.80192 0.76557 0.0
H1379 H 0.48162 0.75959 0.75456 0.0
C1380 C 0.50158 0.72484 0.75953 0.0
C1381 C 0.52524 0.71309 0.76163 0.0
C1382 C 0.54203 0.80838 0.75496 0.0
C1383 C 0.52204 0.7655 0.75774 0.0
C1384 C 0.54193 0.8328 0.74505 0.0
C1385 C 0.52149 0.84117 0.73039 0.0
C1386 C 0.52139 0.79242 0.75045 0.0
C1387 C 0.50095 0.82485 0.72696 0.0
C1388 C 0.49992 0.75098 0.75752 0.0
C1389 C 0.54669 0.72847 0.764 0.0
N1390 N 0.50147 0.80125 0.73683 0.0
N1391 N 0.54463 0.7539 0.76162 0.0
H1392 H 0.04775 0.13573 0.32502 0.0
H1393 H 0.11739 0.00555 0.35728 0.0
H1394 H 0.02243 0.06478 0.29454 0.0
H1395 H 0.15214 0.07842 0.36688 0.0
H1396 H 0.08034 0.02602 0.33881 0.0
H1397 H 0.08273 0.11413 0.34565 0.0
C1398 C 0.04923 0.11547 0.32298 0.0
C1399 C 0.03188 0.10217 0.30786 0.0
C1400 C 0.09603 0.03755 0.34497 0.0
C1401 C 0.07264 0.07711 0.33158 0.0
C1402 C 0.11728 0.0259 0.35566 0.0
C1403 C 0.13815 0.04021 0.3639 0.0
C1404 C 0.09518 0.06389 0.34271 0.0
C1405 C 0.13669 0.06651 0.36089 0.0
C1406 C 0.06947 0.10317 0.33466 0.0
C1407 C 0.03506 0.07589 0.30609 0.0
N1408 N 0.11561 0.07743 0.35075 0.0
N1409 N 0.05508 0.06427 0.31767 0.0
H1410 H 0.19491 0.81063 0.57962 0.0
H1411 H 0.20554 0.96065 0.60103 0.0
H1412 H 0.13991 0.8624 0.54988 0.0
H1413 H 0.26976 0.91078 0.60054 0.0
H1414 H 0.17823 0.92449 0.59029 0.0
H1415 H 0.21935 0.84647 0.59582 0.0
C1416 C 0.18761 0.82944 0.57708 0.0
C1417 C 0.16515 0.83324 0.56351 0.0
C1418 C 0.19829 0.92149 0.59276 0.0
C1419 C 0.1932 0.87483 0.58195 0.0
C1420 C 0.21388 0.94212 0.59905 0.0
C1421 C 0.2401 0.93891 0.60171 0.0
C1422 C 0.20883 0.89727 0.58966 0.0
C1423 C 0.24974 0.91433 0.59858 0.0
C1424 C 0.20172 0.85 0.58608 0.0
C1425 C 0.15704 0.85838 0.56028 0.0
N1426 N 0.23422 0.89462 0.59289 0.0
N1427 N 0.17094 0.87809 0.5694 0.0
H1428 H 0.48961 0.94796 0.77881 0.0
H1429 H 0.33968 0.97771 0.7878 0.0
H1430 H 0.43812 0.94009 0.71629 0.0
H1431 H 0.39026 0.98294 0.85118 0.0
H1432 H 0.37514 0.96288 0.76164 0.0
H1433 H 0.45374 0.96047 0.80568 0.0
C1434 C 0.47095 0.94909 0.77058 0.0
C1435 C 0.46726 0.94278 0.74502 0.0
C1436 C 0.37847 0.96713 0.78134 0.0
C1437 C 0.42564 0.95739 0.77595 0.0
C1438 C 0.35806 0.97549 0.79636 0.0
C1439 C 0.36168 0.98204 0.82183 0.0
C1440 C 0.40293 0.96496 0.79175 0.0
C1441 C 0.38625 0.97845 0.83167 0.0
C1442 C 0.45033 0.95615 0.78602 0.0
C1443 C 0.44225 0.94455 0.73579 0.0
N1444 N 0.4057 0.97035 0.81676 0.0
N1445 N 0.42269 0.95165 0.75105 0.0
H1446 H 0.20809 0.10494 0.08413 0.0
H1447 H 0.35203 0.14712 0.08941 0.0
H1448 H 0.2678 0.05113 0.09672 0.0
H1449 H 0.29642 0.18887 0.04702 0.0
H1450 H 0.3208 0.11427 0.09746 0.0
H1451 H 0.23929 0.13728 0.07541 0.0
C1452 C 0.22775 0.09959 0.08456 0.0
C1453 C 0.23497 0.07469 0.09067 0.0
C1454 C 0.31536 0.13065 0.08651 0.0
C1455 C 0.27139 0.11274 0.0812 0.0
C1456 C 0.33314 0.1497 0.08206 0.0
C1457 C 0.3271 0.17112 0.06738 0.0
C1458 C 0.29086 0.13295 0.0768 0.0
C1459 C 0.30213 0.17297 0.0585 0.0
C1460 C 0.24564 0.11835 0.07964 0.0
C1461 C 0.26107 0.06977 0.09185 0.0
N1462 N 0.28501 0.15423 0.06337 0.0
N1463 N 0.27825 0.08859 0.08732 0.0
H1464 H 0.03722 0.89524 0.21316 0.0
H1465 H 0.13065 0.91273 0.09787 0.0
H1466 H 0.05273 0.83343 0.16284 0.0
H1467 H 0.14652 0.9485 0.169 0.0
H1468 H 0.09924 0.88598 0.11877 0.0
H1469 H 0.0727 0.91867 0.19435 0.0
C1470 C 0.04767 0.88676 0.1978 0.0
C1471 C 0.04155 0.86231 0.18942 0.0
C1472 C 0.10986 0.89936 0.12995 0.0
C1473 C 0.08257 0.88917 0.16784 0.0
C1474 C 0.1281 0.91447 0.11807 0.0
C1475 C 0.14168 0.93282 0.13163 0.0
C1476 C 0.10422 0.90304 0.15558 0.0
C1477 C 0.13694 0.93441 0.15776 0.0
C1478 C 0.06821 0.90004 0.18733 0.0
C1479 C 0.05643 0.85223 0.16983 0.0
N1480 N 0.11824 0.92025 0.16872 0.0
N1481 N 0.07592 0.86571 0.15962 0.0
H1482 H 0.30889 0.97031 0.38843 0.0
H1483 H 0.31096 0.87168 0.50427 0.0
H1484 H 0.25807 0.97725 0.45148 0.0
H1485 H 0.35781 0.86638 0.43826 0.0
H1486 H 0.2893 0.90826 0.48528 0.0
H1487 H 0.32634 0.9321 0.40713 0.0
C1488 C 0.30163 0.96408 0.40649 0.0
C1489 C 0.28201 0.97747 0.41834 0.0
C1490 C 0.30397 0.8988 0.4747 0.0
C1491 C 0.30185 0.93258 0.43998 0.0
C1492 C 0.31596 0.87748 0.48531 0.0
C1493 C 0.33575 0.86521 0.47251 0.0
C1494 C 0.31207 0.90836 0.45122 0.0
C1495 C 0.34219 0.87459 0.44853 0.0
C1496 C 0.31151 0.94196 0.41711 0.0
C1497 C 0.2734 0.96799 0.44171 0.0
N1498 N 0.33063 0.89549 0.43887 0.0
N1499 N 0.28321 0.94614 0.4516 0.0
H1500 H 0.34178 0.09754 0.64599 0.0
H1501 H 0.41549 0.07987 0.77817 0.0
H1502 H 0.32318 0.04115 0.70148 0.0
H1503 H 0.43533 0.13855 0.72563 0.0
H1504 H 0.38255 0.06572 0.74954 0.0
H1505 H 0.37517 0.11338 0.674 0.0
C1506 C 0.34436 0.08859 0.66419 0.0
C1507 C 0.32913 0.06783 0.67118 0.0
C1508 C 0.39374 0.08188 0.74422 0.0
C1509 C 0.36829 0.08601 0.70363 0.0
C1510 C 0.41282 0.09005 0.76068 0.0
C1511 C 0.42841 0.11077 0.7548 0.0
C1512 C 0.3894 0.09448 0.72129 0.0
C1513 C 0.42397 0.12258 0.73129 0.0
C1514 C 0.36371 0.09766 0.68018 0.0
C1515 C 0.33407 0.05715 0.69504 0.0
N1516 N 0.40489 0.11441 0.71559 0.0
N1517 N 0.35302 0.06624 0.71015 0.0
H1518 H 0.13971 0.14628 0.94286 0.0
H1519 H 0.23984 0.11891 0.83206 0.0
H1520 H 0.16998 0.20419 0.89441 0.0
H1521 H 0.21842 0.06246 0.88657 0.0
H1522 H 0.21149 0.14885 0.85231 0.0
H1523 H 0.16527 0.11491 0.92075 0.0
C1524 C 0.1514 0.15251 0.9273 0.0
C1525 C 0.15219 0.17827 0.92049 0.0
C1526 C 0.2127 0.12989 0.8598 0.0
C1527 C 0.18209 0.1417 0.89481 0.0
C1528 C 0.2289 0.11252 0.84809 0.0
C1529 C 0.23169 0.08767 0.85729 0.0
C1530 C 0.19874 0.1228 0.88117 0.0
C1531 C 0.21682 0.08108 0.87836 0.0
C1532 C 0.1662 0.1344 0.91474 0.0
C1533 C 0.16831 0.18474 0.90035 0.0
N1534 N 0.20118 0.09846 0.88955 0.0
N1535 N 0.18244 0.1667 0.88833 0.0
H1536 H 0.07689 0.31215 0.99958 0.0
H1537 H 0.07025 0.36689 0.14182 0.0
H1538 H 0.13972 0.3079 0.05125 0.0
H1539 H 0.0192 0.38873 0.08217 0.0
H1540 H 0.09436 0.34192 0.1106 0.0
H1541 H 0.05384 0.33733 0.03101 0.0
C1542 C 0.08603 0.31668 0.01728 0.0
C1543 C 0.11059 0.30794 0.02229 0.0
C1544 C 0.07789 0.35232 0.10445 0.0
C1545 C 0.08383 0.33644 0.05902 0.0
C1546 C 0.0641 0.3666 0.12233 0.0
C1547 C 0.04272 0.38049 0.11487 0.0
C1548 C 0.07001 0.35143 0.07895 0.0
C1549 C 0.03571 0.37893 0.08912 0.0
C1550 C 0.07277 0.331 0.03538 0.0
C1551 C 0.12102 0.31428 0.04608 0.0
N1552 N 0.0491 0.36477 0.07239 0.0
N1553 N 0.10766 0.32786 0.06341 0.0
H1554 H 0.54296 0.21933 0.83379 0.0
H1555 H 0.59499 0.23528 0.97688 0.0
H1556 H 0.5527 0.15636 0.88416 0.0
H1557 H 0.56396 0.29609 0.93251 0.0
H1558 H 0.58498 0.20606 0.94186 0.0
H1559 H 0.55626 0.24781 0.86813 0.0
C1560 C 0.54764 0.2115 0.85205 0.0
C1561 C 0.54608 0.18537 0.85599 0.0
C1562 C 0.58043 0.22585 0.93987 0.0
C1563 C 0.56185 0.21793 0.89566 0.0
C1564 C 0.58623 0.24259 0.95992 0.0
C1565 C 0.5802 0.26839 0.95811 0.0
C1566 C 0.56896 0.23494 0.91752 0.0
C1567 C 0.56881 0.27647 0.9353 0.0
C1568 C 0.55536 0.22775 0.87171 0.0
C1569 C 0.55345 0.17633 0.88003 0.0
N1570 N 0.56372 0.26003 0.91618 0.0
N1571 N 0.56083 0.19243 0.89879 0.0
H1572 H 0.93365 0.79067 0.304 0.0
H1573 H 0.93063 0.77598 0.45553 0.0
H1574 H 0.97616 0.83749 0.35511 0.0
H1575 H 0.88949 0.72751 0.40519 0.0
H1576 H 0.94345 0.80186 0.41917 0.0
H1577 H 0.91362 0.77024 0.34052 0.0
C1578 C 0.93858 0.79695 0.32277 0.0
C1579 C 0.95688 0.81587 0.32616 0.0
C1580 C 0.93104 0.78596 0.41608 0.0
C1581 C 0.93383 0.7924 0.36846 0.0
C1582 C 0.92341 0.77139 0.43697 0.0
C1583 C 0.90796 0.75016 0.43366 0.0
C1584 C 0.92365 0.77901 0.39146 0.0
C1585 C 0.90035 0.74437 0.40886 0.0
C1586 C 0.92714 0.78518 0.34372 0.0
C1587 C 0.96236 0.82297 0.35125 0.0
N1588 N 0.90831 0.75853 0.38884 0.0
N1589 N 0.95108 0.81125 0.37121 0.0
H1590 H 0.84257 0.18457 0.0879 0.0
H1591 H 0.981 0.1463 0.13628 0.0
H1592 H 0.90966 0.19767 0.04382 0.0
H1593 H 0.9167 0.15032 0.18592 0.0
H1594 H 0.95486 0.16167 0.10159 0.0
H1595 H 0.86865 0.16813 0.12217 0.0
C1596 C 0.86279 0.18371 0.08514 0.0
C1597 C 0.87372 0.19282 0.0626 0.0
C1598 C 0.94638 0.15922 0.12001 0.0
C1599 C 0.9041 0.1737 0.10256 0.0
C1600 C 0.96133 0.15032 0.14002 0.0
C1601 C 0.95123 0.14676 0.16443 0.0
C1602 C 0.92072 0.16449 0.12392 0.0
C1603 C 0.92552 0.15269 0.16766 0.0
C1604 C 0.87773 0.17445 0.105 0.0
C1605 C 0.90017 0.19098 0.06062 0.0
N1606 N 0.91122 0.16104 0.14772 0.0
N1607 N 0.91434 0.18176 0.08025 0.0
H1608 H 0.44178 0.63856 0.65251 0.0
H1609 H 0.41641 0.7836 0.6197 0.0
H1610 H 0.45619 0.69975 0.70378 0.0
H1611 H 0.39546 0.72413 0.56828 0.0
H1612 H 0.42841 0.75254 0.6508 0.0
H1613 H 0.42159 0.66813 0.62315 0.0
C1614 C 0.43988 0.65811 0.65807 0.0
C1615 C 0.4504 0.66641 0.68111 0.0
C1616 C 0.42116 0.74605 0.63283 0.0
C1617 C 0.42796 0.70092 0.64664 0.0
C1618 C 0.4143 0.76394 0.61468 0.0
C1619 C 0.40496 0.75686 0.59069 0.0
C1620 C 0.41904 0.72029 0.62754 0.0
C1621 C 0.40257 0.73077 0.58622 0.0
C1622 C 0.42859 0.67508 0.64103 0.0
C1623 C 0.44789 0.69218 0.68673 0.0
N1624 N 0.40974 0.71352 0.60432 0.0
N1625 N 0.43728 0.70842 0.66957 0.0
H1626 H 0.15061 0.67548 0.47492 0.0
H1627 H 0.09558 0.6194 0.37293 0.0
H1628 H 0.08119 0.71657 0.48519 0.0
H1629 H 0.04647 0.68392 0.36665 0.0
H1630 H 0.11238 0.63594 0.4116 0.0
H1631 H 0.13608 0.66156 0.43416 0.0
C1632 C 0.13187 0.68106 0.46896 0.0
C1633 C 0.11711 0.69703 0.48413 0.0
C1634 C 0.09865 0.64726 0.40161 0.0
C1635 C 0.09941 0.67995 0.43647 0.0
C1636 C 0.08879 0.6376 0.37921 0.0
C1637 C 0.06936 0.65007 0.36607 0.0
C1638 C 0.08969 0.67018 0.41142 0.0
C1639 C 0.0616 0.67364 0.37574 0.0
C1640 C 0.1234 0.67288 0.4454 0.0
C1641 C 0.09314 0.70385 0.47462 0.0
N1642 N 0.07156 0.68277 0.39793 0.0
N1643 N 0.08506 0.69529 0.45147 0.0
H1644 H 0.41596 0.27804 0.96834 0.0
H1645 H 0.43074 0.35659 0.86451 0.0
H1646 H 0.41937 0.21635 0.91553 0.0
H1647 H 0.46096 0.29247 0.82488 0.0
H1648 H 0.41962 0.32949 0.89966 0.0
H1649 H 0.42816 0.30685 0.93439 0.0
C1650 C 0.41938 0.27043 0.9497 0.0
C1651 C 0.41629 0.2445 0.94513 0.0
C1652 C 0.42881 0.32109 0.88352 0.0
C1653 C 0.42943 0.27801 0.90514 0.0
C1654 C 0.43481 0.33664 0.86296 0.0
C1655 C 0.44684 0.32705 0.84124 0.0
C1656 C 0.43483 0.29529 0.88293 0.0
C1657 C 0.45147 0.30089 0.84086 0.0
C1658 C 0.42598 0.28708 0.92999 0.0
C1659 C 0.4212 0.23611 0.92025 0.0
N1660 N 0.44553 0.28606 0.86131 0.0
N1661 N 0.42737 0.25267 0.90139 0.0
H1662 H 0.69489 0.54312 0.81821 0.0
H1663 H 0.57099 0.63201 0.81682 0.0
H1664 H 0.67746 0.59644 0.87699 0.0
H1665 H 0.58278 0.57159 0.76416 0.0
H1666 H 0.60939 0.61899 0.83951 0.0
H1667 H 0.65533 0.55489 0.79677 0.0
C1668 C 0.6832 0.55775 0.82633 0.0
C1669 C 0.68987 0.56877 0.84959 0.0
C1670 C 0.60334 0.60819 0.82328 0.0
C1671 C 0.64376 0.58187 0.82534 0.0
C1672 C 0.58097 0.6153 0.81066 0.0
C1673 C 0.57306 0.6025 0.78884 0.0
C1674 C 0.61842 0.58841 0.8138 0.0
C1675 C 0.58778 0.58173 0.78113 0.0
C1676 C 0.66031 0.56421 0.81424 0.0
C1677 C 0.67334 0.58731 0.85921 0.0
N1678 N 0.60972 0.57558 0.79327 0.0
N1679 N 0.65122 0.59307 0.84725 0.0
H1680 H 0.72249 0.47672 0.09962 0.0
H1681 H 0.61373 0.37276 0.11998 0.0
H1682 H 0.67619 0.47138 0.16627 0.0
H1683 H 0.66878 0.366 0.06067 0.0
H1684 H 0.63619 0.40951 0.13621 0.0
H1685 H 0.70188 0.43844 0.08308 0.0
C1686 C 0.70772 0.46789 0.11061 0.0
C1687 C 0.70113 0.47767 0.13446 0.0
C1688 C 0.64373 0.39986 0.11988 0.0
C1689 C 0.67769 0.43324 0.11573 0.0
C1690 C 0.63102 0.37856 0.11076 0.0
C1691 C 0.63953 0.36573 0.08916 0.0
C1692 C 0.66506 0.40916 0.10714 0.0
C1693 C 0.66181 0.37475 0.07774 0.0
C1694 C 0.69613 0.44579 0.10124 0.0
C1695 C 0.68203 0.46488 0.14783 0.0
N1696 N 0.67357 0.39602 0.08663 0.0
N1697 N 0.67117 0.44356 0.13837 0.0
H1698 H 0.83321 0.43589 0.33299 0.0
H1699 H 0.94526 0.47348 0.23685 0.0
H1700 H 0.84434 0.51165 0.30626 0.0
H1701 H 0.92268 0.39718 0.25252 0.0
H1702 H 0.91318 0.48853 0.2671 0.0
H1703 H 0.86885 0.42191 0.30702 0.0
C1704 C 0.84266 0.44947 0.32099 0.0
C1705 C 0.83492 0.47481 0.32102 0.0
C1706 C 0.91567 0.46845 0.26439 0.0
C1707 C 0.87729 0.4592 0.29233 0.0
C1708 C 0.9343 0.45984 0.2474 0.0
C1709 C 0.93719 0.43394 0.24254 0.0
C1710 C 0.89955 0.45105 0.27647 0.0
C1711 C 0.92158 0.41725 0.25604 0.0
C1712 C 0.8634 0.44157 0.30651 0.0
C1713 C 0.84887 0.49175 0.30605 0.0
N1714 N 0.9035 0.42602 0.27211 0.0
N1715 N 0.86938 0.48372 0.2925 0.0
H1716 H 0.7518 0.5381 0.56157 0.0
H1717 H 0.8802 0.61811 0.57272 0.0
H1718 H 0.81694 0.51377 0.60343 0.0
H1719 H 0.81664 0.64442 0.52927 0.0
H1720 H 0.8569 0.58015 0.58356 0.0
H1721 H 0.77522 0.57548 0.54734 0.0
C1722 C 0.77148 0.53996 0.56681 0.0
C1723 C 0.78263 0.52198 0.583 0.0
C1724 C 0.84778 0.59423 0.5719 0.0
C1725 C 0.80931 0.56605 0.56796 0.0
C1726 C 0.86106 0.61625 0.56581 0.0
C1727 C 0.85052 0.63499 0.55007 0.0
C1728 C 0.8234 0.59031 0.56231 0.0
C1729 C 0.82556 0.63095 0.54176 0.0
C1730 C 0.78468 0.56171 0.55911 0.0
C1731 C 0.80778 0.52638 0.59022 0.0
N1732 N 0.81299 0.60908 0.54783 0.0
N1733 N 0.82008 0.54788 0.58285 0.0
H1734 H 0.6343 0.41033 0.6194 0.0
H1735 H 0.60525 0.37037 0.76248 0.0
H1736 H 0.69149 0.40609 0.67691 0.0
H1737 H 0.54896 0.36771 0.70376 0.0
H1738 H 0.63721 0.38049 0.73095 0.0
H1739 H 0.60398 0.39113 0.64857 0.0
C1740 C 0.6408 0.40442 0.63788 0.0
C1741 C 0.66588 0.40934 0.6453 0.0
C1742 C 0.61796 0.37751 0.72481 0.0
C1743 C 0.63047 0.38826 0.67968 0.0
C1744 C 0.59948 0.37171 0.74292 0.0
C1745 C 0.57398 0.3681 0.73608 0.0
C1746 C 0.61127 0.38006 0.69927 0.0
C1747 C 0.56818 0.37016 0.71018 0.0
C1748 C 0.62328 0.39377 0.65472 0.0
C1749 C 0.67273 0.40204 0.66993 0.0
N1750 N 0.58652 0.37616 0.69289 0.0
N1751 N 0.65515 0.39225 0.68621 0.0
H1752 H 0.84809 0.361 0.99838 0.0
H1753 H 0.73397 0.40571 0.90953 0.0
H1754 H 0.79751 0.30943 0.96108 0.0
H1755 H 0.79054 0.45732 0.937 0.0
H1756 H 0.75672 0.3709 0.92889 0.0
H1757 H 0.82759 0.39617 0.97668 0.0
C1758 C 0.83278 0.35692 0.98549 0.0
C1759 C 0.82466 0.33186 0.98173 0.0
C1760 C 0.7643 0.38976 0.9307 0.0
C1761 C 0.80065 0.37276 0.95674 0.0
C1762 C 0.75121 0.40991 0.91966 0.0
C1763 C 0.76012 0.43492 0.92152 0.0
C1764 C 0.78669 0.39419 0.94411 0.0
C1765 C 0.7828 0.43857 0.93491 0.0
C1766 C 0.82104 0.37719 0.97307 0.0
C1767 C 0.80464 0.32818 0.96465 0.0
N1768 N 0.79516 0.41853 0.94574 0.0
N1769 N 0.7933 0.34831 0.95303 0.0
H1770 H 0.82323 0.586 0.194 0.0
H1771 H 0.95203 0.55068 0.26144 0.0
H1772 H 0.8677 0.52084 0.17409 0.0
H1773 H 0.93174 0.62895 0.25318 0.0
H1774 H 0.91867 0.53933 0.23193 0.0
H1775 H 0.85964 0.60236 0.21809 0.0
C1776 C 0.8406 0.57528 0.1943 0.0
C1777 C 0.84208 0.55186 0.18184 0.0
C1778 C 0.92155 0.55906 0.23632 0.0
C1779 C 0.88375 0.57035 0.20982 0.0
C1780 C 0.94074 0.56561 0.25319 0.0
C1781 C 0.94482 0.59087 0.26008 0.0
C1782 C 0.90557 0.57774 0.2264 0.0
C1783 C 0.92934 0.60925 0.24864 0.0
C1784 C 0.8614 0.58466 0.20809 0.0
C1785 C 0.86527 0.53889 0.18326 0.0
N1786 N 0.91013 0.60231 0.23272 0.0
N1787 N 0.88483 0.5481 0.19711 0.0
H1788 H 0.64324 0.67859 0.43767 0.0
H1789 H 0.77944 0.6208 0.41886 0.0
H1790 H 0.71023 0.7245 0.43837 0.0
H1791 H 0.71472 0.58522 0.38472 0.0
H1792 H 0.75366 0.65757 0.42853 0.0
H1793 H 0.66778 0.64379 0.41958 0.0
C1794 C 0.663 0.68161 0.43342 0.0
C1795 C 0.67457 0.70475 0.43945 0.0
C1796 C 0.74506 0.64183 0.41884 0.0
C1797 C 0.70313 0.66432 0.4196 0.0
C1798 C 0.75972 0.62056 0.41347 0.0
C1799 C 0.74931 0.59949 0.40109 0.0
C1800 C 0.71941 0.64224 0.41235 0.0
C1801 C 0.72364 0.60084 0.39434 0.0
C1802 C 0.67703 0.66161 0.42321 0.0
C1803 C 0.70037 0.70725 0.43382 0.0
N1804 N 0.70952 0.62166 0.40035 0.0
N1805 N 0.71381 0.68722 0.42473 0.0
H1806 H 0.62948 0.92499 0.64632 0.0
H1807 H 0.61071 0.81231 0.5488 0.0
H1808 H 0.58507 0.85979 0.66563 0.0
H1809 H 0.67776 0.85803 0.54868 0.0
H1810 H 0.5991 0.83058 0.58987 0.0
H1811 H 0.64535 0.90281 0.60909 0.0
C1812 C 0.62352 0.90572 0.64311 0.0
C1813 C 0.60599 0.89431 0.65949 0.0
C1814 C 0.61572 0.83741 0.5803 0.0
C1815 C 0.62345 0.86894 0.61575 0.0
C1816 C 0.62248 0.82691 0.55684 0.0
C1817 C 0.6452 0.83374 0.54497 0.0
C1818 C 0.63075 0.85628 0.5913 0.0
C1819 C 0.65987 0.85245 0.55678 0.0
C1820 C 0.63246 0.89312 0.62163 0.0
C1821 C 0.59882 0.86933 0.65393 0.0
N1822 N 0.65223 0.8633 0.57891 0.0
N1823 N 0.60715 0.85772 0.63235 0.0
loop_
_geom_bond_atom_site_label_1
_geom_bond_atom_site_label_2
_geom_bond_distance
_geom_bond_site_symmetry_2
_ccdc_geom_bond_type
Sc0 O3 2.025 . S
Sc0 O10 2.105 . S
Sc0 O13 2.105 . S
Sc0 O16 2.105 . S
Sc0 O19 2.105 . S
Sc1 O3 2.025 . S
Sc1 O11 2.105 . S
Sc1 O15 2.105 1_455 S
Sc1 O17 2.105 . S
Sc1 O21 2.105 1_455 S
Sc2 O3 2.025 1_655 S
Sc2 O12 2.105 . S
Sc2 O14 2.105 . S
Sc2 O18 2.105 . S
Sc2 O20 2.105 1_655 S
O3 Sc0 2.025 . S
O3 Sc1 2.025 . S
O3 Sc2 2.025 1_455 S
C4 O10 1.268 . S
C4 O20 1.268 . S
C5 O11 1.268 . S
C5 O19 1.268 . S
C6 O12 1.268 . S
C6 O21 1.268 . S
C7 O13 1.268 . S
C7 O17 1.268 . S
C8 O14 1.268 1_455 S
C8 O16 1.268 . S
C9 O15 1.268 . S
C9 O18 1.268 . S
O10 Sc0 2.105 . S
O10 C4 1.268 . S
O11 Sc1 2.105 . S
O11 C5 1.268 . S
O12 Sc2 2.105 . S
O12 C6 1.268 . S
O13 Sc0 2.105 . S
O13 C7 1.268 . S
O14 Sc2 2.105 . S
O14 C8 1.268 1_655 S
O15 Sc1 2.105 1_655 S
O15 C9 1.268 . S
O16 Sc0 2.105 . S
O16 C8 1.268 . S
O17 Sc1 2.105 . S
O17 C7 1.268 . S
O18 Sc2 2.105 . S
O18 C9 1.268 . S
O19 Sc0 2.105 . S
O19 C5 1.268 . S
O20 Sc2 2.105 1_455 S
O20 C4 1.268 . S
O21 Sc1 2.105 1_655 S
O21 C6 1.268 . S
Sc22 O25 2.025 . S
Sc22 O32 2.105 . S
Sc22 O35 2.105 . S
Sc22 O38 2.105 . S
Sc22 O41 2.105 . S
Sc23 O25 2.025 . S
Sc23 O33 2.105 . S
Sc23 O37 2.105 . S
Sc23 O39 2.105 . S
Sc23 O43 2.105 . S
Sc24 O25 2.025 . S
Sc24 O34 2.105 . S
Sc24 O36 2.105 . S
Sc24 O40 2.105 . S
Sc24 O42 2.105 . S
O25 Sc22 2.025 . S
O25 Sc23 2.025 . S
O25 Sc24 2.025 . S
C26 O32 1.268 . S
C26 O42 1.268 . S
C27 O33 1.268 . S
C27 O41 1.268 . S
C28 O34 1.268 . S
C28 O43 1.268 . S
C29 O35 1.268 . S
C29 O39 1.268 . S
C30 O36 1.268 . S
C30 O38 1.268 . S
C31 O37 1.268 . S
C31 O40 1.268 . S
O32 Sc22 2.105 . S
O32 C26 1.268 . S
O33 Sc23 2.105 . S
O33 C27 1.268 . S
O34 Sc24 2.105 . S
O34 C28 1.268 . S
O35 Sc22 2.105 . S
O35 C29 1.268 . S
O36 Sc24 2.105 . S
O36 C30 1.268 . S
O37 Sc23 2.105 . S
O37 C31 1.268 . S
O38 Sc22 2.105 . S
O38 C30 1.268 . S
O39 Sc23 2.105 . S
O39 C29 1.268 . S
O40 Sc24 2.105 . S
O40 C31 1.268 . S
O41 Sc22 2.105 . S
O41 C27 1.268 . S
O42 Sc24 2.105 . S
O42 C26 1.268 . S
O43 Sc23 2.105 . S
O43 C28 1.268 . S
Sc44 O47 2.025 . S
Sc44 O54 2.105 . S
Sc44 O57 2.105 . S
Sc44 O60 2.105 . S
Sc44 O63 2.105 . S
Sc45 O47 2.025 . S
Sc45 O55 2.105 . S
Sc45 O59 2.105 . S
Sc45 O61 2.105 . S
Sc45 O65 2.105 . S
Sc46 O47 2.025 . S
Sc46 O56 2.105 . S
Sc46 O58 2.105 . S
Sc46 O62 2.105 . S
Sc46 O64 2.105 . S
O47 Sc44 2.025 . S
O47 Sc45 2.025 . S
O47 Sc46 2.025 . S
C48 O54 1.268 . S
C48 O64 1.268 . S
C49 O55 1.268 . S
C49 O63 1.268 . S
C50 O56 1.268 . S
C50 O65 1.268 . S
C51 O57 1.268 . S
C51 O61 1.268 . S
C52 O58 1.268 . S
C52 O60 1.268 . S
C53 O59 1.268 . S
C53 O62 1.268 . S
O54 Sc44 2.105 . S
O54 C48 1.268 . S
O55 Sc45 2.105 . S
O55 C49 1.268 . S
O56 Sc46 2.105 . S
O56 C50 1.268 . S
O57 Sc44 2.105 . S
O57 C51 1.268 . S
O58 Sc46 2.105 . S
O58 C52 1.268 . S
O59 Sc45 2.105 . S
O59 C53 1.268 . S
O60 Sc44 2.105 . S
O60 C52 1.268 . S
O61 Sc45 2.105 . S
O61 C51 1.268 . S
O62 Sc46 2.105 . S
O62 C53 1.268 . S
O63 Sc44 2.105 . S
O63 C49 1.268 . S
O64 Sc46 2.105 . S
O64 C48 1.268 . S
O65 Sc45 2.105 . S
O65 C50 1.268 . S
Sc66 O69 2.025 1_554 S
Sc66 O76 2.105 . S
Sc66 O79 2.105 . S
Sc66 O82 2.105 . S
Sc66 O85 2.105 1_554 S
Sc67 O69 2.025 . S
Sc67 O77 2.105 . S
Sc67 O81 2.105 . S
Sc67 O83 2.105 . S
Sc67 O87 2.105 . S
Sc68 O69 2.025 . S
Sc68 O78 2.105 . S
Sc68 O80 2.105 1_556 S
Sc68 O84 2.105 . S
Sc68 O86 2.105 1_556 S
O69 Sc66 2.025 1_556 S
O69 Sc67 2.025 . S
O69 Sc68 2.025 . S
C70 O76 1.268 . S
C70 O86 1.268 . S
C71 O77 1.268 . S
C71 O85 1.268 . S
C72 O78 1.268 . S
C72 O87 1.268 . S
C73 O79 1.268 1_556 S
C73 O83 1.268 . S
C74 O80 1.268 . S
C74 O82 1.268 . S
C75 O81 1.268 . S
C75 O84 1.268 . S
O76 Sc66 2.105 . S
O76 C70 1.268 . S
O77 Sc67 2.105 . S
O77 C71 1.268 . S
O78 Sc68 2.105 . S
O78 C72 1.268 . S
O79 Sc66 2.105 . S
O79 C73 1.268 1_554 S
O80 Sc68 2.105 1_554 S
O80 C74 1.268 . S
O81 Sc67 2.105 . S
O81 C75 1.268 . S
O82 Sc66 2.105 . S
O82 C74 1.268 . S
O83 Sc67 2.105 . S
O83 C73 1.268 . S
O84 Sc68 2.105 . S
O84 C75 1.268 . S
O85 Sc66 2.105 1_556 S
O85 C71 1.268 . S
O86 Sc68 2.105 1_554 S
O86 C70 1.268 . S
O87 Sc67 2.105 . S
O87 C72 1.268 . S
Sc88 O91 2.025 . S
Sc88 O98 2.105 . S
Sc88 O101 2.105 . S
Sc88 O104 2.105 . S
Sc88 O107 2.105 . S
Sc89 O91 2.025 . S
Sc89 O99 2.105 . S
Sc89 O103 2.105 1_455 S
Sc89 O105 2.105 . S
Sc89 O109 2.105 1_455 S
Sc90 O91 2.025 1_655 S
Sc90 O100 2.105 . S
Sc90 O102 2.105 . S
Sc90 O106 2.105 . S
Sc90 O108 2.105 1_655 S
O91 Sc88 2.025 . S
O91 Sc89 2.025 . S
O91 Sc90 2.025 1_455 S
C92 O98 1.268 . S
C92 O108 1.268 . S
C93 O99 1.268 . S
C93 O107 1.268 . S
C94 O100 1.268 . S
C94 O109 1.268 . S
C95 O101 1.268 . S
C95 O105 1.268 . S
C96 O102 1.268 1_455 S
C96 O104 1.268 . S
C97 O103 1.268 . S
C97 O106 1.268 . S
O98 Sc88 2.105 . S
O98 C92 1.268 . S
O99 Sc89 2.105 . S
O99 C93 1.268 . S
O100 Sc90 2.105 . S
O100 C94 1.268 . S
O101 Sc88 2.105 . S
O101 C95 1.268 . S
O102 Sc90 2.105 . S
O102 C96 1.268 1_655 S
O103 Sc89 2.105 1_655 S
O103 C97 1.268 . S
O104 Sc88 2.105 . S
O104 C96 1.268 . S
O105 Sc89 2.105 . S
O105 C95 1.268 . S
O106 Sc90 2.105 . S
O106 C97 1.268 . S
O107 Sc88 2.105 . S
O107 C93 1.268 . S
O108 Sc90 2.105 1_455 S
O108 C92 1.268 . S
O109 Sc89 2.105 1_655 S
O109 C94 1.268 . S
Sc110 O113 2.025 . S
Sc110 O120 2.105 . S
Sc110 O123 2.105 . S
Sc110 O126 2.105 . S
Sc110 O129 2.105 . S
Sc111 O113 2.025 . S
Sc111 O121 2.105 . S
Sc111 O125 2.105 . S
Sc111 O127 2.105 . S
Sc111 O131 2.105 . S
Sc112 O113 2.025 . S
Sc112 O122 2.105 . S
Sc112 O124 2.105 . S
Sc112 O128 2.105 . S
Sc112 O130 2.105 . S
O113 Sc110 2.025 . S
O113 Sc111 2.025 . S
O113 Sc112 2.025 . S
C114 O120 1.268 . S
C114 O130 1.268 . S
C115 O121 1.268 . S
C115 O129 1.268 . S
C116 O122 1.268 . S
C116 O131 1.268 . S
C117 O123 1.268 . S
C117 O127 1.268 . S
C118 O124 1.268 . S
C118 O126 1.268 . S
C119 O125 1.268 . S
C119 O128 1.268 . S
O120 Sc110 2.105 . S
O120 C114 1.268 . S
O121 Sc111 2.105 . S
O121 C115 1.268 . S
O122 Sc112 2.105 . S
O122 C116 1.268 . S
O123 Sc110 2.105 . S
O123 C117 1.268 . S
O124 Sc112 2.105 . S
O124 C118 1.268 . S
O125 Sc111 2.105 . S
O125 C119 1.268 . S
O126 Sc110 2.105 . S
O126 C118 1.268 . S
O127 Sc111 2.105 . S
O127 C117 1.268 . S
O128 Sc112 2.105 . S
O128 C119 1.268 . S
O129 Sc110 2.105 . S
O129 C115 1.268 . S
O130 Sc112 2.105 . S
O130 C114 1.268 . S
O131 Sc111 2.105 . S
O131 C116 1.268 . S
Sc132 O135 2.025 . S
Sc132 O142 2.105 . S
Sc132 O145 2.105 . S
Sc132 O148 2.105 . S
Sc132 O151 2.105 . S
Sc133 O135 2.025 . S
Sc133 O143 2.105 . S
Sc133 O147 2.105 . S
Sc133 O149 2.105 . S
Sc133 O153 2.105 . S
Sc134 O135 2.025 . S
Sc134 O144 2.105 . S
Sc134 O146 2.105 . S
Sc134 O150 2.105 . S
Sc134 O152 2.105 . S
O135 Sc132 2.025 . S
O135 Sc133 2.025 . S
O135 Sc134 2.025 . S
C136 O142 1.268 . S
C136 O152 1.268 . S
C137 O143 1.268 . S
C137 O151 1.268 . S
C138 O144 1.268 . S
C138 O153 1.268 . S
C139 O145 1.268 . S
C139 O149 1.268 . S
C140 O146 1.268 . S
C140 O148 1.268 . S
C141 O147 1.268 . S
C141 O150 1.268 . S
O142 Sc132 2.105 . S
O142 C136 1.268 . S
O143 Sc133 2.105 . S
O143 C137 1.268 . S
O144 Sc134 2.105 . S
O144 C138 1.268 . S
O145 Sc132 2.105 . S
O145 C139 1.268 . S
O146 Sc134 2.105 . S
O146 C140 1.268 . S
O147 Sc133 2.105 . S
O147 C141 1.268 . S
O148 Sc132 2.105 . S
O148 C140 1.268 . S
O149 Sc133 2.105 . S
O149 C139 1.268 . S
O150 Sc134 2.105 . S
O150 C141 1.268 . S
O151 Sc132 2.105 . S
O151 C137 1.268 . S
O152 Sc134 2.105 . S
O152 C136 1.268 . S
O153 Sc133 2.105 . S
O153 C138 1.268 . S
Sc154 O157 2.025 . S
Sc154 O164 2.105 . S
Sc154 O167 2.105 . S
Sc154 O170 2.105 . S
Sc154 O173 2.105 . S
Sc155 O157 2.025 . S
Sc155 O165 2.105 . S
Sc155 O169 2.105 1_554 S
Sc155 O171 2.105 . S
Sc155 O175 2.105 1_554 S
Sc156 O157 2.025 1_556 S
Sc156 O166 2.105 . S
Sc156 O168 2.105 . S
Sc156 O172 2.105 . S
Sc156 O174 2.105 1_556 S
O157 Sc154 2.025 . S
O157 Sc155 2.025 . S
O157 Sc156 2.025 1_554 S
C158 O164 1.268 . S
C158 O174 1.268 . S
C159 O165 1.268 . S
C159 O173 1.268 . S
C160 O166 1.268 . S
C160 O175 1.268 . S
C161 O167 1.268 . S
C161 O171 1.268 . S
C162 O168 1.268 1_554 S
C162 O170 1.268 . S
C163 O169 1.268 . S
C163 O172 1.268 . S
O164 Sc154 2.105 . S
O164 C158 1.268 . S
O165 Sc155 2.105 . S
O165 C159 1.268 . S
O166 Sc156 2.105 . S
O166 C160 1.268 . S
O167 Sc154 2.105 . S
O167 C161 1.268 . S
O168 Sc156 2.105 . S
O168 C162 1.268 1_556 S
O169 Sc155 2.105 1_556 S
O169 C163 1.268 . S
O170 Sc154 2.105 . S
O170 C162 1.268 . S
O171 Sc155 2.105 . S
O171 C161 1.268 . S
O172 Sc156 2.105 . S
O172 C163 1.268 . S
O173 Sc154 2.105 . S
O173 C159 1.268 . S
O174 Sc156 2.105 1_554 S
O174 C158 1.268 . S
O175 Sc155 2.105 1_556 S
O175 C160 1.268 . S
Sc176 O179 2.025 . S
Sc176 O186 2.105 . S
Sc176 O189 2.105 . S
Sc176 O192 2.105 . S
Sc176 O195 2.105 . S
Sc177 O179 2.025 . S
Sc177 O187 2.105 . S
Sc177 O191 2.105 1_545 S
Sc177 O193 2.105 . S
Sc177 O197 2.105 1_545 S
Sc178 O179 2.025 1_565 S
Sc178 O188 2.105 . S
Sc178 O190 2.105 . S
Sc178 O194 2.105 . S
Sc178 O196 2.105 1_565 S
O179 Sc176 2.025 . S
O179 Sc177 2.025 . S
O179 Sc178 2.025 1_545 S
C180 O186 1.268 . S
C180 O196 1.268 . S
C181 O187 1.268 . S
C181 O195 1.268 . S
C182 O188 1.268 . S
C182 O197 1.268 . S
C183 O189 1.268 . S
C183 O193 1.268 . S
C184 O190 1.268 1_545 S
C184 O192 1.268 . S
C185 O191 1.268 . S
C185 O194 1.268 . S
O186 Sc176 2.105 . S
O186 C180 1.268 . S
O187 Sc177 2.105 . S
O187 C181 1.268 . S
O188 Sc178 2.105 . S
O188 C182 1.268 . S
O189 Sc176 2.105 . S
O189 C183 1.268 . S
O190 Sc178 2.105 . S
O190 C184 1.268 1_565 S
O191 Sc177 2.105 1_565 S
O191 C185 1.268 . S
O192 Sc176 2.105 . S
O192 C184 1.268 . S
O193 Sc177 2.105 . S
O193 C183 1.268 . S
O194 Sc178 2.105 . S
O194 C185 1.268 . S
O195 Sc176 2.105 . S
O195 C181 1.268 . S
O196 Sc178 2.105 1_545 S
O196 C180 1.268 . S
O197 Sc177 2.105 1_565 S
O197 C182 1.268 . S
Sc198 O201 2.025 . S
Sc198 O208 2.105 1_565 S
Sc198 O211 2.105 . S
Sc198 O214 2.105 1_565 S
Sc198 O217 2.105 . S
Sc199 O201 2.025 . S
Sc199 O209 2.105 . S
Sc199 O213 2.105 . S
Sc199 O215 2.105 . S
Sc199 O219 2.105 . S
Sc200 O201 2.025 1_545 S
Sc200 O210 2.105 . S
Sc200 O212 2.105 . S
Sc200 O216 2.105 1_545 S
Sc200 O218 2.105 . S
O201 Sc198 2.025 . S
O201 Sc199 2.025 . S
O201 Sc200 2.025 1_565 S
C202 O208 1.268 . S
C202 O218 1.268 . S
C203 O209 1.268 . S
C203 O217 1.268 . S
C204 O210 1.268 1_565 S
C204 O219 1.268 . S
C205 O211 1.268 . S
C205 O215 1.268 . S
C206 O212 1.268 . S
C206 O214 1.268 . S
C207 O213 1.268 . S
C207 O216 1.268 . S
O208 Sc198 2.105 1_545 S
O208 C202 1.268 . S
O209 Sc199 2.105 . S
O209 C203 1.268 . S
O210 Sc200 2.105 . S
O210 C204 1.268 1_545 S
O211 Sc198 2.105 . S
O211 C205 1.268 . S
O212 Sc200 2.105 . S
O212 C206 1.268 . S
O213 Sc199 2.105 . S
O213 C207 1.268 . S
O214 Sc198 2.105 1_545 S
O214 C206 1.268 . S
O215 Sc199 2.105 . S
O215 C205 1.268 . S
O216 Sc200 2.105 1_565 S
O216 C207 1.268 . S
O217 Sc198 2.105 . S
O217 C203 1.268 . S
O218 Sc200 2.105 . S
O218 C202 1.268 . S
O219 Sc199 2.105 . S
O219 C204 1.268 . S
Sc220 O223 2.025 . S
Sc220 O230 2.105 . S
Sc220 O233 2.105 . S
Sc220 O236 2.105 . S
Sc220 O239 2.105 . S
Sc221 O223 2.025 . S
Sc221 O231 2.105 . S
Sc221 O235 2.105 1_565 S
Sc221 O237 2.105 . S
Sc221 O241 2.105 1_565 S
Sc222 O223 2.025 1_545 S
Sc222 O232 2.105 . S
Sc222 O234 2.105 . S
Sc222 O238 2.105 . S
Sc222 O240 2.105 1_545 S
O223 Sc220 2.025 . S
O223 Sc221 2.025 . S
O223 Sc222 2.025 1_565 S
C224 O230 1.268 . S
C224 O240 1.268 . S
C225 O231 1.268 . S
C225 O239 1.268 . S
C226 O232 1.268 . S
C226 O241 1.268 . S
C227 O233 1.268 . S
C227 O237 1.268 . S
C228 O234 1.268 1_565 S
C228 O236 1.268 . S
C229 O235 1.268 . S
C229 O238 1.268 . S
O230 Sc220 2.105 . S
O230 C224 1.268 . S
O231 Sc221 2.105 . S
O231 C225 1.268 . S
O232 Sc222 2.105 . S
O232 C226 1.268 . S
O233 Sc220 2.105 . S
O233 C227 1.268 . S
O234 Sc222 2.105 . S
O234 C228 1.268 1_545 S
O235 Sc221 2.105 1_545 S
O235 C229 1.268 . S
O236 Sc220 2.105 . S
O236 C228 1.268 . S
O237 Sc221 2.105 . S
O237 C227 1.268 . S
O238 Sc222 2.105 . S
O238 C229 1.268 . S
O239 Sc220 2.105 . S
O239 C225 1.268 . S
O240 Sc222 2.105 1_565 S
O240 C224 1.268 . S
O241 Sc221 2.105 1_545 S
O241 C226 1.268 . S
Sc242 O245 2.025 1_565 S
Sc242 O252 2.105 . S
Sc242 O255 2.105 . S
Sc242 O258 2.105 1_565 S
Sc242 O261 2.105 . S
Sc243 O245 2.025 . S
Sc243 O253 2.105 1_545 S
Sc243 O257 2.105 . S
Sc243 O259 2.105 1_545 S
Sc243 O263 2.105 . S
Sc244 O245 2.025 . S
Sc244 O254 2.105 . S
Sc244 O256 2.105 . S
Sc244 O260 2.105 . S
Sc244 O262 2.105 . S
O245 Sc242 2.025 1_545 S
O245 Sc243 2.025 . S
O245 Sc244 2.025 . S
C246 O252 1.268 1_545 S
C246 O262 1.268 . S
C247 O253 1.268 . S
C247 O261 1.268 . S
C248 O254 1.268 . S
C248 O263 1.268 . S
C249 O255 1.268 . S
C249 O259 1.268 . S
C250 O256 1.268 . S
C250 O258 1.268 . S
C251 O257 1.268 . S
C251 O260 1.268 . S
O252 Sc242 2.105 . S
O252 C246 1.268 1_565 S
O253 Sc243 2.105 1_565 S
O253 C247 1.268 . S
O254 Sc244 2.105 . S
O254 C248 1.268 . S
O255 Sc242 2.105 . S
O255 C249 1.268 . S
O256 Sc244 2.105 . S
O256 C250 1.268 . S
O257 Sc243 2.105 . S
O257 C251 1.268 . S
O258 Sc242 2.105 1_545 S
O258 C250 1.268 . S
O259 Sc243 2.105 1_565 S
O259 C249 1.268 . S
O260 Sc244 2.105 . S
O260 C251 1.268 . S
O261 Sc242 2.105 . S
O261 C247 1.268 . S
O262 Sc244 2.105 . S
O262 C246 1.268 . S
O263 Sc243 2.105 . S
O263 C248 1.268 . S
Sc264 O267 2.025 . S
Sc264 O274 2.105 1_556 S
Sc264 O277 2.105 . S
Sc264 O280 2.105 1_556 S
Sc264 O283 2.105 . S
Sc265 O267 2.025 . S
Sc265 O275 2.105 . S
Sc265 O279 2.105 . S
Sc265 O281 2.105 . S
Sc265 O285 2.105 . S
Sc266 O267 2.025 1_554 S
Sc266 O276 2.105 . S
Sc266 O278 2.105 . S
Sc266 O282 2.105 1_554 S
Sc266 O284 2.105 . S
O267 Sc264 2.025 . S
O267 Sc265 2.025 . S
O267 Sc266 2.025 1_556 S
C268 O274 1.268 . S
C268 O284 1.268 . S
C269 O275 1.268 . S
C269 O283 1.268 . S
C270 O276 1.268 1_556 S
C270 O285 1.268 . S
C271 O277 1.268 . S
C271 O281 1.268 . S
C272 O278 1.268 . S
C272 O280 1.268 . S
C273 O279 1.268 . S
C273 O282 1.268 . S
O274 Sc264 2.105 1_554 S
O274 C268 1.268 . S
O275 Sc265 2.105 . S
O275 C269 1.268 . S
O276 Sc266 2.105 . S
O276 C270 1.268 1_554 S
O277 Sc264 2.105 . S
O277 C271 1.268 . S
O278 Sc266 2.105 . S
O278 C272 1.268 . S
O279 Sc265 2.105 . S
O279 C273 1.268 . S
O280 Sc264 2.105 1_554 S
O280 C272 1.268 . S
O281 Sc265 2.105 . S
O281 C271 1.268 . S
O282 Sc266 2.105 1_556 S
O282 C273 1.268 . S
O283 Sc264 2.105 . S
O283 C269 1.268 . S
O284 Sc266 2.105 . S
O284 C268 1.268 . S
O285 Sc265 2.105 . S
O285 C270 1.268 . S
Sc286 O289 2.025 . S
Sc286 O296 2.105 1_655 S
Sc286 O299 2.105 . S
Sc286 O302 2.105 1_655 S
Sc286 O305 2.105 . S
Sc287 O289 2.025 . S
Sc287 O297 2.105 . S
Sc287 O301 2.105 . S
Sc287 O303 2.105 . S
Sc287 O307 2.105 . S
Sc288 O289 2.025 1_455 S
Sc288 O298 2.105 . S
Sc288 O300 2.105 . S
Sc288 O304 2.105 1_455 S
Sc288 O306 2.105 . S
O289 Sc286 2.025 . S
O289 Sc287 2.025 . S
O289 Sc288 2.025 1_655 S
C290 O296 1.268 . S
C290 O306 1.268 . S
C291 O297 1.268 . S
C291 O305 1.268 . S
C292 O298 1.268 1_655 S
C292 O307 1.268 . S
C293 O299 1.268 . S
C293 O303 1.268 . S
C294 O300 1.268 . S
C294 O302 1.268 . S
C295 O301 1.268 . S
C295 O304 1.268 . S
O296 Sc286 2.105 1_455 S
O296 C290 1.268 . S
O297 Sc287 2.105 . S
O297 C291 1.268 . S
O298 Sc288 2.105 . S
O298 C292 1.268 1_455 S
O299 Sc286 2.105 . S
O299 C293 1.268 . S
O300 Sc288 2.105 . S
O300 C294 1.268 . S
O301 Sc287 2.105 . S
O301 C295 1.268 . S
O302 Sc286 2.105 1_455 S
O302 C294 1.268 . S
O303 Sc287 2.105 . S
O303 C293 1.268 . S
O304 Sc288 2.105 1_655 S
O304 C295 1.268 . S
O305 Sc286 2.105 . S
O305 C291 1.268 . S
O306 Sc288 2.105 . S
O306 C290 1.268 . S
O307 Sc287 2.105 . S
O307 C292 1.268 . S
Sc308 O311 2.025 . S
Sc308 O318 2.105 . S
Sc308 O321 2.105 . S
Sc308 O324 2.105 . S
Sc308 O327 2.105 . S
Sc309 O311 2.025 . S
Sc309 O319 2.105 . S
Sc309 O323 2.105 . S
Sc309 O325 2.105 . S
Sc309 O329 2.105 . S
Sc310 O311 2.025 . S
Sc310 O320 2.105 . S
Sc310 O322 2.105 . S
Sc310 O326 2.105 . S
Sc310 O328 2.105 . S
O311 Sc308 2.025 . S
O311 Sc309 2.025 . S
O311 Sc310 2.025 . S
C312 O318 1.268 . S
C312 O328 1.268 . S
C313 O319 1.268 . S
C313 O327 1.268 . S
C314 O320 1.268 . S
C314 O329 1.268 . S
C315 O321 1.268 . S
C315 O325 1.268 . S
C316 O322 1.268 . S
C316 O324 1.268 . S
C317 O323 1.268 . S
C317 O326 1.268 . S
O318 Sc308 2.105 . S
O318 C312 1.268 . S
O319 Sc309 2.105 . S
O319 C313 1.268 . S
O320 Sc310 2.105 . S
O320 C314 1.268 . S
O321 Sc308 2.105 . S
O321 C315 1.268 . S
O322 Sc310 2.105 . S
O322 C316 1.268 . S
O323 Sc309 2.105 . S
O323 C317 1.268 . S
O324 Sc308 2.105 . S
O324 C316 1.268 . S
O325 Sc309 2.105 . S
O325 C315 1.268 . S
O326 Sc310 2.105 . S
O326 C317 1.268 . S
O327 Sc308 2.105 . S
O327 C313 1.268 . S
O328 Sc310 2.105 . S
O328 C312 1.268 . S
O329 Sc309 2.105 . S
O329 C314 1.268 . S
Sc330 O333 2.025 . S
Sc330 O340 2.105 . S
Sc330 O343 2.105 . S
Sc330 O346 2.105 . S
Sc330 O349 2.105 . S
Sc331 O333 2.025 . S
Sc331 O341 2.105 . S
Sc331 O345 2.105 1_655 S
Sc331 O347 2.105 . S
Sc331 O351 2.105 1_655 S
Sc332 O333 2.025 1_455 S
Sc332 O342 2.105 . S
Sc332 O344 2.105 . S
Sc332 O348 2.105 . S
Sc332 O350 2.105 1_455 S
O333 Sc330 2.025 . S
O333 Sc331 2.025 . S
O333 Sc332 2.025 1_655 S
C334 O340 1.268 . S
C334 O350 1.268 . S
C335 O341 1.268 . S
C335 O349 1.268 . S
C336 O342 1.268 . S
C336 O351 1.268 . S
C337 O343 1.268 . S
C337 O347 1.268 . S
C338 O344 1.268 1_655 S
C338 O346 1.268 . S
C339 O345 1.268 . S
C339 O348 1.268 . S
O340 Sc330 2.105 . S
O340 C334 1.268 . S
O341 Sc331 2.105 . S
O341 C335 1.268 . S
O342 Sc332 2.105 . S
O342 C336 1.268 . S
O343 Sc330 2.105 . S
O343 C337 1.268 . S
O344 Sc332 2.105 . S
O344 C338 1.268 1_455 S
O345 Sc331 2.105 1_455 S
O345 C339 1.268 . S
O346 Sc330 2.105 . S
O346 C338 1.268 . S
O347 Sc331 2.105 . S
O347 C337 1.268 . S
O348 Sc332 2.105 . S
O348 C339 1.268 . S
O349 Sc330 2.105 . S
O349 C335 1.268 . S
O350 Sc332 2.105 1_655 S
O350 C334 1.268 . S
O351 Sc331 2.105 1_455 S
O351 C336 1.268 . S
Sc352 O355 2.025 . S
Sc352 O362 2.105 . S
Sc352 O365 2.105 . S
Sc352 O368 2.105 . S
Sc352 O371 2.105 . S
Sc353 O355 2.025 . S
Sc353 O363 2.105 . S
Sc353 O367 2.105 . S
Sc353 O369 2.105 . S
Sc353 O373 2.105 . S
Sc354 O355 2.025 . S
Sc354 O364 2.105 . S
Sc354 O366 2.105 . S
Sc354 O370 2.105 . S
Sc354 O372 2.105 . S
O355 Sc352 2.025 . S
O355 Sc353 2.025 . S
O355 Sc354 2.025 . S
C356 O362 1.268 . S
C356 O372 1.268 . S
C357 O363 1.268 . S
C357 O371 1.268 . S
C358 O364 1.268 . S
C358 O373 1.268 . S
C359 O365 1.268 . S
C359 O369 1.268 . S
C360 O366 1.268 . S
C360 O368 1.268 . S
C361 O367 1.268 . S
C361 O370 1.268 . S
O362 Sc352 2.105 . S
O362 C356 1.268 . S
O363 Sc353 2.105 . S
O363 C357 1.268 . S
O364 Sc354 2.105 . S
O364 C358 1.268 . S
O365 Sc352 2.105 . S
O365 C359 1.268 . S
O366 Sc354 2.105 . S
O366 C360 1.268 . S
O367 Sc353 2.105 . S
O367 C361 1.268 . S
O368 Sc352 2.105 . S
O368 C360 1.268 . S
O369 Sc353 2.105 . S
O369 C359 1.268 . S
O370 Sc354 2.105 . S
O370 C361 1.268 . S
O371 Sc352 2.105 . S
O371 C357 1.268 . S
O372 Sc354 2.105 . S
O372 C356 1.268 . S
O373 Sc353 2.105 . S
O373 C358 1.268 . S
Sc374 O377 2.025 . S
Sc374 O384 2.105 . S
Sc374 O387 2.105 . S
Sc374 O390 2.105 . S
Sc374 O393 2.105 . S
Sc375 O377 2.025 . S
Sc375 O385 2.105 . S
Sc375 O389 2.105 . S
Sc375 O391 2.105 . S
Sc375 O395 2.105 . S
Sc376 O377 2.025 . S
Sc376 O386 2.105 . S
Sc376 O388 2.105 . S
Sc376 O392 2.105 . S
Sc376 O394 2.105 . S
O377 Sc374 2.025 . S
O377 Sc375 2.025 . S
O377 Sc376 2.025 . S
C378 O384 1.268 . S
C378 O394 1.268 . S
C379 O385 1.268 . S
C379 O393 1.268 . S
C380 O386 1.268 . S
C380 O395 1.268 . S
C381 O387 1.268 . S
C381 O391 1.268 . S
C382 O388 1.268 . S
C382 O390 1.268 . S
C383 O389 1.268 . S
C383 O392 1.268 . S
O384 Sc374 2.105 . S
O384 C378 1.268 . S
O385 Sc375 2.105 . S
O385 C379 1.268 . S
O386 Sc376 2.105 . S
O386 C380 1.268 . S
O387 Sc374 2.105 . S
O387 C381 1.268 . S
O388 Sc376 2.105 . S
O388 C382 1.268 . S
O389 Sc375 2.105 . S
O389 C383 1.268 . S
O390 Sc374 2.105 . S
O390 C382 1.268 . S
O391 Sc375 2.105 . S
O391 C381 1.268 . S
O392 Sc376 2.105 . S
O392 C383 1.268 . S
O393 Sc374 2.105 . S
O393 C379 1.268 . S
O394 Sc376 2.105 . S
O394 C378 1.268 . S
O395 Sc375 2.105 . S
O395 C380 1.268 . S
Sc396 O399 2.025 1_556 S
Sc396 O406 2.105 . S
Sc396 O409 2.105 . S
Sc396 O412 2.105 1_556 S
Sc396 O415 2.105 . S
Sc397 O399 2.025 . S
Sc397 O407 2.105 1_554 S
Sc397 O411 2.105 . S
Sc397 O413 2.105 1_554 S
Sc397 O417 2.105 . S
Sc398 O399 2.025 . S
Sc398 O408 2.105 . S
Sc398 O410 2.105 . S
Sc398 O414 2.105 . S
Sc398 O416 2.105 . S
O399 Sc396 2.025 1_554 S
O399 Sc397 2.025 . S
O399 Sc398 2.025 . S
C400 O406 1.268 1_554 S
C400 O416 1.268 . S
C401 O407 1.268 . S
C401 O415 1.268 . S
C402 O408 1.268 . S
C402 O417 1.268 . S
C403 O409 1.268 . S
C403 O413 1.268 . S
C404 O410 1.268 . S
C404 O412 1.268 . S
C405 O411 1.268 . S
C405 O414 1.268 . S
O406 Sc396 2.105 . S
O406 C400 1.268 1_556 S
O407 Sc397 2.105 1_556 S
O407 C401 1.268 . S
O408 Sc398 2.105 . S
O408 C402 1.268 . S
O409 Sc396 2.105 . S
O409 C403 1.268 . S
O410 Sc398 2.105 . S
O410 C404 1.268 . S
O411 Sc397 2.105 . S
O411 C405 1.268 . S
O412 Sc396 2.105 1_554 S
O412 C404 1.268 . S
O413 Sc397 2.105 1_556 S
O413 C403 1.268 . S
O414 Sc398 2.105 . S
O414 C405 1.268 . S
O415 Sc396 2.105 . S
O415 C401 1.268 . S
O416 Sc398 2.105 . S
O416 C400 1.268 . S
O417 Sc397 2.105 . S
O417 C402 1.268 . S
Sc418 O421 2.025 . S
Sc418 O428 2.105 . S
Sc418 O431 2.105 . S
Sc418 O434 2.105 . S
Sc418 O437 2.105 . S
Sc419 O421 2.025 . S
Sc419 O429 2.105 . S
Sc419 O433 2.105 . S
Sc419 O435 2.105 . S
Sc419 O439 2.105 . S
Sc420 O421 2.025 . S
Sc420 O430 2.105 . S
Sc420 O432 2.105 . S
Sc420 O436 2.105 . S
Sc420 O438 2.105 . S
O421 Sc418 2.025 . S
O421 Sc419 2.025 . S
O421 Sc420 2.025 . S
C422 O428 1.268 . S
C422 O438 1.268 . S
C423 O429 1.268 . S
C423 O437 1.268 . S
C424 O430 1.268 . S
C424 O439 1.268 . S
C425 O431 1.268 . S
C425 O435 1.268 . S
C426 O432 1.268 . S
C426 O434 1.268 . S
C427 O433 1.268 . S
C427 O436 1.268 . S
O428 Sc418 2.105 . S
O428 C422 1.268 . S
O429 Sc419 2.105 . S
O429 C423 1.268 . S
O430 Sc420 2.105 . S
O430 C424 1.268 . S
O431 Sc418 2.105 . S
O431 C425 1.268 . S
O432 Sc420 2.105 . S
O432 C426 1.268 . S
O433 Sc419 2.105 . S
O433 C427 1.268 . S
O434 Sc418 2.105 . S
O434 C426 1.268 . S
O435 Sc419 2.105 . S
O435 C425 1.268 . S
O436 Sc420 2.105 . S
O436 C427 1.268 . S
O437 Sc418 2.105 . S
O437 C423 1.268 . S
O438 Sc420 2.105 . S
O438 C422 1.268 . S
O439 Sc419 2.105 . S
O439 C424 1.268 . S
Sc440 O443 2.025 . S
Sc440 O450 2.105 . S
Sc440 O453 2.105 . S
Sc440 O456 2.105 . S
Sc440 O459 2.105 . S
Sc441 O443 2.025 . S
Sc441 O451 2.105 . S
Sc441 O455 2.105 . S
Sc441 O457 2.105 . S
Sc441 O461 2.105 . S
Sc442 O443 2.025 . S
Sc442 O452 2.105 . S
Sc442 O454 2.105 . S
Sc442 O458 2.105 . S
Sc442 O460 2.105 . S
O443 Sc440 2.025 . S
O443 Sc441 2.025 . S
O443 Sc442 2.025 . S
C444 O450 1.268 . S
C444 O460 1.268 . S
C445 O451 1.268 . S
C445 O459 1.268 . S
C446 O452 1.268 . S
C446 O461 1.268 . S
C447 O453 1.268 . S
C447 O457 1.268 . S
C448 O454 1.268 . S
C448 O456 1.268 . S
C449 O455 1.268 . S
C449 O458 1.268 . S
O450 Sc440 2.105 . S
O450 C444 1.268 . S
O451 Sc441 2.105 . S
O451 C445 1.268 . S
O452 Sc442 2.105 . S
O452 C446 1.268 . S
O453 Sc440 2.105 . S
O453 C447 1.268 . S
O454 Sc442 2.105 . S
O454 C448 1.268 . S
O455 Sc441 2.105 . S
O455 C449 1.268 . S
O456 Sc440 2.105 . S
O456 C448 1.268 . S
O457 Sc441 2.105 . S
O457 C447 1.268 . S
O458 Sc442 2.105 . S
O458 C449 1.268 . S
O459 Sc440 2.105 . S
O459 C445 1.268 . S
O460 Sc442 2.105 . S
O460 C444 1.268 . S
O461 Sc441 2.105 . S
O461 C446 1.268 . S
Sc462 O465 2.025 . S
Sc462 O472 2.105 . S
Sc462 O475 2.105 . S
Sc462 O478 2.105 . S
Sc462 O481 2.105 . S
Sc463 O465 2.025 . S
Sc463 O473 2.105 . S
Sc463 O477 2.105 . S
Sc463 O479 2.105 . S
Sc463 O483 2.105 . S
Sc464 O465 2.025 . S
Sc464 O474 2.105 . S
Sc464 O476 2.105 . S
Sc464 O480 2.105 . S
Sc464 O482 2.105 . S
O465 Sc462 2.025 . S
O465 Sc463 2.025 . S
O465 Sc464 2.025 . S
C466 O472 1.268 . S
C466 O482 1.268 . S
C467 O473 1.268 . S
C467 O481 1.268 . S
C468 O474 1.268 . S
C468 O483 1.268 . S
C469 O475 1.268 . S
C469 O479 1.268 . S
C470 O476 1.268 . S
C470 O478 1.268 . S
C471 O477 1.268 . S
C471 O480 1.268 . S
O472 Sc462 2.105 . S
O472 C466 1.268 . S
O473 Sc463 2.105 . S
O473 C467 1.268 . S
O474 Sc464 2.105 . S
O474 C468 1.268 . S
O475 Sc462 2.105 . S
O475 C469 1.268 . S
O476 Sc464 2.105 . S
O476 C470 1.268 . S
O477 Sc463 2.105 . S
O477 C471 1.268 . S
O478 Sc462 2.105 . S
O478 C470 1.268 . S
O479 Sc463 2.105 . S
O479 C469 1.268 . S
O480 Sc464 2.105 . S
O480 C471 1.268 . S
O481 Sc462 2.105 . S
O481 C467 1.268 . S
O482 Sc464 2.105 . S
O482 C466 1.268 . S
O483 Sc463 2.105 . S
O483 C468 1.268 . S
Sc484 O487 2.025 . S
Sc484 O494 2.105 . S
Sc484 O497 2.105 . S
Sc484 O500 2.105 . S
Sc484 O503 2.105 . S
Sc485 O487 2.025 . S
Sc485 O495 2.105 . S
Sc485 O499 2.105 . S
Sc485 O501 2.105 . S
Sc485 O505 2.105 . S
Sc486 O487 2.025 . S
Sc486 O496 2.105 . S
Sc486 O498 2.105 . S
Sc486 O502 2.105 . S
Sc486 O504 2.105 . S
O487 Sc484 2.025 . S
O487 Sc485 2.025 . S
O487 Sc486 2.025 . S
C488 O494 1.268 . S
C488 O504 1.268 . S
C489 O495 1.268 . S
C489 O503 1.268 . S
C490 O496 1.268 . S
C490 O505 1.268 . S
C491 O497 1.268 . S
C491 O501 1.268 . S
C492 O498 1.268 . S
C492 O500 1.268 . S
C493 O499 1.268 . S
C493 O502 1.268 . S
O494 Sc484 2.105 . S
O494 C488 1.268 . S
O495 Sc485 2.105 . S
O495 C489 1.268 . S
O496 Sc486 2.105 . S
O496 C490 1.268 . S
O497 Sc484 2.105 . S
O497 C491 1.268 . S
O498 Sc486 2.105 . S
O498 C492 1.268 . S
O499 Sc485 2.105 . S
O499 C493 1.268 . S
O500 Sc484 2.105 . S
O500 C492 1.268 . S
O501 Sc485 2.105 . S
O501 C491 1.268 . S
O502 Sc486 2.105 . S
O502 C493 1.268 . S
O503 Sc484 2.105 . S
O503 C489 1.268 . S
O504 Sc486 2.105 . S
O504 C488 1.268 . S
O505 Sc485 2.105 . S
O505 C490 1.268 . S
Sc506 O509 2.025 . S
Sc506 O516 2.105 . S
Sc506 O519 2.105 . S
Sc506 O522 2.105 . S
Sc506 O525 2.105 . S
Sc507 O509 2.025 . S
Sc507 O517 2.105 . S
Sc507 O521 2.105 . S
Sc507 O523 2.105 . S
Sc507 O527 2.105 . S
Sc508 O509 2.025 . S
Sc508 O518 2.105 . S
Sc508 O520 2.105 . S
Sc508 O524 2.105 . S
Sc508 O526 2.105 . S
O509 Sc506 2.025 . S
O509 Sc507 2.025 . S
O509 Sc508 2.025 . S
C510 O516 1.268 . S
C510 O526 1.268 . S
C511 O517 1.268 . S
C511 O525 1.268 . S
C512 O518 1.268 . S
C512 O527 1.268 . S
C513 O519 1.268 . S
C513 O523 1.268 . S
C514 O520 1.268 . S
C514 O522 1.268 . S
C515 O521 1.268 . S
C515 O524 1.268 . S
O516 Sc506 2.105 . S
O516 C510 1.268 . S
O517 Sc507 2.105 . S
O517 C511 1.268 . S
O518 Sc508 2.105 . S
O518 C512 1.268 . S
O519 Sc506 2.105 . S
O519 C513 1.268 . S
O520 Sc508 2.105 . S
O520 C514 1.268 . S
O521 Sc507 2.105 . S
O521 C515 1.268 . S
O522 Sc506 2.105 . S
O522 C514 1.268 . S
O523 Sc507 2.105 . S
O523 C513 1.268 . S
O524 Sc508 2.105 . S
O524 C515 1.268 . S
O525 Sc506 2.105 . S
O525 C511 1.268 . S
O526 Sc508 2.105 . S
O526 C510 1.268 . S
O527 Sc507 2.105 . S
O527 C512 1.268 . S
H528 C534 0.930 . S
H529 C538 0.930 . S
H530 C543 0.929 . S
H531 C541 0.929 . S
H532 C536 0.929 . S
H533 C542 0.929 . S
C534 H528 0.930 . S
C534 C535 1.367 . S
C534 C542 1.378 . S
C535 C534 1.367 . S
C535 C543 1.433 . S
C536 H532 0.929 . S
C536 C538 1.378 . S
C536 C540 1.350 . S
C537 C540 1.463 . S
C537 C542 1.350 . S
C537 N545 1.427 . S
C538 H529 0.930 . S
C538 C536 1.378 . S
C538 C539 1.367 . S
C539 C538 1.367 . S
C539 C541 1.433 . S
C540 C536 1.350 . S
C540 C537 1.463 . S
C540 N544 1.427 . S
C541 H531 0.929 . S
C541 C539 1.433 . S
C541 N544 1.384 . S
C542 H533 0.929 . S
C542 C534 1.378 . S
C542 C537 1.350 . S
C543 H530 0.929 . S
C543 C535 1.433 . S
C543 N545 1.384 . S
N544 C540 1.427 . S
N544 C541 1.384 . S
N545 C537 1.427 . S
N545 C543 1.384 . S
H546 C552 0.930 . S
H547 C556 0.930 . S
H548 C561 0.929 . S
H549 C559 0.929 . S
H550 C554 0.929 . S
H551 C560 0.929 . S
C552 H546 0.930 . S
C552 C553 1.367 . S
C552 C560 1.378 . S
C553 C552 1.367 . S
C553 C561 1.433 . S
C554 H550 0.929 . S
C554 C556 1.378 . S
C554 C558 1.350 . S
C555 C558 1.463 . S
C555 C560 1.350 . S
C555 N563 1.427 . S
C556 H547 0.930 . S
C556 C554 1.378 . S
C556 C557 1.367 . S
C557 C556 1.367 . S
C557 C559 1.433 . S
C558 C554 1.350 . S
C558 C555 1.463 . S
C558 N562 1.427 . S
C559 H549 0.929 . S
C559 C557 1.433 . S
C559 N562 1.384 . S
C560 H551 0.929 . S
C560 C552 1.378 . S
C560 C555 1.350 . S
C561 H548 0.929 . S
C561 C553 1.433 . S
C561 N563 1.384 . S
N562 C558 1.427 . S
N562 C559 1.384 . S
N563 C555 1.427 . S
N563 C561 1.384 . S
H564 C570 0.930 . S
H565 C574 0.930 . S
H566 C579 0.929 . S
H567 C577 0.929 . S
H568 C572 0.929 . S
H569 C578 0.929 . S
C570 H564 0.930 . S
C570 C571 1.367 . S
C570 C578 1.378 . S
C571 C570 1.367 . S
C571 C579 1.433 . S
C572 H568 0.929 . S
C572 C574 1.378 . S
C572 C576 1.350 . S
C573 C576 1.463 . S
C573 C578 1.350 . S
C573 N581 1.427 . S
C574 H565 0.930 . S
C574 C572 1.378 . S
C574 C575 1.367 . S
C575 C574 1.367 . S
C575 C577 1.433 . S
C576 C572 1.350 . S
C576 C573 1.463 . S
C576 N580 1.427 . S
C577 H567 0.929 . S
C577 C575 1.433 . S
C577 N580 1.384 . S
C578 H569 0.929 . S
C578 C570 1.378 . S
C578 C573 1.350 . S
C579 H566 0.929 . S
C579 C571 1.433 . S
C579 N581 1.384 . S
N580 C576 1.427 . S
N580 C577 1.384 . S
N581 C573 1.427 . S
N581 C579 1.384 . S
H582 C588 0.930 . S
H583 C592 0.930 . S
H584 C597 0.929 . S
H585 C595 0.929 . S
H586 C590 0.929 . S
H587 C596 0.929 . S
C588 H582 0.930 . S
C588 C589 1.367 . S
C588 C596 1.378 . S
C589 C588 1.367 . S
C589 C597 1.433 . S
C590 H586 0.929 . S
C590 C592 1.378 . S
C590 C594 1.350 . S
C591 C594 1.463 . S
C591 C596 1.350 . S
C591 N599 1.427 . S
C592 H583 0.930 . S
C592 C590 1.378 . S
C592 C593 1.367 . S
C593 C592 1.367 . S
C593 C595 1.433 . S
C594 C590 1.350 . S
C594 C591 1.463 . S
C594 N598 1.427 . S
C595 H585 0.929 . S
C595 C593 1.433 . S
C595 N598 1.384 . S
C596 H587 0.929 . S
C596 C588 1.378 . S
C596 C591 1.350 . S
C597 H584 0.929 . S
C597 C589 1.433 . S
C597 N599 1.384 . S
N598 C594 1.427 . S
N598 C595 1.384 . S
N599 C591 1.427 . S
N599 C597 1.384 . S
H600 C606 0.930 . S
H601 C610 0.930 . S
H602 C615 0.929 . S
H603 C613 0.929 . S
H604 C608 0.929 . S
H605 C614 0.929 . S
C606 H600 0.930 . S
C606 C607 1.367 . S
C606 C614 1.378 . S
C607 C606 1.367 . S
C607 C615 1.433 . S
C608 H604 0.929 . S
C608 C610 1.378 . S
C608 C612 1.350 . S
C609 C612 1.463 . S
C609 C614 1.350 . S
C609 N617 1.427 . S
C610 H601 0.930 . S
C610 C608 1.378 . S
C610 C611 1.367 . S
C611 C610 1.367 . S
C611 C613 1.433 . S
C612 C608 1.350 . S
C612 C609 1.463 . S
C612 N616 1.427 . S
C613 H603 0.929 . S
C613 C611 1.433 . S
C613 N616 1.384 . S
C614 H605 0.929 . S
C614 C606 1.378 . S
C614 C609 1.350 . S
C615 H602 0.929 . S
C615 C607 1.433 . S
C615 N617 1.384 . S
N616 C612 1.427 . S
N616 C613 1.384 . S
N617 C609 1.427 . S
N617 C615 1.384 . S
H618 C624 0.930 . S
H619 C628 0.930 . S
H620 C633 0.929 . S
H621 C631 0.929 . S
H622 C626 0.929 . S
H623 C632 0.929 . S
C624 H618 0.930 . S
C624 C625 1.367 . S
C624 C632 1.378 . S
C625 C624 1.367 . S
C625 C633 1.433 . S
C626 H622 0.929 . S
C626 C628 1.378 . S
C626 C630 1.350 . S
C627 C630 1.463 . S
C627 C632 1.350 . S
C627 N635 1.427 . S
C628 H619 0.930 . S
C628 C626 1.378 . S
C628 C629 1.367 . S
C629 C628 1.367 . S
C629 C631 1.433 . S
C630 C626 1.350 . S
C630 C627 1.463 . S
C630 N634 1.427 . S
C631 H621 0.929 . S
C631 C629 1.433 . S
C631 N634 1.384 . S
C632 H623 0.929 . S
C632 C624 1.378 . S
C632 C627 1.350 . S
C633 H620 0.929 . S
C633 C625 1.433 . S
C633 N635 1.384 . S
N634 C630 1.427 . S
N634 C631 1.384 . S
N635 C627 1.427 . S
N635 C633 1.384 . S
H636 C642 0.930 . S
H637 C646 0.930 . S
H638 C651 0.929 . S
H639 C649 0.929 . S
H640 C644 0.929 . S
H641 C650 0.929 . S
C642 H636 0.930 . S
C642 C643 1.367 . S
C642 C650 1.378 . S
C643 C642 1.367 . S
C643 C651 1.433 . S
C644 H640 0.929 . S
C644 C646 1.378 . S
C644 C648 1.350 . S
C645 C648 1.463 . S
C645 C650 1.350 . S
C645 N653 1.427 . S
C646 H637 0.930 . S
C646 C644 1.378 . S
C646 C647 1.367 . S
C647 C646 1.367 . S
C647 C649 1.433 . S
C648 C644 1.350 . S
C648 C645 1.463 . S
C648 N652 1.427 . S
C649 H639 0.929 . S
C649 C647 1.433 . S
C649 N652 1.384 . S
C650 H641 0.929 . S
C650 C642 1.378 . S
C650 C645 1.350 . S
C651 H638 0.929 . S
C651 C643 1.433 . S
C651 N653 1.384 . S
N652 C648 1.427 . S
N652 C649 1.384 . S
N653 C645 1.427 . S
N653 C651 1.384 . S
H654 C660 0.930 . S
H655 C664 0.930 . S
H656 C669 0.929 . S
H657 C667 0.929 . S
H658 C662 0.929 . S
H659 C668 0.929 . S
C660 H654 0.930 . S
C660 C661 1.367 . S
C660 C668 1.378 . S
C661 C660 1.367 . S
C661 C669 1.433 . S
C662 H658 0.929 . S
C662 C664 1.378 . S
C662 C666 1.350 . S
C663 C666 1.463 . S
C663 C668 1.350 . S
C663 N671 1.427 . S
C664 H655 0.930 . S
C664 C662 1.378 . S
C664 C665 1.367 . S
C665 C664 1.367 . S
C665 C667 1.433 . S
C666 C662 1.350 . S
C666 C663 1.463 . S
C666 N670 1.427 . S
C667 H657 0.929 . S
C667 C665 1.433 . S
C667 N670 1.384 . S
C668 H659 0.929 . S
C668 C660 1.378 . S
C668 C663 1.350 . S
C669 H656 0.929 . S
C669 C661 1.433 . S
C669 N671 1.384 . S
N670 C666 1.427 . S
N670 C667 1.384 . S
N671 C663 1.427 . S
N671 C669 1.384 . S
H672 C678 0.930 . S
H673 C682 0.930 . S
H674 C687 0.929 . S
H675 C685 0.929 . S
H676 C680 0.929 . S
H677 C686 0.929 . S
C678 H672 0.930 . S
C678 C679 1.367 . S
C678 C686 1.378 . S
C679 C678 1.367 . S
C679 C687 1.433 . S
C680 H676 0.929 . S
C680 C682 1.378 . S
C680 C684 1.350 . S
C681 C684 1.463 . S
C681 C686 1.350 . S
C681 N689 1.427 . S
C682 H673 0.930 . S
C682 C680 1.378 . S
C682 C683 1.367 . S
C683 C682 1.367 . S
C683 C685 1.433 . S
C684 C680 1.350 . S
C684 C681 1.463 . S
C684 N688 1.427 . S
C685 H675 0.929 . S
C685 C683 1.433 . S
C685 N688 1.384 . S
C686 H677 0.929 . S
C686 C678 1.378 . S
C686 C681 1.350 . S
C687 H674 0.929 . S
C687 C679 1.433 . S
C687 N689 1.384 . S
N688 C684 1.427 . S
N688 C685 1.384 . S
N689 C681 1.427 . S
N689 C687 1.384 . S
H690 C696 0.930 . S
H691 C700 0.930 . S
H692 C705 0.929 . S
H693 C703 0.929 . S
H694 C698 0.929 . S
H695 C704 0.929 . S
C696 H690 0.930 . S
C696 C697 1.367 . S
C696 C704 1.378 . S
C697 C696 1.367 . S
C697 C705 1.433 . S
C698 H694 0.929 . S
C698 C700 1.378 . S
C698 C702 1.350 . S
C699 C702 1.463 . S
C699 C704 1.350 . S
C699 N707 1.427 . S
C700 H691 0.930 . S
C700 C698 1.378 . S
C700 C701 1.367 . S
C701 C700 1.367 . S
C701 C703 1.433 . S
C702 C698 1.350 . S
C702 C699 1.463 . S
C702 N706 1.427 . S
C703 H693 0.929 . S
C703 C701 1.433 . S
C703 N706 1.384 . S
C704 H695 0.929 . S
C704 C696 1.378 . S
C704 C699 1.350 . S
C705 H692 0.929 . S
C705 C697 1.433 . S
C705 N707 1.384 . S
N706 C702 1.427 . S
N706 C703 1.384 . S
N707 C699 1.427 . S
N707 C705 1.384 . S
H708 C714 0.930 . S
H709 C718 0.930 . S
H710 C723 0.929 . S
H711 C721 0.929 . S
H712 C716 0.929 . S
H713 C722 0.929 . S
C714 H708 0.930 . S
C714 C715 1.367 . S
C714 C722 1.378 . S
C715 C714 1.367 . S
C715 C723 1.433 . S
C716 H712 0.929 . S
C716 C718 1.378 . S
C716 C720 1.350 . S
C717 C720 1.463 . S
C717 C722 1.350 . S
C717 N725 1.427 . S
C718 H709 0.930 . S
C718 C716 1.378 . S
C718 C719 1.367 . S
C719 C718 1.367 . S
C719 C721 1.433 . S
C720 C716 1.350 . S
C720 C717 1.463 . S
C720 N724 1.427 . S
C721 H711 0.929 . S
C721 C719 1.433 . S
C721 N724 1.384 . S
C722 H713 0.929 . S
C722 C714 1.378 . S
C722 C717 1.350 . S
C723 H710 0.929 . S
C723 C715 1.433 . S
C723 N725 1.384 . S
N724 C720 1.427 . S
N724 C721 1.384 . S
N725 C717 1.427 . S
N725 C723 1.384 . S
H726 C732 0.930 . S
H727 C736 0.930 . S
H728 C741 0.929 . S
H729 C739 0.929 . S
H730 C734 0.929 . S
H731 C740 0.929 . S
C732 H726 0.930 . S
C732 C733 1.367 . S
C732 C740 1.378 . S
C733 C732 1.367 . S
C733 C741 1.433 . S
C734 H730 0.929 . S
C734 C736 1.378 . S
C734 C738 1.350 . S
C735 C738 1.463 . S
C735 C740 1.350 . S
C735 N743 1.427 . S
C736 H727 0.930 . S
C736 C734 1.378 . S
C736 C737 1.367 . S
C737 C736 1.367 . S
C737 C739 1.433 . S
C738 C734 1.350 . S
C738 C735 1.463 . S
C738 N742 1.427 . S
C739 H729 0.929 . S
C739 C737 1.433 . S
C739 N742 1.384 . S
C740 H731 0.929 . S
C740 C732 1.378 . S
C740 C735 1.350 . S
C741 H728 0.929 . S
C741 C733 1.433 . S
C741 N743 1.384 . S
N742 C738 1.427 . S
N742 C739 1.384 . S
N743 C735 1.427 . S
N743 C741 1.384 . S
H744 C750 0.930 . S
H745 C754 0.930 . S
H746 C759 0.929 . S
H747 C757 0.929 . S
H748 C752 0.929 . S
H749 C758 0.929 . S
C750 H744 0.930 . S
C750 C751 1.367 . S
C750 C758 1.378 . S
C751 C750 1.367 . S
C751 C759 1.433 . S
C752 H748 0.929 . S
C752 C754 1.378 . S
C752 C756 1.350 . S
C753 C756 1.463 . S
C753 C758 1.350 . S
C753 N761 1.427 . S
C754 H745 0.930 . S
C754 C752 1.378 . S
C754 C755 1.367 . S
C755 C754 1.367 . S
C755 C757 1.433 . S
C756 C752 1.350 . S
C756 C753 1.463 . S
C756 N760 1.427 . S
C757 H747 0.929 . S
C757 C755 1.433 . S
C757 N760 1.384 . S
C758 H749 0.929 . S
C758 C750 1.378 . S
C758 C753 1.350 . S
C759 H746 0.929 . S
C759 C751 1.433 . S
C759 N761 1.384 . S
N760 C756 1.427 . S
N760 C757 1.384 . S
N761 C753 1.427 . S
N761 C759 1.384 . S
H762 C768 0.930 . S
H763 C772 0.930 . S
H764 C777 0.929 . S
H765 C775 0.929 . S
H766 C770 0.929 . S
H767 C776 0.929 . S
C768 H762 0.930 . S
C768 C769 1.367 . S
C768 C776 1.378 . S
C769 C768 1.367 . S
C769 C777 1.433 . S
C770 H766 0.929 . S
C770 C772 1.378 . S
C770 C774 1.350 . S
C771 C774 1.463 . S
C771 C776 1.350 . S
C771 N779 1.427 . S
C772 H763 0.930 . S
C772 C770 1.378 . S
C772 C773 1.367 . S
C773 C772 1.367 . S
C773 C775 1.433 . S
C774 C770 1.350 . S
C774 C771 1.463 . S
C774 N778 1.427 . S
C775 H765 0.929 . S
C775 C773 1.433 . S
C775 N778 1.384 . S
C776 H767 0.929 . S
C776 C768 1.378 . S
C776 C771 1.350 . S
C777 H764 0.929 . S
C777 C769 1.433 . S
C777 N779 1.384 . S
N778 C774 1.427 . S
N778 C775 1.384 . S
N779 C771 1.427 . S
N779 C777 1.384 . S
H780 C786 0.930 . S
H781 C790 0.930 . S
H782 C795 0.929 . S
H783 C793 0.929 . S
H784 C788 0.929 . S
H785 C794 0.929 . S
C786 H780 0.930 . S
C786 C787 1.367 . S
C786 C794 1.378 . S
C787 C786 1.367 . S
C787 C795 1.433 . S
C788 H784 0.929 . S
C788 C790 1.378 . S
C788 C792 1.350 . S
C789 C792 1.463 . S
C789 C794 1.350 . S
C789 N797 1.427 . S
C790 H781 0.930 . S
C790 C788 1.378 . S
C790 C791 1.367 . S
C791 C790 1.367 . S
C791 C793 1.433 . S
C792 C788 1.350 . S
C792 C789 1.463 . S
C792 N796 1.427 . S
C793 H783 0.929 . S
C793 C791 1.433 . S
C793 N796 1.384 . S
C794 H785 0.929 . S
C794 C786 1.378 . S
C794 C789 1.350 . S
C795 H782 0.929 . S
C795 C787 1.433 . S
C795 N797 1.384 . S
N796 C792 1.427 . S
N796 C793 1.384 . S
N797 C789 1.427 . S
N797 C795 1.384 . S
H798 C804 0.930 . S
H799 C808 0.930 . S
H800 C813 0.929 . S
H801 C811 0.929 . S
H802 C806 0.929 . S
H803 C812 0.929 . S
C804 H798 0.930 . S
C804 C805 1.367 . S
C804 C812 1.378 . S
C805 C804 1.367 . S
C805 C813 1.433 . S
C806 H802 0.929 . S
C806 C808 1.378 . S
C806 C810 1.350 . S
C807 C810 1.463 . S
C807 C812 1.350 . S
C807 N815 1.427 . S
C808 H799 0.930 . S
C808 C806 1.378 . S
C808 C809 1.367 . S
C809 C808 1.367 . S
C809 C811 1.433 . S
C810 C806 1.350 . S
C810 C807 1.463 . S
C810 N814 1.427 . S
C811 H801 0.929 . S
C811 C809 1.433 . S
C811 N814 1.384 . S
C812 H803 0.929 . S
C812 C804 1.378 . S
C812 C807 1.350 . S
C813 H800 0.929 . S
C813 C805 1.433 . S
C813 N815 1.384 . S
N814 C810 1.427 . S
N814 C811 1.384 . S
N815 C807 1.427 . S
N815 C813 1.384 . S
H816 C822 0.930 . S
H817 C826 0.930 . S
H818 C831 0.929 . S
H819 C829 0.929 . S
H820 C824 0.929 . S
H821 C830 0.929 . S
C822 H816 0.930 . S
C822 C823 1.367 . S
C822 C830 1.378 . S
C823 C822 1.367 . S
C823 C831 1.433 . S
C824 H820 0.929 . S
C824 C826 1.378 . S
C824 C828 1.350 . S
C825 C828 1.463 . S
C825 C830 1.350 . S
C825 N833 1.427 . S
C826 H817 0.930 . S
C826 C824 1.378 . S
C826 C827 1.367 . S
C827 C826 1.367 . S
C827 C829 1.433 . S
C828 C824 1.350 . S
C828 C825 1.463 . S
C828 N832 1.427 . S
C829 H819 0.929 . S
C829 C827 1.433 . S
C829 N832 1.384 . S
C830 H821 0.929 . S
C830 C822 1.378 . S
C830 C825 1.350 . S
C831 H818 0.929 . S
C831 C823 1.433 . S
C831 N833 1.384 . S
N832 C828 1.427 . S
N832 C829 1.384 . S
N833 C825 1.427 . S
N833 C831 1.384 . S
H834 C840 0.930 . S
H835 C844 0.930 . S
H836 C849 0.929 . S
H837 C847 0.929 . S
H838 C842 0.929 . S
H839 C848 0.929 . S
C840 H834 0.930 . S
C840 C841 1.367 . S
C840 C848 1.378 . S
C841 C840 1.367 . S
C841 C849 1.433 . S
C842 H838 0.929 . S
C842 C844 1.378 . S
C842 C846 1.350 . S
C843 C846 1.463 . S
C843 C848 1.350 . S
C843 N851 1.427 . S
C844 H835 0.930 . S
C844 C842 1.378 . S
C844 C845 1.367 . S
C845 C844 1.367 . S
C845 C847 1.433 . S
C846 C842 1.350 . S
C846 C843 1.463 . S
C846 N850 1.427 . S
C847 H837 0.929 . S
C847 C845 1.433 . S
C847 N850 1.384 . S
C848 H839 0.929 . S
C848 C840 1.378 . S
C848 C843 1.350 . S
C849 H836 0.929 . S
C849 C841 1.433 . S
C849 N851 1.384 . S
N850 C846 1.427 . S
N850 C847 1.384 . S
N851 C843 1.427 . S
N851 C849 1.384 . S
H852 C858 0.930 . S
H853 C862 0.930 . S
H854 C867 0.929 . S
H855 C865 0.929 . S
H856 C860 0.929 . S
H857 C866 0.929 . S
C858 H852 0.930 . S
C858 C859 1.367 . S
C858 C866 1.378 . S
C859 C858 1.367 . S
C859 C867 1.433 . S
C860 H856 0.929 . S
C860 C862 1.378 . S
C860 C864 1.350 . S
C861 C864 1.463 . S
C861 C866 1.350 . S
C861 N869 1.427 . S
C862 H853 0.930 . S
C862 C860 1.378 . S
C862 C863 1.367 . S
C863 C862 1.367 . S
C863 C865 1.433 . S
C864 C860 1.350 . S
C864 C861 1.463 . S
C864 N868 1.427 . S
C865 H855 0.929 . S
C865 C863 1.433 . S
C865 N868 1.384 . S
C866 H857 0.929 . S
C866 C858 1.378 . S
C866 C861 1.350 . S
C867 H854 0.929 . S
C867 C859 1.433 . S
C867 N869 1.384 . S
N868 C864 1.427 . S
N868 C865 1.384 . S
N869 C861 1.427 . S
N869 C867 1.384 . S
H870 C876 0.930 . S
H871 C880 0.930 . S
H872 C885 0.929 . S
H873 C883 0.929 . S
H874 C878 0.929 . S
H875 C884 0.929 . S
C876 H870 0.930 . S
C876 C877 1.367 . S
C876 C884 1.378 . S
C877 C876 1.367 . S
C877 C885 1.433 . S
C878 H874 0.929 . S
C878 C880 1.378 . S
C878 C882 1.350 . S
C879 C882 1.463 . S
C879 C884 1.350 . S
C879 N887 1.427 . S
C880 H871 0.930 . S
C880 C878 1.378 . S
C880 C881 1.367 . S
C881 C880 1.367 . S
C881 C883 1.433 . S
C882 C878 1.350 . S
C882 C879 1.463 . S
C882 N886 1.427 . S
C883 H873 0.929 . S
C883 C881 1.433 . S
C883 N886 1.384 . S
C884 H875 0.929 . S
C884 C876 1.378 . S
C884 C879 1.350 . S
C885 H872 0.929 . S
C885 C877 1.433 . S
C885 N887 1.384 . S
N886 C882 1.427 . S
N886 C883 1.384 . S
N887 C879 1.427 . S
N887 C885 1.384 . S
H888 C894 0.930 . S
H889 C898 0.930 . S
H890 C903 0.929 . S
H891 C901 0.929 . S
H892 C896 0.929 . S
H893 C902 0.929 . S
C894 H888 0.930 . S
C894 C895 1.367 . S
C894 C902 1.378 . S
C895 C894 1.367 . S
C895 C903 1.433 . S
C896 H892 0.929 . S
C896 C898 1.378 . S
C896 C900 1.350 . S
C897 C900 1.463 . S
C897 C902 1.350 . S
C897 N905 1.427 . S
C898 H889 0.930 . S
C898 C896 1.378 . S
C898 C899 1.367 . S
C899 C898 1.367 . S
C899 C901 1.433 . S
C900 C896 1.350 . S
C900 C897 1.463 . S
C900 N904 1.427 . S
C901 H891 0.929 . S
C901 C899 1.433 . S
C901 N904 1.384 . S
C902 H893 0.929 . S
C902 C894 1.378 . S
C902 C897 1.350 . S
C903 H890 0.929 . S
C903 C895 1.433 . S
C903 N905 1.384 . S
N904 C900 1.427 . S
N904 C901 1.384 . S
N905 C897 1.427 . S
N905 C903 1.384 . S
H906 C912 0.930 . S
H907 C916 0.930 . S
H908 C921 0.929 . S
H909 C919 0.929 . S
H910 C914 0.929 . S
H911 C920 0.929 . S
C912 H906 0.930 . S
C912 C913 1.367 . S
C912 C920 1.378 . S
C913 C912 1.367 . S
C913 C921 1.433 . S
C914 H910 0.929 . S
C914 C916 1.378 . S
C914 C918 1.350 . S
C915 C918 1.463 . S
C915 C920 1.350 . S
C915 N923 1.427 . S
C916 H907 0.930 . S
C916 C914 1.378 . S
C916 C917 1.367 . S
C917 C916 1.367 . S
C917 C919 1.433 . S
C918 C914 1.350 . S
C918 C915 1.463 . S
C918 N922 1.427 . S
C919 H909 0.929 . S
C919 C917 1.433 . S
C919 N922 1.384 . S
C920 H911 0.929 . S
C920 C912 1.378 . S
C920 C915 1.350 . S
C921 H908 0.929 . S
C921 C913 1.433 . S
C921 N923 1.384 . S
N922 C918 1.427 . S
N922 C919 1.384 . S
N923 C915 1.427 . S
N923 C921 1.384 . S
H924 C930 0.930 . S
H925 C934 0.930 . S
H926 C939 0.929 . S
H927 C937 0.929 . S
H928 C932 0.929 . S
H929 C938 0.929 . S
C930 H924 0.930 . S
C930 C931 1.367 . S
C930 C938 1.378 . S
C931 C930 1.367 . S
C931 C939 1.433 . S
C932 H928 0.929 . S
C932 C934 1.378 . S
C932 C936 1.350 . S
C933 C936 1.463 . S
C933 C938 1.350 . S
C933 N941 1.427 . S
C934 H925 0.930 . S
C934 C932 1.378 . S
C934 C935 1.367 . S
C935 C934 1.367 . S
C935 C937 1.433 . S
C936 C932 1.350 . S
C936 C933 1.463 . S
C936 N940 1.427 . S
C937 H927 0.929 . S
C937 C935 1.433 . S
C937 N940 1.384 . S
C938 H929 0.929 . S
C938 C930 1.378 . S
C938 C933 1.350 . S
C939 H926 0.929 . S
C939 C931 1.433 . S
C939 N941 1.384 . S
N940 C936 1.427 . S
N940 C937 1.384 . S
N941 C933 1.427 . S
N941 C939 1.384 . S
H942 C948 0.930 . S
H943 C952 0.930 . S
H944 C957 0.929 . S
H945 C955 0.929 . S
H946 C950 0.929 . S
H947 C956 0.929 . S
C948 H942 0.930 . S
C948 C949 1.367 . S
C948 C956 1.378 . S
C949 C948 1.367 . S
C949 C957 1.433 . S
C950 H946 0.929 . S
C950 C952 1.378 . S
C950 C954 1.350 . S
C951 C954 1.463 . S
C951 C956 1.350 . S
C951 N959 1.427 . S
C952 H943 0.930 . S
C952 C950 1.378 . S
C952 C953 1.367 . S
C953 C952 1.367 . S
C953 C955 1.433 . S
C954 C950 1.350 . S
C954 C951 1.463 . S
C954 N958 1.427 . S
C955 H945 0.929 . S
C955 C953 1.433 . S
C955 N958 1.384 . S
C956 H947 0.929 . S
C956 C948 1.378 . S
C956 C951 1.350 . S
C957 H944 0.929 . S
C957 C949 1.433 . S
C957 N959 1.384 . S
N958 C954 1.427 . S
N958 C955 1.384 . S
N959 C951 1.427 . S
N959 C957 1.384 . S
H960 C966 0.930 . S
H961 C970 0.930 . S
H962 C975 0.929 . S
H963 C973 0.929 . S
H964 C968 0.929 . S
H965 C974 0.929 . S
C966 H960 0.930 . S
C966 C967 1.367 1_455 S
C966 C974 1.378 . S
C967 C966 1.367 1_655 S
C967 C975 1.433 . S
C968 H964 0.929 . S
C968 C970 1.378 . S
C968 C972 1.350 . S
C969 C972 1.463 1_565 S
C969 C974 1.350 1_655 S
C969 N977 1.427 . S
C970 H961 0.930 . S
C970 C968 1.378 . S
C970 C971 1.367 . S
C971 C970 1.367 . S
C971 C973 1.433 1_655 S
C972 C968 1.350 . S
C972 C969 1.463 1_545 S
C972 N976 1.427 1_655 S
C973 H963 0.929 . S
C973 C971 1.433 1_455 S
C973 N976 1.384 . S
C974 H965 0.929 . S
C974 C966 1.378 . S
C974 C969 1.350 1_455 S
C975 H962 0.929 . S
C975 C967 1.433 . S
C975 N977 1.384 . S
N976 C972 1.427 1_455 S
N976 C973 1.384 . S
N977 C969 1.427 . S
N977 C975 1.384 . S
H978 C984 0.930 . S
H979 C988 0.930 . S
H980 C993 0.929 . S
H981 C991 0.929 . S
H982 C986 0.929 . S
H983 C992 0.929 . S
C984 H978 0.930 . S
C984 C985 1.367 . S
C984 C992 1.378 . S
C985 C984 1.367 . S
C985 C993 1.433 . S
C986 H982 0.929 . S
C986 C988 1.378 . S
C986 C990 1.350 . S
C987 C990 1.463 . S
C987 C992 1.350 . S
C987 N995 1.427 . S
C988 H979 0.930 . S
C988 C986 1.378 . S
C988 C989 1.367 . S
C989 C988 1.367 . S
C989 C991 1.433 . S
C990 C986 1.350 . S
C990 C987 1.463 . S
C990 N994 1.427 . S
C991 H981 0.929 . S
C991 C989 1.433 . S
C991 N994 1.384 . S
C992 H983 0.929 . S
C992 C984 1.378 . S
C992 C987 1.350 . S
C993 H980 0.929 . S
C993 C985 1.433 . S
C993 N995 1.384 . S
N994 C990 1.427 . S
N994 C991 1.384 . S
N995 C987 1.427 . S
N995 C993 1.384 . S
H996 C1002 0.930 . S
H997 C1006 0.930 . S
H998 C1011 0.929 . S
H999 C1009 0.929 . S
H1000 C1004 0.929 . S
H1001 C1010 0.929 . S
C1002 H996 0.930 . S
C1002 C1003 1.367 . S
C1002 C1010 1.378 . S
C1003 C1002 1.367 . S
C1003 C1011 1.433 . S
C1004 H1000 0.929 . S
C1004 C1006 1.378 . S
C1004 C1008 1.350 . S
C1005 C1008 1.463 1_565 S
C1005 C1010 1.350 . S
C1005 N1013 1.427 . S
C1006 H997 0.930 . S
C1006 C1004 1.378 . S
C1006 C1007 1.367 . S
C1007 C1006 1.367 . S
C1007 C1009 1.433 . S
C1008 C1004 1.350 . S
C1008 C1005 1.463 1_545 S
C1008 N1012 1.427 . S
C1009 H999 0.929 . S
C1009 C1007 1.433 . S
C1009 N1012 1.384 . S
C1010 H1001 0.929 . S
C1010 C1002 1.378 . S
C1010 C1005 1.350 . S
C1011 H998 0.929 . S
C1011 C1003 1.433 . S
C1011 N1013 1.384 . S
N1012 C1008 1.427 . S
N1012 C1009 1.384 . S
N1013 C1005 1.427 . S
N1013 C1011 1.384 . S
H1014 C1020 0.930 . S
H1015 C1024 0.930 . S
H1016 C1029 0.929 . S
H1017 C1027 0.929 . S
H1018 C1022 0.929 . S
H1019 C1028 0.929 . S
C1020 H1014 0.930 . S
C1020 C1021 1.367 1_554 S
C1020 C1028 1.378 . S
C1021 C1020 1.367 1_556 S
C1021 C1029 1.433 . S
C1022 H1018 0.929 . S
C1022 C1024 1.378 . S
C1022 C1026 1.351 1_556 S
C1023 C1026 1.463 1_556 S
C1023 C1028 1.351 1_556 S
C1023 N1031 1.426 . S
C1024 H1015 0.930 . S
C1024 C1022 1.378 . S
C1024 C1025 1.367 1_556 S
C1025 C1024 1.367 1_554 S
C1025 C1027 1.433 . S
C1026 C1022 1.351 1_554 S
C1026 C1023 1.463 1_554 S
C1026 N1030 1.426 . S
C1027 H1017 0.929 . S
C1027 C1025 1.433 . S
C1027 N1030 1.384 . S
C1028 H1019 0.929 . S
C1028 C1020 1.378 . S
C1028 C1023 1.351 1_554 S
C1029 H1016 0.929 . S
C1029 C1021 1.433 . S
C1029 N1031 1.384 . S
N1030 C1026 1.426 . S
N1030 C1027 1.384 . S
N1031 C1023 1.426 . S
N1031 C1029 1.384 . S
H1032 C1038 0.930 . S
H1033 C1042 0.930 . S
H1034 C1047 0.929 . S
H1035 C1045 0.929 . S
H1036 C1040 0.929 . S
H1037 C1046 0.929 . S
C1038 H1032 0.930 . S
C1038 C1039 1.367 . S
C1038 C1046 1.378 . S
C1039 C1038 1.367 . S
C1039 C1047 1.433 . S
C1040 H1036 0.929 . S
C1040 C1042 1.378 . S
C1040 C1044 1.350 . S
C1041 C1044 1.463 1_556 S
C1041 C1046 1.350 . S
C1041 N1049 1.427 . S
C1042 H1033 0.930 . S
C1042 C1040 1.378 . S
C1042 C1043 1.367 . S
C1043 C1042 1.367 . S
C1043 C1045 1.433 . S
C1044 C1040 1.350 . S
C1044 C1041 1.463 1_554 S
C1044 N1048 1.427 . S
C1045 H1035 0.929 . S
C1045 C1043 1.433 . S
C1045 N1048 1.384 . S
C1046 H1037 0.929 . S
C1046 C1038 1.378 . S
C1046 C1041 1.350 . S
C1047 H1034 0.929 . S
C1047 C1039 1.433 . S
C1047 N1049 1.384 . S
N1048 C1044 1.427 . S
N1048 C1045 1.384 . S
N1049 C1041 1.427 . S
N1049 C1047 1.384 . S
H1050 C1056 0.930 . S
H1051 C1060 0.930 . S
H1052 C1065 0.929 . S
H1053 C1063 0.929 . S
H1054 C1058 0.929 . S
H1055 C1064 0.929 . S
C1056 H1050 0.930 . S
C1056 C1057 1.367 1_565 S
C1056 C1064 1.378 . S
C1057 C1056 1.367 1_545 S
C1057 C1065 1.433 . S
C1058 H1054 0.929 . S
C1058 C1060 1.378 . S
C1058 C1062 1.353 . S
C1059 C1062 1.462 1_565 S
C1059 C1064 1.352 . S
C1059 N1067 1.425 1_565 S
C1060 H1051 0.930 . S
C1060 C1058 1.378 . S
C1060 C1061 1.367 1_545 S
C1061 C1060 1.367 1_565 S
C1061 C1063 1.433 . S
C1062 C1058 1.353 . S
C1062 C1059 1.462 1_545 S
C1062 N1066 1.425 1_545 S
C1063 H1053 0.929 . S
C1063 C1061 1.433 . S
C1063 N1066 1.384 . S
C1064 H1055 0.929 . S
C1064 C1056 1.378 . S
C1064 C1059 1.352 . S
C1065 H1052 0.929 . S
C1065 C1057 1.433 . S
C1065 N1067 1.384 . S
N1066 C1062 1.425 1_565 S
N1066 C1063 1.384 . S
N1067 C1059 1.425 1_545 S
N1067 C1065 1.384 . S
H1068 C1074 0.930 . S
H1069 C1078 0.930 . S
H1070 C1083 0.929 . S
H1071 C1081 0.929 . S
H1072 C1076 0.929 . S
H1073 C1082 0.929 . S
C1074 H1068 0.930 . S
C1074 C1075 1.367 . S
C1074 C1082 1.378 . S
C1075 C1074 1.367 . S
C1075 C1083 1.433 1_545 S
C1076 H1072 0.929 . S
C1076 C1078 1.378 . S
C1076 C1080 1.350 1_565 S
C1077 C1080 1.463 . S
C1077 C1082 1.350 . S
C1077 N1085 1.427 1_545 S
C1078 H1069 0.930 . S
C1078 C1076 1.378 . S
C1078 C1079 1.367 1_565 S
C1079 C1078 1.367 1_545 S
C1079 C1081 1.433 . S
C1080 C1076 1.350 1_545 S
C1080 C1077 1.463 . S
C1080 N1084 1.427 . S
C1081 H1071 0.929 . S
C1081 C1079 1.433 . S
C1081 N1084 1.384 . S
C1082 H1073 0.929 . S
C1082 C1074 1.378 . S
C1082 C1077 1.350 . S
C1083 H1070 0.929 . S
C1083 C1075 1.433 1_565 S
C1083 N1085 1.384 . S
N1084 C1080 1.427 . S
N1084 C1081 1.384 . S
N1085 C1077 1.427 1_565 S
N1085 C1083 1.384 . S
H1086 C1092 0.930 . S
H1087 C1096 0.930 . S
H1088 C1101 0.929 . S
H1089 C1099 0.929 . S
H1090 C1094 0.929 . S
H1091 C1100 0.929 . S
C1092 H1086 0.930 . S
C1092 C1093 1.367 1_565 S
C1092 C1100 1.378 . S
C1093 C1092 1.367 1_545 S
C1093 C1101 1.433 . S
C1094 H1090 0.929 . S
C1094 C1096 1.378 . S
C1094 C1098 1.349 1_545 S
C1095 C1098 1.462 1_545 S
C1095 C1100 1.350 1_545 S
C1095 N1103 1.428 . S
C1096 H1087 0.930 . S
C1096 C1094 1.378 . S
C1096 C1097 1.367 1_545 S
C1097 C1096 1.367 1_565 S
C1097 C1099 1.433 . S
C1098 C1094 1.349 1_565 S
C1098 C1095 1.462 1_565 S
C1098 N1102 1.428 . S
C1099 H1089 0.929 . S
C1099 C1097 1.433 . S
C1099 N1102 1.384 . S
C1100 H1091 0.929 . S
C1100 C1092 1.378 . S
C1100 C1095 1.350 1_565 S
C1101 H1088 0.929 . S
C1101 C1093 1.433 . S
C1101 N1103 1.384 . S
N1102 C1098 1.428 . S
N1102 C1099 1.384 . S
N1103 C1095 1.428 . S
N1103 C1101 1.384 . S
H1104 C1110 0.930 . S
H1105 C1114 0.930 . S
H1106 C1119 0.929 . S
H1107 C1117 0.929 . S
H1108 C1112 0.929 . S
H1109 C1118 0.929 . S
C1110 H1104 0.930 . S
C1110 C1111 1.367 . S
C1110 C1118 1.378 . S
C1111 C1110 1.367 . S
C1111 C1119 1.433 1_556 S
C1112 H1108 0.929 . S
C1112 C1114 1.378 . S
C1112 C1116 1.350 1_554 S
C1113 C1116 1.463 1_655 S
C1113 C1118 1.350 . S
C1113 N1121 1.427 1_556 S
C1114 H1105 0.930 . S
C1114 C1112 1.378 . S
C1114 C1115 1.367 1_554 S
C1115 C1114 1.367 1_556 S
C1115 C1117 1.433 . S
C1116 C1112 1.350 1_556 S
C1116 C1113 1.463 1_455 S
C1116 N1120 1.427 . S
C1117 H1107 0.929 . S
C1117 C1115 1.433 . S
C1117 N1120 1.384 . S
C1118 H1109 0.929 . S
C1118 C1110 1.378 . S
C1118 C1113 1.350 . S
C1119 H1106 0.929 . S
C1119 C1111 1.433 1_554 S
C1119 N1121 1.384 . S
N1120 C1116 1.427 . S
N1120 C1117 1.384 . S
N1121 C1113 1.427 1_554 S
N1121 C1119 1.384 . S
H1122 C1128 0.930 . S
H1123 C1132 0.930 . S
H1124 C1137 0.929 . S
H1125 C1135 0.929 . S
H1126 C1130 0.929 . S
H1127 C1136 0.929 . S
C1128 H1122 0.930 . S
C1128 C1129 1.367 1_556 S
C1128 C1136 1.378 . S
C1129 C1128 1.367 1_554 S
C1129 C1137 1.433 . S
C1130 H1126 0.929 . S
C1130 C1132 1.378 . S
C1130 C1134 1.350 . S
C1131 C1134 1.463 . S
C1131 C1136 1.350 1_554 S
C1131 N1139 1.427 . S
C1132 H1123 0.930 . S
C1132 C1130 1.378 . S
C1132 C1133 1.367 . S
C1133 C1132 1.367 . S
C1133 C1135 1.433 1_554 S
C1134 C1130 1.350 . S
C1134 C1131 1.463 . S
C1134 N1138 1.427 1_554 S
C1135 H1125 0.929 . S
C1135 C1133 1.433 1_556 S
C1135 N1138 1.384 . S
C1136 H1127 0.929 . S
C1136 C1128 1.378 . S
C1136 C1131 1.350 1_556 S
C1137 H1124 0.929 . S
C1137 C1129 1.433 . S
C1137 N1139 1.384 . S
N1138 C1134 1.427 1_556 S
N1138 C1135 1.384 . S
N1139 C1131 1.427 . S
N1139 C1137 1.384 . S
H1140 C1146 0.930 . S
H1141 C1150 0.930 . S
H1142 C1155 0.929 . S
H1143 C1153 0.929 . S
H1144 C1148 0.929 . S
H1145 C1154 0.929 . S
C1146 H1140 0.930 . S
C1146 C1147 1.367 1_655 S
C1146 C1154 1.378 . S
C1147 C1146 1.367 1_455 S
C1147 C1155 1.433 . S
C1148 H1144 0.929 . S
C1148 C1150 1.378 . S
C1148 C1152 1.352 1_455 S
C1149 C1152 1.463 1_455 S
C1149 C1154 1.352 1_455 S
C1149 N1157 1.425 . S
C1150 H1141 0.930 . S
C1150 C1148 1.378 . S
C1150 C1151 1.367 1_455 S
C1151 C1150 1.367 1_655 S
C1151 C1153 1.433 . S
C1152 C1148 1.352 1_655 S
C1152 C1149 1.463 1_655 S
C1152 N1156 1.425 . S
C1153 H1143 0.929 . S
C1153 C1151 1.433 . S
C1153 N1156 1.384 . S
C1154 H1145 0.929 . S
C1154 C1146 1.378 . S
C1154 C1149 1.352 1_655 S
C1155 H1142 0.929 . S
C1155 C1147 1.433 . S
C1155 N1157 1.384 . S
N1156 C1152 1.425 . S
N1156 C1153 1.384 . S
N1157 C1149 1.425 . S
N1157 C1155 1.384 . S
H1158 C1164 0.930 . S
H1159 C1168 0.930 . S
H1160 C1173 0.929 . S
H1161 C1171 0.929 . S
H1162 C1166 0.929 . S
H1163 C1172 0.929 . S
C1164 H1158 0.930 . S
C1164 C1165 1.367 . S
C1164 C1172 1.378 . S
C1165 C1164 1.367 . S
C1165 C1173 1.433 . S
C1166 H1162 0.929 . S
C1166 C1168 1.378 . S
C1166 C1170 1.350 . S
C1167 C1170 1.463 1_455 S
C1167 C1172 1.350 . S
C1167 N1175 1.427 . S
C1168 H1159 0.930 . S
C1168 C1166 1.378 . S
C1168 C1169 1.367 . S
C1169 C1168 1.367 . S
C1169 C1171 1.433 . S
C1170 C1166 1.350 . S
C1170 C1167 1.463 1_655 S
C1170 N1174 1.427 . S
C1171 H1161 0.929 . S
C1171 C1169 1.433 . S
C1171 N1174 1.384 . S
C1172 H1163 0.929 . S
C1172 C1164 1.378 . S
C1172 C1167 1.350 . S
C1173 H1160 0.929 . S
C1173 C1165 1.433 . S
C1173 N1175 1.384 . S
N1174 C1170 1.427 . S
N1174 C1171 1.384 . S
N1175 C1167 1.427 . S
N1175 C1173 1.384 . S
H1176 C1182 0.930 . S
H1177 C1186 0.930 . S
H1178 C1191 0.929 . S
H1179 C1189 0.929 . S
H1180 C1184 0.929 . S
H1181 C1190 0.929 . S
C1182 H1176 0.930 . S
C1182 C1183 1.367 . S
C1182 C1190 1.378 . S
C1183 C1182 1.367 . S
C1183 C1191 1.433 . S
C1184 H1180 0.929 . S
C1184 C1186 1.378 . S
C1184 C1188 1.350 . S
C1185 C1188 1.463 . S
C1185 C1190 1.350 . S
C1185 N1193 1.427 . S
C1186 H1177 0.930 . S
C1186 C1184 1.378 . S
C1186 C1187 1.367 . S
C1187 C1186 1.367 . S
C1187 C1189 1.433 . S
C1188 C1184 1.350 . S
C1188 C1185 1.463 . S
C1188 N1192 1.427 . S
C1189 H1179 0.929 . S
C1189 C1187 1.433 . S
C1189 N1192 1.384 . S
C1190 H1181 0.929 . S
C1190 C1182 1.378 . S
C1190 C1185 1.350 . S
C1191 H1178 0.929 . S
C1191 C1183 1.433 . S
C1191 N1193 1.384 . S
N1192 C1188 1.427 . S
N1192 C1189 1.384 . S
N1193 C1185 1.427 . S
N1193 C1191 1.384 . S
H1194 C1200 0.930 . S
H1195 C1204 0.930 . S
H1196 C1209 0.929 . S
H1197 C1207 0.929 . S
H1198 C1202 0.929 . S
H1199 C1208 0.929 . S
C1200 H1194 0.930 . S
C1200 C1201 1.367 . S
C1200 C1208 1.378 . S
C1201 C1200 1.367 . S
C1201 C1209 1.433 1_455 S
C1202 H1198 0.929 . S
C1202 C1204 1.378 . S
C1202 C1206 1.350 . S
C1203 C1206 1.463 1_455 S
C1203 C1208 1.350 . S
C1203 N1211 1.427 1_455 S
C1204 H1195 0.930 . S
C1204 C1202 1.378 . S
C1204 C1205 1.367 . S
C1205 C1204 1.367 . S
C1205 C1207 1.433 1_655 S
C1206 C1202 1.350 . S
C1206 C1203 1.463 1_655 S
C1206 N1210 1.427 1_655 S
C1207 H1197 0.929 . S
C1207 C1205 1.433 1_455 S
C1207 N1210 1.384 . S
C1208 H1199 0.929 . S
C1208 C1200 1.378 . S
C1208 C1203 1.350 . S
C1209 H1196 0.929 . S
C1209 C1201 1.433 1_655 S
C1209 N1211 1.384 . S
N1210 C1206 1.427 1_455 S
N1210 C1207 1.384 . S
N1211 C1203 1.427 1_655 S
N1211 C1209 1.384 . S
H1212 C1218 0.930 . S
H1213 C1222 0.930 . S
H1214 C1227 0.929 . S
H1215 C1225 0.929 . S
H1216 C1220 0.929 . S
H1217 C1226 0.929 . S
C1218 H1212 0.930 . S
C1218 C1219 1.367 . S
C1218 C1226 1.378 . S
C1219 C1218 1.367 . S
C1219 C1227 1.433 . S
C1220 H1216 0.929 . S
C1220 C1222 1.378 . S
C1220 C1224 1.350 . S
C1221 C1224 1.463 . S
C1221 C1226 1.350 . S
C1221 N1229 1.427 . S
C1222 H1213 0.930 . S
C1222 C1220 1.378 . S
C1222 C1223 1.367 . S
C1223 C1222 1.367 . S
C1223 C1225 1.433 . S
C1224 C1220 1.350 . S
C1224 C1221 1.463 . S
C1224 N1228 1.427 . S
C1225 H1215 0.929 . S
C1225 C1223 1.433 . S
C1225 N1228 1.384 . S
C1226 H1217 0.929 . S
C1226 C1218 1.378 . S
C1226 C1221 1.350 . S
C1227 H1214 0.929 . S
C1227 C1219 1.433 . S
C1227 N1229 1.384 . S
N1228 C1224 1.427 . S
N1228 C1225 1.384 . S
N1229 C1221 1.427 . S
N1229 C1227 1.384 . S
H1230 C1236 0.930 . S
H1231 C1240 0.930 . S
H1232 C1245 0.929 . S
H1233 C1243 0.929 . S
H1234 C1238 0.929 . S
H1235 C1244 0.929 . S
C1236 H1230 0.930 . S
C1236 C1237 1.367 . S
C1236 C1244 1.378 . S
C1237 C1236 1.367 . S
C1237 C1245 1.433 . S
C1238 H1234 0.929 . S
C1238 C1240 1.378 . S
C1238 C1242 1.350 . S
C1239 C1242 1.463 . S
C1239 C1244 1.350 . S
C1239 N1247 1.427 . S
C1240 H1231 0.930 . S
C1240 C1238 1.378 . S
C1240 C1241 1.367 . S
C1241 C1240 1.367 . S
C1241 C1243 1.433 . S
C1242 C1238 1.350 . S
C1242 C1239 1.463 . S
C1242 N1246 1.427 . S
C1243 H1233 0.929 . S
C1243 C1241 1.433 . S
C1243 N1246 1.384 . S
C1244 H1235 0.929 . S
C1244 C1236 1.378 . S
C1244 C1239 1.350 . S
C1245 H1232 0.929 . S
C1245 C1237 1.433 . S
C1245 N1247 1.384 . S
N1246 C1242 1.427 . S
N1246 C1243 1.384 . S
N1247 C1239 1.427 . S
N1247 C1245 1.384 . S
H1248 C1254 0.930 . S
H1249 C1258 0.930 . S
H1250 C1263 0.929 . S
H1251 C1261 0.929 . S
H1252 C1256 0.929 . S
H1253 C1262 0.929 . S
C1254 H1248 0.930 . S
C1254 C1255 1.367 . S
C1254 C1262 1.378 . S
C1255 C1254 1.367 . S
C1255 C1263 1.433 1_554 S
C1256 H1252 0.929 . S
C1256 C1258 1.378 . S
C1256 C1260 1.350 . S
C1257 C1260 1.463 1_554 S
C1257 C1262 1.350 . S
C1257 N1265 1.427 1_554 S
C1258 H1249 0.930 . S
C1258 C1256 1.378 . S
C1258 C1259 1.367 . S
C1259 C1258 1.367 . S
C1259 C1261 1.433 1_556 S
C1260 C1256 1.350 . S
C1260 C1257 1.463 1_556 S
C1260 N1264 1.427 1_556 S
C1261 H1251 0.929 . S
C1261 C1259 1.433 1_554 S
C1261 N1264 1.384 . S
C1262 H1253 0.929 . S
C1262 C1254 1.378 . S
C1262 C1257 1.350 . S
C1263 H1250 0.929 . S
C1263 C1255 1.433 1_556 S
C1263 N1265 1.384 . S
N1264 C1260 1.427 1_554 S
N1264 C1261 1.384 . S
N1265 C1257 1.427 1_556 S
N1265 C1263 1.384 . S
H1266 C1272 0.930 . S
H1267 C1276 0.930 1_655 S
H1268 C1281 0.929 1_655 S
H1269 C1279 0.929 . S
H1270 C1274 0.929 1_655 S
H1271 C1280 0.929 . S
C1272 H1266 0.930 . S
C1272 C1273 1.367 . S
C1272 C1280 1.378 . S
C1273 C1272 1.367 . S
C1273 C1281 1.433 . S
C1274 H1270 0.929 1_455 S
C1274 C1276 1.378 . S
C1274 C1278 1.350 . S
C1275 C1278 1.463 . S
C1275 C1280 1.350 . S
C1275 N1283 1.427 . S
C1276 H1267 0.930 1_455 S
C1276 C1274 1.378 . S
C1276 C1277 1.367 . S
C1277 C1276 1.367 . S
C1277 C1279 1.433 . S
C1278 C1274 1.350 . S
C1278 C1275 1.463 . S
C1278 N1282 1.427 . S
C1279 H1269 0.929 . S
C1279 C1277 1.433 . S
C1279 N1282 1.384 . S
C1280 H1271 0.929 . S
C1280 C1272 1.378 . S
C1280 C1275 1.350 . S
C1281 H1268 0.929 1_455 S
C1281 C1273 1.433 . S
C1281 N1283 1.384 . S
N1282 C1278 1.427 . S
N1282 C1279 1.384 . S
N1283 C1275 1.427 . S
N1283 C1281 1.384 . S
H1284 C1290 0.930 . S
H1285 C1294 0.930 . S
H1286 C1299 0.929 . S
H1287 C1297 0.929 . S
H1288 C1292 0.929 . S
H1289 C1298 0.929 . S
C1290 H1284 0.930 . S
C1290 C1291 1.367 . S
C1290 C1298 1.378 . S
C1291 C1290 1.367 . S
C1291 C1299 1.433 . S
C1292 H1288 0.929 . S
C1292 C1294 1.378 . S
C1292 C1296 1.350 . S
C1293 C1296 1.463 . S
C1293 C1298 1.350 . S
C1293 N1301 1.427 . S
C1294 H1285 0.930 . S
C1294 C1292 1.378 . S
C1294 C1295 1.367 . S
C1295 C1294 1.367 . S
C1295 C1297 1.433 . S
C1296 C1292 1.350 . S
C1296 C1293 1.463 . S
C1296 N1300 1.427 . S
C1297 H1287 0.929 . S
C1297 C1295 1.433 . S
C1297 N1300 1.384 . S
C1298 H1289 0.929 . S
C1298 C1290 1.378 . S
C1298 C1293 1.350 . S
C1299 H1286 0.929 . S
C1299 C1291 1.433 . S
C1299 N1301 1.384 . S
N1300 C1296 1.427 . S
N1300 C1297 1.384 . S
N1301 C1293 1.427 . S
N1301 C1299 1.384 . S
H1302 C1308 0.930 . S
H1303 C1312 0.930 . S
H1304 C1317 0.929 . S
H1305 C1315 0.929 . S
H1306 C1310 0.929 . S
H1307 C1316 0.929 . S
C1308 H1302 0.930 . S
C1308 C1309 1.367 . S
C1308 C1316 1.378 . S
C1309 C1308 1.367 . S
C1309 C1317 1.433 . S
C1310 H1306 0.929 . S
C1310 C1312 1.378 . S
C1310 C1314 1.350 . S
C1311 C1314 1.463 . S
C1311 C1316 1.350 . S
C1311 N1319 1.427 . S
C1312 H1303 0.930 . S
C1312 C1310 1.378 . S
C1312 C1313 1.367 . S
C1313 C1312 1.367 . S
C1313 C1315 1.433 . S
C1314 C1310 1.350 . S
C1314 C1311 1.463 . S
C1314 N1318 1.427 . S
C1315 H1305 0.929 . S
C1315 C1313 1.433 . S
C1315 N1318 1.384 . S
C1316 H1307 0.929 . S
C1316 C1308 1.378 . S
C1316 C1311 1.350 . S
C1317 H1304 0.929 . S
C1317 C1309 1.433 . S
C1317 N1319 1.384 . S
N1318 C1314 1.427 . S
N1318 C1315 1.384 . S
N1319 C1311 1.427 . S
N1319 C1317 1.384 . S
H1320 C1326 0.930 . S
H1321 C1330 0.930 . S
H1322 C1335 0.929 . S
H1323 C1333 0.929 . S
H1324 C1328 0.929 . S
H1325 C1334 0.929 . S
C1326 H1320 0.930 . S
C1326 C1327 1.367 . S
C1326 C1334 1.378 . S
C1327 C1326 1.367 . S
C1327 C1335 1.433 . S
C1328 H1324 0.929 . S
C1328 C1330 1.378 . S
C1328 C1332 1.350 . S
C1329 C1332 1.463 . S
C1329 C1334 1.350 . S
C1329 N1337 1.427 . S
C1330 H1321 0.930 . S
C1330 C1328 1.378 . S
C1330 C1331 1.367 . S
C1331 C1330 1.367 . S
C1331 C1333 1.433 . S
C1332 C1328 1.350 . S
C1332 C1329 1.463 . S
C1332 N1336 1.427 . S
C1333 H1323 0.929 . S
C1333 C1331 1.433 . S
C1333 N1336 1.384 . S
C1334 H1325 0.929 . S
C1334 C1326 1.378 . S
C1334 C1329 1.350 . S
C1335 H1322 0.929 . S
C1335 C1327 1.433 . S
C1335 N1337 1.384 . S
N1336 C1332 1.427 . S
N1336 C1333 1.384 . S
N1337 C1329 1.427 . S
N1337 C1335 1.384 . S
H1338 C1344 0.930 . S
H1339 C1348 0.930 . S
H1340 C1353 0.929 . S
H1341 C1351 0.929 . S
H1342 C1346 0.929 . S
H1343 C1352 0.929 . S
C1344 H1338 0.930 . S
C1344 C1345 1.367 . S
C1344 C1352 1.378 . S
C1345 C1344 1.367 . S
C1345 C1353 1.433 . S
C1346 H1342 0.929 . S
C1346 C1348 1.378 . S
C1346 C1350 1.350 . S
C1347 C1350 1.463 1_554 S
C1347 C1352 1.350 . S
C1347 N1355 1.427 . S
C1348 H1339 0.930 . S
C1348 C1346 1.378 . S
C1348 C1349 1.367 . S
C1349 C1348 1.367 . S
C1349 C1351 1.433 . S
C1350 C1346 1.350 . S
C1350 C1347 1.463 1_556 S
C1350 N1354 1.427 . S
C1351 H1341 0.929 . S
C1351 C1349 1.433 . S
C1351 N1354 1.384 . S
C1352 H1343 0.929 . S
C1352 C1344 1.378 . S
C1352 C1347 1.350 . S
C1353 H1340 0.929 . S
C1353 C1345 1.433 . S
C1353 N1355 1.384 . S
N1354 C1350 1.427 . S
N1354 C1351 1.384 . S
N1355 C1347 1.427 . S
N1355 C1353 1.384 . S
H1356 C1362 0.930 . S
H1357 C1366 0.930 . S
H1358 C1371 0.929 . S
H1359 C1369 0.929 . S
H1360 C1364 0.929 . S
H1361 C1370 0.929 . S
C1362 H1356 0.930 . S
C1362 C1363 1.367 . S
C1362 C1370 1.378 . S
C1363 C1362 1.367 . S
C1363 C1371 1.433 . S
C1364 H1360 0.929 . S
C1364 C1366 1.378 . S
C1364 C1368 1.350 . S
C1365 C1368 1.463 . S
C1365 C1370 1.350 . S
C1365 N1373 1.427 . S
C1366 H1357 0.930 . S
C1366 C1364 1.378 . S
C1366 C1367 1.367 . S
C1367 C1366 1.367 . S
C1367 C1369 1.433 . S
C1368 C1364 1.350 . S
C1368 C1365 1.463 . S
C1368 N1372 1.427 . S
C1369 H1359 0.929 . S
C1369 C1367 1.433 . S
C1369 N1372 1.384 . S
C1370 H1361 0.929 . S
C1370 C1362 1.378 . S
C1370 C1365 1.350 . S
C1371 H1358 0.929 . S
C1371 C1363 1.433 . S
C1371 N1373 1.384 . S
N1372 C1368 1.427 . S
N1372 C1369 1.384 . S
N1373 C1365 1.427 . S
N1373 C1371 1.384 . S
H1374 C1380 0.930 . S
H1375 C1384 0.930 . S
H1376 C1389 0.929 . S
H1377 C1387 0.929 . S
H1378 C1382 0.929 . S
H1379 C1388 0.929 . S
C1380 H1374 0.930 . S
C1380 C1381 1.367 . S
C1380 C1388 1.378 . S
C1381 C1380 1.367 . S
C1381 C1389 1.433 . S
C1382 H1378 0.929 . S
C1382 C1384 1.378 . S
C1382 C1386 1.350 . S
C1383 C1386 1.463 . S
C1383 C1388 1.350 . S
C1383 N1391 1.427 . S
C1384 H1375 0.930 . S
C1384 C1382 1.378 . S
C1384 C1385 1.367 . S
C1385 C1384 1.367 . S
C1385 C1387 1.433 . S
C1386 C1382 1.350 . S
C1386 C1383 1.463 . S
C1386 N1390 1.427 . S
C1387 H1377 0.929 . S
C1387 C1385 1.433 . S
C1387 N1390 1.384 . S
C1388 H1379 0.929 . S
C1388 C1380 1.378 . S
C1388 C1383 1.350 . S
C1389 H1376 0.929 . S
C1389 C1381 1.433 . S
C1389 N1391 1.384 . S
N1390 C1386 1.427 . S
N1390 C1387 1.384 . S
N1391 C1383 1.427 . S
N1391 C1389 1.384 . S
H1392 C1398 0.930 . S
H1393 C1402 0.930 . S
H1394 C1407 0.929 . S
H1395 C1405 0.929 . S
H1396 C1400 0.929 . S
H1397 C1406 0.929 . S
C1398 H1392 0.930 . S
C1398 C1399 1.367 . S
C1398 C1406 1.378 . S
C1399 C1398 1.367 . S
C1399 C1407 1.433 . S
C1400 H1396 0.929 . S
C1400 C1402 1.378 . S
C1400 C1404 1.350 . S
C1401 C1404 1.463 . S
C1401 C1406 1.350 . S
C1401 N1409 1.427 . S
C1402 H1393 0.930 . S
C1402 C1400 1.378 . S
C1402 C1403 1.367 . S
C1403 C1402 1.367 . S
C1403 C1405 1.433 . S
C1404 C1400 1.350 . S
C1404 C1401 1.463 . S
C1404 N1408 1.427 . S
C1405 H1395 0.929 . S
C1405 C1403 1.433 . S
C1405 N1408 1.384 . S
C1406 H1397 0.929 . S
C1406 C1398 1.378 . S
C1406 C1401 1.350 . S
C1407 H1394 0.929 . S
C1407 C1399 1.433 . S
C1407 N1409 1.384 . S
N1408 C1404 1.427 . S
N1408 C1405 1.384 . S
N1409 C1401 1.427 . S
N1409 C1407 1.384 . S
H1410 C1416 0.930 . S
H1411 C1420 0.930 . S
H1412 C1425 0.929 . S
H1413 C1423 0.929 . S
H1414 C1418 0.929 . S
H1415 C1424 0.929 . S
C1416 H1410 0.930 . S
C1416 C1417 1.367 . S
C1416 C1424 1.378 . S
C1417 C1416 1.367 . S
C1417 C1425 1.433 . S
C1418 H1414 0.929 . S
C1418 C1420 1.378 . S
C1418 C1422 1.350 . S
C1419 C1422 1.463 . S
C1419 C1424 1.350 . S
C1419 N1427 1.427 . S
C1420 H1411 0.930 . S
C1420 C1418 1.378 . S
C1420 C1421 1.367 . S
C1421 C1420 1.367 . S
C1421 C1423 1.433 . S
C1422 C1418 1.350 . S
C1422 C1419 1.463 . S
C1422 N1426 1.427 . S
C1423 H1413 0.929 . S
C1423 C1421 1.433 . S
C1423 N1426 1.384 . S
C1424 H1415 0.929 . S
C1424 C1416 1.378 . S
C1424 C1419 1.350 . S
C1425 H1412 0.929 . S
C1425 C1417 1.433 . S
C1425 N1427 1.384 . S
N1426 C1422 1.427 . S
N1426 C1423 1.384 . S
N1427 C1419 1.427 . S
N1427 C1425 1.384 . S
H1428 C1434 0.930 . S
H1429 C1438 0.930 . S
H1430 C1443 0.929 . S
H1431 C1441 0.929 . S
H1432 C1436 0.929 . S
H1433 C1442 0.929 . S
C1434 H1428 0.930 . S
C1434 C1435 1.367 . S
C1434 C1442 1.378 . S
C1435 C1434 1.367 . S
C1435 C1443 1.433 . S
C1436 H1432 0.929 . S
C1436 C1438 1.378 . S
C1436 C1440 1.350 . S
C1437 C1440 1.463 . S
C1437 C1442 1.350 . S
C1437 N1445 1.427 . S
C1438 H1429 0.930 . S
C1438 C1436 1.378 . S
C1438 C1439 1.367 . S
C1439 C1438 1.367 . S
C1439 C1441 1.433 . S
C1440 C1436 1.350 . S
C1440 C1437 1.463 . S
C1440 N1444 1.427 . S
C1441 H1431 0.929 . S
C1441 C1439 1.433 . S
C1441 N1444 1.384 . S
C1442 H1433 0.929 . S
C1442 C1434 1.378 . S
C1442 C1437 1.350 . S
C1443 H1430 0.929 . S
C1443 C1435 1.433 . S
C1443 N1445 1.384 . S
N1444 C1440 1.427 . S
N1444 C1441 1.384 . S
N1445 C1437 1.427 . S
N1445 C1443 1.384 . S
H1446 C1452 0.930 . S
H1447 C1456 0.930 . S
H1448 C1461 0.929 . S
H1449 C1459 0.929 . S
H1450 C1454 0.929 . S
H1451 C1460 0.929 . S
C1452 H1446 0.930 . S
C1452 C1453 1.367 . S
C1452 C1460 1.378 . S
C1453 C1452 1.367 . S
C1453 C1461 1.433 . S
C1454 H1450 0.929 . S
C1454 C1456 1.378 . S
C1454 C1458 1.350 . S
C1455 C1458 1.463 . S
C1455 C1460 1.350 . S
C1455 N1463 1.427 . S
C1456 H1447 0.930 . S
C1456 C1454 1.378 . S
C1456 C1457 1.367 . S
C1457 C1456 1.367 . S
C1457 C1459 1.433 . S
C1458 C1454 1.350 . S
C1458 C1455 1.463 . S
C1458 N1462 1.427 . S
C1459 H1449 0.929 . S
C1459 C1457 1.433 . S
C1459 N1462 1.384 . S
C1460 H1451 0.929 . S
C1460 C1452 1.378 . S
C1460 C1455 1.350 . S
C1461 H1448 0.929 . S
C1461 C1453 1.433 . S
C1461 N1463 1.384 . S
N1462 C1458 1.427 . S
N1462 C1459 1.384 . S
N1463 C1455 1.427 . S
N1463 C1461 1.384 . S
H1464 C1470 0.930 . S
H1465 C1474 0.930 . S
H1466 C1479 0.929 . S
H1467 C1477 0.929 . S
H1468 C1472 0.929 . S
H1469 C1478 0.929 . S
C1470 H1464 0.930 . S
C1470 C1471 1.367 . S
C1470 C1478 1.378 . S
C1471 C1470 1.367 . S
C1471 C1479 1.433 . S
C1472 H1468 0.929 . S
C1472 C1474 1.378 . S
C1472 C1476 1.350 . S
C1473 C1476 1.463 . S
C1473 C1478 1.350 . S
C1473 N1481 1.427 . S
C1474 H1465 0.930 . S
C1474 C1472 1.378 . S
C1474 C1475 1.367 . S
C1475 C1474 1.367 . S
C1475 C1477 1.433 . S
C1476 C1472 1.350 . S
C1476 C1473 1.463 . S
C1476 N1480 1.427 . S
C1477 H1467 0.929 . S
C1477 C1475 1.433 . S
C1477 N1480 1.384 . S
C1478 H1469 0.929 . S
C1478 C1470 1.378 . S
C1478 C1473 1.350 . S
C1479 H1466 0.929 . S
C1479 C1471 1.433 . S
C1479 N1481 1.384 . S
N1480 C1476 1.427 . S
N1480 C1477 1.384 . S
N1481 C1473 1.427 . S
N1481 C1479 1.384 . S
H1482 C1488 0.930 . S
H1483 C1492 0.930 . S
H1484 C1497 0.929 . S
H1485 C1495 0.929 . S
H1486 C1490 0.929 . S
H1487 C1496 0.929 . S
C1488 H1482 0.930 . S
C1488 C1489 1.367 . S
C1488 C1496 1.378 . S
C1489 C1488 1.367 . S
C1489 C1497 1.433 . S
C1490 H1486 0.929 . S
C1490 C1492 1.378 . S
C1490 C1494 1.350 . S
C1491 C1494 1.463 . S
C1491 C1496 1.350 . S
C1491 N1499 1.427 . S
C1492 H1483 0.930 . S
C1492 C1490 1.378 . S
C1492 C1493 1.367 . S
C1493 C1492 1.367 . S
C1493 C1495 1.433 . S
C1494 C1490 1.350 . S
C1494 C1491 1.463 . S
C1494 N1498 1.427 . S
C1495 H1485 0.929 . S
C1495 C1493 1.433 . S
C1495 N1498 1.384 . S
C1496 H1487 0.929 . S
C1496 C1488 1.378 . S
C1496 C1491 1.350 . S
C1497 H1484 0.929 . S
C1497 C1489 1.433 . S
C1497 N1499 1.384 . S
N1498 C1494 1.427 . S
N1498 C1495 1.384 . S
N1499 C1491 1.427 . S
N1499 C1497 1.384 . S
H1500 C1506 0.930 . S
H1501 C1510 0.930 . S
H1502 C1515 0.929 . S
H1503 C1513 0.929 . S
H1504 C1508 0.929 . S
H1505 C1514 0.929 . S
C1506 H1500 0.930 . S
C1506 C1507 1.367 . S
C1506 C1514 1.378 . S
C1507 C1506 1.367 . S
C1507 C1515 1.433 . S
C1508 H1504 0.929 . S
C1508 C1510 1.378 . S
C1508 C1512 1.350 . S
C1509 C1512 1.463 . S
C1509 C1514 1.350 . S
C1509 N1517 1.427 . S
C1510 H1501 0.930 . S
C1510 C1508 1.378 . S
C1510 C1511 1.367 . S
C1511 C1510 1.367 . S
C1511 C1513 1.433 . S
C1512 C1508 1.350 . S
C1512 C1509 1.463 . S
C1512 N1516 1.427 . S
C1513 H1503 0.929 . S
C1513 C1511 1.433 . S
C1513 N1516 1.384 . S
C1514 H1505 0.929 . S
C1514 C1506 1.378 . S
C1514 C1509 1.350 . S
C1515 H1502 0.929 . S
C1515 C1507 1.433 . S
C1515 N1517 1.384 . S
N1516 C1512 1.427 . S
N1516 C1513 1.384 . S
N1517 C1509 1.427 . S
N1517 C1515 1.384 . S
H1518 C1524 0.930 . S
H1519 C1528 0.930 . S
H1520 C1533 0.929 . S
H1521 C1531 0.929 . S
H1522 C1526 0.929 . S
H1523 C1532 0.929 . S
C1524 H1518 0.930 . S
C1524 C1525 1.367 . S
C1524 C1532 1.378 . S
C1525 C1524 1.367 . S
C1525 C1533 1.433 . S
C1526 H1522 0.929 . S
C1526 C1528 1.378 . S
C1526 C1530 1.350 . S
C1527 C1530 1.463 . S
C1527 C1532 1.350 . S
C1527 N1535 1.427 . S
C1528 H1519 0.930 . S
C1528 C1526 1.378 . S
C1528 C1529 1.367 . S
C1529 C1528 1.367 . S
C1529 C1531 1.433 . S
C1530 C1526 1.350 . S
C1530 C1527 1.463 . S
C1530 N1534 1.427 . S
C1531 H1521 0.929 . S
C1531 C1529 1.433 . S
C1531 N1534 1.384 . S
C1532 H1523 0.929 . S
C1532 C1524 1.378 . S
C1532 C1527 1.350 . S
C1533 H1520 0.929 . S
C1533 C1525 1.433 . S
C1533 N1535 1.384 . S
N1534 C1530 1.427 . S
N1534 C1531 1.384 . S
N1535 C1527 1.427 . S
N1535 C1533 1.384 . S
H1536 C1542 0.930 . S
H1537 C1546 0.930 . S
H1538 C1551 0.929 . S
H1539 C1549 0.929 . S
H1540 C1544 0.929 . S
H1541 C1550 0.929 . S
C1542 H1536 0.930 . S
C1542 C1543 1.367 . S
C1542 C1550 1.378 . S
C1543 C1542 1.367 . S
C1543 C1551 1.433 . S
C1544 H1540 0.929 . S
C1544 C1546 1.378 . S
C1544 C1548 1.350 . S
C1545 C1548 1.463 . S
C1545 C1550 1.350 . S
C1545 N1553 1.427 . S
C1546 H1537 0.930 . S
C1546 C1544 1.378 . S
C1546 C1547 1.367 . S
C1547 C1546 1.367 . S
C1547 C1549 1.433 . S
C1548 C1544 1.350 . S
C1548 C1545 1.463 . S
C1548 N1552 1.427 . S
C1549 H1539 0.929 . S
C1549 C1547 1.433 . S
C1549 N1552 1.384 . S
C1550 H1541 0.929 . S
C1550 C1542 1.378 . S
C1550 C1545 1.350 . S
C1551 H1538 0.929 . S
C1551 C1543 1.433 . S
C1551 N1553 1.384 . S
N1552 C1548 1.427 . S
N1552 C1549 1.384 . S
N1553 C1545 1.427 . S
N1553 C1551 1.384 . S
H1554 C1560 0.930 . S
H1555 C1564 0.930 . S
H1556 C1569 0.929 . S
H1557 C1567 0.929 . S
H1558 C1562 0.929 . S
H1559 C1568 0.929 . S
C1560 H1554 0.930 . S
C1560 C1561 1.367 . S
C1560 C1568 1.378 . S
C1561 C1560 1.367 . S
C1561 C1569 1.433 . S
C1562 H1558 0.929 . S
C1562 C1564 1.378 . S
C1562 C1566 1.350 . S
C1563 C1566 1.463 . S
C1563 C1568 1.350 . S
C1563 N1571 1.427 . S
C1564 H1555 0.930 . S
C1564 C1562 1.378 . S
C1564 C1565 1.367 . S
C1565 C1564 1.367 . S
C1565 C1567 1.433 . S
C1566 C1562 1.350 . S
C1566 C1563 1.463 . S
C1566 N1570 1.427 . S
C1567 H1557 0.929 . S
C1567 C1565 1.433 . S
C1567 N1570 1.384 . S
C1568 H1559 0.929 . S
C1568 C1560 1.378 . S
C1568 C1563 1.350 . S
C1569 H1556 0.929 . S
C1569 C1561 1.433 . S
C1569 N1571 1.384 . S
N1570 C1566 1.427 . S
N1570 C1567 1.384 . S
N1571 C1563 1.427 . S
N1571 C1569 1.384 . S
H1572 C1578 0.930 . S
H1573 C1582 0.930 . S
H1574 C1587 0.929 . S
H1575 C1585 0.929 . S
H1576 C1580 0.929 . S
H1577 C1586 0.929 . S
C1578 H1572 0.930 . S
C1578 C1579 1.367 . S
C1578 C1586 1.378 . S
C1579 C1578 1.367 . S
C1579 C1587 1.433 . S
C1580 H1576 0.929 . S
C1580 C1582 1.378 . S
C1580 C1584 1.350 . S
C1581 C1584 1.463 . S
C1581 C1586 1.350 . S
C1581 N1589 1.427 . S
C1582 H1573 0.930 . S
C1582 C1580 1.378 . S
C1582 C1583 1.367 . S
C1583 C1582 1.367 . S
C1583 C1585 1.433 . S
C1584 C1580 1.350 . S
C1584 C1581 1.463 . S
C1584 N1588 1.427 . S
C1585 H1575 0.929 . S
C1585 C1583 1.433 . S
C1585 N1588 1.384 . S
C1586 H1577 0.929 . S
C1586 C1578 1.378 . S
C1586 C1581 1.350 . S
C1587 H1574 0.929 . S
C1587 C1579 1.433 . S
C1587 N1589 1.384 . S
N1588 C1584 1.427 . S
N1588 C1585 1.384 . S
N1589 C1581 1.427 . S
N1589 C1587 1.384 . S
H1590 C1596 0.930 . S
H1591 C1600 0.930 . S
H1592 C1605 0.929 . S
H1593 C1603 0.929 . S
H1594 C1598 0.929 . S
H1595 C1604 0.929 . S
C1596 H1590 0.930 . S
C1596 C1597 1.367 . S
C1596 C1604 1.378 . S
C1597 C1596 1.367 . S
C1597 C1605 1.433 . S
C1598 H1594 0.929 . S
C1598 C1600 1.378 . S
C1598 C1602 1.350 . S
C1599 C1602 1.463 . S
C1599 C1604 1.350 . S
C1599 N1607 1.427 . S
C1600 H1591 0.930 . S
C1600 C1598 1.378 . S
C1600 C1601 1.367 . S
C1601 C1600 1.367 . S
C1601 C1603 1.433 . S
C1602 C1598 1.350 . S
C1602 C1599 1.463 . S
C1602 N1606 1.427 . S
C1603 H1593 0.929 . S
C1603 C1601 1.433 . S
C1603 N1606 1.384 . S
C1604 H1595 0.929 . S
C1604 C1596 1.378 . S
C1604 C1599 1.350 . S
C1605 H1592 0.929 . S
C1605 C1597 1.433 . S
C1605 N1607 1.384 . S
N1606 C1602 1.427 . S
N1606 C1603 1.384 . S
N1607 C1599 1.427 . S
N1607 C1605 1.384 . S
H1608 C1614 0.930 . S
H1609 C1618 0.930 . S
H1610 C1623 0.929 . S
H1611 C1621 0.929 . S
H1612 C1616 0.929 . S
H1613 C1622 0.929 . S
C1614 H1608 0.930 . S
C1614 C1615 1.367 . S
C1614 C1622 1.378 . S
C1615 C1614 1.367 . S
C1615 C1623 1.433 . S
C1616 H1612 0.929 . S
C1616 C1618 1.378 . S
C1616 C1620 1.350 . S
C1617 C1620 1.463 . S
C1617 C1622 1.350 . S
C1617 N1625 1.427 . S
C1618 H1609 0.930 . S
C1618 C1616 1.378 . S
C1618 C1619 1.367 . S
C1619 C1618 1.367 . S
C1619 C1621 1.433 . S
C1620 C1616 1.350 . S
C1620 C1617 1.463 . S
C1620 N1624 1.427 . S
C1621 H1611 0.929 . S
C1621 C1619 1.433 . S
C1621 N1624 1.384 . S
C1622 H1613 0.929 . S
C1622 C1614 1.378 . S
C1622 C1617 1.350 . S
C1623 H1610 0.929 . S
C1623 C1615 1.433 . S
C1623 N1625 1.384 . S
N1624 C1620 1.427 . S
N1624 C1621 1.384 . S
N1625 C1617 1.427 . S
N1625 C1623 1.384 . S
H1626 C1632 0.930 . S
H1627 C1636 0.930 . S
H1628 C1641 0.929 . S
H1629 C1639 0.929 . S
H1630 C1634 0.929 . S
H1631 C1640 0.929 . S
C1632 H1626 0.930 . S
C1632 C1633 1.367 . S
C1632 C1640 1.378 . S
C1633 C1632 1.367 . S
C1633 C1641 1.433 . S
C1634 H1630 0.929 . S
C1634 C1636 1.378 . S
C1634 C1638 1.350 . S
C1635 C1638 1.463 . S
C1635 C1640 1.350 . S
C1635 N1643 1.427 . S
C1636 H1627 0.930 . S
C1636 C1634 1.378 . S
C1636 C1637 1.367 . S
C1637 C1636 1.367 . S
C1637 C1639 1.433 . S
C1638 C1634 1.350 . S
C1638 C1635 1.463 . S
C1638 N1642 1.427 . S
C1639 H1629 0.929 . S
C1639 C1637 1.433 . S
C1639 N1642 1.384 . S
C1640 H1631 0.929 . S
C1640 C1632 1.378 . S
C1640 C1635 1.350 . S
C1641 H1628 0.929 . S
C1641 C1633 1.433 . S
C1641 N1643 1.384 . S
N1642 C1638 1.427 . S
N1642 C1639 1.384 . S
N1643 C1635 1.427 . S
N1643 C1641 1.384 . S
H1644 C1650 0.930 . S
H1645 C1654 0.930 . S
H1646 C1659 0.929 . S
H1647 C1657 0.929 . S
H1648 C1652 0.929 . S
H1649 C1658 0.929 . S
C1650 H1644 0.930 . S
C1650 C1651 1.367 . S
C1650 C1658 1.378 . S
C1651 C1650 1.367 . S
C1651 C1659 1.433 . S
C1652 H1648 0.929 . S
C1652 C1654 1.378 . S
C1652 C1656 1.350 . S
C1653 C1656 1.463 . S
C1653 C1658 1.350 . S
C1653 N1661 1.427 . S
C1654 H1645 0.930 . S
C1654 C1652 1.378 . S
C1654 C1655 1.367 . S
C1655 C1654 1.367 . S
C1655 C1657 1.433 . S
C1656 C1652 1.350 . S
C1656 C1653 1.463 . S
C1656 N1660 1.427 . S
C1657 H1647 0.929 . S
C1657 C1655 1.433 . S
C1657 N1660 1.384 . S
C1658 H1649 0.929 . S
C1658 C1650 1.378 . S
C1658 C1653 1.350 . S
C1659 H1646 0.929 . S
C1659 C1651 1.433 . S
C1659 N1661 1.384 . S
N1660 C1656 1.427 . S
N1660 C1657 1.384 . S
N1661 C1653 1.427 . S
N1661 C1659 1.384 . S
H1662 C1668 0.930 . S
H1663 C1672 0.930 . S
H1664 C1677 0.929 . S
H1665 C1675 0.929 . S
H1666 C1670 0.929 . S
H1667 C1676 0.929 . S
C1668 H1662 0.930 . S
C1668 C1669 1.367 . S
C1668 C1676 1.378 . S
C1669 C1668 1.367 . S
C1669 C1677 1.433 . S
C1670 H1666 0.929 . S
C1670 C1672 1.378 . S
C1670 C1674 1.350 . S
C1671 C1674 1.463 . S
C1671 C1676 1.350 . S
C1671 N1679 1.427 . S
C1672 H1663 0.930 . S
C1672 C1670 1.378 . S
C1672 C1673 1.367 . S
C1673 C1672 1.367 . S
C1673 C1675 1.433 . S
C1674 C1670 1.350 . S
C1674 C1671 1.463 . S
C1674 N1678 1.427 . S
C1675 H1665 0.929 . S
C1675 C1673 1.433 . S
C1675 N1678 1.384 . S
C1676 H1667 0.929 . S
C1676 C1668 1.378 . S
C1676 C1671 1.350 . S
C1677 H1664 0.929 . S
C1677 C1669 1.433 . S
C1677 N1679 1.384 . S
N1678 C1674 1.427 . S
N1678 C1675 1.384 . S
N1679 C1671 1.427 . S
N1679 C1677 1.384 . S
H1680 C1686 0.930 . S
H1681 C1690 0.930 . S
H1682 C1695 0.929 . S
H1683 C1693 0.929 . S
H1684 C1688 0.929 . S
H1685 C1694 0.929 . S
C1686 H1680 0.930 . S
C1686 C1687 1.367 . S
C1686 C1694 1.378 . S
C1687 C1686 1.367 . S
C1687 C1695 1.433 . S
C1688 H1684 0.929 . S
C1688 C1690 1.378 . S
C1688 C1692 1.350 . S
C1689 C1692 1.463 . S
C1689 C1694 1.350 . S
C1689 N1697 1.427 . S
C1690 H1681 0.930 . S
C1690 C1688 1.378 . S
C1690 C1691 1.367 . S
C1691 C1690 1.367 . S
C1691 C1693 1.433 . S
C1692 C1688 1.350 . S
C1692 C1689 1.463 . S
C1692 N1696 1.427 . S
C1693 H1683 0.929 . S
C1693 C1691 1.433 . S
C1693 N1696 1.384 . S
C1694 H1685 0.929 . S
C1694 C1686 1.378 . S
C1694 C1689 1.350 . S
C1695 H1682 0.929 . S
C1695 C1687 1.433 . S
C1695 N1697 1.384 . S
N1696 C1692 1.427 . S
N1696 C1693 1.384 . S
N1697 C1689 1.427 . S
N1697 C1695 1.384 . S
H1698 C1704 0.930 . S
H1699 C1708 0.930 . S
H1700 C1713 0.929 . S
H1701 C1711 0.929 . S
H1702 C1706 0.929 . S
H1703 C1712 0.929 . S
C1704 H1698 0.930 . S
C1704 C1705 1.367 . S
C1704 C1712 1.378 . S
C1705 C1704 1.367 . S
C1705 C1713 1.433 . S
C1706 H1702 0.929 . S
C1706 C1708 1.378 . S
C1706 C1710 1.350 . S
C1707 C1710 1.463 . S
C1707 C1712 1.350 . S
C1707 N1715 1.427 . S
C1708 H1699 0.930 . S
C1708 C1706 1.378 . S
C1708 C1709 1.367 . S
C1709 C1708 1.367 . S
C1709 C1711 1.433 . S
C1710 C1706 1.350 . S
C1710 C1707 1.463 . S
C1710 N1714 1.427 . S
C1711 H1701 0.929 . S
C1711 C1709 1.433 . S
C1711 N1714 1.384 . S
C1712 H1703 0.929 . S
C1712 C1704 1.378 . S
C1712 C1707 1.350 . S
C1713 H1700 0.929 . S
C1713 C1705 1.433 . S
C1713 N1715 1.384 . S
N1714 C1710 1.427 . S
N1714 C1711 1.384 . S
N1715 C1707 1.427 . S
N1715 C1713 1.384 . S
H1716 C1722 0.930 . S
H1717 C1726 0.930 . S
H1718 C1731 0.929 . S
H1719 C1729 0.929 . S
H1720 C1724 0.929 . S
H1721 C1730 0.929 . S
C1722 H1716 0.930 . S
C1722 C1723 1.367 . S
C1722 C1730 1.378 . S
C1723 C1722 1.367 . S
C1723 C1731 1.433 . S
C1724 H1720 0.929 . S
C1724 C1726 1.378 . S
C1724 C1728 1.350 . S
C1725 C1728 1.463 . S
C1725 C1730 1.350 . S
C1725 N1733 1.427 . S
C1726 H1717 0.930 . S
C1726 C1724 1.378 . S
C1726 C1727 1.367 . S
C1727 C1726 1.367 . S
C1727 C1729 1.433 . S
C1728 C1724 1.350 . S
C1728 C1725 1.463 . S
C1728 N1732 1.427 . S
C1729 H1719 0.929 . S
C1729 C1727 1.433 . S
C1729 N1732 1.384 . S
C1730 H1721 0.929 . S
C1730 C1722 1.378 . S
C1730 C1725 1.350 . S
C1731 H1718 0.929 . S
C1731 C1723 1.433 . S
C1731 N1733 1.384 . S
N1732 C1728 1.427 . S
N1732 C1729 1.384 . S
N1733 C1725 1.427 . S
N1733 C1731 1.384 . S
H1734 C1740 0.930 . S
H1735 C1744 0.930 . S
H1736 C1749 0.929 . S
H1737 C1747 0.929 . S
H1738 C1742 0.929 . S
H1739 C1748 0.929 . S
C1740 H1734 0.930 . S
C1740 C1741 1.367 . S
C1740 C1748 1.378 . S
C1741 C1740 1.367 . S
C1741 C1749 1.433 . S
C1742 H1738 0.929 . S
C1742 C1744 1.378 . S
C1742 C1746 1.350 . S
C1743 C1746 1.463 . S
C1743 C1748 1.350 . S
C1743 N1751 1.427 . S
C1744 H1735 0.930 . S
C1744 C1742 1.378 . S
C1744 C1745 1.367 . S
C1745 C1744 1.367 . S
C1745 C1747 1.433 . S
C1746 C1742 1.350 . S
C1746 C1743 1.463 . S
C1746 N1750 1.427 . S
C1747 H1737 0.929 . S
C1747 C1745 1.433 . S
C1747 N1750 1.384 . S
C1748 H1739 0.929 . S
C1748 C1740 1.378 . S
C1748 C1743 1.350 . S
C1749 H1736 0.929 . S
C1749 C1741 1.433 . S
C1749 N1751 1.384 . S
N1750 C1746 1.427 . S
N1750 C1747 1.384 . S
N1751 C1743 1.427 . S
N1751 C1749 1.384 . S
H1752 C1758 0.930 . S
H1753 C1762 0.930 . S
H1754 C1767 0.929 . S
H1755 C1765 0.929 . S
H1756 C1760 0.929 . S
H1757 C1766 0.929 . S
C1758 H1752 0.930 . S
C1758 C1759 1.367 . S
C1758 C1766 1.378 . S
C1759 C1758 1.367 . S
C1759 C1767 1.433 . S
C1760 H1756 0.929 . S
C1760 C1762 1.378 . S
C1760 C1764 1.350 . S
C1761 C1764 1.463 . S
C1761 C1766 1.350 . S
C1761 N1769 1.427 . S
C1762 H1753 0.930 . S
C1762 C1760 1.378 . S
C1762 C1763 1.367 . S
C1763 C1762 1.367 . S
C1763 C1765 1.433 . S
C1764 C1760 1.350 . S
C1764 C1761 1.463 . S
C1764 N1768 1.427 . S
C1765 H1755 0.929 . S
C1765 C1763 1.433 . S
C1765 N1768 1.384 . S
C1766 H1757 0.929 . S
C1766 C1758 1.378 . S
C1766 C1761 1.350 . S
C1767 H1754 0.929 . S
C1767 C1759 1.433 . S
C1767 N1769 1.384 . S
N1768 C1764 1.427 . S
N1768 C1765 1.384 . S
N1769 C1761 1.427 . S
N1769 C1767 1.384 . S
H1770 C1776 0.930 . S
H1771 C1780 0.930 . S
H1772 C1785 0.929 . S
H1773 C1783 0.929 . S
H1774 C1778 0.929 . S
H1775 C1784 0.929 . S
C1776 H1770 0.930 . S
C1776 C1777 1.367 . S
C1776 C1784 1.378 . S
C1777 C1776 1.367 . S
C1777 C1785 1.433 . S
C1778 H1774 0.929 . S
C1778 C1780 1.378 . S
C1778 C1782 1.350 . S
C1779 C1782 1.463 . S
C1779 C1784 1.350 . S
C1779 N1787 1.427 . S
C1780 H1771 0.930 . S
C1780 C1778 1.378 . S
C1780 C1781 1.367 . S
C1781 C1780 1.367 . S
C1781 C1783 1.433 . S
C1782 C1778 1.350 . S
C1782 C1779 1.463 . S
C1782 N1786 1.427 . S
C1783 H1773 0.929 . S
C1783 C1781 1.433 . S
C1783 N1786 1.384 . S
C1784 H1775 0.929 . S
C1784 C1776 1.378 . S
C1784 C1779 1.350 . S
C1785 H1772 0.929 . S
C1785 C1777 1.433 . S
C1785 N1787 1.384 . S
N1786 C1782 1.427 . S
N1786 C1783 1.384 . S
N1787 C1779 1.427 . S
N1787 C1785 1.384 . S
H1788 C1794 0.930 . S
H1789 C1798 0.930 . S
H1790 C1803 0.929 . S
H1791 C1801 0.929 . S
H1792 C1796 0.929 . S
H1793 C1802 0.929 . S
C1794 H1788 0.930 . S
C1794 C1795 1.367 . S
C1794 C1802 1.378 . S
C1795 C1794 1.367 . S
C1795 C1803 1.433 . S
C1796 H1792 0.929 . S
C1796 C1798 1.378 . S
C1796 C1800 1.350 . S
C1797 C1800 1.463 . S
C1797 C1802 1.350 . S
C1797 N1805 1.427 . S
C1798 H1789 0.930 . S
C1798 C1796 1.378 . S
C1798 C1799 1.367 . S
C1799 C1798 1.367 . S
C1799 C1801 1.433 . S
C1800 C1796 1.350 . S
C1800 C1797 1.463 . S
C1800 N1804 1.427 . S
C1801 H1791 0.929 . S
C1801 C1799 1.433 . S
C1801 N1804 1.384 . S
C1802 H1793 0.929 . S
C1802 C1794 1.378 . S
C1802 C1797 1.350 . S
C1803 H1790 0.929 . S
C1803 C1795 1.433 . S
C1803 N1805 1.384 . S
N1804 C1800 1.427 . S
N1804 C1801 1.384 . S
N1805 C1797 1.427 . S
N1805 C1803 1.384 . S
H1806 C1812 0.930 . S
H1807 C1816 0.930 . S
H1808 C1821 0.929 . S
H1809 C1819 0.929 . S
H1810 C1814 0.929 . S
H1811 C1820 0.929 . S
C1812 H1806 0.930 . S
C1812 C1813 1.367 . S
C1812 C1820 1.378 . S
C1813 C1812 1.367 . S
C1813 C1821 1.433 . S
C1814 H1810 0.929 . S
C1814 C1816 1.378 . S
C1814 C1818 1.350 . S
C1815 C1818 1.463 . S
C1815 C1820 1.350 . S
C1815 N1823 1.427 . S
C1816 H1807 0.930 . S
C1816 C1814 1.378 . S
C1816 C1817 1.367 . S
C1817 C1816 1.367 . S
C1817 C1819 1.433 . S
C1818 C1814 1.350 . S
C1818 C1815 1.463 . S
C1818 N1822 1.427 . S
C1819 H1809 0.929 . S
C1819 C1817 1.433 . S
C1819 N1822 1.384 . S
C1820 H1811 0.929 . S
C1820 C1812 1.378 . S
C1820 C1815 1.350 . S
C1821 H1808 0.929 . S
C1821 C1813 1.433 . S
C1821 N1823 1.384 . S
N1822 C1818 1.427 . S
N1822 C1819 1.384 . S
N1823 C1815 1.427 . S
N1823 C1821 1.384 . S
C535 C7 0.790 . S
C539 C159 0.772 . S
C553 C29 0.793 . S
C557 C95 0.766 . S
C571 C49 0.773 . S
C575 C119 0.782 . S
C589 C72 0.780 . S
C593 C139 0.776 . S
C607 C5 0.786 . S
C611 C183 0.777 . S
C625 C205 0.790 . S
C629 C27 0.772 . S
C643 C227 0.784 . S
C647 C51 0.772 . S
C661 C75 0.766 . S
C665 C251 0.793 . S
C679 C93 0.771 . S
C683 C203 0.790 . S
C697 C225 0.774 . S
C701 C116 0.782 . S
C715 C137 0.793 . S
C719 C248 0.766 . S
C733 C161 0.792 . S
C737 C181 0.766 . S
C751 C269 0.766 . S
C755 C469 0.792 . S
C769 C293 0.786 . S
C773 C493 0.776 . S
C787 C317 0.793 . S
C791 C515 0.766 . S
C805 C512 0.780 . S
C809 C335 0.782 . S
C823 C467 0.793 . S
C827 C357 0.767 . S
C841 C379 0.771 . S
C845 C424 0.785 . S
C859 C271 0.778 . S
C863 C359 0.778 . S
C877 C405 0.793 . S
C881 C291 0.766 . S
C895 C337 0.766 . S
C899 C314 0.793 . S
C913 C449 0.772 . S
C917 C381 0.784 . S
C931 C402 0.767 . S
C935 C490 0.793 . S
C949 C427 0.793 . S
C953 C446 0.766 . S
C967 C94 0.380 . S
C971 C6 0.389 . S
C985 C114 0.372 . S
C989 C28 0.383 . S
C1003 C52 0.364 . S
C1007 C138 0.371 . S
C1021 C73 0.379 . S
C1025 C162 0.388 . S
C1039 C249 0.364 . S
C1043 C182 0.368 . S
C1057 C184 0.390 . S
C1061 C204 0.384 . S
C1075 C206 0.378 . S
C1079 C226 0.367 . S
C1093 C246 0.378 . S
C1097 C228 0.388 . S
C1111 C403 0.375 . S
C1115 C160 0.366 . S
C1129 C70 0.372 . S
C1133 C272 0.383 . S
C1147 C8 0.380 . S
C1151 C292 0.389 . S
C1165 C30 0.380 . S
C1169 C312 0.369 . S
C1183 C422 0.379 . S
C1187 C117 0.388 . S
C1201 C96 0.372 . S
C1205 C338 0.364 . S
C1219 C140 0.389 . S
C1223 C360 0.390 . S
C1237 C358 0.387 . S
C1241 C382 0.390 . S
C1255 C400 0.372 . S
C1259 C270 0.364 . S
C1273 C294 0.390 . S
C1277 C336 0.384 . S
C1291 C425 0.373 . S
C1295 C315 0.383 . S
C1309 C444 0.388 . S
C1313 C513 0.379 . S
C1327 C447 0.364 . S
C1331 C468 0.372 . S
C1345 C488 0.375 . S
C1349 C470 0.366 . S
C1363 C510 0.364 . S
C1367 C491 0.371 . S
C1381 C380 0.388 . S
C1385 C50 0.378 . S
C1399 C4 2.160 . S
C1403 C202 2.156 . S
C1417 C26 2.161 . S
C1421 C224 2.160 . S
C1435 C53 2.156 . S
C1439 C247 2.152 . S
C1453 C180 2.150 . S
C1457 C74 2.149 . S
C1471 C92 2.152 . S
C1475 C185 2.156 . S
C1489 C207 2.157 . S
C1493 C115 2.153 . S
C1507 C229 2.155 . S
C1511 C136 2.151 . S
C1525 C163 2.149 . S
C1529 C250 2.150 . S
C1543 C158 2.162 . S
C1547 C290 2.162 . S
C1561 C141 2.153 . S
C1565 C273 2.157 . S
C1579 C97 2.160 . S
C1583 C313 2.157 . S
C1597 C404 2.149 . S
C1601 C9 2.150 . S
C1615 C378 2.162 . S
C1619 C118 2.159 . S
C1633 C31 2.149 . S
C1637 C339 2.149 . S
C1651 C71 2.150 . S
C1655 C361 2.152 . S
C1669 C466 2.154 . S
C1673 C383 2.158 . S
C1687 C489 2.152 . S
C1691 C268 2.156 . S
C1705 C511 2.156 . S
C1709 C295 2.152 . S
C1723 C445 2.159 . S
C1727 C316 2.162 . S
C1741 C448 2.155 . S
C1745 C356 2.152 . S
C1759 C401 2.150 . S
C1763 C471 2.150 . S
C1777 C492 2.161 . S
C1781 C334 2.161 . S
C1795 C426 2.149 . S
C1799 C514 2.150 . S
C1813 C48 2.155 . S
C1817 C423 2.152 . S
