# Generated by pormake.
# Topology uov, (4)-cn, num edge types: 1
# Building blocks:
#     Node 0, Type 0, BuildingBlock: GALJAG_clean_sbu_0, # of connection points: 4
#     Node 1, Type 0, BuildingBlock: GALJAG_clean_sbu_0, # of connection points: 4
#     Node 2, Type 0, BuildingBlock: GALJAG_clean_sbu_0, # of connection points: 4
#     Node 3, Type 0, BuildingBlock: GALJAG_clean_sbu_0, # of connection points: 4
#     Node 4, Type 0, BuildingBlock: GALJAG_clean_sbu_0, # of connection points: 4
#     Node 5, Type 0, BuildingBlock: GALJAG_clean_sbu_0, # of connection points: 4
#     Node 6, Type 0, BuildingBlock: GALJAG_clean_sbu_0, # of connection points: 4
#     Node 7, Type 0, BuildingBlock: GALJAG_clean_sbu_0, # of connection points: 4
#     Edge 8, Type (0, 0), BuildingBlock: MIFKUJ_clean_linker_0, # of connection points: 2
#     Edge 9, Type (0, 0), BuildingBlock: MIFKUJ_clean_linker_0, # of connection points: 2
#     Edge 10, Type (0, 0), BuildingBlock: MIFKUJ_clean_linker_0, # of connection points: 2
#     Edge 11, Type (0, 0), BuildingBlock: MIFKUJ_clean_linker_0, # of connection points: 2
#     Edge 12, Type (0, 0), BuildingBlock: MIFKUJ_clean_linker_0, # of connection points: 2
#     Edge 13, Type (0, 0), BuildingBlock: MIFKUJ_clean_linker_0, # of connection points: 2
#     Edge 14, Type (0, 0), BuildingBlock: MIFKUJ_clean_linker_0, # of connection points: 2
#     Edge 15, Type (0, 0), BuildingBlock: MIFKUJ_clean_linker_0, # of connection points: 2
#     Edge 16, Type (0, 0), BuildingBlock: MIFKUJ_clean_linker_0, # of connection points: 2
#     Edge 17, Type (0, 0), BuildingBlock: MIFKUJ_clean_linker_0, # of connection points: 2
#     Edge 18, Type (0, 0), BuildingBlock: MIFKUJ_clean_linker_0, # of connection points: 2
#     Edge 19, Type (0, 0), BuildingBlock: MIFKUJ_clean_linker_0, # of connection points: 2
#     Edge 20, Type (0, 0), BuildingBlock: MIFKUJ_clean_linker_0, # of connection points: 2
#     Edge 21, Type (0, 0), BuildingBlock: MIFKUJ_clean_linker_0, # of connection points: 2
#     Edge 22, Type (0, 0), BuildingBlock: MIFKUJ_clean_linker_0, # of connection points: 2
#     Edge 23, Type (0, 0), BuildingBlock: MIFKUJ_clean_linker_0, # of connection points: 2
# Relax obj value: 0.177
# Max RMSD: 0.147
# Mean RMSD: 0.147
data_MOF--net-uov--node1-GALJAG_clean_sbu_0--edge1-MIFKUJ_clean_linker_0
_symmetry_space_group_name_H-M    P1
_symmetry_Int_Tables_number       1
_symmetry_cell_setting            triclinic
loop_
_symmetry_equiv_pos_as_xyz
'x, y, z'
_cell_length_a     37.142634
_cell_length_b     37.199721
_cell_length_c     60.474239
_cell_angle_alpha  89.980768
_cell_angle_beta   90.00333
_cell_angle_gamma 89.970003
loop_
_atom_site_label
_atom_site_type_symbol
_atom_site_fract_x
_atom_site_fract_y
_atom_site_fract_z
_atom_type_partial_charge
In0 In 0.08572 0.24893 0.60834 0.0
O1 O 0.09912 0.30771 0.61508 0.0
O2 O 0.04682 0.2886 0.6235 0.0
C3 C 0.13366 0.23169 0.57677 0.0
C4 C 0.10839 0.21996 0.64651 0.0
C5 C 0.02814 0.22764 0.58486 0.0
O6 O 0.12203 0.26336 0.57909 0.0
O7 O 0.12249 0.20963 0.59102 0.0
O8 O 0.03991 0.20967 0.60107 0.0
O9 O 0.04497 0.25637 0.58095 0.0
C10 C 0.06839 0.31474 0.62293 0.0
O11 O 0.07839 0.21196 0.63798 0.0
O12 O 0.12688 0.24231 0.63568 0.0
In13 In 0.24042 0.94092 0.38484 0.0
O14 O 0.2992 0.92349 0.38872 0.0
O15 O 0.28826 0.97682 0.37794 0.0
C16 C 0.20596 0.89357 0.41086 0.0
C17 C 0.22225 0.91934 0.34391 0.0
C18 C 0.2178 -4e-05 0.40621 0.0
O19 O 0.2395 0.89894 0.41235 0.0
O20 O 0.19041 0.91098 0.3957 0.0
O21 O 0.21797 -0.00162 0.38532 0.0
O22 O 0.22905 0.97217 0.41592 0.0
C23 C 0.31163 0.95368 0.38296 0.0
O24 O 0.20905 0.94719 0.35268 0.0
O25 O 0.24489 0.90283 0.35568 0.0
In26 In 0.92033 0.73177 0.6003 0.0
O27 O 0.91175 0.67188 0.60611 0.0
O28 O 0.95595 0.6975 0.62209 0.0
C29 C 0.87755 0.73209 0.56413 0.0
C30 C 0.89158 0.76473 0.63565 0.0
C31 C 0.97917 0.76228 0.58236 0.0
O32 O 0.90576 0.71343 0.56532 0.0
O33 O 0.87012 0.74917 0.58152 0.0
O34 O 0.95222 0.78064 0.58827 0.0
O35 O 0.97664 0.72907 0.58614 0.0
C36 C 0.93876 0.66881 0.61869 0.0
O37 O 0.91879 0.77697 0.62565 0.0
O38 O 0.87877 0.73615 0.62765 0.0
In39 In 0.75925 0.04753 0.39004 0.0
O40 O 0.70066 0.06606 0.39258 0.0
O41 O 0.71156 0.01538 0.37777 0.0
C42 C 0.79298 0.09105 0.41885 0.0
C43 C 0.78103 0.07262 0.35062 0.0
C44 C 0.77747 0.98557 0.40992 0.0
O45 O 0.75935 0.08607 0.41942 0.0
O46 O 0.8092 0.07481 0.40349 0.0
O47 O 0.78739 0.99269 0.39041 0.0
O48 O 0.75869 0.00956 0.41907 0.0
C49 C 0.68821 0.03791 0.38377 0.0
O50 O 0.78847 0.04125 0.35719 0.0
O51 O 0.76226 0.09103 0.36383 0.0
In52 In 0.94125 0.24192 0.10811 0.0
O53 O 0.95003 0.22713 0.14435 0.0
O54 O 0.90041 0.21245 0.12941 0.0
C55 C 0.0119 0.24024 0.09772 0.0
C56 C 0.92557 0.31243 0.10925 0.0
C57 C 0.91019 0.20514 0.07491 0.0
O58 O 0.99625 0.21416 0.10701 0.0
O59 O 0.99218 0.26727 0.09442 0.0
O60 O 0.89397 0.22993 0.08511 0.0
O61 O 0.94161 0.19868 0.08171 0.0
C62 C 0.91964 0.21246 0.14657 0.0
O63 O 0.92356 0.29399 0.09181 0.0
O64 O 0.93428 0.29496 0.12632 0.0
In65 In 0.25246 0.08573 0.90035 0.0
O66 O 0.31296 0.09201 0.89485 0.0
O67 O 0.28904 0.04104 0.88864 0.0
C68 C 0.23797 0.14078 0.92792 0.0
C69 C 0.22717 0.10541 0.8606 0.0
C70 C 0.22538 0.03194 0.92492 0.0
O71 O 0.26779 0.12451 0.92819 0.0
O72 O 0.21632 0.13011 0.91328 0.0
O73 O 0.21333 0.03917 0.90589 0.0
O74 O 0.25067 0.05193 0.9314 0.0
C75 C 0.31728 0.05975 0.88889 0.0
O76 O 0.21154 0.08227 0.87249 0.0
O77 O 0.25535 0.11878 0.86889 0.0
In78 In 0.04531 0.7485 0.10689 0.0
O79 O 0.05151 0.69211 0.09273 0.0
O80 O 0.02812 0.6976 0.12465 0.0
C81 C 0.08871 0.76912 0.07344 0.0
C82 C 0.0724 0.77295 0.14526 0.0
C83 C 0.98076 0.77766 0.09707 0.0
O84 O 0.05819 0.75529 0.07027 0.0
O85 O 0.09802 0.77106 0.09345 0.0
O86 O 0.98416 0.74563 0.10354 0.0
O87 O 0.00966 0.79539 0.0967 0.0
C88 C 0.03724 0.67683 0.10916 0.0
O89 O 0.04467 0.78634 0.13644 0.0
O90 O 0.08612 0.74691 0.13487 0.0
In91 In 0.74827 0.9287 0.88301 0.0
O92 O 0.77685 0.93549 0.85003 0.0
O93 O 0.75465 0.88424 0.85746 0.0
C94 C 0.7681 0.99149 0.9012 0.0
C95 C 0.67848 0.93859 0.87354 0.0
C96 C 0.77468 0.88772 0.91603 0.0
O97 O 0.78711 0.97564 0.8869 0.0
O98 O 0.73883 0.97607 0.90586 0.0
O99 O 0.74127 0.89162 0.91303 0.0
O100 O 0.79425 0.90307 0.90189 0.0
C101 C 0.77145 0.9036 0.84381 0.0
O102 O 0.68958 0.91094 0.88361 0.0
O103 O 0.70263 0.96073 0.8681 0.0
H104 H 0.90353 0.60448 0.61743 0.0
H105 H 0.92817 0.54545 0.62717 0.0
H106 H 0.02722 0.59545 0.64808 0.0
H107 H 0.00268 0.65452 0.63872 0.0
H108 H 0.03368 0.54191 0.61443 0.0
H109 H 0.98072 0.55815 0.68604 0.0
H110 H 0.93164 0.57198 0.71213 0.0
H111 H 0.87043 0.48292 0.68717 0.0
H112 H 0.91892 0.46885 0.66068 0.0
H113 H 0.11174 0.37206 0.63212 0.0
H114 H 0.09269 0.43377 0.64005 0.0
H115 H 0.98139 0.40109 0.63534 0.0
H116 H 0.0003 0.33931 0.62859 0.0
H117 H 0.98643 0.44911 0.6657 0.0
H118 H 0.02934 0.43884 0.59078 0.0
H119 H 0.07317 0.42495 0.56134 0.0
H120 H 0.14679 0.5023 0.58839 0.0
H121 H 0.10353 0.51632 0.61816 0.0
C122 C 0.93027 0.60291 0.62452 0.0
C123 C 0.95133 0.63394 0.62717 0.0
C124 C 0.94421 0.56928 0.63016 0.0
C125 C 0.97942 0.56632 0.63836 0.0
C126 C -6e-05 0.59738 0.64185 0.0
C127 C 0.98587 0.63101 0.63649 0.0
C128 C 0.9962 0.53062 0.64068 0.0
C129 C 0.02399 0.52179 0.62599 0.0
C130 C 0.98254 0.50432 0.65526 0.0
C131 C 0.95339 0.5126 0.67126 0.0
C132 C 0.95668 0.54168 0.68598 0.0
C133 C 0.92898 0.54953 0.70087 0.0
C134 C 0.89791 0.52838 0.70128 0.0
C135 C 0.89451 0.49928 0.68683 0.0
C136 C 0.92212 0.49133 0.6719 0.0
C137 C 0.08325 0.37808 0.63309 0.0
C138 C 0.05746 0.35115 0.62952 0.0
C139 C 0.07238 0.41328 0.63755 0.0
C140 C 0.0356 0.42219 0.63783 0.0
C141 C 0.0099 0.3949 0.63521 0.0
C142 C 0.02073 0.35963 0.63124 0.0
C143 C 0.02367 0.46011 0.63918 0.0
C144 C 0.99669 0.46938 0.65445 0.0
C145 C 0.03737 0.48671 0.62469 0.0
C146 C 0.06343 0.47827 0.60684 0.0
C147 C 0.055 0.45267 0.59054 0.0
C148 C 0.07971 0.44481 0.57378 0.0
C149 C 0.11279 0.46264 0.57304 0.0
C150 C 0.12119 0.48844 0.58902 0.0
C151 C 0.09659 0.49636 0.60583 0.0
H152 H 0.13188 0.45653 0.56005 0.0
H153 H 0.8765 0.53451 0.71282 0.0
H154 H 0.63233 0.08476 0.38979 0.0
H155 H 0.5679 0.07097 0.38853 0.0
H156 H 0.59247 0.96022 0.3734 0.0
H157 H 0.6566 0.97419 0.37374 0.0
H158 H 0.53839 0.97987 0.34983 0.0
H159 H 0.56844 0.98914 0.42654 0.0
H160 H 0.59283 0.01742 0.46023 0.0
H161 H 0.51728 0.1042 0.45373 0.0
H162 H 0.49276 0.07668 0.4198 0.0
H163 H 0.36804 0.90645 0.38382 0.0
H164 H 0.43249 0.92119 0.383 0.0
H165 H 0.40661 0.03418 0.38099 0.0
H166 H 0.3424 0.01974 0.3814 0.0
H167 H 0.46049 0.01299 0.4133 0.0
H168 H 0.43073 -5e-05 0.33578 0.0
H169 H 0.40638 0.96759 0.3035 0.0
H170 H 0.4823 0.88214 0.31387 0.0
H171 H 0.50676 0.91377 0.34643 0.0
C172 C 0.62388 0.05757 0.38603 0.0
C173 C 0.64938 0.03052 0.38193 0.0
C174 C 0.58712 0.04965 0.38546 0.0
C175 C 0.57536 0.01439 0.38127 0.0
C176 C 0.60087 0.98759 0.37668 0.0
C177 C 0.63752 0.99561 0.37692 0.0
C178 C 0.53655 0.00516 0.38191 0.0
C179 C 0.52152 0.98677 0.36385 0.0
C180 C 0.51436 0.01441 0.4001 0.0
C181 C 0.52903 0.03104 0.4205 0.0
C182 C 0.55722 0.0144 0.43219 0.0
C183 C 0.57103 0.03027 0.45135 0.0
C184 C 0.55668 0.06263 0.45908 0.0
C185 C 0.52841 0.07916 0.4477 0.0
C186 C 0.51453 0.06343 0.42851 0.0
C187 C 0.37618 0.93439 0.38318 0.0
C188 C 0.35036 0.96197 0.38259 0.0
C189 C 0.41286 0.94274 0.38268 0.0
C190 C 0.42407 0.97874 0.38188 0.0
C191 C 0.39834 0.00627 0.38161 0.0
C192 C 0.36176 -0.00205 0.38175 0.0
C193 C 0.46269 0.98787 0.38129 0.0
C194 C 0.47756 0.00617 0.39935 0.0
C195 C 0.48485 0.97796 0.36332 0.0
C196 C 0.4703 0.95904 0.34368 0.0
C197 C 0.44201 0.9741 0.3313 0.0
C198 C 0.42824 0.95593 0.31293 0.0
C199 C 0.44271 0.92278 0.30667 0.0
C200 C 0.47108 0.90779 0.31875 0.0
C201 C 0.48492 0.92584 0.33715 0.0
H202 H 0.43202 0.90875 0.29244 0.0
H203 H 0.5674 0.07487 0.47392 0.0
H204 H 0.92327 0.35601 0.07315 0.0
H205 H 0.93629 0.4204 0.07235 0.0
H206 H 0.93918 0.42244 0.14362 0.0
H207 H 0.92654 0.35787 0.14461 0.0
H208 H 0.90774 0.48622 0.1219 0.0
H209 H 0.01315 0.4082 0.12062 0.0
H210 H 0.04876 0.35804 0.10533 0.0
H211 H 0.05349 0.41138 0.04243 0.0
H212 H 0.01723 0.46153 0.05723 0.0
H213 H 0.01454 0.63687 0.14416 0.0
H214 H 0.99206 0.57517 0.14338 0.0
H215 H 0.01506 0.56897 0.07352 0.0
H216 H 0.03869 0.63032 0.07436 0.0
H217 H 0.03081 0.5076 0.09259 0.0
H218 H 0.92962 0.58645 0.09245 0.0
H219 H 0.89157 0.63652 0.1054 0.0
H220 H 0.876 0.58297 0.16757 0.0
H221 H 0.91445 0.53279 0.15512 0.0
C222 C 0.92563 0.37035 0.08867 0.0
C223 C 0.92443 0.35195 0.10895 0.0
C224 C 0.93311 0.40707 0.08816 0.0
C225 C 0.93916 0.4258 0.10792 0.0
C226 C 0.93464 0.40824 0.12823 0.0
C227 C 0.92752 0.37142 0.12876 0.0
C228 C 0.95479 0.46217 0.10737 0.0
C229 C 0.93472 0.491 0.11568 0.0
C230 C 0.98965 0.4682 0.09871 0.0
C231 C 0.01215 0.43843 0.08997 0.0
C232 C 0.02153 0.4091 0.10348 0.0
C233 C 0.04185 0.38068 0.09491 0.0
C234 C 0.05331 0.38149 0.07291 0.0
C235 C 0.04455 0.41077 0.05946 0.0
C236 C 0.02411 0.43919 0.06792 0.0
C237 C 0.01526 0.62214 0.12871 0.0
C238 C 0.02808 0.63836 0.10929 0.0
C239 C 0.00219 0.58703 0.12825 0.0
C240 C 0.00106 0.56785 0.10827 0.0
C241 C 0.01547 0.58341 0.08907 0.0
C242 C 0.02898 0.61841 0.08958 0.0
C243 C 0.98392 0.53198 0.10732 0.0
C244 C 0.00374 0.50309 0.09872 0.0
C245 C 0.9486 0.52604 0.11542 0.0
C246 C 0.92519 0.556 0.12291 0.0
C247 C 0.91829 0.58546 0.10894 0.0
C248 C 0.89663 0.61385 0.11618 0.0
C249 C 0.88144 0.61296 0.13731 0.0
C250 C 0.88782 0.58363 0.15122 0.0
C251 C 0.90952 0.55519 0.14407 0.0
H252 H 0.86468 0.63497 0.14289 0.0
H253 H 0.06907 0.35949 0.0663 0.0
H254 H 0.37998 0.0958 0.88101 0.0
H255 H 0.43924 0.06953 0.87329 0.0
H256 H 0.39357 0.96313 0.87708 0.0
H257 H 0.33425 0.9891 0.88446 0.0
H258 H 0.45597 0.97527 0.90398 0.0
H259 H 0.41538 0.98951 0.82921 0.0
H260 H 0.38993 0.02288 0.79763 0.0
H261 H 0.47885 0.09652 0.79956 0.0
H262 H 0.50455 0.06393 0.8314 0.0
H263 H 0.62176 0.89259 0.87869 0.0
H264 H 0.55763 0.90738 0.87608 0.0
H265 H 0.58474 0.01662 0.85865 0.0
H266 H 0.64857 0.00163 0.86035 0.0
H267 H 0.52829 0.99707 0.8363 0.0
H268 H 0.56468 0.99057 0.91278 0.0
H269 H 0.59027 0.96183 0.94602 0.0
H270 H 0.50996 0.879 0.94269 0.0
H271 H 0.48418 0.90703 0.90924 0.0
C272 C 0.38258 0.06684 0.88002 0.0
C273 C 0.35266 0.04445 0.88335 0.0
C274 C 0.4163 0.05192 0.87552 0.0
C275 C 0.42051 0.01447 0.87454 0.0
C276 C 0.39066 0.99209 0.87773 0.0
C277 C 0.35689 0.00698 0.8819 0.0
C278 C 0.45654 -0.00133 0.87142 0.0
C279 C 0.47162 0.97937 0.88903 0.0
C280 C 0.47696 0.00495 0.85211 0.0
C281 C 0.46174 0.02443 0.83283 0.0
C282 C 0.42936 0.013 0.82303 0.0
C283 C 0.41491 0.03174 0.80506 0.0
C284 C 0.43272 0.06185 0.79663 0.0
C285 C 0.46507 0.07321 0.80612 0.0
C286 C 0.47961 0.05459 0.82412 0.0
C287 C 0.61393 0.91959 0.87401 0.0
C288 C 0.64002 0.94607 0.86994 0.0
C289 C 0.57736 0.92804 0.87259 0.0
C290 C 0.56643 0.9633 0.8676 0.0
C291 C 0.59253 0.98927 0.86256 0.0
C292 C 0.62901 0.9807 0.86362 0.0
C293 C 0.5281 0.97399 0.86902 0.0
C294 C 0.51254 0.99243 0.85113 0.0
C295 C 0.50736 0.96749 0.88826 0.0
C296 C 0.52279 0.95064 0.90837 0.0
C297 C 0.55266 0.96607 0.91905 0.0
C298 C 0.56716 0.94994 0.93794 0.0
C299 C 0.55182 0.91854 0.94642 0.0
C300 C 0.52187 0.90327 0.93607 0.0
C301 C 0.50729 0.91927 0.91715 0.0
H302 H 0.56308 0.9061 0.96105 0.0
H303 H 0.42148 0.07633 0.78272 0.0
H304 H 0.21545 0.07016 0.39243 0.0
H305 H 0.20115 0.12306 0.41532 0.0
H306 H 0.17953 0.05345 0.47084 0.0
H307 H 0.1943 0.00109 0.44839 0.0
H308 H 0.1279 0.10911 0.46464 0.0
H309 H 0.25809 0.08888 0.46779 0.0
H310 H 0.31824 0.08392 0.45077 0.0
H311 H 0.30851 0.19121 0.42522 0.0
H312 H 0.24801 0.19657 0.44185 0.0
H313 H 0.16189 0.16562 0.56941 0.0
H314 H 0.1784 0.14028 0.53368 0.0
H315 H 0.16456 0.24395 0.50296 0.0
H316 H 0.14742 0.26973 0.53887 0.0
H317 H 0.22917 0.18696 0.48867 0.0
H318 H 0.10106 0.20953 0.49307 0.0
H319 H 0.0427 0.21152 0.51251 0.0
H320 H 0.04884 0.09795 0.52455 0.0
H321 H 0.10768 0.09542 0.50567 0.0
C322 C 0.20719 0.06632 0.40944 0.0
C323 C 0.2061 0.03172 0.41875 0.0
C324 C 0.19914 0.09642 0.42245 0.0
C325 C 0.18934 0.092 0.4447 0.0
C326 C 0.1869 0.05734 0.45366 0.0
C327 C 0.19551 0.0275 0.44087 0.0
C328 C 0.18351 0.12305 0.45944 0.0
C329 C 0.14981 0.1266 0.46963 0.0
C330 C 0.21205 0.14612 0.46565 0.0
C331 C 0.24839 0.14294 0.45577 0.0
C332 C 0.26865 0.11127 0.45836 0.0
C333 C 0.30282 0.10841 0.44883 0.0
C334 C 0.31713 0.13718 0.43685 0.0
C335 C 0.29734 0.16891 0.43445 0.0
C336 C 0.26312 0.17188 0.44392 0.0
C337 C 0.16335 0.18334 0.55522 0.0
C338 C 0.15287 0.21951 0.55683 0.0
C339 C 0.17281 0.16882 0.53484 0.0
C340 C 0.17216 0.19025 0.5158 0.0
C341 C 0.16512 0.22714 0.51759 0.0
C342 C 0.1554 0.24175 0.53807 0.0
C343 C 0.17381 0.17235 0.49411 0.0
C344 C 0.20674 0.17085 0.48287 0.0
C345 C 0.14455 0.15107 0.48689 0.0
C346 C 0.10897 0.15237 0.4981 0.0
C347 C 0.09017 0.18505 0.50007 0.0
C348 C 0.05698 0.18627 0.51097 0.0
C349 C 0.04213 0.15489 0.51979 0.0
C350 C 0.06041 0.12224 0.51772 0.0
C351 C 0.09369 0.1209 0.50693 0.0
H352 H 0.01644 0.15586 0.52817 0.0
H353 H 0.34359 0.13492 0.42948 0.0
H354 H 0.13397 0.88013 0.41117 0.0
H355 H 0.09849 0.85603 0.44174 0.0
H356 H 0.19582 0.83714 0.47893 0.0
H357 H 0.23155 0.86176 0.44846 0.0
H358 H 0.09386 0.79442 0.46394 0.0
H359 H 0.17998 0.86112 0.53264 0.0
H360 H 0.22035 0.91329 0.53716 0.0
H361 H 0.16638 0.96788 0.48407 0.0
H362 H 0.12542 0.91627 0.47945 0.0
H363 H 0.03564 0.72585 0.56465 0.0
H364 H 0.0786 0.74808 0.53738 0.0
H365 H 0.03313 0.85443 0.54285 0.0
H366 H 0.99029 0.83243 0.57056 0.0
H367 H 0.10742 0.85553 0.53648 0.0
H368 H 0.00251 0.8034 0.50413 0.0
H369 H 0.95651 0.75627 0.49921 0.0
H370 H 0.03774 0.68253 0.47701 0.0
H371 H 0.08441 0.72892 0.48235 0.0
C372 C 0.14788 0.87026 0.4257 0.0
C373 C 0.18549 0.8731 0.42753 0.0
C374 C 0.12756 0.85647 0.44315 0.0
C375 C 0.14449 0.84541 0.46273 0.0
C376 C 0.18223 0.84612 0.46407 0.0
C377 C 0.2026 0.85995 0.44661 0.0
C378 C 0.12244 0.8352 0.48214 0.0
C379 C 0.097 0.80761 0.47982 0.0
C380 C 0.12577 0.85324 0.50267 0.0
C381 C 0.14993 0.88464 0.50555 0.0
C382 C 0.17667 0.88431 0.52199 0.0
C383 C 0.19966 0.91377 0.52456 0.0
C384 C 0.19603 0.94381 0.51085 0.0
C385 C 0.16928 0.94453 0.49461 0.0
C386 C 0.1462 0.91516 0.492 0.0
C387 C 0.03529 0.75416 0.56045 0.0
C388 C 0.00917 0.77732 0.56938 0.0
C389 C 0.0598 0.76677 0.54484 0.0
C390 C 0.0585 0.80268 0.53783 0.0
C391 C 0.0344 0.82656 0.548 0.0
C392 C 0.00987 0.81395 0.56373 0.0
C393 C 0.07967 0.81414 0.51838 0.0
C394 C 0.10467 0.84209 0.52065 0.0
C395 C 0.07512 0.79727 0.49758 0.0
C396 C 0.04702 0.76953 0.49385 0.0
C397 C 0.01061 0.77705 0.49836 0.0
C398 C 0.98441 0.75049 0.49549 0.0
C399 C 0.9942 0.71645 0.48782 0.0
C400 C 0.03021 0.70891 0.48297 0.0
C401 C 0.05656 0.73532 0.48593 0.0
H402 H 0.97387 0.69593 0.4856 0.0
H403 H 0.21387 0.96657 0.51285 0.0
H404 H 0.81237 0.92625 0.39341 0.0
H405 H 0.82886 0.87141 0.41381 0.0
H406 H 0.78076 0.91525 0.47288 0.0
H407 H 0.76427 0.96955 0.45282 0.0
H408 H 0.84994 0.88969 0.47933 0.0
H409 H 0.73762 0.85278 0.44488 0.0
H410 H 0.69803 0.84098 0.41296 0.0
H411 H 0.77387 0.76401 0.38782 0.0
H412 H 0.81417 0.77575 0.41947 0.0
H413 H 0.81424 0.76737 0.55824 0.0
H414 H 0.79464 0.79651 0.52418 0.0
H415 H 0.88037 0.7445 0.48835 0.0
H416 H 0.90023 0.71501 0.52244 0.0
H417 H 0.80037 0.76785 0.46511 0.0
H418 H 0.91465 0.80834 0.49882 0.0
H419 H 0.95106 0.81734 0.53245 0.0
H420 H 0.86972 0.8873 0.5589 0.0
H421 H 0.83249 0.87791 0.52553 0.0
C422 C 0.80529 0.92402 0.41073 0.0
C423 C 0.78715 0.95214 0.42157 0.0
C424 C 0.81457 0.89273 0.4223 0.0
C425 C 0.80596 0.88941 0.4448 0.0
C426 C 0.7877 0.91739 0.45552 0.0
C427 C 0.77825 0.94837 0.44401 0.0
C428 C 0.81675 0.85754 0.45778 0.0
C429 C 0.83932 0.86305 0.47603 0.0
C430 C 0.80339 0.82264 0.45329 0.0
C431 C 0.77909 0.81547 0.43437 0.0
C432 C 0.746 0.83359 0.43243 0.0
C433 C 0.72341 0.82686 0.41442 0.0
C434 C 0.73349 0.80185 0.39833 0.0
C435 C 0.76614 0.78343 0.40027 0.0
C436 C 0.78885 0.7901 0.41824 0.0
C437 C 0.82798 0.76087 0.54295 0.0
C438 C 0.85914 0.73951 0.54304 0.0
C439 C 0.81658 0.77733 0.52348 0.0
C440 C 0.83624 0.77274 0.50389 0.0
C441 C 0.86471 0.74803 0.50331 0.0
C442 C 0.87612 0.73139 0.52284 0.0
C443 C 0.833 0.80047 0.48659 0.0
C444 C 0.81183 0.7943 0.4678 0.0
C445 C 0.84777 0.8349 0.49036 0.0
C446 C 0.87081 0.84224 0.50983 0.0
C447 C 0.90456 0.82553 0.51187 0.0
C448 C 0.92531 0.83067 0.53088 0.0
C449 C 0.91272 0.85288 0.54784 0.0
C450 C 0.87943 0.8701 0.54575 0.0
C451 C 0.85851 0.86488 0.5268 0.0
H452 H 0.92872 0.85678 0.56259 0.0
H453 H 0.71595 0.79667 0.38439 0.0
H454 H 0.86248 0.11388 0.41751 0.0
H455 H 0.8974 0.13998 0.44772 0.0
H456 H 0.80326 0.1382 0.48953 0.0
H457 H 0.76785 0.11308 0.45906 0.0
H458 H 0.84174 0.19713 0.4972 0.0
H459 H 0.86615 0.0708 0.49154 0.0
H460 H 0.88387 0.01479 0.47264 0.0
H461 H 0.9881 0.0593 0.45875 0.0
H462 H 0.97081 0.1158 0.47727 0.0
H463 H 0.99054 0.16462 0.58765 0.0
H464 H 0.94398 0.14297 0.56218 0.0
H465 H 0.95278 0.24098 0.52442 0.0
H466 H -0.0011 0.26284 0.54979 0.0
H467 H 0.95211 0.1302 0.51844 0.0
H468 H 0.8706 0.26107 0.50234 0.0
H469 H 0.85134 0.31513 0.52278 0.0
H470 H 0.85797 0.25701 0.584 0.0
H471 H 0.87674 0.20248 0.56392 0.0
C472 C 0.8491 0.11957 0.43303 0.0
C473 C 0.81258 0.11116 0.43605 0.0
C474 C 0.86911 0.13431 0.45031 0.0
C475 C 0.85313 0.14019 0.47103 0.0
C476 C 0.81617 0.13365 0.47371 0.0
C477 C 0.79599 0.1193 0.45631 0.0
C478 C 0.87543 0.15139 0.49014 0.0
C479 C 0.86585 0.18251 0.50187 0.0
C480 C 0.90645 0.13179 0.49655 0.0
C481 C 0.91704 0.09766 0.48562 0.0
C482 C 0.89276 0.06873 0.48433 0.0
C483 C 0.90274 0.03689 0.47369 0.0
C484 C 0.93705 0.03352 0.46445 0.0
C485 C 0.96151 0.06196 0.46588 0.0
C486 C 0.95164 0.09389 0.47646 0.0
C487 C 0.98215 0.18171 0.57409 0.0
C488 C 0.99827 0.21541 0.5707 0.0
C489 C 0.95565 0.16931 0.55957 0.0
C490 C 0.94476 0.19053 0.54156 0.0
C491 C 0.96038 0.22444 0.53841 0.0
C492 C 0.98685 0.23681 0.55287 0.0
C493 C 0.91891 0.17639 0.52513 0.0
C494 C 0.92788 0.14472 0.51386 0.0
C495 C 0.88712 0.19518 0.5194 0.0
C496 C 0.87539 0.22776 0.53161 0.0
C497 C 0.86778 0.25977 0.52015 0.0
C498 C 0.85698 0.29051 0.53168 0.0
C499 C 0.85353 0.28953 0.55468 0.0
C500 C 0.86078 0.25778 0.5662 0.0
C501 C 0.87155 0.22696 0.55474 0.0
H502 H 0.84519 0.31337 0.56358 0.0
H503 H 0.94473 0.00885 0.45622 0.0
H504 H 0.83675 0.01671 0.90374 0.0
H505 H 0.85992 0.06024 0.93053 0.0
H506 H 0.75201 0.08022 0.95379 0.0
H507 H 0.72864 0.03625 0.9273 0.0
H508 H 0.80169 0.14354 0.95195 0.0
H509 H 0.79153 0.02081 0.97805 0.0
H510 H 0.80272 0.95581 0.9746 0.0
H511 H 0.91666 0.97413 0.97844 0.0
H512 H 0.90622 0.03954 0.98072 0.0
H513 H 0.84081 0.20826 0.05988 0.0
H514 H 0.81536 0.17656 0.02804 0.0
H515 H 0.91899 0.12833 0.015 0.0
H516 H 0.94385 0.15844 0.04741 0.0
H517 H 0.87041 0.08029 0.01067 0.0
H518 H 0.88357 0.20096 0.98397 0.0
H519 H 0.87551 0.26677 0.98419 0.0
H520 H 0.76084 0.25346 0.98049 0.0
H521 H 0.76819 0.18754 0.98054 0.0
C522 C 0.81787 0.0311 0.91414 0.0
C523 C 0.78099 0.02286 0.91371 0.0
C524 C 0.83113 0.05592 0.92939 0.0
C525 C 0.80762 0.07303 0.94418 0.0
C526 C 0.77046 0.06723 0.94245 0.0
C527 C 0.75723 0.04201 0.92742 0.0
C528 C 0.82212 0.09271 0.96336 0.0
C529 C 0.81648 0.12984 0.96494 0.0
C530 C 0.84186 0.07462 0.97998 0.0
C531 C 0.84809 0.03518 0.97925 0.0
C532 C 0.81899 0.01107 0.97788 0.0
C533 C 0.8252 0.97412 0.97615 0.0
C534 C 0.86038 0.96083 0.97639 0.0
C535 C 0.88943 0.98448 0.97824 0.0
C536 C 0.88338 0.02152 0.97964 0.0
C537 C 0.85805 0.1908 0.05022 0.0
C538 C 0.89435 0.1859 0.05599 0.0
C539 C 0.84359 0.17293 0.03194 0.0
C540 C 0.86542 0.15054 0.01887 0.0
C541 C 0.90162 0.1455 0.02478 0.0
C542 C 0.91586 0.16282 0.04324 0.0
C543 C 0.85053 0.13159 -0.00067 0.0
C544 C 0.85584 0.09431 -0.00228 0.0
C545 C 0.83093 0.14969 0.98257 0.0
C546 C 0.82643 0.18931 0.98248 0.0
C547 C 0.85662 0.21207 0.98337 0.0
C548 C 0.85218 0.24939 0.98342 0.0
C549 C 0.81768 0.26429 0.98242 0.0
C550 C 0.78754 0.24189 0.9813 0.0
C551 C 0.79183 0.20454 0.98127 0.0
H552 H 0.8143 0.29319 0.98246 0.0
H553 H 0.86514 0.93221 0.97521 0.0
H554 H 0.17976 0.18486 0.92765 0.0
H555 H 0.15205 0.21345 0.95972 0.0
H556 H 0.24141 0.17996 0.00039 0.0
H557 H 0.26965 0.1517 0.96817 0.0
H558 H 0.13178 0.16964 0.99271 0.0
H559 H 0.24015 0.2359 0.04804 0.0
H560 H 0.29641 0.27053 0.04407 0.0
H561 H 0.26157 0.30889 0.9806 0.0
H562 H 0.20492 0.27492 0.98432 0.0
H563 H 0.05566 0.18126 0.09655 0.0
H564 H 0.10707 0.17234 0.07189 0.0
H565 H 0.10031 0.2831 0.05117 0.0
H566 H 0.04926 0.29235 0.07598 0.0
H567 H 0.17124 0.25661 0.04998 0.0
H568 H 0.05129 0.22405 0.02465 0.0
H569 H 0.99334 0.19182 0.02617 0.0
H570 H 0.04916 0.09065 0.02579 0.0
H571 H 0.10745 0.1224 0.02451 0.0
C572 C 0.19407 0.18459 0.94326 0.0
C573 C 0.22655 0.16564 0.94553 0.0
C574 C 0.17822 0.20091 0.96156 0.0
C575 C 0.1945 0.19846 0.98245 0.0
C576 C 0.22852 0.18234 0.98439 0.0
C577 C 0.24458 0.16616 0.96598 0.0
C578 C 0.1731 0.20713 0.00239 0.0
C579 C 0.14052 0.1887 0.0052 0.0
C580 C 0.18461 0.23176 0.01874 0.0
C581 C 0.21847 0.25251 0.01637 0.0
C582 C 0.24446 0.2518 0.03326 0.0
C583 C 0.27642 0.27132 0.03105 0.0
C584 C 0.28262 0.29179 0.01206 0.0
C585 C 0.25682 0.29289 0.99526 0.0
C586 C 0.22481 0.27344 -0.00261 0.0
C587 C 0.06592 0.20402 0.08733 0.0
C588 C 0.04805 0.23729 0.08781 0.0
C589 C 0.09528 0.19889 0.07325 0.0
C590 C 0.10694 0.22689 0.05942 0.0
C591 C 0.09163 0.26114 0.06166 0.0
C592 C 0.06232 0.26631 0.07576 0.0
C593 C 0.13013 0.21906 0.04013 0.0
C594 C 0.16289 0.23742 0.03749 0.0
C595 C 0.11874 0.19459 0.02365 0.0
C596 C 0.08369 0.17557 0.02478 0.0
C597 C 0.05118 0.19495 0.02513 0.0
C598 C 0.01828 0.17676 0.0259 0.0
C599 C 0.01756 0.13919 0.02615 0.0
C600 C 0.04974 0.11974 0.02565 0.0
C601 C 0.08271 0.13781 0.0249 0.0
H602 H 0.99208 0.12512 0.02663 0.0
H603 H 0.30738 0.30688 0.01038 0.0
H604 H 0.07187 0.77184 0.02954 0.0
H605 H 0.09872 0.81132 0.0017 0.0
H606 H 0.17747 0.84682 0.04935 0.0
H607 H 0.15082 0.80744 0.07725 0.0
H608 H 0.13752 0.90213 0.03111 0.0
H609 H 0.20436 0.79911 0.00633 0.0
H610 H 0.21232 0.73688 0.99319 0.0
H611 H 0.14698 0.7597 0.93631 0.0
H612 H 0.1382 0.82197 0.94928 0.0
H613 H 0.24663 0.01388 0.96641 0.0
H614 H 0.22438 0.96474 0.98933 0.0
H615 H 0.15098 0.93346 0.9375 0.0
H616 H 0.17346 0.98269 0.91425 0.0
H617 H 0.18575 0.87524 0.95641 0.0
H618 H 0.11852 0.97737 0.98051 0.0
H619 H 0.10884 0.03952 0.99341 0.0
H620 H 0.17226 0.01818 0.05131 0.0
H621 H 0.18272 0.95602 0.03862 0.0
C622 C 0.09549 0.78735 0.0339 0.0
C623 C 0.10911 0.78682 0.05559 0.0
C624 C 0.11081 0.80984 0.01798 0.0
C625 C 0.13994 0.83205 0.02355 0.0
C626 C 0.15491 0.82991 0.0448 0.0
C627 C 0.13974 0.80733 0.06068 0.0
C628 C 0.15217 0.86036 0.00814 0.0
C629 C 0.1486 0.89624 0.0149 0.0
C630 C 0.16517 0.85257 0.98669 0.0
C631 C 0.1703 0.8151 0.97891 0.0
C632 C 0.19138 0.79077 0.99114 0.0
C633 C 0.19612 0.75551 0.98369 0.0
C634 C 0.18008 0.74431 0.96396 0.0
C635 C 0.15934 0.76839 0.95161 0.0
C636 C 0.15451 0.80368 0.95899 0.0
C637 C 0.22574 0.99658 0.95986 0.0
C638 C 0.2116 0.00219 0.9386 0.0
C639 C 0.21303 0.96857 0.97299 0.0
C640 C 0.18581 0.94576 0.96517 0.0
C641 C 0.17198 0.95087 0.94381 0.0
C642 C 0.18469 0.97903 0.93062 0.0
C643 C 0.17173 0.91693 0.9796 0.0
C644 C 0.17468 0.88106 0.97262 0.0
C645 C 0.15782 0.92466 0.00084 0.0
C646 C 0.15167 0.9621 0.0085 0.0
C647 C 0.13066 0.98601 0.9959 0.0
C648 C 0.12498 0.02123 0.00319 0.0
C649 C 0.14 0.03281 0.02313 0.0
C650 C 0.16067 0.00918 0.03585 0.0
C651 C 0.16645 0.97394 0.02863 0.0
H652 H 0.13556 0.06006 0.02877 0.0
H653 H 0.1838 0.71701 0.95822 0.0
H654 H 0.73971 0.84749 0.94742 0.0
H655 H 0.76549 0.82252 0.98148 0.0
H656 H 0.86955 0.86507 0.96337 0.0
H657 H 0.84437 0.88863 0.92923 0.0
H658 H 0.87959 0.80382 0.97998 0.0
H659 H 0.80997 0.90759 0.00281 0.0
H660 H 0.75483 0.94441 0.00608 0.0
H661 H 0.70193 0.85799 0.04017 0.0
H662 H 0.7567 0.82069 0.03686 0.0
H663 H 0.9707 0.84204 0.07672 0.0
H664 H 0.9234 0.85634 0.05013 0.0
H665 H 0.86898 0.75736 0.06601 0.0
H666 H 0.9166 0.74242 0.09255 0.0
H667 H 0.82736 0.83732 0.0527 0.0
H668 H 0.90516 0.7349 0.02929 0.0
H669 H 0.96558 0.70731 0.0281 0.0
H670 H 0.0076 0.8015 0.99617 0.0
H671 H 0.94743 0.82979 -0.00254 0.0
C672 C 0.76816 0.85106 0.95066 0.0
C673 C 0.79005 0.86995 0.93569 0.0
C674 C 0.78281 0.83706 0.97019 0.0
C675 C 0.81938 0.84242 0.97522 0.0
C676 C 0.84129 0.86049 0.95992 0.0
C677 C 0.82684 0.874 0.94037 0.0
C678 C 0.83523 0.8301 0.99647 0.0
C679 C 0.86785 0.81101 0.9958 0.0
C680 C 0.82003 0.83907 0.01729 0.0
C681 C 0.78713 0.86129 0.01928 0.0
C682 C 0.78641 0.89644 0.0108 0.0
C683 C 0.7553 0.91738 0.01271 0.0
C684 C 0.72484 0.90347 0.02323 0.0
C685 C 0.7255 0.86868 0.03196 0.0
C686 C 0.75657 0.84765 0.03008 0.0
C687 C 0.94805 0.82388 0.07518 0.0
C688 C 0.9476 0.79084 0.08642 0.0
C689 C 0.92101 0.83217 0.06003 0.0
C690 C 0.89304 0.80773 0.05611 0.0
C691 C 0.8904 0.77652 0.06897 0.0
C692 C 0.91765 0.76803 0.08404 0.0
C693 C 0.8714 0.8117 0.03586 0.0
C694 C 0.83813 0.82927 0.03677 0.0
C695 C 0.8862 0.80201 0.01521 0.0
C696 C 0.92193 0.78446 0.01356 0.0
C697 C 0.92733 0.74973 0.02208 0.0
C698 C 0.9615 0.73398 0.02139 0.0
C699 C 0.99041 0.75265 0.01207 0.0
C700 C 0.98517 0.78706 0.00336 0.0
C701 C 0.95104 0.80293 0.00403 0.0
H702 H 0.01684 0.74041 0.01156 0.0
H703 H 0.70077 0.91971 0.0247 0.0
H704 H 0.07381 0.17115 0.67271 0.0
H705 H 0.0935 0.14837 0.70872 0.0
H706 H 0.18974 0.21294 0.70446 0.0
H707 H 0.17055 0.23532 0.66835 0.0
H708 H 0.20468 0.14679 0.7196 0.0
H709 H 0.11882 0.24002 0.73558 0.0
H710 H 0.06026 0.27104 0.73322 0.0
H711 H 0.00749 0.17836 0.76042 0.0
H712 H 0.06573 0.14658 0.76265 0.0
H713 H 0.25803 0.15228 0.83167 0.0
H714 H 0.23671 0.16848 0.79475 0.0
H715 H 0.14545 0.09792 0.80268 0.0
H716 H 0.16648 0.08177 0.83977 0.0
H717 H 0.12667 0.16352 0.78544 0.0
H718 H 0.21455 0.0718 0.77132 0.0
H719 H 0.27399 0.04266 0.7744 0.0
H720 H 0.3239 0.13446 0.7442 0.0
H721 H 0.2648 0.16438 0.74123 0.0
C722 C 0.09925 0.18034 0.67943 0.0
C723 C 0.12061 0.20512 0.66782 0.0
C724 C 0.11037 0.16741 0.7 0.0
C725 C 0.14286 0.17931 0.70934 0.0
C726 C 0.16457 0.20344 0.69753 0.0
C727 C 0.15353 0.21629 0.67695 0.0
C728 C 0.15401 0.16719 0.73161 0.0
C729 C 0.18778 0.15073 0.73404 0.0
C730 C 0.1316 0.17171 0.75033 0.0
C731 C 0.09657 0.19079 0.74905 0.0
C732 C 0.09469 0.22615 0.74088 0.0
C733 C 0.06157 0.24389 0.7396 0.0
C734 C 0.03016 0.22664 0.74661 0.0
C735 C 0.03183 0.19165 0.75496 0.0
C736 C 0.06489 0.17378 0.75626 0.0
C737 C 0.23338 0.14024 0.82556 0.0
C738 C 0.21393 0.11568 0.83853 0.0
C739 C 0.22136 0.14941 0.80446 0.0
C740 C 0.18978 0.13403 0.79594 0.0
C741 C 0.16997 0.10995 0.80898 0.0
C742 C 0.18202 0.10071 0.83011 0.0
C743 C 0.1774 0.14338 0.77344 0.0
C744 C 0.14343 0.15932 0.77097 0.0
C745 C 0.19972 0.13858 0.75471 0.0
C746 C 0.23526 0.12046 0.75623 0.0
C747 C 0.23823 0.08588 0.76548 0.0
C748 C 0.27186 0.06921 0.76718 0.0
C749 C 0.30272 0.08673 0.75955 0.0
C750 C 0.29998 0.12093 0.75013 0.0
C751 C 0.26642 0.13774 0.7484 0.0
H752 H 0.32874 0.07379 0.76091 0.0
H753 H 0.00454 0.24042 0.7456 0.0
H754 H 0.12812 0.74502 0.16906 0.0
H755 H 0.15581 0.77019 0.20236 0.0
H756 H 0.08099 0.85888 0.20061 0.0
H757 H 0.05309 0.83385 0.16732 0.0
H758 H 0.15234 0.88012 0.20724 0.0
H759 H 0.06779 0.79431 0.2367 0.0
H760 H 0.03977 0.73454 0.24044 0.0
H761 H 0.14086 0.69005 0.26142 0.0
H762 H 0.16962 0.7495 0.25749 0.0
H763 H 0.17329 0.94949 0.31583 0.0
H764 H 0.15111 0.92467 0.28095 0.0
H765 H 0.2227 0.83399 0.28804 0.0
H766 H 0.24475 0.85848 0.32303 0.0
H767 H 0.15545 0.81284 0.27808 0.0
H768 H 0.24016 0.89754 0.25008 0.0
H769 H 0.2697 0.9565 0.24601 0.0
H770 H 0.17104 0.00214 0.22186 0.0
H771 H 0.14072 0.94354 0.22609 0.0
C772 C 0.11749 0.76981 0.17583 0.0
C773 C 0.0884 0.78745 0.16568 0.0
C774 C 0.13329 0.7841 0.19483 0.0
C775 C 0.12029 0.81627 0.20393 0.0
C776 C 0.09137 0.83403 0.19377 0.0
C777 C 0.07538 0.81962 0.17486 0.0
C778 C 0.13691 0.83147 0.22405 0.0
C779 C 0.15268 0.86566 0.22282 0.0
C780 C 0.13822 0.812 0.24412 0.0
C781 C 0.12094 0.77627 0.24657 0.0
C782 C 0.08412 0.77172 0.24192 0.0
C783 C 0.06809 0.73791 0.24411 0.0
C784 C 0.08854 0.70849 0.2511 0.0
C785 C 0.12506 0.71285 0.25598 0.0
C786 C 0.14123 0.7466 0.25379 0.0
C787 C 0.18453 0.92444 0.30984 0.0
C788 C 0.2107 0.90588 0.32212 0.0
C789 C 0.17194 0.91036 0.28989 0.0
C790 C 0.18544 0.8776 0.28187 0.0
C791 C 0.21194 0.8593 0.29397 0.0
C792 C 0.22457 0.87338 0.3139 0.0
C793 C 0.17072 0.86169 0.26137 0.0
C794 C 0.15529 0.82731 0.2625 0.0
C795 C 0.16997 0.88089 0.24118 0.0
C796 C 0.18807 0.91621 0.23861 0.0
C797 C 0.22466 0.92022 0.24408 0.0
C798 C 0.24157 0.95356 0.24172 0.0
C799 C 0.22224 0.98307 0.23374 0.0
C800 C 0.18597 0.97926 0.22806 0.0
C801 C 0.16892 0.94598 0.23042 0.0
H802 H 0.23538 0.00886 0.23191 0.0
H803 H 0.07608 0.68234 0.25279 0.0
H804 H 0.84042 0.73763 0.66319 0.0
H805 H 0.81838 0.76381 0.69763 0.0
H806 H 0.88655 0.85635 0.6876 0.0
H807 H 0.90956 0.82968 0.65341 0.0
H808 H 0.89256 0.83336 0.7283 0.0
H809 H 0.79353 0.86009 0.68044 0.0
H810 H 0.74575 0.84734 0.65325 0.0
H811 H 0.6959 0.77406 0.69876 0.0
H812 H 0.74366 0.786 0.72613 0.0
H813 H 0.81274 0.93858 0.81342 0.0
H814 H 0.83189 0.91653 0.77717 0.0
H815 H 0.77588 0.81674 0.78882 0.0
H816 H 0.75661 0.8386 0.82513 0.0
H817 H 0.76305 0.84564 0.74696 0.0
H818 H 0.86381 0.81805 0.79413 0.0
H819 H 0.91138 0.83184 0.82127 0.0
H820 H 0.95757 0.90861 0.77648 0.0
H821 H 0.90994 0.89563 0.74917 0.0
C822 C 0.85049 0.76369 0.66824 0.0
C823 C 0.87669 0.78166 0.65567 0.0
C824 C 0.83773 0.77872 0.68786 0.0
C825 C 0.85048 0.81225 0.69505 0.0
C826 C 0.87633 0.83045 0.68234 0.0
C827 C 0.88938 0.81525 0.66281 0.0
C828 C 0.83817 0.82745 0.71638 0.0
C829 C 0.86424 0.83664 0.73221 0.0
C830 C 0.80119 0.83091 0.72168 0.0
C831 C 0.77238 0.82371 0.70526 0.0
C832 C 0.77254 0.84105 0.68459 0.0
C833 C 0.74543 0.83401 0.66915 0.0
C834 C 0.71785 0.80985 0.67425 0.0
C835 C 0.71729 0.79274 0.69482 0.0
C836 C 0.74436 0.79967 0.71031 0.0
C837 C 0.80456 0.91192 0.80827 0.0
C838 C 0.78332 0.89022 0.82209 0.0
C839 C 0.81555 0.89937 0.7876 0.0
C840 C 0.80543 0.86497 0.78045 0.0
C841 C 0.78391 0.84338 0.79411 0.0
C842 C 0.77309 0.85583 0.81484 0.0
C843 C 0.81745 0.85143 0.75871 0.0
C844 C 0.79134 0.84253 0.7429 0.0
C845 C 0.85436 0.84841 0.75335 0.0
C846 C 0.8831 0.85614 0.76971 0.0
C847 C 0.88393 0.83809 0.79014 0.0
C848 C 0.91094 0.84572 0.80554 0.0
C849 C 0.93743 0.87116 0.80062 0.0
C850 C 0.93701 0.88895 0.78027 0.0
C851 C 0.91003 0.88145 0.76482 0.0
H852 H 0.95832 0.87702 0.81257 0.0
H853 H 0.69689 0.80443 0.66228 0.0
H854 H 0.81428 0.03627 0.31719 0.0
H855 H 0.83823 0.06126 0.28279 0.0
H856 H 0.80313 0.16712 0.30258 0.0
H857 H 0.77809 0.14208 0.33661 0.0
H858 H 0.78935 0.15834 0.26111 0.0
H859 H 0.89232 0.14071 0.30679 0.0
H860 H 0.93404 0.10743 0.33104 0.0
H861 H 0.95742 0.03381 0.27828 0.0
H862 H 0.91543 0.06638 0.25379 0.0
H863 H 0.9509 0.21924 0.18718 0.0
H864 H 0.92771 0.1972 0.22256 0.0
H865 H 0.83722 0.14922 0.18889 0.0
H866 H 0.85966 0.17212 0.15364 0.0
H867 H 0.91557 0.13362 0.2389 0.0
H868 H 0.76299 0.15318 0.22053 0.0
H869 H 0.7238 0.19357 0.19888 0.0
H870 H 0.80428 0.27628 0.20161 0.0
H871 H 0.84372 0.23659 0.22353 0.0
C872 C 0.81156 0.06484 0.31413 0.0
C873 C 0.79446 0.08728 0.32956 0.0
C874 C 0.82542 0.07912 0.29455 0.0
C875 C 0.82298 0.11616 0.29028 0.0
C876 C 0.80534 0.13848 0.30554 0.0
C877 C 0.79111 0.12415 0.32498 0.0
C878 C 0.83883 0.13169 0.26993 0.0
C879 C 0.81694 0.15293 0.25625 0.0
C880 C 0.87512 0.12542 0.26389 0.0
C881 C 0.90048 0.1058 0.27853 0.0
C882 C 0.90616 0.11727 0.30041 0.0
C883 C 0.92988 0.09856 0.31419 0.0
C884 C 0.9483 0.06848 0.30622 0.0
C885 C 0.9431 0.0571 0.28443 0.0
C886 C 0.91936 0.07569 0.27059 0.0
C887 C 0.9261 0.20393 0.18736 0.0
C888 C 0.90692 0.19757 0.16774 0.0
C889 C 0.91292 0.19132 0.20755 0.0
C890 C 0.88046 0.17204 0.2084 0.0
C891 C 0.8619 0.16472 0.18869 0.0
C892 C 0.87484 0.17765 0.16856 0.0
C893 C 0.86587 0.15969 0.22989 0.0
C894 C 0.88798 0.13903 0.24377 0.0
C895 C 0.83015 0.16753 0.23649 0.0
C896 C 0.80644 0.19174 0.22349 0.0
C897 C 0.77226 0.18003 0.21658 0.0
C898 C 0.75001 0.2028 0.20425 0.0
C899 C 0.76159 0.23743 0.19881 0.0
C900 C 0.79539 0.24941 0.20576 0.0
C901 C 0.81772 0.22677 0.21812 0.0
H902 H 0.74434 0.255 0.18925 0.0
H903 H 0.96666 0.05403 0.31691 0.0
loop_
_geom_bond_atom_site_label_1
_geom_bond_atom_site_label_2
_geom_bond_distance
_geom_bond_site_symmetry_2
_ccdc_geom_bond_type
In0 O1 2.294 . S
In0 O2 2.326 . S
In0 O6 2.266 . S
In0 O7 2.326 . S
In0 O8 2.266 . S
In0 O9 2.326 . S
In0 O11 2.294 . S
In0 O12 2.326 . S
O1 In0 2.294 . S
O1 C10 1.240 . S
O2 In0 2.326 . S
O2 C10 1.252 . S
C3 O6 1.252 . S
C3 O7 1.260 . S
C4 O11 1.240 . S
C4 O12 1.252 . S
C5 O8 1.252 . S
C5 O9 1.260 . S
O6 In0 2.266 . S
O6 C3 1.252 . S
O7 In0 2.326 . S
O7 C3 1.260 . S
O8 In0 2.266 . S
O8 C5 1.252 . S
O9 In0 2.326 . S
O9 C5 1.260 . S
C10 O1 1.240 . S
C10 O2 1.252 . S
O11 In0 2.294 . S
O11 C4 1.240 . S
O12 In0 2.326 . S
O12 C4 1.252 . S
In13 O14 2.294 . S
In13 O15 2.326 . S
In13 O19 2.266 . S
In13 O20 2.326 . S
In13 O21 2.266 . S
In13 O22 2.326 . S
In13 O24 2.294 . S
In13 O25 2.326 . S
O14 In13 2.294 . S
O14 C23 1.240 . S
O15 In13 2.326 . S
O15 C23 1.252 . S
C16 O19 1.252 . S
C16 O20 1.260 . S
C17 O24 1.240 . S
C17 O25 1.252 . S
C18 O21 1.252 . S
C18 O22 1.260 . S
O19 In13 2.266 . S
O19 C16 1.252 . S
O20 In13 2.326 . S
O20 C16 1.260 . S
O21 In13 2.266 . S
O21 C18 1.252 . S
O22 In13 2.326 . S
O22 C18 1.260 . S
C23 O14 1.240 . S
C23 O15 1.252 . S
O24 In13 2.294 . S
O24 C17 1.240 . S
O25 In13 2.326 . S
O25 C17 1.252 . S
In26 O27 2.294 . S
In26 O28 2.326 . S
In26 O32 2.266 . S
In26 O33 2.326 . S
In26 O34 2.266 . S
In26 O35 2.326 . S
In26 O37 2.294 . S
In26 O38 2.326 . S
O27 In26 2.294 . S
O27 C36 1.240 . S
O28 In26 2.326 . S
O28 C36 1.252 . S
C29 O32 1.252 . S
C29 O33 1.260 . S
C30 O37 1.240 . S
C30 O38 1.252 . S
C31 O34 1.252 . S
C31 O35 1.260 . S
O32 In26 2.266 . S
O32 C29 1.252 . S
O33 In26 2.326 . S
O33 C29 1.260 . S
O34 In26 2.266 . S
O34 C31 1.252 . S
O35 In26 2.326 . S
O35 C31 1.260 . S
C36 O27 1.240 . S
C36 O28 1.252 . S
O37 In26 2.294 . S
O37 C30 1.240 . S
O38 In26 2.326 . S
O38 C30 1.252 . S
In39 O40 2.294 . S
In39 O41 2.326 . S
In39 O45 2.266 . S
In39 O46 2.326 . S
In39 O47 2.266 . S
In39 O48 2.326 . S
In39 O50 2.294 . S
In39 O51 2.326 . S
O40 In39 2.294 . S
O40 C49 1.240 . S
O41 In39 2.326 . S
O41 C49 1.252 . S
C42 O45 1.252 . S
C42 O46 1.260 . S
C43 O50 1.240 . S
C43 O51 1.252 . S
C44 O47 1.252 . S
C44 O48 1.260 . S
O45 In39 2.266 . S
O45 C42 1.252 . S
O46 In39 2.326 . S
O46 C42 1.260 . S
O47 In39 2.266 . S
O47 C44 1.252 . S
O48 In39 2.326 . S
O48 C44 1.260 . S
C49 O40 1.240 . S
C49 O41 1.252 . S
O50 In39 2.294 . S
O50 C43 1.240 . S
O51 In39 2.326 . S
O51 C43 1.252 . S
In52 O53 2.294 . S
In52 O54 2.326 . S
In52 O58 2.266 . S
In52 O59 2.326 . S
In52 O60 2.266 . S
In52 O61 2.326 . S
In52 O63 2.294 . S
In52 O64 2.326 . S
O53 In52 2.294 . S
O53 C62 1.240 . S
O54 In52 2.326 . S
O54 C62 1.252 . S
C55 O58 1.252 . S
C55 O59 1.260 . S
C56 O63 1.240 . S
C56 O64 1.252 . S
C57 O60 1.252 . S
C57 O61 1.260 . S
O58 In52 2.266 . S
O58 C55 1.252 . S
O59 In52 2.326 . S
O59 C55 1.260 . S
O60 In52 2.266 . S
O60 C57 1.252 . S
O61 In52 2.326 . S
O61 C57 1.260 . S
C62 O53 1.240 . S
C62 O54 1.252 . S
O63 In52 2.294 . S
O63 C56 1.240 . S
O64 In52 2.326 . S
O64 C56 1.252 . S
In65 O66 2.294 . S
In65 O67 2.326 . S
In65 O71 2.266 . S
In65 O72 2.326 . S
In65 O73 2.266 . S
In65 O74 2.326 . S
In65 O76 2.294 . S
In65 O77 2.326 . S
O66 In65 2.294 . S
O66 C75 1.240 . S
O67 In65 2.326 . S
O67 C75 1.252 . S
C68 O71 1.252 . S
C68 O72 1.260 . S
C69 O76 1.240 . S
C69 O77 1.252 . S
C70 O73 1.252 . S
C70 O74 1.260 . S
O71 In65 2.266 . S
O71 C68 1.252 . S
O72 In65 2.326 . S
O72 C68 1.260 . S
O73 In65 2.266 . S
O73 C70 1.252 . S
O74 In65 2.326 . S
O74 C70 1.260 . S
C75 O66 1.240 . S
C75 O67 1.252 . S
O76 In65 2.294 . S
O76 C69 1.240 . S
O77 In65 2.326 . S
O77 C69 1.252 . S
In78 O79 2.294 . S
In78 O80 2.326 . S
In78 O84 2.266 . S
In78 O85 2.326 . S
In78 O86 2.266 . S
In78 O87 2.326 . S
In78 O89 2.294 . S
In78 O90 2.326 . S
O79 In78 2.294 . S
O79 C88 1.240 . S
O80 In78 2.326 . S
O80 C88 1.252 . S
C81 O84 1.252 . S
C81 O85 1.260 . S
C82 O89 1.240 . S
C82 O90 1.252 . S
C83 O86 1.252 . S
C83 O87 1.260 . S
O84 In78 2.266 . S
O84 C81 1.252 . S
O85 In78 2.326 . S
O85 C81 1.260 . S
O86 In78 2.266 . S
O86 C83 1.252 . S
O87 In78 2.326 . S
O87 C83 1.260 . S
C88 O79 1.240 . S
C88 O80 1.252 . S
O89 In78 2.294 . S
O89 C82 1.240 . S
O90 In78 2.326 . S
O90 C82 1.252 . S
In91 O92 2.294 . S
In91 O93 2.326 . S
In91 O97 2.266 . S
In91 O98 2.326 . S
In91 O99 2.266 . S
In91 O100 2.326 . S
In91 O102 2.294 . S
In91 O103 2.326 . S
O92 In91 2.294 . S
O92 C101 1.240 . S
O93 In91 2.326 . S
O93 C101 1.252 . S
C94 O97 1.252 . S
C94 O98 1.260 . S
C95 O102 1.240 . S
C95 O103 1.252 . S
C96 O99 1.252 . S
C96 O100 1.260 . S
O97 In91 2.266 . S
O97 C94 1.252 . S
O98 In91 2.326 . S
O98 C94 1.260 . S
O99 In91 2.266 . S
O99 C96 1.252 . S
O100 In91 2.326 . S
O100 C96 1.260 . S
C101 O92 1.240 . S
C101 O93 1.252 . S
O102 In91 2.294 . S
O102 C95 1.240 . S
O103 In91 2.326 . S
O103 C95 1.252 . S
H104 C122 0.951 . S
H105 C124 0.951 . S
H106 C126 0.950 1_455 S
H107 C127 0.950 . S
H108 C129 0.950 . S
H109 C132 0.950 . S
H110 C133 0.950 . S
H111 C135 0.950 . S
H112 C136 0.950 . S
H113 C137 0.951 . S
H114 C139 0.951 . S
H115 C141 0.950 1_655 S
H116 C142 0.950 . S
H117 C144 0.950 . S
H118 C147 0.950 . S
H119 C148 0.950 . S
H120 C150 0.950 . S
H121 C151 0.950 . S
C122 H104 0.951 . S
C122 C123 1.366 . S
C122 C124 1.388 . S
C123 C122 1.366 . S
C123 C127 1.385 . S
C124 H105 0.951 . S
C124 C122 1.388 . S
C124 C125 1.366 . S
C125 C124 1.366 . S
C125 C126 1.414 . S
C125 C128 1.499 . S
C126 H106 0.950 1_655 S
C126 C125 1.414 . S
C126 C127 1.374 . S
C127 H107 0.950 . S
C127 C123 1.385 . S
C127 C126 1.374 . S
C128 C125 1.499 . S
C128 C129 1.373 1_655 S
C128 C130 1.389 . S
C129 H108 0.950 . S
C129 C128 1.373 1_455 S
C129 C145 1.377 . S
C130 C128 1.389 . S
C130 C131 1.524 . S
C130 C144 1.377 . S
C131 C130 1.524 . S
C131 C132 1.397 . S
C131 C136 1.363 . S
C132 H109 0.950 . S
C132 C131 1.397 . S
C132 C133 1.334 . S
C133 H110 0.950 . S
C133 C132 1.334 . S
C133 C134 1.287 . S
C134 C133 1.287 . S
C134 C135 1.524 . S
C134 H153 0.913 . S
C135 H111 0.950 . S
C135 C134 1.524 . S
C135 C136 1.415 . S
C136 H112 0.950 . S
C136 C131 1.363 . S
C136 C135 1.415 . S
C137 H113 0.951 . S
C137 C138 1.366 . S
C137 C139 1.388 . S
C138 C137 1.366 . S
C138 C142 1.385 . S
C139 H114 0.951 . S
C139 C137 1.388 . S
C139 C140 1.366 . S
C140 C139 1.366 . S
C140 C141 1.414 . S
C140 C143 1.499 . S
C141 H115 0.950 1_455 S
C141 C140 1.414 . S
C141 C142 1.374 . S
C142 H116 0.950 . S
C142 C138 1.385 . S
C142 C141 1.374 . S
C143 C140 1.499 . S
C143 C144 1.373 1_455 S
C143 C145 1.389 . S
C144 H117 0.950 . S
C144 C130 1.377 . S
C144 C143 1.373 1_655 S
C145 C129 1.377 . S
C145 C143 1.389 . S
C145 C146 1.524 . S
C146 C145 1.524 . S
C146 C147 1.397 . S
C146 C151 1.363 . S
C147 H118 0.950 . S
C147 C146 1.397 . S
C147 C148 1.334 . S
C148 H119 0.950 . S
C148 C147 1.334 . S
C148 C149 1.287 . S
C149 C148 1.287 . S
C149 C150 1.524 . S
C149 H152 0.999 . S
C150 H120 0.950 . S
C150 C149 1.524 . S
C150 C151 1.415 . S
C151 H121 0.950 . S
C151 C146 1.363 . S
C151 C150 1.415 . S
H152 C149 0.999 . S
H153 C134 0.913 . S
H154 C172 0.951 . S
H155 C174 0.951 . S
H156 C176 0.950 1_565 S
H157 C177 0.950 . S
H158 C179 0.950 . S
H159 C182 0.936 1_565 S
H160 C183 0.950 . S
H161 C185 0.950 . S
H162 C186 0.950 . S
H163 C187 0.951 . S
H164 C189 0.951 . S
H165 C191 0.950 1_545 S
H166 C192 0.950 . S
H167 C194 0.950 . S
H168 C197 0.936 1_545 S
H169 C198 0.950 . S
H170 C200 0.950 . S
H171 C201 0.950 . S
C172 H154 0.951 . S
C172 C173 1.366 . S
C172 C174 1.388 . S
C173 C172 1.366 . S
C173 C177 1.385 . S
C174 H155 0.951 . S
C174 C172 1.388 . S
C174 C175 1.366 . S
C175 C174 1.366 . S
C175 C176 1.414 . S
C175 C178 1.499 . S
C176 H156 0.950 1_545 S
C176 C175 1.414 . S
C176 C177 1.374 . S
C177 H157 0.950 . S
C177 C173 1.385 . S
C177 C176 1.374 . S
C178 C175 1.499 . S
C178 C179 1.373 1_545 S
C178 C180 1.389 . S
C179 H158 0.950 . S
C179 C178 1.373 1_565 S
C179 C195 1.377 . S
C180 C178 1.389 . S
C180 C181 1.524 . S
C180 C194 1.377 . S
C181 C180 1.524 . S
C181 C182 1.397 . S
C181 C186 1.363 . S
C182 H159 0.936 1_545 S
C182 C181 1.397 . S
C182 C183 1.334 . S
C183 H160 0.950 . S
C183 C182 1.334 . S
C183 C184 1.287 . S
C184 C183 1.287 . S
C184 C185 1.524 . S
C184 H203 0.913 . S
C185 H161 0.950 . S
C185 C184 1.524 . S
C185 C186 1.415 . S
C186 H162 0.950 . S
C186 C181 1.363 . S
C186 C185 1.415 . S
C187 H163 0.951 . S
C187 C188 1.366 . S
C187 C189 1.388 . S
C188 C187 1.366 . S
C188 C192 1.385 . S
C189 H164 0.951 . S
C189 C187 1.388 . S
C189 C190 1.366 . S
C190 C189 1.366 . S
C190 C191 1.414 . S
C190 C193 1.499 . S
C191 H165 0.950 1_565 S
C191 C190 1.414 . S
C191 C192 1.374 . S
C192 H166 0.950 . S
C192 C188 1.385 . S
C192 C191 1.374 . S
C193 C190 1.499 . S
C193 C194 1.373 1_565 S
C193 C195 1.389 . S
C194 H167 0.950 . S
C194 C180 1.377 . S
C194 C193 1.373 1_545 S
C195 C179 1.377 . S
C195 C193 1.389 . S
C195 C196 1.524 . S
C196 C195 1.524 . S
C196 C197 1.397 . S
C196 C201 1.363 . S
C197 H168 0.936 1_565 S
C197 C196 1.397 . S
C197 C198 1.334 . S
C198 H169 0.950 . S
C198 C197 1.334 . S
C198 C199 1.287 . S
C199 C198 1.287 . S
C199 C200 1.524 . S
C199 H202 0.999 . S
C200 H170 0.950 . S
C200 C199 1.524 . S
C200 C201 1.415 . S
C201 H171 0.950 . S
C201 C196 1.363 . S
C201 C200 1.415 . S
H202 C199 0.999 . S
H203 C184 0.913 . S
H204 C222 0.951 . S
H205 C224 0.951 . S
H206 C226 0.950 . S
H207 C227 0.950 . S
H208 C229 0.950 . S
H209 C232 0.950 . S
H210 C233 0.950 . S
H211 C235 0.950 . S
H212 C236 0.950 . S
H213 C237 0.951 . S
H214 C239 0.951 . S
H215 C241 0.950 . S
H216 C242 0.950 . S
H217 C244 0.950 . S
H218 C247 0.950 . S
H219 C248 0.950 . S
H220 C250 0.950 . S
H221 C251 0.950 . S
C222 H204 0.951 . S
C222 C223 1.366 . S
C222 C224 1.388 . S
C223 C222 1.366 . S
C223 C227 1.385 . S
C224 H205 0.951 . S
C224 C222 1.388 . S
C224 C225 1.366 . S
C225 C224 1.366 . S
C225 C226 1.414 . S
C225 C228 1.499 . S
C226 H206 0.950 . S
C226 C225 1.414 . S
C226 C227 1.374 . S
C227 H207 0.950 . S
C227 C223 1.385 . S
C227 C226 1.374 . S
C228 C225 1.499 . S
C228 C229 1.373 . S
C228 C230 1.389 1_655 S
C229 H208 0.950 . S
C229 C228 1.373 . S
C229 C245 1.377 . S
C230 C228 1.389 1_455 S
C230 C231 1.524 . S
C230 C244 1.377 . S
C231 C230 1.524 . S
C231 C232 1.397 . S
C231 C236 1.363 . S
C232 H209 0.950 . S
C232 C231 1.397 . S
C232 C233 1.334 . S
C233 H210 0.950 . S
C233 C232 1.334 . S
C233 C234 1.287 . S
C234 C233 1.287 . S
C234 C235 1.524 . S
C234 H253 0.913 . S
C235 H211 0.950 . S
C235 C234 1.524 . S
C235 C236 1.415 . S
C236 H212 0.950 . S
C236 C231 1.363 . S
C236 C235 1.415 . S
C237 H213 0.951 . S
C237 C238 1.366 . S
C237 C239 1.388 . S
C238 C237 1.366 . S
C238 C242 1.385 . S
C239 H214 0.951 . S
C239 C237 1.388 . S
C239 C240 1.366 . S
C240 C239 1.366 . S
C240 C241 1.414 . S
C240 C243 1.499 . S
C241 H215 0.950 . S
C241 C240 1.414 . S
C241 C242 1.374 . S
C242 H216 0.950 . S
C242 C238 1.385 . S
C242 C241 1.374 . S
C243 C240 1.499 . S
C243 C244 1.373 . S
C243 C245 1.389 1_455 S
C244 H217 0.950 . S
C244 C230 1.377 . S
C244 C243 1.373 . S
C245 C229 1.377 . S
C245 C243 1.389 1_655 S
C245 C246 1.524 . S
C246 C245 1.524 . S
C246 C247 1.397 . S
C246 C251 1.363 . S
C247 H218 0.950 . S
C247 C246 1.397 . S
C247 C248 1.334 . S
C248 H219 0.950 . S
C248 C247 1.334 . S
C248 C249 1.287 . S
C249 C248 1.287 . S
C249 C250 1.524 . S
C249 H252 0.999 . S
C250 H220 0.950 . S
C250 C249 1.524 . S
C250 C251 1.415 . S
C251 H221 0.950 . S
C251 C246 1.363 . S
C251 C250 1.415 . S
H252 C249 0.999 . S
H253 C234 0.913 . S
H254 C272 0.951 . S
H255 C274 0.951 . S
H256 C276 0.950 1_565 S
H257 C277 0.950 . S
H258 C279 0.950 . S
H259 C282 0.950 . S
H260 C283 0.950 . S
H261 C285 0.950 . S
H262 C286 0.950 . S
H263 C287 0.951 . S
H264 C289 0.951 . S
H265 C291 0.950 1_545 S
H266 C292 0.950 . S
H267 C294 0.950 . S
H268 C297 0.950 . S
H269 C298 0.950 . S
H270 C300 0.950 . S
H271 C301 0.950 . S
C272 H254 0.951 . S
C272 C273 1.366 . S
C272 C274 1.388 . S
C273 C272 1.366 . S
C273 C277 1.385 . S
C274 H255 0.951 . S
C274 C272 1.388 . S
C274 C275 1.366 . S
C275 C274 1.366 . S
C275 C276 1.414 . S
C275 C278 1.499 . S
C276 H256 0.950 1_545 S
C276 C275 1.414 . S
C276 C277 1.374 . S
C277 H257 0.950 . S
C277 C273 1.385 . S
C277 C276 1.374 . S
C278 C275 1.499 . S
C278 C279 1.373 1_545 S
C278 C280 1.389 . S
C279 H258 0.950 . S
C279 C278 1.373 1_565 S
C279 C295 1.377 . S
C280 C278 1.389 . S
C280 C281 1.524 . S
C280 C294 1.377 . S
C281 C280 1.524 . S
C281 C282 1.397 . S
C281 C286 1.363 . S
C282 H259 0.950 . S
C282 C281 1.397 . S
C282 C283 1.334 . S
C283 H260 0.950 . S
C283 C282 1.334 . S
C283 C284 1.287 . S
C284 C283 1.287 . S
C284 C285 1.524 . S
C284 H303 0.913 . S
C285 H261 0.950 . S
C285 C284 1.524 . S
C285 C286 1.415 . S
C286 H262 0.950 . S
C286 C281 1.363 . S
C286 C285 1.415 . S
C287 H263 0.951 . S
C287 C288 1.366 . S
C287 C289 1.388 . S
C288 C287 1.366 . S
C288 C292 1.385 . S
C289 H264 0.951 . S
C289 C287 1.388 . S
C289 C290 1.366 . S
C290 C289 1.366 . S
C290 C291 1.414 . S
C290 C293 1.499 . S
C291 H265 0.950 1_565 S
C291 C290 1.414 . S
C291 C292 1.374 . S
C292 H266 0.950 . S
C292 C288 1.385 . S
C292 C291 1.374 . S
C293 C290 1.499 . S
C293 C294 1.373 1_565 S
C293 C295 1.389 . S
C294 H267 0.950 . S
C294 C280 1.377 . S
C294 C293 1.373 1_545 S
C295 C279 1.377 . S
C295 C293 1.389 . S
C295 C296 1.524 . S
C296 C295 1.524 . S
C296 C297 1.397 . S
C296 C301 1.363 . S
C297 H268 0.950 . S
C297 C296 1.397 . S
C297 C298 1.334 . S
C298 H269 0.950 . S
C298 C297 1.334 . S
C298 C299 1.287 . S
C299 C298 1.287 . S
C299 C300 1.524 . S
C299 H302 0.999 . S
C300 H270 0.950 . S
C300 C299 1.524 . S
C300 C301 1.415 . S
C301 H271 0.950 . S
C301 C296 1.363 . S
C301 C300 1.415 . S
H302 C299 0.999 . S
H303 C284 0.913 . S
H304 C322 0.951 . S
H305 C324 0.951 . S
H306 C326 0.950 1_565 S
H307 C327 0.950 . S
H308 C329 0.950 . S
H309 C332 0.950 . S
H310 C333 0.950 . S
H311 C335 0.950 . S
H312 C336 0.950 . S
H313 C337 0.951 . S
H314 C339 0.951 . S
H315 C341 0.950 . S
H316 C342 0.950 . S
H317 C344 0.950 . S
H318 C347 0.950 . S
H319 C348 0.950 . S
H320 C350 0.950 . S
H321 C351 0.950 . S
C322 H304 0.951 . S
C322 C323 1.366 1_545 S
C322 C324 1.388 . S
C323 C322 1.366 1_565 S
C323 C327 1.385 . S
C324 H305 0.951 . S
C324 C322 1.388 . S
C324 C325 1.366 . S
C325 C324 1.366 . S
C325 C326 1.414 . S
C325 C328 1.499 . S
C326 H306 0.950 1_545 S
C326 C325 1.414 . S
C326 C327 1.374 1_545 S
C327 H307 0.950 . S
C327 C323 1.385 . S
C327 C326 1.374 1_565 S
C328 C325 1.499 . S
C328 C329 1.373 . S
C328 C330 1.389 . S
C329 H308 0.950 . S
C329 C328 1.373 . S
C329 C345 1.377 . S
C330 C328 1.389 . S
C330 C331 1.524 . S
C330 C344 1.377 . S
C331 C330 1.524 . S
C331 C332 1.397 . S
C331 C336 1.363 . S
C332 H309 0.950 . S
C332 C331 1.397 . S
C332 C333 1.334 . S
C333 H310 0.950 . S
C333 C332 1.334 . S
C333 C334 1.287 . S
C334 C333 1.287 . S
C334 C335 1.524 . S
C334 H353 0.913 . S
C335 H311 0.950 . S
C335 C334 1.524 . S
C335 C336 1.415 . S
C336 H312 0.950 . S
C336 C331 1.363 . S
C336 C335 1.415 . S
C337 H313 0.951 . S
C337 C338 1.366 . S
C337 C339 1.388 . S
C338 C337 1.366 . S
C338 C342 1.385 . S
C339 H314 0.951 . S
C339 C337 1.388 . S
C339 C340 1.366 . S
C340 C339 1.366 . S
C340 C341 1.414 . S
C340 C343 1.499 . S
C341 H315 0.950 . S
C341 C340 1.414 . S
C341 C342 1.374 . S
C342 H316 0.950 . S
C342 C338 1.385 . S
C342 C341 1.374 . S
C343 C340 1.499 . S
C343 C344 1.373 . S
C343 C345 1.389 . S
C344 H317 0.950 . S
C344 C330 1.377 . S
C344 C343 1.373 . S
C345 C329 1.377 . S
C345 C343 1.389 . S
C345 C346 1.524 . S
C346 C345 1.524 . S
C346 C347 1.397 . S
C346 C351 1.363 . S
C347 H318 0.950 . S
C347 C346 1.397 . S
C347 C348 1.334 . S
C348 H319 0.950 . S
C348 C347 1.334 . S
C348 C349 1.287 . S
C349 C348 1.287 . S
C349 C350 1.524 . S
C349 H352 0.999 . S
C350 H320 0.950 . S
C350 C349 1.524 . S
C350 C351 1.415 . S
C351 H321 0.950 . S
C351 C346 1.363 . S
C351 C350 1.415 . S
H352 C349 0.999 . S
H353 C334 0.913 . S
H354 C372 0.951 . S
H355 C374 0.951 . S
H356 C376 0.950 . S
H357 C377 0.950 . S
H358 C379 0.950 . S
H359 C382 0.950 . S
H360 C383 0.950 . S
H361 C385 0.950 . S
H362 C386 0.950 . S
H363 C387 0.948 1_655 S
H364 C389 0.951 . S
H365 C391 0.950 . S
H366 C392 0.945 1_655 S
H367 C394 0.950 . S
H368 C397 0.950 . S
H369 C398 0.950 . S
H370 C400 0.950 . S
H371 C401 0.950 . S
C372 H354 0.951 . S
C372 C373 1.366 . S
C372 C374 1.388 . S
C373 C372 1.366 . S
C373 C377 1.385 . S
C374 H355 0.951 . S
C374 C372 1.388 . S
C374 C375 1.366 . S
C375 C374 1.366 . S
C375 C376 1.414 . S
C375 C378 1.499 . S
C376 H356 0.950 . S
C376 C375 1.414 . S
C376 C377 1.374 . S
C377 H357 0.950 . S
C377 C373 1.385 . S
C377 C376 1.374 . S
C378 C375 1.499 . S
C378 C379 1.373 . S
C378 C380 1.389 . S
C379 H358 0.950 . S
C379 C378 1.373 . S
C379 C395 1.377 . S
C380 C378 1.389 . S
C380 C381 1.524 . S
C380 C394 1.377 . S
C381 C380 1.524 . S
C381 C382 1.397 . S
C381 C386 1.363 . S
C382 H359 0.950 . S
C382 C381 1.397 . S
C382 C383 1.334 . S
C383 H360 0.950 . S
C383 C382 1.334 . S
C383 C384 1.287 . S
C384 C383 1.287 . S
C384 C385 1.524 . S
C384 H403 0.913 . S
C385 H361 0.950 . S
C385 C384 1.524 . S
C385 C386 1.415 . S
C386 H362 0.950 . S
C386 C381 1.363 . S
C386 C385 1.415 . S
C387 H363 0.948 1_455 S
C387 C388 1.363 1_455 S
C387 C389 1.394 . S
C388 C387 1.363 1_655 S
C388 C392 1.379 1_655 S
C389 H364 0.951 . S
C389 C387 1.394 . S
C389 C390 1.366 . S
C390 C389 1.366 . S
C390 C391 1.414 . S
C390 C393 1.499 . S
C391 H365 0.950 . S
C391 C390 1.414 . S
C391 C392 1.384 . S
C392 H366 0.945 1_455 S
C392 C388 1.379 1_455 S
C392 C391 1.384 . S
C393 C390 1.499 . S
C393 C394 1.373 . S
C393 C395 1.389 . S
C394 H367 0.950 . S
C394 C380 1.377 . S
C394 C393 1.373 . S
C395 C379 1.377 . S
C395 C393 1.389 . S
C395 C396 1.524 . S
C396 C395 1.524 . S
C396 C397 1.397 1_455 S
C396 C401 1.363 . S
C397 H368 0.950 . S
C397 C396 1.397 1_655 S
C397 C398 1.334 . S
C398 H369 0.950 . S
C398 C397 1.334 . S
C398 C399 1.287 . S
C399 C398 1.287 . S
C399 C400 1.524 . S
C399 H402 0.999 . S
C400 H370 0.950 . S
C400 C399 1.524 . S
C400 C401 1.415 1_655 S
C401 H371 0.950 . S
C401 C396 1.363 . S
C401 C400 1.415 1_455 S
H402 C399 0.999 . S
H403 C384 0.913 . S
H404 C422 0.951 1_545 S
H405 C424 0.951 . S
H406 C426 0.950 . S
H407 C427 0.950 . S
H408 C429 0.950 . S
H409 C432 0.950 . S
H410 C433 0.950 . S
H411 C435 0.950 . S
H412 C436 0.950 . S
H413 C437 0.951 . S
H414 C439 0.951 . S
H415 C441 0.950 . S
H416 C442 0.950 . S
H417 C444 0.950 . S
H418 C447 0.950 . S
H419 C448 0.950 . S
H420 C450 0.950 . S
H421 C451 0.950 . S
C422 H404 0.951 1_565 S
C422 C423 1.366 1_565 S
C422 C424 1.388 . S
C423 C422 1.366 1_545 S
C423 C427 1.385 . S
C424 H405 0.951 . S
C424 C422 1.388 . S
C424 C425 1.366 . S
C425 C424 1.366 . S
C425 C426 1.414 . S
C425 C428 1.499 . S
C426 H406 0.950 . S
C426 C425 1.414 . S
C426 C427 1.374 1_565 S
C427 H407 0.950 . S
C427 C423 1.385 . S
C427 C426 1.374 1_545 S
C428 C425 1.499 . S
C428 C429 1.373 . S
C428 C430 1.389 . S
C429 H408 0.950 . S
C429 C428 1.373 . S
C429 C445 1.377 . S
C430 C428 1.389 . S
C430 C431 1.524 . S
C430 C444 1.377 . S
C431 C430 1.524 . S
C431 C432 1.397 . S
C431 C436 1.363 . S
C432 H409 0.950 . S
C432 C431 1.397 . S
C432 C433 1.334 . S
C433 H410 0.950 . S
C433 C432 1.334 . S
C433 C434 1.287 . S
C434 C433 1.287 . S
C434 C435 1.524 . S
C434 H453 0.913 . S
C435 H411 0.950 . S
C435 C434 1.524 . S
C435 C436 1.415 . S
C436 H412 0.950 . S
C436 C431 1.363 . S
C436 C435 1.415 . S
C437 H413 0.951 . S
C437 C438 1.366 . S
C437 C439 1.388 . S
C438 C437 1.366 . S
C438 C442 1.385 . S
C439 H414 0.951 . S
C439 C437 1.388 . S
C439 C440 1.366 . S
C440 C439 1.366 . S
C440 C441 1.414 . S
C440 C443 1.499 . S
C441 H415 0.950 . S
C441 C440 1.414 . S
C441 C442 1.374 . S
C442 H416 0.950 . S
C442 C438 1.385 . S
C442 C441 1.374 . S
C443 C440 1.499 . S
C443 C444 1.373 . S
C443 C445 1.389 . S
C444 H417 0.950 . S
C444 C430 1.377 . S
C444 C443 1.373 . S
C445 C429 1.377 . S
C445 C443 1.389 . S
C445 C446 1.524 . S
C446 C445 1.524 . S
C446 C447 1.397 . S
C446 C451 1.363 . S
C447 H418 0.950 . S
C447 C446 1.397 . S
C447 C448 1.334 . S
C448 H419 0.950 . S
C448 C447 1.334 . S
C448 C449 1.287 . S
C449 C448 1.287 . S
C449 C450 1.524 . S
C449 H452 0.999 . S
C450 H420 0.950 . S
C450 C449 1.524 . S
C450 C451 1.415 . S
C451 H421 0.950 . S
C451 C446 1.363 . S
C451 C450 1.415 . S
H452 C449 0.999 . S
H453 C434 0.913 . S
H454 C472 0.951 . S
H455 C474 0.951 . S
H456 C476 0.950 . S
H457 C477 0.950 . S
H458 C479 0.950 . S
H459 C482 0.950 . S
H460 C483 0.950 . S
H461 C485 0.950 . S
H462 C486 0.950 . S
H463 C487 0.951 . S
H464 C489 0.951 . S
H465 C491 0.950 1_455 S
H466 C492 0.950 . S
H467 C494 0.950 . S
H468 C497 0.950 . S
H469 C498 0.950 . S
H470 C500 0.950 . S
H471 C501 0.950 . S
C472 H454 0.951 . S
C472 C473 1.366 . S
C472 C474 1.388 . S
C473 C472 1.366 . S
C473 C477 1.385 . S
C474 H455 0.951 . S
C474 C472 1.388 . S
C474 C475 1.366 . S
C475 C474 1.366 . S
C475 C476 1.414 . S
C475 C478 1.499 . S
C476 H456 0.950 . S
C476 C475 1.414 . S
C476 C477 1.374 . S
C477 H457 0.950 . S
C477 C473 1.385 . S
C477 C476 1.374 . S
C478 C475 1.499 . S
C478 C479 1.373 . S
C478 C480 1.389 . S
C479 H458 0.950 . S
C479 C478 1.373 . S
C479 C495 1.377 . S
C480 C478 1.389 . S
C480 C481 1.524 . S
C480 C494 1.377 . S
C481 C480 1.524 . S
C481 C482 1.397 . S
C481 C486 1.363 . S
C482 H459 0.950 . S
C482 C481 1.397 . S
C482 C483 1.334 . S
C483 H460 0.950 . S
C483 C482 1.334 . S
C483 C484 1.287 . S
C484 C483 1.287 . S
C484 C485 1.524 . S
C484 H503 0.913 . S
C485 H461 0.950 . S
C485 C484 1.524 . S
C485 C486 1.415 . S
C486 H462 0.950 . S
C486 C481 1.363 . S
C486 C485 1.415 . S
C487 H463 0.951 . S
C487 C488 1.366 1_655 S
C487 C489 1.388 . S
C488 C487 1.366 1_455 S
C488 C492 1.385 . S
C489 H464 0.951 . S
C489 C487 1.388 . S
C489 C490 1.366 . S
C490 C489 1.366 . S
C490 C491 1.414 . S
C490 C493 1.499 . S
C491 H465 0.950 1_655 S
C491 C490 1.414 . S
C491 C492 1.374 1_655 S
C492 H466 0.950 . S
C492 C488 1.385 . S
C492 C491 1.374 1_455 S
C493 C490 1.499 . S
C493 C494 1.373 . S
C493 C495 1.389 . S
C494 H467 0.950 . S
C494 C480 1.377 . S
C494 C493 1.373 . S
C495 C479 1.377 . S
C495 C493 1.389 . S
C495 C496 1.524 . S
C496 C495 1.524 . S
C496 C497 1.397 . S
C496 C501 1.363 . S
C497 H468 0.950 . S
C497 C496 1.397 . S
C497 C498 1.334 . S
C498 H469 0.950 . S
C498 C497 1.334 . S
C498 C499 1.287 . S
C499 C498 1.287 . S
C499 C500 1.524 . S
C499 H502 0.999 . S
C500 H470 0.950 . S
C500 C499 1.524 . S
C500 C501 1.415 . S
C501 H471 0.950 . S
C501 C496 1.363 . S
C501 C500 1.415 . S
H502 C499 0.999 . S
H503 C484 0.913 . S
H504 C522 0.951 . S
H505 C524 0.951 . S
H506 C526 0.950 . S
H507 C527 0.950 . S
H508 C529 0.950 . S
H509 C532 0.950 . S
H510 C533 0.950 . S
H511 C535 0.950 . S
H512 C536 0.950 . S
H513 C537 0.951 . S
H514 C539 0.951 . S
H515 C541 0.950 . S
H516 C542 0.950 . S
H517 C544 0.950 . S
H518 C547 0.950 . S
H519 C548 0.950 . S
H520 C550 0.950 . S
H521 C551 0.950 . S
C522 H504 0.951 . S
C522 C523 1.366 . S
C522 C524 1.388 1_565 S
C523 C522 1.366 . S
C523 C527 1.385 1_565 S
C524 H505 0.951 . S
C524 C522 1.388 1_545 S
C524 C525 1.366 . S
C525 C524 1.366 . S
C525 C526 1.414 . S
C525 C528 1.499 . S
C526 H506 0.950 . S
C526 C525 1.414 . S
C526 C527 1.374 . S
C527 H507 0.950 . S
C527 C523 1.385 1_545 S
C527 C526 1.374 . S
C528 C525 1.499 . S
C528 C529 1.373 . S
C528 C530 1.389 1_556 S
C529 H508 0.950 . S
C529 C528 1.373 . S
C529 C545 1.377 . S
C530 C528 1.389 1_554 S
C530 C531 1.524 . S
C530 C544 1.377 . S
C531 C530 1.524 . S
C531 C532 1.397 1_545 S
C531 C536 1.363 . S
C532 H509 0.950 . S
C532 C531 1.397 1_565 S
C532 C533 1.334 . S
C533 H510 0.950 . S
C533 C532 1.334 . S
C533 C534 1.287 . S
C534 C533 1.287 . S
C534 C535 1.524 . S
C534 H553 0.913 . S
C535 H511 0.950 . S
C535 C534 1.524 . S
C535 C536 1.415 1_565 S
C536 H512 0.950 . S
C536 C531 1.363 . S
C536 C535 1.415 1_545 S
C537 H513 0.951 . S
C537 C538 1.366 . S
C537 C539 1.388 . S
C538 C537 1.366 . S
C538 C542 1.385 . S
C539 H514 0.951 . S
C539 C537 1.388 . S
C539 C540 1.366 . S
C540 C539 1.366 . S
C540 C541 1.414 . S
C540 C543 1.499 . S
C541 H515 0.950 . S
C541 C540 1.414 . S
C541 C542 1.374 . S
C542 H516 0.950 . S
C542 C538 1.385 . S
C542 C541 1.374 . S
C543 C540 1.499 . S
C543 C544 1.373 . S
C543 C545 1.389 1_554 S
C544 H517 0.950 . S
C544 C530 1.377 . S
C544 C543 1.373 . S
C545 C529 1.377 . S
C545 C543 1.389 1_556 S
C545 C546 1.524 . S
C546 C545 1.524 . S
C546 C547 1.397 . S
C546 C551 1.363 . S
C547 H518 0.950 . S
C547 C546 1.397 . S
C547 C548 1.334 . S
C548 H519 0.950 . S
C548 C547 1.334 . S
C548 C549 1.287 . S
C549 C548 1.287 . S
C549 C550 1.524 . S
C549 H552 0.999 . S
C550 H520 0.950 . S
C550 C549 1.524 . S
C550 C551 1.415 . S
C551 H521 0.950 . S
C551 C546 1.363 . S
C551 C550 1.415 . S
H552 C549 0.999 . S
H553 C534 0.913 . S
H554 C572 0.951 . S
H555 C574 0.951 . S
H556 C576 0.950 . S
H557 C577 0.950 . S
H558 C579 0.950 . S
H559 C582 0.950 . S
H560 C583 0.950 . S
H561 C585 0.950 . S
H562 C586 0.950 . S
H563 C587 0.951 1_655 S
H564 C589 0.951 . S
H565 C591 0.950 . S
H566 C592 0.942 1_655 S
H567 C594 0.950 . S
H568 C597 0.950 . S
H569 C598 0.950 . S
H570 C600 0.950 . S
H571 C601 0.950 . S
C572 H554 0.951 . S
C572 C573 1.366 . S
C572 C574 1.388 . S
C573 C572 1.366 . S
C573 C577 1.385 . S
C574 H555 0.951 . S
C574 C572 1.388 . S
C574 C575 1.366 . S
C575 C574 1.366 . S
C575 C576 1.414 . S
C575 C578 1.499 . S
C576 H556 0.950 . S
C576 C575 1.414 . S
C576 C577 1.374 . S
C577 H557 0.950 . S
C577 C573 1.385 . S
C577 C576 1.374 . S
C578 C575 1.499 . S
C578 C579 1.373 . S
C578 C580 1.416 . S
C579 H558 0.950 . S
C579 C578 1.373 . S
C579 C595 1.377 1_556 S
C580 C578 1.416 . S
C580 C581 1.524 . S
C580 C594 1.348 1_556 S
C581 C580 1.524 . S
C581 C582 1.395 1_556 S
C581 C586 1.363 . S
C582 H559 0.950 . S
C582 C581 1.395 1_554 S
C582 C583 1.334 . S
C583 H560 0.950 . S
C583 C582 1.334 . S
C583 C584 1.287 . S
C584 C583 1.287 . S
C584 C585 1.523 1_554 S
C584 H603 0.913 . S
C585 H561 0.950 . S
C585 C584 1.523 1_556 S
C585 C586 1.415 . S
C586 H562 0.950 . S
C586 C581 1.363 . S
C586 C585 1.415 . S
C587 H563 0.951 1_455 S
C587 C588 1.366 1_455 S
C587 C589 1.388 . S
C588 C587 1.366 1_655 S
C588 C592 1.376 1_655 S
C589 H564 0.951 . S
C589 C587 1.388 . S
C589 C590 1.366 . S
C590 C589 1.366 . S
C590 C591 1.414 . S
C590 C593 1.499 . S
C591 H565 0.950 . S
C591 C590 1.414 . S
C591 C592 1.391 . S
C592 H566 0.942 1_455 S
C592 C588 1.376 1_455 S
C592 C591 1.391 . S
C593 C590 1.499 . S
C593 C594 1.373 . S
C593 C595 1.389 . S
C594 H567 0.950 . S
C594 C580 1.348 1_554 S
C594 C593 1.373 . S
C595 C579 1.377 1_554 S
C595 C593 1.389 . S
C595 C596 1.524 . S
C596 C595 1.524 . S
C596 C597 1.397 1_454 S
C596 C601 1.363 . S
C597 H568 0.950 . S
C597 C596 1.397 1_656 S
C597 C598 1.334 . S
C598 H569 0.950 . S
C598 C597 1.334 . S
C598 C599 1.287 . S
C599 C598 1.287 . S
C599 C600 1.524 1_556 S
C599 H602 0.999 . S
C600 H570 0.950 . S
C600 C599 1.524 1_554 S
C600 C601 1.415 1_655 S
C601 H571 0.950 . S
C601 C596 1.363 . S
C601 C600 1.415 1_455 S
H602 C599 0.999 . S
H603 C584 0.913 . S
H604 C622 0.951 . S
H605 C624 0.951 . S
H606 C626 0.950 . S
H607 C627 0.950 . S
H608 C629 0.950 . S
H609 C632 0.950 . S
H610 C633 0.950 . S
H611 C635 0.950 . S
H612 C636 0.950 . S
H613 C637 0.951 . S
H614 C639 0.951 1_545 S
H615 C641 0.950 . S
H616 C642 0.950 . S
H617 C644 0.950 . S
H618 C647 0.950 . S
H619 C648 0.950 . S
H620 C650 0.950 . S
H621 C651 0.950 . S
C622 H604 0.951 . S
C622 C623 1.366 . S
C622 C624 1.388 . S
C623 C622 1.366 . S
C623 C627 1.385 . S
C624 H605 0.951 . S
C624 C622 1.388 . S
C624 C625 1.366 . S
C625 C624 1.366 . S
C625 C626 1.414 . S
C625 C628 1.499 . S
C626 H606 0.950 . S
C626 C625 1.414 . S
C626 C627 1.374 . S
C627 H607 0.950 . S
C627 C623 1.385 . S
C627 C626 1.374 . S
C628 C625 1.499 . S
C628 C629 1.373 . S
C628 C630 1.389 1_554 S
C629 H608 0.950 . S
C629 C628 1.373 . S
C629 C645 1.380 . S
C630 C628 1.389 1_556 S
C630 C631 1.524 . S
C630 C644 1.377 . S
C631 C630 1.524 . S
C631 C632 1.397 1_556 S
C631 C636 1.363 . S
C632 H609 0.950 . S
C632 C631 1.397 1_554 S
C632 C633 1.334 . S
C633 H610 0.950 . S
C633 C632 1.334 . S
C633 C634 1.287 1_554 S
C634 C633 1.287 1_556 S
C634 C635 1.524 . S
C634 H653 0.913 . S
C635 H611 0.950 . S
C635 C634 1.524 . S
C635 C636 1.415 . S
C636 H612 0.950 . S
C636 C631 1.363 . S
C636 C635 1.415 . S
C637 H613 0.951 . S
C637 C638 1.366 . S
C637 C639 1.388 1_545 S
C638 C637 1.366 . S
C638 C642 1.385 1_545 S
C639 H614 0.951 1_565 S
C639 C637 1.388 1_565 S
C639 C640 1.366 . S
C640 C639 1.366 . S
C640 C641 1.414 . S
C640 C643 1.499 . S
C641 H615 0.950 . S
C641 C640 1.414 . S
C641 C642 1.374 . S
C642 H616 0.950 . S
C642 C638 1.385 1_565 S
C642 C641 1.374 . S
C643 C640 1.499 . S
C643 C644 1.373 . S
C643 C645 1.385 1_556 S
C644 H617 0.950 . S
C644 C630 1.377 . S
C644 C643 1.373 . S
C645 C629 1.380 . S
C645 C643 1.385 1_554 S
C645 C646 1.525 . S
C646 C645 1.525 . S
C646 C647 1.397 1_554 S
C646 C651 1.363 . S
C647 H618 0.950 . S
C647 C646 1.397 1_556 S
C647 C648 1.334 1_565 S
C648 H619 0.950 . S
C648 C647 1.334 1_545 S
C648 C649 1.287 1_556 S
C649 C648 1.287 1_554 S
C649 C650 1.524 . S
C649 H652 0.999 . S
C650 H620 0.950 . S
C650 C649 1.524 . S
C650 C651 1.415 1_545 S
C651 H621 0.950 . S
C651 C646 1.363 . S
C651 C650 1.415 1_565 S
H652 C649 0.999 . S
H653 C634 0.913 . S
H654 C672 0.951 . S
H655 C674 0.951 . S
H656 C676 0.950 . S
H657 C677 0.950 . S
H658 C679 0.950 . S
H659 C682 0.950 . S
H660 C683 0.950 . S
H661 C685 0.950 . S
H662 C686 0.950 . S
H663 C687 0.951 . S
H664 C689 0.951 1_455 S
H665 C691 0.950 . S
H666 C692 0.950 . S
H667 C694 0.950 . S
H668 C697 0.981 . S
H669 C698 0.950 . S
H670 C700 0.950 . S
H671 C701 0.950 . S
C672 H654 0.951 . S
C672 C673 1.366 . S
C672 C674 1.388 . S
C673 C672 1.366 . S
C673 C677 1.385 . S
C674 H655 0.951 . S
C674 C672 1.388 . S
C674 C675 1.366 . S
C675 C674 1.366 . S
C675 C676 1.414 . S
C675 C678 1.499 . S
C676 H656 0.950 . S
C676 C675 1.414 . S
C676 C677 1.374 . S
C677 H657 0.950 . S
C677 C673 1.385 . S
C677 C676 1.374 . S
C678 C675 1.499 . S
C678 C679 1.373 . S
C678 C680 1.389 1_556 S
C679 H658 0.950 . S
C679 C678 1.373 . S
C679 C695 1.377 . S
C680 C678 1.389 1_554 S
C680 C681 1.524 . S
C680 C694 1.377 . S
C681 C680 1.524 . S
C681 C682 1.397 . S
C681 C686 1.363 . S
C682 H659 0.950 . S
C682 C681 1.397 . S
C682 C683 1.334 . S
C683 H660 0.950 . S
C683 C682 1.334 . S
C683 C684 1.287 . S
C684 C683 1.287 . S
C684 C685 1.524 . S
C684 H703 0.913 . S
C685 H661 0.950 . S
C685 C684 1.524 . S
C685 C686 1.415 . S
C686 H662 0.950 . S
C686 C681 1.363 . S
C686 C685 1.415 . S
C687 H663 0.951 . S
C687 C688 1.366 . S
C687 C689 1.388 1_455 S
C688 C687 1.366 . S
C688 C692 1.385 1_455 S
C689 H664 0.951 1_655 S
C689 C687 1.388 1_655 S
C689 C690 1.366 . S
C690 C689 1.366 . S
C690 C691 1.414 . S
C690 C693 1.499 . S
C691 H665 0.950 . S
C691 C690 1.414 . S
C691 C692 1.374 . S
C692 H666 0.950 . S
C692 C688 1.385 1_655 S
C692 C691 1.374 . S
C693 C690 1.499 . S
C693 C694 1.373 . S
C693 C695 1.389 1_554 S
C694 H667 0.950 . S
C694 C680 1.377 . S
C694 C693 1.373 . S
C695 C679 1.377 . S
C695 C693 1.389 1_556 S
C695 C696 1.524 . S
C696 C695 1.524 . S
C696 C697 1.397 . S
C696 C701 1.363 . S
C697 H668 0.981 . S
C697 C696 1.397 . S
C697 C698 1.334 1_655 S
C698 H669 0.950 . S
C698 C697 1.334 1_455 S
C698 C699 1.287 . S
C699 C698 1.287 . S
C699 C700 1.524 . S
C699 H702 0.999 . S
C700 H670 0.950 . S
C700 C699 1.524 . S
C700 C701 1.415 1_455 S
C701 H671 0.950 . S
C701 C696 1.363 . S
C701 C700 1.415 1_655 S
H702 C699 0.999 . S
H703 C684 0.913 . S
H704 C722 0.951 . S
H705 C724 0.951 . S
H706 C726 0.950 . S
H707 C727 0.950 . S
H708 C729 0.950 . S
H709 C732 0.950 . S
H710 C733 0.950 . S
H711 C735 0.950 . S
H712 C736 0.950 . S
H713 C737 0.951 . S
H714 C739 0.951 . S
H715 C741 0.950 . S
H716 C742 0.950 . S
H717 C744 0.950 . S
H718 C747 0.950 . S
H719 C748 0.950 . S
H720 C750 0.950 . S
H721 C751 0.950 . S
C722 H704 0.951 . S
C722 C723 1.366 . S
C722 C724 1.388 . S
C723 C722 1.366 . S
C723 C727 1.385 . S
C724 H705 0.951 . S
C724 C722 1.388 . S
C724 C725 1.366 . S
C725 C724 1.366 . S
C725 C726 1.414 . S
C725 C728 1.499 . S
C726 H706 0.950 . S
C726 C725 1.414 . S
C726 C727 1.374 . S
C727 H707 0.950 . S
C727 C723 1.385 . S
C727 C726 1.374 . S
C728 C725 1.499 . S
C728 C729 1.373 . S
C728 C730 1.389 . S
C729 H708 0.950 . S
C729 C728 1.373 . S
C729 C745 1.377 . S
C730 C728 1.389 . S
C730 C731 1.524 . S
C730 C744 1.377 . S
C731 C730 1.524 . S
C731 C732 1.397 . S
C731 C736 1.363 . S
C732 H709 0.950 . S
C732 C731 1.397 . S
C732 C733 1.334 . S
C733 H710 0.950 . S
C733 C732 1.334 . S
C733 C734 1.287 . S
C734 C733 1.287 . S
C734 C735 1.524 . S
C734 H753 0.913 . S
C735 H711 0.950 . S
C735 C734 1.524 . S
C735 C736 1.415 . S
C736 H712 0.950 . S
C736 C731 1.363 . S
C736 C735 1.415 . S
C737 H713 0.951 . S
C737 C738 1.366 . S
C737 C739 1.388 . S
C738 C737 1.366 . S
C738 C742 1.385 . S
C739 H714 0.951 . S
C739 C737 1.388 . S
C739 C740 1.366 . S
C740 C739 1.366 . S
C740 C741 1.414 . S
C740 C743 1.499 . S
C741 H715 0.950 . S
C741 C740 1.414 . S
C741 C742 1.374 . S
C742 H716 0.950 . S
C742 C738 1.385 . S
C742 C741 1.374 . S
C743 C740 1.499 . S
C743 C744 1.373 . S
C743 C745 1.389 . S
C744 H717 0.950 . S
C744 C730 1.377 . S
C744 C743 1.373 . S
C745 C729 1.377 . S
C745 C743 1.389 . S
C745 C746 1.524 . S
C746 C745 1.524 . S
C746 C747 1.397 . S
C746 C751 1.363 . S
C747 H718 0.950 . S
C747 C746 1.397 . S
C747 C748 1.334 . S
C748 H719 0.950 . S
C748 C747 1.334 . S
C748 C749 1.287 . S
C749 C748 1.287 . S
C749 C750 1.524 . S
C749 H752 0.999 . S
C750 H720 0.950 . S
C750 C749 1.524 . S
C750 C751 1.415 . S
C751 H721 0.950 . S
C751 C746 1.363 . S
C751 C750 1.415 . S
H752 C749 0.999 . S
H753 C734 0.913 . S
H754 C772 0.951 . S
H755 C774 0.951 . S
H756 C776 0.950 . S
H757 C777 0.950 . S
H758 C779 0.950 . S
H759 C782 0.950 . S
H760 C783 0.950 . S
H761 C785 0.950 . S
H762 C786 0.950 . S
H763 C787 0.951 . S
H764 C789 0.951 . S
H765 C791 0.950 . S
H766 C792 0.950 . S
H767 C794 0.950 . S
H768 C797 0.950 . S
H769 C798 0.950 . S
H770 C800 0.950 . S
H771 C801 0.950 . S
C772 H754 0.951 . S
C772 C773 1.366 . S
C772 C774 1.388 . S
C773 C772 1.366 . S
C773 C777 1.385 . S
C774 H755 0.951 . S
C774 C772 1.388 . S
C774 C775 1.366 . S
C775 C774 1.366 . S
C775 C776 1.414 . S
C775 C778 1.499 . S
C776 H756 0.950 . S
C776 C775 1.414 . S
C776 C777 1.374 . S
C777 H757 0.950 . S
C777 C773 1.385 . S
C777 C776 1.374 . S
C778 C775 1.499 . S
C778 C779 1.373 . S
C778 C780 1.389 . S
C779 H758 0.950 . S
C779 C778 1.373 . S
C779 C795 1.377 . S
C780 C778 1.389 . S
C780 C781 1.524 . S
C780 C794 1.377 . S
C781 C780 1.524 . S
C781 C782 1.397 . S
C781 C786 1.363 . S
C782 H759 0.950 . S
C782 C781 1.397 . S
C782 C783 1.334 . S
C783 H760 0.950 . S
C783 C782 1.334 . S
C783 C784 1.287 . S
C784 C783 1.287 . S
C784 C785 1.524 . S
C784 H803 0.913 . S
C785 H761 0.950 . S
C785 C784 1.524 . S
C785 C786 1.415 . S
C786 H762 0.950 . S
C786 C781 1.363 . S
C786 C785 1.415 . S
C787 H763 0.951 . S
C787 C788 1.366 . S
C787 C789 1.388 . S
C788 C787 1.366 . S
C788 C792 1.385 . S
C789 H764 0.951 . S
C789 C787 1.388 . S
C789 C790 1.366 . S
C790 C789 1.366 . S
C790 C791 1.414 . S
C790 C793 1.499 . S
C791 H765 0.950 . S
C791 C790 1.414 . S
C791 C792 1.374 . S
C792 H766 0.950 . S
C792 C788 1.385 . S
C792 C791 1.374 . S
C793 C790 1.499 . S
C793 C794 1.373 . S
C793 C795 1.389 . S
C794 H767 0.950 . S
C794 C780 1.377 . S
C794 C793 1.373 . S
C795 C779 1.377 . S
C795 C793 1.389 . S
C795 C796 1.524 . S
C796 C795 1.524 . S
C796 C797 1.397 . S
C796 C801 1.363 . S
C797 H768 0.950 . S
C797 C796 1.397 . S
C797 C798 1.334 . S
C798 H769 0.950 . S
C798 C797 1.334 . S
C798 C799 1.287 . S
C799 C798 1.287 . S
C799 C800 1.524 . S
C799 H802 0.999 . S
C800 H770 0.950 . S
C800 C799 1.524 . S
C800 C801 1.415 . S
C801 H771 0.950 . S
C801 C796 1.363 . S
C801 C800 1.415 . S
H802 C799 0.999 . S
H803 C784 0.913 . S
H804 C822 0.951 . S
H805 C824 0.951 . S
H806 C826 0.950 . S
H807 C827 0.950 . S
H808 C829 0.950 . S
H809 C832 0.950 . S
H810 C833 0.950 . S
H811 C835 0.950 . S
H812 C836 0.950 . S
H813 C837 0.951 . S
H814 C839 0.951 . S
H815 C841 0.950 . S
H816 C842 0.950 . S
H817 C844 0.950 . S
H818 C847 0.950 . S
H819 C848 0.950 . S
H820 C850 0.950 . S
H821 C851 0.950 . S
C822 H804 0.951 . S
C822 C823 1.366 . S
C822 C824 1.388 . S
C823 C822 1.366 . S
C823 C827 1.385 . S
C824 H805 0.951 . S
C824 C822 1.388 . S
C824 C825 1.366 . S
C825 C824 1.366 . S
C825 C826 1.414 . S
C825 C828 1.499 . S
C826 H806 0.950 . S
C826 C825 1.414 . S
C826 C827 1.374 . S
C827 H807 0.950 . S
C827 C823 1.385 . S
C827 C826 1.374 . S
C828 C825 1.499 . S
C828 C829 1.373 . S
C828 C830 1.389 . S
C829 H808 0.950 . S
C829 C828 1.373 . S
C829 C845 1.377 . S
C830 C828 1.389 . S
C830 C831 1.524 . S
C830 C844 1.377 . S
C831 C830 1.524 . S
C831 C832 1.397 . S
C831 C836 1.363 . S
C832 H809 0.950 . S
C832 C831 1.397 . S
C832 C833 1.334 . S
C833 H810 0.950 . S
C833 C832 1.334 . S
C833 C834 1.287 . S
C834 C833 1.287 . S
C834 C835 1.524 . S
C834 H853 0.913 . S
C835 H811 0.950 . S
C835 C834 1.524 . S
C835 C836 1.415 . S
C836 H812 0.950 . S
C836 C831 1.363 . S
C836 C835 1.415 . S
C837 H813 0.951 . S
C837 C838 1.366 . S
C837 C839 1.388 . S
C838 C837 1.366 . S
C838 C842 1.385 . S
C839 H814 0.951 . S
C839 C837 1.388 . S
C839 C840 1.366 . S
C840 C839 1.366 . S
C840 C841 1.414 . S
C840 C843 1.499 . S
C841 H815 0.950 . S
C841 C840 1.414 . S
C841 C842 1.374 . S
C842 H816 0.950 . S
C842 C838 1.385 . S
C842 C841 1.374 . S
C843 C840 1.499 . S
C843 C844 1.373 . S
C843 C845 1.389 . S
C844 H817 0.950 . S
C844 C830 1.377 . S
C844 C843 1.373 . S
C845 C829 1.377 . S
C845 C843 1.389 . S
C845 C846 1.524 . S
C846 C845 1.524 . S
C846 C847 1.397 . S
C846 C851 1.363 . S
C847 H818 0.950 . S
C847 C846 1.397 . S
C847 C848 1.334 . S
C848 H819 0.950 . S
C848 C847 1.334 . S
C848 C849 1.287 . S
C849 C848 1.287 . S
C849 C850 1.524 . S
C849 H852 0.999 . S
C850 H820 0.950 . S
C850 C849 1.524 . S
C850 C851 1.415 . S
C851 H821 0.950 . S
C851 C846 1.363 . S
C851 C850 1.415 . S
H852 C849 0.999 . S
H853 C834 0.913 . S
H854 C872 0.951 . S
H855 C874 0.951 . S
H856 C876 0.950 . S
H857 C877 0.950 . S
H858 C879 0.950 . S
H859 C882 0.950 . S
H860 C883 0.950 . S
H861 C885 0.950 . S
H862 C886 0.950 . S
H863 C887 0.951 . S
H864 C889 0.951 . S
H865 C891 0.950 . S
H866 C892 0.950 . S
H867 C894 0.950 . S
H868 C897 0.950 . S
H869 C898 0.950 . S
H870 C900 0.950 . S
H871 C901 0.950 . S
C872 H854 0.951 . S
C872 C873 1.366 . S
C872 C874 1.388 . S
C873 C872 1.366 . S
C873 C877 1.385 . S
C874 H855 0.951 . S
C874 C872 1.388 . S
C874 C875 1.366 . S
C875 C874 1.366 . S
C875 C876 1.414 . S
C875 C878 1.499 . S
C876 H856 0.950 . S
C876 C875 1.414 . S
C876 C877 1.374 . S
C877 H857 0.950 . S
C877 C873 1.385 . S
C877 C876 1.374 . S
C878 C875 1.499 . S
C878 C879 1.373 . S
C878 C880 1.389 . S
C879 H858 0.950 . S
C879 C878 1.373 . S
C879 C895 1.377 . S
C880 C878 1.389 . S
C880 C881 1.524 . S
C880 C894 1.377 . S
C881 C880 1.524 . S
C881 C882 1.397 . S
C881 C886 1.363 . S
C882 H859 0.950 . S
C882 C881 1.397 . S
C882 C883 1.334 . S
C883 H860 0.950 . S
C883 C882 1.334 . S
C883 C884 1.287 . S
C884 C883 1.287 . S
C884 C885 1.524 . S
C884 H903 0.913 . S
C885 H861 0.950 . S
C885 C884 1.524 . S
C885 C886 1.415 . S
C886 H862 0.950 . S
C886 C881 1.363 . S
C886 C885 1.415 . S
C887 H863 0.951 . S
C887 C888 1.366 . S
C887 C889 1.388 . S
C888 C887 1.366 . S
C888 C892 1.385 . S
C889 H864 0.951 . S
C889 C887 1.388 . S
C889 C890 1.366 . S
C890 C889 1.366 . S
C890 C891 1.414 . S
C890 C893 1.499 . S
C891 H865 0.950 . S
C891 C890 1.414 . S
C891 C892 1.374 . S
C892 H866 0.950 . S
C892 C888 1.385 . S
C892 C891 1.374 . S
C893 C890 1.499 . S
C893 C894 1.373 . S
C893 C895 1.389 . S
C894 H867 0.950 . S
C894 C880 1.377 . S
C894 C893 1.373 . S
C895 C879 1.377 . S
C895 C893 1.389 . S
C895 C896 1.524 . S
C896 C895 1.524 . S
C896 C897 1.397 . S
C896 C901 1.363 . S
C897 H868 0.950 . S
C897 C896 1.397 . S
C897 C898 1.334 . S
C898 H869 0.950 . S
C898 C897 1.334 . S
C898 C899 1.287 . S
C899 C898 1.287 . S
C899 C900 1.524 . S
C899 H902 0.999 . S
C900 H870 0.950 . S
C900 C899 1.524 . S
C900 C901 1.415 . S
C901 H871 0.950 . S
C901 C896 1.363 . S
C901 C900 1.415 . S
H902 C899 0.999 . S
H903 C884 0.913 . S
C123 C36 1.554 . S
C138 C10 1.554 . S
C173 C49 1.554 . S
C188 C23 1.554 . S
C223 C56 1.554 . S
C238 C88 1.554 . S
C273 C75 1.554 . S
C288 C95 1.554 . S
C323 C18 0.975 . S
C338 C3 0.966 . S
C373 C16 0.965 . S
C388 C31 0.976 . S
C423 C44 0.975 . S
C438 C29 0.966 . S
C473 C42 0.966 . S
C488 C5 0.975 . S
C523 C94 0.976 . S
C538 C57 0.965 . S
C573 C68 0.965 . S
C588 C55 0.976 . S
C623 C81 0.965 . S
C638 C70 0.975 . S
C673 C96 0.966 . S
C688 C83 0.976 . S
C723 C4 1.751 . S
C738 C69 1.751 . S
C773 C82 1.751 . S
C788 C17 1.751 . S
C823 C30 1.751 . S
C838 C101 1.752 . S
C873 C43 1.752 . S
C888 C62 1.751 . S
