# Generated by pormake.
# Topology deh, (3)-cn, num edge types: 1
# Building blocks:
#     Node 0, Type 0, BuildingBlock: WUSLED_clean_sbu_0, # of connection points: 3
#     Node 1, Type 0, BuildingBlock: WUSLED_clean_sbu_0, # of connection points: 3
#     Node 2, Type 0, BuildingBlock: WUSLED_clean_sbu_0, # of connection points: 3
#     Node 3, Type 0, BuildingBlock: WUSLED_clean_sbu_0, # of connection points: 3
#     Node 4, Type 0, BuildingBlock: WUSLED_clean_sbu_0, # of connection points: 3
#     Node 5, Type 0, BuildingBlock: WUSLED_clean_sbu_0, # of connection points: 3
#     Node 6, Type 0, BuildingBlock: WUSLED_clean_sbu_0, # of connection points: 3
#     Node 7, Type 0, BuildingBlock: WUSLED_clean_sbu_0, # of connection points: 3
#     Node 8, Type 0, BuildingBlock: WUSLED_clean_sbu_0, # of connection points: 3
#     Node 9, Type 0, BuildingBlock: WUSLED_clean_sbu_0, # of connection points: 3
#     Node 10, Type 0, BuildingBlock: WUSLED_clean_sbu_0, # of connection points: 3
#     Node 11, Type 0, BuildingBlock: WUSLED_clean_sbu_0, # of connection points: 3
#     Node 12, Type 0, BuildingBlock: WUSLED_clean_sbu_0, # of connection points: 3
#     Node 13, Type 0, BuildingBlock: WUSLED_clean_sbu_0, # of connection points: 3
#     Node 14, Type 0, BuildingBlock: WUSLED_clean_sbu_0, # of connection points: 3
#     Node 15, Type 0, BuildingBlock: WUSLED_clean_sbu_0, # of connection points: 3
#     Node 16, Type 0, BuildingBlock: WUSLED_clean_sbu_0, # of connection points: 3
#     Node 17, Type 0, BuildingBlock: WUSLED_clean_sbu_0, # of connection points: 3
#     Node 18, Type 0, BuildingBlock: WUSLED_clean_sbu_0, # of connection points: 3
#     Node 19, Type 0, BuildingBlock: WUSLED_clean_sbu_0, # of connection points: 3
#     Node 20, Type 0, BuildingBlock: WUSLED_clean_sbu_0, # of connection points: 3
#     Node 21, Type 0, BuildingBlock: WUSLED_clean_sbu_0, # of connection points: 3
#     Node 22, Type 0, BuildingBlock: WUSLED_clean_sbu_0, # of connection points: 3
#     Node 23, Type 0, BuildingBlock: WUSLED_clean_sbu_0, # of connection points: 3
#     Node 24, Type 0, BuildingBlock: WUSLED_clean_sbu_0, # of connection points: 3
#     Node 25, Type 0, BuildingBlock: WUSLED_clean_sbu_0, # of connection points: 3
#     Node 26, Type 0, BuildingBlock: WUSLED_clean_sbu_0, # of connection points: 3
#     Node 27, Type 0, BuildingBlock: WUSLED_clean_sbu_0, # of connection points: 3
#     Node 28, Type 0, BuildingBlock: WUSLED_clean_sbu_0, # of connection points: 3
#     Node 29, Type 0, BuildingBlock: WUSLED_clean_sbu_0, # of connection points: 3
#     Node 30, Type 0, BuildingBlock: WUSLED_clean_sbu_0, # of connection points: 3
#     Node 31, Type 0, BuildingBlock: WUSLED_clean_sbu_0, # of connection points: 3
#     Edge 32, Type (0, 0), BuildingBlock: XIVTED_clean_linker_0, # of connection points: 2
#     Edge 33, Type (0, 0), BuildingBlock: XIVTED_clean_linker_0, # of connection points: 2
#     Edge 34, Type (0, 0), BuildingBlock: XIVTED_clean_linker_0, # of connection points: 2
#     Edge 35, Type (0, 0), BuildingBlock: XIVTED_clean_linker_0, # of connection points: 2
#     Edge 36, Type (0, 0), BuildingBlock: XIVTED_clean_linker_0, # of connection points: 2
#     Edge 37, Type (0, 0), BuildingBlock: XIVTED_clean_linker_0, # of connection points: 2
#     Edge 38, Type (0, 0), BuildingBlock: XIVTED_clean_linker_0, # of connection points: 2
#     Edge 39, Type (0, 0), BuildingBlock: XIVTED_clean_linker_0, # of connection points: 2
#     Edge 40, Type (0, 0), BuildingBlock: XIVTED_clean_linker_0, # of connection points: 2
#     Edge 41, Type (0, 0), BuildingBlock: XIVTED_clean_linker_0, # of connection points: 2
#     Edge 42, Type (0, 0), BuildingBlock: XIVTED_clean_linker_0, # of connection points: 2
#     Edge 43, Type (0, 0), BuildingBlock: XIVTED_clean_linker_0, # of connection points: 2
#     Edge 44, Type (0, 0), BuildingBlock: XIVTED_clean_linker_0, # of connection points: 2
#     Edge 45, Type (0, 0), BuildingBlock: XIVTED_clean_linker_0, # of connection points: 2
#     Edge 46, Type (0, 0), BuildingBlock: XIVTED_clean_linker_0, # of connection points: 2
#     Edge 47, Type (0, 0), BuildingBlock: XIVTED_clean_linker_0, # of connection points: 2
#     Edge 48, Type (0, 0), BuildingBlock: XIVTED_clean_linker_0, # of connection points: 2
#     Edge 49, Type (0, 0), BuildingBlock: XIVTED_clean_linker_0, # of connection points: 2
#     Edge 50, Type (0, 0), BuildingBlock: XIVTED_clean_linker_0, # of connection points: 2
#     Edge 51, Type (0, 0), BuildingBlock: XIVTED_clean_linker_0, # of connection points: 2
#     Edge 52, Type (0, 0), BuildingBlock: XIVTED_clean_linker_0, # of connection points: 2
#     Edge 53, Type (0, 0), BuildingBlock: XIVTED_clean_linker_0, # of connection points: 2
#     Edge 54, Type (0, 0), BuildingBlock: XIVTED_clean_linker_0, # of connection points: 2
#     Edge 55, Type (0, 0), BuildingBlock: XIVTED_clean_linker_0, # of connection points: 2
#     Edge 56, Type (0, 0), BuildingBlock: XIVTED_clean_linker_0, # of connection points: 2
#     Edge 57, Type (0, 0), BuildingBlock: XIVTED_clean_linker_0, # of connection points: 2
#     Edge 58, Type (0, 0), BuildingBlock: XIVTED_clean_linker_0, # of connection points: 2
#     Edge 59, Type (0, 0), BuildingBlock: XIVTED_clean_linker_0, # of connection points: 2
#     Edge 60, Type (0, 0), BuildingBlock: XIVTED_clean_linker_0, # of connection points: 2
#     Edge 61, Type (0, 0), BuildingBlock: XIVTED_clean_linker_0, # of connection points: 2
#     Edge 62, Type (0, 0), BuildingBlock: XIVTED_clean_linker_0, # of connection points: 2
#     Edge 63, Type (0, 0), BuildingBlock: XIVTED_clean_linker_0, # of connection points: 2
#     Edge 64, Type (0, 0), BuildingBlock: XIVTED_clean_linker_0, # of connection points: 2
#     Edge 65, Type (0, 0), BuildingBlock: XIVTED_clean_linker_0, # of connection points: 2
#     Edge 66, Type (0, 0), BuildingBlock: XIVTED_clean_linker_0, # of connection points: 2
#     Edge 67, Type (0, 0), BuildingBlock: XIVTED_clean_linker_0, # of connection points: 2
#     Edge 68, Type (0, 0), BuildingBlock: XIVTED_clean_linker_0, # of connection points: 2
#     Edge 69, Type (0, 0), BuildingBlock: XIVTED_clean_linker_0, # of connection points: 2
#     Edge 70, Type (0, 0), BuildingBlock: XIVTED_clean_linker_0, # of connection points: 2
#     Edge 71, Type (0, 0), BuildingBlock: XIVTED_clean_linker_0, # of connection points: 2
#     Edge 72, Type (0, 0), BuildingBlock: XIVTED_clean_linker_0, # of connection points: 2
#     Edge 73, Type (0, 0), BuildingBlock: XIVTED_clean_linker_0, # of connection points: 2
#     Edge 74, Type (0, 0), BuildingBlock: XIVTED_clean_linker_0, # of connection points: 2
#     Edge 75, Type (0, 0), BuildingBlock: XIVTED_clean_linker_0, # of connection points: 2
#     Edge 76, Type (0, 0), BuildingBlock: XIVTED_clean_linker_0, # of connection points: 2
#     Edge 77, Type (0, 0), BuildingBlock: XIVTED_clean_linker_0, # of connection points: 2
#     Edge 78, Type (0, 0), BuildingBlock: XIVTED_clean_linker_0, # of connection points: 2
#     Edge 79, Type (0, 0), BuildingBlock: XIVTED_clean_linker_0, # of connection points: 2
# Relax obj value: 0.006
# Max RMSD: 0.035
# Mean RMSD: 0.011
data_MOF--net-deh--node1-WUSLED_clean_sbu_0--edge1-XIVTED_clean_linker_0
_symmetry_space_group_name_H-M    P1
_symmetry_Int_Tables_number       1
_symmetry_cell_setting            triclinic
loop_
_symmetry_equiv_pos_as_xyz
'x, y, z'
_cell_length_a     71.960745
_cell_length_b     74.36608
_cell_length_c     156.87581
_cell_angle_alpha  90.031765
_cell_angle_beta   90.04684
_cell_angle_gamma 89.944392
loop_
_atom_site_label
_atom_site_type_symbol
_atom_site_fract_x
_atom_site_fract_y
_atom_site_fract_z
_atom_type_partial_charge
C0 C 0.11534 0.03519 0.30764 0.0
C1 C 0.10624 0.03757 0.31547 0.0
C2 C 0.07622 0.03317 0.30856 0.0
C3 C 0.08684 0.03659 0.31592 0.0
C4 C 0.0855 0.03073 0.30074 0.0
C5 C 0.10487 0.03174 0.3003 0.0
U6 U 0.1629 0.04111 0.31796 0.0
O7 O 0.18952 0.02774 0.31517 0.0
O8 O 0.18699 0.05699 0.31378 0.0
C9 C 0.19734 0.04267 0.31249 0.0
C10 C 0.13567 0.03646 0.30703 0.0
C11 C 0.2062 0.04164 0.30406 0.0
C12 C 0.20398 0.03975 0.28863 0.0
C13 C 0.19542 0.04035 0.29663 0.0
C14 C 0.23418 0.04153 0.29541 0.0
C15 C 0.22348 0.04039 0.28792 0.0
C16 C 0.2256 0.04217 0.30341 0.0
C17 C 0.16521 0.04738 0.34227 0.0
C18 C 0.19384 0.05206 0.35019 0.0
C19 C 0.16426 0.05233 0.35756 0.0
C20 C 0.15511 0.0491 0.34985 0.0
C21 C 0.18374 0.0539 0.35784 0.0
C22 C 0.18464 0.04883 0.34247 0.0
C23 C 0.15512 0.04443 0.33425 0.0
O24 O 0.1427 0.0523 0.30887 0.0
O25 O 0.14496 0.02308 0.31047 0.0
O26 O 0.15792 0.02883 0.33051 0.0
O27 O 0.15511 0.05802 0.3289 0.0
H28 H 0.11416 0.0402 0.32122 0.0
H29 H 0.08018 0.03833 0.32206 0.0
H30 H 0.07776 0.02834 0.29492 0.0
H31 H 0.11168 0.02993 0.2942 0.0
H32 H 0.19533 0.03863 0.283 0.0
H33 H 0.1804 0.03986 0.29703 0.0
H34 H 0.2492 0.04228 0.2951 0.0
H35 H 0.23412 0.04321 0.30909 0.0
H36 H 0.20886 0.05303 0.35018 0.0
H37 H 0.156 0.05398 0.36327 0.0
H38 H 0.14009 0.0481 0.3498 0.0
H39 H 0.19265 0.04752 0.33665 0.0
C40 C 0.26167 0.86033 0.55309 0.0
C41 C 0.2593 0.85164 0.56095 0.0
C42 C 0.26309 0.82244 0.55409 0.0
C43 C 0.26 0.83287 0.56144 0.0
C44 C 0.26561 0.83128 0.54624 0.0
C45 C 0.26489 0.85006 0.54575 0.0
U46 U 0.2547 0.90541 0.56383 0.0
O47 O 0.26856 0.93149 0.56192 0.0
O48 O 0.23845 0.92911 0.55999 0.0
C49 C 0.25323 0.93939 0.55931 0.0
C50 C 0.2605 0.88003 0.55251 0.0
C51 C 0.25475 0.94968 0.55133 0.0
C52 C 0.2557 0.95117 0.53585 0.0
C53 C 0.25472 0.94105 0.54337 0.0
C54 C 0.257 0.97857 0.54419 0.0
C55 C 0.25673 0.97008 0.53616 0.0
C56 C 0.256 0.96845 0.55168 0.0
C57 C 0.24634 0.90412 0.58821 0.0
C58 C 0.22956 0.92508 0.59731 0.0
C59 C 0.24932 0.90229 0.60361 0.0
C60 C 0.25404 0.89611 0.59549 0.0
C61 C 0.23671 0.9166 0.60464 0.0
C62 C 0.23433 0.91889 0.58916 0.0
C63 C 0.25014 0.89597 0.57983 0.0
O64 O 0.24399 0.88682 0.55409 0.0
O65 O 0.27401 0.88886 0.55628 0.0
O66 O 0.26652 0.89929 0.57648 0.0
O67 O 0.23653 0.89648 0.57423 0.0
H68 H 0.25684 0.85939 0.56669 0.0
H69 H 0.25825 0.82654 0.56761 0.0
H70 H 0.26779 0.82368 0.54043 0.0
H71 H 0.26669 0.85656 0.53962 0.0
H72 H 0.25527 0.94418 0.52979 0.0
H73 H 0.25377 0.92654 0.54298 0.0
H74 H 0.2581 0.99305 0.54469 0.0
H75 H 0.25614 0.97532 0.55778 0.0
H76 H 0.21973 0.93605 0.59786 0.0
H77 H 0.25538 0.89568 0.6091 0.0
H78 H 0.26339 0.88475 0.59489 0.0
H79 H 0.22825 0.92531 0.58362 0.0
C80 C 0.39846 0.97865 0.80745 0.0
C81 C 0.40768 0.97674 0.81528 0.0
C82 C 0.43761 0.98032 0.80821 0.0
C83 C 0.42709 0.97755 0.81566 0.0
C84 C 0.42822 0.98234 0.80039 0.0
C85 C 0.40882 0.98151 0.80002 0.0
U86 U 0.35161 0.97226 0.81818 0.0
O87 O 0.32468 0.98544 0.81582 0.0
O88 O 0.3274 0.95624 0.81425 0.0
C89 C 0.31684 0.97049 0.81317 0.0
C90 C 0.37811 0.97737 0.80695 0.0
C91 C 0.30743 0.97162 0.80486 0.0
C92 C 0.30862 0.97321 0.78939 0.0
C93 C 0.31771 0.97244 0.79728 0.0
C94 C 0.27887 0.97252 0.7966 0.0
C95 C 0.28907 0.9732 0.78895 0.0
C96 C 0.28799 0.97173 0.80448 0.0
C97 C 0.35182 0.96524 0.84256 0.0
C98 C 0.32541 0.95575 0.85111 0.0
C99 C 0.35489 0.96231 0.8579 0.0
C100 C 0.36254 0.96657 0.84998 0.0
C101 C 0.33632 0.95658 0.85855 0.0
C102 C 0.33312 0.96002 0.84315 0.0
C103 C 0.36076 0.96862 0.8343 0.0
O104 O 0.37122 0.96146 0.80873 0.0
O105 O 0.36892 0.99061 0.81057 0.0
O106 O 0.35729 0.98428 0.83075 0.0
O107 O 0.36045 0.95518 0.82886 0.0
H108 H 0.39985 0.97455 0.82109 0.0
H109 H 0.43384 0.97616 0.8218 0.0
H110 H 0.43587 0.98424 0.79452 0.0
H111 H 0.40191 0.98294 0.79392 0.0
H112 H 0.31693 0.97349 0.78364 0.0
H113 H 0.33277 0.97235 0.79746 0.0
H114 H 0.26383 0.97275 0.79652 0.0
H115 H 0.27984 0.97117 0.81028 0.0
H116 H 0.3111 0.95129 0.85139 0.0
H117 H 0.36358 0.9634 0.86351 0.0
H118 H 0.37698 0.97065 0.84964 0.0
H119 H 0.32464 0.95891 0.83747 0.0
C120 C 0.25107 0.15242 0.05232 0.0
C121 C 0.24608 0.16109 0.05993 0.0
C122 C 0.24957 0.19038 0.05312 0.0
C123 C 0.24526 0.17987 0.06032 0.0
C124 C 0.25461 0.18155 0.04551 0.0
C125 C 0.25532 0.16277 0.04512 0.0
U126 U 0.25807 0.10739 0.06325 0.0
O127 O 0.24444 0.08122 0.06127 0.0
O128 O 0.27455 0.08378 0.05946 0.0
C129 C 0.25985 0.07343 0.05869 0.0
C130 C 0.25247 0.13268 0.05188 0.0
C131 C 0.25848 0.06333 0.05065 0.0
C132 C 0.25599 0.0624 0.0352 0.0
C133 C 0.25697 0.07225 0.0428 0.0
C134 C 0.25784 0.03465 0.04324 0.0
C135 C 0.25647 0.04346 0.03532 0.0
C136 C 0.25884 0.0445 0.05082 0.0
C137 C 0.26597 0.10881 0.08766 0.0
C138 C 0.28229 0.08749 0.09675 0.0
C139 C 0.26365 0.11113 0.10307 0.0
C140 C 0.25886 0.11727 0.09494 0.0
C141 C 0.27575 0.09641 0.10408 0.0
C142 C 0.27745 0.09365 0.0886 0.0
C143 C 0.26224 0.11691 0.07926 0.0
O144 O 0.26899 0.12607 0.0536 0.0
O145 O 0.2389 0.12372 0.05554 0.0
O146 O 0.24594 0.11345 0.07584 0.0
O147 O 0.27596 0.11645 0.07374 0.0
H148 H 0.24286 0.15333 0.06558 0.0
H149 H 0.24109 0.18614 0.06625 0.0
H150 H 0.25835 0.18915 0.03988 0.0
H151 H 0.25938 0.15631 0.03921 0.0
H152 H 0.25472 0.06962 0.02924 0.0
H153 H 0.25659 0.0868 0.04256 0.0
H154 H 0.2585 0.02012 0.04357 0.0
H155 H 0.26004 0.0374 0.05683 0.0
H156 H 0.29172 0.07619 0.0973 0.0
H157 H 0.25806 0.1181 0.10856 0.0
H158 H 0.24992 0.12894 0.09435 0.0
H159 H 0.28307 0.08689 0.08305 0.0
C160 C 0.11645 0.97742 0.71138 0.0
C161 C 0.10756 0.97424 0.70356 0.0
C162 C 0.07737 0.97939 0.71018 0.0
C163 C 0.08817 0.97519 0.70297 0.0
C164 C 0.08645 0.98267 0.71798 0.0
C165 C 0.10581 0.98169 0.71857 0.0
U166 U 0.16427 0.96971 0.70159 0.0
O167 O 0.191 0.98298 0.70426 0.0
O168 O 0.18795 0.95398 0.70637 0.0
C169 C 0.19849 0.96824 0.70736 0.0
C170 C 0.13676 0.97607 0.71216 0.0
C171 C 0.20719 0.97003 0.71581 0.0
C172 C 0.20471 0.97267 0.73121 0.0
C173 C 0.19628 0.97158 0.72318 0.0
C174 C 0.23503 0.97094 0.72456 0.0
C175 C 0.2242 0.97228 0.732 0.0
C176 C 0.22658 0.9698 0.71654 0.0
C177 C 0.16733 0.9598 0.67747 0.0
C178 C 0.19196 0.96525 0.66715 0.0
C179 C 0.16957 0.94152 0.66466 0.0
C180 C 0.16069 0.94581 0.67231 0.0
C181 C 0.18528 0.95121 0.66197 0.0
C182 C 0.18311 0.96946 0.67485 0.0
C183 C 0.15716 0.96422 0.68537 0.0
O184 O 0.1437 0.95995 0.71084 0.0
O185 O 0.14626 0.98888 0.70839 0.0
O186 O 0.15986 0.9803 0.68865 0.0
O187 O 0.15651 0.95142 0.69114 0.0
H188 H 0.11561 0.97095 0.69794 0.0
H189 H 0.08166 0.97279 0.69685 0.0
H190 H 0.07857 0.98568 0.72369 0.0
H191 H 0.11247 0.98411 0.72466 0.0
H192 H 0.19596 0.97393 0.73679 0.0
H193 H 0.18125 0.97183 0.72273 0.0
H194 H 0.25005 0.97037 0.72493 0.0
H195 H 0.2352 0.96856 0.71091 0.0
H196 H 0.20412 0.97285 0.66529 0.0
H197 H 0.16391 0.9308 0.66077 0.0
H198 H 0.14848 0.93826 0.67417 0.0
H199 H 0.18858 0.9803 0.67872 0.0
C200 C 0.24876 0.85848 0.9649 0.0
C201 C 0.25158 0.84975 0.95708 0.0
C202 C 0.24701 0.82061 0.96386 0.0
C203 C 0.2507 0.831 0.95656 0.0
C204 C 0.24398 0.82949 0.97167 0.0
C205 C 0.24488 0.84826 0.97218 0.0
U206 U 0.25941 0.90303 0.95441 0.0
O207 O 0.24648 0.92977 0.95574 0.0
O208 O 0.27601 0.92604 0.95879 0.0
C209 C 0.26167 0.937 0.9589 0.0
C210 C 0.25043 0.87814 0.96552 0.0
C211 C 0.25933 0.94754 0.96677 0.0
C212 C 0.25711 0.94951 0.98221 0.0
C213 C 0.25848 0.93915 0.97477 0.0
C214 C 0.25704 0.97668 0.9737 0.0
C215 C 0.25654 0.96843 0.98177 0.0
C216 C 0.25844 0.96632 0.96628 0.0
C217 C 0.27301 0.9008 0.93061 0.0
C218 C 0.27667 0.92607 0.92092 0.0
C219 C 0.28815 0.89659 0.91694 0.0
C220 C 0.28183 0.88964 0.92467 0.0
C221 C 0.28574 0.9149 0.91498 0.0
C222 C 0.27041 0.91908 0.92871 0.0
C223 C 0.26691 0.89293 0.93874 0.0
O224 O 0.26741 0.88435 0.96464 0.0
O225 O 0.23806 0.88737 0.96117 0.0
O226 O 0.2501 0.89717 0.94134 0.0
O227 O 0.2793 0.89299 0.94489 0.0
H228 H 0.25459 0.85746 0.95138 0.0
H229 H 0.25284 0.82465 0.95042 0.0
H230 H 0.24134 0.82192 0.97744 0.0
H231 H 0.24275 0.85479 0.97828 0.0
H232 H 0.25694 0.9427 0.98831 0.0
H233 H 0.25915 0.92464 0.97527 0.0
H234 H 0.25631 0.99116 0.9731 0.0
H235 H 0.259 0.97301 0.96015 0.0
H236 H 0.27474 0.94025 0.91962 0.0
H237 H 0.29482 0.88758 0.91246 0.0
H238 H 0.2839 0.87549 0.92603 0.0
H239 H 0.26369 0.92792 0.93325 0.0
C240 C 0.3966 0.03516 0.21069 0.0
C241 C 0.40555 0.03875 0.20293 0.0
C242 C 0.43568 0.033 0.20952 0.0
C243 C 0.42493 0.03771 0.20235 0.0
C244 C 0.42656 0.0293 0.21725 0.0
C245 C 0.4072 0.03038 0.21783 0.0
U246 U 0.34889 0.04306 0.20083 0.0
O247 O 0.32208 0.02988 0.20341 0.0
O248 O 0.32522 0.05887 0.20555 0.0
C249 C 0.31458 0.04465 0.20647 0.0
C250 C 0.3763 0.03658 0.21145 0.0
C251 C 0.30557 0.04292 0.21485 0.0
C252 C 0.30733 0.04109 0.2303 0.0
C253 C 0.31614 0.04212 0.22236 0.0
C254 C 0.27733 0.04136 0.22328 0.0
C255 C 0.2878 0.04082 0.23086 0.0
C256 C 0.28615 0.04242 0.21535 0.0
C257 C 0.34606 0.05297 0.17673 0.0
C258 C 0.3208 0.04826 0.16663 0.0
C259 C 0.34436 0.07066 0.16373 0.0
C260 C 0.35327 0.06632 0.17137 0.0
C261 C 0.32804 0.06167 0.16125 0.0
C262 C 0.32968 0.04399 0.17432 0.0
C263 C 0.35618 0.04853 0.18464 0.0
O264 O 0.36942 0.05272 0.21015 0.0
O265 O 0.36675 0.02381 0.20766 0.0
O266 O 0.35338 0.03246 0.1879 0.0
O267 O 0.35681 0.06133 0.19041 0.0
H268 H 0.39753 0.04242 0.19735 0.0
H269 H 0.43147 0.04044 0.19627 0.0
H270 H 0.4344 0.02589 0.22292 0.0
H271 H 0.40051 0.02762 0.22387 0.0
H272 H 0.31583 0.04089 0.23599 0.0
H273 H 0.33118 0.04251 0.22208 0.0
H274 H 0.2623 0.04088 0.22345 0.0
H275 H 0.27779 0.04296 0.20961 0.0
H276 H 0.30816 0.04121 0.16494 0.0
H277 H 0.35045 0.08088 0.15968 0.0
H278 H 0.36593 0.07335 0.17307 0.0
H279 H 0.32377 0.03368 0.17836 0.0
C280 C 0.26284 0.15292 0.46503 0.0
C281 C 0.26018 0.16178 0.45723 0.0
C282 C 0.26478 0.19079 0.46417 0.0
C283 C 0.26114 0.18055 0.4568 0.0
C284 C 0.26759 0.18176 0.47195 0.0
C285 C 0.2666 0.16299 0.47237 0.0
U286 U 0.25469 0.10789 0.45432 0.0
O287 O 0.26821 0.0816 0.45619 0.0
O288 O 0.23825 0.08451 0.45838 0.0
C289 C 0.25289 0.074 0.45898 0.0
C290 C 0.26139 0.13323 0.46557 0.0
C291 C 0.2546 0.06396 0.46702 0.0
C292 C 0.25774 0.06315 0.48244 0.0
C293 C 0.25667 0.07293 0.47483 0.0
C294 C 0.25491 0.03535 0.47449 0.0
C295 C 0.25679 0.04422 0.48237 0.0
C296 C 0.25381 0.04514 0.46689 0.0
C297 C 0.24501 0.10855 0.43018 0.0
C298 C 0.23668 0.08228 0.42178 0.0
C299 C 0.23902 0.11148 0.41502 0.0
C300 C 0.24384 0.11917 0.42283 0.0
C301 C 0.23528 0.09295 0.41438 0.0
C302 C 0.24152 0.09003 0.42962 0.0
C303 C 0.24939 0.11721 0.43835 0.0
O304 O 0.24472 0.12671 0.46412 0.0
O305 O 0.27459 0.12422 0.46165 0.0
O306 O 0.26587 0.11369 0.44156 0.0
O307 O 0.23606 0.11692 0.44407 0.0
H308 H 0.2573 0.15418 0.45149 0.0
H309 H 0.25915 0.18703 0.45069 0.0
H310 H 0.27018 0.18922 0.47777 0.0
H311 H 0.26863 0.15635 0.47845 0.0
H312 H 0.25942 0.0704 0.48838 0.0
H313 H 0.25736 0.08748 0.47504 0.0
H314 H 0.25388 0.02084 0.47419 0.0
H315 H 0.25216 0.03801 0.46092 0.0
H316 H 0.23408 0.06795 0.42151 0.0
H317 H 0.23778 0.12016 0.40951 0.0
H318 H 0.24641 0.13351 0.42317 0.0
H319 H 0.24239 0.08162 0.43525 0.0
C320 C 0.89845 0.97556 0.71074 0.0
C321 C 0.90743 0.97295 0.7029 0.0
C322 C 0.93754 0.97761 0.70968 0.0
C323 C 0.92681 0.97394 0.70237 0.0
C324 C 0.92839 0.98032 0.71751 0.0
C325 C 0.90902 0.97928 0.71802 0.0
U326 U 0.851 0.96971 0.70041 0.0
O327 O 0.82686 0.95377 0.70448 0.0
O328 O 0.82432 0.98303 0.70314 0.0
C329 C 0.81644 0.96805 0.70572 0.0
C330 C 0.87812 0.97428 0.7114 0.0
C331 C 0.8072 0.96898 0.71407 0.0
C332 C 0.80858 0.97009 0.72954 0.0
C333 C 0.81758 0.96954 0.72164 0.0
C334 C 0.77875 0.96968 0.72238 0.0
C335 C 0.78903 0.97008 0.73001 0.0
C336 C 0.78776 0.96912 0.71448 0.0
C337 C 0.84897 0.96372 0.6761 0.0
C338 C 0.82041 0.95881 0.66815 0.0
C339 C 0.84998 0.95935 0.66078 0.0
C340 C 0.85908 0.96246 0.6685 0.0
C341 C 0.83054 0.95743 0.66049 0.0
C342 C 0.82957 0.96194 0.6759 0.0
C343 C 0.859 0.96658 0.68415 0.0
O344 O 0.86881 0.98769 0.70799 0.0
O345 O 0.87108 0.95846 0.70954 0.0
O346 O 0.85896 0.95293 0.68946 0.0
O347 O 0.85616 0.98213 0.68791 0.0
H348 H 0.89944 0.97012 0.6972 0.0
H349 H 0.93339 0.972 0.69623 0.0
H350 H 0.93621 0.98292 0.72328 0.0
H351 H 0.90229 0.98129 0.72413 0.0
H352 H 0.81694 0.97018 0.73528 0.0
H353 H 0.83263 0.96942 0.72143 0.0
H354 H 0.7637 0.96995 0.72248 0.0
H355 H 0.77954 0.96877 0.7087 0.0
H356 H 0.80542 0.95758 0.66815 0.0
H357 H 0.85826 0.95806 0.65505 0.0
H358 H 0.87409 0.96372 0.66856 0.0
H359 H 0.82155 0.96289 0.68172 0.0
C360 C 0.75024 0.15312 0.46537 0.0
C361 C 0.75338 0.16159 0.45751 0.0
C362 C 0.74796 0.19092 0.464 0.0
C363 C 0.75224 0.18031 0.45683 0.0
C364 C 0.74462 0.18229 0.47184 0.0
C365 C 0.74577 0.16356 0.47251 0.0
U366 U 0.76171 0.10803 0.45546 0.0
O367 O 0.77864 0.08555 0.46028 0.0
O368 O 0.74927 0.08124 0.45708 0.0
C369 C 0.7645 0.0744 0.46041 0.0
C370 C 0.75221 0.13351 0.46619 0.0
C371 C 0.76224 0.06396 0.46833 0.0
C372 C 0.74819 0.05912 0.48224 0.0
C373 C 0.7501 0.06946 0.47483 0.0
C374 C 0.77073 0.03783 0.47678 0.0
C375 C 0.75846 0.04312 0.4833 0.0
C376 C 0.77256 0.04813 0.46938 0.0
C377 C 0.77582 0.10817 0.43169 0.0
C378 C 0.77252 0.08609 0.42031 0.0
C379 C 0.79734 0.10802 0.41975 0.0
C380 C 0.79127 0.11537 0.42745 0.0
C381 C 0.78801 0.09334 0.41606 0.0
C382 C 0.7665 0.0934 0.42807 0.0
C383 C 0.76945 0.11684 0.43965 0.0
O384 O 0.74003 0.1239 0.46191 0.0
O385 O 0.76929 0.12748 0.46543 0.0
O386 O 0.7817 0.11754 0.44586 0.0
O387 O 0.75256 0.11301 0.44228 0.0
H388 H 0.75685 0.15371 0.45192 0.0
H389 H 0.75465 0.18647 0.45067 0.0
H390 H 0.74153 0.19004 0.47751 0.0
H391 H 0.7434 0.15723 0.47863 0.0
H392 H 0.7385 0.06353 0.48708 0.0
H393 H 0.74205 0.0817 0.47416 0.0
H394 H 0.77915 0.02583 0.47742 0.0
H395 H 0.7821 0.04373 0.46446 0.0
H396 H 0.76514 0.07469 0.41767 0.0
H397 H 0.80914 0.1141 0.41659 0.0
H398 H 0.79857 0.12685 0.43008 0.0
H399 H 0.75454 0.08754 0.4312 0.0
C400 C 0.6146 0.03608 0.21053 0.0
C401 C 0.60573 0.03947 0.20273 0.0
C402 C 0.57553 0.03404 0.20927 0.0
C403 C 0.58635 0.03848 0.2021 0.0
C404 C 0.58457 0.03054 0.21706 0.0
C405 C 0.60393 0.03156 0.21767 0.0
U406 U 0.66225 0.04395 0.2007 0.0
O407 O 0.6859 0.05979 0.2054 0.0
O408 O 0.68911 0.03079 0.20327 0.0
C409 C 0.6966 0.04559 0.20631 0.0
C410 C 0.6349 0.03749 0.21133 0.0
C411 C 0.70571 0.04389 0.21467 0.0
C412 C 0.70415 0.04203 0.23012 0.0
C413 C 0.69524 0.04303 0.2222 0.0
C414 C 0.73407 0.0425 0.22305 0.0
C415 C 0.7237 0.04188 0.23065 0.0
C416 C 0.72514 0.04352 0.21514 0.0
C417 C 0.66488 0.05382 0.1766 0.0
C418 C 0.69048 0.04957 0.16666 0.0
C419 C 0.66621 0.07115 0.16349 0.0
C420 C 0.65731 0.06677 0.17112 0.0
C421 C 0.68289 0.06259 0.16116 0.0
C422 C 0.68161 0.04528 0.17434 0.0
C423 C 0.65482 0.04939 0.18452 0.0
O424 O 0.64447 0.02471 0.20755 0.0
O425 O 0.64175 0.05362 0.21003 0.0
O426 O 0.6542 0.0622 0.19028 0.0
O427 O 0.65771 0.03333 0.18778 0.0
H428 H 0.6138 0.04295 0.19714 0.0
H429 H 0.57987 0.04105 0.19599 0.0
H430 H 0.57667 0.02733 0.22273 0.0
H431 H 0.61056 0.02896 0.22375 0.0
H432 H 0.69572 0.04177 0.23584 0.0
H433 H 0.6802 0.04332 0.22194 0.0
H434 H 0.74911 0.04211 0.2232 0.0
H435 H 0.73344 0.04411 0.20939 0.0
H436 H 0.7034 0.04287 0.16508 0.0
H437 H 0.65986 0.08105 0.15935 0.0
H438 H 0.64439 0.07346 0.17272 0.0
H439 H 0.6878 0.03529 0.17849 0.0
C440 C 0.76309 0.85892 0.96452 0.0
C441 C 0.75963 0.85027 0.95673 0.0
C442 C 0.76512 0.82108 0.96334 0.0
C443 C 0.76064 0.83153 0.95614 0.0
C444 C 0.76875 0.82989 0.97112 0.0
C445 C 0.76772 0.84865 0.97169 0.0
U446 U 0.75215 0.90404 0.95446 0.0
O447 O 0.73584 0.9269 0.95924 0.0
O448 O 0.76525 0.93061 0.95602 0.0
C449 C 0.75022 0.93778 0.95937 0.0
C450 C 0.76143 0.87858 0.96525 0.0
C451 C 0.7529 0.94783 0.96736 0.0
C452 C 0.7572 0.94873 0.98272 0.0
C453 C 0.75554 0.9389 0.97514 0.0
C454 C 0.75392 0.97649 0.97479 0.0
C455 C 0.75628 0.96766 0.98265 0.0
C456 C 0.75223 0.96665 0.96722 0.0
C457 C 0.73752 0.90362 0.93074 0.0
C458 C 0.73968 0.9266 0.91974 0.0
C459 C 0.71686 0.90283 0.91849 0.0
C460 C 0.72303 0.8955 0.92618 0.0
C461 C 0.72512 0.91843 0.91516 0.0
C462 C 0.74579 0.9193 0.92749 0.0
C463 C 0.74392 0.89507 0.93871 0.0
O464 O 0.77367 0.8879 0.96088 0.0
O465 O 0.74443 0.88486 0.96452 0.0
O466 O 0.73179 0.89471 0.94497 0.0
O467 O 0.76092 0.89875 0.94127 0.0
H468 H 0.75604 0.85803 0.95112 0.0
H469 H 0.758 0.82523 0.95004 0.0
H470 H 0.77199 0.82228 0.97681 0.0
H471 H 0.77036 0.85512 0.97777 0.0
H472 H 0.75924 0.9415 0.98864 0.0
H473 H 0.75614 0.92435 0.97535 0.0
H474 H 0.7529 0.991 0.97449 0.0
H475 H 0.75013 0.97376 0.96127 0.0
H476 H 0.74622 0.93872 0.91737 0.0
H477 H 0.70581 0.89605 0.91508 0.0
H478 H 0.71654 0.88334 0.92855 0.0
H479 H 0.75698 0.92587 0.9309 0.0
C480 C 0.89726 0.03605 0.30734 0.0
C481 C 0.90612 0.03811 0.31525 0.0
C482 C 0.93636 0.03416 0.3085 0.0
C483 C 0.92551 0.03719 0.31582 0.0
C484 C 0.92733 0.032 0.3006 0.0
C485 C 0.90796 0.03295 0.30003 0.0
U486 U 0.84967 0.04146 0.31756 0.0
O487 O 0.82552 0.05749 0.31353 0.0
O488 O 0.82309 0.02818 0.31465 0.0
C489 C 0.8152 0.04321 0.31212 0.0
C490 C 0.87694 0.03729 0.30662 0.0
C491 C 0.80626 0.04248 0.30369 0.0
C492 C 0.80828 0.04098 0.28824 0.0
C493 C 0.81694 0.04145 0.29623 0.0
C494 C 0.77816 0.04242 0.2951 0.0
C495 C 0.78877 0.04151 0.28758 0.0
C496 C 0.78684 0.04292 0.30308 0.0
C497 C 0.84796 0.04652 0.34207 0.0
C498 C 0.8242 0.0607 0.35083 0.0
C499 C 0.84784 0.0421 0.35741 0.0
C500 C 0.85562 0.03874 0.3494 0.0
C501 C 0.83225 0.05339 0.35824 0.0
C502 C 0.83199 0.05729 0.3428 0.0
C503 C 0.85755 0.04396 0.33386 0.0
O504 O 0.86764 0.02376 0.3099 0.0
O505 O 0.86982 0.05304 0.30858 0.0
O506 O 0.85756 0.05779 0.32865 0.0
O507 O 0.85471 0.02852 0.32999 0.0
H508 H 0.89803 0.04046 0.32097 0.0
H509 H 0.93198 0.0387 0.32202 0.0
H510 H 0.93525 0.0299 0.29481 0.0
H511 H 0.90133 0.03139 0.29387 0.0
H512 H 0.81687 0.04004 0.2826 0.0
H513 H 0.83198 0.04102 0.2966 0.0
H514 H 0.76314 0.04308 0.29482 0.0
H515 H 0.77839 0.04376 0.30878 0.0
H516 H 0.81228 0.06955 0.35124 0.0
H517 H 0.85418 0.03596 0.36295 0.0
H518 H 0.86788 0.03033 0.34897 0.0
H519 H 0.82581 0.06339 0.3372 0.0
C520 C 0.7625 0.15309 0.05279 0.0
C521 C 0.76015 0.16176 0.06066 0.0
C522 C 0.76394 0.19098 0.05384 0.0
C523 C 0.76086 0.18053 0.06118 0.0
C524 C 0.76645 0.18216 0.04598 0.0
C525 C 0.76571 0.16338 0.04546 0.0
U526 U 0.75513 0.10818 0.06354 0.0
O527 O 0.73886 0.08453 0.05969 0.0
O528 O 0.76891 0.08199 0.06177 0.0
C529 C 0.7536 0.07414 0.05912 0.0
C530 C 0.76128 0.13339 0.05219 0.0
C531 C 0.75522 0.06366 0.05119 0.0
C532 C 0.75607 0.06175 0.03572 0.0
C533 C 0.75506 0.07206 0.04318 0.0
C534 C 0.75772 0.03459 0.04421 0.0
C535 C 0.75728 0.04285 0.03614 0.0
C536 C 0.75668 0.0449 0.05165 0.0
C537 C 0.74617 0.10996 0.08786 0.0
C538 C 0.72993 0.08846 0.09685 0.0
C539 C 0.74767 0.1126 0.10328 0.0
C540 C 0.75271 0.1187 0.09519 0.0
C541 C 0.7359 0.09764 0.10422 0.0
C542 C 0.73502 0.09458 0.08874 0.0
C543 C 0.75023 0.11793 0.07948 0.0
O544 O 0.77468 0.12452 0.05604 0.0
O545 O 0.74472 0.12669 0.0537 0.0
O546 O 0.73675 0.11738 0.07382 0.0
O547 O 0.76667 0.11442 0.07623 0.0
H548 H 0.75769 0.154 0.06639 0.0
H549 H 0.75913 0.18683 0.06736 0.0
H550 H 0.76861 0.18978 0.04018 0.0
H551 H 0.76749 0.15689 0.03933 0.0
H552 H 0.75551 0.06856 0.02963 0.0
H553 H 0.75395 0.08656 0.04271 0.0
H554 H 0.75896 0.02013 0.04479 0.0
H555 H 0.75693 0.0382 0.05778 0.0
H556 H 0.72077 0.07697 0.09734 0.0
H557 H 0.75281 0.11978 0.10881 0.0
H558 H 0.76139 0.13054 0.09464 0.0
H559 H 0.72985 0.08761 0.08315 0.0
C560 C 0.61659 0.97789 0.80639 0.0
C561 C 0.60755 0.97606 0.81426 0.0
C562 C 0.57749 0.98018 0.80735 0.0
C563 C 0.58817 0.97717 0.81474 0.0
C564 C 0.5867 0.98211 0.79949 0.0
C565 C 0.60607 0.98096 0.79902 0.0
U566 U 0.66385 0.97184 0.81687 0.0
O567 O 0.68788 0.95555 0.81294 0.0
O568 O 0.69068 0.98481 0.81414 0.0
C569 C 0.69842 0.9697 0.81162 0.0
C570 C 0.63691 0.97641 0.80578 0.0
C571 C 0.70754 0.97039 0.80324 0.0
C572 C 0.70583 0.97178 0.78778 0.0
C573 C 0.69701 0.97132 0.79572 0.0
C574 C 0.73582 0.97054 0.7948 0.0
C575 C 0.72536 0.97136 0.78722 0.0
C576 C 0.72697 0.97004 0.80273 0.0
C577 C 0.66489 0.96656 0.84136 0.0
C578 C 0.68919 0.95311 0.85007 0.0
C579 C 0.66413 0.96965 0.85677 0.0
C580 C 0.65646 0.97321 0.84876 0.0
C581 C 0.68041 0.95928 0.85754 0.0
C582 C 0.68149 0.95672 0.84204 0.0
C583 C 0.65552 0.96932 0.83312 0.0
O584 O 0.6463 0.98981 0.80914 0.0
O585 O 0.64378 0.96057 0.80775 0.0
O586 O 0.65549 0.95552 0.82787 0.0
O587 O 0.65868 0.98474 0.8293 0.0
H588 H 0.6155 0.97373 0.82003 0.0
H589 H 0.58156 0.97585 0.82091 0.0
H590 H 0.57891 0.98418 0.79366 0.0
H591 H 0.61283 0.98235 0.79289 0.0
H592 H 0.69736 0.97265 0.78209 0.0
H593 H 0.68196 0.97168 0.79601 0.0
H594 H 0.75085 0.96997 0.7946 0.0
H595 H 0.7353 0.96929 0.80848 0.0
H596 H 0.70167 0.94499 0.85043 0.0
H597 H 0.6572 0.97491 0.86236 0.0
H598 H 0.64369 0.98091 0.84836 0.0
H599 H 0.68825 0.9515 0.83639 0.0
C600 C 0.74938 0.85949 0.55333 0.0
C601 C 0.75256 0.85027 0.56099 0.0
C602 C 0.7479 0.82156 0.55378 0.0
C603 C 0.75182 0.83147 0.56122 0.0
C604 C 0.7445 0.83095 0.54614 0.0
C605 C 0.74525 0.84975 0.54593 0.0
U606 U 0.7576 0.90406 0.56444 0.0
O607 O 0.77413 0.92756 0.56056 0.0
O608 O 0.74421 0.93046 0.56287 0.0
C609 C 0.75953 0.93814 0.56012 0.0
C610 C 0.75078 0.8792 0.55297 0.0
C611 C 0.75782 0.9487 0.55222 0.0
C612 C 0.74874 0.95155 0.53735 0.0
C613 C 0.75003 0.94128 0.54481 0.0
C614 C 0.7631 0.97669 0.54463 0.0
C615 C 0.75529 0.9694 0.53716 0.0
C616 C 0.76432 0.96644 0.55208 0.0
C617 C 0.76746 0.90253 0.58853 0.0
C618 C 0.77608 0.92852 0.59706 0.0
C619 C 0.77322 0.89924 0.6037 0.0
C620 C 0.76839 0.89176 0.59583 0.0
C621 C 0.77722 0.91771 0.60441 0.0
C622 C 0.77122 0.92099 0.58917 0.0
C623 C 0.76301 0.8941 0.58031 0.0
O624 O 0.73761 0.88804 0.557 0.0
O625 O 0.76746 0.88568 0.55444 0.0
O626 O 0.77629 0.89457 0.57457 0.0
O627 O 0.74651 0.89775 0.57716 0.0
H628 H 0.75583 0.85761 0.56677 0.0
H629 H 0.75473 0.8247 0.56718 0.0
H630 H 0.74117 0.82379 0.54033 0.0
H631 H 0.7427 0.85667 0.53996 0.0
H632 H 0.74247 0.94554 0.53176 0.0
H633 H 0.74496 0.92756 0.5448 0.0
H634 H 0.76859 0.99024 0.5447 0.0
H635 H 0.77048 0.97234 0.55773 0.0
H636 H 0.77888 0.94281 0.59739 0.0
H637 H 0.77426 0.89045 0.60918 0.0
H638 H 0.7656 0.87746 0.59544 0.0
H639 H 0.77053 0.9295 0.58358 0.0
C640 C 0.6164 0.51602 0.80757 0.0
C641 C 0.60747 0.51916 0.81538 0.0
C642 C 0.57734 0.51361 0.80876 0.0
C643 C 0.58809 0.51799 0.81597 0.0
C644 C 0.58645 0.51034 0.80097 0.0
C645 C 0.6058 0.51155 0.80039 0.0
U646 U 0.66411 0.52392 0.81744 0.0
O647 O 0.69104 0.51107 0.81469 0.0
O648 O 0.68759 0.54012 0.81284 0.0
C649 C 0.69839 0.52603 0.81179 0.0
C650 C 0.63668 0.51767 0.8068 0.0
C651 C 0.70754 0.5247 0.80343 0.0
C652 C 0.70611 0.52338 0.78796 0.0
C653 C 0.69713 0.52418 0.79587 0.0
C654 C 0.73596 0.52333 0.79512 0.0
C655 C 0.72566 0.52305 0.78748 0.0
C656 C 0.72697 0.52416 0.80301 0.0
C657 C 0.66737 0.53239 0.84156 0.0
C658 C 0.69379 0.54576 0.84885 0.0
C659 C 0.66872 0.53258 0.85703 0.0
C660 C 0.65958 0.528 0.84947 0.0
C661 C 0.68583 0.5417 0.85682 0.0
C662 C 0.68466 0.54109 0.84128 0.0
C663 C 0.65692 0.52836 0.83372 0.0
O664 O 0.64337 0.53381 0.80827 0.0
O665 O 0.64642 0.50482 0.81043 0.0
O666 O 0.66003 0.51253 0.83027 0.0
O667 O 0.65603 0.54143 0.82809 0.0
H668 H 0.61548 0.52259 0.821 0.0
H669 H 0.58156 0.52038 0.82208 0.0
H670 H 0.57861 0.50719 0.79527 0.0
H671 H 0.61248 0.50914 0.79431 0.0
H672 H 0.69774 0.52338 0.78222 0.0
H673 H 0.68209 0.52459 0.79609 0.0
H674 H 0.751 0.52279 0.79501 0.0
H675 H 0.73522 0.52446 0.80879 0.0
H676 H 0.70705 0.55258 0.84847 0.0
H677 H 0.66209 0.52943 0.86304 0.0
H678 H 0.64623 0.52131 0.8498 0.0
H679 H 0.69096 0.5445 0.83522 0.0
C680 C 0.76155 0.36433 0.0549 0.0
C681 C 0.75904 0.3549 0.06255 0.0
C682 C 0.76388 0.32643 0.05515 0.0
C683 C 0.76019 0.33611 0.06268 0.0
C684 C 0.7665 0.33603 0.04751 0.0
C685 C 0.76534 0.3548 0.0474 0.0
U686 U 0.75348 0.40923 0.06599 0.0
O687 O 0.76701 0.43547 0.06408 0.0
O688 O 0.73701 0.43266 0.06199 0.0
C689 C 0.75166 0.44311 0.06132 0.0
C690 C 0.75998 0.38404 0.05464 0.0
C691 C 0.75327 0.45306 0.05326 0.0
C692 C 0.75487 0.45376 0.03778 0.0
C693 C 0.75391 0.44403 0.04541 0.0
C694 C 0.75482 0.48162 0.04579 0.0
C695 C 0.75521 0.4727 0.03787 0.0
C696 C 0.75384 0.47188 0.0534 0.0
C697 C 0.74422 0.40914 0.0901 0.0
C698 C 0.73728 0.43605 0.09831 0.0
C699 C 0.7376 0.40694 0.10523 0.0
C700 C 0.74215 0.39878 0.09749 0.0
C701 C 0.73503 0.42568 0.10575 0.0
C702 C 0.74184 0.42784 0.09054 0.0
C703 C 0.74843 0.40009 0.08199 0.0
O704 O 0.74331 0.39046 0.05621 0.0
O705 O 0.77324 0.39289 0.05858 0.0
O706 O 0.76487 0.40341 0.07872 0.0
O707 O 0.73501 0.40029 0.07631 0.0
H708 H 0.75615 0.36208 0.06842 0.0
H709 H 0.75832 0.32919 0.06869 0.0
H710 H 0.7691 0.32902 0.04158 0.0
H711 H 0.76724 0.36188 0.04143 0.0
H712 H 0.75495 0.44644 0.03181 0.0
H713 H 0.75347 0.42947 0.04519 0.0
H714 H 0.75537 0.49616 0.04612 0.0
H715 H 0.75344 0.47907 0.05941 0.0
H716 H 0.7356 0.45052 0.09848 0.0
H717 H 0.73569 0.39849 0.11078 0.0
H718 H 0.74385 0.38431 0.09724 0.0
H719 H 0.74341 0.43604 0.08488 0.0
C720 C 0.89709 0.4973 0.30811 0.0
C721 C 0.9059 0.4945 0.31598 0.0
C722 C 0.93615 0.49949 0.3094 0.0
C723 C 0.92527 0.49556 0.31662 0.0
C724 C 0.92716 0.50241 0.30155 0.0
C725 C 0.90781 0.50131 0.30092 0.0
U726 U 0.84945 0.48984 0.31801 0.0
O727 O 0.82261 0.50295 0.31535 0.0
O728 O 0.82573 0.47386 0.31348 0.0
C729 C 0.81506 0.48805 0.31245 0.0
C730 C 0.87679 0.49582 0.30731 0.0
C731 C 0.80586 0.48946 0.3041 0.0
C732 C 0.80722 0.49068 0.28862 0.0
C733 C 0.81623 0.48987 0.29653 0.0
C734 C 0.77741 0.49095 0.29579 0.0
C735 C 0.78768 0.49111 0.28815 0.0
C736 C 0.78643 0.49011 0.30368 0.0
C737 C 0.84701 0.48147 0.34218 0.0
C738 C 0.81855 0.47471 0.34987 0.0
C739 C 0.84793 0.47571 0.3574 0.0
C740 C 0.85703 0.47991 0.3498 0.0
C741 C 0.82858 0.47298 0.35754 0.0
C742 C 0.8277 0.47893 0.34224 0.0
C743 C 0.8571 0.48532 0.33425 0.0
O744 O 0.86995 0.47974 0.30879 0.0
O745 O 0.86719 0.50876 0.31094 0.0
O746 O 0.85399 0.50116 0.33081 0.0
O747 O 0.85747 0.4722 0.32864 0.0
H748 H 0.8978 0.49143 0.32161 0.0
H749 H 0.93171 0.49345 0.32278 0.0
H750 H 0.9351 0.50521 0.29584 0.0
H751 H 0.90121 0.50346 0.29479 0.0
H752 H 0.81557 0.49059 0.28288 0.0
H753 H 0.83128 0.48937 0.29674 0.0
H754 H 0.76238 0.49157 0.29568 0.0
H755 H 0.77822 0.48989 0.30946 0.0
H756 H 0.80362 0.47288 0.34975 0.0
H757 H 0.85616 0.47419 0.36314 0.0
H758 H 0.87196 0.48175 0.34985 0.0
H759 H 0.81975 0.48011 0.3364 0.0
C760 C 0.7512 0.64811 0.55408 0.0
C761 C 0.75456 0.65775 0.56162 0.0
C762 C 0.74954 0.68605 0.5541 0.0
C763 C 0.75372 0.67656 0.56163 0.0
C764 C 0.74596 0.67624 0.5466 0.0
C765 C 0.7468 0.65745 0.5466 0.0
U766 U 0.75917 0.60321 0.56523 0.0
O767 O 0.74543 0.57705 0.56334 0.0
O768 O 0.77541 0.57968 0.56116 0.0
C769 C 0.76067 0.56934 0.56051 0.0
C770 C 0.75259 0.62839 0.55389 0.0
C771 C 0.75885 0.55952 0.55241 0.0
C772 C 0.75712 0.5591 0.53694 0.0
C773 C 0.75826 0.56869 0.5446 0.0
C774 C 0.75685 0.53111 0.54483 0.0
C775 C 0.75652 0.54016 0.53695 0.0
C776 C 0.75802 0.54071 0.55248 0.0
C777 C 0.76903 0.60322 0.58929 0.0
C778 C 0.77588 0.57621 0.59743 0.0
C779 C 0.77623 0.60532 0.60437 0.0
C780 C 0.77152 0.61355 0.59666 0.0
C781 C 0.77855 0.58655 0.60486 0.0
C782 C 0.77115 0.58448 0.5897 0.0
C783 C 0.76467 0.61232 0.58121 0.0
O784 O 0.76924 0.62186 0.5554 0.0
O785 O 0.73935 0.6197 0.55792 0.0
O786 O 0.74812 0.60909 0.57801 0.0
O787 O 0.77794 0.61205 0.57546 0.0
H788 H 0.75802 0.65072 0.56746 0.0
H789 H 0.75674 0.68367 0.5675 0.0
H790 H 0.74241 0.68307 0.54073 0.0
H791 H 0.7441 0.65021 0.54073 0.0
H792 H 0.7571 0.56652 0.531 0.0
H793 H 0.7589 0.58324 0.54444 0.0
H794 H 0.7561 0.51658 0.54509 0.0
H795 H 0.75838 0.53342 0.55845 0.0
H796 H 0.77736 0.56172 0.59759 0.0
H797 H 0.77848 0.61375 0.60991 0.0
H798 H 0.77002 0.62804 0.59644 0.0
H799 H 0.76926 0.5763 0.58405 0.0
C800 C 0.61596 0.49753 0.21061 0.0
C801 C 0.60694 0.49404 0.20285 0.0
C802 C 0.57689 0.50001 0.20945 0.0
C803 C 0.58757 0.49524 0.20227 0.0
C804 C 0.58609 0.50363 0.21718 0.0
C805 C 0.60544 0.50238 0.21775 0.0
U806 U 0.66359 0.48975 0.20067 0.0
O807 O 0.69043 0.5028 0.20332 0.0
O808 O 0.68728 0.47376 0.20526 0.0
C809 C 0.69793 0.48795 0.20629 0.0
C810 C 0.63626 0.49595 0.21136 0.0
C811 C 0.70685 0.48949 0.2147 0.0
C812 C 0.70483 0.49214 0.23012 0.0
C813 C 0.69617 0.49112 0.22214 0.0
C814 C 0.73495 0.49014 0.22329 0.0
C815 C 0.72434 0.4916 0.2308 0.0
C816 C 0.72627 0.48908 0.21532 0.0
C817 C 0.66596 0.48122 0.17648 0.0
C818 C 0.69419 0.47362 0.16877 0.0
C819 C 0.66497 0.47629 0.16119 0.0
C820 C 0.65598 0.4805 0.16883 0.0
C821 C 0.68418 0.47273 0.16106 0.0
C822 C 0.68515 0.47785 0.17643 0.0
C823 C 0.65595 0.48513 0.18443 0.0
O824 O 0.64304 0.47983 0.20989 0.0
O825 O 0.64588 0.50881 0.20769 0.0
O826 O 0.65907 0.50098 0.18785 0.0
O827 O 0.6556 0.47204 0.19006 0.0
H828 H 0.6149 0.49033 0.19725 0.0
H829 H 0.58097 0.49257 0.1962 0.0
H830 H 0.5783 0.50709 0.22286 0.0
H831 H 0.61219 0.50508 0.22379 0.0
H832 H 0.69624 0.49349 0.23575 0.0
H833 H 0.68114 0.49153 0.22177 0.0
H834 H 0.74997 0.48945 0.22358 0.0
H835 H 0.73472 0.48778 0.20964 0.0
H836 H 0.70902 0.47113 0.16889 0.0
H837 H 0.65675 0.47544 0.15542 0.0
H838 H 0.64114 0.48298 0.16877 0.0
H839 H 0.69307 0.47839 0.1823 0.0
C840 C 0.75007 0.3642 0.46333 0.0
C841 C 0.75326 0.35495 0.45567 0.0
C842 C 0.74753 0.32633 0.46279 0.0
C843 C 0.75202 0.33617 0.4554 0.0
C844 C 0.7442 0.33575 0.47042 0.0
C845 C 0.74547 0.35451 0.47068 0.0
U846 U 0.75873 0.40948 0.4527 0.0
O847 O 0.74536 0.43575 0.45482 0.0
O848 O 0.77529 0.43257 0.45703 0.0
C849 C 0.76069 0.4431 0.45776 0.0
C850 C 0.75177 0.38387 0.46376 0.0
C851 C 0.75895 0.45248 0.46598 0.0
C852 C 0.75588 0.45193 0.48141 0.0
C853 C 0.75698 0.44283 0.47361 0.0
C854 C 0.75845 0.48041 0.47401 0.0
C855 C 0.75668 0.47085 0.48171 0.0
C856 C 0.75959 0.47129 0.46623 0.0
C857 C 0.76853 0.41023 0.42862 0.0
C858 C 0.77585 0.43733 0.42064 0.0
C859 C 0.77546 0.40844 0.4135 0.0
C860 C 0.77068 0.40008 0.42116 0.0
C861 C 0.77818 0.42716 0.41313 0.0
C862 C 0.77106 0.42892 0.42833 0.0
C863 C 0.76407 0.40095 0.43663 0.0
O864 O 0.76852 0.39021 0.46233 0.0
O865 O 0.73867 0.39299 0.45983 0.0
O866 O 0.74758 0.40432 0.43986 0.0
O867 O 0.77736 0.40082 0.44238 0.0
H868 H 0.75679 0.36225 0.44992 0.0
H869 H 0.75446 0.32937 0.4494 0.0
H870 H 0.74096 0.32861 0.47625 0.0
H871 H 0.74301 0.36145 0.47665 0.0
H872 H 0.75429 0.44416 0.4872 0.0
H873 H 0.7564 0.42827 0.47353 0.0
H874 H 0.75935 0.49495 0.47401 0.0
H875 H 0.76115 0.47894 0.46039 0.0
H876 H 0.77765 0.45178 0.42058 0.0
H877 H 0.77744 0.40013 0.4079 0.0
H878 H 0.76887 0.38562 0.42129 0.0
H879 H 0.76943 0.43696 0.43404 0.0
C880 C 0.8975 0.51681 0.7101 0.0
C881 C 0.90639 0.5197 0.70226 0.0
C882 C 0.9366 0.51482 0.70894 0.0
C883 C 0.92578 0.51872 0.70169 0.0
C884 C 0.92753 0.51181 0.71676 0.0
C885 C 0.90816 0.51281 0.71733 0.0
U886 U 0.84981 0.52411 0.70013 0.0
O887 O 0.82308 0.51087 0.70277 0.0
O888 O 0.82599 0.53995 0.70468 0.0
C889 C 0.81546 0.52569 0.70572 0.0
C890 C 0.87719 0.5182 0.71085 0.0
C891 C 0.80652 0.52415 0.71412 0.0
C892 C 0.80854 0.52166 0.72954 0.0
C893 C 0.81721 0.52265 0.72157 0.0
C894 C 0.77842 0.52343 0.72267 0.0
C895 C 0.78902 0.52211 0.73019 0.0
C896 C 0.78711 0.52445 0.71471 0.0
C897 C 0.84728 0.5326 0.67597 0.0
C898 C 0.81883 0.53969 0.6683 0.0
C899 C 0.8481 0.53801 0.66072 0.0
C900 C 0.85722 0.53381 0.66832 0.0
C901 C 0.8288 0.54108 0.6606 0.0
C902 C 0.828 0.53547 0.67593 0.0
C903 C 0.8574 0.52876 0.6839 0.0
O904 O 0.87026 0.53426 0.70937 0.0
O905 O 0.8677 0.50524 0.70718 0.0
O906 O 0.85441 0.51289 0.68731 0.0
O907 O 0.85768 0.54185 0.68953 0.0
H908 H 0.89833 0.52276 0.69661 0.0
H909 H 0.93228 0.5209 0.69555 0.0
H910 H 0.93541 0.50903 0.72249 0.0
H911 H 0.90151 0.51061 0.72343 0.0
H912 H 0.81712 0.52042 0.73518 0.0
H913 H 0.83224 0.52233 0.72121 0.0
H914 H 0.76339 0.52404 0.72294 0.0
H915 H 0.77865 0.52565 0.70902 0.0
H916 H 0.80394 0.54178 0.66843 0.0
H917 H 0.85628 0.53926 0.65496 0.0
H918 H 0.87212 0.53172 0.66825 0.0
H919 H 0.82011 0.53456 0.68179 0.0
C920 C 0.76283 0.6478 0.96363 0.0
C921 C 0.75955 0.65684 0.95593 0.0
C922 C 0.76542 0.68565 0.96286 0.0
C923 C 0.76081 0.67561 0.95554 0.0
C924 C 0.76886 0.67644 0.97054 0.0
C925 C 0.76756 0.65769 0.97091 0.0
U926 U 0.75415 0.60226 0.95325 0.0
O927 O 0.76739 0.576 0.95555 0.0
O928 O 0.73745 0.57933 0.95765 0.0
C929 C 0.75199 0.56875 0.95845 0.0
C930 C 0.76106 0.62815 0.96419 0.0
C931 C 0.75361 0.55936 0.96667 0.0
C932 C 0.7562 0.55978 0.98212 0.0
C933 C 0.75507 0.56895 0.97434 0.0
C934 C 0.75467 0.53134 0.9746 0.0
C935 C 0.75596 0.54084 0.98235 0.0
C936 C 0.75349 0.54053 0.96685 0.0
C937 C 0.74486 0.6008 0.92904 0.0
C938 C 0.72661 0.57946 0.92078 0.0
C939 C 0.74907 0.59854 0.91371 0.0
C940 C 0.75379 0.60625 0.92154 0.0
C941 C 0.73519 0.58525 0.91319 0.0
C942 C 0.73143 0.58713 0.92863 0.0
C943 C 0.74918 0.61018 0.9371 0.0
O944 O 0.7443 0.62183 0.96274 0.0
O945 O 0.77418 0.61886 0.96037 0.0
O946 O 0.76564 0.60696 0.94041 0.0
O947 O 0.73583 0.6108 0.94281 0.0
H948 H 0.75592 0.64938 0.95023 0.0
H949 H 0.7583 0.68224 0.94951 0.0
H950 H 0.7722 0.68374 0.97632 0.0
H951 H 0.77009 0.65092 0.97692 0.0
H952 H 0.75741 0.56751 0.98794 0.0
H953 H 0.75526 0.58352 0.97431 0.0
H954 H 0.75419 0.51679 0.97454 0.0
H955 H 0.75234 0.53292 0.96098 0.0
H956 H 0.71576 0.5694 0.92063 0.0
H957 H 0.75624 0.60309 0.90804 0.0
H958 H 0.76425 0.61672 0.92173 0.0
H959 H 0.72437 0.58263 0.93434 0.0
C960 C 0.39801 0.49703 0.21089 0.0
C961 C 0.40672 0.49348 0.20307 0.0
C962 C 0.43703 0.49948 0.20943 0.0
C963 C 0.42607 0.49469 0.20234 0.0
C964 C 0.42814 0.5032 0.21722 0.0
C965 C 0.40881 0.50197 0.21794 0.0
U966 U 0.35037 0.48671 0.20153 0.0
O967 O 0.32753 0.47042 0.20674 0.0
O968 O 0.32307 0.49902 0.20396 0.0
C969 C 0.31629 0.48428 0.20739 0.0
C970 C 0.37779 0.49513 0.21183 0.0
C971 C 0.30715 0.48641 0.21572 0.0
C972 C 0.30672 0.49773 0.23027 0.0
C973 C 0.31555 0.49615 0.22235 0.0
C974 C 0.2811 0.47972 0.22503 0.0
C975 C 0.28937 0.4895 0.23172 0.0
C976 C 0.2899 0.47823 0.21712 0.0
C977 C 0.34749 0.47421 0.17764 0.0
C978 C 0.32336 0.47828 0.16691 0.0
C979 C 0.34552 0.45394 0.16551 0.0
C980 C 0.35415 0.45934 0.17307 0.0
C981 C 0.33006 0.46337 0.16232 0.0
C982 C 0.33195 0.48363 0.17452 0.0
C983 C 0.3575 0.47986 0.18543 0.0
O984 O 0.36768 0.5072 0.20782 0.0
O985 O 0.37144 0.47868 0.21094 0.0
O986 O 0.35883 0.4677 0.19148 0.0
O987 O 0.35411 0.49613 0.18835 0.0
H988 H 0.39856 0.48967 0.19755 0.0
H989 H 0.43242 0.49195 0.19622 0.0
H990 H 0.43614 0.50667 0.22283 0.0
H991 H 0.4023 0.50467 0.22403 0.0
H992 H 0.31342 0.50552 0.23523 0.0
H993 H 0.32893 0.50251 0.2214 0.0
H994 H 0.26795 0.47293 0.22594 0.0
H995 H 0.28328 0.47054 0.2121 0.0
H996 H 0.31138 0.48573 0.16466 0.0
H997 H 0.35121 0.44256 0.16208 0.0
H998 H 0.3662 0.45196 0.1753 0.0
H999 H 0.32648 0.49515 0.17792 0.0
C1000 C 0.25047 0.64729 0.96337 0.0
C1001 C 0.25317 0.65663 0.9557 0.0
C1002 C 0.24776 0.68516 0.96296 0.0
C1003 C 0.25184 0.6754 0.9555 0.0
C1004 C 0.24492 0.67566 0.97061 0.0
C1005 C 0.24628 0.6569 0.9708 0.0
U1006 U 0.25936 0.60242 0.95243 0.0
O1007 O 0.27612 0.57925 0.95653 0.0
O1008 O 0.2462 0.576 0.95434 0.0
C1009 C 0.26162 0.5686 0.95716 0.0
C1010 C 0.25229 0.62762 0.96371 0.0
C1011 C 0.26005 0.55868 0.96524 0.0
C1012 C 0.25838 0.55807 0.98071 0.0
C1013 C 0.25927 0.56776 0.97307 0.0
C1014 C 0.25875 0.53016 0.97274 0.0
C1015 C 0.25824 0.53912 0.98065 0.0
C1016 C 0.25966 0.53986 0.96512 0.0
C1017 C 0.26906 0.60253 0.92835 0.0
C1018 C 0.2761 0.57564 0.92015 0.0
C1019 C 0.27638 0.60483 0.91329 0.0
C1020 C 0.27157 0.61295 0.92101 0.0
C1021 C 0.27878 0.58607 0.91275 0.0
C1022 C 0.27128 0.58381 0.92789 0.0
C1023 C 0.26457 0.61154 0.93643 0.0
O1024 O 0.23923 0.61854 0.95973 0.0
O1025 O 0.26908 0.62139 0.96222 0.0
O1026 O 0.27788 0.61155 0.94217 0.0
O1027 O 0.24812 0.60799 0.93965 0.0
H1028 H 0.25638 0.64939 0.94989 0.0
H1029 H 0.25387 0.68225 0.94948 0.0
H1030 H 0.24201 0.68274 0.97649 0.0
H1031 H 0.24421 0.64989 0.97678 0.0
H1032 H 0.25821 0.56542 0.98667 0.0
H1033 H 0.25956 0.58232 0.97328 0.0
H1034 H 0.25835 0.51562 0.97243 0.0
H1035 H 0.26017 0.53264 0.95912 0.0
H1036 H 0.27764 0.56116 0.91995 0.0
H1037 H 0.27863 0.61332 0.90778 0.0
H1038 H 0.27 0.62743 0.92128 0.0
H1039 H 0.26938 0.57557 0.93351 0.0
C1040 C 0.11554 0.51695 0.71055 0.0
C1041 C 0.10655 0.51993 0.70274 0.0
C1042 C 0.07647 0.51451 0.70941 0.0
C1043 C 0.08718 0.51874 0.70217 0.0
C1044 C 0.08564 0.51142 0.71721 0.0
C1045 C 0.105 0.51264 0.71776 0.0
U1046 U 0.16301 0.52469 0.70052 0.0
O1047 O 0.18674 0.54069 0.70503 0.0
O1048 O 0.18993 0.51164 0.70307 0.0
C1049 C 0.19746 0.52651 0.706 0.0
C1050 C 0.13584 0.51851 0.71128 0.0
C1051 C 0.20668 0.525 0.71434 0.0
C1052 C 0.20532 0.52334 0.72981 0.0
C1053 C 0.19631 0.52432 0.72191 0.0
C1054 C 0.23514 0.52349 0.72265 0.0
C1055 C 0.22487 0.52302 0.73029 0.0
C1056 C 0.22611 0.52449 0.71476 0.0
C1057 C 0.16513 0.53328 0.67636 0.0
C1058 C 0.19345 0.5404 0.66863 0.0
C1059 C 0.16406 0.53885 0.66112 0.0
C1060 C 0.15507 0.53458 0.66874 0.0
C1061 C 0.18336 0.54188 0.66096 0.0
C1062 C 0.1844 0.53612 0.67627 0.0
C1063 C 0.15515 0.52934 0.68431 0.0
O1064 O 0.14544 0.50564 0.70759 0.0
O1065 O 0.14259 0.53463 0.70981 0.0
O1066 O 0.15482 0.54241 0.68994 0.0
O1067 O 0.15834 0.51348 0.6877 0.0
H1068 H 0.11452 0.52322 0.6971 0.0
H1069 H 0.0806 0.52099 0.69606 0.0
H1070 H 0.07784 0.50839 0.72293 0.0
H1071 H 0.11173 0.51035 0.72385 0.0
H1072 H 0.19697 0.52321 0.73555 0.0
H1073 H 0.18126 0.52471 0.7217 0.0
H1074 H 0.25018 0.52297 0.72276 0.0
H1075 H 0.23433 0.52492 0.70898 0.0
H1076 H 0.20834 0.54248 0.66873 0.0
H1077 H 0.15579 0.54016 0.65539 0.0
H1078 H 0.14016 0.53251 0.66871 0.0
H1079 H 0.19239 0.53514 0.68211 0.0
C1080 C 0.261 0.3641 0.46395 0.0
C1081 C 0.25846 0.35508 0.45618 0.0
C1082 C 0.26321 0.32622 0.46324 0.0
C1083 C 0.25955 0.3363 0.45583 0.0
C1084 C 0.26587 0.33541 0.47099 0.0
C1085 C 0.26476 0.35418 0.47134 0.0
U1086 U 0.25262 0.40938 0.45335 0.0
O1087 O 0.23619 0.43264 0.45762 0.0
O1088 O 0.26613 0.43559 0.45541 0.0
C1089 C 0.25084 0.44308 0.45831 0.0
C1090 C 0.25943 0.38379 0.46445 0.0
C1091 C 0.25264 0.45268 0.46647 0.0
C1092 C 0.25543 0.4526 0.48191 0.0
C1093 C 0.25426 0.44326 0.47418 0.0
C1094 C 0.25361 0.48087 0.47429 0.0
C1095 C 0.25504 0.47154 0.48207 0.0
C1096 C 0.2524 0.47151 0.46657 0.0
C1097 C 0.24278 0.4099 0.42926 0.0
C1098 C 0.23548 0.43692 0.42121 0.0
C1099 C 0.23589 0.40794 0.41414 0.0
C1100 C 0.24065 0.39967 0.42183 0.0
C1101 C 0.23316 0.42667 0.41372 0.0
C1102 C 0.24025 0.42859 0.42892 0.0
C1103 C 0.2472 0.40071 0.4373 0.0
O1104 O 0.27259 0.39283 0.46053 0.0
O1105 O 0.24272 0.39026 0.46302 0.0
O1106 O 0.23392 0.40074 0.44304 0.0
O1107 O 0.26371 0.404 0.44053 0.0
H1108 H 0.25557 0.36256 0.45041 0.0
H1109 H 0.25766 0.32969 0.44973 0.0
H1110 H 0.26845 0.32809 0.47684 0.0
H1111 H 0.26669 0.36094 0.4774 0.0
H1112 H 0.25675 0.445 0.48777 0.0
H1113 H 0.25453 0.42869 0.47421 0.0
H1114 H 0.25302 0.49542 0.47417 0.0
H1115 H 0.25111 0.47899 0.46067 0.0
H1116 H 0.23367 0.45137 0.4211 0.0
H1117 H 0.23392 0.39958 0.40856 0.0
H1118 H 0.24247 0.3852 0.422 0.0
H1119 H 0.24186 0.4367 0.43461 0.0
C1120 C 0.39842 0.51707 0.80762 0.0
C1121 C 0.40723 0.52 0.81548 0.0
C1122 C 0.43748 0.5148 0.80892 0.0
C1123 C 0.4266 0.51889 0.81612 0.0
C1124 C 0.42849 0.51175 0.80108 0.0
C1125 C 0.40914 0.51289 0.80044 0.0
U1126 U 0.35065 0.52457 0.81743 0.0
O1127 O 0.32697 0.54056 0.81282 0.0
O1128 O 0.32387 0.51149 0.81467 0.0
C1129 C 0.31637 0.52636 0.81172 0.0
C1130 C 0.37813 0.51858 0.8068 0.0
C1131 C 0.30753 0.52492 0.80329 0.0
C1132 C 0.30972 0.52241 0.78788 0.0
C1133 C 0.3183 0.52331 0.79588 0.0
C1134 C 0.27953 0.52449 0.79463 0.0
C1135 C 0.29022 0.52306 0.78715 0.0
C1136 C 0.28813 0.52542 0.80263 0.0
C1137 C 0.3479 0.53287 0.84161 0.0
C1138 C 0.31943 0.53996 0.84924 0.0
C1139 C 0.34866 0.53814 0.85688 0.0
C1140 C 0.35781 0.53399 0.84928 0.0
C1141 C 0.32936 0.54125 0.85697 0.0
C1142 C 0.32864 0.53579 0.84162 0.0
C1143 C 0.35807 0.52905 0.83369 0.0
O1144 O 0.36851 0.50564 0.8104 0.0
O1145 O 0.37127 0.53466 0.80828 0.0
O1146 O 0.35847 0.54219 0.8281 0.0
O1147 O 0.35502 0.51322 0.83023 0.0
H1148 H 0.39912 0.52319 0.8211 0.0
H1149 H 0.43304 0.5211 0.82228 0.0
H1150 H 0.43643 0.50883 0.79538 0.0
H1151 H 0.40256 0.51065 0.79432 0.0
H1152 H 0.31837 0.52108 0.78226 0.0
H1153 H 0.33332 0.52284 0.79629 0.0
H1154 H 0.26452 0.52526 0.79431 0.0
H1155 H 0.27961 0.52671 0.80829 0.0
H1156 H 0.30455 0.54209 0.84909 0.0
H1157 H 0.35681 0.53932 0.86266 0.0
H1158 H 0.37271 0.53186 0.84937 0.0
H1159 H 0.32078 0.53495 0.83574 0.0
C1160 C 0.26038 0.64909 0.55458 0.0
C1161 C 0.25783 0.65842 0.56226 0.0
C1162 C 0.26277 0.68698 0.55497 0.0
C1163 C 0.259 0.67721 0.56246 0.0
C1164 C 0.26543 0.67748 0.5473 0.0
C1165 C 0.26424 0.65871 0.54712 0.0
U1166 U 0.25208 0.60415 0.56552 0.0
O1167 O 0.23562 0.58079 0.56144 0.0
O1168 O 0.26559 0.57786 0.56362 0.0
C1169 C 0.25026 0.57029 0.56081 0.0
C1170 C 0.25879 0.62939 0.55425 0.0
C1171 C 0.25195 0.56029 0.55275 0.0
C1172 C 0.25348 0.55946 0.53728 0.0
C1173 C 0.25247 0.56926 0.54489 0.0
C1174 C 0.25374 0.53167 0.54533 0.0
C1175 C 0.25399 0.54052 0.5374 0.0
C1176 C 0.25271 0.54148 0.55293 0.0
C1177 C 0.24245 0.60412 0.5896 0.0
C1178 C 0.23558 0.57713 0.59773 0.0
C1179 C 0.23537 0.60622 0.60469 0.0
C1180 C 0.24006 0.61444 0.59698 0.0
C1181 C 0.233 0.58746 0.60517 0.0
C1182 C 0.24027 0.5854 0.59001 0.0
C1183 C 0.2468 0.61322 0.58153 0.0
O1184 O 0.27197 0.62045 0.55821 0.0
O1185 O 0.24209 0.62301 0.55575 0.0
O1186 O 0.23347 0.6131 0.5758 0.0
O1187 O 0.26329 0.60986 0.5783 0.0
H1188 H 0.25487 0.65117 0.5681 0.0
H1189 H 0.25711 0.68405 0.56849 0.0
H1190 H 0.2681 0.68456 0.5414 0.0
H1191 H 0.26618 0.65171 0.54112 0.0
H1192 H 0.25345 0.56672 0.5313 0.0
H1193 H 0.25189 0.58381 0.54465 0.0
H1194 H 0.25443 0.51715 0.54568 0.0
H1195 H 0.25241 0.53434 0.55895 0.0
H1196 H 0.23405 0.56265 0.59789 0.0
H1197 H 0.2332 0.61465 0.61024 0.0
H1198 H 0.2416 0.62893 0.59676 0.0
H1199 H 0.24209 0.57722 0.58435 0.0
C1200 C 0.11511 0.49794 0.30838 0.0
C1201 C 0.10606 0.49495 0.31618 0.0
C1202 C 0.07603 0.50047 0.30945 0.0
C1203 C 0.08669 0.49619 0.3167 0.0
C1204 C 0.08525 0.50361 0.30168 0.0
C1205 C 0.10461 0.50234 0.30116 0.0
U1206 U 0.16253 0.48951 0.31842 0.0
O1207 O 0.18598 0.47314 0.31381 0.0
O1208 O 0.18963 0.50209 0.31594 0.0
C1209 C 0.19688 0.48717 0.31289 0.0
C1210 C 0.13539 0.49616 0.30767 0.0
C1211 C 0.20611 0.48866 0.30455 0.0
C1212 C 0.20673 0.49912 0.28986 0.0
C1213 C 0.19781 0.49803 0.29777 0.0
C1214 C 0.23226 0.48134 0.29538 0.0
C1215 C 0.22408 0.49076 0.28855 0.0
C1216 C 0.22337 0.48034 0.30329 0.0
C1217 C 0.16466 0.48071 0.34256 0.0
C1218 C 0.19304 0.47381 0.35032 0.0
C1219 C 0.16358 0.47479 0.35777 0.0
C1220 C 0.15456 0.47908 0.35015 0.0
C1221 C 0.18293 0.47205 0.35796 0.0
C1222 C 0.18397 0.47812 0.34268 0.0
C1223 C 0.15468 0.48481 0.33462 0.0
O1224 O 0.14514 0.50887 0.3114 0.0
O1225 O 0.14195 0.47995 0.30911 0.0
O1226 O 0.15418 0.47179 0.32896 0.0
O1227 O 0.15803 0.50066 0.33125 0.0
H1228 H 0.114 0.49158 0.32183 0.0
H1229 H 0.08007 0.4939 0.32281 0.0
H1230 H 0.07749 0.50668 0.29595 0.0
H1231 H 0.11138 0.50463 0.29509 0.0
H1232 H 0.2001 0.50667 0.2848 0.0
H1233 H 0.18443 0.5045 0.29861 0.0
H1234 H 0.24541 0.47446 0.29459 0.0
H1235 H 0.22992 0.47293 0.30843 0.0
H1236 H 0.20797 0.47197 0.35025 0.0
H1237 H 0.15529 0.47324 0.36348 0.0
H1238 H 0.13963 0.48096 0.35016 0.0
H1239 H 0.19198 0.47935 0.33686 0.0
C1240 C 0.25275 0.36389 0.05431 0.0
C1241 C 0.26414 0.35366 0.05973 0.0
C1242 C 0.25021 0.32593 0.05442 0.0
C1243 C 0.26295 0.33488 0.05976 0.0
C1244 C 0.23856 0.33631 0.04913 0.0
C1245 C 0.23987 0.35508 0.04907 0.0
U1246 U 0.26082 0.40935 0.06504 0.0
O1247 O 0.27708 0.43271 0.06081 0.0
O1248 O 0.24709 0.43546 0.06294 0.0
C1249 C 0.26234 0.44304 0.06006 0.0
C1250 C 0.25421 0.38367 0.05397 0.0
C1251 C 0.26053 0.4525 0.05187 0.0
C1252 C 0.25789 0.45216 0.03642 0.0
C1253 C 0.25912 0.44295 0.04418 0.0
C1254 C 0.25923 0.48056 0.04397 0.0
C1255 C 0.25801 0.4711 0.03621 0.0
C1256 C 0.26049 0.47134 0.05172 0.0
C1257 C 0.27021 0.40952 0.0893 0.0
C1258 C 0.28663 0.43181 0.09781 0.0
C1259 C 0.26806 0.40896 0.10475 0.0
C1260 C 0.26322 0.4019 0.0968 0.0
C1261 C 0.28011 0.4238 0.10537 0.0
C1262 C 0.28172 0.42473 0.08984 0.0
C1263 C 0.26603 0.40074 0.0811 0.0
O1264 O 0.24094 0.39261 0.05786 0.0
O1265 O 0.27085 0.39038 0.05534 0.0
O1266 O 0.2794 0.40078 0.07539 0.0
O1267 O 0.24953 0.40396 0.07785 0.0
H1268 H 0.27413 0.36017 0.06388 0.0
H1269 H 0.2723 0.32739 0.06384 0.0
H1270 H 0.22834 0.32996 0.04506 0.0
H1271 H 0.23085 0.36273 0.04489 0.0
H1272 H 0.25674 0.44445 0.03059 0.0
H1273 H 0.25905 0.42838 0.04419 0.0
H1274 H 0.25959 0.49512 0.04405 0.0
H1275 H 0.26161 0.47892 0.05759 0.0
H1276 H 0.29602 0.44317 0.09805 0.0
H1277 H 0.26248 0.40268 0.11042 0.0
H1278 H 0.25424 0.39022 0.09652 0.0
H1279 H 0.28724 0.43088 0.08412 0.0
H1280 H 0.29773 0.0216 0.24516 0.0
H1281 H 0.21258 0.05779 0.27331 0.0
H1282 H 0.2563 0.05881 0.23589 0.0
H1283 H 0.25525 0.02253 0.28307 0.0
H1284 H 0.22792 0.05751 0.25943 0.0
H1285 H 0.28213 0.02127 0.259 0.0
C1286 C 0.28541 0.02977 0.24603 0.0
C1287 C 0.27835 0.04025 0.23931 0.0
C1288 C 0.23393 0.04982 0.2646 0.0
C1289 C 0.26027 0.03977 0.25516 0.0
C1290 C 0.22511 0.04987 0.27253 0.0
C1291 C 0.2326 0.04016 0.27939 0.0
C1292 C 0.25041 0.03994 0.26349 0.0
C1293 C 0.24907 0.0304 0.27801 0.0
C1294 C 0.27644 0.02949 0.25393 0.0
C1295 C 0.26214 0.05032 0.24081 0.0
N1296 N 0.2574 0.03053 0.27022 0.0
N1297 N 0.25369 0.04984 0.24856 0.0
H1298 H 0.24004 0.05223 0.49764 0.0
H1299 H 0.27546 0.96289 0.52124 0.0
H1300 H 0.27476 0.01227 0.4856 0.0
H1301 H 0.23918 1.00214 0.53284 0.0
H1302 H 0.27589 0.98097 0.50822 0.0
H1303 H 0.24049 0.03451 0.51074 0.0
C1304 C 0.2479 0.03981 0.49776 0.0
C1305 C 0.25737 0.03376 0.49047 0.0
C1306 C 0.26786 0.98563 0.51362 0.0
C1307 C 0.25775 0.01322 0.50548 0.0
C1308 C 0.26751 0.97525 0.52105 0.0
C1309 C 0.25727 0.98096 0.52818 0.0
C1310 C 0.25788 1.00187 0.51329 0.0
C1311 C 0.24749 0.99729 0.52757 0.0
C1312 C 0.24804 0.02962 0.50524 0.0
C1313 C 0.26705 0.01737 0.491 0.0
N1314 N 0.24803 0.00712 0.52028 0.0
N1315 N 0.26698 0.00769 0.49836 0.0
H1316 H 0.21339 0.95522 0.7467 0.0
H1317 H 0.29829 0.99263 0.77466 0.0
H1318 H 0.25563 0.99069 0.73681 0.0
H1319 H 0.25767 0.95487 0.78406 0.0
H1320 H 0.28241 0.99279 0.76088 0.0
H1321 H 0.22872 0.95594 0.76059 0.0
C1322 C 0.22581 0.96329 0.74746 0.0
C1323 C 0.23321 0.97291 0.74055 0.0
C1324 C 0.27696 0.98449 0.76596 0.0
C1325 C 0.251 0.97363 0.75646 0.0
C1326 C 0.28609 0.98431 0.77383 0.0
C1327 C 0.27936 0.97369 0.78056 0.0
C1328 C 0.26094 0.97398 0.76478 0.0
C1329 C 0.26326 0.96344 0.77912 0.0
C1330 C 0.23463 0.96359 0.75539 0.0
C1331 C 0.24953 0.98288 0.74191 0.0
N1332 N 0.25465 0.96382 0.7714 0.0
N1333 N 0.25786 0.98298 0.7497 0.0
H1334 H 0.27392 0.05081 0.02015 0.0
H1335 H 0.23682 0.96215 0.99651 0.0
H1336 H 0.23773 0.01198 0.03204 0.0
H1337 H 0.27474 1.00011 0.98512 0.0
H1338 H 0.23633 0.9805 0.00946 0.0
H1339 H 0.27337 0.03295 1.00708 0.0
C1340 C 0.26573 0.03861 0.02 0.0
C1341 C 0.25587 0.03291 0.02724 0.0
C1342 C 0.24473 0.98483 1.00412 0.0
C1343 C 0.25537 0.01221 0.01227 0.0
C1344 C 0.2451 0.97429 0.99673 0.0
C1345 C 0.25583 0.97955 0.98968 0.0
C1346 C 0.25518 1.00076 1.00449 0.0
C1347 C 0.26604 0.99561 0.99032 0.0
C1348 C 0.26552 0.02833 0.01254 0.0
C1349 C 0.24575 0.01679 0.02668 0.0
N1350 N 0.26548 1.00559 0.99758 0.0
N1351 N 0.24577 0.00703 0.01934 0.0
H1352 H 0.75692 0.9897 0.78259 0.0
H1353 H 0.75772 0.95157 0.73479 0.0
H1354 H 0.71535 0.95361 0.77256 0.0
H1355 H 0.79833 0.98909 0.74446 0.0
H1356 H 0.74204 0.95221 0.74857 0.0
H1357 H 0.77244 0.98949 0.76873 0.0
C1358 C 0.75109 0.98166 0.77749 0.0
C1359 C 0.73479 0.97163 0.77877 0.0
C1360 C 0.75437 0.96032 0.74769 0.0
C1361 C 0.75245 0.97145 0.76283 0.0
C1362 C 0.76329 0.96005 0.73978 0.0
C1363 C 0.77939 0.97032 0.73842 0.0
C1364 C 0.76156 0.97094 0.75432 0.0
C1365 C 0.78612 0.98077 0.74522 0.0
C1366 C 0.75991 0.98163 0.76955 0.0
C1367 C 0.72774 0.96172 0.77186 0.0
N1368 N 0.77717 0.98082 0.75286 0.0
N1369 N 0.73662 0.96185 0.76421 0.0
H1370 H 0.74743 1.00545 0.53549 0.0
H1371 H 0.75839 1.00626 0.48468 0.0
H1372 H 0.76089 0.95836 0.52061 0.0
H1373 H 0.75413 0.05448 0.49991 0.0
H1374 H 0.75672 0.98829 0.49767 0.0
H1375 H 0.74724 0.02334 0.52243 0.0
C1376 C 0.75041 0.99885 0.52949 0.0
C1377 C 0.75429 0.98033 0.52919 0.0
C1378 C 0.75612 1.0028 0.49817 0.0
C1379 C 0.75384 1.00078 0.51416 0.0
C1380 C 0.75718 0.01311 0.49075 0.0
C1381 C 0.75656 0.03199 0.49117 0.0
C1382 C 0.75435 0.01135 0.50611 0.0
C1383 C 0.75451 0.04 0.49923 0.0
C1384 C 0.7502 0.00908 0.52202 0.0
C1385 C 0.75762 0.97252 0.52118 0.0
N1386 N 0.75353 0.02966 0.50637 0.0
N1387 N 0.75737 0.98278 0.514 0.0
H1388 H 0.79927 0.05917 0.27299 0.0
H1389 H 0.71411 0.02255 0.24495 0.0
H1390 H 0.75713 0.02344 0.28276 0.0
H1391 H 0.75508 0.06007 0.23564 0.0
H1392 H 0.7299 0.02225 0.25875 0.0
H1393 H 0.78375 0.0589 0.25914 0.0
C1394 C 0.78682 0.05116 0.27222 0.0
C1395 C 0.77953 0.04131 0.27907 0.0
C1396 C 0.73544 0.03053 0.25369 0.0
C1397 C 0.76151 0.0411 0.26321 0.0
C1398 C 0.72637 0.03079 0.24581 0.0
C1399 C 0.73325 0.04135 0.23909 0.0
C1400 C 0.75154 0.04092 0.25489 0.0
C1401 C 0.74939 0.05152 0.24057 0.0
C1402 C 0.77789 0.05111 0.26431 0.0
C1403 C 0.76315 0.03142 0.2777 0.0
N1404 N 0.75795 0.05106 0.24829 0.0
N1405 N 0.75472 0.03156 0.26993 0.0
H1406 H 0.77572 0.04974 0.02111 0.0
H1407 H 0.74029 0.95975 0.99808 0.0
H1408 H 0.73997 0.01059 0.03306 0.0
H1409 H 0.77434 0.99964 0.98566 0.0
H1410 H 0.74112 0.97766 0.01113 0.0
H1411 H 0.77605 0.03133 1.00819 0.0
C1412 C 0.76787 0.03733 0.02102 0.0
C1413 C 0.7578 0.03175 0.02822 0.0
C1414 C 0.74844 0.9825 1.00556 0.0
C1415 C 0.75829 0.01046 0.01344 0.0
C1416 C 0.74809 0.97219 0.99811 0.0
C1417 C 0.75724 0.97817 0.99073 0.0
C1418 C 0.75804 0.99895 1.00567 0.0
C1419 C 0.76687 0.99459 0.99115 0.0
C1420 C 0.76816 0.02676 0.01365 0.0
C1421 C 0.74815 0.01536 0.02774 0.0
N1422 N 0.767 1.00439 0.99847 0.0
N1423 N 0.74862 1.00534 0.02049 0.0
H1424 H 0.7573 0.54108 0.78275 0.0
H1425 H 0.75736 0.50386 0.73479 0.0
H1426 H 0.71605 0.50431 0.77299 0.0
H1427 H 0.79948 0.53915 0.74497 0.0
H1428 H 0.74197 0.50385 0.74868 0.0
H1429 H 0.77298 0.54033 0.76897 0.0
C1430 C 0.75158 0.53273 0.77773 0.0
C1431 C 0.73531 0.5227 0.77907 0.0
C1432 C 0.7546 0.51157 0.74788 0.0
C1433 C 0.75315 0.52198 0.76317 0.0
C1434 C 0.76335 0.51166 0.73993 0.0
C1435 C 0.77975 0.52155 0.73868 0.0
C1436 C 0.76223 0.52149 0.75466 0.0
C1437 C 0.78701 0.53115 0.74564 0.0
C1438 C 0.76051 0.5324 0.76984 0.0
C1439 C 0.72841 0.51243 0.77224 0.0
N1440 N 0.77818 0.53092 0.7533 0.0
N1441 N 0.73736 0.51233 0.7646 0.0
H1442 H 0.77523 0.50995 0.98619 0.0
H1443 H 0.7366 0.50392 0.03401 0.0
H1444 H 0.73836 0.54922 0.99737 0.0
H1445 H 0.77475 0.46533 0.02319 0.0
H1446 H 0.73743 0.52084 0.02069 0.0
H1447 H 0.77539 0.49349 0.99968 0.0
C1448 C 0.76712 0.5151 0.99147 0.0
C1449 C 0.75672 0.531 0.99061 0.0
C1450 C 0.74565 0.50869 0.02123 0.0
C1451 C 0.75695 0.51224 1.00613 0.0
C1452 C 0.74528 0.49905 0.02886 0.0
C1453 C 0.75566 0.48315 0.02976 0.0
C1454 C 0.75647 0.50243 0.01439 0.0
C1455 C 0.76634 0.47737 0.02278 0.0
C1456 C 0.76729 0.50573 0.99919 0.0
C1457 C 0.74674 0.53716 0.99774 0.0
N1458 N 0.76647 0.487 0.0154 0.0
N1459 N 0.74706 0.52775 1.00517 0.0
H1460 H 0.7559 0.47323 0.28344 0.0
H1461 H 0.7561 0.50975 0.23538 0.0
H1462 H 0.79735 0.50965 0.27362 0.0
H1463 H 0.71376 0.47483 0.24561 0.0
H1464 H 0.77146 0.50989 0.24929 0.0
H1465 H 0.74022 0.47388 0.26965 0.0
C1466 C 0.76166 0.48148 0.27841 0.0
C1467 C 0.778 0.49144 0.27974 0.0
C1468 C 0.75879 0.50222 0.2485 0.0
C1469 C 0.76015 0.49204 0.26382 0.0
C1470 C 0.75005 0.50206 0.24054 0.0
C1471 C 0.7336 0.49223 0.2393 0.0
C1472 C 0.75109 0.49245 0.25529 0.0
C1473 C 0.72628 0.48277 0.24628 0.0
C1474 C 0.75273 0.48176 0.27051 0.0
C1475 C 0.78494 0.50158 0.27289 0.0
N1476 N 0.73509 0.48307 0.25395 0.0
N1477 N 0.77599 0.50162 0.26524 0.0
H1478 H 0.77371 0.46167 0.49676 0.0
H1479 H 0.737 0.54809 0.52232 0.0
H1480 H 0.73836 0.50227 0.48561 0.0
H1481 H 0.7746 0.50874 0.53292 0.0
H1482 H 0.7366 0.53115 0.50895 0.0
H1483 H 0.77312 0.47814 0.51023 0.0
C1484 C 0.76569 0.47397 0.49716 0.0
C1485 C 0.75607 0.48057 0.49002 0.0
C1486 C 0.74492 0.52621 0.51421 0.0
C1487 C 0.75552 0.49967 0.50545 0.0
C1488 C 0.74524 0.53594 0.52184 0.0
C1489 C 0.75586 0.52988 0.52879 0.0
C1490 C 0.7553 0.51027 0.51349 0.0
C1491 C 0.766 0.51384 0.5278 0.0
C1492 C 0.76546 0.48345 0.50485 0.0
C1493 C 0.74618 0.49677 0.4909 0.0
N1494 N 0.76548 0.50464 0.52032 0.0
N1495 N 0.74616 0.50575 0.49846 0.0
H1496 H 0.30528 0.48885 0.24769 0.0
H1497 H 0.20828 0.48937 0.27258 0.0
H1498 H 0.25205 0.49317 0.23513 0.0
H1499 H 0.26146 0.49405 0.28516 0.0
H1500 H 0.22406 0.49019 0.25882 0.0
H1501 H 0.28955 0.49023 0.26146 0.0
C1502 C 0.29031 0.49025 0.2478 0.0
C1503 C 0.28002 0.49084 0.24019 0.0
C1504 C 0.23228 0.49109 0.26459 0.0
C1505 C 0.26184 0.49212 0.25601 0.0
C1506 C 0.22326 0.49073 0.27247 0.0
C1507 C 0.23351 0.49162 0.28009 0.0
C1508 C 0.25175 0.49226 0.26428 0.0
C1509 C 0.25295 0.49302 0.27949 0.0
C1510 C 0.28131 0.49093 0.25569 0.0
C1511 C 0.26058 0.49234 0.2408 0.0
N1512 N 0.26142 0.49325 0.27174 0.0
N1513 N 0.25215 0.49287 0.24855 0.0
H1514 H 0.27717 0.50812 0.98456 0.0
H1515 H 0.23856 0.5019 0.03237 0.0
H1516 H 0.23861 0.54638 0.99532 0.0
H1517 H 0.27571 0.46287 0.0212 0.0
H1518 H 0.2383 0.51835 0.01888 0.0
H1519 H 0.2765 0.49126 0.99789 0.0
C1520 C 0.26844 0.51293 0.9897 0.0
C1521 C 0.25789 0.52872 0.98877 0.0
C1522 C 0.24648 0.50617 0.01938 0.0
C1523 C 0.25726 0.50951 1.00417 0.0
C1524 C 0.24671 0.4968 0.0271 0.0
C1525 C 0.25721 0.48096 0.02795 0.0
C1526 C 0.25686 0.49972 0.01244 0.0
C1527 C 0.26725 0.47488 0.02083 0.0
C1528 C 0.26815 0.50333 0.99734 0.0
C1529 C 0.24714 0.53443 0.99575 0.0
N1530 N 0.26687 0.48428 0.0134 0.0
N1531 N 0.24711 0.52484 1.00314 0.0
H1532 H 0.21525 0.50392 0.74465 0.0
H1533 H 0.30109 0.53998 0.77242 0.0
H1534 H 0.25657 0.54087 0.73515 0.0
H1535 H 0.2584 0.50516 0.78243 0.0
H1536 H 0.28556 0.5395 0.75857 0.0
H1537 H 0.23119 0.50358 0.75841 0.0
C1538 C 0.22762 0.51203 0.74545 0.0
C1539 C 0.23453 0.52245 0.7387 0.0
C1540 C 0.27959 0.53194 0.76379 0.0
C1541 C 0.25301 0.52196 0.75446 0.0
C1542 C 0.28853 0.53211 0.7717 0.0
C1543 C 0.28106 0.5226 0.77863 0.0
C1544 C 0.26304 0.52217 0.76276 0.0
C1545 C 0.26455 0.51289 0.77731 0.0
C1546 C 0.23678 0.51175 0.75331 0.0
C1547 C 0.25083 0.53244 0.74011 0.0
N1548 N 0.25612 0.51292 0.76955 0.0
N1549 N 0.25947 0.53195 0.74782 0.0
H1550 H 0.27402 0.50265 0.48578 0.0
H1551 H 0.23562 0.50916 0.53363 0.0
H1552 H 0.23759 0.46332 0.49713 0.0
H1553 H 0.27334 0.54785 0.52266 0.0
H1554 H 0.23652 0.49207 0.52035 0.0
H1555 H 0.27408 0.51935 0.49921 0.0
C1556 C 0.26599 0.49754 0.49108 0.0
C1557 C 0.25574 0.48154 0.4903 0.0
C1558 C 0.24463 0.50428 0.52085 0.0
C1559 C 0.25587 0.50058 0.50575 0.0
C1560 C 0.24421 0.51402 0.52846 0.0
C1561 C 0.25446 0.52999 0.52931 0.0
C1562 C 0.25534 0.51052 0.51398 0.0
C1563 C 0.26504 0.53575 0.52229 0.0
C1564 C 0.26611 0.50705 0.49877 0.0
C1565 C 0.24586 0.47545 0.49745 0.0
N1566 N 0.2652 0.52603 0.51494 0.0
N1567 N 0.24612 0.48499 0.50485 0.0
H1568 H 0.2085 0.06734 0.41146 0.0
H1569 H 0.2133 0.07653 0.36068 0.0
H1570 H 0.24841 0.10061 0.39834 0.0
H1571 H 0.17594 0.04052 0.37376 0.0
H1572 H 0.22743 0.08432 0.37436 0.0
H1573 H 0.19752 0.05616 0.39771 0.0
C1574 C 0.21513 0.07215 0.4057 0.0
C1575 C 0.22935 0.08505 0.40609 0.0
C1576 C 0.21621 0.07464 0.37424 0.0
C1577 C 0.2166 0.07247 0.39027 0.0
C1578 C 0.20819 0.07009 0.36641 0.0
C1579 C 0.19329 0.05792 0.36605 0.0
C1580 C 0.20928 0.06701 0.38179 0.0
C1581 C 0.18714 0.05022 0.37373 0.0
C1582 C 0.20876 0.06583 0.39784 0.0
C1583 C 0.23719 0.09093 0.39837 0.0
N1584 N 0.19509 0.05496 0.38127 0.0
N1585 N 0.23066 0.08468 0.3908 0.0
H1586 H 0.22831 0.89462 0.61807 0.0
H1587 H 0.19833 0.97425 0.64965 0.0
H1588 H 0.23031 0.95066 0.61099 0.0
H1589 H 0.19305 0.91782 0.65553 0.0
H1590 H 0.21197 0.96624 0.63584 0.0
H1591 H 0.21728 0.90323 0.63216 0.0
C1592 C 0.22662 0.90878 0.6195 0.0
C1593 C 0.23034 0.92193 0.61331 0.0
C1594 C 0.20787 0.95562 0.64017 0.0
C1595 C 0.21736 0.93192 0.62949 0.0
C1596 C 0.20019 0.96018 0.64807 0.0
C1597 C 0.19443 0.94668 0.65374 0.0
C1598 C 0.2099 0.93742 0.63794 0.0
C1599 C 0.19701 0.92868 0.65132 0.0
C1600 C 0.22017 0.91368 0.62755 0.0
C1601 C 0.22747 0.94005 0.61552 0.0
N1602 N 0.20451 0.92459 0.64361 0.0
N1603 N 0.22115 0.94451 0.62342 0.0
H1604 H 0.26889 0.93855 0.90389 0.0
H1605 H 0.35355 0.93624 0.87073 0.0
H1606 H 0.3192 0.90785 0.90746 0.0
H1607 H 0.30186 0.96359 0.8655 0.0
H1608 H 0.34141 0.92703 0.88453 0.0
H1609 H 0.28098 0.94929 0.89018 0.0
C1610 C 0.28251 0.93417 0.90182 0.0
C1611 C 0.293 0.92218 0.90681 0.0
C1612 C 0.33268 0.93506 0.88038 0.0
C1613 C 0.30685 0.93433 0.89114 0.0
C1614 C 0.33966 0.94044 0.87251 0.0
C1615 C 0.32876 0.95082 0.86695 0.0
C1616 C 0.31461 0.94008 0.88279 0.0
C1617 C 0.31071 0.9555 0.86955 0.0
C1618 C 0.28935 0.94021 0.89398 0.0
C1619 C 0.3105 0.91684 0.90377 0.0
N1620 N 0.3042 0.95013 0.8773 0.0
N1621 N 0.31684 0.92293 0.89616 0.0
H1622 H 0.28563 0.11847 0.11728 0.0
H1623 H 0.31328 0.03878 0.14925 0.0
H1624 H 0.28104 0.06234 0.1106 0.0
H1625 H 0.32179 0.09511 0.15455 0.0
H1626 H 0.29945 0.04687 0.13549 0.0
H1627 H 0.29691 0.10989 0.13134 0.0
C1628 C 0.28681 0.10431 0.1188 0.0
C1629 C 0.28227 0.09111 0.11274 0.0
C1630 C 0.30431 0.05745 0.13968 0.0
C1631 C 0.29554 0.08114 0.12887 0.0
C1632 C 0.3121 0.05285 0.14756 0.0
C1633 C 0.3188 0.06628 0.15305 0.0
C1634 C 0.30312 0.07563 0.1373 0.0
C1635 C 0.31707 0.08429 0.15048 0.0
C1636 C 0.2934 0.09941 0.12683 0.0
C1637 C 0.2845 0.07297 0.11504 0.0
N1638 N 0.30944 0.08841 0.1428 0.0
N1639 N 0.29097 0.06852 0.12292 0.0
H1640 H 0.76366 0.91003 0.62037 0.0
H1641 H 0.83799 0.97164 0.6447 0.0
H1642 H 0.80437 0.94285 0.60752 0.0
H1643 H 0.80145 0.93435 0.65745 0.0
H1644 H 0.82378 0.96346 0.6311 0.0
H1645 H 0.77525 0.92101 0.63405 0.0
C1646 C 0.77503 0.91955 0.62041 0.0
C1647 C 0.78314 0.92539 0.61275 0.0
C1648 C 0.8188 0.95712 0.63688 0.0
C1649 C 0.79639 0.93816 0.62844 0.0
C1650 C 0.82698 0.96172 0.64465 0.0
C1651 C 0.82104 0.95356 0.65225 0.0
C1652 C 0.80455 0.94425 0.63666 0.0
C1653 C 0.80641 0.9411 0.65178 0.0
C1654 C 0.78159 0.92588 0.62824 0.0
C1655 C 0.79758 0.93805 0.61323 0.0
N1656 N 0.79876 0.93675 0.64413 0.0
N1657 N 0.8038 0.94392 0.62093 0.0
H1658 H 0.82372 0.08691 0.4109 0.0
H1659 H 0.79586 0.05705 0.36347 0.0
H1660 H 0.7669 0.08283 0.40231 0.0
H1661 H 0.85227 0.06085 0.37266 0.0
H1662 H 0.78472 0.06573 0.37765 0.0
H1663 H 0.83419 0.0764 0.39698 0.0
C1664 C 0.81344 0.08382 0.40607 0.0
C1665 C 0.7944 0.08588 0.40776 0.0
C1666 C 0.79953 0.06457 0.37656 0.0
C1667 C 0.80632 0.07372 0.39176 0.0
C1668 C 0.8059 0.05972 0.36846 0.0
C1669 C 0.82505 0.05816 0.36686 0.0
C1670 C 0.81239 0.06798 0.38312 0.0
C1671 C 0.8374 0.06158 0.37361 0.0
C1672 C 0.81942 0.07774 0.39812 0.0
C1673 C 0.7817 0.08133 0.40131 0.0
N1674 N 0.83086 0.06636 0.3814 0.0
N1675 N 0.78789 0.07557 0.39357 0.0
H1676 H 0.72479 0.11966 0.11723 0.0
H1677 H 0.69871 0.03987 0.14937 0.0
H1678 H 0.73132 0.06355 0.11082 0.0
H1679 H 0.68815 0.09604 0.15432 0.0
H1680 H 0.71263 0.04806 0.13565 0.0
H1681 H 0.71326 0.11103 0.13122 0.0
C1682 C 0.72397 0.1055 0.11879 0.0
C1683 C 0.72914 0.09232 0.11282 0.0
C1684 C 0.7073 0.05858 0.13975 0.0
C1685 C 0.7156 0.08229 0.12889 0.0
C1686 C 0.69946 0.05393 0.1476 0.0
C1687 C 0.69216 0.06728 0.15298 0.0
C1688 C 0.70794 0.07673 0.13728 0.0
C1689 C 0.69334 0.08527 0.15033 0.0
C1690 C 0.71724 0.10057 0.12678 0.0
C1691 C 0.72736 0.07417 0.11518 0.0
N1692 N 0.70104 0.08944 0.14268 0.0
N1693 N 0.72075 0.06969 0.12303 0.0
H1694 H 0.68927 0.92243 0.90965 0.0
H1695 H 0.71678 0.95763 0.86305 0.0
H1696 H 0.74596 0.93151 0.90184 0.0
H1697 H 0.66044 0.94931 0.8716 0.0
H1698 H 0.72796 0.94869 0.8772 0.0
H1699 H 0.67864 0.93306 0.89578 0.0
C1700 C 0.6995 0.92665 0.90501 0.0
C1701 C 0.71855 0.92595 0.9069 0.0
C1702 C 0.71315 0.94891 0.87598 0.0
C1703 C 0.70645 0.93826 0.89095 0.0
C1704 C 0.70676 0.95391 0.86789 0.0
C1705 C 0.68762 0.95429 0.86612 0.0
C1706 C 0.70032 0.94415 0.88234 0.0
C1707 C 0.67529 0.94952 0.87268 0.0
C1708 C 0.69342 0.9328 0.89709 0.0
C1709 C 0.73114 0.93192 0.90068 0.0
N1710 N 0.68185 0.94463 0.88046 0.0
N1711 N 0.72488 0.93773 0.89296 0.0
H1712 H 0.70276 0.57393 0.86022 0.0
H1713 H 0.7252 0.55054 0.90904 0.0
H1714 H 0.68938 0.52298 0.87185 0.0
H1715 H 0.73141 0.60342 0.89805 0.0
H1716 H 0.71432 0.53942 0.89524 0.0
H1717 H 0.71606 0.58399 0.87373 0.0
C1718 C 0.70279 0.56477 0.86559 0.0
C1719 C 0.69489 0.54758 0.86489 0.0
C1720 C 0.71813 0.55344 0.89585 0.0
C1721 C 0.70992 0.55913 0.88045 0.0
C1722 C 0.72426 0.55984 0.90375 0.0
C1723 C 0.72924 0.57799 0.90476 0.0
C1724 C 0.71698 0.56524 0.88888 0.0
C1725 C 0.72802 0.58928 0.89759 0.0
C1726 C 0.71027 0.57058 0.87333 0.0
C1727 C 0.6951 0.53642 0.87212 0.0
N1728 N 0.722 0.58274 0.88999 0.0
N1729 N 0.70246 0.54239 0.87959 0.0
H1730 H 0.74738 0.41762 0.12189 0.0
H1731 H 0.67838 0.48666 0.14505 0.0
H1732 H 0.71002 0.45308 0.10842 0.0
H1733 H 0.71117 0.4471 0.15846 0.0
H1734 H 0.69203 0.47652 0.13164 0.0
H1735 H 0.73648 0.43022 0.13537 0.0
C1736 C 0.73688 0.42805 0.12175 0.0
C1737 C 0.72951 0.43417 0.11398 0.0
C1738 C 0.69631 0.4701 0.13752 0.0
C1739 C 0.71707 0.44881 0.12944 0.0
C1740 C 0.68845 0.47583 0.14519 0.0
C1741 C 0.69348 0.46763 0.15292 0.0
C1742 C 0.70934 0.45604 0.13754 0.0
C1743 C 0.70694 0.45393 0.15269 0.0
C1744 C 0.73072 0.4353 0.12946 0.0
C1745 C 0.71622 0.44801 0.11423 0.0
N1746 N 0.7143 0.44851 0.14513 0.0
N1747 N 0.71037 0.45478 0.12182 0.0
H1748 H 0.80347 0.4544 0.41078 0.0
H1749 H 0.80046 0.44846 0.35985 0.0
H1750 H 0.76615 0.41968 0.39688 0.0
H1751 H 0.83519 0.48566 0.37373 0.0
H1752 H 0.78659 0.43886 0.3733 0.0
H1753 H 0.81411 0.46709 0.39729 0.0
C1754 C 0.79734 0.44957 0.40491 0.0
C1755 C 0.78395 0.43584 0.40499 0.0
C1756 C 0.79718 0.44919 0.37341 0.0
C1757 C 0.79632 0.45018 0.38946 0.0
C1758 C 0.80504 0.45478 0.36571 0.0
C1759 C 0.81913 0.46783 0.36563 0.0
C1760 C 0.80346 0.45666 0.38112 0.0
C1761 C 0.82463 0.47532 0.37347 0.0
C1762 C 0.80352 0.45676 0.39719 0.0
C1763 C 0.77673 0.43 0.39714 0.0
N1764 N 0.81686 0.46957 0.38088 0.0
N1765 N 0.78306 0.43712 0.38971 0.0
H1766 H 0.80329 0.55884 0.60732 0.0
H1767 H 0.80112 0.56609 0.65822 0.0
H1768 H 0.76698 0.59478 0.6211 0.0
H1769 H 0.83495 0.52791 0.64447 0.0
H1770 H 0.78727 0.57568 0.64475 0.0
H1771 H 0.81386 0.54627 0.62086 0.0
C1772 C 0.79736 0.56397 0.61318 0.0
C1773 C 0.78428 0.57799 0.61304 0.0
C1774 C 0.79765 0.56513 0.64468 0.0
C1775 C 0.79657 0.5638 0.62863 0.0
C1776 C 0.8055 0.55956 0.65239 0.0
C1777 C 0.81934 0.54623 0.6525 0.0
C1778 C 0.80369 0.55736 0.63699 0.0
C1779 C 0.82459 0.53846 0.6447 0.0
C1780 C 0.8035 0.55684 0.62093 0.0
C1781 C 0.77732 0.58422 0.62088 0.0
N1782 N 0.81684 0.54419 0.63727 0.0
N1783 N 0.78361 0.57715 0.62834 0.0
H1784 H 0.2853 0.45871 0.11083 0.0
H1785 H 0.32227 0.42915 0.15697 0.0
H1786 H 0.28959 0.40366 0.11933 0.0
H1787 H 0.31773 0.48456 0.1491 0.0
H1788 H 0.30941 0.41981 0.14328 0.0
H1789 H 0.29647 0.4687 0.12481 0.0
C1790 C 0.2886 0.44872 0.11562 0.0
C1791 C 0.28643 0.4303 0.11388 0.0
C1792 C 0.31116 0.43403 0.14454 0.0
C1793 C 0.29912 0.44166 0.12992 0.0
C1794 C 0.31859 0.43936 0.15235 0.0
C1795 C 0.32121 0.45767 0.15418 0.0
C1796 C 0.30634 0.44705 0.13844 0.0
C1797 C 0.31584 0.47031 0.14799 0.0
C1798 C 0.29488 0.45444 0.12362 0.0
C1799 C 0.29074 0.418 0.12039 0.0
N1800 N 0.30876 0.46477 0.14038 0.0
N1801 N 0.29689 0.42389 0.12808 0.0
H1802 H 0.30361 0.55845 0.91026 0.0
H1803 H 0.30171 0.56628 0.85937 0.0
H1804 H 0.26726 0.59445 0.89651 0.0
H1805 H 0.33541 0.52789 0.87307 0.0
H1806 H 0.28779 0.57572 0.87285 0.0
H1807 H 0.31427 0.54606 0.89669 0.0
C1808 C 0.2977 0.56363 0.9044 0.0
C1809 C 0.28457 0.57762 0.90456 0.0
C1810 C 0.29816 0.56516 0.87291 0.0
C1811 C 0.29697 0.56362 0.88895 0.0
C1812 C 0.30604 0.55967 0.86519 0.0
C1813 C 0.31987 0.54633 0.86506 0.0
C1814 C 0.30414 0.55729 0.88058 0.0
C1815 C 0.32507 0.53845 0.87285 0.0
C1816 C 0.30389 0.5566 0.89664 0.0
C1817 C 0.27764 0.58391 0.89672 0.0
N1818 N 0.31728 0.54411 0.88028 0.0
N1819 N 0.28398 0.57694 0.88926 0.0
H1820 H 0.21101 0.56685 0.65856 0.0
H1821 H 0.20821 0.55986 0.60765 0.0
H1822 H 0.17695 0.52885 0.64482 0.0
H1823 H 0.24476 0.59559 0.6214 0.0
H1824 H 0.19775 0.54728 0.6212 0.0
H1825 H 0.22469 0.57648 0.64506 0.0
C1826 C 0.20655 0.56037 0.65272 0.0
C1827 C 0.19269 0.54708 0.65285 0.0
C1828 C 0.20813 0.55781 0.62125 0.0
C1829 C 0.20814 0.55826 0.63732 0.0
C1830 C 0.21421 0.56494 0.6135 0.0
C1831 C 0.22733 0.57891 0.61336 0.0
C1832 C 0.21517 0.56471 0.62895 0.0
C1833 C 0.23438 0.58508 0.62119 0.0
C1834 C 0.21429 0.56597 0.645 0.0
C1835 C 0.18732 0.53937 0.64504 0.0
N1836 N 0.22816 0.57801 0.62865 0.0
N1837 N 0.19497 0.54513 0.63761 0.0
H1838 H 0.20784 0.45389 0.41128 0.0
H1839 H 0.21106 0.44752 0.36036 0.0
H1840 H 0.24524 0.419 0.3975 0.0
H1841 H 0.17615 0.48477 0.37412 0.0
H1842 H 0.22487 0.43799 0.37385 0.0
H1843 H 0.19721 0.46644 0.39774 0.0
C1844 C 0.21399 0.44899 0.40542 0.0
C1845 C 0.2274 0.43526 0.40555 0.0
C1846 C 0.21426 0.44832 0.37392 0.0
C1847 C 0.21505 0.44943 0.38998 0.0
C1848 C 0.20643 0.45386 0.3662 0.0
C1849 C 0.19231 0.46691 0.36608 0.0
C1850 C 0.20792 0.45584 0.38161 0.0
C1851 C 0.18674 0.47443 0.37389 0.0
C1852 C 0.20782 0.4561 0.39768 0.0
C1853 C 0.23464 0.42932 0.39772 0.0
N1854 N 0.19448 0.46874 0.38133 0.0
N1855 N 0.22831 0.43637 0.39027 0.0
H1856 H 0.05282 0.00975 0.30033 0.0
H1857 H 0.95962 0.0555 0.31802 0.0
H1858 H 0.05247 0.05476 0.31771 0.0
H1859 H 0.96023 0.01122 0.30022 0.0
H1860 H 0.99356 0.05458 0.31852 0.0
H1861 H 0.0189 0.00942 0.30063 0.0
C1862 C 0.04562 0.01961 0.30419 0.0
C1863 C 0.05557 0.03237 0.30896 0.0
C1864 C 0.98627 0.04504 0.31452 0.0
C1865 C 0.01661 0.03196 0.3094 0.0
C1866 C 0.96687 0.04548 0.31427 0.0
C1867 C 0.95701 0.03345 0.30905 0.0
C1868 C 0.99596 0.03246 0.30952 0.0
C1869 C 0.96722 0.02094 0.30424 0.0
C1870 C 0.02623 0.01935 0.3044 0.0
C1871 C 0.04543 0.04457 0.31399 0.0
N1872 N 0.98609 0.02079 0.30458 0.0
N1873 N 0.02654 0.04411 0.31404 0.0
H1874 H 0.24051 0.80028 0.56349 0.0
H1875 H 0.2871 0.70912 0.5465 0.0
H1876 H 0.28639 0.7989 0.54579 0.0
H1877 H 0.24043 0.71056 0.56376 0.0
H1878 H 0.2876 0.74197 0.54646 0.0
H1879 H 0.24101 0.76747 0.56407 0.0
C1880 C 0.25079 0.7931 0.55977 0.0
C1881 C 0.26342 0.80243 0.55458 0.0
C1882 C 0.27727 0.73511 0.55027 0.0
C1883 C 0.26393 0.76472 0.55514 0.0
C1884 C 0.27691 0.71633 0.55026 0.0
C1885 C 0.26365 0.707 0.55511 0.0
C1886 C 0.26426 0.74472 0.55515 0.0
C1887 C 0.25103 0.71712 0.55999 0.0
C1888 C 0.25099 0.77433 0.56007 0.0
C1889 C 0.27622 0.79232 0.5498 0.0
N1890 N 0.25161 0.7354 0.55986 0.0
N1891 N 0.27614 0.77405 0.55019 0.0
H1892 H 0.46109 0.95904 0.81766 0.0
H1893 H 0.554 1.00317 0.79888 0.0
H1894 H 0.46133 1.0027 0.79954 0.0
H1895 H 0.55385 0.95922 0.81684 0.0
H1896 H 0.52007 1.00372 0.79934 0.0
H1897 H 0.49503 0.95964 0.81786 0.0
C1898 C 0.46826 0.96886 0.81377 0.0
C1899 C 0.45828 0.98082 0.80856 0.0
C1900 C 0.52745 0.99398 0.8032 0.0
C1901 C 0.49725 0.98143 0.80869 0.0
C1902 C 0.54684 0.99359 0.8029 0.0
C1903 C 0.55684 0.98108 0.8078 0.0
C1904 C 0.5179 0.98175 0.80842 0.0
C1905 C 0.54677 0.96922 0.81302 0.0
C1906 C 0.48767 0.96912 0.81385 0.0
C1907 C 0.4684 0.99305 0.80356 0.0
N1908 N 0.52789 0.96981 0.81317 0.0
N1909 N 0.48729 0.99302 0.80375 0.0
H1910 H 0.25986 0.21237 0.06644 0.0
H1911 H 0.24433 0.30379 0.04063 0.0
H1912 H 0.23811 0.21428 0.04079 0.0
H1913 H 0.2542 0.30215 0.06778 0.0
H1914 H 0.24333 0.27101 0.04042 0.0
H1915 H 0.2592 0.24519 0.06692 0.0
C1916 C 0.25479 0.21963 0.06092 0.0
C1917 C 0.24904 0.21042 0.05355 0.0
C1918 C 0.24566 0.27782 0.04643 0.0
C1919 C 0.24859 0.24815 0.05402 0.0
C1920 C 0.24612 0.29659 0.04657 0.0
C1921 C 0.24933 0.30588 0.05424 0.0
C1922 C 0.24856 0.26814 0.054 0.0
C1923 C 0.25197 0.29566 0.06169 0.0
C1924 C 0.25453 0.23841 0.06119 0.0
C1925 C 0.24298 0.2207 0.04656 0.0
N1926 N 0.25157 0.27738 0.06137 0.0
N1927 N 0.24297 0.23897 0.04696 0.0
H1928 H 0.96111 0.95566 0.70064 0.0
H1929 H 0.05366 1.00356 0.71773 0.0
H1930 H 0.96108 1.00139 0.7176 0.0
H1931 H 0.05393 0.95681 0.70141 0.0
H1932 H 0.01975 1.0037 0.71727 0.0
H1933 H 0.99505 0.95677 0.70025 0.0
C1934 C 0.96822 0.96603 0.70423 0.0
C1935 C 0.95818 0.97842 0.70919 0.0
C1936 C 0.02721 0.99343 0.71377 0.0
C1937 C 0.99712 0.97964 0.70883 0.0
C1938 C 0.0466 0.99329 0.71407 0.0
C1939 C 0.05672 0.98009 0.70964 0.0
C1940 C 0.01777 0.98027 0.70902 0.0
C1941 C 0.04676 0.96734 0.70486 0.0
C1942 C 0.98762 0.96658 0.70404 0.0
C1943 C 0.96821 0.99139 0.7138 0.0
N1944 N 0.02786 0.9677 0.70471 0.0
N1945 N 0.98709 0.99164 0.71351 0.0
H1946 H 0.27019 0.79841 0.95477 0.0
H1947 H 0.22301 0.70726 0.97125 0.0
H1948 H 0.22319 0.79711 0.97184 0.0
H1949 H 0.27032 0.70877 0.95437 0.0
H1950 H 0.22237 0.74012 0.9713 0.0
H1951 H 0.26977 0.76561 0.95419 0.0
C1952 C 0.25968 0.79125 0.95835 0.0
C1953 C 0.2467 0.8006 0.96336 0.0
C1954 C 0.23287 0.73326 0.96757 0.0
C1955 C 0.2463 0.76289 0.9628 0.0
C1956 C 0.23331 0.71448 0.96757 0.0
C1957 C 0.24678 0.70517 0.96282 0.0
C1958 C 0.24603 0.74289 0.96279 0.0
C1959 C 0.25955 0.71531 0.95805 0.0
C1960 C 0.25952 0.77248 0.95805 0.0
C1961 C 0.23362 0.79051 0.96797 0.0
N1962 N 0.25889 0.73359 0.95818 0.0
N1963 N 0.23376 0.77223 0.96759 0.0
H1964 H 0.45921 0.00819 0.21671 0.0
H1965 H 0.5521 0.0569 0.20065 0.0
H1966 H 0.45928 0.05601 0.20113 0.0
H1967 H 0.55182 0.0096 0.21659 0.0
H1968 H 0.51817 0.05599 0.20017 0.0
H1969 H 0.49313 0.00786 0.21627 0.0
C1970 C 0.46635 0.01865 0.21321 0.0
C1971 C 0.45633 0.03221 0.20899 0.0
C1972 C 0.52552 0.04578 0.20376 0.0
C1973 C 0.49528 0.03182 0.2084 0.0
C1974 C 0.54493 0.04622 0.20399 0.0
C1975 C 0.55488 0.03333 0.20869 0.0
C1976 C 0.51593 0.03234 0.20824 0.0
C1977 C 0.54476 0.01998 0.21299 0.0
C1978 C 0.48574 0.0184 0.21293 0.0
C1979 C 0.46638 0.04521 0.20442 0.0
N1980 N 0.52588 0.01985 0.21267 0.0
N1981 N 0.48527 0.04474 0.20428 0.0
H1982 H 0.24074 0.3032 0.45421 0.0
H1983 H 0.28886 0.21376 0.47232 0.0
H1984 H 0.2873 0.30352 0.47158 0.0
H1985 H 0.24204 0.21351 0.4551 0.0
H1986 H 0.28898 0.24661 0.47187 0.0
H1987 H 0.24171 0.27037 0.45407 0.0
C1988 C 0.25127 0.29639 0.45795 0.0
C1989 C 0.26394 0.3062 0.46293 0.0
C1990 C 0.2787 0.23937 0.46818 0.0
C1991 C 0.26498 0.26849 0.46287 0.0
C1992 C 0.27856 0.2206 0.46847 0.0
C1993 C 0.26538 0.2108 0.46377 0.0
C1994 C 0.26555 0.2485 0.46316 0.0
C1995 C 0.25259 0.22045 0.45876 0.0
C1996 C 0.25175 0.27761 0.4579 0.0
C1997 C 0.27708 0.29656 0.46774 0.0
N1998 N 0.25297 0.23873 0.45861 0.0
N1999 N 0.27724 0.27827 0.46759 0.0
H2000 H 0.77134 0.21312 0.45504 0.0
H2001 H 0.72236 0.30415 0.47069 0.0
H2002 H 0.72334 0.21438 0.47151 0.0
H2003 H 0.77071 0.3028 0.45445 0.0
H2004 H 0.72192 0.2713 0.47073 0.0
H2005 H 0.77057 0.24591 0.4543 0.0
C2006 C 0.76053 0.22026 0.45845 0.0
C2007 C 0.74738 0.21091 0.46335 0.0
C2008 C 0.73261 0.27818 0.46714 0.0
C2009 C 0.74658 0.24859 0.46262 0.0
C2010 C 0.73292 0.29696 0.46715 0.0
C2011 C 0.74664 0.30631 0.46259 0.0
C2012 C 0.74613 0.26859 0.46255 0.0
C2013 C 0.75976 0.29622 0.45798 0.0
C2014 C 0.76017 0.23902 0.45806 0.0
C2015 C 0.73391 0.22098 0.46774 0.0
N2016 N 0.75921 0.27794 0.45811 0.0
N2017 N 0.73387 0.23925 0.46728 0.0
H2018 H 0.79076 0.70802 0.97056 0.0
H2019 H 0.74145 0.79867 0.95462 0.0
H2020 H 0.74211 0.70896 0.95446 0.0
H2021 H 0.78995 0.7978 0.97083 0.0
H2022 H 0.74218 0.76586 0.95405 0.0
H2023 H 0.79122 0.74088 0.97041 0.0
C2024 C 0.78014 0.71512 0.96701 0.0
C2025 C 0.76632 0.70566 0.96254 0.0
C2026 C 0.75269 0.77284 0.95772 0.0
C2027 C 0.76686 0.74337 0.96229 0.0
C2028 C 0.75236 0.79161 0.95801 0.0
C2029 C 0.76566 0.80108 0.96279 0.0
C2030 C 0.76642 0.76337 0.96225 0.0
C2031 C 0.77926 0.79111 0.96716 0.0
C2032 C 0.78046 0.7339 0.96689 0.0
C2033 C 0.75313 0.71563 0.95792 0.0
N2034 N 0.77928 0.77283 0.96679 0.0
N2035 N 0.75369 0.73391 0.95794 0.0
H2036 H 0.78808 0.30431 0.04656 0.0
H2037 H 0.74139 0.21312 0.0633 0.0
H2038 H 0.74154 0.30282 0.06388 0.0
H2039 H 0.78721 0.21452 0.04557 0.0
H2040 H 0.74194 0.24592 0.06396 0.0
H2041 H 0.7885 0.27146 0.04639 0.0
C2042 C 0.7779 0.29709 0.05031 0.0
C2043 C 0.76471 0.30641 0.05522 0.0
C2044 C 0.7519 0.23907 0.05993 0.0
C2045 C 0.76522 0.26868 0.05511 0.0
C2046 C 0.75167 0.2203 0.05959 0.0
C2047 C 0.76428 0.21098 0.05437 0.0
C2048 C 0.76484 0.24868 0.05503 0.0
C2049 C 0.77706 0.2211 0.0496 0.0
C2050 C 0.77821 0.27831 0.05024 0.0
C2051 C 0.75209 0.29627 0.06007 0.0
N2052 N 0.77701 0.23937 0.05004 0.0
N2053 N 0.75263 0.27799 0.05987 0.0
H2054 H 0.73396 0.79919 0.5662 0.0
H2055 H 0.76279 0.70871 0.54174 0.0
H2056 H 0.76151 0.79817 0.54177 0.0
H2057 H 0.73567 0.70914 0.56627 0.0
H2058 H 0.76205 0.7415 0.54162 0.0
H2059 H 0.73433 0.7663 0.56638 0.0
C2060 C 0.74015 0.79208 0.56089 0.0
C2061 C 0.74771 0.80153 0.55395 0.0
C2062 C 0.75624 0.73445 0.54703 0.0
C2063 C 0.74803 0.7638 0.5541 0.0
C2064 C 0.75656 0.71569 0.54708 0.0
C2065 C 0.74922 0.70608 0.55401 0.0
C2066 C 0.74853 0.7438 0.55396 0.0
C2067 C 0.74166 0.71594 0.56083 0.0
C2068 C 0.74028 0.77328 0.56098 0.0
C2069 C 0.75529 0.79152 0.5472 0.0
N2070 N 0.74149 0.73423 0.56063 0.0
N2071 N 0.75527 0.77325 0.54745 0.0
H2072 H 0.55386 0.48916 0.80126 0.0
H2073 H 0.46087 0.53709 0.81787 0.0
H2074 H 0.55368 0.53613 0.81744 0.0
H2075 H 0.46123 0.4907 0.80132 0.0
H2076 H 0.4948 0.53607 0.81838 0.0
H2077 H 0.51994 0.48881 0.80169 0.0
C2078 C 0.5467 0.49944 0.80489 0.0
C2079 C 0.55669 0.51276 0.80929 0.0
C2080 C 0.48746 0.52608 0.81466 0.0
C2081 C 0.51774 0.51235 0.80986 0.0
C2082 C 0.46806 0.52658 0.8144 0.0
C2083 C 0.45813 0.51399 0.80952 0.0
C2084 C 0.49708 0.51288 0.81 0.0
C2085 C 0.46827 0.50086 0.80506 0.0
C2086 C 0.5273 0.49917 0.80517 0.0
C2087 C 0.54661 0.52551 0.81402 0.0
N2088 N 0.48715 0.50067 0.8054 0.0
N2089 N 0.52771 0.52503 0.81414 0.0
H2090 H 0.0526 0.52479 0.3018 0.0
H2091 H 0.95951 0.47731 0.31844 0.0
H2092 H 0.05229 0.47812 0.31814 0.0
H2093 H 0.95994 0.52336 0.30171 0.0
H2094 H 0.99343 0.47827 0.31898 0.0
H2095 H 0.01867 0.52517 0.30215 0.0
C2096 C 0.04541 0.51459 0.30545 0.0
C2097 C 0.05537 0.50134 0.30992 0.0
C2098 C 0.98611 0.4882 0.31521 0.0
C2099 C 0.01641 0.50179 0.3104 0.0
C2100 C 0.96671 0.48773 0.31494 0.0
C2101 C 0.9568 0.50025 0.31 0.0
C2102 C 0.99575 0.50129 0.31051 0.0
C2103 C 0.96696 0.51326 0.30549 0.0
C2104 C 0.02601 0.51487 0.30568 0.0
C2105 C 0.04525 0.48868 0.31467 0.0
N2106 N 0.98584 0.51342 0.30585 0.0
N2107 N 0.02635 0.48918 0.31475 0.0
H2108 H 0.46031 0.47643 0.20085 0.0
H2109 H 0.55356 0.52498 0.21666 0.0
H2110 H 0.46089 0.52414 0.21653 0.0
H2111 H 0.55309 0.47715 0.20107 0.0
H2112 H 0.51963 0.5255 0.21625 0.0
H2113 H 0.49423 0.47726 0.20029 0.0
C2114 C 0.46754 0.48718 0.20411 0.0
C2115 C 0.45767 0.50021 0.20877 0.0
C2116 C 0.52693 0.51491 0.21289 0.0
C2117 C 0.49662 0.5011 0.20824 0.0
C2118 C 0.54633 0.51455 0.21316 0.0
C2119 C 0.55624 0.50094 0.20893 0.0
C2120 C 0.51729 0.50154 0.20837 0.0
C2121 C 0.54608 0.48799 0.20436 0.0
C2122 C 0.48694 0.48758 0.20383 0.0
C2123 C 0.46788 0.51366 0.21297 0.0
N2124 N 0.52719 0.48857 0.20424 0.0
N2125 N 0.48676 0.51373 0.21262 0.0
H2126 H 0.95991 0.53714 0.7 0.0
H2127 H 0.0531 0.49016 0.71702 0.0
H2128 H 0.96045 0.49103 0.7167 0.0
H2129 H 0.05271 0.53676 0.70063 0.0
H2130 H 0.01918 0.48962 0.71655 0.0
H2131 H 0.99385 0.53638 0.6996 0.0
C2132 C 0.96714 0.52675 0.70353 0.0
C2133 C 0.95725 0.51416 0.70841 0.0
C2134 C 0.0265 0.49995 0.71303 0.0
C2135 C 0.99622 0.51334 0.70806 0.0
C2136 C 0.04589 0.50032 0.71333 0.0
C2137 C 0.05583 0.51358 0.70889 0.0
C2138 C 0.01688 0.51295 0.70826 0.0
C2139 C 0.04569 0.52618 0.70409 0.0
C2140 C 0.98655 0.5264 0.70334 0.0
C2141 C 0.96745 0.50118 0.71295 0.0
N2142 N 0.0268 0.52559 0.70394 0.0
N2143 N 0.98634 0.50113 0.71267 0.0
loop_
_geom_bond_atom_site_label_1
_geom_bond_atom_site_label_2
_geom_bond_distance
_geom_bond_site_symmetry_2
_ccdc_geom_bond_type
C0 C1 1.264 . S
C0 C5 1.479 . S
C0 C10 1.465 . S
C1 C0 1.264 . S
C1 C3 1.339 . S
C1 H28 0.931 . S
C2 C3 1.395 . S
C2 C4 1.320 . S
C3 C1 1.339 . S
C3 C2 1.395 . S
C3 H29 0.929 . S
C4 C2 1.320 . S
C4 C5 1.405 . S
C4 H30 0.930 . S
C5 C0 1.479 . S
C5 C4 1.405 . S
C5 H31 0.931 . S
U6 O7 2.454 . S
U6 O8 2.458 . S
U6 C9 2.984 . S
U6 C10 2.847 . S
U6 C23 2.882 . S
U6 O24 2.441 . S
U6 O25 2.420 . S
U6 O26 2.455 . S
U6 O27 2.449 . S
O7 U6 2.454 . S
O7 C9 1.353 . S
O8 U6 2.458 . S
O8 C9 1.286 . S
C9 U6 2.984 . S
C9 O7 1.353 . S
C9 O8 1.286 . S
C9 C11 1.363 . S
C10 C0 1.465 . S
C10 U6 2.847 . S
C10 O24 1.249 . S
C10 O25 1.202 . S
C11 C9 1.363 . S
C11 C13 1.408 . S
C11 C16 1.342 . S
C12 C13 1.310 . S
C12 C15 1.461 . S
C12 H32 0.932 . S
C13 C11 1.408 . S
C13 C12 1.310 . S
C13 H33 0.930 . S
C14 C15 1.474 . S
C14 C16 1.285 . S
C14 H34 0.929 . S
C15 C12 1.461 . S
C15 C14 1.474 . S
C16 C11 1.342 . S
C16 C14 1.285 . S
C16 H35 0.930 . S
C17 C20 1.424 . S
C17 C22 1.245 . S
C17 C23 1.428 1_545 S
C18 C21 1.260 . S
C18 C22 1.477 . S
C18 H36 0.932 . S
C19 C20 1.384 . S
C19 C21 1.479 . S
C19 H37 0.929 . S
C20 C17 1.424 . S
C20 C19 1.384 . S
C20 H38 0.928 . S
C21 C18 1.260 . S
C21 C19 1.479 . S
C22 C17 1.245 . S
C22 C18 1.477 . S
C22 H39 0.932 . S
C23 U6 2.882 . S
C23 C17 1.428 1_565 S
C23 O26 1.301 . S
C23 O27 1.282 . S
O24 U6 2.441 . S
O24 C10 1.249 . S
O25 U6 2.420 . S
O25 C10 1.202 . S
O26 U6 2.455 . S
O26 C23 1.301 . S
O27 U6 2.449 . S
O27 C23 1.282 . S
H28 C1 0.931 . S
H29 C3 0.929 . S
H30 C4 0.930 . S
H31 C5 0.931 . S
H32 C12 0.932 . S
H33 C13 0.930 . S
H34 C14 0.929 . S
H35 C16 0.930 . S
H36 C18 0.932 . S
H37 C19 0.929 . S
H38 C20 0.928 . S
H39 C22 0.932 . S
C40 C41 1.264 . S
C40 C45 1.479 . S
C40 C50 1.465 . S
C41 C40 1.264 . S
C41 C43 1.339 . S
C41 H68 0.931 . S
C42 C43 1.395 . S
C42 C44 1.320 . S
C43 C41 1.339 . S
C43 C42 1.395 . S
C43 H69 0.929 . S
C44 C42 1.320 . S
C44 C45 1.405 . S
C44 H70 0.930 . S
C45 C40 1.479 . S
C45 C44 1.405 . S
C45 H71 0.931 . S
U46 O47 2.454 . S
U46 O48 2.458 . S
U46 C49 2.984 . S
U46 C50 2.847 . S
U46 C63 2.882 . S
U46 O64 2.441 . S
U46 O65 2.420 . S
U46 O66 2.455 . S
U46 O67 2.449 . S
O47 U46 2.454 . S
O47 C49 1.353 . S
O48 U46 2.458 . S
O48 C49 1.286 . S
C49 U46 2.984 . S
C49 O47 1.353 . S
C49 O48 1.286 . S
C49 C51 1.363 . S
C50 C40 1.465 . S
C50 U46 2.847 . S
C50 O64 1.249 . S
C50 O65 1.202 . S
C51 C49 1.363 . S
C51 C53 1.408 . S
C51 C56 1.342 . S
C52 C53 1.310 . S
C52 C55 1.461 . S
C52 H72 0.932 . S
C53 C51 1.408 . S
C53 C52 1.310 . S
C53 H73 0.930 . S
C54 C55 1.474 . S
C54 C56 1.285 . S
C54 H74 0.929 . S
C55 C52 1.461 . S
C55 C54 1.474 . S
C56 C51 1.342 . S
C56 C54 1.285 . S
C56 H75 0.930 . S
C57 C60 1.424 . S
C57 C62 1.245 . S
C57 C63 1.428 . S
C58 C61 1.260 . S
C58 C62 1.477 . S
C58 H76 0.932 . S
C59 C60 1.384 . S
C59 C61 1.479 . S
C59 H77 0.929 . S
C60 C57 1.424 . S
C60 C59 1.384 . S
C60 H78 0.928 . S
C61 C58 1.260 . S
C61 C59 1.479 . S
C62 C57 1.245 . S
C62 C58 1.477 . S
C62 H79 0.932 . S
C63 U46 2.882 . S
C63 C57 1.428 . S
C63 O66 1.301 . S
C63 O67 1.282 . S
O64 U46 2.441 . S
O64 C50 1.249 . S
O65 U46 2.420 . S
O65 C50 1.202 . S
O66 U46 2.455 . S
O66 C63 1.301 . S
O67 U46 2.449 . S
O67 C63 1.282 . S
H68 C41 0.931 . S
H69 C43 0.929 . S
H70 C44 0.930 . S
H71 C45 0.931 . S
H72 C52 0.932 . S
H73 C53 0.930 . S
H74 C54 0.929 . S
H75 C56 0.930 . S
H76 C58 0.932 . S
H77 C59 0.929 . S
H78 C60 0.928 . S
H79 C62 0.932 . S
C80 C81 1.264 . S
C80 C85 1.479 . S
C80 C90 1.465 . S
C81 C80 1.264 . S
C81 C83 1.339 . S
C81 H108 0.931 . S
C82 C83 1.395 . S
C82 C84 1.320 . S
C83 C81 1.339 . S
C83 C82 1.395 . S
C83 H109 0.929 . S
C84 C82 1.320 . S
C84 C85 1.405 . S
C84 H110 0.930 . S
C85 C80 1.479 . S
C85 C84 1.405 . S
C85 H111 0.931 . S
U86 O87 2.454 . S
U86 O88 2.458 . S
U86 C89 2.984 . S
U86 C90 2.847 . S
U86 C103 2.882 . S
U86 O104 2.441 . S
U86 O105 2.420 . S
U86 O106 2.455 . S
U86 O107 2.449 . S
O87 U86 2.454 . S
O87 C89 1.353 . S
O88 U86 2.458 . S
O88 C89 1.286 . S
C89 U86 2.984 . S
C89 O87 1.353 . S
C89 O88 1.286 . S
C89 C91 1.363 . S
C90 C80 1.465 . S
C90 U86 2.847 . S
C90 O104 1.249 . S
C90 O105 1.202 . S
C91 C89 1.363 . S
C91 C93 1.408 . S
C91 C96 1.342 . S
C92 C93 1.310 . S
C92 C95 1.461 . S
C92 H112 0.932 . S
C93 C91 1.408 . S
C93 C92 1.310 . S
C93 H113 0.930 . S
C94 C95 1.474 . S
C94 C96 1.285 . S
C94 H114 0.929 . S
C95 C92 1.461 . S
C95 C94 1.474 . S
C96 C91 1.342 . S
C96 C94 1.285 . S
C96 H115 0.930 . S
C97 C100 1.424 . S
C97 C102 1.245 . S
C97 C103 1.428 1_565 S
C98 C101 1.260 . S
C98 C102 1.477 . S
C98 H116 0.932 . S
C99 C100 1.384 . S
C99 C101 1.479 . S
C99 H117 0.929 . S
C100 C97 1.424 . S
C100 C99 1.384 . S
C100 H118 0.928 . S
C101 C98 1.260 . S
C101 C99 1.479 . S
C102 C97 1.245 . S
C102 C98 1.477 . S
C102 H119 0.932 . S
C103 U86 2.882 . S
C103 C97 1.428 1_545 S
C103 O106 1.301 . S
C103 O107 1.282 . S
O104 U86 2.441 . S
O104 C90 1.249 . S
O105 U86 2.420 . S
O105 C90 1.202 . S
O106 U86 2.455 . S
O106 C103 1.301 . S
O107 U86 2.449 . S
O107 C103 1.282 . S
H108 C81 0.931 . S
H109 C83 0.929 . S
H110 C84 0.930 . S
H111 C85 0.931 . S
H112 C92 0.932 . S
H113 C93 0.930 . S
H114 C94 0.929 . S
H115 C96 0.930 . S
H116 C98 0.932 . S
H117 C99 0.929 . S
H118 C100 0.928 . S
H119 C102 0.932 . S
C120 C121 1.264 . S
C120 C125 1.479 . S
C120 C130 1.465 . S
C121 C120 1.264 . S
C121 C123 1.339 . S
C121 H148 0.931 . S
C122 C123 1.395 . S
C122 C124 1.320 . S
C123 C121 1.339 . S
C123 C122 1.395 . S
C123 H149 0.929 . S
C124 C122 1.320 . S
C124 C125 1.405 . S
C124 H150 0.930 . S
C125 C120 1.479 . S
C125 C124 1.405 . S
C125 H151 0.931 . S
U126 O127 2.454 . S
U126 O128 2.458 . S
U126 C129 2.984 . S
U126 C130 2.847 . S
U126 C143 2.882 . S
U126 O144 2.441 . S
U126 O145 2.420 . S
U126 O146 2.455 . S
U126 O147 2.449 . S
O127 U126 2.454 . S
O127 C129 1.353 . S
O128 U126 2.458 . S
O128 C129 1.286 . S
C129 U126 2.984 . S
C129 O127 1.353 . S
C129 O128 1.286 . S
C129 C131 1.363 . S
C130 C120 1.465 . S
C130 U126 2.847 . S
C130 O144 1.249 . S
C130 O145 1.202 . S
C131 C129 1.363 . S
C131 C133 1.408 . S
C131 C136 1.342 . S
C132 C133 1.310 . S
C132 C135 1.461 . S
C132 H152 0.932 . S
C133 C131 1.408 . S
C133 C132 1.310 . S
C133 H153 0.930 . S
C134 C135 1.474 . S
C134 C136 1.285 . S
C134 H154 0.929 . S
C135 C132 1.461 . S
C135 C134 1.474 . S
C136 C131 1.342 . S
C136 C134 1.285 . S
C136 H155 0.930 . S
C137 C140 1.424 . S
C137 C142 1.245 . S
C137 C143 1.428 . S
C138 C141 1.260 . S
C138 C142 1.477 . S
C138 H156 0.932 . S
C139 C140 1.384 . S
C139 C141 1.479 . S
C139 H157 0.929 . S
C140 C137 1.424 . S
C140 C139 1.384 . S
C140 H158 0.928 . S
C141 C138 1.260 . S
C141 C139 1.479 . S
C142 C137 1.245 . S
C142 C138 1.477 . S
C142 H159 0.932 . S
C143 U126 2.882 . S
C143 C137 1.428 . S
C143 O146 1.301 . S
C143 O147 1.282 . S
O144 U126 2.441 . S
O144 C130 1.249 . S
O145 U126 2.420 . S
O145 C130 1.202 . S
O146 U126 2.455 . S
O146 C143 1.301 . S
O147 U126 2.449 . S
O147 C143 1.282 . S
H148 C121 0.931 . S
H149 C123 0.929 . S
H150 C124 0.930 . S
H151 C125 0.931 . S
H152 C132 0.932 . S
H153 C133 0.930 . S
H154 C134 0.929 . S
H155 C136 0.930 . S
H156 C138 0.932 . S
H157 C139 0.929 . S
H158 C140 0.928 . S
H159 C142 0.932 . S
C160 C161 1.264 . S
C160 C165 1.479 . S
C160 C170 1.465 . S
C161 C160 1.264 . S
C161 C163 1.339 . S
C161 H188 0.931 . S
C162 C163 1.395 . S
C162 C164 1.320 . S
C163 C161 1.339 . S
C163 C162 1.395 . S
C163 H189 0.929 . S
C164 C162 1.320 . S
C164 C165 1.405 . S
C164 H190 0.930 . S
C165 C160 1.479 . S
C165 C164 1.405 . S
C165 H191 0.931 . S
U166 O167 2.454 . S
U166 O168 2.458 . S
U166 C169 2.984 . S
U166 C170 2.847 . S
U166 C183 2.882 . S
U166 O184 2.441 . S
U166 O185 2.420 . S
U166 O186 2.455 . S
U166 O187 2.449 . S
O167 U166 2.454 . S
O167 C169 1.353 . S
O168 U166 2.458 . S
O168 C169 1.286 . S
C169 U166 2.984 . S
C169 O167 1.353 . S
C169 O168 1.286 . S
C169 C171 1.363 . S
C170 C160 1.465 . S
C170 U166 2.847 . S
C170 O184 1.249 . S
C170 O185 1.202 . S
C171 C169 1.363 . S
C171 C173 1.408 . S
C171 C176 1.342 . S
C172 C173 1.310 . S
C172 C175 1.461 . S
C172 H192 0.932 . S
C173 C171 1.408 . S
C173 C172 1.310 . S
C173 H193 0.930 . S
C174 C175 1.474 . S
C174 C176 1.285 . S
C174 H194 0.929 . S
C175 C172 1.461 . S
C175 C174 1.474 . S
C176 C171 1.342 . S
C176 C174 1.285 . S
C176 H195 0.930 . S
C177 C180 1.424 . S
C177 C182 1.245 . S
C177 C183 1.428 1_565 S
C178 C181 1.260 . S
C178 C182 1.477 . S
C178 H196 0.932 . S
C179 C180 1.384 . S
C179 C181 1.479 . S
C179 H197 0.929 . S
C180 C177 1.424 . S
C180 C179 1.384 . S
C180 H198 0.928 . S
C181 C178 1.260 . S
C181 C179 1.479 . S
C182 C177 1.245 . S
C182 C178 1.477 . S
C182 H199 0.932 . S
C183 U166 2.882 . S
C183 C177 1.428 1_545 S
C183 O186 1.301 . S
C183 O187 1.282 . S
O184 U166 2.441 . S
O184 C170 1.249 . S
O185 U166 2.420 . S
O185 C170 1.202 . S
O186 U166 2.455 . S
O186 C183 1.301 . S
O187 U166 2.449 . S
O187 C183 1.282 . S
H188 C161 0.931 . S
H189 C163 0.929 . S
H190 C164 0.930 . S
H191 C165 0.931 . S
H192 C172 0.932 . S
H193 C173 0.930 . S
H194 C174 0.929 . S
H195 C176 0.930 . S
H196 C178 0.932 . S
H197 C179 0.929 . S
H198 C180 0.928 . S
H199 C182 0.932 . S
C200 C201 1.264 . S
C200 C205 1.479 . S
C200 C210 1.465 . S
C201 C200 1.264 . S
C201 C203 1.339 . S
C201 H228 0.931 . S
C202 C203 1.395 . S
C202 C204 1.320 . S
C203 C201 1.339 . S
C203 C202 1.395 . S
C203 H229 0.929 . S
C204 C202 1.320 . S
C204 C205 1.405 . S
C204 H230 0.930 . S
C205 C200 1.479 . S
C205 C204 1.405 . S
C205 H231 0.931 . S
U206 O207 2.454 . S
U206 O208 2.458 . S
U206 C209 2.984 . S
U206 C210 2.847 . S
U206 C223 2.882 . S
U206 O224 2.441 . S
U206 O225 2.420 . S
U206 O226 2.455 . S
U206 O227 2.449 . S
O207 U206 2.454 . S
O207 C209 1.353 . S
O208 U206 2.458 . S
O208 C209 1.286 . S
C209 U206 2.984 . S
C209 O207 1.353 . S
C209 O208 1.286 . S
C209 C211 1.363 . S
C210 C200 1.465 . S
C210 U206 2.847 . S
C210 O224 1.249 . S
C210 O225 1.202 . S
C211 C209 1.363 . S
C211 C213 1.408 . S
C211 C216 1.342 . S
C212 C213 1.310 . S
C212 C215 1.461 . S
C212 H232 0.932 . S
C213 C211 1.408 . S
C213 C212 1.310 . S
C213 H233 0.930 . S
C214 C215 1.474 . S
C214 C216 1.285 . S
C214 H234 0.929 . S
C215 C212 1.461 . S
C215 C214 1.474 . S
C216 C211 1.342 . S
C216 C214 1.285 . S
C216 H235 0.930 . S
C217 C220 1.424 . S
C217 C222 1.245 . S
C217 C223 1.428 . S
C218 C221 1.260 . S
C218 C222 1.477 . S
C218 H236 0.932 . S
C219 C220 1.384 . S
C219 C221 1.479 . S
C219 H237 0.929 . S
C220 C217 1.424 . S
C220 C219 1.384 . S
C220 H238 0.928 . S
C221 C218 1.260 . S
C221 C219 1.479 . S
C222 C217 1.245 . S
C222 C218 1.477 . S
C222 H239 0.932 . S
C223 U206 2.882 . S
C223 C217 1.428 . S
C223 O226 1.301 . S
C223 O227 1.282 . S
O224 U206 2.441 . S
O224 C210 1.249 . S
O225 U206 2.420 . S
O225 C210 1.202 . S
O226 U206 2.455 . S
O226 C223 1.301 . S
O227 U206 2.449 . S
O227 C223 1.282 . S
H228 C201 0.931 . S
H229 C203 0.929 . S
H230 C204 0.930 . S
H231 C205 0.931 . S
H232 C212 0.932 . S
H233 C213 0.930 . S
H234 C214 0.929 . S
H235 C216 0.930 . S
H236 C218 0.932 . S
H237 C219 0.929 . S
H238 C220 0.928 . S
H239 C222 0.932 . S
C240 C241 1.264 . S
C240 C245 1.479 . S
C240 C250 1.465 . S
C241 C240 1.264 . S
C241 C243 1.339 . S
C241 H268 0.931 . S
C242 C243 1.395 . S
C242 C244 1.320 . S
C243 C241 1.339 . S
C243 C242 1.395 . S
C243 H269 0.929 . S
C244 C242 1.320 . S
C244 C245 1.405 . S
C244 H270 0.930 . S
C245 C240 1.479 . S
C245 C244 1.405 . S
C245 H271 0.931 . S
U246 O247 2.454 . S
U246 O248 2.458 . S
U246 C249 2.984 . S
U246 C250 2.847 . S
U246 C263 2.882 . S
U246 O264 2.441 . S
U246 O265 2.420 . S
U246 O266 2.455 . S
U246 O267 2.449 . S
O247 U246 2.454 . S
O247 C249 1.353 . S
O248 U246 2.458 . S
O248 C249 1.286 . S
C249 U246 2.984 . S
C249 O247 1.353 . S
C249 O248 1.286 . S
C249 C251 1.363 . S
C250 C240 1.465 . S
C250 U246 2.847 . S
C250 O264 1.249 . S
C250 O265 1.202 . S
C251 C249 1.363 . S
C251 C253 1.408 . S
C251 C256 1.342 . S
C252 C253 1.310 . S
C252 C255 1.461 . S
C252 H272 0.932 . S
C253 C251 1.408 . S
C253 C252 1.310 . S
C253 H273 0.930 . S
C254 C255 1.474 . S
C254 C256 1.285 . S
C254 H274 0.929 . S
C255 C252 1.461 . S
C255 C254 1.474 . S
C256 C251 1.342 . S
C256 C254 1.285 . S
C256 H275 0.930 . S
C257 C260 1.424 . S
C257 C262 1.245 . S
C257 C263 1.428 1_545 S
C258 C261 1.260 . S
C258 C262 1.477 . S
C258 H276 0.932 . S
C259 C260 1.384 . S
C259 C261 1.479 . S
C259 H277 0.929 . S
C260 C257 1.424 . S
C260 C259 1.384 . S
C260 H278 0.928 . S
C261 C258 1.260 . S
C261 C259 1.479 . S
C262 C257 1.245 . S
C262 C258 1.477 . S
C262 H279 0.932 . S
C263 U246 2.882 . S
C263 C257 1.428 1_565 S
C263 O266 1.301 . S
C263 O267 1.282 . S
O264 U246 2.441 . S
O264 C250 1.249 . S
O265 U246 2.420 . S
O265 C250 1.202 . S
O266 U246 2.455 . S
O266 C263 1.301 . S
O267 U246 2.449 . S
O267 C263 1.282 . S
H268 C241 0.931 . S
H269 C243 0.929 . S
H270 C244 0.930 . S
H271 C245 0.931 . S
H272 C252 0.932 . S
H273 C253 0.930 . S
H274 C254 0.929 . S
H275 C256 0.930 . S
H276 C258 0.932 . S
H277 C259 0.929 . S
H278 C260 0.928 . S
H279 C262 0.932 . S
C280 C281 1.264 . S
C280 C285 1.479 . S
C280 C290 1.465 . S
C281 C280 1.264 . S
C281 C283 1.339 . S
C281 H308 0.931 . S
C282 C283 1.395 . S
C282 C284 1.320 . S
C283 C281 1.339 . S
C283 C282 1.395 . S
C283 H309 0.929 . S
C284 C282 1.320 . S
C284 C285 1.405 . S
C284 H310 0.930 . S
C285 C280 1.479 . S
C285 C284 1.405 . S
C285 H311 0.931 . S
U286 O287 2.454 . S
U286 O288 2.458 . S
U286 C289 2.984 . S
U286 C290 2.847 . S
U286 C303 2.882 . S
U286 O304 2.441 . S
U286 O305 2.420 . S
U286 O306 2.455 . S
U286 O307 2.449 . S
O287 U286 2.454 . S
O287 C289 1.353 . S
O288 U286 2.458 . S
O288 C289 1.286 . S
C289 U286 2.984 . S
C289 O287 1.353 . S
C289 O288 1.286 . S
C289 C291 1.363 . S
C290 C280 1.465 . S
C290 U286 2.847 . S
C290 O304 1.249 . S
C290 O305 1.202 . S
C291 C289 1.363 . S
C291 C293 1.408 . S
C291 C296 1.342 . S
C292 C293 1.310 . S
C292 C295 1.461 . S
C292 H312 0.932 . S
C293 C291 1.408 . S
C293 C292 1.310 . S
C293 H313 0.930 . S
C294 C295 1.474 . S
C294 C296 1.285 . S
C294 H314 0.929 . S
C295 C292 1.461 . S
C295 C294 1.474 . S
C296 C291 1.342 . S
C296 C294 1.285 . S
C296 H315 0.930 . S
C297 C300 1.424 . S
C297 C302 1.245 . S
C297 C303 1.428 . S
C298 C301 1.260 . S
C298 C302 1.477 . S
C298 H316 0.932 . S
C299 C300 1.384 . S
C299 C301 1.479 . S
C299 H317 0.929 . S
C300 C297 1.424 . S
C300 C299 1.384 . S
C300 H318 0.928 . S
C301 C298 1.260 . S
C301 C299 1.479 . S
C302 C297 1.245 . S
C302 C298 1.477 . S
C302 H319 0.932 . S
C303 U286 2.882 . S
C303 C297 1.428 . S
C303 O306 1.301 . S
C303 O307 1.282 . S
O304 U286 2.441 . S
O304 C290 1.249 . S
O305 U286 2.420 . S
O305 C290 1.202 . S
O306 U286 2.455 . S
O306 C303 1.301 . S
O307 U286 2.449 . S
O307 C303 1.282 . S
H308 C281 0.931 . S
H309 C283 0.929 . S
H310 C284 0.930 . S
H311 C285 0.931 . S
H312 C292 0.932 . S
H313 C293 0.930 . S
H314 C294 0.929 . S
H315 C296 0.930 . S
H316 C298 0.932 . S
H317 C299 0.929 . S
H318 C300 0.928 . S
H319 C302 0.932 . S
C320 C321 1.264 . S
C320 C325 1.479 1_565 S
C320 C330 1.465 . S
C321 C320 1.264 . S
C321 C323 1.342 . S
C321 H348 0.931 . S
C322 C323 1.388 1_545 S
C322 C324 1.320 . S
C323 C321 1.342 . S
C323 C322 1.388 1_565 S
C323 H349 0.932 . S
C324 C322 1.320 . S
C324 C325 1.405 . S
C324 H350 0.930 . S
C325 C320 1.479 1_545 S
C325 C324 1.405 . S
C325 H351 0.931 . S
U326 O327 2.440 1_565 S
U326 O328 2.458 . S
U326 C329 2.998 . S
U326 C330 2.847 . S
U326 C343 2.882 . S
U326 O344 2.441 . S
U326 O345 2.420 . S
U326 O346 2.455 . S
U326 O347 2.449 . S
O327 U326 2.440 1_545 S
O327 C329 1.349 1_545 S
O328 U326 2.458 . S
O328 C329 1.300 . S
C329 U326 2.998 . S
C329 O327 1.349 1_565 S
C329 O328 1.300 . S
C329 C331 1.353 1_565 S
C330 C320 1.465 . S
C330 U326 2.847 . S
C330 O344 1.249 . S
C330 O345 1.202 . S
C331 C329 1.353 1_545 S
C331 C333 1.408 . S
C331 C336 1.342 . S
C332 C333 1.310 . S
C332 C335 1.461 . S
C332 H352 0.932 . S
C333 C331 1.408 . S
C333 C332 1.310 . S
C333 H353 0.930 . S
C334 C335 1.474 . S
C334 C336 1.285 . S
C334 H354 0.929 . S
C335 C332 1.461 . S
C335 C334 1.474 . S
C336 C331 1.342 . S
C336 C334 1.285 . S
C336 H355 0.937 . S
C337 C340 1.424 . S
C337 C342 1.245 . S
C337 C343 1.428 . S
C338 C341 1.260 . S
C338 C342 1.477 . S
C338 H356 0.932 . S
C339 C340 1.384 . S
C339 C341 1.479 . S
C339 H357 0.929 . S
C340 C337 1.424 . S
C340 C339 1.384 . S
C340 H358 0.928 . S
C341 C338 1.260 . S
C341 C339 1.479 . S
C342 C337 1.245 . S
C342 C338 1.477 . S
C342 H359 0.932 . S
C343 U326 2.882 . S
C343 C337 1.428 . S
C343 O346 1.301 . S
C343 O347 1.282 . S
O344 U326 2.441 . S
O344 C330 1.249 . S
O345 U326 2.420 . S
O345 C330 1.202 . S
O346 U326 2.455 . S
O346 C343 1.301 . S
O347 U326 2.449 . S
O347 C343 1.282 . S
H348 C321 0.931 . S
H349 C323 0.932 . S
H350 C324 0.930 . S
H351 C325 0.931 . S
H352 C332 0.932 . S
H353 C333 0.930 . S
H354 C334 0.929 . S
H355 C336 0.937 . S
H356 C338 0.932 . S
H357 C339 0.929 . S
H358 C340 0.928 . S
H359 C342 0.932 . S
C360 C361 1.264 . S
C360 C365 1.479 . S
C360 C370 1.465 . S
C361 C360 1.264 . S
C361 C363 1.339 . S
C361 H388 0.931 . S
C362 C363 1.395 . S
C362 C364 1.320 . S
C363 C361 1.339 . S
C363 C362 1.395 . S
C363 H389 0.929 . S
C364 C362 1.320 . S
C364 C365 1.405 . S
C364 H390 0.930 . S
C365 C360 1.479 . S
C365 C364 1.405 . S
C365 H391 0.931 . S
U366 O367 2.454 . S
U366 O368 2.458 . S
U366 C369 2.984 . S
U366 C370 2.847 . S
U366 C383 2.882 . S
U366 O384 2.441 . S
U366 O385 2.420 . S
U366 O386 2.455 . S
U366 O387 2.449 . S
O367 U366 2.454 . S
O367 C369 1.353 . S
O368 U366 2.458 . S
O368 C369 1.286 . S
C369 U366 2.984 . S
C369 O367 1.353 . S
C369 O368 1.286 . S
C369 C371 1.363 . S
C370 C360 1.465 . S
C370 U366 2.847 . S
C370 O384 1.249 . S
C370 O385 1.202 . S
C371 C369 1.363 . S
C371 C373 1.408 . S
C371 C376 1.342 . S
C372 C373 1.310 . S
C372 C375 1.461 . S
C372 H392 0.932 . S
C373 C371 1.408 . S
C373 C372 1.310 . S
C373 H393 0.930 . S
C374 C375 1.474 . S
C374 C376 1.285 . S
C374 H394 0.929 . S
C375 C372 1.461 . S
C375 C374 1.474 . S
C376 C371 1.342 . S
C376 C374 1.285 . S
C376 H395 0.930 . S
C377 C380 1.424 . S
C377 C382 1.245 . S
C377 C383 1.428 . S
C378 C381 1.260 . S
C378 C382 1.477 . S
C378 H396 0.932 . S
C379 C380 1.384 . S
C379 C381 1.479 . S
C379 H397 0.929 . S
C380 C377 1.424 . S
C380 C379 1.384 . S
C380 H398 0.928 . S
C381 C378 1.260 . S
C381 C379 1.479 . S
C382 C377 1.245 . S
C382 C378 1.477 . S
C382 H399 0.932 . S
C383 U366 2.882 . S
C383 C377 1.428 . S
C383 O386 1.301 . S
C383 O387 1.282 . S
O384 U366 2.441 . S
O384 C370 1.249 . S
O385 U366 2.420 . S
O385 C370 1.202 . S
O386 U366 2.455 . S
O386 C383 1.301 . S
O387 U366 2.449 . S
O387 C383 1.282 . S
H388 C361 0.931 . S
H389 C363 0.929 . S
H390 C364 0.930 . S
H391 C365 0.931 . S
H392 C372 0.932 . S
H393 C373 0.930 . S
H394 C374 0.929 . S
H395 C376 0.930 . S
H396 C378 0.932 . S
H397 C379 0.929 . S
H398 C380 0.928 . S
H399 C382 0.932 . S
C400 C401 1.264 . S
C400 C405 1.479 1_545 S
C400 C410 1.465 . S
C401 C400 1.264 . S
C401 C403 1.342 . S
C401 H428 0.931 . S
C402 C403 1.388 1_565 S
C402 C404 1.320 . S
C403 C401 1.342 . S
C403 C402 1.388 1_545 S
C403 H429 0.932 . S
C404 C402 1.320 . S
C404 C405 1.405 . S
C404 H430 0.930 . S
C405 C400 1.479 1_565 S
C405 C404 1.405 . S
C405 H431 0.931 . S
U406 O407 2.440 1_545 S
U406 O408 2.458 . S
U406 C409 2.998 . S
U406 C410 2.847 . S
U406 C423 2.882 . S
U406 O424 2.441 . S
U406 O425 2.420 . S
U406 O426 2.455 . S
U406 O427 2.449 . S
O407 U406 2.440 1_565 S
O407 C409 1.349 1_565 S
O408 U406 2.458 . S
O408 C409 1.300 . S
C409 U406 2.998 . S
C409 O407 1.349 1_545 S
C409 O408 1.300 . S
C409 C411 1.353 1_545 S
C410 C400 1.465 . S
C410 U406 2.847 . S
C410 O424 1.249 . S
C410 O425 1.202 . S
C411 C409 1.353 1_565 S
C411 C413 1.408 . S
C411 C416 1.342 . S
C412 C413 1.310 . S
C412 C415 1.461 . S
C412 H432 0.932 . S
C413 C411 1.408 . S
C413 C412 1.310 . S
C413 H433 0.930 . S
C414 C415 1.474 . S
C414 C416 1.285 . S
C414 H434 0.929 . S
C415 C412 1.461 . S
C415 C414 1.474 . S
C416 C411 1.342 . S
C416 C414 1.285 . S
C416 H435 0.937 . S
C417 C420 1.424 . S
C417 C422 1.245 . S
C417 C423 1.428 . S
C418 C421 1.260 . S
C418 C422 1.477 . S
C418 H436 0.932 . S
C419 C420 1.384 . S
C419 C421 1.479 . S
C419 H437 0.929 . S
C420 C417 1.424 . S
C420 C419 1.384 . S
C420 H438 0.928 . S
C421 C418 1.260 . S
C421 C419 1.479 . S
C422 C417 1.245 . S
C422 C418 1.477 . S
C422 H439 0.932 . S
C423 U406 2.882 . S
C423 C417 1.428 . S
C423 O426 1.301 . S
C423 O427 1.282 . S
O424 U406 2.441 . S
O424 C410 1.249 . S
O425 U406 2.420 . S
O425 C410 1.202 . S
O426 U406 2.455 . S
O426 C423 1.301 . S
O427 U406 2.449 . S
O427 C423 1.282 . S
H428 C401 0.931 . S
H429 C403 0.932 . S
H430 C404 0.930 . S
H431 C405 0.931 . S
H432 C412 0.932 . S
H433 C413 0.930 . S
H434 C414 0.929 . S
H435 C416 0.937 . S
H436 C418 0.932 . S
H437 C419 0.929 . S
H438 C420 0.928 . S
H439 C422 0.932 . S
C440 C441 1.264 . S
C440 C445 1.479 . S
C440 C450 1.465 . S
C441 C440 1.264 . S
C441 C443 1.339 . S
C441 H468 0.931 . S
C442 C443 1.395 . S
C442 C444 1.320 . S
C443 C441 1.339 . S
C443 C442 1.395 . S
C443 H469 0.929 . S
C444 C442 1.320 . S
C444 C445 1.405 . S
C444 H470 0.930 . S
C445 C440 1.479 . S
C445 C444 1.405 . S
C445 H471 0.931 . S
U446 O447 2.454 . S
U446 O448 2.458 . S
U446 C449 2.984 . S
U446 C450 2.847 . S
U446 C463 2.882 . S
U446 O464 2.441 . S
U446 O465 2.420 . S
U446 O466 2.455 . S
U446 O467 2.449 . S
O447 U446 2.454 . S
O447 C449 1.353 . S
O448 U446 2.458 . S
O448 C449 1.286 . S
C449 U446 2.984 . S
C449 O447 1.353 . S
C449 O448 1.286 . S
C449 C451 1.363 . S
C450 C440 1.465 . S
C450 U446 2.847 . S
C450 O464 1.249 . S
C450 O465 1.202 . S
C451 C449 1.363 . S
C451 C453 1.408 . S
C451 C456 1.342 . S
C452 C453 1.310 . S
C452 C455 1.461 . S
C452 H472 0.932 . S
C453 C451 1.408 . S
C453 C452 1.310 . S
C453 H473 0.930 . S
C454 C455 1.474 . S
C454 C456 1.285 . S
C454 H474 0.929 . S
C455 C452 1.461 . S
C455 C454 1.474 . S
C456 C451 1.342 . S
C456 C454 1.285 . S
C456 H475 0.930 . S
C457 C460 1.424 . S
C457 C462 1.245 . S
C457 C463 1.428 . S
C458 C461 1.260 . S
C458 C462 1.477 . S
C458 H476 0.932 . S
C459 C460 1.384 . S
C459 C461 1.479 . S
C459 H477 0.929 . S
C460 C457 1.424 . S
C460 C459 1.384 . S
C460 H478 0.928 . S
C461 C458 1.260 . S
C461 C459 1.479 . S
C462 C457 1.245 . S
C462 C458 1.477 . S
C462 H479 0.932 . S
C463 U446 2.882 . S
C463 C457 1.428 . S
C463 O466 1.301 . S
C463 O467 1.282 . S
O464 U446 2.441 . S
O464 C450 1.249 . S
O465 U446 2.420 . S
O465 C450 1.202 . S
O466 U446 2.455 . S
O466 C463 1.301 . S
O467 U446 2.449 . S
O467 C463 1.282 . S
H468 C441 0.931 . S
H469 C443 0.929 . S
H470 C444 0.930 . S
H471 C445 0.931 . S
H472 C452 0.932 . S
H473 C453 0.930 . S
H474 C454 0.929 . S
H475 C456 0.930 . S
H476 C458 0.932 . S
H477 C459 0.929 . S
H478 C460 0.928 . S
H479 C462 0.932 . S
C480 C481 1.264 . S
C480 C485 1.479 1_545 S
C480 C490 1.465 . S
C481 C480 1.264 . S
C481 C483 1.342 . S
C481 H508 0.931 . S
C482 C483 1.388 1_565 S
C482 C484 1.320 . S
C483 C481 1.342 . S
C483 C482 1.388 1_545 S
C483 H509 0.932 . S
C484 C482 1.320 . S
C484 C485 1.405 . S
C484 H510 0.930 . S
C485 C480 1.479 1_565 S
C485 C484 1.405 . S
C485 H511 0.931 . S
U486 O487 2.440 1_545 S
U486 O488 2.458 . S
U486 C489 2.998 . S
U486 C490 2.847 . S
U486 C503 2.882 . S
U486 O504 2.441 . S
U486 O505 2.420 . S
U486 O506 2.455 . S
U486 O507 2.449 . S
O487 U486 2.440 1_565 S
O487 C489 1.349 1_565 S
O488 U486 2.458 . S
O488 C489 1.300 . S
C489 U486 2.998 . S
C489 O487 1.349 1_545 S
C489 O488 1.300 . S
C489 C491 1.353 1_545 S
C490 C480 1.465 . S
C490 U486 2.847 . S
C490 O504 1.249 . S
C490 O505 1.202 . S
C491 C489 1.353 1_565 S
C491 C493 1.408 . S
C491 C496 1.342 . S
C492 C493 1.310 . S
C492 C495 1.461 . S
C492 H512 0.932 . S
C493 C491 1.408 . S
C493 C492 1.310 . S
C493 H513 0.930 . S
C494 C495 1.474 . S
C494 C496 1.285 . S
C494 H514 0.929 . S
C495 C492 1.461 . S
C495 C494 1.474 . S
C496 C491 1.342 . S
C496 C494 1.285 . S
C496 H515 0.937 . S
C497 C500 1.424 . S
C497 C502 1.245 . S
C497 C503 1.428 . S
C498 C501 1.260 . S
C498 C502 1.477 . S
C498 H516 0.932 . S
C499 C500 1.384 . S
C499 C501 1.479 . S
C499 H517 0.929 . S
C500 C497 1.424 . S
C500 C499 1.384 . S
C500 H518 0.928 . S
C501 C498 1.260 . S
C501 C499 1.479 . S
C502 C497 1.245 . S
C502 C498 1.477 . S
C502 H519 0.932 . S
C503 U486 2.882 . S
C503 C497 1.428 . S
C503 O506 1.301 . S
C503 O507 1.282 . S
O504 U486 2.441 . S
O504 C490 1.249 . S
O505 U486 2.420 . S
O505 C490 1.202 . S
O506 U486 2.455 . S
O506 C503 1.301 . S
O507 U486 2.449 . S
O507 C503 1.282 . S
H508 C481 0.931 . S
H509 C483 0.932 . S
H510 C484 0.930 . S
H511 C485 0.931 . S
H512 C492 0.932 . S
H513 C493 0.930 . S
H514 C494 0.929 . S
H515 C496 0.937 . S
H516 C498 0.932 . S
H517 C499 0.929 . S
H518 C500 0.928 . S
H519 C502 0.932 . S
C520 C521 1.264 . S
C520 C525 1.479 . S
C520 C530 1.465 . S
C521 C520 1.264 . S
C521 C523 1.339 . S
C521 H548 0.931 . S
C522 C523 1.395 . S
C522 C524 1.320 . S
C523 C521 1.339 . S
C523 C522 1.395 . S
C523 H549 0.929 . S
C524 C522 1.320 . S
C524 C525 1.405 . S
C524 H550 0.930 . S
C525 C520 1.479 . S
C525 C524 1.405 . S
C525 H551 0.931 . S
U526 O527 2.454 . S
U526 O528 2.458 . S
U526 C529 2.984 . S
U526 C530 2.847 . S
U526 C543 2.882 . S
U526 O544 2.441 . S
U526 O545 2.420 . S
U526 O546 2.455 . S
U526 O547 2.449 . S
O527 U526 2.454 . S
O527 C529 1.353 . S
O528 U526 2.458 . S
O528 C529 1.286 . S
C529 U526 2.984 . S
C529 O527 1.353 . S
C529 O528 1.286 . S
C529 C531 1.363 . S
C530 C520 1.465 . S
C530 U526 2.847 . S
C530 O544 1.249 . S
C530 O545 1.202 . S
C531 C529 1.363 . S
C531 C533 1.408 . S
C531 C536 1.342 . S
C532 C533 1.310 . S
C532 C535 1.461 . S
C532 H552 0.932 . S
C533 C531 1.408 . S
C533 C532 1.310 . S
C533 H553 0.930 . S
C534 C535 1.474 . S
C534 C536 1.285 . S
C534 H554 0.929 . S
C535 C532 1.461 . S
C535 C534 1.474 . S
C536 C531 1.342 . S
C536 C534 1.285 . S
C536 H555 0.930 . S
C537 C540 1.424 . S
C537 C542 1.245 . S
C537 C543 1.428 . S
C538 C541 1.260 . S
C538 C542 1.477 . S
C538 H556 0.932 . S
C539 C540 1.384 . S
C539 C541 1.479 . S
C539 H557 0.929 . S
C540 C537 1.424 . S
C540 C539 1.384 . S
C540 H558 0.928 . S
C541 C538 1.260 . S
C541 C539 1.479 . S
C542 C537 1.245 . S
C542 C538 1.477 . S
C542 H559 0.932 . S
C543 U526 2.882 . S
C543 C537 1.428 . S
C543 O546 1.301 . S
C543 O547 1.282 . S
O544 U526 2.441 . S
O544 C530 1.249 . S
O545 U526 2.420 . S
O545 C530 1.202 . S
O546 U526 2.455 . S
O546 C543 1.301 . S
O547 U526 2.449 . S
O547 C543 1.282 . S
H548 C521 0.931 . S
H549 C523 0.929 . S
H550 C524 0.930 . S
H551 C525 0.931 . S
H552 C532 0.932 . S
H553 C533 0.930 . S
H554 C534 0.929 . S
H555 C536 0.930 . S
H556 C538 0.932 . S
H557 C539 0.929 . S
H558 C540 0.928 . S
H559 C542 0.932 . S
C560 C561 1.264 . S
C560 C565 1.479 1_565 S
C560 C570 1.465 . S
C561 C560 1.264 . S
C561 C563 1.342 . S
C561 H588 0.931 . S
C562 C563 1.388 1_545 S
C562 C564 1.320 . S
C563 C561 1.342 . S
C563 C562 1.388 1_565 S
C563 H589 0.932 . S
C564 C562 1.320 . S
C564 C565 1.405 . S
C564 H590 0.930 . S
C565 C560 1.479 1_545 S
C565 C564 1.405 . S
C565 H591 0.931 . S
U566 O567 2.440 1_565 S
U566 O568 2.458 . S
U566 C569 2.998 . S
U566 C570 2.847 . S
U566 C583 2.882 . S
U566 O584 2.441 . S
U566 O585 2.420 . S
U566 O586 2.455 . S
U566 O587 2.449 . S
O567 U566 2.440 1_545 S
O567 C569 1.349 1_545 S
O568 U566 2.458 . S
O568 C569 1.300 . S
C569 U566 2.998 . S
C569 O567 1.349 1_565 S
C569 O568 1.300 . S
C569 C571 1.353 1_565 S
C570 C560 1.465 . S
C570 U566 2.847 . S
C570 O584 1.249 . S
C570 O585 1.202 . S
C571 C569 1.353 1_545 S
C571 C573 1.408 . S
C571 C576 1.342 . S
C572 C573 1.310 . S
C572 C575 1.461 . S
C572 H592 0.932 . S
C573 C571 1.408 . S
C573 C572 1.310 . S
C573 H593 0.930 . S
C574 C575 1.474 . S
C574 C576 1.285 . S
C574 H594 0.929 . S
C575 C572 1.461 . S
C575 C574 1.474 . S
C576 C571 1.342 . S
C576 C574 1.285 . S
C576 H595 0.937 . S
C577 C580 1.424 . S
C577 C582 1.245 . S
C577 C583 1.428 . S
C578 C581 1.260 . S
C578 C582 1.477 . S
C578 H596 0.932 . S
C579 C580 1.384 . S
C579 C581 1.479 . S
C579 H597 0.929 . S
C580 C577 1.424 . S
C580 C579 1.384 . S
C580 H598 0.928 . S
C581 C578 1.260 . S
C581 C579 1.479 . S
C582 C577 1.245 . S
C582 C578 1.477 . S
C582 H599 0.932 . S
C583 U566 2.882 . S
C583 C577 1.428 . S
C583 O586 1.301 . S
C583 O587 1.282 . S
O584 U566 2.441 . S
O584 C570 1.249 . S
O585 U566 2.420 . S
O585 C570 1.202 . S
O586 U566 2.455 . S
O586 C583 1.301 . S
O587 U566 2.449 . S
O587 C583 1.282 . S
H588 C561 0.931 . S
H589 C563 0.932 . S
H590 C564 0.930 . S
H591 C565 0.931 . S
H592 C572 0.932 . S
H593 C573 0.930 . S
H594 C574 0.929 . S
H595 C576 0.937 . S
H596 C578 0.932 . S
H597 C579 0.929 . S
H598 C580 0.928 . S
H599 C582 0.932 . S
C600 C601 1.264 . S
C600 C605 1.479 . S
C600 C610 1.465 . S
C601 C600 1.264 . S
C601 C603 1.339 . S
C601 H628 0.931 . S
C602 C603 1.395 . S
C602 C604 1.320 . S
C603 C601 1.339 . S
C603 C602 1.395 . S
C603 H629 0.929 . S
C604 C602 1.320 . S
C604 C605 1.405 . S
C604 H630 0.930 . S
C605 C600 1.479 . S
C605 C604 1.405 . S
C605 H631 0.931 . S
U606 O607 2.454 . S
U606 O608 2.458 . S
U606 C609 2.984 . S
U606 C610 2.847 . S
U606 C623 2.882 . S
U606 O624 2.441 . S
U606 O625 2.420 . S
U606 O626 2.455 . S
U606 O627 2.449 . S
O607 U606 2.454 . S
O607 C609 1.353 . S
O608 U606 2.458 . S
O608 C609 1.286 . S
C609 U606 2.984 . S
C609 O607 1.353 . S
C609 O608 1.286 . S
C609 C611 1.363 . S
C610 C600 1.465 . S
C610 U606 2.847 . S
C610 O624 1.249 . S
C610 O625 1.202 . S
C611 C609 1.363 . S
C611 C613 1.408 . S
C611 C616 1.342 . S
C612 C613 1.310 . S
C612 C615 1.461 . S
C612 H632 0.932 . S
C613 C611 1.408 . S
C613 C612 1.310 . S
C613 H633 0.930 . S
C614 C615 1.474 . S
C614 C616 1.285 . S
C614 H634 0.929 . S
C615 C612 1.461 . S
C615 C614 1.474 . S
C616 C611 1.342 . S
C616 C614 1.285 . S
C616 H635 0.930 . S
C617 C620 1.424 . S
C617 C622 1.245 . S
C617 C623 1.428 . S
C618 C621 1.260 . S
C618 C622 1.477 . S
C618 H636 0.932 . S
C619 C620 1.384 . S
C619 C621 1.479 . S
C619 H637 0.929 . S
C620 C617 1.424 . S
C620 C619 1.384 . S
C620 H638 0.928 . S
C621 C618 1.260 . S
C621 C619 1.479 . S
C622 C617 1.245 . S
C622 C618 1.477 . S
C622 H639 0.932 . S
C623 U606 2.882 . S
C623 C617 1.428 . S
C623 O626 1.301 . S
C623 O627 1.282 . S
O624 U606 2.441 . S
O624 C610 1.249 . S
O625 U606 2.420 . S
O625 C610 1.202 . S
O626 U606 2.455 . S
O626 C623 1.301 . S
O627 U606 2.449 . S
O627 C623 1.282 . S
H628 C601 0.931 . S
H629 C603 0.929 . S
H630 C604 0.930 . S
H631 C605 0.931 . S
H632 C612 0.932 . S
H633 C613 0.930 . S
H634 C614 0.929 . S
H635 C616 0.930 . S
H636 C618 0.932 . S
H637 C619 0.929 . S
H638 C620 0.928 . S
H639 C622 0.932 . S
C640 C641 1.264 . S
C640 C645 1.479 . S
C640 C650 1.465 . S
C641 C640 1.264 . S
C641 C643 1.339 . S
C641 H668 0.931 . S
C642 C643 1.395 . S
C642 C644 1.320 . S
C643 C641 1.339 . S
C643 C642 1.395 . S
C643 H669 0.929 . S
C644 C642 1.320 . S
C644 C645 1.405 . S
C644 H670 0.930 . S
C645 C640 1.479 . S
C645 C644 1.405 . S
C645 H671 0.931 . S
U646 O647 2.454 . S
U646 O648 2.458 . S
U646 C649 2.984 . S
U646 C650 2.847 . S
U646 C663 2.882 . S
U646 O664 2.441 . S
U646 O665 2.420 . S
U646 O666 2.455 . S
U646 O667 2.449 . S
O647 U646 2.454 . S
O647 C649 1.353 . S
O648 U646 2.458 . S
O648 C649 1.286 . S
C649 U646 2.984 . S
C649 O647 1.353 . S
C649 O648 1.286 . S
C649 C651 1.363 . S
C650 C640 1.465 . S
C650 U646 2.847 . S
C650 O664 1.249 . S
C650 O665 1.202 . S
C651 C649 1.363 . S
C651 C653 1.408 . S
C651 C656 1.342 . S
C652 C653 1.310 . S
C652 C655 1.461 . S
C652 H672 0.932 . S
C653 C651 1.408 . S
C653 C652 1.310 . S
C653 H673 0.930 . S
C654 C655 1.474 . S
C654 C656 1.285 . S
C654 H674 0.929 . S
C655 C652 1.461 . S
C655 C654 1.474 . S
C656 C651 1.342 . S
C656 C654 1.285 . S
C656 H675 0.930 . S
C657 C660 1.424 . S
C657 C662 1.245 . S
C657 C663 1.428 . S
C658 C661 1.260 . S
C658 C662 1.477 . S
C658 H676 0.932 . S
C659 C660 1.384 . S
C659 C661 1.479 . S
C659 H677 0.929 . S
C660 C657 1.424 . S
C660 C659 1.384 . S
C660 H678 0.928 . S
C661 C658 1.260 . S
C661 C659 1.479 . S
C662 C657 1.245 . S
C662 C658 1.477 . S
C662 H679 0.932 . S
C663 U646 2.882 . S
C663 C657 1.428 . S
C663 O666 1.301 . S
C663 O667 1.282 . S
O664 U646 2.441 . S
O664 C650 1.249 . S
O665 U646 2.420 . S
O665 C650 1.202 . S
O666 U646 2.455 . S
O666 C663 1.301 . S
O667 U646 2.449 . S
O667 C663 1.282 . S
H668 C641 0.931 . S
H669 C643 0.929 . S
H670 C644 0.930 . S
H671 C645 0.931 . S
H672 C652 0.932 . S
H673 C653 0.930 . S
H674 C654 0.929 . S
H675 C656 0.930 . S
H676 C658 0.932 . S
H677 C659 0.929 . S
H678 C660 0.928 . S
H679 C662 0.932 . S
C680 C681 1.264 . S
C680 C685 1.479 . S
C680 C690 1.465 . S
C681 C680 1.264 . S
C681 C683 1.339 . S
C681 H708 0.931 . S
C682 C683 1.395 . S
C682 C684 1.320 . S
C683 C681 1.339 . S
C683 C682 1.395 . S
C683 H709 0.929 . S
C684 C682 1.320 . S
C684 C685 1.405 . S
C684 H710 0.930 . S
C685 C680 1.479 . S
C685 C684 1.405 . S
C685 H711 0.931 . S
U686 O687 2.454 . S
U686 O688 2.458 . S
U686 C689 2.984 . S
U686 C690 2.847 . S
U686 C703 2.882 . S
U686 O704 2.441 . S
U686 O705 2.420 . S
U686 O706 2.455 . S
U686 O707 2.449 . S
O687 U686 2.454 . S
O687 C689 1.353 . S
O688 U686 2.458 . S
O688 C689 1.286 . S
C689 U686 2.984 . S
C689 O687 1.353 . S
C689 O688 1.286 . S
C689 C691 1.363 . S
C690 C680 1.465 . S
C690 U686 2.847 . S
C690 O704 1.249 . S
C690 O705 1.202 . S
C691 C689 1.363 . S
C691 C693 1.408 . S
C691 C696 1.342 . S
C692 C693 1.310 . S
C692 C695 1.461 . S
C692 H712 0.932 . S
C693 C691 1.408 . S
C693 C692 1.310 . S
C693 H713 0.930 . S
C694 C695 1.474 . S
C694 C696 1.285 . S
C694 H714 0.929 . S
C695 C692 1.461 . S
C695 C694 1.474 . S
C696 C691 1.342 . S
C696 C694 1.285 . S
C696 H715 0.930 . S
C697 C700 1.424 . S
C697 C702 1.245 . S
C697 C703 1.428 . S
C698 C701 1.260 . S
C698 C702 1.477 . S
C698 H716 0.932 . S
C699 C700 1.384 . S
C699 C701 1.479 . S
C699 H717 0.929 . S
C700 C697 1.424 . S
C700 C699 1.384 . S
C700 H718 0.928 . S
C701 C698 1.260 . S
C701 C699 1.479 . S
C702 C697 1.245 . S
C702 C698 1.477 . S
C702 H719 0.932 . S
C703 U686 2.882 . S
C703 C697 1.428 . S
C703 O706 1.301 . S
C703 O707 1.282 . S
O704 U686 2.441 . S
O704 C690 1.249 . S
O705 U686 2.420 . S
O705 C690 1.202 . S
O706 U686 2.455 . S
O706 C703 1.301 . S
O707 U686 2.449 . S
O707 C703 1.282 . S
H708 C681 0.931 . S
H709 C683 0.929 . S
H710 C684 0.930 . S
H711 C685 0.931 . S
H712 C692 0.932 . S
H713 C693 0.930 . S
H714 C694 0.929 . S
H715 C696 0.930 . S
H716 C698 0.932 . S
H717 C699 0.929 . S
H718 C700 0.928 . S
H719 C702 0.932 . S
C720 C721 1.264 . S
C720 C725 1.479 . S
C720 C730 1.465 . S
C721 C720 1.264 . S
C721 C723 1.339 . S
C721 H748 0.931 . S
C722 C723 1.395 . S
C722 C724 1.320 . S
C723 C721 1.339 . S
C723 C722 1.395 . S
C723 H749 0.929 . S
C724 C722 1.320 . S
C724 C725 1.405 . S
C724 H750 0.930 . S
C725 C720 1.479 . S
C725 C724 1.405 . S
C725 H751 0.931 . S
U726 O727 2.454 . S
U726 O728 2.458 . S
U726 C729 2.984 . S
U726 C730 2.847 . S
U726 C743 2.882 . S
U726 O744 2.441 . S
U726 O745 2.420 . S
U726 O746 2.455 . S
U726 O747 2.449 . S
O727 U726 2.454 . S
O727 C729 1.353 . S
O728 U726 2.458 . S
O728 C729 1.286 . S
C729 U726 2.984 . S
C729 O727 1.353 . S
C729 O728 1.286 . S
C729 C731 1.363 . S
C730 C720 1.465 . S
C730 U726 2.847 . S
C730 O744 1.249 . S
C730 O745 1.202 . S
C731 C729 1.363 . S
C731 C733 1.408 . S
C731 C736 1.342 . S
C732 C733 1.310 . S
C732 C735 1.461 . S
C732 H752 0.932 . S
C733 C731 1.408 . S
C733 C732 1.310 . S
C733 H753 0.930 . S
C734 C735 1.474 . S
C734 C736 1.285 . S
C734 H754 0.929 . S
C735 C732 1.461 . S
C735 C734 1.474 . S
C736 C731 1.342 . S
C736 C734 1.285 . S
C736 H755 0.930 . S
C737 C740 1.424 . S
C737 C742 1.245 . S
C737 C743 1.428 . S
C738 C741 1.260 . S
C738 C742 1.477 . S
C738 H756 0.932 . S
C739 C740 1.384 . S
C739 C741 1.479 . S
C739 H757 0.929 . S
C740 C737 1.424 . S
C740 C739 1.384 . S
C740 H758 0.928 . S
C741 C738 1.260 . S
C741 C739 1.479 . S
C742 C737 1.245 . S
C742 C738 1.477 . S
C742 H759 0.932 . S
C743 U726 2.882 . S
C743 C737 1.428 . S
C743 O746 1.301 . S
C743 O747 1.282 . S
O744 U726 2.441 . S
O744 C730 1.249 . S
O745 U726 2.420 . S
O745 C730 1.202 . S
O746 U726 2.455 . S
O746 C743 1.301 . S
O747 U726 2.449 . S
O747 C743 1.282 . S
H748 C721 0.931 . S
H749 C723 0.929 . S
H750 C724 0.930 . S
H751 C725 0.931 . S
H752 C732 0.932 . S
H753 C733 0.930 . S
H754 C734 0.929 . S
H755 C736 0.930 . S
H756 C738 0.932 . S
H757 C739 0.929 . S
H758 C740 0.928 . S
H759 C742 0.932 . S
C760 C761 1.264 . S
C760 C765 1.479 . S
C760 C770 1.465 . S
C761 C760 1.264 . S
C761 C763 1.339 . S
C761 H788 0.931 . S
C762 C763 1.395 . S
C762 C764 1.320 . S
C763 C761 1.339 . S
C763 C762 1.395 . S
C763 H789 0.929 . S
C764 C762 1.320 . S
C764 C765 1.405 . S
C764 H790 0.930 . S
C765 C760 1.479 . S
C765 C764 1.405 . S
C765 H791 0.931 . S
U766 O767 2.454 . S
U766 O768 2.458 . S
U766 C769 2.984 . S
U766 C770 2.847 . S
U766 C783 2.882 . S
U766 O784 2.441 . S
U766 O785 2.420 . S
U766 O786 2.455 . S
U766 O787 2.449 . S
O767 U766 2.454 . S
O767 C769 1.353 . S
O768 U766 2.458 . S
O768 C769 1.286 . S
C769 U766 2.984 . S
C769 O767 1.353 . S
C769 O768 1.286 . S
C769 C771 1.363 . S
C770 C760 1.465 . S
C770 U766 2.847 . S
C770 O784 1.249 . S
C770 O785 1.202 . S
C771 C769 1.363 . S
C771 C773 1.408 . S
C771 C776 1.342 . S
C772 C773 1.310 . S
C772 C775 1.461 . S
C772 H792 0.932 . S
C773 C771 1.408 . S
C773 C772 1.310 . S
C773 H793 0.930 . S
C774 C775 1.474 . S
C774 C776 1.285 . S
C774 H794 0.929 . S
C775 C772 1.461 . S
C775 C774 1.474 . S
C776 C771 1.342 . S
C776 C774 1.285 . S
C776 H795 0.930 . S
C777 C780 1.424 . S
C777 C782 1.245 . S
C777 C783 1.428 . S
C778 C781 1.260 . S
C778 C782 1.477 . S
C778 H796 0.932 . S
C779 C780 1.384 . S
C779 C781 1.479 . S
C779 H797 0.929 . S
C780 C777 1.424 . S
C780 C779 1.384 . S
C780 H798 0.928 . S
C781 C778 1.260 . S
C781 C779 1.479 . S
C782 C777 1.245 . S
C782 C778 1.477 . S
C782 H799 0.932 . S
C783 U766 2.882 . S
C783 C777 1.428 . S
C783 O786 1.301 . S
C783 O787 1.282 . S
O784 U766 2.441 . S
O784 C770 1.249 . S
O785 U766 2.420 . S
O785 C770 1.202 . S
O786 U766 2.455 . S
O786 C783 1.301 . S
O787 U766 2.449 . S
O787 C783 1.282 . S
H788 C761 0.931 . S
H789 C763 0.929 . S
H790 C764 0.930 . S
H791 C765 0.931 . S
H792 C772 0.932 . S
H793 C773 0.930 . S
H794 C774 0.929 . S
H795 C776 0.930 . S
H796 C778 0.932 . S
H797 C779 0.929 . S
H798 C780 0.928 . S
H799 C782 0.932 . S
C800 C801 1.264 . S
C800 C805 1.479 . S
C800 C810 1.465 . S
C801 C800 1.264 . S
C801 C803 1.339 . S
C801 H828 0.931 . S
C802 C803 1.395 . S
C802 C804 1.320 . S
C803 C801 1.339 . S
C803 C802 1.395 . S
C803 H829 0.929 . S
C804 C802 1.320 . S
C804 C805 1.405 . S
C804 H830 0.930 . S
C805 C800 1.479 . S
C805 C804 1.405 . S
C805 H831 0.931 . S
U806 O807 2.454 . S
U806 O808 2.458 . S
U806 C809 2.984 . S
U806 C810 2.847 . S
U806 C823 2.882 . S
U806 O824 2.441 . S
U806 O825 2.420 . S
U806 O826 2.455 . S
U806 O827 2.449 . S
O807 U806 2.454 . S
O807 C809 1.353 . S
O808 U806 2.458 . S
O808 C809 1.286 . S
C809 U806 2.984 . S
C809 O807 1.353 . S
C809 O808 1.286 . S
C809 C811 1.363 . S
C810 C800 1.465 . S
C810 U806 2.847 . S
C810 O824 1.249 . S
C810 O825 1.202 . S
C811 C809 1.363 . S
C811 C813 1.408 . S
C811 C816 1.342 . S
C812 C813 1.310 . S
C812 C815 1.461 . S
C812 H832 0.932 . S
C813 C811 1.408 . S
C813 C812 1.310 . S
C813 H833 0.930 . S
C814 C815 1.474 . S
C814 C816 1.285 . S
C814 H834 0.929 . S
C815 C812 1.461 . S
C815 C814 1.474 . S
C816 C811 1.342 . S
C816 C814 1.285 . S
C816 H835 0.930 . S
C817 C820 1.424 . S
C817 C822 1.245 . S
C817 C823 1.428 . S
C818 C821 1.260 . S
C818 C822 1.477 . S
C818 H836 0.932 . S
C819 C820 1.384 . S
C819 C821 1.479 . S
C819 H837 0.929 . S
C820 C817 1.424 . S
C820 C819 1.384 . S
C820 H838 0.928 . S
C821 C818 1.260 . S
C821 C819 1.479 . S
C822 C817 1.245 . S
C822 C818 1.477 . S
C822 H839 0.932 . S
C823 U806 2.882 . S
C823 C817 1.428 . S
C823 O826 1.301 . S
C823 O827 1.282 . S
O824 U806 2.441 . S
O824 C810 1.249 . S
O825 U806 2.420 . S
O825 C810 1.202 . S
O826 U806 2.455 . S
O826 C823 1.301 . S
O827 U806 2.449 . S
O827 C823 1.282 . S
H828 C801 0.931 . S
H829 C803 0.929 . S
H830 C804 0.930 . S
H831 C805 0.931 . S
H832 C812 0.932 . S
H833 C813 0.930 . S
H834 C814 0.929 . S
H835 C816 0.930 . S
H836 C818 0.932 . S
H837 C819 0.929 . S
H838 C820 0.928 . S
H839 C822 0.932 . S
C840 C841 1.264 . S
C840 C845 1.479 . S
C840 C850 1.465 . S
C841 C840 1.264 . S
C841 C843 1.339 . S
C841 H868 0.931 . S
C842 C843 1.395 . S
C842 C844 1.320 . S
C843 C841 1.339 . S
C843 C842 1.395 . S
C843 H869 0.929 . S
C844 C842 1.320 . S
C844 C845 1.405 . S
C844 H870 0.930 . S
C845 C840 1.479 . S
C845 C844 1.405 . S
C845 H871 0.931 . S
U846 O847 2.454 . S
U846 O848 2.458 . S
U846 C849 2.984 . S
U846 C850 2.847 . S
U846 C863 2.882 . S
U846 O864 2.441 . S
U846 O865 2.420 . S
U846 O866 2.455 . S
U846 O867 2.449 . S
O847 U846 2.454 . S
O847 C849 1.353 . S
O848 U846 2.458 . S
O848 C849 1.286 . S
C849 U846 2.984 . S
C849 O847 1.353 . S
C849 O848 1.286 . S
C849 C851 1.363 . S
C850 C840 1.465 . S
C850 U846 2.847 . S
C850 O864 1.249 . S
C850 O865 1.202 . S
C851 C849 1.363 . S
C851 C853 1.408 . S
C851 C856 1.342 . S
C852 C853 1.310 . S
C852 C855 1.461 . S
C852 H872 0.932 . S
C853 C851 1.408 . S
C853 C852 1.310 . S
C853 H873 0.930 . S
C854 C855 1.474 . S
C854 C856 1.285 . S
C854 H874 0.929 . S
C855 C852 1.461 . S
C855 C854 1.474 . S
C856 C851 1.342 . S
C856 C854 1.285 . S
C856 H875 0.930 . S
C857 C860 1.424 . S
C857 C862 1.245 . S
C857 C863 1.428 . S
C858 C861 1.260 . S
C858 C862 1.477 . S
C858 H876 0.932 . S
C859 C860 1.384 . S
C859 C861 1.479 . S
C859 H877 0.929 . S
C860 C857 1.424 . S
C860 C859 1.384 . S
C860 H878 0.928 . S
C861 C858 1.260 . S
C861 C859 1.479 . S
C862 C857 1.245 . S
C862 C858 1.477 . S
C862 H879 0.932 . S
C863 U846 2.882 . S
C863 C857 1.428 . S
C863 O866 1.301 . S
C863 O867 1.282 . S
O864 U846 2.441 . S
O864 C850 1.249 . S
O865 U846 2.420 . S
O865 C850 1.202 . S
O866 U846 2.455 . S
O866 C863 1.301 . S
O867 U846 2.449 . S
O867 C863 1.282 . S
H868 C841 0.931 . S
H869 C843 0.929 . S
H870 C844 0.930 . S
H871 C845 0.931 . S
H872 C852 0.932 . S
H873 C853 0.930 . S
H874 C854 0.929 . S
H875 C856 0.930 . S
H876 C858 0.932 . S
H877 C859 0.929 . S
H878 C860 0.928 . S
H879 C862 0.932 . S
C880 C881 1.264 . S
C880 C885 1.479 . S
C880 C890 1.465 . S
C881 C880 1.264 . S
C881 C883 1.339 . S
C881 H908 0.931 . S
C882 C883 1.395 . S
C882 C884 1.320 . S
C883 C881 1.339 . S
C883 C882 1.395 . S
C883 H909 0.929 . S
C884 C882 1.320 . S
C884 C885 1.405 . S
C884 H910 0.930 . S
C885 C880 1.479 . S
C885 C884 1.405 . S
C885 H911 0.931 . S
U886 O887 2.454 . S
U886 O888 2.458 . S
U886 C889 2.984 . S
U886 C890 2.847 . S
U886 C903 2.882 . S
U886 O904 2.441 . S
U886 O905 2.420 . S
U886 O906 2.455 . S
U886 O907 2.449 . S
O887 U886 2.454 . S
O887 C889 1.353 . S
O888 U886 2.458 . S
O888 C889 1.286 . S
C889 U886 2.984 . S
C889 O887 1.353 . S
C889 O888 1.286 . S
C889 C891 1.363 . S
C890 C880 1.465 . S
C890 U886 2.847 . S
C890 O904 1.249 . S
C890 O905 1.202 . S
C891 C889 1.363 . S
C891 C893 1.408 . S
C891 C896 1.342 . S
C892 C893 1.310 . S
C892 C895 1.461 . S
C892 H912 0.932 . S
C893 C891 1.408 . S
C893 C892 1.310 . S
C893 H913 0.930 . S
C894 C895 1.474 . S
C894 C896 1.285 . S
C894 H914 0.929 . S
C895 C892 1.461 . S
C895 C894 1.474 . S
C896 C891 1.342 . S
C896 C894 1.285 . S
C896 H915 0.930 . S
C897 C900 1.424 . S
C897 C902 1.245 . S
C897 C903 1.428 . S
C898 C901 1.260 . S
C898 C902 1.477 . S
C898 H916 0.932 . S
C899 C900 1.384 . S
C899 C901 1.479 . S
C899 H917 0.929 . S
C900 C897 1.424 . S
C900 C899 1.384 . S
C900 H918 0.928 . S
C901 C898 1.260 . S
C901 C899 1.479 . S
C902 C897 1.245 . S
C902 C898 1.477 . S
C902 H919 0.932 . S
C903 U886 2.882 . S
C903 C897 1.428 . S
C903 O906 1.301 . S
C903 O907 1.282 . S
O904 U886 2.441 . S
O904 C890 1.249 . S
O905 U886 2.420 . S
O905 C890 1.202 . S
O906 U886 2.455 . S
O906 C903 1.301 . S
O907 U886 2.449 . S
O907 C903 1.282 . S
H908 C881 0.931 . S
H909 C883 0.929 . S
H910 C884 0.930 . S
H911 C885 0.931 . S
H912 C892 0.932 . S
H913 C893 0.930 . S
H914 C894 0.929 . S
H915 C896 0.930 . S
H916 C898 0.932 . S
H917 C899 0.929 . S
H918 C900 0.928 . S
H919 C902 0.932 . S
C920 C921 1.264 . S
C920 C925 1.479 . S
C920 C930 1.465 . S
C921 C920 1.264 . S
C921 C923 1.339 . S
C921 H948 0.931 . S
C922 C923 1.395 . S
C922 C924 1.320 . S
C923 C921 1.339 . S
C923 C922 1.395 . S
C923 H949 0.929 . S
C924 C922 1.320 . S
C924 C925 1.405 . S
C924 H950 0.930 . S
C925 C920 1.479 . S
C925 C924 1.405 . S
C925 H951 0.931 . S
U926 O927 2.454 . S
U926 O928 2.458 . S
U926 C929 2.984 . S
U926 C930 2.847 . S
U926 C943 2.882 . S
U926 O944 2.441 . S
U926 O945 2.420 . S
U926 O946 2.455 . S
U926 O947 2.449 . S
O927 U926 2.454 . S
O927 C929 1.353 . S
O928 U926 2.458 . S
O928 C929 1.286 . S
C929 U926 2.984 . S
C929 O927 1.353 . S
C929 O928 1.286 . S
C929 C931 1.363 . S
C930 C920 1.465 . S
C930 U926 2.847 . S
C930 O944 1.249 . S
C930 O945 1.202 . S
C931 C929 1.363 . S
C931 C933 1.408 . S
C931 C936 1.342 . S
C932 C933 1.310 . S
C932 C935 1.461 . S
C932 H952 0.932 . S
C933 C931 1.408 . S
C933 C932 1.310 . S
C933 H953 0.930 . S
C934 C935 1.474 . S
C934 C936 1.285 . S
C934 H954 0.929 . S
C935 C932 1.461 . S
C935 C934 1.474 . S
C936 C931 1.342 . S
C936 C934 1.285 . S
C936 H955 0.930 . S
C937 C940 1.424 . S
C937 C942 1.245 . S
C937 C943 1.428 . S
C938 C941 1.260 . S
C938 C942 1.477 . S
C938 H956 0.932 . S
C939 C940 1.384 . S
C939 C941 1.479 . S
C939 H957 0.929 . S
C940 C937 1.424 . S
C940 C939 1.384 . S
C940 H958 0.928 . S
C941 C938 1.260 . S
C941 C939 1.479 . S
C942 C937 1.245 . S
C942 C938 1.477 . S
C942 H959 0.932 . S
C943 U926 2.882 . S
C943 C937 1.428 . S
C943 O946 1.301 . S
C943 O947 1.282 . S
O944 U926 2.441 . S
O944 C930 1.249 . S
O945 U926 2.420 . S
O945 C930 1.202 . S
O946 U926 2.455 . S
O946 C943 1.301 . S
O947 U926 2.449 . S
O947 C943 1.282 . S
H948 C921 0.931 . S
H949 C923 0.929 . S
H950 C924 0.930 . S
H951 C925 0.931 . S
H952 C932 0.932 . S
H953 C933 0.930 . S
H954 C934 0.929 . S
H955 C936 0.930 . S
H956 C938 0.932 . S
H957 C939 0.929 . S
H958 C940 0.928 . S
H959 C942 0.932 . S
C960 C961 1.264 . S
C960 C965 1.479 . S
C960 C970 1.465 . S
C961 C960 1.264 . S
C961 C963 1.339 . S
C961 H988 0.931 . S
C962 C963 1.395 . S
C962 C964 1.320 . S
C963 C961 1.339 . S
C963 C962 1.395 . S
C963 H989 0.929 . S
C964 C962 1.320 . S
C964 C965 1.405 . S
C964 H990 0.930 . S
C965 C960 1.479 . S
C965 C964 1.405 . S
C965 H991 0.931 . S
U966 O967 2.454 . S
U966 O968 2.458 . S
U966 C969 2.984 . S
U966 C970 2.847 . S
U966 C983 2.882 . S
U966 O984 2.441 . S
U966 O985 2.420 . S
U966 O986 2.455 . S
U966 O987 2.449 . S
O967 U966 2.454 . S
O967 C969 1.353 . S
O968 U966 2.458 . S
O968 C969 1.286 . S
C969 U966 2.984 . S
C969 O967 1.353 . S
C969 O968 1.286 . S
C969 C971 1.363 . S
C970 C960 1.465 . S
C970 U966 2.847 . S
C970 O984 1.249 . S
C970 O985 1.202 . S
C971 C969 1.363 . S
C971 C973 1.408 . S
C971 C976 1.342 . S
C972 C973 1.310 . S
C972 C975 1.461 . S
C972 H992 0.932 . S
C973 C971 1.408 . S
C973 C972 1.310 . S
C973 H993 0.930 . S
C974 C975 1.474 . S
C974 C976 1.285 . S
C974 H994 0.929 . S
C975 C972 1.461 . S
C975 C974 1.474 . S
C976 C971 1.342 . S
C976 C974 1.285 . S
C976 H995 0.930 . S
C977 C980 1.424 . S
C977 C982 1.245 . S
C977 C983 1.428 . S
C978 C981 1.260 . S
C978 C982 1.477 . S
C978 H996 0.932 . S
C979 C980 1.384 . S
C979 C981 1.479 . S
C979 H997 0.929 . S
C980 C977 1.424 . S
C980 C979 1.384 . S
C980 H998 0.928 . S
C981 C978 1.260 . S
C981 C979 1.479 . S
C982 C977 1.245 . S
C982 C978 1.477 . S
C982 H999 0.932 . S
C983 U966 2.882 . S
C983 C977 1.428 . S
C983 O986 1.301 . S
C983 O987 1.282 . S
O984 U966 2.441 . S
O984 C970 1.249 . S
O985 U966 2.420 . S
O985 C970 1.202 . S
O986 U966 2.455 . S
O986 C983 1.301 . S
O987 U966 2.449 . S
O987 C983 1.282 . S
H988 C961 0.931 . S
H989 C963 0.929 . S
H990 C964 0.930 . S
H991 C965 0.931 . S
H992 C972 0.932 . S
H993 C973 0.930 . S
H994 C974 0.929 . S
H995 C976 0.930 . S
H996 C978 0.932 . S
H997 C979 0.929 . S
H998 C980 0.928 . S
H999 C982 0.932 . S
C1000 C1001 1.264 . S
C1000 C1005 1.479 . S
C1000 C1010 1.465 . S
C1001 C1000 1.264 . S
C1001 C1003 1.339 . S
C1001 H1028 0.931 . S
C1002 C1003 1.395 . S
C1002 C1004 1.320 . S
C1003 C1001 1.339 . S
C1003 C1002 1.395 . S
C1003 H1029 0.929 . S
C1004 C1002 1.320 . S
C1004 C1005 1.405 . S
C1004 H1030 0.930 . S
C1005 C1000 1.479 . S
C1005 C1004 1.405 . S
C1005 H1031 0.931 . S
U1006 O1007 2.454 . S
U1006 O1008 2.458 . S
U1006 C1009 2.984 . S
U1006 C1010 2.847 . S
U1006 C1023 2.882 . S
U1006 O1024 2.441 . S
U1006 O1025 2.420 . S
U1006 O1026 2.455 . S
U1006 O1027 2.449 . S
O1007 U1006 2.454 . S
O1007 C1009 1.353 . S
O1008 U1006 2.458 . S
O1008 C1009 1.286 . S
C1009 U1006 2.984 . S
C1009 O1007 1.353 . S
C1009 O1008 1.286 . S
C1009 C1011 1.363 . S
C1010 C1000 1.465 . S
C1010 U1006 2.847 . S
C1010 O1024 1.249 . S
C1010 O1025 1.202 . S
C1011 C1009 1.363 . S
C1011 C1013 1.408 . S
C1011 C1016 1.342 . S
C1012 C1013 1.310 . S
C1012 C1015 1.461 . S
C1012 H1032 0.932 . S
C1013 C1011 1.408 . S
C1013 C1012 1.310 . S
C1013 H1033 0.930 . S
C1014 C1015 1.474 . S
C1014 C1016 1.285 . S
C1014 H1034 0.929 . S
C1015 C1012 1.461 . S
C1015 C1014 1.474 . S
C1016 C1011 1.342 . S
C1016 C1014 1.285 . S
C1016 H1035 0.930 . S
C1017 C1020 1.424 . S
C1017 C1022 1.245 . S
C1017 C1023 1.428 . S
C1018 C1021 1.260 . S
C1018 C1022 1.477 . S
C1018 H1036 0.932 . S
C1019 C1020 1.384 . S
C1019 C1021 1.479 . S
C1019 H1037 0.929 . S
C1020 C1017 1.424 . S
C1020 C1019 1.384 . S
C1020 H1038 0.928 . S
C1021 C1018 1.260 . S
C1021 C1019 1.479 . S
C1022 C1017 1.245 . S
C1022 C1018 1.477 . S
C1022 H1039 0.932 . S
C1023 U1006 2.882 . S
C1023 C1017 1.428 . S
C1023 O1026 1.301 . S
C1023 O1027 1.282 . S
O1024 U1006 2.441 . S
O1024 C1010 1.249 . S
O1025 U1006 2.420 . S
O1025 C1010 1.202 . S
O1026 U1006 2.455 . S
O1026 C1023 1.301 . S
O1027 U1006 2.449 . S
O1027 C1023 1.282 . S
H1028 C1001 0.931 . S
H1029 C1003 0.929 . S
H1030 C1004 0.930 . S
H1031 C1005 0.931 . S
H1032 C1012 0.932 . S
H1033 C1013 0.930 . S
H1034 C1014 0.929 . S
H1035 C1016 0.930 . S
H1036 C1018 0.932 . S
H1037 C1019 0.929 . S
H1038 C1020 0.928 . S
H1039 C1022 0.932 . S
C1040 C1041 1.264 . S
C1040 C1045 1.479 . S
C1040 C1050 1.465 . S
C1041 C1040 1.264 . S
C1041 C1043 1.339 . S
C1041 H1068 0.931 . S
C1042 C1043 1.395 . S
C1042 C1044 1.320 . S
C1043 C1041 1.339 . S
C1043 C1042 1.395 . S
C1043 H1069 0.929 . S
C1044 C1042 1.320 . S
C1044 C1045 1.405 . S
C1044 H1070 0.930 . S
C1045 C1040 1.479 . S
C1045 C1044 1.405 . S
C1045 H1071 0.931 . S
U1046 O1047 2.454 . S
U1046 O1048 2.458 . S
U1046 C1049 2.984 . S
U1046 C1050 2.847 . S
U1046 C1063 2.882 . S
U1046 O1064 2.441 . S
U1046 O1065 2.420 . S
U1046 O1066 2.455 . S
U1046 O1067 2.449 . S
O1047 U1046 2.454 . S
O1047 C1049 1.353 . S
O1048 U1046 2.458 . S
O1048 C1049 1.286 . S
C1049 U1046 2.984 . S
C1049 O1047 1.353 . S
C1049 O1048 1.286 . S
C1049 C1051 1.363 . S
C1050 C1040 1.465 . S
C1050 U1046 2.847 . S
C1050 O1064 1.249 . S
C1050 O1065 1.202 . S
C1051 C1049 1.363 . S
C1051 C1053 1.408 . S
C1051 C1056 1.342 . S
C1052 C1053 1.310 . S
C1052 C1055 1.461 . S
C1052 H1072 0.932 . S
C1053 C1051 1.408 . S
C1053 C1052 1.310 . S
C1053 H1073 0.930 . S
C1054 C1055 1.474 . S
C1054 C1056 1.285 . S
C1054 H1074 0.929 . S
C1055 C1052 1.461 . S
C1055 C1054 1.474 . S
C1056 C1051 1.342 . S
C1056 C1054 1.285 . S
C1056 H1075 0.930 . S
C1057 C1060 1.424 . S
C1057 C1062 1.245 . S
C1057 C1063 1.428 . S
C1058 C1061 1.260 . S
C1058 C1062 1.477 . S
C1058 H1076 0.932 . S
C1059 C1060 1.384 . S
C1059 C1061 1.479 . S
C1059 H1077 0.929 . S
C1060 C1057 1.424 . S
C1060 C1059 1.384 . S
C1060 H1078 0.928 . S
C1061 C1058 1.260 . S
C1061 C1059 1.479 . S
C1062 C1057 1.245 . S
C1062 C1058 1.477 . S
C1062 H1079 0.932 . S
C1063 U1046 2.882 . S
C1063 C1057 1.428 . S
C1063 O1066 1.301 . S
C1063 O1067 1.282 . S
O1064 U1046 2.441 . S
O1064 C1050 1.249 . S
O1065 U1046 2.420 . S
O1065 C1050 1.202 . S
O1066 U1046 2.455 . S
O1066 C1063 1.301 . S
O1067 U1046 2.449 . S
O1067 C1063 1.282 . S
H1068 C1041 0.931 . S
H1069 C1043 0.929 . S
H1070 C1044 0.930 . S
H1071 C1045 0.931 . S
H1072 C1052 0.932 . S
H1073 C1053 0.930 . S
H1074 C1054 0.929 . S
H1075 C1056 0.930 . S
H1076 C1058 0.932 . S
H1077 C1059 0.929 . S
H1078 C1060 0.928 . S
H1079 C1062 0.932 . S
C1080 C1081 1.264 . S
C1080 C1085 1.479 . S
C1080 C1090 1.465 . S
C1081 C1080 1.264 . S
C1081 C1083 1.339 . S
C1081 H1108 0.931 . S
C1082 C1083 1.395 . S
C1082 C1084 1.320 . S
C1083 C1081 1.339 . S
C1083 C1082 1.395 . S
C1083 H1109 0.929 . S
C1084 C1082 1.320 . S
C1084 C1085 1.405 . S
C1084 H1110 0.930 . S
C1085 C1080 1.479 . S
C1085 C1084 1.405 . S
C1085 H1111 0.931 . S
U1086 O1087 2.454 . S
U1086 O1088 2.458 . S
U1086 C1089 2.984 . S
U1086 C1090 2.847 . S
U1086 C1103 2.882 . S
U1086 O1104 2.441 . S
U1086 O1105 2.420 . S
U1086 O1106 2.455 . S
U1086 O1107 2.449 . S
O1087 U1086 2.454 . S
O1087 C1089 1.353 . S
O1088 U1086 2.458 . S
O1088 C1089 1.286 . S
C1089 U1086 2.984 . S
C1089 O1087 1.353 . S
C1089 O1088 1.286 . S
C1089 C1091 1.363 . S
C1090 C1080 1.465 . S
C1090 U1086 2.847 . S
C1090 O1104 1.249 . S
C1090 O1105 1.202 . S
C1091 C1089 1.363 . S
C1091 C1093 1.408 . S
C1091 C1096 1.342 . S
C1092 C1093 1.310 . S
C1092 C1095 1.461 . S
C1092 H1112 0.932 . S
C1093 C1091 1.408 . S
C1093 C1092 1.310 . S
C1093 H1113 0.930 . S
C1094 C1095 1.474 . S
C1094 C1096 1.285 . S
C1094 H1114 0.929 . S
C1095 C1092 1.461 . S
C1095 C1094 1.474 . S
C1096 C1091 1.342 . S
C1096 C1094 1.285 . S
C1096 H1115 0.930 . S
C1097 C1100 1.424 . S
C1097 C1102 1.245 . S
C1097 C1103 1.428 . S
C1098 C1101 1.260 . S
C1098 C1102 1.477 . S
C1098 H1116 0.932 . S
C1099 C1100 1.384 . S
C1099 C1101 1.479 . S
C1099 H1117 0.929 . S
C1100 C1097 1.424 . S
C1100 C1099 1.384 . S
C1100 H1118 0.928 . S
C1101 C1098 1.260 . S
C1101 C1099 1.479 . S
C1102 C1097 1.245 . S
C1102 C1098 1.477 . S
C1102 H1119 0.932 . S
C1103 U1086 2.882 . S
C1103 C1097 1.428 . S
C1103 O1106 1.301 . S
C1103 O1107 1.282 . S
O1104 U1086 2.441 . S
O1104 C1090 1.249 . S
O1105 U1086 2.420 . S
O1105 C1090 1.202 . S
O1106 U1086 2.455 . S
O1106 C1103 1.301 . S
O1107 U1086 2.449 . S
O1107 C1103 1.282 . S
H1108 C1081 0.931 . S
H1109 C1083 0.929 . S
H1110 C1084 0.930 . S
H1111 C1085 0.931 . S
H1112 C1092 0.932 . S
H1113 C1093 0.930 . S
H1114 C1094 0.929 . S
H1115 C1096 0.930 . S
H1116 C1098 0.932 . S
H1117 C1099 0.929 . S
H1118 C1100 0.928 . S
H1119 C1102 0.932 . S
C1120 C1121 1.264 . S
C1120 C1125 1.479 . S
C1120 C1130 1.465 . S
C1121 C1120 1.264 . S
C1121 C1123 1.339 . S
C1121 H1148 0.931 . S
C1122 C1123 1.395 . S
C1122 C1124 1.320 . S
C1123 C1121 1.339 . S
C1123 C1122 1.395 . S
C1123 H1149 0.929 . S
C1124 C1122 1.320 . S
C1124 C1125 1.405 . S
C1124 H1150 0.930 . S
C1125 C1120 1.479 . S
C1125 C1124 1.405 . S
C1125 H1151 0.931 . S
U1126 O1127 2.454 . S
U1126 O1128 2.458 . S
U1126 C1129 2.984 . S
U1126 C1130 2.847 . S
U1126 C1143 2.882 . S
U1126 O1144 2.441 . S
U1126 O1145 2.420 . S
U1126 O1146 2.455 . S
U1126 O1147 2.449 . S
O1127 U1126 2.454 . S
O1127 C1129 1.353 . S
O1128 U1126 2.458 . S
O1128 C1129 1.286 . S
C1129 U1126 2.984 . S
C1129 O1127 1.353 . S
C1129 O1128 1.286 . S
C1129 C1131 1.363 . S
C1130 C1120 1.465 . S
C1130 U1126 2.847 . S
C1130 O1144 1.249 . S
C1130 O1145 1.202 . S
C1131 C1129 1.363 . S
C1131 C1133 1.408 . S
C1131 C1136 1.342 . S
C1132 C1133 1.310 . S
C1132 C1135 1.461 . S
C1132 H1152 0.932 . S
C1133 C1131 1.408 . S
C1133 C1132 1.310 . S
C1133 H1153 0.930 . S
C1134 C1135 1.474 . S
C1134 C1136 1.285 . S
C1134 H1154 0.929 . S
C1135 C1132 1.461 . S
C1135 C1134 1.474 . S
C1136 C1131 1.342 . S
C1136 C1134 1.285 . S
C1136 H1155 0.930 . S
C1137 C1140 1.424 . S
C1137 C1142 1.245 . S
C1137 C1143 1.428 . S
C1138 C1141 1.260 . S
C1138 C1142 1.477 . S
C1138 H1156 0.932 . S
C1139 C1140 1.384 . S
C1139 C1141 1.479 . S
C1139 H1157 0.929 . S
C1140 C1137 1.424 . S
C1140 C1139 1.384 . S
C1140 H1158 0.928 . S
C1141 C1138 1.260 . S
C1141 C1139 1.479 . S
C1142 C1137 1.245 . S
C1142 C1138 1.477 . S
C1142 H1159 0.932 . S
C1143 U1126 2.882 . S
C1143 C1137 1.428 . S
C1143 O1146 1.301 . S
C1143 O1147 1.282 . S
O1144 U1126 2.441 . S
O1144 C1130 1.249 . S
O1145 U1126 2.420 . S
O1145 C1130 1.202 . S
O1146 U1126 2.455 . S
O1146 C1143 1.301 . S
O1147 U1126 2.449 . S
O1147 C1143 1.282 . S
H1148 C1121 0.931 . S
H1149 C1123 0.929 . S
H1150 C1124 0.930 . S
H1151 C1125 0.931 . S
H1152 C1132 0.932 . S
H1153 C1133 0.930 . S
H1154 C1134 0.929 . S
H1155 C1136 0.930 . S
H1156 C1138 0.932 . S
H1157 C1139 0.929 . S
H1158 C1140 0.928 . S
H1159 C1142 0.932 . S
C1160 C1161 1.264 . S
C1160 C1165 1.479 . S
C1160 C1170 1.465 . S
C1161 C1160 1.264 . S
C1161 C1163 1.339 . S
C1161 H1188 0.931 . S
C1162 C1163 1.395 . S
C1162 C1164 1.320 . S
C1163 C1161 1.339 . S
C1163 C1162 1.395 . S
C1163 H1189 0.929 . S
C1164 C1162 1.320 . S
C1164 C1165 1.405 . S
C1164 H1190 0.930 . S
C1165 C1160 1.479 . S
C1165 C1164 1.405 . S
C1165 H1191 0.931 . S
U1166 O1167 2.454 . S
U1166 O1168 2.458 . S
U1166 C1169 2.984 . S
U1166 C1170 2.847 . S
U1166 C1183 2.882 . S
U1166 O1184 2.441 . S
U1166 O1185 2.420 . S
U1166 O1186 2.455 . S
U1166 O1187 2.449 . S
O1167 U1166 2.454 . S
O1167 C1169 1.353 . S
O1168 U1166 2.458 . S
O1168 C1169 1.286 . S
C1169 U1166 2.984 . S
C1169 O1167 1.353 . S
C1169 O1168 1.286 . S
C1169 C1171 1.363 . S
C1170 C1160 1.465 . S
C1170 U1166 2.847 . S
C1170 O1184 1.249 . S
C1170 O1185 1.202 . S
C1171 C1169 1.363 . S
C1171 C1173 1.408 . S
C1171 C1176 1.342 . S
C1172 C1173 1.310 . S
C1172 C1175 1.461 . S
C1172 H1192 0.932 . S
C1173 C1171 1.408 . S
C1173 C1172 1.310 . S
C1173 H1193 0.930 . S
C1174 C1175 1.474 . S
C1174 C1176 1.285 . S
C1174 H1194 0.929 . S
C1175 C1172 1.461 . S
C1175 C1174 1.474 . S
C1176 C1171 1.342 . S
C1176 C1174 1.285 . S
C1176 H1195 0.930 . S
C1177 C1180 1.424 . S
C1177 C1182 1.245 . S
C1177 C1183 1.428 . S
C1178 C1181 1.260 . S
C1178 C1182 1.477 . S
C1178 H1196 0.932 . S
C1179 C1180 1.384 . S
C1179 C1181 1.479 . S
C1179 H1197 0.929 . S
C1180 C1177 1.424 . S
C1180 C1179 1.384 . S
C1180 H1198 0.928 . S
C1181 C1178 1.260 . S
C1181 C1179 1.479 . S
C1182 C1177 1.245 . S
C1182 C1178 1.477 . S
C1182 H1199 0.932 . S
C1183 U1166 2.882 . S
C1183 C1177 1.428 . S
C1183 O1186 1.301 . S
C1183 O1187 1.282 . S
O1184 U1166 2.441 . S
O1184 C1170 1.249 . S
O1185 U1166 2.420 . S
O1185 C1170 1.202 . S
O1186 U1166 2.455 . S
O1186 C1183 1.301 . S
O1187 U1166 2.449 . S
O1187 C1183 1.282 . S
H1188 C1161 0.931 . S
H1189 C1163 0.929 . S
H1190 C1164 0.930 . S
H1191 C1165 0.931 . S
H1192 C1172 0.932 . S
H1193 C1173 0.930 . S
H1194 C1174 0.929 . S
H1195 C1176 0.930 . S
H1196 C1178 0.932 . S
H1197 C1179 0.929 . S
H1198 C1180 0.928 . S
H1199 C1182 0.932 . S
C1200 C1201 1.264 . S
C1200 C1205 1.479 . S
C1200 C1210 1.465 . S
C1201 C1200 1.264 . S
C1201 C1203 1.339 . S
C1201 H1228 0.931 . S
C1202 C1203 1.395 . S
C1202 C1204 1.320 . S
C1203 C1201 1.339 . S
C1203 C1202 1.395 . S
C1203 H1229 0.929 . S
C1204 C1202 1.320 . S
C1204 C1205 1.405 . S
C1204 H1230 0.930 . S
C1205 C1200 1.479 . S
C1205 C1204 1.405 . S
C1205 H1231 0.931 . S
U1206 O1207 2.454 . S
U1206 O1208 2.458 . S
U1206 C1209 2.984 . S
U1206 C1210 2.847 . S
U1206 C1223 2.882 . S
U1206 O1224 2.441 . S
U1206 O1225 2.420 . S
U1206 O1226 2.455 . S
U1206 O1227 2.449 . S
O1207 U1206 2.454 . S
O1207 C1209 1.353 . S
O1208 U1206 2.458 . S
O1208 C1209 1.286 . S
C1209 U1206 2.984 . S
C1209 O1207 1.353 . S
C1209 O1208 1.286 . S
C1209 C1211 1.363 . S
C1210 C1200 1.465 . S
C1210 U1206 2.847 . S
C1210 O1224 1.249 . S
C1210 O1225 1.202 . S
C1211 C1209 1.363 . S
C1211 C1213 1.408 . S
C1211 C1216 1.342 . S
C1212 C1213 1.310 . S
C1212 C1215 1.461 . S
C1212 H1232 0.932 . S
C1213 C1211 1.408 . S
C1213 C1212 1.310 . S
C1213 H1233 0.930 . S
C1214 C1215 1.474 . S
C1214 C1216 1.285 . S
C1214 H1234 0.929 . S
C1215 C1212 1.461 . S
C1215 C1214 1.474 . S
C1216 C1211 1.342 . S
C1216 C1214 1.285 . S
C1216 H1235 0.930 . S
C1217 C1220 1.424 . S
C1217 C1222 1.245 . S
C1217 C1223 1.428 . S
C1218 C1221 1.260 . S
C1218 C1222 1.477 . S
C1218 H1236 0.932 . S
C1219 C1220 1.384 . S
C1219 C1221 1.479 . S
C1219 H1237 0.929 . S
C1220 C1217 1.424 . S
C1220 C1219 1.384 . S
C1220 H1238 0.928 . S
C1221 C1218 1.260 . S
C1221 C1219 1.479 . S
C1222 C1217 1.245 . S
C1222 C1218 1.477 . S
C1222 H1239 0.932 . S
C1223 U1206 2.882 . S
C1223 C1217 1.428 . S
C1223 O1226 1.301 . S
C1223 O1227 1.282 . S
O1224 U1206 2.441 . S
O1224 C1210 1.249 . S
O1225 U1206 2.420 . S
O1225 C1210 1.202 . S
O1226 U1206 2.455 . S
O1226 C1223 1.301 . S
O1227 U1206 2.449 . S
O1227 C1223 1.282 . S
H1228 C1201 0.931 . S
H1229 C1203 0.929 . S
H1230 C1204 0.930 . S
H1231 C1205 0.931 . S
H1232 C1212 0.932 . S
H1233 C1213 0.930 . S
H1234 C1214 0.929 . S
H1235 C1216 0.930 . S
H1236 C1218 0.932 . S
H1237 C1219 0.929 . S
H1238 C1220 0.928 . S
H1239 C1222 0.932 . S
C1240 C1241 1.264 . S
C1240 C1245 1.479 . S
C1240 C1250 1.465 . S
C1241 C1240 1.264 . S
C1241 C1243 1.339 . S
C1241 H1268 0.931 . S
C1242 C1243 1.395 . S
C1242 C1244 1.320 . S
C1243 C1241 1.339 . S
C1243 C1242 1.395 . S
C1243 H1269 0.929 . S
C1244 C1242 1.320 . S
C1244 C1245 1.405 . S
C1244 H1270 0.930 . S
C1245 C1240 1.479 . S
C1245 C1244 1.405 . S
C1245 H1271 0.931 . S
U1246 O1247 2.454 . S
U1246 O1248 2.458 . S
U1246 C1249 2.984 . S
U1246 C1250 2.847 . S
U1246 C1263 2.882 . S
U1246 O1264 2.441 . S
U1246 O1265 2.420 . S
U1246 O1266 2.455 . S
U1246 O1267 2.449 . S
O1247 U1246 2.454 . S
O1247 C1249 1.353 . S
O1248 U1246 2.458 . S
O1248 C1249 1.286 . S
C1249 U1246 2.984 . S
C1249 O1247 1.353 . S
C1249 O1248 1.286 . S
C1249 C1251 1.363 . S
C1250 C1240 1.465 . S
C1250 U1246 2.847 . S
C1250 O1264 1.249 . S
C1250 O1265 1.202 . S
C1251 C1249 1.363 . S
C1251 C1253 1.408 . S
C1251 C1256 1.342 . S
C1252 C1253 1.310 . S
C1252 C1255 1.461 . S
C1252 H1272 0.932 . S
C1253 C1251 1.408 . S
C1253 C1252 1.310 . S
C1253 H1273 0.930 . S
C1254 C1255 1.474 . S
C1254 C1256 1.285 . S
C1254 H1274 0.929 . S
C1255 C1252 1.461 . S
C1255 C1254 1.474 . S
C1256 C1251 1.342 . S
C1256 C1254 1.285 . S
C1256 H1275 0.930 . S
C1257 C1260 1.424 . S
C1257 C1262 1.245 . S
C1257 C1263 1.428 . S
C1258 C1261 1.260 . S
C1258 C1262 1.477 . S
C1258 H1276 0.932 . S
C1259 C1260 1.384 . S
C1259 C1261 1.479 . S
C1259 H1277 0.929 . S
C1260 C1257 1.424 . S
C1260 C1259 1.384 . S
C1260 H1278 0.928 . S
C1261 C1258 1.260 . S
C1261 C1259 1.479 . S
C1262 C1257 1.245 . S
C1262 C1258 1.477 . S
C1262 H1279 0.932 . S
C1263 U1246 2.882 . S
C1263 C1257 1.428 . S
C1263 O1266 1.301 . S
C1263 O1267 1.282 . S
O1264 U1246 2.441 . S
O1264 C1250 1.249 . S
O1265 U1246 2.420 . S
O1265 C1250 1.202 . S
O1266 U1246 2.455 . S
O1266 C1263 1.301 . S
O1267 U1246 2.449 . S
O1267 C1263 1.282 . S
H1268 C1241 0.931 . S
H1269 C1243 0.929 . S
H1270 C1244 0.930 . S
H1271 C1245 0.931 . S
H1272 C1252 0.932 . S
H1273 C1253 0.930 . S
H1274 C1254 0.929 . S
H1275 C1256 0.930 . S
H1276 C1258 0.932 . S
H1277 C1259 0.929 . S
H1278 C1260 0.928 . S
H1279 C1262 0.932 . S
H1280 C1286 0.930 . S
H1281 C1290 0.960 . S
H1282 C1295 0.969 . S
H1283 C1293 0.929 . S
H1284 C1288 0.959 . S
H1285 C1294 0.929 . S
C1286 H1280 0.930 . S
C1286 C1287 1.367 . S
C1286 C1294 1.378 . S
C1287 C1286 1.367 . S
C1287 C1295 1.395 1_565 S
C1288 H1284 0.959 . S
C1288 C1290 1.378 . S
C1288 C1292 1.321 1_545 S
C1289 C1292 1.463 . S
C1289 C1294 1.350 . S
C1289 N1297 1.396 1_565 S
C1290 H1281 0.960 . S
C1290 C1288 1.378 . S
C1290 C1291 1.338 1_545 S
C1291 C1290 1.338 1_565 S
C1291 C1293 1.433 . S
C1292 C1288 1.321 1_565 S
C1292 C1289 1.463 . S
C1292 N1296 1.427 . S
C1293 H1283 0.929 . S
C1293 C1291 1.433 . S
C1293 N1296 1.384 . S
C1294 H1285 0.929 . S
C1294 C1286 1.378 . S
C1294 C1289 1.350 . S
C1295 H1282 0.969 . S
C1295 C1287 1.395 1_545 S
C1295 N1297 1.384 . S
N1296 C1292 1.427 . S
N1296 C1293 1.384 . S
N1297 C1289 1.396 1_545 S
N1297 C1295 1.384 . S
H1298 C1304 0.930 . S
H1299 C1308 0.930 . S
H1300 C1313 0.929 . S
H1301 C1311 0.929 . S
H1302 C1306 0.929 . S
H1303 C1312 0.929 . S
C1304 H1298 0.930 . S
C1304 C1305 1.367 . S
C1304 C1312 1.378 . S
C1305 C1304 1.367 . S
C1305 C1313 1.433 . S
C1306 H1302 0.929 . S
C1306 C1308 1.378 . S
C1306 C1310 1.350 . S
C1307 C1310 1.463 1_545 S
C1307 C1312 1.350 . S
C1307 N1315 1.432 . S
C1308 H1299 0.930 . S
C1308 C1306 1.378 . S
C1308 C1309 1.367 . S
C1309 C1308 1.367 . S
C1309 C1311 1.433 . S
C1310 C1306 1.350 . S
C1310 C1307 1.463 1_565 S
C1310 N1314 1.432 . S
C1311 H1301 0.929 . S
C1311 C1309 1.433 . S
C1311 N1314 1.392 . S
C1312 H1303 0.929 . S
C1312 C1304 1.378 . S
C1312 C1307 1.350 . S
C1313 H1300 0.929 . S
C1313 C1305 1.433 . S
C1313 N1315 1.392 . S
N1314 C1310 1.432 . S
N1314 C1311 1.392 . S
N1315 C1307 1.432 . S
N1315 C1313 1.392 . S
H1316 C1322 0.930 . S
H1317 C1326 0.930 . S
H1318 C1331 0.929 . S
H1319 C1329 0.929 . S
H1320 C1324 0.929 . S
H1321 C1330 0.929 . S
C1322 H1316 0.930 . S
C1322 C1323 1.367 1_565 S
C1322 C1330 1.378 . S
C1323 C1322 1.367 1_545 S
C1323 C1331 1.433 . S
C1324 H1320 0.929 . S
C1324 C1326 1.378 . S
C1324 C1328 1.350 . S
C1325 C1328 1.463 . S
C1325 C1330 1.350 1_545 S
C1325 N1333 1.427 . S
C1326 H1317 0.930 . S
C1326 C1324 1.378 . S
C1326 C1327 1.367 . S
C1327 C1326 1.367 . S
C1327 C1329 1.433 1_545 S
C1328 C1324 1.350 . S
C1328 C1325 1.463 . S
C1328 N1332 1.427 1_545 S
C1329 H1319 0.929 . S
C1329 C1327 1.433 1_565 S
C1329 N1332 1.384 . S
C1330 H1321 0.929 . S
C1330 C1322 1.378 . S
C1330 C1325 1.350 1_565 S
C1331 H1318 0.929 . S
C1331 C1323 1.433 . S
C1331 N1333 1.384 . S
N1332 C1328 1.427 1_565 S
N1332 C1329 1.384 . S
N1333 C1325 1.427 . S
N1333 C1331 1.384 . S
H1334 C1340 0.930 . S
H1335 C1344 0.930 . S
H1336 C1349 0.929 . S
H1337 C1347 0.929 . S
H1338 C1342 0.929 1_554 S
H1339 C1348 0.929 1_556 S
C1340 H1334 0.930 . S
C1340 C1341 1.367 . S
C1340 C1348 1.378 . S
C1341 C1340 1.367 . S
C1341 C1349 1.433 . S
C1342 H1338 0.929 1_556 S
C1342 C1344 1.378 . S
C1342 C1346 1.350 . S
C1343 C1346 1.463 1_544 S
C1343 C1348 1.350 . S
C1343 N1351 1.427 1_545 S
C1344 H1335 0.930 . S
C1344 C1342 1.378 . S
C1344 C1345 1.367 . S
C1345 C1344 1.367 . S
C1345 C1347 1.433 . S
C1346 C1342 1.350 . S
C1346 C1343 1.463 1_566 S
C1346 N1350 1.427 1_565 S
C1347 H1337 0.929 . S
C1347 C1345 1.433 . S
C1347 N1350 1.384 1_565 S
C1348 H1339 0.929 1_554 S
C1348 C1340 1.378 . S
C1348 C1343 1.350 . S
C1349 H1336 0.929 . S
C1349 C1341 1.433 . S
C1349 N1351 1.384 1_545 S
N1350 C1346 1.427 1_545 S
N1350 C1347 1.384 1_545 S
N1351 C1343 1.427 1_565 S
N1351 C1349 1.384 1_565 S
H1352 C1358 0.930 . S
H1353 C1362 0.930 . S
H1354 C1367 0.929 . S
H1355 C1365 0.929 . S
H1356 C1360 0.929 . S
H1357 C1366 0.929 . S
C1358 H1352 0.930 . S
C1358 C1359 1.367 . S
C1358 C1366 1.378 . S
C1359 C1358 1.367 . S
C1359 C1367 1.433 1_545 S
C1360 H1356 0.929 . S
C1360 C1362 1.378 . S
C1360 C1364 1.350 1_565 S
C1361 C1364 1.463 . S
C1361 C1366 1.350 . S
C1361 N1369 1.427 1_545 S
C1362 H1353 0.930 . S
C1362 C1360 1.378 . S
C1362 C1363 1.367 1_565 S
C1363 C1362 1.367 1_545 S
C1363 C1365 1.433 . S
C1364 C1360 1.350 1_545 S
C1364 C1361 1.463 . S
C1364 N1368 1.427 . S
C1365 H1355 0.929 . S
C1365 C1363 1.433 . S
C1365 N1368 1.384 . S
C1366 H1357 0.929 . S
C1366 C1358 1.378 . S
C1366 C1361 1.350 . S
C1367 H1354 0.929 . S
C1367 C1359 1.433 1_565 S
C1367 N1369 1.384 . S
N1368 C1364 1.427 . S
N1368 C1365 1.384 . S
N1369 C1361 1.427 1_565 S
N1369 C1367 1.384 . S
H1370 C1376 0.930 . S
H1371 C1380 0.930 . S
H1372 C1385 0.929 . S
H1373 C1383 0.929 . S
H1374 C1378 0.929 . S
H1375 C1384 0.929 . S
C1376 H1370 0.930 . S
C1376 C1377 1.367 . S
C1376 C1384 1.378 1_565 S
C1377 C1376 1.367 . S
C1377 C1385 1.433 . S
C1378 H1374 0.929 . S
C1378 C1380 1.378 1_565 S
C1378 C1382 1.350 1_565 S
C1379 C1382 1.463 1_565 S
C1379 C1384 1.350 1_565 S
C1379 N1387 1.427 . S
C1380 H1371 0.930 . S
C1380 C1378 1.378 1_545 S
C1380 C1381 1.367 . S
C1381 C1380 1.367 . S
C1381 C1383 1.433 . S
C1382 C1378 1.350 1_545 S
C1382 C1379 1.463 1_545 S
C1382 N1386 1.427 . S
C1383 H1373 0.929 . S
C1383 C1381 1.433 . S
C1383 N1386 1.384 . S
C1384 H1375 0.929 . S
C1384 C1376 1.378 1_545 S
C1384 C1379 1.350 1_545 S
C1385 H1372 0.929 . S
C1385 C1377 1.433 . S
C1385 N1387 1.384 . S
N1386 C1382 1.427 . S
N1386 C1383 1.384 . S
N1387 C1379 1.427 . S
N1387 C1385 1.384 . S
H1388 C1394 0.930 . S
H1389 C1398 0.930 . S
H1390 C1403 0.929 . S
H1391 C1401 0.929 . S
H1392 C1396 0.929 . S
H1393 C1402 0.929 . S
C1394 H1388 0.930 . S
C1394 C1395 1.367 1_545 S
C1394 C1402 1.378 . S
C1395 C1394 1.367 1_565 S
C1395 C1403 1.433 . S
C1396 H1392 0.929 . S
C1396 C1398 1.378 . S
C1396 C1400 1.350 . S
C1397 C1400 1.463 . S
C1397 C1402 1.350 1_565 S
C1397 N1405 1.427 . S
C1398 H1389 0.930 . S
C1398 C1396 1.378 . S
C1398 C1399 1.367 . S
C1399 C1398 1.367 . S
C1399 C1401 1.433 1_565 S
C1400 C1396 1.350 . S
C1400 C1397 1.463 . S
C1400 N1404 1.427 1_565 S
C1401 H1391 0.929 . S
C1401 C1399 1.433 1_545 S
C1401 N1404 1.384 . S
C1402 H1393 0.929 . S
C1402 C1394 1.378 . S
C1402 C1397 1.350 1_545 S
C1403 H1390 0.929 . S
C1403 C1395 1.433 . S
C1403 N1405 1.384 . S
N1404 C1400 1.427 1_545 S
N1404 C1401 1.384 . S
N1405 C1397 1.427 . S
N1405 C1403 1.384 . S
H1406 C1412 0.930 . S
H1407 C1416 0.930 . S
H1408 C1421 0.929 . S
H1409 C1419 0.929 . S
H1410 C1414 0.929 . S
H1411 C1420 0.929 . S
C1412 H1406 0.930 . S
C1412 C1413 1.367 . S
C1412 C1420 1.378 . S
C1413 C1412 1.367 . S
C1413 C1421 1.433 . S
C1414 H1410 0.929 . S
C1414 C1416 1.378 . S
C1414 C1418 1.350 . S
C1415 C1418 1.463 1_544 S
C1415 C1420 1.350 . S
C1415 N1423 1.427 . S
C1416 H1407 0.930 . S
C1416 C1414 1.378 . S
C1416 C1417 1.367 . S
C1417 C1416 1.367 . S
C1417 C1419 1.433 . S
C1418 C1414 1.350 . S
C1418 C1415 1.463 1_566 S
C1418 N1422 1.427 . S
C1419 H1409 0.929 . S
C1419 C1417 1.433 . S
C1419 N1422 1.384 . S
C1420 H1411 0.929 . S
C1420 C1412 1.378 . S
C1420 C1415 1.350 . S
C1421 H1408 0.929 . S
C1421 C1413 1.433 . S
C1421 N1423 1.384 . S
N1422 C1418 1.427 . S
N1422 C1419 1.384 . S
N1423 C1415 1.427 . S
N1423 C1421 1.384 . S
H1424 C1430 0.930 . S
H1425 C1434 0.930 . S
H1426 C1439 0.929 . S
H1427 C1437 0.929 . S
H1428 C1432 0.929 . S
H1429 C1438 0.929 . S
C1430 H1424 0.930 . S
C1430 C1431 1.367 . S
C1430 C1438 1.378 . S
C1431 C1430 1.367 . S
C1431 C1439 1.433 . S
C1432 H1428 0.929 . S
C1432 C1434 1.378 . S
C1432 C1436 1.350 . S
C1433 C1436 1.463 . S
C1433 C1438 1.350 . S
C1433 N1441 1.427 . S
C1434 H1425 0.930 . S
C1434 C1432 1.378 . S
C1434 C1435 1.367 . S
C1435 C1434 1.367 . S
C1435 C1437 1.433 . S
C1436 C1432 1.350 . S
C1436 C1433 1.463 . S
C1436 N1440 1.427 . S
C1437 H1427 0.929 . S
C1437 C1435 1.433 . S
C1437 N1440 1.384 . S
C1438 H1429 0.929 . S
C1438 C1430 1.378 . S
C1438 C1433 1.350 . S
C1439 H1426 0.929 . S
C1439 C1431 1.433 . S
C1439 N1441 1.384 . S
N1440 C1436 1.427 . S
N1440 C1437 1.384 . S
N1441 C1433 1.427 . S
N1441 C1439 1.384 . S
H1442 C1448 0.930 . S
H1443 C1452 0.930 . S
H1444 C1457 0.929 . S
H1445 C1455 0.929 . S
H1446 C1450 0.929 . S
H1447 C1456 0.929 . S
C1448 H1442 0.930 . S
C1448 C1449 1.367 . S
C1448 C1456 1.378 . S
C1449 C1448 1.367 . S
C1449 C1457 1.433 . S
C1450 H1446 0.929 . S
C1450 C1452 1.378 . S
C1450 C1454 1.350 . S
C1451 C1454 1.463 1_556 S
C1451 C1456 1.350 . S
C1451 N1459 1.427 . S
C1452 H1443 0.930 . S
C1452 C1450 1.378 . S
C1452 C1453 1.367 . S
C1453 C1452 1.367 . S
C1453 C1455 1.433 . S
C1454 C1450 1.350 . S
C1454 C1451 1.463 1_554 S
C1454 N1458 1.427 . S
C1455 H1445 0.929 . S
C1455 C1453 1.433 . S
C1455 N1458 1.384 . S
C1456 H1447 0.929 . S
C1456 C1448 1.378 . S
C1456 C1451 1.350 . S
C1457 H1444 0.929 . S
C1457 C1449 1.433 . S
C1457 N1459 1.384 . S
N1458 C1454 1.427 . S
N1458 C1455 1.384 . S
N1459 C1451 1.427 . S
N1459 C1457 1.384 . S
H1460 C1466 0.930 . S
H1461 C1470 0.930 . S
H1462 C1475 0.929 . S
H1463 C1473 0.929 . S
H1464 C1468 0.929 . S
H1465 C1474 0.929 . S
C1466 H1460 0.930 . S
C1466 C1467 1.367 . S
C1466 C1474 1.378 . S
C1467 C1466 1.367 . S
C1467 C1475 1.433 . S
C1468 H1464 0.929 . S
C1468 C1470 1.378 . S
C1468 C1472 1.350 . S
C1469 C1472 1.463 . S
C1469 C1474 1.350 . S
C1469 N1477 1.427 . S
C1470 H1461 0.930 . S
C1470 C1468 1.378 . S
C1470 C1471 1.367 . S
C1471 C1470 1.367 . S
C1471 C1473 1.433 . S
C1472 C1468 1.350 . S
C1472 C1469 1.463 . S
C1472 N1476 1.427 . S
C1473 H1463 0.929 . S
C1473 C1471 1.433 . S
C1473 N1476 1.384 . S
C1474 H1465 0.929 . S
C1474 C1466 1.378 . S
C1474 C1469 1.350 . S
C1475 H1462 0.929 . S
C1475 C1467 1.433 . S
C1475 N1477 1.384 . S
N1476 C1472 1.427 . S
N1476 C1473 1.384 . S
N1477 C1469 1.427 . S
N1477 C1475 1.384 . S
H1478 C1484 0.930 . S
H1479 C1488 0.930 . S
H1480 C1493 0.929 . S
H1481 C1491 0.929 . S
H1482 C1486 0.929 . S
H1483 C1492 0.929 . S
C1484 H1478 0.930 . S
C1484 C1485 1.367 . S
C1484 C1492 1.378 . S
C1485 C1484 1.367 . S
C1485 C1493 1.433 . S
C1486 H1482 0.929 . S
C1486 C1488 1.378 . S
C1486 C1490 1.350 . S
C1487 C1490 1.463 . S
C1487 C1492 1.350 . S
C1487 N1495 1.427 . S
C1488 H1479 0.930 . S
C1488 C1486 1.378 . S
C1488 C1489 1.367 . S
C1489 C1488 1.367 . S
C1489 C1491 1.433 . S
C1490 C1486 1.350 . S
C1490 C1487 1.463 . S
C1490 N1494 1.427 . S
C1491 H1481 0.929 . S
C1491 C1489 1.433 . S
C1491 N1494 1.384 . S
C1492 H1483 0.929 . S
C1492 C1484 1.378 . S
C1492 C1487 1.350 . S
C1493 H1480 0.929 . S
C1493 C1485 1.433 . S
C1493 N1495 1.384 . S
N1494 C1490 1.427 . S
N1494 C1491 1.384 . S
N1495 C1487 1.427 . S
N1495 C1493 1.384 . S
H1496 C1502 0.930 . S
H1497 C1506 0.930 . S
H1498 C1511 0.929 . S
H1499 C1509 0.929 . S
H1500 C1504 0.929 . S
H1501 C1510 0.929 . S
C1502 H1496 0.930 . S
C1502 C1503 1.367 . S
C1502 C1510 1.378 . S
C1503 C1502 1.367 . S
C1503 C1511 1.433 . S
C1504 H1500 0.929 . S
C1504 C1506 1.378 . S
C1504 C1508 1.350 . S
C1505 C1508 1.463 . S
C1505 C1510 1.350 . S
C1505 N1513 1.427 . S
C1506 H1497 0.930 . S
C1506 C1504 1.378 . S
C1506 C1507 1.367 . S
C1507 C1506 1.367 . S
C1507 C1509 1.433 . S
C1508 C1504 1.350 . S
C1508 C1505 1.463 . S
C1508 N1512 1.427 . S
C1509 H1499 0.929 . S
C1509 C1507 1.433 . S
C1509 N1512 1.384 . S
C1510 H1501 0.929 . S
C1510 C1502 1.378 . S
C1510 C1505 1.350 . S
C1511 H1498 0.929 . S
C1511 C1503 1.433 . S
C1511 N1513 1.384 . S
N1512 C1508 1.427 . S
N1512 C1509 1.384 . S
N1513 C1505 1.427 . S
N1513 C1511 1.384 . S
H1514 C1520 0.930 . S
H1515 C1524 0.930 . S
H1516 C1529 0.929 . S
H1517 C1527 0.929 . S
H1518 C1522 0.929 . S
H1519 C1528 0.929 . S
C1520 H1514 0.930 . S
C1520 C1521 1.367 . S
C1520 C1528 1.378 . S
C1521 C1520 1.367 . S
C1521 C1529 1.433 . S
C1522 H1518 0.929 . S
C1522 C1524 1.378 . S
C1522 C1526 1.350 . S
C1523 C1526 1.463 1_556 S
C1523 C1528 1.350 . S
C1523 N1531 1.427 . S
C1524 H1515 0.930 . S
C1524 C1522 1.378 . S
C1524 C1525 1.367 . S
C1525 C1524 1.367 . S
C1525 C1527 1.433 . S
C1526 C1522 1.350 . S
C1526 C1523 1.463 1_554 S
C1526 N1530 1.427 . S
C1527 H1517 0.929 . S
C1527 C1525 1.433 . S
C1527 N1530 1.384 . S
C1528 H1519 0.929 . S
C1528 C1520 1.378 . S
C1528 C1523 1.350 . S
C1529 H1516 0.929 . S
C1529 C1521 1.433 . S
C1529 N1531 1.384 . S
N1530 C1526 1.427 . S
N1530 C1527 1.384 . S
N1531 C1523 1.427 . S
N1531 C1529 1.384 . S
H1532 C1538 0.930 . S
H1533 C1542 0.930 . S
H1534 C1547 0.929 . S
H1535 C1545 0.929 . S
H1536 C1540 0.929 . S
H1537 C1546 0.929 . S
C1538 H1532 0.930 . S
C1538 C1539 1.367 . S
C1538 C1546 1.378 . S
C1539 C1538 1.367 . S
C1539 C1547 1.433 . S
C1540 H1536 0.929 . S
C1540 C1542 1.378 . S
C1540 C1544 1.350 . S
C1541 C1544 1.463 . S
C1541 C1546 1.350 . S
C1541 N1549 1.427 . S
C1542 H1533 0.930 . S
C1542 C1540 1.378 . S
C1542 C1543 1.367 . S
C1543 C1542 1.367 . S
C1543 C1545 1.433 . S
C1544 C1540 1.350 . S
C1544 C1541 1.463 . S
C1544 N1548 1.427 . S
C1545 H1535 0.929 . S
C1545 C1543 1.433 . S
C1545 N1548 1.384 . S
C1546 H1537 0.929 . S
C1546 C1538 1.378 . S
C1546 C1541 1.350 . S
C1547 H1534 0.929 . S
C1547 C1539 1.433 . S
C1547 N1549 1.384 . S
N1548 C1544 1.427 . S
N1548 C1545 1.384 . S
N1549 C1541 1.427 . S
N1549 C1547 1.384 . S
H1550 C1556 0.930 . S
H1551 C1560 0.930 . S
H1552 C1565 0.929 . S
H1553 C1563 0.929 . S
H1554 C1558 0.929 . S
H1555 C1564 0.929 . S
C1556 H1550 0.930 . S
C1556 C1557 1.367 . S
C1556 C1564 1.378 . S
C1557 C1556 1.367 . S
C1557 C1565 1.433 . S
C1558 H1554 0.929 . S
C1558 C1560 1.378 . S
C1558 C1562 1.350 . S
C1559 C1562 1.463 . S
C1559 C1564 1.350 . S
C1559 N1567 1.427 . S
C1560 H1551 0.930 . S
C1560 C1558 1.378 . S
C1560 C1561 1.367 . S
C1561 C1560 1.367 . S
C1561 C1563 1.433 . S
C1562 C1558 1.350 . S
C1562 C1559 1.463 . S
C1562 N1566 1.427 . S
C1563 H1553 0.929 . S
C1563 C1561 1.433 . S
C1563 N1566 1.384 . S
C1564 H1555 0.929 . S
C1564 C1556 1.378 . S
C1564 C1559 1.350 . S
C1565 H1552 0.929 . S
C1565 C1557 1.433 . S
C1565 N1567 1.384 . S
N1566 C1562 1.427 . S
N1566 C1563 1.384 . S
N1567 C1559 1.427 . S
N1567 C1565 1.384 . S
H1568 C1574 0.930 . S
H1569 C1578 0.930 . S
H1570 C1583 0.929 . S
H1571 C1581 0.929 . S
H1572 C1576 0.929 . S
H1573 C1582 0.929 . S
C1574 H1568 0.930 . S
C1574 C1575 1.367 . S
C1574 C1582 1.378 . S
C1575 C1574 1.367 . S
C1575 C1583 1.433 . S
C1576 H1572 0.929 . S
C1576 C1578 1.378 . S
C1576 C1580 1.350 . S
C1577 C1580 1.463 . S
C1577 C1582 1.350 . S
C1577 N1585 1.427 . S
C1578 H1569 0.930 . S
C1578 C1576 1.378 . S
C1578 C1579 1.367 . S
C1579 C1578 1.367 . S
C1579 C1581 1.433 . S
C1580 C1576 1.350 . S
C1580 C1577 1.463 . S
C1580 N1584 1.427 . S
C1581 H1571 0.929 . S
C1581 C1579 1.433 . S
C1581 N1584 1.384 . S
C1582 H1573 0.929 . S
C1582 C1574 1.378 . S
C1582 C1577 1.350 . S
C1583 H1570 0.929 . S
C1583 C1575 1.433 . S
C1583 N1585 1.384 . S
N1584 C1580 1.427 . S
N1584 C1581 1.384 . S
N1585 C1577 1.427 . S
N1585 C1583 1.384 . S
H1586 C1592 0.930 . S
H1587 C1596 0.876 1_545 S
H1588 C1601 0.929 . S
H1589 C1599 0.929 . S
H1590 C1594 0.929 . S
H1591 C1600 0.929 . S
C1592 H1586 0.930 . S
C1592 C1593 1.367 . S
C1592 C1600 1.378 . S
C1593 C1592 1.367 . S
C1593 C1601 1.433 . S
C1594 H1590 0.929 . S
C1594 C1596 1.378 . S
C1594 C1598 1.350 . S
C1595 C1598 1.463 . S
C1595 C1600 1.350 . S
C1595 N1603 1.427 . S
C1596 H1587 0.876 1_565 S
C1596 C1594 1.378 . S
C1596 C1597 1.367 . S
C1597 C1596 1.367 . S
C1597 C1599 1.433 . S
C1598 C1594 1.350 . S
C1598 C1595 1.463 . S
C1598 N1602 1.427 . S
C1599 H1589 0.929 . S
C1599 C1597 1.433 . S
C1599 N1602 1.384 . S
C1600 H1591 0.929 . S
C1600 C1592 1.378 . S
C1600 C1595 1.350 . S
C1601 H1588 0.929 . S
C1601 C1593 1.433 . S
C1601 N1603 1.384 . S
N1602 C1598 1.427 . S
N1602 C1599 1.384 . S
N1603 C1595 1.427 . S
N1603 C1601 1.384 . S
H1604 C1610 0.930 . S
H1605 C1614 0.930 . S
H1606 C1619 0.929 . S
H1607 C1617 0.929 . S
H1608 C1612 0.929 . S
H1609 C1618 0.929 . S
C1610 H1604 0.930 . S
C1610 C1611 1.367 . S
C1610 C1618 1.378 . S
C1611 C1610 1.367 . S
C1611 C1619 1.433 . S
C1612 H1608 0.929 . S
C1612 C1614 1.378 . S
C1612 C1616 1.350 . S
C1613 C1616 1.463 . S
C1613 C1618 1.350 . S
C1613 N1621 1.427 . S
C1614 H1605 0.930 . S
C1614 C1612 1.378 . S
C1614 C1615 1.367 . S
C1615 C1614 1.367 . S
C1615 C1617 1.433 . S
C1616 C1612 1.350 . S
C1616 C1613 1.463 . S
C1616 N1620 1.427 . S
C1617 H1607 0.929 . S
C1617 C1615 1.433 . S
C1617 N1620 1.384 . S
C1618 H1609 0.929 . S
C1618 C1610 1.378 . S
C1618 C1613 1.350 . S
C1619 H1606 0.929 . S
C1619 C1611 1.433 . S
C1619 N1621 1.384 . S
N1620 C1616 1.427 . S
N1620 C1617 1.384 . S
N1621 C1613 1.427 . S
N1621 C1619 1.384 . S
H1622 C1628 0.930 . S
H1623 C1632 0.914 1_565 S
H1624 C1637 0.929 . S
H1625 C1635 0.929 . S
H1626 C1630 0.929 . S
H1627 C1636 0.929 . S
C1628 H1622 0.930 . S
C1628 C1629 1.367 . S
C1628 C1636 1.378 . S
C1629 C1628 1.367 . S
C1629 C1637 1.433 . S
C1630 H1626 0.929 . S
C1630 C1632 1.378 . S
C1630 C1634 1.350 . S
C1631 C1634 1.463 . S
C1631 C1636 1.350 . S
C1631 N1639 1.427 . S
C1632 H1623 0.914 1_545 S
C1632 C1630 1.378 . S
C1632 C1633 1.367 . S
C1633 C1632 1.367 . S
C1633 C1635 1.433 . S
C1634 C1630 1.350 . S
C1634 C1631 1.463 . S
C1634 N1638 1.427 . S
C1635 H1625 0.929 . S
C1635 C1633 1.433 . S
C1635 N1638 1.384 . S
C1636 H1627 0.929 . S
C1636 C1628 1.378 . S
C1636 C1631 1.350 . S
C1637 H1624 0.929 . S
C1637 C1629 1.433 . S
C1637 N1639 1.384 . S
N1638 C1634 1.427 . S
N1638 C1635 1.384 . S
N1639 C1631 1.427 . S
N1639 C1637 1.384 . S
H1640 C1646 0.930 . S
H1641 C1650 0.930 . S
H1642 C1655 0.929 . S
H1643 C1653 0.929 . S
H1644 C1648 0.929 . S
H1645 C1654 0.929 . S
C1646 H1640 0.930 . S
C1646 C1647 1.367 . S
C1646 C1654 1.378 . S
C1647 C1646 1.367 . S
C1647 C1655 1.433 . S
C1648 H1644 0.929 . S
C1648 C1650 1.378 . S
C1648 C1652 1.350 . S
C1649 C1652 1.463 . S
C1649 C1654 1.350 . S
C1649 N1657 1.427 . S
C1650 H1641 0.930 . S
C1650 C1648 1.378 . S
C1650 C1651 1.367 . S
C1651 C1650 1.367 . S
C1651 C1653 1.433 . S
C1652 C1648 1.350 . S
C1652 C1649 1.463 . S
C1652 N1656 1.427 . S
C1653 H1643 0.929 . S
C1653 C1651 1.433 . S
C1653 N1656 1.384 . S
C1654 H1645 0.929 . S
C1654 C1646 1.378 . S
C1654 C1649 1.350 . S
C1655 H1642 0.929 . S
C1655 C1647 1.433 . S
C1655 N1657 1.384 . S
N1656 C1652 1.427 . S
N1656 C1653 1.384 . S
N1657 C1649 1.427 . S
N1657 C1655 1.384 . S
H1658 C1664 0.930 . S
H1659 C1668 0.930 . S
H1660 C1673 0.929 . S
H1661 C1671 0.929 . S
H1662 C1666 0.929 . S
H1663 C1672 0.929 . S
C1664 H1658 0.930 . S
C1664 C1665 1.367 . S
C1664 C1672 1.378 . S
C1665 C1664 1.367 . S
C1665 C1673 1.433 . S
C1666 H1662 0.929 . S
C1666 C1668 1.378 . S
C1666 C1670 1.350 . S
C1667 C1670 1.463 . S
C1667 C1672 1.350 . S
C1667 N1675 1.427 . S
C1668 H1659 0.930 . S
C1668 C1666 1.378 . S
C1668 C1669 1.367 . S
C1669 C1668 1.367 . S
C1669 C1671 1.433 . S
C1670 C1666 1.350 . S
C1670 C1667 1.463 . S
C1670 N1674 1.427 . S
C1671 H1661 0.929 . S
C1671 C1669 1.433 . S
C1671 N1674 1.384 . S
C1672 H1663 0.929 . S
C1672 C1664 1.378 . S
C1672 C1667 1.350 . S
C1673 H1660 0.929 . S
C1673 C1665 1.433 . S
C1673 N1675 1.384 . S
N1674 C1670 1.427 . S
N1674 C1671 1.384 . S
N1675 C1667 1.427 . S
N1675 C1673 1.384 . S
H1676 C1682 0.930 . S
H1677 C1686 0.927 1_565 S
H1678 C1691 0.929 . S
H1679 C1689 0.929 . S
H1680 C1684 0.929 . S
H1681 C1690 0.929 . S
C1682 H1676 0.930 . S
C1682 C1683 1.367 . S
C1682 C1690 1.378 . S
C1683 C1682 1.367 . S
C1683 C1691 1.433 . S
C1684 H1680 0.929 . S
C1684 C1686 1.378 . S
C1684 C1688 1.350 . S
C1685 C1688 1.463 . S
C1685 C1690 1.350 . S
C1685 N1693 1.427 . S
C1686 H1677 0.927 1_545 S
C1686 C1684 1.378 . S
C1686 C1687 1.367 . S
C1687 C1686 1.367 . S
C1687 C1689 1.433 . S
C1688 C1684 1.350 . S
C1688 C1685 1.463 . S
C1688 N1692 1.427 . S
C1689 H1679 0.929 . S
C1689 C1687 1.433 . S
C1689 N1692 1.384 . S
C1690 H1681 0.929 . S
C1690 C1682 1.378 . S
C1690 C1685 1.350 . S
C1691 H1678 0.929 . S
C1691 C1683 1.433 . S
C1691 N1693 1.384 . S
N1692 C1688 1.427 . S
N1692 C1689 1.384 . S
N1693 C1685 1.427 . S
N1693 C1691 1.384 . S
H1694 C1700 0.930 . S
H1695 C1704 0.930 . S
H1696 C1709 0.929 . S
H1697 C1707 0.929 . S
H1698 C1702 0.929 . S
H1699 C1708 0.929 . S
C1700 H1694 0.930 . S
C1700 C1701 1.367 . S
C1700 C1708 1.378 . S
C1701 C1700 1.367 . S
C1701 C1709 1.433 . S
C1702 H1698 0.929 . S
C1702 C1704 1.378 . S
C1702 C1706 1.350 . S
C1703 C1706 1.463 . S
C1703 C1708 1.350 . S
C1703 N1711 1.427 . S
C1704 H1695 0.930 . S
C1704 C1702 1.378 . S
C1704 C1705 1.367 . S
C1705 C1704 1.367 . S
C1705 C1707 1.433 . S
C1706 C1702 1.350 . S
C1706 C1703 1.463 . S
C1706 N1710 1.427 . S
C1707 H1697 0.929 . S
C1707 C1705 1.433 . S
C1707 N1710 1.384 . S
C1708 H1699 0.929 . S
C1708 C1700 1.378 . S
C1708 C1703 1.350 . S
C1709 H1696 0.929 . S
C1709 C1701 1.433 . S
C1709 N1711 1.384 . S
N1710 C1706 1.427 . S
N1710 C1707 1.384 . S
N1711 C1703 1.427 . S
N1711 C1709 1.384 . S
H1712 C1718 0.930 . S
H1713 C1722 0.930 . S
H1714 C1727 0.929 . S
H1715 C1725 0.929 . S
H1716 C1720 0.929 . S
H1717 C1726 0.929 . S
C1718 H1712 0.930 . S
C1718 C1719 1.367 . S
C1718 C1726 1.378 . S
C1719 C1718 1.367 . S
C1719 C1727 1.433 . S
C1720 H1716 0.929 . S
C1720 C1722 1.378 . S
C1720 C1724 1.350 . S
C1721 C1724 1.463 . S
C1721 C1726 1.350 . S
C1721 N1729 1.427 . S
C1722 H1713 0.930 . S
C1722 C1720 1.378 . S
C1722 C1723 1.367 . S
C1723 C1722 1.367 . S
C1723 C1725 1.433 . S
C1724 C1720 1.350 . S
C1724 C1721 1.463 . S
C1724 N1728 1.427 . S
C1725 H1715 0.929 . S
C1725 C1723 1.433 . S
C1725 N1728 1.384 . S
C1726 H1717 0.929 . S
C1726 C1718 1.378 . S
C1726 C1721 1.350 . S
C1727 H1714 0.929 . S
C1727 C1719 1.433 . S
C1727 N1729 1.384 . S
N1728 C1724 1.427 . S
N1728 C1725 1.384 . S
N1729 C1721 1.427 . S
N1729 C1727 1.384 . S
H1730 C1736 0.930 . S
H1731 C1740 0.930 . S
H1732 C1745 0.929 . S
H1733 C1743 0.929 . S
H1734 C1738 0.929 . S
H1735 C1744 0.929 . S
C1736 H1730 0.930 . S
C1736 C1737 1.367 . S
C1736 C1744 1.378 . S
C1737 C1736 1.367 . S
C1737 C1745 1.433 . S
C1738 H1734 0.929 . S
C1738 C1740 1.378 . S
C1738 C1742 1.350 . S
C1739 C1742 1.463 . S
C1739 C1744 1.350 . S
C1739 N1747 1.427 . S
C1740 H1731 0.930 . S
C1740 C1738 1.378 . S
C1740 C1741 1.367 . S
C1741 C1740 1.367 . S
C1741 C1743 1.433 . S
C1742 C1738 1.350 . S
C1742 C1739 1.463 . S
C1742 N1746 1.427 . S
C1743 H1733 0.929 . S
C1743 C1741 1.433 . S
C1743 N1746 1.384 . S
C1744 H1735 0.929 . S
C1744 C1736 1.378 . S
C1744 C1739 1.350 . S
C1745 H1732 0.929 . S
C1745 C1737 1.433 . S
C1745 N1747 1.384 . S
N1746 C1742 1.427 . S
N1746 C1743 1.384 . S
N1747 C1739 1.427 . S
N1747 C1745 1.384 . S
H1748 C1754 0.930 . S
H1749 C1758 0.930 . S
H1750 C1763 0.929 . S
H1751 C1761 0.929 . S
H1752 C1756 0.929 . S
H1753 C1762 0.929 . S
C1754 H1748 0.930 . S
C1754 C1755 1.367 . S
C1754 C1762 1.378 . S
C1755 C1754 1.367 . S
C1755 C1763 1.433 . S
C1756 H1752 0.929 . S
C1756 C1758 1.378 . S
C1756 C1760 1.350 . S
C1757 C1760 1.463 . S
C1757 C1762 1.350 . S
C1757 N1765 1.427 . S
C1758 H1749 0.930 . S
C1758 C1756 1.378 . S
C1758 C1759 1.367 . S
C1759 C1758 1.367 . S
C1759 C1761 1.433 . S
C1760 C1756 1.350 . S
C1760 C1757 1.463 . S
C1760 N1764 1.427 . S
C1761 H1751 0.929 . S
C1761 C1759 1.433 . S
C1761 N1764 1.384 . S
C1762 H1753 0.929 . S
C1762 C1754 1.378 . S
C1762 C1757 1.350 . S
C1763 H1750 0.929 . S
C1763 C1755 1.433 . S
C1763 N1765 1.384 . S
N1764 C1760 1.427 . S
N1764 C1761 1.384 . S
N1765 C1757 1.427 . S
N1765 C1763 1.384 . S
H1766 C1772 0.930 . S
H1767 C1776 0.930 . S
H1768 C1781 0.929 . S
H1769 C1779 0.929 . S
H1770 C1774 0.929 . S
H1771 C1780 0.929 . S
C1772 H1766 0.930 . S
C1772 C1773 1.367 . S
C1772 C1780 1.378 . S
C1773 C1772 1.367 . S
C1773 C1781 1.433 . S
C1774 H1770 0.929 . S
C1774 C1776 1.378 . S
C1774 C1778 1.350 . S
C1775 C1778 1.463 . S
C1775 C1780 1.350 . S
C1775 N1783 1.427 . S
C1776 H1767 0.930 . S
C1776 C1774 1.378 . S
C1776 C1777 1.367 . S
C1777 C1776 1.367 . S
C1777 C1779 1.433 . S
C1778 C1774 1.350 . S
C1778 C1775 1.463 . S
C1778 N1782 1.427 . S
C1779 H1769 0.929 . S
C1779 C1777 1.433 . S
C1779 N1782 1.384 . S
C1780 H1771 0.929 . S
C1780 C1772 1.378 . S
C1780 C1775 1.350 . S
C1781 H1768 0.929 . S
C1781 C1773 1.433 . S
C1781 N1783 1.384 . S
N1782 C1778 1.427 . S
N1782 C1779 1.384 . S
N1783 C1775 1.427 . S
N1783 C1781 1.384 . S
H1784 C1790 0.930 . S
H1785 C1794 0.930 . S
H1786 C1799 0.929 . S
H1787 C1797 0.929 . S
H1788 C1792 0.929 . S
H1789 C1798 0.929 . S
C1790 H1784 0.930 . S
C1790 C1791 1.367 . S
C1790 C1798 1.378 . S
C1791 C1790 1.367 . S
C1791 C1799 1.433 . S
C1792 H1788 0.929 . S
C1792 C1794 1.378 . S
C1792 C1796 1.350 . S
C1793 C1796 1.463 . S
C1793 C1798 1.350 . S
C1793 N1801 1.427 . S
C1794 H1785 0.930 . S
C1794 C1792 1.378 . S
C1794 C1795 1.367 . S
C1795 C1794 1.367 . S
C1795 C1797 1.433 . S
C1796 C1792 1.350 . S
C1796 C1793 1.463 . S
C1796 N1800 1.427 . S
C1797 H1787 0.929 . S
C1797 C1795 1.433 . S
C1797 N1800 1.384 . S
C1798 H1789 0.929 . S
C1798 C1790 1.378 . S
C1798 C1793 1.350 . S
C1799 H1786 0.929 . S
C1799 C1791 1.433 . S
C1799 N1801 1.384 . S
N1800 C1796 1.427 . S
N1800 C1797 1.384 . S
N1801 C1793 1.427 . S
N1801 C1799 1.384 . S
H1802 C1808 0.930 . S
H1803 C1812 0.930 . S
H1804 C1817 0.929 . S
H1805 C1815 0.929 . S
H1806 C1810 0.929 . S
H1807 C1816 0.929 . S
C1808 H1802 0.930 . S
C1808 C1809 1.367 . S
C1808 C1816 1.378 . S
C1809 C1808 1.367 . S
C1809 C1817 1.433 . S
C1810 H1806 0.929 . S
C1810 C1812 1.378 . S
C1810 C1814 1.350 . S
C1811 C1814 1.463 . S
C1811 C1816 1.350 . S
C1811 N1819 1.427 . S
C1812 H1803 0.930 . S
C1812 C1810 1.378 . S
C1812 C1813 1.367 . S
C1813 C1812 1.367 . S
C1813 C1815 1.433 . S
C1814 C1810 1.350 . S
C1814 C1811 1.463 . S
C1814 N1818 1.427 . S
C1815 H1805 0.929 . S
C1815 C1813 1.433 . S
C1815 N1818 1.384 . S
C1816 H1807 0.929 . S
C1816 C1808 1.378 . S
C1816 C1811 1.350 . S
C1817 H1804 0.929 . S
C1817 C1809 1.433 . S
C1817 N1819 1.384 . S
N1818 C1814 1.427 . S
N1818 C1815 1.384 . S
N1819 C1811 1.427 . S
N1819 C1817 1.384 . S
H1820 C1826 0.930 . S
H1821 C1830 0.930 . S
H1822 C1835 0.929 . S
H1823 C1833 0.929 . S
H1824 C1828 0.929 . S
H1825 C1834 0.929 . S
C1826 H1820 0.930 . S
C1826 C1827 1.367 . S
C1826 C1834 1.378 . S
C1827 C1826 1.367 . S
C1827 C1835 1.433 . S
C1828 H1824 0.929 . S
C1828 C1830 1.378 . S
C1828 C1832 1.350 . S
C1829 C1832 1.463 . S
C1829 C1834 1.350 . S
C1829 N1837 1.427 . S
C1830 H1821 0.930 . S
C1830 C1828 1.378 . S
C1830 C1831 1.367 . S
C1831 C1830 1.367 . S
C1831 C1833 1.433 . S
C1832 C1828 1.350 . S
C1832 C1829 1.463 . S
C1832 N1836 1.427 . S
C1833 H1823 0.929 . S
C1833 C1831 1.433 . S
C1833 N1836 1.384 . S
C1834 H1825 0.929 . S
C1834 C1826 1.378 . S
C1834 C1829 1.350 . S
C1835 H1822 0.929 . S
C1835 C1827 1.433 . S
C1835 N1837 1.384 . S
N1836 C1832 1.427 . S
N1836 C1833 1.384 . S
N1837 C1829 1.427 . S
N1837 C1835 1.384 . S
H1838 C1844 0.930 . S
H1839 C1848 0.930 . S
H1840 C1853 0.929 . S
H1841 C1851 0.929 . S
H1842 C1846 0.929 . S
H1843 C1852 0.929 . S
C1844 H1838 0.930 . S
C1844 C1845 1.367 . S
C1844 C1852 1.378 . S
C1845 C1844 1.367 . S
C1845 C1853 1.433 . S
C1846 H1842 0.929 . S
C1846 C1848 1.378 . S
C1846 C1850 1.350 . S
C1847 C1850 1.463 . S
C1847 C1852 1.350 . S
C1847 N1855 1.427 . S
C1848 H1839 0.930 . S
C1848 C1846 1.378 . S
C1848 C1849 1.367 . S
C1849 C1848 1.367 . S
C1849 C1851 1.433 . S
C1850 C1846 1.350 . S
C1850 C1847 1.463 . S
C1850 N1854 1.427 . S
C1851 H1841 0.929 . S
C1851 C1849 1.433 . S
C1851 N1854 1.384 . S
C1852 H1843 0.929 . S
C1852 C1844 1.378 . S
C1852 C1847 1.350 . S
C1853 H1840 0.929 . S
C1853 C1845 1.433 . S
C1853 N1855 1.384 . S
N1854 C1850 1.427 . S
N1854 C1851 1.384 . S
N1855 C1847 1.427 . S
N1855 C1853 1.384 . S
H1856 C1862 0.930 . S
H1857 C1866 0.930 . S
H1858 C1871 0.929 . S
H1859 C1869 0.929 . S
H1860 C1864 0.929 . S
H1861 C1870 0.929 . S
C1862 H1856 0.930 . S
C1862 C1863 1.367 . S
C1862 C1870 1.378 . S
C1863 C1862 1.367 . S
C1863 C1871 1.433 1_565 S
C1864 H1860 0.929 . S
C1864 C1866 1.378 . S
C1864 C1868 1.350 1_545 S
C1865 C1868 1.463 1_455 S
C1865 C1870 1.350 . S
C1865 N1873 1.427 1_565 S
C1866 H1857 0.930 . S
C1866 C1864 1.378 . S
C1866 C1867 1.367 1_545 S
C1867 C1866 1.367 1_565 S
C1867 C1869 1.433 . S
C1868 C1864 1.350 1_565 S
C1868 C1865 1.463 1_655 S
C1868 N1872 1.427 . S
C1869 H1859 0.929 . S
C1869 C1867 1.433 . S
C1869 N1872 1.384 . S
C1870 H1861 0.929 . S
C1870 C1862 1.378 . S
C1870 C1865 1.350 . S
C1871 H1858 0.929 . S
C1871 C1863 1.433 1_545 S
C1871 N1873 1.384 . S
N1872 C1868 1.427 . S
N1872 C1869 1.384 . S
N1873 C1865 1.427 1_545 S
N1873 C1871 1.384 . S
H1874 C1880 0.930 . S
H1875 C1884 0.930 . S
H1876 C1889 0.929 . S
H1877 C1887 0.929 . S
H1878 C1882 0.929 . S
H1879 C1888 0.929 . S
C1880 H1874 0.930 . S
C1880 C1881 1.367 . S
C1880 C1888 1.378 . S
C1881 C1880 1.367 . S
C1881 C1889 1.433 . S
C1882 H1878 0.929 . S
C1882 C1884 1.378 . S
C1882 C1886 1.350 . S
C1883 C1886 1.463 . S
C1883 C1888 1.350 . S
C1883 N1891 1.427 . S
C1884 H1875 0.930 . S
C1884 C1882 1.378 . S
C1884 C1885 1.367 . S
C1885 C1884 1.367 . S
C1885 C1887 1.433 . S
C1886 C1882 1.350 . S
C1886 C1883 1.463 . S
C1886 N1890 1.427 . S
C1887 H1877 0.929 . S
C1887 C1885 1.433 . S
C1887 N1890 1.384 . S
C1888 H1879 0.929 . S
C1888 C1880 1.378 . S
C1888 C1883 1.350 . S
C1889 H1876 0.929 . S
C1889 C1881 1.433 . S
C1889 N1891 1.384 . S
N1890 C1886 1.427 . S
N1890 C1887 1.384 . S
N1891 C1883 1.427 . S
N1891 C1889 1.384 . S
H1892 C1898 0.930 1_565 S
H1893 C1902 0.930 . S
H1894 C1907 0.929 . S
H1895 C1905 0.929 1_565 S
H1896 C1900 0.929 . S
H1897 C1906 0.929 1_565 S
C1898 H1892 0.930 1_545 S
C1898 C1899 1.367 . S
C1898 C1906 1.378 . S
C1899 C1898 1.367 . S
C1899 C1907 1.433 . S
C1900 H1896 0.929 . S
C1900 C1902 1.378 . S
C1900 C1904 1.350 . S
C1901 C1904 1.463 . S
C1901 C1906 1.350 . S
C1901 N1909 1.427 . S
C1902 H1893 0.930 . S
C1902 C1900 1.378 . S
C1902 C1903 1.367 . S
C1903 C1902 1.367 . S
C1903 C1905 1.433 . S
C1904 C1900 1.350 . S
C1904 C1901 1.463 . S
C1904 N1908 1.427 . S
C1905 H1895 0.929 1_545 S
C1905 C1903 1.433 . S
C1905 N1908 1.384 . S
C1906 H1897 0.929 1_545 S
C1906 C1898 1.378 . S
C1906 C1901 1.350 . S
C1907 H1894 0.929 . S
C1907 C1899 1.433 . S
C1907 N1909 1.384 . S
N1908 C1904 1.427 . S
N1908 C1905 1.384 . S
N1909 C1901 1.427 . S
N1909 C1907 1.384 . S
H1910 C1916 0.930 . S
H1911 C1920 0.930 . S
H1912 C1925 0.929 . S
H1913 C1923 0.929 . S
H1914 C1918 0.929 . S
H1915 C1924 0.929 . S
C1916 H1910 0.930 . S
C1916 C1917 1.367 . S
C1916 C1924 1.378 . S
C1917 C1916 1.367 . S
C1917 C1925 1.433 . S
C1918 H1914 0.929 . S
C1918 C1920 1.378 . S
C1918 C1922 1.350 . S
C1919 C1922 1.463 . S
C1919 C1924 1.350 . S
C1919 N1927 1.427 . S
C1920 H1911 0.930 . S
C1920 C1918 1.378 . S
C1920 C1921 1.367 . S
C1921 C1920 1.367 . S
C1921 C1923 1.433 . S
C1922 C1918 1.350 . S
C1922 C1919 1.463 . S
C1922 N1926 1.427 . S
C1923 H1913 0.929 . S
C1923 C1921 1.433 . S
C1923 N1926 1.384 . S
C1924 H1915 0.929 . S
C1924 C1916 1.378 . S
C1924 C1919 1.350 . S
C1925 H1912 0.929 . S
C1925 C1917 1.433 . S
C1925 N1927 1.384 . S
N1926 C1922 1.427 . S
N1926 C1923 1.384 . S
N1927 C1919 1.427 . S
N1927 C1925 1.384 . S
H1928 C1934 0.930 . S
H1929 C1938 0.930 . S
H1930 C1943 0.929 . S
H1931 C1941 0.929 . S
H1932 C1936 0.929 . S
H1933 C1942 0.929 . S
C1934 H1928 0.930 . S
C1934 C1935 1.367 1_565 S
C1934 C1942 1.378 . S
C1935 C1934 1.367 1_545 S
C1935 C1943 1.433 . S
C1936 H1932 0.929 . S
C1936 C1938 1.378 . S
C1936 C1940 1.350 . S
C1937 C1940 1.463 1_655 S
C1937 C1942 1.350 1_545 S
C1937 N1945 1.427 . S
C1938 H1929 0.930 . S
C1938 C1936 1.378 . S
C1938 C1939 1.367 . S
C1939 C1938 1.367 . S
C1939 C1941 1.433 1_545 S
C1940 C1936 1.350 . S
C1940 C1937 1.463 1_455 S
C1940 N1944 1.427 1_545 S
C1941 H1931 0.929 . S
C1941 C1939 1.433 1_565 S
C1941 N1944 1.384 . S
C1942 H1933 0.929 . S
C1942 C1934 1.378 . S
C1942 C1937 1.350 1_565 S
C1943 H1930 0.929 . S
C1943 C1935 1.433 . S
C1943 N1945 1.384 . S
N1944 C1940 1.427 1_565 S
N1944 C1941 1.384 . S
N1945 C1937 1.427 . S
N1945 C1943 1.384 . S
H1946 C1952 0.930 . S
H1947 C1956 0.930 . S
H1948 C1961 0.929 . S
H1949 C1959 0.929 . S
H1950 C1954 0.929 . S
H1951 C1960 0.929 . S
C1952 H1946 0.930 . S
C1952 C1953 1.367 . S
C1952 C1960 1.378 . S
C1953 C1952 1.367 . S
C1953 C1961 1.433 . S
C1954 H1950 0.929 . S
C1954 C1956 1.378 . S
C1954 C1958 1.350 . S
C1955 C1958 1.463 . S
C1955 C1960 1.350 . S
C1955 N1963 1.427 . S
C1956 H1947 0.930 . S
C1956 C1954 1.378 . S
C1956 C1957 1.367 . S
C1957 C1956 1.367 . S
C1957 C1959 1.433 . S
C1958 C1954 1.350 . S
C1958 C1955 1.463 . S
C1958 N1962 1.427 . S
C1959 H1949 0.929 . S
C1959 C1957 1.433 . S
C1959 N1962 1.384 . S
C1960 H1951 0.929 . S
C1960 C1952 1.378 . S
C1960 C1955 1.350 . S
C1961 H1948 0.929 . S
C1961 C1953 1.433 . S
C1961 N1963 1.384 . S
N1962 C1958 1.427 . S
N1962 C1959 1.384 . S
N1963 C1955 1.427 . S
N1963 C1961 1.384 . S
H1964 C1970 0.930 . S
H1965 C1974 0.930 . S
H1966 C1979 0.929 . S
H1967 C1977 0.929 . S
H1968 C1972 0.929 . S
H1969 C1978 0.929 . S
C1970 H1964 0.930 . S
C1970 C1971 1.367 . S
C1970 C1978 1.378 . S
C1971 C1970 1.367 . S
C1971 C1979 1.433 1_565 S
C1972 H1968 0.929 . S
C1972 C1974 1.378 . S
C1972 C1976 1.350 1_545 S
C1973 C1976 1.463 . S
C1973 C1978 1.350 . S
C1973 N1981 1.427 1_565 S
C1974 H1965 0.930 . S
C1974 C1972 1.378 . S
C1974 C1975 1.367 1_545 S
C1975 C1974 1.367 1_565 S
C1975 C1977 1.433 . S
C1976 C1972 1.350 1_565 S
C1976 C1973 1.463 . S
C1976 N1980 1.427 . S
C1977 H1967 0.929 . S
C1977 C1975 1.433 . S
C1977 N1980 1.384 . S
C1978 H1969 0.929 . S
C1978 C1970 1.378 . S
C1978 C1973 1.350 . S
C1979 H1966 0.929 . S
C1979 C1971 1.433 1_545 S
C1979 N1981 1.384 . S
N1980 C1976 1.427 . S
N1980 C1977 1.384 . S
N1981 C1973 1.427 1_545 S
N1981 C1979 1.384 . S
H1982 C1988 0.930 . S
H1983 C1992 0.930 . S
H1984 C1997 0.929 . S
H1985 C1995 0.929 . S
H1986 C1990 0.929 . S
H1987 C1996 0.929 . S
C1988 H1982 0.930 . S
C1988 C1989 1.367 . S
C1988 C1996 1.378 . S
C1989 C1988 1.367 . S
C1989 C1997 1.433 . S
C1990 H1986 0.929 . S
C1990 C1992 1.378 . S
C1990 C1994 1.350 . S
C1991 C1994 1.463 . S
C1991 C1996 1.350 . S
C1991 N1999 1.427 . S
C1992 H1983 0.930 . S
C1992 C1990 1.378 . S
C1992 C1993 1.367 . S
C1993 C1992 1.367 . S
C1993 C1995 1.433 . S
C1994 C1990 1.350 . S
C1994 C1991 1.463 . S
C1994 N1998 1.427 . S
C1995 H1985 0.929 . S
C1995 C1993 1.433 . S
C1995 N1998 1.384 . S
C1996 H1987 0.929 . S
C1996 C1988 1.378 . S
C1996 C1991 1.350 . S
C1997 H1984 0.929 . S
C1997 C1989 1.433 . S
C1997 N1999 1.384 . S
N1998 C1994 1.427 . S
N1998 C1995 1.384 . S
N1999 C1991 1.427 . S
N1999 C1997 1.384 . S
H2000 C2006 0.930 . S
H2001 C2010 0.930 . S
H2002 C2015 0.929 . S
H2003 C2013 0.929 . S
H2004 C2008 0.929 . S
H2005 C2014 0.929 . S
C2006 H2000 0.930 . S
C2006 C2007 1.367 . S
C2006 C2014 1.378 . S
C2007 C2006 1.367 . S
C2007 C2015 1.433 . S
C2008 H2004 0.929 . S
C2008 C2010 1.378 . S
C2008 C2012 1.350 . S
C2009 C2012 1.463 . S
C2009 C2014 1.350 . S
C2009 N2017 1.427 . S
C2010 H2001 0.930 . S
C2010 C2008 1.378 . S
C2010 C2011 1.367 . S
C2011 C2010 1.367 . S
C2011 C2013 1.433 . S
C2012 C2008 1.350 . S
C2012 C2009 1.463 . S
C2012 N2016 1.427 . S
C2013 H2003 0.929 . S
C2013 C2011 1.433 . S
C2013 N2016 1.384 . S
C2014 H2005 0.929 . S
C2014 C2006 1.378 . S
C2014 C2009 1.350 . S
C2015 H2002 0.929 . S
C2015 C2007 1.433 . S
C2015 N2017 1.384 . S
N2016 C2012 1.427 . S
N2016 C2013 1.384 . S
N2017 C2009 1.427 . S
N2017 C2015 1.384 . S
H2018 C2024 0.930 . S
H2019 C2028 0.930 . S
H2020 C2033 0.929 . S
H2021 C2031 0.929 . S
H2022 C2026 0.929 . S
H2023 C2032 0.929 . S
C2024 H2018 0.930 . S
C2024 C2025 1.367 . S
C2024 C2032 1.378 . S
C2025 C2024 1.367 . S
C2025 C2033 1.433 . S
C2026 H2022 0.929 . S
C2026 C2028 1.378 . S
C2026 C2030 1.350 . S
C2027 C2030 1.463 . S
C2027 C2032 1.350 . S
C2027 N2035 1.427 . S
C2028 H2019 0.930 . S
C2028 C2026 1.378 . S
C2028 C2029 1.367 . S
C2029 C2028 1.367 . S
C2029 C2031 1.433 . S
C2030 C2026 1.350 . S
C2030 C2027 1.463 . S
C2030 N2034 1.427 . S
C2031 H2021 0.929 . S
C2031 C2029 1.433 . S
C2031 N2034 1.384 . S
C2032 H2023 0.929 . S
C2032 C2024 1.378 . S
C2032 C2027 1.350 . S
C2033 H2020 0.929 . S
C2033 C2025 1.433 . S
C2033 N2035 1.384 . S
N2034 C2030 1.427 . S
N2034 C2031 1.384 . S
N2035 C2027 1.427 . S
N2035 C2033 1.384 . S
H2036 C2042 0.930 . S
H2037 C2046 0.930 . S
H2038 C2051 0.929 . S
H2039 C2049 0.929 . S
H2040 C2044 0.929 . S
H2041 C2050 0.929 . S
C2042 H2036 0.930 . S
C2042 C2043 1.367 . S
C2042 C2050 1.378 . S
C2043 C2042 1.367 . S
C2043 C2051 1.433 . S
C2044 H2040 0.929 . S
C2044 C2046 1.378 . S
C2044 C2048 1.350 . S
C2045 C2048 1.463 . S
C2045 C2050 1.350 . S
C2045 N2053 1.427 . S
C2046 H2037 0.930 . S
C2046 C2044 1.378 . S
C2046 C2047 1.367 . S
C2047 C2046 1.367 . S
C2047 C2049 1.433 . S
C2048 C2044 1.350 . S
C2048 C2045 1.463 . S
C2048 N2052 1.427 . S
C2049 H2039 0.929 . S
C2049 C2047 1.433 . S
C2049 N2052 1.384 . S
C2050 H2041 0.929 . S
C2050 C2042 1.378 . S
C2050 C2045 1.350 . S
C2051 H2038 0.929 . S
C2051 C2043 1.433 . S
C2051 N2053 1.384 . S
N2052 C2048 1.427 . S
N2052 C2049 1.384 . S
N2053 C2045 1.427 . S
N2053 C2051 1.384 . S
H2054 C2060 0.930 . S
H2055 C2064 0.930 . S
H2056 C2069 0.929 . S
H2057 C2067 0.929 . S
H2058 C2062 0.929 . S
H2059 C2068 0.929 . S
C2060 H2054 0.930 . S
C2060 C2061 1.367 . S
C2060 C2068 1.378 . S
C2061 C2060 1.367 . S
C2061 C2069 1.433 . S
C2062 H2058 0.929 . S
C2062 C2064 1.378 . S
C2062 C2066 1.350 . S
C2063 C2066 1.463 . S
C2063 C2068 1.350 . S
C2063 N2071 1.427 . S
C2064 H2055 0.930 . S
C2064 C2062 1.378 . S
C2064 C2065 1.367 . S
C2065 C2064 1.367 . S
C2065 C2067 1.433 . S
C2066 C2062 1.350 . S
C2066 C2063 1.463 . S
C2066 N2070 1.427 . S
C2067 H2057 0.929 . S
C2067 C2065 1.433 . S
C2067 N2070 1.384 . S
C2068 H2059 0.929 . S
C2068 C2060 1.378 . S
C2068 C2063 1.350 . S
C2069 H2056 0.929 . S
C2069 C2061 1.433 . S
C2069 N2071 1.384 . S
N2070 C2066 1.427 . S
N2070 C2067 1.384 . S
N2071 C2063 1.427 . S
N2071 C2069 1.384 . S
H2072 C2078 0.930 . S
H2073 C2082 0.930 . S
H2074 C2087 0.929 . S
H2075 C2085 0.929 . S
H2076 C2080 0.929 . S
H2077 C2086 0.929 . S
C2078 H2072 0.930 . S
C2078 C2079 1.367 . S
C2078 C2086 1.378 . S
C2079 C2078 1.367 . S
C2079 C2087 1.433 . S
C2080 H2076 0.929 . S
C2080 C2082 1.378 . S
C2080 C2084 1.350 . S
C2081 C2084 1.463 . S
C2081 C2086 1.350 . S
C2081 N2089 1.427 . S
C2082 H2073 0.930 . S
C2082 C2080 1.378 . S
C2082 C2083 1.367 . S
C2083 C2082 1.367 . S
C2083 C2085 1.433 . S
C2084 C2080 1.350 . S
C2084 C2081 1.463 . S
C2084 N2088 1.427 . S
C2085 H2075 0.929 . S
C2085 C2083 1.433 . S
C2085 N2088 1.384 . S
C2086 H2077 0.929 . S
C2086 C2078 1.378 . S
C2086 C2081 1.350 . S
C2087 H2074 0.929 . S
C2087 C2079 1.433 . S
C2087 N2089 1.384 . S
N2088 C2084 1.427 . S
N2088 C2085 1.384 . S
N2089 C2081 1.427 . S
N2089 C2087 1.384 . S
H2090 C2096 0.930 . S
H2091 C2100 0.930 . S
H2092 C2105 0.929 . S
H2093 C2103 0.929 . S
H2094 C2098 0.929 . S
H2095 C2104 0.929 . S
C2096 H2090 0.930 . S
C2096 C2097 1.367 . S
C2096 C2104 1.378 . S
C2097 C2096 1.367 . S
C2097 C2105 1.433 . S
C2098 H2094 0.929 . S
C2098 C2100 1.378 . S
C2098 C2102 1.350 . S
C2099 C2102 1.463 1_455 S
C2099 C2104 1.350 . S
C2099 N2107 1.427 . S
C2100 H2091 0.930 . S
C2100 C2098 1.378 . S
C2100 C2101 1.367 . S
C2101 C2100 1.367 . S
C2101 C2103 1.433 . S
C2102 C2098 1.350 . S
C2102 C2099 1.463 1_655 S
C2102 N2106 1.427 . S
C2103 H2093 0.929 . S
C2103 C2101 1.433 . S
C2103 N2106 1.384 . S
C2104 H2095 0.929 . S
C2104 C2096 1.378 . S
C2104 C2099 1.350 . S
C2105 H2092 0.929 . S
C2105 C2097 1.433 . S
C2105 N2107 1.384 . S
N2106 C2102 1.427 . S
N2106 C2103 1.384 . S
N2107 C2099 1.427 . S
N2107 C2105 1.384 . S
H2108 C2114 0.930 . S
H2109 C2118 0.930 . S
H2110 C2123 0.929 . S
H2111 C2121 0.929 . S
H2112 C2116 0.929 . S
H2113 C2122 0.929 . S
C2114 H2108 0.930 . S
C2114 C2115 1.367 . S
C2114 C2122 1.378 . S
C2115 C2114 1.367 . S
C2115 C2123 1.433 . S
C2116 H2112 0.929 . S
C2116 C2118 1.378 . S
C2116 C2120 1.350 . S
C2117 C2120 1.463 . S
C2117 C2122 1.350 . S
C2117 N2125 1.427 . S
C2118 H2109 0.930 . S
C2118 C2116 1.378 . S
C2118 C2119 1.367 . S
C2119 C2118 1.367 . S
C2119 C2121 1.433 . S
C2120 C2116 1.350 . S
C2120 C2117 1.463 . S
C2120 N2124 1.427 . S
C2121 H2111 0.929 . S
C2121 C2119 1.433 . S
C2121 N2124 1.384 . S
C2122 H2113 0.929 . S
C2122 C2114 1.378 . S
C2122 C2117 1.350 . S
C2123 H2110 0.929 . S
C2123 C2115 1.433 . S
C2123 N2125 1.384 . S
N2124 C2120 1.427 . S
N2124 C2121 1.384 . S
N2125 C2117 1.427 . S
N2125 C2123 1.384 . S
H2126 C2132 0.930 . S
H2127 C2136 0.930 . S
H2128 C2141 0.929 . S
H2129 C2139 0.929 . S
H2130 C2134 0.929 . S
H2131 C2140 0.929 . S
C2132 H2126 0.930 . S
C2132 C2133 1.367 . S
C2132 C2140 1.378 . S
C2133 C2132 1.367 . S
C2133 C2141 1.433 . S
C2134 H2130 0.929 . S
C2134 C2136 1.378 . S
C2134 C2138 1.350 . S
C2135 C2138 1.463 1_655 S
C2135 C2140 1.350 . S
C2135 N2143 1.427 . S
C2136 H2127 0.930 . S
C2136 C2134 1.378 . S
C2136 C2137 1.367 . S
C2137 C2136 1.367 . S
C2137 C2139 1.433 . S
C2138 C2134 1.350 . S
C2138 C2135 1.463 1_455 S
C2138 N2142 1.427 . S
C2139 H2129 0.929 . S
C2139 C2137 1.433 . S
C2139 N2142 1.384 . S
C2140 H2131 0.929 . S
C2140 C2132 1.378 . S
C2140 C2135 1.350 . S
C2141 H2128 0.929 . S
C2141 C2133 1.433 . S
C2141 N2143 1.384 . S
N2142 C2138 1.427 . S
N2142 C2139 1.384 . S
N2143 C2135 1.427 . S
N2143 C2141 1.384 . S
C1287 C255 1.504 . S
C1291 C15 1.502 . S
C1305 C295 1.708 . S
C1309 C55 1.710 . S
C1323 C175 1.502 . S
C1327 C95 1.504 . S
C1341 C135 1.708 . S
C1345 C215 1.709 . S
C1359 C575 1.504 . S
C1363 C335 1.501 . S
C1377 C615 1.708 . S
C1381 C375 1.707 . S
C1395 C495 1.500 . S
C1399 C415 1.503 . S
C1413 C535 1.708 . S
C1417 C455 1.705 . S
C1431 C655 1.700 . S
C1435 C895 1.702 . S
C1449 C935 1.526 . S
C1453 C695 1.524 . S
C1467 C735 1.701 . S
C1471 C815 1.702 . S
C1485 C855 1.522 . S
C1489 C775 1.524 . S
C1503 C975 1.696 . S
C1507 C1215 1.697 . S
C1521 C1015 1.519 . S
C1525 C1255 1.524 . S
C1539 C1055 1.699 . S
C1543 C1135 1.695 . S
C1557 C1095 1.523 . S
C1561 C1175 1.520 . S
C1575 C301 1.509 . S
C1579 C21 1.501 . S
C1593 C61 1.507 . S
C1597 C181 1.500 . S
C1611 C221 1.509 . S
C1615 C101 1.504 . S
C1629 C141 1.507 . S
C1633 C261 1.500 . S
C1647 C621 1.468 . S
C1651 C341 1.485 . S
C1665 C381 1.455 . S
C1669 C501 1.485 . S
C1683 C541 1.458 . S
C1687 C421 1.488 . S
C1701 C461 1.456 . S
C1705 C581 1.486 . S
C1719 C661 1.802 . S
C1723 C941 1.802 . S
C1737 C701 1.803 . S
C1741 C821 1.802 . S
C1755 C861 1.802 . S
C1759 C741 1.801 . S
C1773 C781 1.802 . S
C1777 C901 1.801 . S
C1791 C1261 1.750 . S
C1795 C981 1.751 . S
C1809 C1021 1.747 . S
C1813 C1141 1.751 . S
C1827 C1061 1.751 . S
C1831 C1181 1.745 . S
C1845 C1101 1.745 . S
C1849 C1221 1.751 . S
C1863 C2 1.492 . S
C1867 C482 1.472 . S
C1881 C42 1.654 . S
C1885 C1162 1.620 . S
C1899 C82 1.496 . S
C1903 C562 1.476 . S
C1917 C122 1.654 . S
C1921 C1242 1.618 . S
C1935 C322 1.473 . S
C1939 C162 1.491 . S
C1953 C202 1.654 . S
C1957 C1002 1.620 . S
C1971 C242 1.491 . S
C1975 C402 1.473 . S
C1989 C1082 1.620 . S
C1993 C282 1.653 . S
C2007 C362 1.626 . S
C2011 C842 1.648 . S
C2025 C922 1.648 . S
C2029 C442 1.628 . S
C2043 C682 1.648 . S
C2047 C522 1.628 . S
C2061 C602 1.632 . S
C2065 C762 1.649 . S
C2079 C642 1.704 . S
C2083 C1122 1.677 . S
C2097 C1202 1.681 . S
C2101 C722 1.708 . S
C2115 C962 1.681 . S
C2119 C802 1.704 . S
C2133 C882 1.708 . S
C2137 C1042 1.681 . S
