# Generated by pormake.
# Topology snk, (6)-cn, num edge types: 1
# Building blocks:
#     Node 0, Type 0, BuildingBlock: KUMJIN_clean_sbu_1, # of connection points: 6
#     Node 1, Type 0, BuildingBlock: KUMJIN_clean_sbu_1, # of connection points: 6
#     Node 2, Type 0, BuildingBlock: KUMJIN_clean_sbu_1, # of connection points: 6
#     Node 3, Type 0, BuildingBlock: KUMJIN_clean_sbu_1, # of connection points: 6
#     Node 4, Type 0, BuildingBlock: KUMJIN_clean_sbu_1, # of connection points: 6
#     Node 5, Type 0, BuildingBlock: KUMJIN_clean_sbu_1, # of connection points: 6
#     Node 6, Type 0, BuildingBlock: KUMJIN_clean_sbu_1, # of connection points: 6
#     Node 7, Type 0, BuildingBlock: KUMJIN_clean_sbu_1, # of connection points: 6
#     Edge 8, Type (0, 0), BuildingBlock: OJICUG_clean_linker_0, # of connection points: 2
#     Edge 9, Type (0, 0), BuildingBlock: OJICUG_clean_linker_0, # of connection points: 2
#     Edge 10, Type (0, 0), BuildingBlock: OJICUG_clean_linker_0, # of connection points: 2
#     Edge 11, Type (0, 0), BuildingBlock: OJICUG_clean_linker_0, # of connection points: 2
#     Edge 12, Type (0, 0), BuildingBlock: OJICUG_clean_linker_0, # of connection points: 2
#     Edge 13, Type (0, 0), BuildingBlock: OJICUG_clean_linker_0, # of connection points: 2
#     Edge 14, Type (0, 0), BuildingBlock: OJICUG_clean_linker_0, # of connection points: 2
#     Edge 15, Type (0, 0), BuildingBlock: OJICUG_clean_linker_0, # of connection points: 2
#     Edge 16, Type (0, 0), BuildingBlock: OJICUG_clean_linker_0, # of connection points: 2
#     Edge 17, Type (0, 0), BuildingBlock: OJICUG_clean_linker_0, # of connection points: 2
#     Edge 18, Type (0, 0), BuildingBlock: OJICUG_clean_linker_0, # of connection points: 2
#     Edge 19, Type (0, 0), BuildingBlock: OJICUG_clean_linker_0, # of connection points: 2
#     Edge 20, Type (0, 0), BuildingBlock: OJICUG_clean_linker_0, # of connection points: 2
#     Edge 21, Type (0, 0), BuildingBlock: OJICUG_clean_linker_0, # of connection points: 2
#     Edge 22, Type (0, 0), BuildingBlock: OJICUG_clean_linker_0, # of connection points: 2
#     Edge 23, Type (0, 0), BuildingBlock: OJICUG_clean_linker_0, # of connection points: 2
#     Edge 24, Type (0, 0), BuildingBlock: OJICUG_clean_linker_0, # of connection points: 2
#     Edge 25, Type (0, 0), BuildingBlock: OJICUG_clean_linker_0, # of connection points: 2
#     Edge 26, Type (0, 0), BuildingBlock: OJICUG_clean_linker_0, # of connection points: 2
#     Edge 27, Type (0, 0), BuildingBlock: OJICUG_clean_linker_0, # of connection points: 2
#     Edge 28, Type (0, 0), BuildingBlock: OJICUG_clean_linker_0, # of connection points: 2
#     Edge 29, Type (0, 0), BuildingBlock: OJICUG_clean_linker_0, # of connection points: 2
#     Edge 30, Type (0, 0), BuildingBlock: OJICUG_clean_linker_0, # of connection points: 2
#     Edge 31, Type (0, 0), BuildingBlock: OJICUG_clean_linker_0, # of connection points: 2
# Relax obj value: 0.014
# Max RMSD: 0.090
# Mean RMSD: 0.088
data_MOF--net-snk--node1-KUMJIN_clean_sbu_1--edge1-OJICUG_clean_linker_0
_symmetry_space_group_name_H-M    P1
_symmetry_Int_Tables_number       1
_symmetry_cell_setting            triclinic
loop_
_symmetry_equiv_pos_as_xyz
'x, y, z'
_cell_length_a     27.06319
_cell_length_b     26.959349
_cell_length_c     20.350123
_cell_angle_alpha  89.634664
_cell_angle_beta   89.393279
_cell_angle_gamma 90.680584
loop_
_atom_site_label
_atom_site_type_symbol
_atom_site_fract_x
_atom_site_fract_y
_atom_site_fract_z
_atom_type_partial_charge
Eu0 Eu 1.00131 0.04631 0.60265 0.0
C1 C 0.96452 0.85538 0.39942 0.0
N2 N 0.00851 0.87783 0.41219 0.0
C3 C 0.05202 0.80706 0.3725 0.0
C4 C 0.96274 0.80667 0.37441 0.0
C5 C 0.05199 0.85412 0.40079 0.0
C6 C 0.00723 0.78297 0.35983 0.0
C7 C 0.8749 0.85726 0.40187 0.0
C8 C 0.92108 0.88106 0.41128 0.0
C9 C 0.87308 0.80852 0.37797 0.0
C10 C 0.91686 0.78345 0.36376 0.0
Eu11 Eu 0.00566 0.96217 0.44 0.0
N12 N 0.92386 0.92862 0.43341 0.0
C13 C 0.83177 0.88291 0.41733 0.0
C14 C 0.88166 0.95306 0.45036 0.0
C15 C 0.83524 0.93078 0.44237 0.0
H16 H 0.08685 0.87225 0.41115 0.0
H17 H 0.80211 0.95055 0.45589 0.0
H18 H 0.92051 0.13676 0.63061 0.0
H19 H 0.20486 0.05742 0.58492 0.0
H20 H 0.88296 0.98919 0.47189 0.0
H21 H 0.79569 0.86585 0.41102 0.0
H22 H 0.12388 0.01884 0.57006 0.0
H23 H 0.0866 0.78934 0.36061 0.0
H24 H 0.83796 0.78992 0.37018 0.0
H25 H 0.91483 0.74601 0.34483 0.0
H26 H 0.92115 0.22025 0.67956 0.0
H27 H 0.00743 0.74598 0.33928 0.0
H28 H 0.21166 0.14231 0.62895 0.0
N29 N 0.99882 0.13081 0.62967 0.0
C30 C 0.04292 0.15323 0.6419 0.0
C31 C 0.95565 0.20219 0.6681 0.0
C32 C 0.04492 0.20215 0.66617 0.0
C33 C 0.95546 0.15483 0.64069 0.0
C34 C 1.00056 0.22616 0.68047 0.0
N35 N 0.08325 0.07967 0.60833 0.0
C36 C 0.12533 0.05507 0.59121 0.0
C37 C 0.13252 0.15114 0.63869 0.0
C38 C 0.08625 0.12735 0.63 0.0
C39 C 0.17551 0.12531 0.62311 0.0
C40 C 0.17183 0.07732 0.59856 0.0
H41 H 1.00054 0.26335 0.70037 0.0
H42 H 0.09312 0.26294 0.69449 0.0
H43 H 0.16974 0.21863 0.66919 0.0
O44 O 0.01305 0.04116 0.7097 0.0
O45 O 0.02974 0.0895 0.51362 0.0
O46 O 0.06233 0.02065 0.47009 0.0
O47 O 0.93889 0.05145 0.67007 0.0
O48 O 0.0482 0.97709 0.61193 0.0
O49 O 0.06146 0.93464 0.51293 0.0
O50 O 0.99429 0.96765 0.33283 0.0
O51 O 0.97649 0.91953 0.52936 0.0
O52 O 0.94384 0.98856 0.57261 0.0
O53 O 0.06836 0.95769 0.37296 0.0
O54 O 0.9586 0.03117 0.43053 0.0
O55 O 0.94562 0.07367 0.52962 0.0
C56 C 0.05556 0.06875 0.46665 0.0
C57 C 0.94442 0.0502 0.78845 0.0
C58 C 0.95065 0.03828 0.9071 0.0
C59 C 0.90224 0.05606 0.91458 0.0
C60 C 0.89631 0.06817 0.7972 0.0
C61 C 0.87546 0.0711 0.85995 0.0
C62 C 0.97158 0.03565 0.84354 0.0
C63 C 0.0691 0.94214 0.57612 0.0
C64 C 0.96626 0.04817 0.72198 0.0
C65 C 0.09091 0.22533 0.67617 0.0
C66 C 0.13455 0.20004 0.66196 0.0
C67 C 0.95012 0.9404 0.57575 0.0
C68 C 0.06341 0.95938 0.25451 0.0
C69 C 0.058 0.97206 0.13584 0.0
C70 C 0.10643 0.95426 0.12876 0.0
C71 C 0.11156 0.94144 0.24611 0.0
C72 C 0.03664 0.9743 0.19921 0.0
C73 C 0.13282 0.93887 0.18356 0.0
C74 C 0.93795 0.06615 0.46646 0.0
C75 C 0.0412 0.96105 0.32085 0.0
H76 H 0.8847 0.05774 0.96257 0.0
H77 H 0.87485 0.0803 0.75556 0.0
H78 H 0.83832 0.08491 0.86625 0.0
H79 H 0.00907 0.02274 0.8369 0.0
H80 H 0.12427 0.95281 0.08094 0.0
H81 H 0.13275 0.92904 0.28786 0.0
H82 H 0.9991 0.98715 0.20551 0.0
H83 H 0.16998 0.92505 0.17756 0.0
Eu84 Eu 0.20666 0.75155 0.84931 0.0
C85 C 0.41251 0.71143 0.71312 0.0
N86 N 0.3901 0.75623 0.71488 0.0
C87 C 0.46539 0.79501 0.74981 0.0
C88 C 0.46246 0.70659 0.73113 0.0
C89 C 0.41609 0.79796 0.73052 0.0
C90 C 0.48854 0.74898 0.75094 0.0
C91 C 0.40724 0.62315 0.69238 0.0
C92 C 0.3847 0.67005 0.69604 0.0
C93 C 0.45697 0.61813 0.71015 0.0
C94 C 0.48431 0.65962 0.73038 0.0
Eu95 Eu 0.30442 0.75751 0.69404 0.0
N96 N 0.336 0.67578 0.68189 0.0
C97 C 0.37932 0.58282 0.67002 0.0
C98 C 0.30994 0.63726 0.65551 0.0
C99 C 0.33074 0.59016 0.65029 0.0
H100 H 0.39868 0.83343 0.72782 0.0
H101 H 0.30946 0.55971 0.63013 0.0
H102 H 0.11568 0.67147 0.81363 0.0
H103 H 0.19337 0.95015 0.90504 0.0
H104 H 0.2738 0.6427 0.63607 0.0
H105 H 0.39535 0.54631 0.66591 0.0
H106 H 0.23217 0.86837 0.90355 0.0
H107 H 0.4856 0.82824 0.76333 0.0
H108 H 0.47471 0.58235 0.70817 0.0
H109 H 0.52254 0.65515 0.74434 0.0
H110 H 0.02997 0.67334 0.7727 0.0
H111 H 0.52679 0.74675 0.76583 0.0
H112 H 0.1085 0.96004 0.86331 0.0
N113 N 0.12162 0.74935 0.82358 0.0
C114 C 0.09792 0.7935 0.8216 0.0
C115 C 0.04883 0.70749 0.78563 0.0
C116 C 0.04894 0.79651 0.79905 0.0
C117 C 0.09742 0.70645 0.80827 0.0
C118 C 0.02469 0.75282 0.78007 0.0
N119 N 0.17174 0.83204 0.85786 0.0
C120 C 0.19601 0.87204 0.88332 0.0
C121 C 0.09976 0.88229 0.83951 0.0
C122 C 0.12356 0.83599 0.83993 0.0
C123 C 0.12558 0.92389 0.86228 0.0
C124 C 0.17359 0.91852 0.88541 0.0
H125 H 0.98704 0.75355 0.7625 0.0
H126 H 0.98841 0.84595 0.77831 0.0
H127 H 0.03274 0.92098 0.81404 0.0
O128 O 0.22279 0.76091 0.9546 0.0
O129 O 0.18158 0.77984 0.74977 0.0
O130 O 0.25042 0.82005 0.70885 0.0
O131 O 0.16537 0.70867 0.92377 0.0
O132 O 0.27732 0.79808 0.86019 0.0
O133 O 0.30522 0.82676 0.75789 0.0
O134 O 0.28634 0.74911 0.58912 0.0
O135 O 0.33166 0.72978 0.79268 0.0
O136 O 0.26283 0.69103 0.83537 0.0
O137 O 0.3452 0.80009 0.61891 0.0
O138 O 0.23256 0.71315 0.68547 0.0
O139 O 0.20866 0.68152 0.78742 0.0
C140 C 0.20246 0.81381 0.71224 0.0
C141 C 0.17931 0.71395 0.04211 0.0
C142 C 0.19899 0.71687 0.15989 0.0
C143 C 0.16086 0.68206 0.17215 0.0
C144 C 0.1415 0.67928 0.05641 0.0
C145 C 0.13237 0.66364 0.12088 0.0
C146 C 0.20782 0.73305 0.09435 0.0
C147 C 0.30343 0.82932 0.82284 0.0
C148 C 0.18964 0.72793 0.97246 0.0
C149 C 0.02594 0.84286 0.79575 0.0
C150 C 0.05116 0.88558 0.81636 0.0
C151 C 0.31073 0.69837 0.83417 0.0
C152 C 0.32971 0.79549 0.50092 0.0
C153 C 0.31005 0.79193 0.38315 0.0
C154 C 0.34802 0.82689 0.37067 0.0
C155 C 0.36731 0.83032 0.48635 0.0
C156 C 0.30128 0.77597 0.44882 0.0
C157 C 0.37636 0.84573 0.4218 0.0
C158 C 0.20866 0.68014 0.72255 0.0
C159 C 0.32005 0.78132 0.57066 0.0
H160 H 0.15255 0.66947 0.22176 0.0
H161 H 0.11902 0.66387 1.01763 0.0
H162 H 0.10307 0.63695 0.13117 0.0
H163 H 0.23734 0.75951 0.08395 0.0
H164 H 0.35631 0.83931 0.32098 0.0
H165 H 0.38976 0.84598 0.52499 0.0
H166 H 0.27198 0.74931 0.45943 0.0
H167 H 0.40553 0.87254 0.41134 0.0
Eu168 Eu 0.49894 0.96352 0.10067 0.0
C169 C 0.5633 0.16035 0.96815 0.0
N170 N 0.51675 0.14093 0.97209 0.0
C171 C 0.48568 0.21788 1.01239 0.0
C172 C 0.57295 0.20934 0.98858 0.0
C173 C 0.4778 0.16927 0.99111 0.0
C174 C 0.53358 0.23775 1.01218 0.0
C175 C 0.6508 0.14846 0.9469 0.0
C176 C 0.60191 0.12984 0.94823 0.0
C177 C 0.66028 0.19759 0.96587 0.0
C178 C 0.62156 0.22789 0.98659 0.0
Eu179 Eu 0.50783 0.05743 0.94132 0.0
N180 N 0.59189 0.08173 0.93217 0.0
C181 C 0.68883 0.11704 0.92694 0.0
C182 C 0.62853 0.0517 0.90981 0.0
C183 C 0.67757 0.06863 0.90774 0.0
H184 H 0.44063 0.15443 0.99013 0.0
H185 H 0.70663 0.04442 0.89086 0.0
H186 H 0.57247 0.86662 0.05692 0.0
H187 H 0.30922 0.95805 0.18998 0.0
H188 H 0.62028 0.01504 0.89222 0.0
H189 H 0.7269 0.12994 0.92553 0.0
H190 H 0.39152 0.99557 0.16679 0.0
H191 H 0.45484 0.24006 0.02867 0.0
H192 H 0.69751 0.21241 0.96507 0.0
H193 H 0.62959 0.26569 1.00078 0.0
H194 H 0.56134 0.78142 1.01608 0.0
H195 H 0.53961 0.27532 0.02918 0.0
H196 H 0.29195 0.87134 0.15781 0.0
N197 N 0.49575 0.87819 0.07296 0.0
C198 C 0.45058 0.85589 0.07945 0.0
C199 C 0.52965 0.80236 0.03238 0.0
C200 C 0.44253 0.8068 0.05834 0.0
C201 C 0.53573 0.85113 0.05425 0.0
C202 C 0.48255 0.7806 0.03249 0.0
N203 N 0.41992 0.93047 0.12289 0.0
C204 C 0.38419 0.95755 0.15321 0.0
C205 C 0.36577 0.85926 0.11952 0.0
C206 C 0.41233 0.88199 0.10837 0.0
C207 C 0.32837 0.88712 0.14919 0.0
C208 C 0.3378 0.93633 0.16673 0.0
H209 H 0.47795 0.74277 1.0157 0.0
H210 H 0.38808 0.7478 0.04794 0.0
H211 H 0.32154 0.79299 0.10404 0.0
O212 O 0.48993 0.99196 0.2002 0.0
O213 O 0.43575 0.96228 0.02603 0.0
O214 O 0.47422 0.98109 0.92768 0.0
O215 O 0.5278 0.92281 0.18545 0.0
O216 O 0.46793 0.04042 0.10477 0.0
O217 O 0.4373 0.0617 1.00284 0.0
O218 O 0.52604 0.07027 0.83713 0.0
O219 O 0.53821 0.07978 0.04105 0.0
O220 O 0.56953 0.00829 0.08398 0.0
O221 O 0.4551 0.09216 0.87578 0.0
O222 O 0.53994 0.98083 0.93006 0.0
O223 O 0.56567 0.95385 0.03287 0.0
C224 C 0.43752 0.96089 0.96123 0.0
C225 C 0.54599 0.96902 0.28257 0.0
C226 C 0.5551 0.99305 0.39801 0.0
C227 C 0.60649 0.99694 0.38775 0.0
C228 C 0.59731 0.97285 0.27367 0.0
C229 C 0.62731 0.98682 0.32608 0.0
C230 C 0.52513 0.97912 0.3447 0.0
C231 C 0.43516 0.06231 0.06767 0.0
C232 C 0.51301 0.95557 0.22806 0.0
C233 C 0.39524 0.78512 0.06518 0.0
C234 C 0.35735 0.81074 0.09734 0.0
C235 C 0.56982 0.05682 0.07886 0.0
C236 C 0.4576 0.06536 0.76414 0.0
C237 C 0.46049 0.03534 0.65005 0.0
C238 C 0.40881 0.02895 0.65264 0.0
C239 C 0.40607 0.05798 0.76468 0.0
C240 C 0.48472 0.05414 0.70624 0.0
C241 C 0.38207 0.04 0.7094 0.0
C242 C 0.56672 0.95218 0.96806 0.0
C243 C 0.48224 0.08644 0.82302 0.0
H244 H 0.63069 0.00703 0.42768 0.0
H245 H 0.61408 0.96512 0.22635 0.0
H246 H 0.66694 0.98968 0.31894 0.0
H247 H 0.48535 0.97667 0.35122 0.0
H248 H 0.38869 0.01603 0.61022 0.0
H249 H 0.38396 0.0664 0.80775 0.0
H250 H 0.52445 0.05964 0.70517 0.0
H251 H 0.34233 0.03491 0.71041 0.0
Eu252 Eu 0.21046 0.27102 0.18659 0.0
C253 C 0.39982 0.26593 0.39954 0.0
N254 N 0.37319 0.22687 0.37657 0.0
C255 C 0.44151 0.17272 0.39434 0.0
C256 C 0.44838 0.25948 0.42247 0.0
C257 C 0.39331 0.18079 0.37296 0.0
C258 C 0.46889 0.21208 0.42022 0.0
C259 C 0.40654 0.35427 0.42019 0.0
C260 C 0.37876 0.3127 0.39935 0.0
C261 C 0.45437 0.34777 0.44467 0.0
C262 C 0.47508 0.30044 0.44627 0.0
Eu263 Eu 0.28956 0.24225 0.35364 0.0
N264 N 0.33181 0.31779 0.37708 0.0
C265 C 0.38559 0.40128 0.41537 0.0
C266 C 0.31131 0.36373 0.37257 0.0
C267 C 0.33794 0.40605 0.39101 0.0
H268 H 0.37127 0.14967 0.35649 0.0
H269 H 0.32158 0.44236 0.38665 0.0
H270 H 0.13311 0.36723 0.18191 0.0
H271 H 0.17272 0.07273 0.15011 0.0
H272 H 0.27489 0.36849 0.35375 0.0
H273 H 0.40603 0.43411 0.42965 0.0
H274 H 0.22251 0.14533 0.18107 0.0
H275 H 0.45711 0.13598 0.39215 0.0
H276 H 0.47594 0.37925 0.46155 0.0
H277 H 0.51234 0.29613 0.46429 0.0
H278 H 0.04683 0.38375 0.15045 0.0
H279 H 0.50608 0.20566 0.4373 0.0
H280 H 0.08692 0.08337 0.11343 0.0
N281 N 0.12731 0.28969 0.16526 0.0
C282 C 0.09847 0.2513 0.14505 0.0
C283 C 0.0608 0.34632 0.14894 0.0
C284 C 0.04942 0.25926 0.125 0.0
C285 C 0.10933 0.33672 0.16767 0.0
C286 C 0.03086 0.30749 0.12685 0.0
N287 N 0.16548 0.19726 0.16364 0.0
C288 C 0.18525 0.1509 0.16543 0.0
C289 C 0.08829 0.16309 0.12533 0.0
C290 C 0.11794 0.2038 0.14449 0.0
C291 C 0.10842 0.11556 0.12749 0.0
C292 C 0.15696 0.10942 0.14804 0.0
H293 H 0.99338 0.31507 0.11183 0.0
H294 H 0.98264 0.22441 0.08855 0.0
H295 H 0.01649 0.14034 0.08934 0.0
O296 O 0.24001 0.26198 0.08699 0.0
O297 O 0.16694 0.23007 0.26779 0.0
O298 O 0.23327 0.19028 0.30794 0.0
O299 O 0.20413 0.33033 0.11392 0.0
O300 O 0.2773 0.22179 0.17535 0.0
O301 O 0.30281 0.18574 0.27416 0.0
O302 O 0.26168 0.24944 0.45437 0.0
O303 O 0.33408 0.28144 0.27238 0.0
O304 O 0.26779 0.32135 0.23295 0.0
O305 O 0.29703 0.18162 0.42421 0.0
O306 O 0.22114 0.28992 0.36409 0.0
O307 O 0.19935 0.3283 0.26539 0.0
C308 C 0.1856 0.19813 0.30957 0.0
C309 C 0.19762 0.30463 1.0028 0.0
C310 C 0.20054 0.28914 0.88487 0.0
C311 C 0.15271 0.30836 0.87916 0.0
C312 C 0.14989 0.32391 0.99602 0.0
C313 C 0.12758 0.32551 0.93457 0.0
C314 C 0.22263 0.28719 0.94702 0.0
C315 C 0.30416 0.19062 0.20948 0.0
C316 C 0.22314 0.30441 0.06647 0.0
C317 C 0.02038 0.21898 0.10413 0.0
C318 C 0.03967 0.17104 0.10464 0.0
C319 C 0.31531 0.31277 0.23004 0.0
C320 C 0.30535 0.20518 0.53607 0.0
C321 C 0.30515 0.22113 0.65403 0.0
C322 C 0.35192 0.19929 0.65854 0.0
C323 C 0.35178 0.18279 0.54189 0.0
C324 C 0.28233 0.22425 0.59239 0.0
C325 C 0.37502 0.18033 0.60267 0.0
C326 C 0.19543 0.322 0.32964 0.0
C327 C 0.27886 0.20666 0.47305 0.0
H328 H 0.13466 0.30989 0.83194 0.0
H329 H 0.12994 0.33841 0.03765 0.0
H330 H 0.09083 0.34048 0.92979 0.0
H331 H 0.25991 0.27335 0.9518 0.0
H332 H 0.37061 0.19684 0.70524 0.0
H333 H 0.36988 0.16638 0.50007 0.0
H334 H 0.2458 0.24005 0.58844 0.0
H335 H 0.41081 0.16309 0.60663 0.0
Eu336 Eu 0.70389 0.25011 0.35049 0.0
C337 C 0.90574 0.20719 0.2209 0.0
N338 N 0.88543 0.25305 0.22041 0.0
C339 C 0.96097 0.28873 0.25956 0.0
C340 C 0.95436 0.20016 0.24304 0.0
C341 C 0.9125 0.29378 0.23758 0.0
C342 C 0.98185 0.24165 0.26296 0.0
C343 C 0.89707 0.11904 0.20084 0.0
C344 C 0.87686 0.16702 0.2017 0.0
C345 C 0.94516 0.11167 0.22412 0.0
C346 C 0.97371 0.1521 0.24527 0.0
Eu347 Eu 0.80077 0.2576 0.19452 0.0
N348 N 0.82923 0.17488 0.18358 0.0
C349 C 0.86836 0.07993 0.17647 0.0
C350 C 0.80259 0.13763 0.15515 0.0
C351 C 0.82133 0.08952 0.15218 0.0
H352 H 0.89648 0.33007 0.23467 0.0
H353 H 0.7996 0.05994 0.13068 0.0
H354 H 0.61587 0.16727 0.31042 0.0
H355 H 0.68363 0.44553 0.41826 0.0
H356 H 0.76742 0.14485 0.13303 0.0
H357 H 0.88266 0.04259 0.17447 0.0
H358 H 0.72609 0.36581 0.40918 0.0
H359 H 0.98221 0.32113 0.27381 0.0
H360 H 0.9606 0.07484 0.22612 0.0
H361 H 0.01085 0.14586 0.26269 0.0
H362 H 0.52958 0.16754 0.2714 0.0
H363 H 0.01941 0.23783 0.28003 0.0
H364 H 0.59763 0.45325 0.3798 0.0
N365 N 0.61895 0.24513 0.32508 0.0
C366 C 0.59362 0.28842 0.32589 0.0
C367 C 0.54731 0.20185 0.28613 0.0
C368 C 0.54438 0.29034 0.30419 0.0
C369 C 0.59616 0.20182 0.308 0.0
C370 C 0.52159 0.24644 0.28308 0.0
N371 N 0.66621 0.32872 0.36334 0.0
C372 C 0.6893 0.36868 0.3907 0.0
C373 C 0.59193 0.37638 0.35023 0.0
C374 C 0.61768 0.33123 0.34671 0.0
C375 C 0.61623 0.41802 0.37569 0.0
C376 C 0.66488 0.4139 0.39698 0.0
H377 H 0.4838 0.24637 0.26594 0.0
H378 H 0.48174 0.33804 0.2875 0.0
H379 H 0.52288 0.41307 0.32966 0.0
O380 O 0.723 0.25813 0.45517 0.0
O381 O 0.67896 0.28323 0.25361 0.0
O382 O 0.74773 0.32096 0.2067 0.0
O383 O 0.66301 0.20814 0.42605 0.0
O384 O 0.77317 0.29842 0.36016 0.0
O385 O 0.80129 0.32705 0.25773 0.0
O386 O 0.78575 0.24922 0.08906 0.0
O387 O 0.82661 0.23197 0.29509 0.0
O388 O 0.75906 0.18911 0.33424 0.0
O389 O 0.84408 0.29998 0.12109 0.0
O390 O 0.7271 0.21624 0.18459 0.0
O391 O 0.7081 0.18153 0.28628 0.0
C392 C 0.69993 0.31733 0.21625 0.0
C393 C 0.67933 0.21242 0.54391 0.0
C394 C 0.69923 0.21602 0.66173 0.0
C395 C 0.66061 0.18187 0.67447 0.0
C396 C 0.64117 0.17829 0.55883 0.0
C397 C 0.63193 0.16335 0.62353 0.0
C398 C 0.70818 0.23159 0.59587 0.0
C399 C 0.7985 0.33012 0.32258 0.0
C400 C 0.68879 0.22654 0.47404 0.0
C401 C 0.51954 0.33582 0.30423 0.0
C402 C 0.54299 0.37856 0.32816 0.0
C403 C 0.80674 0.19714 0.33215 0.0
C404 C 0.83085 0.29494 1.00224 0.0
C405 C 0.81166 0.29116 0.88425 0.0
C406 C 0.84992 0.32583 0.87193 0.0
C407 C 0.86872 0.32949 0.9879 0.0
C408 C 0.80272 0.27544 0.94992 0.0
C409 C 0.87819 0.34459 0.92326 0.0
C410 C 0.7049 0.18228 0.22171 0.0
C411 C 0.81987 0.28135 0.07188 0.0
H412 H 0.65199 0.16988 0.72423 0.0
H413 H 0.61832 0.16292 0.5204 0.0
H414 H 0.60232 0.1372 0.63441 0.0
H415 H 0.73782 0.25778 0.58501 0.0
H416 H 0.85852 0.3381 0.82227 0.0
H417 H 0.89094 0.34519 0.02675 0.0
H418 H 0.77342 0.24896 0.96044 0.0
H419 H 0.90755 0.37118 0.91285 0.0
Eu420 Eu 0.71393 0.76515 0.68585 0.0
C421 C 0.90276 0.76564 0.89636 0.0
N422 N 0.87552 0.72614 0.87608 0.0
C423 C 0.94396 0.67213 0.89378 0.0
C424 C 0.95189 0.75957 0.91728 0.0
C425 C 0.89521 0.67983 0.87451 0.0
C426 C 0.97225 0.71209 0.91607 0.0
C427 C 0.90943 0.85412 0.91601 0.0
C428 C 0.88147 0.81232 0.8965 0.0
C429 C 0.95801 0.84796 0.93788 0.0
C430 C 0.97911 0.80085 0.93879 0.0
Eu431 Eu 0.79162 0.74127 0.85486 0.0
N432 N 0.83384 0.817 0.87669 0.0
C433 C 0.88772 0.9009 0.91309 0.0
C434 C 0.81256 0.86264 0.87385 0.0
C435 C 0.83923 0.90519 0.8914 0.0
H436 H 0.8722 0.64825 0.86272 0.0
H437 H 0.82223 0.94128 0.88862 0.0
H438 H 0.62802 0.85348 0.67975 0.0
H439 H 0.69166 0.56342 0.65382 0.0
H440 H 0.77533 0.86686 0.85735 0.0
H441 H 0.90807 0.93389 0.92728 0.0
H442 H 0.734 0.63916 0.68801 0.0
H443 H 0.95918 0.63518 0.89328 0.0
H444 H 0.97974 0.87937 0.95403 0.0
H445 H 0.01682 0.79687 0.95527 0.0
H446 H 0.54243 0.86306 0.64101 0.0
H447 H 0.00981 0.70596 0.93191 0.0
H448 H 0.60751 0.56747 0.60895 0.0
N449 N 0.63003 0.77625 0.66047 0.0
C450 C 0.60566 0.73589 0.63701 0.0
C451 C 0.55967 0.82706 0.63987 0.0
C452 C 0.55722 0.73994 0.61268 0.0
C453 C 0.60767 0.82128 0.66327 0.0
C454 C 0.53464 0.78639 0.6134 0.0
N455 N 0.67568 0.68742 0.66186 0.0
C456 C 0.69805 0.64245 0.66752 0.0
C457 C 0.60322 0.64723 0.61746 0.0
C458 C 0.62886 0.69019 0.63827 0.0
C459 C 0.62627 0.60131 0.62311 0.0
C460 C 0.67377 0.5989 0.64851 0.0
H461 H 0.49752 0.791 0.59504 0.0
H462 H 0.49534 0.7 0.57056 0.0
H463 H 0.53528 0.61867 0.57577 0.0
O464 O 0.742 0.75864 0.58523 0.0
O465 O 0.66839 0.72506 0.76526 0.0
O466 O 0.7346 0.68918 0.81138 0.0
O467 O 0.70527 0.82571 0.61544 0.0
O468 O 0.78421 0.72009 0.67816 0.0
O469 O 0.80485 0.6828 0.77782 0.0
O470 O 0.76433 0.75052 0.95545 0.0
O471 O 0.8354 0.7811 0.77327 0.0
O472 O 0.76892 0.81926 0.73077 0.0
O473 O 0.79939 0.68203 0.92733 0.0
O474 O 0.7235 0.78935 0.86382 0.0
O475 O 0.69573 0.82154 0.76377 0.0
C476 C 0.68692 0.69716 0.81173 0.0
C477 C 0.69755 0.80191 0.5037 0.0
C478 C 0.69824 0.78537 0.38614 0.0
C479 C 0.65067 0.80534 0.38138 0.0
C480 C 0.65051 0.82294 0.49768 0.0
C481 C 0.62701 0.82398 0.43701 0.0
C482 C 0.72118 0.78335 0.44765 0.0
C483 C 0.80947 0.68819 0.71349 0.0
C484 C 0.72401 0.80108 0.56662 0.0
C485 C 0.53256 0.69757 0.58933 0.0
C486 C 0.55531 0.65126 0.59232 0.0
C487 C 0.81684 0.81232 0.73053 0.0
C488 C 0.80775 0.70752 0.03819 0.0
C489 C 0.80585 0.72235 0.15606 0.0
C490 C 0.85407 0.704 0.16085 0.0
C491 C 0.85579 0.6888 0.04391 0.0
C492 C 0.78305 0.72413 0.09448 0.0
C493 C 0.87886 0.68741 0.10487 0.0
C494 C 0.69518 0.81861 0.82863 0.0
C495 C 0.78135 0.70799 0.97532 0.0
H496 H 0.63193 0.80679 0.33464 0.0
H497 H 0.63213 0.83943 0.53916 0.0
H498 H 0.59066 0.83998 0.43294 0.0
H499 H 0.75825 0.76884 0.45166 0.0
H500 H 0.87258 0.7026 0.20775 0.0
H501 H 0.87533 0.67448 1.00194 0.0
H502 H 0.74543 0.73723 0.09052 0.0
H503 H 0.91588 0.67296 0.10883 0.0
Eu504 Eu 0.49725 0.54551 0.10602 0.0
C505 C 0.4675 0.35585 0.90351 0.0
N506 N 0.51085 0.37911 0.9177 0.0
C507 C 0.55612 0.30733 0.88508 0.0
C508 C 0.46692 0.30639 0.8811 0.0
C509 C 0.5548 0.35535 0.9103 0.0
C510 C 0.51199 0.28263 0.87059 0.0
C511 C 0.37789 0.3571 0.89971 0.0
C512 C 0.4235 0.38155 0.91094 0.0
C513 C 0.37726 0.30753 0.8789 0.0
C514 C 0.42164 0.28241 0.86902 0.0
Eu515 Eu 0.50617 0.4644 0.94044 0.0
N516 N 0.42514 0.42997 0.92992 0.0
C517 C 0.33412 0.38311 0.9098 0.0
C518 C 0.38231 0.45514 0.94012 0.0
C519 C 0.33638 0.43221 0.93054 0.0
H520 H 0.58919 0.37414 0.92134 0.0
H521 H 0.3027 0.45257 0.93907 0.0
H522 H 0.41514 0.63761 0.11447 0.0
H523 H 0.70078 0.55756 0.11009 0.0
H524 H 0.38275 0.49248 0.95678 0.0
H525 H 0.29844 0.3656 0.90195 0.0
H526 H 0.6212 0.51903 0.08493 0.0
H527 H 0.59116 0.2893 0.87709 0.0
H528 H 0.34259 0.2884 0.86988 0.0
H529 H 0.42054 0.24434 0.85223 0.0
H530 H 0.4118 0.72051 0.16475 0.0
H531 H 0.51312 0.24501 0.85221 0.0
H532 H 0.70434 0.64253 0.15473 0.0
N533 N 0.49284 0.63128 0.12575 0.0
C534 C 0.53565 0.65364 0.14447 0.0
C535 C 0.44704 0.70285 0.15723 0.0
C536 C 0.5358 0.70266 0.1684 0.0
C537 C 0.44906 0.65576 0.12923 0.0
C538 C 0.49061 0.72673 0.17617 0.0
N539 N 0.57822 0.58003 0.11721 0.0
C540 C 0.62124 0.55532 0.10584 0.0
C541 C 0.62491 0.65135 0.15418 0.0
C542 C 0.57957 0.62763 0.1393 0.0
C543 C 0.66882 0.62548 0.14434 0.0
C544 C 0.66695 0.57751 0.11928 0.0
H545 H 0.48896 0.76378 0.19637 0.0
H546 H 0.58148 0.76341 0.20324 0.0
H547 H 0.6596 0.71889 0.18922 0.0
O548 O 0.50778 0.52984 0.21209 0.0
O549 O 0.53218 0.58898 1.02054 0.0
O550 O 0.56423 0.52153 0.97004 0.0
O551 O 0.43884 0.56077 0.17583 0.0
O552 O 0.5417 0.47506 0.11533 0.0
O553 O 0.56338 0.44038 1.01372 0.0
O554 O 0.49384 0.47038 0.83331 0.0
O555 O 0.47396 0.42138 0.02782 0.0
O556 O 0.43977 0.48932 0.07235 0.0
O557 O 0.56741 0.4556 0.87255 0.0
O558 O 0.46582 0.53816 0.93209 0.0
O559 O 0.43481 0.55783 0.03561 0.0
C560 C 0.55841 0.5698 0.97245 0.0
C561 C 0.44317 0.55138 0.29292 0.0
C562 C 0.44964 0.5388 0.41115 0.0
C563 C 0.40572 0.56544 0.42031 0.0
C564 C 0.39929 0.57778 0.3031 0.0
C565 C 0.38066 0.58453 0.36646 0.0
C566 C 0.46791 0.53155 0.34697 0.0
C567 C 0.56642 0.44361 0.07828 0.0
C568 C 0.46442 0.54779 0.22637 0.0
C569 C 0.5807 0.72574 0.18495 0.0
C570 C 0.62517 0.70032 0.17726 0.0
C571 C 0.44605 0.4412 0.07342 0.0
C572 C 0.56166 0.45506 0.75485 0.0
C573 C 0.55554 0.4651 0.63615 0.0
C574 C 0.60008 0.43926 0.62837 0.0
C575 C 0.60614 0.42946 0.74612 0.0
C576 C 0.53674 0.47308 0.69988 0.0
C577 C 0.62523 0.42178 0.68315 0.0
C578 C 0.43825 0.56507 0.97183 0.0
C579 C 0.53996 0.45985 0.82092 0.0
H580 H 0.39119 0.57241 0.46912 0.0
H581 H 0.37973 0.594 0.26222 0.0
H582 H 0.34709 0.6053 0.37393 0.0
H583 H 0.50146 0.51076 0.33902 0.0
H584 H 0.61509 0.43173 0.57996 0.0
H585 H 0.6257 0.41455 0.78787 0.0
H586 H 0.50273 0.49326 0.70689 0.0
H587 H 0.65927 0.40159 0.67674 0.0
Eu588 Eu 0.99848 0.4574 0.6 0.0
C589 C 0.06105 0.65828 0.45605 0.0
N590 N 0.01555 0.63772 0.4676 0.0
C591 C 0.98616 0.71495 0.50934 0.0
C592 C 0.07124 0.70785 0.47345 0.0
C593 C 0.97767 0.6658 0.49081 0.0
C594 C 0.03339 0.73571 0.50201 0.0
C595 C 0.1455 0.64977 0.41572 0.0
C596 C 0.09831 0.62904 0.42918 0.0
C597 C 0.15529 0.69944 0.43187 0.0
C598 C 0.11866 0.72801 0.46196 0.0
Eu599 Eu 0.00826 0.55288 0.44179 0.0
N600 N 0.08966 0.57964 0.42091 0.0
C601 C 0.18236 0.61896 0.39051 0.0
C602 C 0.12487 0.54983 0.39453 0.0
C603 C 0.17185 0.56891 0.37931 0.0
H604 H 0.94076 0.65081 0.49459 0.0
H605 H 0.19991 0.54502 0.35895 0.0
H606 H 0.07262 0.36209 0.55315 0.0
H607 H 0.80477 0.45527 0.6736 0.0
H608 H 0.1164 0.51173 0.38351 0.0
H609 H 0.21922 0.63315 0.38048 0.0
H610 H 0.8873 0.49272 0.65293 0.0
H611 H 0.95621 0.73692 0.52881 0.0
H612 H 0.19149 0.71574 0.42295 0.0
H613 H 0.12721 0.76596 0.47537 0.0
H614 H 0.06229 0.27577 0.51671 0.0
H615 H 0.03976 0.77379 0.51652 0.0
H616 H 0.78992 0.36689 0.64856 0.0
N617 N 0.99601 0.37237 0.57253 0.0
C618 C 0.95095 0.34985 0.57999 0.0
C619 C 0.03054 0.29647 0.53336 0.0
C620 C 0.94367 0.3 0.56159 0.0
C621 C 0.03612 0.34581 0.55297 0.0
C622 C 0.98392 0.2738 0.53627 0.0
N623 N 0.91791 0.4265 0.61567 0.0
C624 C 0.88081 0.45435 0.64117 0.0
C625 C 0.86501 0.35409 0.61572 0.0
C626 C 0.91153 0.37703 0.60504 0.0
C627 C 0.82633 0.38277 0.64065 0.0
C628 C 0.83437 0.43299 0.65388 0.0
H629 H 0.97986 0.2355 0.5213 0.0
H630 H 0.89044 0.23953 0.55552 0.0
H631 H 0.82226 0.2863 0.60488 0.0
O632 O 0.98146 0.47578 0.70213 0.0
O633 O 0.94958 0.44149 0.51083 0.0
O634 O 0.93645 0.51012 0.44321 0.0
O635 O 0.02793 0.41295 0.68022 0.0
O636 O 0.9741 0.53731 0.60206 0.0
O637 O 0.93983 0.56162 0.50494 0.0
O638 O 0.02359 0.53477 0.33927 0.0
O639 O 0.0554 0.57071 0.53206 0.0
O640 O 0.06963 0.50179 0.59885 0.0
O641 O 0.97708 0.59733 0.36267 0.0
O642 O 0.03131 0.4726 0.44122 0.0
O643 O 0.06738 0.45047 0.53771 0.0
C644 C 0.92717 0.46425 0.46192 0.0
C645 C 0.04062 0.4544 0.7817 0.0
C646 C 0.04735 0.48033 0.8963 0.0
C647 C 0.09914 0.48017 0.88957 0.0
C648 C 0.09237 0.45421 0.77619 0.0
C649 C 0.12136 0.4672 0.82991 0.0
C650 C 0.01837 0.46743 0.84177 0.0
C651 C 0.9381 0.55774 0.56935 0.0
C652 C 0.00892 0.44074 0.72604 0.0
C653 C 0.89676 0.27774 0.56962 0.0
C654 C 0.85791 0.30432 0.59796 0.0
C655 C 0.07802 0.54812 0.58102 0.0
C656 C 0.96341 0.55585 0.26125 0.0
C657 C 0.95588 0.53017 0.14662 0.0
C658 C 0.90416 0.52918 0.15449 0.0
C659 C 0.91175 0.55463 0.26802 0.0
C660 C 0.9852 0.54354 0.20062 0.0
C661 C 0.88238 0.54128 0.21479 0.0
C662 C 0.06794 0.45285 0.4733 0.0
C663 C 0.99562 0.56973 0.31626 0.0
H664 H 0.12253 0.4893 0.93073 0.0
H665 H 0.11038 0.44445 0.73036 0.0
H666 H 0.16125 0.46706 0.82537 0.0
H667 H 0.97839 0.4679 0.84576 0.0
H668 H 0.88045 0.5197 0.1138 0.0
H669 H 0.89412 0.56366 0.31439 0.0
H670 H 0.02515 0.54387 0.19586 0.0
H671 H 0.84255 0.54044 0.22023 0.0
C672 C 0.07383 0.1493 0.40718 0.0
C673 C 0.08839 0.10104 0.42467 0.0
H674 H 0.09257 0.21725 0.35635 0.0
C675 C 0.13501 0.08475 0.40307 0.0
H676 H 0.03817 0.16302 0.42292 0.0
C677 C 0.16664 0.11628 0.36621 0.0
C678 C 0.15195 0.16443 0.34839 0.0
H679 H 0.14755 0.04797 0.41589 0.0
H680 H 0.20252 0.10274 0.35119 0.0
C681 C 0.10493 0.18033 0.36884 0.0
C682 C 0.13255 0.92743 0.66227 0.0
C683 C 0.10434 0.90945 0.60968 0.0
H684 H 0.18765 0.91126 0.73415 0.0
C685 C 0.10974 0.85989 0.59011 0.0
H686 H 0.12905 0.96538 0.67862 0.0
C687 C 0.14189 0.8286 0.6236 0.0
C688 C 0.17043 0.84703 0.67531 0.0
H689 H 0.0883 0.84511 0.54998 0.0
H690 H 0.14465 0.79012 0.60902 0.0
C691 C 0.16609 0.89668 0.69394 0.0
C692 C 0.36626 0.89992 0.82202 0.0
C693 C 0.33415 0.86749 0.85685 0.0
H694 H 0.42588 0.95288 0.82721 0.0
C695 C 0.33237 0.87114 0.92577 0.0
H696 H 0.36635 0.9012 0.76894 0.0
C697 C 0.3628 0.90476 0.95854 0.0
C698 C 0.39941 0.93208 0.92474 0.0
H699 H 0.30727 0.8482 0.95493 0.0
H700 H 0.35771 0.90912 1.01042 0.0
C701 C 0.39976 0.93053 0.85557 0.0
C702 C 0.4125 0.11143 0.16545 0.0
C703 C 0.40111 0.09602 0.10148 0.0
H704 H 0.39171 0.15432 0.24783 0.0
C705 C 0.3576 0.1127 0.07216 0.0
H706 H 0.44635 0.10036 0.18913 0.0
C707 C 0.32559 0.14354 0.10722 0.0
C708 C 0.3368 0.15777 0.1719 0.0
H709 H 0.34811 0.10152 0.02281 0.0
H710 H 0.29195 0.15576 0.08408 0.0
C711 C 0.38084 0.14202 0.1999 0.0
C712 C 0.8674 0.92301 0.63083 0.0
C713 C 0.91607 0.90835 0.61636 0.0
H714 H 0.79764 0.90398 0.67651 0.0
C715 C 0.93172 0.86202 0.63994 0.0
H716 H 0.85399 0.95826 0.61296 0.0
C717 C 0.8998 0.8314 0.6777 0.0
C718 C 0.85085 0.84562 0.69137 0.0
H719 H 0.96896 0.84965 0.62976 0.0
H720 H 0.91329 0.79615 0.69541 0.0
C721 C 0.835 0.89175 0.66703 0.0
C722 C 0.87307 0.08166 0.38285 0.0
C723 C 0.90372 0.09965 0.43287 0.0
H724 H 0.81647 0.09869 0.31348 0.0
C725 C 0.90202 0.15006 0.44968 0.0
H726 H 0.87401 0.04309 0.36847 0.0
C727 C 0.87068 0.18212 0.41622 0.0
C728 C 0.83935 0.16368 0.36751 0.0
H729 H 0.92569 0.1648 0.48762 0.0
H730 H 0.87045 0.22113 0.42881 0.0
C731 C 0.84024 0.11328 0.35147 0.0
C732 C 0.62859 0.16918 0.15803 0.0
C733 C 0.66923 0.14883 0.18991 0.0
H734 H 0.56278 0.15535 0.10457 0.0
C735 C 0.67604 0.09728 0.1887 0.0
H736 H 0.62228 0.20881 0.15918 0.0
C737 C 0.64373 0.06679 0.15293 0.0
C738 C 0.60324 0.08737 0.12007 0.0
H739 H 0.7073 0.08093 0.2132 0.0
H740 H 0.65096 0.02746 0.15003 0.0
C741 C 0.59509 0.1386 0.12559 0.0
C742 C 0.67296 0.86595 0.93046 0.0
C743 C 0.66249 0.85242 0.8653 0.0
H744 H 0.65122 0.90885 1.01421 0.0
C745 C 0.61983 0.87078 0.83584 0.0
H746 H 0.70553 0.85222 0.95478 0.0
C747 C 0.5888 0.90266 0.86976 0.0
C748 C 0.59955 0.91694 0.93435 0.0
H749 H 0.60969 0.85988 0.787 0.0
H750 H 0.55605 0.91585 0.84529 0.0
C751 C 0.64187 0.8982 0.96459 0.0
C752 C 0.61987 0.64041 0.9597 0.0
C753 C 0.59074 0.60291 0.93119 0.0
H754 H 0.67398 0.6985 0.94441 0.0
C755 C 0.59266 0.59738 0.86251 0.0
H756 H 0.61891 0.64608 1.01214 0.0
C757 C 0.62292 0.62873 0.82338 0.0
C758 C 0.65339 0.66496 0.8523 0.0
H759 H 0.57007 0.56937 0.83897 0.0
H760 H 0.62295 0.62414 0.77066 0.0
C761 C 0.65152 0.67043 0.92086 0.0
C762 C 0.64783 0.3348 0.11984 0.0
C763 C 0.66798 0.35033 0.17941 0.0
H764 H 0.59987 0.35259 0.04024 0.0
C765 C 0.65571 0.39655 0.20505 0.0
H766 H 0.65717 0.2989 0.10002 0.0
C767 C 0.62227 0.42662 0.17235 0.0
C768 C 0.60185 0.41145 0.11231 0.0
H769 H 0.67152 0.4091 0.25073 0.0
H770 H 0.61279 0.46194 0.19389 0.0
C771 C 0.61531 0.36542 0.08598 0.0
C772 C 0.85615 0.4053 0.45876 0.0
C773 C 0.89003 0.43558 0.42495 0.0
H774 H 0.80323 0.34663 0.45466 0.0
C775 C 0.89041 0.43511 0.35592 0.0
H776 H 0.85232 0.40818 0.51099 0.0
C777 C 0.85895 0.40265 0.3219 0.0
C778 C 0.8281 0.36885 0.35659 0.0
H779 H 0.91616 0.45845 0.32844 0.0
H780 H 0.85997 0.40313 0.26873 0.0
C781 C 0.82677 0.37124 0.42561 0.0
C782 C 0.87839 0.62738 0.70852 0.0
C783 C 0.84082 0.65314 0.67675 0.0
H784 H 0.93856 0.57766 0.70014 0.0
C785 C 0.83395 0.64564 0.60903 0.0
H786 H 0.8849 0.63204 0.75993 0.0
C787 C 0.86456 0.61355 0.5741 0.0
C788 C 0.90321 0.58915 0.60598 0.0
H789 H 0.80486 0.66443 0.58293 0.0
H790 H 0.85841 0.60849 0.52205 0.0
C791 C 0.90935 0.59601 0.67373 0.0
C792 C 0.39518 0.32895 0.16835 0.0
C793 C 0.34888 0.34577 0.19036 0.0
H794 H 0.46158 0.34542 0.11305 0.0
C795 C 0.33495 0.39436 0.17381 0.0
H796 H 0.40695 0.29168 0.18008 0.0
C797 C 0.36674 0.42556 0.13687 0.0
C798 C 0.4127 0.40849 0.1139 0.0
H799 H 0.29967 0.40858 0.1902 0.0
H800 H 0.35493 0.46285 0.12543 0.0
C801 C 0.4264 0.35968 0.1298 0.0
C802 C 0.42535 0.64032 0.90443 0.0
C803 C 0.40522 0.60106 0.94153 0.0
H804 H 0.41089 0.70481 0.84715 0.0
C805 C 0.35373 0.59612 0.94817 0.0
H806 H 0.46506 0.64545 0.90024 0.0
C807 C 0.32268 0.62811 0.91393 0.0
C808 C 0.34281 0.66654 0.87459 0.0
H809 H 0.33752 0.56657 0.97789 0.0
H810 H 0.28308 0.62229 0.91764 0.0
C811 C 0.39436 0.67366 0.87301 0.0
C812 C 0.15063 0.60518 0.72157 0.0
C813 C 0.17766 0.64272 0.68804 0.0
H814 H 0.09602 0.54682 0.71406 0.0
C815 C 0.17463 0.645 0.6192 0.0
H816 H 0.15322 0.60102 0.77434 0.0
C817 C 0.14497 0.61179 0.5853 0.0
C818 C 0.11495 0.57724 0.61831 0.0
H819 H 0.19543 0.67237 0.59078 0.0
H820 H 0.14598 0.61284 0.53299 0.0
C821 C 0.11872 0.57333 0.68702 0.0
C822 C 0.12055 0.37398 0.3384 0.0
C823 C 0.16372 0.35607 0.36675 0.0
H824 H 0.05656 0.4184 0.3493 0.0
C825 C 0.17553 0.37006 0.43119 0.0
H826 H 0.10944 0.3623 0.29039 0.0
C827 C 0.14479 0.40211 0.46601 0.0
C828 C 0.10158 0.42007 0.43708 0.0
H829 H 0.20864 0.35659 0.45445 0.0
H830 H 0.1547 0.41269 0.51546 0.0
C831 C 0.0899 0.40578 0.37285 0.0
C832 C 0.00923 0.98005 0.96202 0.0
C833 C 0.97879 0.02182 0.96543 0.0
H834 H 0.05673 0.93056 1.01312 0.0
C835 C 0.97467 0.04712 0.02536 0.0
H836 H 0.01266 0.9593 0.91699 0.0
C837 C 0.99998 0.03067 0.08058 0.0
C838 C 0.03021 0.98875 0.0773 0.0
H839 H 0.95244 0.08011 0.02952 0.0
H840 H 0.99688 0.05165 0.12543 0.0
C841 C 0.03447 0.96354 1.01729 0.0
C842 C 0.27031 0.7217 0.32062 0.0
C843 C 0.28046 0.77263 0.32693 0.0
H844 H 0.23789 0.66407 0.26239 0.0
C845 C 0.2644 0.80499 0.27704 0.0
H846 H 0.28306 0.69571 0.35733 0.0
C847 C 0.23889 0.78691 0.22238 0.0
C848 C 0.22864 0.736 0.21612 0.0
H849 H 0.27121 0.84455 0.28056 0.0
H850 H 0.22613 0.81291 0.18569 0.0
C851 C 0.24473 0.70362 0.26597 0.0
C852 C 0.52639 0.05327 0.56338 0.0
C853 C 0.48782 0.02279 0.58802 0.0
H854 H 0.57749 0.06831 0.48408 0.0
C855 C 0.47316 0.98142 0.55061 0.0
H856 H 0.53814 0.08576 0.59018 0.0
C857 C 0.49506 0.97184 0.48949 0.0
C858 C 0.5328 1.00292 0.46411 0.0
H859 H 0.44435 0.95639 0.56839 0.0
H860 H 0.48254 0.93978 0.46219 0.0
C861 C 0.54872 0.04339 0.50228 0.0
C862 C 0.22758 0.30007 0.76766 0.0
C863 C 0.22774 0.27194 0.82598 0.0
H864 H 0.25272 0.30657 0.66796 0.0
C865 C 0.25424 0.22747 0.82778 0.0
H866 H 0.20809 0.33489 0.76522 0.0
C867 C 0.27975 0.21123 0.77215 0.0
C868 C 0.27937 0.23921 0.71366 0.0
H869 H 0.25461 0.20482 0.87193 0.0
H870 H 0.29894 0.17625 0.77457 0.0
C871 C 0.25319 0.28391 0.71208 0.0
C872 C 0.76925 0.22129 0.82366 0.0
C873 C 0.78176 0.27189 0.82812 0.0
H874 H 0.73508 0.1638 0.76713 0.0
C875 C 0.76711 0.3039 0.77698 0.0
H876 H 0.78035 0.19545 0.86154 0.0
C877 C 0.74099 0.28577 0.72282 0.0
C878 C 0.72907 0.23513 0.71792 0.0
H879 H 0.77528 0.34328 0.77921 0.0
H880 H 0.72894 0.31154 0.68547 0.0
C881 C 0.74346 0.20314 0.76923 0.0
C882 C 0.75251 0.72471 0.32828 0.0
C883 C 0.72495 0.76854 0.32683 0.0
H884 H 0.79959 0.67562 0.27502 0.0
C885 C 0.72443 0.79721 0.26901 0.0
H886 H 0.75319 0.70169 0.37206 0.0
C887 C 0.75102 0.78238 0.21368 0.0
C888 C 0.77865 0.73863 0.21519 0.0
H889 H 0.7042 0.83161 0.2669 0.0
H890 H 0.75039 0.80544 0.16992 0.0
C891 C 0.77918 0.70992 0.27295 0.0
C892 C 0.55424 0.50276 0.52323 0.0
C893 C 0.52845 0.4833 0.57804 0.0
H894 H 0.54975 0.53674 0.42853 0.0
C895 C 0.47652 0.48164 0.57713 0.0
H896 H 0.59421 0.50506 0.52247 0.0
C897 C 0.451 0.4996 0.52305 0.0
C898 C 0.4768 0.51941 0.46847 0.0
H899 H 0.45546 0.46585 0.61785 0.0
H900 H 0.41103 0.49721 0.52365 0.0
C901 C 0.52871 0.52083 0.4692 0.0
C902 C 0.9826 0.46619 0.98424 0.0
C903 C 0.02366 0.49341 0.96015 0.0
H904 H 0.92966 0.45573 0.06215 0.0
C905 C 0.04217 0.5329 0.99782 0.0
H906 H 0.96792 0.43507 0.95699 0.0
C907 C 0.02021 0.5448 0.05813 0.0
C908 C 0.97921 0.5175 0.08233 0.0
H909 H 0.07328 0.5551 0.98029 0.0
H910 H 0.03495 0.57592 0.08535 0.0
C911 C 0.96067 0.47804 0.04458 0.0
loop_
_geom_bond_atom_site_label_1
_geom_bond_atom_site_label_2
_geom_bond_distance
_geom_bond_site_symmetry_2
_ccdc_geom_bond_type
Eu0 N29 2.600 . S
Eu0 N35 2.562 1_655 S
Eu0 O44 2.462 1_655 S
Eu0 O45 2.373 1_655 S
Eu0 O47 2.432 . S
Eu0 O48 2.291 1_645 S
Eu0 O52 2.335 1_545 S
Eu0 O55 2.372 . S
Eu0 C64 2.787 . S
C1 N2 1.365 1_655 S
C1 C4 1.405 . S
C1 C8 1.448 . S
N2 C1 1.365 1_455 S
N2 C5 1.319 . S
N2 Eu11 2.600 . S
C3 C5 1.397 . S
C3 C6 1.367 . S
C3 H23 0.931 . S
C4 C1 1.405 . S
C4 C6 1.403 1_655 S
C4 C10 1.439 . S
C5 N2 1.319 . S
C5 C3 1.397 . S
C5 H16 0.930 . S
C6 C3 1.367 . S
C6 C4 1.403 1_455 S
C6 H27 0.929 . S
C7 C8 1.430 . S
C7 C9 1.387 . S
C7 C13 1.404 . S
C8 C1 1.448 . S
C8 C7 1.430 . S
C8 N12 1.351 . S
C9 C7 1.387 . S
C9 C10 1.374 . S
C9 H24 0.931 . S
C10 C4 1.439 . S
C10 C9 1.374 . S
C10 H25 0.931 . S
Eu11 N2 2.600 . S
Eu11 N12 2.562 1_455 S
Eu11 O46 2.335 1_565 S
Eu11 O49 2.372 . S
Eu11 O50 2.462 1_455 S
Eu11 O51 2.373 1_455 S
Eu11 O53 2.432 . S
Eu11 O54 2.291 1_465 S
Eu11 C75 2.787 . S
N12 C8 1.351 . S
N12 Eu11 2.562 1_655 S
N12 C14 1.325 . S
C13 C7 1.404 . S
C13 C15 1.366 . S
C13 H21 0.930 . S
C14 N12 1.325 . S
C14 C15 1.416 . S
C14 H20 0.929 . S
C15 C13 1.366 . S
C15 C14 1.416 . S
C15 H17 0.930 . S
H16 C5 0.930 . S
H17 C15 0.930 . S
H18 C33 0.930 . S
H19 C40 0.930 . S
H20 C14 0.929 . S
H21 C13 0.930 . S
H22 C36 0.929 . S
H23 C3 0.931 . S
H24 C9 0.931 . S
H25 C10 0.931 . S
H26 C31 0.931 . S
H27 C6 0.929 . S
H28 C39 0.930 . S
N29 Eu0 2.600 . S
N29 C30 1.365 1_655 S
N29 C33 1.319 . S
C30 N29 1.365 1_455 S
C30 C32 1.405 . S
C30 C38 1.448 . S
C31 H26 0.931 . S
C31 C33 1.397 . S
C31 C34 1.367 . S
C32 C30 1.405 . S
C32 C34 1.403 1_455 S
C32 C65 1.439 . S
C33 H18 0.930 . S
C33 N29 1.319 . S
C33 C31 1.397 . S
C34 C31 1.367 . S
C34 C32 1.403 1_655 S
C34 H41 0.929 . S
N35 Eu0 2.562 1_455 S
N35 C36 1.325 . S
N35 C38 1.351 . S
C36 H22 0.929 . S
C36 N35 1.325 . S
C36 C40 1.416 . S
C37 C38 1.430 . S
C37 C39 1.404 . S
C37 C66 1.387 . S
C38 C30 1.448 . S
C38 N35 1.351 . S
C38 C37 1.430 . S
C39 H28 0.930 . S
C39 C37 1.404 . S
C39 C40 1.366 . S
C40 H19 0.930 . S
C40 C36 1.416 . S
C40 C39 1.366 . S
H41 C34 0.929 . S
H42 C65 0.931 . S
H43 C66 0.931 . S
O44 Eu0 2.462 1_455 S
O44 C64 1.252 1_455 S
O45 Eu0 2.373 1_455 S
O45 C56 1.249 . S
O46 Eu11 2.335 1_545 S
O46 C56 1.264 . S
O47 Eu0 2.432 . S
O47 C64 1.268 . S
O48 Eu0 2.291 1_465 S
O48 C63 1.255 . S
O49 Eu11 2.372 . S
O49 C63 1.257 . S
O50 Eu11 2.462 1_655 S
O50 C75 1.252 1_655 S
O51 Eu11 2.373 1_655 S
O51 C67 1.249 . S
O52 Eu0 2.335 1_565 S
O52 C67 1.264 . S
O53 Eu11 2.432 . S
O53 C75 1.268 . S
O54 Eu11 2.291 1_645 S
O54 C74 1.255 . S
O55 Eu0 2.372 . S
O55 C74 1.257 . S
C56 O45 1.249 . S
C56 O46 1.264 . S
C57 C60 1.382 . S
C57 C62 1.390 . S
C57 C64 1.506 . S
C58 C59 1.398 . S
C58 C62 1.392 . S
C59 C58 1.398 . S
C59 C61 1.372 . S
C59 H76 0.931 . S
C60 C57 1.382 . S
C60 C61 1.390 . S
C60 H77 0.931 . S
C61 C59 1.372 . S
C61 C60 1.390 . S
C61 H78 0.929 . S
C62 C57 1.390 . S
C62 C58 1.392 . S
C62 H79 0.930 1_645 S
C63 O48 1.255 . S
C63 O49 1.257 . S
C64 Eu0 2.787 . S
C64 O44 1.252 1_655 S
C64 O47 1.268 . S
C64 C57 1.506 . S
C65 C32 1.439 . S
C65 H42 0.931 . S
C65 C66 1.374 . S
C66 C37 1.387 . S
C66 H43 0.931 . S
C66 C65 1.374 . S
C67 O51 1.249 . S
C67 O52 1.264 . S
C68 C71 1.382 . S
C68 C72 1.390 . S
C68 C75 1.506 . S
C69 C70 1.398 . S
C69 C72 1.392 . S
C70 C69 1.398 . S
C70 C73 1.372 . S
C70 H80 0.931 . S
C71 C68 1.382 . S
C71 C73 1.390 . S
C71 H81 0.931 . S
C72 C68 1.390 . S
C72 C69 1.392 . S
C72 H82 0.930 1_465 S
C73 C70 1.372 . S
C73 C71 1.390 . S
C73 H83 0.929 . S
C74 O54 1.255 . S
C74 O55 1.257 . S
C75 Eu11 2.787 . S
C75 O50 1.252 1_455 S
C75 O53 1.268 . S
C75 C68 1.506 . S
H76 C59 0.931 . S
H77 C60 0.931 . S
H78 C61 0.929 . S
H79 C62 0.930 1_465 S
H80 C70 0.931 . S
H81 C71 0.931 . S
H82 C72 0.930 1_645 S
H83 C73 0.929 . S
Eu84 N113 2.600 . S
Eu84 N119 2.562 . S
Eu84 O128 2.462 . S
Eu84 O129 2.373 . S
Eu84 O131 2.432 . S
Eu84 O132 2.291 . S
Eu84 O136 2.335 . S
Eu84 O139 2.372 . S
Eu84 C148 2.787 . S
C85 N86 1.365 . S
C85 C88 1.405 . S
C85 C92 1.448 . S
N86 C85 1.365 . S
N86 C89 1.319 . S
N86 Eu95 2.600 . S
C87 C89 1.397 . S
C87 C90 1.367 . S
C87 H107 0.931 . S
C88 C85 1.405 . S
C88 C90 1.403 . S
C88 C94 1.439 . S
C89 N86 1.319 . S
C89 C87 1.397 . S
C89 H100 0.930 . S
C90 C87 1.367 . S
C90 C88 1.403 . S
C90 H111 0.929 . S
C91 C92 1.430 . S
C91 C93 1.387 . S
C91 C97 1.404 . S
C92 C85 1.448 . S
C92 C91 1.430 . S
C92 N96 1.351 . S
C93 C91 1.387 . S
C93 C94 1.374 . S
C93 H108 0.931 . S
C94 C88 1.439 . S
C94 C93 1.374 . S
C94 H109 0.931 . S
Eu95 N86 2.600 . S
Eu95 N96 2.562 . S
Eu95 O130 2.335 . S
Eu95 O133 2.372 . S
Eu95 O134 2.462 . S
Eu95 O135 2.373 . S
Eu95 O137 2.432 . S
Eu95 O138 2.291 . S
Eu95 C159 2.787 . S
N96 C92 1.351 . S
N96 Eu95 2.562 . S
N96 C98 1.325 . S
C97 C91 1.404 . S
C97 C99 1.366 . S
C97 H105 0.930 . S
C98 N96 1.325 . S
C98 C99 1.416 . S
C98 H104 0.929 . S
C99 C97 1.366 . S
C99 C98 1.416 . S
C99 H101 0.930 . S
H100 C89 0.930 . S
H101 C99 0.930 . S
H102 C117 0.930 . S
H103 C124 0.930 . S
H104 C98 0.929 . S
H105 C97 0.930 . S
H106 C120 0.929 . S
H107 C87 0.931 . S
H108 C93 0.931 . S
H109 C94 0.931 . S
H110 C115 0.931 . S
H111 C90 0.929 . S
H112 C123 0.930 . S
N113 Eu84 2.600 . S
N113 C114 1.365 . S
N113 C117 1.319 . S
C114 N113 1.365 . S
C114 C116 1.405 . S
C114 C122 1.448 . S
C115 H110 0.931 . S
C115 C117 1.397 . S
C115 C118 1.367 . S
C116 C114 1.405 . S
C116 C118 1.403 . S
C116 C149 1.439 . S
C117 H102 0.930 . S
C117 N113 1.319 . S
C117 C115 1.397 . S
C118 C115 1.367 . S
C118 C116 1.403 . S
C118 H125 0.929 1_455 S
N119 Eu84 2.562 . S
N119 C120 1.325 . S
N119 C122 1.351 . S
C120 H106 0.929 . S
C120 N119 1.325 . S
C120 C124 1.416 . S
C121 C122 1.430 . S
C121 C123 1.404 . S
C121 C150 1.387 . S
C122 C114 1.448 . S
C122 N119 1.351 . S
C122 C121 1.430 . S
C123 H112 0.930 . S
C123 C121 1.404 . S
C123 C124 1.366 . S
C124 H103 0.930 . S
C124 C120 1.416 . S
C124 C123 1.366 . S
H125 C118 0.929 1_655 S
H126 C149 0.931 1_655 S
H127 C150 0.931 . S
O128 Eu84 2.462 . S
O128 C148 1.252 . S
O129 Eu84 2.373 . S
O129 C140 1.249 . S
O130 Eu95 2.335 . S
O130 C140 1.264 . S
O131 Eu84 2.432 . S
O131 C148 1.268 . S
O132 Eu84 2.291 . S
O132 C147 1.255 . S
O133 Eu95 2.372 . S
O133 C147 1.257 . S
O134 Eu95 2.462 . S
O134 C159 1.252 . S
O135 Eu95 2.373 . S
O135 C151 1.249 . S
O136 Eu84 2.335 . S
O136 C151 1.264 . S
O137 Eu95 2.432 . S
O137 C159 1.268 . S
O138 Eu95 2.291 . S
O138 C158 1.255 . S
O139 Eu84 2.372 . S
O139 C158 1.257 . S
C140 O129 1.249 . S
C140 O130 1.264 . S
C141 C144 1.382 . S
C141 C146 1.390 . S
C141 C148 1.506 1_554 S
C142 C143 1.398 . S
C142 C146 1.392 . S
C143 C142 1.398 . S
C143 C145 1.372 . S
C143 H160 0.931 . S
C144 C141 1.382 . S
C144 C145 1.390 . S
C144 H161 0.931 . S
C145 C143 1.372 . S
C145 C144 1.390 . S
C145 H162 0.929 . S
C146 C141 1.390 . S
C146 C142 1.392 . S
C146 H163 0.930 . S
C147 O132 1.255 . S
C147 O133 1.257 . S
C148 Eu84 2.787 . S
C148 O128 1.252 . S
C148 O131 1.268 . S
C148 C141 1.506 1_556 S
C149 C116 1.439 . S
C149 H126 0.931 1_455 S
C149 C150 1.374 . S
C150 C121 1.387 . S
C150 H127 0.931 . S
C150 C149 1.374 . S
C151 O135 1.249 . S
C151 O136 1.264 . S
C152 C155 1.382 . S
C152 C156 1.390 . S
C152 C159 1.506 . S
C153 C154 1.398 . S
C153 C156 1.392 . S
C154 C153 1.398 . S
C154 C157 1.372 . S
C154 H164 0.931 . S
C155 C152 1.382 . S
C155 C157 1.390 . S
C155 H165 0.931 . S
C156 C152 1.390 . S
C156 C153 1.392 . S
C156 H166 0.930 . S
C157 C154 1.372 . S
C157 C155 1.390 . S
C157 H167 0.929 . S
C158 O138 1.255 . S
C158 O139 1.257 . S
C159 Eu95 2.787 . S
C159 O134 1.252 . S
C159 O137 1.268 . S
C159 C152 1.506 . S
H160 C143 0.931 . S
H161 C144 0.931 . S
H162 C145 0.929 . S
H163 C146 0.930 . S
H164 C154 0.931 . S
H165 C155 0.931 . S
H166 C156 0.930 . S
H167 C157 0.929 . S
Eu168 N197 2.600 . S
Eu168 N203 2.562 . S
Eu168 O212 2.462 . S
Eu168 O213 2.373 1_554 S
Eu168 O215 2.432 . S
Eu168 O216 2.291 1_565 S
Eu168 O220 2.335 1_565 S
Eu168 O223 2.372 . S
Eu168 C232 2.787 . S
C169 N170 1.365 . S
C169 C172 1.405 . S
C169 C176 1.448 . S
N170 C169 1.365 . S
N170 C173 1.319 . S
N170 Eu179 2.600 . S
C171 C173 1.397 . S
C171 C174 1.367 . S
C171 H191 0.931 . S
C172 C169 1.405 . S
C172 C174 1.403 . S
C172 C178 1.439 . S
C173 N170 1.319 . S
C173 C171 1.397 . S
C173 H184 0.930 . S
C174 C171 1.367 . S
C174 C172 1.403 . S
C174 H195 0.929 . S
C175 C176 1.430 . S
C175 C177 1.387 . S
C175 C181 1.404 . S
C176 C169 1.448 . S
C176 C175 1.430 . S
C176 N180 1.351 . S
C177 C175 1.387 . S
C177 C178 1.374 . S
C177 H192 0.931 . S
C178 C172 1.439 . S
C178 C177 1.374 . S
C178 H193 0.931 . S
Eu179 N170 2.600 . S
Eu179 N180 2.562 . S
Eu179 O214 2.335 1_545 S
Eu179 O217 2.372 . S
Eu179 O218 2.462 . S
Eu179 O219 2.373 1_556 S
Eu179 O221 2.432 . S
Eu179 O222 2.291 1_545 S
Eu179 C243 2.787 . S
N180 C176 1.351 . S
N180 Eu179 2.562 . S
N180 C182 1.325 . S
C181 C175 1.404 . S
C181 C183 1.366 . S
C181 H189 0.930 . S
C182 N180 1.325 . S
C182 C183 1.416 . S
C182 H188 0.929 . S
C183 C181 1.366 . S
C183 C182 1.416 . S
C183 H185 0.930 . S
H184 C173 0.930 . S
H185 C183 0.930 . S
H186 C201 0.930 . S
H187 C208 0.930 . S
H188 C182 0.929 . S
H189 C181 0.930 . S
H190 C204 0.929 . S
H191 C171 0.931 . S
H192 C177 0.931 . S
H193 C178 0.931 . S
H194 C199 0.931 . S
H195 C174 0.929 . S
H196 C207 0.930 . S
N197 Eu168 2.600 . S
N197 C198 1.365 . S
N197 C201 1.319 . S
C198 N197 1.365 . S
C198 C200 1.405 . S
C198 C206 1.448 . S
C199 H194 0.931 . S
C199 C201 1.397 . S
C199 C202 1.367 . S
C200 C198 1.405 . S
C200 C202 1.403 . S
C200 C233 1.439 . S
C201 H186 0.930 . S
C201 N197 1.319 . S
C201 C199 1.397 . S
C202 C199 1.367 . S
C202 C200 1.403 . S
C202 H209 0.929 . S
N203 Eu168 2.562 . S
N203 C204 1.325 . S
N203 C206 1.351 . S
C204 H190 0.929 . S
C204 N203 1.325 . S
C204 C208 1.416 . S
C205 C206 1.430 . S
C205 C207 1.404 . S
C205 C234 1.387 . S
C206 C198 1.448 . S
C206 N203 1.351 . S
C206 C205 1.430 . S
C207 H196 0.930 . S
C207 C205 1.404 . S
C207 C208 1.366 . S
C208 H187 0.930 . S
C208 C204 1.416 . S
C208 C207 1.366 . S
H209 C202 0.929 . S
H210 C233 0.931 . S
H211 C234 0.931 . S
O212 Eu168 2.462 . S
O212 C232 1.252 . S
O213 Eu168 2.373 1_556 S
O213 C224 1.249 . S
O214 Eu179 2.335 1_565 S
O214 C224 1.264 . S
O215 Eu168 2.432 . S
O215 C232 1.268 . S
O216 Eu168 2.291 1_545 S
O216 C231 1.255 . S
O217 Eu179 2.372 . S
O217 C231 1.257 1_556 S
O218 Eu179 2.462 . S
O218 C243 1.252 . S
O219 Eu179 2.373 1_554 S
O219 C235 1.249 . S
O220 Eu168 2.335 1_545 S
O220 C235 1.264 . S
O221 Eu179 2.432 . S
O221 C243 1.268 . S
O222 Eu179 2.291 1_565 S
O222 C242 1.255 . S
O223 Eu168 2.372 . S
O223 C242 1.257 1_554 S
C224 O213 1.249 . S
C224 O214 1.264 . S
C225 C228 1.382 . S
C225 C230 1.390 . S
C225 C232 1.506 . S
C226 C227 1.398 . S
C226 C230 1.392 . S
C227 C226 1.398 . S
C227 C229 1.372 . S
C227 H244 0.931 . S
C228 C225 1.382 . S
C228 C229 1.390 . S
C228 H245 0.931 . S
C229 C227 1.372 . S
C229 C228 1.390 . S
C229 H246 0.929 . S
C230 C225 1.390 . S
C230 C226 1.392 . S
C230 H247 0.930 1_565 S
C231 O216 1.255 . S
C231 O217 1.257 1_554 S
C232 Eu168 2.787 . S
C232 O212 1.252 . S
C232 O215 1.268 . S
C232 C225 1.506 . S
C233 C200 1.439 . S
C233 H210 0.931 . S
C233 C234 1.374 . S
C234 C205 1.387 . S
C234 H211 0.931 . S
C234 C233 1.374 . S
C235 O219 1.249 . S
C235 O220 1.264 . S
C236 C239 1.382 . S
C236 C240 1.390 . S
C236 C243 1.506 . S
C237 C238 1.398 . S
C237 C240 1.392 . S
C238 C237 1.398 . S
C238 C241 1.372 . S
C238 H248 0.931 . S
C239 C236 1.382 . S
C239 C241 1.390 . S
C239 H249 0.931 . S
C240 C236 1.390 . S
C240 C237 1.392 . S
C240 H250 0.930 1_545 S
C241 C238 1.372 . S
C241 C239 1.390 . S
C241 H251 0.929 . S
C242 O222 1.255 . S
C242 O223 1.257 1_556 S
C243 Eu179 2.787 . S
C243 O218 1.252 . S
C243 O221 1.268 . S
C243 C236 1.506 . S
H244 C227 0.931 . S
H245 C228 0.931 . S
H246 C229 0.929 . S
H247 C230 0.930 1_545 S
H248 C238 0.931 . S
H249 C239 0.931 . S
H250 C240 0.930 1_565 S
H251 C241 0.929 . S
Eu252 N281 2.600 . S
Eu252 N287 2.562 . S
Eu252 O296 2.462 . S
Eu252 O297 2.373 . S
Eu252 O299 2.432 . S
Eu252 O300 2.291 . S
Eu252 O304 2.335 . S
Eu252 O307 2.372 . S
Eu252 C316 2.787 . S
C253 N254 1.365 . S
C253 C256 1.405 . S
C253 C260 1.448 . S
N254 C253 1.365 . S
N254 C257 1.319 . S
N254 Eu263 2.600 . S
C255 C257 1.397 . S
C255 C258 1.367 . S
C255 H275 0.931 . S
C256 C253 1.405 . S
C256 C258 1.403 . S
C256 C262 1.439 . S
C257 N254 1.319 . S
C257 C255 1.397 . S
C257 H268 0.930 . S
C258 C255 1.367 . S
C258 C256 1.403 . S
C258 H279 0.929 . S
C259 C260 1.430 . S
C259 C261 1.387 . S
C259 C265 1.404 . S
C260 C253 1.448 . S
C260 C259 1.430 . S
C260 N264 1.351 . S
C261 C259 1.387 . S
C261 C262 1.374 . S
C261 H276 0.931 . S
C262 C256 1.439 . S
C262 C261 1.374 . S
C262 H277 0.931 . S
Eu263 N254 2.600 . S
Eu263 N264 2.562 . S
Eu263 O298 2.335 . S
Eu263 O301 2.372 . S
Eu263 O302 2.462 . S
Eu263 O303 2.373 . S
Eu263 O305 2.432 . S
Eu263 O306 2.291 . S
Eu263 C327 2.787 . S
N264 C260 1.351 . S
N264 Eu263 2.562 . S
N264 C266 1.325 . S
C265 C259 1.404 . S
C265 C267 1.366 . S
C265 H273 0.930 . S
C266 N264 1.325 . S
C266 C267 1.416 . S
C266 H272 0.929 . S
C267 C265 1.366 . S
C267 C266 1.416 . S
C267 H269 0.930 . S
H268 C257 0.930 . S
H269 C267 0.930 . S
H270 C285 0.930 . S
H271 C292 0.930 . S
H272 C266 0.929 . S
H273 C265 0.930 . S
H274 C288 0.929 . S
H275 C255 0.931 . S
H276 C261 0.931 . S
H277 C262 0.931 . S
H278 C283 0.931 . S
H279 C258 0.929 . S
H280 C291 0.930 . S
N281 Eu252 2.600 . S
N281 C282 1.365 . S
N281 C285 1.319 . S
C282 N281 1.365 . S
C282 C284 1.405 . S
C282 C290 1.448 . S
C283 H278 0.931 . S
C283 C285 1.397 . S
C283 C286 1.367 . S
C284 C282 1.405 . S
C284 C286 1.403 . S
C284 C317 1.439 . S
C285 H270 0.930 . S
C285 N281 1.319 . S
C285 C283 1.397 . S
C286 C283 1.367 . S
C286 C284 1.403 . S
C286 H293 0.929 1_455 S
N287 Eu252 2.562 . S
N287 C288 1.325 . S
N287 C290 1.351 . S
C288 H274 0.929 . S
C288 N287 1.325 . S
C288 C292 1.416 . S
C289 C290 1.430 . S
C289 C291 1.404 . S
C289 C318 1.387 . S
C290 C282 1.448 . S
C290 N287 1.351 . S
C290 C289 1.430 . S
C291 H280 0.930 . S
C291 C289 1.404 . S
C291 C292 1.366 . S
C292 H271 0.930 . S
C292 C288 1.416 . S
C292 C291 1.366 . S
H293 C286 0.929 1_655 S
H294 C317 0.931 1_655 S
H295 C318 0.931 . S
O296 Eu252 2.462 . S
O296 C316 1.252 . S
O297 Eu252 2.373 . S
O297 C308 1.249 . S
O298 Eu263 2.335 . S
O298 C308 1.264 . S
O299 Eu252 2.432 . S
O299 C316 1.268 . S
O300 Eu252 2.291 . S
O300 C315 1.255 . S
O301 Eu263 2.372 . S
O301 C315 1.257 . S
O302 Eu263 2.462 . S
O302 C327 1.252 . S
O303 Eu263 2.373 . S
O303 C319 1.249 . S
O304 Eu252 2.335 . S
O304 C319 1.264 . S
O305 Eu263 2.432 . S
O305 C327 1.268 . S
O306 Eu263 2.291 . S
O306 C326 1.255 . S
O307 Eu252 2.372 . S
O307 C326 1.257 . S
C308 O297 1.249 . S
C308 O298 1.264 . S
C309 C312 1.382 . S
C309 C314 1.390 . S
C309 C316 1.506 1_556 S
C310 C311 1.398 . S
C310 C314 1.392 . S
C311 C310 1.398 . S
C311 C313 1.372 . S
C311 H328 0.931 . S
C312 C309 1.382 . S
C312 C313 1.390 . S
C312 H329 0.931 . S
C313 C311 1.372 . S
C313 C312 1.390 . S
C313 H330 0.929 . S
C314 C309 1.390 . S
C314 C310 1.392 . S
C314 H331 0.930 . S
C315 O300 1.255 . S
C315 O301 1.257 . S
C316 Eu252 2.787 . S
C316 O296 1.252 . S
C316 O299 1.268 . S
C316 C309 1.506 1_554 S
C317 C284 1.439 . S
C317 H294 0.931 1_455 S
C317 C318 1.374 . S
C318 C289 1.387 . S
C318 H295 0.931 . S
C318 C317 1.374 . S
C319 O303 1.249 . S
C319 O304 1.264 . S
C320 C323 1.382 . S
C320 C324 1.390 . S
C320 C327 1.506 . S
C321 C322 1.398 . S
C321 C324 1.392 . S
C322 C321 1.398 . S
C322 C325 1.372 . S
C322 H332 0.931 . S
C323 C320 1.382 . S
C323 C325 1.390 . S
C323 H333 0.931 . S
C324 C320 1.390 . S
C324 C321 1.392 . S
C324 H334 0.930 . S
C325 C322 1.372 . S
C325 C323 1.390 . S
C325 H335 0.929 . S
C326 O306 1.255 . S
C326 O307 1.257 . S
C327 Eu263 2.787 . S
C327 O302 1.252 . S
C327 O305 1.268 . S
C327 C320 1.506 . S
H328 C311 0.931 . S
H329 C312 0.931 . S
H330 C313 0.929 . S
H331 C314 0.930 . S
H332 C322 0.931 . S
H333 C323 0.931 . S
H334 C324 0.930 . S
H335 C325 0.929 . S
Eu336 N365 2.600 . S
Eu336 N371 2.562 . S
Eu336 O380 2.462 . S
Eu336 O381 2.373 . S
Eu336 O383 2.432 . S
Eu336 O384 2.291 . S
Eu336 O388 2.335 . S
Eu336 O391 2.372 . S
Eu336 C400 2.787 . S
C337 N338 1.365 . S
C337 C340 1.405 . S
C337 C344 1.448 . S
N338 C337 1.365 . S
N338 C341 1.319 . S
N338 Eu347 2.600 . S
C339 C341 1.397 . S
C339 C342 1.367 . S
C339 H359 0.931 . S
C340 C337 1.405 . S
C340 C342 1.403 . S
C340 C346 1.439 . S
C341 N338 1.319 . S
C341 C339 1.397 . S
C341 H352 0.930 . S
C342 C339 1.367 . S
C342 C340 1.403 . S
C342 H363 0.929 1_655 S
C343 C344 1.430 . S
C343 C345 1.387 . S
C343 C349 1.404 . S
C344 C337 1.448 . S
C344 C343 1.430 . S
C344 N348 1.351 . S
C345 C343 1.387 . S
C345 C346 1.374 . S
C345 H360 0.931 . S
C346 C340 1.439 . S
C346 C345 1.374 . S
C346 H361 0.931 1_655 S
Eu347 N338 2.600 . S
Eu347 N348 2.562 . S
Eu347 O382 2.335 . S
Eu347 O385 2.372 . S
Eu347 O386 2.462 . S
Eu347 O387 2.373 . S
Eu347 O389 2.432 . S
Eu347 O390 2.291 . S
Eu347 C411 2.787 . S
N348 C344 1.351 . S
N348 Eu347 2.562 . S
N348 C350 1.325 . S
C349 C343 1.404 . S
C349 C351 1.366 . S
C349 H357 0.930 . S
C350 N348 1.325 . S
C350 C351 1.416 . S
C350 H356 0.929 . S
C351 C349 1.366 . S
C351 C350 1.416 . S
C351 H353 0.930 . S
H352 C341 0.930 . S
H353 C351 0.930 . S
H354 C369 0.930 . S
H355 C376 0.930 . S
H356 C350 0.929 . S
H357 C349 0.930 . S
H358 C372 0.929 . S
H359 C339 0.931 . S
H360 C345 0.931 . S
H361 C346 0.931 1_455 S
H362 C367 0.931 . S
H363 C342 0.929 1_455 S
H364 C375 0.930 . S
N365 Eu336 2.600 . S
N365 C366 1.365 . S
N365 C369 1.319 . S
C366 N365 1.365 . S
C366 C368 1.405 . S
C366 C374 1.448 . S
C367 H362 0.931 . S
C367 C369 1.397 . S
C367 C370 1.367 . S
C368 C366 1.405 . S
C368 C370 1.403 . S
C368 C401 1.439 . S
C369 H354 0.930 . S
C369 N365 1.319 . S
C369 C367 1.397 . S
C370 C367 1.367 . S
C370 C368 1.403 . S
C370 H377 0.929 . S
N371 Eu336 2.562 . S
N371 C372 1.325 . S
N371 C374 1.351 . S
C372 H358 0.929 . S
C372 N371 1.325 . S
C372 C376 1.416 . S
C373 C374 1.430 . S
C373 C375 1.404 . S
C373 C402 1.387 . S
C374 C366 1.448 . S
C374 N371 1.351 . S
C374 C373 1.430 . S
C375 H364 0.930 . S
C375 C373 1.404 . S
C375 C376 1.366 . S
C376 H355 0.930 . S
C376 C372 1.416 . S
C376 C375 1.366 . S
H377 C370 0.929 . S
H378 C401 0.931 . S
H379 C402 0.931 . S
O380 Eu336 2.462 . S
O380 C400 1.252 . S
O381 Eu336 2.373 . S
O381 C392 1.249 . S
O382 Eu347 2.335 . S
O382 C392 1.264 . S
O383 Eu336 2.432 . S
O383 C400 1.268 . S
O384 Eu336 2.291 . S
O384 C399 1.255 . S
O385 Eu347 2.372 . S
O385 C399 1.257 . S
O386 Eu347 2.462 . S
O386 C411 1.252 . S
O387 Eu347 2.373 . S
O387 C403 1.249 . S
O388 Eu336 2.335 . S
O388 C403 1.264 . S
O389 Eu347 2.432 . S
O389 C411 1.268 . S
O390 Eu347 2.291 . S
O390 C410 1.255 . S
O391 Eu336 2.372 . S
O391 C410 1.257 . S
C392 O381 1.249 . S
C392 O382 1.264 . S
C393 C396 1.382 . S
C393 C398 1.390 . S
C393 C400 1.506 . S
C394 C395 1.398 . S
C394 C398 1.392 . S
C395 C394 1.398 . S
C395 C397 1.372 . S
C395 H412 0.931 . S
C396 C393 1.382 . S
C396 C397 1.390 . S
C396 H413 0.931 . S
C397 C395 1.372 . S
C397 C396 1.390 . S
C397 H414 0.929 . S
C398 C393 1.390 . S
C398 C394 1.392 . S
C398 H415 0.930 . S
C399 O384 1.255 . S
C399 O385 1.257 . S
C400 Eu336 2.787 . S
C400 O380 1.252 . S
C400 O383 1.268 . S
C400 C393 1.506 . S
C401 C368 1.439 . S
C401 H378 0.931 . S
C401 C402 1.374 . S
C402 C373 1.387 . S
C402 H379 0.931 . S
C402 C401 1.374 . S
C403 O387 1.249 . S
C403 O388 1.264 . S
C404 C407 1.382 . S
C404 C408 1.390 . S
C404 C411 1.506 1_556 S
C405 C406 1.398 . S
C405 C408 1.392 . S
C406 C405 1.398 . S
C406 C409 1.372 . S
C406 H416 0.931 . S
C407 C404 1.382 . S
C407 C409 1.390 . S
C407 H417 0.931 . S
C408 C404 1.390 . S
C408 C405 1.392 . S
C408 H418 0.930 . S
C409 C406 1.372 . S
C409 C407 1.390 . S
C409 H419 0.929 . S
C410 O390 1.255 . S
C410 O391 1.257 . S
C411 Eu347 2.787 . S
C411 O386 1.252 . S
C411 O389 1.268 . S
C411 C404 1.506 1_554 S
H412 C395 0.931 . S
H413 C396 0.931 . S
H414 C397 0.929 . S
H415 C398 0.930 . S
H416 C406 0.931 . S
H417 C407 0.931 . S
H418 C408 0.930 . S
H419 C409 0.929 . S
Eu420 N449 2.600 . S
Eu420 N455 2.562 . S
Eu420 O464 2.462 . S
Eu420 O465 2.373 . S
Eu420 O467 2.432 . S
Eu420 O468 2.291 . S
Eu420 O472 2.335 . S
Eu420 O475 2.372 . S
Eu420 C484 2.787 . S
C421 N422 1.365 . S
C421 C424 1.405 . S
C421 C428 1.448 . S
N422 C421 1.365 . S
N422 C425 1.319 . S
N422 Eu431 2.600 . S
C423 C425 1.397 . S
C423 C426 1.367 . S
C423 H443 0.931 . S
C424 C421 1.405 . S
C424 C426 1.403 . S
C424 C430 1.439 . S
C425 N422 1.319 . S
C425 C423 1.397 . S
C425 H436 0.930 . S
C426 C423 1.367 . S
C426 C424 1.403 . S
C426 H447 0.929 1_655 S
C427 C428 1.430 . S
C427 C429 1.387 . S
C427 C433 1.404 . S
C428 C421 1.448 . S
C428 C427 1.430 . S
C428 N432 1.351 . S
C429 C427 1.387 . S
C429 C430 1.374 . S
C429 H444 0.931 . S
C430 C424 1.439 . S
C430 C429 1.374 . S
C430 H445 0.931 1_655 S
Eu431 N422 2.600 . S
Eu431 N432 2.562 . S
Eu431 O466 2.335 . S
Eu431 O469 2.372 . S
Eu431 O470 2.462 . S
Eu431 O471 2.373 . S
Eu431 O473 2.432 . S
Eu431 O474 2.291 . S
Eu431 C495 2.787 . S
N432 C428 1.351 . S
N432 Eu431 2.562 . S
N432 C434 1.325 . S
C433 C427 1.404 . S
C433 C435 1.366 . S
C433 H441 0.930 . S
C434 N432 1.325 . S
C434 C435 1.416 . S
C434 H440 0.929 . S
C435 C433 1.366 . S
C435 C434 1.416 . S
C435 H437 0.930 . S
H436 C425 0.930 . S
H437 C435 0.930 . S
H438 C453 0.930 . S
H439 C460 0.930 . S
H440 C434 0.929 . S
H441 C433 0.930 . S
H442 C456 0.929 . S
H443 C423 0.931 . S
H444 C429 0.931 . S
H445 C430 0.931 1_455 S
H446 C451 0.931 . S
H447 C426 0.929 1_455 S
H448 C459 0.930 . S
N449 Eu420 2.600 . S
N449 C450 1.365 . S
N449 C453 1.319 . S
C450 N449 1.365 . S
C450 C452 1.405 . S
C450 C458 1.448 . S
C451 H446 0.931 . S
C451 C453 1.397 . S
C451 C454 1.367 . S
C452 C450 1.405 . S
C452 C454 1.403 . S
C452 C485 1.439 . S
C453 H438 0.930 . S
C453 N449 1.319 . S
C453 C451 1.397 . S
C454 C451 1.367 . S
C454 C452 1.403 . S
C454 H461 0.929 . S
N455 Eu420 2.562 . S
N455 C456 1.325 . S
N455 C458 1.351 . S
C456 H442 0.929 . S
C456 N455 1.325 . S
C456 C460 1.416 . S
C457 C458 1.430 . S
C457 C459 1.404 . S
C457 C486 1.387 . S
C458 C450 1.448 . S
C458 N455 1.351 . S
C458 C457 1.430 . S
C459 H448 0.930 . S
C459 C457 1.404 . S
C459 C460 1.366 . S
C460 H439 0.930 . S
C460 C456 1.416 . S
C460 C459 1.366 . S
H461 C454 0.929 . S
H462 C485 0.931 . S
H463 C486 0.931 . S
O464 Eu420 2.462 . S
O464 C484 1.252 . S
O465 Eu420 2.373 . S
O465 C476 1.249 . S
O466 Eu431 2.335 . S
O466 C476 1.264 . S
O467 Eu420 2.432 . S
O467 C484 1.268 . S
O468 Eu420 2.291 . S
O468 C483 1.255 . S
O469 Eu431 2.372 . S
O469 C483 1.257 . S
O470 Eu431 2.462 . S
O470 C495 1.252 . S
O471 Eu431 2.373 . S
O471 C487 1.249 . S
O472 Eu420 2.335 . S
O472 C487 1.264 . S
O473 Eu431 2.432 . S
O473 C495 1.268 . S
O474 Eu431 2.291 . S
O474 C494 1.255 . S
O475 Eu420 2.372 . S
O475 C494 1.257 . S
C476 O465 1.249 . S
C476 O466 1.264 . S
C477 C480 1.382 . S
C477 C482 1.390 . S
C477 C484 1.506 . S
C478 C479 1.398 . S
C478 C482 1.392 . S
C479 C478 1.398 . S
C479 C481 1.372 . S
C479 H496 0.931 . S
C480 C477 1.382 . S
C480 C481 1.390 . S
C480 H497 0.931 . S
C481 C479 1.372 . S
C481 C480 1.390 . S
C481 H498 0.929 . S
C482 C477 1.390 . S
C482 C478 1.392 . S
C482 H499 0.930 . S
C483 O468 1.255 . S
C483 O469 1.257 . S
C484 Eu420 2.787 . S
C484 O464 1.252 . S
C484 O467 1.268 . S
C484 C477 1.506 . S
C485 C452 1.439 . S
C485 H462 0.931 . S
C485 C486 1.374 . S
C486 C457 1.387 . S
C486 H463 0.931 . S
C486 C485 1.374 . S
C487 O471 1.249 . S
C487 O472 1.264 . S
C488 C491 1.382 . S
C488 C492 1.390 . S
C488 C495 1.506 1_554 S
C489 C490 1.398 . S
C489 C492 1.392 . S
C490 C489 1.398 . S
C490 C493 1.372 . S
C490 H500 0.931 . S
C491 C488 1.382 . S
C491 C493 1.390 . S
C491 H501 0.931 . S
C492 C488 1.390 . S
C492 C489 1.392 . S
C492 H502 0.930 . S
C493 C490 1.372 . S
C493 C491 1.390 . S
C493 H503 0.929 . S
C494 O474 1.255 . S
C494 O475 1.257 . S
C495 Eu431 2.787 . S
C495 O470 1.252 . S
C495 O473 1.268 . S
C495 C488 1.506 1_556 S
H496 C479 0.931 . S
H497 C480 0.931 . S
H498 C481 0.929 . S
H499 C482 0.930 . S
H500 C490 0.931 . S
H501 C491 0.931 . S
H502 C492 0.930 . S
H503 C493 0.929 . S
Eu504 N533 2.600 . S
Eu504 N539 2.562 . S
Eu504 O548 2.462 . S
Eu504 O549 2.373 1_554 S
Eu504 O551 2.432 . S
Eu504 O552 2.291 . S
Eu504 O556 2.335 . S
Eu504 O559 2.372 . S
Eu504 C568 2.787 . S
C505 N506 1.365 . S
C505 C508 1.405 . S
C505 C512 1.448 . S
N506 C505 1.365 . S
N506 C509 1.319 . S
N506 Eu515 2.600 . S
C507 C509 1.397 . S
C507 C510 1.367 . S
C507 H527 0.931 . S
C508 C505 1.405 . S
C508 C510 1.403 . S
C508 C514 1.439 . S
C509 N506 1.319 . S
C509 C507 1.397 . S
C509 H520 0.930 . S
C510 C507 1.367 . S
C510 C508 1.403 . S
C510 H531 0.929 . S
C511 C512 1.430 . S
C511 C513 1.387 . S
C511 C517 1.404 . S
C512 C505 1.448 . S
C512 C511 1.430 . S
C512 N516 1.351 . S
C513 C511 1.387 . S
C513 C514 1.374 . S
C513 H528 0.931 . S
C514 C508 1.439 . S
C514 C513 1.374 . S
C514 H529 0.931 . S
Eu515 N506 2.600 . S
Eu515 N516 2.562 . S
Eu515 O550 2.335 . S
Eu515 O553 2.372 . S
Eu515 O554 2.462 . S
Eu515 O555 2.373 1_556 S
Eu515 O557 2.432 . S
Eu515 O558 2.291 . S
Eu515 C579 2.787 . S
N516 C512 1.351 . S
N516 Eu515 2.562 . S
N516 C518 1.325 . S
C517 C511 1.404 . S
C517 C519 1.366 . S
C517 H525 0.930 . S
C518 N516 1.325 . S
C518 C519 1.416 . S
C518 H524 0.929 . S
C519 C517 1.366 . S
C519 C518 1.416 . S
C519 H521 0.930 . S
H520 C509 0.930 . S
H521 C519 0.930 . S
H522 C537 0.930 . S
H523 C544 0.930 . S
H524 C518 0.929 . S
H525 C517 0.930 . S
H526 C540 0.929 . S
H527 C507 0.931 . S
H528 C513 0.931 . S
H529 C514 0.931 . S
H530 C535 0.931 . S
H531 C510 0.929 . S
H532 C543 0.930 . S
N533 Eu504 2.600 . S
N533 C534 1.365 . S
N533 C537 1.319 . S
C534 N533 1.365 . S
C534 C536 1.405 . S
C534 C542 1.448 . S
C535 H530 0.931 . S
C535 C537 1.397 . S
C535 C538 1.367 . S
C536 C534 1.405 . S
C536 C538 1.403 . S
C536 C569 1.439 . S
C537 H522 0.930 . S
C537 N533 1.319 . S
C537 C535 1.397 . S
C538 C535 1.367 . S
C538 C536 1.403 . S
C538 H545 0.929 . S
N539 Eu504 2.562 . S
N539 C540 1.325 . S
N539 C542 1.351 . S
C540 H526 0.929 . S
C540 N539 1.325 . S
C540 C544 1.416 . S
C541 C542 1.430 . S
C541 C543 1.404 . S
C541 C570 1.387 . S
C542 C534 1.448 . S
C542 N539 1.351 . S
C542 C541 1.430 . S
C543 H532 0.930 . S
C543 C541 1.404 . S
C543 C544 1.366 . S
C544 H523 0.930 . S
C544 C540 1.416 . S
C544 C543 1.366 . S
H545 C538 0.929 . S
H546 C569 0.931 . S
H547 C570 0.931 . S
O548 Eu504 2.462 . S
O548 C568 1.252 . S
O549 Eu504 2.373 1_556 S
O549 C560 1.249 . S
O550 Eu515 2.335 . S
O550 C560 1.264 . S
O551 Eu504 2.432 . S
O551 C568 1.268 . S
O552 Eu504 2.291 . S
O552 C567 1.255 . S
O553 Eu515 2.372 . S
O553 C567 1.257 1_556 S
O554 Eu515 2.462 . S
O554 C579 1.252 . S
O555 Eu515 2.373 1_554 S
O555 C571 1.249 . S
O556 Eu504 2.335 . S
O556 C571 1.264 . S
O557 Eu515 2.432 . S
O557 C579 1.268 . S
O558 Eu515 2.291 . S
O558 C578 1.255 . S
O559 Eu504 2.372 . S
O559 C578 1.257 1_554 S
C560 O549 1.249 . S
C560 O550 1.264 . S
C561 C564 1.382 . S
C561 C566 1.390 . S
C561 C568 1.506 . S
C562 C563 1.398 . S
C562 C566 1.392 . S
C563 C562 1.398 . S
C563 C565 1.372 . S
C563 H580 0.931 . S
C564 C561 1.382 . S
C564 C565 1.390 . S
C564 H581 0.931 . S
C565 C563 1.372 . S
C565 C564 1.390 . S
C565 H582 0.929 . S
C566 C561 1.390 . S
C566 C562 1.392 . S
C566 H583 0.930 . S
C567 O552 1.255 . S
C567 O553 1.257 1_554 S
C568 Eu504 2.787 . S
C568 O548 1.252 . S
C568 O551 1.268 . S
C568 C561 1.506 . S
C569 C536 1.439 . S
C569 H546 0.931 . S
C569 C570 1.374 . S
C570 C541 1.387 . S
C570 H547 0.931 . S
C570 C569 1.374 . S
C571 O555 1.249 . S
C571 O556 1.264 . S
C572 C575 1.382 . S
C572 C576 1.390 . S
C572 C579 1.506 . S
C573 C574 1.398 . S
C573 C576 1.392 . S
C574 C573 1.398 . S
C574 C577 1.372 . S
C574 H584 0.931 . S
C575 C572 1.382 . S
C575 C577 1.390 . S
C575 H585 0.931 . S
C576 C572 1.390 . S
C576 C573 1.392 . S
C576 H586 0.930 . S
C577 C574 1.372 . S
C577 C575 1.390 . S
C577 H587 0.929 . S
C578 O558 1.255 . S
C578 O559 1.257 1_556 S
C579 Eu515 2.787 . S
C579 O554 1.252 . S
C579 O557 1.268 . S
C579 C572 1.506 . S
H580 C563 0.931 . S
H581 C564 0.931 . S
H582 C565 0.929 . S
H583 C566 0.930 . S
H584 C574 0.931 . S
H585 C575 0.931 . S
H586 C576 0.930 . S
H587 C577 0.929 . S
Eu588 N617 2.600 . S
Eu588 N623 2.562 1_455 S
Eu588 O632 2.462 1_455 S
Eu588 O633 2.373 1_455 S
Eu588 O635 2.432 . S
Eu588 O636 2.291 1_455 S
Eu588 O640 2.335 . S
Eu588 O643 2.372 . S
Eu588 C652 2.787 . S
C589 N590 1.365 1_455 S
C589 C592 1.405 . S
C589 C596 1.448 . S
N590 C589 1.365 1_655 S
N590 C593 1.319 . S
N590 Eu599 2.600 . S
C591 C593 1.397 . S
C591 C594 1.367 . S
C591 H611 0.931 . S
C592 C589 1.405 . S
C592 C594 1.403 1_455 S
C592 C598 1.439 . S
C593 N590 1.319 . S
C593 C591 1.397 . S
C593 H604 0.930 . S
C594 C591 1.367 . S
C594 C592 1.403 1_655 S
C594 H615 0.929 . S
C595 C596 1.430 . S
C595 C597 1.387 . S
C595 C601 1.404 . S
C596 C589 1.448 . S
C596 C595 1.430 . S
C596 N600 1.351 . S
C597 C595 1.387 . S
C597 C598 1.374 . S
C597 H612 0.931 . S
C598 C592 1.439 . S
C598 C597 1.374 . S
C598 H613 0.931 . S
Eu599 N590 2.600 . S
Eu599 N600 2.562 1_655 S
Eu599 O634 2.335 . S
Eu599 O637 2.372 . S
Eu599 O638 2.462 1_655 S
Eu599 O639 2.373 1_655 S
Eu599 O641 2.432 . S
Eu599 O642 2.291 1_655 S
Eu599 C663 2.787 . S
N600 C596 1.351 . S
N600 Eu599 2.562 1_455 S
N600 C602 1.325 . S
C601 C595 1.404 . S
C601 C603 1.366 . S
C601 H609 0.930 . S
C602 N600 1.325 . S
C602 C603 1.416 . S
C602 H608 0.929 . S
C603 C601 1.366 . S
C603 C602 1.416 . S
C603 H605 0.930 . S
H604 C593 0.930 . S
H605 C603 0.930 . S
H606 C621 0.930 . S
H607 C628 0.930 . S
H608 C602 0.929 . S
H609 C601 0.930 . S
H610 C624 0.929 . S
H611 C591 0.931 . S
H612 C597 0.931 . S
H613 C598 0.931 . S
H614 C619 0.931 . S
H615 C594 0.929 . S
H616 C627 0.930 . S
N617 Eu588 2.600 . S
N617 C618 1.365 1_455 S
N617 C621 1.319 . S
C618 N617 1.365 1_655 S
C618 C620 1.405 . S
C618 C626 1.448 . S
C619 H614 0.931 . S
C619 C621 1.397 . S
C619 C622 1.367 . S
C620 C618 1.405 . S
C620 C622 1.403 1_655 S
C620 C653 1.439 . S
C621 H606 0.930 . S
C621 N617 1.319 . S
C621 C619 1.397 . S
C622 C619 1.367 . S
C622 C620 1.403 1_455 S
C622 H629 0.929 . S
N623 Eu588 2.562 1_655 S
N623 C624 1.325 . S
N623 C626 1.351 . S
C624 H610 0.929 . S
C624 N623 1.325 . S
C624 C628 1.416 . S
C625 C626 1.430 . S
C625 C627 1.404 . S
C625 C654 1.387 . S
C626 C618 1.448 . S
C626 N623 1.351 . S
C626 C625 1.430 . S
C627 H616 0.930 . S
C627 C625 1.404 . S
C627 C628 1.366 . S
C628 H607 0.930 . S
C628 C624 1.416 . S
C628 C627 1.366 . S
H629 C622 0.929 . S
H630 C653 0.931 . S
H631 C654 0.931 . S
O632 Eu588 2.462 1_655 S
O632 C652 1.252 1_655 S
O633 Eu588 2.373 1_655 S
O633 C644 1.249 . S
O634 Eu599 2.335 . S
O634 C644 1.264 . S
O635 Eu588 2.432 . S
O635 C652 1.268 . S
O636 Eu588 2.291 1_655 S
O636 C651 1.255 . S
O637 Eu599 2.372 . S
O637 C651 1.257 . S
O638 Eu599 2.462 1_455 S
O638 C663 1.252 1_455 S
O639 Eu599 2.373 1_455 S
O639 C655 1.249 . S
O640 Eu588 2.335 . S
O640 C655 1.264 . S
O641 Eu599 2.432 . S
O641 C663 1.268 . S
O642 Eu599 2.291 1_455 S
O642 C662 1.255 . S
O643 Eu588 2.372 . S
O643 C662 1.257 . S
C644 O633 1.249 . S
C644 O634 1.264 . S
C645 C648 1.382 . S
C645 C650 1.390 . S
C645 C652 1.506 . S
C646 C647 1.398 . S
C646 C650 1.392 . S
C647 C646 1.398 . S
C647 C649 1.372 . S
C647 H664 0.931 . S
C648 C645 1.382 . S
C648 C649 1.390 . S
C648 H665 0.931 . S
C649 C647 1.372 . S
C649 C648 1.390 . S
C649 H666 0.929 . S
C650 C645 1.390 . S
C650 C646 1.392 . S
C650 H667 0.930 1_455 S
C651 O636 1.255 . S
C651 O637 1.257 . S
C652 Eu588 2.787 . S
C652 O632 1.252 1_455 S
C652 O635 1.268 . S
C652 C645 1.506 . S
C653 C620 1.439 . S
C653 H630 0.931 . S
C653 C654 1.374 . S
C654 C625 1.387 . S
C654 H631 0.931 . S
C654 C653 1.374 . S
C655 O639 1.249 . S
C655 O640 1.264 . S
C656 C659 1.382 . S
C656 C660 1.390 . S
C656 C663 1.506 . S
C657 C658 1.398 . S
C657 C660 1.392 . S
C658 C657 1.398 . S
C658 C661 1.372 . S
C658 H668 0.931 . S
C659 C656 1.382 . S
C659 C661 1.390 . S
C659 H669 0.931 . S
C660 C656 1.390 . S
C660 C657 1.392 . S
C660 H670 0.930 1_655 S
C661 C658 1.372 . S
C661 C659 1.390 . S
C661 H671 0.929 . S
C662 O642 1.255 . S
C662 O643 1.257 . S
C663 Eu599 2.787 . S
C663 O638 1.252 1_655 S
C663 O641 1.268 . S
C663 C656 1.506 . S
H664 C647 0.931 . S
H665 C648 0.931 . S
H666 C649 0.929 . S
H667 C650 0.930 1_655 S
H668 C658 0.931 . S
H669 C659 0.931 . S
H670 C660 0.930 1_455 S
H671 C661 0.929 . S
C672 C673 1.387 . S
C672 H676 0.950 . S
C672 C681 1.390 . S
C673 C672 1.387 . S
C673 C675 1.387 . S
H674 C681 0.950 . S
C675 C673 1.387 . S
C675 C677 1.390 . S
C675 H679 0.950 . S
H676 C672 0.950 . S
C677 C675 1.390 . S
C677 C678 1.387 . S
C677 H680 0.950 . S
C678 C677 1.387 . S
C678 C681 1.387 . S
H679 C675 0.950 . S
H680 C677 0.950 . S
C681 C672 1.390 . S
C681 H674 0.950 . S
C681 C678 1.387 . S
C682 C683 1.387 . S
C682 H686 0.950 . S
C682 C691 1.390 . S
C683 C682 1.387 . S
C683 C685 1.387 . S
H684 C691 0.950 . S
C685 C683 1.387 . S
C685 C687 1.390 . S
C685 H689 0.950 . S
H686 C682 0.950 . S
C687 C685 1.390 . S
C687 C688 1.387 . S
C687 H690 0.950 . S
C688 C687 1.387 . S
C688 C691 1.387 . S
H689 C685 0.950 . S
H690 C687 0.950 . S
C691 C682 1.390 . S
C691 H684 0.950 . S
C691 C688 1.387 . S
C692 C693 1.387 . S
C692 H696 0.950 . S
C692 C701 1.390 . S
C693 C692 1.387 . S
C693 C695 1.387 . S
H694 C701 0.950 . S
C695 C693 1.387 . S
C695 C697 1.390 . S
C695 H699 0.950 . S
H696 C692 0.950 . S
C697 C695 1.390 . S
C697 C698 1.387 . S
C697 H700 0.950 . S
C698 C697 1.387 . S
C698 C701 1.387 . S
H699 C695 0.950 . S
H700 C697 0.950 . S
C701 C692 1.390 . S
C701 H694 0.950 . S
C701 C698 1.387 . S
C702 C703 1.387 . S
C702 H706 0.950 . S
C702 C711 1.390 . S
C703 C702 1.387 . S
C703 C705 1.387 . S
H704 C711 0.950 . S
C705 C703 1.387 . S
C705 C707 1.390 . S
C705 H709 0.950 . S
H706 C702 0.950 . S
C707 C705 1.390 . S
C707 C708 1.387 . S
C707 H710 0.950 . S
C708 C707 1.387 . S
C708 C711 1.387 . S
H709 C705 0.950 . S
H710 C707 0.950 . S
C711 C702 1.390 . S
C711 H704 0.950 . S
C711 C708 1.387 . S
C712 C713 1.387 . S
C712 H716 0.950 . S
C712 C721 1.390 . S
C713 C712 1.387 . S
C713 C715 1.387 . S
H714 C721 0.950 . S
C715 C713 1.387 . S
C715 C717 1.390 . S
C715 H719 0.950 . S
H716 C712 0.950 . S
C717 C715 1.390 . S
C717 C718 1.387 . S
C717 H720 0.950 . S
C718 C717 1.387 . S
C718 C721 1.387 . S
H719 C715 0.950 . S
H720 C717 0.950 . S
C721 C712 1.390 . S
C721 H714 0.950 . S
C721 C718 1.387 . S
C722 C723 1.387 . S
C722 H726 0.950 . S
C722 C731 1.390 . S
C723 C722 1.387 . S
C723 C725 1.387 . S
H724 C731 0.950 . S
C725 C723 1.387 . S
C725 C727 1.390 . S
C725 H729 0.950 . S
H726 C722 0.950 . S
C727 C725 1.390 . S
C727 C728 1.387 . S
C727 H730 0.950 . S
C728 C727 1.387 . S
C728 C731 1.387 . S
H729 C725 0.950 . S
H730 C727 0.950 . S
C731 C722 1.390 . S
C731 H724 0.950 . S
C731 C728 1.387 . S
C732 C733 1.387 . S
C732 H736 0.950 . S
C732 C741 1.390 . S
C733 C732 1.387 . S
C733 C735 1.387 . S
H734 C741 0.950 . S
C735 C733 1.387 . S
C735 C737 1.390 . S
C735 H739 0.950 . S
H736 C732 0.950 . S
C737 C735 1.390 . S
C737 C738 1.387 . S
C737 H740 0.950 . S
C738 C737 1.387 . S
C738 C741 1.387 . S
H739 C735 0.950 . S
H740 C737 0.950 . S
C741 C732 1.390 . S
C741 H734 0.950 . S
C741 C738 1.387 . S
C742 C743 1.387 . S
C742 H746 0.950 . S
C742 C751 1.390 . S
C743 C742 1.387 . S
C743 C745 1.387 . S
H744 C751 0.950 . S
C745 C743 1.387 . S
C745 C747 1.390 . S
C745 H749 0.950 . S
H746 C742 0.950 . S
C747 C745 1.390 . S
C747 C748 1.387 . S
C747 H750 0.950 . S
C748 C747 1.387 . S
C748 C751 1.387 . S
H749 C745 0.950 . S
H750 C747 0.950 . S
C751 C742 1.390 . S
C751 H744 0.950 . S
C751 C748 1.387 . S
C752 C753 1.387 . S
C752 H756 0.950 . S
C752 C761 1.390 . S
C753 C752 1.387 . S
C753 C755 1.387 . S
H754 C761 0.950 . S
C755 C753 1.387 . S
C755 C757 1.390 . S
C755 H759 0.950 . S
H756 C752 0.950 . S
C757 C755 1.390 . S
C757 C758 1.387 . S
C757 H760 0.950 . S
C758 C757 1.387 . S
C758 C761 1.387 . S
H759 C755 0.950 . S
H760 C757 0.950 . S
C761 C752 1.390 . S
C761 H754 0.950 . S
C761 C758 1.387 . S
C762 C763 1.387 . S
C762 H766 0.950 . S
C762 C771 1.390 . S
C763 C762 1.387 . S
C763 C765 1.387 . S
H764 C771 0.950 . S
C765 C763 1.387 . S
C765 C767 1.390 . S
C765 H769 0.950 . S
H766 C762 0.950 . S
C767 C765 1.390 . S
C767 C768 1.387 . S
C767 H770 0.950 . S
C768 C767 1.387 . S
C768 C771 1.387 . S
H769 C765 0.950 . S
H770 C767 0.950 . S
C771 C762 1.390 . S
C771 H764 0.950 . S
C771 C768 1.387 . S
C772 C773 1.387 . S
C772 H776 0.950 . S
C772 C781 1.390 . S
C773 C772 1.387 . S
C773 C775 1.387 . S
H774 C781 0.950 . S
C775 C773 1.387 . S
C775 C777 1.390 . S
C775 H779 0.950 . S
H776 C772 0.950 . S
C777 C775 1.390 . S
C777 C778 1.387 . S
C777 H780 0.950 . S
C778 C777 1.387 . S
C778 C781 1.387 . S
H779 C775 0.950 . S
H780 C777 0.950 . S
C781 C772 1.390 . S
C781 H774 0.950 . S
C781 C778 1.387 . S
C782 C783 1.387 . S
C782 H786 0.950 . S
C782 C791 1.390 . S
C783 C782 1.387 . S
C783 C785 1.387 . S
H784 C791 0.950 . S
C785 C783 1.387 . S
C785 C787 1.390 . S
C785 H789 0.950 . S
H786 C782 0.950 . S
C787 C785 1.390 . S
C787 C788 1.387 . S
C787 H790 0.950 . S
C788 C787 1.387 . S
C788 C791 1.387 . S
H789 C785 0.950 . S
H790 C787 0.950 . S
C791 C782 1.390 . S
C791 H784 0.950 . S
C791 C788 1.387 . S
C792 C793 1.387 . S
C792 H796 0.950 . S
C792 C801 1.390 . S
C793 C792 1.387 . S
C793 C795 1.387 . S
H794 C801 0.950 . S
C795 C793 1.387 . S
C795 C797 1.390 . S
C795 H799 0.950 . S
H796 C792 0.950 . S
C797 C795 1.390 . S
C797 C798 1.387 . S
C797 H800 0.950 . S
C798 C797 1.387 . S
C798 C801 1.387 . S
H799 C795 0.950 . S
H800 C797 0.950 . S
C801 C792 1.390 . S
C801 H794 0.950 . S
C801 C798 1.387 . S
C802 C803 1.387 . S
C802 H806 0.950 . S
C802 C811 1.390 . S
C803 C802 1.387 . S
C803 C805 1.387 . S
H804 C811 0.950 . S
C805 C803 1.387 . S
C805 C807 1.390 . S
C805 H809 0.950 . S
H806 C802 0.950 . S
C807 C805 1.390 . S
C807 C808 1.387 . S
C807 H810 0.950 . S
C808 C807 1.387 . S
C808 C811 1.387 . S
H809 C805 0.950 . S
H810 C807 0.950 . S
C811 C802 1.390 . S
C811 H804 0.950 . S
C811 C808 1.387 . S
C812 C813 1.387 . S
C812 H816 0.950 . S
C812 C821 1.390 . S
C813 C812 1.387 . S
C813 C815 1.387 . S
H814 C821 0.950 . S
C815 C813 1.387 . S
C815 C817 1.390 . S
C815 H819 0.950 . S
H816 C812 0.950 . S
C817 C815 1.390 . S
C817 C818 1.387 . S
C817 H820 0.950 . S
C818 C817 1.387 . S
C818 C821 1.387 . S
H819 C815 0.950 . S
H820 C817 0.950 . S
C821 C812 1.390 . S
C821 H814 0.950 . S
C821 C818 1.387 . S
C822 C823 1.387 . S
C822 H826 0.950 . S
C822 C831 1.390 . S
C823 C822 1.387 . S
C823 C825 1.387 . S
H824 C831 0.950 . S
C825 C823 1.387 . S
C825 C827 1.390 . S
C825 H829 0.950 . S
H826 C822 0.950 . S
C827 C825 1.390 . S
C827 C828 1.387 . S
C827 H830 0.950 . S
C828 C827 1.387 . S
C828 C831 1.387 . S
H829 C825 0.950 . S
H830 C827 0.950 . S
C831 C822 1.390 . S
C831 H824 0.950 . S
C831 C828 1.387 . S
C832 C833 1.388 1_565 S
C832 H836 0.950 . S
C832 C841 1.390 1_656 S
C833 C832 1.388 1_545 S
C833 C835 1.387 . S
H834 C841 0.950 . S
C835 C833 1.387 . S
C835 C837 1.389 1_656 S
C835 H839 0.950 . S
H836 C832 0.950 . S
C837 C835 1.389 1_454 S
C837 C838 1.388 1_545 S
C837 H840 0.950 . S
C838 C837 1.388 1_565 S
C838 C841 1.387 . S
H839 C835 0.950 . S
H840 C837 0.950 . S
C841 C832 1.390 1_454 S
C841 H834 0.950 . S
C841 C838 1.387 . S
C842 C843 1.387 . S
C842 H846 0.950 . S
C842 C851 1.390 . S
C843 C842 1.387 . S
C843 C845 1.387 . S
H844 C851 0.950 . S
C845 C843 1.387 . S
C845 C847 1.390 . S
C845 H849 0.950 . S
H846 C842 0.950 . S
C847 C845 1.390 . S
C847 C848 1.387 . S
C847 H850 0.950 . S
C848 C847 1.387 . S
C848 C851 1.387 . S
H849 C845 0.950 . S
H850 C847 0.950 . S
C851 C842 1.390 . S
C851 H844 0.950 . S
C851 C848 1.387 . S
C852 C853 1.395 . S
C852 H856 0.950 . S
C852 C861 1.390 . S
C853 C852 1.395 . S
C853 C855 1.380 1_545 S
H854 C861 0.950 . S
C855 C853 1.380 1_565 S
C855 C857 1.390 . S
C855 H859 0.950 . S
H856 C852 0.950 . S
C857 C855 1.390 . S
C857 C858 1.390 . S
C857 H860 0.950 . S
C858 C857 1.390 . S
C858 C861 1.385 1_565 S
H859 C855 0.950 . S
H860 C857 0.950 . S
C861 C852 1.390 . S
C861 H854 0.950 . S
C861 C858 1.385 1_545 S
C862 C863 1.387 . S
C862 H866 0.950 . S
C862 C871 1.390 . S
C863 C862 1.387 . S
C863 C865 1.387 . S
H864 C871 0.950 . S
C865 C863 1.387 . S
C865 C867 1.390 . S
C865 H869 0.950 . S
H866 C862 0.950 . S
C867 C865 1.390 . S
C867 C868 1.387 . S
C867 H870 0.950 . S
C868 C867 1.387 . S
C868 C871 1.387 . S
H869 C865 0.950 . S
H870 C867 0.950 . S
C871 C862 1.390 . S
C871 H864 0.950 . S
C871 C868 1.387 . S
C872 C873 1.387 . S
C872 H876 0.950 . S
C872 C881 1.390 . S
C873 C872 1.387 . S
C873 C875 1.387 . S
H874 C881 0.950 . S
C875 C873 1.387 . S
C875 C877 1.390 . S
C875 H879 0.950 . S
H876 C872 0.950 . S
C877 C875 1.390 . S
C877 C878 1.387 . S
C877 H880 0.950 . S
C878 C877 1.387 . S
C878 C881 1.387 . S
H879 C875 0.950 . S
H880 C877 0.950 . S
C881 C872 1.390 . S
C881 H874 0.950 . S
C881 C878 1.387 . S
C882 C883 1.387 . S
C882 H886 0.950 . S
C882 C891 1.390 . S
C883 C882 1.387 . S
C883 C885 1.387 . S
H884 C891 0.950 . S
C885 C883 1.387 . S
C885 C887 1.390 . S
C885 H889 0.950 . S
H886 C882 0.950 . S
C887 C885 1.390 . S
C887 C888 1.387 . S
C887 H890 0.950 . S
C888 C887 1.387 . S
C888 C891 1.387 . S
H889 C885 0.950 . S
H890 C887 0.950 . S
C891 C882 1.390 . S
C891 H884 0.950 . S
C891 C888 1.387 . S
C892 C893 1.387 . S
C892 H896 0.950 . S
C892 C901 1.390 . S
C893 C892 1.387 . S
C893 C895 1.387 . S
H894 C901 0.950 . S
C895 C893 1.387 . S
C895 C897 1.390 . S
C895 H899 0.950 . S
H896 C892 0.950 . S
C897 C895 1.390 . S
C897 C898 1.387 . S
C897 H900 0.950 . S
C898 C897 1.387 . S
C898 C901 1.387 . S
H899 C895 0.950 . S
H900 C897 0.950 . S
C901 C892 1.390 . S
C901 H894 0.950 . S
C901 C898 1.387 . S
C902 C903 1.387 . S
C902 H906 0.950 . S
C902 C911 1.390 1_456 S
C903 C902 1.387 . S
C903 C905 1.388 . S
H904 C911 0.950 . S
C905 C903 1.388 . S
C905 C907 1.390 1_456 S
C905 H909 0.950 . S
H906 C902 0.950 . S
C907 C905 1.390 1_654 S
C907 C908 1.387 . S
C907 H910 0.950 . S
C908 C907 1.387 . S
C908 C911 1.387 . S
H909 C905 0.950 . S
H910 C907 0.950 . S
C911 C902 1.390 1_654 S
C911 H904 0.950 . S
C911 C908 1.387 . S
C673 C56 1.499 . S
C678 C308 1.497 . S
C683 C63 1.517 . S
C688 C140 1.502 . S
C693 C147 1.524 . S
C698 C224 1.515 . S
C703 C231 1.528 . S
C708 C315 1.526 . S
C713 C67 1.501 . S
C718 C487 1.503 . S
C723 C74 1.517 . S
C728 C403 1.502 . S
C733 C410 1.524 . S
C738 C235 1.511 . S
C743 C494 1.527 . S
C748 C242 1.530 . S
C753 C560 1.500 . S
C758 C476 1.502 . S
C763 C392 1.503 . S
C768 C567 1.516 . S
C773 C644 1.512 . S
C778 C399 1.525 . S
C783 C483 1.528 . S
C788 C651 1.529 . S
C793 C319 1.500 . S
C798 C571 1.501 . S
C803 C578 1.516 . S
C808 C151 1.503 . S
C813 C158 1.524 . S
C818 C655 1.510 . S
C823 C326 1.527 . S
C828 C662 1.526 . S
C833 C58 1.285 . S
C838 C69 1.285 . S
C843 C153 1.269 . S
C848 C142 1.269 . S
C853 C237 1.278 . S
C858 C226 1.276 . S
C863 C310 1.273 . S
C868 C321 1.273 . S
C873 C405 1.269 . S
C878 C394 1.269 . S
C883 C478 1.277 . S
C888 C489 1.277 . S
C893 C573 1.289 . S
C898 C562 1.289 . S
C903 C646 1.278 . S
C908 C657 1.278 . S
