# Generated by pormake.
# Topology sxb, (6)-cn, num edge types: 1
# Building blocks:
#     Node 0, Type 0, BuildingBlock: CUWYAW_clean_sbu_0, # of connection points: 6
#     Node 1, Type 0, BuildingBlock: CUWYAW_clean_sbu_0, # of connection points: 6
#     Node 2, Type 0, BuildingBlock: CUWYAW_clean_sbu_0, # of connection points: 6
#     Node 3, Type 0, BuildingBlock: CUWYAW_clean_sbu_0, # of connection points: 6
#     Edge 4, Type (0, 0), BuildingBlock: CIFDUS_clean_linker_0, # of connection points: 2
#     Edge 5, Type (0, 0), BuildingBlock: CIFDUS_clean_linker_0, # of connection points: 2
#     Edge 6, Type (0, 0), BuildingBlock: CIFDUS_clean_linker_0, # of connection points: 2
#     Edge 7, Type (0, 0), BuildingBlock: CIFDUS_clean_linker_0, # of connection points: 2
#     Edge 8, Type (0, 0), BuildingBlock: CIFDUS_clean_linker_0, # of connection points: 2
#     Edge 9, Type (0, 0), BuildingBlock: CIFDUS_clean_linker_0, # of connection points: 2
#     Edge 10, Type (0, 0), BuildingBlock: CIFDUS_clean_linker_0, # of connection points: 2
#     Edge 11, Type (0, 0), BuildingBlock: CIFDUS_clean_linker_0, # of connection points: 2
#     Edge 12, Type (0, 0), BuildingBlock: CIFDUS_clean_linker_0, # of connection points: 2
#     Edge 13, Type (0, 0), BuildingBlock: CIFDUS_clean_linker_0, # of connection points: 2
#     Edge 14, Type (0, 0), BuildingBlock: CIFDUS_clean_linker_0, # of connection points: 2
#     Edge 15, Type (0, 0), BuildingBlock: CIFDUS_clean_linker_0, # of connection points: 2
# Relax obj value: 0.534
# Max RMSD: 0.123
# Mean RMSD: 0.097
data_MOF--net-sxb--node1-CUWYAW_clean_sbu_0--edge1-CIFDUS_clean_linker_0
_symmetry_space_group_name_H-M    P1
_symmetry_Int_Tables_number       1
_symmetry_cell_setting            triclinic
loop_
_symmetry_equiv_pos_as_xyz
'x, y, z'
_cell_length_a     15.085334
_cell_length_b     31.705986
_cell_length_c     26.585759
_cell_angle_alpha  96.271364
_cell_angle_beta   95.71401
_cell_angle_gamma 66.284825
loop_
_atom_site_label
_atom_site_type_symbol
_atom_site_fract_x
_atom_site_fract_y
_atom_site_fract_z
_atom_type_partial_charge
C0 C 0.36234 1.06338 0.98369 0.0
Eu1 Eu 0.2014 1.06693 0.01285 0.0
C2 C 0.3691 1.08038 0.93538 0.0
C3 C 0.43468 1.05068 0.90079 0.0
C4 C 0.42975 1.06255 0.85127 0.0
C5 C 0.35856 0.10457 0.83481 0.0
C6 C 0.29255 0.1341 0.86973 0.0
C7 C 0.29774 0.12217 0.91933 0.0
C8 C 0.1525 1.07499 0.11223 0.0
C9 C 0.22448 0.95797 0.01638 0.0
C10 C 0.86881 1.06572 -0.00816 0.0
Eu11 Eu 1.04669 1.05704 0.00587 0.0
C12 C 0.80974 0.08745 0.94704 0.0
C13 C 0.83323 0.11919 0.9237 0.0
C14 C 0.78649 0.13614 0.87772 0.0
C15 C 0.7174 0.12063 0.85352 0.0
C16 C 0.69496 0.08829 0.87649 0.0
C17 C 0.74096 1.07177 0.92281 0.0
C18 C 0.10727 1.0492 0.90883 0.0
C19 C 1.02392 0.16656 0.011 0.0
O20 O 0.31448 0.09423 0.01868 0.0
O21 O 0.33833 1.02791 0.97784 0.0
O22 O 0.19027 0.0994 0.09331 0.0
O23 O 0.14178 1.04568 0.07806 0.0
O24 O 0.26675 0.98556 0.00674 0.0
O25 O 0.13093 0.97956 0.02495 0.0
O26 O 0.89515 0.0927 0.02494 0.0
O27 O 0.94096 1.0269 0.98107 0.0
O28 O 1.08901 1.01859 0.92859 0.0
O29 O 0.10203 0.08103 0.94299 0.0
O30 O 0.9819 0.13927 0.02222 0.0
O31 O 0.11485 0.14421 -0.00074 0.0
H32 H 0.48882 1.01779 0.91184 0.0
H33 H 0.48453 1.03918 0.8266 0.0
H34 H 0.23724 0.16673 0.85891 0.0
H35 H 0.24458 0.14547 0.94475 0.0
H36 H 0.88873 0.13058 0.94056 0.0
H37 H 0.80365 0.16155 0.86128 0.0
H38 H 0.63949 1.07679 0.85932 0.0
H39 H 0.72355 1.04651 0.93939 0.0
C40 C 0.98159 0.19327 0.49346 0.0
Eu41 Eu 1.086 0.10732 0.51172 0.0
C42 C 0.99457 0.23129 0.47367 0.0
C43 C 0.93343 0.27682 0.48819 0.0
C44 C 0.95909 0.31315 0.48042 0.0
C45 C 1.04656 0.30395 0.45842 0.0
C46 C 0.10159 0.25866 0.43891 0.0
C47 C 1.07596 0.22251 0.44675 0.0
C48 C 0.12617 0.08326 0.61027 0.0
C49 C 0.32663 1.06411 0.50973 0.0
C50 C 0.25227 0.93356 0.52713 0.0
Eu51 Eu 0.15139 1.01972 0.50851 0.0
C52 C 0.23573 0.8978 0.55006 0.0
C53 C 0.2835 0.85152 0.53228 0.0
C54 C 0.25128 0.81847 0.54409 0.0
C55 C 0.17101 0.83164 0.57374 0.0
C56 C 0.1308 0.877 0.59615 0.0
C57 C 0.1625 0.91005 0.58404 0.0
C58 C 0.11248 1.04452 0.40996 0.0
C59 C 0.91087 1.06299 0.51093 0.0
O60 O 0.98769 0.15821 0.4613 0.0
O61 O 1.02899 0.18046 0.53664 0.0
O62 O 0.15257 0.11192 0.59107 0.0
O63 O 1.08244 1.06626 0.57574 0.0
O64 O 0.24733 0.1033 0.50481 0.0
O65 O 0.30523 1.0274 0.514 0.0
O66 O 0.25333 0.96858 0.5575 0.0
O67 O 0.20201 0.94635 0.4846 0.0
O68 O 1.08462 1.01618 0.42875 0.0
O69 O 0.15667 1.06074 0.44493 0.0
O70 O 0.99018 1.02393 0.51626 0.0
O71 O 0.93231 0.09953 0.50602 0.0
H72 H 0.86988 0.28392 0.50883 0.0
H73 H 0.91497 0.34776 0.49531 0.0
H74 H 0.16997 0.2502 0.4223 0.0
H75 H 0.12382 0.1874 0.43537 0.0
H76 H 0.34056 0.84164 0.50618 0.0
H77 H 0.28331 0.78365 0.5265 0.0
H78 H 1.06812 0.88813 0.61865 0.0
H79 H 0.12481 0.94573 0.59802 0.0
C80 C 0.8412 0.57482 0.00372 0.0
Eu81 Eu 0.68283 0.56799 0.02072 0.0
C82 C 0.84281 0.6097 0.97176 0.0
C83 C 0.89789 0.59553 0.92909 0.0
C84 C 0.88688 0.62688 0.89355 0.0
C85 C 0.819 0.67322 0.89927 0.0
C86 C 0.76233 0.68687 0.94164 0.0
C87 C 0.77543 0.6558 0.97784 0.0
C88 C 0.6165 0.56845 0.11352 0.0
C89 C 0.7017 0.45696 0.0152 0.0
C90 C 0.34208 0.57075 -0.00719 0.0
Eu91 Eu 0.52257 0.55532 0.00383 0.0
C92 C 0.27661 0.61169 0.9668 0.0
C93 C 0.30997 0.62565 0.92642 0.0
C94 C 0.25674 0.66839 0.90677 0.0
C95 C 0.16938 0.69833 0.92735 0.0
C96 C 0.13688 0.68443 0.96826 0.0
C97 C 0.19018 0.64169 -0.01214 0.0
C98 C 0.59425 0.55798 0.91332 0.0
C99 C 0.4949 0.66592 0.01725 0.0
O100 O 0.80006 0.59037 0.04682 0.0
O101 O 0.81365 0.54377 0.97894 0.0
O102 O 0.65006 0.59755 0.10175 0.0
O103 O 0.6183 0.54015 0.07553 0.0
O104 O 0.74852 0.48479 0.01256 0.0
O105 O 0.60619 0.47808 0.01765 0.0
O106 O 0.38121 0.58054 0.03618 0.0
O107 O 0.40537 0.53834 0.96475 0.0
O108 O 0.57197 0.52488 0.92423 0.0
O109 O 0.58381 0.58618 0.95189 0.0
O110 O 0.4545 0.63627 0.02141 0.0
O111 O 0.58923 0.64667 0.01123 0.0
H112 H 0.94883 0.56001 0.92296 0.0
H113 H 0.93456 0.61481 0.86254 0.0
H114 H 0.70932 0.72192 0.94765 0.0
H115 H 0.73162 0.66798 0.01035 0.0
H116 H 0.37831 0.60384 0.91044 0.0
H117 H 0.28273 0.67766 0.87485 0.0
H118 H 1.06819 0.70587 0.98417 0.0
H119 H 0.16455 0.63233 0.01985 0.0
C120 C 0.52561 0.70274 0.51003 0.0
Eu121 Eu 0.57199 0.61573 0.52024 0.0
C122 C 0.58836 0.72503 0.49822 0.0
C123 C 0.58933 0.76374 0.52874 0.0
C124 C 0.667 0.77692 0.52834 0.0
C125 C 0.74436 0.75143 0.49742 0.0
C126 C 0.73884 0.71524 0.4637 0.0
C127 C 0.6614 0.70209 0.46411 0.0
C128 C 0.5916 0.58158 0.61269 0.0
C129 C 0.8221 0.56508 0.51563 0.0
C130 C 0.69682 0.43502 0.51774 0.0
Eu131 Eu 0.64936 0.52253 0.50926 0.0
C132 C 0.63314 0.41063 0.51956 0.0
C133 C 0.64443 0.37199 0.48577 0.0
C134 C 0.56809 0.35754 0.47514 0.0
C135 C 0.4791 0.38209 0.49767 0.0
C136 C 0.47222 0.41787 0.53527 0.0
C137 C 0.54867 0.43183 0.54629 0.0
C138 C 0.62945 0.55669 0.41688 0.0
C139 C 0.39837 0.57382 0.51343 0.0
O140 O 0.50946 0.67474 0.47404 0.0
O141 O 0.5476 0.685 0.55386 0.0
O142 O 0.51595 0.61568 0.59613 0.0
O143 O 0.65491 0.56649 0.57966 0.0
O144 O 0.74089 0.60432 0.5138 0.0
O145 O 0.80452 0.527 0.51753 0.0
O146 O 0.6967 0.46428 0.55634 0.0
O147 O 0.69004 0.45236 0.47459 0.0
O148 O 0.70518 0.52266 0.43338 0.0
O149 O 0.56631 0.57161 0.44997 0.0
O150 O 0.4793 0.53426 0.51318 0.0
O151 O 0.41638 0.61202 0.51385 0.0
H152 H 0.53376 0.78168 0.55539 0.0
H153 H 0.66891 0.80562 0.55394 0.0
H154 H 0.79761 0.69499 0.43961 0.0
H155 H 0.66279 0.67178 0.44045 0.0
H156 H 0.70938 0.35513 0.46492 0.0
H157 H 0.57737 0.32857 0.44752 0.0
H158 H 0.40568 0.43745 0.55392 0.0
H159 H 0.5382 0.46169 0.57279 0.0
H160 H 0.54671 0.74301 0.00809 0.0
H161 H 0.29742 0.71424 0.02867 0.0
H162 H 0.19474 0.7969 0.03086 0.0
H163 H 0.1703 0.88093 0.02701 0.0
H164 H 0.4205 0.90884 0.00556 0.0
H165 H 0.52242 0.8264 0.00388 0.0
C166 C 0.46998 0.75434 0.01318 0.0
C167 C 0.43275 0.71982 0.01844 0.0
C168 C 0.40874 0.80366 0.01436 0.0
C169 C 0.33144 0.73783 0.02463 0.0
C170 C 0.27134 0.7861 0.02587 0.0
C171 C 0.24711 0.86947 0.0221 0.0
C172 C 0.28481 0.90388 0.01666 0.0
C173 C 0.30821 0.82001 0.02087 0.0
C174 C 0.38604 0.88552 0.01008 0.0
C175 C 0.44581 0.83734 0.00905 0.0
H176 H 0.90055 0.39037 0.00223 0.0
H177 H 0.61954 0.396 0.03057 0.0
H178 H 0.68654 0.31214 0.0325 0.0
H179 H 0.82619 0.23323 0.02602 0.0
H180 H 0.10655 0.2274 -0.00391 0.0
H181 H 1.04 0.31138 -0.00489 0.0
C182 C 0.85309 0.37374 0.00898 0.0
C183 C 0.75239 0.40238 0.01635 0.0
C184 C 0.89307 0.32339 0.00982 0.0
C185 C 0.696 0.37735 0.02467 0.0
C186 C 0.73498 0.32827 0.02583 0.0
C187 C 0.87367 0.24988 0.01936 0.0
C188 C 0.97406 0.2212 0.01135 0.0
C189 C 0.8337 0.30022 0.01844 0.0
C190 C 1.03034 0.24615 0.0026 0.0
C191 C 0.99162 0.29528 0.00199 0.0
H192 H 0.14922 0.32342 0.3925 0.0
H193 H 1.05225 0.35758 0.54472 0.0
H194 H 0.17598 0.38782 0.56972 0.0
H195 H 0.33061 0.38893 0.5532 0.0
H196 H 0.42882 0.35609 0.40095 0.0
H197 H 0.28904 0.33794 0.37213 0.0
C198 C 0.15378 0.33862 0.43077 0.0
C199 C 0.09335 0.33724 0.46689 0.0
C200 C 0.22825 0.35382 0.44568 0.0
C201 C 0.09794 0.35809 0.51604 0.0
C202 C 0.17004 0.37457 0.53074 0.0
C203 C 0.32082 0.37894 0.51341 0.0
C204 C 0.39195 0.37278 0.47974 0.0
C205 C 0.23887 0.37001 0.49664 0.0
C206 C 0.37754 0.35933 0.42836 0.0
C207 C 0.29666 0.34971 0.41153 0.0
H208 H 0.11229 0.79498 0.48835 0.0
H209 H 0.09498 0.80852 0.65062 0.0
H210 H 0.963 0.78128 0.64085 0.0
H211 H 0.84051 0.76338 0.58541 0.0
H212 H 0.85111 0.75625 0.42295 0.0
H213 H 0.99905 0.77105 0.43343 0.0
C214 C 1.08199 0.79038 0.52167 0.0
C215 C 0.11318 0.80338 0.57014 0.0
C216 C 1.00372 0.77702 0.51556 0.0
C217 C 1.07199 0.79839 0.61301 0.0
C218 C 0.99613 0.78336 0.60735 0.0
C219 C 0.87503 0.76538 0.55236 0.0
C220 C 0.83427 0.75977 0.50351 0.0
C221 C 0.95894 0.77449 0.5587 0.0
C222 C 0.88106 0.76085 0.4609 0.0
C223 C 0.96549 0.76922 0.46688 0.0
H224 H 0.32654 0.19277 0.81355 0.0
H225 H 0.4099 1.05625 0.74025 0.0
H226 H 0.55804 1.05905 0.71501 0.0
H227 H 0.68618 1.08095 0.76101 0.0
H228 H 0.60582 0.21202 0.84774 0.0
H229 H 0.43678 0.23229 0.81933 0.0
C230 C 0.37432 0.16455 0.78955 0.0
C231 C 0.36794 0.12125 0.78596 0.0
C232 C 0.463 0.16537 0.77957 0.0
C233 C 0.42076 0.08812 0.7486 0.0
C234 C 0.50663 0.0894 0.73479 0.0
C235 C 0.63226 0.11528 0.77042 0.0
C236 C 0.65534 0.14336 0.80963 0.0
C237 C 0.53421 0.12478 0.75734 0.0
C238 C 0.58789 0.18878 0.81962 0.0
C239 C 0.49054 0.20012 0.80395 0.0
H240 H 0.42434 0.12949 0.50167 0.0
H241 H 0.49988 0.98563 0.52016 0.0
H242 H 0.67196 0.97145 0.52239 0.0
H243 H 0.81316 0.99766 0.51929 0.0
H244 H 0.73762 0.1415 0.50074 0.0
H245 H 0.56555 0.15572 0.49865 0.0
C246 C 0.47706 0.09463 0.50622 0.0
C247 C 0.43999 1.05896 0.51064 0.0
C248 C 0.5823 0.08588 0.50758 0.0
C249 C 0.51783 1.0149 0.51646 0.0
C250 C 0.61977 1.00642 0.5178 0.0
C251 C 0.76044 1.03252 0.51474 0.0
C252 C 0.79752 1.06817 0.51023 0.0
C253 C 0.6552 1.04127 0.51343 0.0
C254 C 0.71968 0.11224 0.50447 0.0
C255 C 0.61774 0.12074 0.50321 0.0
H256 H 0.79173 0.76338 0.92769 0.0
H257 H 0.85453 0.66534 0.79714 0.0
H258 H 0.98161 0.68854 0.77726 0.0
H259 H 0.11666 0.70134 0.82655 0.0
H260 H 1.06341 0.78849 0.96487 0.0
H261 H 0.89005 0.80868 0.95035 0.0
C262 C 0.82888 0.74878 0.89313 0.0
C263 C 0.82381 0.70834 0.86769 0.0
C264 C 0.90614 0.76022 0.88425 0.0
C265 C 0.86468 0.69357 0.82027 0.0
C266 C 0.93803 0.70668 0.80899 0.0
C267 C 1.06638 0.72722 0.85174 0.0
C268 C 0.10128 0.73855 0.90011 0.0
C269 C 0.96811 0.73449 0.84533 0.0
C270 C 1.03716 0.77603 0.92938 0.0
C271 C 0.93771 0.78682 0.92159 0.0
H272 H 0.30537 0.505 0.51104 0.0
H273 H 0.22202 0.65207 0.51604 0.0
H274 H 1.05163 0.66382 0.51678 0.0
H275 H 0.91409 0.63431 0.51649 0.0
H276 H 0.99843 0.48712 0.51309 0.0
H277 H 0.16847 0.47557 0.5117 0.0
C278 C 0.25147 0.54004 0.51266 0.0
C279 C 0.286 0.57737 0.5137 0.0
C280 C 0.14728 0.54729 0.51342 0.0
C281 C 0.20633 0.62154 0.51519 0.0
C282 C 0.10528 0.6286 0.51567 0.0
C283 C 0.96829 0.59924 0.51546 0.0
C284 C 0.93415 0.56178 0.51494 0.0
C285 C 1.07254 0.59206 0.51486 0.0
C286 C 1.01391 0.51768 0.51363 0.0
C287 C 0.11475 0.51072 0.51279 0.0
H288 H 0.17668 0.09704 0.35597 0.0
H289 H 1.04952 0.99604 0.33452 0.0
H290 H 1.05061 0.9954 0.24281 0.0
H291 H 1.0881 1.02294 0.16646 0.0
H292 H 0.21085 0.12558 0.18758 0.0
H293 H 0.21079 0.12594 0.27941 0.0
C294 C 0.14917 1.0749 0.3313 0.0
C295 C 0.11346 1.04645 0.35316 0.0
C296 C 0.14918 1.07482 0.27749 0.0
C297 C 1.07779 1.01832 0.31969 0.0
C298 C 1.07835 1.01785 0.26672 0.0
C299 C 0.11489 1.04539 0.19106 0.0
C300 C 0.14993 1.07402 0.1691 0.0
C301 C 0.11399 1.04584 0.24484 0.0
C302 C 0.18364 0.10294 0.2025 0.0
C303 C 0.18366 0.10324 0.25552 0.0
H304 H 0.12636 0.11461 0.85303 0.0
H305 H 1.08949 0.98588 0.83532 0.0
H306 H 1.08836 0.98482 0.7434 0.0
H307 H 0.09898 1.01994 0.66589 0.0
H308 H 0.14846 0.14565 0.68397 0.0
H309 H 0.14404 0.14809 0.77566 0.0
C310 C 0.11951 0.08604 0.82914 0.0
C311 C 0.10889 1.05023 0.85203 0.0
C312 C 0.12093 0.08502 0.77537 0.0
C313 C 0.09814 1.01401 0.8196 0.0
C314 C 0.09744 1.0133 0.76656 0.0
C315 C 0.10876 1.04787 0.68984 0.0
C316 C 0.12326 0.08275 0.66707 0.0
C317 C 0.10885 1.04855 0.74367 0.0
C318 C 0.13688 0.11825 0.69958 0.0
C319 C 0.13453 0.11972 0.75253 0.0
H320 H 0.67537 0.49512 0.3334 0.0
H321 H 0.54339 0.64093 0.37649 0.0
H322 H 0.52782 0.65775 0.28729 0.0
H323 H 0.55809 0.63085 0.19631 0.0
H324 H 0.67423 0.4847 0.15304 0.0
H325 H 0.68892 0.46821 0.2421 0.0
C326 C 0.64239 0.5306 0.32323 0.0
C327 C 0.61111 0.56677 0.36199 0.0
C328 C 0.631 0.53993 0.27143 0.0
C329 C 0.56773 0.61244 0.3478 0.0
C330 C 0.55923 0.62205 0.29661 0.0
C331 C 0.58573 0.59539 0.20638 0.0
C332 C 0.6156 0.55905 0.16766 0.0
C333 C 0.59144 0.58611 0.258 0.0
C334 C 0.65042 0.51337 0.18163 0.0
C335 C 0.65925 0.50391 0.23278 0.0
H336 H 0.52102 0.63916 0.69694 0.0
H337 H 0.69982 0.49783 0.6517 0.0
H338 H 0.71547 0.47758 0.73955 0.0
H339 H 0.67357 0.49974 0.83003 0.0
H340 H 0.51013 0.64295 0.87597 0.0
H341 H 0.49386 0.66271 0.78808 0.0
C342 C 0.56394 0.60393 0.7063 0.0
C343 C 0.6082 0.56994 0.66717 0.0
C344 C 0.57534 0.59286 0.75749 0.0
C345 C 0.66463 0.52469 0.68054 0.0
C346 C 0.67343 0.51309 0.731 0.0
C347 C 0.63504 0.53531 0.82078 0.0
C348 C 0.59256 0.56974 0.85987 0.0
C349 C 0.62843 0.54677 0.7699 0.0
C350 C 0.54381 0.61573 0.84704 0.0
C351 C 0.53413 0.62705 0.79656 0.0
loop_
_geom_bond_atom_site_label_1
_geom_bond_atom_site_label_2
_geom_bond_distance
_geom_bond_site_symmetry_2
_ccdc_geom_bond_type
C0 Eu1 2.835 1_565 S
C0 C2 1.500 . S
C0 O20 1.257 1_554 S
C0 O21 1.260 1_565 S
Eu1 C0 2.835 1_545 S
Eu1 O20 2.473 1_544 S
Eu1 O21 2.480 . S
Eu1 O22 2.430 . S
Eu1 O23 2.670 1_455 S
Eu1 O24 2.394 1_545 S
Eu1 O29 2.355 1_544 S
Eu1 O31 2.374 1_455 S
C2 C0 1.500 . S
C2 C3 1.377 . S
C2 C7 1.377 1_554 S
C3 C2 1.377 . S
C3 C4 1.395 . S
C3 H32 0.931 . S
C4 C3 1.395 . S
C4 C5 1.383 1_554 S
C4 H33 0.931 . S
C5 C4 1.383 1_556 S
C5 C6 1.394 . S
C6 C5 1.394 . S
C6 C7 1.378 . S
C6 H34 0.931 . S
C7 C2 1.377 1_556 S
C7 C6 1.378 . S
C7 H35 0.931 . S
C8 O22 1.259 . S
C8 O23 1.270 1_455 S
C9 O24 1.251 . S
C9 O25 1.251 1_554 S
C10 Eu11 2.835 1_545 S
C10 C12 1.500 . S
C10 O26 1.257 1_556 S
C10 O27 1.260 1_545 S
Eu11 C10 2.835 1_565 S
Eu11 O23 2.355 1_566 S
Eu11 O25 2.374 1_655 S
Eu11 O26 2.473 1_566 S
Eu11 O27 2.480 . S
Eu11 O28 2.430 . S
Eu11 O29 2.670 1_655 S
Eu11 O30 2.394 1_565 S
C12 C10 1.500 . S
C12 C13 1.377 . S
C12 C17 1.377 1_556 S
C13 C12 1.377 . S
C13 C14 1.395 . S
C13 H36 0.931 . S
C14 C13 1.395 . S
C14 C15 1.383 1_556 S
C14 H37 0.931 . S
C15 C14 1.383 1_554 S
C15 C16 1.394 . S
C16 C15 1.394 . S
C16 C17 1.378 . S
C16 H38 0.931 . S
C17 C12 1.377 1_554 S
C17 C16 1.378 . S
C17 H39 0.931 . S
C18 O28 1.259 . S
C18 O29 1.270 1_655 S
C19 O30 1.251 . S
C19 O31 1.251 1_556 S
O20 C0 1.257 1_556 S
O20 Eu1 2.473 1_566 S
O21 C0 1.260 1_545 S
O21 Eu1 2.480 . S
O22 Eu1 2.430 . S
O22 C8 1.259 . S
O23 Eu1 2.670 1_655 S
O23 C8 1.270 1_655 S
O23 Eu11 2.355 1_544 S
O24 Eu1 2.394 1_565 S
O24 C9 1.251 . S
O25 C9 1.251 1_556 S
O25 Eu11 2.374 1_455 S
O26 C10 1.257 1_554 S
O26 Eu11 2.473 1_544 S
O27 C10 1.260 1_565 S
O27 Eu11 2.480 . S
O28 Eu11 2.430 . S
O28 C18 1.259 . S
O29 Eu1 2.355 1_566 S
O29 Eu11 2.670 1_455 S
O29 C18 1.270 1_455 S
O30 Eu11 2.394 1_545 S
O30 C19 1.251 . S
O31 Eu1 2.374 1_655 S
O31 C19 1.251 1_554 S
H32 C3 0.931 . S
H33 C4 0.931 . S
H34 C6 0.931 . S
H35 C7 0.931 . S
H36 C13 0.931 . S
H37 C14 0.931 . S
H38 C16 0.931 . S
H39 C17 0.931 . S
C40 Eu41 2.835 1_455 S
C40 C42 1.500 . S
C40 O60 1.257 . S
C40 O61 1.260 . S
Eu41 C40 2.835 1_655 S
Eu41 O60 2.473 1_655 S
Eu41 O61 2.480 1_655 S
Eu41 O62 2.430 . S
Eu41 O63 2.670 1_545 S
Eu41 O64 2.394 1_655 S
Eu41 O69 2.355 1_655 S
Eu41 O71 2.374 . S
C42 C40 1.500 . S
C42 C43 1.377 . S
C42 C47 1.377 . S
C43 C42 1.377 . S
C43 C44 1.395 . S
C43 H72 0.931 . S
C44 C43 1.395 . S
C44 C45 1.383 . S
C44 H73 0.931 . S
C45 C44 1.383 . S
C45 C46 1.394 . S
C46 C45 1.394 . S
C46 C47 1.378 . S
C46 H74 0.931 . S
C47 C42 1.377 . S
C47 C46 1.378 . S
C47 H75 0.931 . S
C48 O62 1.259 1_455 S
C48 O63 1.270 1_445 S
C49 O64 1.251 1_565 S
C49 O65 1.251 . S
C50 Eu51 2.835 1_655 S
C50 C52 1.500 . S
C50 O66 1.257 . S
C50 O67 1.260 . S
Eu51 C50 2.835 1_455 S
Eu51 O63 2.355 1_455 S
Eu51 O65 2.374 . S
Eu51 O66 2.473 1_455 S
Eu51 O67 2.480 1_455 S
Eu51 O68 2.430 . S
Eu51 O69 2.670 1_565 S
Eu51 O70 2.394 1_455 S
C52 C50 1.500 . S
C52 C53 1.377 . S
C52 C57 1.377 . S
C53 C52 1.377 . S
C53 C54 1.395 . S
C53 H76 0.931 . S
C54 C53 1.395 . S
C54 C55 1.383 . S
C54 H77 0.931 . S
C55 C54 1.383 . S
C55 C56 1.394 . S
C56 C55 1.394 . S
C56 C57 1.378 . S
C56 H78 0.931 . S
C57 C52 1.377 . S
C57 C56 1.378 . S
C57 H79 0.931 . S
C58 O68 1.256 . S
C58 O69 1.273 1_565 S
C59 O70 1.251 1_545 S
C59 O71 1.251 . S
O60 C40 1.257 . S
O60 Eu41 2.473 1_455 S
O61 C40 1.260 . S
O61 Eu41 2.480 1_455 S
O62 Eu41 2.430 . S
O62 C48 1.259 1_655 S
O63 Eu41 2.670 1_565 S
O63 C48 1.270 1_665 S
O63 Eu51 2.355 1_655 S
O64 Eu41 2.394 1_455 S
O64 C49 1.251 1_545 S
O65 C49 1.251 . S
O65 Eu51 2.374 . S
O66 C50 1.257 . S
O66 Eu51 2.473 1_655 S
O67 C50 1.260 . S
O67 Eu51 2.480 1_655 S
O68 Eu51 2.430 . S
O68 C58 1.256 . S
O69 Eu41 2.355 1_455 S
O69 Eu51 2.670 1_545 S
O69 C58 1.273 1_545 S
O70 Eu51 2.394 1_655 S
O70 C59 1.251 1_565 S
O71 Eu41 2.374 . S
O71 C59 1.251 . S
H72 C43 0.931 . S
H73 C44 0.931 . S
H74 C46 0.931 . S
H75 C47 0.931 . S
H76 C53 0.931 . S
H77 C54 0.931 . S
H78 C56 0.931 . S
H79 C57 0.931 . S
C80 Eu81 2.835 . S
C80 C82 1.500 . S
C80 O100 1.257 1_554 S
C80 O101 1.260 . S
Eu81 C80 2.835 . S
Eu81 O100 2.473 1_554 S
Eu81 O101 2.480 . S
Eu81 O102 2.430 . S
Eu81 O103 2.670 . S
Eu81 O104 2.394 . S
Eu81 O109 2.355 1_554 S
Eu81 O111 2.374 . S
C82 C80 1.500 . S
C82 C83 1.377 . S
C82 C87 1.377 1_554 S
C83 C82 1.377 . S
C83 C84 1.395 . S
C83 H112 0.931 . S
C84 C83 1.395 . S
C84 C85 1.383 1_554 S
C84 H113 0.931 . S
C85 C84 1.383 1_556 S
C85 C86 1.394 . S
C86 C85 1.394 . S
C86 C87 1.378 . S
C86 H114 0.931 . S
C87 C82 1.377 1_556 S
C87 C86 1.378 . S
C87 H115 0.931 . S
C88 O102 1.259 . S
C88 O103 1.270 . S
C89 O104 1.251 . S
C89 O105 1.251 1_554 S
C90 Eu91 2.835 . S
C90 C92 1.500 . S
C90 O106 1.257 1_556 S
C90 O107 1.260 . S
Eu91 C90 2.835 . S
Eu91 O103 2.355 1_556 S
Eu91 O105 2.374 . S
Eu91 O106 2.473 1_556 S
Eu91 O107 2.480 . S
Eu91 O108 2.430 . S
Eu91 O109 2.670 . S
Eu91 O110 2.394 . S
C92 C90 1.500 . S
C92 C93 1.377 . S
C92 C97 1.377 1_556 S
C93 C92 1.377 . S
C93 C94 1.395 . S
C93 H116 0.931 . S
C94 C93 1.395 . S
C94 C95 1.383 1_556 S
C94 H117 0.931 . S
C95 C94 1.383 1_554 S
C95 C96 1.394 . S
C96 C95 1.394 . S
C96 C97 1.378 . S
C96 H118 0.931 . S
C97 C92 1.377 1_554 S
C97 C96 1.378 . S
C97 H119 0.931 . S
C98 O108 1.259 . S
C98 O109 1.270 . S
C99 O110 1.251 . S
C99 O111 1.251 1_556 S
O100 C80 1.257 1_556 S
O100 Eu81 2.473 1_556 S
O101 C80 1.260 . S
O101 Eu81 2.480 . S
O102 Eu81 2.430 . S
O102 C88 1.259 . S
O103 Eu81 2.670 . S
O103 C88 1.270 . S
O103 Eu91 2.355 1_554 S
O104 Eu81 2.394 . S
O104 C89 1.251 . S
O105 C89 1.251 1_556 S
O105 Eu91 2.374 . S
O106 C90 1.257 1_554 S
O106 Eu91 2.473 1_554 S
O107 C90 1.260 . S
O107 Eu91 2.480 . S
O108 Eu91 2.430 . S
O108 C98 1.259 . S
O109 Eu81 2.355 1_556 S
O109 Eu91 2.670 . S
O109 C98 1.270 . S
O110 Eu91 2.394 . S
O110 C99 1.251 . S
O111 Eu81 2.374 . S
O111 C99 1.251 1_554 S
H112 C83 0.931 . S
H113 C84 0.931 . S
H114 C86 0.931 . S
H115 C87 0.931 . S
H116 C93 0.931 . S
H117 C94 0.931 . S
H118 C96 0.931 . S
H119 C97 0.931 . S
C120 Eu121 2.835 . S
C120 C122 1.500 . S
C120 O140 1.257 . S
C120 O141 1.260 . S
Eu121 C120 2.835 . S
Eu121 O140 2.473 . S
Eu121 O141 2.480 . S
Eu121 O142 2.430 . S
Eu121 O143 2.670 . S
Eu121 O144 2.394 . S
Eu121 O149 2.355 . S
Eu121 O151 2.374 . S
C122 C120 1.500 . S
C122 C123 1.377 . S
C122 C127 1.377 . S
C123 C122 1.377 . S
C123 C124 1.395 . S
C123 H152 0.931 . S
C124 C123 1.395 . S
C124 C125 1.383 . S
C124 H153 0.931 . S
C125 C124 1.383 . S
C125 C126 1.394 . S
C126 C125 1.394 . S
C126 C127 1.378 . S
C126 H154 0.931 . S
C127 C122 1.377 . S
C127 C126 1.378 . S
C127 H155 0.931 . S
C128 O142 1.259 . S
C128 O143 1.270 . S
C129 O144 1.251 . S
C129 O145 1.251 . S
C130 Eu131 2.835 . S
C130 C132 1.500 . S
C130 O146 1.257 . S
C130 O147 1.260 . S
Eu131 C130 2.835 . S
Eu131 O143 2.355 . S
Eu131 O145 2.374 . S
Eu131 O146 2.473 . S
Eu131 O147 2.480 . S
Eu131 O148 2.430 . S
Eu131 O149 2.670 . S
Eu131 O150 2.394 . S
C132 C130 1.500 . S
C132 C133 1.377 . S
C132 C137 1.377 . S
C133 C132 1.377 . S
C133 C134 1.395 . S
C133 H156 0.931 . S
C134 C133 1.395 . S
C134 C135 1.383 . S
C134 H157 0.931 . S
C135 C134 1.383 . S
C135 C136 1.394 . S
C136 C135 1.394 . S
C136 C137 1.378 . S
C136 H158 0.931 . S
C137 C132 1.377 . S
C137 C136 1.378 . S
C137 H159 0.931 . S
C138 O148 1.259 . S
C138 O149 1.270 . S
C139 O150 1.251 . S
C139 O151 1.251 . S
O140 C120 1.257 . S
O140 Eu121 2.473 . S
O141 C120 1.260 . S
O141 Eu121 2.480 . S
O142 Eu121 2.430 . S
O142 C128 1.259 . S
O143 Eu121 2.670 . S
O143 C128 1.270 . S
O143 Eu131 2.355 . S
O144 Eu121 2.394 . S
O144 C129 1.251 . S
O145 C129 1.251 . S
O145 Eu131 2.374 . S
O146 C130 1.257 . S
O146 Eu131 2.473 . S
O147 C130 1.260 . S
O147 Eu131 2.480 . S
O148 Eu131 2.430 . S
O148 C138 1.259 . S
O149 Eu121 2.355 . S
O149 Eu131 2.670 . S
O149 C138 1.270 . S
O150 Eu131 2.394 . S
O150 C139 1.251 . S
O151 Eu121 2.374 . S
O151 C139 1.251 . S
H152 C123 0.931 . S
H153 C124 0.931 . S
H154 C126 0.931 . S
H155 C127 0.931 . S
H156 C133 0.931 . S
H157 C134 0.931 . S
H158 C136 0.931 . S
H159 C137 0.931 . S
H160 C166 0.930 . S
H161 C169 0.930 . S
H162 C170 0.930 . S
H163 C171 0.930 . S
H164 C174 0.930 . S
H165 C175 0.930 . S
C166 H160 0.930 . S
C166 C167 1.355 1_556 S
C166 C168 1.415 . S
C167 C166 1.355 1_554 S
C167 C169 1.419 . S
C168 C166 1.415 . S
C168 C173 1.425 1_556 S
C168 C175 1.409 . S
C169 H161 0.930 . S
C169 C167 1.419 . S
C169 C170 1.362 . S
C170 H162 0.930 . S
C170 C169 1.362 . S
C170 C173 1.409 . S
C171 H163 0.930 . S
C171 C172 1.355 1_554 S
C171 C173 1.415 . S
C172 C171 1.355 1_556 S
C172 C174 1.419 . S
C173 C168 1.425 1_554 S
C173 C170 1.409 . S
C173 C171 1.415 . S
C174 H164 0.930 . S
C174 C172 1.419 . S
C174 C175 1.362 . S
C175 H165 0.930 . S
C175 C168 1.409 . S
C175 C174 1.362 . S
H176 C182 0.930 . S
H177 C185 0.930 . S
H178 C186 0.930 . S
H179 C187 0.930 . S
H180 C190 0.930 . S
H181 C191 0.930 . S
C182 H176 0.930 . S
C182 C183 1.355 1_556 S
C182 C184 1.415 . S
C183 C182 1.355 1_554 S
C183 C185 1.419 . S
C184 C182 1.415 . S
C184 C189 1.425 1_556 S
C184 C191 1.409 . S
C185 H177 0.930 . S
C185 C183 1.419 . S
C185 C186 1.362 . S
C186 H178 0.930 . S
C186 C185 1.362 . S
C186 C189 1.409 . S
C187 H179 0.930 . S
C187 C188 1.355 1_554 S
C187 C189 1.415 . S
C188 C187 1.355 1_556 S
C188 C190 1.419 . S
C189 C184 1.425 1_554 S
C189 C186 1.409 . S
C189 C187 1.415 . S
C190 H180 0.930 . S
C190 C188 1.419 . S
C190 C191 1.362 . S
C191 H181 0.930 . S
C191 C184 1.409 . S
C191 C190 1.362 . S
H192 C198 0.930 . S
H193 C201 0.930 . S
H194 C202 0.930 . S
H195 C203 0.930 . S
H196 C206 0.930 . S
H197 C207 0.930 . S
C198 H192 0.930 . S
C198 C199 1.355 . S
C198 C200 1.415 . S
C199 C198 1.355 . S
C199 C201 1.419 . S
C200 C198 1.415 . S
C200 C205 1.425 . S
C200 C207 1.409 . S
C201 H193 0.930 . S
C201 C199 1.419 . S
C201 C202 1.362 . S
C202 H194 0.930 . S
C202 C201 1.362 . S
C202 C205 1.409 . S
C203 H195 0.930 . S
C203 C204 1.355 . S
C203 C205 1.415 . S
C204 C203 1.355 . S
C204 C206 1.419 . S
C205 C200 1.425 . S
C205 C202 1.409 . S
C205 C203 1.415 . S
C206 H196 0.930 . S
C206 C204 1.419 . S
C206 C207 1.362 . S
C207 H197 0.930 . S
C207 C200 1.409 . S
C207 C206 1.362 . S
H208 C214 0.930 . S
H209 C217 0.930 . S
H210 C218 0.930 . S
H211 C219 0.930 . S
H212 C222 0.930 . S
H213 C223 0.930 . S
C214 H208 0.930 . S
C214 C215 1.355 . S
C214 C216 1.415 . S
C215 C214 1.355 . S
C215 C217 1.419 . S
C216 C214 1.415 . S
C216 C221 1.425 . S
C216 C223 1.409 . S
C217 H209 0.930 . S
C217 C215 1.419 . S
C217 C218 1.362 . S
C218 H210 0.930 . S
C218 C217 1.362 . S
C218 C221 1.409 . S
C219 H211 0.930 . S
C219 C220 1.355 . S
C219 C221 1.415 . S
C220 C219 1.355 . S
C220 C222 1.419 . S
C221 C216 1.425 . S
C221 C218 1.409 . S
C221 C219 1.415 . S
C222 H212 0.930 . S
C222 C220 1.419 . S
C222 C223 1.362 . S
C223 H213 0.930 . S
C223 C216 1.409 . S
C223 C222 1.362 . S
H224 C230 0.930 . S
H225 C233 0.930 . S
H226 C234 0.930 . S
H227 C235 0.930 . S
H228 C238 0.930 . S
H229 C239 0.930 . S
C230 H224 0.930 . S
C230 C231 1.355 . S
C230 C232 1.415 1_565 S
C231 C230 1.355 . S
C231 C233 1.419 1_556 S
C232 C230 1.415 1_545 S
C232 C237 1.425 1_556 S
C232 C239 1.409 . S
C233 H225 0.930 . S
C233 C231 1.419 1_554 S
C233 C234 1.362 . S
C234 H226 0.930 . S
C234 C233 1.362 . S
C234 C237 1.410 1_565 S
C235 H227 0.930 . S
C235 C236 1.355 . S
C235 C237 1.413 . S
C236 C235 1.355 . S
C236 C238 1.419 1_554 S
C237 C232 1.425 1_554 S
C237 C234 1.410 1_545 S
C237 C235 1.413 . S
C238 H228 0.930 . S
C238 C236 1.419 1_556 S
C238 C239 1.362 . S
C239 H229 0.930 . S
C239 C232 1.409 . S
C239 C238 1.362 . S
H240 C246 0.930 . S
H241 C249 0.930 . S
H242 C250 0.930 . S
H243 C251 0.930 . S
H244 C254 0.930 . S
H245 C255 0.930 . S
C246 H240 0.930 . S
C246 C247 1.355 1_545 S
C246 C248 1.415 . S
C247 C246 1.355 1_565 S
C247 C249 1.419 . S
C248 C246 1.415 . S
C248 C253 1.425 1_545 S
C248 C255 1.409 . S
C249 H241 0.930 . S
C249 C247 1.419 . S
C249 C250 1.362 . S
C250 H242 0.930 . S
C250 C249 1.362 . S
C250 C253 1.409 . S
C251 H243 0.930 . S
C251 C252 1.355 1_565 S
C251 C253 1.415 . S
C252 C251 1.355 1_545 S
C252 C254 1.419 . S
C253 C248 1.425 1_565 S
C253 C250 1.409 . S
C253 C251 1.415 . S
C254 H244 0.930 . S
C254 C252 1.419 . S
C254 C255 1.362 . S
C255 H245 0.930 . S
C255 C248 1.409 . S
C255 C254 1.362 . S
H256 C262 0.930 . S
H257 C265 0.930 . S
H258 C266 0.930 . S
H259 C267 0.930 . S
H260 C270 0.930 . S
H261 C271 0.930 . S
C262 H256 0.930 . S
C262 C263 1.355 1_554 S
C262 C264 1.415 1_655 S
C263 C262 1.355 1_556 S
C263 C265 1.419 . S
C264 C262 1.415 1_455 S
C264 C269 1.425 1_454 S
C264 C271 1.409 . S
C265 H257 0.930 . S
C265 C263 1.419 . S
C265 C266 1.362 . S
C266 H258 0.930 . S
C266 C265 1.362 . S
C266 C269 1.409 . S
C267 H259 0.930 . S
C267 C268 1.355 1_556 S
C267 C269 1.415 1_455 S
C268 C267 1.355 1_554 S
C268 C270 1.419 . S
C269 C264 1.425 1_656 S
C269 C266 1.409 . S
C269 C267 1.415 1_655 S
C270 H260 0.930 . S
C270 C268 1.419 . S
C270 C271 1.362 . S
C271 H261 0.930 . S
C271 C264 1.409 . S
C271 C270 1.362 . S
H272 C278 0.930 . S
H273 C281 0.930 . S
H274 C282 0.930 1_655 S
H275 C283 0.930 . S
H276 C286 0.930 . S
H277 C287 0.930 1_455 S
C278 H272 0.930 . S
C278 C279 1.355 . S
C278 C280 1.415 . S
C279 C278 1.355 . S
C279 C281 1.419 . S
C280 C278 1.415 . S
C280 C285 1.425 1_455 S
C280 C287 1.409 1_455 S
C281 H273 0.930 . S
C281 C279 1.419 . S
C281 C282 1.362 . S
C282 H274 0.930 1_455 S
C282 C281 1.362 . S
C282 C285 1.409 1_455 S
C283 H275 0.930 . S
C283 C284 1.355 . S
C283 C285 1.415 . S
C284 C283 1.355 . S
C284 C286 1.419 . S
C285 C280 1.425 1_655 S
C285 C282 1.409 1_655 S
C285 C283 1.415 . S
C286 H276 0.930 . S
C286 C284 1.419 . S
C286 C287 1.362 . S
C287 H277 0.930 1_655 S
C287 C280 1.409 1_655 S
C287 C286 1.362 . S
H288 C294 0.930 . S
H289 C297 0.930 . S
H290 C298 0.930 . S
H291 C299 0.930 . S
H292 C302 0.930 . S
H293 C303 0.930 . S
C294 H288 0.930 . S
C294 C295 1.355 1_545 S
C294 C296 1.415 . S
C295 C294 1.355 1_565 S
C295 C297 1.419 1_655 S
C296 C294 1.415 . S
C296 C301 1.425 1_645 S
C296 C303 1.409 . S
C297 H289 0.930 . S
C297 C295 1.419 1_455 S
C297 C298 1.362 . S
C298 H290 0.930 . S
C298 C297 1.362 . S
C298 C301 1.409 . S
C299 H291 0.930 . S
C299 C300 1.355 1_465 S
C299 C301 1.415 . S
C300 C299 1.355 1_645 S
C300 C302 1.419 . S
C301 C296 1.425 1_465 S
C301 C298 1.409 . S
C301 C299 1.415 . S
C302 H292 0.930 . S
C302 C300 1.419 . S
C302 C303 1.362 . S
C303 H293 0.930 . S
C303 C296 1.409 . S
C303 C302 1.362 . S
H304 C310 0.930 . S
H305 C313 0.935 . S
H306 C314 0.930 . S
H307 C315 0.930 . S
H308 C318 0.936 . S
H309 C319 0.930 . S
C310 H304 0.930 . S
C310 C311 1.355 1_455 S
C310 C312 1.415 . S
C311 C310 1.355 1_655 S
C311 C313 1.415 1_545 S
C312 C310 1.415 . S
C312 C317 1.425 1_445 S
C312 C319 1.409 . S
C313 H305 0.935 . S
C313 C311 1.415 1_565 S
C313 C314 1.362 . S
C314 H306 0.930 . S
C314 C313 1.362 . S
C314 C317 1.409 . S
C315 H307 0.930 . S
C315 C316 1.355 1_655 S
C315 C317 1.415 . S
C316 C315 1.355 1_455 S
C316 C318 1.414 1_565 S
C317 C312 1.425 1_665 S
C317 C314 1.409 . S
C317 C315 1.415 . S
C318 H308 0.936 . S
C318 C316 1.414 1_545 S
C318 C319 1.362 . S
C319 H309 0.930 . S
C319 C312 1.409 . S
C319 C318 1.362 . S
H320 C326 0.930 . S
H321 C329 0.930 . S
H322 C330 0.930 . S
H323 C331 0.930 . S
H324 C334 0.930 . S
H325 C335 0.930 . S
C326 H320 0.930 . S
C326 C327 1.355 . S
C326 C328 1.415 . S
C327 C326 1.355 . S
C327 C329 1.419 . S
C328 C326 1.415 . S
C328 C333 1.425 . S
C328 C335 1.409 . S
C329 H321 0.930 . S
C329 C327 1.419 . S
C329 C330 1.362 . S
C330 H322 0.930 . S
C330 C329 1.362 . S
C330 C333 1.409 . S
C331 H323 0.930 . S
C331 C332 1.355 . S
C331 C333 1.415 . S
C332 C331 1.355 . S
C332 C334 1.419 . S
C333 C328 1.425 . S
C333 C330 1.409 . S
C333 C331 1.415 . S
C334 H324 0.930 . S
C334 C332 1.419 . S
C334 C335 1.362 . S
C335 H325 0.930 . S
C335 C328 1.409 . S
C335 C334 1.362 . S
H336 C342 0.930 . S
H337 C345 0.930 . S
H338 C346 0.930 . S
H339 C347 0.930 . S
H340 C350 0.930 . S
H341 C351 0.930 . S
C342 H336 0.930 . S
C342 C343 1.355 . S
C342 C344 1.415 . S
C343 C342 1.355 . S
C343 C345 1.419 . S
C344 C342 1.415 . S
C344 C349 1.425 . S
C344 C351 1.409 . S
C345 H337 0.930 . S
C345 C343 1.419 . S
C345 C346 1.362 . S
C346 H338 0.930 . S
C346 C345 1.362 . S
C346 C349 1.409 . S
C347 H339 0.930 . S
C347 C348 1.355 . S
C347 C349 1.415 . S
C348 C347 1.355 . S
C348 C350 1.419 . S
C349 C344 1.425 . S
C349 C346 1.409 . S
C349 C347 1.415 . S
C350 H340 0.930 . S
C350 C348 1.419 . S
C350 C351 1.362 . S
C351 H341 0.930 . S
C351 C344 1.409 . S
C351 C350 1.362 . S
C167 C99 3.624 1_554 S
C172 C9 3.624 1_556 S
C183 C89 3.604 . S
C188 C19 3.604 . S
C199 C45 0.248 . S
C204 C135 0.248 . S
C215 C55 0.460 . S
C220 C125 0.460 . S
C231 C5 1.086 . S
C236 C15 1.086 . S
C247 C49 4.818 . S
C252 C59 4.818 . S
C263 C85 0.979 . S
C268 C95 0.979 . S
C279 C139 4.817 . S
C284 C129 4.817 . S
C295 C58 1.409 1_655 S
C300 C8 1.422 1_655 S
C311 C18 1.424 1_545 S
C316 C48 1.460 1_565 S
C327 C138 1.463 . S
C332 C88 1.426 . S
C343 C128 1.477 . S
C348 C98 1.452 . S
