# Generated by pormake.
# Topology zfa, (5)-cn, num edge types: 1
# Building blocks:
#     Node 0, Type 0, BuildingBlock: XOMCOT_clean_sbu_1, # of connection points: 5
#     Node 1, Type 0, BuildingBlock: XOMCOT_clean_sbu_1, # of connection points: 5
#     Node 2, Type 0, BuildingBlock: XOMCOT_clean_sbu_1, # of connection points: 5
#     Node 3, Type 0, BuildingBlock: XOMCOT_clean_sbu_1, # of connection points: 5
#     Node 4, Type 0, BuildingBlock: XOMCOT_clean_sbu_1, # of connection points: 5
#     Node 5, Type 0, BuildingBlock: XOMCOT_clean_sbu_1, # of connection points: 5
#     Node 6, Type 0, BuildingBlock: XOMCOT_clean_sbu_1, # of connection points: 5
#     Node 7, Type 0, BuildingBlock: XOMCOT_clean_sbu_1, # of connection points: 5
#     Edge 8, Type (0, 0), BuildingBlock: CIFDUS_clean_linker_0, # of connection points: 2
#     Edge 9, Type (0, 0), BuildingBlock: CIFDUS_clean_linker_0, # of connection points: 2
#     Edge 10, Type (0, 0), BuildingBlock: CIFDUS_clean_linker_0, # of connection points: 2
#     Edge 11, Type (0, 0), BuildingBlock: CIFDUS_clean_linker_0, # of connection points: 2
#     Edge 12, Type (0, 0), BuildingBlock: CIFDUS_clean_linker_0, # of connection points: 2
#     Edge 13, Type (0, 0), BuildingBlock: CIFDUS_clean_linker_0, # of connection points: 2
#     Edge 14, Type (0, 0), BuildingBlock: CIFDUS_clean_linker_0, # of connection points: 2
#     Edge 15, Type (0, 0), BuildingBlock: CIFDUS_clean_linker_0, # of connection points: 2
#     Edge 16, Type (0, 0), BuildingBlock: CIFDUS_clean_linker_0, # of connection points: 2
#     Edge 17, Type (0, 0), BuildingBlock: CIFDUS_clean_linker_0, # of connection points: 2
#     Edge 18, Type (0, 0), BuildingBlock: CIFDUS_clean_linker_0, # of connection points: 2
#     Edge 19, Type (0, 0), BuildingBlock: CIFDUS_clean_linker_0, # of connection points: 2
#     Edge 20, Type (0, 0), BuildingBlock: CIFDUS_clean_linker_0, # of connection points: 2
#     Edge 21, Type (0, 0), BuildingBlock: CIFDUS_clean_linker_0, # of connection points: 2
#     Edge 22, Type (0, 0), BuildingBlock: CIFDUS_clean_linker_0, # of connection points: 2
#     Edge 23, Type (0, 0), BuildingBlock: CIFDUS_clean_linker_0, # of connection points: 2
#     Edge 24, Type (0, 0), BuildingBlock: CIFDUS_clean_linker_0, # of connection points: 2
#     Edge 25, Type (0, 0), BuildingBlock: CIFDUS_clean_linker_0, # of connection points: 2
#     Edge 26, Type (0, 0), BuildingBlock: CIFDUS_clean_linker_0, # of connection points: 2
#     Edge 27, Type (0, 0), BuildingBlock: CIFDUS_clean_linker_0, # of connection points: 2
# Relax obj value: 0.204
# Max RMSD: 0.175
# Mean RMSD: 0.175
data_MOF--net-zfa--node1-XOMCOT_clean_sbu_1--edge1-CIFDUS_clean_linker_0
_symmetry_space_group_name_H-M    P1
_symmetry_Int_Tables_number       1
_symmetry_cell_setting            triclinic
loop_
_symmetry_equiv_pos_as_xyz
'x, y, z'
_cell_length_a     28.167501
_cell_length_b     28.076802
_cell_length_c     35.446935
_cell_angle_alpha  90.590064
_cell_angle_beta   89.596447
_cell_angle_gamma 89.756585
loop_
_atom_site_label
_atom_site_type_symbol
_atom_site_fract_x
_atom_site_fract_y
_atom_site_fract_z
_atom_type_partial_charge
C0 C 0.13225 0.20228 0.31826 0.0
C1 C 0.11578 0.1586 0.30679 0.0
N2 N 0.08572 0.1422 0.33336 0.0
N3 N 0.11354 0.21343 0.35235 0.0
C4 C 0.08538 0.17599 0.36092 0.0
H5 H 0.1546 0.22553 0.30179 0.0
Co6 Co 0.11698 0.27398 0.37546 0.0
C7 C 0.15504 0.24926 0.45168 0.0
O8 O 0.18821 0.2814 0.44782 0.0
N9 N 0.11877 0.33719 0.39756 0.0
C10 C 0.14338 0.40919 0.41638 0.0
C11 C 0.1567 0.36294 0.40904 0.0
C12 C 0.08272 0.36971 0.39824 0.0
N13 N 0.09681 0.41372 0.4092 0.0
O14 O 0.05004 0.27284 0.38108 0.0
H15 H 0.19303 0.35061 0.40931 0.0
H16 H 0.04727 0.36249 0.38843 0.0
O17 O 0.12471 0.24317 0.42531 0.0
C18 C 0.03416 0.28354 0.34867 0.0
O19 O 0.06464 0.29742 0.32278 0.0
N20 N 0.18243 0.27495 0.36513 0.0
C21 C 0.27199 0.27021 0.33078 0.0
C22 C 0.25761 0.23568 0.35695 0.0
C23 C 0.21266 0.23857 0.3737 0.0
C24 C 0.19545 0.30839 0.33945 0.0
C25 C 0.24035 0.30737 0.32265 0.0
H26 H 0.20093 0.2097 0.39133 0.0
H27 H 0.17011 0.33523 0.33098 0.0
H28 H 0.06234 0.17527 0.38548 0.0
H29 H 0.12405 0.14115 0.28018 0.0
H30 H 0.16686 0.43779 0.42468 0.0
H31 H 0.27983 0.20525 0.36314 0.0
H32 H 0.24964 0.335 0.30289 0.0
C33 C 0.32734 0.63169 0.82929 0.0
C34 C 0.37231 0.61326 0.82381 0.0
N35 N 0.37911 0.5789 0.84939 0.0
N36 N 0.30646 0.6094 0.8586 0.0
C37 C 0.33906 0.57751 0.87022 0.0
H38 H 0.31032 0.65813 0.81196 0.0
Co39 Co 0.2439 0.61375 0.87597 0.0
C40 C 0.25773 0.64454 0.95665 0.0
O41 O 0.22193 0.67428 0.95452 0.0
N42 N 0.1791 0.61717 0.893 0.0
C43 C 0.10645 0.64351 0.90826 0.0
C44 C 0.15264 0.65624 0.90173 0.0
C45 C 0.14715 0.58107 0.89425 0.0
N46 N 0.10281 0.59618 0.90325 0.0
O47 O 0.24251 0.54567 0.87837 0.0
H48 H 0.16532 0.69248 0.9026 0.0
H49 H 0.1554 0.54452 0.88692 0.0
O50 O 0.26857 0.61823 0.92812 0.0
C51 C 0.23694 0.53036 0.84469 0.0
O52 O 0.22852 0.5617 0.81821 0.0
N53 N 0.24577 0.67962 0.86887 0.0
C54 C 0.24859 0.77391 0.84524 0.0
C55 C 0.27803 0.75818 0.87447 0.0
C56 C 0.27663 0.71059 0.88551 0.0
C57 C 0.21852 0.6938 0.83936 0.0
C58 C 0.21873 0.74092 0.82751 0.0
H59 H 0.3017 0.6984 0.90622 0.0
H60 H 0.19634 0.6681 0.825 0.0
H61 H 0.3328 0.55223 0.89257 0.0
H62 H 0.39693 0.6223 0.80144 0.0
H63 H 0.07761 0.66757 0.9155 0.0
H64 H 0.30296 0.78208 0.88793 0.0
H65 H 0.19555 0.75136 0.80477 0.0
C66 C 0.88888 0.84771 0.3213 0.0
C67 C 0.90366 0.89382 0.31545 0.0
N68 N 0.92947 0.90803 0.34544 0.0
N69 N 0.90504 0.83299 0.35491 0.0
C70 C 0.92946 0.87046 0.36895 0.0
H71 H 0.86891 0.82585 0.30181 0.0
Co72 Co 0.90206 0.77218 0.37557 0.0
C73 C 0.90676 0.7977 0.45733 0.0
O74 O 0.94224 0.76828 0.46333 0.0
N75 N 0.89998 0.71065 0.3966 0.0
C76 C 0.88001 0.64698 0.43007 0.0
C77 C 0.86848 0.69354 0.42188 0.0
C78 C 0.93002 0.67371 0.38976 0.0
N79 N 0.919 0.63463 0.40993 0.0
O80 O 0.96897 0.7744 0.38258 0.0
H81 H 0.83917 0.71378 0.43384 0.0
H82 H 0.95935 0.67504 0.37004 0.0
O83 O 0.88938 0.80109 0.42441 0.0
C84 C 0.98748 0.76203 0.35108 0.0
O85 O 0.95926 0.74873 0.32354 0.0
N86 N 0.83712 0.7694 0.36524 0.0
C87 C 0.74333 0.76533 0.34086 0.0
C88 C 0.75747 0.79956 0.3676 0.0
C89 C 0.80464 0.80128 0.37921 0.0
C90 C 0.82428 0.73618 0.33896 0.0
C91 C 0.77743 0.73342 0.32639 0.0
H92 H 0.81519 0.82924 0.39841 0.0
H93 H 0.85078 0.71209 0.32733 0.0
H94 H 0.94908 0.86913 0.39505 0.0
H95 H 0.89665 0.9148 0.29066 0.0
H96 H 0.86171 0.6244 0.44995 0.0
H97 H 0.7325 0.82561 0.37882 0.0
H98 H 0.76798 0.70643 0.30575 0.0
C99 C 0.66977 0.37586 0.83615 0.0
C100 C 0.625 0.39346 0.82892 0.0
N101 N 0.61664 0.42994 0.85293 0.0
N102 N 0.68907 0.40103 0.86487 0.0
C103 C 0.65551 0.43345 0.87454 0.0
H104 H 0.6875 0.34777 0.8204 0.0
Co105 Co 0.75002 0.39882 0.8855 0.0
C106 C 0.72838 0.40561 0.96834 0.0
O107 O 0.76584 0.43157 0.97599 0.0
N108 N 0.81112 0.39683 0.90603 0.0
C109 C 0.87641 0.37799 0.93768 0.0
C110 C 0.82975 0.36605 0.93099 0.0
C111 C 0.8472 0.42645 0.89758 0.0
N112 N 0.8872 0.41625 0.9167 0.0
O113 O 0.74958 0.46703 0.88923 0.0
H114 H 0.8105 0.33712 0.94387 0.0
H115 H 0.84449 0.45474 0.8773 0.0
O116 O 0.72023 0.39217 0.93461 0.0
C117 C 0.75713 0.48201 0.85588 0.0
O118 O 0.76654 0.45033 0.82924 0.0
N119 N 0.75198 0.3334 0.87805 0.0
C120 C 0.75053 0.23997 0.85097 0.0
C121 C 0.72906 0.25216 0.88578 0.0
C122 C 0.7295 0.29934 0.8986 0.0
C123 C 0.77571 0.32186 0.84566 0.0
C124 C 0.77491 0.27557 0.83129 0.0
H125 H 0.71064 0.30834 0.92433 0.0
H126 H 0.79295 0.3496 0.82972 0.0
H127 H 0.66004 0.46037 0.89629 0.0
H128 H 0.60156 0.38215 0.8065 0.0
H129 H 0.90013 0.36048 0.95708 0.0
H130 H 0.71102 0.22583 0.90267 0.0
H131 H 0.79142 0.26861 0.80413 0.0
C132 C 0.63501 0.33007 0.27993 0.0
C133 C 0.61562 0.37471 0.28624 0.0
N134 N 0.58304 0.38255 0.25938 0.0
N135 N 0.61505 0.31064 0.2489 0.0
C136 C 0.58379 0.34357 0.23704 0.0
H137 H 0.66036 0.31212 0.2977 0.0
Co138 Co 0.61958 0.24901 0.22925 0.0
C139 C 0.60619 0.28471 0.14832 0.0
O140 O 0.5603 0.27786 0.14511 0.0
N141 N 0.62307 0.18714 0.209 0.0
C142 C 0.64178 0.12294 0.1745 0.0
C143 C 0.65312 0.16978 0.18229 0.0
C144 C 0.59404 0.15038 0.21692 0.0
N145 N 0.60428 0.11119 0.19617 0.0
O146 O 0.55152 0.24694 0.2277 0.0
H147 H 0.68094 0.19013 0.1689 0.0
H148 H 0.56551 0.15198 0.23739 0.0
O149 O 0.62713 0.27441 0.17893 0.0
C150 C 0.54124 0.23707 0.26193 0.0
O151 O 0.57646 0.2281 0.28503 0.0
N152 N 0.68508 0.25025 0.23515 0.0
C153 C 0.78019 0.25484 0.25483 0.0
C154 C 0.76033 0.28905 0.23105 0.0
C155 C 0.71248 0.28643 0.22189 0.0
C156 C 0.70367 0.2167 0.25836 0.0
C157 C 0.7514 0.21813 0.26841 0.0
H158 H 0.69686 0.315 0.20596 0.0
H159 H 0.68099 0.18939 0.2699 0.0
H160 H 0.56026 0.33814 0.21339 0.0
H161 H 0.62277 0.39826 0.30988 0.0
H162 H 0.65865 0.09991 0.15366 0.0
H163 H 0.78107 0.31879 0.22096 0.0
H164 H 0.76547 0.19118 0.28695 0.0
C165 C 0.17639 0.14903 0.76555 0.0
C166 C 0.13146 0.13591 0.77655 0.0
N167 N 0.11887 0.09719 0.75632 0.0
N168 N 0.19218 0.11917 0.73804 0.0
C169 C 0.15602 0.08819 0.73298 0.0
H170 H 0.19718 0.17675 0.77874 0.0
Co171 Co 0.25528 0.11311 0.72 0.0
C172 C 0.20894 0.10625 0.64175 0.0
O173 O 0.1835 0.06767 0.64644 0.0
N174 N 0.31829 0.10621 0.70254 0.0
C175 C 0.38731 0.11585 0.67252 0.0
C176 C 0.34272 0.13486 0.67904 0.0
C177 C 0.34882 0.07014 0.70982 0.0
N178 N 0.39082 0.07488 0.69173 0.0
O179 O 0.24782 0.04551 0.71773 0.0
H180 H 0.3289 0.16732 0.6671 0.0
H181 H 0.34076 0.04071 0.72812 0.0
O182 O 0.23514 0.12184 0.66833 0.0
C183 C 0.25209 0.03108 0.75156 0.0
O184 O 0.26098 0.06289 0.77805 0.0
N185 N 0.26356 0.17898 0.72558 0.0
C186 C 0.26831 0.27457 0.74722 0.0
C187 C 0.23961 0.26012 0.71702 0.0
C188 C 0.23744 0.21212 0.70676 0.0
C189 C 0.29281 0.19241 0.75421 0.0
C190 C 0.29571 0.24013 0.76557 0.0
H191 H 0.21253 0.20155 0.68528 0.0
H192 H 0.31244 0.16558 0.76935 0.0
H193 H 0.15856 0.05686 0.71514 0.0
H194 H 0.11071 0.15232 0.799 0.0
H195 H 0.41451 0.13035 0.65429 0.0
H196 H 0.21711 0.28536 0.70259 0.0
H197 H 0.31849 0.24983 0.78887 0.0
C198 C 0.36958 0.66563 0.25153 0.0
C199 C 0.38705 0.62101 0.25934 0.0
N200 N 0.43242 0.61915 0.24761 0.0
N201 N 0.40366 0.69191 0.23446 0.0
C202 C 0.44144 0.66194 0.23249 0.0
H203 H 0.33439 0.67783 0.25909 0.0
Co204 Co 0.40257 0.75724 0.22009 0.0
C205 C 0.40502 0.70906 0.14293 0.0
O206 O 0.43932 0.67885 0.15032 0.0
N207 N 0.40159 0.82149 0.20588 0.0
C208 C 0.38106 0.89028 0.17969 0.0
C209 C 0.36859 0.84341 0.18457 0.0
C210 C 0.43384 0.85582 0.21337 0.0
N211 N 0.42229 0.89778 0.19764 0.0
O212 O 0.47043 0.75627 0.21431 0.0
H213 H 0.33763 0.82638 0.17284 0.0
H214 H 0.46529 0.85061 0.23009 0.0
O215 O 0.39154 0.73939 0.16788 0.0
C216 C 0.48585 0.76206 0.24786 0.0
O217 O 0.45445 0.76858 0.27508 0.0
N218 N 0.33743 0.76021 0.2299 0.0
C219 C 0.2451 0.75685 0.25851 0.0
C220 C 0.25508 0.74304 0.221 0.0
C221 C 0.30162 0.74437 0.20733 0.0
C222 C 0.32808 0.77675 0.26543 0.0
C223 C 0.28228 0.77494 0.28049 0.0
H224 H 0.30862 0.73105 0.17921 0.0
H225 H 0.35699 0.78899 0.28289 0.0
H226 H 0.47542 0.67087 0.2202 0.0
H227 H 0.36843 0.5928 0.27378 0.0
H228 H 0.362 0.91647 0.1634 0.0
H229 H 0.22743 0.73012 0.20253 0.0
H230 H 0.27673 0.7856 0.30962 0.0
C231 C 0.83995 0.88393 0.78484 0.0
C232 C 0.88614 0.89853 0.79048 0.0
N233 N 0.90176 0.91925 0.7586 0.0
N234 N 0.82677 0.89575 0.74966 0.0
C235 C 0.86523 0.91679 0.73438 0.0
H236 H 0.81652 0.86873 0.80576 0.0
Co237 Co 0.76617 0.89746 0.72939 0.0
C238 C 0.79091 0.90407 0.64748 0.0
O239 O 0.76276 0.94075 0.64205 0.0
N240 N 0.70463 0.90041 0.7087 0.0
C241 C 0.63796 0.88625 0.67695 0.0
C242 C 0.68268 0.86914 0.6855 0.0
C243 C 0.67259 0.93599 0.71373 0.0
N244 N 0.63209 0.92857 0.69459 0.0
O245 O 0.77269 0.96461 0.72468 0.0
H246 H 0.69837 0.83628 0.67509 0.0
H247 H 0.67829 0.96709 0.73118 0.0
O248 O 0.79352 0.88552 0.68001 0.0
C249 C 0.76251 0.98204 0.75706 0.0
O250 O 0.74768 0.95322 0.78363 0.0
N251 N 0.7597 0.83234 0.7377 0.0
C252 C 0.75237 0.73816 0.76087 0.0
C253 C 0.78558 0.75114 0.73317 0.0
C254 C 0.78901 0.79853 0.72221 0.0
C255 C 0.72722 0.82054 0.76467 0.0
C256 C 0.72286 0.77351 0.77667 0.0
H257 H 0.81647 0.8081 0.7024 0.0
H258 H 0.70528 0.84807 0.77748 0.0
H259 H 0.86499 0.93399 0.70719 0.0
H260 H 0.90583 0.89617 0.81651 0.0
H261 H 0.61238 0.8696 0.65844 0.0
H262 H 0.80984 0.72513 0.72093 0.0
H263 H 0.69678 0.76493 0.79812 0.0
H264 H 0.01271 0.62086 0.39742 0.0
H265 H 0.88324 0.54703 0.42462 0.0
H266 H 0.9267 0.47144 0.42668 0.0
H267 H 1.00222 0.42608 0.42097 0.0
H268 H 0.13098 0.50137 0.39371 0.0
H269 H 0.08722 0.57612 0.39137 0.0
C270 C 0.99382 0.58823 0.4034 0.0
C271 C 0.94463 0.58982 0.41071 0.0
C272 C 0.01908 0.54493 0.40471 0.0
C273 C 0.92109 0.54707 0.41919 0.0
C274 C 0.94594 0.50373 0.42022 0.0
C275 C 0.02059 0.45882 0.41437 0.0
C276 C 0.07004 0.45785 0.40786 0.0
C277 C 0.99504 0.50217 0.41308 0.0
C278 C 0.09326 0.50086 0.39959 0.0
C279 C 0.06814 0.54377 0.39796 0.0
H280 H 0.89835 0.50905 0.90068 0.0
H281 H 0.97575 0.38242 0.93102 0.0
H282 H 0.05021 0.42702 0.92952 0.0
H283 H 0.09328 0.5026 0.91957 0.0
H284 H 0.01437 0.62789 0.88782 0.0
H285 H 0.94076 0.58312 0.88967 0.0
C286 C 0.93148 0.4909 0.90649 0.0
C287 C 0.93131 0.4423 0.91573 0.0
C288 C 0.97402 0.51666 0.90545 0.0
C289 C 0.97468 0.41985 0.92411 0.0
C290 C 0.01734 0.44531 0.92307 0.0
C291 C 0.06003 0.51995 0.9128 0.0
C292 C 0.05954 0.56875 0.90388 0.0
C293 C 0.01745 0.4938 0.91376 0.0
C294 C 0.01593 0.59074 0.89552 0.0
C295 C 0.97371 0.56505 0.8963 0.0
H296 H 0.51722 0.90556 0.19288 0.0
H297 H 0.38785 0.9871 0.20384 0.0
H298 H 0.43335 0.06118 0.20486 0.0
H299 H 0.50985 0.10254 0.20221 0.0
H300 H 0.63931 0.02188 0.18823 0.0
H301 H 0.59406 0.94739 0.18856 0.0
C302 C 0.4992 0.93961 0.19577 0.0
C303 C 0.44937 0.94108 0.19853 0.0
C304 C 0.52558 0.98198 0.1956 0.0
C305 C 0.42617 0.98531 0.20152 0.0
C306 C 0.45216 0.02754 0.2022 0.0
C307 C 0.52811 0.06859 0.19952 0.0
C308 C 0.5778 0.06748 0.19555 0.0
C309 C 0.50183 0.02628 0.19921 0.0
C310 C 0.60105 0.02343 0.1912 0.0
C311 C 0.57522 0.98097 0.19155 0.0
H312 H 0.53904 0.90626 0.69373 0.0
H313 H 0.63629 0.02417 0.69058 0.0
H314 H 0.56989 0.08036 0.6885 0.0
H315 H 0.48385 0.09623 0.68867 0.0
H316 H 0.3862 0.97884 0.69484 0.0
H317 H 0.45256 0.92234 0.69481 0.0
C318 C 0.54548 0.94424 0.6923 0.0
C319 C 0.59244 0.96106 0.69226 0.0
C320 C 0.50698 0.97646 0.69185 0.0
C321 C 0.60044 0.01042 0.69094 0.0
C322 C 0.56249 0.04255 0.68964 0.0
C323 C 0.47721 0.05827 0.68976 0.0
C324 C 0.4302 0.04179 0.69172 0.0
C325 C 0.51559 0.02603 0.69027 0.0
C326 C 0.42207 0.99247 0.6937 0.0
C327 C 0.46001 0.96013 0.69348 0.0
H328 H 0.45866 0.26835 0.22882 0.0
H329 H 0.51414 0.20584 0.33041 0.0
H330 H 0.4369 0.21162 0.3604 0.0
H331 H 0.35482 0.23728 0.35962 0.0
H332 H 0.29534 0.29473 0.25771 0.0
H333 H 0.37287 0.28927 0.22671 0.0
C334 C 0.45355 0.25552 0.25731 0.0
C335 C 0.49231 0.237 0.27729 0.0
C336 C 0.40847 0.25873 0.27475 0.0
C337 C 0.48516 0.22063 0.3143 0.0
C338 C 0.4409 0.22393 0.33167 0.0
C339 C 0.3583 0.24785 0.33041 0.0
C340 C 0.31902 0.26655 0.31132 0.0
C341 C 0.40249 0.24336 0.31237 0.0
C342 C 0.32501 0.28108 0.27362 0.0
C343 C 0.36933 0.27752 0.25562 0.0
H344 H 0.25305 0.99559 0.8217 0.0
H345 H 0.24456 0.95272 0.70467 0.0
H346 H 0.24272 0.86882 0.72341 0.0
H347 H 0.24549 0.80812 0.77334 0.0
H348 H 0.25287 0.85306 0.89006 0.0
H349 H 0.25409 0.93614 0.87092 0.0
C350 C 0.25078 0.96802 0.80013 0.0
C351 C 0.24912 0.98033 0.76181 0.0
C352 C 0.24994 0.92035 0.81108 0.0
C353 C 0.24586 0.94411 0.73436 0.0
C354 C 0.24493 0.89622 0.74508 0.0
C355 C 0.24689 0.83612 0.7946 0.0
C356 C 0.24926 0.82434 0.83312 0.0
C357 C 0.24716 0.88397 0.78339 0.0
C358 C 0.25178 0.86105 0.86025 0.0
C359 C 0.25214 0.90857 0.84935 0.0
H360 H 0.5225 0.768 0.31746 0.0
H361 H 0.56377 0.75191 0.20054 0.0
H362 H 0.64772 0.75001 0.21904 0.0
H363 H 0.70913 0.75488 0.26903 0.0
H364 H 0.66475 0.77069 0.38536 0.0
H365 H 0.58189 0.77088 0.36632 0.0
C366 C 0.54967 0.76409 0.29579 0.0
C367 C 0.53686 0.76038 0.2576 0.0
C368 C 0.59727 0.76306 0.30661 0.0
C369 C 0.57271 0.75503 0.23012 0.0
C370 C 0.62064 0.75391 0.24073 0.0
C371 C 0.68122 0.7579 0.29016 0.0
C372 C 0.6931 0.76313 0.32858 0.0
C373 C 0.63333 0.75808 0.27896 0.0
C374 C 0.65661 0.76739 0.35562 0.0
C375 C 0.60922 0.7673 0.34478 0.0
H376 H 0.8133 0.19072 0.80516 0.0
H377 H 0.67483 0.17964 0.85794 0.0
H378 H 0.6659 0.10005 0.83178 0.0
H379 H 0.69787 0.03261 0.79563 0.0
H380 H 0.83259 0.04459 0.73834 0.0
H381 H 0.84148 0.12618 0.76305 0.0
C382 C 0.78072 0.17148 0.81051 0.0
C383 C 0.74525 0.19135 0.83428 0.0
C384 C 0.77481 0.1262 0.79408 0.0
C385 C 0.70364 0.16506 0.84102 0.0
C386 C 0.69806 0.11965 0.82557 0.0
C387 C 0.72883 0.05349 0.78815 0.0
C388 C 0.76461 0.03316 0.76544 0.0
C389 C 0.73352 0.09982 0.80238 0.0
C390 C 0.80446 0.06013 0.75554 0.0
C391 C 0.8097 0.10639 0.76999 0.0
H392 H 0.99742 0.29054 0.2793 0.0
H393 H 0.95885 0.26053 0.39469 0.0
H394 H 0.87638 0.24736 0.37548 0.0
H395 H 0.81557 0.2456 0.32559 0.0
H396 H 0.85651 0.27423 0.21046 0.0
H397 H 0.93836 0.28676 0.23003 0.0
C398 C 0.97106 0.28135 0.30043 0.0
C399 C 0.98405 0.27688 0.33842 0.0
C400 C 0.92437 0.27342 0.28917 0.0
C401 C 0.94954 0.26442 0.36528 0.0
C402 C 0.90253 0.25678 0.35429 0.0
C403 C 0.84261 0.25395 0.30479 0.0
C404 C 0.83015 0.25911 0.26666 0.0
C405 C 0.88961 0.26116 0.31626 0.0
C406 C 0.86526 0.27059 0.24001 0.0
C407 C 0.91199 0.27766 0.25115 0.0
H408 H 0.24877 0.49544 0.77431 0.0
H409 H 0.24303 0.45205 0.89066 0.0
H410 H 0.25486 0.36872 0.87087 0.0
H411 H 0.26359 0.30824 0.81982 0.0
H412 H 0.27062 0.35406 0.70401 0.0
H413 H 0.26149 0.43677 0.72442 0.0
C414 C 0.24991 0.46786 0.79549 0.0
C415 C 0.24436 0.47983 0.8339 0.0
C416 C 0.25702 0.42055 0.78396 0.0
C417 C 0.24684 0.44366 0.8609 0.0
C418 C 0.25366 0.3961 0.84957 0.0
C419 C 0.26388 0.33643 0.79913 0.0
C420 C 0.26744 0.32496 0.76038 0.0
C421 C 0.25849 0.38411 0.8111 0.0
C422 C 0.26724 0.36185 0.73391 0.0
C423 C 0.26213 0.40915 0.74556 0.0
H424 H 0.03692 0.70174 0.30712 0.0
H425 H 0.05214 0.82628 0.37797 0.0
H426 H 0.13435 0.83577 0.35573 0.0
H427 H 0.19874 0.8122 0.31168 0.0
H428 H 0.18317 0.68446 0.24373 0.0
H429 H 0.10351 0.67355 0.26858 0.0
C430 C 0.05854 0.7306 0.31805 0.0
C431 C 0.03884 0.76344 0.34386 0.0
C432 C 0.10515 0.73585 0.30502 0.0
C433 C 0.06698 0.8004 0.35825 0.0
C434 C 0.11367 0.80606 0.34524 0.0
C435 C 0.17834 0.78154 0.30267 0.0
C436 C 0.19691 0.74987 0.27508 0.0
C437 C 0.13274 0.77455 0.31793 0.0
C438 C 0.16949 0.7105 0.26379 0.0
C439 C 0.12402 0.70377 0.27837 0.0
H440 H 0.74608 0.70513 0.83306 0.0
H441 H 0.75251 0.65874 0.71662 0.0
H442 H 0.75389 0.57586 0.73626 0.0
H443 H 0.75589 0.51711 0.78575 0.0
H444 H 0.74906 0.56077 0.90274 0.0
H445 H 0.74471 0.64455 0.8836 0.0
C446 C 0.74716 0.67678 0.81205 0.0
C447 C 0.74957 0.68803 0.77341 0.0
C448 C 0.74812 0.62898 0.82359 0.0
C449 C 0.75136 0.65101 0.74649 0.0
C450 C 0.75201 0.60365 0.75768 0.0
C451 C 0.75354 0.54481 0.80725 0.0
C452 C 0.75333 0.53278 0.84565 0.0
C453 C 0.75102 0.59233 0.79608 0.0
C454 C 0.74954 0.56918 0.87299 0.0
C455 C 0.74705 0.61699 0.86203 0.0
H456 H 0.2179 0.25327 0.50882 0.0
H457 H 0.09701 0.17336 0.46972 0.0
H458 H 0.10353 0.12075 0.52443 0.0
H459 H 0.14409 0.0979 0.58397 0.0
H460 H 0.26508 0.17982 0.62072 0.0
H461 H 0.25807 0.23069 0.56617 0.0
C462 C 0.19273 0.22444 0.51206 0.0
C463 C 0.15688 0.21753 0.48509 0.0
C464 C 0.19691 0.19438 0.54322 0.0
C465 C 0.12485 0.17976 0.49006 0.0
C466 C 0.12868 0.14956 0.52131 0.0
C467 C 0.1691 0.12665 0.57986 0.0
C468 C 0.20513 0.13478 0.60668 0.0
C469 C 0.16471 0.15647 0.54813 0.0
C470 C 0.23698 0.17251 0.60085 0.0
C471 C 0.23299 0.20184 0.56957 0.0
H472 H 0.40862 0.63772 0.08901 0.0
H473 H 0.33834 0.77065 0.11698 0.0
H474 H 0.28654 0.76128 0.06297 0.0
H475 H 0.25935 0.71519 1.00897 0.0
H476 H 0.32964 0.58359 0.9779 0.0
H477 H 0.38308 0.59257 1.03194 0.0
C478 C 0.38229 0.66485 0.08307 0.0
C479 C 0.37731 0.70469 0.10745 0.0
C480 C 0.35224 0.65929 0.05159 0.0
C481 C 0.34291 0.73943 0.09913 0.0
C482 C 0.31309 0.73411 0.06817 0.0
C483 C 0.28612 0.68815 1.01399 0.0
C484 C 0.28996 0.64839 0.98961 0.0
C485 C 0.31702 0.69398 1.04454 0.0
C486 C 0.32559 0.61435 0.99635 0.0
C487 C 0.35623 0.61957 1.02721 0.0
H488 H 0.78365 0.92174 0.57194 0.0
H489 H 0.86293 0.8391 0.65211 0.0
H490 H 0.90657 0.80005 0.6009 0.0
H491 H 0.92048 0.78677 0.53302 0.0
H492 H 0.84266 0.87068 0.45281 0.0
H493 H 0.80079 0.91164 0.50409 0.0
C494 C 0.81065 0.89539 0.57823 0.0
C495 C 0.81922 0.88289 0.61592 0.0
C496 C 0.83598 0.87301 0.54851 0.0
C497 C 0.85466 0.8488 0.62343 0.0
C498 C 0.87995 0.82653 0.5941 0.0
C499 C 0.89463 0.81425 0.52674 0.0
C500 C 0.88432 0.82494 0.48898 0.0
C501 C 0.87057 0.83791 0.55649 0.0
C502 C 0.85077 0.86089 0.4815 0.0
C503 C 0.82684 0.88459 0.51088 0.0
H504 H 0.57503 0.32259 0.08136 0.0
H505 H 0.70254 0.2916 0.14347 0.0
H506 H 0.75037 0.33035 0.09586 0.0
H507 H 0.75718 0.37239 1.03579 0.0
H508 H 0.63227 0.3949 0.96882 0.0
H509 H 0.58258 0.36029 1.01856 0.0
C510 C 0.61326 0.32427 0.08445 0.0
C511 C 0.63469 0.30556 0.11697 0.0
C512 C 0.64123 0.34528 0.0559 0.0
C513 C 0.68451 0.30735 0.11987 0.0
C514 C 0.7122 0.32917 0.0923 0.0
C515 C 0.719 0.37019 1.03235 0.0
C516 C 0.69824 0.38693 0.99913 0.0
C517 C 0.69101 0.34856 0.06033 0.0
C518 C 0.64892 0.3826 0.99443 0.0
C519 C 0.62056 0.3627 1.0228 0.0
H520 H 0.96284 0.96418 0.28999 0.0
H521 H 0.95608 0.95087 0.411 0.0
H522 H 1.00378 0.0229 0.41833 0.0
H523 H 0.04911 0.08921 0.39003 0.0
H524 H 0.05364 0.10181 0.26881 0.0
H525 H 1.00514 0.03097 0.26206 0.0
C526 C 0.97111 0.97727 0.31801 0.0
C527 C 0.95575 0.95189 0.34984 0.0
C528 C 0.99858 0.01866 0.32204 0.0
C529 C 0.96781 0.96922 0.38593 0.0
C530 C 0.99497 0.0106 0.39017 0.0
C531 C 0.03918 0.0766 0.3622 0.0
C532 C 0.05573 0.1007 0.33003 0.0
C533 C 0.01086 0.03552 0.35839 0.0
C534 C 0.04258 0.08361 0.29412 0.0
C535 C 0.01441 0.04316 0.29016 0.0
H536 H 0.47161 0.5996 0.84793 0.0
H537 H 0.37242 0.48363 0.853 0.0
H538 H 0.438 0.42599 0.85326 0.0
H539 H 0.52414 0.4089 0.85205 0.0
H540 H 0.62316 0.52521 0.85183 0.0
H541 H 0.55759 0.5827 0.84965 0.0
C542 C 0.46473 0.56167 0.84907 0.0
C543 C 0.41774 0.54556 0.85041 0.0
C544 C 0.50254 0.52903 0.85009 0.0
C545 C 0.40861 0.49651 0.85228 0.0
C546 C 0.44598 0.46369 0.85227 0.0
C547 C 0.53096 0.44687 0.85145 0.0
C548 C 0.57792 0.46313 0.85199 0.0
C549 C 0.49311 0.47954 0.85117 0.0
C550 C 0.58699 0.51226 0.85166 0.0
C551 C 0.54964 0.54498 0.8503 0.0
H552 H 0.41396 0.5259 0.24154 0.0
H553 H 0.52547 0.62661 0.26401 0.0
H554 H 0.58253 0.56147 0.27122 0.0
H555 H 0.60086 0.47539 0.27001 0.0
H556 H 0.4898 0.37524 0.24482 0.0
H557 H 0.43224 0.44025 0.24 0.0
C558 C 0.45069 0.53336 0.24827 0.0
C559 C 0.46562 0.58072 0.2522 0.0
C560 C 0.4833 0.49582 0.25182 0.0
C561 C 0.51341 0.59028 0.26044 0.0
C562 C 0.54593 0.55311 0.26474 0.0
C563 C 0.56397 0.46811 0.26371 0.0
C564 C 0.54943 0.42097 0.25763 0.0
C565 C 0.53132 0.50573 0.26033 0.0
C566 C 0.50172 0.41151 0.24912 0.0
C567 C 0.46884 0.44856 0.24652 0.0
H568 H 0.07722 0.03869 0.70571 0.0
H569 H 0.06932 0.08674 0.82162 0.0
H570 H 1.0025 0.03393 0.83306 0.0
H571 H 0.94553 0.97436 0.81012 0.0
H572 H 0.95264 0.9266 0.69434 0.0
H573 H 0.021 0.97822 0.683 0.0
C574 C 0.06108 0.03738 0.73352 0.0
C575 C 0.07831 0.06692 0.76264 0.0
C576 C 0.02271 1.00662 0.74003 0.0
C577 C 0.05645 0.06516 0.79843 0.0
C578 C 0.01842 0.03456 0.80515 0.0
C579 C 0.9626 0.97472 0.78263 0.0
C580 C 0.94441 0.9465 0.75317 0.0
C581 C 1.00128 1.0051 0.7762 0.0
C582 C 0.96612 0.9481 0.7174 0.0
C583 C 1.00508 0.97763 0.71092 0.0
loop_
_geom_bond_atom_site_label_1
_geom_bond_atom_site_label_2
_geom_bond_distance
_geom_bond_site_symmetry_2
_ccdc_geom_bond_type
C0 C1 1.351 . S
C0 N3 1.368 . S
C0 H5 0.931 . S
C1 C0 1.351 . S
C1 N2 1.373 . S
C1 H29 0.930 . S
N2 C1 1.373 . S
N2 C4 1.340 . S
N3 C0 1.368 . S
N3 C4 1.321 . S
N3 Co6 2.135 . S
C4 N2 1.340 . S
C4 N3 1.321 . S
C4 H28 0.930 . S
H5 C0 0.931 . S
Co6 N3 2.135 . S
Co6 N9 2.121 . S
Co6 O14 2.055 1_455 S
Co6 O17 2.039 . S
Co6 N20 2.140 . S
C7 O8 1.227 . S
C7 O17 1.265 . S
O8 C7 1.227 . S
N9 Co6 2.121 . S
N9 C11 1.375 . S
N9 C12 1.313 . S
C10 C11 1.338 . S
C10 N13 1.377 . S
C10 H30 0.930 . S
C11 N9 1.375 . S
C11 C10 1.338 . S
C11 H15 0.931 . S
C12 N9 1.313 . S
C12 N13 1.344 . S
C12 H16 0.934 . S
N13 C10 1.377 . S
N13 C12 1.344 . S
O14 Co6 2.055 1_655 S
O14 C18 1.253 . S
H15 C11 0.931 . S
H16 C12 0.934 . S
O17 Co6 2.039 . S
O17 C7 1.265 . S
C18 O14 1.253 . S
C18 O19 1.227 1_655 S
O19 C18 1.227 1_455 S
N20 Co6 2.140 . S
N20 C23 1.346 . S
N20 C24 1.345 . S
C21 C22 1.387 . S
C21 C25 1.391 . S
C22 C21 1.387 . S
C22 C23 1.369 . S
C22 H31 0.929 . S
C23 N20 1.346 . S
C23 C22 1.369 . S
C23 H26 0.928 . S
C24 N20 1.345 . S
C24 C25 1.371 . S
C24 H27 0.931 . S
C25 C21 1.391 . S
C25 C24 1.371 . S
C25 H32 0.930 . S
H26 C23 0.928 . S
H27 C24 0.931 . S
H28 C4 0.930 . S
H29 C1 0.930 . S
H30 C10 0.930 . S
H31 C22 0.929 . S
H32 C25 0.930 . S
C33 C34 1.351 . S
C33 N36 1.368 . S
C33 H38 0.931 . S
C34 C33 1.351 . S
C34 N35 1.373 . S
C34 H62 0.930 . S
N35 C34 1.373 . S
N35 C37 1.340 . S
N36 C33 1.368 . S
N36 C37 1.321 . S
N36 Co39 2.135 . S
C37 N35 1.340 . S
C37 N36 1.321 . S
C37 H61 0.930 . S
H38 C33 0.931 . S
Co39 N36 2.135 . S
Co39 N42 2.121 . S
Co39 O47 2.055 . S
Co39 O50 2.039 . S
Co39 N53 2.140 . S
C40 O41 1.227 . S
C40 O50 1.265 . S
O41 C40 1.227 . S
N42 Co39 2.121 . S
N42 C44 1.375 . S
N42 C45 1.313 . S
C43 C44 1.338 . S
C43 N46 1.377 . S
C43 H63 0.930 . S
C44 N42 1.375 . S
C44 C43 1.338 . S
C44 H48 0.931 . S
C45 N42 1.313 . S
C45 N46 1.344 . S
C45 H49 0.930 . S
N46 C43 1.377 . S
N46 C45 1.344 . S
O47 Co39 2.055 . S
O47 C51 1.253 . S
H48 C44 0.931 . S
H49 C45 0.930 . S
O50 Co39 2.039 . S
O50 C40 1.265 . S
C51 O47 1.253 . S
C51 O52 1.227 . S
O52 C51 1.227 . S
N53 Co39 2.140 . S
N53 C56 1.346 . S
N53 C57 1.345 . S
C54 C55 1.387 . S
C54 C58 1.391 . S
C55 C54 1.387 . S
C55 C56 1.369 . S
C55 H64 0.929 . S
C56 N53 1.346 . S
C56 C55 1.369 . S
C56 H59 0.928 . S
C57 N53 1.345 . S
C57 C58 1.371 . S
C57 H60 0.931 . S
C58 C54 1.391 . S
C58 C57 1.371 . S
C58 H65 0.930 . S
H59 C56 0.928 . S
H60 C57 0.931 . S
H61 C37 0.930 . S
H62 C34 0.930 . S
H63 C43 0.930 . S
H64 C55 0.929 . S
H65 C58 0.930 . S
C66 C67 1.351 . S
C66 N69 1.368 . S
C66 H71 0.931 . S
C67 C66 1.351 . S
C67 N68 1.373 . S
C67 H95 0.930 . S
N68 C67 1.373 . S
N68 C70 1.340 . S
N69 C66 1.368 . S
N69 C70 1.321 . S
N69 Co72 2.135 . S
C70 N68 1.340 . S
C70 N69 1.321 . S
C70 H94 0.930 . S
H71 C66 0.931 . S
Co72 N69 2.135 . S
Co72 N75 2.121 . S
Co72 O80 2.055 1_655 S
Co72 O83 2.039 . S
Co72 N86 2.140 . S
C73 O74 1.227 . S
C73 O83 1.265 . S
O74 C73 1.227 . S
N75 Co72 2.121 . S
N75 C77 1.375 . S
N75 C78 1.313 . S
C76 C77 1.338 . S
C76 N79 1.377 . S
C76 H96 0.930 . S
C77 N75 1.375 . S
C77 C76 1.338 . S
C77 H81 0.931 . S
C78 N75 1.313 . S
C78 N79 1.344 . S
C78 H82 0.934 . S
N79 C76 1.377 . S
N79 C78 1.344 . S
O80 Co72 2.055 1_455 S
O80 C84 1.253 . S
H81 C77 0.931 . S
H82 C78 0.934 . S
O83 Co72 2.039 . S
O83 C73 1.265 . S
C84 O80 1.253 . S
C84 O85 1.227 1_455 S
O85 C84 1.227 1_655 S
N86 Co72 2.140 . S
N86 C89 1.346 . S
N86 C90 1.345 . S
C87 C88 1.387 . S
C87 C91 1.391 . S
C88 C87 1.387 . S
C88 C89 1.369 . S
C88 H97 0.929 . S
C89 N86 1.346 . S
C89 C88 1.369 . S
C89 H92 0.928 . S
C90 N86 1.345 . S
C90 C91 1.371 . S
C90 H93 0.931 . S
C91 C87 1.391 . S
C91 C90 1.371 . S
C91 H98 0.930 . S
H92 C89 0.928 . S
H93 C90 0.931 . S
H94 C70 0.930 . S
H95 C67 0.930 . S
H96 C76 0.930 . S
H97 C88 0.929 . S
H98 C91 0.930 . S
C99 C100 1.351 . S
C99 N102 1.368 . S
C99 H104 0.931 . S
C100 C99 1.351 . S
C100 N101 1.373 . S
C100 H128 0.930 . S
N101 C100 1.373 . S
N101 C103 1.340 . S
N102 C99 1.368 . S
N102 C103 1.321 . S
N102 Co105 2.135 . S
C103 N101 1.340 . S
C103 N102 1.321 . S
C103 H127 0.930 . S
H104 C99 0.931 . S
Co105 N102 2.135 . S
Co105 N108 2.121 . S
Co105 O113 2.055 . S
Co105 O116 2.039 . S
Co105 N119 2.140 . S
C106 O107 1.227 . S
C106 O116 1.265 . S
O107 C106 1.227 . S
N108 Co105 2.121 . S
N108 C110 1.375 . S
N108 C111 1.313 . S
C109 C110 1.338 . S
C109 N112 1.377 . S
C109 H129 0.930 . S
C110 N108 1.375 . S
C110 C109 1.338 . S
C110 H114 0.931 . S
C111 N108 1.313 . S
C111 N112 1.344 . S
C111 H115 0.930 . S
N112 C109 1.377 . S
N112 C111 1.344 . S
O113 Co105 2.055 . S
O113 C117 1.253 . S
H114 C110 0.931 . S
H115 C111 0.930 . S
O116 Co105 2.039 . S
O116 C106 1.265 . S
C117 O113 1.253 . S
C117 O118 1.227 . S
O118 C117 1.227 . S
N119 Co105 2.140 . S
N119 C122 1.346 . S
N119 C123 1.345 . S
C120 C121 1.387 . S
C120 C124 1.391 . S
C121 C120 1.387 . S
C121 C122 1.369 . S
C121 H130 0.929 . S
C122 N119 1.346 . S
C122 C121 1.369 . S
C122 H125 0.928 . S
C123 N119 1.345 . S
C123 C124 1.371 . S
C123 H126 0.931 . S
C124 C120 1.391 . S
C124 C123 1.371 . S
C124 H131 0.930 . S
H125 C122 0.928 . S
H126 C123 0.931 . S
H127 C103 0.930 . S
H128 C100 0.930 . S
H129 C109 0.930 . S
H130 C121 0.929 . S
H131 C124 0.930 . S
C132 C133 1.351 . S
C132 N135 1.368 . S
C132 H137 0.931 . S
C133 C132 1.351 . S
C133 N134 1.373 . S
C133 H161 0.930 . S
N134 C133 1.373 . S
N134 C136 1.340 . S
N135 C132 1.368 . S
N135 C136 1.321 . S
N135 Co138 2.135 . S
C136 N134 1.340 . S
C136 N135 1.321 . S
C136 H160 0.930 . S
H137 C132 0.931 . S
Co138 N135 2.135 . S
Co138 N141 2.121 . S
Co138 O146 2.055 . S
Co138 O149 2.039 . S
Co138 N152 2.140 . S
C139 O140 1.227 . S
C139 O149 1.265 . S
O140 C139 1.227 . S
N141 Co138 2.121 . S
N141 C143 1.375 . S
N141 C144 1.313 . S
C142 C143 1.338 . S
C142 N145 1.377 . S
C142 H162 0.930 . S
C143 N141 1.375 . S
C143 C142 1.338 . S
C143 H147 0.931 . S
C144 N141 1.313 . S
C144 N145 1.344 . S
C144 H148 0.930 . S
N145 C142 1.377 . S
N145 C144 1.344 . S
O146 Co138 2.055 . S
O146 C150 1.253 . S
H147 C143 0.931 . S
H148 C144 0.930 . S
O149 Co138 2.039 . S
O149 C139 1.265 . S
C150 O146 1.253 . S
C150 O151 1.227 . S
O151 C150 1.227 . S
N152 Co138 2.140 . S
N152 C155 1.346 . S
N152 C156 1.345 . S
C153 C154 1.387 . S
C153 C157 1.391 . S
C154 C153 1.387 . S
C154 C155 1.369 . S
C154 H163 0.929 . S
C155 N152 1.346 . S
C155 C154 1.369 . S
C155 H158 0.928 . S
C156 N152 1.345 . S
C156 C157 1.371 . S
C156 H159 0.931 . S
C157 C153 1.391 . S
C157 C156 1.371 . S
C157 H164 0.930 . S
H158 C155 0.928 . S
H159 C156 0.931 . S
H160 C136 0.930 . S
H161 C133 0.930 . S
H162 C142 0.930 . S
H163 C154 0.929 . S
H164 C157 0.930 . S
C165 C166 1.351 . S
C165 N168 1.368 . S
C165 H170 0.931 . S
C166 C165 1.351 . S
C166 N167 1.373 . S
C166 H194 0.930 . S
N167 C166 1.373 . S
N167 C169 1.340 . S
N168 C165 1.368 . S
N168 C169 1.321 . S
N168 Co171 2.135 . S
C169 N167 1.340 . S
C169 N168 1.321 . S
C169 H193 0.930 . S
H170 C165 0.931 . S
Co171 N168 2.135 . S
Co171 N174 2.121 . S
Co171 O179 2.055 1_545 S
Co171 O182 2.039 . S
Co171 N185 2.140 . S
C172 O173 1.227 . S
C172 O182 1.265 . S
O173 C172 1.227 . S
N174 Co171 2.121 . S
N174 C176 1.375 . S
N174 C177 1.313 . S
C175 C176 1.338 . S
C175 N178 1.377 . S
C175 H195 0.930 . S
C176 N174 1.375 . S
C176 C175 1.338 . S
C176 H180 0.931 . S
C177 N174 1.313 . S
C177 N178 1.344 . S
C177 H181 0.934 . S
N178 C175 1.377 . S
N178 C177 1.344 . S
O179 Co171 2.055 1_565 S
O179 C183 1.253 . S
H180 C176 0.931 . S
H181 C177 0.934 . S
O182 Co171 2.039 . S
O182 C172 1.265 . S
C183 O179 1.253 . S
C183 O184 1.227 1_565 S
O184 C183 1.227 1_545 S
N185 Co171 2.140 . S
N185 C188 1.346 . S
N185 C189 1.345 . S
C186 C187 1.387 . S
C186 C190 1.391 . S
C187 C186 1.387 . S
C187 C188 1.369 . S
C187 H196 0.929 . S
C188 N185 1.346 . S
C188 C187 1.369 . S
C188 H191 0.928 . S
C189 N185 1.345 . S
C189 C190 1.371 . S
C189 H192 0.931 . S
C190 C186 1.391 . S
C190 C189 1.371 . S
C190 H197 0.930 . S
H191 C188 0.928 . S
H192 C189 0.931 . S
H193 C169 0.930 . S
H194 C166 0.930 . S
H195 C175 0.930 . S
H196 C187 0.929 . S
H197 C190 0.930 . S
C198 C199 1.351 . S
C198 N201 1.368 . S
C198 H203 0.931 . S
C199 C198 1.351 . S
C199 N200 1.373 . S
C199 H227 0.930 . S
N200 C199 1.373 . S
N200 C202 1.340 . S
N201 C198 1.368 . S
N201 C202 1.321 . S
N201 Co204 2.135 . S
C202 N200 1.340 . S
C202 N201 1.321 . S
C202 H226 0.930 . S
H203 C198 0.931 . S
Co204 N201 2.135 . S
Co204 N207 2.121 . S
Co204 O212 2.055 . S
Co204 O215 2.039 . S
Co204 N218 2.140 . S
C205 O206 1.227 . S
C205 O215 1.265 . S
O206 C205 1.227 . S
N207 Co204 2.121 . S
N207 C209 1.375 . S
N207 C210 1.313 . S
C208 C209 1.338 . S
C208 N211 1.377 . S
C208 H228 0.930 . S
C209 N207 1.375 . S
C209 C208 1.338 . S
C209 H213 0.931 . S
C210 N207 1.313 . S
C210 N211 1.344 . S
C210 H214 0.930 . S
N211 C208 1.377 . S
N211 C210 1.344 . S
O212 Co204 2.055 . S
O212 C216 1.253 . S
H213 C209 0.931 . S
H214 C210 0.930 . S
O215 Co204 2.039 . S
O215 C205 1.265 . S
C216 O212 1.253 . S
C216 O217 1.227 . S
O217 C216 1.227 . S
N218 Co204 2.140 . S
N218 C221 1.346 . S
N218 C222 1.345 . S
C219 C220 1.387 . S
C219 C223 1.391 . S
C220 C219 1.387 . S
C220 C221 1.369 . S
C220 H229 0.929 . S
C221 N218 1.346 . S
C221 C220 1.369 . S
C221 H224 0.928 . S
C222 N218 1.345 . S
C222 C223 1.371 . S
C222 H225 0.931 . S
C223 C219 1.391 . S
C223 C222 1.371 . S
C223 H230 0.930 . S
H224 C221 0.928 . S
H225 C222 0.931 . S
H226 C202 0.930 . S
H227 C199 0.930 . S
H228 C208 0.930 . S
H229 C220 0.929 . S
H230 C223 0.930 . S
C231 C232 1.351 . S
C231 N234 1.368 . S
C231 H236 0.931 . S
C232 C231 1.351 . S
C232 N233 1.373 . S
C232 H260 0.930 . S
N233 C232 1.373 . S
N233 C235 1.340 . S
N234 C231 1.368 . S
N234 C235 1.321 . S
N234 Co237 2.135 . S
C235 N233 1.340 . S
C235 N234 1.321 . S
C235 H259 0.930 . S
H236 C231 0.931 . S
Co237 N234 2.135 . S
Co237 N240 2.121 . S
Co237 O245 2.055 1_565 S
Co237 O248 2.039 . S
Co237 N251 2.140 . S
C238 O239 1.227 . S
C238 O248 1.265 . S
O239 C238 1.227 . S
N240 Co237 2.121 . S
N240 C242 1.375 . S
N240 C243 1.313 . S
C241 C242 1.338 . S
C241 N244 1.377 . S
C241 H261 0.930 . S
C242 N240 1.375 . S
C242 C241 1.338 . S
C242 H246 0.931 . S
C243 N240 1.313 . S
C243 N244 1.344 . S
C243 H247 0.934 . S
N244 C241 1.377 . S
N244 C243 1.344 . S
O245 Co237 2.055 1_545 S
O245 C249 1.253 . S
H246 C242 0.931 . S
H247 C243 0.934 . S
O248 Co237 2.039 . S
O248 C238 1.265 . S
C249 O245 1.253 . S
C249 O250 1.227 1_545 S
O250 C249 1.227 1_565 S
N251 Co237 2.140 . S
N251 C254 1.346 . S
N251 C255 1.345 . S
C252 C253 1.387 . S
C252 C256 1.391 . S
C253 C252 1.387 . S
C253 C254 1.369 . S
C253 H262 0.929 . S
C254 N251 1.346 . S
C254 C253 1.369 . S
C254 H257 0.928 . S
C255 N251 1.345 . S
C255 C256 1.371 . S
C255 H258 0.931 . S
C256 C252 1.391 . S
C256 C255 1.371 . S
C256 H263 0.930 . S
H257 C254 0.928 . S
H258 C255 0.931 . S
H259 C235 0.930 . S
H260 C232 0.930 . S
H261 C241 0.930 . S
H262 C253 0.929 . S
H263 C256 0.930 . S
H264 C270 0.930 . S
H265 C273 0.930 . S
H266 C274 0.930 . S
H267 C275 0.930 . S
H268 C278 0.930 . S
H269 C279 0.930 . S
C270 H264 0.930 . S
C270 C271 1.355 1_455 S
C270 C272 1.415 . S
C271 C270 1.355 1_655 S
C271 C273 1.419 . S
C272 C270 1.415 . S
C272 C277 1.425 1_455 S
C272 C279 1.409 . S
C273 H265 0.930 . S
C273 C271 1.419 . S
C273 C274 1.362 . S
C274 H266 0.930 . S
C274 C273 1.362 . S
C274 C277 1.409 . S
C275 H267 0.930 . S
C275 C276 1.355 1_655 S
C275 C277 1.415 . S
C276 C275 1.355 1_455 S
C276 C278 1.419 . S
C277 C272 1.425 1_655 S
C277 C274 1.409 . S
C277 C275 1.415 . S
C278 H268 0.930 . S
C278 C276 1.419 . S
C278 C279 1.362 . S
C279 H269 0.930 . S
C279 C272 1.409 . S
C279 C278 1.362 . S
H280 C286 0.930 . S
H281 C289 0.930 . S
H282 C290 0.930 1_455 S
H283 C291 0.930 . S
H284 C294 0.930 . S
H285 C295 0.930 1_655 S
C286 H280 0.930 . S
C286 C287 1.355 . S
C286 C288 1.415 . S
C287 C286 1.355 . S
C287 C289 1.419 . S
C288 C286 1.415 . S
C288 C293 1.425 1_655 S
C288 C295 1.409 1_655 S
C289 H281 0.930 . S
C289 C287 1.419 . S
C289 C290 1.362 . S
C290 H282 0.930 1_655 S
C290 C289 1.362 . S
C290 C293 1.409 1_655 S
C291 H283 0.930 . S
C291 C292 1.355 . S
C291 C293 1.415 . S
C292 C291 1.355 . S
C292 C294 1.419 . S
C293 C288 1.425 1_455 S
C293 C290 1.409 1_455 S
C293 C291 1.415 . S
C294 H284 0.930 . S
C294 C292 1.419 . S
C294 C295 1.362 . S
C295 H285 0.930 1_455 S
C295 C288 1.409 1_455 S
C295 C294 1.362 . S
H296 C302 0.930 . S
H297 C305 0.930 . S
H298 C306 0.930 1_545 S
H299 C307 0.930 . S
H300 C310 0.930 . S
H301 C311 0.930 1_565 S
C302 H296 0.930 . S
C302 C303 1.355 . S
C302 C304 1.415 . S
C303 C302 1.355 . S
C303 C305 1.419 . S
C304 C302 1.415 . S
C304 C309 1.425 1_565 S
C304 C311 1.409 1_565 S
C305 H297 0.930 . S
C305 C303 1.419 . S
C305 C306 1.362 . S
C306 H298 0.930 1_565 S
C306 C305 1.362 . S
C306 C309 1.409 1_565 S
C307 H299 0.930 . S
C307 C308 1.355 . S
C307 C309 1.415 . S
C308 C307 1.355 . S
C308 C310 1.419 . S
C309 C304 1.425 1_545 S
C309 C306 1.409 1_545 S
C309 C307 1.415 . S
C310 H300 0.930 . S
C310 C308 1.419 . S
C310 C311 1.362 . S
C311 H301 0.930 1_545 S
C311 C304 1.409 1_545 S
C311 C310 1.362 . S
H312 C318 0.930 . S
H313 C321 0.930 . S
H314 C322 0.930 . S
H315 C323 0.930 . S
H316 C326 0.930 . S
H317 C327 0.930 . S
C318 H312 0.930 . S
C318 C319 1.355 . S
C318 C320 1.415 . S
C319 C318 1.355 . S
C319 C321 1.419 . S
C320 C318 1.415 . S
C320 C325 1.425 1_565 S
C320 C327 1.409 . S
C321 H313 0.930 . S
C321 C319 1.419 . S
C321 C322 1.362 1_565 S
C322 H314 0.930 . S
C322 C321 1.362 1_545 S
C322 C325 1.409 . S
C323 H315 0.930 . S
C323 C324 1.355 . S
C323 C325 1.415 . S
C324 C323 1.355 . S
C324 C326 1.419 . S
C325 C320 1.425 1_545 S
C325 C322 1.409 . S
C325 C323 1.415 . S
C326 H316 0.930 . S
C326 C324 1.419 . S
C326 C327 1.362 1_545 S
C327 H317 0.930 . S
C327 C320 1.409 . S
C327 C326 1.362 1_565 S
H328 C334 0.930 . S
H329 C337 0.930 . S
H330 C338 0.930 . S
H331 C339 0.930 . S
H332 C342 0.930 . S
H333 C343 0.930 . S
C334 H328 0.930 . S
C334 C335 1.355 . S
C334 C336 1.415 . S
C335 C334 1.355 . S
C335 C337 1.419 . S
C336 C334 1.415 . S
C336 C341 1.425 . S
C336 C343 1.409 . S
C337 H329 0.930 . S
C337 C335 1.419 . S
C337 C338 1.362 . S
C338 H330 0.930 . S
C338 C337 1.362 . S
C338 C341 1.409 . S
C339 H331 0.930 . S
C339 C340 1.355 . S
C339 C341 1.415 . S
C340 C339 1.355 . S
C340 C342 1.419 . S
C341 C336 1.425 . S
C341 C338 1.409 . S
C341 C339 1.415 . S
C342 H332 0.930 . S
C342 C340 1.419 . S
C342 C343 1.362 . S
C343 H333 0.930 . S
C343 C336 1.409 . S
C343 C342 1.362 . S
H344 C350 0.930 . S
H345 C353 0.930 . S
H346 C354 0.930 . S
H347 C355 0.930 . S
H348 C358 0.930 . S
H349 C359 0.930 . S
C350 H344 0.930 . S
C350 C351 1.355 . S
C350 C352 1.415 . S
C351 C350 1.355 . S
C351 C353 1.419 . S
C352 C350 1.415 . S
C352 C357 1.425 . S
C352 C359 1.409 . S
C353 H345 0.930 . S
C353 C351 1.419 . S
C353 C354 1.362 . S
C354 H346 0.930 . S
C354 C353 1.362 . S
C354 C357 1.409 . S
C355 H347 0.930 . S
C355 C356 1.355 . S
C355 C357 1.415 . S
C356 C355 1.355 . S
C356 C358 1.419 . S
C357 C352 1.425 . S
C357 C354 1.409 . S
C357 C355 1.415 . S
C358 H348 0.930 . S
C358 C356 1.419 . S
C358 C359 1.362 . S
C359 H349 0.930 . S
C359 C352 1.409 . S
C359 C358 1.362 . S
H360 C366 0.930 . S
H361 C369 0.930 . S
H362 C370 0.930 . S
H363 C371 0.930 . S
H364 C374 0.930 . S
H365 C375 0.930 . S
C366 H360 0.930 . S
C366 C367 1.355 . S
C366 C368 1.415 . S
C367 C366 1.355 . S
C367 C369 1.419 . S
C368 C366 1.415 . S
C368 C373 1.425 . S
C368 C375 1.409 . S
C369 H361 0.930 . S
C369 C367 1.419 . S
C369 C370 1.362 . S
C370 H362 0.930 . S
C370 C369 1.362 . S
C370 C373 1.409 . S
C371 H363 0.930 . S
C371 C372 1.355 . S
C371 C373 1.415 . S
C372 C371 1.355 . S
C372 C374 1.419 . S
C373 C368 1.425 . S
C373 C370 1.409 . S
C373 C371 1.415 . S
C374 H364 0.930 . S
C374 C372 1.419 . S
C374 C375 1.362 . S
C375 H365 0.930 . S
C375 C368 1.409 . S
C375 C374 1.362 . S
H376 C382 0.930 . S
H377 C385 0.930 . S
H378 C386 0.930 . S
H379 C387 0.930 . S
H380 C390 0.930 . S
H381 C391 0.930 . S
C382 H376 0.930 . S
C382 C383 1.355 . S
C382 C384 1.415 . S
C383 C382 1.355 . S
C383 C385 1.419 . S
C384 C382 1.415 . S
C384 C389 1.425 . S
C384 C391 1.409 . S
C385 H377 0.930 . S
C385 C383 1.419 . S
C385 C386 1.362 . S
C386 H378 0.930 . S
C386 C385 1.362 . S
C386 C389 1.409 . S
C387 H379 0.930 . S
C387 C388 1.355 . S
C387 C389 1.415 . S
C388 C387 1.355 . S
C388 C390 1.419 . S
C389 C384 1.425 . S
C389 C386 1.409 . S
C389 C387 1.415 . S
C390 H380 0.930 . S
C390 C388 1.419 . S
C390 C391 1.362 . S
C391 H381 0.930 . S
C391 C384 1.409 . S
C391 C390 1.362 . S
H392 C398 0.930 . S
H393 C401 0.930 . S
H394 C402 0.930 . S
H395 C403 0.930 . S
H396 C406 0.930 . S
H397 C407 0.930 . S
C398 H392 0.930 . S
C398 C399 1.355 . S
C398 C400 1.415 . S
C399 C398 1.355 . S
C399 C401 1.419 . S
C400 C398 1.415 . S
C400 C405 1.425 . S
C400 C407 1.409 . S
C401 H393 0.930 . S
C401 C399 1.419 . S
C401 C402 1.362 . S
C402 H394 0.930 . S
C402 C401 1.362 . S
C402 C405 1.409 . S
C403 H395 0.930 . S
C403 C404 1.355 . S
C403 C405 1.415 . S
C404 C403 1.355 . S
C404 C406 1.419 . S
C405 C400 1.425 . S
C405 C402 1.409 . S
C405 C403 1.415 . S
C406 H396 0.930 . S
C406 C404 1.419 . S
C406 C407 1.362 . S
C407 H397 0.930 . S
C407 C400 1.409 . S
C407 C406 1.362 . S
H408 C414 0.930 . S
H409 C417 0.930 . S
H410 C418 0.930 . S
H411 C419 0.930 . S
H412 C422 0.930 . S
H413 C423 0.930 . S
C414 H408 0.930 . S
C414 C415 1.355 . S
C414 C416 1.415 . S
C415 C414 1.355 . S
C415 C417 1.419 . S
C416 C414 1.415 . S
C416 C421 1.425 . S
C416 C423 1.409 . S
C417 H409 0.930 . S
C417 C415 1.419 . S
C417 C418 1.362 . S
C418 H410 0.930 . S
C418 C417 1.362 . S
C418 C421 1.409 . S
C419 H411 0.930 . S
C419 C420 1.355 . S
C419 C421 1.415 . S
C420 C419 1.355 . S
C420 C422 1.419 . S
C421 C416 1.425 . S
C421 C418 1.409 . S
C421 C419 1.415 . S
C422 H412 0.930 . S
C422 C420 1.419 . S
C422 C423 1.362 . S
C423 H413 0.930 . S
C423 C416 1.409 . S
C423 C422 1.362 . S
H424 C430 0.930 . S
H425 C433 0.930 . S
H426 C434 0.930 . S
H427 C435 0.930 . S
H428 C438 0.930 . S
H429 C439 0.930 . S
C430 H424 0.930 . S
C430 C431 1.355 . S
C430 C432 1.415 . S
C431 C430 1.355 . S
C431 C433 1.419 . S
C432 C430 1.415 . S
C432 C437 1.425 . S
C432 C439 1.409 . S
C433 H425 0.930 . S
C433 C431 1.419 . S
C433 C434 1.362 . S
C434 H426 0.930 . S
C434 C433 1.362 . S
C434 C437 1.409 . S
C435 H427 0.930 . S
C435 C436 1.355 . S
C435 C437 1.415 . S
C436 C435 1.355 . S
C436 C438 1.419 . S
C437 C432 1.425 . S
C437 C434 1.409 . S
C437 C435 1.415 . S
C438 H428 0.930 . S
C438 C436 1.419 . S
C438 C439 1.362 . S
C439 H429 0.930 . S
C439 C432 1.409 . S
C439 C438 1.362 . S
H440 C446 0.930 . S
H441 C449 0.930 . S
H442 C450 0.930 . S
H443 C451 0.930 . S
H444 C454 0.930 . S
H445 C455 0.930 . S
C446 H440 0.930 . S
C446 C447 1.355 . S
C446 C448 1.415 . S
C447 C446 1.355 . S
C447 C449 1.419 . S
C448 C446 1.415 . S
C448 C453 1.425 . S
C448 C455 1.409 . S
C449 H441 0.930 . S
C449 C447 1.419 . S
C449 C450 1.362 . S
C450 H442 0.930 . S
C450 C449 1.362 . S
C450 C453 1.409 . S
C451 H443 0.930 . S
C451 C452 1.355 . S
C451 C453 1.415 . S
C452 C451 1.355 . S
C452 C454 1.419 . S
C453 C448 1.425 . S
C453 C450 1.409 . S
C453 C451 1.415 . S
C454 H444 0.930 . S
C454 C452 1.419 . S
C454 C455 1.362 . S
C455 H445 0.930 . S
C455 C448 1.409 . S
C455 C454 1.362 . S
H456 C462 0.930 . S
H457 C465 0.930 . S
H458 C466 0.930 . S
H459 C467 0.930 . S
H460 C470 0.930 . S
H461 C471 0.930 . S
C462 H456 0.930 . S
C462 C463 1.355 . S
C462 C464 1.415 . S
C463 C462 1.355 . S
C463 C465 1.419 . S
C464 C462 1.415 . S
C464 C469 1.425 . S
C464 C471 1.409 . S
C465 H457 0.930 . S
C465 C463 1.419 . S
C465 C466 1.362 . S
C466 H458 0.930 . S
C466 C465 1.362 . S
C466 C469 1.409 . S
C467 H459 0.930 . S
C467 C468 1.355 . S
C467 C469 1.415 . S
C468 C467 1.355 . S
C468 C470 1.419 . S
C469 C464 1.425 . S
C469 C466 1.409 . S
C469 C467 1.415 . S
C470 H460 0.930 . S
C470 C468 1.419 . S
C470 C471 1.362 . S
C471 H461 0.930 . S
C471 C464 1.409 . S
C471 C470 1.362 . S
H472 C478 0.930 . S
H473 C481 0.930 . S
H474 C482 0.930 1_556 S
H475 C483 0.930 . S
H476 C486 0.930 . S
H477 C487 0.930 1_554 S
C478 H472 0.930 . S
C478 C479 1.355 . S
C478 C480 1.415 . S
C479 C478 1.355 . S
C479 C481 1.419 . S
C480 C478 1.415 . S
C480 C485 1.425 1_554 S
C480 C487 1.409 1_554 S
C481 H473 0.930 . S
C481 C479 1.419 . S
C481 C482 1.362 . S
C482 H474 0.930 1_554 S
C482 C481 1.362 . S
C482 C485 1.409 1_554 S
C483 H475 0.930 . S
C483 C484 1.355 . S
C483 C485 1.415 . S
C484 C483 1.355 . S
C484 C486 1.419 . S
C485 C480 1.425 1_556 S
C485 C482 1.409 1_556 S
C485 C483 1.415 . S
C486 H476 0.930 . S
C486 C484 1.419 . S
C486 C487 1.362 . S
C487 H477 0.930 1_556 S
C487 C480 1.409 1_556 S
C487 C486 1.362 . S
H488 C494 0.930 . S
H489 C497 0.930 . S
H490 C498 0.930 . S
H491 C499 0.930 . S
H492 C502 0.930 . S
H493 C503 0.930 . S
C494 H488 0.930 . S
C494 C495 1.355 . S
C494 C496 1.415 . S
C495 C494 1.355 . S
C495 C497 1.419 . S
C496 C494 1.415 . S
C496 C501 1.425 . S
C496 C503 1.409 . S
C497 H489 0.930 . S
C497 C495 1.419 . S
C497 C498 1.362 . S
C498 H490 0.930 . S
C498 C497 1.362 . S
C498 C501 1.409 . S
C499 H491 0.930 . S
C499 C500 1.355 . S
C499 C501 1.415 . S
C500 C499 1.355 . S
C500 C502 1.419 . S
C501 C496 1.425 . S
C501 C498 1.409 . S
C501 C499 1.415 . S
C502 H492 0.930 . S
C502 C500 1.419 . S
C502 C503 1.362 . S
C503 H493 0.930 . S
C503 C496 1.409 . S
C503 C502 1.362 . S
H504 C510 0.930 . S
H505 C513 0.930 . S
H506 C514 0.930 . S
H507 C515 0.930 . S
H508 C518 0.930 . S
H509 C519 0.930 . S
C510 H504 0.930 . S
C510 C511 1.355 . S
C510 C512 1.415 1_554 S
C511 C510 1.355 . S
C511 C513 1.419 . S
C512 C510 1.415 1_556 S
C512 C517 1.425 1_556 S
C512 C519 1.409 . S
C513 H505 0.930 . S
C513 C511 1.419 . S
C513 C514 1.362 . S
C514 H506 0.930 . S
C514 C513 1.362 . S
C514 C517 1.409 . S
C515 H507 0.930 . S
C515 C516 1.355 . S
C515 C517 1.415 1_556 S
C516 C515 1.355 . S
C516 C518 1.419 . S
C517 C512 1.425 1_554 S
C517 C514 1.409 . S
C517 C515 1.415 1_554 S
C518 H508 0.930 . S
C518 C516 1.419 . S
C518 C519 1.362 . S
C519 H509 0.930 . S
C519 C512 1.409 . S
C519 C518 1.362 . S
H520 C526 0.930 . S
H521 C529 0.930 . S
H522 C530 0.930 . S
H523 C531 0.930 . S
H524 C534 0.930 . S
H525 C535 0.930 . S
C526 H520 0.930 . S
C526 C527 1.355 . S
C526 C528 1.415 1_565 S
C527 C526 1.355 . S
C527 C529 1.419 . S
C528 C526 1.415 1_545 S
C528 C533 1.425 1_645 S
C528 C535 1.409 . S
C529 H521 0.930 . S
C529 C527 1.419 . S
C529 C530 1.362 1_655 S
C530 H522 0.930 . S
C530 C529 1.362 1_455 S
C530 C533 1.409 . S
C531 H523 0.930 . S
C531 C532 1.355 . S
C531 C533 1.415 1_545 S
C532 C531 1.355 . S
C532 C534 1.419 . S
C533 C528 1.425 1_465 S
C533 C530 1.409 . S
C533 C531 1.415 1_565 S
C534 H524 0.930 . S
C534 C532 1.419 . S
C534 C535 1.362 1_455 S
C535 H525 0.930 . S
C535 C528 1.409 . S
C535 C534 1.362 1_655 S
H536 C542 0.930 . S
H537 C545 0.930 . S
H538 C546 0.930 . S
H539 C547 0.930 . S
H540 C550 0.930 . S
H541 C551 0.930 . S
C542 H536 0.930 . S
C542 C543 1.355 . S
C542 C544 1.415 . S
C543 C542 1.355 . S
C543 C545 1.419 . S
C544 C542 1.415 . S
C544 C549 1.425 . S
C544 C551 1.409 . S
C545 H537 0.930 . S
C545 C543 1.419 . S
C545 C546 1.362 . S
C546 H538 0.930 . S
C546 C545 1.362 . S
C546 C549 1.409 . S
C547 H539 0.930 . S
C547 C548 1.355 . S
C547 C549 1.415 . S
C548 C547 1.355 . S
C548 C550 1.419 . S
C549 C544 1.425 . S
C549 C546 1.409 . S
C549 C547 1.415 . S
C550 H540 0.930 . S
C550 C548 1.419 . S
C550 C551 1.362 . S
C551 H541 0.930 . S
C551 C544 1.409 . S
C551 C550 1.362 . S
H552 C558 0.930 . S
H553 C561 0.930 . S
H554 C562 0.930 . S
H555 C563 0.930 . S
H556 C566 0.930 . S
H557 C567 0.930 . S
C558 H552 0.930 . S
C558 C559 1.355 . S
C558 C560 1.415 . S
C559 C558 1.355 . S
C559 C561 1.419 . S
C560 C558 1.415 . S
C560 C565 1.425 . S
C560 C567 1.409 . S
C561 H553 0.930 . S
C561 C559 1.419 . S
C561 C562 1.362 . S
C562 H554 0.930 . S
C562 C561 1.362 . S
C562 C565 1.409 . S
C563 H555 0.930 . S
C563 C564 1.355 . S
C563 C565 1.415 . S
C564 C563 1.355 . S
C564 C566 1.419 . S
C565 C560 1.425 . S
C565 C562 1.409 . S
C565 C563 1.415 . S
C566 H556 0.930 . S
C566 C564 1.419 . S
C566 C567 1.362 . S
C567 H557 0.930 . S
C567 C560 1.409 . S
C567 C566 1.362 . S
H568 C574 0.930 . S
H569 C577 0.930 . S
H570 C578 0.930 . S
H571 C579 0.930 . S
H572 C582 0.930 . S
H573 C583 0.930 . S
C574 H568 0.930 . S
C574 C575 1.355 . S
C574 C576 1.415 . S
C575 C574 1.355 . S
C575 C577 1.419 . S
C576 C574 1.415 . S
C576 C581 1.425 1_445 S
C576 C583 1.409 1_445 S
C577 H569 0.930 . S
C577 C575 1.419 . S
C577 C578 1.362 . S
C578 H570 0.930 . S
C578 C577 1.362 . S
C578 C581 1.409 1_445 S
C579 H571 0.930 . S
C579 C580 1.355 . S
C579 C581 1.415 . S
C580 C579 1.355 . S
C580 C582 1.419 . S
C581 C576 1.425 1_665 S
C581 C578 1.409 1_665 S
C581 C579 1.415 . S
C582 H572 0.930 . S
C582 C580 1.419 . S
C582 C583 1.362 . S
C583 H573 0.930 . S
C583 C576 1.409 1_665 S
C583 C582 1.362 . S
C271 N79 1.158 . S
C276 N13 1.134 . S
C287 N112 1.154 . S
C292 N46 1.139 . S
C303 N211 1.160 . S
C308 N145 1.132 . S
C319 N244 1.123 . S
C324 N178 1.164 . S
C335 C150 1.911 . S
C340 C21 1.915 . S
C351 C183 1.916 . S
C356 C54 1.902 . S
C367 C216 1.916 . S
C372 C87 1.903 . S
C383 C120 1.915 . S
C388 C249 1.912 . S
C399 C18 1.915 . S
C404 C153 1.900 . S
C415 C51 1.912 . S
C420 C186 1.915 . S
C431 C84 1.908 . S
C436 C219 1.909 . S
C447 C252 1.896 . S
C452 C117 1.913 . S
C463 C7 1.775 . S
C468 C172 1.777 . S
C479 C205 1.775 . S
C484 C40 1.772 . S
C495 C238 1.729 . S
C500 C73 1.727 . S
C511 C139 1.741 . S
C516 C106 1.739 . S
C527 N68 0.566 . S
C532 N2 0.536 . S
C543 N35 0.536 . S
C548 N101 0.557 . S
C559 N200 0.548 . S
C564 N134 0.601 . S
C575 N167 0.693 . S
C580 N233 0.757 . S
