# Generated by pormake.
# Topology vbm, (6)-cn, num edge types: 1
# Building blocks:
#     Node 0, Type 0, BuildingBlock: PAMTUU_clean_sbu_0, # of connection points: 6
#     Node 1, Type 0, BuildingBlock: PAMTUU_clean_sbu_0, # of connection points: 6
#     Node 2, Type 0, BuildingBlock: PAMTUU_clean_sbu_0, # of connection points: 6
#     Node 3, Type 0, BuildingBlock: PAMTUU_clean_sbu_0, # of connection points: 6
#     Node 4, Type 0, BuildingBlock: PAMTUU_clean_sbu_0, # of connection points: 6
#     Node 5, Type 0, BuildingBlock: PAMTUU_clean_sbu_0, # of connection points: 6
#     Node 6, Type 0, BuildingBlock: PAMTUU_clean_sbu_0, # of connection points: 6
#     Node 7, Type 0, BuildingBlock: PAMTUU_clean_sbu_0, # of connection points: 6
#     Node 8, Type 0, BuildingBlock: PAMTUU_clean_sbu_0, # of connection points: 6
#     Node 9, Type 0, BuildingBlock: PAMTUU_clean_sbu_0, # of connection points: 6
#     Node 10, Type 0, BuildingBlock: PAMTUU_clean_sbu_0, # of connection points: 6
#     Node 11, Type 0, BuildingBlock: PAMTUU_clean_sbu_0, # of connection points: 6
#     Node 12, Type 0, BuildingBlock: PAMTUU_clean_sbu_0, # of connection points: 6
#     Node 13, Type 0, BuildingBlock: PAMTUU_clean_sbu_0, # of connection points: 6
#     Node 14, Type 0, BuildingBlock: PAMTUU_clean_sbu_0, # of connection points: 6
#     Node 15, Type 0, BuildingBlock: PAMTUU_clean_sbu_0, # of connection points: 6
#     Edge 16, Type (0, 0), BuildingBlock: KIFKEQ_clean_linker_1, # of connection points: 2
#     Edge 17, Type (0, 0), BuildingBlock: KIFKEQ_clean_linker_1, # of connection points: 2
#     Edge 18, Type (0, 0), BuildingBlock: KIFKEQ_clean_linker_1, # of connection points: 2
#     Edge 19, Type (0, 0), BuildingBlock: KIFKEQ_clean_linker_1, # of connection points: 2
#     Edge 20, Type (0, 0), BuildingBlock: KIFKEQ_clean_linker_1, # of connection points: 2
#     Edge 21, Type (0, 0), BuildingBlock: KIFKEQ_clean_linker_1, # of connection points: 2
#     Edge 22, Type (0, 0), BuildingBlock: KIFKEQ_clean_linker_1, # of connection points: 2
#     Edge 23, Type (0, 0), BuildingBlock: KIFKEQ_clean_linker_1, # of connection points: 2
#     Edge 24, Type (0, 0), BuildingBlock: KIFKEQ_clean_linker_1, # of connection points: 2
#     Edge 25, Type (0, 0), BuildingBlock: KIFKEQ_clean_linker_1, # of connection points: 2
#     Edge 26, Type (0, 0), BuildingBlock: KIFKEQ_clean_linker_1, # of connection points: 2
#     Edge 27, Type (0, 0), BuildingBlock: KIFKEQ_clean_linker_1, # of connection points: 2
#     Edge 28, Type (0, 0), BuildingBlock: KIFKEQ_clean_linker_1, # of connection points: 2
#     Edge 29, Type (0, 0), BuildingBlock: KIFKEQ_clean_linker_1, # of connection points: 2
#     Edge 30, Type (0, 0), BuildingBlock: KIFKEQ_clean_linker_1, # of connection points: 2
#     Edge 31, Type (0, 0), BuildingBlock: KIFKEQ_clean_linker_1, # of connection points: 2
#     Edge 32, Type (0, 0), BuildingBlock: KIFKEQ_clean_linker_1, # of connection points: 2
#     Edge 33, Type (0, 0), BuildingBlock: KIFKEQ_clean_linker_1, # of connection points: 2
#     Edge 34, Type (0, 0), BuildingBlock: KIFKEQ_clean_linker_1, # of connection points: 2
#     Edge 35, Type (0, 0), BuildingBlock: KIFKEQ_clean_linker_1, # of connection points: 2
#     Edge 36, Type (0, 0), BuildingBlock: KIFKEQ_clean_linker_1, # of connection points: 2
#     Edge 37, Type (0, 0), BuildingBlock: KIFKEQ_clean_linker_1, # of connection points: 2
#     Edge 38, Type (0, 0), BuildingBlock: KIFKEQ_clean_linker_1, # of connection points: 2
#     Edge 39, Type (0, 0), BuildingBlock: KIFKEQ_clean_linker_1, # of connection points: 2
#     Edge 40, Type (0, 0), BuildingBlock: KIFKEQ_clean_linker_1, # of connection points: 2
#     Edge 41, Type (0, 0), BuildingBlock: KIFKEQ_clean_linker_1, # of connection points: 2
#     Edge 42, Type (0, 0), BuildingBlock: KIFKEQ_clean_linker_1, # of connection points: 2
#     Edge 43, Type (0, 0), BuildingBlock: KIFKEQ_clean_linker_1, # of connection points: 2
#     Edge 44, Type (0, 0), BuildingBlock: KIFKEQ_clean_linker_1, # of connection points: 2
#     Edge 45, Type (0, 0), BuildingBlock: KIFKEQ_clean_linker_1, # of connection points: 2
#     Edge 46, Type (0, 0), BuildingBlock: KIFKEQ_clean_linker_1, # of connection points: 2
#     Edge 47, Type (0, 0), BuildingBlock: KIFKEQ_clean_linker_1, # of connection points: 2
#     Edge 48, Type (0, 0), BuildingBlock: KIFKEQ_clean_linker_1, # of connection points: 2
#     Edge 49, Type (0, 0), BuildingBlock: KIFKEQ_clean_linker_1, # of connection points: 2
#     Edge 50, Type (0, 0), BuildingBlock: KIFKEQ_clean_linker_1, # of connection points: 2
#     Edge 51, Type (0, 0), BuildingBlock: KIFKEQ_clean_linker_1, # of connection points: 2
#     Edge 52, Type (0, 0), BuildingBlock: KIFKEQ_clean_linker_1, # of connection points: 2
#     Edge 53, Type (0, 0), BuildingBlock: KIFKEQ_clean_linker_1, # of connection points: 2
#     Edge 54, Type (0, 0), BuildingBlock: KIFKEQ_clean_linker_1, # of connection points: 2
#     Edge 55, Type (0, 0), BuildingBlock: KIFKEQ_clean_linker_1, # of connection points: 2
#     Edge 56, Type (0, 0), BuildingBlock: KIFKEQ_clean_linker_1, # of connection points: 2
#     Edge 57, Type (0, 0), BuildingBlock: KIFKEQ_clean_linker_1, # of connection points: 2
#     Edge 58, Type (0, 0), BuildingBlock: KIFKEQ_clean_linker_1, # of connection points: 2
#     Edge 59, Type (0, 0), BuildingBlock: KIFKEQ_clean_linker_1, # of connection points: 2
#     Edge 60, Type (0, 0), BuildingBlock: KIFKEQ_clean_linker_1, # of connection points: 2
#     Edge 61, Type (0, 0), BuildingBlock: KIFKEQ_clean_linker_1, # of connection points: 2
#     Edge 62, Type (0, 0), BuildingBlock: KIFKEQ_clean_linker_1, # of connection points: 2
#     Edge 63, Type (0, 0), BuildingBlock: KIFKEQ_clean_linker_1, # of connection points: 2
# Relax obj value: 0.044
# Max RMSD: 0.118
# Mean RMSD: 0.118
data_MOF--net-vbm--node1-PAMTUU_clean_sbu_0--edge1-KIFKEQ_clean_linker_1
_symmetry_space_group_name_H-M    P1
_symmetry_Int_Tables_number       1
_symmetry_cell_setting            triclinic
loop_
_symmetry_equiv_pos_as_xyz
'x, y, z'
_cell_length_a     55.636899
_cell_length_b     26.055972
_cell_length_c     58.644057
_cell_angle_alpha  89.963769
_cell_angle_beta   90.023896
_cell_angle_gamma 89.95351
loop_
_atom_site_label
_atom_site_type_symbol
_atom_site_fract_x
_atom_site_fract_y
_atom_site_fract_z
_atom_type_partial_charge
Tb0 Tb 0.11427 0.19941 0.14309 0.0
Tb1 Tb 0.13806 0.08406 0.13209 0.0
C2 C 0.12934 0.12161 0.18051 0.0
C3 C 0.10391 0.34292 0.14815 0.0
C4 C 0.11209 0.44924 0.14094 0.0
C5 C 0.10155 0.43143 0.16129 0.0
C6 C 0.0975 0.379 0.1648 0.0
C7 C 0.11488 0.36014 0.12796 0.0
C8 C 0.11892 0.41276 0.12439 0.0
C9 C 0.09813 0.28815 0.15207 0.0
O10 O 0.15286 0.20793 0.14502 0.0
O11 O 0.16623 0.13923 0.12369 0.0
O12 O 0.11997 0.10974 0.10143 0.0
O13 O 0.1231 0.19686 0.10666 0.0
O14 O 0.15048 1.01575 0.14677 0.0
O15 O 0.15247 0.02693 0.11038 0.0
O16 O 0.10038 0.06937 0.14008 0.0
O17 O 0.08373 0.15058 0.13651 0.0
O18 O 0.11153 0.15086 0.1736 0.0
O19 O 0.14649 0.11001 0.1662 0.0
C20 C 0.16946 0.18493 0.13283 0.0
O21 O 0.09165 0.26101 0.13441 0.0
O22 O 0.11248 0.26253 0.16549 0.0
C23 C 0.12058 0.15667 0.09321 0.0
C24 C 0.14851 0.94085 0.12408 0.0
C25 C 0.13863 0.83403 0.12333 0.0
C26 C 0.15985 0.85372 0.11359 0.0
C27 C 0.16471 0.90644 0.11401 0.0
C28 C 0.12684 0.92182 0.13304 0.0
C29 C 0.12194 0.86897 0.13264 0.0
C30 C 0.15584 0.995 0.12722 0.0
C31 C 0.08175 0.10052 0.13852 0.0
H32 H 0.0965 0.45801 0.17464 0.0
H33 H 0.08911 0.36661 0.18054 0.0
H34 H 0.12003 0.33303 0.11484 0.0
H35 H 0.1269 0.42489 0.10844 0.0
H36 H 0.17292 0.82827 0.10588 0.0
H37 H 0.18156 0.9202 0.10704 0.0
H38 H 0.11406 0.94759 0.141 0.0
H39 H 0.1055 0.85535 0.14044 0.0
Tb40 Tb 0.88165 0.85783 0.13904 0.0
Tb41 Tb 0.85666 0.97324 0.13026 0.0
C42 C 0.86611 0.93163 0.17789 0.0
C43 C 0.89265 0.71426 0.14338 0.0
C44 C 0.88304 0.60809 0.13763 0.0
C45 C 0.89723 0.62568 0.15591 0.0
C46 C 0.90196 0.67803 0.15872 0.0
C47 C 0.87832 0.69725 0.12515 0.0
C48 C 0.87364 0.64463 0.12226 0.0
C49 C 0.89858 0.7691 0.1468 0.0
O50 O 0.84327 0.84731 0.14119 0.0
O51 O 0.8287 0.91756 0.12153 0.0
O52 O 0.87464 0.95148 0.09904 0.0
O53 O 0.87266 0.86372 0.10268 0.0
O54 O 0.84504 0.04095 0.14604 0.0
O55 O 0.84065 0.03076 0.10979 0.0
O56 O 0.89441 0.98836 0.13806 0.0
O57 O 0.91173 0.90815 0.13309 0.0
O58 O 0.88416 0.90405 0.17025 0.0
O59 O 0.84872 0.94407 0.16396 0.0
C60 C 0.82623 0.87064 0.12969 0.0
O61 O 0.90363 0.79634 0.12875 0.0
O62 O 0.88514 0.79448 0.1611 0.0
C63 C 0.87444 0.90538 0.08998 0.0
C64 C 0.84558 0.11637 0.12363 0.0
C65 C 0.85645 0.22278 0.12244 0.0
C66 C 0.83365 0.20464 0.11582 0.0
C67 C 0.82831 0.15212 0.11644 0.0
C68 C 0.86863 0.13388 0.12954 0.0
C69 C 0.87401 0.18652 0.12896 0.0
C70 C 0.83836 0.06221 0.12695 0.0
C71 C 0.9133 0.95803 0.13597 0.0
H72 H 0.90509 0.59884 0.1679 0.0
H73 H 0.91311 0.69026 0.17286 0.0
H74 H 0.87083 0.72454 0.11316 0.0
H75 H 0.86244 0.63262 0.10814 0.0
H76 H 0.81955 0.23118 0.11098 0.0
H77 H 0.81035 0.13955 0.112 0.0
H78 H 0.88228 0.10702 0.13518 0.0
H79 H 0.89187 0.19883 0.13384 0.0
Tb80 Tb 0.11349 0.84489 0.36657 0.0
Tb81 Tb 0.13696 0.96009 0.37857 0.0
C82 C 0.1291 0.92367 0.32974 0.0
C83 C 0.10329 0.7014 0.36118 0.0
C84 C 0.11131 0.59503 0.36858 0.0
C85 C 0.1007 0.61277 0.34824 0.0
C86 C 0.09672 0.66521 0.34464 0.0
C87 C 0.11433 0.68427 0.38136 0.0
C88 C 0.11829 0.63163 0.38502 0.0
C89 C 0.09761 0.75621 0.35715 0.0
O90 O 0.15213 0.83665 0.36551 0.0
O91 O 0.16468 0.90445 0.3878 0.0
O92 O 0.11726 0.93413 0.40831 0.0
O93 O 0.12151 0.84725 0.40316 0.0
O94 O 0.15044 0.02819 0.36459 0.0
O95 O 0.15022 1.01704 0.40101 0.0
O96 O 0.09969 0.97528 0.36939 0.0
O97 O 0.08281 0.89417 0.37236 0.0
O98 O 0.11136 0.89372 0.33614 0.0
O99 O 0.14596 0.93522 0.3444 0.0
C100 C 0.16822 0.85899 0.37853 0.0
O101 O 0.09067 0.78331 0.37466 0.0
O102 O 0.11233 0.78183 0.34412 0.0
C103 C 0.11782 0.88716 0.4165 0.0
C104 C 0.14736 0.10317 0.38709 0.0
C105 C 0.13751 0.21008 0.38717 0.0
C106 C 0.1586 0.19054 0.39725 0.0
C107 C 0.16345 0.13778 0.39717 0.0
C108 C 0.12582 0.12206 0.37776 0.0
C109 C 0.12093 0.17496 0.37783 0.0
C110 C 0.1547 0.04888 0.38438 0.0
C111 C 0.08098 0.94432 0.3704 0.0
H112 H 0.09553 0.58612 0.33496 0.0
H113 H 0.08827 0.67753 0.3289 0.0
H114 H 0.11961 0.71147 0.3944 0.0
H115 H 0.12635 0.61958 0.40096 0.0
H116 H 0.17158 0.21613 0.40499 0.0
H117 H 0.1802 0.12413 0.40442 0.0
H118 H 0.11315 0.09613 0.36976 0.0
H119 H 0.10459 0.18846 0.36978 0.0
Tb120 Tb 0.88077 0.18911 0.36902 0.0
Tb121 Tb 0.85701 0.07381 0.38002 0.0
C122 C 0.8658 0.11168 0.33136 0.0
C123 C 0.89097 0.3328 0.36409 0.0
C124 C 0.88188 0.43901 0.37051 0.0
C125 C 0.8937 0.42118 0.35081 0.0
C126 C 0.89818 0.3688 0.34768 0.0
C127 C 0.87893 0.35008 0.38371 0.0
C128 C 0.8745 0.4027 0.38691 0.0
C129 C 0.89693 0.27801 0.36043 0.0
O130 O 0.84223 0.19724 0.3666 0.0
O131 O 0.82905 0.12952 0.38859 0.0
O132 O 0.87628 0.09873 0.41019 0.0
O133 O 0.87176 0.18557 0.40537 0.0
O134 O 0.8437 1.00588 0.36574 0.0
O135 O 0.84335 1.0167 0.40216 0.0
O136 O 0.89437 0.05868 0.37115 0.0
O137 O 0.91131 0.13953 0.37491 0.0
O138 O 0.88338 0.14148 0.3383 0.0
O139 O 0.8488 0.09878 0.34565 0.0
C140 C 0.82572 0.17487 0.37911 0.0
O141 O 0.90297 0.25093 0.37827 0.0
O142 O 0.88296 0.25233 0.34671 0.0
C143 C 0.8754 0.14541 0.4186 0.0
C144 C 0.84674 0.93086 0.38818 0.0
C145 C 0.85763 0.82443 0.38835 0.0
C146 C 0.83572 0.84271 0.39723 0.0
C147 C 0.83036 0.89525 0.3971 0.0
C148 C 0.869 0.91321 0.38001 0.0
C149 C 0.87438 0.86055 0.3801 0.0
C150 C 0.83917 0.98497 0.38544 0.0
C151 C 0.91311 0.08949 0.37253 0.0
H152 H 0.89997 0.44785 0.33796 0.0
H153 H 0.90758 0.35639 0.33247 0.0
H154 H 0.87309 0.323 0.39658 0.0
H155 H 0.86512 0.41489 0.40216 0.0
H156 H 0.82223 0.81626 0.40347 0.0
H157 H 0.813 0.90794 0.4033 0.0
H158 H 0.88194 0.93997 0.37301 0.0
H159 H 0.89157 0.8481 0.37344 0.0
Tb160 Tb 0.85683 0.97383 0.87685 0.0
Tb161 Tb 0.88095 0.85833 0.86862 0.0
C162 C 0.87361 0.90465 0.91731 0.0
C163 C 0.84631 0.11707 0.88358 0.0
C164 C 0.85729 0.22329 0.88485 0.0
C165 C 0.83475 0.2051 0.89216 0.0
C166 C 0.82935 0.15264 0.8915 0.0
C167 C 0.86915 0.13461 0.87698 0.0
C168 C 0.87458 0.18719 0.8776 0.0
C169 C 0.83892 0.06308 0.8803 0.0
O170 O 0.89464 0.98763 0.86925 0.0
O171 O 0.9108 0.90773 0.87702 0.0
O172 O 0.88528 0.90549 0.83793 0.0
O173 O 0.84965 0.94584 0.8427 0.0
O174 O 0.90257 0.79658 0.87925 0.0
O175 O 0.88489 0.79531 0.84646 0.0
O176 O 0.84252 0.84898 0.8653 0.0
O177 O 0.82842 0.91931 0.88505 0.0
O178 O 0.87438 0.95092 0.90835 0.0
O179 O 0.87051 0.86359 0.90453 0.0
C180 C 0.91309 0.95723 0.87337 0.0
O181 O 0.84536 0.04179 0.86116 0.0
O182 O 0.84129 0.03159 0.89744 0.0
C183 C 0.86748 0.93251 0.82947 0.0
C184 C 0.89187 0.71483 0.8642 0.0
C185 C 0.88254 0.60858 0.86978 0.0
C186 C 0.89571 0.6267 0.85094 0.0
C187 C 0.90032 0.67912 0.84822 0.0
C188 C 0.87849 0.69725 0.88297 0.0
C189 C 0.87393 0.64459 0.88576 0.0
C190 C 0.89792 0.76965 0.86103 0.0
C191 C 0.82543 0.87309 0.87642 0.0
H192 H 0.82087 0.23157 0.89758 0.0
H193 H 0.81156 0.14001 0.8965 0.0
H194 H 0.88255 0.10784 0.87079 0.0
H195 H 0.89224 0.1996 0.87216 0.0
H196 H 0.90293 0.60023 0.83847 0.0
H197 H 0.91075 0.69178 0.83367 0.0
H198 H 0.87168 0.72413 0.89549 0.0
H199 H 0.86351 0.63213 0.90034 0.0
Tb200 Tb 0.13674 0.07627 0.88577 0.0
Tb201 Tb 0.11571 0.19178 0.87076 0.0
C202 C 0.12132 0.15921 0.92165 0.0
C203 C 0.14939 0.93392 0.89172 0.0
C204 C 0.14275 0.82756 0.8837 0.0
C205 C 0.16203 0.84529 0.8971 0.0
C206 C 0.16528 0.8978 0.90105 0.0
C207 C 0.1303 0.91681 0.87803 0.0
C208 C 0.127 0.86412 0.87407 0.0
C209 C 0.15244 0.98867 0.89759 0.0
O210 O 0.10013 0.06368 0.87416 0.0
O211 O 0.08482 0.14518 0.8795 0.0
O212 O 0.11128 0.14249 0.84079 0.0
O213 O 0.13985 0.08104 0.84896 0.0
O214 O 0.09414 0.25614 0.87783 0.0
O215 O 0.11545 0.25281 0.84716 0.0
O216 O 0.15405 0.19135 0.86595 0.0
O217 O 0.16501 0.13234 0.89296 0.0
O218 O 0.11991 0.1111 0.91527 0.0
O219 O 0.12562 0.1962 0.90692 0.0
C220 C 0.08192 0.09555 0.87655 0.0
O221 O 0.1629 1.01803 0.88258 0.0
O222 O 0.13399 1.01135 0.90681 0.0
C223 C 0.12503 0.10361 0.83464 0.0
C224 C 0.10789 0.33567 0.86244 0.0
C225 C 0.11702 0.44235 0.86698 0.0
C226 C 0.1088 0.42172 0.84621 0.0
C227 C 0.10426 0.36913 0.84401 0.0
C228 C 0.11664 0.35566 0.8831 0.0
C229 C 0.12116 0.40845 0.88534 0.0
C230 C 0.10135 0.28089 0.85975 0.0
C231 C 0.16977 0.17291 0.88037 0.0
H232 H 0.17432 0.81849 0.90509 0.0
H233 H 0.18002 0.91019 0.9118 0.0
H234 H 0.11781 0.9441 0.87066 0.0
H235 H 0.11213 0.85203 0.86344 0.0
H236 H 0.10586 0.44623 0.83155 0.0
H237 H 0.09761 0.3546 0.82789 0.0
H238 H 0.11963 0.33066 0.89759 0.0
H239 H 0.12731 0.42285 0.90164 0.0
Tb240 Tb 0.85506 0.0819 0.63296 0.0
Tb241 Tb 0.88019 0.19711 0.63938 0.0
C242 C 0.87042 0.14876 0.59112 0.0
C243 C 0.84377 0.93857 0.6275 0.0
C244 C 0.85366 0.83186 0.62529 0.0
C245 C 0.83157 0.85171 0.61752 0.0
C246 C 0.8267 0.90438 0.61865 0.0
C247 C 0.86621 0.91938 0.63451 0.0
C248 C 0.8711 0.86658 0.6334 0.0
C249 C 0.83683 0.99279 0.6312 0.0
O250 O 0.89325 0.06774 0.63905 0.0
O251 O 0.90942 0.14701 0.63025 0.0
O252 O 0.88509 0.15062 0.67025 0.0
O253 O 0.84884 0.11247 0.6668 0.0
O254 O 0.90168 0.25823 0.62793 0.0
O255 O 0.88518 0.26036 0.66123 0.0
O256 O 0.84196 0.20808 0.64333 0.0
O257 O 0.82658 0.13676 0.6252 0.0
O258 O 0.87072 0.10279 0.60042 0.0
O259 O 0.86917 0.19078 0.60362 0.0
C260 C 0.91165 0.09762 0.63411 0.0
O261 O 0.84485 1.01438 0.64974 0.0
O262 O 0.83772 1.02398 0.61382 0.0
C263 C 0.86717 0.12533 0.67947 0.0
C264 C 0.89166 0.34048 0.64299 0.0
C265 C 0.88272 0.44694 0.63722 0.0
C266 C 0.89503 0.42849 0.65654 0.0
C267 C 0.89946 0.37599 0.65934 0.0
C268 C 0.87895 0.35833 0.62384 0.0
C269 C 0.87454 0.41104 0.62098 0.0
C270 C 0.89772 0.2856 0.64617 0.0
C271 C 0.82432 0.18384 0.63312 0.0
H272 H 0.81787 0.82643 0.61075 0.0
H273 H 0.80927 0.91829 0.61315 0.0
H274 H 0.87968 0.94497 0.64148 0.0
H275 H 0.88824 0.85281 0.63969 0.0
H276 H 0.90118 0.45462 0.66965 0.0
H277 H 0.90919 0.3631 0.6743 0.0
H278 H 0.87269 0.33168 0.61098 0.0
H279 H 0.86516 0.42371 0.6058 0.0
Tb280 Tb 0.13643 0.98272 0.6252 0.0
Tb281 Tb 0.11447 0.86669 0.63872 0.0
C282 C 0.12391 0.89988 0.58801 0.0
C283 C 0.14927 0.12561 0.61948 0.0
C284 C 0.14274 0.23213 0.62733 0.0
C285 C 0.15612 0.21448 0.60852 0.0
C286 C 0.15933 0.16195 0.60469 0.0
C287 C 0.13591 0.14259 0.63834 0.0
C288 C 0.1327 0.19539 0.64224 0.0
C289 C 0.15237 0.07059 0.61417 0.0
O290 O 0.09938 0.99487 0.63578 0.0
O291 O 0.08441 0.91406 0.62855 0.0
O292 O 0.10983 0.91551 0.66893 0.0
O293 O 0.13946 0.97509 0.66182 0.0
O294 O 0.09194 0.80398 0.63118 0.0
O295 O 0.11345 0.8048 0.66173 0.0
O296 O 0.15276 0.86495 0.64392 0.0
O297 O 0.16501 0.92701 0.61868 0.0
O298 O 0.12233 0.9479 0.59455 0.0
O299 O 0.12546 0.86197 0.60284 0.0
C300 C 0.0813 0.96332 0.63219 0.0
O301 O 0.16208 0.04137 0.62971 0.0
O302 O 0.13431 0.04803 0.60427 0.0
C303 C 0.12404 0.95312 0.67567 0.0
C304 C 0.10421 0.7233 0.64596 0.0
C305 C 0.11374 0.61686 0.6414 0.0
C306 C 0.09132 0.63439 0.64936 0.0
C307 C 0.08665 0.68691 0.65161 0.0
C308 C 0.12662 0.70636 0.63791 0.0
C309 C 0.13136 0.65361 0.63569 0.0
C310 C 0.09867 0.77831 0.64915 0.0
C311 C 0.16909 0.88501 0.63056 0.0
H312 H 0.16374 0.24126 0.59639 0.0
H313 H 0.16951 0.14964 0.58992 0.0
H314 H 0.1279 0.1151 0.64994 0.0
H315 H 0.12247 0.20741 0.65701 0.0
H316 H 0.07744 0.60745 0.65427 0.0
H317 H 0.06928 0.69916 0.65797 0.0
H318 H 0.14042 0.73386 0.63339 0.0
H319 H 0.14873 0.64163 0.62929 0.0
Tb320 Tb 0.61898 0.6849 0.14156 0.0
Tb321 Tb 0.64046 0.56919 0.12669 0.0
C322 C 0.62797 0.59598 0.17755 0.0
C323 C 0.61137 0.8287 0.14962 0.0
C324 C 0.62103 0.93503 0.14449 0.0
C325 C 0.61309 0.91503 0.16548 0.0
C326 C 0.6083 0.86258 0.16797 0.0
C327 C 0.6197 0.84815 0.1287 0.0
C328 C 0.62442 0.90079 0.12616 0.0
C329 C 0.60476 0.77403 0.15264 0.0
O330 O 0.65735 0.68453 0.14648 0.0
O331 O 0.66856 0.62577 0.11955 0.0
O332 O 0.62515 0.6043 0.09669 0.0
O333 O 0.62858 0.68997 0.10527 0.0
O334 O 0.66657 0.51101 0.13058 0.0
O335 O 0.63844 0.50448 0.1055 0.0
O336 O 0.6033 0.55615 0.13677 0.0
O337 O 0.58799 0.63842 0.13327 0.0
O338 O 0.61431 0.6351 0.17145 0.0
O339 O 0.64317 0.5742 0.16343 0.0
C340 C 0.67308 0.66678 0.13191 0.0
O341 O 0.59719 0.74908 0.13477 0.0
O342 O 0.61907 0.74602 0.16509 0.0
C343 C 0.62659 0.65242 0.09033 0.0
C344 C 0.65357 0.42691 0.12065 0.0
C345 C 0.64654 0.32022 0.12741 0.0
C346 C 0.66583 0.33846 0.11416 0.0
C347 C 0.66926 0.39112 0.11082 0.0
C348 C 0.63457 0.40928 0.13433 0.0
C349 C 0.63111 0.35641 0.13772 0.0
C350 C 0.65665 0.48185 0.11516 0.0
C351 C 0.58515 0.58853 0.13525 0.0
H352 H 0.60997 0.94012 0.1799 0.0
H353 H 0.6018 0.84853 0.18423 0.0
H354 H 0.62233 0.82282 0.11427 0.0
H355 H 0.6308 0.91463 0.10983 0.0
H356 H 0.67833 0.31198 0.1063 0.0
H357 H 0.68403 0.40392 0.10021 0.0
H358 H 0.62217 0.43632 0.142 0.0
H359 H 0.61598 0.34387 0.1479 0.0
Tb360 Tb 0.38193 0.35781 0.14013 0.0
Tb361 Tb 0.35893 0.47386 0.12919 0.0
C362 C 0.36849 0.43636 0.17815 0.0
C363 C 0.3918 0.21386 0.14451 0.0
C364 C 0.38279 0.10784 0.13788 0.0
C365 C 0.39393 0.12557 0.15793 0.0
C366 C 0.39838 0.17788 0.16117 0.0
C367 C 0.3804 0.19668 0.12454 0.0
C368 C 0.376 0.14413 0.12123 0.0
C369 C 0.39785 0.26848 0.14826 0.0
O370 O 0.34347 0.35137 0.14356 0.0
O371 O 0.33053 0.41869 0.12125 0.0
O372 O 0.3783 0.44822 0.09924 0.0
O373 O 0.37253 0.36183 0.10386 0.0
O374 O 0.34551 0.5423 0.14288 0.0
O375 O 0.34572 0.53045 0.10653 0.0
O376 O 0.39646 0.48831 0.13769 0.0
O377 O 0.41273 0.40662 0.13449 0.0
O378 O 0.38513 0.40425 0.1711 0.0
O379 O 0.35167 0.45201 0.16415 0.0
C380 C 0.32692 0.37395 0.13118 0.0
O381 O 0.40381 0.29574 0.13047 0.0
O382 O 0.38404 0.29408 0.16215 0.0
C383 C 0.37681 0.40179 0.0907 0.0
C384 C 0.34897 0.61655 0.12008 0.0
C385 C 0.35989 0.72279 0.11967 0.0
C386 C 0.33816 0.70448 0.11044 0.0
C387 C 0.33278 0.65199 0.11069 0.0
C388 C 0.37109 0.63421 0.12855 0.0
C389 C 0.37649 0.6868 0.12836 0.0
C390 C 0.34129 0.56266 0.123 0.0
C391 C 0.41493 0.45663 0.1366 0.0
H392 H 0.39973 0.09887 0.17098 0.0
H393 H 0.40729 0.19024 0.17666 0.0
H394 H 0.37505 0.22376 0.11146 0.0
H395 H 0.36715 0.13196 0.1057 0.0
H396 H 0.32481 0.73088 0.10386 0.0
H397 H 0.31554 0.63925 0.10424 0.0
H398 H 0.38388 0.60753 0.13591 0.0
H399 H 0.39354 0.69934 0.1353 0.0
Tb400 Tb 0.61398 0.35262 0.37178 0.0
Tb401 Tb 0.6375 0.46796 0.38208 0.0
C402 C 0.62729 0.43044 0.3335 0.0
C403 C 0.6044 0.20873 0.36835 0.0
C404 C 0.61337 0.1025 0.37498 0.0
C405 C 0.61361 0.12405 0.35297 0.0
C406 C 0.6091 0.1764 0.34971 0.0
C407 C 0.60446 0.18749 0.39042 0.0
C408 C 0.60888 0.13499 0.39368 0.0
C409 C 0.59795 0.26327 0.36414 0.0
O410 O 0.65241 0.34502 0.3683 0.0
O411 O 0.6658 0.41257 0.39015 0.0
O412 O 0.61825 0.44313 0.41225 0.0
O413 O 0.62376 0.35657 0.40794 0.0
O414 O 0.65132 0.53576 0.36813 0.0
O415 O 0.65067 0.52488 0.40456 0.0
O416 O 0.60008 0.48267 0.3731 0.0
O417 O 0.58369 0.40207 0.37884 0.0
O418 O 0.61047 0.3991 0.34081 0.0
O419 O 0.6445 0.44502 0.34725 0.0
C420 C 0.66914 0.36749 0.38047 0.0
O421 O 0.59175 0.2913 0.38161 0.0
O422 O 0.61147 0.28876 0.34994 0.0
C423 C 0.61946 0.39675 0.42093 0.0
C424 C 0.64776 0.61073 0.39059 0.0
C425 C 0.63803 0.71751 0.39121 0.0
C426 C 0.65763 0.697 0.40339 0.0
C427 C 0.66244 0.64427 0.40303 0.0
C428 C 0.62756 0.63055 0.37916 0.0
C429 C 0.62275 0.68341 0.37948 0.0
C430 C 0.65528 0.55661 0.38794 0.0
C431 C 0.5815 0.45185 0.37578 0.0
H432 H 0.61667 0.10019 0.33814 0.0
H433 H 0.60888 0.19151 0.33249 0.0
H434 H 0.60083 0.21121 0.40518 0.0
H435 H 0.60882 0.11986 0.41088 0.0
H436 H 0.66951 0.72182 0.41299 0.0
H437 H 0.67811 0.62984 0.41196 0.0
H438 H 0.61597 0.60545 0.36938 0.0
H439 H 0.60759 0.69772 0.36978 0.0
Tb440 Tb 0.37787 0.6849 0.37115 0.0
Tb441 Tb 0.3577 0.56943 0.38704 0.0
C442 C 0.36792 0.59574 0.33553 0.0
C443 C 0.38502 0.82882 0.36265 0.0
C444 C 0.37601 0.93558 0.36734 0.0
C445 C 0.38071 0.91386 0.34582 0.0
C446 C 0.3852 0.86124 0.34354 0.0
C447 C 0.37977 0.84994 0.38414 0.0
C448 C 0.37532 0.90274 0.38645 0.0
C449 C 0.39164 0.77408 0.35968 0.0
O450 O 0.33939 0.68443 0.36738 0.0
O451 O 0.3293 0.62511 0.39456 0.0
O452 O 0.37487 0.60521 0.41612 0.0
O453 O 0.36864 0.68999 0.40746 0.0
O454 O 0.33151 0.51115 0.38496 0.0
O455 O 0.36148 0.50463 0.40804 0.0
O456 O 0.39411 0.5572 0.3747 0.0
O457 O 0.40914 0.63899 0.37954 0.0
O458 O 0.38152 0.63528 0.34113 0.0
O459 O 0.35372 0.57296 0.3503 0.0
C460 C 0.3241 0.6657 0.38213 0.0
O461 O 0.39965 0.74926 0.37745 0.0
O462 O 0.37719 0.74587 0.3475 0.0
C463 C 0.37324 0.65341 0.42234 0.0
C464 C 0.34536 0.42715 0.39382 0.0
C465 C 0.35146 0.32083 0.38535 0.0
C466 C 0.33463 0.33831 0.40151 0.0
C467 C 0.33165 0.3908 0.40567 0.0
C468 C 0.36203 0.41029 0.37748 0.0
C469 C 0.36506 0.3576 0.37329 0.0
C470 C 0.34261 0.48197 0.39964 0.0
C471 C 0.41222 0.58938 0.37669 0.0
H472 H 0.38094 0.93755 0.33064 0.0
H473 H 0.38916 0.84591 0.32678 0.0
H474 H 0.3795 0.82588 0.39921 0.0
H475 H 0.37196 0.91799 0.40333 0.0
H476 H 0.32411 0.31136 0.41141 0.0
H477 H 0.31882 0.40301 0.41848 0.0
H478 H 0.37283 0.43781 0.36816 0.0
H479 H 0.37799 0.34569 0.36055 0.0
Tb480 Tb 0.35541 0.47114 0.87696 0.0
Tb481 Tb 0.38097 0.35623 0.86965 0.0
C482 C 0.37206 0.40365 0.91823 0.0
C483 C 0.34422 0.61452 0.88252 0.0
C484 C 0.3544 0.72124 0.88402 0.0
C485 C 0.33265 0.70173 0.89272 0.0
C486 C 0.32764 0.64908 0.89193 0.0
C487 C 0.36634 0.63338 0.87453 0.0
C488 C 0.37138 0.68616 0.87529 0.0
C489 C 0.33707 0.56022 0.87935 0.0
O490 O 0.39325 0.48595 0.86983 0.0
O491 O 0.4103 0.40706 0.87802 0.0
O492 O 0.38486 0.40315 0.83881 0.0
O493 O 0.34859 0.4409 0.84314 0.0
O494 O 0.403 0.29522 0.88042 0.0
O495 O 0.38542 0.29313 0.84761 0.0
O496 O 0.34262 0.3447 0.86684 0.0
O497 O 0.32737 0.41582 0.88533 0.0
O498 O 0.37199 0.4498 0.90909 0.0
O499 O 0.37078 0.36186 0.90561 0.0
C500 C 0.41202 0.45661 0.87418 0.0
O501 O 0.34401 0.5383 0.86051 0.0
O502 O 0.33899 0.52928 0.89675 0.0
C503 C 0.36672 0.42872 0.83008 0.0
C504 C 0.39256 0.21289 0.8656 0.0
C505 C 0.38377 0.10631 0.87147 0.0
C506 C 0.3954 0.12492 0.85181 0.0
C507 C 0.39975 0.17744 0.84896 0.0
C508 C 0.38055 0.19488 0.88512 0.0
C509 C 0.37622 0.14215 0.88802 0.0
C510 C 0.39846 0.26786 0.86229 0.0
C511 C 0.32519 0.36857 0.87759 0.0
H512 H 0.31932 0.72724 0.89998 0.0
H513 H 0.31046 0.63546 0.89819 0.0
H514 H 0.37943 0.60753 0.86711 0.0
H515 H 0.38824 0.69961 0.86828 0.0
H516 H 0.40105 0.0989 0.83845 0.0
H517 H 0.40894 0.19041 0.83372 0.0
H518 H 0.37476 0.22145 0.89821 0.0
H519 H 0.36738 0.12941 0.90346 0.0
Tb520 Tb 0.63489 0.58941 0.88053 0.0
Tb521 Tb 0.61134 0.70464 0.86932 0.0
C522 C 0.61781 0.66341 0.91901 0.0
C523 C 0.64455 0.44609 0.88849 0.0
C524 C 0.63363 0.33973 0.88806 0.0
C525 C 0.65489 0.35793 0.89827 0.0
C526 C 0.66027 0.41044 0.89844 0.0
C527 C 0.62291 0.42852 0.87893 0.0
C528 C 0.61751 0.37589 0.87872 0.0
C529 C 0.65229 0.50019 0.88627 0.0
O530 O 0.59764 0.57531 0.87104 0.0
O531 O 0.58116 0.65554 0.8773 0.0
O532 O 0.6085 0.65618 0.83884 0.0
O533 O 0.64328 0.61427 0.84625 0.0
O534 O 0.58891 0.76642 0.87816 0.0
O535 O 0.60901 0.76727 0.84667 0.0
O536 O 0.64991 0.71271 0.86695 0.0
O537 O 0.66334 0.64416 0.88842 0.0
O538 O 0.61659 0.61643 0.91092 0.0
O539 O 0.62126 0.70303 0.90545 0.0
C540 C 0.57901 0.60585 0.87404 0.0
O541 O 0.64868 0.52161 0.86651 0.0
O542 O 0.64741 0.53158 0.90295 0.0
C543 C 0.62623 0.62668 0.83193 0.0
C544 C 0.60098 0.84803 0.86382 0.0
C545 C 0.6099 0.95431 0.8701 0.0
C546 C 0.59932 0.93602 0.84987 0.0
C547 C 0.59491 0.88359 0.84681 0.0
C548 C 0.61184 0.86579 0.88397 0.0
C549 C 0.61619 0.91843 0.8871 0.0
C550 C 0.595 0.79322 0.86027 0.0
C551 C 0.66666 0.68943 0.87889 0.0
H552 H 0.6679 0.33144 0.90538 0.0
H553 H 0.67716 0.42307 0.90573 0.0
H554 H 0.61048 0.45531 0.87112 0.0
H555 H 0.60081 0.3635 0.87101 0.0
H556 H 0.59393 0.96237 0.83652 0.0
H557 H 0.58643 0.87083 0.83117 0.0
H558 H 0.61681 0.83909 0.89734 0.0
H559 H 0.62462 0.93098 0.90278 0.0
Tb560 Tb 0.35558 0.589 0.63451 0.0
Tb561 Tb 0.38031 0.70437 0.64316 0.0
C562 C 0.37242 0.65838 0.5941 0.0
C563 C 0.34426 0.44589 0.6277 0.0
C564 C 0.3541 0.33906 0.62619 0.0
C565 C 0.33214 0.35878 0.61804 0.0
C566 C 0.3273 0.41151 0.61883 0.0
C567 C 0.36659 0.42682 0.63508 0.0
C568 C 0.37147 0.37396 0.63431 0.0
C569 C 0.33726 0.50015 0.63116 0.0
O570 O 0.39348 0.57395 0.64127 0.0
O571 O 0.41035 0.65452 0.63614 0.0
O572 O 0.3843 0.65673 0.67377 0.0
O573 O 0.34857 0.61708 0.66868 0.0
O574 O 0.40235 0.76574 0.63303 0.0
O575 O 0.38359 0.76768 0.66526 0.0
O576 O 0.34189 0.71389 0.64628 0.0
O577 O 0.32758 0.64442 0.62608 0.0
O578 O 0.37279 0.61197 0.60295 0.0
O579 O 0.37053 0.6996 0.60702 0.0
C580 C 0.41216 0.60458 0.63876 0.0
O581 O 0.34406 0.52118 0.65024 0.0
O582 O 0.33947 0.53173 0.61402 0.0
C583 C 0.36646 0.62956 0.68201 0.0
C584 C 0.39115 0.84785 0.64741 0.0
C585 C 0.38244 0.95419 0.64084 0.0
C586 C 0.39462 0.93632 0.66035 0.0
C587 C 0.39894 0.88389 0.66354 0.0
C588 C 0.37857 0.8651 0.62809 0.0
C589 C 0.37426 0.91775 0.62483 0.0
C590 C 0.39709 0.79304 0.651 0.0
C591 C 0.32489 0.69078 0.63467 0.0
H592 H 0.3185 0.33337 0.61126 0.0
H593 H 0.30995 0.42531 0.61307 0.0
H594 H 0.37997 0.45258 0.64209 0.0
H595 H 0.38851 0.36031 0.64088 0.0
H596 H 0.40075 0.96286 0.6733 0.0
H597 H 0.40857 0.87145 0.67863 0.0
H598 H 0.37232 0.83801 0.6154 0.0
H599 H 0.36498 0.92994 0.60952 0.0
Tb600 Tb 0.63655 0.47704 0.63249 0.0
Tb601 Tb 0.61225 0.36157 0.64269 0.0
C602 C 0.61921 0.40589 0.59313 0.0
C603 C 0.64712 0.62009 0.62511 0.0
C604 C 0.63618 0.72648 0.6245 0.0
C605 C 0.65853 0.70829 0.61663 0.0
C606 C 0.66391 0.65576 0.61697 0.0
C607 C 0.62446 0.63765 0.63226 0.0
C608 C 0.61905 0.69029 0.63196 0.0
C609 C 0.65457 0.56598 0.62814 0.0
O610 O 0.59888 0.49196 0.64027 0.0
O611 O 0.58199 0.41114 0.6361 0.0
O612 O 0.60921 0.40938 0.67335 0.0
O613 O 0.64436 0.45011 0.66659 0.0
O614 O 0.59012 0.29981 0.63319 0.0
O615 O 0.60957 0.29854 0.66505 0.0
O616 O 0.65073 0.35291 0.64539 0.0
O617 O 0.6646 0.42146 0.62425 0.0
O618 O 0.61868 0.45259 0.60157 0.0
O619 O 0.62145 0.36522 0.60637 0.0
C620 C 0.58019 0.46115 0.63841 0.0
O621 O 0.64897 0.54487 0.64755 0.0
O622 O 0.65136 0.5344 0.61116 0.0
C623 C 0.62699 0.43819 0.68061 0.0
C624 C 0.60177 0.21802 0.64765 0.0
C625 C 0.61102 0.1118 0.6415 0.0
C626 C 0.59829 0.12959 0.66068 0.0
C627 C 0.59374 0.18198 0.66369 0.0
C628 C 0.61469 0.20079 0.62854 0.0
C629 C 0.61921 0.14817 0.62546 0.0
C630 C 0.5958 0.27284 0.65116 0.0
C631 C 0.66757 0.37571 0.63344 0.0
H632 H 0.6723 0.73479 0.61102 0.0
H633 H 0.68157 0.64314 0.61156 0.0
H634 H 0.61119 0.61084 0.63864 0.0
H635 H 0.60153 0.70268 0.63783 0.0
H636 H 0.59139 0.10289 0.67323 0.0
H637 H 0.58366 0.19436 0.67851 0.0
H638 H 0.62118 0.22792 0.61597 0.0
H639 H 0.62928 0.13601 0.61062 0.0
H640 H 0.21203 0.14783 0.11554 0.0
H641 H 0.17878 0.28525 0.14229 0.0
H642 H 0.25005 0.19425 0.11162 0.0
H643 H 0.21657 0.33089 0.13864 0.0
H644 H 0.28422 0.411 0.114 0.0
H645 H 0.24599 0.36485 0.11092 0.0
H646 H 0.27948 0.22911 0.13892 0.0
H647 H 0.31739 0.2744 0.14173 0.0
C648 C 0.21278 0.18783 0.12049 0.0
C649 C 0.19245 0.21254 0.1295 0.0
C650 C 0.23453 0.21439 0.11829 0.0
C651 C 0.23629 0.26623 0.12486 0.0
C652 C 0.21576 0.29121 0.13319 0.0
C653 C 0.19414 0.26471 0.13552 0.0
C654 C 0.2834 0.37125 0.11934 0.0
C655 C 0.30378 0.34667 0.12836 0.0
C656 C 0.26154 0.34486 0.11763 0.0
C657 C 0.25975 0.29331 0.12468 0.0
C658 C 0.28031 0.26851 0.13307 0.0
C659 C 0.30201 0.29484 0.13493 0.0
H660 H 0.78142 0.90775 0.11834 0.0
H661 H 0.82015 0.76751 0.13271 0.0
H662 H 0.74403 0.85842 0.11531 0.0
H663 H 0.78309 0.71891 0.12992 0.0
H664 H 0.71391 0.63954 0.10822 0.0
H665 H 0.75071 0.69033 0.10374 0.0
H666 H 0.71926 0.81207 0.14382 0.0
H667 H 0.68282 0.7622 0.14817 0.0
C668 C 0.78199 0.86652 0.12065 0.0
C669 C 0.80365 0.84173 0.12611 0.0
C670 C 0.76062 0.8383 0.11899 0.0
C671 C 0.76063 0.78477 0.12246 0.0
C672 C 0.78249 0.75992 0.12694 0.0
C673 C 0.8037 0.78803 0.12881 0.0
C674 C 0.71489 0.67718 0.116 0.0
C675 C 0.69554 0.69643 0.12878 0.0
C676 C 0.73591 0.70625 0.11343 0.0
C677 C 0.73782 0.75531 0.12336 0.0
C678 C 0.71826 0.77481 0.13568 0.0
C679 C 0.69745 0.74575 0.13841 0.0
H680 H 0.31454 0.76375 0.36955 0.0
H681 H 0.28212 0.63183 0.40197 0.0
H682 H 0.27696 0.81031 0.37257 0.0
H683 H 0.24409 0.67922 0.40509 0.0
H684 H 0.17665 0.75736 0.37154 0.0
H685 H 0.21411 0.71065 0.37635 0.0
H686 H 0.24854 0.84881 0.40051 0.0
H687 H 0.21084 0.89616 0.39552 0.0
C688 C 0.29937 0.74463 0.37741 0.0
C689 C 0.30121 0.69371 0.38524 0.0
C690 C 0.27789 0.77171 0.37939 0.0
C691 C 0.2576 0.74852 0.3891 0.0
C692 C 0.25947 0.69794 0.39742 0.0
C693 C 0.28118 0.67086 0.39567 0.0
C694 C 0.19215 0.77795 0.37795 0.0
C695 C 0.19087 0.83079 0.3828 0.0
C696 C 0.21355 0.75089 0.38097 0.0
C697 C 0.23425 0.77603 0.38877 0.0
C698 C 0.23286 0.82854 0.3943 0.0
C699 C 0.21131 0.85563 0.39147 0.0
H700 H 0.81681 0.27532 0.36963 0.0
H701 H 0.78305 0.1387 0.39655 0.0
H702 H 0.77924 0.32181 0.37326 0.0
H703 H 0.74521 0.18599 0.40045 0.0
H704 H 0.67828 0.2677 0.36999 0.0
H705 H 0.71595 0.22149 0.373 0.0
H706 H 0.74996 0.35648 0.40096 0.0
H707 H 0.71197 0.40356 0.3977 0.0
C708 C 0.80138 0.25514 0.37643 0.0
C709 C 0.80286 0.20295 0.3825 0.0
C710 C 0.77988 0.28213 0.37876 0.0
C711 C 0.75926 0.25763 0.38713 0.0
C712 C 0.76081 0.20577 0.39376 0.0
C713 C 0.78245 0.17872 0.39157 0.0
C714 C 0.69372 0.28778 0.37683 0.0
C715 C 0.69216 0.33968 0.38334 0.0
C716 C 0.71528 0.26093 0.3788 0.0
C717 C 0.73592 0.28524 0.38724 0.0
C718 C 0.73434 0.33685 0.39423 0.0
C719 C 0.71262 0.36378 0.3924 0.0
H720 H 0.67657 0.78888 0.86838 0.0
H721 H 0.70937 0.65095 0.89524 0.0
H722 H 0.71487 0.83286 0.87052 0.0
H723 H 0.74795 0.69578 0.89768 0.0
H724 H 0.81525 0.77353 0.86598 0.0
H725 H 0.7771 0.72917 0.86954 0.0
H726 H 0.74489 0.86618 0.89757 0.0
H727 H 0.78319 0.91128 0.89371 0.0
C728 C 0.69194 0.7679 0.87486 0.0
C729 C 0.68996 0.7161 0.88139 0.0
C730 C 0.71387 0.79343 0.87631 0.0
C731 C 0.73441 0.76783 0.88427 0.0
C732 C 0.73241 0.71634 0.89129 0.0
C733 C 0.71034 0.69073 0.88996 0.0
C734 C 0.80009 0.7944 0.87293 0.0
C735 C 0.80221 0.84626 0.87931 0.0
C736 C 0.77827 0.76865 0.8752 0.0
C737 C 0.75801 0.79413 0.88384 0.0
C738 C 0.76019 0.8457 0.89065 0.0
C739 C 0.78211 0.87149 0.88848 0.0
H740 H 0.28152 0.406 0.8918 0.0
H741 H 0.31762 0.26618 0.8716 0.0
H742 H 0.24398 0.35812 0.89607 0.0
H743 H 0.28024 0.21894 0.87565 0.0
H744 H 0.21168 0.14114 0.90111 0.0
H745 H 0.24951 0.18921 0.90385 0.0
H746 H 0.2168 0.3165 0.86822 0.0
H747 H 0.17941 0.26938 0.86561 0.0
C748 C 0.28149 0.36516 0.88837 0.0
C749 C 0.30247 0.34014 0.88105 0.0
C750 C 0.26002 0.33776 0.89079 0.0
C751 C 0.2592 0.28479 0.88615 0.0
C752 C 0.28036 0.25956 0.87958 0.0
C753 C 0.30172 0.28691 0.87699 0.0
C754 C 0.21262 0.17947 0.894 0.0
C755 C 0.19266 0.20112 0.88292 0.0
C756 C 0.23422 0.20692 0.89553 0.0
C757 C 0.23605 0.25667 0.88629 0.0
C758 C 0.21588 0.27859 0.87576 0.0
C759 C 0.19451 0.25116 0.87404 0.0
H760 H 0.67667 0.27594 0.64404 0.0
H761 H 0.71028 0.41168 0.61603 0.0
H762 H 0.71434 0.22979 0.64108 0.0
H763 H 0.74821 0.3646 0.61271 0.0
H764 H 0.81543 0.2842 0.643 0.0
H765 H 0.77772 0.33035 0.64003 0.0
H766 H 0.74328 0.19406 0.61381 0.0
H767 H 0.78119 0.14706 0.61712 0.0
C768 C 0.69209 0.29599 0.63714 0.0
C769 C 0.69053 0.34784 0.63054 0.0
C770 C 0.71364 0.26919 0.6352 0.0
C771 C 0.73423 0.29349 0.62666 0.0
C772 C 0.73264 0.34502 0.61956 0.0
C773 C 0.71094 0.37193 0.6214 0.0
C774 C 0.79987 0.26383 0.63657 0.0
C775 C 0.80128 0.21161 0.63056 0.0
C776 C 0.77829 0.29062 0.63463 0.0
C777 C 0.75754 0.26591 0.62667 0.0
C778 C 0.75897 0.21398 0.6202 0.0
C779 C 0.78067 0.18709 0.62207 0.0
H780 H 0.21147 0.91825 0.61135 0.0
H781 H 0.17862 0.78788 0.6447 0.0
H782 H 0.24944 0.8706 0.60898 0.0
H783 H 0.21616 0.74113 0.64239 0.0
H784 H 0.28176 0.65378 0.61891 0.0
H785 H 0.24416 0.70152 0.61444 0.0
H786 H 0.27936 0.8395 0.63779 0.0
H787 H 0.31678 0.79244 0.64206 0.0
C788 C 0.2123 0.87956 0.61807 0.0
C789 C 0.19212 0.85713 0.62841 0.0
C790 C 0.23398 0.85234 0.61673 0.0
C791 C 0.23568 0.8021 0.62544 0.0
C792 C 0.21532 0.77945 0.63526 0.0
C793 C 0.19386 0.80664 0.63679 0.0
C794 C 0.28148 0.69433 0.62295 0.0
C795 C 0.30215 0.71907 0.63115 0.0
C796 C 0.25999 0.72163 0.62041 0.0
C797 C 0.25887 0.77421 0.6258 0.0
C798 C 0.27974 0.7992 0.63327 0.0
C799 C 0.30111 0.77194 0.63598 0.0
H800 H 0.09295 0.9274 0.29755 0.0
H801 H 0.16494 0.98129 0.31113 0.0
H802 H 0.09242 0.97693 0.26196 0.0
H803 H 0.16425 0.03097 0.27611 0.0
H804 H 0.16569 0.06759 0.20033 0.0
H805 H 0.16495 1.01847 0.23548 0.0
H806 H 0.09181 0.06684 0.24759 0.0
H807 H 0.09241 0.11583 0.21184 0.0
C808 C 0.10871 0.94937 0.29289 0.0
C809 C 0.12905 0.94994 0.30717 0.0
C810 C 0.10831 0.97826 0.27262 0.0
C811 C 0.12829 1.00808 0.26611 0.0
C812 C 0.14864 1.00806 0.28035 0.0
C813 C 0.14901 0.97951 0.30053 0.0
C814 C 0.14945 0.06826 0.2105 0.0
C815 C 0.12914 0.09602 0.20323 0.0
C816 C 0.14906 0.04006 0.23078 0.0
C817 C 0.12833 0.03856 0.24447 0.0
C818 C 0.10801 0.06668 0.23736 0.0
C819 C 0.10843 0.09526 0.217 0.0
H820 H 0.90187 0.11264 0.29909 0.0
H821 H 0.83033 0.05489 0.31164 0.0
H822 H 0.90255 0.06744 0.26242 0.0
H823 H 0.83118 1.00948 0.27553 0.0
H824 H 0.82954 0.98227 0.19901 0.0
H825 H 0.83017 0.02708 0.23526 0.0
H826 H 0.90367 0.97942 0.24598 0.0
H827 H 0.90318 0.93482 0.20914 0.0
C828 C 0.88624 0.09071 0.29399 0.0
C829 C 0.86599 0.08781 0.30829 0.0
C830 C 0.88673 0.06431 0.27309 0.0
C831 C 0.86692 0.03471 0.26596 0.0
C832 C 0.84665 0.03234 0.28025 0.0
C833 C 0.8462 0.05841 0.30106 0.0
C834 C 0.84584 0.98085 0.2091 0.0
C835 C 0.86629 0.9546 0.20113 0.0
C836 C 0.84617 1.00656 0.23 0.0
C837 C 0.86695 1.00696 0.24364 0.0
C838 C 0.88742 0.98036 0.23582 0.0
C839 C 0.88706 0.95429 0.21482 0.0
H840 H 0.83187 0.11707 0.71111 0.0
H841 H 0.90634 0.08033 0.69931 0.0
H842 H 0.83304 0.07124 0.74718 0.0
H843 H 0.90732 0.03047 0.73454 0.0
H844 H 0.90698 0.97276 0.80835 0.0
H845 H 0.90799 1.02292 0.77322 0.0
H846 H 0.83217 0.99289 0.76327 0.0
H847 H 0.83112 0.94672 0.79925 0.0
C848 C 0.84855 0.09909 0.71636 0.0
C849 C 0.86905 0.10265 0.70256 0.0
C850 C 0.84919 0.07186 0.73692 0.0
C851 C 0.87015 0.04564 0.74393 0.0
C852 C 0.89087 0.05032 0.73016 0.0
C853 C 0.89038 0.07897 0.70987 0.0
C854 C 0.89065 0.97658 0.79842 0.0
C855 C 0.86898 0.95579 0.80646 0.0
C856 C 0.89116 1.0054 0.77817 0.0
C857 C 0.87008 1.01314 0.76518 0.0
C858 C 0.84868 0.98988 0.77293 0.0
C859 C 0.84807 0.96248 0.79345 0.0
H860 H 0.13824 1.00789 0.82062 0.0
H861 H 0.1068 0.14907 0.79595 0.0
H862 H 0.1355 0.97112 0.78251 0.0
H863 H 0.10426 0.11206 0.75757 0.0
H864 H 0.13724 0.04838 0.68984 0.0
H865 H 0.13518 0.08447 0.72803 0.0
H866 H 0.10415 0.94346 0.75299 0.0
H867 H 0.106 0.90703 0.71439 0.0
C868 C 0.13077 0.0312 0.80705 0.0
C869 C 0.12296 0.08173 0.81132 0.0
C870 C 0.12898 1.00982 0.78525 0.0
C871 C 0.11965 0.0386 0.76704 0.0
C872 C 0.11165 0.08901 0.77127 0.0
C873 C 0.11307 0.11019 0.79323 0.0
C874 C 0.12994 1.02488 0.70341 0.0
C875 C 0.12198 0.97452 0.69907 0.0
C876 C 0.12855 0.04588 0.72529 0.0
C877 C 0.11949 1.01691 0.74353 0.0
C878 C 0.11133 0.96663 0.73925 0.0
C879 C 0.11233 0.94582 0.71718 0.0
H880 H 0.60282 0.39596 0.29566 0.0
H881 H 0.64821 0.51934 0.31936 0.0
H882 H 0.6007 0.43689 0.25795 0.0
H883 H 0.64561 0.56036 0.28208 0.0
H884 H 0.61449 0.64203 0.21788 0.0
H885 H 0.61248 0.60194 0.25582 0.0
H886 H 0.63306 0.45652 0.22656 0.0
H887 H 0.63555 0.49635 0.18901 0.0
C888 C 0.61227 0.43174 0.29287 0.0
C889 C 0.62588 0.45403 0.31045 0.0
C890 C 0.61104 0.45518 0.27132 0.0
C891 C 0.62289 0.502 0.26714 0.0
C892 C 0.6361 0.52463 0.28485 0.0
C893 C 0.63777 0.50074 0.30615 0.0
C894 C 0.61847 0.60151 0.21959 0.0
C895 C 0.62544 0.57255 0.20051 0.0
C896 C 0.61737 0.5786 0.24126 0.0
C897 C 0.62259 0.52606 0.24411 0.0
C898 C 0.62878 0.49692 0.22489 0.0
C899 C 0.6304 0.51994 0.20341 0.0
H900 H 0.35906 0.49674 0.32346 0.0
H901 H 0.38086 0.64265 0.29529 0.0
H902 H 0.36101 0.45812 0.28562 0.0
H903 H 0.38235 0.60382 0.25713 0.0
H904 H 0.34761 0.52506 0.19267 0.0
H905 H 0.34954 0.56422 0.23036 0.0
H906 H 0.39328 0.43844 0.25429 0.0
H907 H 0.39181 0.39936 0.2162 0.0
C908 C 0.36421 0.52068 0.30916 0.0
C909 C 0.36961 0.57298 0.31236 0.0
C910 C 0.36552 0.49834 0.28751 0.0
C911 C 0.37183 0.52789 0.26843 0.0
C912 C 0.37735 0.58017 0.27156 0.0
C913 C 0.37654 0.60236 0.29337 0.0
C914 C 0.35764 0.50555 0.20592 0.0
C915 C 0.36942 0.45878 0.20144 0.0
C916 C 0.35891 0.52834 0.22748 0.0
C917 C 0.37162 0.50454 0.24525 0.0
C918 C 0.38331 0.4576 0.24089 0.0
C919 C 0.38247 0.43525 0.21912 0.0
H920 H 0.33103 0.43963 0.79887 0.0
H921 H 0.40571 0.47452 0.81045 0.0
H922 H 0.33199 0.48743 0.7633 0.0
H923 H 0.40649 0.52632 0.77581 0.0
H924 H 0.40595 0.58812 0.70275 0.0
H925 H 0.40699 0.5362 0.73736 0.0
H926 H 0.33118 0.56605 0.74763 0.0
H927 H 0.3301 0.61397 0.7121 0.0
C928 C 0.34771 0.45766 0.79369 0.0
C929 C 0.36833 0.45293 0.80727 0.0
C930 C 0.34823 0.48601 0.77341 0.0
C931 C 0.36921 0.51224 0.7665 0.0
C932 C 0.39002 0.50651 0.78008 0.0
C933 C 0.38964 0.47673 0.80005 0.0
C934 C 0.38963 0.58388 0.71265 0.0
C935 C 0.36796 0.60517 0.7048 0.0
C936 C 0.39015 0.55404 0.7326 0.0
C937 C 0.36909 0.54574 0.74554 0.0
C938 C 0.34768 0.56946 0.73801 0.0
C939 C 0.34706 0.59788 0.71775 0.0
H940 H 0.66211 0.57084 0.81245 0.0
H941 H 0.58983 0.62466 0.79993 0.0
H942 H 0.66141 0.52356 0.77686 0.0
H943 H 0.58932 0.57757 0.76369 0.0
H944 H 0.58998 0.44153 0.71191 0.0
H945 H 0.58911 0.48847 0.74817 0.0
H946 H 0.66192 0.5394 0.73649 0.0
H947 H 0.66295 0.49226 0.70087 0.0
C948 C 0.6461 0.57312 0.80197 0.0
C949 C 0.62606 0.60194 0.80906 0.0
C950 C 0.64574 0.54597 0.78145 0.0
C951 C 0.62533 0.54671 0.76731 0.0
C952 C 0.60526 0.57574 0.77427 0.0
C953 C 0.60565 0.60322 0.7949 0.0
C954 C 0.60587 0.46225 0.71727 0.0
C955 C 0.62658 0.46274 0.70351 0.0
C956 C 0.60528 0.48965 0.73792 0.0
C957 C 0.62545 0.5178 0.7453 0.0
C958 C 0.64616 0.51769 0.73157 0.0
C959 C 0.64671 0.49063 0.71103 0.0
H960 H 0.14393 0.23126 0.94868 0.0
H961 H 0.09076 0.11087 0.95008 0.0
H962 H 0.1424 0.23631 0.99056 0.0
H963 H 0.08852 0.11701 0.99131 0.0
H964 H 0.11691 0.08139 0.06127 0.0
H965 H 0.11559 0.08952 0.02029 0.0
H966 H 0.11946 0.25455 0.02615 0.0
H967 H 0.1214 0.24633 0.06785 0.0
C968 C 0.13151 0.20689 0.95789 0.0
C969 C 0.11776 0.1701 0.9462 0.0
C970 C 0.1306 0.20975 0.98185 0.0
C971 C 0.11575 0.17617 0.99439 0.0
C972 C 0.10073 0.14231 0.98234 0.0
C973 C 0.1019 0.13899 0.95865 0.0
C974 C 0.11737 0.11962 0.05401 0.0
C975 C 0.1191 0.16322 0.06802 0.0
C976 C 0.11645 0.1243 0.03036 0.0
C977 C 0.11705 0.17276 0.0198 0.0
C978 C 0.11899 0.21663 0.0337 0.0
C979 C 0.11996 0.21191 0.05759 0.0
H980 H 0.85874 0.82543 0.94502 0.0
H981 H 0.89412 0.97277 0.94645 0.0
H982 H 0.85974 0.82243 0.98677 0.0
H983 H 0.89609 0.96896 0.98772 0.0
H984 H 0.86883 0.98283 0.05934 0.0
H985 H 0.86946 0.97872 0.01821 0.0
H986 H 0.88302 0.81553 0.02139 0.0
H987 H 0.88148 0.81943 0.06316 0.0
C988 C 0.86704 0.85678 0.95422 0.0
C989 C 0.87602 0.89969 0.94243 0.0
C990 C 0.86772 0.85499 0.97817 0.0
C991 C 0.87763 0.89587 0.99078 0.0
C992 C 0.88763 0.93747 0.97876 0.0
C993 C 0.88664 0.93956 0.95499 0.0
C994 C 0.87207 0.94593 0.05141 0.0
C995 C 0.87531 0.9015 0.06468 0.0
C996 C 0.87259 0.94363 0.02766 0.0
C997 C 0.87668 0.89693 0.01628 0.0
C998 C 0.87971 0.85217 0.02951 0.0
C999 C 0.87896 0.85441 0.05346 0.0
H1000 H 0.0978 0.95373 0.44655 0.0
H1001 H 0.1329 0.80602 0.44322 0.0
H1002 H 0.09846 0.94996 0.48788 0.0
H1003 H 0.13406 0.80277 0.48511 0.0
H1004 H 0.11339 0.81036 0.56428 0.0
H1005 H 0.11018 0.80077 0.52254 0.0
H1006 H 0.13204 0.95863 0.51416 0.0
H1007 H 0.13488 0.96832 0.555 0.0
C1008 C 0.10558 0.92023 0.45466 0.0
C1009 C 0.11564 0.88057 0.44156 0.0
C1010 C 0.10603 0.91813 0.47841 0.0
C1011 C 0.11682 0.8766 0.48984 0.0
C1012 C 0.12566 0.83533 0.47683 0.0
C1013 C 0.12504 0.83725 0.45285 0.0
C1014 C 0.11764 0.84273 0.55341 0.0
C1015 C 0.12394 0.89035 0.56302 0.0
C1016 C 0.11582 0.83726 0.52956 0.0
C1017 C 0.12028 0.87934 0.51504 0.0
C1018 C 0.12771 0.92589 0.52479 0.0
C1019 C 0.12943 0.93134 0.54833 0.0
H1020 H 0.86444 0.07117 0.56062 0.0
H1021 H 0.87844 0.23404 0.56417 0.0
H1022 H 0.86659 0.07453 0.51945 0.0
H1023 H 0.88138 0.23717 0.52247 0.0
H1024 H 0.85992 0.22595 0.44524 0.0
H1025 H 0.85919 0.23003 0.48698 0.0
H1026 H 0.89519 0.08317 0.49016 0.0
H1027 H 0.89509 0.0784 0.44885 0.0
C1028 C 0.8682 0.10779 0.55263 0.0
C1029 C 0.87146 0.15228 0.56582 0.0
C1030 C 0.86961 0.10965 0.52889 0.0
C1031 C 0.87457 0.15596 0.51749 0.0
C1032 C 0.87744 0.20084 0.53062 0.0
C1033 C 0.87585 0.19903 0.55453 0.0
C1034 C 0.86786 0.19483 0.45492 0.0
C1035 C 0.87727 0.15154 0.44372 0.0
C1036 C 0.8675 0.1972 0.47886 0.0
C1037 C 0.87673 0.15649 0.49206 0.0
C1038 C 0.88724 0.11456 0.48068 0.0
C1039 C 0.88734 0.11195 0.4569 0.0
H1040 H 0.61482 0.74165 0.06674 0.0
H1041 H 0.63837 0.58504 0.05725 0.0
H1042 H 0.61112 0.75116 0.02499 0.0
H1043 H 0.63501 0.59466 0.01645 0.0
H1044 H 0.59879 0.59709 0.94974 0.0
H1045 H 0.6002 0.60178 0.99101 0.0
H1046 H 0.63508 0.74946 0.98698 0.0
H1047 H 0.63321 0.74526 0.94511 0.0
C1048 C 0.61942 0.7096 0.05582 0.0
C1049 C 0.6264 0.66229 0.06537 0.0
C1050 C 0.61732 0.71502 0.03198 0.0
C1051 C 0.62219 0.6732 0.01744 0.0
C1052 C 0.63038 0.62712 0.02711 0.0
C1053 C 0.63237 0.62171 0.05062 0.0
C1054 C 0.60659 0.63088 0.95754 0.0
C1055 C 0.61626 0.67039 0.94409 0.0
C1056 C 0.60745 0.63352 0.98126 0.0
C1057 C 0.61824 0.67548 0.99231 0.0
C1058 C 0.6267 0.7166 0.97897 0.0
C1059 C 0.62568 0.7141 0.95502 0.0
H1060 H 0.37898 0.31716 0.94468 0.0
H1061 H 0.36791 0.48099 0.9492 0.0
H1062 H 0.38192 0.31252 0.98633 0.0
H1063 H 0.37007 0.47617 0.99035 0.0
H1064 H 0.36004 0.32332 0.06354 0.0
H1065 H 0.35955 0.3205 0.02175 0.0
H1066 H 0.39847 0.4639 0.01968 0.0
H1067 H 0.39815 0.46747 0.06101 0.0
C1068 C 0.37708 0.3521 0.95451 0.0
C1069 C 0.37344 0.39951 0.94351 0.0
C1070 C 0.37865 0.34941 0.97841 0.0
C1071 C 0.37655 0.39405 0.99181 0.0
C1072 C 0.37245 0.44113 0.98069 0.0
C1073 C 0.37104 0.44385 0.95696 0.0
C1074 C 0.36867 0.3539 0.05409 0.0
C1075 C 0.37883 0.39596 0.06559 0.0
C1076 C 0.36845 0.35226 0.03013 0.0
C1077 C 0.37857 0.39247 0.01723 0.0
C1078 C 0.38983 0.433 0.02892 0.0
C1079 C 0.3898 0.4349 0.05271 0.0
H1080 H 0.59521 0.46039 0.44931 0.0
H1081 H 0.63696 0.32069 0.44908 0.0
H1082 H 0.59323 0.45777 0.49061 0.0
H1083 H 0.63584 0.319 0.4909 0.0
H1084 H 0.61461 0.31722 0.56762 0.0
H1085 H 0.61265 0.31008 0.52594 0.0
H1086 H 0.6205 0.47458 0.52033 0.0
H1087 H 0.62166 0.48178 0.56136 0.0
C1088 C 0.60402 0.42903 0.45813 0.0
C1089 C 0.61652 0.39112 0.44593 0.0
C1090 C 0.60301 0.42766 0.48189 0.0
C1091 C 0.61485 0.38883 0.49424 0.0
C1092 C 0.62647 0.34944 0.48199 0.0
C1093 C 0.62719 0.35045 0.45804 0.0
C1094 C 0.61578 0.35179 0.55742 0.0
C1095 C 0.61804 0.40011 0.56792 0.0
C1096 C 0.61479 0.34768 0.53352 0.0
C1097 C 0.61609 0.3918 0.51967 0.0
C1098 C 0.61874 0.43982 0.53032 0.0
C1099 C 0.61957 0.44393 0.554 0.0
H1100 H 0.37438 0.58107 0.56295 0.0
H1101 H 0.37298 0.74656 0.56778 0.0
H1102 H 0.37595 0.58694 0.52185 0.0
H1103 H 0.37512 0.75243 0.52603 0.0
H1104 H 0.35127 0.72795 0.44855 0.0
H1105 H 0.35214 0.73437 0.49041 0.0
H1106 H 0.40392 0.61084 0.49291 0.0
H1107 H 0.4024 0.60354 0.45169 0.0
C1108 C 0.37462 0.6189 0.55528 0.0
C1109 C 0.37373 0.66335 0.56883 0.0
C1110 C 0.37567 0.62227 0.53157 0.0
C1111 C 0.37604 0.67019 0.52053 0.0
C1112 C 0.37484 0.71489 0.53397 0.0
C1113 C 0.37374 0.71151 0.55789 0.0
C1114 C 0.3631 0.70291 0.45813 0.0
C1115 C 0.37647 0.66472 0.44691 0.0
C1116 C 0.36362 0.70653 0.48208 0.0
C1117 C 0.37768 0.67227 0.4951 0.0
C1118 C 0.39231 0.63677 0.48356 0.0
C1119 C 0.39155 0.63279 0.45987 0.0
H1120 H 0.92736 0.05655 0.12663 0.0
H1121 H 0.95425 0.90905 0.14865 0.0
H1122 H 0.96821 0.09063 0.1272 0.0
H1123 H 0.99472 0.94338 0.15032 0.0
H1124 H 0.06755 1.00296 0.12785 0.0
H1125 H 0.02666 0.96949 0.12714 0.0
H1126 H -6e-05 0.11584 0.15105 0.0
H1127 H 0.04058 0.14971 0.15066 0.0
C1128 C 0.94196 0.03166 0.13186 0.0
C1129 C 0.93766 0.98011 0.13741 0.0
C1130 C 0.96538 0.05116 0.1323 0.0
C1131 C 0.98489 1.01968 0.13869 0.0
C1132 C 0.98033 0.96844 0.14476 0.0
C1133 C 0.95705 0.94882 0.14395 0.0
C1134 C 0.05291 0.02781 0.13299 0.0
C1135 C 0.05724 0.07896 0.13919 0.0
C1136 C 0.02945 1.00864 0.1327 0.0
C1137 C 0.00988 0.03998 0.139 0.0
C1138 C 0.01441 0.09089 0.14561 0.0
C1139 C 0.03777 0.11023 0.14554 0.0
H1140 H 0.95412 0.13843 0.35985 0.0
H1141 H 0.92712 0.9911 0.38189 0.0
H1142 H 0.99455 0.10355 0.358 0.0
H1143 H 0.96785 0.95656 0.3811 0.0
H1144 H 0.03978 0.8962 0.35756 0.0
H1145 H -0.00072 0.93112 0.35685 0.0
H1146 H 0.02643 0.07655 0.38133 0.0
H1147 H 0.06715 0.04208 0.38098 0.0
C1148 C 0.95688 0.09861 0.3645 0.0
C1149 C 0.93748 0.06749 0.37109 0.0
C1150 C 0.98012 0.07867 0.36357 0.0
C1151 C 0.98458 0.0273 0.36955 0.0
C1152 C 0.96507 0.99608 0.37603 0.0
C1153 C 0.94173 1.01587 0.37661 0.0
C1154 C 0.03709 0.93571 0.36272 0.0
C1155 C 0.05661 0.96642 0.36938 0.0
C1156 C 0.01383 0.95565 0.36246 0.0
C1157 C 0.00948 1.00658 0.36919 0.0
C1158 C 0.0291 0.0374 0.3757 0.0
C1159 C 0.05245 1.01764 0.37561 0.0
H1160 H 0.04046 0.14677 0.88645 0.0
H1161 H 0.06733 0.99922 0.86424 0.0
H1162 H -0.00038 0.11401 0.88521 0.0
H1163 H 0.02629 0.9669 0.86241 0.0
H1164 H 0.95394 0.91031 0.88811 0.0
H1165 H 0.99449 0.94422 0.88833 0.0
H1166 H 0.96869 0.08617 0.85898 0.0
H1167 H 0.92773 0.0526 0.8593 0.0
C1168 C 0.03766 0.10742 0.88113 0.0
C1169 C 0.05716 0.0755 0.87552 0.0
C1170 C 0.0142 0.0888 0.88028 0.0
C1171 C 0.00971 0.03792 0.8737 0.0
C1172 C 0.0292 1.0061 0.86787 0.0
C1173 C 0.05271 1.02465 0.86884 0.0
C1174 C 0.95684 0.94877 0.88166 0.0
C1175 C 0.9376 0.97876 0.87364 0.0
C1176 C 0.98016 0.96806 0.88166 0.0
C1177 C 0.98484 1.0177 0.87352 0.0
C1178 C 0.9656 0.0479 0.86557 0.0
C1179 C 0.94217 0.02866 0.86569 0.0
H1180 H 0.92679 1.00274 0.6486 0.0
H1181 H 0.95206 0.14409 0.61823 0.0
H1182 H 0.96799 0.97011 0.64903 0.0
H1183 H 0.9928 0.1112 0.61826 0.0
H1184 H 0.06591 0.0597 0.64383 0.0
H1185 H 0.02457 0.09081 0.64507 0.0
H1186 H -0.00076 0.94241 0.62267 0.0
H1187 H 0.04031 0.91095 0.6219 0.0
C1188 C 0.94105 0.02663 0.64187 0.0
C1189 C 0.93616 0.07604 0.6335 0.0
C1190 C 0.96462 1.00796 0.64208 0.0
C1191 C 0.98364 0.03833 0.63385 0.0
C1192 C 0.97862 0.08734 0.62517 0.0
C1193 C 0.95519 0.106 0.62503 0.0
C1194 C 0.05152 0.03376 0.63917 0.0
C1195 C 0.05642 0.98294 0.63273 0.0
C1196 C 0.02786 0.05158 0.63982 0.0
C1197 C 0.00867 1.01899 0.63395 0.0
C1198 C 0.0136 0.96819 0.6276 0.0
C1199 C 0.0372 0.95034 0.62702 0.0
H1200 H 0.43015 0.55336 0.12554 0.0
H1201 H 0.45527 0.40656 0.15023 0.0
H1202 H 0.47142 0.58497 0.12518 0.0
H1203 H 0.49621 0.43857 0.15092 0.0
H1204 H 0.5694 0.49129 0.12611 0.0
H1205 H 0.52805 0.46044 0.12653 0.0
H1206 H 0.50378 0.61031 0.14838 0.0
H1207 H 0.54485 0.6415 0.1469 0.0
C1208 C 0.44446 0.52814 0.13119 0.0
C1209 C 0.43954 0.47745 0.13774 0.0
C1210 C 0.46811 0.54623 0.13108 0.0
C1211 C 0.48724 0.51421 0.13789 0.0
C1212 C 0.48209 0.46393 0.14502 0.0
C1213 C 0.45855 0.44567 0.14478 0.0
C1214 C 0.55519 0.51751 0.13102 0.0
C1215 C 0.56034 0.56881 0.13634 0.0
C1216 C 0.53148 0.49984 0.13139 0.0
C1217 C 0.51249 0.53291 0.13747 0.0
C1218 C 0.51781 0.58403 0.14315 0.0
C1219 C 0.54142 0.60184 0.14243 0.0
H1220 H 0.45349 0.64063 0.38716 0.0
H1221 H 0.42721 0.49377 0.36361 0.0
H1222 H 0.49442 0.60819 0.3862 0.0
H1223 H 0.46835 0.46178 0.36198 0.0
H1224 H 0.54018 0.40397 0.38848 0.0
H1225 H 0.49962 0.43778 0.38787 0.0
H1226 H 0.52616 0.58149 0.36101 0.0
H1227 H 0.56716 0.54799 0.36226 0.0
C1228 C 0.45645 0.60152 0.38157 0.0
C1229 C 0.43707 0.56966 0.37556 0.0
C1230 C 0.47997 0.58306 0.38087 0.0
C1231 C 0.48467 0.53242 0.37403 0.0
C1232 C 0.4653 0.50077 0.36769 0.0
C1233 C 0.44173 0.51912 0.36854 0.0
C1234 C 0.53745 0.44279 0.38238 0.0
C1235 C 0.55693 0.4733 0.37537 0.0
C1236 C 0.5141 0.46204 0.38189 0.0
C1237 C 0.5096 0.51217 0.37422 0.0
C1238 C 0.52907 0.54284 0.36723 0.0
C1239 C 0.55254 0.52363 0.36787 0.0
H1240 H 0.4537 0.4122 0.88861 0.0
H1241 H 0.42532 0.55247 0.85968 0.0
H1242 H 0.49385 0.44846 0.88815 0.0
H1243 H 0.4658 0.58833 0.85869 0.0
H1244 H 0.53696 0.65427 0.8845 0.0
H1245 H 0.49666 0.61861 0.8843 0.0
H1246 H 0.52508 0.47274 0.86183 0.0
H1247 H 0.56564 0.50802 0.86261 0.0
C1248 C 0.45603 0.45072 0.88202 0.0
C1249 C 0.43629 0.47947 0.87417 0.0
C1250 C 0.47911 0.47135 0.88162 0.0
C1251 C 0.48305 0.52113 0.87326 0.0
C1252 C 0.46331 0.55003 0.86547 0.0
C1253 C 0.44013 0.52945 0.86598 0.0
C1254 C 0.53467 0.61457 0.87947 0.0
C1255 C 0.55455 0.58393 0.87361 0.0
C1256 C 0.51151 0.59426 0.87922 0.0
C1257 C 0.50765 0.54291 0.87301 0.0
C1258 C 0.5275 0.5123 0.867 0.0
C1259 C 0.55073 0.53256 0.86736 0.0
H1260 H 0.42601 0.50647 0.6287 0.0
H1261 H 0.45332 0.65363 0.65054 0.0
H1262 H 0.46685 0.47232 0.62839 0.0
H1263 H 0.49384 0.61916 0.65135 0.0
H1264 H 0.56614 0.55872 0.62763 0.0
H1265 H 0.52529 0.59274 0.62744 0.0
H1266 H 0.49869 0.44698 0.65216 0.0
H1267 H 0.53923 0.41256 0.65125 0.0
C1268 C 0.44072 0.53127 0.63368 0.0
C1269 C 0.43655 0.58271 0.63947 0.0
C1270 C 0.46412 0.51173 0.63362 0.0
C1271 C 0.48371 0.54306 0.63976 0.0
C1272 C 0.47933 0.59425 0.646 0.0
C1273 C 0.45605 0.61394 0.64568 0.0
C1274 C 0.55152 0.53414 0.63305 0.0
C1275 C 0.5558 0.483 0.63931 0.0
C1276 C 0.52811 0.5536 0.63305 0.0
C1277 C 0.50862 0.52254 0.63972 0.0
C1278 C 0.51312 0.47166 0.64642 0.0
C1279 C 0.53641 0.45202 0.64604 0.0
H1280 H 0.09635 0.78067 0.11735 0.0
H1281 H 0.17159 0.7584 0.13258 0.0
H1282 H 0.08977 0.68831 0.12042 0.0
H1283 H 0.16503 0.66637 0.13571 0.0
H1284 H 0.15022 0.4981 0.12029 0.0
H1285 H 0.15611 0.58997 0.11457 0.0
H1286 H 0.0884 0.62035 0.14795 0.0
H1287 H 0.08201 0.52861 0.15272 0.0
C1288 C 0.11148 0.75618 0.12145 0.0
C1289 C 0.13452 0.77728 0.12464 0.0
C1290 C 0.10771 0.70308 0.12323 0.0
C1291 C 0.12686 0.66952 0.12831 0.0
C1292 C 0.1499 0.69066 0.13137 0.0
C1293 C 0.15367 0.74366 0.12956 0.0
C1294 C 0.13642 0.52428 0.12615 0.0
C1295 C 0.11567 0.50559 0.13707 0.0
C1296 C 0.13994 0.57716 0.12311 0.0
C1297 C 0.1228 0.61295 0.13087 0.0
C1298 C 0.10191 0.59418 0.14152 0.0
C1299 C 0.0984 0.54137 0.14455 0.0
H1300 H 0.84176 0.29859 0.09275 0.0
H1301 H 0.88216 0.27557 0.15482 0.0
H1302 H 0.84752 0.39107 0.09611 0.0
H1303 H 0.88878 0.3677 0.15765 0.0
H1304 H 0.87305 0.53678 0.17073 0.0
H1305 H 0.86716 0.44474 0.16642 0.0
H1306 H 0.87669 0.45923 0.09361 0.0
H1307 H 0.88247 0.55164 0.09795 0.0
C1308 C 0.85196 0.31314 0.10708 0.0
C1309 C 0.8614 0.27928 0.12354 0.0
C1310 C 0.85549 0.3663 0.10888 0.0
C1311 C 0.86853 0.38723 0.12723 0.0
C1312 C 0.87832 0.35327 0.14346 0.0
C1313 C 0.87481 0.30016 0.14165 0.0
C1314 C 0.87404 0.52039 0.15379 0.0
C1315 C 0.87838 0.55187 0.13471 0.0
C1316 C 0.87071 0.46741 0.15131 0.0
C1317 C 0.87164 0.44412 0.12968 0.0
C1318 C 0.87559 0.47569 0.11053 0.0
C1319 C 0.87889 0.52882 0.11301 0.0
H1320 H 0.17054 0.28538 0.37786 0.0
H1321 H 0.09519 0.26376 0.39259 0.0
H1322 H 0.16407 0.3774 0.37442 0.0
H1323 H 0.08869 0.35613 0.38927 0.0
H1324 H 0.08113 0.51578 0.35693 0.0
H1325 H 0.08743 0.42403 0.36183 0.0
H1326 H 0.15519 0.4541 0.39519 0.0
H1327 H 0.14941 0.54595 0.38931 0.0
C1328 C 0.15262 0.30027 0.38069 0.0
C1329 C 0.13342 0.26683 0.38559 0.0
C1330 C 0.14889 0.35328 0.37872 0.0
C1331 C 0.12584 0.37462 0.38158 0.0
C1332 C 0.10664 0.34122 0.3866 0.0
C1333 C 0.11037 0.28811 0.38853 0.0
C1334 C 0.09752 0.50295 0.36512 0.0
C1335 C 0.11483 0.53866 0.37254 0.0
C1336 C 0.10098 0.45012 0.36822 0.0
C1337 C 0.12185 0.43124 0.37891 0.0
C1338 C 0.13903 0.46696 0.38662 0.0
C1339 C 0.13557 0.51986 0.38349 0.0
H1340 H 0.88623 0.49559 0.40992 0.0
H1341 H 0.86797 0.51031 0.33865 0.0
H1342 H 0.88107 0.58802 0.41481 0.0
H1343 H 0.86273 0.60243 0.34352 0.0
H1344 H 0.87932 0.77153 0.35347 0.0
H1345 H 0.88544 0.67934 0.34992 0.0
H1346 H 0.85168 0.6562 0.41543 0.0
H1347 H 0.84644 0.74873 0.41939 0.0
C1348 C 0.88084 0.51838 0.39534 0.0
C1349 C 0.87765 0.49528 0.37385 0.0
C1350 C 0.8779 0.57152 0.39814 0.0
C1351 C 0.87165 0.60307 0.37954 0.0
C1352 C 0.86808 0.57975 0.35815 0.0
C1353 C 0.87104 0.52673 0.35536 0.0
C1354 C 0.87354 0.74697 0.36731 0.0
C1355 C 0.86236 0.76792 0.38673 0.0
C1356 C 0.87674 0.69384 0.36513 0.0
C1357 C 0.86889 0.65995 0.38229 0.0
C1358 C 0.85812 0.68094 0.40191 0.0
C1359 C 0.85488 0.73412 0.40408 0.0
H1360 H 0.88144 0.27663 0.85162 0.0
H1361 H 0.84403 0.2983 0.91542 0.0
H1362 H 0.88781 0.36886 0.84878 0.0
H1363 H 0.84955 0.39088 0.9121 0.0
H1364 H 0.88437 0.5514 0.9092 0.0
H1365 H 0.879 0.45887 0.9135 0.0
H1366 H 0.86535 0.44578 0.84123 0.0
H1367 H 0.87081 0.53798 0.83695 0.0
C1368 C 0.87471 0.30095 0.86516 0.0
C1369 C 0.8622 0.27972 0.88375 0.0
C1370 C 0.87807 0.35409 0.86336 0.0
C1371 C 0.86903 0.38765 0.8801 0.0
C1372 C 0.85691 0.36636 0.89894 0.0
C1373 C 0.85353 0.31318 0.90072 0.0
C1374 C 0.87997 0.52886 0.89427 0.0
C1375 C 0.87816 0.55231 0.87271 0.0
C1376 C 0.87691 0.47569 0.89673 0.0
C1377 C 0.87191 0.44452 0.87769 0.0
C1378 C 0.86971 0.46819 0.85621 0.0
C1379 C 0.8728 0.52124 0.85376 0.0
H1380 H 0.15301 0.49292 0.89012 0.0
H1381 H 0.08952 0.52065 0.84953 0.0
H1382 H 0.15889 0.58528 0.89412 0.0
H1383 H 0.09597 0.61273 0.85269 0.0
H1384 H 0.10006 0.7745 0.88331 0.0
H1385 H 0.0939 0.68231 0.87941 0.0
H1386 H 0.17052 0.66026 0.87272 0.0
H1387 H 0.17667 0.75242 0.87665 0.0
C1388 C 0.14028 0.51861 0.88206 0.0
C1389 C 0.12081 0.499 0.86946 0.0
C1390 C 0.14381 0.57171 0.88412 0.0
C1391 C 0.12796 0.60677 0.87368 0.0
C1392 C 0.10844 0.58712 0.86117 0.0
C1393 C 0.10492 0.5341 0.85911 0.0
C1394 C 0.11559 0.75013 0.88073 0.0
C1395 C 0.13888 0.77119 0.88034 0.0
C1396 C 0.11206 0.69708 0.87852 0.0
C1397 C 0.13171 0.6635 0.87582 0.0
C1398 C 0.15497 0.68464 0.8752 0.0
C1399 C 0.1585 0.73766 0.87742 0.0
H1400 H 0.82191 0.75549 0.63664 0.0
H1401 H 0.89533 0.77934 0.61526 0.0
H1402 H 0.82897 0.6634 0.63835 0.0
H1403 H 0.90241 0.68696 0.61692 0.0
H1404 H 0.91357 0.52609 0.64716 0.0
H1405 H 0.90652 0.61794 0.64374 0.0
H1406 H 0.8361 0.58816 0.61571 0.0
H1407 H 0.84274 0.49613 0.62011 0.0
C1408 C 0.8395 0.7411 0.63198 0.0
C1409 C 0.85802 0.77515 0.62575 0.0
C1410 C 0.84356 0.68809 0.63296 0.0
C1411 C 0.86627 0.6674 0.62776 0.0
C1412 C 0.88477 0.70139 0.62138 0.0
C1413 C 0.88071 0.7545 0.62042 0.0
C1414 C 0.89647 0.53901 0.64046 0.0
C1415 C 0.87867 0.50336 0.63409 0.0
C1416 C 0.89254 0.59188 0.6382 0.0
C1417 C 0.87071 0.61081 0.62945 0.0
C1418 C 0.85302 0.57518 0.62279 0.0
C1419 C 0.85695 0.52223 0.62506 0.0
H1420 H 0.17499 0.31055 0.62047 0.0
H1421 H 0.10204 0.28208 0.6422 0.0
H1422 H 0.16819 0.40254 0.62362 0.0
H1423 H 0.09559 0.37416 0.6464 0.0
H1424 H 0.08328 0.54165 0.62599 0.0
H1425 H 0.09049 0.44965 0.62361 0.0
H1426 H 0.16232 0.47177 0.6498 0.0
H1427 H 0.1551 0.56402 0.65205 0.0
C1428 C 0.15749 0.32381 0.626 0.0
C1429 C 0.13902 0.28853 0.6309 0.0
C1430 C 0.15368 0.37677 0.62808 0.0
C1431 C 0.13129 0.39617 0.63519 0.0
C1432 C 0.11296 0.36086 0.64054 0.0
C1433 C 0.11677 0.30785 0.63843 0.0
C1434 C 0.10057 0.52694 0.63141 0.0
C1435 C 0.11856 0.56052 0.63929 0.0
C1436 C 0.10471 0.47398 0.63009 0.0
C1437 C 0.12696 0.45286 0.63663 0.0
C1438 C 0.14505 0.48649 0.64433 0.0
C1439 C 0.14092 0.53955 0.64561 0.0
H1440 H 0.60951 0.99643 0.10797 0.0
H1441 H 0.64192 1.00188 0.17484 0.0
H1442 H 0.61518 0.08878 0.10398 0.0
H1443 H 0.64768 0.0942 0.17083 0.0
H1444 H 0.63248 0.26678 0.16569 0.0
H1445 H 0.62603 0.1745 0.16963 0.0
H1446 H 0.64556 0.15312 0.099 0.0
H1447 H 0.65108 0.24529 0.09485 0.0
C1448 C 0.61811 1.01717 0.12173 0.0
C1449 C 0.62524 0.99145 0.14174 0.0
C1450 C 0.62135 0.07029 0.11946 0.0
C1451 C 0.63186 0.09928 0.1371 0.0
C1452 C 0.63913 0.07348 0.15704 0.0
C1453 C 0.63586 1.02038 0.15933 0.0
C1454 C 0.63516 0.24247 0.15093 0.0
C1455 C 0.6424 0.26372 0.12997 0.0
C1456 C 0.63173 0.18936 0.15326 0.0
C1457 C 0.63533 0.15603 0.13466 0.0
C1458 C 0.64238 0.17742 0.11366 0.0
C1459 C 0.64585 0.2304 0.11136 0.0
H1460 H 0.34957 0.79802 0.08817 0.0
H1461 H 0.38044 0.77588 0.15504 0.0
H1462 H 0.35449 0.89064 0.09216 0.0
H1463 H 0.38623 0.86814 0.15864 0.0
H1464 H 0.36757 0.03679 0.16921 0.0
H1465 H 0.3627 0.94463 0.16421 0.0
H1466 H 0.38397 0.95885 0.09367 0.0
H1467 H 0.38878 0.05132 0.09869 0.0
C1468 C 0.35751 0.81282 0.10369 0.0
C1469 C 0.36453 0.77923 0.1213 0.0
C1470 C 0.36055 0.866 0.10588 0.0
C1471 C 0.37065 0.88713 0.12578 0.0
C1472 C 0.37806 0.85345 0.14321 0.0
C1473 C 0.37505 0.80032 0.141 0.0
C1474 C 0.37135 1.02031 0.15265 0.0
C1475 C 0.3787 0.05166 0.1344 0.0
C1476 C 0.3686 0.9673 0.14979 0.0
C1477 C 0.37312 0.94397 0.12858 0.0
C1478 C 0.38008 0.97542 0.11019 0.0
C1479 C 0.38282 0.02855 0.11306 0.0
H1480 H 0.5896 0.0369 0.40389 0.0
H1481 H 0.64605 0.04039 0.35339 0.0
H1482 H 0.59564 0.94469 0.40869 0.0
H1483 H 0.65153 0.94808 0.35761 0.0
H1484 H 0.6722 0.79261 0.38695 0.0
H1485 H 0.66643 0.88498 0.38423 0.0
H1486 H 0.58958 0.86396 0.38858 0.0
H1487 H 0.59541 0.77139 0.3922 0.0
C1488 C 0.60338 1.01809 0.39389 0.0
C1489 C 0.61735 0.04624 0.37826 0.0
C1490 C 0.60665 0.96504 0.39644 0.0
C1491 C 0.62405 0.93874 0.38352 0.0
C1492 C 0.63813 0.96701 0.36803 0.0
C1493 C 0.63481 1.01996 0.36543 0.0
C1494 C 0.65406 0.80759 0.38768 0.0
C1495 C 0.63429 0.77429 0.3899 0.0
C1496 C 0.65073 0.86068 0.3858 0.0
C1497 C 0.62753 0.88212 0.38608 0.0
C1498 C 0.60773 0.84893 0.3885 0.0
C1499 C 0.61106 0.79572 0.39034 0.0
H1500 H 0.39957 1.01344 0.34503 0.0
H1501 H 0.34421 0.9867 0.39526 0.0
H1502 H 0.39328 0.10559 0.34841 0.0
H1503 H 0.33865 0.0791 0.39937 0.0
H1504 H 0.31718 0.245 0.38387 0.0
H1505 H 0.32304 0.15288 0.37946 0.0
H1506 H 0.39966 0.17634 0.374 0.0
H1507 H 0.39379 0.26856 0.37841 0.0
C1508 C 0.38599 0.02711 0.35677 0.0
C1509 C 0.37233 0.99227 0.36978 0.0
C1510 C 0.3826 0.08018 0.35893 0.0
C1511 C 0.36545 0.1001 0.37418 0.0
C1512 C 0.35182 0.06531 0.38724 0.0
C1513 C 0.35522 1.01218 0.38509 0.0
C1514 C 0.33532 0.23058 0.38186 0.0
C1515 C 0.35501 0.2645 0.38158 0.0
C1516 C 0.33868 0.17758 0.37936 0.0
C1517 C 0.36185 0.15684 0.37648 0.0
C1518 C 0.38152 0.19081 0.37589 0.0
C1519 C 0.37815 0.24386 0.37839 0.0
H1520 H 0.32232 0.7982 0.87407 0.0
H1521 H 0.39668 0.77324 0.89213 0.0
H1522 H 0.32951 0.89019 0.87212 0.0
H1523 H 0.40388 0.86552 0.89023 0.0
H1524 H 0.414 0.02679 0.86015 0.0
H1525 H 0.40691 0.93499 0.86361 0.0
H1526 H 0.33782 0.96526 0.89437 0.0
H1527 H 0.34445 0.05725 0.88994 0.0
C1528 C 0.34017 0.81231 0.87794 0.0
C1529 C 0.35889 0.77794 0.88332 0.0
C1530 C 0.3443 0.8653 0.87682 0.0
C1531 C 0.36729 0.88569 0.88104 0.0
C1532 C 0.38601 0.85137 0.88653 0.0
C1533 C 0.38187 0.79829 0.88763 0.0
C1534 C 0.39716 1.01402 0.86747 0.0
C1535 C 0.37974 0.04983 0.87459 0.0
C1536 C 0.39323 0.96114 0.86974 0.0
C1537 C 0.37176 0.94231 0.87927 0.0
C1538 C 0.35445 0.97811 0.88668 0.0
C1539 C 0.35838 0.03106 0.88439 0.0
H1540 H 0.61433 0.28658 0.85201 0.0
H1541 H 0.64257 0.26436 0.91991 0.0
H1542 H 0.60827 0.1944 0.84835 0.0
H1543 H 0.63744 0.17186 0.91588 0.0
H1544 H 0.60301 1.0118 0.90889 0.0
H1545 H 0.60801 0.10424 0.9137 0.0
H1546 H 0.63105 0.11693 0.84361 0.0
H1547 H 0.62594 1.02476 0.8388 0.0
C1548 C 0.6191 0.26215 0.86625 0.0
C1549 C 0.62895 0.28325 0.88627 0.0
C1550 C 0.61594 0.20903 0.86402 0.0
C1551 C 0.62252 0.17531 0.88174 0.0
C1552 C 0.63199 0.19646 0.90192 0.0
C1553 C 0.63518 0.24962 0.90414 0.0
C1554 C 0.60939 0.03421 0.89457 0.0
C1555 C 0.61395 1.01062 0.87342 0.0
C1556 C 0.61225 0.08736 0.89732 0.0
C1557 C 0.6198 0.11843 0.87901 0.0
C1558 C 0.6247 0.09463 0.85798 0.0
C1559 C 0.62181 0.04159 0.85522 0.0
H1560 H 0.41336 0.03346 0.65043 0.0
H1561 H 0.34267 1.00316 0.62313 0.0
H1562 H 0.40649 0.12523 0.64637 0.0
H1563 H 0.33622 0.09509 0.61807 0.0
H1564 H 0.32211 0.26322 0.63766 0.0
H1565 H 0.32901 0.17116 0.64002 0.0
H1566 H 0.40273 0.19355 0.61924 0.0
H1567 H 0.39582 0.28593 0.61697 0.0
C1568 C 0.39632 0.04628 0.64354 0.0
C1569 C 0.37851 1.01055 0.63729 0.0
C1570 C 0.39251 0.09911 0.6409 0.0
C1571 C 0.37077 0.11795 0.63189 0.0
C1572 C 0.35307 0.08222 0.62535 0.0
C1573 C 0.35689 0.02931 0.62799 0.0
C1574 C 0.33974 0.24858 0.63329 0.0
C1575 C 0.35838 0.28232 0.62706 0.0
C1576 C 0.3437 0.19556 0.63464 0.0
C1577 C 0.36644 0.17454 0.62981 0.0
C1578 C 0.38507 0.20824 0.62344 0.0
C1579 C 0.3811 0.26135 0.62211 0.0
H1580 H 0.64886 0.80228 0.59403 0.0
H1581 H 0.61274 0.77922 0.6584 0.0
H1582 H 0.64338 0.89479 0.59781 0.0
H1583 H 0.60641 0.8714 0.66171 0.0
H1584 H 0.62335 0.04037 0.67387 0.0
H1585 H 0.6288 0.94828 0.66917 0.0
H1586 H 0.61395 0.96295 0.59717 0.0
H1587 H 0.60857 0.05537 0.60189 0.0
C1588 C 0.63966 0.81683 0.60896 0.0
C1589 C 0.63133 0.78297 0.62593 0.0
C1590 C 0.63629 0.87 0.61101 0.0
C1591 C 0.62454 0.89091 0.63013 0.0
C1592 C 0.61585 0.85695 0.6469 0.0
C1593 C 0.61919 0.80384 0.64484 0.0
C1594 C 0.62108 1.02402 0.65704 0.0
C1595 C 0.61538 0.05554 0.6383 0.0
C1596 C 0.62417 0.97101 0.65434 0.0
C1597 C 0.62165 0.94778 0.63281 0.0
C1598 C 0.6163 0.97939 0.61397 0.0
C1599 C 0.61323 0.03252 0.61668 0.0
loop_
_geom_bond_atom_site_label_1
_geom_bond_atom_site_label_2
_geom_bond_distance
_geom_bond_site_symmetry_2
_ccdc_geom_bond_type
Tb0 C9 2.764 . S
Tb0 O10 2.325 . S
Tb0 O13 2.303 . S
Tb0 O17 2.322 . S
Tb0 O18 2.349 . S
Tb0 O21 2.415 . S
Tb0 O22 2.399 . S
Tb1 O11 2.322 . S
Tb1 O12 2.349 . S
Tb1 O14 2.415 1_545 S
Tb1 O15 2.399 1_545 S
Tb1 O16 2.325 . S
Tb1 O19 2.303 . S
Tb1 C30 2.764 1_545 S
C2 O18 1.261 . S
C2 O19 1.257 . S
C3 C6 1.358 . S
C3 C7 1.332 . S
C3 C9 1.504 . S
C4 C5 1.373 . S
C4 C8 1.308 . S
C5 C4 1.373 . S
C5 C6 1.429 . S
C5 H32 0.932 . S
C6 C3 1.358 . S
C6 C5 1.429 . S
C6 H33 0.930 . S
C7 C3 1.332 . S
C7 C8 1.394 . S
C7 H34 0.932 . S
C8 C4 1.308 . S
C8 C7 1.394 . S
C8 H35 0.929 . S
C9 Tb0 2.764 . S
C9 C3 1.504 . S
C9 O21 1.239 . S
C9 O22 1.263 . S
O10 Tb0 2.325 . S
O10 C20 1.236 . S
O11 Tb1 2.322 . S
O11 C20 1.257 . S
O12 Tb1 2.349 . S
O12 C23 1.261 . S
O13 Tb0 2.303 . S
O13 C23 1.257 . S
O14 Tb1 2.415 1_565 S
O14 C30 1.239 . S
O15 Tb1 2.399 1_565 S
O15 C30 1.263 . S
O16 Tb1 2.325 . S
O16 C31 1.236 . S
O17 Tb0 2.322 . S
O17 C31 1.257 . S
O18 Tb0 2.349 . S
O18 C2 1.261 . S
O19 Tb1 2.303 . S
O19 C2 1.257 . S
C20 O10 1.236 . S
C20 O11 1.257 . S
O21 Tb0 2.415 . S
O21 C9 1.239 . S
O22 Tb0 2.399 . S
O22 C9 1.263 . S
C23 O12 1.261 . S
C23 O13 1.257 . S
C24 C27 1.358 . S
C24 C28 1.332 . S
C24 C30 1.504 . S
C25 C26 1.373 . S
C25 C29 1.308 . S
C26 C25 1.373 . S
C26 C27 1.429 . S
C26 H36 0.932 . S
C27 C24 1.358 . S
C27 C26 1.429 . S
C27 H37 0.930 . S
C28 C24 1.332 . S
C28 C29 1.394 . S
C28 H38 0.932 . S
C29 C25 1.308 . S
C29 C28 1.394 . S
C29 H39 0.929 . S
C30 Tb1 2.764 1_565 S
C30 O14 1.239 . S
C30 O15 1.263 . S
C30 C24 1.504 . S
C31 O16 1.236 . S
C31 O17 1.257 . S
H32 C5 0.932 . S
H33 C6 0.930 . S
H34 C7 0.932 . S
H35 C8 0.929 . S
H36 C26 0.932 . S
H37 C27 0.930 . S
H38 C28 0.932 . S
H39 C29 0.929 . S
Tb40 C49 2.764 . S
Tb40 O50 2.325 . S
Tb40 O53 2.303 . S
Tb40 O57 2.322 . S
Tb40 O58 2.349 . S
Tb40 O61 2.415 . S
Tb40 O62 2.399 . S
Tb41 O51 2.322 . S
Tb41 O52 2.349 . S
Tb41 O54 2.415 1_565 S
Tb41 O55 2.399 1_565 S
Tb41 O56 2.325 . S
Tb41 O59 2.303 . S
Tb41 C70 2.764 1_565 S
C42 O58 1.261 . S
C42 O59 1.257 . S
C43 C46 1.358 . S
C43 C47 1.332 . S
C43 C49 1.504 . S
C44 C45 1.373 . S
C44 C48 1.308 . S
C45 C44 1.373 . S
C45 C46 1.429 . S
C45 H72 0.932 . S
C46 C43 1.358 . S
C46 C45 1.429 . S
C46 H73 0.930 . S
C47 C43 1.332 . S
C47 C48 1.394 . S
C47 H74 0.932 . S
C48 C44 1.308 . S
C48 C47 1.394 . S
C48 H75 0.929 . S
C49 Tb40 2.764 . S
C49 C43 1.504 . S
C49 O61 1.239 . S
C49 O62 1.263 . S
O50 Tb40 2.325 . S
O50 C60 1.236 . S
O51 Tb41 2.322 . S
O51 C60 1.257 . S
O52 Tb41 2.349 . S
O52 C63 1.261 . S
O53 Tb40 2.303 . S
O53 C63 1.257 . S
O54 Tb41 2.415 1_545 S
O54 C70 1.239 . S
O55 Tb41 2.399 1_545 S
O55 C70 1.263 . S
O56 Tb41 2.325 . S
O56 C71 1.236 . S
O57 Tb40 2.322 . S
O57 C71 1.257 . S
O58 Tb40 2.349 . S
O58 C42 1.261 . S
O59 Tb41 2.303 . S
O59 C42 1.257 . S
C60 O50 1.236 . S
C60 O51 1.257 . S
O61 Tb40 2.415 . S
O61 C49 1.239 . S
O62 Tb40 2.399 . S
O62 C49 1.263 . S
C63 O52 1.261 . S
C63 O53 1.257 . S
C64 C67 1.358 . S
C64 C68 1.332 . S
C64 C70 1.504 . S
C65 C66 1.373 . S
C65 C69 1.308 . S
C66 C65 1.373 . S
C66 C67 1.429 . S
C66 H76 0.932 . S
C67 C64 1.358 . S
C67 C66 1.429 . S
C67 H77 0.930 . S
C68 C64 1.332 . S
C68 C69 1.394 . S
C68 H78 0.932 . S
C69 C65 1.308 . S
C69 C68 1.394 . S
C69 H79 0.929 . S
C70 Tb41 2.764 1_545 S
C70 O54 1.239 . S
C70 O55 1.263 . S
C70 C64 1.504 . S
C71 O56 1.236 . S
C71 O57 1.257 . S
H72 C45 0.932 . S
H73 C46 0.930 . S
H74 C47 0.932 . S
H75 C48 0.929 . S
H76 C66 0.932 . S
H77 C67 0.930 . S
H78 C68 0.932 . S
H79 C69 0.929 . S
Tb80 C89 2.764 . S
Tb80 O90 2.325 . S
Tb80 O93 2.303 . S
Tb80 O97 2.322 . S
Tb80 O98 2.349 . S
Tb80 O101 2.415 . S
Tb80 O102 2.399 . S
Tb81 O91 2.322 . S
Tb81 O92 2.349 . S
Tb81 O94 2.415 1_565 S
Tb81 O95 2.399 1_565 S
Tb81 O96 2.325 . S
Tb81 O99 2.303 . S
Tb81 C110 2.764 1_565 S
C82 O98 1.261 . S
C82 O99 1.257 . S
C83 C86 1.358 . S
C83 C87 1.332 . S
C83 C89 1.504 . S
C84 C85 1.373 . S
C84 C88 1.308 . S
C85 C84 1.373 . S
C85 C86 1.429 . S
C85 H112 0.932 . S
C86 C83 1.358 . S
C86 C85 1.429 . S
C86 H113 0.930 . S
C87 C83 1.332 . S
C87 C88 1.394 . S
C87 H114 0.932 . S
C88 C84 1.308 . S
C88 C87 1.394 . S
C88 H115 0.929 . S
C89 Tb80 2.764 . S
C89 C83 1.504 . S
C89 O101 1.239 . S
C89 O102 1.263 . S
O90 Tb80 2.325 . S
O90 C100 1.236 . S
O91 Tb81 2.322 . S
O91 C100 1.257 . S
O92 Tb81 2.349 . S
O92 C103 1.261 . S
O93 Tb80 2.303 . S
O93 C103 1.257 . S
O94 Tb81 2.415 1_545 S
O94 C110 1.239 . S
O95 Tb81 2.399 1_545 S
O95 C110 1.263 . S
O96 Tb81 2.325 . S
O96 C111 1.236 . S
O97 Tb80 2.322 . S
O97 C111 1.257 . S
O98 Tb80 2.349 . S
O98 C82 1.261 . S
O99 Tb81 2.303 . S
O99 C82 1.257 . S
C100 O90 1.236 . S
C100 O91 1.257 . S
O101 Tb80 2.415 . S
O101 C89 1.239 . S
O102 Tb80 2.399 . S
O102 C89 1.263 . S
C103 O92 1.261 . S
C103 O93 1.257 . S
C104 C107 1.358 . S
C104 C108 1.332 . S
C104 C110 1.504 . S
C105 C106 1.373 . S
C105 C109 1.308 . S
C106 C105 1.373 . S
C106 C107 1.429 . S
C106 H116 0.932 . S
C107 C104 1.358 . S
C107 C106 1.429 . S
C107 H117 0.930 . S
C108 C104 1.332 . S
C108 C109 1.394 . S
C108 H118 0.932 . S
C109 C105 1.308 . S
C109 C108 1.394 . S
C109 H119 0.929 . S
C110 Tb81 2.764 1_545 S
C110 O94 1.239 . S
C110 O95 1.263 . S
C110 C104 1.504 . S
C111 O96 1.236 . S
C111 O97 1.257 . S
H112 C85 0.932 . S
H113 C86 0.930 . S
H114 C87 0.932 . S
H115 C88 0.929 . S
H116 C106 0.932 . S
H117 C107 0.930 . S
H118 C108 0.932 . S
H119 C109 0.929 . S
Tb120 C129 2.764 . S
Tb120 O130 2.325 . S
Tb120 O133 2.303 . S
Tb120 O137 2.322 . S
Tb120 O138 2.349 . S
Tb120 O141 2.415 . S
Tb120 O142 2.399 . S
Tb121 O131 2.322 . S
Tb121 O132 2.349 . S
Tb121 O134 2.415 1_545 S
Tb121 O135 2.399 1_545 S
Tb121 O136 2.325 . S
Tb121 O139 2.303 . S
Tb121 C150 2.764 1_545 S
C122 O138 1.261 . S
C122 O139 1.257 . S
C123 C126 1.358 . S
C123 C127 1.332 . S
C123 C129 1.504 . S
C124 C125 1.373 . S
C124 C128 1.308 . S
C125 C124 1.373 . S
C125 C126 1.429 . S
C125 H152 0.932 . S
C126 C123 1.358 . S
C126 C125 1.429 . S
C126 H153 0.930 . S
C127 C123 1.332 . S
C127 C128 1.394 . S
C127 H154 0.932 . S
C128 C124 1.308 . S
C128 C127 1.394 . S
C128 H155 0.929 . S
C129 Tb120 2.764 . S
C129 C123 1.504 . S
C129 O141 1.239 . S
C129 O142 1.263 . S
O130 Tb120 2.325 . S
O130 C140 1.236 . S
O131 Tb121 2.322 . S
O131 C140 1.257 . S
O132 Tb121 2.349 . S
O132 C143 1.261 . S
O133 Tb120 2.303 . S
O133 C143 1.257 . S
O134 Tb121 2.415 1_565 S
O134 C150 1.239 . S
O135 Tb121 2.399 1_565 S
O135 C150 1.263 . S
O136 Tb121 2.325 . S
O136 C151 1.236 . S
O137 Tb120 2.322 . S
O137 C151 1.257 . S
O138 Tb120 2.349 . S
O138 C122 1.261 . S
O139 Tb121 2.303 . S
O139 C122 1.257 . S
C140 O130 1.236 . S
C140 O131 1.257 . S
O141 Tb120 2.415 . S
O141 C129 1.239 . S
O142 Tb120 2.399 . S
O142 C129 1.263 . S
C143 O132 1.261 . S
C143 O133 1.257 . S
C144 C147 1.358 . S
C144 C148 1.332 . S
C144 C150 1.504 . S
C145 C146 1.373 . S
C145 C149 1.308 . S
C146 C145 1.373 . S
C146 C147 1.429 . S
C146 H156 0.932 . S
C147 C144 1.358 . S
C147 C146 1.429 . S
C147 H157 0.930 . S
C148 C144 1.332 . S
C148 C149 1.394 . S
C148 H158 0.932 . S
C149 C145 1.308 . S
C149 C148 1.394 . S
C149 H159 0.929 . S
C150 Tb121 2.764 1_565 S
C150 O134 1.239 . S
C150 O135 1.263 . S
C150 C144 1.504 . S
C151 O136 1.236 . S
C151 O137 1.257 . S
H152 C125 0.932 . S
H153 C126 0.930 . S
H154 C127 0.932 . S
H155 C128 0.929 . S
H156 C146 0.932 . S
H157 C147 0.930 . S
H158 C148 0.932 . S
H159 C149 0.929 . S
Tb160 C169 2.764 1_565 S
Tb160 O170 2.325 . S
Tb160 O173 2.303 . S
Tb160 O177 2.322 . S
Tb160 O178 2.349 . S
Tb160 O181 2.415 1_565 S
Tb160 O182 2.399 1_565 S
Tb161 O171 2.322 . S
Tb161 O172 2.349 . S
Tb161 O174 2.415 . S
Tb161 O175 2.399 . S
Tb161 O176 2.325 . S
Tb161 O179 2.303 . S
Tb161 C190 2.764 . S
C162 O178 1.261 . S
C162 O179 1.257 . S
C163 C166 1.358 . S
C163 C167 1.332 . S
C163 C169 1.504 . S
C164 C165 1.373 . S
C164 C168 1.308 . S
C165 C164 1.373 . S
C165 C166 1.429 . S
C165 H192 0.932 . S
C166 C163 1.358 . S
C166 C165 1.429 . S
C166 H193 0.930 . S
C167 C163 1.332 . S
C167 C168 1.394 . S
C167 H194 0.932 . S
C168 C164 1.308 . S
C168 C167 1.394 . S
C168 H195 0.929 . S
C169 Tb160 2.764 1_545 S
C169 C163 1.504 . S
C169 O181 1.239 . S
C169 O182 1.263 . S
O170 Tb160 2.325 . S
O170 C180 1.236 . S
O171 Tb161 2.322 . S
O171 C180 1.257 . S
O172 Tb161 2.349 . S
O172 C183 1.261 . S
O173 Tb160 2.303 . S
O173 C183 1.257 . S
O174 Tb161 2.415 . S
O174 C190 1.239 . S
O175 Tb161 2.399 . S
O175 C190 1.263 . S
O176 Tb161 2.325 . S
O176 C191 1.236 . S
O177 Tb160 2.322 . S
O177 C191 1.257 . S
O178 Tb160 2.349 . S
O178 C162 1.261 . S
O179 Tb161 2.303 . S
O179 C162 1.257 . S
C180 O170 1.236 . S
C180 O171 1.257 . S
O181 Tb160 2.415 1_545 S
O181 C169 1.239 . S
O182 Tb160 2.399 1_545 S
O182 C169 1.263 . S
C183 O172 1.261 . S
C183 O173 1.257 . S
C184 C187 1.358 . S
C184 C188 1.332 . S
C184 C190 1.504 . S
C185 C186 1.373 . S
C185 C189 1.308 . S
C186 C185 1.373 . S
C186 C187 1.429 . S
C186 H196 0.932 . S
C187 C184 1.358 . S
C187 C186 1.429 . S
C187 H197 0.930 . S
C188 C184 1.332 . S
C188 C189 1.394 . S
C188 H198 0.932 . S
C189 C185 1.308 . S
C189 C188 1.394 . S
C189 H199 0.929 . S
C190 Tb161 2.764 . S
C190 O174 1.239 . S
C190 O175 1.263 . S
C190 C184 1.504 . S
C191 O176 1.236 . S
C191 O177 1.257 . S
H192 C165 0.932 . S
H193 C166 0.930 . S
H194 C167 0.932 . S
H195 C168 0.929 . S
H196 C186 0.932 . S
H197 C187 0.930 . S
H198 C188 0.932 . S
H199 C189 0.929 . S
Tb200 C209 2.764 1_545 S
Tb200 O210 2.325 . S
Tb200 O213 2.303 . S
Tb200 O217 2.322 . S
Tb200 O218 2.349 . S
Tb200 O221 2.415 1_545 S
Tb200 O222 2.399 1_545 S
Tb201 O211 2.322 . S
Tb201 O212 2.349 . S
Tb201 O214 2.415 . S
Tb201 O215 2.399 . S
Tb201 O216 2.325 . S
Tb201 O219 2.303 . S
Tb201 C230 2.764 . S
C202 O218 1.261 . S
C202 O219 1.257 . S
C203 C206 1.358 . S
C203 C207 1.332 . S
C203 C209 1.504 . S
C204 C205 1.373 . S
C204 C208 1.308 . S
C205 C204 1.373 . S
C205 C206 1.429 . S
C205 H232 0.932 . S
C206 C203 1.358 . S
C206 C205 1.429 . S
C206 H233 0.930 . S
C207 C203 1.332 . S
C207 C208 1.394 . S
C207 H234 0.932 . S
C208 C204 1.308 . S
C208 C207 1.394 . S
C208 H235 0.929 . S
C209 Tb200 2.764 1_565 S
C209 C203 1.504 . S
C209 O221 1.239 . S
C209 O222 1.263 . S
O210 Tb200 2.325 . S
O210 C220 1.236 . S
O211 Tb201 2.322 . S
O211 C220 1.257 . S
O212 Tb201 2.349 . S
O212 C223 1.261 . S
O213 Tb200 2.303 . S
O213 C223 1.257 . S
O214 Tb201 2.415 . S
O214 C230 1.239 . S
O215 Tb201 2.399 . S
O215 C230 1.263 . S
O216 Tb201 2.325 . S
O216 C231 1.236 . S
O217 Tb200 2.322 . S
O217 C231 1.257 . S
O218 Tb200 2.349 . S
O218 C202 1.261 . S
O219 Tb201 2.303 . S
O219 C202 1.257 . S
C220 O210 1.236 . S
C220 O211 1.257 . S
O221 Tb200 2.415 1_565 S
O221 C209 1.239 . S
O222 Tb200 2.399 1_565 S
O222 C209 1.263 . S
C223 O212 1.261 . S
C223 O213 1.257 . S
C224 C227 1.358 . S
C224 C228 1.332 . S
C224 C230 1.504 . S
C225 C226 1.373 . S
C225 C229 1.308 . S
C226 C225 1.373 . S
C226 C227 1.429 . S
C226 H236 0.932 . S
C227 C224 1.358 . S
C227 C226 1.429 . S
C227 H237 0.930 . S
C228 C224 1.332 . S
C228 C229 1.394 . S
C228 H238 0.932 . S
C229 C225 1.308 . S
C229 C228 1.394 . S
C229 H239 0.929 . S
C230 Tb201 2.764 . S
C230 O214 1.239 . S
C230 O215 1.263 . S
C230 C224 1.504 . S
C231 O216 1.236 . S
C231 O217 1.257 . S
H232 C205 0.932 . S
H233 C206 0.930 . S
H234 C207 0.932 . S
H235 C208 0.929 . S
H236 C226 0.932 . S
H237 C227 0.930 . S
H238 C228 0.932 . S
H239 C229 0.929 . S
Tb240 C249 2.764 1_545 S
Tb240 O250 2.325 . S
Tb240 O253 2.303 . S
Tb240 O257 2.322 . S
Tb240 O258 2.349 . S
Tb240 O261 2.415 1_545 S
Tb240 O262 2.399 1_545 S
Tb241 O251 2.322 . S
Tb241 O252 2.349 . S
Tb241 O254 2.415 . S
Tb241 O255 2.399 . S
Tb241 O256 2.325 . S
Tb241 O259 2.303 . S
Tb241 C270 2.764 . S
C242 O258 1.261 . S
C242 O259 1.257 . S
C243 C246 1.358 . S
C243 C247 1.332 . S
C243 C249 1.504 . S
C244 C245 1.373 . S
C244 C248 1.308 . S
C245 C244 1.373 . S
C245 C246 1.429 . S
C245 H272 0.932 . S
C246 C243 1.358 . S
C246 C245 1.429 . S
C246 H273 0.930 . S
C247 C243 1.332 . S
C247 C248 1.394 . S
C247 H274 0.932 . S
C248 C244 1.308 . S
C248 C247 1.394 . S
C248 H275 0.929 . S
C249 Tb240 2.764 1_565 S
C249 C243 1.504 . S
C249 O261 1.239 . S
C249 O262 1.263 . S
O250 Tb240 2.325 . S
O250 C260 1.236 . S
O251 Tb241 2.322 . S
O251 C260 1.257 . S
O252 Tb241 2.349 . S
O252 C263 1.261 . S
O253 Tb240 2.303 . S
O253 C263 1.257 . S
O254 Tb241 2.415 . S
O254 C270 1.239 . S
O255 Tb241 2.399 . S
O255 C270 1.263 . S
O256 Tb241 2.325 . S
O256 C271 1.236 . S
O257 Tb240 2.322 . S
O257 C271 1.257 . S
O258 Tb240 2.349 . S
O258 C242 1.261 . S
O259 Tb241 2.303 . S
O259 C242 1.257 . S
C260 O250 1.236 . S
C260 O251 1.257 . S
O261 Tb240 2.415 1_565 S
O261 C249 1.239 . S
O262 Tb240 2.399 1_565 S
O262 C249 1.263 . S
C263 O252 1.261 . S
C263 O253 1.257 . S
C264 C267 1.358 . S
C264 C268 1.332 . S
C264 C270 1.504 . S
C265 C266 1.373 . S
C265 C269 1.308 . S
C266 C265 1.373 . S
C266 C267 1.429 . S
C266 H276 0.932 . S
C267 C264 1.358 . S
C267 C266 1.429 . S
C267 H277 0.930 . S
C268 C264 1.332 . S
C268 C269 1.394 . S
C268 H278 0.932 . S
C269 C265 1.308 . S
C269 C268 1.394 . S
C269 H279 0.929 . S
C270 Tb241 2.764 . S
C270 O254 1.239 . S
C270 O255 1.263 . S
C270 C264 1.504 . S
C271 O256 1.236 . S
C271 O257 1.257 . S
H272 C245 0.932 . S
H273 C246 0.930 . S
H274 C247 0.932 . S
H275 C248 0.929 . S
H276 C266 0.932 . S
H277 C267 0.930 . S
H278 C268 0.932 . S
H279 C269 0.929 . S
Tb280 C289 2.764 1_565 S
Tb280 O290 2.325 . S
Tb280 O293 2.303 . S
Tb280 O297 2.322 . S
Tb280 O298 2.349 . S
Tb280 O301 2.415 1_565 S
Tb280 O302 2.399 1_565 S
Tb281 O291 2.322 . S
Tb281 O292 2.349 . S
Tb281 O294 2.415 . S
Tb281 O295 2.399 . S
Tb281 O296 2.325 . S
Tb281 O299 2.303 . S
Tb281 C310 2.764 . S
C282 O298 1.261 . S
C282 O299 1.257 . S
C283 C286 1.358 . S
C283 C287 1.332 . S
C283 C289 1.504 . S
C284 C285 1.373 . S
C284 C288 1.308 . S
C285 C284 1.373 . S
C285 C286 1.429 . S
C285 H312 0.932 . S
C286 C283 1.358 . S
C286 C285 1.429 . S
C286 H313 0.930 . S
C287 C283 1.332 . S
C287 C288 1.394 . S
C287 H314 0.932 . S
C288 C284 1.308 . S
C288 C287 1.394 . S
C288 H315 0.929 . S
C289 Tb280 2.764 1_545 S
C289 C283 1.504 . S
C289 O301 1.239 . S
C289 O302 1.263 . S
O290 Tb280 2.325 . S
O290 C300 1.236 . S
O291 Tb281 2.322 . S
O291 C300 1.257 . S
O292 Tb281 2.349 . S
O292 C303 1.261 . S
O293 Tb280 2.303 . S
O293 C303 1.257 . S
O294 Tb281 2.415 . S
O294 C310 1.239 . S
O295 Tb281 2.399 . S
O295 C310 1.263 . S
O296 Tb281 2.325 . S
O296 C311 1.236 . S
O297 Tb280 2.322 . S
O297 C311 1.257 . S
O298 Tb280 2.349 . S
O298 C282 1.261 . S
O299 Tb281 2.303 . S
O299 C282 1.257 . S
C300 O290 1.236 . S
C300 O291 1.257 . S
O301 Tb280 2.415 1_545 S
O301 C289 1.239 . S
O302 Tb280 2.399 1_545 S
O302 C289 1.263 . S
C303 O292 1.261 . S
C303 O293 1.257 . S
C304 C307 1.358 . S
C304 C308 1.332 . S
C304 C310 1.504 . S
C305 C306 1.373 . S
C305 C309 1.308 . S
C306 C305 1.373 . S
C306 C307 1.429 . S
C306 H316 0.932 . S
C307 C304 1.358 . S
C307 C306 1.429 . S
C307 H317 0.930 . S
C308 C304 1.332 . S
C308 C309 1.394 . S
C308 H318 0.932 . S
C309 C305 1.308 . S
C309 C308 1.394 . S
C309 H319 0.929 . S
C310 Tb281 2.764 . S
C310 O294 1.239 . S
C310 O295 1.263 . S
C310 C304 1.504 . S
C311 O296 1.236 . S
C311 O297 1.257 . S
H312 C285 0.932 . S
H313 C286 0.930 . S
H314 C287 0.932 . S
H315 C288 0.929 . S
H316 C306 0.932 . S
H317 C307 0.930 . S
H318 C308 0.932 . S
H319 C309 0.929 . S
Tb320 C329 2.764 . S
Tb320 O330 2.325 . S
Tb320 O333 2.303 . S
Tb320 O337 2.322 . S
Tb320 O338 2.349 . S
Tb320 O341 2.415 . S
Tb320 O342 2.399 . S
Tb321 O331 2.322 . S
Tb321 O332 2.349 . S
Tb321 O334 2.415 . S
Tb321 O335 2.399 . S
Tb321 O336 2.325 . S
Tb321 O339 2.303 . S
Tb321 C350 2.764 . S
C322 O338 1.261 . S
C322 O339 1.257 . S
C323 C326 1.358 . S
C323 C327 1.332 . S
C323 C329 1.504 . S
C324 C325 1.373 . S
C324 C328 1.308 . S
C325 C324 1.373 . S
C325 C326 1.429 . S
C325 H352 0.932 . S
C326 C323 1.358 . S
C326 C325 1.429 . S
C326 H353 0.930 . S
C327 C323 1.332 . S
C327 C328 1.394 . S
C327 H354 0.932 . S
C328 C324 1.308 . S
C328 C327 1.394 . S
C328 H355 0.929 . S
C329 Tb320 2.764 . S
C329 C323 1.504 . S
C329 O341 1.239 . S
C329 O342 1.263 . S
O330 Tb320 2.325 . S
O330 C340 1.236 . S
O331 Tb321 2.322 . S
O331 C340 1.257 . S
O332 Tb321 2.349 . S
O332 C343 1.261 . S
O333 Tb320 2.303 . S
O333 C343 1.257 . S
O334 Tb321 2.415 . S
O334 C350 1.239 . S
O335 Tb321 2.399 . S
O335 C350 1.263 . S
O336 Tb321 2.325 . S
O336 C351 1.236 . S
O337 Tb320 2.322 . S
O337 C351 1.257 . S
O338 Tb320 2.349 . S
O338 C322 1.261 . S
O339 Tb321 2.303 . S
O339 C322 1.257 . S
C340 O330 1.236 . S
C340 O331 1.257 . S
O341 Tb320 2.415 . S
O341 C329 1.239 . S
O342 Tb320 2.399 . S
O342 C329 1.263 . S
C343 O332 1.261 . S
C343 O333 1.257 . S
C344 C347 1.358 . S
C344 C348 1.332 . S
C344 C350 1.504 . S
C345 C346 1.373 . S
C345 C349 1.308 . S
C346 C345 1.373 . S
C346 C347 1.429 . S
C346 H356 0.932 . S
C347 C344 1.358 . S
C347 C346 1.429 . S
C347 H357 0.930 . S
C348 C344 1.332 . S
C348 C349 1.394 . S
C348 H358 0.932 . S
C349 C345 1.308 . S
C349 C348 1.394 . S
C349 H359 0.929 . S
C350 Tb321 2.764 . S
C350 O334 1.239 . S
C350 O335 1.263 . S
C350 C344 1.504 . S
C351 O336 1.236 . S
C351 O337 1.257 . S
H352 C325 0.932 . S
H353 C326 0.930 . S
H354 C327 0.932 . S
H355 C328 0.929 . S
H356 C346 0.932 . S
H357 C347 0.930 . S
H358 C348 0.932 . S
H359 C349 0.929 . S
Tb360 C369 2.764 . S
Tb360 O370 2.325 . S
Tb360 O373 2.303 . S
Tb360 O377 2.322 . S
Tb360 O378 2.349 . S
Tb360 O381 2.415 . S
Tb360 O382 2.399 . S
Tb361 O371 2.322 . S
Tb361 O372 2.349 . S
Tb361 O374 2.415 . S
Tb361 O375 2.399 . S
Tb361 O376 2.325 . S
Tb361 O379 2.303 . S
Tb361 C390 2.764 . S
C362 O378 1.261 . S
C362 O379 1.257 . S
C363 C366 1.358 . S
C363 C367 1.332 . S
C363 C369 1.504 . S
C364 C365 1.373 . S
C364 C368 1.308 . S
C365 C364 1.373 . S
C365 C366 1.429 . S
C365 H392 0.932 . S
C366 C363 1.358 . S
C366 C365 1.429 . S
C366 H393 0.930 . S
C367 C363 1.332 . S
C367 C368 1.394 . S
C367 H394 0.932 . S
C368 C364 1.308 . S
C368 C367 1.394 . S
C368 H395 0.929 . S
C369 Tb360 2.764 . S
C369 C363 1.504 . S
C369 O381 1.239 . S
C369 O382 1.263 . S
O370 Tb360 2.325 . S
O370 C380 1.236 . S
O371 Tb361 2.322 . S
O371 C380 1.257 . S
O372 Tb361 2.349 . S
O372 C383 1.261 . S
O373 Tb360 2.303 . S
O373 C383 1.257 . S
O374 Tb361 2.415 . S
O374 C390 1.239 . S
O375 Tb361 2.399 . S
O375 C390 1.263 . S
O376 Tb361 2.325 . S
O376 C391 1.236 . S
O377 Tb360 2.322 . S
O377 C391 1.257 . S
O378 Tb360 2.349 . S
O378 C362 1.261 . S
O379 Tb361 2.303 . S
O379 C362 1.257 . S
C380 O370 1.236 . S
C380 O371 1.257 . S
O381 Tb360 2.415 . S
O381 C369 1.239 . S
O382 Tb360 2.399 . S
O382 C369 1.263 . S
C383 O372 1.261 . S
C383 O373 1.257 . S
C384 C387 1.358 . S
C384 C388 1.332 . S
C384 C390 1.504 . S
C385 C386 1.373 . S
C385 C389 1.308 . S
C386 C385 1.373 . S
C386 C387 1.429 . S
C386 H396 0.932 . S
C387 C384 1.358 . S
C387 C386 1.429 . S
C387 H397 0.930 . S
C388 C384 1.332 . S
C388 C389 1.394 . S
C388 H398 0.932 . S
C389 C385 1.308 . S
C389 C388 1.394 . S
C389 H399 0.929 . S
C390 Tb361 2.764 . S
C390 O374 1.239 . S
C390 O375 1.263 . S
C390 C384 1.504 . S
C391 O376 1.236 . S
C391 O377 1.257 . S
H392 C365 0.932 . S
H393 C366 0.930 . S
H394 C367 0.932 . S
H395 C368 0.929 . S
H396 C386 0.932 . S
H397 C387 0.930 . S
H398 C388 0.932 . S
H399 C389 0.929 . S
Tb400 C409 2.764 . S
Tb400 O410 2.325 . S
Tb400 O413 2.303 . S
Tb400 O417 2.322 . S
Tb400 O418 2.349 . S
Tb400 O421 2.415 . S
Tb400 O422 2.399 . S
Tb401 O411 2.322 . S
Tb401 O412 2.349 . S
Tb401 O414 2.415 . S
Tb401 O415 2.399 . S
Tb401 O416 2.325 . S
Tb401 O419 2.303 . S
Tb401 C430 2.764 . S
C402 O418 1.261 . S
C402 O419 1.257 . S
C403 C406 1.358 . S
C403 C407 1.332 . S
C403 C409 1.504 . S
C404 C405 1.373 . S
C404 C408 1.308 . S
C405 C404 1.373 . S
C405 C406 1.429 . S
C405 H432 0.932 . S
C406 C403 1.358 . S
C406 C405 1.429 . S
C406 H433 0.930 . S
C407 C403 1.332 . S
C407 C408 1.394 . S
C407 H434 0.932 . S
C408 C404 1.308 . S
C408 C407 1.394 . S
C408 H435 0.929 . S
C409 Tb400 2.764 . S
C409 C403 1.504 . S
C409 O421 1.239 . S
C409 O422 1.263 . S
O410 Tb400 2.325 . S
O410 C420 1.236 . S
O411 Tb401 2.322 . S
O411 C420 1.257 . S
O412 Tb401 2.349 . S
O412 C423 1.261 . S
O413 Tb400 2.303 . S
O413 C423 1.257 . S
O414 Tb401 2.415 . S
O414 C430 1.239 . S
O415 Tb401 2.399 . S
O415 C430 1.263 . S
O416 Tb401 2.325 . S
O416 C431 1.236 . S
O417 Tb400 2.322 . S
O417 C431 1.257 . S
O418 Tb400 2.349 . S
O418 C402 1.261 . S
O419 Tb401 2.303 . S
O419 C402 1.257 . S
C420 O410 1.236 . S
C420 O411 1.257 . S
O421 Tb400 2.415 . S
O421 C409 1.239 . S
O422 Tb400 2.399 . S
O422 C409 1.263 . S
C423 O412 1.261 . S
C423 O413 1.257 . S
C424 C427 1.358 . S
C424 C428 1.332 . S
C424 C430 1.504 . S
C425 C426 1.373 . S
C425 C429 1.308 . S
C426 C425 1.373 . S
C426 C427 1.429 . S
C426 H436 0.932 . S
C427 C424 1.358 . S
C427 C426 1.429 . S
C427 H437 0.930 . S
C428 C424 1.332 . S
C428 C429 1.394 . S
C428 H438 0.932 . S
C429 C425 1.308 . S
C429 C428 1.394 . S
C429 H439 0.929 . S
C430 Tb401 2.764 . S
C430 O414 1.239 . S
C430 O415 1.263 . S
C430 C424 1.504 . S
C431 O416 1.236 . S
C431 O417 1.257 . S
H432 C405 0.932 . S
H433 C406 0.930 . S
H434 C407 0.932 . S
H435 C408 0.929 . S
H436 C426 0.932 . S
H437 C427 0.930 . S
H438 C428 0.932 . S
H439 C429 0.929 . S
Tb440 C449 2.764 . S
Tb440 O450 2.325 . S
Tb440 O453 2.303 . S
Tb440 O457 2.322 . S
Tb440 O458 2.349 . S
Tb440 O461 2.415 . S
Tb440 O462 2.399 . S
Tb441 O451 2.322 . S
Tb441 O452 2.349 . S
Tb441 O454 2.415 . S
Tb441 O455 2.399 . S
Tb441 O456 2.325 . S
Tb441 O459 2.303 . S
Tb441 C470 2.764 . S
C442 O458 1.261 . S
C442 O459 1.257 . S
C443 C446 1.358 . S
C443 C447 1.332 . S
C443 C449 1.504 . S
C444 C445 1.373 . S
C444 C448 1.308 . S
C445 C444 1.373 . S
C445 C446 1.429 . S
C445 H472 0.932 . S
C446 C443 1.358 . S
C446 C445 1.429 . S
C446 H473 0.930 . S
C447 C443 1.332 . S
C447 C448 1.394 . S
C447 H474 0.932 . S
C448 C444 1.308 . S
C448 C447 1.394 . S
C448 H475 0.929 . S
C449 Tb440 2.764 . S
C449 C443 1.504 . S
C449 O461 1.239 . S
C449 O462 1.263 . S
O450 Tb440 2.325 . S
O450 C460 1.236 . S
O451 Tb441 2.322 . S
O451 C460 1.257 . S
O452 Tb441 2.349 . S
O452 C463 1.261 . S
O453 Tb440 2.303 . S
O453 C463 1.257 . S
O454 Tb441 2.415 . S
O454 C470 1.239 . S
O455 Tb441 2.399 . S
O455 C470 1.263 . S
O456 Tb441 2.325 . S
O456 C471 1.236 . S
O457 Tb440 2.322 . S
O457 C471 1.257 . S
O458 Tb440 2.349 . S
O458 C442 1.261 . S
O459 Tb441 2.303 . S
O459 C442 1.257 . S
C460 O450 1.236 . S
C460 O451 1.257 . S
O461 Tb440 2.415 . S
O461 C449 1.239 . S
O462 Tb440 2.399 . S
O462 C449 1.263 . S
C463 O452 1.261 . S
C463 O453 1.257 . S
C464 C467 1.358 . S
C464 C468 1.332 . S
C464 C470 1.504 . S
C465 C466 1.373 . S
C465 C469 1.308 . S
C466 C465 1.373 . S
C466 C467 1.429 . S
C466 H476 0.932 . S
C467 C464 1.358 . S
C467 C466 1.429 . S
C467 H477 0.930 . S
C468 C464 1.332 . S
C468 C469 1.394 . S
C468 H478 0.932 . S
C469 C465 1.308 . S
C469 C468 1.394 . S
C469 H479 0.929 . S
C470 Tb441 2.764 . S
C470 O454 1.239 . S
C470 O455 1.263 . S
C470 C464 1.504 . S
C471 O456 1.236 . S
C471 O457 1.257 . S
H472 C445 0.932 . S
H473 C446 0.930 . S
H474 C447 0.932 . S
H475 C448 0.929 . S
H476 C466 0.932 . S
H477 C467 0.930 . S
H478 C468 0.932 . S
H479 C469 0.929 . S
Tb480 C489 2.764 . S
Tb480 O490 2.325 . S
Tb480 O493 2.303 . S
Tb480 O497 2.322 . S
Tb480 O498 2.349 . S
Tb480 O501 2.415 . S
Tb480 O502 2.399 . S
Tb481 O491 2.322 . S
Tb481 O492 2.349 . S
Tb481 O494 2.415 . S
Tb481 O495 2.399 . S
Tb481 O496 2.325 . S
Tb481 O499 2.303 . S
Tb481 C510 2.764 . S
C482 O498 1.261 . S
C482 O499 1.257 . S
C483 C486 1.358 . S
C483 C487 1.332 . S
C483 C489 1.504 . S
C484 C485 1.373 . S
C484 C488 1.308 . S
C485 C484 1.373 . S
C485 C486 1.429 . S
C485 H512 0.932 . S
C486 C483 1.358 . S
C486 C485 1.429 . S
C486 H513 0.930 . S
C487 C483 1.332 . S
C487 C488 1.394 . S
C487 H514 0.932 . S
C488 C484 1.308 . S
C488 C487 1.394 . S
C488 H515 0.929 . S
C489 Tb480 2.764 . S
C489 C483 1.504 . S
C489 O501 1.239 . S
C489 O502 1.263 . S
O490 Tb480 2.325 . S
O490 C500 1.236 . S
O491 Tb481 2.322 . S
O491 C500 1.257 . S
O492 Tb481 2.349 . S
O492 C503 1.261 . S
O493 Tb480 2.303 . S
O493 C503 1.257 . S
O494 Tb481 2.415 . S
O494 C510 1.239 . S
O495 Tb481 2.399 . S
O495 C510 1.263 . S
O496 Tb481 2.325 . S
O496 C511 1.236 . S
O497 Tb480 2.322 . S
O497 C511 1.257 . S
O498 Tb480 2.349 . S
O498 C482 1.261 . S
O499 Tb481 2.303 . S
O499 C482 1.257 . S
C500 O490 1.236 . S
C500 O491 1.257 . S
O501 Tb480 2.415 . S
O501 C489 1.239 . S
O502 Tb480 2.399 . S
O502 C489 1.263 . S
C503 O492 1.261 . S
C503 O493 1.257 . S
C504 C507 1.358 . S
C504 C508 1.332 . S
C504 C510 1.504 . S
C505 C506 1.373 . S
C505 C509 1.308 . S
C506 C505 1.373 . S
C506 C507 1.429 . S
C506 H516 0.932 . S
C507 C504 1.358 . S
C507 C506 1.429 . S
C507 H517 0.930 . S
C508 C504 1.332 . S
C508 C509 1.394 . S
C508 H518 0.932 . S
C509 C505 1.308 . S
C509 C508 1.394 . S
C509 H519 0.929 . S
C510 Tb481 2.764 . S
C510 O494 1.239 . S
C510 O495 1.263 . S
C510 C504 1.504 . S
C511 O496 1.236 . S
C511 O497 1.257 . S
H512 C485 0.932 . S
H513 C486 0.930 . S
H514 C487 0.932 . S
H515 C488 0.929 . S
H516 C506 0.932 . S
H517 C507 0.930 . S
H518 C508 0.932 . S
H519 C509 0.929 . S
Tb520 C529 2.764 . S
Tb520 O530 2.325 . S
Tb520 O533 2.303 . S
Tb520 O537 2.322 . S
Tb520 O538 2.349 . S
Tb520 O541 2.415 . S
Tb520 O542 2.399 . S
Tb521 O531 2.322 . S
Tb521 O532 2.349 . S
Tb521 O534 2.415 . S
Tb521 O535 2.399 . S
Tb521 O536 2.325 . S
Tb521 O539 2.303 . S
Tb521 C550 2.764 . S
C522 O538 1.261 . S
C522 O539 1.257 . S
C523 C526 1.358 . S
C523 C527 1.332 . S
C523 C529 1.504 . S
C524 C525 1.373 . S
C524 C528 1.308 . S
C525 C524 1.373 . S
C525 C526 1.429 . S
C525 H552 0.932 . S
C526 C523 1.358 . S
C526 C525 1.429 . S
C526 H553 0.930 . S
C527 C523 1.332 . S
C527 C528 1.394 . S
C527 H554 0.932 . S
C528 C524 1.308 . S
C528 C527 1.394 . S
C528 H555 0.929 . S
C529 Tb520 2.764 . S
C529 C523 1.504 . S
C529 O541 1.239 . S
C529 O542 1.263 . S
O530 Tb520 2.325 . S
O530 C540 1.236 . S
O531 Tb521 2.322 . S
O531 C540 1.257 . S
O532 Tb521 2.349 . S
O532 C543 1.261 . S
O533 Tb520 2.303 . S
O533 C543 1.257 . S
O534 Tb521 2.415 . S
O534 C550 1.239 . S
O535 Tb521 2.399 . S
O535 C550 1.263 . S
O536 Tb521 2.325 . S
O536 C551 1.236 . S
O537 Tb520 2.322 . S
O537 C551 1.257 . S
O538 Tb520 2.349 . S
O538 C522 1.261 . S
O539 Tb521 2.303 . S
O539 C522 1.257 . S
C540 O530 1.236 . S
C540 O531 1.257 . S
O541 Tb520 2.415 . S
O541 C529 1.239 . S
O542 Tb520 2.399 . S
O542 C529 1.263 . S
C543 O532 1.261 . S
C543 O533 1.257 . S
C544 C547 1.358 . S
C544 C548 1.332 . S
C544 C550 1.504 . S
C545 C546 1.373 . S
C545 C549 1.308 . S
C546 C545 1.373 . S
C546 C547 1.429 . S
C546 H556 0.932 . S
C547 C544 1.358 . S
C547 C546 1.429 . S
C547 H557 0.930 . S
C548 C544 1.332 . S
C548 C549 1.394 . S
C548 H558 0.932 . S
C549 C545 1.308 . S
C549 C548 1.394 . S
C549 H559 0.929 . S
C550 Tb521 2.764 . S
C550 O534 1.239 . S
C550 O535 1.263 . S
C550 C544 1.504 . S
C551 O536 1.236 . S
C551 O537 1.257 . S
H552 C525 0.932 . S
H553 C526 0.930 . S
H554 C527 0.932 . S
H555 C528 0.929 . S
H556 C546 0.932 . S
H557 C547 0.930 . S
H558 C548 0.932 . S
H559 C549 0.929 . S
Tb560 C569 2.764 . S
Tb560 O570 2.325 . S
Tb560 O573 2.303 . S
Tb560 O577 2.322 . S
Tb560 O578 2.349 . S
Tb560 O581 2.415 . S
Tb560 O582 2.399 . S
Tb561 O571 2.322 . S
Tb561 O572 2.349 . S
Tb561 O574 2.415 . S
Tb561 O575 2.399 . S
Tb561 O576 2.325 . S
Tb561 O579 2.303 . S
Tb561 C590 2.764 . S
C562 O578 1.261 . S
C562 O579 1.257 . S
C563 C566 1.358 . S
C563 C567 1.332 . S
C563 C569 1.504 . S
C564 C565 1.373 . S
C564 C568 1.308 . S
C565 C564 1.373 . S
C565 C566 1.429 . S
C565 H592 0.932 . S
C566 C563 1.358 . S
C566 C565 1.429 . S
C566 H593 0.930 . S
C567 C563 1.332 . S
C567 C568 1.394 . S
C567 H594 0.932 . S
C568 C564 1.308 . S
C568 C567 1.394 . S
C568 H595 0.929 . S
C569 Tb560 2.764 . S
C569 C563 1.504 . S
C569 O581 1.239 . S
C569 O582 1.263 . S
O570 Tb560 2.325 . S
O570 C580 1.236 . S
O571 Tb561 2.322 . S
O571 C580 1.257 . S
O572 Tb561 2.349 . S
O572 C583 1.261 . S
O573 Tb560 2.303 . S
O573 C583 1.257 . S
O574 Tb561 2.415 . S
O574 C590 1.239 . S
O575 Tb561 2.399 . S
O575 C590 1.263 . S
O576 Tb561 2.325 . S
O576 C591 1.236 . S
O577 Tb560 2.322 . S
O577 C591 1.257 . S
O578 Tb560 2.349 . S
O578 C562 1.261 . S
O579 Tb561 2.303 . S
O579 C562 1.257 . S
C580 O570 1.236 . S
C580 O571 1.257 . S
O581 Tb560 2.415 . S
O581 C569 1.239 . S
O582 Tb560 2.399 . S
O582 C569 1.263 . S
C583 O572 1.261 . S
C583 O573 1.257 . S
C584 C587 1.358 . S
C584 C588 1.332 . S
C584 C590 1.504 . S
C585 C586 1.373 . S
C585 C589 1.308 . S
C586 C585 1.373 . S
C586 C587 1.429 . S
C586 H596 0.932 . S
C587 C584 1.358 . S
C587 C586 1.429 . S
C587 H597 0.930 . S
C588 C584 1.332 . S
C588 C589 1.394 . S
C588 H598 0.932 . S
C589 C585 1.308 . S
C589 C588 1.394 . S
C589 H599 0.929 . S
C590 Tb561 2.764 . S
C590 O574 1.239 . S
C590 O575 1.263 . S
C590 C584 1.504 . S
C591 O576 1.236 . S
C591 O577 1.257 . S
H592 C565 0.932 . S
H593 C566 0.930 . S
H594 C567 0.932 . S
H595 C568 0.929 . S
H596 C586 0.932 . S
H597 C587 0.930 . S
H598 C588 0.932 . S
H599 C589 0.929 . S
Tb600 C609 2.764 . S
Tb600 O610 2.325 . S
Tb600 O613 2.303 . S
Tb600 O617 2.322 . S
Tb600 O618 2.349 . S
Tb600 O621 2.415 . S
Tb600 O622 2.399 . S
Tb601 O611 2.322 . S
Tb601 O612 2.349 . S
Tb601 O614 2.415 . S
Tb601 O615 2.399 . S
Tb601 O616 2.325 . S
Tb601 O619 2.303 . S
Tb601 C630 2.764 . S
C602 O618 1.261 . S
C602 O619 1.257 . S
C603 C606 1.358 . S
C603 C607 1.332 . S
C603 C609 1.504 . S
C604 C605 1.373 . S
C604 C608 1.308 . S
C605 C604 1.373 . S
C605 C606 1.429 . S
C605 H632 0.932 . S
C606 C603 1.358 . S
C606 C605 1.429 . S
C606 H633 0.930 . S
C607 C603 1.332 . S
C607 C608 1.394 . S
C607 H634 0.932 . S
C608 C604 1.308 . S
C608 C607 1.394 . S
C608 H635 0.929 . S
C609 Tb600 2.764 . S
C609 C603 1.504 . S
C609 O621 1.239 . S
C609 O622 1.263 . S
O610 Tb600 2.325 . S
O610 C620 1.236 . S
O611 Tb601 2.322 . S
O611 C620 1.257 . S
O612 Tb601 2.349 . S
O612 C623 1.261 . S
O613 Tb600 2.303 . S
O613 C623 1.257 . S
O614 Tb601 2.415 . S
O614 C630 1.239 . S
O615 Tb601 2.399 . S
O615 C630 1.263 . S
O616 Tb601 2.325 . S
O616 C631 1.236 . S
O617 Tb600 2.322 . S
O617 C631 1.257 . S
O618 Tb600 2.349 . S
O618 C602 1.261 . S
O619 Tb601 2.303 . S
O619 C602 1.257 . S
C620 O610 1.236 . S
C620 O611 1.257 . S
O621 Tb600 2.415 . S
O621 C609 1.239 . S
O622 Tb600 2.399 . S
O622 C609 1.263 . S
C623 O612 1.261 . S
C623 O613 1.257 . S
C624 C627 1.358 . S
C624 C628 1.332 . S
C624 C630 1.504 . S
C625 C626 1.373 . S
C625 C629 1.308 . S
C626 C625 1.373 . S
C626 C627 1.429 . S
C626 H636 0.932 . S
C627 C624 1.358 . S
C627 C626 1.429 . S
C627 H637 0.930 . S
C628 C624 1.332 . S
C628 C629 1.394 . S
C628 H638 0.932 . S
C629 C625 1.308 . S
C629 C628 1.394 . S
C629 H639 0.929 . S
C630 Tb601 2.764 . S
C630 O614 1.239 . S
C630 O615 1.263 . S
C630 C624 1.504 . S
C631 O616 1.236 . S
C631 O617 1.257 . S
H632 C605 0.932 . S
H633 C606 0.930 . S
H634 C607 0.932 . S
H635 C608 0.929 . S
H636 C626 0.932 . S
H637 C627 0.930 . S
H638 C628 0.932 . S
H639 C629 0.929 . S
H640 C648 0.950 . S
H641 C653 0.950 . S
H642 C650 0.950 . S
H643 C652 0.950 . S
H644 C654 0.950 . S
H645 C656 0.950 . S
H646 C658 0.950 . S
H647 C659 0.950 . S
C648 H640 0.950 . S
C648 C649 1.386 . S
C648 C650 1.391 . S
C649 C648 1.386 . S
C649 C653 1.393 . S
C650 H642 0.950 . S
C650 C648 1.391 . S
C650 C651 1.400 . S
C651 C650 1.400 . S
C651 C652 1.398 . S
C651 C657 1.491 . S
C652 H643 0.950 . S
C652 C651 1.398 . S
C652 C653 1.391 . S
C653 H641 0.950 . S
C653 C649 1.393 . S
C653 C652 1.391 . S
C654 H644 0.950 . S
C654 C655 1.386 . S
C654 C656 1.391 . S
C655 C654 1.386 . S
C655 C659 1.393 . S
C656 H645 0.950 . S
C656 C654 1.391 . S
C656 C657 1.400 . S
C657 C651 1.491 . S
C657 C656 1.400 . S
C657 C658 1.398 . S
C658 H646 0.950 . S
C658 C657 1.398 . S
C658 C659 1.391 . S
C659 H647 0.950 . S
C659 C655 1.393 . S
C659 C658 1.391 . S
H660 C668 0.950 . S
H661 C673 0.950 . S
H662 C670 0.950 . S
H663 C672 0.950 . S
H664 C674 0.950 . S
H665 C676 0.950 . S
H666 C678 0.950 . S
H667 C679 0.950 . S
C668 H660 0.950 . S
C668 C669 1.386 . S
C668 C670 1.391 . S
C669 C668 1.386 . S
C669 C673 1.393 . S
C670 H662 0.950 . S
C670 C668 1.391 . S
C670 C671 1.400 . S
C671 C670 1.400 . S
C671 C672 1.398 . S
C671 C677 1.491 . S
C672 H663 0.950 . S
C672 C671 1.398 . S
C672 C673 1.391 . S
C673 H661 0.950 . S
C673 C669 1.393 . S
C673 C672 1.391 . S
C674 H664 0.950 . S
C674 C675 1.386 . S
C674 C676 1.391 . S
C675 C674 1.386 . S
C675 C679 1.393 . S
C676 H665 0.950 . S
C676 C674 1.391 . S
C676 C677 1.400 . S
C677 C671 1.491 . S
C677 C676 1.400 . S
C677 C678 1.398 . S
C678 H666 0.950 . S
C678 C677 1.398 . S
C678 C679 1.391 . S
C679 H667 0.950 . S
C679 C675 1.393 . S
C679 C678 1.391 . S
H680 C688 0.950 . S
H681 C693 0.950 . S
H682 C690 0.950 . S
H683 C692 0.950 . S
H684 C694 0.950 . S
H685 C696 0.950 . S
H686 C698 0.950 . S
H687 C699 0.950 . S
C688 H680 0.950 . S
C688 C689 1.386 . S
C688 C690 1.391 . S
C689 C688 1.386 . S
C689 C693 1.393 . S
C690 H682 0.950 . S
C690 C688 1.391 . S
C690 C691 1.400 . S
C691 C690 1.400 . S
C691 C692 1.398 . S
C691 C697 1.491 . S
C692 H683 0.950 . S
C692 C691 1.398 . S
C692 C693 1.391 . S
C693 H681 0.950 . S
C693 C689 1.393 . S
C693 C692 1.391 . S
C694 H684 0.950 . S
C694 C695 1.386 . S
C694 C696 1.391 . S
C695 C694 1.386 . S
C695 C699 1.393 . S
C696 H685 0.950 . S
C696 C694 1.391 . S
C696 C697 1.400 . S
C697 C691 1.491 . S
C697 C696 1.400 . S
C697 C698 1.398 . S
C698 H686 0.950 . S
C698 C697 1.398 . S
C698 C699 1.391 . S
C699 H687 0.950 . S
C699 C695 1.393 . S
C699 C698 1.391 . S
H700 C708 0.950 . S
H701 C713 0.950 . S
H702 C710 0.950 . S
H703 C712 0.950 . S
H704 C714 0.950 . S
H705 C716 0.950 . S
H706 C718 0.950 . S
H707 C719 0.950 . S
C708 H700 0.950 . S
C708 C709 1.386 . S
C708 C710 1.391 . S
C709 C708 1.386 . S
C709 C713 1.393 . S
C710 H702 0.950 . S
C710 C708 1.391 . S
C710 C711 1.400 . S
C711 C710 1.400 . S
C711 C712 1.398 . S
C711 C717 1.491 . S
C712 H703 0.950 . S
C712 C711 1.398 . S
C712 C713 1.391 . S
C713 H701 0.950 . S
C713 C709 1.393 . S
C713 C712 1.391 . S
C714 H704 0.950 . S
C714 C715 1.386 . S
C714 C716 1.391 . S
C715 C714 1.386 . S
C715 C719 1.393 . S
C716 H705 0.950 . S
C716 C714 1.391 . S
C716 C717 1.400 . S
C717 C711 1.491 . S
C717 C716 1.400 . S
C717 C718 1.398 . S
C718 H706 0.950 . S
C718 C717 1.398 . S
C718 C719 1.391 . S
C719 H707 0.950 . S
C719 C715 1.393 . S
C719 C718 1.391 . S
H720 C728 0.950 . S
H721 C733 0.950 . S
H722 C730 0.950 . S
H723 C732 0.950 . S
H724 C734 0.950 . S
H725 C736 0.950 . S
H726 C738 0.950 . S
H727 C739 0.950 . S
C728 H720 0.950 . S
C728 C729 1.386 . S
C728 C730 1.391 . S
C729 C728 1.386 . S
C729 C733 1.393 . S
C730 H722 0.950 . S
C730 C728 1.391 . S
C730 C731 1.400 . S
C731 C730 1.400 . S
C731 C732 1.398 . S
C731 C737 1.491 . S
C732 H723 0.950 . S
C732 C731 1.398 . S
C732 C733 1.391 . S
C733 H721 0.950 . S
C733 C729 1.393 . S
C733 C732 1.391 . S
C734 H724 0.950 . S
C734 C735 1.386 . S
C734 C736 1.391 . S
C735 C734 1.386 . S
C735 C739 1.393 . S
C736 H725 0.950 . S
C736 C734 1.391 . S
C736 C737 1.400 . S
C737 C731 1.491 . S
C737 C736 1.400 . S
C737 C738 1.398 . S
C738 H726 0.950 . S
C738 C737 1.398 . S
C738 C739 1.391 . S
C739 H727 0.950 . S
C739 C735 1.393 . S
C739 C738 1.391 . S
H740 C748 0.950 . S
H741 C753 0.950 . S
H742 C750 0.950 . S
H743 C752 0.950 . S
H744 C754 0.950 . S
H745 C756 0.950 . S
H746 C758 0.950 . S
H747 C759 0.950 . S
C748 H740 0.950 . S
C748 C749 1.386 . S
C748 C750 1.391 . S
C749 C748 1.386 . S
C749 C753 1.393 . S
C750 H742 0.950 . S
C750 C748 1.391 . S
C750 C751 1.400 . S
C751 C750 1.400 . S
C751 C752 1.398 . S
C751 C757 1.491 . S
C752 H743 0.950 . S
C752 C751 1.398 . S
C752 C753 1.391 . S
C753 H741 0.950 . S
C753 C749 1.393 . S
C753 C752 1.391 . S
C754 H744 0.950 . S
C754 C755 1.386 . S
C754 C756 1.391 . S
C755 C754 1.386 . S
C755 C759 1.393 . S
C756 H745 0.950 . S
C756 C754 1.391 . S
C756 C757 1.400 . S
C757 C751 1.491 . S
C757 C756 1.400 . S
C757 C758 1.398 . S
C758 H746 0.950 . S
C758 C757 1.398 . S
C758 C759 1.391 . S
C759 H747 0.950 . S
C759 C755 1.393 . S
C759 C758 1.391 . S
H760 C768 0.950 . S
H761 C773 0.950 . S
H762 C770 0.950 . S
H763 C772 0.950 . S
H764 C774 0.950 . S
H765 C776 0.950 . S
H766 C778 0.950 . S
H767 C779 0.950 . S
C768 H760 0.950 . S
C768 C769 1.386 . S
C768 C770 1.391 . S
C769 C768 1.386 . S
C769 C773 1.393 . S
C770 H762 0.950 . S
C770 C768 1.391 . S
C770 C771 1.400 . S
C771 C770 1.400 . S
C771 C772 1.398 . S
C771 C777 1.491 . S
C772 H763 0.950 . S
C772 C771 1.398 . S
C772 C773 1.391 . S
C773 H761 0.950 . S
C773 C769 1.393 . S
C773 C772 1.391 . S
C774 H764 0.950 . S
C774 C775 1.386 . S
C774 C776 1.391 . S
C775 C774 1.386 . S
C775 C779 1.393 . S
C776 H765 0.950 . S
C776 C774 1.391 . S
C776 C777 1.400 . S
C777 C771 1.491 . S
C777 C776 1.400 . S
C777 C778 1.398 . S
C778 H766 0.950 . S
C778 C777 1.398 . S
C778 C779 1.391 . S
C779 H767 0.950 . S
C779 C775 1.393 . S
C779 C778 1.391 . S
H780 C788 0.950 . S
H781 C793 0.950 . S
H782 C790 0.950 . S
H783 C792 0.950 . S
H784 C794 0.950 . S
H785 C796 0.950 . S
H786 C798 0.950 . S
H787 C799 0.950 . S
C788 H780 0.950 . S
C788 C789 1.386 . S
C788 C790 1.391 . S
C789 C788 1.386 . S
C789 C793 1.393 . S
C790 H782 0.950 . S
C790 C788 1.391 . S
C790 C791 1.400 . S
C791 C790 1.400 . S
C791 C792 1.398 . S
C791 C797 1.491 . S
C792 H783 0.950 . S
C792 C791 1.398 . S
C792 C793 1.391 . S
C793 H781 0.950 . S
C793 C789 1.393 . S
C793 C792 1.391 . S
C794 H784 0.950 . S
C794 C795 1.386 . S
C794 C796 1.391 . S
C795 C794 1.386 . S
C795 C799 1.393 . S
C796 H785 0.950 . S
C796 C794 1.391 . S
C796 C797 1.400 . S
C797 C791 1.491 . S
C797 C796 1.400 . S
C797 C798 1.398 . S
C798 H786 0.950 . S
C798 C797 1.398 . S
C798 C799 1.391 . S
C799 H787 0.950 . S
C799 C795 1.393 . S
C799 C798 1.391 . S
H800 C808 0.950 . S
H801 C813 0.950 . S
H802 C810 0.950 . S
H803 C812 0.950 . S
H804 C814 0.950 . S
H805 C816 0.950 . S
H806 C818 0.950 . S
H807 C819 0.950 . S
C808 H800 0.950 . S
C808 C809 1.386 . S
C808 C810 1.391 . S
C809 C808 1.386 . S
C809 C813 1.393 . S
C810 H802 0.950 . S
C810 C808 1.391 . S
C810 C811 1.400 . S
C811 C810 1.400 . S
C811 C812 1.398 . S
C811 C817 1.491 1_565 S
C812 H803 0.950 . S
C812 C811 1.398 . S
C812 C813 1.391 . S
C813 H801 0.950 . S
C813 C809 1.393 . S
C813 C812 1.391 . S
C814 H804 0.950 . S
C814 C815 1.386 . S
C814 C816 1.391 . S
C815 C814 1.386 . S
C815 C819 1.393 . S
C816 H805 0.950 . S
C816 C814 1.391 . S
C816 C817 1.400 . S
C817 C811 1.491 1_545 S
C817 C816 1.400 . S
C817 C818 1.398 . S
C818 H806 0.950 . S
C818 C817 1.398 . S
C818 C819 1.391 . S
C819 H807 0.950 . S
C819 C815 1.393 . S
C819 C818 1.391 . S
H820 C828 0.950 . S
H821 C833 0.950 . S
H822 C830 0.950 . S
H823 C832 0.950 1_565 S
H824 C834 0.950 . S
H825 C836 0.950 . S
H826 C838 0.950 1_545 S
H827 C839 0.950 . S
C828 H820 0.950 . S
C828 C829 1.386 . S
C828 C830 1.391 . S
C829 C828 1.386 . S
C829 C833 1.393 . S
C830 H822 0.950 . S
C830 C828 1.391 . S
C830 C831 1.400 . S
C831 C830 1.400 . S
C831 C832 1.398 . S
C831 C837 1.491 1_545 S
C832 H823 0.950 1_545 S
C832 C831 1.398 . S
C832 C833 1.391 . S
C833 H821 0.950 . S
C833 C829 1.393 . S
C833 C832 1.391 . S
C834 H824 0.950 . S
C834 C835 1.386 . S
C834 C836 1.391 . S
C835 C834 1.386 . S
C835 C839 1.393 . S
C836 H825 0.950 . S
C836 C834 1.391 . S
C836 C837 1.400 . S
C837 C831 1.491 1_565 S
C837 C836 1.400 . S
C837 C838 1.398 . S
C838 H826 0.950 1_565 S
C838 C837 1.398 . S
C838 C839 1.391 . S
C839 H827 0.950 . S
C839 C835 1.393 . S
C839 C838 1.391 . S
H840 C848 0.950 . S
H841 C853 0.950 . S
H842 C850 0.950 1_565 S
H843 C852 0.950 . S
H844 C854 0.950 . S
H845 C856 0.950 1_545 S
H846 C858 0.950 . S
H847 C859 0.950 . S
C848 H840 0.950 . S
C848 C849 1.386 . S
C848 C850 1.391 . S
C849 C848 1.386 . S
C849 C853 1.393 . S
C850 H842 0.950 1_545 S
C850 C848 1.391 . S
C850 C851 1.400 . S
C851 C850 1.400 . S
C851 C852 1.398 . S
C851 C857 1.491 1_545 S
C852 H843 0.950 . S
C852 C851 1.398 . S
C852 C853 1.391 . S
C853 H841 0.950 . S
C853 C849 1.393 . S
C853 C852 1.391 . S
C854 H844 0.950 . S
C854 C855 1.386 . S
C854 C856 1.391 . S
C855 C854 1.386 . S
C855 C859 1.393 . S
C856 H845 0.950 1_565 S
C856 C854 1.391 . S
C856 C857 1.400 . S
C857 C851 1.491 1_565 S
C857 C856 1.400 . S
C857 C858 1.398 . S
C858 H846 0.950 . S
C858 C857 1.398 . S
C858 C859 1.391 . S
C859 H847 0.950 . S
C859 C855 1.393 . S
C859 C858 1.391 . S
H860 C868 0.950 1_565 S
H861 C873 0.950 . S
H862 C870 0.950 . S
H863 C872 0.950 . S
H864 C874 0.950 1_545 S
H865 C876 0.950 . S
H866 C878 0.950 . S
H867 C879 0.950 . S
C868 H860 0.950 1_545 S
C868 C869 1.386 . S
C868 C870 1.391 1_545 S
C869 C868 1.386 . S
C869 C873 1.393 . S
C870 H862 0.950 . S
C870 C868 1.391 1_565 S
C870 C871 1.400 1_565 S
C871 C870 1.400 1_545 S
C871 C872 1.398 . S
C871 C877 1.491 1_545 S
C872 H863 0.950 . S
C872 C871 1.398 . S
C872 C873 1.391 . S
C873 H861 0.950 . S
C873 C869 1.393 . S
C873 C872 1.391 . S
C874 H864 0.950 1_565 S
C874 C875 1.386 . S
C874 C876 1.391 1_565 S
C875 C874 1.386 . S
C875 C879 1.393 . S
C876 H865 0.950 . S
C876 C874 1.391 1_545 S
C876 C877 1.400 1_545 S
C877 C871 1.491 1_565 S
C877 C876 1.400 1_565 S
C877 C878 1.398 . S
C878 H866 0.950 . S
C878 C877 1.398 . S
C878 C879 1.391 . S
C879 H867 0.950 . S
C879 C875 1.393 . S
C879 C878 1.391 . S
H880 C888 0.950 . S
H881 C893 0.950 . S
H882 C890 0.950 . S
H883 C892 0.950 . S
H884 C894 0.950 . S
H885 C896 0.950 . S
H886 C898 0.950 . S
H887 C899 0.950 . S
C888 H880 0.950 . S
C888 C889 1.386 . S
C888 C890 1.391 . S
C889 C888 1.386 . S
C889 C893 1.393 . S
C890 H882 0.950 . S
C890 C888 1.391 . S
C890 C891 1.400 . S
C891 C890 1.400 . S
C891 C892 1.398 . S
C891 C897 1.491 . S
C892 H883 0.950 . S
C892 C891 1.398 . S
C892 C893 1.391 . S
C893 H881 0.950 . S
C893 C889 1.393 . S
C893 C892 1.391 . S
C894 H884 0.950 . S
C894 C895 1.386 . S
C894 C896 1.391 . S
C895 C894 1.386 . S
C895 C899 1.393 . S
C896 H885 0.950 . S
C896 C894 1.391 . S
C896 C897 1.400 . S
C897 C891 1.491 . S
C897 C896 1.400 . S
C897 C898 1.398 . S
C898 H886 0.950 . S
C898 C897 1.398 . S
C898 C899 1.391 . S
C899 H887 0.950 . S
C899 C895 1.393 . S
C899 C898 1.391 . S
H900 C908 0.950 . S
H901 C913 0.950 . S
H902 C910 0.950 . S
H903 C912 0.950 . S
H904 C914 0.950 . S
H905 C916 0.950 . S
H906 C918 0.950 . S
H907 C919 0.950 . S
C908 H900 0.950 . S
C908 C909 1.386 . S
C908 C910 1.391 . S
C909 C908 1.386 . S
C909 C913 1.393 . S
C910 H902 0.950 . S
C910 C908 1.391 . S
C910 C911 1.400 . S
C911 C910 1.400 . S
C911 C912 1.398 . S
C911 C917 1.491 . S
C912 H903 0.950 . S
C912 C911 1.398 . S
C912 C913 1.391 . S
C913 H901 0.950 . S
C913 C909 1.393 . S
C913 C912 1.391 . S
C914 H904 0.950 . S
C914 C915 1.386 . S
C914 C916 1.391 . S
C915 C914 1.386 . S
C915 C919 1.393 . S
C916 H905 0.950 . S
C916 C914 1.391 . S
C916 C917 1.400 . S
C917 C911 1.491 . S
C917 C916 1.400 . S
C917 C918 1.398 . S
C918 H906 0.950 . S
C918 C917 1.398 . S
C918 C919 1.391 . S
C919 H907 0.950 . S
C919 C915 1.393 . S
C919 C918 1.391 . S
H920 C928 0.950 . S
H921 C933 0.950 . S
H922 C930 0.950 . S
H923 C932 0.950 . S
H924 C934 0.950 . S
H925 C936 0.950 . S
H926 C938 0.950 . S
H927 C939 0.950 . S
C928 H920 0.950 . S
C928 C929 1.386 . S
C928 C930 1.391 . S
C929 C928 1.386 . S
C929 C933 1.393 . S
C930 H922 0.950 . S
C930 C928 1.391 . S
C930 C931 1.400 . S
C931 C930 1.400 . S
C931 C932 1.398 . S
C931 C937 1.491 . S
C932 H923 0.950 . S
C932 C931 1.398 . S
C932 C933 1.391 . S
C933 H921 0.950 . S
C933 C929 1.393 . S
C933 C932 1.391 . S
C934 H924 0.950 . S
C934 C935 1.386 . S
C934 C936 1.391 . S
C935 C934 1.386 . S
C935 C939 1.393 . S
C936 H925 0.950 . S
C936 C934 1.391 . S
C936 C937 1.400 . S
C937 C931 1.491 . S
C937 C936 1.400 . S
C937 C938 1.398 . S
C938 H926 0.950 . S
C938 C937 1.398 . S
C938 C939 1.391 . S
C939 H927 0.950 . S
C939 C935 1.393 . S
C939 C938 1.391 . S
H940 C948 0.950 . S
H941 C953 0.950 . S
H942 C950 0.950 . S
H943 C952 0.950 . S
H944 C954 0.950 . S
H945 C956 0.950 . S
H946 C958 0.950 . S
H947 C959 0.950 . S
C948 H940 0.950 . S
C948 C949 1.386 . S
C948 C950 1.391 . S
C949 C948 1.386 . S
C949 C953 1.393 . S
C950 H942 0.950 . S
C950 C948 1.391 . S
C950 C951 1.400 . S
C951 C950 1.400 . S
C951 C952 1.398 . S
C951 C957 1.491 . S
C952 H943 0.950 . S
C952 C951 1.398 . S
C952 C953 1.391 . S
C953 H941 0.950 . S
C953 C949 1.393 . S
C953 C952 1.391 . S
C954 H944 0.950 . S
C954 C955 1.386 . S
C954 C956 1.391 . S
C955 C954 1.386 . S
C955 C959 1.393 . S
C956 H945 0.950 . S
C956 C954 1.391 . S
C956 C957 1.400 . S
C957 C951 1.491 . S
C957 C956 1.400 . S
C957 C958 1.398 . S
C958 H946 0.950 . S
C958 C957 1.398 . S
C958 C959 1.391 . S
C959 H947 0.950 . S
C959 C955 1.393 . S
C959 C958 1.391 . S
H960 C968 0.950 . S
H961 C973 0.950 . S
H962 C970 0.950 . S
H963 C972 0.950 . S
H964 C974 0.950 . S
H965 C976 0.950 . S
H966 C978 0.950 . S
H967 C979 0.950 . S
C968 H960 0.950 . S
C968 C969 1.386 . S
C968 C970 1.391 . S
C969 C968 1.386 . S
C969 C973 1.393 . S
C970 H962 0.950 . S
C970 C968 1.391 . S
C970 C971 1.400 . S
C971 C970 1.400 . S
C971 C972 1.398 . S
C971 C977 1.491 1_556 S
C972 H963 0.950 . S
C972 C971 1.398 . S
C972 C973 1.391 . S
C973 H961 0.950 . S
C973 C969 1.393 . S
C973 C972 1.391 . S
C974 H964 0.950 . S
C974 C975 1.386 . S
C974 C976 1.391 . S
C975 C974 1.386 . S
C975 C979 1.393 . S
C976 H965 0.950 . S
C976 C974 1.391 . S
C976 C977 1.400 . S
C977 C971 1.491 1_554 S
C977 C976 1.400 . S
C977 C978 1.398 . S
C978 H966 0.950 . S
C978 C977 1.398 . S
C978 C979 1.391 . S
C979 H967 0.950 . S
C979 C975 1.393 . S
C979 C978 1.391 . S
H980 C988 0.950 . S
H981 C993 0.950 . S
H982 C990 0.950 . S
H983 C992 0.950 . S
H984 C994 0.950 . S
H985 C996 0.950 . S
H986 C998 0.950 . S
H987 C999 0.950 . S
C988 H980 0.950 . S
C988 C989 1.386 . S
C988 C990 1.391 . S
C989 C988 1.386 . S
C989 C993 1.393 . S
C990 H982 0.950 . S
C990 C988 1.391 . S
C990 C991 1.400 . S
C991 C990 1.400 . S
C991 C992 1.398 . S
C991 C997 1.491 1_556 S
C992 H983 0.950 . S
C992 C991 1.398 . S
C992 C993 1.391 . S
C993 H981 0.950 . S
C993 C989 1.393 . S
C993 C992 1.391 . S
C994 H984 0.950 . S
C994 C995 1.386 . S
C994 C996 1.391 . S
C995 C994 1.386 . S
C995 C999 1.393 . S
C996 H985 0.950 . S
C996 C994 1.391 . S
C996 C997 1.400 . S
C997 C991 1.491 1_554 S
C997 C996 1.400 . S
C997 C998 1.398 . S
C998 H986 0.950 . S
C998 C997 1.398 . S
C998 C999 1.391 . S
C999 H987 0.950 . S
C999 C995 1.393 . S
C999 C998 1.391 . S
H1000 C1008 0.950 . S
H1001 C1013 0.950 . S
H1002 C1010 0.950 . S
H1003 C1012 0.950 . S
H1004 C1014 0.950 . S
H1005 C1016 0.950 . S
H1006 C1018 0.950 . S
H1007 C1019 0.950 . S
C1008 H1000 0.950 . S
C1008 C1009 1.386 . S
C1008 C1010 1.391 . S
C1009 C1008 1.386 . S
C1009 C1013 1.393 . S
C1010 H1002 0.950 . S
C1010 C1008 1.391 . S
C1010 C1011 1.400 . S
C1011 C1010 1.400 . S
C1011 C1012 1.398 . S
C1011 C1017 1.491 . S
C1012 H1003 0.950 . S
C1012 C1011 1.398 . S
C1012 C1013 1.391 . S
C1013 H1001 0.950 . S
C1013 C1009 1.393 . S
C1013 C1012 1.391 . S
C1014 H1004 0.950 . S
C1014 C1015 1.386 . S
C1014 C1016 1.391 . S
C1015 C1014 1.386 . S
C1015 C1019 1.393 . S
C1016 H1005 0.950 . S
C1016 C1014 1.391 . S
C1016 C1017 1.400 . S
C1017 C1011 1.491 . S
C1017 C1016 1.400 . S
C1017 C1018 1.398 . S
C1018 H1006 0.950 . S
C1018 C1017 1.398 . S
C1018 C1019 1.391 . S
C1019 H1007 0.950 . S
C1019 C1015 1.393 . S
C1019 C1018 1.391 . S
H1020 C1028 0.950 . S
H1021 C1033 0.950 . S
H1022 C1030 0.950 . S
H1023 C1032 0.950 . S
H1024 C1034 0.950 . S
H1025 C1036 0.950 . S
H1026 C1038 0.950 . S
H1027 C1039 0.950 . S
C1028 H1020 0.950 . S
C1028 C1029 1.386 . S
C1028 C1030 1.391 . S
C1029 C1028 1.386 . S
C1029 C1033 1.393 . S
C1030 H1022 0.950 . S
C1030 C1028 1.391 . S
C1030 C1031 1.400 . S
C1031 C1030 1.400 . S
C1031 C1032 1.398 . S
C1031 C1037 1.491 . S
C1032 H1023 0.950 . S
C1032 C1031 1.398 . S
C1032 C1033 1.391 . S
C1033 H1021 0.950 . S
C1033 C1029 1.393 . S
C1033 C1032 1.391 . S
C1034 H1024 0.950 . S
C1034 C1035 1.386 . S
C1034 C1036 1.391 . S
C1035 C1034 1.386 . S
C1035 C1039 1.393 . S
C1036 H1025 0.950 . S
C1036 C1034 1.391 . S
C1036 C1037 1.400 . S
C1037 C1031 1.491 . S
C1037 C1036 1.400 . S
C1037 C1038 1.398 . S
C1038 H1026 0.950 . S
C1038 C1037 1.398 . S
C1038 C1039 1.391 . S
C1039 H1027 0.950 . S
C1039 C1035 1.393 . S
C1039 C1038 1.391 . S
H1040 C1048 0.950 . S
H1041 C1053 0.950 . S
H1042 C1050 0.950 . S
H1043 C1052 0.950 . S
H1044 C1054 0.950 . S
H1045 C1056 0.950 . S
H1046 C1058 0.950 . S
H1047 C1059 0.950 . S
C1048 H1040 0.950 . S
C1048 C1049 1.386 . S
C1048 C1050 1.391 . S
C1049 C1048 1.386 . S
C1049 C1053 1.393 . S
C1050 H1042 0.950 . S
C1050 C1048 1.391 . S
C1050 C1051 1.400 . S
C1051 C1050 1.400 . S
C1051 C1052 1.398 . S
C1051 C1057 1.491 1_554 S
C1052 H1043 0.950 . S
C1052 C1051 1.398 . S
C1052 C1053 1.391 . S
C1053 H1041 0.950 . S
C1053 C1049 1.393 . S
C1053 C1052 1.391 . S
C1054 H1044 0.950 . S
C1054 C1055 1.386 . S
C1054 C1056 1.391 . S
C1055 C1054 1.386 . S
C1055 C1059 1.393 . S
C1056 H1045 0.950 . S
C1056 C1054 1.391 . S
C1056 C1057 1.400 . S
C1057 C1051 1.491 1_556 S
C1057 C1056 1.400 . S
C1057 C1058 1.398 . S
C1058 H1046 0.950 . S
C1058 C1057 1.398 . S
C1058 C1059 1.391 . S
C1059 H1047 0.950 . S
C1059 C1055 1.393 . S
C1059 C1058 1.391 . S
H1060 C1068 0.950 . S
H1061 C1073 0.950 . S
H1062 C1070 0.950 . S
H1063 C1072 0.950 . S
H1064 C1074 0.950 . S
H1065 C1076 0.950 . S
H1066 C1078 0.950 . S
H1067 C1079 0.950 . S
C1068 H1060 0.950 . S
C1068 C1069 1.386 . S
C1068 C1070 1.391 . S
C1069 C1068 1.386 . S
C1069 C1073 1.393 . S
C1070 H1062 0.950 . S
C1070 C1068 1.391 . S
C1070 C1071 1.400 . S
C1071 C1070 1.400 . S
C1071 C1072 1.398 . S
C1071 C1077 1.491 1_556 S
C1072 H1063 0.950 . S
C1072 C1071 1.398 . S
C1072 C1073 1.391 . S
C1073 H1061 0.950 . S
C1073 C1069 1.393 . S
C1073 C1072 1.391 . S
C1074 H1064 0.950 . S
C1074 C1075 1.386 . S
C1074 C1076 1.391 . S
C1075 C1074 1.386 . S
C1075 C1079 1.393 . S
C1076 H1065 0.950 . S
C1076 C1074 1.391 . S
C1076 C1077 1.400 . S
C1077 C1071 1.491 1_554 S
C1077 C1076 1.400 . S
C1077 C1078 1.398 . S
C1078 H1066 0.950 . S
C1078 C1077 1.398 . S
C1078 C1079 1.391 . S
C1079 H1067 0.950 . S
C1079 C1075 1.393 . S
C1079 C1078 1.391 . S
H1080 C1088 0.950 . S
H1081 C1093 0.950 . S
H1082 C1090 0.950 . S
H1083 C1092 0.950 . S
H1084 C1094 0.950 . S
H1085 C1096 0.950 . S
H1086 C1098 0.950 . S
H1087 C1099 0.950 . S
C1088 H1080 0.950 . S
C1088 C1089 1.386 . S
C1088 C1090 1.391 . S
C1089 C1088 1.386 . S
C1089 C1093 1.393 . S
C1090 H1082 0.950 . S
C1090 C1088 1.391 . S
C1090 C1091 1.400 . S
C1091 C1090 1.400 . S
C1091 C1092 1.398 . S
C1091 C1097 1.491 . S
C1092 H1083 0.950 . S
C1092 C1091 1.398 . S
C1092 C1093 1.391 . S
C1093 H1081 0.950 . S
C1093 C1089 1.393 . S
C1093 C1092 1.391 . S
C1094 H1084 0.950 . S
C1094 C1095 1.386 . S
C1094 C1096 1.391 . S
C1095 C1094 1.386 . S
C1095 C1099 1.393 . S
C1096 H1085 0.950 . S
C1096 C1094 1.391 . S
C1096 C1097 1.400 . S
C1097 C1091 1.491 . S
C1097 C1096 1.400 . S
C1097 C1098 1.398 . S
C1098 H1086 0.950 . S
C1098 C1097 1.398 . S
C1098 C1099 1.391 . S
C1099 H1087 0.950 . S
C1099 C1095 1.393 . S
C1099 C1098 1.391 . S
H1100 C1108 0.950 . S
H1101 C1113 0.950 . S
H1102 C1110 0.950 . S
H1103 C1112 0.950 . S
H1104 C1114 0.950 . S
H1105 C1116 0.950 . S
H1106 C1118 0.950 . S
H1107 C1119 0.950 . S
C1108 H1100 0.950 . S
C1108 C1109 1.386 . S
C1108 C1110 1.391 . S
C1109 C1108 1.386 . S
C1109 C1113 1.393 . S
C1110 H1102 0.950 . S
C1110 C1108 1.391 . S
C1110 C1111 1.400 . S
C1111 C1110 1.400 . S
C1111 C1112 1.398 . S
C1111 C1117 1.491 . S
C1112 H1103 0.950 . S
C1112 C1111 1.398 . S
C1112 C1113 1.391 . S
C1113 H1101 0.950 . S
C1113 C1109 1.393 . S
C1113 C1112 1.391 . S
C1114 H1104 0.950 . S
C1114 C1115 1.386 . S
C1114 C1116 1.391 . S
C1115 C1114 1.386 . S
C1115 C1119 1.393 . S
C1116 H1105 0.950 . S
C1116 C1114 1.391 . S
C1116 C1117 1.400 . S
C1117 C1111 1.491 . S
C1117 C1116 1.400 . S
C1117 C1118 1.398 . S
C1118 H1106 0.950 . S
C1118 C1117 1.398 . S
C1118 C1119 1.391 . S
C1119 H1107 0.950 . S
C1119 C1115 1.393 . S
C1119 C1118 1.391 . S
H1120 C1128 0.950 . S
H1121 C1133 0.950 . S
H1122 C1130 0.950 . S
H1123 C1132 0.950 . S
H1124 C1134 0.950 . S
H1125 C1136 0.950 . S
H1126 C1138 0.950 . S
H1127 C1139 0.950 . S
C1128 H1120 0.950 . S
C1128 C1129 1.386 1_545 S
C1128 C1130 1.391 . S
C1129 C1128 1.386 1_565 S
C1129 C1133 1.393 . S
C1130 H1122 0.950 . S
C1130 C1128 1.391 . S
C1130 C1131 1.400 1_545 S
C1131 C1130 1.400 1_565 S
C1131 C1132 1.398 . S
C1131 C1137 1.491 1_665 S
C1132 H1123 0.950 . S
C1132 C1131 1.398 . S
C1132 C1133 1.391 . S
C1133 H1121 0.950 . S
C1133 C1129 1.393 . S
C1133 C1132 1.391 . S
C1134 H1124 0.950 . S
C1134 C1135 1.386 1_565 S
C1134 C1136 1.391 . S
C1135 C1134 1.386 1_545 S
C1135 C1139 1.393 . S
C1136 H1125 0.950 . S
C1136 C1134 1.391 . S
C1136 C1137 1.400 1_565 S
C1137 C1131 1.491 1_445 S
C1137 C1136 1.400 1_545 S
C1137 C1138 1.398 . S
C1138 H1126 0.950 . S
C1138 C1137 1.398 . S
C1138 C1139 1.391 . S
C1139 H1127 0.950 . S
C1139 C1135 1.393 . S
C1139 C1138 1.391 . S
H1140 C1148 0.950 . S
H1141 C1153 0.950 . S
H1142 C1150 0.950 . S
H1143 C1152 0.950 . S
H1144 C1154 0.950 . S
H1145 C1156 0.950 . S
H1146 C1158 0.950 . S
H1147 C1159 0.950 . S
C1148 H1140 0.950 . S
C1148 C1149 1.386 . S
C1148 C1150 1.391 . S
C1149 C1148 1.386 . S
C1149 C1153 1.393 1_545 S
C1150 H1142 0.950 . S
C1150 C1148 1.391 . S
C1150 C1151 1.400 . S
C1151 C1150 1.400 . S
C1151 C1152 1.398 1_545 S
C1151 C1157 1.491 1_645 S
C1152 H1143 0.950 . S
C1152 C1151 1.398 1_565 S
C1152 C1153 1.391 . S
C1153 H1141 0.950 . S
C1153 C1149 1.393 1_565 S
C1153 C1152 1.391 . S
C1154 H1144 0.950 . S
C1154 C1155 1.386 . S
C1154 C1156 1.391 . S
C1155 C1154 1.386 . S
C1155 C1159 1.393 1_565 S
C1156 H1145 0.950 . S
C1156 C1154 1.391 . S
C1156 C1157 1.400 . S
C1157 C1151 1.491 1_465 S
C1157 C1156 1.400 . S
C1157 C1158 1.398 1_565 S
C1158 H1146 0.950 . S
C1158 C1157 1.398 1_545 S
C1158 C1159 1.391 . S
C1159 H1147 0.950 . S
C1159 C1155 1.393 1_545 S
C1159 C1158 1.391 . S
H1160 C1168 0.950 . S
H1161 C1173 0.950 . S
H1162 C1170 0.950 . S
H1163 C1172 0.950 . S
H1164 C1174 0.950 . S
H1165 C1176 0.950 . S
H1166 C1178 0.950 . S
H1167 C1179 0.950 . S
C1168 H1160 0.950 . S
C1168 C1169 1.386 . S
C1168 C1170 1.391 . S
C1169 C1168 1.386 . S
C1169 C1173 1.393 . S
C1170 H1162 0.950 . S
C1170 C1168 1.391 . S
C1170 C1171 1.400 . S
C1171 C1170 1.400 . S
C1171 C1172 1.398 . S
C1171 C1177 1.491 1_445 S
C1172 H1163 0.950 . S
C1172 C1171 1.398 . S
C1172 C1173 1.391 . S
C1173 H1161 0.950 . S
C1173 C1169 1.393 . S
C1173 C1172 1.391 . S
C1174 H1164 0.950 . S
C1174 C1175 1.386 . S
C1174 C1176 1.391 . S
C1175 C1174 1.386 . S
C1175 C1179 1.393 . S
C1176 H1165 0.950 . S
C1176 C1174 1.391 . S
C1176 C1177 1.400 . S
C1177 C1171 1.491 1_665 S
C1177 C1176 1.400 . S
C1177 C1178 1.398 . S
C1178 H1166 0.950 . S
C1178 C1177 1.398 . S
C1178 C1179 1.391 . S
C1179 H1167 0.950 . S
C1179 C1175 1.393 . S
C1179 C1178 1.391 . S
H1180 C1188 0.950 . S
H1181 C1193 0.950 . S
H1182 C1190 0.950 1_565 S
H1183 C1192 0.950 . S
H1184 C1194 0.950 . S
H1185 C1196 0.950 1_545 S
H1186 C1198 0.950 . S
H1187 C1199 0.950 . S
C1188 H1180 0.950 . S
C1188 C1189 1.386 . S
C1188 C1190 1.391 . S
C1189 C1188 1.386 . S
C1189 C1193 1.393 . S
C1190 H1182 0.950 1_545 S
C1190 C1188 1.391 . S
C1190 C1191 1.400 . S
C1191 C1190 1.400 . S
C1191 C1192 1.398 . S
C1191 C1197 1.491 1_645 S
C1192 H1183 0.950 . S
C1192 C1191 1.398 . S
C1192 C1193 1.391 . S
C1193 H1181 0.950 . S
C1193 C1189 1.393 . S
C1193 C1192 1.391 . S
C1194 H1184 0.950 . S
C1194 C1195 1.386 . S
C1194 C1196 1.391 . S
C1195 C1194 1.386 . S
C1195 C1199 1.393 . S
C1196 H1185 0.950 1_565 S
C1196 C1194 1.391 . S
C1196 C1197 1.400 . S
C1197 C1191 1.491 1_465 S
C1197 C1196 1.400 . S
C1197 C1198 1.398 . S
C1198 H1186 0.950 . S
C1198 C1197 1.398 . S
C1198 C1199 1.391 . S
C1199 H1187 0.950 . S
C1199 C1195 1.393 . S
C1199 C1198 1.391 . S
H1200 C1208 0.950 . S
H1201 C1213 0.950 . S
H1202 C1210 0.950 . S
H1203 C1212 0.950 . S
H1204 C1214 0.950 . S
H1205 C1216 0.950 . S
H1206 C1218 0.950 . S
H1207 C1219 0.950 . S
C1208 H1200 0.950 . S
C1208 C1209 1.386 . S
C1208 C1210 1.391 . S
C1209 C1208 1.386 . S
C1209 C1213 1.393 . S
C1210 H1202 0.950 . S
C1210 C1208 1.391 . S
C1210 C1211 1.400 . S
C1211 C1210 1.400 . S
C1211 C1212 1.398 . S
C1211 C1217 1.491 . S
C1212 H1203 0.950 . S
C1212 C1211 1.398 . S
C1212 C1213 1.391 . S
C1213 H1201 0.950 . S
C1213 C1209 1.393 . S
C1213 C1212 1.391 . S
C1214 H1204 0.950 . S
C1214 C1215 1.386 . S
C1214 C1216 1.391 . S
C1215 C1214 1.386 . S
C1215 C1219 1.393 . S
C1216 H1205 0.950 . S
C1216 C1214 1.391 . S
C1216 C1217 1.400 . S
C1217 C1211 1.491 . S
C1217 C1216 1.400 . S
C1217 C1218 1.398 . S
C1218 H1206 0.950 . S
C1218 C1217 1.398 . S
C1218 C1219 1.391 . S
C1219 H1207 0.950 . S
C1219 C1215 1.393 . S
C1219 C1218 1.391 . S
H1220 C1228 0.950 . S
H1221 C1233 0.950 . S
H1222 C1230 0.950 . S
H1223 C1232 0.950 . S
H1224 C1234 0.950 . S
H1225 C1236 0.950 . S
H1226 C1238 0.950 . S
H1227 C1239 0.950 . S
C1228 H1220 0.950 . S
C1228 C1229 1.386 . S
C1228 C1230 1.391 . S
C1229 C1228 1.386 . S
C1229 C1233 1.393 . S
C1230 H1222 0.950 . S
C1230 C1228 1.391 . S
C1230 C1231 1.400 . S
C1231 C1230 1.400 . S
C1231 C1232 1.398 . S
C1231 C1237 1.491 . S
C1232 H1223 0.950 . S
C1232 C1231 1.398 . S
C1232 C1233 1.391 . S
C1233 H1221 0.950 . S
C1233 C1229 1.393 . S
C1233 C1232 1.391 . S
C1234 H1224 0.950 . S
C1234 C1235 1.386 . S
C1234 C1236 1.391 . S
C1235 C1234 1.386 . S
C1235 C1239 1.393 . S
C1236 H1225 0.950 . S
C1236 C1234 1.391 . S
C1236 C1237 1.400 . S
C1237 C1231 1.491 . S
C1237 C1236 1.400 . S
C1237 C1238 1.398 . S
C1238 H1226 0.950 . S
C1238 C1237 1.398 . S
C1238 C1239 1.391 . S
C1239 H1227 0.950 . S
C1239 C1235 1.393 . S
C1239 C1238 1.391 . S
H1240 C1248 0.950 . S
H1241 C1253 0.950 . S
H1242 C1250 0.950 . S
H1243 C1252 0.950 . S
H1244 C1254 0.950 . S
H1245 C1256 0.950 . S
H1246 C1258 0.950 . S
H1247 C1259 0.950 . S
C1248 H1240 0.950 . S
C1248 C1249 1.386 . S
C1248 C1250 1.391 . S
C1249 C1248 1.386 . S
C1249 C1253 1.393 . S
C1250 H1242 0.950 . S
C1250 C1248 1.391 . S
C1250 C1251 1.400 . S
C1251 C1250 1.400 . S
C1251 C1252 1.398 . S
C1251 C1257 1.491 . S
C1252 H1243 0.950 . S
C1252 C1251 1.398 . S
C1252 C1253 1.391 . S
C1253 H1241 0.950 . S
C1253 C1249 1.393 . S
C1253 C1252 1.391 . S
C1254 H1244 0.950 . S
C1254 C1255 1.386 . S
C1254 C1256 1.391 . S
C1255 C1254 1.386 . S
C1255 C1259 1.393 . S
C1256 H1245 0.950 . S
C1256 C1254 1.391 . S
C1256 C1257 1.400 . S
C1257 C1251 1.491 . S
C1257 C1256 1.400 . S
C1257 C1258 1.398 . S
C1258 H1246 0.950 . S
C1258 C1257 1.398 . S
C1258 C1259 1.391 . S
C1259 H1247 0.950 . S
C1259 C1255 1.393 . S
C1259 C1258 1.391 . S
H1260 C1268 0.950 . S
H1261 C1273 0.950 . S
H1262 C1270 0.950 . S
H1263 C1272 0.950 . S
H1264 C1274 0.950 . S
H1265 C1276 0.950 . S
H1266 C1278 0.950 . S
H1267 C1279 0.950 . S
C1268 H1260 0.950 . S
C1268 C1269 1.386 . S
C1268 C1270 1.391 . S
C1269 C1268 1.386 . S
C1269 C1273 1.393 . S
C1270 H1262 0.950 . S
C1270 C1268 1.391 . S
C1270 C1271 1.400 . S
C1271 C1270 1.400 . S
C1271 C1272 1.398 . S
C1271 C1277 1.491 . S
C1272 H1263 0.950 . S
C1272 C1271 1.398 . S
C1272 C1273 1.391 . S
C1273 H1261 0.950 . S
C1273 C1269 1.393 . S
C1273 C1272 1.391 . S
C1274 H1264 0.950 . S
C1274 C1275 1.386 . S
C1274 C1276 1.391 . S
C1275 C1274 1.386 . S
C1275 C1279 1.393 . S
C1276 H1265 0.950 . S
C1276 C1274 1.391 . S
C1276 C1277 1.400 . S
C1277 C1271 1.491 . S
C1277 C1276 1.400 . S
C1277 C1278 1.398 . S
C1278 H1266 0.950 . S
C1278 C1277 1.398 . S
C1278 C1279 1.391 . S
C1279 H1267 0.950 . S
C1279 C1275 1.393 . S
C1279 C1278 1.391 . S
H1280 C1288 0.950 . S
H1281 C1293 0.950 . S
H1282 C1290 0.950 . S
H1283 C1292 0.950 . S
H1284 C1294 0.950 . S
H1285 C1296 0.950 . S
H1286 C1298 0.950 . S
H1287 C1299 0.950 . S
C1288 H1280 0.950 . S
C1288 C1289 1.386 . S
C1288 C1290 1.391 . S
C1289 C1288 1.386 . S
C1289 C1293 1.393 . S
C1290 H1282 0.950 . S
C1290 C1288 1.391 . S
C1290 C1291 1.400 . S
C1291 C1290 1.400 . S
C1291 C1292 1.398 . S
C1291 C1297 1.491 . S
C1292 H1283 0.950 . S
C1292 C1291 1.398 . S
C1292 C1293 1.391 . S
C1293 H1281 0.950 . S
C1293 C1289 1.393 . S
C1293 C1292 1.391 . S
C1294 H1284 0.950 . S
C1294 C1295 1.386 . S
C1294 C1296 1.391 . S
C1295 C1294 1.386 . S
C1295 C1299 1.393 . S
C1296 H1285 0.950 . S
C1296 C1294 1.391 . S
C1296 C1297 1.400 . S
C1297 C1291 1.491 . S
C1297 C1296 1.400 . S
C1297 C1298 1.398 . S
C1298 H1286 0.950 . S
C1298 C1297 1.398 . S
C1298 C1299 1.391 . S
C1299 H1287 0.950 . S
C1299 C1295 1.393 . S
C1299 C1298 1.391 . S
H1300 C1308 0.950 . S
H1301 C1313 0.950 . S
H1302 C1310 0.950 . S
H1303 C1312 0.950 . S
H1304 C1314 0.950 . S
H1305 C1316 0.950 . S
H1306 C1318 0.950 . S
H1307 C1319 0.950 . S
C1308 H1300 0.950 . S
C1308 C1309 1.386 . S
C1308 C1310 1.391 . S
C1309 C1308 1.386 . S
C1309 C1313 1.393 . S
C1310 H1302 0.950 . S
C1310 C1308 1.391 . S
C1310 C1311 1.400 . S
C1311 C1310 1.400 . S
C1311 C1312 1.398 . S
C1311 C1317 1.491 . S
C1312 H1303 0.950 . S
C1312 C1311 1.398 . S
C1312 C1313 1.391 . S
C1313 H1301 0.950 . S
C1313 C1309 1.393 . S
C1313 C1312 1.391 . S
C1314 H1304 0.950 . S
C1314 C1315 1.386 . S
C1314 C1316 1.391 . S
C1315 C1314 1.386 . S
C1315 C1319 1.393 . S
C1316 H1305 0.950 . S
C1316 C1314 1.391 . S
C1316 C1317 1.400 . S
C1317 C1311 1.491 . S
C1317 C1316 1.400 . S
C1317 C1318 1.398 . S
C1318 H1306 0.950 . S
C1318 C1317 1.398 . S
C1318 C1319 1.391 . S
C1319 H1307 0.950 . S
C1319 C1315 1.393 . S
C1319 C1318 1.391 . S
H1320 C1328 0.950 . S
H1321 C1333 0.950 . S
H1322 C1330 0.950 . S
H1323 C1332 0.950 . S
H1324 C1334 0.950 . S
H1325 C1336 0.950 . S
H1326 C1338 0.950 . S
H1327 C1339 0.950 . S
C1328 H1320 0.950 . S
C1328 C1329 1.386 . S
C1328 C1330 1.391 . S
C1329 C1328 1.386 . S
C1329 C1333 1.393 . S
C1330 H1322 0.950 . S
C1330 C1328 1.391 . S
C1330 C1331 1.400 . S
C1331 C1330 1.400 . S
C1331 C1332 1.398 . S
C1331 C1337 1.491 . S
C1332 H1323 0.950 . S
C1332 C1331 1.398 . S
C1332 C1333 1.391 . S
C1333 H1321 0.950 . S
C1333 C1329 1.393 . S
C1333 C1332 1.391 . S
C1334 H1324 0.950 . S
C1334 C1335 1.386 . S
C1334 C1336 1.391 . S
C1335 C1334 1.386 . S
C1335 C1339 1.393 . S
C1336 H1325 0.950 . S
C1336 C1334 1.391 . S
C1336 C1337 1.400 . S
C1337 C1331 1.491 . S
C1337 C1336 1.400 . S
C1337 C1338 1.398 . S
C1338 H1326 0.950 . S
C1338 C1337 1.398 . S
C1338 C1339 1.391 . S
C1339 H1327 0.950 . S
C1339 C1335 1.393 . S
C1339 C1338 1.391 . S
H1340 C1348 0.950 . S
H1341 C1353 0.950 . S
H1342 C1350 0.950 . S
H1343 C1352 0.950 . S
H1344 C1354 0.950 . S
H1345 C1356 0.950 . S
H1346 C1358 0.950 . S
H1347 C1359 0.950 . S
C1348 H1340 0.950 . S
C1348 C1349 1.386 . S
C1348 C1350 1.391 . S
C1349 C1348 1.386 . S
C1349 C1353 1.393 . S
C1350 H1342 0.950 . S
C1350 C1348 1.391 . S
C1350 C1351 1.400 . S
C1351 C1350 1.400 . S
C1351 C1352 1.398 . S
C1351 C1357 1.491 . S
C1352 H1343 0.950 . S
C1352 C1351 1.398 . S
C1352 C1353 1.391 . S
C1353 H1341 0.950 . S
C1353 C1349 1.393 . S
C1353 C1352 1.391 . S
C1354 H1344 0.950 . S
C1354 C1355 1.386 . S
C1354 C1356 1.391 . S
C1355 C1354 1.386 . S
C1355 C1359 1.393 . S
C1356 H1345 0.950 . S
C1356 C1354 1.391 . S
C1356 C1357 1.400 . S
C1357 C1351 1.491 . S
C1357 C1356 1.400 . S
C1357 C1358 1.398 . S
C1358 H1346 0.950 . S
C1358 C1357 1.398 . S
C1358 C1359 1.391 . S
C1359 H1347 0.950 . S
C1359 C1355 1.393 . S
C1359 C1358 1.391 . S
H1360 C1368 0.950 . S
H1361 C1373 0.950 . S
H1362 C1370 0.950 . S
H1363 C1372 0.950 . S
H1364 C1374 0.950 . S
H1365 C1376 0.950 . S
H1366 C1378 0.950 . S
H1367 C1379 0.950 . S
C1368 H1360 0.950 . S
C1368 C1369 1.386 . S
C1368 C1370 1.391 . S
C1369 C1368 1.386 . S
C1369 C1373 1.393 . S
C1370 H1362 0.950 . S
C1370 C1368 1.391 . S
C1370 C1371 1.400 . S
C1371 C1370 1.400 . S
C1371 C1372 1.398 . S
C1371 C1377 1.491 . S
C1372 H1363 0.950 . S
C1372 C1371 1.398 . S
C1372 C1373 1.391 . S
C1373 H1361 0.950 . S
C1373 C1369 1.393 . S
C1373 C1372 1.391 . S
C1374 H1364 0.950 . S
C1374 C1375 1.386 . S
C1374 C1376 1.391 . S
C1375 C1374 1.386 . S
C1375 C1379 1.393 . S
C1376 H1365 0.950 . S
C1376 C1374 1.391 . S
C1376 C1377 1.400 . S
C1377 C1371 1.491 . S
C1377 C1376 1.400 . S
C1377 C1378 1.398 . S
C1378 H1366 0.950 . S
C1378 C1377 1.398 . S
C1378 C1379 1.391 . S
C1379 H1367 0.950 . S
C1379 C1375 1.393 . S
C1379 C1378 1.391 . S
H1380 C1388 0.950 . S
H1381 C1393 0.950 . S
H1382 C1390 0.950 . S
H1383 C1392 0.950 . S
H1384 C1394 0.950 . S
H1385 C1396 0.950 . S
H1386 C1398 0.950 . S
H1387 C1399 0.950 . S
C1388 H1380 0.950 . S
C1388 C1389 1.386 . S
C1388 C1390 1.391 . S
C1389 C1388 1.386 . S
C1389 C1393 1.393 . S
C1390 H1382 0.950 . S
C1390 C1388 1.391 . S
C1390 C1391 1.400 . S
C1391 C1390 1.400 . S
C1391 C1392 1.398 . S
C1391 C1397 1.491 . S
C1392 H1383 0.950 . S
C1392 C1391 1.398 . S
C1392 C1393 1.391 . S
C1393 H1381 0.950 . S
C1393 C1389 1.393 . S
C1393 C1392 1.391 . S
C1394 H1384 0.950 . S
C1394 C1395 1.386 . S
C1394 C1396 1.391 . S
C1395 C1394 1.386 . S
C1395 C1399 1.393 . S
C1396 H1385 0.950 . S
C1396 C1394 1.391 . S
C1396 C1397 1.400 . S
C1397 C1391 1.491 . S
C1397 C1396 1.400 . S
C1397 C1398 1.398 . S
C1398 H1386 0.950 . S
C1398 C1397 1.398 . S
C1398 C1399 1.391 . S
C1399 H1387 0.950 . S
C1399 C1395 1.393 . S
C1399 C1398 1.391 . S
H1400 C1408 0.950 . S
H1401 C1413 0.950 . S
H1402 C1410 0.950 . S
H1403 C1412 0.950 . S
H1404 C1414 0.950 . S
H1405 C1416 0.950 . S
H1406 C1418 0.950 . S
H1407 C1419 0.950 . S
C1408 H1400 0.950 . S
C1408 C1409 1.386 . S
C1408 C1410 1.391 . S
C1409 C1408 1.386 . S
C1409 C1413 1.393 . S
C1410 H1402 0.950 . S
C1410 C1408 1.391 . S
C1410 C1411 1.400 . S
C1411 C1410 1.400 . S
C1411 C1412 1.398 . S
C1411 C1417 1.491 . S
C1412 H1403 0.950 . S
C1412 C1411 1.398 . S
C1412 C1413 1.391 . S
C1413 H1401 0.950 . S
C1413 C1409 1.393 . S
C1413 C1412 1.391 . S
C1414 H1404 0.950 . S
C1414 C1415 1.386 . S
C1414 C1416 1.391 . S
C1415 C1414 1.386 . S
C1415 C1419 1.393 . S
C1416 H1405 0.950 . S
C1416 C1414 1.391 . S
C1416 C1417 1.400 . S
C1417 C1411 1.491 . S
C1417 C1416 1.400 . S
C1417 C1418 1.398 . S
C1418 H1406 0.950 . S
C1418 C1417 1.398 . S
C1418 C1419 1.391 . S
C1419 H1407 0.950 . S
C1419 C1415 1.393 . S
C1419 C1418 1.391 . S
H1420 C1428 0.950 . S
H1421 C1433 0.950 . S
H1422 C1430 0.950 . S
H1423 C1432 0.950 . S
H1424 C1434 0.950 . S
H1425 C1436 0.950 . S
H1426 C1438 0.950 . S
H1427 C1439 0.950 . S
C1428 H1420 0.950 . S
C1428 C1429 1.386 . S
C1428 C1430 1.391 . S
C1429 C1428 1.386 . S
C1429 C1433 1.393 . S
C1430 H1422 0.950 . S
C1430 C1428 1.391 . S
C1430 C1431 1.400 . S
C1431 C1430 1.400 . S
C1431 C1432 1.398 . S
C1431 C1437 1.491 . S
C1432 H1423 0.950 . S
C1432 C1431 1.398 . S
C1432 C1433 1.391 . S
C1433 H1421 0.950 . S
C1433 C1429 1.393 . S
C1433 C1432 1.391 . S
C1434 H1424 0.950 . S
C1434 C1435 1.386 . S
C1434 C1436 1.391 . S
C1435 C1434 1.386 . S
C1435 C1439 1.393 . S
C1436 H1425 0.950 . S
C1436 C1434 1.391 . S
C1436 C1437 1.400 . S
C1437 C1431 1.491 . S
C1437 C1436 1.400 . S
C1437 C1438 1.398 . S
C1438 H1426 0.950 . S
C1438 C1437 1.398 . S
C1438 C1439 1.391 . S
C1439 H1427 0.950 . S
C1439 C1435 1.393 . S
C1439 C1438 1.391 . S
H1440 C1448 0.950 . S
H1441 C1453 0.950 . S
H1442 C1450 0.950 . S
H1443 C1452 0.950 . S
H1444 C1454 0.950 . S
H1445 C1456 0.950 . S
H1446 C1458 0.950 . S
H1447 C1459 0.950 . S
C1448 H1440 0.950 . S
C1448 C1449 1.386 . S
C1448 C1450 1.391 1_565 S
C1449 C1448 1.386 . S
C1449 C1453 1.393 . S
C1450 H1442 0.950 . S
C1450 C1448 1.391 1_545 S
C1450 C1451 1.400 . S
C1451 C1450 1.400 . S
C1451 C1452 1.398 . S
C1451 C1457 1.491 . S
C1452 H1443 0.950 . S
C1452 C1451 1.398 . S
C1452 C1453 1.391 1_545 S
C1453 H1441 0.950 . S
C1453 C1449 1.393 . S
C1453 C1452 1.391 1_565 S
C1454 H1444 0.950 . S
C1454 C1455 1.386 . S
C1454 C1456 1.391 . S
C1455 C1454 1.386 . S
C1455 C1459 1.393 . S
C1456 H1445 0.950 . S
C1456 C1454 1.391 . S
C1456 C1457 1.400 . S
C1457 C1451 1.491 . S
C1457 C1456 1.400 . S
C1457 C1458 1.398 . S
C1458 H1446 0.950 . S
C1458 C1457 1.398 . S
C1458 C1459 1.391 . S
C1459 H1447 0.950 . S
C1459 C1455 1.393 . S
C1459 C1458 1.391 . S
H1460 C1468 0.950 . S
H1461 C1473 0.950 . S
H1462 C1470 0.950 . S
H1463 C1472 0.950 . S
H1464 C1474 0.950 . S
H1465 C1476 0.950 . S
H1466 C1478 0.950 . S
H1467 C1479 0.950 . S
C1468 H1460 0.950 . S
C1468 C1469 1.386 . S
C1468 C1470 1.391 . S
C1469 C1468 1.386 . S
C1469 C1473 1.393 . S
C1470 H1462 0.950 . S
C1470 C1468 1.391 . S
C1470 C1471 1.400 . S
C1471 C1470 1.400 . S
C1471 C1472 1.398 . S
C1471 C1477 1.491 . S
C1472 H1463 0.950 . S
C1472 C1471 1.398 . S
C1472 C1473 1.391 . S
C1473 H1461 0.950 . S
C1473 C1469 1.393 . S
C1473 C1472 1.391 . S
C1474 H1464 0.950 . S
C1474 C1475 1.386 . S
C1474 C1476 1.391 1_545 S
C1475 C1474 1.386 . S
C1475 C1479 1.393 . S
C1476 H1465 0.950 . S
C1476 C1474 1.391 1_565 S
C1476 C1477 1.400 . S
C1477 C1471 1.491 . S
C1477 C1476 1.400 . S
C1477 C1478 1.398 . S
C1478 H1466 0.950 . S
C1478 C1477 1.398 . S
C1478 C1479 1.391 1_565 S
C1479 H1467 0.950 . S
C1479 C1475 1.393 . S
C1479 C1478 1.391 1_545 S
H1480 C1488 0.950 . S
H1481 C1493 0.950 . S
H1482 C1490 0.950 . S
H1483 C1492 0.950 . S
H1484 C1494 0.950 . S
H1485 C1496 0.950 . S
H1486 C1498 0.950 . S
H1487 C1499 0.950 . S
C1488 H1480 0.950 . S
C1488 C1489 1.386 . S
C1488 C1490 1.391 1_545 S
C1489 C1488 1.386 . S
C1489 C1493 1.393 . S
C1490 H1482 0.950 . S
C1490 C1488 1.391 1_565 S
C1490 C1491 1.400 . S
C1491 C1490 1.400 . S
C1491 C1492 1.398 . S
C1491 C1497 1.491 . S
C1492 H1483 0.950 . S
C1492 C1491 1.398 . S
C1492 C1493 1.391 1_565 S
C1493 H1481 0.950 . S
C1493 C1489 1.393 . S
C1493 C1492 1.391 1_545 S
C1494 H1484 0.950 . S
C1494 C1495 1.386 . S
C1494 C1496 1.391 . S
C1495 C1494 1.386 . S
C1495 C1499 1.393 . S
C1496 H1485 0.950 . S
C1496 C1494 1.391 . S
C1496 C1497 1.400 . S
C1497 C1491 1.491 . S
C1497 C1496 1.400 . S
C1497 C1498 1.398 . S
C1498 H1486 0.950 . S
C1498 C1497 1.398 . S
C1498 C1499 1.391 . S
C1499 H1487 0.950 . S
C1499 C1495 1.393 . S
C1499 C1498 1.391 . S
H1500 C1508 0.950 . S
H1501 C1513 0.950 . S
H1502 C1510 0.950 . S
H1503 C1512 0.950 . S
H1504 C1514 0.950 . S
H1505 C1516 0.950 . S
H1506 C1518 0.950 . S
H1507 C1519 0.950 . S
C1508 H1500 0.950 . S
C1508 C1509 1.386 . S
C1508 C1510 1.391 1_565 S
C1509 C1508 1.386 . S
C1509 C1513 1.393 . S
C1510 H1502 0.950 . S
C1510 C1508 1.391 1_545 S
C1510 C1511 1.400 . S
C1511 C1510 1.400 . S
C1511 C1512 1.398 . S
C1511 C1517 1.491 . S
C1512 H1503 0.950 . S
C1512 C1511 1.398 . S
C1512 C1513 1.391 1_545 S
C1513 H1501 0.950 . S
C1513 C1509 1.393 . S
C1513 C1512 1.391 1_565 S
C1514 H1504 0.950 . S
C1514 C1515 1.386 . S
C1514 C1516 1.391 . S
C1515 C1514 1.386 . S
C1515 C1519 1.393 . S
C1516 H1505 0.950 . S
C1516 C1514 1.391 . S
C1516 C1517 1.400 . S
C1517 C1511 1.491 . S
C1517 C1516 1.400 . S
C1517 C1518 1.398 . S
C1518 H1506 0.950 . S
C1518 C1517 1.398 . S
C1518 C1519 1.391 . S
C1519 H1507 0.950 . S
C1519 C1515 1.393 . S
C1519 C1518 1.391 . S
H1520 C1528 0.950 . S
H1521 C1533 0.950 . S
H1522 C1530 0.950 . S
H1523 C1532 0.950 . S
H1524 C1534 0.950 . S
H1525 C1536 0.950 . S
H1526 C1538 0.950 . S
H1527 C1539 0.950 . S
C1528 H1520 0.950 . S
C1528 C1529 1.386 . S
C1528 C1530 1.391 . S
C1529 C1528 1.386 . S
C1529 C1533 1.393 . S
C1530 H1522 0.950 . S
C1530 C1528 1.391 . S
C1530 C1531 1.400 . S
C1531 C1530 1.400 . S
C1531 C1532 1.398 . S
C1531 C1537 1.491 . S
C1532 H1523 0.950 . S
C1532 C1531 1.398 . S
C1532 C1533 1.391 . S
C1533 H1521 0.950 . S
C1533 C1529 1.393 . S
C1533 C1532 1.391 . S
C1534 H1524 0.950 . S
C1534 C1535 1.386 . S
C1534 C1536 1.391 1_545 S
C1535 C1534 1.386 . S
C1535 C1539 1.393 . S
C1536 H1525 0.950 . S
C1536 C1534 1.391 1_565 S
C1536 C1537 1.400 . S
C1537 C1531 1.491 . S
C1537 C1536 1.400 . S
C1537 C1538 1.398 . S
C1538 H1526 0.950 . S
C1538 C1537 1.398 . S
C1538 C1539 1.391 1_565 S
C1539 H1527 0.950 . S
C1539 C1535 1.393 . S
C1539 C1538 1.391 1_545 S
H1540 C1548 0.950 . S
H1541 C1553 0.950 . S
H1542 C1550 0.950 . S
H1543 C1552 0.950 . S
H1544 C1554 0.950 . S
H1545 C1556 0.950 . S
H1546 C1558 0.950 . S
H1547 C1559 0.950 . S
C1548 H1540 0.950 . S
C1548 C1549 1.386 . S
C1548 C1550 1.391 . S
C1549 C1548 1.386 . S
C1549 C1553 1.393 . S
C1550 H1542 0.950 . S
C1550 C1548 1.391 . S
C1550 C1551 1.400 . S
C1551 C1550 1.400 . S
C1551 C1552 1.398 . S
C1551 C1557 1.491 . S
C1552 H1543 0.950 . S
C1552 C1551 1.398 . S
C1552 C1553 1.391 . S
C1553 H1541 0.950 . S
C1553 C1549 1.393 . S
C1553 C1552 1.391 . S
C1554 H1544 0.950 . S
C1554 C1555 1.386 . S
C1554 C1556 1.391 1_565 S
C1555 C1554 1.386 . S
C1555 C1559 1.393 . S
C1556 H1545 0.950 . S
C1556 C1554 1.391 1_545 S
C1556 C1557 1.400 . S
C1557 C1551 1.491 . S
C1557 C1556 1.400 . S
C1557 C1558 1.398 . S
C1558 H1546 0.950 . S
C1558 C1557 1.398 . S
C1558 C1559 1.391 1_545 S
C1559 H1547 0.950 . S
C1559 C1555 1.393 . S
C1559 C1558 1.391 1_565 S
H1560 C1568 0.950 . S
H1561 C1573 0.950 . S
H1562 C1570 0.950 . S
H1563 C1572 0.950 . S
H1564 C1574 0.950 . S
H1565 C1576 0.950 . S
H1566 C1578 0.950 . S
H1567 C1579 0.950 . S
C1568 H1560 0.950 . S
C1568 C1569 1.386 . S
C1568 C1570 1.391 1_565 S
C1569 C1568 1.386 . S
C1569 C1573 1.393 . S
C1570 H1562 0.950 . S
C1570 C1568 1.391 1_545 S
C1570 C1571 1.400 . S
C1571 C1570 1.400 . S
C1571 C1572 1.398 . S
C1571 C1577 1.491 . S
C1572 H1563 0.950 . S
C1572 C1571 1.398 . S
C1572 C1573 1.391 1_545 S
C1573 H1561 0.950 . S
C1573 C1569 1.393 . S
C1573 C1572 1.391 1_565 S
C1574 H1564 0.950 . S
C1574 C1575 1.386 . S
C1574 C1576 1.391 . S
C1575 C1574 1.386 . S
C1575 C1579 1.393 . S
C1576 H1565 0.950 . S
C1576 C1574 1.391 . S
C1576 C1577 1.400 . S
C1577 C1571 1.491 . S
C1577 C1576 1.400 . S
C1577 C1578 1.398 . S
C1578 H1566 0.950 . S
C1578 C1577 1.398 . S
C1578 C1579 1.391 . S
C1579 H1567 0.950 . S
C1579 C1575 1.393 . S
C1579 C1578 1.391 . S
H1580 C1588 0.950 . S
H1581 C1593 0.950 . S
H1582 C1590 0.950 . S
H1583 C1592 0.950 . S
H1584 C1594 0.950 . S
H1585 C1596 0.950 . S
H1586 C1598 0.950 . S
H1587 C1599 0.950 . S
C1588 H1580 0.950 . S
C1588 C1589 1.386 . S
C1588 C1590 1.391 . S
C1589 C1588 1.386 . S
C1589 C1593 1.393 . S
C1590 H1582 0.950 . S
C1590 C1588 1.391 . S
C1590 C1591 1.400 . S
C1591 C1590 1.400 . S
C1591 C1592 1.398 . S
C1591 C1597 1.491 . S
C1592 H1583 0.950 . S
C1592 C1591 1.398 . S
C1592 C1593 1.391 . S
C1593 H1581 0.950 . S
C1593 C1589 1.393 . S
C1593 C1592 1.391 . S
C1594 H1584 0.950 . S
C1594 C1595 1.386 . S
C1594 C1596 1.391 1_545 S
C1595 C1594 1.386 . S
C1595 C1599 1.393 . S
C1596 H1585 0.950 . S
C1596 C1594 1.391 1_565 S
C1596 C1597 1.400 . S
C1597 C1591 1.491 . S
C1597 C1596 1.400 . S
C1597 C1598 1.398 . S
C1598 H1586 0.950 . S
C1598 C1597 1.398 . S
C1598 C1599 1.391 1_565 S
C1599 H1587 0.950 . S
C1599 C1595 1.393 . S
C1599 C1598 1.391 1_545 S
C649 C20 1.547 . S
C655 C380 1.543 . S
C669 C60 1.549 . S
C675 C340 1.543 . S
C689 C460 1.545 . S
C695 C100 1.551 . S
C709 C140 1.548 . S
C715 C420 1.550 . S
C729 C551 1.550 . S
C735 C191 1.548 . S
C749 C511 1.543 . S
C755 C231 1.547 . S
C769 C631 1.551 . S
C775 C271 1.545 . S
C789 C311 1.543 . S
C795 C591 1.546 . S
C809 C82 1.680 . S
C815 C2 1.679 . S
C829 C122 1.679 . S
C835 C42 1.680 . S
C849 C263 1.678 . S
C855 C183 1.680 . S
C869 C223 1.676 . S
C875 C303 1.679 . S
C889 C402 1.677 . S
C895 C322 1.680 . S
C909 C442 1.679 . S
C915 C362 1.676 . S
C929 C503 1.680 . S
C935 C583 1.678 . S
C949 C543 1.680 . S
C955 C623 1.679 . S
C969 C202 1.543 . S
C975 C23 1.567 . S
C989 C162 1.542 . S
C995 C63 1.567 . S
C1009 C103 1.543 . S
C1015 C282 1.567 . S
C1029 C242 1.567 . S
C1035 C143 1.543 . S
C1049 C343 1.542 . S
C1055 C522 1.568 . S
C1069 C482 1.542 . S
C1075 C383 1.568 . S
C1089 C423 1.565 . S
C1095 C602 1.544 . S
C1109 C562 1.548 . S
C1115 C463 1.561 . S
C1129 C71 1.567 . S
C1135 C31 1.561 . S
C1149 C151 1.566 . S
C1155 C111 1.571 . S
C1169 C220 1.571 . S
C1175 C180 1.571 . S
C1189 C260 1.558 . S
C1195 C300 1.559 . S
C1209 C391 1.569 . S
C1215 C351 1.563 . S
C1229 C471 1.569 . S
C1235 C431 1.572 . S
C1249 C500 1.572 . S
C1255 C540 1.568 . S
C1269 C580 1.559 . S
C1275 C620 1.565 . S
C1289 C25 1.454 . S
C1295 C4 1.454 . S
C1309 C65 1.450 . S
C1315 C44 1.450 . S
C1329 C105 1.450 . S
C1335 C84 1.450 . S
C1349 C124 1.452 . S
C1355 C145 1.452 . S
C1369 C164 1.451 . S
C1375 C185 1.451 . S
C1389 C225 1.454 . S
C1395 C204 1.454 . S
C1409 C244 1.454 . S
C1415 C265 1.454 . S
C1429 C284 1.454 . S
C1435 C305 1.454 . S
C1449 C324 1.451 . S
C1455 C345 1.451 . S
C1469 C385 1.450 . S
C1475 C364 1.450 . S
C1489 C404 1.454 . S
C1495 C425 1.454 . S
C1509 C444 1.454 . S
C1515 C465 1.454 . S
C1529 C484 1.454 . S
C1535 C505 1.454 . S
C1549 C524 1.453 . S
C1555 C545 1.453 . S
C1569 C585 1.450 . S
C1575 C564 1.450 . S
C1589 C604 1.452 . S
C1595 C625 1.452 . S
