# Generated by pormake.
# Topology kag, (6)-cn, num edge types: 1
# Building blocks:
#     Node 0, Type 0, BuildingBlock: MIFKUJ_clean_sbu_0, # of connection points: 6
#     Node 1, Type 0, BuildingBlock: MIFKUJ_clean_sbu_0, # of connection points: 6
#     Node 2, Type 0, BuildingBlock: MIFKUJ_clean_sbu_0, # of connection points: 6
#     Edge 3, Type (0, 0), BuildingBlock: FUNLAD_clean_linker_1, # of connection points: 2
#     Edge 4, Type (0, 0), BuildingBlock: FUNLAD_clean_linker_1, # of connection points: 2
#     Edge 5, Type (0, 0), BuildingBlock: FUNLAD_clean_linker_1, # of connection points: 2
#     Edge 6, Type (0, 0), BuildingBlock: FUNLAD_clean_linker_1, # of connection points: 2
#     Edge 7, Type (0, 0), BuildingBlock: FUNLAD_clean_linker_1, # of connection points: 2
#     Edge 8, Type (0, 0), BuildingBlock: FUNLAD_clean_linker_1, # of connection points: 2
#     Edge 9, Type (0, 0), BuildingBlock: FUNLAD_clean_linker_1, # of connection points: 2
#     Edge 10, Type (0, 0), BuildingBlock: FUNLAD_clean_linker_1, # of connection points: 2
#     Edge 11, Type (0, 0), BuildingBlock: FUNLAD_clean_linker_1, # of connection points: 2
# Relax obj value: 0.013
# Max RMSD: 0.071
# Mean RMSD: 0.048
data_MOF--net-kag--node1-MIFKUJ_clean_sbu_0--edge1-FUNLAD_clean_linker_1
_symmetry_space_group_name_H-M    P1
_symmetry_Int_Tables_number       1
_symmetry_cell_setting            triclinic
loop_
_symmetry_equiv_pos_as_xyz
'x, y, z'
_cell_length_a     37.399477
_cell_length_b     35.825286
_cell_length_c     14.78764
_cell_angle_alpha  91.76623
_cell_angle_beta   97.117565
_cell_angle_gamma 117.01336
loop_
_atom_site_label
_atom_site_type_symbol
_atom_site_fract_x
_atom_site_fract_y
_atom_site_fract_z
_atom_type_partial_charge
Zn0 Zn 0.05232 0.53201 -0.00572 0.0
Zn1 Zn 0.92314 0.46596 0.96934 0.0
C2 C 0.09557 0.48299 0.03166 0.0
O3 O 0.07584 0.47264 0.10176 0.0
C4 C 0.89508 0.53045 0.95254 0.0
O5 O 0.92239 0.54805 0.89871 0.0
O6 O 0.08357 0.59348 0.97488 0.0
O7 O 5e-05 0.50387 0.90413 0.0
O8 O 0.93691 0.47057 0.83885 0.0
C9 C 0.12131 0.61178 0.0061 0.0
O10 O 0.13728 0.59088 0.05265 0.0
O11 O 0.0886 0.50579 0.97519 0.0
C12 C 0.86326 0.39837 0.04721 0.0
O13 O 0.8646 0.43032 0.09604 0.0
O14 O 0.88747 0.40529 0.98916 0.0
O15 O 0.97549 0.49268 0.05849 0.0
O16 O 0.03838 0.52549 0.12489 0.0
O17 O 0.89138 0.49722 0.9876 0.0
C18 C 0.97441 0.48988 0.83113 0.0
C19 C 0.00085 0.50566 0.13188 0.0
Zn20 Zn 0.44951 0.95309 0.96192 0.0
Zn21 Zn 0.53779 0.03587 0.98953 0.0
C22 C 0.47374 0.88959 0.93687 0.0
O23 O 0.45119 0.88442 0.85734 0.0
C24 C 0.51933 0.10381 0.018 0.0
O25 O 0.54109 0.10724 0.09767 0.0
O26 O 0.39074 0.90914 0.94899 0.0
O27 O 0.45797 0.9946 0.06586 0.0
O28 O 0.52222 0.01038 0.10586 0.0
C29 C 0.38144 0.89065 0.021 0.0
O30 O 0.40901 0.90263 0.09462 0.0
O31 O 0.48003 0.91963 -0.00489 0.0
C32 C 0.61138 0.10679 0.96466 0.0
O33 O 0.58632 0.11005 0.89858 0.0
O34 O 0.59809 0.07598 0.01308 0.0
O35 O 0.52799 0.99672 0.87919 0.0
O36 O 0.46231 0.97653 0.84277 0.0
O37 O 0.51099 0.07313 0.95949 0.0
C38 C 0.48816 0.00377 0.12736 0.0
C39 C 0.49675 0.98594 0.81946 0.0
Zn40 Zn 0.54151 0.48059 0.0536 0.0
Zn41 Zn 0.45744 0.5167 0.98251 0.0
C42 C 0.52964 0.39886 0.98752 0.0
O43 O 0.5575 0.42174 0.93862 0.0
C44 C 0.48631 0.60672 0.00393 0.0
O45 O 0.48056 0.59941 0.0888 0.0
O46 O 0.60077 0.49856 0.09337 0.0
O47 O 0.53773 0.50329 0.93195 0.0
O48 O 0.47178 0.48085 0.9025 0.0
C49 C 0.62865 0.53016 0.06496 0.0
O50 O 0.61917 0.55451 0.01327 0.0
O51 O 0.51602 0.41689 0.03887 0.0
C52 C 0.3791 0.50375 0.01408 0.0
O53 O 0.40035 0.5255 0.09213 0.0
O54 O 0.3968 0.49472 0.95555 0.0
O55 O 0.47218 0.51706 0.11813 0.0
O56 O 0.5208 0.49838 0.1575 0.0
O57 O 0.48066 0.57657 0.94678 0.0
C58 C 0.50646 0.49778 0.87741 0.0
C59 C 0.49562 0.51073 0.17826 0.0
H60 H 0.02036 0.51196 0.73793 0.0
C61 C 0.98792 0.49656 0.74032 0.0
H62 H 0.92901 0.46874 0.66334 0.0
H63 H 0.04039 0.5859 0.36413 0.0
H64 H 0.05541 0.64602 0.46981 0.0
H65 H 0.03279 0.63629 0.62095 0.0
H66 H 0.99534 0.56648 0.66764 0.0
C67 C 0.96149 0.48503 0.66163 0.0
C68 C 0.97505 0.49149 0.56978 0.0
C69 C -0.00348 0.53265 0.5429 0.0
C70 C 0.00894 0.53827 0.45485 0.0
C71 C 0.03035 0.57974 0.43012 0.0
C72 C 0.03906 0.61458 0.48999 0.0
C73 C 0.02637 0.6091 0.57512 0.0
C74 C 0.00515 0.56875 0.60139 0.0
H75 H 0.95443 0.48296 0.22391 0.0
C76 C 0.98693 0.49827 0.22219 0.0
H77 H 0.0456 0.52555 0.30014 0.0
H78 H 0.93354 0.40838 0.59805 0.0
H79 H 0.91802 0.34825 0.49186 0.0
H80 H 0.94045 0.35797 0.34052 0.0
H81 H 0.97827 0.42779 0.29419 0.0
C82 C 0.01308 0.50932 0.30122 0.0
C83 C -0.00085 0.5028 0.39269 0.0
C84 C 0.97749 0.46163 0.41935 0.0
C85 C 0.96511 0.45602 0.50746 0.0
C86 C 0.94354 0.41454 0.53203 0.0
C87 C 0.93454 0.37969 0.47185 0.0
C88 C 0.94713 0.38517 0.38661 0.0
C89 C 0.96858 0.42553 0.36057 0.0
H90 H 0.45177 0.99511 0.23788 0.0
C91 C 0.48175 1.0018 0.22291 0.0
H92 H 0.54105 0.01254 0.27803 0.0
H93 H 0.51188 0.06446 0.6695 0.0
H94 H 0.55666 0.1334 0.6275 0.0
H95 H 0.57686 0.14192 0.47375 0.0
H96 H 0.55226 0.08146 0.36113 0.0
C97 C 0.51066 0.00529 0.29061 0.0
C98 C 0.50148 0.99955 0.38482 0.0
C99 C 0.51684 0.0351 0.44984 0.0
C100 C 0.50572 0.03009 0.53855 0.0
C101 C 0.52026 0.06629 0.60172 0.0
C102 C 0.54575 0.10611 0.57828 0.0
C103 C 0.55707 0.11091 0.4917 0.0
C104 C 0.54275 0.07596 0.42778 0.0
H105 H 0.53179 0.9954 0.70618 0.0
C106 C 0.5019 0.98781 0.7231 0.0
H107 H 0.44172 0.97543 0.67153 0.0
H108 H 0.4691 0.9245 0.27683 0.0
H109 H 0.42407 0.85564 0.31861 0.0
H110 H 0.40401 0.84713 0.4725 0.0
H111 H 0.42896 0.90754 0.58541 0.0
C112 C 0.47202 0.98345 0.65702 0.0
C113 C 0.4801 0.98936 0.56203 0.0
C114 C 0.46448 0.95386 0.49679 0.0
C115 C 0.47557 0.95887 0.40804 0.0
C116 C 0.46081 0.92269 0.34468 0.0
C117 C 0.43515 0.88291 0.36798 0.0
C118 C 0.42391 0.87811 0.45464 0.0
C119 C 0.43844 0.91303 0.51875 0.0
H120 H 0.54065 0.51655 0.76183 0.0
C121 C 0.51051 0.50484 0.78097 0.0
H122 H 0.44796 0.48268 0.7329 0.0
H123 H 0.54452 0.58426 0.39587 0.0
H124 H 0.56427 0.64784 0.49527 0.0
H125 H 0.54661 0.64386 0.65127 0.0
H126 H 0.50941 0.57622 0.70908 0.0
C127 C 0.47855 0.49582 0.71609 0.0
C128 C 0.48399 0.49859 0.61838 0.0
C129 C 0.50467 0.53835 0.58487 0.0
C130 C 0.51382 0.54062 0.4941 0.0
C131 C 0.53589 0.5807 0.46346 0.0
C132 C 0.54756 0.61745 0.51996 0.0
C133 C 0.53771 0.61522 0.60787 0.0
C134 C 0.51653 0.57621 0.64035 0.0
H135 H 0.46927 0.52569 0.291 0.0
C136 C 0.49125 0.51546 0.27499 0.0
H137 H 0.532 0.49263 0.32709 0.0
H138 H 0.44179 0.41747 0.66021 0.0
H139 H 0.41979 0.35388 0.55912 0.0
H140 H 0.43448 0.35776 0.40059 0.0
H141 H 0.47141 0.42523 0.34235 0.0
C142 C 0.51132 0.50478 0.34232 0.0
C143 C 0.50138 0.50308 0.43666 0.0
C144 C 0.47946 0.46336 0.46922 0.0
C145 C 0.47065 0.46112 0.56019 0.0
C146 C 0.44912 0.42102 0.59145 0.0
C147 C 0.4363 0.38425 0.53415 0.0
C148 C 0.44459 0.38643 0.44493 0.0
C149 C 0.46589 0.4254 0.41244 0.0
H150 H 0.13938 0.46092 0.08619 0.0
C151 C 0.13074 0.475 0.02892 0.0
H152 H 0.14727 0.50471 0.90891 0.0
H153 H 0.33498 0.58093 0.04682 0.0
H154 H 0.32542 0.64337 0.04048 0.0
H155 H 0.25691 0.63762 0.00518 0.0
H156 H 0.19738 0.56947 0.97635 0.0
C157 C 0.15497 0.48932 0.96471 0.0
C158 C 0.19623 0.49219 0.97823 0.0
C159 C 0.2307 0.53248 -0.00567 0.0
C160 C 0.2702 0.53584 0.01597 0.0
C161 C 0.30416 0.57645 0.03157 0.0
C162 C 0.29916 0.61262 0.02774 0.0
C163 C 0.26056 0.60938 0.00778 0.0
C164 C 0.22663 0.56993 0.99128 0.0
H165 H 0.32017 0.47844 0.92247 0.0
C166 C 0.3359 0.49313 0.99078 0.0
H167 H 0.33247 0.51934 0.11717 0.0
H168 H 0.1372 0.41053 0.93762 0.0
H169 H 0.14647 0.3479 0.94849 0.0
H170 H 0.21454 0.35367 -0.00396 0.0
H171 H 0.27377 0.42198 0.03145 0.0
C172 C 0.31651 0.50332 0.04991 0.0
C173 C 0.27516 0.49898 0.02191 0.0
C174 C 0.24079 0.45869 0.00397 0.0
C175 C 0.20132 0.45533 0.98032 0.0
C176 C 0.16765 0.41481 0.95914 0.0
C177 C 0.17258 0.37864 0.96455 0.0
C178 C 0.21093 0.38189 0.99103 0.0
C179 C 0.24473 0.42134 0.01071 0.0
H180 H 0.67592 0.13271 0.02725 0.0
C181 C 0.6541 0.13951 0.98492 0.0
H182 H 0.64395 0.1844 0.91225 0.0
H183 H 0.82219 0.3019 0.17751 0.0
H184 H 0.78774 0.27549 0.30793 0.0
H185 H 0.7159 0.2215 0.28543 0.0
H186 H 0.67866 0.19254 0.13306 0.0
C187 C 0.66586 0.17776 0.95477 0.0
C188 C 0.7089 0.21129 0.97082 0.0
C189 C 0.72934 0.22954 0.06063 0.0
C190 C 0.76976 0.26298 0.07353 0.0
C191 C 0.79068 0.27829 0.16392 0.0
C192 C 0.77138 0.26315 0.23932 0.0
C193 C 0.73102 0.2326 0.22665 0.0
C194 C 0.71007 0.21594 0.13858 0.0
H195 H 0.80421 0.35431 0.08249 0.0
C196 C 0.82938 0.35615 0.04981 0.0
H197 H 0.85194 0.32282 0.97487 0.0
H198 H 0.68007 0.18087 0.79047 0.0
H199 H 0.71348 0.20946 0.66036 0.0
H200 H 0.78112 0.27138 0.68198 0.0
H201 H 0.81595 0.30468 0.83353 0.0
C202 C 0.82704 0.321 0.00847 0.0
C203 C 0.78837 0.28065 -0.00335 0.0
C204 C 0.76828 0.26177 0.90703 0.0
C205 C 0.72877 0.22676 0.89431 0.0
C206 C 0.70969 0.2081 0.80413 0.0
C207 C 0.72858 0.22409 0.7287 0.0
C208 C 0.76668 0.2589 0.74089 0.0
C209 C 0.78639 0.27768 0.82867 0.0
H210 H 0.49842 0.85846 0.03471 0.0
C211 C 0.48648 0.85744 0.96332 0.0
H212 H 0.46768 0.82394 0.83229 0.0
H213 H 0.56767 0.73372 0.06828 0.0
H214 H 0.62745 0.802 0.08518 0.0
H215 H 0.62286 0.86411 0.02933 0.0
H216 H 0.55852 0.85854 0.9574 0.0
C217 C 0.48045 0.82536 0.90321 0.0
C218 C 0.48464 0.78784 0.93272 0.0
C219 C 0.52278 0.79152 0.9727 0.0
C220 C 0.52567 0.75545 0.00284 0.0
C221 C 0.56389 0.76009 0.04396 0.0
C222 C 0.59843 0.79904 0.05382 0.0
C223 C 0.59583 0.83403 0.02251 0.0
C224 C 0.55859 0.83046 0.98199 0.0
H225 H 0.49306 0.65098 0.89853 0.0
C226 C 0.49265 0.64754 0.97123 0.0
H227 H 0.49289 0.67548 0.0996 0.0
H228 H 0.40672 0.7691 0.85752 0.0
H229 H 0.34806 0.70025 0.83523 0.0
H230 H 0.35368 0.63777 0.88367 0.0
H231 H 0.41785 0.64372 0.95667 0.0
C232 C 0.49327 0.67836 0.02676 0.0
C233 C 0.49081 0.71559 0.99046 0.0
C234 C 0.45292 0.71162 0.94813 0.0
C235 C 0.4498 0.74772 0.91935 0.0
C236 C 0.41125 0.74281 0.87926 0.0
C237 C 0.37715 0.70346 0.86642 0.0
C238 C 0.38029 0.66826 0.89389 0.0
C239 C 0.41749 0.67214 0.93519 0.0
H240 H 0.86587 0.5714 0.92462 0.0
C241 C 0.86586 0.54651 0.96486 0.0
H242 H 0.83667 0.50302 0.05776 0.0
H243 H 0.75312 0.62803 0.11005 0.0
H244 H 0.82 0.67989 0.18537 0.0
H245 H 0.87954 0.66718 0.18502 0.0
H246 H 0.87267 0.60265 0.1092 0.0
C247 C 0.83758 0.52876 0.0194 0.0
C248 C 0.80262 0.5379 0.01726 0.0
C249 C 0.80736 0.57594 0.06124 0.0
C250 C 0.77299 0.58311 0.06215 0.0
C251 C 0.77829 0.62107 0.10746 0.0
C252 C 0.81646 0.65104 0.15093 0.0
C253 C 0.85 0.6439 0.15067 0.0
C254 C 0.84568 0.6068 0.10663 0.0
H255 H 0.67554 0.51199 0.11733 0.0
C256 C 0.66976 0.53384 0.07602 0.0
H257 H 0.69265 0.57994 0.98329 0.0
H258 H 0.78339 0.46185 0.92568 0.0
H259 H 0.71678 0.41039 0.84968 0.0
H260 H 0.65755 0.42379 0.84715 0.0
H261 H 0.66457 0.48853 0.92105 0.0
C262 C 0.69769 0.5581 0.02594 0.0
C263 C 0.7341 0.5521 0.01982 0.0
C264 C 0.72961 0.5146 0.97334 0.0
C265 C 0.76383 0.50724 0.97328 0.0
C266 C 0.7584 0.46913 0.92801 0.0
C267 C 0.72034 0.43932 0.88377 0.0
C268 C 0.687 0.44684 0.88243 0.0
C269 C 0.69143 0.48406 0.92595 0.0
H270 H 0.13307 0.67212 0.94937 0.0
C271 C 0.14722 0.65525 0.98619 0.0
H272 H 0.20229 0.65627 0.04339 0.0
H273 H 0.31744 0.79225 0.81703 0.0
H274 H 0.30632 0.72918 0.72707 0.0
H275 H 0.25334 0.65938 0.75372 0.0
H276 H 0.21079 0.65235 0.87002 0.0
C277 C 0.18779 0.67354 0.00983 0.0
C278 C 0.21485 0.71602 0.98452 0.0
C279 C 0.23897 0.71971 0.91526 0.0
C280 C 0.26936 0.75998 0.89956 0.0
C281 C 0.29367 0.76256 0.83144 0.0
C282 C 0.28761 0.72656 0.77924 0.0
C283 C 0.2578 0.68726 0.79426 0.0
C284 C 0.23369 0.68367 0.8614 0.0
H285 H 0.33729 0.83877 0.08562 0.0
C286 C 0.34176 0.85395 0.02248 0.0
H287 H 0.31675 0.85099 0.88474 0.0
H288 H 0.17227 0.72029 0.11916 0.0
H289 H 0.17993 0.78381 0.20117 0.0
H290 H 0.23012 0.85386 0.16794 0.0
H291 H 0.27344 0.86072 0.0533 0.0
C292 C 0.31233 0.83721 0.94943 0.0
C293 C 0.27561 0.79645 0.95347 0.0
C294 C 0.24916 0.79303 0.01736 0.0
C295 C 0.2192 0.75271 0.03411 0.0
C296 C 0.19484 0.75013 0.10207 0.0
C297 C 0.19898 0.78636 0.14981 0.0
C298 C 0.22731 0.8258 0.13128 0.0
C299 C 0.25217 0.82929 0.06586 0.0
H300 H 0.50111 0.33821 0.04705 0.0
C301 C 0.51885 0.35399 -0.00565 0.0
H302 H 0.55176 0.34969 0.89218 0.0
H303 H 0.60006 0.21681 0.05583 0.0
H304 H 0.66533 0.27799 0.05985 0.0
H305 H 0.66967 0.34648 0.02283 0.0
H306 H 0.60886 0.354 0.98038 0.0
C307 C 0.53322 0.3336 0.94342 0.0
C308 C 0.52996 0.29171 0.96449 0.0
C309 C 0.566 0.28809 0.99113 0.0
C310 C 0.56353 0.24891 0.0151 0.0
C311 C 0.60005 0.246 0.0391 0.0
C312 C 0.63781 0.28087 0.04138 0.0
C313 C 0.64024 0.31937 0.02033 0.0
C314 C 0.60494 0.32317 -0.00431 0.0
H315 H 0.49804 0.13752 0.91972 0.0
C316 C 0.51116 0.13886 0.99032 0.0
H317 H 0.53812 0.17592 0.11682 0.0
H318 H 0.45527 0.28536 0.9006 0.0
H319 H 0.38992 0.22425 0.89841 0.0
H320 H 0.38558 0.15811 0.95272 0.0
H321 H 0.44657 0.15239 0.00766 0.0
C322 C 0.52351 0.17391 0.04728 0.0
C323 C 0.5251 0.21351 0.01442 0.0
C324 C 0.48908 0.21682 0.98603 0.0
C325 C 0.49154 0.25566 0.95893 0.0
C326 C 0.45515 0.2573 0.92587 0.0
C327 C 0.41743 0.22234 0.92357 0.0
C328 C 0.41499 0.18505 0.95383 0.0
C329 C 0.45028 0.18215 0.98485 0.0
loop_
_geom_bond_atom_site_label_1
_geom_bond_atom_site_label_2
_geom_bond_distance
_geom_bond_site_symmetry_2
_ccdc_geom_bond_type
Zn0 O6 1.969 . S
Zn0 O7 1.965 1_554 S
Zn0 O11 2.024 1_554 S
Zn0 O16 1.969 . S
Zn1 O8 1.969 . S
Zn1 O14 1.969 . S
Zn1 O15 1.965 1_556 S
Zn1 O17 2.024 1_556 S
C2 O3 1.229 . S
C2 O11 1.058 1_554 S
O3 C2 1.229 . S
C4 O5 1.229 . S
C4 O17 1.058 1_556 S
O5 C4 1.229 . S
O6 Zn0 1.969 . S
O6 C9 1.267 1_554 S
O7 Zn0 1.965 1_556 S
O7 C18 1.260 1_455 S
O8 Zn1 1.969 . S
O8 C18 1.258 . S
C9 O6 1.267 1_556 S
C9 O10 1.228 . S
O10 C9 1.228 . S
O11 Zn0 2.024 1_556 S
O11 C2 1.058 1_556 S
C12 O13 1.228 . S
C12 O14 1.267 1_554 S
O13 C12 1.228 . S
O14 Zn1 1.969 . S
O14 C12 1.267 1_556 S
O15 Zn1 1.965 1_554 S
O15 C19 1.260 1_655 S
O16 Zn0 1.969 . S
O16 C19 1.258 . S
O17 Zn1 2.024 1_554 S
O17 C4 1.058 1_554 S
C18 O7 1.260 1_655 S
C18 O8 1.258 . S
C19 O15 1.260 1_455 S
C19 O16 1.258 . S
Zn20 O26 1.969 . S
Zn20 O27 1.965 1_556 S
Zn20 O31 2.024 1_556 S
Zn20 O36 1.969 . S
Zn21 O28 1.969 . S
Zn21 O34 1.969 . S
Zn21 O35 1.965 1_554 S
Zn21 O37 2.024 1_554 S
C22 O23 1.229 . S
C22 O31 1.058 1_556 S
O23 C22 1.229 . S
C24 O25 1.229 . S
C24 O37 1.058 1_554 S
O25 C24 1.229 . S
O26 Zn20 1.969 . S
O26 C29 1.267 1_556 S
O27 Zn20 1.965 1_554 S
O27 C38 1.260 1_565 S
O28 Zn21 1.969 . S
O28 C38 1.258 . S
C29 O26 1.267 1_554 S
C29 O30 1.228 . S
O30 C29 1.228 . S
O31 Zn20 2.024 1_554 S
O31 C22 1.058 1_554 S
C32 O33 1.228 . S
C32 O34 1.267 1_556 S
O33 C32 1.228 . S
O34 Zn21 1.969 . S
O34 C32 1.267 1_554 S
O35 Zn21 1.965 1_556 S
O35 C39 1.260 1_545 S
O36 Zn20 1.969 . S
O36 C39 1.258 . S
O37 Zn21 2.024 1_556 S
O37 C24 1.058 1_556 S
C38 O27 1.260 1_545 S
C38 O28 1.258 . S
C39 O35 1.260 1_565 S
C39 O36 1.258 . S
Zn40 O46 1.969 . S
Zn40 O47 1.965 1_554 S
Zn40 O51 2.024 1_554 S
Zn40 O56 1.969 . S
Zn41 O48 1.969 . S
Zn41 O54 1.969 . S
Zn41 O55 1.965 1_556 S
Zn41 O57 2.024 1_556 S
C42 O43 1.229 . S
C42 O51 1.058 1_554 S
O43 C42 1.229 . S
C44 O45 1.229 . S
C44 O57 1.058 1_556 S
O45 C44 1.229 . S
O46 Zn40 1.969 . S
O46 C49 1.267 1_554 S
O47 Zn40 1.965 1_556 S
O47 C58 1.260 . S
O48 Zn41 1.969 . S
O48 C58 1.258 . S
C49 O46 1.267 1_556 S
C49 O50 1.228 . S
O50 C49 1.228 . S
O51 Zn40 2.024 1_556 S
O51 C42 1.058 1_556 S
C52 O53 1.228 . S
C52 O54 1.267 1_554 S
O53 C52 1.228 . S
O54 Zn41 1.969 . S
O54 C52 1.267 1_556 S
O55 Zn41 1.965 1_554 S
O55 C59 1.260 . S
O56 Zn40 1.969 . S
O56 C59 1.258 . S
O57 Zn41 2.024 1_554 S
O57 C44 1.058 1_554 S
C58 O47 1.260 . S
C58 O48 1.258 . S
C59 O55 1.260 . S
C59 O56 1.258 . S
H60 C61 0.951 . S
C61 H60 0.951 . S
C61 C67 1.265 1_455 S
H62 C67 0.950 . S
H63 C71 0.949 . S
H64 C72 0.950 . S
H65 C73 0.944 1_655 S
H66 C74 0.951 . S
C67 C61 1.265 1_655 S
C67 H62 0.950 . S
C67 C68 1.478 . S
C68 C67 1.478 . S
C68 C69 1.397 . S
C68 C85 1.394 . S
C69 C68 1.397 . S
C69 C70 1.438 1_655 S
C69 C74 1.429 . S
C70 C69 1.438 1_455 S
C70 C71 1.428 . S
C70 C83 1.394 . S
C71 H63 0.949 . S
C71 C70 1.428 . S
C71 C72 1.345 . S
C72 H64 0.950 . S
C72 C71 1.345 . S
C72 C73 1.424 . S
C73 H65 0.944 1_455 S
C73 C72 1.424 . S
C73 C74 1.347 1_455 S
C74 H66 0.951 . S
C74 C69 1.429 . S
C74 C73 1.347 1_655 S
H75 C76 0.951 . S
C76 H75 0.951 . S
C76 C82 1.265 1_655 S
H77 C82 0.950 . S
H78 C86 0.949 . S
H79 C87 0.950 . S
H80 C88 0.951 . S
H81 C89 0.951 . S
C82 C76 1.265 1_455 S
C82 H77 0.950 . S
C82 C83 1.478 . S
C83 C70 1.394 . S
C83 C82 1.478 . S
C83 C84 1.397 . S
C84 C83 1.397 . S
C84 C85 1.438 1_455 S
C84 C89 1.429 . S
C85 C68 1.394 . S
C85 C84 1.438 1_655 S
C85 C86 1.428 . S
C86 H78 0.949 . S
C86 C85 1.428 . S
C86 C87 1.345 . S
C87 H79 0.950 . S
C87 C86 1.345 . S
C87 C88 1.424 1_655 S
C88 H80 0.951 . S
C88 C87 1.424 1_455 S
C88 C89 1.347 . S
C89 H81 0.951 . S
C89 C84 1.429 . S
C89 C88 1.347 . S
H90 C91 0.956 1_565 S
C91 H90 0.956 1_545 S
C91 C97 1.261 . S
H92 C97 0.950 . S
H93 C101 0.949 . S
H94 C102 0.950 . S
H95 C103 0.951 . S
H96 C104 0.951 . S
C97 C91 1.261 . S
C97 H92 0.950 . S
C97 C98 1.478 . S
C98 C97 1.478 . S
C98 C99 1.397 . S
C98 C115 1.394 1_545 S
C99 C98 1.397 . S
C99 C100 1.438 . S
C99 C104 1.429 . S
C100 C99 1.438 . S
C100 C101 1.428 . S
C100 C113 1.378 1_545 S
C101 H93 0.949 . S
C101 C100 1.428 . S
C101 C102 1.345 . S
C102 H94 0.950 . S
C102 C101 1.345 . S
C102 C103 1.424 . S
C103 H95 0.951 . S
C103 C102 1.424 . S
C103 C104 1.347 . S
C104 H96 0.951 . S
C104 C99 1.429 . S
C104 C103 1.347 . S
H105 C106 0.951 . S
C106 H105 0.951 . S
C106 C112 1.265 1_545 S
H107 C112 0.950 . S
H108 C116 0.949 . S
H109 C117 0.950 . S
H110 C118 0.951 . S
H111 C119 0.951 . S
C112 C106 1.265 1_565 S
C112 H107 0.950 . S
C112 C113 1.478 . S
C113 C100 1.378 1_565 S
C113 C112 1.478 . S
C113 C114 1.413 . S
C114 C113 1.413 . S
C114 C115 1.438 . S
C114 C119 1.429 . S
C115 C98 1.394 1_565 S
C115 C114 1.438 . S
C115 C116 1.428 . S
C116 H108 0.949 . S
C116 C115 1.428 . S
C116 C117 1.345 . S
C117 H109 0.950 . S
C117 C116 1.345 . S
C117 C118 1.424 . S
C118 H110 0.951 . S
C118 C117 1.424 . S
C118 C119 1.347 . S
C119 H111 0.951 . S
C119 C114 1.429 . S
C119 C118 1.347 . S
H120 C121 0.951 . S
C121 H120 0.951 . S
C121 C127 1.265 . S
H122 C127 0.950 . S
H123 C131 0.949 . S
H124 C132 0.950 . S
H125 C133 0.951 . S
H126 C134 0.951 . S
C127 C121 1.265 . S
C127 H122 0.950 . S
C127 C128 1.478 . S
C128 C127 1.478 . S
C128 C129 1.397 . S
C128 C145 1.394 . S
C129 C128 1.397 . S
C129 C130 1.438 . S
C129 C134 1.429 . S
C130 C129 1.438 . S
C130 C131 1.428 . S
C130 C143 1.394 . S
C131 H123 0.949 . S
C131 C130 1.428 . S
C131 C132 1.345 . S
C132 H124 0.950 . S
C132 C131 1.345 . S
C132 C133 1.424 . S
C133 H125 0.951 . S
C133 C132 1.424 . S
C133 C134 1.347 . S
C134 H126 0.951 . S
C134 C129 1.429 . S
C134 C133 1.347 . S
H135 C136 0.951 . S
C136 H135 0.951 . S
C136 C142 1.265 . S
H137 C142 0.950 . S
H138 C146 0.949 . S
H139 C147 0.950 . S
H140 C148 0.951 . S
H141 C149 0.951 . S
C142 C136 1.265 . S
C142 H137 0.950 . S
C142 C143 1.478 . S
C143 C130 1.394 . S
C143 C142 1.478 . S
C143 C144 1.397 . S
C144 C143 1.397 . S
C144 C145 1.438 . S
C144 C149 1.429 . S
C145 C128 1.394 . S
C145 C144 1.438 . S
C145 C146 1.428 . S
C146 H138 0.949 . S
C146 C145 1.428 . S
C146 C147 1.345 . S
C147 H139 0.950 . S
C147 C146 1.345 . S
C147 C148 1.424 . S
C148 H140 0.951 . S
C148 C147 1.424 . S
C148 C149 1.347 . S
C149 H141 0.951 . S
C149 C144 1.429 . S
C149 C148 1.347 . S
H150 C151 0.951 . S
C151 H150 0.951 . S
C151 C157 1.265 1_554 S
H152 C157 0.950 . S
H153 C161 0.949 1_554 S
H154 C162 0.950 . S
H155 C163 0.951 . S
H156 C164 0.951 . S
C157 C151 1.265 1_556 S
C157 H152 0.950 . S
C157 C158 1.478 . S
C158 C157 1.478 . S
C158 C159 1.397 . S
C158 C175 1.394 1_556 S
C159 C158 1.397 . S
C159 C160 1.438 1_556 S
C159 C164 1.429 . S
C160 C159 1.438 1_554 S
C160 C161 1.428 1_554 S
C160 C173 1.394 . S
C161 H153 0.949 1_556 S
C161 C160 1.428 1_556 S
C161 C162 1.345 . S
C162 H154 0.950 . S
C162 C161 1.345 . S
C162 C163 1.424 . S
C163 H155 0.951 . S
C163 C162 1.424 . S
C163 C164 1.347 . S
C164 H156 0.951 . S
C164 C159 1.429 . S
C164 C163 1.347 . S
H165 C166 0.951 . S
C166 H165 0.951 . S
C166 C172 1.265 1_556 S
H167 C172 0.950 . S
H168 C176 0.949 . S
H169 C177 0.950 . S
H170 C178 0.951 . S
H171 C179 0.951 . S
C172 C166 1.265 1_554 S
C172 H167 0.950 . S
C172 C173 1.478 . S
C173 C160 1.394 . S
C173 C172 1.478 . S
C173 C174 1.397 . S
C174 C173 1.397 . S
C174 C175 1.438 . S
C174 C179 1.429 . S
C175 C158 1.394 1_554 S
C175 C174 1.438 . S
C175 C176 1.428 . S
C176 H168 0.949 . S
C176 C175 1.428 . S
C176 C177 1.345 . S
C177 H169 0.950 . S
C177 C176 1.345 . S
C177 C178 1.424 . S
C178 H170 0.951 . S
C178 C177 1.424 . S
C178 C179 1.347 . S
C179 H171 0.951 . S
C179 C174 1.429 . S
C179 C178 1.347 . S
H180 C181 0.951 . S
C181 H180 0.951 . S
C181 C187 1.265 1_556 S
H182 C187 0.950 . S
H183 C191 0.949 . S
H184 C192 0.950 . S
H185 C193 0.951 . S
H186 C194 0.951 . S
C187 C181 1.265 1_554 S
C187 H182 0.950 . S
C187 C188 1.478 . S
C188 C187 1.478 . S
C188 C189 1.397 . S
C188 C205 1.394 1_554 S
C189 C188 1.397 . S
C189 C190 1.438 . S
C189 C194 1.429 . S
C190 C189 1.438 . S
C190 C191 1.428 . S
C190 C203 1.391 1_554 S
C191 H183 0.949 . S
C191 C190 1.428 . S
C191 C192 1.345 . S
C192 H184 0.950 . S
C192 C191 1.345 . S
C192 C193 1.424 . S
C193 H185 0.951 . S
C193 C192 1.424 . S
C193 C194 1.347 . S
C194 H186 0.951 . S
C194 C189 1.429 . S
C194 C193 1.347 . S
H195 C196 0.951 . S
C196 H195 0.951 . S
C196 C202 1.265 1_554 S
H197 C202 0.950 . S
H198 C206 0.949 . S
H199 C207 0.950 . S
H200 C208 0.951 . S
H201 C209 0.951 . S
C202 C196 1.265 1_556 S
C202 H197 0.950 . S
C202 C203 1.479 . S
C203 C190 1.391 1_556 S
C203 C202 1.479 . S
C203 C204 1.399 . S
C204 C203 1.399 . S
C204 C205 1.438 . S
C204 C209 1.429 . S
C205 C188 1.394 1_556 S
C205 C204 1.438 . S
C205 C206 1.428 . S
C206 H198 0.949 . S
C206 C205 1.428 . S
C206 C207 1.345 . S
C207 H199 0.950 . S
C207 C206 1.345 . S
C207 C208 1.424 . S
C208 H200 0.951 . S
C208 C207 1.424 . S
C208 C209 1.347 . S
C209 H201 0.951 . S
C209 C204 1.429 . S
C209 C208 1.347 . S
H210 C211 0.951 . S
C211 H210 0.951 . S
C211 C217 1.265 1_556 S
H212 C217 0.950 . S
H213 C221 0.949 . S
H214 C222 0.950 . S
H215 C223 0.951 . S
H216 C224 0.951 . S
C217 C211 1.265 1_554 S
C217 H212 0.950 . S
C217 C218 1.478 1_554 S
C218 C217 1.478 1_556 S
C218 C219 1.397 1_556 S
C218 C235 1.393 . S
C219 C218 1.397 1_554 S
C219 C220 1.438 . S
C219 C224 1.429 . S
C220 C219 1.438 . S
C220 C221 1.428 . S
C220 C233 1.394 1_554 S
C221 H213 0.949 . S
C221 C220 1.428 . S
C221 C222 1.345 . S
C222 H214 0.950 . S
C222 C221 1.345 . S
C222 C223 1.424 . S
C223 H215 0.951 . S
C223 C222 1.424 . S
C223 C224 1.347 . S
C224 H216 0.951 . S
C224 C219 1.429 . S
C224 C223 1.347 . S
H225 C226 0.951 . S
C226 H225 0.951 . S
C226 C232 1.265 1_554 S
H227 C232 0.950 . S
H228 C236 0.949 . S
H229 C237 0.950 . S
H230 C238 0.951 . S
H231 C239 0.951 . S
C232 C226 1.265 1_556 S
C232 H227 0.950 . S
C232 C233 1.478 . S
C233 C220 1.394 1_556 S
C233 C232 1.478 . S
C233 C234 1.397 . S
C234 C233 1.397 . S
C234 C235 1.438 . S
C234 C239 1.429 . S
C235 C218 1.393 . S
C235 C234 1.438 . S
C235 C236 1.428 . S
C236 H228 0.949 . S
C236 C235 1.428 . S
C236 C237 1.345 . S
C237 H229 0.950 . S
C237 C236 1.345 . S
C237 C238 1.424 . S
C238 H230 0.951 . S
C238 C237 1.424 . S
C238 C239 1.347 . S
C239 H231 0.951 . S
C239 C234 1.429 . S
C239 C238 1.347 . S
H240 C241 0.951 . S
C241 H240 0.951 . S
C241 C247 1.265 1_556 S
H242 C247 0.950 . S
H243 C251 0.949 . S
H244 C252 0.950 . S
H245 C253 0.951 . S
H246 C254 0.951 . S
C247 C241 1.265 1_554 S
C247 H242 0.950 . S
C247 C248 1.478 . S
C248 C247 1.478 . S
C248 C249 1.397 . S
C248 C265 1.394 1_554 S
C249 C248 1.397 . S
C249 C250 1.438 . S
C249 C254 1.429 . S
C250 C249 1.438 . S
C250 C251 1.428 . S
C250 C263 1.394 1_554 S
C251 H243 0.949 . S
C251 C250 1.428 . S
C251 C252 1.345 . S
C252 H244 0.950 . S
C252 C251 1.345 . S
C252 C253 1.424 . S
C253 H245 0.951 . S
C253 C252 1.424 . S
C253 C254 1.347 . S
C254 H246 0.951 . S
C254 C249 1.429 . S
C254 C253 1.347 . S
H255 C256 0.951 . S
C256 H255 0.951 . S
C256 C262 1.265 1_554 S
H257 C262 0.950 . S
H258 C266 0.949 . S
H259 C267 0.950 . S
H260 C268 0.951 . S
H261 C269 0.951 . S
C262 C256 1.265 1_556 S
C262 H257 0.950 . S
C262 C263 1.478 . S
C263 C250 1.394 1_556 S
C263 C262 1.478 . S
C263 C264 1.397 . S
C264 C263 1.397 . S
C264 C265 1.438 . S
C264 C269 1.429 . S
C265 C248 1.394 1_556 S
C265 C264 1.438 . S
C265 C266 1.428 . S
C266 H258 0.949 . S
C266 C265 1.428 . S
C266 C267 1.345 . S
C267 H259 0.950 . S
C267 C266 1.345 . S
C267 C268 1.424 . S
C268 H260 0.951 . S
C268 C267 1.424 . S
C268 C269 1.347 . S
C269 H261 0.951 . S
C269 C264 1.429 . S
C269 C268 1.347 . S
H270 C271 0.951 1_554 S
C271 H270 0.951 1_556 S
C271 C277 1.265 . S
H272 C277 0.950 . S
H273 C281 0.949 . S
H274 C282 0.950 . S
H275 C283 0.951 . S
H276 C284 0.951 . S
C277 C271 1.265 . S
C277 H272 0.950 . S
C277 C278 1.478 . S
C278 C277 1.478 . S
C278 C279 1.397 . S
C278 C295 1.394 1_556 S
C279 C278 1.397 . S
C279 C280 1.438 . S
C279 C284 1.429 . S
C280 C279 1.438 . S
C280 C281 1.428 . S
C280 C293 1.394 1_556 S
C281 H273 0.949 . S
C281 C280 1.428 . S
C281 C282 1.345 . S
C282 H274 0.950 . S
C282 C281 1.345 . S
C282 C283 1.424 . S
C283 H275 0.951 . S
C283 C282 1.424 . S
C283 C284 1.347 . S
C284 H276 0.951 . S
C284 C279 1.429 . S
C284 C283 1.347 . S
H285 C286 0.951 1_556 S
C286 H285 0.951 1_554 S
C286 C292 1.265 . S
H287 C292 0.950 . S
H288 C296 0.949 . S
H289 C297 0.950 . S
H290 C298 0.951 . S
H291 C299 0.951 . S
C292 C286 1.265 . S
C292 H287 0.950 . S
C292 C293 1.478 . S
C293 C280 1.394 1_554 S
C293 C292 1.478 . S
C293 C294 1.397 . S
C294 C293 1.397 . S
C294 C295 1.438 . S
C294 C299 1.429 . S
C295 C278 1.394 1_554 S
C295 C294 1.438 . S
C295 C296 1.428 . S
C296 H288 0.949 . S
C296 C295 1.428 . S
C296 C297 1.345 . S
C297 H289 0.950 . S
C297 C296 1.345 . S
C297 C298 1.424 . S
C298 H290 0.951 . S
C298 C297 1.424 . S
C298 C299 1.347 . S
C299 H291 0.951 . S
C299 C294 1.429 . S
C299 C298 1.347 . S
H300 C301 0.951 . S
C301 H300 0.951 . S
C301 C307 1.265 1_556 S
H302 C307 0.950 . S
H303 C311 0.949 . S
H304 C312 0.950 . S
H305 C313 0.951 . S
H306 C314 0.951 . S
C307 C301 1.265 1_554 S
C307 H302 0.950 . S
C307 C308 1.478 . S
C308 C307 1.478 . S
C308 C309 1.397 . S
C308 C325 1.394 1_554 S
C309 C308 1.397 . S
C309 C310 1.438 . S
C309 C314 1.429 . S
C310 C309 1.438 . S
C310 C311 1.428 . S
C310 C323 1.392 1_554 S
C311 H303 0.949 . S
C311 C310 1.428 . S
C311 C312 1.345 . S
C312 H304 0.950 . S
C312 C311 1.345 . S
C312 C313 1.424 . S
C313 H305 0.951 . S
C313 C312 1.424 . S
C313 C314 1.347 . S
C314 H306 0.951 . S
C314 C309 1.429 . S
C314 C313 1.347 . S
H315 C316 0.951 . S
C316 H315 0.951 . S
C316 C322 1.265 1_554 S
H317 C322 0.950 . S
H318 C326 0.949 . S
H319 C327 0.950 . S
H320 C328 0.951 . S
H321 C329 0.951 . S
C322 C316 1.265 1_556 S
C322 H317 0.950 . S
C322 C323 1.478 . S
C323 C310 1.392 1_556 S
C323 C322 1.478 . S
C323 C324 1.398 . S
C324 C323 1.398 . S
C324 C325 1.438 . S
C324 C329 1.429 . S
C325 C308 1.394 1_556 S
C325 C324 1.438 . S
C325 C326 1.428 . S
C326 H318 0.949 . S
C326 C325 1.428 . S
C326 C327 1.345 . S
C327 H319 0.950 . S
C327 C326 1.345 . S
C327 C328 1.424 . S
C328 H320 0.951 . S
C328 C327 1.424 . S
C328 C329 1.347 . S
C329 H321 0.951 . S
C329 C324 1.429 . S
C329 C328 1.347 . S
C61 C18 1.507 1_455 S
C76 C19 1.507 1_655 S
C91 C38 1.465 . S
C106 C39 1.462 1_545 S
C121 C58 1.488 . S
C136 C59 1.488 . S
C151 C2 1.310 . S
C166 C52 1.370 1_556 S
C181 C32 1.319 . S
C196 C12 1.220 . S
C211 C22 1.314 . S
C226 C44 1.442 1_554 S
C241 C4 1.328 . S
C256 C49 1.357 1_554 S
C271 C9 1.323 . S
C286 C29 1.232 . S
C301 C42 1.443 1_556 S
C316 C24 1.313 . S
