# Generated by pormake.
# Topology ghw, (5)-cn, num edge types: 1
# Building blocks:
#     Node 0, Type 0, BuildingBlock: BEQFEK_clean_sbu_0, # of connection points: 5
#     Node 1, Type 0, BuildingBlock: BEQFEK_clean_sbu_0, # of connection points: 5
#     Node 2, Type 0, BuildingBlock: BEQFEK_clean_sbu_0, # of connection points: 5
#     Node 3, Type 0, BuildingBlock: BEQFEK_clean_sbu_0, # of connection points: 5
#     Node 4, Type 0, BuildingBlock: BEQFEK_clean_sbu_0, # of connection points: 5
#     Node 5, Type 0, BuildingBlock: BEQFEK_clean_sbu_0, # of connection points: 5
#     Node 6, Type 0, BuildingBlock: BEQFEK_clean_sbu_0, # of connection points: 5
#     Node 7, Type 0, BuildingBlock: BEQFEK_clean_sbu_0, # of connection points: 5
#     Node 8, Type 0, BuildingBlock: BEQFEK_clean_sbu_0, # of connection points: 5
#     Node 9, Type 0, BuildingBlock: BEQFEK_clean_sbu_0, # of connection points: 5
#     Node 10, Type 0, BuildingBlock: BEQFEK_clean_sbu_0, # of connection points: 5
#     Node 11, Type 0, BuildingBlock: BEQFEK_clean_sbu_0, # of connection points: 5
#     Node 12, Type 0, BuildingBlock: BEQFEK_clean_sbu_0, # of connection points: 5
#     Node 13, Type 0, BuildingBlock: BEQFEK_clean_sbu_0, # of connection points: 5
#     Node 14, Type 0, BuildingBlock: BEQFEK_clean_sbu_0, # of connection points: 5
#     Node 15, Type 0, BuildingBlock: BEQFEK_clean_sbu_0, # of connection points: 5
#     Edge 16, Type (0, 0), BuildingBlock: TEMPAE_clean_linker_10, # of connection points: 2
#     Edge 17, Type (0, 0), BuildingBlock: TEMPAE_clean_linker_10, # of connection points: 2
#     Edge 18, Type (0, 0), BuildingBlock: TEMPAE_clean_linker_10, # of connection points: 2
#     Edge 19, Type (0, 0), BuildingBlock: TEMPAE_clean_linker_10, # of connection points: 2
#     Edge 20, Type (0, 0), BuildingBlock: TEMPAE_clean_linker_10, # of connection points: 2
#     Edge 21, Type (0, 0), BuildingBlock: TEMPAE_clean_linker_10, # of connection points: 2
#     Edge 22, Type (0, 0), BuildingBlock: TEMPAE_clean_linker_10, # of connection points: 2
#     Edge 23, Type (0, 0), BuildingBlock: TEMPAE_clean_linker_10, # of connection points: 2
#     Edge 24, Type (0, 0), BuildingBlock: TEMPAE_clean_linker_10, # of connection points: 2
#     Edge 25, Type (0, 0), BuildingBlock: TEMPAE_clean_linker_10, # of connection points: 2
#     Edge 26, Type (0, 0), BuildingBlock: TEMPAE_clean_linker_10, # of connection points: 2
#     Edge 27, Type (0, 0), BuildingBlock: TEMPAE_clean_linker_10, # of connection points: 2
#     Edge 28, Type (0, 0), BuildingBlock: TEMPAE_clean_linker_10, # of connection points: 2
#     Edge 29, Type (0, 0), BuildingBlock: TEMPAE_clean_linker_10, # of connection points: 2
#     Edge 30, Type (0, 0), BuildingBlock: TEMPAE_clean_linker_10, # of connection points: 2
#     Edge 31, Type (0, 0), BuildingBlock: TEMPAE_clean_linker_10, # of connection points: 2
#     Edge 32, Type (0, 0), BuildingBlock: TEMPAE_clean_linker_10, # of connection points: 2
#     Edge 33, Type (0, 0), BuildingBlock: TEMPAE_clean_linker_10, # of connection points: 2
#     Edge 34, Type (0, 0), BuildingBlock: TEMPAE_clean_linker_10, # of connection points: 2
#     Edge 35, Type (0, 0), BuildingBlock: TEMPAE_clean_linker_10, # of connection points: 2
#     Edge 36, Type (0, 0), BuildingBlock: TEMPAE_clean_linker_10, # of connection points: 2
#     Edge 37, Type (0, 0), BuildingBlock: TEMPAE_clean_linker_10, # of connection points: 2
#     Edge 38, Type (0, 0), BuildingBlock: TEMPAE_clean_linker_10, # of connection points: 2
#     Edge 39, Type (0, 0), BuildingBlock: TEMPAE_clean_linker_10, # of connection points: 2
#     Edge 40, Type (0, 0), BuildingBlock: TEMPAE_clean_linker_10, # of connection points: 2
#     Edge 41, Type (0, 0), BuildingBlock: TEMPAE_clean_linker_10, # of connection points: 2
#     Edge 42, Type (0, 0), BuildingBlock: TEMPAE_clean_linker_10, # of connection points: 2
#     Edge 43, Type (0, 0), BuildingBlock: TEMPAE_clean_linker_10, # of connection points: 2
#     Edge 44, Type (0, 0), BuildingBlock: TEMPAE_clean_linker_10, # of connection points: 2
#     Edge 45, Type (0, 0), BuildingBlock: TEMPAE_clean_linker_10, # of connection points: 2
#     Edge 46, Type (0, 0), BuildingBlock: TEMPAE_clean_linker_10, # of connection points: 2
#     Edge 47, Type (0, 0), BuildingBlock: TEMPAE_clean_linker_10, # of connection points: 2
#     Edge 48, Type (0, 0), BuildingBlock: TEMPAE_clean_linker_10, # of connection points: 2
#     Edge 49, Type (0, 0), BuildingBlock: TEMPAE_clean_linker_10, # of connection points: 2
#     Edge 50, Type (0, 0), BuildingBlock: TEMPAE_clean_linker_10, # of connection points: 2
#     Edge 51, Type (0, 0), BuildingBlock: TEMPAE_clean_linker_10, # of connection points: 2
#     Edge 52, Type (0, 0), BuildingBlock: TEMPAE_clean_linker_10, # of connection points: 2
#     Edge 53, Type (0, 0), BuildingBlock: TEMPAE_clean_linker_10, # of connection points: 2
#     Edge 54, Type (0, 0), BuildingBlock: TEMPAE_clean_linker_10, # of connection points: 2
#     Edge 55, Type (0, 0), BuildingBlock: TEMPAE_clean_linker_10, # of connection points: 2
# Relax obj value: 0.439
# Max RMSD: 0.283
# Mean RMSD: 0.283
data_MOF--net-ghw--node1-BEQFEK_clean_sbu_0--edge1-TEMPAE_clean_linker_10
_symmetry_space_group_name_H-M    P1
_symmetry_Int_Tables_number       1
_symmetry_cell_setting            triclinic
loop_
_symmetry_equiv_pos_as_xyz
'x, y, z'
_cell_length_a     35.438226
_cell_length_b     45.046342
_cell_length_c     30.098245
_cell_angle_alpha  116.89937
_cell_angle_beta   89.938569
_cell_angle_gamma 89.950383
loop_
_atom_site_label
_atom_site_type_symbol
_atom_site_fract_x
_atom_site_fract_y
_atom_site_fract_z
_atom_type_partial_charge
Co0 Co 0.11149 0.12112 0.39206 0.0
Co1 Co 0.049 0.17539 0.43599 0.0
C2 C 0.06496 0.13846 0.32552 0.0
O3 O 0.09021 0.12061 0.33159 0.0
O4 O 0.04724 0.16057 0.36255 0.0
C5 C 0.17241 0.08467 0.33799 0.0
O6 O 0.16237 0.09982 0.31144 0.0
C7 C 0.97433 0.20148 0.44126 0.0
C8 C 0.97397 0.24836 0.51142 0.0
C9 C 0.95275 0.22913 0.4696 0.0
N10 N 0.00753 0.20447 0.46393 0.0
N11 N 0.00738 0.23262 0.50585 0.0
C12 C 0.96256 0.17152 0.39487 0.0
H13 H 0.98028 0.14969 0.38882 0.0
H14 H 0.93243 0.16563 0.39729 0.0
H15 H 0.96567 0.17692 0.36258 0.0
C16 C 0.06843 0.09108 0.44433 0.0
N17 N 0.07366 0.11531 0.43072 0.0
N18 N 0.04762 0.13838 0.45123 0.0
C19 C 0.02515 0.12975 0.47976 0.0
C20 C 0.03781 0.09948 0.47659 0.0
C21 C 0.09127 0.05968 0.42417 0.0
H22 H 0.11786 0.06431 0.44572 0.0
H23 H 0.09869 0.05199 0.38464 0.0
H24 H 0.07565 0.03914 0.42665 0.0
O25 O 0.13844 0.16295 0.431 0.0
O26 O 0.09475 0.20229 0.46269 0.0
H27 H 0.00281 0.17733 0.5306 0.0
H28 H 0.98425 0.14283 0.53903 0.0
C29 C -0.00641 0.15099 0.51117 0.0
H30 H 0.96948 0.14952 0.48678 0.0
H31 H 0.03009 0.24115 0.5305 0.0
O32 O 0.15194 0.08788 0.37452 0.0
C33 C 0.12905 0.19315 0.45696 0.0
Co34 Co 0.10487 0.13494 0.91132 0.0
Co35 Co 0.04581 0.07745 0.87055 0.0
C36 C 0.06138 0.12105 0.98178 0.0
O37 O 0.0843 0.14027 0.97477 0.0
O38 O 0.04636 0.09631 0.94519 0.0
C39 C 0.16778 0.17772 0.95544 0.0
O40 O 0.16267 0.1695 0.99169 0.0
C41 C 0.96857 0.05539 0.8639 0.0
C42 C 0.96683 0.01113 0.79043 0.0
C43 C 0.94414 0.03257 0.82931 0.0
N44 N 0.00371 0.04856 0.84546 0.0
N45 N 0.00274 0.02153 0.80216 0.0
C46 C 0.95911 0.08367 0.91358 0.0
H47 H 0.97823 0.08312 0.9422 0.0
H48 H 0.96348 0.10763 0.91219 0.0
H49 H 0.92978 0.08207 0.92516 0.0
C50 C 0.05944 0.15836 0.85183 0.0
N51 N 0.06648 0.13614 0.86904 0.0
N52 N 0.04172 0.11187 0.85043 0.0
C53 C 0.0183 0.11781 0.81988 0.0
C54 C 0.02888 0.14751 0.81981 0.0
C55 C 0.08017 0.19043 0.86881 0.0
H56 H 0.08507 0.20091 0.90944 0.0
H57 H 0.06422 0.20872 0.86092 0.0
H58 H 0.10798 0.18562 0.84979 0.0
O59 O 0.13285 0.09285 0.88023 0.0
O60 O 0.09234 0.05136 0.843 0.0
H61 H 0.97741 0.10142 0.76014 0.0
H62 H 0.96395 0.09588 0.81368 0.0
C63 C 0.98785 0.09469 0.78914 0.0
H64 H -0.00125 0.06885 0.77086 0.0
H65 H 0.0262 0.01145 0.7792 0.0
O66 O 0.14431 0.1678 0.91978 0.0
C67 C 0.12591 0.06218 0.85362 0.0
Co68 Co 0.86364 0.89018 0.6342 0.0
Co69 Co 0.93141 0.84261 0.59188 0.0
C70 C 0.90393 0.86561 0.69733 0.0
O71 O 0.87795 0.88346 0.69249 0.0
O72 O 0.92602 0.84859 0.66131 0.0
C73 C 0.79193 0.90885 0.66052 0.0
O74 O 0.79435 0.88026 0.66221 0.0
C75 C 0.009 0.82357 0.59135 0.0
C76 C 0.01519 0.77983 0.51771 0.0
C77 C 0.03457 0.79942 0.5613 0.0
N78 N 0.97625 0.81824 0.5668 0.0
N79 N 0.97986 0.79193 0.52301 0.0
C80 C 0.01553 0.85273 0.64114 0.0
H81 H -0.00645 0.87204 0.64899 0.0
H82 H 0.04378 0.86372 0.64255 0.0
H83 H 0.0139 0.84438 0.67057 0.0
C84 C 0.90988 0.9337 0.60787 0.0
N85 N 0.90446 0.90507 0.61057 0.0
N86 N 0.93333 0.88501 0.59072 0.0
C87 C 0.95837 0.90045 0.57429 0.0
C88 C 0.94439 0.932 0.58504 0.0
C89 C 0.8809 0.96086 0.62373 0.0
H90 H 0.85369 0.9502 0.60527 0.0
H91 H 0.87642 0.97149 0.66458 0.0
H92 H 0.88904 0.98093 0.61397 0.0
O93 O 0.84269 0.84965 0.58017 0.0
O94 O 0.89001 0.81394 0.55015 0.0
H95 H -0.00881 0.85944 0.52215 0.0
H96 H 0.00896 0.89991 0.53305 0.0
C97 C -0.00463 0.88563 0.55047 0.0
H98 H 0.01476 0.8856 0.57928 0.0
H99 H 0.9583 0.78237 0.4967 0.0
O100 O 0.82154 0.92121 0.65205 0.0
C101 C 0.85545 0.82134 0.5501 0.0
Co102 Co 0.86109 0.83207 0.08839 0.0
Co103 Co 0.9252 0.88452 0.13235 0.0
C104 C 0.90717 0.8532 0.02352 0.0
O105 O 0.88127 0.83565 0.02935 0.0
O106 O 0.92701 0.87309 0.06025 0.0
C107 C 0.79484 0.80517 0.04264 0.0
O108 O 0.80234 0.82661 0.02541 0.0
C109 C 0.00035 0.9151 0.15013 0.0
C110 C -0.00545 0.95427 0.2279 0.0
C111 C 0.01966 0.94062 0.18848 0.0
N112 N 0.96547 0.9136 0.16643 0.0
N113 N 0.9621 0.93719 0.21277 0.0
C114 C 0.01357 0.89369 0.09796 0.0
H115 H -0.0044 0.89857 0.07186 0.0
H116 H 0.01009 0.86706 0.08882 0.0
H117 H 0.04328 0.89876 0.09213 0.0
C118 C 0.90514 0.79852 0.13628 0.0
N119 N 0.89968 0.82343 0.12394 0.0
N120 N 0.92707 0.84532 0.14255 0.0
C121 C 0.95124 0.83469 0.16703 0.0
C122 C 0.93813 0.80463 0.16393 0.0
C123 C 0.87738 0.77112 0.12524 0.0
H124 H 0.84852 0.78176 0.13406 0.0
H125 H 0.87853 0.75371 0.08493 0.0
H126 H 0.88309 0.75726 0.14698 0.0
O127 O 0.83458 0.87294 0.13154 0.0
O128 O 0.8789 0.91148 0.16121 0.0
H129 H 0.97954 0.87657 0.22369 0.0
H130 H 0.00459 0.83757 0.20414 0.0
C131 C 0.98678 0.85249 0.19143 0.0
H132 H 0.00328 0.85785 0.16465 0.0
H133 H 0.93764 0.94149 0.23417 0.0
O134 O 0.81931 0.80009 0.06925 0.0
C135 C 0.84448 0.90286 0.15767 0.0
Co136 Co 0.12573 0.6176 0.8893 0.0
Co137 Co 0.06117 0.66904 0.93577 0.0
C138 C 0.07517 0.63613 0.82559 0.0
O139 O 0.10216 0.61929 0.83071 0.0
O140 O 0.0564 0.65644 0.86322 0.0
C141 C 0.18162 0.57583 0.82474 0.0
O142 O 0.16506 0.58429 0.79315 0.0
C143 C 0.98398 0.69045 0.9526 0.0
C144 C 0.98475 0.73377 0.02729 0.0
C145 C 0.96125 0.71377 0.98867 0.0
N146 N 0.01958 0.69607 0.9689 0.0
N147 N 0.02012 0.72224 0.01331 0.0
C148 C 0.97217 0.66248 0.90387 0.0
H149 H -0.00918 0.64059 0.8941 0.0
H150 H 0.94234 0.65536 0.90483 0.0
H151 H 0.9751 0.67064 0.87433 0.0
C152 C 0.08594 0.58413 0.94058 0.0
N153 N 0.08969 0.60909 0.928 0.0
N154 N 0.06255 0.631 0.94888 0.0
C155 C 0.04069 0.62071 0.9761 0.0
C156 C 0.05472 0.59057 0.97159 0.0
C157 C 0.11283 0.55546 0.9245 0.0
H158 H 0.14217 0.56498 0.93217 0.0
H159 H 0.11022 0.53976 0.88369 0.0
H160 H 0.10746 0.54008 0.94403 0.0
O161 O 0.15211 0.65985 0.93002 0.0
O162 O 0.10632 0.69725 0.96139 0.0
H163 H 0.01291 0.66498 0.02874 0.0
H164 H -0.00636 0.62713 0.02623 0.0
C165 C 0.00602 0.6386 0.00387 0.0
H166 H 0.98442 0.63787 0.97687 0.0
H167 H 0.04443 0.73157 0.03466 0.0
O168 O 0.16698 0.58477 0.8674 0.0
C169 C 0.14111 0.68964 0.95599 0.0
Co170 Co 0.11525 0.65506 0.42348 0.0
Co171 Co 0.05382 0.6003 0.38018 0.0
C172 C 0.07335 0.63671 0.49135 0.0
O173 O 0.09668 0.65633 0.48604 0.0
O174 O 0.05642 0.61427 0.4538 0.0
C175 C 0.18091 0.69016 0.46716 0.0
O176 O 0.17642 0.67403 0.49384 0.0
C177 C 0.97477 0.58209 0.37213 0.0
C178 C 0.97423 0.53181 0.30828 0.0
C179 C 0.95094 0.55632 0.34235 0.0
N180 N 0.01027 0.57339 0.35582 0.0
N181 N 0.0099 0.54321 0.31797 0.0
C182 C 0.96453 0.61417 0.41627 0.0
H183 H 0.95888 0.63346 0.40383 0.0
H184 H 0.93899 0.6111 0.43515 0.0
H185 H 0.98812 0.62317 0.44315 0.0
C186 C 0.07015 0.68403 0.36989 0.0
N187 N 0.07586 0.66077 0.38557 0.0
N188 N 0.05054 0.63712 0.36527 0.0
C189 C 0.0285 0.64417 0.33463 0.0
C190 C 0.04003 0.67434 0.33679 0.0
C191 C 0.09286 0.71518 0.38739 0.0
H192 H 0.11916 0.70991 0.36502 0.0
H193 H 0.10071 0.72357 0.42683 0.0
H194 H 0.07687 0.73518 0.3838 0.0
O195 O 0.14203 0.61234 0.3843 0.0
O196 O 0.09875 0.57334 0.34676 0.0
H197 H 0.00948 0.59454 0.28666 0.0
H198 H -0.00368 0.62516 0.26631 0.0
C199 C 0.0002 0.62063 0.29933 0.0
H200 H 0.97264 0.6242 0.31855 0.0
H201 H 0.03387 0.53067 0.29819 0.0
O202 O 0.15538 0.68812 0.43637 0.0
C203 C 0.13305 0.5825 0.35484 0.0
Co204 Co 0.86831 0.40117 0.16447 0.0
Co205 Co 0.92622 0.3472 0.10216 0.0
C206 C 0.91135 0.36686 0.21171 0.0
O207 O 0.88814 0.38945 0.21544 0.0
O208 O 0.92751 0.34849 0.17026 0.0
C209 C 0.80175 0.42084 0.20454 0.0
O210 O 0.8095 0.39434 0.21055 0.0
C211 C 0.00305 0.32431 0.07628 0.0
C212 C -0.00114 0.29186 0.99516 0.0
C213 C 0.02456 0.30697 0.03359 0.0
N214 N 0.96663 0.32084 0.06312 0.0
N215 N 0.96412 0.30072 0.0149 0.0
C216 C 0.01623 0.34413 0.12889 0.0
H217 H -0.00328 0.34061 0.15483 0.0
H218 H 0.01622 0.37099 0.13845 0.0
H219 H 0.0449 0.3364 0.13428 0.0
C220 C 0.91418 0.4432 0.1341 0.0
N221 N 0.90676 0.41416 0.13485 0.0
N222 N 0.93068 0.39121 0.10594 0.0
C223 C 0.95382 0.40503 0.08463 0.0
C224 C 0.94431 0.4385 0.10206 0.0
C225 C 0.89303 0.47479 0.16443 0.0
H226 H 0.86689 0.47507 0.14436 0.0
H227 H 0.88476 0.47601 0.2008 0.0
H228 H 0.91027 0.49692 0.17082 0.0
O229 O 0.83977 0.36392 0.11363 0.0
O230 O 0.87951 0.32427 0.06733 0.0
H231 H 0.97043 0.36116 0.01938 0.0
H232 H 0.98884 0.39913 0.02216 0.0
C233 C 0.98191 0.38596 0.04459 0.0
H234 H 0.00822 0.38274 0.06184 0.0
H235 H 0.93889 0.29475 0.99491 0.0
O236 O 0.82803 0.43391 0.1907 0.0
C237 C 0.84609 0.33546 0.07788 0.0
Co238 Co 0.85927 0.31991 0.58607 0.0
Co239 Co 0.9274 0.36779 0.63249 0.0
C240 C 0.91178 0.33591 0.52197 0.0
O241 O 0.88411 0.31959 0.52692 0.0
O242 O 0.93097 0.35578 0.55964 0.0
C243 C 0.79119 0.30502 0.54633 0.0
O244 O 0.80399 0.32821 0.53518 0.0
C245 C 0.00395 0.39675 0.6523 0.0
C246 C -0.00124 0.43279 0.732 0.0
C247 C 0.02342 0.42119 0.69203 0.0
N248 N 0.9693 0.39409 0.66827 0.0
N249 N 0.96642 0.41565 0.71589 0.0
C250 C 0.01636 0.37821 0.59914 0.0
H251 H -0.00041 0.38712 0.57646 0.0
H252 H 0.0104 0.35128 0.58512 0.0
H253 H 0.04664 0.38206 0.59419 0.0
C254 C 0.89518 0.2849 0.63865 0.0
N255 N 0.89359 0.3095 0.62495 0.0
N256 N 0.92354 0.32862 0.64211 0.0
C257 C 0.94586 0.31595 0.66567 0.0
C258 C 0.92858 0.28782 0.66428 0.0
C259 C 0.86359 0.26135 0.63247 0.0
H260 H 0.86103 0.2574 0.66619 0.0
H261 H 0.83655 0.27112 0.62607 0.0
H262 H 0.86965 0.23686 0.60058 0.0
O263 O 0.83691 0.36369 0.62533 0.0
O264 O 0.88361 0.39842 0.66245 0.0
H265 H 0.98011 0.35287 0.72185 0.0
H266 H 0.00062 0.31161 0.69423 0.0
C267 C 0.98381 0.32962 0.68669 0.0
H268 H -0.00046 0.33574 0.66006 0.0
H269 H 0.94214 0.41894 0.73727 0.0
O270 O 0.81358 0.29221 0.5658 0.0
C271 C 0.84865 0.39255 0.65402 0.0
Co272 Co 0.60891 0.11732 0.8462 0.0
Co273 Co 0.54453 0.16993 0.88485 0.0
C274 C 0.56544 0.13206 0.77491 0.0
O275 O 0.58991 0.11433 0.78283 0.0
O276 O 0.54673 0.15427 0.81082 0.0
C277 C 0.67446 0.08179 0.80105 0.0
O278 O 0.67009 0.09806 0.77454 0.0
C279 C 0.46554 0.18735 0.89007 0.0
C280 C 0.46223 0.23584 0.95737 0.0
C281 C 0.44051 0.21177 0.92038 0.0
N282 N 0.50037 0.19629 0.90864 0.0
N283 N 0.4984 0.22553 0.94846 0.0
C284 C 0.45711 0.15614 0.84357 0.0
H285 H 0.46974 0.13441 0.84609 0.0
H286 H 0.42642 0.1523 0.83623 0.0
H287 H 0.47063 0.15777 0.81148 0.0
C288 C 0.56604 0.08953 0.90322 0.0
N289 N 0.5703 0.11176 0.88519 0.0
N290 N 0.54315 0.13406 0.90252 0.0
C291 C 0.52085 0.12685 0.93285 0.0
C292 C 0.53449 0.09818 0.93396 0.0
C293 C 0.59354 0.06213 0.89407 0.0
H294 H 0.62245 0.07256 0.90311 0.0
H295 H 0.59291 0.04414 0.85401 0.0
H296 H 0.58714 0.04902 0.91671 0.0
O297 O 0.63425 0.16064 0.8836 0.0
O298 O 0.58888 0.19853 0.91661 0.0
H299 H 0.49477 0.17377 0.97924 0.0
H300 H 0.47584 0.13936 0.98762 0.0
C301 C 0.48718 0.14701 0.96008 0.0
H302 H 0.46453 0.14366 0.93294 0.0
H303 H 0.52155 0.23792 0.9704 0.0
O304 O 0.64941 0.08455 0.83287 0.0
C305 C 0.6236 0.19044 0.91039 0.0
Co306 Co 0.6202 0.14248 0.36771 0.0
Co307 Co 0.55651 0.0903 0.32431 0.0
C308 C 0.57731 0.12605 0.43586 0.0
O309 O 0.60152 0.14514 0.4308 0.0
O310 O 0.55987 0.10421 0.39817 0.0
C311 C 0.69278 0.16178 0.3901 0.0
O312 O 0.6903 0.13585 0.39895 0.0
C313 C 0.47675 0.07983 0.32207 0.0
C314 C 0.46954 0.02747 0.26569 0.0
C315 C 0.44995 0.05537 0.29898 0.0
N316 N 0.51059 0.06718 0.30309 0.0
N317 N 0.50628 0.03591 0.26928 0.0
C318 C 0.47093 0.1141 0.36383 0.0
H319 H 0.49781 0.12478 0.38307 0.0
H320 H 0.46002 0.13077 0.34874 0.0
H321 H 0.44996 0.11351 0.39086 0.0
C322 C 0.57629 0.17522 0.31891 0.0
N323 N 0.58178 0.15046 0.33146 0.0
N324 N 0.55624 0.12728 0.30965 0.0
C325 C 0.5344 0.13594 0.28065 0.0
C326 C 0.54612 0.16689 0.28589 0.0
C327 C 0.59864 0.20676 0.34036 0.0
H328 H 0.62388 0.20361 0.31678 0.0
H329 H 0.60832 0.21233 0.37836 0.0
H330 H 0.5816 0.22792 0.34203 0.0
O331 O 0.64257 0.09772 0.328 0.0
O332 O 0.59849 0.05988 0.28992 0.0
H333 H 0.50311 0.11853 0.21196 0.0
H334 H 0.47775 0.11797 0.26331 0.0
C335 C 0.50565 0.11351 0.2447 0.0
H336 H 0.51354 0.08707 0.23185 0.0
H337 H 0.5284 0.02026 0.24921 0.0
O338 O 0.66312 0.17282 0.37913 0.0
C339 C 0.63295 0.06802 0.29904 0.0
Co340 Co 0.3613 0.93366 0.17762 0.0
Co341 Co 0.42351 0.8806 0.12325 0.0
C342 C 0.40781 0.9088 0.23474 0.0
O343 O 0.38284 0.92893 0.23406 0.0
O344 O 0.42496 0.88891 0.19496 0.0
C345 C 0.29359 0.95886 0.22156 0.0
O346 O 0.29988 0.9356 0.2356 0.0
C347 C 0.50096 0.85426 0.10142 0.0
C348 C 0.49228 0.80778 0.03191 0.0
C349 C 0.51956 0.8264 0.06601 0.0
N350 N 0.4644 0.85213 0.08858 0.0
N351 N 0.45944 0.82436 0.04697 0.0
C352 C 0.51685 0.88133 0.14831 0.0
H353 H 0.49418 0.89409 0.17576 0.0
H354 H 0.53085 0.90012 0.13969 0.0
H355 H 0.53817 0.87106 0.16465 0.0
C356 C 0.40489 0.97123 0.1361 0.0
N357 N 0.39908 0.94394 0.14258 0.0
N358 N 0.42474 0.92135 0.11774 0.0
C359 C 0.44708 0.93325 0.09309 0.0
C360 C 0.43538 0.96543 0.10409 0.0
C361 C 0.3827 1.00273 0.16245 0.0
H362 H 0.35596 1.00052 0.14204 0.0
H363 H 0.37552 0.00662 0.20059 0.0
H364 H 0.39875 0.02452 0.16475 0.0
O365 O 0.33463 0.89227 0.13514 0.0
O366 O 0.37761 0.85476 0.09171 0.0
H367 H 0.46867 0.88659 0.03746 0.0
H368 H 0.4816 0.92215 0.02819 0.0
C369 C 0.4769 0.91318 0.05654 0.0
H370 H 0.50374 0.91537 0.07668 0.0
H371 H 0.4335 0.81645 0.02915 0.0
O372 O 0.3192 0.96554 0.19793 0.0
C373 C 0.34339 0.86323 0.10263 0.0
Co374 Co 0.37623 0.86034 0.61441 0.0
Co375 Co 0.43497 0.91663 0.66258 0.0
C376 C 0.41421 0.88787 0.55351 0.0
O377 O 0.39169 0.8668 0.55627 0.0
O378 O 0.4318 0.90866 0.59184 0.0
C379 C 0.30855 0.84003 0.58264 0.0
O380 O 0.31562 0.86535 0.57342 0.0
C381 C 0.50786 0.94571 0.66874 0.0
C382 C 0.50683 0.99045 0.74183 0.0
C383 C 0.5288 0.97339 0.69963 0.0
N384 N 0.47498 0.94673 0.69117 0.0
N385 N 0.47417 0.97364 0.73462 0.0
C386 C 0.51951 0.91706 0.62047 0.0
H387 H 0.50118 0.89516 0.61173 0.0
H388 H 0.54931 0.91007 0.62221 0.0
H389 H 0.51673 0.92429 0.58995 0.0
C390 C 0.42813 0.82446 0.64906 0.0
N391 N 0.41805 0.85156 0.64422 0.0
N392 N 0.44301 0.87539 0.66627 0.0
C393 C 0.47007 0.86403 0.68634 0.0
C394 C 0.46163 0.83122 0.67567 0.0
C395 C 0.40471 0.79349 0.63057 0.0
H396 H 0.37469 0.80024 0.64035 0.0
H397 H 0.40678 0.77996 0.58934 0.0
H398 H 0.41385 0.77686 0.64668 0.0
O399 O 0.34953 0.89896 0.66456 0.0
O400 O 0.38959 0.94058 0.6996 0.0
H401 H 0.49502 0.90914 0.74085 0.0
H402 H 0.51996 0.87169 0.73211 0.0
C403 C 0.50393 0.88384 0.71324 0.0
H404 H 0.52298 0.88653 0.68609 0.0
H405 H 0.45145 0.98044 0.75938 0.0
O406 O 0.33567 0.82738 0.59592 0.0
C407 C 0.35668 0.92868 0.69548 0.0
Co408 Co 0.61021 0.60288 0.32908 0.0
Co409 Co 0.5537 0.662 0.37358 0.0
C410 C 0.56683 0.6192 0.26118 0.0
O411 O 0.58922 0.59897 0.26656 0.0
O412 O 0.55291 0.64403 0.29887 0.0
C413 C 0.67645 0.56997 0.2914 0.0
O414 O 0.67255 0.58704 0.26599 0.0
C415 C 0.4762 0.68499 0.38634 0.0
C416 C 0.47924 0.73427 0.45214 0.0
C417 C 0.45413 0.71128 0.41915 0.0
N418 N 0.51241 0.69177 0.40013 0.0
N419 N 0.5142 0.72147 0.43898 0.0
C420 C 0.46352 0.65385 0.34226 0.0
H421 H 0.46134 0.63337 0.35299 0.0
H422 H 0.43582 0.65749 0.32827 0.0
H423 H 0.48434 0.64623 0.3117 0.0
C424 C 0.56554 0.57996 0.3898 0.0
N425 N 0.5724 0.60202 0.37224 0.0
N426 N 0.54933 0.62746 0.39346 0.0
C427 C 0.52756 0.62276 0.42666 0.0
C428 C 0.53711 0.59235 0.42532 0.0
C429 C 0.58491 0.54704 0.3708 0.0
H430 H 0.59159 0.53791 0.33076 0.0
H431 H 0.56705 0.52849 0.37567 0.0
H432 H 0.61177 0.55009 0.39134 0.0
O433 O 0.63978 0.64419 0.3608 0.0
O434 O 0.60114 0.68692 0.39988 0.0
H435 H 0.49594 0.64429 0.49561 0.0
H436 H 0.47328 0.646 0.44327 0.0
C437 C 0.50073 0.64812 0.46213 0.0
H438 H 0.51199 0.67352 0.47393 0.0
H439 H 0.5391 0.73247 0.4576 0.0
O440 O 0.64928 0.56945 0.3185 0.0
C441 C 0.63428 0.67502 0.38821 0.0
Co442 Co 0.62847 0.63653 0.86954 0.0
Co443 Co 0.56434 0.58623 0.81637 0.0
C444 C 0.57552 0.61729 0.9281 0.0
O445 O 0.60308 0.63456 0.9259 0.0
O446 O 0.55825 0.59738 0.88872 0.0
C447 C 0.68388 0.67715 0.93648 0.0
O448 O 0.66612 0.66917 0.96784 0.0
C449 C 0.4852 0.57401 0.798 0.0
C450 C 0.48222 0.52249 0.7376 0.0
C451 C 0.4603 0.54934 0.76889 0.0
N452 N 0.52036 0.56262 0.78434 0.0
N453 N 0.51859 0.53188 0.74795 0.0
C454 C 0.47591 0.60672 0.84146 0.0
H455 H 0.5019 0.62081 0.859 0.0
H456 H 0.45831 0.62196 0.82913 0.0
H457 H 0.45933 0.60237 0.86928 0.0
C458 C 0.59201 0.67373 0.8226 0.0
N459 N 0.59443 0.64724 0.83176 0.0
N460 N 0.56866 0.62521 0.80605 0.0
C461 C 0.54973 0.63658 0.77787 0.0
C462 C 0.5637 0.66789 0.78778 0.0
C463 C 0.61509 0.70462 0.84915 0.0
H464 H 0.64243 0.70143 0.82948 0.0
H465 H 0.62099 0.70884 0.88772 0.0
H466 H 0.60035 0.72673 0.85041 0.0
O467 O 0.65368 0.59387 0.82751 0.0
O468 O 0.6088 0.55665 0.78941 0.0
H469 H 0.5211 0.62419 0.70848 0.0
H470 H 0.4928 0.62132 0.75592 0.0
C471 C 0.52131 0.61674 0.73894 0.0
H472 H 0.52773 0.58979 0.72308 0.0
H473 H 0.54211 0.51707 0.73113 0.0
O474 O 0.67048 0.66803 0.89319 0.0
C475 C 0.64348 0.56439 0.79816 0.0
Co476 Co 0.36184 0.42638 0.66375 0.0
Co477 Co 0.42252 0.37217 0.60761 0.0
C478 C 0.41265 0.4027 0.71945 0.0
O479 O 0.38722 0.42255 0.71902 0.0
O480 O 0.42819 0.38164 0.67917 0.0
C481 C 0.29703 0.45239 0.71452 0.0
O482 O 0.30648 0.43032 0.72983 0.0
C483 C 0.49554 0.33853 0.58341 0.0
C484 C 0.48716 0.30095 0.50519 0.0
C485 C 0.51301 0.31219 0.54383 0.0
N486 N 0.46083 0.34227 0.56898 0.0
N487 N 0.45587 0.31968 0.52231 0.0
C488 C 0.51217 0.36165 0.63279 0.0
H489 H 0.49732 0.38599 0.64868 0.0
H490 H 0.54267 0.36559 0.629 0.0
H491 H 0.50883 0.35065 0.65892 0.0
C492 C 0.40224 0.461 0.61462 0.0
N493 N 0.39713 0.43472 0.62383 0.0
N494 N 0.4234 0.4123 0.60073 0.0
C495 C 0.44633 0.42378 0.57616 0.0
C496 C 0.43368 0.45511 0.58419 0.0
C497 C 0.37615 0.49025 0.63279 0.0
H498 H 0.34657 0.48132 0.62706 0.0
H499 H 0.38066 0.50578 0.6733 0.0
H500 H 0.38067 0.50562 0.61307 0.0
O501 O 0.33376 0.38552 0.6257 0.0
O502 O 0.37537 0.3471 0.58068 0.0
H503 H 0.47193 0.38286 0.51445 0.0
H504 H 0.49821 0.42138 0.53623 0.0
C505 C 0.48069 0.40571 0.54784 0.0
H506 H 0.49803 0.39803 0.57147 0.0
H507 H 0.43111 0.31708 0.50215 0.0
O508 O 0.32005 0.45857 0.6874 0.0
C509 C 0.34159 0.35617 0.59374 0.0
Co510 Co 0.3638 0.3578 0.09271 0.0
Co511 Co 0.42588 0.40921 0.14645 0.0
C512 C 0.41278 0.38279 0.03666 0.0
O513 O 0.38702 0.3636 0.03774 0.0
O514 O 0.42974 0.40242 0.07632 0.0
C515 C 0.3015 0.33619 0.04026 0.0
O516 O 0.3116 0.36255 0.03518 0.0
C517 C 0.50288 0.43023 0.15998 0.0
C518 C 0.50293 0.47527 0.23268 0.0
C519 C 0.5261 0.4552 0.19319 0.0
N520 N 0.46792 0.43552 0.17883 0.0
N521 N 0.46782 0.46261 0.22202 0.0
C522 C 0.51344 0.40026 0.11269 0.0
H523 H 0.49157 0.38065 0.10244 0.0
H524 H 0.54099 0.39 0.11668 0.0
H525 H 0.51551 0.4074 0.082 0.0
C526 C 0.40553 0.31794 0.13185 0.0
N527 N 0.40032 0.34562 0.12626 0.0
N528 N 0.4267 0.36754 0.15048 0.0
C529 C 0.44955 0.35446 0.17305 0.0
C530 C 0.43702 0.32242 0.16164 0.0
C531 C 0.37973 0.28847 0.11044 0.0
H532 H 0.34995 0.29698 0.11553 0.0
H533 H 0.38511 0.27426 0.06981 0.0
H534 H 0.38393 0.27185 0.1282 0.0
O535 O 0.33666 0.39783 0.14029 0.0
O536 O 0.3803 0.436 0.17878 0.0
H537 H 0.47677 0.3982 0.22796 0.0
H538 H 0.4947 0.35978 0.22513 0.0
C539 C 0.48363 0.37181 0.2029 0.0
H540 H 0.50637 0.37118 0.17725 0.0
H541 H 0.44394 0.47227 0.24429 0.0
O542 O 0.32301 0.32576 0.06395 0.0
C543 C 0.34595 0.42698 0.17189 0.0
C544 C 0.23017 0.06183 0.2877 0.0
C545 C 0.21092 0.07146 0.3327 0.0
C546 C 0.26918 0.05667 0.28484 0.0
C547 C 0.28937 0.06182 0.32836 0.0
C548 C 0.26972 0.06995 0.37339 0.0
C549 C 0.23044 0.07393 0.37468 0.0
C550 C 0.28884 0.04769 0.23583 0.0
C551 C 0.29013 0.07632 0.42089 0.0
C552 C 0.39056 0.03152 0.31274 0.0
C553 C 0.40919 0.05762 0.30897 0.0
C554 C 0.35172 0.03325 0.32228 0.0
C555 C 0.33115 0.06153 0.32715 0.0
C556 C 0.35047 0.08888 0.32666 0.0
C557 C 0.38908 0.08616 0.31607 0.0
C558 C 0.33386 0.00508 0.32858 0.0
C559 C 0.33068 0.1212 0.33746 0.0
H560 H 0.21496 0.0597 0.25513 0.0
H561 H 0.21551 0.0815 0.40961 0.0
H562 H 0.30164 0.07024 0.23629 0.0
H563 H 0.31181 0.02954 0.2295 0.0
H564 H 0.26896 0.0373 0.20394 0.0
H565 H 0.27219 0.09005 0.45433 0.0
H566 H 0.29803 0.05219 0.41982 0.0
H567 H 0.31638 0.09077 0.4251 0.0
H568 H 0.40641 0.00983 0.30874 0.0
H569 H 0.40328 0.1063 0.31267 0.0
H570 H 0.30271 0.00463 0.32593 0.0
H571 H 0.34178 0.00724 0.36559 0.0
H572 H 0.34532 0.98107 0.30041 0.0
H573 H 0.31883 0.11986 0.30255 0.0
H574 H 0.35065 0.14249 0.35269 0.0
H575 H 0.30725 0.12642 0.3645 0.0
C576 C 0.88569 0.22907 0.48947 0.0
C577 C 0.91321 0.23351 0.46001 0.0
C578 C 0.84873 0.22092 0.47211 0.0
C579 C 0.83895 0.21875 0.42492 0.0
C580 C 0.86625 0.22606 0.39693 0.0
C581 C 0.90329 0.23328 0.41488 0.0
C582 C 0.82241 0.21037 0.50199 0.0
C583 C 0.85778 0.22211 0.34544 0.0
C584 C 0.76192 0.1556 0.3796 0.0
C585 C 0.73002 0.17599 0.38998 0.0
C586 C 0.79811 0.16888 0.38444 0.0
C587 C 0.80237 0.20364 0.40231 0.0
C588 C 0.77026 0.22374 0.40746 0.0
C589 C 0.7342 0.20948 0.40081 0.0
C590 C 0.8317 0.14603 0.3744 0.0
C591 C 0.77341 0.26008 0.41994 0.0
H592 H 0.89405 0.22821 0.52347 0.0
H593 H 0.92516 0.23618 0.39191 0.0
H594 H 0.79356 0.20402 0.48669 0.0
H595 H 0.83449 0.18832 0.50419 0.0
H596 H 0.82032 0.23031 0.54068 0.0
H597 H 0.88056 0.23254 0.33129 0.0
H598 H 0.85473 0.19524 0.31944 0.0
H599 H 0.83082 0.23443 0.34511 0.0
H600 H 0.75868 0.12927 0.36886 0.0
H601 H 0.70942 0.22488 0.40649 0.0
H602 H 0.84167 0.14704 0.40999 0.0
H603 H 0.85537 0.1538 0.35784 0.0
H604 H 0.82432 0.11979 0.34891 0.0
H605 H 0.79957 0.27169 0.44063 0.0
H606 H 0.74852 0.27434 0.44146 0.0
H607 H 0.77374 0.2623 0.38471 0.0
C608 C 0.37717 0.23685 0.92424 0.0
C609 C 0.39909 0.21 0.92052 0.0
C610 C 0.33769 0.23603 0.92734 0.0
C611 C 0.32007 0.208 0.92804 0.0
C612 C 0.34228 0.18042 0.92278 0.0
C613 C 0.38155 0.18191 0.91954 0.0
C614 C 0.31549 0.26488 0.92839 0.0
C615 C 0.32462 0.14937 0.921 0.0
C616 C 0.22855 0.20677 0.99144 0.0
C617 C 0.20411 0.19215 0.95066 0.0
C618 C 0.26562 0.21515 0.98521 0.0
C619 C 0.27887 0.20747 0.9368 0.0
C620 C 0.25357 0.19494 0.89615 0.0
C621 C 0.21626 0.18789 0.90372 0.0
C622 C 0.29134 0.23027 0.0299 0.0
C623 C 0.26658 0.18675 0.84412 0.0
H624 H 0.39091 0.25843 0.92447 0.0
H625 H 0.39865 0.16134 0.91737 0.0
H626 H 0.31299 0.2618 0.88979 0.0
H627 H 0.28666 0.26653 0.94355 0.0
H628 H 0.33066 0.28864 0.9502 0.0
H629 H 0.31187 0.1551 0.95768 0.0
H630 H 0.30169 0.14034 0.89289 0.0
H631 H 0.34549 0.12898 0.91167 0.0
H632 H 0.21914 0.2106 0.02793 0.0
H633 H 0.19738 0.17693 0.87207 0.0
H634 H 0.3081 0.25083 0.02907 0.0
H635 H 0.31149 0.21114 0.029 0.0
H636 H 0.27535 0.24001 0.06549 0.0
H637 H 0.27907 0.20913 0.84355 0.0
H638 H 0.24321 0.17764 0.81663 0.0
H639 H 0.28889 0.16734 0.83226 0.0
C640 C 0.88066 0.00617 0.80411 0.0
C641 C 0.90271 0.03496 0.82709 0.0
C642 C 0.84162 0.00841 0.79821 0.0
C643 C 0.82446 0.04015 0.81631 0.0
C644 C 0.84657 0.06923 0.84049 0.0
C645 C 0.88549 0.06623 0.84413 0.0
C646 C 0.81896 0.97698 0.77145 0.0
C647 C 0.82939 0.10365 0.86087 0.0
C648 C 0.73794 0.06136 0.76394 0.0
C649 C 0.71085 0.06556 0.80024 0.0
C650 C 0.77429 0.04991 0.76623 0.0
C651 C 0.78411 0.04371 0.80683 0.0
C652 C 0.75646 0.04647 0.84243 0.0
C653 C 0.72 0.05712 0.83846 0.0
C654 C 0.80291 0.04629 0.7268 0.0
C655 C 0.76614 0.04112 0.88711 0.0
H656 H 0.89407 0.98194 0.79 0.0
H657 H 0.90247 0.08858 0.85892 0.0
H658 H 0.79742 0.97517 0.79684 0.0
H659 H 0.80369 0.97782 0.73997 0.0
H660 H 0.83689 0.95429 0.75706 0.0
H661 H 0.84969 0.12342 0.88389 0.0
H662 H 0.81997 0.10853 0.82965 0.0
H663 H 0.80425 0.10551 0.88401 0.0
H664 H 0.73111 0.06797 0.73446 0.0
H665 H 0.69926 0.06048 0.86686 0.0
H666 H 0.81496 0.02077 0.70986 0.0
H667 H 0.82659 0.0639 0.74381 0.0
H668 H 0.79054 0.0512 0.69688 0.0
H669 H 0.7838 0.01858 0.87623 0.0
H670 H 0.74048 0.03871 0.90647 0.0
H671 H 0.78273 0.06269 0.91386 0.0
C672 C 0.72246 0.90893 0.66975 0.0
C673 C 0.7549 0.92449 0.66388 0.0
C674 C 0.68679 0.92251 0.67144 0.0
C675 C 0.68364 0.95303 0.6689 0.0
C676 C 0.71602 0.96824 0.66092 0.0
C677 C 0.75147 0.95373 0.65844 0.0
C678 C 0.65247 0.90403 0.67577 0.0
C679 C 0.71308 0.99906 0.65346 0.0
C680 C 0.5838 0.97038 0.64631 0.0
C681 C 0.56883 0.97947 0.69377 0.0
C682 C 0.6224 0.96407 0.63734 0.0
C683 C 0.6464 0.96943 0.67783 0.0
C684 C 0.63206 0.98472 0.72711 0.0
C685 C 0.59311 0.98914 0.73451 0.0
C686 C 0.63616 0.94929 0.58409 0.0
C687 C 0.65696 0.99247 0.77167 0.0
H688 H 0.72479 0.88586 0.67264 0.0
H689 H 0.77642 0.96526 0.6522 0.0
H690 H 0.64083 0.91696 0.71407 0.0
H691 H 0.63008 0.90345 0.64962 0.0
H692 H 0.65928 0.87802 0.66784 0.0
H693 H 0.74093 0.01098 0.65638 0.0
H694 H 0.70195 0.99215 0.61565 0.0
H695 H 0.69319 0.01731 0.68065 0.0
H696 H 0.56503 0.96533 0.61533 0.0
H697 H 0.58165 0.99717 0.77158 0.0
H698 H 0.61446 0.93262 0.5582 0.0
H699 H 0.66278 0.935 0.57795 0.0
H700 H 0.64101 0.96978 0.5739 0.0
H701 H 0.65586 0.9715 0.78141 0.0
H702 H 0.64678 0.01502 0.80453 0.0
H703 H 0.68677 0.9963 0.7643 0.0
C704 C 0.09004 0.80827 0.61748 0.0
C705 C 0.07536 0.79749 0.56944 0.0
C706 C 0.12887 0.81318 0.62623 0.0
C707 C 0.15352 0.8049 0.5853 0.0
C708 C 0.13909 0.79004 0.53613 0.0
C709 C 0.10008 0.78705 0.52886 0.0
C710 C 0.1424 0.82875 0.67955 0.0
C711 C 0.16452 0.78021 0.49129 0.0
C712 C 0.24032 0.85185 0.58394 0.0
C713 C 0.26909 0.83105 0.58579 0.0
C714 C 0.20254 0.8451 0.58844 0.0
C715 C 0.19318 0.81609 0.59286 0.0
C716 C 0.22193 0.79615 0.59812 0.0
C717 C 0.25984 0.80386 0.59447 0.0
C718 C 0.17262 0.86885 0.58783 0.0
C719 C 0.21245 0.76707 0.60801 0.0
H720 H 0.07123 0.81427 0.64873 0.0
H721 H 0.08894 0.77843 0.49156 0.0
H722 H 0.17144 0.83886 0.68425 0.0
H723 H 0.12307 0.84917 0.70361 0.0
H724 H 0.14163 0.80969 0.69331 0.0
H725 H 0.15179 0.76025 0.4573 0.0
H726 H 0.16902 0.80207 0.48422 0.0
H727 H 0.19249 0.77164 0.49736 0.0
H728 H 0.24721 0.87375 0.57936 0.0
H729 H 0.28208 0.78863 0.59818 0.0
H730 H 0.151 0.87331 0.61692 0.0
H731 H 0.15817 0.85787 0.55121 0.0
H732 H 0.18474 0.8932 0.59419 0.0
H733 H 0.19737 0.7761 0.64408 0.0
H734 H 0.23802 0.75346 0.60993 0.0
H735 H 0.19318 0.74972 0.57876 0.0
C736 C 0.73388 0.78754 0.9982 0.0
C737 C 0.7559 0.79342 0.03991 0.0
C738 C 0.69454 0.78538 1.00002 0.0
C739 C 0.6771 0.78998 0.04501 0.0
C740 C 0.69953 0.79227 0.0853 0.0
C741 C 0.73886 0.79412 0.08235 0.0
C742 C 0.67165 0.78169 0.95558 0.0
C743 C 0.68195 0.7961 0.13327 0.0
C744 C 0.58781 0.84156 0.07579 0.0
C745 C 0.55979 0.81728 0.06352 0.0
C746 C 0.62607 0.83292 0.07107 0.0
C747 C 0.63654 0.79905 0.05317 0.0
C748 C 0.60835 0.77443 0.04145 0.0
C749 C 0.57023 0.78383 0.04627 0.0
C750 C 0.65529 0.86003 0.08414 0.0
C751 C 0.61814 0.7381 0.02222 0.0
H752 H 0.74724 0.78671 0.96521 0.0
H753 H 0.75595 0.79879 0.11471 0.0
H754 H 0.64702 0.76524 0.95001 0.0
H755 H 0.6608 0.80648 0.96219 0.0
H756 H 0.68882 0.7714 0.92091 0.0
H757 H 0.70269 0.79144 0.15707 0.0
H758 H 0.67092 0.82183 0.1544 0.0
H759 H 0.65785 0.77875 0.1256 0.0
H760 H 0.57993 0.86723 0.0874 0.0
H761 H 0.54854 0.76495 0.03644 0.0
H762 H 0.67208 0.85559 0.05055 0.0
H763 H 0.67511 0.85969 0.11242 0.0
H764 H 0.64242 0.88522 0.09904 0.0
H765 H 0.6234 0.72721 0.98157 0.0
H766 H 0.59471 0.72398 0.02836 0.0
H767 H 0.64402 0.73468 0.04012 0.0
C768 C 0.06995 0.98349 0.21201 0.0
C769 C 0.05963 0.9499 0.19072 0.0
C770 C 0.10803 0.99289 0.21852 0.0
C771 C 0.13625 0.96801 0.20462 0.0
C772 C 0.12581 0.93394 0.18217 0.0
C773 C 0.08757 0.92534 0.17569 0.0
C774 C 0.11729 0.02944 0.24212 0.0
C775 C 0.15497 0.90651 0.16664 0.0
C776 C 0.23984 0.97415 0.1831 0.0
C777 C 0.25489 0.97121 0.22393 0.0
C778 C 0.20078 0.97702 0.17874 0.0
C779 C 0.17664 0.97675 0.21599 0.0
C780 C 0.19215 0.97809 0.26014 0.0
C781 C 0.23121 0.97469 0.26324 0.0
C782 C 0.18518 0.97725 0.13231 0.0
C783 C 0.16729 0.98015 0.30215 0.0
H784 H 0.04818 1.0025 0.22405 0.0
H785 H 0.07948 0.89939 0.16066 0.0
H786 H 0.11393 0.03973 0.28306 0.0
H787 H 0.14642 0.03437 0.23373 0.0
H788 H 0.0972 0.04291 0.22937 0.0
H789 H 0.14219 0.88132 0.14753 0.0
H790 H 0.17595 0.90905 0.14117 0.0
H791 H 0.17043 0.9085 0.19992 0.0
H792 H 0.25823 0.97167 0.15279 0.0
H793 H 0.24298 0.97291 0.29518 0.0
H794 H 0.16214 0.99587 0.14195 0.0
H795 H 0.17308 0.95244 0.10782 0.0
H796 H 0.2073 0.98295 0.11114 0.0
H797 H 0.14562 0.99986 0.31112 0.0
H798 H 0.18375 0.9856 0.33638 0.0
H799 H 0.15234 0.95614 0.29052 0.0
C800 C 0.23637 0.55236 0.76798 0.0
C801 C 0.2211 0.56446 0.81588 0.0
C802 C 0.27535 0.54816 0.76025 0.0
C803 C 0.29967 0.55641 0.80155 0.0
C804 C 0.28421 0.56776 0.84994 0.0
C805 C 0.24499 0.57085 0.85629 0.0
C806 C 0.29038 0.53679 0.70818 0.0
C807 C 0.30873 0.57805 0.89558 0.0
C808 C 0.40124 0.52619 0.78452 0.0
C809 C 0.41916 0.55012 0.77458 0.0
C810 C 0.36253 0.52844 0.79505 0.0
C811 C 0.34118 0.55483 0.79414 0.0
C812 C 0.35969 0.57954 0.78518 0.0
C813 C 0.39836 0.57648 0.77464 0.0
C814 C 0.34589 0.50329 0.80954 0.0
C815 C 0.33972 0.61 0.78796 0.0
H816 H 0.21794 0.54739 0.73664 0.0
H817 H 0.23332 0.58042 0.89355 0.0
H818 H 0.30056 0.5586 0.7039 0.0
H819 H 0.31441 0.51959 0.70108 0.0
H820 H 0.26837 0.52442 0.67947 0.0
H821 H 0.29422 0.59666 0.92954 0.0
H822 H 0.31474 0.55592 0.90144 0.0
H823 H 0.33598 0.58877 0.89168 0.0
H824 H 0.41776 0.50631 0.78586 0.0
H825 H 0.41242 0.59503 0.76693 0.0
H826 H 0.31465 0.50291 0.80951 0.0
H827 H 0.35588 0.50876 0.84741 0.0
H828 H 0.3565 0.47818 0.78408 0.0
H829 H 0.33694 0.60777 0.74986 0.0
H830 H 0.357 0.63254 0.80963 0.0
H831 H 0.31137 0.61403 0.80537 0.0
C832 C 0.73667 0.70334 0.99553 0.0
C833 C 0.72309 0.68876 0.94668 0.0
C834 C 0.77528 0.70935 0.00513 0.0
C835 C 0.80084 0.7002 0.96472 0.0
C836 C 0.78707 0.68536 0.91519 0.0
C837 C 0.74823 0.68075 0.90694 0.0
C838 C 0.78858 0.72381 0.05839 0.0
C839 C 0.81289 0.67313 0.87036 0.0
C840 C 0.90003 0.73439 0.97504 0.0
C841 C 0.92014 0.71342 0.98906 0.0
C842 C 0.86107 0.73046 0.96703 0.0
C843 C 0.84195 0.70519 0.97409 0.0
C844 C 0.86274 0.68369 0.98788 0.0
C845 C 0.90157 0.68852 0.99598 0.0
C846 C 0.84183 0.75211 0.94763 0.0
C847 C 0.84541 0.65421 0.99148 0.0
H848 H 0.71721 0.70927 0.02624 0.0
H849 H 0.73789 0.66893 0.86894 0.0
H850 H 0.80016 0.70369 0.06593 0.0
H851 H 0.81122 0.74218 0.06515 0.0
H852 H 0.76528 0.7358 0.08533 0.0
H853 H 0.81558 0.69281 0.85805 0.0
H854 H 0.84147 0.66666 0.87828 0.0
H855 H 0.80087 0.65083 0.83866 0.0
H856 H 0.91503 0.75291 0.96818 0.0
H857 H 0.9178 0.67178 0.00554 0.0
H858 H 0.81064 0.7516 0.94927 0.0
H859 H 0.85052 0.74393 0.90837 0.0
H860 H 0.8516 0.77808 0.96889 0.0
H861 H 0.84579 0.65877 0.03094 0.0
H862 H 0.86287 0.63165 0.97024 0.0
H863 H 0.81612 0.64868 0.97728 0.0
C864 C 0.39149 0.68451 0.4133 0.0
C865 C 0.41259 0.71319 0.42381 0.0
C866 C 0.35231 0.68596 0.41893 0.0
C867 C 0.33388 0.71724 0.43883 0.0
C868 C 0.35496 0.74644 0.44972 0.0
C869 C 0.39413 0.74398 0.44168 0.0
C870 C 0.33083 0.65392 0.40463 0.0
C871 C 0.33681 0.78031 0.46951 0.0
C872 C 0.22789 0.71 0.42457 0.0
C873 C 0.21822 0.70408 0.4651 0.0
C874 C 0.26535 0.71674 0.41701 0.0
C875 C 0.2933 0.71874 0.45174 0.0
C876 C 0.28288 0.7163 0.49535 0.0
C877 C 0.24574 0.70784 0.50062 0.0
C878 C 0.2755 0.71919 0.37009 0.0
C879 C 0.31158 0.72041 0.53479 0.0
H880 H 0.40551 0.66086 0.40204 0.0
H881 H 0.41037 0.76627 0.44996 0.0
H882 H 0.30533 0.65312 0.38272 0.0
H883 H 0.34836 0.63161 0.38229 0.0
H884 H 0.32135 0.65243 0.43869 0.0
H885 H 0.33167 0.78625 0.43804 0.0
H886 H 0.30952 0.78167 0.48836 0.0
H887 H 0.35606 0.79976 0.49578 0.0
H888 H 0.20673 0.70723 0.39698 0.0
H889 H 0.23862 0.70297 0.53171 0.0
H890 H 0.29515 0.6987 0.34724 0.0
H891 H 0.29024 0.743 0.37966 0.0
H892 H 0.25031 0.71773 0.34725 0.0
H893 H 0.33004 0.69812 0.52118 0.0
H894 H 0.298 0.72359 0.56994 0.0
H895 H 0.32985 0.74229 0.5429 0.0
C896 C 0.74287 0.55549 0.26342 0.0
C897 C 0.71438 0.55888 0.29759 0.0
C898 C 0.78022 0.54941 0.27184 0.0
C899 C 0.78984 0.54963 0.3176 0.0
C900 C 0.76111 0.55206 0.35176 0.0
C901 C 0.72345 0.5558 0.3407 0.0
C902 C 0.80969 0.54435 0.23275 0.0
C903 C 0.77034 0.5527 0.40109 0.0
C904 C 0.8906 0.52496 0.32777 0.0
C905 C 0.90927 0.55533 0.34218 0.0
C906 C 0.85126 0.52277 0.32219 0.0
C907 C 0.83022 0.55174 0.33159 0.0
C908 C 0.84876 0.58282 0.34905 0.0
C909 C 0.88812 0.58408 0.35294 0.0
C910 C 0.83278 0.48936 0.30606 0.0
C911 C 0.82721 0.61466 0.36177 0.0
H912 H 0.7361 0.55827 0.23039 0.0
H913 H 0.70152 0.55862 0.36746 0.0
H914 H 0.82728 0.56706 0.24506 0.0
H915 H 0.82863 0.52337 0.2275 0.0
H916 H 0.79681 0.53907 0.1963 0.0
H917 H 0.74493 0.55686 0.42484 0.0
H918 H 0.7834 0.52872 0.39468 0.0
H919 H 0.79111 0.57268 0.42164 0.0
H920 H 0.90686 0.50272 0.31991 0.0
H921 H 0.90218 0.60745 0.36235 0.0
H922 H 0.80684 0.48676 0.28408 0.0
H923 H 0.82488 0.48654 0.33961 0.0
H924 H 0.85257 0.46878 0.28396 0.0
H925 H 0.81759 0.61511 0.32702 0.0
H926 H 0.84478 0.63711 0.38289 0.0
H927 H 0.80178 0.61613 0.38424 0.0
C928 C 0.58816 0.46959 0.23602 0.0
C929 C 0.56757 0.45744 0.19161 0.0
C930 C 0.6275 0.46683 0.23513 0.0
C931 C 0.64637 0.45082 0.18872 0.0
C932 C 0.62594 0.44044 0.14382 0.0
C933 C 0.58685 0.44515 0.14607 0.0
C934 C 0.64881 0.47952 0.28377 0.0
C935 C 0.6441 0.42283 0.09298 0.0
C936 C 0.75284 0.45611 0.19143 0.0
C937 C 0.76215 0.42957 0.20171 0.0
C938 C 0.71515 0.4623 0.18411 0.0
C939 C 0.68649 0.44191 0.18821 0.0
C940 C 0.69594 0.414 0.19558 0.0
C941 C 0.73359 0.40855 0.20326 0.0
C942 C 0.70595 0.48977 0.17037 0.0
C943 C 0.66627 0.38972 0.19495 0.0
H944 H 0.57344 0.47973 0.27142 0.0
H945 H 0.57143 0.43787 0.11173 0.0
H946 H 0.66476 0.45905 0.28598 0.0
H947 H 0.66966 0.49844 0.28583 0.0
H948 H 0.62994 0.49052 0.31666 0.0
H949 H 0.64268 0.43923 0.07444 0.0
H950 H 0.67394 0.41577 0.09394 0.0
H951 H 0.62794 0.39995 0.06938 0.0
H952 H 0.77497 0.47168 0.18835 0.0
H953 H 0.74062 0.38726 0.20936 0.0
H954 H 0.68662 0.50801 0.19851 0.0
H955 H 0.69101 0.4794 0.13416 0.0
H956 H 0.73166 0.50254 0.16674 0.0
H957 H 0.64827 0.40165 0.22867 0.0
H958 H 0.67889 0.36683 0.19394 0.0
H959 H 0.64769 0.38244 0.16197 0.0
C960 C 0.24545 0.30638 0.04966 0.0
C961 C 0.26317 0.32321 0.02611 0.0
C962 C 0.2067 0.29994 0.04375 0.0
C963 C 0.18566 0.3108 0.01392 0.0
C964 C 0.20406 0.32498 0.98649 0.0
C965 C 0.24277 0.33114 0.99305 0.0
C966 C 0.1878 0.2836 0.07197 0.0
C967 C 0.18251 0.33524 0.95241 0.0
C968 C 0.08439 0.28173 0.98861 0.0
C969 C 0.0657 0.30839 0.02717 0.0
C970 C 0.12344 0.28279 0.98202 0.0
C971 C 0.14412 0.31061 0.01582 0.0
C972 C 0.12517 0.3383 0.05307 0.0
C973 C 0.08604 0.33717 0.05738 0.0
C974 C 0.142 0.25383 0.93926 0.0
C975 C 0.14626 0.36907 0.08866 0.0
H976 H 0.26126 0.30017 0.07512 0.0
H977 H 0.25677 0.34346 0.97389 0.0
H978 H 0.16906 0.30184 0.10113 0.0
H979 H 0.16992 0.2626 0.04635 0.0
H980 H 0.20854 0.27411 0.09014 0.0
H981 H 0.20151 0.34343 0.93069 0.0
H982 H 0.16506 0.31419 0.92607 0.0
H983 H 0.16304 0.35601 0.97471 0.0
H984 H 0.06857 0.25997 0.96369 0.0
H985 H 0.07158 0.3591 0.08421 0.0
H986 H 0.1722 0.25776 0.93391 0.0
H987 H 0.1268 0.24838 0.90419 0.0
H988 H 0.13969 0.23176 0.94596 0.0
H989 H 0.16673 0.36242 0.1106 0.0
H990 H 0.1271 0.3887 0.11497 0.0
H991 H 0.16257 0.37951 0.06752 0.0
C992 C 0.5695 0.2996 0.58194 0.0
C993 C 0.5522 0.30043 0.54071 0.0
C994 C 0.60838 0.29408 0.58211 0.0
C995 C 0.63006 0.28881 0.53968 0.0
C996 C 0.61203 0.2863 0.49619 0.0
C997 C 0.57312 0.29201 0.49715 0.0
C998 C 0.62657 0.29708 0.62929 0.0
C999 C 0.63431 0.28034 0.45011 0.0
C1000 C 0.72658 0.32751 0.55834 0.0
C1001 C 0.75027 0.30007 0.54641 0.0
C1002 C 0.68745 0.3242 0.55812 0.0
C1003 C 0.67158 0.29235 0.54377 0.0
C1004 C 0.69532 0.26447 0.53199 0.0
C1005 C 0.73463 0.26889 0.5347 0.0
C1006 C 0.66313 0.35481 0.57255 0.0
C1007 C 0.67925 0.23009 0.51567 0.0
H1008 H 0.55296 0.30455 0.61484 0.0
H1009 H 0.55957 0.29199 0.46485 0.0
H1010 H 0.64822 0.27748 0.6209 0.0
H1011 H 0.64099 0.32152 0.64829 0.0
H1012 H 0.60552 0.29539 0.65543 0.0
H1013 H 0.61582 0.27712 0.41849 0.0
H1014 H 0.65338 0.3017 0.45822 0.0
H1015 H 0.65224 0.25789 0.43873 0.0
H1016 H 0.73873 0.35182 0.56848 0.0
H1017 H 0.75302 0.24787 0.526 0.0
H1018 H 0.64301 0.35737 0.60236 0.0
H1019 H 0.6463 0.35236 0.54002 0.0
H1020 H 0.68009 0.37798 0.58599 0.0
H1021 H 0.66203 0.22954 0.54606 0.0
H1022 H 0.70165 0.21081 0.50522 0.0
H1023 H 0.66025 0.22355 0.4833 0.0
C1024 C 0.07115 0.46641 0.71689 0.0
C1025 C 0.06268 0.43235 0.69406 0.0
C1026 C 0.10868 0.47743 0.72238 0.0
C1027 C 0.13824 0.45371 0.70596 0.0
C1028 C 0.12965 0.41923 0.68242 0.0
C1029 C 0.09192 0.409 0.67682 0.0
C1030 C 0.11648 0.51432 0.74707 0.0
C1031 C 0.16033 0.39303 0.66449 0.0
C1032 C 0.23949 0.46515 0.67923 0.0
C1033 C 0.25745 0.46321 0.71925 0.0
C1034 C 0.20001 0.46591 0.67694 0.0
C1035 C 0.17835 0.46417 0.7152 0.0
C1036 C 0.19649 0.46608 0.75829 0.0
C1037 C 0.23598 0.4654 0.75967 0.0
C1038 C 0.18162 0.46525 0.63132 0.0
C1039 C 0.17433 0.46538 0.80065 0.0
H1040 H 0.04838 0.48443 0.73064 0.0
H1041 H 0.0853 0.38268 0.66054 0.0
H1042 H 0.12355 0.5225 0.78677 0.0
H1043 H 0.14078 0.52035 0.72933 0.0
H1044 H 0.09154 0.52882 0.74562 0.0
H1045 H 0.14874 0.36737 0.64592 0.0
H1046 H 0.17915 0.39657 0.6378 0.0
H1047 H 0.1779 0.39547 0.69647 0.0
H1048 H 0.25608 0.46336 0.64782 0.0
H1049 H 0.25 0.46431 0.79091 0.0
H1050 H 0.15642 0.48167 0.64177 0.0
H1051 H 0.17209 0.43954 0.60648 0.0
H1052 H 0.20143 0.47319 0.61012 0.0
H1053 H 0.15045 0.4832 0.8113 0.0
H1054 H 0.19218 0.47157 0.83401 0.0
H1055 H 0.16235 0.44013 0.78851 0.0
C1056 C 0.02932 0.15274 0.26562 0.0
C1057 C 0.05806 0.13474 0.27471 0.0
C1058 C 0.02467 0.15107 0.21819 0.0
C1059 C 0.04962 0.13121 0.17923 0.0
C1060 C 0.07799 0.11231 0.18785 0.0
C1061 C 0.08182 0.11429 0.23539 0.0
C1062 C -0.00617 0.17129 0.2102 0.0
C1063 C 0.10529 0.09089 0.14736 0.0
C1064 C 0.03093 0.10432 0.04234 0.0
C1065 C 0.05425 0.12621 0.03333 0.0
C1066 C 0.02738 0.10682 0.09037 0.0
C1067 C 0.04794 0.13155 0.13015 0.0
C1068 C 0.07009 0.15468 0.12179 0.0
C1069 C 0.07285 0.15181 0.07355 0.0
C1070 C 0.00312 0.08197 0.09802 0.0
C1071 C 0.09254 0.18137 0.16326 0.0
H1072 H 0.01085 0.16863 0.29574 0.0
H1073 H 0.10434 0.10051 0.24202 0.0
H1074 H 0.00655 0.19143 0.20355 0.0
H1075 H 0.97705 0.15545 0.17669 0.0
H1076 H 0.97452 0.18276 0.24273 0.0
H1077 H 0.12445 0.07641 0.15948 0.0
H1078 H 0.08968 0.07324 0.11389 0.0
H1079 H 0.12271 0.10684 0.13612 0.0
H1080 H 0.01635 0.0845 0.01165 0.0
H1081 H 0.09077 0.16899 0.06715 0.0
H1082 H 0.9845 0.09485 0.13093 0.0
H1083 H 0.02139 0.06468 0.1054 0.0
H1084 H 0.98535 0.06707 0.06498 0.0
H1085 H 0.07416 0.19566 0.19591 0.0
H1086 H 0.10592 0.199 0.15153 0.0
H1087 H 0.11505 0.16962 0.17558 0.0
C1088 C 0.93744 0.874 0.96733 0.0
C1089 C 0.91199 0.85244 0.97394 0.0
C1090 C 0.93924 0.87593 0.92205 0.0
C1091 C 0.9151 0.85576 0.88237 0.0
C1092 C 0.89042 0.83306 0.88814 0.0
C1093 C 0.88908 0.83178 0.9338 0.0
C1094 C 0.96598 0.90041 0.91729 0.0
C1095 C 0.86438 0.81093 0.84666 0.0
C1096 C 0.88559 0.88424 0.78646 0.0
C1097 C 0.90813 0.86416 0.74538 0.0
C1098 C 0.88826 0.88227 0.83157 0.0
C1099 C 0.91398 0.85959 0.83577 0.0
C1100 C 0.93734 0.83971 0.79483 0.0
C1101 C 0.9342 0.84228 0.75017 0.0
C1102 C 0.86298 0.90404 0.87447 0.0
C1103 C 0.96505 0.8152 0.79784 0.0
H1104 H 0.95524 0.89014 0.998 0.0
H1105 H 0.86919 0.81516 0.93833 0.0
H1106 H 0.98372 0.88771 0.88344 0.0
H1107 H 0.94962 0.92 0.91308 0.0
H1108 H 0.98474 0.91257 0.9502 0.0
H1109 H 0.84884 0.79302 0.85587 0.0
H1110 H 0.84352 0.82646 0.83909 0.0
H1111 H 0.88063 0.79674 0.81183 0.0
H1112 H 0.86556 0.90139 0.78332 0.0
H1113 H 0.95183 0.82671 0.71874 0.0
H1114 H 0.88017 0.91881 0.9081 0.0
H1115 H 0.84368 0.88826 0.88375 0.0
H1116 H 0.84574 0.92143 0.86592 0.0
H1117 H 0.98409 0.828 0.83021 0.0
H1118 H 0.98248 0.80277 0.76357 0.0
H1119 H 0.9496 0.79582 0.80366 0.0
C1120 C 0.04089 0.6183 0.54903 0.0
C1121 C 0.06762 0.63862 0.54155 0.0
C1122 C 0.03758 0.61783 0.59529 0.0
C1123 C 0.06173 0.63798 0.63497 0.0
C1124 C 0.08784 0.65937 0.62817 0.0
C1125 C 0.09037 0.65952 0.58171 0.0
C1126 C 0.00907 0.59497 0.60118 0.0
C1127 C 0.11418 0.68123 0.66945 0.0
C1128 C 0.04279 0.65603 0.76954 0.0
C1129 C 0.06799 0.63403 0.77555 0.0
C1130 C 0.03935 0.65681 0.72349 0.0
C1131 C 0.06169 0.63515 0.68251 0.0
C1132 C 0.08591 0.61193 0.68779 0.0
C1133 C 0.08865 0.61157 0.73406 0.0
C1134 C 0.01289 0.68167 0.71924 0.0
C1135 C 0.11017 0.5883 0.64508 0.0
H1136 H 0.02296 0.60222 0.51843 0.0
H1137 H 0.11107 0.67539 0.5765 0.0
H1138 H 0.02395 0.57502 0.60621 0.0
H1139 H -0.0084 0.60891 0.63494 0.0
H1140 H -0.00987 0.58319 0.56839 0.0
H1141 H 0.1314 0.69777 0.65912 0.0
H1142 H 0.0979 0.69687 0.70364 0.0
H1143 H 0.13354 0.66545 0.67869 0.0
H1144 H 0.02657 0.67341 0.80121 0.0
H1145 H 0.10789 0.59421 0.73797 0.0
H1146 H -0.00558 0.66917 0.68616 0.0
H1147 H 0.02945 0.70074 0.71399 0.0
H1148 H -0.00513 0.69447 0.75286 0.0
H1149 H 0.09251 0.57391 0.61179 0.0
H1150 H 0.12591 0.57053 0.65443 0.0
H1151 H 0.13082 0.60269 0.63484 0.0
C1152 C 0.89246 0.31886 0.43368 0.0
C1153 C 0.91869 0.33453 0.47229 0.0
C1154 C 0.89492 0.32184 0.38931 0.0
C1155 C 0.92479 0.34035 0.38274 0.0
C1156 C 0.95276 0.35434 0.42011 0.0
C1157 C 0.94927 0.35143 0.46454 0.0
C1158 C 0.86436 0.30665 0.35058 0.0
C1159 C 0.98529 0.37395 0.41436 0.0
C1160 C 0.93815 0.3333 0.25242 0.0
C1161 C 0.91782 0.3611 0.25606 0.0
C1162 C 0.94153 0.32654 0.29361 0.0
C1163 C 0.92427 0.34812 0.33949 0.0
C1164 C 0.90471 0.3767 0.3437 0.0
C1165 C 0.90176 0.38282 0.3021 0.0
C1166 C 0.96274 0.2959 0.28773 0.0
C1167 C 0.8858 0.40037 0.39183 0.0
H1168 H 0.86881 0.30553 0.43897 0.0
H1169 H 0.96988 0.36336 0.49382 0.0
H1170 H 0.85063 0.32618 0.34333 0.0
H1171 H 0.87692 0.28822 0.31496 0.0
H1172 H 0.84227 0.29412 0.36222 0.0
H1173 H 0.00706 0.37958 0.44361 0.0
H1174 H -0.00127 0.36009 0.37727 0.0
H1175 H 0.97465 0.39782 0.41679 0.0
H1176 H 0.9507 0.31637 0.2171 0.0
H1177 H 0.88616 0.40448 0.30558 0.0
H1178 H 0.94293 0.2782 0.29172 0.0
H1179 H 0.98426 0.30264 0.31748 0.0
H1180 H 0.97696 0.28304 0.25093 0.0
H1181 H 0.86344 0.38707 0.40155 0.0
H1182 H 0.87281 0.42208 0.38948 0.0
H1183 H 0.90656 0.40968 0.42271 0.0
C1184 C 0.59221 0.1499 0.52702 0.0
C1185 C 0.57071 0.12814 0.48603 0.0
C1186 C 0.58836 0.15045 0.57385 0.0
C1187 C 0.56225 0.12883 0.58011 0.0
C1188 C 0.53962 0.10755 0.53936 0.0
C1189 C 0.54415 0.10742 0.49284 0.0
C1190 C 0.61306 0.17355 0.61628 0.0
C1191 C 0.51127 0.08433 0.54459 0.0
C1192 C 0.5842 0.10634 0.68482 0.0
C1193 C 0.5613 0.12875 0.72367 0.0
C1194 C 0.58396 0.10548 0.6376 0.0
C1195 C 0.5601 0.12745 0.62868 0.0
C1196 C 0.53576 0.14917 0.66701 0.0
C1197 C 0.53669 0.14961 0.71404 0.0
C1198 C 0.61032 0.08188 0.5978 0.0
C1199 C 0.50966 0.17275 0.65886 0.0
H1200 H 0.61275 0.16609 0.52236 0.0
H1201 H 0.52724 0.09063 0.46156 0.0
H1202 H 0.59545 0.18944 0.64896 0.0
H1203 H 0.632 0.15874 0.62796 0.0
H1204 H 0.63066 0.1899 0.60597 0.0
H1205 H 0.4941 0.07097 0.51037 0.0
H1206 H 0.52614 0.06564 0.55269 0.0
H1207 H 0.49202 0.09841 0.57636 0.0
H1208 H 0.60327 0.09001 0.69163 0.0
H1209 H 0.51878 0.16695 0.74364 0.0
H1210 H 0.63145 0.09632 0.58836 0.0
H1211 H 0.59439 0.0664 0.56329 0.0
H1212 H 0.62554 0.06513 0.60974 0.0
H1213 H 0.52651 0.19141 0.65294 0.0
H1214 H 0.4904 0.18613 0.69098 0.0
H1215 H 0.49245 0.15899 0.62487 0.0
C1216 C 0.39193 0.92531 0.32382 0.0
C1217 C 0.41474 0.90696 0.28211 0.0
C1218 C 0.39545 0.92198 0.36768 0.0
C1219 C 0.42248 0.89966 0.37018 0.0
C1220 C 0.44649 0.88177 0.32891 0.0
C1221 C 0.44231 0.88559 0.28527 0.0
C1222 C 0.36925 0.94157 0.41079 0.0
C1223 C 0.47585 0.85794 0.33038 0.0
C1224 C 0.44349 0.91211 0.50121 0.0
C1225 C 0.41905 0.88893 0.50525 0.0
C1226 C 0.44626 0.91487 0.45667 0.0
C1227 C 0.42396 0.89405 0.41524 0.0
C1228 C 0.40035 0.86975 0.41848 0.0
C1229 C 0.39822 0.86745 0.46336 0.0
C1230 C 0.47193 0.94095 0.4546 0.0
C1231 C 0.37607 0.84708 0.37517 0.0
H1232 H 0.37036 0.94166 0.32188 0.0
H1233 H 0.46016 0.87134 0.25336 0.0
H1234 H 0.35087 0.92423 0.4179 0.0
H1235 H 0.38575 0.95604 0.4452 0.0
H1236 H 0.35101 0.95905 0.40372 0.0
H1237 H 0.49413 0.84781 0.29672 0.0
H1238 H 0.4939 0.87055 0.36385 0.0
H1239 H 0.46175 0.83686 0.33316 0.0
H1240 H 0.45993 0.92866 0.5332 0.0
H1241 H 0.37945 0.84928 0.4659 0.0
H1242 H 0.45471 0.96069 0.452 0.0
H1243 H 0.49006 0.92984 0.4209 0.0
H1244 H 0.49028 0.95271 0.488 0.0
H1245 H 0.35438 0.86203 0.3677 0.0
H1246 H 0.36155 0.82782 0.38237 0.0
H1247 H 0.39344 0.83446 0.34097 0.0
C1248 C 0.58507 0.64099 0.01997 0.0
C1249 C 0.56563 0.61891 0.9771 0.0
C1250 C 0.57994 0.64037 0.06567 0.0
C1251 C 0.55432 0.61736 0.06899 0.0
C1252 C 0.53294 0.59629 0.02667 0.0
C1253 C 0.53896 0.5972 0.98107 0.0
C1254 C 0.60337 0.66331 0.10982 0.0
C1255 C 0.50485 0.57188 0.02903 0.0
C1256 C 0.58085 0.59292 0.16984 0.0
C1257 C 0.55935 0.61535 0.21034 0.0
C1258 C 0.57794 0.59207 0.12282 0.0
C1259 C 0.55256 0.61389 0.11584 0.0
C1260 C 0.52894 0.635 0.15562 0.0
C1261 C 0.53279 0.63566 0.20253 0.0
C1262 C 0.6038 0.56927 0.08148 0.0
C1263 C 0.50099 0.65814 0.14937 0.0
H1264 H 0.60536 0.65821 0.01764 0.0
H1265 H 0.52357 0.58022 0.94829 0.0
H1266 H 0.58491 0.67793 0.14223 0.0
H1267 H 0.62265 0.64835 0.12082 0.0
H1268 H 0.62058 0.68089 0.1017 0.0
H1269 H 0.48694 0.56058 0.99514 0.0
H1270 H 0.52009 0.55162 0.03279 0.0
H1271 H 0.48634 0.58429 0.06218 0.0
H1272 H 0.60133 0.57699 0.17533 0.0
H1273 H 0.51571 0.65281 0.23341 0.0
H1274 H 0.62451 0.58439 0.07281 0.0
H1275 H 0.58746 0.55452 0.04706 0.0
H1276 H 0.61954 0.55186 0.09159 0.0
H1277 H 0.51636 0.67872 0.14669 0.0
H1278 H 0.48093 0.66911 0.18114 0.0
H1279 H 0.48473 0.64479 0.1144 0.0
C1280 C 0.44854 0.38022 0.76983 0.0
C1281 C 0.42161 0.4023 0.76736 0.0
C1282 C 0.45354 0.37698 0.8138 0.0
C1283 C 0.4309 0.3961 0.856 0.0
C1284 C 0.40513 0.41961 0.85446 0.0
C1285 C 0.40088 0.42244 0.81031 0.0
C1286 C 0.4817 0.35198 0.81428 0.0
C1287 C 0.38034 0.4405 0.89856 0.0
C1288 C 0.40072 0.36315 0.94594 0.0
C1289 C 0.42125 0.38349 0.98887 0.0
C1290 C 0.40511 0.36586 0.90167 0.0
C1291 C 0.43086 0.38935 0.90002 0.0
C1292 C 0.45327 0.40862 0.94226 0.0
C1293 C 0.44812 0.40555 0.98631 0.0
C1294 C 0.38059 0.34483 0.85751 0.0
C1295 C 0.48136 0.43362 0.94169 0.0
H1296 H 0.46489 0.36467 0.737 0.0
H1297 H 0.37998 0.43954 0.80904 0.0
H1298 H 0.49905 0.36313 0.84863 0.0
H1299 H 0.46647 0.33047 0.81424 0.0
H1300 H 0.50075 0.34264 0.78137 0.0
H1301 H 0.36398 0.45946 0.89265 0.0
H1302 H 0.36019 0.42416 0.90539 0.0
H1303 H 0.39765 0.4534 0.93267 0.0
H1304 H 0.38013 0.34578 0.94728 0.0
H1305 H 0.46438 0.42114 0.01913 0.0
H1306 H 0.39811 0.33183 0.82354 0.0
H1307 H 0.36048 0.36108 0.85037 0.0
H1308 H 0.3642 0.32594 0.86354 0.0
H1309 H 0.49887 0.42242 0.90741 0.0
H1310 H 0.50026 0.44309 0.97467 0.0
H1311 H 0.46606 0.45507 0.94153 0.0
C1312 C 0.28016 0.33418 0.60454 0.0
C1313 C 0.31062 0.33218 0.57359 0.0
C1314 C 0.25015 0.31173 0.58665 0.0
C1315 C 0.25018 0.28746 0.53621 0.0
C1316 C 0.2806 0.2857 0.50451 0.0
C1317 C 0.31095 0.3078 0.52393 0.0
C1318 C 0.21896 0.3135 0.62204 0.0
C1319 C 0.28084 0.26077 0.45007 0.0
C1320 C 0.19184 0.20941 0.49687 0.0
C1321 C 0.15898 0.21794 0.47951 0.0
C1322 C 0.22151 0.23212 0.51644 0.0
C1323 C 0.21859 0.26357 0.51687 0.0
C1324 C 0.18545 0.27228 0.4992 0.0
C1325 C 0.15565 0.24946 0.48145 0.0
C1326 C 0.25586 0.2225 0.53671 0.0
C1327 C 0.18178 0.3054 0.49824 0.0
H1328 H 0.28021 0.35293 0.64317 0.0
H1329 H 0.33446 0.30658 0.50006 0.0
H1330 H 0.19105 0.31518 0.60674 0.0
H1331 H 0.21899 0.29036 0.62652 0.0
H1332 H 0.22213 0.33513 0.65938 0.0
H1333 H 0.28102 0.23509 0.4462 0.0
H1334 H 0.2548 0.26351 0.43178 0.0
H1335 H 0.30571 0.2638 0.42999 0.0
H1336 H 0.19417 0.18501 0.49555 0.0
H1337 H 0.13028 0.25581 0.46749 0.0
H1338 H 0.2611 0.24134 0.5757 0.0
H1339 H 0.28115 0.22191 0.5146 0.0
H1340 H 0.25275 0.19772 0.53591 0.0
H1341 H 0.18349 0.326 0.53663 0.0
H1342 H 0.15476 0.3077 0.48138 0.0
H1343 H 0.20548 0.30865 0.47669 0.0
C1344 C 0.97119 0.95034 0.52465 0.0
C1345 C 0.96096 0.95788 0.57352 0.0
C1346 C 0.98397 0.97533 0.51265 0.0
C1347 C 0.98548 0.00878 0.55023 0.0
C1348 C 0.97517 0.01648 0.59973 0.0
C1349 C 0.96364 0.9908 0.6109 0.0
C1350 C -0.00462 0.96599 0.4596 0.0
C1351 C 0.97583 0.05181 0.64079 0.0
C1352 C 0.04868 0.06663 0.52339 0.0
C1353 C 0.02326 0.08015 0.50177 0.0
C1354 C 0.03662 0.04405 0.54064 0.0
C1355 C -0.00202 0.03548 0.53738 0.0
C1356 C 0.97176 0.05085 0.51872 0.0
C1357 C 0.9848 0.0728 0.50061 0.0
C1358 C 0.06552 0.02811 0.55996 0.0
C1359 C 0.93015 0.04313 0.51613 0.0
H1360 H 0.96837 0.92501 0.49556 0.0
H1361 H 0.9558 0.99656 0.64879 0.0
H1362 H 0.97639 0.97835 0.44376 0.0
H1363 H 0.02447 0.9748 0.45867 0.0
H1364 H -0.00571 0.93868 0.4354 0.0
H1365 H 0.96174 0.0541 0.67518 0.0
H1366 H 0.00546 0.06027 0.64999 0.0
H1367 H 0.96168 0.06886 0.62858 0.0
H1368 H 0.07836 0.07286 0.52524 0.0
H1369 H 0.96511 0.08315 0.48376 0.0
H1370 H 0.0666 1.00092 0.53512 0.0
H1371 H 0.0574 0.03153 0.59756 0.0
H1372 H 0.09422 0.03855 0.56202 0.0
H1373 H 0.92522 0.01697 0.48818 0.0
H1374 H 0.91311 0.0597 0.50564 0.0
H1375 H 0.92 0.04573 0.55261 0.0
C1376 C 0.29836 0.93493 0.74405 0.0
C1377 C 0.3254 0.94923 0.72566 0.0
C1378 C 0.26586 0.95252 0.76806 0.0
C1379 C 0.25977 0.98464 0.772 0.0
C1380 C 0.28734 0.99942 0.75416 0.0
C1381 C 0.3203 0.98164 0.73184 0.0
C1382 C 0.23777 0.93648 0.78832 0.0
C1383 C 0.28129 0.03336 0.75674 0.0
C1384 C 0.15885 0.01532 0.78416 0.0
C1385 C 0.15814 0.0395 0.83393 0.0
C1386 C 0.19184 0.99703 0.7634 0.0
C1387 C 0.22417 1.00251 0.79383 0.0
C1388 C 0.22278 0.02569 0.84483 0.0
C1389 C 0.18991 0.04436 0.86408 0.0
C1390 C 0.19265 0.97295 0.70855 0.0
C1391 C 0.25619 0.03125 0.87882 0.0
H1392 H 0.30255 0.90979 0.73922 0.0
H1393 H 0.34113 0.99237 0.71693 0.0
H1394 H 0.23072 0.95371 0.82761 0.0
H1395 H 0.2112 0.93112 0.76664 0.0
H1396 H 0.24858 0.91282 0.78656 0.0
H1397 H 0.30541 0.04118 0.7409 0.0
H1398 H 0.25534 0.03313 0.73597 0.0
H1399 H 0.27709 0.05226 0.79594 0.0
H1400 H 0.13429 0.01196 0.7609 0.0
H1401 H 0.1891 0.06305 0.90273 0.0
H1402 H 0.20026 0.94764 0.70312 0.0
H1403 H 0.2146 0.9807 0.68959 0.0
H1404 H 0.16509 0.97158 0.69016 0.0
H1405 H 0.26654 0.00712 0.8757 0.0
H1406 H 0.2492 0.04783 0.91844 0.0
H1407 H 0.27968 0.04263 0.86751 0.0
C1408 C 0.95523 0.2793 0.73454 0.0
C1409 C 0.94214 0.26578 0.68542 0.0
C1410 C 0.96803 0.25863 0.75499 0.0
C1411 C 0.96736 0.22361 0.72566 0.0
C1412 C 0.95361 0.20983 0.67621 0.0
C1413 C 0.94142 0.23113 0.65656 0.0
C1414 C 0.98252 0.27426 0.80787 0.0
C1415 C 0.95232 0.17265 0.64382 0.0
C1416 C 0.03556 0.17448 0.76403 0.0
C1417 C 0.0122 0.16415 0.79193 0.0
C1418 C 0.0211 0.19311 0.74114 0.0
C1419 C 0.98231 0.20157 0.74634 0.0
C1420 C 0.95831 0.19015 0.77307 0.0
C1421 C 0.9736 0.17152 0.79562 0.0
C1422 C 0.04754 0.20455 0.71261 0.0
C1423 C 0.91676 0.19843 0.77905 0.0
H1424 H 0.95525 0.30608 0.75707 0.0
H1425 H 0.93178 0.22067 0.6183 0.0
H1426 H 0.96615 0.26496 0.83046 0.0
H1427 H 0.01241 0.26704 0.80833 0.0
H1428 H 0.98066 0.30187 0.8259 0.0
H1429 H 0.93658 0.16592 0.60866 0.0
H1430 H 0.98148 0.16279 0.63438 0.0
H1431 H 0.93883 0.16009 0.66405 0.0
H1432 H 0.06538 0.16843 0.76087 0.0
H1433 H 0.95564 0.16363 0.81748 0.0
H1434 H 0.04868 0.23215 0.73077 0.0
H1435 H 0.03696 0.19633 0.67415 0.0
H1436 H 0.07665 0.19482 0.71055 0.0
H1437 H 0.91293 0.22572 0.80101 0.0
H1438 H 0.90155 0.18589 0.79816 0.0
H1439 H 0.90361 0.191 0.74209 0.0
C1440 C 0.80265 0.80584 0.49013 0.0
C1441 C 0.82857 0.79661 0.51669 0.0
C1442 C 0.77281 0.78477 0.4643 0.0
C1443 C 0.76802 0.75444 0.467 0.0
C1444 C 0.79496 0.7445 0.49245 0.0
C1445 C 0.8254 0.7656 0.51645 0.0
C1446 C 0.74559 0.79558 0.43582 0.0
C1447 C 0.7903 0.7127 0.4971 0.0
C1448 C 0.66715 0.72361 0.45509 0.0
C1449 C 0.66757 0.69663 0.40745 0.0
C1450 C 0.69994 0.74231 0.47523 0.0
C1451 C 0.73342 0.73442 0.44625 0.0
C1452 C 0.73361 0.70776 0.39753 0.0
C1453 C 0.7008 0.68884 0.37901 0.0
C1454 C 0.69899 0.77004 0.52789 0.0
C1455 C 0.76838 0.69925 0.36496 0.0
H1456 H 0.80533 0.82994 0.49048 0.0
H1457 H 0.84531 0.75883 0.53769 0.0
H1458 H 0.74068 0.77496 0.39803 0.0
H1459 H 0.71798 0.802 0.45532 0.0
H1460 H 0.75601 0.81761 0.43213 0.0
H1461 H 0.81474 0.70774 0.51586 0.0
H1462 H 0.76441 0.71436 0.5189 0.0
H1463 H 0.78673 0.69118 0.45986 0.0
H1464 H 0.64157 0.72932 0.47725 0.0
H1465 H 0.70105 0.66797 0.34201 0.0
H1466 H 0.70511 0.79419 0.52793 0.0
H1467 H 0.72116 0.76589 0.55051 0.0
H1468 H 0.67122 0.77195 0.54618 0.0
H1469 H 0.77819 0.72153 0.36156 0.0
H1470 H 0.76319 0.67882 0.32702 0.0
H1471 H 0.79162 0.69157 0.38217 0.0
C1472 C 0.69377 0.04438 0.30828 0.0
C1473 C 0.66284 0.04275 0.27832 0.0
C1474 C 0.72326 0.0213 0.28974 0.0
C1475 C 0.72237 0.99673 0.23948 0.0
C1476 C 0.69123 0.99505 0.20888 0.0
C1477 C 0.66136 0.01782 0.22904 0.0
C1478 C 0.75523 0.02312 0.32406 0.0
C1479 C 0.68989 0.96974 0.15468 0.0
C1480 C 0.81712 0.95919 0.18297 0.0
C1481 C 0.81475 0.92784 0.18181 0.0
C1482 C 0.78683 0.98166 0.20068 0.0
C1483 C 0.75414 0.97285 0.21918 0.0
C1484 C 0.75218 0.94156 0.21943 0.0
C1485 C 0.78229 0.91918 0.1999 0.0
C1486 C 0.78941 0.01444 0.1985 0.0
C1487 C 0.71836 0.93172 0.24038 0.0
H1488 H 0.69461 0.06351 0.34663 0.0
H1489 H 0.63748 0.01683 0.20592 0.0
H1490 H 0.75861 0.99877 0.32455 0.0
H1491 H 0.78211 0.02849 0.31027 0.0
H1492 H 0.75056 0.04266 0.36285 0.0
H1493 H 0.66424 0.97245 0.13562 0.0
H1494 H 0.71517 0.97241 0.135 0.0
H1495 H 0.69044 0.94418 0.15127 0.0
H1496 H 0.84201 0.96559 0.16816 0.0
H1497 H 0.78054 0.89485 0.1989 0.0
H1498 H 0.78756 0.03539 0.23658 0.0
H1499 H 0.76531 0.01696 0.17691 0.0
H1500 H 0.81611 0.01685 0.18104 0.0
H1501 H 0.71292 0.95081 0.27919 0.0
H1502 H 0.72227 0.9072 0.24025 0.0
H1503 H 0.69287 0.9304 0.21824 0.0
C1504 C 0.95907 0.75011 0.15912 0.0
C1505 C 0.95416 0.78456 0.1872 0.0
C1506 C 0.97301 0.73063 0.18111 0.0
C1507 C 0.98242 0.74608 0.23242 0.0
C1508 C 0.97772 0.78094 0.2608 0.0
C1509 C 0.9635 0.79971 0.23787 0.0
C1510 C 0.97759 0.69358 0.14944 0.0
C1511 C 0.98751 0.79842 0.31552 0.0
C1512 C 0.98623 0.69572 0.30543 0.0
C1513 C 0.02516 0.69137 0.30815 0.0
C1514 C 0.97185 0.71279 0.27989 0.0
C1515 C -0.00294 0.72594 0.25672 0.0
C1516 C 0.03639 0.72101 0.25857 0.0
C1517 C 0.04993 0.70368 0.28411 0.0
C1518 C 0.92973 0.7173 0.27851 0.0
C1519 C 0.06422 0.73455 0.23433 0.0
H1520 H 0.95189 0.73838 0.11989 0.0
H1521 H 0.95915 0.82627 0.25979 0.0
H1522 H 0.00785 0.68672 0.14724 0.0
H1523 H 0.96243 0.67982 0.16665 0.0
H1524 H 0.96679 0.68519 0.11098 0.0
H1525 H 0.98289 0.82574 0.33206 0.0
H1526 H 0.97008 0.78834 0.33621 0.0
H1527 H 0.01749 0.79374 0.32093 0.0
H1528 H 0.96703 0.68634 0.32417 0.0
H1529 H 0.08001 0.69977 0.2853 0.0
H1530 H 0.92009 0.70789 0.2394 0.0
H1531 H 0.92258 0.74418 0.29819 0.0
H1532 H 0.91387 0.70416 0.29619 0.0
H1533 H 0.05763 0.72489 0.19416 0.0
H1534 H 0.09382 0.72786 0.23807 0.0
H1535 H 0.06189 0.76208 0.25149 0.0
C1536 C 0.31694 0.81262 0.03156 0.0
C1537 C 0.31305 0.83864 0.07978 0.0
C1538 C 0.28812 0.78903 0.01022 0.0
C1539 C 0.25543 0.79097 0.03858 0.0
C1540 C 0.25151 0.81719 0.08739 0.0
C1541 C 0.28014 0.84101 0.10709 0.0
C1542 C 0.2926 0.76209 0.95737 0.0
C1543 C 0.21759 0.8196 0.11933 0.0
C1544 C 0.1656 0.7459 0.97554 0.0
C1545 C 0.16953 0.71596 0.97861 0.0
C1546 C 0.19378 0.77034 0.994 0.0
C1547 C 0.22574 0.76509 0.01778 0.0
C1548 C 0.22924 0.73519 0.02213 0.0
C1549 C 0.2014 0.71063 0.00148 0.0
C1550 C 0.18974 0.8014 0.98716 0.0
C1551 C 0.26218 0.72926 0.04891 0.0
H1552 H 0.34228 0.81098 0.01034 0.0
H1553 H 0.27724 0.86102 0.1446 0.0
H1554 H 0.29405 0.73738 0.95695 0.0
H1555 H 0.2677 0.76185 0.93486 0.0
H1556 H 0.31844 0.76549 0.93925 0.0
H1557 H 0.21907 0.84144 0.1567 0.0
H1558 H 0.19134 0.82152 0.10078 0.0
H1559 H 0.21538 0.79668 0.12422 0.0
H1560 H 0.14107 0.7497 0.9572 0.0
H1561 H 0.2042 0.68743 0.0039 0.0
H1562 H 0.2147 0.80417 0.96704 0.0
H1563 H 0.18865 0.82371 0.02392 0.0
H1564 H 0.16392 0.80098 0.96599 0.0
H1565 H 0.2889 0.72892 0.02949 0.0
H1566 H 0.25968 0.70537 0.05111 0.0
H1567 H 0.26422 0.74987 0.0873 0.0
C1568 C 0.03065 0.53589 0.96183 0.0
C1569 C 0.03911 0.56931 0.99301 0.0
C1570 C 0.01571 0.51531 0.98123 0.0
C1571 C 0.00884 0.52856 0.0331 0.0
C1572 C 0.01745 0.56236 0.06481 0.0
C1573 C 0.03274 0.58228 0.04437 0.0
C1574 C 0.00709 0.4794 0.94614 0.0
C1575 C 0.0104 0.57751 0.12025 0.0
C1576 C 0.93738 0.48207 0.07265 0.0
C1577 C 0.96083 0.46287 0.087 0.0
C1578 C 0.95262 0.50419 0.05624 0.0
C1579 C -0.00769 0.507 0.05384 0.0
C1580 C 0.01611 0.48807 0.0692 0.0
C1581 C 5e-05 0.4663 0.08572 0.0
C1582 C 0.92626 0.52398 0.0404 0.0
C1583 C 0.05852 0.49034 0.06724 0.0
H1584 H 0.03548 0.52593 0.92208 0.0
H1585 H 0.0398 0.60804 0.06855 0.0
H1586 H 0.02271 0.46272 0.95776 0.0
H1587 H 0.97656 0.47451 0.94771 0.0
H1588 H 0.01474 0.47281 0.90697 0.0
H1589 H 0.01805 0.60431 0.13962 0.0
H1590 H 0.98019 0.57492 0.12755 0.0
H1591 H 0.027 0.56402 0.13666 0.0
H1592 H 0.90704 0.4792 0.07308 0.0
H1593 H 0.0182 0.45173 0.09737 0.0
H1594 H 0.9301 0.51643 1.00011 0.0
H1595 H 0.93299 0.5509 0.06081 0.0
H1596 H 0.89618 0.52037 0.04715 0.0
H1597 H 0.06777 0.48208 0.02818 0.0
H1598 H 0.07305 0.47482 0.08206 0.0
H1599 H 0.06772 0.51655 0.08904 0.0
C1600 C 0.16063 0.53678 0.27815 0.0
C1601 C 0.16345 0.55853 0.32904 0.0
C1602 C 0.19083 0.51578 0.25247 0.0
C1603 C 0.22388 0.5157 0.27891 0.0
C1604 C 0.22627 0.53695 0.33072 0.0
C1605 C 0.19629 0.55863 0.35495 0.0
C1606 C 0.18772 0.49429 0.19692 0.0
C1607 C 0.26035 0.53666 0.36061 0.0
C1608 C 0.28555 0.43866 0.2187 0.0
C1609 C 0.31591 0.45027 0.20111 0.0
C1610 C 0.25588 0.45994 0.2452 0.0
C1611 C 0.25589 0.49325 0.25246 0.0
C1612 C 0.28643 0.50503 0.23436 0.0
C1613 C 0.31654 0.4835 0.20969 0.0
C1614 C 0.22463 0.44678 0.26557 0.0
C1615 C 0.28683 0.54007 0.23994 0.0
H1616 H 0.13533 0.53709 0.25811 0.0
H1617 H 0.19829 0.57545 0.39443 0.0
H1618 H 0.21153 0.49966 0.17767 0.0
H1619 H 0.18968 0.46762 0.18806 0.0
H1620 H 0.16079 0.49838 0.18162 0.0
H1621 H 0.25673 0.55323 0.40108 0.0
H1622 H 0.26586 0.51097 0.35517 0.0
H1623 H 0.28569 0.5448 0.34745 0.0
H1624 H 0.28527 0.41294 0.21223 0.0
H1625 H 0.3399 0.49229 0.19555 0.0
H1626 H 0.19751 0.44708 0.24743 0.0
H1627 H 0.22113 0.46303 0.30612 0.0
H1628 H 0.23016 0.42094 0.25951 0.0
H1629 H 0.26107 0.54452 0.22286 0.0
H1630 H 0.31199 0.54496 0.22219 0.0
H1631 H 0.28653 0.5583 0.27994 0.0
C1632 C 0.81559 0.28045 0.02556 0.0
C1633 C 0.81348 0.31526 0.04992 0.0
C1634 C 0.78357 0.26122 0.00286 0.0
C1635 C 0.74899 0.27728 0.00351 0.0
C1636 C 0.74705 0.31245 0.02677 0.0
C1637 C 0.7792 0.33099 0.05019 0.0
C1638 C 0.78647 0.22373 0.97939 0.0
C1639 C 0.71098 0.33053 0.02733 0.0
C1640 C 0.6774 0.2242 0.90652 0.0
C1641 C 0.65267 0.21567 0.93512 0.0
C1642 C 0.70808 0.2454 0.92871 0.0
C1643 C 0.71477 0.25721 0.98032 0.0
C1644 C 0.68943 0.24889 0.00942 0.0
C1645 C 0.65828 0.22846 0.98644 0.0
C1646 C 0.73374 0.25459 0.89679 0.0
C1647 C 0.69609 0.26037 0.06432 0.0
H1648 H 0.84192 0.26823 0.02572 0.0
H1649 H 0.77747 0.35795 0.06885 0.0
H1650 H 0.76614 0.21387 0.9975 0.0
H1651 H 0.7789 0.21283 0.93937 0.0
H1652 H 0.81526 0.21514 0.98264 0.0
H1653 H 0.7149 0.35794 0.04423 0.0
H1654 H 0.70022 0.32169 0.98881 0.0
H1655 H 0.68896 0.32509 0.04882 0.0
H1656 H 0.6729 0.21396 0.86667 0.0
H1657 H 0.63926 0.22126 0.00812 0.0
H1658 H 0.76216 0.24373 0.89483 0.0
H1659 H 0.73713 0.28202 0.91366 0.0
H1660 H 0.72283 0.24558 0.85826 0.0
H1661 H 0.72344 0.25042 0.06968 0.0
H1662 H 0.67341 0.25212 0.08171 0.0
H1663 H 0.6979 0.28791 0.08424 0.0
C1664 C 0.79066 0.42003 0.64525 0.0
C1665 C 0.82057 0.41945 0.67527 0.0
C1666 C 0.76207 0.44399 0.66453 0.0
C1667 C 0.76279 0.46727 0.71554 0.0
C1668 C 0.79295 0.46675 0.74615 0.0
C1669 C 0.82198 0.44311 0.72533 0.0
C1670 C 0.73121 0.44444 0.63024 0.0
C1671 C 0.79397 0.49052 0.80106 0.0
C1672 C 0.70667 0.5473 0.759 0.0
C1673 C 0.67295 0.53894 0.77493 0.0
C1674 C 0.73596 0.52405 0.73895 0.0
C1675 C 0.73191 0.49212 0.73661 0.0
C1676 C 0.69798 0.48366 0.75314 0.0
C1677 C 0.66855 0.50704 0.7713 0.0
C1678 C 0.77106 0.53355 0.71988 0.0
C1679 C 0.69304 0.45014 0.7524 0.0
H1680 H 0.7898 0.40177 0.60636 0.0
H1681 H 0.84495 0.44231 0.74852 0.0
H1682 H 0.70336 0.4405 0.64352 0.0
H1683 H 0.73031 0.46914 0.63049 0.0
H1684 H 0.7353 0.42498 0.59125 0.0
H1685 H 0.81893 0.48639 0.81989 0.0
H1686 H 0.79448 0.51659 0.80664 0.0
H1687 H 0.76803 0.48757 0.81938 0.0
H1688 H 0.70992 0.572 0.76172 0.0
H1689 H 0.6426 0.50081 0.78428 0.0
H1690 H 0.77588 0.51561 0.68026 0.0
H1691 H 0.79606 0.53236 0.74114 0.0
H1692 H 0.76917 0.55902 0.72291 0.0
H1693 H 0.69433 0.43009 0.71354 0.0
H1694 H 0.66576 0.44816 0.7691 0.0
H1695 H 0.71637 0.44566 0.77321 0.0
C1696 C 0.48905 0.99183 0.0806 0.0
C1697 C 0.45013 0.9875 0.08344 0.0
C1698 C 0.50328 0.01132 0.05881 0.0
C1699 C 0.47792 0.02714 0.03986 0.0
C1700 C 0.43855 0.02362 0.04401 0.0
C1701 C 0.42515 1.00367 0.06542 0.0
C1702 C 0.54545 0.01432 0.05497 0.0
C1703 C 0.41054 0.04028 0.02471 0.0
C1704 C 0.51415 0.09716 0.01316 0.0
C1705 C 0.51932 0.08052 0.96141 0.0
C1706 C 0.5005 0.08022 0.03932 0.0
C1707 C 0.49245 0.04573 0.01307 0.0
C1708 C 0.49796 0.02884 0.96079 0.0
C1709 C 0.51114 0.0465 0.93562 0.0
C1710 C 0.49481 0.0992 0.09498 0.0
C1711 C 0.49004 0.99207 0.9314 0.0
H1712 H 0.50842 0.97975 0.09517 0.0
H1713 H 0.39504 1.00008 0.06697 0.0
H1714 H 0.55389 1.00345 0.01518 0.0
H1715 H 0.55381 0.04091 0.07254 0.0
H1716 H 0.56133 1.00145 0.07303 0.0
H1717 H 0.38095 0.037 0.03392 0.0
H1718 H 0.41662 0.06731 0.0406 0.0
H1719 H 0.41318 0.02972 0.98363 0.0
H1720 H 0.52117 0.12336 0.03324 0.0
H1721 H 0.51518 0.03367 0.89557 0.0
H1722 H 0.51323 0.0887 0.11416 0.0
H1723 H 0.46523 0.09651 0.10471 0.0
H1724 H 0.50122 0.12614 0.10959 0.0
H1725 H 0.50715 0.97788 0.94619 0.0
H1726 H 0.49645 0.98256 0.89111 0.0
H1727 H 0.45993 0.98702 0.93546 0.0
C1728 C 0.46118 0.26557 0.14172 0.0
C1729 C 0.45327 0.29828 0.17723 0.0
C1730 C 0.47572 0.24216 0.15606 0.0
C1731 C 0.48318 0.25199 0.20705 0.0
C1732 C 0.47532 0.28507 0.24297 0.0
C1733 C 0.45989 0.30765 0.22766 0.0
C1734 C 0.48293 0.20694 0.11675 0.0
C1735 C 0.48328 0.29667 0.29762 0.0
C1736 C 0.4908 0.18951 0.25911 0.0
C1737 C 0.52999 0.18669 0.26221 0.0
C1738 C 0.47514 0.20957 0.23921 0.0
C1739 C 0.49928 0.22788 0.22318 0.0
C1740 C 0.53889 0.22457 0.22526 0.0
C1741 C 0.55373 0.20367 0.24414 0.0
C1742 C 0.43277 0.21186 0.23661 0.0
C1743 C 0.5656 0.24393 0.20905 0.0
H1744 H 0.45594 0.2583 0.10267 0.0
H1745 H 0.45273 0.33265 0.25526 0.0
H1746 H 0.51336 0.20089 0.11573 0.0
H1747 H 0.46734 0.18912 0.12606 0.0
H1748 H 0.47425 0.203 0.07902 0.0
H1749 H 0.4768 0.32351 0.32051 0.0
H1750 H 0.46625 0.28207 0.31171 0.0
H1751 H 0.51343 0.2924 0.30293 0.0
H1752 H 0.47228 0.17674 0.27347 0.0
H1753 H 0.58403 0.20091 0.24526 0.0
H1754 H 0.42407 0.20734 0.19867 0.0
H1755 H 0.42323 0.23728 0.26287 0.0
H1756 H 0.41807 0.1937 0.24613 0.0
H1757 H 0.55974 0.23861 0.16996 0.0
H1758 H 0.59565 0.23796 0.21194 0.0
H1759 H 0.5612 0.27102 0.23252 0.0
C1760 C 0.49032 0.81766 0.74004 0.0
C1761 C 0.48232 0.80835 0.68997 0.0
C1762 C 0.50606 0.79477 0.75453 0.0
C1763 C 0.51322 0.76168 0.71806 0.0
C1764 C 0.50606 0.75246 0.66721 0.0
C1765 C 0.49094 0.77604 0.65377 0.0
C1766 C 0.51379 0.80566 0.80903 0.0
C1767 C 0.51291 0.71737 0.62726 0.0
C1768 C 0.5771 0.70753 0.75247 0.0
C1769 C 0.55081 0.69043 0.76714 0.0
C1770 C 0.56533 0.73069 0.73612 0.0
C1771 C 0.5263 0.73636 0.73349 0.0
C1772 C 0.4996 0.71835 0.74678 0.0
C1773 C 0.51221 0.69578 0.76383 0.0
C1774 C 0.59463 0.74956 0.7226 0.0
C1775 C 0.45771 0.72337 0.74386 0.0
H1776 H 0.48302 0.84249 0.76809 0.0
H1777 H 0.48475 0.76895 0.61499 0.0
H1778 H 0.4947 0.79227 0.82306 0.0
H1779 H 0.54316 0.79925 0.81418 0.0
H1780 H 0.50958 0.83286 0.83206 0.0
H1781 H 0.50769 0.71471 0.58923 0.0
H1782 H 0.54235 0.70968 0.62917 0.0
H1783 H 0.49406 0.69994 0.63347 0.0
H1784 H 0.60697 0.70297 0.75414 0.0
H1785 H 0.49183 0.6829 0.77572 0.0
H1786 H 0.59159 0.77666 0.74721 0.0
H1787 H 0.59028 0.74554 0.68379 0.0
H1788 H 0.62386 0.74194 0.72611 0.0
H1789 H 0.44993 0.74931 0.77021 0.0
H1790 H 0.4407 0.70611 0.75293 0.0
H1791 H 0.45006 0.71956 0.70591 0.0
C1792 C 0.54598 0.56232 0.47686 0.0
C1793 C 0.52157 0.57665 0.45532 0.0
C1794 C 0.53192 0.54435 0.50105 0.0
C1795 C 0.49244 0.54107 0.50443 0.0
C1796 C 0.46762 0.5569 0.48486 0.0
C1797 C 0.48252 0.57439 0.46026 0.0
C1798 C 0.55934 0.5278 0.52126 0.0
C1799 C 0.42536 0.55439 0.48838 0.0
C1800 C 0.45665 0.46443 0.5131 0.0
C1801 C 0.44938 0.47704 0.56413 0.0
C1802 C 0.47077 0.48503 0.49329 0.0
C1803 C 0.47726 0.51919 0.52529 0.0
C1804 C 0.46977 0.53209 0.57695 0.0
C1805 C 0.45618 0.51075 0.59581 0.0
C1806 C 0.47875 0.47022 0.43808 0.0
C1807 C 0.47615 0.56836 0.61228 0.0
H1808 H 0.5762 0.56466 0.47398 0.0
H1809 H 0.46361 0.58534 0.44344 0.0
H1810 H 0.55324 0.53528 0.56107 0.0
H1811 H 0.55602 0.50037 0.50078 0.0
H1812 H 0.58914 0.53411 0.51777 0.0
H1813 H 0.41005 0.57053 0.47537 0.0
H1814 H 0.41634 0.52825 0.4654 0.0
H1815 H 0.41691 0.56146 0.52741 0.0
H1816 H 0.45092 0.43844 0.48856 0.0
H1817 H 0.45081 0.52042 0.63541 0.0
H1818 H 0.50878 0.47418 0.43178 0.0
H1819 H 0.46138 0.4829 0.42109 0.0
H1820 H 0.4727 0.44311 0.41848 0.0
H1821 H 0.50663 0.57425 0.61363 0.0
H1822 H 0.46636 0.57488 0.65069 0.0
H1823 H 0.46112 0.58437 0.59884 0.0
loop_
_geom_bond_atom_site_label_1
_geom_bond_atom_site_label_2
_geom_bond_distance
_geom_bond_site_symmetry_2
_ccdc_geom_bond_type
Co0 O3 1.970 . S
Co0 N17 1.989 . S
Co0 O25 1.967 . S
Co0 O32 1.920 . S
Co1 O4 1.966 . S
Co1 N10 2.022 . S
Co1 N18 1.993 . S
Co1 O26 1.941 . S
C2 O3 1.258 . S
C2 O4 1.263 . S
O3 Co0 1.970 . S
O3 C2 1.258 . S
O4 Co1 1.966 . S
O4 C2 1.263 . S
C5 O6 1.235 . S
C5 O32 1.289 . S
O6 C5 1.235 . S
C7 C9 1.400 . S
C7 N10 1.351 1_655 S
C7 C12 1.501 . S
C8 C9 1.387 . S
C8 N11 1.341 . S
C9 C7 1.400 . S
C9 C8 1.387 . S
N10 Co1 2.022 . S
N10 C7 1.351 1_455 S
N10 N11 1.365 1_455 S
N11 C8 1.341 . S
N11 N10 1.365 1_655 S
N11 H31 0.862 1_655 S
C12 C7 1.501 . S
C12 H13 0.961 1_655 S
C12 H14 0.961 . S
C12 H15 0.960 . S
H13 C12 0.961 1_455 S
H14 C12 0.961 . S
H15 C12 0.960 . S
C16 N17 1.342 . S
C16 C20 1.401 . S
C16 C21 1.499 . S
N17 Co0 1.989 . S
N17 C16 1.342 . S
N17 N18 1.388 . S
N18 Co1 1.993 . S
N18 N17 1.388 . S
N18 C19 1.346 . S
C19 N18 1.346 . S
C19 C20 1.396 . S
C19 C29 1.510 . S
C20 C16 1.401 . S
C20 C19 1.396 . S
C21 C16 1.499 . S
C21 H22 0.959 . S
C21 H23 0.960 . S
C21 H24 0.961 . S
H22 C21 0.959 . S
H23 C21 0.960 . S
H24 C21 0.961 . S
O25 Co0 1.967 . S
O25 C33 1.258 . S
O26 Co1 1.941 . S
O26 C33 1.266 . S
H27 C29 0.959 . S
H28 C29 0.973 . S
C29 C19 1.510 . S
C29 H27 0.959 . S
C29 H28 0.973 . S
C29 H30 0.960 . S
H30 C29 0.960 . S
H31 N11 0.862 1_455 S
O32 Co0 1.920 . S
O32 C5 1.289 . S
C33 O25 1.258 . S
C33 O26 1.266 . S
Co34 O37 1.970 . S
Co34 N51 1.989 . S
Co34 O59 1.967 . S
Co34 O66 1.920 . S
Co35 O38 1.966 . S
Co35 N44 2.022 . S
Co35 N52 1.993 . S
Co35 O60 1.941 . S
C36 O37 1.258 . S
C36 O38 1.263 . S
O37 Co34 1.970 . S
O37 C36 1.258 . S
O38 Co35 1.966 . S
O38 C36 1.263 . S
C39 O40 1.235 . S
C39 O66 1.289 . S
O40 C39 1.235 . S
C41 C43 1.400 . S
C41 N44 1.351 1_655 S
C41 C46 1.501 . S
C42 C43 1.387 . S
C42 N45 1.341 . S
C43 C41 1.400 . S
C43 C42 1.387 . S
N44 Co35 2.022 . S
N44 C41 1.351 1_455 S
N44 N45 1.365 1_455 S
N45 C42 1.341 . S
N45 N44 1.365 1_655 S
N45 H65 0.862 1_655 S
C46 C41 1.501 . S
C46 H47 0.961 1_655 S
C46 H48 0.961 . S
C46 H49 0.960 . S
H47 C46 0.961 1_455 S
H48 C46 0.961 . S
H49 C46 0.960 . S
C50 N51 1.342 . S
C50 C54 1.401 . S
C50 C55 1.499 . S
N51 Co34 1.989 . S
N51 C50 1.342 . S
N51 N52 1.388 . S
N52 Co35 1.993 . S
N52 N51 1.388 . S
N52 C53 1.346 . S
C53 N52 1.346 . S
C53 C54 1.396 . S
C53 C63 1.510 . S
C54 C50 1.401 . S
C54 C53 1.396 . S
C55 C50 1.499 . S
C55 H56 0.959 . S
C55 H57 0.960 . S
C55 H58 0.961 . S
H56 C55 0.959 . S
H57 C55 0.960 . S
H58 C55 0.961 . S
O59 Co34 1.967 . S
O59 C67 1.258 . S
O60 Co35 1.941 . S
O60 C67 1.266 . S
H61 C63 0.959 . S
H62 C63 0.973 . S
C63 C53 1.510 . S
C63 H61 0.959 . S
C63 H62 0.973 . S
C63 H64 0.960 . S
H64 C63 0.960 . S
H65 N45 0.862 1_455 S
O66 Co34 1.920 . S
O66 C39 1.289 . S
C67 O59 1.258 . S
C67 O60 1.266 . S
Co68 O71 1.970 . S
Co68 N85 1.989 . S
Co68 O93 1.967 . S
Co68 O100 1.920 . S
Co69 O72 1.966 . S
Co69 N78 2.022 . S
Co69 N86 1.993 . S
Co69 O94 1.941 . S
C70 O71 1.258 . S
C70 O72 1.263 . S
O71 Co68 1.970 . S
O71 C70 1.258 . S
O72 Co69 1.966 . S
O72 C70 1.263 . S
C73 O74 1.235 . S
C73 O100 1.289 . S
O74 C73 1.235 . S
C75 C77 1.400 . S
C75 N78 1.351 1_455 S
C75 C80 1.501 . S
C76 C77 1.387 . S
C76 N79 1.341 . S
C77 C75 1.400 . S
C77 C76 1.387 . S
N78 Co69 2.022 . S
N78 C75 1.351 1_655 S
N78 N79 1.365 1_655 S
N79 C76 1.341 . S
N79 N78 1.365 1_455 S
N79 H99 0.862 1_455 S
C80 C75 1.501 . S
C80 H81 0.961 1_455 S
C80 H82 0.961 . S
C80 H83 0.960 . S
H81 C80 0.961 1_655 S
H82 C80 0.961 . S
H83 C80 0.960 . S
C84 N85 1.342 . S
C84 C88 1.401 . S
C84 C89 1.499 . S
N85 Co68 1.989 . S
N85 C84 1.342 . S
N85 N86 1.388 . S
N86 Co69 1.993 . S
N86 N85 1.388 . S
N86 C87 1.346 . S
C87 N86 1.346 . S
C87 C88 1.396 . S
C87 C97 1.510 . S
C88 C84 1.401 . S
C88 C87 1.396 . S
C89 C84 1.499 . S
C89 H90 0.959 . S
C89 H91 0.960 . S
C89 H92 0.961 . S
H90 C89 0.959 . S
H91 C89 0.960 . S
H92 C89 0.961 . S
O93 Co68 1.967 . S
O93 C101 1.258 . S
O94 Co69 1.941 . S
O94 C101 1.266 . S
H95 C97 0.959 . S
H96 C97 0.973 . S
C97 C87 1.510 . S
C97 H95 0.959 . S
C97 H96 0.973 . S
C97 H98 0.960 . S
H98 C97 0.960 . S
H99 N79 0.862 1_655 S
O100 Co68 1.920 . S
O100 C73 1.289 . S
C101 O93 1.258 . S
C101 O94 1.266 . S
Co102 O105 1.970 . S
Co102 N119 1.989 . S
Co102 O127 1.967 . S
Co102 O134 1.920 . S
Co103 O106 1.966 . S
Co103 N112 2.022 . S
Co103 N120 1.993 . S
Co103 O128 1.941 . S
C104 O105 1.258 . S
C104 O106 1.263 . S
O105 Co102 1.970 . S
O105 C104 1.258 . S
O106 Co103 1.966 . S
O106 C104 1.263 . S
C107 O108 1.235 . S
C107 O134 1.289 . S
O108 C107 1.235 . S
C109 C111 1.400 . S
C109 N112 1.351 1_455 S
C109 C114 1.501 . S
C110 C111 1.387 . S
C110 N113 1.341 . S
C111 C109 1.400 . S
C111 C110 1.387 . S
N112 Co103 2.022 . S
N112 C109 1.351 1_655 S
N112 N113 1.365 1_655 S
N113 C110 1.341 . S
N113 N112 1.365 1_455 S
N113 H133 0.862 1_455 S
C114 C109 1.501 . S
C114 H115 0.961 1_455 S
C114 H116 0.961 . S
C114 H117 0.960 . S
H115 C114 0.961 1_655 S
H116 C114 0.961 . S
H117 C114 0.960 . S
C118 N119 1.342 . S
C118 C122 1.401 . S
C118 C123 1.499 . S
N119 Co102 1.989 . S
N119 C118 1.342 . S
N119 N120 1.388 . S
N120 Co103 1.993 . S
N120 N119 1.388 . S
N120 C121 1.346 . S
C121 N120 1.346 . S
C121 C122 1.396 . S
C121 C131 1.510 . S
C122 C118 1.401 . S
C122 C121 1.396 . S
C123 C118 1.499 . S
C123 H124 0.959 . S
C123 H125 0.960 . S
C123 H126 0.961 . S
H124 C123 0.959 . S
H125 C123 0.960 . S
H126 C123 0.961 . S
O127 Co102 1.967 . S
O127 C135 1.258 . S
O128 Co103 1.941 . S
O128 C135 1.266 . S
H129 C131 0.959 . S
H130 C131 0.973 . S
C131 C121 1.510 . S
C131 H129 0.959 . S
C131 H130 0.973 . S
C131 H132 0.960 . S
H132 C131 0.960 . S
H133 N113 0.862 1_655 S
O134 Co102 1.920 . S
O134 C107 1.289 . S
C135 O127 1.258 . S
C135 O128 1.266 . S
Co136 O139 1.970 . S
Co136 N153 1.989 . S
Co136 O161 1.967 . S
Co136 O168 1.920 . S
Co137 O140 1.966 . S
Co137 N146 2.022 . S
Co137 N154 1.993 . S
Co137 O162 1.941 . S
C138 O139 1.258 . S
C138 O140 1.263 . S
O139 Co136 1.970 . S
O139 C138 1.258 . S
O140 Co137 1.966 . S
O140 C138 1.263 . S
C141 O142 1.235 . S
C141 O168 1.289 . S
O142 C141 1.235 . S
C143 C145 1.400 . S
C143 N146 1.351 1_655 S
C143 C148 1.501 . S
C144 C145 1.387 . S
C144 N147 1.341 . S
C145 C143 1.400 . S
C145 C144 1.387 . S
N146 Co137 2.022 . S
N146 C143 1.351 1_455 S
N146 N147 1.365 1_455 S
N147 C144 1.341 . S
N147 N146 1.365 1_655 S
N147 H167 0.862 1_655 S
C148 C143 1.501 . S
C148 H149 0.961 1_655 S
C148 H150 0.961 . S
C148 H151 0.960 . S
H149 C148 0.961 1_455 S
H150 C148 0.961 . S
H151 C148 0.960 . S
C152 N153 1.342 . S
C152 C156 1.401 . S
C152 C157 1.499 . S
N153 Co136 1.989 . S
N153 C152 1.342 . S
N153 N154 1.388 . S
N154 Co137 1.993 . S
N154 N153 1.388 . S
N154 C155 1.346 . S
C155 N154 1.346 . S
C155 C156 1.396 . S
C155 C165 1.510 . S
C156 C152 1.401 . S
C156 C155 1.396 . S
C157 C152 1.499 . S
C157 H158 0.959 . S
C157 H159 0.960 . S
C157 H160 0.961 . S
H158 C157 0.959 . S
H159 C157 0.960 . S
H160 C157 0.961 . S
O161 Co136 1.967 . S
O161 C169 1.258 . S
O162 Co137 1.941 . S
O162 C169 1.266 . S
H163 C165 0.959 . S
H164 C165 0.973 . S
C165 C155 1.510 . S
C165 H163 0.959 . S
C165 H164 0.973 . S
C165 H166 0.960 . S
H166 C165 0.960 . S
H167 N147 0.862 1_455 S
O168 Co136 1.920 . S
O168 C141 1.289 . S
C169 O161 1.258 . S
C169 O162 1.266 . S
Co170 O173 1.970 . S
Co170 N187 1.989 . S
Co170 O195 1.967 . S
Co170 O202 1.920 . S
Co171 O174 1.966 . S
Co171 N180 2.022 . S
Co171 N188 1.993 . S
Co171 O196 1.941 . S
C172 O173 1.258 . S
C172 O174 1.263 . S
O173 Co170 1.970 . S
O173 C172 1.258 . S
O174 Co171 1.966 . S
O174 C172 1.263 . S
C175 O176 1.235 . S
C175 O202 1.289 . S
O176 C175 1.235 . S
C177 C179 1.400 . S
C177 N180 1.351 1_655 S
C177 C182 1.501 . S
C178 C179 1.387 . S
C178 N181 1.341 . S
C179 C177 1.400 . S
C179 C178 1.387 . S
N180 Co171 2.022 . S
N180 C177 1.351 1_455 S
N180 N181 1.365 1_455 S
N181 C178 1.341 . S
N181 N180 1.365 1_655 S
N181 H201 0.862 1_655 S
C182 C177 1.501 . S
C182 H183 0.961 1_655 S
C182 H184 0.961 . S
C182 H185 0.960 . S
H183 C182 0.961 1_455 S
H184 C182 0.961 . S
H185 C182 0.960 . S
C186 N187 1.342 . S
C186 C190 1.401 . S
C186 C191 1.499 . S
N187 Co170 1.989 . S
N187 C186 1.342 . S
N187 N188 1.388 . S
N188 Co171 1.993 . S
N188 N187 1.388 . S
N188 C189 1.346 . S
C189 N188 1.346 . S
C189 C190 1.396 . S
C189 C199 1.510 . S
C190 C186 1.401 . S
C190 C189 1.396 . S
C191 C186 1.499 . S
C191 H192 0.959 . S
C191 H193 0.960 . S
C191 H194 0.961 . S
H192 C191 0.959 . S
H193 C191 0.960 . S
H194 C191 0.961 . S
O195 Co170 1.967 . S
O195 C203 1.258 . S
O196 Co171 1.941 . S
O196 C203 1.266 . S
H197 C199 0.959 . S
H198 C199 0.973 . S
C199 C189 1.510 . S
C199 H197 0.959 . S
C199 H198 0.973 . S
C199 H200 0.960 . S
H200 C199 0.960 . S
H201 N181 0.862 1_455 S
O202 Co170 1.920 . S
O202 C175 1.289 . S
C203 O195 1.258 . S
C203 O196 1.266 . S
Co204 O207 1.970 . S
Co204 N221 1.989 . S
Co204 O229 1.967 . S
Co204 O236 1.920 . S
Co205 O208 1.966 . S
Co205 N214 2.022 . S
Co205 N222 1.993 . S
Co205 O230 1.941 . S
C206 O207 1.258 . S
C206 O208 1.263 . S
O207 Co204 1.970 . S
O207 C206 1.258 . S
O208 Co205 1.966 . S
O208 C206 1.263 . S
C209 O210 1.235 . S
C209 O236 1.289 . S
O210 C209 1.235 . S
C211 C213 1.400 . S
C211 N214 1.351 1_455 S
C211 C216 1.501 . S
C212 C213 1.387 . S
C212 N215 1.341 . S
C213 C211 1.400 . S
C213 C212 1.387 . S
N214 Co205 2.022 . S
N214 C211 1.351 1_655 S
N214 N215 1.365 1_655 S
N215 C212 1.341 . S
N215 N214 1.365 1_455 S
N215 H235 0.862 1_455 S
C216 C211 1.501 . S
C216 H217 0.961 1_455 S
C216 H218 0.961 . S
C216 H219 0.960 . S
H217 C216 0.961 1_655 S
H218 C216 0.961 . S
H219 C216 0.960 . S
C220 N221 1.342 . S
C220 C224 1.401 . S
C220 C225 1.499 . S
N221 Co204 1.989 . S
N221 C220 1.342 . S
N221 N222 1.388 . S
N222 Co205 1.993 . S
N222 N221 1.388 . S
N222 C223 1.346 . S
C223 N222 1.346 . S
C223 C224 1.396 . S
C223 C233 1.510 . S
C224 C220 1.401 . S
C224 C223 1.396 . S
C225 C220 1.499 . S
C225 H226 0.959 . S
C225 H227 0.960 . S
C225 H228 0.961 . S
H226 C225 0.959 . S
H227 C225 0.960 . S
H228 C225 0.961 . S
O229 Co204 1.967 . S
O229 C237 1.258 . S
O230 Co205 1.941 . S
O230 C237 1.266 . S
H231 C233 0.959 . S
H232 C233 0.973 . S
C233 C223 1.510 . S
C233 H231 0.959 . S
C233 H232 0.973 . S
C233 H234 0.960 . S
H234 C233 0.960 . S
H235 N215 0.862 1_655 S
O236 Co204 1.920 . S
O236 C209 1.289 . S
C237 O229 1.258 . S
C237 O230 1.266 . S
Co238 O241 1.970 . S
Co238 N255 1.989 . S
Co238 O263 1.967 . S
Co238 O270 1.920 . S
Co239 O242 1.966 . S
Co239 N248 2.022 . S
Co239 N256 1.993 . S
Co239 O264 1.941 . S
C240 O241 1.258 . S
C240 O242 1.263 . S
O241 Co238 1.970 . S
O241 C240 1.258 . S
O242 Co239 1.966 . S
O242 C240 1.263 . S
C243 O244 1.235 . S
C243 O270 1.289 . S
O244 C243 1.235 . S
C245 C247 1.400 . S
C245 N248 1.351 1_455 S
C245 C250 1.501 . S
C246 C247 1.387 . S
C246 N249 1.341 . S
C247 C245 1.400 . S
C247 C246 1.387 . S
N248 Co239 2.022 . S
N248 C245 1.351 1_655 S
N248 N249 1.365 1_655 S
N249 C246 1.341 . S
N249 N248 1.365 1_455 S
N249 H269 0.862 1_455 S
C250 C245 1.501 . S
C250 H251 0.961 1_455 S
C250 H252 0.961 . S
C250 H253 0.960 . S
H251 C250 0.961 1_655 S
H252 C250 0.961 . S
H253 C250 0.960 . S
C254 N255 1.342 . S
C254 C258 1.401 . S
C254 C259 1.499 . S
N255 Co238 1.989 . S
N255 C254 1.342 . S
N255 N256 1.388 . S
N256 Co239 1.993 . S
N256 N255 1.388 . S
N256 C257 1.346 . S
C257 N256 1.346 . S
C257 C258 1.396 . S
C257 C267 1.510 . S
C258 C254 1.401 . S
C258 C257 1.396 . S
C259 C254 1.499 . S
C259 H260 0.959 . S
C259 H261 0.960 . S
C259 H262 0.961 . S
H260 C259 0.959 . S
H261 C259 0.960 . S
H262 C259 0.961 . S
O263 Co238 1.967 . S
O263 C271 1.258 . S
O264 Co239 1.941 . S
O264 C271 1.266 . S
H265 C267 0.959 . S
H266 C267 0.973 . S
C267 C257 1.510 . S
C267 H265 0.959 . S
C267 H266 0.973 . S
C267 H268 0.960 . S
H268 C267 0.960 . S
H269 N249 0.862 1_655 S
O270 Co238 1.920 . S
O270 C243 1.289 . S
C271 O263 1.258 . S
C271 O264 1.266 . S
Co272 O275 1.970 . S
Co272 N289 1.989 . S
Co272 O297 1.967 . S
Co272 O304 1.920 . S
Co273 O276 1.966 . S
Co273 N282 2.022 . S
Co273 N290 1.993 . S
Co273 O298 1.941 . S
C274 O275 1.258 . S
C274 O276 1.263 . S
O275 Co272 1.970 . S
O275 C274 1.258 . S
O276 Co273 1.966 . S
O276 C274 1.263 . S
C277 O278 1.235 . S
C277 O304 1.289 . S
O278 C277 1.235 . S
C279 C281 1.400 . S
C279 N282 1.351 . S
C279 C284 1.501 . S
C280 C281 1.387 . S
C280 N283 1.341 . S
C281 C279 1.400 . S
C281 C280 1.387 . S
N282 Co273 2.022 . S
N282 C279 1.351 . S
N282 N283 1.365 . S
N283 C280 1.341 . S
N283 N282 1.365 . S
N283 H303 0.862 . S
C284 C279 1.501 . S
C284 H285 0.961 . S
C284 H286 0.961 . S
C284 H287 0.960 . S
H285 C284 0.961 . S
H286 C284 0.961 . S
H287 C284 0.960 . S
C288 N289 1.342 . S
C288 C292 1.401 . S
C288 C293 1.499 . S
N289 Co272 1.989 . S
N289 C288 1.342 . S
N289 N290 1.388 . S
N290 Co273 1.993 . S
N290 N289 1.388 . S
N290 C291 1.346 . S
C291 N290 1.346 . S
C291 C292 1.396 . S
C291 C301 1.510 . S
C292 C288 1.401 . S
C292 C291 1.396 . S
C293 C288 1.499 . S
C293 H294 0.959 . S
C293 H295 0.960 . S
C293 H296 0.961 . S
H294 C293 0.959 . S
H295 C293 0.960 . S
H296 C293 0.961 . S
O297 Co272 1.967 . S
O297 C305 1.258 . S
O298 Co273 1.941 . S
O298 C305 1.266 . S
H299 C301 0.959 . S
H300 C301 0.961 . S
C301 C291 1.510 . S
C301 H299 0.959 . S
C301 H300 0.961 . S
C301 H302 0.960 . S
H302 C301 0.960 . S
H303 N283 0.862 . S
O304 Co272 1.920 . S
O304 C277 1.289 . S
C305 O297 1.258 . S
C305 O298 1.266 . S
Co306 O309 1.970 . S
Co306 N323 1.989 . S
Co306 O331 1.967 . S
Co306 O338 1.920 . S
Co307 O310 1.966 . S
Co307 N316 2.022 . S
Co307 N324 1.993 . S
Co307 O332 1.941 . S
C308 O309 1.258 . S
C308 O310 1.263 . S
O309 Co306 1.970 . S
O309 C308 1.258 . S
O310 Co307 1.966 . S
O310 C308 1.263 . S
C311 O312 1.235 . S
C311 O338 1.289 . S
O312 C311 1.235 . S
C313 C315 1.400 . S
C313 N316 1.351 . S
C313 C318 1.501 . S
C314 C315 1.387 . S
C314 N317 1.341 . S
C315 C313 1.400 . S
C315 C314 1.387 . S
N316 Co307 2.022 . S
N316 C313 1.351 . S
N316 N317 1.365 . S
N317 C314 1.341 . S
N317 N316 1.365 . S
N317 H337 0.862 . S
C318 C313 1.501 . S
C318 H319 0.961 . S
C318 H320 0.961 . S
C318 H321 0.960 . S
H319 C318 0.961 . S
H320 C318 0.961 . S
H321 C318 0.960 . S
C322 N323 1.342 . S
C322 C326 1.401 . S
C322 C327 1.499 . S
N323 Co306 1.989 . S
N323 C322 1.342 . S
N323 N324 1.388 . S
N324 Co307 1.993 . S
N324 N323 1.388 . S
N324 C325 1.346 . S
C325 N324 1.346 . S
C325 C326 1.396 . S
C325 C335 1.510 . S
C326 C322 1.401 . S
C326 C325 1.396 . S
C327 C322 1.499 . S
C327 H328 0.959 . S
C327 H329 0.960 . S
C327 H330 0.961 . S
H328 C327 0.959 . S
H329 C327 0.960 . S
H330 C327 0.961 . S
O331 Co306 1.967 . S
O331 C339 1.258 . S
O332 Co307 1.941 . S
O332 C339 1.266 . S
H333 C335 0.959 . S
H334 C335 0.961 . S
C335 C325 1.510 . S
C335 H333 0.959 . S
C335 H334 0.961 . S
C335 H336 0.960 . S
H336 C335 0.960 . S
H337 N317 0.862 . S
O338 Co306 1.920 . S
O338 C311 1.289 . S
C339 O331 1.258 . S
C339 O332 1.266 . S
Co340 O343 1.970 . S
Co340 N357 1.989 . S
Co340 O365 1.967 . S
Co340 O372 1.920 . S
Co341 O344 1.966 . S
Co341 N350 2.022 . S
Co341 N358 1.993 . S
Co341 O366 1.941 . S
C342 O343 1.258 . S
C342 O344 1.263 . S
O343 Co340 1.970 . S
O343 C342 1.258 . S
O344 Co341 1.966 . S
O344 C342 1.263 . S
C345 O346 1.235 . S
C345 O372 1.289 . S
O346 C345 1.235 . S
C347 C349 1.400 . S
C347 N350 1.351 . S
C347 C352 1.501 . S
C348 C349 1.387 . S
C348 N351 1.341 . S
C349 C347 1.400 . S
C349 C348 1.387 . S
N350 Co341 2.022 . S
N350 C347 1.351 . S
N350 N351 1.365 . S
N351 C348 1.341 . S
N351 N350 1.365 . S
N351 H371 0.862 . S
C352 C347 1.501 . S
C352 H353 0.961 . S
C352 H354 0.961 . S
C352 H355 0.960 . S
H353 C352 0.961 . S
H354 C352 0.961 . S
H355 C352 0.960 . S
C356 N357 1.342 . S
C356 C360 1.401 . S
C356 C361 1.499 . S
N357 Co340 1.989 . S
N357 C356 1.342 . S
N357 N358 1.388 . S
N358 Co341 1.993 . S
N358 N357 1.388 . S
N358 C359 1.346 . S
C359 N358 1.346 . S
C359 C360 1.396 . S
C359 C369 1.510 . S
C360 C356 1.401 . S
C360 C359 1.396 . S
C361 C356 1.499 . S
C361 H362 0.959 . S
C361 H363 0.960 . S
C361 H364 0.961 . S
H362 C361 0.959 . S
H363 C361 0.960 . S
H364 C361 0.961 . S
O365 Co340 1.967 . S
O365 C373 1.258 . S
O366 Co341 1.941 . S
O366 C373 1.266 . S
H367 C369 0.959 . S
H368 C369 0.961 . S
C369 C359 1.510 . S
C369 H367 0.959 . S
C369 H368 0.961 . S
C369 H370 0.960 . S
H370 C369 0.960 . S
H371 N351 0.862 . S
O372 Co340 1.920 . S
O372 C345 1.289 . S
C373 O365 1.258 . S
C373 O366 1.266 . S
Co374 O377 1.970 . S
Co374 N391 1.989 . S
Co374 O399 1.967 . S
Co374 O406 1.920 . S
Co375 O378 1.966 . S
Co375 N384 2.022 . S
Co375 N392 1.993 . S
Co375 O400 1.941 . S
C376 O377 1.258 . S
C376 O378 1.263 . S
O377 Co374 1.970 . S
O377 C376 1.258 . S
O378 Co375 1.966 . S
O378 C376 1.263 . S
C379 O380 1.235 . S
C379 O406 1.289 . S
O380 C379 1.235 . S
C381 C383 1.400 . S
C381 N384 1.351 . S
C381 C386 1.501 . S
C382 C383 1.387 . S
C382 N385 1.341 . S
C383 C381 1.400 . S
C383 C382 1.387 . S
N384 Co375 2.022 . S
N384 C381 1.351 . S
N384 N385 1.365 . S
N385 C382 1.341 . S
N385 N384 1.365 . S
N385 H405 0.862 . S
C386 C381 1.501 . S
C386 H387 0.961 . S
C386 H388 0.961 . S
C386 H389 0.960 . S
H387 C386 0.961 . S
H388 C386 0.961 . S
H389 C386 0.960 . S
C390 N391 1.342 . S
C390 C394 1.401 . S
C390 C395 1.499 . S
N391 Co374 1.989 . S
N391 C390 1.342 . S
N391 N392 1.388 . S
N392 Co375 1.993 . S
N392 N391 1.388 . S
N392 C393 1.346 . S
C393 N392 1.346 . S
C393 C394 1.396 . S
C393 C403 1.510 . S
C394 C390 1.401 . S
C394 C393 1.396 . S
C395 C390 1.499 . S
C395 H396 0.959 . S
C395 H397 0.960 . S
C395 H398 0.961 . S
H396 C395 0.959 . S
H397 C395 0.960 . S
H398 C395 0.961 . S
O399 Co374 1.967 . S
O399 C407 1.258 . S
O400 Co375 1.941 . S
O400 C407 1.266 . S
H401 C403 0.959 . S
H402 C403 0.961 . S
C403 C393 1.510 . S
C403 H401 0.959 . S
C403 H402 0.961 . S
C403 H404 0.960 . S
H404 C403 0.960 . S
H405 N385 0.862 . S
O406 Co374 1.920 . S
O406 C379 1.289 . S
C407 O399 1.258 . S
C407 O400 1.266 . S
Co408 O411 1.970 . S
Co408 N425 1.989 . S
Co408 O433 1.967 . S
Co408 O440 1.920 . S
Co409 O412 1.966 . S
Co409 N418 2.022 . S
Co409 N426 1.993 . S
Co409 O434 1.941 . S
C410 O411 1.258 . S
C410 O412 1.263 . S
O411 Co408 1.970 . S
O411 C410 1.258 . S
O412 Co409 1.966 . S
O412 C410 1.263 . S
C413 O414 1.235 . S
C413 O440 1.289 . S
O414 C413 1.235 . S
C415 C417 1.400 . S
C415 N418 1.351 . S
C415 C420 1.501 . S
C416 C417 1.387 . S
C416 N419 1.341 . S
C417 C415 1.400 . S
C417 C416 1.387 . S
N418 Co409 2.022 . S
N418 C415 1.351 . S
N418 N419 1.365 . S
N419 C416 1.341 . S
N419 N418 1.365 . S
N419 H439 0.862 . S
C420 C415 1.501 . S
C420 H421 0.961 . S
C420 H422 0.961 . S
C420 H423 0.960 . S
H421 C420 0.961 . S
H422 C420 0.961 . S
H423 C420 0.960 . S
C424 N425 1.342 . S
C424 C428 1.401 . S
C424 C429 1.499 . S
N425 Co408 1.989 . S
N425 C424 1.342 . S
N425 N426 1.388 . S
N426 Co409 1.993 . S
N426 N425 1.388 . S
N426 C427 1.346 . S
C427 N426 1.346 . S
C427 C428 1.396 . S
C427 C437 1.510 . S
C428 C424 1.401 . S
C428 C427 1.396 . S
C429 C424 1.499 . S
C429 H430 0.959 . S
C429 H431 0.960 . S
C429 H432 0.961 . S
H430 C429 0.959 . S
H431 C429 0.960 . S
H432 C429 0.961 . S
O433 Co408 1.967 . S
O433 C441 1.258 . S
O434 Co409 1.941 . S
O434 C441 1.266 . S
H435 C437 0.959 . S
H436 C437 0.961 . S
C437 C427 1.510 . S
C437 H435 0.959 . S
C437 H436 0.961 . S
C437 H438 0.960 . S
H438 C437 0.960 . S
H439 N419 0.862 . S
O440 Co408 1.920 . S
O440 C413 1.289 . S
C441 O433 1.258 . S
C441 O434 1.266 . S
Co442 O445 1.970 . S
Co442 N459 1.989 . S
Co442 O467 1.967 . S
Co442 O474 1.920 . S
Co443 O446 1.966 . S
Co443 N452 2.022 . S
Co443 N460 1.993 . S
Co443 O468 1.941 . S
C444 O445 1.258 . S
C444 O446 1.263 . S
O445 Co442 1.970 . S
O445 C444 1.258 . S
O446 Co443 1.966 . S
O446 C444 1.263 . S
C447 O448 1.235 . S
C447 O474 1.289 . S
O448 C447 1.235 . S
C449 C451 1.400 . S
C449 N452 1.351 . S
C449 C454 1.501 . S
C450 C451 1.387 . S
C450 N453 1.341 . S
C451 C449 1.400 . S
C451 C450 1.387 . S
N452 Co443 2.022 . S
N452 C449 1.351 . S
N452 N453 1.365 . S
N453 C450 1.341 . S
N453 N452 1.365 . S
N453 H473 0.862 . S
C454 C449 1.501 . S
C454 H455 0.961 . S
C454 H456 0.961 . S
C454 H457 0.960 . S
H455 C454 0.961 . S
H456 C454 0.961 . S
H457 C454 0.960 . S
C458 N459 1.342 . S
C458 C462 1.401 . S
C458 C463 1.499 . S
N459 Co442 1.989 . S
N459 C458 1.342 . S
N459 N460 1.388 . S
N460 Co443 1.993 . S
N460 N459 1.388 . S
N460 C461 1.346 . S
C461 N460 1.346 . S
C461 C462 1.396 . S
C461 C471 1.510 . S
C462 C458 1.401 . S
C462 C461 1.396 . S
C463 C458 1.499 . S
C463 H464 0.959 . S
C463 H465 0.960 . S
C463 H466 0.961 . S
H464 C463 0.959 . S
H465 C463 0.960 . S
H466 C463 0.961 . S
O467 Co442 1.967 . S
O467 C475 1.258 . S
O468 Co443 1.941 . S
O468 C475 1.266 . S
H469 C471 0.959 . S
H470 C471 0.961 . S
C471 C461 1.510 . S
C471 H469 0.959 . S
C471 H470 0.961 . S
C471 H472 0.960 . S
H472 C471 0.960 . S
H473 N453 0.862 . S
O474 Co442 1.920 . S
O474 C447 1.289 . S
C475 O467 1.258 . S
C475 O468 1.266 . S
Co476 O479 1.970 . S
Co476 N493 1.989 . S
Co476 O501 1.967 . S
Co476 O508 1.920 . S
Co477 O480 1.966 . S
Co477 N486 2.022 . S
Co477 N494 1.993 . S
Co477 O502 1.941 . S
C478 O479 1.258 . S
C478 O480 1.263 . S
O479 Co476 1.970 . S
O479 C478 1.258 . S
O480 Co477 1.966 . S
O480 C478 1.263 . S
C481 O482 1.235 . S
C481 O508 1.289 . S
O482 C481 1.235 . S
C483 C485 1.400 . S
C483 N486 1.351 . S
C483 C488 1.501 . S
C484 C485 1.387 . S
C484 N487 1.341 . S
C485 C483 1.400 . S
C485 C484 1.387 . S
N486 Co477 2.022 . S
N486 C483 1.351 . S
N486 N487 1.365 . S
N487 C484 1.341 . S
N487 N486 1.365 . S
N487 H507 0.862 . S
C488 C483 1.501 . S
C488 H489 0.961 . S
C488 H490 0.961 . S
C488 H491 0.960 . S
H489 C488 0.961 . S
H490 C488 0.961 . S
H491 C488 0.960 . S
C492 N493 1.342 . S
C492 C496 1.401 . S
C492 C497 1.499 . S
N493 Co476 1.989 . S
N493 C492 1.342 . S
N493 N494 1.388 . S
N494 Co477 1.993 . S
N494 N493 1.388 . S
N494 C495 1.346 . S
C495 N494 1.346 . S
C495 C496 1.396 . S
C495 C505 1.510 . S
C496 C492 1.401 . S
C496 C495 1.396 . S
C497 C492 1.499 . S
C497 H498 0.959 . S
C497 H499 0.960 . S
C497 H500 0.961 . S
H498 C497 0.959 . S
H499 C497 0.960 . S
H500 C497 0.961 . S
O501 Co476 1.967 . S
O501 C509 1.258 . S
O502 Co477 1.941 . S
O502 C509 1.266 . S
H503 C505 0.959 . S
H504 C505 0.961 . S
C505 C495 1.510 . S
C505 H503 0.959 . S
C505 H504 0.961 . S
C505 H506 0.960 . S
H506 C505 0.960 . S
H507 N487 0.862 . S
O508 Co476 1.920 . S
O508 C481 1.289 . S
C509 O501 1.258 . S
C509 O502 1.266 . S
Co510 O513 1.970 . S
Co510 N527 1.989 . S
Co510 O535 1.967 . S
Co510 O542 1.920 . S
Co511 O514 1.966 . S
Co511 N520 2.022 . S
Co511 N528 1.993 . S
Co511 O536 1.941 . S
C512 O513 1.258 . S
C512 O514 1.263 . S
O513 Co510 1.970 . S
O513 C512 1.258 . S
O514 Co511 1.966 . S
O514 C512 1.263 . S
C515 O516 1.235 . S
C515 O542 1.289 . S
O516 C515 1.235 . S
C517 C519 1.400 . S
C517 N520 1.351 . S
C517 C522 1.501 . S
C518 C519 1.387 . S
C518 N521 1.341 . S
C519 C517 1.400 . S
C519 C518 1.387 . S
N520 Co511 2.022 . S
N520 C517 1.351 . S
N520 N521 1.365 . S
N521 C518 1.341 . S
N521 N520 1.365 . S
N521 H541 0.862 . S
C522 C517 1.501 . S
C522 H523 0.961 . S
C522 H524 0.961 . S
C522 H525 0.960 . S
H523 C522 0.961 . S
H524 C522 0.961 . S
H525 C522 0.960 . S
C526 N527 1.342 . S
C526 C530 1.401 . S
C526 C531 1.499 . S
N527 Co510 1.989 . S
N527 C526 1.342 . S
N527 N528 1.388 . S
N528 Co511 1.993 . S
N528 N527 1.388 . S
N528 C529 1.346 . S
C529 N528 1.346 . S
C529 C530 1.396 . S
C529 C539 1.510 . S
C530 C526 1.401 . S
C530 C529 1.396 . S
C531 C526 1.499 . S
C531 H532 0.959 . S
C531 H533 0.960 . S
C531 H534 0.961 . S
H532 C531 0.959 . S
H533 C531 0.960 . S
H534 C531 0.961 . S
O535 Co510 1.967 . S
O535 C543 1.258 . S
O536 Co511 1.941 . S
O536 C543 1.266 . S
H537 C539 0.959 . S
H538 C539 0.961 . S
C539 C529 1.510 . S
C539 H537 0.959 . S
C539 H538 0.961 . S
C539 H540 0.960 . S
H540 C539 0.960 . S
H541 N521 0.862 . S
O542 Co510 1.920 . S
O542 C515 1.289 . S
C543 O535 1.258 . S
C543 O536 1.266 . S
C544 C545 1.391 . S
C544 C546 1.394 . S
C544 H560 0.931 . S
C545 C544 1.391 . S
C545 C549 1.376 . S
C546 C544 1.394 . S
C546 C547 1.369 . S
C546 C550 1.531 . S
C547 C546 1.369 . S
C547 C548 1.410 . S
C547 C555 1.503 . S
C548 C547 1.410 . S
C548 C549 1.392 . S
C548 C551 1.511 . S
C549 C545 1.376 . S
C549 C548 1.392 . S
C549 H561 0.929 . S
C550 C546 1.531 . S
C550 H562 0.960 . S
C550 H563 0.962 . S
C550 H564 0.960 . S
C551 C548 1.511 . S
C551 H565 0.961 . S
C551 H566 0.961 . S
C551 H567 0.961 . S
C552 C553 1.370 . S
C552 C554 1.363 . S
C552 H568 0.931 . S
C553 C552 1.370 . S
C553 C557 1.408 . S
C554 C552 1.363 . S
C554 C555 1.370 . S
C554 C558 1.524 . S
C555 C547 1.503 . S
C555 C554 1.370 . S
C555 C556 1.403 . S
C556 C555 1.403 . S
C556 C557 1.404 . S
C556 C559 1.539 . S
C557 C553 1.408 . S
C557 C556 1.404 . S
C557 H569 0.930 . S
C558 C554 1.524 . S
C558 H570 0.956 . S
C558 H571 0.961 . S
C558 H572 0.961 . S
C559 C556 1.539 . S
C559 H573 0.958 . S
C559 H574 0.961 . S
C559 H575 0.960 . S
H560 C544 0.931 . S
H561 C549 0.929 . S
H562 C550 0.960 . S
H563 C550 0.962 . S
H564 C550 0.960 . S
H565 C551 0.961 . S
H566 C551 0.961 . S
H567 C551 0.961 . S
H568 C552 0.931 . S
H569 C557 0.930 . S
H570 C558 0.956 . S
H571 C558 0.961 . S
H572 C558 0.961 . S
H573 C559 0.958 . S
H574 C559 0.961 . S
H575 C559 0.960 . S
C576 C577 1.391 . S
C576 C578 1.394 . S
C576 H592 0.931 . S
C577 C576 1.391 . S
C577 C581 1.376 . S
C578 C576 1.394 . S
C578 C579 1.369 . S
C578 C582 1.531 . S
C579 C578 1.369 . S
C579 C580 1.410 . S
C579 C587 1.503 . S
C580 C579 1.410 . S
C580 C581 1.392 . S
C580 C583 1.511 . S
C581 C577 1.376 . S
C581 C580 1.392 . S
C581 H593 0.929 . S
C582 C578 1.531 . S
C582 H594 0.960 . S
C582 H595 0.962 . S
C582 H596 0.960 . S
C583 C580 1.511 . S
C583 H597 0.961 . S
C583 H598 0.961 . S
C583 H599 0.961 . S
C584 C585 1.370 . S
C584 C586 1.363 . S
C584 H600 0.931 . S
C585 C584 1.370 . S
C585 C589 1.408 . S
C586 C584 1.363 . S
C586 C587 1.370 . S
C586 C590 1.524 . S
C587 C579 1.503 . S
C587 C586 1.370 . S
C587 C588 1.403 . S
C588 C587 1.403 . S
C588 C589 1.404 . S
C588 C591 1.539 . S
C589 C585 1.408 . S
C589 C588 1.404 . S
C589 H601 0.930 . S
C590 C586 1.524 . S
C590 H602 0.956 . S
C590 H603 0.961 . S
C590 H604 0.961 . S
C591 C588 1.539 . S
C591 H605 0.958 . S
C591 H606 0.961 . S
C591 H607 0.960 . S
H592 C576 0.931 . S
H593 C581 0.929 . S
H594 C582 0.960 . S
H595 C582 0.962 . S
H596 C582 0.960 . S
H597 C583 0.961 . S
H598 C583 0.961 . S
H599 C583 0.961 . S
H600 C584 0.931 . S
H601 C589 0.930 . S
H602 C590 0.956 . S
H603 C590 0.961 . S
H604 C590 0.961 . S
H605 C591 0.958 . S
H606 C591 0.961 . S
H607 C591 0.960 . S
C608 C609 1.391 . S
C608 C610 1.394 . S
C608 H624 0.931 . S
C609 C608 1.391 . S
C609 C613 1.376 . S
C610 C608 1.394 . S
C610 C611 1.369 . S
C610 C614 1.531 . S
C611 C610 1.369 . S
C611 C612 1.410 . S
C611 C619 1.503 . S
C612 C611 1.410 . S
C612 C613 1.392 . S
C612 C615 1.511 . S
C613 C609 1.376 . S
C613 C612 1.392 . S
C613 H625 0.929 . S
C614 C610 1.531 . S
C614 H626 0.960 . S
C614 H627 0.962 . S
C614 H628 0.960 . S
C615 C612 1.511 . S
C615 H629 0.961 . S
C615 H630 0.961 . S
C615 H631 0.961 . S
C616 C617 1.370 . S
C616 C618 1.363 . S
C616 H632 0.931 . S
C617 C616 1.370 . S
C617 C621 1.408 . S
C618 C616 1.363 . S
C618 C619 1.370 . S
C618 C622 1.524 . S
C619 C611 1.503 . S
C619 C618 1.370 . S
C619 C620 1.403 . S
C620 C619 1.403 . S
C620 C621 1.404 . S
C620 C623 1.539 . S
C621 C617 1.408 . S
C621 C620 1.404 . S
C621 H633 0.930 . S
C622 C618 1.524 . S
C622 H634 0.956 . S
C622 H635 0.961 . S
C622 H636 0.961 1_556 S
C623 C620 1.539 . S
C623 H637 0.958 . S
C623 H638 0.961 . S
C623 H639 0.960 . S
H624 C608 0.931 . S
H625 C613 0.929 . S
H626 C614 0.960 . S
H627 C614 0.962 . S
H628 C614 0.960 . S
H629 C615 0.961 . S
H630 C615 0.961 . S
H631 C615 0.961 . S
H632 C616 0.931 . S
H633 C621 0.930 . S
H634 C622 0.956 . S
H635 C622 0.961 . S
H636 C622 0.961 1_554 S
H637 C623 0.958 . S
H638 C623 0.961 . S
H639 C623 0.960 . S
C640 C641 1.391 . S
C640 C642 1.394 . S
C640 H656 0.931 . S
C641 C640 1.391 . S
C641 C645 1.376 . S
C642 C640 1.394 . S
C642 C643 1.369 . S
C642 C646 1.531 . S
C643 C642 1.369 . S
C643 C644 1.410 . S
C643 C651 1.503 . S
C644 C643 1.410 . S
C644 C645 1.392 . S
C644 C647 1.511 . S
C645 C641 1.376 . S
C645 C644 1.392 . S
C645 H657 0.929 . S
C646 C642 1.531 . S
C646 H658 0.960 . S
C646 H659 0.962 . S
C646 H660 0.960 . S
C647 C644 1.511 . S
C647 H661 0.961 . S
C647 H662 0.961 . S
C647 H663 0.961 . S
C648 C649 1.370 . S
C648 C650 1.363 . S
C648 H664 0.931 . S
C649 C648 1.370 . S
C649 C653 1.408 . S
C650 C648 1.363 . S
C650 C651 1.370 . S
C650 C654 1.524 . S
C651 C643 1.503 . S
C651 C650 1.370 . S
C651 C652 1.403 . S
C652 C651 1.403 . S
C652 C653 1.404 . S
C652 C655 1.539 . S
C653 C649 1.408 . S
C653 C652 1.404 . S
C653 H665 0.930 . S
C654 C650 1.524 . S
C654 H666 0.956 . S
C654 H667 0.961 . S
C654 H668 0.961 . S
C655 C652 1.539 . S
C655 H669 0.958 . S
C655 H670 0.961 . S
C655 H671 0.960 . S
H656 C640 0.931 . S
H657 C645 0.929 . S
H658 C646 0.960 . S
H659 C646 0.962 . S
H660 C646 0.960 . S
H661 C647 0.961 . S
H662 C647 0.961 . S
H663 C647 0.961 . S
H664 C648 0.931 . S
H665 C653 0.930 . S
H666 C654 0.956 . S
H667 C654 0.961 . S
H668 C654 0.961 . S
H669 C655 0.958 . S
H670 C655 0.961 . S
H671 C655 0.960 . S
C672 C673 1.391 . S
C672 C674 1.394 . S
C672 H688 0.931 . S
C673 C672 1.391 . S
C673 C677 1.376 . S
C674 C672 1.394 . S
C674 C675 1.369 . S
C674 C678 1.531 . S
C675 C674 1.369 . S
C675 C676 1.410 . S
C675 C683 1.503 . S
C676 C675 1.410 . S
C676 C677 1.392 . S
C676 C679 1.511 . S
C677 C673 1.376 . S
C677 C676 1.392 . S
C677 H689 0.929 . S
C678 C674 1.531 . S
C678 H690 0.960 . S
C678 H691 0.962 . S
C678 H692 0.960 . S
C679 C676 1.511 . S
C679 H693 0.961 . S
C679 H694 0.961 . S
C679 H695 0.961 . S
C680 C681 1.370 . S
C680 C682 1.363 . S
C680 H696 0.931 . S
C681 C680 1.370 . S
C681 C685 1.408 . S
C682 C680 1.363 . S
C682 C683 1.370 . S
C682 C686 1.524 . S
C683 C675 1.503 . S
C683 C682 1.370 . S
C683 C684 1.403 . S
C684 C683 1.403 . S
C684 C685 1.404 . S
C684 C687 1.539 . S
C685 C681 1.408 . S
C685 C684 1.404 . S
C685 H697 0.930 . S
C686 C682 1.524 . S
C686 H698 0.956 . S
C686 H699 0.961 . S
C686 H700 0.961 . S
C687 C684 1.539 . S
C687 H701 0.958 . S
C687 H702 0.961 . S
C687 H703 0.960 . S
H688 C672 0.931 . S
H689 C677 0.929 . S
H690 C678 0.960 . S
H691 C678 0.962 . S
H692 C678 0.960 . S
H693 C679 0.961 . S
H694 C679 0.961 . S
H695 C679 0.961 . S
H696 C680 0.931 . S
H697 C685 0.930 . S
H698 C686 0.956 . S
H699 C686 0.961 . S
H700 C686 0.961 . S
H701 C687 0.958 . S
H702 C687 0.961 . S
H703 C687 0.960 . S
C704 C705 1.391 . S
C704 C706 1.394 . S
C704 H720 0.931 . S
C705 C704 1.391 . S
C705 C709 1.376 . S
C706 C704 1.394 . S
C706 C707 1.369 . S
C706 C710 1.531 . S
C707 C706 1.369 . S
C707 C708 1.410 . S
C707 C715 1.503 . S
C708 C707 1.410 . S
C708 C709 1.392 . S
C708 C711 1.511 . S
C709 C705 1.376 . S
C709 C708 1.392 . S
C709 H721 0.929 . S
C710 C706 1.531 . S
C710 H722 0.960 . S
C710 H723 0.962 . S
C710 H724 0.960 . S
C711 C708 1.511 . S
C711 H725 0.961 . S
C711 H726 0.961 . S
C711 H727 0.961 . S
C712 C713 1.370 . S
C712 C714 1.363 . S
C712 H728 0.931 . S
C713 C712 1.370 . S
C713 C717 1.408 . S
C714 C712 1.363 . S
C714 C715 1.370 . S
C714 C718 1.524 . S
C715 C707 1.503 . S
C715 C714 1.370 . S
C715 C716 1.403 . S
C716 C715 1.403 . S
C716 C717 1.404 . S
C716 C719 1.539 . S
C717 C713 1.408 . S
C717 C716 1.404 . S
C717 H729 0.930 . S
C718 C714 1.524 . S
C718 H730 0.956 . S
C718 H731 0.961 . S
C718 H732 0.961 . S
C719 C716 1.539 . S
C719 H733 0.958 . S
C719 H734 0.961 . S
C719 H735 0.960 . S
H720 C704 0.931 . S
H721 C709 0.929 . S
H722 C710 0.960 . S
H723 C710 0.962 . S
H724 C710 0.960 . S
H725 C711 0.961 . S
H726 C711 0.961 . S
H727 C711 0.961 . S
H728 C712 0.931 . S
H729 C717 0.930 . S
H730 C718 0.956 . S
H731 C718 0.961 . S
H732 C718 0.961 . S
H733 C719 0.958 . S
H734 C719 0.961 . S
H735 C719 0.960 . S
C736 C737 1.391 . S
C736 C738 1.394 . S
C736 H752 0.931 . S
C737 C736 1.391 . S
C737 C741 1.376 . S
C738 C736 1.394 . S
C738 C739 1.369 . S
C738 C742 1.531 . S
C739 C738 1.369 . S
C739 C740 1.410 . S
C739 C747 1.503 . S
C740 C739 1.410 . S
C740 C741 1.392 . S
C740 C743 1.511 . S
C741 C737 1.376 . S
C741 C740 1.392 . S
C741 H753 0.929 . S
C742 C738 1.531 . S
C742 H754 0.960 . S
C742 H755 0.962 . S
C742 H756 0.960 . S
C743 C740 1.511 . S
C743 H757 0.961 . S
C743 H758 0.961 . S
C743 H759 0.961 . S
C744 C745 1.370 . S
C744 C746 1.363 . S
C744 H760 0.931 . S
C745 C744 1.370 . S
C745 C749 1.408 . S
C746 C744 1.363 . S
C746 C747 1.370 . S
C746 C750 1.524 . S
C747 C739 1.503 . S
C747 C746 1.370 . S
C747 C748 1.403 . S
C748 C747 1.403 . S
C748 C749 1.404 . S
C748 C751 1.539 . S
C749 C745 1.408 . S
C749 C748 1.404 . S
C749 H761 0.930 . S
C750 C746 1.524 . S
C750 H762 0.956 . S
C750 H763 0.961 . S
C750 H764 0.961 . S
C751 C748 1.539 . S
C751 H765 0.958 1_554 S
C751 H766 0.961 . S
C751 H767 0.960 . S
H752 C736 0.931 . S
H753 C741 0.929 . S
H754 C742 0.960 . S
H755 C742 0.962 . S
H756 C742 0.960 . S
H757 C743 0.961 . S
H758 C743 0.961 . S
H759 C743 0.961 . S
H760 C744 0.931 . S
H761 C749 0.930 . S
H762 C750 0.956 . S
H763 C750 0.961 . S
H764 C750 0.961 . S
H765 C751 0.958 1_556 S
H766 C751 0.961 . S
H767 C751 0.960 . S
C768 C769 1.391 . S
C768 C770 1.394 . S
C768 H784 0.931 . S
C769 C768 1.391 . S
C769 C773 1.376 . S
C770 C768 1.394 . S
C770 C771 1.369 . S
C770 C774 1.531 . S
C771 C770 1.369 . S
C771 C772 1.410 . S
C771 C779 1.503 . S
C772 C771 1.410 . S
C772 C773 1.392 . S
C772 C775 1.511 . S
C773 C769 1.376 . S
C773 C772 1.392 . S
C773 H785 0.929 . S
C774 C770 1.531 . S
C774 H786 0.960 . S
C774 H787 0.962 . S
C774 H788 0.960 . S
C775 C772 1.511 . S
C775 H789 0.961 . S
C775 H790 0.961 . S
C775 H791 0.961 . S
C776 C777 1.370 . S
C776 C778 1.363 . S
C776 H792 0.931 . S
C777 C776 1.370 . S
C777 C781 1.408 . S
C778 C776 1.363 . S
C778 C779 1.370 . S
C778 C782 1.524 . S
C779 C771 1.503 . S
C779 C778 1.370 . S
C779 C780 1.403 . S
C780 C779 1.403 . S
C780 C781 1.404 . S
C780 C783 1.539 . S
C781 C777 1.408 . S
C781 C780 1.404 . S
C781 H793 0.930 . S
C782 C778 1.524 . S
C782 H794 0.956 . S
C782 H795 0.961 . S
C782 H796 0.961 . S
C783 C780 1.539 . S
C783 H797 0.958 . S
C783 H798 0.961 . S
C783 H799 0.960 . S
H784 C768 0.931 . S
H785 C773 0.929 . S
H786 C774 0.960 . S
H787 C774 0.962 . S
H788 C774 0.960 . S
H789 C775 0.961 . S
H790 C775 0.961 . S
H791 C775 0.961 . S
H792 C776 0.931 . S
H793 C781 0.930 . S
H794 C782 0.956 . S
H795 C782 0.961 . S
H796 C782 0.961 . S
H797 C783 0.958 . S
H798 C783 0.961 . S
H799 C783 0.960 . S
C800 C801 1.391 . S
C800 C802 1.394 . S
C800 H816 0.931 . S
C801 C800 1.391 . S
C801 C805 1.376 . S
C802 C800 1.394 . S
C802 C803 1.369 . S
C802 C806 1.531 . S
C803 C802 1.369 . S
C803 C804 1.410 . S
C803 C811 1.503 . S
C804 C803 1.410 . S
C804 C805 1.392 . S
C804 C807 1.511 . S
C805 C801 1.376 . S
C805 C804 1.392 . S
C805 H817 0.929 . S
C806 C802 1.531 . S
C806 H818 0.960 . S
C806 H819 0.962 . S
C806 H820 0.960 . S
C807 C804 1.511 . S
C807 H821 0.961 . S
C807 H822 0.961 . S
C807 H823 0.961 . S
C808 C809 1.370 . S
C808 C810 1.363 . S
C808 H824 0.931 . S
C809 C808 1.370 . S
C809 C813 1.408 . S
C810 C808 1.363 . S
C810 C811 1.370 . S
C810 C814 1.524 . S
C811 C803 1.503 . S
C811 C810 1.370 . S
C811 C812 1.403 . S
C812 C811 1.403 . S
C812 C813 1.404 . S
C812 C815 1.539 . S
C813 C809 1.408 . S
C813 C812 1.404 . S
C813 H825 0.930 . S
C814 C810 1.524 . S
C814 H826 0.956 . S
C814 H827 0.961 . S
C814 H828 0.961 . S
C815 C812 1.539 . S
C815 H829 0.958 . S
C815 H830 0.961 . S
C815 H831 0.960 . S
H816 C800 0.931 . S
H817 C805 0.929 . S
H818 C806 0.960 . S
H819 C806 0.962 . S
H820 C806 0.960 . S
H821 C807 0.961 . S
H822 C807 0.961 . S
H823 C807 0.961 . S
H824 C808 0.931 . S
H825 C813 0.930 . S
H826 C814 0.956 . S
H827 C814 0.961 . S
H828 C814 0.961 . S
H829 C815 0.958 . S
H830 C815 0.961 . S
H831 C815 0.960 . S
C832 C833 1.391 . S
C832 C834 1.394 . S
C832 H848 0.931 . S
C833 C832 1.391 . S
C833 C837 1.376 . S
C834 C832 1.394 . S
C834 C835 1.369 . S
C834 C838 1.531 . S
C835 C834 1.369 . S
C835 C836 1.410 . S
C835 C843 1.503 . S
C836 C835 1.410 . S
C836 C837 1.392 . S
C836 C839 1.511 . S
C837 C833 1.376 . S
C837 C836 1.392 . S
C837 H849 0.929 . S
C838 C834 1.531 . S
C838 H850 0.960 . S
C838 H851 0.962 . S
C838 H852 0.960 1_556 S
C839 C836 1.511 . S
C839 H853 0.961 . S
C839 H854 0.961 . S
C839 H855 0.961 . S
C840 C841 1.370 . S
C840 C842 1.363 . S
C840 H856 0.931 . S
C841 C840 1.370 . S
C841 C845 1.408 . S
C842 C840 1.363 . S
C842 C843 1.370 . S
C842 C846 1.524 . S
C843 C835 1.503 . S
C843 C842 1.370 . S
C843 C844 1.403 . S
C844 C843 1.403 . S
C844 C845 1.404 . S
C844 C847 1.539 . S
C845 C841 1.408 . S
C845 C844 1.404 . S
C845 H857 0.930 . S
C846 C842 1.524 . S
C846 H858 0.956 . S
C846 H859 0.961 . S
C846 H860 0.961 . S
C847 C844 1.539 . S
C847 H861 0.958 . S
C847 H862 0.961 . S
C847 H863 0.960 . S
H848 C832 0.931 . S
H849 C837 0.929 . S
H850 C838 0.960 . S
H851 C838 0.962 . S
H852 C838 0.960 1_554 S
H853 C839 0.961 . S
H854 C839 0.961 . S
H855 C839 0.961 . S
H856 C840 0.931 . S
H857 C845 0.930 . S
H858 C846 0.956 . S
H859 C846 0.961 . S
H860 C846 0.961 . S
H861 C847 0.958 . S
H862 C847 0.961 . S
H863 C847 0.960 . S
C864 C865 1.391 . S
C864 C866 1.394 . S
C864 H880 0.931 . S
C865 C864 1.391 . S
C865 C869 1.376 . S
C866 C864 1.394 . S
C866 C867 1.369 . S
C866 C870 1.531 . S
C867 C866 1.369 . S
C867 C868 1.410 . S
C867 C875 1.503 . S
C868 C867 1.410 . S
C868 C869 1.392 . S
C868 C871 1.511 . S
C869 C865 1.376 . S
C869 C868 1.392 . S
C869 H881 0.929 . S
C870 C866 1.531 . S
C870 H882 0.960 . S
C870 H883 0.962 . S
C870 H884 0.960 . S
C871 C868 1.511 . S
C871 H885 0.961 . S
C871 H886 0.961 . S
C871 H887 0.961 . S
C872 C873 1.370 . S
C872 C874 1.363 . S
C872 H888 0.931 . S
C873 C872 1.370 . S
C873 C877 1.408 . S
C874 C872 1.363 . S
C874 C875 1.370 . S
C874 C878 1.524 . S
C875 C867 1.503 . S
C875 C874 1.370 . S
C875 C876 1.403 . S
C876 C875 1.403 . S
C876 C877 1.404 . S
C876 C879 1.539 . S
C877 C873 1.408 . S
C877 C876 1.404 . S
C877 H889 0.930 . S
C878 C874 1.524 . S
C878 H890 0.956 . S
C878 H891 0.961 . S
C878 H892 0.961 . S
C879 C876 1.539 . S
C879 H893 0.958 . S
C879 H894 0.961 . S
C879 H895 0.960 . S
H880 C864 0.931 . S
H881 C869 0.929 . S
H882 C870 0.960 . S
H883 C870 0.962 . S
H884 C870 0.960 . S
H885 C871 0.961 . S
H886 C871 0.961 . S
H887 C871 0.961 . S
H888 C872 0.931 . S
H889 C877 0.930 . S
H890 C878 0.956 . S
H891 C878 0.961 . S
H892 C878 0.961 . S
H893 C879 0.958 . S
H894 C879 0.961 . S
H895 C879 0.960 . S
C896 C897 1.391 . S
C896 C898 1.394 . S
C896 H912 0.931 . S
C897 C896 1.391 . S
C897 C901 1.376 . S
C898 C896 1.394 . S
C898 C899 1.369 . S
C898 C902 1.531 . S
C899 C898 1.369 . S
C899 C900 1.410 . S
C899 C907 1.503 . S
C900 C899 1.410 . S
C900 C901 1.392 . S
C900 C903 1.511 . S
C901 C897 1.376 . S
C901 C900 1.392 . S
C901 H913 0.929 . S
C902 C898 1.531 . S
C902 H914 0.960 . S
C902 H915 0.962 . S
C902 H916 0.960 . S
C903 C900 1.511 . S
C903 H917 0.961 . S
C903 H918 0.961 . S
C903 H919 0.961 . S
C904 C905 1.370 . S
C904 C906 1.363 . S
C904 H920 0.931 . S
C905 C904 1.370 . S
C905 C909 1.408 . S
C906 C904 1.363 . S
C906 C907 1.370 . S
C906 C910 1.524 . S
C907 C899 1.503 . S
C907 C906 1.370 . S
C907 C908 1.403 . S
C908 C907 1.403 . S
C908 C909 1.404 . S
C908 C911 1.539 . S
C909 C905 1.408 . S
C909 C908 1.404 . S
C909 H921 0.930 . S
C910 C906 1.524 . S
C910 H922 0.956 . S
C910 H923 0.961 . S
C910 H924 0.961 . S
C911 C908 1.539 . S
C911 H925 0.958 . S
C911 H926 0.961 . S
C911 H927 0.960 . S
H912 C896 0.931 . S
H913 C901 0.929 . S
H914 C902 0.960 . S
H915 C902 0.962 . S
H916 C902 0.960 . S
H917 C903 0.961 . S
H918 C903 0.961 . S
H919 C903 0.961 . S
H920 C904 0.931 . S
H921 C909 0.930 . S
H922 C910 0.956 . S
H923 C910 0.961 . S
H924 C910 0.961 . S
H925 C911 0.958 . S
H926 C911 0.961 . S
H927 C911 0.960 . S
C928 C929 1.391 . S
C928 C930 1.394 . S
C928 H944 0.931 . S
C929 C928 1.391 . S
C929 C933 1.376 . S
C930 C928 1.394 . S
C930 C931 1.369 . S
C930 C934 1.531 . S
C931 C930 1.369 . S
C931 C932 1.410 . S
C931 C939 1.503 . S
C932 C931 1.410 . S
C932 C933 1.392 . S
C932 C935 1.511 . S
C933 C929 1.376 . S
C933 C932 1.392 . S
C933 H945 0.929 . S
C934 C930 1.531 . S
C934 H946 0.960 . S
C934 H947 0.962 . S
C934 H948 0.960 . S
C935 C932 1.511 . S
C935 H949 0.961 . S
C935 H950 0.961 . S
C935 H951 0.961 . S
C936 C937 1.370 . S
C936 C938 1.363 . S
C936 H952 0.931 . S
C937 C936 1.370 . S
C937 C941 1.408 . S
C938 C936 1.363 . S
C938 C939 1.370 . S
C938 C942 1.524 . S
C939 C931 1.503 . S
C939 C938 1.370 . S
C939 C940 1.403 . S
C940 C939 1.403 . S
C940 C941 1.404 . S
C940 C943 1.539 . S
C941 C937 1.408 . S
C941 C940 1.404 . S
C941 H953 0.930 . S
C942 C938 1.524 . S
C942 H954 0.956 . S
C942 H955 0.961 . S
C942 H956 0.961 . S
C943 C940 1.539 . S
C943 H957 0.958 . S
C943 H958 0.961 . S
C943 H959 0.960 . S
H944 C928 0.931 . S
H945 C933 0.929 . S
H946 C934 0.960 . S
H947 C934 0.962 . S
H948 C934 0.960 . S
H949 C935 0.961 . S
H950 C935 0.961 . S
H951 C935 0.961 . S
H952 C936 0.931 . S
H953 C941 0.930 . S
H954 C942 0.956 . S
H955 C942 0.961 . S
H956 C942 0.961 . S
H957 C943 0.958 . S
H958 C943 0.961 . S
H959 C943 0.960 . S
C960 C961 1.391 . S
C960 C962 1.394 . S
C960 H976 0.931 . S
C961 C960 1.391 . S
C961 C965 1.376 . S
C962 C960 1.394 . S
C962 C963 1.369 . S
C962 C966 1.531 . S
C963 C962 1.369 . S
C963 C964 1.410 . S
C963 C971 1.503 . S
C964 C963 1.410 . S
C964 C965 1.392 . S
C964 C967 1.511 . S
C965 C961 1.376 . S
C965 C964 1.392 . S
C965 H977 0.929 . S
C966 C962 1.531 . S
C966 H978 0.960 . S
C966 H979 0.962 . S
C966 H980 0.960 . S
C967 C964 1.511 . S
C967 H981 0.961 . S
C967 H982 0.961 . S
C967 H983 0.961 . S
C968 C969 1.370 . S
C968 C970 1.363 . S
C968 H984 0.931 . S
C969 C968 1.370 . S
C969 C973 1.408 . S
C970 C968 1.363 . S
C970 C971 1.370 . S
C970 C974 1.524 . S
C971 C963 1.503 . S
C971 C970 1.370 . S
C971 C972 1.403 . S
C972 C971 1.403 . S
C972 C973 1.404 . S
C972 C975 1.539 . S
C973 C969 1.408 . S
C973 C972 1.404 . S
C973 H985 0.930 . S
C974 C970 1.524 . S
C974 H986 0.956 . S
C974 H987 0.961 . S
C974 H988 0.959 . S
C975 C972 1.539 . S
C975 H989 0.958 . S
C975 H990 0.961 . S
C975 H991 0.960 . S
H976 C960 0.931 . S
H977 C965 0.929 . S
H978 C966 0.960 . S
H979 C966 0.962 . S
H980 C966 0.960 . S
H981 C967 0.961 . S
H982 C967 0.961 . S
H983 C967 0.961 . S
H984 C968 0.931 . S
H985 C973 0.930 . S
H986 C974 0.956 . S
H987 C974 0.961 . S
H988 C974 0.959 . S
H989 C975 0.958 . S
H990 C975 0.961 . S
H991 C975 0.960 . S
C992 C993 1.391 . S
C992 C994 1.394 . S
C992 H1008 0.931 . S
C993 C992 1.391 . S
C993 C997 1.376 . S
C994 C992 1.394 . S
C994 C995 1.369 . S
C994 C998 1.531 . S
C995 C994 1.369 . S
C995 C996 1.410 . S
C995 C1003 1.503 . S
C996 C995 1.410 . S
C996 C997 1.392 . S
C996 C999 1.511 . S
C997 C993 1.376 . S
C997 C996 1.392 . S
C997 H1009 0.929 . S
C998 C994 1.531 . S
C998 H1010 0.960 . S
C998 H1011 0.962 . S
C998 H1012 0.960 . S
C999 C996 1.511 . S
C999 H1013 0.961 . S
C999 H1014 0.961 . S
C999 H1015 0.961 . S
C1000 C1001 1.370 . S
C1000 C1002 1.363 . S
C1000 H1016 0.931 . S
C1001 C1000 1.370 . S
C1001 C1005 1.408 . S
C1002 C1000 1.363 . S
C1002 C1003 1.370 . S
C1002 C1006 1.524 . S
C1003 C995 1.503 . S
C1003 C1002 1.370 . S
C1003 C1004 1.403 . S
C1004 C1003 1.403 . S
C1004 C1005 1.404 . S
C1004 C1007 1.539 . S
C1005 C1001 1.408 . S
C1005 C1004 1.404 . S
C1005 H1017 0.930 . S
C1006 C1002 1.524 . S
C1006 H1018 0.956 . S
C1006 H1019 0.961 . S
C1006 H1020 0.961 . S
C1007 C1004 1.539 . S
C1007 H1021 0.958 . S
C1007 H1022 0.961 . S
C1007 H1023 0.960 . S
H1008 C992 0.931 . S
H1009 C997 0.929 . S
H1010 C998 0.960 . S
H1011 C998 0.962 . S
H1012 C998 0.960 . S
H1013 C999 0.961 . S
H1014 C999 0.961 . S
H1015 C999 0.961 . S
H1016 C1000 0.931 . S
H1017 C1005 0.930 . S
H1018 C1006 0.956 . S
H1019 C1006 0.961 . S
H1020 C1006 0.961 . S
H1021 C1007 0.958 . S
H1022 C1007 0.961 . S
H1023 C1007 0.960 . S
C1024 C1025 1.391 . S
C1024 C1026 1.394 . S
C1024 H1040 0.931 . S
C1025 C1024 1.391 . S
C1025 C1029 1.376 . S
C1026 C1024 1.394 . S
C1026 C1027 1.369 . S
C1026 C1030 1.531 . S
C1027 C1026 1.369 . S
C1027 C1028 1.410 . S
C1027 C1035 1.503 . S
C1028 C1027 1.410 . S
C1028 C1029 1.392 . S
C1028 C1031 1.511 . S
C1029 C1025 1.376 . S
C1029 C1028 1.392 . S
C1029 H1041 0.929 . S
C1030 C1026 1.531 . S
C1030 H1042 0.960 . S
C1030 H1043 0.962 . S
C1030 H1044 0.960 . S
C1031 C1028 1.511 . S
C1031 H1045 0.961 . S
C1031 H1046 0.961 . S
C1031 H1047 0.961 . S
C1032 C1033 1.370 . S
C1032 C1034 1.363 . S
C1032 H1048 0.931 . S
C1033 C1032 1.370 . S
C1033 C1037 1.408 . S
C1034 C1032 1.363 . S
C1034 C1035 1.370 . S
C1034 C1038 1.524 . S
C1035 C1027 1.503 . S
C1035 C1034 1.370 . S
C1035 C1036 1.403 . S
C1036 C1035 1.403 . S
C1036 C1037 1.404 . S
C1036 C1039 1.539 . S
C1037 C1033 1.408 . S
C1037 C1036 1.404 . S
C1037 H1049 0.930 . S
C1038 C1034 1.524 . S
C1038 H1050 0.956 . S
C1038 H1051 0.961 . S
C1038 H1052 0.961 . S
C1039 C1036 1.539 . S
C1039 H1053 0.958 . S
C1039 H1054 0.961 . S
C1039 H1055 0.960 . S
H1040 C1024 0.931 . S
H1041 C1029 0.929 . S
H1042 C1030 0.960 . S
H1043 C1030 0.962 . S
H1044 C1030 0.960 . S
H1045 C1031 0.961 . S
H1046 C1031 0.961 . S
H1047 C1031 0.961 . S
H1048 C1032 0.931 . S
H1049 C1037 0.930 . S
H1050 C1038 0.956 . S
H1051 C1038 0.961 . S
H1052 C1038 0.961 . S
H1053 C1039 0.958 . S
H1054 C1039 0.961 . S
H1055 C1039 0.960 . S
C1056 C1057 1.391 . S
C1056 C1058 1.394 . S
C1056 H1072 0.931 . S
C1057 C1056 1.391 . S
C1057 C1061 1.376 . S
C1058 C1056 1.394 . S
C1058 C1059 1.369 . S
C1058 C1062 1.531 . S
C1059 C1058 1.369 . S
C1059 C1060 1.410 . S
C1059 C1067 1.503 . S
C1060 C1059 1.410 . S
C1060 C1061 1.392 . S
C1060 C1063 1.511 . S
C1061 C1057 1.376 . S
C1061 C1060 1.392 . S
C1061 H1073 0.929 . S
C1062 C1058 1.531 . S
C1062 H1074 0.960 . S
C1062 H1075 0.962 . S
C1062 H1076 0.960 . S
C1063 C1060 1.511 . S
C1063 H1077 0.961 . S
C1063 H1078 0.961 . S
C1063 H1079 0.961 . S
C1064 C1065 1.370 . S
C1064 C1066 1.363 . S
C1064 H1080 0.931 1_554 S
C1065 C1064 1.370 . S
C1065 C1069 1.408 . S
C1066 C1064 1.363 . S
C1066 C1067 1.370 . S
C1066 C1070 1.524 . S
C1067 C1059 1.503 . S
C1067 C1066 1.370 . S
C1067 C1068 1.403 . S
C1068 C1067 1.403 . S
C1068 C1069 1.404 . S
C1068 C1071 1.539 . S
C1069 C1065 1.408 . S
C1069 C1068 1.404 . S
C1069 H1081 0.930 . S
C1070 C1066 1.524 . S
C1070 H1082 0.956 . S
C1070 H1083 0.961 . S
C1070 H1084 0.961 . S
C1071 C1068 1.539 . S
C1071 H1085 0.958 . S
C1071 H1086 0.961 . S
C1071 H1087 0.960 . S
H1072 C1056 0.931 . S
H1073 C1061 0.929 . S
H1074 C1062 0.960 . S
H1075 C1062 0.962 . S
H1076 C1062 0.960 . S
H1077 C1063 0.961 . S
H1078 C1063 0.961 . S
H1079 C1063 0.961 . S
H1080 C1064 0.931 1_556 S
H1081 C1069 0.930 . S
H1082 C1070 0.956 . S
H1083 C1070 0.961 . S
H1084 C1070 0.961 . S
H1085 C1071 0.958 . S
H1086 C1071 0.961 . S
H1087 C1071 0.960 . S
C1088 C1089 1.391 . S
C1088 C1090 1.394 . S
C1088 H1104 0.931 . S
C1089 C1088 1.391 . S
C1089 C1093 1.376 . S
C1090 C1088 1.394 . S
C1090 C1091 1.369 . S
C1090 C1094 1.531 . S
C1091 C1090 1.369 . S
C1091 C1092 1.410 . S
C1091 C1099 1.503 . S
C1092 C1091 1.410 . S
C1092 C1093 1.392 . S
C1092 C1095 1.511 . S
C1093 C1089 1.376 . S
C1093 C1092 1.392 . S
C1093 H1105 0.929 . S
C1094 C1090 1.531 . S
C1094 H1106 0.960 . S
C1094 H1107 0.962 . S
C1094 H1108 0.960 . S
C1095 C1092 1.511 . S
C1095 H1109 0.961 . S
C1095 H1110 0.961 . S
C1095 H1111 0.961 . S
C1096 C1097 1.370 . S
C1096 C1098 1.363 . S
C1096 H1112 0.931 . S
C1097 C1096 1.370 . S
C1097 C1101 1.408 . S
C1098 C1096 1.363 . S
C1098 C1099 1.370 . S
C1098 C1102 1.524 . S
C1099 C1091 1.503 . S
C1099 C1098 1.370 . S
C1099 C1100 1.403 . S
C1100 C1099 1.403 . S
C1100 C1101 1.404 . S
C1100 C1103 1.539 . S
C1101 C1097 1.408 . S
C1101 C1100 1.404 . S
C1101 H1113 0.930 . S
C1102 C1098 1.524 . S
C1102 H1114 0.956 . S
C1102 H1115 0.961 . S
C1102 H1116 0.961 . S
C1103 C1100 1.539 . S
C1103 H1117 0.958 . S
C1103 H1118 0.961 . S
C1103 H1119 0.960 . S
H1104 C1088 0.931 . S
H1105 C1093 0.929 . S
H1106 C1094 0.960 . S
H1107 C1094 0.962 . S
H1108 C1094 0.960 . S
H1109 C1095 0.961 . S
H1110 C1095 0.961 . S
H1111 C1095 0.961 . S
H1112 C1096 0.931 . S
H1113 C1101 0.930 . S
H1114 C1102 0.956 . S
H1115 C1102 0.961 . S
H1116 C1102 0.961 . S
H1117 C1103 0.958 . S
H1118 C1103 0.961 . S
H1119 C1103 0.960 . S
C1120 C1121 1.391 . S
C1120 C1122 1.394 . S
C1120 H1136 0.931 . S
C1121 C1120 1.391 . S
C1121 C1125 1.376 . S
C1122 C1120 1.394 . S
C1122 C1123 1.369 . S
C1122 C1126 1.531 . S
C1123 C1122 1.369 . S
C1123 C1124 1.410 . S
C1123 C1131 1.503 . S
C1124 C1123 1.410 . S
C1124 C1125 1.392 . S
C1124 C1127 1.511 . S
C1125 C1121 1.376 . S
C1125 C1124 1.392 . S
C1125 H1137 0.929 . S
C1126 C1122 1.531 . S
C1126 H1138 0.960 . S
C1126 H1139 0.962 . S
C1126 H1140 0.960 . S
C1127 C1124 1.511 . S
C1127 H1141 0.961 . S
C1127 H1142 0.961 . S
C1127 H1143 0.961 . S
C1128 C1129 1.370 . S
C1128 C1130 1.363 . S
C1128 H1144 0.931 . S
C1129 C1128 1.370 . S
C1129 C1133 1.408 . S
C1130 C1128 1.363 . S
C1130 C1131 1.370 . S
C1130 C1134 1.524 . S
C1131 C1123 1.503 . S
C1131 C1130 1.370 . S
C1131 C1132 1.403 . S
C1132 C1131 1.403 . S
C1132 C1133 1.404 . S
C1132 C1135 1.539 . S
C1133 C1129 1.408 . S
C1133 C1132 1.404 . S
C1133 H1145 0.930 . S
C1134 C1130 1.524 . S
C1134 H1146 0.956 . S
C1134 H1147 0.961 . S
C1134 H1148 0.961 . S
C1135 C1132 1.539 . S
C1135 H1149 0.958 . S
C1135 H1150 0.961 . S
C1135 H1151 0.960 . S
H1136 C1120 0.931 . S
H1137 C1125 0.929 . S
H1138 C1126 0.960 . S
H1139 C1126 0.962 . S
H1140 C1126 0.960 . S
H1141 C1127 0.961 . S
H1142 C1127 0.961 . S
H1143 C1127 0.961 . S
H1144 C1128 0.931 . S
H1145 C1133 0.930 . S
H1146 C1134 0.956 . S
H1147 C1134 0.961 . S
H1148 C1134 0.961 . S
H1149 C1135 0.958 . S
H1150 C1135 0.961 . S
H1151 C1135 0.960 . S
C1152 C1153 1.391 . S
C1152 C1154 1.394 . S
C1152 H1168 0.931 . S
C1153 C1152 1.391 . S
C1153 C1157 1.376 . S
C1154 C1152 1.394 . S
C1154 C1155 1.369 . S
C1154 C1158 1.531 . S
C1155 C1154 1.369 . S
C1155 C1156 1.410 . S
C1155 C1163 1.503 . S
C1156 C1155 1.410 . S
C1156 C1157 1.392 . S
C1156 C1159 1.511 . S
C1157 C1153 1.376 . S
C1157 C1156 1.392 . S
C1157 H1169 0.929 . S
C1158 C1154 1.531 . S
C1158 H1170 0.960 . S
C1158 H1171 0.962 . S
C1158 H1172 0.960 . S
C1159 C1156 1.511 . S
C1159 H1173 0.961 . S
C1159 H1174 0.961 . S
C1159 H1175 0.961 . S
C1160 C1161 1.370 . S
C1160 C1162 1.363 . S
C1160 H1176 0.931 . S
C1161 C1160 1.370 . S
C1161 C1165 1.408 . S
C1162 C1160 1.363 . S
C1162 C1163 1.370 . S
C1162 C1166 1.524 . S
C1163 C1155 1.503 . S
C1163 C1162 1.370 . S
C1163 C1164 1.403 . S
C1164 C1163 1.403 . S
C1164 C1165 1.404 . S
C1164 C1167 1.539 . S
C1165 C1161 1.408 . S
C1165 C1164 1.404 . S
C1165 H1177 0.930 . S
C1166 C1162 1.524 . S
C1166 H1178 0.956 . S
C1166 H1179 0.961 . S
C1166 H1180 0.961 . S
C1167 C1164 1.539 . S
C1167 H1181 0.958 . S
C1167 H1182 0.961 . S
C1167 H1183 0.960 . S
H1168 C1152 0.931 . S
H1169 C1157 0.929 . S
H1170 C1158 0.960 . S
H1171 C1158 0.962 . S
H1172 C1158 0.960 . S
H1173 C1159 0.961 . S
H1174 C1159 0.961 . S
H1175 C1159 0.961 . S
H1176 C1160 0.931 . S
H1177 C1165 0.930 . S
H1178 C1166 0.956 . S
H1179 C1166 0.961 . S
H1180 C1166 0.961 . S
H1181 C1167 0.958 . S
H1182 C1167 0.961 . S
H1183 C1167 0.960 . S
C1184 C1185 1.391 . S
C1184 C1186 1.394 . S
C1184 H1200 0.931 . S
C1185 C1184 1.391 . S
C1185 C1189 1.376 . S
C1186 C1184 1.394 . S
C1186 C1187 1.369 . S
C1186 C1190 1.531 . S
C1187 C1186 1.369 . S
C1187 C1188 1.410 . S
C1187 C1195 1.503 . S
C1188 C1187 1.410 . S
C1188 C1189 1.392 . S
C1188 C1191 1.511 . S
C1189 C1185 1.376 . S
C1189 C1188 1.392 . S
C1189 H1201 0.929 . S
C1190 C1186 1.531 . S
C1190 H1202 0.960 . S
C1190 H1203 0.962 . S
C1190 H1204 0.960 . S
C1191 C1188 1.511 . S
C1191 H1205 0.961 . S
C1191 H1206 0.961 . S
C1191 H1207 0.961 . S
C1192 C1193 1.370 . S
C1192 C1194 1.363 . S
C1192 H1208 0.931 . S
C1193 C1192 1.370 . S
C1193 C1197 1.408 . S
C1194 C1192 1.363 . S
C1194 C1195 1.370 . S
C1194 C1198 1.524 . S
C1195 C1187 1.503 . S
C1195 C1194 1.370 . S
C1195 C1196 1.403 . S
C1196 C1195 1.403 . S
C1196 C1197 1.404 . S
C1196 C1199 1.539 . S
C1197 C1193 1.408 . S
C1197 C1196 1.404 . S
C1197 H1209 0.930 . S
C1198 C1194 1.524 . S
C1198 H1210 0.956 . S
C1198 H1211 0.961 . S
C1198 H1212 0.961 . S
C1199 C1196 1.539 . S
C1199 H1213 0.958 . S
C1199 H1214 0.961 . S
C1199 H1215 0.960 . S
H1200 C1184 0.931 . S
H1201 C1189 0.929 . S
H1202 C1190 0.960 . S
H1203 C1190 0.962 . S
H1204 C1190 0.960 . S
H1205 C1191 0.961 . S
H1206 C1191 0.961 . S
H1207 C1191 0.961 . S
H1208 C1192 0.931 . S
H1209 C1197 0.930 . S
H1210 C1198 0.956 . S
H1211 C1198 0.961 . S
H1212 C1198 0.961 . S
H1213 C1199 0.958 . S
H1214 C1199 0.961 . S
H1215 C1199 0.960 . S
C1216 C1217 1.391 . S
C1216 C1218 1.394 . S
C1216 H1232 0.931 . S
C1217 C1216 1.391 . S
C1217 C1221 1.376 . S
C1218 C1216 1.394 . S
C1218 C1219 1.369 . S
C1218 C1222 1.531 . S
C1219 C1218 1.369 . S
C1219 C1220 1.410 . S
C1219 C1227 1.503 . S
C1220 C1219 1.410 . S
C1220 C1221 1.392 . S
C1220 C1223 1.511 . S
C1221 C1217 1.376 . S
C1221 C1220 1.392 . S
C1221 H1233 0.929 . S
C1222 C1218 1.531 . S
C1222 H1234 0.960 . S
C1222 H1235 0.962 . S
C1222 H1236 0.960 . S
C1223 C1220 1.511 . S
C1223 H1237 0.961 . S
C1223 H1238 0.961 . S
C1223 H1239 0.961 . S
C1224 C1225 1.370 . S
C1224 C1226 1.363 . S
C1224 H1240 0.931 . S
C1225 C1224 1.370 . S
C1225 C1229 1.408 . S
C1226 C1224 1.363 . S
C1226 C1227 1.370 . S
C1226 C1230 1.524 . S
C1227 C1219 1.503 . S
C1227 C1226 1.370 . S
C1227 C1228 1.403 . S
C1228 C1227 1.403 . S
C1228 C1229 1.404 . S
C1228 C1231 1.539 . S
C1229 C1225 1.408 . S
C1229 C1228 1.404 . S
C1229 H1241 0.930 . S
C1230 C1226 1.524 . S
C1230 H1242 0.956 . S
C1230 H1243 0.961 . S
C1230 H1244 0.961 . S
C1231 C1228 1.539 . S
C1231 H1245 0.958 . S
C1231 H1246 0.961 . S
C1231 H1247 0.960 . S
H1232 C1216 0.931 . S
H1233 C1221 0.929 . S
H1234 C1222 0.960 . S
H1235 C1222 0.962 . S
H1236 C1222 0.960 . S
H1237 C1223 0.961 . S
H1238 C1223 0.961 . S
H1239 C1223 0.961 . S
H1240 C1224 0.931 . S
H1241 C1229 0.930 . S
H1242 C1230 0.956 . S
H1243 C1230 0.961 . S
H1244 C1230 0.961 . S
H1245 C1231 0.958 . S
H1246 C1231 0.961 . S
H1247 C1231 0.960 . S
C1248 C1249 1.391 . S
C1248 C1250 1.394 . S
C1248 H1264 0.931 . S
C1249 C1248 1.391 . S
C1249 C1253 1.376 . S
C1250 C1248 1.394 . S
C1250 C1251 1.369 . S
C1250 C1254 1.531 . S
C1251 C1250 1.369 . S
C1251 C1252 1.410 . S
C1251 C1259 1.503 . S
C1252 C1251 1.410 . S
C1252 C1253 1.392 . S
C1252 C1255 1.511 . S
C1253 C1249 1.376 . S
C1253 C1252 1.392 . S
C1253 H1265 0.929 1_554 S
C1254 C1250 1.531 . S
C1254 H1266 0.960 . S
C1254 H1267 0.962 . S
C1254 H1268 0.960 . S
C1255 C1252 1.511 . S
C1255 H1269 0.961 . S
C1255 H1270 0.961 . S
C1255 H1271 0.961 . S
C1256 C1257 1.370 . S
C1256 C1258 1.363 . S
C1256 H1272 0.931 . S
C1257 C1256 1.370 . S
C1257 C1261 1.408 . S
C1258 C1256 1.363 . S
C1258 C1259 1.370 . S
C1258 C1262 1.524 . S
C1259 C1251 1.503 . S
C1259 C1258 1.370 . S
C1259 C1260 1.403 . S
C1260 C1259 1.403 . S
C1260 C1261 1.404 . S
C1260 C1263 1.539 . S
C1261 C1257 1.408 . S
C1261 C1260 1.404 . S
C1261 H1273 0.930 . S
C1262 C1258 1.524 . S
C1262 H1274 0.956 . S
C1262 H1275 0.961 . S
C1262 H1276 0.961 . S
C1263 C1260 1.539 . S
C1263 H1277 0.958 . S
C1263 H1278 0.961 . S
C1263 H1279 0.960 . S
H1264 C1248 0.931 . S
H1265 C1253 0.929 1_556 S
H1266 C1254 0.960 . S
H1267 C1254 0.962 . S
H1268 C1254 0.960 . S
H1269 C1255 0.961 . S
H1270 C1255 0.961 . S
H1271 C1255 0.961 . S
H1272 C1256 0.931 . S
H1273 C1261 0.930 . S
H1274 C1262 0.956 . S
H1275 C1262 0.961 . S
H1276 C1262 0.961 . S
H1277 C1263 0.958 . S
H1278 C1263 0.961 . S
H1279 C1263 0.960 . S
C1280 C1281 1.391 . S
C1280 C1282 1.394 . S
C1280 H1296 0.931 . S
C1281 C1280 1.391 . S
C1281 C1285 1.376 . S
C1282 C1280 1.394 . S
C1282 C1283 1.369 . S
C1282 C1286 1.531 . S
C1283 C1282 1.369 . S
C1283 C1284 1.410 . S
C1283 C1291 1.503 . S
C1284 C1283 1.410 . S
C1284 C1285 1.392 . S
C1284 C1287 1.511 . S
C1285 C1281 1.376 . S
C1285 C1284 1.392 . S
C1285 H1297 0.929 . S
C1286 C1282 1.531 . S
C1286 H1298 0.960 . S
C1286 H1299 0.962 . S
C1286 H1300 0.960 . S
C1287 C1284 1.511 . S
C1287 H1301 0.961 . S
C1287 H1302 0.961 . S
C1287 H1303 0.961 . S
C1288 C1289 1.370 . S
C1288 C1290 1.363 . S
C1288 H1304 0.931 . S
C1289 C1288 1.370 . S
C1289 C1293 1.408 . S
C1290 C1288 1.363 . S
C1290 C1291 1.370 . S
C1290 C1294 1.524 . S
C1291 C1283 1.503 . S
C1291 C1290 1.370 . S
C1291 C1292 1.403 . S
C1292 C1291 1.403 . S
C1292 C1293 1.404 . S
C1292 C1295 1.539 . S
C1293 C1289 1.408 . S
C1293 C1292 1.404 . S
C1293 H1305 0.930 . S
C1294 C1290 1.524 . S
C1294 H1306 0.956 . S
C1294 H1307 0.961 . S
C1294 H1308 0.961 . S
C1295 C1292 1.539 . S
C1295 H1309 0.958 . S
C1295 H1310 0.961 . S
C1295 H1311 0.960 . S
H1296 C1280 0.931 . S
H1297 C1285 0.929 . S
H1298 C1286 0.960 . S
H1299 C1286 0.962 . S
H1300 C1286 0.960 . S
H1301 C1287 0.961 . S
H1302 C1287 0.961 . S
H1303 C1287 0.961 . S
H1304 C1288 0.931 . S
H1305 C1293 0.930 . S
H1306 C1294 0.956 . S
H1307 C1294 0.961 . S
H1308 C1294 0.961 . S
H1309 C1295 0.958 . S
H1310 C1295 0.961 . S
H1311 C1295 0.960 . S
C1312 C1313 1.391 . S
C1312 C1314 1.394 . S
C1312 H1328 0.931 . S
C1313 C1312 1.391 . S
C1313 C1317 1.376 . S
C1314 C1312 1.394 . S
C1314 C1315 1.369 . S
C1314 C1318 1.531 . S
C1315 C1314 1.369 . S
C1315 C1316 1.410 . S
C1315 C1323 1.503 . S
C1316 C1315 1.410 . S
C1316 C1317 1.392 . S
C1316 C1319 1.511 . S
C1317 C1313 1.376 . S
C1317 C1316 1.392 . S
C1317 H1329 0.929 . S
C1318 C1314 1.531 . S
C1318 H1330 0.960 . S
C1318 H1331 0.962 . S
C1318 H1332 0.960 . S
C1319 C1316 1.511 . S
C1319 H1333 0.961 . S
C1319 H1334 0.961 . S
C1319 H1335 0.961 . S
C1320 C1321 1.370 . S
C1320 C1322 1.363 . S
C1320 H1336 0.931 . S
C1321 C1320 1.370 . S
C1321 C1325 1.408 . S
C1322 C1320 1.363 . S
C1322 C1323 1.370 . S
C1322 C1326 1.524 . S
C1323 C1315 1.503 . S
C1323 C1322 1.370 . S
C1323 C1324 1.403 . S
C1324 C1323 1.403 . S
C1324 C1325 1.404 . S
C1324 C1327 1.539 . S
C1325 C1321 1.408 . S
C1325 C1324 1.404 . S
C1325 H1337 0.930 . S
C1326 C1322 1.524 . S
C1326 H1338 0.956 . S
C1326 H1339 0.961 . S
C1326 H1340 0.961 . S
C1327 C1324 1.539 . S
C1327 H1341 0.958 . S
C1327 H1342 0.961 . S
C1327 H1343 0.960 . S
H1328 C1312 0.931 . S
H1329 C1317 0.929 . S
H1330 C1318 0.960 . S
H1331 C1318 0.962 . S
H1332 C1318 0.960 . S
H1333 C1319 0.961 . S
H1334 C1319 0.961 . S
H1335 C1319 0.961 . S
H1336 C1320 0.931 . S
H1337 C1325 0.930 . S
H1338 C1326 0.956 . S
H1339 C1326 0.961 . S
H1340 C1326 0.961 . S
H1341 C1327 0.958 . S
H1342 C1327 0.961 . S
H1343 C1327 0.960 . S
C1344 C1345 1.391 . S
C1344 C1346 1.394 1_655 S
C1344 H1360 0.931 . S
C1345 C1344 1.391 . S
C1345 C1349 1.376 . S
C1346 C1344 1.394 1_455 S
C1346 C1347 1.369 1_455 S
C1346 C1350 1.531 . S
C1347 C1346 1.369 1_655 S
C1347 C1348 1.410 . S
C1347 C1355 1.503 1_665 S
C1348 C1347 1.410 . S
C1348 C1349 1.392 . S
C1348 C1351 1.511 1_565 S
C1349 C1345 1.376 . S
C1349 C1348 1.392 . S
C1349 H1361 0.929 . S
C1350 C1346 1.531 . S
C1350 H1362 0.960 . S
C1350 H1363 0.962 . S
C1350 H1364 0.960 . S
C1351 C1348 1.511 1_545 S
C1351 H1365 0.961 . S
C1351 H1366 0.961 . S
C1351 H1367 0.961 . S
C1352 C1353 1.370 . S
C1352 C1354 1.363 . S
C1352 H1368 0.931 . S
C1353 C1352 1.370 . S
C1353 C1357 1.408 . S
C1354 C1352 1.363 . S
C1354 C1355 1.370 . S
C1354 C1358 1.524 . S
C1355 C1347 1.503 1_445 S
C1355 C1354 1.370 . S
C1355 C1356 1.403 1_545 S
C1356 C1355 1.403 1_565 S
C1356 C1357 1.404 1_565 S
C1356 C1359 1.551 . S
C1357 C1353 1.408 . S
C1357 C1356 1.404 1_545 S
C1357 H1369 0.930 . S
C1358 C1354 1.524 . S
C1358 H1370 0.956 . S
C1358 H1371 0.961 1_455 S
C1358 H1372 0.961 . S
C1359 C1356 1.551 . S
C1359 H1373 0.976 . S
C1359 H1374 0.957 1_455 S
C1359 H1375 0.935 1_455 S
H1360 C1344 0.931 . S
H1361 C1349 0.929 . S
H1362 C1350 0.960 . S
H1363 C1350 0.962 . S
H1364 C1350 0.960 . S
H1365 C1351 0.961 . S
H1366 C1351 0.961 . S
H1367 C1351 0.961 . S
H1368 C1352 0.931 . S
H1369 C1357 0.930 . S
H1370 C1358 0.956 . S
H1371 C1358 0.961 1_655 S
H1372 C1358 0.961 . S
H1373 C1359 0.976 . S
H1374 C1359 0.957 1_655 S
H1375 C1359 0.935 1_655 S
C1376 C1377 1.391 . S
C1376 C1378 1.394 . S
C1376 H1392 0.931 . S
C1377 C1376 1.391 . S
C1377 C1381 1.376 . S
C1378 C1376 1.394 . S
C1378 C1379 1.369 . S
C1378 C1382 1.531 . S
C1379 C1378 1.369 . S
C1379 C1380 1.410 1_565 S
C1379 C1387 1.503 1_565 S
C1380 C1379 1.410 1_545 S
C1380 C1381 1.392 1_545 S
C1380 C1383 1.511 . S
C1381 C1377 1.376 . S
C1381 C1380 1.392 1_565 S
C1381 H1393 0.929 1_565 S
C1382 C1378 1.531 . S
C1382 H1394 0.960 . S
C1382 H1395 0.962 . S
C1382 H1396 0.960 . S
C1383 C1380 1.511 . S
C1383 H1397 0.961 . S
C1383 H1398 0.961 . S
C1383 H1399 0.961 . S
C1384 C1385 1.370 . S
C1384 C1386 1.363 . S
C1384 H1400 0.931 . S
C1385 C1384 1.370 . S
C1385 C1389 1.408 . S
C1386 C1384 1.363 . S
C1386 C1387 1.370 . S
C1386 C1390 1.524 1_545 S
C1387 C1379 1.503 1_545 S
C1387 C1386 1.370 . S
C1387 C1388 1.403 . S
C1388 C1387 1.403 . S
C1388 C1389 1.404 . S
C1388 C1391 1.539 . S
C1389 C1385 1.408 . S
C1389 C1388 1.404 . S
C1389 H1401 0.930 . S
C1390 C1386 1.524 1_565 S
C1390 H1402 0.956 . S
C1390 H1403 0.961 . S
C1390 H1404 0.961 . S
C1391 C1388 1.539 . S
C1391 H1405 0.958 . S
C1391 H1406 0.961 . S
C1391 H1407 0.960 . S
H1392 C1376 0.931 . S
H1393 C1381 0.929 1_545 S
H1394 C1382 0.960 . S
H1395 C1382 0.962 . S
H1396 C1382 0.960 . S
H1397 C1383 0.961 . S
H1398 C1383 0.961 . S
H1399 C1383 0.961 . S
H1400 C1384 0.931 . S
H1401 C1389 0.930 . S
H1402 C1390 0.956 . S
H1403 C1390 0.961 . S
H1404 C1390 0.961 . S
H1405 C1391 0.958 . S
H1406 C1391 0.961 . S
H1407 C1391 0.960 . S
C1408 C1409 1.391 . S
C1408 C1410 1.394 . S
C1408 H1424 0.931 . S
C1409 C1408 1.391 . S
C1409 C1413 1.376 . S
C1410 C1408 1.394 . S
C1410 C1411 1.369 . S
C1410 C1414 1.531 . S
C1411 C1410 1.369 . S
C1411 C1412 1.410 . S
C1411 C1419 1.503 1_655 S
C1412 C1411 1.410 . S
C1412 C1413 1.392 . S
C1412 C1415 1.511 . S
C1413 C1409 1.376 . S
C1413 C1412 1.392 . S
C1413 H1425 0.929 . S
C1414 C1410 1.531 . S
C1414 H1426 0.960 . S
C1414 H1427 0.962 1_655 S
C1414 H1428 0.960 . S
C1415 C1412 1.511 . S
C1415 H1429 0.961 . S
C1415 H1430 0.961 . S
C1415 H1431 0.961 . S
C1416 C1417 1.370 . S
C1416 C1418 1.363 . S
C1416 H1432 0.931 . S
C1417 C1416 1.370 . S
C1417 C1421 1.408 . S
C1418 C1416 1.363 . S
C1418 C1419 1.370 . S
C1418 C1422 1.524 . S
C1419 C1411 1.503 1_455 S
C1419 C1418 1.370 . S
C1419 C1420 1.403 1_455 S
C1420 C1419 1.403 1_655 S
C1420 C1421 1.404 1_655 S
C1420 C1423 1.539 . S
C1421 C1417 1.408 . S
C1421 C1420 1.404 1_455 S
C1421 H1433 0.930 . S
C1422 C1418 1.524 . S
C1422 H1434 0.956 . S
C1422 H1435 0.961 . S
C1422 H1436 0.961 . S
C1423 C1420 1.539 . S
C1423 H1437 0.958 . S
C1423 H1438 0.961 . S
C1423 H1439 0.960 . S
H1424 C1408 0.931 . S
H1425 C1413 0.929 . S
H1426 C1414 0.960 . S
H1427 C1414 0.962 1_455 S
H1428 C1414 0.960 . S
H1429 C1415 0.961 . S
H1430 C1415 0.961 . S
H1431 C1415 0.961 . S
H1432 C1416 0.931 . S
H1433 C1421 0.930 . S
H1434 C1422 0.956 . S
H1435 C1422 0.961 . S
H1436 C1422 0.961 . S
H1437 C1423 0.958 . S
H1438 C1423 0.961 . S
H1439 C1423 0.960 . S
C1440 C1441 1.391 . S
C1440 C1442 1.394 . S
C1440 H1456 0.931 . S
C1441 C1440 1.391 . S
C1441 C1445 1.376 . S
C1442 C1440 1.394 . S
C1442 C1443 1.369 . S
C1442 C1446 1.531 . S
C1443 C1442 1.369 . S
C1443 C1444 1.410 . S
C1443 C1451 1.503 . S
C1444 C1443 1.410 . S
C1444 C1445 1.392 . S
C1444 C1447 1.511 . S
C1445 C1441 1.376 . S
C1445 C1444 1.392 . S
C1445 H1457 0.929 . S
C1446 C1442 1.531 . S
C1446 H1458 0.960 . S
C1446 H1459 0.962 . S
C1446 H1460 0.960 . S
C1447 C1444 1.511 . S
C1447 H1461 0.961 . S
C1447 H1462 0.961 . S
C1447 H1463 0.961 . S
C1448 C1449 1.370 . S
C1448 C1450 1.363 . S
C1448 H1464 0.931 . S
C1449 C1448 1.370 . S
C1449 C1453 1.408 . S
C1450 C1448 1.363 . S
C1450 C1451 1.370 . S
C1450 C1454 1.524 . S
C1451 C1443 1.503 . S
C1451 C1450 1.370 . S
C1451 C1452 1.403 . S
C1452 C1451 1.403 . S
C1452 C1453 1.404 . S
C1452 C1455 1.539 . S
C1453 C1449 1.408 . S
C1453 C1452 1.404 . S
C1453 H1465 0.930 . S
C1454 C1450 1.524 . S
C1454 H1466 0.956 . S
C1454 H1467 0.961 . S
C1454 H1468 0.961 . S
C1455 C1452 1.539 . S
C1455 H1469 0.958 . S
C1455 H1470 0.961 . S
C1455 H1471 0.960 . S
H1456 C1440 0.931 . S
H1457 C1445 0.929 . S
H1458 C1446 0.960 . S
H1459 C1446 0.962 . S
H1460 C1446 0.960 . S
H1461 C1447 0.961 . S
H1462 C1447 0.961 . S
H1463 C1447 0.961 . S
H1464 C1448 0.931 . S
H1465 C1453 0.930 . S
H1466 C1454 0.956 . S
H1467 C1454 0.961 . S
H1468 C1454 0.961 . S
H1469 C1455 0.958 . S
H1470 C1455 0.961 . S
H1471 C1455 0.960 . S
C1472 C1473 1.391 . S
C1472 C1474 1.394 . S
C1472 H1488 0.931 . S
C1473 C1472 1.391 . S
C1473 C1477 1.376 . S
C1474 C1472 1.394 . S
C1474 C1475 1.369 . S
C1474 C1478 1.531 . S
C1475 C1474 1.369 . S
C1475 C1476 1.410 1_545 S
C1475 C1483 1.503 1_545 S
C1476 C1475 1.410 1_565 S
C1476 C1477 1.392 1_565 S
C1476 C1479 1.511 . S
C1477 C1473 1.376 . S
C1477 C1476 1.392 1_545 S
C1477 H1489 0.929 1_545 S
C1478 C1474 1.531 . S
C1478 H1490 0.960 . S
C1478 H1491 0.962 . S
C1478 H1492 0.960 . S
C1479 C1476 1.511 . S
C1479 H1493 0.961 . S
C1479 H1494 0.961 . S
C1479 H1495 0.961 . S
C1480 C1481 1.370 . S
C1480 C1482 1.363 . S
C1480 H1496 0.931 . S
C1481 C1480 1.370 . S
C1481 C1485 1.408 . S
C1482 C1480 1.363 . S
C1482 C1483 1.370 . S
C1482 C1486 1.524 1_565 S
C1483 C1475 1.503 1_565 S
C1483 C1482 1.370 . S
C1483 C1484 1.403 . S
C1484 C1483 1.403 . S
C1484 C1485 1.404 . S
C1484 C1487 1.539 . S
C1485 C1481 1.408 . S
C1485 C1484 1.404 . S
C1485 H1497 0.930 . S
C1486 C1482 1.524 1_545 S
C1486 H1498 0.956 . S
C1486 H1499 0.961 . S
C1486 H1500 0.961 . S
C1487 C1484 1.539 . S
C1487 H1501 0.958 . S
C1487 H1502 0.961 . S
C1487 H1503 0.960 . S
H1488 C1472 0.931 . S
H1489 C1477 0.929 1_565 S
H1490 C1478 0.960 . S
H1491 C1478 0.962 . S
H1492 C1478 0.960 . S
H1493 C1479 0.961 . S
H1494 C1479 0.961 . S
H1495 C1479 0.961 . S
H1496 C1480 0.931 . S
H1497 C1485 0.930 . S
H1498 C1486 0.956 . S
H1499 C1486 0.961 . S
H1500 C1486 0.961 . S
H1501 C1487 0.958 . S
H1502 C1487 0.961 . S
H1503 C1487 0.960 . S
C1504 C1505 1.391 . S
C1504 C1506 1.394 . S
C1504 H1520 0.931 . S
C1505 C1504 1.391 . S
C1505 C1509 1.376 . S
C1506 C1504 1.394 . S
C1506 C1507 1.369 . S
C1506 C1510 1.531 . S
C1507 C1506 1.369 . S
C1507 C1508 1.410 1_655 S
C1507 C1515 1.503 1_655 S
C1508 C1507 1.410 1_455 S
C1508 C1509 1.392 1_455 S
C1508 C1511 1.511 . S
C1509 C1505 1.376 . S
C1509 C1508 1.392 1_655 S
C1509 H1521 0.929 . S
C1510 C1506 1.531 . S
C1510 H1522 0.960 . S
C1510 H1523 0.962 . S
C1510 H1524 0.960 . S
C1511 C1508 1.511 . S
C1511 H1525 0.961 . S
C1511 H1526 0.961 . S
C1511 H1527 0.961 . S
C1512 C1513 1.370 . S
C1512 C1514 1.363 . S
C1512 H1528 0.931 . S
C1513 C1512 1.370 . S
C1513 C1517 1.408 . S
C1514 C1512 1.363 . S
C1514 C1515 1.370 . S
C1514 C1518 1.524 1_455 S
C1515 C1507 1.503 1_455 S
C1515 C1514 1.370 . S
C1515 C1516 1.403 . S
C1516 C1515 1.403 . S
C1516 C1517 1.404 . S
C1516 C1519 1.539 . S
C1517 C1513 1.408 . S
C1517 C1516 1.404 . S
C1517 H1529 0.930 . S
C1518 C1514 1.524 1_655 S
C1518 H1530 0.956 . S
C1518 H1531 0.961 1_655 S
C1518 H1532 0.961 1_655 S
C1519 C1516 1.539 . S
C1519 H1533 0.958 . S
C1519 H1534 0.961 . S
C1519 H1535 0.960 . S
H1520 C1504 0.931 . S
H1521 C1509 0.929 . S
H1522 C1510 0.960 . S
H1523 C1510 0.962 . S
H1524 C1510 0.960 . S
H1525 C1511 0.961 . S
H1526 C1511 0.961 . S
H1527 C1511 0.961 . S
H1528 C1512 0.931 . S
H1529 C1517 0.930 . S
H1530 C1518 0.956 . S
H1531 C1518 0.961 1_455 S
H1532 C1518 0.961 1_455 S
H1533 C1519 0.958 . S
H1534 C1519 0.961 . S
H1535 C1519 0.960 . S
C1536 C1537 1.391 1_556 S
C1536 C1538 1.394 . S
C1536 H1552 0.931 . S
C1537 C1536 1.391 1_554 S
C1537 C1541 1.376 . S
C1538 C1536 1.394 . S
C1538 C1539 1.369 1_556 S
C1538 C1542 1.531 . S
C1539 C1538 1.369 1_554 S
C1539 C1540 1.410 . S
C1539 C1547 1.503 1_554 S
C1540 C1539 1.410 . S
C1540 C1541 1.392 . S
C1540 C1543 1.511 . S
C1541 C1537 1.376 . S
C1541 C1540 1.392 . S
C1541 H1553 0.929 . S
C1542 C1538 1.531 . S
C1542 H1554 0.960 . S
C1542 H1555 0.962 . S
C1542 H1556 0.960 . S
C1543 C1540 1.511 . S
C1543 H1557 0.961 . S
C1543 H1558 0.961 . S
C1543 H1559 0.961 . S
C1544 C1545 1.370 . S
C1544 C1546 1.363 . S
C1544 H1560 0.931 . S
C1545 C1544 1.370 . S
C1545 C1549 1.408 . S
C1546 C1544 1.363 . S
C1546 C1547 1.370 . S
C1546 C1550 1.524 . S
C1547 C1539 1.503 1_556 S
C1547 C1546 1.370 . S
C1547 C1548 1.403 . S
C1548 C1547 1.403 . S
C1548 C1549 1.404 . S
C1548 C1551 1.539 1_556 S
C1549 C1545 1.408 . S
C1549 C1548 1.404 . S
C1549 H1561 0.930 . S
C1550 C1546 1.524 . S
C1550 H1562 0.956 . S
C1550 H1563 0.961 1_556 S
C1550 H1564 0.961 . S
C1551 C1548 1.539 1_554 S
C1551 H1565 0.958 1_554 S
C1551 H1566 0.961 . S
C1551 H1567 0.960 . S
H1552 C1536 0.931 . S
H1553 C1541 0.929 . S
H1554 C1542 0.960 . S
H1555 C1542 0.962 . S
H1556 C1542 0.960 . S
H1557 C1543 0.961 . S
H1558 C1543 0.961 . S
H1559 C1543 0.961 . S
H1560 C1544 0.931 . S
H1561 C1549 0.930 . S
H1562 C1550 0.956 . S
H1563 C1550 0.961 1_554 S
H1564 C1550 0.961 . S
H1565 C1551 0.958 1_556 S
H1566 C1551 0.961 . S
H1567 C1551 0.960 . S
C1568 C1569 1.391 . S
C1568 C1570 1.394 . S
C1568 H1584 0.931 . S
C1569 C1568 1.391 . S
C1569 C1573 1.376 . S
C1570 C1568 1.394 . S
C1570 C1571 1.369 1_556 S
C1570 C1574 1.531 . S
C1571 C1570 1.369 1_554 S
C1571 C1572 1.400 1_554 S
C1571 C1579 1.503 1_455 S
C1572 C1571 1.400 1_556 S
C1572 C1573 1.411 . S
C1572 C1575 1.503 1_456 S
C1573 C1569 1.376 . S
C1573 C1572 1.411 . S
C1573 H1585 0.929 . S
C1574 C1570 1.531 . S
C1574 H1586 0.960 1_556 S
C1574 H1587 0.962 . S
C1574 H1588 0.960 . S
C1575 C1572 1.503 1_654 S
C1575 H1589 0.961 . S
C1575 H1590 0.961 . S
C1575 H1591 0.961 . S
C1576 C1577 1.370 1_556 S
C1576 C1578 1.363 . S
C1576 H1592 0.931 . S
C1577 C1576 1.370 1_554 S
C1577 C1581 1.408 . S
C1578 C1576 1.363 . S
C1578 C1579 1.370 1_556 S
C1578 C1582 1.524 . S
C1579 C1571 1.503 1_655 S
C1579 C1578 1.370 1_554 S
C1579 C1580 1.403 . S
C1580 C1579 1.403 . S
C1580 C1581 1.404 . S
C1580 C1583 1.539 1_655 S
C1581 C1577 1.408 . S
C1581 C1580 1.404 . S
C1581 H1593 0.930 . S
C1582 C1578 1.524 . S
C1582 H1594 0.956 . S
C1582 H1595 0.961 . S
C1582 H1596 0.961 . S
C1583 C1580 1.539 1_455 S
C1583 H1597 0.958 . S
C1583 H1598 0.961 1_455 S
C1583 H1599 0.960 . S
H1584 C1568 0.931 . S
H1585 C1573 0.929 . S
H1586 C1574 0.960 1_554 S
H1587 C1574 0.962 . S
H1588 C1574 0.960 . S
H1589 C1575 0.961 . S
H1590 C1575 0.961 . S
H1591 C1575 0.961 . S
H1592 C1576 0.931 . S
H1593 C1581 0.930 . S
H1594 C1582 0.956 . S
H1595 C1582 0.961 . S
H1596 C1582 0.961 . S
H1597 C1583 0.958 . S
H1598 C1583 0.961 1_655 S
H1599 C1583 0.960 . S
C1600 C1601 1.391 . S
C1600 C1602 1.394 . S
C1600 H1616 0.931 . S
C1601 C1600 1.391 . S
C1601 C1605 1.376 . S
C1602 C1600 1.394 . S
C1602 C1603 1.369 . S
C1602 C1606 1.531 . S
C1603 C1602 1.369 . S
C1603 C1604 1.410 . S
C1603 C1611 1.503 . S
C1604 C1603 1.410 . S
C1604 C1605 1.392 . S
C1604 C1607 1.511 . S
C1605 C1601 1.376 . S
C1605 C1604 1.392 . S
C1605 H1617 0.929 . S
C1606 C1602 1.531 . S
C1606 H1618 0.960 . S
C1606 H1619 0.962 . S
C1606 H1620 0.960 . S
C1607 C1604 1.511 . S
C1607 H1621 0.961 . S
C1607 H1622 0.961 . S
C1607 H1623 0.961 . S
C1608 C1609 1.370 . S
C1608 C1610 1.363 . S
C1608 H1624 0.931 . S
C1609 C1608 1.370 . S
C1609 C1613 1.408 . S
C1610 C1608 1.363 . S
C1610 C1611 1.370 . S
C1610 C1614 1.524 . S
C1611 C1603 1.503 . S
C1611 C1610 1.370 . S
C1611 C1612 1.403 . S
C1612 C1611 1.403 . S
C1612 C1613 1.404 . S
C1612 C1615 1.539 . S
C1613 C1609 1.408 . S
C1613 C1612 1.404 . S
C1613 H1625 0.930 . S
C1614 C1610 1.524 . S
C1614 H1626 0.956 . S
C1614 H1627 0.961 . S
C1614 H1628 0.961 . S
C1615 C1612 1.539 . S
C1615 H1629 0.958 . S
C1615 H1630 0.961 . S
C1615 H1631 0.960 . S
H1616 C1600 0.931 . S
H1617 C1605 0.929 . S
H1618 C1606 0.960 . S
H1619 C1606 0.962 . S
H1620 C1606 0.960 . S
H1621 C1607 0.961 . S
H1622 C1607 0.961 . S
H1623 C1607 0.961 . S
H1624 C1608 0.931 . S
H1625 C1613 0.930 . S
H1626 C1614 0.956 . S
H1627 C1614 0.961 . S
H1628 C1614 0.961 . S
H1629 C1615 0.958 . S
H1630 C1615 0.961 . S
H1631 C1615 0.960 . S
C1632 C1633 1.391 . S
C1632 C1634 1.394 . S
C1632 H1648 0.931 . S
C1633 C1632 1.391 . S
C1633 C1637 1.376 . S
C1634 C1632 1.394 . S
C1634 C1635 1.369 . S
C1634 C1638 1.531 1_554 S
C1635 C1634 1.369 . S
C1635 C1636 1.410 . S
C1635 C1643 1.503 1_554 S
C1636 C1635 1.410 . S
C1636 C1637 1.392 . S
C1636 C1639 1.511 . S
C1637 C1633 1.376 . S
C1637 C1636 1.392 . S
C1637 H1649 0.929 . S
C1638 C1634 1.531 1_556 S
C1638 H1650 0.960 . S
C1638 H1651 0.962 . S
C1638 H1652 0.960 . S
C1639 C1636 1.511 . S
C1639 H1653 0.961 . S
C1639 H1654 0.961 . S
C1639 H1655 0.961 . S
C1640 C1641 1.370 . S
C1640 C1642 1.363 . S
C1640 H1656 0.931 . S
C1641 C1640 1.370 . S
C1641 C1645 1.408 1_556 S
C1642 C1640 1.363 . S
C1642 C1643 1.370 . S
C1642 C1646 1.524 . S
C1643 C1635 1.503 1_556 S
C1643 C1642 1.370 . S
C1643 C1644 1.403 1_556 S
C1644 C1643 1.403 1_554 S
C1644 C1645 1.404 . S
C1644 C1647 1.539 . S
C1645 C1641 1.408 1_554 S
C1645 C1644 1.404 . S
C1645 H1657 0.930 . S
C1646 C1642 1.524 . S
C1646 H1658 0.956 . S
C1646 H1659 0.961 . S
C1646 H1660 0.961 . S
C1647 C1644 1.539 . S
C1647 H1661 0.958 . S
C1647 H1662 0.961 . S
C1647 H1663 0.960 . S
H1648 C1632 0.931 . S
H1649 C1637 0.929 . S
H1650 C1638 0.960 . S
H1651 C1638 0.962 . S
H1652 C1638 0.960 . S
H1653 C1639 0.961 . S
H1654 C1639 0.961 . S
H1655 C1639 0.961 . S
H1656 C1640 0.931 . S
H1657 C1645 0.930 . S
H1658 C1646 0.956 . S
H1659 C1646 0.961 . S
H1660 C1646 0.961 . S
H1661 C1647 0.958 . S
H1662 C1647 0.961 . S
H1663 C1647 0.960 . S
C1664 C1665 1.391 . S
C1664 C1666 1.394 . S
C1664 H1680 0.931 . S
C1665 C1664 1.391 . S
C1665 C1669 1.376 . S
C1666 C1664 1.394 . S
C1666 C1667 1.369 . S
C1666 C1670 1.531 . S
C1667 C1666 1.369 . S
C1667 C1668 1.410 . S
C1667 C1675 1.503 . S
C1668 C1667 1.410 . S
C1668 C1669 1.392 . S
C1668 C1671 1.511 . S
C1669 C1665 1.376 . S
C1669 C1668 1.392 . S
C1669 H1681 0.929 . S
C1670 C1666 1.531 . S
C1670 H1682 0.960 . S
C1670 H1683 0.962 . S
C1670 H1684 0.960 . S
C1671 C1668 1.511 . S
C1671 H1685 0.961 . S
C1671 H1686 0.961 . S
C1671 H1687 0.961 . S
C1672 C1673 1.370 . S
C1672 C1674 1.363 . S
C1672 H1688 0.931 . S
C1673 C1672 1.370 . S
C1673 C1677 1.408 . S
C1674 C1672 1.363 . S
C1674 C1675 1.370 . S
C1674 C1678 1.524 . S
C1675 C1667 1.503 . S
C1675 C1674 1.370 . S
C1675 C1676 1.403 . S
C1676 C1675 1.403 . S
C1676 C1677 1.404 . S
C1676 C1679 1.539 . S
C1677 C1673 1.408 . S
C1677 C1676 1.404 . S
C1677 H1689 0.930 . S
C1678 C1674 1.524 . S
C1678 H1690 0.956 . S
C1678 H1691 0.961 . S
C1678 H1692 0.961 . S
C1679 C1676 1.539 . S
C1679 H1693 0.958 . S
C1679 H1694 0.961 . S
C1679 H1695 0.960 . S
H1680 C1664 0.931 . S
H1681 C1669 0.929 . S
H1682 C1670 0.960 . S
H1683 C1670 0.962 . S
H1684 C1670 0.960 . S
H1685 C1671 0.961 . S
H1686 C1671 0.961 . S
H1687 C1671 0.961 . S
H1688 C1672 0.931 . S
H1689 C1677 0.930 . S
H1690 C1678 0.956 . S
H1691 C1678 0.961 . S
H1692 C1678 0.961 . S
H1693 C1679 0.958 . S
H1694 C1679 0.961 . S
H1695 C1679 0.960 . S
C1696 C1697 1.391 . S
C1696 C1698 1.394 . S
C1696 H1712 0.931 . S
C1697 C1696 1.391 . S
C1697 C1701 1.376 1_554 S
C1698 C1696 1.394 . S
C1698 C1699 1.369 . S
C1698 C1702 1.531 1_565 S
C1699 C1698 1.369 . S
C1699 C1700 1.410 1_554 S
C1699 C1707 1.503 1_564 S
C1700 C1699 1.410 1_556 S
C1700 C1701 1.392 . S
C1700 C1703 1.511 . S
C1701 C1697 1.376 1_556 S
C1701 C1700 1.392 . S
C1701 H1713 0.929 . S
C1702 C1698 1.531 1_545 S
C1702 H1714 0.960 . S
C1702 H1715 0.962 . S
C1702 H1716 0.960 . S
C1703 C1700 1.511 . S
C1703 H1717 0.961 . S
C1703 H1718 0.961 . S
C1703 H1719 0.961 . S
C1704 C1705 1.370 . S
C1704 C1706 1.363 . S
C1704 H1720 0.931 . S
C1705 C1704 1.370 . S
C1705 C1709 1.408 . S
C1706 C1704 1.363 . S
C1706 C1707 1.370 . S
C1706 C1710 1.524 . S
C1707 C1699 1.503 1_546 S
C1707 C1706 1.370 . S
C1707 C1708 1.403 1_545 S
C1708 C1707 1.403 1_565 S
C1708 C1709 1.404 1_565 S
C1708 C1711 1.539 . S
C1709 C1705 1.408 . S
C1709 C1708 1.404 1_545 S
C1709 H1721 0.930 . S
C1710 C1706 1.524 . S
C1710 H1722 0.956 1_556 S
C1710 H1723 0.961 . S
C1710 H1724 0.961 . S
C1711 C1708 1.539 . S
C1711 H1725 0.958 1_556 S
C1711 H1726 0.961 . S
C1711 H1727 0.960 . S
H1712 C1696 0.931 . S
H1713 C1701 0.929 . S
H1714 C1702 0.960 . S
H1715 C1702 0.962 . S
H1716 C1702 0.960 . S
H1717 C1703 0.961 . S
H1718 C1703 0.961 . S
H1719 C1703 0.961 . S
H1720 C1704 0.931 . S
H1721 C1709 0.930 . S
H1722 C1710 0.956 1_554 S
H1723 C1710 0.961 . S
H1724 C1710 0.961 . S
H1725 C1711 0.958 1_554 S
H1726 C1711 0.961 . S
H1727 C1711 0.960 . S
C1728 C1729 1.391 . S
C1728 C1730 1.394 . S
C1728 H1744 0.931 . S
C1729 C1728 1.391 . S
C1729 C1733 1.376 . S
C1730 C1728 1.394 . S
C1730 C1731 1.369 . S
C1730 C1734 1.531 . S
C1731 C1730 1.369 . S
C1731 C1732 1.410 . S
C1731 C1739 1.503 . S
C1732 C1731 1.410 . S
C1732 C1733 1.392 . S
C1732 C1735 1.511 . S
C1733 C1729 1.376 . S
C1733 C1732 1.392 . S
C1733 H1745 0.929 . S
C1734 C1730 1.531 . S
C1734 H1746 0.960 . S
C1734 H1747 0.962 . S
C1734 H1748 0.960 . S
C1735 C1732 1.511 . S
C1735 H1749 0.961 . S
C1735 H1750 0.961 . S
C1735 H1751 0.961 . S
C1736 C1737 1.370 . S
C1736 C1738 1.363 . S
C1736 H1752 0.931 . S
C1737 C1736 1.370 . S
C1737 C1741 1.408 . S
C1738 C1736 1.363 . S
C1738 C1739 1.370 . S
C1738 C1742 1.524 . S
C1739 C1731 1.503 . S
C1739 C1738 1.370 . S
C1739 C1740 1.403 . S
C1740 C1739 1.403 . S
C1740 C1741 1.404 . S
C1740 C1743 1.539 . S
C1741 C1737 1.408 . S
C1741 C1740 1.404 . S
C1741 H1753 0.930 . S
C1742 C1738 1.524 . S
C1742 H1754 0.956 . S
C1742 H1755 0.961 . S
C1742 H1756 0.961 . S
C1743 C1740 1.539 . S
C1743 H1757 0.958 . S
C1743 H1758 0.961 . S
C1743 H1759 0.960 . S
H1744 C1728 0.931 . S
H1745 C1733 0.929 . S
H1746 C1734 0.960 . S
H1747 C1734 0.962 . S
H1748 C1734 0.960 . S
H1749 C1735 0.961 . S
H1750 C1735 0.961 . S
H1751 C1735 0.961 . S
H1752 C1736 0.931 . S
H1753 C1741 0.930 . S
H1754 C1742 0.956 . S
H1755 C1742 0.961 . S
H1756 C1742 0.961 . S
H1757 C1743 0.958 . S
H1758 C1743 0.961 . S
H1759 C1743 0.960 . S
C1760 C1761 1.391 . S
C1760 C1762 1.394 . S
C1760 H1776 0.931 . S
C1761 C1760 1.391 . S
C1761 C1765 1.376 . S
C1762 C1760 1.394 . S
C1762 C1763 1.369 . S
C1762 C1766 1.531 . S
C1763 C1762 1.369 . S
C1763 C1764 1.410 . S
C1763 C1771 1.503 . S
C1764 C1763 1.410 . S
C1764 C1765 1.392 . S
C1764 C1767 1.511 . S
C1765 C1761 1.376 . S
C1765 C1764 1.392 . S
C1765 H1777 0.929 . S
C1766 C1762 1.531 . S
C1766 H1778 0.960 . S
C1766 H1779 0.962 . S
C1766 H1780 0.960 . S
C1767 C1764 1.511 . S
C1767 H1781 0.961 . S
C1767 H1782 0.961 . S
C1767 H1783 0.961 . S
C1768 C1769 1.370 . S
C1768 C1770 1.363 . S
C1768 H1784 0.931 . S
C1769 C1768 1.370 . S
C1769 C1773 1.408 . S
C1770 C1768 1.363 . S
C1770 C1771 1.370 . S
C1770 C1774 1.524 . S
C1771 C1763 1.503 . S
C1771 C1770 1.370 . S
C1771 C1772 1.403 . S
C1772 C1771 1.403 . S
C1772 C1773 1.404 . S
C1772 C1775 1.539 . S
C1773 C1769 1.408 . S
C1773 C1772 1.404 . S
C1773 H1785 0.930 . S
C1774 C1770 1.524 . S
C1774 H1786 0.956 . S
C1774 H1787 0.961 . S
C1774 H1788 0.961 . S
C1775 C1772 1.539 . S
C1775 H1789 0.958 . S
C1775 H1790 0.961 . S
C1775 H1791 0.960 . S
H1776 C1760 0.931 . S
H1777 C1765 0.929 . S
H1778 C1766 0.960 . S
H1779 C1766 0.962 . S
H1780 C1766 0.960 . S
H1781 C1767 0.961 . S
H1782 C1767 0.961 . S
H1783 C1767 0.961 . S
H1784 C1768 0.931 . S
H1785 C1773 0.930 . S
H1786 C1774 0.956 . S
H1787 C1774 0.961 . S
H1788 C1774 0.961 . S
H1789 C1775 0.958 . S
H1790 C1775 0.961 . S
H1791 C1775 0.960 . S
C1792 C1793 1.391 . S
C1792 C1794 1.394 . S
C1792 H1808 0.931 . S
C1793 C1792 1.391 . S
C1793 C1797 1.376 . S
C1794 C1792 1.394 . S
C1794 C1795 1.369 . S
C1794 C1798 1.531 . S
C1795 C1794 1.369 . S
C1795 C1796 1.410 . S
C1795 C1803 1.503 . S
C1796 C1795 1.410 . S
C1796 C1797 1.392 . S
C1796 C1799 1.511 . S
C1797 C1793 1.376 . S
C1797 C1796 1.392 . S
C1797 H1809 0.929 . S
C1798 C1794 1.531 . S
C1798 H1810 0.960 . S
C1798 H1811 0.962 . S
C1798 H1812 0.960 . S
C1799 C1796 1.511 . S
C1799 H1813 0.961 . S
C1799 H1814 0.961 . S
C1799 H1815 0.961 . S
C1800 C1801 1.370 . S
C1800 C1802 1.363 . S
C1800 H1816 0.931 . S
C1801 C1800 1.370 . S
C1801 C1805 1.408 . S
C1802 C1800 1.363 . S
C1802 C1803 1.370 . S
C1802 C1806 1.524 . S
C1803 C1795 1.503 . S
C1803 C1802 1.370 . S
C1803 C1804 1.403 . S
C1804 C1803 1.403 . S
C1804 C1805 1.404 . S
C1804 C1807 1.539 . S
C1805 C1801 1.408 . S
C1805 C1804 1.404 . S
C1805 H1817 0.930 . S
C1806 C1802 1.524 . S
C1806 H1818 0.956 . S
C1806 H1819 0.961 . S
C1806 H1820 0.961 . S
C1807 C1804 1.539 . S
C1807 H1821 0.958 . S
C1807 H1822 0.961 . S
C1807 H1823 0.960 . S
H1808 C1792 0.931 . S
H1809 C1797 0.929 . S
H1810 C1798 0.960 . S
H1811 C1798 0.962 . S
H1812 C1798 0.960 . S
H1813 C1799 0.961 . S
H1814 C1799 0.961 . S
H1815 C1799 0.961 . S
H1816 C1800 0.931 . S
H1817 C1805 0.930 . S
H1818 C1806 0.956 . S
H1819 C1806 0.961 . S
H1820 C1806 0.961 . S
H1821 C1807 0.958 . S
H1822 C1807 0.961 . S
H1823 C1807 0.960 . S
C545 C5 0.580 . S
C553 C315 0.621 . S
C577 C9 0.560 . S
C585 C311 0.622 . S
C609 C281 0.710 . S
C617 C39 0.591 . S
C641 C43 0.664 . S
C649 C277 0.608 . S
C673 C73 0.609 . S
C681 C383 0.596 . S
C705 C77 0.562 . S
C713 C379 0.620 . S
C737 C107 0.642 . S
C745 C349 0.596 . S
C769 C111 0.570 . S
C777 C345 0.594 . S
C801 C141 0.565 . S
C809 C451 0.632 . S
C833 C447 0.573 . S
C841 C145 0.626 . S
C865 C417 0.541 . S
C873 C175 0.614 . S
C897 C413 0.547 . S
C905 C179 0.653 . S
C929 C519 0.675 . S
C937 C209 0.577 . S
C961 C515 0.577 . S
C969 C213 0.668 . S
C993 C485 0.570 . S
C1001 C243 0.621 . S
C1025 C247 0.582 . S
C1033 C481 0.590 . S
C1057 C2 1.631 . S
C1065 C36 1.630 1_554 S
C1089 C104 1.624 1_556 S
C1097 C70 1.633 . S
C1121 C172 1.630 . S
C1129 C138 1.630 . S
C1153 C240 1.632 . S
C1161 C206 1.631 . S
C1185 C308 1.627 . S
C1193 C274 1.633 . S
C1217 C342 1.632 . S
C1225 C376 1.631 . S
C1249 C444 1.629 1_554 S
C1257 C410 1.633 . S
C1281 C478 1.629 . S
C1289 C512 1.633 1_556 S
C1313 C509 1.478 . S
C1321 C33 1.510 . S
C1345 C88 1.856 . S
C1353 C20 1.848 . S
C1377 C407 1.522 . S
C1385 C67 1.492 . S
C1409 C258 1.866 . S
C1417 C54 1.845 . S
C1441 C101 1.519 . S
C1449 C441 1.493 . S
C1473 C339 1.504 . S
C1481 C135 1.499 . S
C1505 C122 1.838 . S
C1513 C190 1.857 . S
C1537 C373 1.527 . S
C1545 C169 1.493 . S
C1569 C156 1.859 . S
C1577 C224 1.849 . S
C1601 C203 1.478 . S
C1609 C543 1.514 . S
C1633 C237 1.494 . S
C1641 C305 1.508 . S
C1665 C271 1.468 . S
C1673 C475 1.515 . S
C1697 C360 1.832 . S
C1705 C292 1.858 . S
C1729 C530 1.832 . S
C1737 C326 1.859 . S
C1761 C394 1.865 . S
C1769 C462 1.844 . S
C1793 C428 1.847 . S
C1801 C496 1.854 . S
