# Generated by pormake.
# Topology gme, (4)-cn, num edge types: 1
# Building blocks:
#     Node 0, Type 0, BuildingBlock: QUQFOY_clean_sbu_1, # of connection points: 4
#     Node 1, Type 0, BuildingBlock: QUQFOY_clean_sbu_1, # of connection points: 4
#     Node 2, Type 0, BuildingBlock: QUQFOY_clean_sbu_1, # of connection points: 4
#     Node 3, Type 0, BuildingBlock: QUQFOY_clean_sbu_1, # of connection points: 4
#     Node 4, Type 0, BuildingBlock: QUQFOY_clean_sbu_1, # of connection points: 4
#     Node 5, Type 0, BuildingBlock: QUQFOY_clean_sbu_1, # of connection points: 4
#     Node 6, Type 0, BuildingBlock: QUQFOY_clean_sbu_1, # of connection points: 4
#     Node 7, Type 0, BuildingBlock: QUQFOY_clean_sbu_1, # of connection points: 4
#     Node 8, Type 0, BuildingBlock: QUQFOY_clean_sbu_1, # of connection points: 4
#     Node 9, Type 0, BuildingBlock: QUQFOY_clean_sbu_1, # of connection points: 4
#     Node 10, Type 0, BuildingBlock: QUQFOY_clean_sbu_1, # of connection points: 4
#     Node 11, Type 0, BuildingBlock: QUQFOY_clean_sbu_1, # of connection points: 4
#     Node 12, Type 0, BuildingBlock: QUQFOY_clean_sbu_1, # of connection points: 4
#     Node 13, Type 0, BuildingBlock: QUQFOY_clean_sbu_1, # of connection points: 4
#     Node 14, Type 0, BuildingBlock: QUQFOY_clean_sbu_1, # of connection points: 4
#     Node 15, Type 0, BuildingBlock: QUQFOY_clean_sbu_1, # of connection points: 4
#     Node 16, Type 0, BuildingBlock: QUQFOY_clean_sbu_1, # of connection points: 4
#     Node 17, Type 0, BuildingBlock: QUQFOY_clean_sbu_1, # of connection points: 4
#     Node 18, Type 0, BuildingBlock: QUQFOY_clean_sbu_1, # of connection points: 4
#     Node 19, Type 0, BuildingBlock: QUQFOY_clean_sbu_1, # of connection points: 4
#     Node 20, Type 0, BuildingBlock: QUQFOY_clean_sbu_1, # of connection points: 4
#     Node 21, Type 0, BuildingBlock: QUQFOY_clean_sbu_1, # of connection points: 4
#     Node 22, Type 0, BuildingBlock: QUQFOY_clean_sbu_1, # of connection points: 4
#     Node 23, Type 0, BuildingBlock: QUQFOY_clean_sbu_1, # of connection points: 4
#     Edge 24, Type (0, 0), BuildingBlock: XIVTED_clean_linker_0, # of connection points: 2
#     Edge 25, Type (0, 0), BuildingBlock: XIVTED_clean_linker_0, # of connection points: 2
#     Edge 26, Type (0, 0), BuildingBlock: XIVTED_clean_linker_0, # of connection points: 2
#     Edge 27, Type (0, 0), BuildingBlock: XIVTED_clean_linker_0, # of connection points: 2
#     Edge 28, Type (0, 0), BuildingBlock: XIVTED_clean_linker_0, # of connection points: 2
#     Edge 29, Type (0, 0), BuildingBlock: XIVTED_clean_linker_0, # of connection points: 2
#     Edge 30, Type (0, 0), BuildingBlock: XIVTED_clean_linker_0, # of connection points: 2
#     Edge 31, Type (0, 0), BuildingBlock: XIVTED_clean_linker_0, # of connection points: 2
#     Edge 32, Type (0, 0), BuildingBlock: XIVTED_clean_linker_0, # of connection points: 2
#     Edge 33, Type (0, 0), BuildingBlock: XIVTED_clean_linker_0, # of connection points: 2
#     Edge 34, Type (0, 0), BuildingBlock: XIVTED_clean_linker_0, # of connection points: 2
#     Edge 35, Type (0, 0), BuildingBlock: XIVTED_clean_linker_0, # of connection points: 2
#     Edge 36, Type (0, 0), BuildingBlock: XIVTED_clean_linker_0, # of connection points: 2
#     Edge 37, Type (0, 0), BuildingBlock: XIVTED_clean_linker_0, # of connection points: 2
#     Edge 38, Type (0, 0), BuildingBlock: XIVTED_clean_linker_0, # of connection points: 2
#     Edge 39, Type (0, 0), BuildingBlock: XIVTED_clean_linker_0, # of connection points: 2
#     Edge 40, Type (0, 0), BuildingBlock: XIVTED_clean_linker_0, # of connection points: 2
#     Edge 41, Type (0, 0), BuildingBlock: XIVTED_clean_linker_0, # of connection points: 2
#     Edge 42, Type (0, 0), BuildingBlock: XIVTED_clean_linker_0, # of connection points: 2
#     Edge 43, Type (0, 0), BuildingBlock: XIVTED_clean_linker_0, # of connection points: 2
#     Edge 44, Type (0, 0), BuildingBlock: XIVTED_clean_linker_0, # of connection points: 2
#     Edge 45, Type (0, 0), BuildingBlock: XIVTED_clean_linker_0, # of connection points: 2
#     Edge 46, Type (0, 0), BuildingBlock: XIVTED_clean_linker_0, # of connection points: 2
#     Edge 47, Type (0, 0), BuildingBlock: XIVTED_clean_linker_0, # of connection points: 2
#     Edge 48, Type (0, 0), BuildingBlock: XIVTED_clean_linker_0, # of connection points: 2
#     Edge 49, Type (0, 0), BuildingBlock: XIVTED_clean_linker_0, # of connection points: 2
#     Edge 50, Type (0, 0), BuildingBlock: XIVTED_clean_linker_0, # of connection points: 2
#     Edge 51, Type (0, 0), BuildingBlock: XIVTED_clean_linker_0, # of connection points: 2
#     Edge 52, Type (0, 0), BuildingBlock: XIVTED_clean_linker_0, # of connection points: 2
#     Edge 53, Type (0, 0), BuildingBlock: XIVTED_clean_linker_0, # of connection points: 2
#     Edge 54, Type (0, 0), BuildingBlock: XIVTED_clean_linker_0, # of connection points: 2
#     Edge 55, Type (0, 0), BuildingBlock: XIVTED_clean_linker_0, # of connection points: 2
#     Edge 56, Type (0, 0), BuildingBlock: XIVTED_clean_linker_0, # of connection points: 2
#     Edge 57, Type (0, 0), BuildingBlock: XIVTED_clean_linker_0, # of connection points: 2
#     Edge 58, Type (0, 0), BuildingBlock: XIVTED_clean_linker_0, # of connection points: 2
#     Edge 59, Type (0, 0), BuildingBlock: XIVTED_clean_linker_0, # of connection points: 2
#     Edge 60, Type (0, 0), BuildingBlock: XIVTED_clean_linker_0, # of connection points: 2
#     Edge 61, Type (0, 0), BuildingBlock: XIVTED_clean_linker_0, # of connection points: 2
#     Edge 62, Type (0, 0), BuildingBlock: XIVTED_clean_linker_0, # of connection points: 2
#     Edge 63, Type (0, 0), BuildingBlock: XIVTED_clean_linker_0, # of connection points: 2
#     Edge 64, Type (0, 0), BuildingBlock: XIVTED_clean_linker_0, # of connection points: 2
#     Edge 65, Type (0, 0), BuildingBlock: XIVTED_clean_linker_0, # of connection points: 2
#     Edge 66, Type (0, 0), BuildingBlock: XIVTED_clean_linker_0, # of connection points: 2
#     Edge 67, Type (0, 0), BuildingBlock: XIVTED_clean_linker_0, # of connection points: 2
#     Edge 68, Type (0, 0), BuildingBlock: XIVTED_clean_linker_0, # of connection points: 2
#     Edge 69, Type (0, 0), BuildingBlock: XIVTED_clean_linker_0, # of connection points: 2
#     Edge 70, Type (0, 0), BuildingBlock: XIVTED_clean_linker_0, # of connection points: 2
#     Edge 71, Type (0, 0), BuildingBlock: XIVTED_clean_linker_0, # of connection points: 2
# Relax obj value: 0.037
# Max RMSD: 0.060
# Mean RMSD: 0.060
data_MOF--net-gme--node1-QUQFOY_clean_sbu_1--edge1-XIVTED_clean_linker_0
_symmetry_space_group_name_H-M    P1
_symmetry_Int_Tables_number       1
_symmetry_cell_setting            triclinic
loop_
_symmetry_equiv_pos_as_xyz
'x, y, z'
_cell_length_a     63.118209
_cell_length_b     63.137111
_cell_length_c     56.214737
_cell_angle_alpha  90.003733
_cell_angle_beta   89.986146
_cell_angle_gamma 119.99003
loop_
_atom_site_label
_atom_site_type_symbol
_atom_site_fract_x
_atom_site_fract_y
_atom_site_fract_z
_atom_type_partial_charge
O0 O 0.41766 0.0915 0.16326 0.0
Cd1 Cd 0.43333 0.10248 0.12995 0.0
Cd2 Cd 0.40787 0.0526 0.12454 0.0
O3 O 0.39412 0.05172 0.15818 0.0
O4 O 0.45069 0.13872 0.13333 0.0
O5 O 0.42044 0.11904 0.10793 0.0
C6 C 0.43645 0.13946 0.11741 0.0
C7 C 0.38413 0.03693 0.09043 0.0
C8 C 0.40203 0.07059 0.17129 0.0
C9 C 0.46212 0.07676 0.12037 0.0
O10 O 0.44227 0.05658 0.12266 0.0
O11 O 0.46207 0.09687 0.12119 0.0
O12 O 0.38536 0.02268 0.10617 0.0
O13 O 0.39537 0.06016 0.09478 0.0
O14 O 0.3276 0.41546 0.66319 0.0
Cd15 Cd 0.33266 0.4311 0.62983 0.0
Cd16 Cd 0.35661 0.40501 0.62482 0.0
O17 O 0.34349 0.39155 0.65849 0.0
O18 O 0.31399 0.44872 0.63294 0.0
O19 O 0.30332 0.41833 0.60769 0.0
C20 C 0.29898 0.43444 0.61707 0.0
C21 C 0.34879 0.38106 0.59089 0.0
C22 C 0.33261 0.3997 0.67141 0.0
C23 C 0.38724 0.45925 0.62055 0.0
O24 O 0.38723 0.43924 0.62294 0.0
O25 O 0.36724 0.45954 0.62122 0.0
O26 O 0.36401 0.38224 0.60691 0.0
O27 O 0.33687 0.39246 0.59487 0.0
O28 O 0.91408 0.32727 0.16289 0.0
Cd29 Cd 0.90347 0.33206 0.12944 0.0
Cd30 Cd 0.95324 0.35548 0.12411 0.0
O31 O 0.95375 0.34253 0.15783 0.0
O32 O 0.86717 0.31335 0.13241 0.0
O33 O 0.88707 0.30264 0.1074 0.0
C34 C 0.86656 0.2983 0.11664 0.0
C35 C 0.96875 0.34708 0.09005 0.0
C36 C 0.93484 0.33206 0.17096 0.0
C37 C 0.93004 0.38648 0.1198 0.0
O38 O 0.94997 0.3863 0.12216 0.0
O39 O 0.90967 0.36658 0.12058 0.0
O40 O 0.9831 0.36239 0.10585 0.0
O41 O 0.94549 0.33541 0.09434 0.0
O42 O 0.59065 0.9132 0.66301 0.0
Cd43 Cd 0.57482 0.90204 0.62979 0.0
Cd44 Cd 0.60054 0.95199 0.62404 0.0
O45 O 0.61434 0.95292 0.65765 0.0
O46 O 0.55742 0.86581 0.63339 0.0
O47 O 0.58757 0.8853 0.60783 0.0
C48 C 0.57159 0.86494 0.61747 0.0
C49 C 0.62441 0.96819 0.59006 0.0
C50 C 0.6064 0.93414 0.67088 0.0
C51 C 0.54621 0.92792 0.62014 0.0
O52 O 0.56615 0.94806 0.62225 0.0
O53 O 0.54614 0.90775 0.62108 0.0
O54 O 0.62302 0.98218 0.606 0.0
O55 O 0.61323 0.9449 0.59412 0.0
O56 O 0.6799 0.58863 0.16307 0.0
Cd57 Cd 0.67543 0.57329 0.12963 0.0
Cd58 Cd 0.65148 0.59952 0.12422 0.0
O59 O 0.66434 0.61278 0.15801 0.0
O60 O 0.69393 0.55552 0.133 0.0
O61 O 0.70516 0.58618 0.10796 0.0
C62 C 0.70923 0.56989 0.11735 0.0
C63 C 0.65843 0.62406 0.09084 0.0
C64 C 0.67489 0.60443 0.17115 0.0
C65 C 0.62102 0.54521 0.11969 0.0
O66 O 0.621 0.56521 0.12209 0.0
O67 O 0.64101 0.54491 0.12054 0.0
O68 O 0.6432 0.62212 0.10721 0.0
O69 O 0.67086 0.61308 0.09414 0.0
O70 O 0.09541 0.67884 0.66232 0.0
Cd71 Cd 0.10605 0.67403 0.62889 0.0
Cd72 Cd 0.05575 0.64967 0.62399 0.0
O73 O 0.05555 0.66267 0.65775 0.0
O74 O 0.14233 0.69256 0.6321 0.0
O75 O 0.12278 0.70358 0.607 0.0
C76 C 0.14318 0.70772 0.61635 0.0
C77 C 0.038 0.65654 0.5907 0.0
C78 C 0.07461 0.67364 0.67062 0.0
C79 C 0.07992 0.61951 0.61937 0.0
O80 O 0.05982 0.61932 0.62186 0.0
O81 O 0.10011 0.63959 0.62006 0.0
O82 O 0.02479 0.64128 0.60708 0.0
O83 O 0.06141 0.669 0.59392 0.0
O84 O 0.91485 0.58914 0.35549 0.0
Cd85 Cd 0.90392 0.57327 0.38874 0.0
Cd86 Cd 0.95387 0.59919 0.39406 0.0
O87 O 0.95466 0.61282 0.36038 0.0
O88 O 0.86766 0.5555 0.38529 0.0
O89 O 0.88698 0.58578 0.41074 0.0
C90 C 0.86666 0.56959 0.40121 0.0
C91 C 0.96902 0.62273 0.42835 0.0
C92 C 0.93571 0.60483 0.34738 0.0
C93 C 0.93014 0.54496 0.39822 0.0
O94 O 0.9502 0.56494 0.39596 0.0
O95 O 0.9099 0.54475 0.39739 0.0
O96 O 0.98352 0.62164 0.41281 0.0
O97 O 0.94585 0.61155 0.42363 0.0
O98 O 0.32891 0.91351 0.85504 0.0
Cd99 Cd 0.33355 0.90237 0.88828 0.0
Cd100 Cd 0.35777 0.95222 0.894 0.0
O101 O 0.34496 0.95324 0.86037 0.0
O102 O 0.31468 0.86614 0.88474 0.0
O103 O 0.30406 0.8857 0.91025 0.0
C104 C 0.29965 0.86532 0.90065 0.0
C105 C 0.34968 0.96784 0.92815 0.0
C106 C 0.33411 0.93444 0.84714 0.0
C107 C 0.38802 0.92819 0.89794 0.0
O108 O 0.38825 0.94833 0.8958 0.0
O109 O 0.36792 0.90803 0.89701 0.0
O110 O 0.36516 0.98211 0.91241 0.0
O111 O 0.3377 0.94461 0.92376 0.0
O112 O 0.41815 0.32717 0.35536 0.0
Cd113 Cd 0.43349 0.33182 0.38882 0.0
Cd114 Cd 0.40724 0.3555 0.39412 0.0
O115 O 0.39387 0.34258 0.36038 0.0
O116 O 0.45137 0.31341 0.38561 0.0
O117 O 0.42068 0.30221 0.41062 0.0
C118 C 0.43702 0.29817 0.40131 0.0
C119 C 0.38317 0.34746 0.42801 0.0
C120 C 0.40227 0.33207 0.34726 0.0
C121 C 0.46144 0.38626 0.39858 0.0
O122 O 0.4414 0.38622 0.39612 0.0
O123 O 0.46178 0.3663 0.39782 0.0
O124 O 0.38433 0.36272 0.41205 0.0
O125 O 0.39464 0.33563 0.42399 0.0
O126 O 0.09266 0.41546 0.85482 0.0
Cd127 Cd 0.10364 0.43107 0.88814 0.0
Cd128 Cd 0.05372 0.40506 0.89371 0.0
O129 O 0.05294 0.39148 0.86 0.0
O130 O 0.1399 0.44862 0.88468 0.0
O131 O 0.12039 0.41827 0.91002 0.0
C132 C 0.14077 0.43436 0.9005 0.0
C133 C 0.038 0.38125 0.92779 0.0
C134 C 0.0718 0.39966 0.84682 0.0
C135 C 0.07744 0.45931 0.89793 0.0
O136 O 0.05738 0.43932 0.89567 0.0
O137 O 0.0977 0.45956 0.89703 0.0
O138 O 0.02376 0.38241 0.91199 0.0
O139 O 0.06126 0.39257 0.92349 0.0
O140 O 0.67913 0.09165 0.35483 0.0
Cd141 Cd 0.67421 0.10223 0.38824 0.0
Cd142 Cd 0.65041 0.05235 0.39339 0.0
O143 O 0.66354 0.05193 0.35976 0.0
O144 O 0.69291 0.13852 0.38523 0.0
O145 O 0.70357 0.11868 0.41035 0.0
C146 C 0.70792 0.13917 0.40107 0.0
C147 C 0.65833 0.03629 0.4273 0.0
C148 C 0.67424 0.07088 0.34672 0.0
C149 C 0.6197 0.07588 0.39768 0.0
O150 O 0.61971 0.05587 0.39528 0.0
O151 O 0.63969 0.09616 0.39698 0.0
O152 O 0.6431 0.02222 0.41131 0.0
O153 O 0.67018 0.05959 0.42331 0.0
O154 O 0.59044 0.67823 0.85492 0.0
Cd155 Cd 0.57452 0.67382 0.88808 0.0
Cd156 Cd 0.60004 0.64943 0.89408 0.0
O157 O 0.61382 0.66183 0.86034 0.0
O158 O 0.55707 0.69258 0.88418 0.0
O159 O 0.58717 0.70346 0.90983 0.0
C160 C 0.57115 0.70771 0.90008 0.0
C161 C 0.62366 0.65786 0.92834 0.0
C162 C 0.60601 0.67278 0.84706 0.0
C163 C 0.54572 0.61943 0.8981 0.0
O164 O 0.56561 0.61911 0.89611 0.0
O165 O 0.54573 0.63955 0.89692 0.0
O166 O 0.62226 0.642 0.91296 0.0
O167 O 0.6127 0.67003 0.92349 0.0
O168 O 0.59143 0.91358 0.85518 0.0
Cd169 Cd 0.57575 0.90293 0.88851 0.0
Cd170 Cd 0.60185 0.95299 0.89354 0.0
O171 O 0.6153 0.95337 0.85987 0.0
O172 O 0.55803 0.86667 0.8852 0.0
O173 O 0.5884 0.88614 0.91052 0.0
C174 C 0.57226 0.86578 0.90103 0.0
C175 C 0.62591 0.96922 0.92739 0.0
C176 C 0.60718 0.93434 0.84696 0.0
C177 C 0.54759 0.92934 0.89786 0.0
O178 O 0.5676 0.94936 0.89547 0.0
O179 O 0.54731 0.90906 0.89717 0.0
O180 O 0.62464 0.98321 0.91137 0.0
O181 O 0.61452 0.94591 0.92346 0.0
O182 O 0.68036 0.58845 0.35572 0.0
Cd183 Cd 0.67553 0.57301 0.38915 0.0
Cd184 Cd 0.65128 0.59872 0.39405 0.0
O185 O 0.66431 0.61223 0.36037 0.0
O186 O 0.69431 0.5555 0.38603 0.0
O187 O 0.70498 0.58599 0.41116 0.0
C188 C 0.70936 0.56988 0.40183 0.0
C189 C 0.65926 0.62251 0.42812 0.0
C190 C 0.67523 0.60411 0.34746 0.0
C191 C 0.62098 0.54452 0.39852 0.0
O192 O 0.62077 0.56441 0.39595 0.0
O193 O 0.64109 0.54445 0.39796 0.0
O194 O 0.64392 0.62137 0.41225 0.0
O195 O 0.6712 0.61118 0.42389 0.0
O196 O 0.09462 0.67814 0.85497 0.0
Cd197 Cd 0.10548 0.67358 0.88838 0.0
Cd198 Cd 0.05548 0.64957 0.89376 0.0
O199 O 0.0549 0.66247 0.86005 0.0
O200 O 0.14174 0.69204 0.88496 0.0
O201 O 0.12236 0.70325 0.9101 0.0
C202 C 0.1427 0.7073 0.90066 0.0
C203 C 0.03933 0.65746 0.92766 0.0
C204 C 0.07379 0.67311 0.84691 0.0
C205 C 0.07926 0.61912 0.89816 0.0
O206 O 0.05919 0.619 0.89573 0.0
O207 O 0.09949 0.63917 0.89739 0.0
O208 O 0.0253 0.64215 0.9117 0.0
O209 O 0.06264 0.66941 0.92364 0.0
O210 O 0.41719 0.09247 0.35557 0.0
Cd211 Cd 0.43286 0.10327 0.38889 0.0
Cd212 Cd 0.40717 0.05335 0.39409 0.0
O213 O 0.39357 0.05266 0.36042 0.0
O214 O 0.45034 0.13953 0.38562 0.0
O215 O 0.42003 0.11985 0.41097 0.0
C216 C 0.43608 0.14028 0.40151 0.0
C217 C 0.38338 0.03768 0.42817 0.0
C218 C 0.40155 0.07162 0.34743 0.0
C219 C 0.46141 0.07727 0.39826 0.0
O220 O 0.44149 0.05716 0.39594 0.0
O221 O 0.4615 0.09745 0.39753 0.0
O222 O 0.38454 0.02343 0.41239 0.0
O223 O 0.39471 0.06092 0.42386 0.0
O224 O 0.32809 0.41619 0.85539 0.0
Cd225 Cd 0.33272 0.43201 0.8886 0.0
Cd226 Cd 0.35652 0.40584 0.89451 0.0
O227 O 0.34367 0.39211 0.86086 0.0
O228 O 0.31424 0.44977 0.88489 0.0
O229 O 0.30309 0.41947 0.91035 0.0
C230 C 0.299 0.43563 0.9007 0.0
C231 C 0.34862 0.38207 0.9286 0.0
C232 C 0.33307 0.40027 0.84756 0.0
C233 C 0.38716 0.46013 0.89842 0.0
O234 O 0.38714 0.44008 0.89633 0.0
O235 O 0.3672 0.46045 0.89742 0.0
O236 O 0.36396 0.38325 0.91272 0.0
O237 O 0.33663 0.39335 0.9244 0.0
O238 O 0.91272 0.32578 0.35547 0.0
Cd239 Cd 0.90205 0.3306 0.38889 0.0
Cd240 Cd 0.95216 0.35475 0.3939 0.0
O241 O 0.95253 0.34172 0.36019 0.0
O242 O 0.86577 0.31219 0.38563 0.0
O243 O 0.88521 0.30106 0.41076 0.0
C244 C 0.86484 0.29699 0.40139 0.0
C245 C 0.96856 0.34706 0.42772 0.0
C246 C 0.93351 0.33087 0.34725 0.0
C247 C 0.92832 0.38514 0.39837 0.0
O248 O 0.9484 0.38528 0.39586 0.0
O249 O 0.90811 0.36508 0.39773 0.0
O250 O 0.98247 0.36231 0.41165 0.0
O251 O 0.94523 0.33505 0.42385 0.0
O252 O 0.09371 0.41583 0.66248 0.0
Cd253 Cd 0.10456 0.43154 0.62917 0.0
Cd254 Cd 0.05438 0.40547 0.62392 0.0
O255 O 0.05392 0.392 0.65761 0.0
O256 O 0.14083 0.44942 0.63264 0.0
O257 O 0.12158 0.41901 0.60731 0.0
C258 C 0.14188 0.43526 0.61683 0.0
C259 C 0.03792 0.38143 0.59008 0.0
C260 C 0.07289 0.4001 0.67061 0.0
C261 C 0.07819 0.45973 0.61963 0.0
O262 O 0.05814 0.43976 0.62199 0.0
O263 O 0.09845 0.45996 0.6204 0.0
O264 O 0.02404 0.3828 0.60617 0.0
O265 O 0.06125 0.39269 0.59393 0.0
O266 O 0.68079 0.09307 0.16244 0.0
Cd267 Cd 0.6757 0.10365 0.12909 0.0
Cd268 Cd 0.65216 0.05365 0.12392 0.0
O269 O 0.6653 0.05336 0.15757 0.0
O270 O 0.69388 0.13993 0.13232 0.0
O271 O 0.70515 0.12066 0.10711 0.0
C272 C 0.70909 0.14097 0.11651 0.0
C273 C 0.66014 0.0376 0.09002 0.0
C274 C 0.67597 0.07234 0.17057 0.0
C275 C 0.62112 0.07681 0.11973 0.0
O276 O 0.62132 0.05689 0.12209 0.0
O277 O 0.64102 0.09718 0.12041 0.0
O278 O 0.64499 0.02352 0.10607 0.0
O279 O 0.67189 0.06092 0.09396 0.0
O280 O 0.59018 0.67818 0.66286 0.0
Cd281 Cd 0.57426 0.67328 0.62966 0.0
Cd282 Cd 0.59997 0.64888 0.62429 0.0
O283 O 0.61363 0.66179 0.65794 0.0
O284 O 0.55651 0.69178 0.63333 0.0
O285 O 0.58671 0.70279 0.60776 0.0
C286 C 0.57058 0.70693 0.61743 0.0
C287 C 0.62376 0.65687 0.5902 0.0
C288 C 0.60579 0.67289 0.67095 0.0
C289 C 0.54569 0.6187 0.62023 0.0
O290 O 0.5656 0.61845 0.62245 0.0
O291 O 0.54564 0.63881 0.62104 0.0
O292 O 0.62252 0.64144 0.606 0.0
O293 O 0.61249 0.66886 0.59448 0.0
O294 O 0.91558 0.58979 0.16314 0.0
Cd295 Cd 0.90449 0.57426 0.12979 0.0
Cd296 Cd 0.95453 0.59973 0.1243 0.0
O297 O 0.95537 0.61333 0.15801 0.0
O298 O 0.86824 0.55693 0.13331 0.0
O299 O 0.88786 0.58724 0.10796 0.0
C300 C 0.86745 0.57122 0.11749 0.0
C301 C 0.97091 0.62368 0.09039 0.0
C302 C 0.93651 0.60537 0.17117 0.0
C303 C 0.93014 0.54545 0.12001 0.0
O304 O 0.95035 0.56526 0.12233 0.0
O305 O 0.91004 0.54553 0.12087 0.0
O306 O 0.98481 0.62217 0.10635 0.0
O307 O 0.94761 0.61261 0.09441 0.0
O308 O 0.32824 0.91355 0.66283 0.0
Cd309 Cd 0.33333 0.90295 0.6295 0.0
Cd310 Cd 0.35725 0.95285 0.62442 0.0
O311 O 0.34425 0.95335 0.6581 0.0
O312 O 0.31469 0.86667 0.63261 0.0
O313 O 0.30404 0.88637 0.6073 0.0
C314 C 0.29972 0.86592 0.61668 0.0
C315 C 0.34897 0.96843 0.59037 0.0
C316 C 0.33331 0.93434 0.67103 0.0
C317 C 0.38791 0.92929 0.6202 0.0
O318 O 0.38792 0.94932 0.6225 0.0
O319 O 0.36791 0.90902 0.62095 0.0
O320 O 0.36432 0.98274 0.60617 0.0
O321 O 0.3372 0.94518 0.59466 0.0
O322 O 0.41875 0.32646 0.16276 0.0
Cd323 Cd 0.43427 0.33122 0.12936 0.0
Cd324 Cd 0.40848 0.35549 0.1243 0.0
O325 O 0.39504 0.34257 0.15803 0.0
O326 O 0.45204 0.31273 0.13269 0.0
O327 O 0.4215 0.30164 0.10753 0.0
C328 C 0.43776 0.29753 0.11694 0.0
C329 C 0.38448 0.34745 0.09038 0.0
C330 C 0.40311 0.33164 0.17097 0.0
C331 C 0.4627 0.38574 0.11976 0.0
O332 O 0.44281 0.38597 0.12226 0.0
O333 O 0.46277 0.36564 0.12046 0.0
O334 O 0.38577 0.36286 0.10623 0.0
O335 O 0.3958 0.33549 0.09453 0.0
H336 H 0.40664 0.10822 0.31807 0.0
H337 H 0.37971 0.02922 0.1993 0.0
H338 H 0.38079 0.03072 0.31876 0.0
H339 H 0.40832 0.10721 0.20132 0.0
H340 H 0.37383 0.02771 0.24257 0.0
H341 H 0.40096 0.1064 0.27516 0.0
C342 C 0.3995 0.09072 0.30921 0.0
C343 C 0.39448 0.06964 0.32203 0.0
C344 C 0.38109 0.04508 0.23346 0.0
C345 C 0.38821 0.06747 0.27257 0.0
C346 C 0.38437 0.04594 0.20875 0.0
C347 C 0.39482 0.06843 0.19668 0.0
C348 C 0.38823 0.06683 0.24611 0.0
C349 C 0.40052 0.0895 0.20986 0.0
C350 C 0.39627 0.08969 0.28464 0.0
C351 C 0.38499 0.04744 0.30957 0.0
N352 N 0.39734 0.0882 0.2338 0.0
N353 N 0.38249 0.04699 0.28546 0.0
H354 H 0.30106 0.40501 0.70052 0.0
H355 H 0.35201 0.37764 0.81983 0.0
H356 H 0.35243 0.37878 0.70033 0.0
H357 H 0.3031 0.40681 0.81726 0.0
H358 H 0.34789 0.37175 0.77654 0.0
H359 H 0.29691 0.39935 0.74342 0.0
C360 C 0.3113 0.3978 0.70949 0.0
C361 C 0.32735 0.39266 0.69681 0.0
C362 C 0.33783 0.37914 0.78554 0.0
C363 C 0.32293 0.38641 0.74626 0.0
C364 C 0.3401 0.38242 0.81026 0.0
C365 C 0.32812 0.39303 0.82217 0.0
C366 C 0.32342 0.38643 0.77273 0.0
C367 C 0.31295 0.39888 0.80883 0.0
C368 C 0.30894 0.39458 0.73405 0.0
C369 C 0.33991 0.38307 0.7094 0.0
N370 N 0.31121 0.39569 0.78489 0.0
N371 N 0.33771 0.38058 0.73351 0.0
H372 H 0.97613 0.35047 0.19904 0.0
H373 H 0.89666 0.29988 0.31781 0.0
H374 H 0.89787 0.30249 0.20104 0.0
H375 H 0.97443 0.35047 0.31855 0.0
H376 H 0.89842 0.29596 0.27491 0.0
H377 H 0.97745 0.3462 0.24236 0.0
C378 C 0.9593 0.33873 0.2085 0.0
C379 C 0.93681 0.32705 0.1964 0.0
C380 C 0.9152 0.30777 0.2844 0.0
C381 C 0.93818 0.32219 0.24588 0.0
C382 C 0.9142 0.31 0.30897 0.0
C383 C 0.93538 0.32577 0.32181 0.0
C384 C 0.9375 0.3216 0.27235 0.0
C385 C 0.95763 0.33818 0.30936 0.0
C386 C 0.96006 0.33638 0.23323 0.0
C387 C 0.91559 0.3121 0.2096 0.0
N388 N 0.95806 0.3361 0.28525 0.0
N389 N 0.91679 0.31027 0.23356 0.0
H390 H 0.62895 0.97571 0.69858 0.0
H391 H 0.60199 0.89752 0.81789 0.0
H392 H 0.60007 0.89769 0.70116 0.0
H393 H 0.62802 0.97505 0.81803 0.0
H394 H 0.60764 0.89902 0.775 0.0
H395 H 0.63495 0.97752 0.74184 0.0
C396 C 0.62426 0.95904 0.70815 0.0
C397 C 0.6137 0.93646 0.69624 0.0
C398 C 0.61237 0.91581 0.78435 0.0
C399 C 0.62042 0.9384 0.74567 0.0
C400 C 0.60916 0.91496 0.80891 0.0
C401 C 0.61424 0.93614 0.82157 0.0
C402 C 0.62048 0.93795 0.77213 0.0
C403 C 0.62377 0.95826 0.80896 0.0
C404 C 0.6276 0.96008 0.73285 0.0
C405 C 0.60796 0.91546 0.70958 0.0
N406 N 0.62626 0.95854 0.78486 0.0
N407 N 0.61121 0.91693 0.73351 0.0
H408 H 0.70646 0.59843 0.31819 0.0
H409 H 0.65618 0.62712 0.19912 0.0
H410 H 0.65559 0.62528 0.31864 0.0
H411 H 0.7044 0.59712 0.2014 0.0
H412 H 0.6602 0.63263 0.24245 0.0
H413 H 0.71055 0.60413 0.2753 0.0
C414 C 0.69631 0.60578 0.30928 0.0
C415 C 0.68041 0.6111 0.32204 0.0
C416 C 0.67012 0.62514 0.23338 0.0
C417 C 0.68479 0.61741 0.27258 0.0
C418 C 0.66792 0.62207 0.20864 0.0
C419 C 0.67974 0.61136 0.19662 0.0
C420 C 0.68432 0.61752 0.24612 0.0
C421 C 0.69468 0.60515 0.2099 0.0
C422 C 0.69864 0.60902 0.28471 0.0
C423 C 0.66797 0.62085 0.3095 0.0
N424 N 0.69637 0.60814 0.23386 0.0
N425 N 0.67016 0.62338 0.2854 0.0
H426 H 0.1115 0.70481 0.69993 0.0
H427 H 0.03242 0.65435 0.81892 0.0
H428 H 0.03378 0.65398 0.69943 0.0
H429 H 0.11059 0.70279 0.81672 0.0
H430 H 0.03096 0.65843 0.77559 0.0
H431 H 0.10984 0.70888 0.74282 0.0
C432 C 0.09399 0.69466 0.70882 0.0
C433 C 0.0728 0.67879 0.69605 0.0
C434 C 0.04836 0.66839 0.78468 0.0
C435 C 0.0708 0.68314 0.7455 0.0
C436 C 0.0492 0.66615 0.80942 0.0
C437 C 0.07171 0.67801 0.82146 0.0
C438 C 0.07018 0.68266 0.77197 0.0
C439 C 0.09286 0.69304 0.80821 0.0
C440 C 0.09305 0.69698 0.73339 0.0
C441 C 0.05059 0.66635 0.70857 0.0
N442 N 0.09159 0.69476 0.78425 0.0
N443 N 0.05022 0.66852 0.73267 0.0
H444 H 0.97794 0.62743 0.19913 0.0
H445 H 0.89908 0.59986 0.31813 0.0
H446 H 0.89996 0.59896 0.20137 0.0
H447 H 0.97659 0.62566 0.31863 0.0
H448 H 0.90085 0.60575 0.27526 0.0
H449 H 0.97952 0.63301 0.24245 0.0
C450 C 0.96123 0.62274 0.20864 0.0
C451 C 0.93873 0.61242 0.19661 0.0
C452 C 0.91757 0.61038 0.28468 0.0
C453 C 0.94039 0.61865 0.2461 0.0
C454 C 0.91657 0.60703 0.30924 0.0
C455 C 0.93767 0.61199 0.322 0.0
C456 C 0.93978 0.6185 0.27257 0.0
C457 C 0.95986 0.62151 0.30949 0.0
C458 C 0.96213 0.62584 0.23338 0.0
C459 C 0.91767 0.60667 0.20987 0.0
N460 N 0.96029 0.62414 0.2854 0.0
N461 N 0.91901 0.60967 0.23383 0.0
H462 H 0.35319 0.97597 0.81936 0.0
H463 H 0.3017 0.89759 0.70019 0.0
H464 H 0.30392 0.89798 0.81692 0.0
H465 H 0.35327 0.9751 0.69989 0.0
H466 H 0.29763 0.89917 0.74309 0.0
H467 H 0.34897 0.97771 0.77609 0.0
C468 C 0.34118 0.9593 0.80982 0.0
C469 C 0.32913 0.93674 0.82177 0.0
C470 C 0.30968 0.91594 0.7337 0.0
C471 C 0.32431 0.9386 0.77234 0.0
C472 C 0.312 0.91504 0.70913 0.0
C473 C 0.32809 0.93619 0.69642 0.0
C474 C 0.32376 0.9381 0.74588 0.0
C475 C 0.34073 0.95833 0.70899 0.0
C476 C 0.33885 0.9603 0.78511 0.0
C477 C 0.31382 0.91573 0.80848 0.0
N478 N 0.33856 0.95866 0.7331 0.0
N479 N 0.31203 0.91716 0.78454 0.0
H480 H 0.37962 0.35072 0.31918 0.0
H481 H 0.40873 0.30045 0.20034 0.0
H482 H 0.40962 0.30251 0.31712 0.0
H483 H 0.38186 0.3513 0.19968 0.0
H484 H 0.40287 0.29636 0.24321 0.0
H485 H 0.37422 0.34668 0.27584 0.0
C486 C 0.38468 0.33898 0.30971 0.0
C487 C 0.39536 0.32717 0.3218 0.0
C488 C 0.39801 0.30826 0.23375 0.0
C489 C 0.38935 0.32256 0.27229 0.0
C490 C 0.40134 0.3106 0.20919 0.0
C491 C 0.39607 0.32648 0.19639 0.0
C492 C 0.38957 0.3221 0.24582 0.0
C493 C 0.38627 0.33892 0.20886 0.0
C494 C 0.38169 0.33676 0.28496 0.0
C495 C 0.40161 0.31221 0.30858 0.0
N496 N 0.38364 0.33673 0.23295 0.0
N497 N 0.39869 0.31051 0.2846 0.0
H498 H 0.10958 0.40538 0.69995 0.0
H499 H 0.03042 0.37732 0.81881 0.0
H500 H 0.03197 0.37905 0.6993 0.0
H501 H 0.10849 0.40633 0.8167 0.0
H502 H 0.02896 0.37173 0.77549 0.0
H503 H 0.10778 0.39952 0.74283 0.0
C504 C 0.09206 0.3981 0.70881 0.0
C505 C 0.07095 0.39299 0.696 0.0
C506 C 0.04633 0.37902 0.78459 0.0
C507 C 0.06879 0.38651 0.74544 0.0
C508 C 0.04717 0.38212 0.80933 0.0
C509 C 0.06967 0.3926 0.82139 0.0
C510 C 0.06813 0.38636 0.77191 0.0
C511 C 0.09078 0.3985 0.80817 0.0
C512 C 0.09104 0.39477 0.73337 0.0
C513 C 0.04872 0.38333 0.70847 0.0
N514 N 0.0895 0.39549 0.78421 0.0
N515 N 0.04827 0.38072 0.73257 0.0
H516 H 0.65598 0.02964 0.31861 0.0
H517 H 0.70688 0.10921 0.20002 0.0
H518 H 0.70405 0.10786 0.31677 0.0
H519 H 0.65658 0.0314 0.19917 0.0
H520 H 0.71078 0.10743 0.24292 0.0
H521 H 0.66051 0.02836 0.27533 0.0
C522 C 0.6678 0.04647 0.3092 0.0
C523 C 0.67941 0.06894 0.32132 0.0
C524 C 0.69905 0.09065 0.23341 0.0
C525 C 0.68457 0.06761 0.27188 0.0
C526 C 0.69683 0.09166 0.20884 0.0
C527 C 0.68114 0.07047 0.19597 0.0
C528 C 0.68527 0.06833 0.24543 0.0
C529 C 0.66881 0.04821 0.20839 0.0
C530 C 0.67029 0.04574 0.28449 0.0
C531 C 0.69448 0.09016 0.30819 0.0
N532 N 0.67086 0.04776 0.2325 0.0
N533 N 0.69644 0.08898 0.28424 0.0
H534 H 0.60143 0.70498 0.7001 0.0
H535 H 0.6277 0.65291 0.81923 0.0
H536 H 0.62618 0.65245 0.69973 0.0
H537 H 0.60036 0.70335 0.81682 0.0
H538 H 0.63346 0.65688 0.77592 0.0
H539 H 0.60737 0.70915 0.74296 0.0
C540 C 0.60838 0.69448 0.70902 0.0
C541 C 0.61302 0.6781 0.6963 0.0
C542 C 0.62651 0.6673 0.78496 0.0
C543 C 0.61958 0.68254 0.74572 0.0
C544 C 0.62331 0.66513 0.80969 0.0
C545 C 0.61324 0.67758 0.82166 0.0
C546 C 0.61968 0.6821 0.77219 0.0
C547 C 0.60787 0.69313 0.80836 0.0
C548 C 0.61176 0.69686 0.73357 0.0
C549 C 0.62228 0.66522 0.70884 0.0
N550 N 0.61096 0.69477 0.78441 0.0
N551 N 0.62493 0.66744 0.73293 0.0
H552 H 0.40293 0.14761 0.09362 0.0
H553 H 0.47564 0.28997 0.12646 0.0
H554 H 0.47338 0.18507 0.12813 0.0
H555 H 0.40378 0.25497 0.09474 0.0
H556 H 0.47682 0.25231 0.12187 0.0
H557 H 0.40446 0.18708 0.08879 0.0
C558 C 0.41884 0.16414 0.09986 0.0
C559 C 0.43795 0.16303 0.11151 0.0
C560 C 0.46081 0.25279 0.1157 0.0
C561 C 0.43979 0.20805 0.10611 0.0
C562 C 0.46014 0.27436 0.11832 0.0
C563 C 0.43947 0.27555 0.1112 0.0
C564 C 0.44054 0.23198 0.10613 0.0
C565 C 0.42005 0.2548 0.10053 0.0
C566 C 0.41967 0.18662 0.09717 0.0
C567 C 0.4581 0.18498 0.11928 0.0
N568 N 0.42091 0.23371 0.09857 0.0
N569 N 0.4584 0.20647 0.11657 0.0
H570 H 0.18723 0.47307 0.6268 0.0
H571 H 0.25735 0.40097 0.59322 0.0
H572 H 0.15072 0.4016 0.59429 0.0
H573 H 0.29022 0.47134 0.62785 0.0
H574 H 0.21934 0.4024 0.58851 0.0
H575 H 0.22616 0.47441 0.62217 0.0
C576 C 0.18743 0.45769 0.61847 0.0
C577 C 0.16564 0.43708 0.61114 0.0
C578 C 0.235 0.41761 0.59689 0.0
C579 C 0.21039 0.43834 0.60602 0.0
C580 C 0.2567 0.41685 0.59951 0.0
C581 C 0.27691 0.43595 0.61116 0.0
C582 C 0.23363 0.43768 0.60591 0.0
C583 C 0.27505 0.45606 0.61899 0.0
C584 C 0.20973 0.45845 0.61584 0.0
C585 C 0.1671 0.41782 0.60025 0.0
N586 N 0.25381 0.4563 0.61635 0.0
N587 N 0.1891 0.41877 0.59827 0.0
H588 H 0.85866 0.25666 0.093 0.0
H589 H 0.71632 0.18629 0.12606 0.0
H590 H 0.8208 0.28946 0.12711 0.0
H591 H 0.75167 0.14988 0.09411 0.0
H592 H 0.7538 0.22527 0.12134 0.0
H593 H 0.81931 0.21858 0.08824 0.0
C594 C 0.84207 0.25598 0.09916 0.0
C595 C 0.84304 0.27618 0.11069 0.0
C596 C 0.75344 0.20885 0.11515 0.0
C597 C 0.79814 0.23284 0.10537 0.0
C598 C 0.73196 0.18652 0.11784 0.0
C599 C 0.73093 0.16475 0.11069 0.0
C600 C 0.7743 0.20956 0.10547 0.0
C601 C 0.75172 0.16625 0.09992 0.0
C602 C 0.81965 0.23424 0.09651 0.0
C603 C 0.82101 0.27429 0.11835 0.0
N604 N 0.77271 0.18828 0.09789 0.0
N605 N 0.79958 0.25302 0.11569 0.0
H606 H 0.53294 0.71462 0.62779 0.0
H607 H 0.60485 0.85661 0.59338 0.0
H608 H 0.60411 0.74929 0.59462 0.0
H609 H 0.53489 0.81941 0.62887 0.0
H610 H 0.60336 0.81713 0.58879 0.0
H611 H 0.53165 0.75222 0.62321 0.0
C612 C 0.54826 0.73014 0.61933 0.0
C613 C 0.56877 0.72887 0.61179 0.0
C614 C 0.58825 0.81765 0.59734 0.0
C615 C 0.56758 0.77239 0.60673 0.0
C616 C 0.58905 0.84013 0.59989 0.0
C617 C 0.57007 0.84133 0.61173 0.0
C618 C 0.56828 0.7963 0.60662 0.0
C619 C 0.55007 0.81944 0.61985 0.0
C620 C 0.54753 0.75168 0.61673 0.0
C621 C 0.58797 0.74952 0.60074 0.0
N622 N 0.54979 0.79795 0.61727 0.0
N623 N 0.58705 0.77058 0.59879 0.0
H624 H 0.7169 0.53211 0.12704 0.0
H625 H 0.85924 0.60475 0.09381 0.0
H626 H 0.7518 0.60387 0.09515 0.0
H627 H 0.82185 0.53437 0.12843 0.0
H628 H 0.81975 0.60326 0.08917 0.0
H629 H 0.75459 0.53098 0.12246 0.0
C630 C 0.73249 0.5476 0.11887 0.0
C631 C 0.73126 0.56823 0.11169 0.0
C632 C 0.82023 0.58806 0.09754 0.0
C633 C 0.77488 0.56721 0.10663 0.0
C634 C 0.84272 0.58886 0.10012 0.0
C635 C 0.84386 0.56976 0.11174 0.0
C636 C 0.79882 0.56796 0.10655 0.0
C637 C 0.82193 0.54964 0.1196 0.0
C638 C 0.75409 0.54696 0.11626 0.0
C639 C 0.75201 0.58764 0.10099 0.0
N640 N 0.80043 0.54936 0.11699 0.0
N641 N 0.77311 0.5868 0.09903 0.0
H642 H 0.25801 0.85771 0.59294 0.0
H643 H 0.18867 0.71534 0.6257 0.0
H644 H 0.29124 0.82032 0.62715 0.0
H645 H 0.15165 0.75024 0.59415 0.0
H646 H 0.22748 0.75302 0.621 0.0
H647 H 0.22012 0.81819 0.58811 0.0
C648 C 0.25746 0.84119 0.59911 0.0
C649 C 0.27773 0.84233 0.61068 0.0
C650 C 0.21096 0.75252 0.6149 0.0
C651 C 0.2346 0.79726 0.60528 0.0
C652 C 0.18873 0.73093 0.61757 0.0
C653 C 0.16684 0.72971 0.61054 0.0
C654 C 0.21144 0.77331 0.60534 0.0
C655 C 0.16812 0.75044 0.59988 0.0
C656 C 0.23583 0.81868 0.59642 0.0
C657 C 0.27601 0.82039 0.61836 0.0
N658 N 0.19005 0.77154 0.59786 0.0
N659 N 0.25485 0.79887 0.61565 0.0
H660 H 0.8213 0.53166 0.39158 0.0
H661 H 0.75112 0.60364 0.42531 0.0
H662 H 0.85788 0.60326 0.4238 0.0
H663 H 0.71811 0.53294 0.39131 0.0
H664 H 0.78922 0.60235 0.42986 0.0
H665 H 0.78235 0.5302 0.3965 0.0
C666 C 0.82111 0.54704 0.3999 0.0
C667 C 0.84292 0.56772 0.40707 0.0
C668 C 0.77352 0.58703 0.42166 0.0
C669 C 0.79814 0.56633 0.41251 0.0
C670 C 0.75176 0.58772 0.41913 0.0
C671 C 0.73149 0.56848 0.40769 0.0
C672 C 0.77487 0.56692 0.41276 0.0
C673 C 0.73333 0.54832 0.4 0.0
C674 C 0.7988 0.54621 0.4027 0.0
C675 C 0.84147 0.58699 0.41796 0.0
N676 N 0.75462 0.54816 0.40253 0.0
N677 N 0.81946 0.58597 0.4201 0.0
H678 H 0.18812 0.71492 0.89083 0.0
H679 H 0.25799 0.85708 0.92451 0.0
H680 H 0.15138 0.74981 0.92305 0.0
H681 H 0.29088 0.81975 0.88956 0.0
H682 H 0.21998 0.81763 0.92913 0.0
H683 H 0.22698 0.75254 0.89546 0.0
C684 C 0.18825 0.73049 0.89909 0.0
C685 C 0.16642 0.72928 0.90634 0.0
C686 C 0.23564 0.81811 0.9207 0.0
C687 C 0.21109 0.77282 0.91147 0.0
C688 C 0.25734 0.84059 0.91813 0.0
C689 C 0.27755 0.84173 0.90642 0.0
C690 C 0.2343 0.79672 0.91158 0.0
C691 C 0.2757 0.81982 0.89846 0.0
C692 C 0.21051 0.75205 0.90172 0.0
C693 C 0.16779 0.75 0.91715 0.0
N694 N 0.25448 0.79833 0.90106 0.0
N695 N 0.18976 0.77106 0.91914 0.0
H696 H 0.40248 0.14841 0.42517 0.0
H697 H 0.47497 0.29067 0.39188 0.0
H698 H 0.47303 0.1859 0.39083 0.0
H699 H 0.40309 0.25564 0.42358 0.0
H700 H 0.47625 0.25308 0.39667 0.0
H701 H 0.40391 0.18786 0.42982 0.0
C702 C 0.4184 0.16494 0.41894 0.0
C703 C 0.43756 0.16385 0.40738 0.0
C704 C 0.46021 0.25353 0.40278 0.0
C705 C 0.43929 0.20884 0.41256 0.0
C706 C 0.45948 0.27507 0.40006 0.0
C707 C 0.43878 0.27623 0.40711 0.0
C708 C 0.43997 0.23273 0.41241 0.0
C709 C 0.41938 0.25549 0.41783 0.0
C710 C 0.41916 0.18741 0.42152 0.0
C711 C 0.45771 0.1858 0.39961 0.0
N712 N 0.4203 0.23444 0.4199 0.0
N713 N 0.45796 0.20727 0.40222 0.0
H714 H 0.29121 0.47319 0.89022 0.0
H715 H 0.14914 0.4011 0.92449 0.0
H716 H 0.2566 0.40207 0.92345 0.0
H717 H 0.18631 0.47113 0.88918 0.0
H718 H 0.18865 0.40264 0.92908 0.0
H719 H 0.25355 0.4744 0.89472 0.0
C720 C 0.27569 0.45786 0.89867 0.0
C721 C 0.277 0.43739 0.90625 0.0
C722 C 0.18812 0.41776 0.92057 0.0
C723 C 0.23341 0.4385 0.91123 0.0
C724 C 0.16562 0.41693 0.91802 0.0
C725 C 0.1644 0.43591 0.90623 0.0
C726 C 0.20948 0.43776 0.91134 0.0
C727 C 0.18629 0.45595 0.89816 0.0
C728 C 0.25411 0.45855 0.90123 0.0
C729 C 0.25634 0.41819 0.91729 0.0
N730 N 0.2078 0.45625 0.90073 0.0
N731 N 0.23525 0.41906 0.9192 0.0
H732 H 0.74962 0.14719 0.42469 0.0
H733 H 0.81942 0.28957 0.39201 0.0
H734 H 0.71656 0.18485 0.39072 0.0
H735 H 0.85619 0.25442 0.4236 0.0
H736 H 0.78053 0.25198 0.39672 0.0
H737 H 0.7876 0.18661 0.42953 0.0
C738 C 0.75022 0.16375 0.41858 0.0
C739 C 0.72997 0.16271 0.40707 0.0
C740 C 0.79701 0.25241 0.40283 0.0
C741 C 0.77321 0.20768 0.41246 0.0
C742 C 0.81929 0.27395 0.40015 0.0
C743 C 0.84113 0.27507 0.40719 0.0
C744 C 0.79643 0.23158 0.4124 0.0
C745 C 0.83976 0.2543 0.41786 0.0
C746 C 0.77191 0.18621 0.42127 0.0
C747 C 0.73177 0.18471 0.39946 0.0
N748 N 0.81778 0.23325 0.41988 0.0
N749 N 0.75299 0.20617 0.40216 0.0
H750 H 0.53367 0.71561 0.88957 0.0
H751 H 0.60563 0.85736 0.92474 0.0
H752 H 0.60465 0.74993 0.9231 0.0
H753 H 0.53536 0.82028 0.88987 0.0
H754 H 0.60415 0.81786 0.92903 0.0
H755 H 0.5324 0.75319 0.89441 0.0
C756 C 0.54896 0.73105 0.89815 0.0
C757 C 0.56941 0.72969 0.90573 0.0
C758 C 0.58896 0.8184 0.92069 0.0
C759 C 0.56823 0.77319 0.91112 0.0
C760 C 0.58976 0.8409 0.91832 0.0
C761 C 0.5707 0.84214 0.90672 0.0
C762 C 0.56892 0.79708 0.91147 0.0
C763 C 0.5506 0.82028 0.8987 0.0
C764 C 0.54824 0.75258 0.90091 0.0
C765 C 0.58856 0.75024 0.91694 0.0
N766 N 0.55034 0.79877 0.90109 0.0
N767 N 0.58765 0.77129 0.91905 0.0
H768 H 0.32611 0.94238 0.96842 0.0
H769 H 0.38594 0.06234 0.05016 0.0
H770 H 0.36936 0.01581 0.94123 0.0
H771 H 0.35593 0.98894 0.07736 0.0
H772 H 0.37207 0.04551 0.01028 0.0
H773 H 0.32901 0.9592 1.00831 0.0
C774 C 0.33584 0.96205 0.97074 0.0
C775 C 0.34774 0.97769 0.95148 0.0
C776 C 0.36824 0.03308 0.02504 0.0
C777 C 0.35126 0.99705 0.99712 0.0
C778 C 0.37605 0.04267 0.04784 0.0
C779 C 0.37234 0.02704 0.06711 0.0
C780 C 0.35655 0.00767 0.02147 0.0
C781 C 0.35942 1.0017 0.063 0.0
C782 C 0.33759 0.97163 0.99355 0.0
C783 C 0.3601 0.00303 0.95558 0.0
N784 N 0.35219 0.99282 0.04063 0.0
N785 N 0.36172 0.0119 0.97796 0.0
H786 H 0.35388 0.36629 0.44013 0.0
H787 H 0.36794 0.35205 0.57876 0.0
H788 H 0.3857 0.32516 0.46895 0.0
H789 H 0.3265 0.38353 0.54991 0.0
H790 H 0.37093 0.33834 0.53892 0.0
H791 H 0.34 0.36908 0.47996 0.0
C792 C 0.35763 0.35752 0.45478 0.0
C793 C 0.37119 0.34568 0.45121 0.0
C794 C 0.36087 0.34793 0.54131 0.0
C795 C 0.35562 0.34911 0.49702 0.0
C796 C 0.35914 0.35576 0.5641 0.0
C797 C 0.34715 0.36918 0.56767 0.0
C798 C 0.35082 0.3538 0.52184 0.0
C799 C 0.336 0.37333 0.548 0.0
C800 C 0.3497 0.35913 0.47756 0.0
C801 C 0.37539 0.33455 0.47087 0.0
N802 N 0.33841 0.36599 0.52589 0.0
N803 N 0.36795 0.33685 0.49297 0.0
H804 H 0.06335 0.38304 0.96811 0.0
H805 H 0.94325 0.32369 0.04974 0.0
H806 H 0.98998 0.35309 0.94083 0.0
H807 H 0.01671 0.36639 0.07703 0.0
H808 H 0.96008 0.32651 0.00987 0.0
H809 H 0.04645 0.36922 1.00799 0.0
C810 C 0.04368 0.37318 0.97041 0.0
C811 C 0.02807 0.36946 0.95112 0.0
C812 C 0.97252 0.33499 0.02465 0.0
C813 C 0.00862 0.35374 0.99676 0.0
C814 C 0.96293 0.33328 0.04745 0.0
C815 C 0.97858 0.34506 0.06674 0.0
C816 C 0.99796 0.34848 0.0211 0.0
C817 C 1.00393 0.35723 0.06266 0.0
C818 C 0.03404 0.3654 0.99321 0.0
C819 C 1.00272 0.35657 0.9552 0.0
N820 N 0.01281 0.35881 0.04028 0.0
N821 N 0.9938 0.34937 0.97757 0.0
H822 H 0.63947 0.98817 0.43937 0.0
H823 H 0.65332 0.01635 0.57798 0.0
H824 H 0.68059 0.06107 0.46826 0.0
H825 H 0.62214 0.94348 0.54912 0.0
H826 H 0.66714 0.03309 0.53817 0.0
H827 H 0.63662 0.97147 0.47918 0.0
C828 C 0.64823 1.00068 0.45403 0.0
C829 C 0.66008 0.02608 0.45048 0.0
C830 C 0.65759 0.01344 0.54055 0.0
C831 C 0.65658 0.00704 0.49628 0.0
C832 C 0.64969 0.00385 0.56332 0.0
C833 C 0.63633 0.97845 0.56688 0.0
C834 C 0.65183 0.99753 0.52109 0.0
C835 C 0.63229 0.96318 0.54721 0.0
C836 C 0.64658 0.99112 0.4768 0.0
C837 C 0.67119 0.04138 0.47016 0.0
N838 N 0.63969 0.97294 0.52512 0.0
N839 N 0.66886 0.03163 0.49225 0.0
H840 H 0.63743 0.65169 0.08016 0.0
H841 H 0.62702 0.68696 0.96614 0.0
H842 H 0.68117 0.62374 0.0493 0.0
H843 H 0.64667 0.63352 0.94421 0.0
H844 H 0.64076 0.68553 1.00638 0.0
H845 H 0.63338 0.66578 0.04111 0.0
C846 C 0.64669 0.64902 0.06521 0.0
C847 C 0.65957 0.63639 0.06804 0.0
C848 C 0.64194 0.67396 0.99288 0.0
C849 C 0.65524 0.65281 0.02291 0.0
C850 C 0.63436 0.67502 0.96975 0.0
C851 C 0.63529 0.66003 0.95182 0.0
C852 C 0.65027 0.65756 0.9982 0.0
C853 C 0.6453 0.64518 0.95751 0.0
C854 C 0.64452 0.65728 0.0428 0.0
C855 C 0.67107 0.63339 0.04798 0.0
N856 N 0.65217 0.64416 0.98021 0.0
N857 N 0.6683 0.64118 0.02623 0.0
H858 H 0.98932 0.63535 0.58015 0.0
H859 H 0.94324 0.62555 0.46642 0.0
H860 H 0.06087 0.6796 0.54921 0.0
H861 H 0.01642 0.64598 0.44406 0.0
H862 H 0.95847 0.63899 0.5067 0.0
H863 H 0.97104 0.6315 0.54122 0.0
C864 C 1.00118 0.64475 0.56522 0.0
C865 C 0.0267 0.65772 0.56798 0.0
C866 C 0.97123 0.64041 0.4931 0.0
C867 C 0.00579 0.65365 0.52298 0.0
C868 C 0.96255 0.63301 0.46995 0.0
C869 C 0.97848 0.63423 0.45188 0.0
C870 C 0.996 0.64886 0.4983 0.0
C871 C 1.00339 0.64438 0.45746 0.0
C872 C 0.99067 0.6427 0.54287 0.0
C873 C 0.04112 0.66942 0.54794 0.0
N874 N 0.01131 0.65106 0.48018 0.0
N875 N 0.03049 0.66678 0.52625 0.0
H876 H 0.65496 0.0174 0.93934 0.0
H877 H 0.64142 0.98948 0.07804 0.0
H878 H 0.62368 0.94459 0.96838 0.0
H879 H 0.68222 0.06235 0.04898 0.0
H880 H 0.63852 0.97273 0.03824 0.0
H881 H 0.66887 0.03422 0.97911 0.0
C882 C 0.65133 0.00493 0.95403 0.0
C883 C 0.6379 0.97952 0.95054 0.0
C884 C 0.64842 0.99238 0.04058 0.0
C885 C 0.65351 0.99871 0.99627 0.0
C886 C 0.65011 1.00198 0.06334 0.0
C887 C 0.66188 0.02738 0.06684 0.0
C888 C 0.65831 0.00827 0.02107 0.0
C889 C 0.67288 0.04265 0.04712 0.0
C890 C 0.65928 0.01457 0.97677 0.0
C891 C 0.63387 0.96429 0.97024 0.0
N892 N 0.67052 0.03287 0.02504 0.0
N893 N 0.64132 0.97411 0.9923 0.0
H894 H 0.68255 0.62055 0.46856 0.0
H895 H 0.62204 0.68041 0.54983 0.0
H896 H 0.63945 0.65076 0.44102 0.0
H897 H 0.65203 0.63709 0.5773 0.0
H898 H 0.63611 0.67748 0.51003 0.0
H899 H 0.67931 0.63432 0.50841 0.0
C900 C 0.67278 0.63046 0.4708 0.0
C901 C 0.66102 0.63426 0.45144 0.0
C902 C 0.63989 0.66888 0.52483 0.0
C903 C 0.65712 0.64994 0.49705 0.0
C904 C 0.63196 0.67065 0.54759 0.0
C905 C 0.63562 0.65875 0.56691 0.0
C906 C 0.65165 0.6552 0.52135 0.0
C907 C 0.64859 0.64636 0.5629 0.0
C908 C 0.67084 0.63821 0.49359 0.0
C909 C 0.64861 0.64721 0.45544 0.0
N910 N 0.65594 0.64473 0.54056 0.0
N911 N 0.6468 0.65439 0.4778 0.0
H912 H 0.01913 0.65238 0.07835 0.0
H913 H 0.99118 0.63853 0.9397 0.0
H914 H 0.94632 0.62155 0.0494 0.0
H915 H 0.06407 0.67972 0.96865 0.0
H916 H 0.97442 0.63569 0.9795 0.0
H917 H 0.03597 0.66612 0.03855 0.0
C918 C 0.00667 0.64881 0.06367 0.0
C919 C 0.98125 0.63557 0.06721 0.0
C920 C 0.99408 0.64567 0.97713 0.0
C921 C 1.00044 0.65098 0.02142 0.0
C922 C 1.00368 0.64731 0.95437 0.0
C923 C 0.02909 0.65919 0.95084 0.0
C924 C 0.00998 0.65569 0.99662 0.0
C925 C 0.04437 0.6703 0.97053 0.0
C926 C 0.01631 0.65666 0.04091 0.0
C927 C 0.96602 0.63161 0.04752 0.0
N928 N 0.03459 0.66798 0.99261 0.0
N929 N 0.97584 0.63896 0.02543 0.0
H930 H 0.32547 0.943 0.55008 0.0
H931 H 0.3852 0.06305 0.46848 0.0
H932 H 0.36845 0.0164 0.57737 0.0
H933 H 0.35511 0.98968 0.44119 0.0
H934 H 0.37131 0.04618 0.50835 0.0
H935 H 0.32834 0.95984 0.51022 0.0
C936 C 0.33514 0.96266 0.54779 0.0
C937 C 0.34697 0.9783 0.56707 0.0
C938 C 0.36747 0.03377 0.49357 0.0
C939 C 0.35046 0.99769 0.52145 0.0
C940 C 0.37529 0.04339 0.47077 0.0
C941 C 0.37156 0.02777 0.45149 0.0
C942 C 0.35575 0.00834 0.49711 0.0
C943 C 0.35861 1.00243 0.45556 0.0
C944 C 0.33687 0.97227 0.52499 0.0
C945 C 0.35924 0.00364 0.563 0.0
N946 N 0.35137 0.99352 0.47793 0.0
N947 N 0.36084 0.01253 0.54063 0.0
H948 H 0.386 0.3239 0.04994 0.0
H949 H 0.32546 0.38404 0.96916 0.0
H950 H 0.35617 0.36726 0.07771 0.0
H951 H 0.36837 0.35373 0.94133 0.0
H952 H 0.32874 0.37019 1.00895 0.0
H953 H 0.37181 0.32689 0.01022 0.0
C954 C 0.37609 0.33368 0.04778 0.0
C955 C 0.37251 0.34558 0.06716 0.0
C956 C 0.33716 0.36629 0.99407 0.0
C957 C 0.35636 0.34919 0.0217 0.0
C958 C 0.33519 0.37409 0.97132 0.0
C959 C 0.34688 0.37029 0.9519 0.0
C960 C 0.35084 0.35451 0.99744 0.0
C961 C 0.35926 0.35729 0.95581 0.0
C962 C 0.36809 0.33548 0.02507 0.0
C963 C 0.35955 0.35799 0.06326 0.0
N964 N 0.36109 0.35006 0.97813 0.0
N965 N 0.35214 0.35966 0.04097 0.0
H966 H 0.98965 0.35249 0.57832 0.0
H967 H 0.0168 0.36618 0.43947 0.0
H968 H 0.06233 0.38369 0.54891 0.0
H969 H 0.9441 0.32489 0.46886 0.0
H970 H 0.03381 0.3692 0.47917 0.0
H971 H 0.97262 0.33865 0.53861 0.0
C972 C 1.00204 0.35612 0.56356 0.0
C973 C 0.02748 0.36949 0.56694 0.0
C974 C 0.01414 0.35917 0.47692 0.0
C975 C 0.00805 0.35396 0.52126 0.0
C976 C 0.0044 0.35742 0.45422 0.0
C977 C 0.97896 0.34546 0.45084 0.0
C978 C 0.99836 0.34916 0.49651 0.0
C979 C 0.96382 0.33437 0.47063 0.0
C980 C 0.99228 0.34821 0.54085 0.0
C981 C 0.04261 0.37353 0.54714 0.0
N982 N 0.97373 0.3368 0.49265 0.0
N983 N 0.03268 0.36611 0.52511 0.0
H984 H 0.50822 0.11644 0.11568 0.0
H985 H 0.5749 0.03683 0.11807 0.0
H986 H 0.46963 0.03755 0.11895 0.0
H987 H 0.61342 0.11575 0.11564 0.0
H988 H 0.53615 0.03663 0.11608 0.0
H989 H 0.54683 0.11642 0.11334 0.0
C990 C 0.50782 0.09909 0.11579 0.0
C991 C 0.48559 0.07696 0.11763 0.0
C992 C 0.55308 0.05399 0.11588 0.0
C993 C 0.52986 0.07683 0.11502 0.0
C994 C 0.57525 0.05413 0.11699 0.0
C995 C 0.59752 0.07635 0.11714 0.0
C996 C 0.5531 0.07624 0.11493 0.0
C997 C 0.59675 0.09817 0.11565 0.0
C998 C 0.52992 0.0991 0.11447 0.0
C999 C 0.48629 0.05506 0.11763 0.0
N1000 N 0.57493 0.09756 0.11472 0.0
N1001 N 0.50805 0.05557 0.11646 0.0
H1002 H 0.49944 0.61202 0.6159 0.0
H1003 H 0.43358 0.46582 0.61866 0.0
H1004 H 0.53844 0.57208 0.61876 0.0
H1005 H 0.39458 0.50577 0.61652 0.0
H1006 H 0.47216 0.50449 0.61645 0.0
H1007 H 0.46093 0.57327 0.61385 0.0
C1008 C 0.49995 0.59512 0.61598 0.0
C1009 C 0.52227 0.59537 0.61762 0.0
C1010 C 0.45517 0.5048 0.61636 0.0
C1011 C 0.47812 0.55083 0.61535 0.0
C1012 C 0.43309 0.48269 0.61761 0.0
C1013 C 0.41074 0.48249 0.61789 0.0
C1014 C 0.45497 0.52693 0.61542 0.0
C1015 C 0.41132 0.50499 0.61643 0.0
C1016 C 0.47791 0.57298 0.61482 0.0
C1017 C 0.52171 0.57284 0.61759 0.0
N1018 N 0.43306 0.52627 0.61536 0.0
N1019 N 0.50001 0.55152 0.61658 0.0
H1020 H 0.97002 0.43268 0.11788 0.0
H1021 H 0.89041 0.49936 0.11537 0.0
H1022 H 0.89107 0.39415 0.1157 0.0
H1023 H 0.96933 0.53791 0.11847 0.0
H1024 H 0.8904 0.46074 0.11308 0.0
H1025 H 0.97021 0.4714 0.11571 0.0
C1026 C 0.95271 0.43232 0.11682 0.0
C1027 C 0.93048 0.41006 0.11709 0.0
C1028 C 0.90773 0.47765 0.11416 0.0
C1029 C 0.93059 0.45445 0.11468 0.0
C1030 C 0.90776 0.49975 0.11545 0.0
C1031 C 0.92991 0.52197 0.11724 0.0
C1032 C 0.93 0.47769 0.11469 0.0
C1033 C 0.9518 0.52126 0.1172 0.0
C1034 C 0.95284 0.45448 0.1156 0.0
C1035 C 0.90865 0.41082 0.11562 0.0
N1036 N 0.95128 0.49949 0.11606 0.0
N1037 N 0.90926 0.43263 0.11458 0.0
H1038 H 0.43429 0.969 0.61822 0.0
H1039 H 0.49993 0.88841 0.61597 0.0
H1040 H 0.39518 0.89006 0.61632 0.0
H1041 H 0.53905 0.96733 0.61846 0.0
H1042 H 0.46145 0.88873 0.61385 0.0
H1043 H 0.47283 0.96881 0.61608 0.0
C1044 C 0.43377 0.95161 0.61724 0.0
C1045 C 0.4114 0.9295 0.61757 0.0
C1046 C 0.47846 0.90599 0.61475 0.0
C1047 C 0.45558 0.92917 0.61518 0.0
C1048 C 0.50047 0.90583 0.61595 0.0
C1049 C 0.52282 0.92788 0.61751 0.0
C1050 C 0.47871 0.92836 0.61515 0.0
C1051 C 0.5223 0.94987 0.61736 0.0
C1052 C 0.45582 0.95153 0.61603 0.0
C1053 C 0.41194 0.90756 0.61619 0.0
N1054 N 0.50062 0.94954 0.61631 0.0
N1055 N 0.43366 0.90796 0.61516 0.0
H1056 H 0.57468 0.53864 0.11764 0.0
H1057 H 0.50891 0.39245 0.11492 0.0
H1058 H 0.61373 0.49872 0.1155 0.0
H1059 H 0.46989 0.43234 0.11836 0.0
H1060 H 0.54739 0.43121 0.11261 0.0
H1061 H 0.53612 0.49996 0.11539 0.0
C1062 C 0.57519 0.52177 0.11657 0.0
C1063 C 0.59754 0.52198 0.11689 0.0
C1064 C 0.53041 0.43149 0.11376 0.0
C1065 C 0.55333 0.47753 0.11438 0.0
C1066 C 0.50839 0.40934 0.11506 0.0
C1067 C 0.48607 0.40908 0.11696 0.0
C1068 C 0.53019 0.45362 0.11439 0.0
C1069 C 0.48661 0.4316 0.11701 0.0
C1070 C 0.55312 0.49966 0.1153 0.0
C1071 C 0.59698 0.49949 0.11539 0.0
N1072 N 0.5083 0.45293 0.11585 0.0
N1073 N 0.57525 0.4782 0.11431 0.0
H1074 H 0.03853 0.46649 0.61765 0.0
H1075 H 0.11936 0.61265 0.61471 0.0
H1076 H 0.11749 0.50617 0.61551 0.0
H1077 H 0.04044 0.57298 0.61795 0.0
H1078 H 0.11894 0.57382 0.61257 0.0
H1079 H 0.0388 0.50524 0.61536 0.0
C1080 C 0.05594 0.48332 0.61658 0.0
C1081 C 0.07803 0.48302 0.61689 0.0
C1082 C 0.10171 0.5736 0.61364 0.0
C1083 C 0.07845 0.52756 0.61433 0.0
C1084 C 0.10192 0.5958 0.61484 0.0
C1085 C 0.0799 0.59614 0.61664 0.0
C1086 C 0.07931 0.55151 0.61426 0.0
C1087 C 0.05788 0.57366 0.61668 0.0
C1088 C 0.05607 0.50547 0.61529 0.0
C1089 C 0.10001 0.50547 0.6154 0.0
N1090 N 0.05816 0.55229 0.61562 0.0
N1091 N 0.09965 0.5268 0.61429 0.0
H1092 H 0.9698 0.5382 0.40014 0.0
H1093 H 0.88893 0.39205 0.40315 0.0
H1094 H 0.89084 0.49853 0.4023 0.0
H1095 H 0.96784 0.43167 0.39963 0.0
H1096 H 0.88938 0.4309 0.4053 0.0
H1097 H 0.96953 0.49944 0.40239 0.0
C1098 C 0.95239 0.52137 0.4012 0.0
C1099 C 0.9303 0.52168 0.40091 0.0
C1100 C 0.90661 0.4311 0.40417 0.0
C1101 C 0.92987 0.47714 0.40342 0.0
C1102 C 0.90638 0.40889 0.40295 0.0
C1103 C 0.92839 0.40854 0.40108 0.0
C1104 C 0.92901 0.45318 0.40348 0.0
C1105 C 0.95041 0.43101 0.40097 0.0
C1106 C 0.95226 0.49921 0.40247 0.0
C1107 C 0.90833 0.49923 0.40239 0.0
N1108 N 0.95015 0.45239 0.40204 0.0
N1109 N 0.90868 0.4779 0.40348 0.0
H1110 H 0.54098 0.96908 0.8998 0.0
H1111 H 0.39474 0.88865 0.9022 0.0
H1112 H 0.50107 0.89014 0.90184 0.0
H1113 H 0.43463 0.96757 0.89957 0.0
H1114 H 0.43351 0.88892 0.90434 0.0
H1115 H 0.50227 0.96895 0.90197 0.0
C1116 C 0.52411 0.95171 0.90082 0.0
C1117 C 0.52433 0.92958 0.90052 0.0
C1118 C 0.43379 0.90619 0.9034 0.0
C1119 C 0.47985 0.92932 0.90294 0.0
C1120 C 0.41163 0.90606 0.90219 0.0
C1121 C 0.41137 0.92812 0.90059 0.0
C1122 C 0.45593 0.92854 0.90296 0.0
C1123 C 0.43389 0.9501 0.90071 0.0
C1124 C 0.50198 0.95166 0.90205 0.0
C1125 C 0.50183 0.90766 0.90195 0.0
N1126 N 0.45523 0.94974 0.90176 0.0
N1127 N 0.48053 0.90809 0.90299 0.0
H1128 H 0.46799 0.4326 0.40025 0.0
H1129 H 0.61422 0.49832 0.40355 0.0
H1130 H 0.50792 0.39359 0.40302 0.0
H1131 H 0.57438 0.53737 0.39961 0.0
H1132 H 0.57542 0.45988 0.40582 0.0
H1133 H 0.50669 0.47118 0.40245 0.0
C1134 C 0.48487 0.43211 0.40145 0.0
C1135 C 0.48465 0.40976 0.40133 0.0
C1136 C 0.57516 0.47686 0.40456 0.0
C1137 C 0.52911 0.45397 0.40379 0.0
C1138 C 0.59733 0.49886 0.40328 0.0
C1139 C 0.59762 0.52117 0.40126 0.0
C1140 C 0.55303 0.4771 0.40379 0.0
C1141 C 0.5751 0.52065 0.40106 0.0
C1142 C 0.50698 0.45418 0.40269 0.0
C1143 C 0.50715 0.41034 0.40298 0.0
N1144 N 0.55375 0.49898 0.4022 0.0
N1145 N 0.52844 0.43206 0.40403 0.0
H1146 H 0.03776 0.46605 0.89997 0.0
H1147 H 0.11864 0.6122 0.90287 0.0
H1148 H 0.11673 0.50574 0.90203 0.0
H1149 H 0.03972 0.5726 0.89956 0.0
H1150 H 0.11817 0.57335 0.90505 0.0
H1151 H 0.03802 0.5048 0.90227 0.0
C1152 C 0.05517 0.48288 0.90103 0.0
C1153 C 0.07727 0.48259 0.90068 0.0
C1154 C 0.10095 0.57315 0.90395 0.0
C1155 C 0.07768 0.52712 0.90325 0.0
C1156 C 0.10119 0.59536 0.90273 0.0
C1157 C 0.07918 0.59572 0.90091 0.0
C1158 C 0.07854 0.55107 0.90332 0.0
C1159 C 0.05715 0.57326 0.90086 0.0
C1160 C 0.05529 0.50504 0.90233 0.0
C1161 C 0.09924 0.50504 0.90216 0.0
N1162 N 0.0574 0.55187 0.90193 0.0
N1163 N 0.09888 0.52636 0.90327 0.0
H1164 H 0.57332 0.03614 0.39946 0.0
H1165 H 0.50769 0.11672 0.4028 0.0
H1166 H 0.61242 0.11507 0.40195 0.0
H1167 H 0.46856 0.03783 0.39951 0.0
H1168 H 0.54615 0.11636 0.40481 0.0
H1169 H 0.53477 0.03631 0.40176 0.0
C1170 C 0.57384 0.05352 0.40061 0.0
C1171 C 0.59621 0.07563 0.40039 0.0
C1172 C 0.52915 0.09912 0.40376 0.0
C1173 C 0.55202 0.07594 0.40297 0.0
C1174 C 0.50714 0.0993 0.40262 0.0
C1175 C 0.4848 0.07727 0.40087 0.0
C1176 C 0.52889 0.07675 0.40309 0.0
C1177 C 0.4853 0.05527 0.40077 0.0
C1178 C 0.55178 0.05359 0.40191 0.0
C1179 C 0.59566 0.09756 0.40199 0.0
N1180 N 0.50698 0.05559 0.40176 0.0
N1181 N 0.57394 0.09715 0.4031 0.0
H1182 H 0.49948 0.61288 0.90195 0.0
H1183 H 0.43347 0.46664 0.90093 0.0
H1184 H 0.53839 0.57282 0.90036 0.0
H1185 H 0.39454 0.5067 0.9018 0.0
H1186 H 0.47206 0.50531 0.90303 0.0
H1187 H 0.46092 0.57418 0.90421 0.0
C1188 C 0.49996 0.59597 0.9022 0.0
C1189 C 0.52227 0.59615 0.90084 0.0
C1190 C 0.45508 0.50565 0.90287 0.0
C1191 C 0.47807 0.55169 0.90337 0.0
C1192 C 0.43299 0.48354 0.90168 0.0
C1193 C 0.41066 0.48337 0.90107 0.0
C1194 C 0.4549 0.5278 0.90341 0.0
C1195 C 0.41127 0.5059 0.90216 0.0
C1196 C 0.4779 0.57385 0.90348 0.0
C1197 C 0.52168 0.57361 0.90129 0.0
N1198 N 0.43301 0.52718 0.90317 0.0
N1199 N 0.49995 0.55232 0.90241 0.0
loop_
_geom_bond_atom_site_label_1
_geom_bond_atom_site_label_2
_geom_bond_distance
_geom_bond_site_symmetry_2
_ccdc_geom_bond_type
O0 Cd1 2.223 . S
O0 C8 1.315 . S
Cd1 O0 2.223 . S
Cd1 O4 2.297 . S
Cd1 O5 2.439 . S
Cd1 O11 2.240 . S
Cd2 O3 2.240 . S
Cd2 O10 2.223 . S
Cd2 O12 2.297 . S
Cd2 O13 2.439 . S
O3 Cd2 2.240 . S
O3 C8 1.279 . S
O4 Cd1 2.297 . S
O4 C6 1.247 . S
O5 Cd1 2.439 . S
O5 C6 1.208 . S
C6 O4 1.247 . S
C6 O5 1.208 . S
C7 O12 1.247 . S
C7 O13 1.208 . S
C8 O0 1.315 . S
C8 O3 1.279 . S
C9 O10 1.315 . S
C9 O11 1.279 . S
O10 Cd2 2.223 . S
O10 C9 1.315 . S
O11 Cd1 2.240 . S
O11 C9 1.279 . S
O12 Cd2 2.297 . S
O12 C7 1.247 . S
O13 Cd2 2.439 . S
O13 C7 1.208 . S
O14 Cd15 2.223 . S
O14 C22 1.315 . S
Cd15 O14 2.223 . S
Cd15 O18 2.297 . S
Cd15 O19 2.439 . S
Cd15 O25 2.240 . S
Cd16 O17 2.240 . S
Cd16 O24 2.223 . S
Cd16 O26 2.297 . S
Cd16 O27 2.439 . S
O17 Cd16 2.240 . S
O17 C22 1.279 . S
O18 Cd15 2.297 . S
O18 C20 1.247 . S
O19 Cd15 2.439 . S
O19 C20 1.208 . S
C20 O18 1.247 . S
C20 O19 1.208 . S
C21 O26 1.247 . S
C21 O27 1.208 . S
C22 O14 1.315 . S
C22 O17 1.279 . S
C23 O24 1.315 . S
C23 O25 1.279 . S
O24 Cd16 2.223 . S
O24 C23 1.315 . S
O25 Cd15 2.240 . S
O25 C23 1.279 . S
O26 Cd16 2.297 . S
O26 C21 1.247 . S
O27 Cd16 2.439 . S
O27 C21 1.208 . S
O28 Cd29 2.223 . S
O28 C36 1.315 . S
Cd29 O28 2.223 . S
Cd29 O32 2.297 . S
Cd29 O33 2.439 . S
Cd29 O39 2.240 . S
Cd30 O31 2.240 . S
Cd30 O38 2.223 . S
Cd30 O40 2.297 . S
Cd30 O41 2.439 . S
O31 Cd30 2.240 . S
O31 C36 1.279 . S
O32 Cd29 2.297 . S
O32 C34 1.247 . S
O33 Cd29 2.439 . S
O33 C34 1.208 . S
C34 O32 1.247 . S
C34 O33 1.208 . S
C35 O40 1.247 . S
C35 O41 1.208 . S
C36 O28 1.315 . S
C36 O31 1.279 . S
C37 O38 1.315 . S
C37 O39 1.279 . S
O38 Cd30 2.223 . S
O38 C37 1.315 . S
O39 Cd29 2.240 . S
O39 C37 1.279 . S
O40 Cd30 2.297 . S
O40 C35 1.247 . S
O41 Cd30 2.439 . S
O41 C35 1.208 . S
O42 Cd43 2.223 . S
O42 C50 1.315 . S
Cd43 O42 2.223 . S
Cd43 O46 2.297 . S
Cd43 O47 2.439 . S
Cd43 O53 2.240 . S
Cd44 O45 2.240 . S
Cd44 O52 2.223 . S
Cd44 O54 2.297 . S
Cd44 O55 2.439 . S
O45 Cd44 2.240 . S
O45 C50 1.279 . S
O46 Cd43 2.297 . S
O46 C48 1.247 . S
O47 Cd43 2.439 . S
O47 C48 1.208 . S
C48 O46 1.247 . S
C48 O47 1.208 . S
C49 O54 1.247 . S
C49 O55 1.208 . S
C50 O42 1.315 . S
C50 O45 1.279 . S
C51 O52 1.315 . S
C51 O53 1.279 . S
O52 Cd44 2.223 . S
O52 C51 1.315 . S
O53 Cd43 2.240 . S
O53 C51 1.279 . S
O54 Cd44 2.297 . S
O54 C49 1.247 . S
O55 Cd44 2.439 . S
O55 C49 1.208 . S
O56 Cd57 2.223 . S
O56 C64 1.315 . S
Cd57 O56 2.223 . S
Cd57 O60 2.297 . S
Cd57 O61 2.439 . S
Cd57 O67 2.240 . S
Cd58 O59 2.240 . S
Cd58 O66 2.223 . S
Cd58 O68 2.297 . S
Cd58 O69 2.439 . S
O59 Cd58 2.240 . S
O59 C64 1.279 . S
O60 Cd57 2.297 . S
O60 C62 1.247 . S
O61 Cd57 2.439 . S
O61 C62 1.208 . S
C62 O60 1.247 . S
C62 O61 1.208 . S
C63 O68 1.247 . S
C63 O69 1.208 . S
C64 O56 1.315 . S
C64 O59 1.279 . S
C65 O66 1.315 . S
C65 O67 1.279 . S
O66 Cd58 2.223 . S
O66 C65 1.315 . S
O67 Cd57 2.240 . S
O67 C65 1.279 . S
O68 Cd58 2.297 . S
O68 C63 1.247 . S
O69 Cd58 2.439 . S
O69 C63 1.208 . S
O70 Cd71 2.223 . S
O70 C78 1.315 . S
Cd71 O70 2.223 . S
Cd71 O74 2.297 . S
Cd71 O75 2.439 . S
Cd71 O81 2.240 . S
Cd72 O73 2.240 . S
Cd72 O80 2.223 . S
Cd72 O82 2.297 . S
Cd72 O83 2.439 . S
O73 Cd72 2.240 . S
O73 C78 1.279 . S
O74 Cd71 2.297 . S
O74 C76 1.247 . S
O75 Cd71 2.439 . S
O75 C76 1.208 . S
C76 O74 1.247 . S
C76 O75 1.208 . S
C77 O82 1.247 . S
C77 O83 1.208 . S
C78 O70 1.315 . S
C78 O73 1.279 . S
C79 O80 1.315 . S
C79 O81 1.279 . S
O80 Cd72 2.223 . S
O80 C79 1.315 . S
O81 Cd71 2.240 . S
O81 C79 1.279 . S
O82 Cd72 2.297 . S
O82 C77 1.247 . S
O83 Cd72 2.439 . S
O83 C77 1.208 . S
O84 Cd85 2.223 . S
O84 C92 1.315 . S
Cd85 O84 2.223 . S
Cd85 O88 2.297 . S
Cd85 O89 2.439 . S
Cd85 O95 2.240 . S
Cd86 O87 2.240 . S
Cd86 O94 2.223 . S
Cd86 O96 2.297 . S
Cd86 O97 2.439 . S
O87 Cd86 2.240 . S
O87 C92 1.279 . S
O88 Cd85 2.297 . S
O88 C90 1.247 . S
O89 Cd85 2.439 . S
O89 C90 1.208 . S
C90 O88 1.247 . S
C90 O89 1.208 . S
C91 O96 1.247 . S
C91 O97 1.208 . S
C92 O84 1.315 . S
C92 O87 1.279 . S
C93 O94 1.315 . S
C93 O95 1.279 . S
O94 Cd86 2.223 . S
O94 C93 1.315 . S
O95 Cd85 2.240 . S
O95 C93 1.279 . S
O96 Cd86 2.297 . S
O96 C91 1.247 . S
O97 Cd86 2.439 . S
O97 C91 1.208 . S
O98 Cd99 2.223 . S
O98 C106 1.315 . S
Cd99 O98 2.223 . S
Cd99 O102 2.297 . S
Cd99 O103 2.439 . S
Cd99 O109 2.240 . S
Cd100 O101 2.240 . S
Cd100 O108 2.223 . S
Cd100 O110 2.297 . S
Cd100 O111 2.439 . S
O101 Cd100 2.240 . S
O101 C106 1.279 . S
O102 Cd99 2.297 . S
O102 C104 1.247 . S
O103 Cd99 2.439 . S
O103 C104 1.208 . S
C104 O102 1.247 . S
C104 O103 1.208 . S
C105 O110 1.247 . S
C105 O111 1.208 . S
C106 O98 1.315 . S
C106 O101 1.279 . S
C107 O108 1.315 . S
C107 O109 1.279 . S
O108 Cd100 2.223 . S
O108 C107 1.315 . S
O109 Cd99 2.240 . S
O109 C107 1.279 . S
O110 Cd100 2.297 . S
O110 C105 1.247 . S
O111 Cd100 2.439 . S
O111 C105 1.208 . S
O112 Cd113 2.223 . S
O112 C120 1.315 . S
Cd113 O112 2.223 . S
Cd113 O116 2.297 . S
Cd113 O117 2.439 . S
Cd113 O123 2.240 . S
Cd114 O115 2.240 . S
Cd114 O122 2.223 . S
Cd114 O124 2.297 . S
Cd114 O125 2.439 . S
O115 Cd114 2.240 . S
O115 C120 1.279 . S
O116 Cd113 2.297 . S
O116 C118 1.247 . S
O117 Cd113 2.439 . S
O117 C118 1.208 . S
C118 O116 1.247 . S
C118 O117 1.208 . S
C119 O124 1.247 . S
C119 O125 1.208 . S
C120 O112 1.315 . S
C120 O115 1.279 . S
C121 O122 1.315 . S
C121 O123 1.279 . S
O122 Cd114 2.223 . S
O122 C121 1.315 . S
O123 Cd113 2.240 . S
O123 C121 1.279 . S
O124 Cd114 2.297 . S
O124 C119 1.247 . S
O125 Cd114 2.439 . S
O125 C119 1.208 . S
O126 Cd127 2.223 . S
O126 C134 1.315 . S
Cd127 O126 2.223 . S
Cd127 O130 2.297 . S
Cd127 O131 2.439 . S
Cd127 O137 2.240 . S
Cd128 O129 2.240 . S
Cd128 O136 2.223 . S
Cd128 O138 2.297 . S
Cd128 O139 2.439 . S
O129 Cd128 2.240 . S
O129 C134 1.279 . S
O130 Cd127 2.297 . S
O130 C132 1.247 . S
O131 Cd127 2.439 . S
O131 C132 1.208 . S
C132 O130 1.247 . S
C132 O131 1.208 . S
C133 O138 1.247 . S
C133 O139 1.208 . S
C134 O126 1.315 . S
C134 O129 1.279 . S
C135 O136 1.315 . S
C135 O137 1.279 . S
O136 Cd128 2.223 . S
O136 C135 1.315 . S
O137 Cd127 2.240 . S
O137 C135 1.279 . S
O138 Cd128 2.297 . S
O138 C133 1.247 . S
O139 Cd128 2.439 . S
O139 C133 1.208 . S
O140 Cd141 2.223 . S
O140 C148 1.315 . S
Cd141 O140 2.223 . S
Cd141 O144 2.297 . S
Cd141 O145 2.439 . S
Cd141 O151 2.240 . S
Cd142 O143 2.240 . S
Cd142 O150 2.223 . S
Cd142 O152 2.297 . S
Cd142 O153 2.439 . S
O143 Cd142 2.240 . S
O143 C148 1.279 . S
O144 Cd141 2.297 . S
O144 C146 1.247 . S
O145 Cd141 2.439 . S
O145 C146 1.208 . S
C146 O144 1.247 . S
C146 O145 1.208 . S
C147 O152 1.247 . S
C147 O153 1.208 . S
C148 O140 1.315 . S
C148 O143 1.279 . S
C149 O150 1.315 . S
C149 O151 1.279 . S
O150 Cd142 2.223 . S
O150 C149 1.315 . S
O151 Cd141 2.240 . S
O151 C149 1.279 . S
O152 Cd142 2.297 . S
O152 C147 1.247 . S
O153 Cd142 2.439 . S
O153 C147 1.208 . S
O154 Cd155 2.223 . S
O154 C162 1.315 . S
Cd155 O154 2.223 . S
Cd155 O158 2.297 . S
Cd155 O159 2.439 . S
Cd155 O165 2.240 . S
Cd156 O157 2.240 . S
Cd156 O164 2.223 . S
Cd156 O166 2.297 . S
Cd156 O167 2.439 . S
O157 Cd156 2.240 . S
O157 C162 1.279 . S
O158 Cd155 2.297 . S
O158 C160 1.247 . S
O159 Cd155 2.439 . S
O159 C160 1.208 . S
C160 O158 1.247 . S
C160 O159 1.208 . S
C161 O166 1.247 . S
C161 O167 1.208 . S
C162 O154 1.315 . S
C162 O157 1.279 . S
C163 O164 1.315 . S
C163 O165 1.279 . S
O164 Cd156 2.223 . S
O164 C163 1.315 . S
O165 Cd155 2.240 . S
O165 C163 1.279 . S
O166 Cd156 2.297 . S
O166 C161 1.247 . S
O167 Cd156 2.439 . S
O167 C161 1.208 . S
O168 Cd169 2.223 . S
O168 C176 1.315 . S
Cd169 O168 2.223 . S
Cd169 O172 2.297 . S
Cd169 O173 2.439 . S
Cd169 O179 2.240 . S
Cd170 O171 2.240 . S
Cd170 O178 2.223 . S
Cd170 O180 2.297 . S
Cd170 O181 2.439 . S
O171 Cd170 2.240 . S
O171 C176 1.279 . S
O172 Cd169 2.297 . S
O172 C174 1.247 . S
O173 Cd169 2.439 . S
O173 C174 1.208 . S
C174 O172 1.247 . S
C174 O173 1.208 . S
C175 O180 1.247 . S
C175 O181 1.208 . S
C176 O168 1.315 . S
C176 O171 1.279 . S
C177 O178 1.315 . S
C177 O179 1.279 . S
O178 Cd170 2.223 . S
O178 C177 1.315 . S
O179 Cd169 2.240 . S
O179 C177 1.279 . S
O180 Cd170 2.297 . S
O180 C175 1.247 . S
O181 Cd170 2.439 . S
O181 C175 1.208 . S
O182 Cd183 2.223 . S
O182 C190 1.315 . S
Cd183 O182 2.223 . S
Cd183 O186 2.297 . S
Cd183 O187 2.439 . S
Cd183 O193 2.240 . S
Cd184 O185 2.240 . S
Cd184 O192 2.223 . S
Cd184 O194 2.297 . S
Cd184 O195 2.439 . S
O185 Cd184 2.240 . S
O185 C190 1.279 . S
O186 Cd183 2.297 . S
O186 C188 1.247 . S
O187 Cd183 2.439 . S
O187 C188 1.208 . S
C188 O186 1.247 . S
C188 O187 1.208 . S
C189 O194 1.247 . S
C189 O195 1.208 . S
C190 O182 1.315 . S
C190 O185 1.279 . S
C191 O192 1.315 . S
C191 O193 1.279 . S
O192 Cd184 2.223 . S
O192 C191 1.315 . S
O193 Cd183 2.240 . S
O193 C191 1.279 . S
O194 Cd184 2.297 . S
O194 C189 1.247 . S
O195 Cd184 2.439 . S
O195 C189 1.208 . S
O196 Cd197 2.223 . S
O196 C204 1.315 . S
Cd197 O196 2.223 . S
Cd197 O200 2.297 . S
Cd197 O201 2.439 . S
Cd197 O207 2.240 . S
Cd198 O199 2.240 . S
Cd198 O206 2.223 . S
Cd198 O208 2.297 . S
Cd198 O209 2.439 . S
O199 Cd198 2.240 . S
O199 C204 1.279 . S
O200 Cd197 2.297 . S
O200 C202 1.247 . S
O201 Cd197 2.439 . S
O201 C202 1.208 . S
C202 O200 1.247 . S
C202 O201 1.208 . S
C203 O208 1.247 . S
C203 O209 1.208 . S
C204 O196 1.315 . S
C204 O199 1.279 . S
C205 O206 1.315 . S
C205 O207 1.279 . S
O206 Cd198 2.223 . S
O206 C205 1.315 . S
O207 Cd197 2.240 . S
O207 C205 1.279 . S
O208 Cd198 2.297 . S
O208 C203 1.247 . S
O209 Cd198 2.439 . S
O209 C203 1.208 . S
O210 Cd211 2.223 . S
O210 C218 1.315 . S
Cd211 O210 2.223 . S
Cd211 O214 2.297 . S
Cd211 O215 2.439 . S
Cd211 O221 2.240 . S
Cd212 O213 2.240 . S
Cd212 O220 2.223 . S
Cd212 O222 2.297 . S
Cd212 O223 2.439 . S
O213 Cd212 2.240 . S
O213 C218 1.279 . S
O214 Cd211 2.297 . S
O214 C216 1.247 . S
O215 Cd211 2.439 . S
O215 C216 1.208 . S
C216 O214 1.247 . S
C216 O215 1.208 . S
C217 O222 1.247 . S
C217 O223 1.208 . S
C218 O210 1.315 . S
C218 O213 1.279 . S
C219 O220 1.315 . S
C219 O221 1.279 . S
O220 Cd212 2.223 . S
O220 C219 1.315 . S
O221 Cd211 2.240 . S
O221 C219 1.279 . S
O222 Cd212 2.297 . S
O222 C217 1.247 . S
O223 Cd212 2.439 . S
O223 C217 1.208 . S
O224 Cd225 2.223 . S
O224 C232 1.315 . S
Cd225 O224 2.223 . S
Cd225 O228 2.297 . S
Cd225 O229 2.439 . S
Cd225 O235 2.240 . S
Cd226 O227 2.240 . S
Cd226 O234 2.223 . S
Cd226 O236 2.297 . S
Cd226 O237 2.439 . S
O227 Cd226 2.240 . S
O227 C232 1.279 . S
O228 Cd225 2.297 . S
O228 C230 1.247 . S
O229 Cd225 2.439 . S
O229 C230 1.208 . S
C230 O228 1.247 . S
C230 O229 1.208 . S
C231 O236 1.247 . S
C231 O237 1.208 . S
C232 O224 1.315 . S
C232 O227 1.279 . S
C233 O234 1.315 . S
C233 O235 1.279 . S
O234 Cd226 2.223 . S
O234 C233 1.315 . S
O235 Cd225 2.240 . S
O235 C233 1.279 . S
O236 Cd226 2.297 . S
O236 C231 1.247 . S
O237 Cd226 2.439 . S
O237 C231 1.208 . S
O238 Cd239 2.223 . S
O238 C246 1.315 . S
Cd239 O238 2.223 . S
Cd239 O242 2.297 . S
Cd239 O243 2.439 . S
Cd239 O249 2.240 . S
Cd240 O241 2.240 . S
Cd240 O248 2.223 . S
Cd240 O250 2.297 . S
Cd240 O251 2.439 . S
O241 Cd240 2.240 . S
O241 C246 1.279 . S
O242 Cd239 2.297 . S
O242 C244 1.247 . S
O243 Cd239 2.439 . S
O243 C244 1.208 . S
C244 O242 1.247 . S
C244 O243 1.208 . S
C245 O250 1.247 . S
C245 O251 1.208 . S
C246 O238 1.315 . S
C246 O241 1.279 . S
C247 O248 1.315 . S
C247 O249 1.279 . S
O248 Cd240 2.223 . S
O248 C247 1.315 . S
O249 Cd239 2.240 . S
O249 C247 1.279 . S
O250 Cd240 2.297 . S
O250 C245 1.247 . S
O251 Cd240 2.439 . S
O251 C245 1.208 . S
O252 Cd253 2.223 . S
O252 C260 1.315 . S
Cd253 O252 2.223 . S
Cd253 O256 2.297 . S
Cd253 O257 2.439 . S
Cd253 O263 2.240 . S
Cd254 O255 2.240 . S
Cd254 O262 2.223 . S
Cd254 O264 2.297 . S
Cd254 O265 2.439 . S
O255 Cd254 2.240 . S
O255 C260 1.279 . S
O256 Cd253 2.297 . S
O256 C258 1.247 . S
O257 Cd253 2.439 . S
O257 C258 1.208 . S
C258 O256 1.247 . S
C258 O257 1.208 . S
C259 O264 1.247 . S
C259 O265 1.208 . S
C260 O252 1.315 . S
C260 O255 1.279 . S
C261 O262 1.315 . S
C261 O263 1.279 . S
O262 Cd254 2.223 . S
O262 C261 1.315 . S
O263 Cd253 2.240 . S
O263 C261 1.279 . S
O264 Cd254 2.297 . S
O264 C259 1.247 . S
O265 Cd254 2.439 . S
O265 C259 1.208 . S
O266 Cd267 2.223 . S
O266 C274 1.315 . S
Cd267 O266 2.223 . S
Cd267 O270 2.297 . S
Cd267 O271 2.439 . S
Cd267 O277 2.240 . S
Cd268 O269 2.240 . S
Cd268 O276 2.223 . S
Cd268 O278 2.297 . S
Cd268 O279 2.439 . S
O269 Cd268 2.240 . S
O269 C274 1.279 . S
O270 Cd267 2.297 . S
O270 C272 1.247 . S
O271 Cd267 2.439 . S
O271 C272 1.208 . S
C272 O270 1.247 . S
C272 O271 1.208 . S
C273 O278 1.247 . S
C273 O279 1.208 . S
C274 O266 1.315 . S
C274 O269 1.279 . S
C275 O276 1.315 . S
C275 O277 1.279 . S
O276 Cd268 2.223 . S
O276 C275 1.315 . S
O277 Cd267 2.240 . S
O277 C275 1.279 . S
O278 Cd268 2.297 . S
O278 C273 1.247 . S
O279 Cd268 2.439 . S
O279 C273 1.208 . S
O280 Cd281 2.223 . S
O280 C288 1.315 . S
Cd281 O280 2.223 . S
Cd281 O284 2.297 . S
Cd281 O285 2.439 . S
Cd281 O291 2.240 . S
Cd282 O283 2.240 . S
Cd282 O290 2.223 . S
Cd282 O292 2.297 . S
Cd282 O293 2.439 . S
O283 Cd282 2.240 . S
O283 C288 1.279 . S
O284 Cd281 2.297 . S
O284 C286 1.247 . S
O285 Cd281 2.439 . S
O285 C286 1.208 . S
C286 O284 1.247 . S
C286 O285 1.208 . S
C287 O292 1.247 . S
C287 O293 1.208 . S
C288 O280 1.315 . S
C288 O283 1.279 . S
C289 O290 1.315 . S
C289 O291 1.279 . S
O290 Cd282 2.223 . S
O290 C289 1.315 . S
O291 Cd281 2.240 . S
O291 C289 1.279 . S
O292 Cd282 2.297 . S
O292 C287 1.247 . S
O293 Cd282 2.439 . S
O293 C287 1.208 . S
O294 Cd295 2.223 . S
O294 C302 1.315 . S
Cd295 O294 2.223 . S
Cd295 O298 2.297 . S
Cd295 O299 2.439 . S
Cd295 O305 2.240 . S
Cd296 O297 2.240 . S
Cd296 O304 2.223 . S
Cd296 O306 2.297 . S
Cd296 O307 2.439 . S
O297 Cd296 2.240 . S
O297 C302 1.279 . S
O298 Cd295 2.297 . S
O298 C300 1.247 . S
O299 Cd295 2.439 . S
O299 C300 1.208 . S
C300 O298 1.247 . S
C300 O299 1.208 . S
C301 O306 1.247 . S
C301 O307 1.208 . S
C302 O294 1.315 . S
C302 O297 1.279 . S
C303 O304 1.315 . S
C303 O305 1.279 . S
O304 Cd296 2.223 . S
O304 C303 1.315 . S
O305 Cd295 2.240 . S
O305 C303 1.279 . S
O306 Cd296 2.297 . S
O306 C301 1.247 . S
O307 Cd296 2.439 . S
O307 C301 1.208 . S
O308 Cd309 2.223 . S
O308 C316 1.315 . S
Cd309 O308 2.223 . S
Cd309 O312 2.297 . S
Cd309 O313 2.439 . S
Cd309 O319 2.240 . S
Cd310 O311 2.240 . S
Cd310 O318 2.223 . S
Cd310 O320 2.297 . S
Cd310 O321 2.439 . S
O311 Cd310 2.240 . S
O311 C316 1.279 . S
O312 Cd309 2.297 . S
O312 C314 1.247 . S
O313 Cd309 2.439 . S
O313 C314 1.208 . S
C314 O312 1.247 . S
C314 O313 1.208 . S
C315 O320 1.247 . S
C315 O321 1.208 . S
C316 O308 1.315 . S
C316 O311 1.279 . S
C317 O318 1.315 . S
C317 O319 1.279 . S
O318 Cd310 2.223 . S
O318 C317 1.315 . S
O319 Cd309 2.240 . S
O319 C317 1.279 . S
O320 Cd310 2.297 . S
O320 C315 1.247 . S
O321 Cd310 2.439 . S
O321 C315 1.208 . S
O322 Cd323 2.223 . S
O322 C330 1.315 . S
Cd323 O322 2.223 . S
Cd323 O326 2.297 . S
Cd323 O327 2.439 . S
Cd323 O333 2.240 . S
Cd324 O325 2.240 . S
Cd324 O332 2.223 . S
Cd324 O334 2.297 . S
Cd324 O335 2.439 . S
O325 Cd324 2.240 . S
O325 C330 1.279 . S
O326 Cd323 2.297 . S
O326 C328 1.247 . S
O327 Cd323 2.439 . S
O327 C328 1.208 . S
C328 O326 1.247 . S
C328 O327 1.208 . S
C329 O334 1.247 . S
C329 O335 1.208 . S
C330 O322 1.315 . S
C330 O325 1.279 . S
C331 O332 1.315 . S
C331 O333 1.279 . S
O332 Cd324 2.223 . S
O332 C331 1.315 . S
O333 Cd323 2.240 . S
O333 C331 1.279 . S
O334 Cd324 2.297 . S
O334 C329 1.247 . S
O335 Cd324 2.439 . S
O335 C329 1.208 . S
H336 C342 0.930 . S
H337 C346 0.930 . S
H338 C351 0.929 . S
H339 C349 0.929 . S
H340 C344 0.929 . S
H341 C350 0.929 . S
C342 H336 0.930 . S
C342 C343 1.367 . S
C342 C350 1.378 . S
C343 C342 1.367 . S
C343 C351 1.433 . S
C344 H340 0.929 . S
C344 C346 1.378 . S
C344 C348 1.350 . S
C345 C348 1.463 . S
C345 C350 1.350 . S
C345 N353 1.427 . S
C346 H337 0.930 . S
C346 C344 1.378 . S
C346 C347 1.367 . S
C347 C346 1.367 . S
C347 C349 1.433 . S
C348 C344 1.350 . S
C348 C345 1.463 . S
C348 N352 1.427 . S
C349 H339 0.929 . S
C349 C347 1.433 . S
C349 N352 1.384 . S
C350 H341 0.929 . S
C350 C342 1.378 . S
C350 C345 1.350 . S
C351 H338 0.929 . S
C351 C343 1.433 . S
C351 N353 1.384 . S
N352 C348 1.427 . S
N352 C349 1.384 . S
N353 C345 1.427 . S
N353 C351 1.384 . S
H354 C360 0.930 . S
H355 C364 0.930 . S
H356 C369 0.929 . S
H357 C367 0.929 . S
H358 C362 0.929 . S
H359 C368 0.929 . S
C360 H354 0.930 . S
C360 C361 1.367 . S
C360 C368 1.378 . S
C361 C360 1.367 . S
C361 C369 1.433 . S
C362 H358 0.929 . S
C362 C364 1.378 . S
C362 C366 1.350 . S
C363 C366 1.463 . S
C363 C368 1.350 . S
C363 N371 1.427 . S
C364 H355 0.930 . S
C364 C362 1.378 . S
C364 C365 1.367 . S
C365 C364 1.367 . S
C365 C367 1.433 . S
C366 C362 1.350 . S
C366 C363 1.463 . S
C366 N370 1.427 . S
C367 H357 0.929 . S
C367 C365 1.433 . S
C367 N370 1.384 . S
C368 H359 0.929 . S
C368 C360 1.378 . S
C368 C363 1.350 . S
C369 H356 0.929 . S
C369 C361 1.433 . S
C369 N371 1.384 . S
N370 C366 1.427 . S
N370 C367 1.384 . S
N371 C363 1.427 . S
N371 C369 1.384 . S
H372 C378 0.930 . S
H373 C382 0.930 . S
H374 C387 0.929 . S
H375 C385 0.929 . S
H376 C380 0.929 . S
H377 C386 0.929 . S
C378 H372 0.930 . S
C378 C379 1.367 . S
C378 C386 1.378 . S
C379 C378 1.367 . S
C379 C387 1.433 . S
C380 H376 0.929 . S
C380 C382 1.378 . S
C380 C384 1.350 . S
C381 C384 1.463 . S
C381 C386 1.350 . S
C381 N389 1.427 . S
C382 H373 0.930 . S
C382 C380 1.378 . S
C382 C383 1.367 . S
C383 C382 1.367 . S
C383 C385 1.433 . S
C384 C380 1.350 . S
C384 C381 1.463 . S
C384 N388 1.427 . S
C385 H375 0.929 . S
C385 C383 1.433 . S
C385 N388 1.384 . S
C386 H377 0.929 . S
C386 C378 1.378 . S
C386 C381 1.350 . S
C387 H374 0.929 . S
C387 C379 1.433 . S
C387 N389 1.384 . S
N388 C384 1.427 . S
N388 C385 1.384 . S
N389 C381 1.427 . S
N389 C387 1.384 . S
H390 C396 0.930 . S
H391 C400 0.930 . S
H392 C405 0.929 . S
H393 C403 0.929 . S
H394 C398 0.929 . S
H395 C404 0.929 . S
C396 H390 0.930 . S
C396 C397 1.367 . S
C396 C404 1.378 . S
C397 C396 1.367 . S
C397 C405 1.433 . S
C398 H394 0.929 . S
C398 C400 1.378 . S
C398 C402 1.350 . S
C399 C402 1.463 . S
C399 C404 1.350 . S
C399 N407 1.427 . S
C400 H391 0.930 . S
C400 C398 1.378 . S
C400 C401 1.367 . S
C401 C400 1.367 . S
C401 C403 1.433 . S
C402 C398 1.350 . S
C402 C399 1.463 . S
C402 N406 1.427 . S
C403 H393 0.929 . S
C403 C401 1.433 . S
C403 N406 1.384 . S
C404 H395 0.929 . S
C404 C396 1.378 . S
C404 C399 1.350 . S
C405 H392 0.929 . S
C405 C397 1.433 . S
C405 N407 1.384 . S
N406 C402 1.427 . S
N406 C403 1.384 . S
N407 C399 1.427 . S
N407 C405 1.384 . S
H408 C414 0.930 . S
H409 C418 0.930 . S
H410 C423 0.929 . S
H411 C421 0.929 . S
H412 C416 0.929 . S
H413 C422 0.929 . S
C414 H408 0.930 . S
C414 C415 1.367 . S
C414 C422 1.378 . S
C415 C414 1.367 . S
C415 C423 1.433 . S
C416 H412 0.929 . S
C416 C418 1.378 . S
C416 C420 1.350 . S
C417 C420 1.463 . S
C417 C422 1.350 . S
C417 N425 1.427 . S
C418 H409 0.930 . S
C418 C416 1.378 . S
C418 C419 1.367 . S
C419 C418 1.367 . S
C419 C421 1.433 . S
C420 C416 1.350 . S
C420 C417 1.463 . S
C420 N424 1.427 . S
C421 H411 0.929 . S
C421 C419 1.433 . S
C421 N424 1.384 . S
C422 H413 0.929 . S
C422 C414 1.378 . S
C422 C417 1.350 . S
C423 H410 0.929 . S
C423 C415 1.433 . S
C423 N425 1.384 . S
N424 C420 1.427 . S
N424 C421 1.384 . S
N425 C417 1.427 . S
N425 C423 1.384 . S
H426 C432 0.930 . S
H427 C436 0.930 . S
H428 C441 0.929 . S
H429 C439 0.929 . S
H430 C434 0.929 . S
H431 C440 0.929 . S
C432 H426 0.930 . S
C432 C433 1.367 . S
C432 C440 1.378 . S
C433 C432 1.367 . S
C433 C441 1.433 . S
C434 H430 0.929 . S
C434 C436 1.378 . S
C434 C438 1.350 . S
C435 C438 1.463 . S
C435 C440 1.350 . S
C435 N443 1.427 . S
C436 H427 0.930 . S
C436 C434 1.378 . S
C436 C437 1.367 . S
C437 C436 1.367 . S
C437 C439 1.433 . S
C438 C434 1.350 . S
C438 C435 1.463 . S
C438 N442 1.427 . S
C439 H429 0.929 . S
C439 C437 1.433 . S
C439 N442 1.384 . S
C440 H431 0.929 . S
C440 C432 1.378 . S
C440 C435 1.350 . S
C441 H428 0.929 . S
C441 C433 1.433 . S
C441 N443 1.384 . S
N442 C438 1.427 . S
N442 C439 1.384 . S
N443 C435 1.427 . S
N443 C441 1.384 . S
H444 C450 0.930 . S
H445 C454 0.930 . S
H446 C459 0.929 . S
H447 C457 0.929 . S
H448 C452 0.929 . S
H449 C458 0.929 . S
C450 H444 0.930 . S
C450 C451 1.367 . S
C450 C458 1.378 . S
C451 C450 1.367 . S
C451 C459 1.433 . S
C452 H448 0.929 . S
C452 C454 1.378 . S
C452 C456 1.350 . S
C453 C456 1.463 . S
C453 C458 1.350 . S
C453 N461 1.427 . S
C454 H445 0.930 . S
C454 C452 1.378 . S
C454 C455 1.367 . S
C455 C454 1.367 . S
C455 C457 1.433 . S
C456 C452 1.350 . S
C456 C453 1.463 . S
C456 N460 1.427 . S
C457 H447 0.929 . S
C457 C455 1.433 . S
C457 N460 1.384 . S
C458 H449 0.929 . S
C458 C450 1.378 . S
C458 C453 1.350 . S
C459 H446 0.929 . S
C459 C451 1.433 . S
C459 N461 1.384 . S
N460 C456 1.427 . S
N460 C457 1.384 . S
N461 C453 1.427 . S
N461 C459 1.384 . S
H462 C468 0.930 . S
H463 C472 0.930 . S
H464 C477 0.929 . S
H465 C475 0.929 . S
H466 C470 0.929 . S
H467 C476 0.929 . S
C468 H462 0.930 . S
C468 C469 1.367 . S
C468 C476 1.378 . S
C469 C468 1.367 . S
C469 C477 1.433 . S
C470 H466 0.929 . S
C470 C472 1.378 . S
C470 C474 1.350 . S
C471 C474 1.463 . S
C471 C476 1.350 . S
C471 N479 1.427 . S
C472 H463 0.930 . S
C472 C470 1.378 . S
C472 C473 1.367 . S
C473 C472 1.367 . S
C473 C475 1.433 . S
C474 C470 1.350 . S
C474 C471 1.463 . S
C474 N478 1.427 . S
C475 H465 0.929 . S
C475 C473 1.433 . S
C475 N478 1.384 . S
C476 H467 0.929 . S
C476 C468 1.378 . S
C476 C471 1.350 . S
C477 H464 0.929 . S
C477 C469 1.433 . S
C477 N479 1.384 . S
N478 C474 1.427 . S
N478 C475 1.384 . S
N479 C471 1.427 . S
N479 C477 1.384 . S
H480 C486 0.930 . S
H481 C490 0.930 . S
H482 C495 0.929 . S
H483 C493 0.929 . S
H484 C488 0.929 . S
H485 C494 0.929 . S
C486 H480 0.930 . S
C486 C487 1.367 . S
C486 C494 1.378 . S
C487 C486 1.367 . S
C487 C495 1.433 . S
C488 H484 0.929 . S
C488 C490 1.378 . S
C488 C492 1.350 . S
C489 C492 1.463 . S
C489 C494 1.350 . S
C489 N497 1.427 . S
C490 H481 0.930 . S
C490 C488 1.378 . S
C490 C491 1.367 . S
C491 C490 1.367 . S
C491 C493 1.433 . S
C492 C488 1.350 . S
C492 C489 1.463 . S
C492 N496 1.427 . S
C493 H483 0.929 . S
C493 C491 1.433 . S
C493 N496 1.384 . S
C494 H485 0.929 . S
C494 C486 1.378 . S
C494 C489 1.350 . S
C495 H482 0.929 . S
C495 C487 1.433 . S
C495 N497 1.384 . S
N496 C492 1.427 . S
N496 C493 1.384 . S
N497 C489 1.427 . S
N497 C495 1.384 . S
H498 C504 0.930 . S
H499 C508 0.930 . S
H500 C513 0.929 . S
H501 C511 0.929 . S
H502 C506 0.929 . S
H503 C512 0.929 . S
C504 H498 0.930 . S
C504 C505 1.367 . S
C504 C512 1.378 . S
C505 C504 1.367 . S
C505 C513 1.433 . S
C506 H502 0.929 . S
C506 C508 1.378 . S
C506 C510 1.350 . S
C507 C510 1.463 . S
C507 C512 1.350 . S
C507 N515 1.427 . S
C508 H499 0.930 . S
C508 C506 1.378 . S
C508 C509 1.367 . S
C509 C508 1.367 . S
C509 C511 1.433 . S
C510 C506 1.350 . S
C510 C507 1.463 . S
C510 N514 1.427 . S
C511 H501 0.929 . S
C511 C509 1.433 . S
C511 N514 1.384 . S
C512 H503 0.929 . S
C512 C504 1.378 . S
C512 C507 1.350 . S
C513 H500 0.929 . S
C513 C505 1.433 . S
C513 N515 1.384 . S
N514 C510 1.427 . S
N514 C511 1.384 . S
N515 C507 1.427 . S
N515 C513 1.384 . S
H516 C522 0.930 . S
H517 C526 0.930 . S
H518 C531 0.929 . S
H519 C529 0.929 . S
H520 C524 0.929 . S
H521 C530 0.929 . S
C522 H516 0.930 . S
C522 C523 1.367 . S
C522 C530 1.378 . S
C523 C522 1.367 . S
C523 C531 1.433 . S
C524 H520 0.929 . S
C524 C526 1.378 . S
C524 C528 1.350 . S
C525 C528 1.463 . S
C525 C530 1.350 . S
C525 N533 1.427 . S
C526 H517 0.930 . S
C526 C524 1.378 . S
C526 C527 1.367 . S
C527 C526 1.367 . S
C527 C529 1.433 . S
C528 C524 1.350 . S
C528 C525 1.463 . S
C528 N532 1.427 . S
C529 H519 0.929 . S
C529 C527 1.433 . S
C529 N532 1.384 . S
C530 H521 0.929 . S
C530 C522 1.378 . S
C530 C525 1.350 . S
C531 H518 0.929 . S
C531 C523 1.433 . S
C531 N533 1.384 . S
N532 C528 1.427 . S
N532 C529 1.384 . S
N533 C525 1.427 . S
N533 C531 1.384 . S
H534 C540 0.930 . S
H535 C544 0.930 . S
H536 C549 0.929 . S
H537 C547 0.929 . S
H538 C542 0.929 . S
H539 C548 0.929 . S
C540 H534 0.930 . S
C540 C541 1.367 . S
C540 C548 1.378 . S
C541 C540 1.367 . S
C541 C549 1.433 . S
C542 H538 0.929 . S
C542 C544 1.378 . S
C542 C546 1.350 . S
C543 C546 1.463 . S
C543 C548 1.350 . S
C543 N551 1.427 . S
C544 H535 0.930 . S
C544 C542 1.378 . S
C544 C545 1.367 . S
C545 C544 1.367 . S
C545 C547 1.433 . S
C546 C542 1.350 . S
C546 C543 1.463 . S
C546 N550 1.427 . S
C547 H537 0.929 . S
C547 C545 1.433 . S
C547 N550 1.384 . S
C548 H539 0.929 . S
C548 C540 1.378 . S
C548 C543 1.350 . S
C549 H536 0.929 . S
C549 C541 1.433 . S
C549 N551 1.384 . S
N550 C546 1.427 . S
N550 C547 1.384 . S
N551 C543 1.427 . S
N551 C549 1.384 . S
H552 C558 0.930 . S
H553 C562 0.930 . S
H554 C567 0.929 . S
H555 C565 0.929 . S
H556 C560 0.929 . S
H557 C566 0.929 . S
C558 H552 0.930 . S
C558 C559 1.367 . S
C558 C566 1.378 . S
C559 C558 1.367 . S
C559 C567 1.433 . S
C560 H556 0.929 . S
C560 C562 1.378 . S
C560 C564 1.350 . S
C561 C564 1.463 . S
C561 C566 1.350 . S
C561 N569 1.427 . S
C562 H553 0.930 . S
C562 C560 1.378 . S
C562 C563 1.367 . S
C563 C562 1.367 . S
C563 C565 1.433 . S
C564 C560 1.350 . S
C564 C561 1.463 . S
C564 N568 1.427 . S
C565 H555 0.929 . S
C565 C563 1.433 . S
C565 N568 1.384 . S
C566 H557 0.929 . S
C566 C558 1.378 . S
C566 C561 1.350 . S
C567 H554 0.929 . S
C567 C559 1.433 . S
C567 N569 1.384 . S
N568 C564 1.427 . S
N568 C565 1.384 . S
N569 C561 1.427 . S
N569 C567 1.384 . S
H570 C576 0.930 . S
H571 C580 0.930 . S
H572 C585 0.929 . S
H573 C583 0.929 . S
H574 C578 0.929 . S
H575 C584 0.929 . S
C576 H570 0.930 . S
C576 C577 1.367 . S
C576 C584 1.378 . S
C577 C576 1.367 . S
C577 C585 1.433 . S
C578 H574 0.929 . S
C578 C580 1.378 . S
C578 C582 1.350 . S
C579 C582 1.463 . S
C579 C584 1.350 . S
C579 N587 1.427 . S
C580 H571 0.930 . S
C580 C578 1.378 . S
C580 C581 1.367 . S
C581 C580 1.367 . S
C581 C583 1.433 . S
C582 C578 1.350 . S
C582 C579 1.463 . S
C582 N586 1.427 . S
C583 H573 0.929 . S
C583 C581 1.433 . S
C583 N586 1.384 . S
C584 H575 0.929 . S
C584 C576 1.378 . S
C584 C579 1.350 . S
C585 H572 0.929 . S
C585 C577 1.433 . S
C585 N587 1.384 . S
N586 C582 1.427 . S
N586 C583 1.384 . S
N587 C579 1.427 . S
N587 C585 1.384 . S
H588 C594 0.930 . S
H589 C598 0.930 . S
H590 C603 0.929 . S
H591 C601 0.929 . S
H592 C596 0.929 . S
H593 C602 0.929 . S
C594 H588 0.930 . S
C594 C595 1.367 . S
C594 C602 1.378 . S
C595 C594 1.367 . S
C595 C603 1.433 . S
C596 H592 0.929 . S
C596 C598 1.378 . S
C596 C600 1.350 . S
C597 C600 1.463 . S
C597 C602 1.350 . S
C597 N605 1.427 . S
C598 H589 0.930 . S
C598 C596 1.378 . S
C598 C599 1.367 . S
C599 C598 1.367 . S
C599 C601 1.433 . S
C600 C596 1.350 . S
C600 C597 1.463 . S
C600 N604 1.427 . S
C601 H591 0.929 . S
C601 C599 1.433 . S
C601 N604 1.384 . S
C602 H593 0.929 . S
C602 C594 1.378 . S
C602 C597 1.350 . S
C603 H590 0.929 . S
C603 C595 1.433 . S
C603 N605 1.384 . S
N604 C600 1.427 . S
N604 C601 1.384 . S
N605 C597 1.427 . S
N605 C603 1.384 . S
H606 C612 0.930 . S
H607 C616 0.930 . S
H608 C621 0.929 . S
H609 C619 0.929 . S
H610 C614 0.929 . S
H611 C620 0.929 . S
C612 H606 0.930 . S
C612 C613 1.367 . S
C612 C620 1.378 . S
C613 C612 1.367 . S
C613 C621 1.433 . S
C614 H610 0.929 . S
C614 C616 1.378 . S
C614 C618 1.350 . S
C615 C618 1.463 . S
C615 C620 1.350 . S
C615 N623 1.427 . S
C616 H607 0.930 . S
C616 C614 1.378 . S
C616 C617 1.367 . S
C617 C616 1.367 . S
C617 C619 1.433 . S
C618 C614 1.350 . S
C618 C615 1.463 . S
C618 N622 1.427 . S
C619 H609 0.929 . S
C619 C617 1.433 . S
C619 N622 1.384 . S
C620 H611 0.929 . S
C620 C612 1.378 . S
C620 C615 1.350 . S
C621 H608 0.929 . S
C621 C613 1.433 . S
C621 N623 1.384 . S
N622 C618 1.427 . S
N622 C619 1.384 . S
N623 C615 1.427 . S
N623 C621 1.384 . S
H624 C630 0.930 . S
H625 C634 0.930 . S
H626 C639 0.929 . S
H627 C637 0.929 . S
H628 C632 0.929 . S
H629 C638 0.929 . S
C630 H624 0.930 . S
C630 C631 1.367 . S
C630 C638 1.378 . S
C631 C630 1.367 . S
C631 C639 1.433 . S
C632 H628 0.929 . S
C632 C634 1.378 . S
C632 C636 1.350 . S
C633 C636 1.463 . S
C633 C638 1.350 . S
C633 N641 1.427 . S
C634 H625 0.930 . S
C634 C632 1.378 . S
C634 C635 1.367 . S
C635 C634 1.367 . S
C635 C637 1.433 . S
C636 C632 1.350 . S
C636 C633 1.463 . S
C636 N640 1.427 . S
C637 H627 0.929 . S
C637 C635 1.433 . S
C637 N640 1.384 . S
C638 H629 0.929 . S
C638 C630 1.378 . S
C638 C633 1.350 . S
C639 H626 0.929 . S
C639 C631 1.433 . S
C639 N641 1.384 . S
N640 C636 1.427 . S
N640 C637 1.384 . S
N641 C633 1.427 . S
N641 C639 1.384 . S
H642 C648 0.930 . S
H643 C652 0.930 . S
H644 C657 0.929 . S
H645 C655 0.929 . S
H646 C650 0.929 . S
H647 C656 0.929 . S
C648 H642 0.930 . S
C648 C649 1.367 . S
C648 C656 1.378 . S
C649 C648 1.367 . S
C649 C657 1.433 . S
C650 H646 0.929 . S
C650 C652 1.378 . S
C650 C654 1.350 . S
C651 C654 1.463 . S
C651 C656 1.350 . S
C651 N659 1.427 . S
C652 H643 0.930 . S
C652 C650 1.378 . S
C652 C653 1.367 . S
C653 C652 1.367 . S
C653 C655 1.433 . S
C654 C650 1.350 . S
C654 C651 1.463 . S
C654 N658 1.427 . S
C655 H645 0.929 . S
C655 C653 1.433 . S
C655 N658 1.384 . S
C656 H647 0.929 . S
C656 C648 1.378 . S
C656 C651 1.350 . S
C657 H644 0.929 . S
C657 C649 1.433 . S
C657 N659 1.384 . S
N658 C654 1.427 . S
N658 C655 1.384 . S
N659 C651 1.427 . S
N659 C657 1.384 . S
H660 C666 0.930 . S
H661 C670 0.930 . S
H662 C675 0.929 . S
H663 C673 0.929 . S
H664 C668 0.929 . S
H665 C674 0.929 . S
C666 H660 0.930 . S
C666 C667 1.367 . S
C666 C674 1.378 . S
C667 C666 1.367 . S
C667 C675 1.433 . S
C668 H664 0.929 . S
C668 C670 1.378 . S
C668 C672 1.350 . S
C669 C672 1.463 . S
C669 C674 1.350 . S
C669 N677 1.427 . S
C670 H661 0.930 . S
C670 C668 1.378 . S
C670 C671 1.367 . S
C671 C670 1.367 . S
C671 C673 1.433 . S
C672 C668 1.350 . S
C672 C669 1.463 . S
C672 N676 1.427 . S
C673 H663 0.929 . S
C673 C671 1.433 . S
C673 N676 1.384 . S
C674 H665 0.929 . S
C674 C666 1.378 . S
C674 C669 1.350 . S
C675 H662 0.929 . S
C675 C667 1.433 . S
C675 N677 1.384 . S
N676 C672 1.427 . S
N676 C673 1.384 . S
N677 C669 1.427 . S
N677 C675 1.384 . S
H678 C684 0.930 . S
H679 C688 0.930 . S
H680 C693 0.929 . S
H681 C691 0.929 . S
H682 C686 0.929 . S
H683 C692 0.929 . S
C684 H678 0.930 . S
C684 C685 1.367 . S
C684 C692 1.378 . S
C685 C684 1.367 . S
C685 C693 1.433 . S
C686 H682 0.929 . S
C686 C688 1.378 . S
C686 C690 1.350 . S
C687 C690 1.463 . S
C687 C692 1.350 . S
C687 N695 1.427 . S
C688 H679 0.930 . S
C688 C686 1.378 . S
C688 C689 1.367 . S
C689 C688 1.367 . S
C689 C691 1.433 . S
C690 C686 1.350 . S
C690 C687 1.463 . S
C690 N694 1.427 . S
C691 H681 0.929 . S
C691 C689 1.433 . S
C691 N694 1.384 . S
C692 H683 0.929 . S
C692 C684 1.378 . S
C692 C687 1.350 . S
C693 H680 0.929 . S
C693 C685 1.433 . S
C693 N695 1.384 . S
N694 C690 1.427 . S
N694 C691 1.384 . S
N695 C687 1.427 . S
N695 C693 1.384 . S
H696 C702 0.930 . S
H697 C706 0.930 . S
H698 C711 0.929 . S
H699 C709 0.929 . S
H700 C704 0.929 . S
H701 C710 0.929 . S
C702 H696 0.930 . S
C702 C703 1.367 . S
C702 C710 1.378 . S
C703 C702 1.367 . S
C703 C711 1.433 . S
C704 H700 0.929 . S
C704 C706 1.378 . S
C704 C708 1.350 . S
C705 C708 1.463 . S
C705 C710 1.350 . S
C705 N713 1.427 . S
C706 H697 0.930 . S
C706 C704 1.378 . S
C706 C707 1.367 . S
C707 C706 1.367 . S
C707 C709 1.433 . S
C708 C704 1.350 . S
C708 C705 1.463 . S
C708 N712 1.427 . S
C709 H699 0.929 . S
C709 C707 1.433 . S
C709 N712 1.384 . S
C710 H701 0.929 . S
C710 C702 1.378 . S
C710 C705 1.350 . S
C711 H698 0.929 . S
C711 C703 1.433 . S
C711 N713 1.384 . S
N712 C708 1.427 . S
N712 C709 1.384 . S
N713 C705 1.427 . S
N713 C711 1.384 . S
H714 C720 0.930 . S
H715 C724 0.930 . S
H716 C729 0.929 . S
H717 C727 0.929 . S
H718 C722 0.929 . S
H719 C728 0.929 . S
C720 H714 0.930 . S
C720 C721 1.367 . S
C720 C728 1.378 . S
C721 C720 1.367 . S
C721 C729 1.433 . S
C722 H718 0.929 . S
C722 C724 1.378 . S
C722 C726 1.350 . S
C723 C726 1.463 . S
C723 C728 1.350 . S
C723 N731 1.427 . S
C724 H715 0.930 . S
C724 C722 1.378 . S
C724 C725 1.367 . S
C725 C724 1.367 . S
C725 C727 1.433 . S
C726 C722 1.350 . S
C726 C723 1.463 . S
C726 N730 1.427 . S
C727 H717 0.929 . S
C727 C725 1.433 . S
C727 N730 1.384 . S
C728 H719 0.929 . S
C728 C720 1.378 . S
C728 C723 1.350 . S
C729 H716 0.929 . S
C729 C721 1.433 . S
C729 N731 1.384 . S
N730 C726 1.427 . S
N730 C727 1.384 . S
N731 C723 1.427 . S
N731 C729 1.384 . S
H732 C738 0.930 . S
H733 C742 0.930 . S
H734 C747 0.929 . S
H735 C745 0.929 . S
H736 C740 0.929 . S
H737 C746 0.929 . S
C738 H732 0.930 . S
C738 C739 1.367 . S
C738 C746 1.378 . S
C739 C738 1.367 . S
C739 C747 1.433 . S
C740 H736 0.929 . S
C740 C742 1.378 . S
C740 C744 1.350 . S
C741 C744 1.463 . S
C741 C746 1.350 . S
C741 N749 1.427 . S
C742 H733 0.930 . S
C742 C740 1.378 . S
C742 C743 1.367 . S
C743 C742 1.367 . S
C743 C745 1.433 . S
C744 C740 1.350 . S
C744 C741 1.463 . S
C744 N748 1.427 . S
C745 H735 0.929 . S
C745 C743 1.433 . S
C745 N748 1.384 . S
C746 H737 0.929 . S
C746 C738 1.378 . S
C746 C741 1.350 . S
C747 H734 0.929 . S
C747 C739 1.433 . S
C747 N749 1.384 . S
N748 C744 1.427 . S
N748 C745 1.384 . S
N749 C741 1.427 . S
N749 C747 1.384 . S
H750 C756 0.930 . S
H751 C760 0.930 . S
H752 C765 0.929 . S
H753 C763 0.929 . S
H754 C758 0.929 . S
H755 C764 0.929 . S
C756 H750 0.930 . S
C756 C757 1.367 . S
C756 C764 1.378 . S
C757 C756 1.367 . S
C757 C765 1.433 . S
C758 H754 0.929 . S
C758 C760 1.378 . S
C758 C762 1.350 . S
C759 C762 1.463 . S
C759 C764 1.350 . S
C759 N767 1.427 . S
C760 H751 0.930 . S
C760 C758 1.378 . S
C760 C761 1.367 . S
C761 C760 1.367 . S
C761 C763 1.433 . S
C762 C758 1.350 . S
C762 C759 1.463 . S
C762 N766 1.427 . S
C763 H753 0.929 . S
C763 C761 1.433 . S
C763 N766 1.384 . S
C764 H755 0.929 . S
C764 C756 1.378 . S
C764 C759 1.350 . S
C765 H752 0.929 . S
C765 C757 1.433 . S
C765 N767 1.384 . S
N766 C762 1.427 . S
N766 C763 1.384 . S
N767 C759 1.427 . S
N767 C765 1.384 . S
H768 C774 0.930 . S
H769 C778 0.930 . S
H770 C783 0.929 1_545 S
H771 C781 0.929 1_565 S
H772 C776 0.958 . S
H773 C782 0.958 . S
C774 H768 0.930 . S
C774 C775 1.367 . S
C774 C782 1.378 . S
C775 C774 1.367 . S
C775 C783 1.433 . S
C776 H772 0.958 . S
C776 C778 1.378 . S
C776 C780 1.350 . S
C777 C780 1.463 1_566 S
C777 C782 1.350 . S
C777 N785 1.427 1_565 S
C778 H769 0.930 . S
C778 C776 1.378 . S
C778 C779 1.367 . S
C779 C778 1.367 . S
C779 C781 1.433 . S
C780 C776 1.350 . S
C780 C777 1.463 1_544 S
C780 N784 1.427 1_545 S
C781 H771 0.929 1_545 S
C781 C779 1.433 . S
C781 N784 1.384 1_545 S
C782 H773 0.958 . S
C782 C774 1.378 . S
C782 C777 1.350 . S
C783 H770 0.929 1_565 S
C783 C775 1.433 . S
C783 N785 1.384 1_565 S
N784 C780 1.427 1_565 S
N784 C781 1.384 1_565 S
N785 C777 1.427 1_545 S
N785 C783 1.384 1_545 S
H786 C792 0.930 . S
H787 C796 0.930 . S
H788 C801 0.929 . S
H789 C799 0.929 . S
H790 C794 0.929 . S
H791 C800 0.929 . S
C792 H786 0.930 . S
C792 C793 1.367 . S
C792 C800 1.378 . S
C793 C792 1.367 . S
C793 C801 1.433 . S
C794 H790 0.929 . S
C794 C796 1.378 . S
C794 C798 1.350 . S
C795 C798 1.463 . S
C795 C800 1.350 . S
C795 N803 1.427 . S
C796 H787 0.930 . S
C796 C794 1.378 . S
C796 C797 1.367 . S
C797 C796 1.367 . S
C797 C799 1.433 . S
C798 C794 1.350 . S
C798 C795 1.463 . S
C798 N802 1.427 . S
C799 H789 0.929 . S
C799 C797 1.433 . S
C799 N802 1.384 . S
C800 H791 0.929 . S
C800 C792 1.378 . S
C800 C795 1.350 . S
C801 H788 0.929 . S
C801 C793 1.433 . S
C801 N803 1.384 . S
N802 C798 1.427 . S
N802 C799 1.384 . S
N803 C795 1.427 . S
N803 C801 1.384 . S
H804 C810 0.930 . S
H805 C814 0.930 . S
H806 C819 0.903 1_655 S
H807 C817 0.904 1_455 S
H808 C812 0.932 . S
H809 C818 0.932 . S
C810 H804 0.930 . S
C810 C811 1.367 . S
C810 C818 1.378 . S
C811 C810 1.367 . S
C811 C819 1.478 . S
C812 H808 0.932 . S
C812 C814 1.378 . S
C812 C816 1.350 . S
C813 C816 1.463 1_456 S
C813 C818 1.350 . S
C813 N821 1.427 1_455 S
C814 H805 0.930 . S
C814 C812 1.378 . S
C814 C815 1.367 . S
C815 C814 1.367 . S
C815 C817 1.477 . S
C816 C812 1.350 . S
C816 C813 1.463 1_654 S
C816 N820 1.427 1_655 S
C817 H807 0.904 1_655 S
C817 C815 1.477 . S
C817 N820 1.368 1_655 S
C818 H809 0.932 . S
C818 C810 1.378 . S
C818 C813 1.350 . S
C819 H806 0.903 1_455 S
C819 C811 1.478 . S
C819 N821 1.368 1_455 S
N820 C816 1.427 1_455 S
N820 C817 1.368 1_455 S
N821 C813 1.427 1_655 S
N821 C819 1.368 1_655 S
H822 C828 0.949 . S
H823 C832 0.949 . S
H824 C837 0.929 . S
H825 C835 0.929 . S
H826 C830 0.929 . S
H827 C836 0.929 . S
C828 H822 0.949 . S
C828 C829 1.367 . S
C828 C836 1.378 1_545 S
C829 C828 1.367 . S
C829 C837 1.433 . S
C830 H826 0.929 . S
C830 C832 1.378 1_545 S
C830 C834 1.350 1_545 S
C831 C834 1.463 1_545 S
C831 C836 1.350 1_545 S
C831 N839 1.427 . S
C832 H823 0.949 . S
C832 C830 1.378 1_565 S
C832 C833 1.367 . S
C833 C832 1.367 . S
C833 C835 1.433 . S
C834 C830 1.350 1_565 S
C834 C831 1.463 1_565 S
C834 N838 1.427 . S
C835 H825 0.929 . S
C835 C833 1.433 . S
C835 N838 1.384 . S
C836 H827 0.929 . S
C836 C828 1.378 1_565 S
C836 C831 1.350 1_565 S
C837 H824 0.929 . S
C837 C829 1.433 . S
C837 N839 1.384 . S
N838 C834 1.427 . S
N838 C835 1.384 . S
N839 C831 1.427 . S
N839 C837 1.384 . S
H840 C846 0.930 . S
H841 C850 0.930 . S
H842 C855 0.929 . S
H843 C853 0.929 . S
H844 C848 0.929 . S
H845 C854 0.929 . S
C846 H840 0.930 . S
C846 C847 1.367 . S
C846 C854 1.378 . S
C847 C846 1.367 . S
C847 C855 1.433 . S
C848 H844 0.929 . S
C848 C850 1.378 . S
C848 C852 1.350 . S
C849 C852 1.463 1_554 S
C849 C854 1.350 . S
C849 N857 1.427 . S
C850 H841 0.930 . S
C850 C848 1.378 . S
C850 C851 1.367 . S
C851 C850 1.367 . S
C851 C853 1.433 . S
C852 C848 1.350 . S
C852 C849 1.463 1_556 S
C852 N856 1.427 . S
C853 H843 0.929 . S
C853 C851 1.433 . S
C853 N856 1.384 . S
C854 H845 0.929 . S
C854 C846 1.378 . S
C854 C849 1.350 . S
C855 H842 0.929 . S
C855 C847 1.433 . S
C855 N857 1.384 . S
N856 C852 1.427 . S
N856 C853 1.384 . S
N857 C849 1.427 . S
N857 C855 1.384 . S
H858 C864 0.930 . S
H859 C868 0.930 . S
H860 C873 0.929 . S
H861 C871 0.929 . S
H862 C866 0.929 . S
H863 C872 0.929 . S
C864 H858 0.930 . S
C864 C865 1.367 . S
C864 C872 1.378 . S
C865 C864 1.367 . S
C865 C873 1.433 . S
C866 H862 0.929 . S
C866 C868 1.378 . S
C866 C870 1.350 . S
C867 C870 1.463 1_455 S
C867 C872 1.350 . S
C867 N875 1.427 . S
C868 H859 0.930 . S
C868 C866 1.378 . S
C868 C869 1.367 . S
C869 C868 1.367 . S
C869 C871 1.433 . S
C870 C866 1.350 . S
C870 C867 1.463 1_655 S
C870 N874 1.427 . S
C871 H861 0.929 . S
C871 C869 1.433 . S
C871 N874 1.384 . S
C872 H863 0.929 . S
C872 C864 1.378 . S
C872 C867 1.350 . S
C873 H860 0.929 . S
C873 C865 1.433 . S
C873 N875 1.384 . S
N874 C870 1.427 . S
N874 C871 1.384 . S
N875 C867 1.427 . S
N875 C873 1.384 . S
H876 C882 0.930 . S
H877 C886 0.930 . S
H878 C891 0.929 . S
H879 C889 0.929 . S
H880 C884 0.929 . S
H881 C890 0.929 . S
C882 H876 0.930 . S
C882 C883 1.367 . S
C882 C890 1.378 1_565 S
C883 C882 1.367 . S
C883 C891 1.433 . S
C884 H880 0.929 . S
C884 C886 1.378 1_565 S
C884 C888 1.350 1_565 S
C885 C888 1.463 1_566 S
C885 C890 1.350 1_565 S
C885 N893 1.427 . S
C886 H877 0.930 . S
C886 C884 1.378 1_545 S
C886 C887 1.367 . S
C887 C886 1.367 . S
C887 C889 1.433 . S
C888 C884 1.350 1_545 S
C888 C885 1.463 1_544 S
C888 N892 1.427 . S
C889 H879 0.929 . S
C889 C887 1.433 . S
C889 N892 1.384 . S
C890 H881 0.929 . S
C890 C882 1.378 1_545 S
C890 C885 1.350 1_545 S
C891 H878 0.929 . S
C891 C883 1.433 . S
C891 N893 1.384 . S
N892 C888 1.427 . S
N892 C889 1.384 . S
N893 C885 1.427 . S
N893 C891 1.384 . S
H894 C900 0.930 . S
H895 C904 0.930 . S
H896 C909 0.929 . S
H897 C907 0.929 . S
H898 C902 0.929 . S
H899 C908 0.929 . S
C900 H894 0.930 . S
C900 C901 1.367 . S
C900 C908 1.378 . S
C901 C900 1.367 . S
C901 C909 1.433 . S
C902 H898 0.929 . S
C902 C904 1.378 . S
C902 C906 1.350 . S
C903 C906 1.463 . S
C903 C908 1.350 . S
C903 N911 1.427 . S
C904 H895 0.930 . S
C904 C902 1.378 . S
C904 C905 1.367 . S
C905 C904 1.367 . S
C905 C907 1.433 . S
C906 C902 1.350 . S
C906 C903 1.463 . S
C906 N910 1.427 . S
C907 H897 0.929 . S
C907 C905 1.433 . S
C907 N910 1.384 . S
C908 H899 0.929 . S
C908 C900 1.378 . S
C908 C903 1.350 . S
C909 H896 0.929 . S
C909 C901 1.433 . S
C909 N911 1.384 . S
N910 C906 1.427 . S
N910 C907 1.384 . S
N911 C903 1.427 . S
N911 C909 1.384 . S
H912 C918 0.930 1_455 S
H913 C922 0.930 1_655 S
H914 C927 0.929 . S
H915 C925 0.929 . S
H916 C920 0.929 . S
H917 C926 0.929 . S
C918 H912 0.930 1_655 S
C918 C919 1.367 . S
C918 C926 1.378 1_655 S
C919 C918 1.367 . S
C919 C927 1.433 . S
C920 H916 0.929 . S
C920 C922 1.378 1_655 S
C920 C924 1.350 1_655 S
C921 C924 1.463 1_654 S
C921 C926 1.350 1_655 S
C921 N929 1.427 . S
C922 H913 0.930 1_455 S
C922 C920 1.378 1_455 S
C922 C923 1.367 . S
C923 C922 1.367 . S
C923 C925 1.433 . S
C924 C920 1.350 1_455 S
C924 C921 1.463 1_456 S
C924 N928 1.427 . S
C925 H915 0.929 . S
C925 C923 1.433 . S
C925 N928 1.384 . S
C926 H917 0.929 . S
C926 C918 1.378 1_455 S
C926 C921 1.350 1_455 S
C927 H914 0.929 . S
C927 C919 1.433 . S
C927 N929 1.384 . S
N928 C924 1.427 . S
N928 C925 1.384 . S
N929 C921 1.427 . S
N929 C927 1.384 . S
H930 C936 0.930 . S
H931 C940 0.930 . S
H932 C945 0.929 . S
H933 C943 0.929 . S
H934 C938 0.929 . S
H935 C944 0.929 . S
C936 H930 0.930 . S
C936 C937 1.367 . S
C936 C944 1.378 . S
C937 C936 1.367 . S
C937 C945 1.433 . S
C938 H934 0.929 . S
C938 C940 1.378 . S
C938 C942 1.350 . S
C939 C942 1.463 1_565 S
C939 C944 1.350 . S
C939 N947 1.427 1_565 S
C940 H931 0.930 . S
C940 C938 1.378 . S
C940 C941 1.367 . S
C941 C940 1.367 . S
C941 C943 1.433 . S
C942 C938 1.350 . S
C942 C939 1.463 1_545 S
C942 N946 1.427 1_545 S
C943 H933 0.929 . S
C943 C941 1.433 . S
C943 N946 1.384 1_545 S
C944 H935 0.929 . S
C944 C936 1.378 . S
C944 C939 1.350 . S
C945 H932 0.929 . S
C945 C937 1.433 . S
C945 N947 1.384 1_565 S
N946 C942 1.427 1_565 S
N946 C943 1.384 1_565 S
N947 C939 1.427 1_545 S
N947 C945 1.384 1_545 S
H948 C954 0.930 . S
H949 C958 0.930 . S
H950 C963 0.929 . S
H951 C961 0.929 . S
H952 C956 0.929 . S
H953 C962 0.929 . S
C954 H948 0.930 . S
C954 C955 1.367 . S
C954 C962 1.378 . S
C955 C954 1.367 . S
C955 C963 1.433 . S
C956 H952 0.929 . S
C956 C958 1.378 . S
C956 C960 1.350 . S
C957 C960 1.463 1_554 S
C957 C962 1.350 . S
C957 N965 1.427 . S
C958 H949 0.930 . S
C958 C956 1.378 . S
C958 C959 1.367 . S
C959 C958 1.367 . S
C959 C961 1.433 . S
C960 C956 1.350 . S
C960 C957 1.463 1_556 S
C960 N964 1.427 . S
C961 H951 0.929 . S
C961 C959 1.433 . S
C961 N964 1.384 . S
C962 H953 0.929 . S
C962 C954 1.378 . S
C962 C957 1.350 . S
C963 H950 0.929 . S
C963 C955 1.433 . S
C963 N965 1.384 . S
N964 C960 1.427 . S
N964 C961 1.384 . S
N965 C957 1.427 . S
N965 C963 1.384 . S
H966 C972 0.930 1_655 S
H967 C976 0.930 1_455 S
H968 C981 0.929 . S
H969 C979 0.929 . S
H970 C974 0.929 . S
H971 C980 0.929 . S
C972 H966 0.930 1_455 S
C972 C973 1.367 . S
C972 C980 1.378 1_455 S
C973 C972 1.367 . S
C973 C981 1.433 . S
C974 H970 0.929 . S
C974 C976 1.378 1_455 S
C974 C978 1.350 1_455 S
C975 C978 1.463 1_455 S
C975 C980 1.350 1_455 S
C975 N983 1.427 . S
C976 H967 0.930 1_655 S
C976 C974 1.378 1_655 S
C976 C977 1.367 . S
C977 C976 1.367 . S
C977 C979 1.433 . S
C978 C974 1.350 1_655 S
C978 C975 1.463 1_655 S
C978 N982 1.427 . S
C979 H969 0.929 . S
C979 C977 1.433 . S
C979 N982 1.384 . S
C980 H971 0.929 . S
C980 C972 1.378 1_655 S
C980 C975 1.350 1_655 S
C981 H968 0.929 . S
C981 C973 1.433 . S
C981 N983 1.384 . S
N982 C978 1.427 . S
N982 C979 1.384 . S
N983 C975 1.427 . S
N983 C981 1.384 . S
H984 C990 0.930 . S
H985 C994 0.930 . S
H986 C999 0.929 . S
H987 C997 0.929 . S
H988 C992 0.929 . S
H989 C998 0.929 . S
C990 H984 0.930 . S
C990 C991 1.367 . S
C990 C998 1.378 . S
C991 C990 1.367 . S
C991 C999 1.433 . S
C992 H988 0.929 . S
C992 C994 1.378 . S
C992 C996 1.350 . S
C993 C996 1.463 . S
C993 C998 1.350 . S
C993 N1001 1.427 . S
C994 H985 0.930 . S
C994 C992 1.378 . S
C994 C995 1.367 . S
C995 C994 1.367 . S
C995 C997 1.433 . S
C996 C992 1.350 . S
C996 C993 1.463 . S
C996 N1000 1.427 . S
C997 H987 0.929 . S
C997 C995 1.433 . S
C997 N1000 1.384 . S
C998 H989 0.929 . S
C998 C990 1.378 . S
C998 C993 1.350 . S
C999 H986 0.929 . S
C999 C991 1.433 . S
C999 N1001 1.384 . S
N1000 C996 1.427 . S
N1000 C997 1.384 . S
N1001 C993 1.427 . S
N1001 C999 1.384 . S
H1002 C1008 0.930 . S
H1003 C1012 0.930 . S
H1004 C1017 0.929 . S
H1005 C1015 0.929 . S
H1006 C1010 0.929 . S
H1007 C1016 0.929 . S
C1008 H1002 0.930 . S
C1008 C1009 1.367 . S
C1008 C1016 1.378 . S
C1009 C1008 1.367 . S
C1009 C1017 1.433 . S
C1010 H1006 0.929 . S
C1010 C1012 1.378 . S
C1010 C1014 1.350 . S
C1011 C1014 1.463 . S
C1011 C1016 1.350 . S
C1011 N1019 1.427 . S
C1012 H1003 0.930 . S
C1012 C1010 1.378 . S
C1012 C1013 1.367 . S
C1013 C1012 1.367 . S
C1013 C1015 1.433 . S
C1014 C1010 1.350 . S
C1014 C1011 1.463 . S
C1014 N1018 1.427 . S
C1015 H1005 0.929 . S
C1015 C1013 1.433 . S
C1015 N1018 1.384 . S
C1016 H1007 0.929 . S
C1016 C1008 1.378 . S
C1016 C1011 1.350 . S
C1017 H1004 0.929 . S
C1017 C1009 1.433 . S
C1017 N1019 1.384 . S
N1018 C1014 1.427 . S
N1018 C1015 1.384 . S
N1019 C1011 1.427 . S
N1019 C1017 1.384 . S
H1020 C1026 0.930 . S
H1021 C1030 0.930 . S
H1022 C1035 0.929 . S
H1023 C1033 0.929 . S
H1024 C1028 0.929 . S
H1025 C1034 0.929 . S
C1026 H1020 0.930 . S
C1026 C1027 1.367 . S
C1026 C1034 1.378 . S
C1027 C1026 1.367 . S
C1027 C1035 1.433 . S
C1028 H1024 0.929 . S
C1028 C1030 1.378 . S
C1028 C1032 1.350 . S
C1029 C1032 1.463 . S
C1029 C1034 1.350 . S
C1029 N1037 1.427 . S
C1030 H1021 0.930 . S
C1030 C1028 1.378 . S
C1030 C1031 1.367 . S
C1031 C1030 1.367 . S
C1031 C1033 1.433 . S
C1032 C1028 1.350 . S
C1032 C1029 1.463 . S
C1032 N1036 1.427 . S
C1033 H1023 0.929 . S
C1033 C1031 1.433 . S
C1033 N1036 1.384 . S
C1034 H1025 0.929 . S
C1034 C1026 1.378 . S
C1034 C1029 1.350 . S
C1035 H1022 0.929 . S
C1035 C1027 1.433 . S
C1035 N1037 1.384 . S
N1036 C1032 1.427 . S
N1036 C1033 1.384 . S
N1037 C1029 1.427 . S
N1037 C1035 1.384 . S
H1038 C1044 0.930 . S
H1039 C1048 0.930 . S
H1040 C1053 0.929 . S
H1041 C1051 0.929 . S
H1042 C1046 0.929 . S
H1043 C1052 0.929 . S
C1044 H1038 0.930 . S
C1044 C1045 1.367 . S
C1044 C1052 1.378 . S
C1045 C1044 1.367 . S
C1045 C1053 1.433 . S
C1046 H1042 0.929 . S
C1046 C1048 1.378 . S
C1046 C1050 1.350 . S
C1047 C1050 1.463 . S
C1047 C1052 1.350 . S
C1047 N1055 1.427 . S
C1048 H1039 0.930 . S
C1048 C1046 1.378 . S
C1048 C1049 1.367 . S
C1049 C1048 1.367 . S
C1049 C1051 1.433 . S
C1050 C1046 1.350 . S
C1050 C1047 1.463 . S
C1050 N1054 1.427 . S
C1051 H1041 0.929 . S
C1051 C1049 1.433 . S
C1051 N1054 1.384 . S
C1052 H1043 0.929 . S
C1052 C1044 1.378 . S
C1052 C1047 1.350 . S
C1053 H1040 0.929 . S
C1053 C1045 1.433 . S
C1053 N1055 1.384 . S
N1054 C1050 1.427 . S
N1054 C1051 1.384 . S
N1055 C1047 1.427 . S
N1055 C1053 1.384 . S
H1056 C1062 0.930 . S
H1057 C1066 0.930 . S
H1058 C1071 0.929 . S
H1059 C1069 0.929 . S
H1060 C1064 0.929 . S
H1061 C1070 0.929 . S
C1062 H1056 0.930 . S
C1062 C1063 1.367 . S
C1062 C1070 1.378 . S
C1063 C1062 1.367 . S
C1063 C1071 1.433 . S
C1064 H1060 0.929 . S
C1064 C1066 1.378 . S
C1064 C1068 1.350 . S
C1065 C1068 1.463 . S
C1065 C1070 1.350 . S
C1065 N1073 1.427 . S
C1066 H1057 0.930 . S
C1066 C1064 1.378 . S
C1066 C1067 1.367 . S
C1067 C1066 1.367 . S
C1067 C1069 1.433 . S
C1068 C1064 1.350 . S
C1068 C1065 1.463 . S
C1068 N1072 1.427 . S
C1069 H1059 0.929 . S
C1069 C1067 1.433 . S
C1069 N1072 1.384 . S
C1070 H1061 0.929 . S
C1070 C1062 1.378 . S
C1070 C1065 1.350 . S
C1071 H1058 0.929 . S
C1071 C1063 1.433 . S
C1071 N1073 1.384 . S
N1072 C1068 1.427 . S
N1072 C1069 1.384 . S
N1073 C1065 1.427 . S
N1073 C1071 1.384 . S
H1074 C1080 0.930 . S
H1075 C1084 0.930 . S
H1076 C1089 0.929 . S
H1077 C1087 0.929 . S
H1078 C1082 0.929 . S
H1079 C1088 0.929 . S
C1080 H1074 0.930 . S
C1080 C1081 1.367 . S
C1080 C1088 1.378 . S
C1081 C1080 1.367 . S
C1081 C1089 1.433 . S
C1082 H1078 0.929 . S
C1082 C1084 1.378 . S
C1082 C1086 1.350 . S
C1083 C1086 1.463 . S
C1083 C1088 1.350 . S
C1083 N1091 1.427 . S
C1084 H1075 0.930 . S
C1084 C1082 1.378 . S
C1084 C1085 1.367 . S
C1085 C1084 1.367 . S
C1085 C1087 1.433 . S
C1086 C1082 1.350 . S
C1086 C1083 1.463 . S
C1086 N1090 1.427 . S
C1087 H1077 0.929 . S
C1087 C1085 1.433 . S
C1087 N1090 1.384 . S
C1088 H1079 0.929 . S
C1088 C1080 1.378 . S
C1088 C1083 1.350 . S
C1089 H1076 0.929 . S
C1089 C1081 1.433 . S
C1089 N1091 1.384 . S
N1090 C1086 1.427 . S
N1090 C1087 1.384 . S
N1091 C1083 1.427 . S
N1091 C1089 1.384 . S
H1092 C1098 0.930 . S
H1093 C1102 0.930 . S
H1094 C1107 0.929 . S
H1095 C1105 0.929 . S
H1096 C1100 0.929 . S
H1097 C1106 0.929 . S
C1098 H1092 0.930 . S
C1098 C1099 1.367 . S
C1098 C1106 1.378 . S
C1099 C1098 1.367 . S
C1099 C1107 1.433 . S
C1100 H1096 0.929 . S
C1100 C1102 1.378 . S
C1100 C1104 1.350 . S
C1101 C1104 1.463 . S
C1101 C1106 1.350 . S
C1101 N1109 1.427 . S
C1102 H1093 0.930 . S
C1102 C1100 1.378 . S
C1102 C1103 1.367 . S
C1103 C1102 1.367 . S
C1103 C1105 1.433 . S
C1104 C1100 1.350 . S
C1104 C1101 1.463 . S
C1104 N1108 1.427 . S
C1105 H1095 0.929 . S
C1105 C1103 1.433 . S
C1105 N1108 1.384 . S
C1106 H1097 0.929 . S
C1106 C1098 1.378 . S
C1106 C1101 1.350 . S
C1107 H1094 0.929 . S
C1107 C1099 1.433 . S
C1107 N1109 1.384 . S
N1108 C1104 1.427 . S
N1108 C1105 1.384 . S
N1109 C1101 1.427 . S
N1109 C1107 1.384 . S
H1110 C1116 0.930 . S
H1111 C1120 0.930 . S
H1112 C1125 0.929 . S
H1113 C1123 0.929 . S
H1114 C1118 0.929 . S
H1115 C1124 0.929 . S
C1116 H1110 0.930 . S
C1116 C1117 1.367 . S
C1116 C1124 1.378 . S
C1117 C1116 1.367 . S
C1117 C1125 1.433 . S
C1118 H1114 0.929 . S
C1118 C1120 1.378 . S
C1118 C1122 1.350 . S
C1119 C1122 1.463 . S
C1119 C1124 1.350 . S
C1119 N1127 1.427 . S
C1120 H1111 0.930 . S
C1120 C1118 1.378 . S
C1120 C1121 1.367 . S
C1121 C1120 1.367 . S
C1121 C1123 1.433 . S
C1122 C1118 1.350 . S
C1122 C1119 1.463 . S
C1122 N1126 1.427 . S
C1123 H1113 0.929 . S
C1123 C1121 1.433 . S
C1123 N1126 1.384 . S
C1124 H1115 0.929 . S
C1124 C1116 1.378 . S
C1124 C1119 1.350 . S
C1125 H1112 0.929 . S
C1125 C1117 1.433 . S
C1125 N1127 1.384 . S
N1126 C1122 1.427 . S
N1126 C1123 1.384 . S
N1127 C1119 1.427 . S
N1127 C1125 1.384 . S
H1128 C1134 0.930 . S
H1129 C1138 0.930 . S
H1130 C1143 0.929 . S
H1131 C1141 0.929 . S
H1132 C1136 0.929 . S
H1133 C1142 0.929 . S
C1134 H1128 0.930 . S
C1134 C1135 1.367 . S
C1134 C1142 1.378 . S
C1135 C1134 1.367 . S
C1135 C1143 1.433 . S
C1136 H1132 0.929 . S
C1136 C1138 1.378 . S
C1136 C1140 1.350 . S
C1137 C1140 1.463 . S
C1137 C1142 1.350 . S
C1137 N1145 1.427 . S
C1138 H1129 0.930 . S
C1138 C1136 1.378 . S
C1138 C1139 1.367 . S
C1139 C1138 1.367 . S
C1139 C1141 1.433 . S
C1140 C1136 1.350 . S
C1140 C1137 1.463 . S
C1140 N1144 1.427 . S
C1141 H1131 0.929 . S
C1141 C1139 1.433 . S
C1141 N1144 1.384 . S
C1142 H1133 0.929 . S
C1142 C1134 1.378 . S
C1142 C1137 1.350 . S
C1143 H1130 0.929 . S
C1143 C1135 1.433 . S
C1143 N1145 1.384 . S
N1144 C1140 1.427 . S
N1144 C1141 1.384 . S
N1145 C1137 1.427 . S
N1145 C1143 1.384 . S
H1146 C1152 0.930 . S
H1147 C1156 0.930 . S
H1148 C1161 0.929 . S
H1149 C1159 0.929 . S
H1150 C1154 0.929 . S
H1151 C1160 0.929 . S
C1152 H1146 0.930 . S
C1152 C1153 1.367 . S
C1152 C1160 1.378 . S
C1153 C1152 1.367 . S
C1153 C1161 1.433 . S
C1154 H1150 0.929 . S
C1154 C1156 1.378 . S
C1154 C1158 1.350 . S
C1155 C1158 1.463 . S
C1155 C1160 1.350 . S
C1155 N1163 1.427 . S
C1156 H1147 0.930 . S
C1156 C1154 1.378 . S
C1156 C1157 1.367 . S
C1157 C1156 1.367 . S
C1157 C1159 1.433 . S
C1158 C1154 1.350 . S
C1158 C1155 1.463 . S
C1158 N1162 1.427 . S
C1159 H1149 0.929 . S
C1159 C1157 1.433 . S
C1159 N1162 1.384 . S
C1160 H1151 0.929 . S
C1160 C1152 1.378 . S
C1160 C1155 1.350 . S
C1161 H1148 0.929 . S
C1161 C1153 1.433 . S
C1161 N1163 1.384 . S
N1162 C1158 1.427 . S
N1162 C1159 1.384 . S
N1163 C1155 1.427 . S
N1163 C1161 1.384 . S
H1164 C1170 0.930 . S
H1165 C1174 0.930 . S
H1166 C1179 0.929 . S
H1167 C1177 0.929 . S
H1168 C1172 0.929 . S
H1169 C1178 0.929 . S
C1170 H1164 0.930 . S
C1170 C1171 1.367 . S
C1170 C1178 1.378 . S
C1171 C1170 1.367 . S
C1171 C1179 1.433 . S
C1172 H1168 0.929 . S
C1172 C1174 1.378 . S
C1172 C1176 1.350 . S
C1173 C1176 1.463 . S
C1173 C1178 1.350 . S
C1173 N1181 1.427 . S
C1174 H1165 0.930 . S
C1174 C1172 1.378 . S
C1174 C1175 1.367 . S
C1175 C1174 1.367 . S
C1175 C1177 1.433 . S
C1176 C1172 1.350 . S
C1176 C1173 1.463 . S
C1176 N1180 1.427 . S
C1177 H1167 0.929 . S
C1177 C1175 1.433 . S
C1177 N1180 1.384 . S
C1178 H1169 0.929 . S
C1178 C1170 1.378 . S
C1178 C1173 1.350 . S
C1179 H1166 0.929 . S
C1179 C1171 1.433 . S
C1179 N1181 1.384 . S
N1180 C1176 1.427 . S
N1180 C1177 1.384 . S
N1181 C1173 1.427 . S
N1181 C1179 1.384 . S
H1182 C1188 0.930 . S
H1183 C1192 0.930 . S
H1184 C1197 0.929 . S
H1185 C1195 0.929 . S
H1186 C1190 0.929 . S
H1187 C1196 0.929 . S
C1188 H1182 0.930 . S
C1188 C1189 1.367 . S
C1188 C1196 1.378 . S
C1189 C1188 1.367 . S
C1189 C1197 1.433 . S
C1190 H1186 0.929 . S
C1190 C1192 1.378 . S
C1190 C1194 1.350 . S
C1191 C1194 1.463 . S
C1191 C1196 1.350 . S
C1191 N1199 1.427 . S
C1192 H1183 0.930 . S
C1192 C1190 1.378 . S
C1192 C1193 1.367 . S
C1193 C1192 1.367 . S
C1193 C1195 1.433 . S
C1194 C1190 1.350 . S
C1194 C1191 1.463 . S
C1194 N1198 1.427 . S
C1195 H1185 0.929 . S
C1195 C1193 1.433 . S
C1195 N1198 1.384 . S
C1196 H1187 0.929 . S
C1196 C1188 1.378 . S
C1196 C1191 1.350 . S
C1197 H1184 0.929 . S
C1197 C1189 1.433 . S
C1197 N1199 1.384 . S
N1198 C1194 1.427 . S
N1198 C1195 1.384 . S
N1199 C1191 1.427 . S
N1199 C1197 1.384 . S
C343 C218 1.282 . S
C347 C8 1.295 . S
C361 C22 1.281 . S
C365 C232 1.296 . S
C379 C36 1.291 . S
C383 C246 1.286 . S
C397 C50 1.293 . S
C401 C176 1.284 . S
C415 C190 1.283 . S
C419 C64 1.294 . S
C433 C78 1.285 . S
C437 C204 1.292 . S
C451 C302 1.294 . S
C455 C92 1.284 . S
C469 C106 1.295 . S
C473 C316 1.283 . S
C487 C120 1.291 . S
C491 C330 1.287 . S
C505 C260 1.290 . S
C509 C134 1.288 . S
C523 C148 1.297 . S
C527 C274 1.281 . S
C541 C288 1.281 . S
C545 C162 1.296 . S
C559 C6 1.626 . S
C563 C328 1.616 . S
C577 C258 1.615 . S
C581 C20 1.627 . S
C595 C34 1.627 . S
C599 C272 1.616 . S
C613 C286 1.618 . S
C617 C48 1.624 . S
C631 C62 1.616 . S
C635 C300 1.626 . S
C649 C314 1.624 . S
C653 C76 1.618 . S
C667 C90 1.620 . S
C671 C188 1.622 . S
C685 C202 1.623 . S
C689 C104 1.620 . S
C703 C216 1.625 . S
C707 C118 1.617 . S
C721 C230 1.622 . S
C725 C132 1.620 . S
C739 C146 1.626 . S
C743 C244 1.617 . S
C757 C160 1.615 . S
C761 C174 1.628 . S
C775 C105 1.367 . S
C779 C7 1.365 . S
C793 C119 1.360 . S
C797 C21 1.360 . S
C811 C133 1.367 . S
C815 C35 1.366 . S
C829 C147 1.363 . S
C833 C49 1.359 . S
C847 C63 1.361 . S
C851 C161 1.365 . S
C865 C77 1.361 . S
C869 C91 1.365 . S
C883 C175 1.359 . S
C887 C273 1.363 . S
C901 C189 1.364 . S
C905 C287 1.367 . S
C919 C301 1.361 . S
C923 C203 1.359 . S
C937 C315 1.367 . S
C941 C217 1.363 . S
C955 C329 1.366 . S
C959 C231 1.362 . S
C973 C259 1.361 . S
C977 C245 1.359 . S
C991 C9 1.770 . S
C995 C275 1.765 . S
C1009 C289 1.770 . S
C1013 C23 1.765 . S
C1027 C37 1.767 . S
C1031 C303 1.768 . S
C1045 C317 1.765 . S
C1049 C51 1.770 . S
C1063 C65 1.765 . S
C1067 C331 1.770 . S
C1081 C261 1.765 . S
C1085 C79 1.770 . S
C1099 C93 1.767 . S
C1103 C247 1.768 . S
C1117 C177 1.768 . S
C1121 C107 1.767 . S
C1135 C121 1.769 . S
C1139 C191 1.766 . S
C1153 C135 1.767 . S
C1157 C205 1.768 . S
C1171 C149 1.768 . S
C1175 C219 1.767 . S
C1189 C163 1.770 . S
C1193 C233 1.765 . S
