# Generated by pormake.
# Topology ilc, (8)-cn, num edge types: 1
# Building blocks:
#     Node 0, Type 0, BuildingBlock: TAGTUT_clean_sbu_3, # of connection points: 8
#     Node 1, Type 0, BuildingBlock: TAGTUT_clean_sbu_3, # of connection points: 8
#     Node 2, Type 0, BuildingBlock: TAGTUT_clean_sbu_3, # of connection points: 8
#     Edge 3, Type (0, 0), BuildingBlock: TEMPAE_clean_linker_10, # of connection points: 2
#     Edge 4, Type (0, 0), BuildingBlock: TEMPAE_clean_linker_10, # of connection points: 2
#     Edge 5, Type (0, 0), BuildingBlock: TEMPAE_clean_linker_10, # of connection points: 2
#     Edge 6, Type (0, 0), BuildingBlock: TEMPAE_clean_linker_10, # of connection points: 2
#     Edge 7, Type (0, 0), BuildingBlock: TEMPAE_clean_linker_10, # of connection points: 2
#     Edge 8, Type (0, 0), BuildingBlock: TEMPAE_clean_linker_10, # of connection points: 2
#     Edge 9, Type (0, 0), BuildingBlock: TEMPAE_clean_linker_10, # of connection points: 2
#     Edge 10, Type (0, 0), BuildingBlock: TEMPAE_clean_linker_10, # of connection points: 2
#     Edge 11, Type (0, 0), BuildingBlock: TEMPAE_clean_linker_10, # of connection points: 2
#     Edge 12, Type (0, 0), BuildingBlock: TEMPAE_clean_linker_10, # of connection points: 2
#     Edge 13, Type (0, 0), BuildingBlock: TEMPAE_clean_linker_10, # of connection points: 2
#     Edge 14, Type (0, 0), BuildingBlock: TEMPAE_clean_linker_10, # of connection points: 2
# Relax obj value: 0.198
# Max RMSD: 0.154
# Mean RMSD: 0.154
data_MOF--net-ilc--node1-TAGTUT_clean_sbu_3--edge1-TEMPAE_clean_linker_10
_symmetry_space_group_name_H-M    P1
_symmetry_Int_Tables_number       1
_symmetry_cell_setting            triclinic
loop_
_symmetry_equiv_pos_as_xyz
'x, y, z'
_cell_length_a     27.20015
_cell_length_b     26.942938
_cell_length_c     14.769571
_cell_angle_alpha  95.054758
_cell_angle_beta   85.698045
_cell_angle_gamma 134.37908
loop_
_atom_site_label
_atom_site_type_symbol
_atom_site_fract_x
_atom_site_fract_y
_atom_site_fract_z
_atom_type_partial_charge
C0 C 0.08543 0.14512 0.06542 0.0
C1 C 0.15175 0.13327 0.24519 0.0
C2 C 0.10423 0.94977 0.18779 0.0
Mg3 Mg 0.03591 0.11829 0.88096 0.0
Mg4 Mg 0.88572 0.93442 0.78705 0.0
O5 O 0.95653 1.00453 0.8791 0.0
Mg6 Mg 0.98282 0.98327 0.9856 0.0
O7 O 0.02511 0.97738 0.08445 0.0
Mg8 Mg 0.13149 0.06025 0.06453 0.0
Mg9 Mg 0.02216 0.99213 0.20649 0.0
C10 C 0.87089 0.83092 0.87065 0.0
O11 O 0.88134 0.93081 0.08331 0.0
O12 O 0.99679 0.02645 0.79972 0.0
O13 O 0.91749 0.93589 0.21957 0.0
O14 O 0.93979 0.09996 0.84523 0.0
O15 O 0.96006 0.95631 0.68221 0.0
O16 O 0.86393 0.9959 0.76565 0.0
O17 O 0.08918 0.0309 0.91827 0.0
O18 O 0.13017 0.13147 0.87677 0.0
C19 C 0.13519 0.08784 0.87884 0.0
C20 C 1.00965 1.01538 0.71987 0.0
O21 O 0.92822 0.87262 0.91345 0.0
O22 O 0.17391 0.10781 0.20667 0.0
O23 O 0.83662 0.84676 0.86632 0.0
O24 O 0.12739 0.97481 0.10765 0.0
O25 O 0.08848 0.09907 0.24015 0.0
O26 O 0.06683 0.95512 0.23625 0.0
O27 O 0.02722 0.09214 0.03242 0.0
O28 O 0.1334 0.14703 0.06563 0.0
C29 C 0.8887 0.05667 0.79032 0.0
C30 C 0.87065 0.91801 0.16927 0.0
C31 C 0.76073 0.47782 0.3846 0.0
C32 C 0.82328 0.40515 0.58341 0.0
C33 C 0.74983 0.22974 0.40299 0.0
Mg34 Mg 0.66761 0.4219 0.21339 0.0
Mg35 Mg 0.49655 0.231 0.21497 0.0
O36 O 0.59832 0.31145 0.23521 0.0
Mg37 Mg 0.64772 0.3125 0.33306 0.0
O38 O 0.70661 0.32812 0.42799 0.0
Mg39 Mg 0.79942 0.38501 0.36639 0.0
Mg40 Mg 0.68341 0.26726 0.51143 0.0
C41 C 0.52397 0.14779 0.26923 0.0
O42 O 0.56117 0.26714 0.44697 0.0
O43 O 0.59561 0.31422 0.14921 0.0
O44 O 0.58476 0.23007 0.55214 0.0
O45 O 0.57256 0.40591 0.2548 0.0
O46 O 0.51166 0.22178 0.06947 0.0
O47 O 0.47316 0.29464 0.22144 0.0
O48 O 0.73948 0.35184 0.23429 0.0
O49 O 0.75438 0.42995 0.15938 0.0
C50 C 0.77101 0.39722 0.17393 0.0
C51 C 0.56964 0.28459 0.07076 0.0
O52 O 0.58853 0.19762 0.28652 0.0
O53 O 0.85027 0.42446 0.50411 0.0
O54 O 0.48299 0.1558 0.28807 0.0
O55 O 0.79244 0.29146 0.37261 0.0
O56 O 0.77092 0.34105 0.59836 0.0
O57 O 0.6921 0.20314 0.43831 0.0
O58 O 0.69844 0.42459 0.36122 0.0
O59 O 0.80567 0.47475 0.38202 0.0
C60 C 0.50905 0.36028 0.231 0.0
C61 C 0.54702 0.23709 0.52163 0.0
C62 C 0.4193 0.80089 0.77636 0.0
C63 C 0.34361 0.66736 0.92823 0.0
C64 C 0.39143 0.54729 0.8273 0.0
Mg65 Mg 0.37335 0.78907 0.58782 0.0
Mg66 Mg 0.21507 0.6101 0.49006 0.0
O67 O 0.29574 0.67783 0.57015 0.0
Mg68 Mg 0.31375 0.64586 0.66888 0.0
O69 O 0.34125 0.6243 0.76858 0.0
Mg70 Mg 0.45288 0.70456 0.76517 0.0
Mg71 Mg 0.27147 0.54516 0.84735 0.0
C72 C 0.19919 0.50008 0.54724 0.0
O73 O 0.20665 0.58882 0.74297 0.0
O74 O 0.32833 0.70007 0.48773 0.0
O75 O 0.17606 0.49242 0.78419 0.0
O76 O 0.2789 0.77541 0.57422 0.0
O77 O 0.27888 0.62223 0.37743 0.0
O78 O 0.19611 0.67639 0.48951 0.0
O79 O 0.42299 0.69733 0.61255 0.0
O80 O 0.46222 0.7976 0.57114 0.0
C81 C 0.46829 0.75483 0.5724 0.0
C82 C 0.33466 0.67889 0.41097 0.0
O83 O 0.25899 0.54101 0.58325 0.0
O84 O 0.36042 0.65933 0.84915 0.0
O85 O 0.16462 0.51617 0.55441 0.0
O86 O 0.4356 0.60591 0.78729 0.0
O87 O 0.28768 0.61224 0.96116 0.0
O88 O 0.33058 0.5192 0.85273 0.0
O89 O 0.36274 0.753 0.73452 0.0
O90 O 0.46372 0.79772 0.78122 0.0
C91 C 0.22459 0.73666 0.52478 0.0
C92 C 0.16166 0.52773 0.77476 0.0
C93 C 0.09539 0.05388 0.59668 0.0
C94 C 0.07426 0.07106 0.67071 0.0
C95 C 0.15234 0.10561 0.54308 0.0
C96 C 0.19084 0.17735 0.5669 0.0
C97 C 0.17705 0.19422 0.65174 0.0
C98 C 0.11542 0.14144 0.69743 0.0
C99 C 0.16406 0.08001 0.45722 0.0
C100 C 0.22243 0.2684 0.68962 0.0
C101 C 0.25542 0.2193 0.34202 0.0
C102 C 0.19209 0.19145 0.31268 0.0
C103 C 0.2714 0.24002 0.43428 0.0
C104 C 0.22044 0.2267 0.49349 0.0
C105 C 0.17352 0.22608 0.45648 0.0
C106 C 0.15794 0.20561 0.3654 0.0
C107 C 0.33605 0.26475 0.46987 0.0
C108 C 0.13023 0.23312 0.51382 0.0
H109 H 0.06483 0.9995 0.5773 0.0
H110 H 0.09894 0.15651 0.75181 0.0
H111 H 0.13258 0.07101 0.40245 0.0
H112 H 0.21842 0.11598 0.4352 0.0
H113 H 0.14711 0.02943 0.4667 0.0
H114 H 0.26581 0.30692 0.64314 0.0
H115 H 0.19152 0.28086 0.7068 0.0
H116 H 0.24435 0.27419 0.75445 0.0
H117 H 0.28663 0.21556 0.29824 0.0
H118 H 0.11298 0.19119 0.34005 0.0
H119 H 0.34419 0.23145 0.44119 0.0
H120 H 0.33526 0.26656 0.54513 0.0
H121 H 0.38051 0.318 0.44697 0.0
H122 H 0.08957 0.18532 0.55132 0.0
H123 H 0.10455 0.24124 0.47159 0.0
H124 H 0.16283 0.27852 0.56251 0.0
C125 C 0.84837 0.47706 0.72155 0.0
C126 C 0.81962 0.45116 0.63573 0.0
C127 C 0.81218 0.47778 0.79331 0.0
C128 C 0.74613 0.45011 0.77694 0.0
C129 C 0.72618 0.44105 0.68702 0.0
C130 C 0.76445 0.44293 0.61626 0.0
C131 C 0.83779 0.49386 0.88817 0.0
C132 C 0.65715 0.41425 0.66749 0.0
C133 C 0.61334 0.29412 0.91648 0.0
C134 C 0.60393 0.32322 0.98922 0.0
C135 C 0.65837 0.33484 0.84542 0.0
C136 C 0.69155 0.40539 0.8456 0.0
C137 C 0.67631 0.4327 0.91496 0.0
C138 C 0.63468 0.39189 0.98848 0.0
C139 C 0.67352 0.30311 0.77391 0.0
C140 C 0.70558 0.50518 0.91407 0.0
H141 H 0.89343 0.48736 0.7351 0.0
H142 H 0.74306 0.42423 0.54904 0.0
H143 H 0.82117 0.51513 0.93318 0.0
H144 H 0.81685 0.44529 0.91666 0.0
H145 H 0.89466 0.53206 0.88733 0.0
H146 H 0.61538 0.36063 0.69068 0.0
H147 H 0.65083 0.44679 0.7059 0.0
H148 H 0.65026 0.41275 0.59398 0.0
H149 H 0.5896 0.24102 0.91873 0.0
H150 H 0.62711 0.41405 0.04591 0.0
H151 H 0.72828 0.33063 0.77721 0.0
H152 H 0.66419 0.30822 0.70519 0.0
H153 H 0.64127 0.24702 0.78295 0.0
H154 H 0.71171 0.52046 0.84376 0.0
H155 H 0.75679 0.54279 0.94596 0.0
H156 H 0.67202 0.50929 0.9535 0.0
C157 C 0.46262 0.77482 0.97705 0.0
C158 C 0.39112 0.73132 0.98467 0.0
C159 C 0.50441 0.82111 0.04981 0.0
C160 C 0.47203 0.81681 0.13198 0.0
C161 C 0.40489 0.79007 0.12755 0.0
C162 C 0.36393 0.74448 0.05486 0.0
C163 C 0.58048 0.86446 0.04424 0.0
C164 C 0.37078 0.79723 0.20545 0.0
C165 C 0.40794 0.69078 0.289 0.0
C166 C 0.39896 0.72231 0.35845 0.0
C167 C 0.45244 0.72919 0.21633 0.0
C168 C 0.48536 0.79961 0.21374 0.0
C169 C 0.49347 0.83479 0.29651 0.0
C170 C 0.44643 0.7951 0.36742 0.0
C171 C 0.45061 0.68897 0.13644 0.0
C172 C 0.54243 0.91266 0.30426 0.0
H173 H 0.48499 0.76748 0.92051 0.0
H174 H 0.30943 0.71487 0.05672 0.0
H175 H 0.5902 0.83133 0.02327 0.0
H176 H 0.60389 0.90247 0.99078 0.0
H177 H 0.60615 0.89337 0.10956 0.0
H178 H 0.32865 0.79048 0.18143 0.0
H179 H 0.34664 0.75566 0.25324 0.0
H180 H 0.40787 0.84867 0.24175 0.0
H181 H 0.37462 0.63485 0.28615 0.0
H182 H 0.44215 0.8206 0.42362 0.0
H183 H 0.4967 0.72255 0.09183 0.0
H184 H 0.40398 0.66152 0.09636 0.0
H185 H 0.44686 0.64841 0.1603 0.0
H186 H 0.58439 0.93721 0.25226 0.0
H187 H 0.56493 0.93262 0.37303 0.0
H188 H 0.51478 0.9283 0.2958 0.0
C189 C 0.25229 0.84177 0.48089 0.0
C190 C 0.20387 0.76928 0.48783 0.0
C191 C 0.23982 0.87268 0.42764 0.0
C192 C 0.17697 0.83027 0.38113 0.0
C193 C 0.12671 0.75744 0.39092 0.0
C194 C 0.14091 0.72785 0.44356 0.0
C195 C 0.29454 0.95061 0.41964 0.0
C196 C 0.05803 0.71065 0.34513 0.0
C197 C 0.11082 0.90932 0.3273 0.0
C198 C 0.12409 0.91873 0.23313 0.0
C199 C 0.12898 0.88208 0.37575 0.0
C200 C 0.16083 0.86241 0.32942 0.0
C201 C 0.17532 0.87205 0.23458 0.0
C202 C 0.15713 0.90061 0.18743 0.0
C203 C 0.115 0.87577 0.47729 0.0
C204 C 0.21021 0.85246 0.18327 0.0
H205 H 0.3016 0.87433 0.51333 0.0
H206 H 0.10329 0.67186 0.44806 0.0
H207 H 0.30887 0.96321 0.3471 0.0
H208 H 0.27437 0.97341 0.44639 0.0
H209 H 0.34167 0.97601 0.45733 0.0
H210 H 0.02378 0.65532 0.36134 0.0
H211 H 0.03153 0.72766 0.36652 0.0
H212 H 0.06597 0.71456 0.27032 0.0
H213 H 0.08648 0.92403 0.36463 0.0
H214 H 0.16829 0.90826 0.11523 0.0
H215 H 0.16409 0.91687 0.51351 0.0
H216 H 0.09274 0.82491 0.49853 0.0
H217 H 0.07946 0.88181 0.49998 0.0
H218 H 0.26144 0.88263 0.2124 0.0
H219 H 0.2171 0.86228 0.10978 0.0
H220 H 0.17953 0.79659 0.19053 0.0
C221 C 0.12839 0.42148 0.41208 0.0
C222 C 0.1805 0.44835 0.47281 0.0
C223 C 0.11474 0.37924 0.33497 0.0
C224 C 0.15148 0.35961 0.31959 0.0
C225 C 0.20598 0.38866 0.3792 0.0
C226 C 0.21942 0.43223 0.45474 0.0
C227 C 0.06111 0.35679 0.27012 0.0
C228 C 0.25357 0.378 0.36334 0.0
C229 C 0.04938 0.18477 0.1863 0.0
C230 C 0.09568 0.20164 0.11611 0.0
C231 C 0.06622 0.23544 0.25218 0.0
C232 C 0.12998 0.30607 0.24518 0.0
C233 C 0.17302 0.32418 0.16745 0.0
C234 C 0.15666 0.27144 0.10619 0.0
C235 C 0.01606 0.21042 0.33093 0.0
C236 C 0.23777 0.39855 0.14931 0.0
H237 H 0.09907 0.43508 0.4229 0.0
H238 H 0.26148 0.45463 0.49893 0.0
H239 H 0.06849 0.34348 0.20048 0.0
H240 H 1.00926 0.31077 0.29605 0.0
H241 H 0.06218 0.39852 0.26593 0.0
H242 H 0.26372 0.36902 0.42841 0.0
H243 H 0.23443 0.33498 0.31352 0.0
H244 H 0.30395 0.42653 0.33789 0.0
H245 H 1.00217 0.13066 0.19443 0.0
H246 H 0.19199 0.28473 0.05094 0.0
H247 H 0.99764 0.1618 0.35536 0.0
H248 H 0.97029 0.19739 0.30694 0.0
H249 H 0.03755 0.24856 0.38946 0.0
H250 H 0.23721 0.43628 0.18453 0.0
H251 H 0.24531 0.40671 0.07517 0.0
H252 H 0.28261 0.40962 0.17231 0.0
C253 C 0.57443 0.83607 0.47583 0.0
C254 C 0.52512 0.77079 0.51462 0.0
C255 C 0.62211 0.85048 0.40951 0.0
C256 C 0.62314 0.79955 0.38255 0.0
C257 C 0.57421 0.73363 0.42165 0.0
C258 C 0.52542 0.7198 0.48672 0.0
C259 C 0.67137 0.92047 0.36754 0.0
C260 C 0.57379 0.67798 0.39511 0.0
C261 C 0.74227 0.84879 0.1761 0.0
C262 C 0.80414 0.88357 0.21906 0.0
C263 C 0.68129 0.81694 0.22801 0.0
C264 C 0.68229 0.82039 0.32463 0.0
C265 C 0.7442 0.85387 0.36767 0.0
C266 C 0.80361 0.88488 0.31502 0.0
C267 C 0.61617 0.78107 0.1798 0.0
C268 C 0.74905 0.86068 0.47019 0.0
H269 H 0.57477 0.87602 0.49548 0.0
H270 H 0.48693 0.66881 0.51447 0.0
H271 H 0.72493 0.94452 0.36973 0.0
H272 H 0.65889 0.91346 0.29493 0.0
H273 H 0.6689 0.95703 0.40182 0.0
H274 H 0.53025 0.62825 0.42743 0.0
H275 H 0.57039 0.66833 0.32021 0.0
H276 H 0.6227 0.69577 0.41538 0.0
H277 H 0.74147 0.84661 0.10255 0.0
H278 H 0.85057 0.91171 0.35066 0.0
H279 H 0.60249 0.81129 0.19382 0.0
H280 H 0.57336 0.72869 0.20614 0.0
H281 H 0.62127 0.77576 0.10511 0.0
H282 H 0.7434 0.89616 0.49798 0.0
H283 H 0.79895 0.88174 0.49294 0.0
H284 H 0.70694 0.80949 0.50004 0.0
C285 C 0.72769 0.13281 0.46714 0.0
C286 C 0.77523 0.19903 0.43073 0.0
C287 C 0.74836 0.11179 0.52508 0.0
C288 C 0.81891 0.15673 0.54486 0.0
C289 C 0.86802 0.22056 0.50099 0.0
C290 C 0.84562 0.24129 0.44519 0.0
C291 C 0.69399 0.0431 0.56963 0.0
C292 C 0.94401 0.26879 0.51677 0.0
C293 C 0.86304 0.12871 0.76383 0.0
C294 C 0.87025 0.08356 0.73142 0.0
C295 C 0.84698 0.15376 0.70392 0.0
C296 C 0.84055 0.13517 0.60929 0.0
C297 C 0.85058 0.09188 0.57646 0.0
C298 C 0.86439 0.06617 0.63759 0.0
C299 C 0.83578 0.19913 0.74189 0.0
C300 C 0.8477 0.07341 0.47622 0.0
H301 H 0.6732 0.09928 0.45617 0.0
H302 H 0.88304 0.29261 0.41815 0.0
H303 H 0.70671 1.0118 0.56019 0.0
H304 H 0.69233 0.05281 0.64389 0.0
H305 H 0.64198 1.01192 0.54222 0.0
H306 H 0.97565 0.31049 0.46738 0.0
H307 H 0.95613 0.29353 0.5863 0.0
H308 H 0.95908 0.23955 0.51181 0.0
H309 H 0.86857 0.14323 0.83582 0.0
H310 H 0.87234 0.03332 0.61111 0.0
H311 H 0.78289 0.17376 0.72677 0.0
H312 H 0.87204 0.24961 0.70878 0.0
H313 H 0.84297 0.20929 0.81658 0.0
H314 H 0.84977 0.03369 0.46209 0.0
H315 H 0.89169 0.1209 0.44076 0.0
H316 H 0.80037 0.05408 0.44674 0.0
C317 C 0.84735 0.59918 0.45412 0.0
C318 C 0.77817 0.53784 0.4383 0.0
C319 C 0.86584 0.64993 0.52126 0.0
C320 C 0.81397 0.63877 0.5759 0.0
C321 C 0.7439 0.57817 0.55786 0.0
C322 C 0.72691 0.52953 0.48779 0.0
C323 C 0.94134 0.71482 0.53209 0.0
C324 C 0.68674 0.56293 0.61557 0.0
C325 C 0.86437 0.73552 0.80986 0.0
C326 C 0.8591 0.78247 0.79652 0.0
C327 C 0.84999 0.68845 0.73866 0.0
C328 C 0.83217 0.68999 0.65152 0.0
C329 C 0.83084 0.74015 0.63682 0.0
C330 C 0.84241 0.78419 0.70968 0.0
C331 C 0.85441 0.63744 0.75624 0.0
C332 C 0.81881 0.74855 0.54352 0.0
H333 H 0.8876 0.6068 0.41564 0.0
H334 H 0.67334 0.4826 0.47605 0.0
H335 H 0.95313 0.74746 0.59429 0.0
H336 H 0.97121 0.70078 0.53265 0.0
H337 H 0.95967 0.7466 0.47227 0.0
H338 H 0.6963 0.56619 0.68864 0.0
H339 H 0.68534 0.60225 0.60597 0.0
H340 H 0.63549 0.51062 0.59863 0.0
H341 H 0.87802 0.73443 0.87624 0.0
H342 H 0.83945 0.82115 0.69791 0.0
H343 H 0.80822 0.58476 0.72993 0.0
H344 H 0.85915 0.63567 0.82968 0.0
H345 H 0.89979 0.65222 0.71917 0.0
H346 H 0.85564 0.7555 0.4936 0.0
H347 H 0.82495 0.7938 0.5419 0.0
H348 H 0.76627 0.70112 0.52096 0.0
C349 C 0.42462 0.18045 0.53748 0.0
C350 C 0.48564 0.20999 0.57762 0.0
C351 C 0.36601 0.1528 0.59131 0.0
C352 C 0.36931 0.15743 0.68745 0.0
C353 C 0.43031 0.1854 0.72806 0.0
C354 C 0.48734 0.21068 0.67265 0.0
C355 C 0.30055 0.11905 0.54549 0.0
C356 C 0.43703 0.19099 0.8299 0.0
C357 C 0.25593 0.1751 0.81752 0.0
C358 C 0.1983 0.10663 0.84071 0.0
C359 C 0.31207 0.19218 0.76905 0.0
C360 C 0.31163 0.13988 0.74465 0.0
C361 C 0.25553 0.07137 0.77264 0.0
C362 C 0.19922 0.05539 0.81975 0.0
C363 C 0.37175 0.2662 0.743 0.0
C364 C 0.25474 1.01496 0.75209 0.0
H365 H 0.42236 0.17787 0.46405 0.0
H366 H 0.53401 0.23245 0.70433 0.0
H367 H 0.28405 0.14569 0.57005 0.0
H368 H 0.30648 0.12018 0.47028 0.0
H369 H 0.25884 0.06406 0.56381 0.0
H370 H 0.46082 0.24354 0.85598 0.0
H371 H 0.38671 0.15186 0.86531 0.0
H372 H 0.47116 0.18451 0.84781 0.0
H373 H 0.25673 0.21537 0.83611 0.0
H374 H 0.15512 1.00232 0.83785 0.0
H375 H 0.38241 0.2679 0.66892 0.0
H376 H 0.41864 0.28755 0.77687 0.0
H377 H 0.36255 0.30002 0.76186 0.0
H378 H 0.25301 1.00414 0.6776 0.0
H379 H 0.20991 0.9658 0.78443 0.0
H380 H 0.30269 0.03243 0.77636 0.0
C381 C 0.49363 0.37646 0.07758 0.0
C382 C 0.4892 0.38534 0.17182 0.0
C383 C 0.48462 0.40625 0.01613 0.0
C384 C 0.46603 0.44228 0.04903 0.0
C385 C 0.46011 0.45043 0.14465 0.0
C386 C 0.47365 0.42341 0.20511 0.0
C387 C 0.49797 0.40157 0.91618 0.0
C388 C 0.44141 0.4892 0.18374 0.0
C389 C 0.48255 0.56111 0.89585 0.0
C390 C 0.41495 0.51738 0.86517 0.0
C391 C 0.50046 0.53727 0.95426 0.0
C392 C 0.44967 0.46806 0.98283 0.0
C393 C 0.38261 0.42255 0.94728 0.0
C394 C 0.3661 0.44768 0.88933 0.0
C395 C 0.57302 0.58712 0.98845 0.0
C396 C 0.32732 0.34785 0.97355 0.0
H397 H 0.50649 0.34774 0.05175 0.0
H398 H 0.4716 0.43159 0.27794 0.0
H399 H 0.45616 0.38578 0.87498 0.0
H400 H 0.54626 0.45367 0.89488 0.0
H401 H 0.5036 0.36464 0.90048 0.0
H402 H 0.41881 0.47316 0.25338 0.0
H403 H 0.48863 0.5457 0.18803 0.0
H404 H 0.40452 0.48107 0.14036 0.0
H405 H 0.5205 0.61527 0.87899 0.0
H406 H 0.31372 0.41338 0.8662 0.0
H407 H 0.59295 0.56242 0.98243 0.0
H408 H 0.5733 0.60107 0.06148 0.0
H409 H 0.60848 0.6357 0.95081 0.0
H410 H 0.34489 0.32119 0.9583 0.0
H411 H 0.27869 0.31838 0.93702 0.0
H412 H 0.31687 0.34627 0.0479 0.0
C413 C 0.37898 0.83788 0.89507 0.0
C414 C 0.43011 0.85629 0.83234 0.0
C415 C 0.39276 0.88573 0.96378 0.0
C416 C 0.45849 0.95534 0.96714 0.0
C417 C 0.50808 0.97565 0.89781 0.0
C418 C 0.4942 0.92532 0.83373 0.0
C419 C 0.33657 0.86059 0.03302 0.0
C420 C 0.57606 0.05006 0.88909 0.0
C421 C 0.45769 0.07387 0.12949 0.0
C422 C 0.50341 0.09419 0.19693 0.0
C423 C 0.44524 0.03197 0.05246 0.0
C424 C 0.47556 1.00521 0.04481 0.0
C425 C 0.52082 0.02456 0.11395 0.0
C426 C 0.5352 0.06978 0.18784 0.0
C427 C 0.40132 0.01942 0.97906 0.0
C428 C 0.55508 0.99841 0.10981 0.0
H429 H 0.32934 0.78443 0.89433 0.0
H430 H 0.53376 0.9401 0.78463 0.0
H431 H 0.35755 0.88545 0.10154 0.0
H432 H 0.30863 0.87361 0.01174 0.0
H433 H 0.29829 0.80325 0.03769 0.0
H434 H 0.58268 0.06568 0.81867 0.0
H435 H 0.58104 0.08746 0.93682 0.0
H436 H 0.61873 0.0541 0.89995 0.0
H437 H 0.4338 0.09352 0.1343 0.0
H438 H 0.57141 0.08608 0.23875 0.0
H439 H 0.34752 0.98613 0.00492 0.0
H440 H 0.40185 0.99483 0.91525 0.0
H441 H 0.41934 0.06954 0.96281 0.0
H442 H 0.58001 1.00959 0.17464 0.0
H443 H 0.59568 0.02443 0.05605 0.0
H444 H 0.51715 0.94177 0.0928 0.0
C445 C 0.04024 0.47332 0.79627 0.0
C446 C 0.10439 0.50892 0.83218 0.0
C447 C 0.98485 0.45111 0.85396 0.0
C448 C 0.99431 0.46518 0.94948 0.0
C449 C 0.05868 0.49915 0.98563 0.0
C450 C 0.11279 0.52079 0.92651 0.0
C451 C 0.91588 0.41043 0.81248 0.0
C452 C 0.06995 0.51093 0.08698 0.0
C453 C 0.88336 0.48246 0.08998 0.0
C454 C 0.83075 0.41574 0.12294 0.0
C455 C 0.93743 0.4994 0.03513 0.0
C456 C 0.93859 0.44809 0.01141 0.0
C457 C 0.88704 0.38138 0.04742 0.0
C458 C 0.83376 0.36604 0.10285 0.0
C459 C 0.9932 0.57233 0.00227 0.0
C460 C 0.88739 0.32578 0.02659 0.0
H461 H 0.0331 0.46183 0.72355 0.0
H462 H 0.1618 0.54631 0.95434 0.0
H463 H 0.921 0.41924 0.73888 0.0
H464 H 0.88338 0.35414 0.81925 0.0
H465 H 0.88859 0.42365 0.84772 0.0
H466 H 0.06241 0.54453 0.1164 0.0
H467 H 0.03157 0.46056 0.12029 0.0
H468 H 0.12233 0.53562 0.10411 0.0
H469 H 0.88197 0.52148 0.10647 0.0
H470 H 0.79334 0.31442 0.12832 0.0
H471 H 1.00298 0.57101 0.92817 0.0
H472 H 0.04191 0.59995 0.03703 0.0
H473 H 0.97993 0.60306 0.01611 0.0
H474 H 0.87025 0.30434 0.95597 0.0
H475 H 0.85234 0.28228 0.07308 0.0
H476 H 0.94002 0.34763 0.03173 0.0
loop_
_geom_bond_atom_site_label_1
_geom_bond_atom_site_label_2
_geom_bond_distance
_geom_bond_site_symmetry_2
_ccdc_geom_bond_type
C0 O27 1.312 . S
C0 O28 1.208 . S
C1 O22 1.331 1_565 S
C1 O25 1.244 1_455 S
C2 O24 1.264 . S
C2 O26 1.273 . S
Mg3 O5 1.936 1_455 S
Mg3 O12 2.081 . S
Mg3 O14 2.023 1_455 S
Mg3 O18 2.031 . S
Mg3 O27 2.291 1_556 S
Mg4 O5 1.963 1_565 S
Mg4 O15 1.942 . S
Mg4 O16 1.955 1_565 S
Mg4 O23 1.986 . S
O5 Mg3 1.936 1_655 S
O5 Mg4 1.963 1_545 S
O5 Mg6 1.915 1_546 S
Mg6 O5 1.915 1_564 S
Mg6 O7 1.915 1_655 S
Mg6 O11 2.013 . S
Mg6 O17 2.114 1_664 S
Mg6 O21 2.013 1_554 S
Mg6 O27 2.114 1_665 S
O7 Mg6 1.915 1_455 S
O7 Mg8 1.936 1_565 S
O7 Mg9 1.963 1_455 S
Mg8 O7 1.936 1_545 S
Mg8 O17 2.291 1_554 S
Mg8 O22 2.081 . S
Mg8 O24 2.023 1_545 S
Mg8 O28 2.031 . S
Mg9 O7 1.963 1_655 S
Mg9 O13 1.986 . S
Mg9 O25 1.942 . S
Mg9 O26 1.955 1_655 S
C10 O21 1.191 . S
C10 O23 1.307 . S
O11 Mg6 2.013 . S
O11 C30 1.191 . S
O12 Mg3 2.081 . S
O12 C20 1.331 1_455 S
O13 Mg9 1.986 . S
O13 C30 1.307 . S
O14 Mg3 2.023 1_655 S
O14 C29 1.264 . S
O15 Mg4 1.942 . S
O15 C20 1.244 1_565 S
O16 Mg4 1.955 1_545 S
O16 C29 1.273 . S
O17 Mg6 2.114 1_446 S
O17 Mg8 2.291 1_556 S
O17 C19 1.312 . S
O18 Mg3 2.031 . S
O18 C19 1.208 . S
C19 O17 1.312 . S
C19 O18 1.208 . S
C20 O12 1.331 1_655 S
C20 O15 1.244 1_545 S
O21 Mg6 2.013 1_556 S
O21 C10 1.191 . S
O22 C1 1.331 1_545 S
O22 Mg8 2.081 . S
O23 Mg4 1.986 . S
O23 C10 1.307 . S
O24 C2 1.264 . S
O24 Mg8 2.023 1_565 S
O25 C1 1.244 1_655 S
O25 Mg9 1.942 . S
O26 C2 1.273 . S
O26 Mg9 1.955 1_455 S
O27 C0 1.312 . S
O27 Mg3 2.291 1_554 S
O27 Mg6 2.114 1_445 S
O28 C0 1.208 . S
O28 Mg8 2.031 . S
C29 O14 1.264 . S
C29 O16 1.273 . S
C30 O11 1.191 . S
C30 O13 1.307 . S
C31 O58 1.312 . S
C31 O59 1.208 . S
C32 O53 1.331 . S
C32 O56 1.244 . S
C33 O55 1.264 . S
C33 O57 1.273 . S
Mg34 O36 1.936 . S
Mg34 O43 2.081 . S
Mg34 O45 2.023 . S
Mg34 O49 2.031 . S
Mg34 O58 2.291 . S
Mg35 O36 1.963 . S
Mg35 O46 1.942 . S
Mg35 O47 1.955 . S
Mg35 O54 1.986 . S
O36 Mg34 1.936 . S
O36 Mg35 1.963 . S
O36 Mg37 1.915 . S
Mg37 O36 1.915 . S
Mg37 O38 1.915 . S
Mg37 O42 2.013 . S
Mg37 O48 2.114 . S
Mg37 O52 2.013 . S
Mg37 O58 2.114 . S
O38 Mg37 1.915 . S
O38 Mg39 1.936 . S
O38 Mg40 1.963 . S
Mg39 O38 1.936 . S
Mg39 O48 2.291 . S
Mg39 O53 2.081 . S
Mg39 O55 2.023 . S
Mg39 O59 2.031 . S
Mg40 O38 1.963 . S
Mg40 O44 1.986 . S
Mg40 O56 1.942 . S
Mg40 O57 1.955 . S
C41 O52 1.191 . S
C41 O54 1.307 . S
O42 Mg37 2.013 . S
O42 C61 1.191 . S
O43 Mg34 2.081 . S
O43 C51 1.331 . S
O44 Mg40 1.986 . S
O44 C61 1.307 . S
O45 Mg34 2.023 . S
O45 C60 1.264 . S
O46 Mg35 1.942 . S
O46 C51 1.244 . S
O47 Mg35 1.955 . S
O47 C60 1.273 . S
O48 Mg37 2.114 . S
O48 Mg39 2.291 . S
O48 C50 1.312 . S
O49 Mg34 2.031 . S
O49 C50 1.208 . S
C50 O48 1.312 . S
C50 O49 1.208 . S
C51 O43 1.331 . S
C51 O46 1.244 . S
O52 Mg37 2.013 . S
O52 C41 1.191 . S
O53 C32 1.331 . S
O53 Mg39 2.081 . S
O54 Mg35 1.986 . S
O54 C41 1.307 . S
O55 C33 1.264 . S
O55 Mg39 2.023 . S
O56 C32 1.244 . S
O56 Mg40 1.942 . S
O57 C33 1.273 . S
O57 Mg40 1.955 . S
O58 C31 1.312 . S
O58 Mg34 2.291 . S
O58 Mg37 2.114 . S
O59 C31 1.208 . S
O59 Mg39 2.031 . S
C60 O45 1.264 . S
C60 O47 1.273 . S
C61 O42 1.191 . S
C61 O44 1.307 . S
C62 O89 1.312 . S
C62 O90 1.208 . S
C63 O84 1.331 . S
C63 O87 1.244 . S
C64 O86 1.264 . S
C64 O88 1.273 . S
Mg65 O67 1.936 . S
Mg65 O74 2.081 . S
Mg65 O76 2.023 . S
Mg65 O80 2.031 . S
Mg65 O89 2.291 . S
Mg66 O67 1.963 . S
Mg66 O77 1.942 . S
Mg66 O78 1.955 . S
Mg66 O85 1.986 . S
O67 Mg65 1.936 . S
O67 Mg66 1.963 . S
O67 Mg68 1.915 . S
Mg68 O67 1.915 . S
Mg68 O69 1.915 . S
Mg68 O73 2.013 . S
Mg68 O79 2.114 . S
Mg68 O83 2.013 . S
Mg68 O89 2.114 . S
O69 Mg68 1.915 . S
O69 Mg70 1.936 . S
O69 Mg71 1.963 . S
Mg70 O69 1.936 . S
Mg70 O79 2.291 . S
Mg70 O84 2.081 . S
Mg70 O86 2.023 . S
Mg70 O90 2.031 . S
Mg71 O69 1.963 . S
Mg71 O75 1.986 . S
Mg71 O87 1.942 . S
Mg71 O88 1.955 . S
C72 O83 1.191 . S
C72 O85 1.307 . S
O73 Mg68 2.013 . S
O73 C92 1.191 . S
O74 Mg65 2.081 . S
O74 C82 1.331 . S
O75 Mg71 1.986 . S
O75 C92 1.307 . S
O76 Mg65 2.023 . S
O76 C91 1.264 . S
O77 Mg66 1.942 . S
O77 C82 1.244 . S
O78 Mg66 1.955 . S
O78 C91 1.273 . S
O79 Mg68 2.114 . S
O79 Mg70 2.291 . S
O79 C81 1.312 . S
O80 Mg65 2.031 . S
O80 C81 1.208 . S
C81 O79 1.312 . S
C81 O80 1.208 . S
C82 O74 1.331 . S
C82 O77 1.244 . S
O83 Mg68 2.013 . S
O83 C72 1.191 . S
O84 C63 1.331 . S
O84 Mg70 2.081 . S
O85 Mg66 1.986 . S
O85 C72 1.307 . S
O86 C64 1.264 . S
O86 Mg70 2.023 . S
O87 C63 1.244 . S
O87 Mg71 1.942 . S
O88 C64 1.273 . S
O88 Mg71 1.955 . S
O89 C62 1.312 . S
O89 Mg65 2.291 . S
O89 Mg68 2.114 . S
O90 C62 1.208 . S
O90 Mg70 2.031 . S
C91 O76 1.264 . S
C91 O78 1.273 . S
C92 O73 1.191 . S
C92 O75 1.307 . S
C93 C94 1.391 1_565 S
C93 C95 1.393 1_655 S
C93 H109 0.931 . S
C94 C93 1.391 1_545 S
C94 C98 1.376 . S
C95 C93 1.393 1_455 S
C95 C96 1.365 1_465 S
C95 C99 1.535 . S
C96 C95 1.365 1_645 S
C96 C97 1.410 . S
C96 C104 1.503 1_655 S
C97 C96 1.410 . S
C97 C98 1.392 . S
C97 C100 1.511 . S
C98 C94 1.376 . S
C98 C97 1.392 . S
C98 H110 0.929 . S
C99 C95 1.535 . S
C99 H111 0.960 1_455 S
C99 H112 0.962 . S
C99 H113 0.960 1_455 S
C100 C97 1.511 . S
C100 H114 0.959 . S
C100 H115 0.961 1_655 S
C100 H116 0.961 . S
C101 C102 1.370 1_545 S
C101 C103 1.363 . S
C101 H117 0.931 . S
C102 C101 1.370 1_565 S
C102 C106 1.408 1_455 S
C103 C101 1.363 . S
C103 C104 1.370 . S
C103 C107 1.524 . S
C104 C96 1.503 1_455 S
C104 C103 1.370 . S
C104 C105 1.403 1_445 S
C105 C104 1.403 1_665 S
C105 C106 1.404 . S
C105 C108 1.539 . S
C106 C102 1.408 1_655 S
C106 C105 1.404 . S
C106 H118 0.930 . S
C107 C103 1.524 . S
C107 H119 0.956 . S
C107 H120 0.961 . S
C107 H121 0.961 . S
C108 C105 1.539 . S
C108 H122 0.958 . S
C108 H123 0.961 . S
C108 H124 0.960 . S
H109 C93 0.931 . S
H110 C98 0.929 . S
H111 C99 0.960 1_655 S
H112 C99 0.962 . S
H113 C99 0.960 1_655 S
H114 C100 0.959 . S
H115 C100 0.961 1_455 S
H116 C100 0.961 . S
H117 C101 0.931 . S
H118 C106 0.930 . S
H119 C107 0.956 . S
H120 C107 0.961 . S
H121 C107 0.961 . S
H122 C108 0.958 . S
H123 C108 0.961 . S
H124 C108 0.960 . S
C125 C126 1.391 . S
C125 C127 1.394 . S
C125 H141 0.931 . S
C126 C125 1.391 . S
C126 C130 1.376 . S
C127 C125 1.394 . S
C127 C128 1.369 . S
C127 C131 1.531 . S
C128 C127 1.369 . S
C128 C129 1.410 . S
C128 C136 1.503 . S
C129 C128 1.410 . S
C129 C130 1.392 . S
C129 C132 1.511 . S
C130 C126 1.376 . S
C130 C129 1.392 . S
C130 H142 0.929 . S
C131 C127 1.531 . S
C131 H143 0.960 . S
C131 H144 0.962 . S
C131 H145 0.960 . S
C132 C129 1.511 . S
C132 H146 0.961 . S
C132 H147 0.961 . S
C132 H148 0.961 . S
C133 C134 1.370 . S
C133 C135 1.363 1_554 S
C133 H149 0.931 . S
C134 C133 1.370 . S
C134 C138 1.408 . S
C135 C133 1.363 1_556 S
C135 C136 1.370 . S
C135 C139 1.524 . S
C136 C128 1.503 . S
C136 C135 1.370 . S
C136 C137 1.403 . S
C137 C136 1.403 . S
C137 C138 1.404 1_556 S
C137 C140 1.539 . S
C138 C134 1.408 . S
C138 C137 1.404 1_554 S
C138 H150 0.930 . S
C139 C135 1.524 . S
C139 H151 0.956 . S
C139 H152 0.961 . S
C139 H153 0.961 . S
C140 C137 1.539 . S
C140 H154 0.958 . S
C140 H155 0.961 . S
C140 H156 0.960 . S
H141 C125 0.931 . S
H142 C130 0.929 . S
H143 C131 0.960 . S
H144 C131 0.962 . S
H145 C131 0.960 . S
H146 C132 0.961 . S
H147 C132 0.961 . S
H148 C132 0.961 . S
H149 C133 0.931 . S
H150 C138 0.930 . S
H151 C139 0.956 . S
H152 C139 0.961 . S
H153 C139 0.961 . S
H154 C140 0.958 . S
H155 C140 0.961 . S
H156 C140 0.960 . S
C157 C158 1.391 . S
C157 C159 1.394 1_556 S
C157 H173 0.931 . S
C158 C157 1.391 . S
C158 C162 1.376 . S
C159 C157 1.394 1_554 S
C159 C160 1.369 . S
C159 C163 1.531 . S
C160 C159 1.369 . S
C160 C161 1.410 . S
C160 C168 1.503 . S
C161 C160 1.410 . S
C161 C162 1.392 1_554 S
C161 C164 1.511 . S
C162 C158 1.376 . S
C162 C161 1.392 1_556 S
C162 H174 0.929 . S
C163 C159 1.531 . S
C163 H175 0.960 . S
C163 H176 0.962 . S
C163 H177 0.960 . S
C164 C161 1.511 . S
C164 H178 0.961 . S
C164 H179 0.961 . S
C164 H180 0.961 . S
C165 C166 1.370 . S
C165 C167 1.363 . S
C165 H181 0.931 . S
C166 C165 1.370 . S
C166 C170 1.408 . S
C167 C165 1.363 . S
C167 C168 1.370 . S
C167 C171 1.524 . S
C168 C160 1.503 . S
C168 C167 1.370 . S
C168 C169 1.403 . S
C169 C168 1.403 . S
C169 C170 1.404 . S
C169 C172 1.539 . S
C170 C166 1.408 . S
C170 C169 1.404 . S
C170 H182 0.930 . S
C171 C167 1.524 . S
C171 H183 0.956 . S
C171 H184 0.961 . S
C171 H185 0.961 . S
C172 C169 1.539 . S
C172 H186 0.958 . S
C172 H187 0.961 . S
C172 H188 0.960 . S
H173 C157 0.931 . S
H174 C162 0.929 . S
H175 C163 0.960 . S
H176 C163 0.962 . S
H177 C163 0.960 . S
H178 C164 0.961 . S
H179 C164 0.961 . S
H180 C164 0.961 . S
H181 C165 0.931 . S
H182 C170 0.930 . S
H183 C171 0.956 . S
H184 C171 0.961 . S
H185 C171 0.961 . S
H186 C172 0.958 . S
H187 C172 0.961 . S
H188 C172 0.960 . S
C189 C190 1.391 . S
C189 C191 1.394 . S
C189 H205 0.931 . S
C190 C189 1.391 . S
C190 C194 1.376 . S
C191 C189 1.394 . S
C191 C192 1.369 . S
C191 C195 1.531 . S
C192 C191 1.369 . S
C192 C193 1.410 . S
C192 C200 1.503 . S
C193 C192 1.410 . S
C193 C194 1.392 . S
C193 C196 1.511 . S
C194 C190 1.376 . S
C194 C193 1.392 . S
C194 H206 0.929 . S
C195 C191 1.531 . S
C195 H207 0.960 . S
C195 H208 0.962 . S
C195 H209 0.960 . S
C196 C193 1.511 . S
C196 H210 0.961 . S
C196 H211 0.961 . S
C196 H212 0.961 . S
C197 C198 1.370 . S
C197 C199 1.363 . S
C197 H213 0.931 . S
C198 C197 1.370 . S
C198 C202 1.408 . S
C199 C197 1.363 . S
C199 C200 1.370 . S
C199 C203 1.524 . S
C200 C192 1.503 . S
C200 C199 1.370 . S
C200 C201 1.403 . S
C201 C200 1.403 . S
C201 C202 1.404 . S
C201 C204 1.539 . S
C202 C198 1.408 . S
C202 C201 1.404 . S
C202 H214 0.930 . S
C203 C199 1.524 . S
C203 H215 0.956 . S
C203 H216 0.961 . S
C203 H217 0.961 . S
C204 C201 1.539 . S
C204 H218 0.958 . S
C204 H219 0.961 . S
C204 H220 0.960 . S
H205 C189 0.931 . S
H206 C194 0.929 . S
H207 C195 0.960 . S
H208 C195 0.962 . S
H209 C195 0.960 . S
H210 C196 0.961 . S
H211 C196 0.961 . S
H212 C196 0.961 . S
H213 C197 0.931 . S
H214 C202 0.930 . S
H215 C203 0.956 . S
H216 C203 0.961 . S
H217 C203 0.961 . S
H218 C204 0.958 . S
H219 C204 0.961 . S
H220 C204 0.960 . S
C221 C222 1.391 . S
C221 C223 1.394 . S
C221 H237 0.931 . S
C222 C221 1.391 . S
C222 C226 1.376 . S
C223 C221 1.394 . S
C223 C224 1.369 . S
C223 C227 1.531 . S
C224 C223 1.369 . S
C224 C225 1.410 . S
C224 C232 1.503 . S
C225 C224 1.410 . S
C225 C226 1.392 . S
C225 C228 1.511 . S
C226 C222 1.376 . S
C226 C225 1.392 . S
C226 H238 0.929 . S
C227 C223 1.531 . S
C227 H239 0.960 . S
C227 H240 0.962 . S
C227 H241 0.960 . S
C228 C225 1.511 . S
C228 H242 0.961 . S
C228 H243 0.961 . S
C228 H244 0.961 . S
C229 C230 1.370 . S
C229 C231 1.363 . S
C229 H245 0.931 . S
C230 C229 1.370 . S
C230 C234 1.408 . S
C231 C229 1.363 . S
C231 C232 1.370 . S
C231 C235 1.524 . S
C232 C224 1.503 . S
C232 C231 1.370 . S
C232 C233 1.403 . S
C233 C232 1.403 . S
C233 C234 1.404 . S
C233 C236 1.539 . S
C234 C230 1.408 . S
C234 C233 1.404 . S
C234 H246 0.930 . S
C235 C231 1.524 . S
C235 H247 0.956 . S
C235 H248 0.961 . S
C235 H249 0.961 . S
C236 C233 1.539 . S
C236 H250 0.958 . S
C236 H251 0.961 . S
C236 H252 0.960 . S
H237 C221 0.931 . S
H238 C226 0.929 . S
H239 C227 0.960 . S
H240 C227 0.962 . S
H241 C227 0.960 . S
H242 C228 0.961 . S
H243 C228 0.961 . S
H244 C228 0.961 . S
H245 C229 0.931 . S
H246 C234 0.930 . S
H247 C235 0.956 . S
H248 C235 0.961 . S
H249 C235 0.961 . S
H250 C236 0.958 . S
H251 C236 0.961 . S
H252 C236 0.960 . S
C253 C254 1.391 . S
C253 C255 1.394 . S
C253 H269 0.931 . S
C254 C253 1.391 . S
C254 C258 1.376 . S
C255 C253 1.394 . S
C255 C256 1.369 . S
C255 C259 1.531 . S
C256 C255 1.369 . S
C256 C257 1.410 . S
C256 C264 1.503 . S
C257 C256 1.410 . S
C257 C258 1.392 . S
C257 C260 1.511 . S
C258 C254 1.376 . S
C258 C257 1.392 . S
C258 H270 0.929 . S
C259 C255 1.531 . S
C259 H271 0.960 . S
C259 H272 0.962 . S
C259 H273 0.960 . S
C260 C257 1.511 . S
C260 H274 0.961 . S
C260 H275 0.961 . S
C260 H276 0.961 . S
C261 C262 1.370 . S
C261 C263 1.363 . S
C261 H277 0.931 . S
C262 C261 1.370 . S
C262 C266 1.408 . S
C263 C261 1.363 . S
C263 C264 1.370 . S
C263 C267 1.524 . S
C264 C256 1.503 . S
C264 C263 1.370 . S
C264 C265 1.403 . S
C265 C264 1.403 . S
C265 C266 1.404 . S
C265 C268 1.539 . S
C266 C262 1.408 . S
C266 C265 1.404 . S
C266 H278 0.930 . S
C267 C263 1.524 . S
C267 H279 0.956 . S
C267 H280 0.961 . S
C267 H281 0.961 . S
C268 C265 1.539 . S
C268 H282 0.958 . S
C268 H283 0.961 1_565 S
C268 H284 0.960 . S
H269 C253 0.931 . S
H270 C258 0.929 . S
H271 C259 0.960 . S
H272 C259 0.962 . S
H273 C259 0.960 . S
H274 C260 0.961 . S
H275 C260 0.961 . S
H276 C260 0.961 . S
H277 C261 0.931 . S
H278 C266 0.930 . S
H279 C267 0.956 . S
H280 C267 0.961 . S
H281 C267 0.961 . S
H282 C268 0.958 . S
H283 C268 0.961 1_545 S
H284 C268 0.960 . S
C285 C286 1.391 . S
C285 C287 1.394 . S
C285 H301 0.931 . S
C286 C285 1.391 . S
C286 C290 1.376 . S
C287 C285 1.394 . S
C287 C288 1.369 . S
C287 C291 1.531 . S
C288 C287 1.369 . S
C288 C289 1.410 . S
C288 C296 1.503 . S
C289 C288 1.410 . S
C289 C290 1.392 . S
C289 C292 1.511 . S
C290 C286 1.376 . S
C290 C289 1.392 . S
C290 H302 0.929 . S
C291 C287 1.531 . S
C291 H303 0.960 . S
C291 H304 0.962 . S
C291 H305 0.960 . S
C292 C289 1.511 . S
C292 H306 0.961 . S
C292 H307 0.961 . S
C292 H308 0.961 . S
C293 C294 1.370 . S
C293 C295 1.363 . S
C293 H309 0.931 . S
C294 C293 1.370 . S
C294 C298 1.408 . S
C295 C293 1.363 . S
C295 C296 1.370 . S
C295 C299 1.524 . S
C296 C288 1.503 . S
C296 C295 1.370 . S
C296 C297 1.403 . S
C297 C296 1.403 . S
C297 C298 1.404 . S
C297 C300 1.539 . S
C298 C294 1.408 . S
C298 C297 1.404 . S
C298 H310 0.930 . S
C299 C295 1.524 . S
C299 H311 0.956 . S
C299 H312 0.961 . S
C299 H313 0.961 . S
C300 C297 1.539 . S
C300 H314 0.958 . S
C300 H315 0.961 . S
C300 H316 0.960 . S
H301 C285 0.931 . S
H302 C290 0.929 . S
H303 C291 0.960 . S
H304 C291 0.962 . S
H305 C291 0.960 . S
H306 C292 0.961 . S
H307 C292 0.961 . S
H308 C292 0.961 . S
H309 C293 0.931 . S
H310 C298 0.930 . S
H311 C299 0.956 . S
H312 C299 0.961 . S
H313 C299 0.961 . S
H314 C300 0.958 . S
H315 C300 0.961 . S
H316 C300 0.960 . S
C317 C318 1.391 . S
C317 C319 1.394 . S
C317 H333 0.931 . S
C318 C317 1.391 . S
C318 C322 1.376 . S
C319 C317 1.394 . S
C319 C320 1.369 . S
C319 C323 1.531 . S
C320 C319 1.369 . S
C320 C321 1.410 . S
C320 C328 1.503 . S
C321 C320 1.410 . S
C321 C322 1.392 . S
C321 C324 1.511 . S
C322 C318 1.376 . S
C322 C321 1.392 . S
C322 H334 0.929 . S
C323 C319 1.531 . S
C323 H335 0.960 . S
C323 H336 0.962 . S
C323 H337 0.960 . S
C324 C321 1.511 . S
C324 H338 0.961 . S
C324 H339 0.961 . S
C324 H340 0.961 . S
C325 C326 1.370 . S
C325 C327 1.363 . S
C325 H341 0.931 . S
C326 C325 1.370 . S
C326 C330 1.408 . S
C327 C325 1.363 . S
C327 C328 1.370 . S
C327 C331 1.524 . S
C328 C320 1.503 . S
C328 C327 1.370 . S
C328 C329 1.403 . S
C329 C328 1.403 . S
C329 C330 1.404 . S
C329 C332 1.539 . S
C330 C326 1.408 . S
C330 C329 1.404 . S
C330 H342 0.930 . S
C331 C327 1.524 . S
C331 H343 0.956 . S
C331 H344 0.961 . S
C331 H345 0.961 . S
C332 C329 1.539 . S
C332 H346 0.958 . S
C332 H347 0.961 . S
C332 H348 0.960 . S
H333 C317 0.931 . S
H334 C322 0.929 . S
H335 C323 0.960 . S
H336 C323 0.962 . S
H337 C323 0.960 . S
H338 C324 0.961 . S
H339 C324 0.961 . S
H340 C324 0.961 . S
H341 C325 0.931 . S
H342 C330 0.930 . S
H343 C331 0.956 . S
H344 C331 0.961 . S
H345 C331 0.961 . S
H346 C332 0.958 . S
H347 C332 0.961 . S
H348 C332 0.960 . S
C349 C350 1.391 . S
C349 C351 1.394 . S
C349 H365 0.931 . S
C350 C349 1.391 . S
C350 C354 1.376 . S
C351 C349 1.394 . S
C351 C352 1.369 . S
C351 C355 1.531 . S
C352 C351 1.369 . S
C352 C353 1.410 . S
C352 C360 1.503 . S
C353 C352 1.410 . S
C353 C354 1.392 . S
C353 C356 1.511 . S
C354 C350 1.376 . S
C354 C353 1.392 . S
C354 H366 0.929 . S
C355 C351 1.531 . S
C355 H367 0.960 . S
C355 H368 0.962 . S
C355 H369 0.960 . S
C356 C353 1.511 . S
C356 H370 0.961 . S
C356 H371 0.961 . S
C356 H372 0.961 . S
C357 C358 1.370 . S
C357 C359 1.363 . S
C357 H373 0.931 . S
C358 C357 1.370 . S
C358 C362 1.408 . S
C359 C357 1.363 . S
C359 C360 1.370 . S
C359 C363 1.524 . S
C360 C352 1.503 . S
C360 C359 1.370 . S
C360 C361 1.403 . S
C361 C360 1.403 . S
C361 C362 1.404 . S
C361 C364 1.539 . S
C362 C358 1.408 . S
C362 C361 1.404 . S
C362 H374 0.930 . S
C363 C359 1.524 . S
C363 H375 0.956 . S
C363 H376 0.961 . S
C363 H377 0.961 . S
C364 C361 1.539 . S
C364 H378 0.958 . S
C364 H379 0.961 . S
C364 H380 0.960 . S
H365 C349 0.931 . S
H366 C354 0.929 . S
H367 C355 0.960 . S
H368 C355 0.962 . S
H369 C355 0.960 . S
H370 C356 0.961 . S
H371 C356 0.961 . S
H372 C356 0.961 . S
H373 C357 0.931 . S
H374 C362 0.930 . S
H375 C363 0.956 . S
H376 C363 0.961 . S
H377 C363 0.961 . S
H378 C364 0.958 . S
H379 C364 0.961 . S
H380 C364 0.960 . S
C381 C382 1.391 . S
C381 C383 1.394 1_554 S
C381 H397 0.931 . S
C382 C381 1.391 . S
C382 C386 1.376 . S
C383 C381 1.394 1_556 S
C383 C384 1.369 1_556 S
C383 C387 1.531 . S
C384 C383 1.369 1_554 S
C384 C385 1.410 . S
C384 C392 1.503 1_554 S
C385 C384 1.410 . S
C385 C386 1.392 . S
C385 C388 1.511 . S
C386 C382 1.376 . S
C386 C385 1.392 . S
C386 H398 0.929 . S
C387 C383 1.531 . S
C387 H399 0.960 . S
C387 H400 0.962 . S
C387 H401 0.960 . S
C388 C385 1.511 . S
C388 H402 0.961 . S
C388 H403 0.961 . S
C388 H404 0.961 . S
C389 C390 1.370 . S
C389 C391 1.363 . S
C389 H405 0.931 . S
C390 C389 1.370 . S
C390 C394 1.408 . S
C391 C389 1.363 . S
C391 C392 1.370 . S
C391 C395 1.524 . S
C392 C384 1.503 1_556 S
C392 C391 1.370 . S
C392 C393 1.403 . S
C393 C392 1.403 . S
C393 C394 1.404 . S
C393 C396 1.539 . S
C394 C390 1.408 . S
C394 C393 1.404 . S
C394 H406 0.930 . S
C395 C391 1.524 . S
C395 H407 0.956 . S
C395 H408 0.961 1_556 S
C395 H409 0.961 . S
C396 C393 1.539 . S
C396 H410 0.958 . S
C396 H411 0.961 . S
C396 H412 0.960 1_556 S
H397 C381 0.931 . S
H398 C386 0.929 . S
H399 C387 0.960 . S
H400 C387 0.962 . S
H401 C387 0.960 . S
H402 C388 0.961 . S
H403 C388 0.961 . S
H404 C388 0.961 . S
H405 C389 0.931 . S
H406 C394 0.930 . S
H407 C395 0.956 . S
H408 C395 0.961 1_554 S
H409 C395 0.961 . S
H410 C396 0.958 . S
H411 C396 0.961 . S
H412 C396 0.960 1_554 S
C413 C414 1.391 . S
C413 C415 1.394 . S
C413 H429 0.931 . S
C414 C413 1.391 . S
C414 C418 1.376 . S
C415 C413 1.394 . S
C415 C416 1.369 . S
C415 C419 1.531 1_556 S
C416 C415 1.369 . S
C416 C417 1.410 . S
C416 C424 1.503 1_566 S
C417 C416 1.410 . S
C417 C418 1.392 . S
C417 C420 1.511 1_565 S
C418 C414 1.376 . S
C418 C417 1.392 . S
C418 H430 0.929 . S
C419 C415 1.531 1_554 S
C419 H431 0.960 . S
C419 H432 0.962 1_554 S
C419 H433 0.960 . S
C420 C417 1.511 1_545 S
C420 H434 0.961 . S
C420 H435 0.961 . S
C420 H436 0.961 1_545 S
C421 C422 1.370 . S
C421 C423 1.363 . S
C421 H437 0.931 . S
C422 C421 1.370 . S
C422 C426 1.408 . S
C423 C421 1.363 . S
C423 C424 1.370 . S
C423 C427 1.524 1_554 S
C424 C416 1.503 1_544 S
C424 C423 1.370 . S
C424 C425 1.403 . S
C425 C424 1.403 . S
C425 C426 1.404 . S
C425 C428 1.539 1_545 S
C426 C422 1.408 . S
C426 C425 1.404 . S
C426 H438 0.930 . S
C427 C423 1.524 1_556 S
C427 H439 0.956 . S
C427 H440 0.961 . S
C427 H441 0.961 . S
C428 C425 1.539 1_565 S
C428 H442 0.958 . S
C428 H443 0.961 . S
C428 H444 0.960 . S
H429 C413 0.931 . S
H430 C418 0.929 . S
H431 C419 0.960 . S
H432 C419 0.962 1_556 S
H433 C419 0.960 . S
H434 C420 0.961 . S
H435 C420 0.961 . S
H436 C420 0.961 1_565 S
H437 C421 0.931 . S
H438 C426 0.930 . S
H439 C427 0.956 . S
H440 C427 0.961 . S
H441 C427 0.961 . S
H442 C428 0.958 . S
H443 C428 0.961 . S
H444 C428 0.960 . S
C445 C446 1.391 . S
C445 C447 1.394 . S
C445 H461 0.931 . S
C446 C445 1.391 . S
C446 C450 1.376 . S
C447 C445 1.394 . S
C447 C448 1.369 . S
C447 C451 1.531 1_455 S
C448 C447 1.369 . S
C448 C449 1.410 . S
C448 C456 1.503 1_456 S
C449 C448 1.410 . S
C449 C450 1.392 . S
C449 C452 1.511 1_556 S
C450 C446 1.376 . S
C450 C449 1.392 . S
C450 H462 0.929 . S
C451 C447 1.531 1_655 S
C451 H463 0.960 . S
C451 H464 0.962 . S
C451 H465 0.960 . S
C452 C449 1.511 1_554 S
C452 H466 0.961 . S
C452 H467 0.961 . S
C452 H468 0.961 . S
C453 C454 1.370 . S
C453 C455 1.363 . S
C453 H469 0.931 . S
C454 C453 1.370 . S
C454 C458 1.408 . S
C455 C453 1.363 . S
C455 C456 1.370 . S
C455 C459 1.524 1_655 S
C456 C448 1.503 1_654 S
C456 C455 1.370 . S
C456 C457 1.403 . S
C457 C456 1.403 . S
C457 C458 1.404 . S
C457 C460 1.539 . S
C458 C454 1.408 . S
C458 C457 1.404 . S
C458 H470 0.930 . S
C459 C455 1.524 1_455 S
C459 H471 0.956 1_454 S
C459 H472 0.961 . S
C459 H473 0.961 1_455 S
C460 C457 1.539 . S
C460 H474 0.958 1_554 S
C460 H475 0.961 . S
C460 H476 0.960 . S
H461 C445 0.931 . S
H462 C450 0.929 . S
H463 C451 0.960 . S
H464 C451 0.962 . S
H465 C451 0.960 . S
H466 C452 0.961 . S
H467 C452 0.961 . S
H468 C452 0.961 . S
H469 C453 0.931 . S
H470 C458 0.930 . S
H471 C459 0.956 1_656 S
H472 C459 0.961 . S
H473 C459 0.961 1_655 S
H474 C460 0.958 1_556 S
H475 C460 0.961 . S
H476 C460 0.960 . S
C94 C20 0.905 . S
C102 C1 0.905 . S
C126 C32 0.937 . S
C134 C51 0.903 . S
C158 C63 0.940 . S
C166 C82 0.907 . S
C190 C91 2.148 . S
C198 C2 2.192 . S
C222 C72 1.868 . S
C230 C0 1.876 . S
C254 C81 1.851 . S
C262 C30 1.894 . S
C286 C33 2.205 . S
C294 C29 2.170 . S
C318 C31 1.899 . S
C326 C10 1.883 . S
C350 C61 1.864 . S
C358 C19 1.886 . S
C382 C60 2.183 . S
C390 C64 2.178 . S
C414 C62 1.846 . S
C422 C41 1.901 . S
C446 C92 1.867 . S
C454 C50 1.886 . S
