# Generated by pormake.
# Topology ukb, (4)-cn, num edge types: 1
# Building blocks:
#     Node 0, Type 0, BuildingBlock: NAHDIM_clean_sbu_0, # of connection points: 4
#     Node 1, Type 0, BuildingBlock: NAHDIM_clean_sbu_0, # of connection points: 4
#     Node 2, Type 0, BuildingBlock: NAHDIM_clean_sbu_0, # of connection points: 4
#     Node 3, Type 0, BuildingBlock: NAHDIM_clean_sbu_0, # of connection points: 4
#     Node 4, Type 0, BuildingBlock: NAHDIM_clean_sbu_0, # of connection points: 4
#     Node 5, Type 0, BuildingBlock: NAHDIM_clean_sbu_0, # of connection points: 4
#     Node 6, Type 0, BuildingBlock: NAHDIM_clean_sbu_0, # of connection points: 4
#     Node 7, Type 0, BuildingBlock: NAHDIM_clean_sbu_0, # of connection points: 4
#     Node 8, Type 0, BuildingBlock: NAHDIM_clean_sbu_0, # of connection points: 4
#     Node 9, Type 0, BuildingBlock: NAHDIM_clean_sbu_0, # of connection points: 4
#     Node 10, Type 0, BuildingBlock: NAHDIM_clean_sbu_0, # of connection points: 4
#     Node 11, Type 0, BuildingBlock: NAHDIM_clean_sbu_0, # of connection points: 4
#     Node 12, Type 0, BuildingBlock: NAHDIM_clean_sbu_0, # of connection points: 4
#     Node 13, Type 0, BuildingBlock: NAHDIM_clean_sbu_0, # of connection points: 4
#     Node 14, Type 0, BuildingBlock: NAHDIM_clean_sbu_0, # of connection points: 4
#     Node 15, Type 0, BuildingBlock: NAHDIM_clean_sbu_0, # of connection points: 4
#     Edge 16, Type (0, 0), BuildingBlock: EYOCIG_clean_linker_4, # of connection points: 2
#     Edge 17, Type (0, 0), BuildingBlock: EYOCIG_clean_linker_4, # of connection points: 2
#     Edge 18, Type (0, 0), BuildingBlock: EYOCIG_clean_linker_4, # of connection points: 2
#     Edge 19, Type (0, 0), BuildingBlock: EYOCIG_clean_linker_4, # of connection points: 2
#     Edge 20, Type (0, 0), BuildingBlock: EYOCIG_clean_linker_4, # of connection points: 2
#     Edge 21, Type (0, 0), BuildingBlock: EYOCIG_clean_linker_4, # of connection points: 2
#     Edge 22, Type (0, 0), BuildingBlock: EYOCIG_clean_linker_4, # of connection points: 2
#     Edge 23, Type (0, 0), BuildingBlock: EYOCIG_clean_linker_4, # of connection points: 2
#     Edge 24, Type (0, 0), BuildingBlock: EYOCIG_clean_linker_4, # of connection points: 2
#     Edge 25, Type (0, 0), BuildingBlock: EYOCIG_clean_linker_4, # of connection points: 2
#     Edge 26, Type (0, 0), BuildingBlock: EYOCIG_clean_linker_4, # of connection points: 2
#     Edge 27, Type (0, 0), BuildingBlock: EYOCIG_clean_linker_4, # of connection points: 2
#     Edge 28, Type (0, 0), BuildingBlock: EYOCIG_clean_linker_4, # of connection points: 2
#     Edge 29, Type (0, 0), BuildingBlock: EYOCIG_clean_linker_4, # of connection points: 2
#     Edge 30, Type (0, 0), BuildingBlock: EYOCIG_clean_linker_4, # of connection points: 2
#     Edge 31, Type (0, 0), BuildingBlock: EYOCIG_clean_linker_4, # of connection points: 2
#     Edge 32, Type (0, 0), BuildingBlock: EYOCIG_clean_linker_4, # of connection points: 2
#     Edge 33, Type (0, 0), BuildingBlock: EYOCIG_clean_linker_4, # of connection points: 2
#     Edge 34, Type (0, 0), BuildingBlock: EYOCIG_clean_linker_4, # of connection points: 2
#     Edge 35, Type (0, 0), BuildingBlock: EYOCIG_clean_linker_4, # of connection points: 2
#     Edge 36, Type (0, 0), BuildingBlock: EYOCIG_clean_linker_4, # of connection points: 2
#     Edge 37, Type (0, 0), BuildingBlock: EYOCIG_clean_linker_4, # of connection points: 2
#     Edge 38, Type (0, 0), BuildingBlock: EYOCIG_clean_linker_4, # of connection points: 2
#     Edge 39, Type (0, 0), BuildingBlock: EYOCIG_clean_linker_4, # of connection points: 2
#     Edge 40, Type (0, 0), BuildingBlock: EYOCIG_clean_linker_4, # of connection points: 2
#     Edge 41, Type (0, 0), BuildingBlock: EYOCIG_clean_linker_4, # of connection points: 2
#     Edge 42, Type (0, 0), BuildingBlock: EYOCIG_clean_linker_4, # of connection points: 2
#     Edge 43, Type (0, 0), BuildingBlock: EYOCIG_clean_linker_4, # of connection points: 2
#     Edge 44, Type (0, 0), BuildingBlock: EYOCIG_clean_linker_4, # of connection points: 2
#     Edge 45, Type (0, 0), BuildingBlock: EYOCIG_clean_linker_4, # of connection points: 2
#     Edge 46, Type (0, 0), BuildingBlock: EYOCIG_clean_linker_4, # of connection points: 2
#     Edge 47, Type (0, 0), BuildingBlock: EYOCIG_clean_linker_4, # of connection points: 2
# Relax obj value: 0.149
# Max RMSD: 0.160
# Mean RMSD: 0.160
data_MOF--net-ukb--node1-NAHDIM_clean_sbu_0--edge1-EYOCIG_clean_linker_4
_symmetry_space_group_name_H-M    P1
_symmetry_Int_Tables_number       1
_symmetry_cell_setting            triclinic
loop_
_symmetry_equiv_pos_as_xyz
'x, y, z'
_cell_length_a     35.337601
_cell_length_b     35.353541
_cell_length_c     30.240397
_cell_angle_alpha  89.959433
_cell_angle_beta   89.969418
_cell_angle_gamma 90.016256
loop_
_atom_site_label
_atom_site_type_symbol
_atom_site_fract_x
_atom_site_fract_y
_atom_site_fract_z
_atom_type_partial_charge
C0 C 0.43932 0.15451 0.2001 0.0
O1 O 0.45575 0.13937 0.16545 0.0
O2 O 0.49657 0.21626 0.12855 0.0
Zn3 Zn 0.50341 0.20132 0.19276 0.0
O4 O 0.54019 0.15781 0.19985 0.0
C5 C 0.54283 0.27124 0.20759 0.0
O6 O 0.54735 0.26946 0.1646 0.0
O7 O 0.45385 0.18345 0.21819 0.0
C8 C 0.57573 0.16298 0.20115 0.0
O9 O 0.58973 0.19702 0.19569 0.0
C10 C 0.51616 0.20219 0.09743 0.0
O11 O 0.54132 0.17592 0.10588 0.0
O12 O 0.52401 0.24577 0.2275 0.0
C13 C 0.31866 0.43936 0.70003 0.0
O14 O 0.33391 0.45584 0.66545 0.0
O15 O 0.25661 0.49624 0.62832 0.0
Zn16 Zn 0.27165 0.50324 0.69245 0.0
O17 O 0.31519 0.54005 0.69932 0.0
C18 C 0.20172 0.54264 0.70743 0.0
O19 O 0.20344 0.54709 0.66442 0.0
O20 O 0.28958 0.45377 0.71799 0.0
C21 C 0.31 0.57556 0.70069 0.0
O22 O 0.27593 0.58953 0.69538 0.0
C23 C 0.27043 0.51591 0.59711 0.0
O24 O 0.29653 0.5413 0.60539 0.0
O25 O 0.22723 0.52386 0.72729 0.0
C26 C 0.03388 0.3186 0.19961 0.0
O27 O 0.01746 0.33377 0.16497 0.0
O28 O 0.97685 0.25665 0.12806 0.0
Zn29 Zn 0.96989 0.27165 0.19222 0.0
O30 O 0.93306 0.31515 0.19915 0.0
C31 C 0.93049 0.20171 0.20724 0.0
O32 O 0.92601 0.20345 0.16424 0.0
O33 O 0.01938 0.28958 0.21766 0.0
C34 C 0.89754 0.30994 0.20068 0.0
O35 O 0.88356 0.27587 0.19554 0.0
C36 C 0.95704 0.27038 0.09693 0.0
O37 O 0.93154 0.29634 0.10533 0.0
O38 O 0.94927 0.22721 0.22707 0.0
C39 C 0.15457 0.03376 0.70003 0.0
O40 O 0.13935 0.01733 0.66544 0.0
O41 O 0.2163 0.97659 0.62843 0.0
Zn42 Zn 0.20138 0.96972 0.69265 0.0
O43 O 0.1578 0.93298 0.69978 0.0
C44 C 0.27128 0.93025 0.70756 0.0
O45 O 0.26951 0.92574 0.66457 0.0
O46 O 0.18356 0.01925 0.71806 0.0
C47 C 0.16297 0.89748 0.70138 0.0
O48 O 0.19704 0.88348 0.6962 0.0
C49 C 0.20246 0.95677 0.59741 0.0
O50 O 0.17648 0.93131 0.60597 0.0
O51 O 0.24582 0.94909 0.72742 0.0
C52 C 0.43938 0.31871 0.78872 0.0
O53 O 0.45585 0.33389 0.8233 0.0
O54 O 0.49633 0.25679 0.86034 0.0
Zn55 Zn 0.50331 0.27174 0.79614 0.0
O56 O 0.54017 0.31522 0.78912 0.0
C57 C 0.5426 0.20174 0.78118 0.0
O58 O 0.54707 0.20342 0.82418 0.0
O59 O 0.45382 0.28969 0.7707 0.0
C60 C 0.57567 0.30995 0.78718 0.0
O61 O 0.58959 0.27582 0.79195 0.0
C62 C 0.51657 0.27013 0.89131 0.0
O63 O 0.54255 0.29557 0.8827 0.0
O64 O 0.52386 0.22729 0.76134 0.0
C65 C 0.15441 0.43934 0.28835 0.0
O66 O 0.13905 0.45587 0.32279 0.0
O67 O 0.2164 0.49642 0.36009 0.0
Zn68 Zn 0.20142 0.50326 0.2959 0.0
O69 O 0.15792 0.54005 0.28881 0.0
C70 C 0.27132 0.54275 0.28102 0.0
O71 O 0.26952 0.5472 0.32401 0.0
O72 O 0.18357 0.45374 0.27049 0.0
C73 C 0.16305 0.57558 0.28811 0.0
O74 O 0.19701 0.58956 0.29426 0.0
C75 C 0.20174 0.51535 0.39137 0.0
O76 O 0.17473 0.53978 0.38315 0.0
O77 O 0.24587 0.52393 0.26112 0.0
C78 C 0.03389 0.15447 0.78853 0.0
O79 O 0.01744 0.13933 0.8232 0.0
O80 O 0.97659 0.21629 0.8599 0.0
Zn81 Zn 0.96981 0.20129 0.79573 0.0
O82 O 0.93299 0.15781 0.78867 0.0
C83 C 0.93044 0.27119 0.7807 0.0
O84 O 0.9259 0.26944 0.82369 0.0
O85 O 0.01937 0.18341 0.77039 0.0
C86 C 0.89745 0.16298 0.78764 0.0
O87 O 0.88349 0.19698 0.79341 0.0
C88 C 0.95735 0.20191 0.89114 0.0
O89 O 0.93258 0.17521 0.88286 0.0
O90 O 0.94926 0.24572 0.76086 0.0
C91 C 0.31849 0.0338 0.28868 0.0
O92 O 0.33356 0.01746 0.32343 0.0
O93 O 0.25675 0.97665 0.3602 0.0
Zn94 Zn 0.2717 0.96971 0.29601 0.0
O95 O 0.31525 0.93295 0.28903 0.0
C96 C 0.20171 0.93035 0.28111 0.0
O97 O 0.20342 0.92587 0.32411 0.0
O98 O 0.2896 0.01921 0.27052 0.0
C99 C 0.31003 0.89746 0.28719 0.0
O100 O 0.2759 0.88347 0.29199 0.0
C101 C 0.27024 0.95654 0.39122 0.0
O102 O 0.29583 0.93072 0.38265 0.0
O103 O 0.22724 0.94911 0.26124 0.0
C104 C 0.53377 0.8184 0.78869 0.0
O105 O 0.51738 0.83345 0.82342 0.0
O106 O 0.47669 0.75647 0.86017 0.0
Zn107 Zn 0.46972 0.77153 0.79601 0.0
O108 O 0.43295 0.81508 0.78914 0.0
C109 C 0.43026 0.70164 0.78093 0.0
O110 O 0.42574 0.70328 0.82393 0.0
O111 O 0.51924 0.78948 0.77055 0.0
C112 C 0.39743 0.80987 0.78733 0.0
O113 O 0.38343 0.77576 0.79214 0.0
C114 C 0.45661 0.76991 0.89123 0.0
O115 O 0.43077 0.79552 0.88274 0.0
O116 O 0.44909 0.72717 0.76113 0.0
C117 C 0.6549 0.53403 0.28842 0.0
O118 O 0.6399 0.5178 0.32331 0.0
O119 O 0.71655 0.47683 0.35982 0.0
Zn120 Zn 0.70154 0.46983 0.29567 0.0
O121 O 0.65792 0.4331 0.28886 0.0
C122 C 0.77145 0.43034 0.28065 0.0
O123 O 0.76977 0.42589 0.32366 0.0
O124 O 0.6837 0.51933 0.27014 0.0
C125 C 0.66312 0.39761 0.28693 0.0
O126 O 0.69725 0.38362 0.29155 0.0
C127 C 0.70325 0.45658 0.39084 0.0
O128 O 0.67785 0.43055 0.38231 0.0
O129 O 0.74594 0.44913 0.26082 0.0
C130 C 0.93905 0.6545 0.78854 0.0
O131 O 0.95534 0.63928 0.82324 0.0
O132 O -0.00382 0.716 0.86032 0.0
Zn133 Zn 0.00318 0.70121 0.7961 0.0
O134 O 0.03993 0.65767 0.78905 0.0
C135 C 0.04262 0.7712 0.78135 0.0
O136 O 0.04703 0.76942 0.82436 0.0
O137 O 0.95368 0.68345 0.77052 0.0
C138 C 0.07544 0.66288 0.78721 0.0
O139 O 0.08944 0.69697 0.79208 0.0
C140 C 0.01627 0.70243 0.8913 0.0
O141 O 0.0421 0.67686 0.88266 0.0
O142 O 0.02388 0.74572 0.76143 0.0
C143 C 0.81842 0.93889 0.28865 0.0
O144 O 0.83346 0.9551 0.32348 0.0
O145 O 0.75687 -0.0039 0.36014 0.0
Zn146 Zn 0.77181 0.0031 0.29593 0.0
O147 O 0.81542 0.03983 0.28895 0.0
C148 C 0.70188 0.04258 0.28106 0.0
O149 O 0.7036 0.04701 0.32406 0.0
O150 O 0.78962 0.9536 0.27043 0.0
C151 C 0.81022 0.07532 0.28698 0.0
O152 O 0.7761 0.08931 0.29166 0.0
C153 C 0.77021 0.01634 0.39109 0.0
O154 O 0.79564 0.04233 0.38245 0.0
O155 O 0.72737 0.02381 0.26118 0.0
C156 C 0.53412 0.6547 0.19999 0.0
O157 O 0.51767 0.63952 0.1654 0.0
O158 O 0.47677 0.71637 0.1285 0.0
Zn159 Zn 0.47001 0.70145 0.19274 0.0
O160 O 0.43326 0.6579 0.19993 0.0
C161 C 0.43047 0.77128 0.2076 0.0
O162 O 0.42592 0.76946 0.16462 0.0
O163 O 0.5196 0.68366 0.21808 0.0
C164 C 0.39772 0.66304 0.20117 0.0
O165 O 0.38371 0.69705 0.19561 0.0
C166 C 0.45732 0.70209 0.09741 0.0
O167 O 0.43237 0.6756 0.10592 0.0
O168 O 0.44936 0.74588 0.22749 0.0
C169 C 0.81852 0.53397 0.69945 0.0
O170 O 0.83362 0.51774 0.66465 0.0
O171 O 0.75698 0.47659 0.62803 0.0
Zn172 Zn 0.7719 0.46973 0.69223 0.0
O173 O 0.81548 0.43302 0.6993 0.0
C174 C 0.70202 0.43019 0.70717 0.0
O175 O 0.7038 0.42569 0.66418 0.0
O176 O 0.78968 0.51925 0.71765 0.0
C177 C 0.81032 0.3975 0.70067 0.0
O178 O 0.77628 0.38349 0.69528 0.0
C179 C 0.77106 0.457 0.59693 0.0
O180 O 0.79732 0.43183 0.60539 0.0
O181 O 0.72746 0.44904 0.72702 0.0
C182 C 0.93904 0.81818 0.19998 0.0
O183 O 0.95526 0.83319 0.16509 0.0
O184 O -0.00379 0.7566 0.12852 0.0
Zn185 Zn 0.00325 0.77156 0.19267 0.0
O186 O 0.03997 0.81518 0.19949 0.0
C187 C 0.04281 0.7017 0.20768 0.0
O188 O 0.04728 0.7034 0.16467 0.0
O189 O 0.95374 0.78938 0.21823 0.0
C190 C 0.07548 0.81001 0.20154 0.0
O191 O 0.08951 0.7759 0.19702 0.0
C192 C 0.01656 0.7698 0.09752 0.0
O193 O 0.04271 0.79506 0.10609 0.0
O194 O 0.02398 0.72718 0.2275 0.0
C195 C 0.65438 0.93932 0.70008 0.0
O196 O 0.63916 0.95576 0.66548 0.0
O197 O 0.7162 -0.00358 0.62837 0.0
Zn198 Zn 0.70124 0.00335 0.69256 0.0
O199 O 0.65766 0.04008 0.69955 0.0
C200 C 0.77116 0.04286 0.70744 0.0
O201 O 0.76943 0.04735 0.66444 0.0
O202 O 0.6834 0.95383 0.71807 0.0
C203 C 0.66284 0.07558 0.70115 0.0
O204 O 0.69692 0.0896 0.69605 0.0
C205 C 0.70249 0.01631 0.59729 0.0
O206 O 0.67665 0.0419 0.60579 0.0
O207 O 0.74567 0.02403 0.72731 0.0
C208 C 0.38262 0.11663 0.23563 0.0
C209 C 0.40836 0.13508 0.2208 0.0
C210 C 0.35642 0.09045 0.25313 0.0
C211 C 0.33795 0.06473 0.26797 0.0
C212 C 0.35656 0.38277 0.73565 0.0
C213 C 0.33809 0.40845 0.72078 0.0
C214 C 0.38274 0.35661 0.75318 0.0
C215 C 0.40845 0.33815 0.76803 0.0
C216 C 0.09047 0.35651 0.2352 0.0
C217 C 0.06478 0.33804 0.22034 0.0
C218 C 0.11662 0.38269 0.25274 0.0
C219 C 0.13506 0.4084 0.26761 0.0
C220 C 0.11674 0.09041 0.73556 0.0
C221 C 0.13517 0.0647 0.72073 0.0
C222 C 0.09056 0.11659 0.75305 0.0
C223 C 0.06483 0.13503 0.76787 0.0
C224 C 0.5904 0.8564 0.75316 0.0
C225 C 0.56469 0.8379 0.76799 0.0
C226 C 0.61656 0.88262 0.73566 0.0
C227 C 0.635 0.90836 0.72081 0.0
C228 C 0.59083 0.61686 0.23544 0.0
C229 C 0.56509 0.63531 0.22065 0.0
C230 C 0.61702 0.59068 0.25291 0.0
C231 C 0.63546 0.56495 0.26772 0.0
C232 C 0.88246 0.61673 0.75275 0.0
C233 C 0.90816 0.63513 0.7677 0.0
C234 C 0.85633 0.59058 0.73512 0.0
C235 C 0.83793 0.56486 0.72021 0.0
C236 C 0.85626 0.88224 0.25309 0.0
C237 C 0.83784 0.90797 0.26793 0.0
C238 C 0.88241 0.85606 0.23557 0.0
C239 C 0.90813 0.83762 0.22071 0.0
C240 C 0.58227 0.32349 0.2493 0.0
C241 C 0.56355 0.29902 0.23224 0.0
C242 C 0.60798 0.35084 0.26519 0.0
C243 C 0.63244 0.37304 0.27508 0.0
C244 C 0.14954 0.58212 0.74925 0.0
C245 C 0.17398 0.56339 0.73213 0.0
C246 C 0.12222 0.60783 0.76524 0.0
C247 C 0.10004 0.63227 0.77524 0.0
C248 C 0.86535 0.1221 0.26507 0.0
C249 C 0.84089 0.0999 0.27504 0.0
C250 C 0.89105 0.14946 0.24909 0.0
C251 C 0.90977 0.17393 0.23196 0.0
C252 C 0.3234 0.89071 0.7494 0.0
C253 C 0.29899 0.90947 0.73226 0.0
C254 C 0.35069 0.86496 0.76539 0.0
C255 C 0.37285 0.8405 0.77537 0.0
C256 C 0.58206 0.14961 0.73927 0.0
C257 C 0.56334 0.17402 0.75644 0.0
C258 C 0.60777 0.12232 0.72322 0.0
C259 C 0.63223 0.10017 0.71319 0.0
C260 C 0.35088 0.60802 0.22327 0.0
C261 C 0.37307 0.63248 0.21324 0.0
C262 C 0.32355 0.5823 0.23926 0.0
C263 C 0.2991 0.56354 0.25635 0.0
C264 C 0.86533 0.3507 0.72277 0.0
C265 C 0.84089 0.37288 0.71273 0.0
C266 C 0.89102 0.32339 0.73881 0.0
C267 C 0.90972 0.29894 0.75596 0.0
C268 C 0.12219 0.86517 0.22335 0.0
C269 C 0.10002 0.8407 0.21342 0.0
C270 C 0.14951 0.89089 0.23931 0.0
C271 C 0.17396 0.90961 0.25642 0.0
C272 C 0.365 0.62237 0.72282 0.0
C273 C 0.34055 0.60021 0.71277 0.0
C274 C 0.39073 0.64962 0.73892 0.0
C275 C 0.40948 0.67399 0.75614 0.0
C276 C 0.85074 0.36497 0.2227 0.0
C277 C 0.8729 0.34051 0.21269 0.0
C278 C 0.82348 0.39072 0.23874 0.0
C279 C 0.79911 0.40951 0.2559 0.0
C280 C 0.08219 0.8234 0.73957 0.0
C281 C 0.06343 0.79896 0.7567 0.0
C282 C 0.10791 0.8507 0.72352 0.0
C283 C 0.13237 0.87287 0.71346 0.0
C284 C 0.62253 0.10797 0.22323 0.0
C285 C 0.60037 0.13243 0.2132 0.0
C286 C 0.6498 0.08221 0.23924 0.0
C287 C 0.67419 0.06342 0.25637 0.0
C288 C 0.3909 0.82342 0.24935 0.0
C289 C 0.40968 0.79901 0.23227 0.0
C290 C 0.36514 0.85071 0.2653 0.0
C291 C 0.34067 0.87287 0.27526 0.0
C292 C 0.64984 0.39067 0.74906 0.0
C293 C 0.67427 0.40942 0.7319 0.0
C294 C 0.62252 0.36496 0.76511 0.0
C295 C 0.60031 0.34053 0.77516 0.0
C296 C 0.10816 0.62245 0.26577 0.0
C297 C 0.13259 0.6003 0.2759 0.0
C298 C 0.08242 0.64969 0.24964 0.0
C299 C 0.06364 0.67404 0.23243 0.0
C300 C 0.85056 0.10809 0.76539 0.0
C301 C 0.87274 0.1325 0.77549 0.0
C302 C 0.82327 0.08239 0.74931 0.0
C303 C 0.79887 0.06364 0.73214 0.0
C304 C 0.51091 0.22906 0.01618 0.0
C305 C 0.51291 0.21714 0.05347 0.0
C306 C 0.51098 0.2433 0.97256 0.0
C307 C 0.5131 0.25519 0.93527 0.0
C308 C 0.22887 0.51029 0.4725 0.0
C309 C 0.21681 0.51226 0.43528 0.0
C310 C 0.2433 0.51039 0.51603 0.0
C311 C 0.25535 0.51253 0.55323 0.0
C312 C 0.96247 0.24333 0.01582 0.0
C313 C 0.96039 0.25533 0.05304 0.0
C314 C 0.96252 0.22895 0.97227 0.0
C315 C 0.96051 0.21693 0.93505 0.0
C316 C 0.24346 0.96207 0.47248 0.0
C317 C 0.25533 0.95997 0.43518 0.0
C318 C 0.22925 0.96211 0.51612 0.0
C319 C 0.21738 0.96008 0.55343 0.0
C320 C 0.46228 0.7431 0.97247 0.0
C321 C 0.46011 0.75498 0.93518 0.0
C322 C 0.46242 0.72888 0.01611 0.0
C323 C 0.46048 0.717 0.05342 0.0
C324 C 0.74427 0.46228 0.51567 0.0
C325 C 0.75615 0.46027 0.55296 0.0
C326 C 0.73006 0.46221 0.47205 0.0
C327 C 0.71819 0.46008 0.43477 0.0
C328 C 0.01085 0.74313 0.01627 0.0
C329 C 0.013 0.75493 0.05358 0.0
C330 C 0.0108 0.72902 0.97261 0.0
C331 C 0.01286 0.71725 0.93528 0.0
C332 C 0.72926 0.01081 0.51602 0.0
C333 C 0.7174 0.0129 0.55333 0.0
C334 C 0.74345 0.0108 0.47237 0.0
C335 C 0.7553 0.01288 0.43506 0.0
loop_
_geom_bond_atom_site_label_1
_geom_bond_atom_site_label_2
_geom_bond_distance
_geom_bond_site_symmetry_2
_ccdc_geom_bond_type
C0 O1 1.160 . S
C0 O7 1.185 . S
O1 C0 1.160 . S
O2 Zn3 1.899 . S
O2 C10 1.284 . S
Zn3 O2 1.899 . S
Zn3 O4 2.032 . S
Zn3 O7 2.086 . S
Zn3 O12 1.977 . S
O4 Zn3 2.032 . S
O4 C8 1.278 . S
C5 O6 1.203 . S
C5 O12 1.267 . S
O6 C5 1.203 . S
O7 C0 1.185 . S
O7 Zn3 2.086 . S
C8 O4 1.278 . S
C8 O9 1.211 . S
O9 C8 1.211 . S
C10 O2 1.284 . S
C10 O11 1.273 . S
O11 C10 1.273 . S
O12 Zn3 1.977 . S
O12 C5 1.267 . S
C13 O14 1.160 . S
C13 O20 1.185 . S
O14 C13 1.160 . S
O15 Zn16 1.899 . S
O15 C23 1.284 . S
Zn16 O15 1.899 . S
Zn16 O17 2.032 . S
Zn16 O20 2.086 . S
Zn16 O25 1.977 . S
O17 Zn16 2.032 . S
O17 C21 1.278 . S
C18 O19 1.203 . S
C18 O25 1.267 . S
O19 C18 1.203 . S
O20 C13 1.185 . S
O20 Zn16 2.086 . S
C21 O17 1.278 . S
C21 O22 1.211 . S
O22 C21 1.211 . S
C23 O15 1.284 . S
C23 O24 1.273 . S
O24 C23 1.273 . S
O25 Zn16 1.977 . S
O25 C18 1.267 . S
C26 O27 1.160 . S
C26 O33 1.185 . S
O27 C26 1.160 . S
O28 Zn29 1.899 . S
O28 C36 1.284 . S
Zn29 O28 1.899 . S
Zn29 O30 2.032 . S
Zn29 O33 2.086 1_655 S
Zn29 O38 1.977 . S
O30 Zn29 2.032 . S
O30 C34 1.278 . S
C31 O32 1.203 . S
C31 O38 1.267 . S
O32 C31 1.203 . S
O33 C26 1.185 . S
O33 Zn29 2.086 1_455 S
C34 O30 1.278 . S
C34 O35 1.211 . S
O35 C34 1.211 . S
C36 O28 1.284 . S
C36 O37 1.273 . S
O37 C36 1.273 . S
O38 Zn29 1.977 . S
O38 C31 1.267 . S
C39 O40 1.160 . S
C39 O46 1.185 . S
O40 C39 1.160 . S
O41 Zn42 1.899 . S
O41 C49 1.284 . S
Zn42 O41 1.899 . S
Zn42 O43 2.032 . S
Zn42 O46 2.086 1_565 S
Zn42 O51 1.977 . S
O43 Zn42 2.032 . S
O43 C47 1.278 . S
C44 O45 1.203 . S
C44 O51 1.267 . S
O45 C44 1.203 . S
O46 C39 1.185 . S
O46 Zn42 2.086 1_545 S
C47 O43 1.278 . S
C47 O48 1.211 . S
O48 C47 1.211 . S
C49 O41 1.284 . S
C49 O50 1.273 . S
O50 C49 1.273 . S
O51 Zn42 1.977 . S
O51 C44 1.267 . S
C52 O53 1.160 . S
C52 O59 1.185 . S
O53 C52 1.160 . S
O54 Zn55 1.899 . S
O54 C62 1.284 . S
Zn55 O54 1.899 . S
Zn55 O56 2.032 . S
Zn55 O59 2.086 . S
Zn55 O64 1.977 . S
O56 Zn55 2.032 . S
O56 C60 1.278 . S
C57 O58 1.203 . S
C57 O64 1.267 . S
O58 C57 1.203 . S
O59 C52 1.185 . S
O59 Zn55 2.086 . S
C60 O56 1.278 . S
C60 O61 1.211 . S
O61 C60 1.211 . S
C62 O54 1.284 . S
C62 O63 1.273 . S
O63 C62 1.273 . S
O64 Zn55 1.977 . S
O64 C57 1.267 . S
C65 O66 1.160 . S
C65 O72 1.185 . S
O66 C65 1.160 . S
O67 Zn68 1.899 . S
O67 C75 1.284 . S
Zn68 O67 1.899 . S
Zn68 O69 2.032 . S
Zn68 O72 2.086 . S
Zn68 O77 1.977 . S
O69 Zn68 2.032 . S
O69 C73 1.278 . S
C70 O71 1.203 . S
C70 O77 1.267 . S
O71 C70 1.203 . S
O72 C65 1.185 . S
O72 Zn68 2.086 . S
C73 O69 1.278 . S
C73 O74 1.211 . S
O74 C73 1.211 . S
C75 O67 1.284 . S
C75 O76 1.273 . S
O76 C75 1.273 . S
O77 Zn68 1.977 . S
O77 C70 1.267 . S
C78 O79 1.160 . S
C78 O85 1.185 . S
O79 C78 1.160 . S
O80 Zn81 1.899 . S
O80 C88 1.284 . S
Zn81 O80 1.899 . S
Zn81 O82 2.032 . S
Zn81 O85 2.086 1_655 S
Zn81 O90 1.977 . S
O82 Zn81 2.032 . S
O82 C86 1.278 . S
C83 O84 1.203 . S
C83 O90 1.267 . S
O84 C83 1.203 . S
O85 C78 1.185 . S
O85 Zn81 2.086 1_455 S
C86 O82 1.278 . S
C86 O87 1.211 . S
O87 C86 1.211 . S
C88 O80 1.284 . S
C88 O89 1.273 . S
O89 C88 1.273 . S
O90 Zn81 1.977 . S
O90 C83 1.267 . S
C91 O92 1.160 . S
C91 O98 1.185 . S
O92 C91 1.160 . S
O93 Zn94 1.899 . S
O93 C101 1.284 . S
Zn94 O93 1.899 . S
Zn94 O95 2.032 . S
Zn94 O98 2.086 1_565 S
Zn94 O103 1.977 . S
O95 Zn94 2.032 . S
O95 C99 1.278 . S
C96 O97 1.203 . S
C96 O103 1.267 . S
O97 C96 1.203 . S
O98 C91 1.185 . S
O98 Zn94 2.086 1_545 S
C99 O95 1.278 . S
C99 O100 1.211 . S
O100 C99 1.211 . S
C101 O93 1.284 . S
C101 O102 1.273 . S
O102 C101 1.273 . S
O103 Zn94 1.977 . S
O103 C96 1.267 . S
C104 O105 1.160 . S
C104 O111 1.185 . S
O105 C104 1.160 . S
O106 Zn107 1.899 . S
O106 C114 1.284 . S
Zn107 O106 1.899 . S
Zn107 O108 2.032 . S
Zn107 O111 2.086 . S
Zn107 O116 1.977 . S
O108 Zn107 2.032 . S
O108 C112 1.278 . S
C109 O110 1.203 . S
C109 O116 1.267 . S
O110 C109 1.203 . S
O111 C104 1.185 . S
O111 Zn107 2.086 . S
C112 O108 1.278 . S
C112 O113 1.211 . S
O113 C112 1.211 . S
C114 O106 1.284 . S
C114 O115 1.273 . S
O115 C114 1.273 . S
O116 Zn107 1.977 . S
O116 C109 1.267 . S
C117 O118 1.160 . S
C117 O124 1.185 . S
O118 C117 1.160 . S
O119 Zn120 1.899 . S
O119 C127 1.284 . S
Zn120 O119 1.899 . S
Zn120 O121 2.032 . S
Zn120 O124 2.086 . S
Zn120 O129 1.977 . S
O121 Zn120 2.032 . S
O121 C125 1.278 . S
C122 O123 1.203 . S
C122 O129 1.267 . S
O123 C122 1.203 . S
O124 C117 1.185 . S
O124 Zn120 2.086 . S
C125 O121 1.278 . S
C125 O126 1.211 . S
O126 C125 1.211 . S
C127 O119 1.284 . S
C127 O128 1.273 . S
O128 C127 1.273 . S
O129 Zn120 1.977 . S
O129 C122 1.267 . S
C130 O131 1.160 . S
C130 O137 1.185 . S
O131 C130 1.160 . S
O132 Zn133 1.899 . S
O132 C140 1.284 . S
Zn133 O132 1.899 . S
Zn133 O134 2.032 . S
Zn133 O137 2.086 1_455 S
Zn133 O142 1.977 . S
O134 Zn133 2.032 . S
O134 C138 1.278 . S
C135 O136 1.203 . S
C135 O142 1.267 . S
O136 C135 1.203 . S
O137 C130 1.185 . S
O137 Zn133 2.086 1_655 S
C138 O134 1.278 . S
C138 O139 1.211 . S
O139 C138 1.211 . S
C140 O132 1.284 . S
C140 O141 1.273 . S
O141 C140 1.273 . S
O142 Zn133 1.977 . S
O142 C135 1.267 . S
C143 O144 1.160 . S
C143 O150 1.185 . S
O144 C143 1.160 . S
O145 Zn146 1.899 . S
O145 C153 1.284 . S
Zn146 O145 1.899 . S
Zn146 O147 2.032 . S
Zn146 O150 2.086 1_545 S
Zn146 O155 1.977 . S
O147 Zn146 2.032 . S
O147 C151 1.278 . S
C148 O149 1.203 . S
C148 O155 1.267 . S
O149 C148 1.203 . S
O150 C143 1.185 . S
O150 Zn146 2.086 1_565 S
C151 O147 1.278 . S
C151 O152 1.211 . S
O152 C151 1.211 . S
C153 O145 1.284 . S
C153 O154 1.273 . S
O154 C153 1.273 . S
O155 Zn146 1.977 . S
O155 C148 1.267 . S
C156 O157 1.160 . S
C156 O163 1.185 . S
O157 C156 1.160 . S
O158 Zn159 1.899 . S
O158 C166 1.284 . S
Zn159 O158 1.899 . S
Zn159 O160 2.032 . S
Zn159 O163 2.086 . S
Zn159 O168 1.977 . S
O160 Zn159 2.032 . S
O160 C164 1.278 . S
C161 O162 1.203 . S
C161 O168 1.267 . S
O162 C161 1.203 . S
O163 C156 1.185 . S
O163 Zn159 2.086 . S
C164 O160 1.278 . S
C164 O165 1.211 . S
O165 C164 1.211 . S
C166 O158 1.284 . S
C166 O167 1.273 . S
O167 C166 1.273 . S
O168 Zn159 1.977 . S
O168 C161 1.267 . S
C169 O170 1.160 . S
C169 O176 1.185 . S
O170 C169 1.160 . S
O171 Zn172 1.899 . S
O171 C179 1.284 . S
Zn172 O171 1.899 . S
Zn172 O173 2.032 . S
Zn172 O176 2.086 . S
Zn172 O181 1.977 . S
O173 Zn172 2.032 . S
O173 C177 1.278 . S
C174 O175 1.203 . S
C174 O181 1.267 . S
O175 C174 1.203 . S
O176 C169 1.185 . S
O176 Zn172 2.086 . S
C177 O173 1.278 . S
C177 O178 1.211 . S
O178 C177 1.211 . S
C179 O171 1.284 . S
C179 O180 1.273 . S
O180 C179 1.273 . S
O181 Zn172 1.977 . S
O181 C174 1.267 . S
C182 O183 1.160 . S
C182 O189 1.185 . S
O183 C182 1.160 . S
O184 Zn185 1.899 . S
O184 C192 1.284 . S
Zn185 O184 1.899 . S
Zn185 O186 2.032 . S
Zn185 O189 2.086 1_455 S
Zn185 O194 1.977 . S
O186 Zn185 2.032 . S
O186 C190 1.278 . S
C187 O188 1.203 . S
C187 O194 1.267 . S
O188 C187 1.203 . S
O189 C182 1.185 . S
O189 Zn185 2.086 1_655 S
C190 O186 1.278 . S
C190 O191 1.211 . S
O191 C190 1.211 . S
C192 O184 1.284 . S
C192 O193 1.273 . S
O193 C192 1.273 . S
O194 Zn185 1.977 . S
O194 C187 1.267 . S
C195 O196 1.160 . S
C195 O202 1.185 . S
O196 C195 1.160 . S
O197 Zn198 1.899 . S
O197 C205 1.284 . S
Zn198 O197 1.899 . S
Zn198 O199 2.032 . S
Zn198 O202 2.086 1_545 S
Zn198 O207 1.977 . S
O199 Zn198 2.032 . S
O199 C203 1.278 . S
C200 O201 1.203 . S
C200 O207 1.267 . S
O201 C200 1.203 . S
O202 C195 1.185 . S
O202 Zn198 2.086 1_565 S
C203 O199 1.278 . S
C203 O204 1.211 . S
O204 C203 1.211 . S
C205 O197 1.284 . S
C205 O206 1.273 . S
O206 C205 1.273 . S
O207 Zn198 1.977 . S
O207 C200 1.267 . S
C208 C209 1.170 . S
C208 C210 1.380 . S
C209 C208 1.170 . S
C210 C208 1.380 . S
C210 C211 1.170 . S
C211 C210 1.170 . S
C212 C213 1.170 . S
C212 C214 1.380 . S
C213 C212 1.170 . S
C214 C212 1.380 . S
C214 C215 1.170 . S
C215 C214 1.170 . S
C216 C217 1.170 . S
C216 C218 1.380 . S
C217 C216 1.170 . S
C218 C216 1.380 . S
C218 C219 1.170 . S
C219 C218 1.170 . S
C220 C221 1.170 . S
C220 C222 1.380 . S
C221 C220 1.170 . S
C222 C220 1.380 . S
C222 C223 1.170 . S
C223 C222 1.170 . S
C224 C225 1.170 . S
C224 C226 1.380 . S
C225 C224 1.170 . S
C226 C224 1.380 . S
C226 C227 1.170 . S
C227 C226 1.170 . S
C228 C229 1.170 . S
C228 C230 1.380 . S
C229 C228 1.170 . S
C230 C228 1.380 . S
C230 C231 1.170 . S
C231 C230 1.170 . S
C232 C233 1.170 . S
C232 C234 1.380 . S
C233 C232 1.170 . S
C234 C232 1.380 . S
C234 C235 1.170 . S
C235 C234 1.170 . S
C236 C237 1.170 . S
C236 C238 1.380 . S
C237 C236 1.170 . S
C238 C236 1.380 . S
C238 C239 1.170 . S
C239 C238 1.170 . S
C240 C241 1.170 . S
C240 C242 1.380 . S
C241 C240 1.170 . S
C242 C240 1.380 . S
C242 C243 1.170 . S
C243 C242 1.170 . S
C244 C245 1.170 . S
C244 C246 1.380 . S
C245 C244 1.170 . S
C246 C244 1.380 . S
C246 C247 1.170 . S
C247 C246 1.170 . S
C248 C249 1.170 . S
C248 C250 1.380 . S
C249 C248 1.170 . S
C250 C248 1.380 . S
C250 C251 1.170 . S
C251 C250 1.170 . S
C252 C253 1.170 . S
C252 C254 1.380 . S
C253 C252 1.170 . S
C254 C252 1.380 . S
C254 C255 1.170 . S
C255 C254 1.170 . S
C256 C257 1.170 . S
C256 C258 1.380 . S
C257 C256 1.170 . S
C258 C256 1.380 . S
C258 C259 1.170 . S
C259 C258 1.170 . S
C260 C261 1.170 . S
C260 C262 1.380 . S
C261 C260 1.170 . S
C262 C260 1.380 . S
C262 C263 1.170 . S
C263 C262 1.170 . S
C264 C265 1.170 . S
C264 C266 1.380 . S
C265 C264 1.170 . S
C266 C264 1.380 . S
C266 C267 1.170 . S
C267 C266 1.170 . S
C268 C269 1.170 . S
C268 C270 1.380 . S
C269 C268 1.170 . S
C270 C268 1.380 . S
C270 C271 1.170 . S
C271 C270 1.170 . S
C272 C273 1.170 . S
C272 C274 1.380 . S
C273 C272 1.170 . S
C274 C272 1.380 . S
C274 C275 1.170 . S
C275 C274 1.170 . S
C276 C277 1.170 . S
C276 C278 1.380 . S
C277 C276 1.170 . S
C278 C276 1.380 . S
C278 C279 1.170 . S
C279 C278 1.170 . S
C280 C281 1.170 . S
C280 C282 1.380 . S
C281 C280 1.170 . S
C282 C280 1.380 . S
C282 C283 1.170 . S
C283 C282 1.170 . S
C284 C285 1.170 . S
C284 C286 1.380 . S
C285 C284 1.170 . S
C286 C284 1.380 . S
C286 C287 1.170 . S
C287 C286 1.170 . S
C288 C289 1.170 . S
C288 C290 1.380 . S
C289 C288 1.170 . S
C290 C288 1.380 . S
C290 C291 1.170 . S
C291 C290 1.170 . S
C292 C293 1.170 . S
C292 C294 1.380 . S
C293 C292 1.170 . S
C294 C292 1.380 . S
C294 C295 1.170 . S
C295 C294 1.170 . S
C296 C297 1.170 . S
C296 C298 1.380 . S
C297 C296 1.170 . S
C298 C296 1.380 . S
C298 C299 1.170 . S
C299 C298 1.170 . S
C300 C301 1.170 . S
C300 C302 1.380 . S
C301 C300 1.170 . S
C302 C300 1.380 . S
C302 C303 1.170 . S
C303 C302 1.170 . S
C304 C305 1.170 . S
C304 C306 1.380 1_554 S
C305 C304 1.170 . S
C306 C304 1.380 1_556 S
C306 C307 1.170 . S
C307 C306 1.170 . S
C308 C309 1.170 . S
C308 C310 1.380 . S
C309 C308 1.170 . S
C310 C308 1.380 . S
C310 C311 1.170 . S
C311 C310 1.170 . S
C312 C313 1.170 . S
C312 C314 1.380 1_554 S
C313 C312 1.170 . S
C314 C312 1.380 1_556 S
C314 C315 1.170 . S
C315 C314 1.170 . S
C316 C317 1.170 . S
C316 C318 1.380 . S
C317 C316 1.170 . S
C318 C316 1.380 . S
C318 C319 1.170 . S
C319 C318 1.170 . S
C320 C321 1.170 . S
C320 C322 1.380 1_556 S
C321 C320 1.170 . S
C322 C320 1.380 1_554 S
C322 C323 1.170 . S
C323 C322 1.170 . S
C324 C325 1.170 . S
C324 C326 1.380 . S
C325 C324 1.170 . S
C326 C324 1.380 . S
C326 C327 1.170 . S
C327 C326 1.170 . S
C328 C329 1.170 . S
C328 C330 1.380 1_554 S
C329 C328 1.170 . S
C330 C328 1.380 1_556 S
C330 C331 1.170 . S
C331 C330 1.170 . S
C332 C333 1.170 . S
C332 C334 1.380 . S
C333 C332 1.170 . S
C334 C332 1.380 . S
C334 C335 1.170 . S
C335 C334 1.170 . S
C209 C0 1.261 . S
C211 C91 1.232 . S
C213 C13 1.251 . S
C215 C52 1.248 . S
C217 C26 1.236 . S
C219 C65 1.262 . S
C221 C39 1.268 . S
C223 C78 1.228 . S
C225 C104 1.226 . S
C227 C195 1.253 . S
C229 C156 1.263 . S
C231 C117 1.254 . S
C233 C130 1.268 . S
C235 C169 1.246 . S
C237 C143 1.254 . S
C239 C182 1.263 . S
C241 C5 1.330 . S
C243 C125 1.395 . S
C245 C18 1.324 . S
C247 C138 1.383 . S
C249 C151 1.378 . S
C251 C31 1.315 . S
C253 C44 1.305 . S
C255 C112 1.388 . S
C257 C57 1.331 . S
C259 C203 1.388 . S
C261 C164 1.367 . S
C263 C70 1.284 . S
C265 C177 1.382 . S
C267 C83 1.321 . S
C269 C190 1.376 . S
C271 C96 1.310 . S
C273 C21 1.388 . S
C275 C109 1.333 . S
C277 C34 1.394 . S
C279 C122 1.334 . S
C281 C135 1.313 . S
C283 C47 1.393 . S
C285 C8 1.379 . S
C287 C148 1.321 . S
C289 C161 1.322 . S
C291 C99 1.379 . S
C293 C174 1.329 . S
C295 C60 1.384 . S
C297 C73 1.374 . S
C299 C187 1.310 . S
C301 C86 1.392 . S
C303 C200 1.335 . S
C305 C10 1.502 . S
C307 C62 1.500 . S
C309 C75 1.519 . S
C311 C23 1.516 . S
C313 C36 1.518 . S
C315 C88 1.520 . S
C317 C101 1.502 . S
C319 C49 1.505 . S
C321 C114 1.505 . S
C323 C166 1.500 . S
C325 C179 1.503 . S
C327 C127 1.511 . S
C329 C192 1.514 . S
C331 C140 1.505 . S
C333 C205 1.504 . S
C335 C153 1.512 . S
