# Generated by pormake.
# Topology wmt, (6)-cn, num edge types: 1
# Building blocks:
#     Node 0, Type 0, BuildingBlock: BETDAH_clean_sbu_0, # of connection points: 6
#     Node 1, Type 0, BuildingBlock: BETDAH_clean_sbu_0, # of connection points: 6
#     Node 2, Type 0, BuildingBlock: BETDAH_clean_sbu_0, # of connection points: 6
#     Node 3, Type 0, BuildingBlock: BETDAH_clean_sbu_0, # of connection points: 6
#     Node 4, Type 0, BuildingBlock: BETDAH_clean_sbu_0, # of connection points: 6
#     Node 5, Type 0, BuildingBlock: BETDAH_clean_sbu_0, # of connection points: 6
#     Node 6, Type 0, BuildingBlock: BETDAH_clean_sbu_0, # of connection points: 6
#     Node 7, Type 0, BuildingBlock: BETDAH_clean_sbu_0, # of connection points: 6
#     Node 8, Type 0, BuildingBlock: BETDAH_clean_sbu_0, # of connection points: 6
#     Node 9, Type 0, BuildingBlock: BETDAH_clean_sbu_0, # of connection points: 6
#     Node 10, Type 0, BuildingBlock: BETDAH_clean_sbu_0, # of connection points: 6
#     Node 11, Type 0, BuildingBlock: BETDAH_clean_sbu_0, # of connection points: 6
#     Node 12, Type 0, BuildingBlock: BETDAH_clean_sbu_0, # of connection points: 6
#     Node 13, Type 0, BuildingBlock: BETDAH_clean_sbu_0, # of connection points: 6
#     Node 14, Type 0, BuildingBlock: BETDAH_clean_sbu_0, # of connection points: 6
#     Node 15, Type 0, BuildingBlock: BETDAH_clean_sbu_0, # of connection points: 6
#     Node 16, Type 0, BuildingBlock: BETDAH_clean_sbu_0, # of connection points: 6
#     Node 17, Type 0, BuildingBlock: BETDAH_clean_sbu_0, # of connection points: 6
#     Node 18, Type 0, BuildingBlock: BETDAH_clean_sbu_0, # of connection points: 6
#     Node 19, Type 0, BuildingBlock: BETDAH_clean_sbu_0, # of connection points: 6
#     Node 20, Type 0, BuildingBlock: BETDAH_clean_sbu_0, # of connection points: 6
#     Node 21, Type 0, BuildingBlock: BETDAH_clean_sbu_0, # of connection points: 6
#     Node 22, Type 0, BuildingBlock: BETDAH_clean_sbu_0, # of connection points: 6
#     Node 23, Type 0, BuildingBlock: BETDAH_clean_sbu_0, # of connection points: 6
#     Node 24, Type 0, BuildingBlock: BETDAH_clean_sbu_0, # of connection points: 6
#     Node 25, Type 0, BuildingBlock: BETDAH_clean_sbu_0, # of connection points: 6
#     Node 26, Type 0, BuildingBlock: BETDAH_clean_sbu_0, # of connection points: 6
#     Node 27, Type 0, BuildingBlock: BETDAH_clean_sbu_0, # of connection points: 6
#     Node 28, Type 0, BuildingBlock: BETDAH_clean_sbu_0, # of connection points: 6
#     Node 29, Type 0, BuildingBlock: BETDAH_clean_sbu_0, # of connection points: 6
#     Node 30, Type 0, BuildingBlock: BETDAH_clean_sbu_0, # of connection points: 6
#     Node 31, Type 0, BuildingBlock: BETDAH_clean_sbu_0, # of connection points: 6
#     Node 32, Type 0, BuildingBlock: BETDAH_clean_sbu_0, # of connection points: 6
#     Node 33, Type 0, BuildingBlock: BETDAH_clean_sbu_0, # of connection points: 6
#     Node 34, Type 0, BuildingBlock: BETDAH_clean_sbu_0, # of connection points: 6
#     Node 35, Type 0, BuildingBlock: BETDAH_clean_sbu_0, # of connection points: 6
#     Edge 36, Type (0, 0), BuildingBlock: EZIPEK_clean_linker_0, # of connection points: 2
#     Edge 37, Type (0, 0), BuildingBlock: EZIPEK_clean_linker_0, # of connection points: 2
#     Edge 38, Type (0, 0), BuildingBlock: EZIPEK_clean_linker_0, # of connection points: 2
#     Edge 39, Type (0, 0), BuildingBlock: EZIPEK_clean_linker_0, # of connection points: 2
#     Edge 40, Type (0, 0), BuildingBlock: EZIPEK_clean_linker_0, # of connection points: 2
#     Edge 41, Type (0, 0), BuildingBlock: EZIPEK_clean_linker_0, # of connection points: 2
#     Edge 42, Type (0, 0), BuildingBlock: EZIPEK_clean_linker_0, # of connection points: 2
#     Edge 43, Type (0, 0), BuildingBlock: EZIPEK_clean_linker_0, # of connection points: 2
#     Edge 44, Type (0, 0), BuildingBlock: EZIPEK_clean_linker_0, # of connection points: 2
#     Edge 45, Type (0, 0), BuildingBlock: EZIPEK_clean_linker_0, # of connection points: 2
#     Edge 46, Type (0, 0), BuildingBlock: EZIPEK_clean_linker_0, # of connection points: 2
#     Edge 47, Type (0, 0), BuildingBlock: EZIPEK_clean_linker_0, # of connection points: 2
#     Edge 48, Type (0, 0), BuildingBlock: EZIPEK_clean_linker_0, # of connection points: 2
#     Edge 49, Type (0, 0), BuildingBlock: EZIPEK_clean_linker_0, # of connection points: 2
#     Edge 50, Type (0, 0), BuildingBlock: EZIPEK_clean_linker_0, # of connection points: 2
#     Edge 51, Type (0, 0), BuildingBlock: EZIPEK_clean_linker_0, # of connection points: 2
#     Edge 52, Type (0, 0), BuildingBlock: EZIPEK_clean_linker_0, # of connection points: 2
#     Edge 53, Type (0, 0), BuildingBlock: EZIPEK_clean_linker_0, # of connection points: 2
#     Edge 54, Type (0, 0), BuildingBlock: EZIPEK_clean_linker_0, # of connection points: 2
#     Edge 55, Type (0, 0), BuildingBlock: EZIPEK_clean_linker_0, # of connection points: 2
#     Edge 56, Type (0, 0), BuildingBlock: EZIPEK_clean_linker_0, # of connection points: 2
#     Edge 57, Type (0, 0), BuildingBlock: EZIPEK_clean_linker_0, # of connection points: 2
#     Edge 58, Type (0, 0), BuildingBlock: EZIPEK_clean_linker_0, # of connection points: 2
#     Edge 59, Type (0, 0), BuildingBlock: EZIPEK_clean_linker_0, # of connection points: 2
#     Edge 60, Type (0, 0), BuildingBlock: EZIPEK_clean_linker_0, # of connection points: 2
#     Edge 61, Type (0, 0), BuildingBlock: EZIPEK_clean_linker_0, # of connection points: 2
#     Edge 62, Type (0, 0), BuildingBlock: EZIPEK_clean_linker_0, # of connection points: 2
#     Edge 63, Type (0, 0), BuildingBlock: EZIPEK_clean_linker_0, # of connection points: 2
#     Edge 64, Type (0, 0), BuildingBlock: EZIPEK_clean_linker_0, # of connection points: 2
#     Edge 65, Type (0, 0), BuildingBlock: EZIPEK_clean_linker_0, # of connection points: 2
#     Edge 66, Type (0, 0), BuildingBlock: EZIPEK_clean_linker_0, # of connection points: 2
#     Edge 67, Type (0, 0), BuildingBlock: EZIPEK_clean_linker_0, # of connection points: 2
#     Edge 68, Type (0, 0), BuildingBlock: EZIPEK_clean_linker_0, # of connection points: 2
#     Edge 69, Type (0, 0), BuildingBlock: EZIPEK_clean_linker_0, # of connection points: 2
#     Edge 70, Type (0, 0), BuildingBlock: EZIPEK_clean_linker_0, # of connection points: 2
#     Edge 71, Type (0, 0), BuildingBlock: EZIPEK_clean_linker_0, # of connection points: 2
#     Edge 72, Type (0, 0), BuildingBlock: EZIPEK_clean_linker_0, # of connection points: 2
#     Edge 73, Type (0, 0), BuildingBlock: EZIPEK_clean_linker_0, # of connection points: 2
#     Edge 74, Type (0, 0), BuildingBlock: EZIPEK_clean_linker_0, # of connection points: 2
#     Edge 75, Type (0, 0), BuildingBlock: EZIPEK_clean_linker_0, # of connection points: 2
#     Edge 76, Type (0, 0), BuildingBlock: EZIPEK_clean_linker_0, # of connection points: 2
#     Edge 77, Type (0, 0), BuildingBlock: EZIPEK_clean_linker_0, # of connection points: 2
#     Edge 78, Type (0, 0), BuildingBlock: EZIPEK_clean_linker_0, # of connection points: 2
#     Edge 79, Type (0, 0), BuildingBlock: EZIPEK_clean_linker_0, # of connection points: 2
#     Edge 80, Type (0, 0), BuildingBlock: EZIPEK_clean_linker_0, # of connection points: 2
#     Edge 81, Type (0, 0), BuildingBlock: EZIPEK_clean_linker_0, # of connection points: 2
#     Edge 82, Type (0, 0), BuildingBlock: EZIPEK_clean_linker_0, # of connection points: 2
#     Edge 83, Type (0, 0), BuildingBlock: EZIPEK_clean_linker_0, # of connection points: 2
#     Edge 84, Type (0, 0), BuildingBlock: EZIPEK_clean_linker_0, # of connection points: 2
#     Edge 85, Type (0, 0), BuildingBlock: EZIPEK_clean_linker_0, # of connection points: 2
#     Edge 86, Type (0, 0), BuildingBlock: EZIPEK_clean_linker_0, # of connection points: 2
#     Edge 87, Type (0, 0), BuildingBlock: EZIPEK_clean_linker_0, # of connection points: 2
#     Edge 88, Type (0, 0), BuildingBlock: EZIPEK_clean_linker_0, # of connection points: 2
#     Edge 89, Type (0, 0), BuildingBlock: EZIPEK_clean_linker_0, # of connection points: 2
#     Edge 90, Type (0, 0), BuildingBlock: EZIPEK_clean_linker_0, # of connection points: 2
#     Edge 91, Type (0, 0), BuildingBlock: EZIPEK_clean_linker_0, # of connection points: 2
#     Edge 92, Type (0, 0), BuildingBlock: EZIPEK_clean_linker_0, # of connection points: 2
#     Edge 93, Type (0, 0), BuildingBlock: EZIPEK_clean_linker_0, # of connection points: 2
#     Edge 94, Type (0, 0), BuildingBlock: EZIPEK_clean_linker_0, # of connection points: 2
#     Edge 95, Type (0, 0), BuildingBlock: EZIPEK_clean_linker_0, # of connection points: 2
#     Edge 96, Type (0, 0), BuildingBlock: EZIPEK_clean_linker_0, # of connection points: 2
#     Edge 97, Type (0, 0), BuildingBlock: EZIPEK_clean_linker_0, # of connection points: 2
#     Edge 98, Type (0, 0), BuildingBlock: EZIPEK_clean_linker_0, # of connection points: 2
#     Edge 99, Type (0, 0), BuildingBlock: EZIPEK_clean_linker_0, # of connection points: 2
#     Edge 100, Type (0, 0), BuildingBlock: EZIPEK_clean_linker_0, # of connection points: 2
#     Edge 101, Type (0, 0), BuildingBlock: EZIPEK_clean_linker_0, # of connection points: 2
#     Edge 102, Type (0, 0), BuildingBlock: EZIPEK_clean_linker_0, # of connection points: 2
#     Edge 103, Type (0, 0), BuildingBlock: EZIPEK_clean_linker_0, # of connection points: 2
#     Edge 104, Type (0, 0), BuildingBlock: EZIPEK_clean_linker_0, # of connection points: 2
#     Edge 105, Type (0, 0), BuildingBlock: EZIPEK_clean_linker_0, # of connection points: 2
#     Edge 106, Type (0, 0), BuildingBlock: EZIPEK_clean_linker_0, # of connection points: 2
#     Edge 107, Type (0, 0), BuildingBlock: EZIPEK_clean_linker_0, # of connection points: 2
#     Edge 108, Type (0, 0), BuildingBlock: EZIPEK_clean_linker_0, # of connection points: 2
#     Edge 109, Type (0, 0), BuildingBlock: EZIPEK_clean_linker_0, # of connection points: 2
#     Edge 110, Type (0, 0), BuildingBlock: EZIPEK_clean_linker_0, # of connection points: 2
#     Edge 111, Type (0, 0), BuildingBlock: EZIPEK_clean_linker_0, # of connection points: 2
#     Edge 112, Type (0, 0), BuildingBlock: EZIPEK_clean_linker_0, # of connection points: 2
#     Edge 113, Type (0, 0), BuildingBlock: EZIPEK_clean_linker_0, # of connection points: 2
#     Edge 114, Type (0, 0), BuildingBlock: EZIPEK_clean_linker_0, # of connection points: 2
#     Edge 115, Type (0, 0), BuildingBlock: EZIPEK_clean_linker_0, # of connection points: 2
#     Edge 116, Type (0, 0), BuildingBlock: EZIPEK_clean_linker_0, # of connection points: 2
#     Edge 117, Type (0, 0), BuildingBlock: EZIPEK_clean_linker_0, # of connection points: 2
#     Edge 118, Type (0, 0), BuildingBlock: EZIPEK_clean_linker_0, # of connection points: 2
#     Edge 119, Type (0, 0), BuildingBlock: EZIPEK_clean_linker_0, # of connection points: 2
#     Edge 120, Type (0, 0), BuildingBlock: EZIPEK_clean_linker_0, # of connection points: 2
#     Edge 121, Type (0, 0), BuildingBlock: EZIPEK_clean_linker_0, # of connection points: 2
#     Edge 122, Type (0, 0), BuildingBlock: EZIPEK_clean_linker_0, # of connection points: 2
#     Edge 123, Type (0, 0), BuildingBlock: EZIPEK_clean_linker_0, # of connection points: 2
#     Edge 124, Type (0, 0), BuildingBlock: EZIPEK_clean_linker_0, # of connection points: 2
#     Edge 125, Type (0, 0), BuildingBlock: EZIPEK_clean_linker_0, # of connection points: 2
#     Edge 126, Type (0, 0), BuildingBlock: EZIPEK_clean_linker_0, # of connection points: 2
#     Edge 127, Type (0, 0), BuildingBlock: EZIPEK_clean_linker_0, # of connection points: 2
#     Edge 128, Type (0, 0), BuildingBlock: EZIPEK_clean_linker_0, # of connection points: 2
#     Edge 129, Type (0, 0), BuildingBlock: EZIPEK_clean_linker_0, # of connection points: 2
#     Edge 130, Type (0, 0), BuildingBlock: EZIPEK_clean_linker_0, # of connection points: 2
#     Edge 131, Type (0, 0), BuildingBlock: EZIPEK_clean_linker_0, # of connection points: 2
#     Edge 132, Type (0, 0), BuildingBlock: EZIPEK_clean_linker_0, # of connection points: 2
#     Edge 133, Type (0, 0), BuildingBlock: EZIPEK_clean_linker_0, # of connection points: 2
#     Edge 134, Type (0, 0), BuildingBlock: EZIPEK_clean_linker_0, # of connection points: 2
#     Edge 135, Type (0, 0), BuildingBlock: EZIPEK_clean_linker_0, # of connection points: 2
#     Edge 136, Type (0, 0), BuildingBlock: EZIPEK_clean_linker_0, # of connection points: 2
#     Edge 137, Type (0, 0), BuildingBlock: EZIPEK_clean_linker_0, # of connection points: 2
#     Edge 138, Type (0, 0), BuildingBlock: EZIPEK_clean_linker_0, # of connection points: 2
#     Edge 139, Type (0, 0), BuildingBlock: EZIPEK_clean_linker_0, # of connection points: 2
#     Edge 140, Type (0, 0), BuildingBlock: EZIPEK_clean_linker_0, # of connection points: 2
#     Edge 141, Type (0, 0), BuildingBlock: EZIPEK_clean_linker_0, # of connection points: 2
#     Edge 142, Type (0, 0), BuildingBlock: EZIPEK_clean_linker_0, # of connection points: 2
#     Edge 143, Type (0, 0), BuildingBlock: EZIPEK_clean_linker_0, # of connection points: 2
# Relax obj value: 0.466
# Max RMSD: 0.202
# Mean RMSD: 0.202
data_MOF--net-wmt--node1-BETDAH_clean_sbu_0--edge1-EZIPEK_clean_linker_0
_symmetry_space_group_name_H-M    P1
_symmetry_Int_Tables_number       1
_symmetry_cell_setting            triclinic
loop_
_symmetry_equiv_pos_as_xyz
'x, y, z'
_cell_length_a     58.12603
_cell_length_b     58.234516
_cell_length_c     27.438923
_cell_angle_alpha  90.102768
_cell_angle_beta   89.907115
_cell_angle_gamma 119.98485
loop_
_atom_site_label
_atom_site_type_symbol
_atom_site_fract_x
_atom_site_fract_y
_atom_site_fract_z
_atom_type_partial_charge
Ho0 Ho 0.06985 0.4735 0.17807 0.0
Ho1 Ho 0.02171 0.42842 0.13461 0.0
C2 C 0.02515 0.42591 0.25013 0.0
C3 C 0.09614 0.51069 0.24139 0.0
C4 C 0.08718 0.51864 0.28706 0.0
C5 C 0.08278 0.54041 0.28692 0.0
C6 C 0.0742 0.54783 0.32922 0.0
C7 C 0.06991 0.53385 0.37322 0.0
C8 C 0.07417 0.51207 0.37354 0.0
C9 C 0.08261 0.50455 0.3312 0.0
C10 C 0.08376 0.44494 0.11546 0.0
C11 C 0.06026 0.47948 0.06591 0.0
C12 C 0.98333 0.39318 0.08162 0.0
C13 C 0.98073 0.3867 1.02988 0.0
C14 C 0.00131 0.40296 0.99809 0.0
C15 C 0.0001 0.39624 0.94948 0.0
C16 C 0.97847 0.37292 0.93207 0.0
C17 C 0.95636 0.35823 0.96211 0.0
C18 C 0.95769 0.36483 1.01149 0.0
C19 C 0.01402 0.468 0.17072 0.0
O20 O 0.04417 0.45083 0.24432 0.0
O21 O 0.0153 0.41077 0.21095 0.0
O22 O 0.09575 0.48795 0.24155 0.0
O23 O 0.08797 0.51489 0.1997 0.0
O24 O 0.09875 0.46949 0.12907 0.0
O25 O 0.06299 0.435 0.14346 0.0
O26 O 0.04469 0.4533 0.06844 0.0
O27 O 0.07036 0.49347 0.10656 0.0
O28 O -0.00042 0.38829 0.10635 0.0
O29 O 0.98672 0.41656 0.09112 0.0
O30 O -0.00155 0.443 0.17849 0.0
O31 O 0.03361 0.4695 0.14915 0.0
H32 H 0.0861 0.55187 0.25398 0.0
H33 H 0.07134 0.56482 0.32781 0.0
H34 H 0.07123 0.50099 0.40687 0.0
H35 H 0.08572 0.48773 0.33326 0.0
H36 H 0.01883 0.42031 1.01087 0.0
H37 H 0.01675 0.40856 0.9259 0.0
H38 H 0.93874 0.3413 0.94773 0.0
H39 H 0.94111 0.35271 1.0353 0.0
Ho40 Ho 0.51331 0.5889 0.17637 0.0
Ho41 Ho 0.55742 0.5839 0.13512 0.0
C42 C 0.55902 0.58918 0.25091 0.0
C43 C 0.47471 0.57949 0.23549 0.0
C44 C 0.46593 0.56385 0.28191 0.0
C45 C 0.47433 0.54564 0.29388 0.0
C46 C 0.46575 0.53063 0.33708 0.0
C47 C 0.44877 0.53361 0.36986 0.0
C48 C 0.44053 0.55194 0.35816 0.0
C49 C 0.44894 0.56681 0.31467 0.0
C50 C 0.54158 0.62889 0.10964 0.0
C51 C 0.50728 0.57114 0.06254 0.0
C52 C 0.59746 0.58607 0.09064 0.0
C53 C 0.60962 0.59463 1.04274 0.0
C54 C 0.63331 0.61894 1.03855 0.0
C55 C 0.6429 0.62958 0.99281 0.0
C56 C 0.62939 0.61555 0.95124 0.0
C57 C 0.60676 0.59046 0.95509 0.0
C58 C 0.59683 0.57999 1.00075 0.0
C59 C 0.5176 0.53732 0.17147 0.0
O60 O 0.53464 0.58504 0.24446 0.0
O61 O 0.57415 0.59407 0.21208 0.0
O62 O 0.49771 0.60161 0.23636 0.0
O63 O 0.47166 0.56583 0.19564 0.0
O64 O 0.5185 0.62258 0.12783 0.0
O65 O 0.55129 0.61856 0.13907 0.0
O66 O 0.53203 0.57553 0.06662 0.0
O67 O 0.4949 0.5733 0.10183 0.0
O68 O 0.57399 0.56482 0.0919 0.0
O69 O 0.59921 0.605 0.11886 0.0
O70 O 0.54258 0.54692 0.18017 0.0
O71 O 0.51585 0.55516 0.14941 0.0
H72 H 0.48759 0.543 0.26982 0.0
H73 H 0.47262 0.51686 0.34522 0.0
H74 H 0.42759 0.55478 0.3828 0.0
H75 H 0.44217 0.58067 0.30665 0.0
H76 H 0.64356 0.63027 0.07066 0.0
H77 H 0.66012 0.64916 0.98954 0.0
H78 H 0.59611 0.57963 0.92281 0.0
H79 H 0.57861 0.56106 1.00297 0.0
Ho80 Ho 0.40413 0.92936 0.17389 0.0
Ho81 Ho 0.40277 0.97563 0.13145 0.0
C82 C 0.40583 0.97516 0.24966 0.0
C83 C 0.4179 0.90281 0.23103 0.0
C84 C 0.43226 0.90863 0.27925 0.0
C85 C 0.45948 0.91647 0.28107 0.0
C86 C 0.47305 0.92155 0.32584 0.0
C87 C 0.45983 0.91881 0.37031 0.0
C88 C 0.43271 0.91115 0.36874 0.0
C89 C 0.41912 0.90613 0.32394 0.0
C90 C 0.35937 0.91331 0.11665 0.0
C91 C 0.41682 0.93874 0.05851 0.0
C92 C 0.39174 0.00846 0.08848 0.0
C93 C 0.37761 0.009 1.04529 0.0
C94 C 0.37622 0.99393 1.00458 0.0
C95 C 0.36601 0.99719 0.96131 0.0
C96 C 0.35716 0.01558 0.95818 0.0
C97 C 0.35642 0.02901 0.99993 0.0
C98 C 0.36668 0.02571 1.04365 0.0
C99 C 0.45257 0.98666 0.15628 0.0
O100 O 0.40823 0.95399 0.24244 0.0
O101 O 0.40119 0.98618 0.21156 0.0
O102 O 0.39388 0.89967 0.23052 0.0
O103 O 0.43195 0.91629 0.19319 0.0
O104 O 0.37067 0.89953 0.12755 0.0
O105 O 0.37024 0.93407 0.14452 0.0
O106 O 0.40948 0.95715 0.06219 0.0
O107 O 0.41782 0.92599 0.09809 0.0
O108 O 0.41348 0.00766 0.08071 0.0
O109 O 0.3771 0.99207 0.12233 0.0
O110 O 0.44351 0.00268 0.16346 0.0
O111 O 0.43379 0.96574 0.13976 0.0
H112 H 0.47037 0.91858 0.24773 0.0
H113 H 0.49391 0.9274 0.3258 0.0
H114 H 0.42197 0.90891 0.40234 0.0
H115 H 0.39824 0.90017 0.32443 0.0
H116 H 0.38408 0.98053 1.00562 0.0
H117 H 0.36679 0.98674 0.92915 0.0
H118 H 0.34976 0.04328 0.99779 0.0
H119 H 0.36739 0.03719 0.07532 0.0
Ho120 Ho 0.47583 0.0651 0.52657 0.0
Ho121 Ho 0.42857 0.0204 0.5723 0.0
C122 C 0.42867 0.01954 0.4546 0.0
C123 C 0.51458 0.09121 0.46544 0.0
C124 C 0.52195 0.08436 0.41733 0.0
C125 C 0.50944 0.05805 0.3999 0.0
C126 C 0.51716 0.05174 0.35545 0.0
C127 C 0.5374 0.07162 0.3268 0.0
C128 C 0.54977 0.09794 0.34399 0.0
C129 C 0.54218 0.1042 0.38866 0.0
C130 C 0.44905 0.08283 0.58563 0.0
C131 C 0.48197 0.05672 0.64112 0.0
C132 C 0.38681 0.99041 0.62357 0.0
C133 C 0.37861 0.9951 0.67079 0.0
C134 C 0.39284 0.0206 0.6899 0.0
C135 C 0.38606 0.02644 0.73452 0.0
C136 C 0.36593 0.0065 0.76265 0.0
C137 C 0.3519 0.98045 0.74413 0.0
C138 C 0.35792 0.97486 0.69768 0.0
C139 C 0.46469 0.00675 0.54158 0.0
O140 O 0.45305 0.0397 0.46024 0.0
O141 O 0.41338 0.00987 0.49369 0.0
O142 O 0.49305 0.09316 0.46666 0.0
O143 O 0.51634 0.07871 0.5036 0.0
O144 O 0.47404 0.09559 0.5741 0.0
O145 O 0.43831 0.06201 0.55806 0.0
O146 O 0.456 0.03881 0.63913 0.0
O147 O 0.49492 0.06893 0.60054 0.0
O148 O 0.40834 0.98868 0.62452 0.0
O149 O 0.38753 0.00631 0.58929 0.0
O150 O 0.43921 0.99188 0.53723 0.0
O151 O 0.46877 0.02824 0.5595 0.0
H152 H 0.49375 0.04224 0.42068 0.0
H153 H 0.50727 0.03129 0.34334 0.0
H154 H 0.56547 0.11368 0.32286 0.0
H155 H 0.55225 0.12461 0.40095 0.0
H156 H 0.40963 0.03587 0.67036 0.0
H157 H 0.39776 0.04633 0.74874 0.0
H158 H 0.33662 0.96455 0.76567 0.0
H159 H 0.34699 0.95486 0.68339 0.0
Ho160 Ho 0.94617 0.40802 0.53659 0.0
Ho161 Ho 0.98854 0.39808 0.57611 0.0
C162 C 0.98464 0.40138 0.45639 0.0
C163 C 0.91989 0.42202 0.47868 0.0
C164 C 0.92503 0.43512 0.42905 0.0
C165 C 0.92919 0.46104 0.42394 0.0
C166 C 0.93331 0.4732 0.37775 0.0
C167 C 0.933 0.45969 0.3349 0.0
C168 C 0.92887 0.43381 0.33974 0.0
C169 C 0.92499 0.42175 0.38597 0.0
C170 C 0.92525 0.36433 0.60013 0.0
C171 C 0.95945 0.42161 0.649 0.0
C172 C 0.02135 0.38225 0.60259 0.0
C173 C 0.02817 0.37616 0.65089 0.0
C174 C 0.01395 0.35024 0.66873 0.0
C175 C 0.01048 0.34571 0.71852 0.0
C176 C 0.02116 0.3673 0.75054 0.0
C177 C 0.04075 0.39224 0.7336 0.0
C178 C 0.04416 0.39675 0.68345 0.0
C179 C 0.00551 0.44973 0.56923 0.0
O180 O 0.96387 0.40423 0.4649 0.0
O181 O 0.99681 0.39759 0.49384 0.0
O182 O 0.91613 0.39785 0.48074 0.0
O183 O 0.93404 0.43653 0.51563 0.0
O184 O 0.91496 0.37885 0.5889 0.0
O185 O 0.94469 0.37114 0.56976 0.0
O186 O 0.9708 0.40633 0.64608 0.0
O187 O 0.95287 0.42949 0.60851 0.0
O188 O 0.028 0.40689 0.59587 0.0
O189 O -0.0025 0.36613 0.58595 0.0
O190 O 0.01243 0.43877 0.60264 0.0
O191 O 0.99009 0.43208 0.53875 0.0
H192 H 0.92898 0.47193 0.45577 0.0
H193 H 0.93635 0.49309 0.3754 0.0
H194 H 0.92846 0.42282 0.30756 0.0
H195 H 0.92165 0.40175 0.38778 0.0
H196 H 0.00156 0.3342 0.64497 0.0
H197 H 0.99585 0.32615 0.73104 0.0
H198 H 0.05001 0.40898 0.75828 0.0
H199 H 0.05649 0.4169 0.67073 0.0
Ho200 Ho 0.58908 0.52518 0.52632 0.0
Ho201 Ho 0.58918 0.57265 0.56909 0.0
C202 C 0.5876 0.57017 0.45253 0.0
C203 C 0.57724 0.4862 0.46629 0.0
C204 C 0.5629 0.47742 0.41783 0.0
C205 C 0.53633 0.45647 0.41533 0.0
C206 C 0.52303 0.4476 0.37025 0.0
C207 C 0.53588 0.4592 0.32601 0.0
C208 C 0.56235 0.4802 0.32826 0.0
C209 C 0.57564 0.48916 0.37336 0.0
C210 C 0.63236 0.55371 0.58718 0.0
C211 C 0.574 0.52117 0.64122 0.0
C212 C 0.59866 0.61532 0.61465 0.0
C213 C 0.60353 0.62377 0.6651 0.0
C214 C 0.62245 0.65002 0.67606 0.0
C215 C 0.6336 0.65644 0.72234 0.0
C216 C 0.62362 0.6371 0.75884 0.0
C217 C 0.60199 0.6118 0.74928 0.0
C218 C 0.59249 0.60488 0.70224 0.0
C219 C 0.54017 0.53374 0.5407 0.0
O220 O 0.58304 0.54575 0.4597 0.0
O221 O 0.59509 0.58662 0.49004 0.0
O222 O 0.60054 0.50801 0.46718 0.0
O223 O 0.56298 0.48411 0.50494 0.0
O224 O 0.6237 0.52965 0.57161 0.0
O225 O 0.62152 0.56334 0.55865 0.0
O226 O 0.58002 0.54652 0.63743 0.0
O227 O 0.57426 0.50777 0.60175 0.0
O228 O 0.57488 0.59592 0.60518 0.0
O229 O 0.61719 0.61199 0.59452 0.0
O230 O 0.54947 0.55874 0.53289 0.0
O231 O 0.55858 0.53148 0.55916 0.0
H232 H 0.52578 0.44673 0.44838 0.0
H233 H 0.50268 0.43141 0.36988 0.0
H234 H 0.57282 0.48963 0.29495 0.0
H235 H 0.59603 0.50524 0.37324 0.0
H236 H 0.62939 0.66514 0.6484 0.0
H237 H 0.6502 0.67611 0.72927 0.0
H238 H 0.59394 0.59677 0.77749 0.0
H239 H 0.57754 0.58454 0.69459 0.0
Ho240 Ho 0.97922 0.56423 0.07275 0.0
Ho241 Ho 0.93127 0.51648 1.03136 0.0
C242 C 0.94499 0.5119 0.14304 0.0
C243 C 0.01399 0.60617 0.11773 0.0
C244 C 0.01427 0.6186 0.16365 0.0
C245 C 0.99011 0.61255 0.18544 0.0
C246 C 0.98961 0.61948 0.23353 0.0
C247 C 0.01322 0.63196 0.26028 0.0
C248 C 0.03768 0.63984 0.2377 0.0
C249 C 0.03818 0.63316 0.18909 0.0
C250 C 0.9899 0.5262 1.03966 0.0
C251 C 0.97525 0.56209 0.95601 0.0
C252 C 0.9063 0.47842 0.96865 0.0
C253 C 0.91598 0.47061 0.92333 0.0
C254 C 0.92057 0.44894 0.92373 0.0
C255 C 0.92917 0.44137 0.88143 0.0
C256 C 0.93338 0.4551 0.83704 0.0
C257 C 0.92915 0.47691 0.83664 0.0
C258 C 0.92068 0.48456 0.87892 0.0
C259 C 0.91799 0.54618 0.09343 0.0
O260 O 0.95938 0.53845 0.14106 0.0
O261 O 0.93489 0.49817 0.10205 0.0
O262 O 0.01247 0.58312 0.1221 0.0
O263 O -0.00225 0.60613 0.08484 0.0
O264 O 0.00546 0.55146 1.03448 0.0
O265 O 0.96928 0.52375 0.05881 0.0
O266 O 0.95517 0.53797 0.96354 0.0
O267 O 0.98634 0.57815 0.99355 0.0
O268 O 0.90579 0.50069 0.96752 0.0
O269 O 0.91427 0.47485 1.01114 0.0
O270 O 0.90235 0.52148 0.08071 0.0
O271 O 0.93765 0.55511 0.0633 0.0
H272 H 0.97158 0.60096 0.16626 0.0
H273 H 0.97063 0.61329 0.25093 0.0
H274 H 0.05595 0.64942 0.25849 0.0
H275 H 0.05692 0.63775 0.17245 0.0
H276 H 0.91727 0.43759 0.95681 0.0
H277 H 0.93206 0.4244 0.88315 0.0
H278 H 0.93208 0.48791 0.80322 0.0
H279 H 0.91759 0.50139 0.87655 0.0
Ho280 Ho 0.43026 0.40568 0.06266 0.0
Ho281 Ho 0.47709 0.40603 1.02311 0.0
C282 C 0.48153 0.42107 0.13558 0.0
C283 C 0.39067 0.40104 0.11288 0.0
C284 C 0.38516 0.39304 0.1633 0.0
C285 C 0.39982 0.38263 0.18407 0.0
C286 C 0.39653 0.37538 0.23214 0.0
C287 C 0.37788 0.37775 0.26035 0.0
C288 C 0.36435 0.39004 0.24106 0.0
C289 C 0.36801 0.39772 0.19205 0.0
C290 C 0.46831 0.45502 1.03472 0.0
C291 C 0.43284 0.40669 0.947 0.0
C292 C 0.51561 0.41624 0.9628 0.0
C293 C 0.52425 0.43212 0.91643 0.0
C294 C 0.51931 0.45318 0.90836 0.0
C295 C 0.52744 0.46809 0.86496 0.0
C296 C 0.54059 0.46227 0.82807 0.0
C297 C 0.54537 0.4411 0.83582 0.0
C298 C 0.53736 0.42627 0.87944 0.0
C299 C 0.44715 0.36152 0.0814 0.0
O300 O 0.4553 0.41055 0.13143 0.0
O301 O 0.49605 0.42477 0.0957 0.0
O302 O 0.41273 0.42338 0.1073 0.0
O303 O 0.38888 0.3826 0.08319 0.0
O304 O 0.44347 0.44412 1.02343 0.0
O305 O 0.47128 0.43717 0.05371 0.0
O306 O 0.45749 0.41229 0.95553 0.0
O307 O 0.416 0.39914 0.98392 0.0
O308 O 0.49274 0.39407 0.96192 0.0
O309 O 0.51869 0.42951 1.00316 0.0
O310 O 0.47252 0.37322 0.07289 0.0
O311 O 0.43789 0.37214 0.05168 0.0
H312 H 0.41365 0.3797 0.16285 0.0
H313 H 0.40818 0.36724 0.24709 0.0
H314 H 0.35065 0.39295 0.26341 0.0
H315 H 0.35744 0.40692 0.17667 0.0
H316 H 0.50902 0.45807 0.93561 0.0
H317 H 0.52327 0.4841 0.86 0.0
H318 H 0.55532 0.43602 0.80801 0.0
H319 H 0.54138 0.41015 0.88423 0.0
Ho320 Ho 0.58785 0.01004 0.07072 0.0
Ho321 Ho 0.59054 0.05796 1.02811 0.0
C322 C 0.57325 0.04836 0.14041 0.0
C323 C 0.59344 0.97252 0.11026 0.0
C324 C 0.60699 0.96725 0.14986 0.0
C325 C 0.63382 0.98486 0.15955 0.0
C326 C 0.644 0.98532 0.20547 0.0
C327 C 0.62718 0.96865 0.24186 0.0
C328 C 0.60221 0.94731 0.22922 0.0
C329 C 0.59197 0.94676 0.18296 0.0
C330 C 0.53932 0.00086 1.04042 0.0
C331 C 0.58788 0.0121 0.95296 0.0
C332 C 0.58215 0.08752 0.9677 0.0
C333 C 0.5675 0.08251 0.91991 0.0
C334 C 0.54394 0.05842 0.91038 0.0
C335 C 0.52984 0.05425 0.86627 0.0
C336 C 0.53895 0.07401 0.83002 0.0
C337 C 0.5627 0.09795 0.8392 0.0
C338 C 0.5767 0.10215 0.88346 0.0
C339 C 0.63324 0.07043 0.08985 0.0
O340 O 0.58051 0.02975 0.13883 0.0
O341 O 0.57351 0.06115 0.1001 0.0
O342 O 0.57555 0.97855 0.12368 0.0
O343 O 0.60821 0.98756 0.07467 0.0
O344 O 0.54833 0.98488 1.03346 0.0
O345 O 0.55793 0.0215 0.05847 0.0
O346 O 0.58396 0.03228 0.96027 0.0
O347 O 0.59357 0.00195 0.99102 0.0
O348 O 0.60408 0.08626 0.96789 0.0
O349 O 0.56771 0.07649 1.00662 0.0
O350 O 0.62389 0.08587 0.07836 0.0
O351 O 0.62251 0.05053 0.06021 0.0
H352 H 0.64585 0.00042 0.13412 0.0
H353 H 0.66357 0.00121 0.21474 0.0
H354 H 0.58918 0.9339 0.257 0.0
H355 H 0.57139 0.9324 0.17534 0.0
H356 H 0.53637 0.04278 0.93722 0.0
H357 H 0.51181 0.0355 0.86037 0.0
H358 H 0.57041 0.11351 0.81203 0.0
H359 H 0.59474 0.1209 0.88929 0.0
Ho360 Ho 0.56707 0.97107 0.63098 0.0
Ho361 Ho 0.51781 0.92669 0.67311 0.0
C362 C 0.51512 0.93699 0.55944 0.0
C363 C 0.60923 0.00295 0.58245 0.0
C364 C 0.61848 0.00173 0.53389 0.0
C365 C 0.60143 0.98127 0.50273 0.0
C366 C 0.60909 0.98034 0.45546 0.0
C367 C 0.63397 -0.00019 0.43865 0.0
C368 C 0.65104 0.02071 0.46931 0.0
C369 C 0.64341 0.02149 0.51732 0.0
C370 C 0.53103 0.98547 0.65931 0.0
C371 C 0.56517 0.96934 0.74783 0.0
C372 C 0.47743 0.90033 0.73102 0.0
C373 C 0.4691 0.90643 0.77887 0.0
C374 C 0.48162 0.93237 0.79802 0.0
C375 C 0.47329 0.93794 0.84258 0.0
C376 C 0.45225 0.91769 0.86933 0.0
C377 C 0.43973 0.89178 0.85022 0.0
C378 C 0.44805 0.88623 0.8056 0.0
C379 C 0.54442 0.90869 0.61338 0.0
O380 O 0.54157 0.951 0.56284 0.0
O381 O 0.50042 0.92796 0.59969 0.0
O382 O 0.5877 0.00463 0.58315 0.0
O383 O 0.60816 0.98537 0.6132 0.0
O384 O 0.55627 -0.00062 0.66732 0.0
O385 O 0.52704 0.96423 0.64088 0.0
O386 O 0.53995 0.95147 0.74043 0.0
O387 O 0.58151 0.97773 0.70999 0.0
O388 O 0.4986 0.89775 0.73114 0.0
O389 O 0.47706 0.91389 0.69332 0.0
O390 O 0.51931 0.89628 0.62444 0.0
O391 O 0.55518 0.92883 0.64248 0.0
H392 H 0.58203 0.96614 0.51466 0.0
H393 H 0.59536 0.96461 0.43153 0.0
H394 H 0.66955 0.03673 0.45562 0.0
H395 H 0.65651 0.03774 0.54091 0.0
H396 H 0.49783 0.94843 0.77853 0.0
H397 H 0.48335 0.95808 0.85632 0.0
H398 H 0.4235 0.87578 0.86994 0.0
H399 H 0.43794 0.86609 0.79189 0.0
Ho400 Ho 0.01437 0.58913 0.63399 0.0
Ho401 Ho 0.05647 0.58017 0.67254 0.0
C402 C 0.04332 0.56681 0.56014 0.0
C403 C 0.98541 0.60909 0.60867 0.0
C404 C 0.98031 0.61553 0.5598 0.0
C405 C -0.0021 0.64048 0.54048 0.0
C406 C -7e-05 0.64412 0.49055 0.0
C407 C 0.98386 0.62321 0.45955 0.0
C408 C 0.96357 0.59935 0.47865 0.0
C409 C 0.96184 0.59544 0.52889 0.0
C410 C -0.00264 0.53765 0.63668 0.0
C411 C 0.01876 0.58681 0.75232 0.0
C412 C 0.08333 0.56568 0.72828 0.0
C413 C 0.07973 0.55318 0.77809 0.0
C414 C 0.07582 0.52734 0.78291 0.0
C415 C 0.07314 0.51563 0.82914 0.0
C416 C 0.0745 0.52945 0.87221 0.0
C417 C 0.07835 0.55523 0.86764 0.0
C418 C 0.08098 0.56694 0.82139 0.0
C419 C 0.07603 0.62372 0.60836 0.0
O420 O 0.03194 0.582 0.5632 0.0
O421 O 0.04978 0.5589 0.6006 0.0
O422 O 0.97585 0.58392 0.61706 0.0
O423 O 0.00985 0.6234 0.62426 0.0
O424 O 0.99076 0.54935 0.604 0.0
O425 O 0.01246 0.5544 0.66914 0.0
O426 O 0.04242 0.58983 0.74329 0.0
O427 O 0.00353 0.58519 0.71523 0.0
O428 O 0.08772 0.59003 0.72591 0.0
O429 O 0.06758 0.55091 0.69326 0.0
O430 O 0.08604 0.60867 0.61707 0.0
O431 O 0.05756 0.61657 0.6406 0.0
H432 H 0.01184 0.65636 0.56367 0.0
H433 H 0.01545 0.66254 0.47578 0.0
H434 H 0.95083 0.58309 0.45474 0.0
H435 H 0.94762 0.57608 0.54297 0.0
H436 H 0.07494 0.51613 0.75077 0.0
H437 H 0.07001 0.4957 0.83129 0.0
H438 H 0.07924 0.56632 0.9 0.0
H439 H 0.08395 0.58681 0.81967 0.0
Ho440 Ho 0.40159 0.425 0.63105 0.0
Ho441 Ho 0.40239 0.47194 0.67169 0.0
C442 C 0.41538 0.47547 0.55716 0.0
C443 C 0.39104 0.38094 0.58978 0.0
C444 C 0.37884 0.36804 0.54445 0.0
C445 C 0.37394 0.38238 0.50938 0.0
C446 C 0.36632 0.37214 0.46306 0.0
C447 C 0.36365 0.3475 0.45146 0.0
C448 C 0.36641 0.33217 0.4874 0.0
C449 C 0.3747 0.34272 0.53384 0.0
C450 C 0.45156 0.46331 0.65561 0.0
C451 C 0.40622 0.42941 0.74747 0.0
C452 C 0.4125 0.51129 0.72985 0.0
C453 C 0.42635 0.52036 0.77823 0.0
C454 C 0.44423 0.51237 0.7946 0.0
C455 C 0.45743 0.52114 0.83967 0.0
C456 C 0.453 0.53807 0.87002 0.0
C457 C 0.43503 0.54601 0.85384 0.0
C458 C 0.42192 0.5373 0.80856 0.0
C459 C 0.35798 0.44293 0.61302 0.0
O460 O 0.40835 0.44981 0.56119 0.0
O461 O 0.41653 0.48936 0.59666 0.0
O462 O 0.37525 0.38292 0.62122 0.0
O463 O 0.41341 0.40308 0.58444 0.0
O464 O 0.44182 0.43835 0.6646 0.0
O465 O 0.43326 0.46618 0.63832 0.0
O466 O 0.40995 0.45337 0.73934 0.0
O467 O 0.39898 0.4126 0.7107 0.0
O468 O 0.38973 0.48895 0.72939 0.0
O469 O 0.42736 0.51318 0.69234 0.0
O470 O 0.36962 0.46809 0.62288 0.0
O471 O 0.36838 0.43318 0.64239 0.0
H472 H 0.37761 0.40216 0.51699 0.0
H473 H 0.36481 0.38445 0.43508 0.0
H474 H 0.36478 0.3135 0.47787 0.0
H475 H 0.37923 0.3318 0.56035 0.0
H476 H 0.44798 0.49927 0.77251 0.0
H477 H 0.47107 0.51462 0.85098 0.0
H478 H 0.43111 0.55897 0.87635 0.0
H479 H 0.40829 0.54384 0.79722 0.0
Ho480 Ho 0.72121 0.80215 0.5001 0.0
Ho481 Ho 0.67514 0.75321 0.46175 0.0
C482 C 0.67896 0.7567 0.57841 0.0
C483 C 0.74708 0.84159 0.56 0.0
C484 C 0.73984 0.85005 0.60735 0.0
C485 C 0.72985 0.86775 0.60763 0.0
C486 C 0.72344 0.87595 0.65166 0.0
C487 C 0.727 0.86697 0.69714 0.0
C488 C 0.73702 0.84935 0.6971 0.0
C489 C 0.74335 0.84107 0.65306 0.0
C490 C 0.73806 0.77554 0.43851 0.0
C491 C 0.70865 0.80434 0.38675 0.0
C492 C 0.6384 0.71108 0.41876 0.0
C493 C 0.63345 0.70036 0.36922 0.0
C494 C 0.64299 0.71779 0.32961 0.0
C495 C 0.63949 0.70799 0.28259 0.0
C496 C 0.62579 0.68053 0.274 0.0
C497 C 0.61569 0.66298 0.3134 0.0
C498 C 0.61938 0.67287 0.36103 0.0
C499 C 0.66296 0.7908 0.49091 0.0
O500 O 0.69634 0.78179 0.5688 0.0
O501 O 0.67068 0.73973 0.54153 0.0
O502 O 0.74899 0.82003 0.56042 0.0
O503 O 0.73588 0.84338 0.51985 0.0
O504 O 0.75151 0.80038 0.4511 0.0
O505 O 0.71798 0.76426 0.46823 0.0
O506 O 0.6929 0.77804 0.39134 0.0
O507 O 0.7198 0.81927 0.42625 0.0
O508 O 0.63807 0.73315 0.42343 0.0
O509 O 0.65804 0.71143 0.44261 0.0
O510 O 0.64926 0.76597 0.50187 0.0
O511 O 0.68337 0.79363 0.47047 0.0
H512 H 0.72715 0.87553 0.57367 0.0
H513 H 0.71598 0.88966 0.65021 0.0
H514 H 0.7402 0.84215 0.73136 0.0
H515 H 0.75125 0.82775 0.65494 0.0
H516 H 0.65386 0.73906 0.33498 0.0
H517 H 0.64775 0.72195 0.25271 0.0
H518 H 0.60526 0.64187 0.30729 0.0
H519 H 0.61177 0.65916 0.39137 0.0
Ho520 Ho 0.20043 0.92651 0.50466 0.0
Ho521 Ho 0.24869 0.92932 0.46642 0.0
C522 C 0.2415 0.92736 0.58642 0.0
C523 C 0.1606 0.91506 0.56259 0.0
C524 C 0.15166 0.90134 0.61177 0.0
C525 C 0.13124 0.87458 0.61508 0.0
C526 C 0.12248 0.86171 0.66061 0.0
C527 C 0.1336 0.87516 0.70468 0.0
C528 C 0.15398 0.90188 0.70164 0.0
C529 C 0.16283 0.91474 0.65607 0.0
C530 C 0.22919 0.97067 0.44337 0.0
C531 C 0.19598 0.91157 0.39187 0.0
C532 C 0.29475 0.93402 0.44803 0.0
C533 C 0.30486 0.92814 0.40348 0.0
C534 C 0.3265 0.94915 0.38034 0.0
C535 C 0.32581 0.95141 0.33 0.0
C536 C 0.30456 0.9315 0.30314 0.0
C537 C 0.28869 0.90677 0.32539 0.0
C538 C 0.28814 0.90533 0.37615 0.0
C539 C 0.20972 0.88025 0.46343 0.0
O540 O 0.21914 0.92699 0.5776 0.0
O541 O 0.2569 0.92977 0.54892 0.0
O542 O 0.18215 0.93854 0.56105 0.0
O543 O 0.15911 0.90038 0.52498 0.0
O544 O 0.20378 0.95823 0.45169 0.0
O545 O 0.2392 0.96152 0.47468 0.0
O546 O 0.22268 0.92189 0.39482 0.0
O547 O 0.18229 0.90898 0.43214 0.0
O548 O 0.27551 0.91373 0.47002 0.0
O549 O 0.29008 0.95368 0.4447 0.0
O550 O 0.22722 0.89177 0.42948 0.0
O551 O 0.2132 0.8962 0.49879 0.0
H552 H 0.12183 0.8635 0.58227 0.0
H553 H 0.10677 0.84117 0.66143 0.0
H554 H 0.16304 0.91288 0.7347 0.0
H555 H 0.1784 0.93532 0.65566 0.0
H556 H 0.341 0.96597 0.40112 0.0
H557 H 0.34009 0.96997 0.31348 0.0
H558 H 0.27346 0.8903 0.30479 0.0
H559 H 0.27224 0.88794 0.39339 0.0
Ho560 Ho 0.07105 0.26388 0.50588 0.0
Ho561 Ho 0.07451 0.31319 0.46688 0.0
C562 C 0.07093 0.30812 0.58297 0.0
C563 C 0.08065 0.23498 0.56567 0.0
C564 C 0.09734 0.24202 0.61129 0.0
C565 C 0.11557 0.2686 0.62358 0.0
C566 C 0.13147 0.27505 0.66585 0.0
C567 C 0.12924 0.25517 0.69799 0.0
C568 C 0.11076 0.22861 0.68609 0.0
C569 C 0.0952 0.22214 0.64328 0.0
C570 C 0.02928 0.2517 0.44265 0.0
C571 C 0.08753 0.2769 0.39276 0.0
C572 C 0.07267 0.35307 0.42917 0.0
C573 C 0.06117 0.35925 0.38736 0.0
C574 C 0.03401 0.34374 0.37754 0.0
C575 C 0.02485 0.34239 0.33055 0.0
C576 C 0.04282 0.3565 0.29339 0.0
C577 C 0.06873 0.37635 0.30513 0.0
C578 C 0.07804 0.37754 0.35244 0.0
C579 C 0.12239 0.31952 0.49857 0.0
O580 O 0.07603 0.28873 0.5748 0.0
O581 O 0.06512 0.31829 0.54535 0.0
O582 O 0.05907 0.2368 0.5677 0.0
O583 O 0.09334 0.24429 0.52449 0.0
O584 O 0.03811 0.23605 0.45583 0.0
O585 O 0.03965 0.27179 0.47235 0.0
O586 O 0.07818 0.29362 0.39681 0.0
O587 O 0.09036 0.26523 0.43246 0.0
O588 O 0.09097 0.34705 0.4187 0.0
O589 O 0.05605 0.33732 0.46221 0.0
O590 O 0.1143 0.33627 0.50553 0.0
O591 O 0.10329 0.30037 0.47848 0.0
H592 H 0.11752 0.28455 0.60063 0.0
H593 H 0.14522 0.29569 0.674 0.0
H594 H 0.10837 0.2128 0.71005 0.0
H595 H 0.08134 0.20151 0.63529 0.0
H596 H 0.02062 0.32965 0.40381 0.0
H597 H 0.0047 0.32754 0.32197 0.0
H598 H 0.08266 0.3879 0.27667 0.0
H599 H 0.09898 0.39035 0.35998 0.0
Ho600 Ho 0.13684 0.3915 0.86392 0.0
Ho601 Ho 0.08443 0.35234 0.90655 0.0
C602 C 0.08983 0.35164 0.78747 0.0
C603 C 0.17729 0.41571 0.80551 0.0
C604 C 0.18515 0.40973 0.75664 0.0
C605 C 0.20778 0.40689 0.75235 0.0
C606 C 0.21603 0.40233 0.70673 0.0
C607 C 0.20206 0.4007 0.66377 0.0
C608 C 0.1793 0.40329 0.66788 0.0
C609 C 0.17093 0.40768 0.71356 0.0
C610 C 0.11497 0.41516 0.92387 0.0
C611 C 0.13731 0.38119 0.97752 0.0
C612 C 0.03801 0.32511 0.94421 0.0
C613 C 0.03281 0.32391 0.99624 0.0
C614 C 0.05096 0.34518 1.02484 0.0
C615 C 0.04812 0.34468 0.07474 0.0
C616 C 0.02755 0.32244 0.09713 0.0
C617 C 0.01059 0.29999 0.06948 0.0
C618 C 0.01285 0.30092 1.01862 0.0
C619 C 0.11764 0.33343 0.90402 0.0
O620 O 0.1139 0.37215 0.79402 0.0
O621 O 0.07404 0.34093 0.82584 0.0
O622 O 0.15737 0.42032 0.80665 0.0
O623 O 0.17701 0.40162 0.84302 0.0
O624 O 0.13975 0.42358 0.91462 0.0
O625 O 0.10243 0.39545 0.89447 0.0
O626 O 0.11102 0.37161 0.97447 0.0
O627 O 0.15165 0.38626 0.93701 0.0
O628 O 0.05231 0.31461 0.93163 0.0
O629 O 0.04643 0.34831 0.92425 0.0
O630 O 0.1002 0.32857 0.9375 0.0
O631 O 0.11579 0.34789 0.87111 0.0
H632 H 0.21933 0.40847 0.7844 0.0
H633 H 0.23362 0.40043 0.70486 0.0
H634 H 0.16804 0.40205 0.63558 0.0
H635 H 0.15341 0.4097 0.71495 0.0
H636 H 0.06755 0.36223 1.00862 0.0
H637 H 0.06213 0.36164 0.09605 0.0
H638 H 0.99585 0.28202 0.08719 0.0
H639 H -0.00041 0.28373 0.99708 0.0
Ho640 Ho 0.58683 0.73299 0.8562 0.0
Ho641 Ho 0.63573 0.74066 0.90249 0.0
C642 C 0.63522 0.7366 0.78454 0.0
C643 C 0.5568 0.73938 0.79366 0.0
C644 C 0.56178 0.75284 0.74496 0.0
C645 C 0.58773 0.76917 0.72691 0.0
C646 C 0.59215 0.7825 0.68197 0.0
C647 C 0.57074 0.78006 0.65395 0.0
C648 C 0.54483 0.76366 0.67186 0.0
C649 C 0.54042 0.75025 0.7167 0.0
C650 C 0.5756 0.69215 0.9212 0.0
C651 C 0.59375 0.75159 0.96804 0.0
C652 C 0.67443 0.74259 0.9533 0.0
C653 C 0.67801 0.73439 1.00221 0.0
C654 C 0.67468 0.70904 1.00919 0.0
C655 C 0.66853 0.69772 0.05545 0.0
C656 C 0.66623 0.71183 0.09489 0.0
C657 C 0.67565 0.73906 0.08972 0.0
C658 C 0.68104 0.75024 1.04323 0.0
C659 C 0.64119 0.78633 0.86489 0.0
O660 O 0.61255 0.73657 0.78926 0.0
O661 O 0.64715 0.73525 0.82469 0.0
O662 O 0.55844 0.71774 0.79624 0.0
O663 O 0.56801 0.75492 0.83118 0.0
O664 O 0.55929 0.69995 0.90682 0.0
O665 O 0.59627 0.70359 0.89312 0.0
O666 O 0.61396 0.74665 0.96824 0.0
O667 O 0.58072 0.74933 0.92689 0.0
O668 O 0.6684 0.76135 0.95223 0.0
O669 O 0.66028 0.72365 0.92214 0.0
O670 O 0.65777 0.77805 0.85832 0.0
O671 O 0.62147 0.76789 0.88565 0.0
H672 H 0.6047 0.77189 0.74773 0.0
H673 H 0.61233 0.79491 0.66921 0.0
H674 H 0.52793 0.76128 0.65112 0.0
H675 H 0.52023 0.73798 0.72952 0.0
H676 H 0.67361 0.69687 0.97841 0.0
H677 H 0.66273 0.67709 0.05939 0.0
H678 H 0.67545 0.75068 0.12043 0.0
H679 H 0.6851 0.77043 1.03915 0.0
Ho680 Ho 0.25532 0.85415 0.86331 0.0
Ho681 Ho 0.25591 0.90189 0.9093 0.0
C682 C 0.25884 0.90273 0.79249 0.0
C683 C 0.24374 0.81648 0.79973 0.0
C684 C 0.22726 0.80762 0.75369 0.0
C685 C 0.20998 0.81708 0.74072 0.0
C686 C 0.19414 0.80797 0.69815 0.0
C687 C 0.19552 0.78954 0.66648 0.0
C688 C 0.21296 0.78029 0.67937 0.0
C689 C 0.22844 0.78908 0.72228 0.0
C690 C 0.29829 0.88187 0.92608 0.0
C691 C 0.23803 0.84783 0.97586 0.0
C692 C 0.2601 0.93977 0.96506 0.0
C693 C 0.26677 0.94503 1.01673 0.0
C694 C 0.27145 0.92721 1.04292 0.0
C695 C 0.2756 0.92999 0.09261 0.0
C696 C 0.27568 0.95103 0.11714 0.0
C697 C 0.27122 0.96929 0.09149 0.0
C698 C 0.26666 0.96621 1.04106 0.0
C699 C 0.20778 0.86439 0.87282 0.0
O700 O 0.25256 0.87765 0.79824 0.0
O701 O 0.26521 0.9183 0.83149 0.0
O702 O 0.26589 0.83939 0.79882 0.0
O703 O 0.23097 0.81304 0.84085 0.0
O704 O 0.28768 0.85713 0.91287 0.0
O705 O 0.28799 0.89203 0.89774 0.0
O706 O 0.24947 0.8742 0.97439 0.0
O707 O 0.23469 0.83425 0.93466 0.0
O708 O 0.2378 0.91797 0.95678 0.0
O709 O 0.27911 0.94207 0.93642 0.0
O710 O 0.21749 0.88976 0.86914 0.0
O711 O 0.22555 0.86176 0.89277 0.0
H712 H 0.20873 0.83163 0.7634 0.0
H713 H 0.18111 0.81567 0.68947 0.0
H714 H 0.21466 0.7662 0.65599 0.0
H715 H 0.24146 0.78135 0.7309 0.0
H716 H 0.27214 0.91115 1.0251 0.0
H717 H 0.27921 0.91586 0.11195 0.0
H718 H 0.27131 0.9857 0.11031 0.0
H719 H 0.26288 0.98007 1.0213 0.0
Ho720 Ho 0.63209 0.88905 0.39869 0.0
Ho721 Ho 0.58313 0.84884 0.35431 0.0
C722 C 0.59051 0.83716 0.46558 0.0
C723 C 0.67035 0.92462 0.45109 0.0
C724 C 0.67157 0.93293 0.50139 0.0
C725 C 0.65018 0.9175 0.53228 0.0
C726 C 0.64973 0.92598 0.57911 0.0
C727 C 0.67072 0.95005 0.59572 0.0
C728 C 0.69303 0.96484 0.56614 0.0
C729 C 0.69325 0.9565 0.51845 0.0
C730 C 0.63707 0.84864 0.36049 0.0
C731 C 0.63053 0.8938 0.28263 0.0
C732 C 0.55249 0.81375 0.29074 0.0
C733 C 0.55848 0.80558 0.24262 0.0
C734 C 0.58454 0.81184 0.23022 0.0
C735 C 0.58994 0.80326 0.18581 0.0
C736 C 0.56944 0.78825 0.15247 0.0
C737 C 0.54346 0.78227 0.16452 0.0
C738 C 0.53805 0.79081 0.20903 0.0
C739 C 0.57302 0.87918 0.41983 0.0
O740 O 0.61107 0.8619 0.46439 0.0
O741 O 0.57679 0.82639 0.42505 0.0
O742 O 0.66601 0.90056 0.44548 0.0
O743 O 0.65531 0.92952 0.42291 0.0
O744 O 0.65354 0.87352 0.35302 0.0
O745 O 0.61742 0.8474 0.38176 0.0
O746 O 0.60944 0.86999 0.28771 0.0
O747 O 0.64149 0.90772 0.32262 0.0
O748 O 0.55545 0.83758 0.2935 0.0
O749 O 0.56199 0.80811 0.32924 0.0
O750 O 0.55668 0.85497 0.40621 0.0
O751 O 0.59332 0.88797 0.39103 0.0
H752 H 0.63342 0.89931 0.51976 0.0
H753 H 0.63272 0.914 0.6022 0.0
H754 H 0.70994 0.9827 0.57985 0.0
H755 H 0.71006 0.96842 0.49497 0.0
H756 H 0.60078 0.8232 0.25509 0.0
H757 H 0.61014 0.80821 0.17757 0.0
H758 H 0.52728 0.77077 0.13956 0.0
H759 H 0.51781 0.78564 0.21739 0.0
Ho760 Ho 0.08156 0.73339 0.40552 0.0
Ho761 Ho 0.12998 0.73807 0.36555 0.0
C762 C 0.13497 0.75305 0.47867 0.0
C763 C 0.03426 0.7244 0.42689 0.0
C764 C 0.02406 0.72784 0.47364 0.0
C765 C 0.0048 0.70518 0.49752 0.0
C766 C 0.0058 0.70378 0.54786 0.0
C767 C 0.02501 0.72558 0.57421 0.0
C768 C 0.03879 0.75035 0.5513 0.0
C769 C 0.03885 0.7514 0.50055 0.0
C770 C 0.11876 0.78307 0.40793 0.0
C771 C 0.08855 0.73732 0.28536 0.0
C772 C 0.17023 0.75169 0.30717 0.0
C773 C 0.17898 0.76555 0.25807 0.0
C774 C 0.20084 0.79159 0.25476 0.0
C775 C 0.20985 0.80454 0.20935 0.0
C776 C 0.19749 0.79191 0.16534 0.0
C777 C 0.17552 0.76597 0.1684 0.0
C778 C 0.16641 0.75303 0.21389 0.0
C779 C 0.1031 0.6938 0.42735 0.0
O780 O 0.10819 0.74196 0.47652 0.0
O781 O 0.14839 0.75591 0.43792 0.0
O782 O 0.05241 0.74606 0.40649 0.0
O783 O 0.04047 0.70575 0.42576 0.0
O784 O 0.10179 0.77104 0.44259 0.0
O785 O 0.11588 0.76736 0.37246 0.0
O786 O 0.10953 0.73489 0.2931 0.0
O787 O 0.07428 0.7366 0.3236 0.0
O788 O 0.14944 0.72768 0.30868 0.0
O789 O 0.1708 0.76602 0.3446 0.0
O790 O 0.12848 0.7072 0.41867 0.0
O791 O 0.09227 0.70213 0.39618 0.0
H792 H 0.99193 0.68742 0.47738 0.0
H793 H 0.99383 0.68488 0.5654 0.0
H794 H 0.05278 0.76775 0.5716 0.0
H795 H 0.05308 0.76968 0.48293 0.0
H796 H 0.21119 0.80201 0.28752 0.0
H797 H 0.22674 0.82448 0.20856 0.0
H798 H 0.16539 0.75565 0.13542 0.0
H799 H 0.14956 0.73307 0.2143 0.0
Ho800 Ho 0.25408 0.3493 0.39958 0.0
Ho801 Ho 0.25459 0.39704 0.35897 0.0
C802 C 0.23941 0.38528 0.47218 0.0
C803 C 0.25892 0.31328 0.44561 0.0
C804 C 0.26783 0.31156 0.49416 0.0
C805 C 0.26867 0.32891 0.53032 0.0
C806 C 0.27666 0.32735 0.57696 0.0
C807 C 0.28359 0.30817 0.58842 0.0
C808 C 0.28246 0.2905 0.55256 0.0
C809 C 0.27488 0.29239 0.50513 0.0
C810 C 0.2052 0.3401 0.36944 0.0
C811 C 0.25446 0.3522 0.28289 0.0
C812 C 0.24394 0.42471 0.29849 0.0
C813 C 0.22744 0.41735 0.25233 0.0
C814 C 0.20127 0.41306 0.25275 0.0
C815 C 0.18586 0.40635 0.20976 0.0
C816 C 0.19613 0.40385 0.16477 0.0
C817 C 0.22216 0.40797 0.16422 0.0
C818 C 0.23754 0.41457 0.20718 0.0
C819 C 0.29761 0.4113 0.42085 0.0
O820 O 0.24996 0.36955 0.46852 0.0
O821 O 0.23561 0.39609 0.43228 0.0
O822 O 0.2371 0.31446 0.44468 0.0
O823 O 0.27714 0.3305 0.41649 0.0
O824 O 0.21404 0.32379 0.3639 0.0
O825 O 0.22379 0.36023 0.38855 0.0
O826 O 0.24863 0.37109 0.29129 0.0
O827 O 0.26148 0.34262 0.3201 0.0
O828 O 0.26622 0.4241 0.29736 0.0
O829 O 0.23128 0.41554 0.33977 0.0
O830 O 0.28721 0.42571 0.40848 0.0
O831 O 0.28737 0.39115 0.39137 0.0
H832 H 0.26318 0.34372 0.52261 0.0
H833 H 0.27705 0.3409 0.60453 0.0
H834 H 0.28725 0.27535 0.56163 0.0
H835 H 0.27408 0.27871 0.47745 0.0
H836 H 0.19267 0.41503 0.28643 0.0
H837 H 0.16596 0.40344 0.21153 0.0
H838 H 0.23072 0.40627 0.13025 0.0
H839 H 0.25748 0.41763 0.20486 0.0
Ho840 Ho 0.2414 0.30916 0.96005 0.0
Ho841 Ho 0.19028 0.26998 1.00048 0.0
C842 C 0.19014 0.28034 0.88497 0.0
C843 C 0.29078 0.33568 0.93461 0.0
C844 C 0.30287 0.3392 0.88617 0.0
C845 C 0.31066 0.32117 0.87072 0.0
C846 C 0.31189 0.31677 0.82139 0.0
C847 C 0.30723 0.3316 0.78709 0.0
C848 C 0.30392 0.35279 0.80234 0.0
C849 C 0.30139 0.35638 0.8519 0.0
C850 C 0.20902 0.32846 0.96002 0.0
C851 C 0.23498 0.30725 0.07893 0.0
C852 C 0.14826 0.24736 0.05626 0.0
C853 C 0.13984 0.25214 0.10579 0.0
C854 C 0.11976 0.25893 0.10968 0.0
C855 C 0.11131 0.26316 0.1554 0.0
C856 C 0.12243 0.26043 0.19902 0.0
C857 C 0.14228 0.25334 0.19545 0.0
C858 C 0.15086 0.24926 0.14964 0.0
C859 C 0.21231 0.2471 0.93954 0.0
O860 O 0.2168 0.29351 0.88873 0.0
O861 O 0.17551 0.2713 0.92512 0.0
O862 O 0.27602 0.34646 0.94094 0.0
O863 O 0.27944 0.31156 0.95185 0.0
O864 O 0.22586 0.33225 0.92555 0.0
O865 O 0.21005 0.31404 0.99442 0.0
O866 O 0.21457 0.28339 0.07064 0.0
O867 O 0.24813 0.32202 1.04088 0.0
O868 O 0.16623 0.24001 0.0543 0.0
O869 O 0.15154 0.26411 1.02138 0.0
O870 O 0.18726 0.23878 0.94666 0.0
O871 O 0.22446 0.26602 0.97056 0.0
H872 H 0.31321 0.3087 0.89656 0.0
H873 H 0.31492 0.30082 0.80963 0.0
H874 H 0.30062 0.36466 0.77594 0.0
H875 H 0.29608 0.37101 0.86286 0.0
H876 H 0.11029 0.26072 0.07719 0.0
H877 H 0.09588 0.26842 0.15672 0.0
H878 H 0.15124 0.25101 0.22827 0.0
H879 H 0.16623 0.24393 0.14868 0.0
Ho880 Ho 0.67158 0.92161 0.96017 0.0
Ho881 Ho 0.71727 0.91727 0.99978 0.0
C882 C 0.70514 0.90329 0.88565 0.0
C883 C 0.63684 0.93227 0.92312 0.0
C884 C 0.63293 0.94561 0.8814 0.0
C885 C 0.65303 0.97084 0.86757 0.0
C886 C 0.65541 0.97845 0.81911 0.0
C887 C 0.63766 0.96069 0.78492 0.0
C888 C 0.61393 0.93864 0.80074 0.0
C889 C 0.6117 0.93087 0.84944 0.0
C890 C 0.65829 0.87137 0.98663 0.0
C891 C 0.67406 0.91927 0.07754 0.0
C892 C 0.74343 0.90294 0.05775 0.0
C893 C 0.73743 0.88787 0.10543 0.0
C894 C 0.72451 0.89259 0.14456 0.0
C895 C 0.7193 0.87853 0.18896 0.0
C896 C 0.72702 0.85936 0.19601 0.0
C897 C 0.73986 0.85453 0.15697 0.0
C898 C 0.74488 0.86848 0.11244 0.0
C899 C 0.73424 0.96135 0.93992 0.0
O900 O 0.6895 0.91406 0.89001 0.0
O901 O 0.71578 0.89905 0.92538 0.0
O902 O 0.63823 0.91111 0.91246 0.0
O903 O 0.65472 0.94724 0.95526 0.0
O904 O 0.64376 0.88192 0.99511 0.0
O905 O 0.67931 0.88919 0.9687 0.0
O906 O 0.69275 0.91321 0.06863 0.0
O907 O 0.665 0.92709 1.04073 0.0
O908 O 0.74582 0.92659 0.05841 0.0
O909 O 0.73063 0.88948 1.01898 0.0
O910 O 0.74753 0.94958 0.95114 0.0
O911 O 0.71432 0.95237 0.96983 0.0
H912 H 0.66908 0.98272 0.89214 0.0
H913 H 0.67339 0.99586 0.80726 0.0
H914 H 0.59966 0.9251 0.77452 0.0
H915 H 0.59541 0.91168 0.86013 0.0
H916 H 0.71854 0.90729 0.14102 0.0
H917 H 0.70943 0.88283 0.21809 0.0
H918 H 0.7461 0.83995 0.16101 0.0
H919 H 0.75483 0.86419 0.08341 0.0
Ho920 Ho 0.07859 0.7671 0.96366 0.0
Ho921 Ho 0.0772 0.814 1.00675 0.0
C922 C 0.09478 0.82001 0.89503 0.0
C923 C 0.07832 0.73008 0.91056 0.0
C924 C 0.07184 0.72343 0.85902 0.0
C925 C 0.07406 0.74319 0.82721 0.0
C926 C 0.06636 0.73741 0.7792 0.0
C927 C 0.05732 0.7119 0.76101 0.0
C928 C 0.05636 0.69213 0.7917 0.0
C929 C 0.06313 0.69778 0.84108 0.0
C930 C 0.12588 0.80578 1.00105 0.0
C931 C 0.07429 0.76656 0.07996 0.0
C932 C 0.08804 0.85154 0.06999 0.0
C933 C 0.10472 0.86017 0.11581 0.0
C934 C 0.12126 0.84982 0.12877 0.0
C935 C 0.13719 0.85848 0.17119 0.0
C936 C 0.1367 0.87738 0.20278 0.0
C937 C 0.12014 0.88768 0.18983 0.0
C938 C 0.10451 0.8793 0.14703 0.0
C939 C 0.03535 0.78612 0.94176 0.0
O940 O 0.08363 0.79365 0.89728 0.0
O941 O 0.09808 0.83384 0.9358 0.0
O942 O 0.09929 0.75318 0.91812 0.0
O943 O 0.05863 0.72592 0.9392 0.0
O944 O 0.11648 0.7806 1.00671 0.0
O945 O 0.10816 0.80773 0.97937 0.0
O946 O 0.08101 0.79164 0.0728 0.0
O947 O 0.06767 0.75071 1.04139 0.0
O948 O 0.06603 0.82848 0.07082 0.0
O949 O 0.10073 0.85529 1.02867 0.0
O950 O 0.0451 0.81065 0.95581 0.0
O951 O 0.0453 0.7759 0.9711 0.0
H952 H 0.0812 0.76311 0.83936 0.0
H953 H 0.06749 0.753 0.756 0.0
H954 H 0.05013 0.67249 0.77772 0.0
H955 H 0.0616 0.68232 0.86503 0.0
H956 H 0.1219 0.83492 0.10616 0.0
H957 H 0.14955 0.85 0.17993 0.0
H958 H 0.11916 0.90219 0.21317 0.0
H959 H 0.09211 0.88774 0.13843 0.0
Ho960 Ho 0.39845 0.14197 0.83215 0.0
Ho961 Ho 0.34965 0.09397 0.79205 0.0
C962 C 0.35497 0.09576 0.90805 0.0
C963 C 0.42414 0.18027 0.89423 0.0
C964 C 0.41519 0.1887 0.93975 0.0
C965 C 0.40847 0.20894 0.93833 0.0
C966 C 0.40027 0.21683 0.98075 0.0
C967 C 0.39866 0.20493 1.0263 0.0
C968 C 0.40538 0.18479 1.02788 0.0
C969 C 0.41349 0.17685 0.98552 0.0
C970 C 0.41226 0.1134 0.76979 0.0
C971 C 0.38543 0.14468 0.71887 0.0
C972 C 0.31168 0.05418 0.74639 0.0
C973 C 0.30856 0.04371 0.69694 0.0
C974 C 0.32095 0.06118 0.65799 0.0
C975 C 0.32036 0.05137 0.61174 0.0
C976 C 0.30695 0.02397 0.60335 0.0
C977 C 0.29311 0.00646 0.64149 0.0
C978 C 0.29414 0.0163 0.68842 0.0
C979 C 0.34162 0.13406 0.82436 0.0
O980 O 0.37332 0.12069 0.89973 0.0
O981 O 0.34518 0.07934 0.87056 0.0
O982 O 0.42427 0.15778 0.89563 0.0
O983 O 0.41585 0.18367 0.85192 0.0
O984 O 0.4274 0.13799 0.78325 0.0
O985 O 0.39199 0.10325 0.79911 0.0
O986 O 0.36952 0.11841 0.72274 0.0
O987 O 0.39679 0.1594 0.75858 0.0
O988 O 0.31393 0.07756 0.74943 0.0
O989 O 0.32863 0.05187 0.77427 0.0
O990 O 0.3255 0.1091 0.83185 0.0
O991 O 0.36115 0.13494 0.80408 0.0
H992 H 0.40978 0.21895 0.90437 0.0
H993 H 0.39563 0.23263 0.97813 0.0
H994 H 0.40469 0.17538 0.06227 0.0
H995 H 0.41874 0.16153 0.98887 0.0
H996 H 0.33205 0.08241 0.66354 0.0
H997 H 0.33078 0.06522 0.58245 0.0
H998 H 0.28225 0.98534 0.63501 0.0
H999 H 0.284 0.0026 0.71799 0.0
Ho1000 Ho 0.84953 0.25313 0.84092 0.0
Ho1001 Ho 0.89787 0.25403 0.80234 0.0
C1002 C 0.89236 0.25069 0.91797 0.0
C1003 C 0.81106 0.24316 0.9008 0.0
C1004 C 0.80285 0.22717 0.94697 0.0
C1005 C 0.81088 0.20845 0.95687 0.0
C1006 C 0.80383 0.19398 1.0007 0.0
C1007 C 0.7886 0.19787 1.03612 0.0
C1008 C 0.78061 0.21662 1.02649 0.0
C1009 C 0.78762 0.23106 0.98246 0.0
C1010 C 0.87992 0.29763 0.78372 0.0
C1011 C 0.84808 0.23972 0.72707 0.0
C1012 C 0.94114 0.26179 0.76125 0.0
C1013 C 0.95304 0.27225 0.71436 0.0
C1014 C 0.94183 0.28384 0.68568 0.0
C1015 C 0.95025 0.29102 0.63838 0.0
C1016 C 0.96888 0.28518 0.61818 0.0
C1017 C 0.98059 0.2739 0.64685 0.0
C1018 C 0.97289 0.26777 0.69551 0.0
C1019 C 0.85826 0.2044 0.8287 0.0
O1020 O 0.86787 0.24513 0.90841 0.0
O1021 O 0.90994 0.2592 0.88229 0.0
O1022 O 0.83401 0.26526 0.90184 0.0
O1023 O 0.80775 0.23007 0.86006 0.0
O1024 O 0.85459 0.28643 0.79222 0.0
O1025 O 0.8888 0.28665 0.81352 0.0
O1026 O 0.8744 0.25003 0.73185 0.0
O1027 O 0.83286 0.23558 0.76636 0.0
O1028 O 0.91862 0.23955 0.75843 0.0
O1029 O 0.94008 0.27887 0.79087 0.0
O1030 O 0.88336 0.2136 0.83608 0.0
O1031 O 0.85667 0.22311 0.81029 0.0
H1032 H 0.82286 0.20508 0.93094 0.0
H1033 H 0.81043 0.17983 1.00712 0.0
H1034 H 0.76896 0.22013 0.05319 0.0
H1035 H 0.78127 0.24541 0.97629 0.0
H1036 H 0.92543 0.28584 0.69899 0.0
H1037 H 0.94074 0.29931 0.61625 0.0
H1038 H 0.99453 0.26878 0.63108 0.0
H1039 H 0.98122 0.25825 0.71741 0.0
Ho1040 Ho 0.7478 0.60852 0.82905 0.0
Ho1041 Ho 0.74439 0.65541 0.79148 0.0
C1042 C 0.74526 0.65067 0.90787 0.0
C1043 C 0.76314 0.58484 0.8908 0.0
C1044 C 0.77934 0.59355 0.93796 0.0
C1045 C 0.80338 0.59315 0.94212 0.0
C1046 C 0.81822 0.60027 0.9861 0.0
C1047 C 0.80966 0.60808 1.02792 0.0
C1048 C 0.78589 0.60895 1.02369 0.0
C1049 C 0.77105 0.60187 0.97968 0.0
C1050 C 0.70394 0.59284 0.76823 0.0
C1051 C 0.76237 0.62146 0.71643 0.0
C1052 C 0.73861 0.69161 0.74784 0.0
C1053 C 0.73227 0.69525 0.69802 0.0
C1054 C 0.71923 0.70955 0.68859 0.0
C1055 C 0.7125 0.71194 0.64073 0.0
C1056 C 0.71794 0.69921 0.60271 0.0
C1057 C 0.73203 0.68602 0.61214 0.0
C1058 C 0.73945 0.68436 0.65928 0.0
C1059 C 0.79351 0.66685 0.82164 0.0
O1060 O 0.75229 0.63295 0.89752 0.0
O1061 O 0.73676 0.65987 0.87219 0.0
O1062 O 0.73922 0.58202 0.89099 0.0
O1063 O 0.77563 0.59532 0.84978 0.0
O1064 O 0.71487 0.57875 0.78011 0.0
O1065 O 0.71333 0.61261 0.79867 0.0
O1066 O 0.75142 0.63694 0.7214 0.0
O1067 O 0.7667 0.61058 0.75559 0.0
O1068 O 0.76103 0.69188 0.75196 0.0
O1069 O 0.71957 0.67269 0.77347 0.0
O1070 O 0.78323 0.68161 0.83058 0.0
O1071 O 0.77614 0.64684 0.80031 0.0
H1072 H 0.81063 0.58697 0.91129 0.0
H1073 H 0.83627 0.59919 0.98771 0.0
H1074 H 0.77853 0.61479 0.05485 0.0
H1075 H 0.75284 0.60266 0.97865 0.0
H1076 H 0.714 0.71848 0.71809 0.0
H1077 H 0.70201 0.72253 0.63349 0.0
H1078 H 0.7367 0.6764 0.58303 0.0
H1079 H 0.74979 0.67353 0.66562 0.0
Ho1080 Ho 0.80727 0.73112 0.1951 0.0
Ho1081 Ho 0.75595 0.68925 0.23416 0.0
C1082 C 0.76364 0.6902 0.11539 0.0
C1083 C 0.84786 0.76008 0.13861 0.0
C1084 C 0.85736 0.75741 0.08876 0.0
C1085 C 0.85731 0.73419 0.0742 0.0
C1086 C 0.86659 0.732 1.02802 0.0
C1087 C 0.87629 0.75297 0.99453 0.0
C1088 C 0.87631 0.77628 1.00851 0.0
C1089 C 0.86698 0.77846 0.05499 0.0
C1090 C 0.78148 0.75068 0.25535 0.0
C1091 C 0.80758 0.7195 0.30805 0.0
C1092 C 0.70742 0.66171 0.26291 0.0
C1093 C 0.69636 0.65644 0.31209 0.0
C1094 C 0.68098 0.66771 0.32593 0.0
C1095 C 0.67863 0.67223 0.37475 0.0
C1096 C 0.69165 0.6657 0.40985 0.0
C1097 C 0.70396 0.65114 0.39697 0.0
C1098 C 0.70636 0.64651 0.34796 0.0
C1099 C 0.79086 0.67276 0.23606 0.0
O1100 O 0.78587 0.71272 0.12345 0.0
O1101 O 0.74844 0.67712 0.15315 0.0
O1102 O 0.82648 0.76222 0.14045 0.0
O1103 O 0.84823 0.74506 0.17383 0.0
O1104 O 0.80672 0.76058 0.24883 0.0
O1105 O 0.77093 0.73185 0.22371 0.0
O1106 O 0.78097 0.70791 0.30438 0.0
O1107 O 0.82237 0.72621 0.2679 0.0
O1108 O 0.72176 0.65108 0.25093 0.0
O1109 O 0.71852 0.68657 0.25009 0.0
O1110 O 0.77207 0.66649 0.26768 0.0
O1111 O 0.7896 0.68727 0.20193 0.0
H1112 H 0.84986 0.71748 0.0982 0.0
H1113 H 0.86615 0.71381 1.01811 0.0
H1114 H 0.88369 0.79287 0.98357 0.0
H1115 H 0.8674 0.79671 0.06464 0.0
H1116 H 0.67365 0.67606 0.29911 0.0
H1117 H 0.66909 0.68327 0.38493 0.0
H1118 H 0.71397 0.64585 0.42421 0.0
H1119 H 0.71834 0.63771 0.33831 0.0
Ho1120 Ho 0.2784 0.08182 0.19606 0.0
Ho1121 Ho 0.31974 0.07047 0.23512 0.0
C1122 C 0.31619 0.07409 0.11566 0.0
C1123 C 0.25134 0.09578 0.14026 0.0
C1124 C 0.25552 0.10848 0.09063 0.0
C1125 C 0.25816 0.13379 0.08549 0.0
C1126 C 0.26165 0.14572 1.03931 0.0
C1127 C 0.26209 0.1325 0.99661 0.0
C1128 C 0.25935 0.10718 1.00149 0.0
C1129 C 0.25625 0.0954 1.04772 0.0
C1130 C 0.25779 0.03781 0.25922 0.0
C1131 C 0.29176 0.09461 0.30856 0.0
C1132 C 0.34766 0.04993 0.26393 0.0
C1133 C 0.35106 0.04242 0.31319 0.0
C1134 C 0.33619 0.01572 0.32626 0.0
C1135 C 0.33065 0.00882 0.3749 0.0
C1136 C 0.34037 0.02825 0.41091 0.0
C1137 C 0.35833 0.05463 0.39871 0.0
C1138 C 0.3637 0.06177 0.34977 0.0
C1139 C 0.33821 0.12229 0.22822 0.0
O1140 O 0.2953 0.07682 0.12411 0.0
O1141 O 0.3287 0.0707 0.15307 0.0
O1142 O 0.24738 0.07154 0.14226 0.0
O1143 O 0.26647 0.11054 0.17604 0.0
O1144 O 0.24831 0.05331 0.25074 0.0
O1145 O 0.27641 0.04482 0.22743 0.0
O1146 O 0.30216 0.0785 0.3053 0.0
O1147 O 0.28608 0.10334 0.26813 0.0
O1148 O 0.35767 0.07522 0.25622 0.0
O1149 O 0.3237 0.03597 0.24607 0.0
O1150 O 0.34501 0.11105 0.26143 0.0
O1151 O 0.32238 0.10486 0.19789 0.0
H1152 H 0.25735 0.14438 0.11727 0.0
H1153 H 0.26379 0.16527 1.03687 0.0
H1154 H 0.25976 0.09653 0.96939 0.0
H1155 H 0.25429 0.07593 0.0497 0.0
H1156 H 0.32632 0.00057 0.29871 0.0
H1157 H 0.31674 0.98869 0.38426 0.0
H1158 H 0.36604 0.06991 0.42649 0.0
H1159 H 0.37558 0.0826 0.34078 0.0
Ho1160 Ho 0.92108 0.18721 0.1963 0.0
Ho1161 Ho 0.92522 0.23662 0.23626 0.0
C1162 C 0.91898 0.23054 0.11963 0.0
C1163 C 0.90717 0.14732 0.138 0.0
C1164 C 0.8929 0.14026 0.08969 0.0
C1165 C 0.8693 0.1158 0.08332 0.0
C1166 C 0.85587 0.10885 1.03817 0.0
C1167 C 0.86555 0.12624 0.9981 0.0
C1168 C 0.8889 0.15084 1.00456 0.0
C1169 C 0.90235 0.15777 0.04959 0.0
C1170 C 0.96623 0.21513 0.25372 0.0
C1171 C 0.90891 0.1858 0.31064 0.0
C1172 C 0.93784 0.28105 0.27776 0.0
C1173 C 0.95073 0.29186 0.32368 0.0
C1174 C 0.96029 0.27767 0.34913 0.0
C1175 C 0.96886 0.28435 0.3964 0.0
C1176 C 0.96594 0.30402 0.42005 0.0
C1177 C 0.95738 0.31917 0.39441 0.0
C1178 C 0.95005 0.31328 0.34554 0.0
C1179 C 0.87467 0.19921 0.21224 0.0
O1180 O 0.91607 0.20691 0.12791 0.0
O1181 O 0.92581 0.24746 0.15628 0.0
O1182 O 0.93129 0.16793 0.13929 0.0
O1183 O 0.89324 0.14629 0.17637 0.0
O1184 O 0.95376 0.18993 0.24396 0.0
O1185 O 0.95625 0.22533 0.22436 0.0
O1186 O 0.92036 0.21225 0.30634 0.0
O1187 O 0.90328 0.1708 0.2707 0.0
O1188 O 0.91467 0.25966 0.28274 0.0
O1189 O 0.95284 0.27843 0.24509 0.0
O1190 O 0.88471 0.22427 0.20422 0.0
O1191 O 0.89288 0.19637 0.22949 0.0
H1192 H 0.86134 0.10187 0.11327 0.0
H1193 H 0.83809 0.08967 1.03429 0.0
H1194 H 0.89698 0.16459 0.97436 0.0
H1195 H 0.92031 0.17684 0.05275 0.0
H1196 H 0.95907 0.26008 0.33361 0.0
H1197 H 0.97479 0.2721 0.41637 0.0
H1198 H 0.9545 0.33389 0.41314 0.0
H1199 H 0.94209 0.32395 0.32613 0.0
Ho1200 Ho 0.31338 0.23456 0.73062 0.0
Ho1201 Ho 0.26373 0.18819 0.69158 0.0
C1202 C 0.27722 0.18364 0.80363 0.0
C1203 C 0.35365 0.27064 0.77879 0.0
C1204 C 0.35911 0.27316 0.83159 0.0
C1205 C 0.3563 0.29192 0.85897 0.0
C1206 C 0.35184 0.28831 0.90905 0.0
C1207 C 0.35094 0.26635 0.93179 0.0
C1208 C 0.35874 0.25062 0.90625 0.0
C1209 C 0.3628 0.25397 0.85614 0.0
C1210 C 0.3191 0.19366 0.69472 0.0
C1211 C 0.30716 0.235 0.6159 0.0
C1212 C 0.23776 0.15049 0.62863 0.0
C1213 C 0.24688 0.14237 0.58294 0.0
C1214 C 0.2507 0.12022 0.58289 0.0
C1215 C 0.25942 0.11272 0.54068 0.0
C1216 C 0.26443 0.12693 0.4967 0.0
C1217 C 0.26056 0.14899 0.49652 0.0
C1218 C 0.25198 0.15656 0.53876 0.0
C1219 C 0.25083 0.21633 0.75666 0.0
O1220 O 0.29472 0.2095 0.79967 0.0
O1221 O 0.26457 0.16946 0.76417 0.0
O1222 O 0.35295 0.25014 0.75846 0.0
O1223 O 0.33425 0.27406 0.76361 0.0
O1224 O 0.33519 0.21845 0.68601 0.0
O1225 O 0.30047 0.19313 0.71791 0.0
O1226 O 0.28867 0.21004 0.62381 0.0
O1227 O 0.31709 0.25105 0.65387 0.0
O1228 O 0.2378 0.17308 0.62807 0.0
O1229 O 0.2459 0.14662 0.67071 0.0
O1230 O 0.23536 0.19202 0.74202 0.0
O1231 O 0.27112 0.22688 0.72694 0.0
H1232 H 0.35515 0.30784 0.84112 0.0
H1233 H 0.34707 0.30136 0.92933 0.0
H1234 H 0.35926 0.23436 0.92425 0.0
H1235 H 0.36655 0.24008 0.83635 0.0
H1236 H 0.2468 0.10848 0.61563 0.0
H1237 H 0.26181 0.09544 0.54216 0.0
H1238 H 0.26389 0.16026 0.4633 0.0
H1239 H 0.24908 0.17348 0.53654 0.0
Ho1240 Ho 0.76075 0.07169 0.73493 0.0
Ho1241 Ho 0.80913 0.07161 0.69422 0.0
C1242 C 0.81358 0.09098 0.80511 0.0
C1243 C 0.71727 0.06179 0.77727 0.0
C1244 C 0.70608 0.05011 0.8238 0.0
C1245 C 0.71883 0.03941 0.85066 0.0
C1246 C 0.7112 0.03145 0.89803 0.0
C1247 C 0.69126 0.0349 0.91949 0.0
C1248 C 0.67767 0.04469 0.89224 0.0
C1249 C 0.68496 0.0521 0.84385 0.0
C1250 C 0.7989 0.12017 0.70178 0.0
C1251 C 0.76529 0.07304 0.61849 0.0
C1252 C 0.84714 0.08134 0.63311 0.0
C1253 C 0.85644 0.09781 0.58708 0.0
C1254 C 0.83852 0.09567 0.55019 0.0
C1255 C 0.84743 0.11118 0.50748 0.0
C1256 C 0.87461 0.12903 0.49969 0.0
C1257 C 0.89259 0.13122 0.53629 0.0
C1258 C 0.88362 0.11596 0.57941 0.0
C1259 C 0.77958 0.02955 0.75807 0.0
O1260 O 0.78695 0.0791 0.80338 0.0
O1261 O 0.82724 0.09453 0.76402 0.0
O1262 O 0.73929 0.08459 0.78066 0.0
O1263 O 0.71883 0.04556 0.74611 0.0
O1264 O 0.77353 0.11098 0.69846 0.0
O1265 O 0.80141 0.10212 0.721 0.0
O1266 O 0.78952 0.07758 0.62697 0.0
O1267 O 0.74829 0.06628 0.65506 0.0
O1268 O 0.8238 0.05965 0.63193 0.0
O1269 O 0.85112 0.09405 0.67453 0.0
O1270 O 0.80414 0.03834 0.7449 0.0
O1271 O 0.77062 0.03981 0.72705 0.0
H1272 H 0.73566 0.03863 0.83577 0.0
H1273 H 0.72212 0.02432 0.91917 0.0
H1274 H 0.66279 0.04804 0.90922 0.0
H1275 H 0.67529 0.06072 0.82317 0.0
H1276 H 0.81752 0.08177 0.55379 0.0
H1277 H 0.83306 0.10886 0.47999 0.0
H1278 H 0.91366 0.14464 0.53133 0.0
H1279 H 0.89805 0.11818 0.60668 0.0
Ho1280 Ho 0.92795 0.69452 0.74029 0.0
Ho1281 Ho 0.92856 0.74043 0.69136 0.0
C1282 C 0.91332 0.73381 0.80551 0.0
C1283 C 0.93651 0.66354 0.79525 0.0
C1284 C 0.94719 0.66506 0.84442 0.0
C1285 C 0.97298 0.66917 0.84997 0.0
C1286 C 0.98489 0.67458 0.8957 0.0
C1287 C 0.9709 0.67543 0.93649 0.0
C1288 C 0.94428 0.66887 0.93185 0.0
C1289 C 0.93251 0.6639 0.88603 0.0
C1290 C 0.87965 0.68297 0.70739 0.0
C1291 C 0.92674 0.69222 0.62185 0.0
C1292 C 0.91435 0.76509 0.62962 0.0
C1293 C 0.89834 0.75779 0.58282 0.0
C1294 C 0.87143 0.75123 0.58337 0.0
C1295 C 0.85608 0.74422 0.54036 0.0
C1296 C 0.86724 0.74414 0.49486 0.0
C1297 C 0.89434 0.75147 0.49382 0.0
C1298 C 0.90958 0.75797 0.53706 0.0
C1299 C 0.97235 0.7565 0.75185 0.0
O1300 O 0.91875 0.71403 0.80476 0.0
O1301 O 0.91456 0.74668 0.76471 0.0
O1302 O 0.91365 0.66264 0.79248 0.0
O1303 O 0.95345 0.67946 0.76285 0.0
O1304 O 0.88935 0.66733 0.70297 0.0
O1305 O 0.89746 0.70439 0.72502 0.0
O1306 O 0.92863 0.71578 0.62592 0.0
O1307 O 0.92772 0.68016 0.66216 0.0
O1308 O 0.9379 0.76709 0.62919 0.0
O1309 O 0.90133 0.75386 0.66966 0.0
O1310 O 0.96188 0.77063 0.73796 0.0
O1311 O 0.96128 0.73536 0.72506 0.0
H1312 H 0.98439 0.66947 0.81873 0.0
H1313 H 0.00532 0.67915 0.899 0.0
H1314 H 0.9332 0.66926 0.96334 0.0
H1315 H 0.91238 0.66026 0.88316 0.0
H1316 H 0.8622 0.75182 0.61722 0.0
H1317 H 0.83549 0.73925 0.54254 0.0
H1318 H 0.90375 0.75216 0.45935 0.0
H1319 H 0.93023 0.76323 0.5345 0.0
Ho1320 Ho 0.91673 0.6553 0.29779 0.0
Ho1321 Ho 0.86559 0.61219 0.33154 0.0
C1322 C 0.86551 0.62874 0.22085 0.0
C1323 C 0.96568 0.68769 0.27563 0.0
C1324 C 0.97634 0.69795 0.22772 0.0
C1325 C 0.00297 0.70677 0.21663 0.0
C1326 C 0.01085 0.70929 0.16808 0.0
C1327 C 0.99235 0.7042 0.13114 0.0
C1328 C 0.96653 0.69834 0.14261 0.0
C1329 C 0.95848 0.695 0.19074 0.0
C1330 C 0.88206 0.67176 0.30472 0.0
C1331 C 0.90816 0.64871 0.41634 0.0
C1332 C 0.82397 0.58515 0.38611 0.0
C1333 C 0.81532 0.59083 0.4346 0.0
C1334 C 0.79169 0.59197 0.4382 0.0
C1335 C 0.78341 0.5975 0.48296 0.0
C1336 C 0.7983 0.60179 0.52589 0.0
C1337 C 0.82191 0.60066 0.52252 0.0
C1338 C 0.83034 0.59535 0.47765 0.0
C1339 C 0.89116 0.5948 0.26616 0.0
O1340 O 0.89211 0.641 0.22532 0.0
O1341 O 0.85062 0.62013 0.26078 0.0
O1342 O 0.94958 0.69528 0.29226 0.0
O1343 O 0.95619 0.66223 0.28071 0.0
O1344 O 0.89987 0.67884 0.2708 0.0
O1345 O 0.8836 0.6558 0.33471 0.0
O1346 O 0.88593 0.6267 0.40581 0.0
O1347 O 0.92365 0.66323 0.38017 0.0
O1348 O 0.84444 0.58137 0.38568 0.0
O1349 O 0.82426 0.59924 0.34867 0.0
O1350 O 0.86586 0.58368 0.27438 0.0
O1351 O 0.90225 0.61216 0.30031 0.0
H1352 H 0.01719 0.71028 0.24497 0.0
H1353 H 0.03051 0.71308 0.15926 0.0
H1354 H 0.95206 0.69436 0.11419 0.0
H1355 H 0.93785 0.68833 0.19879 0.0
H1356 H 0.77956 0.58861 0.40615 0.0
H1357 H 0.76514 0.59819 0.48417 0.0
H1358 H 0.83388 0.60388 0.55477 0.0
H1359 H 0.84865 0.59475 0.47686 0.0
Ho1360 Ho 0.34318 0.26009 0.29002 0.0
Ho1361 Ho 0.38601 0.25083 0.32832 0.0
C1362 C 0.37308 0.23813 0.21536 0.0
C1363 C 0.30742 0.27074 0.26 0.0
C1364 C 0.29514 0.26406 0.21141 0.0
C1365 C 0.30235 0.28478 0.17803 0.0
C1366 C 0.30454 0.28048 0.12869 0.0
C1367 C 0.29917 0.25537 0.11276 0.0
C1368 C 0.28717 0.23373 0.14452 0.0
C1369 C 0.28487 0.23802 0.19377 0.0
C1370 C 0.32755 0.2086 0.29399 0.0
C1371 C 0.34778 0.2575 0.40908 0.0
C1372 C 0.41324 0.23778 0.38584 0.0
C1373 C 0.40846 0.22416 0.43498 0.0
C1374 C 0.40516 0.19852 0.43889 0.0
C1375 C 0.40119 0.18583 0.48451 0.0
C1376 C 0.40079 0.19849 0.52805 0.0
C1377 C 0.40426 0.22417 0.52445 0.0
C1378 C 0.40803 0.23678 0.47877 0.0
C1379 C 0.40622 0.29524 0.26641 0.0
O1380 O 0.36117 0.25285 0.21945 0.0
O1381 O 0.38023 0.23033 0.25535 0.0
O1382 O 0.30202 0.25091 0.2888 0.0
O1383 O 0.33269 0.28771 0.25947 0.0
O1384 O 0.32104 0.21984 0.26065 0.0
O1385 O 0.34232 0.2259 0.32535 0.0
O1386 O 0.36659 0.25175 0.39991 0.0
O1387 O 0.3375 0.26422 0.3723 0.0
O1388 O 0.41588 0.26153 0.38476 0.0
O1389 O 0.39964 0.22336 0.34833 0.0
O1390 O 0.41655 0.28062 0.27638 0.0
O1391 O 0.38678 0.28791 0.29708 0.0
H1392 H 0.31012 0.30492 0.19077 0.0
H1393 H 0.31362 0.29732 0.10425 0.0
H1394 H 0.28245 0.21413 0.13244 0.0
H1395 H 0.27848 0.22145 0.21848 0.0
H1396 H 0.40589 0.18825 0.40658 0.0
H1397 H 0.39868 0.16612 0.48585 0.0
H1398 H 0.40412 0.23454 0.55715 0.0
H1399 H 0.41087 0.25659 0.47792 0.0
Ho1400 Ho 0.74293 0.09075 0.29921 0.0
Ho1401 Ho 0.74004 0.13745 0.33889 0.0
C1402 C 0.75756 0.14088 0.22496 0.0
C1403 C 0.73368 0.04713 0.25857 0.0
C1404 C 0.72029 0.03567 0.21325 0.0
C1405 C 0.70789 0.04795 0.1905 0.0
C1406 C 0.69799 0.04067 0.14407 0.0
C1407 C 0.70167 0.0219 0.1188 0.0
C1408 C 0.71318 0.00863 0.14191 0.0
C1409 C 0.72229 0.01535 0.18981 0.0
C1410 C 0.79029 0.13017 0.33245 0.0
C1411 C 0.7414 0.09385 0.41604 0.0
C1412 C 0.75299 0.17786 0.39581 0.0
C1413 C 0.76718 0.18651 0.44422 0.0
C1414 C 0.78925 0.21221 0.44977 0.0
C1415 C 0.80281 0.22078 0.49465 0.0
C1416 C 0.79486 0.20388 0.53544 0.0
C1417 C 0.77301 0.17808 0.52994 0.0
C1418 C 0.75933 0.16954 0.48512 0.0
C1419 C 0.6989 0.10841 0.27493 0.0
O1420 O 0.75296 0.11609 0.23006 0.0
O1421 O 0.75528 0.15393 0.26313 0.0
O1422 O 0.75597 0.06953 0.253 0.0
O1423 O 0.71823 0.04843 0.292 0.0
O1424 O 0.78151 0.10518 0.33949 0.0
O1425 O 0.77213 0.13198 0.31164 0.0
O1426 O 0.73984 0.11546 0.4084 0.0
O1427 O 0.74115 0.07952 0.37863 0.0
O1428 O 0.72915 0.15678 0.39496 0.0
O1429 O 0.7673 0.17858 0.35827 0.0
O1430 O 0.70606 0.13213 0.29093 0.0
O1431 O 0.70951 0.09904 0.30472 0.0
H1432 H 0.70748 0.06437 0.20782 0.0
H1433 H 0.68986 0.05158 0.12597 0.0
H1434 H 0.71682 0.99473 0.12186 0.0
H1435 H 0.73235 0.00611 0.20713 0.0
H1436 H 0.79599 0.2258 0.41924 0.0
H1437 H 0.81953 0.24074 0.49758 0.0
H1438 H 0.76635 0.16456 0.56057 0.0
H1439 H 0.74259 0.14959 0.4826 0.0
C1440 C 0.07857 0.41117 0.98706 0.0
C1441 C 0.10557 0.42375 0.97102 0.0
C1442 C 0.11775 0.44657 0.05245 0.0
C1443 C 0.09084 0.43384 0.06898 0.0
N1444 N 0.04718 0.39741 0.05521 0.0
N1445 N 0.14901 0.46242 0.98764 0.0
C1446 C 0.07166 0.41429 1.03693 0.0
C1447 C 0.12446 0.44374 1.00328 0.0
N1448 N 0.05922 0.39743 0.95366 0.0
N1449 N 0.13786 0.46134 0.08431 0.0
H1450 H 0.15513 0.46543 0.95136 0.0
H1451 H 0.15513 0.46543 0.95136 0.0
H1452 H 0.13481 0.46138 0.12176 0.0
H1453 H 0.15783 0.47109 0.07399 0.0
H1454 H 0.03915 0.3868 0.96195 0.0
H1455 H 0.06335 0.39823 0.9165 0.0
H1456 H 0.03217 0.3817 1.03588 0.0
H1457 H 0.04361 0.39668 0.09245 0.0
C1458 C 0.54136 0.65287 0.97352 0.0
C1459 C 0.56842 0.67194 0.96439 0.0
C1460 C 0.57833 0.65675 1.04361 0.0
C1461 C 0.55103 0.64214 0.05781 0.0
N1462 N 0.50574 0.6274 1.02993 0.0
N1463 N 0.61228 0.69346 0.99739 0.0
C1464 C 0.53243 0.64075 1.02109 0.0
C1465 C 0.58672 0.67377 1.00087 0.0
N1466 N 0.52396 0.64467 0.93533 0.0
N1467 N 0.59683 0.65452 0.07024 0.0
H1468 H 0.61932 0.70622 0.96794 0.0
H1469 H 0.62536 0.69834 1.02614 0.0
H1470 H 0.59271 0.64443 0.10308 0.0
H1471 H 0.61586 0.66096 0.05703 0.0
H1472 H 0.50464 0.6287 0.93741 0.0
H1473 H 0.52997 0.65142 0.89982 0.0
H1474 H 0.4924 0.63017 1.00889 0.0
H1475 H 0.49648 0.61365 0.05744 0.0
C1476 C 0.33319 0.92292 1.04715 0.0
C1477 C 0.3404 0.90569 0.07135 0.0
C1478 C 0.324 0.87643 0.99804 0.0
C1479 C 0.31571 0.89271 0.97357 0.0
N1480 N 0.31991 0.93569 0.97169 0.0
N1481 N 0.32857 0.85966 0.07551 0.0
C1482 C 0.32225 0.91713 0.99761 0.0
C1483 C 0.33164 0.88064 0.04839 0.0
N1484 N 0.33534 0.94398 0.07262 0.0
N1485 N 0.32702 0.85801 0.97238 0.0
H1486 H 0.3301 0.86045 0.1134 0.0
H1487 H 0.32029 0.84052 0.06133 0.0
H1488 H 0.3262 0.85696 0.93447 0.0
H1489 H 0.33483 0.84702 0.98791 0.0
H1490 H 0.32978 0.95722 0.05953 0.0
H1491 H 0.33965 0.94612 0.10969 0.0
H1492 H 0.3225 0.95327 0.98621 0.0
H1493 H 0.31724 0.93414 0.93407 0.0
C1494 C 0.4554 0.11112 0.66368 0.0
C1495 C 0.43769 0.09098 0.63033 0.0
C1496 C 0.40124 0.08427 0.68842 0.0
C1497 C 0.41968 0.10216 0.72389 0.0
N1498 N 0.46562 0.12417 0.74812 0.0
N1499 N 0.39198 0.064 0.60702 0.0
C1500 C 0.44704 0.11298 0.71213 0.0
C1501 C 0.41006 0.07903 0.64186 0.0
N1502 N 0.47982 0.13055 0.64847 0.0
N1503 N 0.37523 0.07051 0.70074 0.0
H1504 H 0.3975 0.06124 0.57237 0.0
H1505 H 0.37162 0.05627 0.61036 0.0
H1506 H 0.36873 0.07402 0.73342 0.0
H1507 H 0.36136 0.05347 0.68269 0.0
H1508 H 0.49261 0.14629 0.67083 0.0
H1509 H 0.4852 0.13415 0.61193 0.0
H1510 H 0.48558 0.13004 0.74258 0.0
H1511 H 0.46057 0.12398 0.78467 0.0
C1512 C 0.88718 0.33263 0.6577 0.0
C1513 C 0.91459 0.34469 0.64499 0.0
C1514 C 0.92069 0.32751 0.72616 0.0
C1515 C 0.89339 0.31657 0.73886 0.0
N1516 N 0.85542 0.32203 0.72266 0.0
N1517 N 0.95706 0.35195 0.66889 0.0
C1518 C 0.87796 0.32276 0.70622 0.0
C1519 C 0.93107 0.34134 0.67979 0.0
N1520 N 0.86921 0.32959 0.62267 0.0
N1521 N 0.93717 0.32607 0.75981 0.0
H1522 H 0.96476 0.36193 0.63676 0.0
H1523 H 0.97072 0.35089 0.69102 0.0
H1524 H 0.93174 0.32125 0.79612 0.0
H1525 H 0.95633 0.33 0.75289 0.0
H1526 H 0.84875 0.31869 0.62844 0.0
H1527 H 0.87458 0.33479 0.58634 0.0
H1528 H 0.84455 0.32812 0.70154 0.0
H1529 H 0.85024 0.32006 0.75936 0.0
C1530 C 0.66721 0.59238 0.64391 0.0
C1531 C 0.64899 0.56478 0.63589 0.0
C1532 C 0.66383 0.55698 0.71839 0.0
C1533 C 0.68315 0.58428 0.72488 0.0
N1534 N 0.69661 0.62817 0.69776 0.0
N1535 N 0.63234 0.52038 0.66884 0.0
C1536 C 0.68289 0.60185 0.68855 0.0
C1537 C 0.6482 0.54716 0.67401 0.0
N1538 N 0.67149 0.60985 0.60709 0.0
N1539 N 0.65812 0.54039 0.75742 0.0
H1540 H 0.61602 0.51139 0.64598 0.0
H1541 H 0.63545 0.50675 0.68804 0.0
H1542 H 0.66721 0.54685 0.79131 0.0
H1543 H 0.64206 0.52113 0.75868 0.0
H1544 H 0.68671 0.62955 0.60742 0.0
H1545 H 0.66143 0.60426 0.57402 0.0
H1546 H 0.69263 0.64158 0.68002 0.0
H1547 H 0.70883 0.63545 0.72779 0.0
C1548 C 0.91772 0.59947 0.18445 0.0
C1549 C 0.90307 0.58424 0.22609 0.0
C1550 C 0.90065 0.54479 0.18352 0.0
C1551 C 0.91377 0.55974 0.14005 0.0
N1552 N 0.92953 0.60135 0.09859 0.0
N1553 N 0.88653 0.54313 0.26835 0.0
C1554 C 0.92102 0.58712 0.14081 0.0
C1555 C 0.89602 0.55705 0.22589 0.0
N1556 N 0.92996 0.62629 0.18722 0.0
N1557 N 0.89165 0.51825 0.18449 0.0
H1558 H 0.88372 0.55149 0.29985 0.0
H1559 H 0.884 0.52439 0.27451 0.0
H1560 H 0.89733 0.50882 0.15941 0.0
H1561 H 0.87776 0.50516 0.20933 0.0
H1562 H 0.94355 0.63904 0.16158 0.0
H1563 H 0.92901 0.63551 0.21867 0.0
H1564 H 0.93171 0.62012 0.0944 0.0
H1565 H 0.93194 0.59353 0.0661 0.0
C1566 C 0.39971 0.32089 0.19188 0.0
C1567 C 0.41612 0.31443 0.22082 0.0
C1568 C 0.44953 0.33361 0.15323 0.0
C1569 C 0.43402 0.34186 0.12555 0.0
N1570 N 0.38967 0.33374 0.11312 0.0
N1571 N 0.46142 0.32495 0.23286 0.0
C1572 C 0.40766 0.33255 0.14331 0.0
C1573 C 0.4423 0.32368 0.20231 0.0
N1574 N 0.37779 0.31876 0.21333 0.0
N1575 N 0.4701 0.33262 0.13122 0.0
H1576 H 0.45815 0.32081 0.26999 0.0
H1577 H 0.4814 0.3339 0.223 0.0
H1578 H 0.47358 0.33522 0.09384 0.0
H1579 H 0.48066 0.32473 0.14813 0.0
H1580 H 0.36444 0.32313 0.19634 0.0
H1581 H 0.37663 0.31799 0.25122 0.0
H1582 H 0.36969 0.32592 0.12169 0.0
H1583 H 0.39414 0.33992 0.07706 0.0
C1584 C 0.6501 0.06026 0.17214 0.0
C1585 C 0.65385 0.07759 0.13227 0.0
C1586 C 0.68699 0.11474 0.18469 0.0
C1587 C 0.6838 0.09735 0.22505 0.0
N1588 N 0.66159 0.05236 0.25368 0.0
N1589 N 0.68222 0.12029 0.09778 0.0
C1590 C 0.66521 0.06981 0.21738 0.0
C1591 C 0.67407 0.10445 0.13819 0.0
N1592 N 0.63021 0.03474 0.16848 0.0
N1593 N 0.70222 0.14161 0.18971 0.0
H1594 H 0.67436 0.11324 0.06322 0.0
H1595 H 0.69881 0.13924 0.0971 0.0
H1596 H 0.71558 0.15124 0.2176 0.0
H1597 H 0.70094 0.15488 0.16602 0.0
H1598 H 0.62182 0.02232 0.19824 0.0
H1599 H 0.62136 0.02663 0.13526 0.0
H1600 H 0.65174 0.03202 0.2485 0.0
H1601 H 0.66969 0.05812 0.28836 0.0
C1602 C 0.58666 0.91299 0.4947 0.0
C1603 C 0.56715 0.89138 0.4661 0.0
C1604 C 0.53656 0.87961 0.53698 0.0
C1605 C 0.55472 0.90205 0.56524 0.0
N1606 N 0.60008 0.93647 0.57339 0.0
N1607 N 0.51979 0.86352 0.45638 0.0
C1608 C 0.58069 0.91788 0.54446 0.0
C1609 C 0.54107 0.87766 0.48624 0.0
N1610 N 0.61049 0.92947 0.47347 0.0
N1611 N 0.51575 0.85843 0.55913 0.0
H1612 H 0.52154 0.8641 0.4185 0.0
H1613 H 0.50024 0.85475 0.46887 0.0
H1614 H 0.51399 0.85636 0.59688 0.0
H1615 H 0.50301 0.84104 0.54037 0.0
H1616 H 0.6263 0.94552 0.49053 0.0
H1617 H 0.61329 0.92858 0.43622 0.0
H1618 H 0.61927 0.94967 0.5619 0.0
H1619 H 0.5973 0.93739 0.61068 0.0
C1620 C 0.09882 0.64171 0.52181 0.0
C1621 C 0.08242 0.64185 0.56153 0.0
C1622 C 0.07547 0.67358 0.50934 0.0
C1623 C 0.09095 0.67234 0.46941 0.0
N1624 N 0.11327 0.65024 0.43765 0.0
N1625 N 0.06242 0.66567 0.59538 0.0
C1626 C 0.10085 0.65462 0.47588 0.0
C1627 C 0.07224 0.65953 0.55527 0.0
N1628 N 0.11535 0.63165 0.5269 0.0
N1629 N 0.06504 0.68966 0.5044 0.0
H1630 H 0.06326 0.65918 0.63028 0.0
H1631 H 0.05605 0.67941 0.59601 0.0
H1632 H 0.06892 0.70105 0.47366 0.0
H1633 H 0.05179 0.69077 0.52834 0.0
H1634 H 0.1198 0.62574 0.55959 0.0
H1635 H 0.1198 0.62574 0.55959 0.0
H1636 H 0.12089 0.63739 0.43985 0.0
H1637 H 0.11424 0.658 0.40297 0.0
C1638 C 0.33077 0.40581 0.54537 0.0
C1639 C 0.33941 0.43128 0.56693 0.0
C1640 C 0.32505 0.44351 0.4902 0.0
C1641 C 0.31509 0.41797 0.46847 0.0
N1642 N 0.31518 0.37706 0.47288 0.0
N1643 N 0.33029 0.46746 0.56484 0.0
C1644 C 0.31967 0.39962 0.49576 0.0
C1645 C 0.3323 0.44802 0.54073 0.0
N1646 N 0.33174 0.38705 0.57337 0.0
N1647 N 0.32977 0.46464 0.46178 0.0
H1648 H 0.33112 0.46907 0.60271 0.0
H1649 H 0.32332 0.47888 0.54806 0.0
H1650 H 0.32869 0.46355 0.42385 0.0
H1651 H 0.33888 0.48398 0.47524 0.0
H1652 H 0.32634 0.36807 0.56164 0.0
H1653 H 0.3361 0.39006 0.61042 0.0
H1654 H 0.31751 0.36222 0.48886 0.0
H1655 H 0.31195 0.37481 0.43549 0.0
C1656 C 0.74132 0.74666 0.30834 0.0
C1657 C 0.7692 0.75688 0.30161 0.0
C1658 C 0.77516 0.77491 0.38716 0.0
C1659 C 0.74743 0.76483 0.39432 0.0
N1660 N 0.70406 0.73635 0.36226 0.0
N1661 N 0.81178 0.79221 0.33045 0.0
C1662 C 0.73062 0.7494 0.35487 0.0
C1663 C 0.78587 0.77398 0.34004 0.0
N1664 N 0.72518 0.73704 0.26851 0.0
N1665 N 0.79175 0.7849 0.42634 0.0
H1666 H 0.81953 0.79689 0.29541 0.0
H1667 H 0.82425 0.80628 0.35577 0.0
H1668 H 0.78494 0.78535 0.46132 0.0
H1669 H 0.81155 0.78953 0.42526 0.0
H1670 H 0.70528 0.73194 0.26825 0.0
H1671 H 0.73246 0.73707 0.23378 0.0
H1672 H 0.69056 0.72261 0.3379 0.0
H1673 H 0.69614 0.73722 0.39551 0.0
C1674 C 0.25723 0.98888 0.36126 0.0
C1675 C 0.24202 0.99136 0.40034 0.0
C1676 C 0.23447 0.02099 0.34463 0.0
C1677 C 0.2513 0.02029 0.30664 0.0
N1678 N 0.27208 0.99656 0.27598 0.0
N1679 N 0.22296 0.01674 0.43078 0.0
C1680 C 0.26135 0.00266 0.31477 0.0
C1681 C 0.23302 0.0097 0.39225 0.0
N1682 N 0.26638 0.97184 0.36769 0.0
N1683 N 0.21693 0.02944 0.33424 0.0
H1684 H 0.22157 0.00909 0.46571 0.0
H1685 H 0.21906 0.03237 0.42927 0.0
H1686 H 0.21244 0.03238 0.29901 0.0
H1687 H 0.20311 0.02875 0.35928 0.0
H1688 H 0.27742 0.96789 0.34287 0.0
H1689 H 0.26307 0.96196 0.40017 0.0
H1690 H 0.27995 0.98405 0.27696 0.0
H1691 H 0.27127 0.00245 0.24056 0.0
C1692 C 0.98528 0.20908 0.336 0.0
C1693 C 0.98426 0.22668 0.30057 0.0
C1694 C 0.01357 0.26311 0.35935 0.0
C1695 C 0.01057 0.24476 0.39698 0.0
N1696 N 0.98488 0.19911 0.42168 0.0
N1697 N 0.00176 0.27228 0.27864 0.0
C1698 C 0.99355 0.21752 0.38533 0.0
C1699 C -0.00022 0.25426 0.31241 0.0
N1700 N 0.98146 0.18492 0.32205 0.0
N1701 N 0.03024 0.28924 0.36773 0.0
H1702 H 0.99503 0.26707 0.24298 0.0
H1703 H 0.00928 0.29222 0.28642 0.0
H1704 H 0.03703 0.29653 0.40253 0.0
H1705 H 0.03809 0.30308 0.33995 0.0
H1706 H 0.98355 0.17224 0.34612 0.0
H1707 H 0.98112 0.17962 0.28572 0.0
H1708 H 0.97081 0.17923 0.41566 0.0
H1709 H 0.98915 0.20435 0.45831 0.0
C1710 C 0.26054 0.24252 0.8411 0.0
C1711 C 0.24278 0.22753 0.80219 0.0
C1712 C 0.20578 0.21976 0.85939 0.0
C1713 C 0.22339 0.23812 0.89522 0.0
N1714 N 0.26798 0.25954 0.92514 0.0
N1715 N 0.19755 0.20721 0.7741 0.0
C1716 C 0.25102 0.2476 0.88711 0.0
C1717 C 0.21522 0.21768 0.8117 0.0
N1718 N 0.28676 0.25161 0.83418 0.0
N1719 N 0.18007 0.20223 0.87172 0.0
H1720 H 0.20347 0.20725 0.73818 0.0
H1721 H 0.1777 0.20216 0.77729 0.0
H1722 H 0.17317 0.19942 0.90742 0.0
H1723 H 0.16698 0.18718 0.8485 0.0
H1724 H 0.30154 0.26135 0.8599 0.0
H1725 H 0.29367 0.25011 0.80041 0.0
H1726 H 0.2883 0.26688 0.9243 0.0
H1727 H 0.26137 0.26024 0.96005 0.0
C1728 C 0.73903 0.99481 0.81142 0.0
C1729 C 0.76686 0.01345 0.80675 0.0
C1730 C 0.7715 0.00141 0.89366 0.0
C1731 C 0.74388 0.98269 0.89806 0.0
N1732 N 0.70127 0.96349 0.86099 0.0
N1733 N 0.80854 0.03696 0.85104 0.0
C1734 C 0.72774 0.98042 0.85695 0.0
C1735 C 0.78267 0.01716 0.84992 0.0
N1736 N 0.72305 0.99105 0.77228 0.0
N1737 N 0.78766 0.00402 0.93198 0.0
H1738 H 0.81872 0.0483 0.82134 0.0
H1739 H 0.81976 0.04384 0.88274 0.0
H1740 H 0.78033 0.99668 0.96667 0.0
H1741 H 0.80819 0.0125 0.92924 0.0
H1742 H 0.7025 0.9806 0.77342 0.0
H1743 H 0.73033 -0.00123 0.73787 0.0
H1744 H 0.68839 0.95586 0.8317 0.0
H1745 H 0.69243 0.95686 0.89488 0.0
C1746 C 0.00435 0.78882 0.87715 0.0
C1747 C 0.01728 0.77515 0.89476 0.0
C1748 C 0.00211 0.74861 0.81614 0.0
C1749 C 0.99075 0.76386 0.79823 0.0
N1750 N 0.99527 0.80742 0.80659 0.0
N1751 N 0.02356 0.73809 0.8823 0.0
C1752 C 0.99593 0.78646 0.82727 0.0
C1753 C 0.01491 0.75403 0.86414 0.0
N1754 N -0.00166 0.80315 0.90884 0.0
N1755 N 0.00229 0.73012 0.78585 0.0
H1756 H 0.02859 0.73919 0.91869 0.0
H1757 H 0.0231 0.72236 0.86386 0.0
H1758 H 0.99634 0.72824 0.74967 0.0
H1759 H 0.01021 0.71813 0.79431 0.0
H1760 H 0.98696 0.81164 0.89866 0.0
H1761 H 0.00106 0.80303 0.94637 0.0
H1762 H 0.00045 0.82483 0.82574 0.0
H1763 H 0.99464 0.80962 0.76907 0.0
C1764 C 0.98943 0.34602 0.87613 0.0
C1765 C 0.98047 0.36446 0.88248 0.0
C1766 C 0.99206 0.3793 0.79871 0.0
C1767 C 0.00636 0.36532 0.79578 0.0
N1768 N 0.01536 0.33206 0.82764 0.0
N1769 N 0.97056 0.39679 0.85002 0.0
C1770 C 0.00357 0.3472 0.83296 0.0
C1771 C 0.98045 0.38007 0.84338 0.0
N1772 N 0.98526 0.32822 0.91221 0.0
N1773 N 0.9882 0.3906 0.75827 0.0
H1774 H 0.9602 0.39643 0.88141 0.0
H1775 H 0.97362 0.41168 0.82549 0.0
H1776 H 0.99685 0.39168 0.72455 0.0
H1777 H 0.97377 0.39618 0.75681 0.0
H1778 H 0.98798 0.312 0.90801 0.0
H1779 H 0.97726 0.32859 0.94593 0.0
H1780 H 0.01404 0.31811 0.85269 0.0
H1781 H 0.02728 0.33374 0.79794 0.0
C1782 C 0.64777 0.61866 0.86858 0.0
C1783 C 0.63677 0.62824 0.90353 0.0
C1784 C 0.63093 0.65505 0.84215 0.0
C1785 C 0.63668 0.64139 0.80629 0.0
N1786 N 0.65256 0.612 0.7831 0.0
N1787 N 0.61595 0.6539 0.92425 0.0
C1788 C 0.64675 0.62451 0.81901 0.0
C1789 C 0.62865 0.6467 0.89095 0.0
N1790 N 0.65786 0.60296 0.88273 0.0
N1791 N 0.62629 0.67499 0.82939 0.0
H1792 H 0.61359 0.64832 0.96075 0.0
H1793 H 0.60555 0.66337 0.91436 0.0
H1794 H 0.62653 0.68085 0.79352 0.0
H1795 H 0.62484 0.68738 0.85492 0.0
H1796 H 0.66844 0.59733 0.85974 0.0
H1797 H 0.65707 0.59685 0.91872 0.0
H1798 H 0.65529 0.59594 0.78937 0.0
H1799 H 0.65276 0.61676 0.74643 0.0
C1800 C 0.33313 0.01018 0.88084 0.0
C1801 C 0.35613 0.02502 0.90916 0.0
C1802 C 0.38445 0.02837 0.84275 0.0
C1803 C 0.36181 0.01319 0.81285 0.0
N1804 N 0.31482 0.99638 0.79961 0.0
N1805 N 0.40206 0.05859 0.91072 0.0
C1806 C 0.33604 0.00627 0.83049 0.0
C1807 C 0.38108 0.03866 0.88663 0.0
N1808 N 0.30889 -0.00079 0.90283 0.0
N1809 N 0.40844 0.03048 0.83237 0.0
H1810 H 0.39969 0.06522 0.94473 0.0
H1811 H 0.42072 0.0698 0.89463 0.0
H1812 H 0.41106 0.01993 0.80425 0.0
H1813 H 0.42479 0.03994 0.85552 0.0
H1814 H 0.29116 0.98626 0.88537 0.0
H1815 H 0.307 0.00294 0.93947 0.0
H1816 H 0.29601 0.99257 0.81013 0.0
H1817 H 0.31664 0.99444 0.76225 0.0
C1818 C 0.00924 0.61123 0.34112 0.0
C1819 C 0.01115 0.63254 0.31325 0.0
C1820 C 0.99217 0.64544 0.37907 0.0
C1821 C 0.99175 0.62526 0.40831 0.0
N1822 N 0.00844 0.59506 0.42215 0.0
N1823 N 0.01366 0.67484 0.31118 0.0
C1824 C 0.00282 0.60987 0.39097 0.0
C1825 C 0.00559 0.65132 0.33409 0.0
N1826 N 0.01272 0.59192 0.31992 0.0
N1827 N 0.97909 0.65828 0.39354 0.0
H1828 H 0.02476 0.67966 0.27907 0.0
H1829 H 0.01221 0.69034 0.32709 0.0
H1830 H 0.96732 0.65284 0.42482 0.0
H1831 H 0.97788 0.67242 0.37223 0.0
H1832 H 0.00847 0.57446 0.33786 0.0
H1833 H 0.01812 0.59247 0.28349 0.0
H1834 H 0.01912 0.5859 0.4114 0.0
H1835 H 0.0051 0.59424 0.45961 0.0
C1836 C 0.39511 0.37443 0.34049 0.0
C1837 C 0.37291 0.36645 0.30948 0.0
C1838 C 0.34398 0.33416 0.37003 0.0
C1839 C 0.36638 0.34293 0.40016 0.0
N1840 N 0.41357 0.3615 0.40649 0.0
N1841 N 0.32733 0.33432 0.28911 0.0
C1842 C 0.39213 0.35915 0.38183 0.0
C1843 C 0.34753 0.34476 0.32231 0.0
N1844 N 0.41849 0.39736 0.33194 0.0
N1845 N 0.31963 0.31616 0.38798 0.0
H1846 H 0.32985 0.34044 0.25291 0.0
H1847 H 0.30856 0.31828 0.29609 0.0
H1848 H 0.31758 0.30783 0.42254 0.0
H1849 H 0.30186 0.30966 0.36938 0.0
H1850 H 0.43448 0.4049 0.35603 0.0
H1851 H 0.42088 0.41027 0.30354 0.0
H1852 H 0.4329 0.37216 0.393 0.0
H1853 H 0.41142 0.35035 0.43765 0.0
C1854 C 0.61814 0.99233 0.30815 0.0
C1855 C 0.63196 0.97923 0.29192 0.0
C1856 C 0.65449 0.98752 0.37056 0.0
C1857 C 0.63957 -0.00075 0.38668 0.0
N1858 N 0.61574 0.02181 0.36756 0.0
N1859 N 0.66702 0.969 0.30264 0.0
C1860 C 0.6243 0.00469 0.3541 0.0
C1861 C 0.65175 0.9787 0.32136 0.0
N1862 N 0.59885 0.99273 0.28022 0.0
N1863 N 0.67046 0.98424 0.4028 0.0
H1864 H 0.66464 0.96159 0.26724 0.0
H1865 H 0.68266 0.96904 0.321 0.0
H1866 H 0.6711 0.98887 0.43966 0.0
H1867 H 0.68294 0.97691 0.39374 0.0
H1868 H 0.58586 -0.00128 0.29338 0.0
H1869 H 0.5946 0.98588 0.24456 0.0
H1870 H 0.60665 0.0287 0.34373 0.0
H1871 H 0.62035 0.03131 0.40138 0.0
C1872 C 0.61176 0.6823 0.19173 0.0
C1873 C 0.6229 0.67152 0.22297 0.0
C1874 C 0.65823 0.68125 0.16544 0.0
C1875 C 0.65055 0.69712 0.13842 0.0
N1876 N 0.61817 0.71134 0.12431 0.0
N1877 N 0.64515 0.64654 0.22612 0.0
C1878 C 0.62644 0.69686 0.15043 0.0
C1879 C 0.64225 0.66608 0.20501 0.0
N1880 N 0.58759 0.67924 0.20356 0.0
N1881 N 0.68191 0.68258 0.15618 0.0
H1882 H 0.63307 0.63539 0.25504 0.0
H1883 H 0.65725 0.63972 0.21179 0.0
H1884 H 0.69586 0.69644 0.13225 0.0
H1885 H 0.68864 0.67167 0.17518 0.0
H1886 H 0.5767 0.68457 0.18087 0.0
H1887 H 0.57755 0.66886 0.23492 0.0
H1888 H 0.6034 0.71504 0.1364 0.0
H1889 H 0.62676 0.72101 0.09189 0.0
C1890 C 0.30817 0.96542 0.18334 0.0
C1891 C 0.28135 0.95316 0.1696 0.0
C1892 C 0.26906 0.93138 0.24873 0.0
C1893 C 0.29611 0.93835 0.25667 0.0
N1894 N 0.34002 0.95691 0.22227 0.0
N1895 N 0.23551 0.92237 0.1878 0.0
C1896 C 0.31542 0.95429 0.22174 0.0
C1897 C 0.26148 0.93555 0.20201 0.0
N1898 N 0.32678 0.98715 0.15897 0.0
N1899 N 0.25093 0.92225 0.28573 0.0
H1900 H 0.22924 0.92626 0.15476 0.0
H1901 H 0.2207 0.90669 0.20768 0.0
H1902 H 0.25587 0.92192 0.32202 0.0
H1903 H 0.23154 0.91829 0.28121 0.0
H1904 H 0.34594 -0.00132 0.17275 0.0
H1905 H 0.32194 0.99527 0.12954 0.0
H1906 H 0.3535 0.96652 0.19436 0.0
H1907 H 0.34537 0.94658 0.24643 0.0
C1908 C 0.04948 0.33135 0.22645 0.0
C1909 C 0.03658 0.34515 0.24393 0.0
C1910 C 0.01 0.3341 0.16962 0.0
C1911 C 0.02536 0.3235 0.15017 0.0
N1912 N 0.05845 0.31051 0.15823 0.0
N1913 N 0.00131 0.35543 0.23776 0.0
C1914 C 0.0443 0.32113 0.17855 0.0
C1915 C 0.01552 0.34489 0.2174 0.0
N1916 N 0.06569 0.32688 0.25636 0.0
N1917 N 0.99144 0.33532 0.14094 0.0
H1918 H 0.00605 0.36509 0.27134 0.0
H1919 H 0.98445 0.35437 0.22256 0.0
H1920 H 0.98832 0.32913 0.10478 0.0
H1921 H 0.97917 0.34257 0.15194 0.0
H1922 H 0.07277 0.3141 0.24788 0.0
H1923 H 0.07058 0.33406 0.29177 0.0
H1924 H 0.07545 0.31189 0.17359 0.0
H1925 H 0.05373 0.30112 0.12431 0.0
C1926 C 0.67003 0.9428 0.6837 0.0
C1927 C 0.66891 0.95826 0.64549 0.0
C1928 C 0.65187 0.97931 0.70087 0.0
C1929 C 0.64847 0.96027 0.73656 0.0
N1930 N 0.65435 0.92357 0.7626 0.0
N1931 N 0.66239 0.99351 0.61641 0.0
C1932 C 0.65766 0.94199 0.72829 0.0
C1933 C 0.66126 0.97755 0.65383 0.0
N1934 N 0.6835 0.92932 0.67726 0.0
N1935 N 0.64497 -0.00196 0.71158 0.0
H1936 H 0.66631 0.99056 0.58063 0.0
H1937 H 0.65961 0.0097 0.62015 0.0
H1938 H 0.6371 -0.001 0.74522 0.0
H1939 H 0.64725 0.01298 0.68801 0.0
H1940 H 0.68759 0.91988 0.70533 0.0
H1941 H 0.6931 0.92998 0.64466 0.0
H1942 H 0.6568 0.9074 0.7551 0.0
H1943 H 0.64804 0.92343 0.79809 0.0
C1944 C 0.06083 0.72693 0.62787 0.0
C1945 C 0.03402 0.72079 0.62158 0.0
C1946 C 0.02235 0.69647 0.69814 0.0
C1947 C 0.04951 0.70753 0.70927 0.0
N1948 N 0.09528 0.73432 0.68544 0.0
N1949 N 0.99043 0.70401 0.65599 0.0
C1950 C 0.06897 0.72285 0.67403 0.0
C1951 C 0.01503 0.7066 0.65811 0.0
N1952 N 0.07823 0.73525 0.58966 0.0
N1953 N 0.0036 0.67637 0.72562 0.0
H1954 H 0.98492 0.71285 0.62886 0.0
H1955 H 0.97663 0.69541 0.68388 0.0
H1956 H 0.00866 0.66806 0.75424 0.0
H1957 H 0.98365 0.66588 0.7156 0.0
H1958 H 0.09717 0.73776 0.59238 0.0
H1959 H 0.07308 0.73667 0.55399 0.0
H1960 H 0.11013 0.74935 0.66452 0.0
H1961 H 0.10192 0.72985 0.71745 0.0
C1962 C 0.32122 0.32247 0.70611 0.0
C1963 C 0.30112 0.32175 0.73672 0.0
C1964 C 0.26813 0.30014 0.67276 0.0
C1965 C 0.28882 0.30552 0.63989 0.0
N1966 N 0.33417 0.31779 0.6241 0.0
N1967 N 0.25533 0.31022 0.74956 0.0
C1968 C 0.3151 0.31501 0.65641 0.0
C1969 C 0.27447 0.31038 0.72036 0.0
N1970 N 0.34611 0.33095 0.72427 0.0
N1971 N 0.24234 0.28524 0.65778 0.0
H1972 H 0.25753 0.3137 0.78698 0.0
H1973 H 0.2375 0.30769 0.73587 0.0
H1974 H 0.23737 0.27697 0.62292 0.0
H1975 H 0.22611 0.27917 0.68084 0.0
H1976 H 0.36113 0.32992 0.70555 0.0
H1977 H 0.35172 0.33813 0.75959 0.0
H1978 H 0.35419 0.32627 0.63251 0.0
H1979 H 0.32984 0.31143 0.5881 0.0
C1980 C 0.29641 0.02356 0.51642 0.0
C1981 C 0.3072 0.01487 0.55328 0.0
C1982 C 0.33489 0.00858 0.49395 0.0
C1983 C 0.32751 0.0216 0.45903 0.0
N1984 N 0.29971 0.03941 0.43368 0.0
N1985 N 0.32899 0.9905 0.57563 0.0
C1986 C 0.30738 0.02802 0.46899 0.0
C1987 C 0.32381 0.00433 0.54148 0.0
N1988 N 0.27578 0.02759 0.52771 0.0
N1989 N 0.35379 0.00201 0.48248 0.0
H1990 H 0.32252 0.9884 0.61156 0.0
H1991 H 0.33743 0.97888 0.56741 0.0
H1992 H 0.36307 0.0059 0.44852 0.0
H1993 H 0.36119 0.99365 0.5068 0.0
H1994 H 0.26593 0.03297 0.50268 0.0
H1995 H 0.26719 0.02353 0.56236 0.0
H1996 H 0.28757 0.0475 0.43994 0.0
H1997 H 0.30609 0.04153 0.39758 0.0
C1998 C 0.94421 0.27921 0.49359 0.0
C1999 C 0.96515 0.30269 0.47309 0.0
C2000 C 0.99263 0.31029 0.54449 0.0
C2001 C 0.9716 0.28708 0.56521 0.0
N2002 N 0.93049 0.24598 0.55688 0.0
N2003 N 0.00571 0.34405 0.48215 0.0
C2004 C 0.94833 0.27035 0.5386 0.0
C2005 C 0.98843 0.31933 0.49946 0.0
N2006 N 0.92038 0.26587 0.46983 0.0
N2007 N 0.01674 0.32281 0.56702 0.0
H2008 H 0.00183 0.35135 0.45037 0.0
H2009 H 0.02234 0.35805 0.50114 0.0
H2010 H 0.02053 0.31506 0.59826 0.0
H2011 H 0.03339 0.33934 0.55287 0.0
H2012 H 0.90352 0.2497 0.4843 0.0
H2013 H 0.9168 0.27253 0.43696 0.0
H2014 H 0.91387 0.23186 0.53807 0.0
H2015 H 0.93371 0.239 0.58973 0.0
C2016 C 0.68214 0.67989 0.54023 0.0
C2017 C 0.70878 0.69838 0.55236 0.0
C2018 C 0.72247 0.70025 0.46786 0.0
C2019 C 0.6967 0.6786 0.45767 0.0
N2020 N 0.65149 0.64836 0.48145 0.0
N2021 N 0.75229 0.73199 0.52787 0.0
C2022 C 0.67613 0.66907 0.49269 0.0
C2023 C 0.7283 0.71061 0.51583 0.0
N2024 N 0.66274 0.67266 0.57437 0.0
N2025 N 0.74147 0.70998 0.43213 0.0
H2026 H 0.75622 0.7401 0.56291 0.0
H2027 H 0.76758 0.74273 0.50333 0.0
H2028 H 0.7374 0.70418 0.39573 0.0
H2029 H 0.76143 0.7235 0.43811 0.0
H2030 H 0.64258 0.66252 0.56615 0.0
H2031 H 0.66691 0.67919 0.61018 0.0
H2032 H 0.63637 0.63848 0.50679 0.0
H2033 H 0.64635 0.63991 0.44679 0.0
C2034 C 0.31041 0.24083 0.98266 0.0
C2035 C 0.33835 0.25801 0.97999 0.0
C2036 C 0.34026 0.26528 0.06748 0.0
C2037 C 0.31212 0.25337 0.06795 0.0
N2038 N 0.26982 0.22773 1.02816 0.0
N2039 N 0.38055 0.28489 1.01911 0.0
C2040 C 0.29693 0.24004 1.02635 0.0
C2041 C 0.35355 0.26943 1.02237 0.0
N2042 N 0.29692 0.22559 0.94335 0.0
N2043 N 0.35408 0.27195 0.1103 0.0
H2044 H 0.39091 0.28724 0.98668 0.0
H2045 H 0.39257 0.29616 1.04787 0.0
H2046 H 0.34501 0.26943 0.1442 0.0
H2047 H 0.37405 0.2774 0.11261 0.0
H2048 H 0.27703 0.21085 0.94429 0.0
H2049 H 0.30614 0.22632 0.91034 0.0
H2050 H 0.25753 0.21936 0.99806 0.0
H2051 H 0.25944 0.22695 0.05973 0.0
C2052 C 0.71235 0.05288 0.99756 0.0
C2053 C 0.68971 0.03352 0.97252 0.0
C2054 C 0.67655 0.00354 1.04181 0.0
C2055 C 0.6999 0.02251 0.06584 0.0
N2056 N 0.74292 0.06221 0.06403 0.0
N2057 N 0.64687 0.99416 0.97298 0.0
C2058 C 0.71872 0.04633 1.0428 0.0
C2059 C 0.6707 0.00982 0.99528 0.0
N2060 N 0.72744 0.07756 0.97775 0.0
N2061 N 0.66089 0.97934 0.06276 0.0
H2062 H 0.64203 -0.0006 0.9398 0.0
H2063 H 0.63118 0.97743 0.98884 0.0
H2064 H 0.66586 0.97408 0.09579 0.0
H2065 H 0.64424 0.96389 1.0462 0.0
H2066 H 0.74295 0.09341 0.99601 0.0
H2067 H 0.72269 0.08288 0.94454 0.0
H2068 H 0.75842 0.07868 1.0471 0.0
H2069 H 0.74844 0.05748 0.09703 0.0
C2070 C 0.98989 0.67018 1.01437 0.0
C2071 C 0.98466 0.68628 0.98313 0.0
C2072 C -0.00175 0.71997 1.04683 0.0
C2073 C -0.00197 0.70151 0.08016 0.0
N2074 N 0.99212 0.65837 0.09757 0.0
N2075 N 0.98346 0.72654 0.96879 0.0
C2076 C 0.99434 0.67677 0.06433 0.0
C2077 C 0.9893 0.71151 0.9988 0.0
N2078 N 0.98985 0.64823 0.9968 0.0
N2079 N 0.00558 0.745 0.06238 0.0
H2080 H 0.97768 0.72136 0.93268 0.0
H2081 H 0.98324 0.74348 0.98012 0.0
H2082 H 0.01126 0.75095 0.09831 0.0
H2083 H 0.00782 0.76024 1.03958 0.0
H2084 H 0.99614 0.63732 1.01719 0.0
H2085 H 0.98578 0.64234 0.96059 0.0
H2086 H 0.98348 0.6384 0.08893 0.0
H2087 H 0.9965 0.66248 0.13445 0.0
C2088 C 0.04524 0.4997 0.94087 0.0
C2089 C 0.07111 0.51665 0.92196 0.0
C2090 C 0.09031 0.51044 0.99828 0.0
C2091 C 0.0643 0.493 1.0168 0.0
N2092 N 0.01683 0.47001 1.00422 0.0
N2093 N 0.11838 0.53615 0.92996 0.0
C2094 C 0.04179 0.48734 0.98748 0.0
C2095 C 0.09367 0.52158 0.95018 0.0
N2096 N 0.02376 0.49614 0.91465 0.0
N2097 N 0.11188 0.51611 1.02647 0.0
H2098 H 0.12148 0.54473 0.89548 0.0
H2099 H 0.13577 0.53864 0.94554 0.0
H2100 H 0.11052 0.5066 0.05933 0.0
H2101 H 0.1312 0.53081 1.01852 0.0
H2102 H 0.00442 0.48694 0.9279 0.0
H2103 H 0.02553 0.50373 0.87973 0.0
H2104 H -5e-05 0.46123 0.9824 0.0
H2105 H 0.01278 0.46367 1.04023 0.0
C2106 C 0.46492 0.54528 1.00922 0.0
C2107 C 0.49309 0.56324 1.01279 0.0
C2108 C 0.49397 0.5668 0.92187 0.0
C2109 C 0.46678 0.54701 0.91903 0.0
N2110 N 0.4273 0.51452 0.95982 0.0
N2111 N 0.53445 0.59032 0.96843 0.0
C2112 C 0.45255 0.53571 0.96267 0.0
C2113 C 0.50757 0.5736 0.96794 0.0
N2114 N 0.44935 0.53702 0.04994 0.0
N2115 N 0.50662 0.58032 0.88048 0.0
H2116 H 0.54526 0.60053 0.99892 0.0
H2117 H 0.54642 0.59405 0.93781 0.0
H2118 H 0.49753 0.57589 0.84634 0.0
H2119 H 0.52524 0.59739 0.88035 0.0
H2120 H 0.42884 0.52913 0.04872 0.0
H2121 H 0.45624 0.53759 0.08496 0.0
H2122 H 0.41681 0.50306 0.98974 0.0
H2123 H 0.41749 0.50684 0.92687 0.0
C2124 C 0.41151 0.9306 0.96587 0.0
C2125 C 0.42626 0.93383 1.00952 0.0
C2126 C 0.45821 0.92641 0.96067 0.0
C2127 C 0.44346 0.92348 0.91758 0.0
N2128 N 0.40926 0.92799 0.87728 0.0
N2129 N 0.46358 0.9335 1.04794 0.0
C2130 C 0.42101 0.92703 0.91979 0.0
C2131 C 0.44961 0.93142 1.00659 0.0
N2132 N 0.38732 0.92907 0.9686 0.0
N2133 N 0.48134 0.92568 0.95717 0.0
H2134 H 0.46136 0.94142 0.08033 0.0
H2135 H 0.47743 0.92724 0.05074 0.0
H2136 H 0.48753 0.92076 0.9251 0.0
H2137 H 0.49535 0.93135 0.98484 0.0
H2138 H 0.37406 0.92351 0.93962 0.0
H2139 H 0.37917 0.93086 1.00104 0.0
H2140 H 0.39517 0.934 0.87522 0.0
H2141 H 0.41521 0.92494 0.84315 0.0
C2142 C 0.52207 0.06283 0.69259 0.0
C2143 C 0.49703 0.06206 0.6897 0.0
C2144 C 0.50065 0.0713 0.7792 0.0
C2145 C 0.52412 0.06947 0.78204 0.0
N2146 N 0.55409 0.05827 0.74242 0.0
N2147 N 0.46223 0.06483 0.73315 0.0
C2148 C 0.53395 0.0639 0.73896 0.0
C2149 C 0.48622 0.06588 0.73401 0.0
N2150 N 0.53523 0.06303 0.65126 0.0
N2151 N 0.49271 0.0794 0.81947 0.0
H2152 H 0.4527 0.06473 0.70114 0.0
H2153 H 0.45133 0.06342 0.76425 0.0
H2154 H 0.50245 0.08317 0.85292 0.0
H2155 H 0.47782 0.08437 0.81912 0.0
H2156 H 0.55525 0.06849 0.65128 0.0
H2157 H 0.52715 0.05936 0.61656 0.0
H2158 H 0.55987 0.05056 0.71366 0.0
H2159 H 0.56338 0.05888 0.77528 0.0
C2160 C 0.97294 0.44323 0.7345 0.0
C2161 C 0.95288 0.42952 0.69842 0.0
C2162 C 0.91996 0.42987 0.75654 0.0
C2163 C 0.9403 0.44562 0.7902 0.0
N2164 N 0.98677 0.46947 0.80927 0.0
N2165 N 0.90727 0.4143 0.67413 0.0
C2166 C 0.96695 0.45281 0.77857 0.0
C2167 C 0.92646 0.4242 0.70922 0.0
N2168 N -0.00209 0.44723 0.72695 0.0
N2169 N 0.89401 0.41947 0.7703 0.0
H2170 H 0.90991 0.40881 0.63968 0.0
H2171 H 0.8891 0.41363 0.67775 0.0
H2172 H 0.88835 0.42344 0.80394 0.0
H2173 H 0.87812 0.40491 0.75046 0.0
H2174 H 0.01247 0.45386 0.75383 0.0
H2175 H 0.00378 0.44235 0.6946 0.0
H2176 H 0.0069 0.47831 0.80102 0.0
H2177 H 0.98289 0.47581 0.84219 0.0
C2178 C 0.53262 0.46774 0.73885 0.0
C2179 C 0.54876 0.47791 0.78092 0.0
C2180 C 0.57921 0.51834 0.7343 0.0
C2181 C 0.56484 0.50676 0.69014 0.0
N2182 N 0.5279 0.46866 0.65161 0.0
N2183 N 0.58909 0.51172 0.81763 0.0
C2184 C 0.54166 0.48094 0.69288 0.0
C2185 C 0.57242 0.50295 0.77831 0.0
N2186 N 0.50785 0.44594 0.74318 0.0
N2187 N 0.59935 0.54412 0.73497 0.0
H2188 H 0.58464 0.50137 0.85049 0.0
H2189 H 0.6082 0.52807 0.81663 0.0
H2190 H 0.60694 0.55586 0.70415 0.0
H2191 H 0.6077 0.55461 0.76699 0.0
H2192 H 0.49354 0.43952 0.71582 0.0
H2193 H 0.50061 0.4356 0.77581 0.0
H2194 H 0.51397 0.4485 0.65001 0.0
H2195 H 0.53078 0.47817 0.61835 0.0
C2196 C 0.96449 0.50489 0.2223 0.0
C2197 C 0.94199 0.49732 0.19124 0.0
C2198 C 0.91369 0.46557 0.25552 0.0
C2199 C 0.93622 0.47231 0.28501 0.0
N2200 N 0.98368 0.49348 0.29039 0.0
N2201 N 0.89595 0.46384 0.17527 0.0
C2202 C 0.96177 0.49068 0.2667 0.0
C2203 C 0.9169 0.47564 0.20678 0.0
N2204 N 0.98886 0.5253 0.20922 0.0
N2205 N 0.88887 0.45003 0.27456 0.0
H2206 H 0.89599 0.47025 0.14001 0.0
H2207 H 0.87877 0.44598 0.18299 0.0
H2208 H 0.88559 0.44188 0.30944 0.0
H2209 H 0.87163 0.44719 0.25748 0.0
H2210 H 0.00474 0.5344 0.23341 0.0
H2211 H 0.99333 0.53355 0.17451 0.0
H2212 H 0.00286 0.504 0.27626 0.0
H2213 H 0.98234 0.48301 0.32207 0.0
C2214 C 0.5242 0.42956 0.25062 0.0
C2215 C 0.52173 0.44916 0.27745 0.0
C2216 C 0.49054 0.44801 0.21469 0.0
C2217 C 0.49483 0.43016 0.1853 0.0
N2218 N 0.51668 0.40445 0.17559 0.0
N2219 N 0.50539 0.47975 0.28157 0.0
C2220 C 0.51206 0.42123 0.20337 0.0
C2221 C 0.50555 0.45898 0.25857 0.0
N2222 N 0.53749 0.41818 0.27121 0.0
N2223 N 0.47195 0.45458 0.20115 0.0
H2224 H 0.51558 0.48794 0.314 0.0
H2225 H 0.497 0.49031 0.26662 0.0
H2226 H 0.46249 0.4498 0.1675 0.0
H2227 H 0.46498 0.46391 0.22437 0.0
H2228 H 0.53758 0.40165 0.25699 0.0
H2229 H 0.54707 0.42414 0.30482 0.0
H2230 H 0.53155 0.39996 0.1829 0.0
H2231 H 0.50627 0.39563 0.14376 0.0
C2232 C 0.58033 0.06257 0.23007 0.0
C2233 C 0.56376 0.05455 0.18807 0.0
C2234 C 0.52996 0.05896 0.2367 0.0
C2235 C 0.54602 0.06506 0.27914 0.0
N2236 N 0.58457 0.0681 0.31789 0.0
N2237 N 0.52496 0.05136 0.14944 0.0
C2238 C 0.57059 0.06545 0.27622 0.0
C2239 C 0.5391 0.05438 0.19095 0.0
N2240 N 0.60655 0.07066 0.22456 0.0
N2241 N 0.50544 0.05667 0.24046 0.0
H2242 H 0.52921 0.04576 0.1162 0.0
H2243 H 0.50961 0.05561 0.14708 0.0
H2244 H 0.49879 0.0615 0.27206 0.0
H2245 H 0.49095 0.04853 0.2135 0.0
H2246 H 0.62058 0.079 0.25228 0.0
H2247 H 0.61474 0.07298 0.19009 0.0
H2248 H 0.60126 0.06589 0.31893 0.0
H2249 H 0.5782 0.07026 0.35229 0.0
C2250 C 0.50709 0.95399 0.47853 0.0
C2251 C 0.50168 0.93227 0.50994 0.0
C2252 C 0.47088 0.90166 0.44698 0.0
C2253 C 0.47429 0.92348 0.41841 0.0
N2254 N 0.4928 0.97059 0.4105 0.0
N2255 N 0.47653 0.88503 0.52437 0.0
C2256 C 0.49173 0.94967 0.43511 0.0
C2257 C 0.48292 0.90603 0.49425 0.0
N2258 N 0.52708 0.97894 0.48962 0.0
N2259 N 0.45694 0.87663 0.428 0.0
H2260 H 0.48632 0.88666 0.55693 0.0
H2261 H 0.46057 0.86607 0.51832 0.0
H2262 H 0.44768 0.87261 0.39404 0.0
H2263 H 0.45635 0.86011 0.4438 0.0
H2264 H 0.53451 0.9946 0.46494 0.0
H2265 H 0.5375 0.9839 0.52227 0.0
H2266 H 0.50245 0.98995 0.42375 0.0
H2267 H 0.48212 0.9683 0.3786 0.0
C2268 C 0.08283 0.55727 0.45494 0.0
C2269 C 0.06286 0.54308 0.41982 0.0
C2270 C 0.03042 0.54682 0.47355 0.0
C2271 C 0.05 0.55895 0.51107 0.0
N2272 N 0.09427 0.57002 0.53863 0.0
N2273 N 0.0168 0.52143 0.39776 0.0
C2274 C 0.07594 0.56245 0.50212 0.0
C2275 C 0.03643 0.53719 0.42967 0.0
N2276 N 0.10887 0.5668 0.44276 0.0
N2277 N 0.00579 0.54392 0.47989 0.0
H2278 H 0.02072 0.51448 0.36557 0.0
H2279 H 0.99662 0.51361 0.4045 0.0
H2280 H -0.0004 0.54846 0.51218 0.0
H2281 H 0.99172 0.53819 0.45226 0.0
H2282 H 0.12465 0.58034 0.46421 0.0
H2283 H 0.11486 0.56333 0.40901 0.0
H2284 H 0.11147 0.56874 0.53567 0.0
H2285 H 0.09207 0.57591 0.57306 0.0
C2286 C 0.41565 0.49422 0.42081 0.0
C2287 C 0.44037 0.51822 0.41716 0.0
C2288 C 0.44837 0.51468 0.5045 0.0
C2289 C 0.42422 0.48972 0.50814 0.0
N2290 N 0.38644 0.45441 0.46628 0.0
N2291 N 0.48233 0.54897 0.45342 0.0
C2292 C 0.40844 0.47907 0.46516 0.0
C2293 C 0.45723 0.52773 0.45844 0.0
N2294 N 0.39858 0.48621 0.38209 0.0
N2295 N 0.46307 0.52643 0.54519 0.0
H2296 H 0.48926 0.5598 0.42122 0.0
H2297 H 0.49704 0.55465 0.47986 0.0
H2298 H 0.46023 0.51676 0.57825 0.0
H2299 H 0.47765 0.54637 0.54659 0.0
H2300 H 0.3789 0.47097 0.38387 0.0
H2301 H 0.40354 0.49605 0.34868 0.0
H2302 H 0.37636 0.44393 0.43524 0.0
H2303 H 0.37886 0.44361 0.49807 0.0
C2304 C 0.7433 0.85227 0.27816 0.0
C2305 C 0.72218 0.8448 0.24443 0.0
C2306 C 0.69164 0.81149 0.30431 0.0
C2307 C 0.71323 0.81758 0.3367 0.0
N2308 N 0.76082 0.83972 0.3468 0.0
N2309 N 0.67695 0.81404 0.22231 0.0
C2310 C 0.73937 0.83694 0.3215 0.0
C2311 C 0.69658 0.82341 0.25669 0.0
N2312 N 0.7672 0.87453 0.26945 0.0
N2313 N 0.66616 0.79526 0.31962 0.0
H2314 H 0.67964 0.8225 0.18779 0.0
H2315 H 0.65881 0.79662 0.22637 0.0
H2316 H 0.66139 0.78674 0.3541 0.0
H2317 H 0.64955 0.79221 0.3 0.0
H2318 H 0.78239 0.88288 0.29516 0.0
H2319 H 0.77103 0.88602 0.23814 0.0
H2320 H 0.78033 0.85129 0.33476 0.0
H2321 H 0.75909 0.82812 0.37686 0.0
C2322 C 0.14412 0.86833 0.29094 0.0
C2323 C 0.15248 0.88571 0.25029 0.0
C2324 C 0.18737 0.92035 0.30272 0.0
C2325 C 0.18052 0.90253 0.3429 0.0
N2326 N 0.14385 0.86284 0.37778 0.0
N2327 N 0.18478 0.92753 0.21597 0.0
C2328 C 0.15663 0.87735 0.33762 0.0
C2329 C 0.17491 0.91148 0.25587 0.0
N2330 N 0.12416 0.84271 0.28516 0.0
N2331 N 0.20321 0.94669 0.31115 0.0
H2332 H 0.17625 0.92184 0.18146 0.0
H2333 H 0.20276 0.94535 0.21607 0.0
H2334 H 0.20815 0.95364 0.34649 0.0
H2335 H 0.2073 0.96141 0.28551 0.0
H2336 H 0.11979 0.82793 0.31086 0.0
H2337 H 0.11317 0.83568 0.2532 0.0
H2338 H 0.12432 0.84718 0.37712 0.0
H2339 H 0.15121 0.86776 0.41274 0.0
C2340 C 0.09473 0.24252 0.27662 0.0
C2341 C 0.11304 0.26464 0.24833 0.0
C2342 C 0.11376 0.29473 0.3133 0.0
C2343 C 0.09641 0.27256 0.34296 0.0
N2344 N 0.07056 0.22506 0.3526 0.0
N2345 N 0.14069 0.31181 0.23998 0.0
C2346 C 0.0871 0.24639 0.32453 0.0
C2347 C 0.12248 0.29072 0.26668 0.0
N2348 N 0.08359 0.21774 0.25646 0.0
N2349 N 0.12207 0.31987 0.3297 0.0
H2350 H 0.14627 0.30976 0.20491 0.0
H2351 H 0.15147 0.33113 0.25304 0.0
H2352 H 0.11988 0.32424 0.36559 0.0
H2353 H 0.13077 0.33663 0.30767 0.0
H2354 H 0.068 0.2008 0.27191 0.0
H2355 H 0.08875 0.21418 0.22199 0.0
H2356 H 0.06588 0.20568 0.34523 0.0
H2357 H 0.06188 0.22665 0.38466 0.0
C2358 C 0.18675 0.41859 0.08348 0.0
C2359 C 0.18018 0.39809 0.11791 0.0
C2360 C 0.14284 0.36752 0.06447 0.0
C2361 C 0.15137 0.38723 1.02701 0.0
N2362 N 0.18439 0.4315 1.00092 0.0
N2363 N 0.15401 0.35192 0.1382 0.0
C2364 C 0.1742 0.41266 1.03657 0.0
C2365 C 0.15867 0.37229 0.10762 0.0
N2366 N 0.20435 0.44421 0.09632 0.0
N2367 N 0.11961 0.34407 0.05929 0.0
H2368 H 0.16519 0.35468 0.16959 0.0
H2369 H 0.14071 0.33208 0.13053 0.0
H2370 H 0.10811 0.33869 1.02793 0.0
H2371 H 0.11066 0.33053 0.08755 0.0
H2372 H 0.20748 0.46054 0.07575 0.0
H2373 H 0.214 0.4494 0.12994 0.0
H2374 H 0.20297 0.44855 1.0033 0.0
H2375 H 0.17532 0.42966 0.96758 0.0
C2376 C 0.58435 0.78397 1.01682 0.0
C2377 C 0.58587 0.76026 1.01497 0.0
C2378 C 0.5735 0.75335 0.10299 0.0
C2379 C 0.57503 0.77847 0.10522 0.0
N2380 N 0.5854 0.81931 0.06554 0.0
N2381 N 0.57452 0.71904 0.0538 0.0
C2382 C 0.5813 0.7941 0.06245 0.0
C2383 C 0.57865 0.74414 0.05776 0.0
N2384 N 0.58403 0.79625 0.97482 0.0
N2385 N 0.56729 0.73843 0.14453 0.0
H2386 H 0.57619 0.71154 1.02062 0.0
H2387 H 0.56716 0.70483 0.08117 0.0
H2388 H 0.56329 0.74452 0.17768 0.0
H2389 H 0.56648 0.72027 0.1473 0.0
H2390 H 0.57792 0.81029 0.97382 0.0
H2391 H 0.58727 0.79093 0.94049 0.0
H2392 H 0.59353 0.83302 1.03726 0.0
H2393 H 0.58273 0.82728 0.0977 0.0
C2394 C 0.22665 0.8026 0.08886 0.0
C2395 C 0.20766 0.80587 0.11636 0.0
C2396 C 0.21036 0.83823 0.05457 0.0
C2397 C 0.22775 0.83343 1.02466 0.0
N2398 N 0.25186 0.81002 1.01377 0.0
N2399 N 0.17842 0.82383 0.12118 0.0
C2400 C 0.23553 0.81515 1.04192 0.0
C2401 C 0.19882 0.82295 0.09803 0.0
N2402 N 0.23698 0.78814 0.10858 0.0
N2403 N 0.20489 0.8577 1.04211 0.0
H2404 H 0.16985 0.8135 0.15332 0.0
H2405 H 0.16848 0.83293 0.10649 0.0
H2406 H 0.20995 0.86743 1.00874 0.0
H2407 H 0.19618 0.86507 0.06598 0.0
H2408 H 0.25307 0.78729 0.09402 0.0
H2409 H 0.23054 0.77824 0.14179 0.0
H2410 H 0.25556 0.79457 1.02036 0.0
H2411 H 0.26112 0.82063 0.98234 0.0
C2412 C 0.57235 0.78068 0.56111 0.0
C2413 C 0.57528 0.79436 0.60564 0.0
C2414 C 0.58498 0.83448 0.5587 0.0
C2415 C 0.5836 0.82149 0.51355 0.0
N2416 N 0.57038 0.77961 0.47301 0.0
N2417 N 0.58813 0.83543 0.64713 0.0
C2418 C 0.57566 0.79385 0.51515 0.0
C2419 C 0.58271 0.82157 0.60438 0.0
N2420 N 0.56817 0.75538 0.56279 0.0
N2421 N 0.58586 0.85834 0.55809 0.0
H2422 H 0.58537 0.82656 0.68126 0.0
H2423 H 0.59728 0.85602 0.6488 0.0
H2424 H 0.58512 0.86733 0.52602 0.0
H2425 H 0.58398 0.86768 0.58898 0.0
H2426 H 0.56932 0.74514 0.53264 0.0
H2427 H 0.5655 0.74507 0.59528 0.0
H2428 H 0.55962 0.759 0.47175 0.0
H2429 H 0.57581 0.78794 0.43864 0.0
C2430 C 0.14516 0.74477 0.56718 0.0
C2431 C 0.15081 0.76255 0.52728 0.0
C2432 C 0.18674 0.79778 0.5786 0.0
C2433 C 0.17954 0.78042 0.61916 0.0
N2434 N 0.1499 0.73757 0.65325 0.0
N2435 N 0.18619 0.80288 0.49182 0.0
C2436 C 0.15819 0.75396 0.61362 0.0
C2437 C 0.17404 0.78826 0.53219 0.0
N2438 N 0.12972 0.71833 0.55878 0.0
N2439 N 0.20588 0.82381 0.58403 0.0
H2440 H 0.17869 0.79752 0.45701 0.0
H2441 H 0.20545 0.81904 0.49218 0.0
H2442 H 0.21723 0.83136 0.61551 0.0
H2443 H 0.20927 0.83835 0.55836 0.0
H2444 H 0.1264 0.70361 0.58387 0.0
H2445 H 0.1237 0.71131 0.52376 0.0
H2446 H 0.13284 0.71897 0.65357 0.0
H2447 H 0.15877 0.74351 0.68745 0.0
C2448 C 0.21081 0.36712 0.54893 0.0
C2449 C 0.23006 0.38932 0.52159 0.0
C2450 C 0.2322 0.4188 0.58916 0.0
C2451 C 0.21159 0.3968 0.61452 0.0
N2452 N 0.17877 0.35039 0.61539 0.0
N2453 N 0.25799 0.43676 0.51492 0.0
C2454 C 0.20027 0.37109 0.59347 0.0
C2455 C 0.24033 0.41529 0.54152 0.0
N2456 N 0.20266 0.34199 0.53283 0.0
N2457 N 0.24449 0.44313 0.61124 0.0
H2458 H 0.26608 0.43513 0.48215 0.0
H2459 H 0.26378 0.45627 0.52391 0.0
H2460 H 0.23835 0.44676 0.64468 0.0
H2461 H 0.26177 0.45939 0.59824 0.0
H2462 H 0.19204 0.32519 0.55432 0.0
H2463 H 0.20751 0.33778 0.49872 0.0
H2464 H 0.16724 0.33196 0.59896 0.0
H2465 H 0.17117 0.35216 0.64875 0.0
C2466 C 0.16767 0.25839 0.7493 0.0
C2467 C 0.14543 0.26221 0.7449 0.0
C2468 C 0.15166 0.27667 0.8311 0.0
C2469 C 0.17556 0.27515 0.83536 0.0
N2470 N 0.20664 0.26547 0.79425 0.0
N2471 N 0.11852 0.27857 0.78016 0.0
C2472 C 0.18367 0.26639 0.79308 0.0
C2473 C 0.13821 0.27239 0.78535 0.0
N2474 N 0.17331 0.24664 0.71152 0.0
N2475 N 0.1408 0.28143 0.87115 0.0
H2476 H 0.10682 0.27414 0.74899 0.0
H2477 H 0.11493 0.28977 0.80549 0.0
H2478 H 0.15092 0.28893 0.90342 0.0
H2479 H 0.12115 0.27719 0.87266 0.0
H2480 H 0.18656 0.23961 0.71363 0.0
H2481 H 0.16341 0.2423 0.67818 0.0
H2482 H 0.21491 0.26151 0.76408 0.0
H2483 H 0.21867 0.26993 0.82464 0.0
C2484 C 0.68943 0.87804 0.80368 0.0
C2485 C 0.71061 0.8952 0.83555 0.0
C2486 C 0.74246 0.89614 0.77339 0.0
C2487 C 0.72126 0.87679 0.74468 0.0
N2488 N 0.67442 0.84656 0.73626 0.0
N2489 N 0.75797 0.91982 0.84991 0.0
C2490 C 0.69473 0.86714 0.7608 0.0
C2491 C 0.73727 0.90386 0.82012 0.0
N2492 N 0.66405 0.87217 0.81363 0.0
N2493 N 0.7677 0.90817 0.75492 0.0
H2494 H 0.75581 0.92877 0.88095 0.0
H2495 H 0.77726 0.92343 0.84489 0.0
H2496 H 0.77233 0.90307 0.72134 0.0
H2497 H 0.78372 0.92469 0.77062 0.0
H2498 H 0.64858 0.86302 0.78865 0.0
H2499 H 0.65852 0.87795 0.84531 0.0
H2500 H 0.65497 0.83621 0.74917 0.0
H2501 H 0.67741 0.83824 0.70488 0.0
C2502 C 0.12279 0.83028 0.81677 0.0
C2503 C 0.10459 0.83416 0.84597 0.0
C2504 C 0.10407 0.86362 0.78066 0.0
C2505 C 0.12378 0.86128 0.75374 0.0
N2506 N 0.15484 0.84547 0.75026 0.0
N2507 N 0.0789 0.85603 0.85577 0.0
C2508 C 0.13382 0.84536 0.77294 0.0
C2509 C 0.09569 0.85142 0.82794 0.0
N2510 N 0.12958 0.81191 0.83043 0.0
N2511 N 0.09257 0.87679 0.76008 0.0
H2512 H 0.07021 0.84575 0.88777 0.0
H2513 H 0.07438 0.87086 0.84845 0.0
H2514 H 0.09851 0.88635 0.72647 0.0
H2515 H 0.07595 0.87677 0.77429 0.0
H2516 H 0.13904 0.80505 0.80727 0.0
H2517 H 0.1247 0.80246 0.86409 0.0
H2518 H 0.16549 0.83724 0.76542 0.0
H2519 H 0.16313 0.85577 0.71797 0.0
C2520 C 0.41552 0.17411 0.64956 0.0
C2521 C 0.38948 0.15803 0.66926 0.0
C2522 C 0.37137 0.17038 0.59836 0.0
C2523 C 0.39705 0.18494 0.57721 0.0
N2524 N 0.44341 0.19829 0.58014 0.0
N2525 N 0.3421 0.13716 0.65607 0.0
C2526 C 0.41906 0.18613 0.60224 0.0
C2527 C 0.36732 0.15502 0.64165 0.0
N2528 N 0.43704 0.17779 0.67589 0.0
N2529 N 0.35076 0.172 0.57811 0.0
H2530 H 0.33759 0.12728 0.6893 0.0
H2531 H 0.32561 0.13102 0.63359 0.0
H2532 H 0.35272 0.18261 0.5463 0.0
H2533 H 0.33234 0.16473 0.59498 0.0
H2534 H 0.45655 0.1918 0.6673 0.0
H2535 H 0.43541 0.16755 0.70791 0.0
H2536 H 0.45973 0.19729 0.59292 0.0
H2537 H 0.44697 0.20814 0.54687 0.0
C2538 C 0.84097 0.2152 0.64557 0.0
C2539 C 0.83509 0.23116 0.67709 0.0
C2540 C 0.80143 0.2274 0.61711 0.0
C2541 C 0.80893 0.21344 0.58413 0.0
N2542 N 0.83951 0.19843 0.56365 0.0
N2543 N 0.8133 0.25694 0.68665 0.0
C2544 C 0.82984 0.20871 0.59742 0.0
C2545 C 0.81621 0.23839 0.66115 0.0
N2546 N 0.85602 0.20487 0.66234 0.0
N2547 N 0.77976 0.22985 0.60681 0.0
H2548 H 0.8241 0.26603 0.71798 0.0
H2549 H 0.80227 0.26534 0.6741 0.0
H2550 H 0.76891 0.2228 0.57461 0.0
H2551 H 0.77128 0.23695 0.63179 0.0
H2552 H 0.8636 0.20796 0.6976 0.0
H2553 H 0.85867 0.19093 0.64311 0.0
H2554 H 0.85671 0.1974 0.56894 0.0
H2555 H 0.8316 0.19298 0.52865 0.0
C2556 C 0.79863 0.6331 0.59177 0.0
C2557 C 0.78881 0.60683 0.57439 0.0
C2558 C 0.76169 0.58999 0.64964 0.0
C2559 C 0.77048 0.61645 0.66613 0.0
N2560 N 0.79383 0.66316 0.6464 0.0
N2561 N 0.75832 0.56019 0.58394 0.0
C2562 C 0.78779 0.63793 0.63513 0.0
C2563 C 0.76959 0.5853 0.60264 0.0
N2564 N 0.81923 0.65364 0.5678 0.0
N2565 N 0.74557 0.56906 0.67881 0.0
H2566 H 0.76439 0.5558 0.55115 0.0
H2567 H 0.74182 0.54389 0.59901 0.0
H2568 H 0.73669 0.571 0.7102 0.0
H2569 H 0.74167 0.54978 0.67301 0.0
H2570 H 0.82966 0.67284 0.58168 0.0
H2571 H 0.8274 0.65107 0.53581 0.0
H2572 H 0.80243 0.67874 0.62153 0.0
H2573 H 0.78899 0.66848 0.6794 0.0
C2574 C 0.83062 0.71143 0.43723 0.0
C2575 C 0.851 0.73775 0.44817 0.0
C2576 C 0.84356 0.75194 0.36765 0.0
C2577 C 0.82165 0.72593 0.35761 0.0
N2578 N 0.79234 0.68171 0.3885 0.0
N2579 N 0.87215 0.78403 0.42816 0.0
C2580 C 0.81449 0.70601 0.39429 0.0
C2581 C 0.85608 0.75819 0.41455 0.0
N2582 N 0.82737 0.69124 0.46696 0.0
N2583 N 0.85305 0.77104 0.33244 0.0
H2584 H 0.88162 0.78952 0.46192 0.0
H2585 H 0.87397 0.80004 0.40814 0.0
H2586 H 0.84402 0.76904 0.29902 0.0
H2587 H 0.87116 0.78862 0.33532 0.0
H2588 H 0.81542 0.67126 0.45838 0.0
H2589 H 0.83839 0.69451 0.49868 0.0
H2590 H 0.78421 0.66772 0.41627 0.0
H2591 H 0.78084 0.67593 0.35714 0.0
C2592 C 0.25898 0.099 0.36668 0.0
C2593 C 0.28481 0.10214 0.35803 0.0
C2594 C 0.29788 0.12276 0.44065 0.0
C2595 C 0.27159 0.11763 0.4499 0.0
N2596 N 0.22583 0.09501 0.42539 0.0
N2597 N 0.32827 0.11534 0.3908 0.0
C2598 C 0.25189 0.10408 0.41392 0.0
C2599 C 0.30396 0.11329 0.39647 0.0
N2600 N 0.24089 0.09171 0.32981 0.0
N2601 N 0.3174 0.13771 0.47338 0.0
H2602 H 0.33469 0.11129 0.35819 0.0
H2603 H 0.34176 0.11994 0.41916 0.0
H2604 H 0.31349 0.14437 0.50595 0.0
H2605 H 0.33755 0.14513 0.46694 0.0
H2606 H 0.22379 0.09317 0.33233 0.0
H2607 H 0.24334 0.08595 0.29543 0.0
H2608 H 0.21009 0.08187 0.40345 0.0
H2609 H 0.21973 0.09841 0.45908 0.0
C2610 C 0.89392 0.13486 0.41424 0.0
C2611 C 0.88423 0.14434 0.4522 0.0
C2612 C 0.88932 0.18045 0.39743 0.0
C2613 C 0.90122 0.17229 0.36056 0.0
N2614 N 0.92007 0.14457 0.34068 0.0
N2615 N 0.87671 0.17873 0.48272 0.0
C2616 C 0.90488 0.15024 0.37091 0.0
C2617 C 0.88326 0.16798 0.44458 0.0
N2618 N 0.89208 0.11063 0.4189 0.0
N2619 N 0.88225 0.19901 0.38689 0.0
H2620 H 0.87163 0.1699 0.51706 0.0
H2621 H 0.87841 0.19739 0.48161 0.0
H2622 H 0.88466 0.20761 0.35272 0.0
H2623 H 0.87137 0.20398 0.41047 0.0
H2624 H 0.89558 0.10102 0.39022 0.0
H2625 H 0.88482 0.09902 0.4502 0.0
H2626 H 0.92607 0.13095 0.34929 0.0
H2627 H 0.92924 0.15541 0.30954 0.0
C2628 C 0.29506 0.17202 0.87943 0.0
C2629 C 0.27305 0.17028 0.85315 0.0
C2630 C 0.24398 0.14526 0.92295 0.0
C2631 C 0.2657 0.14529 0.94694 0.0
N2632 N 0.31122 0.15547 0.94443 0.0
N2633 N 0.22587 0.15376 0.84971 0.0
C2634 C 0.291 0.15776 0.92407 0.0
C2635 C 0.2473 0.15634 0.87487 0.0
N2636 N 0.32023 0.18789 0.86256 0.0
N2637 N 0.22016 0.13504 0.94668 0.0
H2638 H 0.22754 0.16328 0.8168 0.0
H2639 H 0.20625 0.1412 0.86008 0.0
H2640 H 0.2166 0.12564 0.98042 0.0
H2641 H 0.20438 0.13719 0.93466 0.0
H2642 H 0.33707 0.19302 0.88332 0.0
H2643 H 0.32452 0.19706 0.82868 0.0
H2644 H 0.329 0.16076 0.92654 0.0
H2645 H 0.30955 0.14635 0.97794 0.0
C2646 C 0.86345 0.10815 0.91298 0.0
C2647 C 0.85266 0.11797 0.94832 0.0
C2648 C 0.81877 0.11327 0.88832 0.0
C2649 C 0.82829 0.10163 0.85351 0.0
N2650 N 0.86475 0.09438 0.83051 0.0
N2651 N 0.81774 0.12639 0.97221 0.0
C2652 C 0.85212 0.10105 0.8651 0.0
C2653 C 0.82967 0.1195 0.93664 0.0
N2654 N 0.88356 0.10368 0.92642 0.0
N2655 N 0.80108 0.12091 0.87389 0.0
H2656 H 0.82563 0.13209 1.00716 0.0
H2657 H 0.79908 0.12456 0.96834 0.0
H2658 H 0.79545 0.13194 0.89564 0.0
H2659 H 0.79467 0.11949 0.83802 0.0
H2660 H 0.88977 0.09279 0.90569 0.0
H2661 H 0.89272 0.10885 0.96048 0.0
H2662 H 0.88442 0.0989 0.83372 0.0
H2663 H 0.85663 0.08532 0.79748 0.0
C2664 C 0.88204 0.74433 0.856 0.0
C2665 C 0.90478 0.74091 0.85335 0.0
C2666 C 0.91119 0.75049 0.9423 0.0
C2667 C 0.88671 0.75026 0.94544 0.0
N2668 N 0.84675 0.74293 0.90574 0.0
N2669 N 0.9404 0.73995 0.89696 0.0
C2670 C 0.87172 0.74629 0.90236 0.0
C2671 C 0.91906 0.74369 0.89741 0.0
N2672 N 0.8701 0.74609 0.81456 0.0
N2673 N 0.92764 0.75836 0.98196 0.0
H2674 H 0.94942 0.7384 0.8654 0.0
H2675 H 0.94838 0.73715 0.92864 0.0
H2676 H 0.92263 0.76347 1.01516 0.0
H2677 H 0.94718 0.76227 0.98083 0.0
H2678 H 0.85698 0.75338 0.81465 0.0
H2679 H 0.87419 0.74203 0.77983 0.0
H2680 H 0.83336 0.73636 0.87678 0.0
H2681 H 0.83851 0.74442 0.93856 0.0
C2682 C 0.82997 0.5978 0.15786 0.0
C2683 C 0.85171 0.62357 0.17044 0.0
C2684 C 0.84513 0.63951 0.08965 0.0
C2685 C 0.82452 0.61359 0.07673 0.0
N2686 N 0.80045 0.56721 0.09593 0.0
N2687 N 0.88083 0.6687 0.14455 0.0
C2688 C 0.81787 0.59262 0.11027 0.0
C2689 C 0.85957 0.64424 0.13499 0.0
N2690 N 0.82031 0.57784 0.19142 0.0
N2691 N 0.85039 0.66002 0.059 0.0
H2692 H 0.88984 0.6742 0.17853 0.0
H2693 H 0.89029 0.68342 0.1184 0.0
H2694 H 0.84117 0.65725 1.02518 0.0
H2695 H 0.86251 0.67984 0.06821 0.0
H2696 H 0.80206 0.56049 0.18799 0.0
H2697 H 0.82961 0.57877 0.22409 0.0
H2698 H 0.79741 0.55049 0.11504 0.0
H2699 H 0.79049 0.56258 0.06262 0.0
C2700 C 0.4123 0.23054 0.1064 0.0
C2701 C 0.39187 0.21468 0.07295 0.0
C2702 C 0.35941 0.21723 0.12894 0.0
C2703 C 0.37954 0.23071 0.16518 0.0
N2704 N 0.42539 0.24657 0.18847 0.0
N2705 N 0.34535 0.19108 0.05384 0.0
C2706 C 0.40596 0.23625 0.15384 0.0
C2707 C 0.36527 0.20771 0.08458 0.0
N2708 N 0.43821 0.24122 0.09212 0.0
N2709 N 0.33447 0.2132 0.1368 0.0
H2710 H 0.349 0.18426 1.02121 0.0
H2711 H 0.32522 0.18256 0.06178 0.0
H2712 H 0.32871 0.21808 0.16922 0.0
H2713 H 0.31981 0.20645 0.11016 0.0
H2714 H 0.45413 0.25581 0.11183 0.0
H2715 H 0.44376 0.23753 0.05812 0.0
H2716 H 0.44354 0.24723 0.18471 0.0
H2717 H 0.42303 0.25271 0.22253 0.0
C2718 C 0.76053 0.15598 0.08572 0.0
C2719 C 0.78146 0.18271 0.08366 0.0
C2720 C 0.78707 0.18218 0.17283 0.0
C2721 C 0.76643 0.15492 0.17556 0.0
N2722 N 0.7363 0.11499 0.13067 0.0
N2723 N 0.81878 0.21902 0.12306 0.0
C2724 C 0.75422 0.14154 0.13079 0.0
C2725 C 0.79579 0.19514 0.12663 0.0
N2726 N 0.74577 0.14462 1.0447 0.0
N2727 N 0.7987 0.19615 0.2143 0.0
H2728 H 0.82577 0.22918 0.0902 0.0
H2729 H 0.83226 0.22761 0.15158 0.0
H2730 H 0.79679 0.18754 0.2482 0.0
H2731 H 0.80992 0.21677 0.21527 0.0
H2732 H 0.7283 0.12636 1.04423 0.0
H2733 H 0.74993 0.15431 1.01119 0.0
H2734 H 0.73036 0.10343 0.09922 0.0
H2735 H 0.72763 0.10398 0.16179 0.0
C2736 C 0.03214 0.42241 0.34225 0.0
C2737 C 0.01428 0.41607 0.30221 0.0
C2738 C 0.97731 0.39441 0.36286 0.0
C2739 C 0.99523 0.40466 0.40331 0.0
N2740 N 0.04076 0.43412 0.42777 0.0
N2741 N 0.96865 0.3988 0.27771 0.0
C2742 C 0.02295 0.42001 0.39193 0.0
C2743 C 0.98653 0.40264 0.31348 0.0
N2744 N 0.05811 0.43015 0.3331 0.0
N2745 N 0.95131 0.37601 0.37112 0.0
H2746 H 0.97402 0.40441 0.24167 0.0
H2747 H 0.94869 0.39222 0.2847 0.0
H2748 H 0.94385 0.3687 0.40572 0.0
H2749 H 0.93786 0.36581 0.34325 0.0
H2750 H 0.0715 0.43245 0.3605 0.0
H2751 H 0.06542 0.43123 0.29792 0.0
H2752 H 0.06063 0.44774 0.42058 0.0
H2753 H 0.03533 0.43475 0.46368 0.0
C2754 C 0.59241 0.57144 0.3587 0.0
C2755 C 0.58277 0.57814 0.40113 0.0
C2756 C 0.56208 0.5966 0.34476 0.0
C2757 C 0.56847 0.58641 0.30253 0.0
N2758 N 0.58638 0.55921 0.27329 0.0
N2759 N 0.55491 0.59477 0.43222 0.0
C2760 C 0.58289 0.57267 0.31067 0.0
C2761 C 0.56677 0.5902 0.39339 0.0
N2762 N 0.61169 0.56473 0.36384 0.0
N2763 N 0.5528 0.61383 0.33874 0.0
H2764 H 0.55817 0.59157 0.4681 0.0
H2765 H 0.54019 0.59988 0.42858 0.0
H2766 H 0.55056 0.62033 0.30463 0.0
H2767 H 0.55057 0.62432 0.36739 0.0
H2768 H 0.6217 0.56243 0.33438 0.0
H2769 H 0.61984 0.56447 0.39753 0.0
H2770 H 0.5935 0.54614 0.27843 0.0
H2771 H 0.57977 0.55878 0.23804 0.0
C2772 C 0.39861 0.96962 0.34365 0.0
C2773 C 0.40914 0.98673 0.30221 0.0
C2774 C 0.42587 0.02467 0.36121 0.0
C2775 C 0.41942 0.00763 0.40259 0.0
N2776 N 0.40243 0.96253 0.42979 0.0
N2777 N 0.43757 0.03193 0.27544 0.0
C2778 C 0.40639 0.97974 0.39278 0.0
C2779 C 0.4239 0.01463 0.31215 0.0
N2780 N 0.38008 0.94357 0.33661 0.0
N2781 N 0.43308 0.05062 0.36837 0.0
H2782 H 0.43803 0.02599 0.2399 0.0
H2783 H 0.45082 0.052 0.28141 0.0
H2784 H 0.43357 0.05845 0.40283 0.0
H2785 H 0.43535 0.06343 0.33993 0.0
H2786 H 0.36965 0.93072 0.3651 0.0
H2787 H 0.37271 0.93559 0.30232 0.0
H2788 H 0.39623 0.94257 0.42399 0.0
H2789 H 0.40765 0.96848 0.46573 0.0
C2790 C 0.99543 0.55315 0.87985 0.0
C2791 C 0.98718 0.5695 0.9043 0.0
C2792 C -0.00082 0.59733 0.82887 0.0
C2793 C 0.00777 0.58113 0.80483 0.0
N2794 N 0.01574 0.54436 0.81026 0.0
N2795 N 0.97541 0.60339 0.89665 0.0
C2796 C 0.00615 0.55922 0.83118 0.0
C2797 C 0.98775 0.59075 0.87736 0.0
N2798 N 0.99202 0.5308 0.90247 0.0
N2799 N 0.00302 0.61982 0.80617 0.0
H2800 H 0.96627 0.59855 0.93076 0.0
H2801 H 0.97205 0.61681 0.87739 0.0
H2802 H 0.01088 0.625 0.77109 0.0
H2803 H 0.00047 0.63436 0.8233 0.0
H2804 H 0.99085 0.51478 0.88359 0.0
H2805 H 0.98833 0.52723 0.93956 0.0
H2806 H 0.01875 0.5306 0.82893 0.0
H2807 H 0.0223 0.54667 0.77448 0.0
C2808 C 0.43795 0.43966 0.82056 0.0
C2809 C 0.41294 0.42263 0.79811 0.0
C2810 C 0.40185 0.39327 0.87121 0.0
C2811 C 0.4254 0.4121 0.89595 0.0
N2812 N 0.46247 0.45694 0.89571 0.0
N2813 N 0.36937 0.3849 0.80784 0.0
C2814 C 0.44248 0.43629 0.87091 0.0
C2815 C 0.39453 0.39985 0.82504 0.0
N2816 N 0.45818 0.45847 0.7932 0.0
N2817 N 0.38683 0.36854 0.89064 0.0
H2818 H 0.36299 0.38881 0.775 0.0
H2819 H 0.35445 0.37025 0.82887 0.0
H2820 H 0.39162 0.36281 0.9233 0.0
H2821 H 0.37115 0.353 0.87214 0.0
H2822 H 0.47759 0.46967 0.80596 0.0
H2823 H 0.45621 0.4606 0.75608 0.0
H2824 H 0.47391 0.47577 0.88072 0.0
H2825 H 0.46564 0.45624 0.93283 0.0
C2826 C 0.59631 0.01792 0.85976 0.0
C2827 C 0.58481 0.00062 0.90063 0.0
C2828 C 0.56611 0.96292 0.84102 0.0
C2829 C 0.57426 0.98044 0.80013 0.0
N2830 N 0.59465 0.02595 0.77327 0.0
N2831 N 0.55505 0.95572 0.92714 0.0
C2832 C 0.58889 0.00829 0.81034 0.0
C2833 C 0.56891 0.97286 0.89033 0.0
N2834 N 0.61526 0.04372 0.86787 0.0
N2835 N 0.5564 0.93649 0.83305 0.0
H2836 H 0.55623 0.96154 0.96326 0.0
H2837 H 0.54051 0.93604 0.92121 0.0
H2838 H 0.55492 0.92855 0.79833 0.0
H2839 H 0.55277 0.92297 0.86092 0.0
H2840 H 0.62659 0.05666 0.84014 0.0
H2841 H 0.62182 0.05142 0.90267 0.0
H2842 H 0.60207 0.04614 0.77895 0.0
H2843 H 0.58991 0.02033 0.73707 0.0
C2844 C 0.631 0.72483 0.69205 0.0
C2845 C 0.64743 0.7393 0.7325 0.0
C2846 C 0.68523 0.75981 0.67268 0.0
C2847 C 0.66797 0.74869 0.63152 0.0
N2848 N 0.62226 0.7232 0.60512 0.0
N2849 N 0.69096 0.77424 0.75707 0.0
C2850 C 0.64031 0.73174 0.64219 0.0
C2851 C 0.67477 0.75764 0.72155 0.0
N2852 N 0.6065 0.70348 0.70102 0.0
N2853 N 0.71204 0.77169 0.66571 0.0
H2854 H 0.68491 0.77362 0.79287 0.0
H2855 H 0.7098 0.79025 0.74997 0.0
H2856 H 0.72055 0.77269 0.63174 0.0
H2857 H 0.7256 0.77756 0.69431 0.0
H2858 H 0.59468 0.69036 0.67387 0.0
H2859 H 0.5994 0.69705 0.7362 0.0
H2860 H 0.60182 0.7136 0.61102 0.0
H2861 H 0.62748 0.72796 0.56876 0.0
C2862 C 0.2431 0.92609 0.72999 0.0
C2863 C 0.25715 0.9123 0.7404 0.0
C2864 C 0.25975 0.90712 0.65027 0.0
C2865 C 0.24826 0.92332 0.63957 0.0
N2866 N 0.23426 0.95279 0.67321 0.0
N2867 N 0.28491 0.89627 0.70722 0.0
C2868 C 0.24149 0.93408 0.68067 0.0
C2869 C 0.26729 0.90491 0.69947 0.0
N2870 N 0.22992 0.93057 0.76664 0.0
N2871 N 0.26181 0.892 0.61432 0.0
H2872 H 0.29178 0.89536 0.74186 0.0
H2873 H 0.29502 0.89308 0.67898 0.0
H2874 H 0.25475 0.89094 0.57908 0.0
H2875 H 0.26743 0.87789 0.62111 0.0
H2876 H 0.21653 0.93721 0.76048 0.0
H2877 H 0.23036 0.9254 0.80271 0.0
H2878 H 0.23178 0.96334 0.70147 0.0
H2879 H 0.23392 0.96023 0.6389 0.0
C2880 C 0.08766 0.35691 0.69423 0.0
C2881 C 0.08164 0.33988 0.73543 0.0
C2882 C 0.06331 0.30194 0.67655 0.0
C2883 C 0.07326 0.31927 0.63538 0.0
N2884 N 0.09985 0.36479 0.60875 0.0
N2885 N 0.0677 0.29538 0.76276 0.0
C2886 C 0.08659 0.34717 0.6453 0.0
C2887 C 0.07037 0.31215 0.72569 0.0
N2888 N 0.09376 0.38254 0.70147 0.0
N2889 N 0.0462 0.27556 0.66913 0.0
H2890 H 0.07349 0.30169 0.79846 0.0
H2891 H 0.06233 0.27563 0.75708 0.0
H2892 H 0.03963 0.26745 0.63457 0.0
H2893 H 0.03614 0.26237 0.69741 0.0
H2894 H 0.09579 0.39527 0.67305 0.0
H2895 H 0.09372 0.39013 0.73592 0.0
H2896 H 0.11241 0.38498 0.61491 0.0
H2897 H 0.10075 0.35913 0.57318 0.0
C2898 C 0.67997 0.92539 0.17138 0.0
C2899 C 0.66265 0.91589 0.13016 0.0
C2900 C 0.62491 0.89837 0.18984 0.0
C2901 C 0.64218 0.90368 0.23067 0.0
N2902 N 0.68749 0.91946 0.25628 0.0
N2903 N 0.61715 0.88999 0.10296 0.0
C2904 C 0.67008 0.91664 0.22029 0.0
C2905 C 0.63473 0.90165 0.1403 0.0
N2906 N 0.70608 0.94377 0.16425 0.0
N2907 N 0.59897 0.8911 0.19812 0.0
H2908 H 0.62284 0.89176 0.06665 0.0
H2909 H 0.59703 0.87666 0.10838 0.0
H2910 H 0.59127 0.88984 0.23298 0.0
H2911 H 0.58598 0.88959 0.17056 0.0
H2912 H 0.71915 0.95374 0.19277 0.0
H2913 H 0.71397 0.95101 0.12981 0.0
H2914 H 0.70746 0.9259 0.24963 0.0
H2915 H 0.68171 0.91294 0.2918 0.0
C2916 C 0.08605 0.73035 0.19116 0.0
C2917 C 0.08251 0.74307 0.23284 0.0
C2918 C 0.06892 0.76722 0.17444 0.0
C2919 C 0.07617 0.75738 0.13257 0.0
N2920 N 0.09788 0.73336 0.10553 0.0
N2921 N 0.07556 0.77857 0.26052 0.0
C2922 C 0.08637 0.73992 0.14227 0.0
C2923 C 0.0752 0.76277 0.22335 0.0
N2924 N 0.08808 0.7082 0.19772 0.0
N2925 N 0.0549 0.78008 0.16816 0.0
H2926 H 0.08186 0.77785 0.29565 0.0
H2927 H 0.07244 0.79452 0.25533 0.0
H2928 H 0.0492 0.78338 0.1342 0.0
H2929 H 0.04622 0.78473 0.19691 0.0
H2930 H 0.08795 0.69647 0.16888 0.0
H2931 H 0.08665 0.69981 0.2319 0.0
H2932 H 0.10813 0.72319 0.11151 0.0
H2933 H 0.09995 0.74058 0.07021 0.0
C2934 C 0.26663 0.33107 0.15269 0.0
C2935 C 0.24066 0.31859 0.13156 0.0
C2936 C 0.22395 0.32588 0.21083 0.0
C2937 C 0.25 0.33994 0.23109 0.0
N2938 N 0.29673 0.35885 0.21727 0.0
N2939 N 0.19578 0.31025 0.13943 0.0
C2940 C 0.27146 0.34321 0.20079 0.0
C2941 C 0.21971 0.31755 0.16059 0.0
N2942 N 0.28667 0.33068 0.12736 0.0
N2943 N 0.20262 0.31947 0.2401 0.0
H2944 H 0.19129 0.30391 0.10351 0.0
H2945 H 0.18115 0.31285 0.15614 0.0
H2946 H 0.20438 0.32626 0.27562 0.0
H2947 H 0.18334 0.30535 0.23039 0.0
H2948 H 0.30563 0.33743 0.14126 0.0
H2949 H 0.28379 0.32171 0.09328 0.0
H2950 H 0.31337 0.36487 0.19545 0.0
H2951 H 0.30092 0.36744 0.25187 0.0
C2952 C 0.35391 0.09443 0.05055 0.0
C2953 C 0.32661 0.07707 0.06265 0.0
C2954 C 0.31724 0.07184 0.97303 0.0
C2955 C 0.34487 0.08728 0.96103 0.0
N2956 N 0.38953 0.10643 0.99196 0.0
N2957 N 0.28371 0.04409 1.03265 0.0
C2958 C 0.36313 0.09656 1.00095 0.0
C2959 C 0.30878 0.06428 1.02296 0.0
N2960 N 0.37114 0.11033 0.08572 0.0
N2961 N 0.29862 0.06547 0.93744 0.0
H2962 H 0.27709 0.03736 0.06793 0.0
H2963 H 0.27063 0.03215 1.00554 0.0
H2964 H 0.3034 0.07104 0.9012 0.0
H2965 H 0.27841 0.05702 0.94485 0.0
H2966 H 0.39046 0.12527 0.07797 0.0
H2967 H 0.36545 0.11065 0.1216 0.0
H2968 H 0.40343 0.11089 1.01959 0.0
H2969 H 0.39703 0.10719 0.95709 0.0
C2970 C 0.88532 0.22026 0.99177 0.0
C2971 C 0.89942 0.24579 0.96961 0.0
C2972 C 0.92677 0.26187 1.04534 0.0
C2973 C 0.9118 0.23665 0.0686 0.0
N2974 N 0.87057 0.19491 0.06671 0.0
N2975 N 0.92949 0.29213 0.98161 0.0
C2976 C 0.88939 0.21668 1.04238 0.0
C2977 C 0.91903 0.26683 0.99823 0.0
N2978 N 0.86825 0.19896 0.96426 0.0
N2979 N 0.94911 0.28123 0.06711 0.0
H2980 H 0.92491 0.29656 0.94744 0.0
H2981 H 0.94054 0.3086 1.00364 0.0
H2982 H 0.95546 0.27922 0.1014 0.0
H2983 H 0.96254 0.29846 0.04898 0.0
H2984 H 0.85961 0.17949 0.97659 0.0
H2985 H 0.86464 0.2005 0.92763 0.0
H2986 H 0.85262 0.18092 0.05115 0.0
H2987 H 0.87122 0.1927 0.1042 0.0
C2988 C 0.77524 0.67426 0.98216 0.0
C2989 C 0.74944 0.66144 0.96062 0.0
C2990 C 0.73196 0.66632 1.04104 0.0
C2991 C 0.75772 0.67862 0.06279 0.0
N2992 N 0.80097 0.68306 0.05598 0.0
N2993 N 0.70275 0.63787 0.97696 0.0
C2994 C 0.77857 0.67961 1.03367 0.0
C2995 C 0.7277 0.65555 0.99217 0.0
N2996 N 0.79703 0.68155 0.95362 0.0
N2997 N 0.7113 0.66525 0.06632 0.0
H2998 H 0.69878 0.6305 0.94153 0.0
H2999 H 0.68712 0.62817 1.00145 0.0
H3000 H 0.71335 0.67237 0.10163 0.0
H3001 H 0.69275 0.65891 0.05088 0.0
H3002 H 0.81641 0.69347 0.9661 0.0
H3003 H 0.79574 0.67757 0.91657 0.0
H3004 H 0.81539 0.68057 1.0381 0.0
H3005 H 0.80319 0.68456 0.09359 0.0
C3006 C 0.35515 0.2639 0.50257 0.0
C3007 C 0.33721 0.25427 0.46211 0.0
C3008 C 0.30004 0.23639 0.52283 0.0
C3009 C 0.31791 0.24366 0.56323 0.0
N3010 N 0.36342 0.2607 0.58841 0.0
N3011 N 0.29187 0.22566 0.4366 0.0
C3012 C 0.34571 0.25658 0.55212 0.0
C3013 C 0.30947 0.23916 0.47314 0.0
N3014 N 0.38147 0.2811 0.494 0.0
N3015 N 0.27376 0.2274 0.53166 0.0
H3016 H 0.29755 0.22601 0.40048 0.0
H3017 H 0.27198 0.21181 0.44288 0.0
H3018 H 0.26609 0.22564 0.5667 0.0
H3019 H 0.2602 0.2246 0.5043 0.0
H3020 H 0.39517 0.29127 0.52154 0.0
H3021 H 0.3891 0.28783 0.45923 0.0
H3022 H 0.38323 0.26643 0.58194 0.0
H3023 H 0.35804 0.25619 0.62475 0.0
C3024 C 0.77319 0.1038 0.54514 0.0
C3025 C 0.75846 0.07816 0.5669 0.0
C3026 C 0.73338 0.06199 0.48875 0.0
C3027 C 0.74721 0.08791 0.46788 0.0
N3028 N 0.7865 0.13111 0.4724 0.0
N3029 N 0.72212 0.03358 0.56009 0.0
C3030 C 0.76863 0.10821 0.49536 0.0
C3031 C 0.738 0.05753 0.53869 0.0
N3032 N 0.79107 0.12462 0.57274 0.0
N3033 N 0.71678 0.04102 0.46015 0.0
H3034 H 0.72518 0.02905 0.59536 0.0
H3035 H 0.70483 0.01888 0.54395 0.0
H3036 H 0.71077 0.04302 0.42548 0.0
H3037 H 0.71063 0.0215 0.46951 0.0
H3038 H 0.79936 0.14435 0.56228 0.0
H3039 H 0.79612 0.12246 0.60797 0.0
H3040 H 0.80444 0.14524 0.4877 0.0
H3041 H 0.78506 0.13478 0.4358 0.0
C3042 C 0.92889 0.66013 0.55497 0.0
C3043 C 0.9211 0.67892 0.57026 0.0
C3044 C 0.90659 0.67858 0.4842 0.0
C3045 C 0.91344 0.65931 0.46932 0.0
N3046 N 0.92466 0.62687 0.49548 0.0
N3047 N 0.89078 0.69455 0.55042 0.0
C3048 C 0.92259 0.64863 0.50631 0.0
C3049 C 0.90678 0.68503 0.535 0.0
N3050 N 0.94287 0.65341 0.586 0.0
N3051 N 0.89921 0.6906 0.44993 0.0
H3052 H 0.88707 0.69608 0.5871 0.0
H3053 H 0.87795 0.69688 0.52722 0.0
H3054 H 0.89819 0.68631 0.41288 0.0
H3055 H 0.89629 0.70644 0.458 0.0
H3056 H 0.95113 0.64193 0.57557 0.0
H3057 H 0.94822 0.6609 0.62102 0.0
H3058 H 0.927 0.61547 0.52204 0.0
H3059 H 0.92142 0.61877 0.46051 0.0
C3060 C 0.98071 0.47208 0.11947 0.0
C3061 C 0.00402 0.48461 0.14834 0.0
C3062 C 0.02307 0.52207 0.0915 0.0
C3063 C -0.00027 0.50956 0.06271 0.0
N3064 N 0.95969 0.46935 1.04258 0.0
N3065 N 0.04441 0.52461 0.16792 0.0
C3066 C 0.97992 0.48334 0.07442 0.0
C3067 C 0.02391 0.51078 0.13648 0.0
N3068 N 0.95844 0.44999 0.13497 0.0
N3069 N 0.04537 0.54408 0.07584 0.0
H3070 H 0.04454 0.51713 0.20243 0.0
H3071 H 0.05979 0.5438 0.16054 0.0
H3072 H 0.04746 0.55183 1.04079 0.0
H3073 H 0.04746 0.55183 1.04079 0.0
H3074 H 0.95632 0.44219 0.16998 0.0
H3075 H 0.95632 0.44219 0.16998 0.0
H3076 H 0.94446 0.45006 0.04975 0.0
H3077 H 0.95968 0.4768 1.00797 0.0
C3078 C 0.51661 0.50052 0.12391 0.0
C3079 C 0.50229 0.51074 0.14841 0.0
C3080 C 0.46601 0.48875 0.0891 0.0
C3081 C 0.48165 0.48053 0.06226 0.0
N3082 N 0.5245 0.48513 1.04737 0.0
N3083 N 0.46088 0.50875 0.1636 0.0
C3084 C 0.50796 0.48887 0.07746 0.0
C3085 C 0.47596 0.50269 0.13391 0.0
N3086 N 0.53742 0.50037 0.14654 0.0
N3087 N 0.44227 0.48412 0.07069 0.0
H3088 H 0.46799 0.51777 0.19738 0.0
H3089 H 0.44122 0.50345 0.15712 0.0
H3090 H 0.43755 0.47979 1.03394 0.0
H3091 H 0.42851 0.48715 0.08958 0.0
H3092 H 0.542 0.50595 0.18299 0.0
H3093 H 0.54738 0.49128 0.13174 0.0
H3094 H 0.54456 0.49252 0.0549 0.0
H3095 H 0.51853 0.47708 1.01261 0.0
C3096 C 0.49736 0.0014 0.04865 0.0
C3097 C 0.51338 0.99125 0.06518 0.0
C3098 C 0.49365 0.98465 0.14705 0.0
C3099 C 0.47814 0.99553 0.13085 0.0
N3100 N 0.47088 0.02123 0.07 0.0
N3101 N 0.51963 0.96437 0.12461 0.0
C3102 C 0.48131 0.00564 0.08244 0.0
C3103 C 0.50983 0.98063 0.11315 0.0
N3104 N 0.49703 0.00614 1.00004 0.0
N3105 N 0.49294 0.97839 0.19522 0.0
H3106 H 0.52734 0.95718 0.09834 0.0
H3107 H 0.51645 0.95466 0.15785 0.0
H3108 H 0.48131 0.98154 0.22045 0.0
H3109 H 0.50563 0.97274 0.21097 0.0
H3110 H 0.48399 0.01127 0.98408 0.0
H3111 H 0.50788 0.00176 0.97504 0.0
H3112 H 0.47383 0.03048 1.0363 0.0
H3113 H 0.4628 0.02836 0.09561 0.0
C3114 C 0.52667 0.01293 0.59325 0.0
C3115 C 0.51592 0.99675 0.63552 0.0
C3116 C 0.47118 0.97858 0.60197 0.0
C3117 C 0.48139 0.99642 0.56222 0.0
N3118 N 0.51856 0.02865 0.51652 0.0
N3119 N 0.47799 0.96969 0.6853 0.0
C3120 C 0.50918 0.01274 0.55665 0.0
C3121 C 0.48811 0.98159 0.64154 0.0
N3122 N 0.5535 0.02878 0.58836 0.0
N3123 N 0.44576 0.95779 0.60072 0.0
H3124 H 0.49033 0.97225 0.71488 0.0
H3125 H 0.45778 0.95994 0.69351 0.0
H3126 H 0.43785 0.94322 0.62757 0.0
H3127 H 0.43406 0.95288 0.56947 0.0
H3128 H 0.56299 0.03755 0.55581 0.0
H3129 H 0.56645 0.03439 0.61781 0.0
H3130 H 0.53819 0.04338 0.51125 0.0
H3131 H 0.506 0.02677 0.4878 0.0
C3132 C 0.02038 0.48883 0.62367 0.0
C3133 C 0.00764 0.47575 0.57968 0.0
C3134 C 0.983 0.49927 0.57948 0.0
C3135 C 0.9953 0.51179 0.62424 0.0
N3136 N 0.01535 0.50832 0.69768 0.0
N3137 N 0.98656 0.47789 0.50633 0.0
C3138 C 0.01109 0.50368 0.64903 0.0
C3139 C 0.99173 0.48367 0.55461 0.0
N3140 N 0.04226 0.48821 0.63977 0.0
N3141 N 0.96157 0.50055 0.56281 0.0
H3142 H 0.99457 0.46815 0.48676 0.0
H3143 H 0.97723 0.4856 0.48495 0.0
H3144 H 0.95241 0.50876 0.5836 0.0
H3145 H 0.95088 0.49041 0.53199 0.0
H3146 H 0.05305 0.4987 0.6703 0.0
H3147 H 0.05147 0.48011 0.61881 0.0
H3148 H 0.02568 0.5015 0.71853 0.0
H3149 H 0.00517 0.51569 0.7176 0.0
C3150 C 0.50034 0.48991 0.55192 0.0
C3151 C 0.51378 0.51714 0.56368 0.0
C3152 C 0.4919 0.50659 0.64395 0.0
C3153 C 0.47793 0.47941 0.63194 0.0
N3154 N 0.47396 0.44502 0.57593 0.0
N3155 N 0.5162 0.5513 0.61854 0.0
C3156 C 0.48326 0.47101 0.58646 0.0
C3157 C 0.50814 0.52547 0.60886 0.0
N3158 N 0.50461 0.48178 0.50779 0.0
N3159 N 0.48881 0.51474 0.68889 0.0
H3160 H 0.52449 0.56641 0.59276 0.0
H3161 H 0.52449 0.56641 0.59276 0.0
H3162 H 0.47796 0.50126 0.71626 0.0
H3163 H 0.49838 0.53465 0.69929 0.0
H3164 H 0.49538 0.46184 0.49762 0.0
H3165 H 0.51656 0.49517 0.48096 0.0
H3166 H 0.46438 0.42965 0.60091 0.0
H3167 H 0.46438 0.42965 0.60091 0.0
C3168 C 0.62723 0.80466 0.39126 0.0
C3169 C 0.64652 0.8316 0.38302 0.0
C3170 C 0.66893 0.83232 0.45845 0.0
C3171 C 0.65101 0.80505 0.46593 0.0
N3172 N 0.61084 0.76538 0.44195 0.0
N3173 N 0.69164 0.86597 0.39733 0.0
C3174 C 0.62939 0.79118 0.43299 0.0
C3175 C 0.66922 0.84397 0.41318 0.0
N3176 N 0.60669 0.79241 0.35902 0.0
N3177 N 0.68638 0.84679 0.49441 0.0
H3178 H 0.69348 0.87283 0.36163 0.0
H3179 H 0.70936 0.87476 0.41694 0.0
H3180 H 0.68606 0.83841 0.52823 0.0
H3181 H 0.69887 0.86726 0.49221 0.0
H3182 H 0.5905 0.77344 0.36328 0.0
H3183 H 0.60624 0.80168 0.32682 0.0
H3184 H 0.5969 0.75278 0.4167 0.0
H3185 H 0.60824 0.75695 0.4764 0.0
C3186 C 0.1878 0.84036 0.41027 0.0
C3187 C 0.18712 0.85331 0.45415 0.0
C3188 C 0.13961 0.82353 0.45972 0.0
C3189 C 0.14045 0.81058 0.41607 0.0
N3190 N 0.16322 0.81438 0.3406 0.0
N3191 N 0.16403 0.84999 0.52913 0.0
C3192 C 0.16385 0.82134 0.38829 0.0
C3193 C 0.16354 0.84283 0.48161 0.0
N3194 N 0.21132 0.84354 0.39331 0.0
N3195 N 0.11587 0.81961 0.47704 0.0
H3196 H 0.18162 0.86219 0.54772 0.0
H3197 H 0.14745 0.84076 0.5518 0.0
H3198 H 0.09825 0.80896 0.45739 0.0
H3199 H 0.1143 0.83018 0.50631 0.0
H3200 H 0.21263 0.83299 0.36372 0.0
H3201 H 0.22873 0.85311 0.41379 0.0
H3202 H 0.17978 0.8236 0.31785 0.0
H3203 H 0.14552 0.80233 0.32215 0.0
C3204 C 0.1733 0.35204 0.40264 0.0
C3205 C 0.17863 0.33149 0.39093 0.0
C3206 C 0.15317 0.30672 0.46201 0.0
C3207 C 0.14837 0.32761 0.47461 0.0
N3208 N 0.16271 0.37396 0.46648 0.0
N3209 N 0.16432 0.28523 0.39797 0.0
C3210 C 0.16094 0.35146 0.44759 0.0
C3211 C 0.1658 0.30753 0.41727 0.0
N3212 N 0.17977 0.37181 0.36971 0.0
N3213 N 0.14627 0.28652 0.49414 0.0
H3214 H 0.17098 0.285 0.36272 0.0
H3215 H 0.15343 0.26656 0.41383 0.0
H3216 H 0.13872 0.28693 0.52837 0.0
H3217 H 0.15096 0.27158 0.4893 0.0
H3218 H 0.17468 0.38651 0.37399 0.0
H3219 H 0.18746 0.37126 0.33556 0.0
H3220 H 0.17333 0.39243 0.44974 0.0
H3221 H 0.15678 0.3747 0.5021 0.0
C3222 C 0.18877 0.34896 0.90848 0.0
C3223 C 0.18863 0.33638 0.95288 0.0
C3224 C 0.14144 0.3192 0.96139 0.0
C3225 C 0.14109 0.33077 0.91575 0.0
N3226 N 0.16292 0.34764 0.83869 0.0
N3227 N 0.1681 0.32192 1.03094 0.0
C3228 C 0.16438 0.34343 0.88721 0.0
C3229 C 0.16596 0.32538 0.98245 0.0
N3230 N 0.21228 0.36741 0.88826 0.0
N3231 N 0.11844 0.29975 0.9816 0.0
H3232 H 0.18667 0.32954 1.04734 0.0
H3233 H 0.15218 0.31528 0.05507 0.0
H3234 H 0.10044 0.29075 0.9628 0.0
H3235 H 0.11805 0.28975 1.01325 0.0
H3236 H 0.2134 0.37856 0.85774 0.0
H3237 H 0.23036 0.37412 0.90617 0.0
H3238 H 0.17918 0.35441 0.81532 0.0
H3239 H 0.14491 0.34107 0.82071 0.0
C3240 C 0.66459 0.83427 0.96633 0.0
C3241 C 0.64799 0.84543 0.96177 0.0
C3242 C 0.6325 0.82274 0.88251 0.0
C3243 C 0.6502 0.81288 0.88647 0.0
N3244 N 0.6901 0.81844 0.9263 0.0
N3245 N 0.61388 0.84791 0.91341 0.0
C3246 C 0.66824 0.82125 0.92628 0.0
C3247 C 0.63156 0.8393 0.91943 0.0
N3248 N 0.67857 0.83777 1.00828 0.0
N3249 N 0.61596 0.81589 0.8432 0.0
H3250 H 0.60912 0.8577 0.93985 0.0
H3251 H 0.60912 0.8577 0.93985 0.0
H3252 H 0.61703 0.80479 0.81429 0.0
H3253 H 0.60205 0.8221 0.83893 0.0
H3254 H 0.69134 0.83017 1.01285 0.0
H3255 H 0.67607 0.84696 1.03896 0.0
H3256 H 0.69661 0.81231 0.89616 0.0
H3257 H 0.69661 0.81231 0.89616 0.0
C3258 C 0.15852 0.84887 0.96795 0.0
C3259 C 0.15258 0.82283 0.98 0.0
C3260 C 0.17517 0.82132 0.90637 0.0
C3261 C 0.18118 0.84738 0.8944 0.0
N3262 N 0.16898 0.88089 0.90335 0.0
N3263 N 0.16471 0.78926 0.97084 0.0
C3264 C 0.16999 0.85975 0.92217 0.0
C3265 C 0.16374 0.81045 0.95216 0.0
N3266 N 0.15314 0.86301 1.00099 0.0
N3267 N 0.18032 0.8071 0.87312 0.0
H3268 H 0.15886 0.78292 1.00662 0.0
H3269 H 0.17439 0.78052 0.95354 0.0
H3270 H 0.18751 0.81482 0.83857 0.0
H3271 H 0.17473 0.78723 0.87779 0.0
H3272 H 0.15862 0.88285 0.99624 0.0
H3273 H 0.14581 0.85528 1.03545 0.0
H3274 H 0.15926 0.88962 0.92053 0.0
H3275 H 0.1749 0.88724 0.8676 0.0
C3276 C 0.30811 0.15037 0.72765 0.0
C3277 C 0.32844 0.17625 0.7154 0.0
C3278 C 0.35329 0.17684 0.7872 0.0
C3279 C 0.33274 0.15108 0.80006 0.0
N3280 N 0.28668 0.11803 0.79182 0.0
N3281 N 0.37454 0.20907 0.72274 0.0
C3282 C 0.30893 0.13905 0.77286 0.0
C3283 C 0.35239 0.18808 0.74201 0.0
N3284 N 0.28831 0.13665 0.69491 0.0
N3285 N 0.37316 0.19075 0.81974 0.0
H3286 H 0.37476 0.21561 0.68726 0.0
H3287 H 0.39319 0.21741 0.73903 0.0
H3288 H 0.37255 0.18311 0.85442 0.0
H3289 H 0.38785 0.21045 0.81469 0.0
H3290 H 0.27376 0.11685 0.69943 0.0
H3291 H 0.28878 0.14466 0.66065 0.0
H3292 H 0.26817 0.10956 0.77498 0.0
H3293 H 0.28612 0.11163 0.82753 0.0
C3294 C 0.85371 0.16615 0.77923 0.0
C3295 C 0.84142 0.17829 0.80477 0.0
C3296 C 0.80483 0.15995 0.74596 0.0
C3297 C 0.8166 0.14711 0.72158 0.0
N3298 N 0.8563 0.14611 0.70329 0.0
N3299 N 0.80132 0.17899 0.82186 0.0
C3300 C 0.84254 0.15303 0.73451 0.0
C3301 C 0.81562 0.17264 0.79094 0.0
N3302 N 0.8747 0.16536 0.79955 0.0
N3303 N 0.7843 0.16122 0.72472 0.0
H3304 H 0.8086 0.18669 0.85632 0.0
H3305 H 0.7816 0.17374 0.81572 0.0
H3306 H 0.77802 0.15423 0.68938 0.0
H3307 H 0.77617 0.17216 0.73923 0.0
H3308 H 0.8833 0.15508 0.78411 0.0
H3309 H 0.88089 0.17178 0.83516 0.0
H3310 H 0.87611 0.15144 0.70846 0.0
H3311 H 0.8483 0.13742 0.66957 0.0
C3312 C 0.84555 0.65706 0.77093 0.0
C3313 C 0.85306 0.67355 0.72885 0.0
C3314 C 0.82739 0.69345 0.75916 0.0
C3315 C 0.82049 0.67742 0.80169 0.0
N3316 N 0.8271 0.64752 0.85187 0.0
N3317 N 0.84827 0.70518 0.68044 0.0
C3318 C 0.83148 0.66092 0.80898 0.0
C3319 C 0.84271 0.69067 0.72219 0.0
N3320 N 0.85032 0.63654 0.77521 0.0
N3321 N 0.82046 0.71239 0.7532 0.0
H3322 H 0.85874 0.70294 0.65159 0.0
H3323 H 0.8411 0.71813 0.67406 0.0
H3324 H 0.81196 0.71829 0.78038 0.0
H3325 H 0.81196 0.71829 0.78038 0.0
H3326 H 0.85753 0.62981 0.74711 0.0
H3327 H 0.85753 0.62981 0.74711 0.0
H3328 H 0.83459 0.63485 0.85876 0.0
H3329 H 0.81706 0.65028 0.88089 0.0
C3330 C 0.86168 0.69298 0.25815 0.0
C3331 C 0.85964 0.67665 0.29783 0.0
C3332 C 0.81156 0.65412 0.29197 0.0
C3333 C 0.81382 0.66948 0.24985 0.0
N3334 N 0.84161 0.69365 0.18262 0.0
N3335 N 0.83312 0.65101 0.36523 0.0
C3336 C 0.83903 0.68632 0.23004 0.0
C3337 C 0.83469 0.65984 0.31873 0.0
N3338 N 0.88524 0.71529 0.24802 0.0
N3339 N 0.78768 0.63262 0.30387 0.0
H3340 H 0.85001 0.65665 0.3864 0.0
H3341 H 0.81528 0.64111 0.38435 0.0
H3342 H 0.77107 0.62576 0.28135 0.0
H3343 H 0.78537 0.61967 0.33206 0.0
H3344 H 0.88713 0.72874 0.22106 0.0
H3345 H 0.90177 0.72173 0.2707 0.0
H3346 H 0.86011 0.70347 0.16556 0.0
H3347 H 0.82528 0.68609 0.15955 0.0
C3348 C 0.34232 0.17557 0.30854 0.0
C3349 C 0.32632 0.18312 0.28279 0.0
C3350 C 0.32425 0.15578 0.21326 0.0
C3351 C 0.34012 0.14811 0.23911 0.0
N3352 N 0.37359 0.16004 0.30123 0.0
N3353 N 0.29284 0.17116 0.22064 0.0
C3354 C 0.35196 0.16075 0.28394 0.0
C3355 C 0.31451 0.1705 0.2379 0.0
N3356 N 0.34677 0.18095 0.3571 0.0
N3357 N 0.31973 0.15024 0.16475 0.0
H3358 H 0.28299 0.17864 0.24137 0.0
H3359 H 0.28284 0.16144 0.18904 0.0
H3360 H 0.32864 0.1413 0.14536 0.0
H3361 H 0.30986 0.15726 0.14311 0.0
H3362 H 0.35627 0.1735 0.37869 0.0
H3363 H 0.33795 0.18994 0.3766 0.0
H3364 H 0.38388 0.17026 0.33228 0.0
H3365 H 0.38323 0.15222 0.28074 0.0
C3366 C 0.83774 0.15532 0.2307 0.0
C3367 C 0.84874 0.18295 0.23669 0.0
C3368 C 0.82744 0.17493 0.31739 0.0
C3369 C 0.81701 0.14739 0.31143 0.0
N3370 N 0.82013 0.11286 0.26673 0.0
N3371 N 0.85013 0.21866 0.28591 0.0
C3372 C 0.82446 0.13803 0.2698 0.0
C3373 C 0.84277 0.19268 0.2799 0.0
N3374 N 0.84127 0.14546 0.18793 0.0
N3375 N 0.82198 0.18427 0.35889 0.0
H3376 H 0.85867 0.23306 0.25889 0.0
H3377 H 0.85867 0.23306 0.25889 0.0
H3378 H 0.81154 0.17183 0.3879 0.0
H3379 H 0.82877 0.20438 0.36482 0.0
H3380 H 0.83375 0.12522 0.18209 0.0
H3381 H 0.85054 0.15755 0.15788 0.0
H3382 H 0.81345 0.09942 0.29556 0.0
H3383 H 0.81345 0.09942 0.29556 0.0
loop_
_geom_bond_atom_site_label_1
_geom_bond_atom_site_label_2
_geom_bond_distance
_geom_bond_site_symmetry_2
_ccdc_geom_bond_type
Ho0 C3 2.811 . S
Ho0 O20 2.322 . S
Ho0 O22 2.378 . S
Ho0 O23 2.524 . S
Ho0 O24 2.381 . S
Ho0 O25 2.669 . S
Ho0 O27 2.346 . S
Ho0 O31 2.305 . S
Ho1 C12 2.811 1_554 S
Ho1 O21 2.346 . S
Ho1 O25 2.305 . S
Ho1 O26 2.322 . S
Ho1 O28 2.378 1_554 S
Ho1 O29 2.524 1_554 S
Ho1 O30 2.381 . S
Ho1 O31 2.669 . S
C2 O20 1.259 . S
C2 O21 1.268 . S
C3 Ho0 2.811 . S
C3 C4 1.488 . S
C3 O22 1.215 . S
C3 O23 1.289 . S
C4 C3 1.488 . S
C4 C5 1.348 . S
C4 C9 1.413 . S
C5 C4 1.348 . S
C5 C6 1.442 . S
C5 H32 0.930 . S
C6 C5 1.442 . S
C6 C7 1.381 . S
C6 H33 0.931 . S
C7 C6 1.381 . S
C7 C8 1.321 . S
C8 C7 1.321 . S
C8 C9 1.403 . S
C8 H34 0.934 . S
C9 C4 1.413 . S
C9 C8 1.403 . S
C9 H35 0.930 . S
C10 O24 1.275 . S
C10 O25 1.256 . S
C11 O26 1.259 . S
C11 O27 1.268 . S
C12 Ho1 2.811 1_556 S
C12 C13 1.488 . S
C12 O28 1.215 . S
C12 O29 1.289 . S
C13 C12 1.488 . S
C13 C14 1.348 . S
C13 C18 1.454 . S
C14 C13 1.348 . S
C14 C15 1.442 . S
C14 H36 0.930 . S
C15 C14 1.442 . S
C15 C16 1.381 . S
C15 H37 0.931 . S
C16 C15 1.381 . S
C16 C17 1.321 1_455 S
C17 C16 1.321 1_655 S
C17 C18 1.400 1_655 S
C17 H38 0.934 . S
C18 C13 1.454 . S
C18 C17 1.400 1_455 S
C18 H39 0.894 1_455 S
C19 O30 1.275 . S
C19 O31 1.256 . S
O20 Ho0 2.322 . S
O20 C2 1.259 . S
O21 Ho1 2.346 . S
O21 C2 1.268 . S
O22 Ho0 2.378 . S
O22 C3 1.215 . S
O23 Ho0 2.524 . S
O23 C3 1.289 . S
O24 Ho0 2.381 . S
O24 C10 1.275 . S
O25 Ho0 2.669 . S
O25 Ho1 2.305 . S
O25 C10 1.256 . S
O26 Ho1 2.322 . S
O26 C11 1.259 . S
O27 Ho0 2.346 . S
O27 C11 1.268 . S
O28 Ho1 2.378 1_556 S
O28 C12 1.215 . S
O29 Ho1 2.524 1_556 S
O29 C12 1.289 . S
O30 Ho1 2.381 . S
O30 C19 1.275 . S
O31 Ho0 2.305 . S
O31 Ho1 2.669 . S
O31 C19 1.256 . S
H32 C5 0.930 . S
H33 C6 0.931 . S
H34 C8 0.934 . S
H35 C9 0.930 . S
H36 C14 0.930 . S
H37 C15 0.931 . S
H38 C17 0.934 . S
H39 C18 0.894 1_655 S
Ho40 C43 2.811 . S
Ho40 O60 2.322 . S
Ho40 O62 2.378 . S
Ho40 O63 2.524 . S
Ho40 O64 2.381 . S
Ho40 O65 2.669 . S
Ho40 O67 2.346 . S
Ho40 O71 2.305 . S
Ho41 C52 2.811 1_554 S
Ho41 O61 2.346 . S
Ho41 O65 2.305 . S
Ho41 O66 2.322 . S
Ho41 O68 2.378 1_554 S
Ho41 O69 2.524 1_554 S
Ho41 O70 2.381 . S
Ho41 O71 2.669 . S
C42 O60 1.259 . S
C42 O61 1.268 . S
C43 Ho40 2.811 . S
C43 C44 1.488 . S
C43 O62 1.215 . S
C43 O63 1.289 . S
C44 C43 1.488 . S
C44 C45 1.348 . S
C44 C49 1.413 . S
C45 C44 1.348 . S
C45 C46 1.442 . S
C45 H72 0.930 . S
C46 C45 1.442 . S
C46 C47 1.381 . S
C46 H73 0.931 . S
C47 C46 1.381 . S
C47 C48 1.321 . S
C48 C47 1.321 . S
C48 C49 1.403 . S
C48 H74 0.934 . S
C49 C44 1.413 . S
C49 C48 1.403 . S
C49 H75 0.930 . S
C50 O64 1.275 . S
C50 O65 1.256 . S
C51 O66 1.259 . S
C51 O67 1.268 . S
C52 Ho41 2.811 1_556 S
C52 C53 1.488 . S
C52 O68 1.215 . S
C52 O69 1.289 . S
C53 C52 1.488 . S
C53 C54 1.348 . S
C53 C58 1.413 . S
C54 C53 1.348 . S
C54 C55 1.442 . S
C54 H76 0.930 . S
C55 C54 1.442 . S
C55 C56 1.381 . S
C55 H77 0.931 . S
C56 C55 1.381 . S
C56 C57 1.321 . S
C57 C56 1.321 . S
C57 C58 1.403 . S
C57 H78 0.934 . S
C58 C53 1.413 . S
C58 C57 1.403 . S
C58 H79 0.930 . S
C59 O70 1.275 . S
C59 O71 1.256 . S
O60 Ho40 2.322 . S
O60 C42 1.259 . S
O61 Ho41 2.346 . S
O61 C42 1.268 . S
O62 Ho40 2.378 . S
O62 C43 1.215 . S
O63 Ho40 2.524 . S
O63 C43 1.289 . S
O64 Ho40 2.381 . S
O64 C50 1.275 . S
O65 Ho40 2.669 . S
O65 Ho41 2.305 . S
O65 C50 1.256 . S
O66 Ho41 2.322 . S
O66 C51 1.259 . S
O67 Ho40 2.346 . S
O67 C51 1.268 . S
O68 Ho41 2.378 1_556 S
O68 C52 1.215 . S
O69 Ho41 2.524 1_556 S
O69 C52 1.289 . S
O70 Ho41 2.381 . S
O70 C59 1.275 . S
O71 Ho40 2.305 . S
O71 Ho41 2.669 . S
O71 C59 1.256 . S
H72 C45 0.930 . S
H73 C46 0.931 . S
H74 C48 0.934 . S
H75 C49 0.930 . S
H76 C54 0.930 . S
H77 C55 0.931 . S
H78 C57 0.934 . S
H79 C58 0.930 . S
Ho80 C83 2.811 . S
Ho80 O100 2.322 . S
Ho80 O102 2.378 . S
Ho80 O103 2.524 . S
Ho80 O104 2.381 . S
Ho80 O105 2.669 . S
Ho80 O107 2.346 . S
Ho80 O111 2.305 . S
Ho81 C92 2.811 1_554 S
Ho81 O101 2.346 . S
Ho81 O105 2.305 . S
Ho81 O106 2.322 . S
Ho81 O108 2.378 1_554 S
Ho81 O109 2.524 1_554 S
Ho81 O110 2.381 . S
Ho81 O111 2.669 . S
C82 O100 1.259 . S
C82 O101 1.268 . S
C83 Ho80 2.811 . S
C83 C84 1.488 . S
C83 O102 1.215 . S
C83 O103 1.289 . S
C84 C83 1.488 . S
C84 C85 1.348 . S
C84 C89 1.413 . S
C85 C84 1.348 . S
C85 C86 1.442 . S
C85 H112 0.930 . S
C86 C85 1.442 . S
C86 C87 1.381 . S
C86 H113 0.931 . S
C87 C86 1.381 . S
C87 C88 1.321 . S
C88 C87 1.321 . S
C88 C89 1.403 . S
C88 H114 0.934 . S
C89 C84 1.413 . S
C89 C88 1.403 . S
C89 H115 0.930 . S
C90 O104 1.275 . S
C90 O105 1.256 . S
C91 O106 1.259 . S
C91 O107 1.268 . S
C92 Ho81 2.811 1_556 S
C92 C93 1.488 . S
C92 O108 1.215 . S
C92 O109 1.289 . S
C93 C92 1.488 . S
C93 C94 1.348 . S
C93 C98 1.439 . S
C94 C93 1.348 . S
C94 C95 1.442 . S
C94 H116 0.930 . S
C95 C94 1.442 . S
C95 C96 1.381 . S
C95 H117 0.931 . S
C96 C95 1.381 . S
C96 C97 1.321 1_565 S
C97 C96 1.321 1_545 S
C97 C98 1.388 1_545 S
C97 H118 0.934 . S
C98 C93 1.439 . S
C98 C97 1.388 1_565 S
C98 H119 0.921 1_565 S
C99 O110 1.275 . S
C99 O111 1.256 . S
O100 Ho80 2.322 . S
O100 C82 1.259 . S
O101 Ho81 2.346 . S
O101 C82 1.268 . S
O102 Ho80 2.378 . S
O102 C83 1.215 . S
O103 Ho80 2.524 . S
O103 C83 1.289 . S
O104 Ho80 2.381 . S
O104 C90 1.275 . S
O105 Ho80 2.669 . S
O105 Ho81 2.305 . S
O105 C90 1.256 . S
O106 Ho81 2.322 . S
O106 C91 1.259 . S
O107 Ho80 2.346 . S
O107 C91 1.268 . S
O108 Ho81 2.378 1_556 S
O108 C92 1.215 . S
O109 Ho81 2.524 1_556 S
O109 C92 1.289 . S
O110 Ho81 2.381 . S
O110 C99 1.275 . S
O111 Ho80 2.305 . S
O111 Ho81 2.669 . S
O111 C99 1.256 . S
H112 C85 0.930 . S
H113 C86 0.931 . S
H114 C88 0.934 . S
H115 C89 0.930 . S
H116 C94 0.930 . S
H117 C95 0.931 . S
H118 C97 0.934 . S
H119 C98 0.921 1_545 S
Ho120 C123 2.811 . S
Ho120 O140 2.322 . S
Ho120 O142 2.378 . S
Ho120 O143 2.524 . S
Ho120 O144 2.381 . S
Ho120 O145 2.669 . S
Ho120 O147 2.346 . S
Ho120 O151 2.305 . S
Ho121 C132 2.811 . S
Ho121 O141 2.346 . S
Ho121 O145 2.305 . S
Ho121 O146 2.322 . S
Ho121 O148 2.378 . S
Ho121 O149 2.524 . S
Ho121 O150 2.381 . S
Ho121 O151 2.669 . S
C122 O140 1.259 . S
C122 O141 1.268 . S
C123 Ho120 2.811 . S
C123 C124 1.488 . S
C123 O142 1.215 . S
C123 O143 1.289 . S
C124 C123 1.488 . S
C124 C125 1.348 . S
C124 C129 1.413 . S
C125 C124 1.348 . S
C125 C126 1.442 . S
C125 H152 0.930 . S
C126 C125 1.442 . S
C126 C127 1.381 . S
C126 H153 0.931 . S
C127 C126 1.381 . S
C127 C128 1.321 . S
C128 C127 1.321 . S
C128 C129 1.403 . S
C128 H154 0.934 . S
C129 C124 1.413 . S
C129 C128 1.403 . S
C129 H155 0.930 . S
C130 O144 1.275 . S
C130 O145 1.256 . S
C131 O146 1.259 . S
C131 O147 1.268 . S
C132 Ho121 2.811 . S
C132 C133 1.488 . S
C132 O148 1.215 . S
C132 O149 1.289 . S
C133 C132 1.488 . S
C133 C134 1.348 . S
C133 C138 1.455 . S
C134 C133 1.348 . S
C134 C135 1.442 . S
C134 H156 0.930 . S
C135 C134 1.442 . S
C135 C136 1.381 . S
C135 H157 0.931 . S
C136 C135 1.381 . S
C136 C137 1.321 1_545 S
C137 C136 1.321 1_565 S
C137 C138 1.400 1_565 S
C137 H158 0.934 . S
C138 C133 1.455 . S
C138 C137 1.400 1_545 S
C138 H159 0.893 1_545 S
C139 O150 1.275 . S
C139 O151 1.256 . S
O140 Ho120 2.322 . S
O140 C122 1.259 . S
O141 Ho121 2.346 . S
O141 C122 1.268 . S
O142 Ho120 2.378 . S
O142 C123 1.215 . S
O143 Ho120 2.524 . S
O143 C123 1.289 . S
O144 Ho120 2.381 . S
O144 C130 1.275 . S
O145 Ho120 2.669 . S
O145 Ho121 2.305 . S
O145 C130 1.256 . S
O146 Ho121 2.322 . S
O146 C131 1.259 . S
O147 Ho120 2.346 . S
O147 C131 1.268 . S
O148 Ho121 2.378 . S
O148 C132 1.215 . S
O149 Ho121 2.524 . S
O149 C132 1.289 . S
O150 Ho121 2.381 . S
O150 C139 1.275 . S
O151 Ho120 2.305 . S
O151 Ho121 2.669 . S
O151 C139 1.256 . S
H152 C125 0.930 . S
H153 C126 0.931 . S
H154 C128 0.934 . S
H155 C129 0.930 . S
H156 C134 0.930 . S
H157 C135 0.931 . S
H158 C137 0.934 . S
H159 C138 0.893 1_565 S
Ho160 C163 2.811 . S
Ho160 O180 2.322 . S
Ho160 O182 2.378 . S
Ho160 O183 2.524 . S
Ho160 O184 2.381 . S
Ho160 O185 2.669 . S
Ho160 O187 2.346 . S
Ho160 O191 2.305 . S
Ho161 C172 2.811 . S
Ho161 O181 2.346 . S
Ho161 O185 2.305 . S
Ho161 O186 2.322 . S
Ho161 O188 2.378 . S
Ho161 O189 2.524 . S
Ho161 O190 2.381 . S
Ho161 O191 2.669 . S
C162 O180 1.259 . S
C162 O181 1.268 . S
C163 Ho160 2.811 . S
C163 C164 1.488 . S
C163 O182 1.215 . S
C163 O183 1.289 . S
C164 C163 1.488 . S
C164 C165 1.348 . S
C164 C169 1.413 . S
C165 C164 1.348 . S
C165 C166 1.442 . S
C165 H192 0.930 . S
C166 C165 1.442 . S
C166 C167 1.381 . S
C166 H193 0.931 . S
C167 C166 1.381 . S
C167 C168 1.321 . S
C168 C167 1.321 . S
C168 C169 1.403 . S
C168 H194 0.934 . S
C169 C164 1.413 . S
C169 C168 1.403 . S
C169 H195 0.930 . S
C170 O184 1.275 . S
C170 O185 1.256 . S
C171 O186 1.259 . S
C171 O187 1.268 . S
C172 Ho161 2.811 . S
C172 C173 1.488 . S
C172 O188 1.215 . S
C172 O189 1.289 . S
C173 C172 1.488 . S
C173 C174 1.348 . S
C173 C178 1.440 . S
C174 C173 1.348 . S
C174 C175 1.442 . S
C174 H196 0.930 . S
C175 C174 1.442 . S
C175 C176 1.381 . S
C175 H197 0.931 . S
C176 C175 1.381 . S
C176 C177 1.321 1_655 S
C177 C176 1.321 1_455 S
C177 C178 1.388 1_455 S
C177 H198 0.934 . S
C178 C173 1.440 . S
C178 C177 1.388 1_655 S
C178 H199 0.921 1_655 S
C179 O190 1.275 . S
C179 O191 1.256 . S
O180 Ho160 2.322 . S
O180 C162 1.259 . S
O181 Ho161 2.346 . S
O181 C162 1.268 . S
O182 Ho160 2.378 . S
O182 C163 1.215 . S
O183 Ho160 2.524 . S
O183 C163 1.289 . S
O184 Ho160 2.381 . S
O184 C170 1.275 . S
O185 Ho160 2.669 . S
O185 Ho161 2.305 . S
O185 C170 1.256 . S
O186 Ho161 2.322 . S
O186 C171 1.259 . S
O187 Ho160 2.346 . S
O187 C171 1.268 . S
O188 Ho161 2.378 . S
O188 C172 1.215 . S
O189 Ho161 2.524 . S
O189 C172 1.289 . S
O190 Ho161 2.381 . S
O190 C179 1.275 . S
O191 Ho160 2.305 . S
O191 Ho161 2.669 . S
O191 C179 1.256 . S
H192 C165 0.930 . S
H193 C166 0.931 . S
H194 C168 0.934 . S
H195 C169 0.930 . S
H196 C174 0.930 . S
H197 C175 0.931 . S
H198 C177 0.934 . S
H199 C178 0.921 1_455 S
Ho200 C203 2.811 . S
Ho200 O220 2.322 . S
Ho200 O222 2.378 . S
Ho200 O223 2.524 . S
Ho200 O224 2.381 . S
Ho200 O225 2.669 . S
Ho200 O227 2.346 . S
Ho200 O231 2.305 . S
Ho201 C212 2.811 . S
Ho201 O221 2.346 . S
Ho201 O225 2.305 . S
Ho201 O226 2.322 . S
Ho201 O228 2.378 . S
Ho201 O229 2.524 . S
Ho201 O230 2.381 . S
Ho201 O231 2.669 . S
C202 O220 1.259 . S
C202 O221 1.268 . S
C203 Ho200 2.811 . S
C203 C204 1.488 . S
C203 O222 1.215 . S
C203 O223 1.289 . S
C204 C203 1.488 . S
C204 C205 1.348 . S
C204 C209 1.413 . S
C205 C204 1.348 . S
C205 C206 1.442 . S
C205 H232 0.930 . S
C206 C205 1.442 . S
C206 C207 1.381 . S
C206 H233 0.931 . S
C207 C206 1.381 . S
C207 C208 1.321 . S
C208 C207 1.321 . S
C208 C209 1.403 . S
C208 H234 0.934 . S
C209 C204 1.413 . S
C209 C208 1.403 . S
C209 H235 0.930 . S
C210 O224 1.275 . S
C210 O225 1.256 . S
C211 O226 1.259 . S
C211 O227 1.268 . S
C212 Ho201 2.811 . S
C212 C213 1.488 . S
C212 O228 1.215 . S
C212 O229 1.289 . S
C213 C212 1.488 . S
C213 C214 1.348 . S
C213 C218 1.413 . S
C214 C213 1.348 . S
C214 C215 1.442 . S
C214 H236 0.930 . S
C215 C214 1.442 . S
C215 C216 1.381 . S
C215 H237 0.931 . S
C216 C215 1.381 . S
C216 C217 1.321 . S
C217 C216 1.321 . S
C217 C218 1.403 . S
C217 H238 0.934 . S
C218 C213 1.413 . S
C218 C217 1.403 . S
C218 H239 0.930 . S
C219 O230 1.275 . S
C219 O231 1.256 . S
O220 Ho200 2.322 . S
O220 C202 1.259 . S
O221 Ho201 2.346 . S
O221 C202 1.268 . S
O222 Ho200 2.378 . S
O222 C203 1.215 . S
O223 Ho200 2.524 . S
O223 C203 1.289 . S
O224 Ho200 2.381 . S
O224 C210 1.275 . S
O225 Ho200 2.669 . S
O225 Ho201 2.305 . S
O225 C210 1.256 . S
O226 Ho201 2.322 . S
O226 C211 1.259 . S
O227 Ho200 2.346 . S
O227 C211 1.268 . S
O228 Ho201 2.378 . S
O228 C212 1.215 . S
O229 Ho201 2.524 . S
O229 C212 1.289 . S
O230 Ho201 2.381 . S
O230 C219 1.275 . S
O231 Ho200 2.305 . S
O231 Ho201 2.669 . S
O231 C219 1.256 . S
H232 C205 0.930 . S
H233 C206 0.931 . S
H234 C208 0.934 . S
H235 C209 0.930 . S
H236 C214 0.930 . S
H237 C215 0.931 . S
H238 C217 0.934 . S
H239 C218 0.930 . S
Ho240 C243 2.811 . S
Ho240 O260 2.322 . S
Ho240 O262 2.378 . S
Ho240 O263 2.524 . S
Ho240 O264 2.381 . S
Ho240 O265 2.669 1_554 S
Ho240 O267 2.346 1_554 S
Ho240 O271 2.305 . S
Ho241 C252 2.811 . S
Ho241 O261 2.346 1_556 S
Ho241 O265 2.305 . S
Ho241 O266 2.322 . S
Ho241 O268 2.378 . S
Ho241 O269 2.524 . S
Ho241 O270 2.381 . S
Ho241 O271 2.669 1_556 S
C242 O260 1.259 . S
C242 O261 1.268 . S
C243 Ho240 2.811 . S
C243 C244 1.488 . S
C243 O262 1.215 . S
C243 O263 1.289 . S
C244 C243 1.488 . S
C244 C245 1.348 . S
C244 C249 1.454 . S
C245 C244 1.348 . S
C245 C246 1.442 . S
C245 H272 0.930 . S
C246 C245 1.442 . S
C246 C247 1.381 . S
C246 H273 0.931 . S
C247 C246 1.381 . S
C247 C248 1.321 1_655 S
C248 C247 1.321 1_455 S
C248 C249 1.400 1_455 S
C248 H274 0.934 . S
C249 C244 1.454 . S
C249 C248 1.400 1_655 S
C249 H275 0.893 1_655 S
C250 O264 1.291 . S
C250 O265 1.250 1_554 S
C251 O266 1.259 . S
C251 O267 1.268 . S
C252 Ho241 2.811 . S
C252 C253 1.488 . S
C252 O268 1.215 . S
C252 O269 1.289 . S
C253 C252 1.488 . S
C253 C254 1.348 . S
C253 C258 1.413 . S
C254 C253 1.348 . S
C254 C255 1.442 . S
C254 H276 0.930 . S
C255 C254 1.442 . S
C255 C256 1.381 . S
C255 H277 0.931 . S
C256 C255 1.381 . S
C256 C257 1.321 . S
C257 C256 1.321 . S
C257 C258 1.403 . S
C257 H278 0.934 . S
C258 C253 1.413 . S
C258 C257 1.403 . S
C258 H279 0.930 . S
C259 O270 1.275 1_554 S
C259 O271 1.256 . S
O260 Ho240 2.322 . S
O260 C242 1.259 . S
O261 Ho241 2.346 1_554 S
O261 C242 1.268 . S
O262 Ho240 2.378 . S
O262 C243 1.215 . S
O263 Ho240 2.524 . S
O263 C243 1.289 . S
O264 Ho240 2.381 . S
O264 C250 1.291 . S
O265 Ho240 2.669 1_556 S
O265 Ho241 2.305 . S
O265 C250 1.250 1_556 S
O266 Ho241 2.322 . S
O266 C251 1.259 . S
O267 Ho240 2.346 1_556 S
O267 C251 1.268 . S
O268 Ho241 2.378 . S
O268 C252 1.215 . S
O269 Ho241 2.524 . S
O269 C252 1.289 . S
O270 Ho241 2.381 . S
O270 C259 1.275 1_556 S
O271 Ho240 2.305 . S
O271 Ho241 2.669 1_554 S
O271 C259 1.256 . S
H272 C245 0.930 . S
H273 C246 0.931 . S
H274 C248 0.934 . S
H275 C249 0.893 1_455 S
H276 C254 0.930 . S
H277 C255 0.931 . S
H278 C257 0.934 . S
H279 C258 0.930 . S
Ho280 C283 2.811 . S
Ho280 O300 2.322 . S
Ho280 O302 2.378 . S
Ho280 O303 2.524 . S
Ho280 O304 2.381 . S
Ho280 O305 2.669 1_554 S
Ho280 O307 2.346 1_554 S
Ho280 O311 2.305 . S
Ho281 C292 2.811 . S
Ho281 O301 2.346 1_556 S
Ho281 O305 2.305 . S
Ho281 O306 2.322 . S
Ho281 O308 2.378 . S
Ho281 O309 2.524 . S
Ho281 O310 2.381 . S
Ho281 O311 2.669 1_556 S
C282 O300 1.259 . S
C282 O301 1.268 . S
C283 Ho280 2.811 . S
C283 C284 1.488 . S
C283 O302 1.215 . S
C283 O303 1.289 . S
C284 C283 1.488 . S
C284 C285 1.348 . S
C284 C289 1.413 . S
C285 C284 1.348 . S
C285 C286 1.442 . S
C285 H312 0.930 . S
C286 C285 1.442 . S
C286 C287 1.381 . S
C286 H313 0.931 . S
C287 C286 1.381 . S
C287 C288 1.321 . S
C288 C287 1.321 . S
C288 C289 1.403 . S
C288 H314 0.934 . S
C289 C284 1.413 . S
C289 C288 1.403 . S
C289 H315 0.930 . S
C290 O304 1.291 . S
C290 O305 1.250 1_554 S
C291 O306 1.259 . S
C291 O307 1.268 . S
C292 Ho281 2.811 . S
C292 C293 1.488 . S
C292 O308 1.215 . S
C292 O309 1.289 . S
C293 C292 1.488 . S
C293 C294 1.348 . S
C293 C298 1.413 . S
C294 C293 1.348 . S
C294 C295 1.442 . S
C294 H316 0.930 . S
C295 C294 1.442 . S
C295 C296 1.381 . S
C295 H317 0.931 . S
C296 C295 1.381 . S
C296 C297 1.321 . S
C297 C296 1.321 . S
C297 C298 1.403 . S
C297 H318 0.934 . S
C298 C293 1.413 . S
C298 C297 1.403 . S
C298 H319 0.930 . S
C299 O310 1.275 1_554 S
C299 O311 1.256 . S
O300 Ho280 2.322 . S
O300 C282 1.259 . S
O301 Ho281 2.346 1_554 S
O301 C282 1.268 . S
O302 Ho280 2.378 . S
O302 C283 1.215 . S
O303 Ho280 2.524 . S
O303 C283 1.289 . S
O304 Ho280 2.381 . S
O304 C290 1.291 . S
O305 Ho280 2.669 1_556 S
O305 Ho281 2.305 . S
O305 C290 1.250 1_556 S
O306 Ho281 2.322 . S
O306 C291 1.259 . S
O307 Ho280 2.346 1_556 S
O307 C291 1.268 . S
O308 Ho281 2.378 . S
O308 C292 1.215 . S
O309 Ho281 2.524 . S
O309 C292 1.289 . S
O310 Ho281 2.381 . S
O310 C299 1.275 1_556 S
O311 Ho280 2.305 . S
O311 Ho281 2.669 1_554 S
O311 C299 1.256 . S
H312 C285 0.930 . S
H313 C286 0.931 . S
H314 C288 0.934 . S
H315 C289 0.930 . S
H316 C294 0.930 . S
H317 C295 0.931 . S
H318 C297 0.934 . S
H319 C298 0.930 . S
Ho320 C323 2.811 . S
Ho320 O340 2.322 . S
Ho320 O342 2.378 . S
Ho320 O343 2.524 . S
Ho320 O344 2.381 . S
Ho320 O345 2.669 1_554 S
Ho320 O347 2.346 1_554 S
Ho320 O351 2.305 . S
Ho321 C332 2.811 . S
Ho321 O341 2.346 1_556 S
Ho321 O345 2.305 . S
Ho321 O346 2.322 . S
Ho321 O348 2.378 . S
Ho321 O349 2.524 . S
Ho321 O350 2.381 . S
Ho321 O351 2.669 1_556 S
C322 O340 1.259 . S
C322 O341 1.268 . S
C323 Ho320 2.811 . S
C323 C324 1.488 . S
C323 O342 1.215 . S
C323 O343 1.289 . S
C324 C323 1.488 . S
C324 C325 1.348 . S
C324 C329 1.441 . S
C325 C324 1.348 . S
C325 C326 1.442 . S
C325 H352 0.930 . S
C326 C325 1.442 . S
C326 C327 1.381 . S
C326 H353 0.931 . S
C327 C326 1.381 . S
C327 C328 1.321 1_545 S
C328 C327 1.321 1_565 S
C328 C329 1.387 1_565 S
C328 H354 0.934 . S
C329 C324 1.441 . S
C329 C328 1.387 1_545 S
C329 H355 0.921 1_545 S
C330 O344 1.291 . S
C330 O345 1.250 1_554 S
C331 O346 1.259 . S
C331 O347 1.268 . S
C332 Ho321 2.811 . S
C332 C333 1.488 . S
C332 O348 1.215 . S
C332 O349 1.289 . S
C333 C332 1.488 . S
C333 C334 1.348 . S
C333 C338 1.413 . S
C334 C333 1.348 . S
C334 C335 1.442 . S
C334 H356 0.930 . S
C335 C334 1.442 . S
C335 C336 1.381 . S
C335 H357 0.931 . S
C336 C335 1.381 . S
C336 C337 1.321 . S
C337 C336 1.321 . S
C337 C338 1.403 . S
C337 H358 0.934 . S
C338 C333 1.413 . S
C338 C337 1.403 . S
C338 H359 0.930 . S
C339 O350 1.275 1_554 S
C339 O351 1.256 . S
O340 Ho320 2.322 . S
O340 C322 1.259 . S
O341 Ho321 2.346 1_554 S
O341 C322 1.268 . S
O342 Ho320 2.378 . S
O342 C323 1.215 . S
O343 Ho320 2.524 . S
O343 C323 1.289 . S
O344 Ho320 2.381 . S
O344 C330 1.291 . S
O345 Ho320 2.669 1_556 S
O345 Ho321 2.305 . S
O345 C330 1.250 1_556 S
O346 Ho321 2.322 . S
O346 C331 1.259 . S
O347 Ho320 2.346 1_556 S
O347 C331 1.268 . S
O348 Ho321 2.378 . S
O348 C332 1.215 . S
O349 Ho321 2.524 . S
O349 C332 1.289 . S
O350 Ho321 2.381 . S
O350 C339 1.275 1_556 S
O351 Ho320 2.305 . S
O351 Ho321 2.669 1_554 S
O351 C339 1.256 . S
H352 C325 0.930 . S
H353 C326 0.931 . S
H354 C328 0.934 . S
H355 C329 0.921 1_565 S
H356 C334 0.930 . S
H357 C335 0.931 . S
H358 C337 0.934 . S
H359 C338 0.930 . S
Ho360 C363 2.811 . S
Ho360 O380 2.322 . S
Ho360 O382 2.378 . S
Ho360 O383 2.524 . S
Ho360 O384 2.381 . S
Ho360 O385 2.669 . S
Ho360 O387 2.346 . S
Ho360 O391 2.305 . S
Ho361 C372 2.811 . S
Ho361 O381 2.346 . S
Ho361 O385 2.305 . S
Ho361 O386 2.322 . S
Ho361 O388 2.378 . S
Ho361 O389 2.524 . S
Ho361 O390 2.381 . S
Ho361 O391 2.669 . S
C362 O380 1.259 . S
C362 O381 1.268 . S
C363 Ho360 2.811 . S
C363 C364 1.488 . S
C363 O382 1.215 . S
C363 O383 1.289 . S
C364 C363 1.488 . S
C364 C365 1.348 . S
C364 C369 1.453 . S
C365 C364 1.348 . S
C365 C366 1.442 . S
C365 H392 0.930 . S
C366 C365 1.442 . S
C366 C367 1.381 . S
C366 H393 0.931 . S
C367 C366 1.381 . S
C367 C368 1.321 1_565 S
C368 C367 1.321 1_545 S
C368 C369 1.400 1_545 S
C368 H394 0.934 . S
C369 C364 1.453 . S
C369 C368 1.400 1_565 S
C369 H395 0.895 1_565 S
C370 O384 1.275 . S
C370 O385 1.256 . S
C371 O386 1.259 . S
C371 O387 1.268 . S
C372 Ho361 2.811 . S
C372 C373 1.488 . S
C372 O388 1.215 . S
C372 O389 1.289 . S
C373 C372 1.488 . S
C373 C374 1.348 . S
C373 C378 1.413 . S
C374 C373 1.348 . S
C374 C375 1.442 . S
C374 H396 0.930 . S
C375 C374 1.442 . S
C375 C376 1.381 . S
C375 H397 0.931 . S
C376 C375 1.381 . S
C376 C377 1.321 . S
C377 C376 1.321 . S
C377 C378 1.403 . S
C377 H398 0.934 . S
C378 C373 1.413 . S
C378 C377 1.403 . S
C378 H399 0.930 . S
C379 O390 1.275 . S
C379 O391 1.256 . S
O380 Ho360 2.322 . S
O380 C362 1.259 . S
O381 Ho361 2.346 . S
O381 C362 1.268 . S
O382 Ho360 2.378 . S
O382 C363 1.215 . S
O383 Ho360 2.524 . S
O383 C363 1.289 . S
O384 Ho360 2.381 . S
O384 C370 1.275 . S
O385 Ho360 2.669 . S
O385 Ho361 2.305 . S
O385 C370 1.256 . S
O386 Ho361 2.322 . S
O386 C371 1.259 . S
O387 Ho360 2.346 . S
O387 C371 1.268 . S
O388 Ho361 2.378 . S
O388 C372 1.215 . S
O389 Ho361 2.524 . S
O389 C372 1.289 . S
O390 Ho361 2.381 . S
O390 C379 1.275 . S
O391 Ho360 2.305 . S
O391 Ho361 2.669 . S
O391 C379 1.256 . S
H392 C365 0.930 . S
H393 C366 0.931 . S
H394 C368 0.934 . S
H395 C369 0.895 1_545 S
H396 C374 0.930 . S
H397 C375 0.931 . S
H398 C377 0.934 . S
H399 C378 0.930 . S
Ho400 C403 2.811 . S
Ho400 O420 2.322 . S
Ho400 O422 2.378 . S
Ho400 O423 2.524 . S
Ho400 O424 2.381 . S
Ho400 O425 2.669 . S
Ho400 O427 2.346 . S
Ho400 O431 2.305 . S
Ho401 C412 2.811 . S
Ho401 O421 2.346 . S
Ho401 O425 2.305 . S
Ho401 O426 2.322 . S
Ho401 O428 2.378 . S
Ho401 O429 2.524 . S
Ho401 O430 2.381 . S
Ho401 O431 2.669 . S
C402 O420 1.259 . S
C402 O421 1.268 . S
C403 Ho400 2.811 . S
C403 C404 1.488 . S
C403 O422 1.215 . S
C403 O423 1.289 . S
C404 C403 1.488 . S
C404 C405 1.348 . S
C404 C409 1.439 . S
C405 C404 1.348 . S
C405 C406 1.442 . S
C405 H432 0.930 . S
C406 C405 1.442 . S
C406 C407 1.381 . S
C406 H433 0.931 . S
C407 C406 1.381 . S
C407 C408 1.321 1_455 S
C408 C407 1.321 1_655 S
C408 C409 1.388 1_655 S
C408 H434 0.934 . S
C409 C404 1.439 . S
C409 C408 1.388 1_455 S
C409 H435 0.921 1_455 S
C410 O424 1.275 . S
C410 O425 1.256 . S
C411 O426 1.259 . S
C411 O427 1.268 . S
C412 Ho401 2.811 . S
C412 C413 1.488 . S
C412 O428 1.215 . S
C412 O429 1.289 . S
C413 C412 1.488 . S
C413 C414 1.348 . S
C413 C418 1.413 . S
C414 C413 1.348 . S
C414 C415 1.442 . S
C414 H436 0.930 . S
C415 C414 1.442 . S
C415 C416 1.381 . S
C415 H437 0.931 . S
C416 C415 1.381 . S
C416 C417 1.321 . S
C417 C416 1.321 . S
C417 C418 1.403 . S
C417 H438 0.934 . S
C418 C413 1.413 . S
C418 C417 1.403 . S
C418 H439 0.930 . S
C419 O430 1.275 . S
C419 O431 1.256 . S
O420 Ho400 2.322 . S
O420 C402 1.259 . S
O421 Ho401 2.346 . S
O421 C402 1.268 . S
O422 Ho400 2.378 . S
O422 C403 1.215 . S
O423 Ho400 2.524 . S
O423 C403 1.289 . S
O424 Ho400 2.381 . S
O424 C410 1.275 . S
O425 Ho400 2.669 . S
O425 Ho401 2.305 . S
O425 C410 1.256 . S
O426 Ho401 2.322 . S
O426 C411 1.259 . S
O427 Ho400 2.346 . S
O427 C411 1.268 . S
O428 Ho401 2.378 . S
O428 C412 1.215 . S
O429 Ho401 2.524 . S
O429 C412 1.289 . S
O430 Ho401 2.381 . S
O430 C419 1.275 . S
O431 Ho400 2.305 . S
O431 Ho401 2.669 . S
O431 C419 1.256 . S
H432 C405 0.930 . S
H433 C406 0.931 . S
H434 C408 0.934 . S
H435 C409 0.921 1_655 S
H436 C414 0.930 . S
H437 C415 0.931 . S
H438 C417 0.934 . S
H439 C418 0.930 . S
Ho440 C443 2.811 . S
Ho440 O460 2.322 . S
Ho440 O462 2.378 . S
Ho440 O463 2.524 . S
Ho440 O464 2.381 . S
Ho440 O465 2.669 . S
Ho440 O467 2.346 . S
Ho440 O471 2.305 . S
Ho441 C452 2.811 . S
Ho441 O461 2.346 . S
Ho441 O465 2.305 . S
Ho441 O466 2.322 . S
Ho441 O468 2.378 . S
Ho441 O469 2.524 . S
Ho441 O470 2.381 . S
Ho441 O471 2.669 . S
C442 O460 1.259 . S
C442 O461 1.268 . S
C443 Ho440 2.811 . S
C443 C444 1.488 . S
C443 O462 1.215 . S
C443 O463 1.289 . S
C444 C443 1.488 . S
C444 C445 1.348 . S
C444 C449 1.413 . S
C445 C444 1.348 . S
C445 C446 1.442 . S
C445 H472 0.930 . S
C446 C445 1.442 . S
C446 C447 1.381 . S
C446 H473 0.931 . S
C447 C446 1.381 . S
C447 C448 1.321 . S
C448 C447 1.321 . S
C448 C449 1.403 . S
C448 H474 0.934 . S
C449 C444 1.413 . S
C449 C448 1.403 . S
C449 H475 0.930 . S
C450 O464 1.275 . S
C450 O465 1.256 . S
C451 O466 1.259 . S
C451 O467 1.268 . S
C452 Ho441 2.811 . S
C452 C453 1.488 . S
C452 O468 1.215 . S
C452 O469 1.289 . S
C453 C452 1.488 . S
C453 C454 1.348 . S
C453 C458 1.413 . S
C454 C453 1.348 . S
C454 C455 1.442 . S
C454 H476 0.930 . S
C455 C454 1.442 . S
C455 C456 1.381 . S
C455 H477 0.931 . S
C456 C455 1.381 . S
C456 C457 1.321 . S
C457 C456 1.321 . S
C457 C458 1.403 . S
C457 H478 0.934 . S
C458 C453 1.413 . S
C458 C457 1.403 . S
C458 H479 0.930 . S
C459 O470 1.275 . S
C459 O471 1.256 . S
O460 Ho440 2.322 . S
O460 C442 1.259 . S
O461 Ho441 2.346 . S
O461 C442 1.268 . S
O462 Ho440 2.378 . S
O462 C443 1.215 . S
O463 Ho440 2.524 . S
O463 C443 1.289 . S
O464 Ho440 2.381 . S
O464 C450 1.275 . S
O465 Ho440 2.669 . S
O465 Ho441 2.305 . S
O465 C450 1.256 . S
O466 Ho441 2.322 . S
O466 C451 1.259 . S
O467 Ho440 2.346 . S
O467 C451 1.268 . S
O468 Ho441 2.378 . S
O468 C452 1.215 . S
O469 Ho441 2.524 . S
O469 C452 1.289 . S
O470 Ho441 2.381 . S
O470 C459 1.275 . S
O471 Ho440 2.305 . S
O471 Ho441 2.669 . S
O471 C459 1.256 . S
H472 C445 0.930 . S
H473 C446 0.931 . S
H474 C448 0.934 . S
H475 C449 0.930 . S
H476 C454 0.930 . S
H477 C455 0.931 . S
H478 C457 0.934 . S
H479 C458 0.930 . S
Ho480 C483 2.811 . S
Ho480 O500 2.322 . S
Ho480 O502 2.378 . S
Ho480 O503 2.524 . S
Ho480 O504 2.381 . S
Ho480 O505 2.669 . S
Ho480 O507 2.346 . S
Ho480 O511 2.305 . S
Ho481 C492 2.811 . S
Ho481 O501 2.346 . S
Ho481 O505 2.305 . S
Ho481 O506 2.322 . S
Ho481 O508 2.378 . S
Ho481 O509 2.524 . S
Ho481 O510 2.381 . S
Ho481 O511 2.669 . S
C482 O500 1.259 . S
C482 O501 1.268 . S
C483 Ho480 2.811 . S
C483 C484 1.488 . S
C483 O502 1.215 . S
C483 O503 1.289 . S
C484 C483 1.488 . S
C484 C485 1.348 . S
C484 C489 1.413 . S
C485 C484 1.348 . S
C485 C486 1.442 . S
C485 H512 0.930 . S
C486 C485 1.442 . S
C486 C487 1.381 . S
C486 H513 0.931 . S
C487 C486 1.381 . S
C487 C488 1.321 . S
C488 C487 1.321 . S
C488 C489 1.403 . S
C488 H514 0.934 . S
C489 C484 1.413 . S
C489 C488 1.403 . S
C489 H515 0.930 . S
C490 O504 1.275 . S
C490 O505 1.256 . S
C491 O506 1.259 . S
C491 O507 1.268 . S
C492 Ho481 2.811 . S
C492 C493 1.488 . S
C492 O508 1.215 . S
C492 O509 1.289 . S
C493 C492 1.488 . S
C493 C494 1.348 . S
C493 C498 1.413 . S
C494 C493 1.348 . S
C494 C495 1.442 . S
C494 H516 0.930 . S
C495 C494 1.442 . S
C495 C496 1.381 . S
C495 H517 0.931 . S
C496 C495 1.381 . S
C496 C497 1.321 . S
C497 C496 1.321 . S
C497 C498 1.403 . S
C497 H518 0.934 . S
C498 C493 1.413 . S
C498 C497 1.403 . S
C498 H519 0.930 . S
C499 O510 1.275 . S
C499 O511 1.256 . S
O500 Ho480 2.322 . S
O500 C482 1.259 . S
O501 Ho481 2.346 . S
O501 C482 1.268 . S
O502 Ho480 2.378 . S
O502 C483 1.215 . S
O503 Ho480 2.524 . S
O503 C483 1.289 . S
O504 Ho480 2.381 . S
O504 C490 1.275 . S
O505 Ho480 2.669 . S
O505 Ho481 2.305 . S
O505 C490 1.256 . S
O506 Ho481 2.322 . S
O506 C491 1.259 . S
O507 Ho480 2.346 . S
O507 C491 1.268 . S
O508 Ho481 2.378 . S
O508 C492 1.215 . S
O509 Ho481 2.524 . S
O509 C492 1.289 . S
O510 Ho481 2.381 . S
O510 C499 1.275 . S
O511 Ho480 2.305 . S
O511 Ho481 2.669 . S
O511 C499 1.256 . S
H512 C485 0.930 . S
H513 C486 0.931 . S
H514 C488 0.934 . S
H515 C489 0.930 . S
H516 C494 0.930 . S
H517 C495 0.931 . S
H518 C497 0.934 . S
H519 C498 0.930 . S
Ho520 C523 2.811 . S
Ho520 O540 2.322 . S
Ho520 O542 2.378 . S
Ho520 O543 2.524 . S
Ho520 O544 2.381 . S
Ho520 O545 2.669 . S
Ho520 O547 2.346 . S
Ho520 O551 2.305 . S
Ho521 C532 2.811 . S
Ho521 O541 2.346 . S
Ho521 O545 2.305 . S
Ho521 O546 2.322 . S
Ho521 O548 2.378 . S
Ho521 O549 2.524 . S
Ho521 O550 2.381 . S
Ho521 O551 2.669 . S
C522 O540 1.259 . S
C522 O541 1.268 . S
C523 Ho520 2.811 . S
C523 C524 1.488 . S
C523 O542 1.215 . S
C523 O543 1.289 . S
C524 C523 1.488 . S
C524 C525 1.348 . S
C524 C529 1.413 . S
C525 C524 1.348 . S
C525 C526 1.442 . S
C525 H552 0.930 . S
C526 C525 1.442 . S
C526 C527 1.381 . S
C526 H553 0.931 . S
C527 C526 1.381 . S
C527 C528 1.321 . S
C528 C527 1.321 . S
C528 C529 1.403 . S
C528 H554 0.934 . S
C529 C524 1.413 . S
C529 C528 1.403 . S
C529 H555 0.930 . S
C530 O544 1.275 . S
C530 O545 1.256 . S
C531 O546 1.259 . S
C531 O547 1.268 . S
C532 Ho521 2.811 . S
C532 C533 1.488 . S
C532 O548 1.215 . S
C532 O549 1.289 . S
C533 C532 1.488 . S
C533 C534 1.348 . S
C533 C538 1.413 . S
C534 C533 1.348 . S
C534 C535 1.442 . S
C534 H556 0.930 . S
C535 C534 1.442 . S
C535 C536 1.381 . S
C535 H557 0.931 . S
C536 C535 1.381 . S
C536 C537 1.321 . S
C537 C536 1.321 . S
C537 C538 1.403 . S
C537 H558 0.934 . S
C538 C533 1.413 . S
C538 C537 1.403 . S
C538 H559 0.930 . S
C539 O550 1.275 . S
C539 O551 1.256 . S
O540 Ho520 2.322 . S
O540 C522 1.259 . S
O541 Ho521 2.346 . S
O541 C522 1.268 . S
O542 Ho520 2.378 . S
O542 C523 1.215 . S
O543 Ho520 2.524 . S
O543 C523 1.289 . S
O544 Ho520 2.381 . S
O544 C530 1.275 . S
O545 Ho520 2.669 . S
O545 Ho521 2.305 . S
O545 C530 1.256 . S
O546 Ho521 2.322 . S
O546 C531 1.259 . S
O547 Ho520 2.346 . S
O547 C531 1.268 . S
O548 Ho521 2.378 . S
O548 C532 1.215 . S
O549 Ho521 2.524 . S
O549 C532 1.289 . S
O550 Ho521 2.381 . S
O550 C539 1.275 . S
O551 Ho520 2.305 . S
O551 Ho521 2.669 . S
O551 C539 1.256 . S
H552 C525 0.930 . S
H553 C526 0.931 . S
H554 C528 0.934 . S
H555 C529 0.930 . S
H556 C534 0.930 . S
H557 C535 0.931 . S
H558 C537 0.934 . S
H559 C538 0.930 . S
Ho560 C563 2.811 . S
Ho560 O580 2.322 . S
Ho560 O582 2.378 . S
Ho560 O583 2.524 . S
Ho560 O584 2.381 . S
Ho560 O585 2.669 . S
Ho560 O587 2.346 . S
Ho560 O591 2.305 . S
Ho561 C572 2.811 . S
Ho561 O581 2.346 . S
Ho561 O585 2.305 . S
Ho561 O586 2.322 . S
Ho561 O588 2.378 . S
Ho561 O589 2.524 . S
Ho561 O590 2.381 . S
Ho561 O591 2.669 . S
C562 O580 1.259 . S
C562 O581 1.268 . S
C563 Ho560 2.811 . S
C563 C564 1.488 . S
C563 O582 1.215 . S
C563 O583 1.289 . S
C564 C563 1.488 . S
C564 C565 1.348 . S
C564 C569 1.413 . S
C565 C564 1.348 . S
C565 C566 1.442 . S
C565 H592 0.930 . S
C566 C565 1.442 . S
C566 C567 1.381 . S
C566 H593 0.931 . S
C567 C566 1.381 . S
C567 C568 1.321 . S
C568 C567 1.321 . S
C568 C569 1.403 . S
C568 H594 0.934 . S
C569 C564 1.413 . S
C569 C568 1.403 . S
C569 H595 0.930 . S
C570 O584 1.275 . S
C570 O585 1.256 . S
C571 O586 1.259 . S
C571 O587 1.268 . S
C572 Ho561 2.811 . S
C572 C573 1.488 . S
C572 O588 1.215 . S
C572 O589 1.289 . S
C573 C572 1.488 . S
C573 C574 1.348 . S
C573 C578 1.413 . S
C574 C573 1.348 . S
C574 C575 1.442 . S
C574 H596 0.930 . S
C575 C574 1.442 . S
C575 C576 1.381 . S
C575 H597 0.931 . S
C576 C575 1.381 . S
C576 C577 1.321 . S
C577 C576 1.321 . S
C577 C578 1.403 . S
C577 H598 0.934 . S
C578 C573 1.413 . S
C578 C577 1.403 . S
C578 H599 0.930 . S
C579 O590 1.275 . S
C579 O591 1.256 . S
O580 Ho560 2.322 . S
O580 C562 1.259 . S
O581 Ho561 2.346 . S
O581 C562 1.268 . S
O582 Ho560 2.378 . S
O582 C563 1.215 . S
O583 Ho560 2.524 . S
O583 C563 1.289 . S
O584 Ho560 2.381 . S
O584 C570 1.275 . S
O585 Ho560 2.669 . S
O585 Ho561 2.305 . S
O585 C570 1.256 . S
O586 Ho561 2.322 . S
O586 C571 1.259 . S
O587 Ho560 2.346 . S
O587 C571 1.268 . S
O588 Ho561 2.378 . S
O588 C572 1.215 . S
O589 Ho561 2.524 . S
O589 C572 1.289 . S
O590 Ho561 2.381 . S
O590 C579 1.275 . S
O591 Ho560 2.305 . S
O591 Ho561 2.669 . S
O591 C579 1.256 . S
H592 C565 0.930 . S
H593 C566 0.931 . S
H594 C568 0.934 . S
H595 C569 0.930 . S
H596 C574 0.930 . S
H597 C575 0.931 . S
H598 C577 0.934 . S
H599 C578 0.930 . S
Ho600 C603 2.811 . S
Ho600 O620 2.322 . S
Ho600 O622 2.378 . S
Ho600 O623 2.524 . S
Ho600 O624 2.381 . S
Ho600 O625 2.669 . S
Ho600 O627 2.346 . S
Ho600 O631 2.305 . S
Ho601 C612 2.811 . S
Ho601 O621 2.346 . S
Ho601 O625 2.305 . S
Ho601 O626 2.322 . S
Ho601 O628 2.378 . S
Ho601 O629 2.524 . S
Ho601 O630 2.381 . S
Ho601 O631 2.669 . S
C602 O620 1.259 . S
C602 O621 1.268 . S
C603 Ho600 2.811 . S
C603 C604 1.488 . S
C603 O622 1.215 . S
C603 O623 1.289 . S
C604 C603 1.488 . S
C604 C605 1.348 . S
C604 C609 1.413 . S
C605 C604 1.348 . S
C605 C606 1.442 . S
C605 H632 0.930 . S
C606 C605 1.442 . S
C606 C607 1.381 . S
C606 H633 0.931 . S
C607 C606 1.381 . S
C607 C608 1.321 . S
C608 C607 1.321 . S
C608 C609 1.403 . S
C608 H634 0.934 . S
C609 C604 1.413 . S
C609 C608 1.403 . S
C609 H635 0.930 . S
C610 O624 1.275 . S
C610 O625 1.256 . S
C611 O626 1.259 . S
C611 O627 1.268 . S
C612 Ho601 2.811 . S
C612 C613 1.488 1_556 S
C612 O628 1.215 . S
C612 O629 1.289 . S
C613 C612 1.488 1_554 S
C613 C614 1.348 . S
C613 C618 1.413 . S
C614 C613 1.348 . S
C614 C615 1.442 . S
C614 H636 0.930 . S
C615 C614 1.442 . S
C615 C616 1.381 . S
C615 H637 0.931 . S
C616 C615 1.381 . S
C616 C617 1.321 . S
C617 C616 1.321 . S
C617 C618 1.403 . S
C617 H638 0.934 . S
C618 C613 1.413 . S
C618 C617 1.403 . S
C618 H639 0.930 . S
C619 O630 1.275 . S
C619 O631 1.256 . S
O620 Ho600 2.322 . S
O620 C602 1.259 . S
O621 Ho601 2.346 . S
O621 C602 1.268 . S
O622 Ho600 2.378 . S
O622 C603 1.215 . S
O623 Ho600 2.524 . S
O623 C603 1.289 . S
O624 Ho600 2.381 . S
O624 C610 1.275 . S
O625 Ho600 2.669 . S
O625 Ho601 2.305 . S
O625 C610 1.256 . S
O626 Ho601 2.322 . S
O626 C611 1.259 . S
O627 Ho600 2.346 . S
O627 C611 1.268 . S
O628 Ho601 2.378 . S
O628 C612 1.215 . S
O629 Ho601 2.524 . S
O629 C612 1.289 . S
O630 Ho601 2.381 . S
O630 C619 1.275 . S
O631 Ho600 2.305 . S
O631 Ho601 2.669 . S
O631 C619 1.256 . S
H632 C605 0.930 . S
H633 C606 0.931 . S
H634 C608 0.934 . S
H635 C609 0.930 . S
H636 C614 0.930 . S
H637 C615 0.931 . S
H638 C617 0.934 . S
H639 C618 0.930 . S
Ho640 C643 2.811 . S
Ho640 O660 2.322 . S
Ho640 O662 2.378 . S
Ho640 O663 2.524 . S
Ho640 O664 2.381 . S
Ho640 O665 2.669 . S
Ho640 O667 2.346 . S
Ho640 O671 2.305 . S
Ho641 C652 2.811 . S
Ho641 O661 2.346 . S
Ho641 O665 2.305 . S
Ho641 O666 2.322 . S
Ho641 O668 2.378 . S
Ho641 O669 2.524 . S
Ho641 O670 2.381 . S
Ho641 O671 2.669 . S
C642 O660 1.259 . S
C642 O661 1.268 . S
C643 Ho640 2.811 . S
C643 C644 1.488 . S
C643 O662 1.215 . S
C643 O663 1.289 . S
C644 C643 1.488 . S
C644 C645 1.348 . S
C644 C649 1.413 . S
C645 C644 1.348 . S
C645 C646 1.442 . S
C645 H672 0.930 . S
C646 C645 1.442 . S
C646 C647 1.381 . S
C646 H673 0.931 . S
C647 C646 1.381 . S
C647 C648 1.321 . S
C648 C647 1.321 . S
C648 C649 1.403 . S
C648 H674 0.934 . S
C649 C644 1.413 . S
C649 C648 1.403 . S
C649 H675 0.930 . S
C650 O664 1.275 . S
C650 O665 1.256 . S
C651 O666 1.259 . S
C651 O667 1.268 . S
C652 Ho641 2.811 . S
C652 C653 1.488 1_556 S
C652 O668 1.215 . S
C652 O669 1.289 . S
C653 C652 1.488 1_554 S
C653 C654 1.348 . S
C653 C658 1.413 . S
C654 C653 1.348 . S
C654 C655 1.442 . S
C654 H676 0.930 . S
C655 C654 1.442 . S
C655 C656 1.381 . S
C655 H677 0.931 . S
C656 C655 1.381 . S
C656 C657 1.321 . S
C657 C656 1.321 . S
C657 C658 1.403 . S
C657 H678 0.934 . S
C658 C653 1.413 . S
C658 C657 1.403 . S
C658 H679 0.930 . S
C659 O670 1.275 . S
C659 O671 1.256 . S
O660 Ho640 2.322 . S
O660 C642 1.259 . S
O661 Ho641 2.346 . S
O661 C642 1.268 . S
O662 Ho640 2.378 . S
O662 C643 1.215 . S
O663 Ho640 2.524 . S
O663 C643 1.289 . S
O664 Ho640 2.381 . S
O664 C650 1.275 . S
O665 Ho640 2.669 . S
O665 Ho641 2.305 . S
O665 C650 1.256 . S
O666 Ho641 2.322 . S
O666 C651 1.259 . S
O667 Ho640 2.346 . S
O667 C651 1.268 . S
O668 Ho641 2.378 . S
O668 C652 1.215 . S
O669 Ho641 2.524 . S
O669 C652 1.289 . S
O670 Ho641 2.381 . S
O670 C659 1.275 . S
O671 Ho640 2.305 . S
O671 Ho641 2.669 . S
O671 C659 1.256 . S
H672 C645 0.930 . S
H673 C646 0.931 . S
H674 C648 0.934 . S
H675 C649 0.930 . S
H676 C654 0.930 . S
H677 C655 0.931 . S
H678 C657 0.934 . S
H679 C658 0.930 . S
Ho680 C683 2.811 . S
Ho680 O700 2.322 . S
Ho680 O702 2.378 . S
Ho680 O703 2.524 . S
Ho680 O704 2.381 . S
Ho680 O705 2.669 . S
Ho680 O707 2.346 . S
Ho680 O711 2.305 . S
Ho681 C692 2.811 . S
Ho681 O701 2.346 . S
Ho681 O705 2.305 . S
Ho681 O706 2.322 . S
Ho681 O708 2.378 . S
Ho681 O709 2.524 . S
Ho681 O710 2.381 . S
Ho681 O711 2.669 . S
C682 O700 1.259 . S
C682 O701 1.268 . S
C683 Ho680 2.811 . S
C683 C684 1.488 . S
C683 O702 1.215 . S
C683 O703 1.289 . S
C684 C683 1.488 . S
C684 C685 1.348 . S
C684 C689 1.413 . S
C685 C684 1.348 . S
C685 C686 1.442 . S
C685 H712 0.930 . S
C686 C685 1.442 . S
C686 C687 1.381 . S
C686 H713 0.931 . S
C687 C686 1.381 . S
C687 C688 1.321 . S
C688 C687 1.321 . S
C688 C689 1.403 . S
C688 H714 0.934 . S
C689 C684 1.413 . S
C689 C688 1.403 . S
C689 H715 0.930 . S
C690 O704 1.275 . S
C690 O705 1.256 . S
C691 O706 1.259 . S
C691 O707 1.268 . S
C692 Ho681 2.811 . S
C692 C693 1.488 1_556 S
C692 O708 1.215 . S
C692 O709 1.289 . S
C693 C692 1.488 1_554 S
C693 C694 1.348 . S
C693 C698 1.413 . S
C694 C693 1.348 . S
C694 C695 1.442 . S
C694 H716 0.930 . S
C695 C694 1.442 . S
C695 C696 1.381 . S
C695 H717 0.931 . S
C696 C695 1.381 . S
C696 C697 1.321 . S
C697 C696 1.321 . S
C697 C698 1.403 . S
C697 H718 0.934 . S
C698 C693 1.413 . S
C698 C697 1.403 . S
C698 H719 0.930 . S
C699 O710 1.275 . S
C699 O711 1.256 . S
O700 Ho680 2.322 . S
O700 C682 1.259 . S
O701 Ho681 2.346 . S
O701 C682 1.268 . S
O702 Ho680 2.378 . S
O702 C683 1.215 . S
O703 Ho680 2.524 . S
O703 C683 1.289 . S
O704 Ho680 2.381 . S
O704 C690 1.275 . S
O705 Ho680 2.669 . S
O705 Ho681 2.305 . S
O705 C690 1.256 . S
O706 Ho681 2.322 . S
O706 C691 1.259 . S
O707 Ho680 2.346 . S
O707 C691 1.268 . S
O708 Ho681 2.378 . S
O708 C692 1.215 . S
O709 Ho681 2.524 . S
O709 C692 1.289 . S
O710 Ho681 2.381 . S
O710 C699 1.275 . S
O711 Ho680 2.305 . S
O711 Ho681 2.669 . S
O711 C699 1.256 . S
H712 C685 0.930 . S
H713 C686 0.931 . S
H714 C688 0.934 . S
H715 C689 0.930 . S
H716 C694 0.930 . S
H717 C695 0.931 . S
H718 C697 0.934 . S
H719 C698 0.930 . S
Ho720 C723 2.811 . S
Ho720 O740 2.322 . S
Ho720 O742 2.378 . S
Ho720 O743 2.524 . S
Ho720 O744 2.381 . S
Ho720 O745 2.669 . S
Ho720 O747 2.346 . S
Ho720 O751 2.305 . S
Ho721 C732 2.811 . S
Ho721 O741 2.346 . S
Ho721 O745 2.305 . S
Ho721 O746 2.322 . S
Ho721 O748 2.378 . S
Ho721 O749 2.524 . S
Ho721 O750 2.381 . S
Ho721 O751 2.669 . S
C722 O740 1.259 . S
C722 O741 1.268 . S
C723 Ho720 2.811 . S
C723 C724 1.488 . S
C723 O742 1.215 . S
C723 O743 1.289 . S
C724 C723 1.488 . S
C724 C725 1.348 . S
C724 C729 1.413 . S
C725 C724 1.348 . S
C725 C726 1.442 . S
C725 H752 0.930 . S
C726 C725 1.442 . S
C726 C727 1.381 . S
C726 H753 0.931 . S
C727 C726 1.381 . S
C727 C728 1.321 . S
C728 C727 1.321 . S
C728 C729 1.403 . S
C728 H754 0.934 . S
C729 C724 1.413 . S
C729 C728 1.403 . S
C729 H755 0.930 . S
C730 O744 1.275 . S
C730 O745 1.256 . S
C731 O746 1.259 . S
C731 O747 1.268 . S
C732 Ho721 2.811 . S
C732 C733 1.488 . S
C732 O748 1.215 . S
C732 O749 1.289 . S
C733 C732 1.488 . S
C733 C734 1.348 . S
C733 C738 1.413 . S
C734 C733 1.348 . S
C734 C735 1.442 . S
C734 H756 0.930 . S
C735 C734 1.442 . S
C735 C736 1.381 . S
C735 H757 0.931 . S
C736 C735 1.381 . S
C736 C737 1.321 . S
C737 C736 1.321 . S
C737 C738 1.403 . S
C737 H758 0.934 . S
C738 C733 1.413 . S
C738 C737 1.403 . S
C738 H759 0.930 . S
C739 O750 1.275 . S
C739 O751 1.256 . S
O740 Ho720 2.322 . S
O740 C722 1.259 . S
O741 Ho721 2.346 . S
O741 C722 1.268 . S
O742 Ho720 2.378 . S
O742 C723 1.215 . S
O743 Ho720 2.524 . S
O743 C723 1.289 . S
O744 Ho720 2.381 . S
O744 C730 1.275 . S
O745 Ho720 2.669 . S
O745 Ho721 2.305 . S
O745 C730 1.256 . S
O746 Ho721 2.322 . S
O746 C731 1.259 . S
O747 Ho720 2.346 . S
O747 C731 1.268 . S
O748 Ho721 2.378 . S
O748 C732 1.215 . S
O749 Ho721 2.524 . S
O749 C732 1.289 . S
O750 Ho721 2.381 . S
O750 C739 1.275 . S
O751 Ho720 2.305 . S
O751 Ho721 2.669 . S
O751 C739 1.256 . S
H752 C725 0.930 . S
H753 C726 0.931 . S
H754 C728 0.934 . S
H755 C729 0.930 . S
H756 C734 0.930 . S
H757 C735 0.931 . S
H758 C737 0.934 . S
H759 C738 0.930 . S
Ho760 C763 2.811 . S
Ho760 O780 2.322 . S
Ho760 O782 2.378 . S
Ho760 O783 2.524 . S
Ho760 O784 2.381 . S
Ho760 O785 2.669 . S
Ho760 O787 2.346 . S
Ho760 O791 2.305 . S
Ho761 C772 2.811 . S
Ho761 O781 2.346 . S
Ho761 O785 2.305 . S
Ho761 O786 2.322 . S
Ho761 O788 2.378 . S
Ho761 O789 2.524 . S
Ho761 O790 2.381 . S
Ho761 O791 2.669 . S
C762 O780 1.259 . S
C762 O781 1.268 . S
C763 Ho760 2.811 . S
C763 C764 1.488 . S
C763 O782 1.215 . S
C763 O783 1.289 . S
C764 C763 1.488 . S
C764 C765 1.348 . S
C764 C769 1.413 . S
C765 C764 1.348 . S
C765 C766 1.442 . S
C765 H792 0.930 . S
C766 C765 1.442 . S
C766 C767 1.381 . S
C766 H793 0.931 . S
C767 C766 1.381 . S
C767 C768 1.321 . S
C768 C767 1.321 . S
C768 C769 1.403 . S
C768 H794 0.934 . S
C769 C764 1.413 . S
C769 C768 1.403 . S
C769 H795 0.930 . S
C770 O784 1.275 . S
C770 O785 1.256 . S
C771 O786 1.259 . S
C771 O787 1.268 . S
C772 Ho761 2.811 . S
C772 C773 1.488 . S
C772 O788 1.215 . S
C772 O789 1.289 . S
C773 C772 1.488 . S
C773 C774 1.348 . S
C773 C778 1.413 . S
C774 C773 1.348 . S
C774 C775 1.442 . S
C774 H796 0.930 . S
C775 C774 1.442 . S
C775 C776 1.381 . S
C775 H797 0.931 . S
C776 C775 1.381 . S
C776 C777 1.321 . S
C777 C776 1.321 . S
C777 C778 1.403 . S
C777 H798 0.934 . S
C778 C773 1.413 . S
C778 C777 1.403 . S
C778 H799 0.930 . S
C779 O790 1.275 . S
C779 O791 1.256 . S
O780 Ho760 2.322 . S
O780 C762 1.259 . S
O781 Ho761 2.346 . S
O781 C762 1.268 . S
O782 Ho760 2.378 . S
O782 C763 1.215 . S
O783 Ho760 2.524 . S
O783 C763 1.289 . S
O784 Ho760 2.381 . S
O784 C770 1.275 . S
O785 Ho760 2.669 . S
O785 Ho761 2.305 . S
O785 C770 1.256 . S
O786 Ho761 2.322 . S
O786 C771 1.259 . S
O787 Ho760 2.346 . S
O787 C771 1.268 . S
O788 Ho761 2.378 . S
O788 C772 1.215 . S
O789 Ho761 2.524 . S
O789 C772 1.289 . S
O790 Ho761 2.381 . S
O790 C779 1.275 . S
O791 Ho760 2.305 . S
O791 Ho761 2.669 . S
O791 C779 1.256 . S
H792 C765 0.930 . S
H793 C766 0.931 . S
H794 C768 0.934 . S
H795 C769 0.930 . S
H796 C774 0.930 . S
H797 C775 0.931 . S
H798 C777 0.934 . S
H799 C778 0.930 . S
Ho800 C803 2.811 . S
Ho800 O820 2.322 . S
Ho800 O822 2.378 . S
Ho800 O823 2.524 . S
Ho800 O824 2.381 . S
Ho800 O825 2.669 . S
Ho800 O827 2.346 . S
Ho800 O831 2.305 . S
Ho801 C812 2.811 . S
Ho801 O821 2.346 . S
Ho801 O825 2.305 . S
Ho801 O826 2.322 . S
Ho801 O828 2.378 . S
Ho801 O829 2.524 . S
Ho801 O830 2.381 . S
Ho801 O831 2.669 . S
C802 O820 1.259 . S
C802 O821 1.268 . S
C803 Ho800 2.811 . S
C803 C804 1.488 . S
C803 O822 1.215 . S
C803 O823 1.289 . S
C804 C803 1.488 . S
C804 C805 1.348 . S
C804 C809 1.413 . S
C805 C804 1.348 . S
C805 C806 1.442 . S
C805 H832 0.930 . S
C806 C805 1.442 . S
C806 C807 1.381 . S
C806 H833 0.931 . S
C807 C806 1.381 . S
C807 C808 1.321 . S
C808 C807 1.321 . S
C808 C809 1.403 . S
C808 H834 0.934 . S
C809 C804 1.413 . S
C809 C808 1.403 . S
C809 H835 0.930 . S
C810 O824 1.275 . S
C810 O825 1.256 . S
C811 O826 1.259 . S
C811 O827 1.268 . S
C812 Ho801 2.811 . S
C812 C813 1.488 . S
C812 O828 1.215 . S
C812 O829 1.289 . S
C813 C812 1.488 . S
C813 C814 1.348 . S
C813 C818 1.413 . S
C814 C813 1.348 . S
C814 C815 1.442 . S
C814 H836 0.930 . S
C815 C814 1.442 . S
C815 C816 1.381 . S
C815 H837 0.931 . S
C816 C815 1.381 . S
C816 C817 1.321 . S
C817 C816 1.321 . S
C817 C818 1.403 . S
C817 H838 0.934 . S
C818 C813 1.413 . S
C818 C817 1.403 . S
C818 H839 0.930 . S
C819 O830 1.275 . S
C819 O831 1.256 . S
O820 Ho800 2.322 . S
O820 C802 1.259 . S
O821 Ho801 2.346 . S
O821 C802 1.268 . S
O822 Ho800 2.378 . S
O822 C803 1.215 . S
O823 Ho800 2.524 . S
O823 C803 1.289 . S
O824 Ho800 2.381 . S
O824 C810 1.275 . S
O825 Ho800 2.669 . S
O825 Ho801 2.305 . S
O825 C810 1.256 . S
O826 Ho801 2.322 . S
O826 C811 1.259 . S
O827 Ho800 2.346 . S
O827 C811 1.268 . S
O828 Ho801 2.378 . S
O828 C812 1.215 . S
O829 Ho801 2.524 . S
O829 C812 1.289 . S
O830 Ho801 2.381 . S
O830 C819 1.275 . S
O831 Ho800 2.305 . S
O831 Ho801 2.669 . S
O831 C819 1.256 . S
H832 C805 0.930 . S
H833 C806 0.931 . S
H834 C808 0.934 . S
H835 C809 0.930 . S
H836 C814 0.930 . S
H837 C815 0.931 . S
H838 C817 0.934 . S
H839 C818 0.930 . S
Ho840 C843 2.811 . S
Ho840 O860 2.322 . S
Ho840 O862 2.378 . S
Ho840 O863 2.524 . S
Ho840 O864 2.381 . S
Ho840 O865 2.669 . S
Ho840 O867 2.346 . S
Ho840 O871 2.305 . S
Ho841 C852 2.811 1_556 S
Ho841 O861 2.346 . S
Ho841 O865 2.305 . S
Ho841 O866 2.322 1_556 S
Ho841 O868 2.378 1_556 S
Ho841 O869 2.524 1_556 S
Ho841 O870 2.381 . S
Ho841 O871 2.669 . S
C842 O860 1.259 . S
C842 O861 1.268 . S
C843 Ho840 2.811 . S
C843 C844 1.488 . S
C843 O862 1.215 . S
C843 O863 1.289 . S
C844 C843 1.488 . S
C844 C845 1.348 . S
C844 C849 1.413 . S
C845 C844 1.348 . S
C845 C846 1.442 . S
C845 H872 0.930 . S
C846 C845 1.442 . S
C846 C847 1.381 . S
C846 H873 0.931 . S
C847 C846 1.381 . S
C847 C848 1.321 . S
C848 C847 1.321 . S
C848 C849 1.403 . S
C848 H874 0.934 . S
C849 C844 1.413 . S
C849 C848 1.403 . S
C849 H875 0.930 . S
C850 O864 1.275 . S
C850 O865 1.256 . S
C851 O866 1.259 . S
C851 O867 1.268 1_554 S
C852 Ho841 2.811 1_554 S
C852 C853 1.488 . S
C852 O868 1.215 . S
C852 O869 1.289 . S
C853 C852 1.488 . S
C853 C854 1.348 . S
C853 C858 1.413 . S
C854 C853 1.348 . S
C854 C855 1.442 . S
C854 H876 0.930 . S
C855 C854 1.442 . S
C855 C856 1.381 . S
C855 H877 0.931 . S
C856 C855 1.381 . S
C856 C857 1.321 . S
C857 C856 1.321 . S
C857 C858 1.403 . S
C857 H878 0.934 . S
C858 C853 1.413 . S
C858 C857 1.403 . S
C858 H879 0.930 . S
C859 O870 1.275 . S
C859 O871 1.256 . S
O860 Ho840 2.322 . S
O860 C842 1.259 . S
O861 Ho841 2.346 . S
O861 C842 1.268 . S
O862 Ho840 2.378 . S
O862 C843 1.215 . S
O863 Ho840 2.524 . S
O863 C843 1.289 . S
O864 Ho840 2.381 . S
O864 C850 1.275 . S
O865 Ho840 2.669 . S
O865 Ho841 2.305 . S
O865 C850 1.256 . S
O866 Ho841 2.322 1_554 S
O866 C851 1.259 . S
O867 Ho840 2.346 . S
O867 C851 1.268 1_556 S
O868 Ho841 2.378 1_554 S
O868 C852 1.215 . S
O869 Ho841 2.524 1_554 S
O869 C852 1.289 . S
O870 Ho841 2.381 . S
O870 C859 1.275 . S
O871 Ho840 2.305 . S
O871 Ho841 2.669 . S
O871 C859 1.256 . S
H872 C845 0.930 . S
H873 C846 0.931 . S
H874 C848 0.934 . S
H875 C849 0.930 . S
H876 C854 0.930 . S
H877 C855 0.931 . S
H878 C857 0.934 . S
H879 C858 0.930 . S
Ho880 C883 2.811 . S
Ho880 O900 2.322 . S
Ho880 O902 2.378 . S
Ho880 O903 2.524 . S
Ho880 O904 2.381 . S
Ho880 O905 2.669 . S
Ho880 O907 2.346 . S
Ho880 O911 2.305 . S
Ho881 C892 2.811 1_556 S
Ho881 O901 2.346 . S
Ho881 O905 2.305 . S
Ho881 O906 2.322 1_556 S
Ho881 O908 2.378 1_556 S
Ho881 O909 2.524 1_556 S
Ho881 O910 2.381 . S
Ho881 O911 2.669 . S
C882 O900 1.259 . S
C882 O901 1.268 . S
C883 Ho880 2.811 . S
C883 C884 1.488 . S
C883 O902 1.215 . S
C883 O903 1.289 . S
C884 C883 1.488 . S
C884 C885 1.348 . S
C884 C889 1.413 . S
C885 C884 1.348 . S
C885 C886 1.442 . S
C885 H912 0.930 . S
C886 C885 1.442 . S
C886 C887 1.381 . S
C886 H913 0.931 . S
C887 C886 1.381 . S
C887 C888 1.321 . S
C888 C887 1.321 . S
C888 C889 1.403 . S
C888 H914 0.934 . S
C889 C884 1.413 . S
C889 C888 1.403 . S
C889 H915 0.930 . S
C890 O904 1.275 . S
C890 O905 1.256 . S
C891 O906 1.259 . S
C891 O907 1.268 1_554 S
C892 Ho881 2.811 1_554 S
C892 C893 1.488 . S
C892 O908 1.215 . S
C892 O909 1.289 . S
C893 C892 1.488 . S
C893 C894 1.348 . S
C893 C898 1.413 . S
C894 C893 1.348 . S
C894 C895 1.442 . S
C894 H916 0.930 . S
C895 C894 1.442 . S
C895 C896 1.381 . S
C895 H917 0.931 . S
C896 C895 1.381 . S
C896 C897 1.321 . S
C897 C896 1.321 . S
C897 C898 1.403 . S
C897 H918 0.934 . S
C898 C893 1.413 . S
C898 C897 1.403 . S
C898 H919 0.930 . S
C899 O910 1.275 . S
C899 O911 1.256 . S
O900 Ho880 2.322 . S
O900 C882 1.259 . S
O901 Ho881 2.346 . S
O901 C882 1.268 . S
O902 Ho880 2.378 . S
O902 C883 1.215 . S
O903 Ho880 2.524 . S
O903 C883 1.289 . S
O904 Ho880 2.381 . S
O904 C890 1.275 . S
O905 Ho880 2.669 . S
O905 Ho881 2.305 . S
O905 C890 1.256 . S
O906 Ho881 2.322 1_554 S
O906 C891 1.259 . S
O907 Ho880 2.346 . S
O907 C891 1.268 1_556 S
O908 Ho881 2.378 1_554 S
O908 C892 1.215 . S
O909 Ho881 2.524 1_554 S
O909 C892 1.289 . S
O910 Ho881 2.381 . S
O910 C899 1.275 . S
O911 Ho880 2.305 . S
O911 Ho881 2.669 . S
O911 C899 1.256 . S
H912 C885 0.930 . S
H913 C886 0.931 . S
H914 C888 0.934 . S
H915 C889 0.930 . S
H916 C894 0.930 . S
H917 C895 0.931 . S
H918 C897 0.934 . S
H919 C898 0.930 . S
Ho920 C923 2.811 . S
Ho920 O940 2.322 . S
Ho920 O942 2.378 . S
Ho920 O943 2.524 . S
Ho920 O944 2.381 . S
Ho920 O945 2.669 . S
Ho920 O947 2.346 . S
Ho920 O951 2.305 . S
Ho921 C932 2.811 1_556 S
Ho921 O941 2.346 . S
Ho921 O945 2.305 . S
Ho921 O946 2.322 1_556 S
Ho921 O948 2.378 1_556 S
Ho921 O949 2.524 1_556 S
Ho921 O950 2.381 . S
Ho921 O951 2.669 . S
C922 O940 1.259 . S
C922 O941 1.268 . S
C923 Ho920 2.811 . S
C923 C924 1.488 . S
C923 O942 1.215 . S
C923 O943 1.289 . S
C924 C923 1.488 . S
C924 C925 1.348 . S
C924 C929 1.413 . S
C925 C924 1.348 . S
C925 C926 1.442 . S
C925 H952 0.930 . S
C926 C925 1.442 . S
C926 C927 1.381 . S
C926 H953 0.931 . S
C927 C926 1.381 . S
C927 C928 1.321 . S
C928 C927 1.321 . S
C928 C929 1.403 . S
C928 H954 0.934 . S
C929 C924 1.413 . S
C929 C928 1.403 . S
C929 H955 0.930 . S
C930 O944 1.275 . S
C930 O945 1.256 . S
C931 O946 1.259 . S
C931 O947 1.268 1_554 S
C932 Ho921 2.811 1_554 S
C932 C933 1.488 . S
C932 O948 1.215 . S
C932 O949 1.289 . S
C933 C932 1.488 . S
C933 C934 1.348 . S
C933 C938 1.413 . S
C934 C933 1.348 . S
C934 C935 1.442 . S
C934 H956 0.930 . S
C935 C934 1.442 . S
C935 C936 1.381 . S
C935 H957 0.931 . S
C936 C935 1.381 . S
C936 C937 1.321 . S
C937 C936 1.321 . S
C937 C938 1.403 . S
C937 H958 0.934 . S
C938 C933 1.413 . S
C938 C937 1.403 . S
C938 H959 0.930 . S
C939 O950 1.275 . S
C939 O951 1.256 . S
O940 Ho920 2.322 . S
O940 C922 1.259 . S
O941 Ho921 2.346 . S
O941 C922 1.268 . S
O942 Ho920 2.378 . S
O942 C923 1.215 . S
O943 Ho920 2.524 . S
O943 C923 1.289 . S
O944 Ho920 2.381 . S
O944 C930 1.275 . S
O945 Ho920 2.669 . S
O945 Ho921 2.305 . S
O945 C930 1.256 . S
O946 Ho921 2.322 1_554 S
O946 C931 1.259 . S
O947 Ho920 2.346 . S
O947 C931 1.268 1_556 S
O948 Ho921 2.378 1_554 S
O948 C932 1.215 . S
O949 Ho921 2.524 1_554 S
O949 C932 1.289 . S
O950 Ho921 2.381 . S
O950 C939 1.275 . S
O951 Ho920 2.305 . S
O951 Ho921 2.669 . S
O951 C939 1.256 . S
H952 C925 0.930 . S
H953 C926 0.931 . S
H954 C928 0.934 . S
H955 C929 0.930 . S
H956 C934 0.930 . S
H957 C935 0.931 . S
H958 C937 0.934 . S
H959 C938 0.930 . S
Ho960 C963 2.811 . S
Ho960 O980 2.322 . S
Ho960 O982 2.378 . S
Ho960 O983 2.524 . S
Ho960 O984 2.381 . S
Ho960 O985 2.669 . S
Ho960 O987 2.346 . S
Ho960 O991 2.305 . S
Ho961 C972 2.811 . S
Ho961 O981 2.346 . S
Ho961 O985 2.305 . S
Ho961 O986 2.322 . S
Ho961 O988 2.378 . S
Ho961 O989 2.524 . S
Ho961 O990 2.381 . S
Ho961 O991 2.669 . S
C962 O980 1.259 . S
C962 O981 1.268 . S
C963 Ho960 2.811 . S
C963 C964 1.488 . S
C963 O982 1.215 . S
C963 O983 1.289 . S
C964 C963 1.488 . S
C964 C965 1.348 . S
C964 C969 1.413 . S
C965 C964 1.348 . S
C965 C966 1.442 1_556 S
C965 H992 0.930 . S
C966 C965 1.442 1_554 S
C966 C967 1.381 . S
C966 H993 0.931 . S
C967 C966 1.381 . S
C967 C968 1.321 1_554 S
C968 C967 1.321 1_556 S
C968 C969 1.403 . S
C968 H994 0.934 1_556 S
C969 C964 1.413 . S
C969 C968 1.403 . S
C969 H995 0.930 . S
C970 O984 1.275 . S
C970 O985 1.256 . S
C971 O986 1.259 . S
C971 O987 1.268 . S
C972 Ho961 2.811 . S
C972 C973 1.488 . S
C972 O988 1.215 . S
C972 O989 1.289 . S
C973 C972 1.488 . S
C973 C974 1.348 . S
C973 C978 1.413 . S
C974 C973 1.348 . S
C974 C975 1.442 . S
C974 H996 0.930 . S
C975 C974 1.442 . S
C975 C976 1.381 . S
C975 H997 0.931 . S
C976 C975 1.381 . S
C976 C977 1.321 . S
C977 C976 1.321 . S
C977 C978 1.403 . S
C977 H998 0.934 . S
C978 C973 1.413 . S
C978 C977 1.403 . S
C978 H999 0.930 . S
C979 O990 1.275 . S
C979 O991 1.256 . S
O980 Ho960 2.322 . S
O980 C962 1.259 . S
O981 Ho961 2.346 . S
O981 C962 1.268 . S
O982 Ho960 2.378 . S
O982 C963 1.215 . S
O983 Ho960 2.524 . S
O983 C963 1.289 . S
O984 Ho960 2.381 . S
O984 C970 1.275 . S
O985 Ho960 2.669 . S
O985 Ho961 2.305 . S
O985 C970 1.256 . S
O986 Ho961 2.322 . S
O986 C971 1.259 . S
O987 Ho960 2.346 . S
O987 C971 1.268 . S
O988 Ho961 2.378 . S
O988 C972 1.215 . S
O989 Ho961 2.524 . S
O989 C972 1.289 . S
O990 Ho961 2.381 . S
O990 C979 1.275 . S
O991 Ho960 2.305 . S
O991 Ho961 2.669 . S
O991 C979 1.256 . S
H992 C965 0.930 . S
H993 C966 0.931 . S
H994 C968 0.934 1_554 S
H995 C969 0.930 . S
H996 C974 0.930 . S
H997 C975 0.931 . S
H998 C977 0.934 . S
H999 C978 0.930 . S
Ho1000 C1003 2.811 . S
Ho1000 O1020 2.322 . S
Ho1000 O1022 2.378 . S
Ho1000 O1023 2.524 . S
Ho1000 O1024 2.381 . S
Ho1000 O1025 2.669 . S
Ho1000 O1027 2.346 . S
Ho1000 O1031 2.305 . S
Ho1001 C1012 2.811 . S
Ho1001 O1021 2.346 . S
Ho1001 O1025 2.305 . S
Ho1001 O1026 2.322 . S
Ho1001 O1028 2.378 . S
Ho1001 O1029 2.524 . S
Ho1001 O1030 2.381 . S
Ho1001 O1031 2.669 . S
C1002 O1020 1.259 . S
C1002 O1021 1.268 . S
C1003 Ho1000 2.811 . S
C1003 C1004 1.488 . S
C1003 O1022 1.215 . S
C1003 O1023 1.289 . S
C1004 C1003 1.488 . S
C1004 C1005 1.348 . S
C1004 C1009 1.413 . S
C1005 C1004 1.348 . S
C1005 C1006 1.442 1_556 S
C1005 H1032 0.930 . S
C1006 C1005 1.442 1_554 S
C1006 C1007 1.381 . S
C1006 H1033 0.931 . S
C1007 C1006 1.381 . S
C1007 C1008 1.321 1_554 S
C1008 C1007 1.321 1_556 S
C1008 C1009 1.403 . S
C1008 H1034 0.934 1_556 S
C1009 C1004 1.413 . S
C1009 C1008 1.403 . S
C1009 H1035 0.930 . S
C1010 O1024 1.275 . S
C1010 O1025 1.256 . S
C1011 O1026 1.259 . S
C1011 O1027 1.268 . S
C1012 Ho1001 2.811 . S
C1012 C1013 1.488 . S
C1012 O1028 1.215 . S
C1012 O1029 1.289 . S
C1013 C1012 1.488 . S
C1013 C1014 1.348 . S
C1013 C1018 1.413 . S
C1014 C1013 1.348 . S
C1014 C1015 1.442 . S
C1014 H1036 0.930 . S
C1015 C1014 1.442 . S
C1015 C1016 1.381 . S
C1015 H1037 0.931 . S
C1016 C1015 1.381 . S
C1016 C1017 1.321 . S
C1017 C1016 1.321 . S
C1017 C1018 1.403 . S
C1017 H1038 0.934 . S
C1018 C1013 1.413 . S
C1018 C1017 1.403 . S
C1018 H1039 0.930 . S
C1019 O1030 1.275 . S
C1019 O1031 1.256 . S
O1020 Ho1000 2.322 . S
O1020 C1002 1.259 . S
O1021 Ho1001 2.346 . S
O1021 C1002 1.268 . S
O1022 Ho1000 2.378 . S
O1022 C1003 1.215 . S
O1023 Ho1000 2.524 . S
O1023 C1003 1.289 . S
O1024 Ho1000 2.381 . S
O1024 C1010 1.275 . S
O1025 Ho1000 2.669 . S
O1025 Ho1001 2.305 . S
O1025 C1010 1.256 . S
O1026 Ho1001 2.322 . S
O1026 C1011 1.259 . S
O1027 Ho1000 2.346 . S
O1027 C1011 1.268 . S
O1028 Ho1001 2.378 . S
O1028 C1012 1.215 . S
O1029 Ho1001 2.524 . S
O1029 C1012 1.289 . S
O1030 Ho1001 2.381 . S
O1030 C1019 1.275 . S
O1031 Ho1000 2.305 . S
O1031 Ho1001 2.669 . S
O1031 C1019 1.256 . S
H1032 C1005 0.930 . S
H1033 C1006 0.931 . S
H1034 C1008 0.934 1_554 S
H1035 C1009 0.930 . S
H1036 C1014 0.930 . S
H1037 C1015 0.931 . S
H1038 C1017 0.934 . S
H1039 C1018 0.930 . S
Ho1040 C1043 2.811 . S
Ho1040 O1060 2.322 . S
Ho1040 O1062 2.378 . S
Ho1040 O1063 2.524 . S
Ho1040 O1064 2.381 . S
Ho1040 O1065 2.669 . S
Ho1040 O1067 2.346 . S
Ho1040 O1071 2.305 . S
Ho1041 C1052 2.811 . S
Ho1041 O1061 2.346 . S
Ho1041 O1065 2.305 . S
Ho1041 O1066 2.322 . S
Ho1041 O1068 2.378 . S
Ho1041 O1069 2.524 . S
Ho1041 O1070 2.381 . S
Ho1041 O1071 2.669 . S
C1042 O1060 1.259 . S
C1042 O1061 1.268 . S
C1043 Ho1040 2.811 . S
C1043 C1044 1.488 . S
C1043 O1062 1.215 . S
C1043 O1063 1.289 . S
C1044 C1043 1.488 . S
C1044 C1045 1.348 . S
C1044 C1049 1.413 . S
C1045 C1044 1.348 . S
C1045 C1046 1.442 1_556 S
C1045 H1072 0.930 . S
C1046 C1045 1.442 1_554 S
C1046 C1047 1.381 . S
C1046 H1073 0.931 . S
C1047 C1046 1.381 . S
C1047 C1048 1.321 1_554 S
C1048 C1047 1.321 1_556 S
C1048 C1049 1.403 . S
C1048 H1074 0.934 1_556 S
C1049 C1044 1.413 . S
C1049 C1048 1.403 . S
C1049 H1075 0.930 . S
C1050 O1064 1.275 . S
C1050 O1065 1.256 . S
C1051 O1066 1.259 . S
C1051 O1067 1.268 . S
C1052 Ho1041 2.811 . S
C1052 C1053 1.488 . S
C1052 O1068 1.215 . S
C1052 O1069 1.289 . S
C1053 C1052 1.488 . S
C1053 C1054 1.348 . S
C1053 C1058 1.413 . S
C1054 C1053 1.348 . S
C1054 C1055 1.442 . S
C1054 H1076 0.930 . S
C1055 C1054 1.442 . S
C1055 C1056 1.381 . S
C1055 H1077 0.931 . S
C1056 C1055 1.381 . S
C1056 C1057 1.321 . S
C1057 C1056 1.321 . S
C1057 C1058 1.403 . S
C1057 H1078 0.934 . S
C1058 C1053 1.413 . S
C1058 C1057 1.403 . S
C1058 H1079 0.930 . S
C1059 O1070 1.275 . S
C1059 O1071 1.256 . S
O1060 Ho1040 2.322 . S
O1060 C1042 1.259 . S
O1061 Ho1041 2.346 . S
O1061 C1042 1.268 . S
O1062 Ho1040 2.378 . S
O1062 C1043 1.215 . S
O1063 Ho1040 2.524 . S
O1063 C1043 1.289 . S
O1064 Ho1040 2.381 . S
O1064 C1050 1.275 . S
O1065 Ho1040 2.669 . S
O1065 Ho1041 2.305 . S
O1065 C1050 1.256 . S
O1066 Ho1041 2.322 . S
O1066 C1051 1.259 . S
O1067 Ho1040 2.346 . S
O1067 C1051 1.268 . S
O1068 Ho1041 2.378 . S
O1068 C1052 1.215 . S
O1069 Ho1041 2.524 . S
O1069 C1052 1.289 . S
O1070 Ho1041 2.381 . S
O1070 C1059 1.275 . S
O1071 Ho1040 2.305 . S
O1071 Ho1041 2.669 . S
O1071 C1059 1.256 . S
H1072 C1045 0.930 . S
H1073 C1046 0.931 . S
H1074 C1048 0.934 1_554 S
H1075 C1049 0.930 . S
H1076 C1054 0.930 . S
H1077 C1055 0.931 . S
H1078 C1057 0.934 . S
H1079 C1058 0.930 . S
Ho1080 C1083 2.811 . S
Ho1080 O1100 2.322 . S
Ho1080 O1102 2.378 . S
Ho1080 O1103 2.524 . S
Ho1080 O1104 2.381 . S
Ho1080 O1105 2.669 . S
Ho1080 O1107 2.346 . S
Ho1080 O1111 2.305 . S
Ho1081 C1092 2.811 . S
Ho1081 O1101 2.346 . S
Ho1081 O1105 2.305 . S
Ho1081 O1106 2.322 . S
Ho1081 O1108 2.378 . S
Ho1081 O1109 2.524 . S
Ho1081 O1110 2.381 . S
Ho1081 O1111 2.669 . S
C1082 O1100 1.259 . S
C1082 O1101 1.268 . S
C1083 Ho1080 2.811 . S
C1083 C1084 1.488 . S
C1083 O1102 1.215 . S
C1083 O1103 1.289 . S
C1084 C1083 1.488 . S
C1084 C1085 1.348 1_554 S
C1084 C1089 1.413 1_554 S
C1085 C1084 1.348 1_556 S
C1085 C1086 1.442 . S
C1085 H1112 0.930 . S
C1086 C1085 1.442 . S
C1086 C1087 1.381 . S
C1086 H1113 0.931 . S
C1087 C1086 1.381 . S
C1087 C1088 1.321 . S
C1088 C1087 1.321 . S
C1088 C1089 1.403 . S
C1088 H1114 0.934 . S
C1089 C1084 1.413 1_556 S
C1089 C1088 1.403 . S
C1089 H1115 0.930 1_556 S
C1090 O1104 1.275 . S
C1090 O1105 1.256 . S
C1091 O1106 1.259 . S
C1091 O1107 1.268 . S
C1092 Ho1081 2.811 . S
C1092 C1093 1.488 . S
C1092 O1108 1.215 . S
C1092 O1109 1.289 . S
C1093 C1092 1.488 . S
C1093 C1094 1.348 . S
C1093 C1098 1.413 . S
C1094 C1093 1.348 . S
C1094 C1095 1.442 . S
C1094 H1116 0.930 . S
C1095 C1094 1.442 . S
C1095 C1096 1.381 . S
C1095 H1117 0.931 . S
C1096 C1095 1.381 . S
C1096 C1097 1.321 . S
C1097 C1096 1.321 . S
C1097 C1098 1.403 . S
C1097 H1118 0.934 . S
C1098 C1093 1.413 . S
C1098 C1097 1.403 . S
C1098 H1119 0.930 . S
C1099 O1110 1.275 . S
C1099 O1111 1.256 . S
O1100 Ho1080 2.322 . S
O1100 C1082 1.259 . S
O1101 Ho1081 2.346 . S
O1101 C1082 1.268 . S
O1102 Ho1080 2.378 . S
O1102 C1083 1.215 . S
O1103 Ho1080 2.524 . S
O1103 C1083 1.289 . S
O1104 Ho1080 2.381 . S
O1104 C1090 1.275 . S
O1105 Ho1080 2.669 . S
O1105 Ho1081 2.305 . S
O1105 C1090 1.256 . S
O1106 Ho1081 2.322 . S
O1106 C1091 1.259 . S
O1107 Ho1080 2.346 . S
O1107 C1091 1.268 . S
O1108 Ho1081 2.378 . S
O1108 C1092 1.215 . S
O1109 Ho1081 2.524 . S
O1109 C1092 1.289 . S
O1110 Ho1081 2.381 . S
O1110 C1099 1.275 . S
O1111 Ho1080 2.305 . S
O1111 Ho1081 2.669 . S
O1111 C1099 1.256 . S
H1112 C1085 0.930 . S
H1113 C1086 0.931 . S
H1114 C1088 0.934 . S
H1115 C1089 0.930 1_554 S
H1116 C1094 0.930 . S
H1117 C1095 0.931 . S
H1118 C1097 0.934 . S
H1119 C1098 0.930 . S
Ho1120 C1123 2.811 . S
Ho1120 O1140 2.322 . S
Ho1120 O1142 2.378 . S
Ho1120 O1143 2.524 . S
Ho1120 O1144 2.381 . S
Ho1120 O1145 2.669 . S
Ho1120 O1147 2.346 . S
Ho1120 O1151 2.305 . S
Ho1121 C1132 2.811 . S
Ho1121 O1141 2.346 . S
Ho1121 O1145 2.305 . S
Ho1121 O1146 2.322 . S
Ho1121 O1148 2.378 . S
Ho1121 O1149 2.524 . S
Ho1121 O1150 2.381 . S
Ho1121 O1151 2.669 . S
C1122 O1140 1.259 . S
C1122 O1141 1.268 . S
C1123 Ho1120 2.811 . S
C1123 C1124 1.488 . S
C1123 O1142 1.215 . S
C1123 O1143 1.289 . S
C1124 C1123 1.488 . S
C1124 C1125 1.348 1_554 S
C1124 C1129 1.413 1_554 S
C1125 C1124 1.348 1_556 S
C1125 C1126 1.442 . S
C1125 H1152 0.930 . S
C1126 C1125 1.442 . S
C1126 C1127 1.381 . S
C1126 H1153 0.931 . S
C1127 C1126 1.381 . S
C1127 C1128 1.321 . S
C1128 C1127 1.321 . S
C1128 C1129 1.403 . S
C1128 H1154 0.934 . S
C1129 C1124 1.413 1_556 S
C1129 C1128 1.403 . S
C1129 H1155 0.930 1_556 S
C1130 O1144 1.275 . S
C1130 O1145 1.256 . S
C1131 O1146 1.259 . S
C1131 O1147 1.268 . S
C1132 Ho1121 2.811 . S
C1132 C1133 1.488 . S
C1132 O1148 1.215 . S
C1132 O1149 1.289 . S
C1133 C1132 1.488 . S
C1133 C1134 1.348 . S
C1133 C1138 1.413 . S
C1134 C1133 1.348 . S
C1134 C1135 1.442 . S
C1134 H1156 0.930 . S
C1135 C1134 1.442 . S
C1135 C1136 1.381 . S
C1135 H1157 0.931 . S
C1136 C1135 1.381 . S
C1136 C1137 1.321 . S
C1137 C1136 1.321 . S
C1137 C1138 1.403 . S
C1137 H1158 0.934 . S
C1138 C1133 1.413 . S
C1138 C1137 1.403 . S
C1138 H1159 0.930 . S
C1139 O1150 1.275 . S
C1139 O1151 1.256 . S
O1140 Ho1120 2.322 . S
O1140 C1122 1.259 . S
O1141 Ho1121 2.346 . S
O1141 C1122 1.268 . S
O1142 Ho1120 2.378 . S
O1142 C1123 1.215 . S
O1143 Ho1120 2.524 . S
O1143 C1123 1.289 . S
O1144 Ho1120 2.381 . S
O1144 C1130 1.275 . S
O1145 Ho1120 2.669 . S
O1145 Ho1121 2.305 . S
O1145 C1130 1.256 . S
O1146 Ho1121 2.322 . S
O1146 C1131 1.259 . S
O1147 Ho1120 2.346 . S
O1147 C1131 1.268 . S
O1148 Ho1121 2.378 . S
O1148 C1132 1.215 . S
O1149 Ho1121 2.524 . S
O1149 C1132 1.289 . S
O1150 Ho1121 2.381 . S
O1150 C1139 1.275 . S
O1151 Ho1120 2.305 . S
O1151 Ho1121 2.669 . S
O1151 C1139 1.256 . S
H1152 C1125 0.930 . S
H1153 C1126 0.931 . S
H1154 C1128 0.934 . S
H1155 C1129 0.930 1_554 S
H1156 C1134 0.930 . S
H1157 C1135 0.931 . S
H1158 C1137 0.934 . S
H1159 C1138 0.930 . S
Ho1160 C1163 2.811 . S
Ho1160 O1180 2.322 . S
Ho1160 O1182 2.378 . S
Ho1160 O1183 2.524 . S
Ho1160 O1184 2.381 . S
Ho1160 O1185 2.669 . S
Ho1160 O1187 2.346 . S
Ho1160 O1191 2.305 . S
Ho1161 C1172 2.811 . S
Ho1161 O1181 2.346 . S
Ho1161 O1185 2.305 . S
Ho1161 O1186 2.322 . S
Ho1161 O1188 2.378 . S
Ho1161 O1189 2.524 . S
Ho1161 O1190 2.381 . S
Ho1161 O1191 2.669 . S
C1162 O1180 1.259 . S
C1162 O1181 1.268 . S
C1163 Ho1160 2.811 . S
C1163 C1164 1.488 . S
C1163 O1182 1.215 . S
C1163 O1183 1.289 . S
C1164 C1163 1.488 . S
C1164 C1165 1.348 1_554 S
C1164 C1169 1.413 1_554 S
C1165 C1164 1.348 1_556 S
C1165 C1166 1.442 . S
C1165 H1192 0.930 . S
C1166 C1165 1.442 . S
C1166 C1167 1.381 . S
C1166 H1193 0.931 . S
C1167 C1166 1.381 . S
C1167 C1168 1.321 . S
C1168 C1167 1.321 . S
C1168 C1169 1.403 . S
C1168 H1194 0.934 . S
C1169 C1164 1.413 1_556 S
C1169 C1168 1.403 . S
C1169 H1195 0.930 1_556 S
C1170 O1184 1.275 . S
C1170 O1185 1.256 . S
C1171 O1186 1.259 . S
C1171 O1187 1.268 . S
C1172 Ho1161 2.811 . S
C1172 C1173 1.488 . S
C1172 O1188 1.215 . S
C1172 O1189 1.289 . S
C1173 C1172 1.488 . S
C1173 C1174 1.348 . S
C1173 C1178 1.413 . S
C1174 C1173 1.348 . S
C1174 C1175 1.442 . S
C1174 H1196 0.930 . S
C1175 C1174 1.442 . S
C1175 C1176 1.381 . S
C1175 H1197 0.931 . S
C1176 C1175 1.381 . S
C1176 C1177 1.321 . S
C1177 C1176 1.321 . S
C1177 C1178 1.403 . S
C1177 H1198 0.934 . S
C1178 C1173 1.413 . S
C1178 C1177 1.403 . S
C1178 H1199 0.930 . S
C1179 O1190 1.275 . S
C1179 O1191 1.256 . S
O1180 Ho1160 2.322 . S
O1180 C1162 1.259 . S
O1181 Ho1161 2.346 . S
O1181 C1162 1.268 . S
O1182 Ho1160 2.378 . S
O1182 C1163 1.215 . S
O1183 Ho1160 2.524 . S
O1183 C1163 1.289 . S
O1184 Ho1160 2.381 . S
O1184 C1170 1.275 . S
O1185 Ho1160 2.669 . S
O1185 Ho1161 2.305 . S
O1185 C1170 1.256 . S
O1186 Ho1161 2.322 . S
O1186 C1171 1.259 . S
O1187 Ho1160 2.346 . S
O1187 C1171 1.268 . S
O1188 Ho1161 2.378 . S
O1188 C1172 1.215 . S
O1189 Ho1161 2.524 . S
O1189 C1172 1.289 . S
O1190 Ho1161 2.381 . S
O1190 C1179 1.275 . S
O1191 Ho1160 2.305 . S
O1191 Ho1161 2.669 . S
O1191 C1179 1.256 . S
H1192 C1165 0.930 . S
H1193 C1166 0.931 . S
H1194 C1168 0.934 . S
H1195 C1169 0.930 1_554 S
H1196 C1174 0.930 . S
H1197 C1175 0.931 . S
H1198 C1177 0.934 . S
H1199 C1178 0.930 . S
Ho1200 C1203 2.811 . S
Ho1200 O1220 2.322 . S
Ho1200 O1222 2.378 . S
Ho1200 O1223 2.524 . S
Ho1200 O1224 2.381 . S
Ho1200 O1225 2.669 . S
Ho1200 O1227 2.346 . S
Ho1200 O1231 2.305 . S
Ho1201 C1212 2.811 . S
Ho1201 O1221 2.346 . S
Ho1201 O1225 2.305 . S
Ho1201 O1226 2.322 . S
Ho1201 O1228 2.378 . S
Ho1201 O1229 2.524 . S
Ho1201 O1230 2.381 . S
Ho1201 O1231 2.669 . S
C1202 O1220 1.259 . S
C1202 O1221 1.268 . S
C1203 Ho1200 2.811 . S
C1203 C1204 1.488 . S
C1203 O1222 1.215 . S
C1203 O1223 1.289 . S
C1204 C1203 1.488 . S
C1204 C1205 1.348 . S
C1204 C1209 1.413 . S
C1205 C1204 1.348 . S
C1205 C1206 1.442 . S
C1205 H1232 0.930 . S
C1206 C1205 1.442 . S
C1206 C1207 1.381 . S
C1206 H1233 0.931 . S
C1207 C1206 1.381 . S
C1207 C1208 1.321 . S
C1208 C1207 1.321 . S
C1208 C1209 1.403 . S
C1208 H1234 0.934 . S
C1209 C1204 1.413 . S
C1209 C1208 1.403 . S
C1209 H1235 0.930 . S
C1210 O1224 1.275 . S
C1210 O1225 1.256 . S
C1211 O1226 1.259 . S
C1211 O1227 1.268 . S
C1212 Ho1201 2.811 . S
C1212 C1213 1.488 . S
C1212 O1228 1.215 . S
C1212 O1229 1.289 . S
C1213 C1212 1.488 . S
C1213 C1214 1.348 . S
C1213 C1218 1.413 . S
C1214 C1213 1.348 . S
C1214 C1215 1.442 . S
C1214 H1236 0.930 . S
C1215 C1214 1.442 . S
C1215 C1216 1.381 . S
C1215 H1237 0.931 . S
C1216 C1215 1.381 . S
C1216 C1217 1.321 . S
C1217 C1216 1.321 . S
C1217 C1218 1.403 . S
C1217 H1238 0.934 . S
C1218 C1213 1.413 . S
C1218 C1217 1.403 . S
C1218 H1239 0.930 . S
C1219 O1230 1.275 . S
C1219 O1231 1.256 . S
O1220 Ho1200 2.322 . S
O1220 C1202 1.259 . S
O1221 Ho1201 2.346 . S
O1221 C1202 1.268 . S
O1222 Ho1200 2.378 . S
O1222 C1203 1.215 . S
O1223 Ho1200 2.524 . S
O1223 C1203 1.289 . S
O1224 Ho1200 2.381 . S
O1224 C1210 1.275 . S
O1225 Ho1200 2.669 . S
O1225 Ho1201 2.305 . S
O1225 C1210 1.256 . S
O1226 Ho1201 2.322 . S
O1226 C1211 1.259 . S
O1227 Ho1200 2.346 . S
O1227 C1211 1.268 . S
O1228 Ho1201 2.378 . S
O1228 C1212 1.215 . S
O1229 Ho1201 2.524 . S
O1229 C1212 1.289 . S
O1230 Ho1201 2.381 . S
O1230 C1219 1.275 . S
O1231 Ho1200 2.305 . S
O1231 Ho1201 2.669 . S
O1231 C1219 1.256 . S
H1232 C1205 0.930 . S
H1233 C1206 0.931 . S
H1234 C1208 0.934 . S
H1235 C1209 0.930 . S
H1236 C1214 0.930 . S
H1237 C1215 0.931 . S
H1238 C1217 0.934 . S
H1239 C1218 0.930 . S
Ho1240 C1243 2.811 . S
Ho1240 O1260 2.322 . S
Ho1240 O1262 2.378 . S
Ho1240 O1263 2.524 . S
Ho1240 O1264 2.381 . S
Ho1240 O1265 2.669 . S
Ho1240 O1267 2.346 . S
Ho1240 O1271 2.305 . S
Ho1241 C1252 2.811 . S
Ho1241 O1261 2.346 . S
Ho1241 O1265 2.305 . S
Ho1241 O1266 2.322 . S
Ho1241 O1268 2.378 . S
Ho1241 O1269 2.524 . S
Ho1241 O1270 2.381 . S
Ho1241 O1271 2.669 . S
C1242 O1260 1.259 . S
C1242 O1261 1.268 . S
C1243 Ho1240 2.811 . S
C1243 C1244 1.488 . S
C1243 O1262 1.215 . S
C1243 O1263 1.289 . S
C1244 C1243 1.488 . S
C1244 C1245 1.348 . S
C1244 C1249 1.413 . S
C1245 C1244 1.348 . S
C1245 C1246 1.442 . S
C1245 H1272 0.930 . S
C1246 C1245 1.442 . S
C1246 C1247 1.381 . S
C1246 H1273 0.931 . S
C1247 C1246 1.381 . S
C1247 C1248 1.321 . S
C1248 C1247 1.321 . S
C1248 C1249 1.403 . S
C1248 H1274 0.934 . S
C1249 C1244 1.413 . S
C1249 C1248 1.403 . S
C1249 H1275 0.930 . S
C1250 O1264 1.275 . S
C1250 O1265 1.256 . S
C1251 O1266 1.259 . S
C1251 O1267 1.268 . S
C1252 Ho1241 2.811 . S
C1252 C1253 1.488 . S
C1252 O1268 1.215 . S
C1252 O1269 1.289 . S
C1253 C1252 1.488 . S
C1253 C1254 1.348 . S
C1253 C1258 1.413 . S
C1254 C1253 1.348 . S
C1254 C1255 1.442 . S
C1254 H1276 0.930 . S
C1255 C1254 1.442 . S
C1255 C1256 1.381 . S
C1255 H1277 0.931 . S
C1256 C1255 1.381 . S
C1256 C1257 1.321 . S
C1257 C1256 1.321 . S
C1257 C1258 1.403 . S
C1257 H1278 0.934 . S
C1258 C1253 1.413 . S
C1258 C1257 1.403 . S
C1258 H1279 0.930 . S
C1259 O1270 1.275 . S
C1259 O1271 1.256 . S
O1260 Ho1240 2.322 . S
O1260 C1242 1.259 . S
O1261 Ho1241 2.346 . S
O1261 C1242 1.268 . S
O1262 Ho1240 2.378 . S
O1262 C1243 1.215 . S
O1263 Ho1240 2.524 . S
O1263 C1243 1.289 . S
O1264 Ho1240 2.381 . S
O1264 C1250 1.275 . S
O1265 Ho1240 2.669 . S
O1265 Ho1241 2.305 . S
O1265 C1250 1.256 . S
O1266 Ho1241 2.322 . S
O1266 C1251 1.259 . S
O1267 Ho1240 2.346 . S
O1267 C1251 1.268 . S
O1268 Ho1241 2.378 . S
O1268 C1252 1.215 . S
O1269 Ho1241 2.524 . S
O1269 C1252 1.289 . S
O1270 Ho1241 2.381 . S
O1270 C1259 1.275 . S
O1271 Ho1240 2.305 . S
O1271 Ho1241 2.669 . S
O1271 C1259 1.256 . S
H1272 C1245 0.930 . S
H1273 C1246 0.931 . S
H1274 C1248 0.934 . S
H1275 C1249 0.930 . S
H1276 C1254 0.930 . S
H1277 C1255 0.931 . S
H1278 C1257 0.934 . S
H1279 C1258 0.930 . S
Ho1280 C1283 2.811 . S
Ho1280 O1300 2.322 . S
Ho1280 O1302 2.378 . S
Ho1280 O1303 2.524 . S
Ho1280 O1304 2.381 . S
Ho1280 O1305 2.669 . S
Ho1280 O1307 2.346 . S
Ho1280 O1311 2.305 . S
Ho1281 C1292 2.811 . S
Ho1281 O1301 2.346 . S
Ho1281 O1305 2.305 . S
Ho1281 O1306 2.322 . S
Ho1281 O1308 2.378 . S
Ho1281 O1309 2.524 . S
Ho1281 O1310 2.381 . S
Ho1281 O1311 2.669 . S
C1282 O1300 1.259 . S
C1282 O1301 1.268 . S
C1283 Ho1280 2.811 . S
C1283 C1284 1.488 . S
C1283 O1302 1.215 . S
C1283 O1303 1.289 . S
C1284 C1283 1.488 . S
C1284 C1285 1.348 . S
C1284 C1289 1.413 . S
C1285 C1284 1.348 . S
C1285 C1286 1.442 . S
C1285 H1312 0.930 . S
C1286 C1285 1.442 . S
C1286 C1287 1.381 . S
C1286 H1313 0.931 . S
C1287 C1286 1.381 . S
C1287 C1288 1.321 . S
C1288 C1287 1.321 . S
C1288 C1289 1.403 . S
C1288 H1314 0.934 . S
C1289 C1284 1.413 . S
C1289 C1288 1.403 . S
C1289 H1315 0.930 . S
C1290 O1304 1.275 . S
C1290 O1305 1.256 . S
C1291 O1306 1.259 . S
C1291 O1307 1.268 . S
C1292 Ho1281 2.811 . S
C1292 C1293 1.488 . S
C1292 O1308 1.215 . S
C1292 O1309 1.289 . S
C1293 C1292 1.488 . S
C1293 C1294 1.348 . S
C1293 C1298 1.413 . S
C1294 C1293 1.348 . S
C1294 C1295 1.442 . S
C1294 H1316 0.930 . S
C1295 C1294 1.442 . S
C1295 C1296 1.381 . S
C1295 H1317 0.931 . S
C1296 C1295 1.381 . S
C1296 C1297 1.321 . S
C1297 C1296 1.321 . S
C1297 C1298 1.403 . S
C1297 H1318 0.934 . S
C1298 C1293 1.413 . S
C1298 C1297 1.403 . S
C1298 H1319 0.930 . S
C1299 O1310 1.275 . S
C1299 O1311 1.256 . S
O1300 Ho1280 2.322 . S
O1300 C1282 1.259 . S
O1301 Ho1281 2.346 . S
O1301 C1282 1.268 . S
O1302 Ho1280 2.378 . S
O1302 C1283 1.215 . S
O1303 Ho1280 2.524 . S
O1303 C1283 1.289 . S
O1304 Ho1280 2.381 . S
O1304 C1290 1.275 . S
O1305 Ho1280 2.669 . S
O1305 Ho1281 2.305 . S
O1305 C1290 1.256 . S
O1306 Ho1281 2.322 . S
O1306 C1291 1.259 . S
O1307 Ho1280 2.346 . S
O1307 C1291 1.268 . S
O1308 Ho1281 2.378 . S
O1308 C1292 1.215 . S
O1309 Ho1281 2.524 . S
O1309 C1292 1.289 . S
O1310 Ho1281 2.381 . S
O1310 C1299 1.275 . S
O1311 Ho1280 2.305 . S
O1311 Ho1281 2.669 . S
O1311 C1299 1.256 . S
H1312 C1285 0.930 . S
H1313 C1286 0.931 . S
H1314 C1288 0.934 . S
H1315 C1289 0.930 . S
H1316 C1294 0.930 . S
H1317 C1295 0.931 . S
H1318 C1297 0.934 . S
H1319 C1298 0.930 . S
Ho1320 C1323 2.811 . S
Ho1320 O1340 2.322 . S
Ho1320 O1342 2.378 . S
Ho1320 O1343 2.524 . S
Ho1320 O1344 2.381 . S
Ho1320 O1345 2.669 . S
Ho1320 O1347 2.346 . S
Ho1320 O1351 2.305 . S
Ho1321 C1332 2.811 . S
Ho1321 O1341 2.346 . S
Ho1321 O1345 2.305 . S
Ho1321 O1346 2.322 . S
Ho1321 O1348 2.378 . S
Ho1321 O1349 2.524 . S
Ho1321 O1350 2.381 . S
Ho1321 O1351 2.669 . S
C1322 O1340 1.259 . S
C1322 O1341 1.268 . S
C1323 Ho1320 2.811 . S
C1323 C1324 1.488 . S
C1323 O1342 1.215 . S
C1323 O1343 1.289 . S
C1324 C1323 1.488 . S
C1324 C1325 1.348 . S
C1324 C1329 1.413 . S
C1325 C1324 1.348 . S
C1325 C1326 1.442 . S
C1325 H1352 0.930 . S
C1326 C1325 1.442 . S
C1326 C1327 1.381 . S
C1326 H1353 0.943 . S
C1327 C1326 1.381 . S
C1327 C1328 1.321 . S
C1328 C1327 1.321 . S
C1328 C1329 1.403 . S
C1328 H1354 0.934 . S
C1329 C1324 1.413 . S
C1329 C1328 1.403 . S
C1329 H1355 0.930 . S
C1330 O1344 1.275 . S
C1330 O1345 1.256 . S
C1331 O1346 1.259 . S
C1331 O1347 1.268 . S
C1332 Ho1321 2.811 . S
C1332 C1333 1.488 . S
C1332 O1348 1.215 . S
C1332 O1349 1.289 . S
C1333 C1332 1.488 . S
C1333 C1334 1.348 . S
C1333 C1338 1.413 . S
C1334 C1333 1.348 . S
C1334 C1335 1.442 . S
C1334 H1356 0.930 . S
C1335 C1334 1.442 . S
C1335 C1336 1.381 . S
C1335 H1357 0.931 . S
C1336 C1335 1.381 . S
C1336 C1337 1.321 . S
C1337 C1336 1.321 . S
C1337 C1338 1.403 . S
C1337 H1358 0.934 . S
C1338 C1333 1.413 . S
C1338 C1337 1.403 . S
C1338 H1359 0.930 . S
C1339 O1350 1.275 . S
C1339 O1351 1.256 . S
O1340 Ho1320 2.322 . S
O1340 C1322 1.259 . S
O1341 Ho1321 2.346 . S
O1341 C1322 1.268 . S
O1342 Ho1320 2.378 . S
O1342 C1323 1.215 . S
O1343 Ho1320 2.524 . S
O1343 C1323 1.289 . S
O1344 Ho1320 2.381 . S
O1344 C1330 1.275 . S
O1345 Ho1320 2.669 . S
O1345 Ho1321 2.305 . S
O1345 C1330 1.256 . S
O1346 Ho1321 2.322 . S
O1346 C1331 1.259 . S
O1347 Ho1320 2.346 . S
O1347 C1331 1.268 . S
O1348 Ho1321 2.378 . S
O1348 C1332 1.215 . S
O1349 Ho1321 2.524 . S
O1349 C1332 1.289 . S
O1350 Ho1321 2.381 . S
O1350 C1339 1.275 . S
O1351 Ho1320 2.305 . S
O1351 Ho1321 2.669 . S
O1351 C1339 1.256 . S
H1352 C1325 0.930 . S
H1353 C1326 0.943 . S
H1354 C1328 0.934 . S
H1355 C1329 0.930 . S
H1356 C1334 0.930 . S
H1357 C1335 0.931 . S
H1358 C1337 0.934 . S
H1359 C1338 0.930 . S
Ho1360 C1363 2.811 . S
Ho1360 O1380 2.322 . S
Ho1360 O1382 2.378 . S
Ho1360 O1383 2.524 . S
Ho1360 O1384 2.381 . S
Ho1360 O1385 2.669 . S
Ho1360 O1387 2.346 . S
Ho1360 O1391 2.305 . S
Ho1361 C1372 2.811 . S
Ho1361 O1381 2.346 . S
Ho1361 O1385 2.305 . S
Ho1361 O1386 2.322 . S
Ho1361 O1388 2.378 . S
Ho1361 O1389 2.524 . S
Ho1361 O1390 2.381 . S
Ho1361 O1391 2.669 . S
C1362 O1380 1.259 . S
C1362 O1381 1.268 . S
C1363 Ho1360 2.811 . S
C1363 C1364 1.488 . S
C1363 O1382 1.215 . S
C1363 O1383 1.289 . S
C1364 C1363 1.488 . S
C1364 C1365 1.348 . S
C1364 C1369 1.413 . S
C1365 C1364 1.348 . S
C1365 C1366 1.442 . S
C1365 H1392 0.930 . S
C1366 C1365 1.442 . S
C1366 C1367 1.381 . S
C1366 H1393 0.942 . S
C1367 C1366 1.381 . S
C1367 C1368 1.321 . S
C1368 C1367 1.321 . S
C1368 C1369 1.403 . S
C1368 H1394 0.934 . S
C1369 C1364 1.413 . S
C1369 C1368 1.403 . S
C1369 H1395 0.930 . S
C1370 O1384 1.275 . S
C1370 O1385 1.256 . S
C1371 O1386 1.259 . S
C1371 O1387 1.268 . S
C1372 Ho1361 2.811 . S
C1372 C1373 1.488 . S
C1372 O1388 1.215 . S
C1372 O1389 1.289 . S
C1373 C1372 1.488 . S
C1373 C1374 1.348 . S
C1373 C1378 1.413 . S
C1374 C1373 1.348 . S
C1374 C1375 1.442 . S
C1374 H1396 0.930 . S
C1375 C1374 1.442 . S
C1375 C1376 1.381 . S
C1375 H1397 0.931 . S
C1376 C1375 1.381 . S
C1376 C1377 1.321 . S
C1377 C1376 1.321 . S
C1377 C1378 1.403 . S
C1377 H1398 0.934 . S
C1378 C1373 1.413 . S
C1378 C1377 1.403 . S
C1378 H1399 0.930 . S
C1379 O1390 1.275 . S
C1379 O1391 1.256 . S
O1380 Ho1360 2.322 . S
O1380 C1362 1.259 . S
O1381 Ho1361 2.346 . S
O1381 C1362 1.268 . S
O1382 Ho1360 2.378 . S
O1382 C1363 1.215 . S
O1383 Ho1360 2.524 . S
O1383 C1363 1.289 . S
O1384 Ho1360 2.381 . S
O1384 C1370 1.275 . S
O1385 Ho1360 2.669 . S
O1385 Ho1361 2.305 . S
O1385 C1370 1.256 . S
O1386 Ho1361 2.322 . S
O1386 C1371 1.259 . S
O1387 Ho1360 2.346 . S
O1387 C1371 1.268 . S
O1388 Ho1361 2.378 . S
O1388 C1372 1.215 . S
O1389 Ho1361 2.524 . S
O1389 C1372 1.289 . S
O1390 Ho1361 2.381 . S
O1390 C1379 1.275 . S
O1391 Ho1360 2.305 . S
O1391 Ho1361 2.669 . S
O1391 C1379 1.256 . S
H1392 C1365 0.930 . S
H1393 C1366 0.942 . S
H1394 C1368 0.934 . S
H1395 C1369 0.930 . S
H1396 C1374 0.930 . S
H1397 C1375 0.931 . S
H1398 C1377 0.934 . S
H1399 C1378 0.930 . S
Ho1400 C1403 2.811 . S
Ho1400 O1420 2.322 . S
Ho1400 O1422 2.378 . S
Ho1400 O1423 2.524 . S
Ho1400 O1424 2.381 . S
Ho1400 O1425 2.669 . S
Ho1400 O1427 2.346 . S
Ho1400 O1431 2.305 . S
Ho1401 C1412 2.811 . S
Ho1401 O1421 2.346 . S
Ho1401 O1425 2.305 . S
Ho1401 O1426 2.322 . S
Ho1401 O1428 2.378 . S
Ho1401 O1429 2.524 . S
Ho1401 O1430 2.381 . S
Ho1401 O1431 2.669 . S
C1402 O1420 1.259 . S
C1402 O1421 1.268 . S
C1403 Ho1400 2.811 . S
C1403 C1404 1.488 . S
C1403 O1422 1.215 . S
C1403 O1423 1.289 . S
C1404 C1403 1.488 . S
C1404 C1405 1.348 . S
C1404 C1409 1.413 . S
C1405 C1404 1.348 . S
C1405 C1406 1.442 . S
C1405 H1432 0.930 . S
C1406 C1405 1.442 . S
C1406 C1407 1.381 . S
C1406 H1433 0.942 . S
C1407 C1406 1.381 . S
C1407 C1408 1.321 . S
C1408 C1407 1.321 . S
C1408 C1409 1.403 . S
C1408 H1434 0.934 . S
C1409 C1404 1.413 . S
C1409 C1408 1.403 . S
C1409 H1435 0.930 . S
C1410 O1424 1.275 . S
C1410 O1425 1.256 . S
C1411 O1426 1.259 . S
C1411 O1427 1.268 . S
C1412 Ho1401 2.811 . S
C1412 C1413 1.488 . S
C1412 O1428 1.215 . S
C1412 O1429 1.289 . S
C1413 C1412 1.488 . S
C1413 C1414 1.348 . S
C1413 C1418 1.413 . S
C1414 C1413 1.348 . S
C1414 C1415 1.442 . S
C1414 H1436 0.930 . S
C1415 C1414 1.442 . S
C1415 C1416 1.381 . S
C1415 H1437 0.931 . S
C1416 C1415 1.381 . S
C1416 C1417 1.321 . S
C1417 C1416 1.321 . S
C1417 C1418 1.403 . S
C1417 H1438 0.934 . S
C1418 C1413 1.413 . S
C1418 C1417 1.403 . S
C1418 H1439 0.930 . S
C1419 O1430 1.275 . S
C1419 O1431 1.256 . S
O1420 Ho1400 2.322 . S
O1420 C1402 1.259 . S
O1421 Ho1401 2.346 . S
O1421 C1402 1.268 . S
O1422 Ho1400 2.378 . S
O1422 C1403 1.215 . S
O1423 Ho1400 2.524 . S
O1423 C1403 1.289 . S
O1424 Ho1400 2.381 . S
O1424 C1410 1.275 . S
O1425 Ho1400 2.669 . S
O1425 Ho1401 2.305 . S
O1425 C1410 1.256 . S
O1426 Ho1401 2.322 . S
O1426 C1411 1.259 . S
O1427 Ho1400 2.346 . S
O1427 C1411 1.268 . S
O1428 Ho1401 2.378 . S
O1428 C1412 1.215 . S
O1429 Ho1401 2.524 . S
O1429 C1412 1.289 . S
O1430 Ho1401 2.381 . S
O1430 C1419 1.275 . S
O1431 Ho1400 2.305 . S
O1431 Ho1401 2.669 . S
O1431 C1419 1.256 . S
H1432 C1405 0.930 . S
H1433 C1406 0.942 . S
H1434 C1408 0.934 . S
H1435 C1409 0.930 . S
H1436 C1414 0.930 . S
H1437 C1415 0.931 . S
H1438 C1417 0.934 . S
H1439 C1418 0.930 . S
C1440 C1441 1.363 . S
C1440 C1446 1.379 . S
C1440 N1448 1.356 . S
C1441 C1440 1.363 . S
C1441 C1447 1.363 . S
C1442 C1443 1.363 1_556 S
C1442 C1447 1.379 . S
C1442 N1449 1.356 1_556 S
C1443 C1442 1.363 1_554 S
C1443 C1446 1.363 1_554 S
N1444 C1446 1.356 1_554 S
N1444 H1456 0.984 . S
N1444 H1457 0.985 . S
N1445 C1447 1.356 . S
N1445 H1450 0.984 . S
N1445 H1451 0.985 . S
C1446 C1440 1.379 . S
C1446 C1443 1.363 1_556 S
C1446 N1444 1.356 1_556 S
C1447 C1441 1.363 . S
C1447 C1442 1.379 . S
C1447 N1445 1.356 . S
N1448 C1440 1.356 . S
N1448 H1454 0.984 . S
N1448 H1455 0.984 . S
N1449 C1442 1.356 1_554 S
N1449 H1452 0.984 . S
N1449 H1453 0.985 . S
H1450 N1445 0.984 . S
H1451 N1445 0.985 . S
H1452 N1449 0.984 . S
H1453 N1449 0.985 . S
H1454 N1448 0.984 . S
H1455 N1448 0.984 . S
H1456 N1444 0.984 . S
H1457 N1444 0.985 . S
C1458 C1459 1.363 . S
C1458 C1464 1.379 . S
C1458 N1466 1.356 . S
C1459 C1458 1.363 . S
C1459 C1465 1.363 . S
C1460 C1461 1.363 1_556 S
C1460 C1465 1.379 . S
C1460 N1467 1.356 1_556 S
C1461 C1460 1.363 1_554 S
C1461 C1464 1.363 1_554 S
N1462 C1464 1.356 1_554 S
N1462 H1474 0.984 1_554 S
N1462 H1475 0.985 . S
N1463 C1465 1.356 . S
N1463 H1468 0.984 . S
N1463 H1469 0.985 . S
C1464 C1458 1.379 . S
C1464 C1461 1.363 1_556 S
C1464 N1462 1.356 1_556 S
C1465 C1459 1.363 . S
C1465 C1460 1.379 . S
C1465 N1463 1.356 . S
N1466 C1458 1.356 . S
N1466 H1472 0.984 . S
N1466 H1473 0.984 . S
N1467 C1460 1.356 1_554 S
N1467 H1470 0.984 . S
N1467 H1471 0.985 . S
H1468 N1463 0.984 . S
H1469 N1463 0.985 . S
H1470 N1467 0.984 . S
H1471 N1467 0.985 . S
H1472 N1466 0.984 . S
H1473 N1466 0.984 . S
H1474 N1462 0.984 1_556 S
H1475 N1462 0.985 . S
C1476 C1477 1.363 1_556 S
C1476 C1482 1.379 . S
C1476 N1484 1.356 1_556 S
C1477 C1476 1.363 1_554 S
C1477 C1483 1.363 1_554 S
C1478 C1479 1.363 . S
C1478 C1483 1.379 . S
C1478 N1485 1.356 . S
C1479 C1478 1.363 . S
C1479 C1482 1.363 . S
N1480 C1482 1.356 . S
N1480 H1492 0.984 . S
N1480 H1493 0.985 . S
N1481 C1483 1.356 1_554 S
N1481 H1486 0.984 . S
N1481 H1487 0.985 . S
C1482 C1476 1.379 . S
C1482 C1479 1.363 . S
C1482 N1480 1.356 . S
C1483 C1477 1.363 1_556 S
C1483 C1478 1.379 . S
C1483 N1481 1.356 1_556 S
N1484 C1476 1.356 1_554 S
N1484 H1490 0.984 . S
N1484 H1491 0.984 . S
N1485 C1478 1.356 . S
N1485 H1488 0.984 . S
N1485 H1489 0.985 . S
H1486 N1481 0.984 . S
H1487 N1481 0.985 . S
H1488 N1485 0.984 . S
H1489 N1485 0.985 . S
H1490 N1484 0.984 . S
H1491 N1484 0.984 . S
H1492 N1480 0.984 . S
H1493 N1480 0.985 . S
C1494 C1495 1.363 . S
C1494 C1500 1.379 . S
C1494 N1502 1.356 . S
C1495 C1494 1.363 . S
C1495 C1501 1.363 . S
C1496 C1497 1.363 . S
C1496 C1501 1.379 . S
C1496 N1503 1.356 . S
C1497 C1496 1.363 . S
C1497 C1500 1.363 . S
N1498 C1500 1.356 . S
N1498 H1510 0.984 . S
N1498 H1511 0.985 . S
N1499 C1501 1.356 . S
N1499 H1504 0.984 . S
N1499 H1505 0.985 . S
C1500 C1494 1.379 . S
C1500 C1497 1.363 . S
C1500 N1498 1.356 . S
C1501 C1495 1.363 . S
C1501 C1496 1.379 . S
C1501 N1499 1.356 . S
N1502 C1494 1.356 . S
N1502 H1508 0.984 . S
N1502 H1509 0.984 . S
N1503 C1496 1.356 . S
N1503 H1506 0.984 . S
N1503 H1507 0.985 . S
H1504 N1499 0.984 . S
H1505 N1499 0.985 . S
H1506 N1503 0.984 . S
H1507 N1503 0.985 . S
H1508 N1502 0.984 . S
H1509 N1502 0.984 . S
H1510 N1498 0.984 . S
H1511 N1498 0.985 . S
C1512 C1513 1.363 . S
C1512 C1518 1.379 . S
C1512 N1520 1.356 . S
C1513 C1512 1.363 . S
C1513 C1519 1.363 . S
C1514 C1515 1.363 . S
C1514 C1519 1.379 . S
C1514 N1521 1.356 . S
C1515 C1514 1.363 . S
C1515 C1518 1.363 . S
N1516 C1518 1.356 . S
N1516 H1528 0.984 . S
N1516 H1529 0.985 . S
N1517 C1519 1.356 . S
N1517 H1522 0.984 . S
N1517 H1523 0.985 . S
C1518 C1512 1.379 . S
C1518 C1515 1.363 . S
C1518 N1516 1.356 . S
C1519 C1513 1.363 . S
C1519 C1514 1.379 . S
C1519 N1517 1.356 . S
N1520 C1512 1.356 . S
N1520 H1526 0.984 . S
N1520 H1527 0.984 . S
N1521 C1514 1.356 . S
N1521 H1524 0.984 . S
N1521 H1525 0.985 . S
H1522 N1517 0.984 . S
H1523 N1517 0.985 . S
H1524 N1521 0.984 . S
H1525 N1521 0.985 . S
H1526 N1520 0.984 . S
H1527 N1520 0.984 . S
H1528 N1516 0.984 . S
H1529 N1516 0.985 . S
C1530 C1531 1.363 . S
C1530 C1536 1.379 . S
C1530 N1538 1.356 . S
C1531 C1530 1.363 . S
C1531 C1537 1.363 . S
C1532 C1533 1.363 . S
C1532 C1537 1.379 . S
C1532 N1539 1.356 . S
C1533 C1532 1.363 . S
C1533 C1536 1.363 . S
N1534 C1536 1.356 . S
N1534 H1546 0.984 . S
N1534 H1547 0.985 . S
N1535 C1537 1.356 . S
N1535 H1540 0.984 . S
N1535 H1541 0.985 . S
C1536 C1530 1.379 . S
C1536 C1533 1.363 . S
C1536 N1534 1.356 . S
C1537 C1531 1.363 . S
C1537 C1532 1.379 . S
C1537 N1535 1.356 . S
N1538 C1530 1.356 . S
N1538 H1544 0.984 . S
N1538 H1545 0.984 . S
N1539 C1532 1.356 . S
N1539 H1542 0.984 . S
N1539 H1543 0.985 . S
H1540 N1535 0.984 . S
H1541 N1535 0.985 . S
H1542 N1539 0.984 . S
H1543 N1539 0.985 . S
H1544 N1538 0.984 . S
H1545 N1538 0.984 . S
H1546 N1534 0.984 . S
H1547 N1534 0.985 . S
C1548 C1549 1.363 . S
C1548 C1554 1.379 . S
C1548 N1556 1.356 . S
C1549 C1548 1.363 . S
C1549 C1555 1.363 . S
C1550 C1551 1.363 . S
C1550 C1555 1.379 . S
C1550 N1557 1.356 . S
C1551 C1550 1.363 . S
C1551 C1554 1.363 . S
N1552 C1554 1.356 . S
N1552 H1564 0.984 . S
N1552 H1565 0.985 . S
N1553 C1555 1.356 . S
N1553 H1558 0.984 . S
N1553 H1559 0.985 . S
C1554 C1548 1.379 . S
C1554 C1551 1.363 . S
C1554 N1552 1.356 . S
C1555 C1549 1.363 . S
C1555 C1550 1.379 . S
C1555 N1553 1.356 . S
N1556 C1548 1.356 . S
N1556 H1562 0.984 . S
N1556 H1563 0.984 . S
N1557 C1550 1.356 . S
N1557 H1560 0.984 . S
N1557 H1561 0.985 . S
H1558 N1553 0.984 . S
H1559 N1553 0.985 . S
H1560 N1557 0.984 . S
H1561 N1557 0.985 . S
H1562 N1556 0.984 . S
H1563 N1556 0.984 . S
H1564 N1552 0.984 . S
H1565 N1552 0.985 . S
C1566 C1567 1.363 . S
C1566 C1572 1.379 . S
C1566 N1574 1.356 . S
C1567 C1566 1.363 . S
C1567 C1573 1.363 . S
C1568 C1569 1.363 . S
C1568 C1573 1.379 . S
C1568 N1575 1.356 . S
C1569 C1568 1.363 . S
C1569 C1572 1.363 . S
N1570 C1572 1.356 . S
N1570 H1582 0.984 . S
N1570 H1583 0.985 . S
N1571 C1573 1.356 . S
N1571 H1576 0.984 . S
N1571 H1577 0.985 . S
C1572 C1566 1.379 . S
C1572 C1569 1.363 . S
C1572 N1570 1.356 . S
C1573 C1567 1.363 . S
C1573 C1568 1.379 . S
C1573 N1571 1.356 . S
N1574 C1566 1.356 . S
N1574 H1580 0.984 . S
N1574 H1581 0.984 . S
N1575 C1568 1.356 . S
N1575 H1578 0.984 . S
N1575 H1579 0.985 . S
H1576 N1571 0.984 . S
H1577 N1571 0.985 . S
H1578 N1575 0.984 . S
H1579 N1575 0.985 . S
H1580 N1574 0.984 . S
H1581 N1574 0.984 . S
H1582 N1570 0.984 . S
H1583 N1570 0.985 . S
C1584 C1585 1.363 . S
C1584 C1590 1.379 . S
C1584 N1592 1.356 . S
C1585 C1584 1.363 . S
C1585 C1591 1.363 . S
C1586 C1587 1.363 . S
C1586 C1591 1.379 . S
C1586 N1593 1.356 . S
C1587 C1586 1.363 . S
C1587 C1590 1.363 . S
N1588 C1590 1.356 . S
N1588 H1600 0.984 . S
N1588 H1601 0.985 . S
N1589 C1591 1.356 . S
N1589 H1594 0.984 . S
N1589 H1595 0.985 . S
C1590 C1584 1.379 . S
C1590 C1587 1.363 . S
C1590 N1588 1.356 . S
C1591 C1585 1.363 . S
C1591 C1586 1.379 . S
C1591 N1589 1.356 . S
N1592 C1584 1.356 . S
N1592 H1598 0.984 . S
N1592 H1599 0.984 . S
N1593 C1586 1.356 . S
N1593 H1596 0.984 . S
N1593 H1597 0.985 . S
H1594 N1589 0.984 . S
H1595 N1589 0.985 . S
H1596 N1593 0.984 . S
H1597 N1593 0.985 . S
H1598 N1592 0.984 . S
H1599 N1592 0.984 . S
H1600 N1588 0.984 . S
H1601 N1588 0.985 . S
C1602 C1603 1.363 . S
C1602 C1608 1.379 . S
C1602 N1610 1.356 . S
C1603 C1602 1.363 . S
C1603 C1609 1.363 . S
C1604 C1605 1.363 . S
C1604 C1609 1.379 . S
C1604 N1611 1.356 . S
C1605 C1604 1.363 . S
C1605 C1608 1.363 . S
N1606 C1608 1.356 . S
N1606 H1618 0.984 . S
N1606 H1619 0.985 . S
N1607 C1609 1.356 . S
N1607 H1612 0.984 . S
N1607 H1613 0.985 . S
C1608 C1602 1.379 . S
C1608 C1605 1.363 . S
C1608 N1606 1.356 . S
C1609 C1603 1.363 . S
C1609 C1604 1.379 . S
C1609 N1607 1.356 . S
N1610 C1602 1.356 . S
N1610 H1616 0.984 . S
N1610 H1617 0.984 . S
N1611 C1604 1.356 . S
N1611 H1614 0.984 . S
N1611 H1615 0.985 . S
H1612 N1607 0.984 . S
H1613 N1607 0.985 . S
H1614 N1611 0.984 . S
H1615 N1611 0.985 . S
H1616 N1610 0.984 . S
H1617 N1610 0.984 . S
H1618 N1606 0.984 . S
H1619 N1606 0.985 . S
C1620 C1621 1.363 . S
C1620 C1626 1.379 . S
C1620 N1628 1.356 . S
C1621 C1620 1.363 . S
C1621 C1627 1.363 . S
C1622 C1623 1.363 . S
C1622 C1627 1.379 . S
C1622 N1629 1.356 . S
C1623 C1622 1.363 . S
C1623 C1626 1.363 . S
N1624 C1626 1.356 . S
N1624 H1636 0.984 . S
N1624 H1637 0.985 . S
N1625 C1627 1.356 . S
N1625 H1630 0.984 . S
N1625 H1631 0.985 . S
C1626 C1620 1.379 . S
C1626 C1623 1.363 . S
C1626 N1624 1.356 . S
C1627 C1621 1.363 . S
C1627 C1622 1.379 . S
C1627 N1625 1.356 . S
N1628 C1620 1.356 . S
N1628 H1634 0.984 . S
N1628 H1635 0.984 . S
N1629 C1622 1.356 . S
N1629 H1632 0.984 . S
N1629 H1633 0.985 . S
H1630 N1625 0.984 . S
H1631 N1625 0.985 . S
H1632 N1629 0.984 . S
H1633 N1629 0.985 . S
H1634 N1628 0.984 . S
H1635 N1628 0.984 . S
H1636 N1624 0.984 . S
H1637 N1624 0.985 . S
C1638 C1639 1.363 . S
C1638 C1644 1.379 . S
C1638 N1646 1.356 . S
C1639 C1638 1.363 . S
C1639 C1645 1.363 . S
C1640 C1641 1.363 . S
C1640 C1645 1.379 . S
C1640 N1647 1.356 . S
C1641 C1640 1.363 . S
C1641 C1644 1.363 . S
N1642 C1644 1.356 . S
N1642 H1654 0.984 . S
N1642 H1655 0.985 . S
N1643 C1645 1.356 . S
N1643 H1648 0.984 . S
N1643 H1649 0.985 . S
C1644 C1638 1.379 . S
C1644 C1641 1.363 . S
C1644 N1642 1.356 . S
C1645 C1639 1.363 . S
C1645 C1640 1.379 . S
C1645 N1643 1.356 . S
N1646 C1638 1.356 . S
N1646 H1652 0.984 . S
N1646 H1653 0.984 . S
N1647 C1640 1.356 . S
N1647 H1650 0.984 . S
N1647 H1651 0.985 . S
H1648 N1643 0.984 . S
H1649 N1643 0.985 . S
H1650 N1647 0.984 . S
H1651 N1647 0.985 . S
H1652 N1646 0.984 . S
H1653 N1646 0.984 . S
H1654 N1642 0.984 . S
H1655 N1642 0.985 . S
C1656 C1657 1.363 . S
C1656 C1662 1.379 . S
C1656 N1664 1.356 . S
C1657 C1656 1.363 . S
C1657 C1663 1.363 . S
C1658 C1659 1.363 . S
C1658 C1663 1.379 . S
C1658 N1665 1.356 . S
C1659 C1658 1.363 . S
C1659 C1662 1.363 . S
N1660 C1662 1.356 . S
N1660 H1672 0.984 . S
N1660 H1673 0.985 . S
N1661 C1663 1.356 . S
N1661 H1666 0.984 . S
N1661 H1667 0.985 . S
C1662 C1656 1.379 . S
C1662 C1659 1.363 . S
C1662 N1660 1.356 . S
C1663 C1657 1.363 . S
C1663 C1658 1.379 . S
C1663 N1661 1.356 . S
N1664 C1656 1.356 . S
N1664 H1670 0.984 . S
N1664 H1671 0.984 . S
N1665 C1658 1.356 . S
N1665 H1668 0.984 . S
N1665 H1669 0.985 . S
H1666 N1661 0.984 . S
H1667 N1661 0.985 . S
H1668 N1665 0.984 . S
H1669 N1665 0.985 . S
H1670 N1664 0.984 . S
H1671 N1664 0.984 . S
H1672 N1660 0.984 . S
H1673 N1660 0.985 . S
C1674 C1675 1.363 . S
C1674 C1680 1.379 . S
C1674 N1682 1.356 . S
C1675 C1674 1.363 . S
C1675 C1681 1.363 1_565 S
C1676 C1677 1.363 . S
C1676 C1681 1.379 . S
C1676 N1683 1.356 . S
C1677 C1676 1.363 . S
C1677 C1680 1.363 1_545 S
N1678 C1680 1.356 . S
N1678 H1690 0.984 . S
N1678 H1691 0.985 . S
N1679 C1681 1.356 . S
N1679 H1684 0.984 . S
N1679 H1685 0.985 . S
C1680 C1674 1.379 . S
C1680 C1677 1.363 1_565 S
C1680 N1678 1.356 . S
C1681 C1675 1.363 1_545 S
C1681 C1676 1.379 . S
C1681 N1679 1.356 . S
N1682 C1674 1.356 . S
N1682 H1688 0.984 . S
N1682 H1689 0.984 . S
N1683 C1676 1.356 . S
N1683 H1686 0.984 . S
N1683 H1687 0.985 . S
H1684 N1679 0.984 . S
H1685 N1679 0.985 . S
H1686 N1683 0.984 . S
H1687 N1683 0.985 . S
H1688 N1682 0.984 . S
H1689 N1682 0.984 . S
H1690 N1678 0.984 . S
H1691 N1678 0.985 . S
C1692 C1693 1.363 . S
C1692 C1698 1.379 . S
C1692 N1700 1.356 . S
C1693 C1692 1.363 . S
C1693 C1699 1.363 1_655 S
C1694 C1695 1.363 . S
C1694 C1699 1.379 . S
C1694 N1701 1.356 . S
C1695 C1694 1.363 . S
C1695 C1698 1.363 1_455 S
N1696 C1698 1.356 . S
N1696 H1708 0.984 . S
N1696 H1709 0.985 . S
N1697 C1699 1.356 . S
N1697 H1702 0.984 . S
N1697 H1703 0.985 . S
C1698 C1692 1.379 . S
C1698 C1695 1.363 1_655 S
C1698 N1696 1.356 . S
C1699 C1693 1.363 1_455 S
C1699 C1694 1.379 . S
C1699 N1697 1.356 . S
N1700 C1692 1.356 . S
N1700 H1706 0.984 . S
N1700 H1707 0.984 . S
N1701 C1694 1.356 . S
N1701 H1704 0.984 . S
N1701 H1705 0.985 . S
H1702 N1697 0.984 . S
H1703 N1697 0.985 . S
H1704 N1701 0.984 . S
H1705 N1701 0.985 . S
H1706 N1700 0.984 . S
H1707 N1700 0.984 . S
H1708 N1696 0.984 . S
H1709 N1696 0.985 . S
C1710 C1711 1.363 . S
C1710 C1716 1.379 . S
C1710 N1718 1.356 . S
C1711 C1710 1.363 . S
C1711 C1717 1.363 . S
C1712 C1713 1.363 . S
C1712 C1717 1.379 . S
C1712 N1719 1.356 . S
C1713 C1712 1.363 . S
C1713 C1716 1.363 . S
N1714 C1716 1.356 . S
N1714 H1726 0.984 . S
N1714 H1727 0.985 . S
N1715 C1717 1.356 . S
N1715 H1720 0.984 . S
N1715 H1721 0.985 . S
C1716 C1710 1.379 . S
C1716 C1713 1.363 . S
C1716 N1714 1.356 . S
C1717 C1711 1.363 . S
C1717 C1712 1.379 . S
C1717 N1715 1.356 . S
N1718 C1710 1.356 . S
N1718 H1724 0.984 . S
N1718 H1725 0.984 . S
N1719 C1712 1.356 . S
N1719 H1722 0.984 . S
N1719 H1723 0.985 . S
H1720 N1715 0.984 . S
H1721 N1715 0.985 . S
H1722 N1719 0.984 . S
H1723 N1719 0.985 . S
H1724 N1718 0.984 . S
H1725 N1718 0.984 . S
H1726 N1714 0.984 . S
H1727 N1714 0.985 . S
C1728 C1729 1.363 1_565 S
C1728 C1734 1.379 . S
C1728 N1736 1.356 . S
C1729 C1728 1.363 1_545 S
C1729 C1735 1.363 . S
C1730 C1731 1.363 1_545 S
C1730 C1735 1.379 . S
C1730 N1737 1.356 . S
C1731 C1730 1.363 1_565 S
C1731 C1734 1.363 . S
N1732 C1734 1.356 . S
N1732 H1744 0.984 . S
N1732 H1745 0.985 . S
N1733 C1735 1.356 . S
N1733 H1738 0.984 . S
N1733 H1739 0.985 . S
C1734 C1728 1.379 . S
C1734 C1731 1.363 . S
C1734 N1732 1.356 . S
C1735 C1729 1.363 . S
C1735 C1730 1.379 . S
C1735 N1733 1.356 . S
N1736 C1728 1.356 . S
N1736 H1742 0.984 . S
N1736 H1743 0.984 . S
N1737 C1730 1.356 . S
N1737 H1740 0.984 . S
N1737 H1741 0.985 . S
H1738 N1733 0.984 . S
H1739 N1733 0.985 . S
H1740 N1737 0.984 . S
H1741 N1737 0.985 . S
H1742 N1736 0.984 . S
H1743 N1736 0.984 . S
H1744 N1732 0.984 . S
H1745 N1732 0.985 . S
C1746 C1747 1.352 1_655 S
C1746 C1752 1.382 . S
C1746 N1754 1.361 1_655 S
C1747 C1746 1.352 1_455 S
C1747 C1753 1.363 . S
C1748 C1749 1.352 1_455 S
C1748 C1753 1.382 . S
C1748 N1755 1.361 1_455 S
C1749 C1748 1.352 1_655 S
C1749 C1752 1.363 . S
N1750 C1752 1.356 . S
N1750 H1762 0.984 . S
N1750 H1763 0.985 . S
N1751 C1753 1.356 . S
N1751 H1756 0.984 . S
N1751 H1757 0.985 . S
C1752 C1746 1.382 . S
C1752 C1749 1.363 . S
C1752 N1750 1.356 . S
C1753 C1747 1.363 . S
C1753 C1748 1.382 . S
C1753 N1751 1.356 . S
N1754 C1746 1.361 1_455 S
N1754 H1760 0.984 1_455 S
N1754 H1761 0.984 . S
N1755 C1748 1.361 1_655 S
N1755 H1758 0.984 . S
N1755 H1759 0.985 1_655 S
H1756 N1751 0.984 . S
H1757 N1751 0.985 . S
H1758 N1755 0.984 . S
H1759 N1755 0.985 1_455 S
H1760 N1754 0.984 1_655 S
H1761 N1754 0.984 . S
H1762 N1750 0.984 . S
H1763 N1750 0.985 . S
C1764 C1765 1.363 . S
C1764 C1770 1.379 1_455 S
C1764 N1772 1.356 . S
C1765 C1764 1.363 . S
C1765 C1771 1.363 . S
C1766 C1767 1.363 . S
C1766 C1771 1.379 1_655 S
C1766 N1773 1.356 . S
C1767 C1766 1.363 . S
C1767 C1770 1.363 . S
N1768 C1770 1.356 . S
N1768 H1780 0.984 . S
N1768 H1781 0.985 . S
N1769 C1771 1.356 . S
N1769 H1774 0.984 . S
N1769 H1775 0.985 . S
C1770 C1764 1.379 1_655 S
C1770 C1767 1.363 . S
C1770 N1768 1.356 . S
C1771 C1765 1.363 . S
C1771 C1766 1.379 1_455 S
C1771 N1769 1.356 . S
N1772 C1764 1.356 . S
N1772 H1778 0.984 . S
N1772 H1779 0.984 . S
N1773 C1766 1.356 . S
N1773 H1776 0.984 . S
N1773 H1777 0.985 . S
H1774 N1769 0.984 . S
H1775 N1769 0.985 . S
H1776 N1773 0.984 . S
H1777 N1773 0.985 . S
H1778 N1772 0.984 . S
H1779 N1772 0.984 . S
H1780 N1768 0.984 . S
H1781 N1768 0.985 . S
C1782 C1783 1.363 . S
C1782 C1788 1.379 . S
C1782 N1790 1.356 . S
C1783 C1782 1.363 . S
C1783 C1789 1.363 . S
C1784 C1785 1.363 . S
C1784 C1789 1.379 . S
C1784 N1791 1.356 . S
C1785 C1784 1.363 . S
C1785 C1788 1.363 . S
N1786 C1788 1.356 . S
N1786 H1798 0.984 . S
N1786 H1799 0.985 . S
N1787 C1789 1.356 . S
N1787 H1792 0.984 . S
N1787 H1793 0.985 . S
C1788 C1782 1.379 . S
C1788 C1785 1.363 . S
C1788 N1786 1.356 . S
C1789 C1783 1.363 . S
C1789 C1784 1.379 . S
C1789 N1787 1.356 . S
N1790 C1782 1.356 . S
N1790 H1796 0.984 . S
N1790 H1797 0.984 . S
N1791 C1784 1.356 . S
N1791 H1794 0.984 . S
N1791 H1795 0.985 . S
H1792 N1787 0.984 . S
H1793 N1787 0.985 . S
H1794 N1791 0.984 . S
H1795 N1791 0.985 . S
H1796 N1790 0.984 . S
H1797 N1790 0.984 . S
H1798 N1786 0.984 . S
H1799 N1786 0.985 . S
C1800 C1801 1.363 . S
C1800 C1806 1.379 1_565 S
C1800 N1808 1.356 . S
C1801 C1800 1.363 . S
C1801 C1807 1.363 . S
C1802 C1803 1.363 . S
C1802 C1807 1.379 1_545 S
C1802 N1809 1.356 . S
C1803 C1802 1.363 . S
C1803 C1806 1.363 . S
N1804 C1806 1.356 . S
N1804 H1816 0.984 . S
N1804 H1817 0.985 . S
N1805 C1807 1.356 . S
N1805 H1810 0.984 . S
N1805 H1811 0.985 . S
C1806 C1800 1.379 1_545 S
C1806 C1803 1.363 . S
C1806 N1804 1.356 . S
C1807 C1801 1.363 . S
C1807 C1802 1.379 1_565 S
C1807 N1805 1.356 . S
N1808 C1800 1.356 . S
N1808 H1814 0.984 . S
N1808 H1815 0.984 . S
N1809 C1802 1.356 . S
N1809 H1812 0.984 . S
N1809 H1813 0.985 . S
H1810 N1805 0.984 . S
H1811 N1805 0.985 . S
H1812 N1809 0.984 . S
H1813 N1809 0.985 . S
H1814 N1808 0.984 . S
H1815 N1808 0.984 . S
H1816 N1804 0.984 . S
H1817 N1804 0.985 . S
C1818 C1819 1.363 1_455 S
C1818 C1824 1.379 . S
C1818 N1826 1.356 1_455 S
C1819 C1818 1.363 1_655 S
C1819 C1825 1.363 . S
C1820 C1821 1.363 1_655 S
C1820 C1825 1.379 . S
C1820 N1827 1.356 1_655 S
C1821 C1820 1.363 1_455 S
C1821 C1824 1.363 . S
N1822 C1824 1.356 . S
N1822 H1834 0.984 . S
N1822 H1835 0.985 . S
N1823 C1825 1.356 . S
N1823 H1828 0.984 . S
N1823 H1829 0.985 . S
C1824 C1818 1.379 . S
C1824 C1821 1.363 . S
C1824 N1822 1.356 . S
C1825 C1819 1.363 . S
C1825 C1820 1.379 . S
C1825 N1823 1.356 . S
N1826 C1818 1.356 1_655 S
N1826 H1832 0.984 1_655 S
N1826 H1833 0.984 . S
N1827 C1820 1.356 1_455 S
N1827 H1830 0.984 . S
N1827 H1831 0.985 1_455 S
H1828 N1823 0.984 . S
H1829 N1823 0.985 . S
H1830 N1827 0.984 . S
H1831 N1827 0.985 1_655 S
H1832 N1826 0.984 1_455 S
H1833 N1826 0.984 . S
H1834 N1822 0.984 . S
H1835 N1822 0.985 . S
C1836 C1837 1.363 . S
C1836 C1842 1.379 . S
C1836 N1844 1.356 . S
C1837 C1836 1.363 . S
C1837 C1843 1.363 . S
C1838 C1839 1.363 . S
C1838 C1843 1.379 . S
C1838 N1845 1.356 . S
C1839 C1838 1.363 . S
C1839 C1842 1.363 . S
N1840 C1842 1.356 . S
N1840 H1852 0.984 . S
N1840 H1853 0.985 . S
N1841 C1843 1.356 . S
N1841 H1846 0.984 . S
N1841 H1847 0.985 . S
C1842 C1836 1.379 . S
C1842 C1839 1.363 . S
C1842 N1840 1.356 . S
C1843 C1837 1.363 . S
C1843 C1838 1.379 . S
C1843 N1841 1.356 . S
N1844 C1836 1.356 . S
N1844 H1850 0.984 . S
N1844 H1851 0.984 . S
N1845 C1838 1.356 . S
N1845 H1848 0.984 . S
N1845 H1849 0.985 . S
H1846 N1841 0.984 . S
H1847 N1841 0.985 . S
H1848 N1845 0.984 . S
H1849 N1845 0.985 . S
H1850 N1844 0.984 . S
H1851 N1844 0.984 . S
H1852 N1840 0.984 . S
H1853 N1840 0.985 . S
C1854 C1855 1.363 1_565 S
C1854 C1860 1.379 . S
C1854 N1862 1.367 . S
C1855 C1854 1.363 1_545 S
C1855 C1861 1.363 . S
C1856 C1857 1.363 1_545 S
C1856 C1861 1.379 . S
C1856 N1863 1.368 . S
C1857 C1856 1.363 1_565 S
C1857 C1860 1.363 . S
N1858 C1860 1.356 . S
N1858 H1870 0.984 . S
N1858 H1871 0.985 . S
N1859 C1861 1.356 . S
N1859 H1864 0.984 . S
N1859 H1865 0.985 . S
C1860 C1854 1.379 . S
C1860 C1857 1.363 . S
C1860 N1858 1.356 . S
C1861 C1855 1.363 . S
C1861 C1856 1.379 . S
C1861 N1859 1.356 . S
N1862 C1854 1.367 . S
N1862 H1868 0.994 . S
N1862 H1869 0.965 1_565 S
N1863 C1856 1.368 . S
N1863 H1866 0.963 1_545 S
N1863 H1867 0.995 . S
H1864 N1859 0.984 . S
H1865 N1859 0.985 . S
H1866 N1863 0.963 1_565 S
H1867 N1863 0.995 . S
H1868 N1862 0.994 . S
H1869 N1862 0.965 1_545 S
H1870 N1858 0.984 . S
H1871 N1858 0.985 . S
C1872 C1873 1.363 . S
C1872 C1878 1.379 . S
C1872 N1880 1.356 . S
C1873 C1872 1.363 . S
C1873 C1879 1.363 . S
C1874 C1875 1.363 . S
C1874 C1879 1.379 . S
C1874 N1881 1.356 . S
C1875 C1874 1.363 . S
C1875 C1878 1.363 . S
N1876 C1878 1.356 . S
N1876 H1888 0.984 . S
N1876 H1889 0.985 . S
N1877 C1879 1.356 . S
N1877 H1882 0.984 . S
N1877 H1883 0.985 . S
C1878 C1872 1.379 . S
C1878 C1875 1.363 . S
C1878 N1876 1.356 . S
C1879 C1873 1.363 . S
C1879 C1874 1.379 . S
C1879 N1877 1.356 . S
N1880 C1872 1.356 . S
N1880 H1886 0.984 . S
N1880 H1887 0.984 . S
N1881 C1874 1.356 . S
N1881 H1884 0.984 . S
N1881 H1885 0.985 . S
H1882 N1877 0.984 . S
H1883 N1877 0.985 . S
H1884 N1881 0.984 . S
H1885 N1881 0.985 . S
H1886 N1880 0.984 . S
H1887 N1880 0.984 . S
H1888 N1876 0.984 . S
H1889 N1876 0.985 . S
C1890 C1891 1.363 . S
C1890 C1896 1.379 . S
C1890 N1898 1.356 . S
C1891 C1890 1.363 . S
C1891 C1897 1.363 . S
C1892 C1893 1.363 . S
C1892 C1897 1.379 . S
C1892 N1899 1.356 . S
C1893 C1892 1.363 . S
C1893 C1896 1.363 . S
N1894 C1896 1.356 . S
N1894 H1906 0.984 . S
N1894 H1907 0.985 . S
N1895 C1897 1.356 . S
N1895 H1900 0.984 . S
N1895 H1901 0.985 . S
C1896 C1890 1.379 . S
C1896 C1893 1.363 . S
C1896 N1894 1.356 . S
C1897 C1891 1.363 . S
C1897 C1892 1.379 . S
C1897 N1895 1.356 . S
N1898 C1890 1.356 . S
N1898 H1904 0.984 . S
N1898 H1905 0.984 . S
N1899 C1892 1.356 . S
N1899 H1902 0.984 . S
N1899 H1903 0.985 . S
H1900 N1895 0.984 . S
H1901 N1895 0.985 . S
H1902 N1899 0.984 . S
H1903 N1899 0.985 . S
H1904 N1898 0.984 . S
H1905 N1898 0.984 . S
H1906 N1894 0.984 . S
H1907 N1894 0.985 . S
C1908 C1909 1.363 . S
C1908 C1914 1.379 . S
C1908 N1916 1.356 . S
C1909 C1908 1.363 . S
C1909 C1915 1.363 . S
C1910 C1911 1.363 . S
C1910 C1915 1.379 . S
C1910 N1917 1.356 . S
C1911 C1910 1.363 . S
C1911 C1914 1.363 . S
N1912 C1914 1.356 . S
N1912 H1924 0.984 . S
N1912 H1925 0.985 . S
N1913 C1915 1.356 . S
N1913 H1918 0.984 . S
N1913 H1919 0.985 . S
C1914 C1908 1.379 . S
C1914 C1911 1.363 . S
C1914 N1912 1.356 . S
C1915 C1909 1.363 . S
C1915 C1910 1.379 . S
C1915 N1913 1.356 . S
N1916 C1908 1.356 . S
N1916 H1922 0.984 . S
N1916 H1923 0.984 . S
N1917 C1910 1.356 . S
N1917 H1920 0.984 . S
N1917 H1921 0.985 . S
H1918 N1913 0.984 . S
H1919 N1913 0.985 . S
H1920 N1917 0.984 . S
H1921 N1917 0.985 . S
H1922 N1916 0.984 . S
H1923 N1916 0.984 . S
H1924 N1912 0.984 . S
H1925 N1912 0.985 . S
C1926 C1927 1.363 . S
C1926 C1932 1.379 . S
C1926 N1934 1.356 . S
C1927 C1926 1.363 . S
C1927 C1933 1.363 . S
C1928 C1929 1.363 . S
C1928 C1933 1.379 . S
C1928 N1935 1.356 . S
C1929 C1928 1.363 . S
C1929 C1932 1.363 . S
N1930 C1932 1.356 . S
N1930 H1942 0.984 . S
N1930 H1943 0.985 . S
N1931 C1933 1.356 . S
N1931 H1936 0.984 . S
N1931 H1937 0.985 . S
C1932 C1926 1.379 . S
C1932 C1929 1.363 . S
C1932 N1930 1.356 . S
C1933 C1927 1.363 . S
C1933 C1928 1.379 . S
C1933 N1931 1.356 . S
N1934 C1926 1.356 . S
N1934 H1940 0.984 . S
N1934 H1941 0.984 . S
N1935 C1928 1.356 . S
N1935 H1938 0.984 . S
N1935 H1939 0.985 . S
H1936 N1931 0.984 . S
H1937 N1931 0.985 . S
H1938 N1935 0.984 . S
H1939 N1935 0.985 . S
H1940 N1934 0.984 . S
H1941 N1934 0.984 . S
H1942 N1930 0.984 . S
H1943 N1930 0.985 . S
C1944 C1945 1.363 . S
C1944 C1950 1.379 . S
C1944 N1952 1.356 . S
C1945 C1944 1.363 . S
C1945 C1951 1.363 . S
C1946 C1947 1.363 . S
C1946 C1951 1.379 . S
C1946 N1953 1.356 . S
C1947 C1946 1.363 . S
C1947 C1950 1.363 . S
N1948 C1950 1.356 . S
N1948 H1960 0.984 . S
N1948 H1961 0.985 . S
N1949 C1951 1.356 . S
N1949 H1954 0.984 . S
N1949 H1955 0.985 . S
C1950 C1944 1.379 . S
C1950 C1947 1.363 . S
C1950 N1948 1.356 . S
C1951 C1945 1.363 . S
C1951 C1946 1.379 . S
C1951 N1949 1.356 . S
N1952 C1944 1.356 . S
N1952 H1958 0.984 . S
N1952 H1959 0.984 . S
N1953 C1946 1.356 . S
N1953 H1956 0.984 . S
N1953 H1957 0.985 . S
H1954 N1949 0.984 . S
H1955 N1949 0.985 . S
H1956 N1953 0.984 . S
H1957 N1953 0.985 . S
H1958 N1952 0.984 . S
H1959 N1952 0.984 . S
H1960 N1948 0.984 . S
H1961 N1948 0.985 . S
C1962 C1963 1.363 . S
C1962 C1968 1.379 . S
C1962 N1970 1.356 . S
C1963 C1962 1.363 . S
C1963 C1969 1.363 . S
C1964 C1965 1.363 . S
C1964 C1969 1.379 . S
C1964 N1971 1.356 . S
C1965 C1964 1.363 . S
C1965 C1968 1.363 . S
N1966 C1968 1.356 . S
N1966 H1978 0.984 . S
N1966 H1979 0.985 . S
N1967 C1969 1.356 . S
N1967 H1972 0.984 . S
N1967 H1973 0.985 . S
C1968 C1962 1.379 . S
C1968 C1965 1.363 . S
C1968 N1966 1.356 . S
C1969 C1963 1.363 . S
C1969 C1964 1.379 . S
C1969 N1967 1.356 . S
N1970 C1962 1.356 . S
N1970 H1976 0.984 . S
N1970 H1977 0.984 . S
N1971 C1964 1.356 . S
N1971 H1974 0.984 . S
N1971 H1975 0.985 . S
H1972 N1967 0.984 . S
H1973 N1967 0.985 . S
H1974 N1971 0.984 . S
H1975 N1971 0.985 . S
H1976 N1970 0.984 . S
H1977 N1970 0.984 . S
H1978 N1966 0.984 . S
H1979 N1966 0.985 . S
C1980 C1981 1.363 . S
C1980 C1986 1.379 . S
C1980 N1988 1.356 . S
C1981 C1980 1.363 . S
C1981 C1987 1.363 . S
C1982 C1983 1.363 . S
C1982 C1987 1.379 . S
C1982 N1989 1.356 . S
C1983 C1982 1.363 . S
C1983 C1986 1.363 . S
N1984 C1986 1.356 . S
N1984 H1996 0.984 . S
N1984 H1997 0.985 . S
N1985 C1987 1.356 . S
N1985 H1990 0.984 . S
N1985 H1991 0.985 . S
C1986 C1980 1.379 . S
C1986 C1983 1.363 . S
C1986 N1984 1.356 . S
C1987 C1981 1.363 . S
C1987 C1982 1.379 . S
C1987 N1985 1.356 . S
N1988 C1980 1.356 . S
N1988 H1994 0.984 . S
N1988 H1995 0.984 . S
N1989 C1982 1.356 . S
N1989 H1992 0.984 . S
N1989 H1993 0.985 . S
H1990 N1985 0.984 . S
H1991 N1985 0.985 . S
H1992 N1989 0.984 . S
H1993 N1989 0.985 . S
H1994 N1988 0.984 . S
H1995 N1988 0.984 . S
H1996 N1984 0.984 . S
H1997 N1984 0.985 . S
C1998 C1999 1.363 . S
C1998 C2004 1.379 . S
C1998 N2006 1.356 . S
C1999 C1998 1.363 . S
C1999 C2005 1.363 . S
C2000 C2001 1.363 . S
C2000 C2005 1.379 . S
C2000 N2007 1.356 . S
C2001 C2000 1.363 . S
C2001 C2004 1.363 . S
N2002 C2004 1.356 . S
N2002 H2014 0.984 . S
N2002 H2015 0.985 . S
N2003 C2005 1.356 . S
N2003 H2008 0.984 . S
N2003 H2009 0.985 . S
C2004 C1998 1.379 . S
C2004 C2001 1.363 . S
C2004 N2002 1.356 . S
C2005 C1999 1.363 . S
C2005 C2000 1.379 . S
C2005 N2003 1.356 . S
N2006 C1998 1.356 . S
N2006 H2012 0.984 . S
N2006 H2013 0.984 . S
N2007 C2000 1.356 . S
N2007 H2010 0.984 . S
N2007 H2011 0.985 . S
H2008 N2003 0.984 . S
H2009 N2003 0.985 . S
H2010 N2007 0.984 . S
H2011 N2007 0.985 . S
H2012 N2006 0.984 . S
H2013 N2006 0.984 . S
H2014 N2002 0.984 . S
H2015 N2002 0.985 . S
C2016 C2017 1.363 . S
C2016 C2022 1.379 . S
C2016 N2024 1.356 . S
C2017 C2016 1.363 . S
C2017 C2023 1.363 . S
C2018 C2019 1.363 . S
C2018 C2023 1.379 . S
C2018 N2025 1.356 . S
C2019 C2018 1.363 . S
C2019 C2022 1.363 . S
N2020 C2022 1.356 . S
N2020 H2032 0.984 . S
N2020 H2033 0.985 . S
N2021 C2023 1.356 . S
N2021 H2026 0.984 . S
N2021 H2027 0.985 . S
C2022 C2016 1.379 . S
C2022 C2019 1.363 . S
C2022 N2020 1.356 . S
C2023 C2017 1.363 . S
C2023 C2018 1.379 . S
C2023 N2021 1.356 . S
N2024 C2016 1.356 . S
N2024 H2030 0.984 . S
N2024 H2031 0.984 . S
N2025 C2018 1.356 . S
N2025 H2028 0.984 . S
N2025 H2029 0.985 . S
H2026 N2021 0.984 . S
H2027 N2021 0.985 . S
H2028 N2025 0.984 . S
H2029 N2025 0.985 . S
H2030 N2024 0.984 . S
H2031 N2024 0.984 . S
H2032 N2020 0.984 . S
H2033 N2020 0.985 . S
C2034 C2035 1.363 . S
C2034 C2040 1.379 1_556 S
C2034 N2042 1.356 . S
C2035 C2034 1.363 . S
C2035 C2041 1.363 . S
C2036 C2037 1.363 1_556 S
C2036 C2041 1.379 . S
C2036 N2043 1.356 . S
C2037 C2036 1.363 1_554 S
C2037 C2040 1.363 . S
N2038 C2040 1.356 . S
N2038 H2050 0.984 . S
N2038 H2051 0.985 . S
N2039 C2041 1.356 . S
N2039 H2044 0.984 . S
N2039 H2045 0.985 . S
C2040 C2034 1.379 1_554 S
C2040 C2037 1.363 . S
C2040 N2038 1.356 . S
C2041 C2035 1.363 . S
C2041 C2036 1.379 . S
C2041 N2039 1.356 . S
N2042 C2034 1.356 . S
N2042 H2048 0.984 . S
N2042 H2049 0.984 . S
N2043 C2036 1.356 . S
N2043 H2046 0.984 . S
N2043 H2047 0.985 . S
H2044 N2039 0.984 . S
H2045 N2039 0.985 . S
H2046 N2043 0.984 . S
H2047 N2043 0.985 . S
H2048 N2042 0.984 . S
H2049 N2042 0.984 . S
H2050 N2038 0.984 . S
H2051 N2038 0.985 . S
C2052 C2053 1.363 . S
C2052 C2058 1.379 . S
C2052 N2060 1.356 . S
C2053 C2052 1.363 . S
C2053 C2059 1.363 . S
C2054 C2055 1.363 1_556 S
C2054 C2059 1.379 . S
C2054 N2061 1.356 1_556 S
C2055 C2054 1.363 1_554 S
C2055 C2058 1.363 1_554 S
N2056 C2058 1.356 . S
N2056 H2068 0.984 . S
N2056 H2069 0.985 1_556 S
N2057 C2059 1.356 . S
N2057 H2062 0.984 . S
N2057 H2063 0.985 . S
C2058 C2052 1.379 . S
C2058 C2055 1.363 1_556 S
C2058 N2056 1.356 . S
C2059 C2053 1.363 . S
C2059 C2054 1.379 . S
C2059 N2057 1.356 . S
N2060 C2052 1.356 . S
N2060 H2066 0.984 . S
N2060 H2067 0.984 . S
N2061 C2054 1.356 1_554 S
N2061 H2064 0.984 . S
N2061 H2065 0.985 . S
H2062 N2057 0.984 . S
H2063 N2057 0.985 . S
H2064 N2061 0.984 . S
H2065 N2061 0.985 . S
H2066 N2060 0.984 . S
H2067 N2060 0.984 . S
H2068 N2056 0.984 . S
H2069 N2056 0.985 1_554 S
C2070 C2071 1.363 . S
C2070 C2076 1.379 . S
C2070 N2078 1.356 . S
C2071 C2070 1.363 . S
C2071 C2077 1.363 . S
C2072 C2073 1.363 . S
C2072 C2077 1.379 1_554 S
C2072 N2079 1.356 . S
C2073 C2072 1.363 . S
C2073 C2076 1.363 1_554 S
N2074 C2076 1.356 . S
N2074 H2086 0.984 . S
N2074 H2087 0.985 . S
N2075 C2077 1.356 . S
N2075 H2080 0.984 . S
N2075 H2081 0.985 . S
C2076 C2070 1.379 . S
C2076 C2073 1.363 1_556 S
C2076 N2074 1.356 . S
C2077 C2071 1.363 . S
C2077 C2072 1.379 1_556 S
C2077 N2075 1.356 . S
N2078 C2070 1.356 . S
N2078 H2084 0.984 . S
N2078 H2085 0.984 . S
N2079 C2072 1.356 . S
N2079 H2082 0.984 . S
N2079 H2083 0.985 . S
H2080 N2075 0.984 . S
H2081 N2075 0.985 . S
H2082 N2079 0.984 . S
H2083 N2079 0.985 . S
H2084 N2078 0.984 . S
H2085 N2078 0.984 . S
H2086 N2074 0.984 . S
H2087 N2074 0.985 . S
C2088 C2089 1.363 . S
C2088 C2094 1.379 . S
C2088 N2096 1.356 . S
C2089 C2088 1.363 . S
C2089 C2095 1.363 . S
C2090 C2091 1.363 . S
C2090 C2095 1.379 . S
C2090 N2097 1.356 1_556 S
C2091 C2090 1.363 . S
C2091 C2094 1.363 . S
N2092 C2094 1.356 . S
N2092 H2104 0.984 . S
N2092 H2105 0.985 . S
N2093 C2095 1.356 . S
N2093 H2098 0.984 . S
N2093 H2099 0.985 . S
C2094 C2088 1.379 . S
C2094 C2091 1.363 . S
C2094 N2092 1.356 . S
C2095 C2089 1.363 . S
C2095 C2090 1.379 . S
C2095 N2093 1.356 . S
N2096 C2088 1.356 . S
N2096 H2102 0.984 . S
N2096 H2103 0.984 . S
N2097 C2090 1.356 1_554 S
N2097 H2100 0.984 . S
N2097 H2101 0.985 . S
H2098 N2093 0.984 . S
H2099 N2093 0.985 . S
H2100 N2097 0.984 . S
H2101 N2097 0.985 . S
H2102 N2096 0.984 . S
H2103 N2096 0.984 . S
H2104 N2092 0.984 . S
H2105 N2092 0.985 . S
C2106 C2107 1.363 . S
C2106 C2112 1.379 . S
C2106 N2114 1.356 1_556 S
C2107 C2106 1.363 . S
C2107 C2113 1.363 . S
C2108 C2109 1.363 . S
C2108 C2113 1.379 . S
C2108 N2115 1.356 . S
C2109 C2108 1.363 . S
C2109 C2112 1.363 . S
N2110 C2112 1.356 . S
N2110 H2122 0.984 . S
N2110 H2123 0.985 . S
N2111 C2113 1.356 . S
N2111 H2116 0.984 . S
N2111 H2117 0.985 . S
C2112 C2106 1.379 . S
C2112 C2109 1.363 . S
C2112 N2110 1.356 . S
C2113 C2107 1.363 . S
C2113 C2108 1.379 . S
C2113 N2111 1.356 . S
N2114 C2106 1.356 1_554 S
N2114 H2120 0.984 . S
N2114 H2121 0.984 . S
N2115 C2108 1.356 . S
N2115 H2118 0.984 . S
N2115 H2119 0.985 . S
H2116 N2111 0.984 . S
H2117 N2111 0.985 . S
H2118 N2115 0.984 . S
H2119 N2115 0.985 . S
H2120 N2114 0.984 . S
H2121 N2114 0.984 . S
H2122 N2110 0.984 . S
H2123 N2110 0.985 . S
C2124 C2125 1.363 . S
C2124 C2130 1.379 . S
C2124 N2132 1.356 . S
C2125 C2124 1.363 . S
C2125 C2131 1.363 . S
C2126 C2127 1.363 . S
C2126 C2131 1.379 . S
C2126 N2133 1.356 . S
C2127 C2126 1.363 . S
C2127 C2130 1.363 . S
N2128 C2130 1.356 . S
N2128 H2140 0.984 . S
N2128 H2141 0.985 . S
N2129 C2131 1.356 1_554 S
N2129 H2134 0.984 . S
N2129 H2135 0.985 . S
C2130 C2124 1.379 . S
C2130 C2127 1.363 . S
C2130 N2128 1.356 . S
C2131 C2125 1.363 . S
C2131 C2126 1.379 . S
C2131 N2129 1.356 1_556 S
N2132 C2124 1.356 . S
N2132 H2138 0.984 . S
N2132 H2139 0.984 . S
N2133 C2126 1.356 . S
N2133 H2136 0.984 . S
N2133 H2137 0.985 . S
H2134 N2129 0.984 . S
H2135 N2129 0.985 . S
H2136 N2133 0.984 . S
H2137 N2133 0.985 . S
H2138 N2132 0.984 . S
H2139 N2132 0.984 . S
H2140 N2128 0.984 . S
H2141 N2128 0.985 . S
C2142 C2143 1.363 . S
C2142 C2148 1.379 . S
C2142 N2150 1.356 . S
C2143 C2142 1.363 . S
C2143 C2149 1.363 . S
C2144 C2145 1.363 . S
C2144 C2149 1.379 . S
C2144 N2151 1.356 . S
C2145 C2144 1.363 . S
C2145 C2148 1.363 . S
N2146 C2148 1.356 . S
N2146 H2158 0.984 . S
N2146 H2159 0.985 . S
N2147 C2149 1.356 . S
N2147 H2152 0.984 . S
N2147 H2153 0.985 . S
C2148 C2142 1.379 . S
C2148 C2145 1.363 . S
C2148 N2146 1.356 . S
C2149 C2143 1.363 . S
C2149 C2144 1.379 . S
C2149 N2147 1.356 . S
N2150 C2142 1.356 . S
N2150 H2156 0.984 . S
N2150 H2157 0.984 . S
N2151 C2144 1.356 . S
N2151 H2154 0.984 . S
N2151 H2155 0.985 . S
H2152 N2147 0.984 . S
H2153 N2147 0.985 . S
H2154 N2151 0.984 . S
H2155 N2151 0.985 . S
H2156 N2150 0.984 . S
H2157 N2150 0.984 . S
H2158 N2146 0.984 . S
H2159 N2146 0.985 . S
C2160 C2161 1.363 . S
C2160 C2166 1.379 . S
C2160 N2168 1.356 . S
C2161 C2160 1.363 . S
C2161 C2167 1.363 . S
C2162 C2163 1.363 . S
C2162 C2167 1.379 . S
C2162 N2169 1.356 . S
C2163 C2162 1.363 . S
C2163 C2166 1.363 . S
N2164 C2166 1.356 . S
N2164 H2176 0.984 . S
N2164 H2177 0.985 . S
N2165 C2167 1.356 . S
N2165 H2170 0.984 . S
N2165 H2171 0.985 . S
C2166 C2160 1.379 . S
C2166 C2163 1.363 . S
C2166 N2164 1.356 . S
C2167 C2161 1.363 . S
C2167 C2162 1.379 . S
C2167 N2165 1.356 . S
N2168 C2160 1.356 . S
N2168 H2174 0.984 . S
N2168 H2175 0.984 . S
N2169 C2162 1.356 . S
N2169 H2172 0.984 . S
N2169 H2173 0.985 . S
H2170 N2165 0.984 . S
H2171 N2165 0.985 . S
H2172 N2169 0.984 . S
H2173 N2169 0.985 . S
H2174 N2168 0.984 . S
H2175 N2168 0.984 . S
H2176 N2164 0.984 . S
H2177 N2164 0.985 . S
C2178 C2179 1.363 . S
C2178 C2184 1.379 . S
C2178 N2186 1.356 . S
C2179 C2178 1.363 . S
C2179 C2185 1.363 . S
C2180 C2181 1.363 . S
C2180 C2185 1.379 . S
C2180 N2187 1.356 . S
C2181 C2180 1.363 . S
C2181 C2184 1.363 . S
N2182 C2184 1.356 . S
N2182 H2194 0.984 . S
N2182 H2195 0.985 . S
N2183 C2185 1.356 . S
N2183 H2188 0.984 . S
N2183 H2189 0.985 . S
C2184 C2178 1.379 . S
C2184 C2181 1.363 . S
C2184 N2182 1.356 . S
C2185 C2179 1.363 . S
C2185 C2180 1.379 . S
C2185 N2183 1.356 . S
N2186 C2178 1.356 . S
N2186 H2192 0.984 . S
N2186 H2193 0.984 . S
N2187 C2180 1.356 . S
N2187 H2190 0.984 . S
N2187 H2191 0.985 . S
H2188 N2183 0.984 . S
H2189 N2183 0.985 . S
H2190 N2187 0.984 . S
H2191 N2187 0.985 . S
H2192 N2186 0.984 . S
H2193 N2186 0.984 . S
H2194 N2182 0.984 . S
H2195 N2182 0.985 . S
C2196 C2197 1.363 . S
C2196 C2202 1.379 . S
C2196 N2204 1.356 . S
C2197 C2196 1.363 . S
C2197 C2203 1.363 . S
C2198 C2199 1.363 . S
C2198 C2203 1.379 . S
C2198 N2205 1.356 . S
C2199 C2198 1.363 . S
C2199 C2202 1.363 . S
N2200 C2202 1.356 . S
N2200 H2212 0.984 . S
N2200 H2213 0.985 . S
N2201 C2203 1.356 . S
N2201 H2206 0.984 . S
N2201 H2207 0.985 . S
C2202 C2196 1.379 . S
C2202 C2199 1.363 . S
C2202 N2200 1.356 . S
C2203 C2197 1.363 . S
C2203 C2198 1.379 . S
C2203 N2201 1.356 . S
N2204 C2196 1.356 . S
N2204 H2210 0.984 . S
N2204 H2211 0.984 . S
N2205 C2198 1.356 . S
N2205 H2208 0.984 . S
N2205 H2209 0.985 . S
H2206 N2201 0.984 . S
H2207 N2201 0.985 . S
H2208 N2205 0.984 . S
H2209 N2205 0.985 . S
H2210 N2204 0.984 . S
H2211 N2204 0.984 . S
H2212 N2200 0.984 . S
H2213 N2200 0.985 . S
C2214 C2215 1.363 . S
C2214 C2220 1.379 . S
C2214 N2222 1.356 . S
C2215 C2214 1.363 . S
C2215 C2221 1.363 . S
C2216 C2217 1.363 . S
C2216 C2221 1.379 . S
C2216 N2223 1.356 . S
C2217 C2216 1.363 . S
C2217 C2220 1.363 . S
N2218 C2220 1.356 . S
N2218 H2230 0.984 . S
N2218 H2231 0.985 . S
N2219 C2221 1.356 . S
N2219 H2224 0.984 . S
N2219 H2225 0.985 . S
C2220 C2214 1.379 . S
C2220 C2217 1.363 . S
C2220 N2218 1.356 . S
C2221 C2215 1.363 . S
C2221 C2216 1.379 . S
C2221 N2219 1.356 . S
N2222 C2214 1.356 . S
N2222 H2228 0.984 . S
N2222 H2229 0.984 . S
N2223 C2216 1.356 . S
N2223 H2226 0.984 . S
N2223 H2227 0.985 . S
H2224 N2219 0.984 . S
H2225 N2219 0.985 . S
H2226 N2223 0.984 . S
H2227 N2223 0.985 . S
H2228 N2222 0.984 . S
H2229 N2222 0.984 . S
H2230 N2218 0.984 . S
H2231 N2218 0.985 . S
C2232 C2233 1.363 . S
C2232 C2238 1.379 . S
C2232 N2240 1.356 . S
C2233 C2232 1.363 . S
C2233 C2239 1.363 . S
C2234 C2235 1.363 . S
C2234 C2239 1.379 . S
C2234 N2241 1.356 . S
C2235 C2234 1.363 . S
C2235 C2238 1.363 . S
N2236 C2238 1.356 . S
N2236 H2248 0.984 . S
N2236 H2249 0.985 . S
N2237 C2239 1.356 . S
N2237 H2242 0.984 . S
N2237 H2243 0.985 . S
C2238 C2232 1.379 . S
C2238 C2235 1.363 . S
C2238 N2236 1.356 . S
C2239 C2233 1.363 . S
C2239 C2234 1.379 . S
C2239 N2237 1.356 . S
N2240 C2232 1.356 . S
N2240 H2246 0.984 . S
N2240 H2247 0.984 . S
N2241 C2234 1.356 . S
N2241 H2244 0.984 . S
N2241 H2245 0.985 . S
H2242 N2237 0.984 . S
H2243 N2237 0.985 . S
H2244 N2241 0.984 . S
H2245 N2241 0.985 . S
H2246 N2240 0.984 . S
H2247 N2240 0.984 . S
H2248 N2236 0.984 . S
H2249 N2236 0.985 . S
C2250 C2251 1.363 . S
C2250 C2256 1.379 . S
C2250 N2258 1.356 . S
C2251 C2250 1.363 . S
C2251 C2257 1.363 . S
C2252 C2253 1.363 . S
C2252 C2257 1.379 . S
C2252 N2259 1.356 . S
C2253 C2252 1.363 . S
C2253 C2256 1.363 . S
N2254 C2256 1.356 . S
N2254 H2266 0.984 . S
N2254 H2267 0.985 . S
N2255 C2257 1.356 . S
N2255 H2260 0.984 . S
N2255 H2261 0.985 . S
C2256 C2250 1.379 . S
C2256 C2253 1.363 . S
C2256 N2254 1.356 . S
C2257 C2251 1.363 . S
C2257 C2252 1.379 . S
C2257 N2255 1.356 . S
N2258 C2250 1.356 . S
N2258 H2264 0.984 . S
N2258 H2265 0.984 . S
N2259 C2252 1.356 . S
N2259 H2262 0.984 . S
N2259 H2263 0.985 . S
H2260 N2255 0.984 . S
H2261 N2255 0.985 . S
H2262 N2259 0.984 . S
H2263 N2259 0.985 . S
H2264 N2258 0.984 . S
H2265 N2258 0.984 . S
H2266 N2254 0.984 . S
H2267 N2254 0.985 . S
C2268 C2269 1.363 . S
C2268 C2274 1.379 . S
C2268 N2276 1.356 . S
C2269 C2268 1.363 . S
C2269 C2275 1.363 . S
C2270 C2271 1.363 . S
C2270 C2275 1.379 . S
C2270 N2277 1.356 . S
C2271 C2270 1.363 . S
C2271 C2274 1.363 . S
N2272 C2274 1.356 . S
N2272 H2284 0.984 . S
N2272 H2285 0.985 . S
N2273 C2275 1.356 . S
N2273 H2278 0.984 . S
N2273 H2279 0.985 . S
C2274 C2268 1.379 . S
C2274 C2271 1.363 . S
C2274 N2272 1.356 . S
C2275 C2269 1.363 . S
C2275 C2270 1.379 . S
C2275 N2273 1.356 . S
N2276 C2268 1.356 . S
N2276 H2282 0.984 . S
N2276 H2283 0.984 . S
N2277 C2270 1.356 . S
N2277 H2280 0.984 . S
N2277 H2281 0.985 . S
H2278 N2273 0.984 . S
H2279 N2273 0.985 . S
H2280 N2277 0.984 . S
H2281 N2277 0.985 . S
H2282 N2276 0.984 . S
H2283 N2276 0.984 . S
H2284 N2272 0.984 . S
H2285 N2272 0.985 . S
C2286 C2287 1.363 . S
C2286 C2292 1.379 . S
C2286 N2294 1.356 . S
C2287 C2286 1.363 . S
C2287 C2293 1.363 . S
C2288 C2289 1.363 . S
C2288 C2293 1.379 . S
C2288 N2295 1.356 . S
C2289 C2288 1.363 . S
C2289 C2292 1.363 . S
N2290 C2292 1.356 . S
N2290 H2302 0.984 . S
N2290 H2303 0.985 . S
N2291 C2293 1.356 . S
N2291 H2296 0.984 . S
N2291 H2297 0.985 . S
C2292 C2286 1.379 . S
C2292 C2289 1.363 . S
C2292 N2290 1.356 . S
C2293 C2287 1.363 . S
C2293 C2288 1.379 . S
C2293 N2291 1.356 . S
N2294 C2286 1.356 . S
N2294 H2300 0.984 . S
N2294 H2301 0.984 . S
N2295 C2288 1.356 . S
N2295 H2298 0.984 . S
N2295 H2299 0.985 . S
H2296 N2291 0.984 . S
H2297 N2291 0.985 . S
H2298 N2295 0.984 . S
H2299 N2295 0.985 . S
H2300 N2294 0.984 . S
H2301 N2294 0.984 . S
H2302 N2290 0.984 . S
H2303 N2290 0.985 . S
C2304 C2305 1.363 . S
C2304 C2310 1.379 . S
C2304 N2312 1.356 . S
C2305 C2304 1.363 . S
C2305 C2311 1.363 . S
C2306 C2307 1.363 . S
C2306 C2311 1.379 . S
C2306 N2313 1.356 . S
C2307 C2306 1.363 . S
C2307 C2310 1.363 . S
N2308 C2310 1.356 . S
N2308 H2320 0.984 . S
N2308 H2321 0.985 . S
N2309 C2311 1.356 . S
N2309 H2314 0.984 . S
N2309 H2315 0.985 . S
C2310 C2304 1.379 . S
C2310 C2307 1.363 . S
C2310 N2308 1.356 . S
C2311 C2305 1.363 . S
C2311 C2306 1.379 . S
C2311 N2309 1.356 . S
N2312 C2304 1.356 . S
N2312 H2318 0.984 . S
N2312 H2319 0.984 . S
N2313 C2306 1.356 . S
N2313 H2316 0.984 . S
N2313 H2317 0.985 . S
H2314 N2309 0.984 . S
H2315 N2309 0.985 . S
H2316 N2313 0.984 . S
H2317 N2313 0.985 . S
H2318 N2312 0.984 . S
H2319 N2312 0.984 . S
H2320 N2308 0.984 . S
H2321 N2308 0.985 . S
C2322 C2323 1.363 . S
C2322 C2328 1.379 . S
C2322 N2330 1.356 . S
C2323 C2322 1.363 . S
C2323 C2329 1.363 . S
C2324 C2325 1.363 . S
C2324 C2329 1.379 . S
C2324 N2331 1.356 . S
C2325 C2324 1.363 . S
C2325 C2328 1.363 . S
N2326 C2328 1.356 . S
N2326 H2338 0.984 . S
N2326 H2339 0.985 . S
N2327 C2329 1.356 . S
N2327 H2332 0.984 . S
N2327 H2333 0.985 . S
C2328 C2322 1.379 . S
C2328 C2325 1.363 . S
C2328 N2326 1.356 . S
C2329 C2323 1.363 . S
C2329 C2324 1.379 . S
C2329 N2327 1.356 . S
N2330 C2322 1.356 . S
N2330 H2336 0.984 . S
N2330 H2337 0.984 . S
N2331 C2324 1.356 . S
N2331 H2334 0.984 . S
N2331 H2335 0.985 . S
H2332 N2327 0.984 . S
H2333 N2327 0.985 . S
H2334 N2331 0.984 . S
H2335 N2331 0.985 . S
H2336 N2330 0.984 . S
H2337 N2330 0.984 . S
H2338 N2326 0.984 . S
H2339 N2326 0.985 . S
C2340 C2341 1.363 . S
C2340 C2346 1.379 . S
C2340 N2348 1.356 . S
C2341 C2340 1.363 . S
C2341 C2347 1.363 . S
C2342 C2343 1.363 . S
C2342 C2347 1.379 . S
C2342 N2349 1.356 . S
C2343 C2342 1.363 . S
C2343 C2346 1.363 . S
N2344 C2346 1.356 . S
N2344 H2356 0.984 . S
N2344 H2357 0.985 . S
N2345 C2347 1.356 . S
N2345 H2350 0.984 . S
N2345 H2351 0.985 . S
C2346 C2340 1.379 . S
C2346 C2343 1.363 . S
C2346 N2344 1.356 . S
C2347 C2341 1.363 . S
C2347 C2342 1.379 . S
C2347 N2345 1.356 . S
N2348 C2340 1.356 . S
N2348 H2354 0.984 . S
N2348 H2355 0.984 . S
N2349 C2342 1.356 . S
N2349 H2352 0.984 . S
N2349 H2353 0.985 . S
H2350 N2345 0.984 . S
H2351 N2345 0.985 . S
H2352 N2349 0.984 . S
H2353 N2349 0.985 . S
H2354 N2348 0.984 . S
H2355 N2348 0.984 . S
H2356 N2344 0.984 . S
H2357 N2344 0.985 . S
C2358 C2359 1.363 . S
C2358 C2364 1.379 1_554 S
C2358 N2366 1.356 . S
C2359 C2358 1.363 . S
C2359 C2365 1.363 . S
C2360 C2361 1.363 . S
C2360 C2365 1.379 1_556 S
C2360 N2367 1.356 . S
C2361 C2360 1.363 . S
C2361 C2364 1.363 . S
N2362 C2364 1.356 . S
N2362 H2374 0.984 . S
N2362 H2375 0.985 . S
N2363 C2365 1.356 . S
N2363 H2368 0.984 . S
N2363 H2369 0.985 . S
C2364 C2358 1.379 1_556 S
C2364 C2361 1.363 . S
C2364 N2362 1.356 . S
C2365 C2359 1.363 . S
C2365 C2360 1.379 1_554 S
C2365 N2363 1.356 . S
N2366 C2358 1.356 . S
N2366 H2372 0.984 . S
N2366 H2373 0.984 . S
N2367 C2360 1.356 . S
N2367 H2370 0.984 . S
N2367 H2371 0.985 . S
H2368 N2363 0.984 . S
H2369 N2363 0.985 . S
H2370 N2367 0.984 . S
H2371 N2367 0.985 . S
H2372 N2366 0.984 . S
H2373 N2366 0.984 . S
H2374 N2362 0.984 . S
H2375 N2362 0.985 . S
C2376 C2377 1.363 . S
C2376 C2382 1.379 1_556 S
C2376 N2384 1.356 . S
C2377 C2376 1.363 . S
C2377 C2383 1.363 . S
C2378 C2379 1.363 . S
C2378 C2383 1.379 1_554 S
C2378 N2385 1.356 . S
C2379 C2378 1.363 . S
C2379 C2382 1.363 . S
N2380 C2382 1.356 . S
N2380 H2392 0.984 . S
N2380 H2393 0.985 . S
N2381 C2383 1.356 . S
N2381 H2386 0.984 . S
N2381 H2387 0.985 . S
C2382 C2376 1.379 1_554 S
C2382 C2379 1.363 . S
C2382 N2380 1.356 . S
C2383 C2377 1.363 . S
C2383 C2378 1.379 1_556 S
C2383 N2381 1.356 . S
N2384 C2376 1.356 . S
N2384 H2390 0.984 . S
N2384 H2391 0.984 . S
N2385 C2378 1.356 . S
N2385 H2388 0.984 . S
N2385 H2389 0.985 . S
H2386 N2381 0.984 . S
H2387 N2381 0.985 . S
H2388 N2385 0.984 . S
H2389 N2385 0.985 . S
H2390 N2384 0.984 . S
H2391 N2384 0.984 . S
H2392 N2380 0.984 . S
H2393 N2380 0.985 . S
C2394 C2395 1.363 . S
C2394 C2400 1.379 1_554 S
C2394 N2402 1.356 . S
C2395 C2394 1.363 . S
C2395 C2401 1.363 . S
C2396 C2397 1.363 . S
C2396 C2401 1.379 1_556 S
C2396 N2403 1.356 . S
C2397 C2396 1.363 . S
C2397 C2400 1.363 . S
N2398 C2400 1.356 . S
N2398 H2410 0.984 . S
N2398 H2411 0.985 . S
N2399 C2401 1.356 . S
N2399 H2404 0.984 . S
N2399 H2405 0.985 . S
C2400 C2394 1.379 1_556 S
C2400 C2397 1.363 . S
C2400 N2398 1.356 . S
C2401 C2395 1.363 . S
C2401 C2396 1.379 1_554 S
C2401 N2399 1.356 . S
N2402 C2394 1.356 . S
N2402 H2408 0.984 . S
N2402 H2409 0.984 . S
N2403 C2396 1.356 . S
N2403 H2406 0.984 . S
N2403 H2407 0.985 . S
H2404 N2399 0.984 . S
H2405 N2399 0.985 . S
H2406 N2403 0.984 . S
H2407 N2403 0.985 . S
H2408 N2402 0.984 . S
H2409 N2402 0.984 . S
H2410 N2398 0.984 . S
H2411 N2398 0.985 . S
C2412 C2413 1.363 . S
C2412 C2418 1.379 . S
C2412 N2420 1.356 . S
C2413 C2412 1.363 . S
C2413 C2419 1.363 . S
C2414 C2415 1.363 . S
C2414 C2419 1.379 . S
C2414 N2421 1.356 . S
C2415 C2414 1.363 . S
C2415 C2418 1.363 . S
N2416 C2418 1.356 . S
N2416 H2428 0.984 . S
N2416 H2429 0.985 . S
N2417 C2419 1.356 . S
N2417 H2422 0.984 . S
N2417 H2423 0.985 . S
C2418 C2412 1.379 . S
C2418 C2415 1.363 . S
C2418 N2416 1.356 . S
C2419 C2413 1.363 . S
C2419 C2414 1.379 . S
C2419 N2417 1.356 . S
N2420 C2412 1.356 . S
N2420 H2426 0.984 . S
N2420 H2427 0.984 . S
N2421 C2414 1.356 . S
N2421 H2424 0.984 . S
N2421 H2425 0.985 . S
H2422 N2417 0.984 . S
H2423 N2417 0.985 . S
H2424 N2421 0.984 . S
H2425 N2421 0.985 . S
H2426 N2420 0.984 . S
H2427 N2420 0.984 . S
H2428 N2416 0.984 . S
H2429 N2416 0.985 . S
C2430 C2431 1.363 . S
C2430 C2436 1.379 . S
C2430 N2438 1.356 . S
C2431 C2430 1.363 . S
C2431 C2437 1.363 . S
C2432 C2433 1.363 . S
C2432 C2437 1.379 . S
C2432 N2439 1.356 . S
C2433 C2432 1.363 . S
C2433 C2436 1.363 . S
N2434 C2436 1.356 . S
N2434 H2446 0.984 . S
N2434 H2447 0.985 . S
N2435 C2437 1.356 . S
N2435 H2440 0.984 . S
N2435 H2441 0.985 . S
C2436 C2430 1.379 . S
C2436 C2433 1.363 . S
C2436 N2434 1.356 . S
C2437 C2431 1.363 . S
C2437 C2432 1.379 . S
C2437 N2435 1.356 . S
N2438 C2430 1.356 . S
N2438 H2444 0.984 . S
N2438 H2445 0.984 . S
N2439 C2432 1.356 . S
N2439 H2442 0.984 . S
N2439 H2443 0.985 . S
H2440 N2435 0.984 . S
H2441 N2435 0.985 . S
H2442 N2439 0.984 . S
H2443 N2439 0.985 . S
H2444 N2438 0.984 . S
H2445 N2438 0.984 . S
H2446 N2434 0.984 . S
H2447 N2434 0.985 . S
C2448 C2449 1.363 . S
C2448 C2454 1.379 . S
C2448 N2456 1.356 . S
C2449 C2448 1.363 . S
C2449 C2455 1.363 . S
C2450 C2451 1.363 . S
C2450 C2455 1.379 . S
C2450 N2457 1.356 . S
C2451 C2450 1.363 . S
C2451 C2454 1.363 . S
N2452 C2454 1.356 . S
N2452 H2464 0.984 . S
N2452 H2465 0.985 . S
N2453 C2455 1.356 . S
N2453 H2458 0.984 . S
N2453 H2459 0.985 . S
C2454 C2448 1.379 . S
C2454 C2451 1.363 . S
C2454 N2452 1.356 . S
C2455 C2449 1.363 . S
C2455 C2450 1.379 . S
C2455 N2453 1.356 . S
N2456 C2448 1.356 . S
N2456 H2462 0.984 . S
N2456 H2463 0.984 . S
N2457 C2450 1.356 . S
N2457 H2460 0.984 . S
N2457 H2461 0.985 . S
H2458 N2453 0.984 . S
H2459 N2453 0.985 . S
H2460 N2457 0.984 . S
H2461 N2457 0.985 . S
H2462 N2456 0.984 . S
H2463 N2456 0.984 . S
H2464 N2452 0.984 . S
H2465 N2452 0.985 . S
C2466 C2467 1.363 . S
C2466 C2472 1.379 . S
C2466 N2474 1.356 . S
C2467 C2466 1.363 . S
C2467 C2473 1.363 . S
C2468 C2469 1.363 . S
C2468 C2473 1.379 . S
C2468 N2475 1.356 . S
C2469 C2468 1.363 . S
C2469 C2472 1.363 . S
N2470 C2472 1.356 . S
N2470 H2482 0.984 . S
N2470 H2483 0.985 . S
N2471 C2473 1.356 . S
N2471 H2476 0.984 . S
N2471 H2477 0.985 . S
C2472 C2466 1.379 . S
C2472 C2469 1.363 . S
C2472 N2470 1.356 . S
C2473 C2467 1.363 . S
C2473 C2468 1.379 . S
C2473 N2471 1.356 . S
N2474 C2466 1.356 . S
N2474 H2480 0.984 . S
N2474 H2481 0.984 . S
N2475 C2468 1.356 . S
N2475 H2478 0.984 . S
N2475 H2479 0.985 . S
H2476 N2471 0.984 . S
H2477 N2471 0.985 . S
H2478 N2475 0.984 . S
H2479 N2475 0.985 . S
H2480 N2474 0.984 . S
H2481 N2474 0.984 . S
H2482 N2470 0.984 . S
H2483 N2470 0.985 . S
C2484 C2485 1.363 . S
C2484 C2490 1.379 . S
C2484 N2492 1.356 . S
C2485 C2484 1.363 . S
C2485 C2491 1.363 . S
C2486 C2487 1.363 . S
C2486 C2491 1.379 . S
C2486 N2493 1.356 . S
C2487 C2486 1.363 . S
C2487 C2490 1.363 . S
N2488 C2490 1.356 . S
N2488 H2500 0.984 . S
N2488 H2501 0.985 . S
N2489 C2491 1.356 . S
N2489 H2494 0.984 . S
N2489 H2495 0.985 . S
C2490 C2484 1.379 . S
C2490 C2487 1.363 . S
C2490 N2488 1.356 . S
C2491 C2485 1.363 . S
C2491 C2486 1.379 . S
C2491 N2489 1.356 . S
N2492 C2484 1.356 . S
N2492 H2498 0.984 . S
N2492 H2499 0.984 . S
N2493 C2486 1.356 . S
N2493 H2496 0.984 . S
N2493 H2497 0.985 . S
H2494 N2489 0.984 . S
H2495 N2489 0.985 . S
H2496 N2493 0.984 . S
H2497 N2493 0.985 . S
H2498 N2492 0.984 . S
H2499 N2492 0.984 . S
H2500 N2488 0.984 . S
H2501 N2488 0.985 . S
C2502 C2503 1.363 . S
C2502 C2508 1.379 . S
C2502 N2510 1.356 . S
C2503 C2502 1.363 . S
C2503 C2509 1.363 . S
C2504 C2505 1.363 . S
C2504 C2509 1.379 . S
C2504 N2511 1.356 . S
C2505 C2504 1.363 . S
C2505 C2508 1.363 . S
N2506 C2508 1.356 . S
N2506 H2518 0.984 . S
N2506 H2519 0.985 . S
N2507 C2509 1.356 . S
N2507 H2512 0.984 . S
N2507 H2513 0.985 . S
C2508 C2502 1.379 . S
C2508 C2505 1.363 . S
C2508 N2506 1.356 . S
C2509 C2503 1.363 . S
C2509 C2504 1.379 . S
C2509 N2507 1.356 . S
N2510 C2502 1.356 . S
N2510 H2516 0.984 . S
N2510 H2517 0.984 . S
N2511 C2504 1.356 . S
N2511 H2514 0.984 . S
N2511 H2515 0.985 . S
H2512 N2507 0.984 . S
H2513 N2507 0.985 . S
H2514 N2511 0.984 . S
H2515 N2511 0.985 . S
H2516 N2510 0.984 . S
H2517 N2510 0.984 . S
H2518 N2506 0.984 . S
H2519 N2506 0.985 . S
C2520 C2521 1.363 . S
C2520 C2526 1.379 . S
C2520 N2528 1.356 . S
C2521 C2520 1.363 . S
C2521 C2527 1.363 . S
C2522 C2523 1.363 . S
C2522 C2527 1.379 . S
C2522 N2529 1.356 . S
C2523 C2522 1.363 . S
C2523 C2526 1.363 . S
N2524 C2526 1.356 . S
N2524 H2536 0.984 . S
N2524 H2537 0.985 . S
N2525 C2527 1.356 . S
N2525 H2530 0.984 . S
N2525 H2531 0.985 . S
C2526 C2520 1.379 . S
C2526 C2523 1.363 . S
C2526 N2524 1.356 . S
C2527 C2521 1.363 . S
C2527 C2522 1.379 . S
C2527 N2525 1.356 . S
N2528 C2520 1.356 . S
N2528 H2534 0.984 . S
N2528 H2535 0.984 . S
N2529 C2522 1.356 . S
N2529 H2532 0.984 . S
N2529 H2533 0.985 . S
H2530 N2525 0.984 . S
H2531 N2525 0.985 . S
H2532 N2529 0.984 . S
H2533 N2529 0.985 . S
H2534 N2528 0.984 . S
H2535 N2528 0.984 . S
H2536 N2524 0.984 . S
H2537 N2524 0.985 . S
C2538 C2539 1.363 . S
C2538 C2544 1.379 . S
C2538 N2546 1.356 . S
C2539 C2538 1.363 . S
C2539 C2545 1.363 . S
C2540 C2541 1.363 . S
C2540 C2545 1.379 . S
C2540 N2547 1.356 . S
C2541 C2540 1.363 . S
C2541 C2544 1.363 . S
N2542 C2544 1.356 . S
N2542 H2554 0.984 . S
N2542 H2555 0.985 . S
N2543 C2545 1.356 . S
N2543 H2548 0.984 . S
N2543 H2549 0.985 . S
C2544 C2538 1.379 . S
C2544 C2541 1.363 . S
C2544 N2542 1.356 . S
C2545 C2539 1.363 . S
C2545 C2540 1.379 . S
C2545 N2543 1.356 . S
N2546 C2538 1.356 . S
N2546 H2552 0.984 . S
N2546 H2553 0.984 . S
N2547 C2540 1.356 . S
N2547 H2550 0.984 . S
N2547 H2551 0.985 . S
H2548 N2543 0.984 . S
H2549 N2543 0.985 . S
H2550 N2547 0.984 . S
H2551 N2547 0.985 . S
H2552 N2546 0.984 . S
H2553 N2546 0.984 . S
H2554 N2542 0.984 . S
H2555 N2542 0.985 . S
C2556 C2557 1.363 . S
C2556 C2562 1.379 . S
C2556 N2564 1.356 . S
C2557 C2556 1.363 . S
C2557 C2563 1.363 . S
C2558 C2559 1.363 . S
C2558 C2563 1.379 . S
C2558 N2565 1.356 . S
C2559 C2558 1.363 . S
C2559 C2562 1.363 . S
N2560 C2562 1.356 . S
N2560 H2572 0.984 . S
N2560 H2573 0.985 . S
N2561 C2563 1.356 . S
N2561 H2566 0.984 . S
N2561 H2567 0.985 . S
C2562 C2556 1.379 . S
C2562 C2559 1.363 . S
C2562 N2560 1.356 . S
C2563 C2557 1.363 . S
C2563 C2558 1.379 . S
C2563 N2561 1.356 . S
N2564 C2556 1.356 . S
N2564 H2570 0.984 . S
N2564 H2571 0.984 . S
N2565 C2558 1.356 . S
N2565 H2568 0.984 . S
N2565 H2569 0.985 . S
H2566 N2561 0.984 . S
H2567 N2561 0.985 . S
H2568 N2565 0.984 . S
H2569 N2565 0.985 . S
H2570 N2564 0.984 . S
H2571 N2564 0.984 . S
H2572 N2560 0.984 . S
H2573 N2560 0.985 . S
C2574 C2575 1.363 . S
C2574 C2580 1.379 . S
C2574 N2582 1.356 . S
C2575 C2574 1.363 . S
C2575 C2581 1.363 . S
C2576 C2577 1.363 . S
C2576 C2581 1.379 . S
C2576 N2583 1.356 . S
C2577 C2576 1.363 . S
C2577 C2580 1.363 . S
N2578 C2580 1.356 . S
N2578 H2590 0.984 . S
N2578 H2591 0.985 . S
N2579 C2581 1.356 . S
N2579 H2584 0.984 . S
N2579 H2585 0.985 . S
C2580 C2574 1.379 . S
C2580 C2577 1.363 . S
C2580 N2578 1.356 . S
C2581 C2575 1.363 . S
C2581 C2576 1.379 . S
C2581 N2579 1.356 . S
N2582 C2574 1.356 . S
N2582 H2588 0.984 . S
N2582 H2589 0.984 . S
N2583 C2576 1.356 . S
N2583 H2586 0.984 . S
N2583 H2587 0.985 . S
H2584 N2579 0.984 . S
H2585 N2579 0.985 . S
H2586 N2583 0.984 . S
H2587 N2583 0.985 . S
H2588 N2582 0.984 . S
H2589 N2582 0.984 . S
H2590 N2578 0.984 . S
H2591 N2578 0.985 . S
C2592 C2593 1.363 . S
C2592 C2598 1.379 . S
C2592 N2600 1.356 . S
C2593 C2592 1.363 . S
C2593 C2599 1.363 . S
C2594 C2595 1.363 . S
C2594 C2599 1.379 . S
C2594 N2601 1.356 . S
C2595 C2594 1.363 . S
C2595 C2598 1.363 . S
N2596 C2598 1.356 . S
N2596 H2608 0.984 . S
N2596 H2609 0.985 . S
N2597 C2599 1.356 . S
N2597 H2602 0.984 . S
N2597 H2603 0.985 . S
C2598 C2592 1.379 . S
C2598 C2595 1.363 . S
C2598 N2596 1.356 . S
C2599 C2593 1.363 . S
C2599 C2594 1.379 . S
C2599 N2597 1.356 . S
N2600 C2592 1.356 . S
N2600 H2606 0.984 . S
N2600 H2607 0.984 . S
N2601 C2594 1.356 . S
N2601 H2604 0.984 . S
N2601 H2605 0.985 . S
H2602 N2597 0.984 . S
H2603 N2597 0.985 . S
H2604 N2601 0.984 . S
H2605 N2601 0.985 . S
H2606 N2600 0.984 . S
H2607 N2600 0.984 . S
H2608 N2596 0.984 . S
H2609 N2596 0.985 . S
C2610 C2611 1.363 . S
C2610 C2616 1.379 . S
C2610 N2618 1.356 . S
C2611 C2610 1.363 . S
C2611 C2617 1.363 . S
C2612 C2613 1.363 . S
C2612 C2617 1.379 . S
C2612 N2619 1.356 . S
C2613 C2612 1.363 . S
C2613 C2616 1.363 . S
N2614 C2616 1.356 . S
N2614 H2626 0.984 . S
N2614 H2627 0.985 . S
N2615 C2617 1.356 . S
N2615 H2620 0.984 . S
N2615 H2621 0.985 . S
C2616 C2610 1.379 . S
C2616 C2613 1.363 . S
C2616 N2614 1.356 . S
C2617 C2611 1.363 . S
C2617 C2612 1.379 . S
C2617 N2615 1.356 . S
N2618 C2610 1.356 . S
N2618 H2624 0.984 . S
N2618 H2625 0.984 . S
N2619 C2612 1.356 . S
N2619 H2622 0.984 . S
N2619 H2623 0.985 . S
H2620 N2615 0.984 . S
H2621 N2615 0.985 . S
H2622 N2619 0.984 . S
H2623 N2619 0.985 . S
H2624 N2618 0.984 . S
H2625 N2618 0.984 . S
H2626 N2614 0.984 . S
H2627 N2614 0.985 . S
C2628 C2629 1.363 . S
C2628 C2634 1.379 . S
C2628 N2636 1.356 . S
C2629 C2628 1.363 . S
C2629 C2635 1.363 . S
C2630 C2631 1.363 . S
C2630 C2635 1.379 . S
C2630 N2637 1.356 . S
C2631 C2630 1.363 . S
C2631 C2634 1.363 . S
N2632 C2634 1.356 . S
N2632 H2644 0.984 . S
N2632 H2645 0.985 . S
N2633 C2635 1.356 . S
N2633 H2638 0.984 . S
N2633 H2639 0.985 . S
C2634 C2628 1.379 . S
C2634 C2631 1.363 . S
C2634 N2632 1.356 . S
C2635 C2629 1.363 . S
C2635 C2630 1.379 . S
C2635 N2633 1.356 . S
N2636 C2628 1.356 . S
N2636 H2642 0.984 . S
N2636 H2643 0.984 . S
N2637 C2630 1.356 . S
N2637 H2640 0.984 . S
N2637 H2641 0.985 . S
H2638 N2633 0.984 . S
H2639 N2633 0.985 . S
H2640 N2637 0.984 . S
H2641 N2637 0.985 . S
H2642 N2636 0.984 . S
H2643 N2636 0.984 . S
H2644 N2632 0.984 . S
H2645 N2632 0.985 . S
C2646 C2647 1.363 . S
C2646 C2652 1.379 . S
C2646 N2654 1.356 . S
C2647 C2646 1.363 . S
C2647 C2653 1.363 . S
C2648 C2649 1.363 . S
C2648 C2653 1.379 . S
C2648 N2655 1.356 . S
C2649 C2648 1.363 . S
C2649 C2652 1.363 . S
N2650 C2652 1.356 . S
N2650 H2662 0.984 . S
N2650 H2663 0.985 . S
N2651 C2653 1.356 . S
N2651 H2656 0.984 . S
N2651 H2657 0.985 . S
C2652 C2646 1.379 . S
C2652 C2649 1.363 . S
C2652 N2650 1.356 . S
C2653 C2647 1.363 . S
C2653 C2648 1.379 . S
C2653 N2651 1.356 . S
N2654 C2646 1.356 . S
N2654 H2660 0.984 . S
N2654 H2661 0.984 . S
N2655 C2648 1.356 . S
N2655 H2658 0.984 . S
N2655 H2659 0.985 . S
H2656 N2651 0.984 . S
H2657 N2651 0.985 . S
H2658 N2655 0.984 . S
H2659 N2655 0.985 . S
H2660 N2654 0.984 . S
H2661 N2654 0.984 . S
H2662 N2650 0.984 . S
H2663 N2650 0.985 . S
C2664 C2665 1.363 . S
C2664 C2670 1.379 . S
C2664 N2672 1.356 . S
C2665 C2664 1.363 . S
C2665 C2671 1.363 . S
C2666 C2667 1.363 . S
C2666 C2671 1.379 . S
C2666 N2673 1.356 . S
C2667 C2666 1.363 . S
C2667 C2670 1.363 . S
N2668 C2670 1.356 . S
N2668 H2680 0.984 . S
N2668 H2681 0.985 . S
N2669 C2671 1.356 . S
N2669 H2674 0.984 . S
N2669 H2675 0.985 . S
C2670 C2664 1.379 . S
C2670 C2667 1.363 . S
C2670 N2668 1.356 . S
C2671 C2665 1.363 . S
C2671 C2666 1.379 . S
C2671 N2669 1.356 . S
N2672 C2664 1.356 . S
N2672 H2678 0.984 . S
N2672 H2679 0.984 . S
N2673 C2666 1.356 . S
N2673 H2676 0.984 . S
N2673 H2677 0.985 . S
H2674 N2669 0.984 . S
H2675 N2669 0.985 . S
H2676 N2673 0.984 . S
H2677 N2673 0.985 . S
H2678 N2672 0.984 . S
H2679 N2672 0.984 . S
H2680 N2668 0.984 . S
H2681 N2668 0.985 . S
C2682 C2683 1.363 . S
C2682 C2688 1.379 . S
C2682 N2690 1.356 . S
C2683 C2682 1.363 . S
C2683 C2689 1.363 . S
C2684 C2685 1.363 . S
C2684 C2689 1.379 . S
C2684 N2691 1.356 . S
C2685 C2684 1.363 . S
C2685 C2688 1.363 . S
N2686 C2688 1.356 . S
N2686 H2698 0.984 . S
N2686 H2699 0.985 . S
N2687 C2689 1.356 . S
N2687 H2692 0.984 . S
N2687 H2693 0.985 . S
C2688 C2682 1.379 . S
C2688 C2685 1.363 . S
C2688 N2686 1.356 . S
C2689 C2683 1.363 . S
C2689 C2684 1.379 . S
C2689 N2687 1.356 . S
N2690 C2682 1.356 . S
N2690 H2696 0.984 . S
N2690 H2697 0.984 . S
N2691 C2684 1.356 . S
N2691 H2694 0.984 . S
N2691 H2695 0.985 . S
H2692 N2687 0.984 . S
H2693 N2687 0.985 . S
H2694 N2691 0.984 . S
H2695 N2691 0.985 . S
H2696 N2690 0.984 . S
H2697 N2690 0.984 . S
H2698 N2686 0.984 . S
H2699 N2686 0.985 . S
C2700 C2701 1.363 . S
C2700 C2706 1.379 . S
C2700 N2708 1.356 . S
C2701 C2700 1.363 . S
C2701 C2707 1.363 . S
C2702 C2703 1.363 . S
C2702 C2707 1.379 . S
C2702 N2709 1.356 . S
C2703 C2702 1.363 . S
C2703 C2706 1.363 . S
N2704 C2706 1.356 . S
N2704 H2716 0.984 . S
N2704 H2717 0.985 . S
N2705 C2707 1.356 . S
N2705 H2710 0.984 . S
N2705 H2711 0.985 . S
C2706 C2700 1.379 . S
C2706 C2703 1.363 . S
C2706 N2704 1.356 . S
C2707 C2701 1.363 . S
C2707 C2702 1.379 . S
C2707 N2705 1.356 . S
N2708 C2700 1.356 . S
N2708 H2714 0.984 . S
N2708 H2715 0.984 . S
N2709 C2702 1.356 . S
N2709 H2712 0.984 . S
N2709 H2713 0.985 . S
H2710 N2705 0.984 . S
H2711 N2705 0.985 . S
H2712 N2709 0.984 . S
H2713 N2709 0.985 . S
H2714 N2708 0.984 . S
H2715 N2708 0.984 . S
H2716 N2704 0.984 . S
H2717 N2704 0.985 . S
C2718 C2719 1.363 . S
C2718 C2724 1.379 . S
C2718 N2726 1.356 . S
C2719 C2718 1.363 . S
C2719 C2725 1.363 . S
C2720 C2721 1.363 . S
C2720 C2725 1.379 . S
C2720 N2727 1.356 . S
C2721 C2720 1.363 . S
C2721 C2724 1.363 . S
N2722 C2724 1.356 . S
N2722 H2734 0.984 . S
N2722 H2735 0.985 . S
N2723 C2725 1.356 . S
N2723 H2728 0.984 . S
N2723 H2729 0.985 . S
C2724 C2718 1.379 . S
C2724 C2721 1.363 . S
C2724 N2722 1.356 . S
C2725 C2719 1.363 . S
C2725 C2720 1.379 . S
C2725 N2723 1.356 . S
N2726 C2718 1.356 . S
N2726 H2732 0.984 . S
N2726 H2733 0.984 . S
N2727 C2720 1.356 . S
N2727 H2730 0.984 . S
N2727 H2731 0.985 . S
H2728 N2723 0.984 . S
H2729 N2723 0.985 . S
H2730 N2727 0.984 . S
H2731 N2727 0.985 . S
H2732 N2726 0.984 . S
H2733 N2726 0.984 . S
H2734 N2722 0.984 . S
H2735 N2722 0.985 . S
C2736 C2737 1.363 . S
C2736 C2742 1.379 . S
C2736 N2744 1.356 . S
C2737 C2736 1.363 . S
C2737 C2743 1.363 1_455 S
C2738 C2739 1.363 . S
C2738 C2743 1.379 . S
C2738 N2745 1.356 . S
C2739 C2738 1.363 . S
C2739 C2742 1.363 1_655 S
N2740 C2742 1.356 . S
N2740 H2752 0.984 . S
N2740 H2753 0.985 1_455 S
N2741 C2743 1.356 . S
N2741 H2746 0.984 1_655 S
N2741 H2747 0.985 . S
C2742 C2736 1.379 . S
C2742 C2739 1.363 1_455 S
C2742 N2740 1.356 . S
C2743 C2737 1.363 1_655 S
C2743 C2738 1.379 . S
C2743 N2741 1.356 . S
N2744 C2736 1.356 . S
N2744 H2750 0.984 . S
N2744 H2751 0.984 . S
N2745 C2738 1.356 . S
N2745 H2748 0.984 . S
N2745 H2749 0.985 . S
H2746 N2741 0.984 1_455 S
H2747 N2741 0.985 . S
H2748 N2745 0.984 . S
H2749 N2745 0.985 . S
H2750 N2744 0.984 . S
H2751 N2744 0.984 . S
H2752 N2740 0.984 . S
H2753 N2740 0.985 1_655 S
C2754 C2755 1.363 . S
C2754 C2760 1.379 . S
C2754 N2762 1.356 . S
C2755 C2754 1.363 . S
C2755 C2761 1.363 . S
C2756 C2757 1.363 . S
C2756 C2761 1.379 . S
C2756 N2763 1.356 . S
C2757 C2756 1.363 . S
C2757 C2760 1.363 . S
N2758 C2760 1.356 . S
N2758 H2770 0.984 . S
N2758 H2771 0.985 . S
N2759 C2761 1.356 . S
N2759 H2764 0.984 . S
N2759 H2765 0.985 . S
C2760 C2754 1.379 . S
C2760 C2757 1.363 . S
C2760 N2758 1.356 . S
C2761 C2755 1.363 . S
C2761 C2756 1.379 . S
C2761 N2759 1.356 . S
N2762 C2754 1.356 . S
N2762 H2768 0.984 . S
N2762 H2769 0.984 . S
N2763 C2756 1.356 . S
N2763 H2766 0.984 . S
N2763 H2767 0.985 . S
H2764 N2759 0.984 . S
H2765 N2759 0.985 . S
H2766 N2763 0.984 . S
H2767 N2763 0.985 . S
H2768 N2762 0.984 . S
H2769 N2762 0.984 . S
H2770 N2758 0.984 . S
H2771 N2758 0.985 . S
C2772 C2773 1.363 . S
C2772 C2778 1.379 . S
C2772 N2780 1.356 . S
C2773 C2772 1.363 . S
C2773 C2779 1.363 1_565 S
C2774 C2775 1.363 . S
C2774 C2779 1.379 . S
C2774 N2781 1.356 . S
C2775 C2774 1.363 . S
C2775 C2778 1.363 1_545 S
N2776 C2778 1.356 . S
N2776 H2788 0.984 . S
N2776 H2789 0.985 1_565 S
N2777 C2779 1.356 . S
N2777 H2782 0.984 1_545 S
N2777 H2783 0.985 . S
C2778 C2772 1.379 . S
C2778 C2775 1.363 1_565 S
C2778 N2776 1.356 . S
C2779 C2773 1.363 1_545 S
C2779 C2774 1.379 . S
C2779 N2777 1.356 . S
N2780 C2772 1.356 . S
N2780 H2786 0.984 . S
N2780 H2787 0.984 . S
N2781 C2774 1.356 . S
N2781 H2784 0.984 . S
N2781 H2785 0.985 . S
H2782 N2777 0.984 1_565 S
H2783 N2777 0.985 . S
H2784 N2781 0.984 . S
H2785 N2781 0.985 . S
H2786 N2780 0.984 . S
H2787 N2780 0.984 . S
H2788 N2776 0.984 . S
H2789 N2776 0.985 1_545 S
C2790 C2791 1.363 . S
C2790 C2796 1.379 1_655 S
C2790 N2798 1.356 . S
C2791 C2790 1.363 . S
C2791 C2797 1.363 . S
C2792 C2793 1.363 . S
C2792 C2797 1.379 1_455 S
C2792 N2799 1.356 . S
C2793 C2792 1.363 . S
C2793 C2796 1.363 . S
N2794 C2796 1.356 . S
N2794 H2806 0.984 . S
N2794 H2807 0.985 . S
N2795 C2797 1.356 . S
N2795 H2800 0.984 . S
N2795 H2801 0.985 . S
C2796 C2790 1.379 1_455 S
C2796 C2793 1.363 . S
C2796 N2794 1.356 . S
C2797 C2791 1.363 . S
C2797 C2792 1.379 1_655 S
C2797 N2795 1.356 . S
N2798 C2790 1.356 . S
N2798 H2804 0.984 . S
N2798 H2805 0.984 . S
N2799 C2792 1.356 . S
N2799 H2802 0.984 . S
N2799 H2803 0.985 . S
H2800 N2795 0.984 . S
H2801 N2795 0.985 . S
H2802 N2799 0.984 . S
H2803 N2799 0.985 . S
H2804 N2798 0.984 . S
H2805 N2798 0.984 . S
H2806 N2794 0.984 . S
H2807 N2794 0.985 . S
C2808 C2809 1.363 . S
C2808 C2814 1.379 . S
C2808 N2816 1.356 . S
C2809 C2808 1.363 . S
C2809 C2815 1.363 . S
C2810 C2811 1.363 . S
C2810 C2815 1.379 . S
C2810 N2817 1.356 . S
C2811 C2810 1.363 . S
C2811 C2814 1.363 . S
N2812 C2814 1.356 . S
N2812 H2824 0.984 . S
N2812 H2825 0.985 . S
N2813 C2815 1.356 . S
N2813 H2818 0.984 . S
N2813 H2819 0.985 . S
C2814 C2808 1.379 . S
C2814 C2811 1.363 . S
C2814 N2812 1.356 . S
C2815 C2809 1.363 . S
C2815 C2810 1.379 . S
C2815 N2813 1.356 . S
N2816 C2808 1.356 . S
N2816 H2822 0.984 . S
N2816 H2823 0.984 . S
N2817 C2810 1.356 . S
N2817 H2820 0.984 . S
N2817 H2821 0.985 . S
H2818 N2813 0.984 . S
H2819 N2813 0.985 . S
H2820 N2817 0.984 . S
H2821 N2817 0.985 . S
H2822 N2816 0.984 . S
H2823 N2816 0.984 . S
H2824 N2812 0.984 . S
H2825 N2812 0.985 . S
C2826 C2827 1.363 . S
C2826 C2832 1.379 . S
C2826 N2834 1.356 . S
C2827 C2826 1.363 . S
C2827 C2833 1.363 1_545 S
C2828 C2829 1.363 . S
C2828 C2833 1.379 . S
C2828 N2835 1.356 . S
C2829 C2828 1.363 . S
C2829 C2832 1.363 1_565 S
N2830 C2832 1.356 . S
N2830 H2842 0.984 . S
N2830 H2843 0.985 1_545 S
N2831 C2833 1.356 . S
N2831 H2836 0.984 1_565 S
N2831 H2837 0.985 . S
C2832 C2826 1.379 . S
C2832 C2829 1.363 1_545 S
C2832 N2830 1.356 . S
C2833 C2827 1.363 1_565 S
C2833 C2828 1.379 . S
C2833 N2831 1.356 . S
N2834 C2826 1.356 . S
N2834 H2840 0.984 . S
N2834 H2841 0.984 . S
N2835 C2828 1.356 . S
N2835 H2838 0.984 . S
N2835 H2839 0.985 . S
H2836 N2831 0.984 1_545 S
H2837 N2831 0.985 . S
H2838 N2835 0.984 . S
H2839 N2835 0.985 . S
H2840 N2834 0.984 . S
H2841 N2834 0.984 . S
H2842 N2830 0.984 . S
H2843 N2830 0.985 1_565 S
C2844 C2845 1.363 . S
C2844 C2850 1.379 . S
C2844 N2852 1.356 . S
C2845 C2844 1.363 . S
C2845 C2851 1.363 . S
C2846 C2847 1.363 . S
C2846 C2851 1.379 . S
C2846 N2853 1.356 . S
C2847 C2846 1.363 . S
C2847 C2850 1.363 . S
N2848 C2850 1.356 . S
N2848 H2860 0.984 . S
N2848 H2861 0.985 . S
N2849 C2851 1.356 . S
N2849 H2854 0.984 . S
N2849 H2855 0.985 . S
C2850 C2844 1.379 . S
C2850 C2847 1.363 . S
C2850 N2848 1.356 . S
C2851 C2845 1.363 . S
C2851 C2846 1.379 . S
C2851 N2849 1.356 . S
N2852 C2844 1.356 . S
N2852 H2858 0.984 . S
N2852 H2859 0.984 . S
N2853 C2846 1.356 . S
N2853 H2856 0.984 . S
N2853 H2857 0.985 . S
H2854 N2849 0.984 . S
H2855 N2849 0.985 . S
H2856 N2853 0.984 . S
H2857 N2853 0.985 . S
H2858 N2852 0.984 . S
H2859 N2852 0.984 . S
H2860 N2848 0.984 . S
H2861 N2848 0.985 . S
C2862 C2863 1.363 . S
C2862 C2868 1.379 . S
C2862 N2870 1.356 . S
C2863 C2862 1.363 . S
C2863 C2869 1.363 . S
C2864 C2865 1.363 . S
C2864 C2869 1.379 . S
C2864 N2871 1.356 . S
C2865 C2864 1.363 . S
C2865 C2868 1.363 . S
N2866 C2868 1.356 . S
N2866 H2878 0.984 . S
N2866 H2879 0.985 . S
N2867 C2869 1.356 . S
N2867 H2872 0.984 . S
N2867 H2873 0.985 . S
C2868 C2862 1.379 . S
C2868 C2865 1.363 . S
C2868 N2866 1.356 . S
C2869 C2863 1.363 . S
C2869 C2864 1.379 . S
C2869 N2867 1.356 . S
N2870 C2862 1.356 . S
N2870 H2876 0.984 . S
N2870 H2877 0.984 . S
N2871 C2864 1.356 . S
N2871 H2874 0.984 . S
N2871 H2875 0.985 . S
H2872 N2867 0.984 . S
H2873 N2867 0.985 . S
H2874 N2871 0.984 . S
H2875 N2871 0.985 . S
H2876 N2870 0.984 . S
H2877 N2870 0.984 . S
H2878 N2866 0.984 . S
H2879 N2866 0.985 . S
C2880 C2881 1.363 . S
C2880 C2886 1.379 . S
C2880 N2888 1.356 . S
C2881 C2880 1.363 . S
C2881 C2887 1.363 . S
C2882 C2883 1.363 . S
C2882 C2887 1.379 . S
C2882 N2889 1.356 . S
C2883 C2882 1.363 . S
C2883 C2886 1.363 . S
N2884 C2886 1.356 . S
N2884 H2896 0.984 . S
N2884 H2897 0.985 . S
N2885 C2887 1.356 . S
N2885 H2890 0.984 . S
N2885 H2891 0.985 . S
C2886 C2880 1.379 . S
C2886 C2883 1.363 . S
C2886 N2884 1.356 . S
C2887 C2881 1.363 . S
C2887 C2882 1.379 . S
C2887 N2885 1.356 . S
N2888 C2880 1.356 . S
N2888 H2894 0.984 . S
N2888 H2895 0.984 . S
N2889 C2882 1.356 . S
N2889 H2892 0.984 . S
N2889 H2893 0.985 . S
H2890 N2885 0.984 . S
H2891 N2885 0.985 . S
H2892 N2889 0.984 . S
H2893 N2889 0.985 . S
H2894 N2888 0.984 . S
H2895 N2888 0.984 . S
H2896 N2884 0.984 . S
H2897 N2884 0.985 . S
C2898 C2899 1.363 . S
C2898 C2904 1.379 . S
C2898 N2906 1.356 . S
C2899 C2898 1.363 . S
C2899 C2905 1.363 . S
C2900 C2901 1.363 . S
C2900 C2905 1.379 . S
C2900 N2907 1.356 . S
C2901 C2900 1.363 . S
C2901 C2904 1.363 . S
N2902 C2904 1.356 . S
N2902 H2914 0.984 . S
N2902 H2915 0.985 . S
N2903 C2905 1.356 . S
N2903 H2908 0.984 . S
N2903 H2909 0.985 . S
C2904 C2898 1.379 . S
C2904 C2901 1.363 . S
C2904 N2902 1.356 . S
C2905 C2899 1.363 . S
C2905 C2900 1.379 . S
C2905 N2903 1.356 . S
N2906 C2898 1.356 . S
N2906 H2912 0.984 . S
N2906 H2913 0.984 . S
N2907 C2900 1.356 . S
N2907 H2910 0.984 . S
N2907 H2911 0.985 . S
H2908 N2903 0.984 . S
H2909 N2903 0.985 . S
H2910 N2907 0.984 . S
H2911 N2907 0.985 . S
H2912 N2906 0.984 . S
H2913 N2906 0.984 . S
H2914 N2902 0.984 . S
H2915 N2902 0.985 . S
C2916 C2917 1.363 . S
C2916 C2922 1.379 . S
C2916 N2924 1.356 . S
C2917 C2916 1.363 . S
C2917 C2923 1.363 . S
C2918 C2919 1.363 . S
C2918 C2923 1.379 . S
C2918 N2925 1.356 . S
C2919 C2918 1.363 . S
C2919 C2922 1.363 . S
N2920 C2922 1.356 . S
N2920 H2932 0.984 . S
N2920 H2933 0.985 . S
N2921 C2923 1.356 . S
N2921 H2926 0.984 . S
N2921 H2927 0.985 . S
C2922 C2916 1.379 . S
C2922 C2919 1.363 . S
C2922 N2920 1.356 . S
C2923 C2917 1.363 . S
C2923 C2918 1.379 . S
C2923 N2921 1.356 . S
N2924 C2916 1.356 . S
N2924 H2930 0.984 . S
N2924 H2931 0.984 . S
N2925 C2918 1.356 . S
N2925 H2928 0.984 . S
N2925 H2929 0.985 . S
H2926 N2921 0.984 . S
H2927 N2921 0.985 . S
H2928 N2925 0.984 . S
H2929 N2925 0.985 . S
H2930 N2924 0.984 . S
H2931 N2924 0.984 . S
H2932 N2920 0.984 . S
H2933 N2920 0.985 . S
C2934 C2935 1.363 . S
C2934 C2940 1.379 . S
C2934 N2942 1.356 . S
C2935 C2934 1.363 . S
C2935 C2941 1.363 . S
C2936 C2937 1.363 . S
C2936 C2941 1.379 . S
C2936 N2943 1.356 . S
C2937 C2936 1.363 . S
C2937 C2940 1.363 . S
N2938 C2940 1.356 . S
N2938 H2950 0.984 . S
N2938 H2951 0.985 . S
N2939 C2941 1.356 . S
N2939 H2944 0.984 . S
N2939 H2945 0.985 . S
C2940 C2934 1.379 . S
C2940 C2937 1.363 . S
C2940 N2938 1.356 . S
C2941 C2935 1.363 . S
C2941 C2936 1.379 . S
C2941 N2939 1.356 . S
N2942 C2934 1.356 . S
N2942 H2948 0.984 . S
N2942 H2949 0.984 . S
N2943 C2936 1.356 . S
N2943 H2946 0.984 . S
N2943 H2947 0.985 . S
H2944 N2939 0.984 . S
H2945 N2939 0.985 . S
H2946 N2943 0.984 . S
H2947 N2943 0.985 . S
H2948 N2942 0.984 . S
H2949 N2942 0.984 . S
H2950 N2938 0.984 . S
H2951 N2938 0.985 . S
C2952 C2953 1.363 . S
C2952 C2958 1.379 1_554 S
C2952 N2960 1.356 . S
C2953 C2952 1.363 . S
C2953 C2959 1.363 1_554 S
C2954 C2955 1.363 . S
C2954 C2959 1.379 . S
C2954 N2961 1.356 . S
C2955 C2954 1.363 . S
C2955 C2958 1.363 . S
N2956 C2958 1.356 . S
N2956 H2968 0.984 . S
N2956 H2969 0.985 . S
N2957 C2959 1.356 . S
N2957 H2962 0.984 1_556 S
N2957 H2963 0.985 . S
C2958 C2952 1.379 1_556 S
C2958 C2955 1.363 . S
C2958 N2956 1.356 . S
C2959 C2953 1.363 1_556 S
C2959 C2954 1.379 . S
C2959 N2957 1.356 . S
N2960 C2952 1.356 . S
N2960 H2966 0.984 . S
N2960 H2967 0.984 . S
N2961 C2954 1.356 . S
N2961 H2964 0.984 . S
N2961 H2965 0.985 . S
H2962 N2957 0.984 1_554 S
H2963 N2957 0.985 . S
H2964 N2961 0.984 . S
H2965 N2961 0.985 . S
H2966 N2960 0.984 . S
H2967 N2960 0.984 . S
H2968 N2956 0.984 . S
H2969 N2956 0.985 . S
C2970 C2971 1.363 . S
C2970 C2976 1.379 . S
C2970 N2978 1.356 . S
C2971 C2970 1.363 . S
C2971 C2977 1.363 . S
C2972 C2973 1.363 1_556 S
C2972 C2977 1.379 . S
C2972 N2979 1.356 1_556 S
C2973 C2972 1.363 1_554 S
C2973 C2976 1.363 1_554 S
N2974 C2976 1.356 1_554 S
N2974 H2986 0.984 . S
N2974 H2987 0.985 . S
N2975 C2977 1.356 . S
N2975 H2980 0.984 . S
N2975 H2981 0.985 . S
C2976 C2970 1.379 . S
C2976 C2973 1.363 1_556 S
C2976 N2974 1.356 1_556 S
C2977 C2971 1.363 . S
C2977 C2972 1.379 . S
C2977 N2975 1.356 . S
N2978 C2970 1.356 . S
N2978 H2984 0.984 . S
N2978 H2985 0.984 . S
N2979 C2972 1.356 1_554 S
N2979 H2982 0.984 . S
N2979 H2983 0.985 . S
H2980 N2975 0.984 . S
H2981 N2975 0.985 . S
H2982 N2979 0.984 . S
H2983 N2979 0.985 . S
H2984 N2978 0.984 . S
H2985 N2978 0.984 . S
H2986 N2974 0.984 . S
H2987 N2974 0.985 . S
C2988 C2989 1.363 . S
C2988 C2994 1.379 . S
C2988 N2996 1.356 . S
C2989 C2988 1.363 . S
C2989 C2995 1.363 . S
C2990 C2991 1.363 1_556 S
C2990 C2995 1.379 . S
C2990 N2997 1.356 1_556 S
C2991 C2990 1.363 1_554 S
C2991 C2994 1.363 1_554 S
N2992 C2994 1.356 . S
N2992 H3004 0.984 . S
N2992 H3005 0.985 1_556 S
N2993 C2995 1.356 . S
N2993 H2998 0.984 . S
N2993 H2999 0.985 . S
C2994 C2988 1.379 . S
C2994 C2991 1.363 1_556 S
C2994 N2992 1.356 . S
C2995 C2989 1.363 . S
C2995 C2990 1.379 . S
C2995 N2993 1.356 . S
N2996 C2988 1.356 . S
N2996 H3002 0.984 . S
N2996 H3003 0.984 . S
N2997 C2990 1.356 1_554 S
N2997 H3000 0.984 . S
N2997 H3001 0.985 . S
H2998 N2993 0.984 . S
H2999 N2993 0.985 . S
H3000 N2997 0.984 . S
H3001 N2997 0.985 . S
H3002 N2996 0.984 . S
H3003 N2996 0.984 . S
H3004 N2992 0.984 . S
H3005 N2992 0.985 1_554 S
C3006 C3007 1.363 . S
C3006 C3012 1.379 . S
C3006 N3014 1.356 . S
C3007 C3006 1.363 . S
C3007 C3013 1.363 . S
C3008 C3009 1.363 . S
C3008 C3013 1.379 . S
C3008 N3015 1.356 . S
C3009 C3008 1.363 . S
C3009 C3012 1.363 . S
N3010 C3012 1.356 . S
N3010 H3022 0.984 . S
N3010 H3023 0.985 . S
N3011 C3013 1.356 . S
N3011 H3016 0.984 . S
N3011 H3017 0.985 . S
C3012 C3006 1.379 . S
C3012 C3009 1.363 . S
C3012 N3010 1.356 . S
C3013 C3007 1.363 . S
C3013 C3008 1.379 . S
C3013 N3011 1.356 . S
N3014 C3006 1.356 . S
N3014 H3020 0.984 . S
N3014 H3021 0.984 . S
N3015 C3008 1.356 . S
N3015 H3018 0.984 . S
N3015 H3019 0.985 . S
H3016 N3011 0.984 . S
H3017 N3011 0.985 . S
H3018 N3015 0.984 . S
H3019 N3015 0.985 . S
H3020 N3014 0.984 . S
H3021 N3014 0.984 . S
H3022 N3010 0.984 . S
H3023 N3010 0.985 . S
C3024 C3025 1.363 . S
C3024 C3030 1.379 . S
C3024 N3032 1.356 . S
C3025 C3024 1.363 . S
C3025 C3031 1.363 . S
C3026 C3027 1.363 . S
C3026 C3031 1.379 . S
C3026 N3033 1.356 . S
C3027 C3026 1.363 . S
C3027 C3030 1.363 . S
N3028 C3030 1.356 . S
N3028 H3040 0.984 . S
N3028 H3041 0.985 . S
N3029 C3031 1.356 . S
N3029 H3034 0.984 . S
N3029 H3035 0.985 . S
C3030 C3024 1.379 . S
C3030 C3027 1.363 . S
C3030 N3028 1.356 . S
C3031 C3025 1.363 . S
C3031 C3026 1.379 . S
C3031 N3029 1.356 . S
N3032 C3024 1.356 . S
N3032 H3038 0.984 . S
N3032 H3039 0.984 . S
N3033 C3026 1.356 . S
N3033 H3036 0.984 . S
N3033 H3037 0.985 . S
H3034 N3029 0.984 . S
H3035 N3029 0.985 . S
H3036 N3033 0.984 . S
H3037 N3033 0.985 . S
H3038 N3032 0.984 . S
H3039 N3032 0.984 . S
H3040 N3028 0.984 . S
H3041 N3028 0.985 . S
C3042 C3043 1.363 . S
C3042 C3048 1.379 . S
C3042 N3050 1.356 . S
C3043 C3042 1.363 . S
C3043 C3049 1.363 . S
C3044 C3045 1.363 . S
C3044 C3049 1.379 . S
C3044 N3051 1.356 . S
C3045 C3044 1.363 . S
C3045 C3048 1.363 . S
N3046 C3048 1.356 . S
N3046 H3058 0.984 . S
N3046 H3059 0.985 . S
N3047 C3049 1.356 . S
N3047 H3052 0.984 . S
N3047 H3053 0.985 . S
C3048 C3042 1.379 . S
C3048 C3045 1.363 . S
C3048 N3046 1.356 . S
C3049 C3043 1.363 . S
C3049 C3044 1.379 . S
C3049 N3047 1.356 . S
N3050 C3042 1.356 . S
N3050 H3056 0.984 . S
N3050 H3057 0.984 . S
N3051 C3044 1.356 . S
N3051 H3054 0.984 . S
N3051 H3055 0.985 . S
H3052 N3047 0.984 . S
H3053 N3047 0.985 . S
H3054 N3051 0.984 . S
H3055 N3051 0.985 . S
H3056 N3050 0.984 . S
H3057 N3050 0.984 . S
H3058 N3046 0.984 . S
H3059 N3046 0.985 . S
C3060 C3061 1.363 . S
C3060 C3066 1.379 1_455 S
C3060 N3068 1.356 . S
C3061 C3060 1.363 . S
C3061 C3067 1.363 . S
C3062 C3063 1.363 . S
C3062 C3067 1.379 1_655 S
C3062 N3069 1.356 . S
C3063 C3062 1.363 . S
C3063 C3066 1.363 . S
N3064 C3066 1.356 1_556 S
N3064 H3076 0.984 . S
N3064 H3077 0.985 . S
N3065 C3067 1.356 . S
N3065 H3070 0.984 . S
N3065 H3071 0.985 . S
C3066 C3060 1.379 1_655 S
C3066 C3063 1.363 . S
C3066 N3064 1.356 1_554 S
C3067 C3061 1.363 . S
C3067 C3062 1.379 1_455 S
C3067 N3065 1.356 . S
N3068 C3060 1.356 . S
N3068 H3074 0.984 . S
N3068 H3075 0.984 . S
N3069 C3062 1.356 . S
N3069 H3072 0.984 . S
N3069 H3073 0.985 . S
H3070 N3065 0.984 . S
H3071 N3065 0.985 . S
H3072 N3069 0.984 . S
H3073 N3069 0.985 . S
H3074 N3068 0.984 . S
H3075 N3068 0.984 . S
H3076 N3064 0.984 . S
H3077 N3064 0.985 . S
C3078 C3079 1.363 . S
C3078 C3084 1.379 . S
C3078 N3086 1.356 . S
C3079 C3078 1.363 . S
C3079 C3085 1.363 . S
C3080 C3081 1.363 . S
C3080 C3085 1.379 . S
C3080 N3087 1.356 1_554 S
C3081 C3080 1.363 . S
C3081 C3084 1.363 . S
N3082 C3084 1.356 . S
N3082 H3094 0.984 . S
N3082 H3095 0.985 . S
N3083 C3085 1.356 . S
N3083 H3088 0.984 . S
N3083 H3089 0.985 . S
C3084 C3078 1.379 . S
C3084 C3081 1.363 . S
C3084 N3082 1.356 . S
C3085 C3079 1.363 . S
C3085 C3080 1.379 . S
C3085 N3083 1.356 . S
N3086 C3078 1.356 . S
N3086 H3092 0.984 . S
N3086 H3093 0.984 . S
N3087 C3080 1.356 1_556 S
N3087 H3090 0.984 . S
N3087 H3091 0.985 . S
H3088 N3083 0.984 . S
H3089 N3083 0.985 . S
H3090 N3087 0.984 . S
H3091 N3087 0.985 . S
H3092 N3086 0.984 . S
H3093 N3086 0.984 . S
H3094 N3082 0.984 . S
H3095 N3082 0.985 . S
C3096 C3097 1.363 . S
C3096 C3102 1.379 . S
C3096 N3104 1.356 . S
C3097 C3096 1.363 . S
C3097 C3103 1.363 1_545 S
C3098 C3099 1.363 . S
C3098 C3103 1.379 . S
C3098 N3105 1.356 . S
C3099 C3098 1.363 . S
C3099 C3102 1.363 1_565 S
N3100 C3102 1.356 . S
N3100 H3112 0.984 . S
N3100 H3113 0.985 1_545 S
N3101 C3103 1.356 1_556 S
N3101 H3106 0.984 1_565 S
N3101 H3107 0.985 . S
C3102 C3096 1.379 . S
C3102 C3099 1.363 1_545 S
C3102 N3100 1.356 . S
C3103 C3097 1.363 1_565 S
C3103 C3098 1.379 . S
C3103 N3101 1.356 1_554 S
N3104 C3096 1.356 . S
N3104 H3110 0.984 . S
N3104 H3111 0.984 . S
N3105 C3098 1.356 . S
N3105 H3108 0.984 . S
N3105 H3109 0.985 . S
H3106 N3101 0.984 1_545 S
H3107 N3101 0.985 . S
H3108 N3105 0.984 . S
H3109 N3105 0.985 . S
H3110 N3104 0.984 . S
H3111 N3104 0.984 . S
H3112 N3100 0.984 . S
H3113 N3100 0.985 1_565 S
C3114 C3115 1.363 . S
C3114 C3120 1.405 . S
C3114 N3122 1.356 . S
C3115 C3114 1.363 . S
C3115 C3121 1.325 1_565 S
C3116 C3117 1.363 . S
C3116 C3121 1.407 . S
C3116 N3123 1.356 . S
C3117 C3116 1.363 . S
C3117 C3120 1.327 1_545 S
N3118 C3120 1.355 1_545 S
N3118 H3130 0.984 1_545 S
N3118 H3131 0.985 . S
N3119 C3121 1.355 1_565 S
N3119 H3124 0.984 . S
N3119 H3125 0.985 1_565 S
C3120 C3114 1.405 . S
C3120 C3117 1.327 1_565 S
C3120 N3118 1.355 1_565 S
C3121 C3115 1.325 1_545 S
C3121 C3116 1.407 . S
C3121 N3119 1.355 1_545 S
N3122 C3114 1.356 . S
N3122 H3128 0.984 . S
N3122 H3129 0.984 . S
N3123 C3116 1.356 . S
N3123 H3126 0.984 . S
N3123 H3127 0.985 . S
H3124 N3119 0.984 . S
H3125 N3119 0.985 1_545 S
H3126 N3123 0.984 . S
H3127 N3123 0.985 . S
H3128 N3122 0.984 . S
H3129 N3122 0.984 . S
H3130 N3118 0.984 1_565 S
H3131 N3118 0.985 . S
C3132 C3133 1.363 1_455 S
C3132 C3138 1.379 . S
C3132 N3140 1.356 . S
C3133 C3132 1.363 1_655 S
C3133 C3139 1.363 . S
C3134 C3135 1.363 1_655 S
C3134 C3139 1.379 . S
C3134 N3141 1.356 . S
C3135 C3134 1.363 1_455 S
C3135 C3138 1.363 . S
N3136 C3138 1.356 . S
N3136 H3148 0.984 . S
N3136 H3149 0.985 . S
N3137 C3139 1.356 . S
N3137 H3142 0.984 . S
N3137 H3143 0.985 . S
C3138 C3132 1.379 . S
C3138 C3135 1.363 . S
C3138 N3136 1.356 . S
C3139 C3133 1.363 . S
C3139 C3134 1.379 . S
C3139 N3137 1.356 . S
N3140 C3132 1.356 . S
N3140 H3146 0.984 . S
N3140 H3147 0.984 1_455 S
N3141 C3134 1.356 . S
N3141 H3144 0.984 1_655 S
N3141 H3145 0.985 . S
H3142 N3137 0.984 . S
H3143 N3137 0.985 . S
H3144 N3141 0.984 1_455 S
H3145 N3141 0.985 . S
H3146 N3140 0.984 . S
H3147 N3140 0.984 1_655 S
H3148 N3136 0.984 . S
H3149 N3136 0.985 . S
C3150 C3151 1.363 . S
C3150 C3156 1.379 . S
C3150 N3158 1.356 . S
C3151 C3150 1.363 . S
C3151 C3157 1.363 . S
C3152 C3153 1.363 . S
C3152 C3157 1.379 . S
C3152 N3159 1.356 . S
C3153 C3152 1.363 . S
C3153 C3156 1.363 . S
N3154 C3156 1.356 . S
N3154 H3166 0.984 . S
N3154 H3167 0.985 . S
N3155 C3157 1.356 . S
N3155 H3160 0.984 . S
N3155 H3161 0.985 . S
C3156 C3150 1.379 . S
C3156 C3153 1.363 . S
C3156 N3154 1.356 . S
C3157 C3151 1.363 . S
C3157 C3152 1.379 . S
C3157 N3155 1.356 . S
N3158 C3150 1.356 . S
N3158 H3164 0.984 . S
N3158 H3165 0.984 . S
N3159 C3152 1.356 . S
N3159 H3162 0.984 . S
N3159 H3163 0.985 . S
H3160 N3155 0.984 . S
H3161 N3155 0.985 . S
H3162 N3159 0.984 . S
H3163 N3159 0.985 . S
H3164 N3158 0.984 . S
H3165 N3158 0.984 . S
H3166 N3154 0.984 . S
H3167 N3154 0.985 . S
C3168 C3169 1.363 . S
C3168 C3174 1.379 . S
C3168 N3176 1.356 . S
C3169 C3168 1.363 . S
C3169 C3175 1.363 . S
C3170 C3171 1.363 . S
C3170 C3175 1.379 . S
C3170 N3177 1.356 . S
C3171 C3170 1.363 . S
C3171 C3174 1.363 . S
N3172 C3174 1.356 . S
N3172 H3184 0.984 . S
N3172 H3185 0.985 . S
N3173 C3175 1.356 . S
N3173 H3178 0.984 . S
N3173 H3179 0.985 . S
C3174 C3168 1.379 . S
C3174 C3171 1.363 . S
C3174 N3172 1.356 . S
C3175 C3169 1.363 . S
C3175 C3170 1.379 . S
C3175 N3173 1.356 . S
N3176 C3168 1.356 . S
N3176 H3182 0.984 . S
N3176 H3183 0.984 . S
N3177 C3170 1.356 . S
N3177 H3180 0.984 . S
N3177 H3181 0.985 . S
H3178 N3173 0.984 . S
H3179 N3173 0.985 . S
H3180 N3177 0.984 . S
H3181 N3177 0.985 . S
H3182 N3176 0.984 . S
H3183 N3176 0.984 . S
H3184 N3172 0.984 . S
H3185 N3172 0.985 . S
C3186 C3187 1.363 . S
C3186 C3192 1.379 . S
C3186 N3194 1.356 . S
C3187 C3186 1.363 . S
C3187 C3193 1.363 . S
C3188 C3189 1.363 . S
C3188 C3193 1.379 . S
C3188 N3195 1.356 . S
C3189 C3188 1.363 . S
C3189 C3192 1.363 . S
N3190 C3192 1.356 . S
N3190 H3202 0.984 . S
N3190 H3203 0.985 . S
N3191 C3193 1.356 . S
N3191 H3196 0.984 . S
N3191 H3197 0.985 . S
C3192 C3186 1.379 . S
C3192 C3189 1.363 . S
C3192 N3190 1.356 . S
C3193 C3187 1.363 . S
C3193 C3188 1.379 . S
C3193 N3191 1.356 . S
N3194 C3186 1.356 . S
N3194 H3200 0.984 . S
N3194 H3201 0.984 . S
N3195 C3188 1.356 . S
N3195 H3198 0.984 . S
N3195 H3199 0.985 . S
H3196 N3191 0.984 . S
H3197 N3191 0.985 . S
H3198 N3195 0.984 . S
H3199 N3195 0.985 . S
H3200 N3194 0.984 . S
H3201 N3194 0.984 . S
H3202 N3190 0.984 . S
H3203 N3190 0.985 . S
C3204 C3205 1.363 . S
C3204 C3210 1.379 . S
C3204 N3212 1.356 . S
C3205 C3204 1.363 . S
C3205 C3211 1.363 . S
C3206 C3207 1.363 . S
C3206 C3211 1.379 . S
C3206 N3213 1.356 . S
C3207 C3206 1.363 . S
C3207 C3210 1.363 . S
N3208 C3210 1.356 . S
N3208 H3220 0.984 . S
N3208 H3221 0.985 . S
N3209 C3211 1.356 . S
N3209 H3214 0.984 . S
N3209 H3215 0.985 . S
C3210 C3204 1.379 . S
C3210 C3207 1.363 . S
C3210 N3208 1.356 . S
C3211 C3205 1.363 . S
C3211 C3206 1.379 . S
C3211 N3209 1.356 . S
N3212 C3204 1.356 . S
N3212 H3218 0.984 . S
N3212 H3219 0.984 . S
N3213 C3206 1.356 . S
N3213 H3216 0.984 . S
N3213 H3217 0.985 . S
H3214 N3209 0.984 . S
H3215 N3209 0.985 . S
H3216 N3213 0.984 . S
H3217 N3213 0.985 . S
H3218 N3212 0.984 . S
H3219 N3212 0.984 . S
H3220 N3208 0.984 . S
H3221 N3208 0.985 . S
C3222 C3223 1.363 . S
C3222 C3228 1.379 . S
C3222 N3230 1.356 . S
C3223 C3222 1.363 . S
C3223 C3229 1.363 . S
C3224 C3225 1.363 . S
C3224 C3229 1.379 . S
C3224 N3231 1.356 . S
C3225 C3224 1.363 . S
C3225 C3228 1.363 . S
N3226 C3228 1.356 . S
N3226 H3238 0.984 . S
N3226 H3239 0.985 . S
N3227 C3229 1.356 . S
N3227 H3232 0.984 . S
N3227 H3233 0.985 . S
C3228 C3222 1.379 . S
C3228 C3225 1.363 . S
C3228 N3226 1.356 . S
C3229 C3223 1.363 . S
C3229 C3224 1.379 . S
C3229 N3227 1.356 . S
N3230 C3222 1.356 . S
N3230 H3236 0.984 . S
N3230 H3237 0.984 . S
N3231 C3224 1.356 . S
N3231 H3234 0.984 . S
N3231 H3235 0.985 . S
H3232 N3227 0.984 . S
H3233 N3227 0.985 . S
H3234 N3231 0.984 . S
H3235 N3231 0.985 . S
H3236 N3230 0.984 . S
H3237 N3230 0.984 . S
H3238 N3226 0.984 . S
H3239 N3226 0.985 . S
C3240 C3241 1.363 . S
C3240 C3246 1.379 . S
C3240 N3248 1.356 . S
C3241 C3240 1.363 . S
C3241 C3247 1.363 . S
C3242 C3243 1.363 . S
C3242 C3247 1.379 . S
C3242 N3249 1.356 . S
C3243 C3242 1.363 . S
C3243 C3246 1.363 . S
N3244 C3246 1.356 . S
N3244 H3256 0.984 . S
N3244 H3257 0.985 . S
N3245 C3247 1.356 . S
N3245 H3250 0.984 . S
N3245 H3251 0.985 . S
C3246 C3240 1.379 . S
C3246 C3243 1.363 . S
C3246 N3244 1.356 . S
C3247 C3241 1.363 . S
C3247 C3242 1.379 . S
C3247 N3245 1.356 . S
N3248 C3240 1.356 . S
N3248 H3254 0.984 . S
N3248 H3255 0.984 . S
N3249 C3242 1.356 . S
N3249 H3252 0.984 . S
N3249 H3253 0.985 . S
H3250 N3245 0.984 . S
H3251 N3245 0.985 . S
H3252 N3249 0.984 . S
H3253 N3249 0.985 . S
H3254 N3248 0.984 . S
H3255 N3248 0.984 . S
H3256 N3244 0.984 . S
H3257 N3244 0.985 . S
C3258 C3259 1.363 . S
C3258 C3264 1.379 . S
C3258 N3266 1.356 . S
C3259 C3258 1.363 . S
C3259 C3265 1.363 . S
C3260 C3261 1.363 . S
C3260 C3265 1.379 . S
C3260 N3267 1.356 . S
C3261 C3260 1.363 . S
C3261 C3264 1.363 . S
N3262 C3264 1.356 . S
N3262 H3274 0.984 . S
N3262 H3275 0.985 . S
N3263 C3265 1.356 . S
N3263 H3268 0.984 . S
N3263 H3269 0.985 . S
C3264 C3258 1.379 . S
C3264 C3261 1.363 . S
C3264 N3262 1.356 . S
C3265 C3259 1.363 . S
C3265 C3260 1.379 . S
C3265 N3263 1.356 . S
N3266 C3258 1.356 . S
N3266 H3272 0.984 . S
N3266 H3273 0.984 . S
N3267 C3260 1.356 . S
N3267 H3270 0.984 . S
N3267 H3271 0.985 . S
H3268 N3263 0.984 . S
H3269 N3263 0.985 . S
H3270 N3267 0.984 . S
H3271 N3267 0.985 . S
H3272 N3266 0.984 . S
H3273 N3266 0.984 . S
H3274 N3262 0.984 . S
H3275 N3262 0.985 . S
C3276 C3277 1.363 . S
C3276 C3282 1.379 . S
C3276 N3284 1.356 . S
C3277 C3276 1.363 . S
C3277 C3283 1.363 . S
C3278 C3279 1.363 . S
C3278 C3283 1.379 . S
C3278 N3285 1.356 . S
C3279 C3278 1.363 . S
C3279 C3282 1.363 . S
N3280 C3282 1.356 . S
N3280 H3292 0.984 . S
N3280 H3293 0.985 . S
N3281 C3283 1.356 . S
N3281 H3286 0.984 . S
N3281 H3287 0.985 . S
C3282 C3276 1.379 . S
C3282 C3279 1.363 . S
C3282 N3280 1.356 . S
C3283 C3277 1.363 . S
C3283 C3278 1.379 . S
C3283 N3281 1.356 . S
N3284 C3276 1.356 . S
N3284 H3290 0.984 . S
N3284 H3291 0.984 . S
N3285 C3278 1.356 . S
N3285 H3288 0.984 . S
N3285 H3289 0.985 . S
H3286 N3281 0.984 . S
H3287 N3281 0.985 . S
H3288 N3285 0.984 . S
H3289 N3285 0.985 . S
H3290 N3284 0.984 . S
H3291 N3284 0.984 . S
H3292 N3280 0.984 . S
H3293 N3280 0.985 . S
C3294 C3295 1.363 . S
C3294 C3300 1.379 . S
C3294 N3302 1.356 . S
C3295 C3294 1.363 . S
C3295 C3301 1.363 . S
C3296 C3297 1.363 . S
C3296 C3301 1.379 . S
C3296 N3303 1.356 . S
C3297 C3296 1.363 . S
C3297 C3300 1.363 . S
N3298 C3300 1.356 . S
N3298 H3310 0.984 . S
N3298 H3311 0.985 . S
N3299 C3301 1.356 . S
N3299 H3304 0.984 . S
N3299 H3305 0.985 . S
C3300 C3294 1.379 . S
C3300 C3297 1.363 . S
C3300 N3298 1.356 . S
C3301 C3295 1.363 . S
C3301 C3296 1.379 . S
C3301 N3299 1.356 . S
N3302 C3294 1.356 . S
N3302 H3308 0.984 . S
N3302 H3309 0.984 . S
N3303 C3296 1.356 . S
N3303 H3306 0.984 . S
N3303 H3307 0.985 . S
H3304 N3299 0.984 . S
H3305 N3299 0.985 . S
H3306 N3303 0.984 . S
H3307 N3303 0.985 . S
H3308 N3302 0.984 . S
H3309 N3302 0.984 . S
H3310 N3298 0.984 . S
H3311 N3298 0.985 . S
C3312 C3313 1.363 . S
C3312 C3318 1.379 . S
C3312 N3320 1.356 . S
C3313 C3312 1.363 . S
C3313 C3319 1.363 . S
C3314 C3315 1.363 . S
C3314 C3319 1.379 . S
C3314 N3321 1.356 . S
C3315 C3314 1.363 . S
C3315 C3318 1.363 . S
N3316 C3318 1.356 . S
N3316 H3328 0.984 . S
N3316 H3329 0.985 . S
N3317 C3319 1.356 . S
N3317 H3322 0.984 . S
N3317 H3323 0.985 . S
C3318 C3312 1.379 . S
C3318 C3315 1.363 . S
C3318 N3316 1.356 . S
C3319 C3313 1.363 . S
C3319 C3314 1.379 . S
C3319 N3317 1.356 . S
N3320 C3312 1.356 . S
N3320 H3326 0.984 . S
N3320 H3327 0.984 . S
N3321 C3314 1.356 . S
N3321 H3324 0.984 . S
N3321 H3325 0.985 . S
H3322 N3317 0.984 . S
H3323 N3317 0.985 . S
H3324 N3321 0.984 . S
H3325 N3321 0.985 . S
H3326 N3320 0.984 . S
H3327 N3320 0.984 . S
H3328 N3316 0.984 . S
H3329 N3316 0.985 . S
C3330 C3331 1.363 . S
C3330 C3336 1.379 . S
C3330 N3338 1.356 . S
C3331 C3330 1.363 . S
C3331 C3337 1.363 . S
C3332 C3333 1.363 . S
C3332 C3337 1.379 . S
C3332 N3339 1.356 . S
C3333 C3332 1.363 . S
C3333 C3336 1.363 . S
N3334 C3336 1.356 . S
N3334 H3346 0.984 . S
N3334 H3347 0.985 . S
N3335 C3337 1.356 . S
N3335 H3340 0.984 . S
N3335 H3341 0.985 . S
C3336 C3330 1.379 . S
C3336 C3333 1.363 . S
C3336 N3334 1.356 . S
C3337 C3331 1.363 . S
C3337 C3332 1.379 . S
C3337 N3335 1.356 . S
N3338 C3330 1.356 . S
N3338 H3344 0.984 . S
N3338 H3345 0.984 . S
N3339 C3332 1.356 . S
N3339 H3342 0.984 . S
N3339 H3343 0.985 . S
H3340 N3335 0.984 . S
H3341 N3335 0.985 . S
H3342 N3339 0.984 . S
H3343 N3339 0.985 . S
H3344 N3338 0.984 . S
H3345 N3338 0.984 . S
H3346 N3334 0.984 . S
H3347 N3334 0.985 . S
C3348 C3349 1.363 . S
C3348 C3354 1.379 . S
C3348 N3356 1.356 . S
C3349 C3348 1.363 . S
C3349 C3355 1.363 . S
C3350 C3351 1.363 . S
C3350 C3355 1.379 . S
C3350 N3357 1.356 . S
C3351 C3350 1.363 . S
C3351 C3354 1.363 . S
N3352 C3354 1.356 . S
N3352 H3364 0.984 . S
N3352 H3365 0.985 . S
N3353 C3355 1.356 . S
N3353 H3358 0.984 . S
N3353 H3359 0.985 . S
C3354 C3348 1.379 . S
C3354 C3351 1.363 . S
C3354 N3352 1.356 . S
C3355 C3349 1.363 . S
C3355 C3350 1.379 . S
C3355 N3353 1.356 . S
N3356 C3348 1.356 . S
N3356 H3362 0.984 . S
N3356 H3363 0.984 . S
N3357 C3350 1.356 . S
N3357 H3360 0.984 . S
N3357 H3361 0.985 . S
H3358 N3353 0.984 . S
H3359 N3353 0.985 . S
H3360 N3357 0.984 . S
H3361 N3357 0.985 . S
H3362 N3356 0.984 . S
H3363 N3356 0.984 . S
H3364 N3352 0.984 . S
H3365 N3352 0.985 . S
C3366 C3367 1.363 . S
C3366 C3372 1.379 . S
C3366 N3374 1.356 . S
C3367 C3366 1.363 . S
C3367 C3373 1.363 . S
C3368 C3369 1.363 . S
C3368 C3373 1.379 . S
C3368 N3375 1.356 . S
C3369 C3368 1.363 . S
C3369 C3372 1.363 . S
N3370 C3372 1.356 . S
N3370 H3382 0.984 . S
N3370 H3383 0.985 . S
N3371 C3373 1.356 . S
N3371 H3376 0.984 . S
N3371 H3377 0.985 . S
C3372 C3366 1.379 . S
C3372 C3369 1.363 . S
C3372 N3370 1.356 . S
C3373 C3367 1.363 . S
C3373 C3368 1.379 . S
C3373 N3371 1.356 . S
N3374 C3366 1.356 . S
N3374 H3380 0.984 . S
N3374 H3381 0.984 . S
N3375 C3368 1.356 . S
N3375 H3378 0.984 . S
N3375 H3379 0.985 . S
H3376 N3371 0.984 . S
H3377 N3371 0.985 . S
H3378 N3375 0.984 . S
H3379 N3375 0.985 . S
H3380 N3374 0.984 . S
H3381 N3374 0.984 . S
H3382 N3370 0.984 . S
H3383 N3370 0.985 . S
C1441 C610 2.537 . S
C1443 C10 2.537 . S
C1459 C650 2.536 . S
C1461 C50 2.536 . S
C1477 C90 2.536 . S
C1479 C690 2.536 . S
C1495 C130 2.537 . S
C1497 C970 2.537 . S
C1513 C170 2.536 . S
C1515 C1010 2.536 . S
C1531 C210 2.536 . S
C1533 C1050 2.536 . S
C1549 C1339 2.537 . S
C1551 C259 2.537 . S
C1567 C1379 2.536 . S
C1569 C299 2.536 . S
C1585 C339 2.536 . S
C1587 C1419 2.536 . S
C1603 C739 2.537 . S
C1605 C379 2.537 . S
C1621 C419 2.536 . S
C1623 C779 2.536 . S
C1639 C459 2.536 . S
C1641 C819 2.536 . S
C1657 C1090 2.537 . S
C1659 C490 2.537 . S
C1675 C530 2.536 . S
C1677 C1130 2.536 . S
C1693 C1170 2.536 . S
C1695 C570 2.536 . S
C1711 C1219 2.537 . S
C1713 C859 2.537 . S
C1729 C1259 2.536 . S
C1731 C899 2.536 . S
C1747 C939 2.536 . S
C1749 C1299 2.536 . S
C1765 C16 0.413 . S
C1767 C176 0.413 . S
C1783 C56 0.413 . S
C1785 C216 0.413 . S
C1801 C96 0.413 . S
C1803 C136 0.413 . S
C1819 C247 0.413 . S
C1821 C407 0.413 . S
C1837 C287 0.413 . S
C1839 C447 0.413 . S
C1855 C327 0.413 . S
C1857 C367 0.413 . S
C1873 C496 0.413 . S
C1875 C656 0.413 . S
C1891 C696 0.413 . S
C1893 C536 0.413 . S
C1909 C576 0.413 . S
C1911 C616 0.413 . S
C1927 C727 0.413 . S
C1929 C887 0.413 . S
C1945 C767 0.413 . S
C1947 C927 0.413 . S
C1963 C847 0.413 . S
C1965 C807 0.413 . S
C1981 C976 0.413 . S
C1983 C1136 0.413 . S
C1999 C1176 0.413 . S
C2001 C1016 0.413 . S
C2017 C1056 0.413 . S
C2019 C1096 0.413 . S
C2035 C1207 0.413 . S
C2037 C1367 0.413 . S
C2053 C1247 0.413 . S
C2055 C1407 0.413 . S
C2071 C1287 0.413 . S
C2073 C1327 0.413 . S
C2089 C416 1.676 . S
C2091 C11 1.776 1_556 S
C2107 C51 1.776 1_556 S
C2109 C456 1.676 . S
C2125 C91 1.776 1_556 S
C2127 C376 1.676 . S
C2143 C131 1.776 . S
C2145 C336 1.676 . S
C2161 C171 1.776 . S
C2163 C256 1.676 . S
C2179 C296 1.676 . S
C2181 C211 1.776 . S
C2197 C242 1.776 . S
C2199 C167 1.676 . S
C2215 C207 1.676 . S
C2217 C282 1.776 . S
C2233 C322 1.776 . S
C2235 C127 1.676 . S
C2251 C362 1.776 . S
C2253 C87 1.676 . S
C2269 C7 1.676 . S
C2271 C402 1.776 . S
C2287 C47 1.676 . S
C2289 C442 1.776 . S
C2305 C896 1.676 . S
C2307 C491 1.776 . S
C2323 C936 1.676 . S
C2325 C531 1.776 . S
C2341 C856 1.676 . S
C2343 C571 1.776 . S
C2359 C816 1.676 . S
C2361 C611 1.776 . S
C2377 C651 1.776 . S
C2379 C736 1.676 . S
C2395 C776 1.676 . S
C2397 C691 1.776 . S
C2413 C647 1.676 . S
C2415 C722 1.776 . S
C2431 C762 1.776 . S
C2433 C687 1.676 . S
C2449 C802 1.776 . S
C2451 C607 1.676 . S
C2467 C567 1.676 . S
C2469 C842 1.776 . S
C2485 C882 1.776 . S
C2487 C487 1.676 . S
C2503 C922 1.776 . S
C2505 C527 1.676 . S
C2521 C971 1.776 . S
C2523 C1376 1.676 . S
C2539 C1011 1.776 . S
C2541 C1416 1.676 . S
C2557 C1336 1.676 . S
C2559 C1051 1.776 . S
C2575 C1296 1.676 . S
C2577 C1091 1.776 . S
C2593 C1131 1.776 . S
C2595 C1216 1.676 . S
C2611 C1256 1.676 . S
C2613 C1171 1.776 . S
C2629 C1202 1.776 . S
C2631 C1127 1.676 . S
C2647 C1167 1.676 . S
C2649 C1242 1.776 . S
C2665 C1282 1.776 . S
C2667 C1087 1.676 . S
C2683 C1322 1.776 . S
C2685 C1047 1.676 . S
C2701 C967 1.676 . S
C2703 C1362 1.776 . S
C2719 C1007 1.676 . S
C2721 C1402 1.776 . S
C2737 C2 3.334 . S
C2739 C162 3.334 . S
C2755 C202 3.333 . S
C2757 C42 3.333 . S
C2773 C82 3.334 . S
C2775 C122 3.334 . S
C2791 C251 3.334 . S
C2793 C411 3.334 . S
C2809 C451 3.333 . S
C2811 C291 3.333 . S
C2827 C331 3.334 . S
C2829 C371 3.334 . S
C2845 C642 3.334 . S
C2847 C482 3.334 . S
C2863 C682 3.333 . S
C2865 C522 3.333 . S
C2881 C602 3.334 . S
C2883 C562 3.334 . S
C2899 C891 3.333 . S
C2901 C731 3.333 . S
C2917 C771 3.333 . S
C2919 C931 3.333 . S
C2935 C851 3.334 . S
C2937 C811 3.334 . S
C2953 C1122 3.334 . S
C2955 C962 3.334 . S
C2971 C1002 3.333 . S
C2973 C1162 3.333 . S
C2989 C1042 3.334 . S
C2991 C1082 3.333 . S
C3007 C1371 3.333 . S
C3009 C1211 3.333 . S
C3025 C1251 3.333 . S
C3027 C1411 3.333 . S
C3043 C1291 3.333 . S
C3045 C1331 3.333 . S
C3061 C19 1.376 . S
C3063 C250 1.386 . S
C3079 C59 1.376 . S
C3081 C290 1.386 . S
C3097 C330 1.386 . S
C3099 C99 1.376 . S
C3115 C370 1.376 . S
C3117 C139 1.376 . S
C3133 C179 1.376 . S
C3135 C410 1.376 . S
C3151 C219 1.376 . S
C3153 C450 1.376 . S
C3169 C730 1.376 . S
C3171 C499 1.376 . S
C3187 C539 1.376 . S
C3189 C770 1.376 . S
C3205 C810 1.376 . S
C3207 C579 1.376 . S
C3223 C850 1.376 . S
C3225 C619 1.376 . S
C3241 C890 1.376 . S
C3243 C659 1.376 . S
C3259 C930 1.376 . S
C3261 C699 1.376 . S
C3277 C1210 1.376 . S
C3279 C979 1.376 . S
C3295 C1019 1.376 . S
C3297 C1250 1.376 . S
C3313 C1290 1.376 . S
C3315 C1059 1.376 . S
C3331 C1330 1.376 . S
C3333 C1099 1.376 . S
C3349 C1370 1.376 . S
C3351 C1139 1.376 . S
C3367 C1179 1.376 . S
C3369 C1410 1.376 . S
