# Generated by pormake.
# Topology ato, (4)-cn, num edge types: 1
# Building blocks:
#     Node 0, Type 0, BuildingBlock: CEKHIL_clean_sbu_0, # of connection points: 4
#     Node 1, Type 0, BuildingBlock: CEKHIL_clean_sbu_0, # of connection points: 4
#     Node 2, Type 0, BuildingBlock: CEKHIL_clean_sbu_0, # of connection points: 4
#     Node 3, Type 0, BuildingBlock: CEKHIL_clean_sbu_0, # of connection points: 4
#     Node 4, Type 0, BuildingBlock: CEKHIL_clean_sbu_0, # of connection points: 4
#     Node 5, Type 0, BuildingBlock: CEKHIL_clean_sbu_0, # of connection points: 4
#     Node 6, Type 0, BuildingBlock: CEKHIL_clean_sbu_0, # of connection points: 4
#     Node 7, Type 0, BuildingBlock: CEKHIL_clean_sbu_0, # of connection points: 4
#     Node 8, Type 0, BuildingBlock: CEKHIL_clean_sbu_0, # of connection points: 4
#     Node 9, Type 0, BuildingBlock: CEKHIL_clean_sbu_0, # of connection points: 4
#     Node 10, Type 0, BuildingBlock: CEKHIL_clean_sbu_0, # of connection points: 4
#     Node 11, Type 0, BuildingBlock: CEKHIL_clean_sbu_0, # of connection points: 4
#     Node 12, Type 0, BuildingBlock: CEKHIL_clean_sbu_0, # of connection points: 4
#     Node 13, Type 0, BuildingBlock: CEKHIL_clean_sbu_0, # of connection points: 4
#     Node 14, Type 0, BuildingBlock: CEKHIL_clean_sbu_0, # of connection points: 4
#     Node 15, Type 0, BuildingBlock: CEKHIL_clean_sbu_0, # of connection points: 4
#     Node 16, Type 0, BuildingBlock: CEKHIL_clean_sbu_0, # of connection points: 4
#     Node 17, Type 0, BuildingBlock: CEKHIL_clean_sbu_0, # of connection points: 4
#     Node 18, Type 0, BuildingBlock: CEKHIL_clean_sbu_0, # of connection points: 4
#     Node 19, Type 0, BuildingBlock: CEKHIL_clean_sbu_0, # of connection points: 4
#     Node 20, Type 0, BuildingBlock: CEKHIL_clean_sbu_0, # of connection points: 4
#     Node 21, Type 0, BuildingBlock: CEKHIL_clean_sbu_0, # of connection points: 4
#     Node 22, Type 0, BuildingBlock: CEKHIL_clean_sbu_0, # of connection points: 4
#     Node 23, Type 0, BuildingBlock: CEKHIL_clean_sbu_0, # of connection points: 4
#     Node 24, Type 0, BuildingBlock: CEKHIL_clean_sbu_0, # of connection points: 4
#     Node 25, Type 0, BuildingBlock: CEKHIL_clean_sbu_0, # of connection points: 4
#     Node 26, Type 0, BuildingBlock: CEKHIL_clean_sbu_0, # of connection points: 4
#     Node 27, Type 0, BuildingBlock: CEKHIL_clean_sbu_0, # of connection points: 4
#     Node 28, Type 0, BuildingBlock: CEKHIL_clean_sbu_0, # of connection points: 4
#     Node 29, Type 0, BuildingBlock: CEKHIL_clean_sbu_0, # of connection points: 4
#     Node 30, Type 0, BuildingBlock: CEKHIL_clean_sbu_0, # of connection points: 4
#     Node 31, Type 0, BuildingBlock: CEKHIL_clean_sbu_0, # of connection points: 4
#     Node 32, Type 0, BuildingBlock: CEKHIL_clean_sbu_0, # of connection points: 4
#     Node 33, Type 0, BuildingBlock: CEKHIL_clean_sbu_0, # of connection points: 4
#     Node 34, Type 0, BuildingBlock: CEKHIL_clean_sbu_0, # of connection points: 4
#     Node 35, Type 0, BuildingBlock: CEKHIL_clean_sbu_0, # of connection points: 4
#     Edge 36, Type (0, 0), BuildingBlock: CIFDUS_clean_linker_0, # of connection points: 2
#     Edge 37, Type (0, 0), BuildingBlock: CIFDUS_clean_linker_0, # of connection points: 2
#     Edge 38, Type (0, 0), BuildingBlock: CIFDUS_clean_linker_0, # of connection points: 2
#     Edge 39, Type (0, 0), BuildingBlock: CIFDUS_clean_linker_0, # of connection points: 2
#     Edge 40, Type (0, 0), BuildingBlock: CIFDUS_clean_linker_0, # of connection points: 2
#     Edge 41, Type (0, 0), BuildingBlock: CIFDUS_clean_linker_0, # of connection points: 2
#     Edge 42, Type (0, 0), BuildingBlock: CIFDUS_clean_linker_0, # of connection points: 2
#     Edge 43, Type (0, 0), BuildingBlock: CIFDUS_clean_linker_0, # of connection points: 2
#     Edge 44, Type (0, 0), BuildingBlock: CIFDUS_clean_linker_0, # of connection points: 2
#     Edge 45, Type (0, 0), BuildingBlock: CIFDUS_clean_linker_0, # of connection points: 2
#     Edge 46, Type (0, 0), BuildingBlock: CIFDUS_clean_linker_0, # of connection points: 2
#     Edge 47, Type (0, 0), BuildingBlock: CIFDUS_clean_linker_0, # of connection points: 2
#     Edge 48, Type (0, 0), BuildingBlock: CIFDUS_clean_linker_0, # of connection points: 2
#     Edge 49, Type (0, 0), BuildingBlock: CIFDUS_clean_linker_0, # of connection points: 2
#     Edge 50, Type (0, 0), BuildingBlock: CIFDUS_clean_linker_0, # of connection points: 2
#     Edge 51, Type (0, 0), BuildingBlock: CIFDUS_clean_linker_0, # of connection points: 2
#     Edge 52, Type (0, 0), BuildingBlock: CIFDUS_clean_linker_0, # of connection points: 2
#     Edge 53, Type (0, 0), BuildingBlock: CIFDUS_clean_linker_0, # of connection points: 2
#     Edge 54, Type (0, 0), BuildingBlock: CIFDUS_clean_linker_0, # of connection points: 2
#     Edge 55, Type (0, 0), BuildingBlock: CIFDUS_clean_linker_0, # of connection points: 2
#     Edge 56, Type (0, 0), BuildingBlock: CIFDUS_clean_linker_0, # of connection points: 2
#     Edge 57, Type (0, 0), BuildingBlock: CIFDUS_clean_linker_0, # of connection points: 2
#     Edge 58, Type (0, 0), BuildingBlock: CIFDUS_clean_linker_0, # of connection points: 2
#     Edge 59, Type (0, 0), BuildingBlock: CIFDUS_clean_linker_0, # of connection points: 2
#     Edge 60, Type (0, 0), BuildingBlock: CIFDUS_clean_linker_0, # of connection points: 2
#     Edge 61, Type (0, 0), BuildingBlock: CIFDUS_clean_linker_0, # of connection points: 2
#     Edge 62, Type (0, 0), BuildingBlock: CIFDUS_clean_linker_0, # of connection points: 2
#     Edge 63, Type (0, 0), BuildingBlock: CIFDUS_clean_linker_0, # of connection points: 2
#     Edge 64, Type (0, 0), BuildingBlock: CIFDUS_clean_linker_0, # of connection points: 2
#     Edge 65, Type (0, 0), BuildingBlock: CIFDUS_clean_linker_0, # of connection points: 2
#     Edge 66, Type (0, 0), BuildingBlock: CIFDUS_clean_linker_0, # of connection points: 2
#     Edge 67, Type (0, 0), BuildingBlock: CIFDUS_clean_linker_0, # of connection points: 2
#     Edge 68, Type (0, 0), BuildingBlock: CIFDUS_clean_linker_0, # of connection points: 2
#     Edge 69, Type (0, 0), BuildingBlock: CIFDUS_clean_linker_0, # of connection points: 2
#     Edge 70, Type (0, 0), BuildingBlock: CIFDUS_clean_linker_0, # of connection points: 2
#     Edge 71, Type (0, 0), BuildingBlock: CIFDUS_clean_linker_0, # of connection points: 2
#     Edge 72, Type (0, 0), BuildingBlock: CIFDUS_clean_linker_0, # of connection points: 2
#     Edge 73, Type (0, 0), BuildingBlock: CIFDUS_clean_linker_0, # of connection points: 2
#     Edge 74, Type (0, 0), BuildingBlock: CIFDUS_clean_linker_0, # of connection points: 2
#     Edge 75, Type (0, 0), BuildingBlock: CIFDUS_clean_linker_0, # of connection points: 2
#     Edge 76, Type (0, 0), BuildingBlock: CIFDUS_clean_linker_0, # of connection points: 2
#     Edge 77, Type (0, 0), BuildingBlock: CIFDUS_clean_linker_0, # of connection points: 2
#     Edge 78, Type (0, 0), BuildingBlock: CIFDUS_clean_linker_0, # of connection points: 2
#     Edge 79, Type (0, 0), BuildingBlock: CIFDUS_clean_linker_0, # of connection points: 2
#     Edge 80, Type (0, 0), BuildingBlock: CIFDUS_clean_linker_0, # of connection points: 2
#     Edge 81, Type (0, 0), BuildingBlock: CIFDUS_clean_linker_0, # of connection points: 2
#     Edge 82, Type (0, 0), BuildingBlock: CIFDUS_clean_linker_0, # of connection points: 2
#     Edge 83, Type (0, 0), BuildingBlock: CIFDUS_clean_linker_0, # of connection points: 2
#     Edge 84, Type (0, 0), BuildingBlock: CIFDUS_clean_linker_0, # of connection points: 2
#     Edge 85, Type (0, 0), BuildingBlock: CIFDUS_clean_linker_0, # of connection points: 2
#     Edge 86, Type (0, 0), BuildingBlock: CIFDUS_clean_linker_0, # of connection points: 2
#     Edge 87, Type (0, 0), BuildingBlock: CIFDUS_clean_linker_0, # of connection points: 2
#     Edge 88, Type (0, 0), BuildingBlock: CIFDUS_clean_linker_0, # of connection points: 2
#     Edge 89, Type (0, 0), BuildingBlock: CIFDUS_clean_linker_0, # of connection points: 2
#     Edge 90, Type (0, 0), BuildingBlock: CIFDUS_clean_linker_0, # of connection points: 2
#     Edge 91, Type (0, 0), BuildingBlock: CIFDUS_clean_linker_0, # of connection points: 2
#     Edge 92, Type (0, 0), BuildingBlock: CIFDUS_clean_linker_0, # of connection points: 2
#     Edge 93, Type (0, 0), BuildingBlock: CIFDUS_clean_linker_0, # of connection points: 2
#     Edge 94, Type (0, 0), BuildingBlock: CIFDUS_clean_linker_0, # of connection points: 2
#     Edge 95, Type (0, 0), BuildingBlock: CIFDUS_clean_linker_0, # of connection points: 2
#     Edge 96, Type (0, 0), BuildingBlock: CIFDUS_clean_linker_0, # of connection points: 2
#     Edge 97, Type (0, 0), BuildingBlock: CIFDUS_clean_linker_0, # of connection points: 2
#     Edge 98, Type (0, 0), BuildingBlock: CIFDUS_clean_linker_0, # of connection points: 2
#     Edge 99, Type (0, 0), BuildingBlock: CIFDUS_clean_linker_0, # of connection points: 2
#     Edge 100, Type (0, 0), BuildingBlock: CIFDUS_clean_linker_0, # of connection points: 2
#     Edge 101, Type (0, 0), BuildingBlock: CIFDUS_clean_linker_0, # of connection points: 2
#     Edge 102, Type (0, 0), BuildingBlock: CIFDUS_clean_linker_0, # of connection points: 2
#     Edge 103, Type (0, 0), BuildingBlock: CIFDUS_clean_linker_0, # of connection points: 2
#     Edge 104, Type (0, 0), BuildingBlock: CIFDUS_clean_linker_0, # of connection points: 2
#     Edge 105, Type (0, 0), BuildingBlock: CIFDUS_clean_linker_0, # of connection points: 2
#     Edge 106, Type (0, 0), BuildingBlock: CIFDUS_clean_linker_0, # of connection points: 2
#     Edge 107, Type (0, 0), BuildingBlock: CIFDUS_clean_linker_0, # of connection points: 2
# Relax obj value: 0.086
# Max RMSD: 0.096
# Mean RMSD: 0.096
data_MOF--net-ato--node1-CEKHIL_clean_sbu_0--edge1-CIFDUS_clean_linker_0
_symmetry_space_group_name_H-M    P1
_symmetry_Int_Tables_number       1
_symmetry_cell_setting            triclinic
loop_
_symmetry_equiv_pos_as_xyz
'x, y, z'
_cell_length_a     88.761843
_cell_length_b     88.698361
_cell_length_c     20.25115
_cell_angle_alpha  90.154357
_cell_angle_beta   89.981522
_cell_angle_gamma 120.071
loop_
_atom_site_label
_atom_site_type_symbol
_atom_site_fract_x
_atom_site_fract_y
_atom_site_fract_z
_atom_type_partial_charge
Co0 Co 0.25656 0.0601 0.28554 0.0
O1 O 0.23581 0.04499 0.33561 0.0
O2 O 0.26065 0.0451 0.34379 0.0
C3 C 0.25593 0.0851 0.30214 0.0
O4 O 0.28097 0.07422 0.24563 0.0
Co5 Co 0.25511 0.07964 0.1601 0.0
O6 O 0.28077 0.09085 0.16195 0.0
C7 C 0.24423 0.04234 0.15025 0.0
C8 C 0.24468 0.03878 0.36381 0.0
C9 C 0.28871 0.08581 0.20044 0.0
O10 O 0.24875 0.04229 0.21091 0.0
O11 O 0.24478 0.05558 0.12284 0.0
O12 O 0.26224 0.07937 0.34711 0.0
O13 O 0.24882 0.07482 0.25231 0.0
Co14 Co 0.95577 0.19853 0.26714 0.0
O15 O 0.97217 0.19355 0.31133 0.0
O16 O 0.96927 0.21642 0.33195 0.0
C17 C 0.93245 0.17124 0.27401 0.0
O18 O 0.94001 0.20786 0.2367 0.0
Co19 Co 0.9369 0.18049 0.13592 0.0
O20 O 0.92362 0.19267 0.14959 0.0
C21 C 0.97365 0.20885 0.13237 0.0
C22 C 0.97692 0.20759 0.34596 0.0
C23 C 0.92798 0.20437 0.19378 0.0
O24 O 0.97343 0.21182 0.19482 0.0
O25 O 0.96087 0.19632 0.10185 0.0
O26 O 0.93689 0.18178 0.32431 0.0
O27 O 0.94287 0.17699 0.22425 0.0
Co28 Co 0.81456 0.75865 0.27942 0.0
O29 O 0.82035 0.78 0.32611 0.0
O30 O 0.7963 0.75481 0.3415 0.0
C31 C 0.84116 0.7611 0.29055 0.0
O32 O 0.80405 0.73369 0.24444 0.0
Co33 Co 0.83345 0.75746 0.15163 0.0
O34 O 0.82184 0.73212 0.16922 0.0
C35 C 0.80654 0.76791 0.14383 0.0
C36 C 0.80579 0.77113 0.35794 0.0
C37 C 0.80852 0.72489 0.20651 0.0
O38 O 0.80298 0.76472 0.20589 0.0
O39 O 0.81874 0.76671 0.11496 0.0
O40 O 0.82995 0.75481 0.33857 0.0
O41 O 0.83637 0.76657 0.24036 0.0
Co42 Co 0.06583 0.25773 0.72584 0.0
O43 O 0.04855 0.23767 0.67608 0.0
O44 O 0.053 0.26441 0.66741 0.0
C45 C 0.08825 0.25267 0.71194 0.0
O46 O 0.08255 0.28197 0.76229 0.0
Co47 Co 0.08465 0.25566 0.85208 0.0
O48 O 0.09909 0.28132 0.84503 0.0
C49 C 0.04832 0.24827 0.86136 0.0
C50 C 0.0445 0.24831 0.64773 0.0
C51 C 0.09497 0.28962 0.80459 0.0
O52 O 0.04854 0.25268 0.80038 0.0
O53 O 0.06093 0.24756 0.88878 0.0
O54 O 0.08423 0.26011 0.66533 0.0
O55 O 0.07794 0.24745 0.76211 0.0
Co56 Co 0.75661 0.81102 0.73872 0.0
O57 O 0.77614 0.81462 0.68349 0.0
O58 O 0.74991 0.79132 0.68086 0.0
C59 C 0.76006 0.83804 0.72573 0.0
O60 O 0.73294 0.80214 0.78228 0.0
Co61 Co 0.75905 0.83229 0.86468 0.0
O62 O 0.73338 0.82108 0.85698 0.0
C63 C 0.76829 0.80441 0.87167 0.0
C64 C 0.76563 0.79947 0.65744 0.0
C65 C 0.72518 0.80727 0.82248 0.0
O66 O 0.76383 0.80002 0.81078 0.0
O67 O 0.76815 0.81729 0.89972 0.0
O68 O 0.75212 0.82618 0.68048 0.0
O69 O 0.76641 0.83355 0.77393 0.0
Co70 Co 0.20515 0.94947 0.74211 0.0
O71 O 0.20175 0.96526 0.68586 0.0
O72 O 0.22572 0.9636 0.68951 0.0
C73 C 0.17919 0.92515 0.72089 0.0
O74 O 0.21369 0.93466 0.78852 0.0
Co75 Co 0.18172 0.93035 0.86287 0.0
O76 O 0.19511 0.91803 0.868 0.0
C77 C 0.20874 0.96744 0.87553 0.0
C78 C 0.21736 0.97066 0.66351 0.0
C79 C 0.20876 0.92286 0.83347 0.0
O80 O 0.21432 0.96735 0.81663 0.0
O81 O 0.19536 0.95437 0.90069 0.0
O82 O 0.19205 0.93027 0.67958 0.0
O83 O 0.18193 0.93557 0.76984 0.0
Co84 Co 0.7525 0.94946 0.73487 0.0
O85 O 0.77165 0.96446 0.67726 0.0
O86 O 0.74665 0.96416 0.6834 0.0
C87 C 0.75294 0.9246 0.71213 0.0
O88 O 0.72934 0.93574 0.78341 0.0
Co89 Co 0.7558 0.92952 0.85399 0.0
O90 O 0.72999 0.91619 0.85168 0.0
C91 C 0.76771 0.96713 0.86766 0.0
C92 C 0.76186 0.97048 0.65602 0.0
C93 C 0.72176 0.92257 0.8224 0.0
O94 O 0.76235 0.96743 0.80864 0.0
O95 O 0.76696 0.95356 0.89306 0.0
O96 O 0.74519 0.93005 0.6724 0.0
O97 O 0.76108 0.93483 0.76114 0.0
Co98 Co 0.0619 0.81126 0.76064 0.0
O99 O 0.04679 0.81714 0.71166 0.0
O100 O 0.04784 0.79299 0.69783 0.0
C101 C 0.08639 0.83781 0.75137 0.0
O102 O 0.07591 0.80056 0.79736 0.0
Co103 Co 0.0812 0.82989 0.88998 0.0
O104 O 0.09472 0.81796 0.87491 0.0
C105 C 0.04362 0.80335 0.89445 0.0
C106 C 0.04122 0.80252 0.68001 0.0
C107 C 0.08881 0.80476 0.83681 0.0
O108 O 0.04362 0.79976 0.83251 0.0
O109 O 0.05693 0.81543 0.9244 0.0
O110 O 0.08165 0.82659 0.70323 0.0
O111 O 0.07576 0.83309 0.80048 0.0
Co112 Co 0.20679 0.26068 0.71089 0.0
O113 O 0.20434 0.24155 0.65673 0.0
O114 O 0.22786 0.26762 0.66021 0.0
C115 C 0.18059 0.25771 0.68525 0.0
O116 O 0.21392 0.28391 0.75711 0.0
Co117 Co 0.18174 0.25511 0.82765 0.0
O118 O 0.19111 0.28048 0.81735 0.0
C119 C 0.21029 0.24747 0.84655 0.0
C120 C 0.21992 0.25202 0.63489 0.0
C121 C 0.20593 0.29011 0.79094 0.0
O122 O 0.21591 0.25282 0.7875 0.0
O123 O 0.19652 0.24667 0.87021 0.0
O124 O 0.19374 0.26591 0.64554 0.0
O125 O 0.18331 0.25041 0.73532 0.0
Co126 Co 0.95162 0.75288 0.30266 0.0
O127 O 0.9684 0.77228 0.35594 0.0
O128 O 0.96554 0.74608 0.35486 0.0
C129 C 0.92839 0.75608 0.32589 0.0
O130 O 0.93546 0.72934 0.25867 0.0
Co131 Co 0.93216 0.75735 0.18357 0.0
O132 O 0.91583 0.73217 0.19784 0.0
C133 C 0.96852 0.76527 0.16664 0.0
C134 C 0.97333 0.76179 0.37906 0.0
C135 C 0.92106 0.7228 0.22603 0.0
O136 O 0.96871 0.76023 0.22631 0.0
O137 O 0.95553 0.76581 0.14187 0.0
O138 O 0.93329 0.74817 0.36723 0.0
O139 O 0.93848 0.763 0.27559 0.0
Co140 Co 0.25714 0.20096 0.25225 0.0
O141 O 0.23668 0.19579 0.30325 0.0
O142 O 0.26224 0.21967 0.31458 0.0
C143 C 0.25451 0.17421 0.26233 0.0
O144 O 0.28145 0.21072 0.21202 0.0
Co145 Co 0.25503 0.18088 0.1225 0.0
O146 O 0.28074 0.19466 0.12444 0.0
C147 C 0.2456 0.20849 0.1201 0.0
C148 C 0.24616 0.21047 0.33389 0.0
C149 C 0.28899 0.20717 0.16495 0.0
O150 O 0.25024 0.21253 0.18105 0.0
O151 O 0.24551 0.1957 0.09041 0.0
O152 O 0.26155 0.18564 0.30953 0.0
O153 O 0.24823 0.17881 0.21414 0.0
Co154 Co 0.81456 0.0591 0.27867 0.0
O155 O 0.81886 0.04271 0.32574 0.0
O156 O 0.79488 0.04428 0.33475 0.0
C157 C 0.84079 0.08285 0.29951 0.0
O158 O 0.80583 0.07482 0.24146 0.0
Co159 Co 0.83639 0.07942 0.15673 0.0
O160 O 0.82735 0.09521 0.17913 0.0
C161 C 0.80878 0.04261 0.14088 0.0
C162 C 0.8038 0.03705 0.35356 0.0
C163 C 0.81312 0.0895 0.21067 0.0
O164 O 0.80422 0.04221 0.20171 0.0
O165 O 0.82171 0.05594 0.11464 0.0
O166 O 0.82848 0.07723 0.34337 0.0
O167 O 0.83739 0.07315 0.24758 0.0
Co168 Co 0.92261 0.3938 0.59351 0.0
O169 O 0.90106 0.37797 0.63856 0.0
O170 O 0.92637 0.37952 0.65576 0.0
C171 C 0.92039 0.4181 0.6041 0.0
O172 O 0.94779 0.40866 0.56276 0.0
Co173 Co 0.92459 0.4135 0.46466 0.0
O174 O 0.95014 0.42594 0.47772 0.0
C175 C 0.91338 0.37606 0.45765 0.0
C176 C 0.91002 0.37251 0.67124 0.0
C177 C 0.95693 0.42083 0.5212 0.0
O178 O 0.91691 0.37605 0.51962 0.0
O179 O 0.91453 0.38935 0.42835 0.0
O180 O 0.9261 0.41284 0.6529 0.0
O181 O 0.91499 0.4079 0.55328 0.0
Co182 Co 0.61973 0.5325 0.61444 0.0
O183 O 0.63558 0.52707 0.66071 0.0
O184 O 0.63351 0.55054 0.67828 0.0
C185 C 0.5957 0.50562 0.62205 0.0
O186 O 0.60474 0.54252 0.58231 0.0
Co187 Co 0.60074 0.51469 0.48364 0.0
O188 O 0.58803 0.52755 0.49565 0.0
C189 C 0.63805 0.54158 0.48022 0.0
C190 C 0.64072 0.54141 0.69393 0.0
C191 C 0.59277 0.53938 0.53952 0.0
O192 O 0.63778 0.54501 0.54221 0.0
O193 O 0.625 0.52929 0.44992 0.0
O194 O 0.60042 0.51639 0.67168 0.0
O195 O 0.60624 0.51087 0.5725 0.0
Co196 Co 0.47937 0.08898 0.6434 0.0
O197 O 0.48495 0.10985 0.69258 0.0
O198 O 0.46023 0.08497 0.70156 0.0
C199 C 0.50522 0.09023 0.66076 0.0
O200 O 0.46919 0.06455 0.6032 0.0
Co201 Co 0.50071 0.09007 0.51926 0.0
O202 O 0.4885 0.0645 0.53132 0.0
C203 C 0.47363 0.10008 0.50712 0.0
C204 C 0.46989 0.10105 0.72098 0.0
C205 C 0.47446 0.05655 0.56451 0.0
O206 O 0.46935 0.09634 0.56837 0.0
O207 O 0.48625 0.09929 0.47994 0.0
O208 O 0.49312 0.08371 0.70554 0.0
O209 O 0.50184 0.09693 0.61047 0.0
Co210 Co 0.7301 0.59173 0.07199 0.0
O211 O 0.71341 0.57221 0.01893 0.0
O212 O 0.71608 0.59832 0.01938 0.0
C213 C 0.75344 0.58871 0.04902 0.0
O214 O 0.74617 0.61537 0.11558 0.0
Co215 Co 0.74958 0.58751 0.19147 0.0
O216 O 0.76585 0.61268 0.17664 0.0
C217 C 0.71322 0.57958 0.20835 0.0
C218 C 0.70839 0.58259 0.9954 0.0
C219 C 0.76057 0.62198 0.14819 0.0
O220 O 0.71299 0.58441 0.14836 0.0
O221 O 0.72626 0.57917 0.23343 0.0
O222 O 0.74845 0.59648 1.0075 0.0
O223 O 0.74338 0.58177 0.09939 0.0
Co224 Co 0.42235 0.14222 0.10285 0.0
O225 O 0.44128 0.14494 0.0464 0.0
O226 O 0.41466 0.12221 0.04527 0.0
C227 C 0.42673 0.16955 0.08928 0.0
O228 O 0.39908 0.13457 0.14864 0.0
Co229 Co 0.42748 0.16462 0.22896 0.0
O230 O 0.40175 0.15243 0.23247 0.0
C231 C 0.43516 0.13576 0.23368 0.0
C232 C 0.43029 0.1299 0.02082 0.0
C233 C 0.39253 0.13941 0.19523 0.0
O234 O 0.42944 0.13088 0.17425 0.0
O235 O 0.43645 0.14936 0.26118 0.0
O236 O 0.41825 0.15763 0.04476 0.0
O237 O 0.4332 0.16494 0.13666 0.0
Co238 Co 0.8724 0.28341 0.04834 0.0
O239 O 0.86835 0.29955 0.99674 0.0
O240 O 0.89246 0.29808 0.99496 0.0
C241 C 0.84657 0.259 0.02746 0.0
O242 O 0.88159 0.26841 0.08747 0.0
Co243 Co 0.85084 0.26316 0.17029 0.0
O244 O 0.8641 0.25064 0.16699 0.0
C245 C 0.87711 0.30035 0.18509 0.0
C246 C 0.88383 0.30522 0.97235 0.0
C247 C 0.87725 0.25599 0.12919 0.0
O248 O 0.88207 0.30067 0.12484 0.0
O249 O 0.86422 0.28692 0.21089 0.0
O250 O 0.85908 0.26481 0.98433 0.0
O251 O 0.84945 0.26888 0.07854 0.0
Co252 Co 0.42485 0.2839 0.0823 0.0
O253 O 0.44558 0.29858 0.03163 0.0
O254 O 0.42112 0.2993 0.02514 0.0
C255 C 0.42467 0.25858 0.06394 0.0
O256 O 0.40055 0.27032 0.12343 0.0
Co257 Co 0.42617 0.26404 0.20649 0.0
O258 O 0.40055 0.25344 0.20643 0.0
C259 C 0.43809 0.30155 0.21717 0.0
C260 C 0.43696 0.30519 1.00434 0.0
C261 C 0.39273 0.2588 0.16881 0.0
O262 O 0.43337 0.3017 0.15695 0.0
O263 O 0.43727 0.28814 0.24417 0.0
O264 O 0.41839 0.26462 0.02011 0.0
O265 O 0.43217 0.26869 0.11391 0.0
Co266 Co 0.73173 0.14263 0.06644 0.0
O267 O 0.7156 0.14631 0.01273 0.0
O268 O 0.71857 0.12307 1.00801 0.0
C269 C 0.7552 0.1698 0.05369 0.0
O270 O 0.74666 0.13361 0.10788 0.0
Co271 Co 0.75104 0.1635 0.19247 0.0
O272 O 0.76494 0.15172 0.18502 0.0
C273 C 0.71379 0.13593 0.20008 0.0
C274 C 0.71091 0.13124 0.9858 0.0
C275 C 0.75931 0.13819 0.14886 0.0
O276 O 0.7137 0.13147 0.13917 0.0
O277 O 0.72693 0.14879 0.22776 0.0
O278 O 0.7512 0.15808 1.00779 0.0
O279 O 0.74455 0.16506 0.1026 0.0
Co280 Co 0.86756 0.58649 0.09228 0.0
O281 O 0.86195 0.56538 0.04409 0.0
O282 O 0.8859 0.59075 0.03012 0.0
C283 C 0.84089 0.58393 0.08178 0.0
O284 O 0.87794 0.61129 0.1287 0.0
Co285 Co 0.8486 0.58717 0.22059 0.0
O286 O 0.86008 0.61257 0.20426 0.0
C287 C 0.87555 0.57672 0.22684 0.0
C288 C 0.87654 0.57451 0.01266 0.0
C289 C 0.87341 0.61994 0.16711 0.0
O290 O 0.87917 0.58018 0.16496 0.0
O291 O 0.86332 0.57779 0.2561 0.0
O292 O 0.85212 0.59046 0.0339 0.0
O293 O 0.8457 0.5783 0.13143 0.0
Co294 Co 0.62121 0.09243 0.60707 0.0
O295 O 0.63683 0.11326 0.65624 0.0
O296 O 0.63529 0.08782 0.66856 0.0
C297 C 0.59713 0.09494 0.61912 0.0
O298 O 0.60637 0.06791 0.56808 0.0
Co299 Co 0.60268 0.0943 0.47856 0.0
O300 O 0.59087 0.06859 0.48103 0.0
C301 C 0.63947 0.10303 0.47285 0.0
C302 C 0.64227 0.10403 0.68686 0.0
C303 C 0.59516 0.06038 0.52128 0.0
O304 O 0.63918 0.09886 0.53415 0.0
O305 O 0.62672 0.10317 0.44399 0.0
O306 O 0.60185 0.08822 0.66613 0.0
O307 O 0.60775 0.10111 0.57011 0.0
Co308 Co 0.92771 0.53658 0.63334 0.0
O309 O 0.90798 0.53259 0.6879 0.0
O310 O 0.93364 0.55666 0.68815 0.0
C311 C 0.92577 0.51041 0.65141 0.0
O312 O 0.95146 0.54589 0.58961 0.0
Co313 Co 0.92562 0.51452 0.51061 0.0
O314 O 0.95132 0.5263 0.51884 0.0
C315 C 0.91509 0.54131 0.49886 0.0
C316 C 0.91801 0.54808 0.71221 0.0
C317 C 0.95935 0.54051 0.55118 0.0
O318 O 0.91966 0.54624 0.55922 0.0
O319 O 0.91566 0.52848 0.47234 0.0
O320 O 0.93321 0.52287 0.69479 0.0
O321 O 0.91877 0.51372 0.60192 0.0
Co322 Co 0.47688 0.39405 0.62549 0.0
O323 O 0.48043 0.37834 0.68165 0.0
O324 O 0.45629 0.37972 0.67718 0.0
C325 C 0.50271 0.4184 0.64766 0.0
O326 O 0.46796 0.40849 0.57934 0.0
Co327 Co 0.50003 0.41416 0.50597 0.0
O328 O 0.48828 0.42815 0.51163 0.0
C329 C 0.47363 0.37676 0.49129 0.0
C330 C 0.46472 0.37278 0.70345 0.0
C331 C 0.47378 0.42193 0.54166 0.0
O332 O 0.46811 0.37638 0.55065 0.0
O333 O 0.48663 0.39025 0.4662 0.0
O334 O 0.48974 0.41316 0.68855 0.0
O335 O 0.50008 0.40821 0.59801 0.0
Co336 Co 0.59296 0.72855 0.96158 0.0
O337 O 0.57363 0.71145 0.0134 0.0
O338 O 0.59996 0.71461 0.01255 0.0
C339 C 0.58939 0.75138 0.98722 0.0
O340 O 0.61642 0.74514 0.91878 0.0
Co341 Co 0.5883 0.74818 0.84417 0.0
O342 O 0.61331 0.76493 0.86052 0.0
C343 C 0.58111 0.71212 0.82422 0.0
C344 C 0.58423 0.70664 0.03627 0.0
C345 C 0.62281 0.75977 0.88804 0.0
O346 O 0.58595 0.7118 0.88408 0.0
O347 O 0.58046 0.7251 0.80001 0.0
O348 O 0.59742 0.74643 0.02772 0.0
O349 O 0.58257 0.74156 0.93592 0.0
Co350 Co 0.28912 0.86751 0.92378 0.0
O351 O 0.30461 0.8624 0.97372 0.0
O352 O 0.30278 0.88615 0.98639 0.0
C353 C 0.26512 0.84068 0.93354 0.0
O354 O 0.27435 0.87716 0.8848 0.0
Co355 Co 0.27097 0.8475 0.79388 0.0
O356 O 0.25892 0.86113 0.79715 0.0
C357 C 0.30801 0.87521 0.79118 0.0
C358 C 0.3098 0.87702 1.00484 0.0
C359 C 0.26313 0.87352 0.83816 0.0
O360 O 0.30747 0.87927 0.85216 0.0
O361 O 0.2953 0.86236 0.76168 0.0
O362 O 0.26949 0.85197 0.98122 0.0
O363 O 0.27595 0.84545 0.88516 0.0
Co364 Co 0.14923 0.4236 0.95587 0.0
O365 O 0.15176 0.44344 1.00677 0.0
O366 O 0.12998 0.41643 0.0161 0.0
C367 C 0.1771 0.42935 0.96635 0.0
O368 O 0.14197 0.39948 0.91893 0.0
Co369 Co 0.16953 0.42601 0.82733 0.0
O370 O 0.15861 0.40036 0.83369 0.0
C371 C 0.13999 0.43256 0.82161 0.0
C372 C 0.13727 0.4325 0.03591 0.0
C373 C 0.14653 0.39195 0.87537 0.0
O374 O 0.13623 0.42823 0.88294 0.0
O375 O 0.15329 0.43355 0.79288 0.0
O376 O 0.16603 0.42174 0.01412 0.0
O377 O 0.17139 0.4343 0.91735 0.0
Co378 Co 0.39942 0.9268 0.38252 0.0
O379 O 0.38306 0.90784 0.32675 0.0
O380 O 0.3854 0.93379 0.33147 0.0
C381 C 0.423 0.92428 0.35836 0.0
O382 O 0.41513 0.94984 0.43058 0.0
Co383 Co 0.41852 0.92093 0.5001 0.0
O384 O 0.43435 0.94639 0.49182 0.0
C385 C 0.38223 0.91322 0.51721 0.0
C386 C 0.37791 0.9183 0.30525 0.0
C387 C 0.42912 0.95599 0.46561 0.0
O388 O 0.38207 0.91854 0.45804 0.0
O389 O 0.39515 0.91246 0.54148 0.0
O390 O 0.41813 0.93249 0.31843 0.0
O391 O 0.41268 0.91665 0.40737 0.0
Co392 Co 0.09508 0.47976 0.41494 0.0
O393 O 0.11695 0.48537 0.37282 0.0
O394 O 0.09158 0.46217 0.35006 0.0
C395 C 0.09845 0.50681 0.40794 0.0
O396 O 0.06965 0.46973 0.44229 0.0
Co397 Co 0.09242 0.49687 0.5454 0.0
O398 O 0.06703 0.48419 0.52888 0.0
C399 C 0.10221 0.46957 0.55077 0.0
C400 C 0.10813 0.47135 0.33748 0.0
C401 C 0.06039 0.47266 0.48374 0.0
O402 O 0.09939 0.46662 0.4881 0.0
O403 O 0.10127 0.48176 0.5809 0.0
O404 O 0.0929 0.49637 0.35725 0.0
O405 O 0.10291 0.50112 0.45848 0.0
Co406 Co 0.53521 0.61865 0.41696 0.0
O407 O 0.52992 0.63464 0.37151 0.0
O408 O 0.55322 0.6323 0.35335 0.0
C409 C 0.50817 0.59498 0.40848 0.0
O410 O 0.54497 0.60339 0.4486 0.0
Co411 Co 0.51734 0.59966 0.5471 0.0
O412 O 0.52992 0.5867 0.53482 0.0
C413 C 0.54431 0.63696 0.5512 0.0
C414 C 0.54416 0.63963 0.33812 0.0
C415 C 0.54171 0.59135 0.49107 0.0
O416 O 0.54785 0.63664 0.48945 0.0
O417 O 0.53193 0.62396 0.5811 0.0
O418 O 0.51896 0.59951 0.35915 0.0
O419 O 0.51359 0.6054 0.45854 0.0
Co420 Co 0.09095 0.61784 0.40408 0.0
O421 O 0.10978 0.63439 0.34878 0.0
O422 O 0.08355 0.63141 0.35291 0.0
C423 C 0.09402 0.59455 0.38014 0.0
O424 O 0.06786 0.60181 0.45049 0.0
Co425 Co 0.09647 0.59903 0.52252 0.0
O426 O 0.07127 0.58239 0.51015 0.0
C427 C 0.10438 0.63545 0.5387 0.0
C428 C 0.09902 0.63912 0.32691 0.0
C429 C 0.06163 0.58745 0.48305 0.0
O430 O 0.09892 0.63534 0.47949 0.0
O431 O 0.10509 0.62257 0.56365 0.0
O432 O 0.08574 0.59927 0.33992 0.0
O433 O 0.10138 0.60484 0.42984 0.0
Co434 Co 0.39665 0.47755 0.41042 0.0
O435 O 0.37893 0.47915 0.35963 0.0
O436 O 0.3822 0.4561 0.36196 0.0
C437 C 0.41914 0.50391 0.3798 0.0
O438 O 0.41372 0.471 0.45098 0.0
Co439 Co 0.41918 0.50371 0.52084 0.0
O440 O 0.43504 0.49453 0.50228 0.0
C441 C 0.38353 0.47485 0.55232 0.0
C442 C 0.37421 0.46368 0.33705 0.0
C443 C 0.42892 0.47934 0.47781 0.0
O444 O 0.38115 0.46878 0.49253 0.0
O445 O 0.39728 0.48874 0.57094 0.0
O446 O 0.41378 0.49053 0.3408 0.0
O447 O 0.41004 0.50123 0.43259 0.0
Co448 Co 0.53887 0.92651 0.41618 0.0
O449 O 0.53583 0.90731 0.36071 0.0
O450 O 0.55893 0.93369 0.35938 0.0
C451 C 0.51178 0.92253 0.40015 0.0
O452 O 0.54668 0.94992 0.46191 0.0
Co453 Co 0.51618 0.92146 0.54085 0.0
O454 O 0.52861 0.94719 0.54485 0.0
C455 C 0.54506 0.91391 0.54823 0.0
C456 C 0.55094 0.91797 0.33531 0.0
C457 C 0.54176 0.95644 0.50847 0.0
O458 O 0.54986 0.91934 0.48858 0.0
O459 O 0.53151 0.91278 0.57532 0.0
O460 O 0.52392 0.93087 0.35655 0.0
O461 O 0.51602 0.91594 0.44833 0.0
Co462 Co 0.29001 0.42531 0.94282 0.0
O463 O 0.30627 0.44649 0.98871 0.0
O464 O 0.30649 0.4218 0.99486 0.0
C465 C 0.26587 0.42654 0.9723 0.0
O466 O 0.27505 0.40057 0.90622 0.0
Co467 Co 0.26551 0.42464 0.83097 0.0
O468 O 0.25319 0.39914 0.84534 0.0
C469 C 0.30231 0.43518 0.79993 0.0
C470 C 0.31286 0.43778 0.01526 0.0
C471 C 0.2607 0.39187 0.87367 0.0
O472 O 0.3053 0.43237 0.86006 0.0
O473 O 0.28787 0.43379 0.78144 0.0
O474 O 0.27264 0.4202 0.01268 0.0
O475 O 0.27442 0.43283 0.91834 0.0
Co476 Co 0.58768 0.8654 0.95668 0.0
O477 O 0.56688 0.86155 1.00213 0.0
O478 O 0.59305 0.88422 0.01885 0.0
C479 C 0.58269 0.83786 0.96827 0.0
O480 O 0.61232 0.87354 0.92255 0.0
Co481 Co 0.58671 0.84514 0.82923 0.0
O482 O 0.61113 0.85295 0.85411 0.0
C483 C 0.58002 0.87467 0.82043 0.0
C484 C 0.57663 0.87588 0.03447 0.0
C485 C 0.61967 0.86655 0.88943 0.0
O486 O 0.58325 0.87807 0.88262 0.0
O487 O 0.57995 0.86176 0.79162 0.0
O488 O 0.58967 0.849 0.01639 0.0
O489 O 0.57795 0.84331 0.91789 0.0
Co490 Co 0.14761 0.72792 0.94832 0.0
O491 O 0.15288 0.7122 0.99527 0.0
O492 O 0.12847 0.71286 1.00622 0.0
C493 C 0.17361 0.75227 0.96663 0.0
O494 O 0.13788 0.74286 0.9118 0.0
Co495 Co 0.16836 0.74829 0.82447 0.0
O496 O 0.15863 0.76344 0.84749 0.0
C497 C 0.14163 0.71107 0.8112 0.0
C498 C 0.13793 0.70617 0.02437 0.0
C499 C 0.14455 0.75741 0.88027 0.0
O500 O 0.13727 0.71067 0.87233 0.0
O501 O 0.15415 0.72456 0.78402 0.0
O502 O 0.16157 0.74652 0.0116 0.0
O503 O 0.17012 0.74242 0.91515 0.0
H504 H 0.20176 0.98495 0.59045 0.0
H505 H 0.25043 0.98572 0.61431 0.0
H506 H 0.26311 0.00651 0.52375 0.0
H507 H 0.26044 0.02456 0.43695 0.0
H508 H 0.21165 0.02356 0.41284 0.0
H509 H 0.19905 1.00285 0.5035 0.0
C510 C 0.21516 0.98971 0.57604 0.0
C511 C 0.2251 0.98376 0.60951 0.0
C512 C 0.22238 1.00163 0.52337 0.0
C513 C 0.24244 0.99005 0.58969 0.0
C514 C 0.24972 1.00195 0.5377 0.0
C515 C 0.24704 0.01977 0.45136 0.0
C516 C 0.23705 0.02566 0.41778 0.0
C517 C 0.23981 0.00782 0.50398 0.0
C518 C 0.21969 0.01929 0.43749 0.0
C519 C 0.21244 0.00743 0.48957 0.0
H520 H 0.0303 0.21823 0.57469 0.0
H521 H 0.02919 0.26599 0.59927 0.0
H522 H 1.00837 0.25775 0.50865 0.0
H523 H 0.99059 0.23713 0.4213 0.0
H524 H 0.99227 0.18974 0.39395 0.0
H525 H 0.01272 0.1977 0.48597 0.0
C526 C 0.02542 0.22678 0.56044 0.0
C527 C 0.03129 0.24269 0.59408 0.0
C528 C 0.01359 0.22207 0.50729 0.0
C529 C 0.02493 0.25368 0.5744 0.0
C530 C 0.01302 0.24898 0.52242 0.0
C531 C 0.99545 0.22855 0.43532 0.0
C532 C 0.98986 0.21285 0.40052 0.0
C533 C 1.0073 0.23325 0.48826 0.0
C534 C 0.99636 0.20193 0.41955 0.0
C535 C 1.00804 0.20645 0.47241 0.0
H536 H 0.77594 0.75591 0.43125 0.0
H537 H 0.82415 0.80434 0.40656 0.0
H538 H 0.81633 0.81733 0.49727 0.0
H539 H 0.79575 0.81496 0.5846 0.0
H540 H 0.74736 0.76657 0.60739 0.0
H541 H 0.75531 0.75364 0.51723 0.0
C542 C 0.78473 0.76932 0.44555 0.0
C543 C 0.80062 0.7791 0.41187 0.0
C544 C 0.78013 0.77675 0.49789 0.0
C545 C 0.81182 0.79648 0.43132 0.0
C546 C 0.80736 0.80393 0.48342 0.0
C547 C 0.78698 0.80158 0.56997 0.0
C548 C 0.77098 0.79178 0.6031 0.0
C549 C 0.79157 0.79419 0.51728 0.0
C550 C 0.75974 0.77447 0.58299 0.0
C551 C 0.76428 0.76703 0.53126 0.0
H552 H 0.79083 0.98256 0.579 0.0
H553 H 0.74524 0.98722 0.60976 0.0
H554 H 0.7538 0.00779 0.51816 0.0
H555 H 0.77437 0.02464 0.42909 0.0
H556 H 0.81981 0.01967 0.39837 0.0
H557 H 0.81111 0.99904 0.4894 0.0
C558 C 0.78279 0.98812 0.56586 0.0
C559 C 0.76744 0.98338 0.60152 0.0
C560 C 0.78772 0.99985 0.51267 0.0
C561 C 0.75714 0.99064 0.58336 0.0
C562 C 0.76201 1.0024 0.53082 0.0
C563 C 0.78231 0.01896 0.44206 0.0
C564 C 0.79772 0.02373 0.4067 0.0
C565 C 0.77727 0.0071 0.49497 0.0
C566 C 0.80788 0.01627 0.42451 0.0
C567 C 0.80294 1.00447 0.47679 0.0
H568 H 0.02723 0.77271 0.6057 0.0
H569 H 0.02639 0.82063 0.63011 0.0
H570 H 1.00587 0.81258 0.53845 0.0
H571 H 0.98795 0.79188 0.4513 0.0
H572 H 0.98836 0.74373 0.42794 0.0
H573 H 0.00924 0.75196 0.51857 0.0
C574 C 0.02254 0.78139 0.59108 0.0
C575 C 0.02838 0.79727 0.62506 0.0
C576 C 0.01067 0.77666 0.53813 0.0
C577 C 0.02213 0.80832 0.60516 0.0
C578 C 0.01039 0.80374 0.55254 0.0
C579 C 0.99267 0.78322 0.46577 0.0
C580 C 0.98659 0.76721 0.43253 0.0
C581 C 1.00457 0.78795 0.51858 0.0
C582 C 0.99279 0.75612 0.45245 0.0
C583 C 1.00474 0.76081 0.50444 0.0
H584 H 0.26254 0.24057 0.40743 0.0
H585 H 0.21346 0.19279 0.38534 0.0
H586 H 0.20133 0.20113 0.47699 0.0
H587 H 0.2044 0.22196 0.5633 0.0
H588 H 0.2531 0.27007 0.5853 0.0
H589 H 0.26558 0.26162 0.49449 0.0
C590 C 0.24918 0.232 0.42261 0.0
C591 C 0.23895 0.21606 0.38919 0.0
C592 C 0.2422 0.23691 0.47568 0.0
C593 C 0.22166 0.20514 0.40978 0.0
C594 C 0.21469 0.20989 0.46242 0.0
C595 C 0.21778 0.23058 0.54854 0.0
C596 C 0.22779 0.24662 0.58141 0.0
C597 C 0.22481 0.22572 0.49578 0.0
C598 C 0.24508 0.25765 0.56109 0.0
C599 C 0.25223 0.25282 0.50899 0.0
H600 H 0.92621 0.35986 0.7486 0.0
H601 H 0.87639 0.35609 0.71653 0.0
H602 H 0.86395 0.33546 0.80803 0.0
H603 H 0.86721 0.31827 0.89744 0.0
H604 H 0.91716 0.3221 0.92734 0.0
H605 H 0.92949 0.34293 0.83715 0.0
C606 C 0.91261 0.3545 0.7614 0.0
C607 C 0.90226 0.35952 0.72543 0.0
C608 C 0.90554 0.34268 0.81417 0.0
C609 C 0.88467 0.35245 0.74309 0.0
C610 C 0.87754 0.34066 0.79561 0.0
C611 C 0.88082 0.32376 0.88446 0.0
C612 C 0.89122 0.3186 0.91941 0.0
C613 C 0.88786 0.33568 0.83167 0.0
C614 C 0.90881 0.32577 0.90147 0.0
C615 C 0.9159 0.3377 0.8497 0.0
H616 H 0.65415 0.57096 0.76931 0.0
H617 H 0.65642 0.52388 0.74183 0.0
H618 H 0.67703 0.53213 0.8334 0.0
H619 H 0.69452 0.55276 0.92161 0.0
H620 H 0.69271 0.60011 0.94756 0.0
H621 H 0.67182 0.59168 0.85689 0.0
C622 C 0.65918 0.56251 0.78321 0.0
C623 C 0.6537 0.5468 0.74847 0.0
C624 C 0.67109 0.56736 0.83604 0.0
C625 C 0.66039 0.53605 0.76739 0.0
C626 C 0.67217 0.54075 0.81997 0.0
C627 C 0.68949 0.5612 0.90769 0.0
C628 C 0.69517 0.57704 0.94174 0.0
C629 C 0.6776 0.55636 0.85479 0.0
C630 C 0.68859 0.58785 0.92246 0.0
C631 C 0.67663 0.58304 0.87045 0.0
H632 H 0.4394 0.08607 0.79174 0.0
H633 H 0.48852 0.13385 0.77172 0.0
H634 H 0.48084 0.14684 0.86242 0.0
H635 H 0.46036 0.14472 0.94882 0.0
H636 H 0.41101 0.09723 0.96829 0.0
H637 H 0.4186 0.08415 0.87721 0.0
C638 C 0.44839 0.09935 0.80705 0.0
C639 C 0.46454 0.10892 0.77469 0.0
C640 C 0.44389 0.10683 0.85964 0.0
C641 C 0.476 0.12612 0.79543 0.0
C642 C 0.47164 0.1336 0.84756 0.0
C643 C 0.45127 0.1315 0.93328 0.0
C644 C 0.43515 0.12199 0.96575 0.0
C645 C 0.45566 0.12407 0.8803 0.0
C646 C 0.42352 0.10489 0.94442 0.0
C647 C 0.42785 0.09737 0.89218 0.0
H648 H 0.48027 0.35858 0.77736 0.0
H649 H 0.43161 0.35776 0.75157 0.0
H650 H 0.41882 0.33717 0.84256 0.0
H651 H 0.42138 0.31935 0.9303 0.0
H652 H 0.47007 0.32025 0.95624 0.0
H653 H 0.48284 0.3408 0.86517 0.0
C654 C 0.46684 0.35384 0.79144 0.0
C655 C 0.45694 0.35972 0.75737 0.0
C656 C 0.45955 0.34203 0.84434 0.0
C657 C 0.43957 0.35348 0.7767 0.0
C658 C 0.43223 0.34169 0.82893 0.0
C659 C 0.43481 0.3241 0.91622 0.0
C660 C 0.44472 0.31824 0.95036 0.0
C661 C 0.4421 0.33591 0.86333 0.0
C662 C 0.4621 0.32451 0.93107 0.0
C663 C 0.46943 0.33627 0.87878 0.0
H664 H 0.69617 0.14689 0.91487 0.0
H665 H 0.69615 0.09846 0.93428 0.0
H666 H 0.67517 0.0858 0.8442 0.0
H667 H 0.65676 0.08836 0.75887 0.0
H668 H 0.65716 0.13694 0.73785 0.0
H669 H 0.67794 0.14954 0.82865 0.0
C670 C 0.69153 0.13355 0.89955 0.0
C671 C 0.69776 0.12368 0.93169 0.0
C672 C 0.67951 0.12633 0.8469 0.0
C673 C 0.69164 0.10642 0.91066 0.0
C674 C 0.67961 0.09913 0.85896 0.0
C675 C 0.66141 0.10171 0.77403 0.0
C676 C 0.65534 0.11164 0.74126 0.0
C677 C 0.67347 0.10896 0.8265 0.0
C678 C 0.66157 0.12895 0.76184 0.0
C679 C 0.67347 0.13619 0.81402 0.0
H680 H 0.88803 0.53184 0.7854 0.0
H681 H 0.93528 0.58121 0.76076 0.0
H682 H 0.9268 0.59364 0.85109 0.0
H683 H 0.90611 0.5906 0.93807 0.0
H684 H 0.85899 0.54122 0.96422 0.0
H685 H 0.86729 0.52877 0.87307 0.0
C686 C 0.89643 0.54534 0.79961 0.0
C687 C 0.91227 0.55555 0.76601 0.0
C688 C 0.89154 0.55243 0.85233 0.0
C689 C 0.92303 0.573 0.78554 0.0
C690 C 0.91819 0.58015 0.83737 0.0
C691 C 0.89766 0.5771 0.92398 0.0
C692 C 0.88194 0.56689 0.95823 0.0
C693 C 0.90252 0.56999 0.87134 0.0
C694 C 0.87117 0.54941 0.93901 0.0
C695 C 0.8759 0.54227 0.88668 0.0
H696 H 0.57345 0.6528 0.26195 0.0
H697 H 0.52657 0.65527 0.29111 0.0
H698 H 0.53449 0.67563 0.19921 0.0
H699 H 0.55473 0.69284 0.11052 0.0
H700 H 0.60197 0.691 0.08268 0.0
H701 H 0.59386 0.67024 0.17355 0.0
C702 C 0.56498 0.65782 0.24833 0.0
C703 C 0.54942 0.65249 0.2836 0.0
C704 C 0.56964 0.66959 0.19532 0.0
C705 C 0.53863 0.65915 0.26511 0.0
C706 C 0.54313 0.67078 0.21235 0.0
C707 C 0.56321 0.68782 0.12402 0.0
C708 C 0.57891 0.69343 0.08952 0.0
C709 C 0.55858 0.67607 0.177 0.0
C710 C 0.58981 0.6869 0.10822 0.0
C711 C 0.58518 0.67504 0.16033 0.0
H712 H 0.36355 0.88844 0.23225 0.0
H713 H 0.36267 0.93631 0.25678 0.0
H714 H 0.34164 0.92794 0.16637 0.0
H715 H 0.32355 0.907 0.07916 0.0
H716 H 0.3251 0.85944 0.05452 0.0
H717 H 0.34576 0.86774 0.14551 0.0
C718 C 0.35872 0.89703 0.21809 0.0
C719 C 0.36469 0.91298 0.25161 0.0
C720 C 0.34675 0.89221 0.16556 0.0
C721 C 0.35832 0.92396 0.23206 0.0
C722 C 0.34629 0.91918 0.1802 0.0
C723 C 0.32843 0.89847 0.09363 0.0
C724 C 0.32272 0.88259 0.0597 0.0
C725 C 0.34043 0.90335 0.14634 0.0
C726 C 0.32923 0.87173 0.07938 0.0
C727 C 0.34106 0.87646 0.13165 0.0
H728 H 0.09324 0.44185 0.26197 0.0
H729 H 0.14151 0.49004 0.29088 0.0
H730 H 0.15468 0.48272 0.19926 0.0
H731 H 0.1525 0.46254 0.10997 0.0
H732 H 0.10435 0.41402 0.08428 0.0
H733 H 0.09121 0.42159 0.17476 0.0
C734 C 0.10666 0.45075 0.24842 0.0
C735 C 0.11633 0.46649 0.28349 0.0
C736 C 0.1142 0.44642 0.19574 0.0
C737 C 0.13373 0.47781 0.26506 0.0
C738 C 0.14128 0.47366 0.21241 0.0
C739 C 0.13911 0.45368 0.124 0.0
C740 C 0.12943 0.43775 0.08998 0.0
C741 C 0.13164 0.45801 0.17715 0.0
C742 C 0.11214 0.42635 0.1094 0.0
C743 C 0.10458 0.43067 0.16131 0.0
H744 H 0.1282 0.65303 0.25087 0.0
H745 H 0.08059 0.65405 0.28034 0.0
H746 H 0.08812 0.67455 0.18882 0.0
H747 H 0.10833 0.69228 0.09988 0.0
H748 H 0.15566 0.69066 0.07029 0.0
H749 H 0.14807 0.67029 0.16166 0.0
C750 C 0.11949 0.65779 0.23753 0.0
C751 C 0.10389 0.65204 0.27277 0.0
C752 C 0.12381 0.66943 0.18433 0.0
C753 C 0.09271 0.65826 0.25427 0.0
C754 C 0.09699 0.66998 0.20177 0.0
C755 C 0.11693 0.6874 0.11322 0.0
C756 C 0.13255 0.69304 0.07801 0.0
C757 C 0.1125 0.67563 0.16626 0.0
C758 C 0.14355 0.68658 0.09625 0.0
C759 C 0.13924 0.67493 0.14874 0.0
H760 H 0.36235 0.47978 0.25471 0.0
H761 H 0.3586 0.43012 0.29086 0.0
H762 H 0.33999 0.41785 0.19343 0.0
H763 H 0.32474 0.42123 0.09698 0.0
H764 H 0.32915 0.4712 0.06076 0.0
H765 H 0.34762 0.48329 0.15801 0.0
C766 C 0.35734 0.46622 0.24172 0.0
C767 C 0.36178 0.45587 0.2807 0.0
C768 C 0.34688 0.45931 0.18477 0.0
C769 C 0.35533 0.43839 0.26221 0.0
C770 C 0.34474 0.43137 0.20619 0.0
C771 C 0.32989 0.43481 0.10995 0.0
C772 C 0.32554 0.44526 0.07106 0.0
C773 C 0.34049 0.44172 0.16674 0.0
C774 C 0.33226 0.46281 0.0893 0.0
C775 C 0.3428 0.46975 0.14529 0.0
H776 H 0.53479 0.88829 0.26123 0.0
H777 H 0.58403 0.93569 0.28554 0.0
H778 H 0.59637 0.92709 0.19477 0.0
H779 H 0.5932 0.90594 0.10808 0.0
H780 H 0.54355 0.85899 0.08272 0.0
H781 H 0.53143 0.8676 0.17355 0.0
C782 C 0.54824 0.89673 0.24685 0.0
C783 C 0.55847 0.91259 0.28056 0.0
C784 C 0.5552 0.8918 0.19398 0.0
C785 C 0.57584 0.92341 0.26066 0.0
C786 C 0.58291 0.91849 0.20863 0.0
C787 C 0.57972 0.89763 0.12229 0.0
C788 C 0.56935 0.88181 0.08836 0.0
C789 C 0.57272 0.90271 0.1748 0.0
C790 C 0.55188 0.87124 0.10761 0.0
C791 C 0.5449 0.87613 0.15982 0.0
H792 H 0.20983 0.96887 1.00937 0.0
H793 H 0.22856 1.00147 0.83641 0.0
H794 H 0.24166 0.02749 0.90679 0.0
H795 H 0.2464 0.04088 0.01698 0.0
H796 H 0.22856 0.00827 0.19008 0.0
H797 H 0.21655 0.98224 0.11989 0.0
C798 C 0.21682 0.98167 0.98697 0.0
C799 C 0.21802 0.98324 0.91757 0.0
C800 C 0.22441 0.99652 0.02773 0.0
C801 C 0.22742 0.9999 0.88953 0.0
C802 C 0.23484 0.01477 0.92978 0.0
C803 C 0.23991 0.02807 0.03945 0.0
C804 C 0.23817 0.02651 0.10875 0.0
C805 C 0.23319 0.01322 0.99885 0.0
C806 C 0.23005 0.00983 0.13702 0.0
C807 C 0.22312 0.99496 0.09686 0.0
H808 H 0.97514 0.21447 1.00047 0.0
H809 H 1.00754 0.22806 0.17434 0.0
H810 H 0.03361 0.24284 0.10516 0.0
H811 H 0.047 0.24935 0.99501 0.0
H812 H 0.01457 0.23571 0.82118 0.0
H813 H 0.98858 0.2236 0.89101 0.0
C814 C 0.98791 0.22078 0.02341 0.0
C815 C 0.98941 0.21992 0.0925 0.0
C816 C 1.00277 0.22914 0.98335 0.0
C817 C 1.00603 0.22848 0.12142 0.0
C818 C 0.02092 0.23684 0.08181 0.0
C819 C 0.03425 0.24385 0.97227 0.0
C820 C 0.03271 0.24318 0.9028 0.0
C821 C 0.01942 0.23685 0.01268 0.0
C822 C 0.01613 0.23634 0.87434 0.0
C823 C 1.00127 0.22934 0.91429 0.0
H824 H 0.76724 0.80186 1.00503 0.0
H825 H 0.78232 0.78451 0.83085 0.0
H826 H 0.79462 0.7708 0.90051 0.0
H827 H 0.80285 0.76564 1.01045 0.0
H828 H 0.78747 0.78278 0.18448 0.0
H829 H 0.77335 0.79463 0.11491 0.0
C830 C 0.77316 0.79502 0.98214 0.0
C831 C 0.77409 0.79443 0.91271 0.0
C832 C 0.78018 0.78722 0.02242 0.0
C833 C 0.78147 0.7852 0.88403 0.0
C834 C 0.78857 0.77744 0.92387 0.0
C835 C 0.79636 0.77191 0.03332 0.0
C836 C 0.79644 0.77355 0.10269 0.0
C837 C 0.78828 0.77867 0.99305 0.0
C838 C 0.78765 0.78139 0.13137 0.0
C839 C 0.77964 0.78822 0.09157 0.0
H840 H 0.76808 0.96896 1.00153 0.0
H841 H 0.7838 1.00117 0.82729 0.0
H842 H 0.79757 0.02737 0.8966 0.0
H843 H 0.80615 0.04104 1.00667 0.0
H844 H 0.78925 0.00872 0.18073 0.0
H845 H 0.77484 0.98263 0.11141 0.0
C846 C 0.77451 0.98172 0.97863 0.0
C847 C 0.77509 0.9831 0.90921 0.0
C848 C 0.78219 0.99669 0.01877 0.0
C849 C 0.78318 0.99973 0.88049 0.0
C850 C 0.7911 0.01471 0.92013 0.0
C851 C 0.79927 0.02829 0.0295 0.0
C852 C 0.79894 0.02685 0.09893 0.0
C853 C 0.79085 0.01334 0.98931 0.0
C854 C 0.78972 0.01023 0.12757 0.0
C855 C 0.78153 0.9953 0.08791 0.0
H856 H 0.04168 0.79781 0.02636 0.0
H857 H 0.00959 0.7866 0.85269 0.0
H858 H 0.98341 0.77318 0.92184 0.0
H859 H 0.9699 0.76642 0.03225 0.0
H860 H 1.00217 0.7771 0.20525 0.0
H861 H 0.02808 0.78892 0.13545 0.0
C862 C 0.02895 0.79235 1.00347 0.0
C863 C 0.0276 0.79341 0.93445 0.0
C864 C 0.01403 0.78466 0.04344 0.0
C865 C 0.011 0.78598 0.90559 0.0
C866 C 0.99604 0.77839 0.94518 0.0
C867 C 0.9826 0.77128 0.05475 0.0
C868 C 0.9841 0.77107 0.12411 0.0
C869 C 0.99744 0.77795 0.01425 0.0
C870 C 1.00062 0.77713 0.1522 0.0
C871 C 0.01545 0.78394 0.11229 0.0
H872 H 0.25005 0.21455 0.98919 0.0
H873 H 0.22875 0.22568 0.16174 0.0
H874 H 0.21649 0.23948 0.0919 0.0
H875 H 0.21011 0.24633 0.98092 0.0
H876 H 0.23216 0.23566 0.80924 0.0
H877 H 0.24595 0.22373 0.87995 0.0
C878 C 0.24281 0.2201 0.01165 0.0
C879 C 0.24008 0.21889 0.08045 0.0
C880 C 0.23587 0.22797 0.97134 0.0
C881 C 0.231 0.22644 0.10896 0.0
C882 C 0.22392 0.23422 0.06897 0.0
C883 C 0.21799 0.24145 0.95894 0.0
C884 C 0.21989 0.24166 0.88969 0.0
C885 C 0.22598 0.23472 0.99997 0.0
C886 C 0.23043 0.23561 0.86222 0.0
C887 C 0.23827 0.22874 0.90263 0.0
H888 H 0.91596 0.37408 0.32468 0.0
H889 H 0.89733 0.34201 0.49901 0.0
H890 H 0.88493 0.31576 0.42987 0.0
H891 H 0.87799 0.30206 0.31959 0.0
H892 H 0.89738 0.33426 0.14575 0.0
H893 H 0.91094 0.36037 0.21526 0.0
C894 C 0.90925 0.36135 0.34774 0.0
C895 C 0.90741 0.36004 0.41707 0.0
C896 C 0.90223 0.34636 0.30773 0.0
C897 C 0.89894 0.34342 0.44595 0.0
C898 C 0.89178 0.32841 0.40635 0.0
C899 C 0.88522 0.31478 0.29679 0.0
C900 C 0.88647 0.31617 0.22728 0.0
C901 C 0.89311 0.32974 0.33714 0.0
C902 C 0.89616 0.33277 0.19889 0.0
C903 C 0.90388 0.34772 0.23867 0.0
H904 H 0.71183 0.57871 0.34289 0.0
H905 H 0.67957 0.56773 0.16966 0.0
H906 H 0.65367 0.55611 0.23941 0.0
H907 H 0.64005 0.54734 0.34849 0.0
H908 H 0.67207 0.55872 0.52242 0.0
H909 H 0.69829 0.57218 0.45337 0.0
C910 C 0.69913 0.57384 0.32032 0.0
C911 C 0.69765 0.57389 0.25089 0.0
C912 C 0.68429 0.56727 0.36082 0.0
C913 C 0.68112 0.56782 0.22275 0.0
C914 C 0.66629 0.56112 0.26264 0.0
C915 C 0.65278 0.55287 0.37148 0.0
C916 C 0.65409 0.55183 0.44055 0.0
C917 C 0.66771 0.56053 0.33155 0.0
C918 C 0.67069 0.55935 0.46951 0.0
C919 C 0.68566 0.56693 0.42995 0.0
H920 H 0.43323 0.13248 0.36606 0.0
H921 H 0.44959 0.11623 0.19247 0.0
H922 H 0.46236 0.10299 0.26266 0.0
H923 H 0.47076 0.0982 0.37328 0.0
H924 H 0.45391 0.11428 0.54629 0.0
H925 H 0.43935 0.12547 0.47601 0.0
C926 C 0.4395 0.12593 0.34347 0.0
C927 C 0.44071 0.12553 0.27417 0.0
C928 C 0.4468 0.11849 0.38397 0.0
C929 C 0.44852 0.11671 0.24563 0.0
C930 C 0.4559 0.10926 0.28577 0.0
C931 C 0.46387 0.10412 0.39569 0.0
C932 C 0.46366 0.10565 0.46504 0.0
C933 C 0.45546 0.11044 0.35498 0.0
C934 C 0.45435 0.11301 0.49321 0.0
C935 C 0.44606 0.11944 0.45303 0.0
H936 H 0.43663 0.30318 0.35063 0.0
H937 H 0.45399 0.33561 0.17699 0.0
H938 H 0.46619 0.36172 0.24678 0.0
H939 H 0.47286 0.37523 0.35716 0.0
H940 H 0.4544 0.34273 0.53048 0.0
H941 H 0.44157 0.31667 0.46054 0.0
C942 C 0.44308 0.31596 0.32795 0.0
C943 C 0.4446 0.31745 0.25862 0.0
C944 C 0.44986 0.33086 0.36831 0.0
C945 C 0.45268 0.3341 0.23011 0.0
C946 C 0.4597 0.34902 0.27003 0.0
C947 C 0.46601 0.36244 0.37973 0.0
C948 C 0.46477 0.36094 0.44912 0.0
C949 C 0.45852 0.34754 0.33918 0.0
C950 C 0.45557 0.34427 0.47735 0.0
C951 C 0.44828 0.32937 0.43736 0.0
H952 H 0.71243 0.13349 0.33347 0.0
H953 H 0.67974 0.11673 0.15993 0.0
H954 H 0.65379 0.10414 0.23011 0.0
H955 H 0.64064 0.10008 0.34007 0.0
H956 H 0.67332 0.11663 0.51362 0.0
H957 H 0.69919 0.12711 0.44372 0.0
C958 C 0.69963 0.12699 0.31086 0.0
C959 C 0.69801 0.12627 0.24144 0.0
C960 C 0.68484 0.11988 0.35144 0.0
C961 C 0.68134 0.11749 0.21309 0.0
C962 C 0.66652 0.11039 0.25322 0.0
C963 C 0.65342 0.10593 0.36275 0.0
C964 C 0.65509 0.10785 0.432 0.0
C965 C 0.66815 0.11187 0.32233 0.0
C966 C 0.67169 0.11508 0.46056 0.0
C967 C 0.68646 0.12111 0.42058 0.0
H968 H 0.91474 0.54243 0.36484 0.0
H969 H 0.90116 0.56129 0.53876 0.0
H970 H 0.88853 0.57465 0.46917 0.0
H971 H 0.87989 0.57945 0.35969 0.0
H972 H 0.89393 0.56112 0.1855 0.0
H973 H 0.90804 0.54917 0.25475 0.0
C974 C 0.90905 0.54949 0.38765 0.0
C975 C 0.90868 0.55065 0.45709 0.0
C976 C 0.90191 0.5572 0.34735 0.0
C977 C 0.90158 0.56015 0.4856 0.0
C978 C 0.89431 0.56774 0.44581 0.0
C979 C 0.88609 0.57289 0.33671 0.0
C980 C 0.88565 0.57097 0.26745 0.0
C981 C 0.89417 0.5661 0.37675 0.0
C982 C 0.89404 0.56275 0.23856 0.0
C983 C 0.90204 0.55585 0.27819 0.0
H984 H 0.55027 0.63909 0.68271 0.0
H985 H 0.56094 0.67098 0.50923 0.0
H986 H 0.57392 0.69724 0.57861 0.0
H987 H 0.58016 0.7108 0.68945 0.0
H988 H 0.56991 0.67859 0.86202 0.0
H989 H 0.55883 0.65275 0.79189 0.0
C990 C 0.55556 0.6518 0.65991 0.0
C991 C 0.55446 0.65307 0.5909 0.0
C992 C 0.56294 0.66674 0.70001 0.0
C993 C 0.56165 0.66964 0.56213 0.0
C994 C 0.56895 0.68463 0.60187 0.0
C995 C 0.57557 0.69813 0.71175 0.0
C996 C 0.57567 0.69664 0.78113 0.0
C997 C 0.56932 0.6833 0.671 0.0
C998 C 0.56995 0.68015 0.80897 0.0
C999 C 0.56357 0.66535 0.76887 0.0
H1000 H 0.30955 0.88089 0.65997 0.0
H1001 H 0.34208 0.89268 0.83257 0.0
H1002 H 0.36811 0.90624 0.76246 0.0
H1003 H 0.38128 0.91261 0.65145 0.0
H1004 H 0.3485 0.9012 0.47955 0.0
H1005 H 0.32279 0.8896 0.55039 0.0
C1006 C 0.32235 0.88653 0.68239 0.0
C1007 C 0.32391 0.88558 0.7513 0.0
C1008 C 0.33714 0.89423 0.6419 0.0
C1009 C 0.34056 0.89325 0.77972 0.0
C1010 C 0.35541 0.90089 0.73958 0.0
C1011 C 0.36851 0.90763 0.62944 0.0
C1012 C 0.36678 0.90752 0.56013 0.0
C1013 C 0.35381 0.90109 0.67052 0.0
C1014 C 0.35019 0.90137 0.53258 0.0
C1015 C 0.33549 0.8947 0.57307 0.0
H1016 H 0.13656 0.43055 0.68843 0.0
H1017 H 0.11874 0.445 0.86288 0.0
H1018 H 0.10419 0.45646 0.79336 0.0
H1019 H 0.09903 0.46481 0.6836 0.0
H1020 H 0.11701 0.45044 0.5093 0.0
H1021 H 0.12893 0.43631 0.57855 0.0
C1022 C 0.12938 0.43608 0.71142 0.0
C1023 C 0.12897 0.43717 0.78091 0.0
C1024 C 0.12119 0.44273 0.67119 0.0
C1025 C 0.1193 0.44404 0.8097 0.0
C1026 C 0.11108 0.45068 0.7699 0.0
C1027 C 0.10545 0.45848 0.66056 0.0
C1028 C 0.10737 0.45893 0.59122 0.0
C1029 C 0.11233 0.45049 0.70069 0.0
C1030 C 0.1154 0.45035 0.56235 0.0
C1031 C 0.12228 0.44234 0.602 0.0
H1032 H 0.13805 0.70921 0.67755 0.0
H1033 H 0.12393 0.67709 0.85189 0.0
H1034 H 0.11072 0.65088 0.78282 0.0
H1035 H 0.10462 0.63717 0.67281 0.0
H1036 H 0.11768 0.66923 0.49862 0.0
H1037 H 0.1298 0.6954 0.56784 0.0
C1038 C 0.13201 0.69647 0.70052 0.0
C1039 C 0.13215 0.69514 0.76988 0.0
C1040 C 0.12432 0.68146 0.66051 0.0
C1041 C 0.12401 0.67851 0.79875 0.0
C1042 C 0.11653 0.66352 0.75923 0.0
C1043 C 0.11007 0.64988 0.64994 0.0
C1044 C 0.11043 0.65124 0.58051 0.0
C1045 C 0.11684 0.66485 0.69006 0.0
C1046 C 0.11725 0.6678 0.55181 0.0
C1047 C 0.12424 0.68277 0.5914 0.0
H1048 H 0.33784 0.44925 0.81183 0.0
H1049 H 0.29655 0.43121 0.66756 0.0
H1050 H 0.31754 0.44028 0.57831 0.0
H1051 H 0.34795 0.45529 0.53959 0.0
H1052 H 0.38934 0.47417 0.6834 0.0
H1053 H 0.36822 0.46274 0.77287 0.0
C1054 C 0.33345 0.44716 0.76093 0.0
C1055 C 0.31561 0.43976 0.74702 0.0
C1056 C 0.34569 0.45264 0.70896 0.0
C1057 C 0.3102 0.43715 0.68034 0.0
C1058 C 0.32222 0.44228 0.62881 0.0
C1059 C 0.35231 0.45664 0.59042 0.0
C1060 C 0.37021 0.46571 0.60448 0.0
C1061 C 0.34004 0.45033 0.64231 0.0
C1062 C 0.37562 0.46743 0.67093 0.0
C1063 C 0.36354 0.46089 0.72241 0.0
H1064 H 0.58319 0.87889 0.68742 0.0
H1065 H 0.56659 0.89501 0.86092 0.0
H1066 H 0.55553 0.9098 0.79112 0.0
H1067 H 0.54824 0.91576 0.68106 0.0
H1068 H 0.56496 0.89993 0.5073 0.0
H1069 H 0.57854 0.88751 0.57726 0.0
C1070 C 0.57727 0.88576 0.71007 0.0
C1071 C 0.57546 0.88562 0.77934 0.0
C1072 C 0.57092 0.89418 0.66965 0.0
C1073 C 0.56809 0.89487 0.80787 0.0
C1074 C 0.56169 0.90325 0.76794 0.0
C1075 C 0.55496 0.9097 0.65841 0.0
C1076 C 0.55536 0.90849 0.58907 0.0
C1077 C 0.56266 0.9026 0.69883 0.0
C1078 C 0.56444 0.90096 0.56047 0.0
C1079 C 0.57211 0.89379 0.60048 0.0
H1080 H 0.36675 0.12085 0.10628 0.0
H1081 H 0.37573 0.13512 0.31227 0.0
H1082 H 0.34444 0.11847 0.33363 0.0
H1083 H 0.31427 0.10061 0.2929 0.0
H1084 H 0.30532 0.08878 0.08525 0.0
H1085 H 0.33671 0.10346 0.06537 0.0
C1086 C 0.36184 0.12023 0.15586 0.0
C1087 C 0.37354 0.12919 0.20756 0.0
C1088 C 0.3438 0.11099 0.1675 0.0
C1089 C 0.36698 0.12843 0.27147 0.0
C1090 C 0.34909 0.11886 0.28382 0.0
C1091 C 0.31927 0.1011 0.2436 0.0
C1092 C 0.30762 0.09353 0.19068 0.0
C1093 C 0.33735 0.11017 0.23216 0.0
C1094 C 0.31414 0.09451 0.12667 0.0
C1095 C 0.33206 0.10292 0.11529 0.0
H1096 H 0.88621 0.24406 0.23743 0.0
H1097 H 0.89153 0.24828 0.02559 0.0
H1098 H 0.90752 0.23248 0.02688 0.0
H1099 H 0.91944 0.2169 0.08789 0.0
H1100 H 0.91665 0.21484 0.30036 0.0
H1101 H 0.90031 0.23043 0.29956 0.0
C1102 C 0.89092 0.24151 0.1917 0.0
C1103 C 0.88761 0.24717 0.13143 0.0
C1104 C 0.90054 0.23283 0.19303 0.0
C1105 C 0.89398 0.24407 0.07254 0.0
C1106 C 0.90306 0.23499 0.07323 0.0
C1107 C 0.91526 0.21991 0.13397 0.0
C1108 C 0.91903 0.21461 0.19405 0.0
C1109 C 0.90633 0.22923 0.13309 0.0
C1110 C 0.91386 0.21882 0.25356 0.0
C1111 C 0.90448 0.22766 0.25305 0.0
H1112 H 0.75043 0.64533 0.18171 0.0
H1113 H 0.79533 0.64116 0.13028 0.0
H1114 H 0.81419 0.67262 0.14402 0.0
H1115 H 0.81795 0.70126 0.1711 0.0
H1116 H 0.77356 0.70545 0.23112 0.0
H1117 H 0.75451 0.67408 0.21473 0.0
C1118 C 0.76433 0.6514 0.1731 0.0
C1119 C 0.77152 0.64107 0.15425 0.0
C1120 C 0.77518 0.66944 0.18337 0.0
C1121 C 0.78956 0.64894 0.14455 0.0
C1122 C 0.80033 0.66689 0.15252 0.0
C1123 C 0.80411 0.6953 0.18079 0.0
C1124 C 0.79718 0.7057 0.202 0.0
C1125 C 0.7933 0.67726 0.17213 0.0
C1126 C 0.77925 0.69774 0.2151 0.0
C1127 C 0.76833 0.67981 0.20531 0.0
H1128 H 0.10674 0.31032 0.91307 0.0
H1129 H 0.10489 0.31191 0.70063 0.0
H1130 H 0.12147 0.3438 0.70344 0.0
H1131 H 0.13634 0.37127 0.76667 0.0
H1132 H 0.13559 0.36967 0.97942 0.0
H1133 H 0.12021 0.33778 0.97646 0.0
C1134 C 0.11004 0.31769 0.86749 0.0
C1135 C 0.10477 0.30885 0.80671 0.0
C1136 C 0.11908 0.33599 0.86966 0.0
C1137 C 0.10882 0.31848 0.74796 0.0
C1138 C 0.11832 0.33669 0.74956 0.0
C1139 C 0.13285 0.36389 0.81227 0.0
C1140 C 0.13719 0.37273 0.87317 0.0
C1141 C 0.12351 0.34559 0.81013 0.0
C1142 C 0.13235 0.36309 0.932 0.0
C1143 C 0.12359 0.34489 0.93031 0.0
H1144 H 0.70197 0.81725 0.85918 0.0
H1145 H 0.7058 0.77207 0.80755 0.0
H1146 H 0.67467 0.75321 0.82749 0.0
H1147 H 0.64616 0.74951 0.85896 0.0
H1148 H 0.64188 0.79488 0.90086 0.0
H1149 H 0.6733 0.81368 0.88604 0.0
C1150 C 0.69596 0.80327 0.85235 0.0
C1151 C 0.70618 0.79607 0.83213 0.0
C1152 C 0.67797 0.79253 0.86251 0.0
C1153 C 0.6982 0.77796 0.82272 0.0
C1154 C 0.68041 0.76714 0.83442 0.0
C1155 C 0.6522 0.7635 0.86533 0.0
C1156 C 0.64185 0.77084 0.88159 0.0
C1157 C 0.67016 0.77427 0.8544 0.0
C1158 C 0.64967 0.78899 0.88845 0.0
C1159 C 0.6676 0.79973 0.87993 0.0
H1160 H 0.22801 0.91651 0.74536 0.0
H1161 H 0.21308 0.9104 0.95046 0.0
H1162 H 0.22986 0.8959 0.9718 0.0
H1163 H 0.24787 0.88377 0.93095 0.0
H1164 H 0.26027 0.88744 0.72376 0.0
H1165 H 0.24561 0.90415 0.70442 0.0
C1166 C 0.22856 0.91212 0.79478 0.0
C1167 C 0.21937 0.91456 0.84624 0.0
C1168 C 0.2378 0.90332 0.80629 0.0
C1169 C 0.21999 0.90859 0.90991 0.0
C1170 C 0.22961 0.90033 0.9222 0.0
C1171 C 0.24748 0.88842 0.88186 0.0
C1172 C 0.25519 0.88453 0.8289 0.0
C1173 C 0.23845 0.89747 0.87066 0.0
C1174 C 0.25439 0.89032 0.7652 0.0
C1175 C 0.24601 0.89985 0.75412 0.0
H1176 H 0.69901 0.88966 0.86328 0.0
H1177 H 0.70213 0.93827 0.811 0.0
H1178 H 0.67106 0.92573 0.83361 0.0
H1179 H 0.64267 0.90054 0.86466 0.0
H1180 H 0.63923 0.85133 0.90692 0.0
H1181 H 0.67074 0.86451 0.89293 0.0
C1182 C 0.69291 0.89754 0.85713 0.0
C1183 C 0.70289 0.91488 0.83557 0.0
C1184 C 0.67498 0.89014 0.86886 0.0
C1185 C 0.69473 0.92485 0.82713 0.0
C1186 C 0.67698 0.91772 0.84034 0.0
C1187 C 0.64893 0.89284 0.87177 0.0
C1188 C 0.6388 0.8751 0.88762 0.0
C1189 C 0.66694 0.90035 0.86092 0.0
C1190 C 0.64688 0.86507 0.89514 0.0
C1191 C 0.66485 0.87257 0.88689 0.0
H1192 H 0.12085 0.8134 0.88325 0.0
H1193 H 0.07435 0.77058 0.79918 0.0
H1194 H 0.0869 0.75164 0.80988 0.0
H1195 H 0.11143 0.74734 0.84216 0.0
H1196 H 0.15854 0.79091 0.91801 0.0
H1197 H 0.14537 0.80939 0.91258 0.0
C1198 C 0.11343 0.79991 0.86734 0.0
C1199 C 0.09666 0.79342 0.84065 0.0
C1200 C 0.12081 0.78919 0.87274 0.0
C1201 C 0.08732 0.77596 0.8196 0.0
C1202 C 0.09445 0.76508 0.82602 0.0
C1203 C 0.11864 0.76082 0.85816 0.0
C1204 C 0.13579 0.76778 0.88128 0.0
C1205 C 0.11119 0.77154 0.85259 0.0
C1206 C 0.14526 0.78534 0.90051 0.0
C1207 C 0.13777 0.79589 0.89718 0.0
H1208 H 0.23983 0.31323 0.8216 0.0
H1209 H 0.19007 0.30928 0.78633 0.0
H1210 H 0.20253 0.34029 0.81 0.0
H1211 H 0.22736 0.3684 0.84143 0.0
H1212 H 0.27694 0.37254 0.88353 0.0
H1213 H 0.26473 0.34157 0.85778 0.0
C1214 C 0.23183 0.31927 0.81854 0.0
C1215 C 0.21412 0.30909 0.80156 0.0
C1216 C 0.23898 0.33705 0.83429 0.0
C1217 C 0.20375 0.31691 0.79908 0.0
C1218 C 0.21085 0.33461 0.81277 0.0
C1219 C 0.23552 0.36255 0.84518 0.0
C1220 C 0.25307 0.37282 0.86412 0.0
C1221 C 0.2284 0.34478 0.83074 0.0
C1222 C 0.26337 0.36493 0.86943 0.0
C1223 C 0.25642 0.34724 0.85424 0.0
H1224 H 0.93131 0.69949 0.19367 0.0
H1225 H 0.88621 0.70361 0.24186 0.0
H1226 H 0.86742 0.67214 0.22789 0.0
H1227 H 0.86379 0.64349 0.20161 0.0
H1228 H 0.90843 0.63941 0.1445 0.0
H1229 H 0.92739 0.67078 0.16126 0.0
C1230 C 0.91738 0.6934 0.2015 0.0
C1231 C 0.91012 0.70372 0.21952 0.0
C1232 C 0.90658 0.67536 0.19111 0.0
C1233 C 0.89204 0.69584 0.22822 0.0
C1234 C 0.88131 0.67789 0.22014 0.0
C1235 C 0.87766 0.64947 0.19267 0.0
C1236 C 0.88469 0.63911 0.17217 0.0
C1237 C 0.88842 0.66753 0.20141 0.0
C1238 C 0.90267 0.6471 0.15998 0.0
C1239 C 0.91354 0.66503 0.16996 0.0
H1240 H 0.36764 0.24889 0.07488 0.0
H1241 H 0.37552 0.2515 0.28551 0.0
H1242 H 0.34408 0.23704 0.30365 0.0
H1243 H 0.31415 0.22204 0.25936 0.0
H1244 H 0.30634 0.21688 0.04857 0.0
H1245 H 0.33775 0.2339 0.03064 0.0
C1246 C 0.36243 0.24647 0.12464 0.0
C1247 C 0.37381 0.2513 0.17876 0.0
C1248 C 0.3443 0.23755 0.13465 0.0
C1249 C 0.36695 0.24784 0.24308 0.0
C1250 C 0.34899 0.23958 0.25349 0.0
C1251 C 0.31937 0.22481 0.20962 0.0
C1252 C 0.30799 0.21825 0.15542 0.0
C1253 C 0.33751 0.23413 0.19965 0.0
C1254 C 0.31488 0.22172 0.09112 0.0
C1255 C 0.33283 0.23147 0.08079 0.0
H1256 H 0.79084 0.14661 0.20147 0.0
H1257 H 0.74472 0.10385 0.11488 0.0
H1258 H 0.75661 0.08457 0.13154 0.0
H1259 H 0.78046 0.0799 0.16895 0.0
H1260 H 0.82742 0.12323 0.24689 0.0
H1261 H 0.81482 0.14215 0.23651 0.0
C1262 C 0.78338 0.13307 0.18632 0.0
C1263 C 0.76691 0.12672 0.15702 0.0
C1264 C 0.79041 0.1221 0.19506 0.0
C1265 C 0.75749 0.10915 0.13716 0.0
C1266 C 0.76423 0.09806 0.14698 0.0
C1267 C 0.78777 0.09343 0.1844 0.0
C1268 C 0.80469 0.10018 0.20948 0.0
C1269 C 0.78068 0.10438 0.17584 0.0
C1270 C 0.81429 0.1178 0.22793 0.0
C1271 C 0.80712 0.12861 0.22175 0.0
H1272 H 0.0374 0.46027 0.58489 0.0
H1273 H 0.04048 0.46164 0.37237 0.0
H1274 H 1.00863 0.44583 0.36487 0.0
H1275 H 0.97988 0.4323 0.41924 0.0
H1276 H 0.97692 0.42876 0.63163 0.0
H1277 H 0.00873 0.44466 0.63894 0.0
C1278 C 0.03105 0.45706 0.53699 0.0
C1279 C 0.0412 0.46224 0.47923 0.0
C1280 C 0.01279 0.4476 0.53316 0.0
C1281 C 0.0329 0.45776 0.41744 0.0
C1282 C 0.01471 0.44879 0.41319 0.0
C1283 C 0.98625 0.435 0.46704 0.0
C1284 C 0.97613 0.42953 0.52487 0.0
C1285 C 1.00453 0.44375 0.47073 0.0
C1286 C 0.98447 0.43283 0.58648 0.0
C1287 C 1.00263 0.44196 0.59067 0.0
H1288 H 0.58213 0.55089 0.43548 0.0
H1289 H 0.58393 0.55129 0.64826 0.0
H1290 H 0.56804 0.56725 0.65225 0.0
H1291 H 0.55304 0.5805 0.59499 0.0
H1292 H 0.55347 0.58234 0.38225 0.0
H1293 H 0.56914 0.56617 0.37822 0.0
C1294 C 0.57904 0.55452 0.48264 0.0
C1295 C 0.58401 0.54981 0.54152 0.0
C1296 C 0.57032 0.56407 0.48446 0.0
C1297 C 0.58023 0.55481 0.60234 0.0
C1298 C 0.57111 0.56387 0.60462 0.0
C1299 C 0.55661 0.57736 0.54782 0.0
C1300 C 0.55199 0.58242 0.48897 0.0
C1301 C 0.56599 0.56847 0.546 0.0
C1302 C 0.55692 0.57857 0.42815 0.0
C1303 C 0.56582 0.56929 0.42586 0.0
H1304 H 0.48487 0.03431 0.52151 0.0
H1305 H 0.43916 0.03611 0.5816 0.0
H1306 H 0.42079 1.0053 0.55218 0.0
H1307 H 0.41778 0.97782 0.50739 0.0
H1308 H 0.46394 0.97612 0.45447 0.0
H1309 H 0.48208 0.007 0.48184 0.0
C1310 C 0.47089 0.02797 0.52843 0.0
C1311 C 0.4634 0.03753 0.55346 0.0
C1312 C 0.46048 0.01031 0.5118 0.0
C1313 C 0.44528 0.02903 0.56282 0.0
C1314 C 0.43476 0.01145 0.5455 0.0
C1315 C 0.43179 0.98434 0.50128 0.0
C1316 C 0.43957 0.97488 0.47811 0.0
C1317 C 0.4422 1.00199 0.51934 0.0
C1318 C 0.45774 0.98325 0.47181 0.0
C1319 C 0.46809 1.00085 0.48768 0.0
H1320 H 0.58003 0.03436 0.61204 0.0
H1321 H 0.59249 0.04417 0.40528 0.0
H1322 H 0.57801 0.01288 0.38311 0.0
H1323 H 0.56061 0.98263 0.4216 0.0
H1324 H 0.54579 0.97276 0.62663 0.0
H1325 H 0.56222 1.00396 0.65039 0.0
C1326 C 0.57969 0.02957 0.56242 0.0
C1327 C 0.58736 0.04146 0.51042 0.0
C1328 C 0.57077 0.01152 0.54961 0.0
C1329 C 0.58663 0.03518 0.44602 0.0
C1330 C 0.57835 0.01731 0.43331 0.0
C1331 C 0.56108 0.98733 0.47149 0.0
C1332 C 0.55201 0.9754 0.52218 0.0
C1333 C 0.57018 1.00534 0.48454 0.0
C1334 C 0.55257 0.98169 0.58655 0.0
C1335 C 0.56201 0.99953 0.60028 0.0
H1336 H 0.98261 0.53032 0.5187 0.0
H1337 H 0.97869 0.5759 0.56115 0.0
H1338 H 0.00982 0.59461 0.54002 0.0
H1339 H 0.03832 0.59803 0.50958 0.0
H1340 H 0.04254 0.55226 0.47653 0.0
H1341 H 0.01119 0.53362 0.49325 0.0
C1342 C 0.98859 0.54435 0.52329 0.0
C1343 C 0.97835 0.55171 0.54118 0.0
C1344 C 1.00655 0.555 0.51242 0.0
C1345 C 0.9863 0.5699 0.54777 0.0
C1346 C 1.00409 0.58062 0.53538 0.0
C1347 C 0.03229 0.58398 0.50565 0.0
C1348 C 0.04262 0.57648 0.49131 0.0
C1349 C 0.01435 0.57332 0.51754 0.0
C1350 C 0.03479 0.55827 0.48751 0.0
C1351 C 0.0169 0.54763 0.49707 0.0
H1352 H 0.41763 0.44522 0.50315 0.0
H1353 H 0.46401 0.49457 0.4673 0.0
H1354 H 0.482 0.48108 0.48174 0.0
H1355 H 0.48461 0.45542 0.50721 0.0
H1356 H 0.43846 0.40655 0.55178 0.0
H1357 H 0.42035 0.41966 0.53178 0.0
C1358 C 0.43167 0.45294 0.49796 0.0
C1359 C 0.43951 0.47081 0.48374 0.0
C1360 C 0.44197 0.44522 0.50843 0.0
C1361 C 0.45771 0.48078 0.47829 0.0
C1362 C 0.46799 0.47308 0.48655 0.0
C1363 C 0.47059 0.44763 0.51234 0.0
C1364 C 0.4629 0.43003 0.53072 0.0
C1365 C 0.46028 0.45535 0.50211 0.0
C1366 C 0.44472 0.42016 0.53799 0.0
C1367 C 0.43434 0.42762 0.52631 0.0
H1368 H 0.24483 0.09969 0.21138 0.0
H1369 H 0.27053 0.1097 0.40034 0.0
H1370 H 0.27266 0.13834 0.40512 0.0
H1371 H 0.26685 0.16051 0.35536 0.0
H1372 H 0.24104 0.14969 0.16605 0.0
H1373 H 0.23941 0.12154 0.16175 0.0
C1374 C 0.25093 0.10812 0.25366 0.0
C1375 C 0.25747 0.10253 0.30545 0.0
C1376 C 0.2521 0.1245 0.25602 0.0
C1377 C 0.26535 0.11367 0.35979 0.0
C1378 C 0.26658 0.13005 0.36254 0.0
C1379 C 0.26091 0.15199 0.31321 0.0
C1380 C 0.25408 0.15727 0.26116 0.0
C1381 C 0.25995 0.13561 0.31094 0.0
C1382 C 0.24642 0.14604 0.20686 0.0
C1383 C 0.24546 0.12988 0.20427 0.0
H1384 H 0.86723 0.09774 0.21152 0.0
H1385 H 0.8509 0.10616 0.40196 0.0
H1386 H 0.87783 0.13428 0.41175 0.0
H1387 H 0.90619 0.1566 0.36554 0.0
H1388 H 0.92187 0.14766 0.17435 0.0
H1389 H 0.8951 0.11973 0.16568 0.0
C1390 C 0.86954 0.10571 0.25524 0.0
C1391 C 0.85709 0.09984 0.30594 0.0
C1392 C 0.88499 0.12183 0.26043 0.0
C1393 C 0.8603 0.11036 0.36219 0.0
C1394 C 0.8757 0.12645 0.36782 0.0
C1395 C 0.90373 0.14851 0.32212 0.0
C1396 C 0.91605 0.15425 0.27074 0.0
C1397 C 0.88817 0.13234 0.3172 0.0
C1398 C 0.91264 0.14362 0.21467 0.0
C1399 C 0.89731 0.1276 0.20957 0.0
H1400 H 0.91498 0.76944 0.23977 0.0
H1401 H 0.9038 0.74159 0.42397 0.0
H1402 H 0.87574 0.74066 0.43042 0.0
H1403 H 0.8542 0.74773 0.38243 0.0
H1404 H 0.86611 0.77524 0.19686 0.0
H1405 H 0.89393 0.77624 0.19235 0.0
C1406 C 0.90644 0.76316 0.28147 0.0
C1407 C 0.9115 0.75562 0.33133 0.0
C1408 C 0.89037 0.76258 0.28455 0.0
C1409 C 0.90023 0.74753 0.38491 0.0
C1410 C 0.88417 0.74698 0.38858 0.0
C1411 C 0.86292 0.75394 0.34115 0.0
C1412 C 0.85802 0.76139 0.29011 0.0
C1413 C 0.87907 0.75445 0.33854 0.0
C1414 C 0.86946 0.76936 0.23684 0.0
C1415 C 0.88544 0.76998 0.23412 0.0
H1416 H 0.11576 0.26734 0.62515 0.0
H1417 H 0.09697 0.23548 0.80012 0.0
H1418 H 0.12355 0.23404 0.8062 0.0
H1419 H 0.15231 0.24213 0.76408 0.0
H1420 H 0.172 0.27419 0.59032 0.0
H1421 H 0.14496 0.2752 0.58143 0.0
C1422 C 0.11748 0.26002 0.6643 0.0
C1423 C 0.10437 0.25156 0.71213 0.0
C1424 C 0.13299 0.2593 0.66791 0.0
C1425 C 0.10683 0.24218 0.76273 0.0
C1426 C 0.12206 0.24133 0.76635 0.0
C1427 C 0.15072 0.24933 0.72411 0.0
C1428 C 0.16417 0.25809 0.67801 0.0
C1429 C 0.13525 0.2499 0.71954 0.0
C1430 C 0.16183 0.26732 0.62649 0.0
C1431 C 0.14638 0.26791 0.62143 0.0
H1432 H 0.74344 0.85024 0.64446 0.0
H1433 H 0.77773 0.86411 0.813 0.0
H1434 H 0.77836 0.89164 0.82346 0.0
H1435 H 0.76921 0.91188 0.78675 0.0
H1436 H 0.73514 0.89917 0.61857 0.0
H1437 H 0.73439 0.87126 0.60613 0.0
C1438 C 0.75109 0.85934 0.68316 0.0
C1439 C 0.76048 0.855 0.7279 0.0
C1440 C 0.75141 0.8754 0.68927 0.0
C1441 C 0.7703 0.86697 0.77792 0.0
C1442 C 0.7707 0.8828 0.7841 0.0
C1443 C 0.76158 0.90303 0.74731 0.0
C1444 C 0.75222 0.90761 0.70379 0.0
C1445 C 0.76127 0.88712 0.74038 0.0
C1446 C 0.74247 0.89596 0.65286 0.0
C1447 C 0.74205 0.87999 0.64571 0.0
H1448 H 0.15224 0.91143 0.80665 0.0
H1449 H 0.16943 0.90043 0.62293 0.0
H1450 H 0.14226 0.87236 0.61517 0.0
H1451 H 0.11333 0.85085 0.66132 0.0
H1452 H 0.09712 0.86262 0.84616 0.0
H1453 H 0.12411 0.89033 0.85257 0.0
C1454 C 0.1501 0.90292 0.76482 0.0
C1455 C 0.16286 0.90806 0.71543 0.0
C1456 C 0.13455 0.88685 0.76087 0.0
C1457 C 0.15982 0.89681 0.66168 0.0
C1458 C 0.14427 0.88074 0.65723 0.0
C1459 C 0.11574 0.8595 0.70289 0.0
C1460 C 0.10314 0.85459 0.75313 0.0
C1461 C 0.13149 0.8756 0.70658 0.0
C1462 C 0.10652 0.86597 0.80676 0.0
C1463 C 0.12199 0.88188 0.81057 0.0
H1464 H 0.93312 0.44364 0.69966 0.0
H1465 H 0.90782 0.43032 0.50913 0.0
H1466 H 0.90731 0.45747 0.50759 0.0
H1467 H 0.91371 0.48482 0.55964 0.0
H1468 H 0.93935 0.49914 0.7491 0.0
H1469 H 0.94004 0.47182 0.75181 0.0
C1470 C 0.92751 0.44671 0.65787 0.0
C1471 C 0.92049 0.43489 0.60463 0.0
C1472 C 0.92729 0.46252 0.65709 0.0
C1473 C 0.91332 0.43911 0.55078 0.0
C1474 C 0.913 0.45467 0.5498 0.0
C1475 C 0.91948 0.48203 0.60165 0.0
C1476 C 0.92644 0.49402 0.65416 0.0
C1477 C 0.9199 0.46643 0.60262 0.0
C1478 C 0.93389 0.49014 0.70803 0.0
C1479 C 0.93428 0.47451 0.70956 0.0
H1480 H 0.52976 0.43239 0.56243 0.0
H1481 H 0.51244 0.4427 0.74723 0.0
H1482 H 0.53971 0.47063 0.75664 0.0
H1483 H 0.56873 0.4922 0.71161 0.0
H1484 H 0.5851 0.48121 0.5256 0.0
H1485 H 0.55802 0.45358 0.51759 0.0
C1486 C 0.5319 0.44072 0.60486 0.0
C1487 C 0.51906 0.43543 0.65409 0.0
C1488 C 0.54751 0.45671 0.60975 0.0
C1489 C 0.5221 0.44645 0.7086 0.0
C1490 C 0.5377 0.46242 0.71399 0.0
C1491 C 0.56635 0.48373 0.66946 0.0
C1492 C 0.579 0.48882 0.61935 0.0
C1493 C 0.55055 0.46771 0.66483 0.0
C1494 C 0.57565 0.4777 0.56491 0.0
C1495 C 0.56013 0.46184 0.5602 0.0
H1496 H 0.57121 0.08195 0.71273 0.0
H1497 H 0.5855 0.10798 0.524 0.0
H1498 H 0.55846 0.10858 0.52049 0.0
H1499 H 0.53096 0.10215 0.57039 0.0
H1500 H 0.51585 0.07622 0.75878 0.0
H1501 H 0.54294 0.07516 0.76305 0.0
C1502 C 0.56837 0.08773 0.67092 0.0
C1503 C 0.58041 0.09491 0.61874 0.0
C1504 C 0.55265 0.08808 0.6691 0.0
C1505 C 0.57652 0.10234 0.56486 0.0
C1506 C 0.56103 0.10271 0.56272 0.0
C1507 C 0.53353 0.09622 0.61246 0.0
C1508 C 0.52141 0.08929 0.66421 0.0
C1509 C 0.54904 0.09568 0.61451 0.0
C1510 C 0.52499 0.08167 0.71828 0.0
C1511 C 0.54048 0.08107 0.72072 0.0
H1512 H 0.76708 0.57547 0.13487 0.0
H1513 H 0.7779 0.60324 0.9506 0.0
H1514 H 0.80599 0.60427 0.94341 0.0
H1515 H 0.82765 0.59728 0.99063 0.0
H1516 H 0.8161 0.56976 0.17609 0.0
H1517 H 0.78827 0.56871 0.18153 0.0
C1518 C 0.77555 0.58175 0.093 0.0
C1519 C 0.77037 0.58924 0.04334 0.0
C1520 C 0.79164 0.58237 0.08944 0.0
C1521 C 0.78156 0.59734 0.98953 0.0
C1522 C 0.79763 0.59795 0.98543 0.0
C1523 C 0.81902 0.59106 0.0321 0.0
C1524 C 0.82402 0.58362 0.08283 0.0
C1525 C 0.80285 0.59051 0.03522 0.0
C1526 C 0.81267 0.57563 0.13633 0.0
C1527 C 0.79668 0.57499 0.13958 0.0
H1528 H 0.4123 0.18292 1.00337 0.0
H1529 H 0.44366 0.19503 0.1798 0.0
H1530 H 0.44551 0.2232 0.18765 0.0
H1531 H 0.4384 0.24458 0.14567 0.0
H1532 H 0.40749 0.23355 0.96898 0.0
H1533 H 0.40529 0.20493 0.9601 0.0
C1534 C 0.41955 0.19176 0.04335 0.0
C1535 C 0.42777 0.18677 0.09095 0.0
C1536 C 0.42064 0.20818 0.04773 0.0
C1537 C 0.43713 0.19842 0.14249 0.0
C1538 C 0.43823 0.2146 0.14716 0.0
C1539 C 0.43115 0.23592 0.1052 0.0
C1540 C 0.42311 0.24119 0.05816 0.0
C1541 C 0.43003 0.21961 0.10026 0.0
C1542 C 0.41381 0.22981 1.00592 0.0
C1543 C 0.41256 0.21344 1.00081 0.0
H1544 H 0.78255 0.18368 0.96485 0.0
H1545 H 0.76448 0.19485 0.14654 0.0
H1546 H 0.79082 0.22301 0.15413 0.0
H1547 H 0.81907 0.24466 0.11079 0.0
H1548 H 0.83793 0.23453 0.92942 0.0
H1549 H 0.81138 0.206 0.9202 0.0
C1550 C 0.7844 0.19231 1.00592 0.0
C1551 C 0.77149 0.18702 0.05505 0.0
C1552 C 0.79977 0.20875 1.01025 0.0
C1553 C 0.77414 0.19843 0.10799 0.0
C1554 C 0.78925 0.21463 0.11253 0.0
C1555 C 0.8174 0.23624 0.06915 0.0
C1556 C 0.83048 0.24175 0.02095 0.0
C1557 C 0.80215 0.21992 0.06416 0.0
C1558 C 0.82805 0.23063 0.9673 0.0
C1559 C 0.81286 0.21429 0.962 0.0
H1560 H 0.57399 0.76421 0.90802 0.0
H1561 H 0.6048 0.77582 0.08532 0.0
H1562 H 0.60517 0.8035 0.09689 0.0
H1563 H 0.5971 0.82477 0.05477 0.0
H1564 H 0.56645 0.81256 0.87647 0.0
H1565 H 0.56565 0.78484 0.86741 0.0
C1566 C 0.58077 0.77276 0.94933 0.0
C1567 C 0.58936 0.76796 0.99566 0.0
C1568 C 0.58096 0.78861 0.95552 0.0
C1569 C 0.59807 0.7792 0.04892 0.0
C1570 C 0.59829 0.79505 0.05555 0.0
C1571 C 0.59017 0.81597 0.01426 0.0
C1572 C 0.58187 0.82077 0.96638 0.0
C1573 C 0.58982 0.79994 1.00895 0.0
C1574 C 0.573 0.80926 0.91396 0.0
C1575 C 0.57253 0.79336 0.90863 0.0
H1576 H 0.19973 0.76683 0.87745 0.0
H1577 H 0.1837 0.77639 0.06655 0.0
H1578 H 0.21051 0.80474 0.07358 0.0
H1579 H 0.23881 0.82684 0.02558 0.0
H1580 H 0.25418 0.81647 0.8362 0.0
H1581 H 0.22739 0.78856 0.82984 0.0
C1582 C 0.20206 0.7751 0.92026 0.0
C1583 C 0.18975 0.76948 0.97142 0.0
C1584 C 0.21745 0.79131 0.92395 0.0
C1585 C 0.193 0.78039 0.02648 0.0
C1586 C 0.20833 0.79661 0.03052 0.0
C1587 C 0.23626 0.81846 0.983 0.0
C1588 C 0.24853 0.82381 0.9315 0.0
C1589 C 0.2207 0.80222 0.97953 0.0
C1590 C 0.24501 0.81277 0.87661 0.0
C1591 C 0.22966 0.79674 0.87282 0.0
H1592 H 0.1917 0.41568 0.05048 0.0
H1593 H 0.20162 0.44625 0.87328 0.0
H1594 H 0.22964 0.44805 0.86044 0.0
H1595 H 0.25121 0.44071 0.89698 0.0
H1596 H 0.24247 0.41038 0.07355 0.0
H1597 H 0.21425 0.40877 0.08921 0.0
C1598 C 0.20006 0.4228 1.00939 0.0
C1599 C 0.19446 0.43075 0.96284 0.0
C1600 C 0.21638 0.4238 1.00193 0.0
C1601 C 0.20548 0.43991 0.90976 0.0
C1602 C 0.22157 0.44098 0.90224 0.0
C1603 C 0.24317 0.43373 0.93901 0.0
C1604 C 0.24892 0.42562 0.98385 0.0
C1605 C 0.2271 0.4329 0.94762 0.0
C1606 C 0.23834 0.41673 0.03821 0.0
C1607 C 0.2222 0.4158 0.04714 0.0
H1608 H 0.4357 0.90924 0.43963 0.0
H1609 H 0.449 0.94188 0.26724 0.0
H1610 H 0.47773 0.94422 0.26373 0.0
H1611 H 0.49932 0.93721 0.31162 0.0
H1612 H 0.48518 0.90473 0.48518 0.0
H1613 H 0.45665 0.90219 0.4862 0.0
C1614 C 0.44484 0.91686 0.4011 0.0
C1615 C 0.4402 0.92537 0.35381 0.0
C1616 C 0.46127 0.91822 0.39973 0.0
C1617 C 0.45223 0.93516 0.30424 0.0
C1618 C 0.46868 0.93653 0.3023 0.0
C1619 C 0.48996 0.92957 0.34949 0.0
C1620 C 0.49446 0.92121 0.3983 0.0
C1621 C 0.47339 0.92816 0.35005 0.0
C1622 C 0.48217 0.91136 0.44708 0.0
C1623 C 0.46578 0.90986 0.44777 0.0
H1624 H 0.10703 0.5806 0.46599 0.0
H1625 H 0.07993 0.57052 0.28004 0.0
H1626 H 0.07901 0.54251 0.27107 0.0
H1627 H 0.08581 0.52068 0.31711 0.0
H1628 H 0.11235 0.53114 0.50473 0.0
H1629 H 0.11353 0.55909 0.51188 0.0
C1630 C 0.10093 0.57232 0.42338 0.0
C1631 C 0.09359 0.57768 0.37373 0.0
C1632 C 0.10032 0.55622 0.41887 0.0
C1633 C 0.0857 0.56672 0.31898 0.0
C1634 C 0.08516 0.55069 0.31384 0.0
C1635 C 0.09187 0.52911 0.35941 0.0
C1636 C 0.09899 0.52379 0.41024 0.0
C1637 C 0.09242 0.54527 0.36359 0.0
C1638 C 0.10673 0.53485 0.4649 0.0
C1639 C 0.10744 0.55088 0.46909 0.0
H1640 H 0.49413 0.56813 0.31791 0.0
H1641 H 0.48335 0.58558 0.502 0.0
H1642 H 0.45491 0.55945 0.50732 0.0
H1643 H 0.43317 0.53164 0.46163 0.0
H1644 H 0.44325 0.51281 0.27991 0.0
H1645 H 0.47175 0.5395 0.27139 0.0
C1646 C 0.48552 0.56618 0.35902 0.0
C1647 C 0.49092 0.57884 0.40949 0.0
C1648 C 0.46903 0.55091 0.3622 0.0
C1649 C 0.47962 0.57609 0.46255 0.0
C1650 C 0.46329 0.56114 0.46568 0.0
C1651 C 0.44155 0.53331 0.41996 0.0
C1652 C 0.43607 0.52022 0.37152 0.0
C1653 C 0.45788 0.54847 0.41601 0.0
C1654 C 0.44713 0.5227 0.31787 0.0
C1655 C 0.46345 0.53794 0.3131 0.0
loop_
_geom_bond_atom_site_label_1
_geom_bond_atom_site_label_2
_geom_bond_distance
_geom_bond_site_symmetry_2
_ccdc_geom_bond_type
Co0 O1 2.216 . S
Co0 O2 2.091 . S
Co0 O4 2.004 . S
Co0 O10 2.021 . S
Co0 O12 2.137 . S
Co0 O13 2.244 . S
O1 Co0 2.216 . S
O1 C8 1.247 . S
O2 Co0 2.091 . S
O2 C8 1.261 . S
C3 O12 1.247 . S
C3 O13 1.272 . S
O4 Co0 2.004 . S
O4 C9 1.259 . S
Co5 O6 2.061 . S
Co5 O11 2.052 . S
Co5 O13 2.135 . S
O6 Co5 2.061 . S
O6 C9 1.235 . S
C7 O10 1.238 . S
C7 O11 1.241 . S
C8 O1 1.247 . S
C8 O2 1.261 . S
C9 O4 1.259 . S
C9 O6 1.235 . S
O10 Co0 2.021 . S
O10 C7 1.238 . S
O11 Co5 2.052 . S
O11 C7 1.241 . S
O12 Co0 2.137 . S
O12 C3 1.247 . S
O13 Co0 2.244 . S
O13 C3 1.272 . S
O13 Co5 2.135 . S
Co14 O15 2.216 . S
Co14 O16 2.091 . S
Co14 O18 2.004 . S
Co14 O24 2.021 . S
Co14 O26 2.137 . S
Co14 O27 2.244 . S
O15 Co14 2.216 . S
O15 C22 1.247 . S
O16 Co14 2.091 . S
O16 C22 1.261 . S
C17 O26 1.247 . S
C17 O27 1.272 . S
O18 Co14 2.004 . S
O18 C23 1.259 . S
Co19 O20 2.061 . S
Co19 O25 2.052 . S
Co19 O27 2.135 . S
O20 Co19 2.061 . S
O20 C23 1.235 . S
C21 O24 1.238 . S
C21 O25 1.241 . S
C22 O15 1.247 . S
C22 O16 1.261 . S
C23 O18 1.259 . S
C23 O20 1.235 . S
O24 Co14 2.021 . S
O24 C21 1.238 . S
O25 Co19 2.052 . S
O25 C21 1.241 . S
O26 Co14 2.137 . S
O26 C17 1.247 . S
O27 Co14 2.244 . S
O27 C17 1.272 . S
O27 Co19 2.135 . S
Co28 O29 2.216 . S
Co28 O30 2.091 . S
Co28 O32 2.004 . S
Co28 O38 2.021 . S
Co28 O40 2.137 . S
Co28 O41 2.244 . S
O29 Co28 2.216 . S
O29 C36 1.247 . S
O30 Co28 2.091 . S
O30 C36 1.261 . S
C31 O40 1.247 . S
C31 O41 1.272 . S
O32 Co28 2.004 . S
O32 C37 1.259 . S
Co33 O34 2.061 . S
Co33 O39 2.052 . S
Co33 O41 2.135 . S
O34 Co33 2.061 . S
O34 C37 1.235 . S
C35 O38 1.238 . S
C35 O39 1.241 . S
C36 O29 1.247 . S
C36 O30 1.261 . S
C37 O32 1.259 . S
C37 O34 1.235 . S
O38 Co28 2.021 . S
O38 C35 1.238 . S
O39 Co33 2.052 . S
O39 C35 1.241 . S
O40 Co28 2.137 . S
O40 C31 1.247 . S
O41 Co28 2.244 . S
O41 C31 1.272 . S
O41 Co33 2.135 . S
Co42 O43 2.216 . S
Co42 O44 2.091 . S
Co42 O46 2.004 . S
Co42 O52 2.021 . S
Co42 O54 2.137 . S
Co42 O55 2.244 . S
O43 Co42 2.216 . S
O43 C50 1.247 . S
O44 Co42 2.091 . S
O44 C50 1.261 . S
C45 O54 1.247 . S
C45 O55 1.272 . S
O46 Co42 2.004 . S
O46 C51 1.259 . S
Co47 O48 2.061 . S
Co47 O53 2.052 . S
Co47 O55 2.135 . S
O48 Co47 2.061 . S
O48 C51 1.235 . S
C49 O52 1.238 . S
C49 O53 1.241 . S
C50 O43 1.247 . S
C50 O44 1.261 . S
C51 O46 1.259 . S
C51 O48 1.235 . S
O52 Co42 2.021 . S
O52 C49 1.238 . S
O53 Co47 2.052 . S
O53 C49 1.241 . S
O54 Co42 2.137 . S
O54 C45 1.247 . S
O55 Co42 2.244 . S
O55 C45 1.272 . S
O55 Co47 2.135 . S
Co56 O57 2.216 . S
Co56 O58 2.091 . S
Co56 O60 2.004 . S
Co56 O66 2.021 . S
Co56 O68 2.137 . S
Co56 O69 2.244 . S
O57 Co56 2.216 . S
O57 C64 1.247 . S
O58 Co56 2.091 . S
O58 C64 1.261 . S
C59 O68 1.247 . S
C59 O69 1.272 . S
O60 Co56 2.004 . S
O60 C65 1.259 . S
Co61 O62 2.061 . S
Co61 O67 2.052 . S
Co61 O69 2.135 . S
O62 Co61 2.061 . S
O62 C65 1.235 . S
C63 O66 1.238 . S
C63 O67 1.241 . S
C64 O57 1.247 . S
C64 O58 1.261 . S
C65 O60 1.259 . S
C65 O62 1.235 . S
O66 Co56 2.021 . S
O66 C63 1.238 . S
O67 Co61 2.052 . S
O67 C63 1.241 . S
O68 Co56 2.137 . S
O68 C59 1.247 . S
O69 Co56 2.244 . S
O69 C59 1.272 . S
O69 Co61 2.135 . S
Co70 O71 2.216 . S
Co70 O72 2.091 . S
Co70 O74 2.004 . S
Co70 O80 2.021 . S
Co70 O82 2.137 . S
Co70 O83 2.244 . S
O71 Co70 2.216 . S
O71 C78 1.247 . S
O72 Co70 2.091 . S
O72 C78 1.261 . S
C73 O82 1.247 . S
C73 O83 1.272 . S
O74 Co70 2.004 . S
O74 C79 1.259 . S
Co75 O76 2.061 . S
Co75 O81 2.052 . S
Co75 O83 2.135 . S
O76 Co75 2.061 . S
O76 C79 1.235 . S
C77 O80 1.238 . S
C77 O81 1.241 . S
C78 O71 1.247 . S
C78 O72 1.261 . S
C79 O74 1.259 . S
C79 O76 1.235 . S
O80 Co70 2.021 . S
O80 C77 1.238 . S
O81 Co75 2.052 . S
O81 C77 1.241 . S
O82 Co70 2.137 . S
O82 C73 1.247 . S
O83 Co70 2.244 . S
O83 C73 1.272 . S
O83 Co75 2.135 . S
Co84 O85 2.216 . S
Co84 O86 2.091 . S
Co84 O88 2.004 . S
Co84 O94 2.021 . S
Co84 O96 2.137 . S
Co84 O97 2.244 . S
O85 Co84 2.216 . S
O85 C92 1.247 . S
O86 Co84 2.091 . S
O86 C92 1.261 . S
C87 O96 1.247 . S
C87 O97 1.272 . S
O88 Co84 2.004 . S
O88 C93 1.259 . S
Co89 O90 2.061 . S
Co89 O95 2.052 . S
Co89 O97 2.135 . S
O90 Co89 2.061 . S
O90 C93 1.235 . S
C91 O94 1.238 . S
C91 O95 1.241 . S
C92 O85 1.247 . S
C92 O86 1.261 . S
C93 O88 1.259 . S
C93 O90 1.235 . S
O94 Co84 2.021 . S
O94 C91 1.238 . S
O95 Co89 2.052 . S
O95 C91 1.241 . S
O96 Co84 2.137 . S
O96 C87 1.247 . S
O97 Co84 2.244 . S
O97 C87 1.272 . S
O97 Co89 2.135 . S
Co98 O99 2.216 . S
Co98 O100 2.091 . S
Co98 O102 2.004 . S
Co98 O108 2.021 . S
Co98 O110 2.137 . S
Co98 O111 2.244 . S
O99 Co98 2.216 . S
O99 C106 1.247 . S
O100 Co98 2.091 . S
O100 C106 1.261 . S
C101 O110 1.247 . S
C101 O111 1.272 . S
O102 Co98 2.004 . S
O102 C107 1.259 . S
Co103 O104 2.061 . S
Co103 O109 2.052 . S
Co103 O111 2.135 . S
O104 Co103 2.061 . S
O104 C107 1.235 . S
C105 O108 1.238 . S
C105 O109 1.241 . S
C106 O99 1.247 . S
C106 O100 1.261 . S
C107 O102 1.259 . S
C107 O104 1.235 . S
O108 Co98 2.021 . S
O108 C105 1.238 . S
O109 Co103 2.052 . S
O109 C105 1.241 . S
O110 Co98 2.137 . S
O110 C101 1.247 . S
O111 Co98 2.244 . S
O111 C101 1.272 . S
O111 Co103 2.135 . S
Co112 O113 2.216 . S
Co112 O114 2.091 . S
Co112 O116 2.004 . S
Co112 O122 2.021 . S
Co112 O124 2.137 . S
Co112 O125 2.244 . S
O113 Co112 2.216 . S
O113 C120 1.247 . S
O114 Co112 2.091 . S
O114 C120 1.261 . S
C115 O124 1.247 . S
C115 O125 1.272 . S
O116 Co112 2.004 . S
O116 C121 1.259 . S
Co117 O118 2.061 . S
Co117 O123 2.052 . S
Co117 O125 2.135 . S
O118 Co117 2.061 . S
O118 C121 1.235 . S
C119 O122 1.238 . S
C119 O123 1.241 . S
C120 O113 1.247 . S
C120 O114 1.261 . S
C121 O116 1.259 . S
C121 O118 1.235 . S
O122 Co112 2.021 . S
O122 C119 1.238 . S
O123 Co117 2.052 . S
O123 C119 1.241 . S
O124 Co112 2.137 . S
O124 C115 1.247 . S
O125 Co112 2.244 . S
O125 C115 1.272 . S
O125 Co117 2.135 . S
Co126 O127 2.216 . S
Co126 O128 2.091 . S
Co126 O130 2.004 . S
Co126 O136 2.021 . S
Co126 O138 2.137 . S
Co126 O139 2.244 . S
O127 Co126 2.216 . S
O127 C134 1.247 . S
O128 Co126 2.091 . S
O128 C134 1.261 . S
C129 O138 1.247 . S
C129 O139 1.272 . S
O130 Co126 2.004 . S
O130 C135 1.259 . S
Co131 O132 2.061 . S
Co131 O137 2.052 . S
Co131 O139 2.135 . S
O132 Co131 2.061 . S
O132 C135 1.235 . S
C133 O136 1.238 . S
C133 O137 1.241 . S
C134 O127 1.247 . S
C134 O128 1.261 . S
C135 O130 1.259 . S
C135 O132 1.235 . S
O136 Co126 2.021 . S
O136 C133 1.238 . S
O137 Co131 2.052 . S
O137 C133 1.241 . S
O138 Co126 2.137 . S
O138 C129 1.247 . S
O139 Co126 2.244 . S
O139 C129 1.272 . S
O139 Co131 2.135 . S
Co140 O141 2.216 . S
Co140 O142 2.091 . S
Co140 O144 2.004 . S
Co140 O150 2.021 . S
Co140 O152 2.137 . S
Co140 O153 2.244 . S
O141 Co140 2.216 . S
O141 C148 1.247 . S
O142 Co140 2.091 . S
O142 C148 1.261 . S
C143 O152 1.247 . S
C143 O153 1.272 . S
O144 Co140 2.004 . S
O144 C149 1.259 . S
Co145 O146 2.061 . S
Co145 O151 2.052 . S
Co145 O153 2.135 . S
O146 Co145 2.061 . S
O146 C149 1.235 . S
C147 O150 1.238 . S
C147 O151 1.241 . S
C148 O141 1.247 . S
C148 O142 1.261 . S
C149 O144 1.259 . S
C149 O146 1.235 . S
O150 Co140 2.021 . S
O150 C147 1.238 . S
O151 Co145 2.052 . S
O151 C147 1.241 . S
O152 Co140 2.137 . S
O152 C143 1.247 . S
O153 Co140 2.244 . S
O153 C143 1.272 . S
O153 Co145 2.135 . S
Co154 O155 2.216 . S
Co154 O156 2.091 . S
Co154 O158 2.004 . S
Co154 O164 2.021 . S
Co154 O166 2.137 . S
Co154 O167 2.244 . S
O155 Co154 2.216 . S
O155 C162 1.247 . S
O156 Co154 2.091 . S
O156 C162 1.261 . S
C157 O166 1.247 . S
C157 O167 1.272 . S
O158 Co154 2.004 . S
O158 C163 1.259 . S
Co159 O160 2.061 . S
Co159 O165 2.052 . S
Co159 O167 2.135 . S
O160 Co159 2.061 . S
O160 C163 1.235 . S
C161 O164 1.238 . S
C161 O165 1.241 . S
C162 O155 1.247 . S
C162 O156 1.261 . S
C163 O158 1.259 . S
C163 O160 1.235 . S
O164 Co154 2.021 . S
O164 C161 1.238 . S
O165 Co159 2.052 . S
O165 C161 1.241 . S
O166 Co154 2.137 . S
O166 C157 1.247 . S
O167 Co154 2.244 . S
O167 C157 1.272 . S
O167 Co159 2.135 . S
Co168 O169 2.216 . S
Co168 O170 2.091 . S
Co168 O172 2.004 . S
Co168 O178 2.021 . S
Co168 O180 2.137 . S
Co168 O181 2.244 . S
O169 Co168 2.216 . S
O169 C176 1.247 . S
O170 Co168 2.091 . S
O170 C176 1.261 . S
C171 O180 1.247 . S
C171 O181 1.272 . S
O172 Co168 2.004 . S
O172 C177 1.259 . S
Co173 O174 2.061 . S
Co173 O179 2.052 . S
Co173 O181 2.135 . S
O174 Co173 2.061 . S
O174 C177 1.235 . S
C175 O178 1.238 . S
C175 O179 1.241 . S
C176 O169 1.247 . S
C176 O170 1.261 . S
C177 O172 1.259 . S
C177 O174 1.235 . S
O178 Co168 2.021 . S
O178 C175 1.238 . S
O179 Co173 2.052 . S
O179 C175 1.241 . S
O180 Co168 2.137 . S
O180 C171 1.247 . S
O181 Co168 2.244 . S
O181 C171 1.272 . S
O181 Co173 2.135 . S
Co182 O183 2.216 . S
Co182 O184 2.091 . S
Co182 O186 2.004 . S
Co182 O192 2.021 . S
Co182 O194 2.137 . S
Co182 O195 2.244 . S
O183 Co182 2.216 . S
O183 C190 1.247 . S
O184 Co182 2.091 . S
O184 C190 1.261 . S
C185 O194 1.247 . S
C185 O195 1.272 . S
O186 Co182 2.004 . S
O186 C191 1.259 . S
Co187 O188 2.061 . S
Co187 O193 2.052 . S
Co187 O195 2.135 . S
O188 Co187 2.061 . S
O188 C191 1.235 . S
C189 O192 1.238 . S
C189 O193 1.241 . S
C190 O183 1.247 . S
C190 O184 1.261 . S
C191 O186 1.259 . S
C191 O188 1.235 . S
O192 Co182 2.021 . S
O192 C189 1.238 . S
O193 Co187 2.052 . S
O193 C189 1.241 . S
O194 Co182 2.137 . S
O194 C185 1.247 . S
O195 Co182 2.244 . S
O195 C185 1.272 . S
O195 Co187 2.135 . S
Co196 O197 2.216 . S
Co196 O198 2.091 . S
Co196 O200 2.004 . S
Co196 O206 2.021 . S
Co196 O208 2.137 . S
Co196 O209 2.244 . S
O197 Co196 2.216 . S
O197 C204 1.247 . S
O198 Co196 2.091 . S
O198 C204 1.261 . S
C199 O208 1.247 . S
C199 O209 1.272 . S
O200 Co196 2.004 . S
O200 C205 1.259 . S
Co201 O202 2.061 . S
Co201 O207 2.052 . S
Co201 O209 2.135 . S
O202 Co201 2.061 . S
O202 C205 1.235 . S
C203 O206 1.238 . S
C203 O207 1.241 . S
C204 O197 1.247 . S
C204 O198 1.261 . S
C205 O200 1.259 . S
C205 O202 1.235 . S
O206 Co196 2.021 . S
O206 C203 1.238 . S
O207 Co201 2.052 . S
O207 C203 1.241 . S
O208 Co196 2.137 . S
O208 C199 1.247 . S
O209 Co196 2.244 . S
O209 C199 1.272 . S
O209 Co201 2.135 . S
Co210 O211 2.216 . S
Co210 O212 2.091 1_554 S
Co210 O214 2.004 . S
Co210 O220 2.021 . S
Co210 O222 2.137 . S
Co210 O223 2.244 . S
O211 Co210 2.216 . S
O211 C218 1.247 1_554 S
O212 Co210 2.091 1_556 S
O212 C218 1.261 . S
C213 O222 1.247 . S
C213 O223 1.272 . S
O214 Co210 2.004 . S
O214 C219 1.259 . S
Co215 O216 2.061 . S
Co215 O221 2.052 . S
Co215 O223 2.135 . S
O216 Co215 2.061 . S
O216 C219 1.235 . S
C217 O220 1.238 . S
C217 O221 1.241 . S
C218 O211 1.247 1_556 S
C218 O212 1.261 . S
C219 O214 1.259 . S
C219 O216 1.235 . S
O220 Co210 2.021 . S
O220 C217 1.238 . S
O221 Co215 2.052 . S
O221 C217 1.241 . S
O222 Co210 2.137 . S
O222 C213 1.247 . S
O223 Co210 2.244 . S
O223 C213 1.272 . S
O223 Co215 2.135 . S
Co224 O225 2.216 . S
Co224 O226 2.091 1_554 S
Co224 O228 2.004 . S
Co224 O234 2.021 . S
Co224 O236 2.137 . S
Co224 O237 2.244 . S
O225 Co224 2.216 . S
O225 C232 1.247 1_554 S
O226 Co224 2.091 1_556 S
O226 C232 1.261 . S
C227 O236 1.247 . S
C227 O237 1.272 . S
O228 Co224 2.004 . S
O228 C233 1.259 . S
Co229 O230 2.061 . S
Co229 O235 2.052 . S
Co229 O237 2.135 . S
O230 Co229 2.061 . S
O230 C233 1.235 . S
C231 O234 1.238 . S
C231 O235 1.241 . S
C232 O225 1.247 1_556 S
C232 O226 1.261 . S
C233 O228 1.259 . S
C233 O230 1.235 . S
O234 Co224 2.021 . S
O234 C231 1.238 . S
O235 Co229 2.052 . S
O235 C231 1.241 . S
O236 Co224 2.137 . S
O236 C227 1.247 . S
O237 Co224 2.244 . S
O237 C227 1.272 . S
O237 Co229 2.135 . S
Co238 O239 2.216 . S
Co238 O240 2.091 1_554 S
Co238 O242 2.004 . S
Co238 O248 2.021 . S
Co238 O250 2.137 . S
Co238 O251 2.244 . S
O239 Co238 2.216 . S
O239 C246 1.247 1_554 S
O240 Co238 2.091 1_556 S
O240 C246 1.261 . S
C241 O250 1.247 . S
C241 O251 1.272 . S
O242 Co238 2.004 . S
O242 C247 1.259 . S
Co243 O244 2.061 . S
Co243 O249 2.052 . S
Co243 O251 2.135 . S
O244 Co243 2.061 . S
O244 C247 1.235 . S
C245 O248 1.238 . S
C245 O249 1.241 . S
C246 O239 1.247 1_556 S
C246 O240 1.261 . S
C247 O242 1.259 . S
C247 O244 1.235 . S
O248 Co238 2.021 . S
O248 C245 1.238 . S
O249 Co243 2.052 . S
O249 C245 1.241 . S
O250 Co238 2.137 . S
O250 C241 1.247 . S
O251 Co238 2.244 . S
O251 C241 1.272 . S
O251 Co243 2.135 . S
Co252 O253 2.216 . S
Co252 O254 2.091 1_554 S
Co252 O256 2.004 . S
Co252 O262 2.021 . S
Co252 O264 2.137 . S
Co252 O265 2.244 . S
O253 Co252 2.216 . S
O253 C260 1.247 1_554 S
O254 Co252 2.091 1_556 S
O254 C260 1.261 . S
C255 O264 1.247 . S
C255 O265 1.272 . S
O256 Co252 2.004 . S
O256 C261 1.259 . S
Co257 O258 2.061 . S
Co257 O263 2.052 . S
Co257 O265 2.135 . S
O258 Co257 2.061 . S
O258 C261 1.235 . S
C259 O262 1.238 . S
C259 O263 1.241 . S
C260 O253 1.247 1_556 S
C260 O254 1.261 . S
C261 O256 1.259 . S
C261 O258 1.235 . S
O262 Co252 2.021 . S
O262 C259 1.238 . S
O263 Co257 2.052 . S
O263 C259 1.241 . S
O264 Co252 2.137 . S
O264 C255 1.247 . S
O265 Co252 2.244 . S
O265 C255 1.272 . S
O265 Co257 2.135 . S
Co266 O267 2.216 . S
Co266 O268 2.091 1_554 S
Co266 O270 2.004 . S
Co266 O276 2.021 . S
Co266 O278 2.137 . S
Co266 O279 2.244 . S
O267 Co266 2.216 . S
O267 C274 1.247 1_554 S
O268 Co266 2.091 1_556 S
O268 C274 1.261 . S
C269 O278 1.247 . S
C269 O279 1.272 . S
O270 Co266 2.004 . S
O270 C275 1.259 . S
Co271 O272 2.061 . S
Co271 O277 2.052 . S
Co271 O279 2.135 . S
O272 Co271 2.061 . S
O272 C275 1.235 . S
C273 O276 1.238 . S
C273 O277 1.241 . S
C274 O267 1.247 1_556 S
C274 O268 1.261 . S
C275 O270 1.259 . S
C275 O272 1.235 . S
O276 Co266 2.021 . S
O276 C273 1.238 . S
O277 Co271 2.052 . S
O277 C273 1.241 . S
O278 Co266 2.137 . S
O278 C269 1.247 . S
O279 Co266 2.244 . S
O279 C269 1.272 . S
O279 Co271 2.135 . S
Co280 O281 2.216 . S
Co280 O282 2.091 1_554 S
Co280 O284 2.004 . S
Co280 O290 2.021 . S
Co280 O292 2.137 . S
Co280 O293 2.244 . S
O281 Co280 2.216 . S
O281 C288 1.247 1_554 S
O282 Co280 2.091 1_556 S
O282 C288 1.261 . S
C283 O292 1.247 . S
C283 O293 1.272 . S
O284 Co280 2.004 . S
O284 C289 1.259 . S
Co285 O286 2.061 . S
Co285 O291 2.052 . S
Co285 O293 2.135 . S
O286 Co285 2.061 . S
O286 C289 1.235 . S
C287 O290 1.238 . S
C287 O291 1.241 . S
C288 O281 1.247 1_556 S
C288 O282 1.261 . S
C289 O284 1.259 . S
C289 O286 1.235 . S
O290 Co280 2.021 . S
O290 C287 1.238 . S
O291 Co285 2.052 . S
O291 C287 1.241 . S
O292 Co280 2.137 . S
O292 C283 1.247 . S
O293 Co280 2.244 . S
O293 C283 1.272 . S
O293 Co285 2.135 . S
Co294 O295 2.216 . S
Co294 O296 2.091 . S
Co294 O298 2.004 . S
Co294 O304 2.021 . S
Co294 O306 2.137 . S
Co294 O307 2.244 . S
O295 Co294 2.216 . S
O295 C302 1.247 . S
O296 Co294 2.091 . S
O296 C302 1.261 . S
C297 O306 1.247 . S
C297 O307 1.272 . S
O298 Co294 2.004 . S
O298 C303 1.259 . S
Co299 O300 2.061 . S
Co299 O305 2.052 . S
Co299 O307 2.135 . S
O300 Co299 2.061 . S
O300 C303 1.235 . S
C301 O304 1.238 . S
C301 O305 1.241 . S
C302 O295 1.247 . S
C302 O296 1.261 . S
C303 O298 1.259 . S
C303 O300 1.235 . S
O304 Co294 2.021 . S
O304 C301 1.238 . S
O305 Co299 2.052 . S
O305 C301 1.241 . S
O306 Co294 2.137 . S
O306 C297 1.247 . S
O307 Co294 2.244 . S
O307 C297 1.272 . S
O307 Co299 2.135 . S
Co308 O309 2.216 . S
Co308 O310 2.091 . S
Co308 O312 2.004 . S
Co308 O318 2.021 . S
Co308 O320 2.137 . S
Co308 O321 2.244 . S
O309 Co308 2.216 . S
O309 C316 1.247 . S
O310 Co308 2.091 . S
O310 C316 1.261 . S
C311 O320 1.247 . S
C311 O321 1.272 . S
O312 Co308 2.004 . S
O312 C317 1.259 . S
Co313 O314 2.061 . S
Co313 O319 2.052 . S
Co313 O321 2.135 . S
O314 Co313 2.061 . S
O314 C317 1.235 . S
C315 O318 1.238 . S
C315 O319 1.241 . S
C316 O309 1.247 . S
C316 O310 1.261 . S
C317 O312 1.259 . S
C317 O314 1.235 . S
O318 Co308 2.021 . S
O318 C315 1.238 . S
O319 Co313 2.052 . S
O319 C315 1.241 . S
O320 Co308 2.137 . S
O320 C311 1.247 . S
O321 Co308 2.244 . S
O321 C311 1.272 . S
O321 Co313 2.135 . S
Co322 O323 2.216 . S
Co322 O324 2.091 . S
Co322 O326 2.004 . S
Co322 O332 2.021 . S
Co322 O334 2.137 . S
Co322 O335 2.244 . S
O323 Co322 2.216 . S
O323 C330 1.247 . S
O324 Co322 2.091 . S
O324 C330 1.261 . S
C325 O334 1.247 . S
C325 O335 1.272 . S
O326 Co322 2.004 . S
O326 C331 1.259 . S
Co327 O328 2.061 . S
Co327 O333 2.052 . S
Co327 O335 2.135 . S
O328 Co327 2.061 . S
O328 C331 1.235 . S
C329 O332 1.238 . S
C329 O333 1.241 . S
C330 O323 1.247 . S
C330 O324 1.261 . S
C331 O326 1.259 . S
C331 O328 1.235 . S
O332 Co322 2.021 . S
O332 C329 1.238 . S
O333 Co327 2.052 . S
O333 C329 1.241 . S
O334 Co322 2.137 . S
O334 C325 1.247 . S
O335 Co322 2.244 . S
O335 C325 1.272 . S
O335 Co327 2.135 . S
Co336 O337 2.216 . S
Co336 O338 2.091 1_556 S
Co336 O340 2.004 . S
Co336 O346 2.021 . S
Co336 O348 2.137 . S
Co336 O349 2.244 . S
O337 Co336 2.216 . S
O337 C344 1.247 1_556 S
O338 Co336 2.091 1_554 S
O338 C344 1.261 . S
C339 O348 1.247 . S
C339 O349 1.272 . S
O340 Co336 2.004 . S
O340 C345 1.259 . S
Co341 O342 2.061 . S
Co341 O347 2.052 . S
Co341 O349 2.135 . S
O342 Co341 2.061 . S
O342 C345 1.235 . S
C343 O346 1.238 . S
C343 O347 1.241 . S
C344 O337 1.247 1_554 S
C344 O338 1.261 . S
C345 O340 1.259 . S
C345 O342 1.235 . S
O346 Co336 2.021 . S
O346 C343 1.238 . S
O347 Co341 2.052 . S
O347 C343 1.241 . S
O348 Co336 2.137 . S
O348 C339 1.247 . S
O349 Co336 2.244 . S
O349 C339 1.272 . S
O349 Co341 2.135 . S
Co350 O351 2.216 . S
Co350 O352 2.091 1_556 S
Co350 O354 2.004 . S
Co350 O360 2.021 . S
Co350 O362 2.137 . S
Co350 O363 2.244 . S
O351 Co350 2.216 . S
O351 C358 1.247 1_556 S
O352 Co350 2.091 1_554 S
O352 C358 1.261 . S
C353 O362 1.247 . S
C353 O363 1.272 . S
O354 Co350 2.004 . S
O354 C359 1.259 . S
Co355 O356 2.061 . S
Co355 O361 2.052 . S
Co355 O363 2.135 . S
O356 Co355 2.061 . S
O356 C359 1.235 . S
C357 O360 1.238 . S
C357 O361 1.241 . S
C358 O351 1.247 1_554 S
C358 O352 1.261 . S
C359 O354 1.259 . S
C359 O356 1.235 . S
O360 Co350 2.021 . S
O360 C357 1.238 . S
O361 Co355 2.052 . S
O361 C357 1.241 . S
O362 Co350 2.137 . S
O362 C353 1.247 . S
O363 Co350 2.244 . S
O363 C353 1.272 . S
O363 Co355 2.135 . S
Co364 O365 2.216 . S
Co364 O366 2.091 1_556 S
Co364 O368 2.004 . S
Co364 O374 2.021 . S
Co364 O376 2.137 . S
Co364 O377 2.244 . S
O365 Co364 2.216 . S
O365 C372 1.247 1_556 S
O366 Co364 2.091 1_554 S
O366 C372 1.261 . S
C367 O376 1.247 . S
C367 O377 1.272 . S
O368 Co364 2.004 . S
O368 C373 1.259 . S
Co369 O370 2.061 . S
Co369 O375 2.052 . S
Co369 O377 2.135 . S
O370 Co369 2.061 . S
O370 C373 1.235 . S
C371 O374 1.238 . S
C371 O375 1.241 . S
C372 O365 1.247 1_554 S
C372 O366 1.261 . S
C373 O368 1.259 . S
C373 O370 1.235 . S
O374 Co364 2.021 . S
O374 C371 1.238 . S
O375 Co369 2.052 . S
O375 C371 1.241 . S
O376 Co364 2.137 . S
O376 C367 1.247 . S
O377 Co364 2.244 . S
O377 C367 1.272 . S
O377 Co369 2.135 . S
Co378 O379 2.216 . S
Co378 O380 2.091 . S
Co378 O382 2.004 . S
Co378 O388 2.021 . S
Co378 O390 2.137 . S
Co378 O391 2.244 . S
O379 Co378 2.216 . S
O379 C386 1.247 . S
O380 Co378 2.091 . S
O380 C386 1.261 . S
C381 O390 1.247 . S
C381 O391 1.272 . S
O382 Co378 2.004 . S
O382 C387 1.259 . S
Co383 O384 2.061 . S
Co383 O389 2.052 . S
Co383 O391 2.135 . S
O384 Co383 2.061 . S
O384 C387 1.235 . S
C385 O388 1.238 . S
C385 O389 1.241 . S
C386 O379 1.247 . S
C386 O380 1.261 . S
C387 O382 1.259 . S
C387 O384 1.235 . S
O388 Co378 2.021 . S
O388 C385 1.238 . S
O389 Co383 2.052 . S
O389 C385 1.241 . S
O390 Co378 2.137 . S
O390 C381 1.247 . S
O391 Co378 2.244 . S
O391 C381 1.272 . S
O391 Co383 2.135 . S
Co392 O393 2.216 . S
Co392 O394 2.091 . S
Co392 O396 2.004 . S
Co392 O402 2.021 . S
Co392 O404 2.137 . S
Co392 O405 2.244 . S
O393 Co392 2.216 . S
O393 C400 1.247 . S
O394 Co392 2.091 . S
O394 C400 1.261 . S
C395 O404 1.247 . S
C395 O405 1.272 . S
O396 Co392 2.004 . S
O396 C401 1.259 . S
Co397 O398 2.061 . S
Co397 O403 2.052 . S
Co397 O405 2.135 . S
O398 Co397 2.061 . S
O398 C401 1.235 . S
C399 O402 1.238 . S
C399 O403 1.241 . S
C400 O393 1.247 . S
C400 O394 1.261 . S
C401 O396 1.259 . S
C401 O398 1.235 . S
O402 Co392 2.021 . S
O402 C399 1.238 . S
O403 Co397 2.052 . S
O403 C399 1.241 . S
O404 Co392 2.137 . S
O404 C395 1.247 . S
O405 Co392 2.244 . S
O405 C395 1.272 . S
O405 Co397 2.135 . S
Co406 O407 2.216 . S
Co406 O408 2.091 . S
Co406 O410 2.004 . S
Co406 O416 2.021 . S
Co406 O418 2.137 . S
Co406 O419 2.244 . S
O407 Co406 2.216 . S
O407 C414 1.247 . S
O408 Co406 2.091 . S
O408 C414 1.261 . S
C409 O418 1.247 . S
C409 O419 1.272 . S
O410 Co406 2.004 . S
O410 C415 1.259 . S
Co411 O412 2.061 . S
Co411 O417 2.052 . S
Co411 O419 2.135 . S
O412 Co411 2.061 . S
O412 C415 1.235 . S
C413 O416 1.238 . S
C413 O417 1.241 . S
C414 O407 1.247 . S
C414 O408 1.261 . S
C415 O410 1.259 . S
C415 O412 1.235 . S
O416 Co406 2.021 . S
O416 C413 1.238 . S
O417 Co411 2.052 . S
O417 C413 1.241 . S
O418 Co406 2.137 . S
O418 C409 1.247 . S
O419 Co406 2.244 . S
O419 C409 1.272 . S
O419 Co411 2.135 . S
Co420 O421 2.216 . S
Co420 O422 2.091 . S
Co420 O424 2.004 . S
Co420 O430 2.021 . S
Co420 O432 2.137 . S
Co420 O433 2.244 . S
O421 Co420 2.216 . S
O421 C428 1.247 . S
O422 Co420 2.091 . S
O422 C428 1.261 . S
C423 O432 1.247 . S
C423 O433 1.272 . S
O424 Co420 2.004 . S
O424 C429 1.259 . S
Co425 O426 2.061 . S
Co425 O431 2.052 . S
Co425 O433 2.135 . S
O426 Co425 2.061 . S
O426 C429 1.235 . S
C427 O430 1.238 . S
C427 O431 1.241 . S
C428 O421 1.247 . S
C428 O422 1.261 . S
C429 O424 1.259 . S
C429 O426 1.235 . S
O430 Co420 2.021 . S
O430 C427 1.238 . S
O431 Co425 2.052 . S
O431 C427 1.241 . S
O432 Co420 2.137 . S
O432 C423 1.247 . S
O433 Co420 2.244 . S
O433 C423 1.272 . S
O433 Co425 2.135 . S
Co434 O435 2.216 . S
Co434 O436 2.091 . S
Co434 O438 2.004 . S
Co434 O444 2.021 . S
Co434 O446 2.137 . S
Co434 O447 2.244 . S
O435 Co434 2.216 . S
O435 C442 1.247 . S
O436 Co434 2.091 . S
O436 C442 1.261 . S
C437 O446 1.247 . S
C437 O447 1.272 . S
O438 Co434 2.004 . S
O438 C443 1.259 . S
Co439 O440 2.061 . S
Co439 O445 2.052 . S
Co439 O447 2.135 . S
O440 Co439 2.061 . S
O440 C443 1.235 . S
C441 O444 1.238 . S
C441 O445 1.241 . S
C442 O435 1.247 . S
C442 O436 1.261 . S
C443 O438 1.259 . S
C443 O440 1.235 . S
O444 Co434 2.021 . S
O444 C441 1.238 . S
O445 Co439 2.052 . S
O445 C441 1.241 . S
O446 Co434 2.137 . S
O446 C437 1.247 . S
O447 Co434 2.244 . S
O447 C437 1.272 . S
O447 Co439 2.135 . S
Co448 O449 2.216 . S
Co448 O450 2.091 . S
Co448 O452 2.004 . S
Co448 O458 2.021 . S
Co448 O460 2.137 . S
Co448 O461 2.244 . S
O449 Co448 2.216 . S
O449 C456 1.247 . S
O450 Co448 2.091 . S
O450 C456 1.261 . S
C451 O460 1.247 . S
C451 O461 1.272 . S
O452 Co448 2.004 . S
O452 C457 1.259 . S
Co453 O454 2.061 . S
Co453 O459 2.052 . S
Co453 O461 2.135 . S
O454 Co453 2.061 . S
O454 C457 1.235 . S
C455 O458 1.238 . S
C455 O459 1.241 . S
C456 O449 1.247 . S
C456 O450 1.261 . S
C457 O452 1.259 . S
C457 O454 1.235 . S
O458 Co448 2.021 . S
O458 C455 1.238 . S
O459 Co453 2.052 . S
O459 C455 1.241 . S
O460 Co448 2.137 . S
O460 C451 1.247 . S
O461 Co448 2.244 . S
O461 C451 1.272 . S
O461 Co453 2.135 . S
Co462 O463 2.216 . S
Co462 O464 2.091 1_556 S
Co462 O466 2.004 . S
Co462 O472 2.021 . S
Co462 O474 2.137 . S
Co462 O475 2.244 . S
O463 Co462 2.216 . S
O463 C470 1.247 1_556 S
O464 Co462 2.091 1_554 S
O464 C470 1.261 . S
C465 O474 1.247 . S
C465 O475 1.272 . S
O466 Co462 2.004 . S
O466 C471 1.259 . S
Co467 O468 2.061 . S
Co467 O473 2.052 . S
Co467 O475 2.135 . S
O468 Co467 2.061 . S
O468 C471 1.235 . S
C469 O472 1.238 . S
C469 O473 1.241 . S
C470 O463 1.247 1_554 S
C470 O464 1.261 . S
C471 O466 1.259 . S
C471 O468 1.235 . S
O472 Co462 2.021 . S
O472 C469 1.238 . S
O473 Co467 2.052 . S
O473 C469 1.241 . S
O474 Co462 2.137 . S
O474 C465 1.247 . S
O475 Co462 2.244 . S
O475 C465 1.272 . S
O475 Co467 2.135 . S
Co476 O477 2.216 . S
Co476 O478 2.091 1_556 S
Co476 O480 2.004 . S
Co476 O486 2.021 . S
Co476 O488 2.137 . S
Co476 O489 2.244 . S
O477 Co476 2.216 . S
O477 C484 1.247 1_556 S
O478 Co476 2.091 1_554 S
O478 C484 1.261 . S
C479 O488 1.247 . S
C479 O489 1.272 . S
O480 Co476 2.004 . S
O480 C485 1.259 . S
Co481 O482 2.061 . S
Co481 O487 2.052 . S
Co481 O489 2.135 . S
O482 Co481 2.061 . S
O482 C485 1.235 . S
C483 O486 1.238 . S
C483 O487 1.241 . S
C484 O477 1.247 1_554 S
C484 O478 1.261 . S
C485 O480 1.259 . S
C485 O482 1.235 . S
O486 Co476 2.021 . S
O486 C483 1.238 . S
O487 Co481 2.052 . S
O487 C483 1.241 . S
O488 Co476 2.137 . S
O488 C479 1.247 . S
O489 Co476 2.244 . S
O489 C479 1.272 . S
O489 Co481 2.135 . S
Co490 O491 2.216 . S
Co490 O492 2.091 1_556 S
Co490 O494 2.004 . S
Co490 O500 2.021 . S
Co490 O502 2.137 . S
Co490 O503 2.244 . S
O491 Co490 2.216 . S
O491 C498 1.247 1_556 S
O492 Co490 2.091 1_554 S
O492 C498 1.261 . S
C493 O502 1.247 . S
C493 O503 1.272 . S
O494 Co490 2.004 . S
O494 C499 1.259 . S
Co495 O496 2.061 . S
Co495 O501 2.052 . S
Co495 O503 2.135 . S
O496 Co495 2.061 . S
O496 C499 1.235 . S
C497 O500 1.238 . S
C497 O501 1.241 . S
C498 O491 1.247 1_554 S
C498 O492 1.261 . S
C499 O494 1.259 . S
C499 O496 1.235 . S
O500 Co490 2.021 . S
O500 C497 1.238 . S
O501 Co495 2.052 . S
O501 C497 1.241 . S
O502 Co490 2.137 . S
O502 C493 1.247 . S
O503 Co490 2.244 . S
O503 C493 1.272 . S
O503 Co495 2.135 . S
H504 C510 0.930 . S
H505 C513 0.930 . S
H506 C514 0.930 . S
H507 C515 0.930 . S
H508 C518 0.930 . S
H509 C519 0.930 . S
C510 H504 0.930 . S
C510 C511 1.355 . S
C510 C512 1.415 . S
C511 C510 1.355 . S
C511 C513 1.419 . S
C512 C510 1.415 . S
C512 C517 1.425 1_565 S
C512 C519 1.409 . S
C513 H505 0.930 . S
C513 C511 1.419 . S
C513 C514 1.362 1_565 S
C514 H506 0.930 . S
C514 C513 1.362 1_545 S
C514 C517 1.409 . S
C515 H507 0.930 . S
C515 C516 1.355 . S
C515 C517 1.415 . S
C516 C515 1.355 . S
C516 C518 1.419 . S
C517 C512 1.425 1_545 S
C517 C514 1.409 . S
C517 C515 1.415 . S
C518 H508 0.930 . S
C518 C516 1.419 . S
C518 C519 1.362 1_545 S
C519 H509 0.930 . S
C519 C512 1.409 . S
C519 C518 1.362 1_565 S
H520 C526 0.930 . S
H521 C529 0.930 . S
H522 C530 0.874 1_655 S
H523 C531 0.930 . S
H524 C534 0.930 . S
H525 C535 0.875 1_455 S
C526 H520 0.930 . S
C526 C527 1.355 . S
C526 C528 1.415 . S
C527 C526 1.355 . S
C527 C529 1.419 . S
C528 C526 1.415 . S
C528 C533 1.425 1_455 S
C528 C535 1.419 1_455 S
C529 H521 0.930 . S
C529 C527 1.419 . S
C529 C530 1.410 . S
C530 H522 0.874 1_455 S
C530 C529 1.410 . S
C530 C533 1.419 1_455 S
C531 H523 0.930 . S
C531 C532 1.355 . S
C531 C533 1.415 . S
C532 C531 1.355 . S
C532 C534 1.419 . S
C533 C528 1.425 1_655 S
C533 C530 1.419 1_655 S
C533 C531 1.415 . S
C534 H524 0.930 . S
C534 C532 1.419 . S
C534 C535 1.410 . S
C535 H525 0.875 1_655 S
C535 C528 1.419 1_655 S
C535 C534 1.410 . S
H536 C542 0.930 . S
H537 C545 0.930 . S
H538 C546 0.930 . S
H539 C547 0.930 . S
H540 C550 0.930 . S
H541 C551 0.930 . S
C542 H536 0.930 . S
C542 C543 1.355 . S
C542 C544 1.415 . S
C543 C542 1.355 . S
C543 C545 1.419 . S
C544 C542 1.415 . S
C544 C549 1.425 . S
C544 C551 1.409 . S
C545 H537 0.930 . S
C545 C543 1.419 . S
C545 C546 1.362 . S
C546 H538 0.930 . S
C546 C545 1.362 . S
C546 C549 1.409 . S
C547 H539 0.930 . S
C547 C548 1.355 . S
C547 C549 1.415 . S
C548 C547 1.355 . S
C548 C550 1.419 . S
C549 C544 1.425 . S
C549 C546 1.409 . S
C549 C547 1.415 . S
C550 H540 0.930 . S
C550 C548 1.419 . S
C550 C551 1.362 . S
C551 H541 0.930 . S
C551 C544 1.409 . S
C551 C550 1.362 . S
H552 C558 0.930 . S
H553 C561 0.930 . S
H554 C562 0.930 . S
H555 C563 0.930 . S
H556 C566 0.930 . S
H557 C567 0.930 . S
C558 H552 0.930 . S
C558 C559 1.355 . S
C558 C560 1.415 . S
C559 C558 1.355 . S
C559 C561 1.419 . S
C560 C558 1.415 . S
C560 C565 1.425 1_565 S
C560 C567 1.409 . S
C561 H553 0.930 . S
C561 C559 1.419 . S
C561 C562 1.362 1_565 S
C562 H554 0.930 . S
C562 C561 1.362 1_545 S
C562 C565 1.409 . S
C563 H555 0.930 . S
C563 C564 1.355 . S
C563 C565 1.415 . S
C564 C563 1.355 . S
C564 C566 1.419 . S
C565 C560 1.425 1_545 S
C565 C562 1.409 . S
C565 C563 1.415 . S
C566 H556 0.930 . S
C566 C564 1.419 . S
C566 C567 1.362 1_545 S
C567 H557 0.930 . S
C567 C560 1.409 . S
C567 C566 1.362 1_565 S
H568 C574 0.930 . S
H569 C577 0.930 . S
H570 C578 0.930 . S
H571 C579 0.930 . S
H572 C582 0.930 . S
H573 C583 0.930 . S
C574 H568 0.930 . S
C574 C575 1.355 . S
C574 C576 1.415 . S
C575 C574 1.355 . S
C575 C577 1.419 . S
C576 C574 1.415 . S
C576 C581 1.425 1_455 S
C576 C583 1.409 . S
C577 H569 0.930 . S
C577 C575 1.419 . S
C577 C578 1.362 1_455 S
C578 H570 0.930 . S
C578 C577 1.362 1_655 S
C578 C581 1.409 . S
C579 H571 0.930 . S
C579 C580 1.355 . S
C579 C581 1.415 . S
C580 C579 1.355 . S
C580 C582 1.419 . S
C581 C576 1.425 1_655 S
C581 C578 1.409 . S
C581 C579 1.415 . S
C582 H572 0.930 . S
C582 C580 1.419 . S
C582 C583 1.362 1_655 S
C583 H573 0.930 . S
C583 C576 1.409 . S
C583 C582 1.362 1_455 S
H584 C590 0.930 . S
H585 C593 0.930 . S
H586 C594 0.930 . S
H587 C595 0.930 . S
H588 C598 0.930 . S
H589 C599 0.930 . S
C590 H584 0.930 . S
C590 C591 1.355 . S
C590 C592 1.415 . S
C591 C590 1.355 . S
C591 C593 1.419 . S
C592 C590 1.415 . S
C592 C597 1.425 . S
C592 C599 1.409 . S
C593 H585 0.930 . S
C593 C591 1.419 . S
C593 C594 1.362 . S
C594 H586 0.930 . S
C594 C593 1.362 . S
C594 C597 1.409 . S
C595 H587 0.930 . S
C595 C596 1.355 . S
C595 C597 1.415 . S
C596 C595 1.355 . S
C596 C598 1.419 . S
C597 C592 1.425 . S
C597 C594 1.409 . S
C597 C595 1.415 . S
C598 H588 0.930 . S
C598 C596 1.419 . S
C598 C599 1.362 . S
C599 H589 0.930 . S
C599 C592 1.409 . S
C599 C598 1.362 . S
H600 C606 0.930 . S
H601 C609 0.930 . S
H602 C610 0.930 . S
H603 C611 0.930 . S
H604 C614 0.930 . S
H605 C615 0.930 . S
C606 H600 0.930 . S
C606 C607 1.355 . S
C606 C608 1.415 . S
C607 C606 1.355 . S
C607 C609 1.419 . S
C608 C606 1.415 . S
C608 C613 1.425 . S
C608 C615 1.409 . S
C609 H601 0.930 . S
C609 C607 1.419 . S
C609 C610 1.362 . S
C610 H602 0.930 . S
C610 C609 1.362 . S
C610 C613 1.409 . S
C611 H603 0.930 . S
C611 C612 1.355 . S
C611 C613 1.415 . S
C612 C611 1.355 . S
C612 C614 1.419 . S
C613 C608 1.425 . S
C613 C610 1.409 . S
C613 C611 1.415 . S
C614 H604 0.930 . S
C614 C612 1.419 . S
C614 C615 1.362 . S
C615 H605 0.930 . S
C615 C608 1.409 . S
C615 C614 1.362 . S
H616 C622 0.930 . S
H617 C625 0.930 . S
H618 C626 0.930 . S
H619 C627 0.930 . S
H620 C630 0.930 . S
H621 C631 0.930 . S
C622 H616 0.930 . S
C622 C623 1.355 . S
C622 C624 1.415 . S
C623 C622 1.355 . S
C623 C625 1.419 . S
C624 C622 1.415 . S
C624 C629 1.425 . S
C624 C631 1.409 . S
C625 H617 0.930 . S
C625 C623 1.419 . S
C625 C626 1.362 . S
C626 H618 0.930 . S
C626 C625 1.362 . S
C626 C629 1.409 . S
C627 H619 0.930 . S
C627 C628 1.355 . S
C627 C629 1.415 . S
C628 C627 1.355 . S
C628 C630 1.419 . S
C629 C624 1.425 . S
C629 C626 1.409 . S
C629 C627 1.415 . S
C630 H620 0.930 . S
C630 C628 1.419 . S
C630 C631 1.362 . S
C631 H621 0.930 . S
C631 C624 1.409 . S
C631 C630 1.362 . S
H632 C638 0.930 . S
H633 C641 0.930 . S
H634 C642 0.930 . S
H635 C643 0.930 . S
H636 C646 0.930 . S
H637 C647 0.930 . S
C638 H632 0.930 . S
C638 C639 1.355 . S
C638 C640 1.415 . S
C639 C638 1.355 . S
C639 C641 1.419 . S
C640 C638 1.415 . S
C640 C645 1.425 . S
C640 C647 1.409 . S
C641 H633 0.930 . S
C641 C639 1.419 . S
C641 C642 1.362 . S
C642 H634 0.930 . S
C642 C641 1.362 . S
C642 C645 1.409 . S
C643 H635 0.930 . S
C643 C644 1.355 . S
C643 C645 1.415 . S
C644 C643 1.355 . S
C644 C646 1.419 . S
C645 C640 1.425 . S
C645 C642 1.409 . S
C645 C643 1.415 . S
C646 H636 0.930 . S
C646 C644 1.419 . S
C646 C647 1.362 . S
C647 H637 0.930 . S
C647 C640 1.409 . S
C647 C646 1.362 . S
H648 C654 0.930 . S
H649 C657 0.930 . S
H650 C658 0.930 . S
H651 C659 0.930 . S
H652 C662 0.930 . S
H653 C663 0.930 . S
C654 H648 0.930 . S
C654 C655 1.355 . S
C654 C656 1.415 . S
C655 C654 1.355 . S
C655 C657 1.419 . S
C656 C654 1.415 . S
C656 C661 1.425 . S
C656 C663 1.409 . S
C657 H649 0.930 . S
C657 C655 1.419 . S
C657 C658 1.362 . S
C658 H650 0.930 . S
C658 C657 1.362 . S
C658 C661 1.409 . S
C659 H651 0.930 . S
C659 C660 1.355 . S
C659 C661 1.415 . S
C660 C659 1.355 . S
C660 C662 1.419 . S
C661 C656 1.425 . S
C661 C658 1.409 . S
C661 C659 1.415 . S
C662 H652 0.930 . S
C662 C660 1.419 . S
C662 C663 1.362 . S
C663 H653 0.930 . S
C663 C656 1.409 . S
C663 C662 1.362 . S
H664 C670 0.930 . S
H665 C673 0.930 . S
H666 C674 0.930 . S
H667 C675 0.930 . S
H668 C678 0.930 . S
H669 C679 0.930 . S
C670 H664 0.930 . S
C670 C671 1.355 . S
C670 C672 1.415 . S
C671 C670 1.355 . S
C671 C673 1.419 . S
C672 C670 1.415 . S
C672 C677 1.425 . S
C672 C679 1.409 . S
C673 H665 0.930 . S
C673 C671 1.419 . S
C673 C674 1.362 . S
C674 H666 0.930 . S
C674 C673 1.362 . S
C674 C677 1.409 . S
C675 H667 0.930 . S
C675 C676 1.355 . S
C675 C677 1.415 . S
C676 C675 1.355 . S
C676 C678 1.419 . S
C677 C672 1.425 . S
C677 C674 1.409 . S
C677 C675 1.415 . S
C678 H668 0.930 . S
C678 C676 1.419 . S
C678 C679 1.362 . S
C679 H669 0.930 . S
C679 C672 1.409 . S
C679 C678 1.362 . S
H680 C686 0.930 . S
H681 C689 0.930 . S
H682 C690 0.930 . S
H683 C691 0.930 . S
H684 C694 0.930 . S
H685 C695 0.930 . S
C686 H680 0.930 . S
C686 C687 1.355 . S
C686 C688 1.415 . S
C687 C686 1.355 . S
C687 C689 1.419 . S
C688 C686 1.415 . S
C688 C693 1.425 . S
C688 C695 1.409 . S
C689 H681 0.930 . S
C689 C687 1.419 . S
C689 C690 1.362 . S
C690 H682 0.930 . S
C690 C689 1.362 . S
C690 C693 1.409 . S
C691 H683 0.930 . S
C691 C692 1.355 . S
C691 C693 1.415 . S
C692 C691 1.355 . S
C692 C694 1.419 . S
C693 C688 1.425 . S
C693 C690 1.409 . S
C693 C691 1.415 . S
C694 H684 0.930 . S
C694 C692 1.419 . S
C694 C695 1.362 . S
C695 H685 0.930 . S
C695 C688 1.409 . S
C695 C694 1.362 . S
H696 C702 0.930 . S
H697 C705 0.930 . S
H698 C706 0.930 . S
H699 C707 0.930 . S
H700 C710 0.930 . S
H701 C711 0.930 . S
C702 H696 0.930 . S
C702 C703 1.355 . S
C702 C704 1.415 . S
C703 C702 1.355 . S
C703 C705 1.419 . S
C704 C702 1.415 . S
C704 C709 1.425 . S
C704 C711 1.409 . S
C705 H697 0.930 . S
C705 C703 1.419 . S
C705 C706 1.362 . S
C706 H698 0.930 . S
C706 C705 1.362 . S
C706 C709 1.409 . S
C707 H699 0.930 . S
C707 C708 1.355 . S
C707 C709 1.415 . S
C708 C707 1.355 . S
C708 C710 1.419 . S
C709 C704 1.425 . S
C709 C706 1.409 . S
C709 C707 1.415 . S
C710 H700 0.930 . S
C710 C708 1.419 . S
C710 C711 1.362 . S
C711 H701 0.930 . S
C711 C704 1.409 . S
C711 C710 1.362 . S
H712 C718 0.930 . S
H713 C721 0.930 . S
H714 C722 0.930 . S
H715 C723 0.930 . S
H716 C726 0.930 . S
H717 C727 0.930 . S
C718 H712 0.930 . S
C718 C719 1.355 . S
C718 C720 1.415 . S
C719 C718 1.355 . S
C719 C721 1.419 . S
C720 C718 1.415 . S
C720 C725 1.425 . S
C720 C727 1.409 . S
C721 H713 0.930 . S
C721 C719 1.419 . S
C721 C722 1.362 . S
C722 H714 0.930 . S
C722 C721 1.362 . S
C722 C725 1.409 . S
C723 H715 0.930 . S
C723 C724 1.355 . S
C723 C725 1.415 . S
C724 C723 1.355 . S
C724 C726 1.419 . S
C725 C720 1.425 . S
C725 C722 1.409 . S
C725 C723 1.415 . S
C726 H716 0.930 . S
C726 C724 1.419 . S
C726 C727 1.362 . S
C727 H717 0.930 . S
C727 C720 1.409 . S
C727 C726 1.362 . S
H728 C734 0.930 . S
H729 C737 0.930 . S
H730 C738 0.930 . S
H731 C739 0.930 . S
H732 C742 0.930 . S
H733 C743 0.930 . S
C734 H728 0.930 . S
C734 C735 1.355 . S
C734 C736 1.415 . S
C735 C734 1.355 . S
C735 C737 1.419 . S
C736 C734 1.415 . S
C736 C741 1.425 . S
C736 C743 1.409 . S
C737 H729 0.930 . S
C737 C735 1.419 . S
C737 C738 1.362 . S
C738 H730 0.930 . S
C738 C737 1.362 . S
C738 C741 1.409 . S
C739 H731 0.930 . S
C739 C740 1.355 . S
C739 C741 1.415 . S
C740 C739 1.355 . S
C740 C742 1.419 . S
C741 C736 1.425 . S
C741 C738 1.409 . S
C741 C739 1.415 . S
C742 H732 0.930 . S
C742 C740 1.419 . S
C742 C743 1.362 . S
C743 H733 0.930 . S
C743 C736 1.409 . S
C743 C742 1.362 . S
H744 C750 0.930 . S
H745 C753 0.930 . S
H746 C754 0.930 . S
H747 C755 0.930 . S
H748 C758 0.930 . S
H749 C759 0.930 . S
C750 H744 0.930 . S
C750 C751 1.355 . S
C750 C752 1.415 . S
C751 C750 1.355 . S
C751 C753 1.419 . S
C752 C750 1.415 . S
C752 C757 1.425 . S
C752 C759 1.409 . S
C753 H745 0.930 . S
C753 C751 1.419 . S
C753 C754 1.362 . S
C754 H746 0.930 . S
C754 C753 1.362 . S
C754 C757 1.409 . S
C755 H747 0.930 . S
C755 C756 1.355 . S
C755 C757 1.415 . S
C756 C755 1.355 . S
C756 C758 1.419 . S
C757 C752 1.425 . S
C757 C754 1.409 . S
C757 C755 1.415 . S
C758 H748 0.930 . S
C758 C756 1.419 . S
C758 C759 1.362 . S
C759 H749 0.930 . S
C759 C752 1.409 . S
C759 C758 1.362 . S
H760 C766 0.930 . S
H761 C769 0.930 . S
H762 C770 0.930 . S
H763 C771 0.930 . S
H764 C774 0.930 . S
H765 C775 0.930 . S
C766 H760 0.930 . S
C766 C767 1.355 . S
C766 C768 1.415 . S
C767 C766 1.355 . S
C767 C769 1.419 . S
C768 C766 1.415 . S
C768 C773 1.425 . S
C768 C775 1.409 . S
C769 H761 0.930 . S
C769 C767 1.419 . S
C769 C770 1.362 . S
C770 H762 0.930 . S
C770 C769 1.362 . S
C770 C773 1.409 . S
C771 H763 0.930 . S
C771 C772 1.355 . S
C771 C773 1.415 . S
C772 C771 1.355 . S
C772 C774 1.419 . S
C773 C768 1.425 . S
C773 C770 1.409 . S
C773 C771 1.415 . S
C774 H764 0.930 . S
C774 C772 1.419 . S
C774 C775 1.362 . S
C775 H765 0.930 . S
C775 C768 1.409 . S
C775 C774 1.362 . S
H776 C782 0.930 . S
H777 C785 0.930 . S
H778 C786 0.930 . S
H779 C787 0.930 . S
H780 C790 0.930 . S
H781 C791 0.930 . S
C782 H776 0.930 . S
C782 C783 1.355 . S
C782 C784 1.415 . S
C783 C782 1.355 . S
C783 C785 1.419 . S
C784 C782 1.415 . S
C784 C789 1.425 . S
C784 C791 1.409 . S
C785 H777 0.930 . S
C785 C783 1.419 . S
C785 C786 1.362 . S
C786 H778 0.930 . S
C786 C785 1.362 . S
C786 C789 1.409 . S
C787 H779 0.930 . S
C787 C788 1.355 . S
C787 C789 1.415 . S
C788 C787 1.355 . S
C788 C790 1.419 . S
C789 C784 1.425 . S
C789 C786 1.409 . S
C789 C787 1.415 . S
C790 H780 0.930 . S
C790 C788 1.419 . S
C790 C791 1.362 . S
C791 H781 0.930 . S
C791 C784 1.409 . S
C791 C790 1.362 . S
H792 C798 0.930 . S
H793 C801 0.930 . S
H794 C802 0.930 1_554 S
H795 C803 0.930 . S
H796 C806 0.930 . S
H797 C807 0.930 1_556 S
C798 H792 0.930 . S
C798 C799 1.355 . S
C798 C800 1.415 1_565 S
C799 C798 1.355 . S
C799 C801 1.419 . S
C800 C798 1.415 1_545 S
C800 C805 1.425 1_546 S
C800 C807 1.409 1_556 S
C801 H793 0.930 . S
C801 C799 1.419 . S
C801 C802 1.362 . S
C802 H794 0.930 1_556 S
C802 C801 1.362 . S
C802 C805 1.409 1_556 S
C803 H795 0.930 . S
C803 C804 1.355 . S
C803 C805 1.415 1_545 S
C804 C803 1.355 . S
C804 C806 1.419 . S
C805 C800 1.425 1_564 S
C805 C802 1.409 1_554 S
C805 C803 1.415 1_565 S
C806 H796 0.930 . S
C806 C804 1.419 . S
C806 C807 1.362 . S
C807 H797 0.930 1_554 S
C807 C800 1.409 1_554 S
C807 C806 1.362 . S
H808 C814 0.930 . S
H809 C817 0.930 . S
H810 C818 0.930 1_556 S
H811 C819 0.930 . S
H812 C822 0.930 . S
H813 C823 0.930 1_554 S
C814 H808 0.930 . S
C814 C815 1.355 . S
C814 C816 1.415 1_655 S
C815 C814 1.355 . S
C815 C817 1.419 . S
C816 C814 1.415 1_455 S
C816 C821 1.425 1_454 S
C816 C823 1.409 1_554 S
C817 H809 0.930 . S
C817 C815 1.419 . S
C817 C818 1.362 . S
C818 H810 0.930 1_554 S
C818 C817 1.362 . S
C818 C821 1.409 1_554 S
C819 H811 0.930 . S
C819 C820 1.355 . S
C819 C821 1.415 1_455 S
C820 C819 1.355 . S
C820 C822 1.419 . S
C821 C816 1.425 1_656 S
C821 C818 1.409 1_556 S
C821 C819 1.415 1_655 S
C822 H812 0.930 . S
C822 C820 1.419 . S
C822 C823 1.362 . S
C823 H813 0.930 1_556 S
C823 C816 1.409 1_556 S
C823 C822 1.362 . S
H824 C830 0.930 . S
H825 C833 0.930 . S
H826 C834 0.930 . S
H827 C835 0.930 . S
H828 C838 0.930 . S
H829 C839 0.930 . S
C830 H824 0.930 . S
C830 C831 1.355 . S
C830 C832 1.415 . S
C831 C830 1.355 . S
C831 C833 1.419 . S
C832 C830 1.415 . S
C832 C837 1.425 1_556 S
C832 C839 1.409 1_556 S
C833 H825 0.930 . S
C833 C831 1.419 . S
C833 C834 1.362 . S
C834 H826 0.930 . S
C834 C833 1.362 . S
C834 C837 1.409 1_556 S
C835 H827 0.930 . S
C835 C836 1.355 . S
C835 C837 1.415 . S
C836 C835 1.355 . S
C836 C838 1.419 . S
C837 C832 1.425 1_554 S
C837 C834 1.409 1_554 S
C837 C835 1.415 . S
C838 H828 0.930 . S
C838 C836 1.419 . S
C838 C839 1.362 . S
C839 H829 0.930 . S
C839 C832 1.409 1_554 S
C839 C838 1.362 . S
H840 C846 0.930 . S
H841 C849 0.911 1_545 S
H842 C850 0.930 . S
H843 C851 0.930 . S
H844 C854 0.911 1_565 S
H845 C855 0.930 . S
C846 H840 0.930 . S
C846 C847 1.355 . S
C846 C848 1.415 1_556 S
C847 C846 1.355 . S
C847 C849 1.490 . S
C848 C846 1.415 1_554 S
C848 C853 1.425 1_564 S
C848 C855 1.409 . S
C849 H841 0.911 1_565 S
C849 C847 1.490 . S
C849 C850 1.315 1_565 S
C850 H842 0.930 . S
C850 C849 1.315 1_545 S
C850 C853 1.409 . S
C851 H843 0.930 . S
C851 C852 1.355 . S
C851 C853 1.415 1_554 S
C852 C851 1.355 . S
C852 C854 1.490 . S
C853 C848 1.425 1_546 S
C853 C850 1.409 . S
C853 C851 1.415 1_556 S
C854 H844 0.911 1_545 S
C854 C852 1.490 . S
C854 C855 1.315 1_545 S
C855 H845 0.930 . S
C855 C848 1.409 . S
C855 C854 1.315 1_565 S
H856 C862 0.930 . S
H857 C865 0.930 . S
H858 C866 0.930 . S
H859 C867 0.930 . S
H860 C870 0.930 . S
H861 C871 0.930 . S
C862 H856 0.930 . S
C862 C863 1.355 . S
C862 C864 1.415 1_455 S
C863 C862 1.355 . S
C863 C865 1.419 . S
C864 C862 1.415 1_655 S
C864 C869 1.425 1_656 S
C864 C871 1.409 . S
C865 H857 0.930 . S
C865 C863 1.419 . S
C865 C866 1.362 1_556 S
C866 H858 0.930 . S
C866 C865 1.362 1_554 S
C866 C869 1.409 . S
C867 H859 0.930 . S
C867 C868 1.355 . S
C867 C869 1.415 1_655 S
C868 C867 1.355 . S
C868 C870 1.419 . S
C869 C864 1.425 1_454 S
C869 C866 1.409 . S
C869 C867 1.415 1_455 S
C870 H860 0.930 . S
C870 C868 1.419 . S
C870 C871 1.362 1_554 S
C871 H861 0.930 . S
C871 C864 1.409 . S
C871 C870 1.362 1_556 S
H872 C878 0.930 . S
H873 C881 0.930 . S
H874 C882 0.930 . S
H875 C883 0.930 . S
H876 C886 0.930 . S
H877 C887 0.930 . S
C878 H872 0.930 . S
C878 C879 1.355 . S
C878 C880 1.415 . S
C879 C878 1.355 . S
C879 C881 1.419 . S
C880 C878 1.415 . S
C880 C885 1.425 1_554 S
C880 C887 1.409 . S
C881 H873 0.930 . S
C881 C879 1.419 . S
C881 C882 1.362 1_554 S
C882 H874 0.930 . S
C882 C881 1.362 1_556 S
C882 C885 1.409 . S
C883 H875 0.930 . S
C883 C884 1.355 . S
C883 C885 1.415 . S
C884 C883 1.355 . S
C884 C886 1.419 . S
C885 C880 1.425 1_556 S
C885 C882 1.409 . S
C885 C883 1.415 . S
C886 H876 0.930 . S
C886 C884 1.419 . S
C886 C887 1.362 1_556 S
C887 H877 0.930 . S
C887 C880 1.409 . S
C887 C886 1.362 1_554 S
H888 C894 0.930 . S
H889 C897 0.930 . S
H890 C898 0.930 . S
H891 C899 0.930 . S
H892 C902 0.930 . S
H893 C903 0.930 . S
C894 H888 0.930 . S
C894 C895 1.355 . S
C894 C896 1.415 . S
C895 C894 1.355 . S
C895 C897 1.419 . S
C896 C894 1.415 . S
C896 C901 1.425 . S
C896 C903 1.409 . S
C897 H889 0.930 . S
C897 C895 1.419 . S
C897 C898 1.362 . S
C898 H890 0.930 . S
C898 C897 1.362 . S
C898 C901 1.409 . S
C899 H891 0.930 . S
C899 C900 1.355 . S
C899 C901 1.415 . S
C900 C899 1.355 . S
C900 C902 1.419 . S
C901 C896 1.425 . S
C901 C898 1.409 . S
C901 C899 1.415 . S
C902 H892 0.930 . S
C902 C900 1.419 . S
C902 C903 1.362 . S
C903 H893 0.930 . S
C903 C896 1.409 . S
C903 C902 1.362 . S
H904 C910 0.930 . S
H905 C913 0.930 . S
H906 C914 0.930 . S
H907 C915 0.930 . S
H908 C918 0.930 . S
H909 C919 0.930 . S
C910 H904 0.930 . S
C910 C911 1.355 . S
C910 C912 1.415 . S
C911 C910 1.355 . S
C911 C913 1.419 . S
C912 C910 1.415 . S
C912 C917 1.425 . S
C912 C919 1.409 . S
C913 H905 0.930 . S
C913 C911 1.419 . S
C913 C914 1.362 . S
C914 H906 0.930 . S
C914 C913 1.362 . S
C914 C917 1.409 . S
C915 H907 0.930 . S
C915 C916 1.355 . S
C915 C917 1.415 . S
C916 C915 1.355 . S
C916 C918 1.419 . S
C917 C912 1.425 . S
C917 C914 1.409 . S
C917 C915 1.415 . S
C918 H908 0.930 . S
C918 C916 1.419 . S
C918 C919 1.362 . S
C919 H909 0.930 . S
C919 C912 1.409 . S
C919 C918 1.362 . S
H920 C926 0.930 . S
H921 C929 0.930 . S
H922 C930 0.930 . S
H923 C931 0.930 . S
H924 C934 0.930 . S
H925 C935 0.930 . S
C926 H920 0.930 . S
C926 C927 1.355 . S
C926 C928 1.415 . S
C927 C926 1.355 . S
C927 C929 1.419 . S
C928 C926 1.415 . S
C928 C933 1.425 . S
C928 C935 1.409 . S
C929 H921 0.930 . S
C929 C927 1.419 . S
C929 C930 1.362 . S
C930 H922 0.930 . S
C930 C929 1.362 . S
C930 C933 1.409 . S
C931 H923 0.930 . S
C931 C932 1.355 . S
C931 C933 1.415 . S
C932 C931 1.355 . S
C932 C934 1.419 . S
C933 C928 1.425 . S
C933 C930 1.409 . S
C933 C931 1.415 . S
C934 H924 0.930 . S
C934 C932 1.419 . S
C934 C935 1.362 . S
C935 H925 0.930 . S
C935 C928 1.409 . S
C935 C934 1.362 . S
H936 C942 0.930 . S
H937 C945 0.930 . S
H938 C946 0.930 . S
H939 C947 0.930 . S
H940 C950 0.930 . S
H941 C951 0.930 . S
C942 H936 0.930 . S
C942 C943 1.355 . S
C942 C944 1.415 . S
C943 C942 1.355 . S
C943 C945 1.419 . S
C944 C942 1.415 . S
C944 C949 1.425 . S
C944 C951 1.409 . S
C945 H937 0.930 . S
C945 C943 1.419 . S
C945 C946 1.362 . S
C946 H938 0.930 . S
C946 C945 1.362 . S
C946 C949 1.409 . S
C947 H939 0.930 . S
C947 C948 1.355 . S
C947 C949 1.415 . S
C948 C947 1.355 . S
C948 C950 1.419 . S
C949 C944 1.425 . S
C949 C946 1.409 . S
C949 C947 1.415 . S
C950 H940 0.930 . S
C950 C948 1.419 . S
C950 C951 1.362 . S
C951 H941 0.930 . S
C951 C944 1.409 . S
C951 C950 1.362 . S
H952 C958 0.930 . S
H953 C961 0.930 . S
H954 C962 0.930 . S
H955 C963 0.930 . S
H956 C966 0.930 . S
H957 C967 0.930 . S
C958 H952 0.930 . S
C958 C959 1.355 . S
C958 C960 1.415 . S
C959 C958 1.355 . S
C959 C961 1.419 . S
C960 C958 1.415 . S
C960 C965 1.425 . S
C960 C967 1.409 . S
C961 H953 0.930 . S
C961 C959 1.419 . S
C961 C962 1.362 . S
C962 H954 0.930 . S
C962 C961 1.362 . S
C962 C965 1.409 . S
C963 H955 0.930 . S
C963 C964 1.355 . S
C963 C965 1.415 . S
C964 C963 1.355 . S
C964 C966 1.419 . S
C965 C960 1.425 . S
C965 C962 1.409 . S
C965 C963 1.415 . S
C966 H956 0.930 . S
C966 C964 1.419 . S
C966 C967 1.362 . S
C967 H957 0.930 . S
C967 C960 1.409 . S
C967 C966 1.362 . S
H968 C974 0.930 . S
H969 C977 0.930 . S
H970 C978 0.930 . S
H971 C979 0.930 . S
H972 C982 0.930 . S
H973 C983 0.930 . S
C974 H968 0.930 . S
C974 C975 1.355 . S
C974 C976 1.415 . S
C975 C974 1.355 . S
C975 C977 1.419 . S
C976 C974 1.415 . S
C976 C981 1.425 . S
C976 C983 1.409 . S
C977 H969 0.930 . S
C977 C975 1.419 . S
C977 C978 1.362 . S
C978 H970 0.930 . S
C978 C977 1.362 . S
C978 C981 1.409 . S
C979 H971 0.930 . S
C979 C980 1.355 . S
C979 C981 1.415 . S
C980 C979 1.355 . S
C980 C982 1.419 . S
C981 C976 1.425 . S
C981 C978 1.409 . S
C981 C979 1.415 . S
C982 H972 0.930 . S
C982 C980 1.419 . S
C982 C983 1.362 . S
C983 H973 0.930 . S
C983 C976 1.409 . S
C983 C982 1.362 . S
H984 C990 0.930 . S
H985 C993 0.930 . S
H986 C994 0.930 . S
H987 C995 0.930 . S
H988 C998 0.930 . S
H989 C999 0.930 . S
C990 H984 0.930 . S
C990 C991 1.355 . S
C990 C992 1.415 . S
C991 C990 1.355 . S
C991 C993 1.419 . S
C992 C990 1.415 . S
C992 C997 1.425 . S
C992 C999 1.409 . S
C993 H985 0.930 . S
C993 C991 1.419 . S
C993 C994 1.362 . S
C994 H986 0.930 . S
C994 C993 1.362 . S
C994 C997 1.409 . S
C995 H987 0.930 . S
C995 C996 1.355 . S
C995 C997 1.415 . S
C996 C995 1.355 . S
C996 C998 1.419 . S
C997 C992 1.425 . S
C997 C994 1.409 . S
C997 C995 1.415 . S
C998 H988 0.930 . S
C998 C996 1.419 . S
C998 C999 1.362 . S
C999 H989 0.930 . S
C999 C992 1.409 . S
C999 C998 1.362 . S
H1000 C1006 0.930 . S
H1001 C1009 0.930 . S
H1002 C1010 0.930 . S
H1003 C1011 0.930 . S
H1004 C1014 0.930 . S
H1005 C1015 0.930 . S
C1006 H1000 0.930 . S
C1006 C1007 1.355 . S
C1006 C1008 1.415 . S
C1007 C1006 1.355 . S
C1007 C1009 1.419 . S
C1008 C1006 1.415 . S
C1008 C1013 1.425 . S
C1008 C1015 1.409 . S
C1009 H1001 0.930 . S
C1009 C1007 1.419 . S
C1009 C1010 1.362 . S
C1010 H1002 0.930 . S
C1010 C1009 1.362 . S
C1010 C1013 1.409 . S
C1011 H1003 0.930 . S
C1011 C1012 1.355 . S
C1011 C1013 1.415 . S
C1012 C1011 1.355 . S
C1012 C1014 1.419 . S
C1013 C1008 1.425 . S
C1013 C1010 1.409 . S
C1013 C1011 1.415 . S
C1014 H1004 0.930 . S
C1014 C1012 1.419 . S
C1014 C1015 1.362 . S
C1015 H1005 0.930 . S
C1015 C1008 1.409 . S
C1015 C1014 1.362 . S
H1016 C1022 0.930 . S
H1017 C1025 0.930 . S
H1018 C1026 0.930 . S
H1019 C1027 0.930 . S
H1020 C1030 0.930 . S
H1021 C1031 0.930 . S
C1022 H1016 0.930 . S
C1022 C1023 1.355 . S
C1022 C1024 1.415 . S
C1023 C1022 1.355 . S
C1023 C1025 1.419 . S
C1024 C1022 1.415 . S
C1024 C1029 1.425 . S
C1024 C1031 1.409 . S
C1025 H1017 0.930 . S
C1025 C1023 1.419 . S
C1025 C1026 1.362 . S
C1026 H1018 0.930 . S
C1026 C1025 1.362 . S
C1026 C1029 1.409 . S
C1027 H1019 0.930 . S
C1027 C1028 1.355 . S
C1027 C1029 1.415 . S
C1028 C1027 1.355 . S
C1028 C1030 1.419 . S
C1029 C1024 1.425 . S
C1029 C1026 1.409 . S
C1029 C1027 1.415 . S
C1030 H1020 0.930 . S
C1030 C1028 1.419 . S
C1030 C1031 1.362 . S
C1031 H1021 0.930 . S
C1031 C1024 1.409 . S
C1031 C1030 1.362 . S
H1032 C1038 0.930 . S
H1033 C1041 0.930 . S
H1034 C1042 0.930 . S
H1035 C1043 0.930 . S
H1036 C1046 0.930 . S
H1037 C1047 0.930 . S
C1038 H1032 0.930 . S
C1038 C1039 1.355 . S
C1038 C1040 1.415 . S
C1039 C1038 1.355 . S
C1039 C1041 1.419 . S
C1040 C1038 1.415 . S
C1040 C1045 1.425 . S
C1040 C1047 1.409 . S
C1041 H1033 0.930 . S
C1041 C1039 1.419 . S
C1041 C1042 1.362 . S
C1042 H1034 0.930 . S
C1042 C1041 1.362 . S
C1042 C1045 1.409 . S
C1043 H1035 0.930 . S
C1043 C1044 1.355 . S
C1043 C1045 1.415 . S
C1044 C1043 1.355 . S
C1044 C1046 1.419 . S
C1045 C1040 1.425 . S
C1045 C1042 1.409 . S
C1045 C1043 1.415 . S
C1046 H1036 0.930 . S
C1046 C1044 1.419 . S
C1046 C1047 1.362 . S
C1047 H1037 0.930 . S
C1047 C1040 1.409 . S
C1047 C1046 1.362 . S
H1048 C1054 0.930 . S
H1049 C1057 0.930 . S
H1050 C1058 0.930 . S
H1051 C1059 0.930 . S
H1052 C1062 0.930 . S
H1053 C1063 0.930 . S
C1054 H1048 0.930 . S
C1054 C1055 1.355 . S
C1054 C1056 1.415 . S
C1055 C1054 1.355 . S
C1055 C1057 1.419 . S
C1056 C1054 1.415 . S
C1056 C1061 1.425 . S
C1056 C1063 1.409 . S
C1057 H1049 0.930 . S
C1057 C1055 1.419 . S
C1057 C1058 1.362 . S
C1058 H1050 0.930 . S
C1058 C1057 1.362 . S
C1058 C1061 1.409 . S
C1059 H1051 0.930 . S
C1059 C1060 1.355 . S
C1059 C1061 1.415 . S
C1060 C1059 1.355 . S
C1060 C1062 1.419 . S
C1061 C1056 1.425 . S
C1061 C1058 1.409 . S
C1061 C1059 1.415 . S
C1062 H1052 0.930 . S
C1062 C1060 1.419 . S
C1062 C1063 1.362 . S
C1063 H1053 0.930 . S
C1063 C1056 1.409 . S
C1063 C1062 1.362 . S
H1064 C1070 0.930 . S
H1065 C1073 0.930 . S
H1066 C1074 0.930 . S
H1067 C1075 0.930 . S
H1068 C1078 0.930 . S
H1069 C1079 0.930 . S
C1070 H1064 0.930 . S
C1070 C1071 1.355 . S
C1070 C1072 1.415 . S
C1071 C1070 1.355 . S
C1071 C1073 1.419 . S
C1072 C1070 1.415 . S
C1072 C1077 1.425 . S
C1072 C1079 1.409 . S
C1073 H1065 0.930 . S
C1073 C1071 1.419 . S
C1073 C1074 1.362 . S
C1074 H1066 0.930 . S
C1074 C1073 1.362 . S
C1074 C1077 1.409 . S
C1075 H1067 0.930 . S
C1075 C1076 1.355 . S
C1075 C1077 1.415 . S
C1076 C1075 1.355 . S
C1076 C1078 1.419 . S
C1077 C1072 1.425 . S
C1077 C1074 1.409 . S
C1077 C1075 1.415 . S
C1078 H1068 0.930 . S
C1078 C1076 1.419 . S
C1078 C1079 1.362 . S
C1079 H1069 0.930 . S
C1079 C1072 1.409 . S
C1079 C1078 1.362 . S
H1080 C1086 0.930 . S
H1081 C1089 0.930 . S
H1082 C1090 0.930 . S
H1083 C1091 0.930 . S
H1084 C1094 0.930 . S
H1085 C1095 0.930 . S
C1086 H1080 0.930 . S
C1086 C1087 1.355 . S
C1086 C1088 1.415 . S
C1087 C1086 1.355 . S
C1087 C1089 1.419 . S
C1088 C1086 1.415 . S
C1088 C1093 1.425 . S
C1088 C1095 1.409 . S
C1089 H1081 0.930 . S
C1089 C1087 1.419 . S
C1089 C1090 1.362 . S
C1090 H1082 0.930 . S
C1090 C1089 1.362 . S
C1090 C1093 1.409 . S
C1091 H1083 0.930 . S
C1091 C1092 1.355 . S
C1091 C1093 1.415 . S
C1092 C1091 1.355 . S
C1092 C1094 1.419 . S
C1093 C1088 1.425 . S
C1093 C1090 1.409 . S
C1093 C1091 1.415 . S
C1094 H1084 0.930 . S
C1094 C1092 1.419 . S
C1094 C1095 1.362 . S
C1095 H1085 0.930 . S
C1095 C1088 1.409 . S
C1095 C1094 1.362 . S
H1096 C1102 0.930 . S
H1097 C1105 0.930 . S
H1098 C1106 0.930 . S
H1099 C1107 0.930 . S
H1100 C1110 0.930 . S
H1101 C1111 0.930 . S
C1102 H1096 0.930 . S
C1102 C1103 1.355 . S
C1102 C1104 1.415 . S
C1103 C1102 1.355 . S
C1103 C1105 1.419 . S
C1104 C1102 1.415 . S
C1104 C1109 1.425 . S
C1104 C1111 1.409 . S
C1105 H1097 0.930 . S
C1105 C1103 1.419 . S
C1105 C1106 1.362 . S
C1106 H1098 0.930 . S
C1106 C1105 1.362 . S
C1106 C1109 1.409 . S
C1107 H1099 0.930 . S
C1107 C1108 1.355 . S
C1107 C1109 1.415 . S
C1108 C1107 1.355 . S
C1108 C1110 1.419 . S
C1109 C1104 1.425 . S
C1109 C1106 1.409 . S
C1109 C1107 1.415 . S
C1110 H1100 0.930 . S
C1110 C1108 1.419 . S
C1110 C1111 1.362 . S
C1111 H1101 0.930 . S
C1111 C1104 1.409 . S
C1111 C1110 1.362 . S
H1112 C1118 0.930 . S
H1113 C1121 0.930 . S
H1114 C1122 0.930 . S
H1115 C1123 0.930 . S
H1116 C1126 0.930 . S
H1117 C1127 0.930 . S
C1118 H1112 0.930 . S
C1118 C1119 1.355 . S
C1118 C1120 1.415 . S
C1119 C1118 1.355 . S
C1119 C1121 1.419 . S
C1120 C1118 1.415 . S
C1120 C1125 1.425 . S
C1120 C1127 1.409 . S
C1121 H1113 0.930 . S
C1121 C1119 1.419 . S
C1121 C1122 1.362 . S
C1122 H1114 0.930 . S
C1122 C1121 1.362 . S
C1122 C1125 1.409 . S
C1123 H1115 0.930 . S
C1123 C1124 1.355 . S
C1123 C1125 1.415 . S
C1124 C1123 1.355 . S
C1124 C1126 1.419 . S
C1125 C1120 1.425 . S
C1125 C1122 1.409 . S
C1125 C1123 1.415 . S
C1126 H1116 0.930 . S
C1126 C1124 1.419 . S
C1126 C1127 1.362 . S
C1127 H1117 0.930 . S
C1127 C1120 1.409 . S
C1127 C1126 1.362 . S
H1128 C1134 0.930 . S
H1129 C1137 0.930 . S
H1130 C1138 0.930 . S
H1131 C1139 0.930 . S
H1132 C1142 0.930 . S
H1133 C1143 0.930 . S
C1134 H1128 0.930 . S
C1134 C1135 1.355 . S
C1134 C1136 1.415 . S
C1135 C1134 1.355 . S
C1135 C1137 1.419 . S
C1136 C1134 1.415 . S
C1136 C1141 1.425 . S
C1136 C1143 1.409 . S
C1137 H1129 0.930 . S
C1137 C1135 1.419 . S
C1137 C1138 1.362 . S
C1138 H1130 0.930 . S
C1138 C1137 1.362 . S
C1138 C1141 1.409 . S
C1139 H1131 0.930 . S
C1139 C1140 1.355 . S
C1139 C1141 1.415 . S
C1140 C1139 1.355 . S
C1140 C1142 1.419 . S
C1141 C1136 1.425 . S
C1141 C1138 1.409 . S
C1141 C1139 1.415 . S
C1142 H1132 0.930 . S
C1142 C1140 1.419 . S
C1142 C1143 1.362 . S
C1143 H1133 0.930 . S
C1143 C1136 1.409 . S
C1143 C1142 1.362 . S
H1144 C1150 0.930 . S
H1145 C1153 0.930 . S
H1146 C1154 0.930 . S
H1147 C1155 0.930 . S
H1148 C1158 0.930 . S
H1149 C1159 0.930 . S
C1150 H1144 0.930 . S
C1150 C1151 1.355 . S
C1150 C1152 1.415 . S
C1151 C1150 1.355 . S
C1151 C1153 1.419 . S
C1152 C1150 1.415 . S
C1152 C1157 1.425 . S
C1152 C1159 1.409 . S
C1153 H1145 0.930 . S
C1153 C1151 1.419 . S
C1153 C1154 1.362 . S
C1154 H1146 0.930 . S
C1154 C1153 1.362 . S
C1154 C1157 1.409 . S
C1155 H1147 0.930 . S
C1155 C1156 1.355 . S
C1155 C1157 1.415 . S
C1156 C1155 1.355 . S
C1156 C1158 1.419 . S
C1157 C1152 1.425 . S
C1157 C1154 1.409 . S
C1157 C1155 1.415 . S
C1158 H1148 0.930 . S
C1158 C1156 1.419 . S
C1158 C1159 1.362 . S
C1159 H1149 0.930 . S
C1159 C1152 1.409 . S
C1159 C1158 1.362 . S
H1160 C1166 0.930 . S
H1161 C1169 0.930 . S
H1162 C1170 0.930 . S
H1163 C1171 0.930 . S
H1164 C1174 0.930 . S
H1165 C1175 0.930 . S
C1166 H1160 0.930 . S
C1166 C1167 1.355 . S
C1166 C1168 1.415 . S
C1167 C1166 1.355 . S
C1167 C1169 1.419 . S
C1168 C1166 1.415 . S
C1168 C1173 1.425 . S
C1168 C1175 1.409 . S
C1169 H1161 0.930 . S
C1169 C1167 1.419 . S
C1169 C1170 1.362 . S
C1170 H1162 0.930 . S
C1170 C1169 1.362 . S
C1170 C1173 1.409 . S
C1171 H1163 0.930 . S
C1171 C1172 1.355 . S
C1171 C1173 1.415 . S
C1172 C1171 1.355 . S
C1172 C1174 1.419 . S
C1173 C1168 1.425 . S
C1173 C1170 1.409 . S
C1173 C1171 1.415 . S
C1174 H1164 0.930 . S
C1174 C1172 1.419 . S
C1174 C1175 1.362 . S
C1175 H1165 0.930 . S
C1175 C1168 1.409 . S
C1175 C1174 1.362 . S
H1176 C1182 0.930 . S
H1177 C1185 0.930 . S
H1178 C1186 0.930 . S
H1179 C1187 0.930 . S
H1180 C1190 0.930 . S
H1181 C1191 0.930 . S
C1182 H1176 0.930 . S
C1182 C1183 1.355 . S
C1182 C1184 1.415 . S
C1183 C1182 1.355 . S
C1183 C1185 1.419 . S
C1184 C1182 1.415 . S
C1184 C1189 1.425 . S
C1184 C1191 1.409 . S
C1185 H1177 0.930 . S
C1185 C1183 1.419 . S
C1185 C1186 1.362 . S
C1186 H1178 0.930 . S
C1186 C1185 1.362 . S
C1186 C1189 1.409 . S
C1187 H1179 0.930 . S
C1187 C1188 1.355 . S
C1187 C1189 1.415 . S
C1188 C1187 1.355 . S
C1188 C1190 1.419 . S
C1189 C1184 1.425 . S
C1189 C1186 1.409 . S
C1189 C1187 1.415 . S
C1190 H1180 0.930 . S
C1190 C1188 1.419 . S
C1190 C1191 1.362 . S
C1191 H1181 0.930 . S
C1191 C1184 1.409 . S
C1191 C1190 1.362 . S
H1192 C1198 0.930 . S
H1193 C1201 0.930 . S
H1194 C1202 0.930 . S
H1195 C1203 0.930 . S
H1196 C1206 0.930 . S
H1197 C1207 0.930 . S
C1198 H1192 0.930 . S
C1198 C1199 1.355 . S
C1198 C1200 1.415 . S
C1199 C1198 1.355 . S
C1199 C1201 1.419 . S
C1200 C1198 1.415 . S
C1200 C1205 1.425 . S
C1200 C1207 1.409 . S
C1201 H1193 0.930 . S
C1201 C1199 1.419 . S
C1201 C1202 1.362 . S
C1202 H1194 0.930 . S
C1202 C1201 1.362 . S
C1202 C1205 1.409 . S
C1203 H1195 0.930 . S
C1203 C1204 1.355 . S
C1203 C1205 1.415 . S
C1204 C1203 1.355 . S
C1204 C1206 1.419 . S
C1205 C1200 1.425 . S
C1205 C1202 1.409 . S
C1205 C1203 1.415 . S
C1206 H1196 0.930 . S
C1206 C1204 1.419 . S
C1206 C1207 1.362 . S
C1207 H1197 0.930 . S
C1207 C1200 1.409 . S
C1207 C1206 1.362 . S
H1208 C1214 0.930 . S
H1209 C1217 0.930 . S
H1210 C1218 0.930 . S
H1211 C1219 0.930 . S
H1212 C1222 0.930 . S
H1213 C1223 0.930 . S
C1214 H1208 0.930 . S
C1214 C1215 1.355 . S
C1214 C1216 1.415 . S
C1215 C1214 1.355 . S
C1215 C1217 1.419 . S
C1216 C1214 1.415 . S
C1216 C1221 1.425 . S
C1216 C1223 1.409 . S
C1217 H1209 0.930 . S
C1217 C1215 1.419 . S
C1217 C1218 1.362 . S
C1218 H1210 0.930 . S
C1218 C1217 1.362 . S
C1218 C1221 1.409 . S
C1219 H1211 0.930 . S
C1219 C1220 1.355 . S
C1219 C1221 1.415 . S
C1220 C1219 1.355 . S
C1220 C1222 1.419 . S
C1221 C1216 1.425 . S
C1221 C1218 1.409 . S
C1221 C1219 1.415 . S
C1222 H1212 0.930 . S
C1222 C1220 1.419 . S
C1222 C1223 1.362 . S
C1223 H1213 0.930 . S
C1223 C1216 1.409 . S
C1223 C1222 1.362 . S
H1224 C1230 0.930 . S
H1225 C1233 0.930 . S
H1226 C1234 0.930 . S
H1227 C1235 0.930 . S
H1228 C1238 0.930 . S
H1229 C1239 0.930 . S
C1230 H1224 0.930 . S
C1230 C1231 1.355 . S
C1230 C1232 1.415 . S
C1231 C1230 1.355 . S
C1231 C1233 1.419 . S
C1232 C1230 1.415 . S
C1232 C1237 1.425 . S
C1232 C1239 1.409 . S
C1233 H1225 0.930 . S
C1233 C1231 1.419 . S
C1233 C1234 1.362 . S
C1234 H1226 0.930 . S
C1234 C1233 1.362 . S
C1234 C1237 1.409 . S
C1235 H1227 0.930 . S
C1235 C1236 1.355 . S
C1235 C1237 1.415 . S
C1236 C1235 1.355 . S
C1236 C1238 1.419 . S
C1237 C1232 1.425 . S
C1237 C1234 1.409 . S
C1237 C1235 1.415 . S
C1238 H1228 0.930 . S
C1238 C1236 1.419 . S
C1238 C1239 1.362 . S
C1239 H1229 0.930 . S
C1239 C1232 1.409 . S
C1239 C1238 1.362 . S
H1240 C1246 0.930 . S
H1241 C1249 0.930 . S
H1242 C1250 0.930 . S
H1243 C1251 0.930 . S
H1244 C1254 0.930 . S
H1245 C1255 0.930 . S
C1246 H1240 0.930 . S
C1246 C1247 1.355 . S
C1246 C1248 1.415 . S
C1247 C1246 1.355 . S
C1247 C1249 1.419 . S
C1248 C1246 1.415 . S
C1248 C1253 1.425 . S
C1248 C1255 1.409 . S
C1249 H1241 0.930 . S
C1249 C1247 1.419 . S
C1249 C1250 1.362 . S
C1250 H1242 0.930 . S
C1250 C1249 1.362 . S
C1250 C1253 1.409 . S
C1251 H1243 0.930 . S
C1251 C1252 1.355 . S
C1251 C1253 1.415 . S
C1252 C1251 1.355 . S
C1252 C1254 1.419 . S
C1253 C1248 1.425 . S
C1253 C1250 1.409 . S
C1253 C1251 1.415 . S
C1254 H1244 0.930 . S
C1254 C1252 1.419 . S
C1254 C1255 1.362 . S
C1255 H1245 0.930 . S
C1255 C1248 1.409 . S
C1255 C1254 1.362 . S
H1256 C1262 0.930 . S
H1257 C1265 0.930 . S
H1258 C1266 0.930 . S
H1259 C1267 0.930 . S
H1260 C1270 0.930 . S
H1261 C1271 0.930 . S
C1262 H1256 0.930 . S
C1262 C1263 1.355 . S
C1262 C1264 1.415 . S
C1263 C1262 1.355 . S
C1263 C1265 1.419 . S
C1264 C1262 1.415 . S
C1264 C1269 1.425 . S
C1264 C1271 1.409 . S
C1265 H1257 0.930 . S
C1265 C1263 1.419 . S
C1265 C1266 1.362 . S
C1266 H1258 0.930 . S
C1266 C1265 1.362 . S
C1266 C1269 1.409 . S
C1267 H1259 0.930 . S
C1267 C1268 1.355 . S
C1267 C1269 1.415 . S
C1268 C1267 1.355 . S
C1268 C1270 1.419 . S
C1269 C1264 1.425 . S
C1269 C1266 1.409 . S
C1269 C1267 1.415 . S
C1270 H1260 0.930 . S
C1270 C1268 1.419 . S
C1270 C1271 1.362 . S
C1271 H1261 0.930 . S
C1271 C1264 1.409 . S
C1271 C1270 1.362 . S
H1272 C1278 0.930 . S
H1273 C1281 0.930 . S
H1274 C1282 0.930 . S
H1275 C1283 0.930 . S
H1276 C1286 0.930 . S
H1277 C1287 0.930 . S
C1278 H1272 0.930 . S
C1278 C1279 1.355 . S
C1278 C1280 1.415 . S
C1279 C1278 1.355 . S
C1279 C1281 1.419 . S
C1280 C1278 1.415 . S
C1280 C1285 1.425 1_455 S
C1280 C1287 1.409 1_455 S
C1281 H1273 0.930 . S
C1281 C1279 1.419 . S
C1281 C1282 1.362 . S
C1282 H1274 0.930 . S
C1282 C1281 1.362 . S
C1282 C1285 1.409 1_455 S
C1283 H1275 0.930 . S
C1283 C1284 1.355 . S
C1283 C1285 1.415 . S
C1284 C1283 1.355 . S
C1284 C1286 1.419 . S
C1285 C1280 1.425 1_655 S
C1285 C1282 1.409 1_655 S
C1285 C1283 1.415 . S
C1286 H1276 0.930 . S
C1286 C1284 1.419 . S
C1286 C1287 1.362 . S
C1287 H1277 0.930 . S
C1287 C1280 1.409 1_655 S
C1287 C1286 1.362 . S
H1288 C1294 0.930 . S
H1289 C1297 0.930 . S
H1290 C1298 0.930 . S
H1291 C1299 0.930 . S
H1292 C1302 0.930 . S
H1293 C1303 0.930 . S
C1294 H1288 0.930 . S
C1294 C1295 1.355 . S
C1294 C1296 1.415 . S
C1295 C1294 1.355 . S
C1295 C1297 1.419 . S
C1296 C1294 1.415 . S
C1296 C1301 1.425 . S
C1296 C1303 1.409 . S
C1297 H1289 0.930 . S
C1297 C1295 1.419 . S
C1297 C1298 1.362 . S
C1298 H1290 0.930 . S
C1298 C1297 1.362 . S
C1298 C1301 1.409 . S
C1299 H1291 0.930 . S
C1299 C1300 1.355 . S
C1299 C1301 1.415 . S
C1300 C1299 1.355 . S
C1300 C1302 1.419 . S
C1301 C1296 1.425 . S
C1301 C1298 1.409 . S
C1301 C1299 1.415 . S
C1302 H1292 0.930 . S
C1302 C1300 1.419 . S
C1302 C1303 1.362 . S
C1303 H1293 0.930 . S
C1303 C1296 1.409 . S
C1303 C1302 1.362 . S
H1304 C1310 0.930 . S
H1305 C1313 0.930 . S
H1306 C1314 0.930 . S
H1307 C1315 0.930 . S
H1308 C1318 0.930 . S
H1309 C1319 0.930 . S
C1310 H1304 0.930 . S
C1310 C1311 1.355 . S
C1310 C1312 1.415 . S
C1311 C1310 1.355 . S
C1311 C1313 1.419 . S
C1312 C1310 1.415 . S
C1312 C1317 1.425 1_545 S
C1312 C1319 1.409 1_545 S
C1313 H1305 0.930 . S
C1313 C1311 1.419 . S
C1313 C1314 1.362 . S
C1314 H1306 0.930 . S
C1314 C1313 1.362 . S
C1314 C1317 1.409 1_545 S
C1315 H1307 0.930 . S
C1315 C1316 1.355 . S
C1315 C1317 1.415 . S
C1316 C1315 1.355 . S
C1316 C1318 1.419 . S
C1317 C1312 1.425 1_565 S
C1317 C1314 1.409 1_565 S
C1317 C1315 1.415 . S
C1318 H1308 0.930 . S
C1318 C1316 1.419 . S
C1318 C1319 1.362 . S
C1319 H1309 0.930 . S
C1319 C1312 1.409 1_565 S
C1319 C1318 1.362 . S
H1320 C1326 0.930 . S
H1321 C1329 0.930 . S
H1322 C1330 0.930 . S
H1323 C1331 0.930 . S
H1324 C1334 0.930 . S
H1325 C1335 0.930 . S
C1326 H1320 0.930 . S
C1326 C1327 1.355 . S
C1326 C1328 1.415 . S
C1327 C1326 1.355 . S
C1327 C1329 1.419 . S
C1328 C1326 1.415 . S
C1328 C1333 1.425 1_545 S
C1328 C1335 1.409 1_545 S
C1329 H1321 0.930 . S
C1329 C1327 1.419 . S
C1329 C1330 1.362 . S
C1330 H1322 0.930 . S
C1330 C1329 1.362 . S
C1330 C1333 1.409 1_545 S
C1331 H1323 0.930 . S
C1331 C1332 1.355 . S
C1331 C1333 1.415 . S
C1332 C1331 1.355 . S
C1332 C1334 1.419 . S
C1333 C1328 1.425 1_565 S
C1333 C1330 1.409 1_565 S
C1333 C1331 1.415 . S
C1334 H1324 0.930 . S
C1334 C1332 1.419 . S
C1334 C1335 1.362 . S
C1335 H1325 0.930 . S
C1335 C1328 1.409 1_565 S
C1335 C1334 1.362 . S
H1336 C1342 0.930 . S
H1337 C1345 0.930 . S
H1338 C1346 0.930 . S
H1339 C1347 0.930 . S
H1340 C1350 0.930 . S
H1341 C1351 0.930 . S
C1342 H1336 0.930 . S
C1342 C1343 1.355 . S
C1342 C1344 1.415 . S
C1343 C1342 1.355 . S
C1343 C1345 1.419 . S
C1344 C1342 1.415 . S
C1344 C1349 1.425 1_655 S
C1344 C1351 1.409 1_655 S
C1345 H1337 0.930 . S
C1345 C1343 1.419 . S
C1345 C1346 1.362 . S
C1346 H1338 0.930 . S
C1346 C1345 1.362 . S
C1346 C1349 1.409 1_655 S
C1347 H1339 0.930 . S
C1347 C1348 1.355 . S
C1347 C1349 1.415 . S
C1348 C1347 1.355 . S
C1348 C1350 1.419 . S
C1349 C1344 1.425 1_455 S
C1349 C1346 1.409 1_455 S
C1349 C1347 1.415 . S
C1350 H1340 0.930 . S
C1350 C1348 1.419 . S
C1350 C1351 1.362 . S
C1351 H1341 0.930 . S
C1351 C1344 1.409 1_455 S
C1351 C1350 1.362 . S
H1352 C1358 0.930 . S
H1353 C1361 0.930 . S
H1354 C1362 0.930 . S
H1355 C1363 0.930 . S
H1356 C1366 0.930 . S
H1357 C1367 0.930 . S
C1358 H1352 0.930 . S
C1358 C1359 1.355 . S
C1358 C1360 1.415 . S
C1359 C1358 1.355 . S
C1359 C1361 1.419 . S
C1360 C1358 1.415 . S
C1360 C1365 1.425 . S
C1360 C1367 1.409 . S
C1361 H1353 0.930 . S
C1361 C1359 1.419 . S
C1361 C1362 1.362 . S
C1362 H1354 0.930 . S
C1362 C1361 1.362 . S
C1362 C1365 1.409 . S
C1363 H1355 0.930 . S
C1363 C1364 1.355 . S
C1363 C1365 1.415 . S
C1364 C1363 1.355 . S
C1364 C1366 1.419 . S
C1365 C1360 1.425 . S
C1365 C1362 1.409 . S
C1365 C1363 1.415 . S
C1366 H1356 0.930 . S
C1366 C1364 1.419 . S
C1366 C1367 1.362 . S
C1367 H1357 0.930 . S
C1367 C1360 1.409 . S
C1367 C1366 1.362 . S
H1368 C1374 0.930 . S
H1369 C1377 0.930 . S
H1370 C1378 0.930 . S
H1371 C1379 0.930 . S
H1372 C1382 0.930 . S
H1373 C1383 0.930 . S
C1374 H1368 0.930 . S
C1374 C1375 1.355 . S
C1374 C1376 1.415 . S
C1375 C1374 1.355 . S
C1375 C1377 1.419 . S
C1376 C1374 1.415 . S
C1376 C1381 1.425 . S
C1376 C1383 1.409 . S
C1377 H1369 0.930 . S
C1377 C1375 1.419 . S
C1377 C1378 1.362 . S
C1378 H1370 0.930 . S
C1378 C1377 1.362 . S
C1378 C1381 1.409 . S
C1379 H1371 0.930 . S
C1379 C1380 1.355 . S
C1379 C1381 1.415 . S
C1380 C1379 1.355 . S
C1380 C1382 1.419 . S
C1381 C1376 1.425 . S
C1381 C1378 1.409 . S
C1381 C1379 1.415 . S
C1382 H1372 0.930 . S
C1382 C1380 1.419 . S
C1382 C1383 1.362 . S
C1383 H1373 0.930 . S
C1383 C1376 1.409 . S
C1383 C1382 1.362 . S
H1384 C1390 0.930 . S
H1385 C1393 0.930 . S
H1386 C1394 0.930 . S
H1387 C1395 0.930 . S
H1388 C1398 0.930 . S
H1389 C1399 0.930 . S
C1390 H1384 0.930 . S
C1390 C1391 1.355 . S
C1390 C1392 1.415 . S
C1391 C1390 1.355 . S
C1391 C1393 1.419 . S
C1392 C1390 1.415 . S
C1392 C1397 1.425 . S
C1392 C1399 1.409 . S
C1393 H1385 0.930 . S
C1393 C1391 1.419 . S
C1393 C1394 1.362 . S
C1394 H1386 0.930 . S
C1394 C1393 1.362 . S
C1394 C1397 1.409 . S
C1395 H1387 0.930 . S
C1395 C1396 1.355 . S
C1395 C1397 1.415 . S
C1396 C1395 1.355 . S
C1396 C1398 1.419 . S
C1397 C1392 1.425 . S
C1397 C1394 1.409 . S
C1397 C1395 1.415 . S
C1398 H1388 0.930 . S
C1398 C1396 1.419 . S
C1398 C1399 1.362 . S
C1399 H1389 0.930 . S
C1399 C1392 1.409 . S
C1399 C1398 1.362 . S
H1400 C1406 0.930 . S
H1401 C1409 0.930 . S
H1402 C1410 0.930 . S
H1403 C1411 0.930 . S
H1404 C1414 0.930 . S
H1405 C1415 0.930 . S
C1406 H1400 0.930 . S
C1406 C1407 1.355 . S
C1406 C1408 1.415 . S
C1407 C1406 1.355 . S
C1407 C1409 1.419 . S
C1408 C1406 1.415 . S
C1408 C1413 1.425 . S
C1408 C1415 1.409 . S
C1409 H1401 0.930 . S
C1409 C1407 1.419 . S
C1409 C1410 1.362 . S
C1410 H1402 0.930 . S
C1410 C1409 1.362 . S
C1410 C1413 1.409 . S
C1411 H1403 0.930 . S
C1411 C1412 1.355 . S
C1411 C1413 1.415 . S
C1412 C1411 1.355 . S
C1412 C1414 1.419 . S
C1413 C1408 1.425 . S
C1413 C1410 1.409 . S
C1413 C1411 1.415 . S
C1414 H1404 0.930 . S
C1414 C1412 1.419 . S
C1414 C1415 1.362 . S
C1415 H1405 0.930 . S
C1415 C1408 1.409 . S
C1415 C1414 1.362 . S
H1416 C1422 0.930 . S
H1417 C1425 0.930 . S
H1418 C1426 0.930 . S
H1419 C1427 0.930 . S
H1420 C1430 0.930 . S
H1421 C1431 0.930 . S
C1422 H1416 0.930 . S
C1422 C1423 1.355 . S
C1422 C1424 1.415 . S
C1423 C1422 1.355 . S
C1423 C1425 1.419 . S
C1424 C1422 1.415 . S
C1424 C1429 1.425 . S
C1424 C1431 1.409 . S
C1425 H1417 0.930 . S
C1425 C1423 1.419 . S
C1425 C1426 1.362 . S
C1426 H1418 0.930 . S
C1426 C1425 1.362 . S
C1426 C1429 1.409 . S
C1427 H1419 0.930 . S
C1427 C1428 1.355 . S
C1427 C1429 1.415 . S
C1428 C1427 1.355 . S
C1428 C1430 1.419 . S
C1429 C1424 1.425 . S
C1429 C1426 1.409 . S
C1429 C1427 1.415 . S
C1430 H1420 0.930 . S
C1430 C1428 1.419 . S
C1430 C1431 1.362 . S
C1431 H1421 0.930 . S
C1431 C1424 1.409 . S
C1431 C1430 1.362 . S
H1432 C1438 0.930 . S
H1433 C1441 0.930 . S
H1434 C1442 0.930 . S
H1435 C1443 0.930 . S
H1436 C1446 0.930 . S
H1437 C1447 0.930 . S
C1438 H1432 0.930 . S
C1438 C1439 1.355 . S
C1438 C1440 1.415 . S
C1439 C1438 1.355 . S
C1439 C1441 1.419 . S
C1440 C1438 1.415 . S
C1440 C1445 1.425 . S
C1440 C1447 1.409 . S
C1441 H1433 0.930 . S
C1441 C1439 1.419 . S
C1441 C1442 1.362 . S
C1442 H1434 0.930 . S
C1442 C1441 1.362 . S
C1442 C1445 1.409 . S
C1443 H1435 0.930 . S
C1443 C1444 1.355 . S
C1443 C1445 1.415 . S
C1444 C1443 1.355 . S
C1444 C1446 1.419 . S
C1445 C1440 1.425 . S
C1445 C1442 1.409 . S
C1445 C1443 1.415 . S
C1446 H1436 0.930 . S
C1446 C1444 1.419 . S
C1446 C1447 1.362 . S
C1447 H1437 0.930 . S
C1447 C1440 1.409 . S
C1447 C1446 1.362 . S
H1448 C1454 0.930 . S
H1449 C1457 0.930 . S
H1450 C1458 0.930 . S
H1451 C1459 0.930 . S
H1452 C1462 0.930 . S
H1453 C1463 0.930 . S
C1454 H1448 0.930 . S
C1454 C1455 1.355 . S
C1454 C1456 1.415 . S
C1455 C1454 1.355 . S
C1455 C1457 1.419 . S
C1456 C1454 1.415 . S
C1456 C1461 1.425 . S
C1456 C1463 1.409 . S
C1457 H1449 0.930 . S
C1457 C1455 1.419 . S
C1457 C1458 1.362 . S
C1458 H1450 0.930 . S
C1458 C1457 1.362 . S
C1458 C1461 1.409 . S
C1459 H1451 0.930 . S
C1459 C1460 1.355 . S
C1459 C1461 1.415 . S
C1460 C1459 1.355 . S
C1460 C1462 1.419 . S
C1461 C1456 1.425 . S
C1461 C1458 1.409 . S
C1461 C1459 1.415 . S
C1462 H1452 0.930 . S
C1462 C1460 1.419 . S
C1462 C1463 1.362 . S
C1463 H1453 0.930 . S
C1463 C1456 1.409 . S
C1463 C1462 1.362 . S
H1464 C1470 0.930 . S
H1465 C1473 0.930 . S
H1466 C1474 0.930 . S
H1467 C1475 0.930 . S
H1468 C1478 0.930 . S
H1469 C1479 0.930 . S
C1470 H1464 0.930 . S
C1470 C1471 1.355 . S
C1470 C1472 1.415 . S
C1471 C1470 1.355 . S
C1471 C1473 1.419 . S
C1472 C1470 1.415 . S
C1472 C1477 1.425 . S
C1472 C1479 1.409 . S
C1473 H1465 0.930 . S
C1473 C1471 1.419 . S
C1473 C1474 1.362 . S
C1474 H1466 0.930 . S
C1474 C1473 1.362 . S
C1474 C1477 1.409 . S
C1475 H1467 0.930 . S
C1475 C1476 1.355 . S
C1475 C1477 1.415 . S
C1476 C1475 1.355 . S
C1476 C1478 1.419 . S
C1477 C1472 1.425 . S
C1477 C1474 1.409 . S
C1477 C1475 1.415 . S
C1478 H1468 0.930 . S
C1478 C1476 1.419 . S
C1478 C1479 1.362 . S
C1479 H1469 0.930 . S
C1479 C1472 1.409 . S
C1479 C1478 1.362 . S
H1480 C1486 0.930 . S
H1481 C1489 0.930 . S
H1482 C1490 0.930 . S
H1483 C1491 0.930 . S
H1484 C1494 0.930 . S
H1485 C1495 0.930 . S
C1486 H1480 0.930 . S
C1486 C1487 1.355 . S
C1486 C1488 1.415 . S
C1487 C1486 1.355 . S
C1487 C1489 1.419 . S
C1488 C1486 1.415 . S
C1488 C1493 1.425 . S
C1488 C1495 1.409 . S
C1489 H1481 0.930 . S
C1489 C1487 1.419 . S
C1489 C1490 1.362 . S
C1490 H1482 0.930 . S
C1490 C1489 1.362 . S
C1490 C1493 1.409 . S
C1491 H1483 0.930 . S
C1491 C1492 1.355 . S
C1491 C1493 1.415 . S
C1492 C1491 1.355 . S
C1492 C1494 1.419 . S
C1493 C1488 1.425 . S
C1493 C1490 1.409 . S
C1493 C1491 1.415 . S
C1494 H1484 0.930 . S
C1494 C1492 1.419 . S
C1494 C1495 1.362 . S
C1495 H1485 0.930 . S
C1495 C1488 1.409 . S
C1495 C1494 1.362 . S
H1496 C1502 0.930 . S
H1497 C1505 0.930 . S
H1498 C1506 0.930 . S
H1499 C1507 0.930 . S
H1500 C1510 0.930 . S
H1501 C1511 0.930 . S
C1502 H1496 0.930 . S
C1502 C1503 1.355 . S
C1502 C1504 1.415 . S
C1503 C1502 1.355 . S
C1503 C1505 1.419 . S
C1504 C1502 1.415 . S
C1504 C1509 1.425 . S
C1504 C1511 1.409 . S
C1505 H1497 0.930 . S
C1505 C1503 1.419 . S
C1505 C1506 1.362 . S
C1506 H1498 0.930 . S
C1506 C1505 1.362 . S
C1506 C1509 1.409 . S
C1507 H1499 0.930 . S
C1507 C1508 1.355 . S
C1507 C1509 1.415 . S
C1508 C1507 1.355 . S
C1508 C1510 1.419 . S
C1509 C1504 1.425 . S
C1509 C1506 1.409 . S
C1509 C1507 1.415 . S
C1510 H1500 0.930 . S
C1510 C1508 1.419 . S
C1510 C1511 1.362 . S
C1511 H1501 0.930 . S
C1511 C1504 1.409 . S
C1511 C1510 1.362 . S
H1512 C1518 0.930 . S
H1513 C1521 0.930 1_556 S
H1514 C1522 0.930 1_556 S
H1515 C1523 0.930 1_556 S
H1516 C1526 0.930 . S
H1517 C1527 0.930 . S
C1518 H1512 0.930 . S
C1518 C1519 1.355 . S
C1518 C1520 1.415 . S
C1519 C1518 1.355 . S
C1519 C1521 1.419 . S
C1520 C1518 1.415 . S
C1520 C1525 1.425 . S
C1520 C1527 1.409 . S
C1521 H1513 0.930 1_554 S
C1521 C1519 1.419 . S
C1521 C1522 1.362 . S
C1522 H1514 0.930 1_554 S
C1522 C1521 1.362 . S
C1522 C1525 1.409 . S
C1523 H1515 0.930 1_554 S
C1523 C1524 1.355 . S
C1523 C1525 1.415 . S
C1524 C1523 1.355 . S
C1524 C1526 1.419 . S
C1525 C1520 1.425 . S
C1525 C1522 1.409 . S
C1525 C1523 1.415 . S
C1526 H1516 0.930 . S
C1526 C1524 1.419 . S
C1526 C1527 1.362 . S
C1527 H1517 0.930 . S
C1527 C1520 1.409 . S
C1527 C1526 1.362 . S
H1528 C1534 0.930 1_556 S
H1529 C1537 0.930 . S
H1530 C1538 0.930 . S
H1531 C1539 0.930 . S
H1532 C1542 0.930 1_556 S
H1533 C1543 0.930 . S
C1534 H1528 0.930 1_554 S
C1534 C1535 1.355 . S
C1534 C1536 1.415 . S
C1535 C1534 1.355 . S
C1535 C1537 1.419 . S
C1536 C1534 1.415 . S
C1536 C1541 1.425 . S
C1536 C1543 1.409 1_554 S
C1537 H1529 0.930 . S
C1537 C1535 1.419 . S
C1537 C1538 1.362 . S
C1538 H1530 0.930 . S
C1538 C1537 1.362 . S
C1538 C1541 1.409 . S
C1539 H1531 0.930 . S
C1539 C1540 1.355 . S
C1539 C1541 1.415 . S
C1540 C1539 1.355 . S
C1540 C1542 1.419 . S
C1541 C1536 1.425 . S
C1541 C1538 1.409 . S
C1541 C1539 1.415 . S
C1542 H1532 0.930 1_554 S
C1542 C1540 1.419 . S
C1542 C1543 1.362 1_554 S
C1543 H1533 0.930 . S
C1543 C1536 1.409 1_556 S
C1543 C1542 1.362 1_556 S
H1544 C1550 0.930 . S
H1545 C1553 0.930 . S
H1546 C1554 0.930 . S
H1547 C1555 0.930 . S
H1548 C1558 0.930 . S
H1549 C1559 0.930 . S
C1550 H1544 0.930 . S
C1550 C1551 1.355 . S
C1550 C1552 1.415 . S
C1551 C1550 1.355 . S
C1551 C1553 1.419 . S
C1552 C1550 1.415 . S
C1552 C1557 1.425 . S
C1552 C1559 1.409 . S
C1553 H1545 0.930 . S
C1553 C1551 1.419 . S
C1553 C1554 1.362 . S
C1554 H1546 0.930 . S
C1554 C1553 1.362 . S
C1554 C1557 1.409 . S
C1555 H1547 0.930 . S
C1555 C1556 1.355 . S
C1555 C1557 1.415 . S
C1556 C1555 1.355 . S
C1556 C1558 1.419 . S
C1557 C1552 1.425 . S
C1557 C1554 1.409 . S
C1557 C1555 1.415 . S
C1558 H1548 0.930 . S
C1558 C1556 1.419 . S
C1558 C1559 1.362 . S
C1559 H1549 0.930 . S
C1559 C1552 1.409 . S
C1559 C1558 1.362 . S
H1560 C1566 0.930 . S
H1561 C1569 0.930 . S
H1562 C1570 0.930 . S
H1563 C1571 0.930 . S
H1564 C1574 0.930 . S
H1565 C1575 0.930 . S
C1566 H1560 0.930 . S
C1566 C1567 1.355 . S
C1566 C1568 1.415 . S
C1567 C1566 1.355 . S
C1567 C1569 1.419 . S
C1568 C1566 1.415 . S
C1568 C1573 1.425 . S
C1568 C1575 1.409 . S
C1569 H1561 0.930 . S
C1569 C1567 1.419 . S
C1569 C1570 1.362 . S
C1570 H1562 0.930 . S
C1570 C1569 1.362 . S
C1570 C1573 1.409 . S
C1571 H1563 0.930 . S
C1571 C1572 1.355 . S
C1571 C1573 1.415 . S
C1572 C1571 1.355 . S
C1572 C1574 1.419 . S
C1573 C1568 1.425 . S
C1573 C1570 1.409 . S
C1573 C1571 1.415 . S
C1574 H1564 0.930 . S
C1574 C1572 1.419 . S
C1574 C1575 1.362 . S
C1575 H1565 0.930 . S
C1575 C1568 1.409 . S
C1575 C1574 1.362 . S
H1576 C1582 0.930 . S
H1577 C1585 0.930 . S
H1578 C1586 0.930 . S
H1579 C1587 0.930 1_554 S
H1580 C1590 0.930 . S
H1581 C1591 0.930 . S
C1582 H1576 0.930 . S
C1582 C1583 1.355 . S
C1582 C1584 1.415 . S
C1583 C1582 1.355 . S
C1583 C1585 1.419 1_556 S
C1584 C1582 1.415 . S
C1584 C1589 1.425 . S
C1584 C1591 1.409 . S
C1585 H1577 0.930 . S
C1585 C1583 1.419 1_554 S
C1585 C1586 1.362 . S
C1586 H1578 0.930 . S
C1586 C1585 1.362 . S
C1586 C1589 1.409 1_554 S
C1587 H1579 0.930 1_556 S
C1587 C1588 1.355 . S
C1587 C1589 1.415 . S
C1588 C1587 1.355 . S
C1588 C1590 1.419 . S
C1589 C1584 1.425 . S
C1589 C1586 1.409 1_556 S
C1589 C1587 1.415 . S
C1590 H1580 0.930 . S
C1590 C1588 1.419 . S
C1590 C1591 1.362 . S
C1591 H1581 0.930 . S
C1591 C1584 1.409 . S
C1591 C1590 1.362 . S
H1592 C1598 0.930 . S
H1593 C1601 0.930 . S
H1594 C1602 0.930 . S
H1595 C1603 0.930 . S
H1596 C1606 0.930 . S
H1597 C1607 0.930 1_554 S
C1598 H1592 0.930 . S
C1598 C1599 1.355 . S
C1598 C1600 1.415 . S
C1599 C1598 1.355 . S
C1599 C1601 1.419 . S
C1600 C1598 1.415 . S
C1600 C1605 1.425 . S
C1600 C1607 1.409 . S
C1601 H1593 0.930 . S
C1601 C1599 1.419 . S
C1601 C1602 1.362 . S
C1602 H1594 0.930 . S
C1602 C1601 1.362 . S
C1602 C1605 1.409 . S
C1603 H1595 0.930 . S
C1603 C1604 1.355 . S
C1603 C1605 1.415 . S
C1604 C1603 1.355 . S
C1604 C1606 1.419 . S
C1605 C1600 1.425 . S
C1605 C1602 1.409 . S
C1605 C1603 1.415 . S
C1606 H1596 0.930 . S
C1606 C1604 1.419 . S
C1606 C1607 1.362 . S
C1607 H1597 0.930 1_556 S
C1607 C1600 1.409 . S
C1607 C1606 1.362 . S
H1608 C1614 0.930 . S
H1609 C1617 0.930 . S
H1610 C1618 0.930 . S
H1611 C1619 0.930 . S
H1612 C1622 0.930 . S
H1613 C1623 0.930 . S
C1614 H1608 0.930 . S
C1614 C1615 1.355 . S
C1614 C1616 1.415 . S
C1615 C1614 1.355 . S
C1615 C1617 1.419 . S
C1616 C1614 1.415 . S
C1616 C1621 1.425 . S
C1616 C1623 1.409 . S
C1617 H1609 0.930 . S
C1617 C1615 1.419 . S
C1617 C1618 1.362 . S
C1618 H1610 0.930 . S
C1618 C1617 1.362 . S
C1618 C1621 1.409 . S
C1619 H1611 0.930 . S
C1619 C1620 1.355 . S
C1619 C1621 1.415 . S
C1620 C1619 1.355 . S
C1620 C1622 1.419 . S
C1621 C1616 1.425 . S
C1621 C1618 1.409 . S
C1621 C1619 1.415 . S
C1622 H1612 0.930 . S
C1622 C1620 1.419 . S
C1622 C1623 1.362 . S
C1623 H1613 0.930 . S
C1623 C1616 1.409 . S
C1623 C1622 1.362 . S
H1624 C1630 0.930 . S
H1625 C1633 0.930 . S
H1626 C1634 0.930 . S
H1627 C1635 0.930 . S
H1628 C1638 0.930 . S
H1629 C1639 0.930 . S
C1630 H1624 0.930 . S
C1630 C1631 1.355 . S
C1630 C1632 1.415 . S
C1631 C1630 1.355 . S
C1631 C1633 1.419 . S
C1632 C1630 1.415 . S
C1632 C1637 1.425 . S
C1632 C1639 1.409 . S
C1633 H1625 0.930 . S
C1633 C1631 1.419 . S
C1633 C1634 1.362 . S
C1634 H1626 0.930 . S
C1634 C1633 1.362 . S
C1634 C1637 1.409 . S
C1635 H1627 0.930 . S
C1635 C1636 1.355 . S
C1635 C1637 1.415 . S
C1636 C1635 1.355 . S
C1636 C1638 1.419 . S
C1637 C1632 1.425 . S
C1637 C1634 1.409 . S
C1637 C1635 1.415 . S
C1638 H1628 0.930 . S
C1638 C1636 1.419 . S
C1638 C1639 1.362 . S
C1639 H1629 0.930 . S
C1639 C1632 1.409 . S
C1639 C1638 1.362 . S
H1640 C1646 0.930 . S
H1641 C1649 0.930 . S
H1642 C1650 0.930 . S
H1643 C1651 0.930 . S
H1644 C1654 0.930 . S
H1645 C1655 0.930 . S
C1646 H1640 0.930 . S
C1646 C1647 1.355 . S
C1646 C1648 1.415 . S
C1647 C1646 1.355 . S
C1647 C1649 1.419 . S
C1648 C1646 1.415 . S
C1648 C1653 1.425 . S
C1648 C1655 1.409 . S
C1649 H1641 0.930 . S
C1649 C1647 1.419 . S
C1649 C1650 1.362 . S
C1650 H1642 0.930 . S
C1650 C1649 1.362 . S
C1650 C1653 1.409 . S
C1651 H1643 0.930 . S
C1651 C1652 1.355 . S
C1651 C1653 1.415 . S
C1652 C1651 1.355 . S
C1652 C1654 1.419 . S
C1653 C1648 1.425 . S
C1653 C1650 1.409 . S
C1653 C1651 1.415 . S
C1654 H1644 0.930 . S
C1654 C1652 1.419 . S
C1654 C1655 1.362 . S
C1655 H1645 0.930 . S
C1655 C1648 1.409 . S
C1655 C1654 1.362 . S
C511 C78 1.497 . S
C516 C8 1.520 . S
C527 C50 1.492 . S
C532 C22 1.523 . S
C543 C36 1.524 . S
C548 C64 1.492 . S
C559 C92 1.503 . S
C564 C162 1.513 . S
C575 C106 1.518 . S
C580 C134 1.498 . S
C591 C148 1.512 . S
C596 C120 1.503 . S
C607 C176 1.522 . S
C612 C246 1.493 . S
C623 C190 1.523 . S
C628 C218 1.492 . S
C639 C204 1.513 . S
C644 C232 1.502 . S
C655 C330 1.495 . S
C660 C260 1.519 . S
C671 C274 1.495 . S
C676 C302 1.519 . S
C687 C316 1.493 . S
C692 C288 1.524 . S
C703 C414 1.514 . S
C708 C344 1.500 . S
C719 C386 1.503 . S
C724 C358 1.514 . S
C735 C400 1.510 . S
C740 C372 1.508 . S
C751 C428 1.499 . S
C756 C498 1.515 . S
C767 C442 1.492 . S
C772 C470 1.523 . S
C783 C456 1.493 . S
C788 C484 1.524 . S
C799 C77 1.519 . S
C804 C7 1.521 . S
C815 C21 1.517 . S
C820 C49 1.520 . S
C831 C63 1.525 . S
C836 C35 1.523 . S
C847 C91 1.551 . S
C852 C161 1.553 . S
C863 C105 1.497 . S
C868 C133 1.499 . S
C879 C147 1.495 . S
C884 C119 1.496 . S
C895 C175 1.557 . S
C900 C245 1.558 . S
C911 C217 1.558 . S
C916 C189 1.558 . S
C927 C231 1.557 . S
C932 C203 1.558 . S
C943 C259 1.509 . S
C948 C329 1.506 . S
C959 C273 1.558 . S
C964 C301 1.558 . S
C975 C315 1.493 . S
C980 C287 1.494 . S
C991 C413 1.515 . S
C996 C343 1.518 . S
C1007 C357 1.557 . S
C1012 C385 1.558 . S
C1023 C371 1.524 . S
C1028 C399 1.527 . S
C1039 C497 1.493 . S
C1044 C427 1.494 . S
C1055 C469 1.495 . S
C1060 C441 1.494 . S
C1071 C483 1.558 . S
C1076 C455 1.558 . S
C1087 C233 1.621 . S
C1092 C9 1.618 . S
C1103 C247 1.635 . S
C1108 C23 1.615 . S
C1119 C219 1.617 . S
C1124 C37 1.636 . S
C1135 C51 1.635 . S
C1140 C373 1.627 . S
C1151 C65 1.628 . S
C1156 C345 1.614 . S
C1167 C79 1.618 . S
C1172 C359 1.621 . S
C1183 C93 1.636 . S
C1188 C485 1.617 . S
C1199 C107 1.635 . S
C1204 C499 1.616 . S
C1215 C121 1.615 . S
C1220 C471 1.626 . S
C1231 C135 1.615 . S
C1236 C289 1.627 . S
C1247 C261 1.618 . S
C1252 C149 1.622 . S
C1263 C275 1.636 . S
C1268 C163 1.617 . S
C1279 C401 1.636 . S
C1284 C177 1.616 . S
C1295 C191 1.625 . S
C1300 C415 1.636 . S
C1311 C205 1.630 . S
C1316 C387 1.614 . S
C1327 C303 1.616 . S
C1332 C457 1.623 . S
C1343 C317 1.637 . S
C1348 C429 1.620 . S
C1359 C443 1.614 . S
C1364 C331 1.631 . S
C1375 C3 1.321 . S
C1380 C143 1.347 . S
C1391 C157 1.347 . S
C1396 C17 1.321 . S
C1407 C129 1.347 . S
C1412 C31 1.321 . S
C1423 C45 1.327 . S
C1428 C115 1.341 . S
C1439 C59 1.342 . S
C1444 C87 1.326 . S
C1455 C73 1.333 . S
C1460 C101 1.335 . S
C1471 C171 1.347 . S
C1476 C311 1.321 . S
C1487 C325 1.344 . S
C1492 C185 1.323 . S
C1503 C297 1.323 . S
C1508 C199 1.346 . S
C1519 C213 1.325 . S
C1524 C283 1.343 . S
C1535 C227 1.328 . S
C1540 C255 1.340 . S
C1551 C269 1.346 . S
C1556 C241 1.321 . S
C1567 C339 1.321 . S
C1572 C479 1.348 . S
C1583 C493 1.344 . S
C1588 C353 1.324 . S
C1599 C367 1.324 . S
C1604 C465 1.344 . S
C1615 C381 1.324 . S
C1620 C451 1.344 . S
C1631 C423 1.328 . S
C1636 C395 1.340 . S
C1647 C409 1.347 . S
C1652 C437 1.321 . S
