# Generated by pormake.
# Topology soi, (5)-cn, num edge types: 1
# Building blocks:
#     Node 0, Type 0, BuildingBlock: XOMCOT_clean_sbu_1, # of connection points: 5
#     Node 1, Type 0, BuildingBlock: XOMCOT_clean_sbu_1, # of connection points: 5
#     Node 2, Type 0, BuildingBlock: XOMCOT_clean_sbu_1, # of connection points: 5
#     Node 3, Type 0, BuildingBlock: XOMCOT_clean_sbu_1, # of connection points: 5
#     Node 4, Type 0, BuildingBlock: XOMCOT_clean_sbu_1, # of connection points: 5
#     Node 5, Type 0, BuildingBlock: XOMCOT_clean_sbu_1, # of connection points: 5
#     Node 6, Type 0, BuildingBlock: XOMCOT_clean_sbu_1, # of connection points: 5
#     Node 7, Type 0, BuildingBlock: XOMCOT_clean_sbu_1, # of connection points: 5
#     Node 8, Type 0, BuildingBlock: XOMCOT_clean_sbu_1, # of connection points: 5
#     Node 9, Type 0, BuildingBlock: XOMCOT_clean_sbu_1, # of connection points: 5
#     Node 10, Type 0, BuildingBlock: XOMCOT_clean_sbu_1, # of connection points: 5
#     Node 11, Type 0, BuildingBlock: XOMCOT_clean_sbu_1, # of connection points: 5
#     Node 12, Type 0, BuildingBlock: XOMCOT_clean_sbu_1, # of connection points: 5
#     Node 13, Type 0, BuildingBlock: XOMCOT_clean_sbu_1, # of connection points: 5
#     Node 14, Type 0, BuildingBlock: XOMCOT_clean_sbu_1, # of connection points: 5
#     Node 15, Type 0, BuildingBlock: XOMCOT_clean_sbu_1, # of connection points: 5
#     Edge 16, Type (0, 0), BuildingBlock: OJICUG_clean_linker_0, # of connection points: 2
#     Edge 17, Type (0, 0), BuildingBlock: OJICUG_clean_linker_0, # of connection points: 2
#     Edge 18, Type (0, 0), BuildingBlock: OJICUG_clean_linker_0, # of connection points: 2
#     Edge 19, Type (0, 0), BuildingBlock: OJICUG_clean_linker_0, # of connection points: 2
#     Edge 20, Type (0, 0), BuildingBlock: OJICUG_clean_linker_0, # of connection points: 2
#     Edge 21, Type (0, 0), BuildingBlock: OJICUG_clean_linker_0, # of connection points: 2
#     Edge 22, Type (0, 0), BuildingBlock: OJICUG_clean_linker_0, # of connection points: 2
#     Edge 23, Type (0, 0), BuildingBlock: OJICUG_clean_linker_0, # of connection points: 2
#     Edge 24, Type (0, 0), BuildingBlock: OJICUG_clean_linker_0, # of connection points: 2
#     Edge 25, Type (0, 0), BuildingBlock: OJICUG_clean_linker_0, # of connection points: 2
#     Edge 26, Type (0, 0), BuildingBlock: OJICUG_clean_linker_0, # of connection points: 2
#     Edge 27, Type (0, 0), BuildingBlock: OJICUG_clean_linker_0, # of connection points: 2
#     Edge 28, Type (0, 0), BuildingBlock: OJICUG_clean_linker_0, # of connection points: 2
#     Edge 29, Type (0, 0), BuildingBlock: OJICUG_clean_linker_0, # of connection points: 2
#     Edge 30, Type (0, 0), BuildingBlock: OJICUG_clean_linker_0, # of connection points: 2
#     Edge 31, Type (0, 0), BuildingBlock: OJICUG_clean_linker_0, # of connection points: 2
#     Edge 32, Type (0, 0), BuildingBlock: OJICUG_clean_linker_0, # of connection points: 2
#     Edge 33, Type (0, 0), BuildingBlock: OJICUG_clean_linker_0, # of connection points: 2
#     Edge 34, Type (0, 0), BuildingBlock: OJICUG_clean_linker_0, # of connection points: 2
#     Edge 35, Type (0, 0), BuildingBlock: OJICUG_clean_linker_0, # of connection points: 2
#     Edge 36, Type (0, 0), BuildingBlock: OJICUG_clean_linker_0, # of connection points: 2
#     Edge 37, Type (0, 0), BuildingBlock: OJICUG_clean_linker_0, # of connection points: 2
#     Edge 38, Type (0, 0), BuildingBlock: OJICUG_clean_linker_0, # of connection points: 2
#     Edge 39, Type (0, 0), BuildingBlock: OJICUG_clean_linker_0, # of connection points: 2
#     Edge 40, Type (0, 0), BuildingBlock: OJICUG_clean_linker_0, # of connection points: 2
#     Edge 41, Type (0, 0), BuildingBlock: OJICUG_clean_linker_0, # of connection points: 2
#     Edge 42, Type (0, 0), BuildingBlock: OJICUG_clean_linker_0, # of connection points: 2
#     Edge 43, Type (0, 0), BuildingBlock: OJICUG_clean_linker_0, # of connection points: 2
#     Edge 44, Type (0, 0), BuildingBlock: OJICUG_clean_linker_0, # of connection points: 2
#     Edge 45, Type (0, 0), BuildingBlock: OJICUG_clean_linker_0, # of connection points: 2
#     Edge 46, Type (0, 0), BuildingBlock: OJICUG_clean_linker_0, # of connection points: 2
#     Edge 47, Type (0, 0), BuildingBlock: OJICUG_clean_linker_0, # of connection points: 2
#     Edge 48, Type (0, 0), BuildingBlock: OJICUG_clean_linker_0, # of connection points: 2
#     Edge 49, Type (0, 0), BuildingBlock: OJICUG_clean_linker_0, # of connection points: 2
#     Edge 50, Type (0, 0), BuildingBlock: OJICUG_clean_linker_0, # of connection points: 2
#     Edge 51, Type (0, 0), BuildingBlock: OJICUG_clean_linker_0, # of connection points: 2
#     Edge 52, Type (0, 0), BuildingBlock: OJICUG_clean_linker_0, # of connection points: 2
#     Edge 53, Type (0, 0), BuildingBlock: OJICUG_clean_linker_0, # of connection points: 2
#     Edge 54, Type (0, 0), BuildingBlock: OJICUG_clean_linker_0, # of connection points: 2
#     Edge 55, Type (0, 0), BuildingBlock: OJICUG_clean_linker_0, # of connection points: 2
# Relax obj value: 0.107
# Max RMSD: 0.157
# Mean RMSD: 0.157
data_MOF--net-soi--node1-XOMCOT_clean_sbu_1--edge1-OJICUG_clean_linker_0
_symmetry_space_group_name_H-M    P1
_symmetry_Int_Tables_number       1
_symmetry_cell_setting            triclinic
loop_
_symmetry_equiv_pos_as_xyz
'x, y, z'
_cell_length_a     36.941013
_cell_length_b     19.250717
_cell_length_c     51.343666
_cell_angle_alpha  89.541285
_cell_angle_beta   89.984609
_cell_angle_gamma 89.992845
loop_
_atom_site_label
_atom_site_type_symbol
_atom_site_fract_x
_atom_site_fract_y
_atom_site_fract_z
_atom_type_partial_charge
C0 C 0.3413 0.00677 0.0954 0.0
C1 C 0.32736 0.00441 0.07051 0.0
N2 N 0.29319 0.02924 0.07099 0.0
N3 N 0.31617 0.03358 0.11146 0.0
C4 C 0.28723 0.04654 0.09609 0.0
H5 H 0.36768 0.98858 0.10154 0.0
Co6 Co 0.31807 0.04272 0.1476 0.0
C7 C 0.29564 0.18776 0.15589 0.0
O8 O 0.32389 0.19401 0.17127 0.0
N9 N 0.31782 0.05029 0.18471 0.0
C10 C 0.29445 0.07366 0.2238 0.0
C11 C 0.28893 0.07681 0.19751 0.0
C12 C 0.33931 0.02589 0.20427 0.0
N13 N 0.32619 0.04195 0.22808 0.0
O14 O 0.27633 0.98516 0.15031 0.0
H15 H 0.26424 0.09477 0.18841 0.0
H16 H 0.36288 0.99369 0.20151 0.0
O17 O 0.28895 0.12917 0.14504 0.0
C18 C 0.28658 0.9221 0.14842 0.0
O19 O 0.32136 0.90933 0.14588 0.0
N20 N 0.36136 0.09361 0.14404 0.0
C21 C 0.42691 0.16339 0.13939 0.0
C22 C 0.3968 0.18544 0.12503 0.0
C23 C 0.36436 0.14896 0.12726 0.0
C24 C 0.39151 0.06725 0.15573 0.0
C25 C 0.42438 0.10254 0.15437 0.0
H26 H 0.34149 0.16574 0.11569 0.0
H27 H 0.39046 0.01777 0.16556 0.0
H28 H 0.26202 0.06729 0.1034 0.0
H29 H 0.34095 0.9836 0.0536 0.0
H30 H 0.2754 0.08887 0.23875 0.0
H31 H 0.3981 0.23112 0.11261 0.0
H32 H 0.44773 0.08194 0.16459 0.0
C33 C 0.64405 0.48499 0.09553 0.0
C34 C 0.65808 0.49066 0.07072 0.0
N35 N 0.69223 0.46569 0.07093 0.0
N36 N 0.6691 0.45595 0.11125 0.0
C37 C 0.69807 0.44491 0.09578 0.0
H38 H 0.61775 0.50282 0.1019 0.0
Co39 Co 0.6673 0.44382 0.1473 0.0
C40 C 0.68863 0.29723 0.15453 0.0
O41 O 0.66001 0.29016 0.16955 0.0
N42 N 0.66757 0.43353 0.18432 0.0
C43 C 0.68956 0.40681 0.22365 0.0
C44 C 0.69517 0.40277 0.19741 0.0
C45 C 0.64708 0.46132 0.20361 0.0
N46 N 0.65925 0.44349 0.22761 0.0
O47 O 0.70936 0.50046 0.15017 0.0
H48 H 0.71935 0.38185 0.1886 0.0
H49 H 0.62516 0.49752 0.20046 0.0
O50 O 0.69598 0.35679 0.14426 0.0
C51 C 0.69928 0.56379 0.14865 0.0
O52 O 0.66447 0.57709 0.1467 0.0
N53 N 0.62366 0.39399 0.14358 0.0
C54 C 0.55809 0.32439 0.1391 0.0
C55 C 0.58779 0.30444 0.12401 0.0
C56 C 0.62025 0.34081 0.1262 0.0
C57 C 0.5938 0.41858 0.15604 0.0
C58 C 0.56095 0.3833 0.15474 0.0
H59 H 0.6429 0.32538 0.11423 0.0
H60 H 0.59501 0.46657 0.16653 0.0
H61 H 0.72329 0.42342 0.10289 0.0
H62 H 0.64462 0.51406 0.05411 0.0
H63 H 0.70794 0.38912 0.23874 0.0
H64 H 0.58621 0.26028 0.11111 0.0
H65 H 0.53788 0.40238 0.16557 0.0
C66 C 0.33981 0.98826 0.46366 0.0
C67 C 0.3259 0.99072 0.48856 0.0
N68 N 0.29156 0.96682 0.48806 0.0
N69 N 0.31447 0.96231 0.44757 0.0
C70 C 0.28546 0.94993 0.46294 0.0
H71 H 0.36629 0.00589 0.45752 0.0
Co72 Co 0.31624 0.95376 0.41141 0.0
C73 C 0.29336 0.80947 0.40243 0.0
O74 O 0.32136 0.80374 0.38677 0.0
N75 N 0.31588 0.94661 0.3743 0.0
C76 C 0.29158 0.92477 0.33539 0.0
C77 C 0.28613 0.92307 0.36171 0.0
C78 C 0.33811 0.96738 0.35459 0.0
N79 N 0.32429 0.95236 0.33088 0.0
O80 O 0.27457 0.01147 0.40888 0.0
H81 H 0.26113 0.90763 0.37104 0.0
H82 H 0.36297 0.99587 0.35712 0.0
O83 O 0.28702 0.8675 0.41378 0.0
C84 C 0.28483 0.07448 0.41087 0.0
O85 O 0.31959 0.08719 0.41358 0.0
N86 N 0.35944 0.9029 0.41479 0.0
C87 C 0.42529 0.8342 0.41907 0.0
C88 C 0.3951 0.81026 0.43293 0.0
C89 C 0.36251 0.8463 0.43094 0.0
C90 C 0.38961 0.93112 0.40376 0.0
C91 C 0.42267 0.89644 0.40492 0.0
H92 H 0.33961 0.82829 0.44223 0.0
H93 H 0.38834 0.98158 0.39462 0.0
H94 H 0.26009 0.92997 0.45561 0.0
H95 H 0.33963 0.01103 0.50548 0.0
H96 H 0.27203 0.91116 0.32056 0.0
H97 H 0.39647 0.7635 0.44477 0.0
H98 H 0.44606 0.9185 0.39518 0.0
C99 C 0.64288 0.50887 0.45964 0.0
C100 C 0.65695 0.50287 0.48442 0.0
N101 N 0.69082 0.52918 0.48433 0.0
N102 N 0.66761 0.53949 0.44407 0.0
C103 C 0.69647 0.55104 0.45958 0.0
H104 H 0.61674 0.49041 0.45319 0.0
Co105 Co 0.66544 0.55332 0.40809 0.0
C106 C 0.68595 0.70108 0.40245 0.0
O107 O 0.65682 0.70934 0.38804 0.0
N108 N 0.66524 0.56505 0.37112 0.0
C109 C 0.68491 0.59486 0.33146 0.0
C110 C 0.69083 0.60063 0.35761 0.0
C111 C 0.64605 0.53271 0.35217 0.0
N112 N 0.65667 0.5523 0.32798 0.0
O113 O 0.70759 0.49722 0.40467 0.0
H114 H 0.71425 0.62559 0.36593 0.0
H115 H 0.62632 0.49232 0.3558 0.0
O116 O 0.69389 0.64054 0.41161 0.0
C117 C 0.6974 0.4339 0.40587 0.0
O118 O 0.66256 0.42077 0.4077 0.0
N119 N 0.62166 0.60267 0.41231 0.0
C120 C 0.55633 0.67287 0.41749 0.0
C121 C 0.58578 0.68997 0.4333 0.0
C122 C 0.61812 0.65342 0.43069 0.0
C123 C 0.59202 0.58091 0.39887 0.0
C124 C 0.55931 0.61652 0.4006 0.0
H125 H 0.64067 0.66709 0.44304 0.0
H126 H 0.59325 0.53512 0.38711 0.0
H127 H 0.72144 0.57384 0.4526 0.0
H128 H 0.64372 0.47847 0.50093 0.0
H129 H 0.70202 0.61543 0.31609 0.0
H130 H 0.58414 0.73223 0.44705 0.0
H131 H 0.53644 0.59972 0.38904 0.0
C132 C 0.6436 0.99398 0.96258 0.0
C133 C 0.65758 0.99639 0.98745 0.0
N134 N 0.69194 0.9726 0.98686 0.0
N135 N 0.66892 0.96817 0.94644 0.0
C136 C 0.69798 0.95581 0.96173 0.0
H137 H 0.61708 0.01157 0.9565 0.0
Co138 Co 0.66707 0.95987 0.91032 0.0
C139 C 0.69068 0.81607 0.90099 0.0
O140 O 0.66271 0.81017 0.88532 0.0
N141 N 0.66729 0.95302 0.87326 0.0
C142 C 0.69166 0.93229 0.83429 0.0
C143 C 0.69728 0.93094 0.86059 0.0
C144 C 0.64462 0.97247 0.85364 0.0
N145 N 0.65852 0.95806 0.82992 0.0
O146 O 0.70855 0.01832 0.90775 0.0
H147 H 0.72249 0.91657 0.86987 0.0
H148 H 0.61932 -0.00053 0.85623 0.0
O149 O 0.69673 0.874 0.91249 0.0
C150 C 0.69838 0.08136 0.90991 0.0
O151 O 0.66367 0.09418 0.91285 0.0
N152 N 0.6241 0.90827 0.91377 0.0
C153 C 0.55847 0.8389 0.91842 0.0
C154 C 0.58894 0.81492 0.93193 0.0
C155 C 0.62142 0.85127 0.92977 0.0
C156 C 0.59369 0.93642 0.90308 0.0
C157 C 0.56073 0.90142 0.90442 0.0
H158 H 0.6445 0.8333 0.94085 0.0
H159 H 0.59469 0.98712 0.8941 0.0
H160 H 0.72335 0.93596 0.95434 0.0
H161 H 0.64388 0.01662 1.00441 0.0
H162 H 0.71127 0.91954 0.81938 0.0
H163 H 0.58787 0.76794 0.94366 0.0
H164 H 0.53713 0.9235 0.89496 0.0
C165 C 0.34118 0.51334 0.96092 0.0
C166 C 0.3272 0.50752 0.98574 0.0
N167 N 0.29327 0.53357 0.98567 0.0
N168 N 0.31634 0.5436 0.94533 0.0
C169 C 0.2875 0.55509 0.96089 0.0
H170 H 0.36734 0.495 0.95445 0.0
Co171 Co 0.31838 0.55713 0.90929 0.0
C172 C 0.29801 0.70507 0.90377 0.0
O173 O 0.32712 0.71338 0.88933 0.0
N174 N 0.31841 0.5685 0.87228 0.0
C175 C 0.29885 0.5981 0.83256 0.0
C176 C 0.29319 0.6049 0.85871 0.0
C177 C 0.33707 0.53476 0.85338 0.0
N178 N 0.32652 0.5541 0.82914 0.0
O179 O 0.27616 0.50115 0.90604 0.0
H180 H 0.27009 0.63103 0.86698 0.0
H181 H 0.35637 0.49368 0.85713 0.0
O182 O 0.29002 0.64445 0.91283 0.0
C183 C 0.28631 0.43781 0.90731 0.0
O184 O 0.32114 0.4246 0.90917 0.0
N185 N 0.36226 0.60639 0.91329 0.0
C186 C 0.42758 0.67692 0.91795 0.0
C187 C 0.3984 0.69363 0.93408 0.0
C188 C 0.36605 0.65696 0.93171 0.0
C189 C 0.39169 0.58503 0.8995 0.0
C190 C 0.42437 0.6208 0.90098 0.0
H191 H 0.34367 0.67049 0.94425 0.0
H192 H 0.39029 0.53953 0.88759 0.0
H193 H 0.26245 0.57761 0.95393 0.0
H194 H 0.34053 0.48342 1.00226 0.0
H195 H 0.28188 0.61901 0.81718 0.0
H196 H 0.40022 0.73575 0.94789 0.0
H197 H 0.44704 0.60433 0.88914 0.0
C198 C 0.64116 0.00395 0.5937 0.0
C199 C 0.65511 0.00186 0.5688 0.0
N200 N 0.68951 0.02546 0.5694 0.0
N201 N 0.66653 0.02934 0.60987 0.0
C202 C 0.69558 0.04182 0.59457 0.0
H203 H 0.61463 0.9864 0.59977 0.0
Co204 Co 0.66504 0.03724 0.64602 0.0
C205 C 0.68883 0.18089 0.65531 0.0
O206 O 0.66112 0.18679 0.67123 0.0
N207 N 0.66574 0.04382 0.6831 0.0
C208 C 0.69082 0.06426 0.72185 0.0
C209 C 0.696 0.06559 0.69551 0.0
C210 C 0.64335 0.0246 0.70293 0.0
N211 N 0.65769 0.03883 0.72652 0.0
O212 O 0.7065 0.97867 0.64827 0.0
H213 H 0.72109 0.07974 0.68601 0.0
H214 H 0.61792 0.99791 0.70057 0.0
O215 O 0.69468 0.123 0.64374 0.0
C216 C 0.69625 0.91572 0.64602 0.0
O217 O 0.66153 0.90308 0.6431 0.0
N218 N 0.62207 0.08897 0.64293 0.0
C219 C 0.55644 0.15861 0.63897 0.0
C220 C 0.58668 0.18254 0.62517 0.0
C221 C 0.61917 0.14607 0.62701 0.0
C222 C 0.59182 0.06087 0.65389 0.0
C223 C 0.55889 0.09604 0.65292 0.0
H224 H 0.64208 0.16405 0.61574 0.0
H225 H 0.59294 0.01012 0.66282 0.0
H226 H 0.72097 0.06143 0.60198 0.0
H227 H 0.64137 0.98198 0.55181 0.0
H228 H 0.71071 0.07681 0.73658 0.0
H229 H 0.58541 0.22954 0.61346 0.0
H230 H 0.53543 0.07404 0.6626 0.0
C231 C 0.33894 0.48015 0.59718 0.0
C232 C 0.325 0.48563 0.57235 0.0
N233 N 0.29093 0.4603 0.5725 0.0
N234 N 0.31393 0.45084 0.61288 0.0
C235 C 0.28503 0.43952 0.59736 0.0
H236 H 0.36518 0.49818 0.60359 0.0
Co237 Co 0.31584 0.43856 0.64896 0.0
C238 C 0.2949 0.29166 0.65589 0.0
O239 O 0.32371 0.28444 0.67072 0.0
N240 N 0.31568 0.42831 0.68602 0.0
C241 C 0.29436 0.40128 0.72553 0.0
C242 C 0.28878 0.39592 0.69932 0.0
C243 C 0.33558 0.45838 0.70514 0.0
N244 N 0.32386 0.44044 0.72926 0.0
O245 O 0.27374 0.49499 0.6519 0.0
H246 H 0.26492 0.37321 0.69072 0.0
H247 H 0.35667 0.49622 0.70172 0.0
O248 O 0.28729 0.35143 0.64591 0.0
C249 C 0.28385 0.55831 0.65045 0.0
O250 O 0.31868 0.57156 0.64861 0.0
N251 N 0.35956 0.38877 0.64517 0.0
C252 C 0.42504 0.31887 0.64033 0.0
C253 C 0.3954 0.30008 0.62498 0.0
C254 C 0.36299 0.3365 0.6274 0.0
C255 C 0.38934 0.41207 0.65807 0.0
C256 C 0.42213 0.37661 0.65656 0.0
H257 H 0.34036 0.32178 0.61529 0.0
H258 H 0.38816 0.45914 0.66912 0.0
H259 H 0.25985 0.41776 0.60441 0.0
H260 H 0.33847 0.5091 0.55576 0.0
H261 H 0.27637 0.38276 0.74073 0.0
H262 H 0.397 0.25677 0.61169 0.0
H263 H 0.44514 0.3947 0.66769 0.0
C264 C 0.84026 0.50384 0.59335 0.0
C265 C 0.82637 0.50149 0.56844 0.0
N266 N 0.79193 0.52485 0.569 0.0
N267 N 0.8148 0.52918 0.60948 0.0
C268 C 0.78575 0.54135 0.59415 0.0
H269 H 0.86681 0.4865 0.59945 0.0
Co270 Co 0.81636 0.53721 0.64561 0.0
C271 C 0.79246 0.68064 0.65511 0.0
O272 O 0.82018 0.68636 0.67101 0.0
N273 N 0.8158 0.54393 0.68268 0.0
C274 C 0.79071 0.56422 0.72145 0.0
C275 C 0.78535 0.56463 0.69512 0.0
C276 C 0.8386 0.52647 0.70248 0.0
N277 N 0.82421 0.54054 0.72608 0.0
O278 O 0.77491 0.47864 0.64796 0.0
H279 H 0.7601 0.57772 0.68564 0.0
H280 H 0.86449 0.50145 0.70011 0.0
O281 O 0.78665 0.62292 0.6434 0.0
C282 C 0.78513 0.41565 0.64575 0.0
O283 O 0.81985 0.40292 0.64277 0.0
N284 N 0.85929 0.58885 0.6424 0.0
C285 C 0.92502 0.658 0.63826 0.0
C286 C 0.89465 0.68257 0.62476 0.0
C287 C 0.86212 0.6463 0.62666 0.0
C288 C 0.8896 0.56012 0.65301 0.0
C289 C 0.92261 0.59499 0.65194 0.0
H290 H 0.83913 0.66469 0.61557 0.0
H291 H 0.88844 0.50912 0.66176 0.0
H292 H 0.7603 0.56083 0.60152 0.0
H293 H 0.84019 0.48157 0.55148 0.0
H294 H 0.77078 0.57637 0.7362 0.0
H295 H 0.89585 0.72992 0.61325 0.0
H296 H 0.94613 0.57248 0.66137 0.0
C297 C 0.14273 0.98324 0.59767 0.0
C298 C 0.15677 0.98905 0.57287 0.0
N299 N 0.19063 0.96265 0.57294 0.0
N300 N 0.16745 0.95263 0.61325 0.0
C301 C 0.1963 0.94095 0.59771 0.0
H302 H 0.11661 0.00178 0.60412 0.0
Co303 Co 0.16523 0.93888 0.64928 0.0
C304 C 0.18546 0.79089 0.65473 0.0
O305 O 0.15624 0.78255 0.66904 0.0
N306 N 0.16501 0.92732 0.68629 0.0
C307 C 0.18434 0.89752 0.72605 0.0
C308 C 0.19008 0.89067 0.69991 0.0
C309 C 0.14637 0.96123 0.70515 0.0
N310 N 0.15678 0.94179 0.72942 0.0
O311 O 0.20743 0.99477 0.65267 0.0
H312 H 0.21316 0.86437 0.6917 0.0
H313 H 0.12719 0.00251 0.70136 0.0
O314 O 0.19357 0.85155 0.64576 0.0
C315 C 0.19724 0.05809 0.65146 0.0
O316 O 0.1624 0.07123 0.64963 0.0
N317 N 0.12136 0.88969 0.64512 0.0
C318 C 0.05603 0.8194 0.64002 0.0
C319 C 0.08533 0.80293 0.62396 0.0
C320 C 0.11767 0.83945 0.62656 0.0
C321 C 0.09187 0.91074 0.65891 0.0
C322 C 0.05917 0.87508 0.65721 0.0
H323 H 0.14014 0.82608 0.61407 0.0
H324 H 0.09321 0.95593 0.67098 0.0
H325 H 0.22127 0.91812 0.60468 0.0
H326 H 0.14353 0.01335 0.55635 0.0
H327 H 0.2012 0.87647 0.74146 0.0
H328 H 0.08358 0.76112 0.61002 0.0
H329 H 0.03643 0.89132 0.66902 0.0
C330 C 0.84198 0.49462 0.96214 0.0
C331 C 0.82795 0.4969 0.98701 0.0
N332 N 0.79366 0.4727 0.98642 0.0
N333 N 0.81677 0.4685 0.946 0.0
C334 C 0.78773 0.45582 0.96128 0.0
H335 H 0.86845 0.51246 0.95607 0.0
Co336 Co 0.81856 0.45989 0.90987 0.0
C337 C 0.7952 0.31563 0.90106 0.0
O338 O 0.82321 0.30936 0.88544 0.0
N339 N 0.81821 0.45276 0.87281 0.0
C340 C 0.79405 0.43114 0.83385 0.0
C341 C 0.7886 0.42887 0.86016 0.0
C342 C 0.84031 0.47445 0.85317 0.0
N343 N 0.82662 0.45942 0.82944 0.0
O344 O 0.77704 0.51824 0.9073 0.0
H345 H 0.76361 0.41303 0.86942 0.0
H346 H 0.86489 0.50383 0.85576 0.0
O347 O 0.78901 0.37392 0.91227 0.0
C348 C 0.78727 0.58126 0.9094 0.0
O349 O 0.822 0.59398 0.91224 0.0
N350 N 0.86161 0.4083 0.9133 0.0
C351 C 0.92711 0.33829 0.91779 0.0
C352 C 0.89681 0.31538 0.93176 0.0
C353 C 0.8644 0.352 0.92963 0.0
C354 C 0.89192 0.43543 0.90207 0.0
C355 C 0.92478 0.40006 0.90333 0.0
H356 H 0.84142 0.33471 0.94099 0.0
H357 H 0.89096 0.48563 0.89273 0.0
H358 H 0.76245 0.43562 0.95389 0.0
H359 H 0.84156 0.51726 1.00397 0.0
H360 H 0.77459 0.4175 0.81897 0.0
H361 H 0.89797 0.26901 0.94382 0.0
H362 H 0.94827 0.42132 0.89347 0.0
C363 C 0.14424 0.01651 0.96144 0.0
C364 C 0.15815 0.01109 0.98629 0.0
N365 N 0.19229 0.0361 0.98612 0.0
N366 N 0.16934 0.04547 0.94572 0.0
C367 C 0.19825 0.05665 0.96124 0.0
H368 H 0.11797 -0.00137 0.95504 0.0
Co369 Co 0.16755 0.05744 0.90962 0.0
C370 C 0.18864 0.20426 0.90255 0.0
O371 O 0.15995 0.21143 0.88762 0.0
N372 N 0.16784 0.06743 0.87255 0.0
C373 C 0.18937 0.09414 0.83307 0.0
C374 C 0.1949 0.09945 0.85929 0.0
C375 C 0.14787 0.03764 0.8534 0.0
N376 N 0.15973 0.05539 0.8293 0.0
O377 O 0.20966 0.00093 0.90681 0.0
H378 H 0.21879 0.12192 0.86794 0.0
H379 H 0.12662 0.00013 0.85679 0.0
O380 O 0.19613 0.14456 0.91264 0.0
C381 C 0.19959 0.93759 0.90834 0.0
O382 O 0.16478 0.92428 0.91023 0.0
N383 N 0.12383 0.10727 0.91327 0.0
C384 C 0.05832 0.17727 0.91772 0.0
C385 C 0.08789 0.19645 0.93307 0.0
C386 C 0.12032 0.15996 0.93087 0.0
C387 C 0.09409 0.08354 0.90045 0.0
C388 C 0.0613 0.11902 0.90175 0.0
H389 H 0.14289 0.17495 0.94298 0.0
H390 H 0.09533 0.03611 0.88961 0.0
H391 H 0.2235 0.07812 0.95417 0.0
H392 H 0.14462 0.98785 1.00289 0.0
H393 H 0.20746 0.11244 0.81789 0.0
H394 H 0.08624 0.24014 0.94619 0.0
H395 H 0.03833 0.10059 0.89065 0.0
C396 C 0.14195 0.48867 0.46315 0.0
C397 C 0.15582 0.49089 0.48807 0.0
N398 N 0.19008 0.46653 0.48759 0.0
N399 N 0.16723 0.46243 0.44708 0.0
C400 C 0.19616 0.44963 0.46247 0.0
H401 H 0.11553 0.50662 0.457 0.0
Co402 Co 0.16562 0.45377 0.41091 0.0
C403 C 0.18844 0.30925 0.40225 0.0
O404 O 0.16048 0.30329 0.38657 0.0
N405 N 0.16621 0.44652 0.3738 0.0
C406 C 0.19054 0.42418 0.33493 0.0
C407 C 0.19578 0.42196 0.36126 0.0
C408 C 0.14439 0.4686 0.35405 0.0
N409 N 0.15818 0.45322 0.33036 0.0
O410 O 0.20731 0.51149 0.40845 0.0
H411 H 0.22061 0.40566 0.37061 0.0
H412 H 0.11995 0.49844 0.35655 0.0
O413 O 0.19481 0.3675 0.41343 0.0
C414 C 0.19701 0.5745 0.41044 0.0
O415 O 0.16224 0.58717 0.41304 0.0
N416 N 0.12239 0.4028 0.41421 0.0
C417 C 0.05669 0.33348 0.41839 0.0
C418 C 0.08675 0.31038 0.43258 0.0
C419 C 0.11927 0.34668 0.4306 0.0
C420 C 0.09229 0.43018 0.4028 0.0
C421 C 0.05933 0.39514 0.4039 0.0
H422 H 0.14209 0.32922 0.44209 0.0
H423 H 0.09349 0.48028 0.3934 0.0
H424 H 0.22147 0.42932 0.45516 0.0
H425 H 0.14211 0.51132 0.50499 0.0
H426 H 0.21005 0.41003 0.32014 0.0
H427 H 0.08534 0.26408 0.44466 0.0
H428 H 0.03601 0.41654 0.39388 0.0
C429 C 0.83912 0.01153 0.46032 0.0
C430 C 0.82502 0.00587 0.4851 0.0
N431 N 0.79097 0.03133 0.48488 0.0
N432 N 0.81422 0.04107 0.4446 0.0
C433 C 0.78525 0.05238 0.46004 0.0
H434 H 0.86537 0.99343 0.45396 0.0
Co435 Co 0.81624 0.05355 0.40857 0.0
C436 C 0.79517 0.20039 0.40158 0.0
O437 O 0.82399 0.2076 0.38676 0.0
N438 N 0.81622 0.0641 0.37155 0.0
C439 C 0.79482 0.09149 0.33211 0.0
C440 C 0.78905 0.09587 0.35833 0.0
C441 C 0.83652 0.03534 0.35237 0.0
N442 N 0.82475 0.05357 0.32831 0.0
O443 O 0.77417 0.99705 0.40551 0.0
H444 H 0.76497 0.11761 0.36699 0.0
H445 H 0.85797 0.99818 0.35565 0.0
O446 O 0.78762 0.14066 0.41162 0.0
C447 C 0.78429 0.93371 0.40694 0.0
O448 O 0.8191 0.92046 0.40883 0.0
N449 N 0.8599 0.10329 0.41248 0.0
C450 C 0.9254 0.17295 0.4174 0.0
C451 C 0.89564 0.19223 0.43256 0.0
C452 C 0.86322 0.15586 0.43013 0.0
C453 C 0.88979 0.0794 0.39986 0.0
C454 C 0.9226 0.11474 0.4014 0.0
H455 H 0.84052 0.17085 0.44213 0.0
H456 H 0.88865 0.03195 0.38904 0.0
H457 H 0.76013 0.07431 0.45294 0.0
H458 H 0.83836 0.98217 0.5017 0.0
H459 H 0.77675 0.10979 0.31693 0.0
H460 H 0.89716 0.23587 0.44571 0.0
H461 H 0.9457 0.09622 0.39046 0.0
C462 C 0.14415 0.5068 0.09495 0.0
C463 C 0.15813 0.50412 0.07007 0.0
N464 N 0.19236 0.52859 0.07055 0.0
N465 N 0.16932 0.53346 0.11099 0.0
C466 C 0.19833 0.54602 0.09564 0.0
H467 H 0.11772 0.48889 0.10109 0.0
Co468 Co 0.16727 0.54269 0.14712 0.0
C469 C 0.18973 0.6876 0.15561 0.0
O470 O 0.16143 0.69368 0.17098 0.0
N471 N 0.16731 0.55036 0.18422 0.0
C472 C 0.19063 0.57347 0.22333 0.0
C473 C 0.19636 0.57604 0.19705 0.0
C474 C 0.14541 0.52718 0.20375 0.0
N475 N 0.15854 0.54303 0.22757 0.0
O476 O 0.20901 0.4852 0.14995 0.0
H477 H 0.22122 0.59321 0.18797 0.0
H478 H 0.12144 0.49609 0.20098 0.0
O479 O 0.19641 0.62916 0.14464 0.0
C480 C 0.19878 0.42213 0.14811 0.0
O481 O 0.16401 0.40934 0.1455 0.0
N482 N 0.12401 0.59341 0.14344 0.0
C483 C 0.0583 0.66251 0.13866 0.0
C484 C 0.08853 0.68538 0.1246 0.0
C485 C 0.12105 0.64918 0.12686 0.0
C486 C 0.09379 0.5662 0.15475 0.0
C487 C 0.06081 0.6011 0.15333 0.0
H488 H 0.14399 0.66648 0.11548 0.0
H489 H 0.0949 0.51634 0.16432 0.0
H490 H 0.22359 0.56653 0.10293 0.0
H491 H 0.14452 0.48332 0.05318 0.0
H492 H 0.2097 0.58827 0.23832 0.0
H493 H 0.08727 0.73149 0.1124 0.0
H494 H 0.03739 0.57983 0.16327 0.0
C495 C 0.84113 0.9876 0.09615 0.0
C496 C 0.82711 0.99348 0.07135 0.0
N497 N 0.79315 0.96758 0.07147 0.0
N498 N 0.81628 0.95747 0.11176 0.0
C499 C 0.78741 0.94608 0.09625 0.0
H500 H 0.86731 0.00585 0.10258 0.0
Co501 Co 0.81825 0.94404 0.14776 0.0
C502 C 0.79749 0.7965 0.15367 0.0
O503 O 0.82644 0.78841 0.16829 0.0
N504 N 0.81822 0.93261 0.18474 0.0
C505 C 0.79793 0.90337 0.2243 0.0
C506 C 0.79215 0.89798 0.19812 0.0
C507 C 0.83763 0.96404 0.20379 0.0
N508 N 0.82662 0.94476 0.22793 0.0
O509 O 0.7761 0.00028 0.15101 0.0
H510 H 0.76859 0.87386 0.18966 0.0
H511 H 0.85781 0.00366 0.2003 0.0
O512 O 0.78975 0.85688 0.14428 0.0
C513 C 0.78627 0.0636 0.1497 0.0
O514 O 0.8211 0.07676 0.14781 0.0
N515 N 0.86201 0.89459 0.14373 0.0
C516 C 0.92741 0.82442 0.13896 0.0
C517 C 0.89798 0.80662 0.12323 0.0
C518 C 0.86562 0.8432 0.12561 0.0
C519 C 0.89164 0.91709 0.157 0.0
C520 C 0.92438 0.88152 0.15549 0.0
H521 H 0.8431 0.82909 0.11329 0.0
H522 H 0.89035 0.96347 0.16843 0.0
H523 H 0.76235 0.92366 0.10326 0.0
H524 H 0.84042 0.01755 0.05482 0.0
H525 H 0.78051 0.88336 0.23959 0.0
H526 H 0.89966 0.7638 0.10972 0.0
H527 H 0.94723 0.89891 0.16694 0.0
C528 C 0.22532 0.87191 0.15784 0.0
C529 C 0.2608 0.86347 0.14874 0.0
H530 H 0.17506 0.82262 0.16719 0.0
C531 C 0.27219 0.79728 0.14058 0.0
H532 H 0.21579 0.92223 0.16419 0.0
C533 C 0.24884 0.7403 0.14204 0.0
C534 C 0.21378 0.74821 0.15202 0.0
H535 H 0.29934 0.78924 0.13323 0.0
H536 H 0.25856 0.68983 0.136 0.0
C537 C 0.20211 0.81473 0.15961 0.0
C538 C 0.71356 0.68924 0.14115 0.0
C539 C 0.72528 0.62214 0.14838 0.0
H540 H 0.72724 0.79694 0.13676 0.0
C541 C 0.76145 0.61239 0.15577 0.0
H542 H 0.68587 0.69838 0.13508 0.0
C543 C 0.78504 0.66907 0.15686 0.0
C544 C 0.77305 0.73647 0.1503 0.0
H545 H 0.77129 0.56137 0.16132 0.0
H546 H 0.81263 0.66011 0.16318 0.0
C547 C 0.73725 0.74577 0.14196 0.0
C548 C 0.22391 0.12483 0.40057 0.0
C549 C 0.2591 0.13314 0.41025 0.0
H550 H 0.17403 0.17434 0.39038 0.0
C551 C 0.2703 0.19927 0.41857 0.0
H552 H 0.21455 0.07455 0.39406 0.0
C553 C 0.24707 0.25635 0.41671 0.0
C554 C 0.21234 0.24857 0.40616 0.0
H555 H 0.29723 0.20718 0.42635 0.0
H556 H 0.25664 0.30677 0.42291 0.0
C557 C 0.20083 0.18211 0.39839 0.0
C558 C 0.78293 0.32779 0.39779 0.0
C559 C 0.77084 0.26068 0.40469 0.0
H560 H 0.76935 0.43549 0.39294 0.0
C561 C 0.73506 0.25187 0.41313 0.0
H562 H 0.81052 0.33635 0.39137 0.0
C563 C 0.71147 0.30858 0.41374 0.0
C564 C 0.7233 0.37539 0.40623 0.0
H565 H 0.72498 0.20093 0.41857 0.0
H566 H 0.6838 0.29982 0.41992 0.0
C567 C 0.75945 0.38469 0.39871 0.0
C568 C 0.71313 0.20616 0.91753 0.0
C569 C 0.72418 0.13994 0.90917 0.0
H570 H 0.72701 0.31359 0.92184 0.0
C571 C 0.75931 0.13144 0.89939 0.0
H572 H 0.68626 0.21425 0.92538 0.0
C573 C 0.78248 0.18858 0.89715 0.0
C574 C 0.77114 0.25512 0.90497 0.0
H575 H 0.76856 0.08111 0.89285 0.0
H576 H 0.80923 0.18061 0.88907 0.0
C577 C 0.73646 0.26311 0.91561 0.0
C578 C 0.22434 0.3886 0.89986 0.0
C579 C 0.2604 0.37933 0.90759 0.0
H580 H 0.17337 0.34022 0.89223 0.0
C581 C 0.27216 0.31254 0.91518 0.0
H582 H 0.21449 0.43939 0.89402 0.0
C583 C 0.2486 0.25581 0.91443 0.0
C584 C 0.21292 0.26459 0.90577 0.0
H585 H 0.29976 0.3038 0.92151 0.0
H586 H 0.25863 0.20488 0.91993 0.0
C587 C 0.20089 0.33169 0.89881 0.0
C588 C 0.71095 0.79103 0.63811 0.0
C589 C 0.72197 0.857 0.64675 0.0
H590 H 0.72471 0.68358 0.63366 0.0
C591 C 0.75691 0.86504 0.6569 0.0
H592 H 0.68421 0.78332 0.62998 0.0
C593 C 0.77991 0.80768 0.65924 0.0
C594 C 0.76859 0.74138 0.65115 0.0
H595 H 0.76612 0.91517 0.66368 0.0
H596 H 0.80651 0.81528 0.66762 0.0
C597 C 0.73413 0.73387 0.64012 0.0
C598 C 0.24601 0.74037 0.64366 0.0
C599 C 0.21 0.73092 0.6515 0.0
H600 H 0.29758 0.69313 0.63739 0.0
C601 C 0.19786 0.66343 0.65777 0.0
H602 H 0.25613 0.79161 0.63871 0.0
C603 C 0.22151 0.6068 0.65691 0.0
C604 C 0.25786 0.61668 0.65002 0.0
H605 H 0.17011 0.65436 0.6637 0.0
H606 H 0.21154 0.55569 0.66222 0.0
C607 C 0.26974 0.68388 0.64307 0.0
C608 C 0.72449 0.36522 0.65683 0.0
C609 C 0.7594 0.357 0.64661 0.0
H610 H 0.67489 0.31567 0.66771 0.0
C611 C 0.77035 0.29093 0.63805 0.0
H612 H 0.71533 0.41543 0.66356 0.0
C613 C 0.74716 0.23384 0.64018 0.0
C614 C 0.71273 0.24154 0.65126 0.0
H615 H 0.79706 0.28308 0.62987 0.0
H616 H 0.75653 0.18347 0.63375 0.0
C617 C 0.70147 0.30793 0.65929 0.0
C618 C 0.28271 0.16423 0.65964 0.0
C619 C 0.27061 0.23134 0.65275 0.0
H620 H 0.26915 0.05652 0.66446 0.0
C621 C 0.23485 0.24014 0.64426 0.0
H622 H 0.31028 0.15569 0.66609 0.0
C623 C 0.21129 0.18341 0.64362 0.0
C624 C 0.22312 0.1166 0.65113 0.0
H625 H 0.22477 0.29107 0.63883 0.0
H626 H 0.18363 0.19215 0.63741 0.0
C627 C 0.25925 0.10732 0.65869 0.0
C628 C 0.72639 0.63175 0.89896 0.0
C629 C 0.76151 0.63996 0.90877 0.0
H630 H 0.67652 0.68129 0.88872 0.0
C631 C 0.77262 0.70602 0.91724 0.0
H632 H 0.71709 0.58154 0.89233 0.0
C633 C 0.74935 0.7631 0.91543 0.0
C634 C 0.71468 0.75541 0.90477 0.0
H635 H 0.7995 0.71388 0.92512 0.0
H636 H 0.75885 0.81345 0.92177 0.0
C637 C 0.70328 0.68902 0.89682 0.0
C638 C 0.21381 0.81207 0.91575 0.0
C639 C 0.22562 0.87926 0.90873 0.0
H640 H 0.22747 0.70435 0.92009 0.0
C641 C 0.26191 0.88915 0.90168 0.0
H642 H 0.18602 0.80282 0.92156 0.0
C643 C 0.28556 0.83252 0.90073 0.0
C644 C 0.27349 0.76503 0.90708 0.0
H645 H 0.27183 0.94024 0.89631 0.0
H646 H 0.31326 0.84159 0.89468 0.0
C647 C 0.23755 0.75558 0.91508 0.0
C648 C 0.25798 0.62502 0.40038 0.0
C649 C 0.22273 0.63319 0.40997 0.0
H650 H 0.30791 0.67469 0.3904 0.0
C651 C 0.21145 0.69922 0.41837 0.0
H652 H 0.2674 0.57482 0.39382 0.0
C653 C 0.23468 0.75634 0.41667 0.0
C654 C 0.26947 0.74871 0.4062 0.0
H655 H 0.18448 0.70702 0.42608 0.0
H656 H 0.22505 0.80669 0.42292 0.0
C657 C 0.28105 0.68235 0.39836 0.0
C658 C 0.72201 0.88517 0.40024 0.0
C659 C 0.75829 0.87534 0.40731 0.0
H660 H 0.67068 0.83756 0.39325 0.0
C661 C 0.77013 0.80817 0.41435 0.0
H662 H 0.71208 0.93625 0.39485 0.0
C663 C 0.74641 0.75166 0.4137 0.0
C664 C 0.71047 0.76107 0.4057 0.0
H665 H 0.79791 0.79896 0.42016 0.0
H666 H 0.75649 0.70045 0.41874 0.0
C667 C 0.69838 0.82852 0.39932 0.0
C668 C 0.28319 0.31491 0.15971 0.0
C669 C 0.27158 0.24832 0.15217 0.0
H670 H 0.26945 0.42245 0.16409 0.0
C671 C 0.23659 0.24029 0.1421 0.0
H672 H 0.31019 0.32289 0.16736 0.0
C673 C 0.21324 0.29724 0.14049 0.0
C674 C 0.22456 0.36352 0.14859 0.0
H675 H 0.22692 0.18976 0.1361 0.0
H676 H 0.18613 0.28912 0.13307 0.0
C677 C 0.25998 0.37207 0.15778 0.0
C678 C 0.7009 0.16983 0.15834 0.0
C679 C 0.7129 0.23688 0.15129 0.0
H680 H 0.71452 0.06214 0.16317 0.0
C681 C 0.74854 0.24559 0.14252 0.0
H682 H 0.67341 0.16134 0.165 0.0
C683 C 0.7721 0.18884 0.14176 0.0
C684 C 0.76037 0.12209 0.14943 0.0
H685 H 0.75854 0.29648 0.13695 0.0
H686 H 0.79967 0.19752 0.13534 0.0
C687 C 0.72434 0.11289 0.15727 0.0
C688 C 0.27995 0.0348 1.02364 0.0
C689 C 0.26774 0.0327 0.04958 0.0
H690 H 0.2659 0.03685 0.98326 0.0
C691 C 0.23017 0.033 0.0542 0.0
H692 H 0.3086 0.03534 1.01927 0.0
C693 C 0.20557 0.03476 0.03348 0.0
C694 C 0.21778 0.03624 1.00753 0.0
H695 H 0.21959 0.03063 0.07383 0.0
H696 H 0.17692 0.03516 0.03786 0.0
C697 C 0.25534 0.03654 1.00291 0.0
C698 C 0.73054 0.46952 1.003 0.0
C699 C 0.76807 0.4694 1.00774 0.0
H700 H 0.67718 0.46754 1.01916 0.0
C701 C 0.78013 0.46696 0.03371 0.0
H702 H 0.72008 0.47222 0.98335 0.0
C703 C 0.75538 0.4652 0.05435 0.0
C704 C 0.71784 0.46578 0.04961 0.0
H705 H 0.80874 0.46612 0.03817 0.0
H706 H 0.76582 0.4646 0.07403 0.0
C707 C 0.7058 0.46769 1.02363 0.0
C708 C 0.27828 0.96106 0.5354 0.0
C709 C 0.26608 0.96404 0.50946 0.0
H710 H 0.2642 0.95895 0.57578 0.0
C711 C 0.22852 0.96537 0.50485 0.0
H712 H 0.30691 0.95929 0.53975 0.0
C713 C 0.20391 0.96433 0.52558 0.0
C714 C 0.2161 0.96193 0.55152 0.0
H715 H 0.21798 0.96847 0.48523 0.0
H716 H 0.17526 0.96517 0.52122 0.0
C717 C 0.25365 0.96001 0.55613 0.0
C718 C 0.77855 0.53076 0.5217 0.0
C719 C 0.76641 0.52751 0.54764 0.0
H720 H 0.76438 0.53312 0.48136 0.0
C721 C 0.72886 0.52586 0.55232 0.0
H722 H 0.80717 0.53276 0.5173 0.0
C723 C 0.7042 0.52698 0.53165 0.0
C724 C 0.71634 0.52971 0.5057 0.0
H725 H 0.71836 0.5225 0.57195 0.0
H726 H 0.67557 0.52595 0.53606 0.0
C727 C 0.75387 0.53184 0.50102 0.0
C728 C 0.70538 0.96686 0.03415 0.0
C729 C 0.7175 0.96975 1.0082 0.0
H730 H 0.71959 0.96465 0.07448 0.0
C731 C 0.75503 0.97086 1.00349 0.0
H732 H 0.67676 0.96526 0.03857 0.0
C733 C 0.77973 0.96959 1.02415 0.0
C734 C 0.76761 0.96722 0.05011 0.0
H735 H 0.76551 0.97392 0.98385 0.0
H736 H 0.80836 0.97021 1.01972 0.0
C737 C 0.73008 0.96563 0.05482 0.0
C738 C 0.25539 0.5308 0.05377 0.0
C739 C 0.21784 0.53154 0.04915 0.0
H740 H 0.30866 0.53164 0.0374 0.0
C741 C 0.20563 0.53412 1.02321 0.0
H742 H 0.26594 0.52803 0.0734 0.0
C743 C 0.23025 0.53537 1.00248 0.0
C744 C 0.2678 0.53406 1.0071 0.0
H745 H 0.17698 0.53543 1.01886 0.0
H746 H 0.2197 0.53611 0.98284 0.0
C747 C 0.28001 0.53203 0.03304 0.0
C748 C 0.70306 0.0314 0.5221 0.0
C749 C 0.7151 0.02851 0.54807 0.0
H750 H 0.71738 0.03383 0.48178 0.0
C751 C 0.75263 0.02767 0.55281 0.0
H752 H 0.67444 0.03278 0.51765 0.0
C753 C 0.77738 0.02923 0.53218 0.0
C754 C 0.76534 0.03156 0.5062 0.0
H755 H 0.76309 0.02462 0.57245 0.0
H756 H 0.80599 0.02883 0.53665 0.0
C757 C 0.72781 0.03287 0.50146 0.0
C758 C 0.22788 0.45923 0.55569 0.0
C759 C 0.26545 0.46001 0.55108 0.0
H760 H 0.17463 0.4599 0.53931 0.0
C761 C 0.27768 0.46182 0.52514 0.0
H762 H 0.21731 0.45865 0.57533 0.0
C763 C 0.25309 0.46343 0.50441 0.0
C764 C 0.21552 0.46324 0.50901 0.0
H765 H 0.30633 0.46178 0.52077 0.0
H766 H 0.26368 0.46607 0.48479 0.0
C767 C 0.20328 0.46081 0.53495 0.0
C768 C 0.34097 0.06653 0.27362 0.0
C769 C 0.33792 0.01844 0.25328 0.0
H770 H 0.34017 0.08223 0.31499 0.0
C771 C 0.33781 0.94727 0.25921 0.0
H772 H 0.34055 0.12171 0.26936 0.0
C773 C 0.33686 0.9249 0.2852 0.0
C774 C 0.3368 0.97332 0.30555 0.0
H775 H 0.33475 0.90955 0.24383 0.0
H776 H 0.3333 0.87014 0.28946 0.0
C777 C 0.34084 0.04407 0.29961 0.0
C778 C 0.64373 0.54087 0.25626 0.0
C779 C 0.64821 0.46933 0.25255 0.0
H780 H 0.64293 0.62367 0.28397 0.0
C781 C 0.64852 0.42471 0.27437 0.0
H782 H 0.64383 0.57622 0.23975 0.0
C783 C 0.64746 0.45164 0.29958 0.0
C784 C 0.64675 0.52367 0.30326 0.0
H785 H 0.65205 0.36932 0.27185 0.0
H786 H 0.65052 0.41673 0.31608 0.0
C787 C 0.64335 0.56787 0.28146 0.0
C788 C 0.64367 0.9281 0.7849 0.0
C789 C 0.64557 0.9781 0.80463 0.0
H790 H 0.64479 0.90917 0.74373 0.0
C791 C 0.64362 0.04868 0.79791 0.0
H792 H 0.64575 0.87342 0.78979 0.0
C793 C 0.6438 0.06899 0.77168 0.0
C794 C 0.64511 0.01897 0.75193 0.0
H795 H 0.64581 0.0879 0.81283 0.0
H796 H 0.64599 0.12365 0.76677 0.0
C797 C 0.64303 0.94841 0.75868 0.0
C798 C 0.33863 0.53956 0.75734 0.0
C799 C 0.3345 0.46778 0.75408 0.0
H800 H 0.33934 0.62361 0.78452 0.0
C801 C 0.33446 0.42416 0.7762 0.0
H802 H 0.33836 0.5742 0.74063 0.0
C803 C 0.33552 0.45222 0.80123 0.0
C804 C 0.336 0.52444 0.80447 0.0
H805 H 0.33127 0.36858 0.77405 0.0
H806 H 0.33277 0.41798 0.81795 0.0
C807 C 0.33904 0.56769 0.78237 0.0
C808 C 0.84255 0.43176 0.78441 0.0
C809 C 0.83885 0.48128 0.80419 0.0
H810 H 0.84196 0.41284 0.74325 0.0
C811 C 0.83799 0.55196 0.7975 0.0
H812 H 0.84258 0.37692 0.78929 0.0
C813 C 0.83687 0.57228 0.77129 0.0
C814 C 0.83736 0.52228 0.7515 0.0
H815 H 0.83436 0.59069 0.81245 0.0
H816 H 0.8326 0.62651 0.76643 0.0
C817 C 0.84224 0.45219 0.7582 0.0
C818 C 0.14459 0.95651 0.8012 0.0
C819 C 0.14903 0.02823 0.80447 0.0
H820 H 0.14355 0.87248 0.77402 0.0
C821 C 0.14928 0.07185 0.78235 0.0
H822 H 0.14469 0.92186 0.81791 0.0
C823 C 0.14812 0.0438 0.75731 0.0
C824 C 0.14734 0.9716 0.75407 0.0
H825 H 0.15271 0.12737 0.7845 0.0
H826 H 0.15105 0.078 0.7406 0.0
C827 C 0.14408 0.92839 0.77617 0.0
C828 C 0.14529 0.42675 0.28466 0.0
C829 C 0.14617 0.4751 0.30502 0.0
H830 H 0.14736 0.4113 0.2433 0.0
C831 C 0.14361 0.54611 0.29909 0.0
H832 H 0.14774 0.37177 0.28893 0.0
C833 C 0.1441 0.5686 0.27311 0.0
C834 C 0.14634 0.52035 0.25277 0.0
H835 H 0.14493 0.58415 0.31449 0.0
H836 H 0.14563 0.62372 0.26886 0.0
C837 C 0.14497 0.44921 0.25867 0.0
C838 C 0.83911 0.95542 0.29972 0.0
C839 C 0.83567 0.02717 0.30343 0.0
H840 H 0.83891 0.87263 0.27201 0.0
C841 C 0.83618 0.07181 0.28161 0.0
H842 H 0.83836 0.92008 0.31623 0.0
C843 C 0.83703 0.04486 0.2564 0.0
C844 C 0.8367 0.97281 0.25271 0.0
H845 H 0.83344 0.12736 0.28413 0.0
H846 H 0.83462 0.07994 0.2399 0.0
C847 C 0.83928 0.92843 0.27452 0.0
C848 C 0.50869 0.26222 0.16252 0.0
C849 C 0.5244 0.28349 0.13889 0.0
H850 H 0.4655 0.20667 0.18107 0.0
C851 C 0.50809 0.26463 0.11528 0.0
H852 H 0.52101 0.27575 0.18094 0.0
C853 C 0.47623 0.22562 0.11536 0.0
C854 C 0.46069 0.20399 0.13903 0.0
H855 H 0.51976 0.28073 0.09684 0.0
H856 H 0.46393 0.21176 0.09697 0.0
C857 C 0.47722 0.22236 0.16259 0.0
C858 C 0.47433 0.76922 0.44238 0.0
C859 C 0.4592 0.79398 0.419 0.0
H860 H 0.51743 0.71138 0.46022 0.0
C861 C 0.47616 0.7788 0.39526 0.0
H862 H 0.4617 0.78059 0.46091 0.0
C863 C 0.50759 0.73887 0.39486 0.0
C864 C 0.52282 0.71426 0.4182 0.0
H865 H 0.46477 0.79691 0.37699 0.0
H866 H 0.52022 0.72777 0.3763 0.0
C867 C 0.50614 0.73006 0.442 0.0
C868 C 0.50714 0.78365 0.89506 0.0
C869 C 0.52459 0.79853 0.91864 0.0
H870 H 0.46275 0.73272 0.87648 0.0
C871 C 0.50997 0.77334 0.94213 0.0
H872 H 0.51813 0.8021 0.8767 0.0
C873 C 0.4782 0.73406 0.94202 0.0
C874 C 0.46104 0.71853 0.91838 0.0
H875 H 0.52296 0.78448 0.96054 0.0
H876 H 0.46731 0.71504 0.96033 0.0
C877 C 0.47575 0.74359 0.89492 0.0
C878 C 0.47526 0.26155 0.61593 0.0
C879 C 0.45873 0.27803 0.63971 0.0
H880 H 0.51968 0.21078 0.59708 0.0
C881 C 0.47427 0.25455 0.66311 0.0
H882 H 0.46372 0.27938 0.59767 0.0
C883 C 0.50579 0.21485 0.66276 0.0
C884 C 0.52256 0.19892 0.63903 0.0
H885 H 0.46176 0.26626 0.68166 0.0
H886 H 0.51739 0.19742 0.68106 0.0
C887 C 0.50719 0.22274 0.6156 0.0
C888 C 0.97616 0.71235 0.6621 0.0
C889 C 0.95892 0.69825 0.63838 0.0
H890 H 0.02043 0.76256 0.6811 0.0
C891 C 0.97376 0.72411 0.61506 0.0
H892 H 0.96499 0.69338 0.68033 0.0
C893 C 0.00556 0.76326 0.61549 0.0
C894 C 0.02253 0.77799 0.63928 0.0
H895 H 0.96092 0.71358 0.59654 0.0
H896 H 0.01664 0.78279 0.59731 0.0
C897 C 0.00758 0.7523 0.66256 0.0
C898 C 0.00924 0.24077 0.89444 0.0
C899 C 0.02466 0.21827 0.91802 0.0
H900 H 0.96627 0.29727 0.87604 0.0
C901 C 0.00805 0.23592 0.94166 0.0
H902 H 0.0218 0.22818 0.876 0.0
C903 C 0.97617 0.2749 0.94167 0.0
C904 C 0.96092 0.29774 0.91806 0.0
H905 H 0.01949 0.21886 0.96005 0.0
H906 H 0.96363 0.28778 0.96008 0.0
C907 C 0.97776 0.28062 0.89447 0.0
C908 C 0.00633 0.27604 0.39472 0.0
C909 C 0.02283 0.29312 0.41843 0.0
H910 H 0.96254 0.22372 0.37594 0.0
C911 C 0.00723 0.27034 0.44193 0.0
H912 H 0.01811 0.29264 0.37637 0.0
C913 C 0.97534 0.23143 0.44169 0.0
C914 C 0.95907 0.21383 0.41794 0.0
H915 H 0.01952 0.28318 0.46043 0.0
H916 H 0.96363 0.21441 0.46 0.0
C917 C 0.97484 0.23628 0.39447 0.0
C918 C 0.97612 0.75959 0.1621 0.0
C919 C 0.96091 0.78296 0.13857 0.0
H920 H 0.01887 0.7024 0.18042 0.0
C921 C 0.97761 0.76581 0.11491 0.0
H922 H 0.96348 0.77172 0.18056 0.0
C923 C 0.00938 0.72653 0.11484 0.0
C924 C 0.02446 0.70298 0.13841 0.0
H925 H 0.96634 0.78353 0.09655 0.0
H926 H 0.022 0.71408 0.09641 0.0
C927 C 0.00751 0.71955 0.16201 0.0
loop_
_geom_bond_atom_site_label_1
_geom_bond_atom_site_label_2
_geom_bond_distance
_geom_bond_site_symmetry_2
_ccdc_geom_bond_type
C0 C1 1.351 . S
C0 N3 1.368 . S
C0 H5 0.931 . S
C1 C0 1.351 . S
C1 N2 1.373 . S
C1 H29 0.930 . S
N2 C1 1.373 . S
N2 C4 1.340 . S
N3 C0 1.368 . S
N3 C4 1.321 . S
N3 Co6 2.135 . S
C4 N2 1.340 . S
C4 N3 1.321 . S
C4 H28 0.930 . S
H5 C0 0.931 . S
Co6 N3 2.135 . S
Co6 N9 2.121 . S
Co6 O14 2.055 . S
Co6 O17 2.039 . S
Co6 N20 2.140 . S
C7 O8 1.227 . S
C7 O17 1.265 . S
O8 C7 1.227 . S
N9 Co6 2.121 . S
N9 C11 1.375 . S
N9 C12 1.313 . S
C10 C11 1.338 . S
C10 N13 1.377 . S
C10 H30 0.930 . S
C11 N9 1.375 . S
C11 C10 1.338 . S
C11 H15 0.931 . S
C12 N9 1.313 . S
C12 N13 1.344 . S
C12 H16 0.930 . S
N13 C10 1.377 . S
N13 C12 1.344 . S
O14 Co6 2.055 . S
O14 C18 1.242 1_545 S
H15 C11 0.931 . S
H16 C12 0.930 . S
O17 Co6 2.039 . S
O17 C7 1.265 . S
C18 O14 1.242 1_565 S
C18 O19 1.225 1_565 S
O19 C18 1.225 1_545 S
N20 Co6 2.140 . S
N20 C23 1.346 . S
N20 C24 1.345 . S
C21 C22 1.387 . S
C21 C25 1.391 . S
C22 C21 1.387 . S
C22 C23 1.369 . S
C22 H31 0.929 . S
C23 N20 1.346 . S
C23 C22 1.369 . S
C23 H26 0.928 . S
C24 N20 1.345 . S
C24 C25 1.371 . S
C24 H27 0.931 . S
C25 C21 1.391 . S
C25 C24 1.371 . S
C25 H32 0.930 . S
H26 C23 0.928 . S
H27 C24 0.931 . S
H28 C4 0.930 . S
H29 C1 0.930 . S
H30 C10 0.930 . S
H31 C22 0.929 . S
H32 C25 0.930 . S
C33 C34 1.351 . S
C33 N36 1.368 . S
C33 H38 0.931 . S
C34 C33 1.351 . S
C34 N35 1.373 . S
C34 H62 0.930 . S
N35 C34 1.373 . S
N35 C37 1.340 . S
N36 C33 1.368 . S
N36 C37 1.321 . S
N36 Co39 2.135 . S
C37 N35 1.340 . S
C37 N36 1.321 . S
C37 H61 0.930 . S
H38 C33 0.931 . S
Co39 N36 2.135 . S
Co39 N42 2.121 . S
Co39 O47 2.055 . S
Co39 O50 2.039 . S
Co39 N53 2.140 . S
C40 O41 1.227 . S
C40 O50 1.265 . S
O41 C40 1.227 . S
N42 Co39 2.121 . S
N42 C44 1.375 . S
N42 C45 1.313 . S
C43 C44 1.338 . S
C43 N46 1.377 . S
C43 H63 0.930 . S
C44 N42 1.375 . S
C44 C43 1.338 . S
C44 H48 0.931 . S
C45 N42 1.313 . S
C45 N46 1.344 . S
C45 H49 0.930 . S
N46 C43 1.377 . S
N46 C45 1.344 . S
O47 Co39 2.055 . S
O47 C51 1.253 . S
H48 C44 0.931 . S
H49 C45 0.930 . S
O50 Co39 2.039 . S
O50 C40 1.265 . S
C51 O47 1.253 . S
C51 O52 1.227 . S
O52 C51 1.227 . S
N53 Co39 2.140 . S
N53 C56 1.346 . S
N53 C57 1.345 . S
C54 C55 1.387 . S
C54 C58 1.391 . S
C55 C54 1.387 . S
C55 C56 1.369 . S
C55 H64 0.929 . S
C56 N53 1.346 . S
C56 C55 1.369 . S
C56 H59 0.928 . S
C57 N53 1.345 . S
C57 C58 1.371 . S
C57 H60 0.931 . S
C58 C54 1.391 . S
C58 C57 1.371 . S
C58 H65 0.930 . S
H59 C56 0.928 . S
H60 C57 0.931 . S
H61 C37 0.930 . S
H62 C34 0.930 . S
H63 C43 0.930 . S
H64 C55 0.929 . S
H65 C58 0.930 . S
C66 C67 1.351 . S
C66 N69 1.368 . S
C66 H71 0.931 . S
C67 C66 1.351 . S
C67 N68 1.373 . S
C67 H95 0.930 . S
N68 C67 1.373 . S
N68 C70 1.340 . S
N69 C66 1.368 . S
N69 C70 1.321 . S
N69 Co72 2.135 . S
C70 N68 1.340 . S
C70 N69 1.321 . S
C70 H94 0.930 . S
H71 C66 0.931 . S
Co72 N69 2.135 . S
Co72 N75 2.121 . S
Co72 O80 2.055 . S
Co72 O83 2.039 . S
Co72 N86 2.140 . S
C73 O74 1.227 . S
C73 O83 1.265 . S
O74 C73 1.227 . S
N75 Co72 2.121 . S
N75 C77 1.375 . S
N75 C78 1.313 . S
C76 C77 1.338 . S
C76 N79 1.377 . S
C76 H96 0.930 . S
C77 N75 1.375 . S
C77 C76 1.338 . S
C77 H81 0.931 . S
C78 N75 1.313 . S
C78 N79 1.344 . S
C78 H82 0.930 . S
N79 C76 1.377 . S
N79 C78 1.344 . S
O80 Co72 2.055 . S
O80 C84 1.242 1_565 S
H81 C77 0.931 . S
H82 C78 0.930 . S
O83 Co72 2.039 . S
O83 C73 1.265 . S
C84 O80 1.242 1_545 S
C84 O85 1.225 1_545 S
O85 C84 1.225 1_565 S
N86 Co72 2.140 . S
N86 C89 1.346 . S
N86 C90 1.345 . S
C87 C88 1.387 . S
C87 C91 1.391 . S
C88 C87 1.387 . S
C88 C89 1.369 . S
C88 H97 0.929 . S
C89 N86 1.346 . S
C89 C88 1.369 . S
C89 H92 0.928 . S
C90 N86 1.345 . S
C90 C91 1.371 . S
C90 H93 0.931 . S
C91 C87 1.391 . S
C91 C90 1.371 . S
C91 H98 0.930 . S
H92 C89 0.928 . S
H93 C90 0.931 . S
H94 C70 0.930 . S
H95 C67 0.930 . S
H96 C76 0.930 . S
H97 C88 0.929 . S
H98 C91 0.930 . S
C99 C100 1.351 . S
C99 N102 1.368 . S
C99 H104 0.931 . S
C100 C99 1.351 . S
C100 N101 1.373 . S
C100 H128 0.930 . S
N101 C100 1.373 . S
N101 C103 1.340 . S
N102 C99 1.368 . S
N102 C103 1.321 . S
N102 Co105 2.135 . S
C103 N101 1.340 . S
C103 N102 1.321 . S
C103 H127 0.930 . S
H104 C99 0.931 . S
Co105 N102 2.135 . S
Co105 N108 2.121 . S
Co105 O113 2.055 . S
Co105 O116 2.039 . S
Co105 N119 2.140 . S
C106 O107 1.227 . S
C106 O116 1.265 . S
O107 C106 1.227 . S
N108 Co105 2.121 . S
N108 C110 1.375 . S
N108 C111 1.313 . S
C109 C110 1.338 . S
C109 N112 1.377 . S
C109 H129 0.930 . S
C110 N108 1.375 . S
C110 C109 1.338 . S
C110 H114 0.931 . S
C111 N108 1.313 . S
C111 N112 1.344 . S
C111 H115 0.930 . S
N112 C109 1.377 . S
N112 C111 1.344 . S
O113 Co105 2.055 . S
O113 C117 1.253 . S
H114 C110 0.931 . S
H115 C111 0.930 . S
O116 Co105 2.039 . S
O116 C106 1.265 . S
C117 O113 1.253 . S
C117 O118 1.227 . S
O118 C117 1.227 . S
N119 Co105 2.140 . S
N119 C122 1.346 . S
N119 C123 1.345 . S
C120 C121 1.387 . S
C120 C124 1.391 . S
C121 C120 1.387 . S
C121 C122 1.369 . S
C121 H130 0.929 . S
C122 N119 1.346 . S
C122 C121 1.369 . S
C122 H125 0.928 . S
C123 N119 1.345 . S
C123 C124 1.371 . S
C123 H126 0.931 . S
C124 C120 1.391 . S
C124 C123 1.371 . S
C124 H131 0.930 . S
H125 C122 0.928 . S
H126 C123 0.931 . S
H127 C103 0.930 . S
H128 C100 0.930 . S
H129 C109 0.930 . S
H130 C121 0.929 . S
H131 C124 0.930 . S
C132 C133 1.351 . S
C132 N135 1.368 . S
C132 H137 0.931 . S
C133 C132 1.351 . S
C133 N134 1.373 . S
C133 H161 0.930 . S
N134 C133 1.373 . S
N134 C136 1.340 . S
N135 C132 1.368 . S
N135 C136 1.321 . S
N135 Co138 2.135 . S
C136 N134 1.340 . S
C136 N135 1.321 . S
C136 H160 0.930 . S
H137 C132 0.931 . S
Co138 N135 2.135 . S
Co138 N141 2.121 . S
Co138 O146 2.055 . S
Co138 O149 2.039 . S
Co138 N152 2.140 . S
C139 O140 1.227 . S
C139 O149 1.265 . S
O140 C139 1.227 . S
N141 Co138 2.121 . S
N141 C143 1.375 . S
N141 C144 1.313 . S
C142 C143 1.338 . S
C142 N145 1.377 . S
C142 H162 0.930 . S
C143 N141 1.375 . S
C143 C142 1.338 . S
C143 H147 0.931 . S
C144 N141 1.313 . S
C144 N145 1.344 . S
C144 H148 0.930 . S
N145 C142 1.377 . S
N145 C144 1.344 . S
O146 Co138 2.055 . S
O146 C150 1.242 1_565 S
H147 C143 0.931 . S
H148 C144 0.930 . S
O149 Co138 2.039 . S
O149 C139 1.265 . S
C150 O146 1.242 1_545 S
C150 O151 1.225 1_545 S
O151 C150 1.225 1_565 S
N152 Co138 2.140 . S
N152 C155 1.346 . S
N152 C156 1.345 . S
C153 C154 1.387 . S
C153 C157 1.391 . S
C154 C153 1.387 . S
C154 C155 1.369 . S
C154 H163 0.929 . S
C155 N152 1.346 . S
C155 C154 1.369 . S
C155 H158 0.928 . S
C156 N152 1.345 . S
C156 C157 1.371 . S
C156 H159 0.931 . S
C157 C153 1.391 . S
C157 C156 1.371 . S
C157 H164 0.930 . S
H158 C155 0.928 . S
H159 C156 0.931 . S
H160 C136 0.930 . S
H161 C133 0.930 . S
H162 C142 0.930 . S
H163 C154 0.929 . S
H164 C157 0.930 . S
C165 C166 1.351 . S
C165 N168 1.368 . S
C165 H170 0.931 . S
C166 C165 1.351 . S
C166 N167 1.373 . S
C166 H194 0.930 . S
N167 C166 1.373 . S
N167 C169 1.340 . S
N168 C165 1.368 . S
N168 C169 1.321 . S
N168 Co171 2.135 . S
C169 N167 1.340 . S
C169 N168 1.321 . S
C169 H193 0.930 . S
H170 C165 0.931 . S
Co171 N168 2.135 . S
Co171 N174 2.121 . S
Co171 O179 2.055 . S
Co171 O182 2.039 . S
Co171 N185 2.140 . S
C172 O173 1.227 . S
C172 O182 1.265 . S
O173 C172 1.227 . S
N174 Co171 2.121 . S
N174 C176 1.375 . S
N174 C177 1.313 . S
C175 C176 1.338 . S
C175 N178 1.377 . S
C175 H195 0.930 . S
C176 N174 1.375 . S
C176 C175 1.338 . S
C176 H180 0.931 . S
C177 N174 1.313 . S
C177 N178 1.344 . S
C177 H181 0.930 . S
N178 C175 1.377 . S
N178 C177 1.344 . S
O179 Co171 2.055 . S
O179 C183 1.253 . S
H180 C176 0.931 . S
H181 C177 0.930 . S
O182 Co171 2.039 . S
O182 C172 1.265 . S
C183 O179 1.253 . S
C183 O184 1.227 . S
O184 C183 1.227 . S
N185 Co171 2.140 . S
N185 C188 1.346 . S
N185 C189 1.345 . S
C186 C187 1.387 . S
C186 C190 1.391 . S
C187 C186 1.387 . S
C187 C188 1.369 . S
C187 H196 0.929 . S
C188 N185 1.346 . S
C188 C187 1.369 . S
C188 H191 0.928 . S
C189 N185 1.345 . S
C189 C190 1.371 . S
C189 H192 0.931 . S
C190 C186 1.391 . S
C190 C189 1.371 . S
C190 H197 0.930 . S
H191 C188 0.928 . S
H192 C189 0.931 . S
H193 C169 0.930 . S
H194 C166 0.930 . S
H195 C175 0.930 . S
H196 C187 0.929 . S
H197 C190 0.930 . S
C198 C199 1.351 . S
C198 N201 1.368 . S
C198 H203 0.931 . S
C199 C198 1.351 . S
C199 N200 1.373 . S
C199 H227 0.930 . S
N200 C199 1.373 . S
N200 C202 1.340 . S
N201 C198 1.368 . S
N201 C202 1.321 . S
N201 Co204 2.135 . S
C202 N200 1.340 . S
C202 N201 1.321 . S
C202 H226 0.930 . S
H203 C198 0.931 . S
Co204 N201 2.135 . S
Co204 N207 2.121 . S
Co204 O212 2.055 . S
Co204 O215 2.039 . S
Co204 N218 2.140 . S
C205 O206 1.227 . S
C205 O215 1.265 . S
O206 C205 1.227 . S
N207 Co204 2.121 . S
N207 C209 1.375 . S
N207 C210 1.313 . S
C208 C209 1.338 . S
C208 N211 1.377 . S
C208 H228 0.930 . S
C209 N207 1.375 . S
C209 C208 1.338 . S
C209 H213 0.931 . S
C210 N207 1.313 . S
C210 N211 1.344 . S
C210 H214 0.930 . S
N211 C208 1.377 . S
N211 C210 1.344 . S
O212 Co204 2.055 . S
O212 C216 1.242 1_545 S
H213 C209 0.931 . S
H214 C210 0.930 . S
O215 Co204 2.039 . S
O215 C205 1.265 . S
C216 O212 1.242 1_565 S
C216 O217 1.225 1_565 S
O217 C216 1.225 1_545 S
N218 Co204 2.140 . S
N218 C221 1.346 . S
N218 C222 1.345 . S
C219 C220 1.387 . S
C219 C223 1.391 . S
C220 C219 1.387 . S
C220 C221 1.369 . S
C220 H229 0.929 . S
C221 N218 1.346 . S
C221 C220 1.369 . S
C221 H224 0.928 . S
C222 N218 1.345 . S
C222 C223 1.371 . S
C222 H225 0.931 . S
C223 C219 1.391 . S
C223 C222 1.371 . S
C223 H230 0.930 . S
H224 C221 0.928 . S
H225 C222 0.931 . S
H226 C202 0.930 . S
H227 C199 0.930 . S
H228 C208 0.930 . S
H229 C220 0.929 . S
H230 C223 0.930 . S
C231 C232 1.351 . S
C231 N234 1.368 . S
C231 H236 0.931 . S
C232 C231 1.351 . S
C232 N233 1.373 . S
C232 H260 0.930 . S
N233 C232 1.373 . S
N233 C235 1.340 . S
N234 C231 1.368 . S
N234 C235 1.321 . S
N234 Co237 2.135 . S
C235 N233 1.340 . S
C235 N234 1.321 . S
C235 H259 0.930 . S
H236 C231 0.931 . S
Co237 N234 2.135 . S
Co237 N240 2.121 . S
Co237 O245 2.055 . S
Co237 O248 2.039 . S
Co237 N251 2.140 . S
C238 O239 1.227 . S
C238 O248 1.265 . S
O239 C238 1.227 . S
N240 Co237 2.121 . S
N240 C242 1.375 . S
N240 C243 1.313 . S
C241 C242 1.338 . S
C241 N244 1.377 . S
C241 H261 0.930 . S
C242 N240 1.375 . S
C242 C241 1.338 . S
C242 H246 0.931 . S
C243 N240 1.313 . S
C243 N244 1.344 . S
C243 H247 0.930 . S
N244 C241 1.377 . S
N244 C243 1.344 . S
O245 Co237 2.055 . S
O245 C249 1.253 . S
H246 C242 0.931 . S
H247 C243 0.930 . S
O248 Co237 2.039 . S
O248 C238 1.265 . S
C249 O245 1.253 . S
C249 O250 1.227 . S
O250 C249 1.227 . S
N251 Co237 2.140 . S
N251 C254 1.346 . S
N251 C255 1.345 . S
C252 C253 1.387 . S
C252 C256 1.391 . S
C253 C252 1.387 . S
C253 C254 1.369 . S
C253 H262 0.929 . S
C254 N251 1.346 . S
C254 C253 1.369 . S
C254 H257 0.928 . S
C255 N251 1.345 . S
C255 C256 1.371 . S
C255 H258 0.931 . S
C256 C252 1.391 . S
C256 C255 1.371 . S
C256 H263 0.930 . S
H257 C254 0.928 . S
H258 C255 0.931 . S
H259 C235 0.930 . S
H260 C232 0.930 . S
H261 C241 0.930 . S
H262 C253 0.929 . S
H263 C256 0.930 . S
C264 C265 1.351 . S
C264 N267 1.368 . S
C264 H269 0.931 . S
C265 C264 1.351 . S
C265 N266 1.373 . S
C265 H293 0.930 . S
N266 C265 1.373 . S
N266 C268 1.340 . S
N267 C264 1.368 . S
N267 C268 1.321 . S
N267 Co270 2.135 . S
C268 N266 1.340 . S
C268 N267 1.321 . S
C268 H292 0.930 . S
H269 C264 0.931 . S
Co270 N267 2.135 . S
Co270 N273 2.121 . S
Co270 O278 2.055 . S
Co270 O281 2.039 . S
Co270 N284 2.140 . S
C271 O272 1.227 . S
C271 O281 1.265 . S
O272 C271 1.227 . S
N273 Co270 2.121 . S
N273 C275 1.375 . S
N273 C276 1.313 . S
C274 C275 1.338 . S
C274 N277 1.377 . S
C274 H294 0.930 . S
C275 N273 1.375 . S
C275 C274 1.338 . S
C275 H279 0.931 . S
C276 N273 1.313 . S
C276 N277 1.344 . S
C276 H280 0.930 . S
N277 C274 1.377 . S
N277 C276 1.344 . S
O278 Co270 2.055 . S
O278 C282 1.253 . S
H279 C275 0.931 . S
H280 C276 0.930 . S
O281 Co270 2.039 . S
O281 C271 1.265 . S
C282 O278 1.253 . S
C282 O283 1.227 . S
O283 C282 1.227 . S
N284 Co270 2.140 . S
N284 C287 1.346 . S
N284 C288 1.345 . S
C285 C286 1.387 . S
C285 C289 1.391 . S
C286 C285 1.387 . S
C286 C287 1.369 . S
C286 H295 0.929 . S
C287 N284 1.346 . S
C287 C286 1.369 . S
C287 H290 0.928 . S
C288 N284 1.345 . S
C288 C289 1.371 . S
C288 H291 0.931 . S
C289 C285 1.391 . S
C289 C288 1.371 . S
C289 H296 0.930 . S
H290 C287 0.928 . S
H291 C288 0.931 . S
H292 C268 0.930 . S
H293 C265 0.930 . S
H294 C274 0.930 . S
H295 C286 0.929 . S
H296 C289 0.930 . S
C297 C298 1.351 . S
C297 N300 1.368 . S
C297 H302 0.931 . S
C298 C297 1.351 . S
C298 N299 1.373 . S
C298 H326 0.930 . S
N299 C298 1.373 . S
N299 C301 1.340 . S
N300 C297 1.368 . S
N300 C301 1.321 . S
N300 Co303 2.135 . S
C301 N299 1.340 . S
C301 N300 1.321 . S
C301 H325 0.930 . S
H302 C297 0.931 . S
Co303 N300 2.135 . S
Co303 N306 2.121 . S
Co303 O311 2.055 . S
Co303 O314 2.039 . S
Co303 N317 2.140 . S
C304 O305 1.227 . S
C304 O314 1.265 . S
O305 C304 1.227 . S
N306 Co303 2.121 . S
N306 C308 1.375 . S
N306 C309 1.313 . S
C307 C308 1.338 . S
C307 N310 1.377 . S
C307 H327 0.930 . S
C308 N306 1.375 . S
C308 C307 1.338 . S
C308 H312 0.931 . S
C309 N306 1.313 . S
C309 N310 1.344 . S
C309 H313 0.930 . S
N310 C307 1.377 . S
N310 C309 1.344 . S
O311 Co303 2.055 . S
O311 C315 1.242 1_565 S
H312 C308 0.931 . S
H313 C309 0.930 . S
O314 Co303 2.039 . S
O314 C304 1.265 . S
C315 O311 1.242 1_545 S
C315 O316 1.225 1_545 S
O316 C315 1.225 1_565 S
N317 Co303 2.140 . S
N317 C320 1.346 . S
N317 C321 1.345 . S
C318 C319 1.387 . S
C318 C322 1.391 . S
C319 C318 1.387 . S
C319 C320 1.369 . S
C319 H328 0.929 . S
C320 N317 1.346 . S
C320 C319 1.369 . S
C320 H323 0.928 . S
C321 N317 1.345 . S
C321 C322 1.371 . S
C321 H324 0.931 . S
C322 C318 1.391 . S
C322 C321 1.371 . S
C322 H329 0.930 . S
H323 C320 0.928 . S
H324 C321 0.931 . S
H325 C301 0.930 . S
H326 C298 0.930 . S
H327 C307 0.930 . S
H328 C319 0.929 . S
H329 C322 0.930 . S
C330 C331 1.351 . S
C330 N333 1.368 . S
C330 H335 0.931 . S
C331 C330 1.351 . S
C331 N332 1.373 . S
C331 H359 0.930 . S
N332 C331 1.373 . S
N332 C334 1.340 . S
N333 C330 1.368 . S
N333 C334 1.321 . S
N333 Co336 2.135 . S
C334 N332 1.340 . S
C334 N333 1.321 . S
C334 H358 0.930 . S
H335 C330 0.931 . S
Co336 N333 2.135 . S
Co336 N339 2.121 . S
Co336 O344 2.055 . S
Co336 O347 2.039 . S
Co336 N350 2.140 . S
C337 O338 1.227 . S
C337 O347 1.265 . S
O338 C337 1.227 . S
N339 Co336 2.121 . S
N339 C341 1.375 . S
N339 C342 1.313 . S
C340 C341 1.338 . S
C340 N343 1.377 . S
C340 H360 0.930 . S
C341 N339 1.375 . S
C341 C340 1.338 . S
C341 H345 0.931 . S
C342 N339 1.313 . S
C342 N343 1.344 . S
C342 H346 0.930 . S
N343 C340 1.377 . S
N343 C342 1.344 . S
O344 Co336 2.055 . S
O344 C348 1.253 . S
H345 C341 0.931 . S
H346 C342 0.930 . S
O347 Co336 2.039 . S
O347 C337 1.265 . S
C348 O344 1.253 . S
C348 O349 1.227 . S
O349 C348 1.227 . S
N350 Co336 2.140 . S
N350 C353 1.346 . S
N350 C354 1.345 . S
C351 C352 1.387 . S
C351 C355 1.391 . S
C352 C351 1.387 . S
C352 C353 1.369 . S
C352 H361 0.929 . S
C353 N350 1.346 . S
C353 C352 1.369 . S
C353 H356 0.928 . S
C354 N350 1.345 . S
C354 C355 1.371 . S
C354 H357 0.931 . S
C355 C351 1.391 . S
C355 C354 1.371 . S
C355 H362 0.930 . S
H356 C353 0.928 . S
H357 C354 0.931 . S
H358 C334 0.930 . S
H359 C331 0.930 . S
H360 C340 0.930 . S
H361 C352 0.929 . S
H362 C355 0.930 . S
C363 C364 1.351 . S
C363 N366 1.368 . S
C363 H368 0.931 . S
C364 C363 1.351 . S
C364 N365 1.373 . S
C364 H392 0.930 . S
N365 C364 1.373 . S
N365 C367 1.340 . S
N366 C363 1.368 . S
N366 C367 1.321 . S
N366 Co369 2.135 . S
C367 N365 1.340 . S
C367 N366 1.321 . S
C367 H391 0.930 . S
H368 C363 0.931 . S
Co369 N366 2.135 . S
Co369 N372 2.121 . S
Co369 O377 2.055 . S
Co369 O380 2.039 . S
Co369 N383 2.140 . S
C370 O371 1.227 . S
C370 O380 1.265 . S
O371 C370 1.227 . S
N372 Co369 2.121 . S
N372 C374 1.375 . S
N372 C375 1.313 . S
C373 C374 1.338 . S
C373 N376 1.377 . S
C373 H393 0.930 . S
C374 N372 1.375 . S
C374 C373 1.338 . S
C374 H378 0.931 . S
C375 N372 1.313 . S
C375 N376 1.344 . S
C375 H379 0.930 . S
N376 C373 1.377 . S
N376 C375 1.344 . S
O377 Co369 2.055 . S
O377 C381 1.242 1_545 S
H378 C374 0.931 . S
H379 C375 0.930 . S
O380 Co369 2.039 . S
O380 C370 1.265 . S
C381 O377 1.242 1_565 S
C381 O382 1.225 1_565 S
O382 C381 1.225 1_545 S
N383 Co369 2.140 . S
N383 C386 1.346 . S
N383 C387 1.345 . S
C384 C385 1.387 . S
C384 C388 1.391 . S
C385 C384 1.387 . S
C385 C386 1.369 . S
C385 H394 0.929 . S
C386 N383 1.346 . S
C386 C385 1.369 . S
C386 H389 0.928 . S
C387 N383 1.345 . S
C387 C388 1.371 . S
C387 H390 0.931 . S
C388 C384 1.391 . S
C388 C387 1.371 . S
C388 H395 0.930 . S
H389 C386 0.928 . S
H390 C387 0.931 . S
H391 C367 0.930 . S
H392 C364 0.930 . S
H393 C373 0.930 . S
H394 C385 0.929 . S
H395 C388 0.930 . S
C396 C397 1.351 . S
C396 N399 1.368 . S
C396 H401 0.931 . S
C397 C396 1.351 . S
C397 N398 1.373 . S
C397 H425 0.930 . S
N398 C397 1.373 . S
N398 C400 1.340 . S
N399 C396 1.368 . S
N399 C400 1.321 . S
N399 Co402 2.135 . S
C400 N398 1.340 . S
C400 N399 1.321 . S
C400 H424 0.930 . S
H401 C396 0.931 . S
Co402 N399 2.135 . S
Co402 N405 2.121 . S
Co402 O410 2.055 . S
Co402 O413 2.039 . S
Co402 N416 2.140 . S
C403 O404 1.227 . S
C403 O413 1.265 . S
O404 C403 1.227 . S
N405 Co402 2.121 . S
N405 C407 1.375 . S
N405 C408 1.313 . S
C406 C407 1.338 . S
C406 N409 1.377 . S
C406 H426 0.930 . S
C407 N405 1.375 . S
C407 C406 1.338 . S
C407 H411 0.931 . S
C408 N405 1.313 . S
C408 N409 1.344 . S
C408 H412 0.930 . S
N409 C406 1.377 . S
N409 C408 1.344 . S
O410 Co402 2.055 . S
O410 C414 1.253 . S
H411 C407 0.931 . S
H412 C408 0.930 . S
O413 Co402 2.039 . S
O413 C403 1.265 . S
C414 O410 1.253 . S
C414 O415 1.227 . S
O415 C414 1.227 . S
N416 Co402 2.140 . S
N416 C419 1.346 . S
N416 C420 1.345 . S
C417 C418 1.387 . S
C417 C421 1.391 . S
C418 C417 1.387 . S
C418 C419 1.369 . S
C418 H427 0.929 . S
C419 N416 1.346 . S
C419 C418 1.369 . S
C419 H422 0.928 . S
C420 N416 1.345 . S
C420 C421 1.371 . S
C420 H423 0.931 . S
C421 C417 1.391 . S
C421 C420 1.371 . S
C421 H428 0.930 . S
H422 C419 0.928 . S
H423 C420 0.931 . S
H424 C400 0.930 . S
H425 C397 0.930 . S
H426 C406 0.930 . S
H427 C418 0.929 . S
H428 C421 0.930 . S
C429 C430 1.351 . S
C429 N432 1.368 . S
C429 H434 0.931 . S
C430 C429 1.351 . S
C430 N431 1.373 . S
C430 H458 0.930 . S
N431 C430 1.373 . S
N431 C433 1.340 . S
N432 C429 1.368 . S
N432 C433 1.321 . S
N432 Co435 2.135 . S
C433 N431 1.340 . S
C433 N432 1.321 . S
C433 H457 0.930 . S
H434 C429 0.931 . S
Co435 N432 2.135 . S
Co435 N438 2.121 . S
Co435 O443 2.055 . S
Co435 O446 2.039 . S
Co435 N449 2.140 . S
C436 O437 1.227 . S
C436 O446 1.265 . S
O437 C436 1.227 . S
N438 Co435 2.121 . S
N438 C440 1.375 . S
N438 C441 1.313 . S
C439 C440 1.338 . S
C439 N442 1.377 . S
C439 H459 0.930 . S
C440 N438 1.375 . S
C440 C439 1.338 . S
C440 H444 0.931 . S
C441 N438 1.313 . S
C441 N442 1.344 . S
C441 H445 0.930 . S
N442 C439 1.377 . S
N442 C441 1.344 . S
O443 Co435 2.055 . S
O443 C447 1.242 1_545 S
H444 C440 0.931 . S
H445 C441 0.930 . S
O446 Co435 2.039 . S
O446 C436 1.265 . S
C447 O443 1.242 1_565 S
C447 O448 1.225 1_565 S
O448 C447 1.225 1_545 S
N449 Co435 2.140 . S
N449 C452 1.346 . S
N449 C453 1.345 . S
C450 C451 1.387 . S
C450 C454 1.391 . S
C451 C450 1.387 . S
C451 C452 1.369 . S
C451 H460 0.929 . S
C452 N449 1.346 . S
C452 C451 1.369 . S
C452 H455 0.928 . S
C453 N449 1.345 . S
C453 C454 1.371 . S
C453 H456 0.931 . S
C454 C450 1.391 . S
C454 C453 1.371 . S
C454 H461 0.930 . S
H455 C452 0.928 . S
H456 C453 0.931 . S
H457 C433 0.930 . S
H458 C430 0.930 . S
H459 C439 0.930 . S
H460 C451 0.929 . S
H461 C454 0.930 . S
C462 C463 1.351 . S
C462 N465 1.368 . S
C462 H467 0.931 . S
C463 C462 1.351 . S
C463 N464 1.373 . S
C463 H491 0.930 . S
N464 C463 1.373 . S
N464 C466 1.340 . S
N465 C462 1.368 . S
N465 C466 1.321 . S
N465 Co468 2.135 . S
C466 N464 1.340 . S
C466 N465 1.321 . S
C466 H490 0.930 . S
H467 C462 0.931 . S
Co468 N465 2.135 . S
Co468 N471 2.121 . S
Co468 O476 2.055 . S
Co468 O479 2.039 . S
Co468 N482 2.140 . S
C469 O470 1.227 . S
C469 O479 1.265 . S
O470 C469 1.227 . S
N471 Co468 2.121 . S
N471 C473 1.375 . S
N471 C474 1.313 . S
C472 C473 1.338 . S
C472 N475 1.377 . S
C472 H492 0.930 . S
C473 N471 1.375 . S
C473 C472 1.338 . S
C473 H477 0.931 . S
C474 N471 1.313 . S
C474 N475 1.344 . S
C474 H478 0.930 . S
N475 C472 1.377 . S
N475 C474 1.344 . S
O476 Co468 2.055 . S
O476 C480 1.253 . S
H477 C473 0.931 . S
H478 C474 0.930 . S
O479 Co468 2.039 . S
O479 C469 1.265 . S
C480 O476 1.253 . S
C480 O481 1.227 . S
O481 C480 1.227 . S
N482 Co468 2.140 . S
N482 C485 1.346 . S
N482 C486 1.345 . S
C483 C484 1.387 . S
C483 C487 1.391 . S
C484 C483 1.387 . S
C484 C485 1.369 . S
C484 H493 0.929 . S
C485 N482 1.346 . S
C485 C484 1.369 . S
C485 H488 0.928 . S
C486 N482 1.345 . S
C486 C487 1.371 . S
C486 H489 0.931 . S
C487 C483 1.391 . S
C487 C486 1.371 . S
C487 H494 0.930 . S
H488 C485 0.928 . S
H489 C486 0.931 . S
H490 C466 0.930 . S
H491 C463 0.930 . S
H492 C472 0.930 . S
H493 C484 0.929 . S
H494 C487 0.930 . S
C495 C496 1.351 . S
C495 N498 1.368 . S
C495 H500 0.931 . S
C496 C495 1.351 . S
C496 N497 1.373 . S
C496 H524 0.930 . S
N497 C496 1.373 . S
N497 C499 1.340 . S
N498 C495 1.368 . S
N498 C499 1.321 . S
N498 Co501 2.135 . S
C499 N497 1.340 . S
C499 N498 1.321 . S
C499 H523 0.930 . S
H500 C495 0.931 . S
Co501 N498 2.135 . S
Co501 N504 2.121 . S
Co501 O509 2.055 . S
Co501 O512 2.039 . S
Co501 N515 2.140 . S
C502 O503 1.227 . S
C502 O512 1.265 . S
O503 C502 1.227 . S
N504 Co501 2.121 . S
N504 C506 1.375 . S
N504 C507 1.313 . S
C505 C506 1.338 . S
C505 N508 1.377 . S
C505 H525 0.930 . S
C506 N504 1.375 . S
C506 C505 1.338 . S
C506 H510 0.931 . S
C507 N504 1.313 . S
C507 N508 1.344 . S
C507 H511 0.930 . S
N508 C505 1.377 . S
N508 C507 1.344 . S
O509 Co501 2.055 . S
O509 C513 1.242 1_565 S
H510 C506 0.931 . S
H511 C507 0.930 . S
O512 Co501 2.039 . S
O512 C502 1.265 . S
C513 O509 1.242 1_545 S
C513 O514 1.225 1_545 S
O514 C513 1.225 1_565 S
N515 Co501 2.140 . S
N515 C518 1.346 . S
N515 C519 1.345 . S
C516 C517 1.387 . S
C516 C520 1.391 . S
C517 C516 1.387 . S
C517 C518 1.369 . S
C517 H526 0.929 . S
C518 N515 1.346 . S
C518 C517 1.369 . S
C518 H521 0.928 . S
C519 N515 1.345 . S
C519 C520 1.371 . S
C519 H522 0.931 . S
C520 C516 1.391 . S
C520 C519 1.371 . S
C520 H527 0.930 . S
H521 C518 0.928 . S
H522 C519 0.931 . S
H523 C499 0.930 . S
H524 C496 0.930 . S
H525 C505 0.930 . S
H526 C517 0.929 . S
H527 C520 0.930 . S
C528 C529 1.387 . S
C528 H532 0.950 . S
C528 C537 1.390 . S
C529 C528 1.387 . S
C529 C531 1.387 . S
H530 C537 0.950 . S
C531 C529 1.387 . S
C531 C533 1.390 . S
C531 H535 0.950 . S
H532 C528 0.950 . S
C533 C531 1.390 . S
C533 C534 1.387 . S
C533 H536 0.950 . S
C534 C533 1.387 . S
C534 C537 1.387 . S
H535 C531 0.950 . S
H536 C533 0.950 . S
C537 C528 1.390 . S
C537 H530 0.950 . S
C537 C534 1.387 . S
C538 C539 1.387 . S
C538 H542 0.950 . S
C538 C547 1.390 . S
C539 C538 1.387 . S
C539 C541 1.387 . S
H540 C547 0.950 . S
C541 C539 1.387 . S
C541 C543 1.390 . S
C541 H545 0.950 . S
H542 C538 0.950 . S
C543 C541 1.390 . S
C543 C544 1.387 . S
C543 H546 0.950 . S
C544 C543 1.387 . S
C544 C547 1.387 . S
H545 C541 0.950 . S
H546 C543 0.950 . S
C547 C538 1.390 . S
C547 H540 0.950 . S
C547 C544 1.387 . S
C548 C549 1.387 . S
C548 H552 0.950 . S
C548 C557 1.390 . S
C549 C548 1.387 . S
C549 C551 1.387 . S
H550 C557 0.950 . S
C551 C549 1.387 . S
C551 C553 1.390 . S
C551 H555 0.950 . S
H552 C548 0.950 . S
C553 C551 1.390 . S
C553 C554 1.387 . S
C553 H556 0.950 . S
C554 C553 1.387 . S
C554 C557 1.387 . S
H555 C551 0.950 . S
H556 C553 0.950 . S
C557 C548 1.390 . S
C557 H550 0.950 . S
C557 C554 1.387 . S
C558 C559 1.387 . S
C558 H562 0.950 . S
C558 C567 1.390 . S
C559 C558 1.387 . S
C559 C561 1.387 . S
H560 C567 0.950 . S
C561 C559 1.387 . S
C561 C563 1.390 . S
C561 H565 0.950 . S
H562 C558 0.950 . S
C563 C561 1.390 . S
C563 C564 1.387 . S
C563 H566 0.950 . S
C564 C563 1.387 . S
C564 C567 1.387 . S
H565 C561 0.950 . S
H566 C563 0.950 . S
C567 C558 1.390 . S
C567 H560 0.950 . S
C567 C564 1.387 . S
C568 C569 1.387 . S
C568 H572 0.950 . S
C568 C577 1.390 . S
C569 C568 1.387 . S
C569 C571 1.387 . S
H570 C577 0.950 . S
C571 C569 1.387 . S
C571 C573 1.390 . S
C571 H575 0.950 . S
H572 C568 0.950 . S
C573 C571 1.390 . S
C573 C574 1.387 . S
C573 H576 0.950 . S
C574 C573 1.387 . S
C574 C577 1.387 . S
H575 C571 0.950 . S
H576 C573 0.950 . S
C577 C568 1.390 . S
C577 H570 0.950 . S
C577 C574 1.387 . S
C578 C579 1.387 . S
C578 H582 0.950 . S
C578 C587 1.390 . S
C579 C578 1.387 . S
C579 C581 1.387 . S
H580 C587 0.950 . S
C581 C579 1.387 . S
C581 C583 1.390 . S
C581 H585 0.950 . S
H582 C578 0.950 . S
C583 C581 1.390 . S
C583 C584 1.387 . S
C583 H586 0.950 . S
C584 C583 1.387 . S
C584 C587 1.387 . S
H585 C581 0.950 . S
H586 C583 0.950 . S
C587 C578 1.390 . S
C587 H580 0.950 . S
C587 C584 1.387 . S
C588 C589 1.387 . S
C588 H592 0.950 . S
C588 C597 1.390 . S
C589 C588 1.387 . S
C589 C591 1.387 . S
H590 C597 0.950 . S
C591 C589 1.387 . S
C591 C593 1.390 . S
C591 H595 0.950 . S
H592 C588 0.950 . S
C593 C591 1.390 . S
C593 C594 1.387 . S
C593 H596 0.950 . S
C594 C593 1.387 . S
C594 C597 1.387 . S
H595 C591 0.950 . S
H596 C593 0.950 . S
C597 C588 1.390 . S
C597 H590 0.950 . S
C597 C594 1.387 . S
C598 C599 1.387 . S
C598 H602 0.950 . S
C598 C607 1.390 . S
C599 C598 1.387 . S
C599 C601 1.387 . S
H600 C607 0.950 . S
C601 C599 1.387 . S
C601 C603 1.390 . S
C601 H605 0.950 . S
H602 C598 0.950 . S
C603 C601 1.390 . S
C603 C604 1.387 . S
C603 H606 0.950 . S
C604 C603 1.387 . S
C604 C607 1.387 . S
H605 C601 0.950 . S
H606 C603 0.950 . S
C607 C598 1.390 . S
C607 H600 0.950 . S
C607 C604 1.387 . S
C608 C609 1.387 . S
C608 H612 0.950 . S
C608 C617 1.390 . S
C609 C608 1.387 . S
C609 C611 1.387 . S
H610 C617 0.950 . S
C611 C609 1.387 . S
C611 C613 1.390 . S
C611 H615 0.950 . S
H612 C608 0.950 . S
C613 C611 1.390 . S
C613 C614 1.387 . S
C613 H616 0.950 . S
C614 C613 1.387 . S
C614 C617 1.387 . S
H615 C611 0.950 . S
H616 C613 0.950 . S
C617 C608 1.390 . S
C617 H610 0.950 . S
C617 C614 1.387 . S
C618 C619 1.387 . S
C618 H622 0.950 . S
C618 C627 1.390 . S
C619 C618 1.387 . S
C619 C621 1.387 . S
H620 C627 0.950 . S
C621 C619 1.387 . S
C621 C623 1.390 . S
C621 H625 0.950 . S
H622 C618 0.950 . S
C623 C621 1.390 . S
C623 C624 1.387 . S
C623 H626 0.950 . S
C624 C623 1.387 . S
C624 C627 1.387 . S
H625 C621 0.950 . S
H626 C623 0.950 . S
C627 C618 1.390 . S
C627 H620 0.950 . S
C627 C624 1.387 . S
C628 C629 1.387 . S
C628 H632 0.950 . S
C628 C637 1.390 . S
C629 C628 1.387 . S
C629 C631 1.387 . S
H630 C637 0.950 . S
C631 C629 1.387 . S
C631 C633 1.390 . S
C631 H635 0.950 . S
H632 C628 0.950 . S
C633 C631 1.390 . S
C633 C634 1.387 . S
C633 H636 0.950 . S
C634 C633 1.387 . S
C634 C637 1.387 . S
H635 C631 0.950 . S
H636 C633 0.950 . S
C637 C628 1.390 . S
C637 H630 0.950 . S
C637 C634 1.387 . S
C638 C639 1.387 . S
C638 H642 0.950 . S
C638 C647 1.390 . S
C639 C638 1.387 . S
C639 C641 1.387 . S
H640 C647 0.950 . S
C641 C639 1.387 . S
C641 C643 1.390 . S
C641 H645 0.950 . S
H642 C638 0.950 . S
C643 C641 1.390 . S
C643 C644 1.387 . S
C643 H646 0.950 . S
C644 C643 1.387 . S
C644 C647 1.387 . S
H645 C641 0.950 . S
H646 C643 0.950 . S
C647 C638 1.390 . S
C647 H640 0.950 . S
C647 C644 1.387 . S
C648 C649 1.387 . S
C648 H652 0.950 . S
C648 C657 1.390 . S
C649 C648 1.387 . S
C649 C651 1.387 . S
H650 C657 0.950 . S
C651 C649 1.387 . S
C651 C653 1.390 . S
C651 H655 0.950 . S
H652 C648 0.950 . S
C653 C651 1.390 . S
C653 C654 1.387 . S
C653 H656 0.950 . S
C654 C653 1.387 . S
C654 C657 1.387 . S
H655 C651 0.950 . S
H656 C653 0.950 . S
C657 C648 1.390 . S
C657 H650 0.950 . S
C657 C654 1.387 . S
C658 C659 1.387 . S
C658 H662 0.950 . S
C658 C667 1.390 . S
C659 C658 1.387 . S
C659 C661 1.387 . S
H660 C667 0.950 . S
C661 C659 1.387 . S
C661 C663 1.390 . S
C661 H665 0.950 . S
H662 C658 0.950 . S
C663 C661 1.390 . S
C663 C664 1.387 . S
C663 H666 0.950 . S
C664 C663 1.387 . S
C664 C667 1.387 . S
H665 C661 0.950 . S
H666 C663 0.950 . S
C667 C658 1.390 . S
C667 H660 0.950 . S
C667 C664 1.387 . S
C668 C669 1.387 . S
C668 H672 0.950 . S
C668 C677 1.390 . S
C669 C668 1.387 . S
C669 C671 1.387 . S
H670 C677 0.950 . S
C671 C669 1.387 . S
C671 C673 1.390 . S
C671 H675 0.950 . S
H672 C668 0.950 . S
C673 C671 1.390 . S
C673 C674 1.387 . S
C673 H676 0.950 . S
C674 C673 1.387 . S
C674 C677 1.387 . S
H675 C671 0.950 . S
H676 C673 0.950 . S
C677 C668 1.390 . S
C677 H670 0.950 . S
C677 C674 1.387 . S
C678 C679 1.387 . S
C678 H682 0.950 . S
C678 C687 1.390 . S
C679 C678 1.387 . S
C679 C681 1.387 . S
H680 C687 0.950 . S
C681 C679 1.387 . S
C681 C683 1.390 . S
C681 H685 0.950 . S
H682 C678 0.950 . S
C683 C681 1.390 . S
C683 C684 1.387 . S
C683 H686 0.950 . S
C684 C683 1.387 . S
C684 C687 1.387 . S
H685 C681 0.950 . S
H686 C683 0.950 . S
C687 C678 1.390 . S
C687 H680 0.950 . S
C687 C684 1.387 . S
C688 C689 1.387 . S
C688 H692 0.950 . S
C688 C697 1.390 1_554 S
C689 C688 1.387 . S
C689 C691 1.387 . S
H690 C697 0.950 . S
C691 C689 1.387 . S
C691 C693 1.390 1_554 S
C691 H695 0.950 . S
H692 C688 0.950 . S
C693 C691 1.390 1_556 S
C693 C694 1.387 . S
C693 H696 0.950 . S
C694 C693 1.387 . S
C694 C697 1.387 . S
H695 C691 0.950 . S
H696 C693 0.950 . S
C697 C688 1.390 1_556 S
C697 H690 0.950 . S
C697 C694 1.387 . S
C698 C699 1.387 . S
C698 H702 0.950 . S
C698 C707 1.390 1_556 S
C699 C698 1.387 . S
C699 C701 1.387 . S
H700 C707 0.950 . S
C701 C699 1.387 . S
C701 C703 1.390 1_556 S
C701 H705 0.950 . S
H702 C698 0.950 . S
C703 C701 1.390 1_554 S
C703 C704 1.387 . S
C703 H706 0.950 . S
C704 C703 1.387 . S
C704 C707 1.387 . S
H705 C701 0.950 . S
H706 C703 0.950 . S
C707 C698 1.390 1_554 S
C707 H700 0.950 . S
C707 C704 1.387 . S
C708 C709 1.387 . S
C708 H712 0.950 . S
C708 C717 1.390 . S
C709 C708 1.387 . S
C709 C711 1.387 . S
H710 C717 0.950 . S
C711 C709 1.387 . S
C711 C713 1.390 . S
C711 H715 0.950 . S
H712 C708 0.950 . S
C713 C711 1.390 . S
C713 C714 1.387 . S
C713 H716 0.950 . S
C714 C713 1.387 . S
C714 C717 1.387 . S
H715 C711 0.950 . S
H716 C713 0.950 . S
C717 C708 1.390 . S
C717 H710 0.950 . S
C717 C714 1.387 . S
C718 C719 1.387 . S
C718 H722 0.950 . S
C718 C727 1.390 . S
C719 C718 1.387 . S
C719 C721 1.387 . S
H720 C727 0.950 . S
C721 C719 1.387 . S
C721 C723 1.390 . S
C721 H725 0.950 . S
H722 C718 0.950 . S
C723 C721 1.390 . S
C723 C724 1.387 . S
C723 H726 0.950 . S
C724 C723 1.387 . S
C724 C727 1.387 . S
H725 C721 0.950 . S
H726 C723 0.950 . S
C727 C718 1.390 . S
C727 H720 0.950 . S
C727 C724 1.387 . S
C728 C729 1.387 . S
C728 H732 0.950 . S
C728 C737 1.390 1_556 S
C729 C728 1.387 . S
C729 C731 1.387 . S
H730 C737 0.950 . S
C731 C729 1.387 . S
C731 C733 1.390 1_556 S
C731 H735 0.950 . S
H732 C728 0.950 . S
C733 C731 1.390 1_554 S
C733 C734 1.387 . S
C733 H736 0.950 . S
C734 C733 1.387 . S
C734 C737 1.387 . S
H735 C731 0.950 . S
H736 C733 0.950 . S
C737 C728 1.390 1_554 S
C737 H730 0.950 . S
C737 C734 1.387 . S
C738 C739 1.387 . S
C738 H742 0.950 . S
C738 C747 1.390 1_554 S
C739 C738 1.387 . S
C739 C741 1.387 . S
H740 C747 0.950 . S
C741 C739 1.387 . S
C741 C743 1.390 1_554 S
C741 H745 0.950 . S
H742 C738 0.950 . S
C743 C741 1.390 1_556 S
C743 C744 1.387 . S
C743 H746 0.950 . S
C744 C743 1.387 . S
C744 C747 1.387 . S
H745 C741 0.950 . S
H746 C743 0.950 . S
C747 C738 1.390 1_556 S
C747 H740 0.950 . S
C747 C744 1.387 . S
C748 C749 1.387 . S
C748 H752 0.950 . S
C748 C757 1.390 . S
C749 C748 1.387 . S
C749 C751 1.387 . S
H750 C757 0.950 . S
C751 C749 1.387 . S
C751 C753 1.390 . S
C751 H755 0.950 . S
H752 C748 0.950 . S
C753 C751 1.390 . S
C753 C754 1.387 . S
C753 H756 0.950 . S
C754 C753 1.387 . S
C754 C757 1.387 . S
H755 C751 0.950 . S
H756 C753 0.950 . S
C757 C748 1.390 . S
C757 H750 0.950 . S
C757 C754 1.387 . S
C758 C759 1.387 . S
C758 H762 0.950 . S
C758 C767 1.390 . S
C759 C758 1.387 . S
C759 C761 1.387 . S
H760 C767 0.950 . S
C761 C759 1.387 . S
C761 C763 1.390 . S
C761 H765 0.950 . S
H762 C758 0.950 . S
C763 C761 1.390 . S
C763 C764 1.387 . S
C763 H766 0.950 . S
C764 C763 1.387 . S
C764 C767 1.387 . S
H765 C761 0.950 . S
H766 C763 0.950 . S
C767 C758 1.390 . S
C767 H760 0.950 . S
C767 C764 1.387 . S
C768 C769 1.387 . S
C768 H772 0.950 . S
C768 C777 1.390 1_545 S
C769 C768 1.387 . S
C769 C771 1.387 . S
H770 C777 0.950 . S
C771 C769 1.387 . S
C771 C773 1.390 1_545 S
C771 H775 0.950 . S
H772 C768 0.950 . S
C773 C771 1.390 1_565 S
C773 C774 1.387 . S
C773 H776 0.950 . S
C774 C773 1.387 . S
C774 C777 1.387 . S
H775 C771 0.950 . S
H776 C773 0.950 . S
C777 C768 1.390 1_565 S
C777 H770 0.950 . S
C777 C774 1.387 . S
C778 C779 1.387 . S
C778 H782 0.950 . S
C778 C787 1.390 . S
C779 C778 1.387 . S
C779 C781 1.387 . S
H780 C787 0.950 . S
C781 C779 1.387 . S
C781 C783 1.390 . S
C781 H785 0.950 . S
H782 C778 0.950 . S
C783 C781 1.390 . S
C783 C784 1.387 . S
C783 H786 0.950 . S
C784 C783 1.387 . S
C784 C787 1.387 . S
H785 C781 0.950 . S
H786 C783 0.950 . S
C787 C778 1.390 . S
C787 H780 0.950 . S
C787 C784 1.387 . S
C788 C789 1.387 . S
C788 H792 0.950 . S
C788 C797 1.390 1_565 S
C789 C788 1.387 . S
C789 C791 1.387 . S
H790 C797 0.950 . S
C791 C789 1.387 . S
C791 C793 1.390 1_565 S
C791 H795 0.950 . S
H792 C788 0.950 . S
C793 C791 1.390 1_545 S
C793 C794 1.387 . S
C793 H796 0.950 . S
C794 C793 1.387 . S
C794 C797 1.387 . S
H795 C791 0.950 . S
H796 C793 0.950 . S
C797 C788 1.390 1_545 S
C797 H790 0.950 . S
C797 C794 1.387 . S
C798 C799 1.387 . S
C798 H802 0.950 . S
C798 C807 1.390 . S
C799 C798 1.387 . S
C799 C801 1.387 . S
H800 C807 0.950 . S
C801 C799 1.387 . S
C801 C803 1.390 . S
C801 H805 0.950 . S
H802 C798 0.950 . S
C803 C801 1.390 . S
C803 C804 1.387 . S
C803 H806 0.950 . S
C804 C803 1.387 . S
C804 C807 1.387 . S
H805 C801 0.950 . S
H806 C803 0.950 . S
C807 C798 1.390 . S
C807 H800 0.950 . S
C807 C804 1.387 . S
C808 C809 1.387 . S
C808 H812 0.950 . S
C808 C817 1.390 . S
C809 C808 1.387 . S
C809 C811 1.387 . S
H810 C817 0.950 . S
C811 C809 1.387 . S
C811 C813 1.390 . S
C811 H815 0.950 . S
H812 C808 0.950 . S
C813 C811 1.390 . S
C813 C814 1.387 . S
C813 H816 0.950 . S
C814 C813 1.387 . S
C814 C817 1.387 . S
H815 C811 0.950 . S
H816 C813 0.950 . S
C817 C808 1.390 . S
C817 H810 0.950 . S
C817 C814 1.387 . S
C818 C819 1.387 . S
C818 H822 0.950 . S
C818 C827 1.390 1_545 S
C819 C818 1.387 . S
C819 C821 1.387 . S
H820 C827 0.950 . S
C821 C819 1.387 . S
C821 C823 1.390 1_545 S
C821 H825 0.950 . S
H822 C818 0.950 . S
C823 C821 1.390 1_565 S
C823 C824 1.387 . S
C823 H826 0.950 . S
C824 C823 1.387 . S
C824 C827 1.387 . S
H825 C821 0.950 . S
H826 C823 0.950 . S
C827 C818 1.390 1_565 S
C827 H820 0.950 . S
C827 C824 1.387 . S
C828 C829 1.387 . S
C828 H832 0.950 . S
C828 C837 1.390 . S
C829 C828 1.387 . S
C829 C831 1.387 . S
H830 C837 0.950 . S
C831 C829 1.387 . S
C831 C833 1.390 . S
C831 H835 0.950 . S
H832 C828 0.950 . S
C833 C831 1.390 . S
C833 C834 1.387 . S
C833 H836 0.950 . S
C834 C833 1.387 . S
C834 C837 1.387 . S
H835 C831 0.950 . S
H836 C833 0.950 . S
C837 C828 1.390 . S
C837 H830 0.950 . S
C837 C834 1.387 . S
C838 C839 1.387 . S
C838 H842 0.950 . S
C838 C847 1.390 1_545 S
C839 C838 1.387 . S
C839 C841 1.387 . S
H840 C847 0.950 . S
C841 C839 1.387 . S
C841 C843 1.390 1_545 S
C841 H845 0.950 . S
H842 C838 0.950 . S
C843 C841 1.390 1_565 S
C843 C844 1.387 . S
C843 H846 0.950 . S
C844 C843 1.387 . S
C844 C847 1.387 . S
H845 C841 0.950 . S
H846 C843 0.950 . S
C847 C838 1.390 1_565 S
C847 H840 0.950 . S
C847 C844 1.387 . S
C848 C849 1.387 . S
C848 H852 0.950 . S
C848 C857 1.390 . S
C849 C848 1.387 . S
C849 C851 1.387 . S
H850 C857 0.950 . S
C851 C849 1.387 . S
C851 C853 1.390 . S
C851 H855 0.950 . S
H852 C848 0.950 . S
C853 C851 1.390 . S
C853 C854 1.387 . S
C853 H856 0.950 . S
C854 C853 1.387 . S
C854 C857 1.387 . S
H855 C851 0.950 . S
H856 C853 0.950 . S
C857 C848 1.390 . S
C857 H850 0.950 . S
C857 C854 1.387 . S
C858 C859 1.387 . S
C858 H862 0.950 . S
C858 C867 1.390 . S
C859 C858 1.387 . S
C859 C861 1.387 . S
H860 C867 0.950 . S
C861 C859 1.387 . S
C861 C863 1.390 . S
C861 H865 0.950 . S
H862 C858 0.950 . S
C863 C861 1.390 . S
C863 C864 1.387 . S
C863 H866 0.950 . S
C864 C863 1.387 . S
C864 C867 1.387 . S
H865 C861 0.950 . S
H866 C863 0.950 . S
C867 C858 1.390 . S
C867 H860 0.950 . S
C867 C864 1.387 . S
C868 C869 1.387 . S
C868 H872 0.950 . S
C868 C877 1.390 . S
C869 C868 1.387 . S
C869 C871 1.387 . S
H870 C877 0.950 . S
C871 C869 1.387 . S
C871 C873 1.390 . S
C871 H875 0.950 . S
H872 C868 0.950 . S
C873 C871 1.390 . S
C873 C874 1.387 . S
C873 H876 0.950 . S
C874 C873 1.387 . S
C874 C877 1.387 . S
H875 C871 0.950 . S
H876 C873 0.950 . S
C877 C868 1.390 . S
C877 H870 0.950 . S
C877 C874 1.387 . S
C878 C879 1.387 . S
C878 H882 0.950 . S
C878 C887 1.390 . S
C879 C878 1.387 . S
C879 C881 1.387 . S
H880 C887 0.950 . S
C881 C879 1.387 . S
C881 C883 1.390 . S
C881 H885 0.950 . S
H882 C878 0.950 . S
C883 C881 1.390 . S
C883 C884 1.387 . S
C883 H886 0.950 . S
C884 C883 1.387 . S
C884 C887 1.387 . S
H885 C881 0.950 . S
H886 C883 0.950 . S
C887 C878 1.390 . S
C887 H880 0.950 . S
C887 C884 1.387 . S
C888 C889 1.387 . S
C888 H892 0.950 . S
C888 C897 1.390 1_655 S
C889 C888 1.387 . S
C889 C891 1.387 . S
H890 C897 0.950 . S
C891 C889 1.387 . S
C891 C893 1.390 1_655 S
C891 H895 0.950 . S
H892 C888 0.950 . S
C893 C891 1.390 1_455 S
C893 C894 1.387 . S
C893 H896 0.950 . S
C894 C893 1.387 . S
C894 C897 1.387 . S
H895 C891 0.950 . S
H896 C893 0.950 . S
C897 C888 1.390 1_455 S
C897 H890 0.950 . S
C897 C894 1.387 . S
C898 C899 1.387 . S
C898 H902 0.950 . S
C898 C907 1.390 1_455 S
C899 C898 1.387 . S
C899 C901 1.387 . S
H900 C907 0.950 . S
C901 C899 1.387 . S
C901 C903 1.390 1_455 S
C901 H905 0.950 . S
H902 C898 0.950 . S
C903 C901 1.390 1_655 S
C903 C904 1.387 . S
C903 H906 0.950 . S
C904 C903 1.387 . S
C904 C907 1.387 . S
H905 C901 0.950 . S
H906 C903 0.950 . S
C907 C898 1.390 1_655 S
C907 H900 0.950 . S
C907 C904 1.387 . S
C908 C909 1.387 . S
C908 H912 0.950 . S
C908 C917 1.390 1_455 S
C909 C908 1.387 . S
C909 C911 1.387 . S
H910 C917 0.950 . S
C911 C909 1.387 . S
C911 C913 1.390 1_455 S
C911 H915 0.950 . S
H912 C908 0.950 . S
C913 C911 1.390 1_655 S
C913 C914 1.387 . S
C913 H916 0.950 . S
C914 C913 1.387 . S
C914 C917 1.387 . S
H915 C911 0.950 . S
H916 C913 0.950 . S
C917 C908 1.390 1_655 S
C917 H910 0.950 . S
C917 C914 1.387 . S
C918 C919 1.387 . S
C918 H922 0.950 . S
C918 C927 1.390 1_655 S
C919 C918 1.387 . S
C919 C921 1.387 . S
H920 C927 0.950 . S
C921 C919 1.387 . S
C921 C923 1.390 1_655 S
C921 H925 0.950 . S
H922 C918 0.950 . S
C923 C921 1.390 1_455 S
C923 C924 1.387 . S
C923 H926 0.950 . S
C924 C923 1.387 . S
C924 C927 1.387 . S
H925 C921 0.950 . S
H926 C923 0.950 . S
C927 C918 1.390 1_455 S
C927 H920 0.950 . S
C927 C924 1.387 . S
C529 C18 0.991 . S
C534 C469 0.961 . S
C539 C51 0.979 . S
C544 C502 0.965 . S
C549 C84 0.991 . S
C554 C403 0.962 . S
C559 C436 0.961 . S
C564 C117 0.978 . S
C569 C150 0.991 . S
C574 C337 0.961 . S
C579 C183 0.979 . S
C584 C370 0.964 . S
C589 C216 0.991 . S
C594 C271 0.961 . S
C599 C304 0.961 . S
C604 C249 0.978 . S
C609 C282 0.979 . S
C614 C205 0.962 . S
C619 C238 0.962 . S
C624 C315 0.991 . S
C629 C348 0.978 . S
C634 C139 0.961 . S
C639 C381 0.992 . S
C644 C172 0.964 . S
C649 C414 0.979 . S
C654 C73 0.964 . S
C659 C447 0.992 . S
C664 C106 0.964 . S
C669 C7 0.964 . S
C674 C480 0.979 . S
C679 C40 0.965 . S
C684 C513 0.992 . S
C689 N2 1.629 . S
C694 N365 1.629 . S
C699 N332 1.631 . S
C704 N35 1.631 . S
C709 N68 1.631 . S
C714 N299 1.631 . S
C719 N266 1.631 . S
C724 N101 1.631 . S
C729 N134 1.629 . S
C734 N497 1.629 . S
C739 N464 1.629 . S
C744 N167 1.629 . S
C749 N200 1.631 . S
C754 N431 1.631 . S
C759 N233 1.631 . S
C764 N398 1.631 . S
C769 N13 1.833 . S
C774 N79 1.833 . S
C779 N46 1.833 . S
C784 N112 1.833 . S
C789 N145 1.834 . S
C794 N211 1.834 . S
C799 N244 1.834 . S
C804 N178 1.834 . S
C809 N343 1.833 . S
C814 N277 1.833 . S
C819 N376 1.833 . S
C824 N310 1.833 . S
C829 N409 1.833 . S
C834 N475 1.833 . S
C839 N442 1.834 . S
C844 N508 1.834 . S
C849 C54 1.602 . S
C854 C21 1.602 . S
C859 C87 1.605 . S
C864 C120 1.605 . S
C869 C153 1.605 . S
C874 C186 1.605 . S
C879 C252 1.602 . S
C884 C219 1.602 . S
C889 C285 1.602 . S
C894 C318 1.602 . S
C899 C384 1.602 . S
C904 C351 1.602 . S
C909 C417 1.605 . S
C914 C450 1.605 . S
C919 C516 1.605 . S
C924 C483 1.605 . S
