# Generated by pormake.
# Topology xfy, (5)-cn, num edge types: 1
# Building blocks:
#     Node 0, Type 0, BuildingBlock: BEQFEK_clean_sbu_0, # of connection points: 5
#     Node 1, Type 0, BuildingBlock: BEQFEK_clean_sbu_0, # of connection points: 5
#     Node 2, Type 0, BuildingBlock: BEQFEK_clean_sbu_0, # of connection points: 5
#     Node 3, Type 0, BuildingBlock: BEQFEK_clean_sbu_0, # of connection points: 5
#     Node 4, Type 0, BuildingBlock: BEQFEK_clean_sbu_0, # of connection points: 5
#     Node 5, Type 0, BuildingBlock: BEQFEK_clean_sbu_0, # of connection points: 5
#     Node 6, Type 0, BuildingBlock: BEQFEK_clean_sbu_0, # of connection points: 5
#     Node 7, Type 0, BuildingBlock: BEQFEK_clean_sbu_0, # of connection points: 5
#     Edge 8, Type (0, 0), BuildingBlock: CIFDUS_clean_linker_0, # of connection points: 2
#     Edge 9, Type (0, 0), BuildingBlock: CIFDUS_clean_linker_0, # of connection points: 2
#     Edge 10, Type (0, 0), BuildingBlock: CIFDUS_clean_linker_0, # of connection points: 2
#     Edge 11, Type (0, 0), BuildingBlock: CIFDUS_clean_linker_0, # of connection points: 2
#     Edge 12, Type (0, 0), BuildingBlock: CIFDUS_clean_linker_0, # of connection points: 2
#     Edge 13, Type (0, 0), BuildingBlock: CIFDUS_clean_linker_0, # of connection points: 2
#     Edge 14, Type (0, 0), BuildingBlock: CIFDUS_clean_linker_0, # of connection points: 2
#     Edge 15, Type (0, 0), BuildingBlock: CIFDUS_clean_linker_0, # of connection points: 2
#     Edge 16, Type (0, 0), BuildingBlock: CIFDUS_clean_linker_0, # of connection points: 2
#     Edge 17, Type (0, 0), BuildingBlock: CIFDUS_clean_linker_0, # of connection points: 2
#     Edge 18, Type (0, 0), BuildingBlock: CIFDUS_clean_linker_0, # of connection points: 2
#     Edge 19, Type (0, 0), BuildingBlock: CIFDUS_clean_linker_0, # of connection points: 2
#     Edge 20, Type (0, 0), BuildingBlock: CIFDUS_clean_linker_0, # of connection points: 2
#     Edge 21, Type (0, 0), BuildingBlock: CIFDUS_clean_linker_0, # of connection points: 2
#     Edge 22, Type (0, 0), BuildingBlock: CIFDUS_clean_linker_0, # of connection points: 2
#     Edge 23, Type (0, 0), BuildingBlock: CIFDUS_clean_linker_0, # of connection points: 2
#     Edge 24, Type (0, 0), BuildingBlock: CIFDUS_clean_linker_0, # of connection points: 2
#     Edge 25, Type (0, 0), BuildingBlock: CIFDUS_clean_linker_0, # of connection points: 2
#     Edge 26, Type (0, 0), BuildingBlock: CIFDUS_clean_linker_0, # of connection points: 2
#     Edge 27, Type (0, 0), BuildingBlock: CIFDUS_clean_linker_0, # of connection points: 2
# Relax obj value: 0.382
# Max RMSD: 0.224
# Mean RMSD: 0.224
data_MOF--net-xfy--node1-BEQFEK_clean_sbu_0--edge1-CIFDUS_clean_linker_0
_symmetry_space_group_name_H-M    P1
_symmetry_Int_Tables_number       1
_symmetry_cell_setting            triclinic
loop_
_symmetry_equiv_pos_as_xyz
'x, y, z'
_cell_length_a     26.247615
_cell_length_b     26.191775
_cell_length_c     54.294535
_cell_angle_alpha  90.637591
_cell_angle_beta   90.219577
_cell_angle_gamma 89.988334
loop_
_atom_site_label
_atom_site_type_symbol
_atom_site_fract_x
_atom_site_fract_y
_atom_site_fract_z
_atom_type_partial_charge
Co0 Co 0.19963 0.0217 0.41189 0.0
Co1 Co 0.20236 0.11416 0.3751 0.0
C2 C 0.11853 0.03368 0.37477 0.0
O3 O 0.13871 0.00713 0.39177 0.0
O4 O 0.13878 0.07505 0.36735 0.0
C5 C 0.19952 0.92315 0.43814 0.0
O6 O 0.17636 0.90276 0.41892 0.0
C7 C 0.20659 0.15493 0.32516 0.0
C8 C 0.24164 0.23076 0.3311 0.0
C9 C 0.22405 0.19761 0.31294 0.0
N10 N 0.2134 0.16244 0.34948 0.0
N11 N 0.23376 0.20815 0.35294 0.0
C12 C 0.18804 0.10596 0.31391 0.0
H13 H 0.19866 0.07334 0.32576 0.0
H14 H 0.20387 0.10025 0.29515 0.0
H15 H 0.14587 0.1073 0.3125 0.0
C16 C 0.29885 0.00129 0.38977 0.0
N17 N 0.25629 0.02937 0.39157 0.0
N18 N 0.25972 0.06925 0.37716 0.0
C19 C 0.30583 0.06847 0.36618 0.0
C20 C 0.33211 0.02528 0.37387 0.0
C21 C 0.30648 0.9515 0.40255 0.0
H22 H 0.31308 0.95878 0.42248 0.0
H23 H 0.27163 0.92798 0.40049 0.0
H24 H 0.33913 0.9298 0.39482 0.0
O25 O 0.18745 0.08457 0.43121 0.0
O26 O 0.18991 0.15169 0.40668 0.0
H27 H 0.31628 0.14787 0.35883 0.0
H28 H 0.36763 0.10785 0.34804 0.0
C29 C 0.32576 0.11038 0.35039 0.0
H30 H 0.30724 0.10801 0.33201 0.0
H31 H 0.24393 0.22316 0.37015 0.0
O32 O 0.21207 0.96997 0.43779 0.0
C33 C 0.18439 0.13245 0.42795 0.0
Co34 Co 0.02858 0.75321 0.56942 0.0
Co35 Co 0.12114 0.758 0.60719 0.0
C36 C 0.04316 0.84248 0.60281 0.0
O37 O 0.0159 0.8183 0.58714 0.0
O38 O 0.08437 0.8238 0.61125 0.0
C39 C 0.92817 0.75791 0.54674 0.0
O40 O 0.91475 0.78215 0.56702 0.0
C41 C 0.16151 0.76557 0.65773 0.0
C42 C 0.2294 0.71599 0.65603 0.0
C43 C 0.19855 0.74267 0.6724 0.0
N44 N 0.16889 0.75113 0.63412 0.0
N45 N 0.21041 0.72264 0.63317 0.0
C46 C 0.11973 0.80093 0.66574 0.0
H47 H 0.11864 0.8344 0.65347 0.0
H48 H 0.08256 0.78091 0.66423 0.0
H49 H 0.12567 0.81533 0.68481 0.0
C50 C 0.01376 0.65368 0.59211 0.0
N51 N 0.03737 0.69911 0.59116 0.0
N52 N 0.07481 0.7007 0.60737 0.0
C53 C 0.07495 0.65625 0.61978 0.0
C54 C 0.03657 0.62491 0.61042 0.0
C55 C 0.97509 0.63631 0.57344 0.0
H56 H -0.01247 0.64758 0.55478 0.0
H57 H 0.93822 0.65544 0.57732 0.0
H58 H 0.96959 0.59438 0.57344 0.0
O59 O 0.09038 0.76003 0.54989 0.0
O60 O 0.15798 0.76274 0.57477 0.0
H61 H 0.14975 0.63891 0.63293 0.0
H62 H 0.09937 0.60863 0.65002 0.0
C63 C 0.11078 0.6439 0.64037 0.0
H64 H 0.11098 0.67565 0.65396 0.0
H65 H 0.22403 0.70516 0.61714 0.0
O66 O 0.97339 0.74107 0.54483 0.0
C67 C 0.13821 0.7631 0.55323 0.0
Co68 Co 0.76218 0.95765 0.41137 0.0
Co69 Co 0.75201 0.85597 0.38017 0.0
C70 C 0.84123 0.92847 0.37533 0.0
O71 O 0.82288 0.96055 0.39064 0.0
O72 O 0.81844 0.88675 0.37009 0.0
C73 C 0.77768 0.0625 0.42702 0.0
O74 O 0.80043 0.06746 0.40566 0.0
C75 C 0.7352 0.80883 0.33206 0.0
C76 C 0.71267 0.72992 0.34079 0.0
C77 C 0.71999 0.76285 0.32125 0.0
N78 N 0.73684 0.80313 0.35663 0.0
N79 N 0.72367 0.75576 0.36176 0.0
C80 C 0.74367 0.85898 0.31976 0.0
H81 H 0.73893 0.89097 0.33312 0.0
H82 H 0.71678 0.86375 0.30413 0.0
H83 H 0.78318 0.86033 0.31262 0.0
C84 C 0.66075 0.97545 0.3917 0.0
N85 N 0.70404 0.94834 0.39219 0.0
N86 N 0.69746 0.9048 0.38029 0.0
C87 C 0.6487 0.90252 0.37229 0.0
C88 C 0.62403 0.94736 0.37925 0.0
C89 C 0.65323 0.02495 0.40526 0.0
H90 H 0.68452 0.05153 0.40062 0.0
H91 H 0.61627 0.04294 0.40045 0.0
H92 H 0.65456 0.01806 0.42538 0.0
O93 O 0.76878 0.90063 0.43454 0.0
O94 O 0.76249 0.82707 0.41383 0.0
H95 H 0.5822 0.85785 0.36228 0.0
H96 H 0.63577 0.85195 0.34184 0.0
C97 C 0.62439 0.85573 0.36142 0.0
H98 H 0.63782 0.82139 0.37129 0.0
H99 H 0.72117 0.74141 0.37957 0.0
O100 O 0.75784 0.01986 0.43242 0.0
C101 C 0.76853 0.85204 0.43395 0.0
Co102 Co 0.94676 0.20866 0.56919 0.0
Co103 Co 0.85397 0.20696 0.60625 0.0
C104 C 0.9304 0.12158 0.60311 0.0
O105 O 0.95763 0.14465 0.58742 0.0
O106 O 0.88933 0.14097 0.61134 0.0
C107 C 0.04993 0.2031 0.55216 0.0
O108 O 0.05852 0.18615 0.57448 0.0
C109 C 0.81043 0.20255 0.65578 0.0
C110 C 0.745 0.25515 0.65317 0.0
C111 C 0.77387 0.22774 0.66991 0.0
N112 N 0.80486 0.21641 0.63214 0.0
N113 N 0.76469 0.24665 0.63059 0.0
C114 C 0.85031 0.16583 0.66438 0.0
H115 H 0.84966 0.13128 0.65243 0.0
H116 H 0.88848 0.18373 0.66285 0.0
H117 H 0.8436 0.15344 0.68355 0.0
C118 C 0.96185 0.30979 0.59156 0.0
N119 N 0.93801 0.26441 0.59055 0.0
N120 N 0.90089 0.26368 0.60678 0.0
C121 C 0.90135 0.30851 0.61935 0.0
C122 C 0.93965 0.33934 0.60999 0.0
C123 C 0.00036 0.32634 0.57298 0.0
H124 H -0.01012 0.31117 0.55451 0.0
H125 H 0.03819 0.31065 0.57806 0.0
H126 H 0.00305 0.36849 0.5719 0.0
O127 O 0.88581 0.20077 0.54864 0.0
O128 O 0.81857 0.20038 0.57349 0.0
H129 H 0.82761 0.32831 0.63298 0.0
H130 H 0.87951 0.35611 0.65045 0.0
C131 C 0.86652 0.32156 0.64024 0.0
H132 H 0.86545 0.28947 0.65329 0.0
H133 H 0.75274 0.26419 0.6144 0.0
O134 O 0.00514 0.21706 0.54637 0.0
C135 C 0.83793 0.19797 0.55195 0.0
Co136 Co 0.25276 0.51218 0.91306 0.0
Co137 Co 0.26115 0.60445 0.87621 0.0
C138 C 0.34024 0.52264 0.87834 0.0
O139 O 0.31592 0.49854 0.89477 0.0
O140 O 0.32438 0.56497 0.86988 0.0
C141 C 0.25447 0.40921 0.93087 0.0
O142 O 0.27124 0.39846 0.90864 0.0
C143 C 0.26958 0.65366 0.82779 0.0
C144 C 0.22331 0.72328 0.83324 0.0
C145 C 0.25035 0.69592 0.81564 0.0
N146 N 0.25442 0.65589 0.85145 0.0
N147 N 0.22756 0.69812 0.85466 0.0
C148 C 0.29638 0.60874 0.81652 0.0
H149 H 0.28432 0.57305 0.82563 0.0
H150 H 0.28855 0.60565 0.79646 0.0
H151 H 0.33803 0.61332 0.81935 0.0
C152 C 0.15686 0.49571 0.88688 0.0
N153 N 0.19981 0.52235 0.89075 0.0
N154 N 0.20304 0.5595 0.87467 0.0
C155 C 0.16206 0.55674 0.85957 0.0
C156 C 0.13177 0.51599 0.86673 0.0
C157 C 0.13868 0.45432 0.90352 0.0
H158 H 0.14946 0.46334 0.92283 0.0
H159 H 0.15703 0.41776 0.89807 0.0
H160 H 0.09673 0.4497 0.90255 0.0
O161 O 0.261 0.5723 0.93407 0.0
O162 O 0.26889 0.63907 0.90949 0.0
H163 H 0.14794 0.63059 0.84459 0.0
H164 H 0.11967 0.57877 0.82696 0.0
C165 C 0.15332 0.59075 0.83799 0.0
H166 H 0.18709 0.5895 0.82587 0.0
H167 H 0.21011 0.70854 0.87121 0.0
O168 O 0.24154 0.45481 0.936 0.0
C169 C 0.26728 0.61983 0.93097 0.0
Co170 Co 0.52104 0.70462 0.0739 0.0
Co171 Co 0.61222 0.70505 0.11206 0.0
C172 C 0.52707 0.62627 0.11206 0.0
O173 O 0.50335 0.64636 0.09413 0.0
O174 O 0.56935 0.64402 0.12013 0.0
C175 C 0.42391 0.70135 0.04692 0.0
O176 O 0.40557 0.67707 0.06599 0.0
C177 C 0.65132 0.71939 0.16245 0.0
C178 C 0.73373 0.72971 0.15622 0.0
C179 C 0.69721 0.72897 0.17464 0.0
N180 N 0.6606 0.71482 0.13817 0.0
N181 N 0.70999 0.72064 0.1346 0.0
C182 C 0.59885 0.71855 0.17311 0.0
H183 H 0.56989 0.72539 0.15857 0.0
H184 H 0.59515 0.74779 0.18795 0.0
H185 H 0.59156 0.68041 0.18105 0.0
C186 C 0.50317 0.8044 0.09571 0.0
N187 N 0.53022 0.76122 0.09435 0.0
N188 N 0.57049 0.76468 0.10877 0.0
C189 C 0.57165 0.81208 0.11885 0.0
C190 C 0.52888 0.83876 0.11084 0.0
C191 C 0.4525 0.81122 0.08338 0.0
H192 H 0.42989 0.77572 0.08508 0.0
H193 H 0.43071 0.84326 0.09175 0.0
H194 H 0.45834 0.81858 0.0635 0.0
O195 O 0.58379 0.69055 0.05532 0.0
O196 O 0.64985 0.68988 0.08094 0.0
H197 H 0.65116 0.8139 0.12846 0.0
H198 H 0.61897 0.87469 0.1313 0.0
C199 C 0.61507 0.83289 0.13381 0.0
H200 H 0.60784 0.82567 0.15358 0.0
H201 H 0.72736 0.71942 0.11735 0.0
O202 O 0.46973 0.71696 0.04751 0.0
C203 C 0.63129 0.68572 0.0593 0.0
Co204 Co 0.71918 0.47269 0.91101 0.0
Co205 Co 0.71184 0.38154 0.87264 0.0
C206 C 0.63119 0.46114 0.87601 0.0
O207 O 0.65534 0.48497 0.89293 0.0
O208 O 0.64767 0.41952 0.86665 0.0
C209 C 0.7128 0.57473 0.93075 0.0
O210 O 0.69324 0.58505 0.90905 0.0
C211 C 0.70411 0.33019 0.82417 0.0
C212 C 0.75094 0.26127 0.83003 0.0
C213 C 0.72343 0.28719 0.8123 0.0
N214 N 0.71963 0.32969 0.84782 0.0
N215 N 0.74688 0.28793 0.85128 0.0
C216 C 0.67655 0.37398 0.81267 0.0
H217 H 0.6866 0.41024 0.82226 0.0
H218 H 0.68579 0.37697 0.79281 0.0
H219 H 0.63492 0.36785 0.81453 0.0
C220 C 0.81447 0.4915 0.88522 0.0
N221 N 0.77188 0.46424 0.88851 0.0
N222 N 0.76904 0.42749 0.87182 0.0
C223 C 0.80992 0.43106 0.85689 0.0
C224 C 0.83978 0.47199 0.86482 0.0
C225 C 0.83222 0.53253 0.90268 0.0
H226 H 0.82155 0.52275 0.92179 0.0
H227 H 0.8134 0.56904 0.89786 0.0
H228 H 0.87411 0.53767 0.90197 0.0
O229 O 0.71286 0.41208 0.93124 0.0
O230 O 0.7052 0.3465 0.90522 0.0
H231 H 0.82575 0.35768 0.84107 0.0
H232 H 0.85219 0.41035 0.824 0.0
C233 C 0.81912 0.39737 0.83492 0.0
H234 H 0.78501 0.3976 0.82288 0.0
H235 H 0.76445 0.2787 0.86792 0.0
O236 O 0.72933 0.52999 0.93473 0.0
C237 C 0.70715 0.36465 0.92709 0.0
Co238 Co 0.45367 0.26556 0.06474 0.0
Co239 Co 0.36932 0.26428 0.10635 0.0
C240 C 0.45556 0.34125 0.10529 0.0
O241 O 0.4758 0.3217 0.08616 0.0
O242 O 0.41424 0.324 0.11424 0.0
C243 C 0.54921 0.26847 0.0382 0.0
O244 O 0.5681 0.28699 0.05889 0.0
C245 C 0.33291 0.26199 0.15786 0.0
C246 C 0.26294 0.21571 0.15423 0.0
C247 C 0.2948 0.23856 0.17154 0.0
N248 N 0.32481 0.25167 0.13379 0.0
N249 N 0.28228 0.22493 0.13177 0.0
C250 C 0.37444 0.29652 0.1671 0.0
H251 H 0.37652 0.33074 0.15537 0.0
H252 H 0.41151 0.27625 0.16603 0.0
H253 H 0.36745 0.30995 0.18621 0.0
C254 C 0.47026 0.16224 0.08154 0.0
N255 N 0.4461 0.20712 0.08338 0.0
N256 N 0.41029 0.20455 0.10025 0.0
C257 C 0.41042 0.15684 0.10951 0.0
C258 C 0.44826 0.12868 0.09778 0.0
C259 C 0.51343 0.15177 0.06425 0.0
H260 H 0.54298 0.18155 0.06682 0.0
H261 H 0.53112 0.11397 0.0675 0.0
H262 H 0.49934 0.15347 0.04498 0.0
O263 O 0.38884 0.28204 0.04868 0.0
O264 O 0.32729 0.28194 0.07668 0.0
H265 H 0.38035 0.09713 0.13264 0.0
H266 H 0.3736 0.16147 0.14451 0.0
C267 C 0.37255 0.13732 0.12762 0.0
H268 H 0.33384 0.13961 0.11948 0.0
H269 H 0.26746 0.21132 0.11509 0.0
O270 O 0.50253 0.25578 0.0373 0.0
C271 C 0.34228 0.28727 0.05453 0.0
H272 H 0.55654 0.96615 0.34231 0.0
H273 H 0.56951 0.94852 0.42092 0.0
H274 H 0.48044 0.97295 0.42611 0.0
H275 H 0.40074 0.00306 0.40868 0.0
H276 H 0.38373 0.01754 0.33013 0.0
H277 H 0.47315 -0.00779 0.32436 0.0
C278 C 0.5393 0.96711 0.36043 0.0
C279 C 0.56892 0.95595 0.38125 0.0
C280 C 0.48803 0.98149 0.36327 0.0
C281 C 0.54695 0.95727 0.40474 0.0
C282 C 0.49631 0.9714 0.40771 0.0
C283 C 0.41643 -1e-05 0.39026 0.0
C284 C 0.38602 0.01173 0.36985 0.0
C285 C 0.46681 0.98423 0.38717 0.0
C286 C 0.40688 0.00889 0.34611 0.0
C287 C 0.4577 -0.00594 0.34283 0.0
H288 H 0.031 0.38544 0.61657 0.0
H289 H 0.86958 0.41566 0.61448 0.0
H290 H 0.88567 0.50718 0.61849 0.0
H291 H 0.94584 0.57896 0.61795 0.0
H292 H 0.10701 0.5488 0.61354 0.0
H293 H 0.09122 0.45725 0.61696 0.0
C294 C -0.00055 0.41218 0.61716 0.0
C295 C 0.94928 0.39399 0.61532 0.0
C296 C 0.00907 0.46481 0.61818 0.0
C297 C 0.90856 0.42875 0.61629 0.0
C298 C 0.91774 0.4811 0.61832 0.0
C299 C 0.9774 0.55221 0.61794 0.0
C300 C 0.0274 0.57038 0.61556 0.0
C301 C 0.96785 0.49959 0.61861 0.0
C302 C 0.06819 0.53567 0.61573 0.0
C303 C 0.05915 0.48332 0.61742 0.0
H304 H 0.92097 0.41143 0.8554 0.0
H305 H 0.87164 0.56839 0.85533 0.0
H306 H 0.96002 0.59699 0.85224 0.0
H307 H 0.05075 0.57681 0.85764 0.0
H308 H 0.10011 0.41988 0.85534 0.0
H309 H 0.01185 0.3914 0.85074 0.0
C310 C 0.92946 0.45176 0.85368 0.0
C311 C 0.89037 0.48791 0.85611 0.0
C312 C 0.98019 0.46779 0.85187 0.0
C313 C 0.90163 0.54007 0.854 0.0
C314 C 0.95202 0.55639 0.85228 0.0
C315 C 0.04232 0.53654 0.85511 0.0
C316 C 0.08134 0.50032 0.85733 0.0
C317 C -0.00833 0.52059 0.85241 0.0
C318 C 0.07016 0.44824 0.85419 0.0
C319 C 0.01985 0.43198 0.85159 0.0
H320 H 0.47686 0.0692 0.1363 0.0
H321 H 0.43854 0.06536 0.05899 0.0
H322 H 0.46421 0.97613 0.05608 0.0
H323 H 0.50147 0.90159 0.07473 0.0
H324 H 0.53134 0.89877 0.15279 0.0
H325 H 0.50733 -0.01062 0.15622 0.0
C326 C 0.4734 0.04823 0.11904 0.0
C327 C 0.45646 0.0733 0.09781 0.0
C328 C 0.48779 -0.00338 0.11757 0.0
C329 C 0.45199 0.04644 0.07543 0.0
C330 C 0.46684 -0.00429 0.07374 0.0
C331 C 0.5016 0.92034 0.09264 0.0
C332 C 0.51723 0.8936 0.11353 0.0
C333 C 0.48545 0.97081 0.09457 0.0
C334 C 0.51947 0.91892 0.13643 0.0
C335 C 0.50527 0.97038 0.13841 0.0
H336 H 0.07747 0.93881 0.37048 0.0
H337 H 0.04375 0.0984 0.3602 0.0
H338 H 0.95332 0.07868 0.35567 0.0
H339 H 0.8832 0.01795 0.36182 0.0
H340 H 0.91653 0.85801 0.37055 0.0
H341 H 0.00786 0.8757 0.36796 0.0
C342 C 0.05037 0.96902 0.36665 0.0
C343 C 0.06694 0.02001 0.36615 0.0
C344 C -0.00156 0.95739 0.36398 0.0
C345 C 0.0318 0.05884 0.36078 0.0
C346 C 0.98004 0.04766 0.35834 0.0
C347 C 0.91053 -0.01311 0.36241 0.0
C348 C 0.89356 0.93697 0.3667 0.0
C349 C 0.96279 -0.00263 0.36096 0.0
C350 C 0.92893 0.89677 0.36721 0.0
C351 C 0.98111 0.90694 0.36598 0.0
H352 H 0.02456 0.0808 0.6089 0.0
H353 H 0.86466 0.04331 0.61034 0.0
H354 H 0.88525 0.9524 0.61221 0.0
H355 H 0.94888 0.88347 0.60847 0.0
H356 H 0.10879 0.92115 0.61 0.0
H357 H 0.08819 0.01206 0.61226 0.0
C358 C -0.00564 0.05267 0.61012 0.0
C359 C 0.94328 0.06843 0.60918 0.0
C360 C 0.00647 0.00058 0.61152 0.0
C361 C 0.90432 0.03192 0.61106 0.0
C362 C 0.91604 0.97996 0.61196 0.0
C363 C 0.97908 0.91167 0.60976 0.0
C364 C 0.03016 0.89592 0.60876 0.0
C365 C 0.96697 0.96381 0.61144 0.0
C366 C 0.06913 0.93252 0.61076 0.0
C367 C 0.05741 0.98448 0.61189 0.0
H368 H 0.54653 0.40538 0.86773 0.0
H369 H 0.60317 0.55982 0.86985 0.0
H370 H 0.51634 0.59282 0.86605 0.0
H371 H 0.42434 0.57767 0.86847 0.0
H372 H 0.36791 0.42341 0.87237 0.0
H373 H 0.4543 0.39012 0.86713 0.0
C374 C 0.53974 0.44617 0.8667 0.0
C375 C 0.5807 0.48026 0.86902 0.0
C376 C 0.4897 0.46477 0.86589 0.0
C377 C 0.57184 0.53306 0.86812 0.0
C378 C 0.52232 0.55187 0.86605 0.0
C379 C 0.43098 0.5368 0.86755 0.0
C380 C 0.39025 0.50293 0.87082 0.0
C381 C 0.48089 0.51811 0.86585 0.0
C382 C 0.39904 0.45005 0.86999 0.0
C383 C 0.44832 0.43107 0.86707 0.0
H384 H 0.40533 0.42464 0.12163 0.0
H385 H 0.556 0.36345 0.11039 0.0
H386 H 0.59321 0.44784 0.11775 0.0
H387 H 0.58124 0.54066 0.11916 0.0
H388 H 0.42955 0.60278 0.12362 0.0
H389 H 0.39417 0.51688 0.12772 0.0
C390 C 0.44636 0.42969 0.12157 0.0
C391 C 0.47802 0.38839 0.1154 0.0
C392 C 0.46712 0.47876 0.12434 0.0
C393 C 0.53107 0.39511 0.11499 0.0
C394 C 0.55227 0.44329 0.1191 0.0
C395 C 0.54067 0.53525 0.12191 0.0
C396 C 0.50787 0.57745 0.12116 0.0
C397 C 0.52049 0.48574 0.1226 0.0
C398 C 0.45528 0.57045 0.1242 0.0
C399 C 0.4351 0.52144 0.12636 0.0
H400 H 0.208 0.22597 0.19787 0.0
H401 H 0.37142 0.23328 0.20622 0.0
H402 H 0.36324 0.22584 0.25059 0.0
H403 H 0.30987 0.21513 0.28734 0.0
H404 H 0.14787 0.19548 0.27886 0.0
H405 H 0.15508 0.20883 0.23432 0.0
C406 C 0.24182 0.22623 0.20942 0.0
C407 C 0.29006 0.23335 0.19871 0.0
C408 C 0.23703 0.21907 0.23495 0.0
C409 C 0.33354 0.23172 0.21392 0.0
C410 C 0.329 0.22632 0.23937 0.0
C411 C 0.27625 0.21401 0.27565 0.0
C412 C 0.22839 0.20491 0.28615 0.0
C413 C 0.28098 0.22017 0.2501 0.0
C414 C 0.18504 0.20255 0.27099 0.0
C415 C 0.1892 0.21022 0.24561 0.0
H416 H 0.16866 0.71523 0.78709 0.0
H417 H 0.33174 0.69828 0.78441 0.0
H418 H 0.33056 0.71392 0.7399 0.0
H419 H 0.28232 0.73108 0.70157 0.0
H420 H 0.11816 0.73729 0.70445 0.0
H421 H 0.12056 0.72827 0.74887 0.0
C422 C 0.20393 0.71535 0.77673 0.0
C423 C 0.25022 0.70592 0.78888 0.0
C424 C 0.20272 0.72307 0.75118 0.0
C425 C 0.29565 0.70533 0.77531 0.0
C426 C 0.29495 0.71433 0.74992 0.0
C427 C 0.24714 0.73094 0.71198 0.0
C428 C 0.20031 0.73794 0.69969 0.0
C429 C 0.24861 0.72307 0.73762 0.0
C430 C 0.15499 0.73575 0.7134 0.0
C431 C 0.15621 0.72944 0.73888 0.0
H432 H 0.77072 0.79782 0.2808 0.0
H433 H 0.64814 0.69844 0.30236 0.0
H434 H 0.63011 0.67846 0.25911 0.0
H435 H 0.6491 0.68956 0.21516 0.0
H436 H 0.76969 0.79172 0.19383 0.0
H437 H 0.78835 0.81048 0.23703 0.0
C438 C 0.73924 0.77283 0.27611 0.0
C439 C 0.70997 0.7508 0.29486 0.0
C440 C 0.72877 0.76189 0.2512 0.0
C441 C 0.67107 0.71626 0.28831 0.0
C442 C 0.66061 0.70492 0.26356 0.0
C443 C 0.67859 0.71687 0.21986 0.0
C444 C 0.7071 0.74007 0.20114 0.0
C445 C 0.68901 0.72777 0.24482 0.0
C446 C 0.74691 0.77347 0.20781 0.0
C447 C 0.75759 0.78434 0.23253 0.0
H448 H 0.80441 0.26382 0.78425 0.0
H449 H 0.64172 0.28412 0.78089 0.0
H450 H 0.64243 0.26487 0.73652 0.0
H451 H 0.69027 0.24356 0.69852 0.0
H452 H 0.85423 0.23367 0.70214 0.0
H453 H 0.85209 0.24647 0.74643 0.0
C454 C 0.76911 0.26364 0.77378 0.0
C455 C 0.72309 0.27512 0.78566 0.0
C456 C 0.77007 0.25377 0.74834 0.0
C457 C 0.67762 0.27559 0.77197 0.0
C458 C 0.67805 0.2645 0.74667 0.0
C459 C 0.72542 0.24371 0.70909 0.0
C460 C 0.77208 0.23461 0.69709 0.0
C461 C 0.72416 0.25371 0.73462 0.0
C462 C 0.81746 0.23685 0.71093 0.0
C463 C 0.81642 0.2453 0.73631 0.0
H464 H 0.20031 0.84397 0.54676 0.0
H465 H 0.1391 0.7107 0.51015 0.0
H466 H 0.15966 0.74653 0.47005 0.0
H467 H 0.179 0.8225 0.44575 0.0
H468 H 0.23545 0.95822 0.4825 0.0
H469 H 0.23307 0.91491 0.52197 0.0
C470 C 0.19377 0.82191 0.53001 0.0
C471 C 0.16857 0.77476 0.53129 0.0
C472 C 0.20327 0.84399 0.50697 0.0
C473 C 0.15898 0.74691 0.5095 0.0
C474 C 0.17003 0.76773 0.48657 0.0
C475 C 0.19163 0.84233 0.46231 0.0
C476 C 0.20619 0.8939 0.46118 0.0
C477 C 0.18953 0.81741 0.48509 0.0
C478 C 0.22325 0.91873 0.48282 0.0
C479 C 0.22195 0.89398 0.50547 0.0
H480 H 0.83366 0.77267 0.44054 0.0
H481 H 0.73278 0.87522 0.47933 0.0
H482 H 0.76863 0.84858 0.51871 0.0
H483 H 0.83764 0.80711 0.54135 0.0
H484 H 0.94337 0.70945 0.50245 0.0
H485 H 0.89654 0.72262 0.4641 0.0
C486 C 0.8185 0.78778 0.4577 0.0
C487 C 0.78073 0.82578 0.45713 0.0
C488 C 0.84093 0.77393 0.48026 0.0
C489 C 0.76191 0.84589 0.4794 0.0
C490 C 0.78263 0.83094 0.5019 0.0
C491 C 0.8499 0.78785 0.52461 0.0
C492 C 0.89446 0.75805 0.52475 0.0
C493 C 0.82363 0.7967 0.50247 0.0
C494 C 0.90955 0.73317 0.50285 0.0
C495 C 0.88283 0.74072 0.48086 0.0
H496 H 0.72943 0.0673 0.47134 0.0
H497 H 0.83579 0.14877 0.42574 0.0
H498 H 0.85641 0.20576 0.46015 0.0
H499 H 0.85532 0.22233 0.5046 0.0
H500 H 0.75165 0.1394 0.55081 0.0
H501 H 0.71774 0.09413 0.51462 0.0
C502 C 0.75644 0.09811 0.46881 0.0
C503 C 0.78198 0.10297 0.44617 0.0
C504 C 0.76871 0.13037 0.48881 0.0
C505 C 0.81608 0.1437 0.44303 0.0
C506 C 0.82802 0.17628 0.46274 0.0
C507 C 0.82429 0.19535 0.50665 0.0
C508 C 0.80656 0.18354 0.53033 0.0
C509 C 0.8062 0.16851 0.48593 0.0
C510 C 0.76592 0.14913 0.53276 0.0
C511 C 0.74699 0.12278 0.5121 0.0
H512 H 0.20779 0.11912 0.47584 0.0
H513 H 0.12109 0.21525 0.42724 0.0
H514 H 0.07486 0.25113 0.46252 0.0
H515 H 0.05008 0.24434 0.50622 0.0
H516 H 0.13763 0.14771 0.55446 0.0
H517 H 0.19295 0.1234 0.52035 0.0
C518 C 0.17968 0.14892 0.47307 0.0
C519 C 0.16733 0.16411 0.44903 0.0
C520 C 0.1529 0.16869 0.49334 0.0
C521 C 0.13131 0.20307 0.44561 0.0
C522 C 0.1045 0.22316 0.46576 0.0
C523 C 0.08185 0.21869 0.50935 0.0
C524 C 0.08901 0.19703 0.53275 0.0
C525 C 0.1135 0.2046 0.48957 0.0
C526 C 0.13089 0.1646 0.53662 0.0
C527 C 0.16249 0.15048 0.51709 0.0
H528 H 0.34172 0.25554 0.00732 0.0
H529 H 0.2656 0.35773 0.05788 0.0
H530 H 0.22476 0.40123 0.02322 0.0
H531 H 0.22289 0.41855 0.97859 0.0
H532 H 0.30069 0.31607 0.92847 0.0
H533 H 0.32795 0.26376 0.96291 0.0
C534 C 0.3151 0.28652 0.01074 0.0
C535 C 0.30705 0.30396 0.03498 0.0
C536 C 0.29267 0.31166 0.9908 0.0
C537 C 0.27219 0.34365 0.03932 0.0
C538 C 0.24932 0.36881 0.0195 0.0
C539 C 0.24494 0.3842 0.97516 0.0
C540 C 0.26072 0.37195 0.951 0.0
C541 C 0.2611 0.3545 -0.00486 0.0
C542 C 0.28851 0.32682 0.94685 0.0
C543 C 0.30433 0.29692 0.96657 0.0
H544 H 0.34523 0.68664 0.93772 0.0
H545 H 0.21766 0.6178 0.97439 0.0
H546 H 0.25207 0.64404 0.0144 0.0
H547 H 0.32565 0.67219 0.03888 0.0
H548 H 0.45598 0.73685 0.00237 0.0
H549 H 0.41335 0.72711 0.96261 0.0
C550 C 0.32409 0.67932 0.95444 0.0
C551 C 0.27906 0.65043 0.95321 0.0
C552 C 0.34534 0.69255 0.9775 0.0
C553 C 0.25238 0.64018 0.97499 0.0
C554 C 0.27231 0.65468 -0.00213 0.0
C555 C 0.34439 0.68502 0.02229 0.0
C556 C 0.39436 0.70416 0.02362 0.0
C557 C 0.32 0.67855 -0.00061 0.0
C558 C 0.41775 0.7213 0.00192 0.0
C559 C 0.39341 0.7157 0.9791 0.0
H560 H 0.62069 0.71651 0.01244 0.0
H561 H 0.71337 0.62133 0.05887 0.0
H562 H 0.75289 0.58246 0.02235 0.0
H563 H 0.75082 0.56688 0.97742 0.0
H564 H 0.65723 0.66269 0.93143 0.0
H565 H 0.62907 0.71066 0.96759 0.0
C566 C 0.65036 0.68801 0.01454 0.0
C567 C 0.66365 0.67116 0.0382 0.0
C568 C 0.67234 0.66566 -0.00644 0.0
C569 C 0.70257 0.63483 0.0408 0.0
C570 C 0.72481 0.61235 0.01993 0.0
C571 C 0.72505 0.5989 0.97526 0.0
C572 C 0.70531 0.61042 0.95178 0.0
C573 C 0.70848 0.62609 -0.00378 0.0
C574 C 0.67264 0.65258 0.94926 0.0
C575 C 0.65628 0.67994 0.96996 0.0
H576 H 0.63206 0.29441 0.93092 0.0
H577 H 0.75437 0.36651 0.97143 0.0
H578 H 0.71959 0.33534 0.01011 0.0
H579 H 0.64652 0.3017 0.03257 0.0
H580 H 0.52042 0.23523 -0.00772 0.0
H581 H 0.56454 0.24956 0.9535 0.0
C582 C 0.65201 0.30151 0.94816 0.0
C583 C 0.69556 0.33264 0.94845 0.0
C584 C 0.63036 0.28559 0.97044 0.0
C585 C 0.72074 0.34252 0.97088 0.0
C586 C 0.70061 0.32513 -0.00701 0.0
C587 C 0.62906 0.28945 0.01536 0.0
C588 C 0.57979 0.26847 0.01533 0.0
C589 C 0.65409 0.2989 -0.00693 0.0
C590 C 0.55802 0.25225 -0.00716 0.0
C591 C 0.58322 0.26044 0.97061 0.0
loop_
_geom_bond_atom_site_label_1
_geom_bond_atom_site_label_2
_geom_bond_distance
_geom_bond_site_symmetry_2
_ccdc_geom_bond_type
Co0 O3 1.970 . S
Co0 N17 1.989 . S
Co0 O25 1.967 . S
Co0 O32 1.920 . S
Co1 O4 1.966 . S
Co1 N10 2.022 . S
Co1 N18 1.993 . S
Co1 O26 1.941 . S
C2 O3 1.258 . S
C2 O4 1.263 . S
O3 Co0 1.970 . S
O3 C2 1.258 . S
O4 Co1 1.966 . S
O4 C2 1.263 . S
C5 O6 1.235 . S
C5 O32 1.289 1_565 S
O6 C5 1.235 . S
C7 C9 1.400 . S
C7 N10 1.351 . S
C7 C12 1.501 . S
C8 C9 1.387 . S
C8 N11 1.341 . S
C9 C7 1.400 . S
C9 C8 1.387 . S
N10 Co1 2.022 . S
N10 C7 1.351 . S
N10 N11 1.365 . S
N11 C8 1.341 . S
N11 N10 1.365 . S
N11 H31 0.862 . S
C12 C7 1.501 . S
C12 H13 0.961 . S
C12 H14 0.961 . S
C12 H15 0.960 . S
H13 C12 0.961 . S
H14 C12 0.961 . S
H15 C12 0.960 . S
C16 N17 1.342 . S
C16 C20 1.401 . S
C16 C21 1.499 . S
N17 Co0 1.989 . S
N17 C16 1.342 . S
N17 N18 1.388 . S
N18 Co1 1.993 . S
N18 N17 1.388 . S
N18 C19 1.346 . S
C19 N18 1.346 . S
C19 C20 1.396 . S
C19 C29 1.510 . S
C20 C16 1.401 . S
C20 C19 1.396 . S
C21 C16 1.499 . S
C21 H22 0.959 . S
C21 H23 0.960 1_545 S
C21 H24 0.961 . S
H22 C21 0.959 . S
H23 C21 0.960 1_565 S
H24 C21 0.961 . S
O25 Co0 1.967 . S
O25 C33 1.258 . S
O26 Co1 1.941 . S
O26 C33 1.266 . S
H27 C29 0.959 . S
H28 C29 0.961 . S
C29 C19 1.510 . S
C29 H27 0.959 . S
C29 H28 0.961 . S
C29 H30 0.960 . S
H30 C29 0.960 . S
H31 N11 0.862 . S
O32 Co0 1.920 . S
O32 C5 1.289 1_545 S
C33 O25 1.258 . S
C33 O26 1.266 . S
Co34 O37 1.970 . S
Co34 N51 1.989 . S
Co34 O59 1.967 . S
Co34 O66 1.920 . S
Co35 O38 1.966 . S
Co35 N44 2.022 . S
Co35 N52 1.993 . S
Co35 O60 1.941 . S
C36 O37 1.258 . S
C36 O38 1.263 . S
O37 Co34 1.970 . S
O37 C36 1.258 . S
O38 Co35 1.966 . S
O38 C36 1.263 . S
C39 O40 1.235 . S
C39 O66 1.289 1_655 S
O40 C39 1.235 . S
C41 C43 1.400 . S
C41 N44 1.351 . S
C41 C46 1.501 . S
C42 C43 1.387 . S
C42 N45 1.341 . S
C43 C41 1.400 . S
C43 C42 1.387 . S
N44 Co35 2.022 . S
N44 C41 1.351 . S
N44 N45 1.365 . S
N45 C42 1.341 . S
N45 N44 1.365 . S
N45 H65 0.862 . S
C46 C41 1.501 . S
C46 H47 0.961 . S
C46 H48 0.961 . S
C46 H49 0.960 . S
H47 C46 0.961 . S
H48 C46 0.961 . S
H49 C46 0.960 . S
C50 N51 1.342 . S
C50 C54 1.401 . S
C50 C55 1.499 . S
N51 Co34 1.989 . S
N51 C50 1.342 . S
N51 N52 1.388 . S
N52 Co35 1.993 . S
N52 N51 1.388 . S
N52 C53 1.346 . S
C53 N52 1.346 . S
C53 C54 1.396 . S
C53 C63 1.510 . S
C54 C50 1.401 . S
C54 C53 1.396 . S
C55 C50 1.499 . S
C55 H56 0.959 . S
C55 H57 0.960 1_455 S
C55 H58 0.961 . S
H56 C55 0.959 . S
H57 C55 0.960 1_655 S
H58 C55 0.961 . S
O59 Co34 1.967 . S
O59 C67 1.258 . S
O60 Co35 1.941 . S
O60 C67 1.266 . S
H61 C63 0.959 . S
H62 C63 0.961 . S
C63 C53 1.510 . S
C63 H61 0.959 . S
C63 H62 0.961 . S
C63 H64 0.960 . S
H64 C63 0.960 . S
H65 N45 0.862 . S
O66 Co34 1.920 . S
O66 C39 1.289 1_455 S
C67 O59 1.258 . S
C67 O60 1.266 . S
Co68 O71 1.970 . S
Co68 N85 1.989 . S
Co68 O93 1.967 . S
Co68 O100 1.920 . S
Co69 O72 1.966 . S
Co69 N78 2.022 . S
Co69 N86 1.993 . S
Co69 O94 1.941 . S
C70 O71 1.258 . S
C70 O72 1.263 . S
O71 Co68 1.970 . S
O71 C70 1.258 . S
O72 Co69 1.966 . S
O72 C70 1.263 . S
C73 O74 1.235 . S
C73 O100 1.289 1_545 S
O74 C73 1.235 . S
C75 C77 1.400 . S
C75 N78 1.351 . S
C75 C80 1.501 . S
C76 C77 1.387 . S
C76 N79 1.341 . S
C77 C75 1.400 . S
C77 C76 1.387 . S
N78 Co69 2.022 . S
N78 C75 1.351 . S
N78 N79 1.365 . S
N79 C76 1.341 . S
N79 N78 1.365 . S
N79 H99 0.862 . S
C80 C75 1.501 . S
C80 H81 0.961 . S
C80 H82 0.961 . S
C80 H83 0.960 . S
H81 C80 0.961 . S
H82 C80 0.961 . S
H83 C80 0.960 . S
C84 N85 1.342 . S
C84 C88 1.401 . S
C84 C89 1.499 . S
N85 Co68 1.989 . S
N85 C84 1.342 . S
N85 N86 1.388 . S
N86 Co69 1.993 . S
N86 N85 1.388 . S
N86 C87 1.346 . S
C87 N86 1.346 . S
C87 C88 1.396 . S
C87 C97 1.510 . S
C88 C84 1.401 . S
C88 C87 1.396 . S
C89 C84 1.499 . S
C89 H90 0.959 . S
C89 H91 0.960 1_565 S
C89 H92 0.961 . S
H90 C89 0.959 . S
H91 C89 0.960 1_545 S
H92 C89 0.961 . S
O93 Co68 1.967 . S
O93 C101 1.258 . S
O94 Co69 1.941 . S
O94 C101 1.266 . S
H95 C97 0.959 . S
H96 C97 0.961 . S
C97 C87 1.510 . S
C97 H95 0.959 . S
C97 H96 0.961 . S
C97 H98 0.960 . S
H98 C97 0.960 . S
H99 N79 0.862 . S
O100 Co68 1.920 . S
O100 C73 1.289 1_565 S
C101 O93 1.258 . S
C101 O94 1.266 . S
Co102 O105 1.970 . S
Co102 N119 1.989 . S
Co102 O127 1.967 . S
Co102 O134 1.920 . S
Co103 O106 1.966 . S
Co103 N112 2.022 . S
Co103 N120 1.993 . S
Co103 O128 1.941 . S
C104 O105 1.258 . S
C104 O106 1.263 . S
O105 Co102 1.970 . S
O105 C104 1.258 . S
O106 Co103 1.966 . S
O106 C104 1.263 . S
C107 O108 1.235 . S
C107 O134 1.289 1_455 S
O108 C107 1.235 . S
C109 C111 1.400 . S
C109 N112 1.351 . S
C109 C114 1.501 . S
C110 C111 1.387 . S
C110 N113 1.341 . S
C111 C109 1.400 . S
C111 C110 1.387 . S
N112 Co103 2.022 . S
N112 C109 1.351 . S
N112 N113 1.365 . S
N113 C110 1.341 . S
N113 N112 1.365 . S
N113 H133 0.862 . S
C114 C109 1.501 . S
C114 H115 0.961 . S
C114 H116 0.961 . S
C114 H117 0.960 . S
H115 C114 0.961 . S
H116 C114 0.961 . S
H117 C114 0.960 . S
C118 N119 1.342 . S
C118 C122 1.401 . S
C118 C123 1.499 . S
N119 Co102 1.989 . S
N119 C118 1.342 . S
N119 N120 1.388 . S
N120 Co103 1.993 . S
N120 N119 1.388 . S
N120 C121 1.346 . S
C121 N120 1.346 . S
C121 C122 1.396 . S
C121 C131 1.510 . S
C122 C118 1.401 . S
C122 C121 1.396 . S
C123 C118 1.499 . S
C123 H124 0.959 . S
C123 H125 0.960 1_655 S
C123 H126 0.961 . S
H124 C123 0.959 . S
H125 C123 0.960 1_455 S
H126 C123 0.961 . S
O127 Co102 1.967 . S
O127 C135 1.258 . S
O128 Co103 1.941 . S
O128 C135 1.266 . S
H129 C131 0.959 . S
H130 C131 0.961 . S
C131 C121 1.510 . S
C131 H129 0.959 . S
C131 H130 0.961 . S
C131 H132 0.960 . S
H132 C131 0.960 . S
H133 N113 0.862 . S
O134 Co102 1.920 . S
O134 C107 1.289 1_655 S
C135 O127 1.258 . S
C135 O128 1.266 . S
Co136 O139 1.970 . S
Co136 N153 1.989 . S
Co136 O161 1.967 . S
Co136 O168 1.920 . S
Co137 O140 1.966 . S
Co137 N146 2.022 . S
Co137 N154 1.993 . S
Co137 O162 1.941 . S
C138 O139 1.258 . S
C138 O140 1.263 . S
O139 Co136 1.970 . S
O139 C138 1.258 . S
O140 Co137 1.966 . S
O140 C138 1.263 . S
C141 O142 1.235 . S
C141 O168 1.289 . S
O142 C141 1.235 . S
C143 C145 1.400 . S
C143 N146 1.351 . S
C143 C148 1.501 . S
C144 C145 1.387 . S
C144 N147 1.341 . S
C145 C143 1.400 . S
C145 C144 1.387 . S
N146 Co137 2.022 . S
N146 C143 1.351 . S
N146 N147 1.365 . S
N147 C144 1.341 . S
N147 N146 1.365 . S
N147 H167 0.862 . S
C148 C143 1.501 . S
C148 H149 0.961 . S
C148 H150 0.961 . S
C148 H151 0.960 . S
H149 C148 0.961 . S
H150 C148 0.961 . S
H151 C148 0.960 . S
C152 N153 1.342 . S
C152 C156 1.401 . S
C152 C157 1.499 . S
N153 Co136 1.989 . S
N153 C152 1.342 . S
N153 N154 1.388 . S
N154 Co137 1.993 . S
N154 N153 1.388 . S
N154 C155 1.346 . S
C155 N154 1.346 . S
C155 C156 1.396 . S
C155 C165 1.510 . S
C156 C152 1.401 . S
C156 C155 1.396 . S
C157 C152 1.499 . S
C157 H158 0.959 . S
C157 H159 0.960 . S
C157 H160 0.961 . S
H158 C157 0.959 . S
H159 C157 0.960 . S
H160 C157 0.961 . S
O161 Co136 1.967 . S
O161 C169 1.258 . S
O162 Co137 1.941 . S
O162 C169 1.266 . S
H163 C165 0.959 . S
H164 C165 0.961 . S
C165 C155 1.510 . S
C165 H163 0.959 . S
C165 H164 0.961 . S
C165 H166 0.960 . S
H166 C165 0.960 . S
H167 N147 0.862 . S
O168 Co136 1.920 . S
O168 C141 1.289 . S
C169 O161 1.258 . S
C169 O162 1.266 . S
Co170 O173 1.970 . S
Co170 N187 1.989 . S
Co170 O195 1.967 . S
Co170 O202 1.920 . S
Co171 O174 1.966 . S
Co171 N180 2.022 . S
Co171 N188 1.993 . S
Co171 O196 1.941 . S
C172 O173 1.258 . S
C172 O174 1.263 . S
O173 Co170 1.970 . S
O173 C172 1.258 . S
O174 Co171 1.966 . S
O174 C172 1.263 . S
C175 O176 1.235 . S
C175 O202 1.289 . S
O176 C175 1.235 . S
C177 C179 1.400 . S
C177 N180 1.351 . S
C177 C182 1.501 . S
C178 C179 1.387 . S
C178 N181 1.341 . S
C179 C177 1.400 . S
C179 C178 1.387 . S
N180 Co171 2.022 . S
N180 C177 1.351 . S
N180 N181 1.365 . S
N181 C178 1.341 . S
N181 N180 1.365 . S
N181 H201 0.862 . S
C182 C177 1.501 . S
C182 H183 0.961 . S
C182 H184 0.961 . S
C182 H185 0.960 . S
H183 C182 0.961 . S
H184 C182 0.961 . S
H185 C182 0.960 . S
C186 N187 1.342 . S
C186 C190 1.401 . S
C186 C191 1.499 . S
N187 Co170 1.989 . S
N187 C186 1.342 . S
N187 N188 1.388 . S
N188 Co171 1.993 . S
N188 N187 1.388 . S
N188 C189 1.346 . S
C189 N188 1.346 . S
C189 C190 1.396 . S
C189 C199 1.510 . S
C190 C186 1.401 . S
C190 C189 1.396 . S
C191 C186 1.499 . S
C191 H192 0.959 . S
C191 H193 0.960 . S
C191 H194 0.961 . S
H192 C191 0.959 . S
H193 C191 0.960 . S
H194 C191 0.961 . S
O195 Co170 1.967 . S
O195 C203 1.258 . S
O196 Co171 1.941 . S
O196 C203 1.266 . S
H197 C199 0.959 . S
H198 C199 0.961 . S
C199 C189 1.510 . S
C199 H197 0.959 . S
C199 H198 0.961 . S
C199 H200 0.960 . S
H200 C199 0.960 . S
H201 N181 0.862 . S
O202 Co170 1.920 . S
O202 C175 1.289 . S
C203 O195 1.258 . S
C203 O196 1.266 . S
Co204 O207 1.970 . S
Co204 N221 1.989 . S
Co204 O229 1.967 . S
Co204 O236 1.920 . S
Co205 O208 1.966 . S
Co205 N214 2.022 . S
Co205 N222 1.993 . S
Co205 O230 1.941 . S
C206 O207 1.258 . S
C206 O208 1.263 . S
O207 Co204 1.970 . S
O207 C206 1.258 . S
O208 Co205 1.966 . S
O208 C206 1.263 . S
C209 O210 1.235 . S
C209 O236 1.289 . S
O210 C209 1.235 . S
C211 C213 1.400 . S
C211 N214 1.351 . S
C211 C216 1.501 . S
C212 C213 1.387 . S
C212 N215 1.341 . S
C213 C211 1.400 . S
C213 C212 1.387 . S
N214 Co205 2.022 . S
N214 C211 1.351 . S
N214 N215 1.365 . S
N215 C212 1.341 . S
N215 N214 1.365 . S
N215 H235 0.862 . S
C216 C211 1.501 . S
C216 H217 0.961 . S
C216 H218 0.961 . S
C216 H219 0.960 . S
H217 C216 0.961 . S
H218 C216 0.961 . S
H219 C216 0.960 . S
C220 N221 1.342 . S
C220 C224 1.401 . S
C220 C225 1.499 . S
N221 Co204 1.989 . S
N221 C220 1.342 . S
N221 N222 1.388 . S
N222 Co205 1.993 . S
N222 N221 1.388 . S
N222 C223 1.346 . S
C223 N222 1.346 . S
C223 C224 1.396 . S
C223 C233 1.510 . S
C224 C220 1.401 . S
C224 C223 1.396 . S
C225 C220 1.499 . S
C225 H226 0.959 . S
C225 H227 0.960 . S
C225 H228 0.961 . S
H226 C225 0.959 . S
H227 C225 0.960 . S
H228 C225 0.961 . S
O229 Co204 1.967 . S
O229 C237 1.258 . S
O230 Co205 1.941 . S
O230 C237 1.266 . S
H231 C233 0.959 . S
H232 C233 0.961 . S
C233 C223 1.510 . S
C233 H231 0.959 . S
C233 H232 0.961 . S
C233 H234 0.960 . S
H234 C233 0.960 . S
H235 N215 0.862 . S
O236 Co204 1.920 . S
O236 C209 1.289 . S
C237 O229 1.258 . S
C237 O230 1.266 . S
Co238 O241 1.970 . S
Co238 N255 1.989 . S
Co238 O263 1.967 . S
Co238 O270 1.920 . S
Co239 O242 1.966 . S
Co239 N248 2.022 . S
Co239 N256 1.993 . S
Co239 O264 1.941 . S
C240 O241 1.258 . S
C240 O242 1.263 . S
O241 Co238 1.970 . S
O241 C240 1.258 . S
O242 Co239 1.966 . S
O242 C240 1.263 . S
C243 O244 1.235 . S
C243 O270 1.289 . S
O244 C243 1.235 . S
C245 C247 1.400 . S
C245 N248 1.351 . S
C245 C250 1.501 . S
C246 C247 1.387 . S
C246 N249 1.341 . S
C247 C245 1.400 . S
C247 C246 1.387 . S
N248 Co239 2.022 . S
N248 C245 1.351 . S
N248 N249 1.365 . S
N249 C246 1.341 . S
N249 N248 1.365 . S
N249 H269 0.862 . S
C250 C245 1.501 . S
C250 H251 0.961 . S
C250 H252 0.961 . S
C250 H253 0.960 . S
H251 C250 0.961 . S
H252 C250 0.961 . S
H253 C250 0.960 . S
C254 N255 1.342 . S
C254 C258 1.401 . S
C254 C259 1.499 . S
N255 Co238 1.989 . S
N255 C254 1.342 . S
N255 N256 1.388 . S
N256 Co239 1.993 . S
N256 N255 1.388 . S
N256 C257 1.346 . S
C257 N256 1.346 . S
C257 C258 1.396 . S
C257 C267 1.510 . S
C258 C254 1.401 . S
C258 C257 1.396 . S
C259 C254 1.499 . S
C259 H260 0.959 . S
C259 H261 0.960 . S
C259 H262 0.961 . S
H260 C259 0.959 . S
H261 C259 0.960 . S
H262 C259 0.961 . S
O263 Co238 1.967 . S
O263 C271 1.258 . S
O264 Co239 1.941 . S
O264 C271 1.266 . S
H265 C267 0.959 . S
H266 C267 0.961 . S
C267 C257 1.510 . S
C267 H265 0.959 . S
C267 H266 0.961 . S
C267 H268 0.960 . S
H268 C267 0.960 . S
H269 N249 0.862 . S
O270 Co238 1.920 . S
O270 C243 1.289 . S
C271 O263 1.258 . S
C271 O264 1.266 . S
H272 C278 0.930 . S
H273 C281 0.930 . S
H274 C282 0.930 . S
H275 C283 0.930 . S
H276 C286 0.930 . S
H277 C287 0.930 . S
C278 H272 0.930 . S
C278 C279 1.355 . S
C278 C280 1.415 . S
C279 C278 1.355 . S
C279 C281 1.419 . S
C280 C278 1.415 . S
C280 C285 1.425 1_565 S
C280 C287 1.409 . S
C281 H273 0.930 . S
C281 C279 1.419 . S
C281 C282 1.362 1_565 S
C282 H274 0.930 . S
C282 C281 1.362 1_545 S
C282 C285 1.409 . S
C283 H275 0.930 . S
C283 C284 1.355 . S
C283 C285 1.415 . S
C284 C283 1.355 . S
C284 C286 1.419 . S
C285 C280 1.425 1_545 S
C285 C282 1.409 . S
C285 C283 1.415 . S
C286 H276 0.930 . S
C286 C284 1.419 . S
C286 C287 1.362 1_545 S
C287 H277 0.930 . S
C287 C280 1.409 . S
C287 C286 1.362 1_565 S
H288 C294 0.930 1_455 S
H289 C297 0.930 . S
H290 C298 0.930 . S
H291 C299 0.930 1_655 S
H292 C302 0.930 . S
H293 C303 0.930 . S
C294 H288 0.930 1_655 S
C294 C295 1.355 . S
C294 C296 1.415 1_655 S
C295 C294 1.355 . S
C295 C297 1.419 . S
C296 C294 1.415 1_455 S
C296 C301 1.425 1_455 S
C296 C303 1.409 . S
C297 H289 0.930 . S
C297 C295 1.419 . S
C297 C298 1.362 . S
C298 H290 0.930 . S
C298 C297 1.362 . S
C298 C301 1.409 . S
C299 H291 0.930 1_455 S
C299 C300 1.355 . S
C299 C301 1.415 1_455 S
C300 C299 1.355 . S
C300 C302 1.419 . S
C301 C296 1.425 1_655 S
C301 C298 1.409 . S
C301 C299 1.415 1_655 S
C302 H292 0.930 . S
C302 C300 1.419 . S
C302 C303 1.362 . S
C303 H293 0.930 . S
C303 C296 1.409 . S
C303 C302 1.362 . S
H304 C310 0.930 . S
H305 C313 0.930 . S
H306 C314 0.930 . S
H307 C315 0.930 . S
H308 C318 0.930 . S
H309 C319 0.930 . S
C310 H304 0.930 . S
C310 C311 1.355 . S
C310 C312 1.415 1_655 S
C311 C310 1.355 . S
C311 C313 1.419 . S
C312 C310 1.415 1_455 S
C312 C317 1.425 1_455 S
C312 C319 1.409 . S
C313 H305 0.930 . S
C313 C311 1.419 . S
C313 C314 1.362 . S
C314 H306 0.930 . S
C314 C313 1.362 . S
C314 C317 1.409 . S
C315 H307 0.930 . S
C315 C316 1.355 . S
C315 C317 1.415 1_455 S
C316 C315 1.355 . S
C316 C318 1.419 . S
C317 C312 1.425 1_655 S
C317 C314 1.409 . S
C317 C315 1.415 1_655 S
C318 H308 0.930 . S
C318 C316 1.419 . S
C318 C319 1.362 . S
C319 H309 0.930 . S
C319 C312 1.409 . S
C319 C318 1.362 . S
H320 C326 0.930 . S
H321 C329 0.930 . S
H322 C330 0.930 . S
H323 C331 0.930 . S
H324 C334 0.930 . S
H325 C335 0.930 . S
C326 H320 0.930 . S
C326 C327 1.355 . S
C326 C328 1.415 . S
C327 C326 1.355 . S
C327 C329 1.419 . S
C328 C326 1.415 . S
C328 C333 1.425 1_545 S
C328 C335 1.409 1_545 S
C329 H321 0.930 . S
C329 C327 1.419 . S
C329 C330 1.362 . S
C330 H322 0.930 . S
C330 C329 1.362 . S
C330 C333 1.409 1_545 S
C331 H323 0.930 . S
C331 C332 1.355 . S
C331 C333 1.415 . S
C332 C331 1.355 . S
C332 C334 1.419 . S
C333 C328 1.425 1_565 S
C333 C330 1.409 1_565 S
C333 C331 1.415 . S
C334 H324 0.930 . S
C334 C332 1.419 . S
C334 C335 1.362 . S
C335 H325 0.930 . S
C335 C328 1.409 1_565 S
C335 C334 1.362 . S
H336 C342 0.930 . S
H337 C345 0.929 1_565 S
H338 C346 0.930 . S
H339 C347 0.930 . S
H340 C350 0.929 1_545 S
H341 C351 0.930 . S
C342 H336 0.930 . S
C342 C343 1.355 . S
C342 C344 1.415 . S
C343 C342 1.355 . S
C343 C345 1.423 . S
C344 C342 1.415 . S
C344 C349 1.425 1_445 S
C344 C351 1.409 1_455 S
C345 H337 0.929 1_545 S
C345 C343 1.423 . S
C345 C346 1.359 1_545 S
C346 H338 0.930 . S
C346 C345 1.359 1_565 S
C346 C349 1.409 1_455 S
C347 H339 0.930 . S
C347 C348 1.355 . S
C347 C349 1.415 . S
C348 C347 1.355 . S
C348 C350 1.423 . S
C349 C344 1.425 1_665 S
C349 C346 1.409 1_655 S
C349 C347 1.415 . S
C350 H340 0.929 1_565 S
C350 C348 1.423 . S
C350 C351 1.359 1_565 S
C351 H341 0.930 . S
C351 C344 1.409 1_655 S
C351 C350 1.359 1_545 S
H352 C358 0.930 1_455 S
H353 C361 0.930 . S
H354 C362 0.930 1_565 S
H355 C363 0.930 1_655 S
H356 C366 0.930 . S
H357 C367 0.930 1_545 S
C358 H352 0.930 1_655 S
C358 C359 1.355 . S
C358 C360 1.415 1_655 S
C359 C358 1.355 . S
C359 C361 1.419 . S
C360 C358 1.415 1_455 S
C360 C365 1.425 1_445 S
C360 C367 1.409 1_545 S
C361 H353 0.930 . S
C361 C359 1.419 . S
C361 C362 1.362 . S
C362 H354 0.930 1_545 S
C362 C361 1.362 . S
C362 C365 1.409 1_545 S
C363 H355 0.930 1_455 S
C363 C364 1.355 . S
C363 C365 1.415 1_455 S
C364 C363 1.355 . S
C364 C366 1.419 . S
C365 C360 1.425 1_665 S
C365 C362 1.409 1_565 S
C365 C363 1.415 1_655 S
C366 H356 0.930 . S
C366 C364 1.419 . S
C366 C367 1.362 . S
C367 H357 0.930 1_565 S
C367 C360 1.409 1_565 S
C367 C366 1.362 . S
H368 C374 0.930 . S
H369 C377 0.930 . S
H370 C378 0.930 . S
H371 C379 0.930 . S
H372 C382 0.930 . S
H373 C383 0.930 . S
C374 H368 0.930 . S
C374 C375 1.355 . S
C374 C376 1.415 . S
C375 C374 1.355 . S
C375 C377 1.419 . S
C376 C374 1.415 . S
C376 C381 1.425 . S
C376 C383 1.409 . S
C377 H369 0.930 . S
C377 C375 1.419 . S
C377 C378 1.362 . S
C378 H370 0.930 . S
C378 C377 1.362 . S
C378 C381 1.409 . S
C379 H371 0.930 . S
C379 C380 1.355 . S
C379 C381 1.415 . S
C380 C379 1.355 . S
C380 C382 1.419 . S
C381 C376 1.425 . S
C381 C378 1.409 . S
C381 C379 1.415 . S
C382 H372 0.930 . S
C382 C380 1.419 . S
C382 C383 1.362 . S
C383 H373 0.930 . S
C383 C376 1.409 . S
C383 C382 1.362 . S
H384 C390 0.930 . S
H385 C393 0.930 . S
H386 C394 0.930 . S
H387 C395 0.930 . S
H388 C398 0.930 . S
H389 C399 0.930 . S
C390 H384 0.930 . S
C390 C391 1.355 . S
C390 C392 1.415 . S
C391 C390 1.355 . S
C391 C393 1.419 . S
C392 C390 1.415 . S
C392 C397 1.425 . S
C392 C399 1.409 . S
C393 H385 0.930 . S
C393 C391 1.419 . S
C393 C394 1.362 . S
C394 H386 0.930 . S
C394 C393 1.362 . S
C394 C397 1.409 . S
C395 H387 0.930 . S
C395 C396 1.355 . S
C395 C397 1.415 . S
C396 C395 1.355 . S
C396 C398 1.419 . S
C397 C392 1.425 . S
C397 C394 1.409 . S
C397 C395 1.415 . S
C398 H388 0.930 . S
C398 C396 1.419 . S
C398 C399 1.362 . S
C399 H389 0.930 . S
C399 C392 1.409 . S
C399 C398 1.362 . S
H400 C406 0.930 . S
H401 C409 0.930 . S
H402 C410 0.930 . S
H403 C411 0.930 . S
H404 C414 0.930 . S
H405 C415 0.930 . S
C406 H400 0.930 . S
C406 C407 1.355 . S
C406 C408 1.415 . S
C407 C406 1.355 . S
C407 C409 1.419 . S
C408 C406 1.415 . S
C408 C413 1.425 . S
C408 C415 1.409 . S
C409 H401 0.930 . S
C409 C407 1.419 . S
C409 C410 1.362 . S
C410 H402 0.930 . S
C410 C409 1.362 . S
C410 C413 1.409 . S
C411 H403 0.930 . S
C411 C412 1.355 . S
C411 C413 1.415 . S
C412 C411 1.355 . S
C412 C414 1.419 . S
C413 C408 1.425 . S
C413 C410 1.409 . S
C413 C411 1.415 . S
C414 H404 0.930 . S
C414 C412 1.419 . S
C414 C415 1.362 . S
C415 H405 0.930 . S
C415 C408 1.409 . S
C415 C414 1.362 . S
H416 C422 0.930 . S
H417 C425 0.930 . S
H418 C426 0.930 . S
H419 C427 0.930 . S
H420 C430 0.930 . S
H421 C431 0.930 . S
C422 H416 0.930 . S
C422 C423 1.355 . S
C422 C424 1.415 . S
C423 C422 1.355 . S
C423 C425 1.419 . S
C424 C422 1.415 . S
C424 C429 1.425 . S
C424 C431 1.409 . S
C425 H417 0.930 . S
C425 C423 1.419 . S
C425 C426 1.362 . S
C426 H418 0.930 . S
C426 C425 1.362 . S
C426 C429 1.409 . S
C427 H419 0.930 . S
C427 C428 1.355 . S
C427 C429 1.415 . S
C428 C427 1.355 . S
C428 C430 1.419 . S
C429 C424 1.425 . S
C429 C426 1.409 . S
C429 C427 1.415 . S
C430 H420 0.930 . S
C430 C428 1.419 . S
C430 C431 1.362 . S
C431 H421 0.930 . S
C431 C424 1.409 . S
C431 C430 1.362 . S
H432 C438 0.930 . S
H433 C441 0.930 . S
H434 C442 0.930 . S
H435 C443 0.930 . S
H436 C446 0.930 . S
H437 C447 0.930 . S
C438 H432 0.930 . S
C438 C439 1.355 . S
C438 C440 1.415 . S
C439 C438 1.355 . S
C439 C441 1.419 . S
C440 C438 1.415 . S
C440 C445 1.425 . S
C440 C447 1.409 . S
C441 H433 0.930 . S
C441 C439 1.419 . S
C441 C442 1.362 . S
C442 H434 0.930 . S
C442 C441 1.362 . S
C442 C445 1.409 . S
C443 H435 0.930 . S
C443 C444 1.355 . S
C443 C445 1.415 . S
C444 C443 1.355 . S
C444 C446 1.419 . S
C445 C440 1.425 . S
C445 C442 1.409 . S
C445 C443 1.415 . S
C446 H436 0.930 . S
C446 C444 1.419 . S
C446 C447 1.362 . S
C447 H437 0.930 . S
C447 C440 1.409 . S
C447 C446 1.362 . S
H448 C454 0.930 . S
H449 C457 0.930 . S
H450 C458 0.930 . S
H451 C459 0.930 . S
H452 C462 0.930 . S
H453 C463 0.930 . S
C454 H448 0.930 . S
C454 C455 1.355 . S
C454 C456 1.415 . S
C455 C454 1.355 . S
C455 C457 1.419 . S
C456 C454 1.415 . S
C456 C461 1.425 . S
C456 C463 1.409 . S
C457 H449 0.930 . S
C457 C455 1.419 . S
C457 C458 1.362 . S
C458 H450 0.930 . S
C458 C457 1.362 . S
C458 C461 1.409 . S
C459 H451 0.930 . S
C459 C460 1.355 . S
C459 C461 1.415 . S
C460 C459 1.355 . S
C460 C462 1.419 . S
C461 C456 1.425 . S
C461 C458 1.409 . S
C461 C459 1.415 . S
C462 H452 0.930 . S
C462 C460 1.419 . S
C462 C463 1.362 . S
C463 H453 0.930 . S
C463 C456 1.409 . S
C463 C462 1.362 . S
H464 C470 0.930 . S
H465 C473 0.930 . S
H466 C474 0.930 . S
H467 C475 0.930 . S
H468 C478 0.930 . S
H469 C479 0.930 . S
C470 H464 0.930 . S
C470 C471 1.355 . S
C470 C472 1.415 . S
C471 C470 1.355 . S
C471 C473 1.419 . S
C472 C470 1.415 . S
C472 C477 1.425 . S
C472 C479 1.409 . S
C473 H465 0.930 . S
C473 C471 1.419 . S
C473 C474 1.362 . S
C474 H466 0.930 . S
C474 C473 1.362 . S
C474 C477 1.409 . S
C475 H467 0.930 . S
C475 C476 1.355 . S
C475 C477 1.415 . S
C476 C475 1.355 . S
C476 C478 1.419 . S
C477 C472 1.425 . S
C477 C474 1.409 . S
C477 C475 1.415 . S
C478 H468 0.930 . S
C478 C476 1.419 . S
C478 C479 1.362 . S
C479 H469 0.930 . S
C479 C472 1.409 . S
C479 C478 1.362 . S
H480 C486 0.930 . S
H481 C489 0.930 . S
H482 C490 0.930 . S
H483 C491 0.930 . S
H484 C494 0.930 . S
H485 C495 0.930 . S
C486 H480 0.930 . S
C486 C487 1.355 . S
C486 C488 1.415 . S
C487 C486 1.355 . S
C487 C489 1.419 . S
C488 C486 1.415 . S
C488 C493 1.425 . S
C488 C495 1.409 . S
C489 H481 0.930 . S
C489 C487 1.419 . S
C489 C490 1.362 . S
C490 H482 0.930 . S
C490 C489 1.362 . S
C490 C493 1.409 . S
C491 H483 0.930 . S
C491 C492 1.355 . S
C491 C493 1.415 . S
C492 C491 1.355 . S
C492 C494 1.419 . S
C493 C488 1.425 . S
C493 C490 1.409 . S
C493 C491 1.415 . S
C494 H484 0.930 . S
C494 C492 1.419 . S
C494 C495 1.362 . S
C495 H485 0.930 . S
C495 C488 1.409 . S
C495 C494 1.362 . S
H496 C502 0.930 . S
H497 C505 0.930 . S
H498 C506 0.930 . S
H499 C507 0.930 . S
H500 C510 0.930 . S
H501 C511 0.930 . S
C502 H496 0.930 . S
C502 C503 1.355 . S
C502 C504 1.415 . S
C503 C502 1.355 . S
C503 C505 1.419 . S
C504 C502 1.415 . S
C504 C509 1.425 . S
C504 C511 1.409 . S
C505 H497 0.930 . S
C505 C503 1.419 . S
C505 C506 1.362 . S
C506 H498 0.930 . S
C506 C505 1.362 . S
C506 C509 1.409 . S
C507 H499 0.930 . S
C507 C508 1.355 . S
C507 C509 1.415 . S
C508 C507 1.355 . S
C508 C510 1.419 . S
C509 C504 1.425 . S
C509 C506 1.409 . S
C509 C507 1.415 . S
C510 H500 0.930 . S
C510 C508 1.419 . S
C510 C511 1.362 . S
C511 H501 0.930 . S
C511 C504 1.409 . S
C511 C510 1.362 . S
H512 C518 0.930 . S
H513 C521 0.930 . S
H514 C522 0.930 . S
H515 C523 0.930 . S
H516 C526 0.930 . S
H517 C527 0.930 . S
C518 H512 0.930 . S
C518 C519 1.355 . S
C518 C520 1.415 . S
C519 C518 1.355 . S
C519 C521 1.419 . S
C520 C518 1.415 . S
C520 C525 1.425 . S
C520 C527 1.409 . S
C521 H513 0.930 . S
C521 C519 1.419 . S
C521 C522 1.362 . S
C522 H514 0.930 . S
C522 C521 1.362 . S
C522 C525 1.409 . S
C523 H515 0.930 . S
C523 C524 1.355 . S
C523 C525 1.415 . S
C524 C523 1.355 . S
C524 C526 1.419 . S
C525 C520 1.425 . S
C525 C522 1.409 . S
C525 C523 1.415 . S
C526 H516 0.930 . S
C526 C524 1.419 . S
C526 C527 1.362 . S
C527 H517 0.930 . S
C527 C520 1.409 . S
C527 C526 1.362 . S
H528 C534 0.930 . S
H529 C537 0.930 . S
H530 C538 0.930 . S
H531 C539 0.931 . S
H532 C542 0.930 . S
H533 C543 0.930 . S
C534 H528 0.930 . S
C534 C535 1.355 . S
C534 C536 1.415 . S
C535 C534 1.355 . S
C535 C537 1.419 . S
C536 C534 1.415 . S
C536 C541 1.425 . S
C536 C543 1.409 . S
C537 H529 0.930 . S
C537 C535 1.419 . S
C537 C538 1.362 . S
C538 H530 0.930 . S
C538 C537 1.362 . S
C538 C541 1.409 . S
C539 H531 0.931 . S
C539 C540 1.382 . S
C539 C541 1.388 1_556 S
C540 C539 1.382 . S
C540 C542 1.419 . S
C541 C536 1.425 . S
C541 C538 1.409 . S
C541 C539 1.388 1_554 S
C542 H532 0.930 . S
C542 C540 1.419 . S
C542 C543 1.362 1_556 S
C543 H533 0.930 . S
C543 C536 1.409 . S
C543 C542 1.362 1_554 S
H544 C550 0.930 . S
H545 C553 0.930 . S
H546 C554 0.930 1_554 S
H547 C555 0.930 . S
H548 C558 0.930 . S
H549 C559 0.930 . S
C550 H544 0.930 . S
C550 C551 1.355 . S
C550 C552 1.415 . S
C551 C550 1.355 . S
C551 C553 1.419 . S
C552 C550 1.415 . S
C552 C557 1.425 . S
C552 C559 1.409 . S
C553 H545 0.930 . S
C553 C551 1.419 . S
C553 C554 1.362 . S
C554 H546 0.930 1_556 S
C554 C553 1.362 . S
C554 C557 1.409 . S
C555 H547 0.930 . S
C555 C556 1.355 . S
C555 C557 1.415 1_554 S
C556 C555 1.355 . S
C556 C558 1.419 1_554 S
C557 C552 1.425 . S
C557 C554 1.409 . S
C557 C555 1.415 1_556 S
C558 H548 0.930 . S
C558 C556 1.419 1_556 S
C558 C559 1.362 . S
C559 H549 0.930 . S
C559 C552 1.409 . S
C559 C558 1.362 . S
H560 C566 0.930 . S
H561 C569 0.930 . S
H562 C570 0.930 . S
H563 C571 0.930 . S
H564 C574 0.930 . S
H565 C575 0.930 . S
C566 H560 0.930 . S
C566 C567 1.355 . S
C566 C568 1.415 . S
C567 C566 1.355 . S
C567 C569 1.419 . S
C568 C566 1.415 . S
C568 C573 1.425 . S
C568 C575 1.409 1_554 S
C569 H561 0.930 . S
C569 C567 1.419 . S
C569 C570 1.362 . S
C570 H562 0.930 . S
C570 C569 1.362 . S
C570 C573 1.409 . S
C571 H563 0.930 . S
C571 C572 1.355 1_554 S
C571 C573 1.415 . S
C572 C571 1.355 1_556 S
C572 C574 1.419 . S
C573 C568 1.425 . S
C573 C570 1.409 . S
C573 C571 1.415 . S
C574 H564 0.930 . S
C574 C572 1.419 . S
C574 C575 1.362 . S
C575 H565 0.930 . S
C575 C568 1.409 1_556 S
C575 C574 1.362 . S
H576 C582 0.930 . S
H577 C585 0.930 . S
H578 C586 0.930 1_554 S
H579 C587 0.930 . S
H580 C590 0.930 . S
H581 C591 0.930 . S
C582 H576 0.930 . S
C582 C583 1.355 . S
C582 C584 1.415 . S
C583 C582 1.355 . S
C583 C585 1.419 . S
C584 C582 1.415 . S
C584 C589 1.425 . S
C584 C591 1.409 . S
C585 H577 0.930 . S
C585 C583 1.419 . S
C585 C586 1.362 . S
C586 H578 0.930 1_556 S
C586 C585 1.362 . S
C586 C589 1.409 . S
C587 H579 0.930 . S
C587 C588 1.355 . S
C587 C589 1.415 1_554 S
C588 C587 1.355 . S
C588 C590 1.419 1_554 S
C589 C584 1.425 . S
C589 C586 1.409 . S
C589 C587 1.415 1_556 S
C590 H580 0.930 . S
C590 C588 1.419 1_556 S
C590 C591 1.362 . S
C591 H581 0.930 . S
C591 C584 1.409 . S
C591 C590 1.362 . S
C279 C88 1.196 . S
C284 C20 1.197 . S
C295 C122 1.246 . S
C300 C54 1.246 . S
C311 C224 1.197 . S
C316 C156 1.198 . S
C327 C258 1.199 . S
C332 C190 1.200 . S
C343 C2 1.427 . S
C348 C70 1.395 . S
C359 C104 1.438 . S
C364 C36 1.405 . S
C375 C206 1.415 . S
C380 C138 1.405 . S
C391 C240 1.395 . S
C396 C172 1.427 . S
C407 C247 1.504 . S
C412 C9 1.503 . S
C423 C145 1.503 . S
C428 C43 1.504 . S
C439 C77 1.473 . S
C444 C179 1.468 . S
C455 C213 1.500 . S
C460 C111 1.504 . S
C471 C67 0.627 . S
C476 C5 0.712 . S
C487 C101 0.704 . S
C492 C39 0.754 . S
C503 C73 0.664 . S
C508 C135 0.683 . S
C519 C33 0.627 . S
C524 C107 0.685 . S
C535 C271 0.627 . S
C540 C141 0.712 . S
C551 C169 0.781 . S
C556 C175 0.758 . S
C567 C203 0.728 . S
C572 C209 0.667 . S
C583 C237 0.649 . S
C588 C243 0.732 . S
