# Generated by pormake.
# Topology eci, (8)-cn, num edge types: 1
# Building blocks:
#     Node 0, Type 0, BuildingBlock: AJUNOK_clean_sbu_0, # of connection points: 8
#     Node 1, Type 0, BuildingBlock: AJUNOK_clean_sbu_0, # of connection points: 8
#     Node 2, Type 0, BuildingBlock: AJUNOK_clean_sbu_0, # of connection points: 8
#     Node 3, Type 0, BuildingBlock: AJUNOK_clean_sbu_0, # of connection points: 8
#     Edge 4, Type (0, 0), BuildingBlock: FUNLAD_clean_linker_1, # of connection points: 2
#     Edge 5, Type (0, 0), BuildingBlock: FUNLAD_clean_linker_1, # of connection points: 2
#     Edge 6, Type (0, 0), BuildingBlock: FUNLAD_clean_linker_1, # of connection points: 2
#     Edge 7, Type (0, 0), BuildingBlock: FUNLAD_clean_linker_1, # of connection points: 2
#     Edge 8, Type (0, 0), BuildingBlock: FUNLAD_clean_linker_1, # of connection points: 2
#     Edge 9, Type (0, 0), BuildingBlock: FUNLAD_clean_linker_1, # of connection points: 2
#     Edge 10, Type (0, 0), BuildingBlock: FUNLAD_clean_linker_1, # of connection points: 2
#     Edge 11, Type (0, 0), BuildingBlock: FUNLAD_clean_linker_1, # of connection points: 2
#     Edge 12, Type (0, 0), BuildingBlock: FUNLAD_clean_linker_1, # of connection points: 2
#     Edge 13, Type (0, 0), BuildingBlock: FUNLAD_clean_linker_1, # of connection points: 2
#     Edge 14, Type (0, 0), BuildingBlock: FUNLAD_clean_linker_1, # of connection points: 2
#     Edge 15, Type (0, 0), BuildingBlock: FUNLAD_clean_linker_1, # of connection points: 2
#     Edge 16, Type (0, 0), BuildingBlock: FUNLAD_clean_linker_1, # of connection points: 2
#     Edge 17, Type (0, 0), BuildingBlock: FUNLAD_clean_linker_1, # of connection points: 2
#     Edge 18, Type (0, 0), BuildingBlock: FUNLAD_clean_linker_1, # of connection points: 2
#     Edge 19, Type (0, 0), BuildingBlock: FUNLAD_clean_linker_1, # of connection points: 2
# Relax obj value: 0.364
# Max RMSD: 0.286
# Mean RMSD: 0.286
data_MOF--net-eci--node1-AJUNOK_clean_sbu_0--edge1-FUNLAD_clean_linker_1
_symmetry_space_group_name_H-M    P1
_symmetry_Int_Tables_number       1
_symmetry_cell_setting            triclinic
loop_
_symmetry_equiv_pos_as_xyz
'x, y, z'
_cell_length_a     34.516736
_cell_length_b     34.854688
_cell_length_c     19.453357
_cell_angle_alpha  90.536115
_cell_angle_beta   89.406539
_cell_angle_gamma 89.246027
loop_
_atom_site_label
_atom_site_type_symbol
_atom_site_fract_x
_atom_site_fract_y
_atom_site_fract_z
_atom_type_partial_charge
Cd0 Cd 0.83907 0.80814 0.06899 0.0
Cd1 Cd 0.81444 0.83362 0.87088 0.0
C2 C 0.84116 0.71775 0.0451 0.0
N3 N 0.81417 0.74606 0.05495 0.0
C4 C 0.76452 0.69919 0.06983 0.0
C5 C 0.79226 0.66937 0.0614 0.0
C6 C 0.83073 0.67933 0.04718 0.0
C7 C 0.77629 0.7376 0.06673 0.0
H8 H 0.87136 0.7248 0.03915 0.0
H9 H 0.75548 0.76058 0.07615 0.0
C10 C 0.77669 0.88074 0.01927 0.0
C11 C 0.84012 0.92106 0.87642 0.0
C12 C 0.86436 0.95258 0.87884 0.0
C13 C 0.90394 0.94675 0.89151 0.0
C14 C 0.91758 0.90987 0.90655 0.0
C15 C 0.89209 0.87938 0.90533 0.0
N16 N 0.85414 0.88541 0.89074 0.0
H17 H 0.8102 0.9249 0.86165 0.0
H18 H 0.90307 0.85085 0.91321 0.0
C19 C 0.72536 0.82159 0.87942 0.0
N20 N 0.75742 0.79945 0.88982 0.0
C21 C 0.71792 0.74443 0.90925 0.0
C22 C 0.68456 0.76662 0.89629 0.0
C23 C 0.6886 0.8057 0.88208 0.0
C24 C 0.75456 0.76147 0.90459 0.0
H25 H 0.72848 0.85167 0.86774 0.0
H26 H 0.78056 0.74436 0.91178 0.0
C27 C 0.89261 0.77728 0.9195 0.0
C28 C 0.85012 0.80597 0.2125 0.0
N29 N 0.88479 0.85669 0.06171 0.0
C30 C 0.92309 0.84705 0.06346 0.0
C31 C 0.95095 0.87538 0.06901 0.0
C32 C 0.93908 0.91372 0.07686 0.0
C33 C 0.89955 0.92315 0.07388 0.0
C34 C 0.87279 0.8939 0.06702 0.0
C35 C 0.81198 0.85034 0.72868 0.0
O36 O 0.78313 0.85351 0.06069 0.0
O37 O 0.78824 0.87864 0.95726 0.0
O38 O 0.86679 0.78523 0.87574 0.0
O39 O 0.88776 0.78585 -0.01738 0.0
O40 O 0.82101 0.82187 0.18526 0.0
O41 O 0.87387 0.78838 0.17293 0.0
O42 O 0.83871 0.83069 0.75567 0.0
O43 O 0.78412 0.86118 0.76736 0.0
H44 H 0.93196 0.8173 0.065 0.0
H45 H 0.84253 0.90087 0.07011 0.0
H46 H 0.73441 0.69336 0.08063 0.0
H47 H 0.85313 0.65748 0.04083 0.0
H48 H 0.85264 0.98071 0.86718 0.0
H49 H 0.94812 0.90426 0.91496 0.0
H50 H 0.71573 0.7142 0.92089 0.0
H51 H 0.6635 0.82388 0.87325 0.0
H52 H 0.9812 0.86711 0.07323 0.0
H53 H 0.88936 0.9525 0.08041 0.0
Cd54 Cd 0.70265 0.35242 0.34914 0.0
Cd55 Cd 0.67856 0.30742 0.14287 0.0
C56 C 0.79284 0.33703 0.34597 0.0
N57 N 0.76055 0.31675 0.33123 0.0
C58 C 0.79929 0.25989 0.31218 0.0
C59 C 0.83306 0.28017 0.32845 0.0
C60 C 0.82937 0.31954 0.34386 0.0
C61 C 0.76301 0.27878 0.3144 0.0
H62 H 0.79017 0.36697 0.36059 0.0
H63 H 0.73688 0.26299 0.30423 0.0
C64 C 0.6246 0.28904 0.28488 0.0
C65 C 0.58968 0.33517 0.12756 0.0
C66 C 0.55875 0.36079 0.11936 0.0
C67 C 0.56445 0.39996 0.13163 0.0
C68 C 0.59974 0.41203 0.15844 0.0
C69 C 0.62949 0.38549 0.16699 0.0
N70 N 0.62458 0.34811 0.14915 0.0
H71 H 0.58646 0.30534 0.11325 0.0
H72 H 0.65701 0.39557 0.18401 0.0
C73 C 0.68659 0.21641 0.17647 0.0
N74 N 0.7088 0.24734 0.16198 0.0
C75 C 0.76401 0.20616 0.14158 0.0
C76 C 0.74118 0.17363 0.15249 0.0
C77 C 0.70237 0.17936 0.17336 0.0
C78 C 0.74712 0.24293 0.14625 0.0
H79 H 0.656 0.21993 0.18686 0.0
H80 H 0.76409 0.26784 0.13369 0.0
C81 C 0.73647 0.38938 0.20683 0.0
C82 C 0.70592 0.36244 0.49274 0.0
N83 N 0.65533 0.40123 0.33306 0.0
C84 C 0.66729 0.4365 0.31331 0.0
C85 C 0.64051 0.46566 0.30028 0.0
C86 C 0.60107 0.45924 0.31135 0.0
C87 C 0.58926 0.42356 0.33607 0.0
C88 C 0.61713 0.39469 0.34663 0.0
C89 C 0.68176 0.30622 -0.00233 0.0
O90 O 0.6476 0.31035 0.31824 0.0
O91 O 0.63029 0.28223 0.22138 0.0
O92 O 0.7167 0.36146 0.18481 0.0
O93 O 0.74166 0.3922 0.271 0.0
O94 O 0.70126 0.32975 0.46512 0.0
O95 O 0.71067 0.39069 0.4533 0.0
O96 O 0.71069 0.31528 0.03355 0.0
O97 O 0.65126 0.29609 0.0291 0.0
H98 H 0.69757 0.44205 0.3067 0.0
H99 H 0.6081 0.36703 0.36501 0.0
H100 H 0.80084 0.22959 0.29939 0.0
H101 H 0.85433 0.33703 0.35416 0.0
H102 H 0.53182 0.35059 0.09818 0.0
H103 H 0.60525 0.44202 0.16831 0.0
H104 H 0.79414 0.20315 0.12612 0.0
H105 H 0.68364 0.15564 0.18509 0.0
H106 H 0.6505 0.4929 0.28094 0.0
H107 H 0.55885 0.41756 0.34414 0.0
Cd108 Cd 0.20593 0.16898 0.37468 0.0
Cd109 Cd 0.17911 0.20584 0.5786 0.0
C110 C 0.2839 0.20881 0.43466 0.0
N111 N 0.25548 0.21399 0.38758 0.0
C112 C 0.29589 0.25608 0.32309 0.0
C113 C 0.3269 0.24878 0.36752 0.0
C114 C 0.31996 0.22605 0.42577 0.0
C115 C 0.26032 0.23822 0.33393 0.0
H116 H 0.27996 0.18893 0.47621 0.0
H117 H 0.23769 0.24103 0.29615 0.0
C118 C 0.12485 0.22979 0.43539 0.0
C119 C 0.09158 0.16855 0.57723 0.0
C120 C 0.06596 0.13824 0.58438 0.0
C121 C 0.08011 0.10183 0.60278 0.0
C122 C 0.12003 0.09679 0.61342 0.0
C123 C 0.14416 0.12805 0.60784 0.0
N124 N 0.13003 0.16252 0.58775 0.0
H125 H 0.08063 0.1967 0.56419 0.0
H126 H 0.17433 0.12526 0.6208 0.0
C127 C 0.18015 0.29513 0.56143 0.0
N128 N 0.20677 0.2661 0.56191 0.0
C129 C 0.25843 0.31144 0.56485 0.0
C130 C 0.23112 0.34192 0.56541 0.0
C131 C 0.19172 0.33313 0.56193 0.0
C132 C 0.24543 0.27339 0.56327 0.0
H133 H 0.14962 0.28897 0.56418 0.0
H134 H 0.26603 0.24982 0.56611 0.0
C135 C 0.23632 0.1242 0.50359 0.0
C136 C 0.20395 0.15405 0.23132 0.0
N137 N 0.16725 0.11787 0.40833 0.0
C138 C 0.17971 0.0823 0.38806 0.0
C139 C 0.15423 0.05177 0.38771 0.0
C140 C 0.11518 0.05858 0.4049 0.0
C141 C 0.10383 0.09442 0.43148 0.0
C142 C 0.13055 0.12402 0.43235 0.0
C143 C 0.17914 0.20897 0.72239 0.0
O144 O 0.14696 0.21088 0.39409 0.0
O145 O 0.13181 0.23162 0.49915 0.0
O146 O 0.21725 0.15338 0.52538 0.0
O147 O 0.2465 0.12386 0.44097 0.0
O148 O 0.178 0.17343 0.26265 0.0
O149 O 0.23243 0.14234 0.26621 0.0
O150 O 0.20677 0.19265 0.68916 0.0
O151 O 0.15279 0.2256 0.68838 0.0
H152 H 0.20853 0.07823 0.36672 0.0
H153 H 0.12083 0.1524 0.44648 0.0
H154 H 0.2999 0.27335 0.27762 0.0
H155 H 0.34264 0.21888 0.46147 0.0
H156 H 0.03526 0.1435 0.57767 0.0
H157 H 0.1329 0.06961 0.62748 0.0
H158 H 0.28921 0.31657 0.56727 0.0
H159 H 0.16968 0.35557 0.56286 0.0
H160 H 0.16397 0.02421 0.36734 0.0
H161 H 0.07376 0.10063 0.4443 0.0
Cd162 Cd 0.34802 0.70203 0.61494 0.0
Cd163 Cd 0.31725 0.67438 0.81874 0.0
C164 C 0.34805 0.79281 0.63152 0.0
N165 N 0.32128 0.76452 0.63172 0.0
C166 C 0.26986 0.81173 0.63417 0.0
C167 C 0.29724 0.84139 0.63381 0.0
C168 C 0.33666 0.83131 0.63384 0.0
C169 C 0.28265 0.7732 0.63311 0.0
H170 H 0.37852 0.78556 0.62719 0.0
H171 H 0.26179 0.75035 0.63113 0.0
C172 C 0.28852 0.62407 0.68459 0.0
C173 C 0.34694 0.58839 0.80723 0.0
C174 C 0.37285 0.55765 0.80984 0.0
C175 C 0.41238 0.56396 0.79792 0.0
C176 C 0.42409 0.59976 0.77417 0.0
C177 C 0.39688 0.62955 0.77029 0.0
N178 N 0.35929 0.62371 0.78862 0.0
H179 H 0.31762 0.58474 0.82571 0.0
H180 H 0.40668 0.65768 0.75751 0.0
C181 C 0.23764 0.71111 0.7565 0.0
N182 N 0.26535 0.71812 0.8041 0.0
C183 C 0.22241 0.76147 0.8646 0.0
C184 C 0.19212 0.75214 0.81999 0.0
C185 C 0.20077 0.72808 0.76313 0.0
C186 C 0.25884 0.74379 0.85613 0.0
H187 H 0.24313 0.69048 0.71573 0.0
H188 H 0.28096 0.7482 0.89431 0.0
C189 C 0.39696 0.73191 0.76362 0.0
C190 C 0.35109 0.70483 0.47107 0.0
N191 N 0.4016 0.65989 0.61347 0.0
C192 C 0.43845 0.67333 0.61365 0.0
C193 C 0.46994 0.64794 0.60729 0.0
C194 C 0.46349 0.60846 0.60067 0.0
C195 C 0.42519 0.59533 0.60127 0.0
C196 C 0.3946 0.62171 0.607 0.0
C197 C 0.3155 0.65745 0.96104 0.0
O198 O 0.30911 0.64884 0.65477 0.0
O199 O 0.28117 0.62809 0.74819 0.0
O200 O 0.37451 0.71751 0.80865 0.0
O201 O 0.39068 0.72778 0.70007 0.0
O202 O 0.32104 0.69317 0.50238 0.0
O203 O 0.37895 0.71674 0.50702 0.0
O204 O 0.34254 0.67578 0.93277 0.0
O205 O 0.28721 0.6482 0.92379 0.0
H206 H 0.44345 0.70387 0.6162 0.0
H207 H 0.36524 0.61166 0.60428 0.0
H208 H 0.23908 0.8181 0.63467 0.0
H209 H 0.3587 0.85316 0.63281 0.0
H210 H 0.36268 0.53023 0.82769 0.0
H211 H 0.45444 0.60568 0.76492 0.0
H212 H 0.21723 0.78015 0.90865 0.0
H213 H 0.17908 0.72092 0.72558 0.0
H214 H 0.49904 0.65916 0.60481 0.0
H215 H 0.41868 0.56533 0.59324 0.0
H216 H 0.87925 0.79197 0.30995 0.0
C217 C 0.85646 0.80911 0.28663 0.0
H218 H 0.81325 0.85208 0.30133 0.0
H219 H 0.82804 0.78246 0.61486 0.0
H220 H 0.80543 0.72258 0.56677 0.0
H221 H 0.79657 0.71496 0.44174 0.0
H222 H 0.81097 0.76688 0.36428 0.0
C223 C 0.83469 0.83343 0.32499 0.0
C224 C 0.84002 0.83752 0.39983 0.0
C225 C 0.82992 0.80711 0.44417 0.0
C226 C 0.83332 0.81205 0.5162 0.0
C227 C 0.8248 0.78075 0.55968 0.0
C228 C 0.81193 0.7461 0.53277 0.0
C229 C 0.80707 0.74178 0.46241 0.0
C230 C 0.81575 0.77184 0.41841 0.0
H231 H 0.78537 0.86359 0.62893 0.0
C232 C 0.81256 0.85782 0.65481 0.0
H233 H 0.87305 0.84817 0.6442 0.0
H234 H 0.86428 0.90039 0.32817 0.0
H235 H 0.8864 0.96053 0.37703 0.0
H236 H 0.88903 0.97004 0.50286 0.0
H237 H 0.86957 0.9193 0.5805 0.0
C238 C 0.84563 0.8533 0.61863 0.0
C239 C 0.84477 0.84794 0.54347 0.0
C240 C 0.85538 0.87811 0.49934 0.0
C241 C 0.85329 0.8728 0.42711 0.0
C242 C 0.86478 0.90309 0.38363 0.0
C243 C 0.87763 0.93772 0.41099 0.0
C244 C 0.87914 0.94306 0.48182 0.0
C245 C 0.86801 0.91374 0.52577 0.0
H246 H 0.68855 0.39505 0.58538 0.0
C247 C 0.70074 0.36793 0.56683 0.0
H248 H 0.71737 0.31134 0.58934 0.0
H249 H 0.67619 0.38925 0.8981 0.0
H250 H 0.72098 0.44062 0.87229 0.0
H251 H 0.75329 0.4438 0.7587 0.0
H252 H 0.73998 0.3967 0.66984 0.0
C253 C 0.70564 0.33838 0.60937 0.0
C254 C 0.68725 0.33799 0.67841 0.0
C255 C 0.69751 0.36475 0.7303 0.0
C256 C 0.6811 0.3615 0.79705 0.0
C257 C 0.68947 0.38968 0.84744 0.0
C258 C 0.7149 0.41931 0.83318 0.0
C259 C 0.7329 0.42119 0.76912 0.0
C260 C 0.72466 0.39414 0.71823 0.0
H261 H 0.71208 0.31067 0.89908 0.0
C262 C 0.68349 0.31017 0.9231 0.0
H263 H 0.62324 0.31932 0.90875 0.0
H264 H 0.65454 0.28758 0.58675 0.0
H265 H 0.60835 0.23806 0.61361 0.0
H266 H 0.58417 0.22972 0.73229 0.0
H267 H 0.60588 0.27145 0.82478 0.0
C268 C 0.65211 0.31879 0.88588 0.0
C269 C 0.65754 0.32974 0.81306 0.0
C270 C 0.64452 0.30527 0.76019 0.0
C271 C 0.65912 0.30962 0.69235 0.0
C272 C 0.6453 0.28503 0.6398 0.0
C273 C 0.61856 0.25657 0.6544 0.0
C274 C 0.60493 0.2519 0.72121 0.0
C275 C 0.61771 0.27587 0.77379 0.0
H276 H 0.15382 0.22414 0.82322 0.0
C277 C 0.17583 0.2066 0.79712 0.0
H278 H 0.21693 0.16153 0.80647 0.0
H279 H 0.18852 0.22817 0.12612 0.0
H280 H 0.21699 0.28732 0.08649 0.0
H281 H 0.23472 0.29542 0.96431 0.0
H282 H 0.22346 0.24469 0.88113 0.0
C283 C 0.1967 0.18106 0.83254 0.0
C284 C 0.18885 0.17549 0.9065 0.0
C285 C 0.19727 0.20502 0.95446 0.0
C286 C 0.18859 0.19981 0.02501 0.0
C287 C 0.19563 0.23022 0.07198 0.0
C288 C 0.21182 0.2644 0.04992 0.0
C289 C 0.22167 0.26899 -0.01886 0.0
C290 C 0.21475 0.23969 0.93379 0.0
H291 H 0.22908 0.14023 0.12961 0.0
C292 C 0.20251 0.14836 0.15686 0.0
H293 H 0.14372 0.16579 0.14826 0.0
H294 H 0.1658 0.11473 0.82653 0.0
H295 H 0.1356 0.05645 0.86676 0.0
H296 H 0.12257 0.04686 -0.0096 0.0
H297 H 0.1397 0.09573 0.07464 0.0
C298 C 0.17048 0.15746 0.12187 0.0
C299 C 0.17347 0.16446 0.0475 0.0
C300 C 0.16375 0.13551 -0.00036 0.0
C301 C 0.17143 0.14103 0.92867 0.0
C302 C 0.16097 0.11191 0.8813 0.0
C303 C 0.14356 0.07833 0.90369 0.0
C304 C 0.13622 0.07293 0.97331 0.0
C305 C 0.14625 0.10108 0.02106 0.0
H306 H 0.28853 0.64635 0.06182 0.0
C307 C 0.31596 0.65005 0.03486 0.0
H308 H 0.37652 0.65653 0.04278 0.0
H309 H 0.33876 0.75713 0.309 0.0
H310 H 0.36009 0.80529 0.22861 0.0
H311 H 0.37682 0.78774 0.10868 0.0
H312 H 0.37161 0.7221 0.06843 0.0
C313 C 0.34912 0.65261 0.06977 0.0
C314 C 0.34772 0.66051 0.14428 0.0
C315 C 0.35266 0.69876 0.16744 0.0
C316 C 0.3445 0.70855 0.23699 0.0
C317 C 0.34653 0.74759 0.25761 0.0
C318 C 0.35833 0.77568 0.21172 0.0
C319 C 0.36763 0.76584 0.1442 0.0
C320 C 0.36452 0.72797 0.12182 0.0
H321 H 0.38321 0.70831 0.37347 0.0
C322 C 0.3552 0.70185 0.3964 0.0
H323 H 0.29892 0.68098 0.38 0.0
H324 H 0.34095 0.58397 0.11646 0.0
H325 H 0.32454 0.53433 0.19851 0.0
H326 H 0.31255 0.55057 0.32073 0.0
H327 H 0.31673 0.61628 0.3616 0.0
C328 C 0.32652 0.68883 0.35711 0.0
C329 C 0.33365 0.67948 0.28374 0.0
C330 C 0.33092 0.64078 0.26114 0.0
C331 C 0.33787 0.63133 0.191 0.0
C332 C 0.33536 0.59258 0.16928 0.0
C333 C 0.32621 0.56386 0.21585 0.0
C334 C 0.31948 0.573 0.28466 0.0
C335 C 0.32184 0.61092 0.30738 0.0
H336 H 0.45272 0.7584 0.74069 0.0
C337 C 0.43567 0.74608 0.78212 0.0
H338 H 0.43723 0.72363 0.88214 0.0
H339 H 0.61545 0.68063 0.87453 0.0
H340 H 0.585 0.62017 0.9005 0.0
H341 H 0.51386 0.61467 0.90192 0.0
H342 H 0.47276 0.66951 0.87814 0.0
C343 C 0.45326 0.73809 0.84189 0.0
C344 C 0.49627 0.74271 0.84907 0.0
C345 C 0.52009 0.71027 0.86427 0.0
C346 C 0.56133 0.71342 0.86363 0.0
C347 C 0.58416 0.68022 0.87631 0.0
C348 C 0.56704 0.64519 0.89067 0.0
C349 C 0.52698 0.64209 0.89147 0.0
C350 C 0.50368 0.674 0.87797 0.0
H351 H 0.63429 0.73877 0.94633 0.0
C352 C 0.64523 0.74999 0.89808 0.0
H353 H 0.63386 0.76436 0.79578 0.0
H354 H 0.45994 0.81227 0.83098 0.0
H355 H 0.49027 0.87196 0.79993 0.0
H356 H 0.56134 0.87626 0.79018 0.0
H357 H 0.60232 0.82135 0.8128 0.0
C358 C 0.6219 0.75298 0.84323 0.0
C359 C 0.57881 0.74895 0.84766 0.0
C360 C 0.55498 0.78136 0.83296 0.0
C361 C 0.51387 0.77853 0.83571 0.0
C362 C 0.49114 0.81212 0.82547 0.0
C363 C 0.5082 0.84678 0.80855 0.0
C364 C 0.54818 0.84923 0.80326 0.0
C365 C 0.57141 0.81722 0.81612 0.0
H366 H 0.78909 0.13138 0.13276 0.0
C367 C 0.7578 0.13453 0.13769 0.0
H368 H 0.70435 0.10688 0.1224 0.0
H369 H 0.75029 0.97704 0.91915 0.0
H370 H 0.7214 0.02289 0.84146 0.0
H371 H 0.70603 0.08903 0.88 0.0
H372 H 0.71957 0.10973 -0.0034 0.0
C373 C 0.73561 0.10384 0.12384 0.0
C374 C 0.75162 0.06627 0.09823 0.0
C375 C 0.7435 0.05449 0.02994 0.0
C376 C 0.75277 0.01648 0.00745 0.0
C377 C 0.74419 0.00563 0.93892 0.0
C378 C 0.72752 0.03165 0.89372 0.0
C379 C 0.71882 0.06886 0.91546 0.0
C380 C 0.72655 0.08029 -0.01732 0.0
H381 H 0.74201 0.91947 0.08879 0.0
C382 C 0.76342 0.91845 0.04747 0.0
H383 H 0.80358 0.94946 -0.01158 0.0
H384 H 0.77428 0.08024 0.23054 0.0
H385 H 0.81029 0.03683 0.30359 0.0
H386 H 0.82884 0.97184 0.26281 0.0
H387 H 0.8108 0.94961 0.14904 0.0
C388 C 0.78096 0.95093 0.02731 0.0
C389 C 0.77022 0.99012 0.05316 0.0
C390 C 0.78106 1.00273 0.11981 0.0
C391 C 0.77135 0.04073 0.14266 0.0
C392 C 0.78162 0.05213 0.21 0.0
C393 C 0.80224 0.02744 0.25255 0.0
C394 C 0.81263 0.99081 0.22962 0.0
C395 C 0.80205 0.97837 0.16424 0.0
H396 H 0.3709 0.26834 0.29242 0.0
C397 C 0.36666 0.26061 0.346 0.0
H398 H 0.39513 0.25195 0.44056 0.0
H399 H 0.55669 0.20155 0.31814 0.0
H400 H 0.53277 0.14122 0.36181 0.0
H401 H 0.46559 0.13604 0.40486 0.0
H402 H 0.42188 0.19098 0.40442 0.0
C403 C 0.39795 0.25961 0.3869 0.0
C404 C 0.43823 0.26318 0.35862 0.0
C405 C 0.46383 0.23096 0.36081 0.0
C406 C 0.50262 0.23385 0.33581 0.0
C407 C 0.52709 0.20095 0.33688 0.0
C408 C 0.51371 0.16613 0.3617 0.0
C409 C 0.47589 0.16323 0.38598 0.0
C410 C 0.45114 0.19511 0.38571 0.0
H411 H 0.58401 0.28081 0.37255 0.0
C412 C 0.58714 0.27846 0.31701 0.0
H413 H 0.55794 0.27166 0.22277 0.0
H414 H 0.39715 0.3306 0.34542 0.0
H415 H 0.41945 0.38857 0.29105 0.0
H416 H 0.48697 0.39383 0.24959 0.0
H417 H 0.53192 0.34006 0.25869 0.0
C418 C 0.5557 0.27151 0.2785 0.0
C419 C 0.51595 0.26894 0.30887 0.0
C420 C 0.49024 0.30095 0.30532 0.0
C421 C 0.45138 0.29813 0.33021 0.0
C422 C 0.42661 0.3307 0.32604 0.0
C423 C 0.43925 0.36446 0.29588 0.0
C424 C 0.47716 0.36732 0.27208 0.0
C425 C 0.50259 0.33615 0.27722 0.0
H426 H 0.30877 0.90326 0.64684 0.0
C427 C 0.2868 0.88302 0.63083 0.0
H428 H 0.23363 0.87811 0.57855 0.0
H429 H 0.24271 0.06395 0.66613 0.0
H430 H 0.21662 0.04284 0.77503 0.0
H431 H 0.20643 0.9741 0.79702 0.0
H432 H 0.2231 0.92596 0.71001 0.0
C433 C 0.25493 0.89724 0.60029 0.0
C434 C 0.25278 0.93892 0.58244 0.0
C435 C 0.2419 0.96694 0.63247 0.0
C436 C 0.24569 0.00686 0.61803 0.0
C437 C 0.23774 0.03364 0.67173 0.0
C438 C 0.22333 0.02181 0.73519 0.0
C439 C 0.21776 0.98309 0.74771 0.0
C440 C 0.22744 0.9558 0.69748 0.0
H441 H 0.20863 0.07967 0.56624 0.0
C442 C 0.23549 0.08731 0.54099 0.0
H443 H 0.28993 0.06807 0.50628 0.0
H444 H 0.27296 0.89267 0.4734 0.0
H445 H 0.29128 0.91308 0.35906 0.0
H446 H 0.29263 0.98176 0.3301 0.0
H447 H 0.27642 0.0304 0.41526 0.0
C448 C 0.26366 0.06046 0.53397 0.0
C449 C 0.25805 0.01883 0.55146 0.0
C450 C 0.26604 0.99044 0.49987 0.0
C451 C 0.26404 0.95067 0.51576 0.0
C452 C 0.27365 0.9232 0.46396 0.0
C453 C 0.28412 0.93449 0.39799 0.0
C454 C 0.28497 0.97315 0.38175 0.0
C455 C 0.2759 1.00086 0.43162 0.0
H456 H 0.93437 0.75717 0.83934 0.0
C457 C 0.93151 0.76513 0.89333 0.0
H458 H 0.9618 0.77734 -0.01527 0.0
H459 H 0.11367 0.68606 0.88395 0.0
H460 H 0.08394 0.63626 0.95182 0.0
H461 H 0.01717 0.64406 -0.00334 0.0
H462 H 0.97968 0.70186 0.97395 0.0
C463 C 0.96381 0.76902 0.931 0.0
C464 C 1.00354 0.76383 0.90075 0.0
C465 C 0.02498 0.72977 0.91353 0.0
C466 C 0.06338 0.72514 0.88691 0.0
C467 C 0.08419 0.69094 0.90173 0.0
C468 C 0.06754 0.66214 0.94094 0.0
C469 C 0.02997 0.66656 0.96627 0.0
C470 C 1.00879 0.69989 0.95288 0.0
H471 H 0.14824 0.78738 0.8775 0.0
C472 C 0.15175 0.76522 0.8381 0.0
H473 H 0.1222 0.72341 0.78006 0.0
H474 H 0.9723 0.83442 0.87304 0.0
H475 H 1.00241 0.88518 0.80765 0.0
H476 H 0.06807 0.87639 0.75813 0.0
H477 H 0.10419 0.81697 0.77428 0.0
C478 C 0.11966 0.74761 0.81531 0.0
C479 C 0.08049 0.75459 0.84725 0.0
C480 C 0.05941 0.78917 0.83595 0.0
C481 C 0.02107 0.79391 0.86325 0.0
C482 C 1.00113 0.82909 0.8526 0.0
C483 C 0.01812 0.85848 0.81526 0.0
C484 C 0.05512 0.85354 0.78746 0.0
C485 C 0.0756 0.81932 0.79728 0.0
H486 H 0.72385 0.42667 0.11832 0.0
C487 C 0.74192 0.42386 0.16345 0.0
H488 H 0.78028 0.45068 0.23091 0.0
H489 H 0.75356 0.57826 0.975 0.0
H490 H 0.77179 0.52778 0.89361 0.0
H491 H 0.7863 0.4622 0.93337 0.0
H492 H 0.78132 0.44633 0.05412 0.0
C493 C 0.76268 0.45413 0.18533 0.0
C494 C 0.75685 0.4943 0.15919 0.0
C495 C 0.76218 0.50352 0.08865 0.0
C496 C 0.75655 0.54204 0.06611 0.0
C497 C 0.75944 0.54993 -0.00498 0.0
C498 C 0.76962 0.5212 0.94779 0.0
C499 C 0.77755 0.48423 0.97016 0.0
C500 C 0.77413 0.47538 0.03967 0.0
H501 H 0.80839 0.60793 0.06488 0.0
C502 C 0.78403 0.62782 0.07154 0.0
H503 H 0.72521 0.63163 0.10345 0.0
H504 H 0.7429 0.48788 0.29817 0.0
H505 H 0.72343 0.53833 0.37721 0.0
H506 H 0.71599 0.60504 0.33802 0.0
H507 H 0.72753 0.62133 0.21903 0.0
C508 C 0.7502 0.61318 0.09354 0.0
C509 C 0.74825 0.57191 0.11432 0.0
C510 C 0.74156 0.56268 0.1842 0.0
C511 C 0.74604 0.52407 0.20673 0.0
C512 C 0.73954 0.51624 0.27732 0.0
C513 C 0.72853 0.54512 0.3237 0.0
C514 C 0.72435 0.58265 0.30166 0.0
C515 C 0.73105 0.59156 0.233 0.0
H516 H 0.87586 0.23502 0.29535 0.0
C517 C 0.87179 0.26037 0.32772 0.0
H518 H 0.89807 0.29743 0.39985 0.0
H519 H 0.03333 0.16833 0.43455 0.0
H520 H 0.98395 0.13051 0.49094 0.0
H521 H 0.91521 0.15058 0.48879 0.0
H522 H 0.89515 0.20821 0.42881 0.0
C523 C 0.90176 0.27292 0.36555 0.0
C524 C 0.94206 0.2571 0.35864 0.0
C525 C 0.95333 0.22325 0.39343 0.0
C526 C 0.99319 0.21193 0.3953 0.0
C527 C 1.00357 0.17822 0.43125 0.0
C528 C 0.97554 0.15632 0.46409 0.0
C529 C 0.93679 0.16759 0.46278 0.0
C530 C 0.92566 0.20069 0.42813 0.0
H531 H 0.0748 0.26977 0.43958 0.0
C532 C 0.08687 0.24485 0.41257 0.0
H533 H 0.0743 0.1975 0.34863 0.0
H534 H 0.93002 0.32155 0.28251 0.0
H535 H 0.97897 0.35833 0.22294 0.0
H536 H 0.04787 0.33873 0.226 0.0
H537 H 0.0683 0.28226 0.28889 0.0
C538 C 0.06388 0.22458 0.37052 0.0
C539 C 0.02185 0.2348 0.36322 0.0
C540 C 1.01029 0.26768 0.32587 0.0
C541 C 0.97046 0.27884 0.32373 0.0
C542 C 0.95986 0.31192 0.28623 0.0
C543 C 0.98764 0.33321 0.25158 0.0
C544 C 0.02644 0.32218 0.25333 0.0
C545 C 0.03779 0.28981 0.28987 0.0
H546 H 0.21697 0.4036 0.57053 0.0
C547 C 0.24098 0.38314 0.57371 0.0
H548 H 0.30053 0.37801 0.59789 0.0
H549 H 0.23636 0.5611 0.55533 0.0
H550 H 0.22778 0.54349 0.43579 0.0
H551 H 0.24511 0.47845 0.39366 0.0
H552 H 0.26971 0.43021 0.47194 0.0
C553 C 0.27581 0.39702 0.59081 0.0
C554 C 0.27898 0.43854 0.61024 0.0
C555 C 0.26791 0.46739 0.56316 0.0
C556 C 0.26114 0.5058 0.58635 0.0
C557 C 0.24517 0.53246 0.53962 0.0
C558 C 0.23952 0.52254 0.47092 0.0
C559 C 0.24903 0.48587 0.44728 0.0
C560 C 0.26287 0.45843 0.49273 0.0
H561 H 0.29843 0.58143 0.602 0.0
C562 C 0.28283 0.58651 0.6501 0.0
H563 H 0.24981 0.56223 0.72938 0.0
H564 H 0.30465 0.39115 0.71207 0.0
H565 H 0.3192 0.40937 0.82922 0.0
H566 H 0.31141 0.47648 0.86856 0.0
H567 H 0.28891 0.52556 0.79132 0.0
C568 C 0.26459 0.55711 0.68053 0.0
C569 C 0.26925 0.51634 0.65552 0.0
C570 C 0.2829 0.48771 0.70158 0.0
C571 C 0.28773 0.4489 0.67887 0.0
C572 C 0.30064 0.421 0.72631 0.0
C573 C 0.30914 0.43104 0.79385 0.0
C574 C 0.30475 0.4688 0.81597 0.0
C575 C 0.29178 0.49682 0.77077 0.0
H576 H 0.0577 0.03113 0.40814 0.0
C577 C 0.08497 0.03275 0.37983 0.0
H578 H 0.11289 0.02409 0.28337 0.0
H579 H 0.98124 0.90017 0.2133 0.0
H580 H 0.02309 0.85637 0.27473 0.0
H581 H 0.07932 0.88022 0.33894 0.0
H582 H 0.09358 0.94826 0.34251 0.0
C583 C 0.08722 0.01953 0.31491 0.0
C584 C 0.05279 0.00545 0.27916 0.0
C585 C 0.04537 0.96574 0.27696 0.0
C586 C 0.01378 0.95202 0.23832 0.0
C587 C 1.00584 0.9122 0.23932 0.0
C588 C 0.02945 0.88671 0.27502 0.0
C589 C 0.06104 0.90013 0.31127 0.0
C590 C 0.06894 0.93921 0.31276 0.0
H591 H 0.99762 0.93767 0.08496 0.0
C592 C 0.96754 0.9416 0.10116 0.0
H593 H 0.92997 0.96625 0.17683 0.0
H594 H 0.05866 0.0839 0.27604 0.0
H595 H 0.01711 0.12789 0.21376 0.0
H596 H 0.96319 0.1038 0.1438 0.0
H597 H 0.95033 0.03548 0.13629 0.0
C598 C 0.95935 0.96352 0.15662 0.0
C599 C 0.99081 0.97815 0.20001 0.0
C600 C 0.99764 0.018 0.20375 0.0
C601 C 0.02877 0.03176 0.24361 0.0
C602 C 0.03536 0.0718 0.2464 0.0
C603 C 0.01175 0.09739 0.21086 0.0
C604 C 0.98137 0.08383 0.17152 0.0
C605 C 0.97429 0.0446 0.16769 0.0
H606 H 0.57449 0.49594 0.2333 0.0
C607 C 0.57278 0.48798 0.28708 0.0
H608 H 0.52649 0.52604 0.3018 0.0
H609 H 0.44812 0.48515 0.57235 0.0
H610 H 0.40758 0.44826 0.49583 0.0
H611 H 0.42806 0.43515 0.37628 0.0
H612 H 0.49006 0.45781 0.33252 0.0
C613 C 0.54631 0.50624 0.32676 0.0
C614 C 0.54146 0.50195 0.40239 0.0
C615 C 0.50636 0.48668 0.42795 0.0
C616 C 0.49419 0.49488 0.49659 0.0
C617 C 0.45833 0.48053 0.52021 0.0
C618 C 0.43496 0.45901 0.477 0.0
C619 C 0.44663 0.45142 0.40964 0.0
C620 C 0.48199 0.46484 0.38512 0.0
H621 H 0.51701 0.5952 0.54406 0.0
C622 C 0.49596 0.58283 0.57912 0.0
H623 H 0.47564 0.53264 0.6253 0.0
H624 H 0.61346 0.53139 0.37412 0.0
H625 H 0.65656 0.5613 0.45578 0.0
H626 H 0.63674 0.57033 0.57732 0.0
H627 H 0.57267 0.55023 0.6169 0.0
C628 C 0.49638 0.54466 0.58953 0.0
C629 C 0.51676 0.51918 0.5383 0.0
C630 C 0.55507 0.52749 0.51751 0.0
C631 C 0.56709 0.52033 0.44846 0.0
C632 C 0.6036 0.53397 0.42674 0.0
C633 C 0.62849 0.55155 0.47311 0.0
C634 C 0.61729 0.55675 0.5415 0.0
C635 C 0.58077 0.54524 0.56357 0.0
H636 H 0.02148 0.07819 0.60922 0.0
C637 C 0.05188 0.07168 0.61899 0.0
H638 H 0.08973 0.03465 0.67411 0.0
H639 H 0.95534 0.05261 0.89947 0.0
H640 H 1.00087 0.09981 0.94129 0.0
H641 H 0.06051 0.11379 0.87556 0.0
H642 H 0.07479 0.08093 0.76765 0.0
C643 C 0.06038 0.04182 0.65944 0.0
C644 C 0.02943 0.0273 0.70405 0.0
C645 C 0.02246 0.04588 0.7682 0.0
C646 C 0.98869 0.03733 0.80662 0.0
C647 C 0.98116 0.05751 0.86897 0.0
C648 C 1.00695 0.08476 0.89338 0.0
C649 C 0.04049 0.09268 0.85635 0.0
C650 C 0.04826 0.07366 0.79436 0.0
H651 H 0.96156 0.97247 0.89786 0.0
C652 C 0.93275 0.97628 0.87644 0.0
H653 H 0.90088 1.00086 0.79544 0.0
H654 H 0.03774 0.98437 0.58654 0.0
H655 H 0.99535 0.93316 0.54891 0.0
H656 H 0.93835 0.91544 0.61864 0.0
H657 H 0.92241 0.94952 0.72456 0.0
C658 C 0.92842 0.99893 0.82173 0.0
C659 C 0.96305 0.00927 0.78163 0.0
C660 C 0.97149 0.98885 0.71959 0.0
C661 C 1.00471 0.99826 0.68028 0.0
C662 C 0.01266 0.97808 0.61815 0.0
C663 C 0.98871 0.94862 0.5962 0.0
C664 C 0.95652 0.93873 0.63533 0.0
C665 C 0.94774 0.95859 0.69615 0.0
H666 H 0.50647 0.41888 0.09863 0.0
C667 C 0.53641 0.42776 0.10404 0.0
H668 H 0.57897 0.46694 0.06961 0.0
H669 H 0.45485 0.45743 0.81709 0.0
H670 H 0.48769 0.3966 0.79303 0.0
H671 H 0.53891 0.37245 0.86968 0.0
H672 H 0.55697 0.40856 0.97131 0.0
C673 C 0.54882 0.45843 0.06923 0.0
C674 C 0.52375 0.47627 0.01746 0.0
C675 C 0.51512 0.45554 0.95651 0.0
C676 C 0.48676 0.47003 0.91116 0.0
C677 C 0.47685 0.44798 0.85258 0.0
C678 C 0.49545 0.41304 0.8382 0.0
C679 C 0.5242 0.39939 0.88143 0.0
C680 C 0.53409 0.42029 0.93991 0.0
H681 H 0.47124 0.53813 0.80264 0.0
C682 C 0.44204 0.5372 0.82415 0.0
H683 H 0.40813 0.52146 0.91038 0.0
H684 H 0.53914 0.52516 0.12427 0.0
H685 H 0.51033 0.58848 0.14349 0.0
H686 H 0.46227 0.61479 0.06277 0.0
H687 H 0.4427 0.57801 0.96272 0.0
C688 C 0.43599 0.51937 0.88407 0.0
C689 C 0.46856 0.50575 0.92588 0.0
C690 C 0.47979 0.528 -0.01641 0.0
C691 C 0.50755 0.51311 0.02968 0.0
C692 C 0.51808 0.53537 0.08763 0.0
C693 C 0.50183 0.57171 0.09916 0.0
C694 C 0.47476 0.58651 0.05375 0.0
C695 C 0.46368 0.56502 -0.00336 0.0
loop_
_geom_bond_atom_site_label_1
_geom_bond_atom_site_label_2
_geom_bond_distance
_geom_bond_site_symmetry_2
_ccdc_geom_bond_type
Cd0 N3 2.334 . S
Cd0 N29 2.304 . S
Cd0 O36 2.268 . S
Cd0 O39 2.273 . S
Cd0 O40 2.417 . S
Cd0 O41 2.330 . S
Cd1 N16 2.304 . S
Cd1 N20 2.334 . S
Cd1 O37 2.273 . S
Cd1 O38 2.268 . S
Cd1 O42 2.417 . S
Cd1 O43 2.330 . S
C2 N3 1.332 . S
C2 C6 1.381 . S
C2 H8 0.931 . S
N3 Cd0 2.334 . S
N3 C2 1.332 . S
N3 C7 1.328 . S
C4 C5 1.396 . S
C4 C7 1.378 . S
C4 H46 0.931 . S
C5 C4 1.396 . S
C5 C6 1.382 . S
C6 C2 1.381 . S
C6 C5 1.382 . S
C6 H47 0.930 . S
C7 N3 1.328 . S
C7 C4 1.378 . S
C7 H9 0.930 . S
H8 C2 0.931 . S
H9 C7 0.930 . S
C10 O36 1.238 . S
C10 O37 1.253 1_554 S
C11 C12 1.379 . S
C11 N16 1.337 . S
C11 H17 0.929 . S
C12 C11 1.379 . S
C12 C13 1.380 . S
C12 H48 0.929 . S
C13 C12 1.380 . S
C13 C14 1.399 . S
C14 C13 1.399 . S
C14 C15 1.376 . S
C14 H49 0.931 . S
C15 C14 1.376 . S
C15 N16 1.338 . S
C15 H18 0.930 . S
N16 Cd1 2.304 . S
N16 C11 1.337 . S
N16 C15 1.338 . S
H17 C11 0.929 . S
H18 C15 0.930 . S
C19 N20 1.332 . S
C19 C23 1.381 . S
C19 H25 0.931 . S
N20 Cd1 2.334 . S
N20 C19 1.332 . S
N20 C24 1.328 . S
C21 C22 1.396 . S
C21 C24 1.378 . S
C21 H50 0.931 . S
C22 C21 1.396 . S
C22 C23 1.382 . S
C23 C19 1.381 . S
C23 C22 1.382 . S
C23 H51 0.930 . S
C24 N20 1.328 . S
C24 C21 1.378 . S
C24 H26 0.930 . S
H25 C19 0.931 . S
H26 C24 0.930 . S
C27 O38 1.238 . S
C27 O39 1.253 1_556 S
C28 O40 1.239 . S
C28 O41 1.230 . S
N29 Cd0 2.304 . S
N29 C30 1.337 . S
N29 C34 1.338 . S
C30 N29 1.337 . S
C30 C31 1.379 . S
C30 H44 0.929 . S
C31 C30 1.379 . S
C31 C32 1.380 . S
C31 H52 0.929 . S
C32 C31 1.380 . S
C32 C33 1.399 . S
C33 C32 1.399 . S
C33 C34 1.376 . S
C33 H53 0.931 . S
C34 N29 1.338 . S
C34 C33 1.376 . S
C34 H45 0.930 . S
C35 O42 1.239 . S
C35 O43 1.230 . S
O36 Cd0 2.268 . S
O36 C10 1.238 . S
O37 Cd1 2.273 . S
O37 C10 1.253 1_556 S
O38 Cd1 2.268 . S
O38 C27 1.238 . S
O39 Cd0 2.273 . S
O39 C27 1.253 1_554 S
O40 Cd0 2.417 . S
O40 C28 1.239 . S
O41 Cd0 2.330 . S
O41 C28 1.230 . S
O42 Cd1 2.417 . S
O42 C35 1.239 . S
O43 Cd1 2.330 . S
O43 C35 1.230 . S
H44 C30 0.929 . S
H45 C34 0.930 . S
H46 C4 0.931 . S
H47 C6 0.930 . S
H48 C12 0.929 . S
H49 C14 0.931 . S
H50 C21 0.931 . S
H51 C23 0.930 . S
H52 C31 0.929 . S
H53 C33 0.931 . S
Cd54 N57 2.334 . S
Cd54 N83 2.304 . S
Cd54 O90 2.268 . S
Cd54 O93 2.273 . S
Cd54 O94 2.417 . S
Cd54 O95 2.330 . S
Cd55 N70 2.304 . S
Cd55 N74 2.334 . S
Cd55 O91 2.273 . S
Cd55 O92 2.268 . S
Cd55 O96 2.417 . S
Cd55 O97 2.330 . S
C56 N57 1.332 . S
C56 C60 1.381 . S
C56 H62 0.931 . S
N57 Cd54 2.334 . S
N57 C56 1.332 . S
N57 C61 1.328 . S
C58 C59 1.396 . S
C58 C61 1.378 . S
C58 H100 0.931 . S
C59 C58 1.396 . S
C59 C60 1.382 . S
C60 C56 1.381 . S
C60 C59 1.382 . S
C60 H101 0.930 . S
C61 N57 1.328 . S
C61 C58 1.378 . S
C61 H63 0.930 . S
H62 C56 0.931 . S
H63 C61 0.930 . S
C64 O90 1.238 . S
C64 O91 1.253 . S
C65 C66 1.379 . S
C65 N70 1.337 . S
C65 H71 0.929 . S
C66 C65 1.379 . S
C66 C67 1.380 . S
C66 H102 0.929 . S
C67 C66 1.380 . S
C67 C68 1.399 . S
C68 C67 1.399 . S
C68 C69 1.376 . S
C68 H103 0.931 . S
C69 C68 1.376 . S
C69 N70 1.338 . S
C69 H72 0.930 . S
N70 Cd55 2.304 . S
N70 C65 1.337 . S
N70 C69 1.338 . S
H71 C65 0.929 . S
H72 C69 0.930 . S
C73 N74 1.332 . S
C73 C77 1.381 . S
C73 H79 0.931 . S
N74 Cd55 2.334 . S
N74 C73 1.332 . S
N74 C78 1.328 . S
C75 C76 1.396 . S
C75 C78 1.378 . S
C75 H104 0.931 . S
C76 C75 1.396 . S
C76 C77 1.382 . S
C77 C73 1.381 . S
C77 C76 1.382 . S
C77 H105 0.930 . S
C78 N74 1.328 . S
C78 C75 1.378 . S
C78 H80 0.930 . S
H79 C73 0.931 . S
H80 C78 0.930 . S
C81 O92 1.238 . S
C81 O93 1.253 . S
C82 O94 1.239 . S
C82 O95 1.230 . S
N83 Cd54 2.304 . S
N83 C84 1.337 . S
N83 C88 1.338 . S
C84 N83 1.337 . S
C84 C85 1.379 . S
C84 H98 0.929 . S
C85 C84 1.379 . S
C85 C86 1.380 . S
C85 H106 0.929 . S
C86 C85 1.380 . S
C86 C87 1.399 . S
C87 C86 1.399 . S
C87 C88 1.376 . S
C87 H107 0.931 . S
C88 N83 1.338 . S
C88 C87 1.376 . S
C88 H99 0.930 . S
C89 O96 1.238 1_556 S
C89 O97 1.229 1_556 S
O90 Cd54 2.268 . S
O90 C64 1.238 . S
O91 Cd55 2.273 . S
O91 C64 1.253 . S
O92 Cd55 2.268 . S
O92 C81 1.238 . S
O93 Cd54 2.273 . S
O93 C81 1.253 . S
O94 Cd54 2.417 . S
O94 C82 1.239 . S
O95 Cd54 2.330 . S
O95 C82 1.230 . S
O96 Cd55 2.417 . S
O96 C89 1.238 1_554 S
O97 Cd55 2.330 . S
O97 C89 1.229 1_554 S
H98 C84 0.929 . S
H99 C88 0.930 . S
H100 C58 0.931 . S
H101 C60 0.930 . S
H102 C66 0.929 . S
H103 C68 0.931 . S
H104 C75 0.931 . S
H105 C77 0.930 . S
H106 C85 0.929 . S
H107 C87 0.931 . S
Cd108 N111 2.334 . S
Cd108 N137 2.304 . S
Cd108 O144 2.268 . S
Cd108 O147 2.273 . S
Cd108 O148 2.417 . S
Cd108 O149 2.330 . S
Cd109 N124 2.304 . S
Cd109 N128 2.334 . S
Cd109 O145 2.273 . S
Cd109 O146 2.268 . S
Cd109 O150 2.417 . S
Cd109 O151 2.330 . S
C110 N111 1.332 . S
C110 C114 1.381 . S
C110 H116 0.931 . S
N111 Cd108 2.334 . S
N111 C110 1.332 . S
N111 C115 1.328 . S
C112 C113 1.396 . S
C112 C115 1.378 . S
C112 H154 0.931 . S
C113 C112 1.396 . S
C113 C114 1.382 . S
C114 C110 1.381 . S
C114 C113 1.382 . S
C114 H155 0.930 . S
C115 N111 1.328 . S
C115 C112 1.378 . S
C115 H117 0.930 . S
H116 C110 0.931 . S
H117 C115 0.930 . S
C118 O144 1.238 . S
C118 O145 1.253 . S
C119 C120 1.379 . S
C119 N124 1.337 . S
C119 H125 0.929 . S
C120 C119 1.379 . S
C120 C121 1.380 . S
C120 H156 0.929 . S
C121 C120 1.380 . S
C121 C122 1.399 . S
C122 C121 1.399 . S
C122 C123 1.376 . S
C122 H157 0.931 . S
C123 C122 1.376 . S
C123 N124 1.338 . S
C123 H126 0.930 . S
N124 Cd109 2.304 . S
N124 C119 1.337 . S
N124 C123 1.338 . S
H125 C119 0.929 . S
H126 C123 0.930 . S
C127 N128 1.332 . S
C127 C131 1.381 . S
C127 H133 0.931 . S
N128 Cd109 2.334 . S
N128 C127 1.332 . S
N128 C132 1.328 . S
C129 C130 1.396 . S
C129 C132 1.378 . S
C129 H158 0.931 . S
C130 C129 1.396 . S
C130 C131 1.382 . S
C131 C127 1.381 . S
C131 C130 1.382 . S
C131 H159 0.930 . S
C132 N128 1.328 . S
C132 C129 1.378 . S
C132 H134 0.930 . S
H133 C127 0.931 . S
H134 C132 0.930 . S
C135 O146 1.238 . S
C135 O147 1.253 . S
C136 O148 1.239 . S
C136 O149 1.230 . S
N137 Cd108 2.304 . S
N137 C138 1.337 . S
N137 C142 1.338 . S
C138 N137 1.337 . S
C138 C139 1.379 . S
C138 H152 0.929 . S
C139 C138 1.379 . S
C139 C140 1.380 . S
C139 H160 0.929 . S
C140 C139 1.380 . S
C140 C141 1.399 . S
C141 C140 1.399 . S
C141 C142 1.376 . S
C141 H161 0.931 . S
C142 N137 1.338 . S
C142 C141 1.376 . S
C142 H153 0.930 . S
C143 O150 1.239 . S
C143 O151 1.230 . S
O144 Cd108 2.268 . S
O144 C118 1.238 . S
O145 Cd109 2.273 . S
O145 C118 1.253 . S
O146 Cd109 2.268 . S
O146 C135 1.238 . S
O147 Cd108 2.273 . S
O147 C135 1.253 . S
O148 Cd108 2.417 . S
O148 C136 1.239 . S
O149 Cd108 2.330 . S
O149 C136 1.230 . S
O150 Cd109 2.417 . S
O150 C143 1.239 . S
O151 Cd109 2.330 . S
O151 C143 1.230 . S
H152 C138 0.929 . S
H153 C142 0.930 . S
H154 C112 0.931 . S
H155 C114 0.930 . S
H156 C120 0.929 . S
H157 C122 0.931 . S
H158 C129 0.931 . S
H159 C131 0.930 . S
H160 C139 0.929 . S
H161 C141 0.931 . S
Cd162 N165 2.334 . S
Cd162 N191 2.304 . S
Cd162 O198 2.268 . S
Cd162 O201 2.273 . S
Cd162 O202 2.417 . S
Cd162 O203 2.330 . S
Cd163 N178 2.304 . S
Cd163 N182 2.334 . S
Cd163 O199 2.273 . S
Cd163 O200 2.268 . S
Cd163 O204 2.417 . S
Cd163 O205 2.330 . S
C164 N165 1.332 . S
C164 C168 1.381 . S
C164 H170 0.931 . S
N165 Cd162 2.334 . S
N165 C164 1.332 . S
N165 C169 1.328 . S
C166 C167 1.396 . S
C166 C169 1.378 . S
C166 H208 0.931 . S
C167 C166 1.396 . S
C167 C168 1.382 . S
C168 C164 1.381 . S
C168 C167 1.382 . S
C168 H209 0.930 . S
C169 N165 1.328 . S
C169 C166 1.378 . S
C169 H171 0.930 . S
H170 C164 0.931 . S
H171 C169 0.930 . S
C172 O198 1.238 . S
C172 O199 1.253 . S
C173 C174 1.379 . S
C173 N178 1.337 . S
C173 H179 0.929 . S
C174 C173 1.379 . S
C174 C175 1.380 . S
C174 H210 0.929 . S
C175 C174 1.380 . S
C175 C176 1.399 . S
C176 C175 1.399 . S
C176 C177 1.376 . S
C176 H211 0.931 . S
C177 C176 1.376 . S
C177 N178 1.338 . S
C177 H180 0.930 . S
N178 Cd163 2.304 . S
N178 C173 1.337 . S
N178 C177 1.338 . S
H179 C173 0.929 . S
H180 C177 0.930 . S
C181 N182 1.332 . S
C181 C185 1.381 . S
C181 H187 0.931 . S
N182 Cd163 2.334 . S
N182 C181 1.332 . S
N182 C186 1.328 . S
C183 C184 1.396 . S
C183 C186 1.378 . S
C183 H212 0.931 . S
C184 C183 1.396 . S
C184 C185 1.382 . S
C185 C181 1.381 . S
C185 C184 1.382 . S
C185 H213 0.930 . S
C186 N182 1.328 . S
C186 C183 1.378 . S
C186 H188 0.930 . S
H187 C181 0.931 . S
H188 C186 0.930 . S
C189 O200 1.238 . S
C189 O201 1.253 . S
C190 O202 1.239 . S
C190 O203 1.230 . S
N191 Cd162 2.304 . S
N191 C192 1.337 . S
N191 C196 1.338 . S
C192 N191 1.337 . S
C192 C193 1.379 . S
C192 H206 0.929 . S
C193 C192 1.379 . S
C193 C194 1.380 . S
C193 H214 0.929 . S
C194 C193 1.380 . S
C194 C195 1.399 . S
C195 C194 1.399 . S
C195 C196 1.376 . S
C195 H215 0.931 . S
C196 N191 1.338 . S
C196 C195 1.376 . S
C196 H207 0.930 . S
C197 O204 1.238 1_554 S
C197 O205 1.229 1_554 S
O198 Cd162 2.268 . S
O198 C172 1.238 . S
O199 Cd163 2.273 . S
O199 C172 1.253 . S
O200 Cd163 2.268 . S
O200 C189 1.238 . S
O201 Cd162 2.273 . S
O201 C189 1.253 . S
O202 Cd162 2.417 . S
O202 C190 1.239 . S
O203 Cd162 2.330 . S
O203 C190 1.230 . S
O204 Cd163 2.417 . S
O204 C197 1.238 1_556 S
O205 Cd163 2.330 . S
O205 C197 1.229 1_556 S
H206 C192 0.929 . S
H207 C196 0.930 . S
H208 C166 0.931 . S
H209 C168 0.930 . S
H210 C174 0.929 . S
H211 C176 0.931 . S
H212 C183 0.931 . S
H213 C185 0.930 . S
H214 C193 0.929 . S
H215 C195 0.931 . S
H216 C217 0.951 . S
C217 H216 0.951 . S
C217 C223 1.265 . S
H218 C223 0.950 . S
H219 C227 0.949 . S
H220 C228 0.950 . S
H221 C229 0.951 . S
H222 C230 0.951 . S
C223 C217 1.265 . S
C223 H218 0.950 . S
C223 C224 1.478 . S
C224 C223 1.478 . S
C224 C225 1.397 . S
C224 C241 1.394 . S
C225 C224 1.397 . S
C225 C226 1.438 . S
C225 C230 1.429 . S
C226 C225 1.438 . S
C226 C227 1.428 . S
C226 C239 1.394 . S
C227 H219 0.949 . S
C227 C226 1.428 . S
C227 C228 1.345 . S
C228 H220 0.950 . S
C228 C227 1.345 . S
C228 C229 1.424 . S
C229 H221 0.951 . S
C229 C228 1.424 . S
C229 C230 1.347 . S
C230 H222 0.951 . S
C230 C225 1.429 . S
C230 C229 1.347 . S
H231 C232 0.951 . S
C232 H231 0.951 . S
C232 C238 1.265 . S
H233 C238 0.950 . S
H234 C242 0.949 . S
H235 C243 0.950 . S
H236 C244 0.951 . S
H237 C245 0.951 . S
C238 C232 1.265 . S
C238 H233 0.950 . S
C238 C239 1.478 . S
C239 C226 1.394 . S
C239 C238 1.478 . S
C239 C240 1.397 . S
C240 C239 1.397 . S
C240 C241 1.438 . S
C240 C245 1.429 . S
C241 C224 1.394 . S
C241 C240 1.438 . S
C241 C242 1.428 . S
C242 H234 0.949 . S
C242 C241 1.428 . S
C242 C243 1.345 . S
C243 H235 0.950 . S
C243 C242 1.345 . S
C243 C244 1.424 . S
C244 H236 0.951 . S
C244 C243 1.424 . S
C244 C245 1.347 . S
C245 H237 0.951 . S
C245 C240 1.429 . S
C245 C244 1.347 . S
H246 C247 0.951 . S
C247 H246 0.951 . S
C247 C253 1.265 . S
H248 C253 0.950 . S
H249 C257 0.949 . S
H250 C258 0.950 . S
H251 C259 0.951 . S
H252 C260 0.951 . S
C253 C247 1.265 . S
C253 H248 0.950 . S
C253 C254 1.478 . S
C254 C253 1.478 . S
C254 C255 1.397 . S
C254 C271 1.394 . S
C255 C254 1.397 . S
C255 C256 1.438 . S
C255 C260 1.429 . S
C256 C255 1.438 . S
C256 C257 1.428 . S
C256 C269 1.394 . S
C257 H249 0.949 . S
C257 C256 1.428 . S
C257 C258 1.345 . S
C258 H250 0.950 . S
C258 C257 1.345 . S
C258 C259 1.424 . S
C259 H251 0.951 . S
C259 C258 1.424 . S
C259 C260 1.347 . S
C260 H252 0.951 . S
C260 C255 1.429 . S
C260 C259 1.347 . S
H261 C262 0.951 . S
C262 H261 0.951 . S
C262 C268 1.265 . S
H263 C268 0.950 . S
H264 C272 0.949 . S
H265 C273 0.950 . S
H266 C274 0.951 . S
H267 C275 0.951 . S
C268 C262 1.265 . S
C268 H263 0.950 . S
C268 C269 1.478 . S
C269 C256 1.394 . S
C269 C268 1.478 . S
C269 C270 1.397 . S
C270 C269 1.397 . S
C270 C271 1.438 . S
C270 C275 1.429 . S
C271 C254 1.394 . S
C271 C270 1.438 . S
C271 C272 1.428 . S
C272 H264 0.949 . S
C272 C271 1.428 . S
C272 C273 1.345 . S
C273 H265 0.950 . S
C273 C272 1.345 . S
C273 C274 1.424 . S
C274 H266 0.951 . S
C274 C273 1.424 . S
C274 C275 1.347 . S
C275 H267 0.951 . S
C275 C270 1.429 . S
C275 C274 1.347 . S
H276 C277 0.951 . S
C277 H276 0.951 . S
C277 C283 1.265 . S
H278 C283 0.950 . S
H279 C287 0.949 . S
H280 C288 0.950 . S
H281 C289 0.951 . S
H282 C290 0.951 . S
C283 C277 1.265 . S
C283 H278 0.950 . S
C283 C284 1.478 . S
C284 C283 1.478 . S
C284 C285 1.397 . S
C284 C301 1.394 . S
C285 C284 1.397 . S
C285 C286 1.438 1_556 S
C285 C290 1.429 . S
C286 C285 1.438 1_554 S
C286 C287 1.428 . S
C286 C299 1.394 . S
C287 H279 0.949 . S
C287 C286 1.428 . S
C287 C288 1.345 . S
C288 H280 0.950 . S
C288 C287 1.345 . S
C288 C289 1.424 1_554 S
C289 H281 0.951 . S
C289 C288 1.424 1_556 S
C289 C290 1.347 . S
C290 H282 0.951 . S
C290 C285 1.429 . S
C290 C289 1.347 . S
H291 C292 0.951 . S
C292 H291 0.951 . S
C292 C298 1.265 . S
H293 C298 0.950 . S
H294 C302 0.949 . S
H295 C303 0.950 . S
H296 C304 0.951 . S
H297 C305 0.951 . S
C298 C292 1.265 . S
C298 H293 0.950 . S
C298 C299 1.478 . S
C299 C286 1.394 . S
C299 C298 1.478 . S
C299 C300 1.397 . S
C300 C299 1.397 . S
C300 C301 1.438 1_554 S
C300 C305 1.429 . S
C301 C284 1.394 . S
C301 C300 1.438 1_556 S
C301 C302 1.428 . S
C302 H294 0.949 . S
C302 C301 1.428 . S
C302 C303 1.345 . S
C303 H295 0.950 . S
C303 C302 1.345 . S
C303 C304 1.424 1_556 S
C304 H296 0.951 . S
C304 C303 1.424 1_554 S
C304 C305 1.347 . S
C305 H297 0.951 . S
C305 C300 1.429 . S
C305 C304 1.347 . S
H306 C307 0.951 . S
C307 H306 0.951 . S
C307 C313 1.265 . S
H308 C313 0.950 . S
H309 C317 0.949 . S
H310 C318 0.950 . S
H311 C319 0.951 . S
H312 C320 0.951 . S
C313 C307 1.265 . S
C313 H308 0.950 . S
C313 C314 1.478 . S
C314 C313 1.478 . S
C314 C315 1.397 . S
C314 C331 1.394 . S
C315 C314 1.397 . S
C315 C316 1.438 . S
C315 C320 1.429 . S
C316 C315 1.438 . S
C316 C317 1.428 . S
C316 C329 1.394 . S
C317 H309 0.949 . S
C317 C316 1.428 . S
C317 C318 1.345 . S
C318 H310 0.950 . S
C318 C317 1.345 . S
C318 C319 1.424 . S
C319 H311 0.951 . S
C319 C318 1.424 . S
C319 C320 1.347 . S
C320 H312 0.951 . S
C320 C315 1.429 . S
C320 C319 1.347 . S
H321 C322 0.951 . S
C322 H321 0.951 . S
C322 C328 1.265 . S
H323 C328 0.950 . S
H324 C332 0.949 . S
H325 C333 0.950 . S
H326 C334 0.951 . S
H327 C335 0.951 . S
C328 C322 1.265 . S
C328 H323 0.950 . S
C328 C329 1.478 . S
C329 C316 1.394 . S
C329 C328 1.478 . S
C329 C330 1.397 . S
C330 C329 1.397 . S
C330 C331 1.438 . S
C330 C335 1.429 . S
C331 C314 1.394 . S
C331 C330 1.438 . S
C331 C332 1.428 . S
C332 H324 0.949 . S
C332 C331 1.428 . S
C332 C333 1.345 . S
C333 H325 0.950 . S
C333 C332 1.345 . S
C333 C334 1.424 . S
C334 H326 0.951 . S
C334 C333 1.424 . S
C334 C335 1.347 . S
C335 H327 0.951 . S
C335 C330 1.429 . S
C335 C334 1.347 . S
H336 C337 0.951 . S
C337 H336 0.951 . S
C337 C343 1.265 . S
H338 C343 0.950 . S
H339 C347 0.949 . S
H340 C348 0.950 . S
H341 C349 0.951 . S
H342 C350 0.951 . S
C343 C337 1.265 . S
C343 H338 0.950 . S
C343 C344 1.478 . S
C344 C343 1.478 . S
C344 C345 1.397 . S
C344 C361 1.394 . S
C345 C344 1.397 . S
C345 C346 1.438 . S
C345 C350 1.429 . S
C346 C345 1.438 . S
C346 C347 1.428 . S
C346 C359 1.394 . S
C347 H339 0.949 . S
C347 C346 1.428 . S
C347 C348 1.345 . S
C348 H340 0.950 . S
C348 C347 1.345 . S
C348 C349 1.424 . S
C349 H341 0.951 . S
C349 C348 1.424 . S
C349 C350 1.347 . S
C350 H342 0.951 . S
C350 C345 1.429 . S
C350 C349 1.347 . S
H351 C352 0.951 . S
C352 H351 0.951 . S
C352 C358 1.265 . S
H353 C358 0.950 . S
H354 C362 0.949 . S
H355 C363 0.950 . S
H356 C364 0.951 . S
H357 C365 0.951 . S
C358 C352 1.265 . S
C358 H353 0.950 . S
C358 C359 1.478 . S
C359 C346 1.394 . S
C359 C358 1.478 . S
C359 C360 1.397 . S
C360 C359 1.397 . S
C360 C361 1.438 . S
C360 C365 1.429 . S
C361 C344 1.394 . S
C361 C360 1.438 . S
C361 C362 1.428 . S
C362 H354 0.949 . S
C362 C361 1.428 . S
C362 C363 1.345 . S
C363 H355 0.950 . S
C363 C362 1.345 . S
C363 C364 1.424 . S
C364 H356 0.951 . S
C364 C363 1.424 . S
C364 C365 1.347 . S
C365 H357 0.951 . S
C365 C360 1.429 . S
C365 C364 1.347 . S
H366 C367 0.951 . S
C367 H366 0.951 . S
C367 C373 1.265 . S
H368 C373 0.950 . S
H369 C377 0.949 1_565 S
H370 C378 0.950 . S
H371 C379 0.951 . S
H372 C380 0.951 . S
C373 C367 1.265 . S
C373 H368 0.950 . S
C373 C374 1.478 . S
C374 C373 1.478 . S
C374 C375 1.397 . S
C374 C391 1.394 . S
C375 C374 1.397 . S
C375 C376 1.438 . S
C375 C380 1.429 1_554 S
C376 C375 1.438 . S
C376 C377 1.428 1_554 S
C376 C389 1.394 . S
C377 H369 0.949 1_545 S
C377 C376 1.428 1_556 S
C377 C378 1.345 . S
C378 H370 0.950 . S
C378 C377 1.345 . S
C378 C379 1.424 . S
C379 H371 0.951 . S
C379 C378 1.424 . S
C379 C380 1.347 . S
C380 H372 0.951 . S
C380 C375 1.429 1_556 S
C380 C379 1.347 . S
H381 C382 0.951 . S
C382 H381 0.951 . S
C382 C388 1.265 . S
H383 C388 0.950 . S
H384 C392 0.949 . S
H385 C393 0.950 . S
H386 C394 0.951 . S
H387 C395 0.951 1_565 S
C388 C382 1.265 . S
C388 H383 0.950 . S
C388 C389 1.478 1_565 S
C389 C376 1.394 . S
C389 C388 1.478 1_545 S
C389 C390 1.397 . S
C390 C389 1.397 . S
C390 C391 1.438 . S
C390 C395 1.429 . S
C391 C374 1.394 . S
C391 C390 1.438 . S
C391 C392 1.428 . S
C392 H384 0.949 . S
C392 C391 1.428 . S
C392 C393 1.345 . S
C393 H385 0.950 . S
C393 C392 1.345 . S
C393 C394 1.424 . S
C394 H386 0.951 . S
C394 C393 1.424 . S
C394 C395 1.347 . S
C395 H387 0.951 1_545 S
C395 C390 1.429 . S
C395 C394 1.347 . S
H396 C397 0.951 . S
C397 H396 0.951 . S
C397 C403 1.265 . S
H398 C403 0.950 . S
H399 C407 0.949 . S
H400 C408 0.950 . S
H401 C409 0.951 . S
H402 C410 0.951 . S
C403 C397 1.265 . S
C403 H398 0.950 . S
C403 C404 1.478 . S
C404 C403 1.478 . S
C404 C405 1.397 . S
C404 C421 1.394 . S
C405 C404 1.397 . S
C405 C406 1.438 . S
C405 C410 1.429 . S
C406 C405 1.438 . S
C406 C407 1.428 . S
C406 C419 1.394 . S
C407 H399 0.949 . S
C407 C406 1.428 . S
C407 C408 1.345 . S
C408 H400 0.950 . S
C408 C407 1.345 . S
C408 C409 1.424 . S
C409 H401 0.951 . S
C409 C408 1.424 . S
C409 C410 1.347 . S
C410 H402 0.951 . S
C410 C405 1.429 . S
C410 C409 1.347 . S
H411 C412 0.951 . S
C412 H411 0.951 . S
C412 C418 1.265 . S
H413 C418 0.950 . S
H414 C422 0.949 . S
H415 C423 0.950 . S
H416 C424 0.951 . S
H417 C425 0.951 . S
C418 C412 1.265 . S
C418 H413 0.950 . S
C418 C419 1.478 . S
C419 C406 1.394 . S
C419 C418 1.478 . S
C419 C420 1.397 . S
C420 C419 1.397 . S
C420 C421 1.438 . S
C420 C425 1.429 . S
C421 C404 1.394 . S
C421 C420 1.438 . S
C421 C422 1.428 . S
C422 H414 0.949 . S
C422 C421 1.428 . S
C422 C423 1.345 . S
C423 H415 0.950 . S
C423 C422 1.345 . S
C423 C424 1.424 . S
C424 H416 0.951 . S
C424 C423 1.424 . S
C424 C425 1.347 . S
C425 H417 0.951 . S
C425 C420 1.429 . S
C425 C424 1.347 . S
H426 C427 0.951 . S
C427 H426 0.951 . S
C427 C433 1.265 . S
H428 C433 0.950 . S
H429 C437 0.949 . S
H430 C438 0.950 1_545 S
H431 C439 0.951 . S
H432 C440 0.951 . S
C433 C427 1.265 . S
C433 H428 0.950 . S
C433 C434 1.478 . S
C434 C433 1.478 . S
C434 C435 1.397 . S
C434 C451 1.394 . S
C435 C434 1.397 . S
C435 C436 1.438 . S
C435 C440 1.429 . S
C436 C435 1.438 . S
C436 C437 1.428 1_565 S
C436 C449 1.394 . S
C437 H429 0.949 . S
C437 C436 1.428 1_545 S
C437 C438 1.345 1_545 S
C438 H430 0.950 1_565 S
C438 C437 1.345 1_565 S
C438 C439 1.424 . S
C439 H431 0.951 . S
C439 C438 1.424 . S
C439 C440 1.347 . S
C440 H432 0.951 . S
C440 C435 1.429 . S
C440 C439 1.347 . S
H441 C442 0.951 . S
C442 H441 0.951 . S
C442 C448 1.265 . S
H443 C448 0.950 . S
H444 C452 0.949 . S
H445 C453 0.950 . S
H446 C454 0.951 . S
H447 C455 0.951 . S
C448 C442 1.265 . S
C448 H443 0.950 . S
C448 C449 1.478 1_545 S
C449 C436 1.394 . S
C449 C448 1.478 1_565 S
C449 C450 1.397 . S
C450 C449 1.397 . S
C450 C451 1.438 . S
C450 C455 1.429 . S
C451 C434 1.394 . S
C451 C450 1.438 . S
C451 C452 1.428 . S
C452 H444 0.949 . S
C452 C451 1.428 . S
C452 C453 1.345 . S
C453 H445 0.950 . S
C453 C452 1.345 . S
C453 C454 1.424 . S
C454 H446 0.951 . S
C454 C453 1.424 . S
C454 C455 1.347 . S
C455 H447 0.951 . S
C455 C450 1.429 . S
C455 C454 1.347 . S
H456 C457 0.951 . S
C457 H456 0.951 . S
C457 C463 1.265 . S
H458 C463 0.950 1_554 S
H459 C467 0.949 . S
H460 C468 0.950 . S
H461 C469 0.951 1_554 S
H462 C470 0.951 . S
C463 C457 1.265 . S
C463 H458 0.950 1_556 S
C463 C464 1.478 1_655 S
C464 C463 1.478 1_455 S
C464 C465 1.397 . S
C464 C481 1.394 . S
C465 C464 1.397 . S
C465 C466 1.438 . S
C465 C470 1.429 . S
C466 C465 1.438 . S
C466 C467 1.428 . S
C466 C479 1.394 . S
C467 H459 0.949 . S
C467 C466 1.428 . S
C467 C468 1.345 . S
C468 H460 0.950 . S
C468 C467 1.345 . S
C468 C469 1.424 . S
C469 H461 0.951 1_556 S
C469 C468 1.424 . S
C469 C470 1.347 . S
C470 H462 0.951 . S
C470 C465 1.429 . S
C470 C469 1.347 . S
H471 C472 0.951 . S
C472 H471 0.951 . S
C472 C478 1.265 . S
H473 C478 0.950 . S
H474 C482 0.949 1_655 S
H475 C483 0.950 . S
H476 C484 0.951 . S
H477 C485 0.951 . S
C478 C472 1.265 . S
C478 H473 0.950 . S
C478 C479 1.478 . S
C479 C466 1.394 . S
C479 C478 1.478 . S
C479 C480 1.397 . S
C480 C479 1.397 . S
C480 C481 1.438 . S
C480 C485 1.429 . S
C481 C464 1.394 . S
C481 C480 1.438 . S
C481 C482 1.428 . S
C482 H474 0.949 1_455 S
C482 C481 1.428 . S
C482 C483 1.345 . S
C483 H475 0.950 . S
C483 C482 1.345 . S
C483 C484 1.424 . S
C484 H476 0.951 . S
C484 C483 1.424 . S
C484 C485 1.347 . S
C485 H477 0.951 . S
C485 C480 1.429 . S
C485 C484 1.347 . S
H486 C487 0.951 . S
C487 H486 0.951 . S
C487 C493 1.265 . S
H488 C493 0.950 . S
H489 C497 0.949 . S
H490 C498 0.950 . S
H491 C499 0.951 . S
H492 C500 0.951 . S
C493 C487 1.265 . S
C493 H488 0.950 . S
C493 C494 1.478 . S
C494 C493 1.478 . S
C494 C495 1.397 . S
C494 C511 1.394 . S
C495 C494 1.397 . S
C495 C496 1.438 . S
C495 C500 1.429 . S
C496 C495 1.438 . S
C496 C497 1.428 . S
C496 C509 1.394 . S
C497 H489 0.949 . S
C497 C496 1.428 . S
C497 C498 1.345 1_554 S
C498 H490 0.950 . S
C498 C497 1.345 1_556 S
C498 C499 1.424 . S
C499 H491 0.951 . S
C499 C498 1.424 . S
C499 C500 1.347 1_556 S
C500 H492 0.951 . S
C500 C495 1.429 . S
C500 C499 1.347 1_554 S
H501 C502 0.951 . S
C502 H501 0.951 . S
C502 C508 1.265 . S
H503 C508 0.950 . S
H504 C512 0.949 . S
H505 C513 0.950 . S
H506 C514 0.951 . S
H507 C515 0.951 . S
C508 C502 1.265 . S
C508 H503 0.950 . S
C508 C509 1.478 . S
C509 C496 1.394 . S
C509 C508 1.478 . S
C509 C510 1.397 . S
C510 C509 1.397 . S
C510 C511 1.438 . S
C510 C515 1.429 . S
C511 C494 1.394 . S
C511 C510 1.438 . S
C511 C512 1.428 . S
C512 H504 0.949 . S
C512 C511 1.428 . S
C512 C513 1.345 . S
C513 H505 0.950 . S
C513 C512 1.345 . S
C513 C514 1.424 . S
C514 H506 0.951 . S
C514 C513 1.424 . S
C514 C515 1.347 . S
C515 H507 0.951 . S
C515 C510 1.429 . S
C515 C514 1.347 . S
H516 C517 0.951 . S
C517 H516 0.951 . S
C517 C523 1.265 . S
H518 C523 0.950 . S
H519 C527 0.949 1_455 S
H520 C528 0.950 . S
H521 C529 0.951 . S
H522 C530 0.951 . S
C523 C517 1.265 . S
C523 H518 0.950 . S
C523 C524 1.478 . S
C524 C523 1.478 . S
C524 C525 1.397 . S
C524 C541 1.394 . S
C525 C524 1.397 . S
C525 C526 1.438 . S
C525 C530 1.429 . S
C526 C525 1.438 . S
C526 C527 1.428 . S
C526 C539 1.394 . S
C527 H519 0.949 1_655 S
C527 C526 1.428 . S
C527 C528 1.345 . S
C528 H520 0.950 . S
C528 C527 1.345 . S
C528 C529 1.424 . S
C529 H521 0.951 . S
C529 C528 1.424 . S
C529 C530 1.347 . S
C530 H522 0.951 . S
C530 C525 1.429 . S
C530 C529 1.347 . S
H531 C532 0.951 . S
C532 H531 0.951 . S
C532 C538 1.265 . S
H533 C538 0.950 . S
H534 C542 0.949 . S
H535 C543 0.950 . S
H536 C544 0.951 . S
H537 C545 0.951 1_455 S
C538 C532 1.265 . S
C538 H533 0.950 . S
C538 C539 1.478 1_455 S
C539 C526 1.394 . S
C539 C538 1.478 1_655 S
C539 C540 1.397 . S
C540 C539 1.397 . S
C540 C541 1.438 . S
C540 C545 1.429 . S
C541 C524 1.394 . S
C541 C540 1.438 . S
C541 C542 1.428 . S
C542 H534 0.949 . S
C542 C541 1.428 . S
C542 C543 1.345 . S
C543 H535 0.950 . S
C543 C542 1.345 . S
C543 C544 1.424 . S
C544 H536 0.951 . S
C544 C543 1.424 . S
C544 C545 1.347 . S
C545 H537 0.951 1_655 S
C545 C540 1.429 . S
C545 C544 1.347 . S
H546 C547 0.951 . S
C547 H546 0.951 . S
C547 C553 1.265 . S
H548 C553 0.950 . S
H549 C557 0.949 . S
H550 C558 0.950 . S
H551 C559 0.951 . S
H552 C560 0.951 . S
C553 C547 1.265 . S
C553 H548 0.950 . S
C553 C554 1.478 . S
C554 C553 1.478 . S
C554 C555 1.397 . S
C554 C571 1.394 . S
C555 C554 1.397 . S
C555 C556 1.438 . S
C555 C560 1.429 . S
C556 C555 1.438 . S
C556 C557 1.428 . S
C556 C569 1.394 . S
C557 H549 0.949 . S
C557 C556 1.428 . S
C557 C558 1.345 . S
C558 H550 0.950 . S
C558 C557 1.345 . S
C558 C559 1.424 . S
C559 H551 0.951 . S
C559 C558 1.424 . S
C559 C560 1.347 . S
C560 H552 0.951 . S
C560 C555 1.429 . S
C560 C559 1.347 . S
H561 C562 0.951 . S
C562 H561 0.951 . S
C562 C568 1.265 . S
H563 C568 0.950 . S
H564 C572 0.949 . S
H565 C573 0.950 . S
H566 C574 0.951 . S
H567 C575 0.951 . S
C568 C562 1.265 . S
C568 H563 0.950 . S
C568 C569 1.478 . S
C569 C556 1.394 . S
C569 C568 1.478 . S
C569 C570 1.397 . S
C570 C569 1.397 . S
C570 C571 1.438 . S
C570 C575 1.429 . S
C571 C554 1.394 . S
C571 C570 1.438 . S
C571 C572 1.428 . S
C572 H564 0.949 . S
C572 C571 1.428 . S
C572 C573 1.345 . S
C573 H565 0.950 . S
C573 C572 1.345 . S
C573 C574 1.424 . S
C574 H566 0.951 . S
C574 C573 1.424 . S
C574 C575 1.347 . S
C575 H567 0.951 . S
C575 C570 1.429 . S
C575 C574 1.347 . S
H576 C577 0.951 . S
C577 H576 0.951 . S
C577 C583 1.265 . S
H578 C583 0.950 . S
H579 C587 0.949 1_655 S
H580 C588 0.950 . S
H581 C589 0.951 . S
H582 C590 0.951 . S
C583 C577 1.265 . S
C583 H578 0.950 . S
C583 C584 1.478 . S
C584 C583 1.478 . S
C584 C585 1.397 1_545 S
C584 C601 1.394 . S
C585 C584 1.397 1_565 S
C585 C586 1.438 . S
C585 C590 1.429 . S
C586 C585 1.438 . S
C586 C587 1.428 . S
C586 C599 1.394 1_455 S
C587 H579 0.949 1_455 S
C587 C586 1.428 . S
C587 C588 1.345 . S
C588 H580 0.950 . S
C588 C587 1.345 . S
C588 C589 1.424 . S
C589 H581 0.951 . S
C589 C588 1.424 . S
C589 C590 1.347 . S
C590 H582 0.951 . S
C590 C585 1.429 . S
C590 C589 1.347 . S
H591 C592 0.951 . S
C592 H591 0.951 . S
C592 C598 1.265 . S
H593 C598 0.950 . S
H594 C602 0.949 . S
H595 C603 0.950 . S
H596 C604 0.951 . S
H597 C605 0.951 . S
C598 C592 1.265 . S
C598 H593 0.950 . S
C598 C599 1.478 . S
C599 C586 1.394 1_655 S
C599 C598 1.478 . S
C599 C600 1.397 1_565 S
C600 C599 1.397 1_545 S
C600 C601 1.438 1_655 S
C600 C605 1.429 . S
C601 C584 1.394 . S
C601 C600 1.438 1_455 S
C601 C602 1.428 . S
C602 H594 0.949 . S
C602 C601 1.428 . S
C602 C603 1.345 1_455 S
C603 H595 0.950 . S
C603 C602 1.345 1_655 S
C603 C604 1.424 . S
C604 H596 0.951 . S
C604 C603 1.424 . S
C604 C605 1.347 . S
C605 H597 0.951 . S
C605 C600 1.429 . S
C605 C604 1.347 . S
H606 C607 0.951 . S
C607 H606 0.951 . S
C607 C613 1.265 . S
H608 C613 0.950 . S
H609 C617 0.949 . S
H610 C618 0.950 . S
H611 C619 0.951 . S
H612 C620 0.951 . S
C613 C607 1.265 . S
C613 H608 0.950 . S
C613 C614 1.478 . S
C614 C613 1.478 . S
C614 C615 1.397 . S
C614 C631 1.394 . S
C615 C614 1.397 . S
C615 C616 1.438 . S
C615 C620 1.429 . S
C616 C615 1.438 . S
C616 C617 1.428 . S
C616 C629 1.394 . S
C617 H609 0.949 . S
C617 C616 1.428 . S
C617 C618 1.345 . S
C618 H610 0.950 . S
C618 C617 1.345 . S
C618 C619 1.424 . S
C619 H611 0.951 . S
C619 C618 1.424 . S
C619 C620 1.347 . S
C620 H612 0.951 . S
C620 C615 1.429 . S
C620 C619 1.347 . S
H621 C622 0.951 . S
C622 H621 0.951 . S
C622 C628 1.265 . S
H623 C628 0.950 . S
H624 C632 0.949 . S
H625 C633 0.950 . S
H626 C634 0.951 . S
H627 C635 0.951 . S
C628 C622 1.265 . S
C628 H623 0.950 . S
C628 C629 1.478 . S
C629 C616 1.394 . S
C629 C628 1.478 . S
C629 C630 1.397 . S
C630 C629 1.397 . S
C630 C631 1.438 . S
C630 C635 1.429 . S
C631 C614 1.394 . S
C631 C630 1.438 . S
C631 C632 1.428 . S
C632 H624 0.949 . S
C632 C631 1.428 . S
C632 C633 1.345 . S
C633 H625 0.950 . S
C633 C632 1.345 . S
C633 C634 1.424 . S
C634 H626 0.951 . S
C634 C633 1.424 . S
C634 C635 1.347 . S
C635 H627 0.951 . S
C635 C630 1.429 . S
C635 C634 1.347 . S
H636 C637 0.951 . S
C637 H636 0.951 . S
C637 C643 1.265 . S
H638 C643 0.950 . S
H639 C647 0.949 . S
H640 C648 0.950 . S
H641 C649 0.951 . S
H642 C650 0.951 . S
C643 C637 1.265 . S
C643 H638 0.950 . S
C643 C644 1.478 . S
C644 C643 1.478 . S
C644 C645 1.397 . S
C644 C661 1.394 1_445 S
C645 C644 1.397 . S
C645 C646 1.438 1_455 S
C645 C650 1.429 . S
C646 C645 1.438 1_655 S
C646 C647 1.428 . S
C646 C659 1.394 1_545 S
C647 H639 0.949 . S
C647 C646 1.428 . S
C647 C648 1.345 1_655 S
C648 H640 0.950 . S
C648 C647 1.345 1_455 S
C648 C649 1.424 . S
C649 H641 0.951 . S
C649 C648 1.424 . S
C649 C650 1.347 . S
C650 H642 0.951 . S
C650 C645 1.429 . S
C650 C649 1.347 . S
H651 C652 0.951 . S
C652 H651 0.951 . S
C652 C658 1.265 . S
H653 C658 0.950 . S
H654 C662 0.949 1_455 S
H655 C663 0.950 . S
H656 C664 0.951 . S
H657 C665 0.951 . S
C658 C652 1.265 . S
C658 H653 0.950 . S
C658 C659 1.478 . S
C659 C646 1.394 1_565 S
C659 C658 1.478 . S
C659 C660 1.397 . S
C660 C659 1.397 . S
C660 C661 1.438 . S
C660 C665 1.429 . S
C661 C644 1.394 1_665 S
C661 C660 1.438 . S
C661 C662 1.428 . S
C662 H654 0.949 1_655 S
C662 C661 1.428 . S
C662 C663 1.345 . S
C663 H655 0.950 . S
C663 C662 1.345 . S
C663 C664 1.424 . S
C664 H656 0.951 . S
C664 C663 1.424 . S
C664 C665 1.347 . S
C665 H657 0.951 . S
C665 C660 1.429 . S
C665 C664 1.347 . S
H666 C667 0.951 . S
C667 H666 0.951 . S
C667 C673 1.265 . S
H668 C673 0.950 . S
H669 C677 0.949 . S
H670 C678 0.950 . S
H671 C679 0.951 . S
H672 C680 0.951 1_554 S
C673 C667 1.265 . S
C673 H668 0.950 . S
C673 C674 1.478 . S
C674 C673 1.478 . S
C674 C675 1.397 1_554 S
C674 C691 1.394 . S
C675 C674 1.397 1_556 S
C675 C676 1.438 . S
C675 C680 1.429 . S
C676 C675 1.438 . S
C676 C677 1.428 . S
C676 C689 1.394 . S
C677 H669 0.949 . S
C677 C676 1.428 . S
C677 C678 1.345 . S
C678 H670 0.950 . S
C678 C677 1.345 . S
C678 C679 1.424 . S
C679 H671 0.951 . S
C679 C678 1.424 . S
C679 C680 1.347 . S
C680 H672 0.951 1_556 S
C680 C675 1.429 . S
C680 C679 1.347 . S
H681 C682 0.951 . S
C682 H681 0.951 . S
C682 C688 1.265 . S
H683 C688 0.950 . S
H684 C692 0.949 . S
H685 C693 0.950 . S
H686 C694 0.951 . S
H687 C695 0.951 1_556 S
C688 C682 1.265 . S
C688 H683 0.950 . S
C688 C689 1.478 . S
C689 C676 1.394 . S
C689 C688 1.478 . S
C689 C690 1.397 1_556 S
C690 C689 1.397 1_554 S
C690 C691 1.438 . S
C690 C695 1.429 . S
C691 C674 1.394 . S
C691 C690 1.438 . S
C691 C692 1.428 . S
C692 H684 0.949 . S
C692 C691 1.428 . S
C692 C693 1.345 . S
C693 H685 0.950 . S
C693 C692 1.345 . S
C693 C694 1.424 . S
C694 H686 0.951 . S
C694 C693 1.424 . S
C694 C695 1.347 . S
C695 H687 0.951 1_554 S
C695 C690 1.429 . S
C695 C694 1.347 . S
C217 C28 0.959 . S
C232 C35 0.956 . S
C247 C82 0.918 . S
C262 C89 0.916 . S
C277 C143 0.958 . S
C292 C136 0.956 . S
C307 C197 0.962 . S
C322 C190 0.962 . S
C337 C189 2.327 . S
C352 C22 2.345 . S
C367 C76 2.375 . S
C382 C10 2.379 . S
C397 C113 2.332 . S
C412 C64 2.369 . S
C427 C167 2.295 . S
C442 C135 2.312 . S
C457 C27 2.362 . S
C472 C184 2.323 . S
C487 C81 2.308 . S
C502 C5 2.298 . S
C517 C59 2.354 . S
C532 C118 2.336 . S
C547 C130 2.298 . S
C562 C172 2.329 . S
C577 C140 0.804 . S
C592 C32 0.810 . S
C607 C86 0.546 . S
C622 C194 0.545 . S
C637 C121 0.807 . S
C652 C13 0.800 . S
C667 C67 0.836 . S
C682 C175 0.833 . S
