# Generated by pormake.
# Topology uos, (4)-cn, num edge types: 1
# Building blocks:
#     Node 0, Type 0, BuildingBlock: AZAVOO_clean_sbu_0, # of connection points: 4
#     Node 1, Type 0, BuildingBlock: AZAVOO_clean_sbu_0, # of connection points: 4
#     Node 2, Type 0, BuildingBlock: AZAVOO_clean_sbu_0, # of connection points: 4
#     Node 3, Type 0, BuildingBlock: AZAVOO_clean_sbu_0, # of connection points: 4
#     Node 4, Type 0, BuildingBlock: AZAVOO_clean_sbu_0, # of connection points: 4
#     Node 5, Type 0, BuildingBlock: AZAVOO_clean_sbu_0, # of connection points: 4
#     Node 6, Type 0, BuildingBlock: AZAVOO_clean_sbu_0, # of connection points: 4
#     Node 7, Type 0, BuildingBlock: AZAVOO_clean_sbu_0, # of connection points: 4
#     Node 8, Type 0, BuildingBlock: AZAVOO_clean_sbu_0, # of connection points: 4
#     Node 9, Type 0, BuildingBlock: AZAVOO_clean_sbu_0, # of connection points: 4
#     Node 10, Type 0, BuildingBlock: AZAVOO_clean_sbu_0, # of connection points: 4
#     Node 11, Type 0, BuildingBlock: AZAVOO_clean_sbu_0, # of connection points: 4
#     Node 12, Type 0, BuildingBlock: AZAVOO_clean_sbu_0, # of connection points: 4
#     Node 13, Type 0, BuildingBlock: AZAVOO_clean_sbu_0, # of connection points: 4
#     Node 14, Type 0, BuildingBlock: AZAVOO_clean_sbu_0, # of connection points: 4
#     Node 15, Type 0, BuildingBlock: AZAVOO_clean_sbu_0, # of connection points: 4
#     Node 16, Type 0, BuildingBlock: AZAVOO_clean_sbu_0, # of connection points: 4
#     Node 17, Type 0, BuildingBlock: AZAVOO_clean_sbu_0, # of connection points: 4
#     Node 18, Type 0, BuildingBlock: AZAVOO_clean_sbu_0, # of connection points: 4
#     Node 19, Type 0, BuildingBlock: AZAVOO_clean_sbu_0, # of connection points: 4
#     Node 20, Type 0, BuildingBlock: AZAVOO_clean_sbu_0, # of connection points: 4
#     Node 21, Type 0, BuildingBlock: AZAVOO_clean_sbu_0, # of connection points: 4
#     Node 22, Type 0, BuildingBlock: AZAVOO_clean_sbu_0, # of connection points: 4
#     Node 23, Type 0, BuildingBlock: AZAVOO_clean_sbu_0, # of connection points: 4
#     Node 24, Type 0, BuildingBlock: AZAVOO_clean_sbu_0, # of connection points: 4
#     Node 25, Type 0, BuildingBlock: AZAVOO_clean_sbu_0, # of connection points: 4
#     Node 26, Type 0, BuildingBlock: AZAVOO_clean_sbu_0, # of connection points: 4
#     Node 27, Type 0, BuildingBlock: AZAVOO_clean_sbu_0, # of connection points: 4
#     Node 28, Type 0, BuildingBlock: AZAVOO_clean_sbu_0, # of connection points: 4
#     Node 29, Type 0, BuildingBlock: AZAVOO_clean_sbu_0, # of connection points: 4
#     Node 30, Type 0, BuildingBlock: AZAVOO_clean_sbu_0, # of connection points: 4
#     Node 31, Type 0, BuildingBlock: AZAVOO_clean_sbu_0, # of connection points: 4
#     Edge 32, Type (0, 0), BuildingBlock: AJUNOK_clean_linker_0, # of connection points: 2
#     Edge 33, Type (0, 0), BuildingBlock: AJUNOK_clean_linker_0, # of connection points: 2
#     Edge 34, Type (0, 0), BuildingBlock: AJUNOK_clean_linker_0, # of connection points: 2
#     Edge 35, Type (0, 0), BuildingBlock: AJUNOK_clean_linker_0, # of connection points: 2
#     Edge 36, Type (0, 0), BuildingBlock: AJUNOK_clean_linker_0, # of connection points: 2
#     Edge 37, Type (0, 0), BuildingBlock: AJUNOK_clean_linker_0, # of connection points: 2
#     Edge 38, Type (0, 0), BuildingBlock: AJUNOK_clean_linker_0, # of connection points: 2
#     Edge 39, Type (0, 0), BuildingBlock: AJUNOK_clean_linker_0, # of connection points: 2
#     Edge 40, Type (0, 0), BuildingBlock: AJUNOK_clean_linker_0, # of connection points: 2
#     Edge 41, Type (0, 0), BuildingBlock: AJUNOK_clean_linker_0, # of connection points: 2
#     Edge 42, Type (0, 0), BuildingBlock: AJUNOK_clean_linker_0, # of connection points: 2
#     Edge 43, Type (0, 0), BuildingBlock: AJUNOK_clean_linker_0, # of connection points: 2
#     Edge 44, Type (0, 0), BuildingBlock: AJUNOK_clean_linker_0, # of connection points: 2
#     Edge 45, Type (0, 0), BuildingBlock: AJUNOK_clean_linker_0, # of connection points: 2
#     Edge 46, Type (0, 0), BuildingBlock: AJUNOK_clean_linker_0, # of connection points: 2
#     Edge 47, Type (0, 0), BuildingBlock: AJUNOK_clean_linker_0, # of connection points: 2
#     Edge 48, Type (0, 0), BuildingBlock: AJUNOK_clean_linker_0, # of connection points: 2
#     Edge 49, Type (0, 0), BuildingBlock: AJUNOK_clean_linker_0, # of connection points: 2
#     Edge 50, Type (0, 0), BuildingBlock: AJUNOK_clean_linker_0, # of connection points: 2
#     Edge 51, Type (0, 0), BuildingBlock: AJUNOK_clean_linker_0, # of connection points: 2
#     Edge 52, Type (0, 0), BuildingBlock: AJUNOK_clean_linker_0, # of connection points: 2
#     Edge 53, Type (0, 0), BuildingBlock: AJUNOK_clean_linker_0, # of connection points: 2
#     Edge 54, Type (0, 0), BuildingBlock: AJUNOK_clean_linker_0, # of connection points: 2
#     Edge 55, Type (0, 0), BuildingBlock: AJUNOK_clean_linker_0, # of connection points: 2
#     Edge 56, Type (0, 0), BuildingBlock: AJUNOK_clean_linker_0, # of connection points: 2
#     Edge 57, Type (0, 0), BuildingBlock: AJUNOK_clean_linker_0, # of connection points: 2
#     Edge 58, Type (0, 0), BuildingBlock: AJUNOK_clean_linker_0, # of connection points: 2
#     Edge 59, Type (0, 0), BuildingBlock: AJUNOK_clean_linker_0, # of connection points: 2
#     Edge 60, Type (0, 0), BuildingBlock: AJUNOK_clean_linker_0, # of connection points: 2
#     Edge 61, Type (0, 0), BuildingBlock: AJUNOK_clean_linker_0, # of connection points: 2
#     Edge 62, Type (0, 0), BuildingBlock: AJUNOK_clean_linker_0, # of connection points: 2
#     Edge 63, Type (0, 0), BuildingBlock: AJUNOK_clean_linker_0, # of connection points: 2
#     Edge 64, Type (0, 0), BuildingBlock: AJUNOK_clean_linker_0, # of connection points: 2
#     Edge 65, Type (0, 0), BuildingBlock: AJUNOK_clean_linker_0, # of connection points: 2
#     Edge 66, Type (0, 0), BuildingBlock: AJUNOK_clean_linker_0, # of connection points: 2
#     Edge 67, Type (0, 0), BuildingBlock: AJUNOK_clean_linker_0, # of connection points: 2
#     Edge 68, Type (0, 0), BuildingBlock: AJUNOK_clean_linker_0, # of connection points: 2
#     Edge 69, Type (0, 0), BuildingBlock: AJUNOK_clean_linker_0, # of connection points: 2
#     Edge 70, Type (0, 0), BuildingBlock: AJUNOK_clean_linker_0, # of connection points: 2
#     Edge 71, Type (0, 0), BuildingBlock: AJUNOK_clean_linker_0, # of connection points: 2
#     Edge 72, Type (0, 0), BuildingBlock: AJUNOK_clean_linker_0, # of connection points: 2
#     Edge 73, Type (0, 0), BuildingBlock: AJUNOK_clean_linker_0, # of connection points: 2
#     Edge 74, Type (0, 0), BuildingBlock: AJUNOK_clean_linker_0, # of connection points: 2
#     Edge 75, Type (0, 0), BuildingBlock: AJUNOK_clean_linker_0, # of connection points: 2
#     Edge 76, Type (0, 0), BuildingBlock: AJUNOK_clean_linker_0, # of connection points: 2
#     Edge 77, Type (0, 0), BuildingBlock: AJUNOK_clean_linker_0, # of connection points: 2
#     Edge 78, Type (0, 0), BuildingBlock: AJUNOK_clean_linker_0, # of connection points: 2
#     Edge 79, Type (0, 0), BuildingBlock: AJUNOK_clean_linker_0, # of connection points: 2
#     Edge 80, Type (0, 0), BuildingBlock: AJUNOK_clean_linker_0, # of connection points: 2
#     Edge 81, Type (0, 0), BuildingBlock: AJUNOK_clean_linker_0, # of connection points: 2
#     Edge 82, Type (0, 0), BuildingBlock: AJUNOK_clean_linker_0, # of connection points: 2
#     Edge 83, Type (0, 0), BuildingBlock: AJUNOK_clean_linker_0, # of connection points: 2
#     Edge 84, Type (0, 0), BuildingBlock: AJUNOK_clean_linker_0, # of connection points: 2
#     Edge 85, Type (0, 0), BuildingBlock: AJUNOK_clean_linker_0, # of connection points: 2
#     Edge 86, Type (0, 0), BuildingBlock: AJUNOK_clean_linker_0, # of connection points: 2
#     Edge 87, Type (0, 0), BuildingBlock: AJUNOK_clean_linker_0, # of connection points: 2
#     Edge 88, Type (0, 0), BuildingBlock: AJUNOK_clean_linker_0, # of connection points: 2
#     Edge 89, Type (0, 0), BuildingBlock: AJUNOK_clean_linker_0, # of connection points: 2
#     Edge 90, Type (0, 0), BuildingBlock: AJUNOK_clean_linker_0, # of connection points: 2
#     Edge 91, Type (0, 0), BuildingBlock: AJUNOK_clean_linker_0, # of connection points: 2
#     Edge 92, Type (0, 0), BuildingBlock: AJUNOK_clean_linker_0, # of connection points: 2
#     Edge 93, Type (0, 0), BuildingBlock: AJUNOK_clean_linker_0, # of connection points: 2
#     Edge 94, Type (0, 0), BuildingBlock: AJUNOK_clean_linker_0, # of connection points: 2
#     Edge 95, Type (0, 0), BuildingBlock: AJUNOK_clean_linker_0, # of connection points: 2
# Relax obj value: 0.082
# Max RMSD: 0.107
# Mean RMSD: 0.107
data_MOF--net-uos--node1-AZAVOO_clean_sbu_0--edge1-AJUNOK_clean_linker_0
_symmetry_space_group_name_H-M    P1
_symmetry_Int_Tables_number       1
_symmetry_cell_setting            triclinic
loop_
_symmetry_equiv_pos_as_xyz
'x, y, z'
_cell_length_a     63.140164
_cell_length_b     62.978427
_cell_length_c     17.57094
_cell_angle_alpha  90.07918
_cell_angle_beta   89.985404
_cell_angle_gamma 90.063492
loop_
_atom_site_label
_atom_site_type_symbol
_atom_site_fract_x
_atom_site_fract_y
_atom_site_fract_z
_atom_type_partial_charge
Mg0 Mg 0.17012 0.16378 0.12044 0.0
O1 O 0.14987 0.14437 0.20524 0.0
O2 O 0.15559 0.15924 0.31889 0.0
Mg3 Mg 0.17868 0.18628 0.30941 0.0
C4 C 0.14662 0.14539 0.27695 0.0
C5 C 0.15358 0.12996 0.00861 0.0
O6 O 0.16499 0.11819 0.05465 0.0
O7 O 0.14684 0.1915 0.12538 0.0
O8 O 0.15443 0.20454 0.2402 0.0
O9 O 0.19767 0.14217 0.13912 0.0
O10 O 0.19189 0.17118 0.2062 0.0
C11 C 0.14403 0.20516 0.17805 0.0
C12 C 0.20328 0.15451 0.19452 0.0
O13 O 0.1522 0.14973 0.02123 0.0
Mg14 Mg 0.08115 0.92034 0.3653 0.0
O15 O 0.0964 0.90096 0.46034 0.0
O16 O 0.07892 0.90744 0.56856 0.0
Mg17 Mg 0.0545 0.93323 0.54485 0.0
C18 C 0.09329 0.89779 0.53112 0.0
C19 C 0.10115 0.90835 0.21407 0.0
O20 O 0.0951 0.92804 0.20263 0.0
O21 O 0.05138 0.89967 0.36292 0.0
O22 O 0.03552 0.91064 0.46999 0.0
O23 O 0.10285 0.94831 0.38898 0.0
O24 O 0.07173 0.94277 0.44191 0.0
C25 C 0.03577 0.89955 0.40913 0.0
C26 C 0.08806 0.95466 0.43472 0.0
O27 O 0.09742 0.8998 0.27793 0.0
Mg28 Mg 0.32049 0.83147 0.61923 0.0
O29 O 0.3385 0.84852 0.71474 0.0
O30 O 0.32827 0.83456 0.82591 0.0
Mg31 Mg 0.30375 0.80925 0.80271 0.0
C32 C 0.33938 0.84756 0.78729 0.0
C33 C 0.33254 0.85549 0.47718 0.0
O34 O 0.31174 0.85517 0.47659 0.0
O35 O 0.34159 0.80207 0.63201 0.0
O36 O 0.32886 0.78999 0.74224 0.0
O37 O 0.29373 0.85485 0.62983 0.0
O38 O 0.29598 0.82497 0.69449 0.0
C39 C 0.34135 0.78837 0.68552 0.0
C40 C 0.28599 0.84237 0.68125 0.0
O41 O 0.34222 0.84596 0.5304 0.0
Mg42 Mg 0.40584 0.06797 0.86256 0.0
O43 O 0.39084 0.08614 0.96201 0.0
O44 O 0.40491 0.07371 0.06979 0.0
Mg45 Mg 0.42847 0.04777 0.03982 0.0
C46 C 0.39247 0.08625 0.03449 0.0
C47 C 0.38485 0.08211 0.72064 0.0
O48 O 0.38638 0.06138 0.71471 0.0
O49 O 0.43609 0.087 0.87407 0.0
O50 O 0.44915 0.07271 0.98065 0.0
O51 O 0.38106 0.04273 0.87038 0.0
O52 O 0.41153 0.0426 0.933 0.0
C53 C 0.45045 0.0856 0.92471 0.0
C54 C 0.39348 0.03396 0.91967 0.0
O55 O 0.3925 0.09122 0.77883 0.0
Mg56 Mg 0.1698 0.83406 0.87408 0.0
O57 O 0.1505 0.84629 0.77316 0.0
O58 O 0.16496 0.83384 0.66572 0.0
Mg59 Mg 0.19202 0.81173 0.69831 0.0
C60 C 0.15116 0.8449 0.70078 0.0
C61 C 0.15241 0.86182 -0.00137 0.0
O62 O 0.17233 0.86756 0.99269 0.0
O63 O 0.15403 0.80161 0.86646 0.0
O64 O 0.16947 0.78917 0.76048 0.0
O65 O 0.19384 0.86045 0.85955 0.0
O66 O 0.19566 0.82878 0.80584 0.0
C67 C 0.15697 0.78699 0.81709 0.0
C68 C 0.20375 0.8472 0.81613 0.0
O69 O 0.14538 0.847 0.95662 0.0
Mg70 Mg 0.40863 0.92051 0.1312 0.0
O71 O 0.39383 0.90237 0.03111 0.0
O72 O 0.40763 0.91521 0.92303 0.0
Mg73 Mg 0.43193 0.94047 0.95306 0.0
C74 C 0.39507 0.90284 0.95853 0.0
C75 C 0.38036 0.90551 0.25953 0.0
O76 O 0.37688 0.92602 0.25545 0.0
O77 O 0.43912 0.90109 0.12037 0.0
O78 O 0.45169 0.91517 0.01271 0.0
O79 O 0.38392 0.94593 0.11988 0.0
O80 O 0.41449 0.94601 0.05872 0.0
C81 C 0.45323 0.90228 0.06847 0.0
C82 C 0.39626 0.9545 0.07001 0.0
O83 O 0.39409 0.89725 0.21569 0.0
Mg84 Mg 0.32151 0.15872 0.37915 0.0
O85 O 0.33823 0.1425 0.27987 0.0
O86 O 0.3253 0.15494 0.17049 0.0
Mg87 Mg 0.30113 0.18042 0.20087 0.0
C88 C 0.33778 0.1428 0.20733 0.0
C89 C 0.33609 0.13214 0.50923 0.0
O90 O 0.31539 0.13018 0.50944 0.0
O91 O 0.34179 0.18826 0.36298 0.0
O92 O 0.32772 0.20021 0.2543 0.0
O93 O 0.29489 0.135 0.37297 0.0
O94 O 0.29577 0.16568 0.31194 0.0
C95 C 0.34097 0.20178 0.30901 0.0
C96 C 0.28608 0.14826 0.32681 0.0
O97 O 0.34483 0.14425 0.46094 0.0
Mg98 Mg 0.08211 0.07498 0.63148 0.0
O99 O 0.0946 0.08965 0.52027 0.0
O100 O 0.08119 0.07402 0.41587 0.0
Mg101 Mg 0.05505 0.05194 0.45801 0.0
C102 C 0.09352 0.08741 0.44791 0.0
C103 C 0.1053 0.08891 0.76875 0.0
O104 O 0.09811 0.06968 0.78216 0.0
O105 O 0.05335 0.09796 0.63297 0.0
O106 O 0.04609 0.07814 0.53517 0.0
O107 O 0.10323 0.04597 0.61633 0.0
O108 O 0.0713 0.04881 0.56784 0.0
C109 C 0.04087 0.09311 0.57902 0.0
C110 C 0.0879 0.03764 0.57775 0.0
O111 O 0.10125 0.09734 0.70486 0.0
Mg112 Mg 0.81661 0.8314 0.8814 0.0
O113 O 0.83486 0.84756 0.78455 0.0
O114 O 0.8207 0.8369 0.67389 0.0
Mg115 Mg 0.79512 0.81254 0.6997 0.0
C116 C 0.83394 0.8479 0.71201 0.0
C117 C 0.83084 0.85345 0.02056 0.0
O118 O 0.81006 0.85312 0.02339 0.0
O119 O 0.83523 0.80111 0.8611 0.0
O120 O 0.82057 0.79095 0.75099 0.0
O121 O 0.79186 0.85687 0.87938 0.0
O122 O 0.79074 0.82734 0.81095 0.0
C123 C 0.83374 0.78819 0.80535 0.0
C124 C 0.78264 0.84542 0.82814 0.0
O125 O 0.84017 0.84382 0.96672 0.0
Mg126 Mg 0.90926 0.06911 0.62537 0.0
O127 O 0.89327 0.08851 0.53094 0.0
O128 O 0.90486 0.07578 0.41921 0.0
Mg129 Mg 0.92985 0.05045 0.44076 0.0
C130 C 0.89325 0.08829 0.45827 0.0
C131 C 0.87995 0.08429 0.75217 0.0
O132 O 0.87387 0.06467 0.73964 0.0
O133 O 0.94002 0.08866 0.61242 0.0
O134 O 0.94999 0.07453 0.50199 0.0
O135 O 0.88423 0.04365 0.61383 0.0
O136 O 0.9139 0.0439 0.5482 0.0
C137 C 0.95316 0.0872 0.55733 0.0
C138 C 0.8958 0.03532 0.56125 0.0
O139 O 0.89565 0.09163 0.71521 0.0
Mg140 Mg 0.67216 0.15233 0.37197 0.0
O141 O 0.65304 0.13872 0.27375 0.0
O142 O 0.66348 0.15373 0.16514 0.0
Mg143 Mg 0.6907 0.17618 0.19452 0.0
C144 C 0.65151 0.14107 0.20197 0.0
C145 C 0.65126 0.13936 0.52293 0.0
O146 O 0.66748 0.15023 0.54907 0.0
O147 O 0.65408 0.18338 0.36636 0.0
O148 O 0.66763 0.19761 0.26015 0.0
O149 O 0.6968 0.12735 0.35872 0.0
O150 O 0.69705 0.15853 0.30007 0.0
C151 C 0.65549 0.19845 0.31824 0.0
C152 C 0.70557 0.14026 0.31087 0.0
O153 O 0.64856 0.13793 0.45171 0.0
Mg154 Mg 0.58438 0.92023 0.13164 0.0
O155 O 0.59769 0.90454 0.02577 0.0
O156 O 0.5845 0.91938 0.92086 0.0
Mg157 Mg 0.56055 0.94388 0.96269 0.0
C158 C 0.59658 0.90601 0.9536 0.0
C159 C 0.60003 0.89729 0.27216 0.0
O160 O 0.589 0.91276 0.30291 0.0
O161 O 0.55377 0.9013 0.11963 0.0
O162 O 0.54067 0.9172 0.01608 0.0
O163 O 0.60931 0.94512 0.12529 0.0
O164 O 0.57761 0.94733 0.07099 0.0
C165 C 0.53941 0.90337 0.0691 0.0
C166 C 0.59612 0.95525 0.08243 0.0
O167 O 0.60014 0.89505 0.20061 0.0
Mg168 Mg 0.82063 0.15727 0.11471 0.0
O169 O 0.83745 0.14142 0.21547 0.0
O170 O 0.82585 0.15634 0.32376 0.0
Mg171 Mg 0.80025 0.18018 0.29232 0.0
C172 C 0.83758 0.14323 0.28796 0.0
C173 C 0.8341 0.13514 0.97324 0.0
O174 O 0.81346 0.13739 0.96886 0.0
O175 O 0.8406 0.1872 0.12961 0.0
O176 O 0.82596 0.20027 0.23562 0.0
O177 O 0.79494 0.13297 0.11924 0.0
O178 O 0.79501 0.16297 0.18522 0.0
C179 C 0.83927 0.20146 0.18103 0.0
C180 C 0.78623 0.14501 0.16992 0.0
O181 O 0.84372 0.14304 0.03009 0.0
Mg182 Mg 0.58125 0.06738 0.86564 0.0
O183 O 0.59463 0.08603 0.96565 0.0
O184 O 0.58112 0.07392 0.07483 0.0
Mg185 Mg 0.55726 0.0483 0.04239 0.0
C186 C 0.5932 0.08649 0.03798 0.0
C187 C 0.6001 0.08634 0.71992 0.0
O188 O 0.59439 0.06752 0.69479 0.0
O189 O 0.55068 0.08632 0.87198 0.0
O190 O 0.53761 0.07323 0.98041 0.0
O191 O 0.60636 0.0427 0.87961 0.0
O192 O 0.57515 0.04212 0.93727 0.0
C193 C 0.53639 0.08563 0.92316 0.0
C194 C 0.59367 0.03397 0.92825 0.0
O195 O 0.59597 0.09139 0.78805 0.0
Mg196 Mg 0.67051 0.83122 0.62064 0.0
O197 O 0.65219 0.8488 0.71328 0.0
O198 O 0.66325 0.83685 0.82613 0.0
Mg199 Mg 0.68908 0.81236 0.80559 0.0
C200 C 0.65151 0.84887 0.78581 0.0
C201 C 0.6546 0.84877 0.4704 0.0
O202 O 0.67484 0.84605 0.45603 0.0
O203 O 0.65107 0.80131 0.63951 0.0
O204 O 0.66475 0.79035 0.74982 0.0
O205 O 0.69573 0.85605 0.62362 0.0
O206 O 0.69529 0.827 0.69478 0.0
C207 C 0.65221 0.78784 0.69345 0.0
C208 C 0.70396 0.84485 0.67776 0.0
O209 O 0.64741 0.84325 0.53471 0.0
Mg210 Mg 0.90321 0.91934 0.36688 0.0
O211 O 0.88884 0.90096 0.46622 0.0
O212 O 0.90513 0.91111 0.57341 0.0
Mg213 Mg 0.92844 0.93746 0.54196 0.0
C214 C 0.89153 0.89985 0.53804 0.0
C215 C 0.87853 0.9052 0.23111 0.0
O216 O 0.87748 0.92602 0.22906 0.0
O217 O 0.93382 0.90067 0.36938 0.0
O218 O 0.94922 0.91443 0.47287 0.0
O219 O 0.87859 0.94423 0.38155 0.0
O220 O 0.90991 0.94444 0.43863 0.0
C221 C 0.94943 0.90218 0.41484 0.0
C222 C 0.89162 0.953 0.42893 0.0
O223 O 0.88902 0.89632 0.2836 0.0
Mg224 Mg 0.67182 0.65719 0.60452 0.0
O225 O 0.65374 0.6421 0.70342 0.0
O226 O 0.66683 0.6536 0.81411 0.0
Mg227 Mg 0.69341 0.67672 0.78637 0.0
C228 C 0.65375 0.64236 0.7761 0.0
C229 C 0.65326 0.62835 0.4827 0.0
O230 O 0.67259 0.62119 0.49163 0.0
O231 O 0.65348 0.68798 0.62392 0.0
O232 O 0.66831 0.69823 0.73365 0.0
O233 O 0.69654 0.63155 0.6098 0.0
O234 O 0.6977 0.66143 0.67572 0.0
C235 C 0.65517 0.70104 0.67927 0.0
C236 C 0.70568 0.64319 0.66053 0.0
O237 O 0.64733 0.64454 0.52025 0.0
Mg238 Mg 0.58187 0.41938 0.86469 0.0
O239 O 0.59451 0.40229 0.96981 0.0
O240 O 0.5815 0.4179 0.0743 0.0
Mg241 Mg 0.55844 0.44344 0.03511 0.0
C242 C 0.59314 0.40403 0.04202 0.0
C243 C 0.60675 0.40352 0.73351 0.0
O244 O 0.60702 0.42436 0.73005 0.0
O245 O 0.55039 0.40196 0.87471 0.0
O246 O 0.53752 0.41827 0.97829 0.0
O247 O 0.60734 0.44415 0.87442 0.0
O248 O 0.57565 0.44627 0.92771 0.0
C249 C 0.53586 0.40475 0.92431 0.0
C250 C 0.594 0.45441 0.9164 0.0
O251 O 0.59633 0.39465 0.78652 0.0
Mg252 Mg 0.82207 0.3304 0.11001 0.0
O253 O 0.83824 0.34754 0.20863 0.0
O254 O 0.82677 0.33324 0.3175 0.0
Mg255 Mg 0.80226 0.30796 0.28868 0.0
C256 C 0.8384 0.34631 0.28107 0.0
C257 C 0.83739 0.35768 0.9795 0.0
O258 O 0.81694 0.3614 0.97928 0.0
O259 O 0.84309 0.30123 0.12735 0.0
O260 O 0.82852 0.28848 0.23406 0.0
O261 O 0.79405 0.35289 0.11581 0.0
O262 O 0.79703 0.32259 0.17774 0.0
C263 C 0.84195 0.28726 0.17988 0.0
C264 C 0.78601 0.33905 0.16183 0.0
O265 O 0.84521 0.3451 0.02808 0.0
Mg266 Mg 0.90723 0.57032 0.36131 0.0
O267 O 0.89052 0.58768 0.45892 0.0
O268 O 0.90168 0.57433 0.56953 0.0
Mg269 Mg 0.92602 0.54879 0.54336 0.0
C270 C 0.89026 0.58722 0.53159 0.0
C271 C 0.88413 0.58584 0.22335 0.0
O272 O 0.88251 0.56505 0.22104 0.0
O273 O 0.93728 0.58934 0.38339 0.0
O274 O 0.94759 0.57433 0.4926 0.0
O275 O 0.8824 0.54484 0.3617 0.0
O276 O 0.91158 0.54439 0.43143 0.0
C277 C 0.95026 0.58768 0.43873 0.0
C278 C 0.89384 0.53581 0.41329 0.0
O279 O 0.89477 0.59435 0.27653 0.0
Mg280 Mg 0.66932 0.33045 0.37287 0.0
O281 O 0.64914 0.34771 0.28396 0.0
O282 O 0.6553 0.33226 0.17155 0.0
Mg283 Mg 0.68093 0.30737 0.18506 0.0
C284 C 0.64581 0.34597 0.21258 0.0
C285 C 0.6574 0.35863 0.51006 0.0
O286 O 0.67697 0.36483 0.49756 0.0
O287 O 0.64887 0.30053 0.36828 0.0
O288 O 0.65929 0.28673 0.25685 0.0
O289 O 0.69732 0.35251 0.35162 0.0
O290 O 0.69101 0.32261 0.29129 0.0
C291 C 0.64872 0.28569 0.31861 0.0
C292 C 0.70309 0.33865 0.30125 0.0
O293 O 0.64936 0.34448 0.46751 0.0
Mg294 Mg 0.90484 0.42282 0.62236 0.0
O295 O 0.8909 0.40399 0.52298 0.0
O296 O 0.90438 0.41641 0.41389 0.0
Mg297 Mg 0.92801 0.44233 0.44471 0.0
C298 C 0.89233 0.40378 0.45051 0.0
C299 C 0.88842 0.40677 0.77201 0.0
O300 O 0.89464 0.42624 0.78701 0.0
O301 O 0.93525 0.40398 0.61369 0.0
O302 O 0.94839 0.41743 0.50582 0.0
O303 O 0.87977 0.44761 0.6115 0.0
O304 O 0.91047 0.448 0.55036 0.0
C305 C 0.94961 0.40492 0.5629 0.0
C306 C 0.89217 0.45633 0.56194 0.0
O307 O 0.89116 0.3995 0.70544 0.0
Mg308 Mg 0.81697 0.6578 0.87527 0.0
O309 O 0.83476 0.6421 0.77582 0.0
O310 O 0.82113 0.6547 0.66747 0.0
Mg311 Mg 0.79537 0.67847 0.69596 0.0
C312 C 0.83417 0.64288 0.7031 0.0
C313 C 0.83293 0.63409 0.01236 0.0
O314 O 0.81234 0.63111 0.01342 0.0
O315 O 0.83574 0.68832 0.85727 0.0
O316 O 0.82083 0.69943 0.749 0.0
O317 O 0.79193 0.6324 0.87037 0.0
O318 O 0.79129 0.66232 0.8047 0.0
C319 C 0.83417 0.70169 0.80303 0.0
C320 C 0.78306 0.64412 0.81917 0.0
O321 O 0.84096 0.6454 0.96005 0.0
Mg322 Mg 0.58059 0.57113 0.11537 0.0
O323 O 0.59479 0.59124 0.01891 0.0
O324 O 0.57784 0.58221 0.91222 0.0
Mg325 Mg 0.5527 0.55775 0.93969 0.0
C326 C 0.59208 0.59277 0.94707 0.0
C327 C 0.60089 0.58301 0.26622 0.0
O328 O 0.59546 0.56303 0.27553 0.0
O329 O 0.55054 0.59115 0.12204 0.0
O330 O 0.53487 0.58079 0.01454 0.0
O331 O 0.6041 0.5456 0.09036 0.0
O332 O 0.57254 0.54736 0.0366 0.0
C333 C 0.53509 0.59172 0.07547 0.0
C334 C 0.5907 0.53808 0.0415 0.0
O335 O 0.59655 0.59201 0.20358 0.0
Mg336 Mg 0.31881 0.32934 0.36969 0.0
O337 O 0.33523 0.34647 0.27173 0.0
O338 O 0.32496 0.33155 0.16271 0.0
Mg339 Mg 0.30178 0.30508 0.19026 0.0
C340 C 0.33593 0.34513 0.19939 0.0
C341 C 0.33457 0.34877 0.51886 0.0
O342 O 0.31631 0.34081 0.54058 0.0
O343 O 0.3414 0.30105 0.35727 0.0
O344 O 0.32855 0.28747 0.24893 0.0
O345 O 0.28989 0.35032 0.35887 0.0
O346 O 0.29473 0.3198 0.3 0.0
C347 C 0.34155 0.28703 0.30457 0.0
C348 C 0.28289 0.33591 0.3126 0.0
O349 O 0.34049 0.34631 0.4505 0.0
Mg350 Mg 0.40343 0.56993 0.11798 0.0
O351 O 0.38919 0.58918 0.02079 0.0
O352 O 0.40446 0.57954 0.91157 0.0
Mg353 Mg 0.42834 0.55352 0.94045 0.0
C354 C 0.3911 0.59065 0.94872 0.0
C355 C 0.38796 0.58557 0.26919 0.0
O356 O 0.39464 0.56626 0.28396 0.0
O357 O 0.43385 0.58873 0.1166 0.0
O358 O 0.44886 0.57674 0.00972 0.0
O359 O 0.37867 0.54527 0.10253 0.0
O360 O 0.40966 0.54555 0.04286 0.0
C361 C 0.44915 0.58826 0.06958 0.0
C362 C 0.39127 0.53705 0.05245 0.0
O363 O 0.38953 0.59261 0.20201 0.0
Mg364 Mg 0.17293 0.65168 0.87286 0.0
O365 O 0.15419 0.63825 0.77393 0.0
O366 O 0.16646 0.65202 0.66585 0.0
Mg367 Mg 0.19412 0.67375 0.69653 0.0
C368 C 0.15363 0.64003 0.70185 0.0
C369 C 0.15148 0.63859 0.02021 0.0
O370 O 0.16889 0.64739 0.04645 0.0
O371 O 0.15646 0.68367 0.8637 0.0
O372 O 0.17179 0.6966 0.75847 0.0
O373 O 0.19648 0.62544 0.86256 0.0
O374 O 0.19854 0.65666 0.80423 0.0
C375 C 0.15921 0.69843 0.81501 0.0
C376 C 0.20604 0.63799 0.81542 0.0
O377 O 0.14808 0.63845 0.94933 0.0
Mg378 Mg 0.07976 0.4235 0.63026 0.0
O379 O 0.0945 0.40493 0.53103 0.0
O380 O 0.08083 0.41758 0.42269 0.0
Mg381 Mg 0.0561 0.4424 0.45207 0.0
C382 C 0.09338 0.40526 0.45841 0.0
C383 C 0.10798 0.40877 0.75807 0.0
O384 O 0.11207 0.42915 0.75284 0.0
O385 O 0.04949 0.40387 0.62171 0.0
O386 O 0.03676 0.41701 0.51291 0.0
O387 O 0.10455 0.44872 0.61663 0.0
O388 O 0.07375 0.44851 0.55684 0.0
C389 C 0.03543 0.40444 0.56964 0.0
C390 C 0.09209 0.45698 0.56649 0.0
O391 O 0.09404 0.40064 0.71492 0.0
Mg392 Mg 0.31679 0.6598 0.60282 0.0
O393 O 0.33442 0.64338 0.70174 0.0
O394 O 0.32061 0.65579 0.8104 0.0
Mg395 Mg 0.29572 0.6805 0.78269 0.0
C396 C 0.33343 0.64376 0.7745 0.0
C397 C 0.33604 0.6299 0.48661 0.0
O398 O 0.31848 0.62011 0.50542 0.0
O399 O 0.33635 0.68954 0.62227 0.0
O400 O 0.32214 0.70102 0.73128 0.0
O401 O 0.29157 0.63489 0.60523 0.0
O402 O 0.29105 0.6643 0.67401 0.0
C403 C 0.33543 0.70287 0.67677 0.0
C404 C 0.28281 0.64616 0.65776 0.0
O405 O 0.34058 0.64755 0.51739 0.0
Mg406 Mg 0.08016 0.56939 0.36145 0.0
O407 O 0.09589 0.58594 0.46164 0.0
O408 O 0.08486 0.57181 0.57097 0.0
Mg409 Mg 0.06084 0.54626 0.53895 0.0
C410 C 0.09606 0.58516 0.53409 0.0
C411 C 0.09813 0.58873 0.21884 0.0
O412 O 0.09381 0.56916 0.19784 0.0
O413 O 0.04989 0.58782 0.38304 0.0
O414 O 0.03924 0.57227 0.49089 0.0
O415 O 0.10548 0.54473 0.36056 0.0
O416 O 0.07551 0.54267 0.4263 0.0
C417 C 0.03677 0.58592 0.43781 0.0
C418 C 0.09366 0.53481 0.40901 0.0
O419 O 0.09309 0.59469 0.28525 0.0
Mg420 Mg 0.16417 0.33219 0.11493 0.0
O421 O 0.14799 0.34935 0.21349 0.0
O422 O 0.15775 0.33409 0.32258 0.0
Mg423 Mg 0.18047 0.30721 0.29353 0.0
C424 C 0.14735 0.34809 0.28592 0.0
C425 C 0.15339 0.3574 0.97624 0.0
O426 O 0.17408 0.35528 0.97355 0.0
O427 O 0.14138 0.30418 0.1249 0.0
O428 O 0.15377 0.28974 0.23231 0.0
O429 O 0.19316 0.35306 0.12697 0.0
O430 O 0.18794 0.32246 0.18521 0.0
C431 C 0.14105 0.28971 0.17576 0.0
C432 C 0.19995 0.33848 0.17263 0.0
O433 O 0.14325 0.34888 0.03051 0.0
Mg434 Mg 0.4032 0.42168 0.86149 0.0
O435 O 0.38931 0.4041 0.96233 0.0
O436 O 0.4017 0.41701 0.07171 0.0
Mg437 Mg 0.42463 0.44353 0.03826 0.0
C438 C 0.39017 0.40396 0.0347 0.0
C439 C 0.38527 0.4017 0.71777 0.0
O440 O 0.39117 0.42045 0.69279 0.0
O441 O 0.43428 0.40405 0.87445 0.0
O442 O 0.4466 0.41916 0.98112 0.0
O443 O 0.37773 0.44597 0.86729 0.0
O444 O 0.40845 0.448 0.92842 0.0
C445 C 0.44852 0.40624 0.92535 0.0
C446 C 0.39009 0.45584 0.91423 0.0
O447 O 0.38931 0.3966 0.7859 0.0
C448 C 0.25742 0.13243 0.24651 0.0
C449 C 0.2639 0.14629 0.30444 0.0
C450 C 0.23713 0.13435 0.21427 0.0
C451 C 0.22297 0.15038 0.23845 0.0
H452 H 0.26841 0.12091 0.22332 0.0
H453 H 0.233 0.12396 0.1674 0.0
S454 S 0.23263 0.18885 0.39565 0.0
N455 N 0.25457 0.17479 0.3904 0.0
N456 N 0.21699 0.17906 0.32917 0.0
C457 C 0.22921 0.1634 0.29973 0.0
C458 C 0.24959 0.16119 0.33285 0.0
C459 C 0.10766 0.98645 0.4868 0.0
C460 C 0.08857 0.97543 0.47384 0.0
C461 C 0.10768 0.0065 0.52242 0.0
C462 C 0.08857 0.01614 0.54471 0.0
H463 H 0.12261 0.97957 0.46935 0.0
H464 H 0.1226 0.01467 0.53095 0.0
S465 S 0.03431 0.994 0.52254 0.0
N466 N 0.05009 0.97598 0.4851 0.0
N467 N 0.05018 0.013 0.55271 0.0
C468 C 0.06947 0.00517 0.53233 0.0
C469 C 0.06944 0.98498 0.49663 0.0
C470 C 0.24041 0.83564 0.81723 0.0
C471 C 0.2256 0.8505 0.79176 0.0
C472 C 0.26021 0.83402 0.78349 0.0
C473 C 0.26621 0.8473 0.72298 0.0
H474 H 0.23618 0.82425 0.86096 0.0
H475 H 0.27026 0.8214 0.80308 0.0
S476 S 0.23342 0.89044 0.64029 0.0
N477 N 0.21817 0.87984 0.70669 0.0
N478 N 0.25602 0.87721 0.64291 0.0
C479 C 0.25195 0.86333 0.70017 0.0
C480 C 0.23148 0.86485 0.73474 0.0
C481 C 0.38621 0.01234 0.03438 0.0
C482 C 0.38838 0.01366 0.95504 0.0
C483 C 0.38679 0.99261 0.07111 0.0
C484 C 0.39025 0.97389 0.02943 0.0
H485 H 0.3852 0.02668 0.06838 0.0
H486 H 0.38618 0.99217 0.13272 0.0
S487 S 0.39497 0.96907 0.81993 0.0
N488 N 0.3923 -0.0052 0.83544 0.0
N489 N 0.39385 0.95772 0.90453 0.0
C490 C 0.39116 0.97499 0.94977 0.0
C491 C 0.39012 -0.00504 0.91242 0.0
C492 C 0.74395 0.84967 0.8342 0.0
C493 C 0.76279 0.85194 0.79273 0.0
C494 C 0.7244 0.84928 0.79686 0.0
C495 C 0.72324 0.85147 0.71741 0.0
H496 H 0.74445 0.84642 0.89473 0.0
H497 H 0.71026 0.84602 0.82972 0.0
S498 S 0.76796 0.8609 0.5855 0.0
N499 N 0.77912 0.85859 0.67012 0.0
N500 N 0.74221 0.85841 0.59977 0.0
C501 C 0.7418 0.85581 0.67651 0.0
C502 C 0.76171 0.85581 0.71436 0.0
C503 C 0.88221 0.97762 0.53459 0.0
C504 C 0.88777 0.97431 0.45823 0.0
C505 C 0.88288 -0.00191 0.56616 0.0
C506 C 0.88956 0.01556 0.52239 0.0
H507 H 0.87838 0.96424 0.57079 0.0
H508 H 0.8797 -1e-05 0.62639 0.0
S509 S 0.90246 0.0151 0.31644 0.0
N510 N 0.89796 0.98997 0.33773 0.0
N511 N 0.89846 0.02849 0.39601 0.0
C512 C 0.89339 0.01251 0.4444 0.0
C513 C 0.89273 0.99178 0.41254 0.0
C514 C 0.72806 0.13525 0.19687 0.0
C515 C 0.72609 0.13573 0.27639 0.0
C516 C 0.74805 0.13644 0.16248 0.0
C517 C 0.76638 0.13891 0.20689 0.0
H518 H 0.71406 0.13503 0.16124 0.0
H519 H 0.74902 0.137 0.10094 0.0
S520 S 0.76951 0.13945 0.41725 0.0
N521 N 0.74397 0.13711 0.39859 0.0
N522 N 0.78154 0.14009 0.33376 0.0
C523 C 0.76465 0.13831 0.28634 0.0
C524 C 0.74441 0.13653 0.32127 0.0
C525 C 0.59288 0.01345 0.04827 0.0
C526 C 0.59977 0.01519 0.97251 0.0
C527 C 0.59347 0.99402 0.0862 0.0
C528 C 0.60128 0.97586 0.04984 0.0
H529 H 0.58613 0.02694 0.07749 0.0
H530 H 0.58663 0.99292 0.14265 0.0
S531 S 0.62416 0.97256 0.85641 0.0
N532 N 0.61692 -0.00235 0.86555 0.0
N533 N 0.6181 0.96091 0.93781 0.0
C534 C 0.60994 0.97766 0.97675 0.0
C535 C 0.60931 -0.0025 0.93787 0.0
C536 C 0.74441 0.63953 0.65854 0.0
C537 C 0.72529 0.63667 0.69766 0.0
C538 C 0.76363 0.63993 0.69797 0.0
C539 C 0.76419 0.63728 0.77732 0.0
H540 H 0.74437 0.6432 0.59828 0.0
H541 H 0.77797 0.64357 0.66681 0.0
S542 S 0.71857 0.62589 0.90321 0.0
N543 N 0.70805 0.62868 0.8177 0.0
N544 N 0.74438 0.62905 0.89212 0.0
C545 C 0.74538 0.6323 0.81578 0.0
C546 C 0.72577 0.63219 0.77573 0.0
C547 C 0.60941 0.48197 0.00239 0.0
C548 C 0.59744 0.4765 0.93813 0.0
C549 C 0.60839 0.50265 0.03244 0.0
C550 C 0.59523 0.5182 -0.00071 0.0
H551 H 0.61851 0.46998 0.03202 0.0
H552 H 0.61685 0.50602 0.08471 0.0
S553 S 0.56389 0.51189 0.82176 0.0
N554 N 0.57411 0.48821 0.83734 0.0
N555 N 0.5729 0.52708 0.89113 0.0
C556 C 0.58474 0.51308 0.93111 0.0
C557 C 0.58564 0.49215 0.90126 0.0
C558 C 0.73537 0.35866 0.25566 0.0
C559 C 0.72348 0.33974 0.25992 0.0
C560 C 0.75546 0.35893 0.22064 0.0
C561 C 0.76418 0.34021 0.19031 0.0
H562 H 0.72929 0.37318 0.28042 0.0
H563 H 0.7645 0.37356 0.21988 0.0
S564 S 0.73939 0.28684 0.18429 0.0
N565 N 0.72213 0.30194 0.22915 0.0
N566 N 0.75919 0.30277 0.16262 0.0
C567 C 0.7522 0.32149 0.19228 0.0
C568 C 0.73201 0.32115 0.22739 0.0
C569 C 0.88596 0.49495 0.56564 0.0
C570 C 0.88652 0.47605 0.52328 0.0
C571 C 0.8867 0.51466 0.52907 0.0
C572 C 0.88745 0.51591 0.44934 0.0
H573 H 0.88669 0.49447 0.62723 0.0
H574 H 0.88784 0.52895 0.56329 0.0
S575 S 0.88662 0.47099 0.31337 0.0
N576 N 0.88611 0.45968 0.39816 0.0
N577 N 0.88683 0.49686 0.32914 0.0
C578 C 0.88622 0.49718 0.40644 0.0
C579 C 0.88596 0.47713 0.44364 0.0
C580 C 0.25107 0.35653 0.26744 0.0
C581 C 0.26197 0.33714 0.27527 0.0
C582 C 0.23106 0.35729 0.23213 0.0
C583 C 0.22138 0.33861 0.2052 0.0
H584 H 0.25802 0.37113 0.2885 0.0
H585 H 0.22294 0.37237 0.22753 0.0
S586 S 0.24339 0.28404 0.21036 0.0
N587 N 0.26137 0.29893 0.25259 0.0
N588 N 0.22439 0.30054 0.18553 0.0
C589 C 0.23226 0.31931 0.21185 0.0
C590 C 0.2524 0.31851 0.24721 0.0
C591 C 0.38039 0.49933 0.0557 0.0
C592 C 0.38576 0.51736 0.01276 0.0
C593 C 0.38021 0.47914 0.0221 0.0
C594 C 0.38474 0.47671 0.94444 0.0
H595 H 0.37796 0.50061 0.11659 0.0
H596 H 0.37769 0.46532 0.05764 0.0
S597 S 0.39688 0.51923 0.806 0.0
N598 N 0.39364 0.53177 0.88781 0.0
N599 N 0.39292 0.49381 0.82432 0.0
C600 C 0.38846 0.49475 0.89994 0.0
C601 C 0.38905 0.51518 0.93428 0.0
C602 C 0.26364 0.63999 0.77862 0.0
C603 C 0.26423 0.63844 0.69897 0.0
C604 C 0.2447 0.63684 0.81816 0.0
C605 C 0.2259 0.63237 0.77881 0.0
H606 H 0.27761 0.64469 0.81015 0.0
H607 H 0.24438 0.63982 0.87893 0.0
S608 S 0.21967 0.62447 0.57142 0.0
N609 N 0.24508 0.62994 0.58287 0.0
N610 N 0.20917 0.62476 0.65756 0.0
C611 C 0.22661 0.6292 0.69998 0.0
C612 C 0.24596 0.63202 0.65979 0.0
C613 C 0.09232 0.47669 0.44455 0.0
C614 C 0.09832 0.47556 0.52142 0.0
C615 C 0.093 0.49593 0.40527 0.0
C616 C 0.09984 0.5145 0.4417 0.0
H617 H 0.08611 0.46288 0.41553 0.0
H618 H 0.08669 0.49659 0.34795 0.0
S619 S 0.12048 0.51932 0.63795 0.0
N620 N 0.11394 0.494 0.6294 0.0
N621 N 0.11503 0.5304 0.55504 0.0
C622 C 0.10771 0.51327 0.51605 0.0
C623 C 0.10713 0.49362 0.55607 0.0
C624 C 0.13791 0.09814 0.94624 0.0
C625 C 0.14178 0.1201 0.94512 0.0
C626 C 0.12617 0.08833 0.88872 0.0
C627 C 0.11801 0.10002 0.8272 0.0
H628 H 0.14368 0.08843 0.99263 0.0
H629 H 0.1235 0.07138 0.89275 0.0
S630 S 0.12445 0.15794 0.79565 0.0
N631 N 0.13704 0.1533 0.87628 0.0
N632 N 0.11504 0.13475 0.76752 0.0
C633 C 0.12208 0.12197 0.82441 0.0
C634 C 0.13392 0.13204 0.88358 0.0
C635 C 0.12541 0.86294 0.10207 0.0
C636 C 0.13831 0.87364 0.04957 0.0
C637 C 0.11323 0.87431 0.155 0.0
C638 C 0.11321 0.89669 0.15549 0.0
H639 H 0.12526 0.84574 0.10382 0.0
H640 H 0.10386 0.86553 0.19592 0.0
S641 S 0.14346 0.93182 0.02542 0.0
N642 N 0.14996 0.90752 -0.00098 0.0
N643 N 0.12661 0.92898 0.09655 0.0
C644 C 0.12554 0.90746 0.10125 0.0
C645 C 0.13825 0.89589 0.04879 0.0
C646 C 0.37681 0.87443 0.34735 0.0
C647 C 0.36785 0.8924 0.31265 0.0
C648 C 0.36531 0.86251 0.40078 0.0
C649 C 0.34432 0.86789 0.41967 0.0
H650 H 0.39295 0.86984 0.33451 0.0
H651 H 0.37288 0.84897 0.4272 0.0
S652 S 0.3134 0.91299 0.34166 0.0
N653 N 0.33667 0.91471 0.29934 0.0
N654 N 0.31495 0.89213 0.39813 0.0
C655 C 0.33507 0.88554 0.38387 0.0
C656 C 0.34688 0.89786 0.33079 0.0
C657 C 0.37789 0.1159 0.65124 0.0
C658 C 0.37296 0.09439 0.66385 0.0
C659 C 0.36619 0.12804 0.5994 0.0
C660 C 0.3489 0.11914 0.56058 0.0
H661 H 0.39087 0.12338 0.68146 0.0
H662 H 0.37035 0.14457 0.59111 0.0
S663 S 0.32978 0.0636 0.57227 0.0
N664 N 0.35002 0.06463 0.63162 0.0
N665 N 0.32769 0.08768 0.53607 0.0
C666 C 0.34389 0.0977 0.57232 0.0
C667 C 0.35605 0.08523 0.62351 0.0
C668 C 0.86317 0.86052 0.09811 0.0
C669 C 0.84285 0.86668 0.07427 0.0
C670 C 0.87468 0.87302 0.14959 0.0
C671 C 0.86644 0.89234 0.17665 0.0
H672 H 0.87006 0.84581 0.07781 0.0
H673 H 0.8902 0.86769 0.1676 0.0
S674 S 0.81428 0.91581 0.12939 0.0
N675 N 0.81507 0.89338 0.08078 0.0
N676 N 0.83699 0.91714 0.17568 0.0
C677 C 0.84633 0.89883 0.15216 0.0
C678 C 0.83443 0.8859 0.1014 0.0
C679 C 0.86727 0.12582 0.90229 0.0
C680 C 0.84553 0.12247 0.91554 0.0
C681 C 0.8783 0.11374 0.84804 0.0
C682 C 0.86807 0.09758 0.80671 0.0
H683 H 0.87577 0.13795 0.93365 0.0
H684 H 0.89503 0.11677 0.83957 0.0
S685 S 0.81134 0.08247 0.82026 0.0
N686 N 0.81418 0.10194 0.88237 0.0
N687 N 0.83494 0.07907 0.78183 0.0
C688 C 0.84636 0.09409 0.81953 0.0
C689 C 0.83508 0.10658 0.87358 0.0
C690 C 0.61271 0.09763 0.59205 0.0
C691 C 0.61233 0.10092 0.67106 0.0
C692 C 0.62493 0.11054 0.54459 0.0
C693 C 0.63746 0.12707 0.57446 0.0
H694 H 0.6036 0.0849 0.56648 0.0
H695 H 0.62488 0.10716 0.48412 0.0
S696 S 0.64168 0.14263 0.77754 0.0
N697 N 0.62519 0.12227 0.77729 0.0
N698 N 0.64833 0.14643 0.68775 0.0
C699 C 0.63702 0.13076 0.65328 0.0
C700 C 0.62439 0.11772 0.70167 0.0
C701 C 0.62016 0.86596 0.43956 0.0
C702 C 0.64068 0.86001 0.41632 0.0
C703 C 0.60702 0.87793 0.39225 0.0
C704 C 0.61376 0.884 0.31952 0.0
H705 H 0.61427 0.86175 0.49545 0.0
H706 H 0.59148 0.88246 0.41274 0.0
S707 S 0.66597 0.8729 0.23121 0.0
N708 N 0.66714 0.86139 0.31547 0.0
N709 N 0.64218 0.88364 0.22605 0.0
C710 C 0.63406 0.87797 0.29477 0.0
C711 C 0.64759 0.86603 0.34335 0.0
C712 C 0.62543 0.62781 0.3815 0.0
C713 C 0.63861 0.61684 0.43231 0.0
C714 C 0.61304 0.61674 0.32821 0.0
C715 C 0.61309 0.59437 0.32548 0.0
H716 H 0.62526 0.64501 0.38112 0.0
H717 H 0.60349 0.62576 0.28859 0.0
S718 S 0.64382 0.55848 0.4513 0.0
N719 N 0.65034 0.58261 0.47955 0.0
N720 N 0.62676 0.56176 0.38113 0.0
C721 C 0.62562 0.5833 0.37833 0.0
C722 C 0.63849 0.59456 0.43129 0.0
C723 C 0.6374 0.40067 0.64568 0.0
C724 C 0.61951 0.39114 0.67895 0.0
C725 C 0.64978 0.38979 0.59252 0.0
C726 C 0.64452 0.3691 0.56935 0.0
H727 H 0.64198 0.4167 0.66101 0.0
H728 H 0.66332 0.3979 0.56821 0.0
S729 S 0.5994 0.33685 0.64026 0.0
N730 N 0.59735 0.35961 0.6865 0.0
N731 N 0.62042 0.33921 0.58489 0.0
C732 C 0.62673 0.35926 0.60248 0.0
C733 C 0.61429 0.37026 0.65782 0.0
C734 C 0.87311 0.37236 0.81626 0.0
C735 C 0.87669 0.39418 0.829 0.0
C736 C 0.8607 0.36037 0.86641 0.0
C737 C 0.8513 0.36994 0.92999 0.0
H738 H 0.87973 0.36451 0.76679 0.0
H739 H 0.85804 0.3437 0.8545 0.0
S740 S 0.85625 0.42589 0.9916 0.0
N741 N 0.87037 0.42446 0.91262 0.0
N742 N 0.84669 0.40179 0.00556 0.0
C743 C 0.85498 0.39146 0.94448 0.0
C744 C 0.86782 0.40364 0.89429 0.0
C745 C 0.85252 0.59065 0.14169 0.0
C746 C 0.87172 0.59879 0.16979 0.0
C747 C 0.84 0.60243 0.09178 0.0
C748 C 0.84644 0.62257 0.0666 0.0
H749 H 0.84693 0.57514 0.1592 0.0
H750 H 0.82529 0.5955 0.07177 0.0
S751 S 0.89539 0.65109 0.12312 0.0
N752 N 0.89652 0.62837 0.16988 0.0
N753 N 0.87317 0.65033 0.07347 0.0
C754 C 0.86567 0.63092 0.09371 0.0
C755 C 0.87825 0.61908 0.14614 0.0
C756 C 0.36251 0.37596 0.54161 0.0
C757 C 0.34762 0.36154 0.57137 0.0
C758 C 0.3747 0.38881 0.58952 0.0
C759 C 0.37275 0.38742 0.66891 0.0
H760 H 0.36453 0.37765 0.48069 0.0
H761 H 0.38579 0.39988 0.5641 0.0
S762 S 0.33603 0.35227 0.77557 0.0
N763 N 0.3315 0.34669 0.68521 0.0
N764 N 0.3547 0.37064 0.7756 0.0
C765 C 0.35808 0.37292 0.69963 0.0
C766 C 0.34542 0.36006 0.65073 0.0
C767 C 0.35377 0.59764 0.43934 0.0
C768 C 0.35068 0.61963 0.43375 0.0
C769 C 0.36664 0.58693 0.38751 0.0
C770 C 0.37641 0.59779 0.3272 0.0
H771 H 0.34608 0.58861 0.48398 0.0
H772 H 0.3683 0.56989 0.39335 0.0
S773 S 0.37336 0.65565 0.28853 0.0
N774 N 0.35864 0.65216 0.36527 0.0
N775 N 0.38254 0.63193 0.26577 0.0
C776 C 0.37367 0.61992 0.32158 0.0
C777 C 0.36087 0.6309 0.37551 0.0
C778 C 0.12545 0.60967 0.04301 0.0
C779 C 0.13702 0.62709 0.07105 0.0
C780 C 0.11257 0.59762 0.09108 0.0
C781 C 0.11054 0.60276 0.16858 0.0
H782 H 0.1268 0.60492 0.98391 0.0
H783 H 0.10433 0.58404 0.06736 0.0
S784 S 0.13657 0.64788 0.26794 0.0
N785 N 0.14509 0.64951 0.17947 0.0
N786 N 0.12059 0.62712 0.2704 0.0
C787 C 0.12154 0.6206 0.19673 0.0
C788 C 0.1349 0.63267 0.1478 0.0
C789 C 0.1102 0.37788 0.84639 0.0
C790 C 0.11988 0.39553 0.81202 0.0
C791 C 0.12113 0.36559 0.89987 0.0
C792 C 0.14226 0.37026 0.91902 0.0
H793 H 0.09394 0.3738 0.83308 0.0
H794 H 0.11305 0.35227 0.92597 0.0
S795 S 0.17495 0.41429 0.84239 0.0
N796 N 0.15183 0.41684 0.79956 0.0
N797 N 0.17256 0.39344 0.89859 0.0
C798 C 0.15224 0.38759 0.88375 0.0
C799 C 0.14099 0.40033 0.83063 0.0
C800 C 0.12285 0.25812 0.22572 0.0
C801 C 0.12972 0.26963 0.16187 0.0
C802 C 0.12393 0.23595 0.22644 0.0
C803 C 0.13195 0.22477 0.16335 0.0
H804 H 0.1196 0.26628 0.2788 0.0
H805 H 0.1213 0.22783 0.27997 0.0
S806 S 0.14451 0.24736 0.97407 0.0
N807 N 0.13899 0.26818 0.02773 0.0
N808 N 0.14109 0.22637 0.02905 0.0
C809 C 0.13468 0.23584 0.09465 0.0
C810 C 0.13351 0.25848 0.0939 0.0
C811 C 0.98168 0.9081 0.34044 0.0
C812 C 0.97022 0.89474 0.38934 0.0
C813 C 0.00377 0.90693 0.33675 0.0
C814 C 0.01495 0.8925 0.38251 0.0
H815 H 0.97379 0.92106 0.31146 0.0
H816 H 0.01219 0.91921 0.30585 0.0
S817 S 0.99174 0.85043 0.50323 0.0
N818 N 0.97106 0.86391 0.47184 0.0
N819 N 0.01287 0.86188 0.46567 0.0
C820 C 0.00349 0.8773 0.42364 0.0
C821 C 0.98095 0.87843 0.42715 0.0
C822 C 0.35495 0.7554 0.74256 0.0
C823 C 0.35181 0.76757 0.67638 0.0
C824 C 0.35252 0.73337 0.74086 0.0
C825 C 0.34751 0.72288 0.67261 0.0
H826 H 0.35616 0.7631 0.7976 0.0
H827 H 0.35214 0.72487 0.79445 0.0
S828 S 0.34659 0.74675 0.48001 0.0
N829 N 0.34989 0.76711 0.53818 0.0
N830 N 0.3459 0.72543 0.53461 0.0
C831 C 0.34888 0.73436 0.60422 0.0
C832 C 0.35107 0.75692 0.60613 0.0
C833 C 0.48251 0.10273 0.97627 0.0
C834 C 0.47109 0.09581 0.91233 0.0
C835 C 0.50462 0.10293 0.97553 0.0
C836 C 0.51586 0.09605 0.91102 0.0
H837 H 0.47442 0.10554 0.02976 0.0
H838 H 0.51289 0.10587 0.02857 0.0
S839 S 0.49314 0.08181 0.72345 0.0
N840 N 0.47236 0.08631 0.77825 0.0
N841 N 0.51411 0.08652 0.77708 0.0
C842 C 0.50464 0.09254 0.84314 0.0
C843 C 0.48206 0.09242 0.84379 0.0
C844 C 0.13782 0.75342 0.78873 0.0
C845 C 0.15142 0.76509 0.83634 0.0
C846 C 0.1385 0.73112 0.78786 0.0
C847 C 0.15279 0.72008 0.83454 0.0
H848 H 0.12797 0.76155 0.74762 0.0
H849 H 0.12909 0.72259 0.74627 0.0
S850 S 0.1921 0.74348 0.9666 0.0
N851 N 0.17942 0.76409 0.9308 0.0
N852 N 0.18069 0.72231 0.92911 0.0
C853 C 0.16552 0.73158 0.8854 0.0
C854 C 0.16482 0.75413 0.88634 0.0
C855 C 0.48543 0.88673 0.01172 0.0
C856 C 0.47395 0.89181 0.07787 0.0
C857 C 0.50756 0.88719 0.01164 0.0
C858 C 0.51883 0.89256 0.07785 0.0
H859 H 0.47732 0.88506 0.95768 0.0
H860 H 0.51575 0.88585 0.95762 0.0
S861 S 0.49625 0.90063 0.27034 0.0
N862 N 0.47541 0.89737 0.21469 0.0
N863 N 0.51718 0.89805 0.21468 0.0
C864 C 0.50767 0.89388 0.14692 0.0
C865 C 0.48505 0.89351 0.14694 0.0
C866 C 0.35054 0.23369 0.38419 0.0
C867 C 0.3523 0.22213 0.31591 0.0
C868 C 0.35103 0.25598 0.38343 0.0
C869 C 0.35327 0.26702 0.31435 0.0
H870 H 0.34581 0.22577 0.43621 0.0
H871 H 0.34651 0.26439 0.43476 0.0
S872 S 0.36576 0.24369 0.12613 0.0
N873 N 0.36188 0.22302 0.18217 0.0
N874 N 0.36303 0.26485 0.1809 0.0
C875 C 0.35911 0.2555 0.24916 0.0
C876 C 0.35847 0.23295 0.24981 0.0
C877 C 0.98405 0.10176 0.63122 0.0
C878 C 0.97433 0.09738 0.56068 0.0
C879 C 0.00623 0.10356 0.63689 0.0
C880 C 0.01908 0.10109 0.57208 0.0
H881 H 0.9748 0.10153 0.68314 0.0
H882 H 0.01335 0.10447 0.6929 0.0
S883 S 0.00116 0.09421 0.37267 0.0
N884 N 0.97917 0.09471 0.4233 0.0
N885 N 0.02047 0.09778 0.43449 0.0
C886 C 0.00932 0.0997 0.50048 0.0
C887 C 0.98699 0.09792 0.4946 0.0
C888 C 0.8438 0.73368 0.87771 0.0
C889 C 0.8447 0.72248 0.80849 0.0
C890 C 0.84355 0.75595 0.87816 0.0
C891 C 0.84419 0.76736 0.80939 0.0
H892 H 0.84042 0.72538 0.93033 0.0
H893 H 0.84005 0.76402 0.93119 0.0
S894 S 0.85416 0.74527 0.6173 0.0
N895 N 0.85199 0.72425 0.67289 0.0
N896 N 0.85145 0.7661 0.67369 0.0
C897 C 0.84892 0.75634 0.74206 0.0
C898 C 0.84923 0.73379 0.74164 0.0
C899 C 0.63282 0.22958 0.28944 0.0
C900 C 0.6471 0.21937 0.33841 0.0
C901 C 0.63057 0.25174 0.29116 0.0
C902 C 0.64265 0.26417 0.34157 0.0
H903 H 0.62484 0.22064 0.24518 0.0
H904 H 0.62111 0.25931 0.24752 0.0
S905 S 0.68196 0.24469 0.48149 0.0
N906 N 0.67275 0.22299 0.44027 0.0
N907 N 0.66862 0.26456 0.4435 0.0
C908 C 0.65555 0.25389 0.3952 0.0
C909 C 0.65784 0.23142 0.39336 0.0
C910 C 0.85713 0.2552 0.23843 0.0
C911 C 0.85279 0.26667 0.17163 0.0
C912 C 0.85595 0.23305 0.23901 0.0
C913 C 0.85065 0.22177 0.17264 0.0
H914 H 0.85854 0.26342 0.29246 0.0
H915 H 0.85663 0.22496 0.29336 0.0
S916 S 0.84506 0.24413 0.97879 0.0
N917 N 0.84848 0.26505 0.03429 0.0
N918 N 0.84645 0.22321 0.03521 0.0
C919 C 0.85031 0.23279 0.10316 0.0
C920 C 0.85142 0.25544 0.10265 0.0
C921 C 0.6405 0.73216 0.74672 0.0
C922 C 0.64431 0.72175 0.67722 0.0
C923 C 0.63957 0.75428 0.7504 0.0
C924 C 0.64249 0.76664 0.68468 0.0
H925 H 0.64068 0.72334 0.79965 0.0
H926 H 0.63912 0.76173 0.80602 0.0
S927 S 0.64556 0.74664 0.48636 0.0
N928 N 0.64542 0.72501 0.53943 0.0
N929 N 0.64363 0.7668 0.54618 0.0
C930 C 0.64234 0.75632 0.61357 0.0
C931 C 0.6433 0.73369 0.60986 0.0
C932 C 0.50311 0.3885 0.9744 0.0
C933 C 0.51459 0.39603 0.91144 0.0
C934 C 0.48095 0.38913 0.97503 0.0
C935 C 0.46969 0.39724 0.91261 0.0
H936 H 0.51131 0.38426 0.02637 0.0
H937 H 0.47271 0.38526 0.02732 0.0
S938 S 0.49236 0.41649 0.73085 0.0
N939 N 0.51314 0.40962 0.78229 0.0
N940 N 0.47143 0.41073 0.7833 0.0
C941 C 0.48088 0.40243 0.84607 0.0
C942 C 0.50346 0.40182 0.84549 0.0
C943 C 0.98251 0.59643 0.36474 0.0
C944 C 0.97127 0.59773 0.43374 0.0
C945 C 0.00471 0.59582 0.36462 0.0
C946 C 0.01605 0.5965 0.43348 0.0
H947 H 0.97424 0.59306 0.31205 0.0
H948 H 0.01275 0.59205 0.31181 0.0
S949 S -0.00595 0.60743 0.62484 0.0
N950 N 0.97308 0.60538 0.56912 0.0
N951 N 0.01482 0.60415 0.56887 0.0
C952 C 0.00508 0.60153 0.50053 0.0
C953 C 0.98258 0.60219 0.50064 0.0
C954 C 0.98181 0.38777 0.51226 0.0
C955 C 0.97014 0.39451 0.57588 0.0
C956 C 0.00392 0.38729 0.51447 0.0
C957 C 0.01491 0.39375 0.58011 0.0
H958 H 0.97398 0.38532 0.45806 0.0
H959 H 0.01241 0.38458 0.46174 0.0
S960 S 0.99138 0.40675 0.76755 0.0
N961 N 0.97083 0.40292 0.71097 0.0
N962 N 0.01257 0.40226 0.71481 0.0
C963 C 0.00338 0.39688 0.64756 0.0
C964 C 0.98079 0.39725 0.64545 0.0
C965 C 0.48074 0.61048 0.0436 0.0
C966 C 0.46972 0.59688 0.09289 0.0
C967 C 0.50285 0.61208 0.04736 0.0
C968 C 0.51445 0.59987 0.09967 0.0
H969 H 0.47249 0.61818 -0.00283 0.0
H970 H 0.51103 0.62074 0.00292 0.0
S971 S 0.49259 0.56362 0.24573 0.0
N972 N 0.4716 0.57284 0.20054 0.0
N973 N 0.51318 0.57564 0.20692 0.0
C974 C 0.50336 0.58828 0.15511 0.0
C975 C 0.48088 0.58672 0.15152 0.0
C976 C 0.12281 0.13645 0.38454 0.0
C977 C 0.13196 0.13042 0.31474 0.0
C978 C 0.11033 0.12242 0.42636 0.0
C979 C 0.10629 0.10177 0.40004 0.0
H980 H 0.12546 0.15218 0.4078 0.0
H981 H 0.10376 0.12786 0.47993 0.0
S982 S 0.12625 0.07797 0.22051 0.0
N983 N 0.13598 0.10234 0.22056 0.0
N984 N 0.11212 0.07586 0.29932 0.0
C985 C 0.11481 0.09557 0.32937 0.0
C986 C 0.12773 0.10992 0.28664 0.0
C987 C 0.12937 0.88354 0.55654 0.0
C988 C 0.10753 0.88325 0.57206 0.0
C989 C 0.14341 0.87075 0.59779 0.0
C990 C 0.13601 0.85734 0.65583 0.0
H991 H 0.13573 0.89411 0.51361 0.0
H992 H 0.1602 0.87176 0.58555 0.0
S993 S 0.08009 0.84871 0.71147 0.0
N994 N 0.07898 0.8671 0.6446 0.0
N995 N 0.10546 0.84311 0.7225 0.0
C996 C 0.11419 0.85642 0.67037 0.0
C997 C 0.0999 0.86939 0.62832 0.0
C998 C 0.376 0.8686 0.94014 0.0
C999 C 0.38101 0.88901 0.91367 0.0
C1000 C 0.36263 0.85524 0.89836 0.0
C1001 C 0.35377 0.86188 0.82887 0.0
H1002 H 0.38263 0.86283 0.99309 0.0
H1003 H 0.35934 0.83952 0.92047 0.0
S1004 S 0.36017 0.91476 0.73928 0.0
N1005 N 0.37504 0.91582 0.81649 0.0
N1006 N 0.34979 0.89069 0.73805 0.0
C1007 C 0.35838 0.88239 0.8024 0.0
C1008 C 0.37203 0.89598 0.84485 0.0
C1009 C 0.3608 0.1098 0.04664 0.0
C1010 C 0.37919 0.10108 0.07921 0.0
C1011 C 0.34758 0.12333 0.08838 0.0
C1012 C 0.3522 0.12867 0.16437 0.0
H1013 H 0.35635 0.10591 0.98873 0.0
H1014 H 0.33345 0.1294 0.06104 0.0
S1015 S 0.39948 0.11165 0.27411 0.0
N1016 N 0.40205 0.09983 0.19074 0.0
N1017 N 0.37718 0.12521 0.26913 0.0
C1018 C 0.37078 0.12042 0.19723 0.0
C1019 C 0.38426 0.10666 0.15469 0.0
C1020 C 0.88454 0.87109 0.63241 0.0
C1021 C 0.87686 0.88674 0.58266 0.0
C1022 C 0.87051 0.85866 0.6755 0.0
C1023 C 0.84852 0.86169 0.67005 0.0
H1024 H 0.90141 0.86827 0.63714 0.0
H1025 H 0.87684 0.84639 0.71215 0.0
S1026 S 0.82084 0.90253 0.5561 0.0
N1027 N 0.84615 0.90585 0.53545 0.0
N1028 N 0.81985 0.8825 0.61661 0.0
C1029 C 0.84075 0.87769 0.6223 0.0
C1030 C 0.85495 0.89025 0.57848 0.0
C1031 C 0.86401 0.13729 0.39132 0.0
C1032 C 0.85129 0.1291 0.33243 0.0
C1033 C 0.87743 0.12394 0.43322 0.0
C1034 C 0.87843 0.1021 0.41724 0.0
H1035 H 0.86386 0.15413 0.404 0.0
H1036 H 0.8874 0.13079 0.47707 0.0
S1037 S 0.84566 0.07256 0.27784 0.0
N1038 N 0.83877 0.09764 0.26623 0.0
N1039 N 0.86398 0.07257 0.34489 0.0
C1040 C 0.86516 0.09367 0.36071 0.0
C1041 C 0.85157 0.10719 0.31822 0.0
C1042 C 0.62825 0.1091 0.1927 0.0
C1043 C 0.63572 0.12814 0.16038 0.0
C1044 C 0.61405 0.096 0.15351 0.0
C1045 C 0.60681 0.10141 0.08047 0.0
H1046 H 0.63379 0.10397 0.24805 0.0
H1047 H 0.6092 0.08122 0.17979 0.0
S1048 S 0.61915 0.15089 0.97499 0.0
N1049 N 0.63318 0.15272 0.05401 0.0
N1050 N 0.60652 0.12798 0.98014 0.0
C1051 C 0.61348 0.12076 0.04859 0.0
C1052 C 0.62793 0.13415 0.08858 0.0
C1053 C 0.62983 0.85847 0.89899 0.0
C1054 C 0.63679 0.86343 0.82515 0.0
C1055 C 0.61659 0.87223 0.9393 0.0
C1056 C 0.60979 0.89154 0.90747 0.0
H1057 H 0.63463 0.84381 0.9261 0.0
H1058 H 0.61168 0.86766 -0.00393 0.0
S1059 S 0.6242 0.91243 0.71701 0.0
N1060 N 0.63628 0.88923 0.72209 0.0
N1061 N 0.61133 0.91518 0.79823 0.0
C1062 C 0.61648 0.89669 0.83343 0.0
C1063 C 0.63 0.88262 0.79218 0.0
C1064 C 0.62013 0.6208 0.93801 0.0
C1065 C 0.607 0.60585 0.90172 0.0
C1066 C 0.63517 0.63248 0.89699 0.0
C1067 C 0.63776 0.62964 0.81796 0.0
H1068 H 0.61886 0.62351 -0.00126 0.0
H1069 H 0.64481 0.64384 0.92777 0.0
S1070 S 0.60792 0.59177 0.69604 0.0
N1071 N 0.59794 0.58846 0.78199 0.0
N1072 N 0.62618 0.61034 0.70523 0.0
C1073 C 0.62476 0.61469 0.7809 0.0
C1074 C 0.6094 0.60285 0.82262 0.0
C1075 C 0.62019 0.354 0.10902 0.0
C1076 C 0.63113 0.36075 0.17447 0.0
C1077 C 0.60766 0.36808 0.06722 0.0
C1078 C 0.60555 0.38938 0.08954 0.0
H1079 H 0.62151 0.33774 0.08938 0.0
H1080 H 0.59964 0.36225 0.01682 0.0
S1081 S 0.63168 0.41534 0.25415 0.0
N1082 N 0.63951 0.39035 0.25845 0.0
N1083 N 0.61572 0.41681 0.17987 0.0
C1084 C 0.61614 0.39634 0.15534 0.0
C1085 C 0.62899 0.38201 0.19788 0.0
C1086 C 0.87027 0.3948 0.33745 0.0
C1087 C 0.87922 0.38866 0.40728 0.0
C1088 C 0.85716 0.38092 0.29656 0.0
C1089 C 0.85262 0.36047 0.32421 0.0
H1090 H 0.87305 0.41057 0.31499 0.0
H1091 H 0.85025 0.38639 0.24367 0.0
S1092 S 0.87456 0.3359 0.49899 0.0
N1093 N 0.88422 0.36028 0.49902 0.0
N1094 N 0.85963 0.33412 0.42208 0.0
C1095 C 0.86202 0.35394 0.39281 0.0
C1096 C 0.87532 0.36808 0.43441 0.0
C1097 C 0.85919 0.61225 0.69349 0.0
C1098 C 0.84882 0.62937 0.65836 0.0
C1099 C 0.87258 0.59882 0.65208 0.0
C1100 C 0.87619 0.60196 0.57378 0.0
H1101 H 0.85676 0.60894 0.75335 0.0
H1102 H 0.87995 0.58572 0.68184 0.0
S1103 S 0.85402 0.64548 0.45572 0.0
N1104 N 0.84388 0.6494 0.54115 0.0
N1105 N 0.86901 0.62416 0.46343 0.0
C1106 C 0.86621 0.61927 0.53812 0.0
C1107 C 0.85256 0.63296 0.58033 0.0
C1108 C 0.35842 0.37787 0.19249 0.0
C1109 C 0.35015 0.3596 0.15687 0.0
C1110 C 0.37164 0.39195 0.15309 0.0
C1111 C 0.37708 0.38834 0.07653 0.0
H1112 H 0.35444 0.38152 0.25104 0.0
H1113 H 0.3773 0.40598 0.18253 0.0
S1114 S 0.36174 0.34155 0.95991 0.0
N1115 N 0.34981 0.33781 0.04232 0.0
N1116 N 0.37459 0.36425 0.96841 0.0
C1117 C 0.36947 0.3698 0.04094 0.0
C1118 C 0.35603 0.35546 0.08102 0.0
C1119 C 0.38135 0.61103 0.83143 0.0
C1120 C 0.37642 0.60464 0.90616 0.0
C1121 C 0.36729 0.62349 0.78886 0.0
C1122 C 0.34778 0.63006 0.81942 0.0
H1123 H 0.39622 0.60642 0.80553 0.0
H1124 H 0.37189 0.62821 0.73192 0.0
S1125 S 0.32649 0.61626 0.01017 0.0
N1126 N 0.35007 0.605 0.00742 0.0
N1127 N 0.32374 0.62835 0.92754 0.0
C1128 C 0.34252 0.62358 0.89372 0.0
C1129 C 0.35681 0.61092 0.93705 0.0
C1130 C 0.12877 0.60919 0.69353 0.0
C1131 C 0.13815 0.62703 0.65893 0.0
C1132 C 0.11496 0.59593 0.65311 0.0
C1133 C 0.10995 0.6 0.5765 0.0
H1134 H 0.13243 0.60511 0.75193 0.0
H1135 H 0.10851 0.58216 0.68189 0.0
S1136 S 0.12815 0.64624 0.463 0.0
N1137 N 0.14006 0.64909 0.54585 0.0
N1138 N 0.11406 0.62425 0.46966 0.0
C1139 C 0.11863 0.61822 0.54205 0.0
C1140 C 0.13273 0.6317 0.58328 0.0
C1141 C 0.12736 0.35811 0.40346 0.0
C1142 C 0.1339 0.36314 0.32899 0.0
C1143 C 0.11435 0.37186 0.44514 0.0
C1144 C 0.10734 0.39113 0.41383 0.0
H1145 H 0.13209 0.34328 0.4296 0.0
H1146 H 0.10952 0.3672 0.50187 0.0
S1147 S 0.12157 0.41277 0.2241 0.0
N1148 N 0.13345 0.38946 0.22763 0.0
N1149 N 0.10895 0.41525 0.3059 0.0
C1150 C 0.11407 0.39658 0.34005 0.0
C1151 C 0.12735 0.38261 0.29766 0.0
loop_
_geom_bond_atom_site_label_1
_geom_bond_atom_site_label_2
_geom_bond_distance
_geom_bond_site_symmetry_2
_ccdc_geom_bond_type
Mg0 O1 2.028 . S
Mg0 O7 1.986 . S
Mg0 O9 2.114 . S
Mg0 O10 2.251 . S
Mg0 O13 2.010 . S
O1 Mg0 2.028 . S
O1 C4 1.250 . S
O2 Mg3 2.028 . S
O2 C4 1.248 . S
Mg3 O2 2.028 . S
Mg3 O8 2.032 . S
Mg3 O10 2.079 . S
C4 O1 1.250 . S
C4 O2 1.248 . S
C5 O6 1.264 . S
C5 O13 1.249 1_556 S
O6 C5 1.264 . S
O7 Mg0 1.986 . S
O7 C11 1.246 . S
O8 Mg3 2.032 . S
O8 C11 1.259 . S
O9 Mg0 2.114 . S
O9 C12 1.252 . S
O10 Mg0 2.251 . S
O10 Mg3 2.079 . S
O10 C12 1.273 . S
C11 O7 1.246 . S
C11 O8 1.259 . S
C12 O9 1.252 . S
C12 O10 1.273 . S
O13 Mg0 2.010 . S
O13 C5 1.249 1_554 S
Mg14 O15 2.028 . S
Mg14 O21 1.986 . S
Mg14 O23 2.114 . S
Mg14 O24 2.251 . S
Mg14 O27 2.010 . S
O15 Mg14 2.028 . S
O15 C18 1.250 . S
O16 Mg17 2.028 . S
O16 C18 1.248 . S
Mg17 O16 2.028 . S
Mg17 O22 2.032 . S
Mg17 O24 2.079 . S
C18 O15 1.250 . S
C18 O16 1.248 . S
C19 O20 1.264 . S
C19 O27 1.249 . S
O20 C19 1.264 . S
O21 Mg14 1.986 . S
O21 C25 1.246 . S
O22 Mg17 2.032 . S
O22 C25 1.259 . S
O23 Mg14 2.114 . S
O23 C26 1.252 . S
O24 Mg14 2.251 . S
O24 Mg17 2.079 . S
O24 C26 1.273 . S
C25 O21 1.246 . S
C25 O22 1.259 . S
C26 O23 1.252 . S
C26 O24 1.273 . S
O27 Mg14 2.010 . S
O27 C19 1.249 . S
Mg28 O29 2.028 . S
Mg28 O35 1.986 . S
Mg28 O37 2.114 . S
Mg28 O38 2.251 . S
Mg28 O41 2.010 . S
O29 Mg28 2.028 . S
O29 C32 1.250 . S
O30 Mg31 2.028 . S
O30 C32 1.248 . S
Mg31 O30 2.028 . S
Mg31 O36 2.032 . S
Mg31 O38 2.079 . S
C32 O29 1.250 . S
C32 O30 1.248 . S
C33 O34 1.264 . S
C33 O41 1.249 . S
O34 C33 1.264 . S
O35 Mg28 1.986 . S
O35 C39 1.246 . S
O36 Mg31 2.032 . S
O36 C39 1.259 . S
O37 Mg28 2.114 . S
O37 C40 1.252 . S
O38 Mg28 2.251 . S
O38 Mg31 2.079 . S
O38 C40 1.273 . S
C39 O35 1.246 . S
C39 O36 1.259 . S
C40 O37 1.252 . S
C40 O38 1.273 . S
O41 Mg28 2.010 . S
O41 C33 1.249 . S
Mg42 O43 2.028 . S
Mg42 O49 1.986 . S
Mg42 O51 2.114 . S
Mg42 O52 2.251 . S
Mg42 O55 2.010 . S
O43 Mg42 2.028 . S
O43 C46 1.250 1_556 S
O44 Mg45 2.028 . S
O44 C46 1.248 . S
Mg45 O44 2.028 . S
Mg45 O50 2.032 . S
Mg45 O52 2.079 1_554 S
C46 O43 1.250 1_554 S
C46 O44 1.248 . S
C47 O48 1.264 . S
C47 O55 1.249 . S
O48 C47 1.264 . S
O49 Mg42 1.986 . S
O49 C53 1.246 . S
O50 Mg45 2.032 . S
O50 C53 1.259 1_554 S
O51 Mg42 2.114 . S
O51 C54 1.252 . S
O52 Mg42 2.251 . S
O52 Mg45 2.079 1_556 S
O52 C54 1.273 . S
C53 O49 1.246 . S
C53 O50 1.259 1_556 S
C54 O51 1.252 . S
C54 O52 1.273 . S
O55 Mg42 2.010 . S
O55 C47 1.249 . S
Mg56 O57 2.028 . S
Mg56 O63 1.986 . S
Mg56 O65 2.114 . S
Mg56 O66 2.251 . S
Mg56 O69 2.010 . S
O57 Mg56 2.028 . S
O57 C60 1.250 . S
O58 Mg59 2.028 . S
O58 C60 1.248 . S
Mg59 O58 2.028 . S
Mg59 O64 2.032 . S
Mg59 O66 2.079 . S
C60 O57 1.250 . S
C60 O58 1.248 . S
C61 O62 1.264 . S
C61 O69 1.249 1_554 S
O62 C61 1.264 . S
O63 Mg56 1.986 . S
O63 C67 1.246 . S
O64 Mg59 2.032 . S
O64 C67 1.259 . S
O65 Mg56 2.114 . S
O65 C68 1.252 . S
O66 Mg56 2.251 . S
O66 Mg59 2.079 . S
O66 C68 1.273 . S
C67 O63 1.246 . S
C67 O64 1.259 . S
C68 O65 1.252 . S
C68 O66 1.273 . S
O69 Mg56 2.010 . S
O69 C61 1.249 1_556 S
Mg70 O71 2.028 . S
Mg70 O77 1.986 . S
Mg70 O79 2.114 . S
Mg70 O80 2.251 . S
Mg70 O83 2.010 . S
O71 Mg70 2.028 . S
O71 C74 1.250 1_554 S
O72 Mg73 2.028 . S
O72 C74 1.248 . S
Mg73 O72 2.028 . S
Mg73 O78 2.032 . S
Mg73 O80 2.079 1_556 S
C74 O71 1.250 1_556 S
C74 O72 1.248 . S
C75 O76 1.264 . S
C75 O83 1.249 . S
O76 C75 1.264 . S
O77 Mg70 1.986 . S
O77 C81 1.246 . S
O78 Mg73 2.032 . S
O78 C81 1.259 1_556 S
O79 Mg70 2.114 . S
O79 C82 1.252 . S
O80 Mg70 2.251 . S
O80 Mg73 2.079 1_554 S
O80 C82 1.273 . S
C81 O77 1.246 . S
C81 O78 1.259 1_554 S
C82 O79 1.252 . S
C82 O80 1.273 . S
O83 Mg70 2.010 . S
O83 C75 1.249 . S
Mg84 O85 2.028 . S
Mg84 O91 1.986 . S
Mg84 O93 2.114 . S
Mg84 O94 2.251 . S
Mg84 O97 2.010 . S
O85 Mg84 2.028 . S
O85 C88 1.250 . S
O86 Mg87 2.028 . S
O86 C88 1.248 . S
Mg87 O86 2.028 . S
Mg87 O92 2.032 . S
Mg87 O94 2.079 . S
C88 O85 1.250 . S
C88 O86 1.248 . S
C89 O90 1.264 . S
C89 O97 1.249 . S
O90 C89 1.264 . S
O91 Mg84 1.986 . S
O91 C95 1.246 . S
O92 Mg87 2.032 . S
O92 C95 1.259 . S
O93 Mg84 2.114 . S
O93 C96 1.252 . S
O94 Mg84 2.251 . S
O94 Mg87 2.079 . S
O94 C96 1.273 . S
C95 O91 1.246 . S
C95 O92 1.259 . S
C96 O93 1.252 . S
C96 O94 1.273 . S
O97 Mg84 2.010 . S
O97 C89 1.249 . S
Mg98 O99 2.028 . S
Mg98 O105 1.986 . S
Mg98 O107 2.114 . S
Mg98 O108 2.251 . S
Mg98 O111 2.010 . S
O99 Mg98 2.028 . S
O99 C102 1.250 . S
O100 Mg101 2.028 . S
O100 C102 1.248 . S
Mg101 O100 2.028 . S
Mg101 O106 2.032 . S
Mg101 O108 2.079 . S
C102 O99 1.250 . S
C102 O100 1.248 . S
C103 O104 1.264 . S
C103 O111 1.249 . S
O104 C103 1.264 . S
O105 Mg98 1.986 . S
O105 C109 1.246 . S
O106 Mg101 2.032 . S
O106 C109 1.259 . S
O107 Mg98 2.114 . S
O107 C110 1.252 . S
O108 Mg98 2.251 . S
O108 Mg101 2.079 . S
O108 C110 1.273 . S
C109 O105 1.246 . S
C109 O106 1.259 . S
C110 O107 1.252 . S
C110 O108 1.273 . S
O111 Mg98 2.010 . S
O111 C103 1.249 . S
Mg112 O113 2.028 . S
Mg112 O119 1.986 . S
Mg112 O121 2.114 . S
Mg112 O122 2.251 . S
Mg112 O125 2.010 . S
O113 Mg112 2.028 . S
O113 C116 1.250 . S
O114 Mg115 2.028 . S
O114 C116 1.248 . S
Mg115 O114 2.028 . S
Mg115 O120 2.032 . S
Mg115 O122 2.079 . S
C116 O113 1.250 . S
C116 O114 1.248 . S
C117 O118 1.264 . S
C117 O125 1.249 1_554 S
O118 C117 1.264 . S
O119 Mg112 1.986 . S
O119 C123 1.246 . S
O120 Mg115 2.032 . S
O120 C123 1.259 . S
O121 Mg112 2.114 . S
O121 C124 1.252 . S
O122 Mg112 2.251 . S
O122 Mg115 2.079 . S
O122 C124 1.273 . S
C123 O119 1.246 . S
C123 O120 1.259 . S
C124 O121 1.252 . S
C124 O122 1.273 . S
O125 Mg112 2.010 . S
O125 C117 1.249 1_556 S
Mg126 O127 2.028 . S
Mg126 O133 1.986 . S
Mg126 O135 2.114 . S
Mg126 O136 2.251 . S
Mg126 O139 2.010 . S
O127 Mg126 2.028 . S
O127 C130 1.250 . S
O128 Mg129 2.028 . S
O128 C130 1.248 . S
Mg129 O128 2.028 . S
Mg129 O134 2.032 . S
Mg129 O136 2.079 . S
C130 O127 1.250 . S
C130 O128 1.248 . S
C131 O132 1.264 . S
C131 O139 1.249 . S
O132 C131 1.264 . S
O133 Mg126 1.986 . S
O133 C137 1.246 . S
O134 Mg129 2.032 . S
O134 C137 1.259 . S
O135 Mg126 2.114 . S
O135 C138 1.252 . S
O136 Mg126 2.251 . S
O136 Mg129 2.079 . S
O136 C138 1.273 . S
C137 O133 1.246 . S
C137 O134 1.259 . S
C138 O135 1.252 . S
C138 O136 1.273 . S
O139 Mg126 2.010 . S
O139 C131 1.249 . S
Mg140 O141 2.028 . S
Mg140 O147 1.986 . S
Mg140 O149 2.114 . S
Mg140 O150 2.251 . S
Mg140 O153 2.010 . S
O141 Mg140 2.028 . S
O141 C144 1.250 . S
O142 Mg143 2.028 . S
O142 C144 1.248 . S
Mg143 O142 2.028 . S
Mg143 O148 2.032 . S
Mg143 O150 2.079 . S
C144 O141 1.250 . S
C144 O142 1.248 . S
C145 O146 1.264 . S
C145 O153 1.249 . S
O146 C145 1.264 . S
O147 Mg140 1.986 . S
O147 C151 1.246 . S
O148 Mg143 2.032 . S
O148 C151 1.259 . S
O149 Mg140 2.114 . S
O149 C152 1.252 . S
O150 Mg140 2.251 . S
O150 Mg143 2.079 . S
O150 C152 1.273 . S
C151 O147 1.246 . S
C151 O148 1.259 . S
C152 O149 1.252 . S
C152 O150 1.273 . S
O153 Mg140 2.010 . S
O153 C145 1.249 . S
Mg154 O155 2.028 . S
Mg154 O161 1.986 . S
Mg154 O163 2.114 . S
Mg154 O164 2.251 . S
Mg154 O167 2.010 . S
O155 Mg154 2.028 . S
O155 C158 1.250 1_554 S
O156 Mg157 2.028 . S
O156 C158 1.248 . S
Mg157 O156 2.028 . S
Mg157 O162 2.032 . S
Mg157 O164 2.079 1_556 S
C158 O155 1.250 1_556 S
C158 O156 1.248 . S
C159 O160 1.264 . S
C159 O167 1.249 . S
O160 C159 1.264 . S
O161 Mg154 1.986 . S
O161 C165 1.246 . S
O162 Mg157 2.032 . S
O162 C165 1.259 1_556 S
O163 Mg154 2.114 . S
O163 C166 1.252 . S
O164 Mg154 2.251 . S
O164 Mg157 2.079 1_554 S
O164 C166 1.273 . S
C165 O161 1.246 . S
C165 O162 1.259 1_554 S
C166 O163 1.252 . S
C166 O164 1.273 . S
O167 Mg154 2.010 . S
O167 C159 1.249 . S
Mg168 O169 2.028 . S
Mg168 O175 1.986 . S
Mg168 O177 2.114 . S
Mg168 O178 2.251 . S
Mg168 O181 2.010 . S
O169 Mg168 2.028 . S
O169 C172 1.250 . S
O170 Mg171 2.028 . S
O170 C172 1.248 . S
Mg171 O170 2.028 . S
Mg171 O176 2.032 . S
Mg171 O178 2.079 . S
C172 O169 1.250 . S
C172 O170 1.248 . S
C173 O174 1.264 . S
C173 O181 1.249 1_556 S
O174 C173 1.264 . S
O175 Mg168 1.986 . S
O175 C179 1.246 . S
O176 Mg171 2.032 . S
O176 C179 1.259 . S
O177 Mg168 2.114 . S
O177 C180 1.252 . S
O178 Mg168 2.251 . S
O178 Mg171 2.079 . S
O178 C180 1.273 . S
C179 O175 1.246 . S
C179 O176 1.259 . S
C180 O177 1.252 . S
C180 O178 1.273 . S
O181 Mg168 2.010 . S
O181 C173 1.249 1_554 S
Mg182 O183 2.028 . S
Mg182 O189 1.986 . S
Mg182 O191 2.114 . S
Mg182 O192 2.251 . S
Mg182 O195 2.010 . S
O183 Mg182 2.028 . S
O183 C186 1.250 1_556 S
O184 Mg185 2.028 . S
O184 C186 1.248 . S
Mg185 O184 2.028 . S
Mg185 O190 2.032 . S
Mg185 O192 2.079 1_554 S
C186 O183 1.250 1_554 S
C186 O184 1.248 . S
C187 O188 1.264 . S
C187 O195 1.249 . S
O188 C187 1.264 . S
O189 Mg182 1.986 . S
O189 C193 1.246 . S
O190 Mg185 2.032 . S
O190 C193 1.259 1_554 S
O191 Mg182 2.114 . S
O191 C194 1.252 . S
O192 Mg182 2.251 . S
O192 Mg185 2.079 1_556 S
O192 C194 1.273 . S
C193 O189 1.246 . S
C193 O190 1.259 1_556 S
C194 O191 1.252 . S
C194 O192 1.273 . S
O195 Mg182 2.010 . S
O195 C187 1.249 . S
Mg196 O197 2.028 . S
Mg196 O203 1.986 . S
Mg196 O205 2.114 . S
Mg196 O206 2.251 . S
Mg196 O209 2.010 . S
O197 Mg196 2.028 . S
O197 C200 1.250 . S
O198 Mg199 2.028 . S
O198 C200 1.248 . S
Mg199 O198 2.028 . S
Mg199 O204 2.032 . S
Mg199 O206 2.079 . S
C200 O197 1.250 . S
C200 O198 1.248 . S
C201 O202 1.264 . S
C201 O209 1.249 . S
O202 C201 1.264 . S
O203 Mg196 1.986 . S
O203 C207 1.246 . S
O204 Mg199 2.032 . S
O204 C207 1.259 . S
O205 Mg196 2.114 . S
O205 C208 1.252 . S
O206 Mg196 2.251 . S
O206 Mg199 2.079 . S
O206 C208 1.273 . S
C207 O203 1.246 . S
C207 O204 1.259 . S
C208 O205 1.252 . S
C208 O206 1.273 . S
O209 Mg196 2.010 . S
O209 C201 1.249 . S
Mg210 O211 2.028 . S
Mg210 O217 1.986 . S
Mg210 O219 2.114 . S
Mg210 O220 2.251 . S
Mg210 O223 2.010 . S
O211 Mg210 2.028 . S
O211 C214 1.250 . S
O212 Mg213 2.028 . S
O212 C214 1.248 . S
Mg213 O212 2.028 . S
Mg213 O218 2.032 . S
Mg213 O220 2.079 . S
C214 O211 1.250 . S
C214 O212 1.248 . S
C215 O216 1.264 . S
C215 O223 1.249 . S
O216 C215 1.264 . S
O217 Mg210 1.986 . S
O217 C221 1.246 . S
O218 Mg213 2.032 . S
O218 C221 1.259 . S
O219 Mg210 2.114 . S
O219 C222 1.252 . S
O220 Mg210 2.251 . S
O220 Mg213 2.079 . S
O220 C222 1.273 . S
C221 O217 1.246 . S
C221 O218 1.259 . S
C222 O219 1.252 . S
C222 O220 1.273 . S
O223 Mg210 2.010 . S
O223 C215 1.249 . S
Mg224 O225 2.028 . S
Mg224 O231 1.986 . S
Mg224 O233 2.114 . S
Mg224 O234 2.251 . S
Mg224 O237 2.010 . S
O225 Mg224 2.028 . S
O225 C228 1.250 . S
O226 Mg227 2.028 . S
O226 C228 1.248 . S
Mg227 O226 2.028 . S
Mg227 O232 2.032 . S
Mg227 O234 2.079 . S
C228 O225 1.250 . S
C228 O226 1.248 . S
C229 O230 1.264 . S
C229 O237 1.249 . S
O230 C229 1.264 . S
O231 Mg224 1.986 . S
O231 C235 1.246 . S
O232 Mg227 2.032 . S
O232 C235 1.259 . S
O233 Mg224 2.114 . S
O233 C236 1.252 . S
O234 Mg224 2.251 . S
O234 Mg227 2.079 . S
O234 C236 1.273 . S
C235 O231 1.246 . S
C235 O232 1.259 . S
C236 O233 1.252 . S
C236 O234 1.273 . S
O237 Mg224 2.010 . S
O237 C229 1.249 . S
Mg238 O239 2.028 . S
Mg238 O245 1.986 . S
Mg238 O247 2.114 . S
Mg238 O248 2.251 . S
Mg238 O251 2.010 . S
O239 Mg238 2.028 . S
O239 C242 1.250 1_556 S
O240 Mg241 2.028 . S
O240 C242 1.248 . S
Mg241 O240 2.028 . S
Mg241 O246 2.032 . S
Mg241 O248 2.079 1_554 S
C242 O239 1.250 1_554 S
C242 O240 1.248 . S
C243 O244 1.264 . S
C243 O251 1.249 . S
O244 C243 1.264 . S
O245 Mg238 1.986 . S
O245 C249 1.246 . S
O246 Mg241 2.032 . S
O246 C249 1.259 1_554 S
O247 Mg238 2.114 . S
O247 C250 1.252 . S
O248 Mg238 2.251 . S
O248 Mg241 2.079 1_556 S
O248 C250 1.273 . S
C249 O245 1.246 . S
C249 O246 1.259 1_556 S
C250 O247 1.252 . S
C250 O248 1.273 . S
O251 Mg238 2.010 . S
O251 C243 1.249 . S
Mg252 O253 2.028 . S
Mg252 O259 1.986 . S
Mg252 O261 2.114 . S
Mg252 O262 2.251 . S
Mg252 O265 2.010 . S
O253 Mg252 2.028 . S
O253 C256 1.250 . S
O254 Mg255 2.028 . S
O254 C256 1.248 . S
Mg255 O254 2.028 . S
Mg255 O260 2.032 . S
Mg255 O262 2.079 . S
C256 O253 1.250 . S
C256 O254 1.248 . S
C257 O258 1.264 . S
C257 O265 1.249 1_556 S
O258 C257 1.264 . S
O259 Mg252 1.986 . S
O259 C263 1.246 . S
O260 Mg255 2.032 . S
O260 C263 1.259 . S
O261 Mg252 2.114 . S
O261 C264 1.252 . S
O262 Mg252 2.251 . S
O262 Mg255 2.079 . S
O262 C264 1.273 . S
C263 O259 1.246 . S
C263 O260 1.259 . S
C264 O261 1.252 . S
C264 O262 1.273 . S
O265 Mg252 2.010 . S
O265 C257 1.249 1_554 S
Mg266 O267 2.028 . S
Mg266 O273 1.986 . S
Mg266 O275 2.114 . S
Mg266 O276 2.251 . S
Mg266 O279 2.010 . S
O267 Mg266 2.028 . S
O267 C270 1.250 . S
O268 Mg269 2.028 . S
O268 C270 1.248 . S
Mg269 O268 2.028 . S
Mg269 O274 2.032 . S
Mg269 O276 2.079 . S
C270 O267 1.250 . S
C270 O268 1.248 . S
C271 O272 1.264 . S
C271 O279 1.249 . S
O272 C271 1.264 . S
O273 Mg266 1.986 . S
O273 C277 1.246 . S
O274 Mg269 2.032 . S
O274 C277 1.259 . S
O275 Mg266 2.114 . S
O275 C278 1.252 . S
O276 Mg266 2.251 . S
O276 Mg269 2.079 . S
O276 C278 1.273 . S
C277 O273 1.246 . S
C277 O274 1.259 . S
C278 O275 1.252 . S
C278 O276 1.273 . S
O279 Mg266 2.010 . S
O279 C271 1.249 . S
Mg280 O281 2.028 . S
Mg280 O287 1.986 . S
Mg280 O289 2.114 . S
Mg280 O290 2.251 . S
Mg280 O293 2.010 . S
O281 Mg280 2.028 . S
O281 C284 1.250 . S
O282 Mg283 2.028 . S
O282 C284 1.248 . S
Mg283 O282 2.028 . S
Mg283 O288 2.032 . S
Mg283 O290 2.079 . S
C284 O281 1.250 . S
C284 O282 1.248 . S
C285 O286 1.264 . S
C285 O293 1.249 . S
O286 C285 1.264 . S
O287 Mg280 1.986 . S
O287 C291 1.246 . S
O288 Mg283 2.032 . S
O288 C291 1.259 . S
O289 Mg280 2.114 . S
O289 C292 1.252 . S
O290 Mg280 2.251 . S
O290 Mg283 2.079 . S
O290 C292 1.273 . S
C291 O287 1.246 . S
C291 O288 1.259 . S
C292 O289 1.252 . S
C292 O290 1.273 . S
O293 Mg280 2.010 . S
O293 C285 1.249 . S
Mg294 O295 2.028 . S
Mg294 O301 1.986 . S
Mg294 O303 2.114 . S
Mg294 O304 2.251 . S
Mg294 O307 2.010 . S
O295 Mg294 2.028 . S
O295 C298 1.250 . S
O296 Mg297 2.028 . S
O296 C298 1.248 . S
Mg297 O296 2.028 . S
Mg297 O302 2.032 . S
Mg297 O304 2.079 . S
C298 O295 1.250 . S
C298 O296 1.248 . S
C299 O300 1.264 . S
C299 O307 1.249 . S
O300 C299 1.264 . S
O301 Mg294 1.986 . S
O301 C305 1.246 . S
O302 Mg297 2.032 . S
O302 C305 1.259 . S
O303 Mg294 2.114 . S
O303 C306 1.252 . S
O304 Mg294 2.251 . S
O304 Mg297 2.079 . S
O304 C306 1.273 . S
C305 O301 1.246 . S
C305 O302 1.259 . S
C306 O303 1.252 . S
C306 O304 1.273 . S
O307 Mg294 2.010 . S
O307 C299 1.249 . S
Mg308 O309 2.028 . S
Mg308 O315 1.986 . S
Mg308 O317 2.114 . S
Mg308 O318 2.251 . S
Mg308 O321 2.010 . S
O309 Mg308 2.028 . S
O309 C312 1.250 . S
O310 Mg311 2.028 . S
O310 C312 1.248 . S
Mg311 O310 2.028 . S
Mg311 O316 2.032 . S
Mg311 O318 2.079 . S
C312 O309 1.250 . S
C312 O310 1.248 . S
C313 O314 1.264 . S
C313 O321 1.249 1_554 S
O314 C313 1.264 . S
O315 Mg308 1.986 . S
O315 C319 1.246 . S
O316 Mg311 2.032 . S
O316 C319 1.259 . S
O317 Mg308 2.114 . S
O317 C320 1.252 . S
O318 Mg308 2.251 . S
O318 Mg311 2.079 . S
O318 C320 1.273 . S
C319 O315 1.246 . S
C319 O316 1.259 . S
C320 O317 1.252 . S
C320 O318 1.273 . S
O321 Mg308 2.010 . S
O321 C313 1.249 1_556 S
Mg322 O323 2.028 . S
Mg322 O329 1.986 . S
Mg322 O331 2.114 . S
Mg322 O332 2.251 . S
Mg322 O335 2.010 . S
O323 Mg322 2.028 . S
O323 C326 1.250 1_554 S
O324 Mg325 2.028 . S
O324 C326 1.248 . S
Mg325 O324 2.028 . S
Mg325 O330 2.032 . S
Mg325 O332 2.079 1_556 S
C326 O323 1.250 1_556 S
C326 O324 1.248 . S
C327 O328 1.264 . S
C327 O335 1.249 . S
O328 C327 1.264 . S
O329 Mg322 1.986 . S
O329 C333 1.246 . S
O330 Mg325 2.032 . S
O330 C333 1.259 1_556 S
O331 Mg322 2.114 . S
O331 C334 1.252 . S
O332 Mg322 2.251 . S
O332 Mg325 2.079 1_554 S
O332 C334 1.273 . S
C333 O329 1.246 . S
C333 O330 1.259 1_554 S
C334 O331 1.252 . S
C334 O332 1.273 . S
O335 Mg322 2.010 . S
O335 C327 1.249 . S
Mg336 O337 2.028 . S
Mg336 O343 1.986 . S
Mg336 O345 2.114 . S
Mg336 O346 2.251 . S
Mg336 O349 2.010 . S
O337 Mg336 2.028 . S
O337 C340 1.250 . S
O338 Mg339 2.028 . S
O338 C340 1.248 . S
Mg339 O338 2.028 . S
Mg339 O344 2.032 . S
Mg339 O346 2.079 . S
C340 O337 1.250 . S
C340 O338 1.248 . S
C341 O342 1.264 . S
C341 O349 1.249 . S
O342 C341 1.264 . S
O343 Mg336 1.986 . S
O343 C347 1.246 . S
O344 Mg339 2.032 . S
O344 C347 1.259 . S
O345 Mg336 2.114 . S
O345 C348 1.252 . S
O346 Mg336 2.251 . S
O346 Mg339 2.079 . S
O346 C348 1.273 . S
C347 O343 1.246 . S
C347 O344 1.259 . S
C348 O345 1.252 . S
C348 O346 1.273 . S
O349 Mg336 2.010 . S
O349 C341 1.249 . S
Mg350 O351 2.028 . S
Mg350 O357 1.986 . S
Mg350 O359 2.114 . S
Mg350 O360 2.251 . S
Mg350 O363 2.010 . S
O351 Mg350 2.028 . S
O351 C354 1.250 1_554 S
O352 Mg353 2.028 . S
O352 C354 1.248 . S
Mg353 O352 2.028 . S
Mg353 O358 2.032 . S
Mg353 O360 2.079 1_556 S
C354 O351 1.250 1_556 S
C354 O352 1.248 . S
C355 O356 1.264 . S
C355 O363 1.249 . S
O356 C355 1.264 . S
O357 Mg350 1.986 . S
O357 C361 1.246 . S
O358 Mg353 2.032 . S
O358 C361 1.259 1_556 S
O359 Mg350 2.114 . S
O359 C362 1.252 . S
O360 Mg350 2.251 . S
O360 Mg353 2.079 1_554 S
O360 C362 1.273 . S
C361 O357 1.246 . S
C361 O358 1.259 1_554 S
C362 O359 1.252 . S
C362 O360 1.273 . S
O363 Mg350 2.010 . S
O363 C355 1.249 . S
Mg364 O365 2.028 . S
Mg364 O371 1.986 . S
Mg364 O373 2.114 . S
Mg364 O374 2.251 . S
Mg364 O377 2.010 . S
O365 Mg364 2.028 . S
O365 C368 1.250 . S
O366 Mg367 2.028 . S
O366 C368 1.248 . S
Mg367 O366 2.028 . S
Mg367 O372 2.032 . S
Mg367 O374 2.079 . S
C368 O365 1.250 . S
C368 O366 1.248 . S
C369 O370 1.264 . S
C369 O377 1.249 1_554 S
O370 C369 1.264 . S
O371 Mg364 1.986 . S
O371 C375 1.246 . S
O372 Mg367 2.032 . S
O372 C375 1.259 . S
O373 Mg364 2.114 . S
O373 C376 1.252 . S
O374 Mg364 2.251 . S
O374 Mg367 2.079 . S
O374 C376 1.273 . S
C375 O371 1.246 . S
C375 O372 1.259 . S
C376 O373 1.252 . S
C376 O374 1.273 . S
O377 Mg364 2.010 . S
O377 C369 1.249 1_556 S
Mg378 O379 2.028 . S
Mg378 O385 1.986 . S
Mg378 O387 2.114 . S
Mg378 O388 2.251 . S
Mg378 O391 2.010 . S
O379 Mg378 2.028 . S
O379 C382 1.250 . S
O380 Mg381 2.028 . S
O380 C382 1.248 . S
Mg381 O380 2.028 . S
Mg381 O386 2.032 . S
Mg381 O388 2.079 . S
C382 O379 1.250 . S
C382 O380 1.248 . S
C383 O384 1.264 . S
C383 O391 1.249 . S
O384 C383 1.264 . S
O385 Mg378 1.986 . S
O385 C389 1.246 . S
O386 Mg381 2.032 . S
O386 C389 1.259 . S
O387 Mg378 2.114 . S
O387 C390 1.252 . S
O388 Mg378 2.251 . S
O388 Mg381 2.079 . S
O388 C390 1.273 . S
C389 O385 1.246 . S
C389 O386 1.259 . S
C390 O387 1.252 . S
C390 O388 1.273 . S
O391 Mg378 2.010 . S
O391 C383 1.249 . S
Mg392 O393 2.028 . S
Mg392 O399 1.986 . S
Mg392 O401 2.114 . S
Mg392 O402 2.251 . S
Mg392 O405 2.010 . S
O393 Mg392 2.028 . S
O393 C396 1.250 . S
O394 Mg395 2.028 . S
O394 C396 1.248 . S
Mg395 O394 2.028 . S
Mg395 O400 2.032 . S
Mg395 O402 2.079 . S
C396 O393 1.250 . S
C396 O394 1.248 . S
C397 O398 1.264 . S
C397 O405 1.249 . S
O398 C397 1.264 . S
O399 Mg392 1.986 . S
O399 C403 1.246 . S
O400 Mg395 2.032 . S
O400 C403 1.259 . S
O401 Mg392 2.114 . S
O401 C404 1.252 . S
O402 Mg392 2.251 . S
O402 Mg395 2.079 . S
O402 C404 1.273 . S
C403 O399 1.246 . S
C403 O400 1.259 . S
C404 O401 1.252 . S
C404 O402 1.273 . S
O405 Mg392 2.010 . S
O405 C397 1.249 . S
Mg406 O407 2.028 . S
Mg406 O413 1.986 . S
Mg406 O415 2.114 . S
Mg406 O416 2.251 . S
Mg406 O419 2.010 . S
O407 Mg406 2.028 . S
O407 C410 1.250 . S
O408 Mg409 2.028 . S
O408 C410 1.248 . S
Mg409 O408 2.028 . S
Mg409 O414 2.032 . S
Mg409 O416 2.079 . S
C410 O407 1.250 . S
C410 O408 1.248 . S
C411 O412 1.264 . S
C411 O419 1.249 . S
O412 C411 1.264 . S
O413 Mg406 1.986 . S
O413 C417 1.246 . S
O414 Mg409 2.032 . S
O414 C417 1.259 . S
O415 Mg406 2.114 . S
O415 C418 1.252 . S
O416 Mg406 2.251 . S
O416 Mg409 2.079 . S
O416 C418 1.273 . S
C417 O413 1.246 . S
C417 O414 1.259 . S
C418 O415 1.252 . S
C418 O416 1.273 . S
O419 Mg406 2.010 . S
O419 C411 1.249 . S
Mg420 O421 2.028 . S
Mg420 O427 1.986 . S
Mg420 O429 2.114 . S
Mg420 O430 2.251 . S
Mg420 O433 2.010 . S
O421 Mg420 2.028 . S
O421 C424 1.250 . S
O422 Mg423 2.028 . S
O422 C424 1.248 . S
Mg423 O422 2.028 . S
Mg423 O428 2.032 . S
Mg423 O430 2.079 . S
C424 O421 1.250 . S
C424 O422 1.248 . S
C425 O426 1.264 . S
C425 O433 1.249 1_556 S
O426 C425 1.264 . S
O427 Mg420 1.986 . S
O427 C431 1.246 . S
O428 Mg423 2.032 . S
O428 C431 1.259 . S
O429 Mg420 2.114 . S
O429 C432 1.252 . S
O430 Mg420 2.251 . S
O430 Mg423 2.079 . S
O430 C432 1.273 . S
C431 O427 1.246 . S
C431 O428 1.259 . S
C432 O429 1.252 . S
C432 O430 1.273 . S
O433 Mg420 2.010 . S
O433 C425 1.249 1_554 S
Mg434 O435 2.028 . S
Mg434 O441 1.986 . S
Mg434 O443 2.114 . S
Mg434 O444 2.251 . S
Mg434 O447 2.010 . S
O435 Mg434 2.028 . S
O435 C438 1.250 1_556 S
O436 Mg437 2.028 . S
O436 C438 1.248 . S
Mg437 O436 2.028 . S
Mg437 O442 2.032 . S
Mg437 O444 2.079 1_554 S
C438 O435 1.250 1_554 S
C438 O436 1.248 . S
C439 O440 1.264 . S
C439 O447 1.249 . S
O440 C439 1.264 . S
O441 Mg434 1.986 . S
O441 C445 1.246 . S
O442 Mg437 2.032 . S
O442 C445 1.259 1_554 S
O443 Mg434 2.114 . S
O443 C446 1.252 . S
O444 Mg434 2.251 . S
O444 Mg437 2.079 1_556 S
O444 C446 1.273 . S
C445 O441 1.246 . S
C445 O442 1.259 1_556 S
C446 O443 1.252 . S
C446 O444 1.273 . S
O447 Mg434 2.010 . S
O447 C439 1.249 . S
C448 C449 1.369 . S
C448 C450 1.419 . S
C448 H452 0.930 . S
C449 C448 1.369 . S
C449 C458 1.429 . S
C450 C448 1.419 . S
C450 C451 1.363 . S
C450 H453 0.929 . S
C451 C450 1.363 . S
C451 C457 1.428 . S
H452 C448 0.930 . S
H453 C450 0.929 . S
S454 N455 1.613 . S
S454 N456 1.610 . S
N455 S454 1.613 . S
N455 C458 1.350 . S
N456 S454 1.610 . S
N456 C457 1.351 . S
C457 C451 1.428 . S
C457 N456 1.351 . S
C457 C458 1.434 . S
C458 C449 1.429 . S
C458 N455 1.350 . S
C458 C457 1.434 . S
C459 C460 1.369 . S
C459 C461 1.419 1_565 S
C459 H463 0.930 . S
C460 C459 1.369 . S
C460 C469 1.429 . S
C461 C459 1.419 1_545 S
C461 C462 1.363 . S
C461 H464 0.929 . S
C462 C461 1.363 . S
C462 C468 1.428 . S
H463 C459 0.930 . S
H464 C461 0.929 . S
S465 N466 1.613 . S
S465 N467 1.610 1_565 S
N466 S465 1.613 . S
N466 C469 1.350 . S
N467 S465 1.610 1_545 S
N467 C468 1.351 . S
C468 C462 1.428 . S
C468 N467 1.351 . S
C468 C469 1.434 1_545 S
C469 C460 1.429 . S
C469 N466 1.350 . S
C469 C468 1.434 1_565 S
C470 C471 1.369 . S
C470 C472 1.419 . S
C470 H474 0.930 . S
C471 C470 1.369 . S
C471 C480 1.429 . S
C472 C470 1.419 . S
C472 C473 1.363 . S
C472 H475 0.929 . S
C473 C472 1.363 . S
C473 C479 1.428 . S
H474 C470 0.930 . S
H475 C472 0.929 . S
S476 N477 1.613 . S
S476 N478 1.610 . S
N477 S476 1.613 . S
N477 C480 1.350 . S
N478 S476 1.610 . S
N478 C479 1.351 . S
C479 C473 1.428 . S
C479 N478 1.351 . S
C479 C480 1.434 . S
C480 C471 1.429 . S
C480 N477 1.350 . S
C480 C479 1.434 . S
C481 C482 1.369 1_554 S
C481 C483 1.419 1_545 S
C481 H485 0.930 . S
C482 C481 1.369 1_556 S
C482 C491 1.429 . S
C483 C481 1.419 1_565 S
C483 C484 1.363 . S
C483 H486 0.929 . S
C484 C483 1.363 . S
C484 C490 1.428 1_554 S
H485 C481 0.930 . S
H486 C483 0.929 . S
S487 N488 1.613 1_565 S
S487 N489 1.610 . S
N488 S487 1.613 1_545 S
N488 C491 1.350 . S
N489 S487 1.610 . S
N489 C490 1.351 . S
C490 C484 1.428 1_556 S
C490 N489 1.351 . S
C490 C491 1.434 1_565 S
C491 C482 1.429 . S
C491 N488 1.350 . S
C491 C490 1.434 1_545 S
C492 C493 1.369 . S
C492 C494 1.419 . S
C492 H496 0.930 . S
C493 C492 1.369 . S
C493 C502 1.429 . S
C494 C492 1.419 . S
C494 C495 1.363 . S
C494 H497 0.929 . S
C495 C494 1.363 . S
C495 C501 1.428 . S
H496 C492 0.930 . S
H497 C494 0.929 . S
S498 N499 1.613 . S
S498 N500 1.610 . S
N499 S498 1.613 . S
N499 C502 1.350 . S
N500 S498 1.610 . S
N500 C501 1.351 . S
C501 C495 1.428 . S
C501 N500 1.351 . S
C501 C502 1.434 . S
C502 C493 1.429 . S
C502 N499 1.350 . S
C502 C501 1.434 . S
C503 C504 1.369 . S
C503 C505 1.419 1_565 S
C503 H507 0.930 . S
C504 C503 1.369 . S
C504 C513 1.429 . S
C505 C503 1.419 1_545 S
C505 C506 1.363 . S
C505 H508 0.929 . S
C506 C505 1.363 . S
C506 C512 1.428 . S
H507 C503 0.930 . S
H508 C505 0.929 . S
S509 N510 1.613 1_545 S
S509 N511 1.610 . S
N510 S509 1.613 1_565 S
N510 C513 1.350 . S
N511 S509 1.610 . S
N511 C512 1.351 . S
C512 C506 1.428 . S
C512 N511 1.351 . S
C512 C513 1.434 1_545 S
C513 C504 1.429 . S
C513 N510 1.350 . S
C513 C512 1.434 1_565 S
C514 C515 1.369 . S
C514 C516 1.419 . S
C514 H518 0.930 . S
C515 C514 1.369 . S
C515 C524 1.429 . S
C516 C514 1.419 . S
C516 C517 1.363 . S
C516 H519 0.929 . S
C517 C516 1.363 . S
C517 C523 1.428 . S
H518 C514 0.930 . S
H519 C516 0.929 . S
S520 N521 1.613 . S
S520 N522 1.610 . S
N521 S520 1.613 . S
N521 C524 1.350 . S
N522 S520 1.610 . S
N522 C523 1.351 . S
C523 C517 1.428 . S
C523 N522 1.351 . S
C523 C524 1.434 . S
C524 C515 1.429 . S
C524 N521 1.350 . S
C524 C523 1.434 . S
C525 C526 1.369 1_554 S
C525 C527 1.419 1_545 S
C525 H529 0.930 . S
C526 C525 1.369 1_556 S
C526 C535 1.429 . S
C527 C525 1.419 1_565 S
C527 C528 1.363 . S
C527 H530 0.929 . S
C528 C527 1.363 . S
C528 C534 1.428 1_554 S
H529 C525 0.930 . S
H530 C527 0.929 . S
S531 N532 1.613 1_565 S
S531 N533 1.610 . S
N532 S531 1.613 1_545 S
N532 C535 1.350 . S
N533 S531 1.610 . S
N533 C534 1.351 . S
C534 C528 1.428 1_556 S
C534 N533 1.351 . S
C534 C535 1.434 1_565 S
C535 C526 1.429 . S
C535 N532 1.350 . S
C535 C534 1.434 1_545 S
C536 C537 1.369 . S
C536 C538 1.419 . S
C536 H540 0.930 . S
C537 C536 1.369 . S
C537 C546 1.429 . S
C538 C536 1.419 . S
C538 C539 1.363 . S
C538 H541 0.929 . S
C539 C538 1.363 . S
C539 C545 1.428 . S
H540 C536 0.930 . S
H541 C538 0.929 . S
S542 N543 1.613 . S
S542 N544 1.610 . S
N543 S542 1.613 . S
N543 C546 1.350 . S
N544 S542 1.610 . S
N544 C545 1.351 . S
C545 C539 1.428 . S
C545 N544 1.351 . S
C545 C546 1.434 . S
C546 C537 1.429 . S
C546 N543 1.350 . S
C546 C545 1.434 . S
C547 C548 1.369 1_554 S
C547 C549 1.419 . S
C547 H551 0.930 . S
C548 C547 1.369 1_556 S
C548 C557 1.429 . S
C549 C547 1.419 . S
C549 C550 1.363 . S
C549 H552 0.929 . S
C550 C549 1.363 . S
C550 C556 1.428 1_554 S
H551 C547 0.930 . S
H552 C549 0.929 . S
S553 N554 1.613 . S
S553 N555 1.610 . S
N554 S553 1.613 . S
N554 C557 1.350 . S
N555 S553 1.610 . S
N555 C556 1.351 . S
C556 C550 1.428 1_556 S
C556 N555 1.351 . S
C556 C557 1.434 . S
C557 C548 1.429 . S
C557 N554 1.350 . S
C557 C556 1.434 . S
C558 C559 1.369 . S
C558 C560 1.419 . S
C558 H562 0.930 . S
C559 C558 1.369 . S
C559 C568 1.429 . S
C560 C558 1.419 . S
C560 C561 1.363 . S
C560 H563 0.929 . S
C561 C560 1.363 . S
C561 C567 1.428 . S
H562 C558 0.930 . S
H563 C560 0.929 . S
S564 N565 1.613 . S
S564 N566 1.610 . S
N565 S564 1.613 . S
N565 C568 1.350 . S
N566 S564 1.610 . S
N566 C567 1.351 . S
C567 C561 1.428 . S
C567 N566 1.351 . S
C567 C568 1.434 . S
C568 C559 1.429 . S
C568 N565 1.350 . S
C568 C567 1.434 . S
C569 C570 1.369 . S
C569 C571 1.419 . S
C569 H573 0.930 . S
C570 C569 1.369 . S
C570 C579 1.429 . S
C571 C569 1.419 . S
C571 C572 1.363 . S
C571 H574 0.929 . S
C572 C571 1.363 . S
C572 C578 1.428 . S
H573 C569 0.930 . S
H574 C571 0.929 . S
S575 N576 1.613 . S
S575 N577 1.610 . S
N576 S575 1.613 . S
N576 C579 1.350 . S
N577 S575 1.610 . S
N577 C578 1.351 . S
C578 C572 1.428 . S
C578 N577 1.351 . S
C578 C579 1.434 . S
C579 C570 1.429 . S
C579 N576 1.350 . S
C579 C578 1.434 . S
C580 C581 1.369 . S
C580 C582 1.419 . S
C580 H584 0.930 . S
C581 C580 1.369 . S
C581 C590 1.429 . S
C582 C580 1.419 . S
C582 C583 1.363 . S
C582 H585 0.929 . S
C583 C582 1.363 . S
C583 C589 1.428 . S
H584 C580 0.930 . S
H585 C582 0.929 . S
S586 N587 1.613 . S
S586 N588 1.610 . S
N587 S586 1.613 . S
N587 C590 1.350 . S
N588 S586 1.610 . S
N588 C589 1.351 . S
C589 C583 1.428 . S
C589 N588 1.351 . S
C589 C590 1.434 . S
C590 C581 1.429 . S
C590 N587 1.350 . S
C590 C589 1.434 . S
C591 C592 1.369 . S
C591 C593 1.419 . S
C591 H595 0.930 . S
C592 C591 1.369 . S
C592 C601 1.429 1_554 S
C593 C591 1.419 . S
C593 C594 1.363 1_554 S
C593 H596 0.929 . S
C594 C593 1.363 1_556 S
C594 C600 1.428 . S
H595 C591 0.930 . S
H596 C593 0.929 . S
S597 N598 1.613 . S
S597 N599 1.610 . S
N598 S597 1.613 . S
N598 C601 1.350 . S
N599 S597 1.610 . S
N599 C600 1.351 . S
C600 C594 1.428 . S
C600 N599 1.351 . S
C600 C601 1.434 . S
C601 C592 1.429 1_556 S
C601 N598 1.350 . S
C601 C600 1.434 . S
C602 C603 1.369 . S
C602 C604 1.419 . S
C602 H606 0.930 . S
C603 C602 1.369 . S
C603 C612 1.429 . S
C604 C602 1.419 . S
C604 C605 1.363 . S
C604 H607 0.929 . S
C605 C604 1.363 . S
C605 C611 1.428 . S
H606 C602 0.930 . S
H607 C604 0.929 . S
S608 N609 1.613 . S
S608 N610 1.610 . S
N609 S608 1.613 . S
N609 C612 1.350 . S
N610 S608 1.610 . S
N610 C611 1.351 . S
C611 C605 1.428 . S
C611 N610 1.351 . S
C611 C612 1.434 . S
C612 C603 1.429 . S
C612 N609 1.350 . S
C612 C611 1.434 . S
C613 C614 1.369 . S
C613 C615 1.419 . S
C613 H617 0.930 . S
C614 C613 1.369 . S
C614 C623 1.429 . S
C615 C613 1.419 . S
C615 C616 1.363 . S
C615 H618 0.929 . S
C616 C615 1.363 . S
C616 C622 1.428 . S
H617 C613 0.930 . S
H618 C615 0.929 . S
S619 N620 1.613 . S
S619 N621 1.610 . S
N620 S619 1.613 . S
N620 C623 1.350 . S
N621 S619 1.610 . S
N621 C622 1.351 . S
C622 C616 1.428 . S
C622 N621 1.351 . S
C622 C623 1.434 . S
C623 C614 1.429 . S
C623 N620 1.350 . S
C623 C622 1.434 . S
C624 C625 1.369 . S
C624 C626 1.419 . S
C624 H628 0.930 . S
C625 C624 1.369 . S
C625 C634 1.429 . S
C626 C624 1.419 . S
C626 C627 1.363 . S
C626 H629 0.929 . S
C627 C626 1.363 . S
C627 C633 1.428 . S
H628 C624 0.930 . S
H629 C626 0.929 . S
S630 N631 1.613 . S
S630 N632 1.610 . S
N631 S630 1.613 . S
N631 C634 1.350 . S
N632 S630 1.610 . S
N632 C633 1.351 . S
C633 C627 1.428 . S
C633 N632 1.351 . S
C633 C634 1.434 . S
C634 C625 1.429 . S
C634 N631 1.350 . S
C634 C633 1.434 . S
C635 C636 1.369 . S
C635 C637 1.419 . S
C635 H639 0.930 . S
C636 C635 1.369 . S
C636 C645 1.429 . S
C637 C635 1.419 . S
C637 C638 1.363 . S
C637 H640 0.929 . S
C638 C637 1.363 . S
C638 C644 1.428 . S
H639 C635 0.930 . S
H640 C637 0.929 . S
S641 N642 1.613 . S
S641 N643 1.610 . S
N642 S641 1.613 . S
N642 C645 1.350 . S
N643 S641 1.610 . S
N643 C644 1.351 . S
C644 C638 1.428 . S
C644 N643 1.351 . S
C644 C645 1.434 . S
C645 C636 1.429 . S
C645 N642 1.350 . S
C645 C644 1.434 . S
C646 C647 1.369 . S
C646 C648 1.419 . S
C646 H650 0.930 . S
C647 C646 1.369 . S
C647 C656 1.429 . S
C648 C646 1.419 . S
C648 C649 1.363 . S
C648 H651 0.929 . S
C649 C648 1.363 . S
C649 C655 1.428 . S
H650 C646 0.930 . S
H651 C648 0.929 . S
S652 N653 1.613 . S
S652 N654 1.610 . S
N653 S652 1.613 . S
N653 C656 1.350 . S
N654 S652 1.610 . S
N654 C655 1.351 . S
C655 C649 1.428 . S
C655 N654 1.351 . S
C655 C656 1.434 . S
C656 C647 1.429 . S
C656 N653 1.350 . S
C656 C655 1.434 . S
C657 C658 1.369 . S
C657 C659 1.419 . S
C657 H661 0.930 . S
C658 C657 1.369 . S
C658 C667 1.429 . S
C659 C657 1.419 . S
C659 C660 1.363 . S
C659 H662 0.929 . S
C660 C659 1.363 . S
C660 C666 1.428 . S
H661 C657 0.930 . S
H662 C659 0.929 . S
S663 N664 1.613 . S
S663 N665 1.610 . S
N664 S663 1.613 . S
N664 C667 1.350 . S
N665 S663 1.610 . S
N665 C666 1.351 . S
C666 C660 1.428 . S
C666 N665 1.351 . S
C666 C667 1.434 . S
C667 C658 1.429 . S
C667 N664 1.350 . S
C667 C666 1.434 . S
C668 C669 1.369 . S
C668 C670 1.419 . S
C668 H672 0.930 . S
C669 C668 1.369 . S
C669 C678 1.429 . S
C670 C668 1.419 . S
C670 C671 1.363 . S
C670 H673 0.929 . S
C671 C670 1.363 . S
C671 C677 1.428 . S
H672 C668 0.930 . S
H673 C670 0.929 . S
S674 N675 1.613 . S
S674 N676 1.610 . S
N675 S674 1.613 . S
N675 C678 1.350 . S
N676 S674 1.610 . S
N676 C677 1.351 . S
C677 C671 1.428 . S
C677 N676 1.351 . S
C677 C678 1.434 . S
C678 C669 1.429 . S
C678 N675 1.350 . S
C678 C677 1.434 . S
C679 C680 1.369 . S
C679 C681 1.419 . S
C679 H683 0.930 . S
C680 C679 1.369 . S
C680 C689 1.429 . S
C681 C679 1.419 . S
C681 C682 1.363 . S
C681 H684 0.929 . S
C682 C681 1.363 . S
C682 C688 1.428 . S
H683 C679 0.930 . S
H684 C681 0.929 . S
S685 N686 1.613 . S
S685 N687 1.610 . S
N686 S685 1.613 . S
N686 C689 1.350 . S
N687 S685 1.610 . S
N687 C688 1.351 . S
C688 C682 1.428 . S
C688 N687 1.351 . S
C688 C689 1.434 . S
C689 C680 1.429 . S
C689 N686 1.350 . S
C689 C688 1.434 . S
C690 C691 1.369 . S
C690 C692 1.419 . S
C690 H694 0.930 . S
C691 C690 1.369 . S
C691 C700 1.429 . S
C692 C690 1.419 . S
C692 C693 1.363 . S
C692 H695 0.929 . S
C693 C692 1.363 . S
C693 C699 1.428 . S
H694 C690 0.930 . S
H695 C692 0.929 . S
S696 N697 1.613 . S
S696 N698 1.610 . S
N697 S696 1.613 . S
N697 C700 1.350 . S
N698 S696 1.610 . S
N698 C699 1.351 . S
C699 C693 1.428 . S
C699 N698 1.351 . S
C699 C700 1.434 . S
C700 C691 1.429 . S
C700 N697 1.350 . S
C700 C699 1.434 . S
C701 C702 1.369 . S
C701 C703 1.419 . S
C701 H705 0.930 . S
C702 C701 1.369 . S
C702 C711 1.429 . S
C703 C701 1.419 . S
C703 C704 1.363 . S
C703 H706 0.929 . S
C704 C703 1.363 . S
C704 C710 1.428 . S
H705 C701 0.930 . S
H706 C703 0.929 . S
S707 N708 1.613 . S
S707 N709 1.610 . S
N708 S707 1.613 . S
N708 C711 1.350 . S
N709 S707 1.610 . S
N709 C710 1.351 . S
C710 C704 1.428 . S
C710 N709 1.351 . S
C710 C711 1.434 . S
C711 C702 1.429 . S
C711 N708 1.350 . S
C711 C710 1.434 . S
C712 C713 1.369 . S
C712 C714 1.419 . S
C712 H716 0.930 . S
C713 C712 1.369 . S
C713 C722 1.429 . S
C714 C712 1.419 . S
C714 C715 1.363 . S
C714 H717 0.929 . S
C715 C714 1.363 . S
C715 C721 1.428 . S
H716 C712 0.930 . S
H717 C714 0.929 . S
S718 N719 1.613 . S
S718 N720 1.610 . S
N719 S718 1.613 . S
N719 C722 1.350 . S
N720 S718 1.610 . S
N720 C721 1.351 . S
C721 C715 1.428 . S
C721 N720 1.351 . S
C721 C722 1.434 . S
C722 C713 1.429 . S
C722 N719 1.350 . S
C722 C721 1.434 . S
C723 C724 1.369 . S
C723 C725 1.419 . S
C723 H727 0.930 . S
C724 C723 1.369 . S
C724 C733 1.429 . S
C725 C723 1.419 . S
C725 C726 1.363 . S
C725 H728 0.929 . S
C726 C725 1.363 . S
C726 C732 1.428 . S
H727 C723 0.930 . S
H728 C725 0.929 . S
S729 N730 1.613 . S
S729 N731 1.610 . S
N730 S729 1.613 . S
N730 C733 1.350 . S
N731 S729 1.610 . S
N731 C732 1.351 . S
C732 C726 1.428 . S
C732 N731 1.351 . S
C732 C733 1.434 . S
C733 C724 1.429 . S
C733 N730 1.350 . S
C733 C732 1.434 . S
C734 C735 1.369 . S
C734 C736 1.419 . S
C734 H738 0.930 . S
C735 C734 1.369 . S
C735 C744 1.429 . S
C736 C734 1.419 . S
C736 C737 1.363 . S
C736 H739 0.929 . S
C737 C736 1.363 . S
C737 C743 1.428 . S
H738 C734 0.930 . S
H739 C736 0.929 . S
S740 N741 1.613 . S
S740 N742 1.610 . S
N741 S740 1.613 . S
N741 C744 1.350 . S
N742 S740 1.610 . S
N742 C743 1.351 . S
C743 C737 1.428 . S
C743 N742 1.351 . S
C743 C744 1.434 . S
C744 C735 1.429 . S
C744 N741 1.350 . S
C744 C743 1.434 . S
C745 C746 1.369 . S
C745 C747 1.419 . S
C745 H749 0.930 . S
C746 C745 1.369 . S
C746 C755 1.429 . S
C747 C745 1.419 . S
C747 C748 1.363 . S
C747 H750 0.929 . S
C748 C747 1.363 . S
C748 C754 1.428 . S
H749 C745 0.930 . S
H750 C747 0.929 . S
S751 N752 1.613 . S
S751 N753 1.610 . S
N752 S751 1.613 . S
N752 C755 1.350 . S
N753 S751 1.610 . S
N753 C754 1.351 . S
C754 C748 1.428 . S
C754 N753 1.351 . S
C754 C755 1.434 . S
C755 C746 1.429 . S
C755 N752 1.350 . S
C755 C754 1.434 . S
C756 C757 1.369 . S
C756 C758 1.419 . S
C756 H760 0.930 . S
C757 C756 1.369 . S
C757 C766 1.429 . S
C758 C756 1.419 . S
C758 C759 1.363 . S
C758 H761 0.929 . S
C759 C758 1.363 . S
C759 C765 1.428 . S
H760 C756 0.930 . S
H761 C758 0.929 . S
S762 N763 1.613 . S
S762 N764 1.610 . S
N763 S762 1.613 . S
N763 C766 1.350 . S
N764 S762 1.610 . S
N764 C765 1.351 . S
C765 C759 1.428 . S
C765 N764 1.351 . S
C765 C766 1.434 . S
C766 C757 1.429 . S
C766 N763 1.350 . S
C766 C765 1.434 . S
C767 C768 1.369 . S
C767 C769 1.419 . S
C767 H771 0.930 . S
C768 C767 1.369 . S
C768 C777 1.429 . S
C769 C767 1.419 . S
C769 C770 1.363 . S
C769 H772 0.929 . S
C770 C769 1.363 . S
C770 C776 1.428 . S
H771 C767 0.930 . S
H772 C769 0.929 . S
S773 N774 1.613 . S
S773 N775 1.610 . S
N774 S773 1.613 . S
N774 C777 1.350 . S
N775 S773 1.610 . S
N775 C776 1.351 . S
C776 C770 1.428 . S
C776 N775 1.351 . S
C776 C777 1.434 . S
C777 C768 1.429 . S
C777 N774 1.350 . S
C777 C776 1.434 . S
C778 C779 1.369 . S
C778 C780 1.419 . S
C778 H782 0.930 . S
C779 C778 1.369 . S
C779 C788 1.429 . S
C780 C778 1.419 . S
C780 C781 1.363 . S
C780 H783 0.929 . S
C781 C780 1.363 . S
C781 C787 1.428 . S
H782 C778 0.930 . S
H783 C780 0.929 . S
S784 N785 1.613 . S
S784 N786 1.610 . S
N785 S784 1.613 . S
N785 C788 1.350 . S
N786 S784 1.610 . S
N786 C787 1.351 . S
C787 C781 1.428 . S
C787 N786 1.351 . S
C787 C788 1.434 . S
C788 C779 1.429 . S
C788 N785 1.350 . S
C788 C787 1.434 . S
C789 C790 1.369 . S
C789 C791 1.419 . S
C789 H793 0.930 . S
C790 C789 1.369 . S
C790 C799 1.429 . S
C791 C789 1.419 . S
C791 C792 1.363 . S
C791 H794 0.929 . S
C792 C791 1.363 . S
C792 C798 1.428 . S
H793 C789 0.930 . S
H794 C791 0.929 . S
S795 N796 1.613 . S
S795 N797 1.610 . S
N796 S795 1.613 . S
N796 C799 1.350 . S
N797 S795 1.610 . S
N797 C798 1.351 . S
C798 C792 1.428 . S
C798 N797 1.351 . S
C798 C799 1.434 . S
C799 C790 1.429 . S
C799 N796 1.350 . S
C799 C798 1.434 . S
C800 C801 1.369 . S
C800 C802 1.419 . S
C800 H804 0.930 . S
C801 C800 1.369 . S
C801 C810 1.429 . S
C802 C800 1.419 . S
C802 C803 1.363 . S
C802 H805 0.929 . S
C803 C802 1.363 . S
C803 C809 1.428 . S
H804 C800 0.930 . S
H805 C802 0.929 . S
S806 N807 1.613 1_556 S
S806 N808 1.610 1_556 S
N807 S806 1.613 1_554 S
N807 C810 1.350 . S
N808 S806 1.610 1_554 S
N808 C809 1.351 . S
C809 C803 1.428 . S
C809 N808 1.351 . S
C809 C810 1.434 . S
C810 C801 1.429 . S
C810 N807 1.350 . S
C810 C809 1.434 . S
C811 C812 1.369 . S
C811 C813 1.419 1_655 S
C811 H815 0.930 . S
C812 C811 1.369 . S
C812 C821 1.429 . S
C813 C811 1.419 1_455 S
C813 C814 1.363 . S
C813 H816 0.929 . S
C814 C813 1.363 . S
C814 C820 1.428 . S
H815 C811 0.930 . S
H816 C813 0.929 . S
S817 N818 1.617 1_455 S
S817 N819 1.606 . S
N818 S817 1.617 1_655 S
N818 C821 1.350 . S
N819 S817 1.606 . S
N819 C820 1.351 . S
C820 C814 1.428 . S
C820 N819 1.351 . S
C820 C821 1.434 1_455 S
C821 C812 1.429 . S
C821 N818 1.350 . S
C821 C820 1.434 1_655 S
C822 C823 1.369 . S
C822 C824 1.419 . S
C822 H826 0.930 . S
C823 C822 1.369 . S
C823 C832 1.429 . S
C824 C822 1.419 . S
C824 C825 1.363 . S
C824 H827 0.929 . S
C825 C824 1.363 . S
C825 C831 1.428 . S
H826 C822 0.930 . S
H827 C824 0.929 . S
S828 N829 1.613 . S
S828 N830 1.610 . S
N829 S828 1.613 . S
N829 C832 1.350 . S
N830 S828 1.610 . S
N830 C831 1.351 . S
C831 C825 1.428 . S
C831 N830 1.351 . S
C831 C832 1.434 . S
C832 C823 1.429 . S
C832 N829 1.350 . S
C832 C831 1.434 . S
C833 C834 1.369 . S
C833 C835 1.419 . S
C833 H837 0.930 1_556 S
C834 C833 1.369 . S
C834 C843 1.429 . S
C835 C833 1.419 . S
C835 C836 1.363 . S
C835 H838 0.929 1_556 S
C836 C835 1.363 . S
C836 C842 1.428 . S
H837 C833 0.930 1_554 S
H838 C835 0.929 1_554 S
S839 N840 1.613 . S
S839 N841 1.610 . S
N840 S839 1.613 . S
N840 C843 1.350 . S
N841 S839 1.610 . S
N841 C842 1.351 . S
C842 C836 1.428 . S
C842 N841 1.351 . S
C842 C843 1.434 . S
C843 C834 1.429 . S
C843 N840 1.350 . S
C843 C842 1.434 . S
C844 C845 1.369 . S
C844 C846 1.419 . S
C844 H848 0.930 . S
C845 C844 1.369 . S
C845 C854 1.429 . S
C846 C844 1.419 . S
C846 C847 1.363 . S
C846 H849 0.929 . S
C847 C846 1.363 . S
C847 C853 1.428 . S
H848 C844 0.930 . S
H849 C846 0.929 . S
S850 N851 1.613 . S
S850 N852 1.610 . S
N851 S850 1.613 . S
N851 C854 1.350 . S
N852 S850 1.610 . S
N852 C853 1.351 . S
C853 C847 1.428 . S
C853 N852 1.351 . S
C853 C854 1.434 . S
C854 C845 1.429 . S
C854 N851 1.350 . S
C854 C853 1.434 . S
C855 C856 1.369 . S
C855 C857 1.419 . S
C855 H859 0.930 1_554 S
C856 C855 1.369 . S
C856 C865 1.429 . S
C857 C855 1.419 . S
C857 C858 1.363 . S
C857 H860 0.929 1_554 S
C858 C857 1.363 . S
C858 C864 1.428 . S
H859 C855 0.930 1_556 S
H860 C857 0.929 1_556 S
S861 N862 1.613 . S
S861 N863 1.610 . S
N862 S861 1.613 . S
N862 C865 1.350 . S
N863 S861 1.610 . S
N863 C864 1.351 . S
C864 C858 1.428 . S
C864 N863 1.351 . S
C864 C865 1.434 . S
C865 C856 1.429 . S
C865 N862 1.350 . S
C865 C864 1.434 . S
C866 C867 1.369 . S
C866 C868 1.419 . S
C866 H870 0.930 . S
C867 C866 1.369 . S
C867 C876 1.429 . S
C868 C866 1.419 . S
C868 C869 1.363 . S
C868 H871 0.929 . S
C869 C868 1.363 . S
C869 C875 1.428 . S
H870 C866 0.930 . S
H871 C868 0.929 . S
S872 N873 1.613 . S
S872 N874 1.610 . S
N873 S872 1.613 . S
N873 C876 1.350 . S
N874 S872 1.610 . S
N874 C875 1.351 . S
C875 C869 1.428 . S
C875 N874 1.351 . S
C875 C876 1.434 . S
C876 C867 1.429 . S
C876 N873 1.350 . S
C876 C875 1.434 . S
C877 C878 1.369 . S
C877 C879 1.419 1_655 S
C877 H881 0.930 . S
C878 C877 1.369 . S
C878 C887 1.429 . S
C879 C877 1.419 1_455 S
C879 C880 1.363 . S
C879 H882 0.929 . S
C880 C879 1.363 . S
C880 C886 1.428 . S
H881 C877 0.930 . S
H882 C879 0.929 . S
S883 N884 1.617 1_455 S
S883 N885 1.606 . S
N884 S883 1.617 1_655 S
N884 C887 1.350 . S
N885 S883 1.606 . S
N885 C886 1.351 . S
C886 C880 1.428 . S
C886 N885 1.351 . S
C886 C887 1.434 1_455 S
C887 C878 1.429 . S
C887 N884 1.350 . S
C887 C886 1.434 1_655 S
C888 C889 1.369 . S
C888 C890 1.419 . S
C888 H892 0.930 . S
C889 C888 1.369 . S
C889 C898 1.429 . S
C890 C888 1.419 . S
C890 C891 1.363 . S
C890 H893 0.929 . S
C891 C890 1.363 . S
C891 C897 1.428 . S
H892 C888 0.930 . S
H893 C890 0.929 . S
S894 N895 1.613 . S
S894 N896 1.610 . S
N895 S894 1.613 . S
N895 C898 1.350 . S
N896 S894 1.610 . S
N896 C897 1.351 . S
C897 C891 1.428 . S
C897 N896 1.351 . S
C897 C898 1.434 . S
C898 C889 1.429 . S
C898 N895 1.350 . S
C898 C897 1.434 . S
C899 C900 1.369 . S
C899 C901 1.419 . S
C899 H903 0.930 . S
C900 C899 1.369 . S
C900 C909 1.429 . S
C901 C899 1.419 . S
C901 C902 1.363 . S
C901 H904 0.929 . S
C902 C901 1.363 . S
C902 C908 1.428 . S
H903 C899 0.930 . S
H904 C901 0.929 . S
S905 N906 1.613 . S
S905 N907 1.610 . S
N906 S905 1.613 . S
N906 C909 1.350 . S
N907 S905 1.610 . S
N907 C908 1.351 . S
C908 C902 1.428 . S
C908 N907 1.351 . S
C908 C909 1.434 . S
C909 C900 1.429 . S
C909 N906 1.350 . S
C909 C908 1.434 . S
C910 C911 1.369 . S
C910 C912 1.419 . S
C910 H914 0.930 . S
C911 C910 1.369 . S
C911 C920 1.429 . S
C912 C910 1.419 . S
C912 C913 1.363 . S
C912 H915 0.929 . S
C913 C912 1.363 . S
C913 C919 1.428 . S
H914 C910 0.930 . S
H915 C912 0.929 . S
S916 N917 1.613 1_556 S
S916 N918 1.610 1_556 S
N917 S916 1.613 1_554 S
N917 C920 1.350 . S
N918 S916 1.610 1_554 S
N918 C919 1.351 . S
C919 C913 1.428 . S
C919 N918 1.351 . S
C919 C920 1.434 . S
C920 C911 1.429 . S
C920 N917 1.350 . S
C920 C919 1.434 . S
C921 C922 1.369 . S
C921 C923 1.419 . S
C921 H925 0.930 . S
C922 C921 1.369 . S
C922 C931 1.429 . S
C923 C921 1.419 . S
C923 C924 1.363 . S
C923 H926 0.929 . S
C924 C923 1.363 . S
C924 C930 1.428 . S
H925 C921 0.930 . S
H926 C923 0.929 . S
S927 N928 1.613 . S
S927 N929 1.610 . S
N928 S927 1.613 . S
N928 C931 1.350 . S
N929 S927 1.610 . S
N929 C930 1.351 . S
C930 C924 1.428 . S
C930 N929 1.351 . S
C930 C931 1.434 . S
C931 C922 1.429 . S
C931 N928 1.350 . S
C931 C930 1.434 . S
C932 C933 1.369 . S
C932 C934 1.419 . S
C932 H936 0.930 . S
C933 C932 1.369 . S
C933 C942 1.429 . S
C934 C932 1.419 . S
C934 C935 1.363 . S
C934 H937 0.929 . S
C935 C934 1.363 . S
C935 C941 1.428 . S
H936 C932 0.930 . S
H937 C934 0.929 . S
S938 N939 1.613 . S
S938 N940 1.610 . S
N939 S938 1.613 . S
N939 C942 1.350 . S
N940 S938 1.610 . S
N940 C941 1.351 . S
C941 C935 1.428 . S
C941 N940 1.351 . S
C941 C942 1.434 . S
C942 C933 1.429 . S
C942 N939 1.350 . S
C942 C941 1.434 . S
C943 C944 1.369 . S
C943 C945 1.419 1_655 S
C943 H947 0.930 . S
C944 C943 1.369 . S
C944 C953 1.429 . S
C945 C943 1.419 1_455 S
C945 C946 1.363 . S
C945 H948 0.929 . S
C946 C945 1.363 . S
C946 C952 1.428 . S
H947 C943 0.930 . S
H948 C945 0.929 . S
S949 N950 1.617 1_455 S
S949 N951 1.606 . S
N950 S949 1.617 1_655 S
N950 C953 1.350 . S
N951 S949 1.606 . S
N951 C952 1.351 . S
C952 C946 1.428 . S
C952 N951 1.351 . S
C952 C953 1.434 1_455 S
C953 C944 1.429 . S
C953 N950 1.350 . S
C953 C952 1.434 1_655 S
C954 C955 1.369 . S
C954 C956 1.419 1_655 S
C954 H958 0.930 . S
C955 C954 1.369 . S
C955 C964 1.429 . S
C956 C954 1.419 1_455 S
C956 C957 1.363 . S
C956 H959 0.929 . S
C957 C956 1.363 . S
C957 C963 1.428 . S
H958 C954 0.930 . S
H959 C956 0.929 . S
S960 N961 1.617 1_455 S
S960 N962 1.606 . S
N961 S960 1.617 1_655 S
N961 C964 1.350 . S
N962 S960 1.606 . S
N962 C963 1.351 . S
C963 C957 1.428 . S
C963 N962 1.351 . S
C963 C964 1.434 1_455 S
C964 C955 1.429 . S
C964 N961 1.350 . S
C964 C963 1.434 1_655 S
C965 C966 1.369 . S
C965 C967 1.419 . S
C965 H969 0.930 . S
C966 C965 1.369 . S
C966 C975 1.429 . S
C967 C965 1.419 . S
C967 C968 1.363 . S
C967 H970 0.929 . S
C968 C967 1.363 . S
C968 C974 1.428 . S
H969 C965 0.930 . S
H970 C967 0.929 . S
S971 N972 1.613 . S
S971 N973 1.610 . S
N972 S971 1.613 . S
N972 C975 1.350 . S
N973 S971 1.610 . S
N973 C974 1.351 . S
C974 C968 1.428 . S
C974 N973 1.351 . S
C974 C975 1.434 . S
C975 C966 1.429 . S
C975 N972 1.350 . S
C975 C974 1.434 . S
C976 C977 1.369 . S
C976 C978 1.419 . S
C976 H980 0.930 . S
C977 C976 1.369 . S
C977 C986 1.429 . S
C978 C976 1.419 . S
C978 C979 1.363 . S
C978 H981 0.929 . S
C979 C978 1.363 . S
C979 C985 1.428 . S
H980 C976 0.930 . S
H981 C978 0.929 . S
S982 N983 1.613 . S
S982 N984 1.610 . S
N983 S982 1.613 . S
N983 C986 1.350 . S
N984 S982 1.610 . S
N984 C985 1.351 . S
C985 C979 1.428 . S
C985 N984 1.351 . S
C985 C986 1.434 . S
C986 C977 1.429 . S
C986 N983 1.350 . S
C986 C985 1.434 . S
C987 C988 1.369 . S
C987 C989 1.419 . S
C987 H991 0.930 . S
C988 C987 1.369 . S
C988 C997 1.429 . S
C989 C987 1.419 . S
C989 C990 1.363 . S
C989 H992 0.929 . S
C990 C989 1.363 . S
C990 C996 1.428 . S
H991 C987 0.930 . S
H992 C989 0.929 . S
S993 N994 1.613 . S
S993 N995 1.610 . S
N994 S993 1.613 . S
N994 C997 1.350 . S
N995 S993 1.610 . S
N995 C996 1.351 . S
C996 C990 1.428 . S
C996 N995 1.351 . S
C996 C997 1.434 . S
C997 C988 1.429 . S
C997 N994 1.350 . S
C997 C996 1.434 . S
C998 C999 1.369 . S
C998 C1000 1.419 . S
C998 H1002 0.930 . S
C999 C998 1.369 . S
C999 C1008 1.429 . S
C1000 C998 1.419 . S
C1000 C1001 1.363 . S
C1000 H1003 0.929 . S
C1001 C1000 1.363 . S
C1001 C1007 1.428 . S
H1002 C998 0.930 . S
H1003 C1000 0.929 . S
S1004 N1005 1.613 . S
S1004 N1006 1.610 . S
N1005 S1004 1.613 . S
N1005 C1008 1.350 . S
N1006 S1004 1.610 . S
N1006 C1007 1.351 . S
C1007 C1001 1.428 . S
C1007 N1006 1.351 . S
C1007 C1008 1.434 . S
C1008 C999 1.429 . S
C1008 N1005 1.350 . S
C1008 C1007 1.434 . S
C1009 C1010 1.369 . S
C1009 C1011 1.419 . S
C1009 H1013 0.930 . S
C1010 C1009 1.369 . S
C1010 C1019 1.429 . S
C1011 C1009 1.419 . S
C1011 C1012 1.363 . S
C1011 H1014 0.929 . S
C1012 C1011 1.363 . S
C1012 C1018 1.428 . S
H1013 C1009 0.930 . S
H1014 C1011 0.929 . S
S1015 N1016 1.613 . S
S1015 N1017 1.610 . S
N1016 S1015 1.613 . S
N1016 C1019 1.350 . S
N1017 S1015 1.610 . S
N1017 C1018 1.351 . S
C1018 C1012 1.428 . S
C1018 N1017 1.351 . S
C1018 C1019 1.434 . S
C1019 C1010 1.429 . S
C1019 N1016 1.350 . S
C1019 C1018 1.434 . S
C1020 C1021 1.369 . S
C1020 C1022 1.419 . S
C1020 H1024 0.930 . S
C1021 C1020 1.369 . S
C1021 C1030 1.429 . S
C1022 C1020 1.419 . S
C1022 C1023 1.363 . S
C1022 H1025 0.929 . S
C1023 C1022 1.363 . S
C1023 C1029 1.428 . S
H1024 C1020 0.930 . S
H1025 C1022 0.929 . S
S1026 N1027 1.613 . S
S1026 N1028 1.610 . S
N1027 S1026 1.613 . S
N1027 C1030 1.350 . S
N1028 S1026 1.610 . S
N1028 C1029 1.351 . S
C1029 C1023 1.428 . S
C1029 N1028 1.351 . S
C1029 C1030 1.434 . S
C1030 C1021 1.429 . S
C1030 N1027 1.350 . S
C1030 C1029 1.434 . S
C1031 C1032 1.369 . S
C1031 C1033 1.419 . S
C1031 H1035 0.930 . S
C1032 C1031 1.369 . S
C1032 C1041 1.429 . S
C1033 C1031 1.419 . S
C1033 C1034 1.363 . S
C1033 H1036 0.929 . S
C1034 C1033 1.363 . S
C1034 C1040 1.428 . S
H1035 C1031 0.930 . S
H1036 C1033 0.929 . S
S1037 N1038 1.613 . S
S1037 N1039 1.610 . S
N1038 S1037 1.613 . S
N1038 C1041 1.350 . S
N1039 S1037 1.610 . S
N1039 C1040 1.351 . S
C1040 C1034 1.428 . S
C1040 N1039 1.351 . S
C1040 C1041 1.434 . S
C1041 C1032 1.429 . S
C1041 N1038 1.350 . S
C1041 C1040 1.434 . S
C1042 C1043 1.369 . S
C1042 C1044 1.419 . S
C1042 H1046 0.930 . S
C1043 C1042 1.369 . S
C1043 C1052 1.429 . S
C1044 C1042 1.419 . S
C1044 C1045 1.363 . S
C1044 H1047 0.929 . S
C1045 C1044 1.363 . S
C1045 C1051 1.428 . S
H1046 C1042 0.930 . S
H1047 C1044 0.929 . S
S1048 N1049 1.613 . S
S1048 N1050 1.610 . S
N1049 S1048 1.613 . S
N1049 C1052 1.350 . S
N1050 S1048 1.610 . S
N1050 C1051 1.351 . S
C1051 C1045 1.428 . S
C1051 N1050 1.351 . S
C1051 C1052 1.434 . S
C1052 C1043 1.429 . S
C1052 N1049 1.350 . S
C1052 C1051 1.434 . S
C1053 C1054 1.369 . S
C1053 C1055 1.419 . S
C1053 H1057 0.930 . S
C1054 C1053 1.369 . S
C1054 C1063 1.429 . S
C1055 C1053 1.419 . S
C1055 C1056 1.363 . S
C1055 H1058 0.929 . S
C1056 C1055 1.363 . S
C1056 C1062 1.428 . S
H1057 C1053 0.930 . S
H1058 C1055 0.929 . S
S1059 N1060 1.613 . S
S1059 N1061 1.610 . S
N1060 S1059 1.613 . S
N1060 C1063 1.350 . S
N1061 S1059 1.610 . S
N1061 C1062 1.351 . S
C1062 C1056 1.428 . S
C1062 N1061 1.351 . S
C1062 C1063 1.434 . S
C1063 C1054 1.429 . S
C1063 N1060 1.350 . S
C1063 C1062 1.434 . S
C1064 C1065 1.369 . S
C1064 C1066 1.419 . S
C1064 H1068 0.930 . S
C1065 C1064 1.369 . S
C1065 C1074 1.429 . S
C1066 C1064 1.419 . S
C1066 C1067 1.363 . S
C1066 H1069 0.929 . S
C1067 C1066 1.363 . S
C1067 C1073 1.428 . S
H1068 C1064 0.930 . S
H1069 C1066 0.929 . S
S1070 N1071 1.613 . S
S1070 N1072 1.610 . S
N1071 S1070 1.613 . S
N1071 C1074 1.350 . S
N1072 S1070 1.610 . S
N1072 C1073 1.351 . S
C1073 C1067 1.428 . S
C1073 N1072 1.351 . S
C1073 C1074 1.434 . S
C1074 C1065 1.429 . S
C1074 N1071 1.350 . S
C1074 C1073 1.434 . S
C1075 C1076 1.369 . S
C1075 C1077 1.419 . S
C1075 H1079 0.930 . S
C1076 C1075 1.369 . S
C1076 C1085 1.429 . S
C1077 C1075 1.419 . S
C1077 C1078 1.363 . S
C1077 H1080 0.929 . S
C1078 C1077 1.363 . S
C1078 C1084 1.428 . S
H1079 C1075 0.930 . S
H1080 C1077 0.929 . S
S1081 N1082 1.613 . S
S1081 N1083 1.610 . S
N1082 S1081 1.613 . S
N1082 C1085 1.350 . S
N1083 S1081 1.610 . S
N1083 C1084 1.351 . S
C1084 C1078 1.428 . S
C1084 N1083 1.351 . S
C1084 C1085 1.434 . S
C1085 C1076 1.429 . S
C1085 N1082 1.350 . S
C1085 C1084 1.434 . S
C1086 C1087 1.369 . S
C1086 C1088 1.419 . S
C1086 H1090 0.930 . S
C1087 C1086 1.369 . S
C1087 C1096 1.429 . S
C1088 C1086 1.419 . S
C1088 C1089 1.363 . S
C1088 H1091 0.929 . S
C1089 C1088 1.363 . S
C1089 C1095 1.428 . S
H1090 C1086 0.930 . S
H1091 C1088 0.929 . S
S1092 N1093 1.613 . S
S1092 N1094 1.610 . S
N1093 S1092 1.613 . S
N1093 C1096 1.350 . S
N1094 S1092 1.610 . S
N1094 C1095 1.351 . S
C1095 C1089 1.428 . S
C1095 N1094 1.351 . S
C1095 C1096 1.434 . S
C1096 C1087 1.429 . S
C1096 N1093 1.350 . S
C1096 C1095 1.434 . S
C1097 C1098 1.369 . S
C1097 C1099 1.419 . S
C1097 H1101 0.930 . S
C1098 C1097 1.369 . S
C1098 C1107 1.429 . S
C1099 C1097 1.419 . S
C1099 C1100 1.363 . S
C1099 H1102 0.929 . S
C1100 C1099 1.363 . S
C1100 C1106 1.428 . S
H1101 C1097 0.930 . S
H1102 C1099 0.929 . S
S1103 N1104 1.613 . S
S1103 N1105 1.610 . S
N1104 S1103 1.613 . S
N1104 C1107 1.350 . S
N1105 S1103 1.610 . S
N1105 C1106 1.351 . S
C1106 C1100 1.428 . S
C1106 N1105 1.351 . S
C1106 C1107 1.434 . S
C1107 C1098 1.429 . S
C1107 N1104 1.350 . S
C1107 C1106 1.434 . S
C1108 C1109 1.369 . S
C1108 C1110 1.419 . S
C1108 H1112 0.930 . S
C1109 C1108 1.369 . S
C1109 C1118 1.429 . S
C1110 C1108 1.419 . S
C1110 C1111 1.363 . S
C1110 H1113 0.929 . S
C1111 C1110 1.363 . S
C1111 C1117 1.428 . S
H1112 C1108 0.930 . S
H1113 C1110 0.929 . S
S1114 N1115 1.604 1_556 S
S1114 N1116 1.612 . S
N1115 S1114 1.604 1_554 S
N1115 C1118 1.350 . S
N1116 S1114 1.612 . S
N1116 C1117 1.351 1_556 S
C1117 C1111 1.428 . S
C1117 N1116 1.351 1_554 S
C1117 C1118 1.434 . S
C1118 C1109 1.429 . S
C1118 N1115 1.350 . S
C1118 C1117 1.434 . S
C1119 C1120 1.369 . S
C1119 C1121 1.419 . S
C1119 H1123 0.930 . S
C1120 C1119 1.369 . S
C1120 C1129 1.429 . S
C1121 C1119 1.419 . S
C1121 C1122 1.363 . S
C1121 H1124 0.929 . S
C1122 C1121 1.363 . S
C1122 C1128 1.428 . S
H1123 C1119 0.930 . S
H1124 C1121 0.929 . S
S1125 N1126 1.613 1_556 S
S1125 N1127 1.610 . S
N1126 S1125 1.613 1_554 S
N1126 C1129 1.350 1_554 S
N1127 S1125 1.610 . S
N1127 C1128 1.351 . S
C1128 C1122 1.428 . S
C1128 N1127 1.351 . S
C1128 C1129 1.434 . S
C1129 C1120 1.429 . S
C1129 N1126 1.350 1_556 S
C1129 C1128 1.434 . S
C1130 C1131 1.369 . S
C1130 C1132 1.419 . S
C1130 H1134 0.930 . S
C1131 C1130 1.369 . S
C1131 C1140 1.429 . S
C1132 C1130 1.419 . S
C1132 C1133 1.363 . S
C1132 H1135 0.929 . S
C1133 C1132 1.363 . S
C1133 C1139 1.428 . S
H1134 C1130 0.930 . S
H1135 C1132 0.929 . S
S1136 N1137 1.613 . S
S1136 N1138 1.610 . S
N1137 S1136 1.613 . S
N1137 C1140 1.350 . S
N1138 S1136 1.610 . S
N1138 C1139 1.351 . S
C1139 C1133 1.428 . S
C1139 N1138 1.351 . S
C1139 C1140 1.434 . S
C1140 C1131 1.429 . S
C1140 N1137 1.350 . S
C1140 C1139 1.434 . S
C1141 C1142 1.369 . S
C1141 C1143 1.419 . S
C1141 H1145 0.930 . S
C1142 C1141 1.369 . S
C1142 C1151 1.429 . S
C1143 C1141 1.419 . S
C1143 C1144 1.363 . S
C1143 H1146 0.929 . S
C1144 C1143 1.363 . S
C1144 C1150 1.428 . S
H1145 C1141 0.930 . S
H1146 C1143 0.929 . S
S1147 N1148 1.613 . S
S1147 N1149 1.610 . S
N1148 S1147 1.613 . S
N1148 C1151 1.350 . S
N1149 S1147 1.610 . S
N1149 C1150 1.351 . S
C1150 C1144 1.428 . S
C1150 N1149 1.351 . S
C1150 C1151 1.434 . S
C1151 C1142 1.429 . S
C1151 N1148 1.350 . S
C1151 C1150 1.434 . S
C449 C96 1.474 . S
C451 C12 1.473 . S
C460 C26 1.473 . S
C462 C110 1.473 . S
C471 C68 1.474 . S
C473 C40 1.475 . S
C482 C54 1.474 . S
C484 C82 1.473 . S
C493 C124 1.474 . S
C495 C208 1.475 . S
C504 C222 1.473 . S
C506 C138 1.472 . S
C515 C152 1.473 . S
C517 C180 1.473 . S
C526 C194 1.475 . S
C528 C166 1.474 . S
C537 C236 1.473 . S
C539 C320 1.475 . S
C548 C250 1.474 . S
C550 C334 1.473 . S
C559 C292 1.472 . S
C561 C264 1.473 . S
C570 C306 1.472 . S
C572 C278 1.474 . S
C581 C348 1.472 . S
C583 C432 1.474 . S
C592 C362 1.473 . S
C594 C446 1.474 . S
C603 C404 1.475 . S
C605 C376 1.473 . S
C614 C390 1.475 . S
C616 C418 1.474 . S
C625 C5 1.226 . S
C627 C103 1.235 . S
C636 C61 1.233 . S
C638 C19 1.227 . S
C647 C75 1.228 . S
C649 C33 1.230 . S
C658 C47 1.223 . S
C660 C89 1.235 . S
C669 C117 1.232 . S
C671 C215 1.229 . S
C680 C173 1.230 . S
C682 C131 1.231 . S
C691 C187 1.239 . S
C693 C145 1.224 . S
C702 C201 1.224 . S
C704 C159 1.235 . S
C713 C229 1.232 . S
C715 C327 1.228 . S
C724 C243 1.236 . S
C726 C285 1.227 . S
C735 C299 1.221 . S
C737 C257 1.237 . S
C746 C271 1.235 . S
C748 C313 1.228 . S
C757 C341 1.221 . S
C759 C439 1.238 . S
C768 C397 1.221 . S
C770 C355 1.238 . S
C779 C369 1.220 . S
C781 C411 1.238 . S
C790 C383 1.235 . S
C792 C425 1.226 . S
C801 C431 1.491 . S
C803 C11 1.490 . S
C812 C221 1.490 . S
C814 C25 1.490 . S
C823 C39 1.491 . S
C825 C403 1.490 . S
C834 C53 1.487 . S
C836 C193 1.487 . S
C845 C67 1.484 . S
C847 C375 1.485 . S
C856 C81 1.488 . S
C858 C165 1.489 . S
C867 C95 1.486 . S
C869 C347 1.486 . S
C878 C137 1.484 . S
C880 C109 1.485 . S
C889 C319 1.485 . S
C891 C123 1.486 . S
C900 C151 1.486 . S
C902 C291 1.486 . S
C911 C263 1.490 . S
C913 C179 1.490 . S
C922 C235 1.490 . S
C924 C207 1.489 . S
C933 C249 1.485 . S
C935 C445 1.486 . S
C944 C277 1.487 . S
C946 C417 1.487 . S
C955 C305 1.487 . S
C957 C389 1.487 . S
C966 C361 1.486 . S
C968 C333 1.486 . S
C977 C4 1.156 . S
C979 C102 1.147 . S
C988 C18 1.148 . S
C990 C60 1.153 . S
C999 C74 1.149 . S
C1001 C32 1.152 . S
C1010 C46 1.145 . S
C1012 C88 1.155 . S
C1021 C214 1.149 . S
C1023 C116 1.151 . S
C1032 C172 1.150 . S
C1034 C130 1.150 . S
C1043 C144 1.149 . S
C1045 C186 1.153 . S
C1054 C200 1.153 . S
C1056 C158 1.148 . S
C1065 C326 1.146 . S
C1067 C228 1.154 . S
C1076 C284 1.155 . S
C1078 C242 1.147 . S
C1087 C298 1.152 . S
C1089 C256 1.150 . S
C1098 C312 1.145 . S
C1100 C270 1.155 . S
C1109 C340 1.146 . S
C1111 C438 1.155 . S
C1120 C354 1.153 . S
C1122 C396 1.148 . S
C1131 C368 1.146 . S
C1133 C410 1.155 . S
C1142 C424 1.153 . S
C1144 C382 1.148 . S
