# Generated by pormake.
# Topology srs-a, (3)-cn, num edge types: 1
# Building blocks:
#     Node 0, Type 0, BuildingBlock: OLANEW_clean_sbu_2, # of connection points: 3
#     Node 1, Type 0, BuildingBlock: OLANEW_clean_sbu_2, # of connection points: 3
#     Node 2, Type 0, BuildingBlock: OLANEW_clean_sbu_2, # of connection points: 3
#     Node 3, Type 0, BuildingBlock: OLANEW_clean_sbu_2, # of connection points: 3
#     Node 4, Type 0, BuildingBlock: OLANEW_clean_sbu_2, # of connection points: 3
#     Node 5, Type 0, BuildingBlock: OLANEW_clean_sbu_2, # of connection points: 3
#     Node 6, Type 0, BuildingBlock: OLANEW_clean_sbu_2, # of connection points: 3
#     Node 7, Type 0, BuildingBlock: OLANEW_clean_sbu_2, # of connection points: 3
#     Node 8, Type 0, BuildingBlock: OLANEW_clean_sbu_2, # of connection points: 3
#     Node 9, Type 0, BuildingBlock: OLANEW_clean_sbu_2, # of connection points: 3
#     Node 10, Type 0, BuildingBlock: OLANEW_clean_sbu_2, # of connection points: 3
#     Node 11, Type 0, BuildingBlock: OLANEW_clean_sbu_2, # of connection points: 3
#     Node 12, Type 0, BuildingBlock: OLANEW_clean_sbu_2, # of connection points: 3
#     Node 13, Type 0, BuildingBlock: OLANEW_clean_sbu_2, # of connection points: 3
#     Node 14, Type 0, BuildingBlock: OLANEW_clean_sbu_2, # of connection points: 3
#     Node 15, Type 0, BuildingBlock: OLANEW_clean_sbu_2, # of connection points: 3
#     Node 16, Type 0, BuildingBlock: OLANEW_clean_sbu_2, # of connection points: 3
#     Node 17, Type 0, BuildingBlock: OLANEW_clean_sbu_2, # of connection points: 3
#     Node 18, Type 0, BuildingBlock: OLANEW_clean_sbu_2, # of connection points: 3
#     Node 19, Type 0, BuildingBlock: OLANEW_clean_sbu_2, # of connection points: 3
#     Node 20, Type 0, BuildingBlock: OLANEW_clean_sbu_2, # of connection points: 3
#     Node 21, Type 0, BuildingBlock: OLANEW_clean_sbu_2, # of connection points: 3
#     Node 22, Type 0, BuildingBlock: OLANEW_clean_sbu_2, # of connection points: 3
#     Node 23, Type 0, BuildingBlock: OLANEW_clean_sbu_2, # of connection points: 3
#     Edge 24, Type (0, 0), BuildingBlock: EZIPEK_clean_linker_0, # of connection points: 2
#     Edge 25, Type (0, 0), BuildingBlock: EZIPEK_clean_linker_0, # of connection points: 2
#     Edge 26, Type (0, 0), BuildingBlock: EZIPEK_clean_linker_0, # of connection points: 2
#     Edge 27, Type (0, 0), BuildingBlock: EZIPEK_clean_linker_0, # of connection points: 2
#     Edge 28, Type (0, 0), BuildingBlock: EZIPEK_clean_linker_0, # of connection points: 2
#     Edge 29, Type (0, 0), BuildingBlock: EZIPEK_clean_linker_0, # of connection points: 2
#     Edge 30, Type (0, 0), BuildingBlock: EZIPEK_clean_linker_0, # of connection points: 2
#     Edge 31, Type (0, 0), BuildingBlock: EZIPEK_clean_linker_0, # of connection points: 2
#     Edge 32, Type (0, 0), BuildingBlock: EZIPEK_clean_linker_0, # of connection points: 2
#     Edge 33, Type (0, 0), BuildingBlock: EZIPEK_clean_linker_0, # of connection points: 2
#     Edge 34, Type (0, 0), BuildingBlock: EZIPEK_clean_linker_0, # of connection points: 2
#     Edge 35, Type (0, 0), BuildingBlock: EZIPEK_clean_linker_0, # of connection points: 2
#     Edge 36, Type (0, 0), BuildingBlock: EZIPEK_clean_linker_0, # of connection points: 2
#     Edge 37, Type (0, 0), BuildingBlock: EZIPEK_clean_linker_0, # of connection points: 2
#     Edge 38, Type (0, 0), BuildingBlock: EZIPEK_clean_linker_0, # of connection points: 2
#     Edge 39, Type (0, 0), BuildingBlock: EZIPEK_clean_linker_0, # of connection points: 2
#     Edge 40, Type (0, 0), BuildingBlock: EZIPEK_clean_linker_0, # of connection points: 2
#     Edge 41, Type (0, 0), BuildingBlock: EZIPEK_clean_linker_0, # of connection points: 2
#     Edge 42, Type (0, 0), BuildingBlock: EZIPEK_clean_linker_0, # of connection points: 2
#     Edge 43, Type (0, 0), BuildingBlock: EZIPEK_clean_linker_0, # of connection points: 2
#     Edge 44, Type (0, 0), BuildingBlock: EZIPEK_clean_linker_0, # of connection points: 2
#     Edge 45, Type (0, 0), BuildingBlock: EZIPEK_clean_linker_0, # of connection points: 2
#     Edge 46, Type (0, 0), BuildingBlock: EZIPEK_clean_linker_0, # of connection points: 2
#     Edge 47, Type (0, 0), BuildingBlock: EZIPEK_clean_linker_0, # of connection points: 2
#     Edge 48, Type (0, 0), BuildingBlock: EZIPEK_clean_linker_0, # of connection points: 2
#     Edge 49, Type (0, 0), BuildingBlock: EZIPEK_clean_linker_0, # of connection points: 2
#     Edge 50, Type (0, 0), BuildingBlock: EZIPEK_clean_linker_0, # of connection points: 2
#     Edge 51, Type (0, 0), BuildingBlock: EZIPEK_clean_linker_0, # of connection points: 2
#     Edge 52, Type (0, 0), BuildingBlock: EZIPEK_clean_linker_0, # of connection points: 2
#     Edge 53, Type (0, 0), BuildingBlock: EZIPEK_clean_linker_0, # of connection points: 2
#     Edge 54, Type (0, 0), BuildingBlock: EZIPEK_clean_linker_0, # of connection points: 2
#     Edge 55, Type (0, 0), BuildingBlock: EZIPEK_clean_linker_0, # of connection points: 2
#     Edge 56, Type (0, 0), BuildingBlock: EZIPEK_clean_linker_0, # of connection points: 2
#     Edge 57, Type (0, 0), BuildingBlock: EZIPEK_clean_linker_0, # of connection points: 2
#     Edge 58, Type (0, 0), BuildingBlock: EZIPEK_clean_linker_0, # of connection points: 2
#     Edge 59, Type (0, 0), BuildingBlock: EZIPEK_clean_linker_0, # of connection points: 2
# Relax obj value: 0.141
# Max RMSD: 0.233
# Mean RMSD: 0.192
data_MOF--net-srs-a--node1-OLANEW_clean_sbu_2--edge1-EZIPEK_clean_linker_0
_symmetry_space_group_name_H-M    P1
_symmetry_Int_Tables_number       1
_symmetry_cell_setting            triclinic
loop_
_symmetry_equiv_pos_as_xyz
'x, y, z'
_cell_length_a     62.659518
_cell_length_b     63.330993
_cell_length_c     69.592328
_cell_angle_alpha  92.202544
_cell_angle_beta   89.271907
_cell_angle_gamma 93.01065
loop_
_atom_site_label
_atom_site_type_symbol
_atom_site_fract_x
_atom_site_fract_y
_atom_site_fract_z
_atom_type_partial_charge
O0 O 0.07759 0.25203 0.20329 0.0
Cd1 Cd 0.04429 0.26627 0.2156 0.0
O2 O 0.06113 0.22759 0.18463 0.0
Cd3 Cd 0.03147 0.23138 0.20081 0.0
O4 O 0.04247 0.21271 0.22403 0.0
C5 C 0.04238 0.19283 0.22084 0.0
O6 O 0.03254 0.18442 0.20561 0.0
C7 C 0.07831 0.2371 0.19057 0.0
C8 C 0.02675 0.29409 0.19087 0.0
O9 O 0.03941 0.30099 0.20428 0.0
O10 O 0.0225 0.27412 0.18897 0.0
O11 O 0.09413 0.73754 0.34629 0.0
Cd12 Cd 0.08913 0.71286 0.31862 0.0
O13 O 0.06243 0.75079 0.34451 0.0
Cd14 Cd 0.05865 0.73882 0.31487 0.0
O15 O 0.06936 0.7588 0.29137 0.0
C16 C 0.08866 0.76583 0.2929 0.0
O17 O 0.10065 0.75844 0.30616 0.0
C18 C 0.08004 0.74951 0.35315 0.0
C19 C 0.06194 0.67801 0.32682 0.0
O20 O 0.08173 0.67862 0.33133 0.0
O21 O 0.05491 0.69392 0.31849 0.0
O22 O 0.43958 0.89696 0.63429 0.0
Cd23 Cd 0.4711 0.89636 0.61316 0.0
O24 O 0.43145 0.86276 0.63064 0.0
Cd25 Cd 0.45351 0.86009 0.60625 0.0
O26 O 0.45545 0.86856 0.57614 0.0
C27 C 0.4423 0.88245 0.57257 0.0
O28 O 0.43067 0.8903 0.58668 0.0
C29 C 0.42797 0.8807 0.63857 0.0
C30 C 0.50657 0.88354 0.63246 0.0
O31 O 0.50217 0.90308 0.6326 0.0
O32 O 0.49433 0.87001 0.62318 0.0
O33 O 0.42473 0.10684 0.86532 0.0
Cd34 Cd 0.45128 0.12526 0.8861 0.0
O35 O 0.40242 0.11943 0.88678 0.0
Cd36 Cd 0.37052 0.12188 0.89931 0.0
O37 O 0.34203 0.11888 0.91753 0.0
C38 C 0.34343 0.10745 0.93201 0.0
O39 O 0.36159 0.09887 0.93536 0.0
C40 C 0.40569 0.10849 0.87145 0.0
C41 C 0.45666 0.16811 0.87848 0.0
O42 O 0.47041 0.15499 0.87253 0.0
O43 O 0.44034 0.16091 0.8879 0.0
O44 O 0.14724 0.10524 0.22752 0.0
Cd45 Cd 0.11716 0.09147 0.24682 0.0
O46 O 0.16439 0.12127 0.25191 0.0
Cd47 Cd 0.13576 0.11767 0.26987 0.0
O48 O 0.10479 0.13089 0.2659 0.0
C49 C 0.10636 0.14999 0.26092 0.0
O50 O 0.12534 0.15978 0.26028 0.0
C51 C 0.16357 0.11569 0.23416 0.0
C52 C 0.1213 0.04888 0.25371 0.0
O53 O 0.11164 0.05451 0.23877 0.0
O54 O 0.12895 0.0633 0.26549 0.0
O55 O 0.17795 0.85772 0.38895 0.0
Cd56 Cd 0.18589 0.8397 0.41822 0.0
O57 O 0.14585 0.86657 0.39851 0.0
Cd58 Cd 0.1449 0.84353 0.42103 0.0
O59 O 0.13082 0.81296 0.41091 0.0
C60 C 0.11092 0.80852 0.41283 0.0
O61 O 0.09918 0.82126 0.42328 0.0
C62 C 0.16109 0.86746 0.38629 0.0
C63 C 0.22422 0.8559 0.43387 0.0
O64 O 0.224 0.84108 0.42082 0.0
O65 O 0.20641 0.86305 0.43968 0.0
O66 O 0.34907 0.89019 0.7019 0.0
Cd67 Cd 0.31368 0.90179 0.71102 0.0
O68 O 0.34037 0.90906 0.67784 0.0
Cd69 Cd 0.34528 0.92061 0.64896 0.0
O70 O 0.34794 0.92554 0.61824 0.0
C71 C 0.33139 0.92738 0.60818 0.0
O72 O 0.31246 0.92701 0.61651 0.0
C73 C 0.35352 0.89734 0.68545 0.0
C74 C 0.31313 0.93829 0.73485 0.0
O75 O 0.32108 0.93879 0.71783 0.0
O76 O 0.30597 0.92033 0.74076 0.0
O77 O 0.28542 0.06292 0.99286 0.0
Cd78 Cd 0.26682 0.04287 0.01794 0.0
O79 O 0.25939 0.08423 0.98823 0.0
Cd80 Cd 0.23778 0.06072 0.00154 0.0
O81 O 0.24681 0.03375 0.98344 0.0
C82 C 0.24082 0.03349 0.9661 0.0
O83 O 0.22641 0.04679 0.96163 0.0
C84 C 0.27842 0.07889 0.98489 0.0
C85 C 0.26719 0.06707 0.05207 0.0
O86 O 0.28227 0.0547 0.04799 0.0
O87 O 0.25177 0.06782 0.04026 0.0
O88 O 0.13692 0.90833 0.30448 0.0
Cd89 Cd 0.13139 0.91646 0.27089 0.0
O90 O 0.16239 0.88662 0.29706 0.0
Cd91 Cd 0.15301 0.88299 0.26701 0.0
O92 O 0.13217 0.85531 0.25926 0.0
C93 C 0.13473 0.84022 0.27039 0.0
O94 O 0.14991 0.84223 0.28327 0.0
C95 C 0.15151 0.89659 0.3096 0.0
C96 C 0.12891 0.95966 0.26586 0.0
O97 O 0.14692 0.95097 0.26465 0.0
O98 O 0.11211 0.94803 0.26952 0.0
O99 O 0.33833 0.90985 0.51577 0.0
Cd100 Cd 0.34306 0.90498 0.48106 0.0
O101 O 0.3525 0.94241 0.51775 0.0
Cd102 Cd 0.36973 0.93637 0.49078 0.0
O103 O 0.3976 0.91808 0.49608 0.0
C104 C 0.40477 0.92225 0.51288 0.0
O105 O 0.39703 0.93807 0.52303 0.0
C106 C 0.34262 0.92687 0.52555 0.0
C107 C 0.30471 0.88936 0.46499 0.0
O108 O 0.30942 0.9093 0.46603 0.0
O109 O 0.31815 0.87678 0.47125 0.0
O110 O 0.32816 0.07098 0.81585 0.0
Cd111 Cd 0.29593 0.04971 0.80709 0.0
O112 O 0.32286 0.051 0.84048 0.0
Cd113 Cd 0.32737 0.03996 0.86935 0.0
O114 O 0.31327 0.02836 0.89746 0.0
C115 C 0.29412 0.03369 0.9004 0.0
O116 O 0.3137 0.02769 0.89831 0.0
C117 C 0.3338 0.06566 0.83237 0.0
C118 C 0.30362 0.01414 0.78353 0.0
O119 O 0.29339 0.02945 0.77732 0.0
O120 O 0.31051 0.01591 0.80078 0.0
O121 O 0.24708 0.13443 0.17873 0.0
Cd122 Cd 0.27357 0.14583 0.15477 0.0
O123 O 0.22409 0.15529 0.16679 0.0
Cd124 Cd 0.19267 0.16891 0.16764 0.0
O125 O 0.16211 0.18313 0.1736 0.0
C126 C 0.15824 0.20121 0.16755 0.0
O127 O 0.17267 0.21152 0.15716 0.0
C128 C 0.22864 0.14187 0.17903 0.0
C129 C 0.271 0.12027 0.12143 0.0
O130 O 0.28294 0.11566 0.13532 0.0
O131 O 0.26026 0.13691 0.12323 0.0
O132 O 0.72853 0.3563 0.83718 0.0
Cd133 Cd 0.75037 0.33865 0.85991 0.0
O134 O 0.69992 0.34582 0.85346 0.0
Cd135 Cd 0.66516 0.34441 0.85712 0.0
O136 O 0.63026 0.34367 0.85811 0.0
C137 C 0.6199 0.32934 0.86717 0.0
O138 O 0.63031 0.31528 0.87617 0.0
C139 C 0.70836 0.35546 0.83935 0.0
C140 C 0.7686 0.36665 0.88757 0.0
O141 O 0.77813 0.36305 0.87147 0.0
O142 O 0.75038 0.35715 0.89065 0.0
O143 O 0.83565 0.39271 0.19145 0.0
Cd144 Cd 0.80315 0.39986 0.20977 0.0
O145 O 0.82264 0.407 0.16618 0.0
Cd146 Cd 0.82444 0.41646 0.13627 0.0
O147 O 0.82606 0.42796 0.10703 0.0
C148 C 0.82592 0.41484 0.09276 0.0
O149 O 0.82451 0.39446 0.09575 0.0
C150 C 0.83761 0.3977 0.17399 0.0
C151 C 0.80359 0.44039 0.22661 0.0
O152 O 0.81168 0.42523 0.23522 0.0
O153 O 0.7955 0.43657 0.20994 0.0
O154 O 0.78379 0.55859 0.46692 0.0
Cd155 Cd 0.74925 0.558 0.48368 0.0
O156 O 0.78125 0.59182 0.45935 0.0
Cd157 Cd 0.74644 0.59024 0.46302 0.0
O158 O 0.73455 0.58151 0.43437 0.0
C159 C 0.73903 0.563 0.42854 0.0
O160 O 0.7446 0.5495 0.44118 0.0
C161 C 0.79203 0.57538 0.45984 0.0
C162 C 0.75296 0.58127 0.5183 0.0
O163 O 0.75532 0.56129 0.51769 0.0
O164 O 0.74862 0.59021 0.50274 0.0
O165 O 0.83762 0.56606 0.30454 0.0
Cd166 Cd 0.80282 0.55923 0.2893 0.0
O167 O 0.83305 0.53978 0.32434 0.0
Cd168 Cd 0.79853 0.53642 0.32056 0.0
O169 O 0.77079 0.54278 0.33861 0.0
C170 C 0.7725 0.53619 0.35549 0.0
O171 O 0.7888 0.52495 0.35944 0.0
C172 C 0.84486 0.55447 0.3172 0.0
C173 C 0.80248 0.52166 0.26709 0.0
O174 O 0.80979 0.53906 0.26014 0.0
O175 O 0.79505 0.52196 0.2843 0.0
O176 O 0.64792 0.41108 0.78647 0.0
Cd177 Cd 0.62307 0.42671 0.76494 0.0
O178 O 0.63885 0.37835 0.77671 0.0
Cd179 Cd 0.61012 0.38795 0.7628 0.0
O180 O 0.57779 0.38984 0.77445 0.0
C181 C 0.57467 0.37756 0.78834 0.0
O182 O 0.59003 0.3655 0.79313 0.0
C183 C 0.65061 0.39133 0.78679 0.0
C184 C 0.63213 0.46995 0.76143 0.0
O185 O 0.61861 0.4631 0.774 0.0
O186 O 0.64142 0.4564 0.75052 0.0
O187 O 0.63175 0.81522 0.68259 0.0
Cd188 Cd 0.61569 0.84779 0.69417 0.0
O189 O 0.62344 0.80124 0.71028 0.0
Cd190 Cd 0.62576 0.77511 0.72946 0.0
O191 O 0.63577 0.74704 0.7432 0.0
C192 C 0.62292 0.73395 0.75137 0.0
O193 O 0.60237 0.73707 0.75192 0.0
C194 C 0.63202 0.79976 0.69367 0.0
C195 C 0.58013 0.85813 0.67362 0.0
O196 O 0.59899 0.8645 0.66839 0.0
O197 O 0.57802 0.84664 0.68836 0.0
O198 O 0.51788 0.30776 0.85701 0.0
Cd199 Cd 0.47924 0.30068 0.85891 0.0
O200 O 0.51655 0.33613 0.87623 0.0
Cd201 Cd 0.48315 0.33917 0.86868 0.0
O202 O 0.49607 0.35004 0.84139 0.0
C203 C 0.50326 0.36911 0.84067 0.0
O204 O 0.49888 0.38258 0.85482 0.0
C205 C 0.52737 0.32251 0.86706 0.0
C206 C 0.47028 0.25774 0.86458 0.0
O207 O 0.47649 0.2704 0.87843 0.0
O208 O 0.46795 0.26544 0.84802 0.0
O209 O 0.93117 0.38665 0.13317 0.0
Cd210 Cd 0.96448 0.37673 0.11738 0.0
O211 O 0.91245 0.36026 0.11884 0.0
Cd212 Cd 0.93767 0.35455 0.09765 0.0
O213 O 0.9443 0.36689 0.06926 0.0
C214 C 0.92718 0.36965 0.06035 0.0
O215 O 0.90877 0.36408 0.0684 0.0
C216 C 0.91365 0.37578 0.13099 0.0
C217 C 0.98612 0.35033 0.14068 0.0
O218 O 0.99031 0.37036 0.14137 0.0
O219 O 0.97198 0.34269 0.12882 0.0
O220 O 0.94632 0.56583 0.33815 0.0
Cd221 Cd 0.98212 0.56785 0.35188 0.0
O222 O 0.9317 0.57283 0.3664 0.0
Cd223 Cd 0.90338 0.57637 0.38478 0.0
O224 O 0.8738 0.5774 0.40176 0.0
C225 C 0.87386 0.57755 0.42003 0.0
O226 O 0.89209 0.57734 0.42911 0.0
C227 C 0.92974 0.56826 0.34854 0.0
C228 C 0.00679 0.60424 0.34329 0.0
O229 O 0.00522 0.58836 0.33131 0.0
O230 O -0.00362 0.6031 0.35922 0.0
O231 O 0.67705 0.61558 0.72602 0.0
Cd232 Cd 0.65444 0.6041 0.75299 0.0
O233 O 0.70537 0.6236 0.74388 0.0
Cd234 Cd 0.68582 0.6209 0.76991 0.0
O235 O 0.66077 0.64313 0.77487 0.0
C236 C 0.66745 0.66235 0.77399 0.0
O237 O 0.68809 0.66689 0.77277 0.0
C238 C 0.69657 0.622 0.72747 0.0
C239 C 0.6486 0.56035 0.75499 0.0
O240 O 0.66481 0.57029 0.76281 0.0
O241 O 0.63534 0.57101 0.74599 0.0
O242 O 0.82365 0.44539 0.00277 0.0
Cd243 Cd 0.83253 0.45182 0.96914 0.0
O244 O 0.85512 0.43231 0.00687 0.0
Cd245 Cd 0.86779 0.43257 0.97748 0.0
O246 O 0.8898 0.41147 0.98977 0.0
C247 C 0.90764 0.41868 -0.00365 0.0
O248 O 0.91453 0.43804 0.99255 0.0
C249 C 0.83712 0.43752 0.01358 0.0
C250 C 0.81039 0.42421 0.94351 0.0
O251 O 0.82828 0.4194 0.95042 0.0
O252 O 0.80279 0.44193 0.94882 0.0
O253 O 0.75164 0.64378 0.64942 0.0
Cd254 Cd 0.76714 0.65967 0.62067 0.0
O255 O 0.7322 0.67152 0.65251 0.0
Cd256 Cd 0.70914 0.6918 0.66704 0.0
O257 O 0.69077 0.71818 0.67837 0.0
C258 C 0.67541 0.72471 0.66883 0.0
O259 O 0.6701 0.7151 0.65239 0.0
C260 C 0.73753 0.65388 0.65861 0.0
C261 C 0.76281 0.63313 0.58808 0.0
O262 O 0.77973 0.63338 0.59825 0.0
O263 O 0.74788 0.64524 0.59331 0.0
C264 C 0.08946 0.15947 0.23056 0.0
C265 C 0.08855 0.15902 0.25089 0.0
C266 C 0.05536 0.1779 0.25129 0.0
C267 C 0.05766 0.18041 0.23117 0.0
N268 N 0.07907 0.17686 0.20213 0.0
N269 N 0.07194 0.16884 0.28106 0.0
C270 C 0.07519 0.17193 0.22087 0.0
C271 C 0.07178 0.16843 0.26142 0.0
N272 N 0.10382 0.14769 0.22046 0.0
N273 N 0.03725 0.18412 0.26057 0.0
H274 H 0.08341 0.16149 0.28882 0.0
H275 H 0.06157 0.17748 0.28969 0.0
H276 H 0.02497 0.1911 0.25353 0.0
H277 H 0.03357 0.1809 0.27482 0.0
H278 H 0.10366 0.14554 0.20555 0.0
H279 H 0.11465 0.13839 0.22705 0.0
H280 H 0.09302 0.17324 0.19469 0.0
H281 H 0.06953 0.18649 0.19447 0.0
C282 C 0.09945 0.77138 0.40196 0.0
C283 C 0.10058 0.79337 0.39871 0.0
C284 C 0.08791 0.78657 0.3658 0.0
C285 C 0.08568 0.7646 0.3693 0.0
N286 N 0.08591 0.73623 0.39134 0.0
N287 N 0.09217 0.82239 0.37906 0.0
C288 C 0.09046 0.75702 0.3876 0.0
C289 C 0.09349 0.8011 0.38115 0.0
N290 N 0.10738 0.76424 0.41858 0.0
N291 N 0.08619 0.79349 0.34752 0.0
H292 H 0.09707 0.83374 0.38955 0.0
H293 H 0.08472 0.82878 0.36749 0.0
H294 H 0.08253 0.78347 0.33567 0.0
H295 H 0.0903 0.80892 0.34369 0.0
H296 H 0.10926 0.74833 0.421 0.0
H297 H 0.11327 0.77443 0.42964 0.0
H298 H 0.08709 0.73004 0.4049 0.0
H299 H 0.07924 0.72541 0.38112 0.0
C300 C 0.3883 0.87835 0.64404 0.0
C301 C 0.40911 0.88316 0.65137 0.0
C302 C 0.39357 0.89713 0.68152 0.0
C303 C 0.37284 0.89114 0.67456 0.0
N304 N 0.35075 0.87146 0.65126 0.0
N305 N 0.4318 0.89322 0.67826 0.0
C306 C 0.37031 0.88031 0.65644 0.0
C307 C 0.41183 0.89139 0.6705 0.0
N308 N 0.38557 0.87305 0.62495 0.0
N309 N 0.39583 0.90915 0.69818 0.0
H310 H 0.44547 0.88899 0.67062 0.0
H311 H 0.43462 0.89707 0.69272 0.0
H312 H 0.38288 0.91367 0.70665 0.0
H313 H 0.41041 0.91604 0.70284 0.0
H314 H 0.37066 0.87158 0.61846 0.0
H315 H 0.39818 0.87199 0.61512 0.0
H316 H 0.34838 0.86153 0.63911 0.0
H317 H 0.33722 0.87227 0.66011 0.0
C318 C 0.30576 0.09334 0.93813 0.0
C319 C 0.32495 0.10364 0.94514 0.0
C320 C 0.31171 0.10107 0.97831 0.0
C321 C 0.29265 0.09056 0.97135 0.0
N322 N 0.26919 0.08107 0.94481 0.0
N323 N 0.34395 0.12229 0.97104 0.0
C324 C 0.28883 0.08835 0.95128 0.0
C325 C 0.32724 0.10903 0.96501 0.0
N326 N 0.30424 0.08703 0.91915 0.0
N327 N 0.31511 0.10306 -0.00231 0.0
H328 H 0.35532 0.12879 0.96157 0.0
H329 H 0.34551 0.12846 0.98506 0.0
H330 H 0.30342 0.09884 0.00785 0.0
H331 H 0.32974 0.10802 0.0037 0.0
H332 H 0.29158 0.07759 0.9135 0.0
H333 H 0.31642 0.0898 0.90909 0.0
H334 H 0.26471 0.08099 0.93046 0.0
H335 H 0.25659 0.07677 0.95397 0.0
C336 C 0.11493 0.78269 0.27021 0.0
C337 C 0.0968 0.78456 0.28242 0.0
C338 C 0.09958 0.82315 0.27989 0.0
C339 C 0.11975 0.82138 0.27069 0.0
N340 N 0.14663 0.79997 0.25618 0.0
N341 N 0.07205 0.80651 0.29976 0.0
C342 C 0.12729 0.80125 0.26534 0.0
C343 C 0.08883 0.80474 0.28714 0.0
N344 N 0.12015 0.76312 0.26329 0.0
N345 N 0.09095 0.84248 0.28211 0.0
H346 H 0.06342 0.79355 0.30526 0.0
H347 H 0.06747 0.82086 0.30587 0.0
H348 H 0.09867 0.85641 0.27753 0.0
H349 H 0.07537 0.84454 0.28691 0.0
H350 H 0.13212 0.76061 0.25308 0.0
H351 H 0.11115 0.74936 0.26658 0.0
H352 H 0.15438 0.78594 0.25388 0.0
H353 H 0.15538 0.8133 0.25144 0.0
C354 C 0.43757 0.9196 0.53196 0.0
C355 C 0.42019 0.90897 0.5222 0.0
C356 C 0.4256 0.8772 0.54028 0.0
C357 C 0.43916 0.8896 0.55288 0.0
N358 N 0.46006 0.92175 0.5602 0.0
N359 N 0.39849 0.87679 0.51574 0.0
C360 C 0.44608 0.91046 0.54834 0.0
C361 C 0.41486 0.88728 0.52552 0.0
N362 N 0.44565 0.93853 0.52552 0.0
N363 N 0.42263 0.85595 0.54278 0.0
H364 H 0.39073 0.88308 0.50433 0.0
H365 H 0.39183 0.86209 0.51947 0.0
H366 H 0.43003 0.84834 0.55372 0.0
H367 H 0.41451 0.84559 0.5331 0.0
H368 H 0.45928 0.94655 0.53104 0.0
H369 H 0.43971 0.94518 0.5133 0.0
H370 H 0.46386 0.93786 0.55909 0.0
H371 H 0.46737 0.91498 0.5717 0.0
C372 C 0.38643 0.07512 0.85881 0.0
C373 C 0.38751 0.09751 0.86113 0.0
C374 C 0.35238 0.09878 0.84623 0.0
C375 C 0.35231 0.07664 0.84219 0.0
N376 N 0.37095 0.04421 0.84153 0.0
N377 N 0.37347 0.13106 0.85397 0.0
C378 C 0.3698 0.06491 0.84763 0.0
C379 C 0.37102 0.10947 0.85398 0.0
N380 N 0.40075 0.06351 0.86795 0.0
N381 N 0.33434 0.10947 0.84347 0.0
H382 H 0.387 0.1395 0.85931 0.0
H383 H 0.36302 0.14046 0.84707 0.0
H384 H 0.3202 0.10217 0.83815 0.0
H385 H 0.33272 0.12513 0.84815 0.0
H386 H 0.39929 0.04708 0.86853 0.0
H387 H 0.413 0.07033 0.8765 0.0
H388 H 0.38442 0.03555 0.84329 0.0
H389 H 0.35923 0.03621 0.83312 0.0
C390 C 0.13309 0.21418 0.19311 0.0
C391 C 0.13811 0.21117 0.1733 0.0
C392 C 0.10528 0.22807 0.16489 0.0
C393 C 0.09919 0.22887 0.18458 0.0
N394 N 0.10533 0.21862 0.21712 0.0
N395 N 0.12754 0.2122 0.14013 0.0
C396 C 0.11257 0.22088 0.19864 0.0
C397 C 0.12385 0.21736 0.15909 0.0
N398 N 0.14817 0.2114 0.20669 0.0
N399 N 0.09366 0.23805 0.1518 0.0
H400 H 0.14078 0.20411 0.13532 0.0
H401 H 0.11654 0.21426 0.12935 0.0
H402 H 0.08008 0.24618 0.15559 0.0
H403 H 0.09854 0.23993 0.13758 0.0
H404 H 0.14608 0.21549 0.22121 0.0
H405 H 0.16363 0.20706 0.20326 0.0
H406 H 0.11345 0.21056 0.2273 0.0
H407 H 0.09018 0.22272 0.2218 0.0
C408 C 0.19195 0.10683 0.20987 0.0
C409 C 0.18107 0.12233 0.22085 0.0
C410 C 0.20351 0.15038 0.20626 0.0
C411 C 0.2126 0.13506 0.19367 0.0
N412 N 0.21279 0.09893 0.1812 0.0
N413 N 0.1735 0.15906 0.22673 0.0
C414 C 0.20616 0.1133 0.19488 0.0
C415 C 0.18606 0.14419 0.21835 0.0
N416 N 0.18914 0.08595 0.21411 0.0
N417 N 0.21197 0.17073 0.20715 0.0
H418 H 0.16024 0.15525 0.23535 0.0
H419 H 0.175 0.17504 0.22362 0.0
H420 H 0.22504 0.17584 0.19879 0.0
H421 H 0.20736 0.18201 0.21746 0.0
H422 H 0.1983 0.07418 0.20792 0.0
H423 H 0.17903 0.08064 0.22514 0.0
H424 H 0.20676 0.08329 0.1802 0.0
H425 H 0.22281 0.10304 0.16971 0.0
C426 C 0.16738 0.90174 0.34258 0.0
C427 C 0.15275 0.89076 0.32988 0.0
C428 C 0.14371 0.86471 0.35419 0.0
C429 C 0.15755 0.87624 0.36728 0.0
N430 N 0.18039 0.90698 0.3753 0.0
N431 N 0.12425 0.86415 0.32432 0.0
C432 C 0.16878 0.89516 0.36187 0.0
C433 C 0.14001 0.87301 0.33596 0.0
N434 N 0.18023 0.91808 0.33601 0.0
N435 N 0.13504 0.84522 0.35876 0.0
H436 H 0.12138 0.86935 0.3106 0.0
H437 H 0.11286 0.85275 0.32878 0.0
H438 H 0.13731 0.83842 0.37194 0.0
H439 H 0.12703 0.83492 0.34894 0.0
H440 H 0.19283 0.92537 0.34379 0.0
H441 H 0.17902 0.92365 0.32216 0.0
H442 H 0.18735 0.92193 0.37289 0.0
H443 H 0.18179 0.90242 0.38946 0.0
C444 C 0.32551 0.94388 0.5764 0.0
C445 C 0.33334 0.9272 0.58696 0.0
C446 C 0.34892 0.91191 0.55757 0.0
C447 C 0.33925 0.92724 0.54666 0.0
N448 N 0.31557 0.95592 0.54521 0.0
N449 N 0.34766 0.89252 0.58678 0.0
C450 C 0.32675 0.94274 0.55594 0.0
C451 C 0.34366 0.91039 0.57731 0.0
N452 N 0.3177 0.96116 0.58591 0.0
N453 N 0.36392 0.89939 0.54935 0.0
H454 H 0.34313 0.89029 0.60106 0.0
H455 H 0.35329 0.87898 0.57988 0.0
H456 H 0.36884 0.90038 0.53505 0.0
H457 H 0.37312 0.88963 0.55724 0.0
H458 H 0.31388 0.97478 0.57906 0.0
H459 H 0.31674 0.96265 0.60086 0.0
H460 H 0.30444 0.96605 0.55109 0.0
H461 H 0.31606 0.95544 0.53021 0.0
C462 C 0.27671 0.02471 0.95247 0.0
C463 C 0.25426 0.02422 0.95034 0.0
C464 C 0.25937 0.02209 0.91531 0.0
C465 C 0.2813 0.02846 0.91783 0.0
N466 N 0.30997 0.03929 0.93988 0.0
N467 N 0.22396 0.01758 0.92983 0.0
C468 C 0.28994 0.03041 0.93666 0.0
C469 C 0.24553 0.02112 0.9317 0.0
N470 N 0.28547 0.01946 0.96937 0.0
N471 N 0.25188 0.01681 0.89728 0.0
H472 H 0.21401 0.01457 0.94167 0.0
H473 H 0.21593 0.01789 0.91685 0.0
H474 H 0.26155 0.01738 0.88498 0.0
H475 H 0.23655 0.01037 0.89455 0.0
H476 H 0.3019 0.01855 0.9711 0.0
H477 H 0.27629 0.01291 0.98045 0.0
H478 H 0.31576 0.04278 0.95369 0.0
H479 H 0.31977 0.04565 0.92915 0.0
C480 C 0.58469 0.32874 0.88483 0.0
C481 C 0.59621 0.3281 0.86714 0.0
C482 C 0.56252 0.3263 0.84949 0.0
C483 C 0.55105 0.32451 0.86716 0.0
N484 N 0.55132 0.32036 0.90148 0.0
N485 N 0.59616 0.32244 0.83261 0.0
C486 C 0.56215 0.32478 0.88481 0.0
C487 C 0.58515 0.32589 0.84944 0.0
N488 N 0.59517 0.33393 0.9016 0.0
N489 N 0.55189 0.32918 0.83283 0.0
H490 H 0.61272 0.32155 0.8319 0.0
H491 H 0.58873 0.31844 0.81957 0.0
H492 H 0.53534 0.32992 0.83219 0.0
H493 H 0.55961 0.33299 0.81998 0.0
H494 H 0.58733 0.33685 0.91464 0.0
H495 H 0.61163 0.33734 0.90219 0.0
H496 H 0.5589 0.31808 0.91442 0.0
H497 H 0.53487 0.31697 0.90204 0.0
C498 C 0.88667 0.40216 0.14113 0.0
C499 C 0.89437 0.38155 0.14218 0.0
C500 C 0.86329 0.37094 0.16192 0.0
C501 C 0.85701 0.39219 0.16281 0.0
N502 N 0.86533 0.42894 0.15638 0.0
N503 N 0.89225 0.34749 0.15671 0.0
C504 C 0.86941 0.40809 0.15328 0.0
C505 C 0.88331 0.36624 0.15347 0.0
N506 N 0.89514 0.41581 0.12796 0.0
N507 N 0.84974 0.35505 0.16836 0.0
H508 H 0.90715 0.34363 0.15116 0.0
H509 H 0.8859 0.33671 0.16646 0.0
H510 H 0.83458 0.35764 0.17402 0.0
H511 H 0.85263 0.33907 0.16624 0.0
H512 H 0.88855 0.43015 0.12522 0.0
H513 H 0.9074 0.41194 0.1184 0.0
H514 H 0.87528 0.44126 0.15133 0.0
H515 H 0.85318 0.43403 0.16554 0.0
C516 C 0.849 0.5924 0.44527 0.0
C517 C 0.85335 0.57658 0.43093 0.0
C518 C 0.81715 0.56072 0.43487 0.0
C519 C 0.81343 0.57531 0.45043 0.0
N520 N 0.82719 0.60256 0.4728 0.0
N521 N 0.84335 0.54284 0.41537 0.0
C522 C 0.82977 0.59045 0.45633 0.0
C523 C 0.83794 0.55991 0.42668 0.0
N524 N 0.86272 0.60976 0.44775 0.0
N525 N 0.80065 0.54831 0.4272 0.0
H526 H 0.85862 0.54126 0.40951 0.0
H527 H 0.83338 0.52924 0.41347 0.0
H528 H 0.78504 0.54852 0.43245 0.0
H529 H 0.80202 0.53936 0.4144 0.0
H530 H 0.85923 0.62287 0.45651 0.0
H531 H 0.87677 0.61198 0.43973 0.0
H532 H 0.8394 0.6123 0.4789 0.0
H533 H 0.81344 0.60136 0.48139 0.0
C534 C 0.87259 0.57776 0.33456 0.0
C535 C 0.86692 0.55851 0.32431 0.0
C536 C 0.9019 0.54512 0.33114 0.0
C537 C 0.90823 0.56504 0.33995 0.0
N538 N 0.90113 0.60166 0.3468 0.0
N539 N 0.87733 0.52547 0.30962 0.0
C540 C 0.89401 0.58177 0.34074 0.0
C541 C 0.88193 0.54264 0.32165 0.0
N542 N 0.85733 0.59183 0.33915 0.0
N543 N 0.91447 0.52826 0.33262 0.0
H544 H 0.8629 0.5232 0.30231 0.0
H545 H 0.88851 0.51452 0.30549 0.0
H546 H 0.92901 0.52923 0.3398 0.0
H547 H 0.90958 0.51285 0.3283 0.0
H548 H 0.86002 0.60493 0.34848 0.0
H549 H 0.84142 0.58947 0.33503 0.0
H550 H 0.89215 0.61493 0.34574 0.0
H551 H 0.91677 0.60528 0.35127 0.0
C552 C 0.53491 0.37243 0.79383 0.0
C553 C 0.5555 0.37876 0.80088 0.0
C554 C 0.54167 0.37961 0.83388 0.0
C555 C 0.52078 0.37427 0.82688 0.0
N556 N 0.49667 0.36954 0.8002 0.0
N557 N 0.57724 0.39404 0.82671 0.0
C558 C 0.51713 0.37194 0.80681 0.0
C559 C 0.55844 0.3842 0.82062 0.0
N560 N 0.5325 0.3659 0.77501 0.0
N561 N 0.54599 0.37874 0.85305 0.0
H562 H 0.5898 0.39804 0.81731 0.0
H563 H 0.57949 0.40022 0.84067 0.0
H564 H 0.53455 0.37465 0.86341 0.0
H565 H 0.56146 0.37988 0.85845 0.0
H566 H 0.51838 0.3588 0.76952 0.0
H567 H 0.54509 0.36624 0.76507 0.0
H568 H 0.4928 0.36979 0.78571 0.0
H569 H 0.48337 0.36917 0.80939 0.0
C570 C 0.64531 0.69313 0.78305 0.0
C571 C 0.65265 0.67856 0.76881 0.0
C572 C 0.63797 0.69897 0.74333 0.0
C573 C 0.63096 0.71379 0.75754 0.0
N574 N 0.62407 0.72343 0.79077 0.0
N575 N 0.65273 0.66491 0.73597 0.0
C576 C 0.63328 0.71028 0.7774 0.0
C577 C 0.64788 0.68062 0.74911 0.0
N578 N 0.65053 0.6909 0.80186 0.0
N579 N 0.63559 0.70277 0.72427 0.0
H580 H 0.66038 0.65144 0.73961 0.0
H581 H 0.64788 0.66431 0.72171 0.0
H582 H 0.62691 0.71513 0.71951 0.0
H583 H 0.64287 0.69432 0.71311 0.0
H584 H 0.64783 0.70215 0.81279 0.0
H585 H 0.65855 0.67801 0.80647 0.0
H586 H 0.6234 0.72073 0.80542 0.0
H587 H 0.61568 0.73645 0.78706 0.0
C588 C 0.92272 0.40479 0.04687 0.0
C589 C 0.92727 0.38329 0.04363 0.0
C590 C 0.92483 0.38718 0.00884 0.0
C591 C 0.91695 0.40759 0.01232 0.0
N592 N 0.90578 0.43498 0.03494 0.0
N593 N 0.9327 0.35347 0.022 0.0
C594 C 0.91552 0.41637 0.03139 0.0
C595 C 0.92861 0.37437 0.0247 0.0
N596 N 0.9251 0.41406 0.06485 0.0
N597 N 0.92883 0.38023 0.99037 0.0
H598 H 0.93637 0.344 0.03333 0.0
H599 H 0.93149 0.34527 0.00877 0.0
H600 H 0.92622 0.38938 0.97854 0.0
H601 H 0.9363 0.36629 0.98682 0.0
H602 H 0.92413 0.43024 0.06774 0.0
H603 H 0.93012 0.40589 0.07658 0.0
H604 H 0.90211 0.4408 0.04871 0.0
H605 H 0.89961 0.44387 0.02424 0.0
C606 C 0.66564 0.7815 0.68537 0.0
C607 C 0.64308 0.78044 0.68759 0.0
C608 C 0.642 0.74231 0.67953 0.0
C609 C 0.66432 0.7438 0.67561 0.0
N610 N 0.69679 0.76548 0.67143 0.0
N611 N 0.60926 0.76073 0.68451 0.0
C612 C 0.67602 0.76357 0.67768 0.0
C613 C 0.6311 0.76106 0.68409 0.0
N614 N 0.67726 0.79943 0.69122 0.0
N615 N 0.63138 0.72289 0.6795 0.0
H616 H 0.60074 0.77411 0.68793 0.0
H617 H 0.59953 0.74769 0.68001 0.0
H618 H 0.63887 0.70881 0.67645 0.0
H619 H 0.6156 0.72049 0.68411 0.0
H620 H 0.69387 0.80032 0.69202 0.0
H621 H 0.67026 0.81292 0.69691 0.0
H622 H 0.70536 0.77996 0.67055 0.0
H623 H 0.70493 0.75286 0.6654 0.0
C624 C 0.71003 0.61611 0.69365 0.0
C625 C 0.70826 0.62966 0.71022 0.0
C626 C 0.7284 0.65794 0.69372 0.0
C627 C 0.72777 0.64535 0.67642 0.0
N628 N 0.71462 0.61362 0.65906 0.0
N629 N 0.71169 0.66507 0.72456 0.0
C630 C 0.71774 0.62468 0.67614 0.0
C631 C 0.71638 0.65102 0.70991 0.0
N632 N 0.70486 0.59495 0.69475 0.0
N633 N 0.74105 0.67619 0.69496 0.0
H634 H 0.70234 0.66097 0.73645 0.0
H635 H 0.71524 0.6813 0.72395 0.0
H636 H 0.75059 0.68158 0.68359 0.0
H637 H 0.74374 0.6848 0.70784 0.0
H638 H 0.70789 0.58396 0.68366 0.0
H639 H 0.69943 0.58808 0.70742 0.0
H640 H 0.70544 0.59945 0.65782 0.0
H641 H 0.71943 0.61953 0.64582 0.0
C642 C 0.68038 0.38094 0.83252 0.0
C643 C 0.69465 0.36566 0.82559 0.0
C644 C 0.68246 0.3701 0.7927 0.0
C645 C 0.66634 0.38321 0.80001 0.0
N646 N 0.6472 0.39761 0.82749 0.0
N647 N 0.70689 0.34302 0.79943 0.0
C648 C 0.66457 0.38777 0.82009 0.0
C649 C 0.69515 0.35956 0.80574 0.0
N650 N 0.68228 0.38936 0.85084 0.0
N651 N 0.68605 0.36816 0.77331 0.0
H652 H 0.71607 0.33455 0.80853 0.0
H653 H 0.70598 0.33642 0.7855 0.0
H654 H 0.67728 0.3759 0.76334 0.0
H655 H 0.69902 0.36057 0.76726 0.0
H656 H 0.67369 0.40209 0.85597 0.0
H657 H 0.69394 0.38507 0.86029 0.0
H658 H 0.644 0.39915 0.8422 0.0
H659 H 0.63481 0.40233 0.81905 0.0
C660 C 0.81517 0.4197 0.03949 0.0
C661 C 0.83221 0.43402 0.03414 0.0
C662 C 0.84529 0.43572 0.06725 0.0
C663 C 0.82757 0.42237 0.07284 0.0
N664 N 0.79291 0.40593 0.06533 0.0
N665 N 0.86014 0.45975 0.04371 0.0
C666 C 0.81166 0.41565 0.05926 0.0
C667 C 0.84622 0.44333 0.0483 0.0
N668 N 0.80302 0.40909 0.02568 0.0
N669 N 0.86184 0.44022 0.07962 0.0
H670 H 0.86099 0.46594 0.03002 0.0
H671 H 0.86928 0.46854 0.05387 0.0
H672 H 0.86222 0.43443 0.09343 0.0
H673 H 0.87613 0.44808 0.0756 0.0
H674 H 0.79207 0.39666 0.02867 0.0
H675 H 0.80507 0.41143 0.01102 0.0
H676 H 0.77987 0.40263 0.05636 0.0
H677 H 0.78956 0.40309 0.07975 0.0
C678 C 0.767 0.56525 0.37973 0.0
C679 C 0.76001 0.54528 0.37162 0.0
C680 C 0.73469 0.54033 0.39842 0.0
C681 C 0.74419 0.5586 0.40798 0.0
N682 N 0.7721 0.58668 0.40881 0.0
N683 N 0.73763 0.51331 0.37291 0.0
C684 C 0.7608 0.57086 0.39882 0.0
C685 C 0.7438 0.53273 0.38079 0.0
N686 N 0.78002 0.5787 0.36938 0.0
N687 N 0.71687 0.53044 0.40617 0.0
H688 H 0.7433 0.50783 0.35955 0.0
H689 H 0.72775 0.50227 0.37992 0.0
H690 H 0.70982 0.53582 0.41899 0.0
H691 H 0.70803 0.51813 0.39917 0.0
H692 H 0.78364 0.59439 0.37377 0.0
H693 H 0.78565 0.57492 0.35558 0.0
H694 H 0.78616 0.59402 0.40362 0.0
H695 H 0.7689 0.59123 0.42302 0.0
C696 C 0.00174 0.32294 0.18581 0.0
C697 C 0.01684 0.30889 0.1781 0.0
C698 C 0.0112 0.32142 0.14569 0.0
C699 C -0.00299 0.33632 0.15357 0.0
N700 N 0.98032 0.3531 0.18121 0.0
N701 N 0.03856 0.29671 0.15153 0.0
C702 C 0.99286 0.33771 0.17368 0.0
C703 C 0.02223 0.30859 0.15823 0.0
N704 N -0.00497 0.32137 0.20452 0.0
N705 N 0.01411 0.31951 0.1262 0.0
H706 H 0.04704 0.2872 0.1603 0.0
H707 H 0.04492 0.29747 0.13767 0.0
H708 H 0.00756 0.32958 0.11662 0.0
H709 H 0.02206 0.30725 0.11936 0.0
H710 H 0.98229 0.32937 0.21047 0.0
H711 H 0.00106 0.31071 0.21386 0.0
H712 H 0.97892 0.35673 0.19587 0.0
H713 H 0.97215 0.36321 0.17278 0.0
C714 C 0.02745 0.66172 0.33997 0.0
C715 C 0.04764 0.65921 0.33089 0.0
C716 C 0.04204 0.62073 0.3323 0.0
C717 C 0.02077 0.6232 0.33901 0.0
N718 N 0.99176 0.64636 0.34502 0.0
N719 N 0.07165 0.63598 0.31408 0.0
C720 C 0.01302 0.64379 0.34166 0.0
C721 C 0.05425 0.63861 0.32581 0.0
N722 N 0.02233 0.68096 0.34777 0.0
N723 N 0.05103 0.60158 0.33294 0.0
H724 H 0.08048 0.64858 0.30815 0.0
H725 H 0.07581 0.62123 0.30852 0.0
H726 H 0.04314 0.58824 0.33855 0.0
H727 H 0.06716 0.59957 0.32995 0.0
H728 H 0.00866 0.68307 0.35617 0.0
H729 H 0.03276 0.69433 0.34766 0.0
H730 H 0.98505 0.66108 0.34518 0.0
H731 H 0.98045 0.63371 0.34555 0.0
C732 C 0.55889 0.85861 0.6433 0.0
C733 C 0.56115 0.86433 0.66311 0.0
C734 C 0.52644 0.88051 0.66319 0.0
C735 C 0.52526 0.87674 0.64299 0.0
N736 N 0.542 0.86541 0.61319 0.0
N737 N 0.54906 0.88409 0.69119 0.0
C738 C 0.54192 0.86662 0.63285 0.0
C739 C 0.54544 0.87617 0.67289 0.0
N740 N 0.57247 0.84488 0.63461 0.0
N741 N 0.50911 0.88748 0.67323 0.0
H742 H 0.56292 0.88161 0.69873 0.0
H743 H 0.53925 0.89477 0.69822 0.0
H744 H 0.49476 0.89054 0.66671 0.0
H745 H 0.50824 0.88829 0.6882 0.0
H746 H 0.57021 0.83835 0.62078 0.0
H747 H 0.58493 0.83843 0.64184 0.0
H748 H 0.55489 0.86032 0.60498 0.0
H749 H 0.52999 0.8713 0.60498 0.0
C750 C 0.46701 0.19771 0.8564 0.0
C751 C 0.45965 0.19105 0.8747 0.0
C752 C 0.45541 0.22809 0.88472 0.0
C753 C 0.46611 0.23476 0.86772 0.0
N754 N 0.48695 0.22496 0.83949 0.0
N755 N 0.45216 0.20085 0.90801 0.0
C756 C 0.47328 0.21933 0.85409 0.0
C757 C 0.45531 0.20649 0.88939 0.0
N758 N 0.46726 0.18371 0.84097 0.0
N759 N 0.4446 0.24208 0.8961 0.0
H760 H 0.45349 0.18547 0.91248 0.0
H761 H 0.45082 0.21195 0.91936 0.0
H762 H 0.44298 0.25776 0.89259 0.0
H763 H 0.43507 0.23739 0.90773 0.0
H764 H 0.47076 0.18839 0.82703 0.0
H765 H 0.4615 0.16801 0.84164 0.0
H766 H 0.49401 0.21386 0.83033 0.0
H767 H 0.49328 0.24035 0.83793 0.0
C768 C 0.1189 0.99577 0.27779 0.0
C769 C 0.12749 0.98261 0.26297 0.0
C770 C 0.13459 0.01353 0.24326 0.0
C771 C 0.12376 0.02618 0.25712 0.0
N772 N 0.10246 0.02869 0.28619 0.0
N773 N 0.14014 0.97824 0.2302 0.0
C774 C 0.11509 0.01715 0.27406 0.0
C775 C 0.13448 0.99129 0.24532 0.0
N776 N 0.11512 0.98807 0.29568 0.0
N777 N 0.14566 0.02284 0.22849 0.0
H778 H 0.13994 0.96182 0.23096 0.0
H779 H 0.14311 0.98351 0.21638 0.0
H780 H 0.14648 0.03913 0.22667 0.0
H781 H 0.15573 0.01467 0.21916 0.0
H782 H 0.11103 0.99755 0.30758 0.0
H783 H 0.11805 0.97261 0.2991 0.0
H784 H 0.09381 0.02219 0.2976 0.0
H785 H 0.09903 0.04431 0.28386 0.0
C786 C 0.2499 0.86079 0.46118 0.0
C787 C 0.24467 0.86472 0.44192 0.0
C788 C 0.27943 0.8836 0.43739 0.0
C789 C 0.284 0.88103 0.45705 0.0
N790 N 0.27229 0.87052 0.4886 0.0
N791 N 0.25256 0.8827 0.41255 0.0
C792 C 0.26888 0.87051 0.46923 0.0
C793 C 0.25892 0.87692 0.43024 0.0
N794 N 0.23709 0.84718 0.47158 0.0
N795 N 0.29499 0.89167 0.42536 0.0
H796 H 0.23767 0.87806 0.40681 0.0
H797 H 0.26125 0.89353 0.40424 0.0
H798 H 0.31023 0.89669 0.43005 0.0
H799 H 0.29343 0.89176 0.41049 0.0
H800 H 0.24128 0.84178 0.48489 0.0
H801 H 0.22297 0.83987 0.46622 0.0
H802 H 0.26082 0.86517 0.49849 0.0
H803 H 0.28593 0.87759 0.49507 0.0
C804 C 0.30988 0.99639 0.75097 0.0
C805 C 0.3071 0.99483 0.77116 0.0
C806 C 0.3135 0.95709 0.76753 0.0
C807 C 0.3118 0.95795 0.74724 0.0
N808 N 0.30199 0.97882 0.72043 0.0
N809 N 0.30028 0.97139 0.79765 0.0
C810 C 0.30821 0.97771 0.73909 0.0
C811 C 0.30723 0.97454 0.77924 0.0
N812 N 0.31488 0.01542 0.74302 0.0
N813 N 0.32177 0.94012 0.77575 0.0
H814 H 0.29335 0.98301 0.80627 0.0
H815 H 0.29877 0.95638 0.80334 0.0
H816 H 0.32841 0.92781 0.76774 0.0
H817 H 0.3246 0.93977 0.79047 0.0
H818 H 0.31851 0.01676 0.72843 0.0
H819 H 0.31822 0.02929 0.75122 0.0
H820 H 0.29776 0.99295 0.71464 0.0
H821 H 0.29822 0.96555 0.71159 0.0
C822 C 0.27635 0.11521 0.0858 0.0
C823 C 0.26976 0.1067 0.10363 0.0
C824 C 0.2629 0.07176 0.08779 0.0
C825 C 0.2679 0.08068 0.06979 0.0
N826 N 0.27676 0.11122 0.051 0.0
N827 N 0.25328 0.07802 0.12131 0.0
C828 C 0.27374 0.10255 0.06859 0.0
C829 C 0.26216 0.08524 0.10458 0.0
N830 N 0.28612 0.13502 0.08542 0.0
N831 N 0.25896 0.05039 0.08883 0.0
H832 H 0.25209 0.0875 0.13382 0.0
H833 H 0.24537 0.06323 0.12239 0.0
H834 H 0.25834 0.04014 0.07674 0.0
H835 H 0.25773 0.04261 0.10174 0.0
H836 H 0.29342 0.14124 0.07321 0.0
H837 H 0.28867 0.14469 0.09774 0.0
H838 H 0.27851 0.12744 0.04907 0.0
H839 H 0.27607 0.1023 0.03808 0.0
C840 C 0.78381 0.37426 0.92049 0.0
C841 C 0.77845 0.38156 0.90222 0.0
C842 C 0.79506 0.41653 0.91067 0.0
C843 C 0.79893 0.40971 0.92945 0.0
N844 N 0.79326 0.38352 0.95353 0.0
N845 N 0.77492 0.41065 0.8813 0.0
C846 C 0.79224 0.38896 0.93475 0.0
C847 C 0.78291 0.403 0.8977 0.0
N848 N 0.78173 0.35314 0.92397 0.0
N849 N 0.8038 0.43552 0.9049 0.0
H850 H 0.76568 0.40131 0.87156 0.0
H851 H 0.77569 0.42666 0.87828 0.0
H852 H 0.81307 0.44581 0.91385 0.0
H853 H 0.80352 0.44023 0.89074 0.0
H854 H 0.78762 0.34662 0.93622 0.0
H855 H 0.77582 0.3418 0.91387 0.0
H856 H 0.78651 0.3694 0.95861 0.0
H857 H 0.79909 0.39395 0.96443 0.0
C858 C 0.78347 0.47015 0.24156 0.0
C859 C 0.80328 0.46176 0.23595 0.0
C860 C 0.82264 0.49254 0.2511 0.0
C861 C 0.80283 0.50151 0.25565 0.0
N862 N 0.76458 0.50099 0.25225 0.0
N863 N 0.84149 0.46646 0.23204 0.0
C864 C 0.78328 0.49093 0.25001 0.0
C865 C 0.82282 0.4734 0.23976 0.0
N866 N 0.76493 0.4579 0.23962 0.0
N867 N 0.84121 0.50183 0.25831 0.0
H868 H 0.84222 0.45254 0.22358 0.0
H869 H 0.85594 0.47536 0.23257 0.0
H870 H 0.84177 0.5159 0.26663 0.0
H871 H 0.85584 0.49477 0.25736 0.0
H872 H 0.75033 0.46222 0.24546 0.0
H873 H 0.76436 0.44258 0.23353 0.0
H874 H 0.7501 0.49505 0.24655 0.0
H875 H 0.76384 0.51624 0.25838 0.0
C876 C 0.77427 0.62344 0.55441 0.0
C877 C 0.76067 0.6194 0.57046 0.0
C878 C 0.74131 0.59087 0.55202 0.0
C879 C 0.75585 0.59396 0.53646 0.0
N880 N 0.78852 0.61031 0.52396 0.0
N881 N 0.73372 0.59719 0.58596 0.0
C882 C 0.77301 0.60945 0.53796 0.0
C883 C 0.74486 0.60252 0.56967 0.0
N884 N 0.78778 0.64112 0.55458 0.0
N885 N 0.72365 0.57744 0.54968 0.0
H886 H 0.73591 0.60535 0.59915 0.0
H887 H 0.72367 0.58363 0.58684 0.0
H888 H 0.72052 0.56861 0.53697 0.0
H889 H 0.71123 0.57629 0.55972 0.0
H890 H 0.79629 0.6462 0.54251 0.0
H891 H 0.78917 0.65179 0.56634 0.0
H892 H 0.80263 0.61969 0.52523 0.0
H893 H 0.78825 0.60023 0.51175 0.0
C894 C 0.64171 0.52405 0.73974 0.0
C895 C 0.64506 0.53712 0.75657 0.0
C896 C 0.64307 0.50567 0.77611 0.0
C897 C 0.63695 0.49299 0.75964 0.0
N898 N 0.62641 0.49095 0.7263 0.0
N899 N 0.64462 0.5407 0.79128 0.0
C900 C 0.6352 0.50238 0.74156 0.0
C901 C 0.6446 0.52804 0.77492 0.0
N902 N 0.64552 0.53209 0.722 0.0
N903 N 0.64824 0.49639 0.79272 0.0
H904 H 0.64498 0.55717 0.79115 0.0
H905 H 0.64204 0.53482 0.80495 0.0
H906 H 0.64802 0.48003 0.79405 0.0
H907 H 0.6549 0.50485 0.80451 0.0
H908 H 0.64544 0.52272 0.70936 0.0
H909 H 0.65094 0.54772 0.72004 0.0
H910 H 0.62273 0.49769 0.7134 0.0
H911 H 0.62077 0.47523 0.72712 0.0
loop_
_geom_bond_atom_site_label_1
_geom_bond_atom_site_label_2
_geom_bond_distance
_geom_bond_site_symmetry_2
_ccdc_geom_bond_type
O0 Cd1 2.300 . S
O0 C7 1.275 . S
Cd1 O0 2.300 . S
Cd1 O9 2.381 . S
Cd1 O10 2.378 . S
O2 Cd3 2.385 . S
O2 C7 1.255 . S
Cd3 O2 2.385 . S
Cd3 O4 2.317 . S
O4 Cd3 2.317 . S
O4 C5 1.232 . S
C5 O4 1.232 . S
C5 O6 1.218 . S
O6 C5 1.218 . S
C7 O0 1.275 . S
C7 O2 1.255 . S
C8 O9 1.258 . S
C8 O10 1.256 . S
O9 Cd1 2.381 . S
O9 C8 1.258 . S
O10 Cd1 2.378 . S
O10 C8 1.256 . S
O11 Cd12 2.300 . S
O11 C18 1.275 . S
Cd12 O11 2.300 . S
Cd12 O20 2.381 . S
Cd12 O21 2.378 . S
O13 Cd14 2.385 . S
O13 C18 1.255 . S
Cd14 O13 2.385 . S
Cd14 O15 2.317 . S
O15 Cd14 2.317 . S
O15 C16 1.232 . S
C16 O15 1.232 . S
C16 O17 1.218 . S
O17 C16 1.218 . S
C18 O11 1.275 . S
C18 O13 1.255 . S
C19 O20 1.258 . S
C19 O21 1.256 . S
O20 Cd12 2.381 . S
O20 C19 1.258 . S
O21 Cd12 2.378 . S
O21 C19 1.256 . S
O22 Cd23 2.300 . S
O22 C29 1.275 . S
Cd23 O22 2.300 . S
Cd23 O31 2.381 . S
Cd23 O32 2.378 . S
O24 Cd25 2.385 . S
O24 C29 1.255 . S
Cd25 O24 2.385 . S
Cd25 O26 2.317 . S
O26 Cd25 2.317 . S
O26 C27 1.232 . S
C27 O26 1.232 . S
C27 O28 1.218 . S
O28 C27 1.218 . S
C29 O22 1.275 . S
C29 O24 1.255 . S
C30 O31 1.258 . S
C30 O32 1.256 . S
O31 Cd23 2.381 . S
O31 C30 1.258 . S
O32 Cd23 2.378 . S
O32 C30 1.256 . S
O33 Cd34 2.300 . S
O33 C40 1.275 . S
Cd34 O33 2.300 . S
Cd34 O42 2.381 . S
Cd34 O43 2.378 . S
O35 Cd36 2.385 . S
O35 C40 1.255 . S
Cd36 O35 2.385 . S
Cd36 O37 2.317 . S
O37 Cd36 2.317 . S
O37 C38 1.232 . S
C38 O37 1.232 . S
C38 O39 1.218 . S
O39 C38 1.218 . S
C40 O33 1.275 . S
C40 O35 1.255 . S
C41 O42 1.258 . S
C41 O43 1.256 . S
O42 Cd34 2.381 . S
O42 C41 1.258 . S
O43 Cd34 2.378 . S
O43 C41 1.256 . S
O44 Cd45 2.300 . S
O44 C51 1.275 . S
Cd45 O44 2.300 . S
Cd45 O53 2.381 . S
Cd45 O54 2.378 . S
O46 Cd47 2.385 . S
O46 C51 1.255 . S
Cd47 O46 2.385 . S
Cd47 O48 2.317 . S
O48 Cd47 2.317 . S
O48 C49 1.232 . S
C49 O48 1.232 . S
C49 O50 1.218 . S
O50 C49 1.218 . S
C51 O44 1.275 . S
C51 O46 1.255 . S
C52 O53 1.258 . S
C52 O54 1.256 . S
O53 Cd45 2.381 . S
O53 C52 1.258 . S
O54 Cd45 2.378 . S
O54 C52 1.256 . S
O55 Cd56 2.300 . S
O55 C62 1.275 . S
Cd56 O55 2.300 . S
Cd56 O64 2.381 . S
Cd56 O65 2.378 . S
O57 Cd58 2.385 . S
O57 C62 1.255 . S
Cd58 O57 2.385 . S
Cd58 O59 2.317 . S
O59 Cd58 2.317 . S
O59 C60 1.232 . S
C60 O59 1.232 . S
C60 O61 1.218 . S
O61 C60 1.218 . S
C62 O55 1.275 . S
C62 O57 1.255 . S
C63 O64 1.258 . S
C63 O65 1.256 . S
O64 Cd56 2.381 . S
O64 C63 1.258 . S
O65 Cd56 2.378 . S
O65 C63 1.256 . S
O66 Cd67 2.300 . S
O66 C73 1.275 . S
Cd67 O66 2.300 . S
Cd67 O75 2.381 . S
Cd67 O76 2.378 . S
O68 Cd69 2.385 . S
O68 C73 1.255 . S
Cd69 O68 2.385 . S
Cd69 O70 2.317 . S
O70 Cd69 2.317 . S
O70 C71 1.232 . S
C71 O70 1.232 . S
C71 O72 1.218 . S
O72 C71 1.218 . S
C73 O66 1.275 . S
C73 O68 1.255 . S
C74 O75 1.258 . S
C74 O76 1.256 . S
O75 Cd67 2.381 . S
O75 C74 1.258 . S
O76 Cd67 2.378 . S
O76 C74 1.256 . S
O77 Cd78 2.300 . S
O77 C84 1.275 1_554 S
Cd78 O77 2.300 . S
Cd78 O86 2.381 . S
Cd78 O87 2.378 . S
O79 Cd80 2.385 . S
O79 C84 1.255 . S
Cd80 O79 2.385 . S
Cd80 O81 2.317 . S
O81 Cd80 2.317 . S
O81 C82 1.232 . S
C82 O81 1.232 . S
C82 O83 1.218 . S
O83 C82 1.218 . S
C84 O77 1.275 1_556 S
C84 O79 1.255 . S
C85 O86 1.258 . S
C85 O87 1.256 . S
O86 Cd78 2.381 . S
O86 C85 1.258 . S
O87 Cd78 2.378 . S
O87 C85 1.256 . S
O88 Cd89 2.300 . S
O88 C95 1.275 . S
Cd89 O88 2.300 . S
Cd89 O97 2.381 . S
Cd89 O98 2.378 . S
O90 Cd91 2.385 . S
O90 C95 1.255 . S
Cd91 O90 2.385 . S
Cd91 O92 2.317 . S
O92 Cd91 2.317 . S
O92 C93 1.232 . S
C93 O92 1.232 . S
C93 O94 1.218 . S
O94 C93 1.218 . S
C95 O88 1.275 . S
C95 O90 1.255 . S
C96 O97 1.258 . S
C96 O98 1.256 . S
O97 Cd89 2.381 . S
O97 C96 1.258 . S
O98 Cd89 2.378 . S
O98 C96 1.256 . S
O99 Cd100 2.300 . S
O99 C106 1.275 . S
Cd100 O99 2.300 . S
Cd100 O108 2.381 . S
Cd100 O109 2.378 . S
O101 Cd102 2.385 . S
O101 C106 1.255 . S
Cd102 O101 2.385 . S
Cd102 O103 2.317 . S
O103 Cd102 2.317 . S
O103 C104 1.232 . S
C104 O103 1.232 . S
C104 O105 1.218 . S
O105 C104 1.218 . S
C106 O99 1.275 . S
C106 O101 1.255 . S
C107 O108 1.258 . S
C107 O109 1.256 . S
O108 Cd100 2.381 . S
O108 C107 1.258 . S
O109 Cd100 2.378 . S
O109 C107 1.256 . S
O110 Cd111 2.300 . S
O110 C117 1.275 . S
Cd111 O110 2.300 . S
Cd111 O119 2.381 . S
Cd111 O120 2.378 . S
O112 Cd113 2.385 . S
O112 C117 1.255 . S
Cd113 O112 2.385 . S
Cd113 O114 2.317 . S
O114 Cd113 2.317 . S
O114 C115 1.232 . S
C115 O114 1.232 . S
C115 O116 1.218 . S
O116 C115 1.218 . S
C117 O110 1.275 . S
C117 O112 1.255 . S
C118 O119 1.258 . S
C118 O120 1.256 . S
O119 Cd111 2.381 . S
O119 C118 1.258 . S
O120 Cd111 2.378 . S
O120 C118 1.256 . S
O121 Cd122 2.300 . S
O121 C128 1.275 . S
Cd122 O121 2.300 . S
Cd122 O130 2.381 . S
Cd122 O131 2.378 . S
O123 Cd124 2.385 . S
O123 C128 1.255 . S
Cd124 O123 2.385 . S
Cd124 O125 2.317 . S
O125 Cd124 2.317 . S
O125 C126 1.232 . S
C126 O125 1.232 . S
C126 O127 1.218 . S
O127 C126 1.218 . S
C128 O121 1.275 . S
C128 O123 1.255 . S
C129 O130 1.258 . S
C129 O131 1.256 . S
O130 Cd122 2.381 . S
O130 C129 1.258 . S
O131 Cd122 2.378 . S
O131 C129 1.256 . S
O132 Cd133 2.300 . S
O132 C139 1.275 . S
Cd133 O132 2.300 . S
Cd133 O141 2.381 . S
Cd133 O142 2.378 . S
O134 Cd135 2.385 . S
O134 C139 1.255 . S
Cd135 O134 2.385 . S
Cd135 O136 2.317 . S
O136 Cd135 2.317 . S
O136 C137 1.232 . S
C137 O136 1.232 . S
C137 O138 1.218 . S
O138 C137 1.218 . S
C139 O132 1.275 . S
C139 O134 1.255 . S
C140 O141 1.258 . S
C140 O142 1.256 . S
O141 Cd133 2.381 . S
O141 C140 1.258 . S
O142 Cd133 2.378 . S
O142 C140 1.256 . S
O143 Cd144 2.300 . S
O143 C150 1.275 . S
Cd144 O143 2.300 . S
Cd144 O152 2.381 . S
Cd144 O153 2.378 . S
O145 Cd146 2.385 . S
O145 C150 1.255 . S
Cd146 O145 2.385 . S
Cd146 O147 2.317 . S
O147 Cd146 2.317 . S
O147 C148 1.232 . S
C148 O147 1.232 . S
C148 O149 1.218 . S
O149 C148 1.218 . S
C150 O143 1.275 . S
C150 O145 1.255 . S
C151 O152 1.258 . S
C151 O153 1.256 . S
O152 Cd144 2.381 . S
O152 C151 1.258 . S
O153 Cd144 2.378 . S
O153 C151 1.256 . S
O154 Cd155 2.300 . S
O154 C161 1.275 . S
Cd155 O154 2.300 . S
Cd155 O163 2.381 . S
Cd155 O164 2.378 . S
O156 Cd157 2.385 . S
O156 C161 1.255 . S
Cd157 O156 2.385 . S
Cd157 O158 2.317 . S
O158 Cd157 2.317 . S
O158 C159 1.232 . S
C159 O158 1.232 . S
C159 O160 1.218 . S
O160 C159 1.218 . S
C161 O154 1.275 . S
C161 O156 1.255 . S
C162 O163 1.258 . S
C162 O164 1.256 . S
O163 Cd155 2.381 . S
O163 C162 1.258 . S
O164 Cd155 2.378 . S
O164 C162 1.256 . S
O165 Cd166 2.300 . S
O165 C172 1.275 . S
Cd166 O165 2.300 . S
Cd166 O174 2.381 . S
Cd166 O175 2.378 . S
O167 Cd168 2.385 . S
O167 C172 1.255 . S
Cd168 O167 2.385 . S
Cd168 O169 2.317 . S
O169 Cd168 2.317 . S
O169 C170 1.232 . S
C170 O169 1.232 . S
C170 O171 1.218 . S
O171 C170 1.218 . S
C172 O165 1.275 . S
C172 O167 1.255 . S
C173 O174 1.258 . S
C173 O175 1.256 . S
O174 Cd166 2.381 . S
O174 C173 1.258 . S
O175 Cd166 2.378 . S
O175 C173 1.256 . S
O176 Cd177 2.300 . S
O176 C183 1.275 . S
Cd177 O176 2.300 . S
Cd177 O185 2.381 . S
Cd177 O186 2.378 . S
O178 Cd179 2.385 . S
O178 C183 1.255 . S
Cd179 O178 2.385 . S
Cd179 O180 2.317 . S
O180 Cd179 2.317 . S
O180 C181 1.232 . S
C181 O180 1.232 . S
C181 O182 1.218 . S
O182 C181 1.218 . S
C183 O176 1.275 . S
C183 O178 1.255 . S
C184 O185 1.258 . S
C184 O186 1.256 . S
O185 Cd177 2.381 . S
O185 C184 1.258 . S
O186 Cd177 2.378 . S
O186 C184 1.256 . S
O187 Cd188 2.300 . S
O187 C194 1.275 . S
Cd188 O187 2.300 . S
Cd188 O196 2.381 . S
Cd188 O197 2.378 . S
O189 Cd190 2.385 . S
O189 C194 1.255 . S
Cd190 O189 2.385 . S
Cd190 O191 2.317 . S
O191 Cd190 2.317 . S
O191 C192 1.232 . S
C192 O191 1.232 . S
C192 O193 1.218 . S
O193 C192 1.218 . S
C194 O187 1.275 . S
C194 O189 1.255 . S
C195 O196 1.258 . S
C195 O197 1.256 . S
O196 Cd188 2.381 . S
O196 C195 1.258 . S
O197 Cd188 2.378 . S
O197 C195 1.256 . S
O198 Cd199 2.300 . S
O198 C205 1.275 . S
Cd199 O198 2.300 . S
Cd199 O207 2.381 . S
Cd199 O208 2.378 . S
O200 Cd201 2.385 . S
O200 C205 1.255 . S
Cd201 O200 2.385 . S
Cd201 O202 2.317 . S
O202 Cd201 2.317 . S
O202 C203 1.232 . S
C203 O202 1.232 . S
C203 O204 1.218 . S
O204 C203 1.218 . S
C205 O198 1.275 . S
C205 O200 1.255 . S
C206 O207 1.258 . S
C206 O208 1.256 . S
O207 Cd199 2.381 . S
O207 C206 1.258 . S
O208 Cd199 2.378 . S
O208 C206 1.256 . S
O209 Cd210 2.300 . S
O209 C216 1.275 . S
Cd210 O209 2.300 . S
Cd210 O218 2.347 1_655 S
Cd210 O219 2.378 . S
O211 Cd212 2.385 . S
O211 C216 1.255 . S
Cd212 O211 2.385 . S
Cd212 O213 2.317 . S
O213 Cd212 2.317 . S
O213 C214 1.232 . S
C214 O213 1.232 . S
C214 O215 1.218 . S
O215 C214 1.218 . S
C216 O209 1.275 . S
C216 O211 1.255 . S
C217 O218 1.273 . S
C217 O219 1.256 1_455 S
O218 Cd210 2.347 1_455 S
O218 C217 1.273 . S
O219 Cd210 2.378 . S
O219 C217 1.256 1_655 S
O220 Cd221 2.300 . S
O220 C227 1.275 . S
Cd221 O220 2.300 . S
Cd221 O229 2.381 . S
Cd221 O230 2.378 . S
O222 Cd223 2.385 . S
O222 C227 1.255 . S
Cd223 O222 2.385 . S
Cd223 O224 2.317 . S
O224 Cd223 2.317 . S
O224 C225 1.232 . S
C225 O224 1.232 . S
C225 O226 1.218 . S
O226 C225 1.218 . S
C227 O220 1.275 . S
C227 O222 1.255 . S
C228 O229 1.258 . S
C228 O230 1.256 . S
O229 Cd221 2.381 . S
O229 C228 1.258 . S
O230 Cd221 2.378 . S
O230 C228 1.256 . S
O231 Cd232 2.300 . S
O231 C238 1.275 . S
Cd232 O231 2.300 . S
Cd232 O240 2.381 . S
Cd232 O241 2.378 . S
O233 Cd234 2.385 . S
O233 C238 1.255 . S
Cd234 O233 2.385 . S
Cd234 O235 2.317 . S
O235 Cd234 2.317 . S
O235 C236 1.232 . S
C236 O235 1.232 . S
C236 O237 1.218 . S
O237 C236 1.218 . S
C238 O231 1.275 . S
C238 O233 1.255 . S
C239 O240 1.258 . S
C239 O241 1.256 . S
O240 Cd232 2.381 . S
O240 C239 1.258 . S
O241 Cd232 2.378 . S
O241 C239 1.256 . S
O242 Cd243 2.300 1_554 S
O242 C249 1.275 . S
Cd243 O242 2.300 1_556 S
Cd243 O251 2.381 . S
Cd243 O252 2.378 . S
O244 Cd245 2.385 . S
O244 C249 1.255 . S
Cd245 O244 2.385 . S
Cd245 O246 2.319 . S
O246 Cd245 2.319 . S
O246 C247 1.237 . S
C247 O246 1.237 . S
C247 O248 1.218 . S
O248 C247 1.218 . S
C249 O242 1.275 . S
C249 O244 1.255 . S
C250 O251 1.258 . S
C250 O252 1.256 . S
O251 Cd243 2.381 . S
O251 C250 1.258 . S
O252 Cd243 2.378 . S
O252 C250 1.256 . S
O253 Cd254 2.300 . S
O253 C260 1.275 . S
Cd254 O253 2.300 . S
Cd254 O262 2.381 . S
Cd254 O263 2.378 . S
O255 Cd256 2.385 . S
O255 C260 1.255 . S
Cd256 O255 2.385 . S
Cd256 O257 2.317 . S
O257 Cd256 2.317 . S
O257 C258 1.232 . S
C258 O257 1.232 . S
C258 O259 1.218 . S
O259 C258 1.218 . S
C260 O253 1.275 . S
C260 O255 1.255 . S
C261 O262 1.258 . S
C261 O263 1.256 . S
O262 Cd254 2.381 . S
O262 C261 1.258 . S
O263 Cd254 2.378 . S
O263 C261 1.256 . S
C264 C265 1.363 . S
C264 C270 1.379 . S
C264 N272 1.356 . S
C265 C264 1.363 . S
C265 C271 1.363 . S
C266 C267 1.363 . S
C266 C271 1.379 . S
C266 N273 1.356 . S
C267 C266 1.363 . S
C267 C270 1.363 . S
N268 C270 1.356 . S
N268 H280 0.984 . S
N268 H281 0.985 . S
N269 C271 1.356 . S
N269 H274 0.984 . S
N269 H275 0.985 . S
C270 C264 1.379 . S
C270 C267 1.363 . S
C270 N268 1.356 . S
C271 C265 1.363 . S
C271 C266 1.379 . S
C271 N269 1.356 . S
N272 C264 1.356 . S
N272 H278 0.984 . S
N272 H279 0.984 . S
N273 C266 1.356 . S
N273 H276 0.984 . S
N273 H277 0.985 . S
H274 N269 0.984 . S
H275 N269 0.985 . S
H276 N273 0.984 . S
H277 N273 0.985 . S
H278 N272 0.984 . S
H279 N272 0.984 . S
H280 N268 0.984 . S
H281 N268 0.985 . S
C282 C283 1.363 . S
C282 C288 1.379 . S
C282 N290 1.356 . S
C283 C282 1.363 . S
C283 C289 1.363 . S
C284 C285 1.363 . S
C284 C289 1.379 . S
C284 N291 1.356 . S
C285 C284 1.363 . S
C285 C288 1.363 . S
N286 C288 1.356 . S
N286 H298 0.984 . S
N286 H299 0.985 . S
N287 C289 1.356 . S
N287 H292 0.984 . S
N287 H293 0.985 . S
C288 C282 1.379 . S
C288 C285 1.363 . S
C288 N286 1.356 . S
C289 C283 1.363 . S
C289 C284 1.379 . S
C289 N287 1.356 . S
N290 C282 1.356 . S
N290 H296 0.984 . S
N290 H297 0.984 . S
N291 C284 1.356 . S
N291 H294 0.984 . S
N291 H295 0.985 . S
H292 N287 0.984 . S
H293 N287 0.985 . S
H294 N291 0.984 . S
H295 N291 0.985 . S
H296 N290 0.984 . S
H297 N290 0.984 . S
H298 N286 0.984 . S
H299 N286 0.985 . S
C300 C301 1.363 . S
C300 C306 1.379 . S
C300 N308 1.356 . S
C301 C300 1.363 . S
C301 C307 1.363 . S
C302 C303 1.363 . S
C302 C307 1.379 . S
C302 N309 1.356 . S
C303 C302 1.363 . S
C303 C306 1.363 . S
N304 C306 1.356 . S
N304 H316 0.984 . S
N304 H317 0.985 . S
N305 C307 1.356 . S
N305 H310 0.984 . S
N305 H311 0.985 . S
C306 C300 1.379 . S
C306 C303 1.363 . S
C306 N304 1.356 . S
C307 C301 1.363 . S
C307 C302 1.379 . S
C307 N305 1.356 . S
N308 C300 1.356 . S
N308 H314 0.984 . S
N308 H315 0.984 . S
N309 C302 1.356 . S
N309 H312 0.984 . S
N309 H313 0.985 . S
H310 N305 0.984 . S
H311 N305 0.985 . S
H312 N309 0.984 . S
H313 N309 0.985 . S
H314 N308 0.984 . S
H315 N308 0.984 . S
H316 N304 0.984 . S
H317 N304 0.985 . S
C318 C319 1.363 . S
C318 C324 1.379 . S
C318 N326 1.356 . S
C319 C318 1.363 . S
C319 C325 1.363 . S
C320 C321 1.363 . S
C320 C325 1.379 . S
C320 N327 1.356 1_556 S
C321 C320 1.363 . S
C321 C324 1.363 . S
N322 C324 1.356 . S
N322 H334 0.984 . S
N322 H335 0.985 . S
N323 C325 1.356 . S
N323 H328 0.984 . S
N323 H329 0.985 . S
C324 C318 1.379 . S
C324 C321 1.363 . S
C324 N322 1.356 . S
C325 C319 1.363 . S
C325 C320 1.379 . S
C325 N323 1.356 . S
N326 C318 1.356 . S
N326 H332 0.984 . S
N326 H333 0.984 . S
N327 C320 1.356 1_554 S
N327 H330 0.984 . S
N327 H331 0.985 . S
H328 N323 0.984 . S
H329 N323 0.985 . S
H330 N327 0.984 . S
H331 N327 0.985 . S
H332 N326 0.984 . S
H333 N326 0.984 . S
H334 N322 0.984 . S
H335 N322 0.985 . S
C336 C337 1.363 . S
C336 C342 1.379 . S
C336 N344 1.356 . S
C337 C336 1.363 . S
C337 C343 1.363 . S
C338 C339 1.363 . S
C338 C343 1.379 . S
C338 N345 1.356 . S
C339 C338 1.363 . S
C339 C342 1.363 . S
N340 C342 1.356 . S
N340 H352 0.984 . S
N340 H353 0.985 . S
N341 C343 1.356 . S
N341 H346 0.984 . S
N341 H347 0.985 . S
C342 C336 1.379 . S
C342 C339 1.363 . S
C342 N340 1.356 . S
C343 C337 1.363 . S
C343 C338 1.379 . S
C343 N341 1.356 . S
N344 C336 1.356 . S
N344 H350 0.984 . S
N344 H351 0.984 . S
N345 C338 1.356 . S
N345 H348 0.984 . S
N345 H349 0.985 . S
H346 N341 0.984 . S
H347 N341 0.985 . S
H348 N345 0.984 . S
H349 N345 0.985 . S
H350 N344 0.984 . S
H351 N344 0.984 . S
H352 N340 0.984 . S
H353 N340 0.985 . S
C354 C355 1.363 . S
C354 C360 1.379 . S
C354 N362 1.356 . S
C355 C354 1.363 . S
C355 C361 1.363 . S
C356 C357 1.363 . S
C356 C361 1.379 . S
C356 N363 1.356 . S
C357 C356 1.363 . S
C357 C360 1.363 . S
N358 C360 1.356 . S
N358 H370 0.984 . S
N358 H371 0.985 . S
N359 C361 1.356 . S
N359 H364 0.984 . S
N359 H365 0.985 . S
C360 C354 1.379 . S
C360 C357 1.363 . S
C360 N358 1.356 . S
C361 C355 1.363 . S
C361 C356 1.379 . S
C361 N359 1.356 . S
N362 C354 1.356 . S
N362 H368 0.984 . S
N362 H369 0.984 . S
N363 C356 1.356 . S
N363 H366 0.984 . S
N363 H367 0.985 . S
H364 N359 0.984 . S
H365 N359 0.985 . S
H366 N363 0.984 . S
H367 N363 0.985 . S
H368 N362 0.984 . S
H369 N362 0.984 . S
H370 N358 0.984 . S
H371 N358 0.985 . S
C372 C373 1.363 . S
C372 C378 1.379 . S
C372 N380 1.356 . S
C373 C372 1.363 . S
C373 C379 1.363 . S
C374 C375 1.363 . S
C374 C379 1.379 . S
C374 N381 1.356 . S
C375 C374 1.363 . S
C375 C378 1.363 . S
N376 C378 1.356 . S
N376 H388 0.984 . S
N376 H389 0.985 . S
N377 C379 1.356 . S
N377 H382 0.984 . S
N377 H383 0.985 . S
C378 C372 1.379 . S
C378 C375 1.363 . S
C378 N376 1.356 . S
C379 C373 1.363 . S
C379 C374 1.379 . S
C379 N377 1.356 . S
N380 C372 1.356 . S
N380 H386 0.984 . S
N380 H387 0.984 . S
N381 C374 1.356 . S
N381 H384 0.984 . S
N381 H385 0.985 . S
H382 N377 0.984 . S
H383 N377 0.985 . S
H384 N381 0.984 . S
H385 N381 0.985 . S
H386 N380 0.984 . S
H387 N380 0.984 . S
H388 N376 0.984 . S
H389 N376 0.985 . S
C390 C391 1.363 . S
C390 C396 1.379 . S
C390 N398 1.356 . S
C391 C390 1.363 . S
C391 C397 1.363 . S
C392 C393 1.363 . S
C392 C397 1.379 . S
C392 N399 1.356 . S
C393 C392 1.363 . S
C393 C396 1.363 . S
N394 C396 1.356 . S
N394 H406 0.984 . S
N394 H407 0.985 . S
N395 C397 1.356 . S
N395 H400 0.984 . S
N395 H401 0.985 . S
C396 C390 1.379 . S
C396 C393 1.363 . S
C396 N394 1.356 . S
C397 C391 1.363 . S
C397 C392 1.379 . S
C397 N395 1.356 . S
N398 C390 1.356 . S
N398 H404 0.984 . S
N398 H405 0.984 . S
N399 C392 1.356 . S
N399 H402 0.984 . S
N399 H403 0.985 . S
H400 N395 0.984 . S
H401 N395 0.985 . S
H402 N399 0.984 . S
H403 N399 0.985 . S
H404 N398 0.984 . S
H405 N398 0.984 . S
H406 N394 0.984 . S
H407 N394 0.985 . S
C408 C409 1.363 . S
C408 C414 1.379 . S
C408 N416 1.356 . S
C409 C408 1.363 . S
C409 C415 1.363 . S
C410 C411 1.363 . S
C410 C415 1.379 . S
C410 N417 1.356 . S
C411 C410 1.363 . S
C411 C414 1.363 . S
N412 C414 1.356 . S
N412 H424 0.984 . S
N412 H425 0.985 . S
N413 C415 1.356 . S
N413 H418 0.984 . S
N413 H419 0.985 . S
C414 C408 1.379 . S
C414 C411 1.363 . S
C414 N412 1.356 . S
C415 C409 1.363 . S
C415 C410 1.379 . S
C415 N413 1.356 . S
N416 C408 1.356 . S
N416 H422 0.984 . S
N416 H423 0.984 . S
N417 C410 1.356 . S
N417 H420 0.984 . S
N417 H421 0.985 . S
H418 N413 0.984 . S
H419 N413 0.985 . S
H420 N417 0.984 . S
H421 N417 0.985 . S
H422 N416 0.984 . S
H423 N416 0.984 . S
H424 N412 0.984 . S
H425 N412 0.985 . S
C426 C427 1.363 . S
C426 C432 1.379 . S
C426 N434 1.356 . S
C427 C426 1.363 . S
C427 C433 1.363 . S
C428 C429 1.363 . S
C428 C433 1.379 . S
C428 N435 1.356 . S
C429 C428 1.363 . S
C429 C432 1.363 . S
N430 C432 1.356 . S
N430 H442 0.984 . S
N430 H443 0.985 . S
N431 C433 1.356 . S
N431 H436 0.984 . S
N431 H437 0.985 . S
C432 C426 1.379 . S
C432 C429 1.363 . S
C432 N430 1.356 . S
C433 C427 1.363 . S
C433 C428 1.379 . S
C433 N431 1.356 . S
N434 C426 1.356 . S
N434 H440 0.984 . S
N434 H441 0.984 . S
N435 C428 1.356 . S
N435 H438 0.984 . S
N435 H439 0.985 . S
H436 N431 0.984 . S
H437 N431 0.985 . S
H438 N435 0.984 . S
H439 N435 0.985 . S
H440 N434 0.984 . S
H441 N434 0.984 . S
H442 N430 0.984 . S
H443 N430 0.985 . S
C444 C445 1.363 . S
C444 C450 1.379 . S
C444 N452 1.356 . S
C445 C444 1.363 . S
C445 C451 1.363 . S
C446 C447 1.363 . S
C446 C451 1.379 . S
C446 N453 1.356 . S
C447 C446 1.363 . S
C447 C450 1.363 . S
N448 C450 1.356 . S
N448 H460 0.984 . S
N448 H461 0.985 . S
N449 C451 1.356 . S
N449 H454 0.984 . S
N449 H455 0.985 . S
C450 C444 1.379 . S
C450 C447 1.363 . S
C450 N448 1.356 . S
C451 C445 1.363 . S
C451 C446 1.379 . S
C451 N449 1.356 . S
N452 C444 1.356 . S
N452 H458 0.984 . S
N452 H459 0.984 . S
N453 C446 1.356 . S
N453 H456 0.984 . S
N453 H457 0.985 . S
H454 N449 0.984 . S
H455 N449 0.985 . S
H456 N453 0.984 . S
H457 N453 0.985 . S
H458 N452 0.984 . S
H459 N452 0.984 . S
H460 N448 0.984 . S
H461 N448 0.985 . S
C462 C463 1.363 . S
C462 C468 1.379 . S
C462 N470 1.356 . S
C463 C462 1.363 . S
C463 C469 1.363 . S
C464 C465 1.363 . S
C464 C469 1.379 . S
C464 N471 1.356 . S
C465 C464 1.363 . S
C465 C468 1.363 . S
N466 C468 1.356 . S
N466 H478 0.984 . S
N466 H479 0.985 . S
N467 C469 1.356 . S
N467 H472 0.984 . S
N467 H473 0.985 . S
C468 C462 1.379 . S
C468 C465 1.363 . S
C468 N466 1.356 . S
C469 C463 1.363 . S
C469 C464 1.379 . S
C469 N467 1.356 . S
N470 C462 1.356 . S
N470 H476 0.984 . S
N470 H477 0.984 . S
N471 C464 1.356 . S
N471 H474 0.984 . S
N471 H475 0.985 . S
H472 N467 0.984 . S
H473 N467 0.985 . S
H474 N471 0.984 . S
H475 N471 0.985 . S
H476 N470 0.984 . S
H477 N470 0.984 . S
H478 N466 0.984 . S
H479 N466 0.985 . S
C480 C481 1.363 . S
C480 C486 1.379 . S
C480 N488 1.356 . S
C481 C480 1.363 . S
C481 C487 1.363 . S
C482 C483 1.363 . S
C482 C487 1.379 . S
C482 N489 1.356 . S
C483 C482 1.363 . S
C483 C486 1.363 . S
N484 C486 1.356 . S
N484 H496 0.984 . S
N484 H497 0.985 . S
N485 C487 1.356 . S
N485 H490 0.984 . S
N485 H491 0.985 . S
C486 C480 1.379 . S
C486 C483 1.363 . S
C486 N484 1.356 . S
C487 C481 1.363 . S
C487 C482 1.379 . S
C487 N485 1.356 . S
N488 C480 1.356 . S
N488 H494 0.984 . S
N488 H495 0.984 . S
N489 C482 1.356 . S
N489 H492 0.984 . S
N489 H493 0.985 . S
H490 N485 0.984 . S
H491 N485 0.985 . S
H492 N489 0.984 . S
H493 N489 0.985 . S
H494 N488 0.984 . S
H495 N488 0.984 . S
H496 N484 0.984 . S
H497 N484 0.985 . S
C498 C499 1.363 . S
C498 C504 1.379 . S
C498 N506 1.356 . S
C499 C498 1.363 . S
C499 C505 1.363 . S
C500 C501 1.363 . S
C500 C505 1.379 . S
C500 N507 1.356 . S
C501 C500 1.363 . S
C501 C504 1.363 . S
N502 C504 1.356 . S
N502 H514 0.984 . S
N502 H515 0.985 . S
N503 C505 1.356 . S
N503 H508 0.984 . S
N503 H509 0.985 . S
C504 C498 1.379 . S
C504 C501 1.363 . S
C504 N502 1.356 . S
C505 C499 1.363 . S
C505 C500 1.379 . S
C505 N503 1.356 . S
N506 C498 1.356 . S
N506 H512 0.984 . S
N506 H513 0.984 . S
N507 C500 1.356 . S
N507 H510 0.984 . S
N507 H511 0.985 . S
H508 N503 0.984 . S
H509 N503 0.985 . S
H510 N507 0.984 . S
H511 N507 0.985 . S
H512 N506 0.984 . S
H513 N506 0.984 . S
H514 N502 0.984 . S
H515 N502 0.985 . S
C516 C517 1.363 . S
C516 C522 1.379 . S
C516 N524 1.356 . S
C517 C516 1.363 . S
C517 C523 1.363 . S
C518 C519 1.363 . S
C518 C523 1.379 . S
C518 N525 1.356 . S
C519 C518 1.363 . S
C519 C522 1.363 . S
N520 C522 1.356 . S
N520 H532 0.984 . S
N520 H533 0.985 . S
N521 C523 1.356 . S
N521 H526 0.984 . S
N521 H527 0.985 . S
C522 C516 1.379 . S
C522 C519 1.363 . S
C522 N520 1.356 . S
C523 C517 1.363 . S
C523 C518 1.379 . S
C523 N521 1.356 . S
N524 C516 1.356 . S
N524 H530 0.984 . S
N524 H531 0.984 . S
N525 C518 1.356 . S
N525 H528 0.984 . S
N525 H529 0.985 . S
H526 N521 0.984 . S
H527 N521 0.985 . S
H528 N525 0.984 . S
H529 N525 0.985 . S
H530 N524 0.984 . S
H531 N524 0.984 . S
H532 N520 0.984 . S
H533 N520 0.985 . S
C534 C535 1.363 . S
C534 C540 1.379 . S
C534 N542 1.356 . S
C535 C534 1.363 . S
C535 C541 1.363 . S
C536 C537 1.363 . S
C536 C541 1.379 . S
C536 N543 1.356 . S
C537 C536 1.363 . S
C537 C540 1.363 . S
N538 C540 1.356 . S
N538 H550 0.984 . S
N538 H551 0.985 . S
N539 C541 1.356 . S
N539 H544 0.984 . S
N539 H545 0.985 . S
C540 C534 1.379 . S
C540 C537 1.363 . S
C540 N538 1.356 . S
C541 C535 1.363 . S
C541 C536 1.379 . S
C541 N539 1.356 . S
N542 C534 1.356 . S
N542 H548 0.984 . S
N542 H549 0.984 . S
N543 C536 1.356 . S
N543 H546 0.984 . S
N543 H547 0.985 . S
H544 N539 0.984 . S
H545 N539 0.985 . S
H546 N543 0.984 . S
H547 N543 0.985 . S
H548 N542 0.984 . S
H549 N542 0.984 . S
H550 N538 0.984 . S
H551 N538 0.985 . S
C552 C553 1.363 . S
C552 C558 1.379 . S
C552 N560 1.356 . S
C553 C552 1.363 . S
C553 C559 1.363 . S
C554 C555 1.363 . S
C554 C559 1.379 . S
C554 N561 1.356 . S
C555 C554 1.363 . S
C555 C558 1.363 . S
N556 C558 1.356 . S
N556 H568 0.984 . S
N556 H569 0.985 . S
N557 C559 1.356 . S
N557 H562 0.984 . S
N557 H563 0.985 . S
C558 C552 1.379 . S
C558 C555 1.363 . S
C558 N556 1.356 . S
C559 C553 1.363 . S
C559 C554 1.379 . S
C559 N557 1.356 . S
N560 C552 1.356 . S
N560 H566 0.984 . S
N560 H567 0.984 . S
N561 C554 1.356 . S
N561 H564 0.984 . S
N561 H565 0.985 . S
H562 N557 0.984 . S
H563 N557 0.985 . S
H564 N561 0.984 . S
H565 N561 0.985 . S
H566 N560 0.984 . S
H567 N560 0.984 . S
H568 N556 0.984 . S
H569 N556 0.985 . S
C570 C571 1.363 . S
C570 C576 1.379 . S
C570 N578 1.356 . S
C571 C570 1.363 . S
C571 C577 1.363 . S
C572 C573 1.363 . S
C572 C577 1.379 . S
C572 N579 1.356 . S
C573 C572 1.363 . S
C573 C576 1.363 . S
N574 C576 1.356 . S
N574 H586 0.984 . S
N574 H587 0.985 . S
N575 C577 1.356 . S
N575 H580 0.984 . S
N575 H581 0.985 . S
C576 C570 1.379 . S
C576 C573 1.363 . S
C576 N574 1.356 . S
C577 C571 1.363 . S
C577 C572 1.379 . S
C577 N575 1.356 . S
N578 C570 1.356 . S
N578 H584 0.984 . S
N578 H585 0.984 . S
N579 C572 1.356 . S
N579 H582 0.984 . S
N579 H583 0.985 . S
H580 N575 0.984 . S
H581 N575 0.985 . S
H582 N579 0.984 . S
H583 N579 0.985 . S
H584 N578 0.984 . S
H585 N578 0.984 . S
H586 N574 0.984 . S
H587 N574 0.985 . S
C588 C589 1.363 . S
C588 C594 1.379 . S
C588 N596 1.356 . S
C589 C588 1.363 . S
C589 C595 1.363 . S
C590 C591 1.363 . S
C590 C595 1.379 . S
C590 N597 1.321 1_554 S
C591 C590 1.363 . S
C591 C594 1.363 . S
N592 C594 1.356 . S
N592 H604 0.984 . S
N592 H605 0.985 . S
N593 C595 1.356 . S
N593 H598 0.984 . S
N593 H599 0.985 . S
C594 C588 1.379 . S
C594 C591 1.363 . S
C594 N592 1.356 . S
C595 C589 1.363 . S
C595 C590 1.379 . S
C595 N593 1.356 . S
N596 C588 1.356 . S
N596 H602 0.984 . S
N596 H603 0.984 . S
N597 C590 1.321 1_556 S
N597 H600 1.004 . S
N597 H601 1.001 . S
H598 N593 0.984 . S
H599 N593 0.985 . S
H600 N597 1.004 . S
H601 N597 1.001 . S
H602 N596 0.984 . S
H603 N596 0.984 . S
H604 N592 0.984 . S
H605 N592 0.985 . S
C606 C607 1.363 . S
C606 C612 1.379 . S
C606 N614 1.356 . S
C607 C606 1.363 . S
C607 C613 1.363 . S
C608 C609 1.363 . S
C608 C613 1.379 . S
C608 N615 1.356 . S
C609 C608 1.363 . S
C609 C612 1.363 . S
N610 C612 1.356 . S
N610 H622 0.984 . S
N610 H623 0.985 . S
N611 C613 1.356 . S
N611 H616 0.984 . S
N611 H617 0.985 . S
C612 C606 1.379 . S
C612 C609 1.363 . S
C612 N610 1.356 . S
C613 C607 1.363 . S
C613 C608 1.379 . S
C613 N611 1.356 . S
N614 C606 1.356 . S
N614 H620 0.984 . S
N614 H621 0.984 . S
N615 C608 1.356 . S
N615 H618 0.984 . S
N615 H619 0.985 . S
H616 N611 0.984 . S
H617 N611 0.985 . S
H618 N615 0.984 . S
H619 N615 0.985 . S
H620 N614 0.984 . S
H621 N614 0.984 . S
H622 N610 0.984 . S
H623 N610 0.985 . S
C624 C625 1.363 . S
C624 C630 1.379 . S
C624 N632 1.356 . S
C625 C624 1.363 . S
C625 C631 1.363 . S
C626 C627 1.363 . S
C626 C631 1.379 . S
C626 N633 1.356 . S
C627 C626 1.363 . S
C627 C630 1.363 . S
N628 C630 1.356 . S
N628 H640 0.984 . S
N628 H641 0.985 . S
N629 C631 1.356 . S
N629 H634 0.984 . S
N629 H635 0.985 . S
C630 C624 1.379 . S
C630 C627 1.363 . S
C630 N628 1.356 . S
C631 C625 1.363 . S
C631 C626 1.379 . S
C631 N629 1.356 . S
N632 C624 1.356 . S
N632 H638 0.984 . S
N632 H639 0.984 . S
N633 C626 1.356 . S
N633 H636 0.984 . S
N633 H637 0.985 . S
H634 N629 0.984 . S
H635 N629 0.985 . S
H636 N633 0.984 . S
H637 N633 0.985 . S
H638 N632 0.984 . S
H639 N632 0.984 . S
H640 N628 0.984 . S
H641 N628 0.985 . S
C642 C643 1.363 . S
C642 C648 1.379 . S
C642 N650 1.356 . S
C643 C642 1.363 . S
C643 C649 1.363 . S
C644 C645 1.363 . S
C644 C649 1.379 . S
C644 N651 1.356 . S
C645 C644 1.363 . S
C645 C648 1.363 . S
N646 C648 1.356 . S
N646 H658 0.984 . S
N646 H659 0.985 . S
N647 C649 1.356 . S
N647 H652 0.984 . S
N647 H653 0.985 . S
C648 C642 1.379 . S
C648 C645 1.363 . S
C648 N646 1.356 . S
C649 C643 1.363 . S
C649 C644 1.379 . S
C649 N647 1.356 . S
N650 C642 1.356 . S
N650 H656 0.984 . S
N650 H657 0.984 . S
N651 C644 1.356 . S
N651 H654 0.984 . S
N651 H655 0.985 . S
H652 N647 0.984 . S
H653 N647 0.985 . S
H654 N651 0.984 . S
H655 N651 0.985 . S
H656 N650 0.984 . S
H657 N650 0.984 . S
H658 N646 0.984 . S
H659 N646 0.985 . S
C660 C661 1.363 . S
C660 C666 1.379 . S
C660 N668 1.356 . S
C661 C660 1.363 . S
C661 C667 1.363 . S
C662 C663 1.363 . S
C662 C667 1.379 . S
C662 N669 1.356 . S
C663 C662 1.363 . S
C663 C666 1.363 . S
N664 C666 1.356 . S
N664 H676 0.984 . S
N664 H677 0.985 . S
N665 C667 1.356 . S
N665 H670 0.984 . S
N665 H671 0.985 . S
C666 C660 1.379 . S
C666 C663 1.363 . S
C666 N664 1.356 . S
C667 C661 1.363 . S
C667 C662 1.379 . S
C667 N665 1.356 . S
N668 C660 1.356 . S
N668 H674 0.984 . S
N668 H675 0.984 . S
N669 C662 1.356 . S
N669 H672 0.984 . S
N669 H673 0.985 . S
H670 N665 0.984 . S
H671 N665 0.985 . S
H672 N669 0.984 . S
H673 N669 0.985 . S
H674 N668 0.984 . S
H675 N668 0.984 . S
H676 N664 0.984 . S
H677 N664 0.985 . S
C678 C679 1.363 . S
C678 C684 1.379 . S
C678 N686 1.356 . S
C679 C678 1.363 . S
C679 C685 1.363 . S
C680 C681 1.363 . S
C680 C685 1.379 . S
C680 N687 1.356 . S
C681 C680 1.363 . S
C681 C684 1.363 . S
N682 C684 1.356 . S
N682 H694 0.984 . S
N682 H695 0.985 . S
N683 C685 1.356 . S
N683 H688 0.984 . S
N683 H689 0.985 . S
C684 C678 1.379 . S
C684 C681 1.363 . S
C684 N682 1.356 . S
C685 C679 1.363 . S
C685 C680 1.379 . S
C685 N683 1.356 . S
N686 C678 1.356 . S
N686 H692 0.984 . S
N686 H693 0.984 . S
N687 C680 1.356 . S
N687 H690 0.984 . S
N687 H691 0.985 . S
H688 N683 0.984 . S
H689 N683 0.985 . S
H690 N687 0.984 . S
H691 N687 0.985 . S
H692 N686 0.984 . S
H693 N686 0.984 . S
H694 N682 0.984 . S
H695 N682 0.985 . S
C696 C697 1.363 . S
C696 C702 1.379 . S
C696 N704 1.356 . S
C697 C696 1.363 . S
C697 C703 1.363 . S
C698 C699 1.363 . S
C698 C703 1.379 . S
C698 N705 1.356 . S
C699 C698 1.363 . S
C699 C702 1.363 . S
N700 C702 1.356 . S
N700 H712 0.981 1_455 S
N700 H713 0.985 . S
N701 C703 1.356 . S
N701 H706 0.984 . S
N701 H707 0.985 . S
C702 C696 1.379 . S
C702 C699 1.363 . S
C702 N700 1.356 . S
C703 C697 1.363 . S
C703 C698 1.379 . S
C703 N701 1.356 . S
N704 C696 1.356 . S
N704 H710 0.984 . S
N704 H711 0.984 . S
N705 C698 1.356 . S
N705 H708 0.984 . S
N705 H709 0.985 . S
H706 N701 0.984 . S
H707 N701 0.985 . S
H708 N705 0.984 . S
H709 N705 0.985 . S
H710 N704 0.984 . S
H711 N704 0.984 . S
H712 N700 0.981 1_655 S
H713 N700 0.985 . S
C714 C715 1.363 . S
C714 C720 1.379 1_455 S
C714 N722 1.356 . S
C715 C714 1.363 . S
C715 C721 1.363 . S
C716 C717 1.363 1_455 S
C716 C721 1.379 . S
C716 N723 1.356 . S
C717 C716 1.363 1_655 S
C717 C720 1.363 . S
N718 C720 1.356 . S
N718 H730 0.984 . S
N718 H731 0.985 . S
N719 C721 1.356 . S
N719 H724 0.984 . S
N719 H725 0.985 . S
C720 C714 1.379 1_655 S
C720 C717 1.363 . S
C720 N718 1.356 . S
C721 C715 1.363 . S
C721 C716 1.379 . S
C721 N719 1.356 . S
N722 C714 1.356 . S
N722 H728 0.984 1_455 S
N722 H729 0.984 . S
N723 C716 1.356 . S
N723 H726 0.984 . S
N723 H727 0.985 . S
H724 N719 0.984 . S
H725 N719 0.985 . S
H726 N723 0.984 . S
H727 N723 0.985 . S
H728 N722 0.984 1_655 S
H729 N722 0.984 . S
H730 N718 0.984 . S
H731 N718 0.985 . S
C732 C733 1.363 . S
C732 C738 1.379 . S
C732 N740 1.356 . S
C733 C732 1.363 . S
C733 C739 1.363 . S
C734 C735 1.363 . S
C734 C739 1.379 . S
C734 N741 1.356 . S
C735 C734 1.363 . S
C735 C738 1.363 . S
N736 C738 1.356 . S
N736 H748 0.984 . S
N736 H749 0.985 . S
N737 C739 1.356 . S
N737 H742 0.984 . S
N737 H743 0.985 . S
C738 C732 1.379 . S
C738 C735 1.363 . S
C738 N736 1.356 . S
C739 C733 1.363 . S
C739 C734 1.379 . S
C739 N737 1.356 . S
N740 C732 1.356 . S
N740 H746 0.984 . S
N740 H747 0.984 . S
N741 C734 1.356 . S
N741 H744 0.984 . S
N741 H745 0.985 . S
H742 N737 0.984 . S
H743 N737 0.985 . S
H744 N741 0.984 . S
H745 N741 0.985 . S
H746 N740 0.984 . S
H747 N740 0.984 . S
H748 N736 0.984 . S
H749 N736 0.985 . S
C750 C751 1.363 . S
C750 C756 1.379 . S
C750 N758 1.356 . S
C751 C750 1.363 . S
C751 C757 1.363 . S
C752 C753 1.363 . S
C752 C757 1.379 . S
C752 N759 1.356 . S
C753 C752 1.363 . S
C753 C756 1.363 . S
N754 C756 1.356 . S
N754 H766 0.984 . S
N754 H767 0.985 . S
N755 C757 1.356 . S
N755 H760 0.984 . S
N755 H761 0.985 . S
C756 C750 1.379 . S
C756 C753 1.363 . S
C756 N754 1.356 . S
C757 C751 1.363 . S
C757 C752 1.379 . S
C757 N755 1.356 . S
N758 C750 1.356 . S
N758 H764 0.984 . S
N758 H765 0.984 . S
N759 C752 1.356 . S
N759 H762 0.984 . S
N759 H763 0.985 . S
H760 N755 0.984 . S
H761 N755 0.985 . S
H762 N759 0.984 . S
H763 N759 0.985 . S
H764 N758 0.984 . S
H765 N758 0.984 . S
H766 N754 0.984 . S
H767 N754 0.985 . S
C768 C769 1.363 . S
C768 C774 1.379 . S
C768 N776 1.356 . S
C769 C768 1.363 . S
C769 C775 1.363 . S
C770 C771 1.363 . S
C770 C775 1.379 1_545 S
C770 N777 1.356 . S
C771 C770 1.363 . S
C771 C774 1.363 1_545 S
N772 C774 1.356 1_545 S
N772 H784 0.984 . S
N772 H785 0.985 . S
N773 C775 1.356 . S
N773 H778 0.984 . S
N773 H779 0.985 . S
C774 C768 1.379 . S
C774 C771 1.363 1_565 S
C774 N772 1.356 1_565 S
C775 C769 1.363 . S
C775 C770 1.379 1_565 S
C775 N773 1.356 . S
N776 C768 1.356 . S
N776 H782 0.984 . S
N776 H783 0.984 . S
N777 C770 1.356 . S
N777 H780 0.984 . S
N777 H781 0.985 . S
H778 N773 0.984 . S
H779 N773 0.985 . S
H780 N777 0.984 . S
H781 N777 0.985 . S
H782 N776 0.984 . S
H783 N776 0.984 . S
H784 N772 0.984 . S
H785 N772 0.985 . S
C786 C787 1.363 . S
C786 C792 1.379 . S
C786 N794 1.356 . S
C787 C786 1.363 . S
C787 C793 1.363 . S
C788 C789 1.363 . S
C788 C793 1.379 . S
C788 N795 1.356 . S
C789 C788 1.363 . S
C789 C792 1.363 . S
N790 C792 1.356 . S
N790 H802 0.984 . S
N790 H803 0.985 . S
N791 C793 1.356 . S
N791 H796 0.984 . S
N791 H797 0.985 . S
C792 C786 1.379 . S
C792 C789 1.363 . S
C792 N790 1.356 . S
C793 C787 1.363 . S
C793 C788 1.379 . S
C793 N791 1.356 . S
N794 C786 1.356 . S
N794 H800 0.984 . S
N794 H801 0.984 . S
N795 C788 1.356 . S
N795 H798 0.984 . S
N795 H799 0.985 . S
H796 N791 0.984 . S
H797 N791 0.985 . S
H798 N795 0.984 . S
H799 N795 0.985 . S
H800 N794 0.984 . S
H801 N794 0.984 . S
H802 N790 0.984 . S
H803 N790 0.985 . S
C804 C805 1.364 . S
C804 C810 1.379 1_545 S
C804 N812 1.356 . S
C805 C804 1.364 . S
C805 C811 1.354 1_545 S
C806 C807 1.363 . S
C806 C811 1.379 . S
C806 N813 1.356 . S
C807 C806 1.363 . S
C807 C810 1.363 . S
N808 C810 1.356 . S
N808 H820 0.984 . S
N808 H821 0.985 . S
N809 C811 1.356 . S
N809 H814 0.984 . S
N809 H815 0.985 . S
C810 C804 1.379 1_565 S
C810 C807 1.363 . S
C810 N808 1.356 . S
C811 C805 1.354 1_565 S
C811 C806 1.379 . S
C811 N809 1.356 . S
N812 C804 1.356 . S
N812 H818 0.984 . S
N812 H819 0.984 . S
N813 C806 1.356 . S
N813 H816 0.984 . S
N813 H817 0.985 . S
H814 N809 0.984 . S
H815 N809 0.985 . S
H816 N813 0.984 . S
H817 N813 0.985 . S
H818 N812 0.984 . S
H819 N812 0.984 . S
H820 N808 0.984 . S
H821 N808 0.985 . S
C822 C823 1.363 . S
C822 C828 1.379 . S
C822 N830 1.356 . S
C823 C822 1.363 . S
C823 C829 1.363 . S
C824 C825 1.363 . S
C824 C829 1.379 . S
C824 N831 1.356 . S
C825 C824 1.363 . S
C825 C828 1.363 . S
N826 C828 1.356 . S
N826 H838 0.984 . S
N826 H839 0.985 . S
N827 C829 1.356 . S
N827 H832 0.984 . S
N827 H833 0.985 . S
C828 C822 1.379 . S
C828 C825 1.363 . S
C828 N826 1.356 . S
C829 C823 1.363 . S
C829 C824 1.379 . S
C829 N827 1.356 . S
N830 C822 1.356 . S
N830 H836 0.984 . S
N830 H837 0.984 . S
N831 C824 1.356 . S
N831 H834 0.984 . S
N831 H835 0.985 . S
H832 N827 0.984 . S
H833 N827 0.985 . S
H834 N831 0.984 . S
H835 N831 0.985 . S
H836 N830 0.984 . S
H837 N830 0.984 . S
H838 N826 0.984 . S
H839 N826 0.985 . S
C840 C841 1.363 . S
C840 C846 1.379 . S
C840 N848 1.356 . S
C841 C840 1.363 . S
C841 C847 1.363 . S
C842 C843 1.363 . S
C842 C847 1.379 . S
C842 N849 1.356 . S
C843 C842 1.363 . S
C843 C846 1.363 . S
N844 C846 1.356 . S
N844 H856 0.984 . S
N844 H857 0.985 . S
N845 C847 1.356 . S
N845 H850 0.984 . S
N845 H851 0.985 . S
C846 C840 1.379 . S
C846 C843 1.363 . S
C846 N844 1.356 . S
C847 C841 1.363 . S
C847 C842 1.379 . S
C847 N845 1.356 . S
N848 C840 1.356 . S
N848 H854 0.984 . S
N848 H855 0.984 . S
N849 C842 1.356 . S
N849 H852 0.984 . S
N849 H853 0.985 . S
H850 N845 0.984 . S
H851 N845 0.985 . S
H852 N849 0.984 . S
H853 N849 0.985 . S
H854 N848 0.984 . S
H855 N848 0.984 . S
H856 N844 0.984 . S
H857 N844 0.985 . S
C858 C859 1.363 . S
C858 C864 1.379 . S
C858 N866 1.356 . S
C859 C858 1.363 . S
C859 C865 1.363 . S
C860 C861 1.363 . S
C860 C865 1.379 . S
C860 N867 1.356 . S
C861 C860 1.363 . S
C861 C864 1.363 . S
N862 C864 1.356 . S
N862 H874 0.984 . S
N862 H875 0.985 . S
N863 C865 1.356 . S
N863 H868 0.984 . S
N863 H869 0.985 . S
C864 C858 1.379 . S
C864 C861 1.363 . S
C864 N862 1.356 . S
C865 C859 1.363 . S
C865 C860 1.379 . S
C865 N863 1.356 . S
N866 C858 1.356 . S
N866 H872 0.984 . S
N866 H873 0.984 . S
N867 C860 1.356 . S
N867 H870 0.984 . S
N867 H871 0.985 . S
H868 N863 0.984 . S
H869 N863 0.985 . S
H870 N867 0.984 . S
H871 N867 0.985 . S
H872 N866 0.984 . S
H873 N866 0.984 . S
H874 N862 0.984 . S
H875 N862 0.985 . S
C876 C877 1.363 . S
C876 C882 1.379 . S
C876 N884 1.356 . S
C877 C876 1.363 . S
C877 C883 1.363 . S
C878 C879 1.363 . S
C878 C883 1.379 . S
C878 N885 1.356 . S
C879 C878 1.363 . S
C879 C882 1.363 . S
N880 C882 1.356 . S
N880 H892 0.984 . S
N880 H893 0.985 . S
N881 C883 1.356 . S
N881 H886 0.984 . S
N881 H887 0.985 . S
C882 C876 1.379 . S
C882 C879 1.363 . S
C882 N880 1.356 . S
C883 C877 1.363 . S
C883 C878 1.379 . S
C883 N881 1.356 . S
N884 C876 1.356 . S
N884 H890 0.984 . S
N884 H891 0.984 . S
N885 C878 1.356 . S
N885 H888 0.984 . S
N885 H889 0.985 . S
H886 N881 0.984 . S
H887 N881 0.985 . S
H888 N885 0.984 . S
H889 N885 0.985 . S
H890 N884 0.984 . S
H891 N884 0.984 . S
H892 N880 0.984 . S
H893 N880 0.985 . S
C894 C895 1.363 . S
C894 C900 1.379 . S
C894 N902 1.356 . S
C895 C894 1.363 . S
C895 C901 1.363 . S
C896 C897 1.363 . S
C896 C901 1.379 . S
C896 N903 1.356 . S
C897 C896 1.363 . S
C897 C900 1.363 . S
N898 C900 1.356 . S
N898 H910 0.984 . S
N898 H911 0.985 . S
N899 C901 1.356 . S
N899 H904 0.984 . S
N899 H905 0.985 . S
C900 C894 1.379 . S
C900 C897 1.363 . S
C900 N898 1.356 . S
C901 C895 1.363 . S
C901 C896 1.379 . S
C901 N899 1.356 . S
N902 C894 1.356 . S
N902 H908 0.984 . S
N902 H909 0.984 . S
N903 C896 1.356 . S
N903 H906 0.984 . S
N903 H907 0.985 . S
H904 N899 0.984 . S
H905 N899 0.985 . S
H906 N903 0.984 . S
H907 N903 0.985 . S
H908 N902 0.984 . S
H909 N902 0.984 . S
H910 N898 0.984 . S
H911 N898 0.985 . S
C265 C49 1.159 . S
C267 C5 0.987 . S
C283 C60 1.331 . S
C285 C18 1.290 . S
C301 C29 1.368 . S
C303 C73 1.370 . S
C319 C38 1.042 . S
C321 C84 1.329 . S
C337 C16 1.014 . S
C339 C93 1.199 . S
C355 C104 1.188 . S
C357 C27 1.084 . S
C373 C40 1.401 . S
C375 C117 1.403 . S
C391 C126 0.976 . S
C393 C7 1.301 . S
C409 C51 1.375 . S
C411 C128 1.303 . S
C427 C95 1.475 . S
C429 C62 1.469 . S
C445 C71 0.936 . S
C447 C106 1.421 . S
C463 C82 0.956 . S
C465 C115 1.061 . S
C481 C137 0.921 . S
C483 C205 1.395 . S
C499 C216 1.384 . S
C501 C150 1.375 . S
C517 C225 1.020 . S
C519 C161 1.294 . S
C535 C172 1.380 . S
C537 C227 1.393 . S
C553 C181 1.421 . S
C555 C203 1.333 . S
C571 C236 1.264 . S
C573 C192 1.016 . S
C589 C214 1.086 . S
C591 C247 1.236 . S
C607 C194 1.280 . S
C609 C258 1.028 . S
C625 C238 1.440 . S
C627 C260 1.381 . S
C643 C139 1.399 . S
C645 C183 1.462 . S
C661 C249 1.493 . S
C663 C148 0.971 . S
C679 C170 1.043 . S
C681 C159 0.982 . S
C697 C8 1.580 . S
C699 C217 1.575 . S
C715 C19 1.565 . S
C717 C228 1.583 . S
C733 C195 1.590 . S
C735 C30 1.603 . S
C751 C41 1.620 . S
C753 C206 1.704 . S
C769 C96 1.635 . S
C771 C52 1.634 . S
C787 C63 1.661 . S
C789 C107 1.651 . S
C805 C118 1.613 . S
C807 C74 1.623 . S
C823 C129 1.670 . S
C825 C85 1.649 . S
C841 C140 1.634 . S
C843 C250 1.720 . S
C859 C151 1.632 . S
C861 C173 1.617 . S
C877 C261 1.630 . S
C879 C162 1.609 . S
C895 C239 1.799 . S
C897 C184 1.796 . S
