# Generated by pormake.
# Topology ict, (4)-cn, num edge types: 1
# Building blocks:
#     Node 0, Type 0, BuildingBlock: TATPOV_clean_sbu_0, # of connection points: 4
#     Node 1, Type 0, BuildingBlock: TATPOV_clean_sbu_0, # of connection points: 4
#     Node 2, Type 0, BuildingBlock: TATPOV_clean_sbu_0, # of connection points: 4
#     Node 3, Type 0, BuildingBlock: TATPOV_clean_sbu_0, # of connection points: 4
#     Node 4, Type 0, BuildingBlock: TATPOV_clean_sbu_0, # of connection points: 4
#     Node 5, Type 0, BuildingBlock: TATPOV_clean_sbu_0, # of connection points: 4
#     Node 6, Type 0, BuildingBlock: TATPOV_clean_sbu_0, # of connection points: 4
#     Node 7, Type 0, BuildingBlock: TATPOV_clean_sbu_0, # of connection points: 4
#     Node 8, Type 0, BuildingBlock: TATPOV_clean_sbu_0, # of connection points: 4
#     Node 9, Type 0, BuildingBlock: TATPOV_clean_sbu_0, # of connection points: 4
#     Node 10, Type 0, BuildingBlock: TATPOV_clean_sbu_0, # of connection points: 4
#     Node 11, Type 0, BuildingBlock: TATPOV_clean_sbu_0, # of connection points: 4
#     Node 12, Type 0, BuildingBlock: TATPOV_clean_sbu_0, # of connection points: 4
#     Node 13, Type 0, BuildingBlock: TATPOV_clean_sbu_0, # of connection points: 4
#     Node 14, Type 0, BuildingBlock: TATPOV_clean_sbu_0, # of connection points: 4
#     Node 15, Type 0, BuildingBlock: TATPOV_clean_sbu_0, # of connection points: 4
#     Node 16, Type 0, BuildingBlock: TATPOV_clean_sbu_0, # of connection points: 4
#     Node 17, Type 0, BuildingBlock: TATPOV_clean_sbu_0, # of connection points: 4
#     Node 18, Type 0, BuildingBlock: TATPOV_clean_sbu_0, # of connection points: 4
#     Node 19, Type 0, BuildingBlock: TATPOV_clean_sbu_0, # of connection points: 4
#     Node 20, Type 0, BuildingBlock: TATPOV_clean_sbu_0, # of connection points: 4
#     Node 21, Type 0, BuildingBlock: TATPOV_clean_sbu_0, # of connection points: 4
#     Node 22, Type 0, BuildingBlock: TATPOV_clean_sbu_0, # of connection points: 4
#     Node 23, Type 0, BuildingBlock: TATPOV_clean_sbu_0, # of connection points: 4
#     Node 24, Type 0, BuildingBlock: TATPOV_clean_sbu_0, # of connection points: 4
#     Node 25, Type 0, BuildingBlock: TATPOV_clean_sbu_0, # of connection points: 4
#     Node 26, Type 0, BuildingBlock: TATPOV_clean_sbu_0, # of connection points: 4
#     Node 27, Type 0, BuildingBlock: TATPOV_clean_sbu_0, # of connection points: 4
#     Node 28, Type 0, BuildingBlock: TATPOV_clean_sbu_0, # of connection points: 4
#     Node 29, Type 0, BuildingBlock: TATPOV_clean_sbu_0, # of connection points: 4
#     Node 30, Type 0, BuildingBlock: TATPOV_clean_sbu_0, # of connection points: 4
#     Node 31, Type 0, BuildingBlock: TATPOV_clean_sbu_0, # of connection points: 4
#     Node 32, Type 0, BuildingBlock: TATPOV_clean_sbu_0, # of connection points: 4
#     Node 33, Type 0, BuildingBlock: TATPOV_clean_sbu_0, # of connection points: 4
#     Node 34, Type 0, BuildingBlock: TATPOV_clean_sbu_0, # of connection points: 4
#     Node 35, Type 0, BuildingBlock: TATPOV_clean_sbu_0, # of connection points: 4
#     Edge 36, Type (0, 0), BuildingBlock: KIFKEQ_clean_linker_1, # of connection points: 2
#     Edge 37, Type (0, 0), BuildingBlock: KIFKEQ_clean_linker_1, # of connection points: 2
#     Edge 38, Type (0, 0), BuildingBlock: KIFKEQ_clean_linker_1, # of connection points: 2
#     Edge 39, Type (0, 0), BuildingBlock: KIFKEQ_clean_linker_1, # of connection points: 2
#     Edge 40, Type (0, 0), BuildingBlock: KIFKEQ_clean_linker_1, # of connection points: 2
#     Edge 41, Type (0, 0), BuildingBlock: KIFKEQ_clean_linker_1, # of connection points: 2
#     Edge 42, Type (0, 0), BuildingBlock: KIFKEQ_clean_linker_1, # of connection points: 2
#     Edge 43, Type (0, 0), BuildingBlock: KIFKEQ_clean_linker_1, # of connection points: 2
#     Edge 44, Type (0, 0), BuildingBlock: KIFKEQ_clean_linker_1, # of connection points: 2
#     Edge 45, Type (0, 0), BuildingBlock: KIFKEQ_clean_linker_1, # of connection points: 2
#     Edge 46, Type (0, 0), BuildingBlock: KIFKEQ_clean_linker_1, # of connection points: 2
#     Edge 47, Type (0, 0), BuildingBlock: KIFKEQ_clean_linker_1, # of connection points: 2
#     Edge 48, Type (0, 0), BuildingBlock: KIFKEQ_clean_linker_1, # of connection points: 2
#     Edge 49, Type (0, 0), BuildingBlock: KIFKEQ_clean_linker_1, # of connection points: 2
#     Edge 50, Type (0, 0), BuildingBlock: KIFKEQ_clean_linker_1, # of connection points: 2
#     Edge 51, Type (0, 0), BuildingBlock: KIFKEQ_clean_linker_1, # of connection points: 2
#     Edge 52, Type (0, 0), BuildingBlock: KIFKEQ_clean_linker_1, # of connection points: 2
#     Edge 53, Type (0, 0), BuildingBlock: KIFKEQ_clean_linker_1, # of connection points: 2
#     Edge 54, Type (0, 0), BuildingBlock: KIFKEQ_clean_linker_1, # of connection points: 2
#     Edge 55, Type (0, 0), BuildingBlock: KIFKEQ_clean_linker_1, # of connection points: 2
#     Edge 56, Type (0, 0), BuildingBlock: KIFKEQ_clean_linker_1, # of connection points: 2
#     Edge 57, Type (0, 0), BuildingBlock: KIFKEQ_clean_linker_1, # of connection points: 2
#     Edge 58, Type (0, 0), BuildingBlock: KIFKEQ_clean_linker_1, # of connection points: 2
#     Edge 59, Type (0, 0), BuildingBlock: KIFKEQ_clean_linker_1, # of connection points: 2
#     Edge 60, Type (0, 0), BuildingBlock: KIFKEQ_clean_linker_1, # of connection points: 2
#     Edge 61, Type (0, 0), BuildingBlock: KIFKEQ_clean_linker_1, # of connection points: 2
#     Edge 62, Type (0, 0), BuildingBlock: KIFKEQ_clean_linker_1, # of connection points: 2
#     Edge 63, Type (0, 0), BuildingBlock: KIFKEQ_clean_linker_1, # of connection points: 2
#     Edge 64, Type (0, 0), BuildingBlock: KIFKEQ_clean_linker_1, # of connection points: 2
#     Edge 65, Type (0, 0), BuildingBlock: KIFKEQ_clean_linker_1, # of connection points: 2
#     Edge 66, Type (0, 0), BuildingBlock: KIFKEQ_clean_linker_1, # of connection points: 2
#     Edge 67, Type (0, 0), BuildingBlock: KIFKEQ_clean_linker_1, # of connection points: 2
#     Edge 68, Type (0, 0), BuildingBlock: KIFKEQ_clean_linker_1, # of connection points: 2
#     Edge 69, Type (0, 0), BuildingBlock: KIFKEQ_clean_linker_1, # of connection points: 2
#     Edge 70, Type (0, 0), BuildingBlock: KIFKEQ_clean_linker_1, # of connection points: 2
#     Edge 71, Type (0, 0), BuildingBlock: KIFKEQ_clean_linker_1, # of connection points: 2
#     Edge 72, Type (0, 0), BuildingBlock: KIFKEQ_clean_linker_1, # of connection points: 2
#     Edge 73, Type (0, 0), BuildingBlock: KIFKEQ_clean_linker_1, # of connection points: 2
#     Edge 74, Type (0, 0), BuildingBlock: KIFKEQ_clean_linker_1, # of connection points: 2
#     Edge 75, Type (0, 0), BuildingBlock: KIFKEQ_clean_linker_1, # of connection points: 2
#     Edge 76, Type (0, 0), BuildingBlock: KIFKEQ_clean_linker_1, # of connection points: 2
#     Edge 77, Type (0, 0), BuildingBlock: KIFKEQ_clean_linker_1, # of connection points: 2
#     Edge 78, Type (0, 0), BuildingBlock: KIFKEQ_clean_linker_1, # of connection points: 2
#     Edge 79, Type (0, 0), BuildingBlock: KIFKEQ_clean_linker_1, # of connection points: 2
#     Edge 80, Type (0, 0), BuildingBlock: KIFKEQ_clean_linker_1, # of connection points: 2
#     Edge 81, Type (0, 0), BuildingBlock: KIFKEQ_clean_linker_1, # of connection points: 2
#     Edge 82, Type (0, 0), BuildingBlock: KIFKEQ_clean_linker_1, # of connection points: 2
#     Edge 83, Type (0, 0), BuildingBlock: KIFKEQ_clean_linker_1, # of connection points: 2
#     Edge 84, Type (0, 0), BuildingBlock: KIFKEQ_clean_linker_1, # of connection points: 2
#     Edge 85, Type (0, 0), BuildingBlock: KIFKEQ_clean_linker_1, # of connection points: 2
#     Edge 86, Type (0, 0), BuildingBlock: KIFKEQ_clean_linker_1, # of connection points: 2
#     Edge 87, Type (0, 0), BuildingBlock: KIFKEQ_clean_linker_1, # of connection points: 2
#     Edge 88, Type (0, 0), BuildingBlock: KIFKEQ_clean_linker_1, # of connection points: 2
#     Edge 89, Type (0, 0), BuildingBlock: KIFKEQ_clean_linker_1, # of connection points: 2
#     Edge 90, Type (0, 0), BuildingBlock: KIFKEQ_clean_linker_1, # of connection points: 2
#     Edge 91, Type (0, 0), BuildingBlock: KIFKEQ_clean_linker_1, # of connection points: 2
#     Edge 92, Type (0, 0), BuildingBlock: KIFKEQ_clean_linker_1, # of connection points: 2
#     Edge 93, Type (0, 0), BuildingBlock: KIFKEQ_clean_linker_1, # of connection points: 2
#     Edge 94, Type (0, 0), BuildingBlock: KIFKEQ_clean_linker_1, # of connection points: 2
#     Edge 95, Type (0, 0), BuildingBlock: KIFKEQ_clean_linker_1, # of connection points: 2
#     Edge 96, Type (0, 0), BuildingBlock: KIFKEQ_clean_linker_1, # of connection points: 2
#     Edge 97, Type (0, 0), BuildingBlock: KIFKEQ_clean_linker_1, # of connection points: 2
#     Edge 98, Type (0, 0), BuildingBlock: KIFKEQ_clean_linker_1, # of connection points: 2
#     Edge 99, Type (0, 0), BuildingBlock: KIFKEQ_clean_linker_1, # of connection points: 2
#     Edge 100, Type (0, 0), BuildingBlock: KIFKEQ_clean_linker_1, # of connection points: 2
#     Edge 101, Type (0, 0), BuildingBlock: KIFKEQ_clean_linker_1, # of connection points: 2
#     Edge 102, Type (0, 0), BuildingBlock: KIFKEQ_clean_linker_1, # of connection points: 2
#     Edge 103, Type (0, 0), BuildingBlock: KIFKEQ_clean_linker_1, # of connection points: 2
#     Edge 104, Type (0, 0), BuildingBlock: KIFKEQ_clean_linker_1, # of connection points: 2
#     Edge 105, Type (0, 0), BuildingBlock: KIFKEQ_clean_linker_1, # of connection points: 2
#     Edge 106, Type (0, 0), BuildingBlock: KIFKEQ_clean_linker_1, # of connection points: 2
#     Edge 107, Type (0, 0), BuildingBlock: KIFKEQ_clean_linker_1, # of connection points: 2
# Relax obj value: 0.097
# Max RMSD: 0.122
# Mean RMSD: 0.122
data_MOF--net-ict--node1-TATPOV_clean_sbu_0--edge1-KIFKEQ_clean_linker_1
_symmetry_space_group_name_H-M    P1
_symmetry_Int_Tables_number       1
_symmetry_cell_setting            triclinic
loop_
_symmetry_equiv_pos_as_xyz
'x, y, z'
_cell_length_a     70.521965
_cell_length_b     70.474861
_cell_length_c     33.809043
_cell_angle_alpha  89.981659
_cell_angle_beta   90.03954
_cell_angle_gamma 119.96504
loop_
_atom_site_label
_atom_site_type_symbol
_atom_site_fract_x
_atom_site_fract_y
_atom_site_fract_z
_atom_type_partial_charge
Zn0 Zn 0.20535 0.17333 0.10038 0.0
Zn1 Zn 0.23116 0.19887 0.04188 0.0
O2 O 0.20362 0.20045 0.03009 0.0
O3 O 0.18168 0.17859 0.07663 0.0
O4 O 0.25248 0.21591 -0.00124 0.0
O5 O 0.2082 0.14758 0.08368 0.0
O6 O 0.22752 0.16808 0.03355 0.0
C7 C 0.18505 0.19107 0.04719 0.0
C8 C 0.24309 0.2122 0.12861 0.0
O9 O 0.24671 0.21642 0.0919 0.0
O10 O 0.22673 0.19445 0.13999 0.0
C11 C 0.26398 0.23668 -0.00225 0.0
O12 O 0.26117 0.24829 0.02509 0.0
C13 C 0.21866 0.14987 0.05203 0.0
Zn14 Zn 0.81642 0.02517 0.10456 0.0
Zn15 Zn 0.79453 0.03217 0.04859 0.0
O16 O 0.79081 0.00264 0.03064 0.0
O17 O 0.806 0.99515 0.08069 0.0
O18 O 0.7792 0.04004 0.0072 0.0
O19 O 0.84504 0.05066 0.08751 0.0
O20 O 0.82627 0.05828 0.04476 0.0
C21 C 0.79579 0.98967 0.04804 0.0
C22 C 0.78105 0.02917 0.13546 0.0
O23 O 0.77675 0.02918 0.09891 0.0
O24 O 0.79827 0.02918 0.14604 0.0
C25 C 0.75849 0.03071 0.00444 0.0
O26 O 0.74628 0.0145 0.02853 0.0
C27 C 0.84445 0.06299 0.06093 0.0
Zn28 Zn 0.96069 0.794 0.09789 0.0
Zn29 Zn 0.95811 0.76641 0.04114 0.0
O30 O 0.98699 0.7936 0.02591 0.0
O31 O 0.9892 0.81667 0.07215 0.0
O32 O 0.95269 0.7439 -0.00044 0.0
O33 O 0.93243 0.79206 0.08215 0.0
O34 O 0.93071 0.76987 0.03477 0.0
C35 C -0.00292 0.81249 0.04187 0.0
C36 C 0.96172 0.75658 0.12823 0.0
O37 O 0.96148 0.75212 0.09172 0.0
O38 O 0.96065 0.77324 0.13886 0.0
C39 C 0.96293 0.73333 -0.00207 0.0
O40 O 0.9788 0.73792 0.02324 0.0
C41 C 0.92266 0.78022 0.05255 0.0
Zn42 Zn 0.17302 0.20117 0.38626 0.0
Zn43 Zn 0.19581 0.22965 0.44348 0.0
O44 O 0.19984 0.2039 0.45921 0.0
O45 O 0.18283 0.18095 0.41028 0.0
O46 O 0.21155 0.25244 0.48518 0.0
O47 O 0.14495 0.19948 0.40332 0.0
O48 O 0.16411 0.22373 0.44915 0.0
C49 C 0.19397 0.18573 0.44191 0.0
C50 C 0.20884 0.24094 0.35657 0.0
O51 O 0.21304 0.2451 0.39317 0.0
O52 O 0.19186 0.22359 0.34567 0.0
C53 C 0.23228 0.26302 0.48827 0.0
O54 O 0.24408 0.25831 0.46448 0.0
C55 C 0.14589 0.21149 0.43192 0.0
Zn56 Zn 0.78669 0.96356 0.38587 0.0
Zn57 Zn 0.76073 0.96059 0.44623 0.0
O58 O 0.78777 0.98945 0.46052 0.0
O59 O 0.80819 0.99401 0.40796 0.0
O60 O 0.73879 0.95488 0.48896 0.0
O61 O 0.78719 0.93645 0.4034 0.0
O62 O 0.76559 0.93425 0.45236 0.0
C63 C 0.80516 0.00093 0.44066 0.0
C64 C 0.74783 0.96217 0.35958 0.0
O65 O 0.7452 0.96333 0.39656 0.0
O66 O 0.76381 0.96049 0.34698 0.0
C67 C 0.72812 0.96499 0.49128 0.0
O68 O 0.73236 0.98085 0.46614 0.0
C69 C 0.77627 0.92682 0.43395 0.0
Zn70 Zn 0.02304 0.8226 0.39039 0.0
Zn71 Zn 0.02977 0.79999 0.44492 0.0
O72 O 6e-05 0.79574 0.46286 0.0
O73 O 0.99269 0.81121 0.41313 0.0
O74 O 0.03746 0.78389 0.48501 0.0
O75 O 0.04786 0.8511 0.40944 0.0
O76 O 0.0557 0.83177 0.45049 0.0
C77 C 0.98705 0.80063 0.44537 0.0
C78 C 0.0277 0.78818 0.35724 0.0
O79 O 0.02717 0.78314 0.39352 0.0
O80 O 0.02795 0.80566 0.34767 0.0
C81 C 0.02734 0.76311 0.48746 0.0
O82 O 0.01053 0.75154 0.46412 0.0
C83 C 0.06017 0.8502 0.43569 0.0
Zn84 Zn 0.78743 0.82383 0.88598 0.0
Zn85 Zn 0.75873 0.79945 0.9418 0.0
O86 O 0.78504 0.79645 0.95797 0.0
O87 O 0.80826 0.8148 0.91017 0.0
O88 O 0.7358 0.78273 0.98278 0.0
O89 O 0.78766 0.85116 0.90392 0.0
O90 O 0.76316 0.83057 0.94825 0.0
C91 C 0.8035 0.80322 0.94125 0.0
C92 C 0.74887 0.78714 0.85435 0.0
O93 O 0.74439 0.78244 0.89074 0.0
O94 O 0.76584 0.80475 0.84434 0.0
C95 C 0.72501 0.76194 0.98455 0.0
O96 O 0.72951 0.75045 0.95957 0.0
C97 C 0.77499 0.84921 0.93205 0.0
Zn98 Zn 0.16928 0.96981 0.89044 0.0
Zn99 Zn 0.19094 0.96226 0.94641 0.0
O100 O 0.19572 0.99238 0.96277 0.0
O101 O 0.18291 0.00109 0.91052 0.0
O102 O 0.2074 0.9554 0.98757 0.0
O103 O 0.14057 0.9462 0.91223 0.0
O104 O 0.15905 0.93696 0.95276 0.0
C105 C 0.19259 0.00617 0.94366 0.0
C106 C 0.20177 0.96219 0.85823 0.0
O107 O 0.20681 0.96326 0.89461 0.0
O108 O 0.18469 0.96257 0.84808 0.0
C109 C 0.22732 0.96061 0.98274 0.0
O110 O 0.23775 0.97136 0.95081 0.0
C111 C 0.14087 0.93349 0.93836 0.0
Zn112 Zn 0.02313 0.19445 0.89269 0.0
Zn113 Zn 0.02817 0.22498 0.94539 0.0
O114 O -0.00165 0.19907 0.96193 0.0
O115 O 0.99363 0.1743 0.91727 0.0
O116 O 0.03386 0.24893 0.98467 0.0
O117 O 0.04926 0.19374 0.9133 0.0
O118 O 0.05459 0.22004 0.95476 0.0
C119 C 0.98681 0.18001 0.9471 0.0
C120 C 0.02644 0.23236 0.85599 0.0
O121 O 0.02649 0.23794 0.89178 0.0
O122 O 0.02618 0.21469 0.848 0.0
C123 C 0.03052 0.2647 0.97696 0.0
O124 O 0.02228 0.26539 0.94251 0.0
C125 C 0.06037 0.20691 0.94056 0.0
Zn126 Zn 0.81864 0.78998 0.59909 0.0
Zn127 Zn 0.79578 0.76218 0.54158 0.0
O128 O 0.79434 0.78909 0.52347 0.0
O129 O 0.80914 0.81056 0.5753 0.0
O130 O 0.77959 0.73931 0.50018 0.0
O131 O 0.84651 0.79095 0.58226 0.0
O132 O 0.82665 0.76589 0.53813 0.0
C133 C 0.79966 0.80678 0.54198 0.0
C134 C 0.78154 0.75169 0.62835 0.0
O135 O 0.77732 0.74812 0.59161 0.0
O136 O 0.79941 0.76788 0.63969 0.0
C137 C 0.75886 0.72898 0.49706 0.0
O138 O 0.74723 0.73403 0.52061 0.0
C139 C 0.84501 0.77798 0.555 0.0
Zn140 Zn 0.20123 0.02804 0.60003 0.0
Zn141 Zn 0.2287 0.03029 0.54327 0.0
O142 O 0.20132 0.00172 0.52783 0.0
O143 O 0.17831 -0.0003 0.57401 0.0
O144 O 0.25088 0.03551 0.50137 0.0
O145 O 0.20362 0.05655 0.58455 0.0
O146 O 0.22582 0.05804 0.53746 0.0
C147 C 0.18241 0.99179 0.54366 0.0
C148 C 0.23844 0.02629 0.62998 0.0
O149 O 0.24286 0.02647 0.59348 0.0
O150 O 0.22196 0.02767 0.64064 0.0
C151 C 0.26154 0.02539 0.49933 0.0
O152 O 0.25733 0.00964 0.5247 0.0
C153 C 0.21568 0.06631 0.55517 0.0
Zn154 Zn 0.9647 0.1685 0.59015 0.0
Zn155 Zn 0.96219 0.19367 0.53332 0.0
O156 O 0.99113 0.19586 0.51791 0.0
O157 O 0.99425 0.17629 0.56571 0.0
O158 O 0.9564 0.21097 0.49274 0.0
O159 O 0.93681 0.142 0.57287 0.0
O160 O 0.93549 0.1627 0.52531 0.0
C161 C 0.00187 0.18807 0.53498 0.0
C162 C 0.9646 0.20594 0.6213 0.0
O163 O 0.96513 0.21064 0.58483 0.0
O164 O 0.96324 0.18805 0.63164 0.0
C165 C 0.96576 0.23175 0.49258 0.0
O166 O 0.98117 0.24301 0.51867 0.0
C167 C 0.92747 0.14425 0.54277 0.0
Zn168 Zn 0.86869 0.50718 0.43696 0.0
Zn169 Zn 0.8962 0.52986 0.37878 0.0
O170 O 0.86961 0.53241 0.36272 0.0
O171 O 0.84747 0.51561 0.41274 0.0
O172 O 0.91856 0.54554 0.3363 0.0
O173 O 0.86782 0.47931 0.4213 0.0
O174 O 0.89137 0.49843 0.37456 0.0
C175 C 0.85152 0.52616 0.38052 0.0
C176 C 0.90763 0.54439 0.46521 0.0
O177 O 0.91138 0.54821 0.42842 0.0
O178 O 0.89091 0.52703 0.47685 0.0
C179 C 0.92916 0.56627 0.33284 0.0
O180 O 0.92481 0.57825 0.35686 0.0
C181 C 0.87976 0.48031 0.39257 0.0
Zn182 Zn 0.48397 0.35934 0.4327 0.0
Zn183 Zn 0.46184 0.36469 0.37448 0.0
O184 O 0.4594 0.33574 0.35757 0.0
O185 O 0.47357 0.32884 0.4101 0.0
O186 O 0.44599 0.37156 0.33265 0.0
O187 O 0.51231 0.38542 0.41529 0.0
O188 O 0.49318 0.39107 0.37019 0.0
C189 C 0.46413 0.32311 0.37676 0.0
C190 C 0.44777 0.36229 0.46119 0.0
O191 O 0.4436 0.36141 0.42439 0.0
O192 O 0.46536 0.36344 0.47286 0.0
C193 C 0.42528 0.36101 0.32908 0.0
O194 O 0.41363 0.34418 0.35233 0.0
C195 C 0.51139 0.39685 0.38729 0.0
Zn196 Zn 0.62797 0.12131 0.44121 0.0
Zn197 Zn 0.62392 0.09375 0.38347 0.0
O198 O 0.65326 0.12016 0.368 0.0
O199 O 0.65794 0.14228 0.4178 0.0
O200 O 0.61742 0.07075 0.34226 0.0
O201 O 0.60131 0.12229 0.42352 0.0
O202 O 0.59769 0.09894 0.37691 0.0
C203 C 0.66487 0.13823 0.38608 0.0
C204 C 0.62601 0.08269 0.4709 0.0
O205 O 0.6265 0.07901 0.43419 0.0
O206 O 0.62509 0.09933 0.48217 0.0
C207 C 0.62572 0.05835 0.34317 0.0
O208 O 0.64027 0.06149 0.37046 0.0
C209 C 0.59096 0.11057 0.39413 0.0
Zn210 Zn 0.83919 0.53733 0.72217 0.0
Zn211 Zn 0.86238 0.5657 0.77903 0.0
O212 O 0.86643 0.53988 0.79451 0.0
O213 O 0.84909 0.51704 0.74558 0.0
O214 O 0.87828 0.58863 0.82056 0.0
O215 O 0.81118 0.53565 0.73962 0.0
O216 O 0.8307 0.5599 0.78518 0.0
C217 C 0.86043 0.52175 0.77696 0.0
C218 C 0.87506 0.57675 0.69184 0.0
O219 O 0.87949 0.58089 0.72839 0.0
O220 O 0.85783 0.55957 0.68119 0.0
C221 C 0.89903 0.59975 0.82303 0.0
O222 O 0.91096 0.59553 0.79867 0.0
C223 C 0.81235 0.54772 0.76828 0.0
Zn224 Zn 0.45592 0.29932 0.71711 0.0
Zn225 Zn 0.42816 0.29519 0.77448 0.0
O226 O 0.45461 0.32463 0.78955 0.0
O227 O 0.47698 0.32937 0.74025 0.0
O228 O 0.40559 0.28915 0.81612 0.0
O229 O 0.45672 0.27253 0.73497 0.0
O230 O 0.43305 0.26875 0.78099 0.0
C231 C 0.47275 0.33629 0.77178 0.0
C232 C 0.41689 0.29695 0.68741 0.0
O233 O 0.41304 0.29745 0.72403 0.0
O234 O 0.43372 0.29632 0.67644 0.0
C235 C 0.39575 0.30004 0.81934 0.0
O236 O 0.40116 0.3168 0.79575 0.0
C237 C 0.44473 0.26201 0.76397 0.0
Zn238 Zn 0.69252 0.1558 0.71762 0.0
Zn239 Zn 0.69896 0.13469 0.77596 0.0
O240 O 0.66933 0.13125 0.79199 0.0
O241 O 0.66231 0.14576 0.74028 0.0
O242 O 0.70614 0.11953 0.81876 0.0
O243 O 0.71798 0.18461 0.73415 0.0
O244 O 0.72516 0.16645 0.779 0.0
C245 C 0.65651 0.13596 0.77328 0.0
C246 C 0.69636 0.11973 0.6901 0.0
O247 O 0.69614 0.11613 0.72701 0.0
O248 O 0.69666 0.13686 0.67792 0.0
C249 C 0.69561 0.09883 0.82272 0.0
O250 O 0.6789 0.08701 0.79933 0.0
C251 C 0.73007 0.1844 0.76161 0.0
Zn252 Zn 0.45648 0.15575 0.22551 0.0
Zn253 Zn 0.42818 0.13095 0.2821 0.0
O254 O 0.45467 0.12853 0.2982 0.0
O255 O 0.47796 0.14783 0.25106 0.0
O256 O 0.40528 0.11396 0.32291 0.0
O257 O 0.4551 0.18244 0.24211 0.0
O258 O 0.43255 0.16199 0.28922 0.0
C259 C 0.47334 0.13606 0.28192 0.0
C260 C 0.41854 0.11828 0.19452 0.0
O261 O 0.41404 0.11379 0.23096 0.0
O262 O 0.43538 0.13591 0.18425 0.0
C263 C 0.39498 0.09318 0.32506 0.0
O264 O 0.40002 0.08187 0.30064 0.0
C265 C 0.44325 0.18038 0.27168 0.0
Zn266 Zn 0.83178 0.29853 0.23336 0.0
Zn267 Zn 0.85608 0.29408 0.28892 0.0
O268 O 0.85933 0.32352 0.30521 0.0
O269 O 0.84124 0.32853 0.25702 0.0
O270 O 0.87317 0.28774 0.32902 0.0
O271 O 0.80445 0.27178 0.25154 0.0
O272 O 0.8249 0.26749 0.29575 0.0
C273 C 0.85277 0.33533 0.28815 0.0
C274 C 0.86782 0.29608 0.20115 0.0
O275 O 0.87275 0.29658 0.23748 0.0
O276 O 0.85021 0.29547 0.1913 0.0
C277 C 0.89396 0.29835 0.33061 0.0
O278 O 0.90488 0.31501 0.30664 0.0
C279 C 0.8063 0.26092 0.27956 0.0
Zn280 Zn 0.69161 0.53265 0.22502 0.0
Zn281 Zn 0.69571 0.56093 0.28138 0.0
O282 O 0.66676 0.5343 0.29792 0.0
O283 O 0.66195 0.51153 0.24925 0.0
O284 O 0.7019 0.58385 0.32245 0.0
O285 O 0.71881 0.53259 0.2423 0.0
O286 O 0.72265 0.55685 0.28718 0.0
C287 C 0.65519 0.51592 0.2808 0.0
C288 C 0.69281 0.57093 0.19407 0.0
O289 O 0.69246 0.57516 0.23055 0.0
O290 O 0.69382 0.5542 0.18368 0.0
C291 C 0.69197 0.59472 0.32404 0.0
O292 O 0.67603 0.59023 0.29897 0.0
C293 C 0.72954 0.5452 0.27051 0.0
Zn294 Zn 0.49015 0.12787 0.93068 0.0
Zn295 Zn 0.46515 0.09853 0.8753 0.0
O296 O 0.4624 0.12507 0.85924 0.0
O297 O 0.481 0.14857 0.9066 0.0
O298 O 0.44713 0.07529 0.83481 0.0
O299 O 0.51689 0.12753 0.91142 0.0
O300 O 0.49616 0.10272 0.86748 0.0
C301 C 0.4693 0.14366 0.87565 0.0
C302 C 0.45441 0.0898 0.96419 0.0
O303 O 0.44947 0.08505 0.92795 0.0
O304 O 0.47192 0.10699 0.97368 0.0
C305 C 0.42762 0.06005 0.84136 0.0
O306 O 0.41821 0.05958 0.87512 0.0
C307 C 0.51484 0.11472 0.88345 0.0
Zn308 Zn 0.86497 0.36215 0.93021 0.0
Zn309 Zn 0.8953 0.36575 0.87869 0.0
O310 O 0.86895 0.33722 0.85905 0.0
O311 O 0.84367 0.33437 0.90086 0.0
O312 O 0.92057 0.37166 0.8434 0.0
O313 O 0.86822 0.3909 0.91417 0.0
O314 O 0.89254 0.39353 0.87049 0.0
C315 C 0.84931 0.327 0.87167 0.0
C316 C 0.90029 0.36041 0.9676 0.0
O317 O 0.90658 0.36141 0.93203 0.0
O318 O 0.88312 0.36117 0.97522 0.0
C319 C 0.91974 0.36499 0.8082 0.0
O320 O 0.90063 0.35274 0.79128 0.0
C321 C 0.88146 0.40128 0.88654 0.0
Zn322 Zn 0.63156 0.50222 0.92935 0.0
Zn323 Zn 0.62783 0.52745 0.87377 0.0
O324 O 0.65715 0.53009 0.85845 0.0
O325 O 0.66154 0.5113 0.90614 0.0
O326 O 0.6228 0.54548 0.83292 0.0
O327 O 0.60461 0.47554 0.90968 0.0
O328 O 0.60104 0.49647 0.86545 0.0
C329 C 0.66861 0.52305 0.87531 0.0
C330 C 0.62931 0.53805 0.96267 0.0
O331 O 0.62987 0.54315 0.92642 0.0
O332 O 0.62868 0.52038 0.97218 0.0
C333 C 0.62637 0.56477 0.83948 0.0
O334 O 0.63456 0.57412 0.87368 0.0
C335 C 0.59414 0.47772 0.88134 0.0
Zn336 Zn 0.53201 0.83569 0.76286 0.0
Zn337 Zn 0.56027 0.85971 0.70646 0.0
O338 O 0.53402 0.86291 0.69079 0.0
O339 O 0.51125 0.84498 0.73942 0.0
O340 O 0.58322 0.87639 0.6655 0.0
O341 O 0.53131 0.8082 0.74491 0.0
O342 O 0.55552 0.82845 0.69988 0.0
C343 C 0.51577 0.85641 0.70818 0.0
C344 C 0.57069 0.87214 0.79384 0.0
O345 O 0.57483 0.87678 0.75737 0.0
O346 O 0.55384 0.85454 0.80423 0.0
C347 C 0.59385 0.89718 0.66371 0.0
O348 O 0.58901 0.90855 0.68834 0.0
C349 C 0.54368 0.80991 0.71642 0.0
Zn350 Zn 0.15393 0.69333 0.76156 0.0
Zn351 Zn 0.13046 0.69783 0.70429 0.0
O352 O 0.12792 0.66868 0.68802 0.0
O353 O 0.1453 0.66361 0.73743 0.0
O354 O 0.11427 0.70442 0.6626 0.0
O355 O 0.1815 0.72035 0.74494 0.0
O356 O 0.1617 0.72451 0.69914 0.0
C357 C 0.13443 0.65695 0.70555 0.0
C358 C 0.11699 0.69504 0.79133 0.0
O359 O 0.11273 0.6948 0.7547 0.0
O360 O 0.1345 0.69577 0.8023 0.0
C361 C 0.09351 0.69483 0.66069 0.0
O362 O 0.08176 0.67898 0.68572 0.0
C363 C 0.18004 0.73118 0.71643 0.0
Zn364 Zn 0.29659 0.45673 0.76605 0.0
Zn365 Zn 0.29336 0.42912 0.70817 0.0
O366 O 0.3226 0.45567 0.69371 0.0
O367 O 0.32633 0.47838 0.74182 0.0
O368 O 0.28764 0.40671 0.66634 0.0
O369 O 0.26883 0.45591 0.74889 0.0
O370 O 0.26702 0.43397 0.7008 0.0
C371 C 0.33371 0.47409 0.71093 0.0
C372 C 0.29537 0.41807 0.79541 0.0
O373 O 0.29561 0.41408 0.75877 0.0
O374 O 0.29471 0.4349 0.80643 0.0
C375 C 0.29763 0.3959 0.66467 0.0
O376 O 0.31332 0.40014 0.69019 0.0
C377 C 0.2593 0.44457 0.71864 0.0
Zn378 Zn 0.49971 0.86694 0.05627 0.0
Zn379 Zn 0.52447 0.89601 0.11086 0.0
O380 O 0.52715 0.86978 0.12923 0.0
O381 O 0.50874 0.8464 0.08158 0.0
O382 O 0.543 0.9209 0.1475 0.0
O383 O 0.47286 0.86733 0.07444 0.0
O384 O 0.49353 0.89201 0.11857 0.0
C385 C 0.52017 0.85117 0.11286 0.0
C386 C 0.53585 0.90395 0.02217 0.0
O387 O 0.54075 0.90867 0.05843 0.0
O388 O 0.51797 0.8872 0.01265 0.0
C389 C 0.54955 0.92 0.18208 0.0
O390 O 0.54389 0.90087 0.19791 0.0
C391 C 0.47488 0.8801 0.10246 0.0
Zn392 Zn 0.12208 0.63248 0.05113 0.0
Zn393 Zn 0.09367 0.62789 0.10751 0.0
O394 O 0.12005 0.65717 0.12376 0.0
O395 O 0.14296 0.66228 0.07522 0.0
O396 O 0.07086 0.62139 0.14898 0.0
O397 O 0.12266 0.6055 0.06827 0.0
O398 O 0.09835 0.60127 0.1133 0.0
C399 C 0.13839 0.66895 0.1067 0.0
C400 C 0.08339 0.63046 0.02026 0.0
O401 O 0.07907 0.63069 0.05674 0.0
O402 O 0.10033 0.62988 0.00992 0.0
C403 C 0.05996 0.63126 0.15132 0.0
O404 O 0.06421 0.6473 0.12661 0.0
C405 C 0.11019 0.59465 0.09653 0.0
Zn406 Zn 0.35895 0.48838 0.05058 0.0
Zn407 Zn 0.36196 0.46414 0.109 0.0
O408 O 0.3325 0.46115 0.12261 0.0
O409 O 0.32897 0.48001 0.07397 0.0
O410 O 0.36769 0.44759 0.15117 0.0
O411 O 0.38637 0.51546 0.06822 0.0
O412 O 0.38796 0.49547 0.11683 0.0
C413 C 0.32142 0.46834 0.10484 0.0
C414 C 0.36077 0.45121 0.02181 0.0
O415 O 0.36026 0.44699 0.05851 0.0
O416 O 0.36137 0.46863 0.01051 0.0
C417 C 0.35818 0.42681 0.15246 0.0
O418 O 0.34292 0.41523 0.12634 0.0
C419 C 0.39566 0.51377 0.09893 0.0
Zn420 Zn 0.12349 0.48729 0.55359 0.0
Zn421 Zn 0.0948 0.46431 0.60996 0.0
O422 O 0.12096 0.4616 0.62848 0.0
O423 O 0.14307 0.4766 0.5775 0.0
O424 O 0.07105 0.44787 0.65002 0.0
O425 O 0.12521 0.51535 0.57142 0.0
O426 O 0.09969 0.49565 0.61495 0.0
C427 C 0.1387 0.46665 0.6104 0.0
C428 C 0.0851 0.45152 0.52211 0.0
O429 O 0.08104 0.44695 0.55863 0.0
O430 O 0.10178 0.46921 0.51161 0.0
C431 C 0.05858 0.4272 0.64888 0.0
O432 O 0.06199 0.41577 0.62201 0.0
C433 C 0.11234 0.51407 0.5987 0.0
Zn434 Zn 0.50136 0.63078 0.55302 0.0
Zn435 Zn 0.52614 0.62681 0.60905 0.0
O436 O 0.52905 0.65627 0.62412 0.0
O437 O 0.51061 0.66085 0.57604 0.0
O438 O 0.54397 0.62169 0.65012 0.0
O439 O 0.47446 0.60407 0.57261 0.0
O440 O 0.49497 0.60036 0.61758 0.0
C441 C 0.52223 0.66785 0.60704 0.0
C442 C 0.53701 0.62814 0.52025 0.0
O443 O 0.54193 0.62863 0.55659 0.0
O444 O 0.51946 0.62766 0.51043 0.0
C445 C 0.56358 0.62614 0.64421 0.0
O446 O 0.57325 0.63522 0.61068 0.0
C447 C 0.47633 0.59365 0.6014 0.0
Zn448 Zn 0.35931 0.86914 0.55485 0.0
Zn449 Zn 0.36326 0.89728 0.61204 0.0
O450 O 0.33415 0.87045 0.62746 0.0
O451 O 0.32954 0.84793 0.57845 0.0
O452 O 0.36855 0.92 0.65366 0.0
O453 O 0.38638 0.8692 0.57291 0.0
O454 O 0.3901 0.89299 0.61875 0.0
C455 C 0.32264 0.85217 0.60998 0.0
C456 C 0.36083 0.90725 0.52384 0.0
O457 O 0.36051 0.91131 0.56041 0.0
O458 O 0.36171 0.89051 0.51311 0.0
C459 C 0.36361 0.9349 0.64853 0.0
O460 O 0.35381 0.93522 0.6157 0.0
C461 C 0.39695 0.88141 0.60166 0.0
Zn462 Zn 0.15332 0.45821 0.25892 0.0
Zn463 Zn 0.12869 0.42936 0.20301 0.0
O464 O 0.12563 0.4558 0.18752 0.0
O465 O 0.14393 0.47886 0.23564 0.0
O466 O 0.11109 0.40622 0.16209 0.0
O467 O 0.18035 0.45855 0.23972 0.0
O468 O 0.15993 0.43416 0.19495 0.0
C469 C 0.13235 0.4742 0.20458 0.0
C470 C 0.11776 0.41995 0.29181 0.0
O471 O 0.11283 0.41548 0.25548 0.0
O472 O 0.13529 0.43704 0.30158 0.0
C473 C 0.09157 0.39085 0.16805 0.0
O474 O 0.08178 0.39025 0.20143 0.0
C475 C 0.17854 0.44616 0.21116 0.0
Zn476 Zn 0.53182 0.69291 0.26499 0.0
Zn477 Zn 0.55932 0.69803 0.20679 0.0
O478 O 0.53256 0.66945 0.18935 0.0
O479 O 0.51134 0.6627 0.24154 0.0
O480 O 0.58194 0.70483 0.16485 0.0
O481 O 0.53036 0.7196 0.24828 0.0
O482 O 0.55503 0.72486 0.2033 0.0
C483 C 0.51503 0.65699 0.20817 0.0
C484 C 0.57056 0.69465 0.29333 0.0
O485 O 0.57392 0.694 0.25651 0.0
O486 O 0.55429 0.69609 0.30507 0.0
C487 C 0.59242 0.69458 0.16144 0.0
O488 O 0.58774 0.67801 0.18509 0.0
C489 C 0.54293 0.73101 0.22054 0.0
Zn490 Zn 0.29539 0.83596 0.26623 0.0
Zn491 Zn 0.29127 0.86068 0.20987 0.0
O492 O 0.32067 0.86362 0.19469 0.0
O493 O 0.32541 0.84525 0.24275 0.0
O494 O 0.28597 0.87839 0.16885 0.0
O495 O 0.2685 0.80903 0.24688 0.0
O496 O 0.26475 0.82954 0.20198 0.0
C497 C 0.33233 0.85688 0.21174 0.0
C498 C 0.29301 0.87193 0.29849 0.0
O499 O 0.29334 0.87664 0.26209 0.0
O500 O 0.29251 0.8544 0.30859 0.0
C501 C 0.29022 0.89794 0.17496 0.0
O502 O 0.29927 0.90761 0.20851 0.0
C503 C 0.25799 0.81092 0.21827 0.0
H504 H 0.37892 0.26439 0.8678 0.0
H505 H 0.3702 0.31861 0.83318 0.0
H506 H 0.34665 0.25031 0.90957 0.0
H507 H 0.33763 0.30428 0.8751 0.0
H508 H 0.29407 0.28041 0.99015 0.0
H509 H 0.32619 0.29704 0.94698 0.0
H510 H 0.30679 0.23352 0.897 0.0
H511 H 0.27493 0.2169 0.94002 0.0
C512 C 0.37019 0.27338 0.8692 0.0
C513 C 0.37707 0.29256 0.84693 0.0
C514 C 0.3516 0.26521 0.89296 0.0
C515 C 0.33946 0.27604 0.89517 0.0
C516 C 0.34669 0.29562 0.87397 0.0
C517 C 0.3653 0.30377 0.84992 0.0
C518 C 0.29655 0.27005 0.96964 0.0
C519 C 0.28206 0.2473 0.96882 0.0
C520 C 0.31491 0.27959 0.94489 0.0
C521 C 0.31914 0.26652 0.91907 0.0
C522 C 0.30417 0.24394 0.91718 0.0
C523 C 0.28584 0.23445 0.94169 0.0
H524 H 0.73018 0.11861 0.87361 0.0
H525 H 0.67855 0.05491 0.8361 0.0
H526 H 0.74443 0.10123 0.91727 0.0
H527 H 0.69309 0.0375 0.87956 0.0
H528 H 0.71487 0.01636 0.99331 0.0
H529 H 0.69865 0.03231 0.95023 0.0
H530 H 0.76311 0.08011 0.90903 0.0
H531 H 0.77932 0.06448 0.95227 0.0
C532 C 0.72182 0.10089 0.87474 0.0
C533 C 0.70329 0.08815 0.85118 0.0
C534 C 0.73008 0.09093 0.89959 0.0
C535 C 0.72003 0.068 0.90152 0.0
C536 C 0.70113 0.05521 0.87884 0.0
C537 C 0.69286 0.0652 0.85386 0.0
C538 C 0.72556 0.0302 0.97489 0.0
C539 C 0.7484 0.03923 0.97642 0.0
C540 C 0.71626 0.03928 0.95013 0.0
C541 C 0.72962 0.0576 0.92656 0.0
C542 C 0.7524 0.06626 0.92742 0.0
C543 C 0.76167 0.05719 0.95203 0.0
H544 H 0.97946 0.70567 0.98862 0.0
H545 H 0.92936 0.71856 0.94488 0.0
H546 H 0.96485 0.67297 0.94696 0.0
H547 H 0.91502 0.68616 0.90326 0.0
H548 H 0.87874 0.61386 0.87405 0.0
H549 H 0.89545 0.64633 0.91566 0.0
H550 H 0.95957 0.66106 0.87592 0.0
H551 H 0.94284 0.62829 0.83429 0.0
C552 C 0.9655 0.70168 0.96988 0.0
C553 C 0.95548 0.71464 0.97031 0.0
C554 C 0.95718 0.68299 0.94597 0.0
C555 C 0.93863 0.67687 0.92225 0.0
C556 C 0.92907 0.69022 0.92182 0.0
C557 C 0.9374 0.70889 0.94551 0.0
C558 C 0.89641 0.62389 0.87429 0.0
C559 C 0.90944 0.61855 0.85061 0.0
C560 C 0.90597 0.6426 0.89797 0.0
C561 C 0.9288 0.65639 0.89865 0.0
C562 C 0.94193 0.6507 0.87604 0.0
C563 C 0.93234 0.63197 0.85214 0.0
H564 H 0.31325 0.36746 0.65579 0.0
H565 H 0.26475 0.38227 0.61043 0.0
H566 H 0.2983 0.33493 0.61363 0.0
H567 H 0.2501 0.35006 0.56831 0.0
H568 H 0.21236 0.27787 0.53853 0.0
H569 H 0.22949 0.3102 0.58043 0.0
H570 H 0.29336 0.32326 0.54243 0.0
H571 H 0.27619 0.29061 0.50051 0.0
C572 C 0.29958 0.36393 0.63658 0.0
C573 C 0.29008 0.37736 0.63673 0.0
C574 C 0.29107 0.34534 0.61239 0.0
C575 C 0.27286 0.33982 0.58809 0.0
C576 C 0.26387 0.35366 0.58733 0.0
C577 C 0.27238 0.37221 0.61131 0.0
C578 C 0.23006 0.28751 0.53921 0.0
C579 C 0.2429 0.28173 0.51595 0.0
C580 C 0.23987 0.30613 0.56305 0.0
C581 C 0.26275 0.31941 0.5643 0.0
C582 C 0.27568 0.31329 0.5421 0.0
C583 C 0.26584 0.29464 0.51804 0.0
H584 H 0.60915 0.87812 0.61239 0.0
H585 H 0.62159 0.94131 0.65413 0.0
H586 H 0.64194 0.89595 0.57184 0.0
H587 H 0.65469 0.95918 0.61351 0.0
H588 H 0.69987 0.98075 0.50111 0.0
H589 H 0.66707 0.9653 0.54253 0.0
H590 H 0.68169 0.91633 0.5857 0.0
H591 H 0.71419 0.93151 0.54432 0.0
C592 C 0.61881 0.89583 0.61281 0.0
C593 C 0.61282 0.90828 0.63673 0.0
C594 C 0.6377 0.90604 0.58974 0.0
C595 C 0.65103 0.92894 0.58993 0.0
C596 C 0.64469 0.9415 0.61276 0.0
C597 C 0.62578 0.93125 0.63606 0.0
C598 C 0.69618 0.96681 0.51973 0.0
C599 C 0.70954 0.95724 0.51915 0.0
C600 C 0.67743 0.95802 0.54349 0.0
C601 C 0.67168 0.93944 0.5669 0.0
C602 C 0.68548 0.93039 0.56735 0.0
C603 C 0.70419 0.9392 0.5438 0.0
H604 H 0.06274 0.78247 0.53655 0.0
H605 H 0.01071 0.71906 0.49869 0.0
H606 H 0.07779 0.76478 0.57745 0.0
H607 H 0.02603 0.70133 0.5395 0.0
H608 H 0.04967 0.68006 0.65151 0.0
H609 H 0.03268 0.69582 0.60989 0.0
H610 H 0.09639 0.74367 0.56574 0.0
H611 H 0.11337 0.7282 0.60745 0.0
C612 C 0.05446 0.76475 0.53701 0.0
C613 C 0.03558 0.75219 0.51417 0.0
C614 C 0.06319 0.75461 0.56027 0.0
C615 C 0.05324 0.73167 0.56134 0.0
C616 C 0.03401 0.71905 0.53937 0.0
C617 C 0.02529 0.72921 0.51592 0.0
C618 C 0.06002 0.69384 0.63269 0.0
C619 C 0.08289 0.70297 0.63304 0.0
C620 C 0.05028 0.70281 0.60878 0.0
C621 C 0.06323 0.72114 0.58491 0.0
C622 C 0.08601 0.72982 0.58439 0.0
C623 C 0.09572 0.72084 0.60813 0.0
H624 H 0.60688 0.72913 0.1107 0.0
H625 H 0.6201 0.67834 0.14908 0.0
H626 H 0.63903 0.74428 0.06842 0.0
H627 H 0.65257 0.69378 0.10682 0.0
H628 H 0.69669 0.71789 -0.0063 0.0
H629 H 0.66416 0.70034 0.03576 0.0
H630 H 0.67882 0.76373 0.07999 0.0
H631 H 0.71102 0.78126 0.03793 0.0
C632 C 0.61659 0.72113 0.11002 0.0
C633 C 0.611 0.70261 0.1335 0.0
C634 C 0.6351 0.72991 0.08596 0.0
C635 C 0.64847 0.72039 0.08471 0.0
C636 C 0.64253 0.70143 0.10712 0.0
C637 C 0.62398 0.69265 0.13138 0.0
C638 C 0.69304 0.72805 0.01262 0.0
C639 C 0.70635 0.75099 0.01222 0.0
C640 C 0.67445 0.71799 0.03676 0.0
C641 C 0.66881 0.73069 0.06077 0.0
C642 C 0.6825 0.75354 0.06121 0.0
C643 C 0.70105 0.76357 0.03726 0.0
H644 H 0.28469 0.93308 0.18768 0.0
H645 H 0.27996 0.88768 0.09702 0.0
H646 H 0.27072 0.94975 0.14119 0.0
H647 H 0.26631 0.90467 0.05044 0.0
H648 H 0.26382 0.9573 0.97114 0.0
H649 H 0.28069 0.94345 0.01749 0.0
H650 H 0.23249 0.93403 0.1056 0.0
H651 H 0.21533 0.94753 0.05914 0.0
C652 C 0.28092 0.92683 0.15773 0.0
C653 C 0.28334 0.90902 0.14599 0.0
C654 C 0.27283 0.93631 0.13127 0.0
C655 C 0.26743 0.92842 0.0924 0.0
C656 C 0.27049 0.91109 0.08024 0.0
C657 C 0.2782 0.90134 0.10691 0.0
C658 C 0.2569 0.95241 0.00048 0.0
C659 C 0.23822 0.95344 0.01152 0.0
C660 C 0.2665 0.94441 0.02685 0.0
C661 C 0.25785 0.9377 0.06497 0.0
C662 C 0.23953 0.93925 0.0764 0.0
C663 C 0.22967 0.94687 0.04979 0.0
H664 H 0.10303 0.39027 0.09103 0.0
H665 H 0.05558 0.35064 0.17981 0.0
H666 H 0.08637 0.35956 0.04472 0.0
H667 H 0.03913 0.31992 0.13354 0.0
H668 H 0.0403 0.26525 0.05535 0.0
H669 H 0.05335 0.29605 0.10128 0.0
H670 H 0.04937 0.33611 0.0087 0.0
H671 H 0.03609 0.3053 0.96277 0.0
C672 C 0.08898 0.37507 0.10056 0.0
C673 C 0.08065 0.37285 0.13909 0.0
C674 C 0.0794 0.35755 0.07402 0.0
C675 C 0.06154 0.33739 0.08568 0.0
C676 C 0.053 0.33526 0.12396 0.0
C677 C 0.06235 0.35288 0.15031 0.0
C678 C 0.04205 0.28057 0.04487 0.0
C679 C 0.03722 0.28287 0.00543 0.0
C680 C 0.04941 0.29814 0.0712 0.0
C681 C 0.0524 0.31843 0.05843 0.0
C682 C 0.04733 0.32067 0.01916 0.0
C683 C 0.03964 0.303 0.99299 0.0
H684 H 0.67656 0.62335 0.33242 0.0
H685 H 0.72532 0.60882 0.37738 0.0
H686 H 0.69191 0.65628 0.37358 0.0
H687 H 0.74038 0.64143 0.41855 0.0
H688 H 0.77841 0.71373 0.44678 0.0
H689 H 0.76096 0.68114 0.40557 0.0
H690 H 0.69738 0.6686 0.44431 0.0
H691 H 0.71486 0.70151 0.4855 0.0
C692 C 0.69038 0.62704 0.35133 0.0
C693 C 0.69983 0.61356 0.35137 0.0
C694 C 0.69912 0.64585 0.37495 0.0
C695 C 0.71751 0.65156 0.39887 0.0
C696 C 0.72647 0.63769 0.39981 0.0
C697 C 0.71773 0.61891 0.37638 0.0
C698 C 0.7607 0.70415 0.4464 0.0
C699 C 0.74804 0.71015 0.46968 0.0
C700 C 0.75071 0.68538 0.42296 0.0
C701 C 0.72782 0.67216 0.42214 0.0
C702 C 0.71506 0.67851 0.44431 0.0
C703 C 0.72509 0.69732 0.46795 0.0
H704 H 0.29008 0.0099 0.4901 0.0
H705 H 0.27493 0.05827 0.44521 0.0
H706 H 0.32273 0.02524 0.4482 0.0
H707 H 0.30726 0.07332 0.40345 0.0
H708 H 0.37962 0.11212 0.37646 0.0
H709 H 0.34707 0.09416 0.41755 0.0
H710 H 0.33482 0.03099 0.37658 0.0
H711 H 0.3677 0.04899 0.33535 0.0
C712 C 0.29356 0.02361 0.47103 0.0
C713 C 0.28003 0.033 0.47129 0.0
C714 C 0.31221 0.03234 0.447 0.0
C715 C 0.31768 0.05066 0.42303 0.0
C716 C 0.30369 0.05947 0.42224 0.0
C717 C 0.28508 0.05074 0.44603 0.0
C718 C 0.37012 0.09439 0.3763 0.0
C719 C 0.37618 0.08199 0.35236 0.0
C720 C 0.35138 0.08412 0.39968 0.0
C721 C 0.33825 0.0612 0.39982 0.0
C722 C 0.34467 0.04869 0.37705 0.0
C723 C 0.36345 0.059 0.35341 0.0
H724 H 0.87595 0.2628 0.37941 0.0
H725 H 0.93827 0.31598 0.33991 0.0
H726 H 0.89477 0.24791 0.41753 0.0
H727 H 0.95712 0.30084 0.37811 0.0
H728 H 0.97997 0.2757 0.48702 0.0
H729 H 0.96353 0.29314 0.44833 0.0
H730 H 0.91644 0.23017 0.40019 0.0
H731 H 0.93262 0.21274 0.43879 0.0
C732 C 0.89368 0.2714 0.379 0.0
C733 C 0.9056 0.2905 0.35637 0.0
C734 C 0.90445 0.26277 0.40066 0.0
C735 C 0.9274 0.27305 0.40035 0.0
C736 C 0.93941 0.29259 0.3789 0.0
C737 C 0.9286 0.30121 0.35699 0.0
C738 C 0.96625 0.26562 0.46788 0.0
C739 C 0.95749 0.2428 0.46626 0.0
C740 C 0.95688 0.27562 0.44569 0.0
C741 C 0.93852 0.26296 0.4217 0.0
C742 C 0.93031 0.24028 0.41904 0.0
C743 C 0.93969 0.23033 0.44099 0.0
H744 H 0.03175 0.64699 0.16225 0.0
H745 H 0.04627 0.59764 0.20404 0.0
H746 H -0.00035 0.63199 0.20537 0.0
H747 H 0.01449 0.58294 0.24719 0.0
H748 H 0.94295 0.54597 0.28117 0.0
H749 H 0.97461 0.56279 0.23767 0.0
H750 H 0.98887 0.62696 0.27661 0.0
H751 H 0.9569 0.61012 0.32006 0.0
C752 C 0.02822 0.63309 0.18084 0.0
C753 C 0.04148 0.62342 0.17948 0.0
C754 C 0.00988 0.62456 0.2056 0.0
C755 C 0.00442 0.60614 0.22931 0.0
C756 C 0.01803 0.59688 0.22869 0.0
C757 C 0.03634 0.60542 0.20412 0.0
C758 C 0.95272 0.56368 0.28036 0.0
C759 C 0.94747 0.5767 0.30431 0.0
C760 C 0.97095 0.5733 0.25559 0.0
C761 C 0.98438 0.59618 0.2541 0.0
C762 C 0.97878 0.60928 0.27706 0.0
C763 C 0.96051 0.59962 0.30201 0.0
H764 H 0.38131 0.34367 0.31575 0.0
H765 H 0.4448 0.3964 0.28005 0.0
H766 H 0.36371 0.35874 0.27391 0.0
H767 H 0.42723 0.41119 0.23821 0.0
H768 H 0.3904 0.44639 0.20782 0.0
H769 H 0.40551 0.42929 0.25008 0.0
H770 H 0.35906 0.36581 0.20282 0.0
H771 H 0.34367 0.38293 0.16053 0.0
C772 C 0.3915 0.35834 0.29875 0.0
C773 C 0.41446 0.36892 0.30146 0.0
C774 C 0.38141 0.36691 0.27474 0.0
C775 C 0.3941 0.38628 0.25319 0.0
C776 C 0.41702 0.39648 0.25508 0.0
C777 C 0.42708 0.38789 0.27888 0.0
C778 C 0.38325 0.42877 0.20656 0.0
C779 C 0.36593 0.41604 0.18055 0.0
C780 C 0.39203 0.41899 0.23062 0.0
C781 C 0.38367 0.39625 0.22935 0.0
C782 C 0.3658 0.38338 0.20447 0.0
C783 C 0.35704 0.39319 0.1802 0.0
H784 H 0.56381 0.92482 0.25893 0.0
H785 H 0.56596 0.96178 0.15528 0.0
H786 H 0.58429 0.95895 0.296 0.0
H787 H 0.58671 0.99571 0.19197 0.0
H788 H 0.59546 0.04716 0.28436 0.0
H789 H 0.57883 0.01398 0.24468 0.0
H790 H 0.61997 0.99279 0.3016 0.0
H791 H 0.63642 0.02595 0.34205 0.0
C792 C 0.56881 0.9402 0.24396 0.0
C793 C 0.56304 0.94055 0.20429 0.0
C794 C 0.58067 0.95976 0.26511 0.0
C795 C 0.587 0.98003 0.24698 0.0
C796 C 0.58176 0.98036 0.20699 0.0
C797 C 0.56991 0.96087 0.18593 0.0
C798 C 0.60113 0.03555 0.28823 0.0
C799 C 0.61722 0.03918 0.31649 0.0
C800 C 0.59166 0.01655 0.26532 0.0
C801 C 0.59805 0.00071 0.27004 0.0
C802 C 0.61451 0.00456 0.29763 0.0
C803 C 0.62404 0.02363 0.32058 0.0
H804 H 0.36731 0.97494 0.63731 0.0
H805 H 0.37569 0.93529 0.72545 0.0
H806 H 0.3813 0.00549 0.68397 0.0
H807 H 0.38938 0.96581 0.7722 0.0
H808 H 0.39217 0.01967 0.85444 0.0
H809 H 0.37485 0.98906 0.80802 0.0
H810 H 0.41988 0.02918 0.71681 0.0
H811 H 0.43748 0.05977 0.76329 0.0
C812 C 0.37189 0.97266 0.66677 0.0
C813 C 0.37048 0.95275 0.67771 0.0
C814 C 0.37998 0.99017 0.69333 0.0
C815 C 0.38643 0.98796 0.73153 0.0
C816 C 0.38438 0.96786 0.74294 0.0
C817 C 0.37665 0.95046 0.71616 0.0
C818 C 0.39827 0.02203 0.82441 0.0
C819 C 0.41623 0.04209 0.81251 0.0
C820 C 0.38842 0.00448 0.79798 0.0
C821 C 0.39608 0.00681 0.75898 0.0
C822 C 0.4136 0.02705 0.7467 0.0
C823 C 0.42371 0.04448 0.77332 0.0
H824 H 0.04726 0.44609 0.70783 0.0
H825 H 0.0259 0.38425 0.64881 0.0
H826 H 0.01396 0.42946 0.74714 0.0
H827 H 0.9926 0.36749 0.68879 0.0
H828 H 0.92471 0.35623 0.73104 0.0
H829 H 0.95891 0.36987 0.6943 0.0
H830 H -0.00453 0.40268 0.79941 0.0
H831 H 0.96147 0.38945 0.83587 0.0
C832 C 0.03558 0.42887 0.70355 0.0
C833 C 0.03922 0.41652 0.67507 0.0
C834 C 0.01652 0.41931 0.72625 0.0
C835 C 0.00062 0.39716 0.72104 0.0
C836 C 0.00444 0.38466 0.69315 0.0
C837 C 0.02358 0.39423 0.67047 0.0
C838 C 0.94006 0.36625 0.74634 0.0
C839 C 0.94034 0.37192 0.78627 0.0
C840 C 0.95965 0.37395 0.72536 0.0
C841 C 0.97989 0.38749 0.7439 0.0
C842 C 0.98014 0.39259 0.78411 0.0
C843 C 0.96062 0.38492 0.80504 0.0
H844 H 0.61657 0.55451 0.76139 0.0
H845 H 0.62088 0.60002 0.85145 0.0
H846 H 0.6032 0.57145 0.71423 0.0
H847 H 0.60728 0.61673 0.80432 0.0
H848 H 0.55257 0.61501 0.72166 0.0
H849 H 0.56987 0.60203 0.76881 0.0
H850 H 0.61692 0.6091 0.68002 0.0
H851 H 0.59985 0.62233 0.63289 0.0
C852 C 0.6148 0.5682 0.77103 0.0
C853 C 0.61971 0.57589 0.81014 0.0
C854 C 0.60725 0.57794 0.74401 0.0
C855 C 0.60417 0.59532 0.75577 0.0
C856 C 0.60939 0.60324 0.79465 0.0
C857 C 0.61727 0.59374 0.8215 0.0
C858 C 0.56672 0.61397 0.7123 0.0
C859 C 0.57482 0.61963 0.67355 0.0
C860 C 0.57666 0.60665 0.73933 0.0
C861 C 0.59466 0.60453 0.72793 0.0
C862 C 0.60296 0.61047 0.6894 0.0
C863 C 0.59325 0.61813 0.66256 0.0
H864 H 0.21169 0.04485 0.90426 0.0
H865 H 0.18966 0.01664 0.01993 0.0
H866 H 0.22227 0.08096 0.93032 0.0
H867 H 0.1982 0.05223 0.04575 0.0
H868 H 0.22457 0.1198 0.092 0.0
H869 H 0.22225 0.08651 0.066 0.0
H870 H 0.20914 0.10284 0.94938 0.0
H871 H 0.21356 0.13697 0.97525 0.0
C872 C 0.20899 0.04646 0.93532 0.0
C873 C 0.19986 0.02807 0.96015 0.0
C874 C 0.21483 0.06714 0.95032 0.0
C875 C 0.21093 0.0698 0.99026 0.0
C876 C 0.20199 0.05122 0.01509 0.0
C877 C 0.19686 0.03067 0.00031 0.0
C878 C 0.2216 0.11633 0.06067 0.0
C879 C 0.21927 0.13086 0.03555 0.0
C880 C 0.21998 0.09709 0.04572 0.0
C881 C 0.21514 0.09151 0.00548 0.0
C882 C 0.21329 0.1065 0.98031 0.0
C883 C 0.21568 0.12609 -0.0049 0.0
H884 H 0.95995 0.1882 -0.00583 0.0
H885 H 0.9658 0.13575 0.94026 0.0
H886 H 0.92474 0.16108 0.02334 0.0
H887 H 0.93115 0.10897 0.97 0.0
H888 H 0.88578 0.07086 0.07444 0.0
H889 H 0.91995 0.10049 0.04812 0.0
H890 H 0.88463 0.1281 0.9906 0.0
H891 H 0.85002 0.09803 0.01634 0.0
C892 C 0.95377 0.17095 0.98866 0.0
C893 C 0.96562 0.16408 0.96499 0.0
C894 C 0.93365 0.15552 0.00514 0.0
C895 C 0.92542 0.13305 -0.00113 0.0
C896 C 0.93727 0.12623 0.97532 0.0
C897 C 0.95704 0.14157 0.95826 0.0
C898 C 0.88521 0.08331 0.0565 0.0
C899 C 0.86516 0.08203 0.04727 0.0
C900 C 0.90478 0.10022 0.04143 0.0
C901 C 0.9048 0.11644 0.0174 0.0
C902 C 0.88494 0.11576 0.00928 0.0
C903 C 0.86521 0.09855 0.02381 0.0
H904 H 0.80169 0.78363 0.0123 0.0
H905 H 0.84129 0.80948 0.90711 0.0
H906 H 0.82848 0.77479 0.03948 0.0
H907 H 0.86796 0.80069 0.93437 0.0
H908 H 0.90276 0.76557 0.98052 0.0
H909 H 0.87213 0.76855 0.9536 0.0
H910 H 0.86708 0.79689 0.06354 0.0
H911 H 0.8975 0.79389 0.09046 0.0
C912 C 0.81604 0.78736 -0.00508 0.0
C913 C 0.81942 0.7974 0.95765 0.0
C914 C 0.83138 0.78232 0.01053 0.0
C915 C 0.85027 0.78701 0.989 0.0
C916 C 0.85342 0.79663 0.95143 0.0
C917 C 0.83822 0.80185 0.936 0.0
C918 C 0.8949 0.77214 -0.0009 0.0
C919 C 0.90266 0.77964 0.03751 0.0
C920 C 0.87747 0.77396 0.98362 0.0
C921 C 0.86732 0.78306 0.00641 0.0
C922 C 0.87447 0.78966 0.04537 0.0
C923 C 0.892 0.78805 0.06069 0.0
H924 H 0.13907 0.22646 0.50219 0.0
H925 H 0.10673 0.19428 0.39347 0.0
H926 H 0.10465 0.22244 0.52691 0.0
H927 H 0.07249 0.19037 0.41817 0.0
H928 H 0.02012 0.20586 0.46324 0.0
H929 H 0.05577 0.21365 0.43788 0.0
H930 H 0.06818 0.1895 0.54655 0.0
H931 H 0.03262 0.18163 0.57193 0.0
C932 C 0.1247 0.21874 0.48344 0.0
C933 C 0.12559 0.21059 0.44597 0.0
C934 C 0.105 0.21634 0.49766 0.0
C935 C 0.08592 0.20604 0.47447 0.0
C936 C 0.08698 0.19852 0.43655 0.0
C937 C 0.10657 0.20065 0.42254 0.0
C938 C 0.03047 0.20226 0.48175 0.0
C939 C 0.02349 0.19302 0.51952 0.0
C940 C 0.05083 0.20667 0.46719 0.0
C941 C 0.06472 0.20223 0.49032 0.0
C942 C 0.05789 0.19331 0.52827 0.0
C943 C 0.03745 0.18865 0.54263 0.0
H944 H 0.80687 0.8228 0.46695 0.0
H945 H 0.78053 0.82672 0.57965 0.0
H946 H 0.80033 0.85122 0.44078 0.0
H947 H 0.77183 0.85349 0.55298 0.0
H948 H 0.78017 0.91797 0.51055 0.0
H949 H 0.78531 0.88865 0.53604 0.0
H950 H 0.77751 0.86229 0.41754 0.0
H951 H 0.77456 0.89304 0.39215 0.0
C952 C 0.79925 0.82953 0.4858 0.0
C953 C 0.79437 0.82284 0.52528 0.0
C954 C 0.79526 0.8457 0.47079 0.0
C955 C 0.78554 0.85498 0.4946 0.0
C956 C 0.77995 0.84747 0.53384 0.0
C957 C 0.7847 0.83191 0.54917 0.0
C958 C 0.77948 0.90578 0.49015 0.0
C959 C 0.77704 0.90771 0.44948 0.0
C960 C 0.78225 0.88877 0.50472 0.0
C961 C 0.78188 0.8728 0.47906 0.0
C962 C 0.77856 0.87444 0.43834 0.0
C963 C 0.77658 0.89192 0.42368 0.0
H964 H 0.06699 0.89149 0.42707 0.0
H965 H 0.09601 0.85541 0.477 0.0
H966 H 0.09721 0.92549 0.45274 0.0
H967 H 0.12661 0.88981 0.50216 0.0
H968 H 0.18728 0.96299 0.49629 0.0
H969 H 0.15825 0.92805 0.46978 0.0
H970 H 0.1096 0.93872 0.52664 0.0
H971 H 0.13842 0.9733 0.5537 0.0
C972 C 0.07991 0.89083 0.44323 0.0
C973 C 0.07909 0.87075 0.45011 0.0
C974 C 0.09714 0.91029 0.45802 0.0
C975 C 0.11412 0.91017 0.47941 0.0
C976 C 0.11369 0.89025 0.48556 0.0
C977 C 0.09618 0.87063 0.47136 0.0
C978 C 0.17038 0.95785 0.50307 0.0
C979 C 0.1651 0.97088 0.52697 0.0
C980 C 0.15385 0.93785 0.48815 0.0
C981 C 0.13179 0.93083 0.49622 0.0
C982 C 0.12652 0.94389 0.51989 0.0
C983 C 0.14301 0.96362 0.53542 0.0
H984 H 0.79726 0.95568 0.08343 0.0
H985 H 0.78109 0.97504 0.97283 0.0
H986 H 0.78938 0.92096 0.05413 0.0
H987 H 0.77315 0.94006 0.94349 0.0
H988 H 0.79352 0.88978 0.89818 0.0
H989 H 0.79583 0.92289 0.92539 0.0
H990 H 0.7583 0.88631 0.027 0.0
H991 H 0.756 0.85309 -0.0001 0.0
C992 C 0.7919 0.95249 0.05289 0.0
C993 C 0.78993 0.9682 0.03038 0.0
C994 C 0.78722 0.9325 0.03623 0.0
C995 C 0.78063 0.92779 -0.00345 0.0
C996 C 0.77834 0.94333 0.9741 0.0
C997 C 0.78281 0.9633 0.99093 0.0
C998 C 0.78558 0.88872 0.92616 0.0
C999 C 0.77473 0.86882 0.94704 0.0
C1000 C 0.78678 0.90768 0.94159 0.0
C1001 C 0.77732 0.9072 0.97837 0.0
C1002 C 0.76592 0.88719 -0.00126 0.0
C1003 C 0.76454 0.86816 0.98314 0.0
H1004 H 0.13412 0.89671 0.97828 0.0
H1005 H 0.10025 0.92852 0.93047 0.0
H1006 H 0.09913 0.86651 0.00215 0.0
H1007 H 0.06561 0.89865 0.95481 0.0
H1008 H 0.01614 0.85651 0.05272 0.0
H1009 H 0.05114 0.88512 0.02688 0.0
H1010 H 0.06111 0.83618 0.96923 0.0
H1011 H 0.02575 0.80735 -0.00542 0.0
C1012 C 0.11926 0.89726 0.97289 0.0
C1013 C 0.11994 0.91499 0.95256 0.0
C1014 C 0.09929 0.87996 0.98633 0.0
C1015 C 0.07978 0.88036 0.98032 0.0
C1016 C 0.08047 0.89805 0.95997 0.0
C1017 C 0.10029 0.91508 0.94596 0.0
C1018 C 0.02574 0.85181 0.03449 0.0
C1019 C 0.01817 0.82969 0.02556 0.0
C1020 C 0.04573 0.8682 0.01965 0.0
C1021 C 0.05874 0.86279 -0.00385 0.0
C1022 C 0.05137 0.8407 0.98748 0.0
C1023 C 0.03112 0.82428 0.00174 0.0
H1024 H 0.14134 0.16555 0.06105 0.0
H1025 H 0.18852 0.22466 0.00115 0.0
H1026 H 0.11173 0.17077 0.03633 0.0
H1027 H 0.15871 0.23001 0.977 0.0
H1028 H 0.09523 0.23838 0.98306 0.0
H1029 H 0.12631 0.23581 0.00987 0.0
H1030 H 0.0989 0.17056 0.96211 0.0
H1031 H 0.06833 0.17313 0.93484 0.0
C1032 C 0.14541 0.17974 0.04285 0.0
C1033 C 0.16725 0.19462 0.03282 0.0
C1034 C 0.12846 0.18269 0.02872 0.0
C1035 C 0.13302 0.20079 0.00488 0.0
C1036 C 0.15485 0.21601 -0.00442 0.0
C1037 C 0.17183 0.21284 0.00913 0.0
C1038 C 0.09593 0.22355 0.97826 0.0
C1039 C 0.07937 0.20599 0.95682 0.0
C1040 C 0.11369 0.22213 -0.00658 0.0
C1041 C 0.11484 0.20295 0.98809 0.0
C1042 C 0.09828 0.18545 0.9668 0.0
C1043 C 0.08085 0.18701 0.95106 0.0
H1044 H 0.97221 0.78605 0.52053 0.0
H1045 H 0.95281 0.80082 0.40862 0.0
H1046 H 0.93682 0.77745 0.54885 0.0
H1047 H 0.91771 0.79227 0.43684 0.0
H1048 H 0.84972 0.75814 0.48914 0.0
H1049 H 0.88334 0.76064 0.46397 0.0
H1050 H 0.9188 0.79985 0.56498 0.0
H1051 H 0.88526 0.79735 0.59029 0.0
C1052 C 0.96036 0.7873 0.50193 0.0
C1053 C 0.96536 0.79425 0.46242 0.0
C1054 C 0.94017 0.78245 0.51816 0.0
C1055 C 0.92452 0.78416 0.495 0.0
C1056 C 0.92933 0.79055 0.45527 0.0
C1057 C 0.94954 0.79562 0.43922 0.0
C1058 C 0.86462 0.76708 0.50623 0.0
C1059 C 0.86485 0.77772 0.54153 0.0
C1060 C 0.88387 0.76856 0.49174 0.0
C1061 C 0.90369 0.78053 0.51244 0.0
C1062 C 0.90374 0.79037 0.54856 0.0
C1063 C 0.88454 0.78907 0.56288 0.0
H1064 H 0.2127 0.18751 0.51389 0.0
H1065 H 0.18913 0.14855 0.40744 0.0
H1066 H 0.2215 0.16083 0.54181 0.0
H1067 H 0.19784 0.12198 0.43545 0.0
H1068 H 0.23177 0.08679 0.48411 0.0
H1069 H 0.22949 0.11774 0.45687 0.0
H1070 H 0.19925 0.12213 0.56488 0.0
H1071 H 0.20159 0.0914 0.59218 0.0
C1072 C 0.2095 0.17334 0.49638 0.0
C1073 C 0.20007 0.17008 0.45855 0.0
C1074 C 0.2145 0.15806 0.51241 0.0
C1075 C 0.21039 0.13935 0.49078 0.0
C1076 C 0.20146 0.13638 0.45262 0.0
C1077 C 0.19628 0.15152 0.43674 0.0
C1078 C 0.22493 0.09457 0.50224 0.0
C1079 C 0.2167 0.08652 0.54017 0.0
C1080 C 0.22352 0.11219 0.48656 0.0
C1081 C 0.21407 0.12224 0.50867 0.0
C1082 C 0.20677 0.11483 0.54725 0.0
C1083 C 0.20799 0.09712 0.56277 0.0
H1084 H 0.8917 0.11486 0.58362 0.0
H1085 H 0.91965 0.13029 0.46669 0.0
H1086 H 0.86046 0.0815 0.55868 0.0
H1087 H 0.88971 0.09596 0.4419 0.0
H1088 H 0.8274 0.03859 0.3987 0.0
H1089 H 0.85476 0.07447 0.42296 0.0
H1090 H 0.84912 0.0469 0.53989 0.0
H1091 H 0.82029 0.01172 0.51585 0.0
C1092 C 0.89109 0.11094 0.55249 0.0
C1093 C 0.9079 0.12503 0.52696 0.0
C1094 C 0.87333 0.09165 0.53814 0.0
C1095 C 0.87244 0.08554 0.49816 0.0
C1096 C 0.88933 0.10003 0.47262 0.0
C1097 C 0.90666 0.11972 0.48678 0.0
C1098 C 0.83201 0.04041 0.42964 0.0
C1099 C 0.82185 0.02252 0.45548 0.0
C1100 C 0.84786 0.06095 0.44363 0.0
C1101 C 0.85451 0.0639 0.48357 0.0
C1102 C 0.84425 0.04572 0.50923 0.0
C1103 C 0.82784 0.02539 0.49547 0.0
H1104 H 0.89499 0.47349 0.32259 0.0
H1105 H 0.86304 0.4413 0.43151 0.0
H1106 H 0.89075 0.43898 0.29782 0.0
H1107 H 0.85884 0.40695 0.4067 0.0
H1108 H 0.87114 0.35286 0.36011 0.0
H1109 H 0.88052 0.3889 0.38613 0.0
H1110 H 0.85764 0.40329 0.27791 0.0
H1111 H 0.84827 0.36743 0.25189 0.0
C1112 C 0.88732 0.45915 0.34142 0.0
C1113 C 0.87921 0.4601 0.37889 0.0
C1114 C 0.8848 0.43939 0.32716 0.0
C1115 C 0.87437 0.42028 0.35029 0.0
C1116 C 0.86708 0.42144 0.38835 0.0
C1117 C 0.86937 0.44111 0.40242 0.0
C1118 C 0.86819 0.36375 0.34184 0.0
C1119 C 0.85884 0.35722 0.30403 0.0
C1120 C 0.87352 0.38434 0.35677 0.0
C1121 C 0.86987 0.3989 0.33397 0.0
C1122 C 0.86089 0.39252 0.29595 0.0
C1123 C 0.85534 0.37188 0.28122 0.0
H1124 H 0.63847 0.51567 0.3541 0.0
H1125 H 0.62306 0.47946 0.24436 0.0
H1126 H 0.60291 0.48838 0.38087 0.0
H1127 H 0.58766 0.45238 0.27111 0.0
H1128 H 0.51779 0.41969 0.31843 0.0
H1129 H 0.55216 0.44992 0.29338 0.0
H1130 H 0.58525 0.4481 0.39958 0.0
H1131 H 0.55099 0.4179 0.42468 0.0
C1132 C 0.6275 0.50196 0.33567 0.0
C1133 C 0.63363 0.49968 0.29718 0.0
C1134 C 0.6072 0.48634 0.35103 0.0
C1135 C 0.59254 0.46833 0.32799 0.0
C1136 C 0.59854 0.46624 0.28935 0.0
C1137 C 0.6189 0.48166 0.27419 0.0
C1138 C 0.53234 0.42588 0.33661 0.0
C1139 C 0.5317 0.41631 0.37342 0.0
C1140 C 0.55201 0.4431 0.32218 0.0
C1141 C 0.57135 0.45126 0.34449 0.0
C1142 C 0.57055 0.44223 0.38189 0.0
C1143 C 0.55096 0.42485 0.39612 0.0
H1144 H 0.47205 0.11734 0.35352 0.0
H1145 H 0.5113 0.14272 0.24783 0.0
H1146 H 0.49904 0.10887 0.38092 0.0
H1147 H 0.53818 0.1342 0.27532 0.0
H1148 H 0.56781 0.12687 0.43123 0.0
H1149 H 0.53823 0.13132 0.40409 0.0
H1150 H 0.54122 0.10105 0.29504 0.0
H1151 H 0.57088 0.09653 0.32217 0.0
C1152 C 0.48639 0.12107 0.3361 0.0
C1153 C 0.48958 0.1308 0.29857 0.0
C1154 C 0.50184 0.11625 0.35184 0.0
C1155 C 0.52065 0.12083 0.33018 0.0
C1156 C 0.5237 0.13027 0.29246 0.0
C1157 C 0.50839 0.13531 0.2769 0.0
C1158 C 0.56204 0.12097 0.40158 0.0
C1159 C 0.57176 0.11144 0.37877 0.0
C1160 C 0.54503 0.12342 0.38615 0.0
C1161 C 0.53751 0.11661 0.34743 0.0
C1162 C 0.54686 0.10662 0.32487 0.0
C1163 C 0.56373 0.10392 0.34049 0.0
H1164 H 0.80612 0.56318 0.83855 0.0
H1165 H 0.77286 0.53032 0.73088 0.0
H1166 H 0.7719 0.55925 0.86416 0.0
H1167 H 0.73882 0.52649 0.75649 0.0
H1168 H 0.68606 0.54085 0.80306 0.0
H1169 H 0.72171 0.54924 0.77663 0.0
H1170 H 0.73593 0.5265 0.88518 0.0
H1171 H 0.70042 0.51806 0.9116 0.0
C1172 C 0.7916 0.55534 0.82021 0.0
C1173 C 0.79218 0.54695 0.7828 0.0
C1174 C 0.77201 0.553 0.83494 0.0
C1175 C 0.75271 0.54251 0.81233 0.0
C1176 C 0.75347 0.5348 0.77442 0.0
C1177 C 0.77295 0.53688 0.7599 0.0
C1178 C 0.69683 0.53772 0.82132 0.0
C1179 C 0.69035 0.52867 0.85934 0.0
C1180 C 0.71719 0.54248 0.80615 0.0
C1181 C 0.73158 0.53856 0.82891 0.0
C1182 C 0.72527 0.52991 0.86716 0.0
C1183 C 0.70485 0.52491 0.88213 0.0
H1184 H 0.45121 0.14252 0.80327 0.0
H1185 H 0.47438 0.18085 0.91045 0.0
H1186 H 0.44265 0.16946 0.77566 0.0
H1187 H 0.4658 0.20762 0.88284 0.0
H1188 H 0.42935 0.24098 0.83481 0.0
H1189 H 0.43313 0.21078 0.86151 0.0
H1190 H 0.46512 0.20896 0.75391 0.0
H1191 H 0.46141 0.23907 0.72719 0.0
C1192 C 0.45439 0.15661 0.82098 0.0
C1193 C 0.46359 0.1596 0.85897 0.0
C1194 C 0.44954 0.17204 0.80513 0.0
C1195 C 0.45352 0.19059 0.82716 0.0
C1196 C 0.46232 0.19335 0.86537 0.0
C1197 C 0.46741 0.17809 0.88103 0.0
C1198 C 0.43697 0.23398 0.81669 0.0
C1199 C 0.4452 0.24252 0.77899 0.0
C1200 C 0.43923 0.21678 0.83206 0.0
C1201 C 0.4495 0.2076 0.80983 0.0
C1202 C 0.45699 0.2156 0.77159 0.0
C1203 C 0.45497 0.23294 0.75641 0.0
H1204 H 0.73842 0.22565 0.745 0.0
H1205 H 0.76477 0.19045 0.80766 0.0
H1206 H 0.76836 0.2602 0.76948 0.0
H1207 H 0.7951 0.22537 0.83163 0.0
H1208 H 0.85628 0.29818 0.82825 0.0
H1209 H 0.82842 0.26317 0.79967 0.0
H1210 H 0.77756 0.27456 0.84377 0.0
H1211 H 0.80512 0.3091 0.87292 0.0
C1212 C 0.75073 0.22527 0.76362 0.0
C1213 C 0.74915 0.20528 0.77458 0.0
C1214 C 0.76782 0.24507 0.77766 0.0
C1215 C 0.78393 0.24535 0.80242 0.0
C1216 C 0.78288 0.2255 0.81237 0.0
C1217 C 0.7655 0.20558 0.79885 0.0
C1218 C 0.83914 0.2932 0.83168 0.0
C1219 C 0.83285 0.30635 0.8528 0.0
C1220 C 0.82327 0.27317 0.81557 0.0
C1221 C 0.80093 0.2663 0.81957 0.0
C1222 C 0.7947 0.2796 0.84015 0.0
C1223 C 0.81047 0.29931 0.85689 0.0
H1224 H 0.44606 0.19295 0.34822 0.0
H1225 H 0.44014 0.21145 0.22932 0.0
H1226 H 0.45002 0.22707 0.37311 0.0
H1227 H 0.44189 0.24471 0.25404 0.0
H1228 H 0.47098 0.31381 0.30196 0.0
H1229 H 0.46448 0.27876 0.27659 0.0
H1230 H 0.43617 0.24859 0.38928 0.0
H1231 H 0.44483 0.28421 0.41519 0.0
C1232 C 0.445 0.20416 0.32759 0.0
C1233 C 0.4429 0.19973 0.28696 0.0
C1234 C 0.44711 0.22374 0.3418 0.0
C1235 C 0.4464 0.23903 0.31576 0.0
C1236 C 0.44323 0.23389 0.27511 0.0
C1237 C 0.44193 0.21467 0.26083 0.0
C1238 C 0.46337 0.29957 0.32108 0.0
C1239 C 0.45856 0.3016 0.36048 0.0
C1240 C 0.4594 0.27934 0.30652 0.0
C1241 C 0.44979 0.2605 0.33073 0.0
C1242 C 0.44419 0.26262 0.36987 0.0
C1243 C 0.44892 0.283 0.38475 0.0
H1244 H 0.80144 0.2385 0.34854 0.0
H1245 H 0.76658 0.23834 0.24321 0.0
H1246 H 0.76798 0.20715 0.37401 0.0
H1247 H 0.7333 0.20713 0.26868 0.0
H1248 H 0.68208 0.13921 0.31295 0.0
H1249 H 0.71738 0.16726 0.28661 0.0
H1250 H 0.73181 0.20234 0.39731 0.0
H1251 H 0.69668 0.17445 0.42367 0.0
C1252 C 0.78673 0.23167 0.33068 0.0
C1253 C 0.78662 0.241 0.29399 0.0
C1254 C 0.76758 0.2138 0.34533 0.0
C1255 C 0.74805 0.20476 0.32333 0.0
C1256 C 0.74815 0.21363 0.28611 0.0
C1257 C 0.76719 0.23161 0.27168 0.0
C1258 C 0.69284 0.15284 0.33172 0.0
C1259 C 0.68651 0.15467 0.37031 0.0
C1260 C 0.713 0.16891 0.31661 0.0
C1261 C 0.72732 0.18695 0.33995 0.0
C1262 C 0.72121 0.1885 0.37881 0.0
C1263 C 0.70099 0.1726 0.39375 0.0
H1264 H 0.8509 0.54204 0.30678 0.0
H1265 H 0.81504 0.52184 0.41687 0.0
H1266 H 0.8231 0.54938 0.27932 0.0
H1267 H 0.7874 0.52916 0.38939 0.0
H1268 H 0.75186 0.56288 0.33947 0.0
H1269 H 0.78302 0.56061 0.36552 0.0
H1270 H 0.78337 0.52592 0.26053 0.0
H1271 H 0.75233 0.52816 0.23442 0.0
C1272 C 0.83717 0.53926 0.32516 0.0
C1273 C 0.83512 0.53124 0.36393 0.0
C1274 C 0.82125 0.54341 0.3094 0.0
C1275 C 0.80313 0.53987 0.33226 0.0
C1276 C 0.80132 0.53228 0.37124 0.0
C1277 C 0.81708 0.52792 0.38684 0.0
C1278 C 0.75874 0.55498 0.32176 0.0
C1279 C 0.74952 0.54556 0.28501 0.0
C1280 C 0.77649 0.5536 0.33677 0.0
C1281 C 0.78554 0.54302 0.3151 0.0
C1282 C 0.77685 0.53433 0.27773 0.0
C1283 C 0.75897 0.53549 0.26293 0.0
H1284 H 0.62322 0.13799 0.73611 0.0
H1285 H 0.64058 0.12054 0.84751 0.0
H1286 H 0.58804 0.12984 0.7635 0.0
H1287 H 0.60517 0.11229 0.87486 0.0
H1288 H 0.55489 0.13247 0.91872 0.0
H1289 H 0.58814 0.13487 0.89252 0.0
H1290 H 0.55276 0.09885 0.78873 0.0
H1291 H 0.5193 0.09649 0.8149 0.0
C1292 C 0.6195 0.1323 0.7664 0.0
C1293 C 0.6348 0.13008 0.78974 0.0
C1294 C 0.59923 0.12744 0.78195 0.0
C1295 C 0.59384 0.12041 0.82129 0.0
C1296 C 0.60896 0.11783 0.8445 0.0
C1297 C 0.6292 0.12251 0.82881 0.0
C1298 C 0.5541 0.12488 0.89045 0.0
C1299 C 0.53447 0.11443 0.86873 0.0
C1300 C 0.57315 0.12613 0.8756 0.0
C1301 C 0.57307 0.11711 0.83855 0.0
C1302 C 0.55333 0.10613 0.81724 0.0
C1303 C 0.53417 0.10469 0.8323 0.0
H1304 H 0.85574 0.48489 0.74129 0.0
H1305 H 0.87944 0.52314 0.84847 0.0
H1306 H 0.86464 0.45822 0.76815 0.0
H1307 H 0.88842 0.49636 0.87526 0.0
H1308 H 0.86773 0.42645 0.92396 0.0
H1309 H 0.86583 0.45753 0.89739 0.0
H1310 H 0.89623 0.45355 0.78926 0.0
H1311 H 0.8981 0.4222 0.81589 0.0
C1312 C 0.86296 0.48769 0.77051 0.0
C1313 C 0.8667 0.50606 0.79289 0.0
C1314 C 0.86826 0.47249 0.78572 0.0
C1315 C 0.87726 0.47522 0.82377 0.0
C1316 C 0.88138 0.49378 0.84591 0.0
C1317 C 0.87626 0.50912 0.83055 0.0
C1318 C 0.87427 0.43234 0.89469 0.0
C1319 C 0.8829 0.42174 0.87188 0.0
C1320 C 0.87331 0.45026 0.87959 0.0
C1321 C 0.88079 0.45791 0.8412 0.0
C1322 C 0.89016 0.44785 0.81885 0.0
C1323 C 0.89135 0.43001 0.83416 0.0
H1324 H 0.57289 0.47306 0.81093 0.0
H1325 H 0.5706 0.4381 0.91753 0.0
H1326 H 0.54183 0.43965 0.78437 0.0
H1327 H 0.53972 0.40492 0.89101 0.0
H1328 H 0.47274 0.35377 0.84415 0.0
H1329 H 0.50036 0.38915 0.87086 0.0
H1330 H 0.53701 0.40328 0.76206 0.0
H1331 H 0.50951 0.36803 0.73529 0.0
C1332 C 0.56563 0.45835 0.82883 0.0
C1333 C 0.57429 0.45819 0.86621 0.0
C1334 C 0.54794 0.43923 0.81356 0.0
C1335 C 0.53841 0.4197 0.83561 0.0
C1336 C 0.5466 0.41977 0.8735 0.0
C1337 C 0.5644 0.43876 0.88854 0.0
C1338 C 0.48663 0.36447 0.82585 0.0
C1339 C 0.489 0.35801 0.7877 0.0
C1340 C 0.50245 0.38469 0.84119 0.0
C1341 C 0.52081 0.39896 0.81851 0.0
C1342 C 0.52291 0.39273 0.78004 0.0
C1343 C 0.50724 0.37244 0.76487 0.0
H1344 H 0.51734 0.69977 0.57087 0.0
H1345 H 0.53971 0.68507 0.67957 0.0
H1346 H 0.52525 0.73502 0.5979 0.0
H1347 H 0.5476 0.72047 0.70658 0.0
H1348 H 0.52692 0.77022 0.7529 0.0
H1349 H 0.52416 0.73673 0.72665 0.0
H1350 H 0.55732 0.77112 0.62018 0.0
H1351 H 0.56014 0.80478 0.64642 0.0
C1352 C 0.52403 0.70408 0.60048 0.0
C1353 C 0.52778 0.68955 0.62317 0.0
C1354 C 0.52872 0.72437 0.6158 0.0
C1355 C 0.53706 0.73048 0.65429 0.0
C1356 C 0.54106 0.71609 0.67688 0.0
C1357 C 0.5366 0.69588 0.66137 0.0
C1358 C 0.5338 0.77072 0.72402 0.0
C1359 C 0.54363 0.79013 0.70162 0.0
C1360 C 0.53234 0.75156 0.70913 0.0
C1361 C 0.54047 0.75133 0.67136 0.0
C1362 C 0.55076 0.77083 0.64928 0.0
C1363 C 0.55246 0.79009 0.66438 0.0
H1364 H 0.21944 0.75376 0.754 0.0
H1365 H 0.18574 0.75332 0.64686 0.0
H1366 H 0.25317 0.7845 0.72867 0.0
H1367 H 0.21962 0.78417 0.62157 0.0
H1368 H 0.29093 0.81547 0.57336 0.0
H1369 H 0.25563 0.78804 0.59985 0.0
H1370 H 0.2699 0.82428 0.70922 0.0
H1371 H 0.30537 0.85189 0.68274 0.0
C1372 C 0.21917 0.76034 0.72518 0.0
C1373 C 0.19994 0.751 0.70231 0.0
C1374 C 0.23847 0.77805 0.71082 0.0
C1375 C 0.23902 0.78665 0.67311 0.0
C1376 C 0.21968 0.77771 0.65061 0.0
C1377 C 0.20028 0.76013 0.66517 0.0
C1378 C 0.28656 0.81767 0.60304 0.0
C1379 C 0.30103 0.83582 0.62604 0.0
C1380 C 0.26625 0.80203 0.61805 0.0
C1381 C 0.26001 0.80407 0.65654 0.0
C1382 C 0.27436 0.82227 0.67951 0.0
C1383 C 0.29462 0.83808 0.66431 0.0
H1384 H 0.2252 0.44201 0.7604 0.0
H1385 H 0.24999 0.44772 0.64191 0.0
H1386 H 0.19399 0.44412 0.73506 0.0
H1387 H 0.22016 0.45201 0.61643 0.0
H1388 H 0.15824 0.44705 0.57293 0.0
H1389 H 0.18494 0.43825 0.59965 0.0
H1390 H 0.18258 0.46668 0.71193 0.0
H1391 H 0.15427 0.47332 0.6857 0.0
C1392 C 0.22394 0.44386 0.72885 0.0
C1393 C 0.23985 0.44464 0.70302 0.0
C1394 C 0.20619 0.44535 0.71421 0.0
C1395 C 0.20438 0.4485 0.67349 0.0
C1396 C 0.22043 0.44909 0.64778 0.0
C1397 C 0.23773 0.44681 0.66233 0.0
C1398 C 0.16335 0.45112 0.60347 0.0
C1399 C 0.15433 0.46084 0.62735 0.0
C1400 C 0.17887 0.44632 0.61882 0.0
C1401 C 0.1864 0.45194 0.65806 0.0
C1402 C 0.17708 0.46159 0.68192 0.0
C1403 C 0.16095 0.46564 0.66688 0.0
H1404 H 0.34977 0.87525 0.13986 0.0
H1405 H 0.36427 0.85185 0.24752 0.0
H1406 H 0.38541 0.88391 0.11312 0.0
H1407 H 0.39978 0.86053 0.22073 0.0
H1408 H 0.46968 0.89609 0.17305 0.0
H1409 H 0.43591 0.89294 0.19952 0.0
H1410 H 0.40196 0.86106 0.09188 0.0
H1411 H 0.4355 0.86415 0.06546 0.0
C1412 C 0.36057 0.87205 0.15788 0.0
C1413 C 0.35412 0.86272 0.19571 0.0
C1414 C 0.38094 0.87697 0.14253 0.0
C1415 C 0.39536 0.87292 0.16489 0.0
C1416 C 0.38911 0.86406 0.20302 0.0
C1417 C 0.36868 0.85891 0.21819 0.0
C1418 C 0.45507 0.88867 0.15488 0.0
C1419 C 0.45522 0.88024 0.11729 0.0
C1420 C 0.43574 0.88676 0.17011 0.0
C1421 C 0.41632 0.87669 0.14778 0.0
C1422 C 0.41671 0.86906 0.10962 0.0
C1423 C 0.43591 0.87071 0.09462 0.0
H1424 H 0.12709 0.57196 0.05959 0.0
H1425 H 0.09353 0.5726 0.16609 0.0
H1426 H 0.12996 0.54119 0.08537 0.0
H1427 H 0.09646 0.54173 0.19185 0.0
H1428 H 0.13682 0.51075 0.24095 0.0
H1429 H 0.12866 0.53796 0.2141 0.0
H1430 H 0.10682 0.50138 0.10506 0.0
H1431 H 0.11497 0.47399 0.13191 0.0
C1432 C 0.12015 0.56541 0.08836 0.0
C1433 C 0.11021 0.57482 0.11093 0.0
C1434 C 0.12167 0.54769 0.10298 0.0
C1435 C 0.1135 0.53913 0.14064 0.0
C1436 C 0.10306 0.54815 0.16283 0.0
C1437 C 0.1013 0.56573 0.14801 0.0
C1438 C 0.1302 0.50842 0.21129 0.0
C1439 C 0.12667 0.49026 0.18847 0.0
C1440 C 0.12535 0.52393 0.19607 0.0
C1441 C 0.11708 0.52176 0.15754 0.0
C1442 C 0.11331 0.5035 0.13479 0.0
C1443 C 0.11792 0.48781 0.15021 0.0
H1444 H 0.49976 0.64785 0.13271 0.0
H1445 H 0.49446 0.6181 0.24659 0.0
H1446 H 0.47157 0.61286 0.1065 0.0
H1447 H 0.46787 0.58256 0.21998 0.0
H1448 H 0.40371 0.52646 0.1757 0.0
H1449 H 0.43292 0.56082 0.20171 0.0
H1450 H 0.46082 0.57891 0.08419 0.0
H1451 H 0.43022 0.54536 0.05819 0.0
C1452 C 0.49277 0.63361 0.15184 0.0
C1453 C 0.49902 0.63558 0.19162 0.0
C1454 C 0.47673 0.61341 0.13681 0.0
C1455 C 0.46714 0.59453 0.16093 0.0
C1456 C 0.47417 0.59661 0.20055 0.0
C1457 C 0.48961 0.61696 0.21586 0.0
C1458 C 0.41622 0.53783 0.15565 0.0
C1459 C 0.41477 0.53341 0.11504 0.0
C1460 C 0.43316 0.55756 0.17052 0.0
C1461 C 0.4495 0.57302 0.14524 0.0
C1462 C 0.44836 0.56794 0.10466 0.0
C1463 C 0.43097 0.54856 0.08966 0.0
H1464 H 0.11892 0.64052 0.63161 0.0
H1465 H 0.13807 0.62456 0.74264 0.0
H1466 H 0.1112 0.60512 0.6047 0.0
H1467 H 0.13029 0.58932 0.71576 0.0
H1468 H 0.09464 0.51974 0.66661 0.0
H1469 H 0.09794 0.55379 0.69172 0.0
H1470 H 0.13437 0.58789 0.58746 0.0
H1471 H 0.13116 0.55397 0.56233 0.0
C1472 C 0.12138 0.62945 0.65031 0.0
C1473 C 0.12921 0.6354 0.68919 0.0
C1474 C 0.11702 0.60924 0.63486 0.0
C1475 C 0.12009 0.59448 0.6582 0.0
C1476 C 0.12753 0.60027 0.69726 0.0
C1477 C 0.13215 0.62054 0.71251 0.0
C1478 C 0.10316 0.53445 0.64887 0.0
C1479 C 0.11276 0.53419 0.61261 0.0
C1480 C 0.10513 0.55394 0.66333 0.0
C1481 C 0.11648 0.57347 0.64158 0.0
C1482 C 0.1254 0.57305 0.6047 0.0
C1483 C 0.12367 0.55364 0.59047 0.0
H1484 H 0.36474 0.51175 0.74652 0.0
H1485 H 0.35186 0.4734 0.63982 0.0
H1486 H 0.40023 0.53903 0.7201 0.0
H1487 H 0.38739 0.50077 0.61352 0.0
H1488 H 0.437 0.57 0.56446 0.0
H1489 H 0.40336 0.5399 0.5913 0.0
H1490 H 0.43689 0.54323 0.70022 0.0
H1491 H 0.47078 0.5735 0.6733 0.0
C1492 C 0.36948 0.5091 0.71748 0.0
C1493 C 0.35539 0.49046 0.69516 0.0
C1494 C 0.38989 0.52465 0.70253 0.0
C1495 C 0.39655 0.522 0.6648 0.0
C1496 C 0.38259 0.50328 0.64261 0.0
C1497 C 0.36227 0.48761 0.65772 0.0
C1498 C 0.43729 0.56422 0.59402 0.0
C1499 C 0.45654 0.5742 0.61684 0.0
C1500 C 0.41804 0.54689 0.60928 0.0
C1501 C 0.41751 0.53927 0.64785 0.0
C1502 C 0.43683 0.54891 0.67047 0.0
C1503 C 0.45623 0.56613 0.65499 0.0
H1504 H 0.4203 0.86573 0.5635 0.0
H1505 H 0.4181 0.89654 0.67259 0.0
H1506 H 0.45062 0.86216 0.58921 0.0
H1507 H 0.44861 0.89294 0.69831 0.0
H1508 H 0.47889 0.85129 0.74425 0.0
H1509 H 0.45219 0.86037 0.71815 0.0
H1510 H 0.48988 0.88432 0.61067 0.0
H1511 H 0.5167 0.87521 0.63671 0.0
C1512 C 0.42643 0.87195 0.59285 0.0
C1513 C 0.41669 0.88128 0.61614 0.0
C1514 C 0.44391 0.87002 0.60744 0.0
C1515 C 0.45191 0.87719 0.64579 0.0
C1516 C 0.44261 0.8871 0.66874 0.0
C1517 C 0.42524 0.88926 0.65395 0.0
C1518 C 0.48156 0.85855 0.71508 0.0
C1519 C 0.49986 0.86238 0.69243 0.0
C1520 C 0.46635 0.86393 0.70031 0.0
C1521 C 0.46899 0.87309 0.66244 0.0
C1522 C 0.48739 0.87716 0.6399 0.0
C1523 C 0.50274 0.87197 0.65484 0.0
H1524 H 0.18422 0.43116 0.1398 0.0
H1525 H 0.21777 0.46195 0.24852 0.0
H1526 H 0.21812 0.43445 0.11363 0.0
H1527 H 0.25141 0.46516 0.22244 0.0
H1528 H 0.30288 0.44967 0.17585 0.0
H1529 H 0.26725 0.44167 0.20137 0.0
H1530 H 0.25494 0.46671 0.09371 0.0
H1531 H 0.29052 0.47474 0.06807 0.0
C1532 C 0.19873 0.4384 0.15824 0.0
C1533 C 0.19835 0.4464 0.19613 0.0
C1534 C 0.21813 0.44038 0.14319 0.0
C1535 C 0.23738 0.4501 0.16601 0.0
C1536 C 0.23678 0.45743 0.20433 0.0
C1537 C 0.21753 0.45571 0.21914 0.0
C1538 C 0.29255 0.45339 0.15754 0.0
C1539 C 0.29961 0.46298 0.12004 0.0
C1540 C 0.27218 0.44885 0.1722 0.0
C1541 C 0.25835 0.45356 0.1495 0.0
C1542 C 0.26517 0.4627 0.11167 0.0
C1543 C 0.28564 0.46746 0.09717 0.0
H1544 H 0.51609 0.8147 0.07703 0.0
H1545 H 0.53648 0.85114 0.18657 0.0
H1546 H 0.5242 0.78761 0.10446 0.0
H1547 H 0.54453 0.82376 0.2141 0.0
H1548 H 0.52478 0.75254 0.25778 0.0
H1549 H 0.52155 0.7833 0.23276 0.0
H1550 H 0.55705 0.78504 0.12756 0.0
H1551 H 0.56037 0.7543 0.1525 0.0
C1552 C 0.52234 0.81696 0.10697 0.0
C1553 C 0.52555 0.83504 0.1297 0.0
C1554 C 0.52715 0.80151 0.12253 0.0
C1555 C 0.53506 0.80363 0.16133 0.0
C1556 C 0.53836 0.82172 0.18413 0.0
C1557 C 0.53381 0.83738 0.16834 0.0
C1558 C 0.53209 0.75961 0.22948 0.0
C1559 C 0.54269 0.75086 0.20698 0.0
C1560 C 0.53035 0.77731 0.21531 0.0
C1561 C 0.53895 0.78646 0.17816 0.0
C1562 C 0.5501 0.77815 0.15616 0.0
C1563 C 0.55207 0.76061 0.17053 0.0
H1564 H 0.1378 0.68588 0.17937 0.0
H1565 H 0.17532 0.70103 0.07126 0.0
H1566 H 0.165 0.72127 0.2068 0.0
H1567 H 0.20236 0.73626 0.09872 0.0
H1568 H 0.23681 0.8059 0.14771 0.0
H1569 H 0.20623 0.77224 0.12092 0.0
H1570 H 0.20442 0.73775 0.22769 0.0
H1571 H 0.23485 0.77121 0.25448 0.0
C1572 C 0.15176 0.69677 0.16141 0.0
C1573 C 0.15446 0.69057 0.12323 0.0
C1574 C 0.16734 0.71699 0.17715 0.0
C1575 C 0.18576 0.73152 0.15485 0.0
C1576 C 0.1882 0.72551 0.11641 0.0
C1577 C 0.17279 0.70523 0.10084 0.0
C1578 C 0.22972 0.79119 0.16561 0.0
C1579 C 0.23835 0.79119 0.2031 0.0
C1580 C 0.21231 0.77192 0.1502 0.0
C1581 C 0.20301 0.75238 0.17219 0.0
C1582 C 0.21113 0.75259 0.21021 0.0
C1583 C 0.22867 0.77175 0.22541 0.0
H1584 H 0.25737 0.20698 0.19986 0.0
H1585 H 0.25446 0.25513 0.12533 0.0
H1586 H 0.26195 0.22929 0.25763 0.0
H1587 H 0.25854 0.27745 0.18357 0.0
H1588 H 0.25271 0.25655 0.35968 0.0
H1589 H 0.2758 0.26302 0.30152 0.0
H1590 H 0.22454 0.26002 0.22714 0.0
H1591 H 0.20153 0.25307 0.28483 0.0
C1592 C 0.25889 0.22294 0.1957 0.0
C1593 C 0.25513 0.22919 0.15849 0.0
C1594 C 0.26165 0.23586 0.2288 0.0
C1595 C 0.26007 0.25491 0.22521 0.0
C1596 C 0.25964 0.26276 0.18716 0.0
C1597 C 0.25733 0.24999 0.15384 0.0
C1598 C 0.24692 0.25848 0.3311 0.0
C1599 C 0.22524 0.25386 0.32635 0.0
C1600 C 0.26013 0.26217 0.29783 0.0
C1601 C 0.25182 0.26159 0.25973 0.0
C1602 C 0.23148 0.26059 0.25602 0.0
C1603 C 0.21817 0.25645 0.28905 0.0
H1604 H 0.78787 0.04743 0.20824 0.0
H1605 H 0.73732 0.00032 0.1317 0.0
H1606 H 0.76498 0.02999 0.26549 0.0
H1607 H 0.71434 0.98235 0.18939 0.0
H1608 H 0.73337 0.94366 0.28759 0.0
H1609 H 0.72843 0.96215 0.23138 0.0
H1610 H 0.73123 0.01213 0.3091 0.0
H1611 H 0.73574 0.99315 0.36575 0.0
C1612 C 0.77137 0.034 0.20361 0.0
C1613 C 0.76448 0.02492 0.16586 0.0
C1614 C 0.75811 0.02402 0.23642 0.0
C1615 C 0.73802 0.00445 0.232 0.0
C1616 C 0.72983 -0.0027 0.19363 0.0
C1617 C 0.74297 0.00761 0.16063 0.0
C1618 C 0.73165 0.95789 0.2929 0.0
C1619 C 0.73542 0.96728 0.33068 0.0
C1620 C 0.72869 0.96849 0.26069 0.0
C1621 C 0.73001 0.98893 0.26574 0.0
C1622 C 0.73036 -0.00349 0.30437 0.0
C1623 C 0.73291 0.98562 0.33679 0.0
H1624 H -0.00151 0.74451 0.35845 0.0
H1625 H 0.04661 0.7961 0.28488 0.0
H1626 H 0.98081 0.72267 0.29946 0.0
H1627 H 0.02945 0.77425 0.22629 0.0
H1628 H 0.9928 0.74461 0.12401 0.0
H1629 H 0.01146 0.74023 0.18139 0.0
H1630 H 0.96182 0.73897 0.25788 0.0
H1631 H 0.94373 0.74395 0.20096 0.0
C1632 C 0.00606 0.75061 0.32987 0.0
C1633 C 0.02359 0.77212 0.32589 0.0
C1634 C -0.00408 0.73811 0.29613 0.0
C1635 C 0.00349 0.74692 0.25828 0.0
C1636 C 0.02321 0.76695 0.25499 0.0
C1637 C 0.03302 0.77959 0.28855 0.0
C1638 C 0.98532 0.74222 0.15291 0.0
C1639 C 0.96712 0.74501 0.15842 0.0
C1640 C -0.004 0.73973 0.18571 0.0
C1641 C 0.9883 0.7396 0.22412 0.0
C1642 C 0.96815 0.73893 0.22871 0.0
C1643 C 0.95781 0.74193 0.19613 0.0
H1644 H 0.73404 0.74338 0.85773 0.0
H1645 H 0.73826 0.79426 0.78099 0.0
H1646 H 0.72911 0.72038 0.80006 0.0
H1647 H 0.73285 0.7713 0.72374 0.0
H1648 H 0.73868 0.74035 0.6235 0.0
H1649 H 0.71595 0.73692 0.68069 0.0
H1650 H 0.76353 0.73441 0.75772 0.0
H1651 H 0.78627 0.73835 0.70095 0.0
C1652 C 0.73263 0.74912 0.82874 0.0
C1653 C 0.73699 0.77071 0.82349 0.0
C1654 C 0.72982 0.73596 0.79576 0.0
C1655 C 0.73099 0.74419 0.75739 0.0
C1656 C 0.73182 0.76443 0.75286 0.0
C1657 C 0.73508 0.7777 0.78565 0.0
C1658 C 0.74363 0.73784 0.65248 0.0
C1659 C 0.76438 0.74009 0.65816 0.0
C1660 C 0.73063 0.7359 0.68519 0.0
C1661 C 0.73817 0.73586 0.72369 0.0
C1662 C 0.75721 0.7344 0.7285 0.0
C1663 C 0.77037 0.73678 0.69598 0.0
H1664 H 0.24806 0.99355 0.62633 0.0
H1665 H 0.25242 0.04483 0.702 0.0
H1666 H 0.2507 0.97417 0.68425 0.0
H1667 H 0.25574 0.02601 0.75947 0.0
H1668 H 0.246 0.98847 0.86059 0.0
H1669 H 0.26905 0.0046 0.80227 0.0
H1670 H 0.21608 0.95883 0.72782 0.0
H1671 H 0.19304 0.94327 0.78571 0.0
C1672 C 0.25096 0.00133 0.65506 0.0
C1673 C 0.24962 0.0204 0.66008 0.0
C1674 C 0.25246 0.99023 0.68818 0.0
C1675 C 0.25302 -0.00163 0.72638 0.0
C1676 C 0.25537 0.0193 0.73046 0.0
C1677 C 0.25334 0.03008 0.69757 0.0
C1678 C 0.23973 0.98114 0.83192 0.0
C1679 C 0.21763 0.96502 0.82731 0.0
C1680 C 0.25294 0.99037 0.79857 0.0
C1681 C 0.24423 0.98325 0.76051 0.0
C1682 C 0.2233 0.96468 0.75672 0.0
C1683 C 0.20999 0.95582 0.78987 0.0
H1684 H -0.00236 0.24814 0.62053 0.0
H1685 H 0.94448 0.20047 0.69194 0.0
H1686 H 0.01605 0.26887 0.68015 0.0
H1687 H 0.96238 0.22135 0.75112 0.0
H1688 H -0.00077 0.2493 0.85539 0.0
H1689 H 0.98346 0.25572 0.7958 0.0
H1690 H 0.02974 0.24788 0.7241 0.0
H1691 H 0.04489 0.24084 0.78321 0.0
C1692 C 0.98925 0.24287 0.64867 0.0
C1693 C 0.96989 0.22258 0.652 0.0
C1694 C -0.00019 0.25471 0.68277 0.0
C1695 C 0.99083 0.24651 0.72026 0.0
C1696 C 0.9697 0.22814 0.72267 0.0
C1697 C 0.95944 0.21608 0.68879 0.0
C1698 C 0.00667 0.25002 0.82698 0.0
C1699 C 0.02296 0.24419 0.82356 0.0
C1700 C -0.00234 0.25371 0.79296 0.0
C1701 C 0.00521 0.25207 0.75536 0.0
C1702 C 0.02365 0.24941 0.75264 0.0
C1703 C 0.03225 0.24519 0.78645 0.0
H1704 H 0.92148 0.53934 0.53701 0.0
H1705 H 0.91994 0.58753 0.46053 0.0
H1706 H 0.92657 0.56233 0.594 0.0
H1707 H 0.92452 0.61055 0.51797 0.0
H1708 H 0.91875 0.59147 0.69483 0.0
H1709 H 0.94145 0.59667 0.63663 0.0
H1710 H 0.89064 0.59439 0.56192 0.0
H1711 H 0.86799 0.5887 0.61967 0.0
C1712 C 0.92341 0.55542 0.53226 0.0
C1713 C 0.91992 0.56153 0.49471 0.0
C1714 C 0.92646 0.56873 0.56491 0.0
C1715 C 0.92545 0.58805 0.56054 0.0
C1716 C 0.92521 0.59566 0.52217 0.0
C1717 C 0.92262 0.5825 0.4893 0.0
C1718 C 0.91301 0.59331 0.66613 0.0
C1719 C 0.89151 0.58922 0.66139 0.0
C1720 C 0.926 0.59626 0.63283 0.0
C1721 C 0.91765 0.59548 0.59469 0.0
C1722 C 0.8976 0.59508 0.59083 0.0
C1723 C 0.8845 0.59168 0.62392 0.0
H1724 H 0.45301 0.38139 0.53288 0.0
H1725 H 0.40464 0.33145 0.45705 0.0
H1726 H 0.43042 0.36343 0.5902 0.0
H1727 H 0.38202 0.31299 0.51481 0.0
H1728 H 0.40229 0.32607 0.6913 0.0
H1729 H 0.39663 0.34367 0.63369 0.0
H1730 H 0.39866 0.29543 0.55779 0.0
H1731 H 0.40478 0.27834 0.61495 0.0
C1732 C 0.43696 0.36718 0.52835 0.0
C1733 C 0.43073 0.35751 0.49088 0.0
C1734 C 0.42388 0.35689 0.5612 0.0
C1735 C 0.40466 0.33647 0.55708 0.0
C1736 C 0.39685 0.32861 0.51882 0.0
C1737 C 0.40979 0.3392 0.48576 0.0
C1738 C 0.40033 0.31859 0.66248 0.0
C1739 C 0.40445 0.3012 0.65721 0.0
C1740 C 0.39711 0.32868 0.62952 0.0
C1741 C 0.39765 0.32121 0.59118 0.0
C1742 C 0.39814 0.30161 0.58686 0.0
C1743 C 0.40181 0.29185 0.6196 0.0
H1744 H 0.66746 0.0762 0.69787 0.0
H1745 H 0.7135 0.12437 0.61665 0.0
H1746 H 0.64819 0.05188 0.64239 0.0
H1747 H 0.69477 0.10006 0.56157 0.0
H1748 H 0.65555 0.06877 0.46469 0.0
H1749 H 0.67512 0.06482 0.52093 0.0
H1750 H 0.62801 0.0664 0.60043 0.0
H1751 H 0.60897 0.07088 0.54458 0.0
C1752 C 0.67425 0.08102 0.66842 0.0
C1753 C 0.69159 0.10231 0.6612 0.0
C1754 C 0.6632 0.06709 0.63667 0.0
C1755 C 0.66966 0.07425 0.59761 0.0
C1756 C 0.68932 0.09402 0.59126 0.0
C1757 C 0.70004 0.10808 0.62281 0.0
C1758 C 0.64873 0.06704 0.49407 0.0
C1759 C 0.63113 0.07067 0.50062 0.0
C1760 C 0.65995 0.06478 0.52624 0.0
C1761 C 0.6534 0.0658 0.56508 0.0
C1762 C 0.63354 0.06558 0.57092 0.0
C1763 C 0.62264 0.06829 0.53892 0.0
H1764 H 0.40762 0.07551 0.19663 0.0
H1765 H 0.40512 0.12415 0.12289 0.0
H1766 H 0.40468 0.05397 0.13784 0.0
H1767 H 0.40155 0.10252 0.06453 0.0
H1768 H 0.46246 0.07957 0.03713 0.0
H1769 H 0.43958 0.073 0.09497 0.0
H1770 H 0.38763 0.06821 0.02037 0.0
H1771 H 0.41051 0.07419 0.96205 0.0
C1772 C 0.40504 0.08089 0.16811 0.0
C1773 C 0.407 0.10162 0.16393 0.0
C1774 C 0.40339 0.06857 0.13449 0.0
C1775 C 0.4033 0.07676 0.09661 0.0
C1776 C 0.40155 0.09572 0.09328 0.0
C1777 C 0.4037 0.10822 0.12669 0.0
C1778 C 0.44574 0.07594 0.03295 0.0
C1779 C 0.43834 0.07777 -0.00456 0.0
C1780 C 0.43251 0.072 0.06606 0.0
C1781 C 0.41192 0.07045 0.0622 0.0
C1782 C 0.40345 0.0694 0.0241 0.0
C1783 C 0.41655 0.07284 0.99079 0.0
H1784 H 0.91109 0.32646 0.20218 0.0
H1785 H 0.86052 0.27647 0.12954 0.0
H1786 H 0.93272 0.344 0.14294 0.0
H1787 H 0.88225 0.29346 0.07073 0.0
H1788 H 0.91304 0.32984 0.96738 0.0
H1789 H 0.91709 0.31207 0.02653 0.0
H1790 H 0.91459 0.36106 0.09951 0.0
H1791 H 0.90987 0.37821 0.04082 0.0
C1792 C 0.90523 0.31849 0.17381 0.0
C1793 C 0.88402 0.30042 0.17006 0.0
C1794 C 0.91761 0.32853 0.13995 0.0
C1795 C 0.90899 0.3203 0.10226 0.0
C1796 C 0.88936 0.30018 0.09934 0.0
C1797 C 0.87681 0.29047 0.133 0.0
C1798 C 0.91444 0.33735 -0.004 0.0
C1799 C 0.9108 0.35511 -0.0001 0.0
C1800 C 0.91678 0.32721 0.02976 0.0
C1801 C 0.91595 0.33506 0.06756 0.0
C1802 C 0.91547 0.35471 0.07081 0.0
C1803 C 0.91259 0.36447 0.03724 0.0
H1804 H 0.66156 0.58269 0.19621 0.0
H1805 H 0.7121 0.5841 0.12242 0.0
H1806 H 0.64351 0.58668 0.13753 0.0
H1807 H 0.6946 0.58868 0.06419 0.0
H1808 H 0.61033 0.53002 0.03493 0.0
H1809 H 0.62675 0.55226 0.09345 0.0
H1810 H 0.67538 0.60401 0.02054 0.0
H1811 H 0.65839 0.58178 0.96155 0.0
C1812 C 0.6695 0.5852 0.16773 0.0
C1813 C 0.68792 0.58267 0.16347 0.0
C1814 C 0.65917 0.58747 0.13418 0.0
C1815 C 0.66742 0.58759 0.09627 0.0
C1816 C 0.68782 0.58868 0.09295 0.0
C1817 C 0.69784 0.58592 0.12628 0.0
C1818 C 0.62378 0.54662 0.03126 0.0
C1819 C 0.63338 0.55408 -0.00595 0.0
C1820 C 0.63315 0.55948 0.06476 0.0
C1821 C 0.65262 0.57974 0.06158 0.0
C1822 C 0.66043 0.58842 0.02376 0.0
C1823 C 0.65071 0.5757 0.99005 0.0
H1824 H 0.52885 0.91443 0.94861 0.0
H1825 H 0.57939 0.91785 0.02529 0.0
H1826 H 0.5518 0.91981 0.89137 0.0
H1827 H 0.60231 0.92265 0.96761 0.0
H1828 H 0.58305 0.86574 0.86618 0.0
H1829 H 0.58727 0.88795 0.92401 0.0
H1830 H 0.5871 0.93755 0.84922 0.0
H1831 H 0.58348 0.9154 0.79096 0.0
C1832 C 0.54532 0.91738 0.95326 0.0
C1833 C 0.55225 0.91534 0.99107 0.0
C1834 C 0.55859 0.92064 0.9205 0.0
C1835 C 0.57873 0.9213 0.92502 0.0
C1836 C 0.58684 0.92214 0.96336 0.0
C1837 C 0.57371 0.91939 -0.00368 0.0
C1838 C 0.58523 0.88196 0.86196 0.0
C1839 C 0.58253 0.88873 0.82443 0.0
C1840 C 0.58777 0.8948 0.89507 0.0
C1841 C 0.58704 0.91429 0.89112 0.0
C1842 C 0.58759 0.92253 0.85302 0.0
C1843 C 0.58554 0.90986 0.81971 0.0
H1844 H 0.07096 0.61128 0.94837 0.0
H1845 H 0.07029 0.66076 0.02241 0.0
H1846 H 0.06612 0.62859 0.89016 0.0
H1847 H 0.06595 0.67859 0.96375 0.0
H1848 H 0.12308 0.71399 0.86333 0.0
H1849 H 0.10027 0.69673 0.9208 0.0
H1850 H 0.05078 0.64705 0.8458 0.0
H1851 H 0.07363 0.66483 0.78785 0.0
C1852 C 0.06861 0.62524 0.95227 0.0
C1853 C 0.07139 0.63496 0.98956 0.0
C1854 C 0.0657 0.63515 0.91892 0.0
C1855 C 0.06613 0.65525 0.92233 0.0
C1856 C 0.06571 0.66319 0.9603 0.0
C1857 C 0.06817 0.65297 -0.00615 0.0
C1858 C 0.10681 0.7001 0.85893 0.0
C1859 C 0.10023 0.69047 0.82149 0.0
C1860 C 0.09361 0.69023 0.89184 0.0
C1861 C 0.0739 0.67024 0.88786 0.0
C1862 C 0.06596 0.66236 0.84967 0.0
C1863 C 0.07902 0.67256 0.81653 0.0
H1864 H 0.33106 0.40771 0.02583 0.0
H1865 H 0.37965 0.45723 0.94974 0.0
H1866 H 0.31311 0.38472 0.96814 0.0
H1867 H 0.36221 0.43428 0.89249 0.0
H1868 H 0.32547 0.40478 0.79156 0.0
H1869 H 0.34364 0.40008 0.84932 0.0
H1870 H 0.29431 0.40012 0.92493 0.0
H1871 H 0.27667 0.40532 0.86762 0.0
C1872 C 0.33865 0.41309 -0.00294 0.0
C1873 C 0.3564 0.43438 0.99188 0.0
C1874 C 0.32836 0.39994 0.96405 0.0
C1875 C 0.33596 0.40788 0.92575 0.0
C1876 C 0.35589 0.42763 0.92153 0.0
C1877 C 0.36587 0.44091 0.95433 0.0
C1878 C 0.31789 0.40256 0.82035 0.0
C1879 C 0.3 0.40587 0.8255 0.0
C1880 C 0.32831 0.39989 0.85339 0.0
C1881 C 0.32068 0.40019 0.89168 0.0
C1882 C 0.30065 0.39981 0.89589 0.0
C1883 C 0.29055 0.40293 0.86307 0.0
H1884 H 0.0722 0.45765 0.45012 0.0
H1885 H 0.07291 0.40837 0.52477 0.0
H1886 H 0.06748 0.43533 0.39221 0.0
H1887 H 0.06878 0.3861 0.4664 0.0
H1888 H 0.12544 0.40867 0.36412 0.0
H1889 H 0.10319 0.40319 0.42243 0.0
H1890 H 0.05187 0.40067 0.34893 0.0
H1891 H 0.07411 0.40559 0.29016 0.0
C1892 C 0.0702 0.4415 0.45424 0.0
C1893 C 0.07329 0.43485 0.49159 0.0
C1894 C 0.06736 0.42859 0.42108 0.0
C1895 C 0.0682 0.40914 0.42474 0.0
C1896 C 0.06818 0.40107 0.46279 0.0
C1897 C 0.07053 0.41381 0.49616 0.0
C1898 C 0.10892 0.40571 0.36028 0.0
C1899 C 0.1016 0.40794 0.32296 0.0
C1900 C 0.09605 0.40242 0.39367 0.0
C1901 C 0.07593 0.40192 0.39026 0.0
C1902 C 0.06735 0.4011 0.35233 0.0
C1903 C 0.08008 0.4039 0.31874 0.0
H1904 H 0.58454 0.71313 0.36544 0.0
H1905 H 0.58198 0.66316 0.28834 0.0
H1906 H 0.58901 0.69464 0.42221 0.0
H1907 H 0.58593 0.64416 0.34555 0.0
H1908 H 0.52931 0.60988 0.44731 0.0
H1909 H 0.55186 0.62696 0.38948 0.0
H1910 H 0.60342 0.6744 0.46437 0.0
H1911 H 0.58083 0.65678 0.52263 0.0
C1912 C 0.58611 0.69878 0.36051 0.0
C1913 C 0.5825 0.6893 0.32284 0.0
C1914 C 0.5888 0.68818 0.39303 0.0
C1915 C 0.58732 0.66765 0.38839 0.0
C1916 C 0.58697 0.65988 0.34994 0.0
C1917 C 0.58474 0.67078 0.31721 0.0
C1918 C 0.54592 0.6232 0.45153 0.0
C1919 C 0.55321 0.63232 0.48914 0.0
C1920 C 0.55897 0.63295 0.4184 0.0
C1921 C 0.57926 0.65233 0.42237 0.0
C1922 C 0.58779 0.65956 0.46052 0.0
C1923 C 0.57486 0.64947 0.49383 0.0
H1924 H 0.32165 0.91569 0.29446 0.0
H1925 H 0.27554 0.86503 0.37205 0.0
H1926 H 0.33993 0.93891 0.35175 0.0
H1927 H 0.29324 0.88829 0.42893 0.0
H1928 H 0.33039 0.92002 0.52839 0.0
H1929 H 0.31123 0.92367 0.47114 0.0
H1930 H 0.36011 0.92384 0.39401 0.0
H1931 H 0.3787 0.91955 0.45086 0.0
C1932 C 0.31464 0.91005 0.32356 0.0
C1933 C 0.29754 0.88845 0.32917 0.0
C1934 C 0.3251 0.92335 0.3563 0.0
C1935 C 0.31825 0.91527 0.39478 0.0
C1936 C 0.29891 0.89504 0.39969 0.0
C1937 C 0.28881 0.88159 0.36712 0.0
C1938 C 0.33765 0.92207 0.49935 0.0
C1939 C 0.35569 0.91903 0.4937 0.0
C1940 C 0.32668 0.92415 0.46661 0.0
C1941 C 0.33394 0.92362 0.42814 0.0
C1942 C 0.35409 0.92433 0.42326 0.0
C1943 C 0.36473 0.92174 0.45581 0.0
loop_
_geom_bond_atom_site_label_1
_geom_bond_atom_site_label_2
_geom_bond_distance
_geom_bond_site_symmetry_2
_ccdc_geom_bond_type
Zn0 O3 2.031 . S
Zn0 O5 2.049 . S
Zn0 O10 2.067 . S
Zn1 O2 1.962 1_554 S
Zn1 O4 1.986 1_554 S
Zn1 O6 1.996 . S
Zn1 O9 1.943 . S
O2 Zn1 1.962 1_556 S
O2 C7 1.254 1_556 S
O3 Zn0 2.031 . S
O3 C7 1.269 . S
O4 Zn1 1.986 1_556 S
O4 C11 1.262 . S
O5 Zn0 2.049 . S
O5 C13 1.260 . S
O6 Zn1 1.996 . S
O6 C13 1.257 . S
C7 O2 1.254 1_554 S
C7 O3 1.269 . S
C8 O9 1.249 . S
C8 O10 1.270 . S
O9 Zn1 1.943 . S
O9 C8 1.249 . S
O10 Zn0 2.067 . S
O10 C8 1.270 . S
C11 O4 1.262 . S
C11 O12 1.232 1_556 S
O12 C11 1.232 1_554 S
C13 O5 1.260 . S
C13 O6 1.257 . S
Zn14 O17 2.031 1_545 S
Zn14 O19 2.049 . S
Zn14 O24 2.067 . S
Zn15 O16 1.962 1_544 S
Zn15 O18 1.986 1_554 S
Zn15 O20 1.996 . S
Zn15 O23 1.943 . S
O16 Zn15 1.962 1_566 S
O16 C21 1.254 1_556 S
O17 Zn14 2.031 1_565 S
O17 C21 1.269 . S
O18 Zn15 1.986 1_556 S
O18 C25 1.262 . S
O19 Zn14 2.049 . S
O19 C27 1.260 . S
O20 Zn15 1.996 . S
O20 C27 1.257 . S
C21 O16 1.254 1_554 S
C21 O17 1.269 . S
C22 O23 1.249 . S
C22 O24 1.270 . S
O23 Zn15 1.943 . S
O23 C22 1.249 . S
O24 Zn14 2.067 . S
O24 C22 1.270 . S
C25 O18 1.262 . S
C25 O26 1.232 1_556 S
O26 C25 1.232 1_554 S
C27 O19 1.260 . S
C27 O20 1.257 . S
Zn28 O31 2.031 1_655 S
Zn28 O33 2.049 . S
Zn28 O38 2.067 . S
Zn29 O30 1.962 1_654 S
Zn29 O32 1.986 1_554 S
Zn29 O34 1.996 . S
Zn29 O37 1.943 . S
O30 Zn29 1.962 1_456 S
O30 C35 1.254 1_556 S
O31 Zn28 2.031 1_455 S
O31 C35 1.269 . S
O32 Zn29 1.986 1_556 S
O32 C39 1.262 . S
O33 Zn28 2.049 . S
O33 C41 1.260 . S
O34 Zn29 1.996 . S
O34 C41 1.257 . S
C35 O30 1.254 1_554 S
C35 O31 1.269 . S
C36 O37 1.249 . S
C36 O38 1.270 . S
O37 Zn29 1.943 . S
O37 C36 1.249 . S
O38 Zn28 2.067 . S
O38 C36 1.270 . S
C39 O32 1.262 . S
C39 O40 1.232 1_556 S
O40 C39 1.232 1_554 S
C41 O33 1.260 . S
C41 O34 1.257 . S
Zn42 O45 2.031 . S
Zn42 O47 2.049 . S
Zn42 O52 2.067 . S
Zn43 O44 1.962 . S
Zn43 O46 1.986 . S
Zn43 O48 1.996 . S
Zn43 O51 1.943 . S
O44 Zn43 1.962 . S
O44 C49 1.254 . S
O45 Zn42 2.031 . S
O45 C49 1.269 . S
O46 Zn43 1.986 . S
O46 C53 1.262 . S
O47 Zn42 2.049 . S
O47 C55 1.260 . S
O48 Zn43 1.996 . S
O48 C55 1.257 . S
C49 O44 1.254 . S
C49 O45 1.269 . S
C50 O51 1.249 . S
C50 O52 1.270 . S
O51 Zn43 1.943 . S
O51 C50 1.249 . S
O52 Zn42 2.067 . S
O52 C50 1.270 . S
C53 O46 1.262 . S
C53 O54 1.232 . S
O54 C53 1.232 . S
C55 O47 1.260 . S
C55 O48 1.257 . S
Zn56 O59 2.031 1_565 S
Zn56 O61 2.049 . S
Zn56 O66 2.067 . S
Zn57 O58 1.962 1_565 S
Zn57 O60 1.986 . S
Zn57 O62 1.996 . S
Zn57 O65 1.943 . S
O58 Zn57 1.962 1_545 S
O58 C63 1.254 . S
O59 Zn56 2.031 1_545 S
O59 C63 1.269 . S
O60 Zn57 1.986 . S
O60 C67 1.262 . S
O61 Zn56 2.049 . S
O61 C69 1.260 . S
O62 Zn57 1.996 . S
O62 C69 1.257 . S
C63 O58 1.254 . S
C63 O59 1.269 . S
C64 O65 1.249 . S
C64 O66 1.270 . S
O65 Zn57 1.943 . S
O65 C64 1.249 . S
O66 Zn56 2.067 . S
O66 C64 1.270 . S
C67 O60 1.262 . S
C67 O68 1.232 . S
O68 C67 1.232 . S
C69 O61 1.260 . S
C69 O62 1.257 . S
Zn70 O73 2.031 1_455 S
Zn70 O75 2.049 . S
Zn70 O80 2.067 . S
Zn71 O72 1.962 1_455 S
Zn71 O74 1.986 . S
Zn71 O76 1.996 . S
Zn71 O79 1.943 . S
O72 Zn71 1.962 1_655 S
O72 C77 1.254 . S
O73 Zn70 2.031 1_655 S
O73 C77 1.269 . S
O74 Zn71 1.986 . S
O74 C81 1.262 . S
O75 Zn70 2.049 . S
O75 C83 1.260 . S
O76 Zn71 1.996 . S
O76 C83 1.257 . S
C77 O72 1.254 . S
C77 O73 1.269 . S
C78 O79 1.249 . S
C78 O80 1.270 . S
O79 Zn71 1.943 . S
O79 C78 1.249 . S
O80 Zn70 2.067 . S
O80 C78 1.270 . S
C81 O74 1.262 . S
C81 O82 1.232 . S
O82 C81 1.232 . S
C83 O75 1.260 . S
C83 O76 1.257 . S
Zn84 O87 2.031 . S
Zn84 O89 2.049 . S
Zn84 O94 2.067 . S
Zn85 O86 1.962 1_556 S
Zn85 O88 1.986 1_556 S
Zn85 O90 1.996 . S
Zn85 O93 1.943 . S
O86 Zn85 1.962 1_554 S
O86 C91 1.254 1_554 S
O87 Zn84 2.031 . S
O87 C91 1.269 . S
O88 Zn85 1.986 1_554 S
O88 C95 1.262 . S
O89 Zn84 2.049 . S
O89 C97 1.260 . S
O90 Zn85 1.996 . S
O90 C97 1.257 . S
C91 O86 1.254 1_556 S
C91 O87 1.269 . S
C92 O93 1.249 . S
C92 O94 1.270 . S
O93 Zn85 1.943 . S
O93 C92 1.249 . S
O94 Zn84 2.067 . S
O94 C92 1.270 . S
C95 O88 1.262 . S
C95 O96 1.232 1_554 S
O96 C95 1.232 1_556 S
C97 O89 1.260 . S
C97 O90 1.257 . S
Zn98 O101 2.031 1_565 S
Zn98 O103 2.049 . S
Zn98 O108 2.067 . S
Zn99 O100 1.962 1_566 S
Zn99 O102 1.986 1_556 S
Zn99 O104 1.996 . S
Zn99 O107 1.943 . S
O100 Zn99 1.962 1_544 S
O100 C105 1.254 1_554 S
O101 Zn98 2.031 1_545 S
O101 C105 1.269 . S
O102 Zn99 1.986 1_554 S
O102 C109 1.262 . S
O103 Zn98 2.049 . S
O103 C111 1.260 . S
O104 Zn99 1.996 . S
O104 C111 1.257 . S
C105 O100 1.254 1_556 S
C105 O101 1.269 . S
C106 O107 1.249 . S
C106 O108 1.270 . S
O107 Zn99 1.943 . S
O107 C106 1.249 . S
O108 Zn98 2.067 . S
O108 C106 1.270 . S
C109 O102 1.262 . S
C109 O110 1.232 1_554 S
O110 C109 1.232 1_556 S
C111 O103 1.260 . S
C111 O104 1.257 . S
Zn112 O115 2.031 1_455 S
Zn112 O117 2.049 . S
Zn112 O122 2.067 . S
Zn113 O114 1.962 1_456 S
Zn113 O116 1.986 1_556 S
Zn113 O118 1.996 . S
Zn113 O121 1.943 . S
O114 Zn113 1.962 1_654 S
O114 C119 1.254 1_554 S
O115 Zn112 2.031 1_655 S
O115 C119 1.269 . S
O116 Zn113 1.986 1_554 S
O116 C123 1.262 . S
O117 Zn112 2.049 . S
O117 C125 1.260 . S
O118 Zn113 1.996 . S
O118 C125 1.257 . S
C119 O114 1.254 1_556 S
C119 O115 1.269 . S
C120 O121 1.249 . S
C120 O122 1.270 . S
O121 Zn113 1.943 . S
O121 C120 1.249 . S
O122 Zn112 2.067 . S
O122 C120 1.270 . S
C123 O116 1.262 . S
C123 O124 1.232 1_554 S
O124 C123 1.232 1_556 S
C125 O117 1.260 . S
C125 O118 1.257 . S
Zn126 O129 2.031 . S
Zn126 O131 2.049 . S
Zn126 O136 2.067 . S
Zn127 O128 1.962 . S
Zn127 O130 1.986 . S
Zn127 O132 1.996 . S
Zn127 O135 1.943 . S
O128 Zn127 1.962 . S
O128 C133 1.254 . S
O129 Zn126 2.031 . S
O129 C133 1.269 . S
O130 Zn127 1.986 . S
O130 C137 1.262 . S
O131 Zn126 2.049 . S
O131 C139 1.260 . S
O132 Zn127 1.996 . S
O132 C139 1.257 . S
C133 O128 1.254 . S
C133 O129 1.269 . S
C134 O135 1.249 . S
C134 O136 1.270 . S
O135 Zn127 1.943 . S
O135 C134 1.249 . S
O136 Zn126 2.067 . S
O136 C134 1.270 . S
C137 O130 1.262 . S
C137 O138 1.232 . S
O138 C137 1.232 . S
C139 O131 1.260 . S
C139 O132 1.257 . S
Zn140 O143 2.031 1_545 S
Zn140 O145 2.049 . S
Zn140 O150 2.067 . S
Zn141 O142 1.962 1_545 S
Zn141 O144 1.986 . S
Zn141 O146 1.996 . S
Zn141 O149 1.943 . S
O142 Zn141 1.962 1_565 S
O142 C147 1.254 . S
O143 Zn140 2.031 1_565 S
O143 C147 1.269 . S
O144 Zn141 1.986 . S
O144 C151 1.262 . S
O145 Zn140 2.049 . S
O145 C153 1.260 . S
O146 Zn141 1.996 . S
O146 C153 1.257 . S
C147 O142 1.254 . S
C147 O143 1.269 . S
C148 O149 1.249 . S
C148 O150 1.270 . S
O149 Zn141 1.943 . S
O149 C148 1.249 . S
O150 Zn140 2.067 . S
O150 C148 1.270 . S
C151 O144 1.262 . S
C151 O152 1.232 . S
O152 C151 1.232 . S
C153 O145 1.260 . S
C153 O146 1.257 . S
Zn154 O157 2.031 1_655 S
Zn154 O159 2.049 . S
Zn154 O164 2.067 . S
Zn155 O156 1.962 1_655 S
Zn155 O158 1.986 . S
Zn155 O160 1.996 . S
Zn155 O163 1.943 . S
O156 Zn155 1.962 1_455 S
O156 C161 1.254 . S
O157 Zn154 2.031 1_455 S
O157 C161 1.269 . S
O158 Zn155 1.986 . S
O158 C165 1.262 . S
O159 Zn154 2.049 . S
O159 C167 1.260 . S
O160 Zn155 1.996 . S
O160 C167 1.257 . S
C161 O156 1.254 . S
C161 O157 1.269 . S
C162 O163 1.249 . S
C162 O164 1.270 . S
O163 Zn155 1.943 . S
O163 C162 1.249 . S
O164 Zn154 2.067 . S
O164 C162 1.270 . S
C165 O158 1.262 . S
C165 O166 1.232 . S
O166 C165 1.232 . S
C167 O159 1.260 . S
C167 O160 1.257 . S
Zn168 O171 2.031 . S
Zn168 O173 2.049 . S
Zn168 O178 2.067 . S
Zn169 O170 1.962 . S
Zn169 O172 1.986 . S
Zn169 O174 1.996 . S
Zn169 O177 1.943 . S
O170 Zn169 1.962 . S
O170 C175 1.254 . S
O171 Zn168 2.031 . S
O171 C175 1.269 . S
O172 Zn169 1.986 . S
O172 C179 1.262 . S
O173 Zn168 2.049 . S
O173 C181 1.260 . S
O174 Zn169 1.996 . S
O174 C181 1.257 . S
C175 O170 1.254 . S
C175 O171 1.269 . S
C176 O177 1.249 . S
C176 O178 1.270 . S
O177 Zn169 1.943 . S
O177 C176 1.249 . S
O178 Zn168 2.067 . S
O178 C176 1.270 . S
C179 O172 1.262 . S
C179 O180 1.232 . S
O180 C179 1.232 . S
C181 O173 1.260 . S
C181 O174 1.257 . S
Zn182 O185 2.031 . S
Zn182 O187 2.049 . S
Zn182 O192 2.067 . S
Zn183 O184 1.962 . S
Zn183 O186 1.986 . S
Zn183 O188 1.996 . S
Zn183 O191 1.943 . S
O184 Zn183 1.962 . S
O184 C189 1.254 . S
O185 Zn182 2.031 . S
O185 C189 1.269 . S
O186 Zn183 1.986 . S
O186 C193 1.262 . S
O187 Zn182 2.049 . S
O187 C195 1.260 . S
O188 Zn183 1.996 . S
O188 C195 1.257 . S
C189 O184 1.254 . S
C189 O185 1.269 . S
C190 O191 1.249 . S
C190 O192 1.270 . S
O191 Zn183 1.943 . S
O191 C190 1.249 . S
O192 Zn182 2.067 . S
O192 C190 1.270 . S
C193 O186 1.262 . S
C193 O194 1.232 . S
O194 C193 1.232 . S
C195 O187 1.260 . S
C195 O188 1.257 . S
Zn196 O199 2.031 . S
Zn196 O201 2.049 . S
Zn196 O206 2.067 . S
Zn197 O198 1.962 . S
Zn197 O200 1.986 . S
Zn197 O202 1.996 . S
Zn197 O205 1.943 . S
O198 Zn197 1.962 . S
O198 C203 1.254 . S
O199 Zn196 2.031 . S
O199 C203 1.269 . S
O200 Zn197 1.986 . S
O200 C207 1.262 . S
O201 Zn196 2.049 . S
O201 C209 1.260 . S
O202 Zn197 1.996 . S
O202 C209 1.257 . S
C203 O198 1.254 . S
C203 O199 1.269 . S
C204 O205 1.249 . S
C204 O206 1.270 . S
O205 Zn197 1.943 . S
O205 C204 1.249 . S
O206 Zn196 2.067 . S
O206 C204 1.270 . S
C207 O200 1.262 . S
C207 O208 1.232 . S
O208 C207 1.232 . S
C209 O201 1.260 . S
C209 O202 1.257 . S
Zn210 O213 2.031 . S
Zn210 O215 2.049 . S
Zn210 O220 2.067 . S
Zn211 O212 1.962 . S
Zn211 O214 1.986 . S
Zn211 O216 1.996 . S
Zn211 O219 1.943 . S
O212 Zn211 1.962 . S
O212 C217 1.254 . S
O213 Zn210 2.031 . S
O213 C217 1.269 . S
O214 Zn211 1.986 . S
O214 C221 1.262 . S
O215 Zn210 2.049 . S
O215 C223 1.260 . S
O216 Zn211 1.996 . S
O216 C223 1.257 . S
C217 O212 1.254 . S
C217 O213 1.269 . S
C218 O219 1.249 . S
C218 O220 1.270 . S
O219 Zn211 1.943 . S
O219 C218 1.249 . S
O220 Zn210 2.067 . S
O220 C218 1.270 . S
C221 O214 1.262 . S
C221 O222 1.232 . S
O222 C221 1.232 . S
C223 O215 1.260 . S
C223 O216 1.257 . S
Zn224 O227 2.031 . S
Zn224 O229 2.049 . S
Zn224 O234 2.067 . S
Zn225 O226 1.962 . S
Zn225 O228 1.986 . S
Zn225 O230 1.996 . S
Zn225 O233 1.943 . S
O226 Zn225 1.962 . S
O226 C231 1.254 . S
O227 Zn224 2.031 . S
O227 C231 1.269 . S
O228 Zn225 1.986 . S
O228 C235 1.262 . S
O229 Zn224 2.049 . S
O229 C237 1.260 . S
O230 Zn225 1.996 . S
O230 C237 1.257 . S
C231 O226 1.254 . S
C231 O227 1.269 . S
C232 O233 1.249 . S
C232 O234 1.270 . S
O233 Zn225 1.943 . S
O233 C232 1.249 . S
O234 Zn224 2.067 . S
O234 C232 1.270 . S
C235 O228 1.262 . S
C235 O236 1.232 . S
O236 C235 1.232 . S
C237 O229 1.260 . S
C237 O230 1.257 . S
Zn238 O241 2.031 . S
Zn238 O243 2.049 . S
Zn238 O248 2.067 . S
Zn239 O240 1.962 . S
Zn239 O242 1.986 . S
Zn239 O244 1.996 . S
Zn239 O247 1.943 . S
O240 Zn239 1.962 . S
O240 C245 1.254 . S
O241 Zn238 2.031 . S
O241 C245 1.269 . S
O242 Zn239 1.986 . S
O242 C249 1.262 . S
O243 Zn238 2.049 . S
O243 C251 1.260 . S
O244 Zn239 1.996 . S
O244 C251 1.257 . S
C245 O240 1.254 . S
C245 O241 1.269 . S
C246 O247 1.249 . S
C246 O248 1.270 . S
O247 Zn239 1.943 . S
O247 C246 1.249 . S
O248 Zn238 2.067 . S
O248 C246 1.270 . S
C249 O242 1.262 . S
C249 O250 1.232 . S
O250 C249 1.232 . S
C251 O243 1.260 . S
C251 O244 1.257 . S
Zn252 O255 2.031 . S
Zn252 O257 2.049 . S
Zn252 O262 2.067 . S
Zn253 O254 1.962 . S
Zn253 O256 1.986 . S
Zn253 O258 1.996 . S
Zn253 O261 1.943 . S
O254 Zn253 1.962 . S
O254 C259 1.254 . S
O255 Zn252 2.031 . S
O255 C259 1.269 . S
O256 Zn253 1.986 . S
O256 C263 1.262 . S
O257 Zn252 2.049 . S
O257 C265 1.260 . S
O258 Zn253 1.996 . S
O258 C265 1.257 . S
C259 O254 1.254 . S
C259 O255 1.269 . S
C260 O261 1.249 . S
C260 O262 1.270 . S
O261 Zn253 1.943 . S
O261 C260 1.249 . S
O262 Zn252 2.067 . S
O262 C260 1.270 . S
C263 O256 1.262 . S
C263 O264 1.232 . S
O264 C263 1.232 . S
C265 O257 1.260 . S
C265 O258 1.257 . S
Zn266 O269 2.031 . S
Zn266 O271 2.049 . S
Zn266 O276 2.067 . S
Zn267 O268 1.962 . S
Zn267 O270 1.986 . S
Zn267 O272 1.996 . S
Zn267 O275 1.943 . S
O268 Zn267 1.962 . S
O268 C273 1.254 . S
O269 Zn266 2.031 . S
O269 C273 1.269 . S
O270 Zn267 1.986 . S
O270 C277 1.262 . S
O271 Zn266 2.049 . S
O271 C279 1.260 . S
O272 Zn267 1.996 . S
O272 C279 1.257 . S
C273 O268 1.254 . S
C273 O269 1.269 . S
C274 O275 1.249 . S
C274 O276 1.270 . S
O275 Zn267 1.943 . S
O275 C274 1.249 . S
O276 Zn266 2.067 . S
O276 C274 1.270 . S
C277 O270 1.262 . S
C277 O278 1.232 . S
O278 C277 1.232 . S
C279 O271 1.260 . S
C279 O272 1.257 . S
Zn280 O283 2.031 . S
Zn280 O285 2.049 . S
Zn280 O290 2.067 . S
Zn281 O282 1.962 . S
Zn281 O284 1.986 . S
Zn281 O286 1.996 . S
Zn281 O289 1.943 . S
O282 Zn281 1.962 . S
O282 C287 1.254 . S
O283 Zn280 2.031 . S
O283 C287 1.269 . S
O284 Zn281 1.986 . S
O284 C291 1.262 . S
O285 Zn280 2.049 . S
O285 C293 1.260 . S
O286 Zn281 1.996 . S
O286 C293 1.257 . S
C287 O282 1.254 . S
C287 O283 1.269 . S
C288 O289 1.249 . S
C288 O290 1.270 . S
O289 Zn281 1.943 . S
O289 C288 1.249 . S
O290 Zn280 2.067 . S
O290 C288 1.270 . S
C291 O284 1.262 . S
C291 O292 1.232 . S
O292 C291 1.232 . S
C293 O285 1.260 . S
C293 O286 1.257 . S
Zn294 O297 2.031 . S
Zn294 O299 2.049 . S
Zn294 O304 2.067 . S
Zn295 O296 1.962 . S
Zn295 O298 1.986 . S
Zn295 O300 1.996 . S
Zn295 O303 1.943 . S
O296 Zn295 1.962 . S
O296 C301 1.254 . S
O297 Zn294 2.031 . S
O297 C301 1.269 . S
O298 Zn295 1.986 . S
O298 C305 1.262 . S
O299 Zn294 2.049 . S
O299 C307 1.260 . S
O300 Zn295 1.996 . S
O300 C307 1.257 . S
C301 O296 1.254 . S
C301 O297 1.269 . S
C302 O303 1.249 . S
C302 O304 1.270 . S
O303 Zn295 1.943 . S
O303 C302 1.249 . S
O304 Zn294 2.067 . S
O304 C302 1.270 . S
C305 O298 1.262 . S
C305 O306 1.232 . S
O306 C305 1.232 . S
C307 O299 1.260 . S
C307 O300 1.257 . S
Zn308 O311 2.031 . S
Zn308 O313 2.049 . S
Zn308 O318 2.067 . S
Zn309 O310 1.962 . S
Zn309 O312 1.986 . S
Zn309 O314 1.996 . S
Zn309 O317 1.943 . S
O310 Zn309 1.962 . S
O310 C315 1.254 . S
O311 Zn308 2.031 . S
O311 C315 1.269 . S
O312 Zn309 1.986 . S
O312 C319 1.262 . S
O313 Zn308 2.049 . S
O313 C321 1.260 . S
O314 Zn309 1.996 . S
O314 C321 1.257 . S
C315 O310 1.254 . S
C315 O311 1.269 . S
C316 O317 1.249 . S
C316 O318 1.270 . S
O317 Zn309 1.943 . S
O317 C316 1.249 . S
O318 Zn308 2.067 . S
O318 C316 1.270 . S
C319 O312 1.262 . S
C319 O320 1.232 . S
O320 C319 1.232 . S
C321 O313 1.260 . S
C321 O314 1.257 . S
Zn322 O325 2.031 . S
Zn322 O327 2.049 . S
Zn322 O332 2.067 . S
Zn323 O324 1.962 . S
Zn323 O326 1.986 . S
Zn323 O328 1.996 . S
Zn323 O331 1.943 . S
O324 Zn323 1.962 . S
O324 C329 1.254 . S
O325 Zn322 2.031 . S
O325 C329 1.269 . S
O326 Zn323 1.986 . S
O326 C333 1.262 . S
O327 Zn322 2.049 . S
O327 C335 1.260 . S
O328 Zn323 1.996 . S
O328 C335 1.257 . S
C329 O324 1.254 . S
C329 O325 1.269 . S
C330 O331 1.249 . S
C330 O332 1.270 . S
O331 Zn323 1.943 . S
O331 C330 1.249 . S
O332 Zn322 2.067 . S
O332 C330 1.270 . S
C333 O326 1.262 . S
C333 O334 1.232 . S
O334 C333 1.232 . S
C335 O327 1.260 . S
C335 O328 1.257 . S
Zn336 O339 2.031 . S
Zn336 O341 2.049 . S
Zn336 O346 2.067 . S
Zn337 O338 1.962 . S
Zn337 O340 1.986 . S
Zn337 O342 1.996 . S
Zn337 O345 1.943 . S
O338 Zn337 1.962 . S
O338 C343 1.254 . S
O339 Zn336 2.031 . S
O339 C343 1.269 . S
O340 Zn337 1.986 . S
O340 C347 1.262 . S
O341 Zn336 2.049 . S
O341 C349 1.260 . S
O342 Zn337 1.996 . S
O342 C349 1.257 . S
C343 O338 1.254 . S
C343 O339 1.269 . S
C344 O345 1.249 . S
C344 O346 1.270 . S
O345 Zn337 1.943 . S
O345 C344 1.249 . S
O346 Zn336 2.067 . S
O346 C344 1.270 . S
C347 O340 1.262 . S
C347 O348 1.232 . S
O348 C347 1.232 . S
C349 O341 1.260 . S
C349 O342 1.257 . S
Zn350 O353 2.031 . S
Zn350 O355 2.049 . S
Zn350 O360 2.067 . S
Zn351 O352 1.962 . S
Zn351 O354 1.986 . S
Zn351 O356 1.996 . S
Zn351 O359 1.943 . S
O352 Zn351 1.962 . S
O352 C357 1.254 . S
O353 Zn350 2.031 . S
O353 C357 1.269 . S
O354 Zn351 1.986 . S
O354 C361 1.262 . S
O355 Zn350 2.049 . S
O355 C363 1.260 . S
O356 Zn351 1.996 . S
O356 C363 1.257 . S
C357 O352 1.254 . S
C357 O353 1.269 . S
C358 O359 1.249 . S
C358 O360 1.270 . S
O359 Zn351 1.943 . S
O359 C358 1.249 . S
O360 Zn350 2.067 . S
O360 C358 1.270 . S
C361 O354 1.262 . S
C361 O362 1.232 . S
O362 C361 1.232 . S
C363 O355 1.260 . S
C363 O356 1.257 . S
Zn364 O367 2.031 . S
Zn364 O369 2.049 . S
Zn364 O374 2.067 . S
Zn365 O366 1.962 . S
Zn365 O368 1.986 . S
Zn365 O370 1.996 . S
Zn365 O373 1.943 . S
O366 Zn365 1.962 . S
O366 C371 1.254 . S
O367 Zn364 2.031 . S
O367 C371 1.269 . S
O368 Zn365 1.986 . S
O368 C375 1.262 . S
O369 Zn364 2.049 . S
O369 C377 1.260 . S
O370 Zn365 1.996 . S
O370 C377 1.257 . S
C371 O366 1.254 . S
C371 O367 1.269 . S
C372 O373 1.249 . S
C372 O374 1.270 . S
O373 Zn365 1.943 . S
O373 C372 1.249 . S
O374 Zn364 2.067 . S
O374 C372 1.270 . S
C375 O368 1.262 . S
C375 O376 1.232 . S
O376 C375 1.232 . S
C377 O369 1.260 . S
C377 O370 1.257 . S
Zn378 O381 2.031 . S
Zn378 O383 2.049 . S
Zn378 O388 2.067 . S
Zn379 O380 1.962 . S
Zn379 O382 1.986 . S
Zn379 O384 1.996 . S
Zn379 O387 1.943 . S
O380 Zn379 1.962 . S
O380 C385 1.254 . S
O381 Zn378 2.031 . S
O381 C385 1.269 . S
O382 Zn379 1.986 . S
O382 C389 1.262 . S
O383 Zn378 2.049 . S
O383 C391 1.260 . S
O384 Zn379 1.996 . S
O384 C391 1.257 . S
C385 O380 1.254 . S
C385 O381 1.269 . S
C386 O387 1.249 . S
C386 O388 1.270 . S
O387 Zn379 1.943 . S
O387 C386 1.249 . S
O388 Zn378 2.067 . S
O388 C386 1.270 . S
C389 O382 1.262 . S
C389 O390 1.232 . S
O390 C389 1.232 . S
C391 O383 1.260 . S
C391 O384 1.257 . S
Zn392 O395 2.031 . S
Zn392 O397 2.049 . S
Zn392 O402 2.067 . S
Zn393 O394 1.962 . S
Zn393 O396 1.986 . S
Zn393 O398 1.996 . S
Zn393 O401 1.943 . S
O394 Zn393 1.962 . S
O394 C399 1.254 . S
O395 Zn392 2.031 . S
O395 C399 1.269 . S
O396 Zn393 1.986 . S
O396 C403 1.262 . S
O397 Zn392 2.049 . S
O397 C405 1.260 . S
O398 Zn393 1.996 . S
O398 C405 1.257 . S
C399 O394 1.254 . S
C399 O395 1.269 . S
C400 O401 1.249 . S
C400 O402 1.270 . S
O401 Zn393 1.943 . S
O401 C400 1.249 . S
O402 Zn392 2.067 . S
O402 C400 1.270 . S
C403 O396 1.262 . S
C403 O404 1.232 . S
O404 C403 1.232 . S
C405 O397 1.260 . S
C405 O398 1.257 . S
Zn406 O409 2.031 . S
Zn406 O411 2.049 . S
Zn406 O416 2.067 . S
Zn407 O408 1.962 . S
Zn407 O410 1.986 . S
Zn407 O412 1.996 . S
Zn407 O415 1.943 . S
O408 Zn407 1.962 . S
O408 C413 1.254 . S
O409 Zn406 2.031 . S
O409 C413 1.269 . S
O410 Zn407 1.986 . S
O410 C417 1.262 . S
O411 Zn406 2.049 . S
O411 C419 1.260 . S
O412 Zn407 1.996 . S
O412 C419 1.257 . S
C413 O408 1.254 . S
C413 O409 1.269 . S
C414 O415 1.249 . S
C414 O416 1.270 . S
O415 Zn407 1.943 . S
O415 C414 1.249 . S
O416 Zn406 2.067 . S
O416 C414 1.270 . S
C417 O410 1.262 . S
C417 O418 1.232 . S
O418 C417 1.232 . S
C419 O411 1.260 . S
C419 O412 1.257 . S
Zn420 O423 2.031 . S
Zn420 O425 2.049 . S
Zn420 O430 2.067 . S
Zn421 O422 1.962 . S
Zn421 O424 1.986 . S
Zn421 O426 1.996 . S
Zn421 O429 1.943 . S
O422 Zn421 1.962 . S
O422 C427 1.254 . S
O423 Zn420 2.031 . S
O423 C427 1.269 . S
O424 Zn421 1.986 . S
O424 C431 1.262 . S
O425 Zn420 2.049 . S
O425 C433 1.260 . S
O426 Zn421 1.996 . S
O426 C433 1.257 . S
C427 O422 1.254 . S
C427 O423 1.269 . S
C428 O429 1.249 . S
C428 O430 1.270 . S
O429 Zn421 1.943 . S
O429 C428 1.249 . S
O430 Zn420 2.067 . S
O430 C428 1.270 . S
C431 O424 1.262 . S
C431 O432 1.232 . S
O432 C431 1.232 . S
C433 O425 1.260 . S
C433 O426 1.257 . S
Zn434 O437 2.031 . S
Zn434 O439 2.049 . S
Zn434 O444 2.067 . S
Zn435 O436 1.962 . S
Zn435 O438 1.986 . S
Zn435 O440 1.996 . S
Zn435 O443 1.943 . S
O436 Zn435 1.962 . S
O436 C441 1.254 . S
O437 Zn434 2.031 . S
O437 C441 1.269 . S
O438 Zn435 1.986 . S
O438 C445 1.262 . S
O439 Zn434 2.049 . S
O439 C447 1.260 . S
O440 Zn435 1.996 . S
O440 C447 1.257 . S
C441 O436 1.254 . S
C441 O437 1.269 . S
C442 O443 1.249 . S
C442 O444 1.270 . S
O443 Zn435 1.943 . S
O443 C442 1.249 . S
O444 Zn434 2.067 . S
O444 C442 1.270 . S
C445 O438 1.262 . S
C445 O446 1.232 . S
O446 C445 1.232 . S
C447 O439 1.260 . S
C447 O440 1.257 . S
Zn448 O451 2.031 . S
Zn448 O453 2.049 . S
Zn448 O458 2.067 . S
Zn449 O450 1.962 . S
Zn449 O452 1.986 . S
Zn449 O454 1.996 . S
Zn449 O457 1.943 . S
O450 Zn449 1.962 . S
O450 C455 1.254 . S
O451 Zn448 2.031 . S
O451 C455 1.269 . S
O452 Zn449 1.986 . S
O452 C459 1.262 . S
O453 Zn448 2.049 . S
O453 C461 1.260 . S
O454 Zn449 1.996 . S
O454 C461 1.257 . S
C455 O450 1.254 . S
C455 O451 1.269 . S
C456 O457 1.249 . S
C456 O458 1.270 . S
O457 Zn449 1.943 . S
O457 C456 1.249 . S
O458 Zn448 2.067 . S
O458 C456 1.270 . S
C459 O452 1.262 . S
C459 O460 1.232 . S
O460 C459 1.232 . S
C461 O453 1.260 . S
C461 O454 1.257 . S
Zn462 O465 2.031 . S
Zn462 O467 2.049 . S
Zn462 O472 2.067 . S
Zn463 O464 1.962 . S
Zn463 O466 1.986 . S
Zn463 O468 1.996 . S
Zn463 O471 1.943 . S
O464 Zn463 1.962 . S
O464 C469 1.254 . S
O465 Zn462 2.031 . S
O465 C469 1.269 . S
O466 Zn463 1.986 . S
O466 C473 1.262 . S
O467 Zn462 2.049 . S
O467 C475 1.260 . S
O468 Zn463 1.996 . S
O468 C475 1.257 . S
C469 O464 1.254 . S
C469 O465 1.269 . S
C470 O471 1.249 . S
C470 O472 1.270 . S
O471 Zn463 1.943 . S
O471 C470 1.249 . S
O472 Zn462 2.067 . S
O472 C470 1.270 . S
C473 O466 1.262 . S
C473 O474 1.232 . S
O474 C473 1.232 . S
C475 O467 1.260 . S
C475 O468 1.257 . S
Zn476 O479 2.031 . S
Zn476 O481 2.049 . S
Zn476 O486 2.067 . S
Zn477 O478 1.962 . S
Zn477 O480 1.986 . S
Zn477 O482 1.996 . S
Zn477 O485 1.943 . S
O478 Zn477 1.962 . S
O478 C483 1.254 . S
O479 Zn476 2.031 . S
O479 C483 1.269 . S
O480 Zn477 1.986 . S
O480 C487 1.262 . S
O481 Zn476 2.049 . S
O481 C489 1.260 . S
O482 Zn477 1.996 . S
O482 C489 1.257 . S
C483 O478 1.254 . S
C483 O479 1.269 . S
C484 O485 1.249 . S
C484 O486 1.270 . S
O485 Zn477 1.943 . S
O485 C484 1.249 . S
O486 Zn476 2.067 . S
O486 C484 1.270 . S
C487 O480 1.262 . S
C487 O488 1.232 . S
O488 C487 1.232 . S
C489 O481 1.260 . S
C489 O482 1.257 . S
Zn490 O493 2.031 . S
Zn490 O495 2.049 . S
Zn490 O500 2.067 . S
Zn491 O492 1.962 . S
Zn491 O494 1.986 . S
Zn491 O496 1.996 . S
Zn491 O499 1.943 . S
O492 Zn491 1.962 . S
O492 C497 1.254 . S
O493 Zn490 2.031 . S
O493 C497 1.269 . S
O494 Zn491 1.986 . S
O494 C501 1.262 . S
O495 Zn490 2.049 . S
O495 C503 1.260 . S
O496 Zn491 1.996 . S
O496 C503 1.257 . S
C497 O492 1.254 . S
C497 O493 1.269 . S
C498 O499 1.249 . S
C498 O500 1.270 . S
O499 Zn491 1.943 . S
O499 C498 1.249 . S
O500 Zn490 2.067 . S
O500 C498 1.270 . S
C501 O494 1.262 . S
C501 O502 1.232 . S
O502 C501 1.232 . S
C503 O495 1.260 . S
C503 O496 1.257 . S
H504 C512 0.950 . S
H505 C517 0.950 . S
H506 C514 0.950 . S
H507 C516 0.950 . S
H508 C518 0.950 . S
H509 C520 0.950 . S
H510 C522 0.950 . S
H511 C523 0.950 1_554 S
C512 H504 0.950 . S
C512 C513 1.386 . S
C512 C514 1.391 . S
C513 C512 1.386 . S
C513 C517 1.393 . S
C514 H506 0.950 . S
C514 C512 1.391 . S
C514 C515 1.400 . S
C515 C514 1.400 . S
C515 C516 1.398 . S
C515 C521 1.491 . S
C516 H507 0.950 . S
C516 C515 1.398 . S
C516 C517 1.391 . S
C517 H505 0.950 . S
C517 C513 1.393 . S
C517 C516 1.391 . S
C518 H508 0.950 . S
C518 C519 1.386 . S
C518 C520 1.391 . S
C519 C518 1.386 . S
C519 C523 1.393 . S
C520 H509 0.950 . S
C520 C518 1.391 . S
C520 C521 1.400 . S
C521 C515 1.491 . S
C521 C520 1.400 . S
C521 C522 1.398 . S
C522 H510 0.950 . S
C522 C521 1.398 . S
C522 C523 1.391 . S
C523 H511 0.950 1_556 S
C523 C519 1.393 . S
C523 C522 1.391 . S
H524 C532 0.950 . S
H525 C537 0.950 . S
H526 C534 0.950 . S
H527 C536 0.950 . S
H528 C538 0.950 . S
H529 C540 0.950 . S
H530 C542 0.950 . S
H531 C543 0.950 . S
C532 H524 0.950 . S
C532 C533 1.386 . S
C532 C534 1.391 . S
C533 C532 1.386 . S
C533 C537 1.393 . S
C534 H526 0.950 . S
C534 C532 1.391 . S
C534 C535 1.400 . S
C535 C534 1.400 . S
C535 C536 1.398 . S
C535 C541 1.491 . S
C536 H527 0.950 . S
C536 C535 1.398 . S
C536 C537 1.391 . S
C537 H525 0.950 . S
C537 C533 1.393 . S
C537 C536 1.391 . S
C538 H528 0.950 . S
C538 C539 1.386 . S
C538 C540 1.391 . S
C539 C538 1.386 . S
C539 C543 1.393 . S
C540 H529 0.950 . S
C540 C538 1.391 . S
C540 C541 1.400 . S
C541 C535 1.491 . S
C541 C540 1.400 . S
C541 C542 1.398 . S
C542 H530 0.950 . S
C542 C541 1.398 . S
C542 C543 1.391 . S
C543 H531 0.950 . S
C543 C539 1.393 . S
C543 C542 1.391 . S
H544 C552 0.950 . S
H545 C557 0.950 . S
H546 C554 0.950 . S
H547 C556 0.950 . S
H548 C558 0.950 . S
H549 C560 0.950 . S
H550 C562 0.950 . S
H551 C563 0.950 . S
C552 H544 0.950 . S
C552 C553 1.386 . S
C552 C554 1.391 . S
C553 C552 1.386 . S
C553 C557 1.393 . S
C554 H546 0.950 . S
C554 C552 1.391 . S
C554 C555 1.400 . S
C555 C554 1.400 . S
C555 C556 1.398 . S
C555 C561 1.491 . S
C556 H547 0.950 . S
C556 C555 1.398 . S
C556 C557 1.391 . S
C557 H545 0.950 . S
C557 C553 1.393 . S
C557 C556 1.391 . S
C558 H548 0.950 . S
C558 C559 1.386 . S
C558 C560 1.391 . S
C559 C558 1.386 . S
C559 C563 1.393 . S
C560 H549 0.950 . S
C560 C558 1.391 . S
C560 C561 1.400 . S
C561 C555 1.491 . S
C561 C560 1.400 . S
C561 C562 1.398 . S
C562 H550 0.950 . S
C562 C561 1.398 . S
C562 C563 1.391 . S
C563 H551 0.950 . S
C563 C559 1.393 . S
C563 C562 1.391 . S
H564 C572 0.950 . S
H565 C577 0.950 . S
H566 C574 0.950 . S
H567 C576 0.950 . S
H568 C578 0.950 . S
H569 C580 0.950 . S
H570 C582 0.950 . S
H571 C583 0.950 . S
C572 H564 0.950 . S
C572 C573 1.386 . S
C572 C574 1.391 . S
C573 C572 1.386 . S
C573 C577 1.393 . S
C574 H566 0.950 . S
C574 C572 1.391 . S
C574 C575 1.400 . S
C575 C574 1.400 . S
C575 C576 1.398 . S
C575 C581 1.491 . S
C576 H567 0.950 . S
C576 C575 1.398 . S
C576 C577 1.391 . S
C577 H565 0.950 . S
C577 C573 1.393 . S
C577 C576 1.391 . S
C578 H568 0.950 . S
C578 C579 1.386 . S
C578 C580 1.391 . S
C579 C578 1.386 . S
C579 C583 1.393 . S
C580 H569 0.950 . S
C580 C578 1.391 . S
C580 C581 1.400 . S
C581 C575 1.491 . S
C581 C580 1.400 . S
C581 C582 1.398 . S
C582 H570 0.950 . S
C582 C581 1.398 . S
C582 C583 1.391 . S
C583 H571 0.950 . S
C583 C579 1.393 . S
C583 C582 1.391 . S
H584 C592 0.950 . S
H585 C597 0.950 . S
H586 C594 0.950 . S
H587 C596 0.950 . S
H588 C598 0.950 . S
H589 C600 0.950 . S
H590 C602 0.950 . S
H591 C603 0.950 . S
C592 H584 0.950 . S
C592 C593 1.386 . S
C592 C594 1.391 . S
C593 C592 1.386 . S
C593 C597 1.393 . S
C594 H586 0.950 . S
C594 C592 1.391 . S
C594 C595 1.400 . S
C595 C594 1.400 . S
C595 C596 1.398 . S
C595 C601 1.491 . S
C596 H587 0.950 . S
C596 C595 1.398 . S
C596 C597 1.391 . S
C597 H585 0.950 . S
C597 C593 1.393 . S
C597 C596 1.391 . S
C598 H588 0.950 . S
C598 C599 1.386 . S
C598 C600 1.391 . S
C599 C598 1.386 . S
C599 C603 1.393 . S
C600 H589 0.950 . S
C600 C598 1.391 . S
C600 C601 1.400 . S
C601 C595 1.491 . S
C601 C600 1.400 . S
C601 C602 1.398 . S
C602 H590 0.950 . S
C602 C601 1.398 . S
C602 C603 1.391 . S
C603 H591 0.950 . S
C603 C599 1.393 . S
C603 C602 1.391 . S
H604 C612 0.950 . S
H605 C617 0.950 . S
H606 C614 0.950 . S
H607 C616 0.950 . S
H608 C618 0.950 . S
H609 C620 0.950 . S
H610 C622 0.950 . S
H611 C623 0.950 . S
C612 H604 0.950 . S
C612 C613 1.386 . S
C612 C614 1.391 . S
C613 C612 1.386 . S
C613 C617 1.393 . S
C614 H606 0.950 . S
C614 C612 1.391 . S
C614 C615 1.400 . S
C615 C614 1.400 . S
C615 C616 1.398 . S
C615 C621 1.491 . S
C616 H607 0.950 . S
C616 C615 1.398 . S
C616 C617 1.391 . S
C617 H605 0.950 . S
C617 C613 1.393 . S
C617 C616 1.391 . S
C618 H608 0.950 . S
C618 C619 1.386 . S
C618 C620 1.391 . S
C619 C618 1.386 . S
C619 C623 1.393 . S
C620 H609 0.950 . S
C620 C618 1.391 . S
C620 C621 1.400 . S
C621 C615 1.491 . S
C621 C620 1.400 . S
C621 C622 1.398 . S
C622 H610 0.950 . S
C622 C621 1.398 . S
C622 C623 1.391 . S
C623 H611 0.950 . S
C623 C619 1.393 . S
C623 C622 1.391 . S
H624 C632 0.950 . S
H625 C637 0.950 . S
H626 C634 0.950 . S
H627 C636 0.950 . S
H628 C638 0.950 . S
H629 C640 0.950 . S
H630 C642 0.950 . S
H631 C643 0.950 . S
C632 H624 0.950 . S
C632 C633 1.386 . S
C632 C634 1.391 . S
C633 C632 1.386 . S
C633 C637 1.393 . S
C634 H626 0.950 . S
C634 C632 1.391 . S
C634 C635 1.400 . S
C635 C634 1.400 . S
C635 C636 1.398 . S
C635 C641 1.491 . S
C636 H627 0.950 . S
C636 C635 1.398 . S
C636 C637 1.391 . S
C637 H625 0.950 . S
C637 C633 1.393 . S
C637 C636 1.391 . S
C638 H628 0.950 . S
C638 C639 1.386 . S
C638 C640 1.391 . S
C639 C638 1.386 . S
C639 C643 1.393 . S
C640 H629 0.950 . S
C640 C638 1.391 . S
C640 C641 1.400 . S
C641 C635 1.491 . S
C641 C640 1.400 . S
C641 C642 1.398 . S
C642 H630 0.950 . S
C642 C641 1.398 . S
C642 C643 1.391 . S
C643 H631 0.950 . S
C643 C639 1.393 . S
C643 C642 1.391 . S
H644 C652 0.950 . S
H645 C657 0.950 . S
H646 C654 0.950 . S
H647 C656 0.950 . S
H648 C658 0.950 1_556 S
H649 C660 0.950 . S
H650 C662 0.950 . S
H651 C663 0.950 . S
C652 H644 0.950 . S
C652 C653 1.386 . S
C652 C654 1.391 . S
C653 C652 1.386 . S
C653 C657 1.393 . S
C654 H646 0.950 . S
C654 C652 1.391 . S
C654 C655 1.400 . S
C655 C654 1.400 . S
C655 C656 1.398 . S
C655 C661 1.491 . S
C656 H647 0.950 . S
C656 C655 1.398 . S
C656 C657 1.391 . S
C657 H645 0.950 . S
C657 C653 1.393 . S
C657 C656 1.391 . S
C658 H648 0.950 1_554 S
C658 C659 1.386 . S
C658 C660 1.391 . S
C659 C658 1.386 . S
C659 C663 1.393 . S
C660 H649 0.950 . S
C660 C658 1.391 . S
C660 C661 1.400 . S
C661 C655 1.491 . S
C661 C660 1.400 . S
C661 C662 1.398 . S
C662 H650 0.950 . S
C662 C661 1.398 . S
C662 C663 1.391 . S
C663 H651 0.950 . S
C663 C659 1.393 . S
C663 C662 1.391 . S
H664 C672 0.950 . S
H665 C677 0.950 . S
H666 C674 0.950 . S
H667 C676 0.950 . S
H668 C678 0.950 . S
H669 C680 0.950 . S
H670 C682 0.950 . S
H671 C683 0.950 1_556 S
C672 H664 0.950 . S
C672 C673 1.386 . S
C672 C674 1.391 . S
C673 C672 1.386 . S
C673 C677 1.393 . S
C674 H666 0.950 . S
C674 C672 1.391 . S
C674 C675 1.400 . S
C675 C674 1.400 . S
C675 C676 1.398 . S
C675 C681 1.491 . S
C676 H667 0.950 . S
C676 C675 1.398 . S
C676 C677 1.391 . S
C677 H665 0.950 . S
C677 C673 1.393 . S
C677 C676 1.391 . S
C678 H668 0.950 . S
C678 C679 1.386 . S
C678 C680 1.391 . S
C679 C678 1.386 . S
C679 C683 1.393 . S
C680 H669 0.950 . S
C680 C678 1.391 . S
C680 C681 1.400 . S
C681 C675 1.491 . S
C681 C680 1.400 . S
C681 C682 1.398 . S
C682 H670 0.950 . S
C682 C681 1.398 . S
C682 C683 1.391 . S
C683 H671 0.950 1_554 S
C683 C679 1.393 . S
C683 C682 1.391 . S
H684 C692 0.950 . S
H685 C697 0.950 . S
H686 C694 0.950 . S
H687 C696 0.950 . S
H688 C698 0.950 . S
H689 C700 0.950 . S
H690 C702 0.950 . S
H691 C703 0.950 . S
C692 H684 0.950 . S
C692 C693 1.386 . S
C692 C694 1.391 . S
C693 C692 1.386 . S
C693 C697 1.393 . S
C694 H686 0.950 . S
C694 C692 1.391 . S
C694 C695 1.400 . S
C695 C694 1.400 . S
C695 C696 1.398 . S
C695 C701 1.491 . S
C696 H687 0.950 . S
C696 C695 1.398 . S
C696 C697 1.391 . S
C697 H685 0.950 . S
C697 C693 1.393 . S
C697 C696 1.391 . S
C698 H688 0.950 . S
C698 C699 1.386 . S
C698 C700 1.391 . S
C699 C698 1.386 . S
C699 C703 1.393 . S
C700 H689 0.950 . S
C700 C698 1.391 . S
C700 C701 1.400 . S
C701 C695 1.491 . S
C701 C700 1.400 . S
C701 C702 1.398 . S
C702 H690 0.950 . S
C702 C701 1.398 . S
C702 C703 1.391 . S
C703 H691 0.950 . S
C703 C699 1.393 . S
C703 C702 1.391 . S
H704 C712 0.950 . S
H705 C717 0.950 . S
H706 C714 0.950 . S
H707 C716 0.950 . S
H708 C718 0.950 . S
H709 C720 0.950 . S
H710 C722 0.950 . S
H711 C723 0.950 . S
C712 H704 0.950 . S
C712 C713 1.386 . S
C712 C714 1.391 . S
C713 C712 1.386 . S
C713 C717 1.393 . S
C714 H706 0.950 . S
C714 C712 1.391 . S
C714 C715 1.400 . S
C715 C714 1.400 . S
C715 C716 1.398 . S
C715 C721 1.491 . S
C716 H707 0.950 . S
C716 C715 1.398 . S
C716 C717 1.391 . S
C717 H705 0.950 . S
C717 C713 1.393 . S
C717 C716 1.391 . S
C718 H708 0.950 . S
C718 C719 1.386 . S
C718 C720 1.391 . S
C719 C718 1.386 . S
C719 C723 1.393 . S
C720 H709 0.950 . S
C720 C718 1.391 . S
C720 C721 1.400 . S
C721 C715 1.491 . S
C721 C720 1.400 . S
C721 C722 1.398 . S
C722 H710 0.950 . S
C722 C721 1.398 . S
C722 C723 1.391 . S
C723 H711 0.950 . S
C723 C719 1.393 . S
C723 C722 1.391 . S
H724 C732 0.950 . S
H725 C737 0.950 . S
H726 C734 0.950 . S
H727 C736 0.950 . S
H728 C738 0.950 . S
H729 C740 0.950 . S
H730 C742 0.950 . S
H731 C743 0.950 . S
C732 H724 0.950 . S
C732 C733 1.386 . S
C732 C734 1.391 . S
C733 C732 1.386 . S
C733 C737 1.393 . S
C734 H726 0.950 . S
C734 C732 1.391 . S
C734 C735 1.400 . S
C735 C734 1.400 . S
C735 C736 1.398 . S
C735 C741 1.491 . S
C736 H727 0.950 . S
C736 C735 1.398 . S
C736 C737 1.391 . S
C737 H725 0.950 . S
C737 C733 1.393 . S
C737 C736 1.391 . S
C738 H728 0.950 . S
C738 C739 1.386 . S
C738 C740 1.391 . S
C739 C738 1.386 . S
C739 C743 1.393 . S
C740 H729 0.950 . S
C740 C738 1.391 . S
C740 C741 1.400 . S
C741 C735 1.491 . S
C741 C740 1.400 . S
C741 C742 1.398 . S
C742 H730 0.950 . S
C742 C741 1.398 . S
C742 C743 1.391 . S
C743 H731 0.950 . S
C743 C739 1.393 . S
C743 C742 1.391 . S
H744 C752 0.950 . S
H745 C757 0.950 . S
H746 C754 0.950 . S
H747 C756 0.950 1_655 S
H748 C758 0.950 . S
H749 C760 0.950 . S
H750 C762 0.950 1_455 S
H751 C763 0.950 . S
C752 H744 0.950 . S
C752 C753 1.386 . S
C752 C754 1.391 . S
C753 C752 1.386 . S
C753 C757 1.393 . S
C754 H746 0.950 . S
C754 C752 1.391 . S
C754 C755 1.400 . S
C755 C754 1.400 . S
C755 C756 1.398 . S
C755 C761 1.491 1_455 S
C756 H747 0.950 1_455 S
C756 C755 1.398 . S
C756 C757 1.391 . S
C757 H745 0.950 . S
C757 C753 1.393 . S
C757 C756 1.391 . S
C758 H748 0.950 . S
C758 C759 1.386 . S
C758 C760 1.391 . S
C759 C758 1.386 . S
C759 C763 1.393 . S
C760 H749 0.950 . S
C760 C758 1.391 . S
C760 C761 1.400 . S
C761 C755 1.491 1_655 S
C761 C760 1.400 . S
C761 C762 1.398 . S
C762 H750 0.950 1_655 S
C762 C761 1.398 . S
C762 C763 1.391 . S
C763 H751 0.950 . S
C763 C759 1.393 . S
C763 C762 1.391 . S
H764 C772 0.950 . S
H765 C777 0.950 . S
H766 C774 0.950 . S
H767 C776 0.950 . S
H768 C778 0.950 . S
H769 C780 0.950 . S
H770 C782 0.950 . S
H771 C783 0.950 . S
C772 H764 0.950 . S
C772 C773 1.386 . S
C772 C774 1.391 . S
C773 C772 1.386 . S
C773 C777 1.393 . S
C774 H766 0.950 . S
C774 C772 1.391 . S
C774 C775 1.400 . S
C775 C774 1.400 . S
C775 C776 1.398 . S
C775 C781 1.491 . S
C776 H767 0.950 . S
C776 C775 1.398 . S
C776 C777 1.391 . S
C777 H765 0.950 . S
C777 C773 1.393 . S
C777 C776 1.391 . S
C778 H768 0.950 . S
C778 C779 1.386 . S
C778 C780 1.391 . S
C779 C778 1.386 . S
C779 C783 1.393 . S
C780 H769 0.950 . S
C780 C778 1.391 . S
C780 C781 1.400 . S
C781 C775 1.491 . S
C781 C780 1.400 . S
C781 C782 1.398 . S
C782 H770 0.950 . S
C782 C781 1.398 . S
C782 C783 1.391 . S
C783 H771 0.950 . S
C783 C779 1.393 . S
C783 C782 1.391 . S
H784 C792 0.950 . S
H785 C797 0.950 . S
H786 C794 0.950 . S
H787 C796 0.950 1_545 S
H788 C798 0.950 . S
H789 C800 0.950 . S
H790 C802 0.950 1_565 S
H791 C803 0.950 . S
C792 H784 0.950 . S
C792 C793 1.386 . S
C792 C794 1.391 . S
C793 C792 1.386 . S
C793 C797 1.393 . S
C794 H786 0.950 . S
C794 C792 1.391 . S
C794 C795 1.400 . S
C795 C794 1.400 . S
C795 C796 1.398 . S
C795 C801 1.491 1_565 S
C796 H787 0.950 1_565 S
C796 C795 1.398 . S
C796 C797 1.391 . S
C797 H785 0.950 . S
C797 C793 1.393 . S
C797 C796 1.391 . S
C798 H788 0.950 . S
C798 C799 1.386 . S
C798 C800 1.391 . S
C799 C798 1.386 . S
C799 C803 1.393 . S
C800 H789 0.950 . S
C800 C798 1.391 . S
C800 C801 1.400 . S
C801 C795 1.491 1_545 S
C801 C800 1.400 . S
C801 C802 1.398 . S
C802 H790 0.950 1_545 S
C802 C801 1.398 . S
C802 C803 1.391 . S
C803 H791 0.950 . S
C803 C799 1.393 . S
C803 C802 1.391 . S
H804 C812 0.950 . S
H805 C817 0.950 . S
H806 C814 0.950 1_545 S
H807 C816 0.950 . S
H808 C818 0.950 . S
H809 C820 0.950 1_565 S
H810 C822 0.950 . S
H811 C823 0.950 . S
C812 H804 0.950 . S
C812 C813 1.386 . S
C812 C814 1.391 . S
C813 C812 1.386 . S
C813 C817 1.393 . S
C814 H806 0.950 1_565 S
C814 C812 1.391 . S
C814 C815 1.400 . S
C815 C814 1.400 . S
C815 C816 1.398 . S
C815 C821 1.491 1_565 S
C816 H807 0.950 . S
C816 C815 1.398 . S
C816 C817 1.391 . S
C817 H805 0.950 . S
C817 C813 1.393 . S
C817 C816 1.391 . S
C818 H808 0.950 . S
C818 C819 1.386 . S
C818 C820 1.391 . S
C819 C818 1.386 . S
C819 C823 1.393 . S
C820 H809 0.950 1_545 S
C820 C818 1.391 . S
C820 C821 1.400 . S
C821 C815 1.491 1_545 S
C821 C820 1.400 . S
C821 C822 1.398 . S
C822 H810 0.950 . S
C822 C821 1.398 . S
C822 C823 1.391 . S
C823 H811 0.950 . S
C823 C819 1.393 . S
C823 C822 1.391 . S
H824 C832 0.950 . S
H825 C837 0.950 . S
H826 C834 0.950 . S
H827 C836 0.950 1_655 S
H828 C838 0.950 . S
H829 C840 0.950 . S
H830 C842 0.950 1_455 S
H831 C843 0.950 . S
C832 H824 0.950 . S
C832 C833 1.386 . S
C832 C834 1.391 . S
C833 C832 1.386 . S
C833 C837 1.393 . S
C834 H826 0.950 . S
C834 C832 1.391 . S
C834 C835 1.400 . S
C835 C834 1.400 . S
C835 C836 1.398 . S
C835 C841 1.491 1_455 S
C836 H827 0.950 1_455 S
C836 C835 1.398 . S
C836 C837 1.391 . S
C837 H825 0.950 . S
C837 C833 1.393 . S
C837 C836 1.391 . S
C838 H828 0.950 . S
C838 C839 1.386 . S
C838 C840 1.391 . S
C839 C838 1.386 . S
C839 C843 1.393 . S
C840 H829 0.950 . S
C840 C838 1.391 . S
C840 C841 1.400 . S
C841 C835 1.491 1_655 S
C841 C840 1.400 . S
C841 C842 1.398 . S
C842 H830 0.950 1_655 S
C842 C841 1.398 . S
C842 C843 1.391 . S
C843 H831 0.950 . S
C843 C839 1.393 . S
C843 C842 1.391 . S
H844 C852 0.950 . S
H845 C857 0.950 . S
H846 C854 0.950 . S
H847 C856 0.950 . S
H848 C858 0.950 . S
H849 C860 0.950 . S
H850 C862 0.950 . S
H851 C863 0.950 . S
C852 H844 0.950 . S
C852 C853 1.386 . S
C852 C854 1.391 . S
C853 C852 1.386 . S
C853 C857 1.393 . S
C854 H846 0.950 . S
C854 C852 1.391 . S
C854 C855 1.400 . S
C855 C854 1.400 . S
C855 C856 1.398 . S
C855 C861 1.491 . S
C856 H847 0.950 . S
C856 C855 1.398 . S
C856 C857 1.391 . S
C857 H845 0.950 . S
C857 C853 1.393 . S
C857 C856 1.391 . S
C858 H848 0.950 . S
C858 C859 1.386 . S
C858 C860 1.391 . S
C859 C858 1.386 . S
C859 C863 1.393 . S
C860 H849 0.950 . S
C860 C858 1.391 . S
C860 C861 1.400 . S
C861 C855 1.491 . S
C861 C860 1.400 . S
C861 C862 1.398 . S
C862 H850 0.950 . S
C862 C861 1.398 . S
C862 C863 1.391 . S
C863 H851 0.950 . S
C863 C859 1.393 . S
C863 C862 1.391 . S
H864 C872 0.950 . S
H865 C877 0.950 . S
H866 C874 0.950 . S
H867 C876 0.950 . S
H868 C878 0.950 . S
H869 C880 0.950 . S
H870 C882 0.950 . S
H871 C883 0.950 . S
C872 H864 0.950 . S
C872 C873 1.386 . S
C872 C874 1.391 . S
C873 C872 1.386 . S
C873 C877 1.393 1_556 S
C874 H866 0.950 . S
C874 C872 1.391 . S
C874 C875 1.400 1_556 S
C875 C874 1.400 1_554 S
C875 C876 1.398 . S
C875 C881 1.491 . S
C876 H867 0.950 . S
C876 C875 1.398 . S
C876 C877 1.391 . S
C877 H865 0.950 . S
C877 C873 1.393 1_554 S
C877 C876 1.391 . S
C878 H868 0.950 . S
C878 C879 1.386 . S
C878 C880 1.391 . S
C879 C878 1.386 . S
C879 C883 1.393 1_554 S
C880 H869 0.950 . S
C880 C878 1.391 . S
C880 C881 1.400 . S
C881 C875 1.491 . S
C881 C880 1.400 . S
C881 C882 1.398 1_554 S
C882 H870 0.950 . S
C882 C881 1.398 1_556 S
C882 C883 1.391 . S
C883 H871 0.950 . S
C883 C879 1.393 1_556 S
C883 C882 1.391 . S
H884 C892 0.950 . S
H885 C897 0.950 . S
H886 C894 0.950 . S
H887 C896 0.950 . S
H888 C898 0.950 . S
H889 C900 0.950 . S
H890 C902 0.950 . S
H891 C903 0.950 . S
C892 H884 0.950 . S
C892 C893 1.386 . S
C892 C894 1.391 . S
C893 C892 1.386 . S
C893 C897 1.393 1_556 S
C894 H886 0.950 . S
C894 C892 1.391 . S
C894 C895 1.400 1_556 S
C895 C894 1.400 1_554 S
C895 C896 1.398 . S
C895 C901 1.491 . S
C896 H887 0.950 . S
C896 C895 1.398 . S
C896 C897 1.391 . S
C897 H885 0.950 . S
C897 C893 1.393 1_554 S
C897 C896 1.391 . S
C898 H888 0.950 . S
C898 C899 1.386 . S
C898 C900 1.391 . S
C899 C898 1.386 . S
C899 C903 1.393 1_554 S
C900 H889 0.950 . S
C900 C898 1.391 . S
C900 C901 1.400 . S
C901 C895 1.491 . S
C901 C900 1.400 . S
C901 C902 1.398 1_554 S
C902 H890 0.950 . S
C902 C901 1.398 1_556 S
C902 C903 1.391 . S
C903 H891 0.950 . S
C903 C899 1.393 1_556 S
C903 C902 1.391 . S
H904 C912 0.950 . S
H905 C917 0.950 . S
H906 C914 0.950 . S
H907 C916 0.950 . S
H908 C918 0.950 . S
H909 C920 0.950 . S
H910 C922 0.950 . S
H911 C923 0.950 . S
C912 H904 0.950 . S
C912 C913 1.386 1_554 S
C912 C914 1.391 . S
C913 C912 1.386 1_556 S
C913 C917 1.393 . S
C914 H906 0.950 . S
C914 C912 1.391 . S
C914 C915 1.400 . S
C915 C914 1.400 . S
C915 C916 1.398 1_554 S
C915 C921 1.491 . S
C916 H907 0.950 . S
C916 C915 1.398 1_556 S
C916 C917 1.391 . S
C917 H905 0.950 . S
C917 C913 1.393 . S
C917 C916 1.391 . S
C918 H908 0.950 . S
C918 C919 1.386 1_556 S
C918 C920 1.391 . S
C919 C918 1.386 1_554 S
C919 C923 1.393 . S
C920 H909 0.950 . S
C920 C918 1.391 . S
C920 C921 1.400 1_556 S
C921 C915 1.491 . S
C921 C920 1.400 1_554 S
C921 C922 1.398 . S
C922 H910 0.950 . S
C922 C921 1.398 . S
C922 C923 1.391 . S
C923 H911 0.950 . S
C923 C919 1.393 . S
C923 C922 1.391 . S
H924 C932 0.950 . S
H925 C937 0.950 . S
H926 C934 0.950 . S
H927 C936 0.950 . S
H928 C938 0.950 . S
H929 C940 0.950 . S
H930 C942 0.950 . S
H931 C943 0.950 . S
C932 H924 0.950 . S
C932 C933 1.386 . S
C932 C934 1.391 . S
C933 C932 1.386 . S
C933 C937 1.393 . S
C934 H926 0.950 . S
C934 C932 1.391 . S
C934 C935 1.400 . S
C935 C934 1.400 . S
C935 C936 1.398 . S
C935 C941 1.491 . S
C936 H927 0.950 . S
C936 C935 1.398 . S
C936 C937 1.391 . S
C937 H925 0.950 . S
C937 C933 1.393 . S
C937 C936 1.391 . S
C938 H928 0.950 . S
C938 C939 1.386 . S
C938 C940 1.391 . S
C939 C938 1.386 . S
C939 C943 1.393 . S
C940 H929 0.950 . S
C940 C938 1.391 . S
C940 C941 1.400 . S
C941 C935 1.491 . S
C941 C940 1.400 . S
C941 C942 1.398 . S
C942 H930 0.950 . S
C942 C941 1.398 . S
C942 C943 1.391 . S
C943 H931 0.950 . S
C943 C939 1.393 . S
C943 C942 1.391 . S
H944 C952 0.950 . S
H945 C957 0.950 . S
H946 C954 0.950 . S
H947 C956 0.950 . S
H948 C958 0.950 . S
H949 C960 0.950 . S
H950 C962 0.950 . S
H951 C963 0.950 . S
C952 H944 0.950 . S
C952 C953 1.386 . S
C952 C954 1.391 . S
C953 C952 1.386 . S
C953 C957 1.393 . S
C954 H946 0.950 . S
C954 C952 1.391 . S
C954 C955 1.400 . S
C955 C954 1.400 . S
C955 C956 1.398 . S
C955 C961 1.491 . S
C956 H947 0.950 . S
C956 C955 1.398 . S
C956 C957 1.391 . S
C957 H945 0.950 . S
C957 C953 1.393 . S
C957 C956 1.391 . S
C958 H948 0.950 . S
C958 C959 1.386 . S
C958 C960 1.391 . S
C959 C958 1.386 . S
C959 C963 1.393 . S
C960 H949 0.950 . S
C960 C958 1.391 . S
C960 C961 1.400 . S
C961 C955 1.491 . S
C961 C960 1.400 . S
C961 C962 1.398 . S
C962 H950 0.950 . S
C962 C961 1.398 . S
C962 C963 1.391 . S
C963 H951 0.950 . S
C963 C959 1.393 . S
C963 C962 1.391 . S
H964 C972 0.950 . S
H965 C977 0.950 . S
H966 C974 0.950 . S
H967 C976 0.950 . S
H968 C978 0.950 . S
H969 C980 0.950 . S
H970 C982 0.950 . S
H971 C983 0.950 . S
C972 H964 0.950 . S
C972 C973 1.386 . S
C972 C974 1.391 . S
C973 C972 1.386 . S
C973 C977 1.393 . S
C974 H966 0.950 . S
C974 C972 1.391 . S
C974 C975 1.400 . S
C975 C974 1.400 . S
C975 C976 1.398 . S
C975 C981 1.491 . S
C976 H967 0.950 . S
C976 C975 1.398 . S
C976 C977 1.391 . S
C977 H965 0.950 . S
C977 C973 1.393 . S
C977 C976 1.391 . S
C978 H968 0.950 . S
C978 C979 1.386 . S
C978 C980 1.391 . S
C979 C978 1.386 . S
C979 C983 1.393 . S
C980 H969 0.950 . S
C980 C978 1.391 . S
C980 C981 1.400 . S
C981 C975 1.491 . S
C981 C980 1.400 . S
C981 C982 1.398 . S
C982 H970 0.950 . S
C982 C981 1.398 . S
C982 C983 1.391 . S
C983 H971 0.950 . S
C983 C979 1.393 . S
C983 C982 1.391 . S
H984 C992 0.950 . S
H985 C997 0.950 . S
H986 C994 0.950 . S
H987 C996 0.950 . S
H988 C998 0.950 1_554 S
H989 C1000 0.950 . S
H990 C1002 0.950 . S
H991 C1003 0.950 . S
C992 H984 0.950 . S
C992 C993 1.386 1_556 S
C992 C994 1.391 . S
C993 C992 1.386 1_554 S
C993 C997 1.393 . S
C994 H986 0.950 . S
C994 C992 1.391 . S
C994 C995 1.400 . S
C995 C994 1.400 . S
C995 C996 1.398 1_556 S
C995 C1001 1.491 . S
C996 H987 0.950 . S
C996 C995 1.398 1_554 S
C996 C997 1.391 . S
C997 H985 0.950 . S
C997 C993 1.393 . S
C997 C996 1.391 . S
C998 H988 0.950 1_556 S
C998 C999 1.386 . S
C998 C1000 1.391 1_556 S
C999 C998 1.386 . S
C999 C1003 1.393 . S
C1000 H989 0.950 . S
C1000 C998 1.391 1_554 S
C1000 C1001 1.400 1_554 S
C1001 C995 1.491 . S
C1001 C1000 1.400 1_556 S
C1001 C1002 1.398 . S
C1002 H990 0.950 . S
C1002 C1001 1.398 . S
C1002 C1003 1.391 . S
C1003 H991 0.950 . S
C1003 C999 1.393 . S
C1003 C1002 1.391 . S
H1004 C1012 0.950 . S
H1005 C1017 0.950 . S
H1006 C1014 0.950 . S
H1007 C1016 0.950 . S
H1008 C1018 0.950 . S
H1009 C1020 0.950 . S
H1010 C1022 0.950 . S
H1011 C1023 0.950 . S
C1012 H1004 0.950 . S
C1012 C1013 1.386 1_554 S
C1012 C1014 1.391 . S
C1013 C1012 1.386 1_556 S
C1013 C1017 1.393 . S
C1014 H1006 0.950 . S
C1014 C1012 1.391 . S
C1014 C1015 1.400 1_554 S
C1015 C1014 1.400 1_556 S
C1015 C1016 1.398 . S
C1015 C1021 1.491 . S
C1016 H1007 0.950 . S
C1016 C1015 1.398 . S
C1016 C1017 1.391 . S
C1017 H1005 0.950 . S
C1017 C1013 1.393 . S
C1017 C1016 1.391 . S
C1018 H1008 0.950 . S
C1018 C1019 1.386 1_556 S
C1018 C1020 1.391 . S
C1019 C1018 1.386 1_554 S
C1019 C1023 1.393 . S
C1020 H1009 0.950 . S
C1020 C1018 1.391 . S
C1020 C1021 1.400 . S
C1021 C1015 1.491 . S
C1021 C1020 1.400 . S
C1021 C1022 1.398 1_556 S
C1022 H1010 0.950 . S
C1022 C1021 1.398 1_554 S
C1022 C1023 1.391 . S
C1023 H1011 0.950 . S
C1023 C1019 1.393 . S
C1023 C1022 1.391 . S
H1024 C1032 0.950 . S
H1025 C1037 0.950 . S
H1026 C1034 0.950 . S
H1027 C1036 0.950 . S
H1028 C1038 0.950 . S
H1029 C1040 0.950 . S
H1030 C1042 0.950 . S
H1031 C1043 0.950 . S
C1032 H1024 0.950 . S
C1032 C1033 1.386 1_556 S
C1032 C1034 1.391 . S
C1033 C1032 1.386 1_554 S
C1033 C1037 1.393 . S
C1034 H1026 0.950 . S
C1034 C1032 1.391 . S
C1034 C1035 1.400 . S
C1035 C1034 1.400 . S
C1035 C1036 1.398 1_556 S
C1035 C1041 1.491 . S
C1036 H1027 0.950 . S
C1036 C1035 1.398 1_554 S
C1036 C1037 1.391 . S
C1037 H1025 0.950 . S
C1037 C1033 1.393 . S
C1037 C1036 1.391 . S
C1038 H1028 0.950 . S
C1038 C1039 1.386 1_554 S
C1038 C1040 1.391 . S
C1039 C1038 1.386 1_556 S
C1039 C1043 1.393 . S
C1040 H1029 0.950 . S
C1040 C1038 1.391 . S
C1040 C1041 1.400 1_554 S
C1041 C1035 1.491 . S
C1041 C1040 1.400 1_556 S
C1041 C1042 1.398 . S
C1042 H1030 0.950 . S
C1042 C1041 1.398 . S
C1042 C1043 1.391 . S
C1043 H1031 0.950 . S
C1043 C1039 1.393 . S
C1043 C1042 1.391 . S
H1044 C1052 0.950 . S
H1045 C1057 0.950 . S
H1046 C1054 0.950 . S
H1047 C1056 0.950 . S
H1048 C1058 0.950 . S
H1049 C1060 0.950 . S
H1050 C1062 0.950 . S
H1051 C1063 0.950 . S
C1052 H1044 0.950 . S
C1052 C1053 1.386 . S
C1052 C1054 1.391 . S
C1053 C1052 1.386 . S
C1053 C1057 1.393 . S
C1054 H1046 0.950 . S
C1054 C1052 1.391 . S
C1054 C1055 1.400 . S
C1055 C1054 1.400 . S
C1055 C1056 1.398 . S
C1055 C1061 1.491 . S
C1056 H1047 0.950 . S
C1056 C1055 1.398 . S
C1056 C1057 1.391 . S
C1057 H1045 0.950 . S
C1057 C1053 1.393 . S
C1057 C1056 1.391 . S
C1058 H1048 0.950 . S
C1058 C1059 1.386 . S
C1058 C1060 1.391 . S
C1059 C1058 1.386 . S
C1059 C1063 1.393 . S
C1060 H1049 0.950 . S
C1060 C1058 1.391 . S
C1060 C1061 1.400 . S
C1061 C1055 1.491 . S
C1061 C1060 1.400 . S
C1061 C1062 1.398 . S
C1062 H1050 0.950 . S
C1062 C1061 1.398 . S
C1062 C1063 1.391 . S
C1063 H1051 0.950 . S
C1063 C1059 1.393 . S
C1063 C1062 1.391 . S
H1064 C1072 0.950 . S
H1065 C1077 0.950 . S
H1066 C1074 0.950 . S
H1067 C1076 0.950 . S
H1068 C1078 0.950 . S
H1069 C1080 0.950 . S
H1070 C1082 0.950 . S
H1071 C1083 0.950 . S
C1072 H1064 0.950 . S
C1072 C1073 1.386 . S
C1072 C1074 1.391 . S
C1073 C1072 1.386 . S
C1073 C1077 1.393 . S
C1074 H1066 0.950 . S
C1074 C1072 1.391 . S
C1074 C1075 1.400 . S
C1075 C1074 1.400 . S
C1075 C1076 1.398 . S
C1075 C1081 1.491 . S
C1076 H1067 0.950 . S
C1076 C1075 1.398 . S
C1076 C1077 1.391 . S
C1077 H1065 0.950 . S
C1077 C1073 1.393 . S
C1077 C1076 1.391 . S
C1078 H1068 0.950 . S
C1078 C1079 1.386 . S
C1078 C1080 1.391 . S
C1079 C1078 1.386 . S
C1079 C1083 1.393 . S
C1080 H1069 0.950 . S
C1080 C1078 1.391 . S
C1080 C1081 1.400 . S
C1081 C1075 1.491 . S
C1081 C1080 1.400 . S
C1081 C1082 1.398 . S
C1082 H1070 0.950 . S
C1082 C1081 1.398 . S
C1082 C1083 1.391 . S
C1083 H1071 0.950 . S
C1083 C1079 1.393 . S
C1083 C1082 1.391 . S
H1084 C1092 0.950 . S
H1085 C1097 0.950 . S
H1086 C1094 0.950 . S
H1087 C1096 0.950 . S
H1088 C1098 0.950 . S
H1089 C1100 0.950 . S
H1090 C1102 0.950 . S
H1091 C1103 0.950 . S
C1092 H1084 0.950 . S
C1092 C1093 1.386 . S
C1092 C1094 1.391 . S
C1093 C1092 1.386 . S
C1093 C1097 1.393 . S
C1094 H1086 0.950 . S
C1094 C1092 1.391 . S
C1094 C1095 1.400 . S
C1095 C1094 1.400 . S
C1095 C1096 1.398 . S
C1095 C1101 1.491 . S
C1096 H1087 0.950 . S
C1096 C1095 1.398 . S
C1096 C1097 1.391 . S
C1097 H1085 0.950 . S
C1097 C1093 1.393 . S
C1097 C1096 1.391 . S
C1098 H1088 0.950 . S
C1098 C1099 1.386 . S
C1098 C1100 1.391 . S
C1099 C1098 1.386 . S
C1099 C1103 1.393 . S
C1100 H1089 0.950 . S
C1100 C1098 1.391 . S
C1100 C1101 1.400 . S
C1101 C1095 1.491 . S
C1101 C1100 1.400 . S
C1101 C1102 1.398 . S
C1102 H1090 0.950 . S
C1102 C1101 1.398 . S
C1102 C1103 1.391 . S
C1103 H1091 0.950 . S
C1103 C1099 1.393 . S
C1103 C1102 1.391 . S
H1104 C1112 0.950 . S
H1105 C1117 0.950 . S
H1106 C1114 0.950 . S
H1107 C1116 0.950 . S
H1108 C1118 0.950 . S
H1109 C1120 0.950 . S
H1110 C1122 0.950 . S
H1111 C1123 0.950 . S
C1112 H1104 0.950 . S
C1112 C1113 1.386 . S
C1112 C1114 1.391 . S
C1113 C1112 1.386 . S
C1113 C1117 1.393 . S
C1114 H1106 0.950 . S
C1114 C1112 1.391 . S
C1114 C1115 1.400 . S
C1115 C1114 1.400 . S
C1115 C1116 1.398 . S
C1115 C1121 1.491 . S
C1116 H1107 0.950 . S
C1116 C1115 1.398 . S
C1116 C1117 1.391 . S
C1117 H1105 0.950 . S
C1117 C1113 1.393 . S
C1117 C1116 1.391 . S
C1118 H1108 0.950 . S
C1118 C1119 1.386 . S
C1118 C1120 1.391 . S
C1119 C1118 1.386 . S
C1119 C1123 1.393 . S
C1120 H1109 0.950 . S
C1120 C1118 1.391 . S
C1120 C1121 1.400 . S
C1121 C1115 1.491 . S
C1121 C1120 1.400 . S
C1121 C1122 1.398 . S
C1122 H1110 0.950 . S
C1122 C1121 1.398 . S
C1122 C1123 1.391 . S
C1123 H1111 0.950 . S
C1123 C1119 1.393 . S
C1123 C1122 1.391 . S
H1124 C1132 0.950 . S
H1125 C1137 0.950 . S
H1126 C1134 0.950 . S
H1127 C1136 0.950 . S
H1128 C1138 0.950 . S
H1129 C1140 0.950 . S
H1130 C1142 0.950 . S
H1131 C1143 0.950 . S
C1132 H1124 0.950 . S
C1132 C1133 1.386 . S
C1132 C1134 1.391 . S
C1133 C1132 1.386 . S
C1133 C1137 1.393 . S
C1134 H1126 0.950 . S
C1134 C1132 1.391 . S
C1134 C1135 1.400 . S
C1135 C1134 1.400 . S
C1135 C1136 1.398 . S
C1135 C1141 1.491 . S
C1136 H1127 0.950 . S
C1136 C1135 1.398 . S
C1136 C1137 1.391 . S
C1137 H1125 0.950 . S
C1137 C1133 1.393 . S
C1137 C1136 1.391 . S
C1138 H1128 0.950 . S
C1138 C1139 1.386 . S
C1138 C1140 1.391 . S
C1139 C1138 1.386 . S
C1139 C1143 1.393 . S
C1140 H1129 0.950 . S
C1140 C1138 1.391 . S
C1140 C1141 1.400 . S
C1141 C1135 1.491 . S
C1141 C1140 1.400 . S
C1141 C1142 1.398 . S
C1142 H1130 0.950 . S
C1142 C1141 1.398 . S
C1142 C1143 1.391 . S
C1143 H1131 0.950 . S
C1143 C1139 1.393 . S
C1143 C1142 1.391 . S
H1144 C1152 0.950 . S
H1145 C1157 0.950 . S
H1146 C1154 0.950 . S
H1147 C1156 0.950 . S
H1148 C1158 0.950 . S
H1149 C1160 0.950 . S
H1150 C1162 0.950 . S
H1151 C1163 0.950 . S
C1152 H1144 0.950 . S
C1152 C1153 1.386 . S
C1152 C1154 1.391 . S
C1153 C1152 1.386 . S
C1153 C1157 1.393 . S
C1154 H1146 0.950 . S
C1154 C1152 1.391 . S
C1154 C1155 1.400 . S
C1155 C1154 1.400 . S
C1155 C1156 1.398 . S
C1155 C1161 1.491 . S
C1156 H1147 0.950 . S
C1156 C1155 1.398 . S
C1156 C1157 1.391 . S
C1157 H1145 0.950 . S
C1157 C1153 1.393 . S
C1157 C1156 1.391 . S
C1158 H1148 0.950 . S
C1158 C1159 1.386 . S
C1158 C1160 1.391 . S
C1159 C1158 1.386 . S
C1159 C1163 1.393 . S
C1160 H1149 0.950 . S
C1160 C1158 1.391 . S
C1160 C1161 1.400 . S
C1161 C1155 1.491 . S
C1161 C1160 1.400 . S
C1161 C1162 1.398 . S
C1162 H1150 0.950 . S
C1162 C1161 1.398 . S
C1162 C1163 1.391 . S
C1163 H1151 0.950 . S
C1163 C1159 1.393 . S
C1163 C1162 1.391 . S
H1164 C1172 0.950 . S
H1165 C1177 0.950 . S
H1166 C1174 0.950 . S
H1167 C1176 0.950 . S
H1168 C1178 0.950 . S
H1169 C1180 0.950 . S
H1170 C1182 0.950 . S
H1171 C1183 0.950 . S
C1172 H1164 0.950 . S
C1172 C1173 1.386 . S
C1172 C1174 1.391 . S
C1173 C1172 1.386 . S
C1173 C1177 1.393 . S
C1174 H1166 0.950 . S
C1174 C1172 1.391 . S
C1174 C1175 1.400 . S
C1175 C1174 1.400 . S
C1175 C1176 1.398 . S
C1175 C1181 1.491 . S
C1176 H1167 0.950 . S
C1176 C1175 1.398 . S
C1176 C1177 1.391 . S
C1177 H1165 0.950 . S
C1177 C1173 1.393 . S
C1177 C1176 1.391 . S
C1178 H1168 0.950 . S
C1178 C1179 1.386 . S
C1178 C1180 1.391 . S
C1179 C1178 1.386 . S
C1179 C1183 1.393 . S
C1180 H1169 0.950 . S
C1180 C1178 1.391 . S
C1180 C1181 1.400 . S
C1181 C1175 1.491 . S
C1181 C1180 1.400 . S
C1181 C1182 1.398 . S
C1182 H1170 0.950 . S
C1182 C1181 1.398 . S
C1182 C1183 1.391 . S
C1183 H1171 0.950 . S
C1183 C1179 1.393 . S
C1183 C1182 1.391 . S
H1184 C1192 0.950 . S
H1185 C1197 0.950 . S
H1186 C1194 0.950 . S
H1187 C1196 0.950 . S
H1188 C1198 0.950 . S
H1189 C1200 0.950 . S
H1190 C1202 0.950 . S
H1191 C1203 0.950 . S
C1192 H1184 0.950 . S
C1192 C1193 1.386 . S
C1192 C1194 1.391 . S
C1193 C1192 1.386 . S
C1193 C1197 1.393 . S
C1194 H1186 0.950 . S
C1194 C1192 1.391 . S
C1194 C1195 1.400 . S
C1195 C1194 1.400 . S
C1195 C1196 1.398 . S
C1195 C1201 1.491 . S
C1196 H1187 0.950 . S
C1196 C1195 1.398 . S
C1196 C1197 1.391 . S
C1197 H1185 0.950 . S
C1197 C1193 1.393 . S
C1197 C1196 1.391 . S
C1198 H1188 0.950 . S
C1198 C1199 1.386 . S
C1198 C1200 1.391 . S
C1199 C1198 1.386 . S
C1199 C1203 1.393 . S
C1200 H1189 0.950 . S
C1200 C1198 1.391 . S
C1200 C1201 1.400 . S
C1201 C1195 1.491 . S
C1201 C1200 1.400 . S
C1201 C1202 1.398 . S
C1202 H1190 0.950 . S
C1202 C1201 1.398 . S
C1202 C1203 1.391 . S
C1203 H1191 0.950 . S
C1203 C1199 1.393 . S
C1203 C1202 1.391 . S
H1204 C1212 0.950 . S
H1205 C1217 0.950 . S
H1206 C1214 0.950 . S
H1207 C1216 0.950 . S
H1208 C1218 0.950 . S
H1209 C1220 0.950 . S
H1210 C1222 0.950 . S
H1211 C1223 0.950 . S
C1212 H1204 0.950 . S
C1212 C1213 1.386 . S
C1212 C1214 1.391 . S
C1213 C1212 1.386 . S
C1213 C1217 1.393 . S
C1214 H1206 0.950 . S
C1214 C1212 1.391 . S
C1214 C1215 1.400 . S
C1215 C1214 1.400 . S
C1215 C1216 1.398 . S
C1215 C1221 1.491 . S
C1216 H1207 0.950 . S
C1216 C1215 1.398 . S
C1216 C1217 1.391 . S
C1217 H1205 0.950 . S
C1217 C1213 1.393 . S
C1217 C1216 1.391 . S
C1218 H1208 0.950 . S
C1218 C1219 1.386 . S
C1218 C1220 1.391 . S
C1219 C1218 1.386 . S
C1219 C1223 1.393 . S
C1220 H1209 0.950 . S
C1220 C1218 1.391 . S
C1220 C1221 1.400 . S
C1221 C1215 1.491 . S
C1221 C1220 1.400 . S
C1221 C1222 1.398 . S
C1222 H1210 0.950 . S
C1222 C1221 1.398 . S
C1222 C1223 1.391 . S
C1223 H1211 0.950 . S
C1223 C1219 1.393 . S
C1223 C1222 1.391 . S
H1224 C1232 0.950 . S
H1225 C1237 0.950 . S
H1226 C1234 0.950 . S
H1227 C1236 0.950 . S
H1228 C1238 0.950 . S
H1229 C1240 0.950 . S
H1230 C1242 0.950 . S
H1231 C1243 0.950 . S
C1232 H1224 0.950 . S
C1232 C1233 1.386 . S
C1232 C1234 1.391 . S
C1233 C1232 1.386 . S
C1233 C1237 1.393 . S
C1234 H1226 0.950 . S
C1234 C1232 1.391 . S
C1234 C1235 1.400 . S
C1235 C1234 1.400 . S
C1235 C1236 1.398 . S
C1235 C1241 1.491 . S
C1236 H1227 0.950 . S
C1236 C1235 1.398 . S
C1236 C1237 1.391 . S
C1237 H1225 0.950 . S
C1237 C1233 1.393 . S
C1237 C1236 1.391 . S
C1238 H1228 0.950 . S
C1238 C1239 1.386 . S
C1238 C1240 1.391 . S
C1239 C1238 1.386 . S
C1239 C1243 1.393 . S
C1240 H1229 0.950 . S
C1240 C1238 1.391 . S
C1240 C1241 1.400 . S
C1241 C1235 1.491 . S
C1241 C1240 1.400 . S
C1241 C1242 1.398 . S
C1242 H1230 0.950 . S
C1242 C1241 1.398 . S
C1242 C1243 1.391 . S
C1243 H1231 0.950 . S
C1243 C1239 1.393 . S
C1243 C1242 1.391 . S
H1244 C1252 0.950 . S
H1245 C1257 0.950 . S
H1246 C1254 0.950 . S
H1247 C1256 0.950 . S
H1248 C1258 0.950 . S
H1249 C1260 0.950 . S
H1250 C1262 0.950 . S
H1251 C1263 0.950 . S
C1252 H1244 0.950 . S
C1252 C1253 1.386 . S
C1252 C1254 1.391 . S
C1253 C1252 1.386 . S
C1253 C1257 1.393 . S
C1254 H1246 0.950 . S
C1254 C1252 1.391 . S
C1254 C1255 1.400 . S
C1255 C1254 1.400 . S
C1255 C1256 1.398 . S
C1255 C1261 1.491 . S
C1256 H1247 0.950 . S
C1256 C1255 1.398 . S
C1256 C1257 1.391 . S
C1257 H1245 0.950 . S
C1257 C1253 1.393 . S
C1257 C1256 1.391 . S
C1258 H1248 0.950 . S
C1258 C1259 1.386 . S
C1258 C1260 1.391 . S
C1259 C1258 1.386 . S
C1259 C1263 1.393 . S
C1260 H1249 0.950 . S
C1260 C1258 1.391 . S
C1260 C1261 1.400 . S
C1261 C1255 1.491 . S
C1261 C1260 1.400 . S
C1261 C1262 1.398 . S
C1262 H1250 0.950 . S
C1262 C1261 1.398 . S
C1262 C1263 1.391 . S
C1263 H1251 0.950 . S
C1263 C1259 1.393 . S
C1263 C1262 1.391 . S
H1264 C1272 0.950 . S
H1265 C1277 0.950 . S
H1266 C1274 0.950 . S
H1267 C1276 0.950 . S
H1268 C1278 0.950 . S
H1269 C1280 0.950 . S
H1270 C1282 0.950 . S
H1271 C1283 0.950 . S
C1272 H1264 0.950 . S
C1272 C1273 1.386 . S
C1272 C1274 1.391 . S
C1273 C1272 1.386 . S
C1273 C1277 1.393 . S
C1274 H1266 0.950 . S
C1274 C1272 1.391 . S
C1274 C1275 1.400 . S
C1275 C1274 1.400 . S
C1275 C1276 1.398 . S
C1275 C1281 1.491 . S
C1276 H1267 0.950 . S
C1276 C1275 1.398 . S
C1276 C1277 1.391 . S
C1277 H1265 0.950 . S
C1277 C1273 1.393 . S
C1277 C1276 1.391 . S
C1278 H1268 0.950 . S
C1278 C1279 1.386 . S
C1278 C1280 1.391 . S
C1279 C1278 1.386 . S
C1279 C1283 1.393 . S
C1280 H1269 0.950 . S
C1280 C1278 1.391 . S
C1280 C1281 1.400 . S
C1281 C1275 1.491 . S
C1281 C1280 1.400 . S
C1281 C1282 1.398 . S
C1282 H1270 0.950 . S
C1282 C1281 1.398 . S
C1282 C1283 1.391 . S
C1283 H1271 0.950 . S
C1283 C1279 1.393 . S
C1283 C1282 1.391 . S
H1284 C1292 0.950 . S
H1285 C1297 0.950 . S
H1286 C1294 0.950 . S
H1287 C1296 0.950 . S
H1288 C1298 0.950 . S
H1289 C1300 0.950 . S
H1290 C1302 0.950 . S
H1291 C1303 0.950 . S
C1292 H1284 0.950 . S
C1292 C1293 1.386 . S
C1292 C1294 1.391 . S
C1293 C1292 1.386 . S
C1293 C1297 1.393 . S
C1294 H1286 0.950 . S
C1294 C1292 1.391 . S
C1294 C1295 1.400 . S
C1295 C1294 1.400 . S
C1295 C1296 1.398 . S
C1295 C1301 1.491 . S
C1296 H1287 0.950 . S
C1296 C1295 1.398 . S
C1296 C1297 1.391 . S
C1297 H1285 0.950 . S
C1297 C1293 1.393 . S
C1297 C1296 1.391 . S
C1298 H1288 0.950 . S
C1298 C1299 1.386 . S
C1298 C1300 1.391 . S
C1299 C1298 1.386 . S
C1299 C1303 1.393 . S
C1300 H1289 0.950 . S
C1300 C1298 1.391 . S
C1300 C1301 1.400 . S
C1301 C1295 1.491 . S
C1301 C1300 1.400 . S
C1301 C1302 1.398 . S
C1302 H1290 0.950 . S
C1302 C1301 1.398 . S
C1302 C1303 1.391 . S
C1303 H1291 0.950 . S
C1303 C1299 1.393 . S
C1303 C1302 1.391 . S
H1304 C1312 0.950 . S
H1305 C1317 0.950 . S
H1306 C1314 0.950 . S
H1307 C1316 0.950 . S
H1308 C1318 0.950 . S
H1309 C1320 0.950 . S
H1310 C1322 0.950 . S
H1311 C1323 0.950 . S
C1312 H1304 0.950 . S
C1312 C1313 1.386 . S
C1312 C1314 1.391 . S
C1313 C1312 1.386 . S
C1313 C1317 1.393 . S
C1314 H1306 0.950 . S
C1314 C1312 1.391 . S
C1314 C1315 1.400 . S
C1315 C1314 1.400 . S
C1315 C1316 1.398 . S
C1315 C1321 1.491 . S
C1316 H1307 0.950 . S
C1316 C1315 1.398 . S
C1316 C1317 1.391 . S
C1317 H1305 0.950 . S
C1317 C1313 1.393 . S
C1317 C1316 1.391 . S
C1318 H1308 0.950 . S
C1318 C1319 1.386 . S
C1318 C1320 1.391 . S
C1319 C1318 1.386 . S
C1319 C1323 1.393 . S
C1320 H1309 0.950 . S
C1320 C1318 1.391 . S
C1320 C1321 1.400 . S
C1321 C1315 1.491 . S
C1321 C1320 1.400 . S
C1321 C1322 1.398 . S
C1322 H1310 0.950 . S
C1322 C1321 1.398 . S
C1322 C1323 1.391 . S
C1323 H1311 0.950 . S
C1323 C1319 1.393 . S
C1323 C1322 1.391 . S
H1324 C1332 0.950 . S
H1325 C1337 0.950 . S
H1326 C1334 0.950 . S
H1327 C1336 0.950 . S
H1328 C1338 0.950 . S
H1329 C1340 0.950 . S
H1330 C1342 0.950 . S
H1331 C1343 0.950 . S
C1332 H1324 0.950 . S
C1332 C1333 1.386 . S
C1332 C1334 1.391 . S
C1333 C1332 1.386 . S
C1333 C1337 1.393 . S
C1334 H1326 0.950 . S
C1334 C1332 1.391 . S
C1334 C1335 1.400 . S
C1335 C1334 1.400 . S
C1335 C1336 1.398 . S
C1335 C1341 1.491 . S
C1336 H1327 0.950 . S
C1336 C1335 1.398 . S
C1336 C1337 1.391 . S
C1337 H1325 0.950 . S
C1337 C1333 1.393 . S
C1337 C1336 1.391 . S
C1338 H1328 0.950 . S
C1338 C1339 1.386 . S
C1338 C1340 1.391 . S
C1339 C1338 1.386 . S
C1339 C1343 1.393 . S
C1340 H1329 0.950 . S
C1340 C1338 1.391 . S
C1340 C1341 1.400 . S
C1341 C1335 1.491 . S
C1341 C1340 1.400 . S
C1341 C1342 1.398 . S
C1342 H1330 0.950 . S
C1342 C1341 1.398 . S
C1342 C1343 1.391 . S
C1343 H1331 0.950 . S
C1343 C1339 1.393 . S
C1343 C1342 1.391 . S
H1344 C1352 0.950 . S
H1345 C1357 0.950 . S
H1346 C1354 0.950 . S
H1347 C1356 0.950 . S
H1348 C1358 0.950 . S
H1349 C1360 0.950 . S
H1350 C1362 0.950 . S
H1351 C1363 0.950 . S
C1352 H1344 0.950 . S
C1352 C1353 1.386 . S
C1352 C1354 1.391 . S
C1353 C1352 1.386 . S
C1353 C1357 1.393 . S
C1354 H1346 0.950 . S
C1354 C1352 1.391 . S
C1354 C1355 1.400 . S
C1355 C1354 1.400 . S
C1355 C1356 1.398 . S
C1355 C1361 1.491 . S
C1356 H1347 0.950 . S
C1356 C1355 1.398 . S
C1356 C1357 1.391 . S
C1357 H1345 0.950 . S
C1357 C1353 1.393 . S
C1357 C1356 1.391 . S
C1358 H1348 0.950 . S
C1358 C1359 1.386 . S
C1358 C1360 1.391 . S
C1359 C1358 1.386 . S
C1359 C1363 1.393 . S
C1360 H1349 0.950 . S
C1360 C1358 1.391 . S
C1360 C1361 1.400 . S
C1361 C1355 1.491 . S
C1361 C1360 1.400 . S
C1361 C1362 1.398 . S
C1362 H1350 0.950 . S
C1362 C1361 1.398 . S
C1362 C1363 1.391 . S
C1363 H1351 0.950 . S
C1363 C1359 1.393 . S
C1363 C1362 1.391 . S
H1364 C1372 0.950 . S
H1365 C1377 0.950 . S
H1366 C1374 0.950 . S
H1367 C1376 0.950 . S
H1368 C1378 0.950 . S
H1369 C1380 0.950 . S
H1370 C1382 0.950 . S
H1371 C1383 0.950 . S
C1372 H1364 0.950 . S
C1372 C1373 1.386 . S
C1372 C1374 1.391 . S
C1373 C1372 1.386 . S
C1373 C1377 1.393 . S
C1374 H1366 0.950 . S
C1374 C1372 1.391 . S
C1374 C1375 1.400 . S
C1375 C1374 1.400 . S
C1375 C1376 1.398 . S
C1375 C1381 1.491 . S
C1376 H1367 0.950 . S
C1376 C1375 1.398 . S
C1376 C1377 1.391 . S
C1377 H1365 0.950 . S
C1377 C1373 1.393 . S
C1377 C1376 1.391 . S
C1378 H1368 0.950 . S
C1378 C1379 1.386 . S
C1378 C1380 1.391 . S
C1379 C1378 1.386 . S
C1379 C1383 1.393 . S
C1380 H1369 0.950 . S
C1380 C1378 1.391 . S
C1380 C1381 1.400 . S
C1381 C1375 1.491 . S
C1381 C1380 1.400 . S
C1381 C1382 1.398 . S
C1382 H1370 0.950 . S
C1382 C1381 1.398 . S
C1382 C1383 1.391 . S
C1383 H1371 0.950 . S
C1383 C1379 1.393 . S
C1383 C1382 1.391 . S
H1384 C1392 0.950 . S
H1385 C1397 0.950 . S
H1386 C1394 0.950 . S
H1387 C1396 0.950 . S
H1388 C1398 0.950 . S
H1389 C1400 0.950 . S
H1390 C1402 0.950 . S
H1391 C1403 0.950 . S
C1392 H1384 0.950 . S
C1392 C1393 1.386 . S
C1392 C1394 1.391 . S
C1393 C1392 1.386 . S
C1393 C1397 1.393 . S
C1394 H1386 0.950 . S
C1394 C1392 1.391 . S
C1394 C1395 1.400 . S
C1395 C1394 1.400 . S
C1395 C1396 1.398 . S
C1395 C1401 1.491 . S
C1396 H1387 0.950 . S
C1396 C1395 1.398 . S
C1396 C1397 1.391 . S
C1397 H1385 0.950 . S
C1397 C1393 1.393 . S
C1397 C1396 1.391 . S
C1398 H1388 0.950 . S
C1398 C1399 1.386 . S
C1398 C1400 1.391 . S
C1399 C1398 1.386 . S
C1399 C1403 1.393 . S
C1400 H1389 0.950 . S
C1400 C1398 1.391 . S
C1400 C1401 1.400 . S
C1401 C1395 1.491 . S
C1401 C1400 1.400 . S
C1401 C1402 1.398 . S
C1402 H1390 0.950 . S
C1402 C1401 1.398 . S
C1402 C1403 1.391 . S
C1403 H1391 0.950 . S
C1403 C1399 1.393 . S
C1403 C1402 1.391 . S
H1404 C1412 0.950 . S
H1405 C1417 0.950 . S
H1406 C1414 0.950 . S
H1407 C1416 0.950 . S
H1408 C1418 0.950 . S
H1409 C1420 0.950 . S
H1410 C1422 0.950 . S
H1411 C1423 0.950 . S
C1412 H1404 0.950 . S
C1412 C1413 1.386 . S
C1412 C1414 1.391 . S
C1413 C1412 1.386 . S
C1413 C1417 1.393 . S
C1414 H1406 0.950 . S
C1414 C1412 1.391 . S
C1414 C1415 1.400 . S
C1415 C1414 1.400 . S
C1415 C1416 1.398 . S
C1415 C1421 1.491 . S
C1416 H1407 0.950 . S
C1416 C1415 1.398 . S
C1416 C1417 1.391 . S
C1417 H1405 0.950 . S
C1417 C1413 1.393 . S
C1417 C1416 1.391 . S
C1418 H1408 0.950 . S
C1418 C1419 1.386 . S
C1418 C1420 1.391 . S
C1419 C1418 1.386 . S
C1419 C1423 1.393 . S
C1420 H1409 0.950 . S
C1420 C1418 1.391 . S
C1420 C1421 1.400 . S
C1421 C1415 1.491 . S
C1421 C1420 1.400 . S
C1421 C1422 1.398 . S
C1422 H1410 0.950 . S
C1422 C1421 1.398 . S
C1422 C1423 1.391 . S
C1423 H1411 0.950 . S
C1423 C1419 1.393 . S
C1423 C1422 1.391 . S
H1424 C1432 0.950 . S
H1425 C1437 0.950 . S
H1426 C1434 0.950 . S
H1427 C1436 0.950 . S
H1428 C1438 0.950 . S
H1429 C1440 0.950 . S
H1430 C1442 0.950 . S
H1431 C1443 0.950 . S
C1432 H1424 0.950 . S
C1432 C1433 1.386 . S
C1432 C1434 1.391 . S
C1433 C1432 1.386 . S
C1433 C1437 1.393 . S
C1434 H1426 0.950 . S
C1434 C1432 1.391 . S
C1434 C1435 1.400 . S
C1435 C1434 1.400 . S
C1435 C1436 1.398 . S
C1435 C1441 1.491 . S
C1436 H1427 0.950 . S
C1436 C1435 1.398 . S
C1436 C1437 1.391 . S
C1437 H1425 0.950 . S
C1437 C1433 1.393 . S
C1437 C1436 1.391 . S
C1438 H1428 0.950 . S
C1438 C1439 1.386 . S
C1438 C1440 1.391 . S
C1439 C1438 1.386 . S
C1439 C1443 1.393 . S
C1440 H1429 0.950 . S
C1440 C1438 1.391 . S
C1440 C1441 1.400 . S
C1441 C1435 1.491 . S
C1441 C1440 1.400 . S
C1441 C1442 1.398 . S
C1442 H1430 0.950 . S
C1442 C1441 1.398 . S
C1442 C1443 1.391 . S
C1443 H1431 0.950 . S
C1443 C1439 1.393 . S
C1443 C1442 1.391 . S
H1444 C1452 0.950 . S
H1445 C1457 0.950 . S
H1446 C1454 0.950 . S
H1447 C1456 0.950 . S
H1448 C1458 0.950 . S
H1449 C1460 0.950 . S
H1450 C1462 0.950 . S
H1451 C1463 0.950 . S
C1452 H1444 0.950 . S
C1452 C1453 1.386 . S
C1452 C1454 1.391 . S
C1453 C1452 1.386 . S
C1453 C1457 1.393 . S
C1454 H1446 0.950 . S
C1454 C1452 1.391 . S
C1454 C1455 1.400 . S
C1455 C1454 1.400 . S
C1455 C1456 1.398 . S
C1455 C1461 1.491 . S
C1456 H1447 0.950 . S
C1456 C1455 1.398 . S
C1456 C1457 1.391 . S
C1457 H1445 0.950 . S
C1457 C1453 1.393 . S
C1457 C1456 1.391 . S
C1458 H1448 0.950 . S
C1458 C1459 1.386 . S
C1458 C1460 1.391 . S
C1459 C1458 1.386 . S
C1459 C1463 1.393 . S
C1460 H1449 0.950 . S
C1460 C1458 1.391 . S
C1460 C1461 1.400 . S
C1461 C1455 1.491 . S
C1461 C1460 1.400 . S
C1461 C1462 1.398 . S
C1462 H1450 0.950 . S
C1462 C1461 1.398 . S
C1462 C1463 1.391 . S
C1463 H1451 0.950 . S
C1463 C1459 1.393 . S
C1463 C1462 1.391 . S
H1464 C1472 0.950 . S
H1465 C1477 0.950 . S
H1466 C1474 0.950 . S
H1467 C1476 0.950 . S
H1468 C1478 0.950 . S
H1469 C1480 0.950 . S
H1470 C1482 0.950 . S
H1471 C1483 0.950 . S
C1472 H1464 0.950 . S
C1472 C1473 1.386 . S
C1472 C1474 1.391 . S
C1473 C1472 1.386 . S
C1473 C1477 1.393 . S
C1474 H1466 0.950 . S
C1474 C1472 1.391 . S
C1474 C1475 1.400 . S
C1475 C1474 1.400 . S
C1475 C1476 1.398 . S
C1475 C1481 1.491 . S
C1476 H1467 0.950 . S
C1476 C1475 1.398 . S
C1476 C1477 1.391 . S
C1477 H1465 0.950 . S
C1477 C1473 1.393 . S
C1477 C1476 1.391 . S
C1478 H1468 0.950 . S
C1478 C1479 1.386 . S
C1478 C1480 1.391 . S
C1479 C1478 1.386 . S
C1479 C1483 1.393 . S
C1480 H1469 0.950 . S
C1480 C1478 1.391 . S
C1480 C1481 1.400 . S
C1481 C1475 1.491 . S
C1481 C1480 1.400 . S
C1481 C1482 1.398 . S
C1482 H1470 0.950 . S
C1482 C1481 1.398 . S
C1482 C1483 1.391 . S
C1483 H1471 0.950 . S
C1483 C1479 1.393 . S
C1483 C1482 1.391 . S
H1484 C1492 0.950 . S
H1485 C1497 0.950 . S
H1486 C1494 0.950 . S
H1487 C1496 0.950 . S
H1488 C1498 0.950 . S
H1489 C1500 0.950 . S
H1490 C1502 0.950 . S
H1491 C1503 0.950 . S
C1492 H1484 0.950 . S
C1492 C1493 1.386 . S
C1492 C1494 1.391 . S
C1493 C1492 1.386 . S
C1493 C1497 1.393 . S
C1494 H1486 0.950 . S
C1494 C1492 1.391 . S
C1494 C1495 1.400 . S
C1495 C1494 1.400 . S
C1495 C1496 1.398 . S
C1495 C1501 1.491 . S
C1496 H1487 0.950 . S
C1496 C1495 1.398 . S
C1496 C1497 1.391 . S
C1497 H1485 0.950 . S
C1497 C1493 1.393 . S
C1497 C1496 1.391 . S
C1498 H1488 0.950 . S
C1498 C1499 1.386 . S
C1498 C1500 1.391 . S
C1499 C1498 1.386 . S
C1499 C1503 1.393 . S
C1500 H1489 0.950 . S
C1500 C1498 1.391 . S
C1500 C1501 1.400 . S
C1501 C1495 1.491 . S
C1501 C1500 1.400 . S
C1501 C1502 1.398 . S
C1502 H1490 0.950 . S
C1502 C1501 1.398 . S
C1502 C1503 1.391 . S
C1503 H1491 0.950 . S
C1503 C1499 1.393 . S
C1503 C1502 1.391 . S
H1504 C1512 0.950 . S
H1505 C1517 0.950 . S
H1506 C1514 0.950 . S
H1507 C1516 0.950 . S
H1508 C1518 0.950 . S
H1509 C1520 0.950 . S
H1510 C1522 0.950 . S
H1511 C1523 0.950 . S
C1512 H1504 0.950 . S
C1512 C1513 1.386 . S
C1512 C1514 1.391 . S
C1513 C1512 1.386 . S
C1513 C1517 1.393 . S
C1514 H1506 0.950 . S
C1514 C1512 1.391 . S
C1514 C1515 1.400 . S
C1515 C1514 1.400 . S
C1515 C1516 1.398 . S
C1515 C1521 1.491 . S
C1516 H1507 0.950 . S
C1516 C1515 1.398 . S
C1516 C1517 1.391 . S
C1517 H1505 0.950 . S
C1517 C1513 1.393 . S
C1517 C1516 1.391 . S
C1518 H1508 0.950 . S
C1518 C1519 1.386 . S
C1518 C1520 1.391 . S
C1519 C1518 1.386 . S
C1519 C1523 1.393 . S
C1520 H1509 0.950 . S
C1520 C1518 1.391 . S
C1520 C1521 1.400 . S
C1521 C1515 1.491 . S
C1521 C1520 1.400 . S
C1521 C1522 1.398 . S
C1522 H1510 0.950 . S
C1522 C1521 1.398 . S
C1522 C1523 1.391 . S
C1523 H1511 0.950 . S
C1523 C1519 1.393 . S
C1523 C1522 1.391 . S
H1524 C1532 0.950 . S
H1525 C1537 0.950 . S
H1526 C1534 0.950 . S
H1527 C1536 0.950 . S
H1528 C1538 0.950 . S
H1529 C1540 0.950 . S
H1530 C1542 0.950 . S
H1531 C1543 0.950 . S
C1532 H1524 0.950 . S
C1532 C1533 1.386 . S
C1532 C1534 1.391 . S
C1533 C1532 1.386 . S
C1533 C1537 1.393 . S
C1534 H1526 0.950 . S
C1534 C1532 1.391 . S
C1534 C1535 1.400 . S
C1535 C1534 1.400 . S
C1535 C1536 1.398 . S
C1535 C1541 1.491 . S
C1536 H1527 0.950 . S
C1536 C1535 1.398 . S
C1536 C1537 1.391 . S
C1537 H1525 0.950 . S
C1537 C1533 1.393 . S
C1537 C1536 1.391 . S
C1538 H1528 0.950 . S
C1538 C1539 1.386 . S
C1538 C1540 1.391 . S
C1539 C1538 1.386 . S
C1539 C1543 1.393 . S
C1540 H1529 0.950 . S
C1540 C1538 1.391 . S
C1540 C1541 1.400 . S
C1541 C1535 1.491 . S
C1541 C1540 1.400 . S
C1541 C1542 1.398 . S
C1542 H1530 0.950 . S
C1542 C1541 1.398 . S
C1542 C1543 1.391 . S
C1543 H1531 0.950 . S
C1543 C1539 1.393 . S
C1543 C1542 1.391 . S
H1544 C1552 0.950 . S
H1545 C1557 0.950 . S
H1546 C1554 0.950 . S
H1547 C1556 0.950 . S
H1548 C1558 0.950 . S
H1549 C1560 0.950 . S
H1550 C1562 0.950 . S
H1551 C1563 0.950 . S
C1552 H1544 0.950 . S
C1552 C1553 1.386 . S
C1552 C1554 1.391 . S
C1553 C1552 1.386 . S
C1553 C1557 1.393 . S
C1554 H1546 0.950 . S
C1554 C1552 1.391 . S
C1554 C1555 1.400 . S
C1555 C1554 1.400 . S
C1555 C1556 1.398 . S
C1555 C1561 1.491 . S
C1556 H1547 0.950 . S
C1556 C1555 1.398 . S
C1556 C1557 1.391 . S
C1557 H1545 0.950 . S
C1557 C1553 1.393 . S
C1557 C1556 1.391 . S
C1558 H1548 0.950 . S
C1558 C1559 1.386 . S
C1558 C1560 1.391 . S
C1559 C1558 1.386 . S
C1559 C1563 1.393 . S
C1560 H1549 0.950 . S
C1560 C1558 1.391 . S
C1560 C1561 1.400 . S
C1561 C1555 1.491 . S
C1561 C1560 1.400 . S
C1561 C1562 1.398 . S
C1562 H1550 0.950 . S
C1562 C1561 1.398 . S
C1562 C1563 1.391 . S
C1563 H1551 0.950 . S
C1563 C1559 1.393 . S
C1563 C1562 1.391 . S
H1564 C1572 0.950 . S
H1565 C1577 0.950 . S
H1566 C1574 0.950 . S
H1567 C1576 0.950 . S
H1568 C1578 0.950 . S
H1569 C1580 0.950 . S
H1570 C1582 0.950 . S
H1571 C1583 0.950 . S
C1572 H1564 0.950 . S
C1572 C1573 1.386 . S
C1572 C1574 1.391 . S
C1573 C1572 1.386 . S
C1573 C1577 1.393 . S
C1574 H1566 0.950 . S
C1574 C1572 1.391 . S
C1574 C1575 1.400 . S
C1575 C1574 1.400 . S
C1575 C1576 1.398 . S
C1575 C1581 1.491 . S
C1576 H1567 0.950 . S
C1576 C1575 1.398 . S
C1576 C1577 1.391 . S
C1577 H1565 0.950 . S
C1577 C1573 1.393 . S
C1577 C1576 1.391 . S
C1578 H1568 0.950 . S
C1578 C1579 1.386 . S
C1578 C1580 1.391 . S
C1579 C1578 1.386 . S
C1579 C1583 1.393 . S
C1580 H1569 0.950 . S
C1580 C1578 1.391 . S
C1580 C1581 1.400 . S
C1581 C1575 1.491 . S
C1581 C1580 1.400 . S
C1581 C1582 1.398 . S
C1582 H1570 0.950 . S
C1582 C1581 1.398 . S
C1582 C1583 1.391 . S
C1583 H1571 0.950 . S
C1583 C1579 1.393 . S
C1583 C1582 1.391 . S
H1584 C1592 0.950 . S
H1585 C1597 0.950 . S
H1586 C1594 0.950 . S
H1587 C1596 0.950 . S
H1588 C1598 0.950 . S
H1589 C1600 0.950 . S
H1590 C1602 0.950 . S
H1591 C1603 0.950 . S
C1592 H1584 0.950 . S
C1592 C1593 1.386 . S
C1592 C1594 1.391 . S
C1593 C1592 1.386 . S
C1593 C1597 1.393 . S
C1594 H1586 0.950 . S
C1594 C1592 1.391 . S
C1594 C1595 1.400 . S
C1595 C1594 1.400 . S
C1595 C1596 1.398 . S
C1595 C1601 1.491 . S
C1596 H1587 0.950 . S
C1596 C1595 1.398 . S
C1596 C1597 1.391 . S
C1597 H1585 0.950 . S
C1597 C1593 1.393 . S
C1597 C1596 1.391 . S
C1598 H1588 0.950 . S
C1598 C1599 1.386 . S
C1598 C1600 1.391 . S
C1599 C1598 1.386 . S
C1599 C1603 1.393 . S
C1600 H1589 0.950 . S
C1600 C1598 1.391 . S
C1600 C1601 1.400 . S
C1601 C1595 1.491 . S
C1601 C1600 1.400 . S
C1601 C1602 1.398 . S
C1602 H1590 0.950 . S
C1602 C1601 1.398 . S
C1602 C1603 1.391 . S
C1603 H1591 0.950 . S
C1603 C1599 1.393 . S
C1603 C1602 1.391 . S
H1604 C1612 0.950 . S
H1605 C1617 0.950 . S
H1606 C1614 0.950 . S
H1607 C1616 0.950 . S
H1608 C1618 0.950 . S
H1609 C1620 0.950 . S
H1610 C1622 0.950 . S
H1611 C1623 0.950 . S
C1612 H1604 0.950 . S
C1612 C1613 1.386 . S
C1612 C1614 1.391 . S
C1613 C1612 1.386 . S
C1613 C1617 1.393 1_545 S
C1614 H1606 0.950 . S
C1614 C1612 1.391 . S
C1614 C1615 1.400 . S
C1615 C1614 1.400 . S
C1615 C1616 1.398 1_545 S
C1615 C1621 1.491 1_545 S
C1616 H1607 0.950 . S
C1616 C1615 1.398 1_565 S
C1616 C1617 1.391 . S
C1617 H1605 0.950 . S
C1617 C1613 1.393 1_565 S
C1617 C1616 1.391 . S
C1618 H1608 0.950 . S
C1618 C1619 1.386 . S
C1618 C1620 1.391 . S
C1619 C1618 1.386 . S
C1619 C1623 1.393 1_565 S
C1620 H1609 0.950 . S
C1620 C1618 1.391 . S
C1620 C1621 1.400 . S
C1621 C1615 1.491 1_565 S
C1621 C1620 1.400 . S
C1621 C1622 1.398 1_565 S
C1622 H1610 0.950 . S
C1622 C1621 1.398 1_545 S
C1622 C1623 1.391 . S
C1623 H1611 0.950 . S
C1623 C1619 1.393 1_545 S
C1623 C1622 1.391 . S
H1624 C1632 0.950 . S
H1625 C1637 0.950 . S
H1626 C1634 0.950 . S
H1627 C1636 0.950 . S
H1628 C1638 0.950 . S
H1629 C1640 0.950 . S
H1630 C1642 0.950 . S
H1631 C1643 0.950 . S
C1632 H1624 0.950 . S
C1632 C1633 1.386 . S
C1632 C1634 1.391 . S
C1633 C1632 1.386 . S
C1633 C1637 1.393 . S
C1634 H1626 0.950 . S
C1634 C1632 1.391 . S
C1634 C1635 1.400 . S
C1635 C1634 1.400 . S
C1635 C1636 1.398 . S
C1635 C1641 1.491 1_455 S
C1636 H1627 0.950 . S
C1636 C1635 1.398 . S
C1636 C1637 1.391 . S
C1637 H1625 0.950 . S
C1637 C1633 1.393 . S
C1637 C1636 1.391 . S
C1638 H1628 0.950 . S
C1638 C1639 1.386 . S
C1638 C1640 1.391 . S
C1639 C1638 1.386 . S
C1639 C1643 1.393 . S
C1640 H1629 0.950 . S
C1640 C1638 1.391 . S
C1640 C1641 1.400 . S
C1641 C1635 1.491 1_655 S
C1641 C1640 1.400 . S
C1641 C1642 1.398 . S
C1642 H1630 0.950 . S
C1642 C1641 1.398 . S
C1642 C1643 1.391 . S
C1643 H1631 0.950 . S
C1643 C1639 1.393 . S
C1643 C1642 1.391 . S
H1644 C1652 0.950 . S
H1645 C1657 0.950 . S
H1646 C1654 0.950 . S
H1647 C1656 0.950 . S
H1648 C1658 0.950 . S
H1649 C1660 0.950 . S
H1650 C1662 0.950 . S
H1651 C1663 0.950 . S
C1652 H1644 0.950 . S
C1652 C1653 1.386 . S
C1652 C1654 1.391 . S
C1653 C1652 1.386 . S
C1653 C1657 1.393 . S
C1654 H1646 0.950 . S
C1654 C1652 1.391 . S
C1654 C1655 1.400 . S
C1655 C1654 1.400 . S
C1655 C1656 1.398 . S
C1655 C1661 1.491 . S
C1656 H1647 0.950 . S
C1656 C1655 1.398 . S
C1656 C1657 1.391 . S
C1657 H1645 0.950 . S
C1657 C1653 1.393 . S
C1657 C1656 1.391 . S
C1658 H1648 0.950 . S
C1658 C1659 1.386 . S
C1658 C1660 1.391 . S
C1659 C1658 1.386 . S
C1659 C1663 1.393 . S
C1660 H1649 0.950 . S
C1660 C1658 1.391 . S
C1660 C1661 1.400 . S
C1661 C1655 1.491 . S
C1661 C1660 1.400 . S
C1661 C1662 1.398 . S
C1662 H1650 0.950 . S
C1662 C1661 1.398 . S
C1662 C1663 1.391 . S
C1663 H1651 0.950 . S
C1663 C1659 1.393 . S
C1663 C1662 1.391 . S
H1664 C1672 0.950 . S
H1665 C1677 0.950 . S
H1666 C1674 0.950 . S
H1667 C1676 0.950 . S
H1668 C1678 0.950 . S
H1669 C1680 0.950 . S
H1670 C1682 0.950 . S
H1671 C1683 0.950 . S
C1672 H1664 0.950 . S
C1672 C1673 1.386 1_565 S
C1672 C1674 1.391 . S
C1673 C1672 1.386 1_545 S
C1673 C1677 1.393 . S
C1674 H1666 0.950 . S
C1674 C1672 1.391 . S
C1674 C1675 1.400 1_565 S
C1675 C1674 1.400 1_545 S
C1675 C1676 1.398 . S
C1675 C1681 1.491 1_545 S
C1676 H1667 0.950 . S
C1676 C1675 1.398 . S
C1676 C1677 1.391 . S
C1677 H1665 0.950 . S
C1677 C1673 1.393 . S
C1677 C1676 1.391 . S
C1678 H1668 0.950 . S
C1678 C1679 1.386 1_545 S
C1678 C1680 1.391 . S
C1679 C1678 1.386 1_565 S
C1679 C1683 1.393 . S
C1680 H1669 0.950 . S
C1680 C1678 1.391 . S
C1680 C1681 1.400 1_545 S
C1681 C1675 1.491 1_565 S
C1681 C1680 1.400 1_565 S
C1681 C1682 1.398 . S
C1682 H1670 0.950 . S
C1682 C1681 1.398 . S
C1682 C1683 1.391 . S
C1683 H1671 0.950 . S
C1683 C1679 1.393 . S
C1683 C1682 1.391 . S
H1684 C1692 0.950 . S
H1685 C1697 0.950 . S
H1686 C1694 0.950 . S
H1687 C1696 0.950 . S
H1688 C1698 0.950 . S
H1689 C1700 0.950 . S
H1690 C1702 0.950 . S
H1691 C1703 0.950 . S
C1692 H1684 0.950 . S
C1692 C1693 1.386 1_455 S
C1692 C1694 1.391 . S
C1693 C1692 1.386 1_655 S
C1693 C1697 1.393 . S
C1694 H1686 0.950 . S
C1694 C1692 1.391 . S
C1694 C1695 1.400 1_455 S
C1695 C1694 1.400 1_655 S
C1695 C1696 1.398 . S
C1695 C1701 1.491 1_655 S
C1696 H1687 0.950 . S
C1696 C1695 1.398 . S
C1696 C1697 1.391 . S
C1697 H1685 0.950 . S
C1697 C1693 1.393 . S
C1697 C1696 1.391 . S
C1698 H1688 0.950 . S
C1698 C1699 1.386 1_655 S
C1698 C1700 1.391 . S
C1699 C1698 1.386 1_455 S
C1699 C1703 1.393 . S
C1700 H1689 0.950 . S
C1700 C1698 1.391 . S
C1700 C1701 1.400 1_655 S
C1701 C1695 1.491 1_455 S
C1701 C1700 1.400 1_455 S
C1701 C1702 1.398 . S
C1702 H1690 0.950 . S
C1702 C1701 1.398 . S
C1702 C1703 1.391 . S
C1703 H1691 0.950 . S
C1703 C1699 1.393 . S
C1703 C1702 1.391 . S
H1704 C1712 0.950 . S
H1705 C1717 0.950 . S
H1706 C1714 0.950 . S
H1707 C1716 0.950 . S
H1708 C1718 0.950 . S
H1709 C1720 0.950 . S
H1710 C1722 0.950 . S
H1711 C1723 0.950 . S
C1712 H1704 0.950 . S
C1712 C1713 1.386 . S
C1712 C1714 1.391 . S
C1713 C1712 1.386 . S
C1713 C1717 1.393 . S
C1714 H1706 0.950 . S
C1714 C1712 1.391 . S
C1714 C1715 1.400 . S
C1715 C1714 1.400 . S
C1715 C1716 1.398 . S
C1715 C1721 1.491 . S
C1716 H1707 0.950 . S
C1716 C1715 1.398 . S
C1716 C1717 1.391 . S
C1717 H1705 0.950 . S
C1717 C1713 1.393 . S
C1717 C1716 1.391 . S
C1718 H1708 0.950 . S
C1718 C1719 1.386 . S
C1718 C1720 1.391 . S
C1719 C1718 1.386 . S
C1719 C1723 1.393 . S
C1720 H1709 0.950 . S
C1720 C1718 1.391 . S
C1720 C1721 1.400 . S
C1721 C1715 1.491 . S
C1721 C1720 1.400 . S
C1721 C1722 1.398 . S
C1722 H1710 0.950 . S
C1722 C1721 1.398 . S
C1722 C1723 1.391 . S
C1723 H1711 0.950 . S
C1723 C1719 1.393 . S
C1723 C1722 1.391 . S
H1724 C1732 0.950 . S
H1725 C1737 0.950 . S
H1726 C1734 0.950 . S
H1727 C1736 0.950 . S
H1728 C1738 0.950 . S
H1729 C1740 0.950 . S
H1730 C1742 0.950 . S
H1731 C1743 0.950 . S
C1732 H1724 0.950 . S
C1732 C1733 1.386 . S
C1732 C1734 1.391 . S
C1733 C1732 1.386 . S
C1733 C1737 1.393 . S
C1734 H1726 0.950 . S
C1734 C1732 1.391 . S
C1734 C1735 1.400 . S
C1735 C1734 1.400 . S
C1735 C1736 1.398 . S
C1735 C1741 1.491 . S
C1736 H1727 0.950 . S
C1736 C1735 1.398 . S
C1736 C1737 1.391 . S
C1737 H1725 0.950 . S
C1737 C1733 1.393 . S
C1737 C1736 1.391 . S
C1738 H1728 0.950 . S
C1738 C1739 1.386 . S
C1738 C1740 1.391 . S
C1739 C1738 1.386 . S
C1739 C1743 1.393 . S
C1740 H1729 0.950 . S
C1740 C1738 1.391 . S
C1740 C1741 1.400 . S
C1741 C1735 1.491 . S
C1741 C1740 1.400 . S
C1741 C1742 1.398 . S
C1742 H1730 0.950 . S
C1742 C1741 1.398 . S
C1742 C1743 1.391 . S
C1743 H1731 0.950 . S
C1743 C1739 1.393 . S
C1743 C1742 1.391 . S
H1744 C1752 0.950 . S
H1745 C1757 0.950 . S
H1746 C1754 0.950 . S
H1747 C1756 0.950 . S
H1748 C1758 0.950 . S
H1749 C1760 0.950 . S
H1750 C1762 0.950 . S
H1751 C1763 0.950 . S
C1752 H1744 0.950 . S
C1752 C1753 1.386 . S
C1752 C1754 1.391 . S
C1753 C1752 1.386 . S
C1753 C1757 1.393 . S
C1754 H1746 0.950 . S
C1754 C1752 1.391 . S
C1754 C1755 1.400 . S
C1755 C1754 1.400 . S
C1755 C1756 1.398 . S
C1755 C1761 1.491 . S
C1756 H1747 0.950 . S
C1756 C1755 1.398 . S
C1756 C1757 1.391 . S
C1757 H1745 0.950 . S
C1757 C1753 1.393 . S
C1757 C1756 1.391 . S
C1758 H1748 0.950 . S
C1758 C1759 1.386 . S
C1758 C1760 1.391 . S
C1759 C1758 1.386 . S
C1759 C1763 1.393 . S
C1760 H1749 0.950 . S
C1760 C1758 1.391 . S
C1760 C1761 1.400 . S
C1761 C1755 1.491 . S
C1761 C1760 1.400 . S
C1761 C1762 1.398 . S
C1762 H1750 0.950 . S
C1762 C1761 1.398 . S
C1762 C1763 1.391 . S
C1763 H1751 0.950 . S
C1763 C1759 1.393 . S
C1763 C1762 1.391 . S
H1764 C1772 0.950 . S
H1765 C1777 0.950 . S
H1766 C1774 0.950 . S
H1767 C1776 0.950 . S
H1768 C1778 0.950 . S
H1769 C1780 0.950 . S
H1770 C1782 0.950 . S
H1771 C1783 0.950 1_556 S
C1772 H1764 0.950 . S
C1772 C1773 1.386 . S
C1772 C1774 1.391 . S
C1773 C1772 1.386 . S
C1773 C1777 1.393 . S
C1774 H1766 0.950 . S
C1774 C1772 1.391 . S
C1774 C1775 1.400 . S
C1775 C1774 1.400 . S
C1775 C1776 1.398 . S
C1775 C1781 1.491 . S
C1776 H1767 0.950 . S
C1776 C1775 1.398 . S
C1776 C1777 1.391 . S
C1777 H1765 0.950 . S
C1777 C1773 1.393 . S
C1777 C1776 1.391 . S
C1778 H1768 0.950 . S
C1778 C1779 1.386 . S
C1778 C1780 1.391 1_556 S
C1779 C1778 1.386 . S
C1779 C1783 1.393 1_556 S
C1780 H1769 0.950 . S
C1780 C1778 1.391 1_554 S
C1780 C1781 1.400 . S
C1781 C1775 1.491 . S
C1781 C1780 1.400 . S
C1781 C1782 1.398 . S
C1782 H1770 0.950 . S
C1782 C1781 1.398 . S
C1782 C1783 1.391 . S
C1783 H1771 0.950 1_554 S
C1783 C1779 1.393 1_554 S
C1783 C1782 1.391 . S
H1784 C1792 0.950 . S
H1785 C1797 0.950 . S
H1786 C1794 0.950 . S
H1787 C1796 0.950 . S
H1788 C1798 0.950 . S
H1789 C1800 0.950 . S
H1790 C1802 0.950 . S
H1791 C1803 0.942 1_556 S
C1792 H1784 0.950 . S
C1792 C1793 1.386 . S
C1792 C1794 1.391 . S
C1793 C1792 1.386 . S
C1793 C1797 1.393 . S
C1794 H1786 0.950 . S
C1794 C1792 1.391 . S
C1794 C1795 1.400 . S
C1795 C1794 1.400 . S
C1795 C1796 1.398 . S
C1795 C1801 1.491 . S
C1796 H1787 0.950 . S
C1796 C1795 1.398 . S
C1796 C1797 1.391 . S
C1797 H1785 0.950 . S
C1797 C1793 1.393 . S
C1797 C1796 1.391 . S
C1798 H1788 0.950 . S
C1798 C1799 1.386 . S
C1798 C1800 1.391 1_556 S
C1799 C1798 1.386 . S
C1799 C1803 1.393 1_556 S
C1800 H1789 0.950 . S
C1800 C1798 1.391 1_554 S
C1800 C1801 1.400 . S
C1801 C1795 1.491 . S
C1801 C1800 1.400 . S
C1801 C1802 1.398 . S
C1802 H1790 0.950 . S
C1802 C1801 1.398 . S
C1802 C1803 1.391 . S
C1803 H1791 0.942 1_554 S
C1803 C1799 1.393 1_554 S
C1803 C1802 1.391 . S
H1804 C1812 0.950 . S
H1805 C1817 0.950 . S
H1806 C1814 0.950 . S
H1807 C1816 0.950 . S
H1808 C1818 0.950 . S
H1809 C1820 0.950 . S
H1810 C1822 0.950 . S
H1811 C1823 0.950 1_556 S
C1812 H1804 0.950 . S
C1812 C1813 1.386 . S
C1812 C1814 1.391 . S
C1813 C1812 1.386 . S
C1813 C1817 1.393 . S
C1814 H1806 0.950 . S
C1814 C1812 1.391 . S
C1814 C1815 1.400 . S
C1815 C1814 1.400 . S
C1815 C1816 1.398 . S
C1815 C1821 1.491 . S
C1816 H1807 0.950 . S
C1816 C1815 1.398 . S
C1816 C1817 1.391 . S
C1817 H1805 0.950 . S
C1817 C1813 1.393 . S
C1817 C1816 1.391 . S
C1818 H1808 0.950 . S
C1818 C1819 1.386 . S
C1818 C1820 1.391 1_556 S
C1819 C1818 1.386 . S
C1819 C1823 1.393 1_556 S
C1820 H1809 0.950 . S
C1820 C1818 1.391 1_554 S
C1820 C1821 1.400 . S
C1821 C1815 1.491 . S
C1821 C1820 1.400 . S
C1821 C1822 1.398 . S
C1822 H1810 0.950 . S
C1822 C1821 1.398 . S
C1822 C1823 1.391 . S
C1823 H1811 0.950 1_554 S
C1823 C1819 1.393 1_554 S
C1823 C1822 1.391 . S
H1824 C1832 0.952 . S
H1825 C1837 0.950 1_554 S
H1826 C1834 0.950 . S
H1827 C1836 0.950 . S
H1828 C1838 0.950 . S
H1829 C1840 0.950 . S
H1830 C1842 0.950 . S
H1831 C1843 0.950 . S
C1832 H1824 0.952 . S
C1832 C1833 1.388 . S
C1832 C1834 1.387 1_554 S
C1833 C1832 1.388 . S
C1833 C1837 1.393 1_554 S
C1834 H1826 0.950 . S
C1834 C1832 1.387 1_556 S
C1834 C1835 1.400 . S
C1835 C1834 1.400 . S
C1835 C1836 1.398 . S
C1835 C1841 1.491 . S
C1836 H1827 0.950 . S
C1836 C1835 1.398 . S
C1836 C1837 1.390 . S
C1837 H1825 0.950 1_556 S
C1837 C1833 1.393 1_556 S
C1837 C1836 1.390 . S
C1838 H1828 0.950 . S
C1838 C1839 1.386 . S
C1838 C1840 1.391 . S
C1839 C1838 1.386 . S
C1839 C1843 1.393 . S
C1840 H1829 0.950 . S
C1840 C1838 1.391 . S
C1840 C1841 1.400 . S
C1841 C1835 1.491 . S
C1841 C1840 1.400 . S
C1841 C1842 1.398 . S
C1842 H1830 0.950 . S
C1842 C1841 1.398 . S
C1842 C1843 1.391 . S
C1843 H1831 0.950 . S
C1843 C1839 1.393 . S
C1843 C1842 1.391 . S
H1844 C1852 0.946 1_554 S
H1845 C1857 0.956 . S
H1846 C1854 0.950 . S
H1847 C1856 0.950 . S
H1848 C1858 0.950 . S
H1849 C1860 0.950 . S
H1850 C1862 0.950 . S
H1851 C1863 0.950 . S
C1852 H1844 0.946 1_556 S
C1852 C1853 1.382 1_556 S
C1852 C1854 1.398 . S
C1853 C1852 1.382 1_554 S
C1853 C1857 1.399 . S
C1854 H1846 0.950 . S
C1854 C1852 1.398 . S
C1854 C1855 1.400 . S
C1855 C1854 1.400 . S
C1855 C1856 1.398 . S
C1855 C1861 1.491 . S
C1856 H1847 0.950 . S
C1856 C1855 1.398 . S
C1856 C1857 1.378 1_556 S
C1857 H1845 0.956 . S
C1857 C1853 1.399 . S
C1857 C1856 1.378 1_554 S
C1858 H1848 0.950 . S
C1858 C1859 1.386 . S
C1858 C1860 1.391 . S
C1859 C1858 1.386 . S
C1859 C1863 1.393 . S
C1860 H1849 0.950 . S
C1860 C1858 1.391 . S
C1860 C1861 1.400 . S
C1861 C1855 1.491 . S
C1861 C1860 1.400 . S
C1861 C1862 1.398 . S
C1862 H1850 0.950 . S
C1862 C1861 1.398 . S
C1862 C1863 1.391 . S
C1863 H1851 0.950 . S
C1863 C1859 1.393 . S
C1863 C1862 1.391 . S
H1864 C1872 0.950 . S
H1865 C1877 0.950 1_554 S
H1866 C1874 0.950 . S
H1867 C1876 0.950 . S
H1868 C1878 0.950 . S
H1869 C1880 0.950 . S
H1870 C1882 0.950 . S
H1871 C1883 0.950 . S
C1872 H1864 0.950 . S
C1872 C1873 1.386 . S
C1872 C1874 1.391 1_554 S
C1873 C1872 1.386 . S
C1873 C1877 1.393 1_554 S
C1874 H1866 0.950 . S
C1874 C1872 1.391 1_556 S
C1874 C1875 1.400 . S
C1875 C1874 1.400 . S
C1875 C1876 1.398 . S
C1875 C1881 1.491 . S
C1876 H1867 0.950 . S
C1876 C1875 1.398 . S
C1876 C1877 1.391 . S
C1877 H1865 0.950 1_556 S
C1877 C1873 1.393 1_556 S
C1877 C1876 1.391 . S
C1878 H1868 0.950 . S
C1878 C1879 1.386 . S
C1878 C1880 1.391 . S
C1879 C1878 1.386 . S
C1879 C1883 1.393 . S
C1880 H1869 0.950 . S
C1880 C1878 1.391 . S
C1880 C1881 1.400 . S
C1881 C1875 1.491 . S
C1881 C1880 1.400 . S
C1881 C1882 1.398 . S
C1882 H1870 0.950 . S
C1882 C1881 1.398 . S
C1882 C1883 1.391 . S
C1883 H1871 0.950 . S
C1883 C1879 1.393 . S
C1883 C1882 1.391 . S
H1884 C1892 0.950 . S
H1885 C1897 0.950 . S
H1886 C1894 0.950 . S
H1887 C1896 0.950 . S
H1888 C1898 0.950 . S
H1889 C1900 0.950 . S
H1890 C1902 0.950 . S
H1891 C1903 0.950 . S
C1892 H1884 0.950 . S
C1892 C1893 1.386 . S
C1892 C1894 1.391 . S
C1893 C1892 1.386 . S
C1893 C1897 1.393 . S
C1894 H1886 0.950 . S
C1894 C1892 1.391 . S
C1894 C1895 1.400 . S
C1895 C1894 1.400 . S
C1895 C1896 1.398 . S
C1895 C1901 1.491 . S
C1896 H1887 0.950 . S
C1896 C1895 1.398 . S
C1896 C1897 1.391 . S
C1897 H1885 0.950 . S
C1897 C1893 1.393 . S
C1897 C1896 1.391 . S
C1898 H1888 0.950 . S
C1898 C1899 1.386 . S
C1898 C1900 1.391 . S
C1899 C1898 1.386 . S
C1899 C1903 1.393 . S
C1900 H1889 0.950 . S
C1900 C1898 1.391 . S
C1900 C1901 1.400 . S
C1901 C1895 1.491 . S
C1901 C1900 1.400 . S
C1901 C1902 1.398 . S
C1902 H1890 0.950 . S
C1902 C1901 1.398 . S
C1902 C1903 1.391 . S
C1903 H1891 0.950 . S
C1903 C1899 1.393 . S
C1903 C1902 1.391 . S
H1904 C1912 0.950 . S
H1905 C1917 0.950 . S
H1906 C1914 0.950 . S
H1907 C1916 0.950 . S
H1908 C1918 0.950 . S
H1909 C1920 0.950 . S
H1910 C1922 0.950 . S
H1911 C1923 0.950 . S
C1912 H1904 0.950 . S
C1912 C1913 1.386 . S
C1912 C1914 1.391 . S
C1913 C1912 1.386 . S
C1913 C1917 1.393 . S
C1914 H1906 0.950 . S
C1914 C1912 1.391 . S
C1914 C1915 1.400 . S
C1915 C1914 1.400 . S
C1915 C1916 1.398 . S
C1915 C1921 1.491 . S
C1916 H1907 0.950 . S
C1916 C1915 1.398 . S
C1916 C1917 1.391 . S
C1917 H1905 0.950 . S
C1917 C1913 1.393 . S
C1917 C1916 1.391 . S
C1918 H1908 0.950 . S
C1918 C1919 1.386 . S
C1918 C1920 1.391 . S
C1919 C1918 1.386 . S
C1919 C1923 1.393 . S
C1920 H1909 0.950 . S
C1920 C1918 1.391 . S
C1920 C1921 1.400 . S
C1921 C1915 1.491 . S
C1921 C1920 1.400 . S
C1921 C1922 1.398 . S
C1922 H1910 0.950 . S
C1922 C1921 1.398 . S
C1922 C1923 1.391 . S
C1923 H1911 0.950 . S
C1923 C1919 1.393 . S
C1923 C1922 1.391 . S
H1924 C1932 0.950 . S
H1925 C1937 0.950 . S
H1926 C1934 0.950 . S
H1927 C1936 0.950 . S
H1928 C1938 0.950 . S
H1929 C1940 0.950 . S
H1930 C1942 0.950 . S
H1931 C1943 0.950 . S
C1932 H1924 0.950 . S
C1932 C1933 1.386 . S
C1932 C1934 1.391 . S
C1933 C1932 1.386 . S
C1933 C1937 1.393 . S
C1934 H1926 0.950 . S
C1934 C1932 1.391 . S
C1934 C1935 1.400 . S
C1935 C1934 1.400 . S
C1935 C1936 1.398 . S
C1935 C1941 1.491 . S
C1936 H1927 0.950 . S
C1936 C1935 1.398 . S
C1936 C1937 1.391 . S
C1937 H1925 0.950 . S
C1937 C1933 1.393 . S
C1937 C1936 1.391 . S
C1938 H1928 0.950 . S
C1938 C1939 1.386 . S
C1938 C1940 1.391 . S
C1939 C1938 1.386 . S
C1939 C1943 1.393 . S
C1940 H1929 0.950 . S
C1940 C1938 1.391 . S
C1940 C1941 1.400 . S
C1941 C1935 1.491 . S
C1941 C1940 1.400 . S
C1941 C1942 1.398 . S
C1942 H1930 0.950 . S
C1942 C1941 1.398 . S
C1942 C1943 1.391 . S
C1943 H1931 0.950 . S
C1943 C1939 1.393 . S
C1943 C1942 1.391 . S
C513 C235 1.284 . S
C519 C11 1.281 . S
C533 C249 1.279 . S
C539 C25 1.280 . S
C553 C39 1.287 . S
C559 C221 1.289 . S
C573 C375 1.287 . S
C579 C53 1.289 . S
C593 C347 1.281 . S
C599 C67 1.279 . S
C613 C81 1.280 . S
C619 C361 1.279 . S
C633 C487 1.288 . S
C639 C95 1.288 . S
C653 C501 1.286 . S
C659 C109 1.282 . S
C673 C473 1.282 . S
C679 C123 1.286 . S
C693 C291 1.282 . S
C699 C137 1.279 . S
C713 C151 1.283 . S
C719 C263 1.280 . S
C733 C277 1.288 . S
C739 C165 1.289 . S
C753 C403 1.288 . S
C759 C179 1.285 . S
C773 C193 1.288 . S
C779 C417 1.288 . S
C793 C389 1.288 . S
C799 C207 1.284 . S
C813 C459 1.286 . S
C819 C305 1.282 . S
C833 C431 1.284 . S
C839 C319 1.288 . S
C853 C333 1.284 . S
C859 C445 1.287 . S
C873 C105 1.325 . S
C879 C13 1.321 . S
C893 C119 1.323 . S
C899 C27 1.316 . S
C913 C91 1.344 . S
C919 C41 1.295 . S
C933 C55 1.296 . S
C939 C161 1.332 . S
C953 C133 1.342 . S
C959 C69 1.292 . S
C973 C83 1.297 . S
C979 C147 1.344 . S
C993 C21 1.332 . S
C999 C97 1.319 . S
C1013 C111 1.293 . S
C1019 C35 1.343 . S
C1033 C7 1.323 . S
C1039 C125 1.314 . S
C1053 C77 1.327 . S
C1059 C139 1.304 . S
C1073 C49 1.333 . S
C1079 C153 1.295 . S
C1093 C167 1.321 . S
C1099 C63 1.325 . S
C1113 C181 1.306 . S
C1119 C273 1.325 . S
C1133 C287 1.337 . S
C1139 C195 1.313 . S
C1153 C259 1.336 . S
C1159 C209 1.293 . S
C1173 C223 1.320 . S
C1179 C329 1.324 . S
C1193 C301 1.341 . S
C1199 C237 1.308 . S
C1213 C251 1.296 . S
C1219 C315 1.344 . S
C1233 C265 1.292 . S
C1239 C189 1.342 . S
C1253 C279 1.309 . S
C1259 C203 1.340 . S
C1273 C175 1.327 . S
C1279 C293 1.303 . S
C1293 C245 1.339 . S
C1299 C307 1.310 . S
C1313 C217 1.333 . S
C1319 C321 1.318 . S
C1333 C335 1.303 . S
C1339 C231 1.343 . S
C1353 C441 1.329 . S
C1359 C349 1.300 . S
C1373 C363 1.293 . S
C1379 C455 1.336 . S
C1393 C377 1.295 . S
C1399 C427 1.344 . S
C1413 C497 1.331 . S
C1419 C391 1.298 . S
C1433 C405 1.293 . S
C1439 C469 1.336 . S
C1453 C483 1.342 . S
C1459 C419 1.292 . S
C1473 C357 1.329 . S
C1479 C433 1.321 . S
C1493 C371 1.337 . S
C1499 C447 1.292 . S
C1513 C461 1.311 . S
C1519 C343 1.324 . S
C1533 C475 1.297 . S
C1539 C413 1.331 . S
C1553 C385 1.335 . S
C1559 C489 1.316 . S
C1573 C399 1.330 . S
C1579 C503 1.320 . S
C1593 C8 1.344 . S
C1599 C50 1.324 . S
C1613 C22 1.349 . S
C1619 C64 1.327 . S
C1633 C78 1.333 . S
C1639 C36 1.332 . S
C1653 C92 1.349 . S
C1659 C134 1.324 . S
C1673 C148 1.345 . S
C1679 C106 1.323 . S
C1693 C162 1.348 . S
C1699 C120 1.330 . S
C1713 C176 1.329 . S
C1719 C218 1.336 . S
C1733 C190 1.327 . S
C1739 C232 1.338 . S
C1753 C246 1.323 . S
C1759 C204 1.348 . S
C1773 C260 1.338 . S
C1779 C302 1.327 . S
C1793 C274 1.348 . S
C1799 C316 1.323 . S
C1813 C288 1.339 . S
C1819 C330 1.327 . S
C1833 C386 1.334 . S
C1839 C344 1.331 . S
C1853 C400 1.335 . S
C1859 C358 1.330 . S
C1873 C414 1.325 . S
C1879 C372 1.349 . S
C1893 C428 1.325 . S
C1899 C470 1.349 . S
C1913 C484 1.333 . S
C1919 C442 1.346 . S
C1933 C498 1.349 . S
C1939 C456 1.324 . S
