# Generated by pormake.
# Topology vmb, (5)-cn, num edge types: 1
# Building blocks:
#     Node 0, Type 0, BuildingBlock: XOMCOT_clean_sbu_0, # of connection points: 5
#     Node 1, Type 0, BuildingBlock: XOMCOT_clean_sbu_0, # of connection points: 5
#     Node 2, Type 0, BuildingBlock: XOMCOT_clean_sbu_0, # of connection points: 5
#     Node 3, Type 0, BuildingBlock: XOMCOT_clean_sbu_0, # of connection points: 5
#     Node 4, Type 0, BuildingBlock: XOMCOT_clean_sbu_0, # of connection points: 5
#     Node 5, Type 0, BuildingBlock: XOMCOT_clean_sbu_0, # of connection points: 5
#     Node 6, Type 0, BuildingBlock: XOMCOT_clean_sbu_0, # of connection points: 5
#     Node 7, Type 0, BuildingBlock: XOMCOT_clean_sbu_0, # of connection points: 5
#     Edge 8, Type (0, 0), BuildingBlock: EZIPEK_clean_linker_0, # of connection points: 2
#     Edge 9, Type (0, 0), BuildingBlock: EZIPEK_clean_linker_0, # of connection points: 2
#     Edge 10, Type (0, 0), BuildingBlock: EZIPEK_clean_linker_0, # of connection points: 2
#     Edge 11, Type (0, 0), BuildingBlock: EZIPEK_clean_linker_0, # of connection points: 2
#     Edge 12, Type (0, 0), BuildingBlock: EZIPEK_clean_linker_0, # of connection points: 2
#     Edge 13, Type (0, 0), BuildingBlock: EZIPEK_clean_linker_0, # of connection points: 2
#     Edge 14, Type (0, 0), BuildingBlock: EZIPEK_clean_linker_0, # of connection points: 2
#     Edge 15, Type (0, 0), BuildingBlock: EZIPEK_clean_linker_0, # of connection points: 2
#     Edge 16, Type (0, 0), BuildingBlock: EZIPEK_clean_linker_0, # of connection points: 2
#     Edge 17, Type (0, 0), BuildingBlock: EZIPEK_clean_linker_0, # of connection points: 2
#     Edge 18, Type (0, 0), BuildingBlock: EZIPEK_clean_linker_0, # of connection points: 2
#     Edge 19, Type (0, 0), BuildingBlock: EZIPEK_clean_linker_0, # of connection points: 2
#     Edge 20, Type (0, 0), BuildingBlock: EZIPEK_clean_linker_0, # of connection points: 2
#     Edge 21, Type (0, 0), BuildingBlock: EZIPEK_clean_linker_0, # of connection points: 2
#     Edge 22, Type (0, 0), BuildingBlock: EZIPEK_clean_linker_0, # of connection points: 2
#     Edge 23, Type (0, 0), BuildingBlock: EZIPEK_clean_linker_0, # of connection points: 2
#     Edge 24, Type (0, 0), BuildingBlock: EZIPEK_clean_linker_0, # of connection points: 2
#     Edge 25, Type (0, 0), BuildingBlock: EZIPEK_clean_linker_0, # of connection points: 2
#     Edge 26, Type (0, 0), BuildingBlock: EZIPEK_clean_linker_0, # of connection points: 2
#     Edge 27, Type (0, 0), BuildingBlock: EZIPEK_clean_linker_0, # of connection points: 2
# Relax obj value: 0.123
# Max RMSD: 0.192
# Mean RMSD: 0.192
data_MOF--net-vmb--node1-XOMCOT_clean_sbu_0--edge1-EZIPEK_clean_linker_0
_symmetry_space_group_name_H-M    P1
_symmetry_Int_Tables_number       1
_symmetry_cell_setting            triclinic
loop_
_symmetry_equiv_pos_as_xyz
'x, y, z'
_cell_length_a     28.795146
_cell_length_b     31.637042
_cell_length_c     22.978876
_cell_angle_alpha  89.740108
_cell_angle_beta   116.38657
_cell_angle_gamma 89.683832
loop_
_atom_site_label
_atom_site_type_symbol
_atom_site_fract_x
_atom_site_fract_y
_atom_site_fract_z
_atom_type_partial_charge
Co0 Co 0.28867 0.09629 0.39429 0.0
C1 C 0.39128 0.05667 0.43918 0.0
C2 C 0.39748 0.12438 0.44111 0.0
C3 C 0.44641 0.10696 0.4612 0.0
N4 N 0.36316 0.09271 0.42734 0.0
N5 N 0.44204 0.06453 0.45982 0.0
H6 H 0.37493 0.0253 0.4323 0.0
H7 H 0.38761 0.15767 0.43589 0.0
C8 C 0.27665 0.16629 0.47682 0.0
O9 O 0.25259 0.14109 0.4996 0.0
N10 N 0.21292 0.09953 0.36086 0.0
C11 C 0.18526 0.09103 0.39422 0.0
C12 C 0.13365 0.09711 0.35489 0.0
C13 C 0.17649 0.11107 0.30069 0.0
N14 N 0.12811 0.10953 0.29635 0.0
C15 C 0.27 0.02531 0.45762 0.0
C16 C 0.32763 0.05299 0.58339 0.0
C17 C 0.29639 0.01731 0.57217 0.0
C18 C 0.26887 1.00241 0.50889 0.0
C19 C 0.32727 0.07509 0.53051 0.0
N20 N 0.29527 0.06303 0.46861 0.0
H21 H 0.24733 0.01451 0.40849 0.0
H22 H 0.35118 0.10273 0.53898 0.0
H23 H 0.20055 0.08092 0.44417 0.0
H24 H 0.1847 0.12 0.26076 0.0
O25 O 0.28276 0.05024 0.33685 0.0
O26 O 0.28376 0.11818 0.31298 0.0
O27 O 0.29493 0.15279 0.43868 0.0
C28 C 0.28323 0.07883 0.29626 0.0
H29 H 0.48225 0.12395 0.47499 0.0
H30 H 0.10222 0.0923 0.3679 0.0
H31 H 0.35063 0.06434 0.63225 0.0
H32 H 0.24544 0.97425 0.49917 0.0
Co33 Co 0.75768 0.10063 0.07757 0.0
C34 C 0.65181 0.06894 0.00802 0.0
C35 C 0.65134 0.13627 0.01886 0.0
C36 C 0.6009 0.122 -0.00586 0.0
N37 N 0.68306 0.10281 0.02793 0.0
N38 N 0.60177 0.0796 -0.01133 0.0
H39 H 0.66582 0.03668 0.01249 0.0
H40 H 0.66419 0.16823 0.03359 0.0
C41 C 0.78024 0.17243 0.00473 0.0
O42 O 0.80179 0.14625 0.97953 0.0
N43 N 0.83348 0.09765 0.13047 0.0
C44 C 0.8584 0.07109 0.18178 0.0
C45 C 0.91076 0.07589 0.20585 0.0
C46 C 0.87252 0.11805 0.12444 0.0
N47 N 0.91951 0.10535 0.16995 0.0
C48 C 0.79581 0.0379 0.01966 0.0
C49 C 0.73279 0.06059 0.89192 0.0
C50 C 0.76808 0.02721 0.90535 0.0
C51 C 0.79956 0.0155 0.96979 0.0
C52 C 0.73041 0.08224 0.94319 0.0
N53 N 0.76289 0.07174 0.00623 0.0
H54 H 0.81898 0.02758 0.06909 0.0
H55 H 0.70322 0.10821 0.93215 0.0
H56 H 0.84067 0.04816 0.20027 0.0
H57 H 0.86804 0.14109 0.088 0.0
O58 O 0.75024 0.05157 0.12299 0.0
O59 O 0.74965 0.11788 0.15335 0.0
O60 O 0.76232 0.1592 0.04351 0.0
C61 C 0.74678 0.07778 0.16447 0.0
H62 H 0.56688 0.14068 0.98583 0.0
H63 H 0.94044 0.05817 0.24551 0.0
H64 H 0.70758 0.06992 0.84229 0.0
H65 H 0.82647 0.98915 0.98129 0.0
Co66 Co 0.7651 0.9292 0.58381 0.0
C67 C 0.65698 0.95849 0.54279 0.0
C68 C 0.65946 0.89104 0.54019 0.0
C69 C 0.60867 0.90371 0.52067 0.0
N70 N 0.68977 0.92554 0.55177 0.0
N71 N 0.60765 0.94614 0.52267 0.0
H72 H 0.66851 0.99101 0.5529 0.0
H73 H 0.67277 0.85876 0.54625 0.0
C74 C 0.74226 0.85238 0.49707 0.0
O75 O 0.70195 0.87167 0.45129 0.0
N76 N 0.83917 0.93466 0.61612 0.0
C77 C 0.86302 0.97134 0.61698 0.0
C78 C 0.91549 0.96429 0.6446 0.0
C79 C 0.87744 0.90543 0.64256 0.0
N80 N 0.92457 0.92308 0.66092 0.0
C81 C 0.73561 0.99674 0.48977 0.0
C82 C 0.77632 0.96111 0.41272 0.0
C83 C 0.75151 1.00045 0.39559 0.0
C84 C 0.73158 0.01868 0.43499 0.0
C85 C 0.77968 0.94037 0.46817 0.0
N86 N 0.75702 0.95712 0.50413 0.0
H87 H 0.72379 1.01275 0.52212 0.0
H88 H 0.80219 0.91154 0.48334 0.0
H89 H 0.84348 1.00137 0.59962 0.0
H90 H 0.87117 0.87242 0.64923 0.0
O91 O 0.76519 0.97819 0.63372 0.0
O92 O 0.77411 0.91166 0.6688 0.0
O93 O 0.76995 0.87102 0.5505 0.0
C94 C 0.77122 0.95161 0.67996 0.0
H95 H 0.57533 0.88349 0.5072 0.0
H96 H 0.94503 0.98771 0.65297 0.0
H97 H 0.79387 0.94706 0.38429 0.0
H98 H 0.71404 0.04991 0.42416 0.0
Co99 Co 0.29309 0.93107 0.89724 0.0
C100 C 0.39513 0.96703 0.93094 0.0
C101 C 0.40179 0.89977 0.94592 0.0
C102 C 0.45056 0.9159 0.96214 0.0
N103 N 0.36726 0.93203 0.92664 0.0
N104 N 0.44579 0.95806 0.95215 0.0
H105 H 0.37885 0.9986 0.91902 0.0
H106 H 0.39237 0.8669 0.94748 0.0
C107 C 0.27048 0.85527 0.96068 0.0
O108 O 0.2331 0.87655 0.9656 0.0
N109 N 0.21818 0.93182 0.86696 0.0
C110 C 0.19052 0.96035 0.88261 0.0
C111 C 0.13885 0.95207 0.84825 0.0
C112 C 0.18213 0.90653 0.82237 0.0
N113 N 0.13345 0.91848 0.81034 0.0
C114 C 0.29951 1.0056 0.9713 0.0
C115 C 0.31763 0.96547 0.0864 0.0
C116 C 0.30665 1.00874 0.07964 0.0
C117 C 0.29963 0.02933 0.02245 0.0
C118 C 0.31717 0.94303 0.03408 0.0
N119 N 0.30395 0.96243 0.97552 0.0
H120 H 0.29184 0.02189 0.92661 0.0
H121 H 0.3268 0.91016 0.04141 0.0
H122 H 0.20565 0.98602 0.91605 0.0
H123 H 0.19118 0.8804 0.79883 0.0
O124 O 0.28588 0.97805 0.83976 0.0
O125 O 0.28385 0.91048 0.81372 0.0
O126 O 0.29908 0.87318 0.93847 0.0
C127 C 0.28309 0.94992 0.79733 0.0
H128 H 0.48653 0.89819 0.97921 0.0
H129 H 0.10726 0.96967 0.85033 0.0
H130 H 0.32503 0.94899 0.13115 0.0
H131 H 0.29207 0.06304 0.01639 0.0
Co132 Co 0.79513 0.6014 0.39273 0.0
C133 C 0.90024 0.56675 0.46725 0.0
C134 C 0.90272 0.63087 0.43884 0.0
C135 C 0.95203 0.614 0.46323 0.0
N136 N 0.87028 0.60169 0.44302 0.0
N137 N 0.95001 0.57317 0.47882 0.0
H138 H 0.88474 0.53597 0.46932 0.0
H139 H 0.89057 0.66108 0.41426 0.0
C140 C 0.81407 0.6861 0.46575 0.0
O141 O 0.86282 0.67794 0.50489 0.0
N142 N 0.71982 0.6 0.33985 0.0
C143 C 0.69393 0.57478 0.28812 0.0
C144 C 0.64177 0.58182 0.26467 0.0
C145 C 0.68211 0.62197 0.34718 0.0
N146 N 0.6343 0.61123 0.30164 0.0
C147 C 0.75682 0.53828 0.44981 0.0
C148 C 0.80984 0.56555 0.5766 0.0
C149 C 0.77762 0.53045 0.56326 0.0
C150 C 0.75077 0.51668 0.49916 0.0
C151 C 0.8144 0.58638 0.52585 0.0
N152 N 0.78755 0.57317 0.46326 0.0
H153 H 0.73727 0.52661 0.40077 0.0
H154 H 0.84088 0.6122 0.53751 0.0
H155 H 0.71104 0.55193 0.26853 0.0
H156 H 0.68913 0.64473 0.38513 0.0
O157 O 0.80301 0.55235 0.34827 0.0
O158 O 0.80408 0.61873 0.31764 0.0
O159 O 0.78539 0.65933 0.42376 0.0
C160 C 0.80759 0.57862 0.30735 0.0
H161 H 0.98543 0.62896 0.4623 0.0
H162 H 0.61129 0.56619 0.22381 0.0
H163 H 0.83184 0.57636 0.62601 0.0
H164 H 0.72624 0.4891 0.48769 0.0
Co165 Co 0.26497 0.59735 0.08161 0.0
C166 C 0.15827 0.56612 0.01484 0.0
C167 C 0.1589 0.63202 0.03689 0.0
C168 C 0.10849 0.6177 0.01212 0.0
N169 N 0.18999 0.59946 0.03898 0.0
N170 N 0.1086 0.57609 -0.00046 0.0
H171 H 0.17166 0.53439 0.01289 0.0
H172 H 0.17225 0.66322 0.05572 0.0
C173 C 0.29678 0.67701 0.03502 0.0
O174 O 0.33518 0.65644 0.03149 0.0
N175 N 0.34074 0.59366 0.12502 0.0
C176 C 0.36886 0.55952 0.12417 0.0
C177 C 0.42036 0.56684 0.16195 0.0
C178 C 0.37634 0.621 0.16605 0.0
N179 N 0.42527 0.60536 0.18805 0.0
C180 C 0.26627 0.5285 0.00203 0.0
C181 C 0.25449 0.57474 0.89427 0.0
C182 C 0.26295 0.53118 0.89579 0.0
C183 C 0.26759 0.50774 0.94956 0.0
C184 C 0.25346 0.59425 0.94805 0.0
N185 N 0.2628 0.57163 0.00307 0.0
H186 H 0.26936 0.50946 0.04259 0.0
H187 H 0.24431 0.62724 0.94399 0.0
H188 H 0.35381 0.53019 0.10003 0.0
H189 H 0.36672 0.65105 0.18029 0.0
O190 O 0.26287 0.54648 0.12741 0.0
O191 O 0.26408 0.61151 0.16287 0.0
O192 O 0.266 0.6577 0.05222 0.0
C193 C 0.26163 0.57111 0.17171 0.0
H194 H 0.07503 0.63556 0.0082 0.0
H195 H 0.45211 0.54525 0.17048 0.0
H196 H 0.24854 0.59339 0.85183 0.0
H197 H 0.27243 0.4737 0.95107 0.0
Co198 Co 0.26216 0.42718 0.58001 0.0
C199 C 0.15744 0.45568 0.55742 0.0
C200 C 0.15345 0.39592 0.51192 0.0
C201 C 0.10353 0.41024 0.49487 0.0
N202 N 0.18742 0.42455 0.55125 0.0
N203 N 0.10654 0.44773 0.5238 0.0
H204 H 0.17198 0.48508 0.58253 0.0
H205 H 0.16368 0.36781 0.49351 0.0
C206 C 0.29499 0.3435 0.54165 0.0
O207 O 0.34079 0.35786 0.55301 0.0
N208 N 0.33617 0.43321 0.60886 0.0
C209 C 0.35744 0.46673 0.59338 0.0
C210 C 0.41023 0.46401 0.6269 0.0
C211 C 0.37681 0.4114 0.65429 0.0
N212 N 0.42243 0.42919 0.66469 0.0
C213 C 0.22731 0.49315 0.48474 0.0
C214 C 0.26467 0.45813 0.40376 0.0
C215 C 0.24453 0.49912 0.39178 0.0
C216 C 0.22476 0.51666 0.43186 0.0
C217 C 0.26679 0.43594 0.45713 0.0
N218 N 0.24899 0.45355 0.49758 0.0
H219 H 0.21407 0.50767 0.51708 0.0
H220 H 0.28562 0.40584 0.46723 0.0
H221 H 0.33614 0.49234 0.56117 0.0
H222 H 0.37318 0.38304 0.6784 0.0
O223 O 0.26556 0.4773 0.62895 0.0
O224 O 0.27419 0.41142 0.66678 0.0
O225 O 0.26054 0.36729 0.54617 0.0
C226 C 0.27193 0.4517 0.6764 0.0
H227 H 0.06793 0.3956 0.46093 0.0
H228 H 0.43785 0.48597 0.62399 0.0
H229 H 0.28027 0.44395 0.37327 0.0
H230 H 0.20875 0.54842 0.42323 0.0
Co231 Co 0.7945 0.43306 0.89409 0.0
C232 C 0.89798 0.46212 0.91423 0.0
C233 C 0.90388 0.40234 0.96141 0.0
C234 C 0.9533 0.41714 0.97844 0.0
N235 N 0.86901 0.4307 0.92117 0.0
N236 N 0.94913 0.4547 0.94868 0.0
H237 H 0.88242 0.49139 0.88817 0.0
H238 H 0.89458 0.37418 0.98074 0.0
C239 C 0.76543 0.35032 0.93996 0.0
O240 O 0.71994 0.36497 0.93039 0.0
N241 N 0.72064 0.43845 0.86686 0.0
C242 C 0.69828 0.472 0.88075 0.0
C243 C 0.64553 0.46816 0.84861 0.0
C244 C 0.68077 0.41536 0.82403 0.0
N245 N 0.63454 0.43252 0.81344 0.0
C246 C 0.83003 0.50033 0.98635 0.0
C247 C 0.79822 0.46605 0.07333 0.0
C248 C 0.8193 0.50645 0.08416 0.0
C249 C 0.83614 0.52362 0.04079 0.0
C250 C 0.79291 0.44397 0.01864 0.0
N251 N 0.80844 0.46098 0.97555 0.0
H252 H 0.84094 0.5147 0.95167 0.0
H253 H 0.77377 0.41435 0.01005 0.0
H254 H 0.71877 0.49828 0.91091 0.0
H255 H 0.68541 0.38652 0.80191 0.0
O256 O 0.78834 0.48225 0.84078 0.0
O257 O 0.78142 0.41574 0.80766 0.0
O258 O 0.79851 0.37368 0.932 0.0
C259 C 0.78156 0.45576 0.79456 0.0
H260 H 0.9893 0.40284 0.01311 0.0
H261 H 0.61712 0.48991 0.85062 0.0
H262 H 0.78443 0.45221 0.10594 0.0
H263 H 0.8524 0.55505 0.04799 0.0
C264 C 0.33804 0.05687 0.17608 0.0
C265 C 0.29839 0.03141 0.13055 0.0
C266 C 0.24695 0.03975 0.19064 0.0
C267 C 0.28586 0.06635 0.23556 0.0
N268 N 0.36389 0.10707 0.26382 0.0
N269 N 0.21036 1.00664 0.08484 0.0
C270 C 0.32976 0.07738 0.2257 0.0
C271 C 0.25131 0.02539 0.13485 0.0
N272 N 0.3846 0.05973 0.17384 0.0
N273 N 0.20626 0.02746 0.20191 0.0
H274 H 0.21218 0.9956 0.04318 0.0
H275 H 0.17321 1.00541 0.08176 0.0
H276 H 0.20025 0.03893 0.24035 0.0
H277 H 0.18027 1.00398 0.17567 0.0
H278 H 0.41741 0.07328 0.21038 0.0
H279 H 0.3917 0.04573 0.13753 0.0
H280 H 0.39278 0.11991 0.25377 0.0
H281 H 0.36167 0.12122 0.30323 0.0
C282 C 0.70676 0.03141 0.21931 0.0
C283 C 0.74477 0.0618 0.22445 0.0
C284 C 0.78721 0.05204 0.34317 0.0
C285 C 0.748 0.0232 0.33743 0.0
N286 N 0.66506 0.99162 0.27314 0.0
N287 N 0.81738 0.10564 0.29313 0.0
C288 C 0.70614 0.0148 0.2764 0.0
C289 C 0.78353 0.07385 0.28694 0.0
N290 N 0.67165 0.0176 0.15986 0.0
N291 N 0.82924 0.05718 0.40214 0.0
H292 H 0.82015 0.12036 0.25432 0.0
H293 H 0.84124 0.11949 0.33735 0.0
H294 H 0.83255 0.04277 0.44475 0.0
H295 H 0.86258 0.07323 0.40841 0.0
H296 H 0.64833 0.99126 0.15315 0.0
H297 H 0.66715 0.03132 0.11665 0.0
H298 H 0.63038 0.98871 0.23104 0.0
H299 H 0.66375 0.97811 0.31388 0.0
C300 C 0.73387 0.95597 0.7599 0.0
C301 C 0.77374 0.96655 0.74211 0.0
C302 C 0.81097 0.0158 0.83291 0.0
C303 C 0.77187 1.00456 0.85152 0.0
N304 N 0.70261 0.95845 0.84211 0.0
N305 N 0.85744 0.99722 0.77091 0.0
C306 C 0.73537 0.97279 0.81795 0.0
C307 C 0.81446 0.99379 0.78136 0.0
N308 N 0.69338 0.93146 0.71994 0.0
N309 N 0.84376 0.04837 0.86321 0.0
H310 H 0.86203 0.98003 0.73526 0.0
H311 H 0.89068 1.01336 0.8017 0.0
H312 H 0.84319 0.0647 0.90223 0.0
H313 H 0.86904 0.06124 0.84677 0.0
H314 H 0.66038 0.92648 0.72661 0.0
H315 H 0.69102 0.91808 0.67741 0.0
H316 H 0.67887 0.93227 0.82401 0.0
H317 H 0.70216 0.97065 0.88396 0.0
C318 C 0.32248 0.94826 0.71907 0.0
C319 C 0.28276 0.96276 0.73519 0.0
C320 C 0.25132 1.01225 0.64317 0.0
C321 C 0.29014 0.99701 0.62629 0.0
N322 N 0.35569 0.94536 0.63878 0.0
N323 N 0.20237 1.0007 0.70457 0.0
C324 C 0.32336 0.96318 0.66116 0.0
C325 C 0.24508 0.9925 0.69482 0.0
N326 N 0.36123 0.92233 0.76084 0.0
N327 N 0.22124 0.04626 0.61077 0.0
H328 H 0.19608 0.98612 0.74123 0.0
H329 H 0.17083 0.01871 0.6728 0.0
H330 H 0.22321 0.06062 0.57099 0.0
H331 H 0.19667 0.06203 0.62581 0.0
H332 H 0.39398 0.91438 0.75493 0.0
H333 H 0.36316 0.91109 0.80445 0.0
H334 H 0.37647 0.91747 0.65749 0.0
H335 H 0.35867 0.95659 0.59783 0.0
C336 C 0.77945 0.57865 0.18626 0.0
C337 C 0.81333 0.56321 0.24971 0.0
C338 C 0.85858 0.51908 0.20294 0.0
C339 C 0.82126 0.53066 0.14005 0.0
N340 N 0.74293 0.56785 0.06981 0.0
N341 N 0.88034 0.51305 0.31644 0.0
C342 C 0.78122 0.55995 0.13106 0.0
C343 C 0.85152 0.53185 0.25751 0.0
N344 N 0.74432 0.61018 0.17799 0.0
N345 N 0.90148 0.49635 0.2105 0.0
H346 H 0.88087 0.52321 0.35954 0.0
H347 H 0.90253 0.48581 0.32227 0.0
H348 H 0.90782 0.48665 0.17124 0.0
H349 H 0.93305 0.49079 0.25542 0.0
H350 H 0.72478 0.6269 0.13458 0.0
H351 H 0.73553 0.62113 0.21453 0.0
H352 H 0.70881 0.58423 0.06026 0.0
H353 H 0.74345 0.55558 0.02806 0.0
C354 C 0.29326 0.56554 0.29272 0.0
C355 C 0.25652 0.55411 0.22893 0.0
C356 C 0.20602 0.51581 0.27429 0.0
C357 C 0.24544 0.52318 0.33728 0.0
N358 N 0.32857 0.55188 0.40872 0.0
N359 N 0.18242 0.51158 0.16034 0.0
C360 C 0.28942 0.54758 0.34726 0.0
C361 C 0.21416 0.52737 0.22001 0.0
N362 N 0.33251 0.59274 0.30138 0.0
N363 N 0.16039 0.49805 0.26639 0.0
H364 H 0.18503 0.51956 0.11827 0.0
H365 H 0.15572 0.48767 0.15314 0.0
H366 H 0.15336 0.48894 0.30544 0.0
H367 H 0.12777 0.49615 0.22168 0.0
H368 H 0.35611 0.6066 0.3457 0.0
H369 H 0.3406 0.60297 0.26378 0.0
H370 H 0.36463 0.56453 0.41891 0.0
H371 H 0.32608 0.54054 0.44994 0.0
C372 C 0.22385 0.48539 0.79772 0.0
C373 C 0.26623 0.50973 0.8408 0.0
C374 C 0.31391 0.49431 0.77769 0.0
C375 C 0.2726 0.46812 0.73666 0.0
N376 N 0.19325 0.43137 0.71542 0.0
N377 N 0.35517 0.53147 0.88006 0.0
C378 C 0.22921 0.4612 0.74925 0.0
C379 C 0.31238 0.51254 0.83319 0.0
N380 N 0.17775 0.48678 0.80147 0.0
N381 N 0.35438 0.50197 0.76333 0.0
H382 H 0.35535 0.54543 0.92121 0.0
H383 H 0.39163 0.53053 0.88097 0.0
H384 H 0.35856 0.48698 0.7256 0.0
H385 H 0.38247 0.52472 0.78661 0.0
H386 H 0.14363 0.47377 0.7666 0.0
H387 H 0.1723 0.5042 0.83642 0.0
H388 H 0.16412 0.42183 0.72761 0.0
H389 H 0.195 0.41318 0.67882 0.0
C390 C 0.81449 0.4587 0.71003 0.0
C391 C 0.7767 0.47075 0.73094 0.0
C392 C 0.73695 0.51997 0.63874 0.0
C393 C 0.77414 0.50735 0.61741 0.0
N394 N 0.84156 0.45934 0.62397 0.0
N395 N 0.69564 0.50537 0.70844 0.0
C396 C 0.81067 0.47486 0.65024 0.0
C397 C 0.73602 0.49924 0.69325 0.0
N398 N 0.85574 0.43377 0.74892 0.0
N399 N 0.70349 0.55258 0.60791 0.0
H400 H 0.69348 0.49031 0.7476 0.0
H401 H 0.66211 0.52224 0.67917 0.0
H402 H 0.70163 0.5673 0.56619 0.0
H403 H 0.67967 0.56675 0.62564 0.0
H404 H 0.88792 0.42852 0.74043 0.0
H405 H 0.85996 0.42051 0.79254 0.0
H406 H 0.86482 0.43247 0.64144 0.0
H407 H 0.84086 0.47125 0.58118 0.0
C408 C 0.54311 0.99549 0.44468 0.0
C409 C 0.56326 0.97363 0.50501 0.0
C410 C 0.50366 1.01253 0.53588 0.0
C411 C 0.48281 0.03365 0.47499 0.0
N412 N 0.47615 0.04187 0.36772 0.0
N413 N 0.56027 0.95695 0.60525 0.0
C414 C 0.50083 0.02419 0.42831 0.0
C415 C 0.54255 0.98077 0.54974 0.0
N416 N 0.56515 0.98898 0.40364 0.0
N417 N 0.48705 0.024 0.58082 0.0
H418 H 0.58932 0.93414 0.61663 0.0
H419 H 0.54453 0.95776 0.63813 0.0
H420 H 0.45847 0.04707 0.57133 0.0
H421 H 0.50314 1.01271 0.62837 0.0
H422 H 0.55658 1.00697 0.36206 0.0
H423 H 0.59412 0.96632 0.41284 0.0
H424 H 0.48365 0.0337 0.32891 0.0
H425 H 0.4453 0.0631 0.35507 0.0
C426 C 0.50471 0.99264 0.91488 0.0
C427 C 0.48601 0.98811 0.96216 0.0
C428 C 0.54379 0.04435 0.02725 0.0
C429 C 0.56066 0.05034 0.97836 0.0
N430 N 0.55458 0.03425 0.8734 0.0
N431 N 0.48302 1.01109 0.05985 0.0
C432 C 0.5404 0.02544 0.92152 0.0
C433 C 0.50413 0.01457 0.01727 0.0
N434 N 0.48823 0.96529 0.86393 0.0
N435 N 0.56757 0.0657 0.08449 0.0
H436 H 0.45643 0.98767 0.05599 0.0
H437 H 0.48962 0.03244 0.09697 0.0
H438 H 0.59726 0.08724 0.09389 0.0
H439 H 0.56115 0.05977 0.12487 0.0
H440 H 0.50311 0.96408 0.8302 0.0
H441 H 0.46112 0.94184 0.85739 0.0
H442 H 0.53867 0.01988 0.82814 0.0
H443 H 0.58039 0.05839 0.87738 0.0
C444 C 1.00758 0.534 0.44229 0.0
C445 C 0.98888 0.54083 0.48945 0.0
C446 C 0.0439 0.48217 0.55528 0.0
C447 C 0.06524 0.47784 0.51076 0.0
N448 N 0.07436 0.50343 0.41787 0.0
N449 N 0.9941 0.5256 0.59476 0.0
C450 C 0.04902 0.50489 0.45595 0.0
C451 C 1.00823 0.51583 0.54699 0.0
N452 N 0.98424 0.55383 0.38318 0.0
N453 N 0.05772 0.45371 0.60514 0.0
H454 H 0.96907 0.55068 0.59047 0.0
H455 H 1.01013 0.51127 0.64043 0.0
H456 H 0.08413 0.4292 0.61204 0.0
H457 H 0.04059 0.45242 0.63656 0.0
H458 H 0.99268 0.54692 0.34464 0.0
H459 H 0.95234 0.57393 0.36967 0.0
H460 H 0.0689 0.52566 0.38181 0.0
H461 H 0.10402 0.48175 0.4257 0.0
C462 C 0.04679 0.52366 0.92678 0.0
C463 C 0.06726 0.54628 0.98598 0.0
C464 C 1.00704 0.51011 0.01837 0.0
C465 C 0.98962 0.48512 0.96172 0.0
N466 N 0.99476 0.46462 0.86447 0.0
N467 N 0.07359 0.55605 0.09323 0.0
C468 C 1.01008 0.49097 0.91652 0.0
C469 C 0.04906 0.53828 0.03315 0.0
N470 N 0.06161 0.53447 0.87993 0.0
N471 N 0.98233 0.50761 0.05708 0.0
H472 H 0.10556 0.57572 0.10664 0.0
H473 H 0.06557 0.54822 0.13186 0.0
H474 H 0.95178 0.48694 0.04782 0.0
H475 H 0.98917 0.52823 0.09517 0.0
H476 H 0.04532 0.5219 0.83337 0.0
H477 H 0.088 0.55859 0.88632 0.0
H478 H 1.01108 0.46437 0.83216 0.0
H479 H 0.96761 0.44082 0.85614 0.0
C480 C 0.0504 0.15345 0.24177 0.0
C481 C 0.07858 0.11674 0.2417 0.0
C482 C 0.9985 0.08417 0.16355 0.0
C483 C 0.97008 0.11596 0.17675 0.0
N484 N 0.96668 0.18311 0.22262 0.0
N485 N 0.08045 0.04678 0.20265 0.0
C486 C 0.99532 0.15207 0.21254 0.0
C487 C 0.05309 0.0825 0.20068 0.0
N488 N 0.07699 0.18849 0.273 0.0
N489 N 0.97239 0.05442 0.1181 0.0
H490 H 0.12021 0.04445 0.23164 0.0
H491 H 0.06352 0.01887 0.17917 0.0
H492 H 0.93204 0.05536 0.09172 0.0
H493 H 0.99063 0.03164 0.10267 0.0
H494 H 0.0595 0.21746 0.27254 0.0
H495 H 0.11744 0.18901 0.29513 0.0
H496 H 0.98265 0.20848 0.25368 0.0
H497 H 0.92628 0.18248 0.20092 0.0
C498 C 0.06277 0.90934 0.69951 0.0
C499 C 0.08391 0.90117 0.7671 0.0
C500 C 0.99687 0.89257 0.75923 0.0
C501 C 0.97563 0.90435 0.69275 0.0
N502 N 0.98597 0.91007 0.59528 0.0
N503 N 0.07371 0.8711 0.85632 0.0
C504 C 1.00813 0.90744 0.66143 0.0
C505 C 0.05146 0.88729 0.79472 0.0
N506 N 0.09435 0.92226 0.67297 0.0
N507 N 0.96569 0.89025 0.78973 0.0
H508 H 0.1139 0.86796 0.88268 0.0
H509 H 0.05269 0.85746 0.87842 0.0
H510 H 0.92564 0.89432 0.76543 0.0
H511 H 0.97975 0.88663 0.83977 0.0
H512 H 0.08071 0.9337 0.62562 0.0
H513 H 0.13453 0.92309 0.69943 0.0
H514 H 1.00707 0.90954 0.56841 0.0
H515 H 0.94581 0.90883 0.56737 0.0
C516 C 0.5025 0.60617 0.2931 0.0
C517 C 0.47475 0.62349 0.22991 0.0
C518 C 0.55575 0.65172 0.23571 0.0
C519 C 0.5838 0.6262 0.29104 0.0
N520 N 0.58598 0.58218 0.37728 0.0
N521 N 0.47386 0.66371 0.14063 0.0
C522 C 0.55774 0.60537 0.32243 0.0
C523 C 0.50092 0.6479 0.20201 0.0
N524 N 0.47536 0.58862 0.32279 0.0
N525 N 0.58247 0.67765 0.21396 0.0
H526 H 0.43393 0.66014 0.11461 0.0
H527 H 0.49098 0.67818 0.11433 0.0
H528 H 0.62284 0.67965 0.23822 0.0
H529 H 0.56483 0.69941 0.1762 0.0
H530 H 0.4923 0.57722 0.37034 0.0
H531 H 0.4349 0.58854 0.30049 0.0
H532 H 0.56978 0.56246 0.39957 0.0
H533 H 0.62644 0.58203 0.3996 0.0
C534 C 0.55116 0.41119 0.80832 0.0
C535 C 0.58298 0.41656 0.77638 0.0
C536 C 0.50689 0.40855 0.6721 0.0
C537 C 0.47467 0.4144 0.70337 0.0
N538 N 0.46576 0.42152 0.80228 0.0
N539 N 0.59125 0.42099 0.67662 0.0
C540 C 0.49651 0.41464 0.772 0.0
C541 C 0.56117 0.41426 0.70782 0.0
N542 N 0.57379 0.40382 0.8737 0.0
N543 N 0.48484 0.39881 0.60767 0.0
H544 H 0.63102 0.42599 0.70107 0.0
H545 H 0.57615 0.42445 0.6264 0.0
H546 H 0.44494 0.39437 0.58129 0.0
H547 H 0.50628 0.39107 0.58268 0.0
H548 H 0.55286 0.39655 0.89949 0.0
H549 H 0.61395 0.40082 0.90055 0.0
H550 H 0.4804 0.42688 0.85197 0.0
H551 H 0.42562 0.42451 0.77717 0.0
C552 C 0.25504 0.28563 0.46005 0.0
C553 C 0.28457 0.29821 0.52541 0.0
C554 C 0.31058 0.22459 0.55837 0.0
C555 C 0.28009 0.21176 0.49331 0.0
N556 N 0.21614 0.22831 0.38429 0.0
N557 N 0.33152 0.27991 0.63876 0.0
C558 C 0.25033 0.24182 0.44462 0.0
C559 C 0.30969 0.26768 0.57517 0.0
N560 N 0.23262 0.31563 0.41252 0.0
N561 N 0.34193 0.19585 0.60358 0.0
H562 H 0.331 0.31118 0.65269 0.0
H563 H 0.34584 0.25883 0.67784 0.0
H564 H 0.34324 0.16395 0.59332 0.0
H565 H 0.36957 0.20398 0.64986 0.0
H566 H 0.21645 0.30918 0.36306 0.0
H567 H 0.2322 0.34765 0.42257 0.0
H568 H 0.18913 0.24796 0.3488 0.0
H569 H 0.21195 0.19659 0.37095 0.0
C570 C 0.79945 0.2921 0.02356 0.0
C571 C 0.77673 0.30504 0.95749 0.0
C572 C 0.75388 0.23173 0.92301 0.0
C573 C 0.7784 0.21828 -0.01094 0.0
N574 N 0.83214 0.23467 0.10191 0.0
N575 N 0.74217 0.28725 0.84434 0.0
C576 C 0.80325 0.24821 0.03936 0.0
C577 C 0.75716 0.27477 0.90726 0.0
N578 N 0.81644 0.32189 0.07125 0.0
N579 N 0.72492 0.20387 0.87553 0.0
H580 H 0.74403 0.31859 0.83124 0.0
H581 H 0.7326 0.26622 0.80607 0.0
H582 H 0.72026 0.17234 0.88497 0.0
H583 H 0.70149 0.21277 0.82755 0.0
H584 H 0.82673 0.31527 0.11989 0.0
H585 H 0.81821 0.35388 0.06161 0.0
H586 H 0.85629 0.25426 0.13926 0.0
H587 H 0.83509 0.20311 0.11609 0.0
C588 C 0.77733 0.75772 0.42047 0.0
C589 C 0.79167 0.72735 0.47129 0.0
C590 C 0.76638 0.77681 0.53443 0.0
C591 C 0.75721 0.80884 0.48668 0.0
N592 N 0.7623 0.83149 0.38898 0.0
N593 N 0.8034 0.70816 0.57865 0.0
C594 C 0.76431 0.79965 0.43054 0.0
C595 C 0.78729 0.73702 0.52887 0.0
N596 N 0.77672 0.74672 0.36263 0.0
N597 N 0.75297 0.78362 0.58376 0.0
H598 H 0.81465 0.67737 0.57466 0.0
H599 H 0.80835 0.71532 0.62523 0.0
H600 H 0.73795 0.8121 0.59052 0.0
H601 H 0.75254 0.75997 0.61514 0.0
H602 H 0.76014 0.76558 0.321 0.0
H603 H 0.78947 0.71745 0.35451 0.0
H604 H 0.77351 0.82774 0.35202 0.0
H605 H 0.75401 0.86282 0.39452 0.0
C606 C 0.2357 0.78148 0.94801 0.0
C607 C 0.27793 0.80953 0.97905 0.0
C608 C 0.33057 0.75129 0.04895 0.0
C609 C 0.28874 0.72297 0.01735 0.0
N610 N 0.19773 0.71302 0.94478 0.0
N611 N 0.36894 0.81933 0.05077 0.0
C612 C 0.2402 0.7386 0.96931 0.0
C613 C 0.32635 0.79391 0.02691 0.0
N614 N 0.19257 0.79496 0.89431 0.0
N615 N 0.37284 0.73843 0.10403 0.0
H616 H 0.36789 0.85119 0.03928 0.0
H617 H 0.40656 0.8081 0.07817 0.0
H618 H 0.37598 0.7085 0.12432 0.0
H619 H 0.40206 0.75855 0.13407 0.0
H620 H 0.16315 0.7751 0.86403 0.0
H621 H 0.18818 0.82551 0.87555 0.0
H622 H 0.16001 0.72416 0.91784 0.0
H623 H 0.19873 0.68095 0.95482 0.0
loop_
_geom_bond_atom_site_label_1
_geom_bond_atom_site_label_2
_geom_bond_distance
_geom_bond_site_symmetry_2
_ccdc_geom_bond_type
Co0 N4 2.148 . S
Co0 N10 2.128 . S
Co0 N20 2.194 . S
Co0 O25 2.351 . S
Co0 O26 2.155 . S
Co0 O27 2.096 . S
C1 N4 1.301 . S
C1 N5 1.328 . S
C1 H6 0.930 . S
C2 C3 1.333 . S
C2 N4 1.317 . S
C2 H7 0.930 . S
C3 C2 1.333 . S
C3 N5 1.350 . S
C3 H29 0.931 . S
N4 Co0 2.148 . S
N4 C1 1.301 . S
N4 C2 1.317 . S
N5 C1 1.328 . S
N5 C3 1.350 . S
H6 C1 0.930 . S
H7 C2 0.930 . S
C8 O9 1.224 . S
C8 O27 1.247 . S
O9 C8 1.224 . S
N10 Co0 2.128 . S
N10 C11 1.355 . S
N10 C13 1.311 . S
C11 N10 1.355 . S
C11 C12 1.363 . S
C11 H23 0.929 . S
C12 C11 1.363 . S
C12 N14 1.375 . S
C12 H30 0.931 . S
C13 N10 1.311 . S
C13 N14 1.347 . S
C13 H24 0.929 . S
N14 C12 1.375 . S
N14 C13 1.347 . S
C15 C18 1.365 1_545 S
C15 N20 1.328 . S
C15 H21 0.929 1_545 S
C16 C17 1.362 . S
C16 C19 1.378 . S
C16 H31 0.929 . S
C17 C16 1.362 . S
C17 C18 1.366 1_545 S
C18 C15 1.365 1_565 S
C18 C17 1.366 1_565 S
C18 H32 0.930 . S
C19 C16 1.378 . S
C19 N20 1.315 . S
C19 H22 0.930 . S
N20 Co0 2.194 . S
N20 C15 1.328 . S
N20 C19 1.315 . S
H21 C15 0.929 1_565 S
H22 C19 0.930 . S
H23 C11 0.929 . S
H24 C13 0.929 . S
O25 Co0 2.351 . S
O25 C28 1.244 . S
O26 Co0 2.155 . S
O26 C28 1.240 . S
O27 Co0 2.096 . S
O27 C8 1.247 . S
C28 O25 1.244 . S
C28 O26 1.240 . S
H29 C3 0.931 . S
H30 C12 0.931 . S
H31 C16 0.929 . S
H32 C18 0.930 . S
Co33 N37 2.148 . S
Co33 N43 2.128 . S
Co33 N53 2.199 . S
Co33 O58 2.351 . S
Co33 O59 2.155 . S
Co33 O60 2.096 . S
C34 N37 1.301 . S
C34 N38 1.329 . S
C34 H39 0.930 . S
C35 C36 1.333 1_554 S
C35 N37 1.317 . S
C35 H40 0.930 . S
C36 C35 1.333 1_556 S
C36 N38 1.350 1_556 S
C36 H62 0.931 . S
N37 Co33 2.148 . S
N37 C34 1.301 . S
N37 C35 1.317 . S
N38 C34 1.329 . S
N38 C36 1.350 1_554 S
H39 C34 0.930 . S
H40 C35 0.930 . S
C41 O42 1.224 . S
C41 O60 1.247 . S
O42 C41 1.224 . S
N43 Co33 2.128 . S
N43 C44 1.355 . S
N43 C46 1.311 . S
C44 N43 1.355 . S
C44 C45 1.363 . S
C44 H56 0.929 . S
C45 C44 1.363 . S
C45 N47 1.375 . S
C45 H63 0.931 . S
C46 N43 1.311 . S
C46 N47 1.347 . S
C46 H57 0.929 . S
N47 C45 1.375 . S
N47 C46 1.347 . S
C48 C51 1.365 1_545 S
C48 N53 1.328 1_556 S
C48 H54 0.929 1_546 S
C49 C50 1.362 . S
C49 C52 1.378 . S
C49 H64 0.929 . S
C50 C49 1.362 . S
C50 C51 1.366 1_545 S
C51 C48 1.365 1_565 S
C51 C50 1.366 1_565 S
C51 H65 0.930 . S
C52 C49 1.378 . S
C52 N53 1.309 1_556 S
C52 H55 0.930 . S
N53 Co33 2.199 . S
N53 C48 1.328 1_554 S
N53 C52 1.309 1_554 S
H54 C48 0.929 1_564 S
H55 C52 0.930 . S
H56 C44 0.929 . S
H57 C46 0.929 . S
O58 Co33 2.351 . S
O58 C61 1.244 . S
O59 Co33 2.155 . S
O59 C61 1.240 . S
O60 Co33 2.096 . S
O60 C41 1.247 . S
C61 O58 1.244 . S
C61 O59 1.240 . S
H62 C36 0.931 . S
H63 C45 0.931 . S
H64 C49 0.929 . S
H65 C51 0.930 . S
Co66 N70 2.148 . S
Co66 N76 2.128 . S
Co66 N86 2.194 . S
Co66 O91 2.351 . S
Co66 O92 2.155 . S
Co66 O93 2.096 . S
C67 N70 1.301 . S
C67 N71 1.328 . S
C67 H72 0.930 . S
C68 C69 1.333 . S
C68 N70 1.317 . S
C68 H73 0.930 . S
C69 C68 1.333 . S
C69 N71 1.350 . S
C69 H95 0.931 . S
N70 Co66 2.148 . S
N70 C67 1.301 . S
N70 C68 1.317 . S
N71 C67 1.328 . S
N71 C69 1.350 . S
H72 C67 0.930 . S
H73 C68 0.930 . S
C74 O75 1.224 . S
C74 O93 1.247 . S
O75 C74 1.224 . S
N76 Co66 2.128 . S
N76 C77 1.355 . S
N76 C79 1.311 . S
C77 N76 1.355 . S
C77 C78 1.363 . S
C77 H89 0.929 . S
C78 C77 1.363 . S
C78 N80 1.375 . S
C78 H96 0.931 . S
C79 N76 1.311 . S
C79 N80 1.347 . S
C79 H90 0.929 . S
N80 C78 1.375 . S
N80 C79 1.347 . S
C81 C84 1.365 1_565 S
C81 N86 1.328 . S
C81 H87 0.929 1_565 S
C82 C83 1.362 . S
C82 C85 1.378 . S
C82 H97 0.929 . S
C83 C82 1.362 . S
C83 C84 1.366 1_565 S
C84 C81 1.365 1_545 S
C84 C83 1.366 1_545 S
C84 H98 0.930 . S
C85 C82 1.378 . S
C85 N86 1.315 . S
C85 H88 0.930 . S
N86 Co66 2.194 . S
N86 C81 1.328 . S
N86 C85 1.315 . S
H87 C81 0.929 1_545 S
H88 C85 0.930 . S
H89 C77 0.929 . S
H90 C79 0.929 . S
O91 Co66 2.351 . S
O91 C94 1.244 . S
O92 Co66 2.155 . S
O92 C94 1.240 . S
O93 Co66 2.096 . S
O93 C74 1.247 . S
C94 O91 1.244 . S
C94 O92 1.240 . S
H95 C69 0.931 . S
H96 C78 0.931 . S
H97 C82 0.929 . S
H98 C84 0.930 . S
Co99 N103 2.148 . S
Co99 N109 2.128 . S
Co99 N119 2.199 . S
Co99 O124 2.351 . S
Co99 O125 2.155 . S
Co99 O126 2.096 . S
C100 N103 1.301 . S
C100 N104 1.329 . S
C100 H105 0.930 . S
C101 C102 1.333 1_556 S
C101 N103 1.317 . S
C101 H106 0.930 . S
C102 C101 1.333 1_554 S
C102 N104 1.350 1_554 S
C102 H128 0.931 . S
N103 Co99 2.148 . S
N103 C100 1.301 . S
N103 C101 1.317 . S
N104 C100 1.329 . S
N104 C102 1.350 1_556 S
H105 C100 0.930 . S
H106 C101 0.930 . S
C107 O108 1.224 . S
C107 O126 1.247 . S
O108 C107 1.224 . S
N109 Co99 2.128 . S
N109 C110 1.355 . S
N109 C112 1.311 . S
C110 N109 1.355 . S
C110 C111 1.363 . S
C110 H122 0.929 . S
C111 C110 1.363 . S
C111 N113 1.375 . S
C111 H129 0.931 . S
C112 N109 1.311 . S
C112 N113 1.347 . S
C112 H123 0.929 . S
N113 C111 1.375 . S
N113 C112 1.347 . S
C114 C117 1.365 1_565 S
C114 N119 1.328 1_554 S
C114 H120 0.929 1_564 S
C115 C116 1.362 . S
C115 C118 1.378 . S
C115 H130 0.929 . S
C116 C115 1.362 . S
C116 C117 1.366 1_565 S
C117 C114 1.365 1_545 S
C117 C116 1.366 1_545 S
C117 H131 0.930 . S
C118 C115 1.378 . S
C118 N119 1.309 1_554 S
C118 H121 0.930 . S
N119 Co99 2.199 . S
N119 C114 1.328 1_556 S
N119 C118 1.309 1_556 S
H120 C114 0.929 1_546 S
H121 C118 0.930 . S
H122 C110 0.929 . S
H123 C112 0.929 . S
O124 Co99 2.351 . S
O124 C127 1.244 . S
O125 Co99 2.155 . S
O125 C127 1.240 . S
O126 Co99 2.096 . S
O126 C107 1.247 . S
C127 O124 1.244 . S
C127 O125 1.240 . S
H128 C102 0.931 . S
H129 C111 0.931 . S
H130 C115 0.929 . S
H131 C117 0.930 . S
Co132 N136 2.148 . S
Co132 N142 2.128 . S
Co132 N152 2.194 . S
Co132 O157 2.351 . S
Co132 O158 2.155 . S
Co132 O159 2.096 . S
C133 N136 1.301 . S
C133 N137 1.328 . S
C133 H138 0.930 . S
C134 C135 1.333 . S
C134 N136 1.317 . S
C134 H139 0.930 . S
C135 C134 1.333 . S
C135 N137 1.350 . S
C135 H161 0.931 . S
N136 Co132 2.148 . S
N136 C133 1.301 . S
N136 C134 1.317 . S
N137 C133 1.328 . S
N137 C135 1.350 . S
H138 C133 0.930 . S
H139 C134 0.930 . S
C140 O141 1.224 . S
C140 O159 1.247 . S
O141 C140 1.224 . S
N142 Co132 2.128 . S
N142 C143 1.355 . S
N142 C145 1.311 . S
C143 N142 1.355 . S
C143 C144 1.363 . S
C143 H155 0.929 . S
C144 C143 1.363 . S
C144 N146 1.375 . S
C144 H162 0.931 . S
C145 N142 1.311 . S
C145 N146 1.347 . S
C145 H156 0.929 . S
N146 C144 1.375 . S
N146 C145 1.347 . S
C147 C150 1.365 . S
C147 N152 1.328 . S
C147 H153 0.929 . S
C148 C149 1.362 . S
C148 C151 1.378 . S
C148 H163 0.929 . S
C149 C148 1.362 . S
C149 C150 1.366 . S
C150 C147 1.365 . S
C150 C149 1.366 . S
C150 H164 0.930 . S
C151 C148 1.378 . S
C151 N152 1.315 . S
C151 H154 0.930 . S
N152 Co132 2.194 . S
N152 C147 1.328 . S
N152 C151 1.315 . S
H153 C147 0.929 . S
H154 C151 0.930 . S
H155 C143 0.929 . S
H156 C145 0.929 . S
O157 Co132 2.351 . S
O157 C160 1.244 . S
O158 Co132 2.155 . S
O158 C160 1.240 . S
O159 Co132 2.096 . S
O159 C140 1.247 . S
C160 O157 1.244 . S
C160 O158 1.240 . S
H161 C135 0.931 . S
H162 C144 0.931 . S
H163 C148 0.929 . S
H164 C150 0.930 . S
Co165 N169 2.148 . S
Co165 N175 2.128 . S
Co165 N185 2.199 . S
Co165 O190 2.351 . S
Co165 O191 2.155 . S
Co165 O192 2.096 . S
C166 N169 1.301 . S
C166 N170 1.329 . S
C166 H171 0.930 . S
C167 C168 1.333 1_554 S
C167 N169 1.317 . S
C167 H172 0.930 . S
C168 C167 1.333 1_556 S
C168 N170 1.350 1_556 S
C168 H194 0.931 . S
N169 Co165 2.148 . S
N169 C166 1.301 . S
N169 C167 1.317 . S
N170 C166 1.329 . S
N170 C168 1.350 1_554 S
H171 C166 0.930 . S
H172 C167 0.930 . S
C173 O174 1.224 . S
C173 O192 1.247 . S
O174 C173 1.224 . S
N175 Co165 2.128 . S
N175 C176 1.355 . S
N175 C178 1.311 . S
C176 N175 1.355 . S
C176 C177 1.363 . S
C176 H188 0.929 . S
C177 C176 1.363 . S
C177 N179 1.375 . S
C177 H195 0.931 . S
C178 N175 1.311 . S
C178 N179 1.347 . S
C178 H189 0.929 . S
N179 C177 1.375 . S
N179 C178 1.347 . S
C180 C183 1.365 . S
C180 N185 1.328 1_556 S
C180 H186 0.929 1_556 S
C181 C182 1.362 . S
C181 C184 1.378 . S
C181 H196 0.929 . S
C182 C181 1.362 . S
C182 C183 1.366 . S
C183 C180 1.365 . S
C183 C182 1.366 . S
C183 H197 0.930 . S
C184 C181 1.378 . S
C184 N185 1.309 1_556 S
C184 H187 0.930 . S
N185 Co165 2.199 . S
N185 C180 1.328 1_554 S
N185 C184 1.309 1_554 S
H186 C180 0.929 1_554 S
H187 C184 0.930 . S
H188 C176 0.929 . S
H189 C178 0.929 . S
O190 Co165 2.351 . S
O190 C193 1.244 . S
O191 Co165 2.155 . S
O191 C193 1.240 . S
O192 Co165 2.096 . S
O192 C173 1.247 . S
C193 O190 1.244 . S
C193 O191 1.240 . S
H194 C168 0.931 . S
H195 C177 0.931 . S
H196 C181 0.929 . S
H197 C183 0.930 . S
Co198 N202 2.148 . S
Co198 N208 2.128 . S
Co198 N218 2.194 . S
Co198 O223 2.351 . S
Co198 O224 2.155 . S
Co198 O225 2.096 . S
C199 N202 1.301 . S
C199 N203 1.328 . S
C199 H204 0.930 . S
C200 C201 1.333 . S
C200 N202 1.317 . S
C200 H205 0.930 . S
C201 C200 1.333 . S
C201 N203 1.350 . S
C201 H227 0.931 . S
N202 Co198 2.148 . S
N202 C199 1.301 . S
N202 C200 1.317 . S
N203 C199 1.328 . S
N203 C201 1.350 . S
H204 C199 0.930 . S
H205 C200 0.930 . S
C206 O207 1.224 . S
C206 O225 1.247 . S
O207 C206 1.224 . S
N208 Co198 2.128 . S
N208 C209 1.355 . S
N208 C211 1.311 . S
C209 N208 1.355 . S
C209 C210 1.363 . S
C209 H221 0.929 . S
C210 C209 1.363 . S
C210 N212 1.375 . S
C210 H228 0.931 . S
C211 N208 1.311 . S
C211 N212 1.347 . S
C211 H222 0.929 . S
N212 C210 1.375 . S
N212 C211 1.347 . S
C213 C216 1.365 . S
C213 N218 1.328 . S
C213 H219 0.929 . S
C214 C215 1.362 . S
C214 C217 1.378 . S
C214 H229 0.929 . S
C215 C214 1.362 . S
C215 C216 1.366 . S
C216 C213 1.365 . S
C216 C215 1.366 . S
C216 H230 0.930 . S
C217 C214 1.378 . S
C217 N218 1.315 . S
C217 H220 0.930 . S
N218 Co198 2.194 . S
N218 C213 1.328 . S
N218 C217 1.315 . S
H219 C213 0.929 . S
H220 C217 0.930 . S
H221 C209 0.929 . S
H222 C211 0.929 . S
O223 Co198 2.351 . S
O223 C226 1.244 . S
O224 Co198 2.155 . S
O224 C226 1.240 . S
O225 Co198 2.096 . S
O225 C206 1.247 . S
C226 O223 1.244 . S
C226 O224 1.240 . S
H227 C201 0.931 . S
H228 C210 0.931 . S
H229 C214 0.929 . S
H230 C216 0.930 . S
Co231 N235 2.148 . S
Co231 N241 2.128 . S
Co231 N251 2.199 . S
Co231 O256 2.351 . S
Co231 O257 2.155 . S
Co231 O258 2.096 . S
C232 N235 1.301 . S
C232 N236 1.329 . S
C232 H237 0.930 . S
C233 C234 1.333 1_556 S
C233 N235 1.317 . S
C233 H238 0.930 . S
C234 C233 1.333 1_554 S
C234 N236 1.350 1_554 S
C234 H260 0.931 . S
N235 Co231 2.148 . S
N235 C232 1.301 . S
N235 C233 1.317 . S
N236 C232 1.329 . S
N236 C234 1.350 1_556 S
H237 C232 0.930 . S
H238 C233 0.930 . S
C239 O240 1.224 . S
C239 O258 1.247 . S
O240 C239 1.224 . S
N241 Co231 2.128 . S
N241 C242 1.355 . S
N241 C244 1.311 . S
C242 N241 1.355 . S
C242 C243 1.363 . S
C242 H254 0.929 . S
C243 C242 1.363 . S
C243 N245 1.375 . S
C243 H261 0.931 . S
C244 N241 1.311 . S
C244 N245 1.347 . S
C244 H255 0.929 . S
N245 C243 1.375 . S
N245 C244 1.347 . S
C246 C249 1.365 . S
C246 N251 1.328 1_554 S
C246 H252 0.929 1_554 S
C247 C248 1.362 . S
C247 C250 1.378 . S
C247 H262 0.929 . S
C248 C247 1.362 . S
C248 C249 1.366 . S
C249 C246 1.365 . S
C249 C248 1.366 . S
C249 H263 0.930 . S
C250 C247 1.378 . S
C250 N251 1.309 1_554 S
C250 H253 0.930 . S
N251 Co231 2.199 . S
N251 C246 1.328 1_556 S
N251 C250 1.309 1_556 S
H252 C246 0.929 1_556 S
H253 C250 0.930 . S
H254 C242 0.929 . S
H255 C244 0.929 . S
O256 Co231 2.351 . S
O256 C259 1.244 . S
O257 Co231 2.155 . S
O257 C259 1.240 . S
O258 Co231 2.096 . S
O258 C239 1.247 . S
C259 O256 1.244 . S
C259 O257 1.240 . S
H260 C234 0.931 . S
H261 C243 0.931 . S
H262 C247 0.929 . S
H263 C249 0.930 . S
C264 C265 1.363 . S
C264 C270 1.379 . S
C264 N272 1.356 . S
C265 C264 1.363 . S
C265 C271 1.363 1_545 S
C266 C267 1.363 1_565 S
C266 C271 1.379 . S
C266 N273 1.356 . S
C267 C266 1.363 1_545 S
C267 C270 1.363 . S
N268 C270 1.356 . S
N268 H280 0.984 . S
N268 H281 0.985 . S
N269 C271 1.356 . S
N269 H274 0.984 . S
N269 H275 0.985 . S
C270 C264 1.379 . S
C270 C267 1.363 . S
C270 N268 1.356 . S
C271 C265 1.363 1_565 S
C271 C266 1.379 . S
C271 N269 1.356 . S
N272 C264 1.356 . S
N272 H278 0.984 . S
N272 H279 0.984 . S
N273 C266 1.356 . S
N273 H276 0.984 . S
N273 H277 0.985 . S
H274 N269 0.984 . S
H275 N269 0.985 . S
H276 N273 0.984 . S
H277 N273 0.985 . S
H278 N272 0.984 . S
H279 N272 0.984 . S
H280 N268 0.984 . S
H281 N268 0.985 . S
C282 C283 1.363 1_565 S
C282 C288 1.379 . S
C282 N290 1.356 . S
C283 C282 1.363 1_545 S
C283 C289 1.363 . S
C284 C285 1.363 . S
C284 C289 1.379 . S
C284 N291 1.356 . S
C285 C284 1.363 . S
C285 C288 1.363 1_545 S
N286 C288 1.356 . S
N286 H298 0.984 . S
N286 H299 0.985 . S
N287 C289 1.356 . S
N287 H292 0.984 . S
N287 H293 0.985 . S
C288 C282 1.379 . S
C288 C285 1.363 1_565 S
C288 N286 1.356 . S
C289 C283 1.363 . S
C289 C284 1.379 . S
C289 N287 1.356 . S
N290 C282 1.356 . S
N290 H296 0.984 . S
N290 H297 0.984 . S
N291 C284 1.356 . S
N291 H294 0.984 . S
N291 H295 0.985 . S
H292 N287 0.984 . S
H293 N287 0.985 . S
H294 N291 0.984 . S
H295 N291 0.985 . S
H296 N290 0.984 . S
H297 N290 0.984 . S
H298 N286 0.984 . S
H299 N286 0.985 . S
C300 C301 1.363 . S
C300 C306 1.379 . S
C300 N308 1.356 . S
C301 C300 1.363 . S
C301 C307 1.363 1_565 S
C302 C303 1.363 1_545 S
C302 C307 1.379 . S
C302 N309 1.356 . S
C303 C302 1.363 1_565 S
C303 C306 1.363 . S
N304 C306 1.356 . S
N304 H316 0.984 . S
N304 H317 0.985 . S
N305 C307 1.356 . S
N305 H310 0.984 . S
N305 H311 0.985 . S
C306 C300 1.379 . S
C306 C303 1.363 . S
C306 N304 1.356 . S
C307 C301 1.363 1_545 S
C307 C302 1.379 . S
C307 N305 1.356 . S
N308 C300 1.356 . S
N308 H314 0.984 . S
N308 H315 0.984 . S
N309 C302 1.356 . S
N309 H312 0.984 . S
N309 H313 0.985 . S
H310 N305 0.984 . S
H311 N305 0.985 . S
H312 N309 0.984 . S
H313 N309 0.985 . S
H314 N308 0.984 . S
H315 N308 0.984 . S
H316 N304 0.984 . S
H317 N304 0.985 . S
C318 C319 1.363 . S
C318 C324 1.379 . S
C318 N326 1.356 . S
C319 C318 1.363 . S
C319 C325 1.363 1_565 S
C320 C321 1.363 1_545 S
C320 C325 1.379 . S
C320 N327 1.356 . S
C321 C320 1.363 1_565 S
C321 C324 1.363 . S
N322 C324 1.356 . S
N322 H334 0.984 . S
N322 H335 0.985 . S
N323 C325 1.356 . S
N323 H328 0.984 . S
N323 H329 0.985 . S
C324 C318 1.379 . S
C324 C321 1.363 . S
C324 N322 1.356 . S
C325 C319 1.363 1_545 S
C325 C320 1.379 . S
C325 N323 1.356 . S
N326 C318 1.356 . S
N326 H332 0.984 . S
N326 H333 0.984 . S
N327 C320 1.356 . S
N327 H330 0.984 . S
N327 H331 0.985 . S
H328 N323 0.984 . S
H329 N323 0.985 . S
H330 N327 0.984 . S
H331 N327 0.985 . S
H332 N326 0.984 . S
H333 N326 0.984 . S
H334 N322 0.984 . S
H335 N322 0.985 . S
C336 C337 1.363 . S
C336 C342 1.379 . S
C336 N344 1.356 . S
C337 C336 1.363 . S
C337 C343 1.363 . S
C338 C339 1.363 . S
C338 C343 1.379 . S
C338 N345 1.356 . S
C339 C338 1.363 . S
C339 C342 1.363 . S
N340 C342 1.356 . S
N340 H352 0.984 . S
N340 H353 0.985 . S
N341 C343 1.356 . S
N341 H346 0.984 . S
N341 H347 0.985 . S
C342 C336 1.379 . S
C342 C339 1.363 . S
C342 N340 1.356 . S
C343 C337 1.363 . S
C343 C338 1.379 . S
C343 N341 1.356 . S
N344 C336 1.356 . S
N344 H350 0.984 . S
N344 H351 0.984 . S
N345 C338 1.356 . S
N345 H348 0.984 . S
N345 H349 0.985 . S
H346 N341 0.984 . S
H347 N341 0.985 . S
H348 N345 0.984 . S
H349 N345 0.985 . S
H350 N344 0.984 . S
H351 N344 0.984 . S
H352 N340 0.984 . S
H353 N340 0.985 . S
C354 C355 1.363 . S
C354 C360 1.379 . S
C354 N362 1.356 . S
C355 C354 1.363 . S
C355 C361 1.363 . S
C356 C357 1.363 . S
C356 C361 1.379 . S
C356 N363 1.356 . S
C357 C356 1.363 . S
C357 C360 1.363 . S
N358 C360 1.356 . S
N358 H370 0.984 . S
N358 H371 0.985 . S
N359 C361 1.356 . S
N359 H364 0.984 . S
N359 H365 0.985 . S
C360 C354 1.379 . S
C360 C357 1.363 . S
C360 N358 1.356 . S
C361 C355 1.363 . S
C361 C356 1.379 . S
C361 N359 1.356 . S
N362 C354 1.356 . S
N362 H368 0.984 . S
N362 H369 0.984 . S
N363 C356 1.356 . S
N363 H366 0.984 . S
N363 H367 0.985 . S
H364 N359 0.984 . S
H365 N359 0.985 . S
H366 N363 0.984 . S
H367 N363 0.985 . S
H368 N362 0.984 . S
H369 N362 0.984 . S
H370 N358 0.984 . S
H371 N358 0.985 . S
C372 C373 1.363 . S
C372 C378 1.379 . S
C372 N380 1.356 . S
C373 C372 1.363 . S
C373 C379 1.363 . S
C374 C375 1.363 . S
C374 C379 1.379 . S
C374 N381 1.356 . S
C375 C374 1.363 . S
C375 C378 1.363 . S
N376 C378 1.356 . S
N376 H388 0.984 . S
N376 H389 0.985 . S
N377 C379 1.356 . S
N377 H382 0.984 . S
N377 H383 0.985 . S
C378 C372 1.379 . S
C378 C375 1.363 . S
C378 N376 1.356 . S
C379 C373 1.363 . S
C379 C374 1.379 . S
C379 N377 1.356 . S
N380 C372 1.356 . S
N380 H386 0.984 . S
N380 H387 0.984 . S
N381 C374 1.356 . S
N381 H384 0.984 . S
N381 H385 0.985 . S
H382 N377 0.984 . S
H383 N377 0.985 . S
H384 N381 0.984 . S
H385 N381 0.985 . S
H386 N380 0.984 . S
H387 N380 0.984 . S
H388 N376 0.984 . S
H389 N376 0.985 . S
C390 C391 1.363 . S
C390 C396 1.379 . S
C390 N398 1.356 . S
C391 C390 1.363 . S
C391 C397 1.363 . S
C392 C393 1.363 . S
C392 C397 1.379 . S
C392 N399 1.356 . S
C393 C392 1.363 . S
C393 C396 1.363 . S
N394 C396 1.356 . S
N394 H406 0.984 . S
N394 H407 0.985 . S
N395 C397 1.356 . S
N395 H400 0.984 . S
N395 H401 0.985 . S
C396 C390 1.379 . S
C396 C393 1.363 . S
C396 N394 1.356 . S
C397 C391 1.363 . S
C397 C392 1.379 . S
C397 N395 1.356 . S
N398 C390 1.356 . S
N398 H404 0.984 . S
N398 H405 0.984 . S
N399 C392 1.356 . S
N399 H402 0.984 . S
N399 H403 0.985 . S
H400 N395 0.984 . S
H401 N395 0.985 . S
H402 N399 0.984 . S
H403 N399 0.985 . S
H404 N398 0.984 . S
H405 N398 0.984 . S
H406 N394 0.984 . S
H407 N394 0.985 . S
C408 C409 1.363 1_545 S
C408 C414 1.379 . S
C408 N416 1.359 . S
C409 C408 1.363 1_565 S
C409 C415 1.363 . S
C410 C411 1.363 1_565 S
C410 C415 1.379 . S
C410 N417 1.359 . S
C411 C410 1.363 1_545 S
C411 C414 1.363 . S
N412 C414 1.356 . S
N412 H424 0.984 . S
N412 H425 0.985 . S
N413 C415 1.356 . S
N413 H418 0.984 . S
N413 H419 0.985 . S
C414 C408 1.379 . S
C414 C411 1.363 . S
C414 N412 1.356 . S
C415 C409 1.363 . S
C415 C410 1.379 . S
C415 N413 1.356 . S
N416 C408 1.359 . S
N416 H422 1.000 . S
N416 H423 0.966 1_545 S
N417 C410 1.359 . S
N417 H420 0.966 1_565 S
N417 H421 1.000 . S
H418 N413 0.984 . S
H419 N413 0.985 . S
H420 N417 0.966 1_545 S
H421 N417 1.000 . S
H422 N416 1.000 . S
H423 N416 0.966 1_565 S
H424 N412 0.984 . S
H425 N412 0.985 . S
C426 C427 1.363 1_556 S
C426 C432 1.379 . S
C426 N434 1.356 . S
C427 C426 1.363 1_554 S
C427 C433 1.363 1_565 S
C428 C429 1.363 1_554 S
C428 C433 1.379 . S
C428 N435 1.356 . S
C429 C428 1.363 1_556 S
C429 C432 1.363 1_545 S
N430 C432 1.356 1_545 S
N430 H442 0.984 1_545 S
N430 H443 0.985 . S
N431 C433 1.356 1_565 S
N431 H436 0.984 . S
N431 H437 0.985 1_565 S
C432 C426 1.379 . S
C432 C429 1.363 1_565 S
C432 N430 1.356 1_565 S
C433 C427 1.363 1_545 S
C433 C428 1.379 . S
C433 N431 1.356 1_545 S
N434 C426 1.356 . S
N434 H440 0.984 . S
N434 H441 0.984 . S
N435 C428 1.356 . S
N435 H438 0.984 . S
N435 H439 0.985 . S
H436 N431 0.984 . S
H437 N431 0.985 1_545 S
H438 N435 0.984 . S
H439 N435 0.985 . S
H440 N434 0.984 . S
H441 N434 0.984 . S
H442 N430 0.984 1_565 S
H443 N430 0.985 . S
C444 C445 1.363 . S
C444 C450 1.379 1_655 S
C444 N452 1.356 . S
C445 C444 1.363 . S
C445 C451 1.363 . S
C446 C447 1.363 . S
C446 C451 1.379 1_455 S
C446 N453 1.356 . S
C447 C446 1.363 . S
C447 C450 1.363 . S
N448 C450 1.356 . S
N448 H460 0.984 . S
N448 H461 0.985 . S
N449 C451 1.356 . S
N449 H454 0.984 . S
N449 H455 0.985 . S
C450 C444 1.379 1_455 S
C450 C447 1.363 . S
C450 N448 1.356 . S
C451 C445 1.363 . S
C451 C446 1.379 1_655 S
C451 N449 1.356 . S
N452 C444 1.356 . S
N452 H458 0.984 . S
N452 H459 0.984 . S
N453 C446 1.356 . S
N453 H456 0.984 . S
N453 H457 0.985 . S
H454 N449 0.984 . S
H455 N449 0.985 . S
H456 N453 0.984 . S
H457 N453 0.985 . S
H458 N452 0.984 . S
H459 N452 0.984 . S
H460 N448 0.984 . S
H461 N448 0.985 . S
C462 C463 1.363 1_655 S
C462 C468 1.379 . S
C462 N470 1.356 . S
C463 C462 1.363 1_455 S
C463 C469 1.363 1_556 S
C464 C465 1.363 1_455 S
C464 C469 1.379 . S
C464 N471 1.356 . S
C465 C464 1.363 1_655 S
C465 C468 1.363 1_554 S
N466 C468 1.356 . S
N466 H478 0.984 . S
N466 H479 0.985 . S
N467 C469 1.356 . S
N467 H472 0.984 . S
N467 H473 0.985 . S
C468 C462 1.379 . S
C468 C465 1.363 1_556 S
C468 N466 1.356 . S
C469 C463 1.363 1_554 S
C469 C464 1.379 . S
C469 N467 1.356 . S
N470 C462 1.356 . S
N470 H476 0.984 . S
N470 H477 0.984 1_655 S
N471 C464 1.356 . S
N471 H474 0.984 1_455 S
N471 H475 0.985 . S
H472 N467 0.984 . S
H473 N467 0.985 . S
H474 N471 0.984 1_655 S
H475 N471 0.985 . S
H476 N470 0.984 . S
H477 N470 0.984 1_455 S
H478 N466 0.984 . S
H479 N466 0.985 . S
C480 C481 1.363 . S
C480 C486 1.379 1_455 S
C480 N488 1.356 . S
C481 C480 1.363 . S
C481 C487 1.363 . S
C482 C483 1.363 . S
C482 C487 1.379 1_655 S
C482 N489 1.356 . S
C483 C482 1.363 . S
C483 C486 1.363 . S
N484 C486 1.356 . S
N484 H496 0.984 . S
N484 H497 0.985 . S
N485 C487 1.356 . S
N485 H490 0.984 . S
N485 H491 0.985 . S
C486 C480 1.379 1_655 S
C486 C483 1.363 . S
C486 N484 1.356 . S
C487 C481 1.363 . S
C487 C482 1.379 1_455 S
C487 N485 1.356 . S
N488 C480 1.356 . S
N488 H494 0.984 . S
N488 H495 0.984 . S
N489 C482 1.356 . S
N489 H492 0.984 . S
N489 H493 0.985 . S
H490 N485 0.984 . S
H491 N485 0.985 . S
H492 N489 0.984 . S
H493 N489 0.985 . S
H494 N488 0.984 . S
H495 N488 0.984 . S
H496 N484 0.984 . S
H497 N484 0.985 . S
C498 C499 1.363 . S
C498 C504 1.379 1_455 S
C498 N506 1.356 . S
C499 C498 1.363 . S
C499 C505 1.363 . S
C500 C501 1.363 . S
C500 C505 1.379 1_655 S
C500 N507 1.356 . S
C501 C500 1.363 . S
C501 C504 1.363 . S
N502 C504 1.356 . S
N502 H514 0.984 . S
N502 H515 0.985 . S
N503 C505 1.356 . S
N503 H508 0.984 . S
N503 H509 0.985 . S
C504 C498 1.379 1_655 S
C504 C501 1.363 . S
C504 N502 1.356 . S
C505 C499 1.363 . S
C505 C500 1.379 1_455 S
C505 N503 1.356 . S
N506 C498 1.356 . S
N506 H512 0.984 . S
N506 H513 0.984 . S
N507 C500 1.356 . S
N507 H510 0.984 . S
N507 H511 0.985 . S
H508 N503 0.984 . S
H509 N503 0.985 . S
H510 N507 0.984 . S
H511 N507 0.985 . S
H512 N506 0.984 . S
H513 N506 0.984 . S
H514 N502 0.984 . S
H515 N502 0.985 . S
C516 C517 1.363 . S
C516 C522 1.379 . S
C516 N524 1.356 . S
C517 C516 1.363 . S
C517 C523 1.363 . S
C518 C519 1.363 . S
C518 C523 1.379 . S
C518 N525 1.356 . S
C519 C518 1.363 . S
C519 C522 1.363 . S
N520 C522 1.356 . S
N520 H532 0.984 . S
N520 H533 0.985 . S
N521 C523 1.356 . S
N521 H526 0.984 . S
N521 H527 0.985 . S
C522 C516 1.379 . S
C522 C519 1.363 . S
C522 N520 1.356 . S
C523 C517 1.363 . S
C523 C518 1.379 . S
C523 N521 1.356 . S
N524 C516 1.356 . S
N524 H530 0.984 . S
N524 H531 0.984 . S
N525 C518 1.356 . S
N525 H528 0.984 . S
N525 H529 0.985 . S
H526 N521 0.984 . S
H527 N521 0.985 . S
H528 N525 0.984 . S
H529 N525 0.985 . S
H530 N524 0.984 . S
H531 N524 0.984 . S
H532 N520 0.984 . S
H533 N520 0.985 . S
C534 C535 1.363 . S
C534 C540 1.379 . S
C534 N542 1.356 . S
C535 C534 1.363 . S
C535 C541 1.363 . S
C536 C537 1.363 . S
C536 C541 1.379 . S
C536 N543 1.356 . S
C537 C536 1.363 . S
C537 C540 1.363 . S
N538 C540 1.356 . S
N538 H550 0.984 . S
N538 H551 0.985 . S
N539 C541 1.356 . S
N539 H544 0.984 . S
N539 H545 0.985 . S
C540 C534 1.379 . S
C540 C537 1.363 . S
C540 N538 1.356 . S
C541 C535 1.363 . S
C541 C536 1.379 . S
C541 N539 1.356 . S
N542 C534 1.356 . S
N542 H548 0.984 . S
N542 H549 0.984 . S
N543 C536 1.356 . S
N543 H546 0.984 . S
N543 H547 0.985 . S
H544 N539 0.984 . S
H545 N539 0.985 . S
H546 N543 0.984 . S
H547 N543 0.985 . S
H548 N542 0.984 . S
H549 N542 0.984 . S
H550 N538 0.984 . S
H551 N538 0.985 . S
C552 C553 1.363 . S
C552 C558 1.379 . S
C552 N560 1.356 . S
C553 C552 1.363 . S
C553 C559 1.363 . S
C554 C555 1.363 . S
C554 C559 1.379 . S
C554 N561 1.356 . S
C555 C554 1.363 . S
C555 C558 1.363 . S
N556 C558 1.356 . S
N556 H568 0.984 . S
N556 H569 0.985 . S
N557 C559 1.356 . S
N557 H562 0.984 . S
N557 H563 0.985 . S
C558 C552 1.379 . S
C558 C555 1.363 . S
C558 N556 1.356 . S
C559 C553 1.363 . S
C559 C554 1.379 . S
C559 N557 1.356 . S
N560 C552 1.356 . S
N560 H566 0.984 . S
N560 H567 0.984 . S
N561 C554 1.356 . S
N561 H564 0.984 . S
N561 H565 0.985 . S
H562 N557 0.984 . S
H563 N557 0.985 . S
H564 N561 0.984 . S
H565 N561 0.985 . S
H566 N560 0.984 . S
H567 N560 0.984 . S
H568 N556 0.984 . S
H569 N556 0.985 . S
C570 C571 1.363 1_554 S
C570 C576 1.379 . S
C570 N578 1.356 . S
C571 C570 1.363 1_556 S
C571 C577 1.363 . S
C572 C573 1.363 1_556 S
C572 C577 1.379 . S
C572 N579 1.356 . S
C573 C572 1.363 1_554 S
C573 C576 1.363 . S
N574 C576 1.356 . S
N574 H586 0.984 . S
N574 H587 0.985 . S
N575 C577 1.356 . S
N575 H580 0.984 . S
N575 H581 0.985 . S
C576 C570 1.379 . S
C576 C573 1.363 . S
C576 N574 1.356 . S
C577 C571 1.363 . S
C577 C572 1.379 . S
C577 N575 1.356 . S
N578 C570 1.356 . S
N578 H584 0.984 . S
N578 H585 0.984 . S
N579 C572 1.356 . S
N579 H582 0.984 . S
N579 H583 0.985 . S
H580 N575 0.984 . S
H581 N575 0.985 . S
H582 N579 0.984 . S
H583 N579 0.985 . S
H584 N578 0.984 . S
H585 N578 0.984 . S
H586 N574 0.984 . S
H587 N574 0.985 . S
C588 C589 1.363 . S
C588 C594 1.379 . S
C588 N596 1.356 . S
C589 C588 1.363 . S
C589 C595 1.363 . S
C590 C591 1.363 . S
C590 C595 1.379 . S
C590 N597 1.356 . S
C591 C590 1.363 . S
C591 C594 1.363 . S
N592 C594 1.356 . S
N592 H604 0.984 . S
N592 H605 0.985 . S
N593 C595 1.356 . S
N593 H598 0.984 . S
N593 H599 0.985 . S
C594 C588 1.379 . S
C594 C591 1.363 . S
C594 N592 1.356 . S
C595 C589 1.363 . S
C595 C590 1.379 . S
C595 N593 1.356 . S
N596 C588 1.356 . S
N596 H602 0.984 . S
N596 H603 0.984 . S
N597 C590 1.356 . S
N597 H600 0.984 . S
N597 H601 0.985 . S
H598 N593 0.984 . S
H599 N593 0.985 . S
H600 N597 0.984 . S
H601 N597 0.985 . S
H602 N596 0.984 . S
H603 N596 0.984 . S
H604 N592 0.984 . S
H605 N592 0.985 . S
C606 C607 1.363 . S
C606 C612 1.379 . S
C606 N614 1.356 . S
C607 C606 1.363 . S
C607 C613 1.363 1_556 S
C608 C609 1.363 . S
C608 C613 1.379 . S
C608 N615 1.356 . S
C609 C608 1.363 . S
C609 C612 1.363 1_554 S
N610 C612 1.356 . S
N610 H622 0.984 . S
N610 H623 0.985 . S
N611 C613 1.356 . S
N611 H616 0.984 . S
N611 H617 0.985 . S
C612 C606 1.379 . S
C612 C609 1.363 1_556 S
C612 N610 1.356 . S
C613 C607 1.363 1_554 S
C613 C608 1.379 . S
C613 N611 1.356 . S
N614 C606 1.356 . S
N614 H620 0.984 . S
N614 H621 0.984 . S
N615 C608 1.356 . S
N615 H618 0.984 . S
N615 H619 0.985 . S
H616 N611 0.984 . S
H617 N611 0.985 . S
H618 N615 0.984 . S
H619 N615 0.985 . S
H620 N614 0.984 . S
H621 N614 0.984 . S
H622 N610 0.984 . S
H623 N610 0.985 . S
C265 C116 1.106 1_545 S
C267 C28 1.109 . S
C283 C61 1.109 . S
C285 C83 1.106 1_545 S
C301 C94 1.109 . S
C303 C50 1.106 1_565 S
C319 C127 1.109 . S
C321 C17 1.106 1_565 S
C337 C160 1.109 . S
C339 C248 1.106 . S
C355 C193 1.109 . S
C357 C215 1.106 . S
C373 C182 1.106 . S
C375 C226 1.109 . S
C391 C259 1.109 . S
C393 C149 1.106 . S
C409 N71 2.099 . S
C411 N5 2.099 . S
C427 N104 2.102 1_554 S
C429 N38 2.102 1_556 S
C445 N137 2.099 . S
C447 N203 2.099 . S
C463 N170 2.102 1_556 S
C465 N236 2.102 1_554 S
C481 N14 1.731 . S
C483 N47 1.731 . S
C499 N113 1.731 . S
C501 N80 1.731 . S
C517 N179 1.731 . S
C519 N146 1.731 . S
C535 N245 1.731 . S
C537 N212 1.731 . S
C553 C206 1.574 . S
C555 C8 1.574 . S
C571 C239 1.574 . S
C573 C41 1.574 . S
C589 C140 1.574 . S
C591 C74 1.574 . S
C607 C107 1.574 . S
C609 C173 1.574 . S
