# Generated by pormake.
# Topology snz, (6)-cn, num edge types: 1
# Building blocks:
#     Node 0, Type 0, BuildingBlock: UKALOJ_clean_sbu_0, # of connection points: 6
#     Node 1, Type 0, BuildingBlock: UKALOJ_clean_sbu_0, # of connection points: 6
#     Node 2, Type 0, BuildingBlock: UKALOJ_clean_sbu_0, # of connection points: 6
#     Node 3, Type 0, BuildingBlock: UKALOJ_clean_sbu_0, # of connection points: 6
#     Node 4, Type 0, BuildingBlock: UKALOJ_clean_sbu_0, # of connection points: 6
#     Node 5, Type 0, BuildingBlock: UKALOJ_clean_sbu_0, # of connection points: 6
#     Node 6, Type 0, BuildingBlock: UKALOJ_clean_sbu_0, # of connection points: 6
#     Node 7, Type 0, BuildingBlock: UKALOJ_clean_sbu_0, # of connection points: 6
#     Node 8, Type 0, BuildingBlock: UKALOJ_clean_sbu_0, # of connection points: 6
#     Edge 9, Type (0, 0), BuildingBlock: TEMPAE_clean_linker_10, # of connection points: 2
#     Edge 10, Type (0, 0), BuildingBlock: TEMPAE_clean_linker_10, # of connection points: 2
#     Edge 11, Type (0, 0), BuildingBlock: TEMPAE_clean_linker_10, # of connection points: 2
#     Edge 12, Type (0, 0), BuildingBlock: TEMPAE_clean_linker_10, # of connection points: 2
#     Edge 13, Type (0, 0), BuildingBlock: TEMPAE_clean_linker_10, # of connection points: 2
#     Edge 14, Type (0, 0), BuildingBlock: TEMPAE_clean_linker_10, # of connection points: 2
#     Edge 15, Type (0, 0), BuildingBlock: TEMPAE_clean_linker_10, # of connection points: 2
#     Edge 16, Type (0, 0), BuildingBlock: TEMPAE_clean_linker_10, # of connection points: 2
#     Edge 17, Type (0, 0), BuildingBlock: TEMPAE_clean_linker_10, # of connection points: 2
#     Edge 18, Type (0, 0), BuildingBlock: TEMPAE_clean_linker_10, # of connection points: 2
#     Edge 19, Type (0, 0), BuildingBlock: TEMPAE_clean_linker_10, # of connection points: 2
#     Edge 20, Type (0, 0), BuildingBlock: TEMPAE_clean_linker_10, # of connection points: 2
#     Edge 21, Type (0, 0), BuildingBlock: TEMPAE_clean_linker_10, # of connection points: 2
#     Edge 22, Type (0, 0), BuildingBlock: TEMPAE_clean_linker_10, # of connection points: 2
#     Edge 23, Type (0, 0), BuildingBlock: TEMPAE_clean_linker_10, # of connection points: 2
#     Edge 24, Type (0, 0), BuildingBlock: TEMPAE_clean_linker_10, # of connection points: 2
#     Edge 25, Type (0, 0), BuildingBlock: TEMPAE_clean_linker_10, # of connection points: 2
#     Edge 26, Type (0, 0), BuildingBlock: TEMPAE_clean_linker_10, # of connection points: 2
#     Edge 27, Type (0, 0), BuildingBlock: TEMPAE_clean_linker_10, # of connection points: 2
#     Edge 28, Type (0, 0), BuildingBlock: TEMPAE_clean_linker_10, # of connection points: 2
#     Edge 29, Type (0, 0), BuildingBlock: TEMPAE_clean_linker_10, # of connection points: 2
#     Edge 30, Type (0, 0), BuildingBlock: TEMPAE_clean_linker_10, # of connection points: 2
#     Edge 31, Type (0, 0), BuildingBlock: TEMPAE_clean_linker_10, # of connection points: 2
#     Edge 32, Type (0, 0), BuildingBlock: TEMPAE_clean_linker_10, # of connection points: 2
#     Edge 33, Type (0, 0), BuildingBlock: TEMPAE_clean_linker_10, # of connection points: 2
#     Edge 34, Type (0, 0), BuildingBlock: TEMPAE_clean_linker_10, # of connection points: 2
#     Edge 35, Type (0, 0), BuildingBlock: TEMPAE_clean_linker_10, # of connection points: 2
# Relax obj value: 0.470
# Max RMSD: 0.299
# Mean RMSD: 0.257
data_MOF--net-snz--node1-UKALOJ_clean_sbu_0--edge1-TEMPAE_clean_linker_10
_symmetry_space_group_name_H-M    P1
_symmetry_Int_Tables_number       1
_symmetry_cell_setting            triclinic
loop_
_symmetry_equiv_pos_as_xyz
'x, y, z'
_cell_length_a     50.949222
_cell_length_b     55.447165
_cell_length_c     15.715076
_cell_angle_alpha  90.347906
_cell_angle_beta   90.786535
_cell_angle_gamma 120.33818
loop_
_atom_site_label
_atom_site_type_symbol
_atom_site_fract_x
_atom_site_fract_y
_atom_site_fract_z
_atom_type_partial_charge
Zn0 Zn -0.00769 0.47194 0.13127 0.0
O1 O 0.97232 0.43328 0.06629 0.0
C2 C 0.04856 0.46825 0.1622 0.0
Zn3 Zn 0.027 0.49197 0.03163 0.0
C4 C 0.98082 0.43229 0.9912 0.0
O5 O 0.0034 0.45391 0.96042 0.0
C6 C 0.03821 0.53174 0.17138 0.0
O7 O -0.00277 0.50369 0.97419 0.0
O8 O 0.96137 0.47986 0.06485 0.0
N9 N 0.05669 0.51103 0.9347 0.0
C10 C 0.0593 0.53208 0.88624 0.0
C11 C 0.08066 0.51329 0.8213 0.0
N12 N 0.07079 0.49983 0.89542 0.0
N13 N 0.07312 0.53334 0.81177 0.0
C14 C 0.9506 0.46855 0.27075 0.0
C15 C 0.95723 0.44393 0.36118 0.0
N16 N 0.963 0.45543 0.22976 0.0
N17 N 0.96626 0.4394 0.28566 0.0
N18 N 0.94812 0.46293 0.35472 0.0
H19 H 0.92345 0.47394 0.176 0.0
H20 H 0.95912 0.50501 0.20036 0.0
H21 H 0.92799 0.49274 0.27376 0.0
C22 C 0.93978 0.48622 0.22817 0.0
C23 C 0.04916 0.55205 0.91385 0.0
H24 H 0.0288 0.54816 0.87624 0.0
H25 H 0.06777 0.57385 0.90453 0.0
H26 H 0.04343 0.55023 0.98157 0.0
O27 O 0.04959 0.52909 0.10342 0.0
O28 O 0.01335 0.51152 0.19715 0.0
C29 C 0.97033 0.49459 0.99877 0.0
O30 O 0.02367 0.46344 0.19468 0.0
O31 O 0.05576 0.47922 0.0891 0.0
Zn32 Zn 0.53237 0.52491 0.06763 0.0
O33 O 0.49679 0.51638 0.15184 0.0
C34 C 0.49228 0.46952 0.9858 0.0
Zn35 Zn 0.50398 0.52734 0.96408 0.0
C36 C 0.47288 0.51632 0.12808 0.0
O37 O 0.47 0.52146 0.05113 0.0
C38 C 0.56401 0.53544 0.90667 0.0
O39 O 0.52524 0.57092 0.98247 0.0
O40 O 0.55104 0.56822 0.09181 0.0
N41 N 0.4761 0.52725 0.86984 0.0
C42 C 0.48275 0.53369 0.78793 0.0
C43 C 0.43688 0.50096 0.79118 0.0
N44 N 0.44702 0.50778 0.87215 0.0
N45 N 0.45929 0.51606 0.73622 0.0
C46 C 0.54847 0.50329 0.22711 0.0
C47 C 0.5945 0.5342 0.25398 0.0
N48 N 0.55751 0.52197 0.16413 0.0
N49 N 0.58636 0.54087 0.17971 0.0
N50 N 0.57118 0.51054 0.28532 0.0
H51 H 0.50657 0.48102 0.29523 0.0
H52 H 0.51702 0.45924 0.23711 0.0
H53 H 0.50106 0.47698 0.18327 0.0
C54 C 0.51654 0.47899 0.23547 0.0
C55 C 0.51388 0.55409 0.75694 0.0
H56 H 0.52794 0.56917 0.80817 0.0
H57 H 0.51189 0.56555 0.70189 0.0
H58 H 0.52514 0.5427 0.73407 0.0
O59 O 0.53914 0.53259 0.8776 0.0
O60 O 0.56744 0.53387 0.98596 0.0
C61 C 0.54434 0.58277 0.04351 0.0
O62 O 0.51377 0.48184 0.04002 0.0
O63 O 0.48294 0.48352 0.94521 0.0
Zn64 Zn 0.4836 0.02539 0.09334 0.0
O65 O 0.46125 0.04802 0.06835 0.0
C66 C 0.42597 0.97579 0.14601 0.0
Zn67 Zn 0.45939 -0.00362 0.98522 0.0
C68 C 0.44126 0.03936 1.00867 0.0
O69 O 0.43571 0.01788 0.96471 0.0
C70 C 0.50145 0.98191 0.06934 0.0
O71 O 0.49353 0.02448 0.90071 0.0
O72 O 0.51833 0.05099 1.01119 0.0
N73 N 0.43544 0.96856 0.89032 0.0
C74 C 0.44486 0.95814 0.82806 0.0
C75 C 0.39686 0.9394 0.81365 0.0
N76 N 0.40553 0.9565 0.88244 0.0
N77 N 0.42104 0.93965 0.77855 0.0
C78 C 0.49953 0.04779 0.27102 0.0
C79 C 0.5437 0.05326 0.27518 0.0
N80 N 0.50923 0.05157 0.19075 0.0
N81 N 0.53753 0.05662 0.19411 0.0
N82 N 0.51966 0.04656 0.32478 0.0
H83 H 0.45618 0.04465 0.24237 0.0
H84 H 0.47202 0.05787 0.34747 0.0
H85 H 0.45567 0.02155 0.32548 0.0
C86 C 0.46887 0.04252 0.29697 0.0
C87 C 0.47762 0.96672 0.8145 0.0
H88 H 0.48438 0.9742 0.74904 0.0
H89 H 0.48057 0.94841 0.82398 0.0
H90 H 0.4935 0.98341 0.85834 0.0
O91 O 0.48303 0.97512 1.00694 0.0
O92 O 0.50571 0.00194 0.11799 0.0
C93 C 0.51675 0.04602 0.93188 0.0
O94 O 0.4478 -0.00132 0.17502 0.0
O95 O 0.42573 0.96932 0.06845 0.0
Zn96 Zn 0.71593 0.84763 0.14156 0.0
O97 O 0.7419 0.89027 0.1735 0.0
C98 C 0.69208 0.84358 0.31731 0.0
Zn99 Zn 0.67454 0.85062 0.14022 0.0
C100 C 0.72961 0.90526 0.17388 0.0
O101 O 0.70187 0.8945 0.15135 0.0
C102 C 0.66048 0.7922 0.11736 0.0
O103 O 0.67489 0.85148 1.00383 0.0
O104 O 0.72032 0.85621 1.0067 0.0
N105 N 0.6363 0.85364 0.14444 0.0
C106 C 0.63083 0.87368 0.11682 0.0
C107 C 0.59287 0.8454 0.18998 0.0
N108 N 0.61265 0.83604 0.18963 0.0
N109 N 0.60383 0.86919 0.14553 0.0
C110 C 0.77554 0.84937 0.20023 0.0
C111 C 0.78389 0.83046 0.09396 0.0
N112 N 0.75448 0.84485 0.1396 0.0
N113 N 0.76015 0.83366 0.07293 0.0
N114 N 0.79409 0.83999 0.1739 0.0
H115 H 0.76231 0.8713 0.28887 0.0
H116 H 0.80066 0.88045 0.29711 0.0
H117 H 0.77205 0.84704 0.33658 0.0
C118 C 0.77746 0.86254 0.28559 0.0
C119 C 0.65138 0.89678 0.05885 0.0
H120 H 0.66752 0.91537 0.09752 0.0
H121 H 0.638 0.90265 1.01632 0.0
H122 H 0.66483 0.89052 0.01953 0.0
O123 O 0.64771 0.80639 0.13253 0.0
O124 O 0.68929 0.80461 0.11305 0.0
C125 C 0.69803 0.85467 0.96416 0.0
O126 O 0.71009 0.83847 0.27616 0.0
O127 O 0.67469 0.84974 0.27611 0.0
Zn128 Zn 0.15633 0.83762 0.41427 0.0
O129 O 0.10887 0.81096 0.42204 0.0
C130 C 0.16671 0.82315 0.59377 0.0
Zn131 Zn 0.16587 0.80258 0.41847 0.0
C132 C 0.09977 0.78536 0.43459 0.0
O133 O 0.11882 0.77704 0.43614 0.0
C134 C 0.2225 0.85507 0.39938 0.0
O135 O 0.1605 0.8 0.28065 0.0
O136 O 0.15338 0.83584 0.27915 0.0
N137 N 0.17014 0.76773 0.4183 0.0
C138 C 0.15016 0.74163 0.39019 0.0
C139 C 0.18732 0.7402 0.44883 0.0
N140 N 0.1933 0.76685 0.45447 0.0
N141 N 0.16021 0.72401 0.40952 0.0
C142 C 0.13736 0.88141 0.46432 0.0
C143 C 0.16035 0.9123 0.37053 0.0
N144 N 0.15111 0.87189 0.41225 0.0
N145 N 0.16495 0.89095 0.35333 0.0
N146 N 0.1431 0.90705 0.44005 0.0
H147 H 0.11783 0.8455 0.54714 0.0
H148 H 0.09489 0.86044 0.5284 0.0
H149 H 0.12779 0.87853 0.59807 0.0
C150 C 0.11872 0.86562 0.53907 0.0
C151 C 0.12126 0.73332 0.34096 0.0
H152 H 0.12254 0.75113 0.30624 0.0
H153 H 0.10205 0.72542 0.3856 0.0
H154 H 0.11632 0.7163 0.29457 0.0
O155 O 0.21294 0.82907 0.40425 0.0
O156 O 0.20391 0.86395 0.40415 0.0
C157 C 0.15633 0.81744 0.23887 0.0
O158 O 0.16023 0.83905 0.55157 0.0
O159 O 0.17169 0.80587 0.55389 0.0
Zn160 Zn 0.14385 0.32017 0.48051 0.0
O161 O 0.15682 0.29042 0.49825 0.0
C162 C 0.16491 0.3417 0.65861 0.0
Zn163 Zn 0.19154 0.35506 0.48323 0.0
C164 C 0.18463 0.2987 0.51393 0.0
O165 O 0.20437 0.32457 0.50947 0.0
C166 C 0.14921 0.37572 0.45247 0.0
O167 O 0.19418 0.34979 0.34753 0.0
O168 O 0.14593 0.31785 0.34467 0.0
N169 N 0.23622 0.38577 0.48975 0.0
C170 C 0.2546 0.40386 0.43123 0.0
C171 C 0.28198 0.4092 0.54142 0.0
N172 N 0.25323 0.38929 0.55843 0.0
N173 N 0.28341 0.41863 0.4619 0.0
C174 C 0.07977 0.27064 0.52546 0.0
C175 C 0.05458 0.2686 0.41358 0.0
N176 N 0.09929 0.29009 0.47177 0.0
N177 N 0.08361 0.28866 0.4022 0.0
N178 N 0.05145 0.25692 0.49048 0.0
H179 H 0.11235 0.26803 0.60691 0.0
H180 H 0.07325 0.2422 0.62707 0.0
H181 H 0.08839 0.27823 0.65937 0.0
C182 C 0.08891 0.26424 0.60949 0.0
C183 C 0.24424 0.40791 0.34546 0.0
H184 H 0.24487 0.3931 0.29889 0.0
H185 H 0.25949 0.42947 0.32302 0.0
H186 H 0.22067 0.40394 0.34782 0.0
O187 O 0.17766 0.38491 0.458 0.0
O188 O 0.13079 0.34995 0.46404 0.0
C189 C 0.17029 0.33311 0.30492 0.0
O190 O 0.1423 0.3229 0.61608 0.0
O191 O 0.18831 0.35952 0.61907 0.0
Zn192 Zn 0.30804 0.17999 0.86847 0.0
O193 O 0.30724 0.17973 1.0044 0.0
C194 C 0.32001 0.13345 0.88802 0.0
Zn195 Zn 0.26559 0.1391 0.86535 0.0
C196 C 0.28393 0.16178 0.04378 0.0
O197 O 0.26132 0.14309 1.00081 0.0
C198 C 0.29007 0.15755 0.69032 0.0
O199 O 0.24098 0.15932 0.83724 0.0
O200 O 0.28229 0.19998 0.861 0.0
N201 N 0.22601 0.10088 0.86579 0.0
C202 C 0.20649 0.08449 0.8035 0.0
C203 C 0.1936 0.06096 0.91736 0.0
N204 N 0.21757 0.08633 0.93671 0.0
N205 N 0.18596 0.05918 0.83413 0.0
C206 C 0.35698 0.24141 0.91416 0.0
C207 C 0.3886 0.2509 0.8145 0.0
N208 N 0.34725 0.21789 0.86718 0.0
N209 N 0.36701 0.22379 0.80568 0.0
N210 N 0.38279 0.26254 0.88175 0.0
H211 H 0.31809 0.23518 0.98405 0.0
H212 H 0.35392 0.26376 0.02514 0.0
H213 H 0.3444 0.2287 0.04231 0.0
C214 C 0.34256 0.24266 0.99552 0.0
C215 C 0.2092 0.09272 0.71181 0.0
H216 H 0.21652 0.11519 0.70732 0.0
H217 H 0.18755 0.08086 0.67571 0.0
H218 H 0.22618 0.08876 0.68113 0.0
O219 O 0.27126 0.13603 0.73068 0.0
O220 O 0.30816 0.17959 0.73226 0.0
C221 C 0.25425 0.18585 0.8402 0.0
O222 O 0.33339 0.15953 0.87396 0.0
O223 O 0.29114 0.11954 0.89119 0.0
Zn224 Zn 0.78063 0.175 0.64957 0.0
O225 O 0.73399 0.16233 0.65766 0.0
C226 C 0.77673 0.15081 0.8262 0.0
Zn227 Zn 0.77118 0.13121 0.64869 0.0
C228 C 0.71513 0.13615 0.65368 0.0
O229 O 0.72492 0.11919 0.64676 0.0
C230 C 0.83646 0.1697 0.64517 0.0
O231 O 0.77163 0.13412 0.51249 0.0
O232 O 0.77767 0.17611 0.51324 0.0
N233 N 0.76022 0.09037 0.63782 0.0
C234 C 0.77142 0.07813 0.58688 0.0
C235 C 0.7337 0.04569 0.65126 0.0
N236 N 0.73698 0.07019 0.67834 0.0
N237 N 0.75508 0.05 0.59397 0.0
C238 C 0.81659 0.23692 0.70634 0.0
C239 C 0.80344 0.25731 0.61502 0.0
N240 N 0.79431 0.21678 0.65703 0.0
N241 N 0.78611 0.22949 0.60042 0.0
N242 N 0.82286 0.26243 0.68082 0.0
H243 H 0.81341 0.22331 0.83432 0.0
H244 H 0.85051 0.25079 0.80963 0.0
H245 H 0.83738 0.21598 0.76949 0.0
C246 C 0.83057 0.23159 0.78359 0.0
C247 C 0.79745 0.09364 0.52746 0.0
H248 H 0.79163 0.08346 0.46354 0.0
H249 H 0.81772 0.09345 0.55312 0.0
H250 H 0.80414 0.11573 0.52079 0.0
O251 O 0.81763 0.14386 0.65296 0.0
O252 O 0.82673 0.18667 0.64008 0.0
C253 C 0.77444 0.15499 0.47174 0.0
O254 O 0.78293 0.17288 0.78607 0.0
O255 O 0.76997 0.12865 0.78437 0.0
Zn256 Zn 0.82115 0.60738 0.60414 0.0
O257 O 0.82259 0.61023 0.74071 0.0
C258 C 0.75823 0.59583 0.61678 0.0
Zn259 Zn 0.81971 0.64684 0.60633 0.0
C260 C 0.82377 0.63041 0.78274 0.0
O261 O 0.82408 0.65037 0.74258 0.0
C262 C 0.81613 0.6232 0.42787 0.0
O263 O 0.86695 0.67098 0.59762 0.0
O264 O 0.86915 0.6325 0.59393 0.0
N265 N 0.81715 0.68239 0.60458 0.0
C266 C 0.83096 0.70543 0.55636 0.0
C267 C 0.8023 0.71095 0.642 0.0
N268 N 0.79959 0.68599 0.65824 0.0
N269 N 0.82206 0.72381 0.57878 0.0
C270 C 0.84156 0.56691 0.66781 0.0
C271 C 0.81928 0.53181 0.58308 0.0
N272 N 0.82512 0.57244 0.61161 0.0
N273 N 0.81133 0.55064 0.55881 0.0
N274 N 0.83799 0.5415 0.65189 0.0
H275 H 0.87062 0.60882 0.71988 0.0
H276 H 0.88256 0.5843 0.74572 0.0
H277 H 0.85015 0.58228 0.79654 0.0
C278 C 0.86249 0.58684 0.73574 0.0
C279 C 0.85237 0.70943 0.48589 0.0
H280 H 0.85226 0.69007 0.46923 0.0
H281 H 0.87592 0.72488 0.50683 0.0
H282 H 0.84654 0.71733 0.4282 0.0
O283 O 0.81463 0.64227 0.46932 0.0
O284 O 0.81897 0.60482 0.4684 0.0
C285 C 0.88239 0.65896 0.59184 0.0
O286 O 0.77302 0.58301 0.61157 0.0
O287 O 0.77236 0.62238 0.61579 0.0
C288 C 0.05342 0.55811 0.72267 0.0
C289 C 0.06501 0.53991 0.72961 0.0
C290 C 0.02996 0.55245 0.66381 0.0
C291 C 0.02159 0.53086 0.6029 0.0
C292 C 0.03976 0.51833 0.59459 0.0
C293 C 0.06091 0.52258 0.65909 0.0
C294 C 0.01363 0.56871 0.67031 0.0
C295 C 0.03488 0.49825 0.52244 0.0
C296 C 0.95016 0.47421 0.50678 0.0
C297 C 0.95497 0.48313 0.42223 0.0
C298 C 0.96884 0.49212 0.57258 0.0
C299 C -0.0071 0.51908 0.55213 0.0
C300 C -0.0068 0.53 0.47133 0.0
C301 C 0.97436 0.51181 0.40677 0.0
C302 C 0.96569 0.48092 0.6614 0.0
C303 C 0.01543 0.56001 0.45061 0.0
H304 H 0.06046 0.57522 0.7672 0.0
H305 H 0.07177 0.51009 0.65819 0.0
H306 H 0.02531 0.58748 0.63001 0.0
H307 H 0.98952 0.55627 0.64854 0.0
H308 H 0.01433 0.57601 0.73674 0.0
H309 H 0.05482 0.49542 0.51511 0.0
H310 H 0.01473 0.47754 0.53535 0.0
H311 H 0.03069 0.50581 0.46136 0.0
H312 H 0.9345 0.45239 0.51985 0.0
H313 H 0.97811 0.51965 0.34281 0.0
H314 H 0.9715 0.4977 0.70963 0.0
H315 H 0.98161 0.47296 0.67071 0.0
H316 H 0.94224 0.46342 0.67225 0.0
H317 H 0.01682 0.56386 0.3811 0.0
H318 H 0.03843 0.5665 0.47625 0.0
H319 H 0.00787 0.5735 0.48109 0.0
C320 C 0.47562 0.48399 0.69091 0.0
C321 C 0.46544 0.50239 0.66861 0.0
C322 C 0.49457 0.47966 0.63769 0.0
C323 C 0.50151 0.49251 0.55731 0.0
C324 C 0.48664 0.50703 0.52896 0.0
C325 C 0.46961 0.5127 0.58645 0.0
C326 C 0.50834 0.46299 0.67169 0.0
C327 C 0.49041 0.51849 0.44032 0.0
C328 C 0.57276 0.52579 0.4317 0.0
C329 C 0.56629 0.50404 0.37415 0.0
C330 C 0.55371 0.52116 0.50028 0.0
C331 C 0.52711 0.49462 0.50785 0.0
C332 C 0.52421 0.47162 0.46008 0.0
C333 C 0.54579 0.47657 0.39793 0.0
C334 C 0.56078 0.54525 0.55982 0.0
C335 C 0.49717 0.44246 0.46729 0.0
H336 H 0.4721 0.47612 0.75506 0.0
H337 H 0.46138 0.52666 0.56929 0.0
H338 H 0.49136 0.44041 0.66424 0.0
H339 H 0.52926 0.46719 0.63875 0.0
H340 H 0.51376 0.46723 0.74081 0.0
H341 H 0.46985 0.51912 0.41949 0.0
H342 H 0.50979 0.54024 0.4394 0.0
H343 H 0.49473 0.50583 0.39402 0.0
H344 H 0.59017 0.54699 0.41746 0.0
H345 H 0.5429 0.45947 0.35755 0.0
H346 H 0.55338 0.5377 0.6251 0.0
H347 H 0.54876 0.55613 0.53814 0.0
H348 H 0.58549 0.56082 0.56171 0.0
H349 H 0.50263 0.43084 0.51478 0.0
H350 H 0.49201 0.43082 0.40575 0.0
H351 H 0.47641 0.44248 0.48755 0.0
C352 C 0.40944 0.94202 0.62932 0.0
C353 C 0.4228 0.93321 0.69083 0.0
C354 C 0.42426 0.95303 0.55296 0.0
C355 C 0.45267 0.95501 0.53978 0.0
C356 C 0.46187 0.93984 0.59193 0.0
C357 C 0.44556 0.92767 0.66586 0.0
C358 C 0.41254 0.96714 0.49488 0.0
C359 C 0.49143 0.94048 0.57818 0.0
C360 C 0.49483 -0.0035 0.34906 0.0
C361 C 0.50918 0.02386 0.38245 0.0
C362 C 0.47763 0.97348 0.40026 0.0
C363 C 0.47512 0.97807 0.48737 0.0
C364 C 0.49123 0.00571 0.52244 0.0
C365 C 0.50807 0.02833 0.46895 0.0
C366 C 0.45989 0.94487 0.35874 0.0
C367 C 0.49002 0.01205 0.61542 0.0
H368 H 0.3905 0.94469 0.64621 0.0
H369 H 0.45409 0.91845 0.71089 0.0
H370 H 0.42632 0.99013 0.50462 0.0
H371 H 0.41458 0.96244 0.42746 0.0
H372 H 0.38847 0.96038 0.50787 0.0
H373 H 0.49176 0.92287 0.61051 0.0
H374 H 0.49562 0.93968 0.50943 0.0
H375 H 0.51038 0.96035 0.6051 0.0
H376 H 0.49505 0.99342 0.28114 0.0
H377 H 0.51895 0.04959 0.49347 0.0
H378 H 0.45657 0.92805 0.40276 0.0
H379 H 0.47136 0.94343 0.30095 0.0
H380 H 0.43711 0.94106 0.33873 0.0
H381 H 0.46855 -0.00323 0.64566 0.0
H382 H 0.49269 0.03306 0.62412 0.0
H383 H 0.50917 0.012 0.64977 0.0
C384 C 0.68823 0.8647 0.45448 0.0
C385 C 0.69328 0.84509 0.41204 0.0
C386 C 0.6903 0.86742 0.54383 0.0
C387 C 0.6967 0.84953 0.59274 0.0
C388 C 0.70176 0.82961 0.5501 0.0
C389 C 0.70053 0.82799 0.46032 0.0
C390 C 0.68588 0.88964 0.58586 0.0
C391 C 0.70793 0.80966 0.59938 0.0
C392 C 0.72505 0.86882 0.82412 0.0
C393 C 0.69793 0.85434 0.86925 0.0
C394 C 0.72497 0.86789 0.7343 0.0
C395 C 0.69727 0.8512 0.68834 0.0
C396 C 0.6699 0.83626 0.73391 0.0
C397 C 0.6705 0.8384 0.82337 0.0
C398 C 0.75451 0.88499 0.6885 0.0
C399 C 0.63996 0.81763 0.68819 0.0
H400 H 0.68334 0.87847 0.4175 0.0
H401 H 0.70464 0.81293 0.42788 0.0
H402 H 0.66613 0.87984 0.62862 0.0
H403 H 0.70619 0.90367 0.62573 0.0
H404 H 0.68203 0.90246 0.53884 0.0
H405 H 0.71115 0.79528 0.55701 0.0
H406 H 0.7286 0.82148 0.64021 0.0
H407 H 0.68869 0.79703 0.64207 0.0
H408 H 0.74631 0.88124 0.85909 0.0
H409 H 0.64949 0.82686 0.85774 0.0
H410 H 0.75237 0.8992 0.64315 0.0
H411 H 0.75979 0.87106 0.65076 0.0
H412 H 0.77389 0.89769 0.73307 0.0
H413 H 0.6344 0.8302 0.64485 0.0
H414 H 0.62092 0.80651 0.73288 0.0
H415 H 0.6417 0.8019 0.64841 0.0
C416 C 0.18651 0.81866 0.73671 0.0
C417 C 0.16616 0.82327 0.68836 0.0
C418 C 0.18551 0.81802 0.82636 0.0
C419 C 0.16276 0.82085 0.86872 0.0
C420 C 0.14184 0.82505 0.81979 0.0
C421 C 0.14418 0.82675 0.73056 0.0
C422 C 0.20902 0.81462 0.87578 0.0
C423 C 0.11659 0.82721 0.86155 0.0
C424 C 0.14376 0.79314 0.09573 0.0
C425 C 0.15739 0.81793 0.14439 0.0
C426 C 0.14481 0.79376 1.00603 0.0
C427 C 0.16102 0.81975 0.96409 0.0
C428 C 0.17544 0.84478 1.01348 0.0
C429 C 0.17292 0.84358 0.10265 0.0
C430 C 0.12818 0.76663 0.95608 0.0
C431 C 0.19394 0.87288 0.97226 0.0
H432 H 0.20357 0.81601 0.70437 0.0
H433 H 0.12809 0.8299 0.69344 0.0
H434 H 0.22106 0.83212 0.9224 0.0
H435 H 0.19779 0.79501 0.91239 0.0
H436 H 0.22608 0.81409 0.83377 0.0
H437 H 0.1028 0.80846 0.90055 0.0
H438 H 0.12628 0.84565 0.9051 0.0
H439 H 0.10133 0.82913 0.81436 0.0
H440 H 0.1317 0.77328 0.1278 0.0
H441 H 0.18388 0.86279 0.14016 0.0
H442 H 0.14453 0.7635 0.91854 0.0
H443 H 0.11186 0.76739 0.91024 0.0
H444 H 0.11555 0.74832 0.99782 0.0
H445 H 0.21166 0.87285 0.93199 0.0
H446 H 0.20521 0.89021 0.01983 0.0
H447 H 0.17913 0.87707 0.93002 0.0
C448 C 0.17812 0.36522 0.80325 0.0
C449 C 0.1653 0.34072 0.75324 0.0
C450 C 0.17907 0.36416 0.89296 0.0
C451 C 0.16823 0.3381 0.93368 0.0
C452 C 0.15598 0.31339 0.88289 0.0
C453 C 0.15411 0.31496 0.79375 0.0
C454 C 0.1913 0.39093 0.94422 0.0
C455 C 0.14525 0.28526 0.92258 0.0
C456 C 0.19568 0.33937 0.16328 0.0
C457 C 0.16986 0.33343 0.21 0.0
C458 C 0.19531 0.34037 0.07346 0.0
C459 C 0.16894 0.33654 0.02923 0.0
C460 C 0.14304 0.33105 0.07653 0.0
C461 C 0.14364 0.32905 0.1658 0.0
C462 C 0.22307 0.34527 0.02584 0.0
C463 C 0.1148 0.32779 0.03298 0.0
H464 H 0.18687 0.38517 0.77221 0.0
H465 H 0.14472 0.29599 0.75529 0.0
H466 H 0.17389 0.38916 0.98945 0.0
H467 H 0.21149 0.39466 0.98251 0.0
H468 H 0.19787 0.40933 0.90336 0.0
H469 H 0.1381 0.26831 0.87408 0.0
H470 H 0.1637 0.28602 0.96296 0.0
H471 H 0.12576 0.27993 0.96442 0.0
H472 H 0.21603 0.34281 0.19694 0.0
H473 H 0.12375 0.32492 0.20145 0.0
H474 H 0.23246 0.36497 0.98986 0.0
H475 H 0.21671 0.32809 0.97878 0.0
H476 H 0.24119 0.34655 0.06902 0.0
H477 H 0.12072 0.34653 0.99451 0.0
H478 H 0.09711 0.32489 0.07901 0.0
H479 H 0.105 0.30954 0.98868 0.0
C480 C 0.29425 0.18202 0.55349 0.0
C481 C 0.28916 0.15783 0.59566 0.0
C482 C 0.29209 0.18254 0.46416 0.0
C483 C 0.28581 0.15862 0.41503 0.0
C484 C 0.28096 0.13419 0.45741 0.0
C485 C 0.28208 0.13391 0.54717 0.0
C486 C 0.29622 0.20867 0.42245 0.0
C487 C 0.2751 0.10847 0.4079 0.0
C488 C 0.25706 0.15068 0.18409 0.0
C489 C 0.28415 0.16156 0.13865 0.0
C490 C 0.25727 0.15 0.27388 0.0
C491 C 0.2851 0.15945 0.31947 0.0
C492 C 0.31243 0.17007 0.27358 0.0
C493 C 0.31168 0.17143 0.18417 0.0
C494 C 0.22774 0.13946 0.32002 0.0
C495 C 0.34249 0.17962 0.31887 0.0
H496 H 0.29915 0.20042 0.5907 0.0
H497 H 0.27803 0.11514 0.57945 0.0
H498 H 0.31672 0.21785 0.38246 0.0
H499 H 0.27644 0.20347 0.37988 0.0
H500 H 0.29872 0.22471 0.46973 0.0
H501 H 0.27241 0.09139 0.4501 0.0
H502 H 0.25421 0.10063 0.36781 0.0
H503 H 0.29422 0.11382 0.36448 0.0
H504 H 0.23571 0.14309 0.14942 0.0
H505 H 0.33268 0.17957 0.14958 0.0
H506 H 0.22971 0.15565 0.36577 0.0
H507 H 0.22273 0.12075 0.35732 0.0
H508 H 0.20826 0.1339 0.27572 0.0
H509 H 0.348 0.19751 0.36208 0.0
H510 H 0.36146 0.18609 0.27388 0.0
H511 H 0.34099 0.16252 0.35872 0.0
C512 C 0.76339 0.16874 0.32919 0.0
C513 C 0.77477 0.15466 0.37712 0.0
C514 C 0.76298 0.16776 0.23945 0.0
C515 C 0.77526 0.1532 0.19648 0.0
C516 C 0.78733 0.13942 0.2449 0.0
C517 C 0.78645 0.13992 0.33432 0.0
C518 C 0.749 0.18197 0.19057 0.0
C519 C 0.80157 0.12443 0.20231 0.0
C520 C 0.75308 0.12907 0.96475 0.0
C521 C 0.77675 0.15099 0.92065 0.0
C522 C 0.75195 0.12978 0.05425 0.0
C523 C 0.77569 0.15247 0.10107 0.0
C524 C 0.80003 0.17433 0.05657 0.0
C525 C 0.79997 0.17356 0.96697 0.0
C526 C 0.72509 0.10648 0.09859 0.0
C527 C 0.82635 0.1984 0.10361 0.0
H528 H 0.75414 0.17999 0.36191 0.0
H529 H 0.79554 0.1292 0.37095 0.0
H530 H 0.76638 0.19866 0.15058 0.0
H531 H 0.7307 0.16668 0.1471 0.0
H532 H 0.73927 0.1914 0.23321 0.0
H533 H 0.81097 0.11567 0.24904 0.0
H534 H 0.78444 0.10711 0.16129 0.0
H535 H 0.82017 0.13903 0.1606 0.0
H536 H 0.73493 0.11174 0.92899 0.0
H537 H 0.81847 0.19038 0.93306 0.0
H538 H 0.71407 0.11526 0.13874 0.0
H539 H 0.73283 0.0954 0.14144 0.0
H540 H 0.70785 0.09104 0.05296 0.0
H541 H 0.8181 0.21001 0.14191 0.0
H542 H 0.844 0.21322 0.05985 0.0
H543 H 0.83703 0.19035 0.14852 0.0
C544 C 0.79806 0.63105 0.2869 0.0
C545 C 0.81645 0.62352 0.33334 0.0
C546 C 0.79866 0.63191 0.19727 0.0
C547 C 0.81915 0.62632 0.15303 0.0
C548 C 0.83823 0.61925 0.20007 0.0
C549 C 0.83619 0.61739 0.28935 0.0
C550 C 0.7771 0.63847 0.14988 0.0
C551 C 0.86121 0.61416 0.15623 0.0
C552 C 0.80531 0.60416 0.9184 0.0
C553 C 0.82302 0.62964 0.87724 0.0
C554 C 0.80331 0.60289 1.00769 0.0
C555 C 0.82044 0.62755 0.05766 0.0
C556 C 0.83888 0.65329 1.0163 0.0
C557 C 0.83944 0.65411 0.9266 0.0
C558 C 0.78248 0.57519 0.04844 0.0
C559 C 0.8584 0.6799 0.06682 0.0
H560 H 0.78275 0.63579 0.32071 0.0
H561 H 0.8508 0.61199 0.32513 0.0
H562 H 0.79012 0.65804 0.11381 0.0
H563 H 0.76325 0.62153 0.10295 0.0
H564 H 0.76154 0.64092 0.19323 0.0
H565 H 0.87545 0.61035 0.20214 0.0
H566 H 0.84943 0.59583 0.11251 0.0
H567 H 0.87633 0.63245 0.11708 0.0
H568 H 0.79231 0.58522 0.88046 0.0
H569 H 0.85328 0.67383 0.89504 0.0
H570 H 0.76616 0.57713 0.08992 0.0
H571 H 0.79589 0.56897 0.0894 0.0
H572 H 0.76945 0.55829 1.00059 0.0
H573 H 0.84386 0.68507 0.10575 0.0
H574 H 0.87254 0.6979 0.02537 0.0
H575 H 0.87363 0.677 0.11141 0.0
C576 C 0.15601 0.42239 0.41191 0.0
C577 C 0.13709 0.39351 0.42227 0.0
C578 C 0.14468 0.43842 0.37462 0.0
C579 C 0.11401 0.42507 0.34541 0.0
C580 C 0.09475 0.39606 0.35738 0.0
C581 C 0.10641 0.38076 0.39644 0.0
C582 C 0.16562 0.46945 0.36479 0.0
C583 C 0.062 0.38087 0.32613 0.0
C584 C 0.06822 0.46009 0.29846 0.0
C585 C 0.06852 0.46065 0.20929 0.0
C586 C 0.08504 0.45064 0.34427 0.0
C587 C 0.10179 0.44079 0.2996 0.0
C588 C 0.1032 0.44246 0.20965 0.0
C589 C 0.08682 0.45275 0.16557 0.0
C590 C 0.08359 0.44988 0.44018 0.0
C591 C 0.12028 0.43161 0.15955 0.0
H592 H 0.17972 0.43236 0.43172 0.0
H593 H 0.09157 0.35844 0.40368 0.0
H594 H 0.16979 0.47446 0.29633 0.0
H595 H 0.15487 0.48104 0.39021 0.0
H596 H 0.18787 0.47706 0.39804 0.0
H597 H 0.0501 0.3582 0.34029 0.0
H598 H 0.0494 0.39006 0.3561 0.0
H599 H 0.06104 0.38329 0.25629 0.0
H600 H 0.05446 0.46667 0.33248 0.0
H601 H 0.08708 0.45322 0.09661 0.0
H602 H 0.10665 0.45825 0.46883 0.0
H603 H 0.06951 0.42793 0.4609 0.0
H604 H 0.0735 0.46207 0.46555 0.0
H605 H 0.14372 0.44033 0.18565 0.0
H606 H 0.12154 0.43682 0.09102 0.0
H607 H 0.1087 0.40854 0.1651 0.0
C608 C 0.57569 0.6259 0.13212 0.0
C609 C 0.55934 0.61336 0.05653 0.0
C610 C 0.59098 0.65501 0.14384 0.0
C611 C 0.59024 0.67194 0.0779 0.0
C612 C 0.57349 0.65939 1.00185 0.0
C613 C 0.55807 0.63021 0.9923 0.0
C614 C 0.60831 0.66766 0.22626 0.0
C615 C 0.5725 0.67681 0.92973 0.0
C616 C 0.61161 0.74677 0.12946 0.0
C617 C 0.6422 0.76153 0.10583 0.0
C618 C 0.59439 0.71755 0.12102 0.0
C619 C 0.60801 0.70287 0.08709 0.0
C620 C 0.63874 0.71769 0.06208 0.0
C621 C 0.65552 0.74683 0.07227 0.0
C622 C 0.56176 0.70237 0.14925 0.0
C623 C 0.65393 0.70278 0.02461 0.0
H624 H 0.57661 0.61297 0.1822 0.0
H625 H 0.54559 0.62065 0.93355 0.0
H626 H 0.63293 0.68092 0.21354 0.0
H627 H 0.60073 0.68134 0.25537 0.0
H628 H 0.60527 0.65152 0.27293 0.0
H629 H 0.55774 0.66377 0.87571 0.0
H630 H 0.56398 0.69052 0.95258 0.0
H631 H 0.5958 0.69058 0.90603 0.0
H632 H 0.60124 0.75801 0.15582 0.0
H633 H 0.6791 0.75812 0.05346 0.0
H634 H 0.55873 0.68723 0.19946 0.0
H635 H 0.54643 0.69024 0.09511 0.0
H636 H 0.55459 0.71687 0.1745 0.0
H637 H 0.65388 0.68779 0.07115 0.0
H638 H 0.6778 0.71746 1.00662 0.0
H639 H 0.64104 0.69054 0.96723 0.0
C640 C 0.38107 0.92952 0.17716 0.0
C641 C 0.39962 0.95785 0.19873 0.0
C642 C 0.35351 0.91291 0.21821 0.0
C643 C 0.34438 0.92499 0.28244 0.0
C644 C 0.36356 0.95336 0.30666 0.0
C645 C 0.39103 0.96947 0.26443 0.0
C646 C 0.33333 0.88292 0.1891 0.0
C647 C 0.35431 0.96722 0.37335 0.0
C648 C 0.25963 0.89312 0.30988 0.0
C649 C 0.25406 0.87445 0.37602 0.0
C650 C 0.28902 0.90984 0.27918 0.0
C651 C 0.31352 0.90859 0.31808 0.0
C652 C 0.30818 0.89067 0.38772 0.0
C653 C 0.27825 0.87323 0.41471 0.0
C654 C 0.29357 0.92788 0.20278 0.0
C655 C 0.33399 0.88972 0.43277 0.0
H656 H 0.38765 0.92052 0.12613 0.0
H657 H 0.40491 0.99151 0.27988 0.0
H658 H 0.32696 0.86872 0.24407 0.0
H659 H 0.31197 0.88025 0.16048 0.0
H660 H 0.34445 0.87636 0.14128 0.0
H661 H 0.37411 0.98692 0.3982 0.0
H662 H 0.33778 0.97243 0.34494 0.0
H663 H 0.34305 0.95303 0.42726 0.0
H664 H 0.2407 0.89366 0.27937 0.0
H665 H 0.27374 0.85876 0.4661 0.0
H666 H 0.30309 0.92151 0.14988 0.0
H667 H 0.31015 0.95006 0.21846 0.0
H668 H 0.27203 0.92635 0.18002 0.0
H669 H 0.3447 0.88166 0.38866 0.0
H670 H 0.32629 0.87623 0.48968 0.0
H671 H 0.35179 0.91112 0.45289 0.0
C672 C 0.40849 0.04907 0.91251 0.0
C673 C 0.42432 0.05389 0.99028 0.0
C674 C 0.39188 0.06232 0.89417 0.0
C675 C 0.39073 0.08049 0.95564 0.0
C676 C 0.40665 0.08546 0.0343 0.0
C677 C 0.42348 0.07224 0.05046 0.0
C678 C 0.37552 0.05682 0.80912 0.0
C679 C 0.40558 0.10445 0.10174 0.0
C680 C 0.36888 0.13326 0.88368 0.0
C681 C 0.33793 0.11966 0.90341 0.0
C682 C 0.38633 0.12067 0.8999 0.0
C683 C 0.37256 0.09405 0.93781 0.0
C684 C 0.34135 0.08024 0.95805 0.0
C685 C 0.32434 0.09313 0.94001 0.0
C686 C 0.41946 0.13582 0.87632 0.0
C687 C 0.32599 0.05194 0.99938 0.0
H688 H 0.40922 0.03503 0.86553 0.0
H689 H 0.43555 0.07589 0.11086 0.0
H690 H 0.35071 0.04721 0.81868 0.0
H691 H 0.38322 0.07682 0.77573 0.0
H692 H 0.37943 0.04273 0.76741 0.0
H693 H 0.41921 0.10608 0.15956 0.0
H694 H 0.41427 0.12569 0.07606 0.0
H695 H 0.38169 0.09651 0.1204 0.0
H696 H 0.37947 0.15373 0.8551 0.0
H697 H 0.30047 0.0826 0.95593 0.0
H698 H 0.42383 0.12273 0.83158 0.0
H699 H 0.43392 0.13951 0.9339 0.0
H700 H 0.4266 0.15624 0.84619 0.0
H701 H 0.32749 0.03647 0.95775 0.0
H702 H 0.30165 0.04421 1.01225 0.0
H703 H 0.33782 0.05304 0.06036 0.0
C704 C 0.87735 0.29415 0.70874 0.0
C705 C 0.84751 0.28913 0.70866 0.0
C706 C 0.90127 0.31843 0.74654 0.0
C707 C 0.89517 0.33839 0.78342 0.0
C708 C 0.86539 0.33435 0.77761 0.0
C709 C 0.84181 0.30963 0.74019 0.0
C710 C 0.93261 0.32188 0.75134 0.0
C711 C 0.85813 0.35543 0.81476 0.0
C712 C 0.94258 0.38162 0.97361 0.0
C713 C 0.96193 0.40747 0.93668 0.0
C714 C 0.9214 0.35877 0.9238 0.0
C715 C 0.91912 0.36203 0.83514 0.0
C716 C 0.93914 0.3879 0.79708 0.0
C717 C 0.96053 0.41027 0.8483 0.0
C718 C 0.90085 0.33135 0.96654 0.0
C719 C 0.93711 0.39232 0.70305 0.0
H720 H 0.88161 0.27835 0.68239 0.0
H721 H 0.8187 0.3057 0.73884 0.0
H722 H 0.94989 0.34285 0.72897 0.0
H723 H 0.93847 0.32028 0.81854 0.0
H724 H 0.93412 0.30576 0.71287 0.0
H725 H 0.83481 0.35069 0.79687 0.0
H726 H 0.86003 0.35556 0.88521 0.0
H727 H 0.8747 0.37676 0.79312 0.0
H728 H 0.94362 0.3794 0.04188 0.0
H729 H 0.97515 0.43037 0.81963 0.0
H730 H 0.90237 0.31419 0.93469 0.0
H731 H 0.87687 0.3263 0.96062 0.0
H732 H 0.90667 0.33184 0.03516 0.0
H733 H 0.93818 0.37586 0.66542 0.0
H734 H 0.95558 0.41309 0.68247 0.0
H735 H 0.91493 0.39066 0.68775 0.0
C736 C 0.71215 0.55555 0.67837 0.0
C737 C 0.72539 0.58069 0.63383 0.0
C738 C 0.68301 0.5445 0.71238 0.0
C739 C 0.66685 0.55887 0.70046 0.0
C740 C 0.67901 0.58275 0.64853 0.0
C741 C 0.70825 0.59348 0.61627 0.0
C742 C 0.6709 0.51901 0.76751 0.0
C743 C 0.66231 0.59841 0.63318 0.0
C744 C 0.5851 0.52861 0.77114 0.0
C745 C 0.58962 0.5416 0.85106 0.0
C746 C 0.61011 0.53325 0.72209 0.0
C747 C 0.63998 0.55194 0.75286 0.0
C748 C 0.64448 0.56516 0.83336 0.0
C749 C 0.61926 0.5596 0.88171 0.0
C750 C 0.60483 0.518 0.63817 0.0
C751 C 0.67598 0.5853 0.86851 0.0
H752 H 0.72537 0.54562 0.69213 0.0
H753 H 0.71832 0.61275 0.58084 0.0
H754 H 0.67467 0.52568 0.83545 0.0
H755 H 0.64609 0.505 0.75695 0.0
H756 H 0.68257 0.507 0.75543 0.0
H757 H 0.67272 0.61399 0.58189 0.0
H758 H 0.63816 0.5837 0.61584 0.0
H759 H 0.66274 0.60956 0.69254 0.0
H760 H 0.56215 0.5143 0.74835 0.0
H761 H 0.62272 0.5696 0.94367 0.0
H762 H 0.61733 0.50643 0.63746 0.0
H763 H 0.61385 0.53324 0.58577 0.0
H764 H 0.58042 0.50293 0.62541 0.0
H765 H 0.68965 0.57485 0.87219 0.0
H766 H 0.6755 0.59341 0.93293 0.0
H767 H 0.68783 0.60329 0.82534 0.0
C768 C 0.85062 0.52719 0.78625 0.0
C769 C 0.85164 0.5281 0.69735 0.0
C770 C 0.8685 0.51931 0.83334 0.0
C771 C 0.88711 0.51125 0.79006 0.0
C772 C 0.88634 0.50994 0.69988 0.0
C773 C 0.8686 0.51854 0.65436 0.0
C774 C 0.86889 0.52132 0.92932 0.0
C775 C 0.90529 0.50073 0.65168 0.0
C776 C 0.9586 0.52491 0.90936 0.0
C777 C 0.94906 0.49897 0.94635 0.0
C778 C 0.93875 0.52905 0.85709 0.0
C779 C 0.909 0.50643 0.83968 0.0
C780 C 0.89965 0.47992 0.87487 0.0
C781 C 0.91968 0.47663 0.92913 0.0
C782 C 0.94933 0.55781 0.82238 0.0
C783 C 0.86851 0.45511 0.85547 0.0
H784 H 0.83677 0.53392 0.81894 0.0
H785 H 0.86913 0.51913 0.58547 0.0
H786 H 0.86388 0.50121 0.9577 0.0
H787 H 0.89192 0.53747 0.95234 0.0
H788 H 0.85215 0.52689 0.95299 0.0
H789 H 0.89963 0.49794 0.58248 0.0
H790 H 0.92976 0.51655 0.66009 0.0
H791 H 0.90194 0.48078 0.67721 0.0
H792 H 0.98132 0.54214 0.92314 0.0
H793 H 0.91263 0.4564 0.95656 0.0
H794 H 0.93429 0.56554 0.84478 0.0
H795 H 0.94785 0.55689 0.75186 0.0
H796 H 0.97311 0.57315 0.84225 0.0
H797 H 0.85081 0.45873 0.88278 0.0
H798 H 0.86579 0.43543 0.8817 0.0
H799 H 0.86433 0.45243 0.78564 0.0
C800 C 0.47522 0.42172 0.03931 0.0
C801 C 0.47773 0.43912 0.97186 0.0
C802 C 0.46007 0.39261 0.02792 0.0
C803 C 0.4481 0.38082 0.94644 0.0
C804 C 0.45137 0.39842 0.87757 0.0
C805 C 0.46574 0.42735 0.89156 0.0
C806 C 0.45616 0.37445 0.10344 0.0
C807 C 0.43979 0.38672 0.7891 0.0
C808 C 0.43094 0.30703 0.89868 0.0
C809 C 0.39917 0.29183 0.90347 0.0
C810 C 0.44726 0.33604 0.91275 0.0
C811 C 0.43137 0.35004 0.93354 0.0
C812 C 0.39928 0.33476 0.93909 0.0
C813 C 0.38353 0.30597 0.92157 0.0
C814 C 0.48137 0.35179 0.90335 0.0
C815 C 0.38154 0.34887 0.96215 0.0
H816 H 0.48428 0.43081 0.10167 0.0
H817 H 0.46793 0.4408 0.83937 0.0
H818 H 0.43158 0.36015 0.11447 0.0
H819 H 0.46634 0.36126 0.09049 0.0
H820 H 0.46683 0.38693 0.16252 0.0
H821 H 0.44418 0.4033 0.7426 0.0
H822 H 0.4509 0.37508 0.76681 0.0
H823 H 0.41496 0.37172 0.78973 0.0
H824 H 0.44292 0.29614 0.88266 0.0
H825 H 0.3589 0.29459 0.92031 0.0
H826 H 0.49263 0.36316 0.9634 0.0
H827 H 0.48785 0.36765 0.85293 0.0
H828 H 0.49025 0.33777 0.88672 0.0
H829 H 0.39094 0.36133 0.02184 0.0
H830 H 0.357 0.33362 0.97083 0.0
H831 H 0.38366 0.36353 0.91139 0.0
C832 C 0.67091 0.14285 0.68269 0.0
C833 C 0.68234 0.12495 0.66738 0.0
C834 C 0.64115 0.13227 0.71159 0.0
C835 C 0.62287 0.10332 0.72692 0.0
C836 C 0.63338 0.08497 0.70442 0.0
C837 C 0.66291 0.09599 0.67431 0.0
C838 C 0.62995 0.1522 0.73079 0.0
C839 C 0.61439 0.05388 0.71872 0.0
C840 C 0.57214 0.07836 0.91743 0.0
C841 C 0.54317 0.06369 0.87895 0.0
C842 C 0.5982 0.09251 0.86847 0.0
C843 C 0.59517 0.0926 0.7788 0.0
C844 C 0.56586 0.07955 0.73996 0.0
C845 C 0.54011 0.06477 0.79056 0.0
C846 C 0.62904 0.1058 0.91255 0.0
C847 C 0.56151 0.07998 0.64498 0.0
H848 H 0.68559 0.16521 0.67593 0.0
H849 H 0.67134 0.08191 0.66117 0.0
H850 H 0.60617 0.14345 0.70717 0.0
H851 H 0.63009 0.15525 0.80066 0.0
H852 H 0.64444 0.17293 0.70165 0.0
H853 H 0.62508 0.04229 0.69259 0.0
H854 H 0.61119 0.04987 0.788 0.0
H855 H 0.59153 0.0454 0.68865 0.0
H856 H 0.57461 0.07757 0.98584 0.0
H857 H 0.51767 0.05383 0.761 0.0
H858 H 0.64313 0.12795 0.89393 0.0
H859 H 0.64116 0.09481 0.89265 0.0
H860 H 0.62738 0.10499 0.98301 0.0
H861 H 0.54003 0.07972 0.62956 0.0
H862 H 0.56 0.06105 0.61576 0.0
H863 H 0.58061 0.09862 0.61557 0.0
C864 C 0.52544 0.9627 0.1664 0.0
C865 C 0.51778 0.96665 0.08384 0.0
C866 C 0.53926 0.94664 0.18052 0.0
C867 C 0.54674 0.93538 0.10998 0.0
C868 C 0.53997 0.94018 0.02631 0.0
C869 C 0.52507 0.95535 1.01436 0.0
C870 C 0.54524 0.94124 0.27079 0.0
C871 C 0.54848 0.92932 0.94937 0.0
C872 C 0.60718 0.91526 0.13932 0.0
C873 C 0.5897 0.88598 0.13748 0.0
C874 C 0.59354 0.93163 0.13008 0.0
C875 C 0.56149 0.91842 0.12315 0.0
C876 C 0.54357 0.88892 0.12581 0.0
C877 C 0.55793 0.87306 0.13215 0.0
C878 C 0.61346 0.96303 0.12635 0.0
C879 C 0.50926 0.87412 0.12133 0.0
H880 H 0.51984 0.97146 0.22006 0.0
H881 H 0.5195 0.95872 0.95036 0.0
H882 H 0.53396 0.9184 0.28137 0.0
H883 H 0.56997 0.95002 0.28198 0.0
H884 H 0.53686 0.95053 0.31846 0.0
H885 H 0.54287 0.93602 0.88865 0.0
H886 H 0.57322 0.93683 0.95148 0.0
H887 H 0.53634 0.90615 0.94975 0.0
H888 H 0.63154 0.92549 0.14888 0.0
H889 H 0.54432 0.85045 0.13249 0.0
H890 H 0.60799 0.97305 0.17903 0.0
H891 H 0.60899 0.97067 0.06584 0.0
H892 H 0.63806 0.96997 0.13072 0.0
H893 H 0.50075 0.88276 0.17062 0.0
H894 H 0.49864 0.85124 0.13054 0.0
H895 H 0.50168 0.87767 0.05854 0.0
C896 C 0.11455 0.67782 0.42107 0.0
C897 C 0.14467 0.69433 0.39548 0.0
C898 C 0.09702 0.64981 0.3949 0.0
C899 C 0.11031 0.63789 0.34363 0.0
C900 C 0.14158 0.65393 0.32373 0.0
C901 C 0.15844 0.68211 0.3499 0.0
C902 C 0.06413 0.63342 0.42035 0.0
C903 C 0.1567 0.64185 0.27038 0.0
C904 C 0.06644 0.55936 0.3005 0.0
C905 C 0.05424 0.55822 0.21924 0.0
C906 C 0.08501 0.58519 0.34218 0.0
C907 C 0.09074 0.61015 0.30192 0.0
C908 C 0.07763 0.60881 0.22062 0.0
C909 C 0.05993 0.58285 0.1797 0.0
C910 C 0.09915 0.58581 0.42778 0.0
C911 C 0.08244 0.63485 0.17661 0.0
H912 H 0.10441 0.68727 0.45898 0.0
H913 H 0.18187 0.695 0.331 0.0
H914 H 0.0492 0.62073 0.36624 0.0
H915 H 0.06189 0.61899 0.47194 0.0
H916 H 0.05584 0.64721 0.44448 0.0
H917 H 0.18182 0.6557 0.27001 0.0
H918 H 0.15125 0.62108 0.29433 0.0
H919 H 0.14791 0.63884 0.20384 0.0
H920 H 0.06231 0.54015 0.33006 0.0
H921 H 0.05052 0.58174 0.11649 0.0
H922 H 0.09578 0.59927 0.47354 0.0
H923 H 0.12403 0.59492 0.42098 0.0
H924 H 0.08955 0.56459 0.45487 0.0
H925 H 0.07464 0.64624 0.21785 0.0
H926 H 0.07001 0.63009 0.11449 0.0
H927 H 0.10702 0.64906 0.16552 0.0
C928 C 0.42475 0.5141 0.17212 0.0
C929 C 0.44744 0.50736 0.18705 0.0
C930 C 0.3988 0.50292 0.22266 0.0
C931 C 0.39534 0.4842 0.2883 0.0
C932 C 0.41877 0.47822 0.30564 0.0
C933 C 0.44456 0.48996 0.25488 0.0
C934 C 0.37444 0.51006 0.20321 0.0
C935 C 0.41591 0.45822 0.37469 0.0
C936 C 0.33344 0.4614 0.4525 0.0
C937 C 0.31076 0.43606 0.41663 0.0
C938 C 0.36096 0.47783 0.4105 0.0
C939 C 0.36587 0.46827 0.33185 0.0
C940 C 0.34296 0.4426 0.29574 0.0
C941 C 0.31569 0.42682 0.33871 0.0
C942 C 0.38487 0.50516 0.45056 0.0
C943 C 0.34756 0.43135 0.21292 0.0
H944 H 0.42698 0.52763 0.11981 0.0
H945 H 0.46182 0.48439 0.26587 0.0
H946 H 0.3541 0.49148 0.17532 0.0
H947 H 0.3673 0.51591 0.26254 0.0
H948 H 0.3822 0.5275 0.15763 0.0
H949 H 0.43692 0.45701 0.38287 0.0
H950 H 0.41088 0.46472 0.43632 0.0
H951 H 0.39669 0.43699 0.35893 0.0
H952 H 0.32954 0.46823 0.51334 0.0
H953 H 0.29854 0.40672 0.31277 0.0
H954 H 0.39171 0.52236 0.40466 0.0
H955 H 0.40552 0.5041 0.46689 0.0
H956 H 0.37678 0.51039 0.50929 0.0
H957 H 0.35296 0.44675 0.16168 0.0
H958 H 0.32718 0.41131 0.19276 0.0
H959 H 0.36715 0.42794 0.21966 0.0
C960 C 0.8541 0.76666 0.4963 0.0
C961 C 0.8265 0.74839 0.53524 0.0
C962 C 0.85616 0.78691 0.4393 0.0
C963 C 0.83046 0.78982 0.4248 0.0
C964 C 0.80392 0.774 0.47279 0.0
C965 C 0.80215 0.75324 0.52663 0.0
C966 C 0.88492 0.80338 0.38969 0.0
C967 C 0.77645 0.7774 0.46219 0.0
C968 C 0.82835 0.84642 0.2969 0.0
C969 C 0.81061 0.83065 0.22647 0.0
C970 C 0.83693 0.83405 0.3609 0.0
C971 C 0.82904 0.80579 0.35129 0.0
C972 C 0.81528 0.7912 0.27433 0.0
C973 C 0.8059 0.80368 0.21337 0.0
C974 C 0.85179 0.85048 0.44168 0.0
C975 C 0.80782 0.76142 0.25963 0.0
H976 H 0.87378 0.76453 0.50759 0.0
H977 H 0.781 0.73973 0.55835 0.0
H978 H 0.88162 0.79366 0.32556 0.0
H979 H 0.89038 0.82525 0.3808 0.0
H980 H 0.90464 0.80354 0.42135 0.0
H981 H 0.75968 0.76679 0.51315 0.0
H982 H 0.78337 0.79986 0.46265 0.0
H983 H 0.76506 0.76829 0.39991 0.0
H984 H 0.83449 0.86801 0.3042 0.0
H985 H 0.79294 0.79148 0.15811 0.0
H986 H 0.86859 0.84532 0.46833 0.0
H987 H 0.83404 0.84505 0.49001 0.0
H988 H 0.86327 0.87335 0.43112 0.0
H989 H 0.82735 0.75893 0.27877 0.0
H990 H 0.80177 0.75475 0.19194 0.0
H991 H 0.78822 0.74722 0.29917 0.0
C992 C 0.17556 0.01205 0.7991 0.0
C993 C 0.16893 0.03341 0.78669 0.0
C994 C 0.16406 0.98908 0.74314 0.0
C995 C 0.14601 0.98781 0.67204 0.0
C996 C 0.13685 0.00793 0.66386 0.0
C997 C 0.14798 0.03028 0.72273 0.0
C998 C 0.17349 0.96753 0.75605 0.0
C999 C 0.11763 0.00737 0.58915 0.0
C1000 C 0.16427 0.95592 0.48646 0.0
C1001 C 0.14043 0.92804 0.48792 0.0
C1002 C 0.16491 0.97616 0.54141 0.0
C1003 C 0.1414 0.96828 0.60073 0.0
C1004 C 0.116 0.94083 0.59793 0.0
C1005 C 0.11552 0.92117 0.54008 0.0
C1006 C 0.19194 0.00553 0.54006 0.0
C1007 C 0.09038 0.93165 0.65976 0.0
H1008 H 0.19135 0.01422 0.84959 0.0
H1009 H 0.14162 0.0461 0.71607 0.0
H1010 H 0.15374 0.94612 0.74661 0.0
H1011 H 0.19073 0.97053 0.7084 0.0
H1012 H 0.18349 0.96913 0.82059 0.0
H1013 H 0.10682 0.02008 0.60207 0.0
H1014 H 0.13231 0.01615 0.53295 0.0
H1015 H 0.09966 0.98571 0.57235 0.0
H1016 H 0.18335 0.96171 0.4452 0.0
H1017 H 0.09592 0.9004 0.53753 0.0
H1018 H 0.20651 0.00926 0.59747 0.0
H1019 H 0.18435 0.02109 0.54146 0.0
H1020 H 0.206 0.0092 0.48288 0.0
H1021 H 0.09798 0.92833 0.7229 0.0
H1022 H 0.06989 0.9118 0.63892 0.0
H1023 H 0.08404 0.94792 0.6681 0.0
C1024 C 0.88844 0.20707 0.60804 0.0
C1025 C 0.86919 0.17995 0.63701 0.0
C1026 C 0.91908 0.21662 0.59271 0.0
C1027 C 0.93091 0.19879 0.60853 0.0
C1028 C 0.91198 0.17181 0.64146 0.0
C1029 C 0.88113 0.16254 0.65441 0.0
C1030 C 0.93847 0.24547 0.55665 0.0
C1031 C 0.92415 0.15263 0.66135 0.0
C1032 C -0.0009 0.21811 0.47383 0.0
C1033 C 0.02272 0.2376 0.52699 0.0
C1034 C 0.96909 0.20352 0.50178 0.0
C1035 C 0.96273 0.20823 0.58561 0.0
C1036 C 0.98682 0.22589 0.64213 0.0
C1037 C 0.01651 0.24085 0.61161 0.0
C1038 C 0.94398 0.18521 0.43902 0.0
C1039 C 0.98098 0.2309 0.73265 0.0
H1040 H 0.87935 0.22063 0.59458 0.0
H1041 H 0.86633 0.14161 0.6775 0.0
H1042 H 0.95845 0.25822 0.59908 0.0
H1043 H 0.94718 0.24387 0.49377 0.0
H1044 H 0.92572 0.25671 0.54856 0.0
H1045 H 0.90735 0.13361 0.69513 0.0
H1046 H 0.93019 0.14606 0.60147 0.0
H1047 H 0.94521 0.16378 0.70113 0.0
H1048 H 0.00391 0.21564 0.40842 0.0
H1049 H 0.03427 0.25648 0.65248 0.0
H1050 H 0.93104 0.19567 0.42127 0.0
H1051 H 0.92777 0.16495 0.46786 0.0
H1052 H 0.95294 0.18107 0.38005 0.0
H1053 H 0.97219 0.24557 0.73318 0.0
H1054 H 0.00207 0.24012 0.77269 0.0
H1055 H 0.96358 0.21113 0.7617 0.0
C1056 C 0.24984 0.22835 0.82304 0.0
C1057 C 0.23937 0.20027 0.80263 0.0
C1058 C 0.23971 0.24371 0.77647 0.0
C1059 C 0.21939 0.23084 0.70639 0.0
C1060 C 0.2082 0.2023 0.68688 0.0
C1061 C 0.218 0.18724 0.73607 0.0
C1062 C 0.25137 0.27389 0.80081 0.0
C1063 C 0.18695 0.18801 0.61172 0.0
C1064 C 0.17449 0.2633 0.62277 0.0
C1065 C 0.19261 0.2796 0.55607 0.0
C1066 C 0.18302 0.24746 0.67244 0.0
C1067 C 0.20992 0.24726 0.65322 0.0
C1068 C 0.22793 0.26306 0.58418 0.0
C1069 C 0.21937 0.27961 0.53736 0.0
C1070 C 0.1638 0.23176 0.7473 0.0
C1071 C 0.25635 0.2627 0.56049 0.0
H1072 H 0.26649 0.23848 0.87421 0.0
H1073 H 0.2103 0.16566 0.71903 0.0
H1074 H 0.26546 0.28766 0.74905 0.0
H1075 H 0.23205 0.27753 0.80927 0.0
H1076 H 0.26533 0.28015 0.86049 0.0
H1077 H 0.17999 0.16557 0.60594 0.0
H1078 H 0.16622 0.18963 0.61733 0.0
H1079 H 0.19825 0.1986 0.55217 0.0
H1080 H 0.15432 0.26401 0.63897 0.0
H1081 H 0.23348 0.29249 0.48629 0.0
H1082 H 0.17746 0.23988 0.80713 0.0
H1083 H 0.1565 0.20927 0.74182 0.0
H1084 H 0.14323 0.23373 0.75254 0.0
H1085 H 0.27337 0.27174 0.61336 0.0
H1086 H 0.26673 0.27473 0.50198 0.0
H1087 H 0.25103 0.24085 0.55019 0.0
C1088 C 0.75129 0.92808 0.31201 0.0
C1089 C 0.74295 0.93039 0.22839 0.0
C1090 C 0.75577 0.94792 0.3746 0.0
C1091 C 0.75334 0.97136 0.35178 0.0
C1092 C 0.74721 0.97487 0.26584 0.0
C1093 C 0.74118 0.95384 0.20539 0.0
C1094 C 0.76052 0.94252 0.46612 0.0
C1095 C 0.74539 6e-05 0.23872 0.0
C1096 C 0.72753 0.00559 0.51353 0.0
C1097 C 0.75519 0.02883 0.54032 0.0
C1098 C 0.72673 0.98621 0.45436 0.0
C1099 C 0.75422 0.99067 0.41904 0.0
C1100 C 0.78228 0.01344 0.44808 0.0
C1101 C 0.78245 0.03169 0.51059 0.0
C1102 C 0.69636 0.96136 0.4282 0.0
C1103 C 0.81203 0.01913 0.41098 0.0
H1104 H 0.75165 0.90942 0.33036 0.0
H1105 H 0.73416 0.95526 0.14105 0.0
H1106 H 0.782 0.96018 0.49245 0.0
H1107 H 0.74176 0.94092 0.5053 0.0
H1108 H 0.76129 0.92296 0.4732 0.0
H1109 H 0.74523 0.00182 0.16835 0.0
H1110 H 0.72427 -0.0015 0.2631 0.0
H1111 H 0.7649 0.01949 0.26594 0.0
H1112 H 0.70638 0.00297 0.53721 0.0
H1113 H 0.80395 0.04841 0.53498 0.0
H1114 H 0.69744 0.94186 0.42929 0.0
H1115 H 0.69046 0.96403 0.36209 0.0
H1116 H 0.6778 0.95878 0.47031 0.0
H1117 H 0.81539 0.00111 0.42143 0.0
H1118 H 0.83184 0.03817 0.43912 0.0
H1119 H 0.81153 0.02182 0.34114 0.0
C1120 C 0.92748 0.66667 0.51169 0.0
C1121 C 0.91495 0.67563 0.57441 0.0
C1122 C 0.95756 0.68396 0.4863 0.0
C1123 C 0.97566 0.71029 0.52709 0.0
C1124 C 0.96336 0.71889 0.59297 0.0
C1125 C 0.93285 0.70165 0.61462 0.0
C1126 C 0.96961 0.67452 0.41392 0.0
C1127 C 0.98232 0.74637 0.64002 0.0
C1128 C 0.06113 0.74421 0.51228 0.0
C1129 C 0.06788 0.76567 0.45463 0.0
C1130 C 0.03119 0.72611 0.53686 0.0
C1131 C 0.0074 0.72899 0.50048 0.0
C1132 C 0.01401 0.75013 0.44017 0.0
C1133 C 0.04436 0.76864 0.41914 0.0
C1134 C 0.02514 0.70445 0.60344 0.0
C1135 C 0.98905 0.75318 0.39802 0.0
H1136 H 0.9133 0.64669 0.47971 0.0
H1137 H 0.92295 0.70846 0.66307 0.0
H1138 H 0.97666 0.68975 0.36146 0.0
H1139 H 0.99006 0.67383 0.43527 0.0
H1140 H 0.95246 0.65355 0.38847 0.0
H1141 H 0.96994 0.74897 0.69366 0.0
H1142 H 0.00355 0.7479 0.66543 0.0
H1143 H 0.98903 0.76395 0.59572 0.0
H1144 H 0.07945 0.74215 0.54043 0.0
H1145 H 0.04968 0.78519 0.37424 0.0
H1146 H 0.0463 0.70521 0.6261 0.0
H1147 H 0.00934 0.68321 0.57748 0.0
H1148 H 0.01398 0.70777 0.65884 0.0
H1149 H 0.97175 0.73298 0.3685 0.0
H1150 H -0.00215 0.76942 0.34823 0.0
H1151 H 0.97735 0.75887 0.44631 0.0
loop_
_geom_bond_atom_site_label_1
_geom_bond_atom_site_label_2
_geom_bond_distance
_geom_bond_site_symmetry_2
_ccdc_geom_bond_type
Zn0 O1 2.055 1_455 S
Zn0 O8 2.046 1_455 S
Zn0 N16 2.036 . S
Zn0 O28 2.053 . S
Zn0 O30 2.066 . S
O1 Zn0 2.055 1_655 S
O1 C4 1.259 . S
C2 O30 1.256 . S
C2 O31 1.244 . S
Zn3 O5 2.046 . S
Zn3 O7 2.055 . S
Zn3 N9 2.036 . S
Zn3 O27 2.066 . S
Zn3 O31 2.053 1_556 S
C4 O1 1.259 . S
C4 O5 1.254 1_654 S
O5 Zn3 2.046 . S
O5 C4 1.254 1_456 S
C6 O27 1.256 1_554 S
C6 O28 1.244 . S
O7 Zn3 2.055 . S
O7 C29 1.259 1_456 S
O8 Zn0 2.046 1_655 S
O8 C29 1.254 . S
N9 Zn3 2.036 . S
N9 C10 1.298 . S
N9 N12 1.398 . S
C10 N9 1.298 . S
C10 N13 1.367 . S
C10 C23 1.481 . S
C11 N12 1.299 . S
C11 N13 1.379 . S
N12 N9 1.398 . S
N12 C11 1.299 . S
N13 C10 1.367 . S
N13 C11 1.379 . S
C14 N16 1.298 . S
C14 N18 1.367 . S
C14 C22 1.481 1_455 S
C15 N17 1.299 . S
C15 N18 1.379 . S
N16 Zn0 2.036 . S
N16 C14 1.298 . S
N16 N17 1.398 . S
N17 C15 1.299 . S
N17 N16 1.398 . S
N18 C14 1.367 . S
N18 C15 1.379 . S
H19 C22 0.980 . S
H20 C22 0.981 . S
H21 C22 0.981 1_455 S
C22 C14 1.481 1_655 S
C22 H19 0.980 . S
C22 H20 0.981 . S
C22 H21 0.981 1_655 S
C23 C10 1.481 . S
C23 H24 0.980 . S
C23 H25 0.981 . S
C23 H26 0.981 . S
H24 C23 0.980 . S
H25 C23 0.981 . S
H26 C23 0.981 . S
O27 Zn3 2.066 . S
O27 C6 1.256 1_556 S
O28 Zn0 2.053 . S
O28 C6 1.244 . S
C29 O7 1.259 1_654 S
C29 O8 1.254 . S
O30 Zn0 2.066 . S
O30 C2 1.256 . S
O31 C2 1.244 . S
O31 Zn3 2.053 1_554 S
Zn32 O33 2.055 . S
Zn32 O40 2.046 . S
Zn32 N48 2.036 . S
Zn32 O60 2.053 . S
Zn32 O62 2.066 . S
O33 Zn32 2.055 . S
O33 C36 1.259 . S
C34 O62 1.256 . S
C34 O63 1.244 1_554 S
Zn35 O37 2.046 . S
Zn35 O39 2.055 . S
Zn35 N41 2.036 . S
Zn35 O59 2.066 . S
Zn35 O63 2.053 . S
C36 O33 1.259 . S
C36 O37 1.254 1_554 S
O37 Zn35 2.046 . S
O37 C36 1.254 1_556 S
C38 O59 1.256 . S
C38 O60 1.244 1_556 S
O39 Zn35 2.055 . S
O39 C61 1.259 1_556 S
O40 Zn32 2.046 . S
O40 C61 1.254 . S
N41 Zn35 2.036 . S
N41 C42 1.298 . S
N41 N44 1.398 . S
C42 N41 1.298 . S
C42 N45 1.367 . S
C42 C55 1.481 . S
C43 N44 1.299 . S
C43 N45 1.379 . S
N44 N41 1.398 . S
N44 C43 1.299 . S
N45 C42 1.367 . S
N45 C43 1.379 . S
C46 N48 1.298 . S
C46 N50 1.367 . S
C46 C54 1.481 . S
C47 N49 1.299 . S
C47 N50 1.379 . S
N48 Zn32 2.036 . S
N48 C46 1.298 . S
N48 N49 1.398 . S
N49 C47 1.299 . S
N49 N48 1.398 . S
N50 C46 1.367 . S
N50 C47 1.379 . S
H51 C54 0.980 . S
H52 C54 0.981 . S
H53 C54 0.981 . S
C54 C46 1.481 . S
C54 H51 0.980 . S
C54 H52 0.981 . S
C54 H53 0.981 . S
C55 C42 1.481 . S
C55 H56 0.980 . S
C55 H57 0.981 . S
C55 H58 0.981 . S
H56 C55 0.980 . S
H57 C55 0.981 . S
H58 C55 0.981 . S
O59 Zn35 2.066 . S
O59 C38 1.256 . S
O60 Zn32 2.053 . S
O60 C38 1.244 1_554 S
C61 O39 1.259 1_554 S
C61 O40 1.254 . S
O62 Zn32 2.066 . S
O62 C34 1.256 . S
O63 C34 1.244 1_556 S
O63 Zn35 2.053 . S
Zn64 O65 2.055 . S
Zn64 O72 2.046 . S
Zn64 N80 2.036 . S
Zn64 O92 2.053 1_545 S
Zn64 O94 2.066 1_545 S
O65 Zn64 2.055 . S
O65 C68 1.259 1_554 S
C66 O94 1.256 . S
C66 O95 1.244 1_554 S
Zn67 O69 2.046 . S
Zn67 O71 2.055 . S
Zn67 N73 2.036 1_545 S
Zn67 O91 2.066 1_545 S
Zn67 O95 2.053 1_545 S
C68 O65 1.259 1_556 S
C68 O69 1.254 . S
O69 Zn67 2.046 . S
O69 C68 1.254 . S
C70 O91 1.256 1_554 S
C70 O92 1.244 . S
O71 Zn67 2.055 . S
O71 C93 1.259 . S
O72 Zn64 2.046 . S
O72 C93 1.254 1_554 S
N73 Zn67 2.036 1_565 S
N73 C74 1.298 . S
N73 N76 1.398 . S
C74 N73 1.298 . S
C74 N77 1.367 . S
C74 C87 1.481 1_565 S
C75 N76 1.299 . S
C75 N77 1.379 . S
N76 N73 1.398 . S
N76 C75 1.299 . S
N77 C74 1.367 . S
N77 C75 1.379 . S
C78 N80 1.298 . S
C78 N82 1.367 . S
C78 C86 1.481 . S
C79 N81 1.299 . S
C79 N82 1.379 . S
N80 Zn64 2.036 . S
N80 C78 1.298 . S
N80 N81 1.398 . S
N81 C79 1.299 . S
N81 N80 1.398 . S
N82 C78 1.367 . S
N82 C79 1.379 . S
H83 C86 0.980 . S
H84 C86 0.981 . S
H85 C86 0.981 . S
C86 C78 1.481 . S
C86 H83 0.980 . S
C86 H84 0.981 . S
C86 H85 0.981 . S
C87 C74 1.481 1_545 S
C87 H88 0.980 . S
C87 H89 0.981 . S
C87 H90 0.981 1_545 S
H88 C87 0.980 . S
H89 C87 0.981 . S
H90 C87 0.981 1_565 S
O91 Zn67 2.066 1_565 S
O91 C70 1.256 1_556 S
O92 Zn64 2.053 1_565 S
O92 C70 1.244 . S
C93 O71 1.259 . S
C93 O72 1.254 1_556 S
O94 Zn64 2.066 1_565 S
O94 C66 1.256 . S
O95 C66 1.244 1_556 S
O95 Zn67 2.053 1_565 S
Zn96 O97 2.055 . S
Zn96 O104 2.046 . S
Zn96 N112 2.036 . S
Zn96 O124 2.053 . S
Zn96 O126 2.066 . S
O97 Zn96 2.055 . S
O97 C100 1.259 . S
C98 O126 1.256 . S
C98 O127 1.244 . S
Zn99 O101 2.046 . S
Zn99 O103 2.055 . S
Zn99 N105 2.036 . S
Zn99 O123 2.066 . S
Zn99 O127 2.053 . S
C100 O97 1.259 . S
C100 O101 1.254 . S
O101 Zn99 2.046 . S
O101 C100 1.254 . S
C102 O123 1.256 . S
C102 O124 1.244 . S
O103 Zn99 2.055 . S
O103 C125 1.259 . S
O104 Zn96 2.046 . S
O104 C125 1.254 . S
N105 Zn99 2.036 . S
N105 C106 1.298 . S
N105 N108 1.398 . S
C106 N105 1.298 . S
C106 N109 1.367 . S
C106 C119 1.481 . S
C107 N108 1.299 . S
C107 N109 1.379 . S
N108 N105 1.398 . S
N108 C107 1.299 . S
N109 C106 1.367 . S
N109 C107 1.379 . S
C110 N112 1.298 . S
C110 N114 1.367 . S
C110 C118 1.481 . S
C111 N113 1.299 . S
C111 N114 1.379 . S
N112 Zn96 2.036 . S
N112 C110 1.298 . S
N112 N113 1.398 . S
N113 C111 1.299 . S
N113 N112 1.398 . S
N114 C110 1.367 . S
N114 C111 1.379 . S
H115 C118 0.980 . S
H116 C118 0.981 . S
H117 C118 0.981 . S
C118 C110 1.481 . S
C118 H115 0.980 . S
C118 H116 0.981 . S
C118 H117 0.981 . S
C119 C106 1.481 . S
C119 H120 0.980 . S
C119 H121 0.981 1_554 S
C119 H122 0.981 . S
H120 C119 0.980 . S
H121 C119 0.981 1_556 S
H122 C119 0.981 . S
O123 Zn99 2.066 . S
O123 C102 1.256 . S
O124 Zn96 2.053 . S
O124 C102 1.244 . S
C125 O103 1.259 . S
C125 O104 1.254 . S
O126 Zn96 2.066 . S
O126 C98 1.256 . S
O127 C98 1.244 . S
O127 Zn99 2.053 . S
Zn128 O129 2.055 . S
Zn128 O136 2.046 . S
Zn128 N144 2.036 . S
Zn128 O156 2.053 . S
Zn128 O158 2.066 . S
O129 Zn128 2.055 . S
O129 C132 1.259 . S
C130 O158 1.256 . S
C130 O159 1.244 . S
Zn131 O133 2.046 . S
Zn131 O135 2.055 . S
Zn131 N137 2.036 . S
Zn131 O155 2.066 . S
Zn131 O159 2.053 . S
C132 O129 1.259 . S
C132 O133 1.254 . S
O133 Zn131 2.046 . S
O133 C132 1.254 . S
C134 O155 1.256 . S
C134 O156 1.244 . S
O135 Zn131 2.055 . S
O135 C157 1.259 . S
O136 Zn128 2.046 . S
O136 C157 1.254 . S
N137 Zn131 2.036 . S
N137 C138 1.298 . S
N137 N140 1.398 . S
C138 N137 1.298 . S
C138 N141 1.367 . S
C138 C151 1.481 . S
C139 N140 1.299 . S
C139 N141 1.379 . S
N140 N137 1.398 . S
N140 C139 1.299 . S
N141 C138 1.367 . S
N141 C139 1.379 . S
C142 N144 1.298 . S
C142 N146 1.367 . S
C142 C150 1.481 . S
C143 N145 1.299 . S
C143 N146 1.379 . S
N144 Zn128 2.036 . S
N144 C142 1.298 . S
N144 N145 1.398 . S
N145 C143 1.299 . S
N145 N144 1.398 . S
N146 C142 1.367 . S
N146 C143 1.379 . S
H147 C150 0.980 . S
H148 C150 0.981 . S
H149 C150 0.981 . S
C150 C142 1.481 . S
C150 H147 0.980 . S
C150 H148 0.981 . S
C150 H149 0.981 . S
C151 C138 1.481 . S
C151 H152 0.980 . S
C151 H153 0.981 . S
C151 H154 0.981 . S
H152 C151 0.980 . S
H153 C151 0.981 . S
H154 C151 0.981 . S
O155 Zn131 2.066 . S
O155 C134 1.256 . S
O156 Zn128 2.053 . S
O156 C134 1.244 . S
C157 O135 1.259 . S
C157 O136 1.254 . S
O158 Zn128 2.066 . S
O158 C130 1.256 . S
O159 C130 1.244 . S
O159 Zn131 2.053 . S
Zn160 O161 2.055 . S
Zn160 O168 2.046 . S
Zn160 N176 2.036 . S
Zn160 O188 2.053 . S
Zn160 O190 2.066 . S
O161 Zn160 2.055 . S
O161 C164 1.259 . S
C162 O190 1.256 . S
C162 O191 1.244 . S
Zn163 O165 2.046 . S
Zn163 O167 2.055 . S
Zn163 N169 2.036 . S
Zn163 O187 2.066 . S
Zn163 O191 2.053 . S
C164 O161 1.259 . S
C164 O165 1.254 . S
O165 Zn163 2.046 . S
O165 C164 1.254 . S
C166 O187 1.256 . S
C166 O188 1.244 . S
O167 Zn163 2.055 . S
O167 C189 1.259 . S
O168 Zn160 2.046 . S
O168 C189 1.254 . S
N169 Zn163 2.036 . S
N169 C170 1.298 . S
N169 N172 1.398 . S
C170 N169 1.298 . S
C170 N173 1.367 . S
C170 C183 1.481 . S
C171 N172 1.299 . S
C171 N173 1.379 . S
N172 N169 1.398 . S
N172 C171 1.299 . S
N173 C170 1.367 . S
N173 C171 1.379 . S
C174 N176 1.298 . S
C174 N178 1.367 . S
C174 C182 1.481 . S
C175 N177 1.299 . S
C175 N178 1.379 . S
N176 Zn160 2.036 . S
N176 C174 1.298 . S
N176 N177 1.398 . S
N177 C175 1.299 . S
N177 N176 1.398 . S
N178 C174 1.367 . S
N178 C175 1.379 . S
H179 C182 0.980 . S
H180 C182 0.981 . S
H181 C182 0.981 . S
C182 C174 1.481 . S
C182 H179 0.980 . S
C182 H180 0.981 . S
C182 H181 0.981 . S
C183 C170 1.481 . S
C183 H184 0.980 . S
C183 H185 0.981 . S
C183 H186 0.981 . S
H184 C183 0.980 . S
H185 C183 0.981 . S
H186 C183 0.981 . S
O187 Zn163 2.066 . S
O187 C166 1.256 . S
O188 Zn160 2.053 . S
O188 C166 1.244 . S
C189 O167 1.259 . S
C189 O168 1.254 . S
O190 Zn160 2.066 . S
O190 C162 1.256 . S
O191 C162 1.244 . S
O191 Zn163 2.053 . S
Zn192 O193 2.055 . S
Zn192 O200 2.046 . S
Zn192 N208 2.036 . S
Zn192 O220 2.053 . S
Zn192 O222 2.066 . S
O193 Zn192 2.055 . S
O193 C196 1.259 . S
C194 O222 1.256 . S
C194 O223 1.244 . S
Zn195 O197 2.046 . S
Zn195 O199 2.055 . S
Zn195 N201 2.036 . S
Zn195 O219 2.066 . S
Zn195 O223 2.053 . S
C196 O193 1.259 . S
C196 O197 1.254 . S
O197 Zn195 2.046 . S
O197 C196 1.254 . S
C198 O219 1.256 . S
C198 O220 1.244 . S
O199 Zn195 2.055 . S
O199 C221 1.259 . S
O200 Zn192 2.046 . S
O200 C221 1.254 . S
N201 Zn195 2.036 . S
N201 C202 1.298 . S
N201 N204 1.398 . S
C202 N201 1.298 . S
C202 N205 1.367 . S
C202 C215 1.481 . S
C203 N204 1.299 . S
C203 N205 1.379 . S
N204 N201 1.398 . S
N204 C203 1.299 . S
N205 C202 1.367 . S
N205 C203 1.379 . S
C206 N208 1.298 . S
C206 N210 1.367 . S
C206 C214 1.481 . S
C207 N209 1.299 . S
C207 N210 1.379 . S
N208 Zn192 2.036 . S
N208 C206 1.298 . S
N208 N209 1.398 . S
N209 C207 1.299 . S
N209 N208 1.398 . S
N210 C206 1.367 . S
N210 C207 1.379 . S
H211 C214 0.980 . S
H212 C214 0.981 1_554 S
H213 C214 0.981 . S
C214 C206 1.481 . S
C214 H211 0.980 . S
C214 H212 0.981 1_556 S
C214 H213 0.981 . S
C215 C202 1.481 . S
C215 H216 0.980 . S
C215 H217 0.981 . S
C215 H218 0.981 . S
H216 C215 0.980 . S
H217 C215 0.981 . S
H218 C215 0.981 . S
O219 Zn195 2.066 . S
O219 C198 1.256 . S
O220 Zn192 2.053 . S
O220 C198 1.244 . S
C221 O199 1.259 . S
C221 O200 1.254 . S
O222 Zn192 2.066 . S
O222 C194 1.256 . S
O223 C194 1.244 . S
O223 Zn195 2.053 . S
Zn224 O225 2.055 . S
Zn224 O232 2.046 . S
Zn224 N240 2.036 . S
Zn224 O252 2.053 . S
Zn224 O254 2.066 . S
O225 Zn224 2.055 . S
O225 C228 1.259 . S
C226 O254 1.256 . S
C226 O255 1.244 . S
Zn227 O229 2.046 . S
Zn227 O231 2.055 . S
Zn227 N233 2.036 . S
Zn227 O251 2.066 . S
Zn227 O255 2.053 . S
C228 O225 1.259 . S
C228 O229 1.254 . S
O229 Zn227 2.046 . S
O229 C228 1.254 . S
C230 O251 1.256 . S
C230 O252 1.244 . S
O231 Zn227 2.055 . S
O231 C253 1.259 . S
O232 Zn224 2.046 . S
O232 C253 1.254 . S
N233 Zn227 2.036 . S
N233 C234 1.298 . S
N233 N236 1.398 . S
C234 N233 1.298 . S
C234 N237 1.367 . S
C234 C247 1.481 . S
C235 N236 1.299 . S
C235 N237 1.379 . S
N236 N233 1.398 . S
N236 C235 1.299 . S
N237 C234 1.367 . S
N237 C235 1.379 . S
C238 N240 1.298 . S
C238 N242 1.367 . S
C238 C246 1.481 . S
C239 N241 1.299 . S
C239 N242 1.379 . S
N240 Zn224 2.036 . S
N240 C238 1.298 . S
N240 N241 1.398 . S
N241 C239 1.299 . S
N241 N240 1.398 . S
N242 C238 1.367 . S
N242 C239 1.379 . S
H243 C246 0.980 . S
H244 C246 0.981 . S
H245 C246 0.981 . S
C246 C238 1.481 . S
C246 H243 0.980 . S
C246 H244 0.981 . S
C246 H245 0.981 . S
C247 C234 1.481 . S
C247 H248 0.980 . S
C247 H249 0.981 . S
C247 H250 0.981 . S
H248 C247 0.980 . S
H249 C247 0.981 . S
H250 C247 0.981 . S
O251 Zn227 2.066 . S
O251 C230 1.256 . S
O252 Zn224 2.053 . S
O252 C230 1.244 . S
C253 O231 1.259 . S
C253 O232 1.254 . S
O254 Zn224 2.066 . S
O254 C226 1.256 . S
O255 C226 1.244 . S
O255 Zn227 2.053 . S
Zn256 O257 2.055 . S
Zn256 O264 2.046 . S
Zn256 N272 2.036 . S
Zn256 O284 2.053 . S
Zn256 O286 2.066 . S
O257 Zn256 2.055 . S
O257 C260 1.259 . S
C258 O286 1.256 . S
C258 O287 1.244 . S
Zn259 O261 2.046 . S
Zn259 O263 2.055 . S
Zn259 N265 2.036 . S
Zn259 O283 2.066 . S
Zn259 O287 2.053 . S
C260 O257 1.259 . S
C260 O261 1.254 . S
O261 Zn259 2.046 . S
O261 C260 1.254 . S
C262 O283 1.256 . S
C262 O284 1.244 . S
O263 Zn259 2.055 . S
O263 C285 1.259 . S
O264 Zn256 2.046 . S
O264 C285 1.254 . S
N265 Zn259 2.036 . S
N265 C266 1.298 . S
N265 N268 1.398 . S
C266 N265 1.298 . S
C266 N269 1.367 . S
C266 C279 1.481 . S
C267 N268 1.299 . S
C267 N269 1.379 . S
N268 N265 1.398 . S
N268 C267 1.299 . S
N269 C266 1.367 . S
N269 C267 1.379 . S
C270 N272 1.298 . S
C270 N274 1.367 . S
C270 C278 1.481 . S
C271 N273 1.299 . S
C271 N274 1.379 . S
N272 Zn256 2.036 . S
N272 C270 1.298 . S
N272 N273 1.398 . S
N273 C271 1.299 . S
N273 N272 1.398 . S
N274 C270 1.367 . S
N274 C271 1.379 . S
H275 C278 0.980 . S
H276 C278 0.981 . S
H277 C278 0.981 . S
C278 C270 1.481 . S
C278 H275 0.980 . S
C278 H276 0.981 . S
C278 H277 0.981 . S
C279 C266 1.481 . S
C279 H280 0.980 . S
C279 H281 0.981 . S
C279 H282 0.981 . S
H280 C279 0.980 . S
H281 C279 0.981 . S
H282 C279 0.981 . S
O283 Zn259 2.066 . S
O283 C262 1.256 . S
O284 Zn256 2.053 . S
O284 C262 1.244 . S
C285 O263 1.259 . S
C285 O264 1.254 . S
O286 Zn256 2.066 . S
O286 C258 1.256 . S
O287 C258 1.244 . S
O287 Zn259 2.053 . S
C288 C289 1.391 . S
C288 C290 1.394 . S
C288 H304 0.931 . S
C289 C288 1.391 . S
C289 C293 1.376 . S
C290 C288 1.394 . S
C290 C291 1.369 . S
C290 C294 1.531 . S
C291 C290 1.369 . S
C291 C292 1.410 . S
C291 C299 1.503 . S
C292 C291 1.410 . S
C292 C293 1.392 . S
C292 C295 1.511 . S
C293 C289 1.376 . S
C293 C292 1.392 . S
C293 H305 0.929 . S
C294 C290 1.531 . S
C294 H306 0.960 . S
C294 H307 0.962 1_455 S
C294 H308 0.960 . S
C295 C292 1.511 . S
C295 H309 0.961 . S
C295 H310 0.961 . S
C295 H311 0.961 . S
C296 C297 1.370 1_455 S
C296 C298 1.363 . S
C296 H312 0.931 1_455 S
C297 C296 1.370 1_655 S
C297 C301 1.408 1_655 S
C298 C296 1.363 . S
C298 C299 1.370 . S
C298 C302 1.524 . S
C299 C291 1.503 . S
C299 C298 1.370 . S
C299 C300 1.403 . S
C300 C299 1.403 . S
C300 C301 1.404 . S
C300 C303 1.539 . S
C301 C297 1.408 1_455 S
C301 C300 1.404 . S
C301 H313 0.930 . S
C302 C298 1.524 . S
C302 H314 0.956 . S
C302 H315 0.961 . S
C302 H316 0.961 . S
C303 C300 1.539 . S
C303 H317 0.958 . S
C303 H318 0.961 . S
C303 H319 0.960 . S
H304 C288 0.931 . S
H305 C293 0.929 . S
H306 C294 0.960 . S
H307 C294 0.962 1_655 S
H308 C294 0.960 . S
H309 C295 0.961 . S
H310 C295 0.961 . S
H311 C295 0.961 . S
H312 C296 0.931 1_655 S
H313 C301 0.930 . S
H314 C302 0.956 . S
H315 C302 0.961 . S
H316 C302 0.961 . S
H317 C303 0.958 . S
H318 C303 0.961 . S
H319 C303 0.960 . S
C320 C321 1.391 . S
C320 C322 1.394 . S
C320 H336 0.931 . S
C321 C320 1.391 . S
C321 C325 1.376 . S
C322 C320 1.394 . S
C322 C323 1.369 . S
C322 C326 1.531 . S
C323 C322 1.369 . S
C323 C324 1.410 . S
C323 C331 1.503 . S
C324 C323 1.410 . S
C324 C325 1.392 . S
C324 C327 1.511 . S
C325 C321 1.376 . S
C325 C324 1.392 . S
C325 H337 0.929 . S
C326 C322 1.531 . S
C326 H338 0.960 . S
C326 H339 0.962 . S
C326 H340 0.960 . S
C327 C324 1.511 . S
C327 H341 0.961 . S
C327 H342 0.961 . S
C327 H343 0.961 . S
C328 C329 1.370 . S
C328 C330 1.363 . S
C328 H344 0.931 . S
C329 C328 1.370 . S
C329 C333 1.408 . S
C330 C328 1.363 . S
C330 C331 1.370 . S
C330 C334 1.524 . S
C331 C323 1.503 . S
C331 C330 1.370 . S
C331 C332 1.403 . S
C332 C331 1.403 . S
C332 C333 1.404 . S
C332 C335 1.539 . S
C333 C329 1.408 . S
C333 C332 1.404 . S
C333 H345 0.930 . S
C334 C330 1.524 . S
C334 H346 0.956 . S
C334 H347 0.961 . S
C334 H348 0.961 . S
C335 C332 1.539 . S
C335 H349 0.958 . S
C335 H350 0.961 . S
C335 H351 0.960 . S
H336 C320 0.931 . S
H337 C325 0.929 . S
H338 C326 0.960 . S
H339 C326 0.962 . S
H340 C326 0.960 . S
H341 C327 0.961 . S
H342 C327 0.961 . S
H343 C327 0.961 . S
H344 C328 0.931 . S
H345 C333 0.930 . S
H346 C334 0.956 . S
H347 C334 0.961 . S
H348 C334 0.961 . S
H349 C335 0.958 . S
H350 C335 0.961 . S
H351 C335 0.960 . S
C352 C353 1.391 . S
C352 C354 1.394 . S
C352 H368 0.931 . S
C353 C352 1.391 . S
C353 C357 1.376 . S
C354 C352 1.394 . S
C354 C355 1.369 . S
C354 C358 1.531 . S
C355 C354 1.369 . S
C355 C356 1.410 1_565 S
C355 C363 1.503 1_565 S
C356 C355 1.410 1_545 S
C356 C357 1.392 1_545 S
C356 C359 1.511 . S
C357 C353 1.376 . S
C357 C356 1.392 1_565 S
C357 H369 0.929 . S
C358 C354 1.531 . S
C358 H370 0.960 . S
C358 H371 0.962 . S
C358 H372 0.960 . S
C359 C356 1.511 . S
C359 H373 0.961 . S
C359 H374 0.961 . S
C359 H375 0.961 . S
C360 C361 1.370 . S
C360 C362 1.363 . S
C360 H376 0.931 . S
C361 C360 1.370 . S
C361 C365 1.408 . S
C362 C360 1.363 . S
C362 C363 1.370 . S
C362 C366 1.524 1_545 S
C363 C355 1.503 1_545 S
C363 C362 1.370 . S
C363 C364 1.403 . S
C364 C363 1.403 . S
C364 C365 1.404 . S
C364 C367 1.539 . S
C365 C361 1.408 . S
C365 C364 1.404 . S
C365 H377 0.930 . S
C366 C362 1.524 1_565 S
C366 H378 0.956 . S
C366 H379 0.961 . S
C366 H380 0.961 . S
C367 C364 1.539 . S
C367 H381 0.958 . S
C367 H382 0.961 . S
C367 H383 0.960 . S
H368 C352 0.931 . S
H369 C357 0.929 . S
H370 C358 0.960 . S
H371 C358 0.962 . S
H372 C358 0.960 . S
H373 C359 0.961 . S
H374 C359 0.961 . S
H375 C359 0.961 . S
H376 C360 0.931 . S
H377 C365 0.930 . S
H378 C366 0.956 . S
H379 C366 0.961 . S
H380 C366 0.961 . S
H381 C367 0.958 . S
H382 C367 0.961 . S
H383 C367 0.960 . S
C384 C385 1.391 . S
C384 C386 1.394 . S
C384 H400 0.931 . S
C385 C384 1.391 . S
C385 C389 1.376 . S
C386 C384 1.394 . S
C386 C387 1.369 . S
C386 C390 1.531 . S
C387 C386 1.369 . S
C387 C388 1.410 . S
C387 C395 1.503 . S
C388 C387 1.410 . S
C388 C389 1.392 . S
C388 C391 1.511 . S
C389 C385 1.376 . S
C389 C388 1.392 . S
C389 H401 0.929 . S
C390 C386 1.531 . S
C390 H402 0.960 . S
C390 H403 0.962 . S
C390 H404 0.960 . S
C391 C388 1.511 . S
C391 H405 0.961 . S
C391 H406 0.961 . S
C391 H407 0.961 . S
C392 C393 1.370 . S
C392 C394 1.363 . S
C392 H408 0.931 . S
C393 C392 1.370 . S
C393 C397 1.408 . S
C394 C392 1.363 . S
C394 C395 1.370 . S
C394 C398 1.524 . S
C395 C387 1.503 . S
C395 C394 1.370 . S
C395 C396 1.403 . S
C396 C395 1.403 . S
C396 C397 1.404 . S
C396 C399 1.539 . S
C397 C393 1.408 . S
C397 C396 1.404 . S
C397 H409 0.930 . S
C398 C394 1.524 . S
C398 H410 0.956 . S
C398 H411 0.961 . S
C398 H412 0.961 . S
C399 C396 1.539 . S
C399 H413 0.958 . S
C399 H414 0.961 . S
C399 H415 0.960 . S
H400 C384 0.931 . S
H401 C389 0.929 . S
H402 C390 0.960 . S
H403 C390 0.962 . S
H404 C390 0.960 . S
H405 C391 0.961 . S
H406 C391 0.961 . S
H407 C391 0.961 . S
H408 C392 0.931 . S
H409 C397 0.930 . S
H410 C398 0.956 . S
H411 C398 0.961 . S
H412 C398 0.961 . S
H413 C399 0.958 . S
H414 C399 0.961 . S
H415 C399 0.960 . S
C416 C417 1.391 . S
C416 C418 1.394 . S
C416 H432 0.931 . S
C417 C416 1.391 . S
C417 C421 1.376 . S
C418 C416 1.394 . S
C418 C419 1.369 . S
C418 C422 1.531 . S
C419 C418 1.369 . S
C419 C420 1.410 . S
C419 C427 1.503 . S
C420 C419 1.410 . S
C420 C421 1.392 . S
C420 C423 1.511 . S
C421 C417 1.376 . S
C421 C420 1.392 . S
C421 H433 0.929 . S
C422 C418 1.531 . S
C422 H434 0.960 . S
C422 H435 0.962 . S
C422 H436 0.960 . S
C423 C420 1.511 . S
C423 H437 0.961 . S
C423 H438 0.961 . S
C423 H439 0.961 . S
C424 C425 1.370 . S
C424 C426 1.363 . S
C424 H440 0.931 . S
C425 C424 1.370 . S
C425 C429 1.408 . S
C426 C424 1.363 . S
C426 C427 1.370 . S
C426 C430 1.524 . S
C427 C419 1.503 . S
C427 C426 1.370 . S
C427 C428 1.403 . S
C428 C427 1.403 . S
C428 C429 1.404 . S
C428 C431 1.539 . S
C429 C425 1.408 . S
C429 C428 1.404 . S
C429 H441 0.930 . S
C430 C426 1.524 . S
C430 H442 0.956 . S
C430 H443 0.961 . S
C430 H444 0.961 . S
C431 C428 1.539 . S
C431 H445 0.958 . S
C431 H446 0.961 . S
C431 H447 0.960 . S
H432 C416 0.931 . S
H433 C421 0.929 . S
H434 C422 0.960 . S
H435 C422 0.962 . S
H436 C422 0.960 . S
H437 C423 0.961 . S
H438 C423 0.961 . S
H439 C423 0.961 . S
H440 C424 0.931 . S
H441 C429 0.930 . S
H442 C430 0.956 . S
H443 C430 0.961 . S
H444 C430 0.961 . S
H445 C431 0.958 . S
H446 C431 0.961 . S
H447 C431 0.960 . S
C448 C449 1.391 . S
C448 C450 1.394 . S
C448 H464 0.931 . S
C449 C448 1.391 . S
C449 C453 1.376 . S
C450 C448 1.394 . S
C450 C451 1.369 . S
C450 C454 1.531 . S
C451 C450 1.369 . S
C451 C452 1.410 . S
C451 C459 1.503 . S
C452 C451 1.410 . S
C452 C453 1.392 . S
C452 C455 1.511 . S
C453 C449 1.376 . S
C453 C452 1.392 . S
C453 H465 0.929 . S
C454 C450 1.531 . S
C454 H466 0.960 . S
C454 H467 0.962 . S
C454 H468 0.960 . S
C455 C452 1.511 . S
C455 H469 0.961 . S
C455 H470 0.961 . S
C455 H471 0.961 . S
C456 C457 1.370 . S
C456 C458 1.363 1_554 S
C456 H472 0.931 . S
C457 C456 1.370 . S
C457 C461 1.408 . S
C458 C456 1.363 1_556 S
C458 C459 1.370 . S
C458 C462 1.524 . S
C459 C451 1.503 . S
C459 C458 1.370 . S
C459 C460 1.403 . S
C460 C459 1.403 . S
C460 C461 1.404 1_556 S
C460 C463 1.539 . S
C461 C457 1.408 . S
C461 C460 1.404 1_554 S
C461 H473 0.930 . S
C462 C458 1.524 . S
C462 H474 0.956 . S
C462 H475 0.961 . S
C462 H476 0.961 . S
C463 C460 1.539 . S
C463 H477 0.958 . S
C463 H478 0.961 . S
C463 H479 0.960 . S
H464 C448 0.931 . S
H465 C453 0.929 . S
H466 C454 0.960 . S
H467 C454 0.962 . S
H468 C454 0.960 . S
H469 C455 0.961 . S
H470 C455 0.961 . S
H471 C455 0.961 . S
H472 C456 0.931 . S
H473 C461 0.930 . S
H474 C462 0.956 . S
H475 C462 0.961 . S
H476 C462 0.961 . S
H477 C463 0.958 . S
H478 C463 0.961 . S
H479 C463 0.960 . S
C480 C481 1.391 . S
C480 C482 1.394 . S
C480 H496 0.931 . S
C481 C480 1.391 . S
C481 C485 1.376 . S
C482 C480 1.394 . S
C482 C483 1.369 . S
C482 C486 1.531 . S
C483 C482 1.369 . S
C483 C484 1.410 . S
C483 C491 1.503 . S
C484 C483 1.410 . S
C484 C485 1.392 . S
C484 C487 1.511 . S
C485 C481 1.376 . S
C485 C484 1.392 . S
C485 H497 0.929 . S
C486 C482 1.531 . S
C486 H498 0.960 . S
C486 H499 0.962 . S
C486 H500 0.960 . S
C487 C484 1.511 . S
C487 H501 0.961 . S
C487 H502 0.961 . S
C487 H503 0.961 . S
C488 C489 1.370 . S
C488 C490 1.363 . S
C488 H504 0.931 . S
C489 C488 1.370 . S
C489 C493 1.408 . S
C490 C488 1.363 . S
C490 C491 1.370 . S
C490 C494 1.524 . S
C491 C483 1.503 . S
C491 C490 1.370 . S
C491 C492 1.403 . S
C492 C491 1.403 . S
C492 C493 1.404 . S
C492 C495 1.539 . S
C493 C489 1.408 . S
C493 C492 1.404 . S
C493 H505 0.930 . S
C494 C490 1.524 . S
C494 H506 0.956 . S
C494 H507 0.961 . S
C494 H508 0.961 . S
C495 C492 1.539 . S
C495 H509 0.958 . S
C495 H510 0.961 . S
C495 H511 0.960 . S
H496 C480 0.931 . S
H497 C485 0.929 . S
H498 C486 0.960 . S
H499 C486 0.962 . S
H500 C486 0.960 . S
H501 C487 0.961 . S
H502 C487 0.961 . S
H503 C487 0.961 . S
H504 C488 0.931 . S
H505 C493 0.930 . S
H506 C494 0.956 . S
H507 C494 0.961 . S
H508 C494 0.961 . S
H509 C495 0.958 . S
H510 C495 0.961 . S
H511 C495 0.960 . S
C512 C513 1.391 . S
C512 C514 1.394 . S
C512 H528 0.931 . S
C513 C512 1.391 . S
C513 C517 1.376 . S
C514 C512 1.394 . S
C514 C515 1.369 . S
C514 C518 1.531 . S
C515 C514 1.369 . S
C515 C516 1.410 . S
C515 C523 1.503 . S
C516 C515 1.410 . S
C516 C517 1.392 . S
C516 C519 1.511 . S
C517 C513 1.376 . S
C517 C516 1.392 . S
C517 H529 0.929 . S
C518 C514 1.531 . S
C518 H530 0.960 . S
C518 H531 0.962 . S
C518 H532 0.960 . S
C519 C516 1.511 . S
C519 H533 0.961 . S
C519 H534 0.961 . S
C519 H535 0.961 . S
C520 C521 1.370 . S
C520 C522 1.363 . S
C520 H536 0.931 . S
C521 C520 1.370 . S
C521 C525 1.408 . S
C522 C520 1.363 . S
C522 C523 1.370 . S
C522 C526 1.524 . S
C523 C515 1.503 . S
C523 C522 1.370 . S
C523 C524 1.403 . S
C524 C523 1.403 . S
C524 C525 1.404 . S
C524 C527 1.539 . S
C525 C521 1.408 . S
C525 C524 1.404 . S
C525 H537 0.930 . S
C526 C522 1.524 . S
C526 H538 0.956 . S
C526 H539 0.961 . S
C526 H540 0.961 . S
C527 C524 1.539 . S
C527 H541 0.958 . S
C527 H542 0.961 . S
C527 H543 0.960 . S
H528 C512 0.931 . S
H529 C517 0.929 . S
H530 C518 0.960 . S
H531 C518 0.962 . S
H532 C518 0.960 . S
H533 C519 0.961 . S
H534 C519 0.961 . S
H535 C519 0.961 . S
H536 C520 0.931 . S
H537 C525 0.930 . S
H538 C526 0.956 . S
H539 C526 0.961 . S
H540 C526 0.961 . S
H541 C527 0.958 . S
H542 C527 0.961 . S
H543 C527 0.960 . S
C544 C545 1.391 . S
C544 C546 1.394 . S
C544 H560 0.931 . S
C545 C544 1.391 . S
C545 C549 1.376 . S
C546 C544 1.394 . S
C546 C547 1.369 . S
C546 C550 1.531 . S
C547 C546 1.369 . S
C547 C548 1.410 . S
C547 C555 1.503 . S
C548 C547 1.410 . S
C548 C549 1.392 . S
C548 C551 1.511 . S
C549 C545 1.376 . S
C549 C548 1.392 . S
C549 H561 0.929 . S
C550 C546 1.531 . S
C550 H562 0.960 . S
C550 H563 0.962 . S
C550 H564 0.960 . S
C551 C548 1.511 . S
C551 H565 0.961 . S
C551 H566 0.961 . S
C551 H567 0.961 . S
C552 C553 1.370 1_554 S
C552 C554 1.363 . S
C552 H568 0.932 . S
C553 C552 1.370 1_556 S
C553 C557 1.408 1_556 S
C554 C552 1.363 . S
C554 C555 1.370 . S
C554 C558 1.524 . S
C555 C547 1.503 . S
C555 C554 1.370 . S
C555 C556 1.403 . S
C556 C555 1.403 . S
C556 C557 1.404 . S
C556 C559 1.539 . S
C557 C553 1.408 1_554 S
C557 C556 1.404 . S
C557 H569 0.930 . S
C558 C554 1.524 . S
C558 H570 0.956 . S
C558 H571 0.961 . S
C558 H572 0.961 . S
C559 C556 1.539 . S
C559 H573 0.958 . S
C559 H574 0.961 . S
C559 H575 0.960 . S
H560 C544 0.931 . S
H561 C549 0.929 . S
H562 C550 0.960 . S
H563 C550 0.962 . S
H564 C550 0.960 . S
H565 C551 0.961 . S
H566 C551 0.961 . S
H567 C551 0.961 . S
H568 C552 0.932 . S
H569 C557 0.930 . S
H570 C558 0.956 . S
H571 C558 0.961 . S
H572 C558 0.961 . S
H573 C559 0.958 . S
H574 C559 0.961 . S
H575 C559 0.960 . S
C576 C577 1.391 . S
C576 C578 1.394 . S
C576 H592 0.931 . S
C577 C576 1.391 . S
C577 C581 1.376 . S
C578 C576 1.394 . S
C578 C579 1.369 . S
C578 C582 1.531 . S
C579 C578 1.369 . S
C579 C580 1.410 . S
C579 C587 1.503 . S
C580 C579 1.410 . S
C580 C581 1.392 . S
C580 C583 1.511 . S
C581 C577 1.376 . S
C581 C580 1.392 . S
C581 H593 0.929 . S
C582 C578 1.531 . S
C582 H594 0.960 . S
C582 H595 0.962 . S
C582 H596 0.960 . S
C583 C580 1.511 . S
C583 H597 0.961 . S
C583 H598 0.961 . S
C583 H599 0.961 . S
C584 C585 1.370 . S
C584 C586 1.363 . S
C584 H600 0.931 . S
C585 C584 1.370 . S
C585 C589 1.408 . S
C586 C584 1.363 . S
C586 C587 1.370 . S
C586 C590 1.524 . S
C587 C579 1.503 . S
C587 C586 1.370 . S
C587 C588 1.403 . S
C588 C587 1.403 . S
C588 C589 1.404 . S
C588 C591 1.539 . S
C589 C585 1.408 . S
C589 C588 1.404 . S
C589 H601 0.930 . S
C590 C586 1.524 . S
C590 H602 0.956 . S
C590 H603 0.961 . S
C590 H604 0.961 . S
C591 C588 1.539 . S
C591 H605 0.958 . S
C591 H606 0.961 1_554 S
C591 H607 0.960 . S
H592 C576 0.931 . S
H593 C581 0.929 . S
H594 C582 0.960 . S
H595 C582 0.962 . S
H596 C582 0.960 . S
H597 C583 0.961 . S
H598 C583 0.961 . S
H599 C583 0.961 . S
H600 C584 0.931 . S
H601 C589 0.930 . S
H602 C590 0.956 . S
H603 C590 0.961 . S
H604 C590 0.961 . S
H605 C591 0.958 . S
H606 C591 0.961 1_556 S
H607 C591 0.960 . S
C608 C609 1.391 . S
C608 C610 1.394 . S
C608 H624 0.931 . S
C609 C608 1.391 . S
C609 C613 1.376 . S
C610 C608 1.394 . S
C610 C611 1.369 . S
C610 C614 1.531 . S
C611 C610 1.369 . S
C611 C612 1.410 . S
C611 C619 1.503 . S
C612 C611 1.410 . S
C612 C613 1.392 . S
C612 C615 1.511 . S
C613 C609 1.376 . S
C613 C612 1.392 . S
C613 H625 0.929 1_554 S
C614 C610 1.531 . S
C614 H626 0.960 . S
C614 H627 0.962 . S
C614 H628 0.960 . S
C615 C612 1.511 . S
C615 H629 0.961 1_554 S
C615 H630 0.961 1_554 S
C615 H631 0.961 . S
C616 C617 1.370 . S
C616 C618 1.363 . S
C616 H632 0.931 . S
C617 C616 1.370 . S
C617 C621 1.408 . S
C618 C616 1.363 . S
C618 C619 1.370 . S
C618 C622 1.524 1_554 S
C619 C611 1.503 . S
C619 C618 1.370 . S
C619 C620 1.403 . S
C620 C619 1.403 . S
C620 C621 1.404 . S
C620 C623 1.539 . S
C621 C617 1.408 . S
C621 C620 1.404 . S
C621 H633 0.930 . S
C622 C618 1.524 1_556 S
C622 H634 0.956 1_556 S
C622 H635 0.961 . S
C622 H636 0.961 . S
C623 C620 1.539 . S
C623 H637 0.958 . S
C623 H638 0.961 . S
C623 H639 0.960 . S
H624 C608 0.931 . S
H625 C613 0.929 1_556 S
H626 C614 0.960 . S
H627 C614 0.962 . S
H628 C614 0.960 . S
H629 C615 0.961 1_556 S
H630 C615 0.961 1_556 S
H631 C615 0.961 . S
H632 C616 0.931 . S
H633 C621 0.930 . S
H634 C622 0.956 1_554 S
H635 C622 0.961 . S
H636 C622 0.961 . S
H637 C623 0.958 . S
H638 C623 0.961 . S
H639 C623 0.960 . S
C640 C641 1.391 . S
C640 C642 1.394 . S
C640 H656 0.931 1_554 S
C641 C640 1.391 . S
C641 C645 1.376 . S
C642 C640 1.394 . S
C642 C643 1.369 . S
C642 C646 1.531 1_554 S
C643 C642 1.369 . S
C643 C644 1.410 . S
C643 C651 1.503 . S
C644 C643 1.410 . S
C644 C645 1.392 . S
C644 C647 1.511 . S
C645 C641 1.376 . S
C645 C644 1.392 . S
C645 H657 0.929 . S
C646 C642 1.531 1_556 S
C646 H658 0.960 1_556 S
C646 H659 0.962 . S
C646 H660 0.960 . S
C647 C644 1.511 . S
C647 H661 0.961 . S
C647 H662 0.961 . S
C647 H663 0.961 . S
C648 C649 1.370 . S
C648 C650 1.363 . S
C648 H664 0.931 . S
C649 C648 1.370 . S
C649 C653 1.408 . S
C650 C648 1.363 . S
C650 C651 1.370 . S
C650 C654 1.524 . S
C651 C643 1.503 . S
C651 C650 1.370 . S
C651 C652 1.403 . S
C652 C651 1.403 . S
C652 C653 1.404 . S
C652 C655 1.539 . S
C653 C649 1.408 . S
C653 C652 1.404 . S
C653 H665 0.930 . S
C654 C650 1.524 . S
C654 H666 0.956 . S
C654 H667 0.961 . S
C654 H668 0.961 . S
C655 C652 1.539 . S
C655 H669 0.958 . S
C655 H670 0.961 . S
C655 H671 0.960 . S
H656 C640 0.931 1_556 S
H657 C645 0.929 . S
H658 C646 0.960 1_554 S
H659 C646 0.962 . S
H660 C646 0.960 . S
H661 C647 0.961 . S
H662 C647 0.961 . S
H663 C647 0.961 . S
H664 C648 0.931 . S
H665 C653 0.930 . S
H666 C654 0.956 . S
H667 C654 0.961 . S
H668 C654 0.961 . S
H669 C655 0.958 . S
H670 C655 0.961 . S
H671 C655 0.960 . S
C672 C673 1.391 . S
C672 C674 1.394 . S
C672 H688 0.931 . S
C673 C672 1.391 . S
C673 C677 1.376 . S
C674 C672 1.394 . S
C674 C675 1.369 . S
C674 C678 1.531 . S
C675 C674 1.369 . S
C675 C676 1.410 . S
C675 C683 1.503 . S
C676 C675 1.410 . S
C676 C677 1.392 . S
C676 C679 1.511 1_556 S
C677 C673 1.376 . S
C677 C676 1.392 . S
C677 H689 0.929 1_556 S
C678 C674 1.531 . S
C678 H690 0.960 . S
C678 H691 0.962 . S
C678 H692 0.960 . S
C679 C676 1.511 1_554 S
C679 H693 0.961 . S
C679 H694 0.961 . S
C679 H695 0.961 1_554 S
C680 C681 1.370 . S
C680 C682 1.363 . S
C680 H696 0.931 . S
C681 C680 1.370 . S
C681 C685 1.408 . S
C682 C680 1.363 . S
C682 C683 1.370 . S
C682 C686 1.524 1_556 S
C683 C675 1.503 . S
C683 C682 1.370 . S
C683 C684 1.403 . S
C684 C683 1.403 . S
C684 C685 1.404 . S
C684 C687 1.539 . S
C685 C681 1.408 . S
C685 C684 1.404 . S
C685 H697 0.930 . S
C686 C682 1.524 1_554 S
C686 H698 0.956 . S
C686 H699 0.961 . S
C686 H700 0.961 . S
C687 C684 1.539 . S
C687 H701 0.958 . S
C687 H702 0.961 . S
C687 H703 0.960 . S
H688 C672 0.931 . S
H689 C677 0.929 1_554 S
H690 C678 0.960 . S
H691 C678 0.962 . S
H692 C678 0.960 . S
H693 C679 0.961 . S
H694 C679 0.961 . S
H695 C679 0.961 1_556 S
H696 C680 0.931 . S
H697 C685 0.930 . S
H698 C686 0.956 . S
H699 C686 0.961 . S
H700 C686 0.961 . S
H701 C687 0.958 . S
H702 C687 0.961 . S
H703 C687 0.960 . S
C704 C705 1.391 . S
C704 C706 1.394 . S
C704 H720 0.931 . S
C705 C704 1.391 . S
C705 C709 1.376 . S
C706 C704 1.394 . S
C706 C707 1.369 . S
C706 C710 1.531 . S
C707 C706 1.369 . S
C707 C708 1.410 . S
C707 C715 1.503 . S
C708 C707 1.410 . S
C708 C709 1.392 . S
C708 C711 1.511 . S
C709 C705 1.376 . S
C709 C708 1.392 . S
C709 H721 0.929 . S
C710 C706 1.531 . S
C710 H722 0.960 . S
C710 H723 0.962 1_556 S
C710 H724 0.960 . S
C711 C708 1.511 . S
C711 H725 0.961 . S
C711 H726 0.961 . S
C711 H727 0.961 . S
C712 C713 1.370 . S
C712 C714 1.363 . S
C712 H728 0.931 . S
C713 C712 1.370 . S
C713 C717 1.408 1_554 S
C714 C712 1.363 . S
C714 C715 1.370 1_554 S
C714 C718 1.524 . S
C715 C707 1.503 . S
C715 C714 1.370 1_556 S
C715 C716 1.403 . S
C716 C715 1.403 . S
C716 C717 1.404 . S
C716 C719 1.539 . S
C717 C713 1.408 1_556 S
C717 C716 1.404 . S
C717 H729 0.930 . S
C718 C714 1.524 . S
C718 H730 0.956 . S
C718 H731 0.961 . S
C718 H732 0.961 . S
C719 C716 1.539 . S
C719 H733 0.958 . S
C719 H734 0.961 . S
C719 H735 0.960 . S
H720 C704 0.931 . S
H721 C709 0.929 . S
H722 C710 0.960 . S
H723 C710 0.962 1_554 S
H724 C710 0.960 . S
H725 C711 0.961 . S
H726 C711 0.961 . S
H727 C711 0.961 . S
H728 C712 0.931 . S
H729 C717 0.930 . S
H730 C718 0.956 . S
H731 C718 0.961 . S
H732 C718 0.961 . S
H733 C719 0.958 . S
H734 C719 0.961 . S
H735 C719 0.960 . S
C736 C737 1.391 . S
C736 C738 1.394 . S
C736 H752 0.931 . S
C737 C736 1.391 . S
C737 C741 1.376 . S
C738 C736 1.394 . S
C738 C739 1.369 . S
C738 C742 1.531 . S
C739 C738 1.369 . S
C739 C740 1.410 . S
C739 C747 1.503 . S
C740 C739 1.410 . S
C740 C741 1.392 . S
C740 C743 1.511 . S
C741 C737 1.376 . S
C741 C740 1.392 . S
C741 H753 0.929 . S
C742 C738 1.531 . S
C742 H754 0.960 1_556 S
C742 H755 0.962 . S
C742 H756 0.960 1_556 S
C743 C740 1.511 . S
C743 H757 0.961 . S
C743 H758 0.961 . S
C743 H759 0.961 . S
C744 C745 1.370 . S
C744 C746 1.363 . S
C744 H760 0.931 . S
C745 C744 1.370 . S
C745 C749 1.408 . S
C746 C744 1.363 . S
C746 C747 1.370 . S
C746 C750 1.524 . S
C747 C739 1.503 . S
C747 C746 1.370 . S
C747 C748 1.403 . S
C748 C747 1.403 . S
C748 C749 1.404 . S
C748 C751 1.539 . S
C749 C745 1.408 . S
C749 C748 1.404 . S
C749 H761 0.930 1_556 S
C750 C746 1.524 . S
C750 H762 0.956 . S
C750 H763 0.961 . S
C750 H764 0.961 . S
C751 C748 1.539 . S
C751 H765 0.958 1_556 S
C751 H766 0.961 1_556 S
C751 H767 0.960 . S
H752 C736 0.931 . S
H753 C741 0.929 . S
H754 C742 0.960 1_554 S
H755 C742 0.962 . S
H756 C742 0.960 1_554 S
H757 C743 0.961 . S
H758 C743 0.961 . S
H759 C743 0.961 . S
H760 C744 0.931 . S
H761 C749 0.930 1_554 S
H762 C750 0.956 . S
H763 C750 0.961 . S
H764 C750 0.961 . S
H765 C751 0.958 1_554 S
H766 C751 0.961 1_554 S
H767 C751 0.960 . S
C768 C769 1.391 . S
C768 C770 1.394 . S
C768 H784 0.931 . S
C769 C768 1.391 . S
C769 C773 1.376 . S
C770 C768 1.394 . S
C770 C771 1.369 . S
C770 C774 1.531 1_556 S
C771 C770 1.369 . S
C771 C772 1.410 . S
C771 C779 1.503 . S
C772 C771 1.410 . S
C772 C773 1.392 . S
C772 C775 1.511 . S
C773 C769 1.376 . S
C773 C772 1.392 . S
C773 H785 0.929 . S
C774 C770 1.531 1_554 S
C774 H786 0.960 . S
C774 H787 0.962 . S
C774 H788 0.960 . S
C775 C772 1.511 . S
C775 H789 0.961 . S
C775 H790 0.961 . S
C775 H791 0.961 . S
C776 C777 1.370 . S
C776 C778 1.363 . S
C776 H792 0.931 1_656 S
C777 C776 1.370 . S
C777 C781 1.408 . S
C778 C776 1.363 . S
C778 C779 1.370 . S
C778 C782 1.524 . S
C779 C771 1.503 . S
C779 C778 1.370 . S
C779 C780 1.403 . S
C780 C779 1.403 . S
C780 C781 1.404 . S
C780 C783 1.539 . S
C781 C777 1.408 . S
C781 C780 1.404 . S
C781 H793 0.930 . S
C782 C778 1.524 . S
C782 H794 0.956 . S
C782 H795 0.961 . S
C782 H796 0.961 1_655 S
C783 C780 1.539 . S
C783 H797 0.958 . S
C783 H798 0.961 . S
C783 H799 0.960 . S
H784 C768 0.931 . S
H785 C773 0.929 . S
H786 C774 0.960 . S
H787 C774 0.962 . S
H788 C774 0.960 . S
H789 C775 0.961 . S
H790 C775 0.961 . S
H791 C775 0.961 . S
H792 C776 0.931 1_454 S
H793 C781 0.930 . S
H794 C782 0.956 . S
H795 C782 0.961 . S
H796 C782 0.961 1_455 S
H797 C783 0.958 . S
H798 C783 0.961 . S
H799 C783 0.960 . S
C800 C801 1.391 . S
C800 C802 1.394 . S
C800 H816 0.931 . S
C801 C800 1.391 . S
C801 C805 1.376 1_554 S
C802 C800 1.394 . S
C802 C803 1.369 1_554 S
C802 C806 1.531 . S
C803 C802 1.369 1_556 S
C803 C804 1.410 . S
C803 C811 1.503 . S
C804 C803 1.410 . S
C804 C805 1.392 . S
C804 C807 1.511 . S
C805 C801 1.376 1_556 S
C805 C804 1.392 . S
C805 H817 0.929 . S
C806 C802 1.531 . S
C806 H818 0.960 . S
C806 H819 0.962 . S
C806 H820 0.960 . S
C807 C804 1.511 . S
C807 H821 0.961 . S
C807 H822 0.961 . S
C807 H823 0.961 . S
C808 C809 1.370 . S
C808 C810 1.363 . S
C808 H824 0.931 . S
C809 C808 1.370 . S
C809 C813 1.408 . S
C810 C808 1.363 . S
C810 C811 1.370 . S
C810 C814 1.524 . S
C811 C803 1.503 . S
C811 C810 1.370 . S
C811 C812 1.403 . S
C812 C811 1.403 . S
C812 C813 1.404 . S
C812 C815 1.539 . S
C813 C809 1.408 . S
C813 C812 1.404 . S
C813 H825 0.930 . S
C814 C810 1.524 . S
C814 H826 0.956 . S
C814 H827 0.961 . S
C814 H828 0.961 . S
C815 C812 1.539 . S
C815 H829 0.958 1_556 S
C815 H830 0.961 . S
C815 H831 0.960 . S
H816 C800 0.931 . S
H817 C805 0.929 . S
H818 C806 0.960 . S
H819 C806 0.962 . S
H820 C806 0.960 . S
H821 C807 0.961 . S
H822 C807 0.961 . S
H823 C807 0.961 . S
H824 C808 0.931 . S
H825 C813 0.930 . S
H826 C814 0.956 . S
H827 C814 0.961 . S
H828 C814 0.961 . S
H829 C815 0.958 1_554 S
H830 C815 0.961 . S
H831 C815 0.960 . S
C832 C833 1.391 . S
C832 C834 1.394 . S
C832 H848 0.931 . S
C833 C832 1.391 . S
C833 C837 1.376 . S
C834 C832 1.394 . S
C834 C835 1.369 . S
C834 C838 1.531 . S
C835 C834 1.369 . S
C835 C836 1.410 . S
C835 C843 1.503 . S
C836 C835 1.410 . S
C836 C837 1.392 . S
C836 C839 1.511 . S
C837 C833 1.376 . S
C837 C836 1.392 . S
C837 H849 0.929 . S
C838 C834 1.531 . S
C838 H850 0.960 . S
C838 H851 0.962 . S
C838 H852 0.960 . S
C839 C836 1.511 . S
C839 H853 0.961 1_556 S
C839 H854 0.961 1_556 S
C839 H855 0.961 . S
C840 C841 1.370 . S
C840 C842 1.363 . S
C840 H856 0.931 1_556 S
C841 C840 1.370 . S
C841 C845 1.408 . S
C842 C840 1.363 . S
C842 C843 1.370 . S
C842 C846 1.524 . S
C843 C835 1.503 . S
C843 C842 1.370 . S
C843 C844 1.403 . S
C844 C843 1.403 . S
C844 C845 1.404 . S
C844 C847 1.539 . S
C845 C841 1.408 . S
C845 C844 1.404 . S
C845 H857 0.930 . S
C846 C842 1.524 . S
C846 H858 0.956 . S
C846 H859 0.961 . S
C846 H860 0.961 1_556 S
C847 C844 1.539 . S
C847 H861 0.958 . S
C847 H862 0.961 . S
C847 H863 0.960 . S
H848 C832 0.931 . S
H849 C837 0.929 . S
H850 C838 0.960 . S
H851 C838 0.962 . S
H852 C838 0.960 . S
H853 C839 0.961 1_554 S
H854 C839 0.961 1_554 S
H855 C839 0.961 . S
H856 C840 0.931 1_554 S
H857 C845 0.930 . S
H858 C846 0.956 . S
H859 C846 0.961 . S
H860 C846 0.961 1_554 S
H861 C847 0.958 . S
H862 C847 0.961 . S
H863 C847 0.960 . S
C864 C865 1.391 . S
C864 C866 1.394 . S
C864 H880 0.931 . S
C865 C864 1.391 . S
C865 C869 1.376 1_554 S
C866 C864 1.394 . S
C866 C867 1.369 . S
C866 C870 1.531 . S
C867 C866 1.369 . S
C867 C868 1.410 1_554 S
C867 C875 1.503 . S
C868 C867 1.410 1_556 S
C868 C869 1.392 . S
C868 C871 1.511 . S
C869 C865 1.376 1_556 S
C869 C868 1.392 . S
C869 H881 0.929 . S
C870 C866 1.531 . S
C870 H882 0.960 . S
C870 H883 0.962 . S
C870 H884 0.960 . S
C871 C868 1.511 . S
C871 H885 0.961 . S
C871 H886 0.961 . S
C871 H887 0.961 . S
C872 C873 1.370 . S
C872 C874 1.363 . S
C872 H888 0.931 . S
C873 C872 1.370 . S
C873 C877 1.408 . S
C874 C872 1.363 . S
C874 C875 1.370 . S
C874 C878 1.524 1_554 S
C875 C867 1.503 . S
C875 C874 1.370 . S
C875 C876 1.403 . S
C876 C875 1.403 . S
C876 C877 1.404 . S
C876 C879 1.539 . S
C877 C873 1.408 . S
C877 C876 1.404 . S
C877 H889 0.930 . S
C878 C874 1.524 1_556 S
C878 H890 0.956 1_556 S
C878 H891 0.961 . S
C878 H892 0.961 . S
C879 C876 1.539 . S
C879 H893 0.958 . S
C879 H894 0.961 . S
C879 H895 0.960 . S
H880 C864 0.931 . S
H881 C869 0.929 . S
H882 C870 0.960 . S
H883 C870 0.962 . S
H884 C870 0.960 . S
H885 C871 0.961 . S
H886 C871 0.961 . S
H887 C871 0.961 . S
H888 C872 0.931 . S
H889 C877 0.930 . S
H890 C878 0.956 1_554 S
H891 C878 0.961 . S
H892 C878 0.961 . S
H893 C879 0.958 . S
H894 C879 0.961 . S
H895 C879 0.960 . S
C896 C897 1.391 . S
C896 C898 1.394 . S
C896 H912 0.931 . S
C897 C896 1.391 . S
C897 C901 1.376 . S
C898 C896 1.394 . S
C898 C899 1.369 . S
C898 C902 1.531 . S
C899 C898 1.369 . S
C899 C900 1.410 . S
C899 C907 1.503 . S
C900 C899 1.410 . S
C900 C901 1.392 . S
C900 C903 1.511 . S
C901 C897 1.376 . S
C901 C900 1.392 . S
C901 H913 0.929 . S
C902 C898 1.531 . S
C902 H914 0.960 . S
C902 H915 0.962 . S
C902 H916 0.960 . S
C903 C900 1.511 . S
C903 H917 0.961 . S
C903 H918 0.961 . S
C903 H919 0.961 1_554 S
C904 C905 1.370 . S
C904 C906 1.363 . S
C904 H920 0.931 . S
C905 C904 1.370 . S
C905 C909 1.408 . S
C906 C904 1.363 . S
C906 C907 1.370 . S
C906 C910 1.524 . S
C907 C899 1.503 . S
C907 C906 1.370 . S
C907 C908 1.403 . S
C908 C907 1.403 . S
C908 C909 1.404 . S
C908 C911 1.539 1_554 S
C909 C905 1.408 . S
C909 C908 1.404 . S
C909 H921 0.930 1_554 S
C910 C906 1.524 . S
C910 H922 0.956 . S
C910 H923 0.961 . S
C910 H924 0.961 . S
C911 C908 1.539 1_556 S
C911 H925 0.958 1_556 S
C911 H926 0.961 . S
C911 H927 0.960 . S
H912 C896 0.931 . S
H913 C901 0.929 . S
H914 C902 0.960 . S
H915 C902 0.962 . S
H916 C902 0.960 . S
H917 C903 0.961 . S
H918 C903 0.961 . S
H919 C903 0.961 1_556 S
H920 C904 0.931 . S
H921 C909 0.930 1_556 S
H922 C910 0.956 . S
H923 C910 0.961 . S
H924 C910 0.961 . S
H925 C911 0.958 1_554 S
H926 C911 0.961 . S
H927 C911 0.960 . S
C928 C929 1.391 . S
C928 C930 1.394 . S
C928 H944 0.931 1_554 S
C929 C928 1.391 . S
C929 C933 1.376 . S
C930 C928 1.394 . S
C930 C931 1.369 . S
C930 C934 1.533 . S
C931 C930 1.369 . S
C931 C932 1.410 . S
C931 C939 1.503 . S
C932 C931 1.410 . S
C932 C933 1.392 . S
C932 C935 1.511 . S
C933 C929 1.376 . S
C933 C932 1.392 . S
C933 H945 0.929 . S
C934 C930 1.533 . S
C934 H946 0.961 . S
C934 H947 0.962 . S
C934 H948 0.956 1_554 S
C935 C932 1.511 . S
C935 H949 0.961 . S
C935 H950 0.961 . S
C935 H951 0.961 . S
C936 C937 1.370 . S
C936 C938 1.363 . S
C936 H952 0.931 . S
C937 C936 1.370 . S
C937 C941 1.408 . S
C938 C936 1.363 . S
C938 C939 1.370 . S
C938 C942 1.524 . S
C939 C931 1.503 . S
C939 C938 1.370 . S
C939 C940 1.403 . S
C940 C939 1.403 . S
C940 C941 1.404 . S
C940 C943 1.539 . S
C941 C937 1.408 . S
C941 C940 1.404 . S
C941 H953 0.930 . S
C942 C938 1.524 . S
C942 H954 0.956 . S
C942 H955 0.961 . S
C942 H956 0.961 . S
C943 C940 1.539 . S
C943 H957 0.958 . S
C943 H958 0.961 . S
C943 H959 0.960 . S
H944 C928 0.931 1_556 S
H945 C933 0.929 . S
H946 C934 0.961 . S
H947 C934 0.962 . S
H948 C934 0.956 1_556 S
H949 C935 0.961 . S
H950 C935 0.961 . S
H951 C935 0.961 . S
H952 C936 0.931 . S
H953 C941 0.930 . S
H954 C942 0.956 . S
H955 C942 0.961 . S
H956 C942 0.961 . S
H957 C943 0.958 . S
H958 C943 0.961 . S
H959 C943 0.960 . S
C960 C961 1.391 . S
C960 C962 1.394 . S
C960 H976 0.931 . S
C961 C960 1.391 . S
C961 C965 1.376 . S
C962 C960 1.394 . S
C962 C963 1.369 . S
C962 C966 1.531 . S
C963 C962 1.369 . S
C963 C964 1.410 . S
C963 C971 1.503 . S
C964 C963 1.410 . S
C964 C965 1.392 . S
C964 C967 1.511 . S
C965 C961 1.376 . S
C965 C964 1.392 . S
C965 H977 0.929 . S
C966 C962 1.531 . S
C966 H978 0.960 . S
C966 H979 0.962 . S
C966 H980 0.960 . S
C967 C964 1.511 . S
C967 H981 0.961 . S
C967 H982 0.961 . S
C967 H983 0.961 . S
C968 C969 1.370 . S
C968 C970 1.363 . S
C968 H984 0.931 . S
C969 C968 1.370 . S
C969 C973 1.408 . S
C970 C968 1.363 . S
C970 C971 1.370 . S
C970 C974 1.524 . S
C971 C963 1.503 . S
C971 C970 1.370 . S
C971 C972 1.403 . S
C972 C971 1.403 . S
C972 C973 1.404 . S
C972 C975 1.539 . S
C973 C969 1.408 . S
C973 C972 1.404 . S
C973 H985 0.930 . S
C974 C970 1.524 . S
C974 H986 0.956 . S
C974 H987 0.961 . S
C974 H988 0.961 . S
C975 C972 1.539 . S
C975 H989 0.958 . S
C975 H990 0.961 . S
C975 H991 0.960 . S
H976 C960 0.931 . S
H977 C965 0.929 . S
H978 C966 0.960 . S
H979 C966 0.962 . S
H980 C966 0.960 . S
H981 C967 0.961 . S
H982 C967 0.961 . S
H983 C967 0.961 . S
H984 C968 0.931 . S
H985 C973 0.930 . S
H986 C974 0.956 . S
H987 C974 0.961 . S
H988 C974 0.961 . S
H989 C975 0.958 . S
H990 C975 0.961 . S
H991 C975 0.960 . S
C992 C993 1.391 . S
C992 C994 1.394 . S
C992 H1008 0.931 . S
C993 C992 1.391 . S
C993 C997 1.376 . S
C994 C992 1.394 . S
C994 C995 1.369 . S
C994 C998 1.531 1_545 S
C995 C994 1.369 . S
C995 C996 1.410 . S
C995 C1003 1.503 1_545 S
C996 C995 1.410 . S
C996 C997 1.392 . S
C996 C999 1.511 . S
C997 C993 1.376 . S
C997 C996 1.392 . S
C997 H1009 0.929 . S
C998 C994 1.531 1_565 S
C998 H1010 0.960 . S
C998 H1011 0.962 1_565 S
C998 H1012 0.958 . S
C999 C996 1.511 . S
C999 H1013 0.961 . S
C999 H1014 0.961 . S
C999 H1015 0.961 . S
C1000 C1001 1.370 . S
C1000 C1002 1.363 . S
C1000 H1016 0.931 . S
C1001 C1000 1.370 . S
C1001 C1005 1.408 . S
C1002 C1000 1.363 . S
C1002 C1003 1.370 . S
C1002 C1006 1.524 1_565 S
C1003 C995 1.503 1_565 S
C1003 C1002 1.370 . S
C1003 C1004 1.403 . S
C1004 C1003 1.403 . S
C1004 C1005 1.404 . S
C1004 C1007 1.539 . S
C1005 C1001 1.408 . S
C1005 C1004 1.404 . S
C1005 H1017 0.930 . S
C1006 C1002 1.524 1_545 S
C1006 H1018 0.956 . S
C1006 H1019 0.961 . S
C1006 H1020 0.961 . S
C1007 C1004 1.539 . S
C1007 H1021 0.958 . S
C1007 H1022 0.961 . S
C1007 H1023 0.960 . S
H1008 C992 0.931 . S
H1009 C997 0.929 . S
H1010 C998 0.960 . S
H1011 C998 0.962 1_545 S
H1012 C998 0.958 . S
H1013 C999 0.961 . S
H1014 C999 0.961 . S
H1015 C999 0.961 . S
H1016 C1000 0.931 . S
H1017 C1005 0.930 . S
H1018 C1006 0.956 . S
H1019 C1006 0.961 . S
H1020 C1006 0.961 . S
H1021 C1007 0.958 . S
H1022 C1007 0.961 . S
H1023 C1007 0.960 . S
C1024 C1025 1.391 . S
C1024 C1026 1.394 . S
C1024 H1040 0.931 . S
C1025 C1024 1.391 . S
C1025 C1029 1.376 . S
C1026 C1024 1.394 . S
C1026 C1027 1.369 . S
C1026 C1030 1.531 . S
C1027 C1026 1.369 . S
C1027 C1028 1.410 . S
C1027 C1035 1.503 . S
C1028 C1027 1.410 . S
C1028 C1029 1.392 . S
C1028 C1031 1.511 . S
C1029 C1025 1.376 . S
C1029 C1028 1.392 . S
C1029 H1041 0.929 . S
C1030 C1026 1.531 . S
C1030 H1042 0.960 . S
C1030 H1043 0.962 . S
C1030 H1044 0.960 . S
C1031 C1028 1.511 . S
C1031 H1045 0.961 . S
C1031 H1046 0.961 . S
C1031 H1047 0.961 . S
C1032 C1033 1.370 1_655 S
C1032 C1034 1.363 . S
C1032 H1048 0.931 . S
C1033 C1032 1.370 1_455 S
C1033 C1037 1.408 . S
C1034 C1032 1.363 . S
C1034 C1035 1.370 . S
C1034 C1038 1.524 . S
C1035 C1027 1.503 . S
C1035 C1034 1.370 . S
C1035 C1036 1.403 . S
C1036 C1035 1.403 . S
C1036 C1037 1.404 1_655 S
C1036 C1039 1.539 . S
C1037 C1033 1.408 . S
C1037 C1036 1.404 1_455 S
C1037 H1049 0.930 . S
C1038 C1034 1.524 . S
C1038 H1050 0.956 . S
C1038 H1051 0.961 . S
C1038 H1052 0.961 . S
C1039 C1036 1.539 . S
C1039 H1053 0.958 . S
C1039 H1054 0.961 1_655 S
C1039 H1055 0.960 . S
H1040 C1024 0.931 . S
H1041 C1029 0.929 . S
H1042 C1030 0.960 . S
H1043 C1030 0.962 . S
H1044 C1030 0.960 . S
H1045 C1031 0.961 . S
H1046 C1031 0.961 . S
H1047 C1031 0.961 . S
H1048 C1032 0.931 . S
H1049 C1037 0.930 . S
H1050 C1038 0.956 . S
H1051 C1038 0.961 . S
H1052 C1038 0.961 . S
H1053 C1039 0.958 . S
H1054 C1039 0.961 1_455 S
H1055 C1039 0.960 . S
C1056 C1057 1.391 . S
C1056 C1058 1.394 . S
C1056 H1072 0.931 . S
C1057 C1056 1.391 . S
C1057 C1061 1.376 . S
C1058 C1056 1.394 . S
C1058 C1059 1.369 . S
C1058 C1062 1.531 . S
C1059 C1058 1.369 . S
C1059 C1060 1.410 . S
C1059 C1067 1.503 . S
C1060 C1059 1.410 . S
C1060 C1061 1.392 . S
C1060 C1063 1.511 . S
C1061 C1057 1.376 . S
C1061 C1060 1.392 . S
C1061 H1073 0.929 . S
C1062 C1058 1.531 . S
C1062 H1074 0.960 . S
C1062 H1075 0.962 . S
C1062 H1076 0.960 . S
C1063 C1060 1.511 . S
C1063 H1077 0.961 . S
C1063 H1078 0.961 . S
C1063 H1079 0.961 . S
C1064 C1065 1.370 . S
C1064 C1066 1.363 . S
C1064 H1080 0.931 . S
C1065 C1064 1.370 . S
C1065 C1069 1.408 . S
C1066 C1064 1.363 . S
C1066 C1067 1.370 . S
C1066 C1070 1.524 . S
C1067 C1059 1.503 . S
C1067 C1066 1.370 . S
C1067 C1068 1.403 . S
C1068 C1067 1.403 . S
C1068 C1069 1.404 . S
C1068 C1071 1.539 . S
C1069 C1065 1.408 . S
C1069 C1068 1.404 . S
C1069 H1081 0.930 . S
C1070 C1066 1.524 . S
C1070 H1082 0.956 . S
C1070 H1083 0.961 . S
C1070 H1084 0.961 . S
C1071 C1068 1.539 . S
C1071 H1085 0.958 . S
C1071 H1086 0.961 . S
C1071 H1087 0.960 . S
H1072 C1056 0.931 . S
H1073 C1061 0.929 . S
H1074 C1062 0.960 . S
H1075 C1062 0.962 . S
H1076 C1062 0.960 . S
H1077 C1063 0.961 . S
H1078 C1063 0.961 . S
H1079 C1063 0.961 . S
H1080 C1064 0.931 . S
H1081 C1069 0.930 . S
H1082 C1070 0.956 . S
H1083 C1070 0.961 . S
H1084 C1070 0.961 . S
H1085 C1071 0.958 . S
H1086 C1071 0.961 . S
H1087 C1071 0.960 . S
C1088 C1089 1.391 . S
C1088 C1090 1.394 . S
C1088 H1104 0.931 . S
C1089 C1088 1.391 . S
C1089 C1093 1.376 . S
C1090 C1088 1.394 . S
C1090 C1091 1.369 . S
C1090 C1094 1.531 . S
C1091 C1090 1.369 . S
C1091 C1092 1.410 . S
C1091 C1099 1.503 . S
C1092 C1091 1.410 . S
C1092 C1093 1.392 . S
C1092 C1095 1.511 . S
C1093 C1089 1.376 . S
C1093 C1092 1.392 . S
C1093 H1105 0.929 . S
C1094 C1090 1.531 . S
C1094 H1106 0.960 . S
C1094 H1107 0.962 . S
C1094 H1108 0.960 . S
C1095 C1092 1.511 . S
C1095 H1109 0.961 . S
C1095 H1110 0.961 1_565 S
C1095 H1111 0.961 . S
C1096 C1097 1.370 . S
C1096 C1098 1.363 1_545 S
C1096 H1112 0.931 . S
C1097 C1096 1.370 . S
C1097 C1101 1.408 . S
C1098 C1096 1.363 1_565 S
C1098 C1099 1.370 . S
C1098 C1102 1.524 . S
C1099 C1091 1.503 . S
C1099 C1098 1.370 . S
C1099 C1100 1.403 . S
C1100 C1099 1.403 . S
C1100 C1101 1.404 1_565 S
C1100 C1103 1.539 . S
C1101 C1097 1.408 . S
C1101 C1100 1.404 1_545 S
C1101 H1113 0.930 . S
C1102 C1098 1.524 . S
C1102 H1114 0.956 . S
C1102 H1115 0.961 . S
C1102 H1116 0.961 . S
C1103 C1100 1.539 . S
C1103 H1117 0.958 . S
C1103 H1118 0.961 . S
C1103 H1119 0.960 . S
H1104 C1088 0.931 . S
H1105 C1093 0.929 . S
H1106 C1094 0.960 . S
H1107 C1094 0.962 . S
H1108 C1094 0.960 . S
H1109 C1095 0.961 . S
H1110 C1095 0.961 1_545 S
H1111 C1095 0.961 . S
H1112 C1096 0.931 . S
H1113 C1101 0.930 . S
H1114 C1102 0.956 . S
H1115 C1102 0.961 . S
H1116 C1102 0.961 . S
H1117 C1103 0.958 . S
H1118 C1103 0.961 . S
H1119 C1103 0.960 . S
C1120 C1121 1.391 . S
C1120 C1122 1.394 . S
C1120 H1136 0.931 . S
C1121 C1120 1.391 . S
C1121 C1125 1.376 . S
C1122 C1120 1.394 . S
C1122 C1123 1.369 . S
C1122 C1126 1.531 . S
C1123 C1122 1.369 . S
C1123 C1124 1.410 . S
C1123 C1131 1.503 1_655 S
C1124 C1123 1.410 . S
C1124 C1125 1.392 . S
C1124 C1127 1.511 . S
C1125 C1121 1.376 . S
C1125 C1124 1.392 . S
C1125 H1137 0.929 . S
C1126 C1122 1.531 . S
C1126 H1138 0.960 1_655 S
C1126 H1139 0.962 1_655 S
C1126 H1140 0.960 . S
C1127 C1124 1.511 . S
C1127 H1141 0.961 . S
C1127 H1142 0.955 1_655 S
C1127 H1143 0.961 . S
C1128 C1129 1.370 . S
C1128 C1130 1.363 . S
C1128 H1144 0.931 . S
C1129 C1128 1.370 . S
C1129 C1133 1.408 . S
C1130 C1128 1.363 . S
C1130 C1131 1.370 . S
C1130 C1134 1.524 . S
C1131 C1123 1.503 1_455 S
C1131 C1130 1.370 . S
C1131 C1132 1.403 . S
C1132 C1131 1.403 . S
C1132 C1133 1.404 . S
C1132 C1135 1.539 1_455 S
C1133 C1129 1.408 . S
C1133 C1132 1.404 . S
C1133 H1145 0.930 . S
C1134 C1130 1.524 . S
C1134 H1146 0.956 . S
C1134 H1147 0.961 . S
C1134 H1148 0.961 . S
C1135 C1132 1.539 1_655 S
C1135 H1149 0.958 . S
C1135 H1150 0.961 . S
C1135 H1151 0.960 . S
H1136 C1120 0.931 . S
H1137 C1125 0.929 . S
H1138 C1126 0.960 1_455 S
H1139 C1126 0.962 1_455 S
H1140 C1126 0.960 . S
H1141 C1127 0.961 . S
H1142 C1127 0.955 1_455 S
H1143 C1127 0.961 . S
H1144 C1128 0.931 . S
H1145 C1133 0.930 . S
H1146 C1134 0.956 . S
H1147 C1134 0.961 . S
H1148 C1134 0.961 . S
H1149 C1135 0.958 . S
H1150 C1135 0.961 . S
H1151 C1135 0.960 . S
C289 N13 1.035 . S
C297 N18 0.796 1_655 S
C321 N45 0.867 . S
C329 N50 0.987 . S
C353 N77 0.957 . S
C361 N82 0.932 . S
C385 C98 2.185 . S
C393 C125 2.185 1_556 S
C417 C130 2.161 . S
C425 C157 2.194 1_556 S
C449 C162 2.181 . S
C457 C189 2.189 . S
C481 C198 2.168 . S
C489 C196 2.167 1_554 S
C513 C253 2.204 . S
C521 C226 2.180 1_554 S
C545 C262 2.181 . S
C553 C260 2.222 . S
C577 C166 1.569 . S
C585 C2 1.558 . S
C609 C61 1.570 . S
C617 C102 1.536 . S
C641 C66 1.605 . S
C649 C134 1.611 . S
C673 C68 1.742 . S
C681 C194 1.726 . S
C705 N242 1.023 . S
C713 C4 1.133 . S
C737 C258 1.646 . S
C745 C38 1.686 . S
C769 N274 1.188 . S
C777 C29 1.203 1_556 S
C801 C34 1.209 . S
C809 N210 1.145 . S
C833 C228 1.582 . S
C841 C93 1.587 . S
C865 C70 1.325 . S
C873 N109 1.213 . S
C897 N141 1.152 . S
C905 C6 1.198 . S
C929 C36 1.451 . S
C937 N173 1.419 . S
C961 N269 0.557 . S
C969 N114 0.542 . S
C993 N205 0.765 . S
C1001 N146 0.766 . S
C1025 C230 1.039 . S
C1033 N178 1.024 . S
C1057 C221 1.293 . S
C1065 C164 1.307 . S
C1089 C100 1.085 . S
C1097 N237 1.077 . S
C1121 C285 0.952 . S
C1129 C132 0.979 . S
