# Generated by pormake.
# Topology unh, (4)-cn, num edge types: 1
# Building blocks:
#     Node 0, Type 0, BuildingBlock: KOZSID_clean_sbu_0, # of connection points: 4
#     Node 1, Type 0, BuildingBlock: KOZSID_clean_sbu_0, # of connection points: 4
#     Node 2, Type 0, BuildingBlock: KOZSID_clean_sbu_0, # of connection points: 4
#     Node 3, Type 0, BuildingBlock: KOZSID_clean_sbu_0, # of connection points: 4
#     Node 4, Type 0, BuildingBlock: KOZSID_clean_sbu_0, # of connection points: 4
#     Node 5, Type 0, BuildingBlock: KOZSID_clean_sbu_0, # of connection points: 4
#     Edge 6, Type (0, 0), BuildingBlock: EZIPEK_clean_linker_0, # of connection points: 2
#     Edge 7, Type (0, 0), BuildingBlock: EZIPEK_clean_linker_0, # of connection points: 2
#     Edge 8, Type (0, 0), BuildingBlock: EZIPEK_clean_linker_0, # of connection points: 2
#     Edge 9, Type (0, 0), BuildingBlock: EZIPEK_clean_linker_0, # of connection points: 2
#     Edge 10, Type (0, 0), BuildingBlock: EZIPEK_clean_linker_0, # of connection points: 2
#     Edge 11, Type (0, 0), BuildingBlock: EZIPEK_clean_linker_0, # of connection points: 2
#     Edge 12, Type (0, 0), BuildingBlock: EZIPEK_clean_linker_0, # of connection points: 2
#     Edge 13, Type (0, 0), BuildingBlock: EZIPEK_clean_linker_0, # of connection points: 2
#     Edge 14, Type (0, 0), BuildingBlock: EZIPEK_clean_linker_0, # of connection points: 2
#     Edge 15, Type (0, 0), BuildingBlock: EZIPEK_clean_linker_0, # of connection points: 2
#     Edge 16, Type (0, 0), BuildingBlock: EZIPEK_clean_linker_0, # of connection points: 2
#     Edge 17, Type (0, 0), BuildingBlock: EZIPEK_clean_linker_0, # of connection points: 2
# Relax obj value: 0.013
# Max RMSD: 0.283
# Mean RMSD: 0.251
data_MOF--net-unh--node1-KOZSID_clean_sbu_0--edge1-EZIPEK_clean_linker_0
_symmetry_space_group_name_H-M    P1
_symmetry_Int_Tables_number       1
_symmetry_cell_setting            triclinic
loop_
_symmetry_equiv_pos_as_xyz
'x, y, z'
_cell_length_a     41.020012
_cell_length_b     46.04065
_cell_length_c     17.809432
_cell_angle_alpha  90.07925
_cell_angle_beta   89.867362
_cell_angle_gamma 120.23715
loop_
_atom_site_label
_atom_site_type_symbol
_atom_site_fract_x
_atom_site_fract_y
_atom_site_fract_z
_atom_type_partial_charge
C0 C 0.2426 0.61997 0.2138 0.0
C1 C 0.25659 0.64481 0.26859 0.0
C2 C 0.24358 0.66624 0.25185 0.0
C3 C 0.22173 0.65305 0.18892 0.0
N4 N 0.2193 0.62411 0.16597 0.0
Co5 Co 0.18914 0.59665 0.0783 0.0
N6 N 0.16183 0.62222 0.0672 0.0
C7 C 0.17212 0.65212 0.09918 0.0
C8 C 0.14854 0.66414 0.08091 0.0
C9 C 0.12187 0.64047 0.03394 0.0
C10 C 0.1306 0.61521 0.02621 0.0
N11 N 0.15932 0.56929 0.99008 0.0
C12 C 0.12812 0.5664 0.95655 0.0
C13 C 0.11587 0.5432 0.89815 0.0
C14 C 0.14057 0.53169 0.89376 0.0
C15 C 0.16613 0.54811 0.94987 0.0
N16 N 0.21602 0.57055 0.08788 0.0
C17 C 0.21643 0.54966 0.03511 0.0
C18 C 0.24091 0.53849 0.04958 0.0
C19 C 0.25782 0.55355 0.11518 0.0
C20 C 0.24201 0.57272 0.13847 0.0
N21 N 0.14897 0.56555 0.14826 0.0
C22 C 0.0912 0.52465 0.2511 0.0
C23 C 0.10348 0.51031 0.19584 0.0
C24 C 0.13233 0.53124 0.14465 0.0
C25 C 0.10877 0.55958 0.25383 0.0
C26 C 0.13728 0.57929 0.20288 0.0
N27 N 0.22982 0.62954 1.01151 0.0
C28 C 0.29631 0.67054 1.00107 0.0
C29 C 0.28864 0.69035 0.95363 0.0
C30 C 0.25139 0.67759 0.92917 0.0
C31 C 0.22249 0.64674 0.95768 0.0
C32 C 0.26675 0.6404 0.02893 0.0
H33 H 0.19398 0.63799 0.9397 0.0
H34 H 0.27423 0.62751 0.06872 0.0
H35 H 0.14105 0.51976 0.10226 0.0
H36 H 0.14957 0.60593 0.20822 0.0
C37 C 0.20042 0.66533 0.15407 0.0
C38 C 0.25658 0.59621 0.20269 0.0
C39 C 0.11056 0.58647 0.97459 0.0
C40 C 0.19343 0.54082 0.97247 0.0
H41 H 0.27571 0.64805 0.31379 0.0
H42 H 0.24927 0.68869 0.28222 0.0
H43 H 0.14991 0.68693 0.10099 0.0
H44 H 0.09887 0.64176 1.00763 0.0
H45 H 0.09164 0.53535 0.86214 0.0
H46 H 0.13926 0.51271 0.85593 0.0
H47 H 0.24673 0.52222 0.01516 0.0
H48 H 0.28082 0.55182 0.13971 0.0
H49 H 0.09066 0.48327 0.19188 0.0
H50 H 0.10034 0.57176 0.29538 0.0
H51 H 0.32486 0.67922 0.01996 0.0
H52 H 0.24452 0.6919 0.89069 0.0
C53 C 0.63856 0.21993 0.37111 0.0
C54 C 0.62178 0.22865 0.42757 0.0
C55 C 0.58529 0.20248 0.43398 0.0
C56 C 0.58167 0.17935 0.38084 0.0
N57 N 0.61357 0.18934 0.3414 0.0
Co58 Co 0.61957 0.16519 0.25402 0.0
N59 N 0.56401 0.13476 0.24243 0.0
C60 C 0.53793 0.13022 0.29453 0.0
C61 C 0.50189 0.10667 0.27385 0.0
C62 C 0.50546 0.09504 0.20524 0.0
C63 C 0.54365 0.11203 0.18791 0.0
N64 N 0.62639 0.14266 0.16413 0.0
C65 C 0.60079 0.12009 0.11486 0.0
C66 C 0.61831 0.11005 0.06236 0.0
C67 C 0.65575 0.12618 0.08011 0.0
C68 C 0.65918 0.14515 0.14208 0.0
N69 N 0.67509 0.19435 0.26786 0.0
C70 C 0.7018 0.18902 0.23802 0.0
C71 C 0.73775 0.21268 0.25886 0.0
C72 C 0.73355 0.23448 0.30455 0.0
C73 C 0.69513 0.22284 0.30865 0.0
N74 N 0.6195 0.13102 0.32227 0.0
C75 C 0.5924 0.07726 0.42678 0.0
C76 C 0.59469 0.07219 0.34924 0.0
C77 C 0.60659 0.09881 0.2984 0.0
C78 C 0.61433 0.1112 0.44988 0.0
C79 C 0.62726 0.13753 0.39716 0.0
N80 N 0.61811 0.19914 0.18859 0.0
C81 C 0.65069 0.24929 0.1126 0.0
C82 C 0.62359 0.25828 0.13126 0.0
C83 C 0.59136 0.23482 0.16988 0.0
C84 C 0.58925 0.20568 0.1981 0.0
C85 C 0.6474 0.21946 0.14193 0.0
H86 H 0.56531 0.18993 0.23258 0.0
H87 H 0.66986 0.21424 0.13151 0.0
H88 H 0.60382 0.09252 0.23997 0.0
H89 H 0.64205 0.16304 0.41772 0.0
C90 C 0.54787 0.15115 0.35787 0.0
C91 C 0.67893 0.23983 0.35087 0.0
C92 C 0.55953 0.10312 0.12342 0.0
C93 C 0.6927 0.16581 0.18025 0.0
H94 H 0.63464 0.25139 0.46092 0.0
H95 H 0.56358 0.20115 0.47089 0.0
H96 H 0.47604 0.09909 0.30458 0.0
H97 H 0.4827 0.07551 0.1727 0.0
H98 H 0.60523 0.09159 0.01821 0.0
H99 H 0.67773 0.12377 0.05212 0.0
H100 H 0.764 0.21488 0.23989 0.0
H101 H 0.75619 0.25677 0.33061 0.0
H102 H 0.58673 0.0479 0.32591 0.0
H103 H 0.62118 0.11791 0.50821 0.0
H104 H 0.67566 0.26643 0.08103 0.0
H105 H 0.56922 0.24027 0.18341 0.0
C106 C 0.42179 0.60874 0.32328 0.0
C107 C 0.43333 0.62574 0.25528 0.0
C108 C 0.47015 0.63406 0.24466 0.0
C109 C 0.47904 0.62138 0.30595 0.0
N110 N 0.45016 0.60555 0.35464 0.0
Co111 Co 0.45048 0.58067 0.44646 0.0
N112 N 0.50652 0.60084 0.44404 0.0
C113 C 0.52894 0.61746 0.38521 0.0
C114 C 0.5661 0.62709 0.39676 0.0
C115 C 0.56723 0.61528 0.46668 0.0
C116 C 0.53053 0.59884 0.49382 0.0
N117 N 0.45033 0.5566 0.54031 0.0
C118 C 0.47915 0.55904 0.58274 0.0
C119 C 0.4657 0.53596 0.64143 0.0
C120 C 0.42742 0.51816 0.63512 0.0
C121 C 0.4196 0.53117 0.57329 0.0
N122 N 0.39442 0.55997 0.44874 0.0
C123 C 0.37031 0.53479 0.49421 0.0
C124 C 0.33504 0.53105 0.49695 0.0
C125 C 0.33673 0.55519 0.45039 0.0
C126 C 0.37266 0.57152 0.41887 0.0
N127 N 0.44674 0.54326 0.38226 0.0
C128 C 0.4707 0.51086 0.27835 0.0
C129 C 0.4702 0.50525 0.35606 0.0
C130 C 0.45975 0.52265 0.4067 0.0
C131 C 0.45327 0.52882 0.25448 0.0
C132 C 0.43901 0.54237 0.30708 0.0
N133 N 0.45548 0.61891 0.50656 0.0
C134 C 0.42833 0.64225 0.59123 0.0
C135 C 0.45258 0.67469 0.56339 0.0
C136 C 0.47998 0.67888 0.51106 0.0
C137 C 0.4812 0.65091 0.4841 0.0
C138 C 0.43041 0.6147 0.56241 0.0
H139 H 0.50181 0.6553 0.44168 0.0
H140 H 0.41059 0.58995 0.58292 0.0
H141 H 0.46432 0.52036 0.46507 0.0
H142 H 0.42412 0.55416 0.2853 0.0
C143 C 0.51446 0.62544 0.32239 0.0
C144 C 0.38318 0.59451 0.35419 0.0
C145 C 0.51933 0.57882 0.56342 0.0
C146 C 0.38367 0.52176 0.54826 0.0
H147 H 0.41684 0.63135 0.21691 0.0
H148 H 0.48832 0.64791 0.19804 0.0
H149 H 0.5896 0.64102 0.35887 0.0
H150 H 0.59199 0.61747 0.49365 0.0
H151 H 0.48178 0.53132 0.68284 0.0
H152 H 0.40765 0.49802 0.67117 0.0
H153 H 0.31179 0.51461 0.53326 0.0
H154 H 0.31386 0.56001 0.44074 0.0
H155 H 0.48106 0.48987 0.37812 0.0
H156 H 0.45133 0.53322 0.19541 0.0
H157 H 0.40711 0.6381 0.6328 0.0
H158 H 0.49961 0.70361 0.48911 0.0
C159 C 0.82965 0.43146 0.70037 0.0
C160 C 0.81095 0.40207 0.74192 0.0
C161 C 0.82836 0.38401 0.7267 0.0
C162 C 0.8566 0.40327 0.67675 0.0
N163 N 0.85879 0.43278 0.66024 0.0
Co164 Co 0.89208 0.46501 0.58082 0.0
N165 N 0.9216 0.44132 0.56672 0.0
C166 C 0.91284 0.41143 0.59691 0.0
C167 C 0.93729 0.40064 0.57649 0.0
C168 C 0.96296 0.42501 0.52951 0.0
C169 C 0.95269 0.44937 0.52382 0.0
N170 N 0.92396 0.49646 0.49895 0.0
C171 C 0.95408 0.4991 0.46063 0.0
C172 C 0.96757 0.5249 0.40813 0.0
C173 C 0.94496 0.53861 0.41246 0.0
C174 C 0.91917 0.52068 0.46738 0.0
N175 N 0.86422 0.49007 0.59707 0.0
C176 C 0.86811 0.51623 0.55608 0.0
C177 C 0.84649 0.52928 0.58086 0.0
C178 C 0.82688 0.5098 0.64066 0.0
C179 C 0.83745 0.48565 0.64844 0.0
N180 N 0.92958 0.4938 0.65799 0.0
C181 C 0.98571 0.53302 0.76554 0.0
C182 C 0.97387 0.54811 0.71179 0.0
C183 C 0.94623 0.52817 0.65817 0.0
C184 C 0.96796 0.49793 0.76532 0.0
C185 C 0.93999 0.479 0.71231 0.0
N186 N 0.85404 0.43457 0.50543 0.0
C187 C 0.78744 0.39928 0.47786 0.0
C188 C 0.79387 0.37504 0.44523 0.0
C189 C 0.83123 0.38322 0.43367 0.0
C190 C 0.86079 0.41347 0.46206 0.0
C191 C 0.81786 0.42894 0.50675 0.0
H192 H 0.88883 0.41844 0.45147 0.0
H193 H 0.81131 0.44637 0.53237 0.0
H194 H 0.93875 0.54074 0.6167 0.0
H195 H 0.92728 0.45221 0.71529 0.0
C196 C 0.88195 0.39476 0.64527 0.0
C197 C 0.81718 0.45633 0.69749 0.0
C198 C 0.97034 0.47738 0.46994 0.0
C199 C 0.89295 0.52843 0.49589 0.0
H200 H 0.78666 0.39417 0.77804 0.0
H201 H 0.82095 0.35953 0.74865 0.0
H202 H 0.93633 0.37761 0.59308 0.0
H203 H 0.98582 0.42438 0.50055 0.0
H204 H 0.99141 0.53312 0.37061 0.0
H205 H 0.94763 0.55975 0.38077 0.0
H206 H 0.84486 0.55023 0.55765 0.0
H207 H 0.806 0.51226 0.67288 0.0
H208 H 0.98656 0.57519 0.71013 0.0
H209 H 0.97587 0.48507 0.8059 0.0
H210 H 0.75895 0.39474 0.48358 0.0
H211 H 0.83753 0.36594 0.40457 0.0
C212 C 0.44804 0.84174 0.87726 0.0
C213 C 0.46574 0.82848 0.91965 0.0
C214 C 0.50332 0.84685 0.90264 0.0
C215 C 0.50643 0.87026 0.85114 0.0
N216 N 0.47334 0.86867 0.83595 0.0
Co217 Co 0.46486 0.89502 0.75645 0.0
N218 N 0.52014 0.92269 0.73218 0.0
C219 C 0.54796 0.919 0.76256 0.0
C220 C 0.58328 0.94219 0.73712 0.0
C221 C 0.57764 0.96205 0.68789 0.0
C222 C 0.53908 0.94973 0.68597 0.0
N223 N 0.45581 0.91985 0.67447 0.0
C224 C 0.48042 0.9465 0.63217 0.0
C225 C 0.46159 0.95634 0.58276 0.0
C226 C 0.42399 0.93525 0.5942 0.0
C227 C 0.42188 0.91389 0.64987 0.0
N228 N 0.40986 0.86933 0.78425 0.0
C229 C 0.382 0.87241 0.75197 0.0
C230 C 0.34681 0.85078 0.77998 0.0
C231 C 0.35229 0.83204 0.83211 0.0
C232 C 0.39075 0.84339 0.83287 0.0
N233 N 0.47268 0.93065 0.8302 0.0
C234 C 0.49092 0.98603 0.92595 0.0
C235 C 0.4608 0.97435 0.87515 0.0
C236 C 0.45231 0.94687 0.82775 0.0
C237 C 0.51066 0.96868 0.92955 0.0
C238 C 0.50099 0.94122 0.8823 0.0
N239 N 0.45801 0.85895 0.68331 0.0
C240 C 0.41992 0.80056 0.64497 0.0
C241 C 0.45222 0.7991 0.62659 0.0
C242 C 0.48662 0.82932 0.62557 0.0
C243 C 0.48875 0.85889 0.65234 0.0
C244 C 0.42334 0.83062 0.67228 0.0
H245 H 0.516 0.88102 0.6494 0.0
H246 H 0.39751 0.82966 0.68697 0.0
H247 H 0.42958 0.93933 0.78871 0.0
H248 H 0.51737 0.92924 0.88781 0.0
C249 C 0.53974 0.89374 0.81522 0.0
C250 C 0.40686 0.82564 0.87183 0.0
C251 C 0.52162 0.96386 0.63775 0.0
C252 C 0.38906 0.89214 0.68844 0.0
H253 H 0.45253 0.80678 0.95627 0.0
H254 H 0.52556 0.8429 0.92351 0.0
H255 H 0.60997 0.94453 0.75283 0.0
H256 H 0.59933 0.9831 0.65664 0.0
H257 H 0.47362 0.97724 0.54391 0.0
H258 H 0.40097 0.93654 0.56801 0.0
H259 H 0.32008 0.84747 0.76114 0.0
H260 H 0.33008 0.811 0.86236 0.0
H261 H 0.44435 0.98673 0.87125 0.0
H262 H 0.53381 0.97649 0.96862 0.0
H263 H 0.39234 0.77809 0.64271 0.0
H264 H 0.5121 0.8298 0.60734 0.0
C265 C 0.64978 0.43438 0.83785 0.0
C266 C 0.63617 0.40355 0.80245 0.0
C267 C 0.59824 0.38566 0.81574 0.0
C268 C 0.59077 0.40631 0.85888 0.0
N269 N 0.62141 0.43658 0.87293 0.0
Co270 Co 0.62334 0.47051 0.94665 0.0
N271 N 0.56717 0.44484 0.96424 0.0
C272 C 0.54286 0.41422 0.93583 0.0
C273 C 0.50655 0.4013 0.96102 0.0
C274 C 0.50774 0.42504 1.00887 0.0
C275 C 0.54481 0.45145 1.00972 0.0
N276 N 0.62604 0.50387 0.02259 0.0
C277 C 0.59829 0.50658 0.05824 0.0
C278 C 0.61312 0.53605 0.10002 0.0
C279 C 0.65133 0.55164 0.09324 0.0
C280 C 0.65778 0.53139 0.04667 0.0
N281 N 0.6792 0.49742 0.92597 0.0
C282 C 0.70413 0.52658 0.95939 0.0
C283 C 0.74024 0.5403 0.93264 0.0
C284 C 0.7386 0.51815 0.87987 0.0
C285 C 0.7015 0.49181 0.87835 0.0
N286 N 0.61469 0.49562 0.86537 0.0
C287 C 0.59455 0.53017 0.76051 0.0
C288 C 0.62509 0.5477 0.80949 0.0
C289 C 0.63436 0.53008 0.86171 0.0
C290 C 0.57571 0.49502 0.76259 0.0
C291 C 0.58653 0.47842 0.81402 0.0
N292 N 0.63078 0.44383 0.02702 0.0
C293 C 0.66832 0.41909 0.06414 0.0
C294 C 0.63568 0.38871 0.08091 0.0
C295 C 0.60161 0.38852 0.08365 0.0
C296 C 0.60015 0.4168 0.05981 0.0
C297 C 0.66529 0.44649 0.03812 0.0
H298 H 0.57345 0.41542 0.06579 0.0
H299 H 0.69106 0.46902 0.02446 0.0
H300 H 0.65703 0.54474 0.89962 0.0
H301 H 0.57117 0.45152 0.81275 0.0
C302 C 0.55569 0.39757 0.88962 0.0
C303 C 0.69015 0.46023 0.83866 0.0
C304 C 0.55789 0.48114 0.05854 0.0
C305 C 0.69274 0.54024 0.01606 0.0
H306 H 0.65213 0.39451 0.77187 0.0
H307 H 0.57863 0.36019 0.79805 0.0
H308 H 0.48232 0.37703 0.94803 0.0
H309 H 0.48413 0.42263 0.04109 0.0
H310 H 0.59798 0.54545 0.13218 0.0
H311 H 0.6719 0.57565 0.1169 0.0
H312 H 0.76496 0.56336 0.95042 0.0
H313 H 0.7624 0.52046 0.84846 0.0
H314 H 0.64097 0.57493 0.80899 0.0
H315 H 0.55234 0.48033 0.72498 0.0
H316 H 0.6957 0.42103 0.06742 0.0
H317 H 0.57602 0.3663 0.10212 0.0
C318 C 0.03997 0.55919 0.9519 0.0
C319 C 0.0774 0.58119 0.92706 0.0
C320 C 0.05452 0.57518 0.79695 0.0
C321 C 1.01683 0.55312 0.82146 0.0
N322 N 0.97287 0.532 0.92484 0.0
N323 N 0.11843 0.61787 0.83053 0.0
C324 C 1.00934 0.54771 0.89994 0.0
C325 C 0.08383 0.59203 0.85113 0.0
N326 N 1.03386 0.54812 0.0245 0.0
N327 N 0.06311 0.5781 0.72214 0.0
H328 H 0.14025 0.63041 0.86908 0.0
H329 H 0.12412 0.629 0.7776 0.0
H330 H 0.04313 0.5653 0.68047 0.0
H331 H 0.09066 0.59076 0.70169 0.0
H332 H 1.008 0.52886 0.04408 0.0
H333 H 0.05541 0.55715 0.06435 0.0
H334 H 0.96553 0.52982 0.98141 0.0
H335 H 0.95 0.52409 0.88852 0.0
C336 C 0.49985 1.01118 0.0557 0.0
C337 C 0.5021 1.01583 0.97665 0.0
C338 C 0.53135 0.07694 0.99713 0.0
C339 C 0.53515 0.07257 0.07497 0.0
N340 N 0.52605 0.03471 0.17728 0.0
N341 N 0.52398 0.05407 0.87141 0.0
C342 C 0.5199 0.03943 0.10414 0.0
C343 C 0.51849 0.04898 0.94706 0.0
N344 N 0.47794 0.97964 0.08467 0.0
N345 N 0.54039 0.108 0.97103 0.0
H346 H 0.51556 0.03452 0.8329 0.0
H347 H 0.53966 0.07781 0.84726 0.0
H348 H 0.55001 0.12886 1.00626 0.0
H349 H 0.53502 0.11234 0.91628 0.0
H350 H 0.47212 0.97497 0.14178 0.0
H351 H 0.46237 0.95853 0.05091 0.0
H352 H 0.51987 1.01146 0.1989 0.0
H353 H 0.53977 0.05431 0.21537 0.0
C354 C 0.52615 0.50258 0.24159 0.0
C355 C 0.49075 0.49966 0.22332 0.0
C356 C 0.49956 0.48553 0.09389 0.0
C357 C 0.53194 0.48397 0.11574 0.0
N358 N 0.56681 0.47949 0.21979 0.0
N359 N 0.43866 0.47569 0.13535 0.0
C360 C 0.54176 0.48819 0.19298 0.0
C361 C 0.4758 0.4873 0.15034 0.0
N362 N 0.547 0.52168 0.30087 0.0
N363 N 0.49186 0.48648 0.01976 0.0
H364 H 0.41951 0.47334 0.1769 0.0
H365 H 0.42627 0.46449 0.08428 0.0
H366 H 0.50925 0.48655 0.97685 0.0
H367 H 0.47016 0.49036 1.00185 0.0
H368 H 0.57398 0.5259 0.31233 0.0
H369 H 0.54006 0.53716 0.33128 0.0
H370 H 0.573 0.48048 0.27685 0.0
H371 H 0.57804 0.46809 0.18608 0.0
C372 C 0.99245 0.47298 0.33917 0.0
C373 C 1.00123 0.48159 0.41616 0.0
C374 C 0.06877 0.5075 0.38478 0.0
C375 C 0.06009 0.50446 0.3068 0.0
N376 N 1.01299 0.48614 0.20951 0.0
N377 N 0.04813 0.50803 0.51267 0.0
C378 C 1.0217 0.48714 0.28385 0.0
C379 C 0.03955 0.4987 0.43924 0.0
N380 N 0.95591 0.45148 0.31893 0.0
N381 N 0.10513 0.51877 0.40654 0.0
H382 H 1.02753 0.50127 0.55412 0.0
H383 H 0.07545 0.52406 0.53174 0.0
H384 H 0.12686 0.52501 0.36793 0.0
H385 H 0.11305 0.51888 0.46208 0.0
H386 H 0.94791 0.44162 0.26506 0.0
H387 H 0.93403 0.441 0.35802 0.0
H388 H 0.98573 0.47769 0.19007 0.0
H389 H 1.03334 0.49602 0.16723 0.0
C390 C 0.55154 1.01372 0.45764 0.0
C391 C 0.57044 0.04785 0.48212 0.0
C392 C 0.55643 1.02654 0.61285 0.0
C393 C 0.54458 0.99356 0.58695 0.0
N394 N 0.53643 0.95682 0.4835 0.0
N395 N 0.56307 0.08016 0.5807 0.0
C396 C 0.5448 0.98776 0.50903 0.0
C397 C 0.56592 0.05298 0.5598 0.0
N398 N 0.53219 1.00505 0.39151 0.0
N399 N 0.55802 0.03256 0.68823 0.0
H400 H 0.5604 0.09554 0.54121 0.0
H401 H 0.55677 0.08405 0.63516 0.0
H402 H 0.55035 1.01363 0.72817 0.0
H403 H 0.57007 0.05668 0.71081 0.0
H404 H 0.51546 0.98017 0.37404 0.0
H405 H 0.52744 1.02206 0.36162 0.0
H406 H 0.53855 0.95219 0.42683 0.0
H407 H 0.53084 0.93701 0.51969 0.0
C408 C 0.58031 0.5417 0.62898 0.0
C409 C 0.58168 0.54794 0.70746 0.0
C410 C 0.55483 0.58443 0.68346 0.0
C411 C 0.54676 0.57282 0.60822 0.0
N412 N 0.54881 0.53711 0.51105 0.0
N413 N 0.56501 0.57221 0.81063 0.0
C414 C 0.55904 0.55081 0.58111 0.0
C415 C 0.56806 0.56895 0.73506 0.0
N416 N 0.59992 0.52754 0.59987 0.0
N417 N 0.54894 0.60979 0.70597 0.0
H418 H 0.57258 0.56019 0.85064 0.0
H419 H 0.55153 0.58421 0.83365 0.0
H420 H 0.53902 0.62131 0.66941 0.0
H421 H 0.55736 0.62147 0.75816 0.0
H422 H 0.60287 0.52523 0.5424 0.0
H423 H 0.61655 0.5214 0.63294 0.0
H424 H 0.55303 0.51786 0.49188 0.0
H425 H 0.53367 0.54322 0.47385 0.0
C426 C 0.28533 0.5683 0.2783 0.0
C427 C 0.28918 0.59828 0.24774 0.0
C428 C 0.35481 0.62783 0.29402 0.0
C429 C 0.35224 0.59662 0.3118 0.0
N430 N 0.31737 0.5367 0.28888 0.0
N431 N 0.33328 0.65552 0.20896 0.0
C432 C 0.31822 0.56666 0.29364 0.0
C433 C 0.32556 0.62794 0.25063 0.0
N434 N 0.25045 0.54094 0.28987 0.0
N435 N 0.38462 0.6573 0.31867 0.0
H436 H 0.31381 0.65613 0.17263 0.0
H437 H 0.36033 0.67643 0.20482 0.0
H438 H 0.40627 0.65825 0.35104 0.0
H439 H 0.38587 0.68036 0.31217 0.0
H440 H 0.24672 0.51914 0.31569 0.0
H441 H 0.22567 0.54149 0.28025 0.0
H442 H 0.29346 0.51467 0.27122 0.0
H443 H 0.34162 0.53492 0.2946 0.0
C444 C 0.71778 0.28175 0.45364 0.0
C445 C 0.70506 0.27548 0.37798 0.0
C446 C 0.75069 0.33481 0.3464 0.0
C447 C 0.76182 0.34129 0.42269 0.0
N448 N 0.75253 0.32263 0.55144 0.0
N449 N 0.70792 0.29626 0.25293 0.0
C450 C 0.7441 0.31528 0.47709 0.0
C451 C 0.72113 0.30223 0.32473 0.0
N452 N 0.70675 0.25534 0.50191 0.0
N453 N 0.76907 0.35975 0.29437 0.0
H454 H 0.68721 0.27257 0.23568 0.0
H455 H 0.71505 0.31465 0.21215 0.0
H456 H 0.78925 0.38432 0.30878 0.0
H457 H 0.76588 0.35613 0.23662 0.0
H458 H 0.71829 0.2576 0.55507 0.0
H459 H 0.68818 0.23046 0.48668 0.0
H460 H 0.73752 0.30594 0.59462 0.0
H461 H 0.77285 0.34635 0.57062 0.0
C462 C 0.46847 0.75469 0.66352 0.0
C463 C 0.4505 0.7661 0.61269 0.0
C464 C 0.42693 0.71355 0.54079 0.0
C465 C 0.44894 0.70439 0.58557 0.0
N466 N 0.49344 0.71753 0.68591 0.0
N467 N 0.41694 0.75829 0.49656 0.0
C468 C 0.47042 0.72531 0.64608 0.0
C469 C 0.43066 0.74591 0.5498 0.0
N470 N 0.48256 0.77124 0.72992 0.0
N471 N 0.40196 0.69103 0.49026 0.0
H472 H 0.41978 0.78207 0.50023 0.0
H473 H 0.40583 0.74635 0.44552 0.0
H474 H 0.39837 0.66712 0.48275 0.0
H475 H 0.38233 0.69474 0.46128 0.0
H476 H 0.49208 0.76206 0.77286 0.0
H477 H 0.48172 0.79269 0.74531 0.0
H478 H 0.51335 0.7338 0.72445 0.0
H479 H 0.49435 0.69554 0.67691 0.0
C480 C 0.74895 0.45436 0.84918 0.0
C481 C 0.72022 0.45419 0.80373 0.0
C482 C 0.74913 0.4433 0.69453 0.0
C483 C 0.78163 0.45065 0.73714 0.0
N484 N 0.81356 0.46607 0.85627 0.0
N485 N 0.69743 0.45384 0.67865 0.0
C486 C 0.78177 0.45682 0.81504 0.0
C487 C 0.72151 0.45008 0.725 0.0
N488 N 0.74458 0.45153 0.92505 0.0
N489 N 0.74401 0.42871 0.6258 0.0
H490 H 0.67746 0.45969 0.69838 0.0
H491 H 0.69974 0.45416 0.62032 0.0
H492 H 0.7616 0.42004 0.60707 0.0
H493 H 0.71971 0.4208 0.59383 0.0
H494 H 0.76269 0.44843 0.96074 0.0
H495 H 0.72045 0.44862 0.95079 0.0
H496 H 0.8167 0.47457 0.91149 0.0
H497 H 0.83779 0.4675 0.83355 0.0
C498 C 0.37431 0.76229 0.8557 0.0
C499 C 0.3807 0.79032 0.90018 0.0
C500 C 0.32896 0.75213 0.98446 0.0
C501 C 0.31961 0.72503 0.93401 0.0
N502 N 0.33135 0.70452 0.81866 0.0
N503 N 0.36515 0.81238 1.0082 0.0
C504 C 0.34181 0.73019 0.86889 0.0
C505 C 0.3585 0.78524 0.96552 0.0
N506 N 0.40009 0.76608 0.80241 0.0
N507 N 0.30983 0.74603 0.05095 0.0
H508 H 0.38795 0.83645 0.99842 0.0
H509 H 0.34745 0.81155 0.05112 0.0
H510 H 0.28697 0.72259 0.06514 0.0
H511 H 0.3177 0.76354 0.0941 0.0
H512 H 0.39932 0.74613 0.77326 0.0
H513 H 0.42457 0.78891 0.79275 0.0
H514 H 0.34361 0.70763 0.76583 0.0
H515 H 0.30833 0.68047 0.82737 0.0
C516 C 0.63452 0.34498 0.16821 0.0
C517 C 0.63659 0.35698 0.09407 0.0
C518 C 0.63043 0.30452 0.04341 0.0
C519 C 0.6299 0.293 0.11765 0.0
N520 N 0.63743 0.30462 0.25102 0.0
N521 N 0.64246 0.35093 0.96097 0.0
C522 C 0.63367 0.31396 0.18011 0.0
C523 C 0.6366 0.33763 0.03168 0.0
N524 N 0.63249 0.36297 0.22741 0.0
N525 N 0.6228 0.28309 0.98423 0.0
H526 H 0.64543 0.37435 0.94958 0.0
H527 H 0.64716 0.33996 0.91417 0.0
H528 H 0.61769 0.25863 0.9905 0.0
H529 H 0.61845 0.2884 0.92963 0.0
H530 H 0.62582 0.35372 0.28199 0.0
H531 H 0.63536 0.38668 0.22134 0.0
H532 H 0.64506 0.32046 0.29743 0.0
H533 H 0.63592 0.28187 0.26324 0.0
loop_
_geom_bond_atom_site_label_1
_geom_bond_atom_site_label_2
_geom_bond_distance
_geom_bond_site_symmetry_2
_ccdc_geom_bond_type
C0 C1 1.443 . S
C0 N4 1.376 . S
C0 C38 1.389 . S
C1 C0 1.443 . S
C1 C2 1.340 . S
C1 H41 0.951 . S
C2 C1 1.340 . S
C2 C3 1.439 . S
C2 H42 0.950 . S
C3 C2 1.439 . S
C3 N4 1.374 . S
C3 C37 1.395 . S
N4 C0 1.376 . S
N4 C3 1.374 . S
N4 Co5 2.008 . S
Co5 N4 2.008 . S
Co5 N6 1.995 . S
Co5 N11 2.008 . S
Co5 N16 1.995 . S
Co5 N21 2.282 . S
Co5 N27 2.282 . S
N6 Co5 1.995 . S
N6 C7 1.376 . S
N6 C10 1.383 . S
C7 N6 1.376 . S
C7 C8 1.446 . S
C7 C37 1.391 . S
C8 C7 1.446 . S
C8 C9 1.339 . S
C8 H43 0.949 . S
C9 C8 1.339 . S
C9 C10 1.439 . S
C9 H44 0.950 . S
C10 N6 1.383 . S
C10 C9 1.439 . S
C10 C39 1.392 . S
N11 Co5 2.008 . S
N11 C12 1.376 . S
N11 C15 1.374 . S
C12 N11 1.376 . S
C12 C13 1.443 1_554 S
C12 C39 1.389 . S
C13 C12 1.443 1_556 S
C13 C14 1.340 . S
C13 H45 0.951 . S
C14 C13 1.340 . S
C14 C15 1.439 1_556 S
C14 H46 0.950 . S
C15 N11 1.374 . S
C15 C14 1.439 1_554 S
C15 C40 1.395 . S
N16 Co5 1.995 . S
N16 C17 1.376 . S
N16 C20 1.383 . S
C17 N16 1.376 . S
C17 C18 1.446 . S
C17 C40 1.391 . S
C18 C17 1.446 . S
C18 C19 1.339 . S
C18 H47 0.949 . S
C19 C18 1.339 . S
C19 C20 1.439 . S
C19 H48 0.950 . S
C20 N16 1.383 . S
C20 C19 1.439 . S
C20 C38 1.392 . S
N21 Co5 2.282 . S
N21 C24 1.332 . S
N21 C26 1.332 . S
C22 C23 1.386 . S
C22 C25 1.388 . S
C23 C22 1.386 . S
C23 C24 1.382 . S
C23 H49 0.950 . S
C24 N21 1.332 . S
C24 C23 1.382 . S
C24 H35 0.952 . S
C25 C22 1.388 . S
C25 C26 1.382 . S
C25 H50 0.950 . S
C26 N21 1.332 . S
C26 C25 1.382 . S
C26 H36 0.948 . S
N27 Co5 2.282 . S
N27 C31 1.332 . S
N27 C32 1.332 1_554 S
C28 C29 1.388 . S
C28 C32 1.382 . S
C28 H51 0.950 . S
C29 C28 1.388 . S
C29 C30 1.386 . S
C30 C29 1.386 . S
C30 C31 1.382 1_556 S
C30 H52 0.950 . S
C31 N27 1.332 . S
C31 C30 1.382 1_554 S
C31 H33 0.952 . S
C32 N27 1.332 1_556 S
C32 C28 1.382 . S
C32 H34 0.948 . S
H33 C31 0.952 . S
H34 C32 0.948 . S
H35 C24 0.952 . S
H36 C26 0.948 . S
C37 C3 1.395 . S
C37 C7 1.391 . S
C38 C0 1.389 . S
C38 C20 1.392 . S
C39 C10 1.392 . S
C39 C12 1.389 . S
C40 C15 1.395 . S
C40 C17 1.391 . S
H41 C1 0.951 . S
H42 C2 0.950 . S
H43 C8 0.949 . S
H44 C9 0.950 . S
H45 C13 0.951 . S
H46 C14 0.950 . S
H47 C18 0.949 . S
H48 C19 0.950 . S
H49 C23 0.950 . S
H50 C25 0.950 . S
H51 C28 0.950 . S
H52 C30 0.950 . S
C53 C54 1.443 . S
C53 N57 1.376 . S
C53 C91 1.389 . S
C54 C53 1.443 . S
C54 C55 1.340 . S
C54 H94 0.951 . S
C55 C54 1.340 . S
C55 C56 1.439 . S
C55 H95 0.950 . S
C56 C55 1.439 . S
C56 N57 1.374 . S
C56 C90 1.395 . S
N57 C53 1.376 . S
N57 C56 1.374 . S
N57 Co58 2.008 . S
Co58 N57 2.008 . S
Co58 N59 1.995 . S
Co58 N64 2.008 . S
Co58 N69 1.995 . S
Co58 N74 2.282 . S
Co58 N80 2.282 . S
N59 Co58 1.995 . S
N59 C60 1.376 . S
N59 C63 1.383 . S
C60 N59 1.376 . S
C60 C61 1.446 . S
C60 C90 1.391 . S
C61 C60 1.446 . S
C61 C62 1.339 . S
C61 H96 0.949 . S
C62 C61 1.339 . S
C62 C63 1.439 . S
C62 H97 0.950 . S
C63 N59 1.383 . S
C63 C62 1.439 . S
C63 C92 1.392 . S
N64 Co58 2.008 . S
N64 C65 1.376 . S
N64 C68 1.374 . S
C65 N64 1.376 . S
C65 C66 1.443 . S
C65 C92 1.389 . S
C66 C65 1.443 . S
C66 C67 1.340 . S
C66 H98 0.951 . S
C67 C66 1.340 . S
C67 C68 1.439 . S
C67 H99 0.950 . S
C68 N64 1.374 . S
C68 C67 1.439 . S
C68 C93 1.395 . S
N69 Co58 1.995 . S
N69 C70 1.376 . S
N69 C73 1.383 . S
C70 N69 1.376 . S
C70 C71 1.446 . S
C70 C93 1.391 . S
C71 C70 1.446 . S
C71 C72 1.339 . S
C71 H100 0.949 . S
C72 C71 1.339 . S
C72 C73 1.439 . S
C72 H101 0.950 . S
C73 N69 1.383 . S
C73 C72 1.439 . S
C73 C91 1.392 . S
N74 Co58 2.282 . S
N74 C77 1.332 . S
N74 C79 1.332 . S
C75 C76 1.386 . S
C75 C78 1.388 . S
C76 C75 1.386 . S
C76 C77 1.382 . S
C76 H102 0.950 . S
C77 N74 1.332 . S
C77 C76 1.382 . S
C77 H88 0.952 . S
C78 C75 1.388 . S
C78 C79 1.382 . S
C78 H103 0.950 . S
C79 N74 1.332 . S
C79 C78 1.382 . S
C79 H89 0.948 . S
N80 Co58 2.282 . S
N80 C84 1.332 . S
N80 C85 1.332 . S
C81 C82 1.388 . S
C81 C85 1.382 . S
C81 H104 0.950 . S
C82 C81 1.388 . S
C82 C83 1.386 . S
C83 C82 1.386 . S
C83 C84 1.382 . S
C83 H105 0.950 . S
C84 N80 1.332 . S
C84 C83 1.382 . S
C84 H86 0.952 . S
C85 N80 1.332 . S
C85 C81 1.382 . S
C85 H87 0.948 . S
H86 C84 0.952 . S
H87 C85 0.948 . S
H88 C77 0.952 . S
H89 C79 0.948 . S
C90 C56 1.395 . S
C90 C60 1.391 . S
C91 C53 1.389 . S
C91 C73 1.392 . S
C92 C63 1.392 . S
C92 C65 1.389 . S
C93 C68 1.395 . S
C93 C70 1.391 . S
H94 C54 0.951 . S
H95 C55 0.950 . S
H96 C61 0.949 . S
H97 C62 0.950 . S
H98 C66 0.951 . S
H99 C67 0.950 . S
H100 C71 0.949 . S
H101 C72 0.950 . S
H102 C76 0.950 . S
H103 C78 0.950 . S
H104 C81 0.950 . S
H105 C83 0.950 . S
C106 C107 1.443 . S
C106 N110 1.376 . S
C106 C144 1.389 . S
C107 C106 1.443 . S
C107 C108 1.340 . S
C107 H147 0.951 . S
C108 C107 1.340 . S
C108 C109 1.439 . S
C108 H148 0.950 . S
C109 C108 1.439 . S
C109 N110 1.374 . S
C109 C143 1.395 . S
N110 C106 1.376 . S
N110 C109 1.374 . S
N110 Co111 2.008 . S
Co111 N110 2.008 . S
Co111 N112 1.995 . S
Co111 N117 2.008 . S
Co111 N122 1.995 . S
Co111 N127 2.282 . S
Co111 N133 2.282 . S
N112 Co111 1.995 . S
N112 C113 1.376 . S
N112 C116 1.383 . S
C113 N112 1.376 . S
C113 C114 1.446 . S
C113 C143 1.391 . S
C114 C113 1.446 . S
C114 C115 1.339 . S
C114 H149 0.949 . S
C115 C114 1.339 . S
C115 C116 1.439 . S
C115 H150 0.950 . S
C116 N112 1.383 . S
C116 C115 1.439 . S
C116 C145 1.392 . S
N117 Co111 2.008 . S
N117 C118 1.376 . S
N117 C121 1.374 . S
C118 N117 1.376 . S
C118 C119 1.443 . S
C118 C145 1.389 . S
C119 C118 1.443 . S
C119 C120 1.340 . S
C119 H151 0.951 . S
C120 C119 1.340 . S
C120 C121 1.439 . S
C120 H152 0.950 . S
C121 N117 1.374 . S
C121 C120 1.439 . S
C121 C146 1.395 . S
N122 Co111 1.995 . S
N122 C123 1.376 . S
N122 C126 1.383 . S
C123 N122 1.376 . S
C123 C124 1.446 . S
C123 C146 1.391 . S
C124 C123 1.446 . S
C124 C125 1.339 . S
C124 H153 0.949 . S
C125 C124 1.339 . S
C125 C126 1.439 . S
C125 H154 0.950 . S
C126 N122 1.383 . S
C126 C125 1.439 . S
C126 C144 1.392 . S
N127 Co111 2.282 . S
N127 C130 1.332 . S
N127 C132 1.332 . S
C128 C129 1.386 . S
C128 C131 1.388 . S
C129 C128 1.386 . S
C129 C130 1.382 . S
C129 H155 0.950 . S
C130 N127 1.332 . S
C130 C129 1.382 . S
C130 H141 0.952 . S
C131 C128 1.388 . S
C131 C132 1.382 . S
C131 H156 0.950 . S
C132 N127 1.332 . S
C132 C131 1.382 . S
C132 H142 0.948 . S
N133 Co111 2.282 . S
N133 C137 1.332 . S
N133 C138 1.332 . S
C134 C135 1.388 . S
C134 C138 1.382 . S
C134 H157 0.950 . S
C135 C134 1.388 . S
C135 C136 1.386 . S
C136 C135 1.386 . S
C136 C137 1.382 . S
C136 H158 0.950 . S
C137 N133 1.332 . S
C137 C136 1.382 . S
C137 H139 0.952 . S
C138 N133 1.332 . S
C138 C134 1.382 . S
C138 H140 0.948 . S
H139 C137 0.952 . S
H140 C138 0.948 . S
H141 C130 0.952 . S
H142 C132 0.948 . S
C143 C109 1.395 . S
C143 C113 1.391 . S
C144 C106 1.389 . S
C144 C126 1.392 . S
C145 C116 1.392 . S
C145 C118 1.389 . S
C146 C121 1.395 . S
C146 C123 1.391 . S
H147 C107 0.951 . S
H148 C108 0.950 . S
H149 C114 0.949 . S
H150 C115 0.950 . S
H151 C119 0.951 . S
H152 C120 0.950 . S
H153 C124 0.949 . S
H154 C125 0.950 . S
H155 C129 0.950 . S
H156 C131 0.950 . S
H157 C134 0.950 . S
H158 C136 0.950 . S
C159 C160 1.443 . S
C159 N163 1.376 . S
C159 C197 1.389 . S
C160 C159 1.443 . S
C160 C161 1.340 . S
C160 H200 0.951 . S
C161 C160 1.340 . S
C161 C162 1.439 . S
C161 H201 0.950 . S
C162 C161 1.439 . S
C162 N163 1.374 . S
C162 C196 1.395 . S
N163 C159 1.376 . S
N163 C162 1.374 . S
N163 Co164 2.008 . S
Co164 N163 2.008 . S
Co164 N165 1.995 . S
Co164 N170 2.008 . S
Co164 N175 1.995 . S
Co164 N180 2.282 . S
Co164 N186 2.282 . S
N165 Co164 1.995 . S
N165 C166 1.376 . S
N165 C169 1.383 . S
C166 N165 1.376 . S
C166 C167 1.446 . S
C166 C196 1.391 . S
C167 C166 1.446 . S
C167 C168 1.339 . S
C167 H202 0.949 . S
C168 C167 1.339 . S
C168 C169 1.439 . S
C168 H203 0.950 . S
C169 N165 1.383 . S
C169 C168 1.439 . S
C169 C198 1.392 . S
N170 Co164 2.008 . S
N170 C171 1.376 . S
N170 C174 1.374 . S
C171 N170 1.376 . S
C171 C172 1.443 . S
C171 C198 1.389 . S
C172 C171 1.443 . S
C172 C173 1.340 . S
C172 H204 0.951 . S
C173 C172 1.340 . S
C173 C174 1.439 . S
C173 H205 0.950 . S
C174 N170 1.374 . S
C174 C173 1.439 . S
C174 C199 1.395 . S
N175 Co164 1.995 . S
N175 C176 1.376 . S
N175 C179 1.383 . S
C176 N175 1.376 . S
C176 C177 1.446 . S
C176 C199 1.391 . S
C177 C176 1.446 . S
C177 C178 1.339 . S
C177 H206 0.949 . S
C178 C177 1.339 . S
C178 C179 1.439 . S
C178 H207 0.950 . S
C179 N175 1.383 . S
C179 C178 1.439 . S
C179 C197 1.392 . S
N180 Co164 2.282 . S
N180 C183 1.332 . S
N180 C185 1.332 . S
C181 C182 1.386 . S
C181 C184 1.388 . S
C182 C181 1.386 . S
C182 C183 1.382 . S
C182 H208 0.950 . S
C183 N180 1.332 . S
C183 C182 1.382 . S
C183 H194 0.952 . S
C184 C181 1.388 . S
C184 C185 1.382 . S
C184 H209 0.950 . S
C185 N180 1.332 . S
C185 C184 1.382 . S
C185 H195 0.948 . S
N186 Co164 2.282 . S
N186 C190 1.332 . S
N186 C191 1.332 . S
C187 C188 1.388 . S
C187 C191 1.382 . S
C187 H210 0.950 . S
C188 C187 1.388 . S
C188 C189 1.386 . S
C189 C188 1.386 . S
C189 C190 1.382 . S
C189 H211 0.950 . S
C190 N186 1.332 . S
C190 C189 1.382 . S
C190 H192 0.952 . S
C191 N186 1.332 . S
C191 C187 1.382 . S
C191 H193 0.948 . S
H192 C190 0.952 . S
H193 C191 0.948 . S
H194 C183 0.952 . S
H195 C185 0.948 . S
C196 C162 1.395 . S
C196 C166 1.391 . S
C197 C159 1.389 . S
C197 C179 1.392 . S
C198 C169 1.392 . S
C198 C171 1.389 . S
C199 C174 1.395 . S
C199 C176 1.391 . S
H200 C160 0.951 . S
H201 C161 0.950 . S
H202 C167 0.949 . S
H203 C168 0.950 . S
H204 C172 0.951 . S
H205 C173 0.950 . S
H206 C177 0.949 . S
H207 C178 0.950 . S
H208 C182 0.950 . S
H209 C184 0.950 . S
H210 C187 0.950 . S
H211 C189 0.950 . S
C212 C213 1.443 . S
C212 N216 1.376 . S
C212 C250 1.389 . S
C213 C212 1.443 . S
C213 C214 1.340 . S
C213 H253 0.951 . S
C214 C213 1.340 . S
C214 C215 1.439 . S
C214 H254 0.950 . S
C215 C214 1.439 . S
C215 N216 1.374 . S
C215 C249 1.395 . S
N216 C212 1.376 . S
N216 C215 1.374 . S
N216 Co217 2.008 . S
Co217 N216 2.008 . S
Co217 N218 1.995 . S
Co217 N223 2.008 . S
Co217 N228 1.995 . S
Co217 N233 2.282 . S
Co217 N239 2.282 . S
N218 Co217 1.995 . S
N218 C219 1.376 . S
N218 C222 1.383 . S
C219 N218 1.376 . S
C219 C220 1.446 . S
C219 C249 1.391 . S
C220 C219 1.446 . S
C220 C221 1.339 . S
C220 H255 0.949 . S
C221 C220 1.339 . S
C221 C222 1.439 . S
C221 H256 0.950 . S
C222 N218 1.383 . S
C222 C221 1.439 . S
C222 C251 1.392 . S
N223 Co217 2.008 . S
N223 C224 1.376 . S
N223 C227 1.374 . S
C224 N223 1.376 . S
C224 C225 1.443 . S
C224 C251 1.389 . S
C225 C224 1.443 . S
C225 C226 1.340 . S
C225 H257 0.951 . S
C226 C225 1.340 . S
C226 C227 1.439 . S
C226 H258 0.950 . S
C227 N223 1.374 . S
C227 C226 1.439 . S
C227 C252 1.395 . S
N228 Co217 1.995 . S
N228 C229 1.376 . S
N228 C232 1.383 . S
C229 N228 1.376 . S
C229 C230 1.446 . S
C229 C252 1.391 . S
C230 C229 1.446 . S
C230 C231 1.339 . S
C230 H259 0.949 . S
C231 C230 1.339 . S
C231 C232 1.439 . S
C231 H260 0.950 . S
C232 N228 1.383 . S
C232 C231 1.439 . S
C232 C250 1.392 . S
N233 Co217 2.282 . S
N233 C236 1.332 . S
N233 C238 1.332 . S
C234 C235 1.386 . S
C234 C237 1.388 . S
C235 C234 1.386 . S
C235 C236 1.382 . S
C235 H261 0.950 . S
C236 N233 1.332 . S
C236 C235 1.382 . S
C236 H247 0.952 . S
C237 C234 1.388 . S
C237 C238 1.382 . S
C237 H262 0.950 . S
C238 N233 1.332 . S
C238 C237 1.382 . S
C238 H248 0.948 . S
N239 Co217 2.282 . S
N239 C243 1.332 . S
N239 C244 1.332 . S
C240 C241 1.388 . S
C240 C244 1.382 . S
C240 H263 0.950 . S
C241 C240 1.388 . S
C241 C242 1.386 . S
C242 C241 1.386 . S
C242 C243 1.382 . S
C242 H264 0.950 . S
C243 N239 1.332 . S
C243 C242 1.382 . S
C243 H245 0.952 . S
C244 N239 1.332 . S
C244 C240 1.382 . S
C244 H246 0.948 . S
H245 C243 0.952 . S
H246 C244 0.948 . S
H247 C236 0.952 . S
H248 C238 0.948 . S
C249 C215 1.395 . S
C249 C219 1.391 . S
C250 C212 1.389 . S
C250 C232 1.392 . S
C251 C222 1.392 . S
C251 C224 1.389 . S
C252 C227 1.395 . S
C252 C229 1.391 . S
H253 C213 0.951 . S
H254 C214 0.950 . S
H255 C220 0.949 . S
H256 C221 0.950 . S
H257 C225 0.951 . S
H258 C226 0.950 . S
H259 C230 0.949 . S
H260 C231 0.950 . S
H261 C235 0.950 . S
H262 C237 0.950 . S
H263 C240 0.950 . S
H264 C242 0.950 . S
C265 C266 1.443 . S
C265 N269 1.376 . S
C265 C303 1.389 . S
C266 C265 1.443 . S
C266 C267 1.340 . S
C266 H306 0.951 . S
C267 C266 1.340 . S
C267 C268 1.439 . S
C267 H307 0.950 . S
C268 C267 1.439 . S
C268 N269 1.374 . S
C268 C302 1.395 . S
N269 C265 1.376 . S
N269 C268 1.374 . S
N269 Co270 2.008 . S
Co270 N269 2.008 . S
Co270 N271 1.995 . S
Co270 N276 2.008 . S
Co270 N281 1.995 . S
Co270 N286 2.282 . S
Co270 N292 2.282 . S
N271 Co270 1.995 . S
N271 C272 1.376 . S
N271 C275 1.383 . S
C272 N271 1.376 . S
C272 C273 1.446 . S
C272 C302 1.391 . S
C273 C272 1.446 . S
C273 C274 1.339 . S
C273 H308 0.949 . S
C274 C273 1.339 . S
C274 C275 1.439 . S
C274 H309 0.950 . S
C275 N271 1.383 . S
C275 C274 1.439 . S
C275 C304 1.392 . S
N276 Co270 2.008 . S
N276 C277 1.376 . S
N276 C280 1.374 . S
C277 N276 1.376 . S
C277 C278 1.443 1_556 S
C277 C304 1.389 . S
C278 C277 1.443 1_554 S
C278 C279 1.340 1_554 S
C278 H310 0.951 . S
C279 C278 1.340 1_556 S
C279 C280 1.439 . S
C279 H311 0.950 1_556 S
C280 N276 1.374 . S
C280 C279 1.439 . S
C280 C305 1.395 . S
N281 Co270 1.995 . S
N281 C282 1.376 . S
N281 C285 1.383 . S
C282 N281 1.376 . S
C282 C283 1.446 . S
C282 C305 1.391 . S
C283 C282 1.446 . S
C283 C284 1.339 . S
C283 H312 0.949 . S
C284 C283 1.339 . S
C284 C285 1.439 . S
C284 H313 0.950 . S
C285 N281 1.383 . S
C285 C284 1.439 . S
C285 C303 1.392 . S
N286 Co270 2.282 . S
N286 C289 1.332 . S
N286 C291 1.332 . S
C287 C288 1.386 . S
C287 C290 1.388 . S
C288 C287 1.386 . S
C288 C289 1.382 . S
C288 H314 0.950 . S
C289 N286 1.332 . S
C289 C288 1.382 . S
C289 H300 0.952 . S
C290 C287 1.388 . S
C290 C291 1.382 . S
C290 H315 0.950 . S
C291 N286 1.332 . S
C291 C290 1.382 . S
C291 H301 0.948 . S
N292 Co270 2.282 . S
N292 C296 1.332 . S
N292 C297 1.332 . S
C293 C294 1.388 . S
C293 C297 1.382 1_554 S
C293 H316 0.950 . S
C294 C293 1.388 . S
C294 C295 1.386 1_554 S
C295 C294 1.386 1_556 S
C295 C296 1.382 . S
C295 H317 0.950 . S
C296 N292 1.332 . S
C296 C295 1.382 . S
C296 H298 0.952 . S
C297 N292 1.332 . S
C297 C293 1.382 1_556 S
C297 H299 0.948 . S
H298 C296 0.952 . S
H299 C297 0.948 . S
H300 C289 0.952 . S
H301 C291 0.948 . S
C302 C268 1.395 . S
C302 C272 1.391 . S
C303 C265 1.389 . S
C303 C285 1.392 . S
C304 C275 1.392 . S
C304 C277 1.389 . S
C305 C280 1.395 . S
C305 C282 1.391 . S
H306 C266 0.951 . S
H307 C267 0.950 . S
H308 C273 0.949 . S
H309 C274 0.950 . S
H310 C278 0.951 . S
H311 C279 0.950 1_554 S
H312 C283 0.949 . S
H313 C284 0.950 . S
H314 C288 0.950 . S
H315 C290 0.950 . S
H316 C293 0.950 . S
H317 C295 0.950 . S
C318 C319 1.363 . S
C318 C324 1.379 1_455 S
C318 N326 1.356 1_556 S
C319 C318 1.363 . S
C319 C325 1.363 . S
C320 C321 1.363 1_455 S
C320 C325 1.379 . S
C320 N327 1.356 . S
C321 C320 1.363 1_655 S
C321 C324 1.363 . S
N322 C324 1.356 . S
N322 H334 0.984 . S
N322 H335 0.985 . S
N323 C325 1.356 . S
N323 H328 0.984 . S
N323 H329 0.985 . S
C324 C318 1.379 1_655 S
C324 C321 1.363 . S
C324 N322 1.356 . S
C325 C319 1.363 . S
C325 C320 1.379 . S
C325 N323 1.356 . S
N326 C318 1.356 1_554 S
N326 H332 0.984 1_455 S
N326 H333 0.984 . S
N327 C320 1.356 . S
N327 H330 0.984 . S
N327 H331 0.985 . S
H328 N323 0.984 . S
H329 N323 0.985 . S
H330 N327 0.984 . S
H331 N327 0.985 . S
H332 N326 0.984 1_655 S
H333 N326 0.984 . S
H334 N322 0.984 . S
H335 N322 0.985 . S
C336 C337 1.357 1_554 S
C336 C342 1.379 1_565 S
C336 N344 1.356 . S
C337 C336 1.357 1_556 S
C337 C343 1.363 1_565 S
C338 C339 1.363 . S
C338 C343 1.379 1_554 S
C338 N345 1.356 . S
C339 C338 1.363 . S
C339 C342 1.363 . S
N340 C342 1.356 . S
N340 H352 0.984 1_545 S
N340 H353 0.985 . S
N341 C343 1.356 . S
N341 H346 0.984 1_545 S
N341 H347 0.985 . S
C342 C336 1.379 1_545 S
C342 C339 1.363 . S
C342 N340 1.356 . S
C343 C337 1.363 1_545 S
C343 C338 1.379 1_556 S
C343 N341 1.356 . S
N344 C336 1.356 . S
N344 H350 0.984 . S
N344 H351 0.994 . S
N345 C338 1.356 . S
N345 H348 0.984 . S
N345 H349 0.985 . S
H346 N341 0.984 1_565 S
H347 N341 0.985 . S
H348 N345 0.984 . S
H349 N345 0.985 . S
H350 N344 0.984 . S
H351 N344 0.994 . S
H352 N340 0.984 1_565 S
H353 N340 0.985 . S
C354 C355 1.363 . S
C354 C360 1.379 . S
C354 N362 1.356 . S
C355 C354 1.363 . S
C355 C361 1.363 . S
C356 C357 1.363 . S
C356 C361 1.379 . S
C356 N363 1.356 1_554 S
C357 C356 1.363 . S
C357 C360 1.363 . S
N358 C360 1.356 . S
N358 H370 0.984 . S
N358 H371 0.985 . S
N359 C361 1.356 . S
N359 H364 0.984 . S
N359 H365 0.985 . S
C360 C354 1.379 . S
C360 C357 1.363 . S
C360 N358 1.356 . S
C361 C355 1.363 . S
C361 C356 1.379 . S
C361 N359 1.356 . S
N362 C354 1.356 . S
N362 H368 0.984 . S
N362 H369 0.984 . S
N363 C356 1.356 1_556 S
N363 H366 0.984 . S
N363 H367 0.985 . S
H364 N359 0.984 . S
H365 N359 0.985 . S
H366 N363 0.984 . S
H367 N363 0.985 . S
H368 N362 0.984 . S
H369 N362 0.984 . S
H370 N358 0.984 . S
H371 N358 0.985 . S
C372 C373 1.363 . S
C372 C378 1.379 . S
C372 N380 1.356 . S
C373 C372 1.363 . S
C373 C379 1.363 . S
C374 C375 1.363 . S
C374 C379 1.379 1_455 S
C374 N381 1.356 . S
C375 C374 1.363 . S
C375 C378 1.363 1_455 S
N376 C378 1.356 . S
N376 H388 0.984 . S
N376 H389 0.985 . S
N377 C379 1.356 . S
N377 H382 0.984 . S
N377 H383 0.985 1_655 S
C378 C372 1.379 . S
C378 C375 1.363 1_655 S
C378 N376 1.356 . S
C379 C373 1.363 . S
C379 C374 1.379 1_655 S
C379 N377 1.356 . S
N380 C372 1.356 . S
N380 H386 0.984 . S
N380 H387 0.984 . S
N381 C374 1.356 . S
N381 H384 0.984 . S
N381 H385 0.985 . S
H382 N377 0.984 . S
H383 N377 0.985 1_455 S
H384 N381 0.984 . S
H385 N381 0.985 . S
H386 N380 0.984 . S
H387 N380 0.984 . S
H388 N376 0.984 . S
H389 N376 0.985 . S
C390 C391 1.363 1_565 S
C390 C396 1.379 . S
C390 N398 1.356 1_565 S
C391 C390 1.363 1_545 S
C391 C397 1.363 1_545 S
C392 C393 1.363 . S
C392 C397 1.379 . S
C392 N399 1.356 . S
C393 C392 1.363 . S
C393 C396 1.363 . S
N394 C396 1.356 . S
N394 H406 0.984 . S
N394 H407 0.985 . S
N395 C397 1.356 1_545 S
N395 H400 0.984 . S
N395 H401 0.985 . S
C396 C390 1.379 . S
C396 C393 1.363 . S
C396 N394 1.356 . S
C397 C391 1.363 1_565 S
C397 C392 1.379 . S
C397 N395 1.356 1_565 S
N398 C390 1.356 1_545 S
N398 H404 0.984 . S
N398 H405 0.984 . S
N399 C392 1.356 . S
N399 H402 0.984 . S
N399 H403 0.985 . S
H400 N395 0.984 . S
H401 N395 0.985 . S
H402 N399 0.984 . S
H403 N399 0.985 . S
H404 N398 0.984 . S
H405 N398 0.984 . S
H406 N394 0.984 . S
H407 N394 0.985 . S
C408 C409 1.363 . S
C408 C414 1.379 . S
C408 N416 1.356 . S
C409 C408 1.363 . S
C409 C415 1.363 . S
C410 C411 1.363 . S
C410 C415 1.379 . S
C410 N417 1.356 . S
C411 C410 1.363 . S
C411 C414 1.363 . S
N412 C414 1.356 . S
N412 H424 0.984 . S
N412 H425 0.985 . S
N413 C415 1.356 . S
N413 H418 0.984 . S
N413 H419 0.985 . S
C414 C408 1.379 . S
C414 C411 1.363 . S
C414 N412 1.356 . S
C415 C409 1.363 . S
C415 C410 1.379 . S
C415 N413 1.356 . S
N416 C408 1.356 . S
N416 H422 0.984 . S
N416 H423 0.984 . S
N417 C410 1.356 . S
N417 H420 0.984 . S
N417 H421 0.985 . S
H418 N413 0.984 . S
H419 N413 0.985 . S
H420 N417 0.984 . S
H421 N417 0.985 . S
H422 N416 0.984 . S
H423 N416 0.984 . S
H424 N412 0.984 . S
H425 N412 0.985 . S
C426 C427 1.363 . S
C426 C432 1.379 . S
C426 N434 1.356 . S
C427 C426 1.363 . S
C427 C433 1.363 . S
C428 C429 1.363 . S
C428 C433 1.379 . S
C428 N435 1.356 . S
C429 C428 1.363 . S
C429 C432 1.363 . S
N430 C432 1.356 . S
N430 H442 0.984 . S
N430 H443 0.985 . S
N431 C433 1.356 . S
N431 H436 0.984 . S
N431 H437 0.985 . S
C432 C426 1.379 . S
C432 C429 1.363 . S
C432 N430 1.356 . S
C433 C427 1.363 . S
C433 C428 1.379 . S
C433 N431 1.356 . S
N434 C426 1.356 . S
N434 H440 0.984 . S
N434 H441 0.984 . S
N435 C428 1.356 . S
N435 H438 0.984 . S
N435 H439 0.985 . S
H436 N431 0.984 . S
H437 N431 0.985 . S
H438 N435 0.984 . S
H439 N435 0.985 . S
H440 N434 0.984 . S
H441 N434 0.984 . S
H442 N430 0.984 . S
H443 N430 0.985 . S
C444 C445 1.363 . S
C444 C450 1.379 . S
C444 N452 1.356 . S
C445 C444 1.363 . S
C445 C451 1.363 . S
C446 C447 1.363 . S
C446 C451 1.379 . S
C446 N453 1.356 . S
C447 C446 1.363 . S
C447 C450 1.363 . S
N448 C450 1.356 . S
N448 H460 0.984 . S
N448 H461 0.985 . S
N449 C451 1.356 . S
N449 H454 0.984 . S
N449 H455 0.985 . S
C450 C444 1.379 . S
C450 C447 1.363 . S
C450 N448 1.356 . S
C451 C445 1.363 . S
C451 C446 1.379 . S
C451 N449 1.356 . S
N452 C444 1.356 . S
N452 H458 0.984 . S
N452 H459 0.984 . S
N453 C446 1.356 . S
N453 H456 0.984 . S
N453 H457 0.985 . S
H454 N449 0.984 . S
H455 N449 0.985 . S
H456 N453 0.984 . S
H457 N453 0.985 . S
H458 N452 0.984 . S
H459 N452 0.984 . S
H460 N448 0.984 . S
H461 N448 0.985 . S
C462 C463 1.363 . S
C462 C468 1.379 . S
C462 N470 1.356 . S
C463 C462 1.363 . S
C463 C469 1.363 . S
C464 C465 1.363 . S
C464 C469 1.379 . S
C464 N471 1.356 . S
C465 C464 1.363 . S
C465 C468 1.363 . S
N466 C468 1.356 . S
N466 H478 0.984 . S
N466 H479 0.985 . S
N467 C469 1.356 . S
N467 H472 0.984 . S
N467 H473 0.985 . S
C468 C462 1.379 . S
C468 C465 1.363 . S
C468 N466 1.356 . S
C469 C463 1.363 . S
C469 C464 1.379 . S
C469 N467 1.356 . S
N470 C462 1.356 . S
N470 H476 0.984 . S
N470 H477 0.984 . S
N471 C464 1.356 . S
N471 H474 0.984 . S
N471 H475 0.985 . S
H472 N467 0.984 . S
H473 N467 0.985 . S
H474 N471 0.984 . S
H475 N471 0.985 . S
H476 N470 0.984 . S
H477 N470 0.984 . S
H478 N466 0.984 . S
H479 N466 0.985 . S
C480 C481 1.363 . S
C480 C486 1.379 . S
C480 N488 1.356 . S
C481 C480 1.363 . S
C481 C487 1.363 . S
C482 C483 1.363 . S
C482 C487 1.379 . S
C482 N489 1.356 . S
C483 C482 1.363 . S
C483 C486 1.363 . S
N484 C486 1.356 . S
N484 H496 0.984 . S
N484 H497 0.985 . S
N485 C487 1.356 . S
N485 H490 0.984 . S
N485 H491 0.985 . S
C486 C480 1.379 . S
C486 C483 1.363 . S
C486 N484 1.356 . S
C487 C481 1.363 . S
C487 C482 1.379 . S
C487 N485 1.356 . S
N488 C480 1.356 . S
N488 H494 0.984 . S
N488 H495 0.984 . S
N489 C482 1.356 . S
N489 H492 0.984 . S
N489 H493 0.985 . S
H490 N485 0.984 . S
H491 N485 0.985 . S
H492 N489 0.984 . S
H493 N489 0.985 . S
H494 N488 0.984 . S
H495 N488 0.984 . S
H496 N484 0.984 . S
H497 N484 0.985 . S
C498 C499 1.363 . S
C498 C504 1.379 . S
C498 N506 1.356 . S
C499 C498 1.363 . S
C499 C505 1.363 . S
C500 C501 1.363 . S
C500 C505 1.379 . S
C500 N507 1.356 1_556 S
C501 C500 1.363 . S
C501 C504 1.363 . S
N502 C504 1.356 . S
N502 H514 0.984 . S
N502 H515 0.985 . S
N503 C505 1.349 1_554 S
N503 H508 0.979 1_554 S
N503 H509 0.998 . S
C504 C498 1.379 . S
C504 C501 1.363 . S
C504 N502 1.356 . S
C505 C499 1.363 . S
C505 C500 1.379 . S
C505 N503 1.349 1_556 S
N506 C498 1.356 . S
N506 H512 0.984 . S
N506 H513 0.984 . S
N507 C500 1.356 1_554 S
N507 H510 0.984 . S
N507 H511 0.985 . S
H508 N503 0.979 1_556 S
H509 N503 0.998 . S
H510 N507 0.984 . S
H511 N507 0.985 . S
H512 N506 0.984 . S
H513 N506 0.984 . S
H514 N502 0.984 . S
H515 N502 0.985 . S
C516 C517 1.363 . S
C516 C522 1.379 . S
C516 N524 1.356 . S
C517 C516 1.363 . S
C517 C523 1.363 . S
C518 C519 1.363 . S
C518 C523 1.379 . S
C518 N525 1.356 . S
C519 C518 1.363 . S
C519 C522 1.363 . S
N520 C522 1.356 . S
N520 H532 0.984 . S
N520 H533 0.985 . S
N521 C523 1.356 1_556 S
N521 H526 0.984 . S
N521 H527 0.985 . S
C522 C516 1.379 . S
C522 C519 1.363 . S
C522 N520 1.356 . S
C523 C517 1.363 . S
C523 C518 1.379 . S
C523 N521 1.356 1_554 S
N524 C516 1.356 . S
N524 H530 0.984 . S
N524 H531 0.984 . S
N525 C518 1.356 . S
N525 H528 0.984 . S
N525 H529 0.985 . S
H526 N521 0.984 . S
H527 N521 0.985 . S
H528 N525 0.984 . S
H529 N525 0.985 . S
H530 N524 0.984 . S
H531 N524 0.984 . S
H532 N520 0.984 . S
H533 N520 0.985 . S
C319 C39 1.871 1_556 S
C321 C181 1.867 . S
C337 C234 1.787 . S
C339 C92 1.779 . S
C355 C128 1.825 . S
C357 C304 1.812 1_554 S
C373 C198 1.871 . S
C375 C22 1.867 . S
C391 C75 1.782 . S
C393 C251 1.779 . S
C409 C287 1.825 . S
C411 C145 1.812 . S
C427 C38 1.958 . S
C429 C144 1.963 . S
C445 C91 1.846 . S
C447 C188 1.824 . S
C463 C241 1.662 . S
C465 C135 1.659 . S
C481 C303 1.963 . S
C483 C197 1.958 . S
C499 C250 1.846 . S
C501 C29 1.824 . S
C517 C294 1.659 . S
C519 C82 1.662 . S
