# Generated by pormake.
# Topology wjr, (5)-cn, num edge types: 1
# Building blocks:
#     Node 0, Type 0, BuildingBlock: XOMCOT_clean_sbu_1, # of connection points: 5
#     Node 1, Type 0, BuildingBlock: XOMCOT_clean_sbu_1, # of connection points: 5
#     Node 2, Type 0, BuildingBlock: XOMCOT_clean_sbu_1, # of connection points: 5
#     Node 3, Type 0, BuildingBlock: XOMCOT_clean_sbu_1, # of connection points: 5
#     Node 4, Type 0, BuildingBlock: XOMCOT_clean_sbu_1, # of connection points: 5
#     Node 5, Type 0, BuildingBlock: XOMCOT_clean_sbu_1, # of connection points: 5
#     Node 6, Type 0, BuildingBlock: XOMCOT_clean_sbu_1, # of connection points: 5
#     Node 7, Type 0, BuildingBlock: XOMCOT_clean_sbu_1, # of connection points: 5
#     Node 8, Type 0, BuildingBlock: XOMCOT_clean_sbu_1, # of connection points: 5
#     Node 9, Type 0, BuildingBlock: XOMCOT_clean_sbu_1, # of connection points: 5
#     Node 10, Type 0, BuildingBlock: XOMCOT_clean_sbu_1, # of connection points: 5
#     Node 11, Type 0, BuildingBlock: XOMCOT_clean_sbu_1, # of connection points: 5
#     Node 12, Type 0, BuildingBlock: XOMCOT_clean_sbu_1, # of connection points: 5
#     Node 13, Type 0, BuildingBlock: XOMCOT_clean_sbu_1, # of connection points: 5
#     Node 14, Type 0, BuildingBlock: XOMCOT_clean_sbu_1, # of connection points: 5
#     Node 15, Type 0, BuildingBlock: XOMCOT_clean_sbu_1, # of connection points: 5
#     Node 16, Type 0, BuildingBlock: XOMCOT_clean_sbu_1, # of connection points: 5
#     Node 17, Type 0, BuildingBlock: XOMCOT_clean_sbu_1, # of connection points: 5
#     Node 18, Type 0, BuildingBlock: XOMCOT_clean_sbu_1, # of connection points: 5
#     Node 19, Type 0, BuildingBlock: XOMCOT_clean_sbu_1, # of connection points: 5
#     Node 20, Type 0, BuildingBlock: XOMCOT_clean_sbu_1, # of connection points: 5
#     Node 21, Type 0, BuildingBlock: XOMCOT_clean_sbu_1, # of connection points: 5
#     Node 22, Type 0, BuildingBlock: XOMCOT_clean_sbu_1, # of connection points: 5
#     Node 23, Type 0, BuildingBlock: XOMCOT_clean_sbu_1, # of connection points: 5
#     Edge 24, Type (0, 0), BuildingBlock: CIFDUS_clean_linker_0, # of connection points: 2
#     Edge 25, Type (0, 0), BuildingBlock: CIFDUS_clean_linker_0, # of connection points: 2
#     Edge 26, Type (0, 0), BuildingBlock: CIFDUS_clean_linker_0, # of connection points: 2
#     Edge 27, Type (0, 0), BuildingBlock: CIFDUS_clean_linker_0, # of connection points: 2
#     Edge 28, Type (0, 0), BuildingBlock: CIFDUS_clean_linker_0, # of connection points: 2
#     Edge 29, Type (0, 0), BuildingBlock: CIFDUS_clean_linker_0, # of connection points: 2
#     Edge 30, Type (0, 0), BuildingBlock: CIFDUS_clean_linker_0, # of connection points: 2
#     Edge 31, Type (0, 0), BuildingBlock: CIFDUS_clean_linker_0, # of connection points: 2
#     Edge 32, Type (0, 0), BuildingBlock: CIFDUS_clean_linker_0, # of connection points: 2
#     Edge 33, Type (0, 0), BuildingBlock: CIFDUS_clean_linker_0, # of connection points: 2
#     Edge 34, Type (0, 0), BuildingBlock: CIFDUS_clean_linker_0, # of connection points: 2
#     Edge 35, Type (0, 0), BuildingBlock: CIFDUS_clean_linker_0, # of connection points: 2
#     Edge 36, Type (0, 0), BuildingBlock: CIFDUS_clean_linker_0, # of connection points: 2
#     Edge 37, Type (0, 0), BuildingBlock: CIFDUS_clean_linker_0, # of connection points: 2
#     Edge 38, Type (0, 0), BuildingBlock: CIFDUS_clean_linker_0, # of connection points: 2
#     Edge 39, Type (0, 0), BuildingBlock: CIFDUS_clean_linker_0, # of connection points: 2
#     Edge 40, Type (0, 0), BuildingBlock: CIFDUS_clean_linker_0, # of connection points: 2
#     Edge 41, Type (0, 0), BuildingBlock: CIFDUS_clean_linker_0, # of connection points: 2
#     Edge 42, Type (0, 0), BuildingBlock: CIFDUS_clean_linker_0, # of connection points: 2
#     Edge 43, Type (0, 0), BuildingBlock: CIFDUS_clean_linker_0, # of connection points: 2
#     Edge 44, Type (0, 0), BuildingBlock: CIFDUS_clean_linker_0, # of connection points: 2
#     Edge 45, Type (0, 0), BuildingBlock: CIFDUS_clean_linker_0, # of connection points: 2
#     Edge 46, Type (0, 0), BuildingBlock: CIFDUS_clean_linker_0, # of connection points: 2
#     Edge 47, Type (0, 0), BuildingBlock: CIFDUS_clean_linker_0, # of connection points: 2
#     Edge 48, Type (0, 0), BuildingBlock: CIFDUS_clean_linker_0, # of connection points: 2
#     Edge 49, Type (0, 0), BuildingBlock: CIFDUS_clean_linker_0, # of connection points: 2
#     Edge 50, Type (0, 0), BuildingBlock: CIFDUS_clean_linker_0, # of connection points: 2
#     Edge 51, Type (0, 0), BuildingBlock: CIFDUS_clean_linker_0, # of connection points: 2
#     Edge 52, Type (0, 0), BuildingBlock: CIFDUS_clean_linker_0, # of connection points: 2
#     Edge 53, Type (0, 0), BuildingBlock: CIFDUS_clean_linker_0, # of connection points: 2
#     Edge 54, Type (0, 0), BuildingBlock: CIFDUS_clean_linker_0, # of connection points: 2
#     Edge 55, Type (0, 0), BuildingBlock: CIFDUS_clean_linker_0, # of connection points: 2
#     Edge 56, Type (0, 0), BuildingBlock: CIFDUS_clean_linker_0, # of connection points: 2
#     Edge 57, Type (0, 0), BuildingBlock: CIFDUS_clean_linker_0, # of connection points: 2
#     Edge 58, Type (0, 0), BuildingBlock: CIFDUS_clean_linker_0, # of connection points: 2
#     Edge 59, Type (0, 0), BuildingBlock: CIFDUS_clean_linker_0, # of connection points: 2
#     Edge 60, Type (0, 0), BuildingBlock: CIFDUS_clean_linker_0, # of connection points: 2
#     Edge 61, Type (0, 0), BuildingBlock: CIFDUS_clean_linker_0, # of connection points: 2
#     Edge 62, Type (0, 0), BuildingBlock: CIFDUS_clean_linker_0, # of connection points: 2
#     Edge 63, Type (0, 0), BuildingBlock: CIFDUS_clean_linker_0, # of connection points: 2
#     Edge 64, Type (0, 0), BuildingBlock: CIFDUS_clean_linker_0, # of connection points: 2
#     Edge 65, Type (0, 0), BuildingBlock: CIFDUS_clean_linker_0, # of connection points: 2
#     Edge 66, Type (0, 0), BuildingBlock: CIFDUS_clean_linker_0, # of connection points: 2
#     Edge 67, Type (0, 0), BuildingBlock: CIFDUS_clean_linker_0, # of connection points: 2
#     Edge 68, Type (0, 0), BuildingBlock: CIFDUS_clean_linker_0, # of connection points: 2
#     Edge 69, Type (0, 0), BuildingBlock: CIFDUS_clean_linker_0, # of connection points: 2
#     Edge 70, Type (0, 0), BuildingBlock: CIFDUS_clean_linker_0, # of connection points: 2
#     Edge 71, Type (0, 0), BuildingBlock: CIFDUS_clean_linker_0, # of connection points: 2
#     Edge 72, Type (0, 0), BuildingBlock: CIFDUS_clean_linker_0, # of connection points: 2
#     Edge 73, Type (0, 0), BuildingBlock: CIFDUS_clean_linker_0, # of connection points: 2
#     Edge 74, Type (0, 0), BuildingBlock: CIFDUS_clean_linker_0, # of connection points: 2
#     Edge 75, Type (0, 0), BuildingBlock: CIFDUS_clean_linker_0, # of connection points: 2
#     Edge 76, Type (0, 0), BuildingBlock: CIFDUS_clean_linker_0, # of connection points: 2
#     Edge 77, Type (0, 0), BuildingBlock: CIFDUS_clean_linker_0, # of connection points: 2
#     Edge 78, Type (0, 0), BuildingBlock: CIFDUS_clean_linker_0, # of connection points: 2
#     Edge 79, Type (0, 0), BuildingBlock: CIFDUS_clean_linker_0, # of connection points: 2
#     Edge 80, Type (0, 0), BuildingBlock: CIFDUS_clean_linker_0, # of connection points: 2
#     Edge 81, Type (0, 0), BuildingBlock: CIFDUS_clean_linker_0, # of connection points: 2
#     Edge 82, Type (0, 0), BuildingBlock: CIFDUS_clean_linker_0, # of connection points: 2
#     Edge 83, Type (0, 0), BuildingBlock: CIFDUS_clean_linker_0, # of connection points: 2
# Relax obj value: 0.617
# Max RMSD: 0.258
# Mean RMSD: 0.258
data_MOF--net-wjr--node1-XOMCOT_clean_sbu_1--edge1-CIFDUS_clean_linker_0
_symmetry_space_group_name_H-M    P1
_symmetry_Int_Tables_number       1
_symmetry_cell_setting            triclinic
loop_
_symmetry_equiv_pos_as_xyz
'x, y, z'
_cell_length_a     56.997765
_cell_length_b     56.83257
_cell_length_c     42.346915
_cell_angle_alpha  89.90104
_cell_angle_beta   90.069302
_cell_angle_gamma 119.90059
loop_
_atom_site_label
_atom_site_type_symbol
_atom_site_fract_x
_atom_site_fract_y
_atom_site_fract_z
_atom_type_partial_charge
C0 C 0.52514 0.1755 0.18771 0.0
C1 C 0.52597 0.19602 0.20582 0.0
N2 N 0.50039 0.19035 0.21143 0.0
N3 N 0.49914 0.15679 0.18181 0.0
C4 C 0.48457 0.16663 0.19617 0.0
H5 H 0.54241 0.17388 0.18019 0.0
Co6 Co 0.48701 0.12271 0.16251 0.0
C7 C 0.51113 0.09685 0.2 0.0
O8 O 0.48736 0.07455 0.19999 0.0
N9 N 0.47568 0.08823 0.14252 0.0
C10 C 0.45446 0.04473 0.12764 0.0
C11 C 0.45117 0.06604 0.13753 0.0
C12 C 0.49334 0.08006 0.13324 0.0
N13 N 0.48113 0.05341 0.12558 0.0
O14 O 0.51196 0.13946 0.12799 0.0
H15 H 0.43186 0.06454 0.14183 0.0
H16 H 0.51505 0.09295 0.13502 0.0
O17 O 0.51418 0.11838 0.18648 0.0
C18 C 0.50671 0.15349 0.10872 0.0
O19 O 0.4873 0.15865 0.11586 0.0
N20 N 0.46113 0.10675 0.19515 0.0
C21 C 0.4199 0.07891 0.23885 0.0
C22 C 0.44706 0.09284 0.24857 0.0
C23 C 0.46737 0.10738 0.22644 0.0
C24 C 0.43494 0.09737 0.18649 0.0
C25 C 0.41389 0.08286 0.20781 0.0
H26 H 0.48813 0.11831 0.23439 0.0
H27 H 0.43033 0.10036 0.16255 0.0
H28 H 0.46269 0.15583 0.19682 0.0
H29 H 0.5441 0.21358 0.21451 0.0
H30 H 0.43834 0.02419 0.12341 0.0
H31 H 0.45281 0.09127 0.27252 0.0
H32 H 0.39316 0.0738 0.19968 0.0
C33 C 0.30685 0.4988 0.16536 0.0
C34 C 0.28911 0.50324 0.18282 0.0
N35 N 0.29249 0.49957 0.21351 0.0
N36 N 0.32173 0.49244 0.18475 0.0
C37 C 0.31243 0.49324 0.21407 0.0
H38 H 0.3081 0.49968 0.13995 0.0
Co39 Co 0.34789 0.4826 0.17267 0.0
C40 C 0.39416 0.51621 0.2161 0.0
O41 O 0.40001 0.49689 0.22118 0.0
N42 N 0.3739 0.47256 0.15977 0.0
C43 C 0.38981 0.44767 0.13786 0.0
C44 C 0.36713 0.4478 0.14833 0.0
C45 C 0.40114 0.48747 0.15478 0.0
N46 N 0.41131 0.47258 0.14194 0.0
O47 O 0.35908 0.50666 0.13741 0.0
H48 H 0.3468 0.431 0.14596 0.0
H49 H 0.41311 0.50908 0.15895 0.0
O50 O 0.37435 0.51211 0.19845 0.0
C51 C 0.34664 0.49467 0.11227 0.0
O52 O 0.32623 0.46971 0.11428 0.0
N53 N 0.33571 0.4567 0.20542 0.0
C54 C 0.32671 0.4114 0.23925 0.0
C55 C 0.3397 0.43699 0.25361 0.0
C56 C 0.34385 0.45961 0.23621 0.0
C57 C 0.31807 0.43156 0.194 0.0
C58 C 0.31392 0.40841 0.21015 0.0
H59 H 0.35477 0.47927 0.24713 0.0
H60 H 0.30988 0.42958 0.17048 0.0
H61 H 0.31995 0.48926 0.23561 0.0
H62 H 0.27415 0.50783 0.1735 0.0
H63 H 0.39035 0.43063 0.12724 0.0
H64 H 0.34921 0.43992 0.27655 0.0
H65 H 0.30328 0.38882 0.19863 0.0
C66 C 0.8347 0.2905 0.13568 0.0
C67 C 0.81264 0.26955 0.15009 0.0
N68 N 0.80306 0.28007 0.17144 0.0
N69 N 0.83962 0.31453 0.14778 0.0
C70 C 0.81933 0.30733 0.16918 0.0
H71 H 0.84693 0.28811 0.11794 0.0
Co72 Co 0.87024 0.34721 0.13297 0.0
C73 C 0.85699 0.37055 0.18932 0.0
O74 O 0.85786 0.35288 0.20867 0.0
N75 N 0.90061 0.37816 0.1167 0.0
C76 C 0.94103 0.40082 0.09383 0.0
C77 C 0.91889 0.37562 0.09907 0.0
C78 C 0.91183 0.40528 0.12135 0.0
N79 N 0.93664 0.41949 0.10794 0.0
O80 O 0.84888 0.35036 0.10024 0.0
H81 H 0.91669 0.35641 0.09169 0.0
H82 H 0.90289 0.41435 0.13584 0.0
O83 O 0.86155 0.36989 0.15985 0.0
C84 C 0.846 0.33762 0.07453 0.0
O85 O 0.8542 0.31979 0.07321 0.0
N86 N 0.89316 0.34481 0.1635 0.0
C87 C 0.93994 0.34954 0.19026 0.0
C88 C 0.93298 0.36954 0.19524 0.0
C89 C 0.90981 0.36703 0.18132 0.0
C90 C 0.89899 0.32435 0.15994 0.0
C91 C 0.9223 0.3262 0.17344 0.0
H92 H 0.90715 0.38449 0.18225 0.0
H93 H 0.8873 0.30782 0.14403 0.0
H94 H 0.81591 0.32139 0.18266 0.0
H95 H 0.80502 0.24812 0.14622 0.0
H96 H 0.95917 0.40508 0.08106 0.0
H97 H 0.94654 0.38808 0.20772 0.0
H98 H 0.92753 0.31066 0.16867 0.0
C99 C 0.55375 0.83784 0.15187 0.0
C100 C 0.54985 0.81522 0.16815 0.0
N101 N 0.53585 0.813 0.1946 0.0
N102 N 0.54188 0.84977 0.16755 0.0
C103 C 0.53127 0.83419 0.19378 0.0
H104 H 0.5656 0.84568 0.13061 0.0
Co105 Co 0.54423 0.88271 0.1548 0.0
C106 C 0.52089 0.8967 0.20921 0.0
O107 O 0.54091 0.92194 0.20809 0.0
N108 N 0.54635 0.91588 0.14083 0.0
C109 C 0.55916 0.95499 0.11567 0.0
C110 C 0.56575 0.93531 0.12255 0.0
C111 C 0.52741 0.92373 0.14305 0.0
N112 N 0.53502 0.94792 0.12883 0.0
O113 O 0.51415 0.86375 0.12646 0.0
H114 H 0.58316 0.93492 0.11333 0.0
H115 H 0.50817 0.9117 0.15471 0.0
O116 O 0.51964 0.87941 0.18896 0.0
C117 C 0.521 0.85935 0.09941 0.0
O118 O 0.54644 0.86651 0.09458 0.0
N119 N 0.57524 0.90139 0.18086 0.0
C120 C 0.62194 0.93516 0.21529 0.0
C121 C 0.5979 0.91645 0.23065 0.0
C122 C 0.57516 0.89903 0.21297 0.0
C123 C 0.59934 0.91595 0.1656 0.0
C124 C 0.6229 0.9333 0.18228 0.0
H125 H 0.5572 0.88464 0.22545 0.0
H126 H 0.6003 0.91438 0.14032 0.0
H127 H 0.52091 0.8385 0.2123 0.0
H128 H 0.55786 0.80214 0.16182 0.0
H129 H 0.57101 0.97269 0.10112 0.0
H130 H 0.59586 0.91603 0.25606 0.0
H131 H 0.64141 0.94563 0.16924 0.0
C132 C 0.69994 0.55229 0.12523 0.0
C133 C 0.72385 0.55729 0.1392 0.0
N134 N 0.7181 0.5393 0.16285 0.0
N135 N 0.6791 0.53137 0.14011 0.0
C136 C 0.69085 0.52355 0.16254 0.0
H137 H 0.69774 0.56404 0.10653 0.0
Co138 Co 0.64252 0.52052 0.13329 0.0
C139 C 0.61502 0.48834 0.18839 0.0
O140 O 0.60361 0.50333 0.1918 0.0
N141 N 0.60424 0.5083 0.12635 0.0
C142 C 0.5612 0.47865 0.11392 0.0
C143 C 0.58714 0.48313 0.11508 0.0
C144 C 0.58735 0.51835 0.13265 0.0
N145 N 0.56117 0.50073 0.12505 0.0
O146 O 0.64141 0.4961 0.10178 0.0
H147 H 0.59278 0.46813 0.10917 0.0
H148 H 0.59357 0.53768 0.14362 0.0
O149 O 0.63154 0.49278 0.1658 0.0
C150 C 0.64123 0.50591 0.0748 0.0
O151 O 0.6401 0.52842 0.07326 0.0
N152 N 0.64646 0.54737 0.16143 0.0
C153 C 0.65458 0.59188 0.19701 0.0
C154 C 0.66044 0.57251 0.20968 0.0
C155 C 0.65616 0.55033 0.19151 0.0
C156 C 0.64485 0.56803 0.14729 0.0
C157 C 0.64776 0.58999 0.16487 0.0
H158 H 0.66041 0.53548 0.20183 0.0
H159 H 0.6399 0.56673 0.12245 0.0
H160 H 0.67965 0.50803 0.18001 0.0
H161 H 0.74385 0.57367 0.13325 0.0
H162 H 0.54343 0.45994 0.10687 0.0
H163 H 0.66749 0.57392 0.23372 0.0
H164 H 0.64338 0.60444 0.15355 0.0
C165 C 0.15238 0.70101 0.15348 0.0
C166 C 0.1737 0.72035 0.1706 0.0
N167 N 0.1867 0.70871 0.18447 0.0
N168 N 0.1517 0.67707 0.15624 0.0
C169 C 0.17304 0.6824 0.17511 0.0
H170 H 0.13735 0.70385 0.14114 0.0
Co171 Co 0.12281 0.64483 0.13996 0.0
C172 C 0.12084 0.60699 0.18982 0.0
O173 O 0.09598 0.60057 0.19731 0.0
N174 N 0.09352 0.61278 0.12199 0.0
C175 C 0.05842 0.58906 0.08977 0.0
C176 C 0.0798 0.61435 0.09677 0.0
C177 C 0.08084 0.58576 0.12859 0.0
N178 N 0.05905 0.57109 0.1099 0.0
O179 O 0.14586 0.64491 0.10686 0.0
H180 H 0.08448 0.63305 0.08491 0.0
H181 H 0.087 0.57664 0.14666 0.0
O182 O 0.13308 0.62328 0.16696 0.0
C183 C 0.14919 0.66249 0.08603 0.0
O184 O 0.13676 0.67652 0.08964 0.0
N185 N 0.09993 0.64664 0.17136 0.0
C186 C 0.06473 0.6485 0.21584 0.0
C187 C 0.09084 0.65443 0.22459 0.0
C188 C 0.10815 0.65352 0.20202 0.0
C189 C 0.07588 0.64405 0.1619 0.0
C190 C 0.05769 0.64413 0.18377 0.0
H191 H 0.12771 0.6571 0.20969 0.0
H192 H 0.07034 0.64167 0.13736 0.0
H193 H 0.1777 0.66707 0.18297 0.0
H194 H 0.1782 0.74105 0.17406 0.0
H195 H 0.04354 0.58423 0.07133 0.0
H196 H 0.09768 0.65898 0.24884 0.0
H197 H 0.03795 0.6398 0.17553 0.0
C198 C 0.82729 0.54114 0.3462 0.0
C199 C 0.80911 0.54323 0.32679 0.0
N200 N 0.80101 0.52392 0.30442 0.0
N201 N 0.83083 0.52058 0.33635 0.0
C202 C 0.81423 0.51018 0.31092 0.0
H203 H 0.83856 0.55482 0.36524 0.0
Co204 Co 0.8592 0.51628 0.35276 0.0
C205 C 0.86682 0.49115 0.2925 0.0
O206 O 0.88894 0.51267 0.28264 0.0
N207 N 0.88785 0.51221 0.37015 0.0
C208 C 0.91542 0.51014 0.40616 0.0
C209 C 0.89384 0.51432 0.40123 0.0
C210 C 0.90634 0.50695 0.35671 0.0
N211 N 0.92328 0.50539 0.37804 0.0
O212 O 0.83443 0.48506 0.37671 0.0
H213 H 0.8831 0.51865 0.41927 0.0
H214 H 0.90783 0.50474 0.33172 0.0
O215 O 0.85537 0.49173 0.3182 0.0
C216 C 0.82305 0.48774 0.40124 0.0
O217 O 0.82167 0.51001 0.40434 0.0
N218 N 0.88413 0.54813 0.33164 0.0
C219 C 0.92659 0.59443 0.30504 0.0
C220 C 0.90378 0.57728 0.28686 0.0
C221 C 0.88229 0.55448 0.30095 0.0
C222 C 0.90402 0.56689 0.35053 0.0
C223 C 0.92564 0.59008 0.33768 0.0
H224 H 0.86523 0.54088 0.28654 0.0
H225 H 0.90377 0.56337 0.37563 0.0
H226 H 0.8135 0.49441 0.29596 0.0
H227 H 0.80311 0.55852 0.32823 0.0
H228 H 0.92427 0.51014 0.42878 0.0
H229 H 0.90334 0.58019 0.26163 0.0
H230 H 0.94225 0.6036 0.35285 0.0
C231 C 0.32201 0.8176 0.35195 0.0
C232 C 0.30046 0.79652 0.33631 0.0
N233 N 0.30038 0.80436 0.30631 0.0
N234 N 0.33499 0.8391 0.33225 0.0
C235 C 0.32193 0.82963 0.30445 0.0
H236 H 0.32819 0.81673 0.37586 0.0
Co237 Co 0.36833 0.87265 0.33546 0.0
C238 C 0.38977 0.84603 0.30625 0.0
O239 O 0.37633 0.8494 0.28322 0.0
N240 N 0.40213 0.90491 0.33547 0.0
C241 C 0.43554 0.94206 0.31359 0.0
C242 C 0.40995 0.92049 0.30933 0.0
C243 C 0.42367 0.91722 0.35532 0.0
N244 N 0.44434 0.94023 0.34256 0.0
O245 O 0.36713 0.87104 0.38237 0.0
H246 H 0.39776 0.9161 0.28823 0.0
H247 H 0.42423 0.9094 0.37845 0.0
O248 O 0.3874 0.8531 0.33403 0.0
C249 C 0.34676 0.86745 0.39894 0.0
O250 O 0.32463 0.86355 0.38464 0.0
N251 N 0.35062 0.89418 0.33506 0.0
C252 C 0.34181 0.93697 0.31877 0.0
C253 C 0.32561 0.91093 0.30613 0.0
C254 C 0.33105 0.89023 0.31362 0.0
C255 C 0.36215 0.91754 0.35259 0.0
C256 C 0.35874 0.93944 0.34423 0.0
H257 H 0.32056 0.87208 0.30012 0.0
H258 H 0.3767 0.92068 0.37083 0.0
H259 H 0.32879 0.84091 0.2826 0.0
H260 H 0.28616 0.77698 0.34624 0.0
H261 H 0.44709 0.95747 0.29613 0.0
H262 H 0.31055 0.90701 0.28822 0.0
H263 H 0.3714 0.95863 0.35583 0.0
C264 C 0.45441 0.30677 0.34173 0.0
C265 C 0.45192 0.28234 0.3328 0.0
N266 N 0.47691 0.28571 0.32906 0.0
N267 N 0.48086 0.32577 0.34303 0.0
C268 C 0.49398 0.31191 0.33701 0.0
H269 H 0.43791 0.31083 0.3446 0.0
Co270 Co 0.49553 0.36381 0.3447 0.0
C271 C 0.52637 0.35917 0.28641 0.0
O272 O 0.51061 0.33391 0.27751 0.0
N273 N 0.51026 0.40241 0.34597 0.0
C274 C 0.52612 0.44435 0.32728 0.0
C275 C 0.52087 0.41863 0.32045 0.0
C276 C 0.50888 0.41909 0.36806 0.0
N277 N 0.51853 0.44489 0.35724 0.0
O278 O 0.52183 0.36611 0.37418 0.0
H279 H 0.52283 0.41194 0.29727 0.0
H280 H 0.49982 0.41214 0.39107 0.0
O281 O 0.52008 0.36896 0.30999 0.0
C282 C 0.5122 0.36385 0.40178 0.0
O283 O 0.48829 0.36172 0.40491 0.0
N284 N 0.46825 0.36123 0.31812 0.0
C285 C 0.42369 0.35881 0.28759 0.0
C286 C 0.44044 0.35092 0.27197 0.0
C287 C 0.46279 0.35246 0.28763 0.0
C288 C 0.4516 0.36781 0.33402 0.0
C289 C 0.42965 0.3673 0.31914 0.0
H290 H 0.47518 0.34618 0.27531 0.0
H291 H 0.45565 0.37383 0.35852 0.0
H292 H 0.51578 0.32161 0.33517 0.0
H293 H 0.43314 0.26397 0.32755 0.0
H294 H 0.5332 0.46088 0.3105 0.0
H295 H 0.43643 0.34363 0.24788 0.0
H296 H 0.41799 0.37425 0.33228 0.0
C297 C 0.14419 0.44441 0.36872 0.0
C298 C 0.16721 0.4437 0.36052 0.0
N299 N 0.18572 0.46831 0.34927 0.0
N300 N 0.14781 0.46924 0.36244 0.0
C301 C 0.17364 0.4836 0.35191 0.0
H302 H 0.12517 0.42722 0.37605 0.0
Co303 Co 0.11975 0.47756 0.35977 0.0
C304 C 0.15389 0.51706 0.3036 0.0
O305 O 0.16845 0.50796 0.28989 0.0
N306 N 0.09113 0.48598 0.3556 0.0
C307 C 0.06148 0.4927 0.32828 0.0
C308 C 0.08344 0.48922 0.32642 0.0
C309 C 0.07286 0.4875 0.37505 0.0
N310 N 0.05444 0.49138 0.35876 0.0
O311 O 0.13743 0.50464 0.39153 0.0
H312 H 0.09269 0.48824 0.30458 0.0
H313 H 0.0723 0.48475 0.40036 0.0
O314 O 0.13846 0.50411 0.32672 0.0
C315 C 0.12763 0.49482 0.41858 0.0
O316 O 0.10657 0.47022 0.4201 0.0
N317 N 0.10162 0.44918 0.33133 0.0
C318 C 0.06726 0.40489 0.2942 0.0
C319 C 0.09301 0.42429 0.28308 0.0
C320 C 0.11004 0.44634 0.3022 0.0
C321 C 0.07779 0.4294 0.34348 0.0
C322 C 0.06017 0.40725 0.32526 0.0
H323 H 0.12966 0.46112 0.29346 0.0
H324 H 0.07195 0.43152 0.36714 0.0
H325 H 0.18302 0.50462 0.34494 0.0
H326 H 0.16908 0.42567 0.36022 0.0
H327 H 0.05125 0.49572 0.30845 0.0
H328 H 0.09961 0.42291 0.25954 0.0
H329 H 0.04052 0.39308 0.33495 0.0
C330 C 0.72177 0.1703 0.36258 0.0
C331 C 0.7392 0.19397 0.34723 0.0
N332 N 0.72611 0.19706 0.3225 0.0
N333 N 0.69747 0.15849 0.3481 0.0
C334 C 0.70081 0.17525 0.32351 0.0
H335 H 0.72702 0.16153 0.38209 0.0
Co336 Co 0.66887 0.12404 0.35948 0.0
C337 C 0.63022 0.10765 0.30698 0.0
O338 O 0.62914 0.08398 0.30712 0.0
N339 N 0.63953 0.08898 0.37197 0.0
C340 C 0.61368 0.04538 0.38547 0.0
C341 C 0.63981 0.06668 0.38262 0.0
C342 C 0.6127 0.08088 0.37091 0.0
N343 N 0.59646 0.05414 0.37749 0.0
O344 O 0.65552 0.14014 0.389 0.0
H345 H 0.65761 0.06531 0.38763 0.0
H346 H 0.60519 0.09427 0.36409 0.0
O347 O 0.64577 0.12612 0.32643 0.0
C348 C 0.6676 0.14668 0.41556 0.0
O349 O 0.68813 0.14272 0.42037 0.0
N350 N 0.68355 0.10859 0.33173 0.0
C351 C 0.69751 0.07735 0.29407 0.0
C352 C 0.69114 0.09607 0.28042 0.0
C353 C 0.68529 0.11229 0.29976 0.0
C354 C 0.69506 0.09503 0.34524 0.0
C355 C 0.70176 0.07879 0.3269 0.0
H356 H 0.6802 0.12628 0.28873 0.0
H357 H 0.69799 0.09589 0.37051 0.0
H358 H 0.68538 0.17114 0.30602 0.0
H359 H 0.76043 0.20704 0.35267 0.0
H360 H 0.60803 0.02471 0.3915 0.0
H361 H 0.6886 0.09699 0.25523 0.0
H362 H 0.70888 0.06656 0.33856 0.0
C363 C 0.55869 0.71611 0.37639 0.0
C364 C 0.56016 0.73874 0.36267 0.0
N365 N 0.53896 0.73062 0.3431 0.0
N366 N 0.53695 0.69339 0.36525 0.0
C367 C 0.5248 0.70326 0.34584 0.0
H368 H 0.57305 0.71639 0.39326 0.0
Co369 Co 0.52844 0.65756 0.37845 0.0
C370 C 0.48951 0.64023 0.32436 0.0
O371 O 0.5084 0.65703 0.30481 0.0
N372 N 0.51979 0.62208 0.3926 0.0
C373 C 0.49418 0.57854 0.40613 0.0
C374 C 0.49529 0.60325 0.40357 0.0
C375 C 0.53356 0.60836 0.38993 0.0
N376 N 0.51817 0.58153 0.39703 0.0
O377 O 0.51009 0.66112 0.41424 0.0
H378 H 0.47858 0.60682 0.4075 0.0
H379 H 0.55407 0.61762 0.38115 0.0
O380 O 0.49503 0.64023 0.35365 0.0
C381 C 0.52804 0.67096 0.43578 0.0
O382 O 0.55227 0.6747 0.42966 0.0
N383 N 0.549 0.65507 0.34521 0.0
C384 C 0.5854 0.64757 0.30923 0.0
C385 C 0.55764 0.62932 0.30689 0.0
C386 C 0.53972 0.63326 0.32535 0.0
C387 C 0.57606 0.6733 0.34695 0.0
C388 C 0.59466 0.67015 0.32877 0.0
H389 H 0.51887 0.61722 0.32603 0.0
H390 H 0.58375 0.68903 0.36452 0.0
H391 H 0.50548 0.69114 0.33458 0.0
H392 H 0.57615 0.75952 0.36601 0.0
H393 H 0.47633 0.5595 0.412 0.0
H394 H 0.55009 0.61107 0.29278 0.0
H395 H 0.61614 0.68397 0.33185 0.0
C396 C 0.54954 0.85791 0.87559 0.0
C397 C 0.5581 0.8406 0.86495 0.0
N398 N 0.54208 0.82589 0.84077 0.0
N399 N 0.52864 0.85508 0.85785 0.0
C400 C 0.52368 0.83426 0.83812 0.0
H401 H 0.55821 0.87193 0.89509 0.0
Co402 Co 0.51164 0.87627 0.86463 0.0
C403 C 0.48813 0.8542 0.80124 0.0
O404 O 0.51268 0.86295 0.79019 0.0
N405 N 0.49459 0.89703 0.87255 0.0
C406 C 0.46277 0.90796 0.88167 0.0
C407 C 0.46764 0.88716 0.87449 0.0
C408 C 0.5057 0.92396 0.87859 0.0
N409 N 0.4867 0.93108 0.88393 0.0
O410 O 0.48955 0.85058 0.89651 0.0
H411 H 0.45249 0.86605 0.87134 0.0
H412 H 0.52728 0.93798 0.87954 0.0
O413 O 0.48478 0.85686 0.83075 0.0
C414 C 0.49797 0.86197 0.92336 0.0
O415 O 0.51802 0.88716 0.9242 0.0
N416 N 0.53526 0.90337 0.83638 0.0
C417 C 0.57085 0.95263 0.80807 0.0
C418 C 0.54349 0.9387 0.79955 0.0
C419 C 0.52593 0.91442 0.81444 0.0
C420 C 0.56213 0.91626 0.84392 0.0
C421 C 0.5804 0.94077 0.82965 0.0
H422 H 0.50451 0.90574 0.81015 0.0
H423 H 0.5693 0.90906 0.86304 0.0
H424 H 0.50657 0.82479 0.82253 0.0
H425 H 0.57497 0.83924 0.87451 0.0
H426 H 0.44317 0.90628 0.88508 0.0
H427 H 0.53537 0.94745 0.78309 0.0
H428 H 0.60131 0.95138 0.83738 0.0
C429 C 0.69771 0.493 0.83751 0.0
C430 C 0.72072 0.49667 0.82258 0.0
N431 N 0.72917 0.51784 0.80269 0.0
N432 N 0.69161 0.5119 0.82729 0.0
C433 C 0.7115 0.52691 0.80632 0.0
H434 H 0.6845 0.47562 0.85187 0.0
Co435 Co 0.65665 0.50787 0.82679 0.0
C436 C 0.64663 0.46403 0.78878 0.0
O437 O 0.66626 0.48247 0.77137 0.0
N438 N 0.62175 0.50346 0.82384 0.0
C439 C 0.58365 0.49538 0.80001 0.0
C440 C 0.60856 0.4975 0.79601 0.0
C441 C 0.60453 0.50533 0.84447 0.0
N442 N 0.58101 0.5003 0.83053 0.0
O443 O 0.65034 0.49705 0.87118 0.0
H444 H 0.6167 0.49496 0.77404 0.0
H445 H 0.60912 0.51033 0.86915 0.0
O446 O 0.64176 0.47081 0.81555 0.0
C447 C 0.66572 0.50156 0.8951 0.0
O448 O 0.69198 0.5177 0.89242 0.0
N449 N 0.67013 0.5446 0.83593 0.0
C450 C 0.66628 0.59133 0.83429 0.0
C451 C 0.67443 0.58299 0.80746 0.0
C452 C 0.67562 0.55913 0.80865 0.0
C453 C 0.66569 0.5545 0.86334 0.0
C454 C 0.66352 0.57791 0.86292 0.0
H455 H 0.67695 0.55023 0.78668 0.0
H456 H 0.65997 0.54284 0.88479 0.0
H457 H 0.71097 0.54155 0.79053 0.0
H458 H 0.72904 0.48324 0.82396 0.0
H459 H 0.56888 0.49116 0.78161 0.0
H460 H 0.67583 0.59239 0.78472 0.0
H461 H 0.65652 0.5835 0.88386 0.0
C462 C 0.17203 0.72109 0.85885 0.0
C463 C 0.18892 0.74375 0.84142 0.0
N464 N 0.19537 0.73568 0.81452 0.0
N465 N 0.16785 0.6987 0.84317 0.0
C466 C 0.18254 0.70831 0.81629 0.0
H467 H 0.16215 0.721 0.88064 0.0
Co468 Co 0.14177 0.66305 0.8538 0.0
C469 C 0.14074 0.63011 0.79995 0.0
O470 O 0.11417 0.61701 0.80098 0.0
N471 N 0.1153 0.62638 0.86451 0.0
C472 C 0.09961 0.58241 0.87408 0.0
C473 C 0.1223 0.60751 0.87173 0.0
C474 C 0.0878 0.61184 0.86298 0.0
N475 N 0.07773 0.58493 0.86833 0.0
O476 O 0.16636 0.66083 0.88294 0.0
H477 H 0.14284 0.61131 0.87307 0.0
H478 H 0.07533 0.62037 0.85658 0.0
O479 O 0.15452 0.64909 0.81965 0.0
C480 C 0.16241 0.66838 0.90973 0.0
O481 O 0.14498 0.67705 0.91165 0.0
N482 N 0.1173 0.667 0.82822 0.0
C483 C 0.07364 0.66652 0.79876 0.0
C484 C 0.09468 0.66709 0.7808 0.0
C485 C 0.11694 0.66837 0.79609 0.0
C486 C 0.09978 0.67137 0.84563 0.0
C487 C 0.07756 0.671 0.8314 0.0
H488 H 0.13298 0.669 0.78198 0.0
H489 H 0.10188 0.67292 0.87105 0.0
H490 H 0.18229 0.69555 0.79722 0.0
H491 H 0.19508 0.76453 0.84754 0.0
H492 H 0.09959 0.56356 0.87769 0.0
H493 H 0.09333 0.66467 0.75542 0.0
H494 H 0.06277 0.67236 0.84611 0.0
C495 C 0.47732 0.18499 0.86536 0.0
C496 C 0.47827 0.20444 0.84513 0.0
N497 N 0.49443 0.20701 0.8207 0.0
N498 N 0.49312 0.17543 0.85412 0.0
C499 C 0.50344 0.18953 0.82692 0.0
H500 H 0.46414 0.17692 0.88558 0.0
Co501 Co 0.49349 0.14423 0.86923 0.0
C502 C 0.5312 0.14301 0.81913 0.0
O503 O 0.51445 0.11816 0.80967 0.0
N504 N 0.49301 0.1124 0.88521 0.0
C505 C 0.47722 0.07494 0.9146 0.0
C506 C 0.47629 0.09825 0.90918 0.0
C507 C 0.50484 0.09747 0.87747 0.0
N508 N 0.49507 0.07414 0.89445 0.0
O509 O 0.51759 0.16466 0.90324 0.0
H510 H 0.46317 0.10387 0.92131 0.0
H511 H 0.5205 0.10345 0.86009 0.0
O512 O 0.52478 0.15363 0.84169 0.0
C513 C 0.50435 0.16534 0.92716 0.0
O514 O 0.47798 0.15424 0.92494 0.0
N515 N 0.46763 0.12347 0.8384 0.0
C516 C 0.42734 0.08394 0.80093 0.0
C517 C 0.45038 0.10553 0.78705 0.0
C518 C 0.47003 0.12564 0.80629 0.0
C519 C 0.44343 0.10536 0.85151 0.0
C520 C 0.42307 0.08514 0.8333 0.0
H521 H 0.48773 0.14182 0.79527 0.0
H522 H 0.44024 0.10589 0.87653 0.0
H523 H 0.51609 0.18606 0.81083 0.0
H524 H 0.46616 0.21422 0.84689 0.0
H525 H 0.4646 0.05927 0.93126 0.0
H526 H 0.45418 0.10596 0.76195 0.0
H527 H 0.40485 0.06974 0.84474 0.0
C528 C 0.30585 0.44574 0.86352 0.0
C529 C 0.28363 0.44508 0.84961 0.0
N530 N 0.2911 0.47004 0.8385 0.0
N531 N 0.3278 0.47067 0.85997 0.0
C532 C 0.31735 0.48531 0.84701 0.0
H533 H 0.30585 0.42869 0.87478 0.0
Co534 Co 0.36512 0.4816 0.86788 0.0
C535 C 0.37342 0.52219 0.81747 0.0
O536 O 0.35668 0.50355 0.79765 0.0
N537 N 0.40223 0.49298 0.87586 0.0
C538 C 0.44625 0.52055 0.88451 0.0
C539 C 0.42098 0.51808 0.88538 0.0
C540 C 0.41672 0.48043 0.8698 0.0
N541 N 0.44371 0.49694 0.87434 0.0
O542 O 0.36317 0.49874 0.90595 0.0
H543 H 0.41671 0.5341 0.89117 0.0
H544 H 0.40774 0.45993 0.86082 0.0
O545 O 0.37733 0.51545 0.84494 0.0
C546 C 0.3679 0.49071 0.93203 0.0
O547 O 0.37473 0.47178 0.93198 0.0
N548 N 0.36651 0.46319 0.8316 0.0
C549 C 0.36838 0.43113 0.78298 0.0
C550 C 0.38588 0.45932 0.78296 0.0
C551 C 0.38492 0.47493 0.80775 0.0
C552 C 0.35065 0.43569 0.83285 0.0
C553 C 0.35053 0.41938 0.80836 0.0
H554 H 0.39994 0.49623 0.80849 0.0
H555 H 0.33903 0.42606 0.85368 0.0
H556 H 0.32883 0.50683 0.843 0.0
H557 H 0.26377 0.42735 0.84713 0.0
H558 H 0.46519 0.53895 0.88912 0.0
H559 H 0.40114 0.46913 0.76484 0.0
H560 H 0.33718 0.39764 0.80994 0.0
C561 C 0.8725 0.31092 0.83208 0.0
C562 C 0.85236 0.2859 0.82228 0.0
N563 N 0.8299 0.28738 0.81624 0.0
N564 N 0.8633 0.32866 0.83154 0.0
C565 C 0.83681 0.31319 0.82382 0.0
H566 H 0.89283 0.31576 0.83792 0.0
Co567 Co 0.8835 0.36682 0.83695 0.0
C568 C 0.849 0.36204 0.78011 0.0
O569 O 0.85067 0.34177 0.76758 0.0
N570 N 0.90345 0.40477 0.84269 0.0
C571 C 0.91432 0.44801 0.84788 0.0
C572 C 0.89352 0.42192 0.843 0.0
C573 C 0.93031 0.4209 0.84792 0.0
N574 N 0.93752 0.44737 0.85102 0.0
O575 O 0.85935 0.36328 0.87053 0.0
H576 H 0.87237 0.41579 0.84053 0.0
H577 H 0.94436 0.41338 0.84941 0.0
O578 O 0.86082 0.37224 0.80638 0.0
C579 C 0.86978 0.37026 0.89795 0.0
O580 O 0.89606 0.3809 0.90123 0.0
N581 N 0.90858 0.36999 0.80581 0.0
C582 C 0.94798 0.37061 0.76571 0.0
C583 C 0.92916 0.37786 0.7546 0.0
C584 C 0.91053 0.37863 0.77533 0.0
C585 C 0.92763 0.36459 0.81754 0.0
C586 C 0.94743 0.36479 0.79809 0.0
H587 H 0.89829 0.38673 0.76662 0.0
H588 H 0.92753 0.36025 0.84244 0.0
H589 H 0.82321 0.32123 0.822 0.0
H590 H 0.8549 0.26856 0.81788 0.0
H591 H 0.91237 0.46595 0.84984 0.0
H592 H 0.92866 0.38317 0.7302 0.0
H593 H 0.96239 0.36089 0.8088 0.0
C594 C 0.21133 0.51819 0.659 0.0
C595 C 0.22936 0.51272 0.67447 0.0
N596 N 0.21526 0.49129 0.69362 0.0
N597 N 0.18581 0.50027 0.66827 0.0
C598 C 0.18905 0.484 0.68919 0.0
H599 H 0.21682 0.53612 0.64495 0.0
Co600 Co 0.1559 0.50605 0.66875 0.0
C601 C 0.19188 0.5521 0.70156 0.0
O602 O 0.19258 0.53415 0.72056 0.0
N603 N 0.12634 0.51198 0.67169 0.0
C604 C 0.09843 0.52434 0.69277 0.0
C605 C 0.12188 0.52345 0.69708 0.0
C606 C 0.10491 0.50547 0.6525 0.0
N607 N 0.08765 0.51302 0.66464 0.0
O608 O 0.15687 0.51216 0.62281 0.0
H609 H 0.13463 0.53024 0.71782 0.0
H610 H 0.10172 0.49488 0.63042 0.0
O611 O 0.17954 0.54406 0.67524 0.0
C612 C 0.16872 0.51025 0.59807 0.0
O613 O 0.18591 0.50133 0.60026 0.0
N614 N 0.13164 0.46898 0.6648 0.0
C615 C 0.08138 0.42257 0.67032 0.0
C616 C 0.09719 0.43472 0.69717 0.0
C617 C 0.12208 0.45825 0.69386 0.0
C618 C 0.11833 0.45535 0.63811 0.0
C619 C 0.0928 0.43208 0.64042 0.0
H620 H 0.13234 0.46978 0.71472 0.0
H621 H 0.12556 0.46373 0.615 0.0
H622 H 0.17306 0.46952 0.70422 0.0
H623 H 0.25121 0.52501 0.67386 0.0
H624 H 0.08954 0.5319 0.70966 0.0
H625 H 0.08895 0.42837 0.72069 0.0
H626 H 0.08104 0.42325 0.6192 0.0
C627 C 0.69843 0.17859 0.64936 0.0
C628 C 0.7218 0.19503 0.66595 0.0
N629 N 0.71565 0.207 0.68937 0.0
N630 N 0.67768 0.18007 0.66252 0.0
C631 C 0.68885 0.19767 0.68681 0.0
H632 H 0.69635 0.1652 0.63011 0.0
Co633 Co 0.64144 0.15652 0.65341 0.0
C634 C 0.62589 0.19827 0.67391 0.0
O635 O 0.62718 0.20944 0.64632 0.0
N636 N 0.60458 0.13221 0.64464 0.0
C637 C 0.56085 0.1145 0.63326 0.0
C638 C 0.58502 0.13818 0.63759 0.0
C639 C 0.59184 0.10475 0.64386 0.0
N640 N 0.56517 0.09345 0.63722 0.0
O641 O 0.64498 0.17519 0.61439 0.0
H642 H 0.58804 0.15841 0.63526 0.0
H643 H 0.60188 0.0932 0.64826 0.0
O644 O 0.63116 0.17908 0.67628 0.0
C645 C 0.64347 0.16025 0.59116 0.0
O646 O 0.63981 0.13592 0.59679 0.0
N647 N 0.63885 0.13714 0.68982 0.0
C648 C 0.63034 0.09965 0.73693 0.0
C649 C 0.62489 0.12079 0.74241 0.0
C650 C 0.62866 0.13896 0.71826 0.0
C651 C 0.64693 0.1186 0.68516 0.0
C652 C 0.64248 0.09932 0.7082 0.0
H653 H 0.6222 0.15346 0.72237 0.0
H654 H 0.65509 0.11759 0.66247 0.0
H655 H 0.67737 0.20212 0.70371 0.0
H656 H 0.7416 0.19738 0.66179 0.0
H657 H 0.5417 0.11295 0.62705 0.0
H658 H 0.61632 0.12248 0.76452 0.0
H659 H 0.64682 0.08333 0.70247 0.0
C660 C 0.5651 0.70424 0.69082 0.0
C661 C 0.56971 0.72783 0.70514 0.0
N662 N 0.54569 0.72577 0.71178 0.0
N663 N 0.53821 0.68667 0.68902 0.0
C664 C 0.52704 0.7013 0.70017 0.0
H665 H 0.58074 0.70037 0.6826 0.0
Co666 Co 0.52181 0.64955 0.67551 0.0
C667 C 0.48335 0.64537 0.72624 0.0
O668 O 0.50303 0.66108 0.74561 0.0
N669 N 0.50583 0.6132 0.66161 0.0
C670 C 0.47544 0.57204 0.64456 0.0
C671 C 0.47994 0.5975 0.65223 0.0
C672 C 0.51672 0.59682 0.65914 0.0
N673 N 0.49859 0.57146 0.649 0.0
O674 O 0.50697 0.65769 0.63947 0.0
H675 H 0.4652 0.60416 0.65097 0.0
H676 H 0.53749 0.60334 0.66522 0.0
O677 O 0.48893 0.64009 0.69886 0.0
C678 C 0.52336 0.67188 0.61779 0.0
O679 O 0.54947 0.68256 0.62277 0.0
N680 N 0.53735 0.64079 0.70974 0.0
C681 C 0.56482 0.62801 0.75538 0.0
C682 C 0.53687 0.61807 0.75783 0.0
C683 C 0.52338 0.62371 0.7341 0.0
C684 C 0.56409 0.64914 0.70593 0.0
C685 C 0.57827 0.64331 0.72851 0.0
H686 H 0.50162 0.61338 0.73501 0.0
H687 H 0.57422 0.65918 0.68436 0.0
H688 H 0.50551 0.69371 0.70127 0.0
H689 H 0.58933 0.74494 0.71087 0.0
H690 H 0.45658 0.55541 0.63592 0.0
H691 H 0.5252 0.60545 0.77745 0.0
H692 H 0.59934 0.64981 0.72409 0.0
C693 C 0.85863 0.55029 0.62992 0.0
C694 C 0.83731 0.55153 0.64343 0.0
N695 N 0.8208 0.52747 0.6572 0.0
N696 N 0.85633 0.52586 0.63602 0.0
C697 C 0.832 0.51195 0.65062 0.0
H698 H 0.87495 0.56671 0.6172 0.0
Co699 Co 0.88182 0.51377 0.62953 0.0
C700 C 0.85865 0.48794 0.69232 0.0
O701 O 0.86158 0.51061 0.70423 0.0
N702 N 0.90674 0.50123 0.62331 0.0
C703 C 0.92414 0.47376 0.62312 0.0
C704 C 0.90061 0.47502 0.62262 0.0
C705 C 0.93417 0.51547 0.62365 0.0
N706 N 0.94529 0.49926 0.62424 0.0
O707 O 0.85682 0.48767 0.59998 0.0
H708 H 0.88027 0.45785 0.62355 0.0
H709 H 0.94584 0.53736 0.6252 0.0
O710 O 0.86574 0.48733 0.66381 0.0
C711 C 0.86453 0.48862 0.57154 0.0
O712 O 0.8899 0.50545 0.56415 0.0
N713 N 0.90708 0.54086 0.65643 0.0
C714 C 0.94874 0.58446 0.6886 0.0
C715 C 0.93764 0.5579 0.70032 0.0
C716 C 0.9172 0.53633 0.68359 0.0
C717 C 0.91908 0.56623 0.6436 0.0
C718 C 0.93935 0.58845 0.65966 0.0
H719 H 0.91076 0.51599 0.69161 0.0
H720 H 0.91392 0.56907 0.61995 0.0
H721 H 0.82323 0.49107 0.65796 0.0
H722 H 0.83476 0.56916 0.64397 0.0
H723 H 0.92546 0.45546 0.6249 0.0
H724 H 0.94555 0.5536 0.72148 0.0
H725 H 0.948 0.6084 0.64906 0.0
C726 C 0.30632 0.85634 0.64152 0.0
C727 C 0.28215 0.83598 0.65317 0.0
N728 N 0.28707 0.81857 0.66943 0.0
N729 N 0.32685 0.85278 0.65164 0.0
C730 C 0.31394 0.82836 0.66653 0.0
H731 H 0.30865 0.87307 0.62713 0.0
Co732 Co 0.36458 0.8784 0.64583 0.0
C733 C 0.36836 0.84996 0.70311 0.0
O734 O 0.34971 0.8538 0.71645 0.0
N735 N 0.40131 0.90332 0.63894 0.0
C736 C 0.4459 0.92206 0.63497 0.0
C737 C 0.4218 0.89799 0.63723 0.0
C738 C 0.41333 0.93065 0.63688 0.0
N739 N 0.44065 0.94274 0.63497 0.0
O740 O 0.36454 0.85892 0.60872 0.0
H741 H 0.41945 0.87792 0.63854 0.0
H742 H 0.40212 0.94136 0.63775 0.0
O743 O 0.37524 0.85739 0.67431 0.0
C744 C 0.35956 0.87132 0.58683 0.0
O745 O 0.35575 0.89148 0.59497 0.0
N746 N 0.36491 0.90023 0.67982 0.0
C747 C 0.36998 0.94011 0.72207 0.0
C748 C 0.38672 0.92872 0.72469 0.0
C749 C 0.38436 0.90937 0.70286 0.0
C750 C 0.34908 0.91184 0.67654 0.0
C751 C 0.35092 0.93144 0.6977 0.0
H752 H 0.3992 0.90284 0.70355 0.0
H753 H 0.33633 0.90759 0.65623 0.0
H754 H 0.32389 0.81807 0.67623 0.0
H755 H 0.2626 0.83464 0.65085 0.0
H756 H 0.46578 0.92402 0.63467 0.0
H757 H 0.40265 0.9359 0.74226 0.0
H758 H 0.3383 0.94051 0.69424 0.0
C759 C 0.46576 0.29825 0.63655 0.0
C760 C 0.4664 0.27907 0.65606 0.0
N761 N 0.48703 0.29198 0.67652 0.0
N762 N 0.48609 0.32316 0.64441 0.0
C763 C 0.49875 0.31849 0.66873 0.0
H764 H 0.45025 0.29445 0.6193 0.0
Co765 Co 0.49098 0.35704 0.63057 0.0
C766 C 0.51955 0.39273 0.68395 0.0
O767 O 0.50269 0.40216 0.68373 0.0
N768 N 0.49707 0.39252 0.61757 0.0
C769 C 0.52264 0.43623 0.60412 0.0
C770 C 0.52128 0.41155 0.60591 0.0
C771 C 0.48419 0.40698 0.62309 0.0
N772 N 0.49953 0.43372 0.61555 0.0
O773 O 0.519 0.36096 0.60183 0.0
H774 H 0.5384 0.40879 0.60205 0.0
H775 H 0.46524 0.39903 0.63552 0.0
O776 O 0.5173 0.37511 0.66374 0.0
C777 C 0.51047 0.346 0.57732 0.0
O778 O 0.48474 0.32747 0.57588 0.0
N779 N 0.46186 0.35098 0.65599 0.0
C780 C 0.41738 0.34559 0.68849 0.0
C781 C 0.43841 0.34473 0.70473 0.0
C782 C 0.46028 0.34679 0.68785 0.0
C783 C 0.4397 0.34722 0.63956 0.0
C784 C 0.41733 0.3451 0.6554 0.0
H785 H 0.47647 0.34636 0.70062 0.0
H786 H 0.44033 0.348 0.61403 0.0
H787 H 0.51523 0.33428 0.6821 0.0
H788 H 0.45154 0.25766 0.65686 0.0
H789 H 0.54019 0.45492 0.59663 0.0
H790 H 0.43899 0.34444 0.73029 0.0
H791 H 0.40097 0.34475 0.64198 0.0
H792 H 0.45915 0.99928 0.13693 0.0
H793 H 0.53267 0.07034 0.10669 0.0
H794 H 0.55577 0.04398 0.10511 0.0
H795 H 0.55569 1.00129 0.11387 0.0
H796 H 0.48179 0.92971 0.1424 0.0
H797 H 0.4585 0.95582 0.14308 0.0
C798 C 0.48009 0.00901 0.12945 0.0
C799 C 0.49402 0.03701 0.12201 0.0
C800 C 0.49336 0.99364 0.12852 0.0
C801 C 0.52137 0.04906 0.11294 0.0
C802 C 0.53463 0.03392 0.11193 0.0
C803 C 0.53441 0.9911 0.11983 0.0
C804 C 0.52079 0.96326 0.12811 0.0
C805 C 0.52092 0.00624 0.11993 0.0
C806 C 0.49318 0.95099 0.13626 0.0
C807 C 0.47969 0.96596 0.1365 0.0
H808 H 0.51731 0.48092 0.08786 0.0
H809 H 0.55077 0.5252 0.17407 0.0
H810 H 0.5075 0.52296 0.18597 0.0
H811 H 0.4582 0.50405 0.17401 0.0
H812 H 0.42593 0.45919 0.08775 0.0
H813 H 0.47037 0.46603 0.07367 0.0
C814 C 0.5152 0.49027 0.10915 0.0
C815 C 0.5372 0.50296 0.13016 0.0
C816 C 0.49025 0.48861 0.11592 0.0
C817 C 0.53425 0.5154 0.1574 0.0
C818 C 0.5094 0.51393 0.1643 0.0
C819 C 0.46115 0.49631 0.15189 0.0
C820 C 0.43867 0.48086 0.13208 0.0
C821 C 0.48698 0.50003 0.14406 0.0
C822 C 0.44277 0.4708 0.10356 0.0
C823 C 0.46819 0.47471 0.09549 0.0
H824 H 1.00486 0.54714 0.10424 0.0
H825 H 0.06986 0.53054 0.12014 0.0
H826 H 0.03742 0.48167 0.12136 0.0
H827 H 0.99055 0.44359 0.11643 0.0
H828 H 0.92518 0.46013 0.10367 0.0
H829 H 0.95757 0.50907 0.10293 0.0
C830 C 0.01185 0.53276 0.10788 0.0
C831 C 0.03976 0.54238 0.11172 0.0
C832 C 0.99297 0.50474 0.10917 0.0
C833 C 0.04852 0.5236 0.11713 0.0
C834 C 0.02998 0.49569 0.11773 0.0
C835 C 0.98345 0.45796 0.11347 0.0
C836 C 0.95553 0.44829 0.10971 0.0
C837 C 1.00218 0.48601 0.11355 0.0
C838 C 0.94653 0.46711 0.10661 0.0
C839 C 0.96507 0.49505 0.10604 0.0
H840 H 0.00694 0.4726 0.32867 0.0
H841 H 0.04923 0.51352 0.41352 0.0
H842 H 0.01161 0.52097 0.42795 0.0
H843 H 0.96794 0.51851 0.41405 0.0
H844 H 0.92697 0.47759 0.32823 0.0
H845 H 0.96318 0.46823 0.31619 0.0
C846 C 0.00804 0.48322 0.35033 0.0
C847 C 0.03112 0.49283 0.36977 0.0
C848 C 0.98668 0.48781 0.35803 0.0
C849 C 0.03174 0.50586 0.39819 0.0
C850 C 0.0103 0.51031 0.40625 0.0
C851 C 0.96677 0.50734 0.39286 0.0
C852 C 0.94468 0.49918 0.37188 0.0
C853 C 0.98784 0.50179 0.38602 0.0
C854 C 0.9438 0.48478 0.34449 0.0
C855 C 0.96447 0.47916 0.33767 0.0
H856 H 0.47634 0.99325 0.32809 0.0
H857 H 0.47272 0.92913 0.38616 0.0
H858 H 0.51918 0.9595 0.40407 0.0
H859 H 0.56183 1.00361 0.40071 0.0
H860 H 0.56524 0.06637 0.33986 0.0
H861 H 0.51806 0.03725 0.32579 0.0
C862 C 0.48566 0.98575 0.34455 0.0
C863 C 0.47093 0.95868 0.35542 0.0
C864 C 0.51251 1.00319 0.35432 0.0
C865 C 0.48333 0.94978 0.37746 0.0
C866 C 0.51004 0.96715 0.38754 0.0
C867 C 0.55235 0.01102 0.3844 0.0
C868 C 0.56755 0.03746 0.37154 0.0
C869 C 0.525 0.99381 0.37576 0.0
C870 C 0.5544 0.04652 0.35072 0.0
C871 C 0.52728 0.02969 0.34234 0.0
H872 H 0.54995 0.49813 0.34291 0.0
H873 H 0.4853 0.44357 0.40454 0.0
H874 H 0.48084 0.48163 0.42431 0.0
H875 H 0.49317 0.53008 0.42126 0.0
H876 H 0.55531 0.583 0.35604 0.0
H877 H 0.56288 0.54612 0.34072 0.0
C878 C 0.53475 0.49438 0.36059 0.0
C879 C 0.51776 0.46768 0.37179 0.0
C880 C 0.53183 0.51625 0.37127 0.0
C881 C 0.49877 0.4637 0.39543 0.0
C882 C 0.49606 0.48552 0.4066 0.0
C883 C 0.50841 0.53364 0.40374 0.0
C884 C 0.52386 0.55977 0.39011 0.0
C885 C 0.51213 0.51184 0.39424 0.0
C886 C 0.54363 0.56366 0.36763 0.0
C887 C 0.54774 0.54233 0.35852 0.0
H888 H 0.48206 0.03193 0.93441 0.0
H889 H 0.51854 0.06422 0.84364 0.0
H890 H 0.5218 0.02369 0.83371 0.0
H891 H 0.51078 0.97687 0.84891 0.0
H892 H 0.47016 0.94361 0.93708 0.0
H893 H 0.47181 0.98644 0.94981 0.0
C894 C 0.49065 0.03031 0.91231 0.0
C895 C 0.49972 0.05141 0.88977 0.0
C896 C 0.49165 0.00648 0.90622 0.0
C897 C 0.51145 0.0487 0.86169 0.0
C898 C 0.51319 0.02531 0.85583 0.0
C899 C 0.50272 0.97934 0.87105 0.0
C900 C 0.49051 0.95733 0.89224 0.0
C901 C 0.50291 1.00381 0.87765 0.0
C902 C 0.47969 0.9604 0.92062 0.0
C903 C 0.48059 0.98483 0.9278 0.0
H904 H 0.49483 0.52172 0.89787 0.0
H905 H 0.44257 0.462 0.82981 0.0
H906 H 0.48031 0.45694 0.81136 0.0
H907 H 0.52869 0.47094 0.81256 0.0
H908 H 0.58145 0.53123 0.8796 0.0
H909 H 0.54312 0.53459 0.90033 0.0
C910 C 0.49164 0.50758 0.879 0.0
C911 C 0.46566 0.49232 0.86532 0.0
C912 C 0.51365 0.50495 0.86817 0.0
C913 C 0.46204 0.47379 0.84119 0.0
C914 C 0.48376 0.47104 0.83038 0.0
C915 C 0.53186 0.48488 0.83167 0.0
C916 C 0.55808 0.50097 0.84431 0.0
C917 C 0.50971 0.48675 0.84339 0.0
C918 C 0.56157 0.51848 0.86954 0.0
C919 C 0.53964 0.52051 0.88128 0.0
H920 H 0.95701 0.49962 0.83331 0.0
H921 H 0.97822 0.44658 0.88315 0.0
H922 H 0.02316 0.48489 0.89419 0.0
H923 H 0.05635 0.53324 0.88975 0.0
H924 H 0.03604 0.58617 0.83779 0.0
H925 H 0.99063 0.54835 0.82865 0.0
C926 C 0.97139 0.49647 0.8468 0.0
C927 C 0.96416 0.47014 0.85733 0.0
C928 C 0.99733 0.51866 0.85298 0.0
C929 C 0.98326 0.46645 0.87438 0.0
C930 C 0.00894 0.48843 0.8809 0.0
C931 C 0.04223 0.53666 0.87617 0.0
C932 C 0.0501 0.56285 0.86446 0.0
C933 C 0.01623 0.5146 0.87023 0.0
C934 C 0.03089 0.56658 0.84753 0.0
C935 C 1.00481 0.54479 0.842 0.0
H936 H 0.97236 0.47384 0.60569 0.0
H937 H 0.98083 0.54201 0.65952 0.0
H938 H 0.02624 0.55297 0.67568 0.0
H939 H 0.06277 0.54197 0.6768 0.0
H940 H 0.05511 0.47446 0.62234 0.0
H941 H 0.01041 0.46452 0.60421 0.0
C942 C 0.98422 0.49115 0.62084 0.0
C943 C 0.97308 0.50704 0.63132 0.0
C944 C 0.01046 0.49735 0.63018 0.0
C945 C 0.98889 0.52962 0.65069 0.0
C946 C 0.01485 0.53578 0.66019 0.0
C947 C 0.05133 0.52499 0.66109 0.0
C948 C 0.06218 0.50856 0.65171 0.0
C949 C 0.0257 0.51958 0.65045 0.0
C950 C 0.04727 0.48722 0.63042 0.0
C951 C 0.02162 0.48152 0.61999 0.0
H952 H 0.51189 0.06953 0.65059 0.0
H953 H 0.57392 0.05296 0.61834 0.0
H954 H 0.54057 1.0047 0.61398 0.0
H955 H 0.49381 0.96736 0.61895 0.0
H956 H 0.43211 0.98383 0.65343 0.0
H957 H 0.46513 0.03195 0.6563 0.0
C958 C 0.51807 0.0554 0.64235 0.0
C959 C 0.54541 0.06492 0.63475 0.0
C960 C 0.49877 0.02763 0.64002 0.0
C961 C 0.55312 0.0462 0.62466 0.0
C962 C 0.534 0.0186 0.62198 0.0
C963 C 0.48747 0.98129 0.62734 0.0
C964 C 0.46021 0.97155 0.63582 0.0
C965 C 0.50677 0.00907 0.62964 0.0
C966 C 0.45264 0.99038 0.64618 0.0
C967 C 0.47165 0.01806 0.64811 0.0
H968 H 0.537 0.48696 0.62335 0.0
H969 H 0.4509 0.43106 0.6248 0.0
H970 H 0.44291 0.46872 0.63627 0.0
H971 H 0.46047 0.51774 0.64487 0.0
H972 H 0.54672 0.5731 0.6409 0.0
H973 H 0.55435 0.5353 0.63131 0.0
C974 C 0.51637 0.48278 0.6256 0.0
C975 C 0.49458 0.45591 0.62267 0.0
C976 C 0.51192 0.50456 0.63186 0.0
C977 C 0.46813 0.45132 0.6269 0.0
C978 C 0.46354 0.47295 0.63335 0.0
C979 C 0.48096 0.52172 0.64164 0.0
C980 C 0.50296 0.54865 0.64364 0.0
C981 C 0.4853 0.49972 0.63568 0.0
C982 C 0.52933 0.55289 0.63993 0.0
C983 C 0.53375 0.53118 0.63421 0.0
H984 H 0.44747 0.24888 0.28399 0.0
H985 H 0.52284 0.28299 0.33518 0.0
H986 H 0.53687 0.25631 0.30322 0.0
H987 H 0.52814 0.22405 0.25994 0.0
H988 H 0.45296 0.19064 0.20831 0.0
H989 H 0.4383 0.21588 0.24165 0.0
C990 C 0.46676 0.25015 0.28866 0.0
C991 C 0.484 0.26793 0.31223 0.0
C992 C 0.4748 0.23492 0.26996 0.0
C993 C 0.5092 0.26963 0.31721 0.0
C994 C 0.51723 0.25435 0.29891 0.0
C995 C 0.50863 0.2224 0.25571 0.0
C996 C 0.49178 0.20541 0.23134 0.0
C997 C 0.50033 0.23716 0.27495 0.0
C998 C 0.46633 0.20327 0.22689 0.0
C999 C 0.45794 0.21784 0.24593 0.0
H1000 H 0.27676 0.46772 0.26574 0.0
H1001 H 0.2715 0.5326 0.21961 0.0
H1002 H 0.2401 0.53074 0.26003 0.0
H1003 H 0.21156 0.50842 0.30573 0.0
H1004 H 0.21478 0.44208 0.35114 0.0
H1005 H 0.24999 0.44724 0.31434 0.0
C1006 C 0.2691 0.48175 0.2649 0.0
C1007 C 0.27636 0.50018 0.23951 0.0
C1008 C 0.25055 0.48021 0.28803 0.0
C1009 C 0.26599 0.51802 0.23861 0.0
C1010 C 0.24807 0.517 0.26179 0.0
C1011 C 0.21989 0.49512 0.30796 0.0
C1012 C 0.20967 0.47437 0.33097 0.0
C1013 C 0.23974 0.49778 0.28622 0.0
C1014 C 0.22155 0.45782 0.33336 0.0
C1015 C 0.2418 0.46078 0.31227 0.0
H1016 H 0.80342 0.29238 0.233 0.0
H1017 H 0.75715 0.23236 0.16253 0.0
H1018 H 0.72673 0.20192 0.2033 0.0
H1019 H 0.71654 0.19028 0.2597 0.0
H1020 H 0.76426 0.2495 0.33031 0.0
H1021 H 0.79058 0.28232 0.28911 0.0
C1022 C 0.78626 0.27294 0.22655 0.0
C1023 C 0.78259 0.26461 0.19478 0.0
C1024 C 0.76927 0.25521 0.2503 0.0
C1025 C 0.76049 0.23913 0.18685 0.0
C1026 C 0.74313 0.2217 0.21017 0.0
C1027 C 0.73227 0.21058 0.266 0.0
C1028 C 0.73852 0.21739 0.29805 0.0
C1029 C 0.74778 0.22918 0.2421 0.0
C1030 C 0.75925 0.24369 0.30582 0.0
C1031 C 0.77431 0.26247 0.28226 0.0
H1032 H 0.54246 0.82279 0.25729 0.0
H1033 H 0.51718 0.75958 0.18772 0.0
H1034 H 0.5129 0.72718 0.22862 0.0
H1035 H 0.52051 0.71792 0.28341 0.0
H1036 H 0.54898 0.78186 0.3525 0.0
H1037 H 0.54772 0.81275 0.313 0.0
C1038 C 0.53548 0.80178 0.25133 0.0
C1039 C 0.53005 0.79351 0.21957 0.0
C1040 C 0.53391 0.78346 0.27493 0.0
C1041 C 0.52152 0.76635 0.212 0.0
C1042 C 0.51912 0.74787 0.23537 0.0
C1043 C 0.52587 0.73844 0.28994 0.0
C1044 C 0.53479 0.74756 0.32089 0.0
C1045 C 0.52585 0.75631 0.26682 0.0
C1046 C 0.54218 0.7744 0.32882 0.0
C1047 C 0.54148 0.79207 0.30622 0.0
H1048 H 0.71695 0.49686 0.19383 0.0
H1049 H 0.76057 0.58419 0.18701 0.0
H1050 H 0.79054 0.58695 0.22969 0.0
H1051 H 0.80366 0.56493 0.27024 0.0
H1052 H 0.76203 0.47779 0.27697 0.0
H1053 H 0.7322 0.47441 0.23303 0.0
C1054 C 0.73309 0.51643 0.2017 0.0
C1055 C 0.73649 0.5403 0.18712 0.0
C1056 C 0.75059 0.51788 0.22627 0.0
C1057 C 0.75766 0.56552 0.19741 0.0
C1058 C 0.77474 0.56713 0.22201 0.0
C1059 C 0.78802 0.54519 0.26209 0.0
C1060 C 0.78478 0.52163 0.27708 0.0
C1061 C 0.77128 0.54351 0.23676 0.0
C1062 C 0.76487 0.49617 0.2658 0.0
C1063 C 0.74778 0.4943 0.24079 0.0
H1064 H 0.26793 0.74962 0.29955 0.0
H1065 H 0.28904 0.82657 0.25628 0.0
H1066 H 0.25756 0.80344 0.21357 0.0
H1067 H 0.22314 0.76189 0.18886 0.0
H1068 H 0.19896 0.68449 0.23243 0.0
H1069 H 0.23272 0.70715 0.27407 0.0
C1070 C 0.26557 0.76131 0.28085 0.0
C1071 C 0.28125 0.78992 0.28122 0.0
C1072 C 0.24691 0.74779 0.25619 0.0
C1073 C 0.2779 0.80462 0.25652 0.0
C1074 C 0.25967 0.79139 0.23204 0.0
C1075 C 0.22506 0.74988 0.20751 0.0
C1076 C 0.20825 0.72149 0.20749 0.0
C1077 C 0.244 0.76306 0.23169 0.0
C1078 C 0.21167 0.70633 0.23155 0.0
C1079 C 0.23085 0.71933 0.2556 0.0
H1080 H 0.508 0.79303 0.7942 0.0
H1081 H 0.58468 0.81662 0.83955 0.0
H1082 H 0.59238 0.78829 0.80344 0.0
H1083 H 0.57817 0.75717 0.75873 0.0
H1084 H 0.50225 0.73349 0.71229 0.0
H1085 H 0.49369 0.76164 0.74903 0.0
C1086 C 0.52646 0.7922 0.79643 0.0
C1087 C 0.54562 0.80739 0.82016 0.0
C1088 C 0.5311 0.77586 0.77511 0.0
C1089 C 0.56923 0.80533 0.82217 0.0
C1090 C 0.57386 0.78913 0.80122 0.0
C1091 C 0.55992 0.75843 0.75619 0.0
C1092 C 0.54105 0.74339 0.73238 0.0
C1093 C 0.55508 0.77449 0.77748 0.0
C1094 C 0.51714 0.74478 0.7303 0.0
C1095 C 0.51226 0.76092 0.75134 0.0
H1096 H 0.81453 0.56347 0.69308 0.0
H1097 H 0.78004 0.4778 0.67468 0.0
H1098 H 0.74924 0.46725 0.71914 0.0
H1099 H 0.73295 0.48221 0.76443 0.0
H1100 H 0.7656 0.56757 0.78149 0.0
H1101 H 0.79618 0.57848 0.73617 0.0
C1102 C 0.79996 0.54249 0.69826 0.0
C1103 C 0.79993 0.52149 0.68046 0.0
C1104 C 0.78217 0.53652 0.72392 0.0
C1105 C 0.78095 0.49442 0.68809 0.0
C1106 C 0.76326 0.48833 0.71357 0.0
C1107 C 0.747 0.50318 0.75836 0.0
C1108 C 0.74754 0.52413 0.77657 0.0
C1109 C 0.76401 0.50919 0.73198 0.0
C1110 C 0.76515 0.55121 0.76793 0.0
C1111 C 0.78251 0.55738 0.74203 0.0
H1112 H 0.25047 0.82163 0.70635 0.0
H1113 H 0.28505 0.77128 0.68479 0.0
H1114 H 0.25871 0.74007 0.7276 0.0
H1115 H 0.2273 0.72844 0.77303 0.0
H1116 H 0.19487 0.78068 0.79519 0.0
H1117 H 0.21886 0.80979 0.75044 0.0
C1118 C 0.25181 0.80352 0.71057 0.0
C1119 C 0.26943 0.79859 0.69215 0.0
C1120 C 0.23723 0.7862 0.73568 0.0
C1121 C 0.27154 0.77544 0.69857 0.0
C1122 C 0.25655 0.75767 0.72309 0.0
C1123 C 0.22541 0.74611 0.76786 0.0
C1124 C 0.20949 0.75248 0.78764 0.0
C1125 C 0.23958 0.76304 0.74212 0.0
C1126 C 0.20736 0.77556 0.78078 0.0
C1127 C 0.22092 0.79213 0.75502 0.0
H1128 H 0.49873 0.25598 0.81332 0.0
H1129 H 0.49365 0.18835 0.76172 0.0
H1130 H 0.49133 0.20893 0.71184 0.0
H1131 H 0.488 0.24523 0.68295 0.0
H1132 H 0.49541 0.3138 0.73468 0.0
H1133 H 0.49954 0.29402 0.78422 0.0
C1134 C 0.49736 0.24595 0.79109 0.0
C1135 C 0.49628 0.22068 0.79124 0.0
C1136 C 0.49626 0.25803 0.76248 0.0
C1137 C 0.49476 0.20793 0.76225 0.0
C1138 C 0.49321 0.2196 0.73372 0.0
C1139 C 0.49071 0.25581 0.70511 0.0
C1140 C 0.49135 0.28089 0.70519 0.0
C1141 C 0.49351 0.24446 0.73355 0.0
C1142 C 0.49509 0.2946 0.73399 0.0
C1143 C 0.49732 0.28323 0.76235 0.0
H1144 H 0.25289 0.52367 0.73561 0.0
H1145 H 0.2004 0.44002 0.71051 0.0
H1146 H 0.21803 0.42547 0.75487 0.0
H1147 H 0.24988 0.43695 0.79935 0.0
H1148 H 0.3002 0.52091 0.82619 0.0
H1149 H 0.2819 0.5349 0.78277 0.0
C1150 C 0.24553 0.50228 0.7398 0.0
C1151 C 0.22584 0.48289 0.71952 0.0
C1152 C 0.25529 0.49416 0.76574 0.0
C1153 C 0.21579 0.45522 0.72568 0.0
C1154 C 0.22582 0.44697 0.75105 0.0
C1155 C 0.25652 0.45827 0.79624 0.0
C1156 C 0.27685 0.47778 0.81607 0.0
C1157 C 0.2457 0.46628 0.77118 0.0
C1158 C 0.28512 0.50536 0.81115 0.0
C1159 C 0.27459 0.51345 0.78625 0.0
H1160 H 0.74642 0.19548 0.72693 0.0
H1161 H 0.72418 0.25605 0.70716 0.0
H1162 H 0.75671 0.28632 0.74682 0.0
H1163 H 0.79347 0.29633 0.78424 0.0
H1164 H 0.81302 0.23389 0.80694 0.0
H1165 H 0.77939 0.2035 0.76925 0.0
C1166 C 0.74874 0.2153 0.73153 0.0
C1167 C 0.73342 0.22388 0.71401 0.0
C1168 C 0.76696 0.23219 0.7548 0.0
C1169 C 0.73599 0.24927 0.7204 0.0
C1170 C 0.75455 0.26648 0.743 0.0
C1171 C 0.79019 0.27597 0.78162 0.0
C1172 C 0.80658 0.26793 0.7982 0.0
C1173 C 0.77042 0.25828 0.76008 0.0
C1174 C 0.80151 0.24118 0.79409 0.0
C1175 C 0.78213 0.22363 0.77251 0.0
H1176 H 0.38008 0.0298 0.21995 0.0
H1177 H 0.41312 0.07887 0.30347 0.0
H1178 H 0.38654 0.03893 0.33669 0.0
H1179 H 0.36005 0.98916 0.34128 0.0
H1180 H 0.33222 0.94117 0.25571 0.0
H1181 H 0.34882 0.98169 0.22472 0.0
C1182 C 0.38082 0.03213 0.2454 0.0
C1183 C 0.39894 0.05726 0.25912 0.0
C1184 C 0.36624 0.00907 0.26424 0.0
C1185 C 0.39975 0.05963 0.29224 0.0
C1186 C 0.38454 0.03679 0.31125 0.0
C1187 C 0.35748 0.98736 0.3159 0.0
C1188 C 0.34533 0.96156 0.30138 0.0
C1189 C 0.36877 0.01113 0.29743 0.0
C1190 C 0.34119 0.96018 0.26837 0.0
C1191 C 0.35114 0.98361 0.25017 0.0
H1192 H 0.35552 0.39493 0.20636 0.0
H1193 H 0.3159 0.38468 0.29601 0.0
H1194 H 0.33903 0.36133 0.317 0.0
H1195 H 0.37579 0.35102 0.31206 0.0
H1196 H 0.42136 0.37031 0.22499 0.0
H1197 H 0.3898 0.38159 0.20026 0.0
C1198 C 0.35124 0.38666 0.23014 0.0
C1199 C 0.33389 0.39108 0.24962 0.0
C1200 C 0.36596 0.37512 0.24251 0.0
C1201 C 0.32898 0.38111 0.28064 0.0
C1202 C 0.34239 0.36805 0.29262 0.0
C1203 C 0.37898 0.35777 0.28769 0.0
C1204 C 0.4015 0.3604 0.27083 0.0
C1205 C 0.36188 0.36616 0.27419 0.0
C1206 C 0.40434 0.36794 0.23877 0.0
C1207 C 0.38642 0.37474 0.2246 0.0
H1208 H 0.05893 0.4127 0.23303 0.0
H1209 H 0.02771 0.35231 0.30694 0.0
H1210 H 0.98554 0.32625 0.27761 0.0
H1211 H 0.95457 0.32616 0.23645 0.0
H1212 H 0.98632 0.38743 0.16381 0.0
H1213 H 0.03158 0.40719 0.1866 0.0
C1214 C 0.04344 0.39331 0.24225 0.0
C1215 C 0.04619 0.38494 0.2726 0.0
C1216 C 0.01914 0.37873 0.22558 0.0
C1217 C 0.02576 0.35968 0.28403 0.0
C1218 C 1.00162 0.34475 0.26729 0.0
C1219 C 0.97168 0.34321 0.22514 0.0
C1220 C 0.96738 0.35564 0.19889 0.0
C1221 C 0.99753 0.3549 0.2389 0.0
C1222 C 0.98943 0.37777 0.18423 0.0
C1223 C 0.0152 0.38913 0.19733 0.0
H1224 H 0.65755 0.98634 0.19371 0.0
H1225 H 0.63726 0.93646 0.27763 0.0
H1226 H 0.66274 0.97687 0.30969 0.0
H1227 H 0.68254 0.02597 0.31445 0.0
H1228 H 0.70747 0.07578 0.23027 0.0
H1229 H 0.68879 0.03519 0.19774 0.0
C1230 C 0.65936 0.98389 0.2188 0.0
C1231 C 0.64413 0.95819 0.23319 0.0
C1232 C 0.67453 0.0072 0.2372 0.0
C1233 C 0.64737 0.95596 0.26586 0.0
C1234 C 0.6622 0.97911 0.28431 0.0
C1235 C 0.68502 0.02834 0.28908 0.0
C1236 C 0.69527 0.05417 0.27504 0.0
C1237 C 0.67459 0.00491 0.27036 0.0
C1238 C 0.69838 0.05625 0.24196 0.0
C1239 C 0.68784 0.03299 0.22321 0.0
H1240 H 0.61698 0.66815 0.25715 0.0
H1241 H 0.59623 0.6103 0.33268 0.0
H1242 H 0.61987 0.59004 0.30635 0.0
H1243 H 0.63907 0.58423 0.25843 0.0
H1244 H 0.66282 0.64313 0.18299 0.0
H1245 H 0.64545 0.66782 0.21296 0.0
C1246 C 0.61831 0.65153 0.26796 0.0
C1247 C 0.60437 0.63994 0.29608 0.0
C1248 C 0.63205 0.64007 0.25265 0.0
C1249 C 0.60624 0.61873 0.31045 0.0
C1250 C 0.61984 0.60732 0.29552 0.0
C1251 C 0.64163 0.60302 0.24874 0.0
C1252 C 0.65156 0.61119 0.21793 0.0
C1253 C 0.63181 0.61713 0.26602 0.0
C1254 C 0.65429 0.63564 0.20613 0.0
C1255 C 0.64448 0.6499 0.22331 0.0
H1256 H 0.97526 0.60074 0.31964 0.0
H1257 H 0.93616 0.62912 0.25498 0.0
H1258 H 0.97786 0.6525 0.22382 0.0
H1259 H 0.02323 0.65973 0.2118 0.0
H1260 H 0.05928 0.62648 0.2746 0.0
H1261 H 0.02146 0.61149 0.31055 0.0
C1262 C 0.97602 0.61277 0.29933 0.0
C1263 C 0.95265 0.61318 0.2896 0.0
C1264 C 0.99958 0.6253 0.28117 0.0
C1265 C 0.95386 0.62834 0.26278 0.0
C1266 C 0.97766 0.64166 0.24499 0.0
C1267 C 0.02289 0.64928 0.23337 0.0
C1268 C 0.04407 0.64401 0.24009 0.0
C1269 C 1.0003 0.63939 0.25336 0.0
C1270 C 0.04358 0.63118 0.26874 0.0
C1271 C 0.02172 0.62223 0.28925 0.0
H1272 H 0.55821 0.992 0.81089 0.0
H1273 H 0.62238 0.97678 0.78406 0.0
H1274 H 0.64905 0.02347 0.7642 0.0
H1275 H 0.65161 0.06671 0.74994 0.0
H1276 H 0.58405 0.07847 0.77218 0.0
H1277 H 0.56181 0.03547 0.7995 0.0
C1278 C 0.578 0.99889 0.80052 0.0
C1279 C 0.5881 0.98098 0.79797 0.0
C1280 C 0.59273 0.02523 0.78874 0.0
C1281 C 0.61415 0.99029 0.78575 0.0
C1282 C 0.62931 0.01687 0.77444 0.0
C1283 C 0.63204 0.05992 0.76076 0.0
C1284 C 0.61959 0.07594 0.75856 0.0
C1285 C 0.61843 0.03427 0.77506 0.0
C1286 C 0.59456 0.06707 0.7737 0.0
C1287 C 0.58148 0.04215 0.78903 0.0
H1288 H 0.61325 0.57117 0.83894 0.0
H1289 H 0.68724 0.64426 0.81568 0.0
H1290 H 0.66118 0.66415 0.79346 0.0
H1291 H 0.61777 0.65766 0.77399 0.0
H1292 H 0.5449 0.5806 0.7895 0.0
H1293 H 0.56988 0.56573 0.82234 0.0
C1294 C 0.62357 0.59186 0.83006 0.0
C1295 C 0.65196 0.60656 0.82935 0.0
C1296 C 0.60858 0.60223 0.81555 0.0
C1297 C 0.66534 0.63292 0.81686 0.0
C1298 C 0.65045 0.64406 0.80389 0.0
C1299 C 0.60728 0.63758 0.78445 0.0
C1300 C 0.57941 0.62031 0.77876 0.0
C1301 C 0.6221 0.62839 0.80189 0.0
C1302 C 0.56616 0.59467 0.79352 0.0
C1303 C 0.58052 0.58593 0.81216 0.0
H1304 H 0.06148 0.67485 0.73856 0.0
H1305 H 0.02423 0.63534 0.82666 0.0
H1306 H 0.98082 0.61014 0.80062 0.0
H1307 H 0.95523 0.59311 0.75171 0.0
H1308 H 0.99409 0.62704 0.66248 0.0
H1309 H 0.03476 0.6603 0.68994 0.0
C1310 C 0.04389 0.66085 0.75216 0.0
C1311 C 0.04651 0.6568 0.78447 0.0
C1312 C 0.01916 0.64493 0.73666 0.0
C1313 C 0.02311 0.63927 0.80185 0.0
C1314 C 0.99818 0.62441 0.78686 0.0
C1315 C 0.97256 0.60787 0.73827 0.0
C1316 C 0.97173 0.60726 0.70513 0.0
C1317 C 0.99631 0.6261 0.75409 0.0
C1318 C 0.99406 0.62705 0.68804 0.0
C1319 C 0.01746 0.64597 0.70372 0.0
H1320 H 0.40852 0.03289 0.82196 0.0
H1321 H 0.4092 0.07811 0.73962 0.0
H1322 H 0.3885 0.03633 0.7084 0.0
H1323 H 0.37528 0.98815 0.70352 0.0
H1324 H 0.37622 0.94382 0.78587 0.0
H1325 H 0.39091 0.98424 0.81845 0.0
C1326 C 0.40338 0.03358 0.79743 0.0
C1327 C 0.4104 0.05858 0.78312 0.0
C1328 C 0.39205 0.00972 0.77965 0.0
C1329 C 0.4042 0.05913 0.7511 0.0
C1330 C 0.39239 0.03528 0.73328 0.0
C1331 C 0.37804 0.9872 0.72875 0.0
C1332 C 0.3748 0.96317 0.74238 0.0
C1333 C 0.38698 0.01062 0.74713 0.0
C1334 C 0.37885 0.96223 0.77494 0.0
C1335 C 0.38722 0.98528 0.7935 0.0
H1336 H 0.36561 0.38244 0.79186 0.0
H1337 H 0.37776 0.44127 0.71968 0.0
H1338 H 0.38984 0.41667 0.68189 0.0
H1339 H 0.40316 0.38263 0.67216 0.0
H1340 H 0.39118 0.32398 0.74439 0.0
H1341 H 0.37166 0.34393 0.77927 0.0
C1342 C 0.36999 0.38948 0.76763 0.0
C1343 C 0.37114 0.4139 0.75874 0.0
C1344 C 0.37694 0.37531 0.74612 0.0
C1345 C 0.37733 0.42286 0.7273 0.0
C1346 C 0.38408 0.40873 0.70565 0.0
C1347 C 0.39534 0.37351 0.69506 0.0
C1348 C 0.39886 0.35206 0.70587 0.0
C1349 C 0.38484 0.38548 0.71517 0.0
C1350 C 0.38899 0.34075 0.73578 0.0
C1351 C 0.37796 0.35221 0.75573 0.0
H1352 H 0.05285 0.37794 0.70754 0.0
H1353 H 0.04383 0.43203 0.64376 0.0
H1354 H 0.99965 0.41891 0.66609 0.0
H1355 H 0.96913 0.39977 0.71073 0.0
H1356 H 0.97499 0.34168 0.77171 0.0
H1357 H 0.01535 0.3493 0.74379 0.0
C1358 C 0.04065 0.38595 0.69774 0.0
C1359 C 0.05173 0.40631 0.67451 0.0
C1360 C 0.0153 0.37849 0.71098 0.0
C1361 C 0.03575 0.41643 0.66173 0.0
C1362 C 0.01062 0.40919 0.67481 0.0
C1363 C 0.97831 0.38786 0.71759 0.0
C1364 C 0.96929 0.37107 0.74459 0.0
C1365 C 1.00095 0.39139 0.70062 0.0
C1366 C 0.9821 0.35602 0.75235 0.0
C1367 C 1.00507 0.35999 0.73604 0.0
H1368 H 0.5542 0.13826 0.22994 0.0
H1369 H 0.5186 0.0538 0.20438 0.0
H1370 H 0.55357 0.05041 0.23371 0.0
H1371 H 0.59206 0.07028 0.26901 0.0
H1372 H 0.62741 0.15405 0.29752 0.0
H1373 H 0.59474 0.15897 0.2645 0.0
C1374 C 0.55443 0.1193 0.23057 0.0
C1375 C 0.53389 0.09626 0.21535 0.0
C1376 C 0.57432 0.11731 0.24811 0.0
C1377 C 0.5341 0.07169 0.21633 0.0
C1378 C 0.55407 0.06973 0.23302 0.0
C1379 C 0.59287 0.08975 0.26788 0.0
C1380 C 0.61204 0.11174 0.28576 0.0
C1381 C 0.57392 0.09224 0.24943 0.0
C1382 C 0.61272 0.13677 0.28403 0.0
C1383 C 0.59407 0.13958 0.26518 0.0
H1384 H 0.46829 0.63492 0.26564 0.0
H1385 H 0.45751 0.59127 0.35288 0.0
H1386 H 0.42639 0.54878 0.32695 0.0
H1387 H 0.40639 0.52333 0.27798 0.0
H1388 H 0.4148 0.5667 0.19137 0.0
H1389 H 0.44285 0.61006 0.21841 0.0
C1390 C 0.45868 0.61619 0.27912 0.0
C1391 C 0.46564 0.61624 0.311 0.0
C1392 C 0.44082 0.59173 0.26401 0.0
C1393 C 0.45271 0.59187 0.32829 0.0
C1394 C 0.43505 0.56745 0.3134 0.0
C1395 C 0.41432 0.54235 0.26521 0.0
C1396 C 0.40924 0.54211 0.23279 0.0
C1397 C 0.42976 0.56705 0.28104 0.0
C1398 C 0.41884 0.56666 0.21638 0.0
C1399 C 0.4348 0.59135 0.2318 0.0
H1400 H 0.87102 0.48311 0.23039 0.0
H1401 H 0.84366 0.44087 0.31921 0.0
H1402 H 0.83619 0.39884 0.29439 0.0
H1403 H 0.84185 0.3755 0.24866 0.0
H1404 H 0.867 0.41729 0.1592 0.0
H1405 H 0.87072 0.45803 0.18298 0.0
C1406 C 0.86306 0.46458 0.24415 0.0
C1407 C 0.85816 0.46506 0.27657 0.0
C1408 C 0.85869 0.44052 0.22971 0.0
C1409 C 0.84752 0.44092 0.29416 0.0
C1410 C 0.84342 0.41695 0.28003 0.0
C1411 C 0.84788 0.39343 0.23428 0.0
C1412 C 0.85496 0.39359 0.20242 0.0
C1413 C 0.84961 0.41671 0.24801 0.0
C1414 C 0.86207 0.41677 0.18394 0.0
C1415 C 0.86416 0.4401 0.19751 0.0
H1416 H 0.44099 0.88367 0.31831 0.0
H1417 H 0.39191 0.80757 0.27082 0.0
H1418 H 0.43051 0.81535 0.23809 0.0
H1419 H 0.47512 0.84777 0.2165 0.0
H1420 H 0.52198 0.92643 0.26019 0.0
H1421 H 0.48732 0.91398 0.30056 0.0
C1422 C 0.43918 0.86829 0.30179 0.0
C1423 C 0.41395 0.84494 0.29712 0.0
C1424 C 0.46078 0.87393 0.28151 0.0
C1425 C 0.41142 0.82544 0.27504 0.0
C1426 C 0.43332 0.83015 0.25598 0.0
C1427 C 0.47789 0.86206 0.23506 0.0
C1428 C 0.50082 0.88816 0.23495 0.0
C1429 C 0.45761 0.85499 0.25786 0.0
C1430 C 0.50427 0.90637 0.25936 0.0
C1431 C 0.48454 0.89923 0.28261 0.0
H1432 H 0.59497 0.43519 0.17608 0.0
H1433 H 0.61924 0.49354 0.25147 0.0
H1434 H 0.59813 0.45697 0.29031 0.0
H1435 H 0.56641 0.40945 0.30133 0.0
H1436 H 0.53671 0.35122 0.22531 0.0
H1437 H 0.56702 0.38632 0.18832 0.0
C1438 C 0.59631 0.43966 0.20114 0.0
C1439 C 0.60847 0.46669 0.21124 0.0
C1440 C 0.58289 0.41856 0.22307 0.0
C1441 C 0.60987 0.47267 0.24351 0.0
C1442 C 0.59774 0.45184 0.26559 0.0
C1443 C 0.56677 0.40435 0.27673 0.0
C1444 C 0.54875 0.37808 0.26584 0.0
C1445 C 0.58313 0.42482 0.25545 0.0
C1446 C 0.55011 0.37148 0.23418 0.0
C1447 C 0.56731 0.39157 0.21297 0.0
H1448 H 0.11398 0.59422 0.25135 0.0
H1449 H 0.1571 0.59229 0.16877 0.0
H1450 H 0.1738 0.56623 0.19801 0.0
H1451 H 0.17186 0.54001 0.2455 0.0
H1452 H 0.1296 0.54373 0.32827 0.0
H1453 H 0.117 0.57334 0.30053 0.0
C1454 C 0.12723 0.58827 0.23986 0.0
C1455 C 0.13396 0.59461 0.20792 0.0
C1456 C 0.13673 0.57353 0.25677 0.0
C1457 C 0.1516 0.58743 0.19337 0.0
C1458 C 0.16103 0.57248 0.21004 0.0
C1459 C 0.1603 0.54767 0.25765 0.0
C1460 C 0.15097 0.53898 0.28861 0.0
C1461 C 0.15314 0.56483 0.24154 0.0
C1462 C 0.13639 0.54947 0.30415 0.0
C1463 C 0.1292 0.56646 0.28834 0.0
H1464 H 0.43543 0.83901 0.81373 0.0
H1465 H 0.49072 0.85283 0.73704 0.0
H1466 H 0.45713 0.84945 0.69903 0.0
H1467 H 0.41438 0.84866 0.68808 0.0
H1468 H 0.35902 0.83452 0.7648 0.0
H1469 H 0.39004 0.8315 0.80187 0.0
C1470 C 0.43995 0.84075 0.78868 0.0
C1471 C 0.46577 0.84667 0.77842 0.0
C1472 C 0.42057 0.83898 0.76679 0.0
C1473 C 0.47114 0.84859 0.74577 0.0
C1474 C 0.45194 0.84673 0.7239 0.0
C1475 C 0.40884 0.84435 0.71277 0.0
C1476 C 0.38464 0.84238 0.72363 0.0
C1477 C 0.42693 0.84287 0.73421 0.0
C1478 C 0.37771 0.83654 0.75574 0.0
C1479 C 0.39548 0.83486 0.77709 0.0
H1480 H 0.56817 0.39525 0.68265 0.0
H1481 H 0.51357 0.40593 0.74357 0.0
H1482 H 0.54699 0.42198 0.78595 0.0
H1483 H 0.59351 0.43951 0.80228 0.0
H1484 H 0.65086 0.43654 0.73837 0.0
H1485 H 0.61429 0.4094 0.70123 0.0
C1486 C 0.56357 0.40075 0.70541 0.0
C1487 C 0.53885 0.40001 0.70998 0.0
C1488 C 0.58327 0.41097 0.72919 0.0
C1489 C 0.53283 0.407 0.73944 0.0
C1490 C 0.5518 0.41593 0.76371 0.0
C1491 C 0.59794 0.43226 0.78066 0.0
C1492 C 0.6248 0.44031 0.77272 0.0
C1493 C 0.57739 0.41892 0.75842 0.0
C1494 C 0.63025 0.43068 0.74475 0.0
C1495 C 0.60944 0.41551 0.72339 0.0
H1496 H 0.16691 0.57998 0.68457 0.0
H1497 H 0.22437 0.58025 0.75111 0.0
H1498 H 0.21714 0.61027 0.78603 0.0
H1499 H 0.18664 0.62705 0.80284 0.0
H1500 H 0.12411 0.61959 0.73938 0.0
H1501 H 0.14074 0.60157 0.69828 0.0
C1502 C 0.17853 0.58732 0.70621 0.0
C1503 C 0.19568 0.57748 0.71563 0.0
C1504 C 0.17261 0.60262 0.72723 0.0
C1505 C 0.21078 0.58734 0.74359 0.0
C1506 C 0.2064 0.60422 0.76374 0.0
C1507 C 0.17722 0.6221 0.7797 0.0
C1508 C 0.15406 0.62417 0.77408 0.0
C1509 C 0.18609 0.61051 0.75671 0.0
C1510 C 0.14176 0.61767 0.7442 0.0
C1511 C 0.15129 0.60747 0.72071 0.0
H1512 H 0.5287 0.1641 0.76327 0.0
H1513 H 0.58455 0.16054 0.82901 0.0
H1514 H 0.6216 0.18414 0.79093 0.0
H1515 H 0.63607 0.19954 0.73636 0.0
H1516 H 0.57915 0.20007 0.66973 0.0
H1517 H 0.54487 0.18562 0.71124 0.0
C1518 C 0.54913 0.16905 0.76941 0.0
C1519 C 0.55411 0.16057 0.7986 0.0
C1520 C 0.57009 0.18239 0.74737 0.0
C1521 C 0.58048 0.16696 0.80655 0.0
C1522 C 0.60156 0.18041 0.78482 0.0
C1523 C 0.61637 0.19721 0.73125 0.0
C1524 C 0.60993 0.2004 0.70002 0.0
C1525 C 0.59638 0.18744 0.75481 0.0
C1526 C 0.58459 0.19783 0.69361 0.0
C1527 C 0.56484 0.18906 0.71722 0.0
H1528 H 0.37542 0.54215 0.75877 0.0
H1529 H 0.40869 0.56584 0.85261 0.0
H1530 H 0.44295 0.61002 0.83277 0.0
H1531 H 0.46833 0.63774 0.78767 0.0
H1532 H 0.43723 0.61249 0.6933 0.0
H1533 H 0.39676 0.57347 0.71459 0.0
C1534 C 0.38981 0.55717 0.775 0.0
C1535 C 0.39005 0.55049 0.80689 0.0
C1536 C 0.40995 0.5822 0.7633 0.0
C1537 C 0.40849 0.5703 0.82777 0.0
C1538 C 0.42809 0.59559 0.81646 0.0
C1539 C 0.45237 0.62415 0.77177 0.0
C1540 C 0.45607 0.62748 0.73896 0.0
C1541 C 0.4298 0.60118 0.78406 0.0
C1542 C 0.43505 0.60996 0.71868 0.0
C1543 C 0.41198 0.58758 0.73081 0.0
H1544 H 0.84668 0.43729 0.67451 0.0
H1545 H 0.85076 0.48467 0.75611 0.0
H1546 H 0.84307 0.44715 0.79076 0.0
H1547 H 0.84141 0.40361 0.79799 0.0
H1548 H 0.83954 0.3572 0.7165 0.0
H1549 H 0.83908 0.39119 0.6817 0.0
C1550 C 0.84554 0.4393 0.69985 0.0
C1551 C 0.84986 0.46392 0.71275 0.0
C1552 C 0.84147 0.4178 0.71966 0.0
C1553 C 0.84782 0.46603 0.74558 0.0
C1554 C 0.84345 0.4446 0.76543 0.0
C1555 C 0.84057 0.40076 0.77265 0.0
C1556 C 0.84135 0.37834 0.75989 0.0
C1557 C 0.8412 0.42079 0.75277 0.0
C1558 C 0.83931 0.37445 0.727 0.0
C1559 C 0.83927 0.394 0.70703 0.0
H1560 H 0.51 0.19221 0.06885 0.0
H1561 H 0.52713 0.12654 0.07501 0.0
H1562 H 0.53391 0.12834 0.01776 0.0
H1563 H 0.5262 0.14287 0.96526 0.0
H1564 H 0.50656 0.20677 0.96002 0.0
H1565 H 0.51019 0.21194 0.01736 0.0
C1566 C 0.51591 0.17876 0.05776 0.0
C1567 C 0.51769 0.15904 0.0761 0.0
C1568 C 0.51925 0.17958 0.02483 0.0
C1569 C 0.52562 0.14191 0.06146 0.0
C1570 C 0.52929 0.1428 0.02864 0.0
C1571 C 0.52403 0.15876 0.97668 0.0
C1572 C 0.51656 0.17476 0.95855 0.0
C1573 C 0.52502 0.16079 0.00992 0.0
C1574 C 0.51282 0.19463 0.97355 0.0
C1575 C 0.51454 0.19732 0.00636 0.0
H1576 H 0.31925 0.49642 0.06126 0.0
H1577 H 0.39853 0.51517 0.09309 0.0
H1578 H 0.41371 0.51899 0.03832 0.0
H1579 H 0.40158 0.50884 0.98202 0.0
H1580 H 0.32303 0.4922 0.94995 0.0
H1581 H 0.31035 0.49615 0.00414 0.0
C1582 C 0.34011 0.50232 0.05606 0.0
C1583 C 0.35778 0.50542 0.08088 0.0
C1584 C 0.34862 0.50445 0.02458 0.0
C1585 C 0.38473 0.51298 0.07421 0.0
C1586 C 0.3933 0.51484 0.04293 0.0
C1587 C 0.382 0.50689 0.98693 0.0
C1588 C 0.36308 0.49996 0.96242 0.0
C1589 C 0.37503 0.50941 0.01801 0.0
C1590 C 0.33784 0.49761 0.96864 0.0
C1591 C 0.33056 0.49967 0.99959 0.0
H1592 H 0.81974 0.3092 0.02236 0.0
H1593 H 0.86547 0.39053 0.05914 0.0
H1594 H 0.87311 0.40897 0.00562 0.0
H1595 H 0.87504 0.40093 0.94873 0.0
H1596 H 0.82851 0.3199 0.91165 0.0
H1597 H 0.81233 0.30228 0.96482 0.0
C1598 C 0.83047 0.33099 0.01862 0.0
C1599 C 0.84229 0.34849 0.04448 0.0
C1600 C 0.83494 0.34143 0.98774 0.0
C1601 C 0.85607 0.37668 0.03956 0.0
C1602 C 0.86073 0.38722 0.00892 0.0
C1603 C 0.86049 0.3796 0.95226 0.0
C1604 C 0.85306 0.36163 0.92663 0.0
C1605 C 0.85147 0.36968 0.98285 0.0
C1606 C 0.83428 0.33404 0.93116 0.0
C1607 C 0.82531 0.32395 0.96158 0.0
H1608 H 0.51491 0.82457 0.05263 0.0
H1609 H 0.4888 0.88015 0.08312 0.0
H1610 H 0.4729 0.88112 0.02966 0.0
H1611 H 0.47657 0.87437 0.97268 0.0
H1612 H 0.50289 0.81903 0.94216 0.0
H1613 H 0.50783 0.80897 0.99723 0.0
C1614 C 0.50471 0.836 0.04776 0.0
C1615 C 0.50317 0.85243 0.07156 0.0
C1616 C 0.49594 0.83666 0.0169 0.0
C1617 C 0.49 0.8672 0.06519 0.0
C1618 C 0.4812 0.86799 0.03453 0.0
C1619 C 0.48205 0.85907 0.97822 0.0
C1620 C 0.4893 0.84735 0.9536 0.0
C1621 C 0.48542 0.85395 0.00991 0.0
C1622 C 0.49679 0.82791 0.9608 0.0
C1623 C 0.50005 0.82253 0.99229 0.0
H1624 H 0.60864 0.49086 0.02435 0.0
H1625 H 0.68275 0.49772 0.0593 0.0
H1626 H 0.69606 0.49374 0.00537 0.0
H1627 H 0.68975 0.49637 0.94803 0.0
H1628 H 0.61473 0.48816 0.91364 0.0
H1629 H 0.59835 0.4842 0.96759 0.0
C1630 C 0.62721 0.49045 0.02012 0.0
C1631 C 0.64478 0.49456 0.04537 0.0
C1632 C 0.63474 0.48847 0.98919 0.0
C1633 C 0.66886 0.49421 0.04002 0.0
C1634 C 0.67659 0.49231 0.00921 0.0
C1635 C 0.66962 0.4932 0.95237 0.0
C1636 C 0.65379 0.49339 0.92695 0.0
C1637 C 0.66022 0.4907 0.98352 0.0
C1638 C 0.62751 0.48859 0.93279 0.0
C1639 C 0.61812 0.48634 0.96367 0.0
H1640 H 0.1925 0.70485 0.95335 0.0
H1641 H 0.15109 0.61928 0.93343 0.0
H1642 H 0.14823 0.6091 0.98996 0.0
H1643 H 0.14715 0.62489 0.04437 0.0
H1644 H 0.18616 0.71079 0.06271 0.0
H1645 H 0.20108 0.72065 0.00797 0.0
C1646 C 0.18416 0.68405 0.96143 0.0
C1647 C 0.17202 0.66286 0.93951 0.0
C1648 C 0.18165 0.67846 0.9939 0.0
C1649 C 0.16086 0.63593 0.94998 0.0
C1650 C 0.15882 0.63012 0.98237 0.0
C1651 C 0.15994 0.64567 0.03657 0.0
C1652 C 0.16537 0.66713 0.05724 0.0
C1653 C 0.1676 0.65121 0.00456 0.0
C1654 C 0.18164 0.69402 0.04698 0.0
C1655 C 0.19003 0.69967 0.01566 0.0
H1656 H 0.79728 0.48503 0.45626 0.0
H1657 H 0.84732 0.45729 0.41209 0.0
H1658 H 0.86147 0.45005 0.46374 0.0
H1659 H 0.86821 0.46273 0.52009 0.0
H1660 H 0.81765 0.4895 0.56455 0.0
H1661 H 0.79469 0.48549 0.51433 0.0
C1662 C 0.81047 0.47642 0.45795 0.0
C1663 C 0.82208 0.47279 0.43038 0.0
C1664 C 0.81881 0.47259 0.48782 0.0
C1665 C 0.83851 0.46087 0.4329 0.0
C1666 C 0.84685 0.45694 0.46251 0.0
C1667 C 0.8514 0.46659 0.51895 0.0
C1668 C 0.84481 0.47675 0.54564 0.0
C1669 C 0.8385 0.46444 0.48997 0.0
C1670 C 0.82297 0.48159 0.5442 0.0
C1671 C 0.81005 0.47957 0.51541 0.0
H1672 H 0.37542 0.85428 0.44173 0.0
H1673 H 0.31918 0.88415 0.43469 0.0
H1674 H 0.31674 0.88556 0.49167 0.0
H1675 H 0.33058 0.87934 0.54333 0.0
H1676 H 0.38651 0.84969 0.55381 0.0
H1677 H 0.38856 0.84644 0.49589 0.0
C1678 C 0.36284 0.86124 0.45282 0.0
C1679 C 0.34754 0.86917 0.43388 0.0
C1680 C 0.36115 0.86169 0.48618 0.0
C1681 C 0.33105 0.87782 0.44856 0.0
C1682 C 0.32959 0.87862 0.48123 0.0
C1683 C 0.34315 0.87198 0.53304 0.0
C1684 C 0.35844 0.86488 0.55277 0.0
C1685 C 0.34446 0.87061 0.50019 0.0
C1686 C 0.37435 0.85507 0.53907 0.0
C1687 C 0.37572 0.85351 0.50597 0.0
H1688 H 0.54519 0.39835 0.44653 0.0
H1689 H 0.50187 0.31423 0.41927 0.0
H1690 H 0.50305 0.30046 0.47369 0.0
H1691 H 0.506 0.31251 0.52977 0.0
H1692 H 0.54973 0.39663 0.55729 0.0
H1693 H 0.55962 0.41036 0.5022 0.0
C1694 C 0.53733 0.37712 0.45235 0.0
C1695 C 0.52349 0.35725 0.42924 0.0
C1696 C 0.53759 0.36939 0.48385 0.0
C1697 C 0.51287 0.32977 0.43683 0.0
C1698 C 0.51325 0.32191 0.46799 0.0
C1699 C 0.51861 0.3338 0.52377 0.0
C1700 C 0.52608 0.35356 0.54749 0.0
C1701 C 0.524 0.34152 0.49193 0.0
C1702 C 0.54296 0.381 0.53955 0.0
C1703 C 0.54855 0.38891 0.50789 0.0
H1704 H 0.10545 0.49971 0.47239 0.0
H1705 H 0.18136 0.51655 0.43133 0.0
H1706 H 0.20196 0.52497 0.48401 0.0
H1707 H 0.19615 0.52115 0.54217 0.0
H1708 H 0.12052 0.50648 0.58229 0.0
H1709 H 0.10212 0.50387 0.52977 0.0
C1710 C 0.12674 0.50607 0.47499 0.0
C1711 C 0.14192 0.50754 0.44821 0.0
C1712 C 0.13833 0.51077 0.50525 0.0
C1713 C 0.16943 0.51567 0.45167 0.0
C1714 C 0.18108 0.52012 0.48181 0.0
C1715 C 0.17579 0.51779 0.53939 0.0
C1716 C 0.15953 0.51338 0.56628 0.0
C1717 C 0.16541 0.51673 0.50886 0.0
C1718 C 0.1334 0.50962 0.56223 0.0
C1719 C 0.1228 0.50808 0.53207 0.0
H1720 H 0.69555 0.18522 0.45911 0.0
H1721 H 0.61489 0.12337 0.43345 0.0
H1722 H 0.59848 0.12592 0.48606 0.0
H1723 H 0.6095 0.13919 0.54197 0.0
H1724 H 0.68994 0.20147 0.56742 0.0
H1725 H 0.70408 0.20598 0.51207 0.0
C1726 C 0.67421 0.17301 0.4648 0.0
C1727 C 0.65644 0.15394 0.44278 0.0
C1728 C 0.66503 0.17457 0.49506 0.0
C1729 C 0.62884 0.13825 0.45009 0.0
C1730 C 0.61954 0.13954 0.48024 0.0
C1731 C 0.62977 0.15457 0.53505 0.0
C1732 C 0.64872 0.17006 0.55843 0.0
C1733 C 0.63774 0.1567 0.50332 0.0
C1734 C 0.67501 0.18969 0.54959 0.0
C1735 C 0.68315 0.19196 0.51805 0.0
H1736 H 0.54796 0.71075 0.57381 0.0
H1737 H 0.4778 0.63209 0.589 0.0
H1738 H 0.46937 0.62666 0.53201 0.0
H1739 H 0.48764 0.64079 0.47767 0.0
H1740 H 0.55915 0.71874 0.46396 0.0
H1741 H 0.56105 0.72831 0.52027 0.0
C1742 C 0.5304 0.69276 0.56465 0.0
C1743 C 0.5138 0.67171 0.58536 0.0
C1744 C 0.52607 0.68959 0.53199 0.0
C1745 C 0.49091 0.64859 0.57341 0.0
C1746 C 0.48622 0.64538 0.54079 0.0
C1747 C 0.50291 0.66023 0.48701 0.0
C1748 C 0.52332 0.67903 0.467 0.0
C1749 C 0.50443 0.66521 0.51976 0.0
C1750 C 0.54332 0.70401 0.47916 0.0
C1751 C 0.54453 0.70941 0.51134 0.0
loop_
_geom_bond_atom_site_label_1
_geom_bond_atom_site_label_2
_geom_bond_distance
_geom_bond_site_symmetry_2
_ccdc_geom_bond_type
C0 C1 1.351 . S
C0 N3 1.368 . S
C0 H5 0.931 . S
C1 C0 1.351 . S
C1 N2 1.373 . S
C1 H29 0.930 . S
N2 C1 1.373 . S
N2 C4 1.340 . S
N3 C0 1.368 . S
N3 C4 1.321 . S
N3 Co6 2.135 . S
C4 N2 1.340 . S
C4 N3 1.321 . S
C4 H28 0.930 . S
H5 C0 0.931 . S
Co6 N3 2.135 . S
Co6 N9 2.121 . S
Co6 O14 2.055 . S
Co6 O17 2.039 . S
Co6 N20 2.140 . S
C7 O8 1.227 . S
C7 O17 1.265 . S
O8 C7 1.227 . S
N9 Co6 2.121 . S
N9 C11 1.375 . S
N9 C12 1.313 . S
C10 C11 1.338 . S
C10 N13 1.377 . S
C10 H30 0.930 . S
C11 N9 1.375 . S
C11 C10 1.338 . S
C11 H15 0.931 . S
C12 N9 1.313 . S
C12 N13 1.344 . S
C12 H16 0.930 . S
N13 C10 1.377 . S
N13 C12 1.344 . S
O14 Co6 2.055 . S
O14 C18 1.253 . S
H15 C11 0.931 . S
H16 C12 0.930 . S
O17 Co6 2.039 . S
O17 C7 1.265 . S
C18 O14 1.253 . S
C18 O19 1.227 . S
O19 C18 1.227 . S
N20 Co6 2.140 . S
N20 C23 1.346 . S
N20 C24 1.345 . S
C21 C22 1.387 . S
C21 C25 1.391 . S
C22 C21 1.387 . S
C22 C23 1.369 . S
C22 H31 0.929 . S
C23 N20 1.346 . S
C23 C22 1.369 . S
C23 H26 0.928 . S
C24 N20 1.345 . S
C24 C25 1.371 . S
C24 H27 0.931 . S
C25 C21 1.391 . S
C25 C24 1.371 . S
C25 H32 0.930 . S
H26 C23 0.928 . S
H27 C24 0.931 . S
H28 C4 0.930 . S
H29 C1 0.930 . S
H30 C10 0.930 . S
H31 C22 0.929 . S
H32 C25 0.930 . S
C33 C34 1.351 . S
C33 N36 1.368 . S
C33 H38 0.931 . S
C34 C33 1.351 . S
C34 N35 1.373 . S
C34 H62 0.930 . S
N35 C34 1.373 . S
N35 C37 1.340 . S
N36 C33 1.368 . S
N36 C37 1.321 . S
N36 Co39 2.135 . S
C37 N35 1.340 . S
C37 N36 1.321 . S
C37 H61 0.930 . S
H38 C33 0.931 . S
Co39 N36 2.135 . S
Co39 N42 2.121 . S
Co39 O47 2.055 . S
Co39 O50 2.039 . S
Co39 N53 2.140 . S
C40 O41 1.227 . S
C40 O50 1.265 . S
O41 C40 1.227 . S
N42 Co39 2.121 . S
N42 C44 1.375 . S
N42 C45 1.313 . S
C43 C44 1.338 . S
C43 N46 1.377 . S
C43 H63 0.930 . S
C44 N42 1.375 . S
C44 C43 1.338 . S
C44 H48 0.931 . S
C45 N42 1.313 . S
C45 N46 1.344 . S
C45 H49 0.930 . S
N46 C43 1.377 . S
N46 C45 1.344 . S
O47 Co39 2.055 . S
O47 C51 1.253 . S
H48 C44 0.931 . S
H49 C45 0.930 . S
O50 Co39 2.039 . S
O50 C40 1.265 . S
C51 O47 1.253 . S
C51 O52 1.227 . S
O52 C51 1.227 . S
N53 Co39 2.140 . S
N53 C56 1.346 . S
N53 C57 1.345 . S
C54 C55 1.387 . S
C54 C58 1.391 . S
C55 C54 1.387 . S
C55 C56 1.369 . S
C55 H64 0.929 . S
C56 N53 1.346 . S
C56 C55 1.369 . S
C56 H59 0.928 . S
C57 N53 1.345 . S
C57 C58 1.371 . S
C57 H60 0.931 . S
C58 C54 1.391 . S
C58 C57 1.371 . S
C58 H65 0.930 . S
H59 C56 0.928 . S
H60 C57 0.931 . S
H61 C37 0.930 . S
H62 C34 0.930 . S
H63 C43 0.930 . S
H64 C55 0.929 . S
H65 C58 0.930 . S
C66 C67 1.351 . S
C66 N69 1.368 . S
C66 H71 0.931 . S
C67 C66 1.351 . S
C67 N68 1.373 . S
C67 H95 0.930 . S
N68 C67 1.373 . S
N68 C70 1.340 . S
N69 C66 1.368 . S
N69 C70 1.321 . S
N69 Co72 2.135 . S
C70 N68 1.340 . S
C70 N69 1.321 . S
C70 H94 0.930 . S
H71 C66 0.931 . S
Co72 N69 2.135 . S
Co72 N75 2.121 . S
Co72 O80 2.055 . S
Co72 O83 2.039 . S
Co72 N86 2.140 . S
C73 O74 1.227 . S
C73 O83 1.265 . S
O74 C73 1.227 . S
N75 Co72 2.121 . S
N75 C77 1.375 . S
N75 C78 1.313 . S
C76 C77 1.338 . S
C76 N79 1.377 . S
C76 H96 0.930 . S
C77 N75 1.375 . S
C77 C76 1.338 . S
C77 H81 0.931 . S
C78 N75 1.313 . S
C78 N79 1.344 . S
C78 H82 0.930 . S
N79 C76 1.377 . S
N79 C78 1.344 . S
O80 Co72 2.055 . S
O80 C84 1.253 . S
H81 C77 0.931 . S
H82 C78 0.930 . S
O83 Co72 2.039 . S
O83 C73 1.265 . S
C84 O80 1.253 . S
C84 O85 1.227 . S
O85 C84 1.227 . S
N86 Co72 2.140 . S
N86 C89 1.346 . S
N86 C90 1.345 . S
C87 C88 1.387 . S
C87 C91 1.391 . S
C88 C87 1.387 . S
C88 C89 1.369 . S
C88 H97 0.929 . S
C89 N86 1.346 . S
C89 C88 1.369 . S
C89 H92 0.928 . S
C90 N86 1.345 . S
C90 C91 1.371 . S
C90 H93 0.931 . S
C91 C87 1.391 . S
C91 C90 1.371 . S
C91 H98 0.930 . S
H92 C89 0.928 . S
H93 C90 0.931 . S
H94 C70 0.930 . S
H95 C67 0.930 . S
H96 C76 0.930 . S
H97 C88 0.929 . S
H98 C91 0.930 . S
C99 C100 1.351 . S
C99 N102 1.368 . S
C99 H104 0.931 . S
C100 C99 1.351 . S
C100 N101 1.373 . S
C100 H128 0.930 . S
N101 C100 1.373 . S
N101 C103 1.340 . S
N102 C99 1.368 . S
N102 C103 1.321 . S
N102 Co105 2.135 . S
C103 N101 1.340 . S
C103 N102 1.321 . S
C103 H127 0.930 . S
H104 C99 0.931 . S
Co105 N102 2.135 . S
Co105 N108 2.121 . S
Co105 O113 2.055 . S
Co105 O116 2.039 . S
Co105 N119 2.140 . S
C106 O107 1.227 . S
C106 O116 1.265 . S
O107 C106 1.227 . S
N108 Co105 2.121 . S
N108 C110 1.375 . S
N108 C111 1.313 . S
C109 C110 1.338 . S
C109 N112 1.377 . S
C109 H129 0.930 . S
C110 N108 1.375 . S
C110 C109 1.338 . S
C110 H114 0.931 . S
C111 N108 1.313 . S
C111 N112 1.344 . S
C111 H115 0.930 . S
N112 C109 1.377 . S
N112 C111 1.344 . S
O113 Co105 2.055 . S
O113 C117 1.253 . S
H114 C110 0.931 . S
H115 C111 0.930 . S
O116 Co105 2.039 . S
O116 C106 1.265 . S
C117 O113 1.253 . S
C117 O118 1.227 . S
O118 C117 1.227 . S
N119 Co105 2.140 . S
N119 C122 1.346 . S
N119 C123 1.345 . S
C120 C121 1.387 . S
C120 C124 1.391 . S
C121 C120 1.387 . S
C121 C122 1.369 . S
C121 H130 0.929 . S
C122 N119 1.346 . S
C122 C121 1.369 . S
C122 H125 0.928 . S
C123 N119 1.345 . S
C123 C124 1.371 . S
C123 H126 0.931 . S
C124 C120 1.391 . S
C124 C123 1.371 . S
C124 H131 0.930 . S
H125 C122 0.928 . S
H126 C123 0.931 . S
H127 C103 0.930 . S
H128 C100 0.930 . S
H129 C109 0.930 . S
H130 C121 0.929 . S
H131 C124 0.930 . S
C132 C133 1.351 . S
C132 N135 1.368 . S
C132 H137 0.931 . S
C133 C132 1.351 . S
C133 N134 1.373 . S
C133 H161 0.930 . S
N134 C133 1.373 . S
N134 C136 1.340 . S
N135 C132 1.368 . S
N135 C136 1.321 . S
N135 Co138 2.135 . S
C136 N134 1.340 . S
C136 N135 1.321 . S
C136 H160 0.930 . S
H137 C132 0.931 . S
Co138 N135 2.135 . S
Co138 N141 2.121 . S
Co138 O146 2.055 . S
Co138 O149 2.039 . S
Co138 N152 2.140 . S
C139 O140 1.227 . S
C139 O149 1.265 . S
O140 C139 1.227 . S
N141 Co138 2.121 . S
N141 C143 1.375 . S
N141 C144 1.313 . S
C142 C143 1.338 . S
C142 N145 1.377 . S
C142 H162 0.930 . S
C143 N141 1.375 . S
C143 C142 1.338 . S
C143 H147 0.931 . S
C144 N141 1.313 . S
C144 N145 1.344 . S
C144 H148 0.930 . S
N145 C142 1.377 . S
N145 C144 1.344 . S
O146 Co138 2.055 . S
O146 C150 1.253 . S
H147 C143 0.931 . S
H148 C144 0.930 . S
O149 Co138 2.039 . S
O149 C139 1.265 . S
C150 O146 1.253 . S
C150 O151 1.227 . S
O151 C150 1.227 . S
N152 Co138 2.140 . S
N152 C155 1.346 . S
N152 C156 1.345 . S
C153 C154 1.387 . S
C153 C157 1.391 . S
C154 C153 1.387 . S
C154 C155 1.369 . S
C154 H163 0.929 . S
C155 N152 1.346 . S
C155 C154 1.369 . S
C155 H158 0.928 . S
C156 N152 1.345 . S
C156 C157 1.371 . S
C156 H159 0.931 . S
C157 C153 1.391 . S
C157 C156 1.371 . S
C157 H164 0.930 . S
H158 C155 0.928 . S
H159 C156 0.931 . S
H160 C136 0.930 . S
H161 C133 0.930 . S
H162 C142 0.930 . S
H163 C154 0.929 . S
H164 C157 0.930 . S
C165 C166 1.351 . S
C165 N168 1.368 . S
C165 H170 0.931 . S
C166 C165 1.351 . S
C166 N167 1.373 . S
C166 H194 0.930 . S
N167 C166 1.373 . S
N167 C169 1.340 . S
N168 C165 1.368 . S
N168 C169 1.321 . S
N168 Co171 2.135 . S
C169 N167 1.340 . S
C169 N168 1.321 . S
C169 H193 0.930 . S
H170 C165 0.931 . S
Co171 N168 2.135 . S
Co171 N174 2.121 . S
Co171 O179 2.055 . S
Co171 O182 2.039 . S
Co171 N185 2.140 . S
C172 O173 1.227 . S
C172 O182 1.265 . S
O173 C172 1.227 . S
N174 Co171 2.121 . S
N174 C176 1.375 . S
N174 C177 1.313 . S
C175 C176 1.338 . S
C175 N178 1.377 . S
C175 H195 0.930 . S
C176 N174 1.375 . S
C176 C175 1.338 . S
C176 H180 0.931 . S
C177 N174 1.313 . S
C177 N178 1.344 . S
C177 H181 0.930 . S
N178 C175 1.377 . S
N178 C177 1.344 . S
O179 Co171 2.055 . S
O179 C183 1.253 . S
H180 C176 0.931 . S
H181 C177 0.930 . S
O182 Co171 2.039 . S
O182 C172 1.265 . S
C183 O179 1.253 . S
C183 O184 1.227 . S
O184 C183 1.227 . S
N185 Co171 2.140 . S
N185 C188 1.346 . S
N185 C189 1.345 . S
C186 C187 1.387 . S
C186 C190 1.391 . S
C187 C186 1.387 . S
C187 C188 1.369 . S
C187 H196 0.929 . S
C188 N185 1.346 . S
C188 C187 1.369 . S
C188 H191 0.928 . S
C189 N185 1.345 . S
C189 C190 1.371 . S
C189 H192 0.931 . S
C190 C186 1.391 . S
C190 C189 1.371 . S
C190 H197 0.930 . S
H191 C188 0.928 . S
H192 C189 0.931 . S
H193 C169 0.930 . S
H194 C166 0.930 . S
H195 C175 0.930 . S
H196 C187 0.929 . S
H197 C190 0.930 . S
C198 C199 1.351 . S
C198 N201 1.368 . S
C198 H203 0.931 . S
C199 C198 1.351 . S
C199 N200 1.373 . S
C199 H227 0.930 . S
N200 C199 1.373 . S
N200 C202 1.340 . S
N201 C198 1.368 . S
N201 C202 1.321 . S
N201 Co204 2.135 . S
C202 N200 1.340 . S
C202 N201 1.321 . S
C202 H226 0.930 . S
H203 C198 0.931 . S
Co204 N201 2.135 . S
Co204 N207 2.121 . S
Co204 O212 2.055 . S
Co204 O215 2.039 . S
Co204 N218 2.140 . S
C205 O206 1.227 . S
C205 O215 1.265 . S
O206 C205 1.227 . S
N207 Co204 2.121 . S
N207 C209 1.375 . S
N207 C210 1.313 . S
C208 C209 1.338 . S
C208 N211 1.377 . S
C208 H228 0.930 . S
C209 N207 1.375 . S
C209 C208 1.338 . S
C209 H213 0.931 . S
C210 N207 1.313 . S
C210 N211 1.344 . S
C210 H214 0.930 . S
N211 C208 1.377 . S
N211 C210 1.344 . S
O212 Co204 2.055 . S
O212 C216 1.253 . S
H213 C209 0.931 . S
H214 C210 0.930 . S
O215 Co204 2.039 . S
O215 C205 1.265 . S
C216 O212 1.253 . S
C216 O217 1.227 . S
O217 C216 1.227 . S
N218 Co204 2.140 . S
N218 C221 1.346 . S
N218 C222 1.345 . S
C219 C220 1.387 . S
C219 C223 1.391 . S
C220 C219 1.387 . S
C220 C221 1.369 . S
C220 H229 0.929 . S
C221 N218 1.346 . S
C221 C220 1.369 . S
C221 H224 0.928 . S
C222 N218 1.345 . S
C222 C223 1.371 . S
C222 H225 0.931 . S
C223 C219 1.391 . S
C223 C222 1.371 . S
C223 H230 0.930 . S
H224 C221 0.928 . S
H225 C222 0.931 . S
H226 C202 0.930 . S
H227 C199 0.930 . S
H228 C208 0.930 . S
H229 C220 0.929 . S
H230 C223 0.930 . S
C231 C232 1.351 . S
C231 N234 1.368 . S
C231 H236 0.931 . S
C232 C231 1.351 . S
C232 N233 1.373 . S
C232 H260 0.930 . S
N233 C232 1.373 . S
N233 C235 1.340 . S
N234 C231 1.368 . S
N234 C235 1.321 . S
N234 Co237 2.135 . S
C235 N233 1.340 . S
C235 N234 1.321 . S
C235 H259 0.930 . S
H236 C231 0.931 . S
Co237 N234 2.135 . S
Co237 N240 2.121 . S
Co237 O245 2.055 . S
Co237 O248 2.039 . S
Co237 N251 2.140 . S
C238 O239 1.227 . S
C238 O248 1.265 . S
O239 C238 1.227 . S
N240 Co237 2.121 . S
N240 C242 1.375 . S
N240 C243 1.313 . S
C241 C242 1.338 . S
C241 N244 1.377 . S
C241 H261 0.930 . S
C242 N240 1.375 . S
C242 C241 1.338 . S
C242 H246 0.931 . S
C243 N240 1.313 . S
C243 N244 1.344 . S
C243 H247 0.930 . S
N244 C241 1.377 . S
N244 C243 1.344 . S
O245 Co237 2.055 . S
O245 C249 1.253 . S
H246 C242 0.931 . S
H247 C243 0.930 . S
O248 Co237 2.039 . S
O248 C238 1.265 . S
C249 O245 1.253 . S
C249 O250 1.227 . S
O250 C249 1.227 . S
N251 Co237 2.140 . S
N251 C254 1.346 . S
N251 C255 1.345 . S
C252 C253 1.387 . S
C252 C256 1.391 . S
C253 C252 1.387 . S
C253 C254 1.369 . S
C253 H262 0.929 . S
C254 N251 1.346 . S
C254 C253 1.369 . S
C254 H257 0.928 . S
C255 N251 1.345 . S
C255 C256 1.371 . S
C255 H258 0.931 . S
C256 C252 1.391 . S
C256 C255 1.371 . S
C256 H263 0.930 . S
H257 C254 0.928 . S
H258 C255 0.931 . S
H259 C235 0.930 . S
H260 C232 0.930 . S
H261 C241 0.930 . S
H262 C253 0.929 . S
H263 C256 0.930 . S
C264 C265 1.351 . S
C264 N267 1.368 . S
C264 H269 0.931 . S
C265 C264 1.351 . S
C265 N266 1.373 . S
C265 H293 0.930 . S
N266 C265 1.373 . S
N266 C268 1.340 . S
N267 C264 1.368 . S
N267 C268 1.321 . S
N267 Co270 2.135 . S
C268 N266 1.340 . S
C268 N267 1.321 . S
C268 H292 0.930 . S
H269 C264 0.931 . S
Co270 N267 2.135 . S
Co270 N273 2.121 . S
Co270 O278 2.055 . S
Co270 O281 2.039 . S
Co270 N284 2.140 . S
C271 O272 1.227 . S
C271 O281 1.265 . S
O272 C271 1.227 . S
N273 Co270 2.121 . S
N273 C275 1.375 . S
N273 C276 1.313 . S
C274 C275 1.338 . S
C274 N277 1.377 . S
C274 H294 0.930 . S
C275 N273 1.375 . S
C275 C274 1.338 . S
C275 H279 0.931 . S
C276 N273 1.313 . S
C276 N277 1.344 . S
C276 H280 0.930 . S
N277 C274 1.377 . S
N277 C276 1.344 . S
O278 Co270 2.055 . S
O278 C282 1.253 . S
H279 C275 0.931 . S
H280 C276 0.930 . S
O281 Co270 2.039 . S
O281 C271 1.265 . S
C282 O278 1.253 . S
C282 O283 1.227 . S
O283 C282 1.227 . S
N284 Co270 2.140 . S
N284 C287 1.346 . S
N284 C288 1.345 . S
C285 C286 1.387 . S
C285 C289 1.391 . S
C286 C285 1.387 . S
C286 C287 1.369 . S
C286 H295 0.929 . S
C287 N284 1.346 . S
C287 C286 1.369 . S
C287 H290 0.928 . S
C288 N284 1.345 . S
C288 C289 1.371 . S
C288 H291 0.931 . S
C289 C285 1.391 . S
C289 C288 1.371 . S
C289 H296 0.930 . S
H290 C287 0.928 . S
H291 C288 0.931 . S
H292 C268 0.930 . S
H293 C265 0.930 . S
H294 C274 0.930 . S
H295 C286 0.929 . S
H296 C289 0.930 . S
C297 C298 1.351 . S
C297 N300 1.368 . S
C297 H302 0.931 . S
C298 C297 1.351 . S
C298 N299 1.373 . S
C298 H326 0.930 . S
N299 C298 1.373 . S
N299 C301 1.340 . S
N300 C297 1.368 . S
N300 C301 1.321 . S
N300 Co303 2.135 . S
C301 N299 1.340 . S
C301 N300 1.321 . S
C301 H325 0.930 . S
H302 C297 0.931 . S
Co303 N300 2.135 . S
Co303 N306 2.121 . S
Co303 O311 2.055 . S
Co303 O314 2.039 . S
Co303 N317 2.140 . S
C304 O305 1.227 . S
C304 O314 1.265 . S
O305 C304 1.227 . S
N306 Co303 2.121 . S
N306 C308 1.375 . S
N306 C309 1.313 . S
C307 C308 1.338 . S
C307 N310 1.377 . S
C307 H327 0.930 . S
C308 N306 1.375 . S
C308 C307 1.338 . S
C308 H312 0.931 . S
C309 N306 1.313 . S
C309 N310 1.344 . S
C309 H313 0.930 . S
N310 C307 1.377 . S
N310 C309 1.344 . S
O311 Co303 2.055 . S
O311 C315 1.253 . S
H312 C308 0.931 . S
H313 C309 0.930 . S
O314 Co303 2.039 . S
O314 C304 1.265 . S
C315 O311 1.253 . S
C315 O316 1.227 . S
O316 C315 1.227 . S
N317 Co303 2.140 . S
N317 C320 1.346 . S
N317 C321 1.345 . S
C318 C319 1.387 . S
C318 C322 1.391 . S
C319 C318 1.387 . S
C319 C320 1.369 . S
C319 H328 0.929 . S
C320 N317 1.346 . S
C320 C319 1.369 . S
C320 H323 0.928 . S
C321 N317 1.345 . S
C321 C322 1.371 . S
C321 H324 0.931 . S
C322 C318 1.391 . S
C322 C321 1.371 . S
C322 H329 0.930 . S
H323 C320 0.928 . S
H324 C321 0.931 . S
H325 C301 0.930 . S
H326 C298 0.930 . S
H327 C307 0.930 . S
H328 C319 0.929 . S
H329 C322 0.930 . S
C330 C331 1.351 . S
C330 N333 1.368 . S
C330 H335 0.931 . S
C331 C330 1.351 . S
C331 N332 1.373 . S
C331 H359 0.930 . S
N332 C331 1.373 . S
N332 C334 1.340 . S
N333 C330 1.368 . S
N333 C334 1.321 . S
N333 Co336 2.135 . S
C334 N332 1.340 . S
C334 N333 1.321 . S
C334 H358 0.930 . S
H335 C330 0.931 . S
Co336 N333 2.135 . S
Co336 N339 2.121 . S
Co336 O344 2.055 . S
Co336 O347 2.039 . S
Co336 N350 2.140 . S
C337 O338 1.227 . S
C337 O347 1.265 . S
O338 C337 1.227 . S
N339 Co336 2.121 . S
N339 C341 1.375 . S
N339 C342 1.313 . S
C340 C341 1.338 . S
C340 N343 1.377 . S
C340 H360 0.930 . S
C341 N339 1.375 . S
C341 C340 1.338 . S
C341 H345 0.931 . S
C342 N339 1.313 . S
C342 N343 1.344 . S
C342 H346 0.930 . S
N343 C340 1.377 . S
N343 C342 1.344 . S
O344 Co336 2.055 . S
O344 C348 1.253 . S
H345 C341 0.931 . S
H346 C342 0.930 . S
O347 Co336 2.039 . S
O347 C337 1.265 . S
C348 O344 1.253 . S
C348 O349 1.227 . S
O349 C348 1.227 . S
N350 Co336 2.140 . S
N350 C353 1.346 . S
N350 C354 1.345 . S
C351 C352 1.387 . S
C351 C355 1.391 . S
C352 C351 1.387 . S
C352 C353 1.369 . S
C352 H361 0.929 . S
C353 N350 1.346 . S
C353 C352 1.369 . S
C353 H356 0.928 . S
C354 N350 1.345 . S
C354 C355 1.371 . S
C354 H357 0.931 . S
C355 C351 1.391 . S
C355 C354 1.371 . S
C355 H362 0.930 . S
H356 C353 0.928 . S
H357 C354 0.931 . S
H358 C334 0.930 . S
H359 C331 0.930 . S
H360 C340 0.930 . S
H361 C352 0.929 . S
H362 C355 0.930 . S
C363 C364 1.351 . S
C363 N366 1.368 . S
C363 H368 0.931 . S
C364 C363 1.351 . S
C364 N365 1.373 . S
C364 H392 0.930 . S
N365 C364 1.373 . S
N365 C367 1.340 . S
N366 C363 1.368 . S
N366 C367 1.321 . S
N366 Co369 2.135 . S
C367 N365 1.340 . S
C367 N366 1.321 . S
C367 H391 0.930 . S
H368 C363 0.931 . S
Co369 N366 2.135 . S
Co369 N372 2.121 . S
Co369 O377 2.055 . S
Co369 O380 2.039 . S
Co369 N383 2.140 . S
C370 O371 1.227 . S
C370 O380 1.265 . S
O371 C370 1.227 . S
N372 Co369 2.121 . S
N372 C374 1.375 . S
N372 C375 1.313 . S
C373 C374 1.338 . S
C373 N376 1.377 . S
C373 H393 0.930 . S
C374 N372 1.375 . S
C374 C373 1.338 . S
C374 H378 0.931 . S
C375 N372 1.313 . S
C375 N376 1.344 . S
C375 H379 0.930 . S
N376 C373 1.377 . S
N376 C375 1.344 . S
O377 Co369 2.055 . S
O377 C381 1.253 . S
H378 C374 0.931 . S
H379 C375 0.930 . S
O380 Co369 2.039 . S
O380 C370 1.265 . S
C381 O377 1.253 . S
C381 O382 1.227 . S
O382 C381 1.227 . S
N383 Co369 2.140 . S
N383 C386 1.346 . S
N383 C387 1.345 . S
C384 C385 1.387 . S
C384 C388 1.391 . S
C385 C384 1.387 . S
C385 C386 1.369 . S
C385 H394 0.929 . S
C386 N383 1.346 . S
C386 C385 1.369 . S
C386 H389 0.928 . S
C387 N383 1.345 . S
C387 C388 1.371 . S
C387 H390 0.931 . S
C388 C384 1.391 . S
C388 C387 1.371 . S
C388 H395 0.930 . S
H389 C386 0.928 . S
H390 C387 0.931 . S
H391 C367 0.930 . S
H392 C364 0.930 . S
H393 C373 0.930 . S
H394 C385 0.929 . S
H395 C388 0.930 . S
C396 C397 1.351 . S
C396 N399 1.368 . S
C396 H401 0.931 . S
C397 C396 1.351 . S
C397 N398 1.373 . S
C397 H425 0.930 . S
N398 C397 1.373 . S
N398 C400 1.340 . S
N399 C396 1.368 . S
N399 C400 1.321 . S
N399 Co402 2.135 . S
C400 N398 1.340 . S
C400 N399 1.321 . S
C400 H424 0.930 . S
H401 C396 0.931 . S
Co402 N399 2.135 . S
Co402 N405 2.121 . S
Co402 O410 2.055 . S
Co402 O413 2.039 . S
Co402 N416 2.140 . S
C403 O404 1.227 . S
C403 O413 1.265 . S
O404 C403 1.227 . S
N405 Co402 2.121 . S
N405 C407 1.375 . S
N405 C408 1.313 . S
C406 C407 1.338 . S
C406 N409 1.377 . S
C406 H426 0.930 . S
C407 N405 1.375 . S
C407 C406 1.338 . S
C407 H411 0.931 . S
C408 N405 1.313 . S
C408 N409 1.344 . S
C408 H412 0.930 . S
N409 C406 1.377 . S
N409 C408 1.344 . S
O410 Co402 2.055 . S
O410 C414 1.253 . S
H411 C407 0.931 . S
H412 C408 0.930 . S
O413 Co402 2.039 . S
O413 C403 1.265 . S
C414 O410 1.253 . S
C414 O415 1.227 . S
O415 C414 1.227 . S
N416 Co402 2.140 . S
N416 C419 1.346 . S
N416 C420 1.345 . S
C417 C418 1.387 . S
C417 C421 1.391 . S
C418 C417 1.387 . S
C418 C419 1.369 . S
C418 H427 0.929 . S
C419 N416 1.346 . S
C419 C418 1.369 . S
C419 H422 0.928 . S
C420 N416 1.345 . S
C420 C421 1.371 . S
C420 H423 0.931 . S
C421 C417 1.391 . S
C421 C420 1.371 . S
C421 H428 0.930 . S
H422 C419 0.928 . S
H423 C420 0.931 . S
H424 C400 0.930 . S
H425 C397 0.930 . S
H426 C406 0.930 . S
H427 C418 0.929 . S
H428 C421 0.930 . S
C429 C430 1.351 . S
C429 N432 1.368 . S
C429 H434 0.931 . S
C430 C429 1.351 . S
C430 N431 1.373 . S
C430 H458 0.930 . S
N431 C430 1.373 . S
N431 C433 1.340 . S
N432 C429 1.368 . S
N432 C433 1.321 . S
N432 Co435 2.135 . S
C433 N431 1.340 . S
C433 N432 1.321 . S
C433 H457 0.930 . S
H434 C429 0.931 . S
Co435 N432 2.135 . S
Co435 N438 2.121 . S
Co435 O443 2.055 . S
Co435 O446 2.039 . S
Co435 N449 2.140 . S
C436 O437 1.227 . S
C436 O446 1.265 . S
O437 C436 1.227 . S
N438 Co435 2.121 . S
N438 C440 1.375 . S
N438 C441 1.313 . S
C439 C440 1.338 . S
C439 N442 1.377 . S
C439 H459 0.930 . S
C440 N438 1.375 . S
C440 C439 1.338 . S
C440 H444 0.931 . S
C441 N438 1.313 . S
C441 N442 1.344 . S
C441 H445 0.930 . S
N442 C439 1.377 . S
N442 C441 1.344 . S
O443 Co435 2.055 . S
O443 C447 1.253 . S
H444 C440 0.931 . S
H445 C441 0.930 . S
O446 Co435 2.039 . S
O446 C436 1.265 . S
C447 O443 1.253 . S
C447 O448 1.227 . S
O448 C447 1.227 . S
N449 Co435 2.140 . S
N449 C452 1.346 . S
N449 C453 1.345 . S
C450 C451 1.387 . S
C450 C454 1.391 . S
C451 C450 1.387 . S
C451 C452 1.369 . S
C451 H460 0.929 . S
C452 N449 1.346 . S
C452 C451 1.369 . S
C452 H455 0.928 . S
C453 N449 1.345 . S
C453 C454 1.371 . S
C453 H456 0.931 . S
C454 C450 1.391 . S
C454 C453 1.371 . S
C454 H461 0.930 . S
H455 C452 0.928 . S
H456 C453 0.931 . S
H457 C433 0.930 . S
H458 C430 0.930 . S
H459 C439 0.930 . S
H460 C451 0.929 . S
H461 C454 0.930 . S
C462 C463 1.351 . S
C462 N465 1.368 . S
C462 H467 0.931 . S
C463 C462 1.351 . S
C463 N464 1.373 . S
C463 H491 0.930 . S
N464 C463 1.373 . S
N464 C466 1.340 . S
N465 C462 1.368 . S
N465 C466 1.321 . S
N465 Co468 2.135 . S
C466 N464 1.340 . S
C466 N465 1.321 . S
C466 H490 0.930 . S
H467 C462 0.931 . S
Co468 N465 2.135 . S
Co468 N471 2.121 . S
Co468 O476 2.055 . S
Co468 O479 2.039 . S
Co468 N482 2.140 . S
C469 O470 1.227 . S
C469 O479 1.265 . S
O470 C469 1.227 . S
N471 Co468 2.121 . S
N471 C473 1.375 . S
N471 C474 1.313 . S
C472 C473 1.338 . S
C472 N475 1.377 . S
C472 H492 0.930 . S
C473 N471 1.375 . S
C473 C472 1.338 . S
C473 H477 0.931 . S
C474 N471 1.313 . S
C474 N475 1.344 . S
C474 H478 0.930 . S
N475 C472 1.377 . S
N475 C474 1.344 . S
O476 Co468 2.055 . S
O476 C480 1.253 . S
H477 C473 0.931 . S
H478 C474 0.930 . S
O479 Co468 2.039 . S
O479 C469 1.265 . S
C480 O476 1.253 . S
C480 O481 1.227 . S
O481 C480 1.227 . S
N482 Co468 2.140 . S
N482 C485 1.346 . S
N482 C486 1.345 . S
C483 C484 1.387 . S
C483 C487 1.391 . S
C484 C483 1.387 . S
C484 C485 1.369 . S
C484 H493 0.929 . S
C485 N482 1.346 . S
C485 C484 1.369 . S
C485 H488 0.928 . S
C486 N482 1.345 . S
C486 C487 1.371 . S
C486 H489 0.931 . S
C487 C483 1.391 . S
C487 C486 1.371 . S
C487 H494 0.930 . S
H488 C485 0.928 . S
H489 C486 0.931 . S
H490 C466 0.930 . S
H491 C463 0.930 . S
H492 C472 0.930 . S
H493 C484 0.929 . S
H494 C487 0.930 . S
C495 C496 1.351 . S
C495 N498 1.368 . S
C495 H500 0.931 . S
C496 C495 1.351 . S
C496 N497 1.373 . S
C496 H524 0.930 . S
N497 C496 1.373 . S
N497 C499 1.340 . S
N498 C495 1.368 . S
N498 C499 1.321 . S
N498 Co501 2.135 . S
C499 N497 1.340 . S
C499 N498 1.321 . S
C499 H523 0.930 . S
H500 C495 0.931 . S
Co501 N498 2.135 . S
Co501 N504 2.121 . S
Co501 O509 2.055 . S
Co501 O512 2.039 . S
Co501 N515 2.140 . S
C502 O503 1.227 . S
C502 O512 1.265 . S
O503 C502 1.227 . S
N504 Co501 2.121 . S
N504 C506 1.375 . S
N504 C507 1.313 . S
C505 C506 1.338 . S
C505 N508 1.377 . S
C505 H525 0.930 . S
C506 N504 1.375 . S
C506 C505 1.338 . S
C506 H510 0.931 . S
C507 N504 1.313 . S
C507 N508 1.344 . S
C507 H511 0.930 . S
N508 C505 1.377 . S
N508 C507 1.344 . S
O509 Co501 2.055 . S
O509 C513 1.253 . S
H510 C506 0.931 . S
H511 C507 0.930 . S
O512 Co501 2.039 . S
O512 C502 1.265 . S
C513 O509 1.253 . S
C513 O514 1.227 . S
O514 C513 1.227 . S
N515 Co501 2.140 . S
N515 C518 1.346 . S
N515 C519 1.345 . S
C516 C517 1.387 . S
C516 C520 1.391 . S
C517 C516 1.387 . S
C517 C518 1.369 . S
C517 H526 0.929 . S
C518 N515 1.346 . S
C518 C517 1.369 . S
C518 H521 0.928 . S
C519 N515 1.345 . S
C519 C520 1.371 . S
C519 H522 0.931 . S
C520 C516 1.391 . S
C520 C519 1.371 . S
C520 H527 0.930 . S
H521 C518 0.928 . S
H522 C519 0.931 . S
H523 C499 0.930 . S
H524 C496 0.930 . S
H525 C505 0.930 . S
H526 C517 0.929 . S
H527 C520 0.930 . S
C528 C529 1.351 . S
C528 N531 1.368 . S
C528 H533 0.931 . S
C529 C528 1.351 . S
C529 N530 1.373 . S
C529 H557 0.930 . S
N530 C529 1.373 . S
N530 C532 1.340 . S
N531 C528 1.368 . S
N531 C532 1.321 . S
N531 Co534 2.135 . S
C532 N530 1.340 . S
C532 N531 1.321 . S
C532 H556 0.930 . S
H533 C528 0.931 . S
Co534 N531 2.135 . S
Co534 N537 2.121 . S
Co534 O542 2.055 . S
Co534 O545 2.039 . S
Co534 N548 2.140 . S
C535 O536 1.227 . S
C535 O545 1.265 . S
O536 C535 1.227 . S
N537 Co534 2.121 . S
N537 C539 1.375 . S
N537 C540 1.313 . S
C538 C539 1.338 . S
C538 N541 1.377 . S
C538 H558 0.930 . S
C539 N537 1.375 . S
C539 C538 1.338 . S
C539 H543 0.931 . S
C540 N537 1.313 . S
C540 N541 1.344 . S
C540 H544 0.930 . S
N541 C538 1.377 . S
N541 C540 1.344 . S
O542 Co534 2.055 . S
O542 C546 1.253 . S
H543 C539 0.931 . S
H544 C540 0.930 . S
O545 Co534 2.039 . S
O545 C535 1.265 . S
C546 O542 1.253 . S
C546 O547 1.227 . S
O547 C546 1.227 . S
N548 Co534 2.140 . S
N548 C551 1.346 . S
N548 C552 1.345 . S
C549 C550 1.387 . S
C549 C553 1.391 . S
C550 C549 1.387 . S
C550 C551 1.369 . S
C550 H559 0.929 . S
C551 N548 1.346 . S
C551 C550 1.369 . S
C551 H554 0.928 . S
C552 N548 1.345 . S
C552 C553 1.371 . S
C552 H555 0.931 . S
C553 C549 1.391 . S
C553 C552 1.371 . S
C553 H560 0.930 . S
H554 C551 0.928 . S
H555 C552 0.931 . S
H556 C532 0.930 . S
H557 C529 0.930 . S
H558 C538 0.930 . S
H559 C550 0.929 . S
H560 C553 0.930 . S
C561 C562 1.351 . S
C561 N564 1.368 . S
C561 H566 0.931 . S
C562 C561 1.351 . S
C562 N563 1.373 . S
C562 H590 0.930 . S
N563 C562 1.373 . S
N563 C565 1.340 . S
N564 C561 1.368 . S
N564 C565 1.321 . S
N564 Co567 2.135 . S
C565 N563 1.340 . S
C565 N564 1.321 . S
C565 H589 0.930 . S
H566 C561 0.931 . S
Co567 N564 2.135 . S
Co567 N570 2.121 . S
Co567 O575 2.055 . S
Co567 O578 2.039 . S
Co567 N581 2.140 . S
C568 O569 1.227 . S
C568 O578 1.265 . S
O569 C568 1.227 . S
N570 Co567 2.121 . S
N570 C572 1.375 . S
N570 C573 1.313 . S
C571 C572 1.338 . S
C571 N574 1.377 . S
C571 H591 0.930 . S
C572 N570 1.375 . S
C572 C571 1.338 . S
C572 H576 0.931 . S
C573 N570 1.313 . S
C573 N574 1.344 . S
C573 H577 0.930 . S
N574 C571 1.377 . S
N574 C573 1.344 . S
O575 Co567 2.055 . S
O575 C579 1.253 . S
H576 C572 0.931 . S
H577 C573 0.930 . S
O578 Co567 2.039 . S
O578 C568 1.265 . S
C579 O575 1.253 . S
C579 O580 1.227 . S
O580 C579 1.227 . S
N581 Co567 2.140 . S
N581 C584 1.346 . S
N581 C585 1.345 . S
C582 C583 1.387 . S
C582 C586 1.391 . S
C583 C582 1.387 . S
C583 C584 1.369 . S
C583 H592 0.929 . S
C584 N581 1.346 . S
C584 C583 1.369 . S
C584 H587 0.928 . S
C585 N581 1.345 . S
C585 C586 1.371 . S
C585 H588 0.931 . S
C586 C582 1.391 . S
C586 C585 1.371 . S
C586 H593 0.930 . S
H587 C584 0.928 . S
H588 C585 0.931 . S
H589 C565 0.930 . S
H590 C562 0.930 . S
H591 C571 0.930 . S
H592 C583 0.929 . S
H593 C586 0.930 . S
C594 C595 1.351 . S
C594 N597 1.368 . S
C594 H599 0.931 . S
C595 C594 1.351 . S
C595 N596 1.373 . S
C595 H623 0.930 . S
N596 C595 1.373 . S
N596 C598 1.340 . S
N597 C594 1.368 . S
N597 C598 1.321 . S
N597 Co600 2.135 . S
C598 N596 1.340 . S
C598 N597 1.321 . S
C598 H622 0.930 . S
H599 C594 0.931 . S
Co600 N597 2.135 . S
Co600 N603 2.121 . S
Co600 O608 2.055 . S
Co600 O611 2.039 . S
Co600 N614 2.140 . S
C601 O602 1.227 . S
C601 O611 1.265 . S
O602 C601 1.227 . S
N603 Co600 2.121 . S
N603 C605 1.375 . S
N603 C606 1.313 . S
C604 C605 1.338 . S
C604 N607 1.377 . S
C604 H624 0.930 . S
C605 N603 1.375 . S
C605 C604 1.338 . S
C605 H609 0.931 . S
C606 N603 1.313 . S
C606 N607 1.344 . S
C606 H610 0.930 . S
N607 C604 1.377 . S
N607 C606 1.344 . S
O608 Co600 2.055 . S
O608 C612 1.253 . S
H609 C605 0.931 . S
H610 C606 0.930 . S
O611 Co600 2.039 . S
O611 C601 1.265 . S
C612 O608 1.253 . S
C612 O613 1.227 . S
O613 C612 1.227 . S
N614 Co600 2.140 . S
N614 C617 1.346 . S
N614 C618 1.345 . S
C615 C616 1.387 . S
C615 C619 1.391 . S
C616 C615 1.387 . S
C616 C617 1.369 . S
C616 H625 0.929 . S
C617 N614 1.346 . S
C617 C616 1.369 . S
C617 H620 0.928 . S
C618 N614 1.345 . S
C618 C619 1.371 . S
C618 H621 0.931 . S
C619 C615 1.391 . S
C619 C618 1.371 . S
C619 H626 0.930 . S
H620 C617 0.928 . S
H621 C618 0.931 . S
H622 C598 0.930 . S
H623 C595 0.930 . S
H624 C604 0.930 . S
H625 C616 0.929 . S
H626 C619 0.930 . S
C627 C628 1.351 . S
C627 N630 1.368 . S
C627 H632 0.931 . S
C628 C627 1.351 . S
C628 N629 1.373 . S
C628 H656 0.930 . S
N629 C628 1.373 . S
N629 C631 1.340 . S
N630 C627 1.368 . S
N630 C631 1.321 . S
N630 Co633 2.135 . S
C631 N629 1.340 . S
C631 N630 1.321 . S
C631 H655 0.930 . S
H632 C627 0.931 . S
Co633 N630 2.135 . S
Co633 N636 2.121 . S
Co633 O641 2.055 . S
Co633 O644 2.039 . S
Co633 N647 2.140 . S
C634 O635 1.227 . S
C634 O644 1.265 . S
O635 C634 1.227 . S
N636 Co633 2.121 . S
N636 C638 1.375 . S
N636 C639 1.313 . S
C637 C638 1.338 . S
C637 N640 1.377 . S
C637 H657 0.930 . S
C638 N636 1.375 . S
C638 C637 1.338 . S
C638 H642 0.931 . S
C639 N636 1.313 . S
C639 N640 1.344 . S
C639 H643 0.930 . S
N640 C637 1.377 . S
N640 C639 1.344 . S
O641 Co633 2.055 . S
O641 C645 1.253 . S
H642 C638 0.931 . S
H643 C639 0.930 . S
O644 Co633 2.039 . S
O644 C634 1.265 . S
C645 O641 1.253 . S
C645 O646 1.227 . S
O646 C645 1.227 . S
N647 Co633 2.140 . S
N647 C650 1.346 . S
N647 C651 1.345 . S
C648 C649 1.387 . S
C648 C652 1.391 . S
C649 C648 1.387 . S
C649 C650 1.369 . S
C649 H658 0.929 . S
C650 N647 1.346 . S
C650 C649 1.369 . S
C650 H653 0.928 . S
C651 N647 1.345 . S
C651 C652 1.371 . S
C651 H654 0.931 . S
C652 C648 1.391 . S
C652 C651 1.371 . S
C652 H659 0.930 . S
H653 C650 0.928 . S
H654 C651 0.931 . S
H655 C631 0.930 . S
H656 C628 0.930 . S
H657 C637 0.930 . S
H658 C649 0.929 . S
H659 C652 0.930 . S
C660 C661 1.351 . S
C660 N663 1.368 . S
C660 H665 0.931 . S
C661 C660 1.351 . S
C661 N662 1.373 . S
C661 H689 0.930 . S
N662 C661 1.373 . S
N662 C664 1.340 . S
N663 C660 1.368 . S
N663 C664 1.321 . S
N663 Co666 2.135 . S
C664 N662 1.340 . S
C664 N663 1.321 . S
C664 H688 0.930 . S
H665 C660 0.931 . S
Co666 N663 2.135 . S
Co666 N669 2.121 . S
Co666 O674 2.055 . S
Co666 O677 2.039 . S
Co666 N680 2.140 . S
C667 O668 1.227 . S
C667 O677 1.265 . S
O668 C667 1.227 . S
N669 Co666 2.121 . S
N669 C671 1.375 . S
N669 C672 1.313 . S
C670 C671 1.338 . S
C670 N673 1.377 . S
C670 H690 0.930 . S
C671 N669 1.375 . S
C671 C670 1.338 . S
C671 H675 0.931 . S
C672 N669 1.313 . S
C672 N673 1.344 . S
C672 H676 0.930 . S
N673 C670 1.377 . S
N673 C672 1.344 . S
O674 Co666 2.055 . S
O674 C678 1.253 . S
H675 C671 0.931 . S
H676 C672 0.930 . S
O677 Co666 2.039 . S
O677 C667 1.265 . S
C678 O674 1.253 . S
C678 O679 1.227 . S
O679 C678 1.227 . S
N680 Co666 2.140 . S
N680 C683 1.346 . S
N680 C684 1.345 . S
C681 C682 1.387 . S
C681 C685 1.391 . S
C682 C681 1.387 . S
C682 C683 1.369 . S
C682 H691 0.929 . S
C683 N680 1.346 . S
C683 C682 1.369 . S
C683 H686 0.928 . S
C684 N680 1.345 . S
C684 C685 1.371 . S
C684 H687 0.931 . S
C685 C681 1.391 . S
C685 C684 1.371 . S
C685 H692 0.930 . S
H686 C683 0.928 . S
H687 C684 0.931 . S
H688 C664 0.930 . S
H689 C661 0.930 . S
H690 C670 0.930 . S
H691 C682 0.929 . S
H692 C685 0.930 . S
C693 C694 1.351 . S
C693 N696 1.368 . S
C693 H698 0.931 . S
C694 C693 1.351 . S
C694 N695 1.373 . S
C694 H722 0.930 . S
N695 C694 1.373 . S
N695 C697 1.340 . S
N696 C693 1.368 . S
N696 C697 1.321 . S
N696 Co699 2.135 . S
C697 N695 1.340 . S
C697 N696 1.321 . S
C697 H721 0.930 . S
H698 C693 0.931 . S
Co699 N696 2.135 . S
Co699 N702 2.121 . S
Co699 O707 2.055 . S
Co699 O710 2.039 . S
Co699 N713 2.140 . S
C700 O701 1.227 . S
C700 O710 1.265 . S
O701 C700 1.227 . S
N702 Co699 2.121 . S
N702 C704 1.375 . S
N702 C705 1.313 . S
C703 C704 1.338 . S
C703 N706 1.377 . S
C703 H723 0.930 . S
C704 N702 1.375 . S
C704 C703 1.338 . S
C704 H708 0.931 . S
C705 N702 1.313 . S
C705 N706 1.344 . S
C705 H709 0.930 . S
N706 C703 1.377 . S
N706 C705 1.344 . S
O707 Co699 2.055 . S
O707 C711 1.253 . S
H708 C704 0.931 . S
H709 C705 0.930 . S
O710 Co699 2.039 . S
O710 C700 1.265 . S
C711 O707 1.253 . S
C711 O712 1.227 . S
O712 C711 1.227 . S
N713 Co699 2.140 . S
N713 C716 1.346 . S
N713 C717 1.345 . S
C714 C715 1.387 . S
C714 C718 1.391 . S
C715 C714 1.387 . S
C715 C716 1.369 . S
C715 H724 0.929 . S
C716 N713 1.346 . S
C716 C715 1.369 . S
C716 H719 0.928 . S
C717 N713 1.345 . S
C717 C718 1.371 . S
C717 H720 0.931 . S
C718 C714 1.391 . S
C718 C717 1.371 . S
C718 H725 0.930 . S
H719 C716 0.928 . S
H720 C717 0.931 . S
H721 C697 0.930 . S
H722 C694 0.930 . S
H723 C703 0.930 . S
H724 C715 0.929 . S
H725 C718 0.930 . S
C726 C727 1.351 . S
C726 N729 1.368 . S
C726 H731 0.931 . S
C727 C726 1.351 . S
C727 N728 1.373 . S
C727 H755 0.930 . S
N728 C727 1.373 . S
N728 C730 1.340 . S
N729 C726 1.368 . S
N729 C730 1.321 . S
N729 Co732 2.135 . S
C730 N728 1.340 . S
C730 N729 1.321 . S
C730 H754 0.930 . S
H731 C726 0.931 . S
Co732 N729 2.135 . S
Co732 N735 2.121 . S
Co732 O740 2.055 . S
Co732 O743 2.039 . S
Co732 N746 2.140 . S
C733 O734 1.227 . S
C733 O743 1.265 . S
O734 C733 1.227 . S
N735 Co732 2.121 . S
N735 C737 1.375 . S
N735 C738 1.313 . S
C736 C737 1.338 . S
C736 N739 1.377 . S
C736 H756 0.930 . S
C737 N735 1.375 . S
C737 C736 1.338 . S
C737 H741 0.931 . S
C738 N735 1.313 . S
C738 N739 1.344 . S
C738 H742 0.930 . S
N739 C736 1.377 . S
N739 C738 1.344 . S
O740 Co732 2.055 . S
O740 C744 1.253 . S
H741 C737 0.931 . S
H742 C738 0.930 . S
O743 Co732 2.039 . S
O743 C733 1.265 . S
C744 O740 1.253 . S
C744 O745 1.227 . S
O745 C744 1.227 . S
N746 Co732 2.140 . S
N746 C749 1.346 . S
N746 C750 1.345 . S
C747 C748 1.387 . S
C747 C751 1.391 . S
C748 C747 1.387 . S
C748 C749 1.369 . S
C748 H757 0.929 . S
C749 N746 1.346 . S
C749 C748 1.369 . S
C749 H752 0.928 . S
C750 N746 1.345 . S
C750 C751 1.371 . S
C750 H753 0.931 . S
C751 C747 1.391 . S
C751 C750 1.371 . S
C751 H758 0.930 . S
H752 C749 0.928 . S
H753 C750 0.931 . S
H754 C730 0.930 . S
H755 C727 0.930 . S
H756 C736 0.930 . S
H757 C748 0.929 . S
H758 C751 0.930 . S
C759 C760 1.351 . S
C759 N762 1.368 . S
C759 H764 0.931 . S
C760 C759 1.351 . S
C760 N761 1.373 . S
C760 H788 0.930 . S
N761 C760 1.373 . S
N761 C763 1.340 . S
N762 C759 1.368 . S
N762 C763 1.321 . S
N762 Co765 2.135 . S
C763 N761 1.340 . S
C763 N762 1.321 . S
C763 H787 0.930 . S
H764 C759 0.931 . S
Co765 N762 2.135 . S
Co765 N768 2.121 . S
Co765 O773 2.055 . S
Co765 O776 2.039 . S
Co765 N779 2.140 . S
C766 O767 1.227 . S
C766 O776 1.265 . S
O767 C766 1.227 . S
N768 Co765 2.121 . S
N768 C770 1.375 . S
N768 C771 1.313 . S
C769 C770 1.338 . S
C769 N772 1.377 . S
C769 H789 0.930 . S
C770 N768 1.375 . S
C770 C769 1.338 . S
C770 H774 0.931 . S
C771 N768 1.313 . S
C771 N772 1.344 . S
C771 H775 0.930 . S
N772 C769 1.377 . S
N772 C771 1.344 . S
O773 Co765 2.055 . S
O773 C777 1.253 . S
H774 C770 0.931 . S
H775 C771 0.930 . S
O776 Co765 2.039 . S
O776 C766 1.265 . S
C777 O773 1.253 . S
C777 O778 1.227 . S
O778 C777 1.227 . S
N779 Co765 2.140 . S
N779 C782 1.346 . S
N779 C783 1.345 . S
C780 C781 1.387 . S
C780 C784 1.391 . S
C781 C780 1.387 . S
C781 C782 1.369 . S
C781 H790 0.929 . S
C782 N779 1.346 . S
C782 C781 1.369 . S
C782 H785 0.928 . S
C783 N779 1.345 . S
C783 C784 1.371 . S
C783 H786 0.931 . S
C784 C780 1.391 . S
C784 C783 1.371 . S
C784 H791 0.930 . S
H785 C782 0.928 . S
H786 C783 0.931 . S
H787 C763 0.930 . S
H788 C760 0.930 . S
H789 C769 0.930 . S
H790 C781 0.929 . S
H791 C784 0.930 . S
H792 C798 0.930 . S
H793 C801 0.930 . S
H794 C802 0.930 . S
H795 C803 0.930 . S
H796 C806 0.930 . S
H797 C807 0.930 . S
C798 H792 0.930 . S
C798 C799 1.355 . S
C798 C800 1.415 1_545 S
C799 C798 1.355 . S
C799 C801 1.419 . S
C800 C798 1.415 1_565 S
C800 C805 1.425 1_565 S
C800 C807 1.409 . S
C801 H793 0.930 . S
C801 C799 1.419 . S
C801 C802 1.362 . S
C802 H794 0.930 . S
C802 C801 1.362 . S
C802 C805 1.409 . S
C803 H795 0.930 . S
C803 C804 1.355 . S
C803 C805 1.415 1_565 S
C804 C803 1.355 . S
C804 C806 1.419 . S
C805 C800 1.425 1_545 S
C805 C802 1.409 . S
C805 C803 1.415 1_545 S
C806 H796 0.930 . S
C806 C804 1.419 . S
C806 C807 1.362 . S
C807 H797 0.930 . S
C807 C800 1.409 . S
C807 C806 1.362 . S
H808 C814 0.930 . S
H809 C817 0.930 . S
H810 C818 0.930 . S
H811 C819 0.930 . S
H812 C822 0.930 . S
H813 C823 0.930 . S
C814 H808 0.930 . S
C814 C815 1.355 . S
C814 C816 1.415 . S
C815 C814 1.355 . S
C815 C817 1.419 . S
C816 C814 1.415 . S
C816 C821 1.425 . S
C816 C823 1.409 . S
C817 H809 0.930 . S
C817 C815 1.419 . S
C817 C818 1.362 . S
C818 H810 0.930 . S
C818 C817 1.362 . S
C818 C821 1.409 . S
C819 H811 0.930 . S
C819 C820 1.355 . S
C819 C821 1.415 . S
C820 C819 1.355 . S
C820 C822 1.419 . S
C821 C816 1.425 . S
C821 C818 1.409 . S
C821 C819 1.415 . S
C822 H812 0.930 . S
C822 C820 1.419 . S
C822 C823 1.362 . S
C823 H813 0.930 . S
C823 C816 1.409 . S
C823 C822 1.362 . S
H824 C830 0.930 . S
H825 C833 0.930 . S
H826 C834 0.930 . S
H827 C835 0.930 . S
H828 C838 0.930 . S
H829 C839 0.930 . S
C830 H824 0.930 . S
C830 C831 1.355 . S
C830 C832 1.403 1_455 S
C831 C830 1.355 . S
C831 C833 1.419 . S
C832 C830 1.403 1_655 S
C832 C837 1.398 1_655 S
C832 C839 1.435 . S
C833 H825 0.930 . S
C833 C831 1.419 . S
C833 C834 1.362 . S
C834 H826 0.930 . S
C834 C833 1.362 . S
C834 C837 1.435 . S
C835 H827 0.930 . S
C835 C836 1.355 . S
C835 C837 1.403 1_655 S
C836 C835 1.355 . S
C836 C838 1.419 . S
C837 C832 1.398 1_455 S
C837 C834 1.435 . S
C837 C835 1.403 1_455 S
C838 H828 0.930 . S
C838 C836 1.419 . S
C838 C839 1.362 . S
C839 H829 0.930 . S
C839 C832 1.435 . S
C839 C838 1.362 . S
H840 C846 0.930 . S
H841 C849 0.930 . S
H842 C850 0.930 . S
H843 C851 0.930 . S
H844 C854 0.930 . S
H845 C855 0.930 . S
C846 H840 0.930 . S
C846 C847 1.355 . S
C846 C848 1.415 1_455 S
C847 C846 1.355 . S
C847 C849 1.419 . S
C848 C846 1.415 1_655 S
C848 C853 1.425 1_655 S
C848 C855 1.409 . S
C849 H841 0.930 . S
C849 C847 1.419 . S
C849 C850 1.362 . S
C850 H842 0.930 . S
C850 C849 1.362 . S
C850 C853 1.409 . S
C851 H843 0.930 . S
C851 C852 1.355 . S
C851 C853 1.415 1_655 S
C852 C851 1.355 . S
C852 C854 1.419 . S
C853 C848 1.425 1_455 S
C853 C850 1.409 . S
C853 C851 1.415 1_455 S
C854 H844 0.930 . S
C854 C852 1.419 . S
C854 C855 1.362 . S
C855 H845 0.930 . S
C855 C848 1.409 . S
C855 C854 1.362 . S
H856 C862 0.930 . S
H857 C865 0.930 . S
H858 C866 0.930 . S
H859 C867 0.930 . S
H860 C870 0.930 . S
H861 C871 0.930 . S
C862 H856 0.930 . S
C862 C863 1.355 . S
C862 C864 1.415 1_565 S
C863 C862 1.355 . S
C863 C865 1.419 . S
C864 C862 1.415 1_545 S
C864 C869 1.425 1_545 S
C864 C871 1.409 . S
C865 H857 0.930 . S
C865 C863 1.419 . S
C865 C866 1.362 . S
C866 H858 0.930 . S
C866 C865 1.362 . S
C866 C869 1.409 . S
C867 H859 0.930 . S
C867 C868 1.355 . S
C867 C869 1.415 1_545 S
C868 C867 1.355 . S
C868 C870 1.419 . S
C869 C864 1.425 1_565 S
C869 C866 1.409 . S
C869 C867 1.415 1_565 S
C870 H860 0.930 . S
C870 C868 1.419 . S
C870 C871 1.362 . S
C871 H861 0.930 . S
C871 C864 1.409 . S
C871 C870 1.362 . S
H872 C878 0.930 . S
H873 C881 0.930 . S
H874 C882 0.930 . S
H875 C883 0.930 . S
H876 C886 0.930 . S
H877 C887 0.930 . S
C878 H872 0.930 . S
C878 C879 1.355 . S
C878 C880 1.415 . S
C879 C878 1.355 . S
C879 C881 1.419 . S
C880 C878 1.415 . S
C880 C885 1.425 . S
C880 C887 1.409 . S
C881 H873 0.930 . S
C881 C879 1.419 . S
C881 C882 1.362 . S
C882 H874 0.930 . S
C882 C881 1.362 . S
C882 C885 1.409 . S
C883 H875 0.930 . S
C883 C884 1.355 . S
C883 C885 1.415 . S
C884 C883 1.355 . S
C884 C886 1.419 . S
C885 C880 1.425 . S
C885 C882 1.409 . S
C885 C883 1.415 . S
C886 H876 0.930 . S
C886 C884 1.419 . S
C886 C887 1.362 . S
C887 H877 0.930 . S
C887 C880 1.409 . S
C887 C886 1.362 . S
H888 C894 0.930 . S
H889 C897 0.930 . S
H890 C898 0.930 . S
H891 C899 0.930 . S
H892 C902 0.930 . S
H893 C903 0.930 . S
C894 H888 0.930 . S
C894 C895 1.355 . S
C894 C896 1.415 1_545 S
C895 C894 1.355 . S
C895 C897 1.419 . S
C896 C894 1.415 1_565 S
C896 C901 1.425 1_565 S
C896 C903 1.409 . S
C897 H889 0.930 . S
C897 C895 1.419 . S
C897 C898 1.362 . S
C898 H890 0.930 . S
C898 C897 1.362 . S
C898 C901 1.409 . S
C899 H891 0.930 . S
C899 C900 1.355 . S
C899 C901 1.415 1_565 S
C900 C899 1.355 . S
C900 C902 1.419 . S
C901 C896 1.425 1_545 S
C901 C898 1.409 . S
C901 C899 1.415 1_545 S
C902 H892 0.930 . S
C902 C900 1.419 . S
C902 C903 1.362 . S
C903 H893 0.930 . S
C903 C896 1.409 . S
C903 C902 1.362 . S
H904 C910 0.930 . S
H905 C913 0.930 . S
H906 C914 0.930 . S
H907 C915 0.930 . S
H908 C918 0.930 . S
H909 C919 0.930 . S
C910 H904 0.930 . S
C910 C911 1.355 . S
C910 C912 1.415 . S
C911 C910 1.355 . S
C911 C913 1.419 . S
C912 C910 1.415 . S
C912 C917 1.425 . S
C912 C919 1.409 . S
C913 H905 0.930 . S
C913 C911 1.419 . S
C913 C914 1.362 . S
C914 H906 0.930 . S
C914 C913 1.362 . S
C914 C917 1.409 . S
C915 H907 0.930 . S
C915 C916 1.355 . S
C915 C917 1.415 . S
C916 C915 1.355 . S
C916 C918 1.419 . S
C917 C912 1.425 . S
C917 C914 1.409 . S
C917 C915 1.415 . S
C918 H908 0.930 . S
C918 C916 1.419 . S
C918 C919 1.362 . S
C919 H909 0.930 . S
C919 C912 1.409 . S
C919 C918 1.362 . S
H920 C926 0.930 . S
H921 C929 0.930 . S
H922 C930 0.967 . S
H923 C931 0.930 . S
H924 C934 0.930 . S
H925 C935 0.967 . S
C926 H920 0.930 . S
C926 C927 1.355 . S
C926 C928 1.415 . S
C927 C926 1.355 . S
C927 C929 1.419 . S
C928 C926 1.415 . S
C928 C933 1.425 1_655 S
C928 C935 1.402 . S
C929 H921 0.930 . S
C929 C927 1.419 . S
C929 C930 1.336 1_655 S
C930 H922 0.967 . S
C930 C929 1.336 1_455 S
C930 C933 1.402 . S
C931 H923 0.930 . S
C931 C932 1.355 . S
C931 C933 1.415 . S
C932 C931 1.355 . S
C932 C934 1.419 . S
C933 C928 1.425 1_455 S
C933 C930 1.402 . S
C933 C931 1.415 . S
C934 H924 0.930 . S
C934 C932 1.419 . S
C934 C935 1.336 1_455 S
C935 H925 0.967 . S
C935 C928 1.402 . S
C935 C934 1.336 1_655 S
H936 C942 0.930 . S
H937 C945 0.930 . S
H938 C946 0.930 . S
H939 C947 0.930 . S
H940 C950 0.930 . S
H941 C951 0.930 . S
C942 H936 0.930 . S
C942 C943 1.355 . S
C942 C944 1.415 . S
C943 C942 1.355 . S
C943 C945 1.419 . S
C944 C942 1.415 . S
C944 C949 1.425 1_655 S
C944 C951 1.409 . S
C945 H937 0.930 . S
C945 C943 1.419 . S
C945 C946 1.362 1_655 S
C946 H938 0.930 . S
C946 C945 1.362 1_455 S
C946 C949 1.409 . S
C947 H939 0.930 . S
C947 C948 1.355 . S
C947 C949 1.415 . S
C948 C947 1.355 . S
C948 C950 1.419 . S
C949 C944 1.425 1_455 S
C949 C946 1.409 . S
C949 C947 1.415 . S
C950 H940 0.930 . S
C950 C948 1.419 . S
C950 C951 1.362 1_455 S
C951 H941 0.930 . S
C951 C944 1.409 . S
C951 C950 1.362 1_655 S
H952 C958 0.930 . S
H953 C961 0.930 . S
H954 C962 0.930 . S
H955 C963 0.930 . S
H956 C966 0.930 . S
H957 C967 0.930 . S
C958 H952 0.930 . S
C958 C959 1.355 . S
C958 C960 1.415 . S
C959 C958 1.355 . S
C959 C961 1.419 . S
C960 C958 1.415 . S
C960 C965 1.425 1_545 S
C960 C967 1.409 . S
C961 H953 0.930 . S
C961 C959 1.419 . S
C961 C962 1.362 1_545 S
C962 H954 0.930 . S
C962 C961 1.362 1_565 S
C962 C965 1.409 . S
C963 H955 0.930 . S
C963 C964 1.355 . S
C963 C965 1.415 . S
C964 C963 1.355 . S
C964 C966 1.419 . S
C965 C960 1.425 1_565 S
C965 C962 1.409 . S
C965 C963 1.415 . S
C966 H956 0.930 . S
C966 C964 1.419 . S
C966 C967 1.362 1_565 S
C967 H957 0.930 . S
C967 C960 1.409 . S
C967 C966 1.362 1_545 S
H968 C974 0.930 . S
H969 C977 0.930 . S
H970 C978 0.930 . S
H971 C979 0.930 . S
H972 C982 0.930 . S
H973 C983 0.930 . S
C974 H968 0.930 . S
C974 C975 1.355 . S
C974 C976 1.415 . S
C975 C974 1.355 . S
C975 C977 1.419 . S
C976 C974 1.415 . S
C976 C981 1.425 . S
C976 C983 1.409 . S
C977 H969 0.930 . S
C977 C975 1.419 . S
C977 C978 1.362 . S
C978 H970 0.930 . S
C978 C977 1.362 . S
C978 C981 1.409 . S
C979 H971 0.930 . S
C979 C980 1.355 . S
C979 C981 1.415 . S
C980 C979 1.355 . S
C980 C982 1.419 . S
C981 C976 1.425 . S
C981 C978 1.409 . S
C981 C979 1.415 . S
C982 H972 0.930 . S
C982 C980 1.419 . S
C982 C983 1.362 . S
C983 H973 0.930 . S
C983 C976 1.409 . S
C983 C982 1.362 . S
H984 C990 0.930 . S
H985 C993 0.930 . S
H986 C994 0.930 . S
H987 C995 0.930 . S
H988 C998 0.930 . S
H989 C999 0.930 . S
C990 H984 0.930 . S
C990 C991 1.355 . S
C990 C992 1.415 . S
C991 C990 1.355 . S
C991 C993 1.419 . S
C992 C990 1.415 . S
C992 C997 1.425 . S
C992 C999 1.409 . S
C993 H985 0.930 . S
C993 C991 1.419 . S
C993 C994 1.362 . S
C994 H986 0.930 . S
C994 C993 1.362 . S
C994 C997 1.409 . S
C995 H987 0.930 . S
C995 C996 1.355 . S
C995 C997 1.415 . S
C996 C995 1.355 . S
C996 C998 1.419 . S
C997 C992 1.425 . S
C997 C994 1.409 . S
C997 C995 1.415 . S
C998 H988 0.930 . S
C998 C996 1.419 . S
C998 C999 1.362 . S
C999 H989 0.930 . S
C999 C992 1.409 . S
C999 C998 1.362 . S
H1000 C1006 0.930 . S
H1001 C1009 0.930 . S
H1002 C1010 0.930 . S
H1003 C1011 0.930 . S
H1004 C1014 0.930 . S
H1005 C1015 0.930 . S
C1006 H1000 0.930 . S
C1006 C1007 1.355 . S
C1006 C1008 1.415 . S
C1007 C1006 1.355 . S
C1007 C1009 1.419 . S
C1008 C1006 1.415 . S
C1008 C1013 1.425 . S
C1008 C1015 1.409 . S
C1009 H1001 0.930 . S
C1009 C1007 1.419 . S
C1009 C1010 1.362 . S
C1010 H1002 0.930 . S
C1010 C1009 1.362 . S
C1010 C1013 1.409 . S
C1011 H1003 0.930 . S
C1011 C1012 1.355 . S
C1011 C1013 1.415 . S
C1012 C1011 1.355 . S
C1012 C1014 1.419 . S
C1013 C1008 1.425 . S
C1013 C1010 1.409 . S
C1013 C1011 1.415 . S
C1014 H1004 0.930 . S
C1014 C1012 1.419 . S
C1014 C1015 1.362 . S
C1015 H1005 0.930 . S
C1015 C1008 1.409 . S
C1015 C1014 1.362 . S
H1016 C1022 0.930 . S
H1017 C1025 0.930 . S
H1018 C1026 0.930 . S
H1019 C1027 0.930 . S
H1020 C1030 0.930 . S
H1021 C1031 0.930 . S
C1022 H1016 0.930 . S
C1022 C1023 1.355 . S
C1022 C1024 1.415 . S
C1023 C1022 1.355 . S
C1023 C1025 1.419 . S
C1024 C1022 1.415 . S
C1024 C1029 1.425 . S
C1024 C1031 1.409 . S
C1025 H1017 0.930 . S
C1025 C1023 1.419 . S
C1025 C1026 1.362 . S
C1026 H1018 0.930 . S
C1026 C1025 1.362 . S
C1026 C1029 1.409 . S
C1027 H1019 0.930 . S
C1027 C1028 1.355 . S
C1027 C1029 1.415 . S
C1028 C1027 1.355 . S
C1028 C1030 1.419 . S
C1029 C1024 1.425 . S
C1029 C1026 1.409 . S
C1029 C1027 1.415 . S
C1030 H1020 0.930 . S
C1030 C1028 1.419 . S
C1030 C1031 1.362 . S
C1031 H1021 0.930 . S
C1031 C1024 1.409 . S
C1031 C1030 1.362 . S
H1032 C1038 0.930 . S
H1033 C1041 0.930 . S
H1034 C1042 0.930 . S
H1035 C1043 0.930 . S
H1036 C1046 0.930 . S
H1037 C1047 0.930 . S
C1038 H1032 0.930 . S
C1038 C1039 1.355 . S
C1038 C1040 1.415 . S
C1039 C1038 1.355 . S
C1039 C1041 1.419 . S
C1040 C1038 1.415 . S
C1040 C1045 1.425 . S
C1040 C1047 1.409 . S
C1041 H1033 0.930 . S
C1041 C1039 1.419 . S
C1041 C1042 1.362 . S
C1042 H1034 0.930 . S
C1042 C1041 1.362 . S
C1042 C1045 1.409 . S
C1043 H1035 0.930 . S
C1043 C1044 1.355 . S
C1043 C1045 1.415 . S
C1044 C1043 1.355 . S
C1044 C1046 1.419 . S
C1045 C1040 1.425 . S
C1045 C1042 1.409 . S
C1045 C1043 1.415 . S
C1046 H1036 0.930 . S
C1046 C1044 1.419 . S
C1046 C1047 1.362 . S
C1047 H1037 0.930 . S
C1047 C1040 1.409 . S
C1047 C1046 1.362 . S
H1048 C1054 0.930 . S
H1049 C1057 0.930 . S
H1050 C1058 0.930 . S
H1051 C1059 0.930 . S
H1052 C1062 0.930 . S
H1053 C1063 0.930 . S
C1054 H1048 0.930 . S
C1054 C1055 1.355 . S
C1054 C1056 1.415 . S
C1055 C1054 1.355 . S
C1055 C1057 1.419 . S
C1056 C1054 1.415 . S
C1056 C1061 1.425 . S
C1056 C1063 1.409 . S
C1057 H1049 0.930 . S
C1057 C1055 1.419 . S
C1057 C1058 1.362 . S
C1058 H1050 0.930 . S
C1058 C1057 1.362 . S
C1058 C1061 1.409 . S
C1059 H1051 0.930 . S
C1059 C1060 1.355 . S
C1059 C1061 1.415 . S
C1060 C1059 1.355 . S
C1060 C1062 1.419 . S
C1061 C1056 1.425 . S
C1061 C1058 1.409 . S
C1061 C1059 1.415 . S
C1062 H1052 0.930 . S
C1062 C1060 1.419 . S
C1062 C1063 1.362 . S
C1063 H1053 0.930 . S
C1063 C1056 1.409 . S
C1063 C1062 1.362 . S
H1064 C1070 0.930 . S
H1065 C1073 0.930 . S
H1066 C1074 0.930 . S
H1067 C1075 0.930 . S
H1068 C1078 0.930 . S
H1069 C1079 0.930 . S
C1070 H1064 0.930 . S
C1070 C1071 1.355 . S
C1070 C1072 1.415 . S
C1071 C1070 1.355 . S
C1071 C1073 1.419 . S
C1072 C1070 1.415 . S
C1072 C1077 1.425 . S
C1072 C1079 1.409 . S
C1073 H1065 0.930 . S
C1073 C1071 1.419 . S
C1073 C1074 1.362 . S
C1074 H1066 0.930 . S
C1074 C1073 1.362 . S
C1074 C1077 1.409 . S
C1075 H1067 0.930 . S
C1075 C1076 1.355 . S
C1075 C1077 1.415 . S
C1076 C1075 1.355 . S
C1076 C1078 1.419 . S
C1077 C1072 1.425 . S
C1077 C1074 1.409 . S
C1077 C1075 1.415 . S
C1078 H1068 0.930 . S
C1078 C1076 1.419 . S
C1078 C1079 1.362 . S
C1079 H1069 0.930 . S
C1079 C1072 1.409 . S
C1079 C1078 1.362 . S
H1080 C1086 0.930 . S
H1081 C1089 0.930 . S
H1082 C1090 0.930 . S
H1083 C1091 0.930 . S
H1084 C1094 0.930 . S
H1085 C1095 0.930 . S
C1086 H1080 0.930 . S
C1086 C1087 1.355 . S
C1086 C1088 1.415 . S
C1087 C1086 1.355 . S
C1087 C1089 1.419 . S
C1088 C1086 1.415 . S
C1088 C1093 1.425 . S
C1088 C1095 1.409 . S
C1089 H1081 0.930 . S
C1089 C1087 1.419 . S
C1089 C1090 1.362 . S
C1090 H1082 0.930 . S
C1090 C1089 1.362 . S
C1090 C1093 1.409 . S
C1091 H1083 0.930 . S
C1091 C1092 1.355 . S
C1091 C1093 1.415 . S
C1092 C1091 1.355 . S
C1092 C1094 1.419 . S
C1093 C1088 1.425 . S
C1093 C1090 1.409 . S
C1093 C1091 1.415 . S
C1094 H1084 0.930 . S
C1094 C1092 1.419 . S
C1094 C1095 1.362 . S
C1095 H1085 0.930 . S
C1095 C1088 1.409 . S
C1095 C1094 1.362 . S
H1096 C1102 0.930 . S
H1097 C1105 0.930 . S
H1098 C1106 0.930 . S
H1099 C1107 0.930 . S
H1100 C1110 0.930 . S
H1101 C1111 0.930 . S
C1102 H1096 0.930 . S
C1102 C1103 1.355 . S
C1102 C1104 1.415 . S
C1103 C1102 1.355 . S
C1103 C1105 1.419 . S
C1104 C1102 1.415 . S
C1104 C1109 1.425 . S
C1104 C1111 1.409 . S
C1105 H1097 0.930 . S
C1105 C1103 1.419 . S
C1105 C1106 1.362 . S
C1106 H1098 0.930 . S
C1106 C1105 1.362 . S
C1106 C1109 1.409 . S
C1107 H1099 0.930 . S
C1107 C1108 1.355 . S
C1107 C1109 1.415 . S
C1108 C1107 1.355 . S
C1108 C1110 1.419 . S
C1109 C1104 1.425 . S
C1109 C1106 1.409 . S
C1109 C1107 1.415 . S
C1110 H1100 0.930 . S
C1110 C1108 1.419 . S
C1110 C1111 1.362 . S
C1111 H1101 0.930 . S
C1111 C1104 1.409 . S
C1111 C1110 1.362 . S
H1112 C1118 0.930 . S
H1113 C1121 0.930 . S
H1114 C1122 0.930 . S
H1115 C1123 0.930 . S
H1116 C1126 0.930 . S
H1117 C1127 0.930 . S
C1118 H1112 0.930 . S
C1118 C1119 1.355 . S
C1118 C1120 1.415 . S
C1119 C1118 1.355 . S
C1119 C1121 1.419 . S
C1120 C1118 1.415 . S
C1120 C1125 1.425 . S
C1120 C1127 1.409 . S
C1121 H1113 0.930 . S
C1121 C1119 1.419 . S
C1121 C1122 1.362 . S
C1122 H1114 0.930 . S
C1122 C1121 1.362 . S
C1122 C1125 1.409 . S
C1123 H1115 0.930 . S
C1123 C1124 1.355 . S
C1123 C1125 1.415 . S
C1124 C1123 1.355 . S
C1124 C1126 1.419 . S
C1125 C1120 1.425 . S
C1125 C1122 1.409 . S
C1125 C1123 1.415 . S
C1126 H1116 0.930 . S
C1126 C1124 1.419 . S
C1126 C1127 1.362 . S
C1127 H1117 0.930 . S
C1127 C1120 1.409 . S
C1127 C1126 1.362 . S
H1128 C1134 0.930 . S
H1129 C1137 0.930 . S
H1130 C1138 0.930 . S
H1131 C1139 0.930 . S
H1132 C1142 0.930 . S
H1133 C1143 0.930 . S
C1134 H1128 0.930 . S
C1134 C1135 1.355 . S
C1134 C1136 1.415 . S
C1135 C1134 1.355 . S
C1135 C1137 1.419 . S
C1136 C1134 1.415 . S
C1136 C1141 1.425 . S
C1136 C1143 1.409 . S
C1137 H1129 0.930 . S
C1137 C1135 1.419 . S
C1137 C1138 1.362 . S
C1138 H1130 0.930 . S
C1138 C1137 1.362 . S
C1138 C1141 1.409 . S
C1139 H1131 0.930 . S
C1139 C1140 1.355 . S
C1139 C1141 1.415 . S
C1140 C1139 1.355 . S
C1140 C1142 1.419 . S
C1141 C1136 1.425 . S
C1141 C1138 1.409 . S
C1141 C1139 1.415 . S
C1142 H1132 0.930 . S
C1142 C1140 1.419 . S
C1142 C1143 1.362 . S
C1143 H1133 0.930 . S
C1143 C1136 1.409 . S
C1143 C1142 1.362 . S
H1144 C1150 0.930 . S
H1145 C1153 0.930 . S
H1146 C1154 0.930 . S
H1147 C1155 0.930 . S
H1148 C1158 0.930 . S
H1149 C1159 0.930 . S
C1150 H1144 0.930 . S
C1150 C1151 1.355 . S
C1150 C1152 1.415 . S
C1151 C1150 1.355 . S
C1151 C1153 1.419 . S
C1152 C1150 1.415 . S
C1152 C1157 1.425 . S
C1152 C1159 1.409 . S
C1153 H1145 0.930 . S
C1153 C1151 1.419 . S
C1153 C1154 1.362 . S
C1154 H1146 0.930 . S
C1154 C1153 1.362 . S
C1154 C1157 1.409 . S
C1155 H1147 0.930 . S
C1155 C1156 1.355 . S
C1155 C1157 1.415 . S
C1156 C1155 1.355 . S
C1156 C1158 1.419 . S
C1157 C1152 1.425 . S
C1157 C1154 1.409 . S
C1157 C1155 1.415 . S
C1158 H1148 0.930 . S
C1158 C1156 1.419 . S
C1158 C1159 1.362 . S
C1159 H1149 0.930 . S
C1159 C1152 1.409 . S
C1159 C1158 1.362 . S
H1160 C1166 0.930 . S
H1161 C1169 0.930 . S
H1162 C1170 0.930 . S
H1163 C1171 0.930 . S
H1164 C1174 0.930 . S
H1165 C1175 0.930 . S
C1166 H1160 0.930 . S
C1166 C1167 1.355 . S
C1166 C1168 1.415 . S
C1167 C1166 1.355 . S
C1167 C1169 1.419 . S
C1168 C1166 1.415 . S
C1168 C1173 1.425 . S
C1168 C1175 1.409 . S
C1169 H1161 0.930 . S
C1169 C1167 1.419 . S
C1169 C1170 1.362 . S
C1170 H1162 0.930 . S
C1170 C1169 1.362 . S
C1170 C1173 1.409 . S
C1171 H1163 0.930 . S
C1171 C1172 1.355 . S
C1171 C1173 1.415 . S
C1172 C1171 1.355 . S
C1172 C1174 1.419 . S
C1173 C1168 1.425 . S
C1173 C1170 1.409 . S
C1173 C1171 1.415 . S
C1174 H1164 0.930 . S
C1174 C1172 1.419 . S
C1174 C1175 1.362 . S
C1175 H1165 0.930 . S
C1175 C1168 1.409 . S
C1175 C1174 1.362 . S
H1176 C1182 0.930 . S
H1177 C1185 0.930 . S
H1178 C1186 0.930 . S
H1179 C1187 0.930 . S
H1180 C1190 0.930 . S
H1181 C1191 0.930 . S
C1182 H1176 0.930 . S
C1182 C1183 1.355 . S
C1182 C1184 1.415 1_545 S
C1183 C1182 1.355 . S
C1183 C1185 1.419 . S
C1184 C1182 1.415 1_565 S
C1184 C1189 1.425 1_565 S
C1184 C1191 1.409 . S
C1185 H1177 0.930 . S
C1185 C1183 1.419 . S
C1185 C1186 1.362 . S
C1186 H1178 0.930 . S
C1186 C1185 1.362 . S
C1186 C1189 1.409 . S
C1187 H1179 0.930 . S
C1187 C1188 1.355 . S
C1187 C1189 1.415 1_565 S
C1188 C1187 1.355 . S
C1188 C1190 1.419 . S
C1189 C1184 1.425 1_545 S
C1189 C1186 1.409 . S
C1189 C1187 1.415 1_545 S
C1190 H1180 0.930 . S
C1190 C1188 1.419 . S
C1190 C1191 1.362 . S
C1191 H1181 0.930 . S
C1191 C1184 1.409 . S
C1191 C1190 1.362 . S
H1192 C1198 0.930 . S
H1193 C1201 0.930 . S
H1194 C1202 0.930 . S
H1195 C1203 0.930 . S
H1196 C1206 0.930 . S
H1197 C1207 0.930 . S
C1198 H1192 0.930 . S
C1198 C1199 1.355 . S
C1198 C1200 1.415 . S
C1199 C1198 1.355 . S
C1199 C1201 1.419 . S
C1200 C1198 1.415 . S
C1200 C1205 1.425 . S
C1200 C1207 1.409 . S
C1201 H1193 0.930 . S
C1201 C1199 1.419 . S
C1201 C1202 1.362 . S
C1202 H1194 0.930 . S
C1202 C1201 1.362 . S
C1202 C1205 1.409 . S
C1203 H1195 0.930 . S
C1203 C1204 1.355 . S
C1203 C1205 1.415 . S
C1204 C1203 1.355 . S
C1204 C1206 1.419 . S
C1205 C1200 1.425 . S
C1205 C1202 1.409 . S
C1205 C1203 1.415 . S
C1206 H1196 0.930 . S
C1206 C1204 1.419 . S
C1206 C1207 1.362 . S
C1207 H1197 0.930 . S
C1207 C1200 1.409 . S
C1207 C1206 1.362 . S
H1208 C1214 0.930 . S
H1209 C1217 0.930 . S
H1210 C1218 0.930 . S
H1211 C1219 0.930 . S
H1212 C1222 0.930 . S
H1213 C1223 0.930 . S
C1214 H1208 0.930 . S
C1214 C1215 1.355 . S
C1214 C1216 1.415 . S
C1215 C1214 1.355 . S
C1215 C1217 1.419 . S
C1216 C1214 1.415 . S
C1216 C1221 1.425 1_455 S
C1216 C1223 1.409 . S
C1217 H1209 0.930 . S
C1217 C1215 1.419 . S
C1217 C1218 1.362 1_455 S
C1218 H1210 0.930 . S
C1218 C1217 1.362 1_655 S
C1218 C1221 1.409 . S
C1219 H1211 0.930 . S
C1219 C1220 1.355 . S
C1219 C1221 1.415 . S
C1220 C1219 1.355 . S
C1220 C1222 1.419 . S
C1221 C1216 1.425 1_655 S
C1221 C1218 1.409 . S
C1221 C1219 1.415 . S
C1222 H1212 0.930 . S
C1222 C1220 1.419 . S
C1222 C1223 1.362 1_655 S
C1223 H1213 0.930 . S
C1223 C1216 1.409 . S
C1223 C1222 1.362 1_455 S
H1224 C1230 0.930 . S
H1225 C1233 0.930 . S
H1226 C1234 0.930 . S
H1227 C1235 0.930 . S
H1228 C1238 0.930 . S
H1229 C1239 0.930 . S
C1230 H1224 0.930 . S
C1230 C1231 1.355 . S
C1230 C1232 1.415 1_565 S
C1231 C1230 1.355 . S
C1231 C1233 1.419 . S
C1232 C1230 1.415 1_545 S
C1232 C1237 1.425 1_545 S
C1232 C1239 1.409 . S
C1233 H1225 0.930 . S
C1233 C1231 1.419 . S
C1233 C1234 1.362 . S
C1234 H1226 0.930 . S
C1234 C1233 1.362 . S
C1234 C1237 1.409 . S
C1235 H1227 0.930 . S
C1235 C1236 1.355 . S
C1235 C1237 1.415 1_545 S
C1236 C1235 1.355 . S
C1236 C1238 1.419 . S
C1237 C1232 1.425 1_565 S
C1237 C1234 1.409 . S
C1237 C1235 1.415 1_565 S
C1238 H1228 0.930 . S
C1238 C1236 1.419 . S
C1238 C1239 1.362 . S
C1239 H1229 0.930 . S
C1239 C1232 1.409 . S
C1239 C1238 1.362 . S
H1240 C1246 0.930 . S
H1241 C1249 0.930 . S
H1242 C1250 0.930 . S
H1243 C1251 0.930 . S
H1244 C1254 0.930 . S
H1245 C1255 0.930 . S
C1246 H1240 0.930 . S
C1246 C1247 1.355 . S
C1246 C1248 1.415 . S
C1247 C1246 1.355 . S
C1247 C1249 1.419 . S
C1248 C1246 1.415 . S
C1248 C1253 1.425 . S
C1248 C1255 1.409 . S
C1249 H1241 0.930 . S
C1249 C1247 1.419 . S
C1249 C1250 1.362 . S
C1250 H1242 0.930 . S
C1250 C1249 1.362 . S
C1250 C1253 1.409 . S
C1251 H1243 0.930 . S
C1251 C1252 1.355 . S
C1251 C1253 1.415 . S
C1252 C1251 1.355 . S
C1252 C1254 1.419 . S
C1253 C1248 1.425 . S
C1253 C1250 1.409 . S
C1253 C1251 1.415 . S
C1254 H1244 0.930 . S
C1254 C1252 1.419 . S
C1254 C1255 1.362 . S
C1255 H1245 0.930 . S
C1255 C1248 1.409 . S
C1255 C1254 1.362 . S
H1256 C1262 0.930 . S
H1257 C1265 0.930 . S
H1258 C1266 0.930 . S
H1259 C1267 0.930 . S
H1260 C1270 0.930 . S
H1261 C1271 0.930 . S
C1262 H1256 0.930 . S
C1262 C1263 1.355 . S
C1262 C1264 1.415 . S
C1263 C1262 1.355 . S
C1263 C1265 1.419 . S
C1264 C1262 1.415 . S
C1264 C1269 1.425 1_655 S
C1264 C1271 1.409 1_655 S
C1265 H1257 0.930 . S
C1265 C1263 1.419 . S
C1265 C1266 1.362 . S
C1266 H1258 0.930 . S
C1266 C1265 1.362 . S
C1266 C1269 1.409 1_655 S
C1267 H1259 0.930 . S
C1267 C1268 1.355 . S
C1267 C1269 1.415 . S
C1268 C1267 1.355 . S
C1268 C1270 1.419 . S
C1269 C1264 1.425 1_455 S
C1269 C1266 1.409 1_455 S
C1269 C1267 1.415 . S
C1270 H1260 0.930 . S
C1270 C1268 1.419 . S
C1270 C1271 1.362 . S
C1271 H1261 0.930 . S
C1271 C1264 1.409 1_455 S
C1271 C1270 1.362 . S
H1272 C1278 0.930 . S
H1273 C1281 0.930 . S
H1274 C1282 0.930 . S
H1275 C1283 0.930 . S
H1276 C1286 0.930 . S
H1277 C1287 0.930 . S
C1278 H1272 0.930 . S
C1278 C1279 1.355 . S
C1278 C1280 1.417 1_565 S
C1279 C1278 1.355 . S
C1279 C1281 1.419 . S
C1280 C1278 1.417 1_545 S
C1280 C1285 1.429 1_545 S
C1280 C1287 1.405 . S
C1281 H1273 0.930 . S
C1281 C1279 1.419 . S
C1281 C1282 1.362 . S
C1282 H1274 0.930 . S
C1282 C1281 1.362 . S
C1282 C1285 1.405 . S
C1283 H1275 0.930 . S
C1283 C1284 1.355 . S
C1283 C1285 1.417 1_545 S
C1284 C1283 1.355 . S
C1284 C1286 1.419 . S
C1285 C1280 1.429 1_565 S
C1285 C1282 1.405 . S
C1285 C1283 1.417 1_565 S
C1286 H1276 0.930 . S
C1286 C1284 1.419 . S
C1286 C1287 1.362 . S
C1287 H1277 0.930 . S
C1287 C1280 1.405 . S
C1287 C1286 1.362 . S
H1288 C1294 0.930 . S
H1289 C1297 0.930 . S
H1290 C1298 0.930 . S
H1291 C1299 0.930 . S
H1292 C1302 0.930 . S
H1293 C1303 0.930 . S
C1294 H1288 0.930 . S
C1294 C1295 1.355 . S
C1294 C1296 1.415 . S
C1295 C1294 1.355 . S
C1295 C1297 1.419 . S
C1296 C1294 1.415 . S
C1296 C1301 1.425 . S
C1296 C1303 1.409 . S
C1297 H1289 0.930 . S
C1297 C1295 1.419 . S
C1297 C1298 1.362 . S
C1298 H1290 0.930 . S
C1298 C1297 1.362 . S
C1298 C1301 1.409 . S
C1299 H1291 0.930 . S
C1299 C1300 1.355 . S
C1299 C1301 1.415 . S
C1300 C1299 1.355 . S
C1300 C1302 1.419 . S
C1301 C1296 1.425 . S
C1301 C1298 1.409 . S
C1301 C1299 1.415 . S
C1302 H1292 0.930 . S
C1302 C1300 1.419 . S
C1302 C1303 1.362 . S
C1303 H1293 0.930 . S
C1303 C1296 1.409 . S
C1303 C1302 1.362 . S
H1304 C1310 0.930 . S
H1305 C1313 0.930 . S
H1306 C1314 0.930 . S
H1307 C1315 0.930 . S
H1308 C1318 0.930 . S
H1309 C1319 0.930 . S
C1310 H1304 0.930 . S
C1310 C1311 1.355 . S
C1310 C1312 1.415 . S
C1311 C1310 1.355 . S
C1311 C1313 1.419 . S
C1312 C1310 1.415 . S
C1312 C1317 1.425 1_455 S
C1312 C1319 1.409 . S
C1313 H1305 0.930 . S
C1313 C1311 1.419 . S
C1313 C1314 1.362 1_455 S
C1314 H1306 0.930 . S
C1314 C1313 1.362 1_655 S
C1314 C1317 1.409 . S
C1315 H1307 0.930 . S
C1315 C1316 1.355 . S
C1315 C1317 1.415 . S
C1316 C1315 1.355 . S
C1316 C1318 1.419 . S
C1317 C1312 1.425 1_655 S
C1317 C1314 1.409 . S
C1317 C1315 1.415 . S
C1318 H1308 0.930 . S
C1318 C1316 1.419 . S
C1318 C1319 1.362 1_655 S
C1319 H1309 0.930 . S
C1319 C1312 1.409 . S
C1319 C1318 1.362 1_455 S
H1320 C1326 0.930 . S
H1321 C1329 0.930 . S
H1322 C1330 0.930 . S
H1323 C1331 0.930 . S
H1324 C1334 0.930 . S
H1325 C1335 0.930 . S
C1326 H1320 0.930 . S
C1326 C1327 1.355 . S
C1326 C1328 1.414 1_545 S
C1327 C1326 1.355 . S
C1327 C1329 1.419 . S
C1328 C1326 1.414 1_565 S
C1328 C1333 1.425 1_565 S
C1328 C1335 1.410 . S
C1329 H1321 0.930 . S
C1329 C1327 1.419 . S
C1329 C1330 1.362 . S
C1330 H1322 0.930 . S
C1330 C1329 1.362 . S
C1330 C1333 1.410 . S
C1331 H1323 0.930 . S
C1331 C1332 1.355 . S
C1331 C1333 1.414 1_565 S
C1332 C1331 1.355 . S
C1332 C1334 1.419 . S
C1333 C1328 1.425 1_545 S
C1333 C1330 1.410 . S
C1333 C1331 1.414 1_545 S
C1334 H1324 0.930 . S
C1334 C1332 1.419 . S
C1334 C1335 1.362 . S
C1335 H1325 0.930 . S
C1335 C1328 1.410 . S
C1335 C1334 1.362 . S
H1336 C1342 0.930 . S
H1337 C1345 0.930 . S
H1338 C1346 0.930 . S
H1339 C1347 0.930 . S
H1340 C1350 0.930 . S
H1341 C1351 0.930 . S
C1342 H1336 0.930 . S
C1342 C1343 1.355 . S
C1342 C1344 1.415 . S
C1343 C1342 1.355 . S
C1343 C1345 1.419 . S
C1344 C1342 1.415 . S
C1344 C1349 1.425 . S
C1344 C1351 1.409 . S
C1345 H1337 0.930 . S
C1345 C1343 1.419 . S
C1345 C1346 1.362 . S
C1346 H1338 0.930 . S
C1346 C1345 1.362 . S
C1346 C1349 1.409 . S
C1347 H1339 0.930 . S
C1347 C1348 1.355 . S
C1347 C1349 1.415 . S
C1348 C1347 1.355 . S
C1348 C1350 1.419 . S
C1349 C1344 1.425 . S
C1349 C1346 1.409 . S
C1349 C1347 1.415 . S
C1350 H1340 0.930 . S
C1350 C1348 1.419 . S
C1350 C1351 1.362 . S
C1351 H1341 0.930 . S
C1351 C1344 1.409 . S
C1351 C1350 1.362 . S
H1352 C1358 0.930 . S
H1353 C1361 0.930 . S
H1354 C1362 0.930 . S
H1355 C1363 0.930 . S
H1356 C1366 0.930 . S
H1357 C1367 0.930 . S
C1358 H1352 0.930 . S
C1358 C1359 1.355 . S
C1358 C1360 1.411 1_455 S
C1359 C1358 1.355 . S
C1359 C1361 1.419 . S
C1360 C1358 1.411 1_655 S
C1360 C1365 1.430 1_655 S
C1360 C1367 1.411 . S
C1361 H1353 0.930 . S
C1361 C1359 1.419 . S
C1361 C1362 1.362 . S
C1362 H1354 0.930 . S
C1362 C1361 1.362 . S
C1362 C1365 1.411 . S
C1363 H1355 0.930 . S
C1363 C1364 1.355 . S
C1363 C1365 1.411 1_655 S
C1364 C1363 1.355 . S
C1364 C1366 1.419 . S
C1365 C1360 1.430 1_455 S
C1365 C1362 1.411 . S
C1365 C1363 1.411 1_455 S
C1366 H1356 0.930 . S
C1366 C1364 1.419 . S
C1366 C1367 1.362 . S
C1367 H1357 0.930 . S
C1367 C1360 1.411 . S
C1367 C1366 1.362 . S
H1368 C1374 0.930 . S
H1369 C1377 0.930 . S
H1370 C1378 0.930 . S
H1371 C1379 0.930 . S
H1372 C1382 0.930 . S
H1373 C1383 0.930 . S
C1374 H1368 0.930 . S
C1374 C1375 1.355 . S
C1374 C1376 1.415 . S
C1375 C1374 1.355 . S
C1375 C1377 1.419 . S
C1376 C1374 1.415 . S
C1376 C1381 1.425 . S
C1376 C1383 1.409 . S
C1377 H1369 0.930 . S
C1377 C1375 1.419 . S
C1377 C1378 1.362 . S
C1378 H1370 0.930 . S
C1378 C1377 1.362 . S
C1378 C1381 1.409 . S
C1379 H1371 0.930 . S
C1379 C1380 1.355 . S
C1379 C1381 1.415 . S
C1380 C1379 1.355 . S
C1380 C1382 1.419 . S
C1381 C1376 1.425 . S
C1381 C1378 1.409 . S
C1381 C1379 1.415 . S
C1382 H1372 0.930 . S
C1382 C1380 1.419 . S
C1382 C1383 1.362 . S
C1383 H1373 0.930 . S
C1383 C1376 1.409 . S
C1383 C1382 1.362 . S
H1384 C1390 0.930 . S
H1385 C1393 0.930 . S
H1386 C1394 0.930 . S
H1387 C1395 0.930 . S
H1388 C1398 0.930 . S
H1389 C1399 0.930 . S
C1390 H1384 0.930 . S
C1390 C1391 1.355 . S
C1390 C1392 1.415 . S
C1391 C1390 1.355 . S
C1391 C1393 1.419 . S
C1392 C1390 1.415 . S
C1392 C1397 1.425 . S
C1392 C1399 1.409 . S
C1393 H1385 0.930 . S
C1393 C1391 1.419 . S
C1393 C1394 1.362 . S
C1394 H1386 0.930 . S
C1394 C1393 1.362 . S
C1394 C1397 1.409 . S
C1395 H1387 0.930 . S
C1395 C1396 1.355 . S
C1395 C1397 1.415 . S
C1396 C1395 1.355 . S
C1396 C1398 1.419 . S
C1397 C1392 1.425 . S
C1397 C1394 1.409 . S
C1397 C1395 1.415 . S
C1398 H1388 0.930 . S
C1398 C1396 1.419 . S
C1398 C1399 1.362 . S
C1399 H1389 0.930 . S
C1399 C1392 1.409 . S
C1399 C1398 1.362 . S
H1400 C1406 0.930 . S
H1401 C1409 0.930 . S
H1402 C1410 0.930 . S
H1403 C1411 0.930 . S
H1404 C1414 0.930 . S
H1405 C1415 0.930 . S
C1406 H1400 0.930 . S
C1406 C1407 1.355 . S
C1406 C1408 1.415 . S
C1407 C1406 1.355 . S
C1407 C1409 1.419 . S
C1408 C1406 1.415 . S
C1408 C1413 1.425 . S
C1408 C1415 1.409 . S
C1409 H1401 0.930 . S
C1409 C1407 1.419 . S
C1409 C1410 1.362 . S
C1410 H1402 0.930 . S
C1410 C1409 1.362 . S
C1410 C1413 1.409 . S
C1411 H1403 0.930 . S
C1411 C1412 1.355 . S
C1411 C1413 1.415 . S
C1412 C1411 1.355 . S
C1412 C1414 1.419 . S
C1413 C1408 1.425 . S
C1413 C1410 1.409 . S
C1413 C1411 1.415 . S
C1414 H1404 0.930 . S
C1414 C1412 1.419 . S
C1414 C1415 1.362 . S
C1415 H1405 0.930 . S
C1415 C1408 1.409 . S
C1415 C1414 1.362 . S
H1416 C1422 0.930 . S
H1417 C1425 0.930 . S
H1418 C1426 0.930 . S
H1419 C1427 0.930 . S
H1420 C1430 0.930 . S
H1421 C1431 0.930 . S
C1422 H1416 0.930 . S
C1422 C1423 1.355 . S
C1422 C1424 1.415 . S
C1423 C1422 1.355 . S
C1423 C1425 1.419 . S
C1424 C1422 1.415 . S
C1424 C1429 1.425 . S
C1424 C1431 1.409 . S
C1425 H1417 0.930 . S
C1425 C1423 1.419 . S
C1425 C1426 1.362 . S
C1426 H1418 0.930 . S
C1426 C1425 1.362 . S
C1426 C1429 1.409 . S
C1427 H1419 0.930 . S
C1427 C1428 1.355 . S
C1427 C1429 1.415 . S
C1428 C1427 1.355 . S
C1428 C1430 1.419 . S
C1429 C1424 1.425 . S
C1429 C1426 1.409 . S
C1429 C1427 1.415 . S
C1430 H1420 0.930 . S
C1430 C1428 1.419 . S
C1430 C1431 1.362 . S
C1431 H1421 0.930 . S
C1431 C1424 1.409 . S
C1431 C1430 1.362 . S
H1432 C1438 0.930 . S
H1433 C1441 0.930 . S
H1434 C1442 0.930 . S
H1435 C1443 0.930 . S
H1436 C1446 0.930 . S
H1437 C1447 0.930 . S
C1438 H1432 0.930 . S
C1438 C1439 1.355 . S
C1438 C1440 1.415 . S
C1439 C1438 1.355 . S
C1439 C1441 1.419 . S
C1440 C1438 1.415 . S
C1440 C1445 1.425 . S
C1440 C1447 1.409 . S
C1441 H1433 0.930 . S
C1441 C1439 1.419 . S
C1441 C1442 1.362 . S
C1442 H1434 0.930 . S
C1442 C1441 1.362 . S
C1442 C1445 1.409 . S
C1443 H1435 0.930 . S
C1443 C1444 1.355 . S
C1443 C1445 1.415 . S
C1444 C1443 1.355 . S
C1444 C1446 1.419 . S
C1445 C1440 1.425 . S
C1445 C1442 1.409 . S
C1445 C1443 1.415 . S
C1446 H1436 0.930 . S
C1446 C1444 1.419 . S
C1446 C1447 1.362 . S
C1447 H1437 0.930 . S
C1447 C1440 1.409 . S
C1447 C1446 1.362 . S
H1448 C1454 0.930 . S
H1449 C1457 0.930 . S
H1450 C1458 0.930 . S
H1451 C1459 0.930 . S
H1452 C1462 0.930 . S
H1453 C1463 0.930 . S
C1454 H1448 0.930 . S
C1454 C1455 1.355 . S
C1454 C1456 1.415 . S
C1455 C1454 1.355 . S
C1455 C1457 1.419 . S
C1456 C1454 1.415 . S
C1456 C1461 1.425 . S
C1456 C1463 1.409 . S
C1457 H1449 0.930 . S
C1457 C1455 1.419 . S
C1457 C1458 1.362 . S
C1458 H1450 0.930 . S
C1458 C1457 1.362 . S
C1458 C1461 1.409 . S
C1459 H1451 0.930 . S
C1459 C1460 1.355 . S
C1459 C1461 1.415 . S
C1460 C1459 1.355 . S
C1460 C1462 1.419 . S
C1461 C1456 1.425 . S
C1461 C1458 1.409 . S
C1461 C1459 1.415 . S
C1462 H1452 0.930 . S
C1462 C1460 1.419 . S
C1462 C1463 1.362 . S
C1463 H1453 0.930 . S
C1463 C1456 1.409 . S
C1463 C1462 1.362 . S
H1464 C1470 0.930 . S
H1465 C1473 0.930 . S
H1466 C1474 0.930 . S
H1467 C1475 0.930 . S
H1468 C1478 0.930 . S
H1469 C1479 0.930 . S
C1470 H1464 0.930 . S
C1470 C1471 1.355 . S
C1470 C1472 1.415 . S
C1471 C1470 1.355 . S
C1471 C1473 1.419 . S
C1472 C1470 1.415 . S
C1472 C1477 1.425 . S
C1472 C1479 1.409 . S
C1473 H1465 0.930 . S
C1473 C1471 1.419 . S
C1473 C1474 1.362 . S
C1474 H1466 0.930 . S
C1474 C1473 1.362 . S
C1474 C1477 1.409 . S
C1475 H1467 0.930 . S
C1475 C1476 1.355 . S
C1475 C1477 1.415 . S
C1476 C1475 1.355 . S
C1476 C1478 1.419 . S
C1477 C1472 1.425 . S
C1477 C1474 1.409 . S
C1477 C1475 1.415 . S
C1478 H1468 0.930 . S
C1478 C1476 1.419 . S
C1478 C1479 1.362 . S
C1479 H1469 0.930 . S
C1479 C1472 1.409 . S
C1479 C1478 1.362 . S
H1480 C1486 0.930 . S
H1481 C1489 0.930 . S
H1482 C1490 0.930 . S
H1483 C1491 0.930 . S
H1484 C1494 0.930 . S
H1485 C1495 0.930 . S
C1486 H1480 0.930 . S
C1486 C1487 1.355 . S
C1486 C1488 1.415 . S
C1487 C1486 1.355 . S
C1487 C1489 1.419 . S
C1488 C1486 1.415 . S
C1488 C1493 1.425 . S
C1488 C1495 1.409 . S
C1489 H1481 0.930 . S
C1489 C1487 1.419 . S
C1489 C1490 1.362 . S
C1490 H1482 0.930 . S
C1490 C1489 1.362 . S
C1490 C1493 1.409 . S
C1491 H1483 0.930 . S
C1491 C1492 1.355 . S
C1491 C1493 1.415 . S
C1492 C1491 1.355 . S
C1492 C1494 1.419 . S
C1493 C1488 1.425 . S
C1493 C1490 1.409 . S
C1493 C1491 1.415 . S
C1494 H1484 0.930 . S
C1494 C1492 1.419 . S
C1494 C1495 1.362 . S
C1495 H1485 0.930 . S
C1495 C1488 1.409 . S
C1495 C1494 1.362 . S
H1496 C1502 0.930 . S
H1497 C1505 0.930 . S
H1498 C1506 0.930 . S
H1499 C1507 0.930 . S
H1500 C1510 0.930 . S
H1501 C1511 0.930 . S
C1502 H1496 0.930 . S
C1502 C1503 1.355 . S
C1502 C1504 1.415 . S
C1503 C1502 1.355 . S
C1503 C1505 1.419 . S
C1504 C1502 1.415 . S
C1504 C1509 1.425 . S
C1504 C1511 1.409 . S
C1505 H1497 0.930 . S
C1505 C1503 1.419 . S
C1505 C1506 1.362 . S
C1506 H1498 0.930 . S
C1506 C1505 1.362 . S
C1506 C1509 1.409 . S
C1507 H1499 0.930 . S
C1507 C1508 1.355 . S
C1507 C1509 1.415 . S
C1508 C1507 1.355 . S
C1508 C1510 1.419 . S
C1509 C1504 1.425 . S
C1509 C1506 1.409 . S
C1509 C1507 1.415 . S
C1510 H1500 0.930 . S
C1510 C1508 1.419 . S
C1510 C1511 1.362 . S
C1511 H1501 0.930 . S
C1511 C1504 1.409 . S
C1511 C1510 1.362 . S
H1512 C1518 0.930 . S
H1513 C1521 0.930 . S
H1514 C1522 0.930 . S
H1515 C1523 0.930 . S
H1516 C1526 0.930 . S
H1517 C1527 0.930 . S
C1518 H1512 0.930 . S
C1518 C1519 1.355 . S
C1518 C1520 1.415 . S
C1519 C1518 1.355 . S
C1519 C1521 1.419 . S
C1520 C1518 1.415 . S
C1520 C1525 1.425 . S
C1520 C1527 1.409 . S
C1521 H1513 0.930 . S
C1521 C1519 1.419 . S
C1521 C1522 1.362 . S
C1522 H1514 0.930 . S
C1522 C1521 1.362 . S
C1522 C1525 1.409 . S
C1523 H1515 0.930 . S
C1523 C1524 1.355 . S
C1523 C1525 1.415 . S
C1524 C1523 1.355 . S
C1524 C1526 1.419 . S
C1525 C1520 1.425 . S
C1525 C1522 1.409 . S
C1525 C1523 1.415 . S
C1526 H1516 0.930 . S
C1526 C1524 1.419 . S
C1526 C1527 1.362 . S
C1527 H1517 0.930 . S
C1527 C1520 1.409 . S
C1527 C1526 1.362 . S
H1528 C1534 0.930 . S
H1529 C1537 0.930 . S
H1530 C1538 0.930 . S
H1531 C1539 0.930 . S
H1532 C1542 0.930 . S
H1533 C1543 0.930 . S
C1534 H1528 0.930 . S
C1534 C1535 1.355 . S
C1534 C1536 1.415 . S
C1535 C1534 1.355 . S
C1535 C1537 1.419 . S
C1536 C1534 1.415 . S
C1536 C1541 1.425 . S
C1536 C1543 1.409 . S
C1537 H1529 0.930 . S
C1537 C1535 1.419 . S
C1537 C1538 1.362 . S
C1538 H1530 0.930 . S
C1538 C1537 1.362 . S
C1538 C1541 1.409 . S
C1539 H1531 0.930 . S
C1539 C1540 1.355 . S
C1539 C1541 1.415 . S
C1540 C1539 1.355 . S
C1540 C1542 1.419 . S
C1541 C1536 1.425 . S
C1541 C1538 1.409 . S
C1541 C1539 1.415 . S
C1542 H1532 0.930 . S
C1542 C1540 1.419 . S
C1542 C1543 1.362 . S
C1543 H1533 0.930 . S
C1543 C1536 1.409 . S
C1543 C1542 1.362 . S
H1544 C1550 0.930 . S
H1545 C1553 0.930 . S
H1546 C1554 0.930 . S
H1547 C1555 0.930 . S
H1548 C1558 0.930 . S
H1549 C1559 0.930 . S
C1550 H1544 0.930 . S
C1550 C1551 1.355 . S
C1550 C1552 1.415 . S
C1551 C1550 1.355 . S
C1551 C1553 1.419 . S
C1552 C1550 1.415 . S
C1552 C1557 1.425 . S
C1552 C1559 1.409 . S
C1553 H1545 0.930 . S
C1553 C1551 1.419 . S
C1553 C1554 1.362 . S
C1554 H1546 0.930 . S
C1554 C1553 1.362 . S
C1554 C1557 1.409 . S
C1555 H1547 0.930 . S
C1555 C1556 1.355 . S
C1555 C1557 1.415 . S
C1556 C1555 1.355 . S
C1556 C1558 1.419 . S
C1557 C1552 1.425 . S
C1557 C1554 1.409 . S
C1557 C1555 1.415 . S
C1558 H1548 0.930 . S
C1558 C1556 1.419 . S
C1558 C1559 1.362 . S
C1559 H1549 0.930 . S
C1559 C1552 1.409 . S
C1559 C1558 1.362 . S
H1560 C1566 0.930 . S
H1561 C1569 0.930 . S
H1562 C1570 0.930 . S
H1563 C1571 0.930 . S
H1564 C1574 0.930 . S
H1565 C1575 0.930 . S
C1566 H1560 0.930 . S
C1566 C1567 1.355 . S
C1566 C1568 1.415 . S
C1567 C1566 1.355 . S
C1567 C1569 1.419 . S
C1568 C1566 1.415 . S
C1568 C1573 1.425 1_554 S
C1568 C1575 1.409 1_554 S
C1569 H1561 0.930 . S
C1569 C1567 1.419 . S
C1569 C1570 1.362 . S
C1570 H1562 0.930 . S
C1570 C1569 1.362 . S
C1570 C1573 1.409 1_554 S
C1571 H1563 0.930 . S
C1571 C1572 1.355 . S
C1571 C1573 1.415 . S
C1572 C1571 1.355 . S
C1572 C1574 1.419 . S
C1573 C1568 1.425 1_556 S
C1573 C1570 1.409 1_556 S
C1573 C1571 1.415 . S
C1574 H1564 0.930 . S
C1574 C1572 1.419 . S
C1574 C1575 1.362 . S
C1575 H1565 0.930 . S
C1575 C1568 1.409 1_556 S
C1575 C1574 1.362 . S
H1576 C1582 0.930 . S
H1577 C1585 0.930 . S
H1578 C1586 0.930 . S
H1579 C1587 0.930 . S
H1580 C1590 0.930 . S
H1581 C1591 0.930 . S
C1582 H1576 0.930 . S
C1582 C1583 1.355 . S
C1582 C1584 1.415 . S
C1583 C1582 1.355 . S
C1583 C1585 1.419 . S
C1584 C1582 1.415 . S
C1584 C1589 1.425 1_554 S
C1584 C1591 1.409 1_554 S
C1585 H1577 0.930 . S
C1585 C1583 1.419 . S
C1585 C1586 1.362 . S
C1586 H1578 0.930 . S
C1586 C1585 1.362 . S
C1586 C1589 1.409 1_554 S
C1587 H1579 0.930 . S
C1587 C1588 1.355 . S
C1587 C1589 1.415 . S
C1588 C1587 1.355 . S
C1588 C1590 1.419 . S
C1589 C1584 1.425 1_556 S
C1589 C1586 1.409 1_556 S
C1589 C1587 1.415 . S
C1590 H1580 0.930 . S
C1590 C1588 1.419 . S
C1590 C1591 1.362 . S
C1591 H1581 0.930 . S
C1591 C1584 1.409 1_556 S
C1591 C1590 1.362 . S
H1592 C1598 0.930 . S
H1593 C1601 0.930 . S
H1594 C1602 0.930 . S
H1595 C1603 0.930 . S
H1596 C1606 0.930 . S
H1597 C1607 0.930 . S
C1598 H1592 0.930 . S
C1598 C1599 1.355 . S
C1598 C1600 1.415 . S
C1599 C1598 1.355 . S
C1599 C1601 1.419 . S
C1600 C1598 1.415 . S
C1600 C1605 1.425 1_554 S
C1600 C1607 1.409 1_554 S
C1601 H1593 0.930 . S
C1601 C1599 1.419 . S
C1601 C1602 1.362 . S
C1602 H1594 0.930 . S
C1602 C1601 1.362 . S
C1602 C1605 1.409 1_554 S
C1603 H1595 0.930 . S
C1603 C1604 1.355 . S
C1603 C1605 1.415 . S
C1604 C1603 1.355 . S
C1604 C1606 1.419 . S
C1605 C1600 1.425 1_556 S
C1605 C1602 1.409 1_556 S
C1605 C1603 1.415 . S
C1606 H1596 0.930 . S
C1606 C1604 1.419 . S
C1606 C1607 1.362 . S
C1607 H1597 0.930 . S
C1607 C1600 1.409 1_556 S
C1607 C1606 1.362 . S
H1608 C1614 0.930 . S
H1609 C1617 0.930 . S
H1610 C1618 0.930 . S
H1611 C1619 0.930 . S
H1612 C1622 0.930 . S
H1613 C1623 0.930 . S
C1614 H1608 0.930 . S
C1614 C1615 1.355 . S
C1614 C1616 1.415 . S
C1615 C1614 1.355 . S
C1615 C1617 1.419 . S
C1616 C1614 1.415 . S
C1616 C1621 1.425 1_554 S
C1616 C1623 1.409 1_554 S
C1617 H1609 0.930 . S
C1617 C1615 1.419 . S
C1617 C1618 1.362 . S
C1618 H1610 0.930 . S
C1618 C1617 1.362 . S
C1618 C1621 1.409 1_554 S
C1619 H1611 0.930 . S
C1619 C1620 1.355 . S
C1619 C1621 1.415 . S
C1620 C1619 1.355 . S
C1620 C1622 1.419 . S
C1621 C1616 1.425 1_556 S
C1621 C1618 1.409 1_556 S
C1621 C1619 1.415 . S
C1622 H1612 0.930 . S
C1622 C1620 1.419 . S
C1622 C1623 1.362 . S
C1623 H1613 0.930 . S
C1623 C1616 1.409 1_556 S
C1623 C1622 1.362 . S
H1624 C1630 0.930 . S
H1625 C1633 0.930 . S
H1626 C1634 0.930 . S
H1627 C1635 0.930 . S
H1628 C1638 0.930 . S
H1629 C1639 0.930 . S
C1630 H1624 0.930 . S
C1630 C1631 1.355 . S
C1630 C1632 1.415 . S
C1631 C1630 1.355 . S
C1631 C1633 1.419 . S
C1632 C1630 1.415 . S
C1632 C1637 1.425 1_554 S
C1632 C1639 1.409 1_554 S
C1633 H1625 0.930 . S
C1633 C1631 1.419 . S
C1633 C1634 1.362 . S
C1634 H1626 0.930 . S
C1634 C1633 1.362 . S
C1634 C1637 1.409 1_554 S
C1635 H1627 0.930 . S
C1635 C1636 1.355 . S
C1635 C1637 1.415 . S
C1636 C1635 1.355 . S
C1636 C1638 1.419 . S
C1637 C1632 1.425 1_556 S
C1637 C1634 1.409 1_556 S
C1637 C1635 1.415 . S
C1638 H1628 0.930 . S
C1638 C1636 1.419 . S
C1638 C1639 1.362 . S
C1639 H1629 0.930 . S
C1639 C1632 1.409 1_556 S
C1639 C1638 1.362 . S
H1640 C1646 0.930 . S
H1641 C1649 0.930 . S
H1642 C1650 0.930 . S
H1643 C1651 0.930 . S
H1644 C1654 0.930 . S
H1645 C1655 0.930 . S
C1646 H1640 0.930 . S
C1646 C1647 1.355 . S
C1646 C1648 1.415 . S
C1647 C1646 1.355 . S
C1647 C1649 1.419 . S
C1648 C1646 1.415 . S
C1648 C1653 1.425 1_556 S
C1648 C1655 1.409 1_556 S
C1649 H1641 0.930 . S
C1649 C1647 1.419 . S
C1649 C1650 1.362 . S
C1650 H1642 0.930 . S
C1650 C1649 1.362 . S
C1650 C1653 1.409 1_556 S
C1651 H1643 0.930 . S
C1651 C1652 1.355 . S
C1651 C1653 1.415 . S
C1652 C1651 1.355 . S
C1652 C1654 1.419 . S
C1653 C1648 1.425 1_554 S
C1653 C1650 1.409 1_554 S
C1653 C1651 1.415 . S
C1654 H1644 0.930 . S
C1654 C1652 1.419 . S
C1654 C1655 1.362 . S
C1655 H1645 0.930 . S
C1655 C1648 1.409 1_554 S
C1655 C1654 1.362 . S
H1656 C1662 0.930 . S
H1657 C1665 0.930 . S
H1658 C1666 0.930 . S
H1659 C1667 0.930 . S
H1660 C1670 0.930 . S
H1661 C1671 0.930 . S
C1662 H1656 0.930 . S
C1662 C1663 1.355 . S
C1662 C1664 1.415 . S
C1663 C1662 1.355 . S
C1663 C1665 1.419 . S
C1664 C1662 1.415 . S
C1664 C1669 1.425 . S
C1664 C1671 1.409 . S
C1665 H1657 0.930 . S
C1665 C1663 1.419 . S
C1665 C1666 1.362 . S
C1666 H1658 0.930 . S
C1666 C1665 1.362 . S
C1666 C1669 1.409 . S
C1667 H1659 0.930 . S
C1667 C1668 1.355 . S
C1667 C1669 1.415 . S
C1668 C1667 1.355 . S
C1668 C1670 1.419 . S
C1669 C1664 1.425 . S
C1669 C1666 1.409 . S
C1669 C1667 1.415 . S
C1670 H1660 0.930 . S
C1670 C1668 1.419 . S
C1670 C1671 1.362 . S
C1671 H1661 0.930 . S
C1671 C1664 1.409 . S
C1671 C1670 1.362 . S
H1672 C1678 0.930 . S
H1673 C1681 0.930 . S
H1674 C1682 0.930 . S
H1675 C1683 0.930 . S
H1676 C1686 0.930 . S
H1677 C1687 0.930 . S
C1678 H1672 0.930 . S
C1678 C1679 1.355 . S
C1678 C1680 1.415 . S
C1679 C1678 1.355 . S
C1679 C1681 1.419 . S
C1680 C1678 1.415 . S
C1680 C1685 1.425 . S
C1680 C1687 1.409 . S
C1681 H1673 0.930 . S
C1681 C1679 1.419 . S
C1681 C1682 1.362 . S
C1682 H1674 0.930 . S
C1682 C1681 1.362 . S
C1682 C1685 1.409 . S
C1683 H1675 0.930 . S
C1683 C1684 1.355 . S
C1683 C1685 1.415 . S
C1684 C1683 1.355 . S
C1684 C1686 1.419 . S
C1685 C1680 1.425 . S
C1685 C1682 1.409 . S
C1685 C1683 1.415 . S
C1686 H1676 0.930 . S
C1686 C1684 1.419 . S
C1686 C1687 1.362 . S
C1687 H1677 0.930 . S
C1687 C1680 1.409 . S
C1687 C1686 1.362 . S
H1688 C1694 0.930 . S
H1689 C1697 0.930 . S
H1690 C1698 0.930 . S
H1691 C1699 0.930 . S
H1692 C1702 0.930 . S
H1693 C1703 0.930 . S
C1694 H1688 0.930 . S
C1694 C1695 1.355 . S
C1694 C1696 1.415 . S
C1695 C1694 1.355 . S
C1695 C1697 1.419 . S
C1696 C1694 1.415 . S
C1696 C1701 1.425 . S
C1696 C1703 1.409 . S
C1697 H1689 0.930 . S
C1697 C1695 1.419 . S
C1697 C1698 1.362 . S
C1698 H1690 0.930 . S
C1698 C1697 1.362 . S
C1698 C1701 1.409 . S
C1699 H1691 0.930 . S
C1699 C1700 1.355 . S
C1699 C1701 1.415 . S
C1700 C1699 1.355 . S
C1700 C1702 1.419 . S
C1701 C1696 1.425 . S
C1701 C1698 1.409 . S
C1701 C1699 1.415 . S
C1702 H1692 0.930 . S
C1702 C1700 1.419 . S
C1702 C1703 1.362 . S
C1703 H1693 0.930 . S
C1703 C1696 1.409 . S
C1703 C1702 1.362 . S
H1704 C1710 0.930 . S
H1705 C1713 0.930 . S
H1706 C1714 0.930 . S
H1707 C1715 0.930 . S
H1708 C1718 0.930 . S
H1709 C1719 0.930 . S
C1710 H1704 0.930 . S
C1710 C1711 1.355 . S
C1710 C1712 1.415 . S
C1711 C1710 1.355 . S
C1711 C1713 1.419 . S
C1712 C1710 1.415 . S
C1712 C1717 1.425 . S
C1712 C1719 1.409 . S
C1713 H1705 0.930 . S
C1713 C1711 1.419 . S
C1713 C1714 1.362 . S
C1714 H1706 0.930 . S
C1714 C1713 1.362 . S
C1714 C1717 1.409 . S
C1715 H1707 0.930 . S
C1715 C1716 1.355 . S
C1715 C1717 1.415 . S
C1716 C1715 1.355 . S
C1716 C1718 1.419 . S
C1717 C1712 1.425 . S
C1717 C1714 1.409 . S
C1717 C1715 1.415 . S
C1718 H1708 0.930 . S
C1718 C1716 1.419 . S
C1718 C1719 1.362 . S
C1719 H1709 0.930 . S
C1719 C1712 1.409 . S
C1719 C1718 1.362 . S
H1720 C1726 0.930 . S
H1721 C1729 0.930 . S
H1722 C1730 0.930 . S
H1723 C1731 0.930 . S
H1724 C1734 0.930 . S
H1725 C1735 0.930 . S
C1726 H1720 0.930 . S
C1726 C1727 1.355 . S
C1726 C1728 1.415 . S
C1727 C1726 1.355 . S
C1727 C1729 1.419 . S
C1728 C1726 1.415 . S
C1728 C1733 1.425 . S
C1728 C1735 1.409 . S
C1729 H1721 0.930 . S
C1729 C1727 1.419 . S
C1729 C1730 1.362 . S
C1730 H1722 0.930 . S
C1730 C1729 1.362 . S
C1730 C1733 1.409 . S
C1731 H1723 0.930 . S
C1731 C1732 1.355 . S
C1731 C1733 1.415 . S
C1732 C1731 1.355 . S
C1732 C1734 1.419 . S
C1733 C1728 1.425 . S
C1733 C1730 1.409 . S
C1733 C1731 1.415 . S
C1734 H1724 0.930 . S
C1734 C1732 1.419 . S
C1734 C1735 1.362 . S
C1735 H1725 0.930 . S
C1735 C1728 1.409 . S
C1735 C1734 1.362 . S
H1736 C1742 0.930 . S
H1737 C1745 0.930 . S
H1738 C1746 0.930 . S
H1739 C1747 0.930 . S
H1740 C1750 0.930 . S
H1741 C1751 0.930 . S
C1742 H1736 0.930 . S
C1742 C1743 1.355 . S
C1742 C1744 1.415 . S
C1743 C1742 1.355 . S
C1743 C1745 1.419 . S
C1744 C1742 1.415 . S
C1744 C1749 1.425 . S
C1744 C1751 1.409 . S
C1745 H1737 0.930 . S
C1745 C1743 1.419 . S
C1745 C1746 1.362 . S
C1746 H1738 0.930 . S
C1746 C1745 1.362 . S
C1746 C1749 1.409 . S
C1747 H1739 0.930 . S
C1747 C1748 1.355 . S
C1747 C1749 1.415 . S
C1748 C1747 1.355 . S
C1748 C1750 1.419 . S
C1749 C1744 1.425 . S
C1749 C1746 1.409 . S
C1749 C1747 1.415 . S
C1750 H1740 0.930 . S
C1750 C1748 1.419 . S
C1750 C1751 1.362 . S
C1751 H1741 0.930 . S
C1751 C1744 1.409 . S
C1751 C1750 1.362 . S
C799 N13 0.925 . S
C804 N112 0.925 . S
C815 N145 0.948 . S
C820 N46 0.946 . S
C831 N178 0.858 . S
C836 N79 1.002 . S
C847 N310 0.944 . S
C852 N211 0.907 . S
C863 N244 0.904 . S
C868 N343 0.947 . S
C879 N277 1.003 . S
C884 N376 0.878 . S
C895 N508 0.955 . S
C900 N409 0.897 . S
C911 N541 0.984 . S
C916 N442 0.905 . S
C927 N574 0.984 . S
C932 N475 0.905 . S
C943 N706 0.946 . S
C948 N607 0.948 . S
C959 N640 0.916 . S
C964 N739 0.975 . S
C975 N772 0.907 . S
C980 N673 0.982 . S
C991 N266 1.793 . S
C996 N2 1.788 . S
C1007 N35 1.788 . S
C1012 N299 1.791 . S
C1023 N68 1.787 . S
C1028 N332 1.792 . S
C1039 N101 1.789 . S
C1044 N365 1.790 . S
C1055 N134 1.789 . S
C1060 N200 1.793 . S
C1071 N233 1.787 . S
C1076 N167 1.793 . S
C1087 N398 1.789 . S
C1092 N662 1.793 . S
C1103 N695 1.792 . S
C1108 N431 1.789 . S
C1119 N728 1.792 . S
C1124 N464 1.789 . S
C1135 N497 1.789 . S
C1140 N761 1.792 . S
C1151 N596 1.789 . S
C1156 N530 1.793 . S
C1167 N629 1.789 . S
C1172 N563 1.789 . S
C1183 C21 0.874 . S
C1188 C252 0.748 . S
C1199 C54 0.871 . S
C1204 C285 0.753 . S
C1215 C318 0.767 . S
C1220 C87 0.845 . S
C1231 C120 0.872 . S
C1236 C351 0.751 . S
C1247 C384 0.751 . S
C1252 C153 0.862 . S
C1263 C219 0.873 . S
C1268 C186 0.741 . S
C1279 C417 0.858 . S
C1284 C648 0.771 . S
C1295 C450 0.851 . S
C1300 C681 0.779 . S
C1311 C483 0.782 . S
C1316 C714 0.830 . S
C1327 C516 0.857 . S
C1332 C747 0.772 . S
C1343 C549 0.749 . S
C1348 C780 0.864 . S
C1359 C615 0.743 . S
C1364 C582 0.877 . S
C1375 C7 1.189 . S
C1380 C337 1.150 . S
C1391 C370 1.192 . S
C1396 C40 1.136 . S
C1407 C205 1.163 . S
C1412 C73 1.109 . S
C1423 C238 1.111 . S
C1428 C106 1.156 . S
C1439 C139 1.118 . S
C1444 C271 1.141 . S
C1455 C172 1.171 . S
C1460 C304 1.108 . S
C1471 C403 1.111 . S
C1476 C733 1.154 . S
C1487 C766 1.153 . S
C1492 C436 1.112 . S
C1503 C601 1.123 . S
C1508 C469 1.134 . S
C1519 C502 1.188 . S
C1524 C634 1.152 . S
C1535 C535 1.163 . S
C1540 C667 1.182 . S
C1551 C700 1.108 . S
C1556 C568 1.166 . S
C1567 C18 1.189 . S
C1572 C513 1.208 . S
C1583 C51 1.178 . S
C1588 C546 1.219 . S
C1599 C84 1.177 . S
C1604 C579 1.219 . S
C1615 C117 1.190 . S
C1620 C414 1.207 . S
C1631 C150 1.215 . S
C1636 C447 1.182 . S
C1647 C480 1.183 . S
C1652 C183 1.214 . S
C1663 C216 1.205 . S
C1668 C711 1.192 . S
C1679 C249 1.204 . S
C1684 C744 1.193 . S
C1695 C282 1.193 . S
C1700 C777 1.204 . S
C1711 C315 1.204 . S
C1716 C612 1.194 . S
C1727 C348 1.178 . S
C1732 C645 1.219 . S
C1743 C678 1.177 . S
C1748 C381 1.220 . S
