# Generated by pormake.
# Topology rhr, (4)-cn, num edge types: 1
# Building blocks:
#     Node 0, Type 0, BuildingBlock: MUDLON_clean_sbu_0, # of connection points: 4
#     Node 1, Type 0, BuildingBlock: MUDLON_clean_sbu_0, # of connection points: 4
#     Node 2, Type 0, BuildingBlock: MUDLON_clean_sbu_0, # of connection points: 4
#     Node 3, Type 0, BuildingBlock: MUDLON_clean_sbu_0, # of connection points: 4
#     Node 4, Type 0, BuildingBlock: MUDLON_clean_sbu_0, # of connection points: 4
#     Node 5, Type 0, BuildingBlock: MUDLON_clean_sbu_0, # of connection points: 4
#     Node 6, Type 0, BuildingBlock: MUDLON_clean_sbu_0, # of connection points: 4
#     Node 7, Type 0, BuildingBlock: MUDLON_clean_sbu_0, # of connection points: 4
#     Node 8, Type 0, BuildingBlock: MUDLON_clean_sbu_0, # of connection points: 4
#     Node 9, Type 0, BuildingBlock: MUDLON_clean_sbu_0, # of connection points: 4
#     Node 10, Type 0, BuildingBlock: MUDLON_clean_sbu_0, # of connection points: 4
#     Node 11, Type 0, BuildingBlock: MUDLON_clean_sbu_0, # of connection points: 4
#     Node 12, Type 0, BuildingBlock: MUDLON_clean_sbu_0, # of connection points: 4
#     Node 13, Type 0, BuildingBlock: MUDLON_clean_sbu_0, # of connection points: 4
#     Node 14, Type 0, BuildingBlock: MUDLON_clean_sbu_0, # of connection points: 4
#     Node 15, Type 0, BuildingBlock: MUDLON_clean_sbu_0, # of connection points: 4
#     Node 16, Type 0, BuildingBlock: MUDLON_clean_sbu_0, # of connection points: 4
#     Node 17, Type 0, BuildingBlock: MUDLON_clean_sbu_0, # of connection points: 4
#     Node 18, Type 0, BuildingBlock: MUDLON_clean_sbu_0, # of connection points: 4
#     Node 19, Type 0, BuildingBlock: MUDLON_clean_sbu_0, # of connection points: 4
#     Node 20, Type 0, BuildingBlock: MUDLON_clean_sbu_0, # of connection points: 4
#     Node 21, Type 0, BuildingBlock: MUDLON_clean_sbu_0, # of connection points: 4
#     Node 22, Type 0, BuildingBlock: MUDLON_clean_sbu_0, # of connection points: 4
#     Node 23, Type 0, BuildingBlock: MUDLON_clean_sbu_0, # of connection points: 4
#     Edge 24, Type (0, 0), BuildingBlock: EZIPEK_clean_linker_0, # of connection points: 2
#     Edge 25, Type (0, 0), BuildingBlock: EZIPEK_clean_linker_0, # of connection points: 2
#     Edge 26, Type (0, 0), BuildingBlock: EZIPEK_clean_linker_0, # of connection points: 2
#     Edge 27, Type (0, 0), BuildingBlock: EZIPEK_clean_linker_0, # of connection points: 2
#     Edge 28, Type (0, 0), BuildingBlock: EZIPEK_clean_linker_0, # of connection points: 2
#     Edge 29, Type (0, 0), BuildingBlock: EZIPEK_clean_linker_0, # of connection points: 2
#     Edge 30, Type (0, 0), BuildingBlock: EZIPEK_clean_linker_0, # of connection points: 2
#     Edge 31, Type (0, 0), BuildingBlock: EZIPEK_clean_linker_0, # of connection points: 2
#     Edge 32, Type (0, 0), BuildingBlock: EZIPEK_clean_linker_0, # of connection points: 2
#     Edge 33, Type (0, 0), BuildingBlock: EZIPEK_clean_linker_0, # of connection points: 2
#     Edge 34, Type (0, 0), BuildingBlock: EZIPEK_clean_linker_0, # of connection points: 2
#     Edge 35, Type (0, 0), BuildingBlock: EZIPEK_clean_linker_0, # of connection points: 2
#     Edge 36, Type (0, 0), BuildingBlock: EZIPEK_clean_linker_0, # of connection points: 2
#     Edge 37, Type (0, 0), BuildingBlock: EZIPEK_clean_linker_0, # of connection points: 2
#     Edge 38, Type (0, 0), BuildingBlock: EZIPEK_clean_linker_0, # of connection points: 2
#     Edge 39, Type (0, 0), BuildingBlock: EZIPEK_clean_linker_0, # of connection points: 2
#     Edge 40, Type (0, 0), BuildingBlock: EZIPEK_clean_linker_0, # of connection points: 2
#     Edge 41, Type (0, 0), BuildingBlock: EZIPEK_clean_linker_0, # of connection points: 2
#     Edge 42, Type (0, 0), BuildingBlock: EZIPEK_clean_linker_0, # of connection points: 2
#     Edge 43, Type (0, 0), BuildingBlock: EZIPEK_clean_linker_0, # of connection points: 2
#     Edge 44, Type (0, 0), BuildingBlock: EZIPEK_clean_linker_0, # of connection points: 2
#     Edge 45, Type (0, 0), BuildingBlock: EZIPEK_clean_linker_0, # of connection points: 2
#     Edge 46, Type (0, 0), BuildingBlock: EZIPEK_clean_linker_0, # of connection points: 2
#     Edge 47, Type (0, 0), BuildingBlock: EZIPEK_clean_linker_0, # of connection points: 2
#     Edge 48, Type (0, 0), BuildingBlock: EZIPEK_clean_linker_0, # of connection points: 2
#     Edge 49, Type (0, 0), BuildingBlock: EZIPEK_clean_linker_0, # of connection points: 2
#     Edge 50, Type (0, 0), BuildingBlock: EZIPEK_clean_linker_0, # of connection points: 2
#     Edge 51, Type (0, 0), BuildingBlock: EZIPEK_clean_linker_0, # of connection points: 2
#     Edge 52, Type (0, 0), BuildingBlock: EZIPEK_clean_linker_0, # of connection points: 2
#     Edge 53, Type (0, 0), BuildingBlock: EZIPEK_clean_linker_0, # of connection points: 2
#     Edge 54, Type (0, 0), BuildingBlock: EZIPEK_clean_linker_0, # of connection points: 2
#     Edge 55, Type (0, 0), BuildingBlock: EZIPEK_clean_linker_0, # of connection points: 2
#     Edge 56, Type (0, 0), BuildingBlock: EZIPEK_clean_linker_0, # of connection points: 2
#     Edge 57, Type (0, 0), BuildingBlock: EZIPEK_clean_linker_0, # of connection points: 2
#     Edge 58, Type (0, 0), BuildingBlock: EZIPEK_clean_linker_0, # of connection points: 2
#     Edge 59, Type (0, 0), BuildingBlock: EZIPEK_clean_linker_0, # of connection points: 2
#     Edge 60, Type (0, 0), BuildingBlock: EZIPEK_clean_linker_0, # of connection points: 2
#     Edge 61, Type (0, 0), BuildingBlock: EZIPEK_clean_linker_0, # of connection points: 2
#     Edge 62, Type (0, 0), BuildingBlock: EZIPEK_clean_linker_0, # of connection points: 2
#     Edge 63, Type (0, 0), BuildingBlock: EZIPEK_clean_linker_0, # of connection points: 2
#     Edge 64, Type (0, 0), BuildingBlock: EZIPEK_clean_linker_0, # of connection points: 2
#     Edge 65, Type (0, 0), BuildingBlock: EZIPEK_clean_linker_0, # of connection points: 2
#     Edge 66, Type (0, 0), BuildingBlock: EZIPEK_clean_linker_0, # of connection points: 2
#     Edge 67, Type (0, 0), BuildingBlock: EZIPEK_clean_linker_0, # of connection points: 2
#     Edge 68, Type (0, 0), BuildingBlock: EZIPEK_clean_linker_0, # of connection points: 2
#     Edge 69, Type (0, 0), BuildingBlock: EZIPEK_clean_linker_0, # of connection points: 2
#     Edge 70, Type (0, 0), BuildingBlock: EZIPEK_clean_linker_0, # of connection points: 2
#     Edge 71, Type (0, 0), BuildingBlock: EZIPEK_clean_linker_0, # of connection points: 2
# Relax obj value: 0.018
# Max RMSD: 0.032
# Mean RMSD: 0.029
data_MOF--net-rhr--node1-MUDLON_clean_sbu_0--edge1-EZIPEK_clean_linker_0
_symmetry_space_group_name_H-M    P1
_symmetry_Int_Tables_number       1
_symmetry_cell_setting            triclinic
loop_
_symmetry_equiv_pos_as_xyz
'x, y, z'
_cell_length_a     38.925341
_cell_length_b     38.974908
_cell_length_c     39.154447
_cell_angle_alpha  89.905799
_cell_angle_beta   89.466972
_cell_angle_gamma 90.334088
loop_
_atom_site_label
_atom_site_type_symbol
_atom_site_fract_x
_atom_site_fract_y
_atom_site_fract_z
_atom_type_partial_charge
Mg0 Mg 0.32629 0.02499 0.33942 0.0
C1 C 0.35156 0.96044 0.30708 0.0
O2 O 0.35466 0.9533 0.33966 0.0
C3 C 0.25158 0.05795 0.3507 0.0
O4 O 0.23673 0.03405 0.33232 0.0
C5 C 0.36706 0.06917 0.29801 0.0
O6 O 0.34118 0.05812 0.27964 0.0
O7 O 0.36899 0.05964 0.32911 0.0
O8 O 0.33543 0.98749 0.29832 0.0
O9 O 0.32027 0.99381 0.38474 0.0
C10 C 0.29222 0.97752 0.38023 0.0
O11 O 0.27674 0.98032 0.35072 0.0
O12 O 0.28417 0.06013 0.35187 0.0
Mg13 Mg 0.04045 0.34703 0.34778 0.0
C14 C 0.98435 0.3763 0.306 0.0
O15 O 0.98747 0.34505 0.29386 0.0
C16 C 0.09875 0.33823 0.39326 0.0
O17 O 0.11107 0.3324 0.36254 0.0
C18 C 0.09401 0.38694 0.31137 0.0
O19 O 0.08396 0.40655 0.33678 0.0
O20 O 0.08015 0.35725 0.30811 0.0
O21 O 1.0021 0.38475 0.33198 0.0
O22 O 0.01492 0.29718 0.36031 0.0
C23 C 0.98314 0.29707 0.36886 0.0
O24 O 0.96472 0.32424 0.36175 0.0
O25 O 0.06859 0.35055 0.39604 0.0
Mg26 Mg 0.65475 0.0366 0.35474 0.0
C27 C 0.64163 0.10888 0.31968 0.0
O28 O 0.6742 0.11409 0.32635 0.0
C29 C 0.70811 0.97785 0.37276 0.0
O30 O 0.72245 0.98834 0.34406 0.0
C31 C 0.628 1.00215 0.28679 0.0
O32 O 0.64717 0.02647 0.2731 0.0
O33 O 0.62661 0.99893 0.31918 0.0
O34 O 0.6273 0.08073 0.32817 0.0
O35 O 0.68249 0.07545 0.38967 0.0
C36 C 0.71505 0.07872 0.38895 0.0
O37 O 0.73313 0.05932 0.36821 0.0
O38 O 0.68031 0.99168 0.38291 0.0
Mg39 Mg 0.02364 0.68944 0.34234 0.0
C40 C 0.08718 0.73826 0.36464 0.0
O41 O 0.07268 0.76178 0.34564 0.0
C42 C 0.96434 0.65657 0.29545 0.0
O43 O 0.98587 0.66228 0.27002 0.0
C44 C 0.97994 0.75303 0.36363 0.0
O45 O 0.98436 0.75953 0.33095 0.0
O46 O 0.99371 0.72659 0.37664 0.0
O47 O 0.07435 0.70819 0.36605 0.0
O48 O 0.0527 0.65265 0.30624 0.0
C49 C 0.07905 0.6613 0.28864 0.0
O50 O 0.09108 0.69276 0.291 0.0
O51 O 0.97213 0.66613 0.32541 0.0
Mg52 Mg 0.35783 0.01833 0.6798 0.0
C53 C 0.37255 0.07905 0.73391 0.0
O54 O 0.33947 0.07834 0.74082 0.0
C55 C 0.30486 0.96259 0.6509 0.0
O56 O 0.28362 0.97646 0.67313 0.0
C57 C 0.38184 0.9803 0.74582 0.0
O58 O 0.36073 1.00227 0.76011 0.0
O59 O 0.38459 0.97917 0.71344 0.0
O60 O 0.38482 0.0597 0.71079 0.0
O61 O 0.33313 0.05947 0.6456 0.0
C62 C 0.30406 0.07276 0.65233 0.0
O63 O 0.28673 0.06222 0.67937 0.0
O64 O 0.33515 0.97459 0.6477 0.0
Mg65 Mg 0.01239 0.3541 0.68173 0.0
C66 C 0.95901 0.35636 0.6244 0.0
O67 O 0.94217 0.379 0.64255 0.0
C68 C 0.06455 0.41737 0.68663 0.0
O69 O 0.04802 0.43193 0.66144 0.0
C70 C 0.05333 0.29999 0.65312 0.0
O71 O 0.05886 0.32756 0.63447 0.0
O72 O 0.03408 0.30238 0.67957 0.0
O73 O 0.99057 0.35113 0.6305 0.0
O74 O 0.97016 0.364 0.71827 0.0
C75 C 0.95765 0.3942 0.71822 0.0
O76 O 0.97029 0.41711 0.69686 0.0
O77 O 0.05555 0.38762 0.69697 0.0
Mg78 Mg 0.70713 0.04745 0.6777 0.0
C79 C 0.68449 0.97785 0.71498 0.0
O80 O 0.71648 0.96811 0.71083 0.0
C81 C 0.7843 0.07482 0.69316 0.0
O82 O 0.80847 0.07853 0.71607 0.0
C83 C 0.66524 0.10059 0.70986 0.0
O84 O 0.6744 0.08 0.73474 0.0
O85 O 0.67536 0.09383 0.67956 0.0
O86 O 0.67549 0.00763 0.70484 0.0
O87 O 0.72204 0.02628 0.62839 0.0
C88 C 0.74823 0.0071 0.63104 0.0
O89 O 0.76196 1.0026 0.66117 0.0
O90 O 0.75577 0.06105 0.70277 0.0
Mg91 Mg 0.99771 0.69263 0.68569 0.0
C92 C 0.05176 0.68206 0.74631 0.0
O93 O 0.03911 0.71065 0.75867 0.0
C94 C 0.94619 0.74374 0.65154 0.0
O95 O 0.96118 0.76496 0.67282 0.0
C96 C 0.95723 0.66846 0.74913 0.0
O97 O 0.96951 0.69775 0.76028 0.0
O98 O 0.96162 0.66022 0.71804 0.0
O99 O 0.04173 0.67083 0.71755 0.0
O100 O 0.03478 0.72367 0.65311 0.0
C101 C 0.05208 0.74868 0.66474 0.0
O102 O 0.04889 0.75733 0.69701 0.0
O103 O 0.95406 0.71213 0.65196 0.0
Mg104 Mg 0.34211 0.3588 1.00134 0.0
C105 C 0.39002 0.33053 0.94924 0.0
O106 O 0.40373 0.36052 0.95636 0.0
C107 C 0.28794 0.37712 0.04431 0.0
O108 O 0.31338 0.39914 0.04747 0.0
C109 C 0.37719 0.33323 0.062 0.0
O110 O 0.35512 0.30909 0.05368 0.0
O111 O 0.37827 0.36059 0.0441 0.0
O112 O 0.36218 0.32161 0.96429 0.0
O113 O 0.32559 0.40569 0.97586 0.0
C114 C 0.31916 0.40483 0.9441 0.0
O115 O 0.33248 0.38015 0.9256 0.0
O116 O 0.29235 0.35067 0.02574 0.0
Mg117 Mg 0.71065 0.31955 0.03564 0.0
C118 C 0.64113 0.29939 0.06859 0.0
O119 O 0.63271 0.32922 0.0556 0.0
C120 C 0.73527 0.37005 0.98067 0.0
O121 O 0.702 0.36921 0.97549 0.0
C122 C 0.66344 0.29559 0.9754 0.0
O123 O 0.64583 0.32204 0.98631 0.0
O124 O 0.69232 0.28884 0.98872 0.0
O125 O 0.67203 0.28922 0.06688 0.0
O126 O 0.72975 0.34898 0.08316 0.0
C127 C 0.71533 0.37611 0.0941 0.0
O128 O 0.68764 0.3873 0.07884 0.0
O129 O 0.74794 0.35115 1.00367 0.0
Mg130 Mg 0.70343 0.70625 0.02656 0.0
C131 C 0.73014 0.64518 0.07185 0.0
O132 O 0.70768 0.62777 0.05397 0.0
C133 C 0.64539 0.74412 0.98717 0.0
O134 O 0.62611 0.72914 0.01051 0.0
C135 C 0.71492 0.66314 0.95797 0.0
O136 O 0.68284 0.67182 0.95303 0.0
O137 O 0.73025 0.67341 0.98479 0.0
O138 O 0.73312 0.67734 0.0675 0.0
O139 O 0.67371 0.73743 0.06734 0.0
C140 C 0.6525 0.72363 0.0883 0.0
O141 O 0.65022 0.69002 0.08991 0.0
O142 O 0.67745 0.73852 0.98604 0.0
Mg143 Mg 0.35995 0.69118 0.99126 0.0
C144 C 0.33252 0.65726 0.9312 0.0
O145 O 0.36383 0.6455 0.93491 0.0
C146 C 0.38769 0.74551 0.03404 0.0
O147 O 0.41224 0.7227 0.03113 0.0
C148 C 0.34335 0.65261 0.06009 0.0
O149 O 0.3505 0.68255 0.0736 0.0
O150 O 0.34862 0.64827 0.02807 0.0
O151 O 0.32161 0.67994 0.95205 0.0
O152 O 0.40666 0.70088 0.95938 0.0
C153 C 0.40059 0.72131 0.9345 0.0
O154 O 0.36872 0.73095 0.92969 0.0
O155 O 0.35898 0.73962 0.01963 0.0
Mg156 Mg 0.84219 0.51913 0.85461 0.0
C157 C 0.86615 0.45961 0.81504 0.0
O158 O 0.86801 0.44923 0.84682 0.0
C159 C 0.77612 0.56351 0.86612 0.0
O160 O 0.7582 0.5354 0.86115 0.0
C161 C 0.8852 0.56704 0.82541 0.0
O162 O 0.85742 0.56324 0.80698 0.0
O163 O 0.88878 0.54896 0.85225 0.0
O164 O 0.85124 0.48796 0.80878 0.0
O165 O 0.83176 0.48576 0.89823 0.0
C166 C 0.80617 0.46587 0.89376 0.0
O167 O 0.78999 0.46664 0.86449 0.0
O168 O 0.80829 0.56334 0.86083 0.0
Mg169 Mg 0.53719 0.86017 0.84092 0.0
C170 C 0.58566 0.88045 0.77538 0.0
O171 O 0.57156 0.85595 0.75716 0.0
C172 C 0.49479 0.7812 0.83295 0.0
O173 O 0.49756 0.76473 0.80385 0.0
C174 C 0.47789 0.89378 0.81397 0.0
O175 O 0.48384 0.86779 0.79351 0.0
O176 O 0.49679 0.89797 0.83996 0.0
O177 O 0.57665 0.88423 0.80657 0.0
O178 O 0.56311 0.8511 0.88841 0.0
C179 C 0.58916 0.83211 0.88369 0.0
O180 O 0.59899 0.82519 0.85226 0.0
O181 O 0.51028 0.81009 0.8359 0.0
Mg182 Mg 0.18711 0.53258 0.828 0.0
C183 C 0.14904 0.59848 0.81961 0.0
O184 O 0.1804 0.61035 0.82284 0.0
C185 C 0.22428 0.48478 0.86773 0.0
O186 O 0.24209 0.49096 0.83973 0.0
C187 C 0.15775 0.50597 0.76125 0.0
O188 O 0.14668 0.53767 0.76023 0.0
O189 O 0.17919 0.49763 0.78426 0.0
O190 O 0.14299 0.56683 0.8253 0.0
O191 O 0.23095 0.5653 0.84113 0.0
C192 C 0.25283 0.58611 0.82841 0.0
O193 O 0.254 0.59167 0.79533 0.0
O194 O 0.19451 0.49797 0.87104 0.0
Mg195 Mg 0.52623 0.20164 0.83139 0.0
C196 C 0.46823 0.16809 0.80364 0.0
O197 O 0.4702 0.19895 0.79018 0.0
C198 C 0.57553 0.23447 0.8767 0.0
O199 O 0.56186 0.25952 0.85903 0.0
C200 C 0.5813 0.2049 0.77142 0.0
O201 O 0.59047 0.23559 0.78182 0.0
O202 O 0.55519 0.19024 0.78469 0.0
O203 O 0.48954 0.15983 0.82672 0.0
O204 O 0.49288 0.24531 0.84317 0.0
C205 C 0.47304 0.23792 0.86831 0.0
O206 O 0.47418 0.2069 0.88138 0.0
O207 O 0.5651 0.20387 0.87136 0.0
Mg208 Mg 0.84277 0.51419 0.20815 0.0
C209 C 0.84551 0.57308 0.26144 0.0
O210 O 0.81657 0.58547 0.25012 0.0
C211 C 0.7785 0.46003 0.19955 0.0
O212 O 0.76662 0.46344 0.23085 0.0
C213 C 0.88481 0.46349 0.23891 0.0
O214 O 0.85455 0.4624 0.25408 0.0
O215 O 0.8889 0.4833 0.21315 0.0
O216 O 0.85292 0.54191 0.25559 0.0
O217 O 0.83527 0.55394 0.16954 0.0
C218 C 0.80441 0.56489 0.17034 0.0
O219 O 0.78346 0.55332 0.19426 0.0
O220 O 0.80502 0.47664 0.18979 0.0
Mg221 Mg 0.50009 0.86073 0.17336 0.0
C222 C 0.44056 0.85091 0.12228 0.0
O223 O 0.42241 0.86877 0.14425 0.0
C224 C 0.54503 0.90507 0.2117 0.0
O225 O 0.53532 0.88004 0.23221 0.0
C226 C 0.55742 0.81975 0.14891 0.0
O227 O 0.55632 0.8466 0.12865 0.0
O228 O 0.53615 0.81776 0.17388 0.0
O229 O 0.47299 0.84883 0.12583 0.0
O230 O 0.46119 0.86741 0.21382 0.0
C231 C 0.44647 0.89655 0.21249 0.0
O232 O 0.45549 0.9182 0.18824 0.0
O233 O 0.53407 0.90504 0.18106 0.0
Mg234 Mg 0.19784 0.51639 0.16915 0.0
C235 C 0.25007 0.57429 0.14878 0.0
O236 O 0.22828 0.59366 0.16567 0.0
C237 C 0.1934 0.45495 0.22214 0.0
O238 O 0.21268 0.43723 0.20113 0.0
C239 C 0.21365 0.45929 0.12473 0.0
O240 O 0.24128 0.46497 0.14291 0.0
O241 O 0.18764 0.47851 0.12923 0.0
O242 O 0.24589 0.54175 0.14962 0.0
O243 O 0.15898 0.55575 0.17885 0.0
C244 C 0.16238 0.56862 0.20858 0.0
O245 O 0.18859 0.5591 0.22717 0.0
O246 O 0.18893 0.48687 0.21687 0.0
Mg247 Mg 0.49796 0.21928 0.19757 0.0
C248 C 0.55111 0.20666 0.14103 0.0
O249 O 0.5674 0.1869 0.16246 0.0
C250 C 0.45869 0.15124 0.21441 0.0
O251 O 0.47966 0.13596 0.1929 0.0
C252 C 0.45202 0.26373 0.16176 0.0
O253 O 0.44819 0.23296 0.14869 0.0
O254 O 0.47173 0.2676 0.18735 0.0
O255 O 0.51963 0.21317 0.14641 0.0
O256 O 0.53892 0.21689 0.2357 0.0
C257 C 0.55125 0.18682 0.23843 0.0
O258 O 0.53917 0.16228 0.21908 0.0
O259 O 0.45979 0.18362 0.21792 0.0
Mg260 Mg 0.83982 0.86068 0.49798 0.0
C261 C 0.82405 0.91036 0.55368 0.0
O262 O 0.82767 0.88218 0.57159 0.0
C263 C 0.88359 0.82283 0.45145 0.0
O264 O 0.85921 0.8013 0.46094 0.0
C265 C 0.79655 0.88865 0.44692 0.0
O266 O 0.82569 0.90578 0.44586 0.0
O267 O 0.79384 0.86292 0.46691 0.0
O268 O 0.83319 0.91036 0.52247 0.0
O269 O 0.84547 0.82005 0.53641 0.0
C270 C 0.87507 0.82063 0.55004 0.0
O271 O 0.89715 0.84441 0.54034 0.0
O272 O 0.88288 0.8534 0.46282 0.0
Mg273 Mg 0.18587 0.84673 0.51918 0.0
C274 C 0.18968 0.78895 0.45838 0.0
O275 O 0.2233 0.78638 0.45809 0.0
C276 C 0.25161 0.84912 0.57202 0.0
O277 O 0.25688 0.81603 0.57523 0.0
C278 C 0.1504 0.8175 0.5766 0.0
O279 O 0.18203 0.80614 0.57819 0.0
O280 O 0.14287 0.8393 0.55367 0.0
O281 O 0.17472 0.80821 0.48003 0.0
O282 O 0.19186 0.89174 0.4879 0.0
C283 C 0.22193 0.88909 0.47513 0.0
O284 O 0.23999 0.86147 0.48145 0.0
O285 O 0.22813 0.86034 0.55283 0.0
Mg286 Mg 0.17126 0.18031 0.5194 0.0
C287 C 0.13227 0.20793 0.57597 0.0
O288 O 0.16199 0.22407 0.57567 0.0
C289 C 0.19996 0.14487 0.45857 0.0
O290 O 0.22415 0.16673 0.46728 0.0
C291 C 0.17372 0.2617 0.49508 0.0
O292 O 0.19703 0.27283 0.51648 0.0
O293 O 0.16528 0.23009 0.49464 0.0
O294 O 0.12761 0.18351 0.5548 0.0
O295 O 0.21319 0.16145 0.55078 0.0
C296 C 0.23638 0.17495 0.56909 0.0
O297 O 0.23995 0.20846 0.57027 0.0
O298 O 0.17205 0.14415 0.47606 0.0
Mg299 Mg 0.85438 0.1915 0.51495 0.0
C300 C 0.8057 0.16024 0.46866 0.0
O301 O 0.8345 0.14319 0.46494 0.0
C302 C 0.89392 0.24215 0.55556 0.0
O303 O 0.91238 0.21421 0.55818 0.0
C304 C 0.82757 0.13165 0.56146 0.0
O305 O 0.80835 0.12494 0.53498 0.0
O306 O 0.85135 0.1544 0.55877 0.0
O307 O 0.80489 0.18536 0.48945 0.0
O308 O 0.88858 0.19654 0.46912 0.0
C309 C 0.92096 0.20147 0.46724 0.0
O310 O 0.93997 0.1947 0.49387 0.0
O311 O 0.86543 0.24083 0.53973 0.0
C312 C 0.20604 0.08561 0.43251 0.0
C313 C 0.20623 0.12183 0.42858 0.0
C314 C 0.23225 0.1157 0.37128 0.0
C315 C 0.23131 0.07955 0.37485 0.0
N316 N 0.21087 0.02969 0.40594 0.0
N317 N 0.21169 0.17065 0.39117 0.0
C318 C 0.21576 0.0644 0.40436 0.0
C319 C 0.21702 0.1366 0.39697 0.0
N320 N 0.19921 0.07141 0.46382 0.0
N321 N 0.24836 0.13016 0.34355 0.0
H322 H 0.19956 0.18607 0.40911 0.0
H323 H 0.21584 0.18264 0.3677 0.0
H324 H 0.25761 0.11576 0.32303 0.0
H325 H 0.25412 0.15622 0.34163 0.0
H326 H 0.20305 0.0456 0.46946 0.0
H327 H 0.19238 0.0858 0.4852 0.0
H328 H 0.19619 0.01767 0.4249 0.0
H329 H 0.21922 0.01288 0.38704 0.0
C330 C 0.971 0.2352 0.38836 0.0
C331 C 0.96872 0.27123 0.39382 0.0
C332 C 0.92988 0.26055 0.44255 0.0
C333 C 0.93529 0.22466 0.43991 0.0
N334 N 0.96417 0.17774 0.41222 0.0
N335 N 0.95516 0.31647 0.43385 0.0
C336 C 0.95697 0.21195 0.41342 0.0
C337 C 0.95068 0.28341 0.42305 0.0
N338 N 0.98527 0.22318 0.35877 0.0
N339 N 0.90483 0.27322 0.46359 0.0
H340 H 0.97254 0.33346 0.42232 0.0
H341 H 0.94515 0.32551 0.45692 0.0
H342 H 0.88907 0.25777 0.47881 0.0
H343 H 0.89783 0.299 0.46363 0.0
H344 H 0.98459 0.19745 0.3517 0.0
H345 H 0.99539 0.23937 0.33993 0.0
H346 H 0.98258 0.16729 0.39587 0.0
H347 H 0.95311 0.16007 0.42916 0.0
C348 C 0.7496 0.93145 0.448 0.0
C349 C 0.76634 0.90442 0.43057 0.0
C350 C 0.73676 0.92031 0.37793 0.0
C351 C 0.72531 0.95109 0.39374 0.0
N352 N 0.72497 0.988 0.44349 0.0
N353 N 0.77708 0.873 0.37886 0.0
C354 C 0.73224 0.957 0.42891 0.0
C355 C 0.75999 0.89859 0.39554 0.0
N356 N 0.75103 0.93306 0.48282 0.0
N357 N 0.72476 0.91143 0.34646 0.0
H358 H 0.7928 0.85562 0.39156 0.0
H359 H 0.777 0.87009 0.35242 0.0
H360 H 0.70687 0.92614 0.33338 0.0
H361 H 0.7298 0.88793 0.33491 0.0
H362 H 0.73679 0.95036 0.49736 0.0
H363 H 0.76375 0.9147 0.49733 0.0
H364 H 0.73287 0.99488 0.46789 0.0
H365 H 0.71416 0.00835 0.43022 0.0
C366 C 0.13829 0.75245 0.44605 0.0
C367 C 0.16768 0.77017 0.43335 0.0
C368 C 0.14731 0.7603 0.37476 0.0
C369 C 0.11555 0.74789 0.38806 0.0
N370 N 0.07877 0.7374 0.43711 0.0
N371 N 0.19913 0.79331 0.38487 0.0
C372 C 0.11053 0.74515 0.42392 0.0
C373 C 0.17219 0.7744 0.39744 0.0
N374 N 0.13736 0.74181 0.47929 0.0
N375 N 0.15401 0.75793 0.34053 0.0
H376 H 0.21847 0.8033 0.40012 0.0
H377 H 0.20115 0.80098 0.35943 0.0
H378 H 0.13638 0.74777 0.32329 0.0
H379 H 0.17803 0.76308 0.32969 0.0
H380 H 0.11789 0.72628 0.48941 0.0
H381 H 0.15825 0.74509 0.49547 0.0
H382 H 0.07291 0.73902 0.46308 0.0
H383 H 0.05734 0.73263 0.42203 0.0
C384 C 0.28885 0.90134 0.57637 0.0
C385 C 0.27026 0.87468 0.5931 0.0
C386 C 0.28016 0.90281 0.64819 0.0
C387 C 0.29419 0.93186 0.63093 0.0
N388 N 0.30778 0.96059 0.57771 0.0
N389 N 0.24349 0.85262 0.64457 0.0
C390 C 0.29775 0.93153 0.59476 0.0
C391 C 0.26481 0.87594 0.62897 0.0
N392 N 0.29827 0.89757 0.54287 0.0
N393 N 0.28254 0.90022 0.68291 0.0
H394 H 0.23174 0.83244 0.63162 0.0
H395 H 0.23525 0.85495 0.66985 0.0
H396 H 0.29471 0.91867 0.69788 0.0
H397 H 0.27575 0.87812 0.69643 0.0
H398 H 0.31459 0.91456 0.53 0.0
H399 H 0.29247 0.87555 0.52888 0.0
H400 H 0.30726 0.96296 0.55123 0.0
H401 H 0.31371 0.98352 0.58998 0.0
C402 C 0.05322 0.25596 0.60736 0.0
C403 C 0.06568 0.26665 0.63953 0.0
C404 C 0.11278 0.22551 0.63426 0.0
C405 C 0.10477 0.22091 0.59922 0.0
N406 N 0.06703 0.23238 0.55183 0.0
N407 N 0.10609 0.26066 0.68513 0.0
C408 C 0.07435 0.23551 0.58576 0.0
C409 C 0.0947 0.25054 0.65382 0.0
N410 N 0.02123 0.26592 0.59744 0.0
N411 N 0.13795 0.20602 0.64854 0.0
H412 H 0.09257 0.278 0.70036 0.0
H413 H 0.12943 0.25304 0.69537 0.0
H414 H 0.15112 0.18729 0.63469 0.0
H415 H 0.1435 0.20609 0.6745 0.0
H416 H 0.00922 0.25666 0.57563 0.0
H417 H 1.00533 0.28069 0.61314 0.0
H418 H 0.04779 0.24625 0.53984 0.0
H419 H 0.08144 0.21753 0.53498 0.0
C420 C 0.78494 0.12817 0.61049 0.0
C421 C 0.81665 0.11749 0.59553 0.0
C422 C 0.82212 0.07388 0.64069 0.0
C423 C 0.7921 0.08656 0.65735 0.0
N424 N 0.74769 0.12921 0.66058 0.0
N425 N 0.86739 0.08273 0.59828 0.0
C426 C 0.77398 0.11438 0.64269 0.0
C427 C 0.8359 0.09122 0.61135 0.0
N428 N 0.76528 0.15188 0.59403 0.0
N429 N 0.8366 0.04417 0.65211 0.0
H430 H 0.87764 0.09402 0.57623 0.0
H431 H 0.88442 0.06643 0.61053 0.0
H432 H 0.82675 0.0304 0.6729 0.0
H433 H 0.8561 0.03132 0.63913 0.0
H434 H 0.73994 0.15716 0.60083 0.0
H435 H 0.77371 0.16524 0.5724 0.0
H436 H 0.73605 0.15207 0.65346 0.0
H437 H 0.73911 0.12002 0.68414 0.0
C438 C 0.93635 0.75859 0.58996 0.0
C439 C 0.92402 0.75762 0.6242 0.0
C440 C 0.87391 0.7919 0.60799 0.0
C441 C 0.88686 0.79359 0.57402 0.0
N442 N 0.92365 0.77006 0.53049 0.0
N443 N 0.87786 0.76622 0.66451 0.0
C444 C 0.91593 0.77407 0.56436 0.0
C445 C 0.89168 0.77203 0.63279 0.0
N446 N 0.96845 0.74667 0.58217 0.0
N447 N 0.84553 0.81039 0.61686 0.0
H448 H 0.89033 0.75176 0.68306 0.0
H449 H 0.85304 0.77322 0.6716 0.0
H450 H 0.83056 0.82294 0.59889 0.0
H451 H 0.83734 0.81414 0.64194 0.0
H452 H 0.98043 0.75052 0.55858 0.0
H453 H 0.98439 0.73516 0.60004 0.0
H454 H 0.9427 0.7537 0.5214 0.0
H455 H 0.90843 0.78041 0.5113 0.0
C456 C 0.43525 0.32446 0.08931 0.0
C457 C 0.39902 0.32774 0.09263 0.0
C458 C 0.40039 0.299 0.14848 0.0
C459 C 0.43593 0.29298 0.14375 0.0
N460 N 0.48911 0.3071 0.11531 0.0
N461 N 0.34925 0.32866 0.12935 0.0
C462 C 0.45403 0.30848 0.11611 0.0
C463 C 0.38237 0.31854 0.12374 0.0
N464 N 0.45129 0.3345 0.05974 0.0
N465 N 0.38365 0.28449 0.17577 0.0
H466 H 0.33599 0.34366 0.11178 0.0
H467 H 0.33612 0.32511 0.15238 0.0
H468 H 0.39666 0.27155 0.19507 0.0
H469 H 0.35705 0.28413 0.1787 0.0
H470 H 0.4767 0.32884 0.05365 0.0
H471 H 0.43874 0.3478 0.04049 0.0
H472 H 0.5044 0.3199 0.0974 0.0
H473 H 0.50317 0.29525 0.13454 0.0
C474 C 0.75574 0.40258 0.17923 0.0
C475 C 0.7602 0.43841 0.17395 0.0
C476 C 0.73959 0.43205 0.11517 0.0
C477 C 0.73154 0.39705 0.12157 0.0
N478 N 0.72717 0.35011 0.16168 0.0
N479 N 0.74896 0.48832 0.1393 0.0
C480 C 0.73832 0.38258 0.15417 0.0
C481 C 0.74997 0.45344 0.14259 0.0
N482 N 0.76947 0.38731 0.20738 0.0
N483 N 0.739 0.44462 0.08256 0.0
H484 H 0.75489 0.50486 0.15928 0.0
H485 H 0.73862 0.50071 0.11819 0.0
H486 H 0.73313 0.42946 0.06147 0.0
H487 H 0.74805 0.46898 0.07597 0.0
H488 H 0.77046 0.36081 0.21067 0.0
H489 H 0.78255 0.40094 0.22616 0.0
H490 H 0.72787 0.33964 0.18615 0.0
H491 H 0.71453 0.33461 0.1441 0.0
C492 C 0.64075 0.77242 0.12883 0.0
C493 C 0.62801 0.74549 0.10805 0.0
C494 C 0.56884 0.76185 0.12353 0.0
C495 C 0.58158 0.7916 0.14004 0.0
N496 N 0.62967 0.82708 0.15614 0.0
N497 N 0.57939 0.71762 0.08151 0.0
C498 C 0.61758 0.79732 0.14218 0.0
C499 C 0.59189 0.74065 0.10467 0.0
N500 N 0.67489 0.77364 0.13662 0.0
N501 N 0.53455 0.75418 0.12519 0.0
H502 H 0.59495 0.70212 0.06634 0.0
H503 H 0.55359 0.71605 0.07488 0.0
H504 H 0.51666 0.76971 0.13756 0.0
H505 H 0.52427 0.73093 0.11693 0.0
H506 H 0.68523 0.79059 0.15436 0.0
H507 H 0.69243 0.75544 0.12786 0.0
H508 H 0.65531 0.83476 0.15474 0.0
H509 H 0.61358 0.84523 0.16732 0.0
C510 C 0.31022 0.58412 0.12335 0.0
C511 C 0.27431 0.59091 0.1234 0.0
C512 C 0.28385 0.63645 0.08048 0.0
C513 C 0.31954 0.62905 0.07952 0.0
N514 N 0.36594 0.59205 0.09531 0.0
N515 N 0.22638 0.61648 0.0943 0.0
C516 C 0.33244 0.60154 0.09941 0.0
C517 C 0.261 0.61508 0.09974 0.0
N518 N 0.32334 0.56235 0.14723 0.0
N519 N 0.27168 0.66454 0.06357 0.0
H520 H 0.20881 0.60002 0.10629 0.0
H521 H 0.21539 0.63114 0.07505 0.0
H522 H 0.28694 0.6799 0.04765 0.0
H523 H 0.24693 0.67398 0.06719 0.0
H524 H 0.34952 0.55896 0.15105 0.0
H525 H 0.308 0.54937 0.16505 0.0
H526 H 0.37636 0.57019 0.10636 0.0
H527 H 0.38268 0.60468 0.07846 0.0
C528 C 0.42697 0.77236 0.90445 0.0
C529 C 0.42817 0.73662 0.91196 0.0
C530 C 0.47706 0.73148 0.87177 0.0
C531 C 0.47279 0.76625 0.86123 0.0
N532 N 0.43701 0.81656 0.86222 0.0
N533 N 0.45116 0.68096 0.89797 0.0
C534 C 0.44609 0.78589 0.87628 0.0
C535 C 0.45256 0.71584 0.89455 0.0
N536 N 0.40797 0.79385 0.92461 0.0
N537 N 0.50487 0.71337 0.86052 0.0
H538 H 0.43347 0.66837 0.91376 0.0
H539 H 0.46552 0.6643 0.88283 0.0
H540 H 0.52329 0.72358 0.84384 0.0
H541 H 0.51148 0.68944 0.87027 0.0
H542 H 0.40906 0.82048 0.92231 0.0
H543 H 0.39402 0.78552 0.94593 0.0
H544 H 0.41483 0.8296 0.8695 0.0
H545 H 0.44914 0.82693 0.84072 0.0
C546 C 0.28719 0.46106 0.93584 0.0
C547 C 0.29013 0.4252 0.92998 0.0
C548 C 0.2425 0.42754 0.88943 0.0
C549 C 0.24026 0.46335 0.89443 0.0
N550 N 0.25244 0.51236 0.92949 0.0
N551 N 0.26065 0.37329 0.91283 0.0
C552 C 0.25982 0.47944 0.92027 0.0
C553 C 0.26475 0.40806 0.91027 0.0
N554 N 0.31148 0.47792 0.95448 0.0
N555 N 0.22394 0.4122 0.86419 0.0
H556 H 0.27431 0.3584 0.93014 0.0
H557 H 0.24075 0.35992 0.9011 0.0
H558 H 0.20583 0.4254 0.8498 0.0
H559 H 0.22788 0.38693 0.85648 0.0
H560 H 0.31211 0.5044 0.95749 0.0
H561 H 0.33267 0.46583 0.96505 0.0
H562 H 0.26306 0.52435 0.9507 0.0
H563 H 0.23299 0.5264 0.91789 0.0
C564 C 0.63009 0.26592 0.88962 0.0
C565 C 0.60378 0.2429 0.90082 0.0
C566 C 0.62763 0.24504 0.95859 0.0
C567 C 0.64842 0.27335 0.94871 0.0
N568 N 0.67033 0.31099 0.90482 0.0
N569 N 0.57617 0.21202 0.94732 0.0
C570 C 0.65019 0.28364 0.91411 0.0
C571 C 0.60255 0.23221 0.93556 0.0
N572 N 0.63631 0.27028 0.85549 0.0
N573 N 0.63174 0.2306 0.99007 0.0
H574 H 0.55692 0.20233 0.93172 0.0
H575 H 0.57185 0.20708 0.97317 0.0
H576 H 0.64975 0.23973 0.00748 0.0
H577 H 0.61953 0.20794 0.99766 0.0
H578 H 0.65708 0.28425 0.84573 0.0
H579 H 0.62275 0.25692 0.83691 0.0
H580 H 0.66936 0.32256 0.88085 0.0
H581 H 0.6869 0.32319 0.9218 0.0
C582 C 0.73468 0.64628 0.89858 0.0
C583 C 0.73177 0.6386 0.93404 0.0
C584 C 0.76342 0.58534 0.92479 0.0
C585 C 0.76209 0.59046 0.88898 0.0
N586 N 0.74464 0.62466 0.84105 0.0
N587 N 0.73514 0.59598 0.9786 0.0
C588 C 0.74717 0.62066 0.8756 0.0
C589 C 0.74404 0.60687 0.94658 0.0
N590 N 0.72662 0.67833 0.88707 0.0
N591 N 0.78378 0.56039 0.93825 0.0
H592 H 0.71874 0.60985 0.99442 0.0
H593 H 0.74065 0.57148 0.9877 0.0
H594 H 0.79923 0.54452 0.92328 0.0
H595 H 0.78796 0.55788 0.9644 0.0
H596 H 0.73129 0.68658 0.86214 0.0
H597 H 0.71792 0.69775 0.90322 0.0
H598 H 0.73084 0.64433 0.82964 0.0
H599 H 0.7546 0.60688 0.82376 0.0
C600 C 0.15329 0.41099 0.30045 0.0
C601 C 0.12091 0.40044 0.28733 0.0
C602 C 0.13754 0.42328 0.23088 0.0
C603 C 0.16865 0.43624 0.2448 0.0
N604 N 0.20471 0.44613 0.29333 0.0
N605 N 0.0802 0.40073 0.24136 0.0
C606 C 0.17615 0.43106 0.27974 0.0
C607 C 0.11265 0.40735 0.25275 0.0
N608 N 0.16258 0.40097 0.33252 0.0
N609 N 0.13171 0.42627 0.19661 0.0
H610 H 0.06141 0.38904 0.25652 0.0
H611 H 0.07099 0.40905 0.2179 0.0
H612 H 0.14786 0.44001 0.18011 0.0
H613 H 0.11196 0.41347 0.18408 0.0
H614 H 0.18706 0.40454 0.3424 0.0
H615 H 0.14661 0.38639 0.34843 0.0
H616 H 0.20976 0.44683 0.31937 0.0
H617 H 0.22231 0.46025 0.27866 0.0
C618 C 0.0924 0.62905 0.81737 0.0
C619 C 0.12364 0.61961 0.80124 0.0
C620 C 0.10958 0.65509 0.75151 0.0
C621 C 0.07696 0.662 0.76617 0.0
N622 N 0.03505 0.6518 0.81104 0.0
N623 N 0.15918 0.61809 0.75025 0.0
C624 C 0.06775 0.64807 0.79864 0.0
C625 C 0.1315 0.63111 0.76755 0.0
N626 N 0.08676 0.62079 0.8509 0.0
N627 N 0.12021 0.67248 0.72291 0.0
H628 H 0.17586 0.60016 0.76069 0.0
H629 H 0.16379 0.62253 0.72436 0.0
H630 H 0.10518 0.69093 0.71093 0.0
H631 H 0.14513 0.67126 0.71309 0.0
H632 H 0.06631 0.63029 0.8653 0.0
H633 H 0.10408 0.60652 0.86522 0.0
H634 H 0.0256 0.6387 0.83237 0.0
H635 H 0.01632 0.66585 0.79849 0.0
C636 C 0.42082 0.12167 0.73402 0.0
C637 C 0.39624 0.1021 0.75277 0.0
C638 C 0.41883 0.1259 0.80624 0.0
C639 C 0.44538 0.14251 0.78742 0.0
N640 N 0.47699 0.14825 0.73436 0.0
N641 N 0.37681 0.07992 0.80749 0.0
C642 C 0.44801 0.13792 0.75158 0.0
C643 C 0.39651 0.10262 0.78915 0.0
N644 N 0.41737 0.12618 0.69959 0.0
N645 N 0.41409 0.13319 0.84006 0.0
H646 H 0.36084 0.06175 0.79622 0.0
H647 H 0.37882 0.07692 0.83384 0.0
H648 H 0.43012 0.14982 0.85348 0.0
H649 H 0.39272 0.12485 0.85405 0.0
H650 H 0.43291 0.14288 0.68539 0.0
H651 H 0.39663 0.11648 0.68589 0.0
H652 H 0.48153 0.14254 0.70873 0.0
H653 H 0.49815 0.15905 0.7466 0.0
C654 C 0.87513 0.42885 0.75876 0.0
C655 C 0.88876 0.44286 0.78921 0.0
C656 C 0.94475 0.41683 0.77642 0.0
C657 C 0.93234 0.40564 0.74449 0.0
N658 N 0.88598 0.40021 0.70465 0.0
N659 N 0.93858 0.45709 0.82288 0.0
C660 C 0.89753 0.4115 0.73547 0.0
C661 C 0.9241 0.4386 0.79699 0.0
N662 N 0.84068 0.43121 0.7527 0.0
N663 N 0.97627 0.40641 0.78732 0.0
H664 H 0.92499 0.47491 0.83743 0.0
H665 H 0.9649 0.45779 0.82739 0.0
H666 H 0.99201 0.39022 0.77301 0.0
H667 H 0.98527 0.41088 0.8119 0.0
H668 H 0.82828 0.41908 0.7326 0.0
H669 H 0.82381 0.44401 0.76906 0.0
H670 H 0.86247 0.40691 0.69421 0.0
H671 H 0.90054 0.38418 0.68914 0.0
C672 C 0.66468 0.93899 0.76333 0.0
C673 C 0.65872 0.9535 0.7306 0.0
C674 C 0.60342 0.92242 0.72842 0.0
C675 C 0.61117 0.90502 0.75942 0.0
N676 N 0.65317 0.89197 0.80245 0.0
N677 N 0.62546 0.95315 0.6789 0.0
C678 C 0.64291 0.91205 0.77582 0.0
C679 C 0.62891 0.9436 0.71229 0.0
N680 N 0.69043 0.95178 0.78317 0.0
N681 N 0.5712 0.92016 0.71503 0.0
H682 H 0.64366 0.96805 0.66587 0.0
H683 H 0.60625 0.94349 0.66318 0.0
H684 H 0.55138 0.90592 0.72628 0.0
H685 H 0.5631 0.93525 0.69467 0.0
H686 H 0.69367 0.9448 0.80863 0.0
H687 H 0.70645 0.97191 0.77534 0.0
H688 H 0.67755 0.8936 0.81309 0.0
H689 H 0.63878 0.87119 0.81155 0.0
C690 C 0.92503 0.60599 0.30739 0.0
C691 C 0.93195 0.6371 0.28949 0.0
C692 C 0.88275 0.62599 0.25261 0.0
C693 C 0.87361 0.59668 0.27263 0.0
N694 N 0.88241 0.56326 0.32365 0.0
N695 N 0.9118 0.68105 0.25136 0.0
C696 C 0.89362 0.58811 0.30151 0.0
C697 C 0.90893 0.64853 0.2642 0.0
N698 N 0.94915 0.59234 0.32852 0.0
N699 N 0.86879 0.63099 0.22112 0.0
H700 H 0.93038 0.69847 0.25965 0.0
H701 H 0.89351 0.69173 0.23528 0.0
H702 H 0.85251 0.61334 0.20955 0.0
H703 H 0.87696 0.6504 0.20455 0.0
H704 H 0.94693 0.56789 0.33912 0.0
H705 H 0.97294 0.60386 0.33286 0.0
H706 H 0.89433 0.55815 0.34681 0.0
H707 H 0.85924 0.5501 0.32048 0.0
C708 C 0.41153 0.94955 0.2862 0.0
C709 C 0.37562 0.94349 0.28281 0.0
C710 C 0.38737 0.90006 0.23882 0.0
C711 C 0.42282 0.90869 0.23986 0.0
N712 N 0.46902 0.94232 0.26319 0.0
N713 N 0.32873 0.91487 0.25494 0.0
C714 C 0.43497 0.9335 0.26334 0.0
C715 C 0.36334 0.91924 0.2588 0.0
N716 N 0.42339 0.97028 0.31174 0.0
N717 N 0.37691 0.87311 0.21915 0.0
H718 H 0.31067 0.92788 0.26983 0.0
H719 H 0.31777 0.90017 0.23571 0.0
H720 H 0.39412 0.85834 0.20501 0.0
H721 H 0.35195 0.86342 0.21908 0.0
H722 H 0.44911 0.97202 0.31859 0.0
H723 H 0.4074 0.98472 0.32754 0.0
H724 H 0.47894 0.96374 0.27562 0.0
H725 H 0.4874 0.92885 0.24925 0.0
C726 C 0.59159 0.1489 0.31704 0.0
C727 C 0.62162 0.13525 0.30147 0.0
C728 C 0.61108 0.16975 0.25048 0.0
C729 C 0.57803 0.17779 0.26331 0.0
N730 N 0.53594 0.17519 0.30863 0.0
N731 N 0.65869 0.13024 0.25186 0.0
C732 C 0.56821 0.16791 0.29683 0.0
C733 C 0.63142 0.14542 0.26795 0.0
N734 N 0.58577 0.1441 0.35119 0.0
N735 N 0.62288 0.18552 0.22153 0.0
H736 H 0.67391 0.11166 0.26334 0.0
H737 H 0.66445 0.1339 0.22607 0.0
H738 H 0.60873 0.20452 0.20944 0.0
H739 H 0.64784 0.18287 0.21211 0.0
H740 H 0.56599 0.15605 0.36464 0.0
H741 H 0.60269 0.13067 0.36674 0.0
H742 H 0.52561 0.16493 0.33108 0.0
H743 H 0.51883 0.19034 0.29494 0.0
C744 C 0.78776 0.99692 0.5818 0.0
C745 C 0.76033 0.98524 0.60271 0.0
C746 C 0.76831 0.9272 0.58089 0.0
C747 C 0.80062 0.93735 0.56681 0.0
N748 N 0.84141 0.98249 0.55358 0.0
N749 N 0.72333 0.9394 0.62218 0.0
C750 C 0.81021 0.97255 0.56651 0.0
C751 C 0.74998 0.95044 0.60195 0.0
N752 N 0.79205 0.03126 0.57649 0.0
N753 N 0.75459 0.89584 0.57312 0.0
H754 H 0.70805 0.95619 0.63635 0.0
H755 H 0.71751 0.91356 0.62611 0.0
H756 H 0.76631 0.87893 0.55605 0.0
H757 H 0.72985 0.88831 0.58037 0.0
H758 H 0.80977 0.04145 0.55908 0.0
H759 H 0.77516 0.04919 0.58697 0.0
H760 H 0.85118 0.00728 0.55614 0.0
H761 H 0.85865 0.96536 0.54245 0.0
C762 C 0.12123 0.76431 0.59774 0.0
C763 C 0.12349 0.80067 0.59775 0.0
C764 C 0.07573 0.80311 0.63876 0.0
C765 C 0.07683 0.76683 0.64211 0.0
N766 N 0.1061 0.71357 0.62998 0.0
N767 N 0.10661 0.85479 0.62234 0.0
C768 C 0.10106 0.74756 0.62301 0.0
C769 C 0.1017 0.8202 0.61931 0.0
N770 N 0.13739 0.74569 0.57285 0.0
N771 N 0.04918 0.82115 0.65288 0.0
H772 H 0.12553 0.86821 0.60873 0.0
H773 H 0.09392 0.86963 0.64056 0.0
H774 H 0.02907 0.80952 0.66644 0.0
H775 H 0.04533 0.84717 0.64828 0.0
H776 H 0.13357 0.7194 0.56966 0.0
H777 H 0.15161 0.75701 0.55314 0.0
H778 H 0.12603 0.69942 0.61914 0.0
H779 H 0.09288 0.70038 0.64924 0.0
C780 C 0.27478 0.12376 0.57422 0.0
C781 C 0.25799 0.15182 0.59018 0.0
C782 C 0.27822 0.13152 0.64583 0.0
C783 C 0.29001 0.10069 0.63046 0.0
N784 N 0.29448 0.06532 0.57998 0.0
N785 N 0.2389 0.1792 0.64232 0.0
C786 C 0.28723 0.0963 0.59456 0.0
C787 C 0.25858 0.15504 0.6263 0.0
N788 N 0.27936 0.12363 0.53957 0.0
N789 N 0.28665 0.13893 0.67882 0.0
H790 H 0.22344 0.19649 0.62929 0.0
H791 H 0.23544 0.17997 0.66873 0.0
H792 H 0.30211 0.12307 0.69356 0.0
H793 H 0.2815 0.16252 0.6902 0.0
H794 H 0.29428 0.1055 0.52683 0.0
H795 H 0.27128 0.14369 0.52395 0.0
H796 H 0.2893 0.05964 0.55454 0.0
H797 H 0.30245 0.04411 0.59396 0.0
C798 C 0.89377 0.28629 0.60207 0.0
C799 C 0.9073 0.27458 0.57054 0.0
C800 C 0.95034 0.32104 0.57146 0.0
C801 C 0.93973 0.32976 0.605 0.0
N802 N 0.90708 0.31367 0.6556 0.0
N803 N 0.95254 0.27726 0.52793 0.0
C804 C 0.9127 0.31081 0.6212 0.0
C805 C 0.93671 0.29101 0.55592 0.0
N806 N 0.86344 0.27324 0.61438 0.0
N807 N 0.97317 0.34164 0.55425 0.0
H808 H 0.94339 0.25543 0.51578 0.0
H809 H 0.97621 0.28581 0.5185 0.0
H810 H 0.98356 0.36389 0.56486 0.0
H811 H 0.97921 0.33847 0.52847 0.0
H812 H 0.85072 0.28344 0.63556 0.0
H813 H 0.84949 0.25428 0.60175 0.0
H814 H 0.88997 0.29797 0.66911 0.0
H815 H 0.92241 0.32853 0.67151 0.0
C816 C 0.7286 0.10719 0.44549 0.0
C817 C 0.73272 0.1057 0.40936 0.0
C818 C 0.77891 0.14878 0.41218 0.0
C819 C 0.77561 0.14922 0.44824 0.0
N820 N 0.74032 0.13825 0.49786 0.0
N821 N 0.75458 0.13241 0.35783 0.0
C822 C 0.74795 0.13167 0.46442 0.0
C823 C 0.75562 0.12888 0.39255 0.0
N824 N 0.70814 0.08377 0.46206 0.0
N825 N 0.80509 0.16675 0.39682 0.0
H826 H 0.73776 0.11847 0.34259 0.0
H827 H 0.76807 0.15129 0.34438 0.0
H828 H 0.8208 0.18372 0.41024 0.0
H829 H 0.81206 0.1639 0.37125 0.0
H830 H 0.70756 0.08093 0.48851 0.0
H831 H 0.69368 0.06523 0.44946 0.0
H832 H 0.71873 0.12836 0.51042 0.0
H833 H 0.75345 0.15674 0.51189 0.0
C834 C 0.92092 0.77587 0.37579 0.0
C835 C 0.95624 0.77441 0.38438 0.0
C836 C 0.94505 0.80889 0.43572 0.0
C837 C 0.90992 0.81109 0.42649 0.0
N838 N 0.86653 0.80492 0.38347 0.0
N839 N 1.0034 0.79562 0.41789 0.0
C840 C 0.89859 0.79718 0.3951 0.0
C841 C 0.96877 0.79282 0.41297 0.0
N842 N 0.90824 0.75543 0.35043 0.0
N843 N 0.95549 0.82061 0.46683 0.0
H844 H 0.02141 0.78438 0.40156 0.0
H845 H 0.01433 0.81153 0.4362 0.0
H846 H 0.9392 0.83332 0.48379 0.0
H847 H 0.97969 0.81579 0.47681 0.0
H848 H 0.88209 0.75256 0.34572 0.0
H849 H 0.92347 0.73885 0.33601 0.0
H850 H 0.85796 0.79833 0.35922 0.0
H851 H 0.84983 0.8211 0.39673 0.0
C852 C 0.26745 0.96781 0.43923 0.0
C853 C 0.27656 0.95494 0.40642 0.0
C854 C 0.242 0.90344 0.41697 0.0
C855 C 0.23623 0.9143 0.45091 0.0
N856 N 0.24699 0.95437 0.49645 0.0
N857 N 0.27871 0.9072 0.36715 0.0
C858 C 0.24991 0.94585 0.46272 0.0
C859 C 0.26559 0.92177 0.39618 0.0
N860 N 0.27396 1.00128 0.44741 0.0
N861 N 0.22428 0.87593 0.4044 0.0
H862 H 0.29715 0.91926 0.35177 0.0
H863 H 0.2741 0.88177 0.36033 0.0
H864 H 0.20603 0.86249 0.41892 0.0
H865 H 0.22494 0.86888 0.37875 0.0
H866 H 0.26447 0.01289 0.46947 0.0
H867 H 0.28626 0.01844 0.43086 0.0
H868 H 0.25981 0.97514 0.50729 0.0
H869 H 0.23347 0.9393 0.51413 0.0
C870 C 0.15051 0.27095 0.43687 0.0
C871 C 0.15705 0.28476 0.46957 0.0
C872 C 0.12551 0.33669 0.45249 0.0
C873 C 0.11524 0.31992 0.42206 0.0
N874 N 0.10877 0.266 0.39232 0.0
N875 N 0.14501 0.32957 0.51076 0.0
C876 C 0.1248 0.28543 0.41651 0.0
C877 C 0.1431 0.31747 0.47814 0.0
N878 N 0.17004 0.24487 0.42435 0.0
N879 N 0.11924 0.37084 0.45661 0.0
H880 H 0.15649 0.31604 0.5305 0.0
H881 H 0.13243 0.35168 0.51884 0.0
H882 H 0.10603 0.38525 0.43855 0.0
H883 H 0.12932 0.38517 0.47664 0.0
H884 H 0.16766 0.23601 0.39935 0.0
H885 H 0.19151 0.23589 0.43729 0.0
H886 H 0.11349 0.23984 0.3894 0.0
H887 H 0.08796 0.27495 0.3783 0.0
C888 C 0.63281 0.8031 0.96542 0.0
C889 C 0.62976 0.76698 0.96177 0.0
C890 C 0.5958 0.77443 0.91024 0.0
C891 C 0.60187 0.81036 0.91174 0.0
N892 N 0.6285 0.85914 0.93856 0.0
N893 N 0.612 0.71769 0.9292 0.0
C894 C 0.62086 0.82487 0.93887 0.0
C895 C 0.61223 0.75247 0.93378 0.0
N896 N 0.64637 0.8165 0.99463 0.0
N897 N 0.57306 0.76135 0.88723 0.0
H898 H 0.62219 0.70058 0.94686 0.0
H899 H 0.60388 0.70585 0.90683 0.0
H900 H 0.55975 0.7765 0.86994 0.0
H901 H 0.56489 0.7359 0.88751 0.0
H902 H 0.64606 0.84254 1.00051 0.0
H903 H 0.65566 0.80124 0.01439 0.0
H904 H 0.64541 0.87071 0.95553 0.0
H905 H 0.61967 0.87578 0.91972 0.0
C906 C 0.30715 0.60416 0.90618 0.0
C907 C 0.30981 0.64045 0.90575 0.0
C908 C 0.27422 0.64194 0.85422 0.0
C909 C 0.27511 0.60545 0.85257 0.0
N910 N 0.299 0.55242 0.87315 0.0
N911 N 0.30015 0.69396 0.87649 0.0
C912 C 0.29351 0.58675 0.87749 0.0
C913 C 0.29446 0.65943 0.87901 0.0
N914 N 0.31661 0.58631 0.93463 0.0
N915 N 0.25297 0.65994 0.83327 0.0
H916 H 0.31428 0.70773 0.89435 0.0
H917 H 0.2931 0.70843 0.85532 0.0
H918 H 0.23782 0.64847 0.81468 0.0
H919 H 0.24827 0.68606 0.83616 0.0
H920 H 0.31273 0.56006 0.9374 0.0
H921 H 0.32495 0.59821 0.95694 0.0
H922 H 0.31499 0.53807 0.88879 0.0
H923 H 0.29063 0.53908 0.85168 0.0
C924 C 0.44052 0.29178 0.94229 0.0
C925 C 0.41017 0.30586 0.92831 0.0
C926 C 0.42283 0.27832 0.87304 0.0
C927 C 0.45323 0.26446 0.88711 0.0
N928 N 0.49453 0.26238 0.93252 0.0
N929 N 0.36989 0.31022 0.8823 0.0
C930 C 0.463 0.27241 0.92107 0.0
C931 C 0.40066 0.29859 0.8941 0.0
N932 N 0.44689 0.29567 0.97639 0.0
N933 N 0.41555 0.27232 0.83946 0.0
H934 H 0.35308 0.32457 0.89731 0.0
H935 H 0.35975 0.30425 0.85857 0.0
H936 H 0.43101 0.25715 0.82377 0.0
H937 H 0.39543 0.28353 0.82633 0.0
H938 H 0.46666 0.2835 0.98926 0.0
H939 H 0.43045 0.30888 0.99283 0.0
H940 H 0.50492 0.2698 0.95576 0.0
H941 H 0.51196 0.24886 0.91739 0.0
C942 C 0.7459 0.43036 0.96194 0.0
C943 C 0.75683 0.39575 0.96258 0.0
C944 C 0.80704 0.4114 0.92762 0.0
C945 C 0.79233 0.44396 0.92156 0.0
N946 N 0.74602 0.48387 0.93102 0.0
N947 N 0.79631 0.35214 0.9431 0.0
C948 C 0.76135 0.45337 0.93833 0.0
C949 C 0.7873 0.38592 0.94503 0.0
N950 N 0.72153 0.44158 0.98462 0.0
N951 N 0.83973 0.40482 0.91669 0.0
H952 H 0.78207 0.33247 0.95457 0.0
H953 H 0.81618 0.34326 0.92751 0.0
H954 H 0.85498 0.42336 0.90468 0.0
H955 H 0.85289 0.3825 0.92292 0.0
H956 H 0.71515 0.46735 0.98748 0.0
H957 H 0.71039 0.42575 1.0032 0.0
H958 H 0.72134 0.49019 0.93928 0.0
H959 H 0.75715 0.50189 0.91474 0.0
C960 C 0.58924 0.26091 0.06892 0.0
C961 C 0.61535 0.27856 0.08709 0.0
C962 C 0.59291 0.25539 0.14062 0.0
C963 C 0.57147 0.23265 0.12205 0.0
N964 N 0.54927 0.21287 0.06833 0.0
N965 N 0.64337 0.29167 0.14028 0.0
C966 C 0.56936 0.23534 0.08609 0.0
C967 C 0.61771 0.27538 0.12295 0.0
N968 N 0.58315 0.26884 0.03554 0.0
N969 N 0.58793 0.25971 0.17489 0.0
H970 H 0.66049 0.30885 0.12868 0.0
H971 H 0.64879 0.28661 0.16581 0.0
H972 H 0.56797 0.24767 0.18814 0.0
H973 H 0.60073 0.27821 0.18922 0.0
H974 H 0.56227 0.2593 0.02201 0.0
H975 H 0.59747 0.28709 0.02205 0.0
H976 H 0.54963 0.21106 0.0418 0.0
H977 H 0.5339 0.19434 0.08033 0.0
C978 C 0.77184 0.61795 0.15495 0.0
C979 C 0.7905 0.58858 0.14408 0.0
C980 C 0.77529 0.60156 0.08485 0.0
C981 C 0.75233 0.6272 0.09654 0.0
N982 N 0.72549 0.6573 0.14338 0.0
N983 N 0.80524 0.54923 0.09856 0.0
C984 C 0.74986 0.63492 0.13176 0.0
C985 C 0.79126 0.57961 0.10892 0.0
N986 N 0.77576 0.63025 0.18728 0.0
N987 N 0.78261 0.59881 0.05079 0.0
H988 H 0.81653 0.53184 0.1152 0.0
H989 H 0.80278 0.53982 0.0738 0.0
H990 H 0.7725 0.61555 0.03273 0.0
H991 H 0.8015 0.5826 0.04104 0.0
H992 H 0.76557 0.65346 0.19561 0.0
H993 H 0.79239 0.61914 0.20458 0.0
H994 H 0.71979 0.66071 0.16919 0.0
H995 H 0.70883 0.67034 0.12727 0.0
C996 C 0.38076 0.78186 0.08635 0.0
C997 C 0.395 0.77759 0.05326 0.0
C998 C 0.43289 0.82731 0.06295 0.0
C999 C 0.42296 0.82751 0.09788 0.0
N1000 N 0.39198 0.79955 0.14425 0.0
N1001 N 0.43647 0.79488 0.0103 0.0
C1002 C 0.39773 0.80367 0.10997 0.0
C1003 C 0.42147 0.8001 0.04154 0.0
N1004 N 0.35152 0.76456 0.09558 0.0
N1005 N 0.45271 0.85343 0.05012 0.0
H1006 H 0.42812 0.77594 0.99351 0.0
H1007 H 0.45848 0.80782 1.00197 0.0
H1008 H 0.46111 0.87392 0.06507 0.0
H1009 H 0.45802 0.85653 0.02417 0.0
H1010 H 0.33836 0.76908 0.11842 0.0
H1011 H 0.33835 0.74857 0.07884 0.0
H1012 H 0.37649 0.7801 0.15439 0.0
H1013 H 0.40565 0.81273 0.16286 0.0
C1014 C 0.24375 0.37664 0.09072 0.0
C1015 C 0.25402 0.38751 0.05778 0.0
C1016 C 0.22128 0.44056 0.06407 0.0
C1017 C 0.21505 0.43178 0.09866 0.0
N1018 N 0.20678 0.38696 0.13991 0.0
N1019 N 0.24261 0.422 0.00851 0.0
C1020 C 0.22159 0.39802 0.11019 0.0
C1021 C 0.23886 0.41676 0.0428 0.0
N1022 N 0.25701 0.34723 0.10402 0.0
N1023 N 0.21281 0.47243 0.05246 0.0
H1024 H 0.25512 0.40414 0.99301 0.0
H1025 H 0.23076 0.44178 0.99524 0.0
H1026 H 0.19886 0.48973 0.06731 0.0
H1027 H 0.22031 0.48199 0.02868 0.0
H1028 H 0.2538 0.33986 0.12943 0.0
H1029 H 0.27229 0.33077 0.08944 0.0
H1030 H 0.20898 0.36203 0.14921 0.0
H1031 H 0.18902 0.4021 0.15296 0.0
C1032 C 0.89901 0.6282 0.81673 0.0
C1033 C 0.90993 0.5937 0.81491 0.0
C1034 C 0.95695 0.6103 0.77654 0.0
C1035 C 0.94213 0.64344 0.77344 0.0
N1036 N 0.89773 0.68371 0.78898 0.0
N1037 N 0.94853 0.55085 0.79314 0.0
C1038 C 0.91314 0.65262 0.79358 0.0
C1039 C 0.93907 0.5845 0.79527 0.0
N1040 N 0.87477 0.63728 0.84045 0.0
N1041 N 0.98843 0.60372 0.76233 0.0
H1042 H 0.9368 0.53163 0.80778 0.0
H1043 H 0.96672 0.54177 0.77575 0.0
H1044 H 1.00259 0.62204 0.74875 0.0
H1045 H 1.00203 0.58125 0.76678 0.0
H1046 H 0.86771 0.66256 0.84526 0.0
H1047 H 0.86419 0.6196 0.85771 0.0
H1048 H 0.87436 0.6903 0.80026 0.0
H1049 H 0.90672 0.70206 0.77164 0.0
C1050 C 0.91883 0.4475 0.29051 0.0
C1051 C 0.91378 0.44458 0.25473 0.0
C1052 C 0.96039 0.40269 0.25211 0.0
C1053 C 0.96111 0.40115 0.28855 0.0
N1054 N 0.935 0.41814 0.34222 0.0
N1055 N 0.9267 0.41528 0.20199 0.0
C1056 C 0.93886 0.42265 0.30777 0.0
C1057 C 0.93385 0.4212 0.23557 0.0
N1058 N 0.90514 0.47456 0.308 0.0
N1059 N 0.98566 0.38755 0.23309 0.0
H1060 H 0.90735 0.42799 0.1889 0.0
H1061 H 0.93797 0.39554 0.18798 0.0
H1062 H 1.00623 0.3746 0.24378 0.0
H1063 H 0.9882 0.39103 0.20679 0.0
H1064 H 0.91067 0.4796 0.33351 0.0
H1065 H 0.89159 0.49411 0.296 0.0
H1066 H 0.91647 0.431 0.35661 0.0
H1067 H 0.94737 0.39894 0.35585 0.0
C1068 C 0.61789 0.9431 0.26312 0.0
C1069 C 0.60854 0.9782 0.26448 0.0
C1070 C 0.55961 0.96671 0.2266 0.0
C1071 C 0.56915 0.93159 0.22511 0.0
N1072 N 0.61157 0.88803 0.2351 0.0
N1073 N 0.5742 0.02492 0.24342 0.0
C1074 C 0.59958 0.92035 0.2414 0.0
C1075 C 0.58072 0.9905 0.24466 0.0
N1076 N 0.64415 0.9314 0.2829 0.0
N1077 N 0.52928 0.97702 0.21266 0.0
H1078 H 0.58726 0.04293 0.25816 0.0
H1079 H 0.55727 0.03603 0.22627 0.0
H1080 H 0.51349 0.96083 0.19857 0.0
H1081 H 0.51846 1.00102 0.21685 0.0
H1082 H 0.64934 0.9055 0.28667 0.0
H1083 H 0.65986 0.94758 0.29717 0.0
H1084 H 0.63538 0.87924 0.24308 0.0
H1085 H 0.59902 0.87084 0.21905 0.0
C1086 C 0.12067 0.57875 0.25607 0.0
C1087 C 0.1355 0.59024 0.22486 0.0
C1088 C 0.10601 0.64527 0.2319 0.0
C1089 C 0.09664 0.63596 0.26595 0.0
N1090 N 0.10043 0.59485 0.31221 0.0
N1091 N 0.14445 0.63556 0.18377 0.0
C1092 C 0.10502 0.6028 0.27844 0.0
C1093 C 0.12853 0.62374 0.21274 0.0
N1094 N 0.12133 0.54465 0.26422 0.0
N1095 N 0.09247 0.67404 0.21741 0.0
H1096 H 0.16037 0.62028 0.16866 0.0
H1097 H 0.14368 0.66113 0.17602 0.0
H1098 H 0.07472 0.68959 0.23 0.0
H1099 H 0.09595 0.6804 0.19175 0.0
H1100 H 0.10803 0.53429 0.28507 0.0
H1101 H 0.13201 0.52625 0.24802 0.0
H1102 H 0.10943 0.57225 0.32309 0.0
H1103 H 0.09114 0.61214 0.33026 0.0
C1104 C 0.44992 0.10566 0.25941 0.0
C1105 C 0.43586 0.13086 0.23732 0.0
C1106 C 0.37934 0.12184 0.26388 0.0
C1107 C 0.3922 0.09303 0.28177 0.0
N1108 N 0.43947 0.05523 0.29403 0.0
N1109 N 0.38608 0.15989 0.21536 0.0
C1110 C 0.42749 0.08443 0.2791 0.0
C1111 C 0.40027 0.1383 0.23883 0.0
N1112 N 0.48471 0.1029 0.26281 0.0
N1113 N 0.34729 0.13396 0.27147 0.0
H1114 H 0.40034 0.1718 0.19598 0.0
H1115 H 0.35969 0.16337 0.21305 0.0
H1116 H 0.33172 0.12312 0.29053 0.0
H1117 H 0.33774 0.1568 0.26162 0.0
H1118 H 0.4962 0.08764 0.2813 0.0
H1119 H 0.50215 0.11834 0.24953 0.0
H1120 H 0.46375 0.04522 0.28895 0.0
H1121 H 0.42438 0.03974 0.30982 0.0
C1122 C 0.08027 0.44998 0.73974 0.0
C1123 C 0.08988 0.43772 0.70683 0.0
C1124 C 0.14713 0.46446 0.71292 0.0
C1125 C 0.13641 0.47909 0.74436 0.0
N1126 N 0.09342 0.48621 0.78844 0.0
N1127 N 0.13163 0.43326 0.66136 0.0
C1128 C 0.10326 0.4716 0.75813 0.0
C1129 C 0.1232 0.44484 0.69328 0.0
N1130 N 0.04895 0.44106 0.75331 0.0
N1131 N 0.18034 0.46914 0.70219 0.0
H1132 H 0.11529 0.41772 0.64704 0.0
H1133 H 0.154 0.44007 0.64823 0.0
H1134 H 0.19808 0.48351 0.71608 0.0
H1135 H 0.19116 0.45716 0.681 0.0
H1136 H 0.0417 0.44528 0.77858 0.0
H1137 H 0.03021 0.42797 0.7396 0.0
H1138 H 0.06843 0.48592 0.79804 0.0
H1139 H 0.11026 0.49997 0.8039 0.0
C1140 C 0.59305 0.16606 0.72124 0.0
C1141 C 0.60525 0.18337 0.75072 0.0
C1142 C 0.66057 0.15417 0.74411 0.0
C1143 C 0.64638 0.13257 0.71877 0.0
N1144 N 0.59813 0.11654 0.68396 0.0
N1145 N 0.64909 0.18854 0.79398 0.0
C1146 C 0.61248 0.13843 0.70708 0.0
C1147 C 0.63881 0.17645 0.76292 0.0
N1148 N 0.56297 0.17621 0.70675 0.0
N1149 N 0.69503 0.15322 0.75039 0.0
H1150 H 0.63348 0.20299 0.81007 0.0
H1151 H 0.67184 0.18101 0.80556 0.0
H1152 H 0.71175 0.13726 0.73692 0.0
H1153 H 0.70738 0.17076 0.76622 0.0
H1154 H 0.55409 0.16678 0.68357 0.0
H1155 H 0.54842 0.19646 0.71646 0.0
H1156 H 0.57223 0.11692 0.67755 0.0
H1157 H 0.61169 0.09648 0.67269 0.0
C1158 C 0.41942 0.91963 0.81211 0.0
C1159 C 0.45447 0.92094 0.80235 0.0
C1160 C 0.44234 0.96702 0.76183 0.0
C1161 C 0.40662 0.96132 0.76709 0.0
N1162 N 0.36054 0.93121 0.79619 0.0
N1163 N 0.50002 0.94492 0.7675 0.0
C1164 C 0.3949 0.93768 0.79233 0.0
C1165 C 0.4662 0.94456 0.77725 0.0
N1166 N 0.40979 0.90131 0.8404 0.0
N1167 N 0.45348 0.99472 0.7432 0.0
H1168 H 0.51867 0.93032 0.77969 0.0
H1169 H 0.50925 0.9583 0.74624 0.0
H1170 H 0.43679 0.01254 0.73255 0.0
H1171 H 0.47918 1.00207 0.74127 0.0
H1172 H 0.38501 0.9014 0.85064 0.0
H1173 H 0.42766 0.88886 0.85567 0.0
H1174 H 0.35064 0.91165 0.81159 0.0
H1175 H 0.34185 0.94373 0.78199 0.0
loop_
_geom_bond_atom_site_label_1
_geom_bond_atom_site_label_2
_geom_bond_distance
_geom_bond_site_symmetry_2
_ccdc_geom_bond_type
Mg0 O7 2.141 . S
Mg0 O8 2.048 1_545 S
Mg0 O9 2.048 1_545 S
Mg0 O12 2.141 . S
C1 O2 1.313 . S
C1 O8 1.195 . S
O2 C1 1.313 . S
C3 O4 1.245 . S
C3 O12 1.289 . S
O4 C3 1.245 . S
C5 O6 1.245 . S
C5 O7 1.289 . S
O6 C5 1.245 . S
O7 Mg0 2.141 . S
O7 C5 1.289 . S
O8 Mg0 2.048 1_565 S
O8 C1 1.195 . S
O9 Mg0 2.048 1_565 S
O9 C10 1.195 . S
C10 O9 1.195 . S
C10 O11 1.313 . S
O11 C10 1.313 . S
O12 Mg0 2.141 . S
O12 C3 1.289 . S
Mg13 O20 2.141 . S
Mg13 O21 2.048 1_455 S
Mg13 O22 2.048 1_455 S
Mg13 O25 2.141 . S
C14 O15 1.313 . S
C14 O21 1.195 . S
O15 C14 1.313 . S
C16 O17 1.245 . S
C16 O25 1.289 . S
O17 C16 1.245 . S
C18 O19 1.245 . S
C18 O20 1.289 . S
O19 C18 1.245 . S
O20 Mg13 2.141 . S
O20 C18 1.289 . S
O21 Mg13 2.048 1_655 S
O21 C14 1.195 . S
O22 Mg13 2.048 1_655 S
O22 C23 1.195 . S
C23 O22 1.195 . S
C23 O24 1.313 . S
O24 C23 1.313 . S
O25 Mg13 2.141 . S
O25 C16 1.289 . S
Mg26 O33 2.141 1_545 S
Mg26 O34 2.048 . S
Mg26 O35 2.048 . S
Mg26 O38 2.141 1_545 S
C27 O28 1.313 . S
C27 O34 1.195 . S
O28 C27 1.313 . S
C29 O30 1.245 . S
C29 O38 1.289 . S
O30 C29 1.245 . S
C31 O32 1.245 . S
C31 O33 1.289 . S
O32 C31 1.245 . S
O33 Mg26 2.141 1_565 S
O33 C31 1.289 . S
O34 Mg26 2.048 . S
O34 C27 1.195 . S
O35 Mg26 2.048 . S
O35 C36 1.195 . S
C36 O35 1.195 . S
C36 O37 1.313 . S
O37 C36 1.313 . S
O38 Mg26 2.141 1_565 S
O38 C29 1.289 . S
Mg39 O46 2.141 1_455 S
Mg39 O47 2.048 . S
Mg39 O48 2.048 . S
Mg39 O51 2.141 1_455 S
C40 O41 1.313 . S
C40 O47 1.195 . S
O41 C40 1.313 . S
C42 O43 1.245 . S
C42 O51 1.289 . S
O43 C42 1.245 . S
C44 O45 1.245 . S
C44 O46 1.289 . S
O45 C44 1.245 . S
O46 Mg39 2.141 1_655 S
O46 C44 1.289 . S
O47 Mg39 2.048 . S
O47 C40 1.195 . S
O48 Mg39 2.048 . S
O48 C49 1.195 . S
C49 O48 1.195 . S
C49 O50 1.313 . S
O50 C49 1.313 . S
O51 Mg39 2.141 1_655 S
O51 C42 1.289 . S
Mg52 O59 2.141 1_545 S
Mg52 O60 2.048 . S
Mg52 O61 2.048 . S
Mg52 O64 2.141 1_545 S
C53 O54 1.313 . S
C53 O60 1.195 . S
O54 C53 1.313 . S
C55 O56 1.245 . S
C55 O64 1.289 . S
O56 C55 1.245 . S
C57 O58 1.245 . S
C57 O59 1.289 . S
O58 C57 1.245 . S
O59 Mg52 2.141 1_565 S
O59 C57 1.289 . S
O60 Mg52 2.048 . S
O60 C53 1.195 . S
O61 Mg52 2.048 . S
O61 C62 1.195 . S
C62 O61 1.195 . S
C62 O63 1.313 . S
O63 C62 1.313 . S
O64 Mg52 2.141 1_565 S
O64 C55 1.289 . S
Mg65 O72 2.141 . S
Mg65 O73 2.048 1_455 S
Mg65 O74 2.048 1_455 S
Mg65 O77 2.141 . S
C66 O67 1.313 . S
C66 O73 1.195 . S
O67 C66 1.313 . S
C68 O69 1.245 . S
C68 O77 1.289 . S
O69 C68 1.245 . S
C70 O71 1.245 . S
C70 O72 1.289 . S
O71 C70 1.245 . S
O72 Mg65 2.141 . S
O72 C70 1.289 . S
O73 Mg65 2.048 1_655 S
O73 C66 1.195 . S
O74 Mg65 2.048 1_655 S
O74 C75 1.195 . S
C75 O74 1.195 . S
C75 O76 1.313 . S
O76 C75 1.313 . S
O77 Mg65 2.141 . S
O77 C68 1.289 . S
Mg78 O85 2.141 . S
Mg78 O86 2.048 1_545 S
Mg78 O87 2.048 1_545 S
Mg78 O90 2.141 . S
C79 O80 1.313 . S
C79 O86 1.195 . S
O80 C79 1.313 . S
C81 O82 1.245 . S
C81 O90 1.289 . S
O82 C81 1.245 . S
C83 O84 1.245 . S
C83 O85 1.289 . S
O84 C83 1.245 . S
O85 Mg78 2.141 . S
O85 C83 1.289 . S
O86 Mg78 2.048 1_565 S
O86 C79 1.195 . S
O87 Mg78 2.048 1_565 S
O87 C88 1.195 . S
C88 O87 1.195 . S
C88 O89 1.313 . S
O89 C88 1.313 . S
O90 Mg78 2.141 . S
O90 C81 1.289 . S
Mg91 O98 2.141 1_455 S
Mg91 O99 2.048 . S
Mg91 O100 2.048 . S
Mg91 O103 2.141 1_455 S
C92 O93 1.313 . S
C92 O99 1.195 . S
O93 C92 1.313 . S
C94 O95 1.245 . S
C94 O103 1.289 . S
O95 C94 1.245 . S
C96 O97 1.245 . S
C96 O98 1.289 . S
O97 C96 1.245 . S
O98 Mg91 2.141 1_655 S
O98 C96 1.289 . S
O99 Mg91 2.048 . S
O99 C92 1.195 . S
O100 Mg91 2.048 . S
O100 C101 1.195 . S
C101 O100 1.195 . S
C101 O102 1.313 . S
O102 C101 1.313 . S
O103 Mg91 2.141 1_655 S
O103 C94 1.289 . S
Mg104 O111 2.141 . S
Mg104 O112 2.048 1_554 S
Mg104 O113 2.048 1_554 S
Mg104 O116 2.141 . S
C105 O106 1.313 . S
C105 O112 1.195 . S
O106 C105 1.313 . S
C107 O108 1.245 . S
C107 O116 1.289 . S
O108 C107 1.245 . S
C109 O110 1.245 . S
C109 O111 1.289 . S
O110 C109 1.245 . S
O111 Mg104 2.141 . S
O111 C109 1.289 . S
O112 Mg104 2.048 1_556 S
O112 C105 1.195 . S
O113 Mg104 2.048 1_556 S
O113 C114 1.195 . S
C114 O113 1.195 . S
C114 O115 1.313 . S
O115 C114 1.313 . S
O116 Mg104 2.141 . S
O116 C107 1.289 . S
Mg117 O124 2.141 1_554 S
Mg117 O125 2.048 . S
Mg117 O126 2.048 . S
Mg117 O129 2.141 1_554 S
C118 O119 1.313 . S
C118 O125 1.195 . S
O119 C118 1.313 . S
C120 O121 1.245 . S
C120 O129 1.289 . S
O121 C120 1.245 . S
C122 O123 1.245 . S
C122 O124 1.289 . S
O123 C122 1.245 . S
O124 Mg117 2.141 1_556 S
O124 C122 1.289 . S
O125 Mg117 2.048 . S
O125 C118 1.195 . S
O126 Mg117 2.048 . S
O126 C127 1.195 . S
C127 O126 1.195 . S
C127 O128 1.313 . S
O128 C127 1.313 . S
O129 Mg117 2.141 1_556 S
O129 C120 1.289 . S
Mg130 O137 2.141 1_554 S
Mg130 O138 2.048 . S
Mg130 O139 2.048 . S
Mg130 O142 2.141 1_554 S
C131 O132 1.313 . S
C131 O138 1.195 . S
O132 C131 1.313 . S
C133 O134 1.245 . S
C133 O142 1.289 . S
O134 C133 1.245 . S
C135 O136 1.245 . S
C135 O137 1.289 . S
O136 C135 1.245 . S
O137 Mg130 2.141 1_556 S
O137 C135 1.289 . S
O138 Mg130 2.048 . S
O138 C131 1.195 . S
O139 Mg130 2.048 . S
O139 C140 1.195 . S
C140 O139 1.195 . S
C140 O141 1.313 . S
O141 C140 1.313 . S
O142 Mg130 2.141 1_556 S
O142 C133 1.289 . S
Mg143 O150 2.141 . S
Mg143 O151 2.048 1_554 S
Mg143 O152 2.048 1_554 S
Mg143 O155 2.141 . S
C144 O145 1.313 . S
C144 O151 1.195 . S
O145 C144 1.313 . S
C146 O147 1.245 . S
C146 O155 1.289 . S
O147 C146 1.245 . S
C148 O149 1.245 . S
C148 O150 1.289 . S
O149 C148 1.245 . S
O150 Mg143 2.141 . S
O150 C148 1.289 . S
O151 Mg143 2.048 1_556 S
O151 C144 1.195 . S
O152 Mg143 2.048 1_556 S
O152 C153 1.195 . S
C153 O152 1.195 . S
C153 O154 1.313 . S
O154 C153 1.313 . S
O155 Mg143 2.141 . S
O155 C146 1.289 . S
Mg156 O163 2.141 . S
Mg156 O164 2.048 . S
Mg156 O165 2.048 . S
Mg156 O168 2.141 . S
C157 O158 1.313 . S
C157 O164 1.195 . S
O158 C157 1.313 . S
C159 O160 1.245 . S
C159 O168 1.289 . S
O160 C159 1.245 . S
C161 O162 1.245 . S
C161 O163 1.289 . S
O162 C161 1.245 . S
O163 Mg156 2.141 . S
O163 C161 1.289 . S
O164 Mg156 2.048 . S
O164 C157 1.195 . S
O165 Mg156 2.048 . S
O165 C166 1.195 . S
C166 O165 1.195 . S
C166 O167 1.313 . S
O167 C166 1.313 . S
O168 Mg156 2.141 . S
O168 C159 1.289 . S
Mg169 O176 2.141 . S
Mg169 O177 2.048 . S
Mg169 O178 2.048 . S
Mg169 O181 2.141 . S
C170 O171 1.313 . S
C170 O177 1.195 . S
O171 C170 1.313 . S
C172 O173 1.245 . S
C172 O181 1.289 . S
O173 C172 1.245 . S
C174 O175 1.245 . S
C174 O176 1.289 . S
O175 C174 1.245 . S
O176 Mg169 2.141 . S
O176 C174 1.289 . S
O177 Mg169 2.048 . S
O177 C170 1.195 . S
O178 Mg169 2.048 . S
O178 C179 1.195 . S
C179 O178 1.195 . S
C179 O180 1.313 . S
O180 C179 1.313 . S
O181 Mg169 2.141 . S
O181 C172 1.289 . S
Mg182 O189 2.141 . S
Mg182 O190 2.048 . S
Mg182 O191 2.048 . S
Mg182 O194 2.141 . S
C183 O184 1.313 . S
C183 O190 1.195 . S
O184 C183 1.313 . S
C185 O186 1.245 . S
C185 O194 1.289 . S
O186 C185 1.245 . S
C187 O188 1.245 . S
C187 O189 1.289 . S
O188 C187 1.245 . S
O189 Mg182 2.141 . S
O189 C187 1.289 . S
O190 Mg182 2.048 . S
O190 C183 1.195 . S
O191 Mg182 2.048 . S
O191 C192 1.195 . S
C192 O191 1.195 . S
C192 O193 1.313 . S
O193 C192 1.313 . S
O194 Mg182 2.141 . S
O194 C185 1.289 . S
Mg195 O202 2.141 . S
Mg195 O203 2.048 . S
Mg195 O204 2.048 . S
Mg195 O207 2.141 . S
C196 O197 1.313 . S
C196 O203 1.195 . S
O197 C196 1.313 . S
C198 O199 1.245 . S
C198 O207 1.289 . S
O199 C198 1.245 . S
C200 O201 1.245 . S
C200 O202 1.289 . S
O201 C200 1.245 . S
O202 Mg195 2.141 . S
O202 C200 1.289 . S
O203 Mg195 2.048 . S
O203 C196 1.195 . S
O204 Mg195 2.048 . S
O204 C205 1.195 . S
C205 O204 1.195 . S
C205 O206 1.313 . S
O206 C205 1.313 . S
O207 Mg195 2.141 . S
O207 C198 1.289 . S
Mg208 O215 2.141 . S
Mg208 O216 2.048 . S
Mg208 O217 2.048 . S
Mg208 O220 2.141 . S
C209 O210 1.313 . S
C209 O216 1.195 . S
O210 C209 1.313 . S
C211 O212 1.245 . S
C211 O220 1.289 . S
O212 C211 1.245 . S
C213 O214 1.245 . S
C213 O215 1.289 . S
O214 C213 1.245 . S
O215 Mg208 2.141 . S
O215 C213 1.289 . S
O216 Mg208 2.048 . S
O216 C209 1.195 . S
O217 Mg208 2.048 . S
O217 C218 1.195 . S
C218 O217 1.195 . S
C218 O219 1.313 . S
O219 C218 1.313 . S
O220 Mg208 2.141 . S
O220 C211 1.289 . S
Mg221 O228 2.141 . S
Mg221 O229 2.048 . S
Mg221 O230 2.048 . S
Mg221 O233 2.141 . S
C222 O223 1.313 . S
C222 O229 1.195 . S
O223 C222 1.313 . S
C224 O225 1.245 . S
C224 O233 1.289 . S
O225 C224 1.245 . S
C226 O227 1.245 . S
C226 O228 1.289 . S
O227 C226 1.245 . S
O228 Mg221 2.141 . S
O228 C226 1.289 . S
O229 Mg221 2.048 . S
O229 C222 1.195 . S
O230 Mg221 2.048 . S
O230 C231 1.195 . S
C231 O230 1.195 . S
C231 O232 1.313 . S
O232 C231 1.313 . S
O233 Mg221 2.141 . S
O233 C224 1.289 . S
Mg234 O241 2.141 . S
Mg234 O242 2.048 . S
Mg234 O243 2.048 . S
Mg234 O246 2.141 . S
C235 O236 1.313 . S
C235 O242 1.195 . S
O236 C235 1.313 . S
C237 O238 1.245 . S
C237 O246 1.289 . S
O238 C237 1.245 . S
C239 O240 1.245 . S
C239 O241 1.289 . S
O240 C239 1.245 . S
O241 Mg234 2.141 . S
O241 C239 1.289 . S
O242 Mg234 2.048 . S
O242 C235 1.195 . S
O243 Mg234 2.048 . S
O243 C244 1.195 . S
C244 O243 1.195 . S
C244 O245 1.313 . S
O245 C244 1.313 . S
O246 Mg234 2.141 . S
O246 C237 1.289 . S
Mg247 O254 2.141 . S
Mg247 O255 2.048 . S
Mg247 O256 2.048 . S
Mg247 O259 2.141 . S
C248 O249 1.313 . S
C248 O255 1.195 . S
O249 C248 1.313 . S
C250 O251 1.245 . S
C250 O259 1.289 . S
O251 C250 1.245 . S
C252 O253 1.245 . S
C252 O254 1.289 . S
O253 C252 1.245 . S
O254 Mg247 2.141 . S
O254 C252 1.289 . S
O255 Mg247 2.048 . S
O255 C248 1.195 . S
O256 Mg247 2.048 . S
O256 C257 1.195 . S
C257 O256 1.195 . S
C257 O258 1.313 . S
O258 C257 1.313 . S
O259 Mg247 2.141 . S
O259 C250 1.289 . S
Mg260 O267 2.141 . S
Mg260 O268 2.048 . S
Mg260 O269 2.048 . S
Mg260 O272 2.141 . S
C261 O262 1.313 . S
C261 O268 1.195 . S
O262 C261 1.313 . S
C263 O264 1.245 . S
C263 O272 1.289 . S
O264 C263 1.245 . S
C265 O266 1.245 . S
C265 O267 1.289 . S
O266 C265 1.245 . S
O267 Mg260 2.141 . S
O267 C265 1.289 . S
O268 Mg260 2.048 . S
O268 C261 1.195 . S
O269 Mg260 2.048 . S
O269 C270 1.195 . S
C270 O269 1.195 . S
C270 O271 1.313 . S
O271 C270 1.313 . S
O272 Mg260 2.141 . S
O272 C263 1.289 . S
Mg273 O280 2.141 . S
Mg273 O281 2.048 . S
Mg273 O282 2.048 . S
Mg273 O285 2.141 . S
C274 O275 1.313 . S
C274 O281 1.195 . S
O275 C274 1.313 . S
C276 O277 1.245 . S
C276 O285 1.289 . S
O277 C276 1.245 . S
C278 O279 1.245 . S
C278 O280 1.289 . S
O279 C278 1.245 . S
O280 Mg273 2.141 . S
O280 C278 1.289 . S
O281 Mg273 2.048 . S
O281 C274 1.195 . S
O282 Mg273 2.048 . S
O282 C283 1.195 . S
C283 O282 1.195 . S
C283 O284 1.313 . S
O284 C283 1.313 . S
O285 Mg273 2.141 . S
O285 C276 1.289 . S
Mg286 O293 2.141 . S
Mg286 O294 2.048 . S
Mg286 O295 2.048 . S
Mg286 O298 2.141 . S
C287 O288 1.313 . S
C287 O294 1.195 . S
O288 C287 1.313 . S
C289 O290 1.245 . S
C289 O298 1.289 . S
O290 C289 1.245 . S
C291 O292 1.245 . S
C291 O293 1.289 . S
O292 C291 1.245 . S
O293 Mg286 2.141 . S
O293 C291 1.289 . S
O294 Mg286 2.048 . S
O294 C287 1.195 . S
O295 Mg286 2.048 . S
O295 C296 1.195 . S
C296 O295 1.195 . S
C296 O297 1.313 . S
O297 C296 1.313 . S
O298 Mg286 2.141 . S
O298 C289 1.289 . S
Mg299 O306 2.141 . S
Mg299 O307 2.048 . S
Mg299 O308 2.048 . S
Mg299 O311 2.141 . S
C300 O301 1.313 . S
C300 O307 1.195 . S
O301 C300 1.313 . S
C302 O303 1.245 . S
C302 O311 1.289 . S
O303 C302 1.245 . S
C304 O305 1.245 . S
C304 O306 1.289 . S
O305 C304 1.245 . S
O306 Mg299 2.141 . S
O306 C304 1.289 . S
O307 Mg299 2.048 . S
O307 C300 1.195 . S
O308 Mg299 2.048 . S
O308 C309 1.195 . S
C309 O308 1.195 . S
C309 O310 1.313 . S
O310 C309 1.313 . S
O311 Mg299 2.141 . S
O311 C302 1.289 . S
C312 C313 1.363 . S
C312 C318 1.379 . S
C312 N320 1.356 . S
C313 C312 1.363 . S
C313 C319 1.363 . S
C314 C315 1.363 . S
C314 C319 1.379 . S
C314 N321 1.356 . S
C315 C314 1.363 . S
C315 C318 1.363 . S
N316 C318 1.356 . S
N316 H328 0.984 . S
N316 H329 0.985 . S
N317 C319 1.356 . S
N317 H322 0.984 . S
N317 H323 0.985 . S
C318 C312 1.379 . S
C318 C315 1.363 . S
C318 N316 1.356 . S
C319 C313 1.363 . S
C319 C314 1.379 . S
C319 N317 1.356 . S
N320 C312 1.356 . S
N320 H326 0.984 . S
N320 H327 0.984 . S
N321 C314 1.356 . S
N321 H324 0.984 . S
N321 H325 0.985 . S
H322 N317 0.984 . S
H323 N317 0.985 . S
H324 N321 0.984 . S
H325 N321 0.985 . S
H326 N320 0.984 . S
H327 N320 0.984 . S
H328 N316 0.984 . S
H329 N316 0.985 . S
C330 C331 1.363 . S
C330 C336 1.379 . S
C330 N338 1.356 . S
C331 C330 1.363 . S
C331 C337 1.363 . S
C332 C333 1.363 . S
C332 C337 1.379 . S
C332 N339 1.356 . S
C333 C332 1.363 . S
C333 C336 1.363 . S
N334 C336 1.356 . S
N334 H346 0.984 . S
N334 H347 0.985 . S
N335 C337 1.356 . S
N335 H340 0.984 . S
N335 H341 0.985 . S
C336 C330 1.379 . S
C336 C333 1.363 . S
C336 N334 1.356 . S
C337 C331 1.363 . S
C337 C332 1.379 . S
C337 N335 1.356 . S
N338 C330 1.356 . S
N338 H344 0.984 . S
N338 H345 0.984 . S
N339 C332 1.356 . S
N339 H342 0.984 . S
N339 H343 0.985 . S
H340 N335 0.984 . S
H341 N335 0.985 . S
H342 N339 0.984 . S
H343 N339 0.985 . S
H344 N338 0.984 . S
H345 N338 0.984 . S
H346 N334 0.984 . S
H347 N334 0.985 . S
C348 C349 1.363 . S
C348 C354 1.379 . S
C348 N356 1.356 . S
C349 C348 1.363 . S
C349 C355 1.363 . S
C350 C351 1.363 . S
C350 C355 1.379 . S
C350 N357 1.356 . S
C351 C350 1.363 . S
C351 C354 1.363 . S
N352 C354 1.356 . S
N352 H364 0.984 . S
N352 H365 0.985 . S
N353 C355 1.356 . S
N353 H358 0.984 . S
N353 H359 0.985 . S
C354 C348 1.379 . S
C354 C351 1.363 . S
C354 N352 1.356 . S
C355 C349 1.363 . S
C355 C350 1.379 . S
C355 N353 1.356 . S
N356 C348 1.356 . S
N356 H362 0.984 . S
N356 H363 0.984 . S
N357 C350 1.356 . S
N357 H360 0.984 . S
N357 H361 0.985 . S
H358 N353 0.984 . S
H359 N353 0.985 . S
H360 N357 0.984 . S
H361 N357 0.985 . S
H362 N356 0.984 . S
H363 N356 0.984 . S
H364 N352 0.984 . S
H365 N352 0.985 . S
C366 C367 1.363 . S
C366 C372 1.379 . S
C366 N374 1.356 . S
C367 C366 1.363 . S
C367 C373 1.363 . S
C368 C369 1.363 . S
C368 C373 1.379 . S
C368 N375 1.356 . S
C369 C368 1.363 . S
C369 C372 1.363 . S
N370 C372 1.356 . S
N370 H382 0.984 . S
N370 H383 0.985 . S
N371 C373 1.356 . S
N371 H376 0.984 . S
N371 H377 0.985 . S
C372 C366 1.379 . S
C372 C369 1.363 . S
C372 N370 1.356 . S
C373 C367 1.363 . S
C373 C368 1.379 . S
C373 N371 1.356 . S
N374 C366 1.356 . S
N374 H380 0.984 . S
N374 H381 0.984 . S
N375 C368 1.356 . S
N375 H378 0.984 . S
N375 H379 0.985 . S
H376 N371 0.984 . S
H377 N371 0.985 . S
H378 N375 0.984 . S
H379 N375 0.985 . S
H380 N374 0.984 . S
H381 N374 0.984 . S
H382 N370 0.984 . S
H383 N370 0.985 . S
C384 C385 1.363 . S
C384 C390 1.379 . S
C384 N392 1.356 . S
C385 C384 1.363 . S
C385 C391 1.363 . S
C386 C387 1.363 . S
C386 C391 1.379 . S
C386 N393 1.356 . S
C387 C386 1.363 . S
C387 C390 1.363 . S
N388 C390 1.356 . S
N388 H400 0.984 . S
N388 H401 0.985 . S
N389 C391 1.356 . S
N389 H394 0.984 . S
N389 H395 0.985 . S
C390 C384 1.379 . S
C390 C387 1.363 . S
C390 N388 1.356 . S
C391 C385 1.363 . S
C391 C386 1.379 . S
C391 N389 1.356 . S
N392 C384 1.356 . S
N392 H398 0.984 . S
N392 H399 0.984 . S
N393 C386 1.356 . S
N393 H396 0.984 . S
N393 H397 0.985 . S
H394 N389 0.984 . S
H395 N389 0.985 . S
H396 N393 0.984 . S
H397 N393 0.985 . S
H398 N392 0.984 . S
H399 N392 0.984 . S
H400 N388 0.984 . S
H401 N388 0.985 . S
C402 C403 1.363 . S
C402 C408 1.379 . S
C402 N410 1.356 . S
C403 C402 1.363 . S
C403 C409 1.363 . S
C404 C405 1.363 . S
C404 C409 1.379 . S
C404 N411 1.356 . S
C405 C404 1.363 . S
C405 C408 1.363 . S
N406 C408 1.356 . S
N406 H418 0.984 . S
N406 H419 0.985 . S
N407 C409 1.356 . S
N407 H412 0.984 . S
N407 H413 0.985 . S
C408 C402 1.379 . S
C408 C405 1.363 . S
C408 N406 1.356 . S
C409 C403 1.363 . S
C409 C404 1.379 . S
C409 N407 1.356 . S
N410 C402 1.356 . S
N410 H416 0.984 . S
N410 H417 0.984 . S
N411 C404 1.356 . S
N411 H414 0.984 . S
N411 H415 0.985 . S
H412 N407 0.984 . S
H413 N407 0.985 . S
H414 N411 0.984 . S
H415 N411 0.985 . S
H416 N410 0.984 . S
H417 N410 0.984 . S
H418 N406 0.984 . S
H419 N406 0.985 . S
C420 C421 1.363 . S
C420 C426 1.379 . S
C420 N428 1.356 . S
C421 C420 1.363 . S
C421 C427 1.363 . S
C422 C423 1.363 . S
C422 C427 1.379 . S
C422 N429 1.356 . S
C423 C422 1.363 . S
C423 C426 1.363 . S
N424 C426 1.356 . S
N424 H436 0.984 . S
N424 H437 0.985 . S
N425 C427 1.356 . S
N425 H430 0.984 . S
N425 H431 0.985 . S
C426 C420 1.379 . S
C426 C423 1.363 . S
C426 N424 1.356 . S
C427 C421 1.363 . S
C427 C422 1.379 . S
C427 N425 1.356 . S
N428 C420 1.356 . S
N428 H434 0.984 . S
N428 H435 0.984 . S
N429 C422 1.356 . S
N429 H432 0.984 . S
N429 H433 0.985 . S
H430 N425 0.984 . S
H431 N425 0.985 . S
H432 N429 0.984 . S
H433 N429 0.985 . S
H434 N428 0.984 . S
H435 N428 0.984 . S
H436 N424 0.984 . S
H437 N424 0.985 . S
C438 C439 1.363 . S
C438 C444 1.379 . S
C438 N446 1.356 . S
C439 C438 1.363 . S
C439 C445 1.363 . S
C440 C441 1.363 . S
C440 C445 1.379 . S
C440 N447 1.356 . S
C441 C440 1.363 . S
C441 C444 1.363 . S
N442 C444 1.356 . S
N442 H454 0.984 . S
N442 H455 0.985 . S
N443 C445 1.356 . S
N443 H448 0.984 . S
N443 H449 0.985 . S
C444 C438 1.379 . S
C444 C441 1.363 . S
C444 N442 1.356 . S
C445 C439 1.363 . S
C445 C440 1.379 . S
C445 N443 1.356 . S
N446 C438 1.356 . S
N446 H452 0.984 . S
N446 H453 0.984 . S
N447 C440 1.356 . S
N447 H450 0.984 . S
N447 H451 0.985 . S
H448 N443 0.984 . S
H449 N443 0.985 . S
H450 N447 0.984 . S
H451 N447 0.985 . S
H452 N446 0.984 . S
H453 N446 0.984 . S
H454 N442 0.984 . S
H455 N442 0.985 . S
C456 C457 1.363 . S
C456 C462 1.379 . S
C456 N464 1.356 . S
C457 C456 1.363 . S
C457 C463 1.363 . S
C458 C459 1.363 . S
C458 C463 1.379 . S
C458 N465 1.356 . S
C459 C458 1.363 . S
C459 C462 1.363 . S
N460 C462 1.356 . S
N460 H472 0.984 . S
N460 H473 0.985 . S
N461 C463 1.356 . S
N461 H466 0.984 . S
N461 H467 0.985 . S
C462 C456 1.379 . S
C462 C459 1.363 . S
C462 N460 1.356 . S
C463 C457 1.363 . S
C463 C458 1.379 . S
C463 N461 1.356 . S
N464 C456 1.356 . S
N464 H470 0.984 . S
N464 H471 0.984 . S
N465 C458 1.356 . S
N465 H468 0.984 . S
N465 H469 0.985 . S
H466 N461 0.984 . S
H467 N461 0.985 . S
H468 N465 0.984 . S
H469 N465 0.985 . S
H470 N464 0.984 . S
H471 N464 0.984 . S
H472 N460 0.984 . S
H473 N460 0.985 . S
C474 C475 1.363 . S
C474 C480 1.379 . S
C474 N482 1.356 . S
C475 C474 1.363 . S
C475 C481 1.363 . S
C476 C477 1.363 . S
C476 C481 1.379 . S
C476 N483 1.356 . S
C477 C476 1.363 . S
C477 C480 1.363 . S
N478 C480 1.356 . S
N478 H490 0.984 . S
N478 H491 0.985 . S
N479 C481 1.356 . S
N479 H484 0.984 . S
N479 H485 0.985 . S
C480 C474 1.379 . S
C480 C477 1.363 . S
C480 N478 1.356 . S
C481 C475 1.363 . S
C481 C476 1.379 . S
C481 N479 1.356 . S
N482 C474 1.356 . S
N482 H488 0.984 . S
N482 H489 0.984 . S
N483 C476 1.356 . S
N483 H486 0.984 . S
N483 H487 0.985 . S
H484 N479 0.984 . S
H485 N479 0.985 . S
H486 N483 0.984 . S
H487 N483 0.985 . S
H488 N482 0.984 . S
H489 N482 0.984 . S
H490 N478 0.984 . S
H491 N478 0.985 . S
C492 C493 1.363 . S
C492 C498 1.379 . S
C492 N500 1.356 . S
C493 C492 1.363 . S
C493 C499 1.363 . S
C494 C495 1.363 . S
C494 C499 1.379 . S
C494 N501 1.356 . S
C495 C494 1.363 . S
C495 C498 1.363 . S
N496 C498 1.356 . S
N496 H508 0.984 . S
N496 H509 0.985 . S
N497 C499 1.356 . S
N497 H502 0.984 . S
N497 H503 0.985 . S
C498 C492 1.379 . S
C498 C495 1.363 . S
C498 N496 1.356 . S
C499 C493 1.363 . S
C499 C494 1.379 . S
C499 N497 1.356 . S
N500 C492 1.356 . S
N500 H506 0.984 . S
N500 H507 0.984 . S
N501 C494 1.356 . S
N501 H504 0.984 . S
N501 H505 0.985 . S
H502 N497 0.984 . S
H503 N497 0.985 . S
H504 N501 0.984 . S
H505 N501 0.985 . S
H506 N500 0.984 . S
H507 N500 0.984 . S
H508 N496 0.984 . S
H509 N496 0.985 . S
C510 C511 1.363 . S
C510 C516 1.379 . S
C510 N518 1.356 . S
C511 C510 1.363 . S
C511 C517 1.363 . S
C512 C513 1.363 . S
C512 C517 1.379 . S
C512 N519 1.356 . S
C513 C512 1.363 . S
C513 C516 1.363 . S
N514 C516 1.356 . S
N514 H526 0.984 . S
N514 H527 0.985 . S
N515 C517 1.356 . S
N515 H520 0.984 . S
N515 H521 0.985 . S
C516 C510 1.379 . S
C516 C513 1.363 . S
C516 N514 1.356 . S
C517 C511 1.363 . S
C517 C512 1.379 . S
C517 N515 1.356 . S
N518 C510 1.356 . S
N518 H524 0.984 . S
N518 H525 0.984 . S
N519 C512 1.356 . S
N519 H522 0.984 . S
N519 H523 0.985 . S
H520 N515 0.984 . S
H521 N515 0.985 . S
H522 N519 0.984 . S
H523 N519 0.985 . S
H524 N518 0.984 . S
H525 N518 0.984 . S
H526 N514 0.984 . S
H527 N514 0.985 . S
C528 C529 1.363 . S
C528 C534 1.379 . S
C528 N536 1.356 . S
C529 C528 1.363 . S
C529 C535 1.363 . S
C530 C531 1.363 . S
C530 C535 1.379 . S
C530 N537 1.356 . S
C531 C530 1.363 . S
C531 C534 1.363 . S
N532 C534 1.356 . S
N532 H544 0.984 . S
N532 H545 0.985 . S
N533 C535 1.356 . S
N533 H538 0.984 . S
N533 H539 0.985 . S
C534 C528 1.379 . S
C534 C531 1.363 . S
C534 N532 1.356 . S
C535 C529 1.363 . S
C535 C530 1.379 . S
C535 N533 1.356 . S
N536 C528 1.356 . S
N536 H542 0.984 . S
N536 H543 0.984 . S
N537 C530 1.356 . S
N537 H540 0.984 . S
N537 H541 0.985 . S
H538 N533 0.984 . S
H539 N533 0.985 . S
H540 N537 0.984 . S
H541 N537 0.985 . S
H542 N536 0.984 . S
H543 N536 0.984 . S
H544 N532 0.984 . S
H545 N532 0.985 . S
C546 C547 1.363 . S
C546 C552 1.379 . S
C546 N554 1.356 . S
C547 C546 1.363 . S
C547 C553 1.363 . S
C548 C549 1.363 . S
C548 C553 1.379 . S
C548 N555 1.356 . S
C549 C548 1.363 . S
C549 C552 1.363 . S
N550 C552 1.356 . S
N550 H562 0.984 . S
N550 H563 0.985 . S
N551 C553 1.356 . S
N551 H556 0.984 . S
N551 H557 0.985 . S
C552 C546 1.379 . S
C552 C549 1.363 . S
C552 N550 1.356 . S
C553 C547 1.363 . S
C553 C548 1.379 . S
C553 N551 1.356 . S
N554 C546 1.356 . S
N554 H560 0.984 . S
N554 H561 0.984 . S
N555 C548 1.356 . S
N555 H558 0.984 . S
N555 H559 0.985 . S
H556 N551 0.984 . S
H557 N551 0.985 . S
H558 N555 0.984 . S
H559 N555 0.985 . S
H560 N554 0.984 . S
H561 N554 0.984 . S
H562 N550 0.984 . S
H563 N550 0.985 . S
C564 C565 1.363 . S
C564 C570 1.379 . S
C564 N572 1.356 . S
C565 C564 1.363 . S
C565 C571 1.363 . S
C566 C567 1.363 . S
C566 C571 1.379 . S
C566 N573 1.356 . S
C567 C566 1.363 . S
C567 C570 1.363 . S
N568 C570 1.356 . S
N568 H580 0.984 . S
N568 H581 0.985 . S
N569 C571 1.356 . S
N569 H574 0.984 . S
N569 H575 0.985 . S
C570 C564 1.379 . S
C570 C567 1.363 . S
C570 N568 1.356 . S
C571 C565 1.363 . S
C571 C566 1.379 . S
C571 N569 1.356 . S
N572 C564 1.356 . S
N572 H578 0.984 . S
N572 H579 0.984 . S
N573 C566 1.356 . S
N573 H576 0.984 . S
N573 H577 0.985 . S
H574 N569 0.984 . S
H575 N569 0.985 . S
H576 N573 0.984 . S
H577 N573 0.985 . S
H578 N572 0.984 . S
H579 N572 0.984 . S
H580 N568 0.984 . S
H581 N568 0.985 . S
C582 C583 1.363 . S
C582 C588 1.379 . S
C582 N590 1.356 . S
C583 C582 1.363 . S
C583 C589 1.363 . S
C584 C585 1.363 . S
C584 C589 1.379 . S
C584 N591 1.356 . S
C585 C584 1.363 . S
C585 C588 1.363 . S
N586 C588 1.356 . S
N586 H598 0.984 . S
N586 H599 0.985 . S
N587 C589 1.356 . S
N587 H592 0.984 . S
N587 H593 0.985 . S
C588 C582 1.379 . S
C588 C585 1.363 . S
C588 N586 1.356 . S
C589 C583 1.363 . S
C589 C584 1.379 . S
C589 N587 1.356 . S
N590 C582 1.356 . S
N590 H596 0.984 . S
N590 H597 0.984 . S
N591 C584 1.356 . S
N591 H594 0.984 . S
N591 H595 0.985 . S
H592 N587 0.984 . S
H593 N587 0.985 . S
H594 N591 0.984 . S
H595 N591 0.985 . S
H596 N590 0.984 . S
H597 N590 0.984 . S
H598 N586 0.984 . S
H599 N586 0.985 . S
C600 C601 1.363 . S
C600 C606 1.379 . S
C600 N608 1.356 . S
C601 C600 1.363 . S
C601 C607 1.363 . S
C602 C603 1.363 . S
C602 C607 1.379 . S
C602 N609 1.356 . S
C603 C602 1.363 . S
C603 C606 1.363 . S
N604 C606 1.356 . S
N604 H616 0.984 . S
N604 H617 0.985 . S
N605 C607 1.356 . S
N605 H610 0.984 . S
N605 H611 0.985 . S
C606 C600 1.379 . S
C606 C603 1.363 . S
C606 N604 1.356 . S
C607 C601 1.363 . S
C607 C602 1.379 . S
C607 N605 1.356 . S
N608 C600 1.356 . S
N608 H614 0.984 . S
N608 H615 0.984 . S
N609 C602 1.356 . S
N609 H612 0.984 . S
N609 H613 0.985 . S
H610 N605 0.984 . S
H611 N605 0.985 . S
H612 N609 0.984 . S
H613 N609 0.985 . S
H614 N608 0.984 . S
H615 N608 0.984 . S
H616 N604 0.984 . S
H617 N604 0.985 . S
C618 C619 1.363 . S
C618 C624 1.379 . S
C618 N626 1.356 . S
C619 C618 1.363 . S
C619 C625 1.363 . S
C620 C621 1.363 . S
C620 C625 1.379 . S
C620 N627 1.356 . S
C621 C620 1.363 . S
C621 C624 1.363 . S
N622 C624 1.356 . S
N622 H634 0.984 . S
N622 H635 0.985 . S
N623 C625 1.356 . S
N623 H628 0.984 . S
N623 H629 0.985 . S
C624 C618 1.379 . S
C624 C621 1.363 . S
C624 N622 1.356 . S
C625 C619 1.363 . S
C625 C620 1.379 . S
C625 N623 1.356 . S
N626 C618 1.356 . S
N626 H632 0.984 . S
N626 H633 0.984 . S
N627 C620 1.356 . S
N627 H630 0.984 . S
N627 H631 0.985 . S
H628 N623 0.984 . S
H629 N623 0.985 . S
H630 N627 0.984 . S
H631 N627 0.985 . S
H632 N626 0.984 . S
H633 N626 0.984 . S
H634 N622 0.984 . S
H635 N622 0.985 . S
C636 C637 1.363 . S
C636 C642 1.379 . S
C636 N644 1.356 . S
C637 C636 1.363 . S
C637 C643 1.363 . S
C638 C639 1.363 . S
C638 C643 1.379 . S
C638 N645 1.356 . S
C639 C638 1.363 . S
C639 C642 1.363 . S
N640 C642 1.356 . S
N640 H652 0.984 . S
N640 H653 0.985 . S
N641 C643 1.356 . S
N641 H646 0.984 . S
N641 H647 0.985 . S
C642 C636 1.379 . S
C642 C639 1.363 . S
C642 N640 1.356 . S
C643 C637 1.363 . S
C643 C638 1.379 . S
C643 N641 1.356 . S
N644 C636 1.356 . S
N644 H650 0.984 . S
N644 H651 0.984 . S
N645 C638 1.356 . S
N645 H648 0.984 . S
N645 H649 0.985 . S
H646 N641 0.984 . S
H647 N641 0.985 . S
H648 N645 0.984 . S
H649 N645 0.985 . S
H650 N644 0.984 . S
H651 N644 0.984 . S
H652 N640 0.984 . S
H653 N640 0.985 . S
C654 C655 1.363 . S
C654 C660 1.379 . S
C654 N662 1.356 . S
C655 C654 1.363 . S
C655 C661 1.363 . S
C656 C657 1.363 . S
C656 C661 1.379 . S
C656 N663 1.356 . S
C657 C656 1.363 . S
C657 C660 1.363 . S
N658 C660 1.356 . S
N658 H670 0.984 . S
N658 H671 0.985 . S
N659 C661 1.356 . S
N659 H664 0.984 . S
N659 H665 0.985 . S
C660 C654 1.379 . S
C660 C657 1.363 . S
C660 N658 1.356 . S
C661 C655 1.363 . S
C661 C656 1.379 . S
C661 N659 1.356 . S
N662 C654 1.356 . S
N662 H668 0.984 . S
N662 H669 0.984 . S
N663 C656 1.356 . S
N663 H666 0.984 . S
N663 H667 0.985 . S
H664 N659 0.984 . S
H665 N659 0.985 . S
H666 N663 0.984 . S
H667 N663 0.985 . S
H668 N662 0.984 . S
H669 N662 0.984 . S
H670 N658 0.984 . S
H671 N658 0.985 . S
C672 C673 1.363 . S
C672 C678 1.379 . S
C672 N680 1.356 . S
C673 C672 1.363 . S
C673 C679 1.363 . S
C674 C675 1.363 . S
C674 C679 1.379 . S
C674 N681 1.356 . S
C675 C674 1.363 . S
C675 C678 1.363 . S
N676 C678 1.356 . S
N676 H688 0.984 . S
N676 H689 0.985 . S
N677 C679 1.356 . S
N677 H682 0.984 . S
N677 H683 0.985 . S
C678 C672 1.379 . S
C678 C675 1.363 . S
C678 N676 1.356 . S
C679 C673 1.363 . S
C679 C674 1.379 . S
C679 N677 1.356 . S
N680 C672 1.356 . S
N680 H686 0.984 . S
N680 H687 0.984 . S
N681 C674 1.356 . S
N681 H684 0.984 . S
N681 H685 0.985 . S
H682 N677 0.984 . S
H683 N677 0.985 . S
H684 N681 0.984 . S
H685 N681 0.985 . S
H686 N680 0.984 . S
H687 N680 0.984 . S
H688 N676 0.984 . S
H689 N676 0.985 . S
C690 C691 1.363 . S
C690 C696 1.379 . S
C690 N698 1.356 . S
C691 C690 1.363 . S
C691 C697 1.363 . S
C692 C693 1.363 . S
C692 C697 1.379 . S
C692 N699 1.356 . S
C693 C692 1.363 . S
C693 C696 1.363 . S
N694 C696 1.356 . S
N694 H706 0.984 . S
N694 H707 0.985 . S
N695 C697 1.356 . S
N695 H700 0.984 . S
N695 H701 0.985 . S
C696 C690 1.379 . S
C696 C693 1.363 . S
C696 N694 1.356 . S
C697 C691 1.363 . S
C697 C692 1.379 . S
C697 N695 1.356 . S
N698 C690 1.356 . S
N698 H704 0.984 . S
N698 H705 0.984 . S
N699 C692 1.356 . S
N699 H702 0.984 . S
N699 H703 0.985 . S
H700 N695 0.984 . S
H701 N695 0.985 . S
H702 N699 0.984 . S
H703 N699 0.985 . S
H704 N698 0.984 . S
H705 N698 0.984 . S
H706 N694 0.984 . S
H707 N694 0.985 . S
C708 C709 1.363 . S
C708 C714 1.379 . S
C708 N716 1.356 . S
C709 C708 1.363 . S
C709 C715 1.363 . S
C710 C711 1.363 . S
C710 C715 1.379 . S
C710 N717 1.356 . S
C711 C710 1.363 . S
C711 C714 1.363 . S
N712 C714 1.356 . S
N712 H724 0.984 . S
N712 H725 0.985 . S
N713 C715 1.356 . S
N713 H718 0.984 . S
N713 H719 0.985 . S
C714 C708 1.379 . S
C714 C711 1.363 . S
C714 N712 1.356 . S
C715 C709 1.363 . S
C715 C710 1.379 . S
C715 N713 1.356 . S
N716 C708 1.356 . S
N716 H722 0.984 . S
N716 H723 0.984 . S
N717 C710 1.356 . S
N717 H720 0.984 . S
N717 H721 0.985 . S
H718 N713 0.984 . S
H719 N713 0.985 . S
H720 N717 0.984 . S
H721 N717 0.985 . S
H722 N716 0.984 . S
H723 N716 0.984 . S
H724 N712 0.984 . S
H725 N712 0.985 . S
C726 C727 1.363 . S
C726 C732 1.379 . S
C726 N734 1.356 . S
C727 C726 1.363 . S
C727 C733 1.363 . S
C728 C729 1.363 . S
C728 C733 1.379 . S
C728 N735 1.356 . S
C729 C728 1.363 . S
C729 C732 1.363 . S
N730 C732 1.356 . S
N730 H742 0.984 . S
N730 H743 0.985 . S
N731 C733 1.356 . S
N731 H736 0.984 . S
N731 H737 0.985 . S
C732 C726 1.379 . S
C732 C729 1.363 . S
C732 N730 1.356 . S
C733 C727 1.363 . S
C733 C728 1.379 . S
C733 N731 1.356 . S
N734 C726 1.356 . S
N734 H740 0.984 . S
N734 H741 0.984 . S
N735 C728 1.356 . S
N735 H738 0.984 . S
N735 H739 0.985 . S
H736 N731 0.984 . S
H737 N731 0.985 . S
H738 N735 0.984 . S
H739 N735 0.985 . S
H740 N734 0.984 . S
H741 N734 0.984 . S
H742 N730 0.984 . S
H743 N730 0.985 . S
C744 C745 1.363 . S
C744 C750 1.379 . S
C744 N752 1.356 . S
C745 C744 1.363 . S
C745 C751 1.363 . S
C746 C747 1.363 . S
C746 C751 1.379 . S
C746 N753 1.356 . S
C747 C746 1.363 . S
C747 C750 1.363 . S
N748 C750 1.356 . S
N748 H760 0.984 . S
N748 H761 0.985 . S
N749 C751 1.356 . S
N749 H754 0.984 . S
N749 H755 0.985 . S
C750 C744 1.379 . S
C750 C747 1.363 . S
C750 N748 1.356 . S
C751 C745 1.363 . S
C751 C746 1.379 . S
C751 N749 1.356 . S
N752 C744 1.356 . S
N752 H758 0.984 . S
N752 H759 0.984 . S
N753 C746 1.356 . S
N753 H756 0.984 . S
N753 H757 0.985 . S
H754 N749 0.984 . S
H755 N749 0.985 . S
H756 N753 0.984 . S
H757 N753 0.985 . S
H758 N752 0.984 . S
H759 N752 0.984 . S
H760 N748 0.984 . S
H761 N748 0.985 . S
C762 C763 1.363 . S
C762 C768 1.379 . S
C762 N770 1.356 . S
C763 C762 1.363 . S
C763 C769 1.363 . S
C764 C765 1.363 . S
C764 C769 1.379 . S
C764 N771 1.356 . S
C765 C764 1.363 . S
C765 C768 1.363 . S
N766 C768 1.356 . S
N766 H778 0.984 . S
N766 H779 0.985 . S
N767 C769 1.356 . S
N767 H772 0.984 . S
N767 H773 0.985 . S
C768 C762 1.379 . S
C768 C765 1.363 . S
C768 N766 1.356 . S
C769 C763 1.363 . S
C769 C764 1.379 . S
C769 N767 1.356 . S
N770 C762 1.356 . S
N770 H776 0.984 . S
N770 H777 0.984 . S
N771 C764 1.356 . S
N771 H774 0.984 . S
N771 H775 0.985 . S
H772 N767 0.984 . S
H773 N767 0.985 . S
H774 N771 0.984 . S
H775 N771 0.985 . S
H776 N770 0.984 . S
H777 N770 0.984 . S
H778 N766 0.984 . S
H779 N766 0.985 . S
C780 C781 1.363 . S
C780 C786 1.379 . S
C780 N788 1.356 . S
C781 C780 1.363 . S
C781 C787 1.363 . S
C782 C783 1.363 . S
C782 C787 1.379 . S
C782 N789 1.356 . S
C783 C782 1.363 . S
C783 C786 1.363 . S
N784 C786 1.356 . S
N784 H796 0.984 . S
N784 H797 0.985 . S
N785 C787 1.356 . S
N785 H790 0.984 . S
N785 H791 0.985 . S
C786 C780 1.379 . S
C786 C783 1.363 . S
C786 N784 1.356 . S
C787 C781 1.363 . S
C787 C782 1.379 . S
C787 N785 1.356 . S
N788 C780 1.356 . S
N788 H794 0.984 . S
N788 H795 0.984 . S
N789 C782 1.356 . S
N789 H792 0.984 . S
N789 H793 0.985 . S
H790 N785 0.984 . S
H791 N785 0.985 . S
H792 N789 0.984 . S
H793 N789 0.985 . S
H794 N788 0.984 . S
H795 N788 0.984 . S
H796 N784 0.984 . S
H797 N784 0.985 . S
C798 C799 1.363 . S
C798 C804 1.379 . S
C798 N806 1.356 . S
C799 C798 1.363 . S
C799 C805 1.363 . S
C800 C801 1.363 . S
C800 C805 1.379 . S
C800 N807 1.356 . S
C801 C800 1.363 . S
C801 C804 1.363 . S
N802 C804 1.356 . S
N802 H814 0.984 . S
N802 H815 0.985 . S
N803 C805 1.356 . S
N803 H808 0.984 . S
N803 H809 0.985 . S
C804 C798 1.379 . S
C804 C801 1.363 . S
C804 N802 1.356 . S
C805 C799 1.363 . S
C805 C800 1.379 . S
C805 N803 1.356 . S
N806 C798 1.356 . S
N806 H812 0.984 . S
N806 H813 0.984 . S
N807 C800 1.356 . S
N807 H810 0.984 . S
N807 H811 0.985 . S
H808 N803 0.984 . S
H809 N803 0.985 . S
H810 N807 0.984 . S
H811 N807 0.985 . S
H812 N806 0.984 . S
H813 N806 0.984 . S
H814 N802 0.984 . S
H815 N802 0.985 . S
C816 C817 1.363 . S
C816 C822 1.379 . S
C816 N824 1.356 . S
C817 C816 1.363 . S
C817 C823 1.363 . S
C818 C819 1.363 . S
C818 C823 1.379 . S
C818 N825 1.356 . S
C819 C818 1.363 . S
C819 C822 1.363 . S
N820 C822 1.356 . S
N820 H832 0.984 . S
N820 H833 0.985 . S
N821 C823 1.356 . S
N821 H826 0.984 . S
N821 H827 0.985 . S
C822 C816 1.379 . S
C822 C819 1.363 . S
C822 N820 1.356 . S
C823 C817 1.363 . S
C823 C818 1.379 . S
C823 N821 1.356 . S
N824 C816 1.356 . S
N824 H830 0.984 . S
N824 H831 0.984 . S
N825 C818 1.356 . S
N825 H828 0.984 . S
N825 H829 0.985 . S
H826 N821 0.984 . S
H827 N821 0.985 . S
H828 N825 0.984 . S
H829 N825 0.985 . S
H830 N824 0.984 . S
H831 N824 0.984 . S
H832 N820 0.984 . S
H833 N820 0.985 . S
C834 C835 1.363 . S
C834 C840 1.379 . S
C834 N842 1.356 . S
C835 C834 1.363 . S
C835 C841 1.363 . S
C836 C837 1.363 . S
C836 C841 1.379 . S
C836 N843 1.356 . S
C837 C836 1.363 . S
C837 C840 1.363 . S
N838 C840 1.356 . S
N838 H850 0.984 . S
N838 H851 0.985 . S
N839 C841 1.356 . S
N839 H844 0.984 . S
N839 H845 0.985 . S
C840 C834 1.379 . S
C840 C837 1.363 . S
C840 N838 1.356 . S
C841 C835 1.363 . S
C841 C836 1.379 . S
C841 N839 1.356 . S
N842 C834 1.356 . S
N842 H848 0.984 . S
N842 H849 0.984 . S
N843 C836 1.356 . S
N843 H846 0.984 . S
N843 H847 0.985 . S
H844 N839 0.984 . S
H845 N839 0.985 . S
H846 N843 0.984 . S
H847 N843 0.985 . S
H848 N842 0.984 . S
H849 N842 0.984 . S
H850 N838 0.984 . S
H851 N838 0.985 . S
C852 C853 1.363 . S
C852 C858 1.379 . S
C852 N860 1.356 . S
C853 C852 1.363 . S
C853 C859 1.363 . S
C854 C855 1.363 . S
C854 C859 1.379 . S
C854 N861 1.356 . S
C855 C854 1.363 . S
C855 C858 1.363 . S
N856 C858 1.356 . S
N856 H868 0.984 . S
N856 H869 0.985 . S
N857 C859 1.356 . S
N857 H862 0.984 . S
N857 H863 0.985 . S
C858 C852 1.379 . S
C858 C855 1.363 . S
C858 N856 1.356 . S
C859 C853 1.363 . S
C859 C854 1.379 . S
C859 N857 1.356 . S
N860 C852 1.356 . S
N860 H866 0.984 . S
N860 H867 0.984 . S
N861 C854 1.356 . S
N861 H864 0.984 . S
N861 H865 0.985 . S
H862 N857 0.984 . S
H863 N857 0.985 . S
H864 N861 0.984 . S
H865 N861 0.985 . S
H866 N860 0.984 . S
H867 N860 0.984 . S
H868 N856 0.984 . S
H869 N856 0.985 . S
C870 C871 1.363 . S
C870 C876 1.379 . S
C870 N878 1.356 . S
C871 C870 1.363 . S
C871 C877 1.363 . S
C872 C873 1.363 . S
C872 C877 1.379 . S
C872 N879 1.356 . S
C873 C872 1.363 . S
C873 C876 1.363 . S
N874 C876 1.356 . S
N874 H886 0.984 . S
N874 H887 0.985 . S
N875 C877 1.356 . S
N875 H880 0.984 . S
N875 H881 0.985 . S
C876 C870 1.379 . S
C876 C873 1.363 . S
C876 N874 1.356 . S
C877 C871 1.363 . S
C877 C872 1.379 . S
C877 N875 1.356 . S
N878 C870 1.356 . S
N878 H884 0.984 . S
N878 H885 0.984 . S
N879 C872 1.356 . S
N879 H882 0.984 . S
N879 H883 0.985 . S
H880 N875 0.984 . S
H881 N875 0.985 . S
H882 N879 0.984 . S
H883 N879 0.985 . S
H884 N878 0.984 . S
H885 N878 0.984 . S
H886 N874 0.984 . S
H887 N874 0.985 . S
C888 C889 1.363 . S
C888 C894 1.379 . S
C888 N896 1.356 . S
C889 C888 1.363 . S
C889 C895 1.363 . S
C890 C891 1.363 . S
C890 C895 1.379 . S
C890 N897 1.356 . S
C891 C890 1.363 . S
C891 C894 1.363 . S
N892 C894 1.356 . S
N892 H904 0.984 . S
N892 H905 0.985 . S
N893 C895 1.356 . S
N893 H898 0.984 . S
N893 H899 0.985 . S
C894 C888 1.379 . S
C894 C891 1.363 . S
C894 N892 1.356 . S
C895 C889 1.363 . S
C895 C890 1.379 . S
C895 N893 1.356 . S
N896 C888 1.356 . S
N896 H902 0.984 . S
N896 H903 0.984 . S
N897 C890 1.356 . S
N897 H900 0.984 . S
N897 H901 0.985 . S
H898 N893 0.984 . S
H899 N893 0.985 . S
H900 N897 0.984 . S
H901 N897 0.985 . S
H902 N896 0.984 . S
H903 N896 0.984 . S
H904 N892 0.984 . S
H905 N892 0.985 . S
C906 C907 1.363 . S
C906 C912 1.379 . S
C906 N914 1.356 . S
C907 C906 1.363 . S
C907 C913 1.363 . S
C908 C909 1.363 . S
C908 C913 1.379 . S
C908 N915 1.356 . S
C909 C908 1.363 . S
C909 C912 1.363 . S
N910 C912 1.356 . S
N910 H922 0.984 . S
N910 H923 0.985 . S
N911 C913 1.356 . S
N911 H916 0.984 . S
N911 H917 0.985 . S
C912 C906 1.379 . S
C912 C909 1.363 . S
C912 N910 1.356 . S
C913 C907 1.363 . S
C913 C908 1.379 . S
C913 N911 1.356 . S
N914 C906 1.356 . S
N914 H920 0.984 . S
N914 H921 0.984 . S
N915 C908 1.356 . S
N915 H918 0.984 . S
N915 H919 0.985 . S
H916 N911 0.984 . S
H917 N911 0.985 . S
H918 N915 0.984 . S
H919 N915 0.985 . S
H920 N914 0.984 . S
H921 N914 0.984 . S
H922 N910 0.984 . S
H923 N910 0.985 . S
C924 C925 1.363 . S
C924 C930 1.379 . S
C924 N932 1.356 . S
C925 C924 1.363 . S
C925 C931 1.363 . S
C926 C927 1.363 . S
C926 C931 1.379 . S
C926 N933 1.356 . S
C927 C926 1.363 . S
C927 C930 1.363 . S
N928 C930 1.356 . S
N928 H940 0.984 . S
N928 H941 0.985 . S
N929 C931 1.356 . S
N929 H934 0.984 . S
N929 H935 0.985 . S
C930 C924 1.379 . S
C930 C927 1.363 . S
C930 N928 1.356 . S
C931 C925 1.363 . S
C931 C926 1.379 . S
C931 N929 1.356 . S
N932 C924 1.356 . S
N932 H938 0.984 . S
N932 H939 0.984 . S
N933 C926 1.356 . S
N933 H936 0.984 . S
N933 H937 0.985 . S
H934 N929 0.984 . S
H935 N929 0.985 . S
H936 N933 0.984 . S
H937 N933 0.985 . S
H938 N932 0.984 . S
H939 N932 0.984 . S
H940 N928 0.984 . S
H941 N928 0.985 . S
C942 C943 1.363 . S
C942 C948 1.379 . S
C942 N950 1.356 . S
C943 C942 1.363 . S
C943 C949 1.363 . S
C944 C945 1.363 . S
C944 C949 1.379 . S
C944 N951 1.356 . S
C945 C944 1.363 . S
C945 C948 1.363 . S
N946 C948 1.356 . S
N946 H958 0.984 . S
N946 H959 0.985 . S
N947 C949 1.356 . S
N947 H952 0.984 . S
N947 H953 0.985 . S
C948 C942 1.379 . S
C948 C945 1.363 . S
C948 N946 1.356 . S
C949 C943 1.363 . S
C949 C944 1.379 . S
C949 N947 1.356 . S
N950 C942 1.356 . S
N950 H956 0.984 . S
N950 H957 0.984 . S
N951 C944 1.356 . S
N951 H954 0.984 . S
N951 H955 0.985 . S
H952 N947 0.984 . S
H953 N947 0.985 . S
H954 N951 0.984 . S
H955 N951 0.985 . S
H956 N950 0.984 . S
H957 N950 0.984 . S
H958 N946 0.984 . S
H959 N946 0.985 . S
C960 C961 1.363 . S
C960 C966 1.379 . S
C960 N968 1.356 . S
C961 C960 1.363 . S
C961 C967 1.363 . S
C962 C963 1.363 . S
C962 C967 1.379 . S
C962 N969 1.356 . S
C963 C962 1.363 . S
C963 C966 1.363 . S
N964 C966 1.356 . S
N964 H976 0.984 . S
N964 H977 0.985 . S
N965 C967 1.356 . S
N965 H970 0.984 . S
N965 H971 0.985 . S
C966 C960 1.379 . S
C966 C963 1.363 . S
C966 N964 1.356 . S
C967 C961 1.363 . S
C967 C962 1.379 . S
C967 N965 1.356 . S
N968 C960 1.356 . S
N968 H974 0.984 . S
N968 H975 0.984 . S
N969 C962 1.356 . S
N969 H972 0.984 . S
N969 H973 0.985 . S
H970 N965 0.984 . S
H971 N965 0.985 . S
H972 N969 0.984 . S
H973 N969 0.985 . S
H974 N968 0.984 . S
H975 N968 0.984 . S
H976 N964 0.984 . S
H977 N964 0.985 . S
C978 C979 1.363 . S
C978 C984 1.379 . S
C978 N986 1.356 . S
C979 C978 1.363 . S
C979 C985 1.363 . S
C980 C981 1.363 . S
C980 C985 1.379 . S
C980 N987 1.356 . S
C981 C980 1.363 . S
C981 C984 1.363 . S
N982 C984 1.356 . S
N982 H994 0.984 . S
N982 H995 0.985 . S
N983 C985 1.356 . S
N983 H988 0.984 . S
N983 H989 0.985 . S
C984 C978 1.379 . S
C984 C981 1.363 . S
C984 N982 1.356 . S
C985 C979 1.363 . S
C985 C980 1.379 . S
C985 N983 1.356 . S
N986 C978 1.356 . S
N986 H992 0.984 . S
N986 H993 0.984 . S
N987 C980 1.356 . S
N987 H990 0.984 . S
N987 H991 0.985 . S
H988 N983 0.984 . S
H989 N983 0.985 . S
H990 N987 0.984 . S
H991 N987 0.985 . S
H992 N986 0.984 . S
H993 N986 0.984 . S
H994 N982 0.984 . S
H995 N982 0.985 . S
C996 C997 1.363 . S
C996 C1002 1.379 . S
C996 N1004 1.356 . S
C997 C996 1.363 . S
C997 C1003 1.363 . S
C998 C999 1.363 . S
C998 C1003 1.379 . S
C998 N1005 1.356 . S
C999 C998 1.363 . S
C999 C1002 1.363 . S
N1000 C1002 1.356 . S
N1000 H1012 0.984 . S
N1000 H1013 0.985 . S
N1001 C1003 1.356 . S
N1001 H1006 0.984 . S
N1001 H1007 0.985 . S
C1002 C996 1.379 . S
C1002 C999 1.363 . S
C1002 N1000 1.356 . S
C1003 C997 1.363 . S
C1003 C998 1.379 . S
C1003 N1001 1.356 . S
N1004 C996 1.356 . S
N1004 H1010 0.984 . S
N1004 H1011 0.984 . S
N1005 C998 1.356 . S
N1005 H1008 0.984 . S
N1005 H1009 0.985 . S
H1006 N1001 0.984 . S
H1007 N1001 0.985 . S
H1008 N1005 0.984 . S
H1009 N1005 0.985 . S
H1010 N1004 0.984 . S
H1011 N1004 0.984 . S
H1012 N1000 0.984 . S
H1013 N1000 0.985 . S
C1014 C1015 1.363 . S
C1014 C1020 1.379 . S
C1014 N1022 1.356 . S
C1015 C1014 1.363 . S
C1015 C1021 1.363 . S
C1016 C1017 1.363 . S
C1016 C1021 1.379 . S
C1016 N1023 1.356 . S
C1017 C1016 1.363 . S
C1017 C1020 1.363 . S
N1018 C1020 1.356 . S
N1018 H1030 0.984 . S
N1018 H1031 0.985 . S
N1019 C1021 1.356 . S
N1019 H1024 0.984 . S
N1019 H1025 0.985 . S
C1020 C1014 1.379 . S
C1020 C1017 1.363 . S
C1020 N1018 1.356 . S
C1021 C1015 1.363 . S
C1021 C1016 1.379 . S
C1021 N1019 1.356 . S
N1022 C1014 1.356 . S
N1022 H1028 0.984 . S
N1022 H1029 0.984 . S
N1023 C1016 1.356 . S
N1023 H1026 0.984 . S
N1023 H1027 0.985 . S
H1024 N1019 0.984 . S
H1025 N1019 0.985 . S
H1026 N1023 0.984 . S
H1027 N1023 0.985 . S
H1028 N1022 0.984 . S
H1029 N1022 0.984 . S
H1030 N1018 0.984 . S
H1031 N1018 0.985 . S
C1032 C1033 1.363 . S
C1032 C1038 1.379 . S
C1032 N1040 1.356 . S
C1033 C1032 1.363 . S
C1033 C1039 1.363 . S
C1034 C1035 1.363 . S
C1034 C1039 1.379 . S
C1034 N1041 1.356 . S
C1035 C1034 1.363 . S
C1035 C1038 1.363 . S
N1036 C1038 1.356 . S
N1036 H1048 0.984 . S
N1036 H1049 0.985 . S
N1037 C1039 1.356 . S
N1037 H1042 0.984 . S
N1037 H1043 0.985 . S
C1038 C1032 1.379 . S
C1038 C1035 1.363 . S
C1038 N1036 1.356 . S
C1039 C1033 1.363 . S
C1039 C1034 1.379 . S
C1039 N1037 1.356 . S
N1040 C1032 1.356 . S
N1040 H1046 0.984 . S
N1040 H1047 0.984 . S
N1041 C1034 1.356 . S
N1041 H1044 0.984 . S
N1041 H1045 0.985 . S
H1042 N1037 0.984 . S
H1043 N1037 0.985 . S
H1044 N1041 0.984 . S
H1045 N1041 0.985 . S
H1046 N1040 0.984 . S
H1047 N1040 0.984 . S
H1048 N1036 0.984 . S
H1049 N1036 0.985 . S
C1050 C1051 1.363 . S
C1050 C1056 1.379 . S
C1050 N1058 1.356 . S
C1051 C1050 1.363 . S
C1051 C1057 1.363 . S
C1052 C1053 1.363 . S
C1052 C1057 1.379 . S
C1052 N1059 1.356 . S
C1053 C1052 1.363 . S
C1053 C1056 1.363 . S
N1054 C1056 1.356 . S
N1054 H1066 0.984 . S
N1054 H1067 0.985 . S
N1055 C1057 1.356 . S
N1055 H1060 0.984 . S
N1055 H1061 0.985 . S
C1056 C1050 1.379 . S
C1056 C1053 1.363 . S
C1056 N1054 1.356 . S
C1057 C1051 1.363 . S
C1057 C1052 1.379 . S
C1057 N1055 1.356 . S
N1058 C1050 1.356 . S
N1058 H1064 0.984 . S
N1058 H1065 0.984 . S
N1059 C1052 1.356 . S
N1059 H1062 0.984 . S
N1059 H1063 0.985 . S
H1060 N1055 0.984 . S
H1061 N1055 0.985 . S
H1062 N1059 0.984 . S
H1063 N1059 0.985 . S
H1064 N1058 0.984 . S
H1065 N1058 0.984 . S
H1066 N1054 0.984 . S
H1067 N1054 0.985 . S
C1068 C1069 1.363 . S
C1068 C1074 1.379 . S
C1068 N1076 1.356 . S
C1069 C1068 1.363 . S
C1069 C1075 1.363 . S
C1070 C1071 1.363 . S
C1070 C1075 1.379 . S
C1070 N1077 1.356 . S
C1071 C1070 1.363 . S
C1071 C1074 1.363 . S
N1072 C1074 1.356 . S
N1072 H1084 0.984 . S
N1072 H1085 0.985 . S
N1073 C1075 1.356 . S
N1073 H1078 0.984 . S
N1073 H1079 0.985 . S
C1074 C1068 1.379 . S
C1074 C1071 1.363 . S
C1074 N1072 1.356 . S
C1075 C1069 1.363 . S
C1075 C1070 1.379 . S
C1075 N1073 1.356 . S
N1076 C1068 1.356 . S
N1076 H1082 0.984 . S
N1076 H1083 0.984 . S
N1077 C1070 1.356 . S
N1077 H1080 0.984 . S
N1077 H1081 0.985 . S
H1078 N1073 0.984 . S
H1079 N1073 0.985 . S
H1080 N1077 0.984 . S
H1081 N1077 0.985 . S
H1082 N1076 0.984 . S
H1083 N1076 0.984 . S
H1084 N1072 0.984 . S
H1085 N1072 0.985 . S
C1086 C1087 1.363 . S
C1086 C1092 1.379 . S
C1086 N1094 1.356 . S
C1087 C1086 1.363 . S
C1087 C1093 1.363 . S
C1088 C1089 1.363 . S
C1088 C1093 1.379 . S
C1088 N1095 1.356 . S
C1089 C1088 1.363 . S
C1089 C1092 1.363 . S
N1090 C1092 1.356 . S
N1090 H1102 0.984 . S
N1090 H1103 0.985 . S
N1091 C1093 1.356 . S
N1091 H1096 0.984 . S
N1091 H1097 0.985 . S
C1092 C1086 1.379 . S
C1092 C1089 1.363 . S
C1092 N1090 1.356 . S
C1093 C1087 1.363 . S
C1093 C1088 1.379 . S
C1093 N1091 1.356 . S
N1094 C1086 1.356 . S
N1094 H1100 0.984 . S
N1094 H1101 0.984 . S
N1095 C1088 1.356 . S
N1095 H1098 0.984 . S
N1095 H1099 0.985 . S
H1096 N1091 0.984 . S
H1097 N1091 0.985 . S
H1098 N1095 0.984 . S
H1099 N1095 0.985 . S
H1100 N1094 0.984 . S
H1101 N1094 0.984 . S
H1102 N1090 0.984 . S
H1103 N1090 0.985 . S
C1104 C1105 1.363 . S
C1104 C1110 1.379 . S
C1104 N1112 1.356 . S
C1105 C1104 1.363 . S
C1105 C1111 1.363 . S
C1106 C1107 1.363 . S
C1106 C1111 1.379 . S
C1106 N1113 1.356 . S
C1107 C1106 1.363 . S
C1107 C1110 1.363 . S
N1108 C1110 1.356 . S
N1108 H1120 0.984 . S
N1108 H1121 0.985 . S
N1109 C1111 1.356 . S
N1109 H1114 0.984 . S
N1109 H1115 0.985 . S
C1110 C1104 1.379 . S
C1110 C1107 1.363 . S
C1110 N1108 1.356 . S
C1111 C1105 1.363 . S
C1111 C1106 1.379 . S
C1111 N1109 1.356 . S
N1112 C1104 1.356 . S
N1112 H1118 0.984 . S
N1112 H1119 0.984 . S
N1113 C1106 1.356 . S
N1113 H1116 0.984 . S
N1113 H1117 0.985 . S
H1114 N1109 0.984 . S
H1115 N1109 0.985 . S
H1116 N1113 0.984 . S
H1117 N1113 0.985 . S
H1118 N1112 0.984 . S
H1119 N1112 0.984 . S
H1120 N1108 0.984 . S
H1121 N1108 0.985 . S
C1122 C1123 1.363 . S
C1122 C1128 1.379 . S
C1122 N1130 1.356 . S
C1123 C1122 1.363 . S
C1123 C1129 1.363 . S
C1124 C1125 1.363 . S
C1124 C1129 1.379 . S
C1124 N1131 1.356 . S
C1125 C1124 1.363 . S
C1125 C1128 1.363 . S
N1126 C1128 1.356 . S
N1126 H1138 0.984 . S
N1126 H1139 0.985 . S
N1127 C1129 1.356 . S
N1127 H1132 0.984 . S
N1127 H1133 0.985 . S
C1128 C1122 1.379 . S
C1128 C1125 1.363 . S
C1128 N1126 1.356 . S
C1129 C1123 1.363 . S
C1129 C1124 1.379 . S
C1129 N1127 1.356 . S
N1130 C1122 1.356 . S
N1130 H1136 0.984 . S
N1130 H1137 0.984 . S
N1131 C1124 1.356 . S
N1131 H1134 0.984 . S
N1131 H1135 0.985 . S
H1132 N1127 0.984 . S
H1133 N1127 0.985 . S
H1134 N1131 0.984 . S
H1135 N1131 0.985 . S
H1136 N1130 0.984 . S
H1137 N1130 0.984 . S
H1138 N1126 0.984 . S
H1139 N1126 0.985 . S
C1140 C1141 1.363 . S
C1140 C1146 1.379 . S
C1140 N1148 1.356 . S
C1141 C1140 1.363 . S
C1141 C1147 1.363 . S
C1142 C1143 1.363 . S
C1142 C1147 1.379 . S
C1142 N1149 1.356 . S
C1143 C1142 1.363 . S
C1143 C1146 1.363 . S
N1144 C1146 1.356 . S
N1144 H1156 0.984 . S
N1144 H1157 0.985 . S
N1145 C1147 1.356 . S
N1145 H1150 0.984 . S
N1145 H1151 0.985 . S
C1146 C1140 1.379 . S
C1146 C1143 1.363 . S
C1146 N1144 1.356 . S
C1147 C1141 1.363 . S
C1147 C1142 1.379 . S
C1147 N1145 1.356 . S
N1148 C1140 1.356 . S
N1148 H1154 0.984 . S
N1148 H1155 0.984 . S
N1149 C1142 1.356 . S
N1149 H1152 0.984 . S
N1149 H1153 0.985 . S
H1150 N1145 0.984 . S
H1151 N1145 0.985 . S
H1152 N1149 0.984 . S
H1153 N1149 0.985 . S
H1154 N1148 0.984 . S
H1155 N1148 0.984 . S
H1156 N1144 0.984 . S
H1157 N1144 0.985 . S
C1158 C1159 1.363 . S
C1158 C1164 1.379 . S
C1158 N1166 1.356 . S
C1159 C1158 1.363 . S
C1159 C1165 1.363 . S
C1160 C1161 1.363 . S
C1160 C1165 1.379 . S
C1160 N1167 1.356 . S
C1161 C1160 1.363 . S
C1161 C1164 1.363 . S
N1162 C1164 1.356 . S
N1162 H1174 0.984 . S
N1162 H1175 0.985 . S
N1163 C1165 1.356 . S
N1163 H1168 0.984 . S
N1163 H1169 0.985 . S
C1164 C1158 1.379 . S
C1164 C1161 1.363 . S
C1164 N1162 1.356 . S
C1165 C1159 1.363 . S
C1165 C1160 1.379 . S
C1165 N1163 1.356 . S
N1166 C1158 1.356 . S
N1166 H1172 0.984 . S
N1166 H1173 0.984 . S
N1167 C1160 1.356 . S
N1167 H1170 0.984 . S
N1167 H1171 0.985 . S
H1168 N1163 0.984 . S
H1169 N1163 0.985 . S
H1170 N1167 0.984 . S
H1171 N1167 0.985 . S
H1172 N1166 0.984 . S
H1173 N1166 0.984 . S
H1174 N1162 0.984 . S
H1175 N1162 0.985 . S
C313 C289 1.733 . S
C315 C3 1.731 . S
C331 C23 1.692 . S
C333 C309 1.688 . S
C349 C265 1.630 . S
C351 C29 1.726 . S
C367 C274 1.808 . S
C369 C40 1.808 . S
C385 C276 1.767 . S
C387 C55 1.768 . S
C403 C70 1.639 . S
C405 C287 1.722 . S
C421 C304 1.655 . S
C423 C81 1.754 . S
C439 C94 1.746 . S
C441 C270 1.668 . S
C457 C109 1.633 . S
C459 C252 1.636 . S
C475 C211 1.774 . S
C477 C127 1.690 . S
C493 C140 1.667 . S
C495 C226 1.653 . S
C511 C235 1.730 . S
C513 C148 1.644 . S
C529 C153 1.683 . S
C531 C172 1.764 . S
C547 C114 1.674 . S
C549 C185 1.755 . S
C565 C198 1.743 . S
C567 C122 1.641 . S
C583 C135 1.621 . S
C585 C159 1.714 . S
C601 C18 1.626 . S
C603 C237 1.720 . S
C619 C183 1.773 . S
C621 C92 1.774 . S
C637 C53 1.766 . S
C639 C196 1.767 . S
C655 C157 1.751 . S
C657 C75 1.683 . S
C673 C79 1.777 . S
C675 C170 1.776 . S
C691 C42 1.802 . S
C693 C209 1.793 . S
C709 C1 1.749 . S
C711 C231 1.681 . S
C727 C27 1.738 . S
C729 C257 1.672 . S
C745 C88 1.747 . S
C747 C261 1.685 . S
C763 C278 1.762 . S
C765 C101 1.755 . S
C781 C296 1.737 . S
C783 C62 1.737 . S
C799 C302 1.685 . S
C801 C66 1.699 . S
C817 C36 1.778 . S
C819 C300 1.704 . S
C835 C44 1.722 . S
C837 C263 1.632 . S
C853 C10 1.768 . S
C855 C283 1.768 . S
C871 C291 1.712 . S
C873 C16 1.621 . S
C889 C133 1.669 . S
C891 C179 1.755 . S
C907 C144 1.734 . S
C909 C192 1.807 . S
C925 C105 1.681 . S
C927 C205 1.743 . S
C943 C120 1.647 . S
C945 C166 1.729 . S
C961 C118 1.696 . S
C963 C248 1.692 . S
C979 C218 1.788 . S
C981 C131 1.718 . S
C997 C146 1.677 . S
C999 C222 1.693 . S
C1015 C107 1.623 . S
C1017 C239 1.712 . S
C1033 C161 1.722 . S
C1035 C96 1.721 . S
C1051 C213 1.737 . S
C1053 C14 1.663 . S
C1069 C31 1.756 . S
C1071 C224 1.657 . S
C1087 C244 1.751 . S
C1089 C49 1.750 . S
C1105 C250 1.664 . S
C1107 C5 1.763 . S
C1123 C68 1.661 . S
C1125 C187 1.762 . S
C1141 C200 1.736 . S
C1143 C83 1.736 . S
C1159 C174 1.727 . S
C1161 C57 1.727 . S
