# Generated by pormake.
# Topology wjf, (4)-cn, num edge types: 1
# Building blocks:
#     Node 0, Type 0, BuildingBlock: QUQFOY_clean_sbu_1, # of connection points: 4
#     Node 1, Type 0, BuildingBlock: QUQFOY_clean_sbu_1, # of connection points: 4
#     Node 2, Type 0, BuildingBlock: QUQFOY_clean_sbu_1, # of connection points: 4
#     Node 3, Type 0, BuildingBlock: QUQFOY_clean_sbu_1, # of connection points: 4
#     Node 4, Type 0, BuildingBlock: QUQFOY_clean_sbu_1, # of connection points: 4
#     Node 5, Type 0, BuildingBlock: QUQFOY_clean_sbu_1, # of connection points: 4
#     Node 6, Type 0, BuildingBlock: QUQFOY_clean_sbu_1, # of connection points: 4
#     Node 7, Type 0, BuildingBlock: QUQFOY_clean_sbu_1, # of connection points: 4
#     Node 8, Type 0, BuildingBlock: QUQFOY_clean_sbu_1, # of connection points: 4
#     Node 9, Type 0, BuildingBlock: QUQFOY_clean_sbu_1, # of connection points: 4
#     Node 10, Type 0, BuildingBlock: QUQFOY_clean_sbu_1, # of connection points: 4
#     Node 11, Type 0, BuildingBlock: QUQFOY_clean_sbu_1, # of connection points: 4
#     Edge 12, Type (0, 0), BuildingBlock: KIFKEQ_clean_linker_1, # of connection points: 2
#     Edge 13, Type (0, 0), BuildingBlock: KIFKEQ_clean_linker_1, # of connection points: 2
#     Edge 14, Type (0, 0), BuildingBlock: KIFKEQ_clean_linker_1, # of connection points: 2
#     Edge 15, Type (0, 0), BuildingBlock: KIFKEQ_clean_linker_1, # of connection points: 2
#     Edge 16, Type (0, 0), BuildingBlock: KIFKEQ_clean_linker_1, # of connection points: 2
#     Edge 17, Type (0, 0), BuildingBlock: KIFKEQ_clean_linker_1, # of connection points: 2
#     Edge 18, Type (0, 0), BuildingBlock: KIFKEQ_clean_linker_1, # of connection points: 2
#     Edge 19, Type (0, 0), BuildingBlock: KIFKEQ_clean_linker_1, # of connection points: 2
#     Edge 20, Type (0, 0), BuildingBlock: KIFKEQ_clean_linker_1, # of connection points: 2
#     Edge 21, Type (0, 0), BuildingBlock: KIFKEQ_clean_linker_1, # of connection points: 2
#     Edge 22, Type (0, 0), BuildingBlock: KIFKEQ_clean_linker_1, # of connection points: 2
#     Edge 23, Type (0, 0), BuildingBlock: KIFKEQ_clean_linker_1, # of connection points: 2
#     Edge 24, Type (0, 0), BuildingBlock: KIFKEQ_clean_linker_1, # of connection points: 2
#     Edge 25, Type (0, 0), BuildingBlock: KIFKEQ_clean_linker_1, # of connection points: 2
#     Edge 26, Type (0, 0), BuildingBlock: KIFKEQ_clean_linker_1, # of connection points: 2
#     Edge 27, Type (0, 0), BuildingBlock: KIFKEQ_clean_linker_1, # of connection points: 2
#     Edge 28, Type (0, 0), BuildingBlock: KIFKEQ_clean_linker_1, # of connection points: 2
#     Edge 29, Type (0, 0), BuildingBlock: KIFKEQ_clean_linker_1, # of connection points: 2
#     Edge 30, Type (0, 0), BuildingBlock: KIFKEQ_clean_linker_1, # of connection points: 2
#     Edge 31, Type (0, 0), BuildingBlock: KIFKEQ_clean_linker_1, # of connection points: 2
#     Edge 32, Type (0, 0), BuildingBlock: KIFKEQ_clean_linker_1, # of connection points: 2
#     Edge 33, Type (0, 0), BuildingBlock: KIFKEQ_clean_linker_1, # of connection points: 2
#     Edge 34, Type (0, 0), BuildingBlock: KIFKEQ_clean_linker_1, # of connection points: 2
#     Edge 35, Type (0, 0), BuildingBlock: KIFKEQ_clean_linker_1, # of connection points: 2
# Relax obj value: 0.018
# Max RMSD: 0.065
# Mean RMSD: 0.065
data_MOF--net-wjf--node1-QUQFOY_clean_sbu_1--edge1-KIFKEQ_clean_linker_1
_symmetry_space_group_name_H-M    P1
_symmetry_Int_Tables_number       1
_symmetry_cell_setting            triclinic
loop_
_symmetry_equiv_pos_as_xyz
'x, y, z'
_cell_length_a     54.702651
_cell_length_b     54.774404
_cell_length_c     29.02301
_cell_angle_alpha  90.023299
_cell_angle_beta   90.006712
_cell_angle_gamma 119.97316
loop_
_atom_site_label
_atom_site_type_symbol
_atom_site_fract_x
_atom_site_fract_y
_atom_site_fract_z
_atom_type_partial_charge
O0 O 0.33524 0.38903 1.01532 0.0
Cd1 Cd 0.34109 0.41719 0.06674 0.0
Cd2 Cd 0.3518 0.37683 0.1123 0.0
O3 O 0.33714 0.35444 0.05107 0.0
O4 O 0.32824 0.44087 0.0339 0.0
O5 O 0.30608 0.41496 0.09453 0.0
C6 C 0.30697 0.43113 0.06141 0.0
C7 C 0.33998 0.35549 0.18529 0.0
C8 C 0.33316 0.36488 1.01457 0.0
C9 C 0.39982 0.4376 0.10105 0.0
O10 O 0.39157 0.41198 0.11057 0.0
O11 O 0.38243 0.44484 0.0863 0.0
O12 O 0.35658 0.3521 0.15784 0.0
O13 O 0.32852 0.36963 0.17014 0.0
O14 O 0.95319 0.33062 0.33764 0.0
Cd15 Cd 0.93276 0.34057 0.38737 0.0
Cd16 Cd 0.98279 0.35041 0.43379 0.0
O17 O 0.98981 0.33356 0.37488 0.0
O18 O 0.89643 0.32889 0.35459 0.0
O19 O 0.89901 0.30767 0.41747 0.0
C20 C 0.8841 0.30856 0.38366 0.0
C21 C 0.98755 0.33699 0.50823 0.0
C22 C 0.97493 0.32793 0.33859 0.0
C23 C 0.97388 0.40002 0.41825 0.0
O24 O 0.99059 0.39114 0.42912 0.0
O25 O 0.94898 0.38294 0.40403 0.0
O26 O 0.00923 0.35148 0.48229 0.0
O27 O 0.96285 0.32874 0.49093 0.0
O28 O 0.6201 0.94729 0.6749 0.0
Cd29 Cd 0.5923 0.92562 0.72708 0.0
Cd30 Cd 0.63403 0.97608 0.77164 0.0
O31 O 0.65607 0.98274 0.71021 0.0
O32 O 0.56776 0.8891 0.69477 0.0
O33 O 0.59426 0.89267 0.75454 0.0
C34 C 0.57762 0.87745 0.72177 0.0
C35 C 0.65531 0.98496 0.84465 0.0
C36 C 0.64481 0.96857 0.67377 0.0
C37 C 0.57374 0.96516 0.7622 0.0
O38 O 0.5997 0.98212 0.77036 0.0
O39 O 0.5656 0.94023 0.74809 0.0
O40 O 0.65955 0.00517 0.8171 0.0
O41 O 0.64042 0.95945 0.82951 0.0
O42 O 0.6752 0.61803 1.00812 0.0
Cd43 Cd 0.66825 0.59117 0.06217 0.0
Cd44 Cd 0.66049 0.63303 0.10352 0.0
O45 O 0.67766 0.65504 0.0427 0.0
O46 O 0.68008 0.56563 0.03312 0.0
O47 O 0.70275 0.59338 0.09187 0.0
C48 C 0.70141 0.57594 0.06062 0.0
C49 C 0.67443 0.65245 0.1773 0.0
C50 C 0.67996 0.6432 1.00653 0.0
C51 C 0.60996 0.57432 0.09453 0.0
O52 O 0.61921 0.60048 0.10085 0.0
O53 O 0.62673 0.56556 0.08298 0.0
O54 O 0.66045 0.65981 0.1504 0.0
O55 O 0.68212 0.63531 0.16114 0.0
O56 O 0.05943 0.67818 0.34651 0.0
Cd57 Cd 0.08225 0.66935 0.39325 0.0
Cd58 Cd 0.03127 0.65678 0.44411 0.0
O59 O 0.0216 0.67134 0.38497 0.0
O60 O 0.11753 0.68192 0.3567 0.0
O61 O 0.11668 0.70266 0.42132 0.0
C62 C 0.1306 0.70213 0.38575 0.0
C63 C 0.02264 0.66802 0.51814 0.0
C64 C 0.03638 0.67847 0.34841 0.0
C65 C 0.04429 0.60956 0.42577 0.0
O66 O 0.0274 0.61752 0.43991 0.0
O67 O 0.06807 0.62719 0.4084 0.0
O68 O 1.00236 0.65113 0.49144 0.0
O69 O 0.04801 0.6799 0.50184 0.0
O70 O 0.39492 0.05914 0.67621 0.0
Cd71 Cd 0.42003 0.07979 0.73175 0.0
Cd72 Cd 0.37869 0.03026 0.77226 0.0
O73 O 0.35741 0.02494 0.71046 0.0
O74 O 0.44493 0.11834 0.70612 0.0
O75 O 0.41308 0.10939 0.76014 0.0
C76 C 0.43153 0.12706 0.73151 0.0
C77 C 0.3573 0.02208 0.84491 0.0
C78 C 0.36975 0.03868 0.67422 0.0
C79 C 0.4384 0.0403 0.76598 0.0
O80 O 0.41223 0.02298 0.77116 0.0
O81 O 0.44681 0.06575 0.7547 0.0
O82 O 0.35236 1.00163 0.81739 0.0
O83 O 0.37298 0.0475 0.82989 0.0
O84 O 0.62172 0.67368 0.68688 0.0
Cd85 Cd 0.59399 0.66675 0.63415 0.0
Cd86 Cd 0.63562 0.65841 0.59079 0.0
O87 O 0.65807 0.67508 0.65147 0.0
O88 O 0.56881 0.67826 0.66559 0.0
O89 O 0.5954 0.70124 0.60598 0.0
C90 C 0.5785 0.69967 0.63844 0.0
C91 C 0.65517 0.67197 0.51698 0.0
C92 C 0.64672 0.67784 0.6879 0.0
C93 C 0.57643 0.60841 0.60096 0.0
O94 O 0.60248 0.61747 0.59342 0.0
O95 O 0.568 0.62524 0.61367 0.0
O96 O 0.66201 0.65759 0.54386 0.0
O97 O 0.63848 0.68024 0.53314 0.0
O98 O 0.95111 0.62242 0.02957 0.0
Cd99 Cd 0.92933 0.59175 0.98086 0.0
Cd100 Cd 0.98024 0.63123 0.93272 0.0
O101 O 0.98867 0.65479 0.99241 0.0
O102 O 0.89328 0.56827 1.01504 0.0
O103 O 0.8956 0.59142 0.9515 0.0
C104 C 0.8809 0.57622 0.98591 0.0
C105 C 0.98839 0.65128 0.85898 0.0
C106 C 0.97367 0.64617 0.02868 0.0
C107 C 0.9684 0.57127 0.94832 0.0
O108 O 0.9853 0.59652 0.93616 0.0
O109 O 0.94411 0.56436 0.96436 0.0
O110 O 0.00889 0.65534 0.88576 0.0
O111 O 0.96303 0.63707 0.87513 0.0
O112 O 0.33721 0.94875 0.35419 0.0
Cd113 Cd 0.34381 0.92767 0.30155 0.0
Cd114 Cd 0.3527 0.97797 0.25813 0.0
O115 O 0.33699 0.98442 0.31922 0.0
O116 O 0.33151 0.89074 0.33251 0.0
O117 O 0.30912 0.89517 0.27272 0.0
C118 C 0.31023 0.87949 0.30495 0.0
C119 C 0.34 0.9864 0.18518 0.0
C120 C 0.33379 0.97003 0.35545 0.0
C121 C 0.40221 0.96753 0.26817 0.0
O122 O 0.39323 0.98449 0.26002 0.0
O123 O 0.38531 0.94247 0.28156 0.0
O124 O 0.35591 0.00678 0.21254 0.0
O125 O 0.32969 0.96096 0.20042 0.0
O126 O 0.39734 0.33737 0.69397 0.0
Cd127 Cd 0.42178 0.34081 0.63801 0.0
Cd128 Cd 0.38048 0.3492 0.59758 0.0
O129 O 0.35961 0.33381 0.65996 0.0
O130 O 0.44642 0.3267 0.66332 0.0
O131 O 0.41387 0.30381 0.61022 0.0
C132 C 0.43247 0.30445 0.63844 0.0
C133 C 0.35863 0.33601 0.52517 0.0
C134 C 0.3722 0.33279 0.69621 0.0
C135 C 0.44053 0.39834 0.60236 0.0
O136 O 0.41436 0.38979 0.59775 0.0
O137 O 0.44876 0.38118 0.61384 0.0
O138 O 0.35402 0.3517 0.55283 0.0
O139 O 0.37417 0.32602 0.54 0.0
O140 O 0.05665 0.38009 0.02041 0.0
Cd141 Cd 0.07824 0.41149 0.97282 0.0
Cd142 Cd 0.02798 0.37265 0.92349 0.0
O143 O 0.0196 0.34805 0.9818 0.0
O144 O 0.11379 0.43513 1.00826 0.0
O145 O 0.11277 0.41311 0.94404 0.0
C146 C 0.12686 0.42799 0.97917 0.0
C147 C 0.02243 0.35448 0.84878 0.0
C148 C 0.03431 0.3562 0.0184 0.0
C149 C 0.0383 0.43155 0.94209 0.0
O150 O 0.02153 0.40644 0.92901 0.0
O151 O 0.06271 0.43843 0.95769 0.0
O152 O 1.00098 0.34818 0.87479 0.0
O153 O 0.04731 0.37009 0.86606 0.0
O154 O 0.67767 0.06063 0.3546 0.0
Cd155 Cd 0.67117 0.08203 0.30237 0.0
Cd156 Cd 0.66202 0.03142 0.2582 0.0
O157 O 0.67762 0.02485 0.31945 0.0
O158 O 0.68341 0.11877 0.3341 0.0
O159 O 0.7058 0.1148 0.27391 0.0
C160 C 0.70464 0.13026 0.30649 0.0
C161 C 0.6742 0.02253 0.18502 0.0
C162 C 0.68089 0.03922 0.35578 0.0
C163 C 0.61276 0.04237 0.26856 0.0
O164 O 0.62165 0.02537 0.26012 0.0
O165 O 0.6297 0.06734 0.28234 0.0
O166 O 0.6583 1.00233 0.21263 0.0
O167 O 0.68485 0.04805 0.20016 0.0
H168 H 0.37019 0.33574 0.23074 0.0
H169 H 0.30271 0.354 0.25026 0.0
H170 H 0.37005 0.32663 0.31246 0.0
H171 H 0.30142 0.34338 0.33219 0.0
H172 H 0.33616 0.36391 0.48019 0.0
H173 H 0.32746 0.36399 0.39833 0.0
H174 H 0.34972 0.29931 0.3775 0.0
H175 H 0.3599 0.30045 0.4596 0.0
C176 C 0.35479 0.33713 0.25236 0.0
C177 C 0.33661 0.34584 0.23392 0.0
C178 C 0.35456 0.33169 0.29948 0.0
C179 C 0.33586 0.3344 0.32957 0.0
C180 C 0.31661 0.34167 0.31055 0.0
C181 C 0.31714 0.34753 0.2634 0.0
C182 C 0.33882 0.34939 0.4583 0.0
C183 C 0.34896 0.33233 0.4765 0.0
C184 C 0.33364 0.34929 0.41108 0.0
C185 C 0.33807 0.33183 0.38066 0.0
C186 C 0.34669 0.31358 0.39941 0.0
C187 C 0.35229 0.31399 0.44666 0.0
H188 H 0.94956 0.32331 0.5783 0.0
H189 H 0.03439 0.3413 0.54968 0.0
H190 H 0.95835 0.32366 0.6605 0.0
H191 H 0.04289 0.34023 0.63184 0.0
H192 H 0.06061 0.37722 0.77857 0.0
H193 H 0.05161 0.36862 0.69643 0.0
H194 H 0.96591 0.30347 0.72549 0.0
H195 H 0.97468 0.31324 0.80756 0.0
C196 C 0.96986 0.32658 0.58956 0.0
C197 C 0.99133 0.33248 0.55748 0.0
C198 C 0.97494 0.32668 0.63687 0.0
C199 C 1.00151 0.33226 0.65329 0.0
C200 C 0.02242 0.33656 0.62083 0.0
C201 C 0.01747 0.33691 0.57358 0.0
C202 C 0.03998 0.36077 0.76741 0.0
C203 C 0.01831 0.34608 0.79956 0.0
C204 C 0.03478 0.35569 0.72014 0.0
C205 C 0.00787 0.33546 0.70384 0.0
C206 C 0.98668 0.31969 0.7364 0.0
C207 C 0.99177 0.3251 0.7836 0.0
H208 H 0.67628 0.03501 0.89012 0.0
H209 H 0.65511 0.94853 0.90993 0.0
H210 H 0.68497 0.04375 0.97199 0.0
H211 H 0.66532 0.95758 0.99203 0.0
H212 H 0.64495 0.9725 0.13953 0.0
H213 H 0.64486 0.96375 0.05766 0.0
H214 H 0.71157 0.04986 0.03763 0.0
H215 H 0.71046 0.05893 0.11972 0.0
C216 C 0.67416 0.01799 0.91185 0.0
C217 C 0.66477 0.99099 0.89342 0.0
C218 C 0.67936 0.02306 0.95906 0.0
C219 C 0.67571 1.00138 0.98927 0.0
C220 C 0.66775 0.97471 0.9703 0.0
C221 C 0.66214 0.96953 0.92304 0.0
C222 C 0.65989 0.98951 0.1178 0.0
C223 C 0.67757 0.0165 0.13623 0.0
C224 C 0.65998 0.98443 0.07058 0.0
C225 C 0.67807 0.0061 0.04038 0.0
C226 C 0.69684 0.03275 0.05936 0.0
C227 C 0.69643 0.03794 0.10661 0.0
H228 H 0.66962 0.69506 0.21728 0.0
H229 H 0.6882 0.62902 0.24869 0.0
H230 H 0.67021 0.70517 0.29915 0.0
H231 H 0.68746 0.63806 0.33058 0.0
H232 H 0.69714 0.66595 0.47714 0.0
H233 H 0.70728 0.6664 0.39531 0.0
H234 H 0.64156 0.68577 0.36368 0.0
H235 H 0.63252 0.68664 0.44554 0.0
C236 C 0.67406 0.68284 0.24171 0.0
C237 C 0.67878 0.66118 0.22643 0.0
C238 C 0.67413 0.68844 0.28881 0.0
C239 C 0.67849 0.67224 0.32199 0.0
C240 C 0.68438 0.65132 0.3064 0.0
C241 C 0.68471 0.64601 0.25926 0.0
C242 C 0.68524 0.67082 0.45268 0.0
C243 C 0.66396 0.67618 0.46789 0.0
C244 C 0.69085 0.67082 0.4056 0.0
C245 C 0.67504 0.67574 0.37237 0.0
C246 C 0.65452 0.68224 0.38789 0.0
C247 C 0.64921 0.68265 0.43502 0.0
H248 H 0.03809 0.67231 0.81232 0.0
H249 H 0.95106 0.65026 0.79463 0.0
H250 H 0.04598 0.68058 0.73022 0.0
H251 H 0.95923 0.65992 0.71227 0.0
H252 H 0.97326 0.63798 0.56511 0.0
H253 H 0.96523 0.63854 0.64713 0.0
H254 H 0.05086 0.70703 0.6644 0.0
H255 H 0.05923 0.7054 0.58213 0.0
C256 C 0.02075 0.66987 0.79101 0.0
C257 C 0.99386 0.66036 0.81006 0.0
C258 C 0.02534 0.67483 0.74369 0.0
C259 C 1.00323 0.67075 0.71407 0.0
C260 C 0.97666 0.66269 0.73364 0.0
C261 C 0.97199 0.65737 0.781 0.0
C262 C 0.99031 0.65343 0.58625 0.0
C263 C 0.01698 0.67149 0.56704 0.0
C264 C 0.98563 0.6539 0.63352 0.0
C265 C 0.00741 0.6727 0.66293 0.0
C266 C 0.03371 0.6918 0.6432 0.0
C267 C 0.03849 0.69106 0.59589 0.0
H268 H 0.30307 0.94974 0.1208 0.0
H269 H 0.36898 0.03616 0.13907 0.0
H270 H 0.30129 0.95839 0.03872 0.0
H271 H 0.36846 0.04448 0.0572 0.0
H272 H 0.35796 0.05903 0.90961 0.0
H273 H 0.34787 0.05045 0.99179 0.0
H274 H 0.32725 0.9639 0.97273 0.0
H275 H 0.33576 0.97217 0.89079 0.0
C276 C 0.31705 0.97063 0.10734 0.0
C277 C 0.33623 0.9922 0.1365 0.0
C278 C 0.31625 0.97559 0.0601 0.0
C279 C 0.33498 1.0021 0.04069 0.0
C280 C 0.35336 0.0239 0.07047 0.0
C281 C 0.35381 0.01907 0.11768 0.0
C282 C 0.35072 0.03805 0.92297 0.0
C283 C 0.34778 0.01635 0.89362 0.0
C284 C 0.34518 0.03314 0.97026 0.0
C285 C 0.33705 0.00651 0.98954 0.0
C286 C 0.33303 0.98457 0.95958 0.0
C287 C 0.33811 0.98938 0.91232 0.0
H288 H 0.15767 0.45097 0.05728 0.0
H289 H 0.16174 0.41806 0.92394 0.0
H290 H 0.2028 0.4552 0.07818 0.0
H291 H 0.20713 0.42253 0.94495 0.0
H292 H 0.29934 0.45616 0.9858 0.0
H293 H 0.25761 0.45897 0.96502 0.0
H294 H 0.21846 0.41954 0.09391 0.0
H295 H 0.2602 0.4165 0.11474 0.0
C296 C 0.16838 0.44505 0.03209 0.0
C297 C 0.15603 0.43411 0.98889 0.0
C298 C 0.19416 0.4473 0.04429 0.0
C299 C 0.20841 0.43902 1.01339 0.0
C300 C 0.19671 0.42923 0.96943 0.0
C301 C 0.1707 0.42664 0.95739 0.0
C302 C 0.28202 0.44843 1.01008 0.0
C303 C 0.28311 0.43607 0.05198 0.0
C304 C 0.25803 0.44987 0.99794 0.0
C305 C 0.2347 0.43934 0.02766 0.0
C306 C 0.2362 0.42801 0.0704 0.0
C307 C 0.26009 0.42623 0.08232 0.0
H308 H 0.85051 0.26371 0.43961 0.0
H309 H 0.85182 0.30051 0.30733 0.0
H310 H 0.8051 0.22248 0.41996 0.0
H311 H 0.8067 0.25927 0.28773 0.0
H312 H 0.7506 0.16275 0.25186 0.0
H313 H 0.79204 0.20795 0.27166 0.0
H314 H 0.75392 0.20792 0.40187 0.0
H315 H 0.71245 0.163 0.38208 0.0
C316 C 0.84093 0.26323 0.40671 0.0
C317 C 0.85484 0.28541 0.37507 0.0
C318 C 0.81491 0.23963 0.39546 0.0
C319 C 0.80246 0.23757 0.35213 0.0
C320 C 0.81593 0.26014 0.32115 0.0
C321 C 0.8417 0.28386 0.33261 0.0
C322 C 0.75086 0.17261 0.28435 0.0
C323 C 0.72821 0.15924 0.31533 0.0
C324 C 0.77457 0.19852 0.29568 0.0
C325 C 0.77628 0.21138 0.33848 0.0
C326 C 0.75331 0.19839 0.36887 0.0
C327 C 0.72947 0.17273 0.3573 0.0
H328 H 0.59078 0.84433 0.77543 0.0
H329 H 0.55349 0.84575 0.64493 0.0
H330 H 0.58729 0.79944 0.75412 0.0
H331 H 0.55039 0.8012 0.62361 0.0
H332 H 0.59167 0.74592 0.58476 0.0
H333 H 0.58779 0.78714 0.60586 0.0
H334 H 0.55008 0.74813 0.73567 0.0
H335 H 0.55356 0.70685 0.71457 0.0
C336 C 0.58149 0.8349 0.74254 0.0
C337 C 0.5724 0.84864 0.71195 0.0
C338 C 0.57947 0.80919 0.73035 0.0
C339 C 0.56873 0.79692 0.68705 0.0
C340 C 0.55899 0.81028 0.657 0.0
C341 C 0.5606 0.83572 0.66945 0.0
C342 C 0.5821 0.74593 0.61743 0.0
C343 C 0.57292 0.72307 0.64791 0.0
C344 C 0.57986 0.76952 0.6295 0.0
C345 C 0.56881 0.77091 0.67258 0.0
C346 C 0.55893 0.74775 0.70247 0.0
C347 C 0.56075 0.72403 0.69014 0.0
H348 H 0.7089 0.54926 0.98721 0.0
H349 H 0.74773 0.59083 0.11527 0.0
H350 H 0.75051 0.54577 0.96841 0.0
H351 H 0.78931 0.58701 0.09649 0.0
H352 H 0.84946 0.55391 0.0636 0.0
H353 H 0.80437 0.55027 0.083 0.0
H354 H 0.80146 0.58254 0.94871 0.0
H355 H 0.84685 0.58649 0.92925 0.0
C356 C 0.7261 0.55722 1.01178 0.0
C357 C 0.72499 0.57037 0.0528 0.0
C358 C 0.75001 0.55539 1.00076 0.0
C359 C 0.77322 0.56626 0.0308 0.0
C360 C 0.77166 0.5783 0.07276 0.0
C361 C 0.74787 0.58051 0.08352 0.0
C362 C 0.83907 0.55987 0.03787 0.0
C363 C 0.85181 0.57054 0.99482 0.0
C364 C 0.81332 0.55796 0.0492 0.0
C365 C 0.79948 0.56627 0.01753 0.0
C366 C 0.81158 0.57581 0.97374 0.0
C367 C 0.83758 0.57811 0.96261 0.0
H368 H 0.16576 0.74654 0.44134 0.0
H369 H 0.16075 0.71069 0.30665 0.0
H370 H 0.21104 0.7875 0.42036 0.0
H371 H 0.20577 0.75164 0.28576 0.0
H372 H 0.26328 0.84806 0.25161 0.0
H373 H 0.22158 0.80319 0.27177 0.0
H374 H 0.26135 0.80124 0.39908 0.0
H375 H 0.30305 0.84586 0.37897 0.0
C376 C 0.17448 0.74719 0.40756 0.0
C377 C 0.1596 0.72534 0.37572 0.0
C378 C 0.20043 0.77062 0.39556 0.0
C379 C 0.21185 0.77285 0.35127 0.0
C380 C 0.19736 0.75065 0.31994 0.0
C381 C 0.17164 0.72709 0.33211 0.0
C382 C 0.26332 0.83782 0.28351 0.0
C383 C 0.2865 0.85058 0.31364 0.0
C384 C 0.23945 0.81211 0.29505 0.0
C385 C 0.23813 0.79881 0.3372 0.0
C386 C 0.26164 0.81114 0.36663 0.0
C387 C 0.28561 0.83662 0.35485 0.0
H388 H 0.4756 0.17258 0.69015 0.0
H389 H 0.39419 0.14473 0.75251 0.0
H390 H 0.47752 0.21628 0.6657 0.0
H391 H 0.39594 0.1882 0.72723 0.0
H392 H 0.39426 0.24955 0.61882 0.0
H393 H 0.3956 0.20763 0.6442 0.0
H394 H 0.47809 0.26045 0.7032 0.0
H395 H 0.4766 0.30245 0.67866 0.0
C396 C 0.45833 0.17598 0.69923 0.0
C397 C 0.43478 0.15524 0.72339 0.0
C398 C 0.45941 0.20094 0.68513 0.0
C399 C 0.43672 0.20541 0.69405 0.0
C400 C 0.41357 0.1851 0.71941 0.0
C401 C 0.41273 0.16038 0.73433 0.0
C402 C 0.4129 0.25223 0.63648 0.0
C403 C 0.43534 0.27931 0.64668 0.0
C404 C 0.41351 0.22825 0.65145 0.0
C405 C 0.43681 0.23084 0.67613 0.0
C406 C 0.45987 0.25786 0.68431 0.0
C407 C 0.45902 0.28186 0.67016 0.0
H408 H 0.39211 0.32487 0.77744 0.0
H409 H 0.32199 0.32994 0.71952 0.0
H410 H 0.3749 0.32451 0.85428 0.0
H411 H 0.30405 0.32862 0.79723 0.0
H412 H 0.31702 0.37833 0.93431 0.0
H413 H 0.31951 0.36264 0.85746 0.0
H414 H 0.34117 0.30298 0.91439 0.0
H415 H 0.33964 0.31958 0.992 0.0
C416 C 0.37264 0.32535 0.78104 0.0
C417 C 0.35874 0.32802 0.74222 0.0
C418 C 0.36254 0.32478 0.82536 0.0
C419 C 0.33817 0.32676 0.83221 0.0
C420 C 0.32317 0.32753 0.79325 0.0
C421 C 0.33336 0.32816 0.74868 0.0
C422 C 0.32187 0.36151 0.93067 0.0
C423 C 0.32876 0.35065 0.96935 0.0
C424 C 0.323 0.35226 0.88637 0.0
C425 C 0.33094 0.33179 0.87947 0.0
C426 C 0.33554 0.31921 0.91841 0.0
C427 C 0.33447 0.32856 0.96294 0.0
H428 H 0.94204 0.2907 0.27275 0.0
H429 H 0.02846 0.35115 0.30576 0.0
H430 H 0.95578 0.28721 0.19427 0.0
H431 H 0.04215 0.34966 0.22676 0.0
H432 H 0.06527 0.34835 0.08377 0.0
H433 H 0.05061 0.33147 0.16215 0.0
H434 H 0.96611 0.314 0.12951 0.0
H435 H 0.98055 0.32873 0.05061 0.0
C436 C 0.96411 0.30293 0.2632 0.0
C437 C 0.98421 0.3213 0.29505 0.0
C438 C 0.97199 0.30125 0.21804 0.0
C439 C 1.00002 0.31867 0.20326 0.0
C440 C 0.02041 0.33559 0.23638 0.0
C441 C 0.01262 0.33661 0.28191 0.0
C442 C 0.04334 0.33992 0.09323 0.0
C443 C 0.02403 0.33991 0.0614 0.0
C444 C 0.03496 0.3306 0.13835 0.0
C445 C 0.00729 0.32201 0.15309 0.0
C446 C 0.98753 0.32011 0.11993 0.0
C447 C 0.99576 0.32866 0.07444 0.0
H448 H 0.62837 0.93953 0.59302 0.0
H449 H 0.69311 0.01808 0.6512 0.0
H450 H 0.64522 0.95692 0.51634 0.0
H451 H 0.71088 0.0353 0.57367 0.0
H452 H 0.69422 0.06856 0.4363 0.0
H453 H 0.69322 0.05109 0.51312 0.0
H454 H 0.6789 0.97206 0.45622 0.0
H455 H 0.67882 0.98937 0.3786 0.0
C456 C 0.64668 0.96036 0.58954 0.0
C457 C 0.65899 0.97765 0.62834 0.0
C458 C 0.6566 0.97025 0.54529 0.0
C459 C 0.67926 0.99769 0.5385 0.0
C460 C 0.69301 0.01424 0.57755 0.0
C461 C 0.68296 0.00433 0.62204 0.0
C462 C 0.69128 0.04757 0.43993 0.0
C463 C 0.68596 0.03013 0.40122 0.0
C464 C 0.69102 0.03763 0.48424 0.0
C465 C 0.6856 0.00998 0.49119 0.0
C466 C 0.68256 0.99328 0.45223 0.0
C467 C 0.68269 1.00324 0.40767 0.0
H468 H 0.63117 0.69229 0.76774 0.0
H469 H 0.69449 0.67573 0.71103 0.0
H470 H 0.64776 0.69182 0.84476 0.0
H471 H 0.71195 0.67623 0.78883 0.0
H472 H 0.69233 0.62582 0.92652 0.0
H473 H 0.69255 0.6426 0.84941 0.0
H474 H 0.68171 0.7098 0.90509 0.0
H475 H 0.6805 0.6922 0.98298 0.0
C476 C 0.64914 0.68922 0.77163 0.0
C477 C 0.66109 0.68341 0.7332 0.0
C478 C 0.65892 0.68927 0.81602 0.0
C479 C 0.68101 0.68363 0.82328 0.0
C480 C 0.69452 0.68012 0.78455 0.0
C481 C 0.68465 0.68001 0.73991 0.0
C482 C 0.69043 0.64447 0.92256 0.0
C483 C 0.68576 0.65728 0.96096 0.0
C484 C 0.6909 0.65434 0.87811 0.0
C485 C 0.68681 0.6774 0.87076 0.0
C486 C 0.68439 0.69164 0.90943 0.0
C487 C 0.68386 0.68167 0.95412 0.0
H488 H 0.98231 0.65151 0.31706 0.0
H489 H 0.06657 0.71669 0.28196 0.0
H490 H 0.96717 0.65127 0.23834 0.0
H491 H 0.05121 0.7182 0.20375 0.0
H492 H 0.02759 0.67562 0.06058 0.0
H493 H 0.04208 0.69076 0.13944 0.0
H494 H 0.95632 0.66815 0.17406 0.0
H495 H 0.94176 0.65114 0.0957 0.0
C496 C 0.99728 0.66666 0.29285 0.0
C497 C 0.02562 0.68388 0.30532 0.0
C498 C 0.98864 0.66665 0.24749 0.0
C499 C 0.00806 0.68437 0.21388 0.0
C500 C 0.03582 0.70357 0.22797 0.0
C501 C 0.04459 0.70301 0.27297 0.0
C502 C 0.01205 0.67459 0.08485 0.0
C503 C 0.98356 0.66195 0.0723 0.0
C504 C 0.02031 0.68337 0.13029 0.0
C505 C 1.00031 0.68028 0.16391 0.0
C506 C 0.97222 0.67005 0.14983 0.0
C507 C 0.96387 0.66059 0.10474 0.0
H508 H 0.33691 0.02026 0.37876 0.0
H509 H 0.31915 0.94007 0.4353 0.0
H510 H 0.33703 0.03742 0.45662 0.0
H511 H 0.32022 0.95734 0.5124 0.0
H512 H 0.32047 0.99049 0.65069 0.0
H513 H 0.30275 0.97399 0.57283 0.0
H514 H 0.37116 0.05101 0.51672 0.0
H515 H 0.38813 0.06768 0.59375 0.0
C516 C 0.33251 0.00613 0.40762 0.0
C517 C 0.32859 0.97901 0.40085 0.0
C518 C 0.33274 0.016 0.45228 0.0
C519 C 0.32909 0.99893 0.49095 0.0
C520 C 0.32292 0.97107 0.48367 0.0
C521 C 0.32262 0.96124 0.43925 0.0
C522 C 0.33129 0.00411 0.62172 0.0
C523 C 0.35601 0.03015 0.62842 0.0
C524 C 0.32123 0.99463 0.57708 0.0
C525 C 0.33571 0.01101 0.53834 0.0
C526 C 0.35924 0.03787 0.5455 0.0
C527 C 0.36921 0.04732 0.5899 0.0
H528 H 0.42731 0.49319 0.07449 0.0
H529 H 0.44166 0.42954 0.13587 0.0
H530 H 0.47805 0.5262 0.0751 0.0
H531 H 0.49213 0.46262 0.13725 0.0
H532 H 0.58146 0.51728 0.07889 0.0
H533 H 0.5307 0.48497 0.08295 0.0
H534 H 0.51812 0.55351 0.12538 0.0
H535 H 0.56874 0.58591 0.12047 0.0
C536 C 0.4412 0.48633 0.08863 0.0
C537 C 0.43035 0.45864 0.10489 0.0
C538 C 0.47032 0.50529 0.08912 0.0
C539 C 0.48923 0.497 0.10592 0.0
C540 C 0.47826 0.46955 0.12328 0.0
C541 C 0.44923 0.45063 0.12276 0.0
C542 C 0.5679 0.52545 0.08929 0.0
C543 C 0.57924 0.55423 0.09923 0.0
C544 C 0.53878 0.50689 0.09184 0.0
C545 C 0.52029 0.51665 0.10443 0.0
C546 C 0.53168 0.54535 0.11493 0.0
C547 C 0.56077 0.5639 0.11238 0.0
H548 H 0.07262 0.58293 0.39523 0.0
H549 H 0.99487 0.5669 0.46026 0.0
H550 H 0.05557 0.53231 0.39413 0.0
H551 H 0.97815 0.51661 0.45959 0.0
H552 H 0.94456 0.42763 0.40038 0.0
H553 H 0.96224 0.47831 0.4033 0.0
H554 H 0.04399 0.49254 0.44596 0.0
H555 H 0.02655 0.44209 0.44256 0.0
C556 C 0.05204 0.5687 0.40964 0.0
C557 C 0.03513 0.57906 0.42767 0.0
C558 C 0.04229 0.53968 0.40913 0.0
C559 C 0.01539 0.52039 0.42649 0.0
C560 C 0.99874 0.53083 0.44522 0.0
C561 C 0.00848 0.55975 0.44588 0.0
C562 C 0.96628 0.44155 0.41048 0.0
C563 C 0.98408 0.43071 0.4212 0.0
C564 C 0.97639 0.4706 0.41235 0.0
C565 C 1.00457 0.48949 0.4248 0.0
C566 C 0.02231 0.47863 0.43567 0.0
C567 C 0.01219 0.44963 0.434 0.0
H568 H 0.58391 0.01597 0.79596 0.0
H569 H 0.51737 0.93767 0.73993 0.0
H570 H 0.55151 0.03414 0.80059 0.0
H571 H 0.48503 0.95616 0.74373 0.0
H572 H 0.49528 0.06879 0.74778 0.0
H573 H 0.52755 0.0502 0.74949 0.0
H574 H 0.4599 0.9699 0.79673 0.0
H575 H 0.42755 0.98822 0.79416 0.0
C576 C 0.56234 1.00257 0.78467 0.0
C577 C 0.5533 0.97533 0.76742 0.0
C578 C 0.5438 0.01311 0.78706 0.0
C579 C 0.5157 0.99673 0.77226 0.0
C580 C 0.50646 0.96927 0.75589 0.0
C581 C 0.52504 0.95868 0.75353 0.0
C582 C 0.48734 0.04725 0.75889 0.0
C583 C 0.45877 0.03001 0.77062 0.0
C584 C 0.50587 0.03659 0.76002 0.0
C585 C 0.49629 0.00846 0.773 0.0
C586 C 0.46789 0.99148 0.78579 0.0
C587 C 0.44938 1.0021 0.78461 0.0
H588 H 0.58697 0.56735 0.57017 0.0
H589 H 0.51999 0.57985 0.62222 0.0
H590 H 0.55454 0.51678 0.56655 0.0
H591 H 0.48768 0.52911 0.61955 0.0
H592 H 0.43021 0.43947 0.57158 0.0
H593 H 0.46286 0.48995 0.56758 0.0
H594 H 0.52995 0.47715 0.61789 0.0
H595 H 0.49737 0.42644 0.62093 0.0
C596 C 0.56531 0.55935 0.58082 0.0
C597 C 0.55614 0.57774 0.59659 0.0
C598 C 0.54675 0.53027 0.57901 0.0
C599 C 0.51851 0.51879 0.59296 0.0
C600 C 0.5092 0.53723 0.608 0.0
C601 C 0.52777 0.56635 0.60973 0.0
C602 C 0.45198 0.44734 0.58149 0.0
C603 C 0.46112 0.42884 0.59676 0.0
C604 C 0.47067 0.47637 0.57948 0.0
C605 C 0.499 0.48771 0.59278 0.0
C606 C 0.50834 0.46915 0.60695 0.0
C607 C 0.48963 0.44004 0.60886 0.0
H608 H 0.93925 0.51503 0.97128 0.0
H609 H 0.01948 0.58 0.91828 0.0
H610 H 0.95639 0.48151 0.96892 0.0
H611 H 0.03631 0.54652 0.91547 0.0
H612 H 0.06722 0.48728 0.96788 0.0
H613 H 0.04991 0.52063 0.96861 0.0
H614 H 0.96999 0.45646 0.91365 0.0
H615 H 0.98703 0.42307 0.9134 0.0
C616 C 0.96043 0.52214 0.95886 0.0
C617 C 0.97795 0.55025 0.94508 0.0
C618 C 0.97023 0.5029 0.95735 0.0
C619 C 0.99779 0.51138 0.9422 0.0
C620 C 0.01515 0.5394 0.92798 0.0
C621 C 1.00536 0.55855 0.92932 0.0
C622 C 0.04601 0.48031 0.95577 0.0
C623 C 0.02856 0.45245 0.94065 0.0
C624 C 0.0361 0.49946 0.95604 0.0
C625 C 0.0085 0.49117 0.94135 0.0
C626 C 0.99119 0.46341 0.92584 0.0
C627 C 1.00109 0.44433 0.92541 0.0
H628 H 0.58428 0.07026 0.29073 0.0
H629 H 0.5716 0.99116 0.23693 0.0
H630 H 0.53342 0.05185 0.28837 0.0
H631 H 0.52099 0.97305 0.23383 0.0
H632 H 0.4307 0.93943 0.2887 0.0
H633 H 0.48157 0.95793 0.28652 0.0
H634 H 0.49408 0.03748 0.23565 0.0
H635 H 0.44344 0.01926 0.23857 0.0
C636 C 0.57072 0.04908 0.27795 0.0
C637 C 0.58209 0.0322 0.26421 0.0
C638 C 0.54155 0.03854 0.27643 0.0
C639 C 0.52307 0.01088 0.26113 0.0
C640 C 0.53453 0.99425 0.24654 0.0
C641 C 0.56363 0.00475 0.24804 0.0
C642 C 0.44427 0.96079 0.27677 0.0
C643 C 0.43291 0.97784 0.26398 0.0
C644 C 0.47346 0.97139 0.27535 0.0
C645 C 0.49196 0.99927 0.26111 0.0
C646 C 0.48052 0.01609 0.24751 0.0
C647 C 0.4514 0.00553 0.24891 0.0
loop_
_geom_bond_atom_site_label_1
_geom_bond_atom_site_label_2
_geom_bond_distance
_geom_bond_site_symmetry_2
_ccdc_geom_bond_type
O0 Cd1 2.223 1_556 S
O0 C8 1.315 . S
Cd1 O0 2.223 1_554 S
Cd1 O4 2.297 . S
Cd1 O5 2.439 . S
Cd1 O11 2.240 . S
Cd2 O3 2.240 . S
Cd2 O10 2.223 . S
Cd2 O12 2.297 . S
Cd2 O13 2.439 . S
O3 Cd2 2.240 . S
O3 C8 1.279 1_554 S
O4 Cd1 2.297 . S
O4 C6 1.246 . S
O5 Cd1 2.439 . S
O5 C6 1.208 . S
C6 O4 1.246 . S
C6 O5 1.208 . S
C7 O12 1.247 . S
C7 O13 1.208 . S
C8 O0 1.315 . S
C8 O3 1.279 1_556 S
C9 O10 1.315 . S
C9 O11 1.279 . S
O10 Cd2 2.223 . S
O10 C9 1.315 . S
O11 Cd1 2.240 . S
O11 C9 1.279 . S
O12 Cd2 2.297 . S
O12 C7 1.247 . S
O13 Cd2 2.439 . S
O13 C7 1.208 . S
O14 Cd15 2.223 . S
O14 C22 1.315 . S
Cd15 O14 2.223 . S
Cd15 O18 2.297 . S
Cd15 O19 2.439 . S
Cd15 O25 2.240 . S
Cd16 O17 2.240 . S
Cd16 O24 2.223 1_655 S
Cd16 O26 2.297 1_655 S
Cd16 O27 2.439 . S
O17 Cd16 2.240 . S
O17 C22 1.279 . S
O18 Cd15 2.297 . S
O18 C20 1.247 . S
O19 Cd15 2.439 . S
O19 C20 1.208 . S
C20 O18 1.247 . S
C20 O19 1.208 . S
C21 O26 1.247 1_655 S
C21 O27 1.208 . S
C22 O14 1.315 . S
C22 O17 1.279 . S
C23 O24 1.316 1_655 S
C23 O25 1.279 . S
O24 Cd16 2.223 1_455 S
O24 C23 1.316 1_455 S
O25 Cd15 2.240 . S
O25 C23 1.279 . S
O26 Cd16 2.297 1_455 S
O26 C21 1.247 1_455 S
O27 Cd16 2.439 . S
O27 C21 1.208 . S
O28 Cd29 2.223 . S
O28 C36 1.315 . S
Cd29 O28 2.223 . S
Cd29 O32 2.297 . S
Cd29 O33 2.439 . S
Cd29 O39 2.240 . S
Cd30 O31 2.240 . S
Cd30 O38 2.224 1_565 S
Cd30 O40 2.297 1_565 S
Cd30 O41 2.439 . S
O31 Cd30 2.240 . S
O31 C36 1.279 . S
O32 Cd29 2.297 . S
O32 C34 1.247 . S
O33 Cd29 2.439 . S
O33 C34 1.208 . S
C34 O32 1.247 . S
C34 O33 1.208 . S
C35 O40 1.247 1_565 S
C35 O41 1.208 . S
C36 O28 1.315 . S
C36 O31 1.279 . S
C37 O38 1.316 1_565 S
C37 O39 1.279 . S
O38 Cd30 2.224 1_545 S
O38 C37 1.316 1_545 S
O39 Cd29 2.240 . S
O39 C37 1.279 . S
O40 Cd30 2.297 1_545 S
O40 C35 1.247 1_545 S
O41 Cd30 2.439 . S
O41 C35 1.208 . S
O42 Cd43 2.223 1_556 S
O42 C50 1.315 . S
Cd43 O42 2.223 1_554 S
Cd43 O46 2.297 . S
Cd43 O47 2.439 . S
Cd43 O53 2.240 . S
Cd44 O45 2.240 . S
Cd44 O52 2.223 . S
Cd44 O54 2.297 . S
Cd44 O55 2.439 . S
O45 Cd44 2.240 . S
O45 C50 1.279 1_554 S
O46 Cd43 2.297 . S
O46 C48 1.246 . S
O47 Cd43 2.439 . S
O47 C48 1.208 . S
C48 O46 1.246 . S
C48 O47 1.208 . S
C49 O54 1.247 . S
C49 O55 1.208 . S
C50 O42 1.315 . S
C50 O45 1.279 1_556 S
C51 O52 1.315 . S
C51 O53 1.279 . S
O52 Cd44 2.223 . S
O52 C51 1.315 . S
O53 Cd43 2.240 . S
O53 C51 1.279 . S
O54 Cd44 2.297 . S
O54 C49 1.247 . S
O55 Cd44 2.439 . S
O55 C49 1.208 . S
O56 Cd57 2.223 . S
O56 C64 1.315 . S
Cd57 O56 2.223 . S
Cd57 O60 2.297 . S
Cd57 O61 2.439 . S
Cd57 O67 2.240 . S
Cd58 O59 2.240 . S
Cd58 O66 2.223 1_455 S
Cd58 O68 2.297 1_455 S
Cd58 O69 2.439 . S
O59 Cd58 2.240 . S
O59 C64 1.279 . S
O60 Cd57 2.297 . S
O60 C62 1.247 . S
O61 Cd57 2.439 . S
O61 C62 1.208 . S
C62 O60 1.247 . S
C62 O61 1.208 . S
C63 O68 1.247 1_455 S
C63 O69 1.208 . S
C64 O56 1.315 . S
C64 O59 1.279 . S
C65 O66 1.316 1_455 S
C65 O67 1.279 . S
O66 Cd58 2.223 1_655 S
O66 C65 1.316 1_655 S
O67 Cd57 2.240 . S
O67 C65 1.279 . S
O68 Cd58 2.297 1_655 S
O68 C63 1.247 1_655 S
O69 Cd58 2.439 . S
O69 C63 1.208 . S
O70 Cd71 2.223 . S
O70 C78 1.315 . S
Cd71 O70 2.223 . S
Cd71 O74 2.297 . S
Cd71 O75 2.439 . S
Cd71 O81 2.240 . S
Cd72 O73 2.240 . S
Cd72 O80 2.224 1_545 S
Cd72 O82 2.297 1_545 S
Cd72 O83 2.439 . S
O73 Cd72 2.240 . S
O73 C78 1.279 . S
O74 Cd71 2.297 . S
O74 C76 1.247 . S
O75 Cd71 2.439 . S
O75 C76 1.208 . S
C76 O74 1.247 . S
C76 O75 1.208 . S
C77 O82 1.247 1_545 S
C77 O83 1.208 . S
C78 O70 1.315 . S
C78 O73 1.279 . S
C79 O80 1.316 1_545 S
C79 O81 1.279 . S
O80 Cd72 2.224 1_565 S
O80 C79 1.316 1_565 S
O81 Cd71 2.240 . S
O81 C79 1.279 . S
O82 Cd72 2.297 1_565 S
O82 C77 1.247 1_565 S
O83 Cd72 2.439 . S
O83 C77 1.208 . S
O84 Cd85 2.223 . S
O84 C92 1.315 . S
Cd85 O84 2.223 . S
Cd85 O88 2.297 . S
Cd85 O89 2.439 . S
Cd85 O95 2.240 . S
Cd86 O87 2.240 . S
Cd86 O94 2.223 . S
Cd86 O96 2.297 . S
Cd86 O97 2.439 . S
O87 Cd86 2.240 . S
O87 C92 1.279 . S
O88 Cd85 2.297 . S
O88 C90 1.247 . S
O89 Cd85 2.439 . S
O89 C90 1.208 . S
C90 O88 1.247 . S
C90 O89 1.208 . S
C91 O96 1.247 . S
C91 O97 1.208 . S
C92 O84 1.315 . S
C92 O87 1.279 . S
C93 O94 1.315 . S
C93 O95 1.279 . S
O94 Cd86 2.223 . S
O94 C93 1.315 . S
O95 Cd85 2.240 . S
O95 C93 1.279 . S
O96 Cd86 2.297 . S
O96 C91 1.247 . S
O97 Cd86 2.439 . S
O97 C91 1.208 . S
O98 Cd99 2.223 1_554 S
O98 C106 1.315 . S
Cd99 O98 2.223 1_556 S
Cd99 O102 2.297 . S
Cd99 O103 2.439 . S
Cd99 O109 2.240 . S
Cd100 O101 2.240 . S
Cd100 O108 2.224 1_655 S
Cd100 O110 2.297 1_655 S
Cd100 O111 2.439 . S
O101 Cd100 2.240 . S
O101 C106 1.279 1_556 S
O102 Cd99 2.297 . S
O102 C104 1.246 . S
O103 Cd99 2.439 . S
O103 C104 1.208 . S
C104 O102 1.246 . S
C104 O103 1.208 . S
C105 O110 1.247 1_655 S
C105 O111 1.208 . S
C106 O98 1.315 . S
C106 O101 1.279 1_554 S
C107 O108 1.316 1_655 S
C107 O109 1.279 . S
O108 Cd100 2.224 1_455 S
O108 C107 1.316 1_455 S
O109 Cd99 2.240 . S
O109 C107 1.279 . S
O110 Cd100 2.297 1_455 S
O110 C105 1.247 1_455 S
O111 Cd100 2.439 . S
O111 C105 1.208 . S
O112 Cd113 2.223 . S
O112 C120 1.315 . S
Cd113 O112 2.223 . S
Cd113 O116 2.297 . S
Cd113 O117 2.439 . S
Cd113 O123 2.240 . S
Cd114 O115 2.240 . S
Cd114 O122 2.223 1_565 S
Cd114 O124 2.297 1_565 S
Cd114 O125 2.439 . S
O115 Cd114 2.240 . S
O115 C120 1.279 . S
O116 Cd113 2.297 . S
O116 C118 1.247 . S
O117 Cd113 2.439 . S
O117 C118 1.208 . S
C118 O116 1.247 . S
C118 O117 1.208 . S
C119 O124 1.247 1_565 S
C119 O125 1.208 . S
C120 O112 1.315 . S
C120 O115 1.279 . S
C121 O122 1.316 1_565 S
C121 O123 1.279 . S
O122 Cd114 2.223 1_545 S
O122 C121 1.316 1_545 S
O123 Cd113 2.240 . S
O123 C121 1.279 . S
O124 Cd114 2.297 1_545 S
O124 C119 1.247 1_545 S
O125 Cd114 2.439 . S
O125 C119 1.208 . S
O126 Cd127 2.223 . S
O126 C134 1.315 . S
Cd127 O126 2.223 . S
Cd127 O130 2.297 . S
Cd127 O131 2.439 . S
Cd127 O137 2.240 . S
Cd128 O129 2.240 . S
Cd128 O136 2.223 . S
Cd128 O138 2.297 . S
Cd128 O139 2.439 . S
O129 Cd128 2.240 . S
O129 C134 1.279 . S
O130 Cd127 2.297 . S
O130 C132 1.247 . S
O131 Cd127 2.439 . S
O131 C132 1.208 . S
C132 O130 1.247 . S
C132 O131 1.208 . S
C133 O138 1.247 . S
C133 O139 1.208 . S
C134 O126 1.315 . S
C134 O129 1.279 . S
C135 O136 1.315 . S
C135 O137 1.279 . S
O136 Cd128 2.223 . S
O136 C135 1.315 . S
O137 Cd127 2.240 . S
O137 C135 1.279 . S
O138 Cd128 2.297 . S
O138 C133 1.247 . S
O139 Cd128 2.439 . S
O139 C133 1.208 . S
O140 Cd141 2.223 1_554 S
O140 C148 1.315 . S
Cd141 O140 2.223 1_556 S
Cd141 O144 2.297 . S
Cd141 O145 2.439 . S
Cd141 O151 2.240 . S
Cd142 O143 2.240 . S
Cd142 O150 2.224 1_455 S
Cd142 O152 2.297 1_455 S
Cd142 O153 2.439 . S
O143 Cd142 2.240 . S
O143 C148 1.279 1_556 S
O144 Cd141 2.297 . S
O144 C146 1.246 . S
O145 Cd141 2.439 . S
O145 C146 1.208 . S
C146 O144 1.246 . S
C146 O145 1.208 . S
C147 O152 1.247 1_455 S
C147 O153 1.208 . S
C148 O140 1.315 . S
C148 O143 1.279 1_554 S
C149 O150 1.316 1_455 S
C149 O151 1.279 . S
O150 Cd142 2.224 1_655 S
O150 C149 1.316 1_655 S
O151 Cd141 2.240 . S
O151 C149 1.279 . S
O152 Cd142 2.297 1_655 S
O152 C147 1.247 1_655 S
O153 Cd142 2.439 . S
O153 C147 1.208 . S
O154 Cd155 2.223 . S
O154 C162 1.315 . S
Cd155 O154 2.223 . S
Cd155 O158 2.297 . S
Cd155 O159 2.439 . S
Cd155 O165 2.240 . S
Cd156 O157 2.240 . S
Cd156 O164 2.223 1_545 S
Cd156 O166 2.297 1_545 S
Cd156 O167 2.439 . S
O157 Cd156 2.240 . S
O157 C162 1.279 . S
O158 Cd155 2.297 . S
O158 C160 1.247 . S
O159 Cd155 2.439 . S
O159 C160 1.208 . S
C160 O158 1.247 . S
C160 O159 1.208 . S
C161 O166 1.247 1_545 S
C161 O167 1.208 . S
C162 O154 1.315 . S
C162 O157 1.279 . S
C163 O164 1.316 1_545 S
C163 O165 1.279 . S
O164 Cd156 2.223 1_565 S
O164 C163 1.316 1_565 S
O165 Cd155 2.240 . S
O165 C163 1.279 . S
O166 Cd156 2.297 1_565 S
O166 C161 1.247 1_565 S
O167 Cd156 2.439 . S
O167 C161 1.208 . S
H168 C176 0.950 . S
H169 C181 0.950 . S
H170 C178 0.950 . S
H171 C180 0.950 . S
H172 C182 0.950 . S
H173 C184 0.950 . S
H174 C186 0.950 . S
H175 C187 0.950 . S
C176 H168 0.950 . S
C176 C177 1.386 . S
C176 C178 1.391 . S
C177 C176 1.386 . S
C177 C181 1.393 . S
C178 H170 0.950 . S
C178 C176 1.391 . S
C178 C179 1.400 . S
C179 C178 1.400 . S
C179 C180 1.398 . S
C179 C185 1.491 . S
C180 H171 0.950 . S
C180 C179 1.398 . S
C180 C181 1.391 . S
C181 H169 0.950 . S
C181 C177 1.393 . S
C181 C180 1.391 . S
C182 H172 0.950 . S
C182 C183 1.386 . S
C182 C184 1.391 . S
C183 C182 1.386 . S
C183 C187 1.393 . S
C184 H173 0.950 . S
C184 C182 1.391 . S
C184 C185 1.400 . S
C185 C179 1.491 . S
C185 C184 1.400 . S
C185 C186 1.398 . S
C186 H174 0.950 . S
C186 C185 1.398 . S
C186 C187 1.391 . S
C187 H175 0.950 . S
C187 C183 1.393 . S
C187 C186 1.391 . S
H188 C196 0.950 . S
H189 C201 0.952 . S
H190 C198 0.950 . S
H191 C200 0.950 . S
H192 C202 0.950 . S
H193 C204 0.950 . S
H194 C206 0.950 . S
H195 C207 0.952 . S
C196 H188 0.950 . S
C196 C197 1.386 . S
C196 C198 1.391 . S
C197 C196 1.386 . S
C197 C201 1.393 . S
C198 H190 0.950 . S
C198 C196 1.391 . S
C198 C199 1.400 . S
C199 C198 1.400 . S
C199 C200 1.398 1_655 S
C199 C205 1.491 1_655 S
C200 H191 0.950 . S
C200 C199 1.398 1_455 S
C200 C201 1.391 1_455 S
C201 H189 0.952 . S
C201 C197 1.393 . S
C201 C200 1.391 1_655 S
C202 H192 0.950 . S
C202 C203 1.386 . S
C202 C204 1.391 . S
C203 C202 1.386 . S
C203 C207 1.393 . S
C204 H193 0.950 . S
C204 C202 1.391 . S
C204 C205 1.400 . S
C205 C199 1.491 1_455 S
C205 C204 1.400 . S
C205 C206 1.398 1_455 S
C206 H194 0.950 . S
C206 C205 1.398 1_655 S
C206 C207 1.391 1_655 S
C207 H195 0.952 . S
C207 C203 1.393 . S
C207 C206 1.391 1_455 S
H208 C216 0.950 . S
H209 C221 0.950 . S
H210 C218 0.950 . S
H211 C220 0.950 . S
H212 C222 0.950 . S
H213 C224 0.950 . S
H214 C226 0.950 . S
H215 C227 0.950 . S
C216 H208 0.950 . S
C216 C217 1.386 1_545 S
C216 C218 1.391 . S
C217 C216 1.386 1_565 S
C217 C221 1.393 . S
C218 H210 0.950 . S
C218 C216 1.391 . S
C218 C219 1.400 1_545 S
C219 C218 1.400 1_565 S
C219 C220 1.398 . S
C219 C225 1.491 1_566 S
C220 H211 0.950 . S
C220 C219 1.398 . S
C220 C221 1.391 . S
C221 H209 0.950 . S
C221 C217 1.393 . S
C221 C220 1.391 . S
C222 H212 0.950 . S
C222 C223 1.386 1_565 S
C222 C224 1.391 . S
C223 C222 1.386 1_545 S
C223 C227 1.393 . S
C224 H213 0.950 . S
C224 C222 1.391 . S
C224 C225 1.400 1_565 S
C225 C219 1.491 1_544 S
C225 C224 1.400 1_545 S
C225 C226 1.398 . S
C226 H214 0.950 . S
C226 C225 1.398 . S
C226 C227 1.391 . S
C227 H215 0.950 . S
C227 C223 1.393 . S
C227 C226 1.391 . S
H228 C236 0.950 . S
H229 C241 0.950 . S
H230 C238 0.950 . S
H231 C240 0.950 . S
H232 C242 0.950 . S
H233 C244 0.950 . S
H234 C246 0.950 . S
H235 C247 0.950 . S
C236 H228 0.950 . S
C236 C237 1.386 . S
C236 C238 1.391 . S
C237 C236 1.386 . S
C237 C241 1.393 . S
C238 H230 0.950 . S
C238 C236 1.391 . S
C238 C239 1.400 . S
C239 C238 1.400 . S
C239 C240 1.398 . S
C239 C245 1.491 . S
C240 H231 0.950 . S
C240 C239 1.398 . S
C240 C241 1.391 . S
C241 H229 0.950 . S
C241 C237 1.393 . S
C241 C240 1.391 . S
C242 H232 0.950 . S
C242 C243 1.386 . S
C242 C244 1.391 . S
C243 C242 1.386 . S
C243 C247 1.393 . S
C244 H233 0.950 . S
C244 C242 1.391 . S
C244 C245 1.400 . S
C245 C239 1.491 . S
C245 C244 1.400 . S
C245 C246 1.398 . S
C246 H234 0.950 . S
C246 C245 1.398 . S
C246 C247 1.391 . S
C247 H235 0.950 . S
C247 C243 1.393 . S
C247 C246 1.391 . S
H248 C256 0.950 . S
H249 C261 0.950 . S
H250 C258 0.950 . S
H251 C260 0.950 . S
H252 C262 0.950 . S
H253 C264 0.950 . S
H254 C266 0.950 . S
H255 C267 0.950 . S
C256 H248 0.950 . S
C256 C257 1.386 1_455 S
C256 C258 1.391 . S
C257 C256 1.386 1_655 S
C257 C261 1.393 . S
C258 H250 0.950 . S
C258 C256 1.391 . S
C258 C259 1.400 1_455 S
C259 C258 1.400 1_655 S
C259 C260 1.398 . S
C259 C265 1.491 1_655 S
C260 H251 0.950 . S
C260 C259 1.398 . S
C260 C261 1.391 . S
C261 H249 0.950 . S
C261 C257 1.393 . S
C261 C260 1.391 . S
C262 H252 0.950 . S
C262 C263 1.386 1_655 S
C262 C264 1.391 . S
C263 C262 1.386 1_455 S
C263 C267 1.393 . S
C264 H253 0.950 . S
C264 C262 1.391 . S
C264 C265 1.400 1_655 S
C265 C259 1.491 1_455 S
C265 C264 1.400 1_455 S
C265 C266 1.398 . S
C266 H254 0.950 . S
C266 C265 1.398 . S
C266 C267 1.391 . S
C267 H255 0.950 . S
C267 C263 1.393 . S
C267 C266 1.391 . S
H268 C276 0.950 . S
H269 C281 0.950 . S
H270 C278 0.950 . S
H271 C280 0.950 . S
H272 C282 0.950 . S
H273 C284 0.950 . S
H274 C286 0.950 . S
H275 C287 0.950 . S
C276 H268 0.950 . S
C276 C277 1.386 . S
C276 C278 1.391 . S
C277 C276 1.386 . S
C277 C281 1.393 1_565 S
C278 H270 0.950 . S
C278 C276 1.391 . S
C278 C279 1.400 . S
C279 C278 1.400 . S
C279 C280 1.398 1_565 S
C279 C285 1.491 1_564 S
C280 H271 0.950 . S
C280 C279 1.398 1_545 S
C280 C281 1.391 . S
C281 H269 0.950 . S
C281 C277 1.393 1_545 S
C281 C280 1.391 . S
C282 H272 0.950 . S
C282 C283 1.386 . S
C282 C284 1.391 . S
C283 C282 1.386 . S
C283 C287 1.393 1_545 S
C284 H273 0.950 . S
C284 C282 1.391 . S
C284 C285 1.400 . S
C285 C279 1.491 1_546 S
C285 C284 1.400 . S
C285 C286 1.398 1_545 S
C286 H274 0.950 . S
C286 C285 1.398 1_565 S
C286 C287 1.391 . S
C287 H275 0.950 . S
C287 C283 1.393 1_565 S
C287 C286 1.391 . S
H288 C296 0.950 . S
H289 C301 0.950 . S
H290 C298 0.950 . S
H291 C300 0.950 . S
H292 C302 0.950 . S
H293 C304 0.950 . S
H294 C306 0.950 . S
H295 C307 0.950 . S
C296 H288 0.950 . S
C296 C297 1.386 . S
C296 C298 1.391 1_556 S
C297 C296 1.386 . S
C297 C301 1.393 . S
C298 H290 0.950 . S
C298 C296 1.391 1_554 S
C298 C299 1.400 1_554 S
C299 C298 1.400 1_556 S
C299 C300 1.398 . S
C299 C305 1.491 1_556 S
C300 H291 0.950 . S
C300 C299 1.398 . S
C300 C301 1.391 . S
C301 H289 0.950 . S
C301 C297 1.393 . S
C301 C300 1.391 . S
C302 H292 0.950 . S
C302 C303 1.386 . S
C302 C304 1.391 1_554 S
C303 C302 1.386 . S
C303 C307 1.393 . S
C304 H293 0.950 . S
C304 C302 1.391 1_556 S
C304 C305 1.400 1_556 S
C305 C299 1.491 1_554 S
C305 C304 1.400 1_554 S
C305 C306 1.398 . S
C306 H294 0.950 . S
C306 C305 1.398 . S
C306 C307 1.391 . S
C307 H295 0.950 . S
C307 C303 1.393 . S
C307 C306 1.391 . S
H308 C316 0.950 . S
H309 C321 0.950 . S
H310 C318 0.950 . S
H311 C320 0.950 . S
H312 C322 0.950 . S
H313 C324 0.950 . S
H314 C326 0.950 . S
H315 C327 0.950 . S
C316 H308 0.950 . S
C316 C317 1.386 . S
C316 C318 1.391 . S
C317 C316 1.386 . S
C317 C321 1.393 . S
C318 H310 0.950 . S
C318 C316 1.391 . S
C318 C319 1.400 . S
C319 C318 1.400 . S
C319 C320 1.398 . S
C319 C325 1.491 . S
C320 H311 0.950 . S
C320 C319 1.398 . S
C320 C321 1.391 . S
C321 H309 0.950 . S
C321 C317 1.393 . S
C321 C320 1.391 . S
C322 H312 0.950 . S
C322 C323 1.386 . S
C322 C324 1.391 . S
C323 C322 1.386 . S
C323 C327 1.393 . S
C324 H313 0.950 . S
C324 C322 1.391 . S
C324 C325 1.400 . S
C325 C319 1.491 . S
C325 C324 1.400 . S
C325 C326 1.398 . S
C326 H314 0.950 . S
C326 C325 1.398 . S
C326 C327 1.391 . S
C327 H315 0.950 . S
C327 C323 1.393 . S
C327 C326 1.391 . S
H328 C336 0.950 . S
H329 C341 0.950 . S
H330 C338 0.950 . S
H331 C340 0.950 . S
H332 C342 0.950 . S
H333 C344 0.950 . S
H334 C346 0.950 . S
H335 C347 0.950 . S
C336 H328 0.950 . S
C336 C337 1.386 . S
C336 C338 1.391 . S
C337 C336 1.386 . S
C337 C341 1.393 . S
C338 H330 0.950 . S
C338 C336 1.391 . S
C338 C339 1.400 . S
C339 C338 1.400 . S
C339 C340 1.398 . S
C339 C345 1.491 . S
C340 H331 0.950 . S
C340 C339 1.398 . S
C340 C341 1.391 . S
C341 H329 0.950 . S
C341 C337 1.393 . S
C341 C340 1.391 . S
C342 H332 0.950 . S
C342 C343 1.386 . S
C342 C344 1.391 . S
C343 C342 1.386 . S
C343 C347 1.393 . S
C344 H333 0.950 . S
C344 C342 1.391 . S
C344 C345 1.400 . S
C345 C339 1.491 . S
C345 C344 1.400 . S
C345 C346 1.398 . S
C346 H334 0.950 . S
C346 C345 1.398 . S
C346 C347 1.391 . S
C347 H335 0.950 . S
C347 C343 1.393 . S
C347 C346 1.391 . S
H348 C356 0.960 . S
H349 C361 0.950 . S
H350 C358 0.950 . S
H351 C360 0.950 . S
H352 C362 0.960 . S
H353 C364 0.950 . S
H354 C366 0.950 . S
H355 C367 0.950 . S
C356 H348 0.960 . S
C356 C357 1.370 1_556 S
C356 C358 1.398 . S
C357 C356 1.370 1_554 S
C357 C361 1.393 . S
C358 H350 0.950 . S
C358 C356 1.398 . S
C358 C359 1.400 1_556 S
C359 C358 1.400 1_554 S
C359 C360 1.398 . S
C359 C365 1.491 1_554 S
C360 H351 0.950 . S
C360 C359 1.398 . S
C360 C361 1.391 . S
C361 H349 0.950 . S
C361 C357 1.393 . S
C361 C360 1.391 . S
C362 H352 0.960 . S
C362 C363 1.369 1_554 S
C362 C364 1.398 . S
C363 C362 1.369 1_556 S
C363 C367 1.393 . S
C364 H353 0.950 . S
C364 C362 1.398 . S
C364 C365 1.400 1_554 S
C365 C359 1.491 1_556 S
C365 C364 1.400 1_556 S
C365 C366 1.398 . S
C366 H354 0.950 . S
C366 C365 1.398 . S
C366 C367 1.391 . S
C367 H355 0.950 . S
C367 C363 1.393 . S
C367 C366 1.391 . S
H368 C376 0.950 . S
H369 C381 0.950 . S
H370 C378 0.950 . S
H371 C380 0.950 . S
H372 C382 0.950 . S
H373 C384 0.950 . S
H374 C386 0.950 . S
H375 C387 0.950 . S
C376 H368 0.950 . S
C376 C377 1.386 . S
C376 C378 1.391 . S
C377 C376 1.386 . S
C377 C381 1.393 . S
C378 H370 0.950 . S
C378 C376 1.391 . S
C378 C379 1.400 . S
C379 C378 1.400 . S
C379 C380 1.398 . S
C379 C385 1.491 . S
C380 H371 0.950 . S
C380 C379 1.398 . S
C380 C381 1.391 . S
C381 H369 0.950 . S
C381 C377 1.393 . S
C381 C380 1.391 . S
C382 H372 0.950 . S
C382 C383 1.386 . S
C382 C384 1.391 . S
C383 C382 1.386 . S
C383 C387 1.393 . S
C384 H373 0.950 . S
C384 C382 1.391 . S
C384 C385 1.400 . S
C385 C379 1.491 . S
C385 C384 1.400 . S
C385 C386 1.398 . S
C386 H374 0.950 . S
C386 C385 1.398 . S
C386 C387 1.391 . S
C387 H375 0.950 . S
C387 C383 1.393 . S
C387 C386 1.391 . S
H388 C396 0.950 . S
H389 C401 0.950 . S
H390 C398 0.950 . S
H391 C400 0.950 . S
H392 C402 0.950 . S
H393 C404 0.950 . S
H394 C406 0.950 . S
H395 C407 0.950 . S
C396 H388 0.950 . S
C396 C397 1.386 . S
C396 C398 1.391 . S
C397 C396 1.386 . S
C397 C401 1.393 . S
C398 H390 0.950 . S
C398 C396 1.391 . S
C398 C399 1.400 . S
C399 C398 1.400 . S
C399 C400 1.398 . S
C399 C405 1.491 . S
C400 H391 0.950 . S
C400 C399 1.398 . S
C400 C401 1.391 . S
C401 H389 0.950 . S
C401 C397 1.393 . S
C401 C400 1.391 . S
C402 H392 0.950 . S
C402 C403 1.386 . S
C402 C404 1.391 . S
C403 C402 1.386 . S
C403 C407 1.393 . S
C404 H393 0.950 . S
C404 C402 1.391 . S
C404 C405 1.400 . S
C405 C399 1.491 . S
C405 C404 1.400 . S
C405 C406 1.398 . S
C406 H394 0.950 . S
C406 C405 1.398 . S
C406 C407 1.391 . S
C407 H395 0.950 . S
C407 C403 1.393 . S
C407 C406 1.391 . S
H408 C416 0.950 . S
H409 C421 0.950 . S
H410 C418 0.950 . S
H411 C420 0.950 . S
H412 C422 0.950 . S
H413 C424 0.950 . S
H414 C426 0.950 . S
H415 C427 0.950 . S
C416 H408 0.950 . S
C416 C417 1.386 . S
C416 C418 1.391 . S
C417 C416 1.386 . S
C417 C421 1.393 . S
C418 H410 0.950 . S
C418 C416 1.391 . S
C418 C419 1.400 . S
C419 C418 1.400 . S
C419 C420 1.398 . S
C419 C425 1.491 . S
C420 H411 0.950 . S
C420 C419 1.398 . S
C420 C421 1.391 . S
C421 H409 0.950 . S
C421 C417 1.393 . S
C421 C420 1.391 . S
C422 H412 0.950 . S
C422 C423 1.386 . S
C422 C424 1.391 . S
C423 C422 1.386 . S
C423 C427 1.393 . S
C424 H413 0.950 . S
C424 C422 1.391 . S
C424 C425 1.400 . S
C425 C419 1.491 . S
C425 C424 1.400 . S
C425 C426 1.398 . S
C426 H414 0.950 . S
C426 C425 1.398 . S
C426 C427 1.391 . S
C427 H415 0.950 . S
C427 C423 1.393 . S
C427 C426 1.391 . S
H428 C436 0.950 . S
H429 C441 0.950 . S
H430 C438 0.950 . S
H431 C440 0.959 . S
H432 C442 0.950 . S
H433 C444 0.950 . S
H434 C446 0.959 . S
H435 C447 0.950 . S
C436 H428 0.950 . S
C436 C437 1.386 . S
C436 C438 1.391 . S
C437 C436 1.386 . S
C437 C441 1.393 . S
C438 H430 0.950 . S
C438 C436 1.391 . S
C438 C439 1.400 . S
C439 C438 1.400 . S
C439 C440 1.392 1_655 S
C439 C445 1.491 1_655 S
C440 H431 0.959 . S
C440 C439 1.392 1_455 S
C440 C441 1.388 1_455 S
C441 H429 0.950 . S
C441 C437 1.393 . S
C441 C440 1.388 1_655 S
C442 H432 0.950 . S
C442 C443 1.386 . S
C442 C444 1.391 . S
C443 C442 1.386 . S
C443 C447 1.393 . S
C444 H433 0.950 . S
C444 C442 1.391 . S
C444 C445 1.400 . S
C445 C439 1.491 1_455 S
C445 C444 1.400 . S
C445 C446 1.392 1_455 S
C446 H434 0.959 . S
C446 C445 1.392 1_655 S
C446 C447 1.388 1_655 S
C447 H435 0.950 . S
C447 C443 1.393 . S
C447 C446 1.388 1_455 S
H448 C456 0.950 . S
H449 C461 0.950 . S
H450 C458 0.950 . S
H451 C460 0.950 . S
H452 C462 0.950 . S
H453 C464 0.950 . S
H454 C466 0.950 . S
H455 C467 0.950 . S
C456 H448 0.950 . S
C456 C457 1.386 . S
C456 C458 1.391 . S
C457 C456 1.386 . S
C457 C461 1.393 1_565 S
C458 H450 0.950 . S
C458 C456 1.391 . S
C458 C459 1.400 . S
C459 C458 1.400 . S
C459 C460 1.398 1_565 S
C459 C465 1.491 1_565 S
C460 H451 0.950 . S
C460 C459 1.398 1_545 S
C460 C461 1.391 . S
C461 H449 0.950 . S
C461 C457 1.393 1_545 S
C461 C460 1.391 . S
C462 H452 0.950 . S
C462 C463 1.386 . S
C462 C464 1.391 . S
C463 C462 1.386 . S
C463 C467 1.393 1_545 S
C464 H453 0.950 . S
C464 C462 1.391 . S
C464 C465 1.400 . S
C465 C459 1.491 1_545 S
C465 C464 1.400 . S
C465 C466 1.398 1_545 S
C466 H454 0.950 . S
C466 C465 1.398 1_565 S
C466 C467 1.391 . S
C467 H455 0.950 . S
C467 C463 1.393 1_565 S
C467 C466 1.391 . S
H468 C476 0.950 . S
H469 C481 0.950 . S
H470 C478 0.950 . S
H471 C480 0.950 . S
H472 C482 0.950 . S
H473 C484 0.950 . S
H474 C486 0.950 . S
H475 C487 0.950 . S
C476 H468 0.950 . S
C476 C477 1.386 . S
C476 C478 1.391 . S
C477 C476 1.386 . S
C477 C481 1.393 . S
C478 H470 0.950 . S
C478 C476 1.391 . S
C478 C479 1.400 . S
C479 C478 1.400 . S
C479 C480 1.398 . S
C479 C485 1.491 . S
C480 H471 0.950 . S
C480 C479 1.398 . S
C480 C481 1.391 . S
C481 H469 0.950 . S
C481 C477 1.393 . S
C481 C480 1.391 . S
C482 H472 0.950 . S
C482 C483 1.386 . S
C482 C484 1.391 . S
C483 C482 1.386 . S
C483 C487 1.393 . S
C484 H473 0.950 . S
C484 C482 1.391 . S
C484 C485 1.400 . S
C485 C479 1.491 . S
C485 C484 1.400 . S
C485 C486 1.398 . S
C486 H474 0.950 . S
C486 C485 1.398 . S
C486 C487 1.391 . S
C487 H475 0.950 . S
C487 C483 1.393 . S
C487 C486 1.391 . S
H488 C496 0.950 . S
H489 C501 0.950 . S
H490 C498 0.948 . S
H491 C500 0.950 . S
H492 C502 0.950 . S
H493 C504 0.948 . S
H494 C506 0.950 . S
H495 C507 0.950 . S
C496 H488 0.950 . S
C496 C497 1.386 . S
C496 C498 1.388 1_455 S
C497 C496 1.386 . S
C497 C501 1.393 . S
C498 H490 0.948 . S
C498 C496 1.388 1_655 S
C498 C499 1.405 1_655 S
C499 C498 1.405 1_455 S
C499 C500 1.398 . S
C499 C505 1.491 1_455 S
C500 H491 0.950 . S
C500 C499 1.398 . S
C500 C501 1.391 . S
C501 H489 0.950 . S
C501 C497 1.393 . S
C501 C500 1.391 . S
C502 H492 0.950 . S
C502 C503 1.386 . S
C502 C504 1.389 1_655 S
C503 C502 1.386 . S
C503 C507 1.393 . S
C504 H493 0.948 . S
C504 C502 1.389 1_455 S
C504 C505 1.405 1_455 S
C505 C499 1.491 1_655 S
C505 C504 1.405 1_655 S
C505 C506 1.398 . S
C506 H494 0.950 . S
C506 C505 1.398 . S
C506 C507 1.391 . S
C507 H495 0.950 . S
C507 C503 1.393 . S
C507 C506 1.391 . S
H508 C516 0.950 . S
H509 C521 0.950 . S
H510 C518 0.950 . S
H511 C520 0.950 . S
H512 C522 0.950 . S
H513 C524 0.950 . S
H514 C526 0.950 . S
H515 C527 0.950 . S
C516 H508 0.950 . S
C516 C517 1.386 1_545 S
C516 C518 1.391 . S
C517 C516 1.386 1_565 S
C517 C521 1.393 . S
C518 H510 0.950 . S
C518 C516 1.391 . S
C518 C519 1.400 1_545 S
C519 C518 1.400 1_565 S
C519 C520 1.398 . S
C519 C525 1.491 1_565 S
C520 H511 0.950 . S
C520 C519 1.398 . S
C520 C521 1.391 . S
C521 H509 0.950 . S
C521 C517 1.393 . S
C521 C520 1.391 . S
C522 H512 0.950 . S
C522 C523 1.386 1_565 S
C522 C524 1.391 . S
C523 C522 1.386 1_545 S
C523 C527 1.393 . S
C524 H513 0.950 . S
C524 C522 1.391 . S
C524 C525 1.400 1_565 S
C525 C519 1.491 1_545 S
C525 C524 1.400 1_545 S
C525 C526 1.398 . S
C526 H514 0.950 . S
C526 C525 1.398 . S
C526 C527 1.391 . S
C527 H515 0.950 . S
C527 C523 1.393 . S
C527 C526 1.391 . S
H528 C536 0.950 . S
H529 C541 0.950 . S
H530 C538 0.950 . S
H531 C540 0.950 . S
H532 C542 0.950 . S
H533 C544 0.950 . S
H534 C546 0.950 . S
H535 C547 0.950 . S
C536 H528 0.950 . S
C536 C537 1.386 . S
C536 C538 1.391 . S
C537 C536 1.386 . S
C537 C541 1.393 . S
C538 H530 0.950 . S
C538 C536 1.391 . S
C538 C539 1.400 . S
C539 C538 1.400 . S
C539 C540 1.398 . S
C539 C545 1.491 . S
C540 H531 0.950 . S
C540 C539 1.398 . S
C540 C541 1.391 . S
C541 H529 0.950 . S
C541 C537 1.393 . S
C541 C540 1.391 . S
C542 H532 0.950 . S
C542 C543 1.386 . S
C542 C544 1.391 . S
C543 C542 1.386 . S
C543 C547 1.393 . S
C544 H533 0.950 . S
C544 C542 1.391 . S
C544 C545 1.400 . S
C545 C539 1.491 . S
C545 C544 1.400 . S
C545 C546 1.398 . S
C546 H534 0.950 . S
C546 C545 1.398 . S
C546 C547 1.391 . S
C547 H535 0.950 . S
C547 C543 1.393 . S
C547 C546 1.391 . S
H548 C556 0.950 . S
H549 C561 0.959 . S
H550 C558 0.950 . S
H551 C560 0.950 . S
H552 C562 0.950 . S
H553 C564 0.950 . S
H554 C566 0.950 . S
H555 C567 0.959 . S
C556 H548 0.950 . S
C556 C557 1.386 . S
C556 C558 1.391 . S
C557 C556 1.386 . S
C557 C561 1.393 . S
C558 H550 0.950 . S
C558 C556 1.391 . S
C558 C559 1.400 . S
C559 C558 1.400 . S
C559 C560 1.398 1_455 S
C559 C565 1.491 1_455 S
C560 H551 0.950 . S
C560 C559 1.398 1_655 S
C560 C561 1.391 1_655 S
C561 H549 0.959 . S
C561 C557 1.393 . S
C561 C560 1.391 1_455 S
C562 H552 0.950 . S
C562 C563 1.386 . S
C562 C564 1.391 . S
C563 C562 1.386 . S
C563 C567 1.393 . S
C564 H553 0.950 . S
C564 C562 1.391 . S
C564 C565 1.400 . S
C565 C559 1.491 1_655 S
C565 C564 1.400 . S
C565 C566 1.398 1_655 S
C566 H554 0.950 . S
C566 C565 1.398 1_455 S
C566 C567 1.391 1_455 S
C567 H555 0.959 . S
C567 C563 1.393 . S
C567 C566 1.391 1_655 S
H568 C576 0.950 . S
H569 C581 0.950 . S
H570 C578 0.950 . S
H571 C580 0.955 . S
H572 C582 0.950 . S
H573 C584 0.950 . S
H574 C586 0.955 . S
H575 C587 0.950 . S
C576 H568 0.950 . S
C576 C577 1.386 . S
C576 C578 1.391 . S
C577 C576 1.386 . S
C577 C581 1.393 . S
C578 H570 0.950 . S
C578 C576 1.391 . S
C578 C579 1.400 . S
C579 C578 1.400 . S
C579 C580 1.400 1_565 S
C579 C585 1.491 1_565 S
C580 H571 0.955 . S
C580 C579 1.400 1_545 S
C580 C581 1.385 1_545 S
C581 H569 0.950 . S
C581 C577 1.393 . S
C581 C580 1.385 1_565 S
C582 H572 0.950 . S
C582 C583 1.386 . S
C582 C584 1.391 . S
C583 C582 1.386 . S
C583 C587 1.393 . S
C584 H573 0.950 . S
C584 C582 1.391 . S
C584 C585 1.400 . S
C585 C579 1.491 1_545 S
C585 C584 1.400 . S
C585 C586 1.400 1_545 S
C586 H574 0.955 . S
C586 C585 1.400 1_565 S
C586 C587 1.385 1_565 S
C587 H575 0.950 . S
C587 C583 1.393 . S
C587 C586 1.385 1_545 S
H588 C596 0.950 . S
H589 C601 0.950 . S
H590 C598 0.950 . S
H591 C600 0.950 . S
H592 C602 0.950 . S
H593 C604 0.950 . S
H594 C606 0.950 . S
H595 C607 0.950 . S
C596 H588 0.950 . S
C596 C597 1.386 . S
C596 C598 1.391 . S
C597 C596 1.386 . S
C597 C601 1.393 . S
C598 H590 0.950 . S
C598 C596 1.391 . S
C598 C599 1.400 . S
C599 C598 1.400 . S
C599 C600 1.398 . S
C599 C605 1.491 . S
C600 H591 0.950 . S
C600 C599 1.398 . S
C600 C601 1.391 . S
C601 H589 0.950 . S
C601 C597 1.393 . S
C601 C600 1.391 . S
C602 H592 0.950 . S
C602 C603 1.386 . S
C602 C604 1.391 . S
C603 C602 1.386 . S
C603 C607 1.393 . S
C604 H593 0.950 . S
C604 C602 1.391 . S
C604 C605 1.400 . S
C605 C599 1.491 . S
C605 C604 1.400 . S
C605 C606 1.398 . S
C606 H594 0.950 . S
C606 C605 1.398 . S
C606 C607 1.391 . S
C607 H595 0.950 . S
C607 C603 1.393 . S
C607 C606 1.391 . S
H608 C616 0.950 . S
H609 C621 0.950 1_455 S
H610 C618 0.950 . S
H611 C620 0.950 . S
H612 C622 0.935 1_554 S
H613 C624 0.944 1_554 S
H614 C626 0.950 . S
H615 C627 0.950 1_655 S
C616 H608 0.950 . S
C616 C617 1.386 . S
C616 C618 1.391 . S
C617 C616 1.386 . S
C617 C621 1.393 . S
C618 H610 0.950 . S
C618 C616 1.391 . S
C618 C619 1.400 . S
C619 C618 1.400 . S
C619 C620 1.398 1_655 S
C619 C625 1.491 1_655 S
C620 H611 0.950 . S
C620 C619 1.398 1_455 S
C620 C621 1.391 1_455 S
C621 H609 0.950 1_655 S
C621 C617 1.393 . S
C621 C620 1.391 1_655 S
C622 H612 0.935 1_556 S
C622 C623 1.386 . S
C622 C624 1.391 . S
C623 C622 1.386 . S
C623 C627 1.393 . S
C624 H613 0.944 1_556 S
C624 C622 1.391 . S
C624 C625 1.400 . S
C625 C619 1.491 1_455 S
C625 C624 1.400 . S
C625 C626 1.398 1_455 S
C626 H614 0.950 . S
C626 C625 1.398 1_655 S
C626 C627 1.391 1_655 S
C627 H615 0.950 1_455 S
C627 C623 1.393 . S
C627 C626 1.391 1_455 S
H628 C636 0.950 . S
H629 C641 0.948 1_565 S
H630 C638 0.950 . S
H631 C640 0.950 . S
H632 C642 0.950 . S
H633 C644 0.950 . S
H634 C646 0.950 . S
H635 C647 0.948 1_545 S
C636 H628 0.950 . S
C636 C637 1.386 . S
C636 C638 1.391 . S
C637 C636 1.386 . S
C637 C641 1.394 . S
C638 H630 0.950 . S
C638 C636 1.391 . S
C638 C639 1.400 . S
C639 C638 1.400 . S
C639 C640 1.398 1_545 S
C639 C645 1.491 1_545 S
C640 H631 0.950 . S
C640 C639 1.398 1_565 S
C640 C641 1.391 1_565 S
C641 H629 0.948 1_545 S
C641 C637 1.394 . S
C641 C640 1.391 1_545 S
C642 H632 0.950 . S
C642 C643 1.386 . S
C642 C644 1.391 . S
C643 C642 1.386 . S
C643 C647 1.394 . S
C644 H633 0.950 . S
C644 C642 1.391 . S
C644 C645 1.400 . S
C645 C639 1.491 1_565 S
C645 C644 1.400 . S
C645 C646 1.398 1_565 S
C646 H634 0.950 . S
C646 C645 1.398 1_545 S
C646 C647 1.391 1_545 S
C647 H635 0.948 1_565 S
C647 C643 1.394 . S
C647 C646 1.391 1_565 S
C177 C7 1.456 . S
C183 C133 1.461 . S
C197 C21 1.461 . S
C203 C147 1.458 . S
C217 C35 1.456 . S
C223 C161 1.461 . S
C237 C49 1.460 . S
C243 C91 1.461 . S
C257 C105 1.457 . S
C263 C63 1.461 . S
C277 C119 1.455 . S
C283 C77 1.449 . S
C297 C146 1.493 . S
C303 C6 1.489 . S
C317 C20 1.483 . S
C323 C160 1.495 . S
C337 C34 1.479 . S
C343 C90 1.495 . S
C357 C48 1.495 . S
C363 C104 1.486 . S
C377 C62 1.475 . S
C383 C118 1.489 . S
C397 C76 1.479 . S
C403 C132 1.481 . S
C417 C134 1.171 . S
C423 C8 1.179 . S
C437 C22 1.178 . S
C443 C148 1.179 . S
C457 C36 1.171 . S
C463 C162 1.178 . S
C477 C92 1.147 . S
C483 C50 1.154 . S
C497 C64 1.180 . S
C503 C106 1.175 . S
C517 C120 1.154 . S
C523 C78 1.147 . S
C537 C9 1.491 . S
C543 C51 1.501 . S
C557 C65 1.501 . S
C563 C23 1.507 . S
C577 C37 1.490 . S
C583 C79 1.492 . S
C597 C93 1.507 . S
C603 C135 1.504 . S
C617 C107 1.489 . S
C623 C149 1.494 . S
C637 C163 1.499 . S
C643 C121 1.507 . S
