# Generated by pormake.
# Topology uoo, (4)-cn, num edge types: 1
# Building blocks:
#     Node 0, Type 0, BuildingBlock: QUQFOY_clean_sbu_1, # of connection points: 4
#     Node 1, Type 0, BuildingBlock: QUQFOY_clean_sbu_1, # of connection points: 4
#     Node 2, Type 0, BuildingBlock: QUQFOY_clean_sbu_1, # of connection points: 4
#     Node 3, Type 0, BuildingBlock: QUQFOY_clean_sbu_1, # of connection points: 4
#     Node 4, Type 0, BuildingBlock: QUQFOY_clean_sbu_1, # of connection points: 4
#     Node 5, Type 0, BuildingBlock: QUQFOY_clean_sbu_1, # of connection points: 4
#     Edge 6, Type (0, 0), BuildingBlock: ZUJKAS_clean_linker_0, # of connection points: 2
#     Edge 7, Type (0, 0), BuildingBlock: ZUJKAS_clean_linker_0, # of connection points: 2
#     Edge 8, Type (0, 0), BuildingBlock: ZUJKAS_clean_linker_0, # of connection points: 2
#     Edge 9, Type (0, 0), BuildingBlock: ZUJKAS_clean_linker_0, # of connection points: 2
#     Edge 10, Type (0, 0), BuildingBlock: ZUJKAS_clean_linker_0, # of connection points: 2
#     Edge 11, Type (0, 0), BuildingBlock: ZUJKAS_clean_linker_0, # of connection points: 2
#     Edge 12, Type (0, 0), BuildingBlock: ZUJKAS_clean_linker_0, # of connection points: 2
#     Edge 13, Type (0, 0), BuildingBlock: ZUJKAS_clean_linker_0, # of connection points: 2
#     Edge 14, Type (0, 0), BuildingBlock: ZUJKAS_clean_linker_0, # of connection points: 2
#     Edge 15, Type (0, 0), BuildingBlock: ZUJKAS_clean_linker_0, # of connection points: 2
#     Edge 16, Type (0, 0), BuildingBlock: ZUJKAS_clean_linker_0, # of connection points: 2
#     Edge 17, Type (0, 0), BuildingBlock: ZUJKAS_clean_linker_0, # of connection points: 2
# Relax obj value: 0.246
# Max RMSD: 0.196
# Mean RMSD: 0.196
data_MOF--net-uoo--node1-QUQFOY_clean_sbu_1--edge1-ZUJKAS_clean_linker_0
_symmetry_space_group_name_H-M    P1
_symmetry_Int_Tables_number       1
_symmetry_cell_setting            triclinic
loop_
_symmetry_equiv_pos_as_xyz
'x, y, z'
_cell_length_a     32.161113
_cell_length_b     32.169923
_cell_length_c     53.254122
_cell_angle_alpha  89.994115
_cell_angle_beta   90.003068
_cell_angle_gamma 119.99269
loop_
_atom_site_label
_atom_site_type_symbol
_atom_site_fract_x
_atom_site_fract_y
_atom_site_fract_z
_atom_type_partial_charge
O0 O 0.17124 0.27318 0.95991 0.0
Cd1 Cd 0.1736 0.31742 0.9887 0.0
Cd2 Cd 0.08524 0.24076 0.99641 0.0
O3 O 0.10022 0.20957 0.9666 0.0
O4 O 0.23952 0.373 0.98499 0.0
O5 O 0.21571 0.32817 0.01912 0.0
C6 C 0.24931 0.36407 0.00706 0.0
C7 C 0.07531 0.21185 0.03708 0.0
C8 C 0.13887 0.23092 0.95399 0.0
C9 C 0.08753 0.33226 0.98607 0.0
O10 O 0.06035 0.28734 0.98897 0.0
O11 O 0.13286 0.35052 0.98613 0.0
O12 O 0.04128 0.19157 0.02071 0.0
O13 O 0.11594 0.24759 0.02991 0.0
O14 O 0.89393 0.17257 0.295 0.0
Cd15 Cd 0.85608 0.17588 0.32584 0.0
Cd16 Cd 0.84126 0.08531 0.32985 0.0
O17 O 0.88749 0.10163 0.30021 0.0
O18 O 0.86629 0.24167 0.32183 0.0
O19 O 0.89207 0.22003 0.35496 0.0
C20 C 0.88822 0.25291 0.34307 0.0
C21 C 0.85994 0.07307 0.37014 0.0
C22 C 0.90371 0.14059 0.28803 0.0
C23 C 0.75395 0.0916 0.32353 0.0
O24 O 0.77057 0.06325 0.32201 0.0
O25 O 0.78184 0.13631 0.32676 0.0
O26 O 0.84541 0.03965 0.35335 0.0
O27 O 0.86533 0.11425 0.36365 0.0
O28 O 0.70451 0.7694 0.65829 0.0
Cd29 Cd 0.75178 0.84135 0.66426 0.0
Cd30 Cd 0.67521 0.85283 0.65634 0.0
O31 O 0.64152 0.77895 0.65496 0.0
O32 O 0.80305 0.84796 0.68748 0.0
O33 O 0.7483 0.86779 0.69766 0.0
C34 C 0.78463 0.86328 0.7041 0.0
C35 C 0.63038 0.88327 0.67539 0.0
C36 C 0.65954 0.7517 0.65552 0.0
C37 C 0.75968 0.90152 0.6204 0.0
O38 O 0.71768 0.89229 0.62648 0.0
O39 O 0.78141 0.88522 0.63348 0.0
O40 O 0.61966 0.86347 0.65358 0.0
O41 O 0.66727 0.88619 0.68669 0.0
O42 O 0.82447 0.72042 0.95905 0.0
Cd43 Cd 0.81854 0.67539 0.98826 0.0
Cd44 Cd 0.90829 0.74945 0.99629 0.0
O45 O 0.89636 0.78241 0.96623 0.0
O46 O 0.75136 0.62244 0.98423 0.0
O47 O 0.77644 0.66738 0.0183 0.0
C48 C 0.74196 0.63242 0.00615 0.0
C49 C 0.92152 0.78029 0.03666 0.0
C50 C 0.85813 0.76216 0.95324 0.0
C51 C 0.90074 0.65501 0.98656 0.0
O52 O 0.92932 0.69974 0.9892 0.0
O53 O 0.85566 0.63846 0.98651 0.0
O54 O 0.95536 0.7973 0.02007 0.0
O55 O 0.87926 0.74687 0.02987 0.0
O56 O 0.11193 0.82805 0.29254 0.0
Cd57 Cd 0.14608 0.82461 0.32491 0.0
Cd58 Cd 0.15475 0.91146 0.33014 0.0
O59 O 0.10818 0.89332 0.30044 0.0
O60 O 0.13765 0.75929 0.32213 0.0
O61 O 0.10713 0.78044 0.35339 0.0
C62 C 0.11312 0.7479 0.34259 0.0
C63 C 0.13477 0.92225 0.37044 0.0
C64 C 0.09785 0.85733 0.28659 0.0
C65 C 0.24559 0.91128 0.32479 0.0
O66 O 0.22651 0.93739 0.3225 0.0
O67 O 0.2197 0.86632 0.32807 0.0
O68 O 0.14782 0.95551 0.35365 0.0
O69 O 0.13154 0.882 0.36394 0.0
O70 O 0.29484 0.22392 0.65827 0.0
Cd71 Cd 0.24711 0.15221 0.66453 0.0
Cd72 Cd 0.32286 0.13988 0.65595 0.0
O73 O 0.3575 0.21385 0.65482 0.0
O74 O 0.19692 0.14697 0.68813 0.0
O75 O 0.25093 0.12592 0.69792 0.0
C76 C 0.21536 0.13146 0.70464 0.0
C77 C 0.36674 0.10814 0.67473 0.0
C78 C 0.33976 0.24135 0.65546 0.0
C79 C 0.23744 0.0919 0.6205 0.0
O80 O 0.2796 0.10102 0.62616 0.0
O81 O 0.21615 0.10817 0.63394 0.0
O82 O 0.37756 0.12799 0.65292 0.0
O83 O 0.33027 0.1059 0.68616 0.0
H84 H 0.13724 0.13308 0.7234 0.0
H85 H 0.1182 0.13607 0.76755 0.0
H86 H 0.2377 0.11904 0.78986 0.0
H87 H 0.25675 0.11534 0.74565 0.0
H88 H 0.15163 0.06899 0.82141 0.0
H89 H 0.21219 0.26177 0.80525 0.0
H90 H 0.16555 0.22073 0.78455 0.0
H91 H 0.22397 0.22632 0.7832 0.0
C92 C 0.15897 0.12904 0.73767 0.0
C93 C 0.19895 0.1247 0.73104 0.0
C94 C 0.14803 0.13078 0.76288 0.0
C95 C 0.17707 0.12862 0.78188 0.0
C96 C 0.21497 0.12091 0.77541 0.0
H97 H 0.22111 0.26075 0.92711 0.0
H98 H 0.23012 0.23016 0.88682 0.0
C99 C 0.22583 0.1189 0.75015 0.0
C100 C 0.17112 0.13965 0.80816 0.0
H101 H 0.18046 0.23042 0.84517 0.0
C102 C 0.15787 0.10421 0.8267 0.0
C103 C 0.18005 0.18589 0.81496 0.0
C104 C 0.19664 0.22608 0.79604 0.0
C105 C 0.1527 0.11376 0.85194 0.0
C106 C 0.16067 0.15976 0.85859 0.0
C107 C 0.17423 0.19513 0.84001 0.0
C108 C 0.15616 0.17296 0.88469 0.0
C109 C 0.1397 0.07501 0.87133 0.0
C110 C 0.11174 0.15028 0.89715 0.0
C111 C 0.10647 0.16763 0.92034 0.0
C112 C 0.14542 0.20829 0.93126 0.0
C113 C 0.19027 0.2296 0.91916 0.0
C114 C 0.19554 0.21211 0.89613 0.0
H115 H 0.14625 0.04623 0.86437 0.0
H116 H 0.1605 0.09016 0.88889 0.0
H117 H 0.10099 0.05851 0.87594 0.0
H118 H 0.08066 0.12056 0.88844 0.0
H119 H 0.07141 0.15051 0.92914 0.0
H120 H 0.91983 0.07534 0.26308 0.0
H121 H 0.95819 0.08543 0.22212 0.0
H122 H 0.9893 0.23222 0.21932 0.0
H123 H 0.9504 0.22232 0.25996 0.0
H124 H 0.94168 0.18068 0.17788 0.0
H125 H 0.09761 0.15647 0.19803 0.0
H126 H 0.04129 0.1091 0.20966 0.0
H127 H 0.0659 0.16859 0.22232 0.0
C128 C 0.93555 0.11003 0.25395 0.0
C129 C 0.93174 0.14794 0.26473 0.0
C130 C 0.95775 0.11581 0.2306 0.0
C131 C 0.97698 0.15971 0.21778 0.0
C132 C 0.97479 0.19807 0.22894 0.0
H133 H 0.1329 0.25701 0.07756 0.0
H134 H 0.11096 0.24059 0.12199 0.0
C135 C 0.95246 0.1923 0.25217 0.0
C136 C 0.99488 0.16443 0.1917 0.0
H137 H 0.07837 0.15771 0.15488 0.0
C138 C 0.97168 0.17581 0.17289 0.0
C139 C 0.03415 0.15827 0.18527 0.0
C140 C 0.06154 0.14785 0.20488 0.0
C141 C 0.98641 0.18096 0.14779 0.0
C142 C 0.02484 0.17358 0.14121 0.0
C143 C 0.04853 0.16272 0.16 0.0
C144 C 0.04132 0.17848 0.11487 0.0
C145 C 0.96119 0.19511 0.12857 0.0
C146 C 0.01022 0.14777 0.0963 0.0
C147 C 0.02245 0.15718 0.07096 0.0
C148 C 0.06622 0.19728 0.06376 0.0
C149 C 0.09884 0.22595 0.0825 0.0
C150 C 0.08642 0.21661 0.10788 0.0
H151 H 0.94037 0.21018 0.13751 0.0
H152 H 0.98733 0.22206 0.11525 0.0
H153 H 0.93579 0.16292 0.11766 0.0
H154 H 0.97556 0.11769 0.10138 0.0
H155 H 0.99676 0.13411 0.057 0.0
H156 H 0.87169 0.128 0.41164 0.0
H157 H 0.86921 0.10477 0.45557 0.0
H158 H 0.86037 0.97221 0.43217 0.0
H159 H 0.86168 0.99464 0.38824 0.0
H160 H 0.78849 0.95719 0.46303 0.0
H161 H 0.96047 0.09525 0.50467 0.0
H162 H 0.92953 0.12053 0.48828 0.0
H163 H 0.95127 0.08699 0.47116 0.0
C164 C 0.87031 0.0944 0.41586 0.0
C165 C 0.86647 0.06297 0.39648 0.0
C166 C 0.86924 0.08131 0.441 0.0
C167 C 0.86502 0.03692 0.44718 0.0
C168 C 0.86374 0.00668 0.42783 0.0
H169 H 0.84302 0.91766 0.59754 0.0
H170 H 0.87276 0.95328 0.55605 0.0
C171 C 0.86443 0.01954 0.40273 0.0
C172 C 0.85559 0.01925 0.47344 0.0
H173 H 0.8973 0.04667 0.53367 0.0
C174 C 0.81261 0.97654 0.4784 0.0
C175 C 0.88717 0.04434 0.49349 0.0
C176 C 0.93492 0.08907 0.48914 0.0
C177 C 0.79967 0.95889 0.50289 0.0
C178 C 0.83007 0.98513 0.52306 0.0
C179 C 0.87381 0.02704 0.51815 0.0
C180 C 0.81604 0.96946 0.54933 0.0
C181 C 0.75342 0.91225 0.50698 0.0
C182 C 0.77531 0.96833 0.55952 0.0
C183 C 0.75813 0.94793 0.58307 0.0
C184 C 0.78156 0.92846 0.59696 0.0
C185 C 0.824 0.93212 0.58729 0.0
C186 C 0.84112 0.95251 0.56362 0.0
H187 H 0.74053 0.89086 0.48941 0.0
H188 H 0.75794 0.89016 0.52157 0.0
H189 H 0.72527 0.9201 0.51346 0.0
H190 H 0.75589 0.9819 0.54888 0.0
H191 H 0.72566 0.94621 0.59004 0.0
H192 H 0.92709 0.84424 0.93005 0.0
H193 H 0.92092 0.87576 0.88914 0.0
H194 H 0.77274 0.76408 0.88356 0.0
H195 H 0.77852 0.73216 0.92408 0.0
H196 H 0.83097 0.76863 0.84307 0.0
H197 H 0.85045 0.94695 0.86402 0.0
H198 H 0.89459 0.93493 0.87763 0.0
H199 H 0.83319 0.90078 0.88759 0.0
C200 C 0.89295 0.82694 0.92032 0.0
C201 C 0.85342 0.78541 0.93024 0.0
C202 C 0.88945 0.84516 0.89701 0.0
C203 C 0.8463 0.82235 0.88342 0.0
C204 C 0.80633 0.78222 0.89379 0.0
H205 H 0.74173 0.87523 0.74569 0.0
H206 H 0.76291 0.87261 0.78961 0.0
C207 C 0.80978 0.76398 0.91696 0.0
C208 C 0.84373 0.83663 0.8573 0.0
H209 H 0.84637 0.92564 0.82111 0.0
C210 C 0.83451 0.80303 0.83824 0.0
C211 C 0.84818 0.88144 0.85117 0.0
C212 C 0.85681 0.91814 0.87113 0.0
C213 C 0.82899 0.81266 0.81321 0.0
C214 C 0.83378 0.85761 0.80696 0.0
C215 C 0.84325 0.89145 0.82598 0.0
C216 C 0.8264 0.86843 0.78086 0.0
C217 C 0.81658 0.77397 0.79379 0.0
C218 C 0.85629 0.86907 0.7615 0.0
C219 C 0.84405 0.87005 0.73644 0.0
C220 C 0.802 0.871 0.73033 0.0
C221 C 0.77424 0.8743 0.7498 0.0
C222 C 0.78633 0.87291 0.7749 0.0
H223 H 0.8037 0.73822 0.80253 0.0
H224 H 0.78844 0.77148 0.78078 0.0
H225 H 0.84906 0.78284 0.78258 0.0
H226 H 0.88785 0.86647 0.76577 0.0
H227 H 0.8665 0.86808 0.72187 0.0
H228 H 0.08894 0.7985 0.24765 0.0
H229 H 0.0495 0.79025 0.20741 0.0
H230 H 0.00543 0.8904 0.2316 0.0
H231 H 0.04663 0.90034 0.27174 0.0
H232 H 0.95895 0.75914 0.19492 0.0
H233 H 0.06993 0.95014 0.16634 0.0
H234 H 0.0843 0.9259 0.19335 0.0
H235 H 0.03753 0.94097 0.19516 0.0
C236 C 0.07083 0.81878 0.24448 0.0
C237 C 0.07127 0.85039 0.26283 0.0
C238 C 0.04822 0.81398 0.22144 0.0
C239 C 0.02517 0.84031 0.21627 0.0
C240 C 0.02407 0.87069 0.23488 0.0
H241 H 0.85788 0.75973 0.0754 0.0
H242 H 0.87705 0.77826 0.12 0.0
C243 C 0.04736 0.87608 0.25787 0.0
C244 C 0.00293 0.83579 0.19124 0.0
H245 H 0.00986 0.89854 0.13816 0.0
C246 C 0.96979 0.78965 0.18255 0.0
C247 C 0.01735 0.87566 0.17509 0.0
C248 C 0.05452 0.92592 0.1828 0.0
C249 C 0.95217 0.78194 0.15788 0.0
C250 C 0.96678 0.82177 0.14166 0.0
C251 C 0.99843 0.86813 0.15067 0.0
C252 C 0.95409 0.81566 0.11458 0.0
C253 C 0.92031 0.73094 0.14907 0.0
C254 C 0.99089 0.83297 0.09659 0.0
C255 C 0.98005 0.82338 0.07114 0.0
C256 C 0.93214 0.79591 0.06315 0.0
C257 C 0.89516 0.78055 0.08103 0.0
C258 C 0.90607 0.79079 0.10653 0.0
H259 H 0.92177 0.70452 0.16194 0.0
H260 H 0.88257 0.72303 0.14834 0.0
H261 H 0.93078 0.72564 0.12998 0.0
H262 H 0.02821 0.85241 0.10231 0.0
H263 H 0.0094 0.83584 0.05787 0.0
H264 H 0.27084 0.04788 0.58926 0.0
H265 H 0.2394 0.01249 0.54819 0.0
H266 H 0.12214 0.04003 0.55724 0.0
H267 H 0.15316 0.07543 0.59863 0.0
H268 H 0.09817 0.94615 0.53429 0.0
H269 H 0.25132 0.10469 0.4895 0.0
H270 H 0.26816 0.07614 0.51322 0.0
H271 H 0.23437 0.10465 0.52182 0.0
C272 C 0.23804 0.04597 0.58273 0.0
C273 C 0.21487 0.0651 0.59712 0.0
C274 C 0.22015 0.02573 0.55924 0.0
C275 C 0.17893 0.02436 0.54961 0.0
C276 C 0.15414 0.04096 0.56439 0.0
H277 H 0.12974 0.99884 0.38871 0.0
H278 H 0.13056 0.02078 0.43268 0.0
C279 C 0.17198 0.06123 0.58799 0.0
C280 C 0.16417 0.00891 0.52339 0.0
H281 H 0.20381 0.0382 0.46312 0.0
C282 C 0.12093 0.96634 0.51865 0.0
C283 C 0.1936 0.03587 0.50308 0.0
C284 C 0.23926 0.08313 0.50704 0.0
C285 C 0.10724 0.94907 0.49401 0.0
C286 C 0.13797 0.97488 0.47381 0.0
C287 C 0.18034 0.01829 0.47861 0.0
C288 C 0.12849 0.95716 0.44755 0.0
C289 C 0.0601 0.90353 0.48986 0.0
C290 C 0.12584 0.9135 0.44129 0.0
C291 C 0.12508 0.9007 0.41612 0.0
C292 C 0.12764 0.93171 0.39681 0.0
C293 C 0.12799 0.97429 0.40315 0.0
C294 C 0.1284 0.98687 0.42828 0.0
H295 H 0.03469 0.89663 0.50556 0.0
H296 H 0.04304 0.90504 0.47201 0.0
H297 H 0.06658 0.87278 0.48883 0.0
H298 H 0.12694 0.89049 0.4558 0.0
H299 H 0.12499 0.86774 0.41184 0.0
H300 H 0.32465 0.44088 0.98511 0.0
H301 H 0.40681 0.48663 5e-05 0.0
H302 H 0.36762 0.40184 0.06781 0.0
H303 H 0.28453 0.35461 0.05258 0.0
H304 H 0.44788 0.5415 0.04267 0.0
H305 H 0.47497 0.38338 0.03877 0.0
H306 H 0.42293 0.38182 0.02508 0.0
H307 H 0.42782 0.37941 0.05856 0.0
C308 C 0.3332 0.43192 0.00327 0.0
C309 C 0.29813 0.39369 0.01753 0.0
C310 C 0.38026 0.45837 0.01186 0.0
C311 C 0.39349 0.44739 0.03493 0.0
C312 C 0.35829 0.41044 0.04978 0.0
H313 H 0.70782 0.64316 0.05175 0.0
H314 H 0.62464 0.59778 0.06714 0.0
C315 C 0.31088 0.38363 0.04109 0.0
C316 C 0.44497 0.47323 0.04197 0.0
H317 H 0.54329 0.45913 0.04183 0.0
C318 C 0.46883 0.52357 0.04318 0.0
C319 C 0.47203 0.44956 0.04267 0.0
C320 C 0.44843 0.39561 0.04109 0.0
C321 C 0.51916 0.55105 0.04273 0.0
C322 C 0.54616 0.52737 0.04153 0.0
C323 C 0.52234 0.47705 0.04271 0.0
C324 C 0.59737 0.55311 0.03401 0.0
C325 C 0.54283 0.60502 0.04129 0.0
C326 C 0.6097 0.54223 0.01066 0.0
C327 C 0.65675 0.56764 0.00198 0.0
C328 C 0.69275 0.60469 0.01643 0.0
C329 C 0.68076 0.61499 0.04014 0.0
C330 C 0.63332 0.58924 0.04891 0.0
H331 H 0.51627 0.61737 0.03966 0.0
H332 H 0.56446 0.62109 0.05849 0.0
H333 H 0.56744 0.61877 0.02491 0.0
H334 H 0.58252 0.51462 0.99881 0.0
H335 H 0.66466 0.55858 0.98368 0.0
H336 H 0.8901 0.32852 0.3195 0.0
H337 H 0.92691 0.41112 0.33369 0.0
H338 H 0.96888 0.37293 0.40301 0.0
H339 H 0.93277 0.28938 0.3885 0.0
H340 H 0.91 0.45207 0.37464 0.0
H341 H 0.09598 0.481 0.37652 0.0
H342 H 0.0469 0.42839 0.36239 0.0
H343 H 0.0517 0.43402 0.39596 0.0
C344 C 0.907 0.3374 0.33782 0.0
C345 C 0.90887 0.30241 0.35279 0.0
C346 C 0.92787 0.38474 0.34597 0.0
C347 C 0.951 0.39835 0.36931 0.0
C348 C 0.95187 0.36335 0.38475 0.0
H349 H 0.06142 0.71098 0.38619 0.0
H350 H 0.02366 0.62748 0.40095 0.0
C351 C 0.93112 0.31566 0.37648 0.0
C352 C 0.9757 0.44986 0.37628 0.0
H353 H 0.08751 0.54882 0.37899 0.0
C354 C 0.94877 0.47331 0.37621 0.0
C355 C 0.02626 0.47729 0.37839 0.0
C356 C 0.05716 0.45418 0.37821 0.0
C357 C 0.97118 0.52359 0.37584 0.0
C358 C 0.0219 0.55104 0.37622 0.0
C359 C 0.04862 0.52757 0.37864 0.0
C360 C 0.04782 0.60263 0.36939 0.0
C361 C 0.94054 0.54666 0.37285 0.0
C362 C 0.07511 0.6166 0.34727 0.0
C363 C 0.09692 0.66393 0.339 0.0
C364 C 0.09185 0.69854 0.35262 0.0
C365 C 0.06561 0.68499 0.3752 0.0
C366 C 0.04391 0.63733 0.3836 0.0
H367 H 0.90222 0.51984 0.36935 0.0
H368 H 0.94255 0.56657 0.39024 0.0
H369 H 0.95382 0.57265 0.35704 0.0
H370 H 0.07852 0.59045 0.33596 0.0
H371 H 0.11698 0.67308 0.32158 0.0
H372 H 0.35163 0.05878 0.71917 0.0
H373 H 0.39798 0.02278 0.73554 0.0
H374 H 0.49135 0.07574 0.67102 0.0
H375 H 0.44633 0.11204 0.65494 0.0
H376 H 0.40916 0.9534 0.71388 0.0
H377 H 0.58827 0.11151 0.72638 0.0
H378 H 0.53497 0.11648 0.72325 0.0
H379 H 0.56634 0.1137 0.69578 0.0
C380 C 0.38251 0.06328 0.70873 0.0
C381 C 0.39532 0.08826 0.68577 0.0
C382 C 0.40897 0.04281 0.71811 0.0
C383 C 0.44884 0.04755 0.70481 0.0
C384 C 0.46176 0.07291 0.68206 0.0
H385 H 0.54919 0.87673 0.65621 0.0
H386 H 0.50381 0.91274 0.67215 0.0
C387 C 0.43553 0.09322 0.67272 0.0
C388 C 0.47436 0.02206 0.71275 0.0
H389 H 0.58717 0.03732 0.7134 0.0
C390 C 0.44806 0.97184 0.71458 0.0
C391 C 0.52504 0.04596 0.71447 0.0
C392 C 0.55513 0.09995 0.71516 0.0
C393 C 0.47132 0.94479 0.7151 0.0
C394 C 0.52196 0.96861 0.7131 0.0
C395 C 0.54828 0.0189 0.71432 0.0
C396 C 0.54737 0.94284 0.70546 0.0
C397 C 0.44124 0.89084 0.71647 0.0
C398 C 0.58787 0.94861 0.71855 0.0
C399 C 0.61453 0.92834 0.70923 0.0
C400 C 0.60131 0.9025 0.68653 0.0
C401 C 0.56036 0.89629 0.67376 0.0
C402 C 0.53392 0.91642 0.68304 0.0
H403 H 0.40846 0.87983 0.72791 0.0
H404 H 0.42942 0.87622 0.69728 0.0
H405 H 0.46164 0.87467 0.72469 0.0
H406 H 0.59928 0.96946 0.73571 0.0
H407 H 0.64598 0.93378 0.71945 0.0
H408 H 0.43768 0.29025 0.65251 0.0
H409 H 0.49137 0.37699 0.65129 0.0
H410 H 0.36935 0.39851 0.65247 0.0
H411 H 0.31517 0.3116 0.65417 0.0
H412 H 0.49888 0.44466 0.61683 0.0
H413 H 0.4501 0.4808 0.71109 0.0
H414 H 0.43337 0.4211 0.70061 0.0
H415 H 0.39995 0.44908 0.6903 0.0
C416 C 0.42213 0.31333 0.65251 0.0
C417 C 0.37207 0.29394 0.65363 0.0
C418 C 0.45294 0.36293 0.65178 0.0
C419 C 0.43438 0.39415 0.65221 0.0
C420 C 0.38443 0.37501 0.65268 0.0
H421 H 0.56186 0.70269 0.65125 0.0
H422 H 0.50839 0.61598 0.64927 0.0
C423 C 0.35352 0.32534 0.65351 0.0
C424 C 0.46747 0.44673 0.65219 0.0
H425 H 0.50103 0.54858 0.68623 0.0
C426 C 0.4995 0.46741 0.63202 0.0
C427 C 0.46828 0.47621 0.67211 0.0
C428 C 0.43643 0.45572 0.69488 0.0
C429 C 0.53178 0.51702 0.63103 0.0
C430 C 0.53232 0.54645 0.65087 0.0
C431 C 0.50037 0.5258 0.67103 0.0
C432 C 0.5654 0.59895 0.65103 0.0
C433 C 0.56442 0.53771 0.60858 0.0
C434 C 0.61523 0.61803 0.65274 0.0
C435 C 0.64605 0.66772 0.65392 0.0
C436 C 0.62747 0.69909 0.65348 0.0
C437 C 0.57747 0.67966 0.6516 0.0
C438 C 0.54678 0.6301 0.65049 0.0
H439 H 0.55235 0.51215 0.59257 0.0
H440 H 0.56625 0.57152 0.60232 0.0
H441 H 0.60121 0.54616 0.61385 0.0
H442 H 0.6302 0.59447 0.65359 0.0
H443 H 0.68433 0.68147 0.65544 0.0
H444 H 0.84967 0.55698 0.9843 0.0
H445 H 0.88104 0.5018 0.98267 0.0
H446 H 0.02569 0.62182 0.98156 0.0
H447 H 0.99476 0.67742 0.98364 0.0
H448 H 0.93898 0.4916 0.9475 0.0
H449 H 0.02808 0.5424 0.04067 0.0
H450 H 0.98531 0.55968 0.03053 0.0
H451 H 0.04636 0.5921 0.01959 0.0
C452 C 0.88819 0.57175 0.98368 0.0
C453 C 0.91974 0.62167 0.98432 0.0
C454 C 0.90601 0.5401 0.98272 0.0
C455 C 0.95565 0.55771 0.98244 0.0
C456 C 0.98725 0.60749 0.98234 0.0
H457 H 0.13578 0.42966 0.98041 0.0
H458 H 0.1022 0.48283 0.97815 0.0
C459 C 0.96949 0.63921 0.9834 0.0
C460 C 0.97428 0.52392 0.98237 0.0
H461 H 0.04385 0.49087 0.01562 0.0
C462 C 0.96176 0.49125 0.96242 0.0
C463 C 0.00376 0.52345 0.00196 0.0
C464 C 0.01636 0.55594 0.02453 0.0
C465 C 0.97887 0.45879 0.96126 0.0
C466 C 0.00876 0.45876 0.9807 0.0
C467 C 0.02104 0.4912 0.0007 0.0
C468 C 0.02829 0.42575 0.98063 0.0
C469 C 0.96571 0.4255 0.93902 0.0
C470 C 0.99773 0.37598 0.98277 0.0
C471 C 0.0168 0.34533 0.9841 0.0
C472 C 0.06678 0.36405 0.98342 0.0
C473 C 0.09714 0.41396 0.98098 0.0
C474 C 0.07806 0.44447 0.9797 0.0
H475 H 0.95146 0.43717 0.92318 0.0
H476 H 0.99731 0.42338 0.93234 0.0
H477 H 0.93758 0.38891 0.94472 0.0
H478 H 0.95922 0.36094 0.98394 0.0
H479 H 0.99243 0.30712 0.98606 0.0
H480 H 0.68938 0.0213 0.29262 0.0
H481 H 0.60343 0.99353 0.28878 0.0
H482 H 0.61525 0.08939 0.34867 0.0
H483 H 0.70151 0.11971 0.35103 0.0
H484 H 0.5326 0.94846 0.31675 0.0
H485 H 0.54398 0.12314 0.30138 0.0
H486 H 0.59657 0.11683 0.3012 0.0
H487 H 0.57284 0.12483 0.33039 0.0
C488 C 0.67347 0.0366 0.30476 0.0
C489 C 0.70189 0.07293 0.32191 0.0
C490 C 0.62443 0.0208 0.30258 0.0
C491 C 0.60282 0.04029 0.31795 0.0
C492 C 0.63116 0.07526 0.3358 0.0
H493 H 0.30065 0.88884 0.35381 0.0
H494 H 0.38726 0.9213 0.35116 0.0
C495 C 0.68037 0.09216 0.33737 0.0
C496 C 0.55039 0.02257 0.31615 0.0
H497 H 0.46754 0.05939 0.31612 0.0
C498 C 0.5185 0.97282 0.31623 0.0
C499 C 0.53155 0.05404 0.31478 0.0
C500 C 0.56315 0.1076 0.31162 0.0
C501 C 0.4686 0.95377 0.31584 0.0
C502 C 0.44984 0.98532 0.3169 0.0
C503 C 0.48167 0.03504 0.31589 0.0
C504 C 0.39751 0.96758 0.31937 0.0
C505 C 0.43686 0.90001 0.31377 0.0
C506 C 0.37467 0.98515 0.30359 0.0
C507 C 0.32539 0.96814 0.30588 0.0
C508 C 0.29806 0.93258 0.32362 0.0
C509 C 0.32096 0.91576 0.33971 0.0
C510 C 0.37035 0.93387 0.33798 0.0
H511 H 0.45551 0.88371 0.30373 0.0
H512 H 0.42809 0.88415 0.33288 0.0
H513 H 0.40295 0.89006 0.30368 0.0
H514 H 0.39478 0.01149 0.28922 0.0
H515 H 0.30838 0.98156 0.29325 0.0
loop_
_geom_bond_atom_site_label_1
_geom_bond_atom_site_label_2
_geom_bond_distance
_geom_bond_site_symmetry_2
_ccdc_geom_bond_type
O0 Cd1 2.223 . S
O0 C8 1.315 . S
Cd1 O0 2.223 . S
Cd1 O4 2.297 . S
Cd1 O5 2.439 1_556 S
Cd1 O11 2.240 1_556 S
Cd2 O3 2.240 1_554 S
Cd2 O10 2.223 1_554 S
Cd2 O12 2.297 . S
Cd2 O13 2.439 . S
O3 Cd2 2.240 1_556 S
O3 C8 1.279 . S
O4 Cd1 2.297 . S
O4 C6 1.247 1_556 S
O5 Cd1 2.439 1_554 S
O5 C6 1.208 . S
C6 O4 1.247 1_554 S
C6 O5 1.208 . S
C7 O12 1.247 . S
C7 O13 1.208 . S
C8 O0 1.315 . S
C8 O3 1.279 . S
C9 O10 1.315 . S
C9 O11 1.279 1_556 S
O10 Cd2 2.223 1_556 S
O10 C9 1.315 . S
O11 Cd1 2.240 1_554 S
O11 C9 1.279 1_554 S
O12 Cd2 2.297 . S
O12 C7 1.247 . S
O13 Cd2 2.439 . S
O13 C7 1.208 . S
O14 Cd15 2.223 . S
O14 C22 1.315 . S
Cd15 O14 2.223 . S
Cd15 O18 2.297 . S
Cd15 O19 2.439 . S
Cd15 O25 2.240 . S
Cd16 O17 2.240 . S
Cd16 O24 2.223 . S
Cd16 O26 2.297 . S
Cd16 O27 2.439 . S
O17 Cd16 2.240 . S
O17 C22 1.279 . S
O18 Cd15 2.297 . S
O18 C20 1.247 . S
O19 Cd15 2.439 . S
O19 C20 1.208 . S
C20 O18 1.247 . S
C20 O19 1.208 . S
C21 O26 1.247 . S
C21 O27 1.208 . S
C22 O14 1.315 . S
C22 O17 1.279 . S
C23 O24 1.315 . S
C23 O25 1.279 . S
O24 Cd16 2.223 . S
O24 C23 1.315 . S
O25 Cd15 2.240 . S
O25 C23 1.279 . S
O26 Cd16 2.297 . S
O26 C21 1.247 . S
O27 Cd16 2.439 . S
O27 C21 1.208 . S
O28 Cd29 2.223 . S
O28 C36 1.315 . S
Cd29 O28 2.223 . S
Cd29 O32 2.297 . S
Cd29 O33 2.439 . S
Cd29 O39 2.240 . S
Cd30 O31 2.240 . S
Cd30 O38 2.223 . S
Cd30 O40 2.297 . S
Cd30 O41 2.439 . S
O31 Cd30 2.240 . S
O31 C36 1.279 . S
O32 Cd29 2.297 . S
O32 C34 1.247 . S
O33 Cd29 2.439 . S
O33 C34 1.208 . S
C34 O32 1.247 . S
C34 O33 1.208 . S
C35 O40 1.247 . S
C35 O41 1.208 . S
C36 O28 1.315 . S
C36 O31 1.279 . S
C37 O38 1.315 . S
C37 O39 1.279 . S
O38 Cd30 2.223 . S
O38 C37 1.315 . S
O39 Cd29 2.240 . S
O39 C37 1.279 . S
O40 Cd30 2.297 . S
O40 C35 1.247 . S
O41 Cd30 2.439 . S
O41 C35 1.208 . S
O42 Cd43 2.223 . S
O42 C50 1.315 . S
Cd43 O42 2.223 . S
Cd43 O46 2.297 . S
Cd43 O47 2.439 1_556 S
Cd43 O53 2.240 1_556 S
Cd44 O45 2.240 1_554 S
Cd44 O52 2.223 1_554 S
Cd44 O54 2.297 . S
Cd44 O55 2.439 . S
O45 Cd44 2.240 1_556 S
O45 C50 1.279 . S
O46 Cd43 2.297 . S
O46 C48 1.247 1_556 S
O47 Cd43 2.439 1_554 S
O47 C48 1.208 . S
C48 O46 1.247 1_554 S
C48 O47 1.208 . S
C49 O54 1.247 . S
C49 O55 1.208 . S
C50 O42 1.315 . S
C50 O45 1.279 . S
C51 O52 1.315 . S
C51 O53 1.279 1_556 S
O52 Cd44 2.223 1_556 S
O52 C51 1.315 . S
O53 Cd43 2.240 1_554 S
O53 C51 1.279 1_554 S
O54 Cd44 2.297 . S
O54 C49 1.247 . S
O55 Cd44 2.439 . S
O55 C49 1.208 . S
O56 Cd57 2.223 . S
O56 C64 1.315 . S
Cd57 O56 2.223 . S
Cd57 O60 2.297 . S
Cd57 O61 2.439 . S
Cd57 O67 2.240 . S
Cd58 O59 2.240 . S
Cd58 O66 2.223 . S
Cd58 O68 2.297 . S
Cd58 O69 2.439 . S
O59 Cd58 2.240 . S
O59 C64 1.279 . S
O60 Cd57 2.297 . S
O60 C62 1.247 . S
O61 Cd57 2.439 . S
O61 C62 1.208 . S
C62 O60 1.247 . S
C62 O61 1.208 . S
C63 O68 1.247 . S
C63 O69 1.208 . S
C64 O56 1.315 . S
C64 O59 1.279 . S
C65 O66 1.315 . S
C65 O67 1.279 . S
O66 Cd58 2.223 . S
O66 C65 1.315 . S
O67 Cd57 2.240 . S
O67 C65 1.279 . S
O68 Cd58 2.297 . S
O68 C63 1.247 . S
O69 Cd58 2.439 . S
O69 C63 1.208 . S
O70 Cd71 2.223 . S
O70 C78 1.315 . S
Cd71 O70 2.223 . S
Cd71 O74 2.297 . S
Cd71 O75 2.439 . S
Cd71 O81 2.240 . S
Cd72 O73 2.240 . S
Cd72 O80 2.223 . S
Cd72 O82 2.297 . S
Cd72 O83 2.439 . S
O73 Cd72 2.240 . S
O73 C78 1.279 . S
O74 Cd71 2.297 . S
O74 C76 1.247 . S
O75 Cd71 2.439 . S
O75 C76 1.208 . S
C76 O74 1.247 . S
C76 O75 1.208 . S
C77 O82 1.247 . S
C77 O83 1.208 . S
C78 O70 1.315 . S
C78 O73 1.279 . S
C79 O80 1.315 . S
C79 O81 1.279 . S
O80 Cd72 2.223 . S
O80 C79 1.315 . S
O81 Cd71 2.240 . S
O81 C79 1.279 . S
O82 Cd72 2.297 . S
O82 C77 1.247 . S
O83 Cd72 2.439 . S
O83 C77 1.208 . S
H84 C92 0.929 . S
H85 C94 0.930 . S
H86 C96 0.930 . S
H87 C99 0.929 . S
H88 C102 0.930 . S
H89 C104 0.960 . S
H90 C104 0.960 . S
H91 C104 0.960 . S
C92 H84 0.929 . S
C92 C93 1.377 . S
C92 C94 1.384 . S
C93 C92 1.377 . S
C93 C99 1.390 . S
C94 H85 0.930 . S
C94 C92 1.384 . S
C94 C95 1.372 . S
C95 C94 1.372 . S
C95 C96 1.400 . S
C95 C100 1.490 . S
C96 H86 0.930 . S
C96 C95 1.400 . S
C96 C99 1.386 . S
H97 C113 0.930 . S
H98 C114 0.931 . S
C99 H87 0.929 . S
C99 C93 1.390 . S
C99 C96 1.386 . S
C100 C95 1.490 . S
C100 C102 1.395 . S
C100 C103 1.403 . S
H101 C107 0.930 . S
C102 H88 0.930 . S
C102 C100 1.395 . S
C102 C105 1.403 . S
C103 C100 1.403 . S
C103 C104 1.524 . S
C103 C107 1.400 . S
C104 H89 0.960 . S
C104 H90 0.960 . S
C104 H91 0.960 . S
C104 C103 1.524 . S
C105 C102 1.403 . S
C105 C106 1.392 . S
C105 C109 1.495 . S
C106 C105 1.392 . S
C106 C107 1.385 . S
C106 C108 1.478 . S
C107 H101 0.930 . S
C107 C103 1.400 . S
C107 C106 1.385 . S
C108 C106 1.478 . S
C108 C110 1.381 . S
C108 C114 1.383 . S
C109 C105 1.495 . S
C109 H115 0.959 . S
C109 H116 0.961 . S
C109 H117 0.960 . S
C110 C108 1.381 . S
C110 C111 1.394 . S
C110 H118 0.930 . S
C111 C110 1.394 . S
C111 C112 1.383 . S
C111 H119 0.929 . S
C112 C111 1.383 . S
C112 C113 1.377 . S
C113 H97 0.930 . S
C113 C112 1.377 . S
C113 C114 1.379 . S
C114 H98 0.931 . S
C114 C108 1.383 . S
C114 C113 1.379 . S
H115 C109 0.959 . S
H116 C109 0.961 . S
H117 C109 0.960 . S
H118 C110 0.930 . S
H119 C111 0.929 . S
H120 C128 0.929 . S
H121 C130 0.930 . S
H122 C132 0.930 . S
H123 C135 0.929 . S
H124 C138 0.930 . S
H125 C140 0.960 . S
H126 C140 0.960 . S
H127 C140 0.960 . S
C128 H120 0.929 . S
C128 C129 1.377 . S
C128 C130 1.384 . S
C129 C128 1.377 . S
C129 C135 1.390 . S
C130 H121 0.930 . S
C130 C128 1.384 . S
C130 C131 1.372 . S
C131 C130 1.372 . S
C131 C132 1.400 . S
C131 C136 1.490 . S
C132 H122 0.930 . S
C132 C131 1.400 . S
C132 C135 1.386 . S
H133 C149 0.930 . S
H134 C150 0.931 . S
C135 H123 0.929 . S
C135 C129 1.390 . S
C135 C132 1.386 . S
C136 C131 1.490 . S
C136 C138 1.395 . S
C136 C139 1.403 . S
H137 C143 0.919 1_455 S
C138 H124 0.930 . S
C138 C136 1.395 . S
C138 C141 1.403 . S
C139 C136 1.403 . S
C139 C140 1.524 1_655 S
C139 C143 1.403 . S
C140 H125 0.960 . S
C140 H126 0.960 . S
C140 H127 0.960 . S
C140 C139 1.524 1_455 S
C141 C138 1.403 . S
C141 C142 1.392 . S
C141 C145 1.495 . S
C142 C141 1.392 . S
C142 C143 1.392 . S
C142 C144 1.478 . S
C143 H137 0.919 1_655 S
C143 C139 1.403 . S
C143 C142 1.392 . S
C144 C142 1.478 . S
C144 C146 1.381 . S
C144 C150 1.383 1_655 S
C145 C141 1.495 . S
C145 H151 0.959 . S
C145 H152 0.961 . S
C145 H153 0.960 . S
C146 C144 1.381 . S
C146 C147 1.394 1_655 S
C146 H154 0.930 . S
C147 C146 1.394 1_455 S
C147 C148 1.383 . S
C147 H155 0.929 . S
C148 C147 1.383 . S
C148 C149 1.377 . S
C149 H133 0.930 . S
C149 C148 1.377 . S
C149 C150 1.379 . S
C150 H134 0.931 . S
C150 C144 1.383 1_455 S
C150 C149 1.379 . S
H151 C145 0.959 . S
H152 C145 0.961 . S
H153 C145 0.960 . S
H154 C146 0.930 . S
H155 C147 0.929 . S
H156 C164 0.929 . S
H157 C166 0.930 . S
H158 C168 0.930 . S
H159 C171 0.929 . S
H160 C174 0.930 . S
H161 C176 0.960 . S
H162 C176 0.960 . S
H163 C176 0.960 . S
C164 H156 0.929 . S
C164 C165 1.377 . S
C164 C166 1.384 . S
C165 C164 1.377 . S
C165 C171 1.390 . S
C166 H157 0.930 . S
C166 C164 1.384 . S
C166 C167 1.372 . S
C167 C166 1.372 . S
C167 C168 1.400 . S
C167 C172 1.490 1_545 S
C168 H158 0.930 . S
C168 C167 1.400 . S
C168 C171 1.386 . S
H169 C185 0.930 . S
H170 C186 0.931 . S
C171 H159 0.929 . S
C171 C165 1.390 . S
C171 C168 1.386 . S
C172 C167 1.490 1_565 S
C172 C174 1.395 . S
C172 C175 1.403 . S
H173 C179 0.930 . S
C174 H160 0.930 . S
C174 C172 1.395 . S
C174 C177 1.403 . S
C175 C172 1.403 . S
C175 C176 1.524 1_565 S
C175 C179 1.400 . S
C176 H161 0.960 . S
C176 H162 0.960 . S
C176 H163 0.960 . S
C176 C175 1.524 1_545 S
C177 C174 1.403 . S
C177 C178 1.392 . S
C177 C181 1.495 . S
C178 C177 1.392 . S
C178 C179 1.385 . S
C178 C180 1.478 . S
C179 H173 0.930 . S
C179 C175 1.400 . S
C179 C178 1.385 . S
C180 C178 1.478 . S
C180 C182 1.381 . S
C180 C186 1.383 . S
C181 C177 1.495 . S
C181 H187 0.959 . S
C181 H188 0.961 . S
C181 H189 0.960 . S
C182 C180 1.381 . S
C182 C183 1.394 . S
C182 H190 0.930 . S
C183 C182 1.394 . S
C183 C184 1.383 . S
C183 H191 0.929 . S
C184 C183 1.383 . S
C184 C185 1.377 . S
C185 H169 0.930 . S
C185 C184 1.377 . S
C185 C186 1.379 . S
C186 H170 0.931 . S
C186 C180 1.383 . S
C186 C185 1.379 . S
H187 C181 0.959 . S
H188 C181 0.961 . S
H189 C181 0.960 . S
H190 C182 0.930 . S
H191 C183 0.929 . S
H192 C200 0.929 . S
H193 C202 0.930 . S
H194 C204 0.930 . S
H195 C207 0.929 . S
H196 C210 0.930 . S
H197 C212 0.960 . S
H198 C212 0.960 . S
H199 C212 0.960 . S
C200 H192 0.929 . S
C200 C201 1.377 . S
C200 C202 1.384 . S
C201 C200 1.377 . S
C201 C207 1.390 . S
C202 H193 0.930 . S
C202 C200 1.384 . S
C202 C203 1.372 . S
C203 C202 1.372 . S
C203 C204 1.400 . S
C203 C208 1.490 . S
C204 H194 0.930 . S
C204 C203 1.400 . S
C204 C207 1.386 . S
H205 C221 0.930 . S
H206 C222 0.931 . S
C207 H195 0.929 . S
C207 C201 1.390 . S
C207 C204 1.386 . S
C208 C203 1.490 . S
C208 C210 1.395 . S
C208 C211 1.403 . S
H209 C215 0.930 . S
C210 H196 0.930 . S
C210 C208 1.395 . S
C210 C213 1.403 . S
C211 C208 1.403 . S
C211 C212 1.524 . S
C211 C215 1.400 . S
C212 H197 0.960 . S
C212 H198 0.960 . S
C212 H199 0.960 . S
C212 C211 1.524 . S
C213 C210 1.403 . S
C213 C214 1.392 . S
C213 C217 1.495 . S
C214 C213 1.392 . S
C214 C215 1.385 . S
C214 C216 1.478 . S
C215 H209 0.930 . S
C215 C211 1.400 . S
C215 C214 1.385 . S
C216 C214 1.478 . S
C216 C218 1.381 . S
C216 C222 1.383 . S
C217 C213 1.495 . S
C217 H223 0.959 . S
C217 H224 0.961 . S
C217 H225 0.960 . S
C218 C216 1.381 . S
C218 C219 1.394 . S
C218 H226 0.930 . S
C219 C218 1.394 . S
C219 C220 1.383 . S
C219 H227 0.929 . S
C220 C219 1.383 . S
C220 C221 1.377 . S
C221 H205 0.930 . S
C221 C220 1.377 . S
C221 C222 1.379 . S
C222 H206 0.931 . S
C222 C216 1.383 . S
C222 C221 1.379 . S
H223 C217 0.959 . S
H224 C217 0.961 . S
H225 C217 0.960 . S
H226 C218 0.930 . S
H227 C219 0.929 . S
H228 C236 0.929 . S
H229 C238 0.930 . S
H230 C240 0.930 . S
H231 C243 0.929 . S
H232 C246 0.930 . S
H233 C248 0.960 . S
H234 C248 0.960 . S
H235 C248 0.960 . S
C236 H228 0.929 . S
C236 C237 1.377 . S
C236 C238 1.384 . S
C237 C236 1.377 . S
C237 C243 1.390 . S
C238 H229 0.930 . S
C238 C236 1.384 . S
C238 C239 1.372 . S
C239 C238 1.372 . S
C239 C240 1.400 . S
C239 C244 1.490 . S
C240 H230 0.930 . S
C240 C239 1.400 . S
C240 C243 1.386 . S
H241 C257 0.930 . S
H242 C258 0.931 . S
C243 H231 0.929 . S
C243 C237 1.390 . S
C243 C240 1.386 . S
C244 C239 1.490 . S
C244 C246 1.395 . S
C244 C247 1.403 . S
H245 C251 0.930 . S
C246 H232 0.930 . S
C246 C244 1.395 . S
C246 C249 1.403 . S
C247 C244 1.403 . S
C247 C248 1.524 . S
C247 C251 1.400 . S
C248 H233 0.960 . S
C248 H234 0.960 . S
C248 H235 0.960 . S
C248 C247 1.524 . S
C249 C246 1.403 . S
C249 C250 1.392 . S
C249 C253 1.495 . S
C250 C249 1.392 . S
C250 C251 1.385 . S
C250 C252 1.478 1_455 S
C251 H245 0.930 . S
C251 C247 1.400 . S
C251 C250 1.385 . S
C252 C250 1.478 1_655 S
C252 C254 1.381 1_655 S
C252 C258 1.383 . S
C253 C249 1.495 . S
C253 H259 0.959 . S
C253 H260 0.961 1_455 S
C253 H261 0.960 . S
C254 C252 1.381 1_455 S
C254 C255 1.394 1_455 S
C254 H262 0.930 . S
C255 C254 1.394 1_655 S
C255 C256 1.383 . S
C255 H263 0.929 1_655 S
C256 C255 1.383 . S
C256 C257 1.377 . S
C257 H241 0.930 . S
C257 C256 1.377 . S
C257 C258 1.379 . S
C258 H242 0.931 . S
C258 C252 1.383 . S
C258 C257 1.379 . S
H259 C253 0.959 . S
H260 C253 0.961 1_655 S
H261 C253 0.960 . S
H262 C254 0.930 . S
H263 C255 0.929 1_455 S
H264 C272 0.929 . S
H265 C274 0.930 . S
H266 C276 0.930 . S
H267 C279 0.929 . S
H268 C282 0.930 . S
H269 C284 0.960 . S
H270 C284 0.960 . S
H271 C284 0.960 . S
C272 H264 0.929 . S
C272 C273 1.377 . S
C272 C274 1.384 . S
C273 C272 1.377 . S
C273 C279 1.390 . S
C274 H265 0.930 . S
C274 C272 1.384 . S
C274 C275 1.372 . S
C275 C274 1.372 . S
C275 C276 1.400 . S
C275 C280 1.490 . S
C276 H266 0.930 . S
C276 C275 1.400 . S
C276 C279 1.386 . S
H277 C293 0.930 1_545 S
H278 C294 0.931 . S
C279 H267 0.929 . S
C279 C273 1.390 . S
C279 C276 1.386 . S
C280 C275 1.490 . S
C280 C282 1.395 . S
C280 C283 1.403 . S
H281 C287 0.930 . S
C282 H268 0.930 . S
C282 C280 1.395 . S
C282 C285 1.403 1_545 S
C283 C280 1.403 . S
C283 C284 1.524 . S
C283 C287 1.400 . S
C284 H269 0.960 . S
C284 H270 0.960 . S
C284 H271 0.960 . S
C284 C283 1.524 . S
C285 C282 1.403 1_565 S
C285 C286 1.392 1_565 S
C285 C289 1.495 . S
C286 C285 1.392 1_545 S
C286 C287 1.385 . S
C286 C288 1.478 1_545 S
C287 H281 0.930 . S
C287 C283 1.400 . S
C287 C286 1.385 . S
C288 C286 1.478 1_565 S
C288 C290 1.381 . S
C288 C294 1.383 1_565 S
C289 C285 1.495 . S
C289 H295 0.959 . S
C289 H296 0.961 . S
C289 H297 0.960 . S
C290 C288 1.381 . S
C290 C291 1.394 . S
C290 H298 0.930 . S
C291 C290 1.394 . S
C291 C292 1.383 . S
C291 H299 0.929 . S
C292 C291 1.383 . S
C292 C293 1.377 . S
C293 H277 0.930 1_565 S
C293 C292 1.377 . S
C293 C294 1.379 1_565 S
C294 H278 0.931 . S
C294 C288 1.383 1_545 S
C294 C293 1.379 1_545 S
H295 C289 0.959 . S
H296 C289 0.961 . S
H297 C289 0.960 . S
H298 C290 0.930 . S
H299 C291 0.929 . S
H300 C308 0.929 . S
H301 C310 0.930 . S
H302 C312 0.930 . S
H303 C315 0.929 . S
H304 C318 0.930 . S
H305 C320 0.960 . S
H306 C320 0.960 . S
H307 C320 0.960 1_554 S
C308 H300 0.929 . S
C308 C309 1.377 1_556 S
C308 C310 1.384 . S
C309 C308 1.377 1_554 S
C309 C315 1.390 . S
C310 H301 0.930 . S
C310 C308 1.384 . S
C310 C311 1.372 1_556 S
C311 C310 1.372 1_554 S
C311 C312 1.400 . S
C311 C316 1.490 . S
C312 H302 0.930 . S
C312 C311 1.400 . S
C312 C315 1.386 . S
H313 C329 0.930 . S
H314 C330 0.931 . S
C315 H303 0.929 . S
C315 C309 1.390 . S
C315 C312 1.386 . S
C316 C311 1.490 . S
C316 C318 1.395 . S
C316 C319 1.403 . S
H317 C323 0.930 . S
C318 H304 0.930 . S
C318 C316 1.395 . S
C318 C321 1.403 . S
C319 C316 1.403 . S
C319 C320 1.524 1_554 S
C319 C323 1.400 . S
C320 H305 0.960 . S
C320 H306 0.960 . S
C320 H307 0.960 1_556 S
C320 C319 1.524 1_556 S
C321 C318 1.403 . S
C321 C322 1.392 . S
C321 C325 1.495 . S
C322 C321 1.392 . S
C322 C323 1.385 . S
C322 C324 1.478 . S
C323 H317 0.930 . S
C323 C319 1.400 . S
C323 C322 1.385 . S
C324 C322 1.478 . S
C324 C326 1.381 1_554 S
C324 C330 1.383 . S
C325 C321 1.495 . S
C325 H331 0.959 . S
C325 H332 0.961 . S
C325 H333 0.960 . S
C326 C324 1.381 1_556 S
C326 C327 1.394 . S
C326 H334 0.930 . S
C327 C326 1.394 . S
C327 C328 1.383 1_556 S
C327 H335 0.929 . S
C328 C327 1.383 1_554 S
C328 C329 1.377 . S
C329 H313 0.930 . S
C329 C328 1.377 . S
C329 C330 1.379 . S
C330 H314 0.931 . S
C330 C324 1.383 . S
C330 C329 1.379 . S
H331 C325 0.959 . S
H332 C325 0.961 . S
H333 C325 0.960 . S
H334 C326 0.930 . S
H335 C327 0.929 . S
H336 C344 0.929 . S
H337 C346 0.930 . S
H338 C348 0.930 . S
H339 C351 0.929 . S
H340 C354 0.930 . S
H341 C356 0.960 . S
H342 C356 0.960 . S
H343 C356 0.960 . S
C344 H336 0.929 . S
C344 C345 1.377 . S
C344 C346 1.384 . S
C345 C344 1.377 . S
C345 C351 1.390 . S
C346 H337 0.930 . S
C346 C344 1.384 . S
C346 C347 1.372 . S
C347 C346 1.372 . S
C347 C348 1.400 . S
C347 C352 1.490 . S
C348 H338 0.930 . S
C348 C347 1.400 . S
C348 C351 1.386 . S
H349 C365 0.930 . S
H350 C366 0.931 . S
C351 H339 0.929 . S
C351 C345 1.390 . S
C351 C348 1.386 . S
C352 C347 1.490 . S
C352 C354 1.395 . S
C352 C355 1.403 1_655 S
H353 C359 0.930 . S
C354 H340 0.930 . S
C354 C352 1.395 . S
C354 C357 1.403 . S
C355 C352 1.403 1_455 S
C355 C356 1.524 . S
C355 C359 1.400 . S
C356 H341 0.960 . S
C356 H342 0.960 . S
C356 H343 0.960 . S
C356 C355 1.524 . S
C357 C354 1.403 . S
C357 C358 1.392 1_655 S
C357 C361 1.495 . S
C358 C357 1.392 1_455 S
C358 C359 1.385 . S
C358 C360 1.478 . S
C359 H353 0.930 . S
C359 C355 1.400 . S
C359 C358 1.385 . S
C360 C358 1.478 . S
C360 C362 1.381 . S
C360 C366 1.383 . S
C361 C357 1.495 . S
C361 H367 0.959 . S
C361 H368 0.961 . S
C361 H369 0.960 . S
C362 C360 1.381 . S
C362 C363 1.394 . S
C362 H370 0.930 . S
C363 C362 1.394 . S
C363 C364 1.383 . S
C363 H371 0.929 . S
C364 C363 1.383 . S
C364 C365 1.377 . S
C365 H349 0.930 . S
C365 C364 1.377 . S
C365 C366 1.379 . S
C366 H350 0.931 . S
C366 C360 1.383 . S
C366 C365 1.379 . S
H367 C361 0.959 . S
H368 C361 0.961 . S
H369 C361 0.960 . S
H370 C362 0.930 . S
H371 C363 0.929 . S
H372 C380 0.929 . S
H373 C382 0.930 . S
H374 C384 0.930 . S
H375 C387 0.929 . S
H376 C390 0.930 . S
H377 C392 0.960 . S
H378 C392 0.960 . S
H379 C392 0.960 . S
C380 H372 0.929 . S
C380 C381 1.377 . S
C380 C382 1.384 . S
C381 C380 1.377 . S
C381 C387 1.390 . S
C382 H373 0.930 . S
C382 C380 1.384 . S
C382 C383 1.372 . S
C383 C382 1.372 . S
C383 C384 1.400 . S
C383 C388 1.490 . S
C384 H374 0.930 . S
C384 C383 1.400 . S
C384 C387 1.386 . S
H385 C401 0.930 . S
H386 C402 0.931 . S
C387 H375 0.929 . S
C387 C381 1.390 . S
C387 C384 1.386 . S
C388 C383 1.490 . S
C388 C390 1.395 1_545 S
C388 C391 1.403 . S
H389 C395 0.930 . S
C390 H376 0.930 . S
C390 C388 1.395 1_565 S
C390 C393 1.403 . S
C391 C388 1.403 . S
C391 C392 1.524 . S
C391 C395 1.400 . S
C392 H377 0.960 . S
C392 H378 0.960 . S
C392 H379 0.960 . S
C392 C391 1.524 . S
C393 C390 1.403 . S
C393 C394 1.392 . S
C393 C397 1.495 . S
C394 C393 1.392 . S
C394 C395 1.385 1_565 S
C394 C396 1.478 . S
C395 H389 0.930 . S
C395 C391 1.400 . S
C395 C394 1.385 1_545 S
C396 C394 1.478 . S
C396 C398 1.381 . S
C396 C402 1.383 . S
C397 C393 1.495 . S
C397 H403 0.959 . S
C397 H404 0.961 . S
C397 H405 0.960 . S
C398 C396 1.381 . S
C398 C399 1.394 . S
C398 H406 0.930 . S
C399 C398 1.394 . S
C399 C400 1.383 . S
C399 H407 0.929 . S
C400 C399 1.383 . S
C400 C401 1.377 . S
C401 H385 0.930 . S
C401 C400 1.377 . S
C401 C402 1.379 . S
C402 H386 0.931 . S
C402 C396 1.383 . S
C402 C401 1.379 . S
H403 C397 0.959 . S
H404 C397 0.961 . S
H405 C397 0.960 . S
H406 C398 0.930 . S
H407 C399 0.929 . S
H408 C416 0.929 . S
H409 C418 0.930 . S
H410 C420 0.930 . S
H411 C423 0.929 . S
H412 C426 0.930 . S
H413 C428 0.960 . S
H414 C428 0.960 . S
H415 C428 0.960 . S
C416 H408 0.929 . S
C416 C417 1.377 . S
C416 C418 1.384 . S
C417 C416 1.377 . S
C417 C423 1.390 . S
C418 H409 0.930 . S
C418 C416 1.384 . S
C418 C419 1.372 . S
C419 C418 1.372 . S
C419 C420 1.400 . S
C419 C424 1.490 . S
C420 H410 0.930 . S
C420 C419 1.400 . S
C420 C423 1.386 . S
H421 C437 0.930 . S
H422 C438 0.931 . S
C423 H411 0.929 . S
C423 C417 1.390 . S
C423 C420 1.386 . S
C424 C419 1.490 . S
C424 C426 1.395 . S
C424 C427 1.403 . S
H425 C431 0.930 . S
C426 H412 0.930 . S
C426 C424 1.395 . S
C426 C429 1.403 . S
C427 C424 1.403 . S
C427 C428 1.524 . S
C427 C431 1.400 . S
C428 H413 0.960 . S
C428 H414 0.960 . S
C428 H415 0.960 . S
C428 C427 1.524 . S
C429 C426 1.403 . S
C429 C430 1.392 . S
C429 C433 1.495 . S
C430 C429 1.392 . S
C430 C431 1.385 . S
C430 C432 1.478 . S
C431 H425 0.930 . S
C431 C427 1.400 . S
C431 C430 1.385 . S
C432 C430 1.478 . S
C432 C434 1.381 . S
C432 C438 1.383 . S
C433 C429 1.495 . S
C433 H439 0.959 . S
C433 H440 0.961 . S
C433 H441 0.960 . S
C434 C432 1.381 . S
C434 C435 1.394 . S
C434 H442 0.930 . S
C435 C434 1.394 . S
C435 C436 1.383 . S
C435 H443 0.929 . S
C436 C435 1.383 . S
C436 C437 1.377 . S
C437 H421 0.930 . S
C437 C436 1.377 . S
C437 C438 1.379 . S
C438 H422 0.931 . S
C438 C432 1.383 . S
C438 C437 1.379 . S
H439 C433 0.959 . S
H440 C433 0.961 . S
H441 C433 0.960 . S
H442 C434 0.930 . S
H443 C435 0.929 . S
H444 C452 0.929 . S
H445 C454 0.930 . S
H446 C456 0.931 1_455 S
H447 C459 0.929 1_455 S
H448 C462 0.930 . S
H449 C464 0.960 . S
H450 C464 0.960 . S
H451 C464 0.935 1_556 S
C452 H444 0.929 . S
C452 C453 1.377 1_554 S
C452 C454 1.384 . S
C453 C452 1.377 1_556 S
C453 C459 1.390 . S
C454 H445 0.930 . S
C454 C452 1.384 . S
C454 C455 1.372 1_554 S
C455 C454 1.372 1_556 S
C455 C456 1.399 . S
C455 C460 1.490 . S
C456 H446 0.931 1_655 S
C456 C455 1.399 . S
C456 C459 1.385 . S
H457 C473 0.930 . S
H458 C474 0.931 . S
C459 H447 0.929 1_655 S
C459 C453 1.390 . S
C459 C456 1.385 . S
C460 C455 1.490 . S
C460 C462 1.395 . S
C460 C463 1.403 1_655 S
H461 C467 0.930 1_554 S
C462 H448 0.930 . S
C462 C460 1.395 . S
C462 C465 1.403 . S
C463 C460 1.403 1_455 S
C463 C464 1.524 1_556 S
C463 C467 1.400 . S
C464 H449 0.960 . S
C464 H450 0.960 . S
C464 H451 0.935 1_554 S
C464 C463 1.524 1_554 S
C465 C462 1.403 . S
C465 C466 1.392 1_655 S
C465 C469 1.495 . S
C466 C465 1.392 1_455 S
C466 C467 1.385 . S
C466 C468 1.478 . S
C467 H461 0.930 1_556 S
C467 C463 1.400 . S
C467 C466 1.385 . S
C468 C466 1.478 . S
C468 C470 1.381 1_456 S
C468 C474 1.383 . S
C469 C465 1.495 . S
C469 H475 0.959 . S
C469 H476 0.961 . S
C469 H477 0.960 . S
C470 C468 1.381 1_654 S
C470 C471 1.394 1_655 S
C470 H478 0.930 . S
C471 C470 1.394 1_455 S
C471 C472 1.383 1_554 S
C471 H479 0.929 1_455 S
C472 C471 1.383 1_556 S
C472 C473 1.377 . S
C473 H457 0.930 . S
C473 C472 1.377 . S
C473 C474 1.379 . S
C474 H458 0.931 . S
C474 C468 1.383 . S
C474 C473 1.379 . S
H475 C469 0.959 . S
H476 C469 0.961 . S
H477 C469 0.960 . S
H478 C470 0.930 . S
H479 C471 0.929 1_655 S
H480 C488 0.929 . S
H481 C490 0.930 . S
H482 C492 0.930 . S
H483 C495 0.929 . S
H484 C498 0.930 . S
H485 C500 0.960 . S
H486 C500 0.960 . S
H487 C500 0.960 . S
C488 H480 0.929 . S
C488 C489 1.377 . S
C488 C490 1.384 . S
C489 C488 1.377 . S
C489 C495 1.390 . S
C490 H481 0.930 . S
C490 C488 1.384 . S
C490 C491 1.372 . S
C491 C490 1.372 . S
C491 C492 1.400 . S
C491 C496 1.490 . S
C492 H482 0.930 . S
C492 C491 1.400 . S
C492 C495 1.386 . S
H493 C509 0.930 . S
H494 C510 0.931 . S
C495 H483 0.929 . S
C495 C489 1.390 . S
C495 C492 1.386 . S
C496 C491 1.490 . S
C496 C498 1.395 1_545 S
C496 C499 1.403 . S
H497 C503 0.930 . S
C498 H484 0.930 . S
C498 C496 1.395 1_565 S
C498 C501 1.403 . S
C499 C496 1.403 . S
C499 C500 1.524 . S
C499 C503 1.400 . S
C500 H485 0.960 . S
C500 H486 0.960 . S
C500 H487 0.960 . S
C500 C499 1.524 . S
C501 C498 1.403 . S
C501 C502 1.392 . S
C501 C505 1.495 . S
C502 C501 1.392 . S
C502 C503 1.385 1_565 S
C502 C504 1.478 . S
C503 H497 0.930 . S
C503 C499 1.400 . S
C503 C502 1.385 1_545 S
C504 C502 1.478 . S
C504 C506 1.381 . S
C504 C510 1.383 . S
C505 C501 1.495 . S
C505 H511 0.959 . S
C505 H512 0.961 . S
C505 H513 0.960 . S
C506 C504 1.381 . S
C506 C507 1.394 . S
C506 H514 0.930 . S
C507 C506 1.394 . S
C507 C508 1.383 . S
C507 H515 0.929 . S
C508 C507 1.383 . S
C508 C509 1.377 . S
C509 H493 0.930 . S
C509 C508 1.377 . S
C509 C510 1.379 . S
C510 H494 0.931 . S
C510 C504 1.383 . S
C510 C509 1.379 . S
H511 C505 0.959 . S
H512 C505 0.961 . S
H513 C505 0.960 . S
H514 C506 0.930 . S
H515 C507 0.929 . S
C93 C76 1.281 . S
C112 C8 1.241 . S
C129 C22 1.243 . S
C148 C7 1.263 . S
C165 C21 1.287 . S
C184 C37 1.229 . S
C201 C50 1.241 . S
C220 C34 1.263 . S
C237 C64 1.241 . S
C256 C49 1.285 . S
C273 C79 1.229 . S
C292 C63 1.297 . S
C309 C6 1.290 . S
C328 C48 1.327 . S
C345 C20 1.298 . S
C364 C62 1.306 . S
C381 C77 1.290 . S
C400 C35 1.262 . S
C417 C78 1.368 . S
C436 C36 1.385 . S
C453 C51 1.368 . S
C472 C9 1.380 . S
C489 C23 1.374 . S
C508 C65 1.373 . S
