# Generated by pormake.
# Topology fnh, (5)-cn, num edge types: 1
# Building blocks:
#     Node 0, Type 0, BuildingBlock: XOMCOT_clean_sbu_1, # of connection points: 5
#     Node 1, Type 0, BuildingBlock: XOMCOT_clean_sbu_1, # of connection points: 5
#     Node 2, Type 0, BuildingBlock: XOMCOT_clean_sbu_1, # of connection points: 5
#     Node 3, Type 0, BuildingBlock: XOMCOT_clean_sbu_1, # of connection points: 5
#     Node 4, Type 0, BuildingBlock: XOMCOT_clean_sbu_1, # of connection points: 5
#     Node 5, Type 0, BuildingBlock: XOMCOT_clean_sbu_1, # of connection points: 5
#     Node 6, Type 0, BuildingBlock: XOMCOT_clean_sbu_1, # of connection points: 5
#     Node 7, Type 0, BuildingBlock: XOMCOT_clean_sbu_1, # of connection points: 5
#     Node 8, Type 0, BuildingBlock: XOMCOT_clean_sbu_1, # of connection points: 5
#     Node 9, Type 0, BuildingBlock: XOMCOT_clean_sbu_1, # of connection points: 5
#     Node 10, Type 0, BuildingBlock: XOMCOT_clean_sbu_1, # of connection points: 5
#     Node 11, Type 0, BuildingBlock: XOMCOT_clean_sbu_1, # of connection points: 5
#     Node 12, Type 0, BuildingBlock: XOMCOT_clean_sbu_1, # of connection points: 5
#     Node 13, Type 0, BuildingBlock: XOMCOT_clean_sbu_1, # of connection points: 5
#     Node 14, Type 0, BuildingBlock: XOMCOT_clean_sbu_1, # of connection points: 5
#     Node 15, Type 0, BuildingBlock: XOMCOT_clean_sbu_1, # of connection points: 5
#     Node 16, Type 0, BuildingBlock: XOMCOT_clean_sbu_1, # of connection points: 5
#     Node 17, Type 0, BuildingBlock: XOMCOT_clean_sbu_1, # of connection points: 5
#     Edge 18, Type (0, 0), BuildingBlock: EZIPEK_clean_linker_0, # of connection points: 2
#     Edge 19, Type (0, 0), BuildingBlock: EZIPEK_clean_linker_0, # of connection points: 2
#     Edge 20, Type (0, 0), BuildingBlock: EZIPEK_clean_linker_0, # of connection points: 2
#     Edge 21, Type (0, 0), BuildingBlock: EZIPEK_clean_linker_0, # of connection points: 2
#     Edge 22, Type (0, 0), BuildingBlock: EZIPEK_clean_linker_0, # of connection points: 2
#     Edge 23, Type (0, 0), BuildingBlock: EZIPEK_clean_linker_0, # of connection points: 2
#     Edge 24, Type (0, 0), BuildingBlock: EZIPEK_clean_linker_0, # of connection points: 2
#     Edge 25, Type (0, 0), BuildingBlock: EZIPEK_clean_linker_0, # of connection points: 2
#     Edge 26, Type (0, 0), BuildingBlock: EZIPEK_clean_linker_0, # of connection points: 2
#     Edge 27, Type (0, 0), BuildingBlock: EZIPEK_clean_linker_0, # of connection points: 2
#     Edge 28, Type (0, 0), BuildingBlock: EZIPEK_clean_linker_0, # of connection points: 2
#     Edge 29, Type (0, 0), BuildingBlock: EZIPEK_clean_linker_0, # of connection points: 2
#     Edge 30, Type (0, 0), BuildingBlock: EZIPEK_clean_linker_0, # of connection points: 2
#     Edge 31, Type (0, 0), BuildingBlock: EZIPEK_clean_linker_0, # of connection points: 2
#     Edge 32, Type (0, 0), BuildingBlock: EZIPEK_clean_linker_0, # of connection points: 2
#     Edge 33, Type (0, 0), BuildingBlock: EZIPEK_clean_linker_0, # of connection points: 2
#     Edge 34, Type (0, 0), BuildingBlock: EZIPEK_clean_linker_0, # of connection points: 2
#     Edge 35, Type (0, 0), BuildingBlock: EZIPEK_clean_linker_0, # of connection points: 2
#     Edge 36, Type (0, 0), BuildingBlock: EZIPEK_clean_linker_0, # of connection points: 2
#     Edge 37, Type (0, 0), BuildingBlock: EZIPEK_clean_linker_0, # of connection points: 2
#     Edge 38, Type (0, 0), BuildingBlock: EZIPEK_clean_linker_0, # of connection points: 2
#     Edge 39, Type (0, 0), BuildingBlock: EZIPEK_clean_linker_0, # of connection points: 2
#     Edge 40, Type (0, 0), BuildingBlock: EZIPEK_clean_linker_0, # of connection points: 2
#     Edge 41, Type (0, 0), BuildingBlock: EZIPEK_clean_linker_0, # of connection points: 2
#     Edge 42, Type (0, 0), BuildingBlock: EZIPEK_clean_linker_0, # of connection points: 2
#     Edge 43, Type (0, 0), BuildingBlock: EZIPEK_clean_linker_0, # of connection points: 2
#     Edge 44, Type (0, 0), BuildingBlock: EZIPEK_clean_linker_0, # of connection points: 2
#     Edge 45, Type (0, 0), BuildingBlock: EZIPEK_clean_linker_0, # of connection points: 2
#     Edge 46, Type (0, 0), BuildingBlock: EZIPEK_clean_linker_0, # of connection points: 2
#     Edge 47, Type (0, 0), BuildingBlock: EZIPEK_clean_linker_0, # of connection points: 2
#     Edge 48, Type (0, 0), BuildingBlock: EZIPEK_clean_linker_0, # of connection points: 2
#     Edge 49, Type (0, 0), BuildingBlock: EZIPEK_clean_linker_0, # of connection points: 2
#     Edge 50, Type (0, 0), BuildingBlock: EZIPEK_clean_linker_0, # of connection points: 2
#     Edge 51, Type (0, 0), BuildingBlock: EZIPEK_clean_linker_0, # of connection points: 2
#     Edge 52, Type (0, 0), BuildingBlock: EZIPEK_clean_linker_0, # of connection points: 2
#     Edge 53, Type (0, 0), BuildingBlock: EZIPEK_clean_linker_0, # of connection points: 2
#     Edge 54, Type (0, 0), BuildingBlock: EZIPEK_clean_linker_0, # of connection points: 2
#     Edge 55, Type (0, 0), BuildingBlock: EZIPEK_clean_linker_0, # of connection points: 2
#     Edge 56, Type (0, 0), BuildingBlock: EZIPEK_clean_linker_0, # of connection points: 2
#     Edge 57, Type (0, 0), BuildingBlock: EZIPEK_clean_linker_0, # of connection points: 2
#     Edge 58, Type (0, 0), BuildingBlock: EZIPEK_clean_linker_0, # of connection points: 2
#     Edge 59, Type (0, 0), BuildingBlock: EZIPEK_clean_linker_0, # of connection points: 2
#     Edge 60, Type (0, 0), BuildingBlock: EZIPEK_clean_linker_0, # of connection points: 2
#     Edge 61, Type (0, 0), BuildingBlock: EZIPEK_clean_linker_0, # of connection points: 2
#     Edge 62, Type (0, 0), BuildingBlock: EZIPEK_clean_linker_0, # of connection points: 2
# Relax obj value: 0.198
# Max RMSD: 0.170
# Mean RMSD: 0.170
data_MOF--net-fnh--node1-XOMCOT_clean_sbu_1--edge1-EZIPEK_clean_linker_0
_symmetry_space_group_name_H-M    P1
_symmetry_Int_Tables_number       1
_symmetry_cell_setting            triclinic
loop_
_symmetry_equiv_pos_as_xyz
'x, y, z'
_cell_length_a     53.381552
_cell_length_b     53.261409
_cell_length_c     18.193925
_cell_angle_alpha  90.197268
_cell_angle_beta   90.241096
_cell_angle_gamma 119.82487
loop_
_atom_site_label
_atom_site_type_symbol
_atom_site_fract_x
_atom_site_fract_y
_atom_site_fract_z
_atom_type_partial_charge
C0 C 0.06316 0.1995 0.29974 0.0
C1 C 0.04924 0.20825 0.34722 0.0
N2 N 0.04504 0.19338 0.40952 0.0
N3 N 0.06822 0.17972 0.33296 0.0
C4 C 0.05653 0.17613 0.39984 0.0
H5 H 0.07093 0.20861 0.24616 0.0
Co6 Co 0.09189 0.16777 0.29298 0.0
C7 C 0.11511 0.16386 0.46616 0.0
O8 O 0.10818 0.17885 0.5108 0.0
N9 N 0.11519 0.15616 0.25263 0.0
C10 C 0.14045 0.13409 0.23124 0.0
C11 C 0.12178 0.13639 0.2789 0.0
C12 C 0.12928 0.16507 0.18931 0.0
N13 N 0.145 0.15246 0.17603 0.0
O14 O 0.07063 0.1636 0.18781 0.0
H15 H 0.11307 0.12394 0.32845 0.0
H16 H 0.12669 0.17885 0.15058 0.0
O17 O 0.10818 0.16264 0.39656 0.0
C18 C 0.06447 0.17114 0.12448 0.0
O19 O 0.07944 0.19842 0.10535 0.0
N20 N 0.12218 0.21033 0.28725 0.0
C21 C 0.15772 0.27238 0.29531 0.0
C22 C 0.1484 0.25527 0.35854 0.0
C23 C 0.13094 0.22485 0.35338 0.0
C24 C 0.13142 0.22687 0.22473 0.0
C25 C 0.14915 0.25753 0.22754 0.0
H26 H 0.12303 0.21337 0.40388 0.0
H27 H 0.12444 0.21703 0.17164 0.0
H28 H 0.05768 0.16241 0.44186 0.0
H29 H 0.04355 0.22489 0.33815 0.0
H30 H 0.14899 0.11947 0.23486 0.0
H31 H 0.15394 0.26545 0.41232 0.0
H32 H 0.15544 0.26961 0.17676 0.0
C33 C 0.83248 0.8696 0.30636 0.0
C34 C 0.83386 0.85204 0.35947 0.0
N35 N 0.85029 0.86918 0.41482 0.0
N36 N 0.84779 0.89736 0.32927 0.0
C37 C 0.85858 0.89649 0.39531 0.0
H38 H 0.81975 0.86257 0.25634 0.0
Co39 Co 0.8471 0.92721 0.28404 0.0
C40 C 0.86558 0.97313 0.4201 0.0
O41 O 0.83895 0.96796 0.42426 0.0
N42 N 0.84563 0.95735 0.23918 0.0
C43 C 0.83064 0.98796 0.20706 0.0
C44 C 0.82934 0.96922 0.25965 0.0
C45 C 0.85761 0.97022 0.17567 0.0
N46 N 0.84833 0.98831 0.15474 0.0
O47 O 0.88335 0.93319 0.22006 0.0
H48 H 0.81541 0.96322 0.30675 0.0
H49 H 0.8714 0.96534 0.14287 0.0
O50 O 0.8715 0.95833 0.37181 0.0
C51 C 0.8774 0.9171 0.16011 0.0
O52 O 0.84993 0.901 0.1431 0.0
N53 N 0.80829 0.91354 0.32438 0.0
C54 C 0.74725 0.8842 0.34724 0.0
C55 C 0.76707 0.89357 0.40686 0.0
C56 C 0.79745 0.90789 0.39432 0.0
C57 C 0.7891 0.90358 0.26659 0.0
C58 C 0.75903 0.88961 0.27658 0.0
H59 H 0.81203 0.91369 0.44069 0.0
H60 H 0.79728 0.90626 0.21115 0.0
H61 H 0.87072 0.91512 0.43061 0.0
H62 H 0.82274 0.82862 0.35925 0.0
H63 H 0.8185 0.99928 0.20513 0.0
H64 H 0.75914 0.88934 0.46268 0.0
H65 H 0.74494 0.8824 0.22881 0.0
C66 C 0.15766 0.97278 0.28778 0.0
C67 C 0.18033 0.99009 0.333 0.0
N68 N 0.16922 0.99416 0.39477 0.0
N69 N 0.1325 0.9658 0.32169 0.0
C70 C 0.14032 0.97967 0.38659 0.0
H71 H 0.15947 0.96392 0.23587 0.0
Co72 Co 0.09737 0.93766 0.28623 0.0
C73 C 0.07723 0.92032 0.4655 0.0
O74 O 0.10141 0.93146 0.50349 0.0
N75 N 0.06186 0.90915 0.25037 0.0
C76 C 1.01602 0.87427 0.25877 0.0
C77 C 0.03642 0.90135 0.28307 0.0
C78 C 0.05585 0.88733 0.20366 0.0
N79 N 0.02875 0.86479 0.2108 0.0
O80 O 0.11208 0.95695 0.17921 0.0
H81 H 0.03316 0.9139 0.32494 0.0
H82 H 0.07063 0.88834 0.16274 0.0
O83 O 0.07876 0.92358 0.39396 0.0
C84 C 0.12402 0.96199 0.114 0.0
O85 O 0.13442 0.9455 0.09211 0.0
N86 N 0.11438 0.91088 0.28502 0.0
C87 C 0.14404 0.87784 0.29808 0.0
C88 C 0.14056 0.8927 0.358 0.0
C89 C 0.1248 0.9075 0.3511 0.0
C90 C 0.11956 0.89853 0.2247 0.0
C91 C 0.1323 0.88065 0.23078 0.0
H92 H 0.12256 0.9178 0.39932 0.0
H93 H 0.11452 0.90256 0.17047 0.0
H94 H 0.12534 0.97788 0.42875 0.0
H95 H 0.20297 0.99752 0.3237 0.0
H96 H 0.99375 0.86298 0.27565 0.0
H97 H 0.14987 0.89288 0.4111 0.0
H98 H 0.13372 0.86986 0.18178 0.0
C99 C 0.22915 0.06978 0.76546 0.0
C100 C 0.22944 0.04978 0.71831 0.0
N101 N 0.2075 0.04195 0.67064 0.0
N102 N 0.20755 0.07467 0.74572 0.0
C103 C 0.19412 0.05671 0.68942 0.0
H104 H 0.24497 0.08169 0.80789 0.0
Co105 Co 0.20384 0.10363 0.78587 0.0
C106 C 0.17423 0.10789 0.62634 0.0
O107 O 0.18577 0.09715 0.58152 0.0
N108 N 0.20164 0.13336 0.82684 0.0
C109 C 0.20323 0.1754 0.84451 0.0
C110 C 0.20616 0.15798 0.79362 0.0
C111 C 0.19685 0.13641 0.89705 0.0
N112 N 0.1973 0.16143 0.90884 0.0
O113 O 0.16806 0.07192 0.84614 0.0
H114 H 0.21083 0.16273 0.73589 0.0
H115 H 0.19198 0.12021 0.93841 0.0
O116 O 0.17963 0.10864 0.69693 0.0
C117 C 0.17405 0.06169 0.90533 0.0
O118 O 0.20137 0.07386 0.92464 0.0
N119 N 0.24088 0.13145 0.74473 0.0
C120 C 0.30033 0.16519 0.71054 0.0
C121 C 0.27929 0.15159 0.65492 0.0
C122 C 0.24971 0.13478 0.67317 0.0
C123 C 0.26118 0.14492 0.79898 0.0
C124 C 0.2907 0.16197 0.78319 0.0
H125 H 0.23436 0.1233 0.63014 0.0
H126 H 0.25457 0.14139 0.85587 0.0
H127 H 0.17615 0.05573 0.65949 0.0
H128 H 0.2458 0.04347 0.71494 0.0
H129 H 0.20349 0.19555 0.83458 0.0
H130 H 0.28577 0.15318 0.59803 0.0
H131 H 0.30607 0.17174 0.82792 0.0
C132 C 0.96791 0.17082 0.77602 0.0
C133 C 0.98883 0.19277 0.735 0.0
N134 N 0.99447 0.1804 0.67787 0.0
N135 N 0.9606 0.14521 0.74366 0.0
C136 C 0.97726 0.15166 0.68426 0.0
H137 H 0.95734 0.17337 0.82369 0.0
Co138 Co 0.93091 0.11134 0.77418 0.0
C139 C 0.91256 0.07192 0.62661 0.0
O140 O 0.89186 0.07792 0.6154 0.0
N141 N 0.90033 0.07726 0.80612 0.0
C142 C 0.85606 0.04029 0.82331 0.0
C143 C 0.87325 0.06245 0.77748 0.0
C144 C 0.89934 0.06308 0.86745 0.0
N145 N 0.87269 0.04101 0.87942 0.0
O146 O 0.96136 0.10662 0.83955 0.0
H147 H 0.86554 0.06856 0.72978 0.0
H148 H 0.91693 0.07002 0.90618 0.0
O149 O 0.93091 0.08526 0.68107 0.0
C150 C 0.96883 0.12114 0.90202 0.0
O151 O 0.95409 0.13384 0.92098 0.0
N152 N 0.9044 0.12258 0.72995 0.0
C153 C 0.87384 0.1527 0.69987 0.0
C154 C 0.89093 0.1494 0.64587 0.0
C155 C 0.90625 0.13459 0.66218 0.0
C156 C 0.88814 0.12611 0.78283 0.0
C157 C 0.87245 0.14039 0.7687 0.0
H158 H 0.9207 0.1341 0.62148 0.0
H159 H 0.8883 0.11889 0.83824 0.0
H160 H 0.97535 0.13593 0.64351 0.0
H161 H 0.99773 0.2158 0.74331 0.0
H162 H 0.83292 0.02617 0.81892 0.0
H163 H 0.89328 0.15912 0.59234 0.0
H164 H 0.86021 0.14288 0.81264 0.0
C165 C 0.87947 0.82137 0.79151 0.0
C166 C 0.86133 0.8237 0.74203 0.0
N167 N 0.87776 0.84498 0.69529 0.0
N168 N 0.90705 0.84062 0.77435 0.0
C169 C 0.9053 0.85553 0.71725 0.0
H170 H 0.8731 0.80539 0.83441 0.0
Co171 Co 0.93725 0.83994 0.8188 0.0
C172 C 0.97188 0.86613 0.65979 0.0
O173 O 0.94886 0.85333 0.61758 0.0
N174 N 0.96686 0.83786 0.86453 0.0
C175 C 0.99514 0.81921 0.88726 0.0
C176 C 0.98188 0.82639 0.83333 0.0
C177 C 0.9725 0.83887 0.93664 0.0
N178 N 0.98972 0.82771 0.95198 0.0
O179 O 0.94362 0.87623 0.88364 0.0
H180 H 0.9812 0.82116 0.77565 0.0
H181 H 0.96243 0.84547 0.97781 0.0
O182 O 0.96859 0.86325 0.73157 0.0
C183 C 0.92732 0.87035 0.94256 0.0
O184 O 0.91083 0.84286 0.95841 0.0
N185 N 0.92442 0.80143 0.77549 0.0
C186 C 0.89839 0.7411 0.74113 0.0
C187 C 0.91436 0.76265 0.68873 0.0
C188 C 0.9265 0.79243 0.70635 0.0
C189 C 0.90951 0.78076 0.82732 0.0
C190 C 0.89612 0.75091 0.81129 0.0
H191 H 0.93724 0.80775 0.66387 0.0
H192 H 0.90744 0.78754 0.88201 0.0
H193 H 0.92366 0.87264 0.68953 0.0
H194 H 0.83821 0.80955 0.73708 0.0
H195 H 1.00677 0.80756 0.87986 0.0
H196 H 0.91688 0.75649 0.63365 0.0
H197 H 0.88398 0.73552 0.85389 0.0
C198 C 0.72159 0.51907 0.60174 0.0
C199 C 0.70304 0.52089 0.65024 0.0
N200 N 0.70926 0.51501 0.71736 0.0
N201 N 0.74016 0.51335 0.63885 0.0
C202 C 0.73155 0.51014 0.70908 0.0
H203 H 0.72316 0.52424 0.54401 0.0
Co204 Co 0.77203 0.51649 0.59297 0.0
C205 C 0.79051 0.49884 0.74474 0.0
O206 O 0.7944 0.52292 0.77503 0.0
N207 N 0.80248 0.5193 0.54331 0.0
C208 C 0.8294 0.50701 0.47808 0.0
C209 C 0.80893 0.49819 0.53193 0.0
C210 C 0.8192 0.54072 0.49722 0.0
N211 N 0.83553 0.53358 0.456 0.0
O212 O 0.74371 0.48099 0.52621 0.0
H213 H 0.79782 0.477 0.55674 0.0
H214 H 0.81803 0.56031 0.49117 0.0
O215 O 0.78035 0.49278 0.67716 0.0
C216 C 0.73742 0.48723 0.4614 0.0
O217 O 0.75194 0.51449 0.44161 0.0
N218 N 0.79763 0.5544 0.64234 0.0
C219 C 0.83414 0.61428 0.68017 0.0
C220 C 0.80476 0.60273 0.66399 0.0
C221 C 0.7875 0.5736 0.6431 0.0
C222 C 0.82617 0.56495 0.66065 0.0
C223 C 0.84472 0.59465 0.67879 0.0
H224 H 0.76621 0.56736 0.62365 0.0
H225 H 0.83528 0.55084 0.65772 0.0
H226 H 0.74215 0.50599 0.75409 0.0
H227 H 0.68694 0.52701 0.63795 0.0
H228 H 0.83737 0.49396 0.45248 0.0
H229 H 0.79537 0.61668 0.66333 0.0
H230 H 0.86734 0.60232 0.68982 0.0
C231 C 0.50072 0.20764 0.58983 0.0
C232 C 0.49848 0.18662 0.63726 0.0
N233 N 0.51609 0.20005 0.69463 0.0
N234 N 0.51968 0.23393 0.61755 0.0
C235 C 0.52883 0.22864 0.68149 0.0
H236 H 0.4877 0.20416 0.54109 0.0
Co237 Co 0.52305 0.26712 0.57938 0.0
C238 C 0.54349 0.30579 0.7301 0.0
O239 O 0.51688 0.29953 0.74238 0.0
N240 N 0.5252 0.30043 0.5393 0.0
C241 C 0.51049 0.3325 0.52303 0.0
C242 C 0.51598 0.31696 0.57353 0.0
C243 C 0.52631 0.30744 0.46781 0.0
N244 N 0.51714 0.32662 0.45672 0.0
O245 O 0.55753 0.27046 0.51275 0.0
H246 H 0.50953 0.31513 0.62971 0.0
H247 H 0.53105 0.29688 0.42372 0.0
O248 O 0.54893 0.29414 0.67246 0.0
C249 C 0.54881 0.25602 0.45025 0.0
O250 O 0.52143 0.24585 0.43378 0.0
N251 N 0.48583 0.25686 0.62402 0.0
C252 C 0.42605 0.22898 0.65826 0.0
C253 C 0.44679 0.23243 0.71142 0.0
C254 C 0.47641 0.24593 0.69288 0.0
C255 C 0.4656 0.25295 0.57187 0.0
C256 C 0.43602 0.23977 0.58792 0.0
H257 H 0.49154 0.24649 0.73327 0.0
H258 H 0.4722 0.25865 0.51572 0.0
H259 H 0.54262 0.24522 0.72044 0.0
H260 H 0.48367 0.16357 0.63287 0.0
H261 H 0.50041 0.34549 0.5334 0.0
H262 H 0.44004 0.22379 0.76608 0.0
H263 H 0.42085 0.23691 0.54452 0.0
C264 C 0.84002 0.33697 0.6322 0.0
C265 C 0.86 0.3479 0.68818 0.0
N266 N 0.84857 0.33166 0.74899 0.0
N267 N 0.81549 0.31459 0.65766 0.0
C268 C 0.82109 0.31253 0.72883 0.0
H269 H 0.84349 0.345 0.5767 0.0
Co270 Co 0.78296 0.28836 0.6057 0.0
C271 C 0.73249 0.2587 0.72502 0.0
O272 O 0.72595 0.23417 0.69212 0.0
N273 N 0.75109 0.26306 0.55431 0.0
C274 C 0.70713 0.24291 0.50596 0.0
C275 C 0.72537 0.26208 0.55747 0.0
C276 C 0.74877 0.24588 0.49765 0.0
N277 N 0.72226 0.23341 0.46766 0.0
O278 O 0.78233 0.32244 0.54642 0.0
H279 H 0.72095 0.27623 0.59081 0.0
H280 H 0.76673 0.24478 0.47386 0.0
O281 O 0.75444 0.28265 0.69887 0.0
C282 C 0.79698 0.32829 0.48457 0.0
O283 O 0.81044 0.31364 0.47308 0.0
N284 N 0.78998 0.25738 0.6392 0.0
C285 C 0.81454 0.22116 0.66271 0.0
C286 C 0.79798 0.22495 0.7173 0.0
C287 C 0.78602 0.2432 0.70477 0.0
C288 C 0.80625 0.25391 0.58644 0.0
C289 C 0.81826 0.23588 0.59647 0.0
H290 H 0.775 0.24685 0.74946 0.0
H291 H 0.811 0.26625 0.53634 0.0
H292 H 0.80489 0.29736 0.76491 0.0
H293 H 0.88092 0.36711 0.68381 0.0
H294 H 0.68597 0.23939 0.49091 0.0
H295 H 0.79497 0.21453 0.77007 0.0
H296 H 0.83122 0.23417 0.55321 0.0
C297 C 0.89096 0.40919 0.11818 0.0
C298 C 0.89048 0.38649 0.08086 0.0
N299 N 0.87197 0.37969 0.02415 0.0
N300 N 0.87303 0.4166 0.08452 0.0
C301 C 0.86111 0.39765 0.0286 0.0
H302 H 0.90493 0.4209 0.16404 0.0
Co303 Co 0.87223 0.44931 0.11206 0.0
C304 C 0.84437 0.44825 0.94569 0.0
O305 O 0.85764 0.43715 0.90874 0.0
N306 N 0.8723 0.48275 0.13945 0.0
C307 C 0.87977 0.52765 0.12978 0.0
C308 C 0.8796 0.50513 0.09286 0.0
C309 C 0.868 0.49204 0.2043 0.0
N310 N 0.87235 0.51914 0.19933 0.0
O311 O 0.83657 0.42272 0.17984 0.0
H312 H 0.88502 0.5053 0.03558 0.0
H313 H 0.86192 0.47944 0.25414 0.0
O314 O 0.848 0.45095 0.01729 0.0
C315 C 0.84265 0.41741 0.24626 0.0
O316 O 0.86979 0.43217 0.26727 0.0
N317 N 0.91033 0.47317 0.06652 0.0
C318 C 0.97059 0.50283 0.03363 0.0
C319 C 0.94967 0.48471 0.98145 0.0
C320 C 0.9198 0.47 0.99903 0.0
C321 C 0.93061 0.49066 0.11755 0.0
C322 C 0.96039 0.50581 0.10208 0.0
H323 H 0.90477 0.45478 0.95987 0.0
H324 H 0.92385 0.49206 0.17262 0.0
H325 H 0.84573 0.39756 0.98995 0.0
H326 H 0.90433 0.37735 0.09058 0.0
H327 H 0.88443 0.54835 0.10757 0.0
H328 H 0.95642 0.48114 0.92826 0.0
H329 H 0.9755 0.51903 0.14468 0.0
C330 C 0.64243 0.4921 0.10368 0.0
C331 C 0.65987 0.51323 0.05491 0.0
N332 N 0.66374 0.49991 0.99683 0.0
N333 N 0.6351 0.46593 0.0748 0.0
C334 C 0.64879 0.47139 1.01044 0.0
H335 H 0.63381 0.49543 0.15412 0.0
Co336 Co 0.60666 0.43166 0.10928 0.0
C337 C 0.58439 0.38623 0.97795 0.0
O338 O 0.55836 0.37818 1.00212 0.0
N339 N 0.57791 0.3972 0.14575 0.0
C340 C 0.55491 0.35275 0.18963 0.0
C341 C 0.5804 0.37382 0.16066 0.0
C342 C 0.5507 0.38963 0.16448 0.0
N343 N 0.53618 0.36284 0.19252 0.0
O344 O 0.63815 0.42774 0.17033 0.0
H345 H 0.59987 0.3726 0.15367 0.0
H346 H 0.54182 0.4037 0.16038 0.0
O347 O 0.60642 0.40743 1.01289 0.0
C348 C 0.6444 0.44046 0.23502 0.0
O349 O 0.62887 0.45205 0.25602 0.0
N350 N 0.57853 0.44143 0.06723 0.0
C351 C 0.54445 0.46759 0.03166 0.0
C352 C 0.55271 0.45407 0.97741 0.0
C353 C 0.56988 0.44136 0.99609 0.0
C354 C 0.57138 0.45534 0.11955 0.0
C355 C 0.5541 0.4678 0.10359 0.0
H356 H 0.57705 0.43268 0.95269 0.0
H357 H 0.5793 0.45684 0.17516 0.0
H358 H 0.64594 0.45491 0.97102 0.0
H359 H 0.66746 0.53619 0.05921 0.0
H360 H 0.55144 0.33267 0.21343 0.0
H361 H 0.54651 0.45394 0.92061 0.0
H362 H 0.54891 0.47828 0.14728 0.0
C363 C 0.54379 0.15473 0.07793 0.0
C364 C 0.52359 0.15265 0.02738 0.0
N365 N 0.53774 0.17204 0.97434 0.0
N366 N 0.57027 0.17509 0.05572 0.0
C367 C 0.56585 0.1855 0.99301 0.0
H368 H 0.53976 0.1407 0.12452 0.0
Co369 Co 0.60385 0.17911 0.09276 0.0
C370 C 0.65386 0.22518 0.98995 0.0
O371 O 0.66497 0.24157 0.04861 0.0
N372 N 0.63713 0.1817 0.1285 0.0
C373 C 0.67679 0.17788 0.13365 0.0
C374 C 0.65417 0.17421 0.09016 0.0
C375 C 0.64944 0.18947 0.19499 0.0
N376 N 0.67337 0.18724 0.19919 0.0
O377 O 0.6086 0.21507 0.15579 0.0
H378 H 0.65073 0.16711 0.03342 0.0
H379 H 0.64182 0.19757 0.23901 0.0
O380 O 0.62878 0.20165 0.9974 0.0
C381 C 0.59597 0.20761 0.22026 0.0
O382 O 0.58686 0.1807 0.23971 0.0
N383 N 0.59334 0.14137 0.05136 0.0
C384 C 0.56605 0.08121 0.01769 0.0
C385 C 0.57617 0.10232 0.96168 0.0
C386 C 0.5898 0.13232 0.97963 0.0
C387 C 0.58426 0.12114 0.10592 0.0
C388 C 0.57085 0.09131 0.0905 0.0
H389 H 0.59646 0.14808 0.93607 0.0
H390 H 0.58644 0.1282 0.16258 0.0
H391 H 0.58288 0.20075 0.95823 0.0
H392 H 0.50078 0.13684 0.02657 0.0
H393 H 0.69484 0.17517 0.11793 0.0
H394 H 0.57293 0.09566 0.90453 0.0
H395 H 0.56348 0.07611 0.13556 0.0
C396 C 0.38914 0.85694 0.91279 0.0
C397 C 0.36969 0.85503 0.9652 0.0
N398 N 0.37944 0.85177 0.03075 0.0
N399 N 0.41032 0.85423 0.94599 0.0
C400 C 0.40378 0.85122 0.01735 0.0
H401 H 0.38771 0.85973 0.8545 0.0
Co402 Co 0.44104 0.85339 0.90614 0.0
C403 C 0.46041 0.83272 0.05761 0.0
O404 O 0.47884 0.8597 0.07426 0.0
N405 N 0.47305 0.85288 0.86735 0.0
C406 C 0.51972 0.86621 0.85905 0.0
C407 C 0.49846 0.86383 0.90458 0.0
C408 C 0.47936 0.8478 0.79935 0.0
N409 N 0.50754 0.85599 0.79338 0.0
O410 O 0.41007 0.81821 0.83701 0.0
H411 H 0.50239 0.87243 0.95945 0.0
H412 H 0.46432 0.83968 0.75385 0.0
O413 O 0.44399 0.82738 0.99827 0.0
C414 C 0.40545 0.82584 0.77148 0.0
O415 O 0.42569 0.85147 0.74999 0.0
N416 N 0.46724 0.89232 0.94944 0.0
C417 C 0.50038 0.95353 0.97458 0.0
C418 C 0.48561 0.9341 0.032 0.0
C419 C 0.46898 0.90382 0.01835 0.0
C420 C 0.48108 0.91134 0.89319 0.0
C421 C 0.49795 0.94147 0.90458 0.0
H422 H 0.45693 0.89023 0.06344 0.0
H423 H 0.47838 0.90319 0.83751 0.0
H424 H 0.41613 0.84788 0.05921 0.0
H425 H 0.35003 0.85581 0.95617 0.0
H426 H 0.5425 0.87584 0.87182 0.0
H427 H 0.48627 0.94232 0.08691 0.0
H428 H 0.50834 0.9554 0.85807 0.0
C429 C 0.16987 0.53332 0.93939 0.0
C430 C 0.16547 0.51402 0.9944 0.0
N431 N 0.18241 0.52912 0.05151 0.0
N432 N 0.18889 0.56025 0.96312 0.0
C433 C 0.19652 0.55705 0.03121 0.0
H434 H 0.15863 0.52832 0.88714 0.0
Co435 Co 0.19493 0.59246 0.91529 0.0
C436 C 0.21669 0.64376 0.03259 0.0
O437 O 0.19892 0.65023 0.9986 0.0
N438 N 0.20083 0.62433 0.86568 0.0
C439 C 0.22434 0.66399 0.79963 0.0
C440 C 0.22719 0.64681 0.85087 0.0
C441 C 0.18224 0.62865 0.82523 0.0
N442 N 0.19611 0.65214 0.78339 0.0
O443 O 0.22995 0.59283 0.85739 0.0
H444 H 0.24729 0.64913 0.8713 0.0
H445 H 0.15958 0.61335 0.81857 0.0
O446 O 0.21849 0.62142 1.00747 0.0
C447 C 0.2234 0.57947 0.7931 0.0
O448 O 0.19655 0.56874 0.7708 0.0
N449 N 0.15731 0.58519 0.95214 0.0
C450 C 0.09732 0.56045 0.98487 0.0
C451 C 0.11893 0.57621 0.03819 0.0
C452 C 0.1487 0.58809 0.02108 0.0
C453 C 0.13635 0.56912 0.90111 0.0
C454 C 0.10672 0.55723 0.91556 0.0
H455 H 0.16442 0.59834 0.06439 0.0
H456 H 0.14271 0.56482 0.84826 0.0
H457 H 0.21065 0.57479 0.06707 0.0
H458 H 0.15049 0.49095 0.99369 0.0
H459 H 0.24171 0.68197 0.77096 0.0
H460 H 0.11283 0.57866 0.09329 0.0
H461 H 0.09112 0.54478 0.87305 0.0
C462 C 0.49765 0.62381 0.92141 0.0
C463 C 0.51756 0.64497 0.96687 0.0
N464 N 0.50305 0.65245 1.01383 0.0
N465 N 0.4708 0.61741 0.9418 0.0
C466 C 0.47496 0.63642 0.99551 0.0
H467 H 0.50254 0.613 0.87827 0.0
Co468 Co 0.43765 0.5876 0.90225 0.0
C469 C 0.40962 0.58374 0.07088 0.0
O470 O 0.43461 0.59847 0.10459 0.0
N471 N 0.40494 0.55783 0.86041 0.0
C472 C 0.35951 0.52677 0.83194 0.0
C473 C 0.37762 0.55237 0.86723 0.0
C474 C 0.403 0.53575 0.82015 0.0
N475 N 0.37549 0.51591 0.80314 0.0
O476 O 0.43259 0.61906 0.84211 0.0
H477 H 0.3713 0.56637 0.89461 0.0
H478 H 0.42163 0.53508 0.80123 0.0
O479 O 0.40997 0.58114 0.99883 0.0
C480 C 0.44004 0.62149 0.77249 0.0
O481 O 0.44271 0.60009 0.74506 0.0
N482 N 0.44901 0.55996 0.94047 0.0
C483 C 0.47719 0.52761 0.97478 0.0
C484 C 0.45959 0.5314 0.02642 0.0
C485 C 0.44559 0.54743 1.00809 0.0
C486 C 0.46573 0.55596 0.88995 0.0
C487 C 0.47956 0.53992 0.90541 0.0
H488 H 0.43258 0.55002 0.04887 0.0
H489 H 0.46906 0.56606 0.83668 0.0
H490 H 0.45786 0.63796 0.02274 0.0
H491 H 0.54051 0.65263 0.9692 0.0
H492 H 0.33652 0.51795 0.82416 0.0
H493 H 0.45694 0.52235 0.08091 0.0
H494 H 0.4928 0.53783 0.86358 0.0
C495 C 0.54364 0.72206 0.40423 0.0
C496 C 0.54624 0.70537 0.35035 0.0
N497 N 0.52884 0.70342 0.29444 0.0
N498 N 0.52496 0.73054 0.38113 0.0
C499 C 0.51607 0.71862 0.3143 0.0
H500 H 0.55571 0.72886 0.45528 0.0
Co501 Co 0.51941 0.75779 0.42609 0.0
C502 C 0.4987 0.78563 0.30046 0.0
O503 O 0.51686 0.81073 0.33023 0.0
N504 N 0.51395 0.78541 0.47185 0.0
C505 C 0.49314 0.80594 0.53298 0.0
C506 C 0.48839 0.78177 0.49455 0.0
C507 C 0.5336 0.81236 0.49372 0.0
N508 N 0.52172 0.82495 0.53301 0.0
O509 O 0.48389 0.724 0.48405 0.0
H510 H 0.46781 0.76224 0.487 0.0
H511 H 0.55639 0.82266 0.48337 0.0
O512 O 0.49661 0.76225 0.33101 0.0
C513 C 0.48942 0.71987 0.55223 0.0
O514 O 0.51464 0.73923 0.57911 0.0
N515 N 0.55784 0.78679 0.39152 0.0
C516 C 0.61887 0.82002 0.36997 0.0
C517 C 0.59903 0.81509 0.31221 0.0
C518 C 0.56863 0.7982 0.32383 0.0
C519 C 0.57703 0.79091 0.44697 0.0
C520 C 0.60711 0.80761 0.43795 0.0
H521 H 0.55413 0.7935 0.27779 0.0
H522 H 0.56877 0.78081 0.49957 0.0
H523 H 0.50182 0.72215 0.27886 0.0
H524 H 0.5604 0.69625 0.35078 0.0
H525 H 0.47724 0.80827 0.56448 0.0
H526 H 0.60695 0.82361 0.25805 0.0
H527 H 0.6212 0.8102 0.48387 0.0
C528 C 0.30938 0.82896 0.41767 0.0
C529 C 0.33131 0.84803 0.37266 0.0
N530 N 0.33162 0.83299 0.31343 0.0
N531 N 0.29692 0.80234 0.38685 0.0
C532 C 0.31112 0.80546 0.32428 0.0
H533 H 0.30275 0.83411 0.46898 0.0
Co534 Co 0.26619 0.76939 0.41947 0.0
C535 C 0.25304 0.73407 0.26433 0.0
O536 O 0.23818 0.74617 0.24165 0.0
N537 N 0.23493 0.73579 0.45148 0.0
C538 C 0.19103 0.69685 0.45255 0.0
C539 C 0.21143 0.7182 0.40987 0.0
C540 C 0.22862 0.72439 0.51889 0.0
N541 N 0.20219 0.70083 0.52036 0.0
O542 O 0.29665 0.76396 0.48794 0.0
H543 H 0.20838 0.72149 0.35294 0.0
H544 H 0.24286 0.73314 0.56605 0.0
O545 O 0.26644 0.74258 0.32814 0.0
C546 C 0.30444 0.77662 0.55321 0.0
O547 O 0.28998 0.78892 0.57743 0.0
N548 N 0.2392 0.78119 0.37086 0.0
C549 C 0.20722 0.81086 0.33801 0.0
C550 C 0.23231 0.81625 0.29904 0.0
C551 C 0.24692 0.80052 0.31373 0.0
C552 C 0.21529 0.77647 0.41036 0.0
C553 C 0.19823 0.78905 0.39155 0.0
H554 H 0.26556 0.80559 0.28095 0.0
H555 H 0.2095 0.76386 0.46001 0.0
H556 H 0.30581 0.78825 0.28503 0.0
H557 H 0.34525 0.87104 0.3814 0.0
H558 H 0.16998 0.67959 0.4355 0.0
H559 H 0.24121 0.83304 0.2579 0.0
H560 H 0.17894 0.78299 0.42317 0.0
C561 C 0.21384 0.48527 0.43173 0.0
C562 C 0.19355 0.48696 0.38858 0.0
N563 N 0.20718 0.50253 0.32905 0.0
N564 N 0.23979 0.49958 0.39871 0.0
C565 C 0.23513 0.51004 0.33642 0.0
H566 H 0.20964 0.47282 0.4815 0.0
Co567 Co 0.27147 0.49855 0.43151 0.0
C568 C 0.30838 0.51968 0.27746 0.0
O569 O 0.29738 0.49284 0.25508 0.0
N570 N 0.30322 0.49671 0.46552 0.0
C571 C 0.3349 0.48123 0.47292 0.0
C572 C 0.31769 0.48632 0.42659 0.0
C573 C 0.31262 0.49856 0.53498 0.0
N574 N 0.33188 0.48928 0.5407 0.0
O575 O 0.27984 0.5341 0.50308 0.0
H576 H 0.31404 0.48013 0.36945 0.0
H577 H 0.30401 0.50446 0.58134 0.0
O578 O 0.29943 0.52466 0.34059 0.0
C579 C 0.26573 0.52809 0.56586 0.0
O580 O 0.2504 0.50058 0.58277 0.0
N581 N 0.25683 0.46032 0.38198 0.0
C582 C 0.2256 0.40013 0.34178 0.0
C583 C 0.22908 0.42201 0.2923 0.0
C584 C 0.24429 0.45172 0.31369 0.0
C585 C 0.25283 0.43904 0.43083 0.0
C586 C 0.23806 0.40938 0.41172 0.0
H587 H 0.24493 0.46759 0.27589 0.0
H588 H 0.26019 0.44487 0.48695 0.0
H589 H 0.25125 0.52094 0.29449 0.0
H590 H 0.17046 0.47604 0.39734 0.0
H591 H 0.34756 0.47114 0.45882 0.0
H592 H 0.21937 0.41614 0.23808 0.0
H593 H 0.23554 0.3936 0.45269 0.0
C594 C 0.20242 0.1779 0.03491 0.0
C595 C 0.18488 0.16621 0.97191 0.0
C596 C 0.14156 0.14289 0.04538 0.0
C597 C 0.15899 0.15496 0.10852 0.0
N598 N 0.2045 0.18767 0.16564 0.0
N599 N 0.13828 0.14336 0.91296 0.0
C600 C 0.18909 0.17369 0.10404 0.0
C601 C 0.15447 0.15088 0.97596 0.0
N602 N 0.23174 0.19176 0.02806 0.0
N603 N 0.11289 0.12312 0.05273 0.0
H604 H 0.1475 0.14874 0.86095 0.0
H605 H 0.11591 0.13414 0.91218 0.0
H606 H 0.10309 0.11635 0.10387 0.0
H607 H 0.09935 0.11164 1.00894 0.0
H608 H 0.24597 0.19816 0.07255 0.0
H609 H 0.24168 0.19581 0.97676 0.0
H610 H 0.22615 0.20369 0.16489 0.0
H611 H 0.195 0.18428 0.21737 0.0
C612 C 0.85179 0.9968 0.95198 0.0
C613 C 0.86292 0.0269 0.94772 0.0
C614 C 0.8651 0.03158 0.08032 0.0
C615 C 0.85228 1.00127 0.08477 0.0
N616 N 0.82573 0.95427 0.02675 0.0
N617 N 0.87184 0.07154 1.00482 0.0
C618 C 0.84322 0.98351 0.02107 0.0
C619 C 0.86689 0.04391 1.01115 0.0
N620 N 0.85055 0.98128 0.89084 0.0
N621 N 0.87667 0.04852 0.14143 0.0
H622 H 0.87176 0.08062 0.95411 0.0
H623 H 0.8728 0.08413 0.04985 0.0
H624 H 0.87657 0.03997 0.19304 0.0
H625 H 0.88875 0.07102 0.13943 0.0
H626 H 0.84533 0.95967 0.89266 0.0
H627 H 0.85705 0.99072 0.83916 0.0
H628 H 0.8168 0.94065 0.98133 0.0
H629 H 0.81766 0.94404 0.07693 0.0
C630 C 0.03467 0.83525 0.11717 0.0
C631 C 1.01654 0.83836 0.16756 0.0
C632 C 0.97698 0.81366 0.08099 0.0
C633 C 0.99798 0.82378 0.02426 0.0
N634 N 0.04859 0.84385 0.99079 0.0
N635 N 0.96817 0.81328 0.21271 0.0
C636 C 0.02732 0.83332 0.04231 0.0
C637 C 0.98658 0.82185 0.15474 0.0
N638 N 0.05966 0.83688 0.14082 0.0
N639 N 0.94847 0.79681 0.06323 0.0
H640 H 0.976 0.81584 0.26653 0.0
H641 H 0.94578 0.8023 0.20789 0.0
H642 H 0.94183 0.78934 1.00959 0.0
H643 H 0.93178 0.78913 0.10112 0.0
H644 H 0.07329 0.8337 0.1059 0.0
H645 H 0.06483 0.83891 0.19681 0.0
H646 H 0.07039 0.8532 1.00486 0.0
H647 H 0.04515 0.84605 0.93557 0.0
C648 C 0.89616 0.91737 0.02781 0.0
C649 C 0.89886 0.91442 0.10568 0.0
C650 C 0.92998 0.89282 0.07189 0.0
C651 C 0.92371 0.89193 0.99468 0.0
N652 N 0.89857 0.90259 0.90149 0.0
N653 N 0.91794 0.89702 0.19966 0.0
C654 C 0.90654 0.90446 0.97361 0.0
C655 C 0.91611 0.90191 0.12678 0.0
N656 N 0.88366 0.93302 1.0051 0.0
N657 N 0.94977 0.8851 0.09302 0.0
H658 H 0.90904 0.90395 0.24042 0.0
H659 H 0.92675 0.88475 0.21948 0.0
H660 H 0.96051 0.87925 0.05489 0.0
H661 H 0.95769 0.88736 0.14645 0.0
H662 H 0.88333 0.93883 0.95068 0.0
H663 H 0.87605 0.94263 0.04195 0.0
H664 H 0.883 0.90736 0.88254 0.0
H665 H 0.90654 0.89462 0.86081 0.0
C666 C 0.13936 1.00663 0.93145 0.0
C667 C 0.15267 0.03609 0.95521 0.0
C668 C 0.14319 0.01735 0.08547 0.0
C669 C 0.12961 0.98776 0.06174 0.0
N670 N 0.10793 0.95539 0.95872 0.0
N671 N 0.1596 0.06797 0.05643 0.0
C672 C 0.12566 0.98294 0.98362 0.0
C673 C 0.15206 0.04076 0.03275 0.0
N674 N 0.14095 1.00103 0.85888 0.0
N675 N 0.14933 0.02363 0.15834 0.0
H676 H 0.16515 0.08493 0.01991 0.0
H677 H 0.15714 0.0729 0.11041 0.0
H678 H 0.14287 1.00781 0.1985 0.0
H679 H 0.16253 0.04453 0.17851 0.0
H680 H 0.13528 0.98056 0.83859 0.0
H681 H 0.14965 0.01734 0.81956 0.0
H682 H 0.10174 0.95034 0.90386 0.0
H683 H 0.09681 0.93799 0.99426 0.0
C684 C 0.02335 0.1409 0.93702 0.0
C685 C 0.99353 0.12575 0.95676 0.0
C686 C 1.01004 0.13571 0.08949 0.0
C687 C 0.03986 0.15071 0.06975 0.0
N688 N 0.07391 0.16025 0.97291 0.0
N689 N 0.95971 0.10289 0.05486 0.0
C690 C 0.04602 0.1509 0.99287 0.0
C691 C 0.98747 0.12136 0.03404 0.0
N692 N 0.0303 0.1474 0.86483 0.0
N693 N 1.00292 0.13649 0.1611 0.0
H694 H 0.94305 0.09191 0.01679 0.0
H695 H 0.95375 0.09617 0.1088 0.0
H696 H 1.01833 0.146 0.20277 0.0
H697 H 0.98191 0.1295 0.17845 0.0
H698 H 0.05118 0.16149 0.84689 0.0
H699 H 1.01477 0.14004 0.82308 0.0
H700 H 0.07996 0.15854 0.9196 0.0
H701 H 0.0906 0.1669 1.01147 0.0
C702 C 0.833 0.54218 0.3253 0.0
C703 C 0.85003 0.54638 0.38886 0.0
C704 C 0.88786 0.54673 0.31398 0.0
C705 C 0.86749 0.53457 0.25627 0.0
N706 N 0.82158 0.52222 0.20205 0.0
N707 N 0.89559 0.5595 0.4439 0.0
C708 C 0.84059 0.53356 0.25955 0.0
C709 C 0.87864 0.5519 0.38236 0.0
N710 N 0.80927 0.54546 0.32868 0.0
N711 N 0.91529 0.55183 0.30345 0.0
H712 H 0.88852 0.56354 0.49372 0.0
H713 H 0.916 0.56157 0.44606 0.0
H714 H 0.92184 0.54765 0.25307 0.0
H715 H 0.9318 0.56163 0.34225 0.0
H716 H 0.79691 0.54422 0.28294 0.0
H717 H 0.80394 0.55293 0.37554 0.0
H718 H 0.8003 0.51782 0.20415 0.0
H719 H 0.82666 0.51572 0.15293 0.0
C720 C 0.49764 0.32308 0.2587 0.0
C721 C 0.51285 0.35292 0.24405 0.0
C722 C 0.52138 0.36484 0.37244 0.0
C723 C 0.51105 0.33521 0.3875 0.0
N724 N 0.47752 0.28586 0.35176 0.0
N725 N 0.51615 0.39703 0.28869 0.0
C726 C 0.49496 0.31402 0.33276 0.0
C727 C 0.51642 0.37205 0.30183 0.0
N728 N 0.48905 0.30407 0.20128 0.0
N729 N 0.5377 0.3861 0.42201 0.0
H730 H 0.50989 0.40095 0.23756 0.0
H731 H 0.51807 0.41127 0.33073 0.0
H732 H 0.54427 0.38206 0.47239 0.0
H733 H 0.54714 0.40801 0.40917 0.0
H734 H 0.48069 0.28188 0.20733 0.0
H735 H 0.4915 0.3114 0.14713 0.0
H736 H 0.46428 0.26979 0.31438 0.0
H737 H 0.47413 0.27947 0.4065 0.0
C738 C 0.70621 0.1928 0.38202 0.0
C739 C 0.71555 0.22233 0.39482 0.0
C740 C 0.7083 0.22921 0.26652 0.0
C741 C 0.69378 0.19899 0.25738 0.0
N742 N 0.67911 0.15133 0.30155 0.0
N743 N 0.72424 0.26887 0.35186 0.0
C744 C 0.6934 0.18053 0.31327 0.0
C745 C 0.71678 0.24081 0.33749 0.0
N746 N 0.70882 0.17666 0.43644 0.0
N747 N 0.71294 0.24649 0.20705 0.0
H748 H 0.73206 0.27887 0.40264 0.0
H749 H 0.72159 0.28205 0.31412 0.0
H750 H 0.70623 0.23793 0.15442 0.0
H751 H 0.72566 0.26896 0.20872 0.0
H752 H 0.70431 0.15542 0.4291 0.0
H753 H 0.71736 0.18534 0.48812 0.0
H754 H 0.67535 0.13623 0.34235 0.0
H755 H 0.67005 0.14222 0.25057 0.0
C756 C 0.60421 0.25211 0.30696 0.0
C757 C 0.58585 0.22465 0.27185 0.0
C758 C 0.54921 0.217 0.36749 0.0
C759 C 0.56529 0.24569 0.39709 0.0
N760 N 0.60844 0.29191 0.38524 0.0
N761 N 0.53651 0.18632 0.25958 0.0
C762 C 0.593 0.26365 0.36393 0.0
C763 C 0.55712 0.209 0.29954 0.0
N764 N 0.63255 0.26692 0.28759 0.0
N765 N 0.52659 0.1963 0.40636 0.0
H766 H 0.54066 0.18084 0.20781 0.0
H767 H 0.51471 0.17561 0.27361 0.0
H768 H 0.52164 0.20019 0.45895 0.0
H769 H 0.51556 0.17454 0.39082 0.0
H770 H 0.64791 0.28544 0.31512 0.0
H771 H 0.64078 0.25941 0.24641 0.0
H772 H 0.62729 0.30702 0.35926 0.0
H773 H 0.60117 0.3004 0.42635 0.0
C774 C 0.81862 0.40096 0.37473 0.0
C775 C 0.82199 0.39338 0.30097 0.0
C776 C 0.80052 0.34227 0.34605 0.0
C777 C 0.80076 0.35041 0.42206 0.0
N778 N 0.8126 0.38965 0.50626 0.0
N779 N 0.81754 0.3558 0.21992 0.0
C780 C 0.81007 0.38032 0.43525 0.0
C781 C 0.81282 0.36364 0.2878 0.0
N782 N 0.82343 0.42832 0.38693 0.0
N783 N 0.78811 0.31357 0.32853 0.0
H784 H 0.82492 0.37003 0.17569 0.0
H785 H 0.81583 0.33584 0.20834 0.0
H786 H 0.77972 0.29726 0.36763 0.0
H787 H 0.78364 0.30563 0.27486 0.0
H788 H 0.81898 0.43517 0.43634 0.0
H789 H 0.82926 0.44338 0.34468 0.0
H790 H 0.82253 0.41137 0.52151 0.0
H791 H 0.80633 0.37559 0.55075 0.0
C792 C 0.6985 0.45922 0.27226 0.0
C793 C 0.66853 0.444 0.29012 0.0
C794 C 0.6836 0.45104 0.42379 0.0
C795 C 0.71358 0.46644 0.40591 0.0
N796 N 0.74857 0.47741 0.3108 0.0
N797 N 0.63366 0.41887 0.38467 0.0
C798 C 0.72052 0.46792 0.3293 0.0
C799 C 0.66162 0.43789 0.36655 0.0
N800 N 0.70626 0.46708 0.20102 0.0
N801 N 0.67577 0.45025 0.49541 0.0
H802 H 0.61749 0.40851 0.34496 0.0
H803 H 0.62713 0.4111 0.43766 0.0
H804 H 0.69077 0.45846 0.53829 0.0
H805 H 0.65461 0.44298 0.51185 0.0
H806 H 0.72737 0.48131 0.18501 0.0
H807 H 0.6912 0.46075 0.15833 0.0
H808 H 0.7551 0.47649 0.2575 0.0
H809 H 0.7648 0.48322 0.35035 0.0
C810 C 0.54614 0.83832 0.65097 0.0
C811 C 0.53587 0.84645 0.58895 0.0
C812 C 0.52178 0.87394 0.66817 0.0
C813 C 0.52231 0.85712 0.72754 0.0
N814 N 0.53559 0.82334 0.7772 0.0
N815 N 0.52079 0.87754 0.53518 0.0
C816 C 0.53545 0.8399 0.72027 0.0
C817 C 0.52699 0.86713 0.59675 0.0
N818 N 0.56479 0.82803 0.64316 0.0
N819 N 0.51555 0.89551 0.68055 0.0
H820 H 0.52487 0.87226 0.48289 0.0
H821 H 0.51118 0.89043 0.53592 0.0
H822 H 0.51213 0.9008 0.73345 0.0
H823 H 0.51622 0.90951 0.63983 0.0
H824 H 0.57375 0.82298 0.68778 0.0
H825 H 0.57439 0.82855 0.59313 0.0
H826 H 0.54227 0.80808 0.77147 0.0
H827 H 0.52685 0.82307 0.82845 0.0
C828 C 0.18185 0.68167 0.71299 0.0
C829 C 0.18536 0.65721 0.71686 0.0
C830 C 0.19064 0.65643 0.58486 0.0
C831 C 0.1899 0.68252 0.58171 0.0
N832 N 0.17723 0.71595 0.63446 0.0
N833 N 0.18205 0.61508 0.65707 0.0
C834 C 0.18246 0.69353 0.64332 0.0
C835 C 0.18555 0.64222 0.65271 0.0
N836 N 0.17984 0.69425 0.77647 0.0
N837 N 0.19905 0.6469 0.52508 0.0
H838 H 0.1788 0.60407 0.70627 0.0
H839 H 0.17947 0.60227 0.61113 0.0
H840 H 0.20337 0.657 0.47413 0.0
H841 H 0.20373 0.63012 0.52713 0.0
H842 H 0.17999 0.71385 0.77865 0.0
H843 H 0.17866 0.68495 0.82773 0.0
H844 H 0.1703 0.7243 0.67647 0.0
H845 H 0.17789 0.72475 0.5828 0.0
C846 C 0.37383 0.49833 0.61785 0.0
C847 C 0.34357 0.48523 0.60756 0.0
C848 C 0.33603 0.47446 0.73831 0.0
C849 C 0.36592 0.49321 0.74831 0.0
N850 N 0.41034 0.49951 0.6989 0.0
N851 N 0.29631 0.45043 0.65087 0.0
C852 C 0.3841 0.49736 0.68838 0.0
C853 C 0.32465 0.46947 0.66573 0.0
N854 N 0.39274 0.51345 0.56326 0.0
N855 N 0.31907 0.4631 0.79857 0.0
H856 H 0.28837 0.44584 0.59708 0.0
H857 H 0.28138 0.43774 0.69042 0.0
H858 H 0.32826 0.46638 0.85106 0.0
H859 H 0.29664 0.45098 0.79683 0.0
H860 H 0.415 0.5251 0.57222 0.0
H861 H 0.38627 0.51646 0.51157 0.0
H862 H 0.42378 0.50126 0.6554 0.0
H863 H 0.41637 0.49555 0.75036 0.0
C864 C 0.25554 0.55652 0.75681 0.0
C865 C 0.24345 0.57441 0.739 0.0
C866 C 0.25181 0.56738 0.60519 0.0
C867 C 0.26399 0.54953 0.62292 0.0
N868 N 0.28384 0.53395 0.71973 0.0
N869 N 0.23777 0.60264 0.64469 0.0
C870 C 0.26782 0.54641 0.70013 0.0
C871 C 0.24414 0.58156 0.66259 0.0
N872 N 0.25394 0.54767 0.82778 0.0
N873 N 0.24588 0.5696 0.53326 0.0
H874 H 0.23317 0.61384 0.68467 0.0
H875 H 0.24009 0.6111 0.59205 0.0
H876 H 0.25166 0.56041 0.49059 0.0
H877 H 0.2337 0.57892 0.51633 0.0
H878 H 0.25869 0.53176 0.84395 0.0
H879 H 0.24612 0.55513 0.87002 0.0
H880 H 0.29007 0.5332 0.77362 0.0
H881 H 0.29351 0.52712 0.68085 0.0
C882 C 0.48683 0.67646 0.62078 0.0
C883 C 0.47244 0.692 0.60065 0.0
C884 C 0.43567 0.66241 0.69798 0.0
C885 C 0.45194 0.64909 0.72216 0.0
N886 N 0.49801 0.65127 0.71515 0.0
N887 N 0.43431 0.70172 0.63063 0.0
C888 C 0.47887 0.65847 0.68561 0.0
C889 C 0.44712 0.68542 0.64244 0.0
N890 N 0.50821 0.67833 0.57631 0.0
N891 N 0.40887 0.65265 0.72663 0.0
H892 H 0.44147 0.71753 0.58995 0.0
H893 H 0.41787 0.70064 0.66345 0.0
H894 H 0.40061 0.63688 0.76743 0.0
H895 H 0.39444 0.65889 0.70709 0.0
H896 H 0.51768 0.66543 0.58268 0.0
H897 H 0.51401 0.69031 0.528 0.0
H898 H 0.51907 0.65965 0.69635 0.0
H899 H 0.49408 0.6398 0.76411 0.0
C900 C 0.37356 0.82666 0.66237 0.0
C901 C 0.3782 0.80977 0.71717 0.0
C902 C 0.33355 0.76739 0.65964 0.0
C903 C 0.3326 0.7843 0.5991 0.0
N904 N 0.35982 0.82926 0.5364 0.0
N905 N 0.36174 0.76099 0.75775 0.0
C906 C 0.35546 0.81345 0.5985 0.0
C907 C 0.3579 0.77916 0.71262 0.0
N908 N 0.38398 0.85554 0.67386 0.0
N909 N 0.31082 0.7401 0.66785 0.0
H910 H 0.37853 0.7685 0.79603 0.0
H911 H 0.34964 0.73854 0.75313 0.0
H912 H 0.29389 0.73094 0.62969 0.0
H913 H 0.30812 0.72749 0.71399 0.0
H914 H 0.37964 0.86818 0.63806 0.0
H915 H 0.3924 0.86569 0.72418 0.0
H916 H 0.37726 0.85017 0.53051 0.0
H917 H 0.34825 0.81977 0.48826 0.0
C918 C 0.22238 0.3514 0.31115 0.0
C919 C 0.20814 0.3677 0.32311 0.0
C920 C 0.16109 0.32214 0.30629 0.0
C921 C 0.17528 0.30551 0.30111 0.0
N922 N 0.21971 0.30433 0.30545 0.0
N923 N 0.16341 0.36761 0.34019 0.0
C924 C 0.20603 0.32025 0.30524 0.0
C925 C 0.17732 0.35275 0.3223 0.0
N926 N 0.25171 0.36587 0.30331 0.0
N927 N 0.13191 0.30866 0.29493 0.0
H928 H 0.17428 0.38978 0.35124 0.0
H929 H 0.14129 0.35776 0.34939 0.0
H930 H 0.11934 0.28645 0.28525 0.0
H931 H 0.12043 0.31963 0.28949 0.0
H932 H 0.26343 0.35602 0.2869 0.0
H933 H 0.26421 0.38835 0.30729 0.0
H934 H 0.24158 0.31296 0.31707 0.0
H935 H 0.20872 0.28189 0.29862 0.0
C936 C 0.69888 0.88274 0.36853 0.0
C937 C 0.71434 0.86763 0.35659 0.0
C938 C 0.6673 0.82146 0.35205 0.0
C939 C 0.65177 0.83669 0.36049 0.0
N940 N 0.65283 0.88222 0.3702 0.0
N941 N 0.71296 0.82265 0.33038 0.0
C942 C 0.66768 0.86747 0.36687 0.0
C943 C 0.69836 0.83698 0.3466 0.0
N944 N 0.71417 0.91182 0.38266 0.0
N945 N 0.65225 0.79187 0.35066 0.0
H946 H 0.73545 0.83274 0.33048 0.0
H947 H 0.70305 0.80116 0.31317 0.0
H948 H 0.62974 0.77987 0.34983 0.0
H949 H 0.66182 0.77901 0.35407 0.0
H950 H 0.70492 0.92405 0.39938 0.0
H951 H 0.73668 0.92365 0.38216 0.0
H952 H 0.66242 0.90461 0.36731 0.0
H953 H 0.63033 0.87184 0.3712 0.0
C954 C 0.18815 0.83834 0.2558 0.0
C955 C 0.19124 0.8283 0.32633 0.0
C956 C 0.15815 0.84492 0.37243 0.0
C957 C 0.16 0.86023 0.30643 0.0
N958 N 0.18719 0.8779 0.19348 0.0
N959 N 0.18646 0.83429 0.45699 0.0
C960 C 0.178 0.85879 0.25024 0.0
C961 C 0.17837 0.83517 0.38629 0.0
N962 N 0.19337 0.8276 0.19324 0.0
N963 N 0.13638 0.83815 0.42108 0.0
H964 H 0.20385 0.83133 0.47003 0.0
H965 H 0.1785 0.84066 0.50129 0.0
H966 H 0.11905 0.8414 0.40959 0.0
H967 H 0.13372 0.82571 0.4677 0.0
H968 H 0.18967 0.83323 0.14108 0.0
H969 H 0.19738 0.81035 0.1936 0.0
H970 H 0.20164 0.87845 0.15421 0.0
H971 H 0.1838 0.89554 0.19177 0.0
C972 C 0.37834 0.18174 0.67218 0.0
C973 C 0.39388 0.21257 0.67364 0.0
C974 C 0.34766 0.21225 0.69062 0.0
C975 C 0.33243 0.18149 0.69444 0.0
N976 N 0.33387 0.13704 0.69848 0.0
N977 N 0.39382 0.25722 0.6934 0.0
C978 C 0.34799 0.1663 0.68778 0.0
C979 C 0.3786 0.2278 0.68529 0.0
N980 N 0.39244 0.16715 0.65341 0.0
N981 N 0.33239 0.2266 0.69031 0.0
H982 H 0.41627 0.26921 0.68932 0.0
H983 H 0.38464 0.26958 0.70975 0.0
H984 H 0.30996 0.21601 0.69502 0.0
H985 H 0.34152 0.24861 0.6798 0.0
H986 H 0.38199 0.145 0.64273 0.0
H987 H 0.41455 0.17751 0.6431 0.0
H988 H 0.34432 0.12502 0.70328 0.0
H989 H 0.31171 0.1249 0.7078 0.0
C990 C 0.82981 0.15701 0.66199 0.0
C991 C 0.85894 0.17049 0.68755 0.0
C992 C 0.85905 0.21714 0.69652 0.0
C993 C 0.82942 0.20332 0.67485 0.0
N994 N 0.7857 0.15942 0.64403 0.0
N995 N 0.9004 0.21285 0.73669 0.0
C996 C 0.8146 0.17303 0.65961 0.0
C997 C 0.87327 0.20045 0.70674 0.0
N998 N 0.81685 0.12889 0.63836 0.0
N999 N 0.87385 0.24652 0.70604 0.0
H1000 H 0.91192 0.20187 0.742 0.0
H1001 H 0.91095 0.23341 0.76033 0.0
H1002 H 0.864 0.25919 0.70306 0.0
H1003 H 0.89615 0.25869 0.71279 0.0
H1004 H 0.79688 0.1183 0.6119 0.0
H1005 H 0.82706 0.11653 0.64063 0.0
H1006 H 0.7726 0.13708 0.63991 0.0
H1007 H 0.7742 0.17047 0.63996 0.0
C1008 C 0.88796 0.68922 0.76805 0.0
C1009 C 0.88357 0.70866 0.72302 0.0
C1010 C 0.85294 0.66692 0.64182 0.0
C1011 C 0.8532 0.64693 0.6934 0.0
N1012 N 0.86785 0.64023 0.81409 0.0
N1013 N 0.85551 0.7132 0.62469 0.0
C1014 C 0.86997 0.65843 0.7588 0.0
C1015 C 0.86436 0.69672 0.66183 0.0
N1016 N 0.91003 0.70003 0.81816 0.0
N1017 N 0.84256 0.65775 0.57233 0.0
H1018 H 0.86161 0.73438 0.63987 0.0
H1019 H 0.83946 0.70471 0.58424 0.0
H1020 H 0.83551 0.63667 0.55408 0.0
H1021 H 0.84419 0.67188 0.53072 0.0
H1022 H 0.91589 0.68697 0.8476 0.0
H1023 H 0.9245 0.72212 0.82415 0.0
H1024 H 0.87727 0.64762 0.8657 0.0
H1025 H 0.85435 0.61788 0.81107 0.0
C1026 C 0.05005 0.56186 0.99493 0.0
C1027 C 0.06499 0.54599 1.00096 0.0
C1028 C 1.01825 0.50202 0.03019 0.0
C1029 C 1.00306 0.51745 0.01943 0.0
N1030 N 1.00423 0.56141 0.98361 0.0
N1031 N 0.06273 0.50009 0.01761 0.0
C1032 C 1.01899 0.54725 0.99982 0.0
C1033 C 0.04883 0.51581 0.0167 0.0
N1034 N 0.06569 0.59115 0.98541 0.0
N1035 N 1.00352 0.47429 0.05582 0.0
H1036 H 0.08506 0.5095 1.01243 0.0
H1037 H 0.05213 0.4776 0.01932 0.0
H1038 H 0.98127 0.4633 0.06439 0.0
H1039 H 1.01343 0.46275 0.07334 0.0
H1040 H 0.05695 0.60476 0.98846 0.0
H1041 H 0.08807 0.6023 0.97938 0.0
H1042 H 1.01371 0.58209 0.96143 0.0
H1043 H 0.98181 0.55159 0.98731 0.0
C1044 C 0.48007 0.48117 0.99416 0.0
C1045 C 0.49414 0.51202 0.99241 0.0
C1046 C 0.5411 0.51371 1.01459 0.0
C1047 C 0.52716 0.48284 1.01431 0.0
N1048 N 0.48354 0.4371 0.99938 0.0
N1049 N 0.53834 0.55776 0.99772 0.0
C1050 C 0.49665 0.46662 1.00282 0.0
C1051 C 0.52476 0.52822 1.00187 0.0
N1052 N 0.45063 0.46574 0.98822 0.0
N1053 N 0.57018 0.52923 0.02804 0.0
H1054 H 0.5272 0.56918 0.9944 0.0
H1055 H 0.56059 0.57118 0.99497 0.0
H1056 H 0.58312 0.51971 0.03179 0.0
H1057 H 0.58163 0.55139 0.03812 0.0
H1058 H 0.43821 0.44354 0.99595 0.0
H1059 H 0.43811 0.47544 0.97873 0.0
H1060 H 0.46211 0.42355 0.98428 0.0
H1061 H 0.4946 0.42584 1.00843 0.0
C1062 C 0.56316 0.03168 1.01355 0.0
C1063 C 0.54961 0.04864 1.00208 0.0
C1064 C 0.50422 1.0035 0.96927 0.0
C1065 C 0.5172 0.98636 0.98597 0.0
N1066 N 0.55843 0.98412 0.03126 0.0
N1067 N 0.50594 0.05002 0.97809 0.0
C1068 C 0.54653 1.00053 1.01021 0.0
C1069 C 0.5198 0.03431 0.98202 0.0
N1070 N 0.59233 0.0455 0.02542 0.0
N1071 N 0.47695 0.99033 0.94015 0.0
H1072 H 0.5165 0.07241 0.98564 0.0
H1073 H 0.48366 0.0408 0.97256 0.0
H1074 H 0.46437 0.96795 0.93364 0.0
H1075 H 0.46738 1.00157 0.91811 0.0
H1076 H 0.60438 0.03503 0.02668 0.0
H1077 H 0.60503 0.068 0.02812 0.0
H1078 H 0.57841 0.99249 0.05732 0.0
H1079 H 0.54739 0.96159 0.02724 0.0
C1080 C 0.15838 0.15493 0.48764 0.0
C1081 C 0.12914 0.14714 0.50182 0.0
C1082 C 0.12905 0.11375 0.60035 0.0
C1083 C 0.1589 0.1232 0.58968 0.0
N1084 N 0.20299 0.15742 0.53034 0.0
N1085 N 0.08727 0.11992 0.57744 0.0
C1086 C 0.17365 0.14492 0.53478 0.0
C1087 C 0.11484 0.12685 0.56012 0.0
N1088 N 0.17186 0.17214 0.42869 0.0
N1089 N 0.11372 0.09119 0.6469 0.0
H1090 H 0.07519 0.1264 0.5457 0.0
H1091 H 0.07673 0.10877 0.62467 0.0
H1092 H 0.12335 0.08178 0.67784 0.0
H1093 H 0.09135 0.08056 0.65153 0.0
H1094 H 0.19176 0.17602 0.40911 0.0
H1095 H 0.16201 0.18066 0.39532 0.0
H1096 H 0.2158 0.17528 0.49779 0.0
H1097 H 0.21502 0.15191 0.56526 0.0
C1098 C 0.91474 0.0517 0.49859 0.0
C1099 C 0.91094 0.04728 0.57626 0.0
C1100 C 0.88722 0.99381 0.5489 0.0
C1101 C 0.88751 0.99818 0.4712 0.0
N1102 N 0.90161 0.03242 0.37307 0.0
N1103 N 0.89283 1.01292 0.67446 0.0
C1104 C 0.90179 0.02754 0.44666 0.0
C1105 C 0.89742 0.01792 0.60087 0.0
N1106 N 0.93103 0.07945 0.47432 0.0
N1107 N 0.87694 0.96618 0.57313 0.0
H1108 H 0.90112 0.02968 0.71316 0.0
H1109 H 0.88006 0.99254 0.69712 0.0
H1110 H 0.86951 0.94862 0.53692 0.0
H1111 H 0.87797 0.96085 0.62759 0.0
H1112 H 0.93717 0.08487 0.41989 0.0
H1113 H 0.94062 0.09706 0.51052 0.0
H1114 H 0.90808 0.05265 0.35052 0.0
H1115 H 0.89369 0.01568 0.33431 0.0
C1116 C 0.04267 0.92433 0.55987 0.0
C1117 C 0.04874 0.90685 0.51072 0.0
C1118 C 1.00919 0.8636 0.57368 0.0
C1119 C 1.00135 0.88085 0.61837 0.0
N1120 N 1.0095 0.92845 0.64536 0.0
N1121 N 0.03401 0.85908 0.46589 0.0
C1122 C 1.01796 0.91147 0.60902 0.0
C1123 C 0.0307 0.87629 0.51618 0.0
N1124 N 0.06081 0.95358 0.56007 0.0
N1125 N 0.99703 0.83484 0.58897 0.0
H1126 H 0.04955 0.86747 0.42468 0.0
H1127 H 1.0198 0.83694 0.46074 0.0
H1128 H 0.9833 0.82554 0.6334 0.0
H1129 H 1.00317 0.82113 0.56407 0.0
H1130 H 0.0603 0.96743 0.59981 0.0
H1131 H 0.07744 0.96392 0.52216 0.0
H1132 H 1.01799 0.95042 0.63521 0.0
H1133 H 0.99263 0.92003 0.68309 0.0
C1134 C 0.8527 0.86338 0.61854 0.0
C1135 C 0.86879 0.84905 0.62457 0.0
C1136 C 0.87196 0.84707 0.49139 0.0
C1137 C 0.85474 0.86025 0.48521 0.0
N1138 N 0.82214 0.87359 0.54032 0.0
N1139 N 0.88645 0.81974 0.56903 0.0
C1140 C 0.8431 0.86625 0.54822 0.0
C1141 C 0.87623 0.83855 0.56156 0.0
N1142 N 0.84725 0.87472 0.67977 0.0
N1143 N 0.88513 0.84386 0.43081 0.0
H1144 H 0.88871 0.8122 0.62006 0.0
H1145 H 0.8899 0.80946 0.52461 0.0
H1146 H 0.88269 0.85038 0.37855 0.0
H1147 H 0.90031 0.83702 0.43352 0.0
H1148 H 0.83799 0.88791 0.67786 0.0
H1149 H 0.85405 0.87262 0.73214 0.0
H1150 H 0.81131 0.87632 0.58438 0.0
H1151 H 0.8134 0.87368 0.48905 0.0
C1152 C 0.2017 0.03632 0.46927 0.0
C1153 C 0.18455 1.00607 0.46161 0.0
C1154 C 0.18868 0.99908 0.5921 0.0
C1155 C 0.20488 0.02934 0.60012 0.0
N1156 N 0.23487 0.07614 0.54703 0.0
N1157 N 0.17004 0.95855 0.50747 0.0
C1158 C 0.21427 0.04777 0.53843 0.0
C1159 C 0.18075 0.98732 0.52064 0.0
N1160 N 0.20454 0.05392 0.41173 0.0
N1161 N 0.17986 0.98196 0.65292 0.0
H1162 H 0.16583 0.95012 0.45424 0.0
H1163 H 0.16839 0.94393 0.54765 0.0
H1164 H 0.18612 0.99044 0.70592 0.0
H1165 H 0.16532 0.95981 0.65093 0.0
H1166 H 0.21436 0.07634 0.41636 0.0
H1167 H 0.19533 0.04585 0.36022 0.0
H1168 H 0.24404 0.0904 0.5034 0.0
H1169 H 0.24483 0.0845 0.59765 0.0
C1170 C 0.03931 0.20375 0.60877 0.0
C1171 C 1.00956 0.19409 0.61275 0.0
C1172 C 1.00431 0.18947 0.48028 0.0
C1173 C 0.03382 0.19764 0.47621 0.0
N1174 N 0.08129 0.22158 0.53056 0.0
N1175 N 0.96615 0.18754 0.55586 0.0
C1176 C 0.05205 0.20797 0.53879 0.0
C1177 C 0.99301 0.19073 0.54913 0.0
N1178 N 0.05466 0.20697 0.67166 0.0
N1179 N 0.98677 0.17836 0.42002 0.0
H1180 H 0.95789 0.1886 0.60697 0.0
H1181 H 0.95351 0.18677 0.5112 0.0
H1182 H 0.99425 0.17614 0.36896 0.0
H1183 H 0.96442 0.16926 0.42196 0.0
H1184 H 0.07581 0.21085 0.67211 0.0
H1185 H 0.04552 0.20441 0.72364 0.0
H1186 H 0.09585 0.23126 0.57386 0.0
H1187 H 0.09086 0.22553 0.47885 0.0
C1188 C 0.83044 0.48706 0.78065 0.0
C1189 C 0.80167 0.48161 0.79046 0.0
C1190 C 0.80008 0.45431 0.90534 0.0
C1191 C 0.82969 0.46189 0.8983 0.0
N1192 N 0.87444 0.49227 0.83592 0.0
N1193 N 0.76058 0.46286 0.87043 0.0
C1194 C 0.84507 0.48001 0.8374 0.0
C1195 C 0.78704 0.46607 0.85544 0.0
N1196 N 0.84415 0.49918 0.71637 0.0
N1197 N 0.78392 0.43503 0.95833 0.0
H1198 H 0.74988 0.4695 0.83404 0.0
H1199 H 0.75001 0.45509 0.92019 0.0
H1200 H 0.79271 0.42666 0.99568 0.0
H1201 H 0.76162 0.4259 0.96212 0.0
H1202 H 0.86378 0.50095 0.70144 0.0
H1203 H 0.83448 0.50483 0.67469 0.0
H1204 H 0.88748 0.50793 0.79809 0.0
H1205 H 0.88618 0.48945 0.87786 0.0
C1206 C 0.58727 0.3781 0.83741 0.0
C1207 C 0.5857 0.36845 0.91138 0.0
C1208 C 0.56536 0.31804 0.86067 0.0
C1209 C 0.5655 0.32738 0.78701 0.0
N1210 N 0.58194 0.36746 0.70488 0.0
N1211 N 0.57982 0.32986 0.98971 0.0
C1212 C 0.57845 0.35788 0.77561 0.0
C1213 C 0.57693 0.33859 0.92128 0.0
N1214 N 0.59602 0.40661 0.82649 0.0
N1215 N 0.55262 0.28899 0.87333 0.0
H1216 H 0.58848 0.34434 0.03373 0.0
H1217 H 0.57637 0.30927 1.00141 0.0
H1218 H 0.54549 0.27381 0.83064 0.0
H1219 H 0.54803 0.27982 0.92541 0.0
H1220 H 0.59443 0.41509 0.77645 0.0
H1221 H 0.60439 0.42179 0.86912 0.0
H1222 H 0.59285 0.38917 0.69019 0.0
H1223 H 0.57572 0.35325 0.66011 0.0
C1224 C 0.66311 0.23474 0.84719 0.0
C1225 C 0.67326 0.23371 0.91934 0.0
C1226 C 0.72339 0.25799 0.86559 0.0
C1227 C 0.71302 0.2558 0.79226 0.0
N1228 N 0.67071 0.23777 0.71471 0.0
N1229 N 0.71392 0.23834 0.98908 0.0
C1230 C 0.68219 0.24285 0.78392 0.0
C1231 C 0.70371 0.24396 0.92603 0.0
N1232 N 0.6354 0.22915 0.83875 0.0
N1233 N 0.75239 0.27349 0.87824 0.0
H1234 H 0.70034 0.22591 0.03115 0.0
H1235 H 0.73506 0.24254 0.99553 0.0
H1236 H 0.76695 0.28418 0.83624 0.0
H1237 H 0.76151 0.27848 0.93072 0.0
H1238 H 0.62731 0.23249 0.78983 0.0
H1239 H 0.62129 0.22371 0.88272 0.0
H1240 H 0.64869 0.22509 0.70376 0.0
H1241 H 0.68343 0.24496 0.66788 0.0
C1242 C 0.53647 0.16454 0.8412 0.0
C1243 C 0.52684 0.17331 0.9034 0.0
C1244 C 0.50174 0.19018 0.82372 0.0
C1245 C 0.51658 0.18727 0.76307 0.0
N1246 N 0.54836 0.17215 0.71184 0.0
N1247 N 0.50109 0.1953 0.95586 0.0
C1248 C 0.53381 0.17422 0.77091 0.0
C1249 C 0.50931 0.18604 0.89538 0.0
N1250 N 0.5476 0.14659 0.84998 0.0
N1251 N 0.48007 0.19623 0.81204 0.0
H1252 H 0.50638 0.19236 1.00919 0.0
H1253 H 0.49077 0.2075 0.95277 0.0
H1254 H 0.47301 0.19709 0.75911 0.0
H1255 H 0.46712 0.19689 0.85379 0.0
H1256 H 0.55338 0.13786 0.80632 0.0
H1257 H 0.54788 0.13796 0.9011 0.0
H1258 H 0.56369 0.16554 0.71584 0.0
H1259 H 0.54626 0.17878 0.65938 0.0
C1260 C 0.89187 0.37633 0.90495 0.0
C1261 C 0.87063 0.36333 0.96027 0.0
C1262 C 0.84415 0.32047 0.88318 0.0
C1263 C 0.86091 0.33678 0.82275 0.0
N1264 N 0.91062 0.36811 0.79214 0.0
N1265 N 0.82833 0.32193 1.00713 0.0
C1266 C 0.88803 0.36126 0.83799 0.0
C1267 C 0.84748 0.33478 0.95139 0.0
N1268 N 0.91482 0.40351 0.91487 0.0
N1269 N 0.82768 0.29116 0.87702 0.0
H1270 H 0.83099 0.33197 0.05823 0.0
H1271 H 0.80935 0.30213 1.00131 0.0
H1272 H 0.82868 0.28029 0.83021 0.0
H1273 H 0.81633 0.27774 0.92065 0.0
H1274 H 0.92906 0.41514 0.87283 0.0
H1275 H 0.91864 0.41505 0.96389 0.0
H1276 H 0.93162 0.38456 0.80327 0.0
H1277 H 0.90876 0.35449 0.74845 0.0
C1278 C 0.70475 0.52898 0.91583 0.0
C1279 C 0.67473 0.51179 0.92631 0.0
C1280 C 0.66677 0.49982 0.79642 0.0
C1281 C 0.69693 0.51671 0.7855 0.0
N1282 N 0.74279 0.55553 0.82822 0.0
N1283 N 0.62684 0.49046 0.87593 0.0
C1284 C 0.71539 0.5341 0.84324 0.0
C1285 C 0.65563 0.50084 0.86572 0.0
N1286 N 0.72304 0.53884 0.97486 0.0
N1287 N 0.64918 0.48107 0.74336 0.0
H1288 H 0.61868 0.49167 0.92707 0.0
H1289 H 0.6119 0.48374 0.83288 0.0
H1290 H 0.65683 0.47772 0.69387 0.0
H1291 H 0.6273 0.46671 0.75146 0.0
H1292 H 0.74541 0.54881 0.97006 0.0
H1293 H 0.71568 0.53541 0.02888 0.0
H1294 H 0.75653 0.57014 0.86777 0.0
H1295 H 0.75045 0.5606 0.77458 0.0
C1296 C 0.46013 0.79623 0.24533 0.0
C1297 C 0.48078 0.78699 0.23348 0.0
C1298 C 0.47855 0.79744 0.09876 0.0
C1299 C 0.46093 0.8103 0.11254 0.0
N1300 N 0.43598 0.82236 0.20305 0.0
N1301 N 0.50894 0.7782 0.14587 0.0
C1302 C 0.45176 0.8093 0.18698 0.0
C1303 C 0.48936 0.78706 0.15887 0.0
N1304 N 0.44813 0.7922 0.31347 0.0
N1305 N 0.48535 0.79557 0.02748 0.0
H1306 H 0.51563 0.7692 0.18705 0.0
H1307 H 0.51901 0.78022 0.09571 0.0
H1308 H 0.47794 0.80294 0.98401 0.0
H1309 H 0.49635 0.78505 1.01059 0.0
H1310 H 0.43098 0.79553 0.32586 0.0
H1311 H 0.45362 0.78276 0.35618 0.0
H1312 H 0.432 0.82664 0.25627 0.0
H1313 H 0.42794 0.83023 0.16237 0.0
C1314 C 0.26159 0.71693 0.13783 0.0
C1315 C 0.25214 0.71003 0.21237 0.0
C1316 C 0.22608 0.65747 0.17287 0.0
C1317 C 0.23426 0.66463 0.09762 0.0
N1318 N 0.26574 0.70124 1.01386 0.0
N1319 N 0.22999 0.67253 0.30231 0.0
C1320 C 0.25391 0.69445 0.08236 0.0
C1321 C 0.23598 0.67985 0.23014 0.0
N1322 N 0.27756 0.74547 0.11937 0.0
N1323 N 0.20785 0.6291 0.18922 0.0
H1324 H 0.23719 0.68806 0.34405 0.0
H1325 H 0.22009 0.65142 0.32172 0.0
H1326 H 0.20229 0.61265 0.15047 0.0
H1327 H 0.19787 0.6218 0.23976 0.0
H1328 H 0.28227 0.75295 0.06567 0.0
H1329 H 0.28548 0.76205 0.1586 0.0
H1330 H 0.28201 0.7217 0.99863 0.0
H1331 H 0.26101 0.68546 0.97367 0.0
C1332 C 0.33023 0.54921 0.15663 0.0
C1333 C 0.33429 0.54211 0.23027 0.0
C1334 C 0.38505 0.55745 0.19362 0.0
C1335 C 0.38229 0.56769 0.12226 0.0
N1336 N 0.35137 0.57736 0.04499 0.0
N1337 N 0.36903 0.54677 0.32089 0.0
C1338 C 0.35453 0.56461 0.10648 0.0
C1339 C 0.36287 0.54888 0.2491 0.0
N1340 N 0.30281 0.54088 0.13372 0.0
N1341 N 0.40799 0.55345 0.20759 0.0
H1342 H 0.3537 0.54105 0.36222 0.0
H1343 H 0.38994 0.55395 0.34022 0.0
H1344 H 0.42309 0.55602 0.16811 0.0
H1345 H 0.40981 0.54359 0.25511 0.0
H1346 H 0.29746 0.54201 0.07917 0.0
H1347 H 0.28519 0.53135 0.16913 0.0
H1348 H 0.33283 0.57849 0.03346 0.0
H1349 H 0.36835 0.58922 1.0091 0.0
C1350 C 0.18565 0.52555 0.25548 0.0
C1351 C 0.1941 0.50446 0.26247 0.0
C1352 C 0.19208 0.49741 0.13025 0.0
C1353 C 0.18334 0.51836 0.12267 0.0
N1354 N 0.16316 0.54556 0.17742 0.0
N1355 N 0.19526 0.4634 0.21201 0.0
C1356 C 0.17728 0.53027 0.18535 0.0
C1357 C 0.19381 0.48797 0.20137 0.0
N1358 N 0.18683 0.54173 0.31508 0.0
N1359 N 0.20067 0.48812 0.07049 0.0
H1360 H 0.19514 0.45562 0.26462 0.0
H1361 H 0.19319 0.44931 0.16953 0.0
H1362 H 0.20123 0.49579 0.01759 0.0
H1363 H 0.20988 0.47491 0.07459 0.0
H1364 H 0.18385 0.55959 0.31169 0.0
H1365 H 0.19253 0.53818 0.36736 0.0
H1366 H 0.15645 0.55316 0.22167 0.0
H1367 H 0.15553 0.54795 0.12654 0.0
C1368 C 0.5364 0.70869 0.16147 0.0
C1369 C 0.52641 0.69062 0.22394 0.0
C1370 C 0.50752 0.64774 0.14628 0.0
C1371 C 0.51341 0.66566 0.084 0.0
N1372 N 0.53227 0.71252 0.02958 0.0
N1373 N 0.50003 0.64332 0.27765 0.0
C1374 C 0.52781 0.69605 0.09069 0.0
C1375 C 0.51161 0.66019 0.21703 0.0
N1376 N 0.55433 0.73778 0.17055 0.0
N1377 N 0.49823 0.61894 0.13734 0.0
H1378 H 0.50243 0.65193 0.33046 0.0
H1379 H 0.48619 0.62103 0.27499 0.0
H1380 H 0.49512 0.60919 0.08579 0.0
H1381 H 0.49603 0.60528 0.18068 0.0
H1382 H 0.56406 0.75203 0.1272 0.0
H1383 H 0.56146 0.74727 0.22229 0.0
H1384 H 0.54005 0.73473 0.03129 0.0
H1385 H 0.52648 0.70345 0.977 0.0
C1386 C 0.34671 0.86308 0.20101 0.0
C1387 C 0.34824 0.84256 0.24765 0.0
C1388 C 0.36445 0.82501 0.14589 0.0
C1389 C 0.36672 0.84783 0.10179 0.0
N1390 N 0.3673 0.8934 0.09463 0.0
N1391 N 0.36662 0.81018 0.26961 0.0
C1392 C 0.36008 0.86845 0.13135 0.0
C1393 C 0.36022 0.82586 0.22167 0.0
N1394 N 0.33112 0.87601 0.22035 0.0
N1395 N 0.36501 0.80193 0.11479 0.0
H1396 H 0.36445 0.81136 0.32636 0.0
H1397 H 0.37667 0.79856 0.25352 0.0
H1398 H 0.36565 0.79954 0.058 0.0
H1399 H 0.36135 0.78376 0.14468 0.0
H1400 H 0.32736 0.88897 0.18429 0.0
H1401 H 0.31963 0.87167 0.26911 0.0
H1402 H 0.36493 0.91007 0.11754 0.0
H1403 H 0.3784 0.89871 0.04502 0.0
loop_
_geom_bond_atom_site_label_1
_geom_bond_atom_site_label_2
_geom_bond_distance
_geom_bond_site_symmetry_2
_ccdc_geom_bond_type
C0 C1 1.351 . S
C0 N3 1.368 . S
C0 H5 0.931 . S
C1 C0 1.351 . S
C1 N2 1.373 . S
C1 H29 0.930 . S
N2 C1 1.373 . S
N2 C4 1.340 . S
N3 C0 1.368 . S
N3 C4 1.321 . S
N3 Co6 2.135 . S
C4 N2 1.340 . S
C4 N3 1.321 . S
C4 H28 0.930 . S
H5 C0 0.931 . S
Co6 N3 2.135 . S
Co6 N9 2.121 . S
Co6 O14 2.055 . S
Co6 O17 2.039 . S
Co6 N20 2.140 . S
C7 O8 1.227 . S
C7 O17 1.265 . S
O8 C7 1.227 . S
N9 Co6 2.121 . S
N9 C11 1.375 . S
N9 C12 1.313 . S
C10 C11 1.338 . S
C10 N13 1.377 . S
C10 H30 0.930 . S
C11 N9 1.375 . S
C11 C10 1.338 . S
C11 H15 0.931 . S
C12 N9 1.313 . S
C12 N13 1.344 . S
C12 H16 0.930 . S
N13 C10 1.377 . S
N13 C12 1.344 . S
O14 Co6 2.055 . S
O14 C18 1.253 . S
H15 C11 0.931 . S
H16 C12 0.930 . S
O17 Co6 2.039 . S
O17 C7 1.265 . S
C18 O14 1.253 . S
C18 O19 1.227 . S
O19 C18 1.227 . S
N20 Co6 2.140 . S
N20 C23 1.346 . S
N20 C24 1.345 . S
C21 C22 1.387 . S
C21 C25 1.391 . S
C22 C21 1.387 . S
C22 C23 1.369 . S
C22 H31 0.929 . S
C23 N20 1.346 . S
C23 C22 1.369 . S
C23 H26 0.928 . S
C24 N20 1.345 . S
C24 C25 1.371 . S
C24 H27 0.931 . S
C25 C21 1.391 . S
C25 C24 1.371 . S
C25 H32 0.930 . S
H26 C23 0.928 . S
H27 C24 0.931 . S
H28 C4 0.930 . S
H29 C1 0.930 . S
H30 C10 0.930 . S
H31 C22 0.929 . S
H32 C25 0.930 . S
C33 C34 1.351 . S
C33 N36 1.368 . S
C33 H38 0.931 . S
C34 C33 1.351 . S
C34 N35 1.373 . S
C34 H62 0.930 . S
N35 C34 1.373 . S
N35 C37 1.340 . S
N36 C33 1.368 . S
N36 C37 1.321 . S
N36 Co39 2.135 . S
C37 N35 1.340 . S
C37 N36 1.321 . S
C37 H61 0.930 . S
H38 C33 0.931 . S
Co39 N36 2.135 . S
Co39 N42 2.121 . S
Co39 O47 2.055 . S
Co39 O50 2.039 . S
Co39 N53 2.140 . S
C40 O41 1.227 . S
C40 O50 1.265 . S
O41 C40 1.227 . S
N42 Co39 2.121 . S
N42 C44 1.375 . S
N42 C45 1.313 . S
C43 C44 1.338 . S
C43 N46 1.377 . S
C43 H63 0.930 . S
C44 N42 1.375 . S
C44 C43 1.338 . S
C44 H48 0.931 . S
C45 N42 1.313 . S
C45 N46 1.344 . S
C45 H49 0.930 . S
N46 C43 1.377 . S
N46 C45 1.344 . S
O47 Co39 2.055 . S
O47 C51 1.253 . S
H48 C44 0.931 . S
H49 C45 0.930 . S
O50 Co39 2.039 . S
O50 C40 1.265 . S
C51 O47 1.253 . S
C51 O52 1.227 . S
O52 C51 1.227 . S
N53 Co39 2.140 . S
N53 C56 1.346 . S
N53 C57 1.345 . S
C54 C55 1.387 . S
C54 C58 1.391 . S
C55 C54 1.387 . S
C55 C56 1.369 . S
C55 H64 0.929 . S
C56 N53 1.346 . S
C56 C55 1.369 . S
C56 H59 0.928 . S
C57 N53 1.345 . S
C57 C58 1.371 . S
C57 H60 0.931 . S
C58 C54 1.391 . S
C58 C57 1.371 . S
C58 H65 0.930 . S
H59 C56 0.928 . S
H60 C57 0.931 . S
H61 C37 0.930 . S
H62 C34 0.930 . S
H63 C43 0.930 . S
H64 C55 0.929 . S
H65 C58 0.930 . S
C66 C67 1.351 . S
C66 N69 1.368 . S
C66 H71 0.931 . S
C67 C66 1.351 . S
C67 N68 1.373 . S
C67 H95 0.930 . S
N68 C67 1.373 . S
N68 C70 1.340 . S
N69 C66 1.368 . S
N69 C70 1.321 . S
N69 Co72 2.135 . S
C70 N68 1.340 . S
C70 N69 1.321 . S
C70 H94 0.930 . S
H71 C66 0.931 . S
Co72 N69 2.135 . S
Co72 N75 2.121 . S
Co72 O80 2.055 . S
Co72 O83 2.039 . S
Co72 N86 2.140 . S
C73 O74 1.227 . S
C73 O83 1.265 . S
O74 C73 1.227 . S
N75 Co72 2.121 . S
N75 C77 1.375 . S
N75 C78 1.313 . S
C76 C77 1.338 . S
C76 N79 1.377 . S
C76 H96 0.930 . S
C77 N75 1.375 . S
C77 C76 1.338 . S
C77 H81 0.931 . S
C78 N75 1.313 . S
C78 N79 1.344 . S
C78 H82 0.930 . S
N79 C76 1.377 . S
N79 C78 1.344 . S
O80 Co72 2.055 . S
O80 C84 1.253 . S
H81 C77 0.931 . S
H82 C78 0.930 . S
O83 Co72 2.039 . S
O83 C73 1.265 . S
C84 O80 1.253 . S
C84 O85 1.227 . S
O85 C84 1.227 . S
N86 Co72 2.140 . S
N86 C89 1.346 . S
N86 C90 1.345 . S
C87 C88 1.387 . S
C87 C91 1.391 . S
C88 C87 1.387 . S
C88 C89 1.369 . S
C88 H97 0.929 . S
C89 N86 1.346 . S
C89 C88 1.369 . S
C89 H92 0.928 . S
C90 N86 1.345 . S
C90 C91 1.371 . S
C90 H93 0.931 . S
C91 C87 1.391 . S
C91 C90 1.371 . S
C91 H98 0.930 . S
H92 C89 0.928 . S
H93 C90 0.931 . S
H94 C70 0.930 . S
H95 C67 0.930 . S
H96 C76 0.930 . S
H97 C88 0.929 . S
H98 C91 0.930 . S
C99 C100 1.351 . S
C99 N102 1.368 . S
C99 H104 0.931 . S
C100 C99 1.351 . S
C100 N101 1.373 . S
C100 H128 0.930 . S
N101 C100 1.373 . S
N101 C103 1.340 . S
N102 C99 1.368 . S
N102 C103 1.321 . S
N102 Co105 2.135 . S
C103 N101 1.340 . S
C103 N102 1.321 . S
C103 H127 0.930 . S
H104 C99 0.931 . S
Co105 N102 2.135 . S
Co105 N108 2.121 . S
Co105 O113 2.055 . S
Co105 O116 2.039 . S
Co105 N119 2.140 . S
C106 O107 1.227 . S
C106 O116 1.265 . S
O107 C106 1.227 . S
N108 Co105 2.121 . S
N108 C110 1.375 . S
N108 C111 1.313 . S
C109 C110 1.338 . S
C109 N112 1.377 . S
C109 H129 0.930 . S
C110 N108 1.375 . S
C110 C109 1.338 . S
C110 H114 0.931 . S
C111 N108 1.313 . S
C111 N112 1.344 . S
C111 H115 0.930 . S
N112 C109 1.377 . S
N112 C111 1.344 . S
O113 Co105 2.055 . S
O113 C117 1.253 . S
H114 C110 0.931 . S
H115 C111 0.930 . S
O116 Co105 2.039 . S
O116 C106 1.265 . S
C117 O113 1.253 . S
C117 O118 1.227 . S
O118 C117 1.227 . S
N119 Co105 2.140 . S
N119 C122 1.346 . S
N119 C123 1.345 . S
C120 C121 1.387 . S
C120 C124 1.391 . S
C121 C120 1.387 . S
C121 C122 1.369 . S
C121 H130 0.929 . S
C122 N119 1.346 . S
C122 C121 1.369 . S
C122 H125 0.928 . S
C123 N119 1.345 . S
C123 C124 1.371 . S
C123 H126 0.931 . S
C124 C120 1.391 . S
C124 C123 1.371 . S
C124 H131 0.930 . S
H125 C122 0.928 . S
H126 C123 0.931 . S
H127 C103 0.930 . S
H128 C100 0.930 . S
H129 C109 0.930 . S
H130 C121 0.929 . S
H131 C124 0.930 . S
C132 C133 1.351 . S
C132 N135 1.368 . S
C132 H137 0.931 . S
C133 C132 1.351 . S
C133 N134 1.373 . S
C133 H161 0.930 . S
N134 C133 1.373 . S
N134 C136 1.340 . S
N135 C132 1.368 . S
N135 C136 1.321 . S
N135 Co138 2.135 . S
C136 N134 1.340 . S
C136 N135 1.321 . S
C136 H160 0.930 . S
H137 C132 0.931 . S
Co138 N135 2.135 . S
Co138 N141 2.121 . S
Co138 O146 2.055 . S
Co138 O149 2.039 . S
Co138 N152 2.140 . S
C139 O140 1.227 . S
C139 O149 1.265 . S
O140 C139 1.227 . S
N141 Co138 2.121 . S
N141 C143 1.375 . S
N141 C144 1.313 . S
C142 C143 1.338 . S
C142 N145 1.377 . S
C142 H162 0.930 . S
C143 N141 1.375 . S
C143 C142 1.338 . S
C143 H147 0.931 . S
C144 N141 1.313 . S
C144 N145 1.344 . S
C144 H148 0.930 . S
N145 C142 1.377 . S
N145 C144 1.344 . S
O146 Co138 2.055 . S
O146 C150 1.253 . S
H147 C143 0.931 . S
H148 C144 0.930 . S
O149 Co138 2.039 . S
O149 C139 1.265 . S
C150 O146 1.253 . S
C150 O151 1.227 . S
O151 C150 1.227 . S
N152 Co138 2.140 . S
N152 C155 1.346 . S
N152 C156 1.345 . S
C153 C154 1.387 . S
C153 C157 1.391 . S
C154 C153 1.387 . S
C154 C155 1.369 . S
C154 H163 0.929 . S
C155 N152 1.346 . S
C155 C154 1.369 . S
C155 H158 0.928 . S
C156 N152 1.345 . S
C156 C157 1.371 . S
C156 H159 0.931 . S
C157 C153 1.391 . S
C157 C156 1.371 . S
C157 H164 0.930 . S
H158 C155 0.928 . S
H159 C156 0.931 . S
H160 C136 0.930 . S
H161 C133 0.930 . S
H162 C142 0.930 . S
H163 C154 0.929 . S
H164 C157 0.930 . S
C165 C166 1.351 . S
C165 N168 1.368 . S
C165 H170 0.931 . S
C166 C165 1.351 . S
C166 N167 1.373 . S
C166 H194 0.930 . S
N167 C166 1.373 . S
N167 C169 1.340 . S
N168 C165 1.368 . S
N168 C169 1.321 . S
N168 Co171 2.135 . S
C169 N167 1.340 . S
C169 N168 1.321 . S
C169 H193 0.930 . S
H170 C165 0.931 . S
Co171 N168 2.135 . S
Co171 N174 2.121 . S
Co171 O179 2.055 . S
Co171 O182 2.039 . S
Co171 N185 2.140 . S
C172 O173 1.227 . S
C172 O182 1.265 . S
O173 C172 1.227 . S
N174 Co171 2.121 . S
N174 C176 1.375 . S
N174 C177 1.313 . S
C175 C176 1.338 . S
C175 N178 1.377 . S
C175 H195 0.930 . S
C176 N174 1.375 . S
C176 C175 1.338 . S
C176 H180 0.931 . S
C177 N174 1.313 . S
C177 N178 1.344 . S
C177 H181 0.930 . S
N178 C175 1.377 . S
N178 C177 1.344 . S
O179 Co171 2.055 . S
O179 C183 1.253 . S
H180 C176 0.931 . S
H181 C177 0.930 . S
O182 Co171 2.039 . S
O182 C172 1.265 . S
C183 O179 1.253 . S
C183 O184 1.227 . S
O184 C183 1.227 . S
N185 Co171 2.140 . S
N185 C188 1.346 . S
N185 C189 1.345 . S
C186 C187 1.387 . S
C186 C190 1.391 . S
C187 C186 1.387 . S
C187 C188 1.369 . S
C187 H196 0.929 . S
C188 N185 1.346 . S
C188 C187 1.369 . S
C188 H191 0.928 . S
C189 N185 1.345 . S
C189 C190 1.371 . S
C189 H192 0.931 . S
C190 C186 1.391 . S
C190 C189 1.371 . S
C190 H197 0.930 . S
H191 C188 0.928 . S
H192 C189 0.931 . S
H193 C169 0.930 . S
H194 C166 0.930 . S
H195 C175 0.930 . S
H196 C187 0.929 . S
H197 C190 0.930 . S
C198 C199 1.351 . S
C198 N201 1.368 . S
C198 H203 0.931 . S
C199 C198 1.351 . S
C199 N200 1.373 . S
C199 H227 0.930 . S
N200 C199 1.373 . S
N200 C202 1.340 . S
N201 C198 1.368 . S
N201 C202 1.321 . S
N201 Co204 2.135 . S
C202 N200 1.340 . S
C202 N201 1.321 . S
C202 H226 0.930 . S
H203 C198 0.931 . S
Co204 N201 2.135 . S
Co204 N207 2.121 . S
Co204 O212 2.055 . S
Co204 O215 2.039 . S
Co204 N218 2.140 . S
C205 O206 1.227 . S
C205 O215 1.265 . S
O206 C205 1.227 . S
N207 Co204 2.121 . S
N207 C209 1.375 . S
N207 C210 1.313 . S
C208 C209 1.338 . S
C208 N211 1.377 . S
C208 H228 0.930 . S
C209 N207 1.375 . S
C209 C208 1.338 . S
C209 H213 0.931 . S
C210 N207 1.313 . S
C210 N211 1.344 . S
C210 H214 0.930 . S
N211 C208 1.377 . S
N211 C210 1.344 . S
O212 Co204 2.055 . S
O212 C216 1.253 . S
H213 C209 0.931 . S
H214 C210 0.930 . S
O215 Co204 2.039 . S
O215 C205 1.265 . S
C216 O212 1.253 . S
C216 O217 1.227 . S
O217 C216 1.227 . S
N218 Co204 2.140 . S
N218 C221 1.346 . S
N218 C222 1.345 . S
C219 C220 1.387 . S
C219 C223 1.391 . S
C220 C219 1.387 . S
C220 C221 1.369 . S
C220 H229 0.929 . S
C221 N218 1.346 . S
C221 C220 1.369 . S
C221 H224 0.928 . S
C222 N218 1.345 . S
C222 C223 1.371 . S
C222 H225 0.931 . S
C223 C219 1.391 . S
C223 C222 1.371 . S
C223 H230 0.930 . S
H224 C221 0.928 . S
H225 C222 0.931 . S
H226 C202 0.930 . S
H227 C199 0.930 . S
H228 C208 0.930 . S
H229 C220 0.929 . S
H230 C223 0.930 . S
C231 C232 1.351 . S
C231 N234 1.368 . S
C231 H236 0.931 . S
C232 C231 1.351 . S
C232 N233 1.373 . S
C232 H260 0.930 . S
N233 C232 1.373 . S
N233 C235 1.340 . S
N234 C231 1.368 . S
N234 C235 1.321 . S
N234 Co237 2.135 . S
C235 N233 1.340 . S
C235 N234 1.321 . S
C235 H259 0.930 . S
H236 C231 0.931 . S
Co237 N234 2.135 . S
Co237 N240 2.121 . S
Co237 O245 2.055 . S
Co237 O248 2.039 . S
Co237 N251 2.140 . S
C238 O239 1.227 . S
C238 O248 1.265 . S
O239 C238 1.227 . S
N240 Co237 2.121 . S
N240 C242 1.375 . S
N240 C243 1.313 . S
C241 C242 1.338 . S
C241 N244 1.377 . S
C241 H261 0.930 . S
C242 N240 1.375 . S
C242 C241 1.338 . S
C242 H246 0.931 . S
C243 N240 1.313 . S
C243 N244 1.344 . S
C243 H247 0.930 . S
N244 C241 1.377 . S
N244 C243 1.344 . S
O245 Co237 2.055 . S
O245 C249 1.253 . S
H246 C242 0.931 . S
H247 C243 0.930 . S
O248 Co237 2.039 . S
O248 C238 1.265 . S
C249 O245 1.253 . S
C249 O250 1.227 . S
O250 C249 1.227 . S
N251 Co237 2.140 . S
N251 C254 1.346 . S
N251 C255 1.345 . S
C252 C253 1.387 . S
C252 C256 1.391 . S
C253 C252 1.387 . S
C253 C254 1.369 . S
C253 H262 0.929 . S
C254 N251 1.346 . S
C254 C253 1.369 . S
C254 H257 0.928 . S
C255 N251 1.345 . S
C255 C256 1.371 . S
C255 H258 0.931 . S
C256 C252 1.391 . S
C256 C255 1.371 . S
C256 H263 0.930 . S
H257 C254 0.928 . S
H258 C255 0.931 . S
H259 C235 0.930 . S
H260 C232 0.930 . S
H261 C241 0.930 . S
H262 C253 0.929 . S
H263 C256 0.930 . S
C264 C265 1.351 . S
C264 N267 1.368 . S
C264 H269 0.931 . S
C265 C264 1.351 . S
C265 N266 1.373 . S
C265 H293 0.930 . S
N266 C265 1.373 . S
N266 C268 1.340 . S
N267 C264 1.368 . S
N267 C268 1.321 . S
N267 Co270 2.135 . S
C268 N266 1.340 . S
C268 N267 1.321 . S
C268 H292 0.930 . S
H269 C264 0.931 . S
Co270 N267 2.135 . S
Co270 N273 2.121 . S
Co270 O278 2.055 . S
Co270 O281 2.039 . S
Co270 N284 2.140 . S
C271 O272 1.227 . S
C271 O281 1.265 . S
O272 C271 1.227 . S
N273 Co270 2.121 . S
N273 C275 1.375 . S
N273 C276 1.313 . S
C274 C275 1.338 . S
C274 N277 1.377 . S
C274 H294 0.930 . S
C275 N273 1.375 . S
C275 C274 1.338 . S
C275 H279 0.931 . S
C276 N273 1.313 . S
C276 N277 1.344 . S
C276 H280 0.930 . S
N277 C274 1.377 . S
N277 C276 1.344 . S
O278 Co270 2.055 . S
O278 C282 1.253 . S
H279 C275 0.931 . S
H280 C276 0.930 . S
O281 Co270 2.039 . S
O281 C271 1.265 . S
C282 O278 1.253 . S
C282 O283 1.227 . S
O283 C282 1.227 . S
N284 Co270 2.140 . S
N284 C287 1.346 . S
N284 C288 1.345 . S
C285 C286 1.387 . S
C285 C289 1.391 . S
C286 C285 1.387 . S
C286 C287 1.369 . S
C286 H295 0.929 . S
C287 N284 1.346 . S
C287 C286 1.369 . S
C287 H290 0.928 . S
C288 N284 1.345 . S
C288 C289 1.371 . S
C288 H291 0.931 . S
C289 C285 1.391 . S
C289 C288 1.371 . S
C289 H296 0.930 . S
H290 C287 0.928 . S
H291 C288 0.931 . S
H292 C268 0.930 . S
H293 C265 0.930 . S
H294 C274 0.930 . S
H295 C286 0.929 . S
H296 C289 0.930 . S
C297 C298 1.351 1_554 S
C297 N300 1.368 . S
C297 H302 0.931 . S
C298 C297 1.351 1_556 S
C298 N299 1.373 . S
C298 H326 0.930 . S
N299 C298 1.373 . S
N299 C301 1.340 . S
N300 C297 1.368 . S
N300 C301 1.321 1_554 S
N300 Co303 2.135 . S
C301 N299 1.340 . S
C301 N300 1.321 1_556 S
C301 H325 0.930 . S
H302 C297 0.931 . S
Co303 N300 2.135 . S
Co303 N306 2.121 . S
Co303 O311 2.055 . S
Co303 O314 2.039 . S
Co303 N317 2.140 . S
C304 O305 1.227 . S
C304 O314 1.265 1_556 S
O305 C304 1.227 . S
N306 Co303 2.121 . S
N306 C308 1.375 . S
N306 C309 1.313 . S
C307 C308 1.338 . S
C307 N310 1.377 . S
C307 H327 0.930 . S
C308 N306 1.375 . S
C308 C307 1.338 . S
C308 H312 0.931 . S
C309 N306 1.313 . S
C309 N310 1.344 . S
C309 H313 0.930 . S
N310 C307 1.377 . S
N310 C309 1.344 . S
O311 Co303 2.055 . S
O311 C315 1.253 . S
H312 C308 0.931 . S
H313 C309 0.930 . S
O314 Co303 2.039 . S
O314 C304 1.265 1_554 S
C315 O311 1.253 . S
C315 O316 1.227 . S
O316 C315 1.227 . S
N317 Co303 2.140 . S
N317 C320 1.346 . S
N317 C321 1.345 . S
C318 C319 1.387 1_554 S
C318 C322 1.391 . S
C319 C318 1.387 1_556 S
C319 C320 1.369 1_556 S
C319 H328 0.929 . S
C320 N317 1.346 . S
C320 C319 1.369 1_554 S
C320 H323 0.928 1_554 S
C321 N317 1.345 . S
C321 C322 1.371 . S
C321 H324 0.931 . S
C322 C318 1.391 . S
C322 C321 1.371 . S
C322 H329 0.930 . S
H323 C320 0.928 1_556 S
H324 C321 0.931 . S
H325 C301 0.930 . S
H326 C298 0.930 . S
H327 C307 0.930 . S
H328 C319 0.929 . S
H329 C322 0.930 . S
C330 C331 1.351 1_554 S
C330 N333 1.368 . S
C330 H335 0.931 . S
C331 C330 1.351 1_556 S
C331 N332 1.373 . S
C331 H359 0.930 . S
N332 C331 1.373 . S
N332 C334 1.340 . S
N333 C330 1.368 . S
N333 C334 1.321 1_554 S
N333 Co336 2.135 . S
C334 N332 1.340 . S
C334 N333 1.321 1_556 S
C334 H358 0.930 . S
H335 C330 0.931 . S
Co336 N333 2.135 . S
Co336 N339 2.121 . S
Co336 O344 2.055 . S
Co336 O347 2.039 . S
Co336 N350 2.140 . S
C337 O338 1.227 . S
C337 O347 1.265 1_556 S
O338 C337 1.227 . S
N339 Co336 2.121 . S
N339 C341 1.375 . S
N339 C342 1.313 . S
C340 C341 1.338 . S
C340 N343 1.377 . S
C340 H360 0.930 . S
C341 N339 1.375 . S
C341 C340 1.338 . S
C341 H345 0.931 . S
C342 N339 1.313 . S
C342 N343 1.344 . S
C342 H346 0.930 . S
N343 C340 1.377 . S
N343 C342 1.344 . S
O344 Co336 2.055 . S
O344 C348 1.253 . S
H345 C341 0.931 . S
H346 C342 0.930 . S
O347 Co336 2.039 . S
O347 C337 1.265 1_554 S
C348 O344 1.253 . S
C348 O349 1.227 . S
O349 C348 1.227 . S
N350 Co336 2.140 . S
N350 C353 1.346 . S
N350 C354 1.345 . S
C351 C352 1.387 1_554 S
C351 C355 1.391 . S
C352 C351 1.387 1_556 S
C352 C353 1.369 1_556 S
C352 H361 0.929 . S
C353 N350 1.346 . S
C353 C352 1.369 1_554 S
C353 H356 0.928 1_554 S
C354 N350 1.345 . S
C354 C355 1.371 . S
C354 H357 0.931 . S
C355 C351 1.391 . S
C355 C354 1.371 . S
C355 H362 0.930 . S
H356 C353 0.928 1_556 S
H357 C354 0.931 . S
H358 C334 0.930 . S
H359 C331 0.930 . S
H360 C340 0.930 . S
H361 C352 0.929 . S
H362 C355 0.930 . S
C363 C364 1.351 1_554 S
C363 N366 1.368 . S
C363 H368 0.931 . S
C364 C363 1.351 1_556 S
C364 N365 1.373 . S
C364 H392 0.930 . S
N365 C364 1.373 . S
N365 C367 1.340 . S
N366 C363 1.368 . S
N366 C367 1.321 1_554 S
N366 Co369 2.135 . S
C367 N365 1.340 . S
C367 N366 1.321 1_556 S
C367 H391 0.930 . S
H368 C363 0.931 . S
Co369 N366 2.135 . S
Co369 N372 2.121 . S
Co369 O377 2.055 . S
Co369 O380 2.039 . S
Co369 N383 2.140 . S
C370 O371 1.227 . S
C370 O380 1.265 1_556 S
O371 C370 1.227 . S
N372 Co369 2.121 . S
N372 C374 1.375 . S
N372 C375 1.313 . S
C373 C374 1.338 . S
C373 N376 1.377 . S
C373 H393 0.930 . S
C374 N372 1.375 . S
C374 C373 1.338 . S
C374 H378 0.931 . S
C375 N372 1.313 . S
C375 N376 1.344 . S
C375 H379 0.930 . S
N376 C373 1.377 . S
N376 C375 1.344 . S
O377 Co369 2.055 . S
O377 C381 1.253 . S
H378 C374 0.931 . S
H379 C375 0.930 . S
O380 Co369 2.039 . S
O380 C370 1.265 1_554 S
C381 O377 1.253 . S
C381 O382 1.227 . S
O382 C381 1.227 . S
N383 Co369 2.140 . S
N383 C386 1.346 . S
N383 C387 1.345 . S
C384 C385 1.387 1_554 S
C384 C388 1.391 . S
C385 C384 1.387 1_556 S
C385 C386 1.369 1_556 S
C385 H394 0.929 . S
C386 N383 1.346 . S
C386 C385 1.369 1_554 S
C386 H389 0.928 1_554 S
C387 N383 1.345 . S
C387 C388 1.371 . S
C387 H390 0.931 . S
C388 C384 1.391 . S
C388 C387 1.371 . S
C388 H395 0.930 . S
H389 C386 0.928 1_556 S
H390 C387 0.931 . S
H391 C367 0.930 . S
H392 C364 0.930 . S
H393 C373 0.930 . S
H394 C385 0.929 . S
H395 C388 0.930 . S
C396 C397 1.351 1_556 S
C396 N399 1.368 . S
C396 H401 0.931 . S
C397 C396 1.351 1_554 S
C397 N398 1.373 . S
C397 H425 0.930 . S
N398 C397 1.373 . S
N398 C400 1.340 . S
N399 C396 1.368 . S
N399 C400 1.321 1_556 S
N399 Co402 2.135 . S
C400 N398 1.340 . S
C400 N399 1.321 1_554 S
C400 H424 0.930 . S
H401 C396 0.931 . S
Co402 N399 2.135 . S
Co402 N405 2.121 . S
Co402 O410 2.055 . S
Co402 O413 2.039 . S
Co402 N416 2.140 . S
C403 O404 1.227 . S
C403 O413 1.265 1_554 S
O404 C403 1.227 . S
N405 Co402 2.121 . S
N405 C407 1.375 . S
N405 C408 1.313 . S
C406 C407 1.338 . S
C406 N409 1.377 . S
C406 H426 0.930 . S
C407 N405 1.375 . S
C407 C406 1.338 . S
C407 H411 0.931 . S
C408 N405 1.313 . S
C408 N409 1.344 . S
C408 H412 0.930 . S
N409 C406 1.377 . S
N409 C408 1.344 . S
O410 Co402 2.055 . S
O410 C414 1.253 . S
H411 C407 0.931 . S
H412 C408 0.930 . S
O413 Co402 2.039 . S
O413 C403 1.265 1_556 S
C414 O410 1.253 . S
C414 O415 1.227 . S
O415 C414 1.227 . S
N416 Co402 2.140 . S
N416 C419 1.346 . S
N416 C420 1.345 . S
C417 C418 1.387 1_556 S
C417 C421 1.391 . S
C418 C417 1.387 1_554 S
C418 C419 1.369 1_554 S
C418 H427 0.929 . S
C419 N416 1.346 . S
C419 C418 1.369 1_556 S
C419 H422 0.928 1_556 S
C420 N416 1.345 . S
C420 C421 1.371 . S
C420 H423 0.931 . S
C421 C417 1.391 . S
C421 C420 1.371 . S
C421 H428 0.930 . S
H422 C419 0.928 1_554 S
H423 C420 0.931 . S
H424 C400 0.930 . S
H425 C397 0.930 . S
H426 C406 0.930 . S
H427 C418 0.929 . S
H428 C421 0.930 . S
C429 C430 1.351 1_556 S
C429 N432 1.368 . S
C429 H434 0.931 . S
C430 C429 1.351 1_554 S
C430 N431 1.373 . S
C430 H458 0.930 . S
N431 C430 1.373 . S
N431 C433 1.340 . S
N432 C429 1.368 . S
N432 C433 1.321 1_556 S
N432 Co435 2.135 . S
C433 N431 1.340 . S
C433 N432 1.321 1_554 S
C433 H457 0.930 . S
H434 C429 0.931 . S
Co435 N432 2.135 . S
Co435 N438 2.121 . S
Co435 O443 2.055 . S
Co435 O446 2.039 . S
Co435 N449 2.140 . S
C436 O437 1.227 . S
C436 O446 1.265 1_554 S
O437 C436 1.227 . S
N438 Co435 2.121 . S
N438 C440 1.375 . S
N438 C441 1.313 . S
C439 C440 1.338 . S
C439 N442 1.377 . S
C439 H459 0.930 . S
C440 N438 1.375 . S
C440 C439 1.338 . S
C440 H444 0.931 . S
C441 N438 1.313 . S
C441 N442 1.344 . S
C441 H445 0.930 . S
N442 C439 1.377 . S
N442 C441 1.344 . S
O443 Co435 2.055 . S
O443 C447 1.253 . S
H444 C440 0.931 . S
H445 C441 0.930 . S
O446 Co435 2.039 . S
O446 C436 1.265 1_556 S
C447 O443 1.253 . S
C447 O448 1.227 . S
O448 C447 1.227 . S
N449 Co435 2.140 . S
N449 C452 1.346 . S
N449 C453 1.345 . S
C450 C451 1.387 1_556 S
C450 C454 1.391 . S
C451 C450 1.387 1_554 S
C451 C452 1.369 1_554 S
C451 H460 0.929 . S
C452 N449 1.346 . S
C452 C451 1.369 1_556 S
C452 H455 0.928 1_556 S
C453 N449 1.345 . S
C453 C454 1.371 . S
C453 H456 0.931 . S
C454 C450 1.391 . S
C454 C453 1.371 . S
C454 H461 0.930 . S
H455 C452 0.928 1_554 S
H456 C453 0.931 . S
H457 C433 0.930 . S
H458 C430 0.930 . S
H459 C439 0.930 . S
H460 C451 0.929 . S
H461 C454 0.930 . S
C462 C463 1.351 1_556 S
C462 N465 1.368 . S
C462 H467 0.931 . S
C463 C462 1.351 1_554 S
C463 N464 1.373 . S
C463 H491 0.930 . S
N464 C463 1.373 . S
N464 C466 1.340 . S
N465 C462 1.368 . S
N465 C466 1.321 1_556 S
N465 Co468 2.135 . S
C466 N464 1.340 . S
C466 N465 1.321 1_554 S
C466 H490 0.930 . S
H467 C462 0.931 . S
Co468 N465 2.135 . S
Co468 N471 2.121 . S
Co468 O476 2.055 . S
Co468 O479 2.039 . S
Co468 N482 2.140 . S
C469 O470 1.227 . S
C469 O479 1.265 1_554 S
O470 C469 1.227 . S
N471 Co468 2.121 . S
N471 C473 1.375 . S
N471 C474 1.313 . S
C472 C473 1.338 . S
C472 N475 1.377 . S
C472 H492 0.930 . S
C473 N471 1.375 . S
C473 C472 1.338 . S
C473 H477 0.931 . S
C474 N471 1.313 . S
C474 N475 1.344 . S
C474 H478 0.930 . S
N475 C472 1.377 . S
N475 C474 1.344 . S
O476 Co468 2.055 . S
O476 C480 1.253 . S
H477 C473 0.931 . S
H478 C474 0.930 . S
O479 Co468 2.039 . S
O479 C469 1.265 1_556 S
C480 O476 1.253 . S
C480 O481 1.227 . S
O481 C480 1.227 . S
N482 Co468 2.140 . S
N482 C485 1.346 . S
N482 C486 1.345 . S
C483 C484 1.387 1_556 S
C483 C487 1.391 . S
C484 C483 1.387 1_554 S
C484 C485 1.369 1_554 S
C484 H493 0.929 . S
C485 N482 1.346 . S
C485 C484 1.369 1_556 S
C485 H488 0.928 1_556 S
C486 N482 1.345 . S
C486 C487 1.371 . S
C486 H489 0.931 . S
C487 C483 1.391 . S
C487 C486 1.371 . S
C487 H494 0.930 . S
H488 C485 0.928 1_554 S
H489 C486 0.931 . S
H490 C466 0.930 . S
H491 C463 0.930 . S
H492 C472 0.930 . S
H493 C484 0.929 . S
H494 C487 0.930 . S
C495 C496 1.351 . S
C495 N498 1.368 . S
C495 H500 0.931 . S
C496 C495 1.351 . S
C496 N497 1.373 . S
C496 H524 0.930 . S
N497 C496 1.373 . S
N497 C499 1.340 . S
N498 C495 1.368 . S
N498 C499 1.321 . S
N498 Co501 2.135 . S
C499 N497 1.340 . S
C499 N498 1.321 . S
C499 H523 0.930 . S
H500 C495 0.931 . S
Co501 N498 2.135 . S
Co501 N504 2.121 . S
Co501 O509 2.055 . S
Co501 O512 2.039 . S
Co501 N515 2.140 . S
C502 O503 1.227 . S
C502 O512 1.265 . S
O503 C502 1.227 . S
N504 Co501 2.121 . S
N504 C506 1.375 . S
N504 C507 1.313 . S
C505 C506 1.338 . S
C505 N508 1.377 . S
C505 H525 0.930 . S
C506 N504 1.375 . S
C506 C505 1.338 . S
C506 H510 0.931 . S
C507 N504 1.313 . S
C507 N508 1.344 . S
C507 H511 0.930 . S
N508 C505 1.377 . S
N508 C507 1.344 . S
O509 Co501 2.055 . S
O509 C513 1.253 . S
H510 C506 0.931 . S
H511 C507 0.930 . S
O512 Co501 2.039 . S
O512 C502 1.265 . S
C513 O509 1.253 . S
C513 O514 1.227 . S
O514 C513 1.227 . S
N515 Co501 2.140 . S
N515 C518 1.346 . S
N515 C519 1.345 . S
C516 C517 1.387 . S
C516 C520 1.391 . S
C517 C516 1.387 . S
C517 C518 1.369 . S
C517 H526 0.929 . S
C518 N515 1.346 . S
C518 C517 1.369 . S
C518 H521 0.928 . S
C519 N515 1.345 . S
C519 C520 1.371 . S
C519 H522 0.931 . S
C520 C516 1.391 . S
C520 C519 1.371 . S
C520 H527 0.930 . S
H521 C518 0.928 . S
H522 C519 0.931 . S
H523 C499 0.930 . S
H524 C496 0.930 . S
H525 C505 0.930 . S
H526 C517 0.929 . S
H527 C520 0.930 . S
C528 C529 1.351 . S
C528 N531 1.368 . S
C528 H533 0.931 . S
C529 C528 1.351 . S
C529 N530 1.373 . S
C529 H557 0.930 . S
N530 C529 1.373 . S
N530 C532 1.340 . S
N531 C528 1.368 . S
N531 C532 1.321 . S
N531 Co534 2.135 . S
C532 N530 1.340 . S
C532 N531 1.321 . S
C532 H556 0.930 . S
H533 C528 0.931 . S
Co534 N531 2.135 . S
Co534 N537 2.121 . S
Co534 O542 2.055 . S
Co534 O545 2.039 . S
Co534 N548 2.140 . S
C535 O536 1.227 . S
C535 O545 1.265 . S
O536 C535 1.227 . S
N537 Co534 2.121 . S
N537 C539 1.375 . S
N537 C540 1.313 . S
C538 C539 1.338 . S
C538 N541 1.377 . S
C538 H558 0.930 . S
C539 N537 1.375 . S
C539 C538 1.338 . S
C539 H543 0.931 . S
C540 N537 1.313 . S
C540 N541 1.344 . S
C540 H544 0.930 . S
N541 C538 1.377 . S
N541 C540 1.344 . S
O542 Co534 2.055 . S
O542 C546 1.253 . S
H543 C539 0.931 . S
H544 C540 0.930 . S
O545 Co534 2.039 . S
O545 C535 1.265 . S
C546 O542 1.253 . S
C546 O547 1.227 . S
O547 C546 1.227 . S
N548 Co534 2.140 . S
N548 C551 1.346 . S
N548 C552 1.345 . S
C549 C550 1.387 . S
C549 C553 1.391 . S
C550 C549 1.387 . S
C550 C551 1.369 . S
C550 H559 0.929 . S
C551 N548 1.346 . S
C551 C550 1.369 . S
C551 H554 0.928 . S
C552 N548 1.345 . S
C552 C553 1.371 . S
C552 H555 0.931 . S
C553 C549 1.391 . S
C553 C552 1.371 . S
C553 H560 0.930 . S
H554 C551 0.928 . S
H555 C552 0.931 . S
H556 C532 0.930 . S
H557 C529 0.930 . S
H558 C538 0.930 . S
H559 C550 0.929 . S
H560 C553 0.930 . S
C561 C562 1.351 . S
C561 N564 1.368 . S
C561 H566 0.931 . S
C562 C561 1.351 . S
C562 N563 1.373 . S
C562 H590 0.930 . S
N563 C562 1.373 . S
N563 C565 1.340 . S
N564 C561 1.368 . S
N564 C565 1.321 . S
N564 Co567 2.135 . S
C565 N563 1.340 . S
C565 N564 1.321 . S
C565 H589 0.930 . S
H566 C561 0.931 . S
Co567 N564 2.135 . S
Co567 N570 2.121 . S
Co567 O575 2.055 . S
Co567 O578 2.039 . S
Co567 N581 2.140 . S
C568 O569 1.227 . S
C568 O578 1.265 . S
O569 C568 1.227 . S
N570 Co567 2.121 . S
N570 C572 1.375 . S
N570 C573 1.313 . S
C571 C572 1.338 . S
C571 N574 1.377 . S
C571 H591 0.930 . S
C572 N570 1.375 . S
C572 C571 1.338 . S
C572 H576 0.931 . S
C573 N570 1.313 . S
C573 N574 1.344 . S
C573 H577 0.930 . S
N574 C571 1.377 . S
N574 C573 1.344 . S
O575 Co567 2.055 . S
O575 C579 1.253 . S
H576 C572 0.931 . S
H577 C573 0.930 . S
O578 Co567 2.039 . S
O578 C568 1.265 . S
C579 O575 1.253 . S
C579 O580 1.227 . S
O580 C579 1.227 . S
N581 Co567 2.140 . S
N581 C584 1.346 . S
N581 C585 1.345 . S
C582 C583 1.387 . S
C582 C586 1.391 . S
C583 C582 1.387 . S
C583 C584 1.369 . S
C583 H592 0.929 . S
C584 N581 1.346 . S
C584 C583 1.369 . S
C584 H587 0.928 . S
C585 N581 1.345 . S
C585 C586 1.371 . S
C585 H588 0.931 . S
C586 C582 1.391 . S
C586 C585 1.371 . S
C586 H593 0.930 . S
H587 C584 0.928 . S
H588 C585 0.931 . S
H589 C565 0.930 . S
H590 C562 0.930 . S
H591 C571 0.930 . S
H592 C583 0.929 . S
H593 C586 0.930 . S
C594 C595 1.363 . S
C594 C600 1.379 1_556 S
C594 N602 1.356 . S
C595 C594 1.363 . S
C595 C601 1.363 . S
C596 C597 1.363 . S
C596 C601 1.379 1_554 S
C596 N603 1.356 . S
C597 C596 1.363 . S
C597 C600 1.363 . S
N598 C600 1.356 . S
N598 H610 0.984 . S
N598 H611 0.985 . S
N599 C601 1.356 . S
N599 H604 0.984 . S
N599 H605 0.985 . S
C600 C594 1.379 1_554 S
C600 C597 1.363 . S
C600 N598 1.356 . S
C601 C595 1.363 . S
C601 C596 1.379 1_556 S
C601 N599 1.356 . S
N602 C594 1.356 . S
N602 H608 0.984 . S
N602 H609 0.984 . S
N603 C596 1.356 . S
N603 H606 0.984 . S
N603 H607 0.985 . S
H604 N599 0.984 . S
H605 N599 0.985 . S
H606 N603 0.984 . S
H607 N603 0.985 . S
H608 N602 0.984 . S
H609 N602 0.984 . S
H610 N598 0.984 . S
H611 N598 0.985 . S
C612 C613 1.327 1_565 S
C612 C618 1.413 . S
C612 N620 1.347 1_565 S
C613 C612 1.327 1_545 S
C613 C619 1.363 1_556 S
C614 C615 1.328 1_545 S
C614 C619 1.412 . S
C614 N621 1.347 1_545 S
C615 C614 1.328 1_565 S
C615 C618 1.363 1_554 S
N616 C618 1.356 . S
N616 H628 0.984 . S
N616 H629 0.985 . S
N617 C619 1.356 . S
N617 H622 0.984 . S
N617 H623 0.985 . S
C618 C612 1.413 . S
C618 C615 1.363 1_556 S
C618 N616 1.356 . S
C619 C613 1.363 1_554 S
C619 C614 1.412 . S
C619 N617 1.356 . S
N620 C612 1.347 1_545 S
N620 H626 0.984 1_545 S
N620 H627 0.984 . S
N621 C614 1.347 1_565 S
N621 H624 0.984 . S
N621 H625 0.985 1_565 S
H622 N617 0.984 . S
H623 N617 0.985 . S
H624 N621 0.984 . S
H625 N621 0.985 1_545 S
H626 N620 0.984 1_565 S
H627 N620 0.984 . S
H628 N616 0.984 . S
H629 N616 0.985 . S
C630 C631 1.363 1_556 S
C630 C636 1.379 1_455 S
C630 N638 1.356 1_556 S
C631 C630 1.363 1_554 S
C631 C637 1.363 . S
C632 C633 1.363 1_554 S
C632 C637 1.379 1_655 S
C632 N639 1.356 1_554 S
C633 C632 1.363 1_556 S
C633 C636 1.363 . S
N634 C636 1.356 . S
N634 H646 0.984 . S
N634 H647 0.985 . S
N635 C637 1.356 . S
N635 H640 0.984 . S
N635 H641 0.985 . S
C636 C630 1.379 1_655 S
C636 C633 1.363 . S
C636 N634 1.356 . S
C637 C631 1.363 . S
C637 C632 1.379 1_455 S
C637 N635 1.356 . S
N638 C630 1.356 1_554 S
N638 H644 0.984 1_554 S
N638 H645 0.984 . S
N639 C632 1.356 1_556 S
N639 H642 0.984 . S
N639 H643 0.985 1_556 S
H640 N635 0.984 . S
H641 N635 0.985 . S
H642 N639 0.984 . S
H643 N639 0.985 1_554 S
H644 N638 0.984 1_556 S
H645 N638 0.984 . S
H646 N634 0.984 . S
H647 N634 0.985 . S
C648 C649 1.363 1_556 S
C648 C654 1.379 . S
C648 N656 1.356 1_556 S
C649 C648 1.363 1_554 S
C649 C655 1.363 . S
C650 C651 1.363 1_554 S
C650 C655 1.379 . S
C650 N657 1.356 1_554 S
C651 C650 1.363 1_556 S
C651 C654 1.363 . S
N652 C654 1.356 . S
N652 H664 0.984 . S
N652 H665 0.985 . S
N653 C655 1.356 . S
N653 H658 0.984 . S
N653 H659 0.985 . S
C654 C648 1.379 . S
C654 C651 1.363 . S
C654 N652 1.356 . S
C655 C649 1.363 . S
C655 C650 1.379 . S
C655 N653 1.356 . S
N656 C648 1.356 1_554 S
N656 H662 0.984 1_554 S
N656 H663 0.984 . S
N657 C650 1.356 1_556 S
N657 H660 0.984 . S
N657 H661 0.985 1_556 S
H658 N653 0.984 . S
H659 N653 0.985 . S
H660 N657 0.984 . S
H661 N657 0.985 1_554 S
H662 N656 0.984 1_556 S
H663 N656 0.984 . S
H664 N652 0.984 . S
H665 N652 0.985 . S
C666 C667 1.363 1_565 S
C666 C672 1.379 . S
C666 N674 1.356 . S
C667 C666 1.363 1_545 S
C667 C673 1.363 1_556 S
C668 C669 1.363 1_545 S
C668 C673 1.379 . S
C668 N675 1.356 . S
C669 C668 1.363 1_565 S
C669 C672 1.363 1_554 S
N670 C672 1.356 1_554 S
N670 H682 0.984 1_554 S
N670 H683 0.985 . S
N671 C673 1.356 1_556 S
N671 H676 0.984 . S
N671 H677 0.985 1_556 S
C672 C666 1.379 . S
C672 C669 1.363 1_556 S
C672 N670 1.356 1_556 S
C673 C667 1.363 1_554 S
C673 C668 1.379 . S
C673 N671 1.356 1_554 S
N674 C666 1.356 . S
N674 H680 0.984 . S
N674 H681 0.984 1_565 S
N675 C668 1.356 . S
N675 H678 0.984 1_545 S
N675 H679 0.985 . S
H676 N671 0.984 . S
H677 N671 0.985 1_554 S
H678 N675 0.984 1_565 S
H679 N675 0.985 . S
H680 N674 0.984 . S
H681 N674 0.984 1_545 S
H682 N670 0.984 1_556 S
H683 N670 0.985 . S
C684 C685 1.363 1_455 S
C684 C690 1.379 . S
C684 N692 1.356 . S
C685 C684 1.363 1_655 S
C685 C691 1.363 1_556 S
C686 C687 1.363 1_655 S
C686 C691 1.379 . S
C686 N693 1.356 . S
C687 C686 1.363 1_455 S
C687 C690 1.363 1_554 S
N688 C690 1.356 . S
N688 H700 0.984 . S
N688 H701 0.985 1_556 S
N689 C691 1.356 . S
N689 H694 0.984 1_554 S
N689 H695 0.985 . S
C690 C684 1.379 . S
C690 C687 1.363 1_556 S
C690 N688 1.356 . S
C691 C685 1.363 1_554 S
C691 C686 1.379 . S
C691 N689 1.356 . S
N692 C684 1.356 . S
N692 H698 0.984 . S
N692 H699 0.984 1_455 S
N693 C686 1.356 . S
N693 H696 0.984 1_655 S
N693 H697 0.985 . S
H694 N689 0.984 1_556 S
H695 N689 0.985 . S
H696 N693 0.984 1_455 S
H697 N693 0.985 . S
H698 N692 0.984 . S
H699 N692 0.984 1_655 S
H700 N688 0.984 . S
H701 N688 0.985 1_554 S
C702 C703 1.363 . S
C702 C708 1.379 . S
C702 N710 1.356 . S
C703 C702 1.363 . S
C703 C709 1.363 . S
C704 C705 1.363 . S
C704 C709 1.379 . S
C704 N711 1.356 . S
C705 C704 1.363 . S
C705 C708 1.363 . S
N706 C708 1.356 . S
N706 H718 0.984 . S
N706 H719 0.985 . S
N707 C709 1.356 . S
N707 H712 0.984 . S
N707 H713 0.985 . S
C708 C702 1.379 . S
C708 C705 1.363 . S
C708 N706 1.356 . S
C709 C703 1.363 . S
C709 C704 1.379 . S
C709 N707 1.356 . S
N710 C702 1.356 . S
N710 H716 0.984 . S
N710 H717 0.984 . S
N711 C704 1.356 . S
N711 H714 0.984 . S
N711 H715 0.985 . S
H712 N707 0.984 . S
H713 N707 0.985 . S
H714 N711 0.984 . S
H715 N711 0.985 . S
H716 N710 0.984 . S
H717 N710 0.984 . S
H718 N706 0.984 . S
H719 N706 0.985 . S
C720 C721 1.363 . S
C720 C726 1.379 . S
C720 N728 1.356 . S
C721 C720 1.363 . S
C721 C727 1.363 . S
C722 C723 1.363 . S
C722 C727 1.379 . S
C722 N729 1.356 . S
C723 C722 1.363 . S
C723 C726 1.363 . S
N724 C726 1.356 . S
N724 H736 0.984 . S
N724 H737 0.985 . S
N725 C727 1.356 . S
N725 H730 0.984 . S
N725 H731 0.985 . S
C726 C720 1.379 . S
C726 C723 1.363 . S
C726 N724 1.356 . S
C727 C721 1.363 . S
C727 C722 1.379 . S
C727 N725 1.356 . S
N728 C720 1.356 . S
N728 H734 0.984 . S
N728 H735 0.984 . S
N729 C722 1.356 . S
N729 H732 0.984 . S
N729 H733 0.985 . S
H730 N725 0.984 . S
H731 N725 0.985 . S
H732 N729 0.984 . S
H733 N729 0.985 . S
H734 N728 0.984 . S
H735 N728 0.984 . S
H736 N724 0.984 . S
H737 N724 0.985 . S
C738 C739 1.363 . S
C738 C744 1.379 . S
C738 N746 1.356 . S
C739 C738 1.363 . S
C739 C745 1.363 . S
C740 C741 1.363 . S
C740 C745 1.379 . S
C740 N747 1.356 . S
C741 C740 1.363 . S
C741 C744 1.363 . S
N742 C744 1.356 . S
N742 H754 0.984 . S
N742 H755 0.985 . S
N743 C745 1.356 . S
N743 H748 0.984 . S
N743 H749 0.985 . S
C744 C738 1.379 . S
C744 C741 1.363 . S
C744 N742 1.356 . S
C745 C739 1.363 . S
C745 C740 1.379 . S
C745 N743 1.356 . S
N746 C738 1.356 . S
N746 H752 0.984 . S
N746 H753 0.984 . S
N747 C740 1.356 . S
N747 H750 0.984 . S
N747 H751 0.985 . S
H748 N743 0.984 . S
H749 N743 0.985 . S
H750 N747 0.984 . S
H751 N747 0.985 . S
H752 N746 0.984 . S
H753 N746 0.984 . S
H754 N742 0.984 . S
H755 N742 0.985 . S
C756 C757 1.363 . S
C756 C762 1.379 . S
C756 N764 1.356 . S
C757 C756 1.363 . S
C757 C763 1.363 . S
C758 C759 1.363 . S
C758 C763 1.379 . S
C758 N765 1.356 . S
C759 C758 1.363 . S
C759 C762 1.363 . S
N760 C762 1.356 . S
N760 H772 0.984 . S
N760 H773 0.985 . S
N761 C763 1.356 . S
N761 H766 0.984 . S
N761 H767 0.985 . S
C762 C756 1.379 . S
C762 C759 1.363 . S
C762 N760 1.356 . S
C763 C757 1.363 . S
C763 C758 1.379 . S
C763 N761 1.356 . S
N764 C756 1.356 . S
N764 H770 0.984 . S
N764 H771 0.984 . S
N765 C758 1.356 . S
N765 H768 0.984 . S
N765 H769 0.985 . S
H766 N761 0.984 . S
H767 N761 0.985 . S
H768 N765 0.984 . S
H769 N765 0.985 . S
H770 N764 0.984 . S
H771 N764 0.984 . S
H772 N760 0.984 . S
H773 N760 0.985 . S
C774 C775 1.363 . S
C774 C780 1.379 . S
C774 N782 1.356 . S
C775 C774 1.363 . S
C775 C781 1.363 . S
C776 C777 1.363 . S
C776 C781 1.379 . S
C776 N783 1.356 . S
C777 C776 1.363 . S
C777 C780 1.363 . S
N778 C780 1.356 . S
N778 H790 0.984 . S
N778 H791 0.985 . S
N779 C781 1.356 . S
N779 H784 0.984 . S
N779 H785 0.985 . S
C780 C774 1.379 . S
C780 C777 1.363 . S
C780 N778 1.356 . S
C781 C775 1.363 . S
C781 C776 1.379 . S
C781 N779 1.356 . S
N782 C774 1.356 . S
N782 H788 0.984 . S
N782 H789 0.984 . S
N783 C776 1.356 . S
N783 H786 0.984 . S
N783 H787 0.985 . S
H784 N779 0.984 . S
H785 N779 0.985 . S
H786 N783 0.984 . S
H787 N783 0.985 . S
H788 N782 0.984 . S
H789 N782 0.984 . S
H790 N778 0.984 . S
H791 N778 0.985 . S
C792 C793 1.363 . S
C792 C798 1.379 . S
C792 N800 1.356 . S
C793 C792 1.363 . S
C793 C799 1.363 . S
C794 C795 1.363 . S
C794 C799 1.379 . S
C794 N801 1.356 . S
C795 C794 1.363 . S
C795 C798 1.363 . S
N796 C798 1.356 . S
N796 H808 0.984 . S
N796 H809 0.985 . S
N797 C799 1.356 . S
N797 H802 0.984 . S
N797 H803 0.985 . S
C798 C792 1.379 . S
C798 C795 1.363 . S
C798 N796 1.356 . S
C799 C793 1.363 . S
C799 C794 1.379 . S
C799 N797 1.356 . S
N800 C792 1.356 . S
N800 H806 0.984 . S
N800 H807 0.984 . S
N801 C794 1.356 . S
N801 H804 0.984 . S
N801 H805 0.985 . S
H802 N797 0.984 . S
H803 N797 0.985 . S
H804 N801 0.984 . S
H805 N801 0.985 . S
H806 N800 0.984 . S
H807 N800 0.984 . S
H808 N796 0.984 . S
H809 N796 0.985 . S
C810 C811 1.363 . S
C810 C816 1.379 . S
C810 N818 1.356 . S
C811 C810 1.363 . S
C811 C817 1.363 . S
C812 C813 1.363 . S
C812 C817 1.379 . S
C812 N819 1.356 . S
C813 C812 1.363 . S
C813 C816 1.363 . S
N814 C816 1.356 . S
N814 H826 0.984 . S
N814 H827 0.985 . S
N815 C817 1.356 . S
N815 H820 0.984 . S
N815 H821 0.985 . S
C816 C810 1.379 . S
C816 C813 1.363 . S
C816 N814 1.356 . S
C817 C811 1.363 . S
C817 C812 1.379 . S
C817 N815 1.356 . S
N818 C810 1.356 . S
N818 H824 0.984 . S
N818 H825 0.984 . S
N819 C812 1.356 . S
N819 H822 0.984 . S
N819 H823 0.985 . S
H820 N815 0.984 . S
H821 N815 0.985 . S
H822 N819 0.984 . S
H823 N819 0.985 . S
H824 N818 0.984 . S
H825 N818 0.984 . S
H826 N814 0.984 . S
H827 N814 0.985 . S
C828 C829 1.363 . S
C828 C834 1.379 . S
C828 N836 1.356 . S
C829 C828 1.363 . S
C829 C835 1.363 . S
C830 C831 1.363 . S
C830 C835 1.379 . S
C830 N837 1.356 . S
C831 C830 1.363 . S
C831 C834 1.363 . S
N832 C834 1.356 . S
N832 H844 0.984 . S
N832 H845 0.985 . S
N833 C835 1.356 . S
N833 H838 0.984 . S
N833 H839 0.985 . S
C834 C828 1.379 . S
C834 C831 1.363 . S
C834 N832 1.356 . S
C835 C829 1.363 . S
C835 C830 1.379 . S
C835 N833 1.356 . S
N836 C828 1.356 . S
N836 H842 0.984 . S
N836 H843 0.984 . S
N837 C830 1.356 . S
N837 H840 0.984 . S
N837 H841 0.985 . S
H838 N833 0.984 . S
H839 N833 0.985 . S
H840 N837 0.984 . S
H841 N837 0.985 . S
H842 N836 0.984 . S
H843 N836 0.984 . S
H844 N832 0.984 . S
H845 N832 0.985 . S
C846 C847 1.363 . S
C846 C852 1.379 . S
C846 N854 1.356 . S
C847 C846 1.363 . S
C847 C853 1.363 . S
C848 C849 1.363 . S
C848 C853 1.379 . S
C848 N855 1.356 . S
C849 C848 1.363 . S
C849 C852 1.363 . S
N850 C852 1.356 . S
N850 H862 0.984 . S
N850 H863 0.985 . S
N851 C853 1.356 . S
N851 H856 0.984 . S
N851 H857 0.985 . S
C852 C846 1.379 . S
C852 C849 1.363 . S
C852 N850 1.356 . S
C853 C847 1.363 . S
C853 C848 1.379 . S
C853 N851 1.356 . S
N854 C846 1.356 . S
N854 H860 0.984 . S
N854 H861 0.984 . S
N855 C848 1.356 . S
N855 H858 0.984 . S
N855 H859 0.985 . S
H856 N851 0.984 . S
H857 N851 0.985 . S
H858 N855 0.984 . S
H859 N855 0.985 . S
H860 N854 0.984 . S
H861 N854 0.984 . S
H862 N850 0.984 . S
H863 N850 0.985 . S
C864 C865 1.363 . S
C864 C870 1.379 . S
C864 N872 1.356 . S
C865 C864 1.363 . S
C865 C871 1.363 . S
C866 C867 1.363 . S
C866 C871 1.379 . S
C866 N873 1.356 . S
C867 C866 1.363 . S
C867 C870 1.363 . S
N868 C870 1.356 . S
N868 H880 0.984 . S
N868 H881 0.985 . S
N869 C871 1.356 . S
N869 H874 0.984 . S
N869 H875 0.985 . S
C870 C864 1.379 . S
C870 C867 1.363 . S
C870 N868 1.356 . S
C871 C865 1.363 . S
C871 C866 1.379 . S
C871 N869 1.356 . S
N872 C864 1.356 . S
N872 H878 0.984 . S
N872 H879 0.984 . S
N873 C866 1.356 . S
N873 H876 0.984 . S
N873 H877 0.985 . S
H874 N869 0.984 . S
H875 N869 0.985 . S
H876 N873 0.984 . S
H877 N873 0.985 . S
H878 N872 0.984 . S
H879 N872 0.984 . S
H880 N868 0.984 . S
H881 N868 0.985 . S
C882 C883 1.363 . S
C882 C888 1.379 . S
C882 N890 1.356 . S
C883 C882 1.363 . S
C883 C889 1.363 . S
C884 C885 1.363 . S
C884 C889 1.379 . S
C884 N891 1.356 . S
C885 C884 1.363 . S
C885 C888 1.363 . S
N886 C888 1.356 . S
N886 H898 0.984 . S
N886 H899 0.985 . S
N887 C889 1.356 . S
N887 H892 0.984 . S
N887 H893 0.985 . S
C888 C882 1.379 . S
C888 C885 1.363 . S
C888 N886 1.356 . S
C889 C883 1.363 . S
C889 C884 1.379 . S
C889 N887 1.356 . S
N890 C882 1.356 . S
N890 H896 0.984 . S
N890 H897 0.984 . S
N891 C884 1.356 . S
N891 H894 0.984 . S
N891 H895 0.985 . S
H892 N887 0.984 . S
H893 N887 0.985 . S
H894 N891 0.984 . S
H895 N891 0.985 . S
H896 N890 0.984 . S
H897 N890 0.984 . S
H898 N886 0.984 . S
H899 N886 0.985 . S
C900 C901 1.363 . S
C900 C906 1.379 . S
C900 N908 1.356 . S
C901 C900 1.363 . S
C901 C907 1.363 . S
C902 C903 1.363 . S
C902 C907 1.379 . S
C902 N909 1.356 . S
C903 C902 1.363 . S
C903 C906 1.363 . S
N904 C906 1.356 . S
N904 H916 0.984 . S
N904 H917 0.985 . S
N905 C907 1.356 . S
N905 H910 0.984 . S
N905 H911 0.985 . S
C906 C900 1.379 . S
C906 C903 1.363 . S
C906 N904 1.356 . S
C907 C901 1.363 . S
C907 C902 1.379 . S
C907 N905 1.356 . S
N908 C900 1.356 . S
N908 H914 0.984 . S
N908 H915 0.984 . S
N909 C902 1.356 . S
N909 H912 0.984 . S
N909 H913 0.985 . S
H910 N905 0.984 . S
H911 N905 0.985 . S
H912 N909 0.984 . S
H913 N909 0.985 . S
H914 N908 0.984 . S
H915 N908 0.984 . S
H916 N904 0.984 . S
H917 N904 0.985 . S
C918 C919 1.363 . S
C918 C924 1.379 . S
C918 N926 1.356 . S
C919 C918 1.363 . S
C919 C925 1.363 . S
C920 C921 1.363 . S
C920 C925 1.379 . S
C920 N927 1.356 . S
C921 C920 1.363 . S
C921 C924 1.363 . S
N922 C924 1.356 . S
N922 H934 0.984 . S
N922 H935 0.985 . S
N923 C925 1.356 . S
N923 H928 0.984 . S
N923 H929 0.985 . S
C924 C918 1.379 . S
C924 C921 1.363 . S
C924 N922 1.356 . S
C925 C919 1.363 . S
C925 C920 1.379 . S
C925 N923 1.356 . S
N926 C918 1.356 . S
N926 H932 0.984 . S
N926 H933 0.984 . S
N927 C920 1.356 . S
N927 H930 0.984 . S
N927 H931 0.985 . S
H928 N923 0.984 . S
H929 N923 0.985 . S
H930 N927 0.984 . S
H931 N927 0.985 . S
H932 N926 0.984 . S
H933 N926 0.984 . S
H934 N922 0.984 . S
H935 N922 0.985 . S
C936 C937 1.363 . S
C936 C942 1.379 . S
C936 N944 1.356 . S
C937 C936 1.363 . S
C937 C943 1.363 . S
C938 C939 1.363 . S
C938 C943 1.379 . S
C938 N945 1.356 . S
C939 C938 1.363 . S
C939 C942 1.363 . S
N940 C942 1.356 . S
N940 H952 0.984 . S
N940 H953 0.985 . S
N941 C943 1.356 . S
N941 H946 0.984 . S
N941 H947 0.985 . S
C942 C936 1.379 . S
C942 C939 1.363 . S
C942 N940 1.356 . S
C943 C937 1.363 . S
C943 C938 1.379 . S
C943 N941 1.356 . S
N944 C936 1.356 . S
N944 H950 0.984 . S
N944 H951 0.984 . S
N945 C938 1.356 . S
N945 H948 0.984 . S
N945 H949 0.985 . S
H946 N941 0.984 . S
H947 N941 0.985 . S
H948 N945 0.984 . S
H949 N945 0.985 . S
H950 N944 0.984 . S
H951 N944 0.984 . S
H952 N940 0.984 . S
H953 N940 0.985 . S
C954 C955 1.363 . S
C954 C960 1.379 . S
C954 N962 1.356 . S
C955 C954 1.363 . S
C955 C961 1.363 . S
C956 C957 1.363 . S
C956 C961 1.379 . S
C956 N963 1.356 . S
C957 C956 1.363 . S
C957 C960 1.363 . S
N958 C960 1.356 . S
N958 H970 0.984 . S
N958 H971 0.985 . S
N959 C961 1.356 . S
N959 H964 0.984 . S
N959 H965 0.985 . S
C960 C954 1.379 . S
C960 C957 1.363 . S
C960 N958 1.356 . S
C961 C955 1.363 . S
C961 C956 1.379 . S
C961 N959 1.356 . S
N962 C954 1.356 . S
N962 H968 0.984 . S
N962 H969 0.984 . S
N963 C956 1.356 . S
N963 H966 0.984 . S
N963 H967 0.985 . S
H964 N959 0.984 . S
H965 N959 0.985 . S
H966 N963 0.984 . S
H967 N963 0.985 . S
H968 N962 0.984 . S
H969 N962 0.984 . S
H970 N958 0.984 . S
H971 N958 0.985 . S
C972 C973 1.363 . S
C972 C978 1.379 . S
C972 N980 1.356 . S
C973 C972 1.363 . S
C973 C979 1.363 . S
C974 C975 1.363 . S
C974 C979 1.379 . S
C974 N981 1.356 . S
C975 C974 1.363 . S
C975 C978 1.363 . S
N976 C978 1.356 . S
N976 H988 0.984 . S
N976 H989 0.985 . S
N977 C979 1.356 . S
N977 H982 0.984 . S
N977 H983 0.985 . S
C978 C972 1.379 . S
C978 C975 1.363 . S
C978 N976 1.356 . S
C979 C973 1.363 . S
C979 C974 1.379 . S
C979 N977 1.356 . S
N980 C972 1.356 . S
N980 H986 0.984 . S
N980 H987 0.984 . S
N981 C974 1.356 . S
N981 H984 0.984 . S
N981 H985 0.985 . S
H982 N977 0.984 . S
H983 N977 0.985 . S
H984 N981 0.984 . S
H985 N981 0.985 . S
H986 N980 0.984 . S
H987 N980 0.984 . S
H988 N976 0.984 . S
H989 N976 0.985 . S
C990 C991 1.363 . S
C990 C996 1.379 . S
C990 N998 1.356 . S
C991 C990 1.363 . S
C991 C997 1.363 . S
C992 C993 1.363 . S
C992 C997 1.379 . S
C992 N999 1.356 . S
C993 C992 1.363 . S
C993 C996 1.363 . S
N994 C996 1.356 . S
N994 H1006 0.984 . S
N994 H1007 0.985 . S
N995 C997 1.356 . S
N995 H1000 0.984 . S
N995 H1001 0.985 . S
C996 C990 1.379 . S
C996 C993 1.363 . S
C996 N994 1.356 . S
C997 C991 1.363 . S
C997 C992 1.379 . S
C997 N995 1.356 . S
N998 C990 1.356 . S
N998 H1004 0.984 . S
N998 H1005 0.984 . S
N999 C992 1.356 . S
N999 H1002 0.984 . S
N999 H1003 0.985 . S
H1000 N995 0.984 . S
H1001 N995 0.985 . S
H1002 N999 0.984 . S
H1003 N999 0.985 . S
H1004 N998 0.984 . S
H1005 N998 0.984 . S
H1006 N994 0.984 . S
H1007 N994 0.985 . S
C1008 C1009 1.363 . S
C1008 C1014 1.379 . S
C1008 N1016 1.356 . S
C1009 C1008 1.363 . S
C1009 C1015 1.363 . S
C1010 C1011 1.363 . S
C1010 C1015 1.379 . S
C1010 N1017 1.356 . S
C1011 C1010 1.363 . S
C1011 C1014 1.363 . S
N1012 C1014 1.356 . S
N1012 H1024 0.984 . S
N1012 H1025 0.985 . S
N1013 C1015 1.356 . S
N1013 H1018 0.984 . S
N1013 H1019 0.985 . S
C1014 C1008 1.379 . S
C1014 C1011 1.363 . S
C1014 N1012 1.356 . S
C1015 C1009 1.363 . S
C1015 C1010 1.379 . S
C1015 N1013 1.356 . S
N1016 C1008 1.356 . S
N1016 H1022 0.984 . S
N1016 H1023 0.984 . S
N1017 C1010 1.356 . S
N1017 H1020 0.984 . S
N1017 H1021 0.985 . S
H1018 N1013 0.984 . S
H1019 N1013 0.985 . S
H1020 N1017 0.984 . S
H1021 N1017 0.985 . S
H1022 N1016 0.984 . S
H1023 N1016 0.984 . S
H1024 N1012 0.984 . S
H1025 N1012 0.985 . S
C1026 C1027 1.363 1_554 S
C1026 C1032 1.379 1_455 S
C1026 N1034 1.356 . S
C1027 C1026 1.363 1_556 S
C1027 C1033 1.363 . S
C1028 C1029 1.363 1_556 S
C1028 C1033 1.379 1_655 S
C1028 N1035 1.356 . S
C1029 C1028 1.363 1_554 S
C1029 C1032 1.363 . S
N1030 C1032 1.356 . S
N1030 H1042 0.984 . S
N1030 H1043 0.985 . S
N1031 C1033 1.356 . S
N1031 H1036 0.984 . S
N1031 H1037 0.985 . S
C1032 C1026 1.379 1_655 S
C1032 C1029 1.363 . S
C1032 N1030 1.356 . S
C1033 C1027 1.363 . S
C1033 C1028 1.379 1_455 S
C1033 N1031 1.356 . S
N1034 C1026 1.356 . S
N1034 H1040 0.984 . S
N1034 H1041 0.984 . S
N1035 C1028 1.356 . S
N1035 H1038 0.984 . S
N1035 H1039 0.985 . S
H1036 N1031 0.984 . S
H1037 N1031 0.985 . S
H1038 N1035 0.984 . S
H1039 N1035 0.985 . S
H1040 N1034 0.984 . S
H1041 N1034 0.984 . S
H1042 N1030 0.984 . S
H1043 N1030 0.985 . S
C1044 C1045 1.363 1_554 S
C1044 C1050 1.379 . S
C1044 N1052 1.356 . S
C1045 C1044 1.363 1_556 S
C1045 C1051 1.363 . S
C1046 C1047 1.363 1_556 S
C1046 C1051 1.379 . S
C1046 N1053 1.356 . S
C1047 C1046 1.363 1_554 S
C1047 C1050 1.363 . S
N1048 C1050 1.356 . S
N1048 H1060 0.984 . S
N1048 H1061 0.985 . S
N1049 C1051 1.356 . S
N1049 H1054 0.984 . S
N1049 H1055 0.985 . S
C1050 C1044 1.379 . S
C1050 C1047 1.363 . S
C1050 N1048 1.356 . S
C1051 C1045 1.363 . S
C1051 C1046 1.379 . S
C1051 N1049 1.356 . S
N1052 C1044 1.356 . S
N1052 H1058 0.984 . S
N1052 H1059 0.984 1_554 S
N1053 C1046 1.356 . S
N1053 H1056 0.984 1_556 S
N1053 H1057 0.985 . S
H1054 N1049 0.984 . S
H1055 N1049 0.985 . S
H1056 N1053 0.984 1_554 S
H1057 N1053 0.985 . S
H1058 N1052 0.984 . S
H1059 N1052 0.984 1_556 S
H1060 N1048 0.984 . S
H1061 N1048 0.985 . S
C1062 C1063 1.363 . S
C1062 C1068 1.379 1_545 S
C1062 N1070 1.356 . S
C1063 C1062 1.363 . S
C1063 C1069 1.363 1_554 S
C1064 C1065 1.363 . S
C1064 C1069 1.379 1_565 S
C1064 N1071 1.356 . S
C1065 C1064 1.363 . S
C1065 C1068 1.363 1_556 S
N1066 C1068 1.356 . S
N1066 H1078 0.984 . S
N1066 H1079 0.985 . S
N1067 C1069 1.356 . S
N1067 H1072 0.984 . S
N1067 H1073 0.985 . S
C1068 C1062 1.379 1_565 S
C1068 C1065 1.363 1_554 S
C1068 N1066 1.356 . S
C1069 C1063 1.363 1_556 S
C1069 C1064 1.379 1_545 S
C1069 N1067 1.356 . S
N1070 C1062 1.356 . S
N1070 H1076 0.984 . S
N1070 H1077 0.984 . S
N1071 C1064 1.356 . S
N1071 H1074 0.984 . S
N1071 H1075 0.985 . S
H1072 N1067 0.984 . S
H1073 N1067 0.985 . S
H1074 N1071 0.984 . S
H1075 N1071 0.985 . S
H1076 N1070 0.984 . S
H1077 N1070 0.984 . S
H1078 N1066 0.984 . S
H1079 N1066 0.985 . S
C1080 C1081 1.363 . S
C1080 C1086 1.379 . S
C1080 N1088 1.356 . S
C1081 C1080 1.363 . S
C1081 C1087 1.363 . S
C1082 C1083 1.363 . S
C1082 C1087 1.379 . S
C1082 N1089 1.356 . S
C1083 C1082 1.363 . S
C1083 C1086 1.363 . S
N1084 C1086 1.356 . S
N1084 H1096 0.984 . S
N1084 H1097 0.985 . S
N1085 C1087 1.356 . S
N1085 H1090 0.984 . S
N1085 H1091 0.985 . S
C1086 C1080 1.379 . S
C1086 C1083 1.363 . S
C1086 N1084 1.356 . S
C1087 C1081 1.363 . S
C1087 C1082 1.379 . S
C1087 N1085 1.356 . S
N1088 C1080 1.356 . S
N1088 H1094 0.984 . S
N1088 H1095 0.984 . S
N1089 C1082 1.356 . S
N1089 H1092 0.984 . S
N1089 H1093 0.985 . S
H1090 N1085 0.984 . S
H1091 N1085 0.985 . S
H1092 N1089 0.984 . S
H1093 N1089 0.985 . S
H1094 N1088 0.984 . S
H1095 N1088 0.984 . S
H1096 N1084 0.984 . S
H1097 N1084 0.985 . S
C1098 C1099 1.363 . S
C1098 C1104 1.379 . S
C1098 N1106 1.356 . S
C1099 C1098 1.363 . S
C1099 C1105 1.363 1_545 S
C1100 C1101 1.363 . S
C1100 C1105 1.379 . S
C1100 N1107 1.356 . S
C1101 C1100 1.363 . S
C1101 C1104 1.363 1_565 S
N1102 C1104 1.356 . S
N1102 H1114 0.984 . S
N1102 H1115 0.985 1_545 S
N1103 C1105 1.356 . S
N1103 H1108 0.984 1_565 S
N1103 H1109 0.985 . S
C1104 C1098 1.379 . S
C1104 C1101 1.363 1_545 S
C1104 N1102 1.356 . S
C1105 C1099 1.363 1_565 S
C1105 C1100 1.379 . S
C1105 N1103 1.356 . S
N1106 C1098 1.356 . S
N1106 H1112 0.984 . S
N1106 H1113 0.984 . S
N1107 C1100 1.356 . S
N1107 H1110 0.984 . S
N1107 H1111 0.985 . S
H1108 N1103 0.984 1_545 S
H1109 N1103 0.985 . S
H1110 N1107 0.984 . S
H1111 N1107 0.985 . S
H1112 N1106 0.984 . S
H1113 N1106 0.984 . S
H1114 N1102 0.984 . S
H1115 N1102 0.985 1_565 S
C1116 C1117 1.363 . S
C1116 C1122 1.379 1_455 S
C1116 N1124 1.356 . S
C1117 C1116 1.363 . S
C1117 C1123 1.363 . S
C1118 C1119 1.363 . S
C1118 C1123 1.379 1_655 S
C1118 N1125 1.356 . S
C1119 C1118 1.363 . S
C1119 C1122 1.363 . S
N1120 C1122 1.356 . S
N1120 H1132 0.982 . S
N1120 H1133 0.985 . S
N1121 C1123 1.356 . S
N1121 H1126 0.984 . S
N1121 H1127 0.982 . S
C1122 C1116 1.379 1_655 S
C1122 C1119 1.363 . S
C1122 N1120 1.356 . S
C1123 C1117 1.363 . S
C1123 C1118 1.379 1_455 S
C1123 N1121 1.356 . S
N1124 C1116 1.356 . S
N1124 H1130 0.984 . S
N1124 H1131 0.984 . S
N1125 C1118 1.356 . S
N1125 H1128 0.984 . S
N1125 H1129 0.985 . S
H1126 N1121 0.984 . S
H1127 N1121 0.982 . S
H1128 N1125 0.984 . S
H1129 N1125 0.985 . S
H1130 N1124 0.984 . S
H1131 N1124 0.984 . S
H1132 N1120 0.982 . S
H1133 N1120 0.985 . S
C1134 C1135 1.363 . S
C1134 C1140 1.379 . S
C1134 N1142 1.356 . S
C1135 C1134 1.363 . S
C1135 C1141 1.363 . S
C1136 C1137 1.363 . S
C1136 C1141 1.379 . S
C1136 N1143 1.356 . S
C1137 C1136 1.363 . S
C1137 C1140 1.363 . S
N1138 C1140 1.356 . S
N1138 H1150 0.984 . S
N1138 H1151 0.985 . S
N1139 C1141 1.356 . S
N1139 H1144 0.984 . S
N1139 H1145 0.985 . S
C1140 C1134 1.379 . S
C1140 C1137 1.363 . S
C1140 N1138 1.356 . S
C1141 C1135 1.363 . S
C1141 C1136 1.379 . S
C1141 N1139 1.356 . S
N1142 C1134 1.356 . S
N1142 H1148 0.984 . S
N1142 H1149 0.984 . S
N1143 C1136 1.356 . S
N1143 H1146 0.984 . S
N1143 H1147 0.985 . S
H1144 N1139 0.984 . S
H1145 N1139 0.985 . S
H1146 N1143 0.984 . S
H1147 N1143 0.985 . S
H1148 N1142 0.984 . S
H1149 N1142 0.984 . S
H1150 N1138 0.984 . S
H1151 N1138 0.985 . S
C1152 C1153 1.363 . S
C1152 C1158 1.379 1_565 S
C1152 N1160 1.356 . S
C1153 C1152 1.363 . S
C1153 C1159 1.363 . S
C1154 C1155 1.363 . S
C1154 C1159 1.379 1_545 S
C1154 N1161 1.356 . S
C1155 C1154 1.363 . S
C1155 C1158 1.363 . S
N1156 C1158 1.356 . S
N1156 H1168 0.984 . S
N1156 H1169 0.985 . S
N1157 C1159 1.356 . S
N1157 H1162 0.984 . S
N1157 H1163 0.985 . S
C1158 C1152 1.379 1_545 S
C1158 C1155 1.363 . S
C1158 N1156 1.356 . S
C1159 C1153 1.363 . S
C1159 C1154 1.379 1_565 S
C1159 N1157 1.356 . S
N1160 C1152 1.356 . S
N1160 H1166 0.984 1_565 S
N1160 H1167 0.984 . S
N1161 C1154 1.356 . S
N1161 H1164 0.984 . S
N1161 H1165 0.985 1_545 S
H1162 N1157 0.984 . S
H1163 N1157 0.985 . S
H1164 N1161 0.984 . S
H1165 N1161 0.985 1_565 S
H1166 N1160 0.984 1_545 S
H1167 N1160 0.984 . S
H1168 N1156 0.984 . S
H1169 N1156 0.985 . S
C1170 C1171 1.398 . S
C1170 C1176 1.351 1_655 S
C1170 N1178 1.362 . S
C1171 C1170 1.398 . S
C1171 C1177 1.363 . S
C1172 C1173 1.398 . S
C1172 C1177 1.351 1_455 S
C1172 N1179 1.362 . S
C1173 C1172 1.398 . S
C1173 C1176 1.363 . S
N1174 C1176 1.356 . S
N1174 H1186 0.984 . S
N1174 H1187 0.985 . S
N1175 C1177 1.356 . S
N1175 H1180 0.984 . S
N1175 H1181 0.985 . S
C1176 C1170 1.351 1_455 S
C1176 C1173 1.363 . S
C1176 N1174 1.356 . S
C1177 C1171 1.363 . S
C1177 C1172 1.351 1_655 S
C1177 N1175 1.356 . S
N1178 C1170 1.362 . S
N1178 H1184 0.984 1_655 S
N1178 H1185 0.984 . S
N1179 C1172 1.362 . S
N1179 H1182 0.984 . S
N1179 H1183 0.985 1_455 S
H1180 N1175 0.984 . S
H1181 N1175 0.985 . S
H1182 N1179 0.984 . S
H1183 N1179 0.985 1_655 S
H1184 N1178 0.984 1_455 S
H1185 N1178 0.984 . S
H1186 N1174 0.984 . S
H1187 N1174 0.985 . S
C1188 C1189 1.363 . S
C1188 C1194 1.379 . S
C1188 N1196 1.356 . S
C1189 C1188 1.363 . S
C1189 C1195 1.363 . S
C1190 C1191 1.363 . S
C1190 C1195 1.379 . S
C1190 N1197 1.356 . S
C1191 C1190 1.363 . S
C1191 C1194 1.363 . S
N1192 C1194 1.356 . S
N1192 H1204 0.984 . S
N1192 H1205 0.985 . S
N1193 C1195 1.356 . S
N1193 H1198 0.984 . S
N1193 H1199 0.985 . S
C1194 C1188 1.379 . S
C1194 C1191 1.363 . S
C1194 N1192 1.356 . S
C1195 C1189 1.363 . S
C1195 C1190 1.379 . S
C1195 N1193 1.356 . S
N1196 C1188 1.356 . S
N1196 H1202 0.984 . S
N1196 H1203 0.984 . S
N1197 C1190 1.356 . S
N1197 H1200 0.984 . S
N1197 H1201 0.985 . S
H1198 N1193 0.984 . S
H1199 N1193 0.985 . S
H1200 N1197 0.984 . S
H1201 N1197 0.985 . S
H1202 N1196 0.984 . S
H1203 N1196 0.984 . S
H1204 N1192 0.984 . S
H1205 N1192 0.985 . S
C1206 C1207 1.363 . S
C1206 C1212 1.379 . S
C1206 N1214 1.356 . S
C1207 C1206 1.363 . S
C1207 C1213 1.363 . S
C1208 C1209 1.363 . S
C1208 C1213 1.379 . S
C1208 N1215 1.356 . S
C1209 C1208 1.363 . S
C1209 C1212 1.363 . S
N1210 C1212 1.356 . S
N1210 H1222 0.984 . S
N1210 H1223 0.985 . S
N1211 C1213 1.356 . S
N1211 H1216 0.984 . S
N1211 H1217 0.985 . S
C1212 C1206 1.379 . S
C1212 C1209 1.363 . S
C1212 N1210 1.356 . S
C1213 C1207 1.363 . S
C1213 C1208 1.379 . S
C1213 N1211 1.356 . S
N1214 C1206 1.356 . S
N1214 H1220 0.984 . S
N1214 H1221 0.984 . S
N1215 C1208 1.356 . S
N1215 H1218 0.984 . S
N1215 H1219 0.985 . S
H1216 N1211 0.984 . S
H1217 N1211 0.985 . S
H1218 N1215 0.984 . S
H1219 N1215 0.985 . S
H1220 N1214 0.984 . S
H1221 N1214 0.984 . S
H1222 N1210 0.984 . S
H1223 N1210 0.985 . S
C1224 C1225 1.363 . S
C1224 C1230 1.379 . S
C1224 N1232 1.356 . S
C1225 C1224 1.363 . S
C1225 C1231 1.363 . S
C1226 C1227 1.363 . S
C1226 C1231 1.379 . S
C1226 N1233 1.356 . S
C1227 C1226 1.363 . S
C1227 C1230 1.363 . S
N1228 C1230 1.356 . S
N1228 H1240 0.984 . S
N1228 H1241 0.985 . S
N1229 C1231 1.356 . S
N1229 H1234 0.984 . S
N1229 H1235 0.985 . S
C1230 C1224 1.379 . S
C1230 C1227 1.363 . S
C1230 N1228 1.356 . S
C1231 C1225 1.363 . S
C1231 C1226 1.379 . S
C1231 N1229 1.356 . S
N1232 C1224 1.356 . S
N1232 H1238 0.984 . S
N1232 H1239 0.984 . S
N1233 C1226 1.356 . S
N1233 H1236 0.984 . S
N1233 H1237 0.985 . S
H1234 N1229 0.984 . S
H1235 N1229 0.985 . S
H1236 N1233 0.984 . S
H1237 N1233 0.985 . S
H1238 N1232 0.984 . S
H1239 N1232 0.984 . S
H1240 N1228 0.984 . S
H1241 N1228 0.985 . S
C1242 C1243 1.363 . S
C1242 C1248 1.379 . S
C1242 N1250 1.356 . S
C1243 C1242 1.363 . S
C1243 C1249 1.363 . S
C1244 C1245 1.363 . S
C1244 C1249 1.379 . S
C1244 N1251 1.356 . S
C1245 C1244 1.363 . S
C1245 C1248 1.363 . S
N1246 C1248 1.356 . S
N1246 H1258 0.984 . S
N1246 H1259 0.985 . S
N1247 C1249 1.356 . S
N1247 H1252 0.984 . S
N1247 H1253 0.987 . S
C1248 C1242 1.379 . S
C1248 C1245 1.363 . S
C1248 N1246 1.356 . S
C1249 C1243 1.363 . S
C1249 C1244 1.379 . S
C1249 N1247 1.356 . S
N1250 C1242 1.356 . S
N1250 H1256 0.984 . S
N1250 H1257 0.984 . S
N1251 C1244 1.356 . S
N1251 H1254 0.984 . S
N1251 H1255 0.985 . S
H1252 N1247 0.984 . S
H1253 N1247 0.987 . S
H1254 N1251 0.984 . S
H1255 N1251 0.985 . S
H1256 N1250 0.984 . S
H1257 N1250 0.984 . S
H1258 N1246 0.984 . S
H1259 N1246 0.985 . S
C1260 C1261 1.363 . S
C1260 C1266 1.379 . S
C1260 N1268 1.356 . S
C1261 C1260 1.363 . S
C1261 C1267 1.363 . S
C1262 C1263 1.363 . S
C1262 C1267 1.379 . S
C1262 N1269 1.356 . S
C1263 C1262 1.363 . S
C1263 C1266 1.363 . S
N1264 C1266 1.356 . S
N1264 H1276 0.984 . S
N1264 H1277 0.985 . S
N1265 C1267 1.356 . S
N1265 H1270 0.984 . S
N1265 H1271 0.985 . S
C1266 C1260 1.379 . S
C1266 C1263 1.363 . S
C1266 N1264 1.356 . S
C1267 C1261 1.363 . S
C1267 C1262 1.379 . S
C1267 N1265 1.356 . S
N1268 C1260 1.356 . S
N1268 H1274 0.984 . S
N1268 H1275 0.984 . S
N1269 C1262 1.356 . S
N1269 H1272 0.984 . S
N1269 H1273 0.985 . S
H1270 N1265 0.984 . S
H1271 N1265 0.985 . S
H1272 N1269 0.984 . S
H1273 N1269 0.985 . S
H1274 N1268 0.984 . S
H1275 N1268 0.984 . S
H1276 N1264 0.984 . S
H1277 N1264 0.985 . S
C1278 C1279 1.363 . S
C1278 C1284 1.379 . S
C1278 N1286 1.356 . S
C1279 C1278 1.363 . S
C1279 C1285 1.363 . S
C1280 C1281 1.363 . S
C1280 C1285 1.379 . S
C1280 N1287 1.356 . S
C1281 C1280 1.363 . S
C1281 C1284 1.363 . S
N1282 C1284 1.356 . S
N1282 H1294 0.984 . S
N1282 H1295 0.985 . S
N1283 C1285 1.356 . S
N1283 H1288 0.984 . S
N1283 H1289 0.985 . S
C1284 C1278 1.379 . S
C1284 C1281 1.363 . S
C1284 N1282 1.356 . S
C1285 C1279 1.363 . S
C1285 C1280 1.379 . S
C1285 N1283 1.356 . S
N1286 C1278 1.356 . S
N1286 H1292 0.984 1_556 S
N1286 H1293 0.984 . S
N1287 C1280 1.356 . S
N1287 H1290 0.984 . S
N1287 H1291 0.985 . S
H1288 N1283 0.984 . S
H1289 N1283 0.985 . S
H1290 N1287 0.984 . S
H1291 N1287 0.985 . S
H1292 N1286 0.984 1_554 S
H1293 N1286 0.984 . S
H1294 N1282 0.984 . S
H1295 N1282 0.985 . S
C1296 C1297 1.363 . S
C1296 C1302 1.379 . S
C1296 N1304 1.356 . S
C1297 C1296 1.363 . S
C1297 C1303 1.363 . S
C1298 C1299 1.363 . S
C1298 C1303 1.379 . S
C1298 N1305 1.356 . S
C1299 C1298 1.363 . S
C1299 C1302 1.363 . S
N1300 C1302 1.356 . S
N1300 H1312 0.984 . S
N1300 H1313 0.985 . S
N1301 C1303 1.356 . S
N1301 H1306 0.984 . S
N1301 H1307 0.985 . S
C1302 C1296 1.379 . S
C1302 C1299 1.363 . S
C1302 N1300 1.356 . S
C1303 C1297 1.363 . S
C1303 C1298 1.379 . S
C1303 N1301 1.356 . S
N1304 C1296 1.356 . S
N1304 H1310 0.984 . S
N1304 H1311 0.984 . S
N1305 C1298 1.356 . S
N1305 H1308 0.984 . S
N1305 H1309 0.985 . S
H1306 N1301 0.984 . S
H1307 N1301 0.985 . S
H1308 N1305 0.984 . S
H1309 N1305 0.985 . S
H1310 N1304 0.984 . S
H1311 N1304 0.984 . S
H1312 N1300 0.984 . S
H1313 N1300 0.985 . S
C1314 C1315 1.363 . S
C1314 C1320 1.379 . S
C1314 N1322 1.356 . S
C1315 C1314 1.363 . S
C1315 C1321 1.363 . S
C1316 C1317 1.363 . S
C1316 C1321 1.379 . S
C1316 N1323 1.356 . S
C1317 C1316 1.363 . S
C1317 C1320 1.363 . S
N1318 C1320 1.356 . S
N1318 H1330 0.984 . S
N1318 H1331 0.985 . S
N1319 C1321 1.356 . S
N1319 H1324 0.984 . S
N1319 H1325 0.985 . S
C1320 C1314 1.379 . S
C1320 C1317 1.363 . S
C1320 N1318 1.356 . S
C1321 C1315 1.363 . S
C1321 C1316 1.379 . S
C1321 N1319 1.356 . S
N1322 C1314 1.356 . S
N1322 H1328 0.984 . S
N1322 H1329 0.984 . S
N1323 C1316 1.356 . S
N1323 H1326 0.984 . S
N1323 H1327 0.985 . S
H1324 N1319 0.984 . S
H1325 N1319 0.985 . S
H1326 N1323 0.984 . S
H1327 N1323 0.985 . S
H1328 N1322 0.984 . S
H1329 N1322 0.984 . S
H1330 N1318 0.984 . S
H1331 N1318 0.985 . S
C1332 C1333 1.363 . S
C1332 C1338 1.379 . S
C1332 N1340 1.356 . S
C1333 C1332 1.363 . S
C1333 C1339 1.363 . S
C1334 C1335 1.363 . S
C1334 C1339 1.379 . S
C1334 N1341 1.356 . S
C1335 C1334 1.363 . S
C1335 C1338 1.363 . S
N1336 C1338 1.356 . S
N1336 H1348 0.984 . S
N1336 H1349 0.985 . S
N1337 C1339 1.356 . S
N1337 H1342 0.984 . S
N1337 H1343 0.985 . S
C1338 C1332 1.379 . S
C1338 C1335 1.363 . S
C1338 N1336 1.356 . S
C1339 C1333 1.363 . S
C1339 C1334 1.379 . S
C1339 N1337 1.356 . S
N1340 C1332 1.356 . S
N1340 H1346 0.984 . S
N1340 H1347 0.984 . S
N1341 C1334 1.356 . S
N1341 H1344 0.984 . S
N1341 H1345 0.985 . S
H1342 N1337 0.984 . S
H1343 N1337 0.985 . S
H1344 N1341 0.984 . S
H1345 N1341 0.985 . S
H1346 N1340 0.984 . S
H1347 N1340 0.984 . S
H1348 N1336 0.984 . S
H1349 N1336 0.985 . S
C1350 C1351 1.363 . S
C1350 C1356 1.379 . S
C1350 N1358 1.356 . S
C1351 C1350 1.363 . S
C1351 C1357 1.363 . S
C1352 C1353 1.363 . S
C1352 C1357 1.379 . S
C1352 N1359 1.356 . S
C1353 C1352 1.363 . S
C1353 C1356 1.363 . S
N1354 C1356 1.356 . S
N1354 H1366 0.984 . S
N1354 H1367 0.985 . S
N1355 C1357 1.356 . S
N1355 H1360 0.984 . S
N1355 H1361 0.985 . S
C1356 C1350 1.379 . S
C1356 C1353 1.363 . S
C1356 N1354 1.356 . S
C1357 C1351 1.363 . S
C1357 C1352 1.379 . S
C1357 N1355 1.356 . S
N1358 C1350 1.356 . S
N1358 H1364 0.984 . S
N1358 H1365 0.984 . S
N1359 C1352 1.356 . S
N1359 H1362 0.984 . S
N1359 H1363 0.985 . S
H1360 N1355 0.984 . S
H1361 N1355 0.985 . S
H1362 N1359 0.984 . S
H1363 N1359 0.985 . S
H1364 N1358 0.984 . S
H1365 N1358 0.984 . S
H1366 N1354 0.984 . S
H1367 N1354 0.985 . S
C1368 C1369 1.363 . S
C1368 C1374 1.379 . S
C1368 N1376 1.356 . S
C1369 C1368 1.363 . S
C1369 C1375 1.363 . S
C1370 C1371 1.363 . S
C1370 C1375 1.379 . S
C1370 N1377 1.356 . S
C1371 C1370 1.363 . S
C1371 C1374 1.363 . S
N1372 C1374 1.356 . S
N1372 H1384 0.984 1_554 S
N1372 H1385 0.985 . S
N1373 C1375 1.356 . S
N1373 H1378 0.984 . S
N1373 H1379 0.985 . S
C1374 C1368 1.379 . S
C1374 C1371 1.363 . S
C1374 N1372 1.356 . S
C1375 C1369 1.363 . S
C1375 C1370 1.379 . S
C1375 N1373 1.356 . S
N1376 C1368 1.356 . S
N1376 H1382 0.984 . S
N1376 H1383 0.984 . S
N1377 C1370 1.356 . S
N1377 H1380 0.984 . S
N1377 H1381 0.985 . S
H1378 N1373 0.984 . S
H1379 N1373 0.985 . S
H1380 N1377 0.984 . S
H1381 N1377 0.985 . S
H1382 N1376 0.984 . S
H1383 N1376 0.984 . S
H1384 N1372 0.984 1_556 S
H1385 N1372 0.985 . S
C1386 C1387 1.363 . S
C1386 C1392 1.379 . S
C1386 N1394 1.356 . S
C1387 C1386 1.363 . S
C1387 C1393 1.363 . S
C1388 C1389 1.363 . S
C1388 C1393 1.379 . S
C1388 N1395 1.356 . S
C1389 C1388 1.363 . S
C1389 C1392 1.363 . S
N1390 C1392 1.356 . S
N1390 H1402 0.984 . S
N1390 H1403 0.985 . S
N1391 C1393 1.356 . S
N1391 H1396 0.984 . S
N1391 H1397 0.985 . S
C1392 C1386 1.379 . S
C1392 C1389 1.363 . S
C1392 N1390 1.356 . S
C1393 C1387 1.363 . S
C1393 C1388 1.379 . S
C1393 N1391 1.356 . S
N1394 C1386 1.356 . S
N1394 H1400 0.984 . S
N1394 H1401 0.984 . S
N1395 C1388 1.356 . S
N1395 H1398 0.984 . S
N1395 H1399 0.985 . S
H1396 N1391 0.984 . S
H1397 N1391 0.985 . S
H1398 N1395 0.984 . S
H1399 N1395 0.985 . S
H1400 N1394 0.984 . S
H1401 N1394 0.984 . S
H1402 N1390 0.984 . S
H1403 N1390 0.985 . S
C595 N112 1.113 . S
C597 N13 1.113 . S
C613 N145 1.113 . S
C615 N46 1.113 . S
C631 N79 1.113 . S
C633 N178 1.113 . S
C649 C51 2.230 . S
C651 C183 2.230 . S
C667 C117 2.230 . S
C669 C84 2.230 . S
C685 C150 2.230 . S
C687 C18 2.230 . S
C703 N211 1.113 . S
C705 N310 1.113 . S
C721 N343 1.113 . S
C723 N244 1.113 . S
C739 N277 1.113 . S
C741 N376 1.113 . S
C757 C381 2.230 . S
C759 C249 2.230 . S
C775 C315 2.230 . S
C777 C282 2.230 . S
C793 C348 2.230 . S
C795 C216 2.230 . S
C811 N508 1.113 . S
C813 N409 1.113 . S
C829 N442 1.113 . S
C831 N541 1.113 . S
C847 N574 1.113 . S
C849 N475 1.113 . S
C865 C447 2.230 . S
C867 C579 2.230 . S
C883 C513 2.230 . S
C885 C480 2.230 . S
C901 C414 2.230 . S
C903 C546 2.230 . S
C919 C582 1.447 . S
C921 C21 1.447 . S
C937 C54 1.447 . S
C939 C516 1.447 . S
C955 C549 1.448 . S
C957 C87 1.448 . S
C973 C252 1.447 . S
C975 C120 1.447 . S
C991 C153 1.448 . S
C993 C285 1.448 . S
C1009 C186 1.447 . S
C1011 C219 1.447 . S
C1027 C450 1.447 . S
C1029 C318 1.447 . S
C1045 C483 1.448 . S
C1047 C351 1.448 . S
C1063 C384 1.447 . S
C1065 C417 1.447 . S
C1081 C7 2.018 . S
C1083 C106 2.018 . S
C1099 C139 2.018 . S
C1101 C40 2.018 . S
C1117 C73 2.018 . S
C1119 C172 2.018 . S
C1135 N167 0.826 . S
C1137 N35 0.826 . S
C1153 N68 0.826 . S
C1155 N101 0.826 . S
C1171 N134 0.826 . S
C1173 N2 0.826 . S
C1189 C205 2.018 . S
C1191 C304 2.018 . S
C1207 C337 2.018 . S
C1209 C238 2.018 . S
C1225 C370 2.018 . S
C1227 C271 2.018 . S
C1243 N365 0.826 . S
C1245 N233 0.826 . S
C1261 N299 0.826 . S
C1263 N266 0.826 . S
C1279 N332 0.826 . S
C1281 N200 0.826 . S
C1297 C502 2.018 . S
C1299 C403 2.018 . S
C1315 C535 2.018 . S
C1317 C436 2.018 . S
C1333 C568 2.018 . S
C1335 C469 2.018 . S
C1351 N563 0.826 . S
C1353 N431 0.826 . S
C1369 N497 0.826 . S
C1371 N464 0.826 . S
C1387 N530 0.826 . S
C1389 N398 0.826 . S
